# Generated by pormake.
# Topology ctn, (3,4)-cn, num edge types: 1
# Building blocks:
#     Node 0, Type 0, BuildingBlock: KAKCAD_clean_linker_0, # of connection points: 3
#     Node 1, Type 0, BuildingBlock: KAKCAD_clean_linker_0, # of connection points: 3
#     Node 2, Type 0, BuildingBlock: KAKCAD_clean_linker_0, # of connection points: 3
#     Node 3, Type 0, BuildingBlock: KAKCAD_clean_linker_0, # of connection points: 3
#     Node 4, Type 0, BuildingBlock: KAKCAD_clean_linker_0, # of connection points: 3
#     Node 5, Type 0, BuildingBlock: KAKCAD_clean_linker_0, # of connection points: 3
#     Node 6, Type 0, BuildingBlock: KAKCAD_clean_linker_0, # of connection points: 3
#     Node 7, Type 0, BuildingBlock: KAKCAD_clean_linker_0, # of connection points: 3
#     Node 8, Type 0, BuildingBlock: KAKCAD_clean_linker_0, # of connection points: 3
#     Node 9, Type 0, BuildingBlock: KAKCAD_clean_linker_0, # of connection points: 3
#     Node 10, Type 0, BuildingBlock: KAKCAD_clean_linker_0, # of connection points: 3
#     Node 11, Type 0, BuildingBlock: KAKCAD_clean_linker_0, # of connection points: 3
#     Node 12, Type 0, BuildingBlock: KAKCAD_clean_linker_0, # of connection points: 3
#     Node 13, Type 0, BuildingBlock: KAKCAD_clean_linker_0, # of connection points: 3
#     Node 14, Type 0, BuildingBlock: KAKCAD_clean_linker_0, # of connection points: 3
#     Node 15, Type 0, BuildingBlock: KAKCAD_clean_linker_0, # of connection points: 3
#     Node 16, Type 1, BuildingBlock: NAHDIM_clean_sbu_0, # of connection points: 4
#     Node 17, Type 1, BuildingBlock: NAHDIM_clean_sbu_0, # of connection points: 4
#     Node 18, Type 1, BuildingBlock: NAHDIM_clean_sbu_0, # of connection points: 4
#     Node 19, Type 1, BuildingBlock: NAHDIM_clean_sbu_0, # of connection points: 4
#     Node 20, Type 1, BuildingBlock: NAHDIM_clean_sbu_0, # of connection points: 4
#     Node 21, Type 1, BuildingBlock: NAHDIM_clean_sbu_0, # of connection points: 4
#     Node 22, Type 1, BuildingBlock: NAHDIM_clean_sbu_0, # of connection points: 4
#     Node 23, Type 1, BuildingBlock: NAHDIM_clean_sbu_0, # of connection points: 4
#     Node 24, Type 1, BuildingBlock: NAHDIM_clean_sbu_0, # of connection points: 4
#     Node 25, Type 1, BuildingBlock: NAHDIM_clean_sbu_0, # of connection points: 4
#     Node 26, Type 1, BuildingBlock: NAHDIM_clean_sbu_0, # of connection points: 4
#     Node 27, Type 1, BuildingBlock: NAHDIM_clean_sbu_0, # of connection points: 4
#     Edge 28, Type (0, 1), BuildingBlock: XIVTED_clean_linker_0, # of connection points: 2
#     Edge 29, Type (0, 1), BuildingBlock: XIVTED_clean_linker_0, # of connection points: 2
#     Edge 30, Type (0, 1), BuildingBlock: XIVTED_clean_linker_0, # of connection points: 2
#     Edge 31, Type (0, 1), BuildingBlock: XIVTED_clean_linker_0, # of connection points: 2
#     Edge 32, Type (0, 1), BuildingBlock: XIVTED_clean_linker_0, # of connection points: 2
#     Edge 33, Type (0, 1), BuildingBlock: XIVTED_clean_linker_0, # of connection points: 2
#     Edge 34, Type (0, 1), BuildingBlock: XIVTED_clean_linker_0, # of connection points: 2
#     Edge 35, Type (0, 1), BuildingBlock: XIVTED_clean_linker_0, # of connection points: 2
#     Edge 36, Type (0, 1), BuildingBlock: XIVTED_clean_linker_0, # of connection points: 2
#     Edge 37, Type (0, 1), BuildingBlock: XIVTED_clean_linker_0, # of connection points: 2
#     Edge 38, Type (0, 1), BuildingBlock: XIVTED_clean_linker_0, # of connection points: 2
#     Edge 39, Type (0, 1), BuildingBlock: XIVTED_clean_linker_0, # of connection points: 2
#     Edge 40, Type (0, 1), BuildingBlock: XIVTED_clean_linker_0, # of connection points: 2
#     Edge 41, Type (0, 1), BuildingBlock: XIVTED_clean_linker_0, # of connection points: 2
#     Edge 42, Type (0, 1), BuildingBlock: XIVTED_clean_linker_0, # of connection points: 2
#     Edge 43, Type (0, 1), BuildingBlock: XIVTED_clean_linker_0, # of connection points: 2
#     Edge 44, Type (0, 1), BuildingBlock: XIVTED_clean_linker_0, # of connection points: 2
#     Edge 45, Type (0, 1), BuildingBlock: XIVTED_clean_linker_0, # of connection points: 2
#     Edge 46, Type (0, 1), BuildingBlock: XIVTED_clean_linker_0, # of connection points: 2
#     Edge 47, Type (0, 1), BuildingBlock: XIVTED_clean_linker_0, # of connection points: 2
#     Edge 48, Type (0, 1), BuildingBlock: XIVTED_clean_linker_0, # of connection points: 2
#     Edge 49, Type (0, 1), BuildingBlock: XIVTED_clean_linker_0, # of connection points: 2
#     Edge 50, Type (0, 1), BuildingBlock: XIVTED_clean_linker_0, # of connection points: 2
#     Edge 51, Type (0, 1), BuildingBlock: XIVTED_clean_linker_0, # of connection points: 2
#     Edge 52, Type (0, 1), BuildingBlock: XIVTED_clean_linker_0, # of connection points: 2
#     Edge 53, Type (0, 1), BuildingBlock: XIVTED_clean_linker_0, # of connection points: 2
#     Edge 54, Type (0, 1), BuildingBlock: XIVTED_clean_linker_0, # of connection points: 2
#     Edge 55, Type (0, 1), BuildingBlock: XIVTED_clean_linker_0, # of connection points: 2
#     Edge 56, Type (0, 1), BuildingBlock: XIVTED_clean_linker_0, # of connection points: 2
#     Edge 57, Type (0, 1), BuildingBlock: XIVTED_clean_linker_0, # of connection points: 2
#     Edge 58, Type (0, 1), BuildingBlock: XIVTED_clean_linker_0, # of connection points: 2
#     Edge 59, Type (0, 1), BuildingBlock: XIVTED_clean_linker_0, # of connection points: 2
#     Edge 60, Type (0, 1), BuildingBlock: XIVTED_clean_linker_0, # of connection points: 2
#     Edge 61, Type (0, 1), BuildingBlock: XIVTED_clean_linker_0, # of connection points: 2
#     Edge 62, Type (0, 1), BuildingBlock: XIVTED_clean_linker_0, # of connection points: 2
#     Edge 63, Type (0, 1), BuildingBlock: XIVTED_clean_linker_0, # of connection points: 2
#     Edge 64, Type (0, 1), BuildingBlock: XIVTED_clean_linker_0, # of connection points: 2
#     Edge 65, Type (0, 1), BuildingBlock: XIVTED_clean_linker_0, # of connection points: 2
#     Edge 66, Type (0, 1), BuildingBlock: XIVTED_clean_linker_0, # of connection points: 2
#     Edge 67, Type (0, 1), BuildingBlock: XIVTED_clean_linker_0, # of connection points: 2
#     Edge 68, Type (0, 1), BuildingBlock: XIVTED_clean_linker_0, # of connection points: 2
#     Edge 69, Type (0, 1), BuildingBlock: XIVTED_clean_linker_0, # of connection points: 2
#     Edge 70, Type (0, 1), BuildingBlock: XIVTED_clean_linker_0, # of connection points: 2
#     Edge 71, Type (0, 1), BuildingBlock: XIVTED_clean_linker_0, # of connection points: 2
#     Edge 72, Type (0, 1), BuildingBlock: XIVTED_clean_linker_0, # of connection points: 2
#     Edge 73, Type (0, 1), BuildingBlock: XIVTED_clean_linker_0, # of connection points: 2
#     Edge 74, Type (0, 1), BuildingBlock: XIVTED_clean_linker_0, # of connection points: 2
#     Edge 75, Type (0, 1), BuildingBlock: XIVTED_clean_linker_0, # of connection points: 2
# Relax obj value: 0.002
# Max RMSD: 0.033
# Mean RMSD: 0.016
data_MOF--net-ctn--node1-NAHDIM_clean_sbu_0--node2-KAKCAD_clean_linker_0--edge1-XIVTED_clean_linker_0
_symmetry_space_group_name_H-M    P1
_symmetry_Int_Tables_number       1
_symmetry_cell_setting            triclinic
loop_
_symmetry_equiv_pos_as_xyz
'x, y, z'
_cell_length_a     68.119518
_cell_length_b     68.44847
_cell_length_c     67.696197
_cell_angle_alpha  91.212236
_cell_angle_beta   90.363611
_cell_angle_gamma 92.317922
loop_
_atom_site_label
_atom_site_type_symbol
_atom_site_fract_x
_atom_site_fract_y
_atom_site_fract_z
_atom_type_partial_charge
C0 C 0.02968 0.09147 0.97918 0.0
C1 C 0.02404 0.10963 0.98686 0.0
C2 C 0.03247 0.07583 0.99169 0.0
C3 C 0.02969 0.07801 0.01217 0.0
C4 C 0.02421 0.09621 0.01986 0.0
C5 C 0.02141 0.11183 0.00736 0.0
C6 C 0.03232 0.0613 0.02544 0.0
C7 C 0.04814 0.04898 0.02281 0.0
C8 C 0.05064 0.03302 0.0352 0.0
C9 C 0.03706 0.02954 0.05041 0.0
C10 C 0.02131 0.04186 0.05341 0.0
C11 C 0.01901 0.05763 0.0408 0.0
C12 C 0.00742 0.03843 0.06989 0.0
C13 C 0.00018 0.01945 0.07401 0.0
C14 C 0.00151 0.05417 0.0818 0.0
C15 C 0.98874 0.05099 0.09757 0.0
C16 C 0.98155 0.03199 0.10177 0.0
C17 C 0.06755 0.02017 0.03241 0.0
C18 C 0.07385 0.01502 0.01332 0.0
C19 C 0.07758 0.01301 0.04879 0.0
C20 C 0.09345 0.00094 0.04615 0.0
C21 C 0.09981 0.99586 0.02707 0.0
C22 C 0.08982 0.0031 0.01069 0.0
C23 C 0.98737 0.01627 0.08977 0.0
H24 H 0.03156 0.08922 0.96343 0.0
H25 H 0.03643 0.06192 0.98528 0.0
H26 H 0.02228 0.09844 0.03561 0.0
H27 H 0.0174 0.12572 0.01378 0.0
H28 H 0.05881 0.05215 0.0114 0.0
H29 H 0.00656 0.06685 0.04272 0.0
H30 H 0.0388 0.01728 0.06004 0.0
H31 H 0.00426 0.00707 0.06492 0.0
H32 H 0.00707 0.06893 0.07917 0.0
H33 H 0.98483 0.06339 0.10671 0.0
H34 H 0.06633 0.02008 0.00036 0.0
H35 H 0.07333 0.01688 0.0637 0.0
H36 H 0.98186 0.00149 0.09241 0.0
H37 H 0.09445 -0.00026 0.99577 0.0
H38 H 0.10061 0.99545 0.05912 0.0
C39 C 0.33049 0.74466 0.26511 0.0
C40 C 0.34272 0.7294 0.27006 0.0
C41 C 0.31402 0.74103 0.25299 0.0
C42 C 0.30934 0.72206 0.24566 0.0
C43 C 0.32134 0.70673 0.25085 0.0
C44 C 0.33788 0.71037 0.26288 0.0
C45 C 0.29224 0.71835 0.23226 0.0
C46 C 0.28902 0.73085 0.21651 0.0
C47 C 0.27313 0.7273 0.20344 0.0
C48 C 0.26033 0.71102 0.20635 0.0
C49 C 0.26328 0.69835 0.22208 0.0
C50 C 0.2793 0.70216 0.23497 0.0
C51 C 0.24974 0.68108 0.22493 0.0
C52 C 0.22938 0.68243 0.2221 0.0
C53 C 0.2571 0.66305 0.23035 0.0
C54 C 0.24442 0.64675 0.23281 0.0
C55 C 0.22407 0.64805 0.22982 0.0
C56 C 0.27019 0.74038 0.18653 0.0
C57 C 0.2729 0.76076 0.18895 0.0
C58 C 0.26496 0.73257 0.16778 0.0
C59 C 0.26264 0.74483 0.15178 0.0
C60 C 0.26555 0.76521 0.15414 0.0
C61 C 0.27062 0.77303 0.17294 0.0
C62 C 0.2167 0.6661 0.22447 0.0
H63 H 0.33355 0.75942 0.27069 0.0
H64 H 0.30487 0.75307 0.24944 0.0
H65 H 0.3182 0.692 0.24521 0.0
H66 H 0.34713 0.69833 0.26614 0.0
H67 H 0.29932 0.74304 0.21405 0.0
H68 H 0.28152 0.69273 0.24738 0.0
H69 H 0.24809 0.70815 0.19627 0.0
H70 H 0.22319 0.69616 0.21816 0.0
H71 H 0.27272 0.66143 0.23244 0.0
H72 H 0.25059 0.63315 0.23719 0.0
H73 H 0.27674 0.76726 0.20325 0.0
H74 H 0.26296 0.71692 0.16536 0.0
H75 H 0.20115 0.66759 0.22183 0.0
H76 H 0.27317 0.78864 0.17523 0.0
H77 H 0.25848 0.73833 0.13756 0.0
C78 C -0.0008 0.48084 0.09238 0.0
C79 C 0.01952 0.47933 0.08953 0.0
C80 C 0.9861 0.47834 0.07649 0.0
C81 C 0.993 0.4743 0.05738 0.0
C82 C 0.01334 0.47312 0.05447 0.0
C83 C 0.02645 0.4756 0.07036 0.0
C84 C 0.979 0.47076 0.04065 0.0
C85 C 0.96252 0.48226 0.03862 0.0
C86 C 0.94892 0.47857 0.02315 0.0
C87 C 0.95201 0.46317 0.0096 0.0
C88 C 0.96849 0.45165 0.01133 0.0
C89 C 0.98189 0.45553 0.02688 0.0
C90 C 0.97162 0.43536 -0.00294 0.0
C91 C 0.95605 0.42219 0.99166 0.0
C92 C 0.99029 0.43272 0.98895 0.0
C93 C 0.99335 0.41719 0.97576 0.0
C94 C 0.97784 0.4039 0.97052 0.0
C95 C 0.93147 0.49074 0.02114 0.0
C96 C 0.92084 0.49646 0.03789 0.0
C97 C 0.92522 0.49662 0.00243 0.0
C98 C 0.90865 0.50782 0.00049 0.0
C99 C 0.898 0.51347 0.01723 0.0
C100 C 0.90431 0.50773 0.03596 0.0
C101 C 0.95915 0.40658 0.97858 0.0
H102 H 0.9934 0.48396 0.10692 0.0
H103 H 0.97051 0.47917 0.07927 0.0
H104 H 0.01915 0.47025 0.03988 0.0
H105 H 0.04198 0.47417 0.06767 0.0
H106 H 0.96048 0.49437 0.04888 0.0
H107 H 0.99428 0.44625 0.0286 0.0
H108 H 0.94155 0.46009 -0.0023 0.0
H109 H 0.94154 0.42378 -0.00219 0.0
H110 H 0.00252 0.44274 0.99275 0.0
H111 H 0.00795 0.4154 0.96993 0.0
H112 H 0.9251 0.49194 0.05249 0.0
H113 H 0.93326 0.49276 0.98926 0.0
H114 H 0.94688 0.39665 0.97468 0.0
H115 H 0.89626 0.51165 0.04911 0.0
H116 H 0.90434 0.51228 0.98589 0.0
C117 C 0.69381 0.75705 0.14134 0.0
C118 C 0.71309 0.75218 0.1366 0.0
C119 C 0.69031 0.77024 0.15682 0.0
C120 C 0.70602 0.77888 0.16787 0.0
C121 C 0.7253 0.77392 0.16322 0.0
C122 C 0.72879 0.7607 0.14776 0.0
C123 C 0.70232 0.79323 0.18403 0.0
C124 C 0.68685 0.78985 0.19731 0.0
C125 C 0.68304 0.80351 0.21248 0.0
C126 C 0.695 0.8207 0.21423 0.0
C127 C 0.71068 0.82417 0.20124 0.0
C128 C 0.7142 0.8104 0.18616 0.0
C129 C 0.72355 0.84209 0.20356 0.0
C130 C 0.71548 0.86037 0.20727 0.0
C131 C 0.74406 0.84096 0.20233 0.0
C132 C 0.75626 0.85772 0.20494 0.0
C133 C 0.7482 0.87599 0.20877 0.0
C134 C 0.66673 0.79973 0.22658 0.0
C135 C 0.64875 0.79096 0.22004 0.0
C136 C 0.66902 0.80487 0.24672 0.0
C137 C 0.65365 0.80149 0.25994 0.0
C138 C 0.63574 0.7927 0.25337 0.0
C139 C 0.63346 0.78738 0.23331 0.0
C140 C 0.72768 0.87716 0.2098 0.0
H141 H 0.68138 0.75058 0.13316 0.0
H142 H 0.67531 0.7739 0.15994 0.0
H143 H 0.7377 0.78019 0.17159 0.0
H144 H 0.74383 0.75738 0.14436 0.0
H145 H 0.67808 0.77632 0.19612 0.0
H146 H 0.72594 0.81328 0.17576 0.0
H147 H 0.69219 0.83137 0.2258 0.0
H148 H 0.69972 0.86172 0.20811 0.0
H149 H 0.75071 0.82705 0.19965 0.0
H150 H 0.772 0.85639 0.20386 0.0
H151 H 0.64635 0.7871 0.20459 0.0
H152 H 0.68277 0.81129 0.25237 0.0
H153 H 0.72105 0.891 0.21288 0.0
H154 H 0.61971 0.78079 0.22782 0.0
H155 H 0.65589 0.80549 0.27538 0.0
C156 C 0.97062 0.98112 0.417 0.0
C157 C 0.97699 0.98558 0.39784 0.0
C158 C 0.98423 0.97805 0.43205 0.0
C159 C 0.0045 0.97941 0.42827 0.0
C160 C 0.01086 0.98383 0.40911 0.0
C161 C -0.00273 0.98686 0.39407 0.0
C162 C 0.01901 0.97622 0.44421 0.0
C163 C 0.0161 0.96077 0.45734 0.0
C164 C 0.03001 0.95742 0.47218 0.0
C165 C 0.0469 0.96982 0.47388 0.0
C166 C 0.05001 0.98539 0.46094 0.0
C167 C 0.03597 0.98849 0.44617 0.0
C168 C 0.06798 -0.00166 0.46276 0.0
C169 C 0.07502 0.00483 0.48143 0.0
C170 C 0.07827 0.00423 0.44582 0.0
C171 C 0.09522 0.01633 0.44751 0.0
C172 C 0.10228 0.02281 0.46618 0.0
C173 C 0.02707 0.9408 0.4857 0.0
C174 C 0.0086 0.9367 0.49414 0.0
C175 C 0.04275 0.92891 0.49028 0.0
C176 C 0.04003 0.91327 0.50303 0.0
C177 C 0.02158 0.9092 0.51152 0.0
C178 C 0.0059 0.92109 0.50695 0.0
C179 C 0.09199 0.01692 0.48312 0.0
H180 H 0.95512 0.98028 0.42046 0.0
H181 H 0.97889 0.97491 0.44672 0.0
H182 H 0.02637 0.98465 0.40565 0.0
H183 H 0.00267 0.98993 0.3794 0.0
H184 H 0.00329 0.95094 0.45562 0.0
H185 H 0.03806 0.00073 0.43641 0.0
H186 H 0.0577 0.96728 0.48526 0.0
H187 H 0.06726 0.00079 0.49474 0.0
H188 H 0.07339 -0.00077 0.43125 0.0
H189 H 0.10298 0.02037 0.43419 0.0
H190 H 0.99628 0.94569 0.491 0.0
H191 H 0.0571 0.93158 0.48384 0.0
H192 H 0.09689 0.0219 0.49769 0.0
H193 H 0.99146 0.9182 0.51311 0.0
H194 H 0.05245 0.9045 0.5064 0.0
C195 C 0.14053 0.71614 0.74943 0.0
C196 C 0.13598 0.73536 0.74469 0.0
C197 C 0.15545 0.71273 0.76306 0.0
C198 C 0.16613 0.72846 0.77223 0.0
C199 C 0.16163 0.74765 0.7674 0.0
C200 C 0.14673 0.75106 0.7538 0.0
C201 C 0.18197 0.72497 0.78675 0.0
C202 C 0.19548 0.71033 0.78319 0.0
C203 C 0.21093 0.70751 0.79654 0.0
C204 C 0.21269 0.71949 0.81362 0.0
C205 C 0.19933 0.73417 0.81747 0.0
C206 C 0.18392 0.73668 0.80401 0.0
C207 C 0.20203 0.74733 0.83513 0.0
C208 C 0.20867 0.74005 0.85316 0.0
C209 C 0.1989 0.76746 0.83383 0.0
C210 C 0.20282 0.78006 0.85 0.0
C211 C 0.21015 0.77284 0.86772 0.0
C212 C 0.22548 0.6923 0.79264 0.0
C213 C 0.21944 0.67369 0.78515 0.0
C214 C 0.24552 0.69617 0.79688 0.0
C215 C 0.2591 0.68164 0.79423 0.0
C216 C 0.25302 0.66296 0.78708 0.0
C217 C 0.23309 0.65918 0.78234 0.0
C218 C 0.21282 0.7527 0.86924 0.0
H219 H 0.13235 0.70374 0.74285 0.0
H220 H 0.15843 0.69779 0.76664 0.0
H221 H 0.16983 0.76008 0.77392 0.0
H222 H 0.14384 0.76602 0.75021 0.0
H223 H 0.19437 0.70158 0.76967 0.0
H224 H 0.17326 0.74766 0.80707 0.0
H225 H 0.22468 0.71749 0.82388 0.0
H226 H 0.21083 0.72459 0.85484 0.0
H227 H 0.19408 0.77363 0.82011 0.0
H228 H 0.2008 0.79557 0.84841 0.0
H229 H 0.2041 0.67017 0.78192 0.0
H230 H 0.25076 0.71048 0.80224 0.0
H231 H 0.2182 0.74674 0.88285 0.0
H232 H 0.22797 0.64484 0.77695 0.0
H233 H 0.27443 0.68508 0.79767 0.0
C234 C 0.98692 0.59572 0.49523 0.0
C235 C 0.98534 0.59439 0.51585 0.0
C236 C 0.98364 0.57919 0.48304 0.0
C237 C 0.97873 0.56094 0.4912 0.0
C238 C 0.97724 0.55957 0.51183 0.0
C239 C 0.98052 0.57612 0.52402 0.0
C240 C 0.97497 0.54344 0.47818 0.0
C241 C 0.98701 0.54 0.46183 0.0
C242 C 0.98327 0.52378 0.44909 0.0
C243 C 0.96732 0.5108 0.45301 0.0
C244 C 0.95528 0.51389 0.46947 0.0
C245 C 0.95918 0.53026 0.48193 0.0
C246 C 0.93847 0.50018 0.47364 0.0
C247 C 0.92555 0.49358 0.45844 0.0
C248 C 0.935 0.49396 0.493 0.0
C249 C 0.91884 0.48156 0.49713 0.0
C250 C 0.90573 0.47519 0.482 0.0
C251 C 0.99616 0.52045 0.43181 0.0
C252 C 0.00319 0.53629 0.42061 0.0
C253 C 0.00185 0.50151 0.42658 0.0
C254 C 0.01444 0.49853 0.41067 0.0
C255 C 0.02171 0.51444 0.39974 0.0
C256 C 0.01588 0.53333 0.40481 0.0
C257 C 0.9093 0.48126 0.46259 0.0
H258 H 0.99082 0.60954 0.48848 0.0
H259 H 0.98471 0.58076 0.46719 0.0
H260 H 0.97366 0.54568 0.51857 0.0
H261 H 0.97901 0.57464 0.53984 0.0
H262 H -0.00041 0.54979 0.45926 0.0
H263 H 0.94955 0.53304 0.49427 0.0
H264 H 0.96424 0.49827 0.44327 0.0
H265 H 0.92778 0.49825 0.4434 0.0
H266 H 0.94481 0.49868 0.50498 0.0
H267 H 0.91639 0.47729 0.51225 0.0
H268 H -0.0012 0.55102 0.42397 0.0
H269 H 0.99692 0.48901 0.43505 0.0
H270 H 0.89955 0.47644 0.4506 0.0
H271 H 0.02099 0.54583 0.39643 0.0
H272 H 0.01885 0.48383 0.40721 0.0
C273 C 0.80824 0.7405 0.84762 0.0
C274 C 0.78944 0.73328 0.85292 0.0
C275 C 0.81061 0.75318 0.83185 0.0
C276 C 0.79423 0.75894 0.82102 0.0
C277 C 0.77541 0.75183 0.82637 0.0
C278 C 0.77304 0.73913 0.84215 0.0
C279 C 0.79686 0.77223 0.80412 0.0
C280 C 0.81216 0.76956 0.79067 0.0
C281 C 0.81508 0.78222 0.7748 0.0
C282 C 0.80236 0.79765 0.77239 0.0
C283 C 0.78689 0.8005 0.78566 0.0
C284 C 0.78424 0.7877 0.80146 0.0
C285 C 0.77368 0.81701 0.78324 0.0
C286 C 0.78139 0.83575 0.7788 0.0
C287 C 0.75329 0.81419 0.78559 0.0
C288 C 0.74087 0.82979 0.7836 0.0
C289 C 0.74859 0.84856 0.7793 0.0
C290 C 0.83144 0.7792 0.76083 0.0
C291 C 0.85 0.77429 0.76791 0.0
C292 C 0.82856 0.78082 0.74035 0.0
C293 C 0.84386 0.7773 0.72724 0.0
C294 C 0.86232 0.77207 0.73433 0.0
C295 C 0.86525 0.77075 0.75481 0.0
C296 C 0.76898 0.85136 0.7769 0.0
H297 H 0.82114 0.73657 0.85583 0.0
H298 H 0.82527 0.75866 0.82829 0.0
H299 H 0.76254 0.75582 0.81815 0.0
H300 H 0.75839 0.73362 0.8457 0.0
H301 H 0.82159 0.75732 0.79232 0.0
H302 H 0.77268 0.79012 0.81206 0.0
H303 H 0.80452 0.8075 0.7602 0.0
H304 H 0.79707 0.83841 0.77709 0.0
H305 H 0.74691 0.79988 0.78885 0.0
H306 H 0.72524 0.8272 0.78572 0.0
H307 H 0.85279 0.77329 0.78362 0.0
H308 H 0.81436 0.78435 0.73443 0.0
H309 H 0.77535 0.86562 0.77339 0.0
H310 H 0.87942 0.76712 0.76076 0.0
H311 H 0.84109 0.77824 0.71152 0.0
C312 C 0.29781 0.24155 0.34384 0.0
C313 C 0.27875 0.23685 0.35054 0.0
C314 C 0.30064 0.25303 0.3272 0.0
C315 C 0.28448 0.26001 0.31687 0.0
C316 C 0.26542 0.25508 0.32342 0.0
C317 C 0.26258 0.24365 0.34009 0.0
C318 C 0.28753 0.27278 0.29959 0.0
C319 C 0.30207 0.2688 0.28561 0.0
C320 C 0.30551 0.2812 0.26959 0.0
C321 C 0.29398 0.29763 0.26757 0.0
C322 C 0.27916 0.30164 0.28122 0.0
C323 C 0.2761 0.2892 0.29722 0.0
C324 C 0.26688 0.31886 0.27882 0.0
C325 C 0.27544 0.33706 0.27369 0.0
C326 C 0.24646 0.31717 0.28162 0.0
C327 C 0.23484 0.33332 0.27928 0.0
C328 C 0.24338 0.35153 0.27414 0.0
C329 C 0.32121 0.27708 0.25508 0.0
C330 C 0.33918 0.26979 0.26137 0.0
C331 C 0.31847 0.28058 0.23485 0.0
C332 C 0.33341 0.27713 0.22132 0.0
C333 C 0.3513 0.26985 0.22768 0.0
C334 C 0.354 0.2661 0.2478 0.0
C335 C 0.26382 0.35323 0.2714 0.0
H336 H 0.31056 0.23674 0.35172 0.0
H337 H 0.31553 0.2568 0.3227 0.0
H338 H 0.25266 0.25997 0.3156 0.0
H339 H 0.24771 0.24 0.3447 0.0
H340 H 0.31049 0.25581 0.28705 0.0
H341 H 0.26514 0.29263 0.30816 0.0
H342 H 0.29652 0.30736 0.25535 0.0
H343 H 0.29116 0.33886 0.27162 0.0
H344 H 0.23943 0.30329 0.28541 0.0
H345 H 0.21917 0.33158 0.2817 0.0
H346 H 0.34196 0.26726 0.27685 0.0
H347 H 0.30471 0.28583 0.2294 0.0
H348 H 0.27082 0.36702 0.26727 0.0
H349 H 0.36776 0.26072 0.25312 0.0
H350 H 0.33088 0.27993 0.20584 0.0
C351 C 0.4927 0.97706 0.60463 0.0
C352 C 0.5132 0.97524 0.60469 0.0
C353 C 0.48202 0.97563 0.58694 0.0
C354 C 0.49158 0.97226 0.56894 0.0
C355 C 0.51206 0.97054 0.56896 0.0
C356 C 0.52275 0.97206 0.58662 0.0
C357 C 0.48022 0.97021 0.5502 0.0
C358 C 0.46533 0.9831 0.54597 0.0
C359 C 0.45442 0.98108 0.52832 0.0
C360 C 0.45868 0.96604 0.51475 0.0
C361 C 0.4734 0.95285 0.51883 0.0
C362 C 0.48408 0.9551 0.53662 0.0
C363 C 0.4772 0.93626 0.50498 0.0
C364 C 0.46158 0.92606 0.49512 0.0
C365 C 0.49641 0.93002 0.50209 0.0
C366 C 0.49985 0.91365 0.49014 0.0
C367 C 0.48419 0.90323 0.48055 0.0
C368 C 0.43824 0.99438 0.5243 0.0
C369 C 0.42506 -0.00075 0.53934 0.0
C370 C 0.43565 0.00205 0.50541 0.0
C371 C 0.42015 0.01423 0.50162 0.0
C372 C 0.40689 0.019 0.51664 0.0
C373 C 0.40956 0.01141 0.53555 0.0
C374 C 0.46505 0.90983 0.48297 0.0
H375 H 0.48484 0.97924 0.61831 0.0
H376 H 0.46621 0.97675 0.5874 0.0
H377 H 0.51985 0.96821 0.55526 0.0
H378 H 0.53856 0.97095 0.58608 0.0
H379 H 0.46244 0.99493 0.55631 0.0
H380 H 0.49501 0.94466 0.54028 0.0
H381 H 0.4503 0.96445 0.50111 0.0
H382 H 0.44656 0.93027 0.49713 0.0
H383 H 0.50884 0.93771 0.50919 0.0
H384 H 0.51477 0.90893 0.48883 0.0
H385 H 0.42647 0.99332 0.55397 0.0
H386 H 0.44573 -0.00123 0.49359 0.0
H387 H 0.45265 0.90242 0.47555 0.0
H388 H 0.39943 0.01451 0.54736 0.0
H389 H 0.41867 0.02008 0.48696 0.0
C390 C 0.21 0.25746 0.63655 0.0
C391 C 0.22992 0.25388 0.63323 0.0
C392 C 0.2046 0.27064 0.65139 0.0
C393 C 0.21898 0.28057 0.66319 0.0
C394 C 0.23888 0.27708 0.65982 0.0
C395 C 0.24429 0.26388 0.64502 0.0
C396 C 0.21333 0.29431 0.67922 0.0
C397 C 0.19781 0.28933 0.69193 0.0
C398 C 0.19294 0.30189 0.70766 0.0
C399 C 0.20386 0.31958 0.71067 0.0
C400 C 0.21936 0.32491 0.69797 0.0
C401 C 0.22381 0.31221 0.68218 0.0
C402 C 0.2311 0.34354 0.70126 0.0
C403 C 0.22216 0.36061 0.70799 0.0
C404 C 0.25143 0.34439 0.69761 0.0
C405 C 0.26246 0.36188 0.70029 0.0
C406 C 0.2535 0.37884 0.70701 0.0
C407 C 0.17664 0.29628 0.72113 0.0
C408 C 0.1589 0.28796 0.71349 0.0
C409 C 0.17878 0.29892 0.74168 0.0
C410 C 0.16356 0.29323 0.75434 0.0
C411 C 0.14586 0.28478 0.74671 0.0
C412 C 0.14368 0.28229 0.72613 0.0
C413 C 0.23329 0.37805 0.71099 0.0
H414 H 0.19858 0.25024 0.62753 0.0
H415 H 0.18916 0.27322 0.6535 0.0
H416 H 0.25029 0.28427 0.66888 0.0
H417 H 0.25973 0.26122 0.64308 0.0
H418 H 0.18993 0.27534 0.68997 0.0
H419 H 0.23534 0.31633 0.67194 0.0
H420 H 0.20032 0.32915 0.72297 0.0
H421 H 0.2065 0.36063 0.71067 0.0
H422 H 0.25895 0.33148 0.69288 0.0
H423 H 0.27809 0.36206 0.6974 0.0
H424 H 0.1567 0.28601 0.6977 0.0
H425 H 0.19238 0.30502 0.74803 0.0
H426 H 0.22604 0.39101 0.71607 0.0
H427 H 0.13012 0.27615 0.71976 0.0
H428 H 0.16581 0.2951 0.77012 0.0
C429 C 0.83872 0.23602 0.7599 0.0
C430 C 0.8512 0.22102 0.76495 0.0
C431 C 0.82279 0.23223 0.74712 0.0
C432 C 0.81892 0.21332 0.73916 0.0
C433 C 0.83138 0.19831 0.74422 0.0
C434 C 0.84737 0.20212 0.75694 0.0
C435 C 0.80191 0.20931 0.72567 0.0
C436 C 0.79768 0.22245 0.71071 0.0
C437 C 0.78149 0.2189 0.69801 0.0
C438 C 0.76947 0.20197 0.70042 0.0
C439 C 0.77345 0.18867 0.7153 0.0
C440 C 0.78975 0.19243 0.72783 0.0
C441 C 0.76044 0.17099 0.71787 0.0
C442 C 0.73993 0.17218 0.71646 0.0
C443 C 0.76839 0.15278 0.7216 0.0
C444 C 0.75611 0.13612 0.72372 0.0
C445 C 0.7356 0.13729 0.72212 0.0
C446 C 0.77703 0.2329 0.68228 0.0
C447 C 0.77841 0.25317 0.68616 0.0
C448 C 0.77112 0.22609 0.66335 0.0
C449 C 0.76653 0.23923 0.64868 0.0
C450 C 0.76778 0.25949 0.65259 0.0
C451 C 0.77385 0.26632 0.67147 0.0
C452 C 0.72766 0.15552 0.71854 0.0
H453 H 0.8414 0.25078 0.76567 0.0
H454 H 0.81334 0.24406 0.74365 0.0
H455 H 0.82887 0.18363 0.73818 0.0
H456 H 0.85661 0.19021 0.76069 0.0
H457 H 0.80727 0.23526 0.70868 0.0
H458 H 0.79264 0.18249 0.73966 0.0
H459 H 0.75692 0.19917 0.69071 0.0
H460 H 0.73332 0.18605 0.71395 0.0
H461 H 0.78415 0.15135 0.72253 0.0
H462 H 0.76269 0.12224 0.72623 0.0
H463 H 0.78266 0.25888 0.70068 0.0
H464 H 0.77024 0.21057 0.65979 0.0
H465 H 0.71191 0.15698 0.71758 0.0
H466 H 0.77472 0.28184 0.67502 0.0
H467 H 0.76221 0.23351 0.63418 0.0
C468 C 0.52275 0.58081 0.47252 0.0
C469 C 0.51711 0.59933 0.4792 0.0
C470 C 0.52525 0.56579 0.48587 0.0
C471 C 0.52214 0.56895 0.50618 0.0
C472 C 0.5162 0.58738 0.5128 0.0
C473 C 0.5137 0.60239 0.49947 0.0
C474 C 0.52568 0.55332 0.52052 0.0
C475 C 0.54222 0.54185 0.51863 0.0
C476 C 0.54619 0.52759 0.53255 0.0
C477 C 0.53345 0.52493 0.54859 0.0
C478 C 0.51672 0.53617 0.55069 0.0
C479 C 0.51291 0.55024 0.53646 0.0
C480 C 0.50341 0.53342 0.56786 0.0
C481 C 0.49916 0.51468 0.57522 0.0
C482 C 0.49499 0.5496 0.57716 0.0
C483 C 0.48264 0.5471 0.59338 0.0
C484 C 0.47855 0.52837 0.60089 0.0
C485 C 0.56383 0.5157 0.53042 0.0
C486 C 0.56892 0.50794 0.51185 0.0
C487 C 0.57579 0.51219 0.54685 0.0
C488 C 0.59256 0.50124 0.54473 0.0
C489 C 0.59771 0.49356 0.52613 0.0
C490 C 0.58565 0.49698 0.50973 0.0
C491 C 0.48698 0.51219 0.59158 0.0
H492 H 0.52564 0.57802 0.45703 0.0
H493 H 0.52964 0.5517 0.48027 0.0
H494 H 0.51387 0.59036 0.52837 0.0
H495 H 0.50909 0.6164 0.50506 0.0
H496 H 0.55241 0.54447 0.50666 0.0
H497 H 0.49983 0.55866 0.53763 0.0
H498 H 0.53664 0.51412 0.55949 0.0
H499 H 0.50515 0.50184 0.56829 0.0
H500 H 0.49811 0.56429 0.57209 0.0
H501 H 0.4762 0.55988 0.59993 0.0
H502 H 0.55982 0.51016 0.49897 0.0
H503 H 0.57241 0.51821 0.56129 0.0
H504 H 0.48439 0.49758 0.59707 0.0
H505 H 0.58901 0.49099 0.49527 0.0
H506 H 0.60168 0.49911 0.5576 0.0
C507 C 0.46861 0.48204 0.91907 0.0
C508 C 0.47551 0.48824 0.90061 0.0
C509 C 0.48174 0.47896 0.93452 0.0
C510 C 0.50208 0.48199 0.93186 0.0
C511 C 0.50898 0.48824 0.91342 0.0
C512 C 0.49584 0.49134 0.89798 0.0
C513 C 0.51607 0.47849 0.94822 0.0
C514 C 0.51331 0.46211 0.96021 0.0
C515 C 0.52658 0.45857 0.97555 0.0
C516 C 0.54275 0.47162 0.97884 0.0
C517 C 0.54569 0.48818 0.96715 0.0
C518 C 0.53228 0.49148 0.95184 0.0
C519 C 0.56278 0.50196 0.97102 0.0
C520 C 0.56866 0.50683 0.99051 0.0
C521 C 0.57358 0.51001 0.95533 0.0
C522 C 0.59006 0.5224 0.95905 0.0
C523 C 0.59617 0.52697 0.97856 0.0
C524 C 0.52355 0.44137 0.98832 0.0
C525 C 0.50485 0.43651 0.99585 0.0
C526 C 0.53946 0.43004 0.99354 0.0
C527 C 0.53679 0.41437 0.00625 0.0
C528 C 0.51816 0.4097 0.01406 0.0
C529 C 0.50219 0.42087 0.00863 0.0
C530 C 0.58519 0.51911 0.99423 0.0
H531 H 0.45301 0.47981 0.92167 0.0
H532 H 0.47594 0.47443 0.94864 0.0
H533 H 0.52457 0.49042 0.91081 0.0
H534 H 0.50166 0.49583 0.88385 0.0
H535 H 0.50108 0.4518 0.95731 0.0
H536 H 0.53417 0.50445 0.94303 0.0
H537 H 0.55305 0.46889 0.99063 0.0
H538 H 0.56051 0.50114 0.00296 0.0
H539 H 0.56954 0.50644 0.94014 0.0
H540 H 0.59801 0.52841 0.94662 0.0
H541 H 0.49234 0.44506 0.9922 0.0
H542 H 0.55401 0.43332 0.9878 0.0
H543 H 0.58956 0.52211 0.00944 0.0
H544 H 0.48762 0.41749 0.01423 0.0
H545 H 0.54942 0.40616 0.01027 0.0
C546 C 0.63582 0.20812 0.25935 0.0
C547 C 0.63203 0.22715 0.25337 0.0
C548 C 0.65142 0.20486 0.27219 0.0
C549 C 0.66355 0.22056 0.27938 0.0
C550 C 0.65972 0.2396 0.27347 0.0
C551 C 0.64415 0.24286 0.26057 0.0
C552 C 0.68023 0.21705 0.29289 0.0
C553 C 0.69248 0.20137 0.28921 0.0
C554 C 0.70838 0.198 0.30182 0.0
C555 C 0.71189 0.21046 0.31832 0.0
C556 C 0.69975 0.22615 0.32229 0.0
C557 C 0.68398 0.22937 0.30946 0.0
C558 C 0.7036 0.23914 0.33984 0.0
C559 C 0.70871 0.23124 0.35808 0.0
C560 C 0.70248 0.25952 0.33843 0.0
C561 C 0.7066 0.27175 0.35485 0.0
C562 C 0.71194 0.26386 0.37303 0.0
C563 C 0.72139 0.18155 0.29773 0.0
C564 C 0.71341 0.16298 0.29217 0.0
C565 C 0.74189 0.18429 0.29949 0.0
C566 C 0.75414 0.16877 0.29583 0.0
C567 C 0.74617 0.15016 0.2904 0.0
C568 C 0.72567 0.14743 0.28858 0.0
C569 C 0.71284 0.24347 0.37448 0.0
H570 H 0.62688 0.19569 0.25391 0.0
H571 H 0.6539 0.19004 0.27662 0.0
H572 H 0.66891 0.25198 0.27862 0.0
H573 H 0.64149 0.25771 0.25638 0.0
H574 H 0.68997 0.19208 0.2762 0.0
H575 H 0.6743 0.2412 0.31265 0.0
H576 H 0.72415 0.20792 0.32809 0.0
H577 H 0.70936 0.21558 0.35973 0.0
H578 H 0.69882 0.26605 0.32452 0.0
H579 H 0.70602 0.28742 0.35318 0.0
H580 H 0.69766 0.1604 0.29084 0.0
H581 H 0.74848 0.19848 0.30356 0.0
H582 H 0.71657 0.23691 0.38837 0.0
H583 H 0.71909 0.13331 0.28423 0.0
H584 H 0.76987 0.17129 0.29753 0.0
C585 C 0.48836 0.10264 -0.00167 0.0
C586 C 0.4883 0.10116 0.019 0.0
C587 C 0.4846 0.0861 0.98626 0.0
C588 C 0.48058 0.06776 0.99461 0.0
C589 C 0.48046 0.06628 0.01527 0.0
C590 C 0.48436 0.0828 0.02735 0.0
C591 C 0.47655 0.05023 0.98177 0.0
C592 C 0.48833 0.04669 0.96528 0.0
C593 C 0.48449 0.03032 0.95278 0.0
C594 C 0.46883 0.01717 0.95727 0.0
C595 C 0.45686 0.02043 0.9738 0.0
C596 C 0.46082 0.03712 0.98587 0.0
C597 C 0.44003 0.00669 0.97835 0.0
C598 C 0.42868 -0.00247 0.96307 0.0
C599 C 0.43495 0.00289 -0.00193 0.0
C600 C 0.4187 0.99067 0.00239 0.0
C601 C 0.40742 0.98165 0.98711 0.0
C602 C 0.49676 0.02719 0.93496 0.0
C603 C 0.50327 0.04319 0.9237 0.0
C604 C 0.50214 0.00833 0.92909 0.0
C605 C 0.51378 0.00557 0.91241 0.0
C606 C 0.52047 0.02161 0.90128 0.0
C607 C 0.51507 0.04046 0.90718 0.0
C608 C 0.41266 0.98499 0.96743 0.0
H609 H 0.49151 0.11656 0.99147 0.0
H610 H 0.48463 0.0877 0.97037 0.0
H611 H 0.47755 0.0523 0.0221 0.0
H612 H 0.48404 0.08125 0.04324 0.0
H613 H 0.50076 0.05658 0.96239 0.0
H614 H 0.45134 0.04028 -0.00178 0.0
H615 H 0.46588 0.00444 0.94778 0.0
H616 H 0.43187 0.00033 0.94772 0.0
H617 H 0.44356 0.00929 0.01024 0.0
H618 H 0.41505 0.98811 0.0177 0.0
H619 H 0.49918 0.0579 0.92758 0.0
H620 H 0.49756 0.99569 0.93751 0.0
H621 H 0.40404 0.9783 0.9554 0.0
H622 H 0.52014 0.05321 0.89919 0.0
H623 H 0.51741 0.99081 0.90818 0.0
C624 C 0.21347 0.90908 0.00549 0.0
O625 O 0.21707 0.90196 0.98778 0.0
O626 O 0.24045 0.86989 0.99101 0.0
Zn627 Zn 0.24663 0.88653 0.0155 0.0
O628 O 0.27173 0.90283 0.01235 0.0
C629 C 0.25427 0.85156 0.03685 0.0
O630 O 0.25854 0.84496 0.0191 0.0
O631 O 0.22434 0.90462 0.01992 0.0
C632 C 0.28862 0.89593 0.01466 0.0
O633 O 0.29004 0.8775 0.01929 0.0
C634 C 0.25305 0.86442 0.97851 0.0
O635 O 0.27164 0.8697 0.98111 0.0
O636 O 0.24886 0.86904 0.03901 0.0
C637 C 0.15755 0.46602 0.25805 0.0
O638 O 0.16291 0.48302 0.26617 0.0
O639 O 0.10787 0.48989 0.27054 0.0
Zn640 Zn 0.12451 0.48759 0.24623 0.0
O641 O 0.14177 0.51186 0.24321 0.0
C642 C 0.11225 0.48959 0.20555 0.0
O643 O 0.13007 0.49729 0.20343 0.0
O644 O 0.1414 0.46434 0.24853 0.0
C645 C 0.13491 0.52883 0.24423 0.0
O646 O 0.11606 0.53062 0.24743 0.0
C647 C 0.11392 0.49914 0.28603 0.0
O648 O 0.13165 0.50743 0.28634 0.0
O649 O 0.10672 0.48413 0.22253 0.0
C650 C 0.77995 0.5944 -0.00168 0.0
O651 O 0.76636 0.58932 0.98512 0.0
O652 O 0.76118 0.64421 0.97867 0.0
Zn653 Zn 0.75613 0.62779 0.00259 0.0
O654 O 0.73144 0.6112 -0.00237 0.0
C655 C 0.73999 0.65925 0.02418 0.0
O656 O 0.73028 0.66059 0.00746 0.0
O657 O 0.77871 0.6105 0.00784 0.0
C658 C 0.71872 0.60803 0.01096 0.0
O659 O 0.72175 0.61554 0.02878 0.0
C660 C 0.77587 0.64285 0.96733 0.0
O661 O 0.78911 0.62997 0.971 0.0
O662 O 0.75234 0.64595 0.02583 0.0
C663 C 0.83624 0.03976 0.26611 0.0
O664 O 0.83249 0.02281 0.27433 0.0
O665 O 0.8858 0.01542 0.27331 0.0
Zn666 Zn 0.86811 0.01893 0.24985 0.0
O667 O 0.85106 0.99468 0.24488 0.0
C668 C 0.89618 0.01054 0.22036 0.0
O669 O 0.89699 0.9945 0.23061 0.0
O670 O 0.85105 0.04174 0.25491 0.0
C671 C 0.83707 0.99486 0.2324 0.0
O672 O 0.83406 0.011 0.22286 0.0
C673 C 0.88132 0.00349 0.28685 0.0
O674 O 0.86465 0.99319 0.28559 0.0
O675 O 0.88462 0.02367 0.22587 0.0
C676 C 0.28969 0.09925 0.4904 0.0
O677 O 0.28017 0.09784 0.47345 0.0
O678 O 0.26494 0.14296 0.47499 0.0
Zn679 Zn 0.25981 0.12618 0.49867 0.0
O680 O 0.23627 0.10776 0.494 0.0
C681 C 0.26632 0.15753 0.52715 0.0
O682 O 0.28237 0.16059 0.51681 0.0
O683 O 0.28359 0.11065 0.50386 0.0
C684 C 0.22394 0.10993 0.48011 0.0
O685 O 0.22664 0.12447 0.46796 0.0
C686 C 0.2562 0.15884 0.47282 0.0
O687 O 0.2435 0.16426 0.48619 0.0
O688 O 0.25454 0.14336 0.52228 0.0
C689 C 0.34829 0.5557 0.77233 0.0
O690 O 0.35609 0.5484 0.78821 0.0
O691 O 0.38484 0.52038 0.77621 0.0
Zn692 Zn 0.36791 0.52426 0.75216 0.0
O693 O 0.34914 0.50115 0.74751 0.0
C694 C 0.39235 0.51278 0.71978 0.0
O695 O 0.38767 0.49519 0.72611 0.0
O696 O 0.35172 0.54801 0.75552 0.0
C697 C 0.34066 0.49839 0.73086 0.0
O698 O 0.34444 0.51066 0.71658 0.0
C699 C 0.38187 0.50621 0.78781 0.0
O700 O 0.36708 0.49368 0.78433 0.0
O701 O 0.3856 0.52759 0.72866 0.0
C702 C 0.71632 0.41243 0.50975 0.0
O703 O 0.72638 0.41332 0.49327 0.0
O704 O 0.7369 0.3656 0.49417 0.0
Zn705 Zn 0.74372 0.38317 0.51756 0.0
O706 O 0.76798 0.39956 0.51127 0.0
C707 C 0.73682 0.35243 0.54507 0.0
O708 O 0.72135 0.34887 0.53366 0.0
O709 O 0.72119 0.40048 0.52283 0.0
C710 C 0.78497 0.39444 0.51641 0.0
O711 O 0.78668 0.3783 0.52632 0.0
C712 C 0.74727 0.35106 0.49009 0.0
O713 O 0.76249 0.34769 0.50135 0.0
O714 O 0.74852 0.36675 0.54124 0.0
C715 C 0.66102 0.96234 0.76763 0.0
O716 O 0.66524 0.97905 0.7769 0.0
O717 O 0.61347 0.98766 0.7786 0.0
Zn718 Zn 0.62895 0.98394 0.75363 0.0
O719 O 0.64668 0.0078 0.74922 0.0
C720 C 0.59408 0.98684 0.72915 0.0
O721 O 0.58853 -0.00162 0.74362 0.0
O722 O 0.64582 0.96079 0.75664 0.0
C723 C 0.64428 0.01948 0.73513 0.0
O724 O 0.62963 0.01613 0.72266 0.0
C725 C 0.60827 0.00451 0.78419 0.0
O726 O 0.61323 0.01975 0.77356 0.0
O727 O 0.61062 0.97895 0.73031 0.0
C728 C 0.00046 0.22284 0.89899 0.0
O729 O 0.98541 0.23393 0.90191 0.0
O730 O 0.98402 0.24395 0.85052 0.0
Zn731 Zn 0.00743 0.25003 0.86826 0.0
O732 O 0.00229 0.27328 0.88584 0.0
C733 C 0.03515 0.24563 0.83673 0.0
O734 O 0.02386 0.23009 0.8324 0.0
O735 O 0.01229 0.22686 0.88508 0.0
C736 C 0.00503 0.29058 0.8797 0.0
O737 O 0.01147 0.29322 0.86166 0.0
C738 C 0.96699 0.24944 0.85503 0.0
O739 O 0.96457 0.25929 0.87164 0.0
O740 O 0.03109 0.25624 0.85165 0.0
C741 C 0.50046 0.70894 0.38501 0.0
O742 O 0.49284 0.70584 0.3673 0.0
O743 O 0.47379 0.74377 0.35884 0.0
Zn744 Zn 0.49886 0.74935 0.37414 0.0
O745 O 0.49535 0.77281 0.39196 0.0
C746 C 0.52557 0.77145 0.3491 0.0
O747 O 0.51561 0.78629 0.3556 0.0
O748 O 0.50449 0.72638 0.39096 0.0
C749 C 0.50977 0.7819 0.40051 0.0
O750 O 0.52762 0.77583 0.39779 0.0
C751 C 0.46587 0.75746 0.3497 0.0
O752 O 0.47422 0.77509 0.35048 0.0
O753 O 0.52107 0.75435 0.35503 0.0
C754 C 0.00293 0.7954 0.60163 0.0
O755 O 0.99357 0.79761 0.61838 0.0
O756 O 0.97935 0.75896 0.62977 0.0
Zn757 Zn 0.00379 0.75534 0.61385 0.0
O758 O 4e-05 0.73118 0.5966 0.0
C759 C 0.02879 0.76289 0.64788 0.0
O760 O 0.01608 0.77638 0.65167 0.0
O761 O 0.00882 0.77862 0.59669 0.0
C762 C 0.00606 0.71476 0.60198 0.0
O763 O 0.015 0.71357 0.61913 0.0
C764 C 0.97507 0.74744 0.64371 0.0
O765 O 0.98663 0.73301 0.64731 0.0
O766 O 0.02669 0.75234 0.63229 0.0
C767 C 0.5019 0.29916 0.10851 0.0
O768 O 0.49186 0.30154 0.12483 0.0
O769 O 0.47743 0.26249 0.1357 0.0
Zn770 Zn 0.50313 0.25935 0.12158 0.0
O771 O 0.50101 0.23517 0.10408 0.0
C772 C 0.52251 0.24727 0.15691 0.0
O773 O 0.50553 0.23793 0.15944 0.0
O774 O 0.50842 0.28246 0.10429 0.0
C775 C 0.51213 0.22078 0.1054 0.0
O776 O 0.52624 0.22133 0.11873 0.0
C777 C 0.466 0.24789 0.13939 0.0
O778 O 0.4709 0.23029 0.1337 0.0
O779 O 0.52504 0.25754 0.14163 0.0
H780 H 0.18906 0.80236 0.88385 0.0
H781 H 0.27632 0.84271 0.95456 0.0
H782 H 0.24435 0.77423 0.88891 0.0
H783 H 0.2158 0.85645 0.96436 0.0
H784 H 0.26571 0.82042 0.92752 0.0
H785 H 0.19944 0.82516 0.91072 0.0
C786 C 0.20337 0.80102 0.89064 0.0
C787 C 0.21586 0.78639 0.88427 0.0
C788 C 0.25477 0.82832 0.93561 0.0
C789 C 0.22785 0.8124 0.91473 0.0
C790 C 0.26081 0.84111 0.95097 0.0
C791 C 0.24691 0.8514 0.96175 0.0
C792 C 0.23471 0.826 0.93082 0.0
C793 C 0.22699 0.84871 0.95649 0.0
C794 C 0.20924 0.81395 0.90598 0.0
C795 C 0.23421 0.78518 0.89357 0.0
N796 N 0.22149 0.83631 0.94133 0.0
N797 N 0.23971 0.7981 0.90826 0.0
H798 H 0.01942 0.48626 0.37037 0.0
H799 H 0.12006 0.52177 0.31949 0.0
H800 H 0.0554 0.53575 0.39156 0.0
H801 H 0.07813 0.4806 0.29192 0.0
H802 H 0.09796 0.52504 0.34756 0.0
H803 H 0.04228 0.48186 0.34303 0.0
C804 C 0.03219 0.49613 0.36932 0.0
C805 C 0.0355 0.51143 0.3832 0.0
C806 C 0.0936 0.51528 0.33537 0.0
C807 C 0.06165 0.50653 0.35198 0.0
C808 C 0.10623 0.51337 0.31936 0.0
C809 C 0.10091 0.50093 0.30331 0.0
C810 C 0.07557 0.50457 0.3354 0.0
C811 C 0.0828 0.49042 0.30394 0.0
C812 C 0.04516 0.49368 0.35366 0.0
C813 C 0.05217 0.52392 0.38103 0.0
N814 N 0.07079 0.49246 0.31973 0.0
N815 N 0.06464 0.52117 0.36574 0.0
H816 H 0.76106 0.73301 0.88148 0.0
H817 H 0.80461 0.64323 0.93916 0.0
H818 H 0.81225 0.70271 0.86252 0.0
H819 H 0.75195 0.67201 0.95647 0.0
H820 H 0.8078 0.66496 0.91108 0.0
H821 H 0.75748 0.71072 0.90903 0.0
C822 C 0.77148 0.72159 0.88303 0.0
C823 C 0.78699 0.71974 0.86966 0.0
C824 C 0.79554 0.66651 0.92101 0.0
C825 C 0.78311 0.69429 0.90133 0.0
C826 C 0.79372 0.65411 0.93707 0.0
C827 C 0.778 0.65581 0.9502 0.0
C828 C 0.78156 0.68074 0.9181 0.0
C829 C 0.76431 0.67016 0.94673 0.0
C830 C 0.76949 0.70893 0.89883 0.0
C831 C 0.80023 0.70485 0.87261 0.0
N832 N 0.76643 0.68208 0.93103 0.0
N833 N 0.79799 0.69271 0.88812 0.0
H834 H 0.9791 0.01321 0.3691 0.0
H835 H 0.87711 0.9783 0.3176 0.0
H836 H 0.94203 0.96544 0.39 0.0
H837 H 0.91646 0.02313 0.29447 0.0
H838 H 0.9 0.97425 0.34501 0.0
H839 H 0.95567 0.01783 0.34235 0.0
C840 C 0.96607 0.00363 0.36802 0.0
C841 C 0.96259 0.98885 0.38179 0.0
C842 C 0.90362 0.98498 0.33395 0.0
C843 C 0.93555 0.99422 0.35128 0.0
C844 C 0.89054 0.98732 0.31829 0.0
C845 C 0.89488 0.00105 0.30368 0.0
C846 C 0.92115 0.99649 0.33504 0.0
C847 C 0.91252 0.01233 0.30536 0.0
C848 C 0.95264 0.00635 0.35279 0.0
C849 C 0.94524 0.97714 0.37985 0.0
N850 N 0.92499 0.00979 0.32074 0.0
N851 N 0.9324 0.98005 0.36486 0.0
H852 H 0.2609 0.25702 0.60763 0.0
H853 H 0.23479 0.1549 0.55195 0.0
H854 H 0.21214 0.2183 0.62337 0.0
H855 H 0.28644 0.1911 0.53952 0.0
H856 H 0.22613 0.17812 0.57799 0.0
H857 H 0.27036 0.23322 0.58243 0.0
C858 C 0.25224 0.24347 0.60587 0.0
C859 C 0.23569 0.23967 0.61767 0.0
C860 C 0.23939 0.18097 0.56962 0.0
C861 C 0.24634 0.21243 0.58866 0.0
C862 C 0.24436 0.1677 0.55473 0.0
C863 C 0.26137 0.17107 0.5435 0.0
C864 C 0.25147 0.19778 0.57328 0.0
C865 C 0.2732 0.18791 0.5478 0.0
C866 C 0.25761 0.22992 0.59141 0.0
C867 C 0.22484 0.22199 0.61446 0.0
N868 N 0.26799 0.20067 0.56231 0.0
N869 N 0.23036 0.20904 0.60027 0.0
H870 H 0.45177 0.49824 0.60823 0.0
H871 H 0.41086 0.54643 0.70715 0.0
H872 H 0.47582 0.55256 0.63364 0.0
H873 H 0.40278 0.48488 0.69272 0.0
H874 H 0.43186 0.55023 0.6782 0.0
H875 H 0.43102 0.49424 0.63726 0.0
C876 C 0.45283 0.50928 0.61992 0.0
C877 C 0.46566 0.52577 0.6184 0.0
C878 C 0.42552 0.5359 0.68141 0.0
C879 C 0.44156 0.52143 0.65151 0.0
C880 C 0.41349 0.53372 0.69788 0.0
C881 C 0.4051 0.5153 0.70237 0.0
C882 C 0.42897 0.51959 0.66918 0.0
C883 C 0.40903 0.49933 0.68986 0.0
C884 C 0.44088 0.50701 0.63645 0.0
C885 C 0.46597 0.53977 0.63392 0.0
N886 N 0.42061 0.50186 0.67377 0.0
N887 N 0.45406 0.53731 0.64977 0.0
H888 H 0.73696 0.25661 0.62636 0.0
H889 H 0.7674 0.35571 0.57155 0.0
H890 H 0.78693 0.29411 0.64344 0.0
H891 H 0.71595 0.31951 0.55622 0.0
H892 H 0.77467 0.33347 0.59812 0.0
H893 H 0.72904 0.27949 0.60056 0.0
C894 C 0.74632 0.26962 0.62462 0.0
C895 C 0.76267 0.27342 0.63704 0.0
C896 C 0.76176 0.33041 0.58898 0.0
C897 C 0.75359 0.29979 0.60764 0.0
C898 C 0.75759 0.34312 0.57381 0.0
C899 C 0.74104 0.33946 0.56162 0.0
C900 C 0.74933 0.31388 0.59198 0.0
C901 C 0.72886 0.32291 0.56524 0.0
C902 C 0.74172 0.28275 0.60997 0.0
C903 C 0.77408 0.29068 0.63433 0.0
N904 N 0.73329 0.31071 0.58006 0.0
N905 N 0.76936 0.3032 0.61989 0.0
H906 H 0.50815 0.00011 0.63644 0.0
H907 H 0.60042 0.96319 0.69682 0.0
H908 H 0.54421 0.95348 0.61587 0.0
H909 H 0.5597 0.00424 0.72048 0.0
H910 H 0.58038 0.95982 0.66678 0.0
H911 H 0.52717 0.00217 0.66714 0.0
C912 C 0.51997 0.9902 0.63841 0.0
C913 C 0.52457 0.97661 0.6235 0.0
C914 C 0.57579 0.96951 0.67858 0.0
C915 C 0.54661 0.97909 0.65856 0.0
C916 C 0.58723 0.97145 0.69573 0.0
C917 C 0.58175 0.98404 0.71118 0.0
C918 C 0.5588 0.98032 0.6768 0.0
C919 C 0.56451 0.99436 0.70896 0.0
C920 C 0.5309 0.99146 0.65593 0.0
C921 C 0.5403 0.96439 0.6268 0.0
N922 N 0.55369 0.99233 0.69206 0.0
N923 N 0.55076 0.96595 0.64395 0.0
H924 H 0.85229 0.24325 0.79909 0.0
H925 H 0.96644 0.22824 0.82021 0.0
H926 H 0.88864 0.20805 0.76177 0.0
H927 H 0.92899 0.26025 0.85941 0.0
H928 H 0.93827 0.22106 0.79835 0.0
H929 H 0.88042 0.25014 0.82104 0.0
C930 C 0.86622 0.23704 0.79547 0.0
C931 C 0.86812 0.22509 0.77854 0.0
C932 C 0.93621 0.22964 0.81174 0.0
C933 C 0.90038 0.23278 0.8037 0.0
C934 C 0.95229 0.23376 0.82423 0.0
C935 C 0.95008 0.24488 0.84168 0.0
C936 C 0.91777 0.23673 0.81669 0.0
C937 C 0.9314 0.25163 0.84613 0.0
C938 C 0.88225 0.24089 0.80807 0.0
C939 C 0.88646 0.21718 0.77476 0.0
N940 N 0.91598 0.24747 0.83371 0.0
N941 N 0.90188 0.22121 0.78721 0.0
H942 H 0.4609 0.86958 0.47718 0.0
H943 H 0.53695 0.81001 0.41327 0.0
H944 H 0.51571 0.8956 0.45666 0.0
H945 H 0.47502 0.79415 0.41532 0.0
H946 H 0.53084 0.8397 0.43273 0.0
H947 H 0.46711 0.84013 0.45772 0.0
C948 C 0.47415 0.86924 0.46847 0.0
C949 C 0.48774 0.88525 0.46856 0.0
C950 C 0.51862 0.8297 0.42889 0.0
C951 C 0.49515 0.85124 0.44663 0.0
C952 C 0.5221 0.81272 0.41789 0.0
C953 C 0.50646 0.79961 0.41267 0.0
C954 C 0.49942 0.83342 0.43494 0.0
C955 C 0.48749 0.8039 0.41896 0.0
C956 C 0.47773 0.85233 0.45746 0.0
C957 C 0.50492 0.88359 0.45733 0.0
N958 N 0.48451 0.8204 0.42984 0.0
N959 N 0.50816 0.86687 0.44688 0.0
H960 H 0.12201 0.25157 0.744 0.0
H961 H 0.06065 0.27742 0.84093 0.0
H962 H 0.13302 0.30368 0.78007 0.0
H963 H 0.04803 0.22645 0.80362 0.0
H964 H 0.08787 0.28673 0.81935 0.0
H965 H 0.09534 0.24173 0.76606 0.0
C966 C 0.11876 0.261 0.7565 0.0
C967 C 0.12975 0.27852 0.76014 0.0
C968 C 0.07917 0.27349 0.81589 0.0
C969 C 0.09935 0.26721 0.78562 0.0
C970 C 0.06363 0.26814 0.82823 0.0
C971 C 0.05201 0.25113 0.82407 0.0
C972 C 0.08317 0.26175 0.79925 0.0
C973 C 0.05658 0.2397 0.80739 0.0
C974 C 0.10359 0.25531 0.76916 0.0
C975 C 0.12509 0.28995 0.77679 0.0
N976 N 0.07178 0.24523 0.79558 0.0
N977 N 0.11023 0.28412 0.78888 0.0
H978 H 0.52877 0.63786 0.48452 0.0
H979 H 0.49175 0.66995 0.37793 0.0
H980 H 0.50108 0.59773 0.44181 0.0
H981 H 0.51635 0.71026 0.42228 0.0
H982 H 0.4962 0.64306 0.40053 0.0
H983 H 0.52521 0.66438 0.46142 0.0
C984 C 0.52182 0.63464 0.47033 0.0
C985 C 0.51513 0.61553 0.46515 0.0
C986 C 0.50065 0.65779 0.40529 0.0
C987 C 0.51124 0.64584 0.43847 0.0
C988 C 0.49814 0.67315 0.39239 0.0
C989 C 0.50364 0.69241 0.39823 0.0
C990 C 0.50874 0.6617 0.42417 0.0
C991 C 0.51185 0.69567 0.41715 0.0
C992 C 0.51991 0.64978 0.45708 0.0
C993 C 0.50662 0.61218 0.44637 0.0
N994 N 0.51412 0.68048 0.42943 0.0
N995 N 0.50489 0.6272 0.43372 0.0
H996 H 0.88812 0.74252 0.73606 0.0
H997 H 0.94838 0.77614 0.64064 0.0
H998 H 0.87322 0.7918 0.701 0.0
H999 H 0.9623 0.72622 0.67527 0.0
H1000 H 0.92039 0.78178 0.66212 0.0
H1001 H 0.91509 0.7361 0.7136 0.0
C1002 C 0.89058 0.75205 0.72367 0.0
C1003 C 0.87846 0.76779 0.72047 0.0
C1004 C 0.92954 0.76956 0.66498 0.0
C1005 C 0.90923 0.7604 0.69455 0.0
C1006 C 0.94552 0.76632 0.65272 0.0
C1007 C 0.95773 0.7507 0.65619 0.0
C1008 C 0.92574 0.75711 0.68086 0.0
C1009 C 0.95331 0.73846 0.67206 0.0
C1010 C 0.90592 0.7483 0.71078 0.0
C1011 C 0.8821 0.77942 0.70395 0.0
N1012 N 0.93771 0.74196 0.68383 0.0
N1013 N 0.89721 0.77553 0.69164 0.0
H1014 H 0.00112 0.9082 0.54625 0.0
H1015 H 0.02253 0.79616 0.56643 0.0
H1016 H 0.03558 0.87235 0.50766 0.0
H1017 H 0.99068 0.83279 0.60669 0.0
H1018 H 0.0272 0.82385 0.54458 0.0
H1019 H 0.99664 0.8806 0.56833 0.0
C1020 C 0.00766 0.89449 0.54237 0.0
C1021 C 0.01874 0.89258 0.52508 0.0
C1022 C 0.01921 0.82585 0.55821 0.0
C1023 C 0.01382 0.86098 0.55037 0.0
C1024 C 0.01653 0.81003 0.5707 0.0
C1025 C 0.00618 0.81214 0.58843 0.0
C1026 C 0.01144 0.84393 0.56342 0.0
C1027 C -0.00124 0.83048 0.59318 0.0
C1028 C 0.0052 0.87878 0.55504 0.0
C1029 C 0.02712 0.87456 0.52095 0.0
N1030 N 0.00151 0.84565 0.58073 0.0
N1031 N 0.02446 0.85945 0.53348 0.0
H1032 H 0.12754 0.71596 0.70958 0.0
H1033 H 0.03734 0.78239 0.68282 0.0
H1034 H 0.10828 0.76326 0.74693 0.0
H1035 H 0.05669 0.73525 0.64528 0.0
H1036 H 0.06336 0.77569 0.70641 0.0
H1037 H 0.10154 0.72265 0.68592 0.0
C1038 C 0.11777 0.72768 0.71287 0.0
C1039 C 0.12012 0.73908 0.73027 0.0
C1040 C 0.06194 0.76683 0.69299 0.0
C1041 C 0.09045 0.74696 0.70314 0.0
C1042 C 0.04709 0.77066 0.6795 0.0
C1043 C 0.04482 0.75937 0.66203 0.0
C1044 C 0.07463 0.75158 0.68902 0.0
C1045 C 0.05789 0.74435 0.65854 0.0
C1046 C 0.10301 0.73157 0.69929 0.0
C1047 C 0.1072 0.75426 0.73359 0.0
N1048 N 0.07221 0.74088 0.67192 0.0
N1049 N 0.09293 0.75775 0.72017 0.0
H1050 H 0.005 0.59752 0.55135 0.0
H1051 H 0.98756 0.71191 0.56593 0.0
H1052 H 0.97308 0.63146 0.50981 0.0
H1053 H 0.01748 0.67756 0.60866 0.0
H1054 H 0.98255 0.68266 0.54495 0.0
H1055 H 0.00998 0.62673 0.57243 0.0
C1056 C -0.00105 0.61109 0.54671 0.0
C1057 C 0.9886 0.61203 0.52877 0.0
C1058 C 0.99021 0.68151 0.55892 0.0
C1059 C 0.99443 0.64559 0.55276 0.0
C1060 C 0.99309 0.69822 0.57091 0.0
C1061 C 0.00296 0.69719 0.58909 0.0
C1062 C -0.00274 0.66363 0.56512 0.0
C1063 C 0.00979 0.67905 0.59477 0.0
C1064 C 0.00189 0.62779 0.5587 0.0
C1065 C 0.98137 0.6301 0.52337 0.0
N1066 N 0.00681 0.66299 0.58282 0.0
N1067 N 0.98441 0.64615 0.53532 0.0
H1068 H 0.74366 0.91271 0.1944 0.0
H1069 H 0.84022 0.95875 0.24845 0.0
H1070 H 0.78231 0.87963 0.23038 0.0
H1071 H 0.80459 0.99076 0.20839 0.0
H1072 H 0.81866 0.92983 0.24262 0.0
H1073 H 0.76522 0.94175 0.20008 0.0
C1074 C 0.75664 0.91158 0.20356 0.0
C1075 C 0.7612 0.89371 0.21192 0.0
C1076 C 0.81556 0.94316 0.23507 0.0
C1077 C 0.786 0.92684 0.21838 0.0
C1078 C 0.82786 0.9597 0.23841 0.0
C1079 C 0.82421 0.97721 0.22889 0.0
C1080 C 0.79943 0.94413 0.22216 0.0
C1081 C 0.80798 0.97757 0.21604 0.0
C1082 C 0.769 0.92813 0.2067 0.0
C1083 C 0.77835 0.89303 0.22345 0.0
N1084 N 0.79617 0.96128 0.21307 0.0
N1085 N 0.79009 0.90936 0.22637 0.0
H1086 H 0.74106 0.11225 0.30221 0.0
H1087 H 0.84032 0.07708 0.25242 0.0
H1088 H 0.78099 0.15043 0.27031 0.0
H1089 H 0.8024 0.03993 0.28769 0.0
H1090 H 0.81838 0.10394 0.25817 0.0
H1091 H 0.76285 0.0853 0.29619 0.0
C1092 C 0.75436 0.11494 0.29383 0.0
C1093 C 0.75921 0.13363 0.28675 0.0
C1094 C 0.81486 0.08992 0.26467 0.0
C1095 C 0.78432 0.10288 0.27996 0.0
C1096 C 0.82739 0.07456 0.26139 0.0
C1097 C 0.8232 0.05622 0.2696 0.0
C1098 C 0.79799 0.08691 0.27621 0.0
C1099 C 0.80622 0.05382 0.28109 0.0
C1100 C 0.76686 0.09957 0.29051 0.0
C1101 C 0.77678 0.13633 0.27625 0.0
N1102 N 0.79423 0.06898 0.28403 0.0
N1103 N 0.78869 0.12112 0.27315 0.0
H1104 H 0.37666 0.99046 0.01078 0.0
H1105 H 0.32538 0.88406 0.00567 0.0
H1106 H 0.39877 0.94429 0.9739 0.0
H1107 H 0.29244 0.93584 0.01575 0.0
H1108 H 0.35465 0.90488 -0.00084 0.0
H1109 H 0.34765 0.96945 0.01801 0.0
C1110 C 0.3754 0.97585 0.00431 0.0
C1111 C 0.39002 0.96903 0.99173 0.0
C1112 C 0.34099 0.91163 0.00281 0.0
C1113 C 0.35717 0.94499 3e-05 0.0
C1114 C 0.32434 0.8998 0.00662 0.0
C1115 C 0.30648 0.90827 0.01121 0.0
C1116 C 0.33984 0.93204 0.00401 0.0
C1117 C 0.30591 0.92874 0.01216 0.0
C1118 C 0.35887 0.96395 0.00833 0.0
C1119 C 0.38771 0.95006 0.98357 0.0
N1120 N 0.3224 0.93995 0.00871 0.0
N1121 N 0.37163 0.93861 0.98798 0.0
H1122 H 0.25113 0.38939 0.28676 0.0
H1123 H 0.15051 0.42856 0.24391 0.0
H1124 H 0.20745 0.3527 0.25586 0.0
H1125 H 0.1932 0.46479 0.27674 0.0
H1126 H 0.17146 0.40073 0.24759 0.0
H1127 H 0.23047 0.41737 0.28254 0.0
C1128 C 0.23724 0.38724 0.27899 0.0
C1129 C 0.23101 0.36867 0.27166 0.0
C1130 C 0.17625 0.41476 0.25399 0.0
C1131 C 0.20719 0.40061 0.26693 0.0
C1132 C 0.1643 0.43068 0.25188 0.0
C1133 C 0.1701 0.44904 0.26004 0.0
C1134 C 0.19417 0.41722 0.26431 0.0
C1135 C 0.18812 0.4509 0.27022 0.0
C1136 C 0.2254 0.4032 0.27668 0.0
C1137 C 0.21273 0.3667 0.26197 0.0
N1138 N 0.19951 0.43519 0.27206 0.0
N1139 N 0.20148 0.38247 0.25987 0.0
H1140 H 0.11322 0.05391 0.44331 0.0
H1141 H 0.21367 0.07831 0.50258 0.0
H1142 H 0.13239 0.02102 0.49309 0.0
H1143 H 0.1942 0.11118 0.45287 0.0
H1144 H 0.1842 0.05691 0.49914 0.0
H1145 H 0.14306 0.07477 0.44635 0.0
C1146 C 0.12377 0.051 0.45482 0.0
C1147 C 0.12031 0.03567 0.46795 0.0
C1148 C 0.18639 0.06879 0.48898 0.0
C1149 C 0.15445 0.05963 0.47164 0.0
C1150 C 0.20322 0.08101 0.49092 0.0
C1151 C 0.20641 0.09658 0.478 0.0
C1152 C 0.17262 0.07216 0.47402 0.0
C1153 C 0.19237 0.09937 0.46317 0.0
C1154 C 0.14076 0.06299 0.45661 0.0
C1155 C 0.13434 0.03281 0.48278 0.0
N1156 N 0.17609 0.08729 0.4616 0.0
N1157 N 0.1508 0.04466 0.48421 0.0
H1158 H 0.73835 0.10784 0.74874 0.0
H1159 H 0.64278 0.04791 0.7074 0.0
H1160 H 0.70306 0.12639 0.69994 0.0
H1161 H 0.67656 0.03038 0.75774 0.0
H1162 H 0.66516 0.07638 0.70403 0.0
H1163 H 0.71644 0.07889 0.75174 0.0
C1164 C 0.72605 0.10577 0.73859 0.0
C1165 C 0.72252 0.11958 0.72409 0.0
C1166 C 0.66769 0.06631 0.71581 0.0
C1167 C 0.69727 0.08657 0.72754 0.0
C1168 C 0.65491 0.05003 0.71774 0.0
C1169 C 0.65778 0.03673 0.73289 0.0
C1170 C 0.68349 0.06934 0.7291 0.0
C1171 C 0.67377 0.04026 0.74586 0.0
C1172 C 0.71348 0.0893 0.74038 0.0
C1173 C 0.7062 0.11627 0.71151 0.0
N1174 N 0.68602 0.05622 0.74366 0.0
N1175 N 0.6942 0.10011 0.71352 0.0
H1176 H 0.39247 0.04805 0.5403 0.0
H1177 H 0.30608 0.07277 0.46519 0.0
H1178 H 0.38311 0.0187 0.48375 0.0
H1179 H 0.31335 0.09945 0.52328 0.0
H1180 H 0.335 0.05372 0.47117 0.0
H1181 H 0.36421 0.06784 0.53381 0.0
C1182 C 0.38444 0.04572 0.52654 0.0
C1183 C 0.39015 0.03162 0.51258 0.0
C1184 C 0.33028 0.06375 0.48261 0.0
C1185 C 0.35785 0.0544 0.50497 0.0
C1186 C 0.31376 0.07464 0.4792 0.0
C1187 C 0.30725 0.08771 0.49377 0.0
C1188 C 0.3404 0.06594 0.50071 0.0
C1189 C 0.31781 0.08953 0.51164 0.0
C1190 C 0.36835 0.0571 0.5228 0.0
C1191 C 0.37938 0.02952 0.49485 0.0
N1192 N 0.33385 0.07876 0.5146 0.0
N1193 N 0.36373 0.04074 0.49158 0.0
H1194 H 0.62449 0.49491 0.49607 0.0
H1195 H 0.69151 0.41326 0.54144 0.0
H1196 H 0.61179 0.46604 0.55089 0.0
H1197 H 0.7022 0.43977 0.485 0.0
H1198 H 0.66294 0.43332 0.54576 0.0
H1199 H 0.65357 0.47552 0.49225 0.0
C1200 C 0.62775 0.48442 0.50726 0.0
C1201 C 0.61561 0.48206 0.5238 0.0
C1202 C 0.67155 0.43477 0.53244 0.0
C1203 C 0.64907 0.45995 0.51962 0.0
C1204 C 0.68788 0.42333 0.52997 0.0
C1205 C 0.69925 0.42481 0.5128 0.0
C1206 C 0.66654 0.44782 0.51767 0.0
C1207 C 0.69385 0.43812 0.49845 0.0
C1208 C 0.64444 0.47343 0.50512 0.0
C1209 C 0.62082 0.46851 0.53801 0.0
N1210 N 0.67787 0.44909 0.5012 0.0
N1211 N 0.63713 0.45794 0.53558 0.0
H1212 H 0.69322 0.29659 0.38555 0.0
H1213 H 0.76595 0.31843 0.47753 0.0
H1214 H 0.7418 0.26076 0.39994 0.0
H1215 H 0.71703 0.35403 0.4636 0.0
H1216 H 0.75731 0.29714 0.44914 0.0
H1217 H 0.70178 0.31792 0.41397 0.0
C1218 C 0.70574 0.29326 0.39464 0.0
C1219 C 0.71681 0.27685 0.39035 0.0
C1220 C 0.74846 0.30961 0.45229 0.0
C1221 C 0.7266 0.30112 0.42302 0.0
C1222 C 0.75339 0.32178 0.4685 0.0
C1223 C 0.7422 0.33805 0.47295 0.0
C1224 C 0.73222 0.31372 0.4404 0.0
C1225 C 0.72607 0.34165 0.46073 0.0
C1226 C 0.71056 0.30538 0.41093 0.0
C1227 C 0.7327 0.27309 0.40283 0.0
N1228 N 0.72158 0.32959 0.44501 0.0
N1229 N 0.73713 0.28514 0.41856 0.0
H1230 H 0.52027 0.0415 0.86642 0.0
H1231 H 0.60086 0.97807 0.81329 0.0
H1232 H 0.54958 0.9953 0.89582 0.0
H1233 H 0.58711 0.03603 0.79502 0.0
H1234 H 0.57937 0.98194 0.84185 0.0
H1235 H 0.54196 0.0375 0.83824 0.0
C1236 C 0.53131 0.03059 0.86706 0.0
C1237 C 0.53312 0.01882 0.88368 0.0
C1238 C 0.58113 0.99381 0.83161 0.0
C1239 C 0.55774 0.01391 0.85115 0.0
C1240 C 0.59334 0.99161 0.8153 0.0
C1241 C 0.59579 0.00677 0.80178 0.0
C1242 C 0.57109 0.01118 0.83424 0.0
C1243 C 0.58572 0.024 0.80511 0.0
C1244 C 0.54363 0.02827 0.85089 0.0
C1245 C 0.54742 0.00456 0.8833 0.0
N1246 N 0.57371 0.02569 0.82095 0.0
N1247 N 0.55915 0.00249 0.86729 0.0
H1248 H 0.29795 0.20432 0.3616 0.0
H1249 H 0.23893 0.19272 0.4629 0.0
H1250 H 0.25275 0.24281 0.38055 0.0
H1251 H 0.28147 0.15199 0.44234 0.0
H1252 H 0.24455 0.2118 0.43327 0.0
H1253 H 0.29291 0.18552 0.39158 0.0
C1254 C 0.28702 0.20886 0.37211 0.0
C1255 C 0.27573 0.22515 0.36855 0.0
C1256 C 0.25266 0.19869 0.43523 0.0
C1257 C 0.2698 0.20363 0.40284 0.0
C1258 C 0.24948 0.18779 0.45217 0.0
C1259 C 0.25972 0.1707 0.4551 0.0
C1260 C 0.26622 0.1925 0.4211 0.0
C1261 C 0.27322 0.16505 0.44069 0.0
C1262 C 0.28408 0.19806 0.38917 0.0
C1263 C 0.2616 0.23021 0.38256 0.0
N1264 N 0.27607 0.17592 0.42431 0.0
N1265 N 0.25906 0.21951 0.39909 0.0
H1266 H 0.47636 0.51789 0.87395 0.0
H1267 H 0.38033 0.47717 0.81505 0.0
H1268 H 0.44288 0.46569 0.88967 0.0
H1269 H 0.4138 0.52942 0.79936 0.0
H1270 H 0.40286 0.47294 0.84271 0.0
H1271 H 0.45348 0.52246 0.84666 0.0
C1272 C 0.46424 0.50733 0.87161 0.0
C1273 C 0.46156 0.49136 0.88412 0.0
C1274 C 0.40526 0.48535 0.83323 0.0
C1275 C 0.43518 0.49661 0.85298 0.0
C1276 C 0.39239 0.48778 0.81743 0.0
C1277 C 0.39518 0.50367 0.80484 0.0
C1278 C 0.42106 0.49888 0.83649 0.0
C1279 C 0.41108 0.51694 0.80866 0.0
C1280 C 0.45112 0.51001 0.85609 0.0
C1281 C 0.4454 0.47834 0.88056 0.0
N1282 N 0.42342 0.51423 0.82413 0.0
N1283 N 0.43286 0.48123 0.86531 0.0
H1284 H 0.69538 0.75023 0.10012 0.0
H1285 H 0.75745 0.6606 0.0608 0.0
H1286 H 0.73935 0.72284 0.13506 0.0
H1287 H 0.71412 0.68878 0.0257 0.0
H1288 H 0.75093 0.68311 0.08826 0.0
H1289 H 0.70179 0.72753 0.07283 0.0
C1290 C 0.7063 0.73935 0.1021 0.0
C1291 C 0.71682 0.73842 0.11992 0.0
C1292 C 0.74286 0.68437 0.07455 0.0
C1293 C 0.7244 0.71249 0.08864 0.0
C1294 C 0.74658 0.67153 0.05886 0.0
C1295 C 0.73632 0.67281 0.04091 0.0
C1296 C 0.72877 0.69861 0.0723 0.0
C1297 C 0.72239 0.68725 0.03925 0.0
C1298 C 0.71004 0.72647 0.08647 0.0
C1299 C 0.73105 0.72424 0.12152 0.0
N1300 N 0.71902 0.69957 0.05474 0.0
N1301 N 0.7344 0.71182 0.10609 0.0
H1302 H 0.95118 0.05422 0.11425 0.0
H1303 H 0.92354 0.98609 0.2055 0.0
H1304 H 0.98165 0.00209 0.12814 0.0
H1305 H 0.89693 0.04112 0.19486 0.0
H1306 H 0.94391 0.99091 0.17631 0.0
H1307 H 0.93018 0.04892 0.1429 0.0
C1308 C 0.95351 0.04169 0.12336 0.0
C1309 C 0.96827 0.02862 0.11879 0.0
C1310 C 0.93361 0.00193 0.18036 0.0
C1311 C 0.94411 0.02235 0.15153 0.0
C1312 C 0.92197 -0.00081 0.19703 0.0
C1313 C 0.90853 0.01324 0.20267 0.0
C1314 C 0.93179 0.01884 0.16919 0.0
C1315 C 0.90712 0.02992 0.1911 0.0
C1316 C 0.94145 0.03863 0.13967 0.0
C1317 C 0.97033 0.01244 0.13094 0.0
N1318 N 0.9186 0.03225 0.17492 0.0
N1319 N 0.95842 0.00979 0.14676 0.0
H1320 H 0.24899 0.80111 0.15312 0.0
H1321 H 0.26748 0.81441 0.03747 0.0
H1322 H 0.27766 0.75897 0.11606 0.0
H1323 H 0.24483 0.85956 0.07545 0.0
H1324 H 0.27011 0.79343 0.06595 0.0
H1325 H 0.24631 0.82235 0.12474 0.0
C1326 C 0.25481 0.79635 0.13905 0.0
C1327 C 0.26357 0.7782 0.137 0.0
C1328 C 0.26458 0.80793 0.06808 0.0
C1329 C 0.26033 0.80236 0.10439 0.0
C1330 C 0.26305 0.81993 0.0518 0.0
C1331 C 0.25593 0.83879 0.05407 0.0
C1332 C 0.25888 0.81479 0.0868 0.0
C1333 C 0.25042 0.84513 0.07302 0.0
C1334 C 0.25318 0.80845 0.12283 0.0
C1335 C 0.27054 0.77269 0.1183 0.0
N1336 N 0.25199 0.83314 0.08866 0.0
N1337 N 0.26878 0.78471 0.10275 0.0
H1338 H 0.05598 0.49798 0.09113 0.0
H1339 H 0.07493 0.47317 0.20454 0.0
H1340 H 0.01473 0.46487 0.12673 0.0
H1341 H 0.11837 0.50183 0.16773 0.0
H1342 H 0.05238 0.47075 0.17637 0.0
H1343 H 0.07878 0.50024 0.11918 0.0
C1344 C 0.05174 0.49112 0.10481 0.0
C1345 C 0.03339 0.48122 0.10655 0.0
C1346 C 0.06685 0.47755 0.17443 0.0
C1347 C 0.05936 0.48392 0.1388 0.0
C1348 C 0.07975 0.47894 0.19052 0.0
C1349 C 0.09858 0.48772 0.1885 0.0
C1350 C 0.07277 0.48504 0.15616 0.0
C1351 C 0.104 0.49492 0.16997 0.0
C1352 C 0.06473 0.49249 0.12085 0.0
C1353 C 0.02858 0.47289 0.12477 0.0
N1354 N 0.09114 0.49346 0.15452 0.0
N1355 N 0.04148 0.47442 0.14015 0.0
H1356 H 0.35786 0.70677 0.2991 0.0
H1357 H 0.4471 0.78248 0.3257 0.0
H1358 H 0.36857 0.76115 0.26904 0.0
H1359 H 0.44288 0.72366 0.34754 0.0
H1360 H 0.41695 0.77579 0.30664 0.0
H1361 H 0.38775 0.71348 0.31863 0.0
C1362 C 0.36651 0.72008 0.29653 0.0
C1363 C 0.36065 0.73341 0.28237 0.0
C1364 C 0.42262 0.76434 0.31559 0.0
C1365 C 0.39475 0.74129 0.3049 0.0
C1366 C 0.43982 0.76816 0.32651 0.0
C1367 C 0.44755 0.7536 0.33822 0.0
C1368 C 0.41298 0.74585 0.31645 0.0
C1369 C 0.43748 0.7353 0.33868 0.0
C1370 C 0.38353 0.72393 0.30776 0.0
C1371 C 0.37231 0.75058 0.27997 0.0
N1372 N 0.42069 0.73196 0.32797 0.0
N1373 N 0.38878 0.75402 0.29112 0.0
H1374 H 0.9648 0.3658 0.97413 0.0
H1375 H 0.01274 0.32943 0.87288 0.0
H1376 H -0.00136 0.40383 0.93602 0.0
H1377 H 0.98778 0.29032 0.9161 0.0
H1378 H 0.00576 0.35717 0.8947 0.0
H1379 H 0.97097 0.33825 0.95178 0.0
C1380 C 0.97343 0.36837 0.96098 0.0
C1381 C 0.98123 0.38713 0.95692 0.0
C1382 C 0.00183 0.34251 0.89941 0.0
C1383 C 0.98847 0.35565 0.93135 0.0
C1384 C 0.00578 0.32667 0.88695 0.0
C1385 C 0.00087 0.30752 0.89269 0.0
C1386 C 0.99279 0.3392 0.91769 0.0
C1387 C 0.99188 0.30482 0.91109 0.0
C1388 C 0.97705 0.35262 0.9483 0.0
C1389 C 0.99253 0.38957 0.93981 0.0
N1390 N 0.9881 0.32049 0.92291 0.0
N1391 N 0.99578 0.37402 0.92763 0.0
H1392 H 0.61249 0.75947 0.25729 0.0
H1393 H 0.54322 0.80627 0.33876 0.0
H1394 H 0.62195 0.81801 0.28128 0.0
H1395 H 0.54499 0.74405 0.32751 0.0
H1396 H 0.57006 0.81142 0.31545 0.0
H1397 H 0.58556 0.7541 0.28063 0.0
C1398 C 0.60883 0.7712 0.26743 0.0
C1399 C 0.61944 0.7892 0.2674 0.0
C1400 C 0.5646 0.79664 0.31812 0.0
C1401 C 0.58874 0.78319 0.29406 0.0
C1402 C 0.54923 0.79368 0.33138 0.0
C1403 C 0.54186 0.77469 0.3351 0.0
C1404 C 0.57252 0.78051 0.30833 0.0
C1405 C 0.55027 0.75893 0.32513 0.0
C1406 C 0.59357 0.7681 0.28081 0.0
C1407 C 0.61425 0.80386 0.28096 0.0
N1408 N 0.5651 0.7622 0.31213 0.0
N1409 N 0.5992 0.80056 0.29369 0.0
H1410 H 0.04593 0.12119 0.95496 0.0
H1411 H 0.97823 0.21062 0.93024 0.0
H1412 H 0.9946 0.13573 0.98842 0.0
H1413 H 0.02997 0.19679 0.89705 0.0
H1414 H 0.98385 0.18299 0.95147 0.0
H1415 H 0.04011 0.14848 0.93325 0.0
C1416 C 0.03338 0.13006 0.95769 0.0
C1417 C 0.02075 0.12617 0.97356 0.0
C1418 C 0.99398 0.18598 0.93954 0.0
C1419 C 0.01409 0.15754 0.94886 0.0
C1420 C 0.99078 0.20177 0.9274 0.0
C1421 C 0.00366 0.20605 0.91184 0.0
C1422 C 0.01019 0.17435 0.93613 0.0
C1423 C 0.01966 0.19405 0.90888 0.0
C1424 C 0.03012 0.1457 0.94535 0.0
C1425 C 0.00488 0.13833 0.97654 0.0
N1426 N 0.02248 0.17875 0.92092 0.0
N1427 N 0.002 0.15344 0.96431 0.0
H1428 H 0.36545 0.29439 0.1993 0.0
H1429 H 0.44303 0.21984 0.15725 0.0
H1430 H 0.37334 0.23752 0.22374 0.0
H1431 H 0.44811 0.28208 0.14816 0.0
H1432 H 0.41419 0.22481 0.17782 0.0
H1433 H 0.39258 0.28878 0.17654 0.0
C1434 C 0.37282 0.28067 0.19975 0.0
C1435 C 0.36723 0.2664 0.21342 0.0
C1436 C 0.42161 0.23735 0.17127 0.0
C1437 C 0.39815 0.25991 0.18751 0.0
C1438 C 0.43801 0.23453 0.15947 0.0
C1439 C 0.44803 0.25058 0.15105 0.0
C1440 C 0.41505 0.25633 0.17448 0.0
C1441 C 0.44089 0.2693 0.15446 0.0
C1442 C 0.38834 0.27753 0.18686 0.0
C1443 C 0.37734 0.24895 0.21354 0.0
N1444 N 0.4248 0.27166 0.1659 0.0
N1445 N 0.3923 0.24616 0.20073 0.0
H1446 H 0.49653 0.40902 0.04804 0.0
H1447 H 0.52267 0.29945 0.074 0.0
H1448 H 0.53384 0.37345 0.01213 0.0
H1449 H 0.488 0.3361 0.11163 0.0
H1450 H 0.5267 0.32631 0.05104 0.0
H1451 H 0.4927 0.38226 0.0712 0.0
C1452 C 0.50381 0.39553 0.04496 0.0
C1453 C 0.5155 0.39346 0.0281 0.0
C1454 C 0.51824 0.3285 0.06434 0.0
C1455 C 0.51136 0.36283 0.05468 0.0
C1456 C 0.51594 0.31316 0.07747 0.0
C1457 C 0.50496 0.31551 0.09478 0.0
C1458 C 0.50946 0.34633 0.06847 0.0
C1459 C 0.49659 0.33362 0.09848 0.0
C1460 C 0.50173 0.3803 0.05826 0.0
C1461 C 0.52486 0.37576 0.02504 0.0
N1462 N 0.49898 0.34832 0.08542 0.0
N1463 N 0.52256 0.36113 0.03818 0.0
H1464 H 0.59481 0.21045 0.25358 0.0
H1465 H 0.55959 0.26451 0.15653 0.0
H1466 H 0.63168 0.25161 0.2218 0.0
H1467 H 0.52225 0.22522 0.19011 0.0
H1468 H 0.58618 0.26016 0.18028 0.0
H1469 H 0.56807 0.21571 0.23035 0.0
C1470 C 0.5973 0.22054 0.24166 0.0
C1471 C 0.61554 0.23056 0.2396 0.0
C1472 C 0.57215 0.25253 0.18246 0.0
C1473 C 0.58491 0.23679 0.21301 0.0
C1474 C 0.55696 0.255 0.16891 0.0
C1475 C 0.53866 0.24519 0.17131 0.0
C1476 C 0.56904 0.24012 0.19852 0.0
C1477 C 0.53611 0.23307 0.18764 0.0
C1478 C 0.58199 0.22363 0.22846 0.0
C1479 C 0.61782 0.24372 0.22406 0.0
N1480 N 0.55113 0.23085 0.20058 0.0
N1481 N 0.6027 0.24641 0.21133 0.0
H1482 H 0.51166 0.10466 0.05207 0.0
H1483 H 0.4861 0.21595 0.07457 0.0
H1484 H 0.47389 0.13762 0.01504 0.0
H1485 H 0.53064 0.186 0.10636 0.0
H1486 H 0.4805 0.18693 0.05341 0.0
H1487 H 0.51776 0.13383 0.07308 0.0
C1488 C 0.50459 0.11803 0.04842 0.0
C1489 C 0.49225 0.11873 0.0318 0.0
C1490 C 0.49154 0.18671 0.06498 0.0
C1491 C 0.49922 0.15215 0.05568 0.0
C1492 C 0.49473 0.20327 0.07709 0.0
C1493 C 0.50887 0.2034 0.09227 0.0
C1494 C 0.50247 0.17008 0.06811 0.0
C1495 C 0.51961 0.18656 0.09482 0.0
C1496 C 0.50817 0.13469 0.06033 0.0
C1497 C 0.48367 0.13649 0.02759 0.0
N1498 N 0.51614 0.17055 0.0829 0.0
N1499 N 0.48726 0.15247 0.03949 0.0
H1500 H 0.27883 0.39624 0.68108 0.0
H1501 H 0.32271 0.47541 0.75855 0.0
H1502 H 0.25514 0.40309 0.73963 0.0
H1503 H 0.32753 0.48258 0.69554 0.0
H1504 H 0.30045 0.44689 0.75257 0.0
H1505 H 0.29941 0.42606 0.68668 0.0
C1506 C 0.27799 0.40407 0.6951 0.0
C1507 C 0.26535 0.39726 0.70994 0.0
C1508 C 0.30632 0.45478 0.74008 0.0
C1509 C 0.28887 0.43115 0.7165 0.0
C1510 C 0.31909 0.47098 0.74346 0.0
C1511 C 0.32698 0.48135 0.7275 0.0
C1512 C 0.30171 0.44872 0.72061 0.0
C1513 C 0.32172 0.47503 0.70826 0.0
C1514 C 0.28963 0.42109 0.69825 0.0
C1515 C 0.26464 0.40797 0.7278 0.0
N1516 N 0.30953 0.45901 0.70534 0.0
N1517 N 0.2764 0.42432 0.73067 0.0
H1518 H 0.28153 0.65339 0.81334 0.0
H1519 H 0.32548 0.57066 0.74331 0.0
H1520 H 0.25721 0.63713 0.75604 0.0
H1521 H 0.34039 0.57798 0.80519 0.0
H1522 H 0.30249 0.59699 0.7467 0.0
H1523 H 0.30529 0.62776 0.8096 0.0
C1524 C 0.28127 0.64448 0.79992 0.0
C1525 C 0.26741 0.6474 0.78495 0.0
C1526 C 0.3108 0.59284 0.75953 0.0
C1527 C 0.29449 0.61801 0.7806 0.0
C1528 C 0.32399 0.57785 0.7576 0.0
C1529 C 0.33486 0.57208 0.77401 0.0
C1530 C 0.30857 0.60223 0.77796 0.0
C1531 C 0.33228 0.58191 0.79216 0.0
C1532 C 0.29475 0.62979 0.79784 0.0
C1533 C 0.26755 0.63525 0.768 0.0
N1534 N 0.31942 0.59652 0.79364 0.0
N1535 N 0.28093 0.62113 0.76625 0.0
H1536 H 0.90345 0.44359 0.50618 0.0
H1537 H 0.78697 0.4272 0.49382 0.0
H1538 H 0.86805 0.47821 0.46836 0.0
H1539 H 0.82324 0.38885 0.52668 0.0
H1540 H 0.8164 0.44654 0.48496 0.0
H1541 H 0.87411 0.4238 0.51448 0.0
C1542 C 0.88949 0.44704 0.49965 0.0
C1543 C 0.88819 0.46259 0.48658 0.0
C1544 C 0.81792 0.43388 0.49409 0.0
C1545 C 0.85455 0.43996 0.49595 0.0
C1546 C 0.80111 0.42285 0.4992 0.0
C1547 C 0.80263 0.40638 0.51103 0.0
C1548 C 0.8364 0.42847 0.50093 0.0
C1549 C 0.82136 0.40142 0.51752 0.0
C1550 C 0.87276 0.43568 0.50432 0.0
C1551 C 0.86976 0.46623 0.47834 0.0
N1552 N 0.8375 0.41244 0.51241 0.0
N1553 N 0.85366 0.45506 0.48323 0.0
H1554 H 0.71279 0.84896 0.76062 0.0
H1555 H 0.69553 0.96124 0.78844 0.0
H1556 H 0.75439 0.88603 0.79387 0.0
H1557 H 0.65594 0.92538 0.75157 0.0
H1558 H 0.71681 0.93357 0.79141 0.0
H1559 H 0.69124 0.87649 0.75804 0.0
C1560 C 0.71735 0.86287 0.76745 0.0
C1561 C 0.73542 0.86519 0.77747 0.0
C1562 C 0.70347 0.93175 0.78267 0.0
C1563 C 0.71089 0.89683 0.77446 0.0
C1564 C 0.69129 0.94754 0.78099 0.0
C1565 C 0.67392 0.94564 0.76972 0.0
C1566 C 0.69824 0.91388 0.77307 0.0
C1567 C 0.6692 0.92753 0.76039 0.0
C1568 C 0.70509 0.87862 0.76588 0.0
C1569 C 0.7407 0.88364 0.7858 0.0
N1570 N 0.68128 0.91236 0.76228 0.0
N1571 N 0.72848 0.89872 0.78414 0.0
H1572 H 0.63106 0.52769 0.9584 0.0
H1573 H 0.68613 0.60283 0.034 0.0
H1574 H 0.60239 0.5548 0.00804 0.0
H1575 H 0.70989 0.58648 0.97731 0.0
H1576 H 0.65608 0.58355 0.02583 0.0
H1577 H 0.66071 0.54774 0.96594 0.0
C1578 C 0.6309 0.53798 0.97077 0.0
C1579 C 0.61414 0.53952 0.9826 0.0
C1580 C 0.66786 0.58422 0.01517 0.0
C1581 C 0.64825 0.56225 0.99154 0.0
C1582 C 0.68505 0.59516 0.01985 0.0
C1583 C 0.70054 0.59627 0.00631 0.0
C1584 C 0.66621 0.57416 -0.00311 0.0
C1585 C 0.6983 0.58607 0.98817 0.0
C1586 C 0.6479 0.54934 0.97513 0.0
C1587 C 0.61502 0.55285 -0.00132 0.0
N1588 N 0.68147 0.57539 0.98402 0.0
N1589 N 0.6318 0.56364 0.00271 0.0
H1590 H 0.18715 0.6463 0.24598 0.0
H1591 H 0.17364 0.53011 0.23376 0.0
H1592 H 0.23027 0.60996 0.21887 0.0
H1593 H 0.1263 0.56733 0.2497 0.0
H1594 H 0.19529 0.5591 0.23028 0.0
H1595 H 0.16524 0.61743 0.24929 0.0
C1596 C 0.19199 0.63229 0.24062 0.0
C1597 C 0.21062 0.63061 0.23212 0.0
C1598 C 0.18016 0.56094 0.23451 0.0
C1599 C 0.18568 0.59743 0.23616 0.0
C1600 C 0.16779 0.54439 0.23653 0.0
C1601 C 0.14811 0.5463 0.24201 0.0
C1602 C 0.17287 0.57957 0.23811 0.0
C1603 C 0.14135 0.56517 0.2454 0.0
C1604 C 0.17949 0.6158 0.24261 0.0
C1605 C 0.21619 0.61197 0.22579 0.0
N1606 N 0.15373 0.58108 0.24344 0.0
N1607 N 0.2038 0.59613 0.22796 0.0
H1608 H 0.88727 0.54483 0.03999 0.0
H1609 H 0.78832 0.56037 0.97878 0.0
H1610 H 0.86847 0.5089 0.98968 0.0
H1611 H 0.81012 0.59999 0.02509 0.0
H1612 H 0.81671 0.54033 0.98376 0.0
H1613 H 0.85814 0.56416 0.03602 0.0
C1614 C 0.87695 0.54095 0.02817 0.0
C1615 C 0.88032 0.52525 0.01512 0.0
C1616 C 0.81528 0.5534 0.99284 0.0
C1617 C 0.84703 0.54738 0.0104 0.0
C1618 C 0.79905 0.56484 0.99003 0.0
C1619 C 0.79685 0.58192 0.0015 0.0
C1620 C 0.82942 0.55902 0.00728 0.0
C1621 C 0.81124 0.58697 0.01587 0.0
C1622 C 0.86039 0.55205 0.02584 0.0
C1623 C 0.86659 0.52103 -8e-05 0.0
N1624 N 0.82691 0.57557 0.01834 0.0
N1625 N 0.85055 0.53201 -0.002 0.0
H1626 H 0.13382 0.9952 0.04914 0.0
H1627 H 0.184 0.9164 0.97946 0.0
H1628 H 0.10463 0.96733 -0.00147 0.0
H1629 H 0.20489 0.93098 0.0385 0.0
H1630 H 0.15637 0.93749 0.98476 0.0
H1631 H 0.16141 0.97397 0.04422 0.0
C1632 C 0.13311 0.98455 0.03708 0.0
C1633 C 0.11679 0.98309 0.02425 0.0
C1634 C 0.16698 0.93605 0.99657 0.0
C1635 C 0.14858 0.95901 0.01833 0.0
C1636 C 0.1828 0.92407 0.99353 0.0
C1637 C 0.19677 0.92191 0.00857 0.0
C1638 C 0.16519 0.94613 0.0147 0.0
C1639 C 0.19443 0.93217 0.02653 0.0
C1640 C 0.14894 0.9725 0.03423 0.0
C1641 C 0.11698 0.96926 0.00862 0.0
N1642 N 0.17897 0.9439 0.02907 0.0
N1643 N 0.13263 0.95781 0.00608 0.0
loop_
_geom_bond_atom_site_label_1
_geom_bond_atom_site_label_2
_geom_bond_distance
_geom_bond_site_symmetry_2
_ccdc_geom_bond_type
C0 C1 1.386 . S
C0 C2 1.397 . S
C0 H24 0.931 . S
C1 C0 1.386 . S
C1 C5 1.397 1_556 S
C2 C0 1.397 . S
C2 C3 1.384 1_556 S
C2 H25 0.930 . S
C3 C2 1.384 1_554 S
C3 C4 1.377 . S
C3 C6 1.481 . S
C4 C3 1.377 . S
C4 C5 1.389 . S
C4 H26 0.929 . S
C5 C1 1.397 1_554 S
C5 C4 1.389 . S
C5 H27 0.931 . S
C6 C3 1.481 . S
C6 C7 1.387 . S
C6 C11 1.390 . S
C7 C6 1.387 . S
C7 C8 1.401 . S
C7 H28 0.930 . S
C8 C7 1.401 . S
C8 C9 1.376 . S
C8 C17 1.511 . S
C9 C8 1.376 . S
C9 C10 1.392 . S
C9 H30 0.931 . S
C10 C9 1.392 . S
C10 C11 1.361 . S
C10 C12 1.500 . S
C11 C6 1.390 . S
C11 C10 1.361 . S
C11 H29 0.931 . S
C12 C10 1.500 . S
C12 C13 1.371 . S
C12 C14 1.365 . S
C13 C12 1.371 . S
C13 C23 1.386 1_455 S
C13 H31 0.931 . S
C14 C12 1.365 . S
C14 C15 1.409 1_455 S
C14 H32 0.929 . S
C15 C14 1.409 1_655 S
C15 C16 1.380 . S
C15 H33 0.930 . S
C16 C15 1.380 . S
C16 C23 1.357 . S
C17 C8 1.511 . S
C17 C18 1.341 . S
C17 C19 1.371 . S
C18 C17 1.341 . S
C18 C22 1.394 . S
C18 H34 0.930 . S
C19 C17 1.371 . S
C19 C20 1.392 1_545 S
C19 H35 0.931 . S
C20 C19 1.392 1_565 S
C20 C21 1.331 . S
C20 H38 0.932 . S
C21 C20 1.331 . S
C21 C22 1.336 1_565 S
C22 C18 1.394 . S
C22 C21 1.336 1_545 S
C22 H37 0.929 . S
C23 C13 1.386 1_655 S
C23 C16 1.357 . S
C23 H36 0.928 . S
H24 C0 0.931 . S
H25 C2 0.930 . S
H26 C4 0.929 . S
H27 C5 0.931 . S
H28 C7 0.930 . S
H29 C11 0.931 . S
H30 C9 0.931 . S
H31 C13 0.931 . S
H32 C14 0.929 . S
H33 C15 0.930 . S
H34 C18 0.930 . S
H35 C19 0.931 . S
H36 C23 0.928 . S
H37 C22 0.929 . S
H38 C20 0.932 . S
C39 C40 1.386 . S
C39 C41 1.397 . S
C39 H63 0.931 . S
C40 C39 1.386 . S
C40 C44 1.397 . S
C41 C39 1.397 . S
C41 C42 1.384 . S
C41 H64 0.930 . S
C42 C41 1.384 . S
C42 C43 1.377 . S
C42 C45 1.481 . S
C43 C42 1.377 . S
C43 C44 1.389 . S
C43 H65 0.929 . S
C44 C40 1.397 . S
C44 C43 1.389 . S
C44 H66 0.931 . S
C45 C42 1.481 . S
C45 C46 1.387 . S
C45 C50 1.390 . S
C46 C45 1.387 . S
C46 C47 1.401 . S
C46 H67 0.930 . S
C47 C46 1.401 . S
C47 C48 1.376 . S
C47 C56 1.511 . S
C48 C47 1.376 . S
C48 C49 1.392 . S
C48 H69 0.931 . S
C49 C48 1.392 . S
C49 C50 1.361 . S
C49 C51 1.500 . S
C50 C45 1.390 . S
C50 C49 1.361 . S
C50 H68 0.931 . S
C51 C49 1.500 . S
C51 C52 1.371 . S
C51 C53 1.365 . S
C52 C51 1.371 . S
C52 C62 1.386 . S
C52 H70 0.931 . S
C53 C51 1.365 . S
C53 C54 1.409 . S
C53 H71 0.929 . S
C54 C53 1.409 . S
C54 C55 1.380 . S
C54 H72 0.930 . S
C55 C54 1.380 . S
C55 C62 1.357 . S
C56 C47 1.511 . S
C56 C57 1.341 . S
C56 C58 1.371 . S
C57 C56 1.341 . S
C57 C61 1.394 . S
C57 H73 0.930 . S
C58 C56 1.371 . S
C58 C59 1.392 . S
C58 H74 0.931 . S
C59 C58 1.392 . S
C59 C60 1.331 . S
C59 H77 0.932 . S
C60 C59 1.331 . S
C60 C61 1.336 . S
C61 C57 1.394 . S
C61 C60 1.336 . S
C61 H76 0.929 . S
C62 C52 1.386 . S
C62 C55 1.357 . S
C62 H75 0.928 . S
H63 C39 0.931 . S
H64 C41 0.930 . S
H65 C43 0.929 . S
H66 C44 0.931 . S
H67 C46 0.930 . S
H68 C50 0.931 . S
H69 C48 0.931 . S
H70 C52 0.931 . S
H71 C53 0.929 . S
H72 C54 0.930 . S
H73 C57 0.930 . S
H74 C58 0.931 . S
H75 C62 0.928 . S
H76 C61 0.929 . S
H77 C59 0.932 . S
C78 C79 1.386 1_655 S
C78 C80 1.397 . S
C78 H102 0.931 . S
C79 C78 1.386 1_455 S
C79 C83 1.397 . S
C80 C78 1.397 . S
C80 C81 1.384 . S
C80 H103 0.930 . S
C81 C80 1.384 . S
C81 C82 1.377 1_655 S
C81 C84 1.481 . S
C82 C81 1.377 1_455 S
C82 C83 1.389 . S
C82 H104 0.929 . S
C83 C79 1.397 . S
C83 C82 1.389 . S
C83 H105 0.931 . S
C84 C81 1.481 . S
C84 C85 1.387 . S
C84 C89 1.390 . S
C85 C84 1.387 . S
C85 C86 1.401 . S
C85 H106 0.930 . S
C86 C85 1.401 . S
C86 C87 1.376 . S
C86 C95 1.511 . S
C87 C86 1.376 . S
C87 C88 1.392 . S
C87 H108 0.931 . S
C88 C87 1.392 . S
C88 C89 1.361 . S
C88 C90 1.500 . S
C89 C84 1.390 . S
C89 C88 1.361 . S
C89 H107 0.931 . S
C90 C88 1.500 . S
C90 C91 1.371 . S
C90 C92 1.365 . S
C91 C90 1.371 . S
C91 C101 1.387 1_554 S
C91 H109 0.931 . S
C92 C90 1.365 . S
C92 C93 1.409 1_554 S
C92 H110 0.929 1_655 S
C93 C92 1.409 1_556 S
C93 C94 1.380 . S
C93 H111 0.930 1_655 S
C94 C93 1.380 . S
C94 C101 1.357 . S
C95 C86 1.511 . S
C95 C96 1.341 . S
C95 C97 1.371 . S
C96 C95 1.341 . S
C96 C100 1.394 . S
C96 H112 0.930 . S
C97 C95 1.371 . S
C97 C98 1.392 . S
C97 H113 0.931 . S
C98 C97 1.392 . S
C98 C99 1.331 . S
C98 H116 0.932 1_554 S
C99 C98 1.331 . S
C99 C100 1.336 . S
C100 C96 1.394 . S
C100 C99 1.336 . S
C100 H115 0.929 . S
C101 C91 1.387 1_556 S
C101 C94 1.357 . S
C101 H114 0.928 . S
H102 C78 0.931 . S
H103 C80 0.930 . S
H104 C82 0.929 . S
H105 C83 0.931 . S
H106 C85 0.930 . S
H107 C89 0.931 . S
H108 C87 0.931 . S
H109 C91 0.931 . S
H110 C92 0.929 1_455 S
H111 C93 0.930 1_455 S
H112 C96 0.930 . S
H113 C97 0.931 . S
H114 C101 0.928 . S
H115 C100 0.929 . S
H116 C98 0.932 1_556 S
C117 C118 1.386 . S
C117 C119 1.397 . S
C117 H141 0.931 . S
C118 C117 1.386 . S
C118 C122 1.397 . S
C119 C117 1.397 . S
C119 C120 1.384 . S
C119 H142 0.930 . S
C120 C119 1.384 . S
C120 C121 1.377 . S
C120 C123 1.481 . S
C121 C120 1.377 . S
C121 C122 1.389 . S
C121 H143 0.929 . S
C122 C118 1.397 . S
C122 C121 1.389 . S
C122 H144 0.931 . S
C123 C120 1.481 . S
C123 C124 1.387 . S
C123 C128 1.390 . S
C124 C123 1.387 . S
C124 C125 1.401 . S
C124 H145 0.930 . S
C125 C124 1.401 . S
C125 C126 1.376 . S
C125 C134 1.511 . S
C126 C125 1.376 . S
C126 C127 1.392 . S
C126 H147 0.931 . S
C127 C126 1.392 . S
C127 C128 1.361 . S
C127 C129 1.500 . S
C128 C123 1.390 . S
C128 C127 1.361 . S
C128 H146 0.931 . S
C129 C127 1.500 . S
C129 C130 1.371 . S
C129 C131 1.365 . S
C130 C129 1.371 . S
C130 C140 1.386 . S
C130 H148 0.931 . S
C131 C129 1.365 . S
C131 C132 1.409 . S
C131 H149 0.929 . S
C132 C131 1.409 . S
C132 C133 1.380 . S
C132 H150 0.930 . S
C133 C132 1.380 . S
C133 C140 1.357 . S
C134 C125 1.511 . S
C134 C135 1.341 . S
C134 C136 1.371 . S
C135 C134 1.341 . S
C135 C139 1.394 . S
C135 H151 0.930 . S
C136 C134 1.371 . S
C136 C137 1.392 . S
C136 H152 0.931 . S
C137 C136 1.392 . S
C137 C138 1.331 . S
C137 H155 0.932 . S
C138 C137 1.331 . S
C138 C139 1.336 . S
C139 C135 1.394 . S
C139 C138 1.336 . S
C139 H154 0.929 . S
C140 C130 1.386 . S
C140 C133 1.357 . S
C140 H153 0.928 . S
H141 C117 0.931 . S
H142 C119 0.930 . S
H143 C121 0.929 . S
H144 C122 0.931 . S
H145 C124 0.930 . S
H146 C128 0.931 . S
H147 C126 0.931 . S
H148 C130 0.931 . S
H149 C131 0.929 . S
H150 C132 0.930 . S
H151 C135 0.930 . S
H152 C136 0.931 . S
H153 C140 0.928 . S
H154 C139 0.929 . S
H155 C137 0.932 . S
C156 C157 1.386 . S
C156 C158 1.397 . S
C156 H180 0.931 . S
C157 C156 1.386 . S
C157 C161 1.397 1_655 S
C158 C156 1.397 . S
C158 C159 1.384 1_655 S
C158 H181 0.930 . S
C159 C158 1.384 1_455 S
C159 C160 1.377 . S
C159 C162 1.481 . S
C160 C159 1.377 . S
C160 C161 1.389 . S
C160 H182 0.929 . S
C161 C157 1.397 1_455 S
C161 C160 1.389 . S
C161 H183 0.931 . S
C162 C159 1.481 . S
C162 C163 1.387 . S
C162 C167 1.390 . S
C163 C162 1.387 . S
C163 C164 1.401 . S
C163 H184 0.930 . S
C164 C163 1.401 . S
C164 C165 1.376 . S
C164 C173 1.511 . S
C165 C164 1.376 . S
C165 C166 1.392 . S
C165 H186 0.931 . S
C166 C165 1.392 . S
C166 C167 1.361 . S
C166 C168 1.528 . S
C167 C162 1.390 . S
C167 C166 1.361 . S
C167 H185 0.979 . S
C168 C166 1.528 . S
C168 C169 1.364 1_565 S
C168 C170 1.345 1_565 S
C169 C168 1.364 1_545 S
C169 C179 1.386 . S
C169 H187 0.931 1_545 S
C170 C168 1.345 1_545 S
C170 C171 1.409 . S
C170 H188 0.929 . S
C171 C170 1.409 . S
C171 C172 1.380 . S
C171 H189 0.930 . S
C172 C171 1.380 . S
C172 C179 1.357 . S
C173 C164 1.511 . S
C173 C174 1.341 . S
C173 C175 1.371 . S
C174 C173 1.341 . S
C174 C178 1.394 . S
C174 H190 0.930 . S
C175 C173 1.371 . S
C175 C176 1.392 . S
C175 H191 0.931 . S
C176 C175 1.392 . S
C176 C177 1.331 . S
C176 H194 0.932 . S
C177 C176 1.331 . S
C177 C178 1.336 . S
C178 C174 1.394 . S
C178 C177 1.336 . S
C178 H193 0.929 1_455 S
C179 C169 1.386 . S
C179 C172 1.357 . S
C179 H192 0.928 . S
H180 C156 0.931 . S
H181 C158 0.930 . S
H182 C160 0.929 . S
H183 C161 0.931 . S
H184 C163 0.930 . S
H185 C167 0.979 . S
H186 C165 0.931 . S
H187 C169 0.931 1_565 S
H188 C170 0.929 . S
H189 C171 0.930 . S
H190 C174 0.930 . S
H191 C175 0.931 . S
H192 C179 0.928 . S
H193 C178 0.929 1_655 S
H194 C176 0.932 . S
C195 C196 1.386 . S
C195 C197 1.397 . S
C195 H219 0.931 . S
C196 C195 1.386 . S
C196 C200 1.397 . S
C197 C195 1.397 . S
C197 C198 1.384 . S
C197 H220 0.930 . S
C198 C197 1.384 . S
C198 C199 1.377 . S
C198 C201 1.481 . S
C199 C198 1.377 . S
C199 C200 1.389 . S
C199 H221 0.929 . S
C200 C196 1.397 . S
C200 C199 1.389 . S
C200 H222 0.931 . S
C201 C198 1.481 . S
C201 C202 1.387 . S
C201 C206 1.390 . S
C202 C201 1.387 . S
C202 C203 1.401 . S
C202 H223 0.930 . S
C203 C202 1.401 . S
C203 C204 1.376 . S
C203 C212 1.511 . S
C204 C203 1.376 . S
C204 C205 1.392 . S
C204 H225 0.931 . S
C205 C204 1.392 . S
C205 C206 1.361 . S
C205 C207 1.500 . S
C206 C201 1.390 . S
C206 C205 1.361 . S
C206 H224 0.931 . S
C207 C205 1.500 . S
C207 C208 1.371 . S
C207 C209 1.365 . S
C208 C207 1.371 . S
C208 C218 1.386 . S
C208 H226 0.931 . S
C209 C207 1.365 . S
C209 C210 1.409 . S
C209 H227 0.929 . S
C210 C209 1.409 . S
C210 C211 1.380 . S
C210 H228 0.930 . S
C211 C210 1.380 . S
C211 C218 1.357 . S
C212 C203 1.511 . S
C212 C213 1.341 . S
C212 C214 1.371 . S
C213 C212 1.341 . S
C213 C217 1.394 . S
C213 H229 0.930 . S
C214 C212 1.371 . S
C214 C215 1.392 . S
C214 H230 0.931 . S
C215 C214 1.392 . S
C215 C216 1.331 . S
C215 H233 0.932 . S
C216 C215 1.331 . S
C216 C217 1.336 . S
C217 C213 1.394 . S
C217 C216 1.336 . S
C217 H232 0.929 . S
C218 C208 1.386 . S
C218 C211 1.357 . S
C218 H231 0.928 . S
H219 C195 0.931 . S
H220 C197 0.930 . S
H221 C199 0.929 . S
H222 C200 0.931 . S
H223 C202 0.930 . S
H224 C206 0.931 . S
H225 C204 0.931 . S
H226 C208 0.931 . S
H227 C209 0.929 . S
H228 C210 0.930 . S
H229 C213 0.930 . S
H230 C214 0.931 . S
H231 C218 0.928 . S
H232 C217 0.929 . S
H233 C215 0.932 . S
C234 C235 1.386 . S
C234 C236 1.397 . S
C234 H258 0.931 . S
C235 C234 1.386 . S
C235 C239 1.397 . S
C236 C234 1.397 . S
C236 C237 1.384 . S
C236 H259 0.930 . S
C237 C236 1.384 . S
C237 C238 1.377 . S
C237 C240 1.481 . S
C238 C237 1.377 . S
C238 C239 1.389 . S
C238 H260 0.929 . S
C239 C235 1.397 . S
C239 C238 1.389 . S
C239 H261 0.931 . S
C240 C237 1.481 . S
C240 C241 1.387 . S
C240 C245 1.390 . S
C241 C240 1.387 . S
C241 C242 1.401 . S
C241 H262 0.930 . S
C242 C241 1.401 . S
C242 C243 1.376 . S
C242 C251 1.511 . S
C243 C242 1.376 . S
C243 C244 1.392 . S
C243 H264 0.931 . S
C244 C243 1.392 . S
C244 C245 1.361 . S
C244 C246 1.500 . S
C245 C240 1.390 . S
C245 C244 1.361 . S
C245 H263 0.931 . S
C246 C244 1.500 . S
C246 C247 1.371 . S
C246 C248 1.365 . S
C247 C246 1.371 . S
C247 C257 1.386 . S
C247 H265 0.931 . S
C248 C246 1.365 . S
C248 C249 1.409 . S
C248 H266 0.929 . S
C249 C248 1.409 . S
C249 C250 1.380 . S
C249 H267 0.930 . S
C250 C249 1.380 . S
C250 C257 1.357 . S
C251 C242 1.511 . S
C251 C252 1.341 1_655 S
C251 C253 1.371 . S
C252 C251 1.341 1_455 S
C252 C256 1.394 . S
C252 H268 0.930 . S
C253 C251 1.371 . S
C253 C254 1.392 1_655 S
C253 H269 0.931 . S
C254 C253 1.392 1_455 S
C254 C255 1.331 . S
C254 H272 0.932 . S
C255 C254 1.331 . S
C255 C256 1.336 . S
C256 C252 1.394 . S
C256 C255 1.336 . S
C256 H271 0.929 . S
C257 C247 1.386 . S
C257 C250 1.357 . S
C257 H270 0.928 . S
H258 C234 0.931 . S
H259 C236 0.930 . S
H260 C238 0.929 . S
H261 C239 0.931 . S
H262 C241 0.930 . S
H263 C245 0.931 . S
H264 C243 0.931 . S
H265 C247 0.931 . S
H266 C248 0.929 . S
H267 C249 0.930 . S
H268 C252 0.930 . S
H269 C253 0.931 . S
H270 C257 0.928 . S
H271 C256 0.929 . S
H272 C254 0.932 . S
C273 C274 1.386 . S
C273 C275 1.397 . S
C273 H297 0.931 . S
C274 C273 1.386 . S
C274 C278 1.397 . S
C275 C273 1.397 . S
C275 C276 1.384 . S
C275 H298 0.930 . S
C276 C275 1.384 . S
C276 C277 1.377 . S
C276 C279 1.481 . S
C277 C276 1.377 . S
C277 C278 1.389 . S
C277 H299 0.929 . S
C278 C274 1.397 . S
C278 C277 1.389 . S
C278 H300 0.931 . S
C279 C276 1.481 . S
C279 C280 1.387 . S
C279 C284 1.390 . S
C280 C279 1.387 . S
C280 C281 1.401 . S
C280 H301 0.930 . S
C281 C280 1.401 . S
C281 C282 1.376 . S
C281 C290 1.511 . S
C282 C281 1.376 . S
C282 C283 1.392 . S
C282 H303 0.931 . S
C283 C282 1.392 . S
C283 C284 1.361 . S
C283 C285 1.500 . S
C284 C279 1.390 . S
C284 C283 1.361 . S
C284 H302 0.931 . S
C285 C283 1.500 . S
C285 C286 1.371 . S
C285 C287 1.365 . S
C286 C285 1.371 . S
C286 C296 1.386 . S
C286 H304 0.931 . S
C287 C285 1.365 . S
C287 C288 1.409 . S
C287 H305 0.929 . S
C288 C287 1.409 . S
C288 C289 1.380 . S
C288 H306 0.930 . S
C289 C288 1.380 . S
C289 C296 1.357 . S
C290 C281 1.511 . S
C290 C291 1.341 . S
C290 C292 1.371 . S
C291 C290 1.341 . S
C291 C295 1.394 . S
C291 H307 0.930 . S
C292 C290 1.371 . S
C292 C293 1.392 . S
C292 H308 0.931 . S
C293 C292 1.392 . S
C293 C294 1.331 . S
C293 H311 0.932 . S
C294 C293 1.331 . S
C294 C295 1.336 . S
C295 C291 1.394 . S
C295 C294 1.336 . S
C295 H310 0.929 . S
C296 C286 1.386 . S
C296 C289 1.357 . S
C296 H309 0.928 . S
H297 C273 0.931 . S
H298 C275 0.930 . S
H299 C277 0.929 . S
H300 C278 0.931 . S
H301 C280 0.930 . S
H302 C284 0.931 . S
H303 C282 0.931 . S
H304 C286 0.931 . S
H305 C287 0.929 . S
H306 C288 0.930 . S
H307 C291 0.930 . S
H308 C292 0.931 . S
H309 C296 0.928 . S
H310 C295 0.929 . S
H311 C293 0.932 . S
C312 C313 1.386 . S
C312 C314 1.397 . S
C312 H336 0.931 . S
C313 C312 1.386 . S
C313 C317 1.397 . S
C314 C312 1.397 . S
C314 C315 1.384 . S
C314 H337 0.930 . S
C315 C314 1.384 . S
C315 C316 1.377 . S
C315 C318 1.481 . S
C316 C315 1.377 . S
C316 C317 1.389 . S
C316 H338 0.929 . S
C317 C313 1.397 . S
C317 C316 1.389 . S
C317 H339 0.931 . S
C318 C315 1.481 . S
C318 C319 1.387 . S
C318 C323 1.390 . S
C319 C318 1.387 . S
C319 C320 1.401 . S
C319 H340 0.930 . S
C320 C319 1.401 . S
C320 C321 1.376 . S
C320 C329 1.511 . S
C321 C320 1.376 . S
C321 C322 1.392 . S
C321 H342 0.931 . S
C322 C321 1.392 . S
C322 C323 1.361 . S
C322 C324 1.500 . S
C323 C318 1.390 . S
C323 C322 1.361 . S
C323 H341 0.931 . S
C324 C322 1.500 . S
C324 C325 1.371 . S
C324 C326 1.365 . S
C325 C324 1.371 . S
C325 C335 1.386 . S
C325 H343 0.931 . S
C326 C324 1.365 . S
C326 C327 1.409 . S
C326 H344 0.929 . S
C327 C326 1.409 . S
C327 C328 1.380 . S
C327 H345 0.930 . S
C328 C327 1.380 . S
C328 C335 1.357 . S
C329 C320 1.511 . S
C329 C330 1.341 . S
C329 C331 1.371 . S
C330 C329 1.341 . S
C330 C334 1.394 . S
C330 H346 0.930 . S
C331 C329 1.371 . S
C331 C332 1.392 . S
C331 H347 0.931 . S
C332 C331 1.392 . S
C332 C333 1.331 . S
C332 H350 0.932 . S
C333 C332 1.331 . S
C333 C334 1.336 . S
C334 C330 1.394 . S
C334 C333 1.336 . S
C334 H349 0.929 . S
C335 C325 1.386 . S
C335 C328 1.357 . S
C335 H348 0.928 . S
H336 C312 0.931 . S
H337 C314 0.930 . S
H338 C316 0.929 . S
H339 C317 0.931 . S
H340 C319 0.930 . S
H341 C323 0.931 . S
H342 C321 0.931 . S
H343 C325 0.931 . S
H344 C326 0.929 . S
H345 C327 0.930 . S
H346 C330 0.930 . S
H347 C331 0.931 . S
H348 C335 0.928 . S
H349 C334 0.929 . S
H350 C332 0.932 . S
C351 C352 1.386 . S
C351 C353 1.397 . S
C351 H375 0.931 . S
C352 C351 1.386 . S
C352 C356 1.397 . S
C353 C351 1.397 . S
C353 C354 1.384 . S
C353 H376 0.930 . S
C354 C353 1.384 . S
C354 C355 1.377 . S
C354 C357 1.481 . S
C355 C354 1.377 . S
C355 C356 1.389 . S
C355 H377 0.929 . S
C356 C352 1.397 . S
C356 C355 1.389 . S
C356 H378 0.931 . S
C357 C354 1.481 . S
C357 C358 1.387 . S
C357 C362 1.390 . S
C358 C357 1.387 . S
C358 C359 1.401 . S
C358 H379 0.930 . S
C359 C358 1.401 . S
C359 C360 1.376 . S
C359 C368 1.511 . S
C360 C359 1.376 . S
C360 C361 1.392 . S
C360 H381 0.931 . S
C361 C360 1.392 . S
C361 C362 1.361 . S
C361 C363 1.500 . S
C362 C357 1.390 . S
C362 C361 1.361 . S
C362 H380 0.931 . S
C363 C361 1.500 . S
C363 C364 1.371 . S
C363 C365 1.365 . S
C364 C363 1.371 . S
C364 C374 1.386 . S
C364 H382 0.931 . S
C365 C363 1.365 . S
C365 C366 1.409 . S
C365 H383 0.929 . S
C366 C365 1.409 . S
C366 C367 1.380 . S
C366 H384 0.930 . S
C367 C366 1.380 . S
C367 C374 1.357 . S
C368 C359 1.511 . S
C368 C369 1.341 1_565 S
C368 C370 1.371 . S
C369 C368 1.341 1_545 S
C369 C373 1.394 . S
C369 H385 0.930 . S
C370 C368 1.371 . S
C370 C371 1.392 1_565 S
C370 H386 0.931 . S
C371 C370 1.392 1_545 S
C371 C372 1.331 . S
C371 H389 0.932 . S
C372 C371 1.331 . S
C372 C373 1.336 . S
C373 C369 1.394 . S
C373 C372 1.336 . S
C373 H388 0.929 . S
C374 C364 1.386 . S
C374 C367 1.357 . S
C374 H387 0.928 . S
H375 C351 0.931 . S
H376 C353 0.930 . S
H377 C355 0.929 . S
H378 C356 0.931 . S
H379 C358 0.930 . S
H380 C362 0.931 . S
H381 C360 0.931 . S
H382 C364 0.931 . S
H383 C365 0.929 . S
H384 C366 0.930 . S
H385 C369 0.930 . S
H386 C370 0.931 . S
H387 C374 0.928 . S
H388 C373 0.929 . S
H389 C371 0.932 . S
C390 C391 1.386 . S
C390 C392 1.397 . S
C390 H414 0.931 . S
C391 C390 1.386 . S
C391 C395 1.397 . S
C392 C390 1.397 . S
C392 C393 1.384 . S
C392 H415 0.930 . S
C393 C392 1.384 . S
C393 C394 1.377 . S
C393 C396 1.481 . S
C394 C393 1.377 . S
C394 C395 1.389 . S
C394 H416 0.929 . S
C395 C391 1.397 . S
C395 C394 1.389 . S
C395 H417 0.931 . S
C396 C393 1.481 . S
C396 C397 1.387 . S
C396 C401 1.390 . S
C397 C396 1.387 . S
C397 C398 1.401 . S
C397 H418 0.930 . S
C398 C397 1.401 . S
C398 C399 1.376 . S
C398 C407 1.511 . S
C399 C398 1.376 . S
C399 C400 1.392 . S
C399 H420 0.931 . S
C400 C399 1.392 . S
C400 C401 1.361 . S
C400 C402 1.500 . S
C401 C396 1.390 . S
C401 C400 1.361 . S
C401 H419 0.931 . S
C402 C400 1.500 . S
C402 C403 1.371 . S
C402 C404 1.365 . S
C403 C402 1.371 . S
C403 C413 1.386 . S
C403 H421 0.931 . S
C404 C402 1.365 . S
C404 C405 1.409 . S
C404 H422 0.929 . S
C405 C404 1.409 . S
C405 C406 1.380 . S
C405 H423 0.930 . S
C406 C405 1.380 . S
C406 C413 1.357 . S
C407 C398 1.511 . S
C407 C408 1.341 . S
C407 C409 1.371 . S
C408 C407 1.341 . S
C408 C412 1.394 . S
C408 H424 0.930 . S
C409 C407 1.371 . S
C409 C410 1.392 . S
C409 H425 0.931 . S
C410 C409 1.392 . S
C410 C411 1.331 . S
C410 H428 0.932 . S
C411 C410 1.331 . S
C411 C412 1.336 . S
C412 C408 1.394 . S
C412 C411 1.336 . S
C412 H427 0.929 . S
C413 C403 1.386 . S
C413 C406 1.357 . S
C413 H426 0.928 . S
H414 C390 0.931 . S
H415 C392 0.930 . S
H416 C394 0.929 . S
H417 C395 0.931 . S
H418 C397 0.930 . S
H419 C401 0.931 . S
H420 C399 0.931 . S
H421 C403 0.931 . S
H422 C404 0.929 . S
H423 C405 0.930 . S
H424 C408 0.930 . S
H425 C409 0.931 . S
H426 C413 0.928 . S
H427 C412 0.929 . S
H428 C410 0.932 . S
C429 C430 1.386 . S
C429 C431 1.397 . S
C429 H453 0.931 . S
C430 C429 1.386 . S
C430 C434 1.397 . S
C431 C429 1.397 . S
C431 C432 1.384 . S
C431 H454 0.930 . S
C432 C431 1.384 . S
C432 C433 1.377 . S
C432 C435 1.481 . S
C433 C432 1.377 . S
C433 C434 1.389 . S
C433 H455 0.929 . S
C434 C430 1.397 . S
C434 C433 1.389 . S
C434 H456 0.931 . S
C435 C432 1.481 . S
C435 C436 1.387 . S
C435 C440 1.390 . S
C436 C435 1.387 . S
C436 C437 1.401 . S
C436 H457 0.930 . S
C437 C436 1.401 . S
C437 C438 1.376 . S
C437 C446 1.511 . S
C438 C437 1.376 . S
C438 C439 1.392 . S
C438 H459 0.931 . S
C439 C438 1.392 . S
C439 C440 1.361 . S
C439 C441 1.500 . S
C440 C435 1.390 . S
C440 C439 1.361 . S
C440 H458 0.931 . S
C441 C439 1.500 . S
C441 C442 1.371 . S
C441 C443 1.365 . S
C442 C441 1.371 . S
C442 C452 1.386 . S
C442 H460 0.931 . S
C443 C441 1.365 . S
C443 C444 1.409 . S
C443 H461 0.929 . S
C444 C443 1.409 . S
C444 C445 1.380 . S
C444 H462 0.930 . S
C445 C444 1.380 . S
C445 C452 1.357 . S
C446 C437 1.511 . S
C446 C447 1.341 . S
C446 C448 1.371 . S
C447 C446 1.341 . S
C447 C451 1.394 . S
C447 H463 0.930 . S
C448 C446 1.371 . S
C448 C449 1.392 . S
C448 H464 0.931 . S
C449 C448 1.392 . S
C449 C450 1.331 . S
C449 H467 0.932 . S
C450 C449 1.331 . S
C450 C451 1.336 . S
C451 C447 1.394 . S
C451 C450 1.336 . S
C451 H466 0.929 . S
C452 C442 1.386 . S
C452 C445 1.357 . S
C452 H465 0.928 . S
H453 C429 0.931 . S
H454 C431 0.930 . S
H455 C433 0.929 . S
H456 C434 0.931 . S
H457 C436 0.930 . S
H458 C440 0.931 . S
H459 C438 0.931 . S
H460 C442 0.931 . S
H461 C443 0.929 . S
H462 C444 0.930 . S
H463 C447 0.930 . S
H464 C448 0.931 . S
H465 C452 0.928 . S
H466 C451 0.929 . S
H467 C449 0.932 . S
C468 C469 1.386 . S
C468 C470 1.397 . S
C468 H492 0.931 . S
C469 C468 1.386 . S
C469 C473 1.397 . S
C470 C468 1.397 . S
C470 C471 1.384 . S
C470 H493 0.930 . S
C471 C470 1.384 . S
C471 C472 1.377 . S
C471 C474 1.481 . S
C472 C471 1.377 . S
C472 C473 1.389 . S
C472 H494 0.929 . S
C473 C469 1.397 . S
C473 C472 1.389 . S
C473 H495 0.931 . S
C474 C471 1.481 . S
C474 C475 1.387 . S
C474 C479 1.390 . S
C475 C474 1.387 . S
C475 C476 1.401 . S
C475 H496 0.930 . S
C476 C475 1.401 . S
C476 C477 1.376 . S
C476 C485 1.511 . S
C477 C476 1.376 . S
C477 C478 1.392 . S
C477 H498 0.931 . S
C478 C477 1.392 . S
C478 C479 1.361 . S
C478 C480 1.500 . S
C479 C474 1.390 . S
C479 C478 1.361 . S
C479 H497 0.931 . S
C480 C478 1.500 . S
C480 C481 1.371 . S
C480 C482 1.365 . S
C481 C480 1.371 . S
C481 C491 1.386 . S
C481 H499 0.931 . S
C482 C480 1.365 . S
C482 C483 1.409 . S
C482 H500 0.929 . S
C483 C482 1.409 . S
C483 C484 1.380 . S
C483 H501 0.930 . S
C484 C483 1.380 . S
C484 C491 1.357 . S
C485 C476 1.511 . S
C485 C486 1.341 . S
C485 C487 1.371 . S
C486 C485 1.341 . S
C486 C490 1.394 . S
C486 H502 0.930 . S
C487 C485 1.371 . S
C487 C488 1.392 . S
C487 H503 0.931 . S
C488 C487 1.392 . S
C488 C489 1.331 . S
C488 H506 0.932 . S
C489 C488 1.331 . S
C489 C490 1.336 . S
C490 C486 1.394 . S
C490 C489 1.336 . S
C490 H505 0.929 . S
C491 C481 1.386 . S
C491 C484 1.357 . S
C491 H504 0.928 . S
H492 C468 0.931 . S
H493 C470 0.930 . S
H494 C472 0.929 . S
H495 C473 0.931 . S
H496 C475 0.930 . S
H497 C479 0.931 . S
H498 C477 0.931 . S
H499 C481 0.931 . S
H500 C482 0.929 . S
H501 C483 0.930 . S
H502 C486 0.930 . S
H503 C487 0.931 . S
H504 C491 0.928 . S
H505 C490 0.929 . S
H506 C488 0.932 . S
C507 C508 1.386 . S
C507 C509 1.397 . S
C507 H531 0.931 . S
C508 C507 1.386 . S
C508 C512 1.397 . S
C509 C507 1.397 . S
C509 C510 1.384 . S
C509 H532 0.930 . S
C510 C509 1.384 . S
C510 C511 1.377 . S
C510 C513 1.481 . S
C511 C510 1.377 . S
C511 C512 1.389 . S
C511 H533 0.929 . S
C512 C508 1.397 . S
C512 C511 1.389 . S
C512 H534 0.931 . S
C513 C510 1.481 . S
C513 C514 1.387 . S
C513 C518 1.390 . S
C514 C513 1.387 . S
C514 C515 1.401 . S
C514 H535 0.930 . S
C515 C514 1.401 . S
C515 C516 1.376 . S
C515 C524 1.511 . S
C516 C515 1.376 . S
C516 C517 1.392 . S
C516 H537 0.931 . S
C517 C516 1.392 . S
C517 C518 1.361 . S
C517 C519 1.500 . S
C518 C513 1.390 . S
C518 C517 1.361 . S
C518 H536 0.931 . S
C519 C517 1.500 . S
C519 C520 1.371 . S
C519 C521 1.365 . S
C520 C519 1.371 . S
C520 C530 1.386 . S
C520 H538 0.931 . S
C521 C519 1.365 . S
C521 C522 1.409 . S
C521 H539 0.929 . S
C522 C521 1.409 . S
C522 C523 1.380 . S
C522 H540 0.930 . S
C523 C522 1.380 . S
C523 C530 1.357 . S
C524 C515 1.511 . S
C524 C525 1.341 . S
C524 C526 1.400 . S
C525 C524 1.341 . S
C525 C529 1.394 1_556 S
C525 H541 0.930 . S
C526 C524 1.400 . S
C526 C527 1.363 1_556 S
C526 H542 0.934 . S
C527 C526 1.363 1_554 S
C527 C528 1.331 . S
C527 H545 0.932 . S
C528 C527 1.331 . S
C528 C529 1.336 . S
C529 C525 1.394 1_554 S
C529 C528 1.336 . S
C529 H544 0.929 . S
C530 C520 1.386 . S
C530 C523 1.357 . S
C530 H543 0.887 1_556 S
H531 C507 0.931 . S
H532 C509 0.930 . S
H533 C511 0.929 . S
H534 C512 0.931 . S
H535 C514 0.930 . S
H536 C518 0.931 . S
H537 C516 0.931 . S
H538 C520 0.931 . S
H539 C521 0.929 . S
H540 C522 0.930 . S
H541 C525 0.930 . S
H542 C526 0.934 . S
H543 C530 0.887 1_554 S
H544 C529 0.929 . S
H545 C527 0.932 . S
C546 C547 1.386 . S
C546 C548 1.397 . S
C546 H570 0.931 . S
C547 C546 1.386 . S
C547 C551 1.397 . S
C548 C546 1.397 . S
C548 C549 1.384 . S
C548 H571 0.930 . S
C549 C548 1.384 . S
C549 C550 1.377 . S
C549 C552 1.481 . S
C550 C549 1.377 . S
C550 C551 1.389 . S
C550 H572 0.929 . S
C551 C547 1.397 . S
C551 C550 1.389 . S
C551 H573 0.931 . S
C552 C549 1.481 . S
C552 C553 1.387 . S
C552 C557 1.390 . S
C553 C552 1.387 . S
C553 C554 1.401 . S
C553 H574 0.930 . S
C554 C553 1.401 . S
C554 C555 1.376 . S
C554 C563 1.511 . S
C555 C554 1.376 . S
C555 C556 1.392 . S
C555 H576 0.931 . S
C556 C555 1.392 . S
C556 C557 1.361 . S
C556 C558 1.500 . S
C557 C552 1.390 . S
C557 C556 1.361 . S
C557 H575 0.931 . S
C558 C556 1.500 . S
C558 C559 1.371 . S
C558 C560 1.365 . S
C559 C558 1.371 . S
C559 C569 1.386 . S
C559 H577 0.931 . S
C560 C558 1.365 . S
C560 C561 1.409 . S
C560 H578 0.929 . S
C561 C560 1.409 . S
C561 C562 1.380 . S
C561 H579 0.930 . S
C562 C561 1.380 . S
C562 C569 1.357 . S
C563 C554 1.511 . S
C563 C564 1.341 . S
C563 C565 1.371 . S
C564 C563 1.341 . S
C564 C568 1.394 . S
C564 H580 0.930 . S
C565 C563 1.371 . S
C565 C566 1.392 . S
C565 H581 0.931 . S
C566 C565 1.392 . S
C566 C567 1.331 . S
C566 H584 0.932 . S
C567 C566 1.331 . S
C567 C568 1.336 . S
C568 C564 1.394 . S
C568 C567 1.336 . S
C568 H583 0.929 . S
C569 C559 1.386 . S
C569 C562 1.357 . S
C569 H582 0.928 . S
H570 C546 0.931 . S
H571 C548 0.930 . S
H572 C550 0.929 . S
H573 C551 0.931 . S
H574 C553 0.930 . S
H575 C557 0.931 . S
H576 C555 0.931 . S
H577 C559 0.931 . S
H578 C560 0.929 . S
H579 C561 0.930 . S
H580 C564 0.930 . S
H581 C565 0.931 . S
H582 C569 0.928 . S
H583 C568 0.929 . S
H584 C566 0.932 . S
C585 C586 1.386 1_556 S
C585 C587 1.397 . S
C585 H609 0.931 . S
C586 C585 1.386 1_554 S
C586 C590 1.397 . S
C587 C585 1.397 . S
C587 C588 1.384 . S
C587 H610 0.930 . S
C588 C587 1.384 . S
C588 C589 1.377 1_556 S
C588 C591 1.481 . S
C589 C588 1.377 1_554 S
C589 C590 1.389 . S
C589 H611 0.929 . S
C590 C586 1.397 . S
C590 C589 1.389 . S
C590 H612 0.931 . S
C591 C588 1.481 . S
C591 C592 1.387 . S
C591 C596 1.390 . S
C592 C591 1.387 . S
C592 C593 1.401 . S
C592 H613 0.930 . S
C593 C592 1.401 . S
C593 C594 1.376 . S
C593 C602 1.511 . S
C594 C593 1.376 . S
C594 C595 1.392 . S
C594 H615 0.931 . S
C595 C594 1.392 . S
C595 C596 1.361 . S
C595 C597 1.500 . S
C596 C591 1.390 . S
C596 C595 1.361 . S
C596 H614 0.931 . S
C597 C595 1.500 . S
C597 C598 1.371 . S
C597 C599 1.365 . S
C598 C597 1.371 . S
C598 C608 1.386 1_545 S
C598 H616 0.931 . S
C599 C597 1.365 . S
C599 C600 1.414 . S
C599 H617 0.929 1_556 S
C600 C599 1.414 . S
C600 C601 1.377 1_545 S
C600 H618 0.926 1_546 S
C601 C600 1.377 1_565 S
C601 C608 1.357 . S
C602 C593 1.511 . S
C602 C603 1.341 . S
C602 C604 1.371 . S
C603 C602 1.341 . S
C603 C607 1.394 . S
C603 H619 0.930 . S
C604 C602 1.371 . S
C604 C605 1.392 . S
C604 H620 0.931 . S
C605 C604 1.392 . S
C605 C606 1.331 . S
C605 H623 0.929 . S
C606 C605 1.331 . S
C606 C607 1.336 . S
C607 C603 1.394 . S
C607 C606 1.336 . S
C607 H622 0.929 . S
C608 C598 1.386 1_565 S
C608 C601 1.357 . S
C608 H621 0.928 . S
H609 C585 0.931 . S
H610 C587 0.930 . S
H611 C589 0.929 . S
H612 C590 0.931 . S
H613 C592 0.930 . S
H614 C596 0.931 . S
H615 C594 0.931 . S
H616 C598 0.931 . S
H617 C599 0.929 1_554 S
H618 C600 0.926 1_564 S
H619 C603 0.930 . S
H620 C604 0.931 . S
H621 C608 0.928 . S
H622 C607 0.929 . S
H623 C605 0.929 . S
C624 O625 1.160 1_554 S
C624 O631 1.185 . S
O625 C624 1.160 1_556 S
O626 Zn627 1.899 1_556 S
O626 C634 1.284 . S
Zn627 O626 1.899 1_554 S
Zn627 O628 2.032 . S
Zn627 O631 2.086 . S
Zn627 O636 1.977 . S
O628 Zn627 2.032 . S
O628 C632 1.278 . S
C629 O630 1.203 . S
C629 O636 1.267 . S
O630 C629 1.203 . S
O631 C624 1.185 . S
O631 Zn627 2.086 . S
C632 O628 1.278 . S
C632 O633 1.211 . S
O633 C632 1.211 . S
C634 O626 1.284 . S
C634 O635 1.273 . S
O635 C634 1.273 . S
O636 Zn627 1.977 . S
O636 C629 1.267 . S
C637 O638 1.160 . S
C637 O644 1.185 . S
O638 C637 1.160 . S
O639 Zn640 1.899 . S
O639 C647 1.284 . S
Zn640 O639 1.899 . S
Zn640 O641 2.032 . S
Zn640 O644 2.086 . S
Zn640 O649 1.977 . S
O641 Zn640 2.032 . S
O641 C645 1.278 . S
C642 O643 1.203 . S
C642 O649 1.267 . S
O643 C642 1.203 . S
O644 C637 1.185 . S
O644 Zn640 2.086 . S
C645 O641 1.278 . S
C645 O646 1.211 . S
O646 C645 1.211 . S
C647 O639 1.284 . S
C647 O648 1.273 . S
O648 C647 1.273 . S
O649 Zn640 1.977 . S
O649 C642 1.267 . S
C650 O651 1.160 1_554 S
C650 O657 1.185 . S
O651 C650 1.160 1_556 S
O652 Zn653 1.899 1_556 S
O652 C660 1.284 . S
Zn653 O652 1.899 1_554 S
Zn653 O654 2.032 1_554 S
Zn653 O657 2.086 . S
Zn653 O662 1.977 . S
O654 Zn653 2.032 1_556 S
O654 C658 1.278 . S
C655 O656 1.203 . S
C655 O662 1.267 . S
O656 C655 1.203 . S
O657 C650 1.185 . S
O657 Zn653 2.086 . S
C658 O654 1.278 . S
C658 O659 1.211 1_556 S
O659 C658 1.211 1_554 S
C660 O652 1.284 . S
C660 O661 1.273 . S
O661 C660 1.273 . S
O662 Zn653 1.977 . S
O662 C655 1.267 . S
C663 O664 1.160 . S
C663 O670 1.185 . S
O664 C663 1.160 . S
O665 Zn666 1.899 . S
O665 C673 1.284 . S
Zn666 O665 1.899 . S
Zn666 O667 2.034 . S
Zn666 O670 2.086 . S
Zn666 O675 1.977 . S
O667 Zn666 2.034 . S
O667 C671 1.274 1_545 S
C668 O669 1.203 . S
C668 O675 1.267 . S
O669 C668 1.203 . S
O670 C663 1.185 . S
O670 Zn666 2.086 . S
C671 O667 1.274 1_565 S
C671 O672 1.211 . S
O672 C671 1.211 . S
C673 O665 1.284 . S
C673 O674 1.273 1_545 S
O674 C673 1.273 1_565 S
O675 Zn666 1.977 . S
O675 C668 1.267 . S
C676 O677 1.160 . S
C676 O683 1.185 . S
O677 C676 1.160 . S
O678 Zn679 1.899 . S
O678 C686 1.284 . S
Zn679 O678 1.899 . S
Zn679 O680 2.032 . S
Zn679 O683 2.086 . S
Zn679 O688 1.977 . S
O680 Zn679 2.032 . S
O680 C684 1.278 . S
C681 O682 1.203 . S
C681 O688 1.267 . S
O682 C681 1.203 . S
O683 C676 1.185 . S
O683 Zn679 2.086 . S
C684 O680 1.278 . S
C684 O685 1.211 . S
O685 C684 1.211 . S
C686 O678 1.284 . S
C686 O687 1.273 . S
O687 C686 1.273 . S
O688 Zn679 1.977 . S
O688 C681 1.267 . S
C689 O690 1.160 . S
C689 O696 1.185 . S
O690 C689 1.160 . S
O691 Zn692 1.899 . S
O691 C699 1.284 . S
Zn692 O691 1.899 . S
Zn692 O693 2.032 . S
Zn692 O696 2.086 . S
Zn692 O701 1.977 . S
O693 Zn692 2.032 . S
O693 C697 1.278 . S
C694 O695 1.203 . S
C694 O701 1.267 . S
O695 C694 1.203 . S
O696 C689 1.185 . S
O696 Zn692 2.086 . S
C697 O693 1.278 . S
C697 O698 1.211 . S
O698 C697 1.211 . S
C699 O691 1.284 . S
C699 O700 1.273 . S
O700 C699 1.273 . S
O701 Zn692 1.977 . S
O701 C694 1.267 . S
C702 O703 1.160 . S
C702 O709 1.185 . S
O703 C702 1.160 . S
O704 Zn705 1.899 . S
O704 C712 1.284 . S
Zn705 O704 1.899 . S
Zn705 O706 2.032 . S
Zn705 O709 2.086 . S
Zn705 O714 1.977 . S
O706 Zn705 2.032 . S
O706 C710 1.278 . S
C707 O708 1.203 . S
C707 O714 1.267 . S
O708 C707 1.203 . S
O709 C702 1.185 . S
O709 Zn705 2.086 . S
C710 O706 1.278 . S
C710 O711 1.211 . S
O711 C710 1.211 . S
C712 O704 1.284 . S
C712 O713 1.273 . S
O713 C712 1.273 . S
O714 Zn705 1.977 . S
O714 C707 1.267 . S
C715 O716 1.160 . S
C715 O722 1.185 . S
O716 C715 1.160 . S
O717 Zn718 1.899 . S
O717 C725 1.284 1_565 S
Zn718 O717 1.899 . S
Zn718 O719 2.032 1_565 S
Zn718 O722 2.086 . S
Zn718 O727 1.977 . S
O719 Zn718 2.032 1_545 S
O719 C723 1.278 . S
C720 O721 1.203 1_565 S
C720 O727 1.267 . S
O721 C720 1.203 1_545 S
O722 C715 1.185 . S
O722 Zn718 2.086 . S
C723 O719 1.278 . S
C723 O724 1.211 . S
O724 C723 1.211 . S
C725 O717 1.284 1_545 S
C725 O726 1.273 . S
O726 C725 1.273 . S
O727 Zn718 1.977 . S
O727 C720 1.267 . S
C728 O729 1.160 1_455 S
C728 O735 1.185 . S
O729 C728 1.160 1_655 S
O730 Zn731 1.899 1_655 S
O730 C738 1.284 . S
Zn731 O730 1.899 1_455 S
Zn731 O732 2.032 1_455 S
Zn731 O735 2.086 . S
Zn731 O740 1.977 . S
O732 Zn731 2.032 1_655 S
O732 C736 1.276 1_655 S
C733 O734 1.203 . S
C733 O740 1.267 . S
O734 C733 1.203 . S
O735 C728 1.185 . S
O735 Zn731 2.086 . S
C736 O732 1.276 1_455 S
C736 O737 1.220 . S
O737 C736 1.220 . S
C738 O730 1.284 . S
C738 O739 1.273 . S
O739 C738 1.273 . S
O740 Zn731 1.977 . S
O740 C733 1.267 . S
C741 O742 1.160 . S
C741 O748 1.185 . S
O742 C741 1.160 . S
O743 Zn744 1.899 . S
O743 C751 1.284 . S
Zn744 O743 1.899 . S
Zn744 O745 2.032 . S
Zn744 O748 2.086 . S
Zn744 O753 1.977 . S
O745 Zn744 2.032 . S
O745 C749 1.278 . S
C746 O747 1.203 . S
C746 O753 1.267 . S
O747 C746 1.203 . S
O748 C741 1.185 . S
O748 Zn744 2.086 . S
C749 O745 1.278 . S
C749 O750 1.211 . S
O750 C749 1.211 . S
C751 O743 1.284 . S
C751 O752 1.273 . S
O752 C751 1.273 . S
O753 Zn744 1.977 . S
O753 C746 1.267 . S
C754 O755 1.160 1_455 S
C754 O761 1.185 . S
O755 C754 1.160 1_655 S
O756 Zn757 1.899 1_655 S
O756 C764 1.284 . S
Zn757 O756 1.899 1_455 S
Zn757 O758 2.032 1_455 S
Zn757 O761 2.086 . S
Zn757 O766 1.977 . S
O758 Zn757 2.032 1_655 S
O758 C762 1.276 1_655 S
C759 O760 1.203 . S
C759 O766 1.267 . S
O760 C759 1.203 . S
O761 C754 1.185 . S
O761 Zn757 2.086 . S
C762 O758 1.276 1_455 S
C762 O763 1.216 . S
O763 C762 1.216 . S
C764 O756 1.284 . S
C764 O765 1.273 . S
O765 C764 1.273 . S
O766 Zn757 1.977 . S
O766 C759 1.267 . S
C767 O768 1.160 . S
C767 O774 1.185 . S
O768 C767 1.160 . S
O769 Zn770 1.899 . S
O769 C777 1.284 . S
Zn770 O769 1.899 . S
Zn770 O771 2.032 . S
Zn770 O774 2.086 . S
Zn770 O779 1.977 . S
O771 Zn770 2.032 . S
O771 C775 1.278 . S
C772 O773 1.203 . S
C772 O779 1.267 . S
O773 C772 1.203 . S
O774 C767 1.185 . S
O774 Zn770 2.086 . S
C775 O771 1.278 . S
C775 O776 1.211 . S
O776 C775 1.211 . S
C777 O769 1.284 . S
C777 O778 1.273 . S
O778 C777 1.273 . S
O779 Zn770 1.977 . S
O779 C772 1.267 . S
H780 C786 0.930 . S
H781 C790 0.930 . S
H782 C795 0.929 . S
H783 C793 0.929 . S
H784 C788 0.929 . S
H785 C794 0.929 . S
C786 H780 0.930 . S
C786 C787 1.367 . S
C786 C794 1.378 . S
C787 C786 1.367 . S
C787 C795 1.433 . S
C788 H784 0.929 . S
C788 C790 1.378 . S
C788 C792 1.350 . S
C789 C792 1.463 . S
C789 C794 1.350 . S
C789 N797 1.427 . S
C790 H781 0.930 . S
C790 C788 1.378 . S
C790 C791 1.367 . S
C791 C790 1.367 . S
C791 C793 1.433 . S
C792 C788 1.350 . S
C792 C789 1.463 . S
C792 N796 1.427 . S
C793 H783 0.929 . S
C793 C791 1.433 . S
C793 N796 1.384 . S
C794 H785 0.929 . S
C794 C786 1.378 . S
C794 C789 1.350 . S
C795 H782 0.929 . S
C795 C787 1.433 . S
C795 N797 1.384 . S
N796 C792 1.427 . S
N796 C793 1.384 . S
N797 C789 1.427 . S
N797 C795 1.384 . S
H798 C804 0.930 . S
H799 C808 0.930 . S
H800 C813 0.929 . S
H801 C811 0.929 . S
H802 C806 0.929 . S
H803 C812 0.929 . S
C804 H798 0.930 . S
C804 C805 1.367 . S
C804 C812 1.378 . S
C805 C804 1.367 . S
C805 C813 1.433 . S
C806 H802 0.929 . S
C806 C808 1.378 . S
C806 C810 1.350 . S
C807 C810 1.463 . S
C807 C812 1.350 . S
C807 N815 1.427 . S
C808 H799 0.930 . S
C808 C806 1.378 . S
C808 C809 1.367 . S
C809 C808 1.367 . S
C809 C811 1.433 . S
C810 C806 1.350 . S
C810 C807 1.463 . S
C810 N814 1.427 . S
C811 H801 0.929 . S
C811 C809 1.433 . S
C811 N814 1.384 . S
C812 H803 0.929 . S
C812 C804 1.378 . S
C812 C807 1.350 . S
C813 H800 0.929 . S
C813 C805 1.433 . S
C813 N815 1.384 . S
N814 C810 1.427 . S
N814 C811 1.384 . S
N815 C807 1.427 . S
N815 C813 1.384 . S
H816 C822 0.930 . S
H817 C826 0.930 . S
H818 C831 0.929 . S
H819 C829 0.929 . S
H820 C824 0.929 . S
H821 C830 0.929 . S
C822 H816 0.930 . S
C822 C823 1.367 . S
C822 C830 1.378 . S
C823 C822 1.367 . S
C823 C831 1.433 . S
C824 H820 0.929 . S
C824 C826 1.378 . S
C824 C828 1.350 . S
C825 C828 1.463 . S
C825 C830 1.350 . S
C825 N833 1.427 . S
C826 H817 0.930 . S
C826 C824 1.378 . S
C826 C827 1.367 . S
C827 C826 1.367 . S
C827 C829 1.433 . S
C828 C824 1.350 . S
C828 C825 1.463 . S
C828 N832 1.427 . S
C829 H819 0.929 . S
C829 C827 1.433 . S
C829 N832 1.384 . S
C830 H821 0.929 . S
C830 C822 1.378 . S
C830 C825 1.350 . S
C831 H818 0.929 . S
C831 C823 1.433 . S
C831 N833 1.384 . S
N832 C828 1.427 . S
N832 C829 1.384 . S
N833 C825 1.427 . S
N833 C831 1.384 . S
H834 C840 0.930 . S
H835 C844 0.930 . S
H836 C849 0.929 . S
H837 C847 0.929 . S
H838 C842 0.929 . S
H839 C848 0.929 . S
C840 H834 0.930 . S
C840 C841 1.367 1_545 S
C840 C848 1.378 . S
C841 C840 1.367 1_565 S
C841 C849 1.433 . S
C842 H838 0.929 . S
C842 C844 1.378 . S
C842 C846 1.350 . S
C843 C846 1.463 . S
C843 C848 1.350 1_565 S
C843 N851 1.427 . S
C844 H835 0.930 . S
C844 C842 1.378 . S
C844 C845 1.367 1_565 S
C845 C844 1.367 1_545 S
C845 C847 1.433 . S
C846 C842 1.350 . S
C846 C843 1.463 . S
C846 N850 1.427 1_565 S
C847 H837 0.929 . S
C847 C845 1.433 . S
C847 N850 1.384 . S
C848 H839 0.929 . S
C848 C840 1.378 . S
C848 C843 1.350 1_545 S
C849 H836 0.929 . S
C849 C841 1.433 . S
C849 N851 1.384 . S
N850 C846 1.427 1_545 S
N850 C847 1.384 . S
N851 C843 1.427 . S
N851 C849 1.384 . S
H852 C858 0.930 . S
H853 C862 0.930 . S
H854 C867 0.929 . S
H855 C865 0.929 . S
H856 C860 0.929 . S
H857 C866 0.929 . S
C858 H852 0.930 . S
C858 C859 1.367 . S
C858 C866 1.378 . S
C859 C858 1.367 . S
C859 C867 1.433 . S
C860 H856 0.929 . S
C860 C862 1.378 . S
C860 C864 1.350 . S
C861 C864 1.463 . S
C861 C866 1.350 . S
C861 N869 1.427 . S
C862 H853 0.930 . S
C862 C860 1.378 . S
C862 C863 1.367 . S
C863 C862 1.367 . S
C863 C865 1.433 . S
C864 C860 1.350 . S
C864 C861 1.463 . S
C864 N868 1.427 . S
C865 H855 0.929 . S
C865 C863 1.433 . S
C865 N868 1.384 . S
C866 H857 0.929 . S
C866 C858 1.378 . S
C866 C861 1.350 . S
C867 H854 0.929 . S
C867 C859 1.433 . S
C867 N869 1.384 . S
N868 C864 1.427 . S
N868 C865 1.384 . S
N869 C861 1.427 . S
N869 C867 1.384 . S
H870 C876 0.930 . S
H871 C880 0.930 . S
H872 C885 0.929 . S
H873 C883 0.929 . S
H874 C878 0.929 . S
H875 C884 0.929 . S
C876 H870 0.930 . S
C876 C877 1.367 . S
C876 C884 1.378 . S
C877 C876 1.367 . S
C877 C885 1.433 . S
C878 H874 0.929 . S
C878 C880 1.378 . S
C878 C882 1.350 . S
C879 C882 1.463 . S
C879 C884 1.350 . S
C879 N887 1.427 . S
C880 H871 0.930 . S
C880 C878 1.378 . S
C880 C881 1.367 . S
C881 C880 1.367 . S
C881 C883 1.433 . S
C882 C878 1.350 . S
C882 C879 1.463 . S
C882 N886 1.427 . S
C883 H873 0.929 . S
C883 C881 1.433 . S
C883 N886 1.384 . S
C884 H875 0.929 . S
C884 C876 1.378 . S
C884 C879 1.350 . S
C885 H872 0.929 . S
C885 C877 1.433 . S
C885 N887 1.384 . S
N886 C882 1.427 . S
N886 C883 1.384 . S
N887 C879 1.427 . S
N887 C885 1.384 . S
H888 C894 0.930 . S
H889 C898 0.930 . S
H890 C903 0.929 . S
H891 C901 0.929 . S
H892 C896 0.929 . S
H893 C902 0.929 . S
C894 H888 0.930 . S
C894 C895 1.367 . S
C894 C902 1.378 . S
C895 C894 1.367 . S
C895 C903 1.433 . S
C896 H892 0.929 . S
C896 C898 1.378 . S
C896 C900 1.350 . S
C897 C900 1.463 . S
C897 C902 1.350 . S
C897 N905 1.427 . S
C898 H889 0.930 . S
C898 C896 1.378 . S
C898 C899 1.367 . S
C899 C898 1.367 . S
C899 C901 1.433 . S
C900 C896 1.350 . S
C900 C897 1.463 . S
C900 N904 1.427 . S
C901 H891 0.929 . S
C901 C899 1.433 . S
C901 N904 1.384 . S
C902 H893 0.929 . S
C902 C894 1.378 . S
C902 C897 1.350 . S
C903 H890 0.929 . S
C903 C895 1.433 . S
C903 N905 1.384 . S
N904 C900 1.427 . S
N904 C901 1.384 . S
N905 C897 1.427 . S
N905 C903 1.384 . S
H906 C912 0.930 . S
H907 C916 0.930 . S
H908 C921 0.929 . S
H909 C919 0.929 . S
H910 C914 0.929 . S
H911 C920 0.929 . S
C912 H906 0.930 . S
C912 C913 1.367 1_545 S
C912 C920 1.378 . S
C913 C912 1.367 1_565 S
C913 C921 1.433 . S
C914 H910 0.929 . S
C914 C916 1.378 . S
C914 C918 1.350 . S
C915 C918 1.463 . S
C915 C920 1.350 1_565 S
C915 N923 1.427 . S
C916 H907 0.930 . S
C916 C914 1.378 . S
C916 C917 1.367 . S
C917 C916 1.367 . S
C917 C919 1.433 1_565 S
C918 C914 1.350 . S
C918 C915 1.463 . S
C918 N922 1.427 1_565 S
C919 H909 0.929 . S
C919 C917 1.433 1_545 S
C919 N922 1.384 . S
C920 H911 0.929 . S
C920 C912 1.378 . S
C920 C915 1.350 1_545 S
C921 H908 0.929 . S
C921 C913 1.433 . S
C921 N923 1.384 . S
N922 C918 1.427 1_545 S
N922 C919 1.384 . S
N923 C915 1.427 . S
N923 C921 1.384 . S
H924 C930 0.930 . S
H925 C934 0.930 . S
H926 C939 0.929 . S
H927 C937 0.929 . S
H928 C932 0.929 . S
H929 C938 0.929 . S
C930 H924 0.930 . S
C930 C931 1.367 . S
C930 C938 1.378 . S
C931 C930 1.367 . S
C931 C939 1.433 . S
C932 H928 0.929 . S
C932 C934 1.378 . S
C932 C936 1.350 . S
C933 C936 1.463 . S
C933 C938 1.350 . S
C933 N941 1.427 . S
C934 H925 0.930 . S
C934 C932 1.378 . S
C934 C935 1.367 . S
C935 C934 1.367 . S
C935 C937 1.433 . S
C936 C932 1.350 . S
C936 C933 1.463 . S
C936 N940 1.427 . S
C937 H927 0.929 . S
C937 C935 1.433 . S
C937 N940 1.384 . S
C938 H929 0.929 . S
C938 C930 1.378 . S
C938 C933 1.350 . S
C939 H926 0.929 . S
C939 C931 1.433 . S
C939 N941 1.384 . S
N940 C936 1.427 . S
N940 C937 1.384 . S
N941 C933 1.427 . S
N941 C939 1.384 . S
H942 C948 0.930 . S
H943 C952 0.930 . S
H944 C957 0.929 . S
H945 C955 0.929 . S
H946 C950 0.929 . S
H947 C956 0.929 . S
C948 H942 0.930 . S
C948 C949 1.367 . S
C948 C956 1.378 . S
C949 C948 1.367 . S
C949 C957 1.433 . S
C950 H946 0.929 . S
C950 C952 1.378 . S
C950 C954 1.350 . S
C951 C954 1.463 . S
C951 C956 1.350 . S
C951 N959 1.427 . S
C952 H943 0.930 . S
C952 C950 1.378 . S
C952 C953 1.367 . S
C953 C952 1.367 . S
C953 C955 1.433 . S
C954 C950 1.350 . S
C954 C951 1.463 . S
C954 N958 1.427 . S
C955 H945 0.929 . S
C955 C953 1.433 . S
C955 N958 1.384 . S
C956 H947 0.929 . S
C956 C948 1.378 . S
C956 C951 1.350 . S
C957 H944 0.929 . S
C957 C949 1.433 . S
C957 N959 1.384 . S
N958 C954 1.427 . S
N958 C955 1.384 . S
N959 C951 1.427 . S
N959 C957 1.384 . S
H960 C966 0.930 . S
H961 C970 0.930 . S
H962 C975 0.929 . S
H963 C973 0.929 . S
H964 C968 0.929 . S
H965 C974 0.929 . S
C966 H960 0.930 . S
C966 C967 1.367 . S
C966 C974 1.378 . S
C967 C966 1.367 . S
C967 C975 1.433 . S
C968 H964 0.929 . S
C968 C970 1.378 . S
C968 C972 1.350 . S
C969 C972 1.463 . S
C969 C974 1.350 . S
C969 N977 1.427 . S
C970 H961 0.930 . S
C970 C968 1.378 . S
C970 C971 1.367 . S
C971 C970 1.367 . S
C971 C973 1.433 . S
C972 C968 1.350 . S
C972 C969 1.463 . S
C972 N976 1.427 . S
C973 H963 0.929 . S
C973 C971 1.433 . S
C973 N976 1.384 . S
C974 H965 0.929 . S
C974 C966 1.378 . S
C974 C969 1.350 . S
C975 H962 0.929 . S
C975 C967 1.433 . S
C975 N977 1.384 . S
N976 C972 1.427 . S
N976 C973 1.384 . S
N977 C969 1.427 . S
N977 C975 1.384 . S
H978 C984 0.930 . S
H979 C988 0.930 . S
H980 C993 0.929 . S
H981 C991 0.929 . S
H982 C986 0.929 . S
H983 C992 0.929 . S
C984 H978 0.930 . S
C984 C985 1.367 . S
C984 C992 1.378 . S
C985 C984 1.367 . S
C985 C993 1.433 . S
C986 H982 0.929 . S
C986 C988 1.378 . S
C986 C990 1.350 . S
C987 C990 1.463 . S
C987 C992 1.350 . S
C987 N995 1.427 . S
C988 H979 0.930 . S
C988 C986 1.378 . S
C988 C989 1.367 . S
C989 C988 1.367 . S
C989 C991 1.433 . S
C990 C986 1.350 . S
C990 C987 1.463 . S
C990 N994 1.427 . S
C991 H981 0.929 . S
C991 C989 1.433 . S
C991 N994 1.384 . S
C992 H983 0.929 . S
C992 C984 1.378 . S
C992 C987 1.350 . S
C993 H980 0.929 . S
C993 C985 1.433 . S
C993 N995 1.384 . S
N994 C990 1.427 . S
N994 C991 1.384 . S
N995 C987 1.427 . S
N995 C993 1.384 . S
H996 C1002 0.930 . S
H997 C1006 0.930 . S
H998 C1011 0.929 . S
H999 C1009 0.929 . S
H1000 C1004 0.929 . S
H1001 C1010 0.929 . S
C1002 H996 0.930 . S
C1002 C1003 1.367 . S
C1002 C1010 1.378 . S
C1003 C1002 1.367 . S
C1003 C1011 1.433 . S
C1004 H1000 0.929 . S
C1004 C1006 1.378 . S
C1004 C1008 1.350 . S
C1005 C1008 1.463 . S
C1005 C1010 1.350 . S
C1005 N1013 1.427 . S
C1006 H997 0.930 . S
C1006 C1004 1.378 . S
C1006 C1007 1.367 . S
C1007 C1006 1.367 . S
C1007 C1009 1.433 . S
C1008 C1004 1.350 . S
C1008 C1005 1.463 . S
C1008 N1012 1.427 . S
C1009 H999 0.929 . S
C1009 C1007 1.433 . S
C1009 N1012 1.384 . S
C1010 H1001 0.929 . S
C1010 C1002 1.378 . S
C1010 C1005 1.350 . S
C1011 H998 0.929 . S
C1011 C1003 1.433 . S
C1011 N1013 1.384 . S
N1012 C1008 1.427 . S
N1012 C1009 1.384 . S
N1013 C1005 1.427 . S
N1013 C1011 1.384 . S
H1014 C1020 0.930 . S
H1015 C1024 0.930 . S
H1016 C1029 0.929 . S
H1017 C1027 0.929 1_655 S
H1018 C1022 0.929 . S
H1019 C1028 0.929 . S
C1020 H1014 0.930 . S
C1020 C1021 1.367 . S
C1020 C1028 1.378 . S
C1021 C1020 1.367 . S
C1021 C1029 1.433 . S
C1022 H1018 0.929 . S
C1022 C1024 1.378 . S
C1022 C1026 1.350 . S
C1023 C1026 1.463 . S
C1023 C1028 1.350 . S
C1023 N1031 1.427 . S
C1024 H1015 0.930 . S
C1024 C1022 1.378 . S
C1024 C1025 1.367 . S
C1025 C1024 1.367 . S
C1025 C1027 1.433 . S
C1026 C1022 1.350 . S
C1026 C1023 1.463 . S
C1026 N1030 1.427 . S
C1027 H1017 0.929 1_455 S
C1027 C1025 1.433 . S
C1027 N1030 1.384 . S
C1028 H1019 0.929 . S
C1028 C1020 1.378 . S
C1028 C1023 1.350 . S
C1029 H1016 0.929 . S
C1029 C1021 1.433 . S
C1029 N1031 1.384 . S
N1030 C1026 1.427 . S
N1030 C1027 1.384 . S
N1031 C1023 1.427 . S
N1031 C1029 1.384 . S
H1032 C1038 0.930 . S
H1033 C1042 0.930 . S
H1034 C1047 0.929 . S
H1035 C1045 0.929 . S
H1036 C1040 0.929 . S
H1037 C1046 0.929 . S
C1038 H1032 0.930 . S
C1038 C1039 1.367 . S
C1038 C1046 1.378 . S
C1039 C1038 1.367 . S
C1039 C1047 1.433 . S
C1040 H1036 0.929 . S
C1040 C1042 1.378 . S
C1040 C1044 1.350 . S
C1041 C1044 1.463 . S
C1041 C1046 1.350 . S
C1041 N1049 1.427 . S
C1042 H1033 0.930 . S
C1042 C1040 1.378 . S
C1042 C1043 1.367 . S
C1043 C1042 1.367 . S
C1043 C1045 1.433 . S
C1044 C1040 1.350 . S
C1044 C1041 1.463 . S
C1044 N1048 1.427 . S
C1045 H1035 0.929 . S
C1045 C1043 1.433 . S
C1045 N1048 1.384 . S
C1046 H1037 0.929 . S
C1046 C1038 1.378 . S
C1046 C1041 1.350 . S
C1047 H1034 0.929 . S
C1047 C1039 1.433 . S
C1047 N1049 1.384 . S
N1048 C1044 1.427 . S
N1048 C1045 1.384 . S
N1049 C1041 1.427 . S
N1049 C1047 1.384 . S
H1050 C1056 0.930 . S
H1051 C1060 0.930 . S
H1052 C1065 0.929 . S
H1053 C1063 0.929 . S
H1054 C1058 0.929 . S
H1055 C1064 0.929 . S
C1056 H1050 0.930 . S
C1056 C1057 1.367 . S
C1056 C1064 1.378 . S
C1057 C1056 1.367 . S
C1057 C1065 1.433 . S
C1058 H1054 0.929 . S
C1058 C1060 1.378 . S
C1058 C1062 1.350 . S
C1059 C1062 1.463 . S
C1059 C1064 1.350 . S
C1059 N1067 1.427 . S
C1060 H1051 0.930 . S
C1060 C1058 1.378 . S
C1060 C1061 1.367 . S
C1061 C1060 1.367 . S
C1061 C1063 1.433 . S
C1062 C1058 1.350 . S
C1062 C1059 1.463 . S
C1062 N1066 1.427 . S
C1063 H1053 0.929 . S
C1063 C1061 1.433 . S
C1063 N1066 1.384 . S
C1064 H1055 0.929 . S
C1064 C1056 1.378 . S
C1064 C1059 1.350 . S
C1065 H1052 0.929 . S
C1065 C1057 1.433 . S
C1065 N1067 1.384 . S
N1066 C1062 1.427 . S
N1066 C1063 1.384 . S
N1067 C1059 1.427 . S
N1067 C1065 1.384 . S
H1068 C1074 0.930 . S
H1069 C1078 0.930 . S
H1070 C1083 0.929 . S
H1071 C1081 0.929 . S
H1072 C1076 0.929 . S
H1073 C1082 0.929 . S
C1074 H1068 0.930 . S
C1074 C1075 1.367 . S
C1074 C1082 1.378 . S
C1075 C1074 1.367 . S
C1075 C1083 1.433 . S
C1076 H1072 0.929 . S
C1076 C1078 1.378 . S
C1076 C1080 1.350 . S
C1077 C1080 1.463 . S
C1077 C1082 1.350 . S
C1077 N1085 1.427 . S
C1078 H1069 0.930 . S
C1078 C1076 1.378 . S
C1078 C1079 1.367 . S
C1079 C1078 1.367 . S
C1079 C1081 1.433 . S
C1080 C1076 1.350 . S
C1080 C1077 1.463 . S
C1080 N1084 1.427 . S
C1081 H1071 0.929 . S
C1081 C1079 1.433 . S
C1081 N1084 1.384 . S
C1082 H1073 0.929 . S
C1082 C1074 1.378 . S
C1082 C1077 1.350 . S
C1083 H1070 0.929 . S
C1083 C1075 1.433 . S
C1083 N1085 1.384 . S
N1084 C1080 1.427 . S
N1084 C1081 1.384 . S
N1085 C1077 1.427 . S
N1085 C1083 1.384 . S
H1086 C1092 0.930 . S
H1087 C1096 0.930 . S
H1088 C1101 0.929 . S
H1089 C1099 0.929 . S
H1090 C1094 0.929 . S
H1091 C1100 0.929 . S
C1092 H1086 0.930 . S
C1092 C1093 1.367 . S
C1092 C1100 1.378 . S
C1093 C1092 1.367 . S
C1093 C1101 1.433 . S
C1094 H1090 0.929 . S
C1094 C1096 1.378 . S
C1094 C1098 1.350 . S
C1095 C1098 1.463 . S
C1095 C1100 1.350 . S
C1095 N1103 1.427 . S
C1096 H1087 0.930 . S
C1096 C1094 1.378 . S
C1096 C1097 1.367 . S
C1097 C1096 1.367 . S
C1097 C1099 1.433 . S
C1098 C1094 1.350 . S
C1098 C1095 1.463 . S
C1098 N1102 1.427 . S
C1099 H1089 0.929 . S
C1099 C1097 1.433 . S
C1099 N1102 1.384 . S
C1100 H1091 0.929 . S
C1100 C1092 1.378 . S
C1100 C1095 1.350 . S
C1101 H1088 0.929 . S
C1101 C1093 1.433 . S
C1101 N1103 1.384 . S
N1102 C1098 1.427 . S
N1102 C1099 1.384 . S
N1103 C1095 1.427 . S
N1103 C1101 1.384 . S
H1104 C1110 0.944 . S
H1105 C1114 0.930 . S
H1106 C1119 0.929 . S
H1107 C1117 0.929 . S
H1108 C1112 0.929 . S
H1109 C1118 0.929 . S
C1110 H1104 0.944 . S
C1110 C1111 1.349 1_554 S
C1110 C1118 1.382 . S
C1111 C1110 1.349 1_556 S
C1111 C1119 1.433 . S
C1112 H1108 0.929 . S
C1112 C1114 1.378 . S
C1112 C1116 1.350 . S
C1113 C1116 1.463 . S
C1113 C1118 1.350 1_556 S
C1113 N1121 1.427 . S
C1114 H1105 0.930 . S
C1114 C1112 1.378 . S
C1114 C1115 1.367 1_556 S
C1115 C1114 1.367 1_554 S
C1115 C1117 1.433 . S
C1116 C1112 1.350 . S
C1116 C1113 1.463 . S
C1116 N1120 1.427 1_556 S
C1117 H1107 0.929 . S
C1117 C1115 1.433 . S
C1117 N1120 1.384 . S
C1118 H1109 0.929 . S
C1118 C1110 1.382 . S
C1118 C1113 1.350 1_554 S
C1119 H1106 0.929 . S
C1119 C1111 1.433 . S
C1119 N1121 1.384 . S
N1120 C1116 1.427 1_554 S
N1120 C1117 1.384 . S
N1121 C1113 1.427 . S
N1121 C1119 1.384 . S
H1122 C1128 0.930 . S
H1123 C1132 0.930 . S
H1124 C1137 0.929 . S
H1125 C1135 0.929 . S
H1126 C1130 0.929 . S
H1127 C1136 0.929 . S
C1128 H1122 0.930 . S
C1128 C1129 1.367 . S
C1128 C1136 1.378 . S
C1129 C1128 1.367 . S
C1129 C1137 1.433 . S
C1130 H1126 0.929 . S
C1130 C1132 1.378 . S
C1130 C1134 1.350 . S
C1131 C1134 1.463 . S
C1131 C1136 1.350 . S
C1131 N1139 1.427 . S
C1132 H1123 0.930 . S
C1132 C1130 1.378 . S
C1132 C1133 1.367 . S
C1133 C1132 1.367 . S
C1133 C1135 1.433 . S
C1134 C1130 1.350 . S
C1134 C1131 1.463 . S
C1134 N1138 1.427 . S
C1135 H1125 0.929 . S
C1135 C1133 1.433 . S
C1135 N1138 1.384 . S
C1136 H1127 0.929 . S
C1136 C1128 1.378 . S
C1136 C1131 1.350 . S
C1137 H1124 0.929 . S
C1137 C1129 1.433 . S
C1137 N1139 1.384 . S
N1138 C1134 1.427 . S
N1138 C1135 1.384 . S
N1139 C1131 1.427 . S
N1139 C1137 1.384 . S
H1140 C1146 0.930 . S
H1141 C1150 0.930 . S
H1142 C1155 0.929 . S
H1143 C1153 0.929 . S
H1144 C1148 0.929 . S
H1145 C1154 0.929 . S
C1146 H1140 0.930 . S
C1146 C1147 1.367 . S
C1146 C1154 1.378 . S
C1147 C1146 1.367 . S
C1147 C1155 1.433 . S
C1148 H1144 0.929 . S
C1148 C1150 1.378 . S
C1148 C1152 1.350 . S
C1149 C1152 1.463 . S
C1149 C1154 1.350 . S
C1149 N1157 1.427 . S
C1150 H1141 0.930 . S
C1150 C1148 1.378 . S
C1150 C1151 1.367 . S
C1151 C1150 1.367 . S
C1151 C1153 1.433 . S
C1152 C1148 1.350 . S
C1152 C1149 1.463 . S
C1152 N1156 1.427 . S
C1153 H1143 0.929 . S
C1153 C1151 1.433 . S
C1153 N1156 1.384 . S
C1154 H1145 0.929 . S
C1154 C1146 1.378 . S
C1154 C1149 1.350 . S
C1155 H1142 0.929 . S
C1155 C1147 1.433 . S
C1155 N1157 1.384 . S
N1156 C1152 1.427 . S
N1156 C1153 1.384 . S
N1157 C1149 1.427 . S
N1157 C1155 1.384 . S
H1158 C1164 0.930 . S
H1159 C1168 0.930 . S
H1160 C1173 0.929 . S
H1161 C1171 0.929 . S
H1162 C1166 0.929 . S
H1163 C1172 0.929 . S
C1164 H1158 0.930 . S
C1164 C1165 1.367 . S
C1164 C1172 1.378 . S
C1165 C1164 1.367 . S
C1165 C1173 1.433 . S
C1166 H1162 0.929 . S
C1166 C1168 1.378 . S
C1166 C1170 1.350 . S
C1167 C1170 1.463 . S
C1167 C1172 1.350 . S
C1167 N1175 1.427 . S
C1168 H1159 0.930 . S
C1168 C1166 1.378 . S
C1168 C1169 1.367 . S
C1169 C1168 1.367 . S
C1169 C1171 1.433 . S
C1170 C1166 1.350 . S
C1170 C1167 1.463 . S
C1170 N1174 1.427 . S
C1171 H1161 0.929 . S
C1171 C1169 1.433 . S
C1171 N1174 1.384 . S
C1172 H1163 0.929 . S
C1172 C1164 1.378 . S
C1172 C1167 1.350 . S
C1173 H1160 0.929 . S
C1173 C1165 1.433 . S
C1173 N1175 1.384 . S
N1174 C1170 1.427 . S
N1174 C1171 1.384 . S
N1175 C1167 1.427 . S
N1175 C1173 1.384 . S
H1176 C1182 0.930 . S
H1177 C1186 0.930 . S
H1178 C1191 0.929 . S
H1179 C1189 0.929 . S
H1180 C1184 0.929 . S
H1181 C1190 0.929 . S
C1182 H1176 0.930 . S
C1182 C1183 1.367 . S
C1182 C1190 1.378 . S
C1183 C1182 1.367 . S
C1183 C1191 1.433 . S
C1184 H1180 0.929 . S
C1184 C1186 1.378 . S
C1184 C1188 1.350 . S
C1185 C1188 1.463 . S
C1185 C1190 1.350 . S
C1185 N1193 1.427 . S
C1186 H1177 0.930 . S
C1186 C1184 1.378 . S
C1186 C1187 1.367 . S
C1187 C1186 1.367 . S
C1187 C1189 1.433 . S
C1188 C1184 1.350 . S
C1188 C1185 1.463 . S
C1188 N1192 1.427 . S
C1189 H1179 0.929 . S
C1189 C1187 1.433 . S
C1189 N1192 1.384 . S
C1190 H1181 0.929 . S
C1190 C1182 1.378 . S
C1190 C1185 1.350 . S
C1191 H1178 0.929 . S
C1191 C1183 1.433 . S
C1191 N1193 1.384 . S
N1192 C1188 1.427 . S
N1192 C1189 1.384 . S
N1193 C1185 1.427 . S
N1193 C1191 1.384 . S
H1194 C1200 0.930 . S
H1195 C1204 0.930 . S
H1196 C1209 0.929 . S
H1197 C1207 0.929 . S
H1198 C1202 0.929 . S
H1199 C1208 0.929 . S
C1200 H1194 0.930 . S
C1200 C1201 1.367 . S
C1200 C1208 1.378 . S
C1201 C1200 1.367 . S
C1201 C1209 1.433 . S
C1202 H1198 0.929 . S
C1202 C1204 1.378 . S
C1202 C1206 1.350 . S
C1203 C1206 1.463 . S
C1203 C1208 1.350 . S
C1203 N1211 1.427 . S
C1204 H1195 0.930 . S
C1204 C1202 1.378 . S
C1204 C1205 1.367 . S
C1205 C1204 1.367 . S
C1205 C1207 1.433 . S
C1206 C1202 1.350 . S
C1206 C1203 1.463 . S
C1206 N1210 1.427 . S
C1207 H1197 0.929 . S
C1207 C1205 1.433 . S
C1207 N1210 1.384 . S
C1208 H1199 0.929 . S
C1208 C1200 1.378 . S
C1208 C1203 1.350 . S
C1209 H1196 0.929 . S
C1209 C1201 1.433 . S
C1209 N1211 1.384 . S
N1210 C1206 1.427 . S
N1210 C1207 1.384 . S
N1211 C1203 1.427 . S
N1211 C1209 1.384 . S
H1212 C1218 0.930 . S
H1213 C1222 0.930 . S
H1214 C1227 0.929 . S
H1215 C1225 0.929 . S
H1216 C1220 0.929 . S
H1217 C1226 0.929 . S
C1218 H1212 0.930 . S
C1218 C1219 1.367 . S
C1218 C1226 1.378 . S
C1219 C1218 1.367 . S
C1219 C1227 1.433 . S
C1220 H1216 0.929 . S
C1220 C1222 1.378 . S
C1220 C1224 1.350 . S
C1221 C1224 1.463 . S
C1221 C1226 1.350 . S
C1221 N1229 1.427 . S
C1222 H1213 0.930 . S
C1222 C1220 1.378 . S
C1222 C1223 1.367 . S
C1223 C1222 1.367 . S
C1223 C1225 1.433 . S
C1224 C1220 1.350 . S
C1224 C1221 1.463 . S
C1224 N1228 1.427 . S
C1225 H1215 0.929 . S
C1225 C1223 1.433 . S
C1225 N1228 1.384 . S
C1226 H1217 0.929 . S
C1226 C1218 1.378 . S
C1226 C1221 1.350 . S
C1227 H1214 0.929 . S
C1227 C1219 1.433 . S
C1227 N1229 1.384 . S
N1228 C1224 1.427 . S
N1228 C1225 1.384 . S
N1229 C1221 1.427 . S
N1229 C1227 1.384 . S
H1230 C1236 0.930 . S
H1231 C1240 0.930 . S
H1232 C1245 0.929 . S
H1233 C1243 0.929 . S
H1234 C1238 0.911 1_565 S
H1235 C1244 0.929 . S
C1236 H1230 0.930 . S
C1236 C1237 1.367 . S
C1236 C1244 1.378 . S
C1237 C1236 1.367 . S
C1237 C1245 1.433 . S
C1238 H1234 0.911 1_545 S
C1238 C1240 1.373 1_545 S
C1238 C1242 1.373 . S
C1239 C1242 1.463 . S
C1239 C1244 1.350 . S
C1239 N1247 1.427 . S
C1240 H1231 0.930 . S
C1240 C1238 1.373 1_565 S
C1240 C1241 1.367 1_565 S
C1241 C1240 1.367 1_545 S
C1241 C1243 1.433 . S
C1242 C1238 1.373 . S
C1242 C1239 1.463 . S
C1242 N1246 1.427 . S
C1243 H1233 0.929 . S
C1243 C1241 1.433 . S
C1243 N1246 1.384 . S
C1244 H1235 0.929 . S
C1244 C1236 1.378 . S
C1244 C1239 1.350 . S
C1245 H1232 0.929 . S
C1245 C1237 1.433 . S
C1245 N1247 1.384 . S
N1246 C1242 1.427 . S
N1246 C1243 1.384 . S
N1247 C1239 1.427 . S
N1247 C1245 1.384 . S
H1248 C1254 0.930 . S
H1249 C1258 0.930 . S
H1250 C1263 0.929 . S
H1251 C1261 0.929 . S
H1252 C1256 0.929 . S
H1253 C1262 0.929 . S
C1254 H1248 0.930 . S
C1254 C1255 1.367 . S
C1254 C1262 1.378 . S
C1255 C1254 1.367 . S
C1255 C1263 1.433 . S
C1256 H1252 0.929 . S
C1256 C1258 1.378 . S
C1256 C1260 1.350 . S
C1257 C1260 1.463 . S
C1257 C1262 1.350 . S
C1257 N1265 1.427 . S
C1258 H1249 0.930 . S
C1258 C1256 1.378 . S
C1258 C1259 1.367 . S
C1259 C1258 1.367 . S
C1259 C1261 1.433 . S
C1260 C1256 1.350 . S
C1260 C1257 1.463 . S
C1260 N1264 1.427 . S
C1261 H1251 0.929 . S
C1261 C1259 1.433 . S
C1261 N1264 1.384 . S
C1262 H1253 0.929 . S
C1262 C1254 1.378 . S
C1262 C1257 1.350 . S
C1263 H1250 0.929 . S
C1263 C1255 1.433 . S
C1263 N1265 1.384 . S
N1264 C1260 1.427 . S
N1264 C1261 1.384 . S
N1265 C1257 1.427 . S
N1265 C1263 1.384 . S
H1266 C1272 0.930 . S
H1267 C1276 0.930 . S
H1268 C1281 0.929 . S
H1269 C1279 0.929 . S
H1270 C1274 0.929 . S
H1271 C1280 0.929 . S
C1272 H1266 0.930 . S
C1272 C1273 1.367 . S
C1272 C1280 1.378 . S
C1273 C1272 1.367 . S
C1273 C1281 1.433 . S
C1274 H1270 0.929 . S
C1274 C1276 1.378 . S
C1274 C1278 1.350 . S
C1275 C1278 1.463 . S
C1275 C1280 1.350 . S
C1275 N1283 1.427 . S
C1276 H1267 0.930 . S
C1276 C1274 1.378 . S
C1276 C1277 1.367 . S
C1277 C1276 1.367 . S
C1277 C1279 1.433 . S
C1278 C1274 1.350 . S
C1278 C1275 1.463 . S
C1278 N1282 1.427 . S
C1279 H1269 0.929 . S
C1279 C1277 1.433 . S
C1279 N1282 1.384 . S
C1280 H1271 0.929 . S
C1280 C1272 1.378 . S
C1280 C1275 1.350 . S
C1281 H1268 0.929 . S
C1281 C1273 1.433 . S
C1281 N1283 1.384 . S
N1282 C1278 1.427 . S
N1282 C1279 1.384 . S
N1283 C1275 1.427 . S
N1283 C1281 1.384 . S
H1284 C1290 0.930 . S
H1285 C1294 0.930 . S
H1286 C1299 0.929 . S
H1287 C1297 0.929 . S
H1288 C1292 0.929 . S
H1289 C1298 0.929 . S
C1290 H1284 0.930 . S
C1290 C1291 1.367 . S
C1290 C1298 1.378 . S
C1291 C1290 1.367 . S
C1291 C1299 1.433 . S
C1292 H1288 0.929 . S
C1292 C1294 1.378 . S
C1292 C1296 1.350 . S
C1293 C1296 1.463 . S
C1293 C1298 1.350 . S
C1293 N1301 1.427 . S
C1294 H1285 0.930 . S
C1294 C1292 1.378 . S
C1294 C1295 1.367 . S
C1295 C1294 1.367 . S
C1295 C1297 1.433 . S
C1296 C1292 1.350 . S
C1296 C1293 1.463 . S
C1296 N1300 1.427 . S
C1297 H1287 0.929 . S
C1297 C1295 1.433 . S
C1297 N1300 1.384 . S
C1298 H1289 0.929 . S
C1298 C1290 1.378 . S
C1298 C1293 1.350 . S
C1299 H1286 0.929 . S
C1299 C1291 1.433 . S
C1299 N1301 1.384 . S
N1300 C1296 1.427 . S
N1300 C1297 1.384 . S
N1301 C1293 1.427 . S
N1301 C1299 1.384 . S
H1302 C1308 0.930 . S
H1303 C1312 0.930 1_565 S
H1304 C1317 0.929 . S
H1305 C1315 0.929 . S
H1306 C1310 0.929 . S
H1307 C1316 0.929 . S
C1308 H1302 0.930 . S
C1308 C1309 1.367 . S
C1308 C1316 1.378 . S
C1309 C1308 1.367 . S
C1309 C1317 1.433 . S
C1310 H1306 0.929 . S
C1310 C1312 1.378 . S
C1310 C1314 1.350 . S
C1311 C1314 1.463 . S
C1311 C1316 1.350 . S
C1311 N1319 1.427 . S
C1312 H1303 0.930 1_545 S
C1312 C1310 1.378 . S
C1312 C1313 1.367 . S
C1313 C1312 1.367 . S
C1313 C1315 1.433 . S
C1314 C1310 1.350 . S
C1314 C1311 1.463 . S
C1314 N1318 1.427 . S
C1315 H1305 0.929 . S
C1315 C1313 1.433 . S
C1315 N1318 1.384 . S
C1316 H1307 0.929 . S
C1316 C1308 1.378 . S
C1316 C1311 1.350 . S
C1317 H1304 0.929 . S
C1317 C1309 1.433 . S
C1317 N1319 1.384 . S
N1318 C1314 1.427 . S
N1318 C1315 1.384 . S
N1319 C1311 1.427 . S
N1319 C1317 1.384 . S
H1320 C1326 0.930 . S
H1321 C1330 0.930 . S
H1322 C1335 0.929 . S
H1323 C1333 0.929 . S
H1324 C1328 0.929 . S
H1325 C1334 0.929 . S
C1326 H1320 0.930 . S
C1326 C1327 1.367 . S
C1326 C1334 1.378 . S
C1327 C1326 1.367 . S
C1327 C1335 1.433 . S
C1328 H1324 0.929 . S
C1328 C1330 1.378 . S
C1328 C1332 1.350 . S
C1329 C1332 1.463 . S
C1329 C1334 1.350 . S
C1329 N1337 1.427 . S
C1330 H1321 0.930 . S
C1330 C1328 1.378 . S
C1330 C1331 1.367 . S
C1331 C1330 1.367 . S
C1331 C1333 1.433 . S
C1332 C1328 1.350 . S
C1332 C1329 1.463 . S
C1332 N1336 1.427 . S
C1333 H1323 0.929 . S
C1333 C1331 1.433 . S
C1333 N1336 1.384 . S
C1334 H1325 0.929 . S
C1334 C1326 1.378 . S
C1334 C1329 1.350 . S
C1335 H1322 0.929 . S
C1335 C1327 1.433 . S
C1335 N1337 1.384 . S
N1336 C1332 1.427 . S
N1336 C1333 1.384 . S
N1337 C1329 1.427 . S
N1337 C1335 1.384 . S
H1338 C1344 0.930 . S
H1339 C1348 0.930 . S
H1340 C1353 0.929 . S
H1341 C1351 0.929 . S
H1342 C1346 0.929 . S
H1343 C1352 0.929 . S
C1344 H1338 0.930 . S
C1344 C1345 1.367 . S
C1344 C1352 1.378 . S
C1345 C1344 1.367 . S
C1345 C1353 1.433 . S
C1346 H1342 0.929 . S
C1346 C1348 1.378 . S
C1346 C1350 1.350 . S
C1347 C1350 1.463 . S
C1347 C1352 1.350 . S
C1347 N1355 1.427 . S
C1348 H1339 0.930 . S
C1348 C1346 1.378 . S
C1348 C1349 1.367 . S
C1349 C1348 1.367 . S
C1349 C1351 1.433 . S
C1350 C1346 1.350 . S
C1350 C1347 1.463 . S
C1350 N1354 1.427 . S
C1351 H1341 0.929 . S
C1351 C1349 1.433 . S
C1351 N1354 1.384 . S
C1352 H1343 0.929 . S
C1352 C1344 1.378 . S
C1352 C1347 1.350 . S
C1353 H1340 0.929 . S
C1353 C1345 1.433 . S
C1353 N1355 1.384 . S
N1354 C1350 1.427 . S
N1354 C1351 1.384 . S
N1355 C1347 1.427 . S
N1355 C1353 1.384 . S
H1356 C1362 0.930 . S
H1357 C1366 0.930 . S
H1358 C1371 0.929 . S
H1359 C1369 0.929 . S
H1360 C1364 0.929 . S
H1361 C1370 0.929 . S
C1362 H1356 0.930 . S
C1362 C1363 1.367 . S
C1362 C1370 1.378 . S
C1363 C1362 1.367 . S
C1363 C1371 1.433 . S
C1364 H1360 0.929 . S
C1364 C1366 1.378 . S
C1364 C1368 1.350 . S
C1365 C1368 1.463 . S
C1365 C1370 1.350 . S
C1365 N1373 1.427 . S
C1366 H1357 0.930 . S
C1366 C1364 1.378 . S
C1366 C1367 1.367 . S
C1367 C1366 1.367 . S
C1367 C1369 1.433 . S
C1368 C1364 1.350 . S
C1368 C1365 1.463 . S
C1368 N1372 1.427 . S
C1369 H1359 0.929 . S
C1369 C1367 1.433 . S
C1369 N1372 1.384 . S
C1370 H1361 0.929 . S
C1370 C1362 1.378 . S
C1370 C1365 1.350 . S
C1371 H1358 0.929 . S
C1371 C1363 1.433 . S
C1371 N1373 1.384 . S
N1372 C1368 1.427 . S
N1372 C1369 1.384 . S
N1373 C1365 1.427 . S
N1373 C1371 1.384 . S
H1374 C1380 0.930 . S
H1375 C1384 0.930 . S
H1376 C1389 0.929 . S
H1377 C1387 0.929 . S
H1378 C1382 0.929 . S
H1379 C1388 0.929 . S
C1380 H1374 0.930 . S
C1380 C1381 1.367 . S
C1380 C1388 1.378 . S
C1381 C1380 1.367 . S
C1381 C1389 1.433 . S
C1382 H1378 0.929 . S
C1382 C1384 1.378 . S
C1382 C1386 1.350 . S
C1383 C1386 1.463 . S
C1383 C1388 1.350 . S
C1383 N1391 1.427 . S
C1384 H1375 0.930 . S
C1384 C1382 1.378 . S
C1384 C1385 1.367 . S
C1385 C1384 1.367 . S
C1385 C1387 1.433 . S
C1386 C1382 1.350 . S
C1386 C1383 1.463 . S
C1386 N1390 1.427 . S
C1387 H1377 0.929 . S
C1387 C1385 1.433 . S
C1387 N1390 1.384 . S
C1388 H1379 0.929 . S
C1388 C1380 1.378 . S
C1388 C1383 1.350 . S
C1389 H1376 0.929 . S
C1389 C1381 1.433 . S
C1389 N1391 1.384 . S
N1390 C1386 1.427 . S
N1390 C1387 1.384 . S
N1391 C1383 1.427 . S
N1391 C1389 1.384 . S
H1392 C1398 0.930 . S
H1393 C1402 0.930 . S
H1394 C1407 0.929 . S
H1395 C1405 0.929 . S
H1396 C1400 0.929 . S
H1397 C1406 0.929 . S
C1398 H1392 0.930 . S
C1398 C1399 1.367 . S
C1398 C1406 1.378 . S
C1399 C1398 1.367 . S
C1399 C1407 1.433 . S
C1400 H1396 0.929 . S
C1400 C1402 1.378 . S
C1400 C1404 1.350 . S
C1401 C1404 1.463 . S
C1401 C1406 1.350 . S
C1401 N1409 1.427 . S
C1402 H1393 0.930 . S
C1402 C1400 1.378 . S
C1402 C1403 1.367 . S
C1403 C1402 1.367 . S
C1403 C1405 1.433 . S
C1404 C1400 1.350 . S
C1404 C1401 1.463 . S
C1404 N1408 1.427 . S
C1405 H1395 0.929 . S
C1405 C1403 1.433 . S
C1405 N1408 1.384 . S
C1406 H1397 0.929 . S
C1406 C1398 1.378 . S
C1406 C1401 1.350 . S
C1407 H1394 0.929 . S
C1407 C1399 1.433 . S
C1407 N1409 1.384 . S
N1408 C1404 1.427 . S
N1408 C1405 1.384 . S
N1409 C1401 1.427 . S
N1409 C1407 1.384 . S
H1410 C1416 0.930 . S
H1411 C1420 0.930 . S
H1412 C1425 0.929 1_655 S
H1413 C1423 0.929 . S
H1414 C1418 0.929 . S
H1415 C1424 0.929 . S
C1416 H1410 0.930 . S
C1416 C1417 1.367 . S
C1416 C1424 1.378 . S
C1417 C1416 1.367 . S
C1417 C1425 1.433 . S
C1418 H1414 0.929 . S
C1418 C1420 1.378 . S
C1418 C1422 1.350 1_655 S
C1419 C1422 1.463 . S
C1419 C1424 1.350 . S
C1419 N1427 1.427 . S
C1420 H1411 0.930 . S
C1420 C1418 1.378 . S
C1420 C1421 1.367 1_655 S
C1421 C1420 1.367 1_455 S
C1421 C1423 1.433 . S
C1422 C1418 1.350 1_455 S
C1422 C1419 1.463 . S
C1422 N1426 1.427 . S
C1423 H1413 0.929 . S
C1423 C1421 1.433 . S
C1423 N1426 1.384 . S
C1424 H1415 0.929 . S
C1424 C1416 1.378 . S
C1424 C1419 1.350 . S
C1425 H1412 0.929 1_455 S
C1425 C1417 1.433 . S
C1425 N1427 1.384 . S
N1426 C1422 1.427 . S
N1426 C1423 1.384 . S
N1427 C1419 1.427 . S
N1427 C1425 1.384 . S
H1428 C1434 0.930 . S
H1429 C1438 0.930 . S
H1430 C1443 0.929 . S
H1431 C1441 0.929 . S
H1432 C1436 0.929 . S
H1433 C1442 0.929 . S
C1434 H1428 0.930 . S
C1434 C1435 1.367 . S
C1434 C1442 1.378 . S
C1435 C1434 1.367 . S
C1435 C1443 1.433 . S
C1436 H1432 0.929 . S
C1436 C1438 1.378 . S
C1436 C1440 1.350 . S
C1437 C1440 1.463 . S
C1437 C1442 1.350 . S
C1437 N1445 1.427 . S
C1438 H1429 0.930 . S
C1438 C1436 1.378 . S
C1438 C1439 1.367 . S
C1439 C1438 1.367 . S
C1439 C1441 1.433 . S
C1440 C1436 1.350 . S
C1440 C1437 1.463 . S
C1440 N1444 1.427 . S
C1441 H1431 0.929 . S
C1441 C1439 1.433 . S
C1441 N1444 1.384 . S
C1442 H1433 0.929 . S
C1442 C1434 1.378 . S
C1442 C1437 1.350 . S
C1443 H1430 0.929 . S
C1443 C1435 1.433 . S
C1443 N1445 1.384 . S
N1444 C1440 1.427 . S
N1444 C1441 1.384 . S
N1445 C1437 1.427 . S
N1445 C1443 1.384 . S
H1446 C1452 0.930 . S
H1447 C1456 0.930 . S
H1448 C1461 0.929 . S
H1449 C1459 0.929 . S
H1450 C1454 0.929 . S
H1451 C1460 0.929 . S
C1452 H1446 0.930 . S
C1452 C1453 1.367 . S
C1452 C1460 1.378 . S
C1453 C1452 1.367 . S
C1453 C1461 1.433 . S
C1454 H1450 0.929 . S
C1454 C1456 1.378 . S
C1454 C1458 1.350 . S
C1455 C1458 1.463 . S
C1455 C1460 1.350 . S
C1455 N1463 1.427 . S
C1456 H1447 0.930 . S
C1456 C1454 1.378 . S
C1456 C1457 1.367 . S
C1457 C1456 1.367 . S
C1457 C1459 1.433 . S
C1458 C1454 1.350 . S
C1458 C1455 1.463 . S
C1458 N1462 1.427 . S
C1459 H1449 0.929 . S
C1459 C1457 1.433 . S
C1459 N1462 1.384 . S
C1460 H1451 0.929 . S
C1460 C1452 1.378 . S
C1460 C1455 1.350 . S
C1461 H1448 0.929 . S
C1461 C1453 1.433 . S
C1461 N1463 1.384 . S
N1462 C1458 1.427 . S
N1462 C1459 1.384 . S
N1463 C1455 1.427 . S
N1463 C1461 1.384 . S
H1464 C1470 0.930 . S
H1465 C1474 0.930 . S
H1466 C1479 0.929 . S
H1467 C1477 0.929 . S
H1468 C1472 0.929 . S
H1469 C1478 0.929 . S
C1470 H1464 0.930 . S
C1470 C1471 1.367 . S
C1470 C1478 1.378 . S
C1471 C1470 1.367 . S
C1471 C1479 1.433 . S
C1472 H1468 0.929 . S
C1472 C1474 1.378 . S
C1472 C1476 1.350 . S
C1473 C1476 1.463 . S
C1473 C1478 1.350 . S
C1473 N1481 1.427 . S
C1474 H1465 0.930 . S
C1474 C1472 1.378 . S
C1474 C1475 1.367 . S
C1475 C1474 1.367 . S
C1475 C1477 1.433 . S
C1476 C1472 1.350 . S
C1476 C1473 1.463 . S
C1476 N1480 1.427 . S
C1477 H1467 0.929 . S
C1477 C1475 1.433 . S
C1477 N1480 1.384 . S
C1478 H1469 0.929 . S
C1478 C1470 1.378 . S
C1478 C1473 1.350 . S
C1479 H1466 0.929 . S
C1479 C1471 1.433 . S
C1479 N1481 1.384 . S
N1480 C1476 1.427 . S
N1480 C1477 1.384 . S
N1481 C1473 1.427 . S
N1481 C1479 1.384 . S
H1482 C1488 0.930 . S
H1483 C1492 0.930 . S
H1484 C1497 0.929 . S
H1485 C1495 0.929 . S
H1486 C1490 0.929 . S
H1487 C1496 0.929 . S
C1488 H1482 0.930 . S
C1488 C1489 1.367 . S
C1488 C1496 1.378 . S
C1489 C1488 1.367 . S
C1489 C1497 1.433 . S
C1490 H1486 0.929 . S
C1490 C1492 1.378 . S
C1490 C1494 1.350 . S
C1491 C1494 1.463 . S
C1491 C1496 1.350 . S
C1491 N1499 1.427 . S
C1492 H1483 0.930 . S
C1492 C1490 1.378 . S
C1492 C1493 1.367 . S
C1493 C1492 1.367 . S
C1493 C1495 1.433 . S
C1494 C1490 1.350 . S
C1494 C1491 1.463 . S
C1494 N1498 1.427 . S
C1495 H1485 0.929 . S
C1495 C1493 1.433 . S
C1495 N1498 1.384 . S
C1496 H1487 0.929 . S
C1496 C1488 1.378 . S
C1496 C1491 1.350 . S
C1497 H1484 0.929 . S
C1497 C1489 1.433 . S
C1497 N1499 1.384 . S
N1498 C1494 1.427 . S
N1498 C1495 1.384 . S
N1499 C1491 1.427 . S
N1499 C1497 1.384 . S
H1500 C1506 0.930 . S
H1501 C1510 0.930 . S
H1502 C1515 0.929 . S
H1503 C1513 0.929 . S
H1504 C1508 0.929 . S
H1505 C1514 0.929 . S
C1506 H1500 0.930 . S
C1506 C1507 1.367 . S
C1506 C1514 1.378 . S
C1507 C1506 1.367 . S
C1507 C1515 1.433 . S
C1508 H1504 0.929 . S
C1508 C1510 1.378 . S
C1508 C1512 1.350 . S
C1509 C1512 1.463 . S
C1509 C1514 1.350 . S
C1509 N1517 1.427 . S
C1510 H1501 0.930 . S
C1510 C1508 1.378 . S
C1510 C1511 1.367 . S
C1511 C1510 1.367 . S
C1511 C1513 1.433 . S
C1512 C1508 1.350 . S
C1512 C1509 1.463 . S
C1512 N1516 1.427 . S
C1513 H1503 0.929 . S
C1513 C1511 1.433 . S
C1513 N1516 1.384 . S
C1514 H1505 0.929 . S
C1514 C1506 1.378 . S
C1514 C1509 1.350 . S
C1515 H1502 0.929 . S
C1515 C1507 1.433 . S
C1515 N1517 1.384 . S
N1516 C1512 1.427 . S
N1516 C1513 1.384 . S
N1517 C1509 1.427 . S
N1517 C1515 1.384 . S
H1518 C1524 0.930 . S
H1519 C1528 0.930 . S
H1520 C1533 0.929 . S
H1521 C1531 0.929 . S
H1522 C1526 0.929 . S
H1523 C1532 0.929 . S
C1524 H1518 0.930 . S
C1524 C1525 1.367 . S
C1524 C1532 1.378 . S
C1525 C1524 1.367 . S
C1525 C1533 1.433 . S
C1526 H1522 0.929 . S
C1526 C1528 1.378 . S
C1526 C1530 1.350 . S
C1527 C1530 1.463 . S
C1527 C1532 1.350 . S
C1527 N1535 1.427 . S
C1528 H1519 0.930 . S
C1528 C1526 1.378 . S
C1528 C1529 1.367 . S
C1529 C1528 1.367 . S
C1529 C1531 1.433 . S
C1530 C1526 1.350 . S
C1530 C1527 1.463 . S
C1530 N1534 1.427 . S
C1531 H1521 0.929 . S
C1531 C1529 1.433 . S
C1531 N1534 1.384 . S
C1532 H1523 0.929 . S
C1532 C1524 1.378 . S
C1532 C1527 1.350 . S
C1533 H1520 0.929 . S
C1533 C1525 1.433 . S
C1533 N1535 1.384 . S
N1534 C1530 1.427 . S
N1534 C1531 1.384 . S
N1535 C1527 1.427 . S
N1535 C1533 1.384 . S
H1536 C1542 0.930 . S
H1537 C1546 0.930 . S
H1538 C1551 0.929 . S
H1539 C1549 0.929 . S
H1540 C1544 0.929 . S
H1541 C1550 0.929 . S
C1542 H1536 0.930 . S
C1542 C1543 1.367 . S
C1542 C1550 1.378 . S
C1543 C1542 1.367 . S
C1543 C1551 1.433 . S
C1544 H1540 0.929 . S
C1544 C1546 1.378 . S
C1544 C1548 1.350 . S
C1545 C1548 1.463 . S
C1545 C1550 1.350 . S
C1545 N1553 1.427 . S
C1546 H1537 0.930 . S
C1546 C1544 1.378 . S
C1546 C1547 1.367 . S
C1547 C1546 1.367 . S
C1547 C1549 1.433 . S
C1548 C1544 1.350 . S
C1548 C1545 1.463 . S
C1548 N1552 1.427 . S
C1549 H1539 0.929 . S
C1549 C1547 1.433 . S
C1549 N1552 1.384 . S
C1550 H1541 0.929 . S
C1550 C1542 1.378 . S
C1550 C1545 1.350 . S
C1551 H1538 0.929 . S
C1551 C1543 1.433 . S
C1551 N1553 1.384 . S
N1552 C1548 1.427 . S
N1552 C1549 1.384 . S
N1553 C1545 1.427 . S
N1553 C1551 1.384 . S
H1554 C1560 0.930 . S
H1555 C1564 0.930 . S
H1556 C1569 0.929 . S
H1557 C1567 0.929 . S
H1558 C1562 0.929 . S
H1559 C1568 0.929 . S
C1560 H1554 0.930 . S
C1560 C1561 1.367 . S
C1560 C1568 1.378 . S
C1561 C1560 1.367 . S
C1561 C1569 1.433 . S
C1562 H1558 0.929 . S
C1562 C1564 1.378 . S
C1562 C1566 1.350 . S
C1563 C1566 1.463 . S
C1563 C1568 1.350 . S
C1563 N1571 1.427 . S
C1564 H1555 0.930 . S
C1564 C1562 1.378 . S
C1564 C1565 1.367 . S
C1565 C1564 1.367 . S
C1565 C1567 1.433 . S
C1566 C1562 1.350 . S
C1566 C1563 1.463 . S
C1566 N1570 1.427 . S
C1567 H1557 0.929 . S
C1567 C1565 1.433 . S
C1567 N1570 1.384 . S
C1568 H1559 0.929 . S
C1568 C1560 1.378 . S
C1568 C1563 1.350 . S
C1569 H1556 0.929 . S
C1569 C1561 1.433 . S
C1569 N1571 1.384 . S
N1570 C1566 1.427 . S
N1570 C1567 1.384 . S
N1571 C1563 1.427 . S
N1571 C1569 1.384 . S
H1572 C1578 0.930 . S
H1573 C1582 0.930 . S
H1574 C1587 0.911 1_554 S
H1575 C1585 0.929 . S
H1576 C1580 0.929 . S
H1577 C1586 0.929 . S
C1578 H1572 0.930 . S
C1578 C1579 1.367 . S
C1578 C1586 1.378 . S
C1579 C1578 1.367 . S
C1579 C1587 1.433 . S
C1580 H1576 0.929 . S
C1580 C1582 1.378 . S
C1580 C1584 1.350 1_554 S
C1581 C1584 1.463 . S
C1581 C1586 1.350 . S
C1581 N1589 1.427 . S
C1582 H1573 0.930 . S
C1582 C1580 1.378 . S
C1582 C1583 1.367 1_554 S
C1583 C1582 1.367 1_556 S
C1583 C1585 1.433 . S
C1584 C1580 1.350 1_556 S
C1584 C1581 1.463 . S
C1584 N1588 1.427 . S
C1585 H1575 0.929 . S
C1585 C1583 1.433 . S
C1585 N1588 1.384 . S
C1586 H1577 0.929 . S
C1586 C1578 1.378 . S
C1586 C1581 1.350 . S
C1587 H1574 0.911 1_556 S
C1587 C1579 1.433 . S
C1587 N1589 1.384 . S
N1588 C1584 1.427 . S
N1588 C1585 1.384 . S
N1589 C1581 1.427 . S
N1589 C1587 1.384 . S
H1590 C1596 0.930 . S
H1591 C1600 0.930 . S
H1592 C1605 0.929 . S
H1593 C1603 0.929 . S
H1594 C1598 0.929 . S
H1595 C1604 0.929 . S
C1596 H1590 0.930 . S
C1596 C1597 1.367 . S
C1596 C1604 1.378 . S
C1597 C1596 1.367 . S
C1597 C1605 1.433 . S
C1598 H1594 0.929 . S
C1598 C1600 1.378 . S
C1598 C1602 1.350 . S
C1599 C1602 1.463 . S
C1599 C1604 1.350 . S
C1599 N1607 1.427 . S
C1600 H1591 0.930 . S
C1600 C1598 1.378 . S
C1600 C1601 1.367 . S
C1601 C1600 1.367 . S
C1601 C1603 1.433 . S
C1602 C1598 1.350 . S
C1602 C1599 1.463 . S
C1602 N1606 1.427 . S
C1603 H1593 0.929 . S
C1603 C1601 1.433 . S
C1603 N1606 1.384 . S
C1604 H1595 0.929 . S
C1604 C1596 1.378 . S
C1604 C1599 1.350 . S
C1605 H1592 0.929 . S
C1605 C1597 1.433 . S
C1605 N1607 1.384 . S
N1606 C1602 1.427 . S
N1606 C1603 1.384 . S
N1607 C1599 1.427 . S
N1607 C1605 1.384 . S
H1608 C1614 0.930 . S
H1609 C1618 0.930 . S
H1610 C1623 0.952 . S
H1611 C1621 0.929 . S
H1612 C1616 0.918 1_556 S
H1613 C1622 0.929 . S
C1614 H1608 0.930 . S
C1614 C1615 1.367 . S
C1614 C1622 1.378 . S
C1615 C1614 1.367 . S
C1615 C1623 1.433 . S
C1616 H1612 0.918 1_554 S
C1616 C1618 1.375 1_554 S
C1616 C1620 1.364 . S
C1617 C1620 1.463 . S
C1617 C1622 1.350 . S
C1617 N1625 1.427 . S
C1618 H1609 0.930 . S
C1618 C1616 1.375 1_556 S
C1618 C1619 1.367 1_556 S
C1619 C1618 1.367 1_554 S
C1619 C1621 1.433 . S
C1620 C1616 1.364 . S
C1620 C1617 1.463 . S
C1620 N1624 1.427 . S
C1621 H1611 0.929 . S
C1621 C1619 1.433 . S
C1621 N1624 1.384 . S
C1622 H1613 0.929 . S
C1622 C1614 1.378 . S
C1622 C1617 1.350 . S
C1623 H1610 0.952 . S
C1623 C1615 1.433 . S
C1623 N1625 1.384 . S
N1624 C1620 1.427 . S
N1624 C1621 1.384 . S
N1625 C1617 1.427 . S
N1625 C1623 1.384 . S
H1626 C1632 0.930 . S
H1627 C1636 0.930 1_556 S
H1628 C1641 0.929 1_556 S
H1629 C1639 0.929 . S
H1630 C1634 0.929 1_556 S
H1631 C1640 0.929 . S
C1632 H1626 0.930 . S
C1632 C1633 1.367 . S
C1632 C1640 1.378 . S
C1633 C1632 1.367 . S
C1633 C1641 1.433 . S
C1634 H1630 0.929 1_554 S
C1634 C1636 1.378 . S
C1634 C1638 1.350 . S
C1635 C1638 1.463 . S
C1635 C1640 1.350 . S
C1635 N1643 1.427 . S
C1636 H1627 0.930 1_554 S
C1636 C1634 1.378 . S
C1636 C1637 1.367 . S
C1637 C1636 1.367 . S
C1637 C1639 1.433 . S
C1638 C1634 1.350 . S
C1638 C1635 1.463 . S
C1638 N1642 1.427 . S
C1639 H1629 0.929 . S
C1639 C1637 1.433 . S
C1639 N1642 1.384 . S
C1640 H1631 0.929 . S
C1640 C1632 1.378 . S
C1640 C1635 1.350 . S
C1641 H1628 0.929 1_554 S
C1641 C1633 1.433 . S
C1641 N1643 1.384 . S
N1642 C1638 1.427 . S
N1642 C1639 1.384 . S
N1643 C1635 1.427 . S
N1643 C1641 1.384 . S
C791 C634 1.409 . S
C787 C211 1.417 . S
C809 C647 1.593 . S
C805 C255 1.608 . S
C823 C274 1.456 . S
C827 C660 1.443 . S
C845 C673 1.523 . S
C841 C157 1.539 . S
C863 C681 1.475 . S
C859 C391 1.502 . S
C881 C694 1.414 . S
C877 C484 1.433 . S
C895 C450 1.518 . S
C899 C707 1.494 . S
C917 C720 1.503 . S
C913 C352 1.519 . S
C931 C430 1.436 . S
C935 C738 1.426 . S
C953 C749 1.517 . S
C949 C367 1.552 . S
C967 C411 1.477 . S
C971 C733 1.452 . S
C989 C741 1.452 . S
C985 C469 1.485 . S
C1003 C294 1.495 . S
C1007 C764 1.487 . S
C1021 C177 1.520 . S
C1025 C754 1.495 . S
C1039 C196 1.510 . S
C1043 C759 1.477 . S
C1057 C235 1.570 . S
C1061 C762 1.538 1_655 S
C1075 C133 1.453 . S
C1079 C671 1.431 . S
C1093 C567 1.421 . S
C1097 C663 1.402 . S
C1115 C632 1.543 . S
C1111 C601 1.572 . S
C1133 C637 1.497 . S
C1129 C328 1.516 . S
C1147 C172 1.543 . S
C1151 C684 1.514 . S
C1169 C723 1.502 . S
C1165 C445 1.533 . S
C1187 C676 1.498 . S
C1183 C372 1.528 . S
C1205 C702 1.437 . S
C1201 C489 1.471 . S
C1223 C712 1.407 . S
C1219 C562 1.417 . S
C1237 C606 1.607 . S
C1241 C725 1.598 . S
C1255 C313 1.455 . S
C1259 C686 1.442 . S
C1277 C699 1.522 . S
C1273 C508 1.539 . S
C1291 C118 1.502 . S
C1295 C655 1.478 . S
C1313 C668 1.409 . S
C1309 C16 1.433 . S
C1331 C629 1.490 . S
C1327 C60 1.518 . S
C1349 C642 1.502 . S
C1345 C79 1.519 . S
C1363 C40 1.436 . S
C1367 C751 1.421 . S
C1381 C94 1.552 . S
C1385 C736 1.509 1_655 S
C1399 C138 1.476 . S
C1403 C746 1.448 . S
C1417 C1 1.485 . S
C1421 C728 1.453 . S
C1439 C777 1.482 . S
C1435 C333 1.494 . S
C1457 C767 1.494 . S
C1453 C528 1.520 . S
C1475 C772 1.485 . S
C1471 C547 1.510 . S
C1489 C586 1.570 . S
C1493 C775 1.541 . S
C1507 C406 1.453 . S
C1511 C697 1.432 . S
C1529 C689 1.406 . S
C1525 C216 1.420 . S
C1547 C710 1.548 . S
C1543 C250 1.573 . S
C1565 C715 1.492 . S
C1561 C289 1.520 . S
C1579 C523 1.541 . S
C1583 C658 1.507 . S
C1601 C645 1.507 . S
C1597 C55 1.536 . S
C1615 C99 1.528 . S
C1619 C650 1.499 . S
C1637 C624 1.434 . S
C1633 C21 1.470 . S
