# Generated by pormake.
# Topology zzz, (3,6)-cn, num edge types: 1
# Building blocks:
#     Node 0, Type 0, BuildingBlock: PAMTOO_clean_linker_0, # of connection points: 3
#     Node 1, Type 0, BuildingBlock: PAMTOO_clean_linker_0, # of connection points: 3
#     Node 2, Type 0, BuildingBlock: PAMTOO_clean_linker_0, # of connection points: 3
#     Node 3, Type 0, BuildingBlock: PAMTOO_clean_linker_0, # of connection points: 3
#     Node 4, Type 0, BuildingBlock: PAMTOO_clean_linker_0, # of connection points: 3
#     Node 5, Type 0, BuildingBlock: PAMTOO_clean_linker_0, # of connection points: 3
#     Node 6, Type 0, BuildingBlock: PAMTOO_clean_linker_0, # of connection points: 3
#     Node 7, Type 0, BuildingBlock: PAMTOO_clean_linker_0, # of connection points: 3
#     Node 8, Type 1, BuildingBlock: JUFBIX_clean_sbu_0, # of connection points: 6
#     Node 9, Type 1, BuildingBlock: JUFBIX_clean_sbu_0, # of connection points: 6
#     Node 10, Type 1, BuildingBlock: JUFBIX_clean_sbu_0, # of connection points: 6
#     Node 11, Type 1, BuildingBlock: JUFBIX_clean_sbu_0, # of connection points: 6
#     Edge 12, Type (0, 1), BuildingBlock: MIFKUJ_clean_linker_0, # of connection points: 2
#     Edge 13, Type (0, 1), BuildingBlock: MIFKUJ_clean_linker_0, # of connection points: 2
#     Edge 14, Type (0, 1), BuildingBlock: MIFKUJ_clean_linker_0, # of connection points: 2
#     Edge 15, Type (0, 1), BuildingBlock: MIFKUJ_clean_linker_0, # of connection points: 2
#     Edge 16, Type (0, 1), BuildingBlock: MIFKUJ_clean_linker_0, # of connection points: 2
#     Edge 17, Type (0, 1), BuildingBlock: MIFKUJ_clean_linker_0, # of connection points: 2
#     Edge 18, Type (0, 1), BuildingBlock: MIFKUJ_clean_linker_0, # of connection points: 2
#     Edge 19, Type (0, 1), BuildingBlock: MIFKUJ_clean_linker_0, # of connection points: 2
#     Edge 20, Type (0, 1), BuildingBlock: MIFKUJ_clean_linker_0, # of connection points: 2
#     Edge 21, Type (0, 1), BuildingBlock: MIFKUJ_clean_linker_0, # of connection points: 2
#     Edge 22, Type (0, 1), BuildingBlock: MIFKUJ_clean_linker_0, # of connection points: 2
#     Edge 23, Type (0, 1), BuildingBlock: MIFKUJ_clean_linker_0, # of connection points: 2
#     Edge 24, Type (0, 1), BuildingBlock: MIFKUJ_clean_linker_0, # of connection points: 2
#     Edge 25, Type (0, 1), BuildingBlock: MIFKUJ_clean_linker_0, # of connection points: 2
#     Edge 26, Type (0, 1), BuildingBlock: MIFKUJ_clean_linker_0, # of connection points: 2
#     Edge 27, Type (0, 1), BuildingBlock: MIFKUJ_clean_linker_0, # of connection points: 2
#     Edge 28, Type (0, 1), BuildingBlock: MIFKUJ_clean_linker_0, # of connection points: 2
#     Edge 29, Type (0, 1), BuildingBlock: MIFKUJ_clean_linker_0, # of connection points: 2
#     Edge 30, Type (0, 1), BuildingBlock: MIFKUJ_clean_linker_0, # of connection points: 2
#     Edge 31, Type (0, 1), BuildingBlock: MIFKUJ_clean_linker_0, # of connection points: 2
#     Edge 32, Type (0, 1), BuildingBlock: MIFKUJ_clean_linker_0, # of connection points: 2
#     Edge 33, Type (0, 1), BuildingBlock: MIFKUJ_clean_linker_0, # of connection points: 2
#     Edge 34, Type (0, 1), BuildingBlock: MIFKUJ_clean_linker_0, # of connection points: 2
#     Edge 35, Type (0, 1), BuildingBlock: MIFKUJ_clean_linker_0, # of connection points: 2
# Relax obj value: 0.127
# Max RMSD: 0.180
# Mean RMSD: 0.085
data_MOF--net-zzz--node1-JUFBIX_clean_sbu_0--node2-PAMTOO_clean_linker_0--edge1-MIFKUJ_clean_linker_0
_symmetry_space_group_name_H-M    P1
_symmetry_Int_Tables_number       1
_symmetry_cell_setting            triclinic
loop_
_symmetry_equiv_pos_as_xyz
'x, y, z'
_cell_length_a     66.816374
_cell_length_b     66.475514
_cell_length_c     22.419663
_cell_angle_alpha  83.146609
_cell_angle_beta   90.042619
_cell_angle_gamma 91.335591
loop_
_atom_site_label
_atom_site_type_symbol
_atom_site_fract_x
_atom_site_fract_y
_atom_site_fract_z
_atom_type_partial_charge
H0 H 0.8369 0.51968 0.27056 0.0
H1 H 0.78476 0.51335 0.16112 0.0
H2 H 0.77819 0.51899 0.34954 0.0
H3 H 0.74319 0.49335 0.29748 0.0
C4 C 0.74761 0.49804 0.24997 0.0
O5 O 0.75892 0.51583 0.24742 0.0
H6 H 0.75653 0.48569 0.2345 0.0
C7 C 0.82074 0.51893 0.26587 0.0
C8 C 0.80867 0.51976 0.31645 0.0
C9 C 0.81233 0.51645 0.20992 0.0
C10 C 0.79144 0.5151 0.2043 0.0
C11 C 0.77908 0.51616 0.25439 0.0
C12 C 0.78772 0.51825 0.31082 0.0
H13 H 0.99362 0.81276 0.26512 0.0
H14 H 0.99015 0.76005 0.17123 0.0
H15 H 0.9847 0.75368 0.36414 0.0
H16 H 1.00002 0.71211 0.31764 0.0
C17 C 1.00043 0.72092 0.27228 0.0
O18 O 0.9847 0.73418 0.26757 0.0
H19 H 0.01514 0.72925 0.26841 0.0
C20 C 0.99175 0.79646 0.26591 0.0
C21 C 0.98937 0.78435 0.32105 0.0
C22 C 0.99192 0.78792 0.21183 0.0
C23 C 0.98993 0.76685 0.21282 0.0
C24 C 0.98723 0.75447 0.2676 0.0
C25 C 0.98677 0.76324 0.32188 0.0
H26 H 0.70229 0.02279 0.17568 0.0
H27 H 0.75537 0.01536 0.07393 0.0
H28 H 0.75606 1.00218 0.26692 0.0
H29 H 0.79657 0.01955 0.21766 0.0
C30 C 0.7929 0.01854 0.16971 0.0
O31 O 0.77778 0.00406 0.16731 0.0
H32 H 0.78785 0.03373 0.14973 0.0
C33 C 0.71801 0.0192 0.17466 0.0
C34 C 0.72784 0.01264 0.22846 0.0
C35 C 0.72768 0.02024 0.11905 0.0
C36 C 0.74776 0.01474 0.11679 0.0
C37 C 0.75815 0.00863 0.17014 0.0
C38 C 0.74809 0.00722 0.22598 0.0
H39 H 0.52332 0.67443 0.21774 0.0
H40 H 0.52137 0.72883 0.09312 0.0
H41 H 0.5191 0.73234 0.28367 0.0
H42 H 0.49455 0.76464 0.21128 0.0
C43 C 0.50147 0.76329 0.16687 0.0
O44 O 0.51941 0.75345 0.1758 0.0
H45 H 0.49085 0.75439 0.14137 0.0
C46 C 0.52276 0.69083 0.20911 0.0
C47 C 0.52132 0.70218 0.25749 0.0
C48 C 0.52281 0.70024 0.14983 0.0
C49 C 0.52148 0.72138 0.13883 0.0
C50 C 0.52031 0.73302 0.18701 0.0
C51 C 0.52021 0.72339 0.24652 0.0
H52 H 0.17876 0.49554 0.25595 0.0
H53 H 0.22873 0.50081 0.37491 0.0
H54 H 0.23847 0.48683 0.19456 0.0
H55 H 0.26958 0.46668 0.2847 0.0
C56 C 0.26537 0.47546 0.3218 0.0
O57 O 0.25586 0.49283 0.29765 0.0
H58 H 0.25509 0.46563 0.35237 0.0
C59 C 0.19474 0.49504 0.26467 0.0
C60 C 0.2076 0.49076 0.21897 0.0
C61 C 0.20208 0.49896 0.32077 0.0
C62 C 0.22275 0.4978 0.33185 0.0
C63 C 0.2359 0.49324 0.2867 0.0
C64 C 0.22832 0.48989 0.22984 0.0
H65 H 0.01926 0.19594 0.30182 0.0
H66 H 0.02465 0.24955 0.39115 0.0
H67 H 0.04375 0.2511 0.20716 0.0
H68 H 0.01181 0.28331 0.2821 0.0
C69 C 0.02769 0.28859 0.28558 0.0
O70 O 0.04024 0.27243 0.29924 0.0
H71 H 0.03192 0.29654 0.24079 0.0
C72 C 0.02307 0.21195 0.30054 0.0
C73 C 0.03163 0.22227 0.24836 0.0
C74 C 0.02038 0.22161 0.35203 0.0
C75 C 0.02621 0.24204 0.35114 0.0
C76 C 0.03423 0.25284 0.29866 0.0
C77 C 0.03696 0.24294 0.24705 0.0
H78 H 0.31733 0.01045 0.34716 0.0
H79 H 0.26694 0.00806 0.46733 0.0
H80 H 0.25757 0.00875 0.27679 0.0
H81 H 0.22343 0.02928 0.33586 0.0
C82 C 0.22814 0.02426 0.38274 0.0
O83 O 0.23982 0.00733 0.38308 0.0
H84 H 0.23696 0.03702 0.39866 0.0
C85 C 0.30127 0.01025 0.35451 0.0
C86 C 0.28849 0.00984 0.30526 0.0
C87 C 0.29378 0.00977 0.41299 0.0
C88 C 0.27298 0.00869 0.4223 0.0
C89 C 0.25986 0.00859 0.37324 0.0
C90 C 0.26765 0.00917 0.31451 0.0
H91 H 0.49044 0.32247 0.33334 0.0
H92 H 0.49887 0.26911 0.4586 0.0
H93 H 0.49846 0.26491 0.26825 0.0
H94 H 0.48012 0.22705 0.33679 0.0
C95 C 0.48449 0.23083 0.38209 0.0
O96 O 0.50069 0.24424 0.37641 0.0
H97 H 0.47131 0.23789 0.40104 0.0
C98 C 0.49236 0.30621 0.34222 0.0
C99 C 0.49399 0.29485 0.29393 0.0
C100 C 0.49429 0.29719 0.40155 0.0
C101 C 0.4974 0.27628 0.41286 0.0
C102 C 0.49842 0.26453 0.3649 0.0
C103 C 0.49716 0.2739 0.30525 0.0
Co104 Co 0.01701 0.01113 0.81588 0.0
C105 C 0.97625 0.0041 0.83517 0.0
Co106 Co 1.00221 0.9971 0.74191 0.0
C107 C 0.0235 0.04253 0.89289 0.0
C108 C 0.04683 0.0209 0.90215 0.0
N109 N 0.02928 0.02493 0.87421 0.0
N110 N 0.03684 0.04985 0.93081 0.0
C111 C 0.0515 0.03612 0.9369 0.0
H112 H 0.00987 0.05 0.87783 0.0
H113 H 0.05601 0.00812 0.89588 0.0
C114 C 0.043 0.00424 0.72273 0.0
N115 N 0.98992 0.98324 0.68376 0.0
C116 C 0.99575 0.9656 0.66552 0.0
C117 C 0.97228 0.98708 0.65612 0.0
N118 N 0.98235 0.95804 0.62826 0.0
C119 C 0.9676 0.97168 0.62204 0.0
C120 C 1.00184 0.0383 0.72193 0.0
O121 O 0.04189 0.01137 0.77289 0.0
O122 O 0.02722 0.99695 0.70079 0.0
O123 O 0.99661 0.0226 0.69791 0.0
O124 O 0.01069 0.03631 0.77233 0.0
O125 O 0.97715 0.99744 0.78425 0.0
H126 H 0.96303 0.99981 0.66228 0.0
H127 H 0.00944 0.95827 0.68055 0.0
O128 O 0.9922 0.01078 0.8577 0.0
O129 O 0.02308 0.98549 0.85918 0.0
O130 O 0.00802 0.97201 0.78603 0.0
C131 C 0.01732 0.96986 0.83563 0.0
H132 H 0.0651 0.03731 0.96259 0.0
H133 H 0.95393 0.97028 0.59681 0.0
Co134 Co 0.50195 0.00475 0.82259 0.0
C135 C 0.51018 0.96325 0.83284 0.0
Co136 Co 0.51752 0.99499 0.74376 0.0
C137 C 0.46846 0.01529 0.89644 0.0
C138 C 0.49517 0.0086 0.94699 0.0
N139 N 0.48811 0.01126 0.89022 0.0
N140 N 0.46307 0.01484 0.9547 0.0
C141 C 0.47987 0.01072 0.98649 0.0
H142 H 0.45794 0.01693 0.85954 0.0
H143 H 0.51016 0.00394 0.95941 0.0
C144 C 0.50921 0.03646 0.73362 0.0
N145 N 0.53177 0.98794 0.67776 0.0
C146 C 0.55019 0.99476 0.65834 0.0
C147 C 0.52634 0.9743 0.64047 0.0
N148 N 0.55647 0.98592 0.61061 0.0
C149 C 0.54141 0.97309 0.59912 0.0
C150 C 0.47644 0.99306 0.7337 0.0
O151 O 0.50067 0.03196 0.78448 0.0
O152 O 0.51791 0.02264 0.70926 0.0
O153 O 0.49254 0.991 0.70497 0.0
O154 O 0.47736 0.99827 0.78632 0.0
O155 O 0.51687 0.96731 0.77947 0.0
H156 H 0.51247 0.96552 0.64373 0.0
H157 H 0.55886 0.00606 0.67882 0.0
O158 O 0.50341 0.97751 0.85953 0.0
O159 O 0.527 0.01117 0.85771 0.0
O160 O 0.542 0.99911 0.78317 0.0
C161 C 0.54303 0.00672 0.83237 0.0
H162 H 0.48076 0.00836 0.03504 0.0
H163 H 0.54147 0.96312 0.56432 0.0
Co164 Co 0.5238 0.49867 0.78308 0.0
C165 C 0.50381 0.46923 0.86017 0.0
Co166 Co 0.49081 0.4991 0.77125 0.0
C167 C 0.56182 0.49887 0.84602 0.0
C168 C 0.56558 0.50025 0.75082 0.0
N169 N 0.55146 0.49895 0.79408 0.0
N170 N 0.58186 0.50022 0.83686 0.0
C171 C 0.58421 0.50105 0.77686 0.0
H172 H 0.55474 0.49837 0.8896 0.0
H173 H 0.5625 0.50082 0.70328 0.0
C174 C 0.51098 0.52859 0.69433 0.0
N175 N 0.46311 0.49889 0.76019 0.0
C176 C 0.45267 0.49908 0.70833 0.0
C177 C 0.44904 0.49809 0.80345 0.0
N178 N 0.43261 0.49844 0.71747 0.0
C179 C 0.43037 0.49783 0.77749 0.0
C180 C 0.50453 0.52466 0.8514 0.0
O181 O 0.52634 0.5208 0.72061 0.0
O182 O 0.49375 0.52094 0.70851 0.0
O183 O 0.48872 0.51838 0.82716 0.0
O184 O 0.52131 0.51749 0.83926 0.0
O185 O 0.48828 0.47704 0.83475 0.0
H186 H 0.45217 0.49752 0.85096 0.0
H187 H 0.45973 0.49976 0.66468 0.0
O188 O 0.52096 0.4768 0.8449 0.0
O189 O 0.52593 0.47961 0.7266 0.0
O190 O 0.49328 0.48005 0.71561 0.0
C191 C 0.51011 0.47307 0.70299 0.0
H192 H 0.59839 0.50208 0.75328 0.0
H193 H 0.41625 0.4968 0.80139 0.0
Co194 Co 0.00752 0.52132 0.78068 0.0
C195 C 0.03831 0.49872 0.83796 0.0
Co196 Co 0.00646 0.4887 0.76673 0.0
C197 C 0.00722 0.55648 0.84717 0.0
C198 C 0.01032 0.56478 0.75238 0.0
N199 N 0.00849 0.54854 0.79441 0.0
N200 N 0.0083 0.57698 0.8396 0.0
C201 C 0.01032 0.58221 0.77995 0.0
H202 H 0.00567 0.54741 0.89041 0.0
H203 H 0.01138 0.56404 0.70456 0.0
C204 C 0.97552 0.51136 0.70973 0.0
N205 N 0.00497 0.46142 0.75209 0.0
C206 C 0.01645 0.45124 0.71631 0.0
C207 C 0.9899 0.44825 0.77012 0.0
N208 N 0.00906 0.43233 0.71143 0.0
C209 C 0.99238 0.43052 0.74562 0.0
C210 C 0.9845 0.49712 0.86487 0.0
O211 O 0.98441 0.52618 0.73052 0.0
O212 O 0.98288 0.49379 0.71976 0.0
O213 O 0.99012 0.48279 0.83654 0.0
O214 O 0.99053 0.51511 0.8476 0.0
O215 O 0.03013 0.484 0.81458 0.0
H216 H 0.97722 0.4516 0.79687 0.0
H217 H 0.02965 0.45777 0.69288 0.0
O218 O 0.03039 0.51609 0.82998 0.0
O219 O 0.02483 0.52711 0.71376 0.0
O220 O 0.02276 0.49522 0.69755 0.0
C221 C 0.02985 0.51305 0.68353 0.0
H222 H 0.01127 0.59757 0.75767 0.0
H223 H 0.98196 0.41772 0.75003 0.0
H224 H 0.21968 0.03701 0.49213 0.0
H225 H 0.18876 0.03164 0.55096 0.0
H226 H 0.16418 0.99527 0.42031 0.0
H227 H 0.19506 1.00109 0.36062 0.0
H228 H 0.13723 0.02086 0.44806 0.0
H229 H 0.17998 0.97421 0.56249 0.0
H230 H 0.2104 0.96313 0.61818 0.0
H231 H 0.19984 0.00542 0.74465 0.0
H232 H 0.16949 0.01696 0.68922 0.0
H233 H 0.05165 0.98616 0.62241 0.0
H234 H 0.08327 0.98743 0.56716 0.0
H235 H 0.10979 0.02487 0.69192 0.0
H236 H 0.07833 0.02322 0.74835 0.0
H237 H 0.13564 0.99745 0.66654 0.0
H238 H 0.09243 0.04385 0.55036 0.0
H239 H 0.06161 0.0538 0.49498 0.0
H240 H 0.0731 0.01119 0.37033 0.0
H241 H 0.10368 1.00053 0.42595 0.0
C242 C 0.20773 0.02774 0.47626 0.0
C243 C 0.20972 0.01952 0.42167 0.0
C244 C 0.19006 0.02459 0.51006 0.0
C245 C 0.17407 0.01289 0.49053 0.0
C246 C 0.17622 0.00437 0.43644 0.0
C247 C 0.19388 0.0076 0.40249 0.0
C248 C 0.1549 0.01021 0.52532 0.0
C249 C 0.13688 0.01542 0.49564 0.0
C250 C 0.15435 0.00354 0.58778 0.0
C251 C 0.17255 0.99658 0.62136 0.0
C252 C 0.18422 0.98126 0.60192 0.0
C253 C 0.20144 0.97488 0.63348 0.0
C254 C 0.20708 0.9836 0.68483 0.0
C255 C 0.19547 0.99869 0.70482 0.0
C256 C 0.17825 0.00515 0.67338 0.0
C257 C 0.06421 0.99465 0.63822 0.0
C258 C 0.06237 0.00468 0.68974 0.0
C259 C 0.08231 0.99542 0.60638 0.0
C260 C 0.09893 0.00651 0.62465 0.0
C261 C 0.09723 0.01623 0.67671 0.0
C262 C 0.07918 0.01533 0.7089 0.0
C263 C 0.118 0.00817 0.58931 0.0
C264 C 0.136 1.00281 0.6189 0.0
C265 C 0.11851 0.01462 0.52668 0.0
C266 C 0.10027 0.02126 0.4927 0.0
C267 C 0.08832 0.03651 0.51138 0.0
C268 C 0.0709 0.04229 0.47994 0.0
C269 C 0.06543 0.03317 0.42915 0.0
C270 C 0.07736 0.01824 0.4097 0.0
C271 C 0.09472 0.01229 0.44123 0.0
H272 H 0.05194 0.03769 0.40485 0.0
H273 H 0.22041 0.97864 0.70921 0.0
H274 H 0.47653 0.22097 0.5023 0.0
H275 H 0.48244 0.18884 0.56486 0.0
H276 H 0.51043 0.16574 0.41434 0.0
H277 H 0.5041 0.19778 0.35145 0.0
H278 H 0.48445 0.13859 0.46665 0.0
H279 H 0.5377 0.17942 0.53601 0.0
H280 H 0.55282 0.20909 0.57677 0.0
H281 H 0.51724 0.19613 0.73674 0.0
H282 H 0.5017 0.16653 0.69658 0.0
H283 H 0.52454 0.05019 0.62283 0.0
H284 H 0.52184 0.08388 0.56723 0.0
H285 H 0.48954 0.10385 0.71501 0.0
H286 H 0.49224 0.07006 0.77139 0.0
H287 H 0.5176 0.13259 0.66589 0.0
H288 H 0.46433 0.09193 0.59625 0.0
H289 H 0.44953 0.06199 0.55619 0.0
H290 H 0.48534 0.07471 0.3966 0.0
H291 H 0.50062 0.10455 0.43618 0.0
C292 C 0.48406 0.20905 0.48283 0.0
C293 C 0.48964 0.2117 0.42192 0.0
C294 C 0.48753 0.19073 0.51864 0.0
C295 C 0.49696 0.17481 0.49451 0.0
C296 C 0.50305 0.17771 0.43399 0.0
C297 C 0.49951 0.19602 0.39815 0.0
C298 C 0.49971 0.15486 0.53148 0.0
C299 C 0.49199 0.13729 0.50977 0.0
C300 C 0.50902 0.15312 0.58865 0.0
C301 C 0.51839 0.17087 0.61301 0.0
C302 C 0.53298 0.18299 0.57968 0.0
C303 C 0.54165 0.19978 0.60271 0.0
C304 C 0.53595 0.20452 0.65924 0.0
C305 C 0.52162 0.19245 0.69293 0.0
C306 C 0.51289 0.17565 0.67008 0.0
C307 C 0.51694 0.06173 0.64383 0.0
C308 C 0.50849 0.05734 0.70154 0.0
C309 C 0.51537 0.08101 0.61182 0.0
C310 C 0.50528 0.09635 0.6366 0.0
C311 C 0.49736 0.09224 0.69493 0.0
C312 C 0.49887 0.07289 0.72702 0.0
C313 C 0.5025 0.11642 0.60069 0.0
C314 C 0.51013 0.13396 0.62267 0.0
C315 C 0.49311 0.11817 0.54373 0.0
C316 C 0.48376 0.10037 0.51945 0.0
C317 C 0.46916 0.08826 0.55281 0.0
C318 C 0.46067 0.07132 0.53017 0.0
C319 C 0.46652 0.06643 0.47394 0.0
C320 C 0.48084 0.0785 0.44018 0.0
C321 C 0.48941 0.09544 0.46268 0.0
H322 H 0.45993 0.0533 0.45649 0.0
H323 H 0.54268 0.21753 0.67699 0.0
H324 H 0.30514 0.47104 0.29509 0.0
H325 H 0.33445 0.47693 0.35705 0.0
H326 H 0.29603 0.49732 0.49113 0.0
H327 H 0.26667 0.4916 0.42869 0.0
H328 H 0.32973 0.52082 0.47589 0.0
H329 H 0.31418 0.44926 0.50783 0.0
H330 H 0.3077 0.41528 0.47729 0.0
H331 H 0.3662 0.41633 0.39765 0.0
H332 H 0.37293 0.45045 0.42703 0.0
H333 H 0.394 0.50962 0.7282 0.0
H334 H 0.36696 0.50743 0.65622 0.0
H335 H 0.40788 0.48477 0.53283 0.0
H336 H 0.43496 0.48619 0.60585 0.0
H337 H 0.37401 0.46319 0.53793 0.0
H338 H 0.39042 0.53396 0.51003 0.0
H339 H 0.3971 0.56792 0.54039 0.0
H340 H 0.33748 0.56864 0.61134 0.0
H341 H 0.33053 0.53455 0.58215 0.0
C342 C 0.30299 0.47694 0.33755 0.0
C343 C 0.28363 0.48073 0.35737 0.0
C344 C 0.31974 0.48022 0.3731 0.0
C345 C 0.31749 0.48727 0.42936 0.0
C346 C 0.29819 0.49181 0.44809 0.0
C347 C 0.28143 0.48852 0.41251 0.0
C348 C 0.33513 0.48937 0.46935 0.0
C349 C 0.33928 0.50816 0.48997 0.0
C350 C 0.34797 0.47302 0.48662 0.0
C351 C 0.34397 0.45249 0.46906 0.0
C352 C 0.3256 0.44231 0.48339 0.0
C353 C 0.32189 0.42301 0.46636 0.0
C354 C 0.3365 0.41367 0.4354 0.0
C355 C 0.35488 0.42359 0.42155 0.0
C356 C 0.35865 0.44291 0.4384 0.0
C357 C 0.39732 0.50405 0.68599 0.0
C358 C 0.41679 0.49803 0.67325 0.0
C359 C 0.38181 0.50303 0.64438 0.0
C360 C 0.38533 0.49617 0.58852 0.0
C361 C 0.40474 0.4902 0.57545 0.0
C362 C 0.4203 0.49118 0.61717 0.0
C363 C 0.3686 0.49464 0.54483 0.0
C364 C 0.36457 0.47592 0.52358 0.0
C365 C 0.35592 0.51107 0.52688 0.0
C366 C 0.36002 0.53161 0.54435 0.0
C367 C 0.37878 0.54129 0.53251 0.0
C368 C 0.38261 0.56058 0.54944 0.0
C369 C 0.36774 0.57042 0.5779 0.0
C370 C 0.34899 0.561 0.58934 0.0
C371 C 0.34509 0.5417 0.57256 0.0
H372 H 0.37073 0.58535 0.59097 0.0
H373 H 0.33361 0.39873 0.42227 0.0
H374 H 0.04936 0.32445 0.28214 0.0
H375 H 0.04964 0.34888 0.35601 0.0
H376 H 0.00996 0.30918 0.47026 0.0
H377 H 0.00938 0.28499 0.39571 0.0
H378 H 0.99671 0.34632 0.45987 0.0
H379 H 0.06047 0.31648 0.50353 0.0
H380 H 0.09439 0.30555 0.48129 0.0
H381 H 0.11205 0.36714 0.42095 0.0
H382 H 0.07813 0.37841 0.44205 0.0
H383 H 1.00149 0.39178 0.72511 0.0
H384 H 0.00811 0.36807 0.65314 0.0
H385 H 0.03886 0.4154 0.53784 0.0
H386 H 0.03181 0.43958 0.60927 0.0
H387 H 0.05748 0.37618 0.54543 0.0
H388 H 0.99347 0.40572 0.503 0.0
H389 H 0.95967 0.41634 0.52786 0.0
H390 H 0.94269 0.35453 0.5877 0.0
H391 H 0.97651 0.34357 0.56408 0.0
C392 C 0.04083 0.32093 0.32327 0.0
C393 C 0.02917 0.30295 0.33302 0.0
C394 C 0.04107 0.33483 0.36565 0.0
C395 C 0.02988 0.33091 0.41906 0.0
C396 C 0.01867 0.31264 0.42943 0.0
C397 C 0.01839 0.29879 0.387 0.0
C398 C 0.02894 0.34622 0.46264 0.0
C399 C 0.01004 0.35259 0.47907 0.0
C400 C 0.04629 0.35499 0.48658 0.0
C401 C 0.06669 0.34825 0.47373 0.0
C402 C 0.07153 0.32767 0.485 0.0
C403 C 0.09077 0.32142 0.4727 0.0
C404 C 0.10535 0.33563 0.44955 0.0
C405 C 0.10073 0.35614 0.43878 0.0
C406 C 0.0815 0.36247 0.45094 0.0
C407 C 0.00964 0.39728 0.68453 0.0
C408 C 0.01566 0.41781 0.67264 0.0
C409 C 0.01353 0.3836 0.64351 0.0
C410 C 0.02366 0.39001 0.58957 0.0
C411 C 0.0309 0.41014 0.57905 0.0
C412 C 0.02688 0.42396 0.6201 0.0
C413 C 0.02529 0.3759 0.54299 0.0
C414 C 0.04423 0.36986 0.52594 0.0
C415 C 0.00799 0.36734 0.51846 0.0
C416 C 0.98758 0.37385 0.53228 0.0
C417 C 0.98258 0.39441 0.52192 0.0
C418 C 0.96341 0.40049 0.53572 0.0
C419 C 0.94906 0.38613 0.55948 0.0
C420 C 0.95383 0.36564 0.56936 0.0
C421 C 0.97299 0.35949 0.55573 0.0
H422 H 0.93422 0.39086 0.57012 0.0
H423 H 0.12024 0.33076 0.44009 0.0
H424 H 0.83198 0.01812 0.20727 0.0
H425 H 0.86217 0.0141 0.14852 0.0
H426 H 0.82575 0.00488 0.99479 0.0
H427 H 0.79539 0.00887 0.05385 0.0
H428 H 0.85785 0.97877 0.00765 0.0
H429 H 0.84733 0.05009 0.00353 0.0
H430 H 0.84165 0.08188 0.04684 0.0
H431 H 0.89731 0.07539 0.14229 0.0
H432 H 0.90317 0.04338 0.1003 0.0
H433 H 0.93839 0.99553 0.79548 0.0
H434 H 0.9067 0.99653 0.84975 0.0
H435 H 0.93869 0.01344 0.00411 0.0
H436 H 0.97025 0.01306 0.94962 0.0
H437 H 0.90763 0.03573 0.98692 0.0
H438 H 0.91806 0.9642 0.99539 0.0
H439 H 0.92415 0.93212 0.95405 0.0
H440 H 0.86955 0.93846 0.85315 0.0
H441 H 0.86326 0.97072 0.8933 0.0
C442 C 0.83039 0.01489 0.16126 0.0
C443 C 0.8113 0.01352 0.1354 0.0
C444 C 0.84767 0.01273 0.12756 0.0
C445 C 0.84629 0.00938 0.06696 0.0
C446 C 0.82722 0.00742 0.04144 0.0
C447 C 0.80989 0.00965 0.07519 0.0
C448 C 0.86479 0.00875 0.02992 0.0
C449 C 0.86862 0.99132 0.00242 0.0
C450 C 0.87907 0.02496 0.02393 0.0
C451 C 0.87558 0.04422 0.04923 0.0
C452 C 0.85827 0.05535 0.03417 0.0
C453 C 0.85503 0.07342 0.05842 0.0
C454 C 0.86908 0.08062 0.09742 0.0
C455 C 0.88642 0.06978 0.11216 0.0
C456 C 0.88971 0.05167 0.08812 0.0
C457 C 0.93868 0.99941 0.84105 0.0
C458 C 0.95691 0.00419 0.86813 0.0
C459 C 0.92052 0.99987 0.87224 0.0
C460 C 0.9202 0.00482 0.93154 0.0
C461 C 0.93843 0.00958 0.95851 0.0
C462 C 0.95653 0.00931 0.92724 0.0
C463 C 0.90096 0.00558 0.96526 0.0
C464 C 0.89691 0.02312 0.99202 0.0
C465 C 0.88659 0.98941 0.97086 0.0
C466 C 0.89029 0.96998 0.94687 0.0
C467 C 0.90742 0.95882 0.96404 0.0
C468 C 0.9109 0.9406 0.94088 0.0
C469 C 0.89728 0.93329 0.90087 0.0
C470 C 0.88011 0.94416 0.88407 0.0
C471 C 0.87657 0.96241 0.90705 0.0
H472 H 0.9 0.91918 0.88298 0.0
H473 H 0.86655 0.09463 0.11612 0.0
H474 H 0.49689 0.80078 0.20463 0.0
H475 H 0.4998 0.83408 0.1449 0.0
H476 H 0.51623 0.80554 0.98957 0.0
H477 H 0.51344 0.77212 0.04967 0.0
H478 H 0.53882 0.84017 0.99831 0.0
H479 H 0.46915 0.82092 0.00365 0.0
H480 H 0.43709 0.80919 0.05168 0.0
H481 H 0.43703 0.86128 0.14802 0.0
H482 H 0.46925 0.87317 0.10117 0.0
H483 H 0.52101 0.92817 0.78853 0.0
H484 H 0.52073 0.89374 0.84185 0.0
H485 H 0.49975 0.91661 0.00219 0.0
H486 H 0.49956 0.9508 0.94912 0.0
H487 H 0.47931 0.88373 0.98579 0.0
H488 H 0.54929 0.90262 0.98364 0.0
H489 H 0.58149 0.91447 0.93681 0.0
H490 H 0.58122 0.8635 0.83579 0.0
H491 H 0.54886 0.85148 0.88144 0.0
C492 C 0.50127 0.80164 0.15788 0.0
C493 C 0.5048 0.78391 0.13153 0.0
C494 C 0.50286 0.82065 0.12371 0.0
C495 C 0.50794 0.82232 0.06244 0.0
C496 C 0.51223 0.80465 0.03664 0.0
C497 C 0.51061 0.7856 0.07086 0.0
C498 C 0.50809 0.84244 0.02512 0.0
C499 C 0.52573 0.84959 0.99487 0.0
C500 C 0.49113 0.8549 0.0213 0.0
C501 C 0.4717 0.84784 0.0493 0.0
C502 C 0.46237 0.82979 0.03541 0.0
C503 C 0.44416 0.82313 0.06237 0.0
C504 C 0.43505 0.83446 0.10299 0.0
C505 C 0.44411 0.8525 0.1166 0.0
C506 C 0.46234 0.85923 0.08982 0.0
C507 C 0.51636 0.92585 0.83516 0.0
C508 C 0.51031 0.94228 0.86447 0.0
C509 C 0.5163 0.90616 0.86572 0.0
C510 C 0.5104 0.90253 0.92637 0.0
C511 C 0.50434 0.91894 0.95548 0.0
C512 C 0.50428 0.93854 0.92499 0.0
C513 C 0.51015 0.8817 0.95965 0.0
C514 C 0.49242 0.87434 0.98903 0.0
C515 C 0.52706 0.86912 0.96276 0.0
C516 C 0.54655 0.87627 0.93547 0.0
C517 C 0.55602 0.89402 0.95109 0.0
C518 C 0.57432 0.90075 0.92482 0.0
C519 C 0.58337 0.88978 0.88322 0.0
C520 C 0.57417 0.872 0.86794 0.0
C521 C 0.55586 0.86522 0.89403 0.0
H522 H 0.59754 0.89501 0.86293 0.0
H523 H 0.42095 0.82927 0.12381 0.0
H524 H 0.70906 0.48469 0.27562 0.0
H525 H 0.67997 0.48643 0.20876 0.0
H526 H 0.71598 0.51832 0.06662 0.0
H527 H 0.74516 0.5166 0.13362 0.0
H528 H 0.67845 0.53474 0.07201 0.0
H529 H 0.70604 0.46878 0.0676 0.0
H530 H 0.71815 0.43548 0.11125 0.0
H531 H 0.66027 0.42032 0.18927 0.0
H532 H 0.64789 0.45368 0.14675 0.0
H533 H 0.61864 0.51821 0.82029 0.0
H534 H 0.64543 0.51901 0.89406 0.0
H535 H 0.60761 0.48551 0.02864 0.0
H536 H 0.58078 0.48427 0.95439 0.0
H537 H 0.64499 0.47043 0.03066 0.0
H538 H 0.6167 0.53561 0.03095 0.0
H539 H 0.60432 0.56864 0.98599 0.0
H540 H 0.66296 0.58534 0.91604 0.0
H541 H 0.67563 0.55224 0.95967 0.0
C542 C 0.71069 0.49233 0.23038 0.0
C543 C 0.7293 0.50084 0.2102 0.0
C544 C 0.69409 0.49321 0.19207 0.0
C545 C 0.69577 0.50242 0.13245 0.0
C546 C 0.71427 0.51123 0.11246 0.0
C547 C 0.73092 0.51027 0.15075 0.0
C548 C 0.67844 0.5022 0.09046 0.0
C549 C 0.67127 0.52067 0.06246 0.0
C550 C 0.66871 0.48388 0.07902 0.0
C551 C 0.6761 0.46381 0.10455 0.0
C552 C 0.69594 0.45842 0.09449 0.0
C553 C 0.70285 0.43952 0.11895 0.0
C554 C 0.69001 0.42581 0.15316 0.0
C555 C 0.67021 0.43096 0.16285 0.0
C556 C 0.66324 0.44986 0.13856 0.0
C557 C 0.616 0.51089 0.86542 0.0
C558 C 0.59751 0.50113 0.88122 0.0
C559 C 0.63131 0.51154 0.90782 0.0
C560 C 0.62852 0.5025 0.9672 0.0
C561 C 0.61011 0.49267 0.98319 0.0
C562 C 0.59472 0.4921 0.94078 0.0
C563 C 0.64502 0.50296 0.01197 0.0
C564 C 0.65206 0.48452 0.04045 0.0
C565 C 0.65458 0.52131 0.0239 0.0
C566 C 0.64708 0.54135 0.99815 0.0
C567 C 0.62693 0.54625 0.00559 0.0
C568 C 0.61986 0.565 0.98039 0.0
C569 C 0.63283 0.57906 0.94807 0.0
C570 C 0.65292 0.57442 0.94103 0.0
C571 C 0.66006 0.55567 0.96603 0.0
H572 H 0.62732 0.59357 0.92858 0.0
H573 H 0.69538 0.41118 0.17204 0.0
H574 H 0.97589 0.68727 0.27155 0.0
H575 H 0.97489 0.66268 0.19799 0.0
H576 H 0.02053 0.69773 0.0932 0.0
H577 H 0.02114 0.72251 0.16594 0.0
H578 H 0.99303 0.68438 0.02127 0.0
H579 H 0.03101 0.65387 0.19141 0.0
H580 H 0.03615 0.64142 0.29832 0.0
H581 H 0.98611 0.59992 0.29334 0.0
H582 H 0.98054 0.61231 0.18657 0.0
H583 H 0.02781 0.613 0.84023 0.0
H584 H 0.02472 0.63698 0.91401 0.0
H585 H 0.9823 0.59634 0.0147 0.0
H586 H 0.98596 0.57196 0.9416 0.0
H587 H 0.00554 0.61202 0.0897 0.0
H588 H 0.96808 0.64063 0.92017 0.0
H589 H 0.96193 0.65284 0.81366 0.0
H590 H 0.00904 0.69771 0.81746 0.0
H591 H 0.01566 0.68559 0.9238 0.0
C592 C 0.98559 0.68972 0.23255 0.0
C593 C 0.99884 0.70656 0.2249 0.0
C594 C 0.98512 0.67563 0.19072 0.0
C595 C 0.99796 0.67805 0.14055 0.0
C596 C 0.01058 0.69539 0.13165 0.0
C597 C 0.01098 0.70951 0.1733 0.0
C598 C 0.9986 0.66246 0.09779 0.0
C599 C 0.99598 0.6686 0.0362 0.0
C600 C 1.00179 0.64169 0.11718 0.0
C601 C 0.00525 0.63415 0.18121 0.0
C602 C 0.02103 0.64218 0.21324 0.0
C603 C 0.02403 0.63512 0.27379 0.0
C604 C 0.01143 0.61993 0.30265 0.0
C605 C 0.99584 0.61171 0.27096 0.0
C606 C 0.99277 0.61873 0.21043 0.0
C607 C 0.01781 0.6092 0.87805 0.0
C608 C 0.00702 0.59066 0.88484 0.0
C609 C 0.01596 0.62298 0.92017 0.0
C610 C 1.00287 0.6188 0.96943 0.0
C611 C 0.99242 0.60004 0.97707 0.0
C612 C 0.99454 0.58608 0.93534 0.0
C613 C 1.00026 0.63397 0.0129 0.0
C614 C 1.00248 0.62777 0.07465 0.0
C615 C 0.99651 0.65466 0.9937 0.0
C616 C 0.99247 0.66209 0.92984 0.0
C617 C 0.97721 0.65302 0.8982 0.0
C618 C 0.97363 0.65993 0.83786 0.0
C619 C 0.98511 0.67601 0.80878 0.0
C620 C 1.00016 0.68525 0.84003 0.0
C621 C 1.00382 0.67838 0.90035 0.0
H622 H 0.98232 0.68134 0.76206 0.0
H623 H 0.01377 0.61449 0.34952 0.0
H624 H 0.98661 0.19796 0.36655 0.0
H625 H 0.97975 0.17086 0.44807 0.0
H626 H 0.03187 0.18966 0.5428 0.0
H627 H 0.03881 0.21681 0.4609 0.0
H628 H 0.03361 0.15078 0.51971 0.0
H629 H 0.98651 0.19133 0.60601 0.0
H630 H 0.95792 0.214 0.60815 0.0
H631 H 0.91855 0.16795 0.55171 0.0
H632 H 0.94696 0.14508 0.54835 0.0
H633 H 0.9979 0.07283 0.77399 0.0
H634 H 0.99709 0.10757 0.72386 0.0
H635 H 0.99883 0.08507 0.55137 0.0
H636 H 0.99916 0.05013 0.60128 0.0
H637 H 0.97103 0.12808 0.62926 0.0
H638 H 0.03845 0.1153 0.47821 0.0
H639 H 0.06785 0.09351 0.47891 0.0
H640 H 0.06772 0.08583 0.6718 0.0
H641 H 0.0387 0.10804 0.67226 0.0
C642 C 0.99618 0.19671 0.4058 0.0
C643 C 0.01328 0.20933 0.40755 0.0
C644 C 0.99223 0.18129 0.4524 0.0
C645 C 0.00534 0.17822 0.50138 0.0
C646 C 0.02157 0.19181 0.50536 0.0
C647 C 0.02545 0.20737 0.45887 0.0
C648 C 1.00385 0.15913 0.54266 0.0
C649 C 0.01998 0.14594 0.54413 0.0
C650 C 0.98608 0.15283 0.57455 0.0
C651 C 0.96892 0.16652 0.57656 0.0
C652 C 0.97179 0.18608 0.59358 0.0
C653 C 0.9556 0.19896 0.5951 0.0
C654 C 0.93644 0.19243 0.57998 0.0
C655 C 0.93341 0.17299 0.56341 0.0
C656 C 0.94955 0.16005 0.56177 0.0
C657 C 0.99773 0.07527 0.72534 0.0
C658 C 0.9987 0.05884 0.69137 0.0
C659 C 0.99717 0.09509 0.69689 0.0
C660 C 0.99802 0.09879 0.63414 0.0
C661 C 0.99818 0.08241 0.59997 0.0
C662 C 0.99833 0.06252 0.62842 0.0
C663 C 1.00056 0.11975 0.6046 0.0
C664 C 0.98467 0.13314 0.60523 0.0
C665 C 0.01861 0.12636 0.57494 0.0
C666 C 0.03621 0.11312 0.57521 0.0
C667 C 0.04474 0.10902 0.52077 0.0
C668 C 0.06136 0.09662 0.52096 0.0
C669 C 0.06959 0.08821 0.57536 0.0
C670 C 0.06127 0.09227 0.62969 0.0
C671 C 0.04473 0.10477 0.62974 0.0
H672 H 0.08245 0.07862 0.57543 0.0
H673 H 0.92392 0.20243 0.5812 0.0
H674 H 0.29489 0.98329 0.51655 0.0
H675 H 0.32347 0.97819 0.58568 0.0
H676 H 0.35432 0.02967 0.48882 0.0
H677 H 0.32579 0.03515 0.42107 0.0
H678 H 0.37164 0.98519 0.49914 0.0
H679 H 0.34616 0.03973 0.61054 0.0
H680 H 0.31999 0.05379 0.67015 0.0
H681 H 0.31906 0.99941 0.79462 0.0
H682 H 0.34518 0.98503 0.7355 0.0
H683 H 0.4666 0.00343 0.61656 0.0
H684 H 0.43318 0.00384 0.57257 0.0
H685 H 0.40843 0.97752 0.74303 0.0
H686 H 0.44175 0.97866 0.78802 0.0
H687 H 0.38494 0.00357 0.70364 0.0
H688 H 0.41389 0.95109 0.6098 0.0
H689 H 0.43837 0.93349 0.55355 0.0
H690 H 0.43029 0.97696 0.39821 0.0
H691 H 0.40604 0.99504 0.45378 0.0
C692 C 0.30746 0.99393 0.51155 0.0
C693 C 0.30827 0.00947 0.46316 0.0
C694 C 0.32378 0.99094 0.55073 0.0
C695 C 0.34097 0.00349 0.54179 0.0
C696 C 0.34116 0.01984 0.49623 0.0
C697 C 0.3249 0.02292 0.45759 0.0
C698 C 0.35973 0.9983 0.57427 0.0
C699 C 0.37473 0.98929 0.5437 0.0
C700 C 0.36318 1.00268 0.63337 0.0
C701 C 0.34744 0.01127 0.66843 0.0
C702 C 0.34024 0.03074 0.65037 0.0
C703 C 0.32547 0.03878 0.68414 0.0
C704 C 0.31782 0.02748 0.73605 0.0
C705 C 0.32494 0.00811 0.75429 0.0
C706 C 0.33974 1.00003 0.72074 0.0
C707 C 0.45404 0.99746 0.64426 0.0
C708 C 0.45672 0.99084 0.70543 0.0
C709 C 0.4349 0.99757 0.61906 0.0
C710 C 0.41815 0.99028 0.65394 0.0
C711 C 0.42099 0.98322 0.71493 0.0
C712 C 0.44005 0.98374 0.74058 0.0
C713 C 0.39763 0.99111 0.62756 0.0
C714 C 0.3821 0.99917 0.65929 0.0
C715 C 0.39353 0.98528 0.56982 0.0
C716 C 0.40826 0.97454 0.53625 0.0
C717 C 0.41746 0.95701 0.56383 0.0
C718 C 0.43129 0.94693 0.53202 0.0
C719 C 0.43593 0.95413 0.47241 0.0
C720 C 0.42672 0.97142 0.44443 0.0
C721 C 0.41292 0.98158 0.47606 0.0
H722 H 0.44662 0.9463 0.44785 0.0
H723 H 0.30643 0.03375 0.76221 0.0
H724 H 0.52399 0.30254 0.48189 0.0
H725 H 0.52769 0.33116 0.54113 0.0
H726 H 0.46864 0.35083 0.48656 0.0
H727 H 0.46511 0.32251 0.4268 0.0
H728 H 0.49607 0.38008 0.45817 0.0
H729 H 0.4794 0.33362 0.63312 0.0
H730 H 0.48264 0.3028 0.7051 0.0
H731 H 0.5428 0.32087 0.74528 0.0
H732 H 0.54001 0.35168 0.67288 0.0
H733 H 0.48017 0.45911 0.63523 0.0
H734 H 0.47943 0.42798 0.58756 0.0
H735 H 0.54036 0.4165 0.64295 0.0
H736 H 0.54122 0.44773 0.6912 0.0
H737 H 0.51511 0.38309 0.6708 0.0
H738 H 0.53123 0.43016 0.49888 0.0
H739 H 0.52785 0.46112 0.42754 0.0
H740 H 0.46866 0.44173 0.38163 0.0
H741 H 0.47156 0.41078 0.45336 0.0
C742 C 0.51156 0.31258 0.48454 0.0
C743 C 0.49429 0.31043 0.44994 0.0
C744 C 0.5137 0.32895 0.51811 0.0
C745 C 0.49849 0.34323 0.51783 0.0
C746 C 0.48061 0.3401 0.48701 0.0
C747 C 0.47854 0.32387 0.45329 0.0
C748 C 0.50197 0.36259 0.5434 0.0
C749 C 0.49996 0.38071 0.50492 0.0
C750 C 0.50784 0.36341 0.6037 0.0
C751 C 0.50957 0.34485 0.64704 0.0
C752 C 0.49339 0.33093 0.65685 0.0
C753 C 0.49513 0.31348 0.69784 0.0
C754 C 0.51294 0.30985 0.72961 0.0
C755 C 0.52903 0.32369 0.72056 0.0
C756 C 0.52737 0.34115 0.67959 0.0
C757 C 0.49354 0.45015 0.63653 0.0
C758 C 0.51077 0.45589 0.66692 0.0
C759 C 0.49309 0.43236 0.60923 0.0
C760 C 0.50985 0.41996 0.61169 0.0
C761 C 0.52727 0.42587 0.64067 0.0
C762 C 0.52778 0.44379 0.66773 0.0
C763 C 0.50873 0.40047 0.58584 0.0
C764 C 0.51129 0.38238 0.62404 0.0
C765 C 0.50336 0.39962 0.52521 0.0
C766 C 0.50156 0.41822 0.4819 0.0
C767 C 0.51743 0.43257 0.47394 0.0
C768 C 0.51561 0.4501 0.43336 0.0
C769 C 0.49804 0.45341 0.40017 0.0
C770 C 0.48226 0.43916 0.40741 0.0
C771 C 0.48399 0.4216 0.44797 0.0
H772 H 0.49667 0.46699 0.36876 0.0
H773 H 0.51425 0.29634 0.76134 0.0
H774 H 0.17175 0.52551 0.30286 0.0
H775 H 0.14468 0.5305 0.37139 0.0
H776 H 0.173 0.49073 0.51117 0.0
H777 H 0.19983 0.48477 0.4409 0.0
H778 H 0.13555 0.48062 0.50687 0.0
H779 H 0.16976 0.54306 0.51771 0.0
H780 H 0.18754 0.57508 0.48137 0.0
H781 H 0.13484 0.59674 0.38716 0.0
H782 H 0.1168 0.56473 0.42222 0.0
H783 H 0.06129 0.53939 0.68667 0.0
H784 H 0.09251 0.5395 0.63038 0.0
H785 H 0.0671 0.49487 0.52534 0.0
H786 H 0.03634 0.49361 0.58501 0.0
H787 H 0.10627 0.54741 0.52675 0.0
H788 H 0.10024 0.46266 0.48903 0.0
H789 H 0.08341 0.4313 0.53616 0.0
H790 H 0.08397 0.45463 0.70669 0.0
H791 H 0.10101 0.486 0.66077 0.0
C792 C 0.17231 0.5179 0.34832 0.0
C793 C 0.18776 0.50452 0.36629 0.0
C794 C 0.15691 0.52096 0.38777 0.0
C795 C 0.15682 0.51113 0.44672 0.0
C796 C 0.17275 0.49847 0.46584 0.0
C797 C 0.18815 0.49522 0.42594 0.0
C798 C 0.13927 0.513 0.48614 0.0
C799 C 0.12928 0.49524 0.51176 0.0
C800 C 0.1312 0.53207 0.49355 0.0
C801 C 0.14196 0.55142 0.47237 0.0
C802 C 0.16199 0.55459 0.48892 0.0
C803 C 0.17212 0.57275 0.46859 0.0
C804 C 0.16234 0.58792 0.43191 0.0
C805 C 0.1424 0.58497 0.41558 0.0
C806 C 0.1322 0.56683 0.43575 0.0
C807 C 0.06225 0.52987 0.6508 0.0
C808 C 0.0465 0.51638 0.64032 0.0
C809 C 0.08014 0.5299 0.61872 0.0
C810 C 0.08244 0.51675 0.57476 0.0
C811 C 0.06599 0.50461 0.56056 0.0
C812 C 0.04832 0.50408 0.59403 0.0
C813 C 0.10229 0.51503 0.54613 0.0
C814 C 0.11268 0.53281 0.52255 0.0
C815 C 0.1111 0.496 0.54261 0.0
C816 C 0.10179 0.47674 0.57131 0.0
C817 C 0.09694 0.46101 0.53669 0.0
C818 C 0.08732 0.44326 0.56316 0.0
C819 C 0.08259 0.44099 0.62434 0.0
C820 C 0.08761 0.45641 0.65929 0.0
C821 C 0.09726 0.47418 0.63307 0.0
H822 H 0.07505 0.42728 0.64466 0.0
H823 H 0.1702 0.60197 0.41621 0.0
H824 H 0.96869 0.81939 0.17087 0.0
H825 H 0.97624 0.84599 0.08848 0.0
H826 H 0.02902 0.81446 0.04498 0.0
H827 H 0.02134 0.78759 0.12765 0.0
H828 H 0.03686 0.8542 0.06416 0.0
H829 H 0.99339 0.81898 0.94354 0.0
H830 H 0.96303 0.80072 0.91468 0.0
H831 H 0.92804 0.8532 0.93036 0.0
H832 H 0.95814 0.8717 0.96011 0.0
H833 H 0.01687 0.9351 0.78342 0.0
H834 H 0.01735 0.90045 0.83286 0.0
H835 H 0.02407 0.92293 0.00481 0.0
H836 H 0.02418 0.95782 0.95505 0.0
H837 H 0.99074 0.88329 0.90491 0.0
H838 H 0.04542 0.88817 0.10549 0.0
H839 H 0.07722 0.90551 0.12663 0.0
H840 H 0.09265 0.91143 0.93937 0.0
H841 H 0.06109 0.89388 0.91718 0.0
C842 C 0.98159 0.81789 0.14259 0.0
C843 C 0.99444 0.80152 0.15519 0.0
C844 C 0.98587 0.83303 0.09555 0.0
C845 C 1.00315 0.83213 0.06057 0.0
C846 C 0.01557 0.81533 0.0714 0.0
C847 C 0.01113 0.79999 0.11818 0.0
C848 C 0.00915 0.8499 0.01764 0.0
C849 C 0.02691 0.86049 0.02882 0.0
C850 C 0.99631 0.85787 0.97106 0.0
C851 C 0.97803 0.84668 0.95454 0.0
C852 C 0.97919 0.82656 0.94147 0.0
C853 C 0.96203 0.81619 0.92477 0.0
C854 C 0.94361 0.82578 0.9208 0.0
C855 C 0.94231 0.84578 0.93351 0.0
C856 C 0.95943 0.85623 0.95021 0.0
C857 C 0.0188 0.93269 0.83171 0.0
C858 C 0.02035 0.94916 0.86554 0.0
C859 C 0.01906 0.91285 0.85988 0.0
C860 C 0.02075 0.90904 0.92252 0.0
C861 C 0.02308 0.92548 0.95629 0.0
C862 C 0.02307 0.94541 0.92792 0.0
C863 C 0.01815 0.88803 0.95269 0.0
C864 C 1.00093 0.87689 0.93941 0.0
C865 C 0.03167 0.87943 0.99662 0.0
C866 C 0.0508 0.88983 0.00964 0.0
C867 C 0.05564 0.89308 0.06885 0.0
C868 C 0.07361 0.90297 0.08102 0.0
C869 C 0.08692 0.90961 0.03436 0.0
C870 C 0.0823 0.90634 0.97545 0.0
C871 C 0.06435 0.89644 0.96304 0.0
H872 H 0.10082 0.91728 0.04387 0.0
H873 H 0.93035 0.81773 0.90778 0.0
H874 H 0.70687 0.05453 0.08991 0.0
H875 H 0.67754 0.05747 0.02446 0.0
H876 H 0.69079 1.00023 0.96278 0.0
H877 H 0.7202 0.99722 0.02856 0.0
H878 H 0.67016 0.0308 0.87443 0.0
H879 H 0.66571 0.9966 0.08097 0.0
H880 H 0.67125 0.99584 0.18992 0.0
H881 H 0.63528 0.04842 0.1924 0.0
H882 H 0.62993 0.04978 0.08303 0.0
H883 H 0.57751 0.98786 0.8124 0.0
H884 H 0.61063 0.99417 0.85259 0.0
H885 H 0.58673 0.04031 0.95068 0.0
H886 H 0.55314 0.03325 0.91269 0.0
H887 H 0.61295 0.01961 0.01702 0.0
H888 H 0.61352 0.05295 0.81785 0.0
H889 H 0.60537 0.05413 0.71023 0.0
H890 H 0.64705 0.00701 0.69253 0.0
H891 H 0.65521 0.00527 0.8004 0.0
C892 C 0.70405 0.04307 0.06018 0.0
C893 C 0.7156 0.02556 0.06449 0.0
C894 C 0.68729 0.04474 0.02299 0.0
C895 C 0.68186 0.02889 0.98977 0.0
C896 C 0.69479 0.01261 0.98817 0.0
C897 C 0.71161 0.01092 0.02555 0.0
C898 C 0.66114 0.02731 0.96732 0.0
C899 C 0.65764 0.02829 0.90542 0.0
C900 C 0.64478 0.02457 0.00787 0.0
C901 C 0.64759 0.02341 0.0738 0.0
C902 C 0.65908 0.00806 0.10469 0.0
C903 C 0.66214 0.00749 0.16655 0.0
C904 C 0.6536 0.02205 0.19809 0.0
C905 C 0.64191 0.03717 0.16788 0.0
C906 C 0.63886 0.03785 0.10597 0.0
C907 C 0.57928 0.99931 0.84271 0.0
C908 C 0.5628 0.01021 0.85902 0.0
C909 C 0.59825 1.00299 0.86539 0.0
C910 C 0.60131 0.01812 0.90334 0.0
C911 C 0.58476 0.02867 0.92108 0.0
C912 C 0.56561 0.02467 0.89933 0.0
C913 C 0.62183 0.02285 0.92394 0.0
C914 C 0.62535 0.02242 0.98568 0.0
C915 C 0.6381 0.02652 0.88315 0.0
C916 C 0.63484 0.02886 0.81727 0.0
C917 C 0.62101 0.04289 0.79094 0.0
C918 C 0.61632 0.0436 0.73004 0.0
C919 C 0.62551 0.03049 0.69489 0.0
C920 C 0.63983 0.01703 0.72006 0.0
C921 C 0.64454 0.01621 0.78107 0.0
H922 H 0.62146 0.03076 0.6482 0.0
H923 H 0.65601 0.02164 0.24592 0.0
H924 H 0.49499 0.69788 0.06198 0.0
H925 H 0.4912 0.67044 0.99818 0.0
H926 H 0.54698 0.64559 0.06604 0.0
H927 H 0.55073 0.67288 0.1297 0.0
H928 H 0.54071 0.64094 0.94469 0.0
H929 H 0.50598 0.62972 0.13573 0.0
H930 H 0.4823 0.63879 0.21194 0.0
H931 H 0.4341 0.63818 0.08526 0.0
H932 H 0.45761 0.62946 0.00791 0.0
H933 H 0.53391 0.53742 0.92327 0.0
H934 H 0.53574 0.56937 0.96659 0.0
H935 H 0.47651 0.58375 0.90031 0.0
H936 H 0.47436 0.55147 0.85789 0.0
H937 H 0.48251 0.59587 0.01023 0.0
H938 H 0.51725 0.60342 0.82153 0.0
H939 H 0.5413 0.59343 0.74763 0.0
H940 H 0.58965 0.60024 0.8705 0.0
H941 H 0.56584 0.61005 0.94541 0.0
C942 C 0.50675 0.68695 0.06146 0.0
C943 C 0.5231 0.68733 0.10067 0.0
C944 C 0.50452 0.67125 0.02543 0.0
C945 C 0.51868 0.65586 0.02815 0.0
C946 C 0.5359 0.6573 0.06334 0.0
C947 C 0.53802 0.67285 0.09967 0.0
C948 C 0.51448 0.63698 1.00096 0.0
C949 C 0.52801 0.63107 0.95894 0.0
C950 C 0.49776 0.62425 0.01918 0.0
C951 C 0.48358 0.62919 0.06585 0.0
C952 C 0.49036 0.63167 0.124 0.0
C953 C 0.47697 0.63673 0.16741 0.0
C954 C 0.45672 0.63911 0.1534 0.0
C955 C 0.4498 0.63637 0.096 0.0
C956 C 0.46315 0.63138 0.05235 0.0
C957 C 0.52111 0.5472 0.91882 0.0
C958 C 0.50406 0.54203 0.88668 0.0
C959 C 0.52224 0.56552 0.94325 0.0
C960 C 0.50648 0.57917 0.93516 0.0
C961 C 0.4889 0.5735 0.90653 0.0
C962 C 0.48768 0.55503 0.8825 0.0
C963 C 0.50884 0.59969 0.95426 0.0
C964 C 0.49501 0.60588 0.99499 0.0
C965 C 0.5253 0.61266 0.93485 0.0
C966 C 0.53974 0.60738 0.88919 0.0
C967 C 0.533 0.60274 0.83284 0.0
C968 C 0.54659 0.59711 0.79077 0.0
C969 C 0.56698 0.59619 0.80438 0.0
C970 C 0.57384 0.60099 0.86 0.0
C971 C 0.56032 0.60662 0.90224 0.0
H972 H 0.57747 0.59179 0.77181 0.0
H973 H 0.44637 0.64302 0.18707 0.0
H974 H 0.81317 0.48566 0.13984 0.0
H975 H 0.84024 0.47891 0.07128 0.0
H976 H 0.86927 0.53569 0.09908 0.0
H977 H 0.8424 0.54239 0.16749 0.0
H978 H 0.87279 0.52614 0.97974 0.0
H979 H 0.88168 0.49554 0.18634 0.0
H980 H 0.87102 0.47353 0.27785 0.0
H981 H 0.86831 0.42218 0.17842 0.0
H982 H 0.87866 0.444 0.08617 0.0
H983 H 0.97399 0.52267 0.94489 0.0
H984 H 0.9429 0.52131 0.00213 0.0
H985 H 0.92791 0.46298 0.94612 0.0
H986 H 0.95922 0.46411 0.8888 0.0
H987 H 0.91436 0.46897 0.06694 0.0
H988 H 0.91293 0.49955 0.86386 0.0
H989 H 0.92656 0.52209 0.77764 0.0
H990 H 0.91564 0.57393 0.86917 0.0
H991 H 0.90268 0.55163 0.95715 0.0
C992 C 0.82502 0.49695 0.12965 0.0
C993 C 0.82584 0.51448 0.15892 0.0
C994 C 0.84048 0.49305 0.09084 0.0
C995 C 0.8568 0.50673 0.08065 0.0
C996 C 0.85678 0.52498 0.10625 0.0
C997 C 0.84149 0.52876 0.1454 0.0
C998 C 0.87508 0.50117 0.04983 0.0
C999 C 0.88184 0.51361 0.99853 0.0
C1000 C 0.88669 0.48457 0.07392 0.0
C1001 C 0.88068 0.47142 0.12936 0.0
C1002 C 0.87865 0.47959 0.184 0.0
C1003 C 0.87269 0.46715 0.23596 0.0
C1004 C 0.86893 0.44648 0.2339 0.0
C1005 C 0.87119 0.4382 0.17991 0.0
C1006 C 0.87709 0.45059 0.12779 0.0
C1007 C 0.96439 0.50926 0.94612 0.0
C1008 C 0.96882 0.49368 0.9114 0.0
C1009 C 0.94666 0.5085 0.97892 0.0
C1010 C 0.93299 0.49226 0.97705 0.0
C1011 C 0.93828 0.47567 0.94771 0.0
C1012 C 0.95615 0.47637 0.91495 0.0
C1013 C 0.91226 0.49425 0.99791 0.0
C1014 C 0.90507 0.48117 0.04716 0.0
C1015 C 0.90024 0.51024 0.97177 0.0
C1016 C 0.90698 0.52385 0.91755 0.0
C1017 C 0.91365 0.51573 0.86604 0.0
C1018 C 0.92135 0.52847 0.81687 0.0
C1019 C 0.92204 0.54943 0.81798 0.0
C1020 C 0.91508 0.55768 0.86836 0.0
C1021 C 0.90759 0.54499 0.91799 0.0
H1022 H 0.9279 0.55927 0.77973 0.0
H1023 H 0.86433 0.43687 0.27416 0.0
H1024 H 0.05906 0.19318 0.24834 0.0
H1025 H 0.06098 0.16741 0.1798 0.0
H1026 H 0.01502 0.19738 0.06936 0.0
H1027 H 0.01289 0.22314 0.13936 0.0
H1028 H 0.00585 0.15847 0.09374 0.0
H1029 H 0.06419 0.19483 0.01776 0.0
H1030 H 0.09679 0.21281 0.02129 0.0
H1031 H 0.12329 0.15848 0.1059 0.0
H1032 H 0.09079 0.14023 0.10368 0.0
H1033 H 0.01543 0.08329 0.89083 0.0
H1034 H 0.01523 0.11557 0.93257 0.0
H1035 H 0.05726 0.09271 0.0686 0.0
H1036 H 0.05728 0.06025 0.02808 0.0
H1037 H 0.0679 0.13096 0.01704 0.0
H1038 H 0.00834 0.09618 0.10226 0.0
H1039 H 0.97565 0.07837 0.0983 0.0
H1040 H 0.95151 0.13049 0.99351 0.0
H1041 H 0.98415 0.14852 0.99618 0.0
C1042 C 0.04988 0.19464 0.20827 0.0
C1043 C 0.03607 0.2103 0.19848 0.0
C1044 C 0.05094 0.17987 0.16905 0.0
C1045 C 0.03827 0.18044 0.11885 0.0
C1046 C 0.02502 0.19662 0.10758 0.0
C1047 C 0.02395 0.21147 0.14706 0.0
C1048 C 0.03771 0.1631 0.08212 0.0
C1049 C 0.01938 0.15277 0.07572 0.0
C1050 C 0.05537 0.1553 0.05953 0.0
C1051 C 0.07499 0.16619 0.06088 0.0
C1052 C 0.07693 0.18675 0.03752 0.0
C1053 C 0.0954 0.19698 0.03922 0.0
C1054 C 0.11209 0.1868 0.06389 0.0
C1055 C 0.11035 0.16635 0.08681 0.0
C1056 C 0.09191 0.15604 0.08525 0.0
C1057 C 0.02445 0.08493 0.93009 0.0
C1058 C 0.03634 0.06894 0.956 0.0
C1059 C 0.02439 0.10351 0.95376 0.0
C1060 C 0.03619 0.10659 0.00389 0.0
C1061 C 0.04811 0.09076 0.02969 0.0
C1062 C 0.04813 0.07215 0.00628 0.0
C1063 C 0.03614 0.12623 0.02982 0.0
C1064 C 0.05436 0.13692 0.03423 0.0
C1065 C 0.01838 0.13441 0.05031 0.0
C1066 C 0.99875 0.12361 0.04882 0.0
C1067 C 0.99611 0.10378 0.07794 0.0
C1068 C 0.97758 0.09366 0.07601 0.0
C1069 C 0.96153 0.10327 0.04551 0.0
C1070 C 0.96396 0.12305 0.01702 0.0
C1071 C 0.98247 0.13323 0.01875 0.0
H1072 H 0.9472 0.09541 0.04409 0.0
H1073 H 0.12638 0.19476 0.06517 0.0
H1074 H 0.30626 0.97801 0.26509 0.0
H1075 H 0.33243 0.98001 0.18822 0.0
H1076 H 0.32024 0.04315 0.13821 0.0
H1077 H 0.29406 0.04119 0.21601 0.0
H1078 H 0.33384 0.01747 0.03732 0.0
H1079 H 0.35223 0.03935 0.22944 0.0
H1080 H 0.35336 0.03602 0.34009 0.0
H1081 H 0.38315 0.97938 0.34329 0.0
H1082 H 0.38196 0.98226 0.23247 0.0
H1083 H 0.43361 0.04118 0.92137 0.0
H1084 H 0.4003 0.04184 0.96777 0.0
H1085 H 0.41406 0.98796 0.08674 0.0
H1086 H 0.44747 0.98811 0.04272 0.0
H1087 H 0.39805 0.01223 0.1489 0.0
H1088 H 0.38082 0.99039 0.95626 0.0
H1089 H 0.38125 0.99444 0.84537 0.0
H1090 H 0.34981 0.05017 0.84157 0.0
H1091 H 0.34947 0.04663 0.95243 0.0
C1092 C 0.30846 0.99203 0.2356 0.0
C1093 C 0.29798 0.00937 0.2458 0.0
C1094 C 0.32351 0.99321 0.19198 0.0
C1095 C 0.32836 0.01176 0.15775 0.0
C1096 C 0.31661 0.02866 0.16379 0.0
C1097 C 0.30158 0.02751 0.20793 0.0
C1098 C 0.34769 0.0141 0.12452 0.0
C1099 C 0.34793 0.01654 0.06144 0.0
C1100 C 0.36603 0.0127 0.15609 0.0
C1101 C 0.36678 0.01091 0.22271 0.0
C1102 C 0.35883 0.02608 0.25374 0.0
C1103 C 0.35952 0.0243 0.31648 0.0
C1104 C 0.36823 0.00745 0.34871 0.0
C1105 C 0.37634 0.99238 0.31824 0.0
C1106 C 0.37569 0.9941 0.25547 0.0
C1107 C 0.42935 0.0295 0.95728 0.0
C1108 C 0.44308 0.0147 0.97889 0.0
C1109 C 0.4103 0.02977 0.9836 0.0
C1110 C 0.40443 0.01482 0.03066 0.0
C1111 C 0.41812 0.99978 0.05096 0.0
C1112 C 0.43723 0.99983 0.02579 0.0
C1113 C 0.3845 0.01502 0.061 0.0
C1114 C 0.38408 0.01313 0.12412 0.0
C1115 C 0.3661 0.01682 0.02919 0.0
C1116 C 0.36534 0.01837 0.96265 0.0
C1117 C 0.37403 0.00353 0.93177 0.0
C1118 C 0.37429 0.00575 0.86895 0.0
C1119 C 0.36573 0.02265 0.83654 0.0
C1120 C 0.35655 0.03716 0.86681 0.0
C1121 C 0.35631 0.03505 0.92962 0.0
H1122 H 0.36622 0.02452 0.78796 0.0
H1123 H 0.36876 0.00612 0.39725 0.0
H1124 H 0.46222 0.31316 0.23731 0.0
H1125 H 0.46364 0.33999 0.15235 0.0
H1126 H 0.52671 0.33011 0.13179 0.0
H1127 H 0.5252 0.30309 0.21669 0.0
H1128 H 0.51836 0.36936 0.14944 0.0
H1129 H 0.49511 0.32107 0.02137 0.0
H1130 H 0.47282 0.29426 0.9896 0.0
H1131 H 0.42318 0.33433 0.98298 0.0
H1132 H 0.44511 0.36131 0.01552 0.0
H1133 H 0.53429 0.44567 0.9065 0.0
H1134 H 0.53201 0.41372 0.97188 0.0
H1135 H 0.46775 0.41823 0.97809 0.0
H1136 H 0.46988 0.45006 0.91054 0.0
H1137 H 0.47704 0.38079 0.96516 0.0
H1138 H 0.49857 0.42809 0.09828 0.0
H1139 H 0.51971 0.45525 0.1331 0.0
H1140 H 0.57103 0.41748 0.1351 0.0
H1141 H 0.55023 0.39017 0.09955 0.0
C1142 C 0.47615 0.31613 0.2128 0.0
C1143 C 0.49353 0.3059 0.23271 0.0
C1144 C 0.477 0.33153 0.16451 0.0
C1145 C 0.4953 0.3371 0.13571 0.0
C1146 C 0.51243 0.32602 0.15326 0.0
C1147 C 0.51153 0.31046 0.20122 0.0
C1148 C 0.49698 0.356 0.09303 0.0
C1149 C 0.50962 0.37172 0.10848 0.0
C1150 C 0.48497 0.35936 0.04094 0.0
C1151 C 0.47173 0.34316 0.02142 0.0
C1152 C 0.4794 0.32412 0.01366 0.0
C1153 C 0.46684 0.3089 0.9954 0.0
C1154 C 0.44659 0.31257 0.98442 0.0
C1155 C 0.43886 0.3315 0.99155 0.0
C1156 C 0.45136 0.34677 0.00983 0.0
C1157 C 0.51964 0.44001 0.92208 0.0
C1158 C 0.50226 0.45055 0.90357 0.0
C1159 C 0.51837 0.42169 0.95969 0.0
C1160 C 0.49973 0.41362 0.9808 0.0
C1161 C 0.48232 0.42412 0.96251 0.0
C1162 C 0.48356 0.4424 0.9242 0.0
C1163 C 0.4985 0.39416 0.02144 0.0
C1164 C 0.48588 0.3784 0.00588 0.0
C1165 C 0.51034 0.3908 0.074 0.0
C1166 C 0.52288 0.40716 0.09569 0.0
C1167 C 0.51439 0.42563 0.10574 0.0
C1168 C 0.52631 0.44104 0.12568 0.0
C1169 C 0.54671 0.43812 0.13615 0.0
C1170 C 0.55523 0.41974 0.12689 0.0
C1171 C 0.54338 0.40427 0.10692 0.0
H1172 H 0.55591 0.45007 0.15155 0.0
H1173 H 0.43688 0.30078 0.97027 0.0
H1174 H 0.19091 0.45674 0.18159 0.0
H1175 H 0.16513 0.45613 0.10366 0.0
H1176 H 0.17558 0.52003 0.05093 0.0
H1177 H 0.20144 0.52054 0.12836 0.0
H1178 H 0.13654 0.50979 0.08916 0.0
H1179 H 0.1848 0.48774 0.9531 0.0
H1180 H 0.21081 0.46552 0.92152 0.0
H1181 H 0.16948 0.41474 0.94437 0.0
H1182 H 0.14328 0.43662 0.97695 0.0
H1183 H 0.06395 0.52853 0.86642 0.0
H1184 H 0.09549 0.52506 0.92055 0.0
H1185 H 0.08773 0.45998 0.94124 0.0
H1186 H 0.05629 0.46337 0.88442 0.0
H1187 H 0.12564 0.46923 0.91962 0.0
H1188 H 0.07808 0.48899 0.05837 0.0
H1189 H 0.0514 0.50942 0.09508 0.0
H1190 H 0.09054 0.56195 0.0757 0.0
H1191 H 0.11738 0.5419 0.03806 0.0
C1192 C 0.18843 0.47036 0.15109 0.0
C1193 C 0.19843 0.48859 0.15994 0.0
C1194 C 0.17357 0.47007 0.10696 0.0
C1195 C 0.16835 0.48806 0.07157 0.0
C1196 C 0.17939 0.50596 0.07758 0.0
C1197 C 0.19434 0.50621 0.12125 0.0
C1198 C 0.1497 0.48892 0.03503 0.0
C1199 C 0.1343 0.50119 0.05139 0.0
C1200 C 0.14639 0.47695 0.98765 0.0
C1201 C 0.16213 0.46379 0.96807 0.0
C1202 C 0.1813 0.4718 0.95196 0.0
C1203 C 0.19608 0.45927 0.93374 0.0
C1204 C 0.19182 0.43872 0.9311 0.0
C1205 C 0.17276 0.43066 0.94652 0.0
C1206 C 0.15794 0.44312 0.9648 0.0
C1207 C 0.06886 0.51344 0.88258 0.0
C1208 C 0.05741 0.49622 0.87177 0.0
C1209 C 0.08695 0.51147 0.91375 0.0
C1210 C 0.09388 0.49227 0.93638 0.0
C1211 C 0.0827 0.47498 0.9246 0.0
C1212 C 0.06467 0.47694 0.8924 0.0
C1213 C 0.1126 0.49046 0.97302 0.0
C1214 C 0.1279 0.4779 0.95719 0.0
C1215 C 0.11575 0.50187 0.02188 0.0
C1216 C 0.09968 0.51397 0.04488 0.0
C1217 C 0.08096 0.50493 0.06156 0.0
C1218 C 0.06581 0.51644 0.08258 0.0
C1219 C 0.06926 0.53698 0.08758 0.0
C1220 C 0.08788 0.54604 0.07173 0.0
C1221 C 0.10307 0.53461 0.05061 0.0
H1222 H 0.05751 0.54587 0.10384 0.0
H1223 H 0.20327 0.42905 0.91697 0.0
H1224 H 0.95837 0.78913 0.39731 0.0
H1225 H 0.95667 0.81548 0.46544 0.0
H1226 H 0.01912 0.83044 0.43231 0.0
H1227 H 0.0208 0.80428 0.36459 0.0
H1228 H 0.97943 0.82951 0.56883 0.0
H1229 H 0.01995 0.88064 0.38015 0.0
H1230 H 0.02619 0.88151 0.27132 0.0
H1231 H 0.97048 0.84952 0.25126 0.0
H1232 H 0.96375 0.8488 0.35966 0.0
H1233 H 1.00427 0.92497 0.66854 0.0
H1234 H 0.00496 0.89267 0.62739 0.0
H1235 H 0.96166 0.91426 0.49344 0.0
H1236 H 0.9616 0.94695 0.5324 0.0
H1237 H 0.98932 0.89565 0.44277 0.0
H1238 H 0.94953 0.87972 0.62142 0.0
H1239 H 0.94214 0.87777 0.72976 0.0
H1240 H 0.99229 0.83926 0.76953 0.0
H1241 H 1.00016 0.84118 0.6614 0.0
C1242 C 0.97191 0.79741 0.40699 0.0
C1243 C 0.98974 0.79467 0.37609 0.0
C1244 C 0.97093 0.8125 0.44567 0.0
C1245 C 0.98772 0.82506 0.45337 0.0
C1246 C 0.00598 0.82097 0.42689 0.0
C1247 C 0.00696 0.80597 0.38845 0.0
C1248 C 0.98557 0.84436 0.47996 0.0
C1249 C 0.98159 0.844 0.54152 0.0
C1250 C 0.98802 0.86325 0.44393 0.0
C1251 C 0.99146 0.86451 0.37813 0.0
C1252 C 0.00897 0.87394 0.35241 0.0
C1253 C 0.0126 0.87439 0.29081 0.0
C1254 C 0.99877 0.86552 0.25443 0.0
C1255 C 0.9812 0.85634 0.27949 0.0
C1256 C 0.97748 0.85591 0.341 0.0
C1257 C 0.99503 0.92304 0.62993 0.0
C1258 C 0.98287 0.93879 0.60395 0.0
C1259 C 0.99524 0.90435 0.60689 0.0
C1260 C 0.98313 0.90081 0.55777 0.0
C1261 C 0.97109 0.91651 0.53154 0.0
C1262 C 0.97096 0.93523 0.55426 0.0
C1263 C 0.9834 0.88103 0.53237 0.0
C1264 C 0.98709 0.88126 0.47058 0.0
C1265 C 0.98037 0.8621 0.56823 0.0
C1266 C 0.97554 0.86075 0.63327 0.0
C1267 C 0.95907 0.87094 0.65326 0.0
C1268 C 0.95478 0.86982 0.71465 0.0
C1269 C 0.96677 0.85844 0.75651 0.0
C1270 C 0.98303 0.84809 0.73704 0.0
C1271 C 0.9874 0.84917 0.67571 0.0
H1272 H 0.96345 0.85761 0.804 0.0
H1273 H 1.00166 0.86578 0.20683 0.0
H1274 H 0.72557 0.98089 0.31973 0.0
H1275 H 0.70029 0.97571 0.39996 0.0
H1276 H 0.6768 0.03473 0.34119 0.0
H1277 H 0.70266 0.04039 0.26473 0.0
H1278 H 0.67173 0.02944 0.45027 0.0
H1279 H 0.65692 0.98586 0.29565 0.0
H1280 H 0.66397 0.95874 0.23279 0.0
H1281 H 0.6707 0.91639 0.39139 0.0
H1282 H 0.66385 0.94335 0.45496 0.0
H1283 H 0.56363 0.98285 0.49322 0.0
H1284 H 0.59575 0.98721 0.44056 0.0
H1285 H 0.62487 0.99931 0.60447 0.0
H1286 H 0.59257 0.99552 0.6573 0.0
H1287 H 0.6291 0.96732 0.45304 0.0
H1288 H 0.66648 0.03462 0.56172 0.0
H1289 H 0.65732 0.06562 0.6046 0.0
H1290 H 0.60041 0.06529 0.51568 0.0
H1291 H 0.60949 0.03476 0.47046 0.0
C1292 C 0.71542 0.99298 0.32543 0.0
C1293 C 0.71595 0.01093 0.28527 0.0
C1294 C 0.7007 0.98989 0.37065 0.0
C1295 C 0.68605 0.00453 0.37574 0.0
C1296 C 0.68768 0.02304 0.33847 0.0
C1297 C 0.70248 0.02625 0.2943 0.0
C1298 C 0.66831 1.00054 0.41673 0.0
C1299 C 0.66253 0.01574 0.45135 0.0
C1300 C 0.656 0.98283 0.4178 0.0
C1301 C 0.66017 0.96665 0.37985 0.0
C1302 C 0.66008 0.9708 0.31693 0.0
C1303 C 0.664 0.95547 0.28125 0.0
C1304 C 0.66788 0.93589 0.3081 0.0
C1305 C 0.66776 0.93158 0.37067 0.0
C1306 C 0.66384 0.94687 0.40651 0.0
C1307 C 0.57685 0.98647 0.51814 0.0
C1308 C 0.57547 0.98892 0.57944 0.0
C1309 C 0.59524 0.98896 0.48797 0.0
C1310 C 0.61277 0.99386 0.51833 0.0
C1311 C 0.6115 0.99608 0.57975 0.0
C1312 C 0.59302 0.99386 0.60988 0.0
C1313 C 0.6323 0.99645 0.48547 0.0
C1314 C 0.63845 0.98089 0.45282 0.0
C1315 C 0.64458 0.01419 0.4846 0.0
C1316 C 0.63854 0.03208 0.51365 0.0
C1317 C 0.65201 0.04115 0.55127 0.0
C1318 C 0.6469 0.05876 0.5756 0.0
C1319 C 0.62827 0.06739 0.56301 0.0
C1320 C 0.61478 0.05852 0.5257 0.0
C1321 C 0.61992 0.04105 0.50067 0.0
H1322 H 0.62429 0.08094 0.5822 0.0
H1323 H 0.67091 0.92403 0.28042 0.0
H1324 H 0.48842 0.68522 0.31493 0.0
H1325 H 0.48785 0.65858 0.40033 0.0
H1326 H 0.55183 0.66571 0.41909 0.0
H1327 H 0.55233 0.69221 0.33276 0.0
H1328 H 0.54196 0.6275 0.41117 0.0
H1329 H 0.51887 0.67735 0.52934 0.0
H1330 H 0.49776 0.70495 0.55547 0.0
H1331 H 0.44568 0.66578 0.55784 0.0
H1332 H 0.46643 0.63801 0.53088 0.0
H1333 H 0.54496 0.55136 0.66378 0.0
H1334 H 0.5477 0.58352 0.59858 0.0
H1335 H 0.48429 0.58071 0.56322 0.0
H1336 H 0.48136 0.54868 0.62904 0.0
H1337 H 0.49588 0.61815 0.5861 0.0
H1338 H 0.51848 0.5696 0.45934 0.0
H1339 H 0.53937 0.54196 0.43221 0.0
H1340 H 0.5923 0.57905 0.4455 0.0
H1341 H 0.57172 0.60683 0.4735 0.0
C1342 C 0.50219 0.68166 0.33905 0.0
C1343 C 0.52035 0.69101 0.31844 0.0
C1344 C 0.50191 0.66637 0.38768 0.0
C1345 C 0.5198 0.66015 0.41655 0.0
C1346 C 0.53784 0.67027 0.39775 0.0
C1347 C 0.53811 0.68556 0.34899 0.0
C1348 C 0.5199 0.64168 0.46135 0.0
C1349 C 0.53218 0.62566 0.45016 0.0
C1350 C 0.50676 0.63897 0.51134 0.0
C1351 C 0.49421 0.65564 0.52761 0.0
C1352 C 0.50289 0.67466 0.53496 0.0
C1353 C 0.49099 0.69033 0.55002 0.0
C1354 C 0.47038 0.68713 0.55819 0.0
C1355 C 0.46164 0.66824 0.55146 0.0
C1356 C 0.47348 0.65252 0.53637 0.0
C1357 C 0.53161 0.55746 0.6417 0.0
C1358 C 0.51295 0.54733 0.65133 0.0
C1359 C 0.53321 0.57589 0.60444 0.0
C1360 C 0.51622 0.58451 0.5756 0.0
C1361 C 0.4976 0.5744 0.58505 0.0
C1362 C 0.49598 0.556 0.62241 0.0
C1363 C 0.51781 0.60402 0.53552 0.0
C1364 C 0.50582 0.62016 0.5475 0.0
C1365 C 0.5312 0.60687 0.48615 0.0
C1366 C 0.54358 0.59021 0.46915 0.0
C1367 C 0.53459 0.5718 0.45695 0.0
C1368 C 0.54637 0.55612 0.44133 0.0
C1369 C 0.56715 0.55873 0.43731 0.0
C1370 C 0.5762 0.57704 0.44873 0.0
C1371 C 0.56448 0.59276 0.46444 0.0
H1372 H 0.57625 0.54657 0.42521 0.0
H1373 H 0.4612 0.69929 0.56985 0.0
H1374 H 0.82777 0.55321 0.34818 0.0
H1375 H 0.853 0.55416 0.42715 0.0
H1376 H 0.83965 0.49136 0.48938 0.0
H1377 H 0.81405 0.49059 0.41083 0.0
H1378 H 0.85026 0.5127 0.58332 0.0
H1379 H 0.87555 0.50344 0.38911 0.0
H1380 H 0.87957 0.51206 0.27979 0.0
H1381 H 0.90839 0.5686 0.30712 0.0
H1382 H 0.90401 0.56061 0.41675 0.0
H1383 H 0.94776 0.48221 0.68934 0.0
H1384 H 0.91607 0.48641 0.6351 0.0
H1385 H 0.92778 0.55078 0.60088 0.0
H1386 H 0.95946 0.54677 0.65643 0.0
H1387 H 0.9176 0.53006 0.49586 0.0
H1388 H 0.88447 0.54175 0.68668 0.0
H1389 H 0.87697 0.53402 0.79496 0.0
H1390 H 0.86499 0.47168 0.7719 0.0
H1391 H 0.87164 0.47928 0.66298 0.0
C1392 C 0.82965 0.53989 0.3804 0.0
C1393 C 0.81885 0.5219 0.37406 0.0
C1394 C 0.84422 0.54036 0.42507 0.0
C1395 C 0.84854 0.52271 0.46346 0.0
C1396 C 0.83661 0.50515 0.46027 0.0
C1397 C 0.82191 0.50473 0.41569 0.0
C1398 C 0.8668 0.52198 0.50186 0.0
C1399 C 0.86497 0.51636 0.564 0.0
C1400 C 0.88608 0.52692 0.47701 0.0
C1401 C 0.88926 0.53152 0.41118 0.0
C1402 C 0.88263 0.51778 0.37185 0.0
C1403 C 0.88497 0.52255 0.30979 0.0
C1404 C 0.89422 0.54086 0.28648 0.0
C1405 C 0.9012 0.55443 0.32524 0.0
C1406 C 0.89876 0.54981 0.38736 0.0
C1407 C 0.94361 0.49729 0.67044 0.0
C1408 C 0.95627 0.51414 0.6767 0.0
C1409 C 0.92538 0.49968 0.63991 0.0
C1410 C 0.91948 0.51892 0.61425 0.0
C1411 C 0.932 0.53581 0.62058 0.0
C1412 C 0.95012 0.53348 0.65214 0.0
C1413 C 0.90098 0.521 0.57721 0.0
C1414 C 0.90284 0.52664 0.51509 0.0
C1415 C 0.8818 0.51591 0.60181 0.0
C1416 C 0.87871 0.51102 0.66718 0.0
C1417 C 0.88031 0.52639 0.70488 0.0
C1418 C 0.87603 0.52208 0.76616 0.0
C1419 C 0.87065 0.50234 0.79038 0.0
C1420 C 0.86923 0.48694 0.75314 0.0
C1421 C 0.87306 0.49127 0.69157 0.0
H1422 H 0.86755 0.49901 0.83797 0.0
H1423 H 0.89601 0.54451 0.2384 0.0
loop_
_geom_bond_atom_site_label_1
_geom_bond_atom_site_label_2
_geom_bond_distance
_geom_bond_site_symmetry_2
_ccdc_geom_bond_type
H0 C7 0.929 . S
H1 C10 0.930 . S
H2 C12 0.929 . S
H3 C4 0.969 . S
C4 H3 0.969 . S
C4 O5 1.550 . S
C4 H6 0.973 . S
O5 C4 1.550 . S
O5 C11 1.412 . S
H6 C4 0.973 . S
C7 H0 0.929 . S
C7 C8 1.400 . S
C7 C9 1.364 . S
C8 C7 1.400 . S
C8 C12 1.377 . S
C9 C7 1.364 . S
C9 C10 1.374 . S
C10 H1 0.930 . S
C10 C9 1.374 . S
C10 C11 1.383 . S
C11 O5 1.412 . S
C11 C10 1.383 . S
C11 C12 1.394 . S
C12 H2 0.929 . S
C12 C8 1.377 . S
C12 C11 1.394 . S
H13 C20 0.929 . S
H14 C23 0.930 . S
H15 C25 0.929 . S
H16 C17 0.969 . S
C17 H16 0.969 . S
C17 O18 1.550 . S
C17 H19 0.973 . S
O18 C17 1.550 . S
O18 C24 1.412 . S
H19 C17 0.973 . S
C20 H13 0.929 . S
C20 C21 1.400 . S
C20 C22 1.364 . S
C21 C20 1.400 . S
C21 C25 1.377 . S
C22 C20 1.364 . S
C22 C23 1.374 . S
C23 H14 0.930 . S
C23 C22 1.374 . S
C23 C24 1.383 . S
C24 O18 1.412 . S
C24 C23 1.383 . S
C24 C25 1.394 . S
C25 H15 0.929 . S
C25 C21 1.377 . S
C25 C24 1.394 . S
H26 C33 0.929 . S
H27 C36 0.925 1_556 S
H28 C38 0.930 1_565 S
H29 C30 0.969 . S
C30 H29 0.969 . S
C30 O31 1.550 1_545 S
C30 H32 0.973 1_544 S
O31 C30 1.550 1_565 S
O31 C37 1.405 1_565 S
H32 C30 0.973 1_566 S
C33 H26 0.929 . S
C33 C34 1.399 1_565 S
C33 C35 1.363 1_565 S
C34 C33 1.399 1_545 S
C34 C38 1.376 . S
C35 C33 1.363 1_545 S
C35 C36 1.374 1_545 S
C36 H27 0.925 1_554 S
C36 C35 1.374 1_565 S
C36 C37 1.379 1_565 S
C37 O31 1.405 1_545 S
C37 C36 1.379 1_545 S
C37 C38 1.398 . S
C38 H28 0.930 1_545 S
C38 C34 1.376 . S
C38 C37 1.398 . S
H39 C46 0.929 . S
H40 C49 0.930 . S
H41 C51 0.929 . S
H42 C43 0.969 . S
C43 H42 0.969 . S
C43 O44 1.550 . S
C43 H45 0.973 . S
O44 C43 1.550 . S
O44 C50 1.412 . S
H45 C43 0.973 . S
C46 H39 0.929 . S
C46 C47 1.400 . S
C46 C48 1.364 . S
C47 C46 1.400 . S
C47 C51 1.377 . S
C48 C46 1.364 . S
C48 C49 1.374 . S
C49 H40 0.930 . S
C49 C48 1.374 . S
C49 C50 1.383 . S
C50 O44 1.412 . S
C50 C49 1.383 . S
C50 C51 1.394 . S
C51 H41 0.929 . S
C51 C47 1.377 . S
C51 C50 1.394 . S
H52 C59 0.929 . S
H53 C62 0.930 . S
H54 C64 0.929 . S
H55 C56 0.969 . S
C56 H55 0.969 . S
C56 O57 1.550 . S
C56 H58 0.973 . S
O57 C56 1.550 . S
O57 C63 1.412 . S
H58 C56 0.973 . S
C59 H52 0.929 . S
C59 C60 1.400 . S
C59 C61 1.364 . S
C60 C59 1.400 . S
C60 C64 1.377 . S
C61 C59 1.364 . S
C61 C62 1.374 . S
C62 H53 0.930 . S
C62 C61 1.374 . S
C62 C63 1.383 . S
C63 O57 1.412 . S
C63 C62 1.383 . S
C63 C64 1.394 . S
C64 H54 0.929 . S
C64 C60 1.377 . S
C64 C63 1.394 . S
H65 C72 0.929 . S
H66 C75 0.930 . S
H67 C77 0.929 . S
H68 C69 0.969 . S
C69 H68 0.969 . S
C69 O70 1.550 . S
C69 H71 0.973 . S
O70 C69 1.550 . S
O70 C76 1.412 . S
H71 C69 0.973 . S
C72 H65 0.929 . S
C72 C73 1.400 . S
C72 C74 1.364 . S
C73 C72 1.400 . S
C73 C77 1.377 . S
C74 C72 1.364 . S
C74 C75 1.374 . S
C75 H66 0.930 . S
C75 C74 1.374 . S
C75 C76 1.383 . S
C76 O70 1.412 . S
C76 C75 1.383 . S
C76 C77 1.394 . S
C77 H67 0.929 . S
C77 C73 1.377 . S
C77 C76 1.394 . S
H78 C85 0.928 1_565 S
H79 C88 0.934 . S
H80 C90 0.927 1_565 S
H81 C82 0.969 . S
C82 H81 0.969 . S
C82 O83 1.550 1_545 S
C82 H84 0.973 1_545 S
O83 C82 1.550 1_565 S
O83 C89 1.403 1_565 S
H84 C82 0.973 1_565 S
C85 H78 0.928 1_545 S
C85 C86 1.401 . S
C85 C87 1.363 . S
C86 C85 1.401 . S
C86 C90 1.377 . S
C87 C85 1.363 . S
C87 C88 1.375 1_545 S
C88 H79 0.934 . S
C88 C87 1.375 1_565 S
C88 C89 1.385 1_565 S
C89 O83 1.403 1_545 S
C89 C88 1.385 1_545 S
C89 C90 1.391 . S
C90 H80 0.927 1_545 S
C90 C86 1.377 . S
C90 C89 1.391 . S
H91 C98 0.929 . S
H92 C101 0.930 . S
H93 C103 0.929 . S
H94 C95 0.969 . S
C95 H94 0.969 . S
C95 O96 1.550 . S
C95 H97 0.973 . S
O96 C95 1.550 . S
O96 C102 1.412 . S
H97 C95 0.973 . S
C98 H91 0.929 . S
C98 C99 1.400 . S
C98 C100 1.364 . S
C99 C98 1.400 . S
C99 C103 1.377 . S
C100 C98 1.364 . S
C100 C101 1.374 . S
C101 H92 0.930 . S
C101 C100 1.374 . S
C101 C102 1.383 . S
C102 O96 1.412 . S
C102 C101 1.383 . S
C102 C103 1.394 . S
C103 H93 0.929 . S
C103 C99 1.377 . S
C103 C102 1.394 . S
Co104 N109 2.057 . S
Co104 O121 2.021 . S
Co104 O124 2.062 . S
Co104 O128 2.117 1_455 S
Co104 O129 2.020 1_545 S
C105 O125 1.259 1_545 S
C105 O128 1.258 . S
Co106 N115 2.057 . S
Co106 O122 2.117 1_655 S
Co106 O123 2.018 1_665 S
Co106 O125 2.021 . S
Co106 O130 2.062 . S
C107 N109 1.316 . S
C107 N110 1.347 . S
C107 H112 0.931 . S
C108 N109 1.375 1_655 S
C108 C111 1.350 1_655 S
C108 H113 0.930 . S
N109 Co104 2.057 . S
N109 C107 1.316 . S
N109 C108 1.375 1_455 S
N110 C107 1.347 . S
N110 C111 1.373 . S
C111 C108 1.350 1_455 S
C111 N110 1.373 . S
C111 H132 0.931 1_455 S
H112 C107 0.931 . S
H113 C108 0.930 . S
C114 O121 1.259 1_565 S
C114 O122 1.258 . S
N115 Co106 2.057 . S
N115 C116 1.316 . S
N115 C117 1.375 1_655 S
C116 N115 1.316 . S
C116 N118 1.347 . S
C116 H127 0.931 . S
C117 N115 1.375 1_455 S
C117 C119 1.350 . S
C117 H126 0.930 . S
N118 C116 1.347 . S
N118 C119 1.373 1_655 S
C119 C117 1.350 . S
C119 N118 1.373 1_455 S
C119 H133 0.931 . S
C120 O123 1.263 . S
C120 O124 1.255 . S
O121 Co104 2.021 . S
O121 C114 1.259 1_545 S
O122 Co106 2.117 1_455 S
O122 C114 1.258 . S
O123 Co106 2.018 1_445 S
O123 C120 1.263 . S
O124 Co104 2.062 . S
O124 C120 1.255 . S
O125 C105 1.259 1_565 S
O125 Co106 2.021 . S
H126 C117 0.930 . S
H127 C116 0.931 . S
O128 Co104 2.117 1_655 S
O128 C105 1.258 . S
O129 Co104 2.020 1_565 S
O129 C131 1.256 . S
O130 Co106 2.062 . S
O130 C131 1.255 1_655 S
C131 O129 1.256 . S
C131 O130 1.255 1_455 S
H132 C111 0.931 1_655 S
H133 C119 0.931 . S
Co134 N139 2.057 1_545 S
Co134 O151 2.021 . S
Co134 O154 2.065 . S
Co134 O158 2.117 1_545 S
Co134 O159 2.020 . S
C135 O155 1.259 . S
C135 O158 1.258 . S
Co136 N145 2.057 1_565 S
Co136 O152 2.117 1_565 S
Co136 O153 2.020 . S
Co136 O155 2.021 . S
Co136 O160 2.062 . S
C137 N139 1.318 1_545 S
C137 N140 1.347 . S
C137 H142 0.931 . S
C138 N139 1.373 . S
C138 C141 1.350 . S
C138 H143 0.930 . S
N139 Co134 2.057 1_565 S
N139 C137 1.318 1_565 S
N139 C138 1.373 . S
N140 C137 1.347 . S
N140 C141 1.373 1_545 S
C141 C138 1.350 . S
C141 N140 1.373 1_565 S
C141 H162 0.931 1_556 S
H142 C137 0.931 . S
H143 C138 0.930 . S
C144 O151 1.259 . S
C144 O152 1.258 . S
N145 Co136 2.057 1_545 S
N145 C146 1.308 1_545 S
N145 C147 1.384 . S
C146 N145 1.308 1_565 S
C146 N148 1.347 . S
C146 H157 0.931 . S
C147 N145 1.384 . S
C147 C149 1.350 . S
C147 H156 0.930 . S
N148 C146 1.347 . S
N148 C149 1.373 1_565 S
C149 C147 1.350 . S
C149 N148 1.373 1_545 S
C149 H163 0.931 . S
C150 O153 1.256 . S
C150 O154 1.249 1_565 S
O151 Co134 2.021 . S
O151 C144 1.259 . S
O152 Co136 2.117 1_545 S
O152 C144 1.258 . S
O153 Co136 2.020 . S
O153 C150 1.256 . S
O154 Co134 2.065 . S
O154 C150 1.249 1_545 S
O155 C135 1.259 . S
O155 Co136 2.021 . S
H156 C147 0.930 . S
H157 C146 0.931 . S
O158 Co134 2.117 1_565 S
O158 C135 1.258 . S
O159 Co134 2.020 . S
O159 C161 1.256 . S
O160 Co136 2.062 . S
O160 C161 1.254 1_565 S
C161 O159 1.256 . S
C161 O160 1.254 1_545 S
H162 C141 0.931 1_554 S
H163 C149 0.931 . S
Co164 N169 2.057 . S
Co164 O181 2.021 . S
Co164 O184 2.062 . S
Co164 O188 2.117 . S
Co164 O189 2.020 . S
C165 O185 1.259 . S
C165 O188 1.258 . S
Co166 N175 2.057 . S
Co166 O182 2.117 . S
Co166 O183 2.020 . S
Co166 O185 2.021 . S
Co166 O190 2.062 . S
C167 N169 1.316 . S
C167 N170 1.347 . S
C167 H172 0.931 . S
C168 N169 1.375 . S
C168 C171 1.350 . S
C168 H173 0.930 . S
N169 Co164 2.057 . S
N169 C167 1.316 . S
N169 C168 1.375 . S
N170 C167 1.347 . S
N170 C171 1.373 . S
C171 C168 1.350 . S
C171 N170 1.373 . S
C171 H192 0.931 . S
H172 C167 0.931 . S
H173 C168 0.930 . S
C174 O181 1.259 . S
C174 O182 1.258 . S
N175 Co166 2.057 . S
N175 C176 1.316 . S
N175 C177 1.375 . S
C176 N175 1.316 . S
C176 N178 1.347 . S
C176 H187 0.931 . S
C177 N175 1.375 . S
C177 C179 1.350 . S
C177 H186 0.930 . S
N178 C176 1.347 . S
N178 C179 1.373 . S
C179 C177 1.350 . S
C179 N178 1.373 . S
C179 H193 0.931 . S
C180 O183 1.256 . S
C180 O184 1.255 . S
O181 Co164 2.021 . S
O181 C174 1.259 . S
O182 Co166 2.117 . S
O182 C174 1.258 . S
O183 Co166 2.020 . S
O183 C180 1.256 . S
O184 Co164 2.062 . S
O184 C180 1.255 . S
O185 C165 1.259 . S
O185 Co166 2.021 . S
H186 C177 0.930 . S
H187 C176 0.931 . S
O188 Co164 2.117 . S
O188 C165 1.258 . S
O189 Co164 2.020 . S
O189 C191 1.256 . S
O190 Co166 2.062 . S
O190 C191 1.255 . S
C191 O189 1.256 . S
C191 O190 1.255 . S
H192 C171 0.931 . S
H193 C179 0.931 . S
Co194 N199 2.057 . S
Co194 O211 2.021 1_455 S
Co194 O214 2.062 1_455 S
Co194 O218 2.117 . S
Co194 O219 2.020 . S
C195 O215 1.259 . S
C195 O218 1.258 . S
Co196 N205 2.057 . S
Co196 O212 2.117 1_455 S
Co196 O213 2.020 1_455 S
Co196 O215 2.021 . S
Co196 O220 2.062 . S
C197 N199 1.316 1_655 S
C197 N200 1.353 . S
C197 H202 0.931 . S
C198 N199 1.375 . S
C198 C201 1.350 . S
C198 H203 0.930 . S
N199 Co194 2.057 . S
N199 C197 1.316 1_455 S
N199 C198 1.375 . S
N200 C197 1.353 . S
N200 C201 1.349 1_655 S
C201 C198 1.350 . S
C201 N200 1.349 1_455 S
C201 H222 0.931 . S
H202 C197 0.931 . S
H203 C198 0.930 . S
C204 O211 1.259 . S
C204 O212 1.258 . S
N205 Co196 2.057 . S
N205 C206 1.316 . S
N205 C207 1.375 1_455 S
C206 N205 1.316 . S
C206 N208 1.347 . S
C206 H217 0.931 . S
C207 N205 1.375 1_655 S
C207 C209 1.350 . S
C207 H216 0.930 . S
N208 C206 1.347 . S
N208 C209 1.373 1_455 S
C209 C207 1.350 . S
C209 N208 1.373 1_655 S
C209 H223 0.931 . S
C210 O213 1.256 . S
C210 O214 1.255 . S
O211 Co194 2.021 1_655 S
O211 C204 1.259 . S
O212 Co196 2.117 1_655 S
O212 C204 1.258 . S
O213 Co196 2.020 1_655 S
O213 C210 1.256 . S
O214 Co194 2.062 1_655 S
O214 C210 1.255 . S
O215 C195 1.259 . S
O215 Co196 2.021 . S
H216 C207 0.930 . S
H217 C206 0.931 . S
O218 Co194 2.117 . S
O218 C195 1.258 . S
O219 Co194 2.020 . S
O219 C221 1.256 . S
O220 Co196 2.062 . S
O220 C221 1.255 . S
C221 O219 1.256 . S
C221 O220 1.255 . S
H222 C201 0.931 . S
H223 C209 0.931 . S
H224 C242 0.951 . S
H225 C244 0.951 . S
H226 C246 0.950 . S
H227 C247 0.950 . S
H228 C249 0.950 . S
H229 C252 0.950 . S
H230 C253 0.950 . S
H231 C255 0.950 . S
H232 C256 0.950 . S
H233 C257 0.951 . S
H234 C259 0.951 . S
H235 C261 0.950 . S
H236 C262 0.950 . S
H237 C264 0.950 . S
H238 C267 0.950 . S
H239 C268 0.950 . S
H240 C270 0.950 . S
H241 C271 0.950 . S
C242 H224 0.951 . S
C242 C243 1.362 1_545 S
C242 C244 1.388 . S
C243 C242 1.362 1_565 S
C243 C247 1.388 . S
C244 H225 0.951 . S
C244 C242 1.388 . S
C244 C245 1.366 1_545 S
C245 C244 1.366 1_565 S
C245 C246 1.414 . S
C245 C248 1.499 . S
C246 H226 0.950 . S
C246 C245 1.414 . S
C246 C247 1.374 . S
C247 H227 0.950 . S
C247 C243 1.388 . S
C247 C246 1.374 . S
C248 C245 1.499 . S
C248 C249 1.373 . S
C248 C250 1.389 1_565 S
C249 H228 0.950 . S
C249 C248 1.373 . S
C249 C265 1.377 . S
C250 C248 1.389 1_545 S
C250 C251 1.524 . S
C250 C264 1.377 . S
C251 C250 1.524 . S
C251 C252 1.397 1_545 S
C251 C256 1.363 . S
C252 H229 0.950 . S
C252 C251 1.397 1_565 S
C252 C253 1.334 . S
C253 H230 0.950 . S
C253 C252 1.334 . S
C253 C254 1.287 1_565 S
C254 C253 1.287 1_545 S
C254 C255 1.524 . S
C254 H273 0.913 . S
C255 H231 0.950 . S
C255 C254 1.524 . S
C255 C256 1.415 . S
C256 H232 0.950 . S
C256 C251 1.363 . S
C256 C255 1.415 . S
C257 H233 0.951 . S
C257 C258 1.366 . S
C257 C259 1.388 . S
C258 C257 1.366 . S
C258 C262 1.385 1_565 S
C259 H234 0.951 . S
C259 C257 1.388 . S
C259 C260 1.366 . S
C260 C259 1.366 . S
C260 C261 1.414 1_565 S
C260 C263 1.499 . S
C261 H235 0.950 . S
C261 C260 1.414 1_545 S
C261 C262 1.374 . S
C262 H236 0.950 . S
C262 C258 1.385 1_545 S
C262 C261 1.374 . S
C263 C260 1.499 . S
C263 C264 1.373 1_565 S
C263 C265 1.389 . S
C264 H237 0.950 . S
C264 C250 1.377 . S
C264 C263 1.373 1_545 S
C265 C249 1.377 . S
C265 C263 1.389 . S
C265 C266 1.524 . S
C266 C265 1.524 . S
C266 C267 1.397 1_565 S
C266 C271 1.363 . S
C267 H238 0.950 . S
C267 C266 1.397 1_545 S
C267 C268 1.334 . S
C268 H239 0.950 . S
C268 C267 1.334 . S
C268 C269 1.287 1_545 S
C269 C268 1.287 1_565 S
C269 C270 1.524 . S
C269 H272 0.999 . S
C270 H240 0.950 . S
C270 C269 1.524 . S
C270 C271 1.415 . S
C271 H241 0.950 . S
C271 C266 1.363 . S
C271 C270 1.415 . S
H272 C269 0.999 . S
H273 C254 0.913 . S
H274 C292 0.951 . S
H275 C294 0.951 . S
H276 C296 0.950 . S
H277 C297 0.950 . S
H278 C299 0.950 . S
H279 C302 0.950 . S
H280 C303 0.950 . S
H281 C305 0.950 . S
H282 C306 0.950 . S
H283 C307 0.951 . S
H284 C309 0.951 . S
H285 C311 0.950 . S
H286 C312 0.950 . S
H287 C314 0.950 . S
H288 C317 0.950 . S
H289 C318 0.950 . S
H290 C320 0.950 . S
H291 C321 0.950 . S
C292 H274 0.951 . S
C292 C293 1.366 . S
C292 C294 1.388 . S
C293 C292 1.366 . S
C293 C297 1.385 . S
C294 H275 0.951 . S
C294 C292 1.388 . S
C294 C295 1.366 . S
C295 C294 1.366 . S
C295 C296 1.414 . S
C295 C298 1.499 . S
C296 H276 0.950 . S
C296 C295 1.414 . S
C296 C297 1.374 . S
C297 H277 0.950 . S
C297 C293 1.385 . S
C297 C296 1.374 . S
C298 C295 1.499 . S
C298 C299 1.373 . S
C298 C300 1.389 . S
C299 H278 0.950 . S
C299 C298 1.373 . S
C299 C315 1.377 . S
C300 C298 1.389 . S
C300 C301 1.524 . S
C300 C314 1.377 . S
C301 C300 1.524 . S
C301 C302 1.397 . S
C301 C306 1.363 . S
C302 H279 0.950 . S
C302 C301 1.397 . S
C302 C303 1.334 . S
C303 H280 0.950 . S
C303 C302 1.334 . S
C303 C304 1.287 . S
C304 C303 1.287 . S
C304 C305 1.524 . S
C304 H323 0.913 . S
C305 H281 0.950 . S
C305 C304 1.524 . S
C305 C306 1.415 . S
C306 H282 0.950 . S
C306 C301 1.363 . S
C306 C305 1.415 . S
C307 H283 0.951 . S
C307 C308 1.366 . S
C307 C309 1.388 . S
C308 C307 1.366 . S
C308 C312 1.385 . S
C309 H284 0.951 . S
C309 C307 1.388 . S
C309 C310 1.366 . S
C310 C309 1.366 . S
C310 C311 1.414 . S
C310 C313 1.499 . S
C311 H285 0.950 . S
C311 C310 1.414 . S
C311 C312 1.374 . S
C312 H286 0.950 . S
C312 C308 1.385 . S
C312 C311 1.374 . S
C313 C310 1.499 . S
C313 C314 1.373 . S
C313 C315 1.389 . S
C314 H287 0.950 . S
C314 C300 1.377 . S
C314 C313 1.373 . S
C315 C299 1.377 . S
C315 C313 1.389 . S
C315 C316 1.524 . S
C316 C315 1.524 . S
C316 C317 1.397 . S
C316 C321 1.363 . S
C317 H288 0.950 . S
C317 C316 1.397 . S
C317 C318 1.334 . S
C318 H289 0.950 . S
C318 C317 1.334 . S
C318 C319 1.287 . S
C319 C318 1.287 . S
C319 C320 1.524 . S
C319 H322 0.999 . S
C320 H290 0.950 . S
C320 C319 1.524 . S
C320 C321 1.415 . S
C321 H291 0.950 . S
C321 C316 1.363 . S
C321 C320 1.415 . S
H322 C319 0.999 . S
H323 C304 0.913 . S
H324 C342 0.951 . S
H325 C344 0.951 . S
H326 C346 0.950 . S
H327 C347 0.950 . S
H328 C349 0.950 . S
H329 C352 0.950 . S
H330 C353 0.950 . S
H331 C355 0.950 . S
H332 C356 0.950 . S
H333 C357 0.951 . S
H334 C359 0.951 . S
H335 C361 0.950 . S
H336 C362 0.950 . S
H337 C364 0.950 . S
H338 C367 0.950 . S
H339 C368 0.950 . S
H340 C370 0.950 . S
H341 C371 0.950 . S
C342 H324 0.951 . S
C342 C343 1.366 . S
C342 C344 1.388 . S
C343 C342 1.366 . S
C343 C347 1.385 . S
C344 H325 0.951 . S
C344 C342 1.388 . S
C344 C345 1.366 . S
C345 C344 1.366 . S
C345 C346 1.414 . S
C345 C348 1.499 . S
C346 H326 0.950 . S
C346 C345 1.414 . S
C346 C347 1.374 . S
C347 H327 0.950 . S
C347 C343 1.385 . S
C347 C346 1.374 . S
C348 C345 1.499 . S
C348 C349 1.373 . S
C348 C350 1.389 . S
C349 H328 0.950 . S
C349 C348 1.373 . S
C349 C365 1.377 . S
C350 C348 1.389 . S
C350 C351 1.524 . S
C350 C364 1.377 . S
C351 C350 1.524 . S
C351 C352 1.397 . S
C351 C356 1.363 . S
C352 H329 0.950 . S
C352 C351 1.397 . S
C352 C353 1.334 . S
C353 H330 0.950 . S
C353 C352 1.334 . S
C353 C354 1.287 . S
C354 C353 1.287 . S
C354 C355 1.524 . S
C354 H373 0.913 . S
C355 H331 0.950 . S
C355 C354 1.524 . S
C355 C356 1.415 . S
C356 H332 0.950 . S
C356 C351 1.363 . S
C356 C355 1.415 . S
C357 H333 0.951 . S
C357 C358 1.366 . S
C357 C359 1.388 . S
C358 C357 1.366 . S
C358 C362 1.385 . S
C359 H334 0.951 . S
C359 C357 1.388 . S
C359 C360 1.366 . S
C360 C359 1.366 . S
C360 C361 1.414 . S
C360 C363 1.499 . S
C361 H335 0.950 . S
C361 C360 1.414 . S
C361 C362 1.374 . S
C362 H336 0.950 . S
C362 C358 1.385 . S
C362 C361 1.374 . S
C363 C360 1.499 . S
C363 C364 1.373 . S
C363 C365 1.389 . S
C364 H337 0.950 . S
C364 C350 1.377 . S
C364 C363 1.373 . S
C365 C349 1.377 . S
C365 C363 1.389 . S
C365 C366 1.524 . S
C366 C365 1.524 . S
C366 C367 1.397 . S
C366 C371 1.363 . S
C367 H338 0.950 . S
C367 C366 1.397 . S
C367 C368 1.334 . S
C368 H339 0.950 . S
C368 C367 1.334 . S
C368 C369 1.287 . S
C369 C368 1.287 . S
C369 C370 1.524 . S
C369 H372 0.999 . S
C370 H340 0.950 . S
C370 C369 1.524 . S
C370 C371 1.415 . S
C371 H341 0.950 . S
C371 C366 1.363 . S
C371 C370 1.415 . S
H372 C369 0.999 . S
H373 C354 0.913 . S
H374 C392 0.951 . S
H375 C394 0.951 . S
H376 C396 0.950 . S
H377 C397 0.950 . S
H378 C399 0.950 . S
H379 C402 0.950 . S
H380 C403 0.950 . S
H381 C405 0.950 . S
H382 C406 0.950 . S
H383 C407 0.951 1_655 S
H384 C409 0.951 1_655 S
H385 C411 0.950 . S
H386 C412 0.950 . S
H387 C414 0.950 . S
H388 C417 0.950 . S
H389 C418 0.947 1_455 S
H390 C420 0.950 . S
H391 C421 0.950 . S
C392 H374 0.951 . S
C392 C393 1.366 . S
C392 C394 1.388 . S
C393 C392 1.366 . S
C393 C397 1.385 . S
C394 H375 0.951 . S
C394 C392 1.388 . S
C394 C395 1.366 . S
C395 C394 1.366 . S
C395 C396 1.414 . S
C395 C398 1.499 . S
C396 H376 0.950 . S
C396 C395 1.414 . S
C396 C397 1.374 . S
C397 H377 0.950 . S
C397 C393 1.385 . S
C397 C396 1.374 . S
C398 C395 1.499 . S
C398 C399 1.373 . S
C398 C400 1.389 . S
C399 H378 0.950 . S
C399 C398 1.373 . S
C399 C415 1.377 . S
C400 C398 1.389 . S
C400 C401 1.524 . S
C400 C414 1.377 . S
C401 C400 1.524 . S
C401 C402 1.397 . S
C401 C406 1.363 . S
C402 H379 0.950 . S
C402 C401 1.397 . S
C402 C403 1.334 . S
C403 H380 0.950 . S
C403 C402 1.334 . S
C403 C404 1.287 . S
C404 C403 1.287 . S
C404 C405 1.524 . S
C404 H423 0.913 . S
C405 H381 0.950 . S
C405 C404 1.524 . S
C405 C406 1.415 . S
C406 H382 0.950 . S
C406 C401 1.363 . S
C406 C405 1.415 . S
C407 H383 0.951 1_455 S
C407 C408 1.366 . S
C407 C409 1.388 . S
C408 C407 1.366 . S
C408 C412 1.385 . S
C409 H384 0.951 1_455 S
C409 C407 1.388 . S
C409 C410 1.366 . S
C410 C409 1.366 . S
C410 C411 1.414 . S
C410 C413 1.499 . S
C411 H385 0.950 . S
C411 C410 1.414 . S
C411 C412 1.374 . S
C412 H386 0.950 . S
C412 C408 1.385 . S
C412 C411 1.374 . S
C413 C410 1.499 . S
C413 C414 1.373 . S
C413 C415 1.389 . S
C414 H387 0.950 . S
C414 C400 1.377 . S
C414 C413 1.373 . S
C415 C399 1.377 . S
C415 C413 1.389 . S
C415 C416 1.524 . S
C416 C415 1.524 . S
C416 C417 1.397 . S
C416 C421 1.363 1_455 S
C417 H388 0.950 . S
C417 C416 1.397 . S
C417 C418 1.325 1_455 S
C418 H389 0.947 1_655 S
C418 C417 1.325 1_655 S
C418 C419 1.300 . S
C419 C418 1.300 . S
C419 C420 1.524 . S
C419 H422 0.999 . S
C420 H390 0.950 . S
C420 C419 1.524 . S
C420 C421 1.415 . S
C421 H391 0.950 . S
C421 C416 1.363 1_655 S
C421 C420 1.415 . S
H422 C419 0.999 . S
H423 C404 0.913 . S
H424 C442 0.951 . S
H425 C444 0.951 . S
H426 C446 0.950 . S
H427 C447 0.950 . S
H428 C449 0.950 . S
H429 C452 0.950 . S
H430 C453 0.950 . S
H431 C455 0.950 . S
H432 C456 0.950 . S
H433 C457 0.951 . S
H434 C459 0.951 . S
H435 C461 0.950 . S
H436 C462 0.950 . S
H437 C464 0.950 . S
H438 C467 0.950 . S
H439 C468 0.950 . S
H440 C470 0.950 . S
H441 C471 0.950 . S
C442 H424 0.951 . S
C442 C443 1.356 1_565 S
C442 C444 1.388 . S
C443 C442 1.356 1_545 S
C443 C447 1.394 1_554 S
C444 H425 0.951 . S
C444 C442 1.388 . S
C444 C445 1.366 1_564 S
C445 C444 1.366 1_546 S
C445 C446 1.414 . S
C445 C448 1.499 . S
C446 H426 0.950 . S
C446 C445 1.414 . S
C446 C447 1.374 . S
C447 H427 0.950 . S
C447 C443 1.394 1_556 S
C447 C446 1.374 . S
C448 C445 1.499 . S
C448 C449 1.373 . S
C448 C450 1.389 . S
C449 H428 0.950 . S
C449 C448 1.373 . S
C449 C465 1.383 . S
C450 C448 1.389 . S
C450 C451 1.524 1_556 S
C450 C464 1.377 . S
C451 C450 1.524 1_554 S
C451 C452 1.397 . S
C451 C456 1.363 1_545 S
C452 H429 0.950 . S
C452 C451 1.397 . S
C452 C453 1.334 . S
C453 H430 0.950 . S
C453 C452 1.334 . S
C453 C454 1.287 . S
C454 C453 1.287 . S
C454 C455 1.524 1_545 S
C454 H473 0.913 . S
C455 H431 0.950 . S
C455 C454 1.524 1_565 S
C455 C456 1.415 . S
C456 H432 0.950 . S
C456 C451 1.363 1_565 S
C456 C455 1.415 . S
C457 H433 0.951 . S
C457 C458 1.366 . S
C457 C459 1.388 . S
C458 C457 1.366 . S
C458 C462 1.385 1_545 S
C459 H434 0.951 . S
C459 C457 1.388 . S
C459 C460 1.366 . S
C460 C459 1.366 . S
C460 C461 1.414 1_545 S
C460 C463 1.499 . S
C461 H435 0.950 . S
C461 C460 1.414 1_565 S
C461 C462 1.374 . S
C462 H436 0.950 . S
C462 C458 1.385 1_565 S
C462 C461 1.374 . S
C463 C460 1.499 . S
C463 C464 1.373 . S
C463 C465 1.394 . S
C464 H437 0.950 . S
C464 C450 1.377 . S
C464 C463 1.373 . S
C465 C449 1.383 . S
C465 C463 1.394 . S
C465 C466 1.513 1_545 S
C466 C465 1.513 1_565 S
C466 C467 1.397 . S
C466 C471 1.363 1_565 S
C467 H438 0.950 . S
C467 C466 1.397 . S
C467 C468 1.334 . S
C468 H439 0.950 . S
C468 C467 1.334 . S
C468 C469 1.287 . S
C469 C468 1.287 . S
C469 C470 1.524 1_565 S
C469 H472 0.999 . S
C470 H440 0.950 . S
C470 C469 1.524 1_545 S
C470 C471 1.415 . S
C471 H441 0.950 . S
C471 C466 1.363 1_545 S
C471 C470 1.415 . S
H472 C469 0.999 . S
H473 C454 0.913 . S
H474 C492 0.951 . S
H475 C494 0.951 . S
H476 C496 0.950 . S
H477 C497 0.950 . S
H478 C499 0.950 . S
H479 C502 0.950 . S
H480 C503 0.950 . S
H481 C505 0.950 . S
H482 C506 0.950 . S
H483 C507 0.951 . S
H484 C509 0.951 . S
H485 C511 0.950 . S
H486 C512 0.950 . S
H487 C514 0.950 . S
H488 C517 0.950 . S
H489 C518 0.950 . S
H490 C520 0.950 . S
H491 C521 0.950 . S
C492 H474 0.951 . S
C492 C493 1.366 . S
C492 C494 1.388 . S
C493 C492 1.366 . S
C493 C497 1.385 1_554 S
C494 H475 0.951 . S
C494 C492 1.388 . S
C494 C495 1.366 1_554 S
C495 C494 1.366 1_556 S
C495 C496 1.414 . S
C495 C498 1.499 . S
C496 H476 0.950 . S
C496 C495 1.414 . S
C496 C497 1.374 . S
C497 H477 0.950 . S
C497 C493 1.385 1_556 S
C497 C496 1.374 . S
C498 C495 1.499 . S
C498 C499 1.373 . S
C498 C500 1.389 . S
C499 H478 0.950 . S
C499 C498 1.373 . S
C499 C515 1.377 . S
C500 C498 1.389 . S
C500 C501 1.524 1_556 S
C500 C514 1.377 . S
C501 C500 1.524 1_554 S
C501 C502 1.397 . S
C501 C506 1.363 . S
C502 H479 0.950 . S
C502 C501 1.397 . S
C502 C503 1.334 . S
C503 H480 0.950 . S
C503 C502 1.334 . S
C503 C504 1.287 . S
C504 C503 1.287 . S
C504 C505 1.524 . S
C504 H523 0.913 . S
C505 H481 0.950 . S
C505 C504 1.524 . S
C505 C506 1.415 . S
C506 H482 0.950 . S
C506 C501 1.363 . S
C506 C505 1.415 . S
C507 H483 0.951 . S
C507 C508 1.366 . S
C507 C509 1.388 . S
C508 C507 1.366 . S
C508 C512 1.385 . S
C509 H484 0.951 . S
C509 C507 1.388 . S
C509 C510 1.366 . S
C510 C509 1.366 . S
C510 C511 1.414 . S
C510 C513 1.499 . S
C511 H485 0.950 . S
C511 C510 1.414 . S
C511 C512 1.374 . S
C512 H486 0.950 . S
C512 C508 1.385 . S
C512 C511 1.374 . S
C513 C510 1.499 . S
C513 C514 1.373 . S
C513 C515 1.389 . S
C514 H487 0.950 . S
C514 C500 1.377 . S
C514 C513 1.373 . S
C515 C499 1.377 . S
C515 C513 1.389 . S
C515 C516 1.524 . S
C516 C515 1.524 . S
C516 C517 1.397 . S
C516 C521 1.363 . S
C517 H488 0.950 . S
C517 C516 1.397 . S
C517 C518 1.334 . S
C518 H489 0.950 . S
C518 C517 1.334 . S
C518 C519 1.287 . S
C519 C518 1.287 . S
C519 C520 1.524 . S
C519 H522 0.999 . S
C520 H490 0.950 . S
C520 C519 1.524 . S
C520 C521 1.415 . S
C521 H491 0.950 . S
C521 C516 1.363 . S
C521 C520 1.415 . S
H522 C519 0.999 . S
H523 C504 0.913 . S
H524 C542 0.951 . S
H525 C544 0.951 . S
H526 C546 0.943 1_556 S
H527 C547 0.950 . S
H528 C549 0.950 . S
H529 C552 0.950 . S
H530 C553 0.950 . S
H531 C555 0.950 . S
H532 C556 0.950 . S
H533 C557 0.951 . S
H534 C559 0.951 . S
H535 C561 0.950 . S
H536 C562 0.950 . S
H537 C564 0.950 . S
H538 C567 0.950 . S
H539 C568 0.950 . S
H540 C570 0.950 . S
H541 C571 0.950 . S
C542 H524 0.951 . S
C542 C543 1.366 . S
C542 C544 1.388 . S
C543 C542 1.366 . S
C543 C547 1.385 . S
C544 H525 0.951 . S
C544 C542 1.388 . S
C544 C545 1.366 . S
C545 C544 1.366 . S
C545 C546 1.414 . S
C545 C548 1.499 . S
C546 H526 0.943 1_554 S
C546 C545 1.414 . S
C546 C547 1.374 . S
C547 H527 0.950 . S
C547 C543 1.385 . S
C547 C546 1.374 . S
C548 C545 1.499 . S
C548 C549 1.373 . S
C548 C550 1.389 1_554 S
C549 H528 0.950 . S
C549 C548 1.373 . S
C549 C565 1.377 1_554 S
C550 C548 1.389 1_556 S
C550 C551 1.524 . S
C550 C564 1.377 . S
C551 C550 1.524 . S
C551 C552 1.397 . S
C551 C556 1.363 1_556 S
C552 H529 0.950 . S
C552 C551 1.397 . S
C552 C553 1.334 . S
C553 H530 0.950 . S
C553 C552 1.334 . S
C553 C554 1.287 . S
C554 C553 1.287 . S
C554 C555 1.524 1_556 S
C554 H573 0.913 . S
C555 H531 0.950 . S
C555 C554 1.524 1_554 S
C555 C556 1.415 . S
C556 H532 0.950 . S
C556 C551 1.363 1_554 S
C556 C555 1.415 . S
C557 H533 0.951 . S
C557 C558 1.366 . S
C557 C559 1.388 . S
C558 C557 1.366 . S
C558 C562 1.385 . S
C559 H534 0.951 . S
C559 C557 1.388 . S
C559 C560 1.366 . S
C560 C559 1.366 . S
C560 C561 1.414 . S
C560 C563 1.499 . S
C561 H535 0.950 . S
C561 C560 1.414 . S
C561 C562 1.374 . S
C562 H536 0.950 . S
C562 C558 1.385 . S
C562 C561 1.374 . S
C563 C560 1.499 . S
C563 C564 1.373 . S
C563 C565 1.389 . S
C564 H537 0.950 . S
C564 C550 1.377 . S
C564 C563 1.373 . S
C565 C549 1.377 1_556 S
C565 C563 1.389 . S
C565 C566 1.524 . S
C566 C565 1.524 . S
C566 C567 1.397 1_556 S
C566 C571 1.363 . S
C567 H538 0.950 . S
C567 C566 1.397 1_554 S
C567 C568 1.334 . S
C568 H539 0.950 . S
C568 C567 1.334 . S
C568 C569 1.287 1_554 S
C569 C568 1.287 1_556 S
C569 C570 1.524 . S
C569 H572 0.999 . S
C570 H540 0.950 . S
C570 C569 1.524 . S
C570 C571 1.415 . S
C571 H541 0.950 . S
C571 C566 1.363 . S
C571 C570 1.415 . S
H572 C569 0.999 . S
H573 C554 0.913 . S
H574 C592 0.951 . S
H575 C594 0.951 . S
H576 C596 0.950 . S
H577 C597 0.950 . S
H578 C599 0.950 . S
H579 C602 0.950 . S
H580 C603 0.950 . S
H581 C605 0.950 . S
H582 C606 0.950 . S
H583 C607 0.951 . S
H584 C609 0.991 . S
H585 C611 0.950 . S
H586 C612 0.950 . S
H587 C614 0.950 . S
H588 C617 0.950 . S
H589 C618 0.950 . S
H590 C620 0.950 . S
H591 C621 0.950 . S
C592 H574 0.951 . S
C592 C593 1.366 . S
C592 C594 1.388 . S
C593 C592 1.366 . S
C593 C597 1.385 . S
C594 H575 0.951 . S
C594 C592 1.388 . S
C594 C595 1.366 . S
C595 C594 1.366 . S
C595 C596 1.414 . S
C595 C598 1.499 1_554 S
C596 H576 0.950 . S
C596 C595 1.414 . S
C596 C597 1.374 . S
C597 H577 0.950 . S
C597 C593 1.385 . S
C597 C596 1.374 . S
C598 C595 1.499 1_556 S
C598 C599 1.373 . S
C598 C600 1.389 1_556 S
C599 H578 0.950 . S
C599 C598 1.373 . S
C599 C615 1.377 . S
C600 C598 1.389 1_554 S
C600 C601 1.524 . S
C600 C614 1.377 1_554 S
C601 C600 1.524 . S
C601 C602 1.397 . S
C601 C606 1.363 . S
C602 H579 0.950 . S
C602 C601 1.397 . S
C602 C603 1.334 . S
C603 H580 0.950 . S
C603 C602 1.334 . S
C603 C604 1.287 . S
C604 C603 1.287 . S
C604 C605 1.524 . S
C604 H623 0.913 . S
C605 H581 0.950 . S
C605 C604 1.524 . S
C605 C606 1.415 . S
C606 H582 0.950 . S
C606 C601 1.363 . S
C606 C605 1.415 . S
C607 H583 0.951 . S
C607 C608 1.366 1_455 S
C607 C609 1.403 . S
C608 C607 1.366 1_655 S
C608 C612 1.385 . S
C609 H584 0.991 . S
C609 C607 1.403 . S
C609 C610 1.312 1_455 S
C610 C609 1.312 1_655 S
C610 C611 1.414 . S
C610 C613 1.499 . S
C611 H585 0.950 . S
C611 C610 1.414 . S
C611 C612 1.374 . S
C612 H586 0.950 . S
C612 C608 1.385 . S
C612 C611 1.374 . S
C613 C610 1.499 . S
C613 C614 1.373 . S
C613 C615 1.389 . S
C614 H587 0.950 . S
C614 C600 1.377 1_556 S
C614 C613 1.373 . S
C615 C599 1.377 . S
C615 C613 1.389 . S
C615 C616 1.524 . S
C616 C615 1.524 . S
C616 C617 1.397 . S
C616 C621 1.363 1_655 S
C617 H588 0.950 . S
C617 C616 1.397 . S
C617 C618 1.334 . S
C618 H589 0.950 . S
C618 C617 1.334 . S
C618 C619 1.287 1_655 S
C619 C618 1.287 1_455 S
C619 C620 1.524 . S
C619 H622 0.999 . S
C620 H590 0.950 . S
C620 C619 1.524 . S
C620 C621 1.415 . S
C621 H591 0.950 . S
C621 C616 1.363 1_455 S
C621 C620 1.415 . S
H622 C619 0.999 . S
H623 C604 0.913 . S
H624 C642 0.951 . S
H625 C644 0.951 . S
H626 C646 0.950 . S
H627 C647 0.950 . S
H628 C649 0.950 . S
H629 C652 0.950 . S
H630 C653 0.971 . S
H631 C655 0.950 . S
H632 C656 0.950 . S
H633 C657 0.951 . S
H634 C659 0.951 . S
H635 C661 0.950 . S
H636 C662 0.950 . S
H637 C664 0.919 1_655 S
H638 C667 0.950 . S
H639 C668 0.950 . S
H640 C670 0.950 . S
H641 C671 0.950 . S
C642 H624 0.951 . S
C642 C643 1.366 . S
C642 C644 1.388 . S
C643 C642 1.366 . S
C643 C647 1.385 . S
C644 H625 0.951 . S
C644 C642 1.388 . S
C644 C645 1.366 . S
C645 C644 1.366 . S
C645 C646 1.414 . S
C645 C648 1.499 . S
C646 H626 0.950 . S
C646 C645 1.414 . S
C646 C647 1.374 . S
C647 H627 0.950 . S
C647 C643 1.385 . S
C647 C646 1.374 . S
C648 C645 1.499 . S
C648 C649 1.373 . S
C648 C650 1.389 . S
C649 H628 0.950 . S
C649 C648 1.373 . S
C649 C665 1.377 . S
C650 C648 1.389 . S
C650 C651 1.524 . S
C650 C664 1.377 . S
C651 C650 1.524 . S
C651 C652 1.397 . S
C651 C656 1.363 1_455 S
C652 H629 0.950 . S
C652 C651 1.397 . S
C652 C653 1.369 . S
C653 H630 0.971 . S
C653 C652 1.369 . S
C653 C654 1.232 1_455 S
C654 C653 1.232 1_655 S
C654 C655 1.524 . S
C654 H673 0.913 . S
C655 H631 0.950 . S
C655 C654 1.524 . S
C655 C656 1.415 . S
C656 H632 0.950 . S
C656 C651 1.363 1_655 S
C656 C655 1.415 . S
C657 H633 0.951 . S
C657 C658 1.366 . S
C657 C659 1.388 . S
C658 C657 1.366 . S
C658 C662 1.385 1_455 S
C659 H634 0.951 . S
C659 C657 1.388 . S
C659 C660 1.366 . S
C660 C659 1.366 . S
C660 C661 1.414 1_455 S
C660 C663 1.499 . S
C661 H635 0.950 . S
C661 C660 1.414 1_655 S
C661 C662 1.374 . S
C662 H636 0.950 . S
C662 C658 1.385 1_655 S
C662 C661 1.374 . S
C663 C660 1.499 . S
C663 C664 1.373 . S
C663 C665 1.389 . S
C664 H637 0.919 1_455 S
C664 C650 1.377 . S
C664 C663 1.373 . S
C665 C649 1.377 . S
C665 C663 1.389 . S
C665 C666 1.524 . S
C666 C665 1.524 . S
C666 C667 1.397 . S
C666 C671 1.363 . S
C667 H638 0.950 . S
C667 C666 1.397 . S
C667 C668 1.334 . S
C668 H639 0.950 . S
C668 C667 1.334 . S
C668 C669 1.287 . S
C669 C668 1.287 . S
C669 C670 1.524 . S
C669 H672 0.999 . S
C670 H640 0.950 . S
C670 C669 1.524 . S
C670 C671 1.415 . S
C671 H641 0.950 . S
C671 C666 1.363 . S
C671 C670 1.415 . S
H672 C669 0.999 . S
H673 C654 0.913 . S
H674 C692 0.951 . S
H675 C694 0.951 . S
H676 C696 0.950 . S
H677 C697 0.950 . S
H678 C699 0.950 . S
H679 C702 0.950 . S
H680 C703 0.950 . S
H681 C705 0.961 . S
H682 C706 0.950 . S
H683 C707 0.951 . S
H684 C709 0.951 . S
H685 C711 0.950 . S
H686 C712 0.950 . S
H687 C714 0.950 . S
H688 C717 0.950 . S
H689 C718 0.950 . S
H690 C720 0.950 1_545 S
H691 C721 0.954 . S
C692 H674 0.951 . S
C692 C693 1.361 1_565 S
C692 C694 1.388 . S
C693 C692 1.361 1_545 S
C693 C697 1.389 . S
C694 H675 0.951 . S
C694 C692 1.388 . S
C694 C695 1.376 . S
C695 C694 1.376 . S
C695 C696 1.404 1_565 S
C695 C698 1.499 . S
C696 H676 0.950 . S
C696 C695 1.404 1_545 S
C696 C697 1.374 . S
C697 H677 0.950 . S
C697 C693 1.389 . S
C697 C696 1.374 . S
C698 C695 1.499 . S
C698 C699 1.384 . S
C698 C700 1.381 1_565 S
C699 H678 0.950 . S
C699 C698 1.384 . S
C699 C715 1.377 . S
C700 C698 1.381 1_545 S
C700 C701 1.530 . S
C700 C714 1.375 1_545 S
C701 C700 1.530 . S
C701 C702 1.397 . S
C701 C706 1.363 1_545 S
C702 H679 0.950 . S
C702 C701 1.397 . S
C702 C703 1.334 . S
C703 H680 0.950 . S
C703 C702 1.334 . S
C703 C704 1.287 . S
C704 C703 1.287 . S
C704 C705 1.501 1_545 S
C704 H723 0.913 . S
C705 H681 0.961 . S
C705 C704 1.501 1_565 S
C705 C706 1.425 . S
C706 H682 0.950 . S
C706 C701 1.363 1_565 S
C706 C705 1.425 . S
C707 H683 0.951 . S
C707 C708 1.366 1_545 S
C707 C709 1.388 . S
C708 C707 1.366 1_565 S
C708 C712 1.385 . S
C709 H684 0.951 . S
C709 C707 1.388 . S
C709 C710 1.366 1_545 S
C710 C709 1.366 1_565 S
C710 C711 1.414 . S
C710 C713 1.499 . S
C711 H685 0.950 . S
C711 C710 1.414 . S
C711 C712 1.374 . S
C712 H686 0.950 . S
C712 C708 1.385 . S
C712 C711 1.374 . S
C713 C710 1.499 . S
C713 C714 1.373 . S
C713 C715 1.389 . S
C714 H687 0.950 . S
C714 C700 1.375 1_565 S
C714 C713 1.373 . S
C715 C699 1.377 . S
C715 C713 1.389 . S
C715 C716 1.524 . S
C716 C715 1.524 . S
C716 C717 1.397 . S
C716 C721 1.361 1_565 S
C717 H688 0.950 . S
C717 C716 1.397 . S
C717 C718 1.334 . S
C718 H689 0.950 . S
C718 C717 1.334 . S
C718 C719 1.287 . S
C719 C718 1.287 . S
C719 C720 1.524 . S
C719 H722 0.999 . S
C720 H690 0.950 1_565 S
C720 C719 1.524 . S
C720 C721 1.413 1_565 S
C721 H691 0.954 . S
C721 C716 1.361 1_545 S
C721 C720 1.413 1_545 S
H722 C719 0.999 . S
H723 C704 0.913 . S
H724 C742 0.951 . S
H725 C744 0.951 . S
H726 C746 0.950 . S
H727 C747 0.950 . S
H728 C749 0.950 . S
H729 C752 0.950 . S
H730 C753 0.950 . S
H731 C755 0.950 . S
H732 C756 0.950 . S
H733 C757 0.951 . S
H734 C759 0.951 . S
H735 C761 0.950 . S
H736 C762 0.950 . S
H737 C764 0.950 . S
H738 C767 0.950 . S
H739 C768 0.950 . S
H740 C770 0.950 . S
H741 C771 0.950 . S
C742 H724 0.951 . S
C742 C743 1.366 . S
C742 C744 1.388 . S
C743 C742 1.366 . S
C743 C747 1.385 . S
C744 H725 0.951 . S
C744 C742 1.388 . S
C744 C745 1.366 . S
C745 C744 1.366 . S
C745 C746 1.414 . S
C745 C748 1.499 . S
C746 H726 0.950 . S
C746 C745 1.414 . S
C746 C747 1.374 . S
C747 H727 0.950 . S
C747 C743 1.385 . S
C747 C746 1.374 . S
C748 C745 1.499 . S
C748 C749 1.373 . S
C748 C750 1.389 . S
C749 H728 0.950 . S
C749 C748 1.373 . S
C749 C765 1.377 . S
C750 C748 1.389 . S
C750 C751 1.524 . S
C750 C764 1.377 . S
C751 C750 1.524 . S
C751 C752 1.397 . S
C751 C756 1.363 . S
C752 H729 0.950 . S
C752 C751 1.397 . S
C752 C753 1.334 . S
C753 H730 0.950 . S
C753 C752 1.334 . S
C753 C754 1.287 . S
C754 C753 1.287 . S
C754 C755 1.524 . S
C754 H773 0.913 . S
C755 H731 0.950 . S
C755 C754 1.524 . S
C755 C756 1.415 . S
C756 H732 0.950 . S
C756 C751 1.363 . S
C756 C755 1.415 . S
C757 H733 0.951 . S
C757 C758 1.366 . S
C757 C759 1.388 . S
C758 C757 1.366 . S
C758 C762 1.385 . S
C759 H734 0.951 . S
C759 C757 1.388 . S
C759 C760 1.366 . S
C760 C759 1.366 . S
C760 C761 1.414 . S
C760 C763 1.499 . S
C761 H735 0.950 . S
C761 C760 1.414 . S
C761 C762 1.374 . S
C762 H736 0.950 . S
C762 C758 1.385 . S
C762 C761 1.374 . S
C763 C760 1.499 . S
C763 C764 1.373 . S
C763 C765 1.389 . S
C764 H737 0.950 . S
C764 C750 1.377 . S
C764 C763 1.373 . S
C765 C749 1.377 . S
C765 C763 1.389 . S
C765 C766 1.524 . S
C766 C765 1.524 . S
C766 C767 1.397 . S
C766 C771 1.363 . S
C767 H738 0.950 . S
C767 C766 1.397 . S
C767 C768 1.334 . S
C768 H739 0.950 . S
C768 C767 1.334 . S
C768 C769 1.287 . S
C769 C768 1.287 . S
C769 C770 1.524 . S
C769 H772 0.999 . S
C770 H740 0.950 . S
C770 C769 1.524 . S
C770 C771 1.415 . S
C771 H741 0.950 . S
C771 C766 1.363 . S
C771 C770 1.415 . S
H772 C769 0.999 . S
H773 C754 0.913 . S
H774 C792 0.951 . S
H775 C794 0.951 . S
H776 C796 0.950 . S
H777 C797 0.950 . S
H778 C799 0.950 . S
H779 C802 0.950 . S
H780 C803 0.950 . S
H781 C805 0.950 . S
H782 C806 0.950 . S
H783 C807 0.951 . S
H784 C809 0.951 . S
H785 C811 0.950 . S
H786 C812 0.950 . S
H787 C814 0.950 . S
H788 C817 0.950 . S
H789 C818 0.950 . S
H790 C820 0.950 . S
H791 C821 0.950 . S
C792 H774 0.951 . S
C792 C793 1.366 . S
C792 C794 1.388 . S
C793 C792 1.366 . S
C793 C797 1.385 . S
C794 H775 0.951 . S
C794 C792 1.388 . S
C794 C795 1.366 . S
C795 C794 1.366 . S
C795 C796 1.414 . S
C795 C798 1.499 . S
C796 H776 0.950 . S
C796 C795 1.414 . S
C796 C797 1.374 . S
C797 H777 0.950 . S
C797 C793 1.385 . S
C797 C796 1.374 . S
C798 C795 1.499 . S
C798 C799 1.373 . S
C798 C800 1.389 . S
C799 H778 0.950 . S
C799 C798 1.373 . S
C799 C815 1.377 . S
C800 C798 1.389 . S
C800 C801 1.524 . S
C800 C814 1.377 . S
C801 C800 1.524 . S
C801 C802 1.397 . S
C801 C806 1.363 . S
C802 H779 0.950 . S
C802 C801 1.397 . S
C802 C803 1.334 . S
C803 H780 0.950 . S
C803 C802 1.334 . S
C803 C804 1.287 . S
C804 C803 1.287 . S
C804 C805 1.524 . S
C804 H823 0.913 . S
C805 H781 0.950 . S
C805 C804 1.524 . S
C805 C806 1.415 . S
C806 H782 0.950 . S
C806 C801 1.363 . S
C806 C805 1.415 . S
C807 H783 0.951 . S
C807 C808 1.366 . S
C807 C809 1.388 . S
C808 C807 1.366 . S
C808 C812 1.385 . S
C809 H784 0.951 . S
C809 C807 1.388 . S
C809 C810 1.366 . S
C810 C809 1.366 . S
C810 C811 1.414 . S
C810 C813 1.499 . S
C811 H785 0.950 . S
C811 C810 1.414 . S
C811 C812 1.374 . S
C812 H786 0.950 . S
C812 C808 1.385 . S
C812 C811 1.374 . S
C813 C810 1.499 . S
C813 C814 1.373 . S
C813 C815 1.389 . S
C814 H787 0.950 . S
C814 C800 1.377 . S
C814 C813 1.373 . S
C815 C799 1.377 . S
C815 C813 1.389 . S
C815 C816 1.524 . S
C816 C815 1.524 . S
C816 C817 1.397 . S
C816 C821 1.363 . S
C817 H788 0.950 . S
C817 C816 1.397 . S
C817 C818 1.334 . S
C818 H789 0.950 . S
C818 C817 1.334 . S
C818 C819 1.287 . S
C819 C818 1.287 . S
C819 C820 1.524 . S
C819 H822 0.999 . S
C820 H790 0.950 . S
C820 C819 1.524 . S
C820 C821 1.415 . S
C821 H791 0.950 . S
C821 C816 1.363 . S
C821 C820 1.415 . S
H822 C819 0.999 . S
H823 C804 0.913 . S
H824 C842 0.951 . S
H825 C844 0.951 . S
H826 C846 0.950 . S
H827 C847 0.950 1_556 S
H828 C849 0.950 . S
H829 C852 0.950 1_556 S
H830 C853 0.950 . S
H831 C855 0.950 . S
H832 C856 0.950 . S
H833 C857 0.951 . S
H834 C859 0.951 . S
H835 C861 0.950 . S
H836 C862 0.953 . S
H837 C864 0.950 . S
H838 C867 0.950 . S
H839 C868 0.950 . S
H840 C870 0.950 . S
H841 C871 0.950 . S
C842 H824 0.951 . S
C842 C843 1.366 . S
C842 C844 1.388 . S
C843 C842 1.366 . S
C843 C847 1.385 . S
C844 H825 0.951 . S
C844 C842 1.388 . S
C844 C845 1.366 . S
C845 C844 1.366 . S
C845 C846 1.414 1_554 S
C845 C848 1.499 1_554 S
C846 H826 0.950 . S
C846 C845 1.414 1_556 S
C846 C847 1.374 1_556 S
C847 H827 0.950 1_554 S
C847 C843 1.385 . S
C847 C846 1.374 1_554 S
C848 C845 1.499 1_556 S
C848 C849 1.373 . S
C848 C850 1.389 . S
C849 H828 0.950 . S
C849 C848 1.373 . S
C849 C865 1.377 . S
C850 C848 1.389 . S
C850 C851 1.524 1_556 S
C850 C864 1.377 . S
C851 C850 1.524 1_554 S
C851 C852 1.397 . S
C851 C856 1.363 . S
C852 H829 0.950 1_554 S
C852 C851 1.397 . S
C852 C853 1.334 . S
C853 H830 0.950 . S
C853 C852 1.334 . S
C853 C854 1.287 . S
C854 C853 1.287 . S
C854 C855 1.524 . S
C854 H873 0.913 . S
C855 H831 0.950 . S
C855 C854 1.524 . S
C855 C856 1.415 . S
C856 H832 0.950 . S
C856 C851 1.363 . S
C856 C855 1.415 . S
C857 H833 0.951 . S
C857 C858 1.366 . S
C857 C859 1.388 1_455 S
C858 C857 1.366 . S
C858 C862 1.389 . S
C859 H834 0.951 . S
C859 C857 1.388 1_655 S
C859 C860 1.366 . S
C860 C859 1.366 . S
C860 C861 1.414 . S
C860 C863 1.499 . S
C861 H835 0.950 . S
C861 C860 1.414 . S
C861 C862 1.367 1_655 S
C862 H836 0.953 . S
C862 C858 1.389 . S
C862 C861 1.367 1_455 S
C863 C860 1.499 . S
C863 C864 1.373 . S
C863 C865 1.389 . S
C864 H837 0.950 . S
C864 C850 1.377 . S
C864 C863 1.373 . S
C865 C849 1.377 . S
C865 C863 1.389 . S
C865 C866 1.524 1_655 S
C866 C865 1.524 1_455 S
C866 C867 1.397 . S
C866 C871 1.363 . S
C867 H838 0.950 . S
C867 C866 1.397 . S
C867 C868 1.334 . S
C868 H839 0.950 . S
C868 C867 1.334 . S
C868 C869 1.287 . S
C869 C868 1.287 . S
C869 C870 1.524 . S
C869 H872 0.999 . S
C870 H840 0.950 . S
C870 C869 1.524 . S
C870 C871 1.415 . S
C871 H841 0.950 . S
C871 C866 1.363 . S
C871 C870 1.415 . S
H872 C869 0.999 . S
H873 C854 0.913 . S
H874 C892 0.951 . S
H875 C894 0.951 . S
H876 C896 0.950 . S
H877 C897 0.950 . S
H878 C899 0.950 . S
H879 C902 0.950 . S
H880 C903 0.950 . S
H881 C905 0.950 . S
H882 C906 0.950 1_545 S
H883 C907 0.951 . S
H884 C909 0.951 . S
H885 C911 0.950 . S
H886 C912 0.950 . S
H887 C914 0.950 . S
H888 C917 0.950 . S
H889 C918 0.950 . S
H890 C920 0.950 . S
H891 C921 0.950 . S
C892 H874 0.951 . S
C892 C893 1.368 1_545 S
C892 C894 1.388 . S
C893 C892 1.368 1_565 S
C893 C897 1.383 1_554 S
C894 H875 0.951 . S
C894 C892 1.388 . S
C894 C895 1.377 1_554 S
C895 C894 1.377 1_556 S
C895 C896 1.403 1_545 S
C895 C898 1.499 . S
C896 H876 0.950 . S
C896 C895 1.403 1_565 S
C896 C897 1.374 . S
C897 H877 0.950 . S
C897 C893 1.383 1_556 S
C897 C896 1.374 . S
C898 C895 1.499 . S
C898 C899 1.388 . S
C898 C900 1.381 1_545 S
C899 H878 0.950 . S
C899 C898 1.388 . S
C899 C915 1.377 . S
C900 C898 1.381 1_565 S
C900 C901 1.524 1_556 S
C900 C914 1.377 . S
C901 C900 1.524 1_554 S
C901 C902 1.397 . S
C901 C906 1.363 . S
C902 H879 0.950 . S
C902 C901 1.397 . S
C902 C903 1.334 . S
C903 H880 0.950 . S
C903 C902 1.334 . S
C903 C904 1.287 . S
C904 C903 1.287 . S
C904 C905 1.524 . S
C904 H923 0.913 . S
C905 H881 0.950 . S
C905 C904 1.524 . S
C905 C906 1.415 . S
C906 H882 0.950 1_565 S
C906 C901 1.363 . S
C906 C905 1.415 . S
C907 H883 0.951 . S
C907 C908 1.366 1_565 S
C907 C909 1.388 . S
C908 C907 1.366 1_545 S
C908 C912 1.385 . S
C909 H884 0.951 . S
C909 C907 1.388 . S
C909 C910 1.366 1_565 S
C910 C909 1.366 1_545 S
C910 C911 1.414 . S
C910 C913 1.499 . S
C911 H885 0.950 . S
C911 C910 1.414 . S
C911 C912 1.374 . S
C912 H886 0.950 . S
C912 C908 1.385 . S
C912 C911 1.374 . S
C913 C910 1.499 . S
C913 C914 1.373 1_545 S
C913 C915 1.389 . S
C914 H887 0.950 . S
C914 C900 1.377 . S
C914 C913 1.373 1_565 S
C915 C899 1.377 . S
C915 C913 1.389 . S
C915 C916 1.524 . S
C916 C915 1.524 . S
C916 C917 1.397 . S
C916 C921 1.363 . S
C917 H888 0.950 . S
C917 C916 1.397 . S
C917 C918 1.334 . S
C918 H889 0.950 . S
C918 C917 1.334 . S
C918 C919 1.287 . S
C919 C918 1.287 . S
C919 C920 1.524 . S
C919 H922 0.999 . S
C920 H890 0.950 . S
C920 C919 1.524 . S
C920 C921 1.415 . S
C921 H891 0.950 . S
C921 C916 1.363 . S
C921 C920 1.415 . S
H922 C919 0.999 . S
H923 C904 0.913 . S
H924 C942 0.951 1_556 S
H925 C944 0.951 . S
H926 C946 0.950 . S
H927 C947 0.950 . S
H928 C949 0.950 1_554 S
H929 C952 0.950 . S
H930 C953 0.950 . S
H931 C955 0.950 . S
H932 C956 0.950 . S
H933 C957 0.951 . S
H934 C959 0.951 . S
H935 C961 0.950 . S
H936 C962 0.950 . S
H937 C964 0.950 . S
H938 C967 0.950 . S
H939 C968 0.950 . S
H940 C970 0.950 1_554 S
H941 C971 0.948 1_554 S
C942 H924 0.951 1_554 S
C942 C943 1.366 . S
C942 C944 1.388 1_554 S
C943 C942 1.366 . S
C943 C947 1.385 . S
C944 H925 0.951 . S
C944 C942 1.388 1_556 S
C944 C945 1.366 1_556 S
C945 C944 1.366 1_554 S
C945 C946 1.414 . S
C945 C948 1.499 1_554 S
C946 H926 0.950 . S
C946 C945 1.414 . S
C946 C947 1.374 . S
C947 H927 0.950 . S
C947 C943 1.385 . S
C947 C946 1.374 . S
C948 C945 1.499 1_556 S
C948 C949 1.373 . S
C948 C950 1.389 . S
C949 H928 0.950 1_556 S
C949 C948 1.373 . S
C949 C965 1.377 . S
C950 C948 1.389 . S
C950 C951 1.524 . S
C950 C964 1.377 . S
C951 C950 1.524 . S
C951 C952 1.397 1_556 S
C951 C956 1.363 . S
C952 H929 0.950 . S
C952 C951 1.397 1_554 S
C952 C953 1.334 . S
C953 H930 0.950 . S
C953 C952 1.334 . S
C953 C954 1.287 1_554 S
C954 C953 1.287 1_556 S
C954 C955 1.524 . S
C954 H973 0.913 . S
C955 H931 0.950 . S
C955 C954 1.524 . S
C955 C956 1.415 . S
C956 H932 0.950 . S
C956 C951 1.363 . S
C956 C955 1.415 . S
C957 H933 0.951 . S
C957 C958 1.366 . S
C957 C959 1.388 . S
C958 C957 1.366 . S
C958 C962 1.385 . S
C959 H934 0.951 . S
C959 C957 1.388 . S
C959 C960 1.366 . S
C960 C959 1.366 . S
C960 C961 1.414 . S
C960 C963 1.499 . S
C961 H935 0.950 . S
C961 C960 1.414 . S
C961 C962 1.374 . S
C962 H936 0.950 . S
C962 C958 1.385 . S
C962 C961 1.374 . S
C963 C960 1.499 . S
C963 C964 1.373 . S
C963 C965 1.389 . S
C964 H937 0.950 . S
C964 C950 1.377 . S
C964 C963 1.373 . S
C965 C949 1.377 . S
C965 C963 1.389 . S
C965 C966 1.524 . S
C966 C965 1.524 . S
C966 C967 1.397 . S
C966 C971 1.365 . S
C967 H938 0.950 . S
C967 C966 1.397 . S
C967 C968 1.334 . S
C968 H939 0.950 . S
C968 C967 1.334 . S
C968 C969 1.287 . S
C969 C968 1.287 . S
C969 C970 1.524 . S
C969 H972 0.999 . S
C970 H940 0.950 1_556 S
C970 C969 1.524 . S
C970 C971 1.415 . S
C971 H941 0.948 1_556 S
C971 C966 1.365 . S
C971 C970 1.415 . S
H972 C969 0.999 . S
H973 C954 0.913 . S
H974 C992 0.951 . S
H975 C994 0.951 1_556 S
H976 C996 0.950 . S
H977 C997 0.950 . S
H978 C999 0.950 . S
H979 C1002 0.950 . S
H980 C1003 0.950 . S
H981 C1005 0.950 . S
H982 C1006 0.950 . S
H983 C1007 0.951 . S
H984 C1009 0.951 . S
H985 C1011 0.950 . S
H986 C1012 0.950 . S
H987 C1014 0.950 . S
H988 C1017 0.950 . S
H989 C1018 0.950 . S
H990 C1020 0.950 1_554 S
H991 C1021 0.950 . S
C992 H974 0.951 . S
C992 C993 1.366 . S
C992 C994 1.388 . S
C993 C992 1.366 . S
C993 C997 1.385 . S
C994 H975 0.951 1_554 S
C994 C992 1.388 . S
C994 C995 1.366 . S
C995 C994 1.366 . S
C995 C996 1.414 . S
C995 C998 1.499 . S
C996 H976 0.950 . S
C996 C995 1.414 . S
C996 C997 1.374 . S
C997 H977 0.950 . S
C997 C993 1.385 . S
C997 C996 1.374 . S
C998 C995 1.499 . S
C998 C999 1.373 . S
C998 C1000 1.389 1_554 S
C999 H978 0.950 . S
C999 C998 1.373 . S
C999 C1015 1.377 1_554 S
C1000 C998 1.389 1_556 S
C1000 C1001 1.524 1_556 S
C1000 C1014 1.377 . S
C1001 C1000 1.524 1_554 S
C1001 C1002 1.397 . S
C1001 C1006 1.363 1_554 S
C1002 H979 0.950 . S
C1002 C1001 1.397 . S
C1002 C1003 1.334 . S
C1003 H980 0.950 . S
C1003 C1002 1.334 . S
C1003 C1004 1.287 . S
C1004 C1003 1.287 . S
C1004 C1005 1.524 1_554 S
C1004 H1023 0.913 . S
C1005 H981 0.950 . S
C1005 C1004 1.524 1_556 S
C1005 C1006 1.415 . S
C1006 H982 0.950 . S
C1006 C1001 1.363 1_556 S
C1006 C1005 1.415 . S
C1007 H983 0.951 . S
C1007 C1008 1.366 . S
C1007 C1009 1.388 . S
C1008 C1007 1.366 . S
C1008 C1012 1.385 . S
C1009 H984 0.951 . S
C1009 C1007 1.388 . S
C1009 C1010 1.366 . S
C1010 C1009 1.366 . S
C1010 C1011 1.414 . S
C1010 C1013 1.499 . S
C1011 H985 0.950 . S
C1011 C1010 1.414 . S
C1011 C1012 1.374 . S
C1012 H986 0.950 . S
C1012 C1008 1.385 . S
C1012 C1011 1.374 . S
C1013 C1010 1.499 . S
C1013 C1014 1.373 . S
C1013 C1015 1.389 . S
C1014 H987 0.950 . S
C1014 C1000 1.377 . S
C1014 C1013 1.373 . S
C1015 C999 1.377 1_556 S
C1015 C1013 1.389 . S
C1015 C1016 1.524 . S
C1016 C1015 1.524 . S
C1016 C1017 1.397 . S
C1016 C1021 1.363 1_556 S
C1017 H988 0.950 . S
C1017 C1016 1.397 . S
C1017 C1018 1.334 . S
C1018 H989 0.950 . S
C1018 C1017 1.334 . S
C1018 C1019 1.287 . S
C1019 C1018 1.287 . S
C1019 C1020 1.524 . S
C1019 H1022 0.999 . S
C1020 H990 0.950 1_556 S
C1020 C1019 1.524 . S
C1020 C1021 1.415 1_556 S
C1021 H991 0.950 . S
C1021 C1016 1.363 1_554 S
C1021 C1020 1.415 1_554 S
H1022 C1019 0.999 . S
H1023 C1004 0.913 . S
H1024 C1042 0.951 . S
H1025 C1044 0.951 . S
H1026 C1046 0.950 . S
H1027 C1047 0.950 . S
H1028 C1049 0.950 . S
H1029 C1052 0.950 . S
H1030 C1053 0.950 . S
H1031 C1055 0.950 . S
H1032 C1056 0.950 . S
H1033 C1057 0.951 . S
H1034 C1059 0.951 . S
H1035 C1061 0.950 . S
H1036 C1062 0.950 . S
H1037 C1064 0.950 . S
H1038 C1067 0.950 1_455 S
H1039 C1068 0.950 . S
H1040 C1070 0.950 . S
H1041 C1071 0.950 . S
C1042 H1024 0.951 . S
C1042 C1043 1.366 . S
C1042 C1044 1.388 . S
C1043 C1042 1.366 . S
C1043 C1047 1.385 . S
C1044 H1025 0.951 . S
C1044 C1042 1.388 . S
C1044 C1045 1.366 . S
C1045 C1044 1.366 . S
C1045 C1046 1.414 . S
C1045 C1048 1.499 . S
C1046 H1026 0.950 . S
C1046 C1045 1.414 . S
C1046 C1047 1.374 . S
C1047 H1027 0.950 . S
C1047 C1043 1.385 . S
C1047 C1046 1.374 . S
C1048 C1045 1.499 . S
C1048 C1049 1.373 . S
C1048 C1050 1.389 . S
C1049 H1028 0.950 . S
C1049 C1048 1.373 . S
C1049 C1065 1.377 . S
C1050 C1048 1.389 . S
C1050 C1051 1.524 . S
C1050 C1064 1.377 . S
C1051 C1050 1.524 . S
C1051 C1052 1.397 . S
C1051 C1056 1.363 . S
C1052 H1029 0.950 . S
C1052 C1051 1.397 . S
C1052 C1053 1.334 . S
C1053 H1030 0.950 . S
C1053 C1052 1.334 . S
C1053 C1054 1.287 . S
C1054 C1053 1.287 . S
C1054 C1055 1.524 . S
C1054 H1073 0.913 . S
C1055 H1031 0.950 . S
C1055 C1054 1.524 . S
C1055 C1056 1.415 . S
C1056 H1032 0.950 . S
C1056 C1051 1.363 . S
C1056 C1055 1.415 . S
C1057 H1033 0.951 . S
C1057 C1058 1.366 . S
C1057 C1059 1.388 1_556 S
C1058 C1057 1.366 . S
C1058 C1062 1.385 1_556 S
C1059 H1034 0.951 . S
C1059 C1057 1.388 1_554 S
C1059 C1060 1.366 . S
C1060 C1059 1.366 . S
C1060 C1061 1.414 . S
C1060 C1063 1.499 . S
C1061 H1035 0.950 . S
C1061 C1060 1.414 . S
C1061 C1062 1.374 . S
C1062 H1036 0.950 . S
C1062 C1058 1.385 1_554 S
C1062 C1061 1.374 . S
C1063 C1060 1.499 . S
C1063 C1064 1.373 . S
C1063 C1065 1.389 . S
C1064 H1037 0.950 . S
C1064 C1050 1.377 . S
C1064 C1063 1.373 . S
C1065 C1049 1.377 . S
C1065 C1063 1.389 . S
C1065 C1066 1.524 . S
C1066 C1065 1.524 . S
C1066 C1067 1.397 1_455 S
C1066 C1071 1.363 1_455 S
C1067 H1038 0.950 1_655 S
C1067 C1066 1.397 1_655 S
C1067 C1068 1.334 . S
C1068 H1039 0.950 . S
C1068 C1067 1.334 . S
C1068 C1069 1.287 . S
C1069 C1068 1.287 . S
C1069 C1070 1.524 . S
C1069 H1072 0.999 . S
C1070 H1040 0.950 . S
C1070 C1069 1.524 . S
C1070 C1071 1.415 . S
C1071 H1041 0.950 . S
C1071 C1066 1.363 1_655 S
C1071 C1070 1.415 . S
H1072 C1069 0.999 . S
H1073 C1054 0.913 . S
H1074 C1092 0.951 . S
H1075 C1094 0.951 . S
H1076 C1096 0.950 . S
H1077 C1097 0.950 . S
H1078 C1099 0.950 . S
H1079 C1102 0.950 . S
H1080 C1103 0.950 . S
H1081 C1105 0.950 . S
H1082 C1106 0.950 . S
H1083 C1107 0.951 1_556 S
H1084 C1109 0.951 . S
H1085 C1111 0.950 . S
H1086 C1112 0.950 . S
H1087 C1114 0.944 1_565 S
H1088 C1117 0.950 . S
H1089 C1118 0.950 . S
H1090 C1120 0.950 . S
H1091 C1121 0.950 . S
C1092 H1074 0.951 . S
C1092 C1093 1.340 1_565 S
C1092 C1094 1.388 . S
C1093 C1092 1.340 1_545 S
C1093 C1097 1.410 . S
C1094 H1075 0.951 . S
C1094 C1092 1.388 . S
C1094 C1095 1.366 1_565 S
C1095 C1094 1.366 1_545 S
C1095 C1096 1.414 . S
C1095 C1098 1.499 . S
C1096 H1076 0.950 . S
C1096 C1095 1.414 . S
C1096 C1097 1.374 . S
C1097 H1077 0.950 . S
C1097 C1093 1.410 . S
C1097 C1096 1.374 . S
C1098 C1095 1.499 . S
C1098 C1099 1.373 . S
C1098 C1100 1.399 . S
C1099 H1078 0.950 . S
C1099 C1098 1.373 . S
C1099 C1115 1.377 . S
C1100 C1098 1.399 . S
C1100 C1101 1.524 1_545 S
C1100 C1114 1.375 . S
C1101 C1100 1.524 1_565 S
C1101 C1102 1.397 1_565 S
C1101 C1106 1.363 . S
C1102 H1079 0.950 . S
C1102 C1101 1.397 1_545 S
C1102 C1103 1.334 . S
C1103 H1080 0.950 . S
C1103 C1102 1.334 . S
C1103 C1104 1.287 1_545 S
C1104 C1103 1.287 1_565 S
C1104 C1105 1.524 . S
C1104 H1123 0.913 . S
C1105 H1081 0.950 . S
C1105 C1104 1.524 . S
C1105 C1106 1.415 . S
C1106 H1082 0.950 . S
C1106 C1101 1.363 . S
C1106 C1105 1.415 . S
C1107 H1083 0.951 1_554 S
C1107 C1108 1.366 . S
C1107 C1109 1.388 . S
C1108 C1107 1.366 . S
C1108 C1112 1.385 1_545 S
C1109 H1084 0.951 . S
C1109 C1107 1.388 . S
C1109 C1110 1.366 . S
C1110 C1109 1.366 . S
C1110 C1111 1.414 1_545 S
C1110 C1113 1.499 . S
C1111 H1085 0.950 . S
C1111 C1110 1.414 1_565 S
C1111 C1112 1.374 . S
C1112 H1086 0.950 . S
C1112 C1108 1.385 1_565 S
C1112 C1111 1.374 . S
C1113 C1110 1.499 . S
C1113 C1114 1.376 . S
C1113 C1115 1.389 . S
C1114 H1087 0.944 1_545 S
C1114 C1100 1.375 . S
C1114 C1113 1.376 . S
C1115 C1099 1.377 . S
C1115 C1113 1.389 . S
C1115 C1116 1.524 . S
C1116 C1115 1.524 . S
C1116 C1117 1.397 1_545 S
C1116 C1121 1.363 . S
C1117 H1088 0.950 . S
C1117 C1116 1.397 1_565 S
C1117 C1118 1.334 1_554 S
C1118 H1089 0.950 . S
C1118 C1117 1.334 1_556 S
C1118 C1119 1.287 1_565 S
C1119 C1118 1.287 1_545 S
C1119 C1120 1.524 . S
C1119 H1122 0.999 . S
C1120 H1090 0.950 . S
C1120 C1119 1.524 . S
C1120 C1121 1.415 1_556 S
C1121 H1091 0.950 . S
C1121 C1116 1.363 . S
C1121 C1120 1.415 1_554 S
H1122 C1119 0.999 . S
H1123 C1104 0.913 . S
H1124 C1142 0.951 . S
H1125 C1144 0.951 . S
H1126 C1146 0.950 . S
H1127 C1147 0.950 . S
H1128 C1149 0.950 . S
H1129 C1152 0.950 . S
H1130 C1153 0.950 . S
H1131 C1155 0.950 . S
H1132 C1156 0.950 . S
H1133 C1157 0.951 . S
H1134 C1159 0.951 . S
H1135 C1161 0.950 . S
H1136 C1162 0.950 . S
H1137 C1164 0.950 . S
H1138 C1167 0.950 . S
H1139 C1168 0.950 . S
H1140 C1170 0.950 . S
H1141 C1171 0.950 . S
C1142 H1124 0.951 . S
C1142 C1143 1.366 . S
C1142 C1144 1.388 . S
C1143 C1142 1.366 . S
C1143 C1147 1.385 . S
C1144 H1125 0.951 . S
C1144 C1142 1.388 . S
C1144 C1145 1.366 . S
C1145 C1144 1.366 . S
C1145 C1146 1.414 . S
C1145 C1148 1.499 . S
C1146 H1126 0.950 . S
C1146 C1145 1.414 . S
C1146 C1147 1.374 . S
C1147 H1127 0.950 . S
C1147 C1143 1.385 . S
C1147 C1146 1.374 . S
C1148 C1145 1.499 . S
C1148 C1149 1.373 . S
C1148 C1150 1.389 . S
C1149 H1128 0.950 . S
C1149 C1148 1.373 . S
C1149 C1165 1.377 . S
C1150 C1148 1.389 . S
C1150 C1151 1.524 . S
C1150 C1164 1.377 . S
C1151 C1150 1.524 . S
C1151 C1152 1.397 . S
C1151 C1156 1.363 . S
C1152 H1129 0.950 . S
C1152 C1151 1.397 . S
C1152 C1153 1.334 . S
C1153 H1130 0.950 . S
C1153 C1152 1.334 . S
C1153 C1154 1.287 . S
C1154 C1153 1.287 . S
C1154 C1155 1.524 . S
C1154 H1173 0.913 . S
C1155 H1131 0.950 . S
C1155 C1154 1.524 . S
C1155 C1156 1.415 . S
C1156 H1132 0.950 . S
C1156 C1151 1.363 . S
C1156 C1155 1.415 . S
C1157 H1133 0.951 . S
C1157 C1158 1.366 . S
C1157 C1159 1.388 . S
C1158 C1157 1.366 . S
C1158 C1162 1.385 . S
C1159 H1134 0.951 . S
C1159 C1157 1.388 . S
C1159 C1160 1.366 1_556 S
C1160 C1159 1.366 1_554 S
C1160 C1161 1.414 . S
C1160 C1163 1.499 . S
C1161 H1135 0.950 . S
C1161 C1160 1.414 . S
C1161 C1162 1.374 1_554 S
C1162 H1136 0.950 . S
C1162 C1158 1.385 . S
C1162 C1161 1.374 1_556 S
C1163 C1160 1.499 . S
C1163 C1164 1.373 . S
C1163 C1165 1.389 . S
C1164 H1137 0.950 . S
C1164 C1150 1.377 . S
C1164 C1163 1.373 . S
C1165 C1149 1.377 . S
C1165 C1163 1.389 . S
C1165 C1166 1.524 . S
C1166 C1165 1.524 . S
C1166 C1167 1.397 . S
C1166 C1171 1.363 . S
C1167 H1138 0.950 . S
C1167 C1166 1.397 . S
C1167 C1168 1.334 . S
C1168 H1139 0.950 . S
C1168 C1167 1.334 . S
C1168 C1169 1.287 . S
C1169 C1168 1.287 . S
C1169 C1170 1.524 . S
C1169 H1172 0.999 . S
C1170 H1140 0.950 . S
C1170 C1169 1.524 . S
C1170 C1171 1.415 . S
C1171 H1141 0.950 . S
C1171 C1166 1.363 . S
C1171 C1170 1.415 . S
H1172 C1169 0.999 . S
H1173 C1154 0.913 . S
H1174 C1192 0.951 . S
H1175 C1194 0.951 . S
H1176 C1196 0.950 . S
H1177 C1197 0.950 . S
H1178 C1199 0.950 . S
H1179 C1202 0.950 . S
H1180 C1203 0.950 . S
H1181 C1205 0.950 . S
H1182 C1206 0.950 . S
H1183 C1207 0.951 . S
H1184 C1209 0.951 . S
H1185 C1211 0.950 . S
H1186 C1212 0.950 . S
H1187 C1214 0.950 . S
H1188 C1217 0.950 . S
H1189 C1218 0.950 . S
H1190 C1220 0.950 . S
H1191 C1221 0.950 . S
C1192 H1174 0.951 . S
C1192 C1193 1.366 . S
C1192 C1194 1.388 . S
C1193 C1192 1.366 . S
C1193 C1197 1.385 . S
C1194 H1175 0.951 . S
C1194 C1192 1.388 . S
C1194 C1195 1.366 . S
C1195 C1194 1.366 . S
C1195 C1196 1.414 . S
C1195 C1198 1.499 . S
C1196 H1176 0.950 . S
C1196 C1195 1.414 . S
C1196 C1197 1.374 . S
C1197 H1177 0.950 . S
C1197 C1193 1.385 . S
C1197 C1196 1.374 . S
C1198 C1195 1.499 . S
C1198 C1199 1.373 . S
C1198 C1200 1.389 . S
C1199 H1178 0.950 . S
C1199 C1198 1.373 . S
C1199 C1215 1.377 . S
C1200 C1198 1.389 . S
C1200 C1201 1.524 . S
C1200 C1214 1.377 . S
C1201 C1200 1.524 . S
C1201 C1202 1.397 . S
C1201 C1206 1.363 . S
C1202 H1179 0.950 . S
C1202 C1201 1.397 . S
C1202 C1203 1.334 . S
C1203 H1180 0.950 . S
C1203 C1202 1.334 . S
C1203 C1204 1.287 . S
C1204 C1203 1.287 . S
C1204 C1205 1.524 . S
C1204 H1223 0.913 . S
C1205 H1181 0.950 . S
C1205 C1204 1.524 . S
C1205 C1206 1.415 . S
C1206 H1182 0.950 . S
C1206 C1201 1.363 . S
C1206 C1205 1.415 . S
C1207 H1183 0.951 . S
C1207 C1208 1.366 . S
C1207 C1209 1.388 . S
C1208 C1207 1.366 . S
C1208 C1212 1.385 . S
C1209 H1184 0.951 . S
C1209 C1207 1.388 . S
C1209 C1210 1.366 . S
C1210 C1209 1.366 . S
C1210 C1211 1.414 . S
C1210 C1213 1.499 1_556 S
C1211 H1185 0.950 . S
C1211 C1210 1.414 . S
C1211 C1212 1.374 . S
C1212 H1186 0.950 . S
C1212 C1208 1.385 . S
C1212 C1211 1.374 . S
C1213 C1210 1.499 1_554 S
C1213 C1214 1.373 . S
C1213 C1215 1.389 . S
C1214 H1187 0.950 . S
C1214 C1200 1.377 . S
C1214 C1213 1.373 . S
C1215 C1199 1.377 . S
C1215 C1213 1.389 . S
C1215 C1216 1.524 . S
C1216 C1215 1.524 . S
C1216 C1217 1.397 . S
C1216 C1221 1.363 . S
C1217 H1188 0.950 . S
C1217 C1216 1.397 . S
C1217 C1218 1.334 . S
C1218 H1189 0.950 . S
C1218 C1217 1.334 . S
C1218 C1219 1.287 . S
C1219 C1218 1.287 . S
C1219 C1220 1.524 . S
C1219 H1222 0.999 . S
C1220 H1190 0.950 . S
C1220 C1219 1.524 . S
C1220 C1221 1.415 . S
C1221 H1191 0.950 . S
C1221 C1216 1.363 . S
C1221 C1220 1.415 . S
H1222 C1219 0.999 . S
H1223 C1204 0.913 . S
H1224 C1242 0.951 . S
H1225 C1244 0.951 . S
H1226 C1246 0.950 . S
H1227 C1247 0.950 . S
H1228 C1249 0.950 . S
H1229 C1252 0.950 . S
H1230 C1253 0.950 . S
H1231 C1255 0.950 . S
H1232 C1256 0.950 . S
H1233 C1257 0.951 . S
H1234 C1259 0.951 . S
H1235 C1261 0.950 . S
H1236 C1262 0.950 . S
H1237 C1264 0.950 . S
H1238 C1267 0.950 . S
H1239 C1268 0.950 . S
H1240 C1270 0.950 . S
H1241 C1271 0.950 . S
C1242 H1224 0.951 . S
C1242 C1243 1.366 . S
C1242 C1244 1.388 . S
C1243 C1242 1.366 . S
C1243 C1247 1.385 . S
C1244 H1225 0.951 . S
C1244 C1242 1.388 . S
C1244 C1245 1.366 . S
C1245 C1244 1.366 . S
C1245 C1246 1.414 . S
C1245 C1248 1.499 . S
C1246 H1226 0.950 . S
C1246 C1245 1.414 . S
C1246 C1247 1.374 . S
C1247 H1227 0.950 . S
C1247 C1243 1.385 . S
C1247 C1246 1.374 . S
C1248 C1245 1.499 . S
C1248 C1249 1.373 . S
C1248 C1250 1.389 . S
C1249 H1228 0.950 . S
C1249 C1248 1.373 . S
C1249 C1265 1.377 . S
C1250 C1248 1.389 . S
C1250 C1251 1.524 . S
C1250 C1264 1.377 . S
C1251 C1250 1.524 . S
C1251 C1252 1.397 . S
C1251 C1256 1.363 . S
C1252 H1229 0.950 . S
C1252 C1251 1.397 . S
C1252 C1253 1.334 1_655 S
C1253 H1230 0.950 . S
C1253 C1252 1.334 1_455 S
C1253 C1254 1.287 . S
C1254 C1253 1.287 . S
C1254 C1255 1.524 1_455 S
C1254 H1273 0.913 . S
C1255 H1231 0.950 . S
C1255 C1254 1.524 1_655 S
C1255 C1256 1.415 . S
C1256 H1232 0.950 . S
C1256 C1251 1.363 . S
C1256 C1255 1.415 . S
C1257 H1233 0.951 . S
C1257 C1258 1.366 . S
C1257 C1259 1.388 . S
C1258 C1257 1.366 . S
C1258 C1262 1.385 . S
C1259 H1234 0.951 . S
C1259 C1257 1.388 . S
C1259 C1260 1.366 . S
C1260 C1259 1.366 . S
C1260 C1261 1.414 . S
C1260 C1263 1.499 . S
C1261 H1235 0.950 . S
C1261 C1260 1.414 . S
C1261 C1262 1.374 . S
C1262 H1236 0.950 . S
C1262 C1258 1.385 . S
C1262 C1261 1.374 . S
C1263 C1260 1.499 . S
C1263 C1264 1.373 . S
C1263 C1265 1.389 . S
C1264 H1237 0.950 . S
C1264 C1250 1.377 . S
C1264 C1263 1.373 . S
C1265 C1249 1.377 . S
C1265 C1263 1.389 . S
C1265 C1266 1.524 . S
C1266 C1265 1.524 . S
C1266 C1267 1.397 . S
C1266 C1271 1.363 . S
C1267 H1238 0.950 . S
C1267 C1266 1.397 . S
C1267 C1268 1.334 . S
C1268 H1239 0.950 . S
C1268 C1267 1.334 . S
C1268 C1269 1.287 . S
C1269 C1268 1.287 . S
C1269 C1270 1.524 . S
C1269 H1272 0.999 . S
C1270 H1240 0.950 . S
C1270 C1269 1.524 . S
C1270 C1271 1.415 . S
C1271 H1241 0.950 . S
C1271 C1266 1.363 . S
C1271 C1270 1.415 . S
H1272 C1269 0.999 . S
H1273 C1254 0.913 . S
H1274 C1292 0.951 . S
H1275 C1294 0.951 . S
H1276 C1296 0.950 . S
H1277 C1297 0.950 . S
H1278 C1299 0.950 . S
H1279 C1302 0.950 . S
H1280 C1303 0.950 . S
H1281 C1305 0.950 . S
H1282 C1306 0.950 . S
H1283 C1307 0.951 . S
H1284 C1309 0.951 . S
H1285 C1311 0.950 . S
H1286 C1312 0.950 . S
H1287 C1314 0.950 . S
H1288 C1317 0.950 . S
H1289 C1318 0.950 . S
H1290 C1320 0.950 . S
H1291 C1321 0.950 . S
C1292 H1274 0.951 . S
C1292 C1293 1.381 . S
C1292 C1294 1.388 . S
C1293 C1292 1.381 . S
C1293 C1297 1.368 1_565 S
C1294 H1275 0.951 . S
C1294 C1292 1.388 . S
C1294 C1295 1.366 . S
C1295 C1294 1.366 . S
C1295 C1296 1.414 1_565 S
C1295 C1298 1.499 . S
C1296 H1276 0.950 . S
C1296 C1295 1.414 1_545 S
C1296 C1297 1.374 . S
C1297 H1277 0.950 . S
C1297 C1293 1.368 1_545 S
C1297 C1296 1.374 . S
C1298 C1295 1.499 . S
C1298 C1299 1.373 1_565 S
C1298 C1300 1.389 . S
C1299 H1278 0.950 . S
C1299 C1298 1.373 1_545 S
C1299 C1315 1.377 . S
C1300 C1298 1.389 . S
C1300 C1301 1.524 . S
C1300 C1314 1.377 . S
C1301 C1300 1.524 . S
C1301 C1302 1.397 . S
C1301 C1306 1.363 . S
C1302 H1279 0.950 . S
C1302 C1301 1.397 . S
C1302 C1303 1.334 . S
C1303 H1280 0.950 . S
C1303 C1302 1.334 . S
C1303 C1304 1.287 . S
C1304 C1303 1.287 . S
C1304 C1305 1.524 . S
C1304 H1323 0.913 . S
C1305 H1281 0.950 . S
C1305 C1304 1.524 . S
C1305 C1306 1.415 . S
C1306 H1282 0.950 . S
C1306 C1301 1.363 . S
C1306 C1305 1.415 . S
C1307 H1283 0.951 . S
C1307 C1308 1.366 1_545 S
C1307 C1309 1.388 . S
C1308 C1307 1.366 1_565 S
C1308 C1312 1.385 . S
C1309 H1284 0.951 . S
C1309 C1307 1.388 . S
C1309 C1310 1.366 1_545 S
C1310 C1309 1.366 1_565 S
C1310 C1311 1.414 . S
C1310 C1313 1.499 . S
C1311 H1285 0.950 . S
C1311 C1310 1.414 . S
C1311 C1312 1.374 . S
C1312 H1286 0.950 . S
C1312 C1308 1.385 . S
C1312 C1311 1.374 . S
C1313 C1310 1.499 . S
C1313 C1314 1.373 . S
C1313 C1315 1.389 1_565 S
C1314 H1287 0.950 . S
C1314 C1300 1.377 . S
C1314 C1313 1.373 . S
C1315 C1299 1.377 . S
C1315 C1313 1.389 1_545 S
C1315 C1316 1.524 . S
C1316 C1315 1.524 . S
C1316 C1317 1.397 . S
C1316 C1321 1.363 . S
C1317 H1288 0.950 . S
C1317 C1316 1.397 . S
C1317 C1318 1.334 . S
C1318 H1289 0.950 . S
C1318 C1317 1.334 . S
C1318 C1319 1.287 . S
C1319 C1318 1.287 . S
C1319 C1320 1.524 . S
C1319 H1322 0.999 . S
C1320 H1290 0.950 . S
C1320 C1319 1.524 . S
C1320 C1321 1.415 . S
C1321 H1291 0.950 . S
C1321 C1316 1.363 . S
C1321 C1320 1.415 . S
H1322 C1319 0.999 . S
H1323 C1304 0.913 . S
H1324 C1342 0.951 . S
H1325 C1344 0.951 . S
H1326 C1346 0.950 . S
H1327 C1347 0.950 . S
H1328 C1349 0.950 . S
H1329 C1352 0.950 . S
H1330 C1353 0.950 . S
H1331 C1355 0.950 . S
H1332 C1356 0.950 . S
H1333 C1357 0.951 . S
H1334 C1359 0.951 . S
H1335 C1361 0.950 . S
H1336 C1362 0.950 . S
H1337 C1364 0.950 . S
H1338 C1367 0.950 . S
H1339 C1368 0.950 . S
H1340 C1370 0.950 . S
H1341 C1371 0.950 . S
C1342 H1324 0.951 . S
C1342 C1343 1.366 . S
C1342 C1344 1.388 . S
C1343 C1342 1.366 . S
C1343 C1347 1.385 . S
C1344 H1325 0.951 . S
C1344 C1342 1.388 . S
C1344 C1345 1.366 . S
C1345 C1344 1.366 . S
C1345 C1346 1.414 . S
C1345 C1348 1.499 . S
C1346 H1326 0.950 . S
C1346 C1345 1.414 . S
C1346 C1347 1.374 . S
C1347 H1327 0.950 . S
C1347 C1343 1.385 . S
C1347 C1346 1.374 . S
C1348 C1345 1.499 . S
C1348 C1349 1.373 . S
C1348 C1350 1.389 . S
C1349 H1328 0.950 . S
C1349 C1348 1.373 . S
C1349 C1365 1.377 . S
C1350 C1348 1.389 . S
C1350 C1351 1.524 . S
C1350 C1364 1.377 . S
C1351 C1350 1.524 . S
C1351 C1352 1.397 . S
C1351 C1356 1.363 . S
C1352 H1329 0.950 . S
C1352 C1351 1.397 . S
C1352 C1353 1.334 . S
C1353 H1330 0.950 . S
C1353 C1352 1.334 . S
C1353 C1354 1.287 . S
C1354 C1353 1.287 . S
C1354 C1355 1.524 . S
C1354 H1373 0.913 . S
C1355 H1331 0.950 . S
C1355 C1354 1.524 . S
C1355 C1356 1.415 . S
C1356 H1332 0.950 . S
C1356 C1351 1.363 . S
C1356 C1355 1.415 . S
C1357 H1333 0.951 . S
C1357 C1358 1.366 . S
C1357 C1359 1.388 . S
C1358 C1357 1.366 . S
C1358 C1362 1.385 . S
C1359 H1334 0.951 . S
C1359 C1357 1.388 . S
C1359 C1360 1.366 . S
C1360 C1359 1.366 . S
C1360 C1361 1.414 . S
C1360 C1363 1.499 . S
C1361 H1335 0.950 . S
C1361 C1360 1.414 . S
C1361 C1362 1.374 . S
C1362 H1336 0.950 . S
C1362 C1358 1.385 . S
C1362 C1361 1.374 . S
C1363 C1360 1.499 . S
C1363 C1364 1.373 . S
C1363 C1365 1.389 . S
C1364 H1337 0.950 . S
C1364 C1350 1.377 . S
C1364 C1363 1.373 . S
C1365 C1349 1.377 . S
C1365 C1363 1.389 . S
C1365 C1366 1.524 . S
C1366 C1365 1.524 . S
C1366 C1367 1.397 . S
C1366 C1371 1.363 . S
C1367 H1338 0.950 . S
C1367 C1366 1.397 . S
C1367 C1368 1.334 . S
C1368 H1339 0.950 . S
C1368 C1367 1.334 . S
C1368 C1369 1.287 . S
C1369 C1368 1.287 . S
C1369 C1370 1.524 . S
C1369 H1372 0.999 . S
C1370 H1340 0.950 . S
C1370 C1369 1.524 . S
C1370 C1371 1.415 . S
C1371 H1341 0.950 . S
C1371 C1366 1.363 . S
C1371 C1370 1.415 . S
H1372 C1369 0.999 . S
H1373 C1354 0.913 . S
H1374 C1392 0.951 . S
H1375 C1394 0.951 . S
H1376 C1396 0.950 . S
H1377 C1397 0.950 . S
H1378 C1399 0.950 . S
H1379 C1402 0.950 . S
H1380 C1403 0.950 . S
H1381 C1405 0.950 . S
H1382 C1406 0.950 . S
H1383 C1407 0.951 . S
H1384 C1409 0.951 . S
H1385 C1411 0.950 . S
H1386 C1412 0.950 . S
H1387 C1414 0.950 . S
H1388 C1417 0.950 . S
H1389 C1418 0.950 . S
H1390 C1420 0.950 . S
H1391 C1421 0.950 . S
C1392 H1374 0.951 . S
C1392 C1393 1.366 . S
C1392 C1394 1.388 . S
C1393 C1392 1.366 . S
C1393 C1397 1.385 . S
C1394 H1375 0.951 . S
C1394 C1392 1.388 . S
C1394 C1395 1.366 . S
C1395 C1394 1.366 . S
C1395 C1396 1.414 . S
C1395 C1398 1.499 . S
C1396 H1376 0.950 . S
C1396 C1395 1.414 . S
C1396 C1397 1.374 . S
C1397 H1377 0.950 . S
C1397 C1393 1.385 . S
C1397 C1396 1.374 . S
C1398 C1395 1.499 . S
C1398 C1399 1.373 . S
C1398 C1400 1.389 . S
C1399 H1378 0.950 . S
C1399 C1398 1.373 . S
C1399 C1415 1.377 . S
C1400 C1398 1.389 . S
C1400 C1401 1.524 . S
C1400 C1414 1.377 . S
C1401 C1400 1.524 . S
C1401 C1402 1.397 . S
C1401 C1406 1.363 . S
C1402 H1379 0.950 . S
C1402 C1401 1.397 . S
C1402 C1403 1.334 . S
C1403 H1380 0.950 . S
C1403 C1402 1.334 . S
C1403 C1404 1.287 . S
C1404 C1403 1.287 . S
C1404 C1405 1.524 . S
C1404 H1423 0.913 . S
C1405 H1381 0.950 . S
C1405 C1404 1.524 . S
C1405 C1406 1.415 . S
C1406 H1382 0.950 . S
C1406 C1401 1.363 . S
C1406 C1405 1.415 . S
C1407 H1383 0.951 . S
C1407 C1408 1.366 . S
C1407 C1409 1.388 . S
C1408 C1407 1.366 . S
C1408 C1412 1.385 . S
C1409 H1384 0.951 . S
C1409 C1407 1.388 . S
C1409 C1410 1.366 . S
C1410 C1409 1.366 . S
C1410 C1411 1.414 . S
C1410 C1413 1.499 . S
C1411 H1385 0.950 . S
C1411 C1410 1.414 . S
C1411 C1412 1.374 . S
C1412 H1386 0.950 . S
C1412 C1408 1.385 . S
C1412 C1411 1.374 . S
C1413 C1410 1.499 . S
C1413 C1414 1.373 . S
C1413 C1415 1.389 . S
C1414 H1387 0.950 . S
C1414 C1400 1.377 . S
C1414 C1413 1.373 . S
C1415 C1399 1.377 . S
C1415 C1413 1.389 . S
C1415 C1416 1.524 . S
C1416 C1415 1.524 . S
C1416 C1417 1.397 . S
C1416 C1421 1.363 . S
C1417 H1388 0.950 . S
C1417 C1416 1.397 . S
C1417 C1418 1.334 . S
C1418 H1389 0.950 . S
C1418 C1417 1.334 . S
C1418 C1419 1.287 . S
C1419 C1418 1.287 . S
C1419 C1420 1.524 . S
C1419 H1422 0.999 . S
C1420 H1390 0.950 . S
C1420 C1419 1.524 . S
C1420 C1421 1.415 . S
C1421 H1391 0.950 . S
C1421 C1416 1.363 . S
C1421 C1420 1.415 . S
H1422 C1419 0.999 . S
H1423 C1404 0.913 . S
C243 C82 1.556 1_565 S
C258 C114 1.638 . S
C308 C144 1.804 . S
C293 C95 1.721 . S
C358 N178 1.369 . S
C343 C56 1.322 . S
C408 N208 1.370 . S
C393 C69 1.330 . S
C458 C105 1.638 . S
C443 C30 1.551 . S
C493 C43 1.687 . S
C508 C135 1.810 . S
C543 C4 1.309 . S
C558 N170 1.368 . S
C593 C17 1.281 . S
C608 N200 1.383 . S
C658 C120 0.239 . S
C643 C74 0.404 . S
C708 C150 0.458 . S
C693 C87 0.518 . S
C758 C191 0.734 . S
C743 C100 0.735 . S
C793 C61 0.360 . S
C808 C221 0.329 . S
C843 C22 0.414 . S
C858 C131 0.238 . S
C908 C161 0.459 . S
C893 C35 0.520 1_565 S
C958 C180 0.735 . S
C943 C48 0.736 . S
C993 C9 0.363 . S
C1008 C210 0.329 . S
C1043 C73 1.472 . S
C1058 N110 1.467 . S
C1093 C86 1.432 . S
C1108 N140 1.422 1_554 S
C1158 C165 1.647 . S
C1143 C99 1.616 . S
C1208 C195 1.588 . S
C1193 C60 1.552 . S
C1243 C21 1.470 . S
C1258 N118 1.477 . S
C1308 N148 1.422 . S
C1293 C34 1.436 1_565 S
C1358 C174 1.647 . S
C1343 C47 1.613 . S
C1393 C8 1.553 . S
C1408 C204 1.588 . S
