# Generated by pormake.
# Topology tsx, (6,3)-cn, num edge types: 1
# Building blocks:
#     Node 0, Type 0, BuildingBlock: JUFBIX_clean_sbu_0, # of connection points: 6
#     Node 1, Type 0, BuildingBlock: JUFBIX_clean_sbu_0, # of connection points: 6
#     Node 2, Type 1, BuildingBlock: BETDAH_clean_linker_0, # of connection points: 3
#     Node 3, Type 1, BuildingBlock: BETDAH_clean_linker_0, # of connection points: 3
#     Node 4, Type 1, BuildingBlock: BETDAH_clean_linker_0, # of connection points: 3
#     Node 5, Type 1, BuildingBlock: BETDAH_clean_linker_0, # of connection points: 3
#     Edge 6, Type (0, 1), BuildingBlock: TEMPAE_clean_linker_10, # of connection points: 2
#     Edge 7, Type (0, 1), BuildingBlock: TEMPAE_clean_linker_10, # of connection points: 2
#     Edge 8, Type (0, 1), BuildingBlock: TEMPAE_clean_linker_10, # of connection points: 2
#     Edge 9, Type (0, 1), BuildingBlock: TEMPAE_clean_linker_10, # of connection points: 2
#     Edge 10, Type (0, 1), BuildingBlock: TEMPAE_clean_linker_10, # of connection points: 2
#     Edge 11, Type (0, 1), BuildingBlock: TEMPAE_clean_linker_10, # of connection points: 2
#     Edge 12, Type (0, 1), BuildingBlock: TEMPAE_clean_linker_10, # of connection points: 2
#     Edge 13, Type (0, 1), BuildingBlock: TEMPAE_clean_linker_10, # of connection points: 2
#     Edge 14, Type (0, 1), BuildingBlock: TEMPAE_clean_linker_10, # of connection points: 2
#     Edge 15, Type (0, 1), BuildingBlock: TEMPAE_clean_linker_10, # of connection points: 2
#     Edge 16, Type (0, 1), BuildingBlock: TEMPAE_clean_linker_10, # of connection points: 2
#     Edge 17, Type (0, 1), BuildingBlock: TEMPAE_clean_linker_10, # of connection points: 2
# Relax obj value: 0.101
# Max RMSD: 0.126
# Mean RMSD: 0.114
data_MOF--net-tsx--node1-JUFBIX_clean_sbu_0--node2-BETDAH_clean_linker_0--edge1-TEMPAE_clean_linker_10
_symmetry_space_group_name_H-M    P1
_symmetry_Int_Tables_number       1
_symmetry_cell_setting            triclinic
loop_
_symmetry_equiv_pos_as_xyz
'x, y, z'
_cell_length_a     20.605998
_cell_length_b     24.219038
_cell_length_c     33.06346
_cell_angle_alpha  92.012476
_cell_angle_beta   97.798427
_cell_angle_gamma 99.55409
loop_
_atom_site_label
_atom_site_type_symbol
_atom_site_fract_x
_atom_site_fract_y
_atom_site_fract_z
_atom_type_partial_charge
Co0 Co 0.05159 0.97346 -0.00225 0.0
C1 C 0.98569 0.99669 0.92114 0.0
Co2 Co 0.96463 0.01635 -0.00157 0.0
C3 C 0.14275 0.89014 -0.00055 0.0
C4 C 0.17664 0.96634 0.97205 0.0
N5 N 0.12666 0.94109 0.99108 0.0
N6 N 0.20117 0.88353 0.98684 0.0
C7 C 0.2222 0.93158 0.96968 0.0
H8 H 0.11195 0.85836 0.01394 0.0
H9 H 0.17898 0.00691 0.95917 0.0
C10 C 0.03157 0.997 0.07523 0.0
N11 N 0.8916 0.04926 0.00478 0.0
C12 C 0.87525 0.09675 0.98932 0.0
C13 C 0.84803 0.03433 0.03113 0.0
N14 N 0.82407 0.11243 0.00561 0.0
C15 C 0.80667 0.07329 0.03186 0.0
C16 C 0.93429 0.89914 -0.00316 0.0
O17 O 0.0699 0.97336 0.05587 0.0
O18 O 0.98446 0.01681 0.05538 0.0
O19 O 0.91162 0.94478 -0.00264 0.0
O20 O 0.99632 0.90081 -0.00387 0.0
O21 O 0.94591 0.01656 0.94141 0.0
H22 H 0.84826 0.99871 0.04996 0.0
H23 H 0.90261 0.12101 0.96827 0.0
O24 O 0.03269 0.97515 0.93987 0.0
O25 O 0.10474 0.04683 0.0 0.0
O26 O 0.01771 0.08777 -0.00051 0.0
C27 C 0.07987 0.09147 -5e-05 0.0
H28 H 0.26616 0.94016 0.95478 0.0
H29 H 0.76777 0.07356 0.0508 0.0
Co30 Co 0.56484 0.48124 0.4934 0.0
C31 C 0.49478 0.52032 0.42289 0.0
Co32 Co 0.48966 0.53406 0.50341 0.0
C33 C 0.68225 0.42445 0.493 0.0
C34 C 0.60213 0.39753 0.44437 0.0
N35 N 0.62055 0.43327 0.47781 0.0
N36 N 0.70274 0.38562 0.46948 0.0
C37 C 0.65235 0.36878 0.43905 0.0
H38 H 0.7116 0.4462 0.52032 0.0
H39 H 0.55457 0.39222 0.42499 0.0
C40 C 0.55993 0.49795 0.57411 0.0
N41 N 0.43072 0.57899 0.51774 0.0
C42 C 0.41242 0.62461 0.50017 0.0
C43 C 0.39469 0.57065 0.54879 0.0
N44 N 0.3663 0.64506 0.51908 0.0
C45 C 0.35556 0.61113 0.54985 0.0
C46 C 0.43789 0.42115 0.4982 0.0
O47 O 0.59198 0.47367 0.55055 0.0
O48 O 0.51588 0.52509 0.55893 0.0
O49 O 0.42152 0.46924 0.50186 0.0
O50 O 0.49716 0.41807 0.49318 0.0
O51 O 0.46387 0.54331 0.44752 0.0
H52 H 0.39616 0.53682 0.56919 0.0
H53 H 0.43153 0.64148 0.47343 0.0
O54 O 0.53751 0.49101 0.43689 0.0
O55 O 0.63185 0.5442 0.49406 0.0
O56 O 0.55909 0.59807 0.50531 0.0
C57 C 0.618 0.59286 0.49986 0.0
H58 H 0.65142 0.33679 0.41516 0.0
H59 H 0.32196 0.61505 0.57182 0.0
H60 H 0.12702 0.94409 0.371 0.0
H61 H 0.02928 0.08123 0.39932 0.0
H62 H 0.11159 0.988 0.49546 0.0
C63 C 0.10993 0.96965 0.3936 0.0
C64 C 0.12334 0.96013 0.4351 0.0
C65 C 0.07573 0.01272 0.38068 0.0
C66 C 0.05533 0.04776 0.40951 0.0
C67 C 0.06831 0.03842 0.45138 0.0
C68 C 0.1019 0.99473 0.46352 0.0
N69 N 0.04961 0.07193 0.48252 0.0
C70 C 0.01475 0.11601 0.4762 0.0
H71 H 0.90538 0.93613 0.60101 0.0
H72 H 0.0975 0.04139 0.63275 0.0
H73 H 0.06375 0.91717 0.53304 0.0
C74 C 0.9558 0.95045 0.59515 0.0
C75 C 0.97911 0.92326 0.56355 0.0
C76 C 0.99888 0.99068 0.6221 0.0
C77 C 0.06296 0.01042 0.61258 0.0
C78 C 0.08557 0.98558 0.57935 0.0
C79 C 0.04458 0.93998 0.55622 0.0
N80 N 0.15164 1.00232 0.5715 0.0
C81 C 0.17743 0.05791 0.566 0.0
H82 H 0.66076 0.44868 0.8872 0.0
H83 H 0.49676 0.53934 0.8804 0.0
H84 H 0.54043 0.44085 0.98299 0.0
C85 C 0.62165 0.46342 0.90124 0.0
C86 C 0.60734 0.44342 0.93865 0.0
C87 C 0.58055 0.49603 0.8792 0.0
C88 C 0.52944 0.51488 0.89742 0.0
C89 C 0.51605 0.49617 0.93583 0.0
C90 C 0.55368 0.45894 0.95522 0.0
N91 N 0.46005 0.50727 0.95337 0.0
C92 C 0.43437 0.55685 0.95161 0.0
H93 H 0.33601 0.48683 0.10822 0.0
H94 H 0.54324 0.56074 0.11771 0.0
H95 H 0.45379 0.4412 0.01948 0.0
C96 C 0.38281 0.49244 0.09609 0.0
C97 C 0.38807 0.4597 0.06133 0.0
C98 C 0.43942 0.52575 0.11863 0.0
C99 C 0.49863 0.53567 0.10099 0.0
C100 C 0.50255 0.5072 0.06381 0.0
C101 C 0.44817 0.46773 0.04529 0.0
N102 N 0.5633 0.51059 0.0477 0.0
C103 C 0.60811 0.55985 0.04629 0.0
C104 C 0.19202 0.15179 0.00478 0.0
C105 C 0.12273 0.14715 0.00134 0.0
C106 C 0.23335 0.2045 0.00923 0.0
C107 C 0.20464 0.25368 0.01019 0.0
C108 C 0.13464 0.24932 0.00465 0.0
C109 C 0.0945 0.19609 0.00037 0.0
C110 C 0.30785 0.20745 0.01505 0.0
C111 C 0.10218 0.30078 0.00535 0.0
C112 C 0.30846 0.37609 0.0761 0.0
C113 C 0.33601 0.41013 0.04708 0.0
C114 C 0.26447 0.32595 0.06426 0.0
C115 C 0.24777 0.30888 0.02227 0.0
C116 C 0.27415 0.3434 -0.00739 0.0
C117 C 0.31819 0.39371 0.00539 0.0
C118 C 0.23764 0.29032 0.09692 0.0
C119 C 0.25718 0.3265 0.94756 0.0
H120 H 0.2142 0.1142 0.00518 0.0
H121 H 0.04094 0.19291 -0.00273 0.0
H122 H 0.33091 0.23747 -0.00563 0.0
H123 H 0.32892 0.22296 0.04688 0.0
H124 H 0.32209 0.16592 0.00921 0.0
H125 H 0.04756 0.29061 -0.00433 0.0
H126 H 0.11157 0.32074 0.03679 0.0
H127 H 0.12394 0.33206 0.98504 0.0
H128 H 0.32328 0.38749 0.10842 0.0
H129 H 0.33934 0.41984 0.98285 0.0
H130 H 0.25518 0.24944 0.09608 0.0
H131 H 0.18251 0.28143 0.09112 0.0
H132 H 0.25346 0.31077 0.12811 0.0
H133 H 0.27666 0.28762 0.94092 0.0
H134 H 0.27838 0.35963 0.92832 0.0
H135 H 0.20244 0.31712 0.93865 0.0
C136 C 0.19661 0.78041 0.98231 0.0
C137 C 0.23357 0.83491 0.98768 0.0
C138 C 0.22807 0.73352 0.97786 0.0
C139 C 0.29812 0.74136 0.97901 0.0
C140 C 0.33574 0.79611 0.98611 0.0
C141 C 0.3031 0.842 0.99037 0.0
C142 C 0.18618 0.67581 0.97057 0.0
C143 C 0.41048 0.80651 0.98805 0.0
C144 C 0.39167 0.61926 -0.00243 0.0
C145 C 0.40185 0.60431 0.95795 0.0
C146 C 0.3572 0.66322 0.00487 0.0
C147 C 0.3323 0.69282 0.97163 0.0
C148 C 0.34259 0.6775 0.93143 0.0
C149 C 0.37727 0.63322 0.92505 0.0
C150 C 0.34767 0.67807 0.04815 0.0
C151 C 0.31714 0.70801 0.89518 0.0
H152 H 0.14293 0.77464 0.97992 0.0
H153 H 0.33208 0.88389 -0.00479 0.0
H154 H 0.18978 0.65826 0.93966 0.0
H155 H 0.20502 0.64712 -0.007 0.0
H156 H 0.133 0.67633 0.9729 0.0
H157 H 0.43271 0.85134 -0.00458 0.0
H158 H 0.43306 0.78099 0.0115 0.0
H159 H 0.42393 0.79339 0.95824 0.0
H160 H 0.41038 0.59624 0.0229 0.0
H161 H 0.38483 0.62103 0.8944 0.0
H162 H 0.29397 0.67559 0.05015 0.0
H163 H 0.37221 0.72191 0.0572 0.0
H164 H 0.36844 0.64993 0.07039 0.0
H165 H 0.26263 0.70604 0.89337 0.0
H166 H 0.32781 0.69019 0.86587 0.0
H167 H 0.34041 0.75295 0.89899 0.0
C168 C 0.91202 0.79548 0.00741 0.0
C169 C 0.88832 0.84572 -0.00024 0.0
C170 C 0.86838 0.7464 0.01403 0.0
C171 C 0.79959 0.74768 0.0129 0.0
C172 C 0.77531 0.79785 0.00401 0.0
C173 C 0.81981 0.84606 -0.00242 0.0
C174 C 0.89606 0.69358 0.02324 0.0
C175 C 0.70237 0.80108 0.00227 0.0
C176 C 0.67057 0.61396 -0.00142 0.0
C177 C 0.65668 0.60691 0.03849 0.0
C178 C 0.71826 0.6588 0.98988 0.0
C179 C 0.75273 0.6973 0.02202 0.0
C180 C 0.73913 0.68961 0.0626 0.0
C181 C 0.69105 0.64431 0.07035 0.0
C182 C 0.73089 0.66547 0.94625 0.0
C183 C 0.7746 0.72974 0.09767 0.0
H184 H 0.96481 0.79485 0.00927 0.0
H185 H 0.80077 0.88453 -0.00848 0.0
H186 H 0.88848 0.68175 0.05459 0.0
H187 H 0.86914 0.65837 0.00181 0.0
H188 H 0.95 0.6986 0.02095 0.0
H189 H 0.69117 0.84277 -0.00638 0.0
H190 H 0.67202 0.76858 0.97983 0.0
H191 H 0.68655 0.79257 0.03254 0.0
H192 H 0.64391 0.58443 0.97408 0.0
H193 H 0.6802 0.63824 0.10124 0.0
H194 H 0.78461 0.66773 0.94438 0.0
H195 H 0.71692 0.70536 0.93553 0.0
H196 H 0.70226 0.6304 0.92519 0.0
H197 H 0.82922 0.73313 0.09898 0.0
H198 H 0.76061 0.71646 0.12759 0.0
H199 H 0.76256 0.77222 0.0928 0.0
C200 C 0.78522 0.18121 0.95947 0.0
C201 C 0.79719 0.16289 -0.001 0.0
C202 C 0.75633 0.22914 0.95239 0.0
C203 C 0.74078 0.26009 0.98589 0.0
C204 C 0.75496 0.24273 0.02607 0.0
C205 C 0.78226 0.19383 0.03208 0.0
C206 C 0.74075 0.24573 0.90901 0.0
C207 C 0.74077 0.27551 0.0626 0.0
C208 C 0.71131 0.40731 0.96384 0.0
C209 C 0.64176 0.3992 0.95646 0.0
C210 C 0.74444 0.36291 0.97537 0.0
C211 C 0.70689 0.30907 0.9785 0.0
C212 C 0.63653 0.30124 0.97227 0.0
C213 C 0.6048 0.34663 0.96166 0.0
C214 C 0.81949 0.37314 0.98283 0.0
C215 C 0.59475 0.24431 0.97471 0.0
H216 H 0.79667 0.15695 0.93401 0.0
H217 H 0.79266 0.17994 0.06272 0.0
H218 H 0.68647 0.24494 0.90127 0.0
H219 H 0.76595 0.28922 0.90591 0.0
H220 H 0.7565 0.21741 0.88647 0.0
H221 H 0.75882 0.25844 0.09198 0.0
H222 H 0.76473 0.32008 0.06265 0.0
H223 H 0.68648 0.27471 0.06078 0.0
H224 H 0.73967 0.44813 0.95976 0.0
H225 H 0.55096 0.3403 0.95534 0.0
H226 H 0.8385 0.35071 0.95833 0.0
H227 H 0.83753 0.35638 0.01229 0.0
H228 H 0.84095 0.41843 0.9834 0.0
H229 H 0.60428 0.21485 0.9506 0.0
H230 H 0.54068 0.24586 0.97071 0.0
H231 H 0.60861 0.22689 0.00461 0.0
C232 C 0.66526 0.6931 0.52116 0.0
C233 C 0.67071 0.64261 0.501 0.0
C234 C 0.7178 0.73889 0.52564 0.0
C235 C 0.77654 0.73434 0.50879 0.0
C236 C 0.78076 0.68449 0.48646 0.0
C237 C 0.72806 0.63897 0.48321 0.0
C238 C 0.71174 0.79111 0.55017 0.0
C239 C 0.84191 0.67847 0.46734 0.0
C240 C 0.89493 0.87236 0.50744 0.0
C241 C 0.93744 0.87141 0.54407 0.0
C242 C 0.84423 0.82643 0.49406 0.0
C243 C 0.83576 0.77943 0.51842 0.0
C244 C 0.8812 0.77745 0.55432 0.0
C245 C 0.93161 0.82351 0.56663 0.0
C246 C 0.79749 0.82958 0.45525 0.0
C247 C 0.87389 0.72838 0.5813 0.0
H248 H 0.62102 0.69608 0.53493 0.0
H249 H 0.73212 0.60021 0.46707 0.0
H250 H 0.74875 0.79671 0.57835 0.0
H251 H 0.72273 0.82865 0.53237 0.0
H252 H 0.66141 0.78924 0.55913 0.0
H253 H 0.8341 0.63991 0.44682 0.0
H254 H 0.85651 0.71539 0.44956 0.0
H255 H 0.88408 0.6767 0.4917 0.0
H256 H 0.89924 0.90997 0.49045 0.0
H257 H 0.96427 0.82355 0.59528 0.0
H258 H 0.74839 0.83582 0.46299 0.0
H259 H 0.78956 0.78975 0.43619 0.0
H260 H 0.81644 0.86472 0.43692 0.0
H261 H 0.82697 0.72601 0.59464 0.0
H262 H 0.91589 0.73185 0.60669 0.0
H263 H 0.8709 0.68848 0.56309 0.0
C264 C 0.78344 0.34004 0.51234 0.0
C265 C 0.76291 0.36237 0.47524 0.0
C266 C 0.83179 0.30498 0.51494 0.0
C267 C 0.86033 0.29269 0.47967 0.0
C268 C 0.84349 0.31908 0.44314 0.0
C269 C 0.79474 0.35331 0.44136 0.0
C270 C 0.84853 0.27779 0.55449 0.0
C271 C 0.87316 0.30787 0.40497 0.0
C272 C 0.00849 0.21604 0.48698 0.0
C273 C 0.97689 0.16105 0.47518 0.0
C274 C 0.97129 0.25954 0.48907 0.0
C275 C 0.9011 0.24729 0.4792 0.0
C276 C 0.86935 0.19142 0.46728 0.0
C277 C 0.90779 0.14892 0.46544 0.0
C278 C 1.00696 0.31846 0.50164 0.0
C279 C 0.7947 0.17648 0.45652 0.0
H280 H 0.75825 0.34666 0.53836 0.0
H281 H 0.77879 0.3709 0.41274 0.0
H282 H 0.82633 0.23259 0.5509 0.0
H283 H 0.90312 0.28071 0.5623 0.0
H284 H 0.82927 0.29724 0.58032 0.0
H285 H 0.86133 0.33696 0.38087 0.0
H286 H 0.92796 0.31186 0.41209 0.0
H287 H 0.85335 0.26427 0.39255 0.0
H288 H 0.06216 0.22487 0.49495 0.0
H289 H 0.88373 0.10601 0.45681 0.0
H290 H 0.98538 0.33616 0.52712 0.0
H291 H 1.00031 0.34569 0.47564 0.0
H292 H 0.06103 0.32023 0.5114 0.0
H293 H 0.77039 0.18894 0.48255 0.0
H294 H 0.77773 0.13089 0.44877 0.0
H295 H 0.77755 0.19987 0.43002 0.0
C296 C 0.32405 0.36892 0.50574 0.0
C297 C 0.3919 0.36916 0.50446 0.0
C298 C 0.28218 0.32011 0.51474 0.0
C299 C 0.30921 0.27099 0.52349 0.0
C300 C 0.37751 0.27107 0.52198 0.0
C301 C 0.41768 0.3198 0.5121 0.0
C302 C 0.20915 0.32097 0.51484 0.0
C303 C 0.40867 0.2199 0.53156 0.0
C304 C 0.22924 0.15633 0.58579 0.0
C305 C 0.2052 0.11339 0.55549 0.0
C306 C 0.26072 0.2091 0.57563 0.0
C307 C 0.26691 0.21896 0.53415 0.0
C308 C 0.23961 0.17612 0.50339 0.0
C309 C 0.21044 0.12346 0.51462 0.0
C310 C 0.29023 0.25326 0.60942 0.0
C311 C 0.24383 0.18489 0.45877 0.0
H312 H 0.30377 0.40686 0.49984 0.0
H313 H 0.47011 0.31954 0.51154 0.0
H314 H 0.17922 0.28912 0.49175 0.0
H315 H 0.19485 0.3097 0.54503 0.0
H316 H 0.19596 0.36263 0.50794 0.0
H317 H 0.46292 0.22733 0.53 0.0
H318 H 0.40081 0.20709 0.56268 0.0
H319 H 0.38454 0.18427 0.50971 0.0
H320 H 0.22529 0.14812 0.61748 0.0
H321 H 0.19334 0.08975 0.49138 0.0
H322 H 0.27343 0.29354 0.60252 0.0
H323 H 0.34525 0.26081 0.6116 0.0
H324 H 0.2766 0.24073 0.63957 0.0
H325 H 0.22968 0.22568 0.45037 0.0
H326 H 0.21116 0.15093 0.43846 0.0
H327 H 0.2958 0.18589 0.45302 0.0
C328 C 0.36106 0.73316 0.48377 0.0
C329 C 0.33322 0.69171 0.50805 0.0
C330 C 0.32856 0.778 0.47233 0.0
C331 C 0.26711 0.78193 0.48588 0.0
C332 C 0.23916 0.74087 0.51084 0.0
C333 C 0.27219 0.69612 0.5213 0.0
C334 C 0.35955 0.82083 0.44534 0.0
C335 C 0.17387 0.74382 0.52612 0.0
C336 C 0.20723 0.92212 0.48394 0.0
C337 C 0.15985 0.91432 0.44856 0.0
C338 C 0.24239 0.87935 0.49658 0.0
C339 C 0.23076 0.82791 0.47289 0.0
C340 C 0.18326 0.81982 0.43711 0.0
C341 C 0.14794 0.86284 0.42563 0.0
C342 C 0.29191 0.88917 0.53529 0.0
C343 C 0.16964 0.76561 0.41095 0.0
H344 H 0.40845 0.73083 0.47377 0.0
H345 H 0.24929 0.66413 0.53941 0.0
H346 H 0.3253 0.82133 0.41644 0.0
H347 H 0.3676 0.86337 0.46069 0.0
H348 H 0.40789 0.81212 0.43772 0.0
H349 H 0.16057 0.71017 0.54703 0.0
H350 H 0.17628 0.78504 0.54251 0.0
H351 H 0.13339 0.74004 0.49986 0.0
H352 H 0.21758 0.96198 0.50153 0.0
H353 H 0.11052 0.85592 0.39873 0.0
H354 H 0.34219 0.88547 0.52825 0.0
H355 H 0.27851 0.85666 0.55698 0.0
H356 H 0.2942 0.93114 0.55065 0.0
H357 H 0.21644 0.75666 0.40116 0.0
H358 H 0.13282 0.76677 0.38327 0.0
H359 H 0.1505 0.73028 0.42898 0.0
C360 C 0.99849 0.03267 0.1394 0.0
C361 C 0.04062 1.00336 0.12034 0.0
C362 C 1.00426 0.0391 0.18195 0.0
C363 C 0.05331 0.01562 0.20621 0.0
C364 C 0.09704 0.98697 0.18737 0.0
C365 C 0.09018 0.98115 0.14448 0.0
C366 C 0.95661 0.06977 0.20091 0.0
C367 C 0.15003 0.96149 0.21253 0.0
C368 C 0.0977 0.06344 0.3186 0.0
C369 C 0.06178 0.01908 0.33654 0.0
C370 C 0.09514 0.06327 0.27595 0.0
C371 C 0.0555 0.01776 0.2512 0.0
C372 C 0.01711 0.97406 0.26937 0.0
C373 C 0.02103 0.97516 0.31194 0.0
C374 C 0.1366 0.11054 0.2575 0.0
C375 C 0.97352 0.92526 0.24395 0.0
H376 H 0.96022 0.0504 0.12106 0.0
H377 H 0.12303 0.95878 0.12994 0.0
H378 H 0.92503 0.04042 0.21818 0.0
H379 H 0.98452 0.10384 0.22298 0.0
H380 H 0.92369 0.08827 0.17768 0.0
H381 H 0.18252 0.94354 0.1933 0.0
H382 H 0.18141 0.9936 0.23485 0.0
H383 H 0.12636 0.92769 0.23028 0.0
H384 H 0.13016 0.0967 0.33801 0.0
H385 H 0.99408 0.94062 0.32625 0.0
H386 H 0.10489 0.12954 0.23399 0.0
H387 H 0.1744 0.0939 0.24197 0.0
H388 H 0.1625 0.14389 0.28085 0.0
H389 H 0.93756 0.94074 0.22086 0.0
H390 H 0.94536 0.89564 0.26286 0.0
H391 H 1.00452 0.90197 0.2271 0.0
C392 C 0.92851 0.02442 0.85515 0.0
C393 C 0.98108 1.00245 0.87663 0.0
C394 C 0.92516 0.03134 0.813 0.0
C395 C 0.97565 0.01608 0.79212 0.0
C396 C 0.02967 0.99532 0.81389 0.0
C397 C 0.03155 0.98854 0.85582 0.0
C398 C 0.86668 0.05324 0.79062 0.0
C399 C 0.08461 0.97861 0.79267 0.0
C400 C 0.94701 0.95875 0.68311 0.0
C401 C 0.98168 1.00253 0.66347 0.0
C402 C 0.93953 0.96472 0.72425 0.0
C403 C 0.969 0.01521 0.74693 0.0
C404 C 1.00039 0.06094 0.72707 0.0
C405 C 1.00609 0.05416 0.68537 0.0
C406 C 0.90512 0.915 0.74419 0.0
C407 C 0.03216 0.11552 0.75042 0.0
H408 H 0.88966 0.03576 0.87118 0.0
H409 H 0.07283 0.9723 0.8723 0.0
H410 H 0.88396 0.08741 0.77109 0.0
H411 H 0.83486 0.01912 0.77016 0.0
H412 H 0.83582 0.06924 0.81193 0.0
H413 H 0.1256 0.96742 0.81456 0.0
H414 H 0.06421 0.94191 0.77096 0.0
H415 H 0.10557 0.01332 0.77471 0.0
H416 H 0.92923 0.91803 0.66727 0.0
H417 H 0.03201 0.08852 0.67044 0.0
H418 H 0.87055 0.92824 0.76405 0.0
H419 H 0.94279 0.89619 0.7638 0.0
H420 H 0.87666 0.88206 0.7213 0.0
H421 H 0.99917 0.12862 0.77145 0.0
H422 H 0.04404 0.1497 0.72966 0.0
H423 H 0.07904 0.10975 0.76936 0.0
C424 C 0.5137 0.49266 0.63909 0.0
C425 C 0.5694 0.49413 0.61881 0.0
C426 C 0.5199 0.49535 0.68173 0.0
C427 C 0.58367 0.50015 0.7049 0.0
C428 C 0.64032 0.50089 0.68469 0.0
C429 C 0.63244 0.4974 0.64161 0.0
C430 C 0.45796 0.49289 0.70191 0.0
C431 C 0.70905 0.50615 0.70858 0.0
C432 C 0.59012 0.55029 0.81603 0.0
C433 C 0.58342 0.49921 0.83484 0.0
C434 C 0.59375 0.55169 0.77384 0.0
C435 C 0.58944 0.50078 0.75021 0.0
C436 C 0.58305 0.44928 0.76933 0.0
C437 C 0.58008 0.44919 0.8113 0.0
C438 C 0.60078 0.60737 0.75435 0.0
C439 C 0.5767 0.39397 0.74525 0.0
H440 H 0.46477 0.48957 0.62142 0.0
H441 H 0.67553 0.49917 0.62587 0.0
H442 H 0.45252 0.45616 0.72107 0.0
H443 H 0.46203 0.53094 0.72239 0.0
H444 H 0.41217 0.48964 0.67931 0.0
H445 H 0.74804 0.5072 0.68834 0.0
H446 H 0.72021 0.54503 0.72887 0.0
H447 H 0.71146 0.47039 0.72847 0.0
H448 H 0.59294 0.58889 0.83431 0.0
H449 H 0.5739 0.40951 0.82576 0.0
H450 H 0.55483 0.60958 0.73313 0.0
H451 H 0.64245 0.61162 0.73602 0.0
H452 H 0.60974 0.64332 0.7774 0.0
H453 H 0.52965 0.38653 0.72355 0.0
H454 H 0.57676 0.35806 0.76525 0.0
H455 H 0.61807 0.39493 0.72691 0.0
C456 C 0.52626 0.51031 0.35322 0.0
C457 C 0.48525 0.53038 0.37879 0.0
C458 C 0.51906 0.51962 0.31144 0.0
C459 C 0.4692 0.54938 0.29461 0.0
C460 C 0.42895 0.57136 0.3204 0.0
C461 C 0.43751 0.56165 0.3623 0.0
C462 C 0.56306 0.49545 0.28501 0.0
C463 C 0.37511 0.60304 0.30348 0.0
C464 C 0.47969 0.58582 0.18442 0.0
C465 C 0.43983 0.53814 0.16322 0.0
C466 C 0.48705 0.59209 0.2274 0.0
C467 C 0.45351 0.54987 0.24945 0.0
C468 C 0.41039 0.50348 0.22812 0.0
C469 C 0.40484 0.49785 0.1856 0.0
C470 C 0.53346 0.64219 0.24927 0.0
C471 C 0.37352 0.45741 0.25033 0.0
H472 H 0.56394 0.48679 0.36577 0.0
H473 H 0.40617 0.57787 0.38197 0.0
H474 H 0.53275 0.46114 0.26404 0.0
H475 H 0.58559 0.52798 0.26586 0.0
H476 H 0.60361 0.47833 0.3034 0.0
H477 H 0.35423 0.6237 0.32808 0.0
H478 H 0.39461 0.63538 0.28319 0.0
H479 H 0.33417 0.57362 0.28474 0.0
H480 H 0.50662 0.61736 0.16758 0.0
H481 H 0.3756 0.45973 0.17026 0.0
H482 H 0.57937 0.62866 0.26411 0.0
H483 H 0.51027 0.6606 0.27372 0.0
H484 H 0.54768 0.67516 0.22802 0.0
H485 H 0.40947 0.43346 0.26661 0.0
H486 H 0.33622 0.42765 0.22917 0.0
H487 H 0.34764 0.47543 0.27357 0.0
loop_
_geom_bond_atom_site_label_1
_geom_bond_atom_site_label_2
_geom_bond_distance
_geom_bond_site_symmetry_2
_ccdc_geom_bond_type
Co0 N5 2.057 . S
Co0 O17 2.021 . S
Co0 O20 2.062 1_455 S
Co0 O24 2.117 1_554 S
Co0 O25 2.020 1_565 S
C1 O21 1.259 1_455 S
C1 O24 1.258 1_545 S
Co2 N11 2.057 . S
Co2 O18 2.118 . S
Co2 O19 2.020 1_545 S
Co2 O21 2.021 1_554 S
Co2 O26 2.062 1_655 S
C3 N5 1.316 . S
C3 N6 1.347 . S
C3 H8 0.931 . S
C4 N5 1.375 1_556 S
C4 C7 1.350 . S
C4 H9 0.930 . S
N5 Co0 2.057 . S
N5 C3 1.316 . S
N5 C4 1.375 1_554 S
N6 C3 1.347 . S
N6 C7 1.373 1_554 S
C7 C4 1.350 . S
C7 N6 1.373 1_556 S
C7 H28 0.931 . S
H8 C3 0.931 . S
H9 C4 0.930 . S
C10 O17 1.259 1_545 S
C10 O18 1.255 1_455 S
N11 Co2 2.057 . S
N11 C12 1.316 1_554 S
N11 C13 1.375 . S
C12 N11 1.316 1_556 S
C12 N14 1.347 1_556 S
C12 H23 0.931 . S
C13 N11 1.375 . S
C13 C15 1.350 . S
C13 H22 0.930 . S
N14 C12 1.347 1_554 S
N14 C15 1.373 . S
C15 C13 1.350 . S
C15 N14 1.373 . S
C15 H29 0.931 . S
C16 O19 1.256 . S
C16 O20 1.255 . S
O17 Co0 2.021 . S
O17 C10 1.259 1_565 S
O18 Co2 2.118 . S
O18 C10 1.255 1_655 S
O19 Co2 2.020 1_565 S
O19 C16 1.256 . S
O20 Co0 2.062 1_655 S
O20 C16 1.255 . S
O21 C1 1.259 1_655 S
O21 Co2 2.021 1_556 S
H22 C13 0.930 . S
H23 C12 0.931 . S
O24 Co0 2.117 1_556 S
O24 C1 1.258 1_565 S
O25 Co0 2.020 1_545 S
O25 C27 1.256 . S
O26 Co2 2.062 1_455 S
O26 C27 1.255 . S
C27 O25 1.256 . S
C27 O26 1.255 . S
H28 C7 0.931 . S
H29 C15 0.931 . S
Co30 N35 2.057 . S
Co30 O47 2.021 . S
Co30 O50 2.062 . S
Co30 O54 2.117 . S
Co30 O55 2.020 . S
C31 O51 1.259 . S
C31 O54 1.258 . S
Co32 N41 2.057 . S
Co32 O48 2.117 . S
Co32 O49 2.020 . S
Co32 O51 2.021 . S
Co32 O56 2.062 . S
C33 N35 1.316 . S
C33 N36 1.347 . S
C33 H38 0.931 . S
C34 N35 1.375 . S
C34 C37 1.350 . S
C34 H39 0.930 . S
N35 Co30 2.057 . S
N35 C33 1.316 . S
N35 C34 1.375 . S
N36 C33 1.347 . S
N36 C37 1.373 . S
C37 C34 1.350 . S
C37 N36 1.373 . S
C37 H58 0.931 . S
H38 C33 0.931 . S
H39 C34 0.930 . S
C40 O47 1.259 . S
C40 O48 1.258 . S
N41 Co32 2.057 . S
N41 C42 1.316 . S
N41 C43 1.375 . S
C42 N41 1.316 . S
C42 N44 1.347 . S
C42 H53 0.931 . S
C43 N41 1.375 . S
C43 C45 1.350 . S
C43 H52 0.930 . S
N44 C42 1.347 . S
N44 C45 1.373 . S
C45 C43 1.350 . S
C45 N44 1.373 . S
C45 H59 0.931 . S
C46 O49 1.256 . S
C46 O50 1.255 . S
O47 Co30 2.021 . S
O47 C40 1.259 . S
O48 Co32 2.117 . S
O48 C40 1.258 . S
O49 Co32 2.020 . S
O49 C46 1.256 . S
O50 Co30 2.062 . S
O50 C46 1.255 . S
O51 C31 1.259 . S
O51 Co32 2.021 . S
H52 C43 0.930 . S
H53 C42 0.931 . S
O54 Co30 2.117 . S
O54 C31 1.258 . S
O55 Co30 2.020 . S
O55 C57 1.256 . S
O56 Co32 2.062 . S
O56 C57 1.255 . S
C57 O55 1.256 . S
C57 O56 1.255 . S
H58 C37 0.931 . S
H59 C45 0.931 . S
H60 C63 0.929 . S
H61 C66 0.929 1_655 S
H62 C68 0.930 . S
C63 H60 0.929 . S
C63 C64 1.398 . S
C63 C65 1.396 . S
C64 C63 1.398 . S
C64 C68 1.407 . S
C65 C63 1.396 . S
C65 C66 1.394 1_565 S
C66 H61 0.929 1_455 S
C66 C65 1.394 1_545 S
C66 C67 1.382 . S
C67 C66 1.382 . S
C67 C68 1.392 1_545 S
C67 N69 1.420 1_455 S
C68 H62 0.930 . S
C68 C64 1.407 . S
C68 C67 1.392 1_565 S
N69 C67 1.420 1_655 S
N69 C70 1.244 . S
C70 N69 1.244 . S
H71 C74 0.929 . S
H72 C77 0.929 . S
H73 C79 0.930 . S
C74 H71 0.929 . S
C74 C75 1.398 . S
C74 C76 1.397 . S
C75 C74 1.398 . S
C75 C79 1.407 . S
C76 C74 1.397 . S
C76 C77 1.393 1_665 S
C77 H72 0.929 . S
C77 C76 1.393 1_445 S
C77 C78 1.382 . S
C78 C77 1.382 . S
C78 C79 1.392 1_445 S
C78 N80 1.420 . S
C79 H73 0.930 . S
C79 C75 1.407 . S
C79 C78 1.392 1_665 S
N80 C78 1.420 . S
N80 C81 1.244 . S
C81 N80 1.244 . S
H82 C85 0.929 . S
H83 C88 0.929 . S
H84 C90 0.930 1_554 S
C85 H82 0.929 . S
C85 C86 1.398 . S
C85 C87 1.396 . S
C86 C85 1.398 . S
C86 C90 1.407 . S
C87 C85 1.396 . S
C87 C88 1.394 . S
C88 H83 0.929 . S
C88 C87 1.394 . S
C88 C89 1.382 . S
C89 C88 1.382 . S
C89 C90 1.392 . S
C89 N91 1.420 . S
C90 H84 0.930 1_556 S
C90 C86 1.407 . S
C90 C89 1.392 . S
N91 C89 1.420 . S
N91 C92 1.244 . S
C92 N91 1.244 . S
H93 C96 0.929 . S
H94 C99 0.929 . S
H95 C101 0.930 . S
C96 H93 0.929 . S
C96 C97 1.398 . S
C96 C98 1.396 . S
C97 C96 1.398 . S
C97 C101 1.407 . S
C98 C96 1.396 . S
C98 C99 1.394 . S
C99 H94 0.929 . S
C99 C98 1.394 . S
C99 C100 1.382 . S
C100 C99 1.382 . S
C100 C101 1.392 . S
C100 N102 1.420 . S
C101 H95 0.930 . S
C101 C97 1.407 . S
C101 C100 1.392 . S
N102 C100 1.420 . S
N102 C103 1.244 . S
C103 N102 1.244 . S
C104 C105 1.391 . S
C104 C106 1.394 . S
C104 H120 0.931 . S
C105 C104 1.391 . S
C105 C109 1.376 . S
C106 C104 1.394 . S
C106 C107 1.369 . S
C106 C110 1.531 . S
C107 C106 1.369 . S
C107 C108 1.410 . S
C107 C115 1.503 . S
C108 C107 1.410 . S
C108 C109 1.392 . S
C108 C111 1.511 . S
C109 C105 1.376 . S
C109 C108 1.392 . S
C109 H121 0.929 . S
C110 C106 1.531 . S
C110 H122 0.960 . S
C110 H123 0.962 . S
C110 H124 0.960 . S
C111 C108 1.511 . S
C111 H125 0.961 . S
C111 H126 0.961 . S
C111 H127 0.961 1_554 S
C112 C113 1.370 . S
C112 C114 1.363 . S
C112 H128 0.931 . S
C113 C112 1.370 . S
C113 C117 1.388 1_554 S
C114 C112 1.363 . S
C114 C115 1.370 . S
C114 C118 1.524 . S
C115 C107 1.503 . S
C115 C114 1.370 . S
C115 C116 1.403 1_554 S
C116 C115 1.403 1_556 S
C116 C117 1.405 . S
C116 C119 1.539 . S
C117 C113 1.388 1_556 S
C117 C116 1.405 . S
C117 H129 0.949 . S
C118 C114 1.524 . S
C118 H130 0.956 . S
C118 H131 0.961 . S
C118 H132 0.961 . S
C119 C116 1.539 . S
C119 H133 0.958 . S
C119 H134 0.961 . S
C119 H135 0.960 . S
H120 C104 0.931 . S
H121 C109 0.929 . S
H122 C110 0.960 . S
H123 C110 0.962 . S
H124 C110 0.960 . S
H125 C111 0.961 . S
H126 C111 0.961 . S
H127 C111 0.961 1_556 S
H128 C112 0.931 . S
H129 C117 0.949 . S
H130 C118 0.956 . S
H131 C118 0.961 . S
H132 C118 0.961 . S
H133 C119 0.958 . S
H134 C119 0.961 . S
H135 C119 0.960 . S
C136 C137 1.391 1_556 S
C136 C138 1.394 . S
C136 H152 0.931 . S
C137 C136 1.391 1_554 S
C137 C141 1.376 . S
C138 C136 1.394 . S
C138 C139 1.369 1_556 S
C138 C142 1.531 . S
C139 C138 1.369 1_554 S
C139 C140 1.410 . S
C139 C147 1.502 1_554 S
C140 C139 1.410 . S
C140 C141 1.392 . S
C140 C143 1.511 . S
C141 C137 1.376 . S
C141 C140 1.392 . S
C141 H153 0.929 . S
C142 C138 1.531 . S
C142 H154 0.960 . S
C142 H155 0.962 . S
C142 H156 0.960 . S
C143 C140 1.511 . S
C143 H157 0.961 . S
C143 H158 0.961 . S
C143 H159 0.961 . S
C144 C145 1.370 1_554 S
C144 C146 1.363 . S
C144 H160 0.931 . S
C145 C144 1.370 1_556 S
C145 C149 1.408 . S
C146 C144 1.363 . S
C146 C147 1.365 1_554 S
C146 C150 1.524 . S
C147 C139 1.502 1_556 S
C147 C146 1.365 1_556 S
C147 C148 1.409 . S
C148 C147 1.409 . S
C148 C149 1.404 . S
C148 C151 1.539 . S
C149 C145 1.408 . S
C149 C148 1.404 . S
C149 H161 0.930 . S
C150 C146 1.524 . S
C150 H162 0.956 . S
C150 H163 0.961 . S
C150 H164 0.961 . S
C151 C148 1.539 . S
C151 H165 0.958 . S
C151 H166 0.961 . S
C151 H167 0.960 . S
H152 C136 0.931 . S
H153 C141 0.929 . S
H154 C142 0.960 . S
H155 C142 0.962 . S
H156 C142 0.960 . S
H157 C143 0.961 . S
H158 C143 0.961 . S
H159 C143 0.961 . S
H160 C144 0.931 . S
H161 C149 0.930 . S
H162 C150 0.956 . S
H163 C150 0.961 . S
H164 C150 0.961 . S
H165 C151 0.958 . S
H166 C151 0.961 . S
H167 C151 0.960 . S
C168 C169 1.391 1_556 S
C168 C170 1.394 . S
C168 H184 0.931 . S
C169 C168 1.391 1_554 S
C169 C173 1.376 . S
C170 C168 1.394 . S
C170 C171 1.369 1_556 S
C170 C174 1.531 . S
C171 C170 1.369 1_554 S
C171 C172 1.410 . S
C171 C179 1.503 . S
C172 C171 1.410 . S
C172 C173 1.392 . S
C172 C175 1.511 . S
C173 C169 1.376 . S
C173 C172 1.392 . S
C173 H185 0.929 . S
C174 C170 1.531 . S
C174 H186 0.960 . S
C174 H187 0.962 . S
C174 H188 0.960 . S
C175 C172 1.511 . S
C175 H189 0.961 . S
C175 H190 0.961 . S
C175 H191 0.961 . S
C176 C177 1.376 . S
C176 C178 1.361 1_554 S
C176 H192 0.927 1_554 S
C177 C176 1.376 . S
C177 C181 1.408 . S
C178 C176 1.361 1_556 S
C178 C179 1.370 1_556 S
C178 C182 1.524 . S
C179 C171 1.503 . S
C179 C178 1.370 1_554 S
C179 C180 1.403 . S
C180 C179 1.403 . S
C180 C181 1.404 . S
C180 C183 1.539 . S
C181 C177 1.408 . S
C181 C180 1.404 . S
C181 H193 0.930 . S
C182 C178 1.524 . S
C182 H194 0.956 . S
C182 H195 0.961 . S
C182 H196 0.961 . S
C183 C180 1.539 . S
C183 H197 0.958 . S
C183 H198 0.961 . S
C183 H199 0.960 . S
H184 C168 0.931 . S
H185 C173 0.929 . S
H186 C174 0.960 . S
H187 C174 0.962 . S
H188 C174 0.960 . S
H189 C175 0.961 . S
H190 C175 0.961 . S
H191 C175 0.961 . S
H192 C176 0.927 1_556 S
H193 C181 0.930 . S
H194 C182 0.956 . S
H195 C182 0.961 . S
H196 C182 0.961 . S
H197 C183 0.958 . S
H198 C183 0.961 . S
H199 C183 0.960 . S
C200 C201 1.391 . S
C200 C202 1.394 . S
C200 H216 0.931 . S
C201 C200 1.391 . S
C201 C205 1.376 1_556 S
C202 C200 1.394 . S
C202 C203 1.369 . S
C202 C206 1.531 . S
C203 C202 1.369 . S
C203 C204 1.410 1_556 S
C203 C211 1.503 . S
C204 C203 1.410 1_554 S
C204 C205 1.392 . S
C204 C207 1.511 . S
C205 C201 1.376 1_554 S
C205 C204 1.392 . S
C205 H217 0.929 . S
C206 C202 1.531 . S
C206 H218 0.960 . S
C206 H219 0.962 . S
C206 H220 0.960 . S
C207 C204 1.511 . S
C207 H221 0.961 . S
C207 H222 0.961 . S
C207 H223 0.961 . S
C208 C209 1.370 . S
C208 C210 1.363 . S
C208 H224 0.931 . S
C209 C208 1.370 . S
C209 C213 1.408 . S
C210 C208 1.363 . S
C210 C211 1.370 . S
C210 C214 1.524 . S
C211 C203 1.503 . S
C211 C210 1.370 . S
C211 C212 1.403 . S
C212 C211 1.403 . S
C212 C213 1.404 . S
C212 C215 1.539 1_556 S
C213 C209 1.408 . S
C213 C212 1.404 . S
C213 H225 0.930 1_556 S
C214 C210 1.524 . S
C214 H226 0.956 . S
C214 H227 0.961 . S
C214 H228 0.961 . S
C215 C212 1.539 1_554 S
C215 H229 0.958 . S
C215 H230 0.961 . S
C215 H231 0.960 . S
H216 C200 0.931 . S
H217 C205 0.929 . S
H218 C206 0.960 . S
H219 C206 0.962 . S
H220 C206 0.960 . S
H221 C207 0.961 . S
H222 C207 0.961 . S
H223 C207 0.961 . S
H224 C208 0.931 . S
H225 C213 0.930 1_554 S
H226 C214 0.956 . S
H227 C214 0.961 . S
H228 C214 0.961 . S
H229 C215 0.958 . S
H230 C215 0.961 . S
H231 C215 0.960 . S
C232 C233 1.391 . S
C232 C234 1.394 . S
C232 H248 0.931 . S
C233 C232 1.391 . S
C233 C237 1.376 . S
C234 C232 1.394 . S
C234 C235 1.369 . S
C234 C238 1.531 . S
C235 C234 1.369 . S
C235 C236 1.410 . S
C235 C243 1.503 . S
C236 C235 1.410 . S
C236 C237 1.392 . S
C236 C239 1.511 . S
C237 C233 1.376 . S
C237 C236 1.392 . S
C237 H249 0.929 . S
C238 C234 1.531 . S
C238 H250 0.960 . S
C238 H251 0.962 . S
C238 H252 0.960 . S
C239 C236 1.511 . S
C239 H253 0.961 . S
C239 H254 0.961 . S
C239 H255 0.961 . S
C240 C241 1.370 . S
C240 C242 1.363 . S
C240 H256 0.931 . S
C241 C240 1.370 . S
C241 C245 1.408 . S
C242 C240 1.363 . S
C242 C243 1.370 . S
C242 C246 1.524 . S
C243 C235 1.503 . S
C243 C242 1.370 . S
C243 C244 1.403 . S
C244 C243 1.403 . S
C244 C245 1.404 . S
C244 C247 1.539 . S
C245 C241 1.408 . S
C245 C244 1.404 . S
C245 H257 0.930 . S
C246 C242 1.524 . S
C246 H258 0.956 . S
C246 H259 0.961 . S
C246 H260 0.961 . S
C247 C244 1.539 . S
C247 H261 0.958 . S
C247 H262 0.961 . S
C247 H263 0.960 . S
H248 C232 0.931 . S
H249 C237 0.929 . S
H250 C238 0.960 . S
H251 C238 0.962 . S
H252 C238 0.960 . S
H253 C239 0.961 . S
H254 C239 0.961 . S
H255 C239 0.961 . S
H256 C240 0.931 . S
H257 C245 0.930 . S
H258 C246 0.956 . S
H259 C246 0.961 . S
H260 C246 0.961 . S
H261 C247 0.958 . S
H262 C247 0.961 . S
H263 C247 0.960 . S
C264 C265 1.391 . S
C264 C266 1.394 . S
C264 H280 0.931 . S
C265 C264 1.391 . S
C265 C269 1.376 . S
C266 C264 1.394 . S
C266 C267 1.369 . S
C266 C270 1.531 . S
C267 C266 1.369 . S
C267 C268 1.410 . S
C267 C275 1.503 . S
C268 C267 1.410 . S
C268 C269 1.392 . S
C268 C271 1.511 . S
C269 C265 1.376 . S
C269 C268 1.392 . S
C269 H281 0.929 . S
C270 C266 1.531 . S
C270 H282 0.960 . S
C270 H283 0.962 . S
C270 H284 0.960 . S
C271 C268 1.511 . S
C271 H285 0.961 . S
C271 H286 0.961 . S
C271 H287 0.961 . S
C272 C273 1.370 . S
C272 C274 1.363 . S
C272 H288 0.931 . S
C273 C272 1.370 . S
C273 C277 1.408 . S
C274 C272 1.363 . S
C274 C275 1.370 . S
C274 C278 1.524 . S
C275 C267 1.503 . S
C275 C274 1.370 . S
C275 C276 1.403 . S
C276 C275 1.403 . S
C276 C277 1.404 . S
C276 C279 1.539 . S
C277 C273 1.408 . S
C277 C276 1.404 . S
C277 H289 0.930 . S
C278 C274 1.524 . S
C278 H290 0.956 . S
C278 H291 0.961 . S
C278 H292 0.961 . S
C279 C276 1.539 . S
C279 H293 0.958 . S
C279 H294 0.961 . S
C279 H295 0.960 . S
H280 C264 0.931 . S
H281 C269 0.929 . S
H282 C270 0.960 . S
H283 C270 0.962 . S
H284 C270 0.960 . S
H285 C271 0.961 . S
H286 C271 0.961 . S
H287 C271 0.961 . S
H288 C272 0.931 . S
H289 C277 0.930 . S
H290 C278 0.956 . S
H291 C278 0.961 . S
H292 C278 0.961 . S
H293 C279 0.958 . S
H294 C279 0.961 . S
H295 C279 0.960 . S
C296 C297 1.391 . S
C296 C298 1.394 . S
C296 H312 0.931 . S
C297 C296 1.391 . S
C297 C301 1.376 . S
C298 C296 1.394 . S
C298 C299 1.369 . S
C298 C302 1.531 . S
C299 C298 1.369 . S
C299 C300 1.410 . S
C299 C307 1.503 . S
C300 C299 1.410 . S
C300 C301 1.392 . S
C300 C303 1.511 . S
C301 C297 1.376 . S
C301 C300 1.392 . S
C301 H313 0.929 . S
C302 C298 1.531 . S
C302 H314 0.960 . S
C302 H315 0.962 . S
C302 H316 0.960 . S
C303 C300 1.511 . S
C303 H317 0.961 . S
C303 H318 0.961 . S
C303 H319 0.961 . S
C304 C305 1.370 . S
C304 C306 1.363 . S
C304 H320 0.931 . S
C305 C304 1.370 . S
C305 C309 1.408 . S
C306 C304 1.363 . S
C306 C307 1.370 . S
C306 C310 1.524 . S
C307 C299 1.503 . S
C307 C306 1.370 . S
C307 C308 1.403 . S
C308 C307 1.403 . S
C308 C309 1.404 . S
C308 C311 1.539 . S
C309 C305 1.408 . S
C309 C308 1.404 . S
C309 H321 0.930 . S
C310 C306 1.524 . S
C310 H322 0.956 . S
C310 H323 0.961 . S
C310 H324 0.961 . S
C311 C308 1.539 . S
C311 H325 0.958 . S
C311 H326 0.961 . S
C311 H327 0.960 . S
H312 C296 0.931 . S
H313 C301 0.929 . S
H314 C302 0.960 . S
H315 C302 0.962 . S
H316 C302 0.960 . S
H317 C303 0.961 . S
H318 C303 0.961 . S
H319 C303 0.961 . S
H320 C304 0.931 . S
H321 C309 0.930 . S
H322 C310 0.956 . S
H323 C310 0.961 . S
H324 C310 0.961 . S
H325 C311 0.958 . S
H326 C311 0.961 . S
H327 C311 0.960 . S
C328 C329 1.391 . S
C328 C330 1.394 . S
C328 H344 0.931 . S
C329 C328 1.391 . S
C329 C333 1.376 . S
C330 C328 1.394 . S
C330 C331 1.369 . S
C330 C334 1.531 . S
C331 C330 1.369 . S
C331 C332 1.410 . S
C331 C339 1.503 . S
C332 C331 1.410 . S
C332 C333 1.392 . S
C332 C335 1.511 . S
C333 C329 1.376 . S
C333 C332 1.392 . S
C333 H345 0.929 . S
C334 C330 1.531 . S
C334 H346 0.960 . S
C334 H347 0.962 . S
C334 H348 0.960 . S
C335 C332 1.511 . S
C335 H349 0.961 . S
C335 H350 0.961 . S
C335 H351 0.961 . S
C336 C337 1.370 . S
C336 C338 1.363 . S
C336 H352 0.931 . S
C337 C336 1.370 . S
C337 C341 1.408 . S
C338 C336 1.363 . S
C338 C339 1.370 . S
C338 C342 1.524 . S
C339 C331 1.503 . S
C339 C338 1.370 . S
C339 C340 1.403 . S
C340 C339 1.403 . S
C340 C341 1.404 . S
C340 C343 1.539 . S
C341 C337 1.408 . S
C341 C340 1.404 . S
C341 H353 0.930 . S
C342 C338 1.524 . S
C342 H354 0.956 . S
C342 H355 0.961 . S
C342 H356 0.961 . S
C343 C340 1.539 . S
C343 H357 0.958 . S
C343 H358 0.961 . S
C343 H359 0.960 . S
H344 C328 0.931 . S
H345 C333 0.929 . S
H346 C334 0.960 . S
H347 C334 0.962 . S
H348 C334 0.960 . S
H349 C335 0.961 . S
H350 C335 0.961 . S
H351 C335 0.961 . S
H352 C336 0.931 . S
H353 C341 0.930 . S
H354 C342 0.956 . S
H355 C342 0.961 . S
H356 C342 0.961 . S
H357 C343 0.958 . S
H358 C343 0.961 . S
H359 C343 0.960 . S
C360 C361 1.391 1_655 S
C360 C362 1.394 . S
C360 H376 0.931 . S
C361 C360 1.391 1_455 S
C361 C365 1.376 1_565 S
C362 C360 1.394 . S
C362 C363 1.369 1_655 S
C362 C366 1.531 . S
C363 C362 1.369 1_455 S
C363 C364 1.410 1_565 S
C363 C371 1.503 . S
C364 C363 1.410 1_545 S
C364 C365 1.392 . S
C364 C367 1.511 . S
C365 C361 1.376 1_545 S
C365 C364 1.392 . S
C365 H377 0.929 . S
C366 C362 1.531 . S
C366 H378 0.960 . S
C366 H379 0.962 . S
C366 H380 0.960 . S
C367 C364 1.511 . S
C367 H381 0.961 . S
C367 H382 0.961 . S
C367 H383 0.961 1_545 S
C368 C369 1.370 1_545 S
C368 C370 1.363 . S
C368 H384 0.931 . S
C369 C368 1.370 1_565 S
C369 C373 1.408 . S
C370 C368 1.363 . S
C370 C371 1.370 1_545 S
C370 C374 1.524 . S
C371 C363 1.503 . S
C371 C370 1.370 1_565 S
C371 C372 1.403 . S
C372 C371 1.403 . S
C372 C373 1.404 . S
C372 C375 1.539 . S
C373 C369 1.408 . S
C373 C372 1.404 . S
C373 H385 0.930 . S
C374 C370 1.524 . S
C374 H386 0.956 1_455 S
C374 H387 0.961 . S
C374 H388 0.961 . S
C375 C372 1.539 . S
C375 H389 0.958 . S
C375 H390 0.961 . S
C375 H391 0.960 . S
H376 C360 0.931 . S
H377 C365 0.929 . S
H378 C366 0.960 . S
H379 C366 0.962 . S
H380 C366 0.960 . S
H381 C367 0.961 . S
H382 C367 0.961 . S
H383 C367 0.961 1_565 S
H384 C368 0.931 . S
H385 C373 0.930 . S
H386 C374 0.956 1_655 S
H387 C374 0.961 . S
H388 C374 0.961 . S
H389 C375 0.958 . S
H390 C375 0.961 . S
H391 C375 0.960 . S
C392 C393 1.391 1_655 S
C392 C394 1.394 . S
C392 H408 0.931 . S
C393 C392 1.391 1_455 S
C393 C397 1.376 1_545 S
C394 C392 1.394 . S
C394 C395 1.369 1_655 S
C394 C398 1.531 . S
C395 C394 1.369 1_455 S
C395 C396 1.410 1_545 S
C395 C403 1.503 . S
C396 C395 1.410 1_565 S
C396 C397 1.392 . S
C396 C399 1.511 . S
C397 C393 1.376 1_565 S
C397 C396 1.392 . S
C397 H409 0.929 . S
C398 C394 1.531 . S
C398 H410 0.960 . S
C398 H411 0.962 . S
C398 H412 0.960 . S
C399 C396 1.511 . S
C399 H413 0.961 . S
C399 H414 0.961 . S
C399 H415 0.961 . S
C400 C401 1.370 1_565 S
C400 C402 1.363 . S
C400 H416 0.931 . S
C401 C400 1.370 1_545 S
C401 C405 1.408 1_655 S
C402 C400 1.363 . S
C402 C403 1.370 1_665 S
C402 C406 1.524 . S
C403 C395 1.503 . S
C403 C402 1.370 1_445 S
C403 C404 1.403 . S
C404 C403 1.403 . S
C404 C405 1.404 . S
C404 C407 1.539 . S
C405 C401 1.408 1_455 S
C405 C404 1.404 . S
C405 H417 0.930 . S
C406 C402 1.524 . S
C406 H418 0.956 . S
C406 H419 0.961 . S
C406 H420 0.961 . S
C407 C404 1.539 . S
C407 H421 0.958 . S
C407 H422 0.961 . S
C407 H423 0.960 . S
H408 C392 0.931 . S
H409 C397 0.929 . S
H410 C398 0.960 . S
H411 C398 0.962 . S
H412 C398 0.960 . S
H413 C399 0.961 . S
H414 C399 0.961 . S
H415 C399 0.961 . S
H416 C400 0.931 . S
H417 C405 0.930 . S
H418 C406 0.956 . S
H419 C406 0.961 . S
H420 C406 0.961 . S
H421 C407 0.958 . S
H422 C407 0.961 . S
H423 C407 0.960 . S
C424 C425 1.391 . S
C424 C426 1.394 . S
C424 H440 0.931 . S
C425 C424 1.391 . S
C425 C429 1.376 . S
C426 C424 1.394 . S
C426 C427 1.369 . S
C426 C430 1.531 . S
C427 C426 1.369 . S
C427 C428 1.410 . S
C427 C435 1.503 . S
C428 C427 1.410 . S
C428 C429 1.392 . S
C428 C431 1.511 . S
C429 C425 1.376 . S
C429 C428 1.392 . S
C429 H441 0.929 . S
C430 C426 1.531 . S
C430 H442 0.960 . S
C430 H443 0.962 . S
C430 H444 0.960 . S
C431 C428 1.511 . S
C431 H445 0.961 . S
C431 H446 0.961 . S
C431 H447 0.961 . S
C432 C433 1.370 . S
C432 C434 1.363 . S
C432 H448 0.931 . S
C433 C432 1.370 . S
C433 C437 1.408 . S
C434 C432 1.363 . S
C434 C435 1.370 . S
C434 C438 1.524 . S
C435 C427 1.503 . S
C435 C434 1.370 . S
C435 C436 1.403 . S
C436 C435 1.403 . S
C436 C437 1.404 . S
C436 C439 1.539 . S
C437 C433 1.408 . S
C437 C436 1.404 . S
C437 H449 0.930 . S
C438 C434 1.524 . S
C438 H450 0.956 . S
C438 H451 0.961 . S
C438 H452 0.961 . S
C439 C436 1.539 . S
C439 H453 0.958 . S
C439 H454 0.961 . S
C439 H455 0.960 . S
H440 C424 0.931 . S
H441 C429 0.929 . S
H442 C430 0.960 . S
H443 C430 0.962 . S
H444 C430 0.960 . S
H445 C431 0.961 . S
H446 C431 0.961 . S
H447 C431 0.961 . S
H448 C432 0.931 . S
H449 C437 0.930 . S
H450 C438 0.956 . S
H451 C438 0.961 . S
H452 C438 0.961 . S
H453 C439 0.958 . S
H454 C439 0.961 . S
H455 C439 0.960 . S
C456 C457 1.391 . S
C456 C458 1.394 . S
C456 H472 0.931 . S
C457 C456 1.391 . S
C457 C461 1.376 . S
C458 C456 1.394 . S
C458 C459 1.369 . S
C458 C462 1.531 . S
C459 C458 1.369 . S
C459 C460 1.410 . S
C459 C467 1.503 . S
C460 C459 1.410 . S
C460 C461 1.392 . S
C460 C463 1.511 . S
C461 C457 1.376 . S
C461 C460 1.392 . S
C461 H473 0.929 . S
C462 C458 1.531 . S
C462 H474 0.960 . S
C462 H475 0.962 . S
C462 H476 0.960 . S
C463 C460 1.511 . S
C463 H477 0.961 . S
C463 H478 0.961 . S
C463 H479 0.961 . S
C464 C465 1.370 . S
C464 C466 1.363 . S
C464 H480 0.931 . S
C465 C464 1.370 . S
C465 C469 1.408 . S
C466 C464 1.363 . S
C466 C467 1.370 . S
C466 C470 1.524 . S
C467 C459 1.503 . S
C467 C466 1.370 . S
C467 C468 1.403 . S
C468 C467 1.403 . S
C468 C469 1.404 . S
C468 C471 1.539 . S
C469 C465 1.408 . S
C469 C468 1.404 . S
C469 H481 0.930 . S
C470 C466 1.524 . S
C470 H482 0.956 . S
C470 H483 0.961 . S
C470 H484 0.961 . S
C471 C468 1.539 . S
C471 H485 0.958 . S
C471 H486 0.961 . S
C471 H487 0.960 . S
H472 C456 0.931 . S
H473 C461 0.929 . S
H474 C462 0.960 . S
H475 C462 0.962 . S
H476 C462 0.960 . S
H477 C463 0.961 . S
H478 C463 0.961 . S
H479 C463 0.961 . S
H480 C464 0.931 . S
H481 C469 0.930 . S
H482 C470 0.956 . S
H483 C470 0.961 . S
H484 C470 0.961 . S
H485 C471 0.958 . S
H486 C471 0.961 . S
H487 C471 0.960 . S
C113 C97 1.462 . S
C105 C27 1.480 . S
C137 N6 1.312 . S
C145 C92 1.367 . S
C169 C16 1.418 . S
C177 C103 1.380 . S
C201 N14 1.412 1_556 S
C209 C86 1.440 . S
C233 C57 1.481 . S
C241 C75 1.449 . S
C265 N36 1.341 . S
C273 C70 1.368 . S
C305 C81 1.396 . S
C297 C46 1.431 . S
C337 C64 1.425 . S
C329 N44 1.449 . S
C361 C10 1.465 1_565 S
C369 C65 1.467 . S
C393 C1 1.540 . S
C401 C76 1.542 1_545 S
C433 C87 1.467 . S
C425 C40 1.465 . S
C457 C31 1.538 . S
C465 C98 1.534 . S
