# Generated by pormake.
# Topology dag, (6,3)-cn, num edge types: 1
# Building blocks:
#     Node 0, Type 0, BuildingBlock: IZENUY_clean_sbu_0, # of connection points: 6
#     Node 1, Type 0, BuildingBlock: IZENUY_clean_sbu_0, # of connection points: 6
#     Node 2, Type 0, BuildingBlock: IZENUY_clean_sbu_0, # of connection points: 6
#     Node 3, Type 0, BuildingBlock: IZENUY_clean_sbu_0, # of connection points: 6
#     Node 4, Type 1, BuildingBlock: KAKCAD_clean_linker_0, # of connection points: 3
#     Node 5, Type 1, BuildingBlock: KAKCAD_clean_linker_0, # of connection points: 3
#     Node 6, Type 1, BuildingBlock: KAKCAD_clean_linker_0, # of connection points: 3
#     Node 7, Type 1, BuildingBlock: KAKCAD_clean_linker_0, # of connection points: 3
#     Node 8, Type 1, BuildingBlock: KAKCAD_clean_linker_0, # of connection points: 3
#     Node 9, Type 1, BuildingBlock: KAKCAD_clean_linker_0, # of connection points: 3
#     Node 10, Type 1, BuildingBlock: KAKCAD_clean_linker_0, # of connection points: 3
#     Node 11, Type 1, BuildingBlock: KAKCAD_clean_linker_0, # of connection points: 3
#     Edge 12, Type (0, 1), BuildingBlock: XIVTED_clean_linker_0, # of connection points: 2
#     Edge 13, Type (0, 1), BuildingBlock: XIVTED_clean_linker_0, # of connection points: 2
#     Edge 14, Type (0, 1), BuildingBlock: XIVTED_clean_linker_0, # of connection points: 2
#     Edge 15, Type (0, 1), BuildingBlock: XIVTED_clean_linker_0, # of connection points: 2
#     Edge 16, Type (0, 1), BuildingBlock: XIVTED_clean_linker_0, # of connection points: 2
#     Edge 17, Type (0, 1), BuildingBlock: XIVTED_clean_linker_0, # of connection points: 2
#     Edge 18, Type (0, 1), BuildingBlock: XIVTED_clean_linker_0, # of connection points: 2
#     Edge 19, Type (0, 1), BuildingBlock: XIVTED_clean_linker_0, # of connection points: 2
#     Edge 20, Type (0, 1), BuildingBlock: XIVTED_clean_linker_0, # of connection points: 2
#     Edge 21, Type (0, 1), BuildingBlock: XIVTED_clean_linker_0, # of connection points: 2
#     Edge 22, Type (0, 1), BuildingBlock: XIVTED_clean_linker_0, # of connection points: 2
#     Edge 23, Type (0, 1), BuildingBlock: XIVTED_clean_linker_0, # of connection points: 2
#     Edge 24, Type (0, 1), BuildingBlock: XIVTED_clean_linker_0, # of connection points: 2
#     Edge 25, Type (0, 1), BuildingBlock: XIVTED_clean_linker_0, # of connection points: 2
#     Edge 26, Type (0, 1), BuildingBlock: XIVTED_clean_linker_0, # of connection points: 2
#     Edge 27, Type (0, 1), BuildingBlock: XIVTED_clean_linker_0, # of connection points: 2
#     Edge 28, Type (0, 1), BuildingBlock: XIVTED_clean_linker_0, # of connection points: 2
#     Edge 29, Type (0, 1), BuildingBlock: XIVTED_clean_linker_0, # of connection points: 2
#     Edge 30, Type (0, 1), BuildingBlock: XIVTED_clean_linker_0, # of connection points: 2
#     Edge 31, Type (0, 1), BuildingBlock: XIVTED_clean_linker_0, # of connection points: 2
#     Edge 32, Type (0, 1), BuildingBlock: XIVTED_clean_linker_0, # of connection points: 2
#     Edge 33, Type (0, 1), BuildingBlock: XIVTED_clean_linker_0, # of connection points: 2
#     Edge 34, Type (0, 1), BuildingBlock: XIVTED_clean_linker_0, # of connection points: 2
#     Edge 35, Type (0, 1), BuildingBlock: XIVTED_clean_linker_0, # of connection points: 2
# Relax obj value: 0.253
# Max RMSD: 0.193
# Mean RMSD: 0.160
data_MOF--net-dag--node1-IZENUY_clean_sbu_0--node2-KAKCAD_clean_linker_0--edge1-XIVTED_clean_linker_0
_symmetry_space_group_name_H-M    P1
_symmetry_Int_Tables_number       1
_symmetry_cell_setting            triclinic
loop_
_symmetry_equiv_pos_as_xyz
'x, y, z'
_cell_length_a     46.83228
_cell_length_b     48.86087
_cell_length_c     41.249848
_cell_angle_alpha  95.22977
_cell_angle_beta   90.208947
_cell_angle_gamma 90.031782
loop_
_atom_site_label
_atom_site_type_symbol
_atom_site_fract_x
_atom_site_fract_y
_atom_site_fract_z
_atom_type_partial_charge
Fe0 Fe 0.18508 0.84766 0.09378 0.0
Fe1 Fe 0.12928 0.86208 0.0607 0.0
O2 O 0.15383 0.83712 0.0718 0.0
Fe3 Fe 0.14677 0.80187 0.06108 0.0
O4 O 0.1632 0.79011 0.0979 0.0
O5 O 0.17508 0.8283 0.12722 0.0
O6 O 0.16799 0.87747 0.11644 0.0
C7 C 0.14186 0.88227 0.12275 0.0
C8 C 0.20422 0.80342 0.0497 0.0
O9 O 0.12252 0.87342 0.1031 0.0
C10 C 0.13095 0.82786 0.00485 0.0
O11 O 0.19714 0.86813 0.06178 0.0
O12 O 0.15609 0.889 0.05751 0.0
O13 O 0.17965 0.79766 0.03856 0.0
O14 O 0.20758 0.81959 0.07526 0.0
C15 C 0.0931 0.81936 0.07715 0.0
O16 O 0.13495 0.85192 0.01799 0.0
O17 O 0.1293 0.80762 0.02205 0.0
C18 C 0.18274 0.88783 0.05265 0.0
O19 O 0.09761 0.84006 0.06163 0.0
O20 O 0.11325 0.80356 0.08318 0.0
C21 C 0.16889 0.80312 0.12515 0.0
Fe22 Fe 0.68476 0.65203 0.48375 0.0
Fe23 Fe 0.64495 0.69709 0.51515 0.0
O24 O 0.65322 0.66181 0.50558 0.0
Fe25 Fe 0.62976 0.63643 0.5178 0.0
O26 O 0.65778 0.61135 0.52412 0.0
O27 O 0.69812 0.63274 0.51611 0.0
O28 O 0.70606 0.68135 0.50208 0.0
C29 C 0.70215 0.69722 0.52784 0.0
C30 C 0.64313 0.61427 0.45649 0.0
O31 O 0.67737 0.70233 0.53856 0.0
C32 C 0.59262 0.67681 0.49674 0.0
O33 O 0.6736 0.67039 0.44973 0.0
O34 O 0.66177 0.70866 0.47857 0.0
O35 O 0.62392 0.62268 0.47622 0.0
O36 O 0.66903 0.621 0.46169 0.0
C37 C 0.6286 0.67271 0.57197 0.0
O38 O 0.61191 0.694 0.4922 0.0
O39 O 0.59729 0.6568 0.51348 0.0
C40 C 0.66733 0.69554 0.45144 0.0
O41 O 0.62658 0.69206 0.55362 0.0
O42 O 0.63418 0.64862 0.56026 0.0
C43 C 0.68442 0.61408 0.52843 0.0
Fe44 Fe 0.85921 0.19793 0.02364 0.0
Fe45 Fe 0.87053 0.1364 0.02397 0.0
O46 O 0.84964 0.16347 0.01115 0.0
Fe47 Fe 0.81929 0.15605 0.98599 0.0
O48 O 0.83393 0.17514 0.9544 0.0
O49 O 0.84601 0.2118 0.98633 0.0
O50 O 0.89395 0.19405 0.00416 0.0
C51 C 0.91194 0.17618 0.0109 0.0
C52 C 0.80119 0.19984 0.03091 0.0
O53 O 0.90423 0.15554 0.02513 0.0
C54 C 0.81428 0.1166 0.02837 0.0
O55 O 0.87386 0.19038 0.06348 0.0
O56 O 0.86325 0.1469 0.06622 0.0
O57 O 0.79845 0.1858 0.00363 0.0
O58 O 0.8254 0.20373 0.04396 0.0
C59 C 0.86067 0.11755 0.9606 0.0
O60 O 0.84079 0.11227 0.02544 0.0
O61 O 0.8025 0.1363 0.0159 0.0
C62 C 0.86916 0.17026 0.08011 0.0
O63 O 0.87893 0.12435 0.98239 0.0
O64 O 0.83482 0.12503 0.96401 0.0
C65 C 0.84121 0.20004 0.95816 0.0
Fe66 Fe 0.36375 0.36011 0.55701 0.0
Fe67 Fe 0.3104 0.34279 0.59195 0.0
O68 O 0.34216 0.33387 0.57054 0.0
Fe69 Fe 0.35223 0.29883 0.56274 0.0
O70 O 0.39092 0.30567 0.5653 0.0
O71 O 0.39368 0.34987 0.58099 0.0
O72 O 0.35517 0.38553 0.59109 0.0
C73 C 0.34616 0.38234 0.6194 0.0
C74 C 0.36534 0.31874 0.50469 0.0
O75 O 0.32998 0.3625 0.62425 0.0
C76 C 0.2924 0.29839 0.55234 0.0
O77 O 0.33506 0.37187 0.53213 0.0
O78 O 0.30298 0.37352 0.57083 0.0
O79 O 0.35181 0.30098 0.5189 0.0
O80 O 0.37618 0.33957 0.52059 0.0
C81 C 0.33299 0.29993 0.62533 0.0
O82 O 0.28916 0.32362 0.56096 0.0
O83 O 0.31523 0.28599 0.55884 0.0
C84 C 0.31113 0.3798 0.54326 0.0
O85 O 0.31191 0.31386 0.61694 0.0
O86 O 0.35342 0.2943 0.60602 0.0
C87 C 0.40454 0.32616 0.57868 0.0
C88 C 0.97966 0.17965 0.30168 0.0
C89 C 0.95374 0.16493 0.29952 0.0
C90 C 0.00138 0.17246 0.32259 0.0
C91 C 0.99776 0.15022 0.34139 0.0
C92 C 0.97126 0.13685 0.34123 0.0
C93 C 0.9493 0.1444 0.32085 0.0
C94 C 0.0229 0.13816 0.35636 0.0
C95 C 0.0399 0.15382 0.37909 0.0
C96 C 0.06598 0.14339 0.38977 0.0
C97 C 0.07446 0.11675 0.37754 0.0
C98 C 0.05774 0.10091 0.35445 0.0
C99 C 0.03179 0.11182 0.34436 0.0
C100 C 0.06851 0.07438 0.33819 0.0
C101 C 0.0977 0.07086 0.33103 0.0
C102 C 0.04945 0.05321 0.32726 0.0
C103 C 0.05899 0.03009 0.30789 0.0
C104 C 0.08801 0.02717 0.29951 0.0
C105 C 0.08562 0.16099 0.41131 0.0
C106 C 0.08776 0.18936 0.40825 0.0
C107 C 0.1038 0.14935 0.43355 0.0
C108 C 0.12457 0.16527 0.45081 0.0
C109 C 0.12731 0.19348 0.44697 0.0
C110 C 0.10804 0.20542 0.42612 0.0
C111 C 0.10734 0.04744 0.31234 0.0
H112 H 0.98413 0.19538 0.28554 0.0
H113 H 0.0218 0.18286 0.32214 0.0
H114 H 0.96805 0.11969 0.3557 0.0
H115 H 0.92938 0.13315 0.32063 0.0
H116 H 0.03286 0.17425 0.38794 0.0
H117 H 0.01925 0.10065 0.32537 0.0
H118 H 0.09471 0.10869 0.38503 0.0
H119 H 0.11314 0.08667 0.3386 0.0
H120 H 0.02691 0.05481 0.33286 0.0
H121 H 0.0433 0.01513 0.29846 0.0
H122 H 0.07447 0.19919 0.3912 0.0
H123 H 0.10244 0.12773 0.43723 0.0
H124 H 0.12996 0.04566 0.30731 0.0
H125 H 0.10882 0.22717 0.42307 0.0
H126 H 0.13903 0.1551 0.46634 0.0
C127 C 0.3806 0.55651 0.79676 0.0
C128 C 0.39795 0.53332 0.78979 0.0
C129 C 0.39105 0.57953 0.81557 0.0
C130 C 0.41916 0.57993 0.82766 0.0
C131 C 0.43616 0.5563 0.82181 0.0
C132 C 0.42556 0.5331 0.80319 0.0
C133 C 0.43121 0.60581 0.84372 0.0
C134 C 0.41491 0.62231 0.86614 0.0
C135 C 0.424 0.64885 0.87746 0.0
C136 C 0.4504 0.65856 0.86716 0.0
C137 C 0.46713 0.64227 0.84456 0.0
C138 C 0.45738 0.61579 0.83333 0.0
C139 C 0.49253 0.65378 0.82889 0.0
C140 C 0.49214 0.68078 0.81962 0.0
C141 C 0.51568 0.63672 0.8191 0.0
C142 C 0.53631 0.6454 0.79792 0.0
C143 C 0.53466 0.67162 0.78645 0.0
C144 C 0.40404 0.66721 0.8968 0.0
C145 C 0.37578 0.66943 0.88592 0.0
C146 C 0.41243 0.68193 0.92613 0.0
C147 C 0.39241 0.69761 0.94499 0.0
C148 C 0.3638 0.69884 0.93462 0.0
C149 C 0.35597 0.68509 0.9045 0.0
C150 C 0.51309 0.68966 0.79888 0.0
H151 H 0.35917 0.55713 0.78686 0.0
H152 H 0.37753 0.59752 0.81934 0.0
H153 H 0.45786 0.55604 0.83096 0.0
H154 H 0.43942 0.51551 0.798 0.0
H155 H 0.39447 0.61483 0.87395 0.0
H156 H 0.46904 0.60367 0.81446 0.0
H157 H 0.45714 0.67924 0.87547 0.0
H158 H 0.47469 0.69457 0.8266 0.0
H159 H 0.51704 0.61601 0.82638 0.0
H160 H 0.55242 0.63076 0.78902 0.0
H161 H 0.36893 0.65884 0.86297 0.0
H162 H 0.43417 0.68061 0.93492 0.0
H163 H 0.51154 0.71028 0.79142 0.0
H164 H 0.33435 0.68627 0.8953 0.0
H165 H 0.39908 0.70801 0.96808 0.0
C166 C 0.86655 0.79309 0.1246 0.0
C167 C 0.88929 0.80873 0.13889 0.0
C168 C 0.83827 0.80068 0.13165 0.0
C169 C 0.83245 0.8243 0.1525 0.0
C170 C 0.85511 0.83951 0.16738 0.0
C171 C 0.88329 0.83165 0.16086 0.0
C172 C 0.80293 0.8343 0.1573 0.0
C173 C 0.78301 0.81942 0.17383 0.0
C174 C 0.75554 0.83017 0.18077 0.0
C175 C 0.74805 0.85568 0.16967 0.0
C176 C 0.76812 0.87085 0.15353 0.0
C177 C 0.79544 0.85993 0.14733 0.0
C178 C 0.76181 0.89914 0.14552 0.0
C179 C 0.73741 0.90513 0.12755 0.0
C180 C 0.78117 0.92029 0.15507 0.0
C181 C 0.77682 0.94671 0.146 0.0
C182 C 0.753 0.9527 0.12707 0.0
C183 C 0.7363 0.81628 0.20283 0.0
C184 C 0.7358 0.78746 0.20233 0.0
C185 C 0.72052 0.83186 0.22691 0.0
C186 C 0.70607 0.81905 0.25093 0.0
C187 C 0.7074 0.79038 0.25187 0.0
C188 C 0.72171 0.77468 0.22666 0.0
C189 C 0.73315 0.9317 0.11814 0.0
H190 H 0.87068 0.77534 0.10757 0.0
H191 H 0.82099 0.78876 0.11991 0.0
H192 H 0.85097 0.85781 0.18356 0.0
H193 H 0.90042 0.84424 0.17189 0.0
H194 H 0.78966 0.80031 0.18295 0.0
H195 H 0.81112 0.87157 0.13499 0.0
H196 H 0.72708 0.86435 0.1748 0.0
H197 H 0.72218 0.8891 0.11994 0.0
H198 H 0.79999 0.91628 0.16923 0.0
H199 H 0.79281 0.96222 0.15284 0.0
H200 H 0.74721 0.77476 0.18378 0.0
H201 H 0.72049 0.85409 0.22836 0.0
H202 H 0.71457 0.93574 0.10362 0.0
H203 H 0.72334 0.75257 0.22653 0.0
H204 H 0.69467 0.83179 0.26945 0.0
C205 C 0.62303 0.32032 0.66792 0.0
C206 C 0.61227 0.31853 0.63596 0.0
C207 C 0.65218 0.32428 0.67388 0.0
C208 C 0.67118 0.32674 0.648 0.0
C209 C 0.66058 0.32392 0.61595 0.0
C210 C 0.63143 0.31972 0.60997 0.0
C211 C 0.70138 0.33462 0.65474 0.0
C212 C 0.71712 0.32253 0.67867 0.0
C213 C 0.74456 0.33215 0.68763 0.0
C214 C 0.75635 0.35405 0.67234 0.0
C215 C 0.74075 0.36654 0.64856 0.0
C216 C 0.71352 0.35635 0.63952 0.0
C217 C 0.75067 0.39252 0.63632 0.0
C218 C 0.75974 0.41443 0.6584 0.0
C219 C 0.74721 0.39696 0.60336 0.0
C220 C 0.75056 0.42326 0.59315 0.0
C221 C 0.75722 0.44564 0.61578 0.0
C222 C 0.75985 0.32074 0.71482 0.0
C223 C 0.74573 0.31839 0.74441 0.0
C224 C 0.78846 0.31233 0.7116 0.0
C225 C 0.80251 0.30122 0.73739 0.0
C226 C 0.78831 0.29888 0.76698 0.0
C227 C 0.75986 0.30772 0.77027 0.0
C228 C 0.7629 0.44076 0.64823 0.0
H229 H 0.60879 0.31922 0.6884 0.0
H230 H 0.65966 0.32663 0.69886 0.0
H231 H 0.67477 0.32558 0.59554 0.0
H232 H 0.62373 0.31857 0.58509 0.0
H233 H 0.70784 0.30581 0.69067 0.0
H234 H 0.70085 0.36672 0.62231 0.0
H235 H 0.77712 0.36213 0.67995 0.0
H236 H 0.76241 0.41168 0.68399 0.0
H237 H 0.74042 0.38036 0.5858 0.0
H238 H 0.74588 0.42638 0.56801 0.0
H239 H 0.72376 0.325 0.74761 0.0
H240 H 0.79976 0.31394 0.68898 0.0
H241 H 0.76832 0.4576 0.66612 0.0
H242 H 0.74831 0.30586 0.79267 0.0
H243 H 0.82448 0.29461 0.73429 0.0
C244 C 0.59697 0.45041 0.26418 0.0
C245 C 0.58921 0.45653 0.29692 0.0
C246 C 0.58847 0.42555 0.24717 0.0
C247 C 0.57232 0.40628 0.26272 0.0
C248 C 0.56521 0.41236 0.29571 0.0
C249 C 0.57337 0.43718 0.31247 0.0
C250 C 0.5633 0.37957 0.24533 0.0
C251 C 0.58186 0.36443 0.22381 0.0
C252 C 0.57472 0.33762 0.21087 0.0
C253 C 0.5488 0.32589 0.21978 0.0
C254 C 0.52975 0.3411 0.24036 0.0
C255 C 0.53683 0.36799 0.25244 0.0
C256 C 0.50386 0.32841 0.25276 0.0
C257 C 0.47703 0.34029 0.2485 0.0
C258 C 0.50656 0.30747 0.27364 0.0
C259 C 0.48334 0.3003 0.29235 0.0
C260 C 0.45691 0.31378 0.29019 0.0
C261 C 0.59524 0.32135 0.18973 0.0
C262 C 0.60861 0.33297 0.16378 0.0
C263 C 0.60232 0.29442 0.19607 0.0
C264 C 0.62294 0.27966 0.1774 0.0
C265 C 0.63665 0.29142 0.15178 0.0
C266 C 0.62899 0.31807 0.14483 0.0
C267 C 0.45366 0.33274 0.26667 0.0
H268 H 0.60914 0.46503 0.25162 0.0
H269 H 0.59424 0.42161 0.22178 0.0
H270 H 0.55365 0.39773 0.30889 0.0
H271 H 0.56763 0.44107 0.3379 0.0
H272 H 0.60256 0.37283 0.21849 0.0
H273 H 0.52208 0.37944 0.2687 0.0
H274 H 0.54342 0.30498 0.21076 0.0
H275 H 0.47453 0.35644 0.23237 0.0
H276 H 0.52719 0.29823 0.27747 0.0
H277 H 0.48688 0.28579 0.31027 0.0
H278 H 0.60339 0.35365 0.15828 0.0
H279 H 0.59251 0.28504 0.21608 0.0
H280 H 0.43346 0.34298 0.2636 0.0
H281 H 0.63939 0.32769 0.12538 0.0
H282 H 0.62833 0.25908 0.18314 0.0
C283 C 0.1305 0.19169 0.9356 0.0
C284 C 0.12177 0.19274 0.96825 0.0
C285 C 0.15905 0.18666 0.92728 0.0
C286 C 0.1795 0.18258 0.95143 0.0
C287 C 0.17106 0.18514 0.98422 0.0
C288 C 0.14252 0.1902 0.99254 0.0
C289 C 0.20876 0.17315 0.9421 0.0
C290 C 0.2232 0.1841 0.91651 0.0
C291 C 0.24911 0.17264 0.90458 0.0
C292 C 0.26088 0.15024 0.9191 0.0
C293 C 0.24702 0.13957 0.94529 0.0
C294 C 0.22114 0.15121 0.95675 0.0
C295 C 0.25726 0.11431 0.95869 0.0
C296 C 0.25983 0.08983 0.9383 0.0
C297 C 0.25978 0.11351 0.99248 0.0
C298 C 0.26222 0.08839 0.00583 0.0
C299 C 0.26162 0.06357 0.98565 0.0
C300 C 0.26294 0.18346 0.87604 0.0
C301 C 0.24607 0.19116 0.85014 0.0
C302 C 0.29275 0.18692 0.8747 0.0
C303 C 0.30522 0.1989 0.84859 0.0
C304 C 0.28801 0.20777 0.82366 0.0
C305 C 0.25844 0.20331 0.82438 0.0
C306 C 0.26191 0.06461 0.95168 0.0
H307 H 0.11505 0.19326 0.91627 0.0
H308 H 0.16477 0.1845 0.90176 0.0
H309 H 0.1864 0.18254 0.0034 0.0
H310 H 0.13657 0.19142 0.01798 0.0
H311 H 0.21402 0.20147 0.90565 0.0
H312 H 0.20972 0.14193 0.97578 0.0
H313 H 0.28034 0.14064 0.90958 0.0
H314 H 0.25779 0.08998 0.91214 0.0
H315 H 0.25811 0.13221 0.00863 0.0
H316 H 0.26264 0.08831 0.03208 0.0
H317 H 0.22317 0.18803 0.84988 0.0
H318 H 0.30632 0.18122 0.89431 0.0
H319 H 0.26128 0.04592 0.93542 0.0
H320 H 0.24479 0.20952 0.80509 0.0
H321 H 0.32809 0.20219 0.8485 0.0
C322 C 0.36923 0.703 0.43338 0.0
C323 C 0.38963 0.68184 0.42885 0.0
C324 C 0.33998 0.69703 0.43056 0.0
C325 C 0.33064 0.66979 0.4233 0.0
C326 C 0.3511 0.64887 0.41805 0.0
C327 C 0.38009 0.65475 0.42107 0.0
C328 C 0.29981 0.66265 0.42112 0.0
C329 C 0.28064 0.67804 0.40392 0.0
C330 C 0.2523 0.66898 0.39811 0.0
C331 C 0.24329 0.64436 0.41025 0.0
C332 C 0.26248 0.62864 0.42686 0.0
C333 C 0.29022 0.63841 0.43321 0.0
C334 C 0.25556 0.60014 0.43329 0.0
C335 C 0.23173 0.59386 0.45178 0.0
C336 C 0.274 0.57897 0.42144 0.0
C337 C 0.26958 0.55219 0.4291 0.0
C338 C 0.24655 0.54583 0.44882 0.0
C339 C 0.23373 0.68322 0.37564 0.0
C340 C 0.2348 0.71195 0.37524 0.0
C341 C 0.21687 0.66792 0.35219 0.0
C342 C 0.20277 0.68083 0.32794 0.0
C343 C 0.20552 0.70929 0.32617 0.0
C344 C 0.221 0.72482 0.35069 0.0
C345 C 0.22737 0.56686 0.45973 0.0
H346 H 0.37583 0.72413 0.43916 0.0
H347 H 0.32469 0.7136 0.43465 0.0
H348 H 0.34474 0.62774 0.41166 0.0
H349 H 0.39497 0.63777 0.41803 0.0
H350 H 0.28842 0.69597 0.39306 0.0
H351 H 0.30485 0.62624 0.44642 0.0
H352 H 0.2219 0.63659 0.40526 0.0
H353 H 0.21717 0.60991 0.46099 0.0
H354 H 0.29233 0.58328 0.40675 0.0
H355 H 0.28508 0.53671 0.42073 0.0
H356 H 0.24718 0.72442 0.39325 0.0
H357 H 0.21568 0.64574 0.35142 0.0
H358 H 0.20936 0.56254 0.47486 0.0
H359 H 0.22374 0.74677 0.35008 0.0
H360 H 0.1905 0.6683 0.30989 0.0
C361 C 0.04616 0.84067 0.76287 0.0
C362 C 0.04225 0.82168 0.7862 0.0
C363 C 0.02334 0.84795 0.74352 0.0
C364 C 0.99644 0.83582 0.74648 0.0
C365 C 0.99332 0.81463 0.76694 0.0
C366 C 0.01596 0.80771 0.78677 0.0
C367 C 0.97069 0.84908 0.73437 0.0
C368 C 0.95058 0.83418 0.71466 0.0
C369 C 0.92415 0.84607 0.70779 0.0
C370 C 0.91784 0.87285 0.72146 0.0
C371 C 0.93767 0.88778 0.74166 0.0
C372 C 0.96439 0.87598 0.74704 0.0
C373 C 0.92976 0.91445 0.75973 0.0
C374 C 0.91343 0.93417 0.74509 0.0
C375 C 0.93805 0.91999 0.79247 0.0
C376 C 0.93071 0.94469 0.80997 0.0
C377 C 0.91461 0.96448 0.79537 0.0
C378 C 0.90234 0.82996 0.68812 0.0
C379 C 0.90958 0.81524 0.65844 0.0
C380 C 0.874 0.82935 0.69899 0.0
C381 C 0.85321 0.81469 0.68036 0.0
C382 C 0.86017 0.80045 0.65025 0.0
C383 C 0.88868 0.8007 0.63962 0.0
C384 C 0.90583 0.95893 0.7628 0.0
H385 H 0.06632 0.85126 0.761 0.0
H386 H 0.02618 0.86432 0.72778 0.0
H387 H 0.97264 0.80522 0.76984 0.0
H388 H 0.01194 0.79311 0.80444 0.0
H389 H 0.95512 0.8131 0.70565 0.0
H390 H 0.9799 0.88719 0.76268 0.0
H391 H 0.89709 0.88167 0.7172 0.0
H392 H 0.90677 0.9306 0.71989 0.0
H393 H 0.94985 0.90499 0.80492 0.0
H394 H 0.93721 0.94808 0.83525 0.0
H395 H 0.93128 0.81547 0.64946 0.0
H396 H 0.86793 0.84002 0.72211 0.0
H397 H 0.89344 0.97388 0.75093 0.0
H398 H 0.89474 0.79017 0.61643 0.0
H399 H 0.83165 0.81439 0.68975 0.0
H400 H 0.09058 0.88773 0.15448 0.0
H401 H 0.1308 0.02782 0.25407 0.0
H402 H 0.17605 0.92092 0.15522 0.0
H403 H 0.06722 0.97396 0.28987 0.0
H404 H 0.14497 0.99103 0.21376 0.0
H405 H 0.07837 0.92153 0.20007 0.0
C406 C 0.10675 0.90207 0.16427 0.0
C407 C 0.13433 0.90161 0.15103 0.0
C408 C 0.12806 0.98725 0.23064 0.0
C409 C 0.12045 0.94029 0.20262 0.0
C410 C 0.12003 0.00821 0.25397 0.0
C411 C 0.09775 0.00418 0.27581 0.0
C412 C 0.11337 0.96216 0.22847 0.0
C413 C 0.08414 0.97836 0.27334 0.0
C414 C 0.09982 0.92119 0.19032 0.0
C415 C 0.15455 0.92051 0.16474 0.0
N416 N 0.09197 0.95843 0.24989 0.0
N417 N 0.14711 0.9393 0.18954 0.0
H418 H 0.64217 0.64142 0.62141 0.0
H419 H 0.52074 0.70266 0.7363 0.0
H420 H 0.59552 0.71411 0.6011 0.0
H421 H 0.59051 0.65621 0.7728 0.0
H422 H 0.54801 0.7079 0.68726 0.0
H423 H 0.62369 0.6463 0.67703 0.0
C424 C 0.62824 0.65856 0.62876 0.0
C425 C 0.62013 0.67724 0.60652 0.0
C426 C 0.55752 0.69692 0.70623 0.0
C427 C 0.59871 0.68275 0.66995 0.0
C428 C 0.54203 0.69406 0.73453 0.0
C429 C 0.55307 0.67866 0.75891 0.0
C430 C 0.58406 0.68386 0.70182 0.0
C431 C 0.58066 0.6676 0.75444 0.0
C432 C 0.61783 0.6614 0.66054 0.0
C433 C 0.60225 0.6992 0.61742 0.0
N434 N 0.59498 0.67001 0.72622 0.0
N435 N 0.59175 0.70109 0.64823 0.0
H436 H 0.82452 0.10179 0.08848 0.0
H437 H 0.73847 0.96553 0.06564 0.0
H438 H 0.76646 0.08754 0.00745 0.0
H439 H 0.76274 0.00275 0.16065 0.0
H440 H 0.74565 0.00992 0.04354 0.0
H441 H 0.8008 0.06565 0.11545 0.0
C442 C 0.80644 0.09119 0.07665 0.0
C443 C 0.79735 0.09743 0.04584 0.0
C444 C 0.74875 0.00846 0.06936 0.0
C445 C 0.77053 0.05565 0.07601 0.0
C446 C 0.74455 0.98317 0.08203 0.0
C447 C 0.75066 0.9803 0.11491 0.0
C448 C 0.75944 0.03077 0.08968 0.0
C449 C 0.7586 0.00385 0.13496 0.0
C450 C 0.79283 0.07067 0.09203 0.0
C451 C 0.7739 0.08323 0.03133 0.0
N452 N 0.76332 0.02793 0.12191 0.0
N453 N 0.76157 0.06248 0.04628 0.0
H454 H 0.4409 0.28314 0.56201 0.0
H455 H 0.57093 0.34935 0.6682 0.0
H456 H 0.43661 0.36183 0.61862 0.0
H457 H 0.58261 0.28577 0.58969 0.0
H458 H 0.51983 0.34956 0.6562 0.0
H459 H 0.49121 0.27946 0.57758 0.0
C460 C 0.45047 0.29956 0.57786 0.0
C461 C 0.43457 0.32292 0.58888 0.0
C462 C 0.53354 0.33547 0.64167 0.0
C463 C 0.49195 0.31872 0.60687 0.0
C464 C 0.56267 0.33518 0.64867 0.0
C465 C 0.58103 0.31749 0.62991 0.0
C466 C 0.52257 0.3178 0.61587 0.0
C467 C 0.56921 0.29988 0.60457 0.0
C468 C 0.47918 0.29748 0.58661 0.0
C469 C 0.4481 0.34356 0.60932 0.0
N470 N 0.54069 0.30045 0.59828 0.0
N471 N 0.47597 0.34096 0.61768 0.0
H472 H 0.58958 0.59838 0.43641 0.0
H473 H 0.6418 0.4817 0.30067 0.0
H474 H 0.67855 0.58415 0.41347 0.0
H475 H 0.55525 0.49108 0.33526 0.0
H476 H 0.6554 0.52289 0.33607 0.0
H477 H 0.5765 0.56291 0.3938 0.0
C478 C 0.60643 0.58785 0.42234 0.0
C479 C 0.63527 0.59406 0.4289 0.0
C480 C 0.6334 0.51601 0.33569 0.0
C481 C 0.62031 0.55315 0.37978 0.0
C482 C 0.62562 0.49265 0.31538 0.0
C483 C 0.59743 0.48286 0.31533 0.0
C484 C 0.61276 0.52971 0.3558 0.0
C485 C 0.57731 0.49769 0.33495 0.0
C486 C 0.59891 0.56755 0.39793 0.0
C487 C 0.65606 0.57991 0.40944 0.0
N488 N 0.58539 0.52024 0.35444 0.0
N489 N 0.64818 0.55994 0.3859 0.0
H490 H 0.95607 0.1466 0.03288 0.0
H491 H 0.07915 0.22376 0.94324 0.0
H492 H 0.93842 0.21518 0.97685 0.0
H493 H 0.09388 0.16345 0.01168 0.0
H494 H 0.02779 0.22148 0.95434 0.0
H495 H 0.00674 0.1528 0.0242 0.0
C496 C 0.96282 0.16303 0.0187 0.0
C497 C 0.94284 0.18039 0.00555 0.0
C498 C 0.04235 0.20897 0.9671 0.0
C499 C 0.00134 0.18761 0.99543 0.0
C500 C 0.07163 0.21019 0.96072 0.0
C501 C 0.09091 0.1938 0.97658 0.0
C502 C 0.03229 0.19105 0.98927 0.0
C503 C 0.07997 0.17677 0.99919 0.0
C504 C 0.99189 0.16662 0.01384 0.0
C505 C 0.95307 0.20135 0.98748 0.0
N506 N 0.05147 0.17573 0.00466 0.0
N507 N 0.98166 0.20432 0.98281 0.0
H508 H 0.316 0.39192 0.48005 0.0
H509 H 0.23416 0.53202 0.51016 0.0
H510 H 0.26865 0.41381 0.56822 0.0
H511 H 0.25586 0.49617 0.4139 0.0
H512 H 0.24284 0.48765 0.53123 0.0
H513 H 0.29186 0.42879 0.45454 0.0
C514 C 0.30035 0.40434 0.49394 0.0
C515 C 0.29462 0.40005 0.52643 0.0
C516 C 0.24516 0.48935 0.50538 0.0
C517 C 0.26705 0.44235 0.4975 0.0
C518 C 0.23999 0.51466 0.49328 0.0
C519 C 0.24487 0.51797 0.46032 0.0
C520 C 0.25562 0.46738 0.48443 0.0
C521 C 0.25263 0.49473 0.43966 0.0
C522 C 0.28644 0.42528 0.47932 0.0
C523 C 0.27387 0.41653 0.54317 0.0
N524 N 0.25833 0.47057 0.45216 0.0
N525 N 0.26117 0.43726 0.52869 0.0
H526 H 0.11234 0.78108 0.9687 0.0
H527 H 0.07537 0.86295 0.81595 0.0
H528 H 0.13442 0.866 0.96051 0.0
H529 H 0.05682 0.77656 0.81885 0.0
H530 H 0.10306 0.86212 0.8655 0.0
H531 H 0.09711 0.77702 0.91161 0.0
C532 C 0.11425 0.7988 0.95486 0.0
C533 C 0.12424 0.82406 0.96962 0.0
C534 C 0.09327 0.84321 0.85515 0.0
C535 C 0.10689 0.81952 0.90432 0.0
C536 C 0.07762 0.84355 0.82644 0.0
C537 C 0.06337 0.81981 0.81305 0.0
C538 C 0.09447 0.81907 0.87112 0.0
C539 C 0.06683 0.79554 0.82856 0.0
C540 C 0.10557 0.79644 0.92225 0.0
C541 C 0.12645 0.84623 0.95038 0.0
N542 N 0.08168 0.79589 0.85702 0.0
N543 N 0.11761 0.84349 0.91889 0.0
H544 H 0.9144 0.09967 0.94407 0.0
H545 H 0.86249 0.99034 0.79957 0.0
H546 H 0.82638 0.09127 0.91313 0.0
H547 H 0.94909 0.99765 0.83533 0.0
H548 H 0.8494 0.03058 0.83647 0.0
H549 H 0.92792 0.06554 0.90018 0.0
C550 C 0.89787 0.09071 0.92798 0.0
C551 C 0.86913 0.09815 0.9326 0.0
C552 C 0.8713 0.02349 0.83602 0.0
C553 C 0.88456 0.05884 0.88207 0.0
C554 C 0.87881 0.00065 0.81484 0.0
C555 C 0.90684 0.99049 0.81468 0.0
C556 C 0.89203 0.03625 0.85703 0.0
C557 C 0.92712 0.00451 0.8351 0.0
C558 C 0.90564 0.0712 0.90284 0.0
C559 C 0.84877 0.08603 0.91065 0.0
N560 N 0.91927 0.02652 0.85554 0.0
N561 N 0.85685 0.0668 0.88648 0.0
H562 H 0.37318 0.27048 0.46543 0.0
H563 H 0.4219 0.35429 0.3177 0.0
H564 H 0.36998 0.35856 0.46385 0.0
H565 H 0.44156 0.26825 0.32181 0.0
H566 H 0.39217 0.35287 0.36531 0.0
H567 H 0.38866 0.26657 0.40812 0.0
C568 C 0.37527 0.28888 0.45285 0.0
C569 C 0.37079 0.31491 0.46939 0.0
C570 C 0.4027 0.33416 0.35565 0.0
C571 C 0.38812 0.31064 0.40434 0.0
C572 C 0.41951 0.33483 0.32801 0.0
C573 C 0.4347 0.3114 0.31563 0.0
C574 C 0.40118 0.31003 0.37158 0.0
C575 C 0.43087 0.28702 0.33087 0.0
C576 C 0.38417 0.28667 0.42029 0.0
C577 C 0.37373 0.33814 0.45212 0.0
N578 N 0.41482 0.28706 0.35835 0.0
N579 N 0.38234 0.33546 0.42069 0.0
H580 H 0.23762 0.89269 0.02931 0.0
H581 H 0.2249 0.05549 0.03479 0.0
H582 H 0.16103 0.93931 0.05327 0.0
H583 H 0.28318 0.01159 0.96783 0.0
H584 H 0.20898 0.01209 0.05259 0.0
H585 H 0.26092 0.93531 0.01509 0.0
C586 C 0.22574 0.91178 0.03151 0.0
C587 C 0.19732 0.91244 0.04238 0.0
C588 C 0.22547 0.01192 0.03422 0.0
C589 C 0.22386 0.96084 0.02704 0.0
C590 C 0.23491 0.03677 0.02431 0.0
C591 C 0.25548 0.03728 -0.00028 0.0
C592 C 0.23656 0.98721 0.01954 0.0
C593 C 0.26708 0.01211 0.98663 0.0
C594 C 0.23901 0.93596 0.02342 0.0
C595 C 0.18287 0.93768 0.04482 0.0
N596 N 0.25734 0.98796 0.99659 0.0
N597 N 0.19635 0.96081 0.03745 0.0
H598 H 0.55762 0.63682 0.47025 0.0
H599 H 0.41609 0.71848 0.47424 0.0
H600 H 0.56241 0.72459 0.49332 0.0
H601 H 0.43432 0.65736 0.39461 0.0
H602 H 0.46726 0.72084 0.4872 0.0
H603 H 0.50926 0.64208 0.44903 0.0
C604 C 0.5484 0.65719 0.47083 0.0
C605 C 0.56381 0.68031 0.48351 0.0
C606 C 0.45991 0.70727 0.46663 0.0
C607 C 0.50862 0.68639 0.45986 0.0
C608 C 0.43078 0.70596 0.45908 0.0
C609 C 0.4207 0.68721 0.43372 0.0
C610 C 0.47884 0.68935 0.44909 0.0
C611 C 0.44087 0.6714 0.41511 0.0
C612 C 0.52099 0.66019 0.45856 0.0
C613 C 0.55108 0.70632 0.48358 0.0
N614 N 0.46887 0.67238 0.4236 0.0
N615 N 0.52388 0.70868 0.47238 0.0
H616 H 0.34579 0.378 0.68537 0.0
H617 H 0.37434 0.53768 0.73029 0.0
H618 H 0.36044 0.43564 0.61384 0.0
H619 H 0.39974 0.47763 0.79521 0.0
H620 H 0.36009 0.50051 0.68991 0.0
H621 H 0.35725 0.4145 0.72862 0.0
C622 C 0.35126 0.39832 0.67881 0.0
C623 C 0.35224 0.40384 0.64602 0.0
C624 C 0.36868 0.49544 0.71303 0.0
C625 C 0.36492 0.4454 0.69503 0.0
C626 C 0.3766 0.51662 0.73615 0.0
C627 C 0.38816 0.51065 0.76611 0.0
C628 C 0.37201 0.46805 0.71998 0.0
C629 C 0.39104 0.483 0.77229 0.0
C630 C 0.3579 0.41901 0.70341 0.0
C631 C 0.35959 0.43044 0.63878 0.0
N632 N 0.3829 0.46262 0.7494 0.0
N633 N 0.36547 0.45024 0.66308 0.0
H634 H 0.07415 0.79262 0.12859 0.0
H635 H 0.90997 0.80105 0.07714 0.0
H636 H 0.04483 0.83044 0.04401 0.0
H637 H 0.93637 0.80422 0.17769 0.0
H638 H 0.9602 0.79864 0.06076 0.0
H639 H 0.02409 0.78448 0.14312 0.0
C640 C 0.0572 0.79888 0.11293 0.0
C641 C 0.06349 0.81242 0.08525 0.0
C642 C 0.95494 0.79947 0.08638 0.0
C643 C 0.00672 0.80279 0.10129 0.0
C644 C 0.92635 0.80062 0.09571 0.0
C645 C 0.91913 0.80297 0.12879 0.0
C646 C 0.9764 0.80032 0.11029 0.0
C647 C 0.94116 0.80266 0.15193 0.0
C648 C 0.02877 0.79433 0.12126 0.0
C649 C 0.04083 0.82022 0.06577 0.0
N650 N 0.9689 0.80147 0.14225 0.0
N651 N 0.01345 0.81524 0.07412 0.0
H652 H 0.66525 0.5881 0.57935 0.0
H653 H 0.77651 0.46785 0.56086 0.0
H654 H 0.73784 0.59259 0.51601 0.0
H655 H 0.72913 0.48784 0.64937 0.0
H656 H 0.76311 0.51262 0.54269 0.0
H657 H 0.68813 0.55031 0.60434 0.0
C658 C 0.68615 0.5812 0.57091 0.0
C659 C 0.69966 0.59328 0.54554 0.0
C660 C 0.75619 0.50736 0.56636 0.0
C661 C 0.72578 0.54983 0.57361 0.0
C662 C 0.76373 0.48184 0.57666 0.0
C663 C 0.75385 0.47411 0.60661 0.0
C664 C 0.73817 0.52488 0.58586 0.0
C665 C 0.73742 0.49302 0.62623 0.0
C666 C 0.69926 0.55976 0.58526 0.0
C667 C 0.72681 0.58377 0.53561 0.0
N668 N 0.72971 0.51731 0.61528 0.0
N669 N 0.73883 0.5622 0.54931 0.0
H670 H 0.89024 0.21481 0.1185 0.0
H671 H 0.9218 0.12504 0.2652 0.0
H672 H 0.86105 0.13136 0.12273 0.0
H673 H 0.9398 0.21211 0.27045 0.0
H674 H 0.8949 0.12886 0.21564 0.0
H675 H 0.90454 0.21607 0.1758 0.0
C676 C 0.88653 0.19688 0.13152 0.0
C677 C 0.87488 0.17277 0.11558 0.0
C678 C 0.90439 0.14726 0.22779 0.0
C679 C 0.89121 0.17409 0.18103 0.0
C680 C 0.91961 0.14517 0.25649 0.0
C681 C 0.93345 0.16826 0.2722 0.0
C682 C 0.90325 0.1725 0.21413 0.0
C683 C 0.93013 0.19358 0.25889 0.0
C684 C 0.89467 0.19763 0.16425 0.0
C685 C 0.87035 0.15026 0.13379 0.0
N686 N 0.91574 0.19495 0.23036 0.0
N687 N 0.8788 0.15138 0.16536 0.0
H688 H 0.16945 0.74745 0.12944 0.0
H689 H 0.18185 0.76073 0.32375 0.0
H690 H 0.17125 0.82515 0.18842 0.0
H691 H 0.20488 0.68767 0.26249 0.0
H692 H 0.16938 0.78313 0.27497 0.0
H693 H 0.17386 0.72371 0.17892 0.0
C694 C 0.17064 0.75951 0.15277 0.0
C695 C 0.17034 0.78832 0.15477 0.0
C696 C 0.17694 0.76211 0.27234 0.0
C697 C 0.17516 0.76131 0.21139 0.0
C698 C 0.18415 0.74932 0.30014 0.0
C699 C 0.19463 0.72228 0.29734 0.0
C700 C 0.18006 0.74772 0.24151 0.0
C701 C 0.19657 0.70838 0.26604 0.0
C702 C 0.17318 0.74595 0.18098 0.0
C703 C 0.17179 0.8029 0.1857 0.0
N704 N 0.1895 0.72129 0.23939 0.0
N705 N 0.1742 0.78923 0.21279 0.0
H706 H 0.75968 0.68722 0.51976 0.0
H707 H 0.80512 0.81695 0.64106 0.0
H708 H 0.70007 0.74138 0.57323 0.0
H709 H 0.86357 0.75074 0.61294 0.0
H710 H 0.76747 0.79196 0.61022 0.0
H711 H 0.7992 0.71265 0.54794 0.0
C712 C 0.7549 0.70445 0.5373 0.0
C713 C 0.72651 0.71215 0.54416 0.0
C714 C 0.78852 0.78286 0.61079 0.0
C715 C 0.77145 0.7413 0.57615 0.0
C716 C 0.81005 0.79706 0.62857 0.0
C717 C 0.83754 0.7858 0.63005 0.0
C718 C 0.79443 0.75721 0.59402 0.0
C719 C 0.84276 0.7603 0.61241 0.0
C720 C 0.77743 0.71887 0.5534 0.0
C721 C 0.72155 0.73459 0.5672 0.0
N722 N 0.82136 0.7468 0.59517 0.0
N723 N 0.74376 0.74837 0.58223 0.0
H724 H 0.74835 0.20982 0.00499 0.0
H725 H 0.68162 0.26462 0.17654 0.0
H726 H 0.79666 0.21917 0.09468 0.0
H727 H 0.64475 0.28453 0.08564 0.0
H728 H 0.72094 0.24143 0.14654 0.0
H729 H 0.70719 0.23138 0.03391 0.0
C730 C 0.75029 0.21636 0.03071 0.0
C731 C 0.77601 0.21284 0.04742 0.0
C732 C 0.70422 0.25083 0.13313 0.0
C733 C 0.7291 0.23707 0.08053 0.0
C734 C 0.68169 0.26387 0.15021 0.0
C735 C 0.65993 0.27648 0.13351 0.0
C736 C 0.70489 0.25009 0.09904 0.0
C737 C 0.66126 0.27522 0.0994 0.0
C738 C 0.72687 0.22871 0.04712 0.0
C739 C 0.77735 0.22169 0.08074 0.0
N740 N 0.68335 0.26216 0.08322 0.0
N741 N 0.75421 0.23325 0.0962 0.0
H742 H 0.30308 0.32023 0.67799 0.0
H743 H 0.33321 0.19359 0.7831 0.0
H744 H 0.36044 0.25433 0.64554 0.0
H745 H 0.27027 0.2568 0.80549 0.0
H746 H 0.34923 0.21806 0.73675 0.0
H747 H 0.29697 0.30008 0.72909 0.0
C748 C 0.31445 0.30145 0.68168 0.0
C749 C 0.33186 0.28863 0.65726 0.0
C750 C 0.3321 0.22662 0.75203 0.0
C751 C 0.3248 0.26519 0.71595 0.0
C752 C 0.32307 0.21276 0.77844 0.0
C753 C 0.30017 0.22308 0.7977 0.0
C754 C 0.31824 0.25099 0.74529 0.0
C755 C 0.28767 0.24794 0.79084 0.0
C756 C 0.311 0.28995 0.71096 0.0
C757 C 0.34661 0.2647 0.66369 0.0
N758 N 0.29677 0.26093 0.76515 0.0
N759 N 0.34245 0.25348 0.69237 0.0
H760 H 0.66856 0.75117 0.44734 0.0
H761 H 0.68196 0.73951 0.25333 0.0
H762 H 0.67024 0.67365 0.38803 0.0
H763 H 0.70787 0.81098 0.316 0.0
H764 H 0.66892 0.71675 0.30159 0.0
H765 H 0.67408 0.77507 0.3982 0.0
C766 C 0.66993 0.73917 0.42399 0.0
C767 C 0.66926 0.71035 0.42183 0.0
C768 C 0.67725 0.73751 0.30463 0.0
C769 C 0.67537 0.7376 0.36554 0.0
C770 C 0.6848 0.75051 0.27712 0.0
C771 C 0.69624 0.77723 0.28044 0.0
C772 C 0.68091 0.75138 0.33569 0.0
C773 C 0.6988 0.79058 0.31199 0.0
C774 C 0.67313 0.75283 0.39597 0.0
C775 C 0.671 0.69589 0.39087 0.0
N776 N 0.69131 0.77749 0.33833 0.0
N777 N 0.67403 0.70967 0.36392 0.0
H778 H 0.83806 0.25607 0.95787 0.0
H779 H 0.8188 0.25102 0.76449 0.0
H780 H 0.84135 0.18123 0.89369 0.0
H781 H 0.78983 0.31829 0.83122 0.0
H782 H 0.83747 0.22827 0.81071 0.0
H783 H 0.83061 0.28205 0.91054 0.0
C784 C 0.83759 0.24513 0.93382 0.0
C785 C 0.83996 0.21639 0.92975 0.0
C786 C 0.82727 0.24814 0.81517 0.0
C787 C 0.83153 0.24599 0.87562 0.0
C788 C 0.8168 0.26118 0.78884 0.0
C789 C 0.80255 0.28642 0.79416 0.0
C790 C 0.82369 0.26058 0.84696 0.0
C791 C 0.80034 0.29864 0.82618 0.0
C792 C 0.83323 0.25997 0.90686 0.0
C793 C 0.83924 0.20333 0.89799 0.0
N794 N 0.81068 0.28555 0.85141 0.0
N795 N 0.83495 0.21821 0.87215 0.0
H796 H 0.27943 0.24418 0.55614 0.0
H797 H 0.15651 0.23702 0.42473 0.0
H798 H 0.25024 0.31705 0.51435 0.0
H799 H 0.15273 0.1878 0.50663 0.0
H800 H 0.1958 0.26306 0.45122 0.0
H801 H 0.23825 0.21894 0.53145 0.0
C802 C 0.26444 0.25479 0.54164 0.0
C803 C 0.26813 0.28271 0.53725 0.0
C804 C 0.18621 0.24659 0.46333 0.0
C805 C 0.22152 0.25401 0.50882 0.0
C806 C 0.16354 0.23178 0.4484 0.0
C807 C 0.1509 0.21006 0.46339 0.0
C808 C 0.19689 0.2393 0.49309 0.0
C809 C 0.16194 0.20392 0.49368 0.0
C810 C 0.24094 0.24047 0.52781 0.0
C811 C 0.24803 0.29557 0.51844 0.0
N812 N 0.18446 0.2183 0.50739 0.0
N813 N 0.22568 0.28104 0.50461 0.0
H814 H 0.26148 0.8144 0.0595 0.0
H815 H 0.30957 0.68178 0.94547 0.0
H816 H 0.20348 0.75881 0.00495 0.0
H817 H 0.36752 0.74915 0.97083 0.0
H818 H 0.27174 0.70729 0.97488 0.0
H819 H 0.30183 0.78864 0.03389 0.0
C820 C 0.25722 0.79683 0.04221 0.0
C821 C 0.22904 0.78877 0.03435 0.0
C822 C 0.29271 0.71656 0.97405 0.0
C823 C 0.2749 0.75922 0.00544 0.0
C824 C 0.31433 0.70203 0.95715 0.0
C825 C 0.34164 0.71357 0.95509 0.0
C826 C 0.29831 0.74284 0.98934 0.0
C827 C 0.34675 0.73952 0.97172 0.0
C828 C 0.28022 0.78221 0.02762 0.0
C829 C 0.22477 0.76589 0.01172 0.0
N830 N 0.32519 0.75342 0.98805 0.0
N831 N 0.24741 0.7519 0.99824 0.0
loop_
_geom_bond_atom_site_label_1
_geom_bond_atom_site_label_2
_geom_bond_distance
_geom_bond_site_symmetry_2
_ccdc_geom_bond_type
Fe0 O2 1.918 . S
Fe0 O5 1.997 . S
Fe0 O6 2.002 . S
Fe0 O11 1.976 . S
Fe0 O14 1.996 . S
Fe1 O2 1.918 . S
Fe1 O9 1.997 . S
Fe1 O12 1.996 . S
Fe1 O16 1.976 . S
Fe1 O19 2.002 . S
O2 Fe0 1.918 . S
O2 Fe1 1.918 . S
O2 Fe3 1.918 . S
Fe3 O2 1.918 . S
Fe3 O4 2.002 . S
Fe3 O13 1.976 . S
Fe3 O17 1.996 . S
Fe3 O20 1.997 . S
O4 Fe3 2.002 . S
O4 C21 1.295 . S
O5 Fe0 1.997 . S
O5 C21 1.235 . S
O6 Fe0 2.002 . S
O6 C7 1.295 . S
C7 O6 1.295 . S
C7 O9 1.235 . S
C8 O13 1.287 . S
C8 O14 1.255 . S
O9 Fe1 1.997 . S
O9 C7 1.235 . S
C10 O16 1.287 . S
C10 O17 1.255 . S
O11 Fe0 1.976 . S
O11 C18 1.287 . S
O12 Fe1 1.996 . S
O12 C18 1.255 . S
O13 Fe3 1.976 . S
O13 C8 1.287 . S
O14 Fe0 1.996 . S
O14 C8 1.255 . S
C15 O19 1.295 . S
C15 O20 1.235 . S
O16 Fe1 1.976 . S
O16 C10 1.287 . S
O17 Fe3 1.996 . S
O17 C10 1.255 . S
C18 O11 1.287 . S
C18 O12 1.255 . S
O19 Fe1 2.002 . S
O19 C15 1.295 . S
O20 Fe3 1.997 . S
O20 C15 1.235 . S
C21 O4 1.295 . S
C21 O5 1.235 . S
Fe22 O24 1.918 . S
Fe22 O27 1.997 . S
Fe22 O28 2.002 . S
Fe22 O33 1.976 . S
Fe22 O36 1.996 . S
Fe23 O24 1.918 . S
Fe23 O31 1.997 . S
Fe23 O34 1.996 . S
Fe23 O38 1.976 . S
Fe23 O41 2.002 . S
O24 Fe22 1.918 . S
O24 Fe23 1.918 . S
O24 Fe25 1.918 . S
Fe25 O24 1.918 . S
Fe25 O26 2.002 . S
Fe25 O35 1.976 . S
Fe25 O39 1.996 . S
Fe25 O42 1.997 . S
O26 Fe25 2.002 . S
O26 C43 1.295 . S
O27 Fe22 1.997 . S
O27 C43 1.235 . S
O28 Fe22 2.002 . S
O28 C29 1.295 . S
C29 O28 1.295 . S
C29 O31 1.235 . S
C30 O35 1.287 . S
C30 O36 1.255 . S
O31 Fe23 1.997 . S
O31 C29 1.235 . S
C32 O38 1.287 . S
C32 O39 1.255 . S
O33 Fe22 1.976 . S
O33 C40 1.287 . S
O34 Fe23 1.996 . S
O34 C40 1.255 . S
O35 Fe25 1.976 . S
O35 C30 1.287 . S
O36 Fe22 1.996 . S
O36 C30 1.255 . S
C37 O41 1.295 . S
C37 O42 1.235 . S
O38 Fe23 1.976 . S
O38 C32 1.287 . S
O39 Fe25 1.996 . S
O39 C32 1.255 . S
C40 O33 1.287 . S
C40 O34 1.255 . S
O41 Fe23 2.002 . S
O41 C37 1.295 . S
O42 Fe25 1.997 . S
O42 C37 1.235 . S
C43 O26 1.295 . S
C43 O27 1.235 . S
Fe44 O46 1.918 . S
Fe44 O49 1.997 1_554 S
Fe44 O50 2.002 . S
Fe44 O55 1.976 . S
Fe44 O58 1.996 . S
Fe45 O46 1.918 . S
Fe45 O53 1.997 . S
Fe45 O56 1.996 . S
Fe45 O60 1.976 . S
Fe45 O63 2.002 1_554 S
O46 Fe44 1.918 . S
O46 Fe45 1.918 . S
O46 Fe47 1.907 1_554 S
Fe47 O46 1.907 1_556 S
Fe47 O48 2.025 . S
Fe47 O57 1.958 1_556 S
Fe47 O61 1.977 1_556 S
Fe47 O64 2.016 . S
O48 Fe47 2.025 . S
O48 C65 1.295 . S
O49 Fe44 1.997 1_556 S
O49 C65 1.235 . S
O50 Fe44 2.002 . S
O50 C51 1.295 1_554 S
C51 O50 1.295 1_556 S
C51 O53 1.235 1_556 S
C52 O57 1.287 . S
C52 O58 1.255 . S
O53 Fe45 1.997 . S
O53 C51 1.235 1_554 S
C54 O60 1.287 . S
C54 O61 1.255 . S
O55 Fe44 1.976 . S
O55 C62 1.287 . S
O56 Fe45 1.996 . S
O56 C62 1.255 . S
O57 Fe47 1.958 1_554 S
O57 C52 1.287 . S
O58 Fe44 1.996 . S
O58 C52 1.255 . S
C59 O63 1.295 . S
C59 O64 1.235 . S
O60 Fe45 1.976 . S
O60 C54 1.287 . S
O61 Fe47 1.977 1_554 S
O61 C54 1.255 . S
C62 O55 1.287 . S
C62 O56 1.255 . S
O63 Fe45 2.002 1_556 S
O63 C59 1.295 . S
O64 Fe47 2.016 . S
O64 C59 1.235 . S
C65 O48 1.295 . S
C65 O49 1.235 . S
Fe66 O68 1.918 . S
Fe66 O71 1.997 . S
Fe66 O72 2.002 . S
Fe66 O77 1.976 . S
Fe66 O80 1.996 . S
Fe67 O68 1.918 . S
Fe67 O75 1.997 . S
Fe67 O78 1.996 . S
Fe67 O82 1.976 . S
Fe67 O85 2.002 . S
O68 Fe66 1.918 . S
O68 Fe67 1.918 . S
O68 Fe69 1.918 . S
Fe69 O68 1.918 . S
Fe69 O70 2.002 . S
Fe69 O79 1.976 . S
Fe69 O83 1.996 . S
Fe69 O86 1.997 . S
O70 Fe69 2.002 . S
O70 C87 1.295 . S
O71 Fe66 1.997 . S
O71 C87 1.235 . S
O72 Fe66 2.002 . S
O72 C73 1.295 . S
C73 O72 1.295 . S
C73 O75 1.235 . S
C74 O79 1.287 . S
C74 O80 1.255 . S
O75 Fe67 1.997 . S
O75 C73 1.235 . S
C76 O82 1.287 . S
C76 O83 1.255 . S
O77 Fe66 1.976 . S
O77 C84 1.287 . S
O78 Fe67 1.996 . S
O78 C84 1.255 . S
O79 Fe69 1.976 . S
O79 C74 1.287 . S
O80 Fe66 1.996 . S
O80 C74 1.255 . S
C81 O85 1.295 . S
C81 O86 1.235 . S
O82 Fe67 1.976 . S
O82 C76 1.287 . S
O83 Fe69 1.996 . S
O83 C76 1.255 . S
C84 O77 1.287 . S
C84 O78 1.255 . S
O85 Fe67 2.002 . S
O85 C81 1.295 . S
O86 Fe69 1.997 . S
O86 C81 1.235 . S
C87 O70 1.295 . S
C87 O71 1.235 . S
C88 C89 1.408 . S
C88 C90 1.375 1_655 S
C88 H112 0.931 . S
C89 C88 1.408 . S
C89 C93 1.397 . S
C90 C88 1.375 1_455 S
C90 C91 1.384 . S
C90 H113 0.930 . S
C91 C90 1.384 . S
C91 C92 1.365 1_455 S
C91 C94 1.481 . S
C92 C91 1.365 1_655 S
C92 C93 1.401 . S
C92 H114 0.929 . S
C93 C89 1.397 . S
C93 C92 1.401 . S
C93 H115 0.931 . S
C94 C91 1.481 . S
C94 C95 1.387 . S
C94 C99 1.390 . S
C95 C94 1.387 . S
C95 C96 1.401 . S
C95 H116 0.930 . S
C96 C95 1.401 . S
C96 C97 1.376 . S
C96 C105 1.511 . S
C97 C96 1.376 . S
C97 C98 1.392 . S
C97 H118 0.931 . S
C98 C97 1.392 . S
C98 C99 1.361 . S
C98 C100 1.500 . S
C99 C94 1.390 . S
C99 C98 1.361 . S
C99 H117 0.931 . S
C100 C98 1.500 . S
C100 C101 1.371 . S
C100 C102 1.365 . S
C101 C100 1.371 . S
C101 C111 1.386 . S
C101 H119 0.931 . S
C102 C100 1.365 . S
C102 C103 1.409 . S
C102 H120 0.929 . S
C103 C102 1.409 . S
C103 C104 1.380 . S
C103 H121 0.930 . S
C104 C103 1.380 . S
C104 C111 1.357 . S
C105 C96 1.511 . S
C105 C106 1.341 . S
C105 C107 1.371 . S
C106 C105 1.341 . S
C106 C110 1.394 . S
C106 H122 0.930 . S
C107 C105 1.371 . S
C107 C108 1.392 . S
C107 H123 0.931 . S
C108 C107 1.392 . S
C108 C109 1.331 . S
C108 H126 0.932 . S
C109 C108 1.331 . S
C109 C110 1.336 . S
C110 C106 1.394 . S
C110 C109 1.336 . S
C110 H125 0.929 . S
C111 C101 1.386 . S
C111 C104 1.357 . S
C111 H124 0.928 . S
H112 C88 0.931 . S
H113 C90 0.930 . S
H114 C92 0.929 . S
H115 C93 0.931 . S
H116 C95 0.930 . S
H117 C99 0.931 . S
H118 C97 0.931 . S
H119 C101 0.931 . S
H120 C102 0.929 . S
H121 C103 0.930 . S
H122 C106 0.930 . S
H123 C107 0.931 . S
H124 C111 0.928 . S
H125 C110 0.929 . S
H126 C108 0.932 . S
C127 C128 1.386 . S
C127 C129 1.397 . S
C127 H151 0.931 . S
C128 C127 1.386 . S
C128 C132 1.397 . S
C129 C127 1.397 . S
C129 C130 1.384 . S
C129 H152 0.930 . S
C130 C129 1.384 . S
C130 C131 1.377 . S
C130 C133 1.481 . S
C131 C130 1.377 . S
C131 C132 1.389 . S
C131 H153 0.929 . S
C132 C128 1.397 . S
C132 C131 1.389 . S
C132 H154 0.931 . S
C133 C130 1.481 . S
C133 C134 1.387 . S
C133 C138 1.390 . S
C134 C133 1.387 . S
C134 C135 1.401 . S
C134 H155 0.930 . S
C135 C134 1.401 . S
C135 C136 1.376 . S
C135 C144 1.511 . S
C136 C135 1.376 . S
C136 C137 1.392 . S
C136 H157 0.931 . S
C137 C136 1.392 . S
C137 C138 1.361 . S
C137 C139 1.500 . S
C138 C133 1.390 . S
C138 C137 1.361 . S
C138 H156 0.931 . S
C139 C137 1.500 . S
C139 C140 1.371 . S
C139 C141 1.365 . S
C140 C139 1.371 . S
C140 C150 1.386 . S
C140 H158 0.931 . S
C141 C139 1.365 . S
C141 C142 1.409 . S
C141 H159 0.929 . S
C142 C141 1.409 . S
C142 C143 1.380 . S
C142 H160 0.930 . S
C143 C142 1.380 . S
C143 C150 1.357 . S
C144 C135 1.511 . S
C144 C145 1.341 . S
C144 C146 1.371 . S
C145 C144 1.341 . S
C145 C149 1.394 . S
C145 H161 0.930 . S
C146 C144 1.371 . S
C146 C147 1.392 . S
C146 H162 0.931 . S
C147 C146 1.392 . S
C147 C148 1.331 . S
C147 H165 0.932 . S
C148 C147 1.331 . S
C148 C149 1.336 . S
C149 C145 1.394 . S
C149 C148 1.336 . S
C149 H164 0.929 . S
C150 C140 1.386 . S
C150 C143 1.357 . S
C150 H163 0.928 . S
H151 C127 0.931 . S
H152 C129 0.930 . S
H153 C131 0.929 . S
H154 C132 0.931 . S
H155 C134 0.930 . S
H156 C138 0.931 . S
H157 C136 0.931 . S
H158 C140 0.931 . S
H159 C141 0.929 . S
H160 C142 0.930 . S
H161 C145 0.930 . S
H162 C146 0.931 . S
H163 C150 0.928 . S
H164 C149 0.929 . S
H165 C147 0.932 . S
C166 C167 1.386 . S
C166 C168 1.397 . S
C166 H190 0.931 . S
C167 C166 1.386 . S
C167 C171 1.397 . S
C168 C166 1.397 . S
C168 C169 1.384 . S
C168 H191 0.930 . S
C169 C168 1.384 . S
C169 C170 1.377 . S
C169 C172 1.481 . S
C170 C169 1.377 . S
C170 C171 1.389 . S
C170 H192 0.929 . S
C171 C167 1.397 . S
C171 C170 1.389 . S
C171 H193 0.931 . S
C172 C169 1.481 . S
C172 C173 1.387 . S
C172 C177 1.390 . S
C173 C172 1.387 . S
C173 C174 1.401 . S
C173 H194 0.930 . S
C174 C173 1.401 . S
C174 C175 1.376 . S
C174 C183 1.511 . S
C175 C174 1.376 . S
C175 C176 1.392 . S
C175 H196 0.931 . S
C176 C175 1.392 . S
C176 C177 1.361 . S
C176 C178 1.500 . S
C177 C172 1.390 . S
C177 C176 1.361 . S
C177 H195 0.931 . S
C178 C176 1.500 . S
C178 C179 1.371 . S
C178 C180 1.365 . S
C179 C178 1.371 . S
C179 C189 1.386 . S
C179 H197 0.931 . S
C180 C178 1.365 . S
C180 C181 1.409 . S
C180 H198 0.929 . S
C181 C180 1.409 . S
C181 C182 1.380 . S
C181 H199 0.930 . S
C182 C181 1.380 . S
C182 C189 1.357 . S
C183 C174 1.511 . S
C183 C184 1.341 . S
C183 C185 1.371 . S
C184 C183 1.341 . S
C184 C188 1.394 . S
C184 H200 0.930 . S
C185 C183 1.371 . S
C185 C186 1.392 . S
C185 H201 0.931 . S
C186 C185 1.392 . S
C186 C187 1.331 . S
C186 H204 0.932 . S
C187 C186 1.331 . S
C187 C188 1.336 . S
C188 C184 1.394 . S
C188 C187 1.336 . S
C188 H203 0.929 . S
C189 C179 1.386 . S
C189 C182 1.357 . S
C189 H202 0.928 . S
H190 C166 0.931 . S
H191 C168 0.930 . S
H192 C170 0.929 . S
H193 C171 0.931 . S
H194 C173 0.930 . S
H195 C177 0.931 . S
H196 C175 0.931 . S
H197 C179 0.931 . S
H198 C180 0.929 . S
H199 C181 0.930 . S
H200 C184 0.930 . S
H201 C185 0.931 . S
H202 C189 0.928 . S
H203 C188 0.929 . S
H204 C186 0.932 . S
C205 C206 1.386 . S
C205 C207 1.397 . S
C205 H229 0.931 . S
C206 C205 1.386 . S
C206 C210 1.397 . S
C207 C205 1.397 . S
C207 C208 1.384 . S
C207 H230 0.930 . S
C208 C207 1.384 . S
C208 C209 1.377 . S
C208 C211 1.481 . S
C209 C208 1.377 . S
C209 C210 1.389 . S
C209 H231 0.929 . S
C210 C206 1.397 . S
C210 C209 1.389 . S
C210 H232 0.931 . S
C211 C208 1.481 . S
C211 C212 1.387 . S
C211 C216 1.390 . S
C212 C211 1.387 . S
C212 C213 1.401 . S
C212 H233 0.930 . S
C213 C212 1.401 . S
C213 C214 1.376 . S
C213 C222 1.511 . S
C214 C213 1.376 . S
C214 C215 1.392 . S
C214 H235 0.931 . S
C215 C214 1.392 . S
C215 C216 1.361 . S
C215 C217 1.500 . S
C216 C211 1.390 . S
C216 C215 1.361 . S
C216 H234 0.931 . S
C217 C215 1.500 . S
C217 C218 1.371 . S
C217 C219 1.365 . S
C218 C217 1.371 . S
C218 C228 1.386 . S
C218 H236 0.931 . S
C219 C217 1.365 . S
C219 C220 1.409 . S
C219 H237 0.929 . S
C220 C219 1.409 . S
C220 C221 1.380 . S
C220 H238 0.930 . S
C221 C220 1.380 . S
C221 C228 1.357 . S
C222 C213 1.511 . S
C222 C223 1.341 . S
C222 C224 1.371 . S
C223 C222 1.341 . S
C223 C227 1.394 . S
C223 H239 0.930 . S
C224 C222 1.371 . S
C224 C225 1.392 . S
C224 H240 0.931 . S
C225 C224 1.392 . S
C225 C226 1.331 . S
C225 H243 0.932 . S
C226 C225 1.331 . S
C226 C227 1.336 . S
C227 C223 1.394 . S
C227 C226 1.336 . S
C227 H242 0.929 . S
C228 C218 1.386 . S
C228 C221 1.357 . S
C228 H241 0.928 . S
H229 C205 0.931 . S
H230 C207 0.930 . S
H231 C209 0.929 . S
H232 C210 0.931 . S
H233 C212 0.930 . S
H234 C216 0.931 . S
H235 C214 0.931 . S
H236 C218 0.931 . S
H237 C219 0.929 . S
H238 C220 0.930 . S
H239 C223 0.930 . S
H240 C224 0.931 . S
H241 C228 0.928 . S
H242 C227 0.929 . S
H243 C225 0.932 . S
C244 C245 1.386 . S
C244 C246 1.397 . S
C244 H268 0.931 . S
C245 C244 1.386 . S
C245 C249 1.397 . S
C246 C244 1.397 . S
C246 C247 1.384 . S
C246 H269 0.930 . S
C247 C246 1.384 . S
C247 C248 1.377 . S
C247 C250 1.481 . S
C248 C247 1.377 . S
C248 C249 1.389 . S
C248 H270 0.929 . S
C249 C245 1.397 . S
C249 C248 1.389 . S
C249 H271 0.931 . S
C250 C247 1.481 . S
C250 C251 1.387 . S
C250 C255 1.390 . S
C251 C250 1.387 . S
C251 C252 1.401 . S
C251 H272 0.930 . S
C252 C251 1.401 . S
C252 C253 1.376 . S
C252 C261 1.511 . S
C253 C252 1.376 . S
C253 C254 1.392 . S
C253 H274 0.931 . S
C254 C253 1.392 . S
C254 C255 1.361 . S
C254 C256 1.500 . S
C255 C250 1.390 . S
C255 C254 1.361 . S
C255 H273 0.931 . S
C256 C254 1.500 . S
C256 C257 1.371 . S
C256 C258 1.365 . S
C257 C256 1.371 . S
C257 C267 1.386 . S
C257 H275 0.931 . S
C258 C256 1.365 . S
C258 C259 1.409 . S
C258 H276 0.929 . S
C259 C258 1.409 . S
C259 C260 1.380 . S
C259 H277 0.930 . S
C260 C259 1.380 . S
C260 C267 1.357 . S
C261 C252 1.511 . S
C261 C262 1.341 . S
C261 C263 1.371 . S
C262 C261 1.341 . S
C262 C266 1.394 . S
C262 H278 0.930 . S
C263 C261 1.371 . S
C263 C264 1.392 . S
C263 H279 0.931 . S
C264 C263 1.392 . S
C264 C265 1.331 . S
C264 H282 0.932 . S
C265 C264 1.331 . S
C265 C266 1.336 . S
C266 C262 1.394 . S
C266 C265 1.336 . S
C266 H281 0.929 . S
C267 C257 1.386 . S
C267 C260 1.357 . S
C267 H280 0.928 . S
H268 C244 0.931 . S
H269 C246 0.930 . S
H270 C248 0.929 . S
H271 C249 0.931 . S
H272 C251 0.930 . S
H273 C255 0.931 . S
H274 C253 0.931 . S
H275 C257 0.931 . S
H276 C258 0.929 . S
H277 C259 0.930 . S
H278 C262 0.930 . S
H279 C263 0.931 . S
H280 C267 0.928 . S
H281 C266 0.929 . S
H282 C264 0.932 . S
C283 C284 1.386 . S
C283 C285 1.397 . S
C283 H307 0.931 . S
C284 C283 1.386 . S
C284 C288 1.397 . S
C285 C283 1.397 . S
C285 C286 1.384 . S
C285 H308 0.930 . S
C286 C285 1.384 . S
C286 C287 1.377 . S
C286 C289 1.481 . S
C287 C286 1.377 . S
C287 C288 1.389 . S
C287 H309 0.929 . S
C288 C284 1.397 . S
C288 C287 1.389 . S
C288 H310 0.931 1_556 S
C289 C286 1.481 . S
C289 C290 1.387 . S
C289 C294 1.390 . S
C290 C289 1.387 . S
C290 C291 1.401 . S
C290 H311 0.930 . S
C291 C290 1.401 . S
C291 C292 1.376 . S
C291 C300 1.511 . S
C292 C291 1.376 . S
C292 C293 1.392 . S
C292 H313 0.931 . S
C293 C292 1.392 . S
C293 C294 1.361 . S
C293 C295 1.500 . S
C294 C289 1.390 . S
C294 C293 1.361 . S
C294 H312 0.931 . S
C295 C293 1.500 . S
C295 C296 1.371 . S
C295 C297 1.365 . S
C296 C295 1.371 . S
C296 C306 1.386 . S
C296 H314 0.931 . S
C297 C295 1.365 . S
C297 C298 1.409 . S
C297 H315 0.929 . S
C298 C297 1.409 . S
C298 C299 1.380 . S
C298 H316 0.930 1_556 S
C299 C298 1.380 . S
C299 C306 1.357 . S
C300 C291 1.511 . S
C300 C301 1.341 . S
C300 C302 1.371 . S
C301 C300 1.341 . S
C301 C305 1.394 . S
C301 H317 0.930 . S
C302 C300 1.371 . S
C302 C303 1.392 . S
C302 H318 0.931 . S
C303 C302 1.392 . S
C303 C304 1.331 . S
C303 H321 0.932 . S
C304 C303 1.331 . S
C304 C305 1.336 . S
C305 C301 1.394 . S
C305 C304 1.336 . S
C305 H320 0.929 . S
C306 C296 1.386 . S
C306 C299 1.357 . S
C306 H319 0.928 . S
H307 C283 0.931 . S
H308 C285 0.930 . S
H309 C287 0.929 . S
H310 C288 0.931 1_554 S
H311 C290 0.930 . S
H312 C294 0.931 . S
H313 C292 0.931 . S
H314 C296 0.931 . S
H315 C297 0.929 . S
H316 C298 0.930 1_554 S
H317 C301 0.930 . S
H318 C302 0.931 . S
H319 C306 0.928 . S
H320 C305 0.929 . S
H321 C303 0.932 . S
C322 C323 1.386 . S
C322 C324 1.397 . S
C322 H346 0.931 . S
C323 C322 1.386 . S
C323 C327 1.397 . S
C324 C322 1.397 . S
C324 C325 1.384 . S
C324 H347 0.930 . S
C325 C324 1.384 . S
C325 C326 1.377 . S
C325 C328 1.481 . S
C326 C325 1.377 . S
C326 C327 1.389 . S
C326 H348 0.929 . S
C327 C323 1.397 . S
C327 C326 1.389 . S
C327 H349 0.931 . S
C328 C325 1.481 . S
C328 C329 1.387 . S
C328 C333 1.390 . S
C329 C328 1.387 . S
C329 C330 1.401 . S
C329 H350 0.930 . S
C330 C329 1.401 . S
C330 C331 1.376 . S
C330 C339 1.511 . S
C331 C330 1.376 . S
C331 C332 1.392 . S
C331 H352 0.931 . S
C332 C331 1.392 . S
C332 C333 1.361 . S
C332 C334 1.500 . S
C333 C328 1.390 . S
C333 C332 1.361 . S
C333 H351 0.931 . S
C334 C332 1.500 . S
C334 C335 1.371 . S
C334 C336 1.365 . S
C335 C334 1.371 . S
C335 C345 1.386 . S
C335 H353 0.931 . S
C336 C334 1.365 . S
C336 C337 1.409 . S
C336 H354 0.929 . S
C337 C336 1.409 . S
C337 C338 1.380 . S
C337 H355 0.930 . S
C338 C337 1.380 . S
C338 C345 1.357 . S
C339 C330 1.511 . S
C339 C340 1.341 . S
C339 C341 1.371 . S
C340 C339 1.341 . S
C340 C344 1.394 . S
C340 H356 0.930 . S
C341 C339 1.371 . S
C341 C342 1.392 . S
C341 H357 0.931 . S
C342 C341 1.392 . S
C342 C343 1.331 . S
C342 H360 0.932 . S
C343 C342 1.331 . S
C343 C344 1.336 . S
C344 C340 1.394 . S
C344 C343 1.336 . S
C344 H359 0.929 . S
C345 C335 1.386 . S
C345 C338 1.357 . S
C345 H358 0.928 . S
H346 C322 0.931 . S
H347 C324 0.930 . S
H348 C326 0.929 . S
H349 C327 0.931 . S
H350 C329 0.930 . S
H351 C333 0.931 . S
H352 C331 0.931 . S
H353 C335 0.931 . S
H354 C336 0.929 . S
H355 C337 0.930 . S
H356 C340 0.930 . S
H357 C341 0.931 . S
H358 C345 0.928 . S
H359 C344 0.929 . S
H360 C342 0.932 . S
C361 C362 1.386 . S
C361 C363 1.397 1_455 S
C361 H385 0.931 . S
C362 C361 1.386 . S
C362 C366 1.397 . S
C363 C361 1.397 1_655 S
C363 C364 1.384 . S
C363 H386 0.930 . S
C364 C363 1.384 . S
C364 C365 1.377 . S
C364 C367 1.481 . S
C365 C364 1.377 . S
C365 C366 1.389 1_655 S
C365 H387 0.929 . S
C366 C362 1.397 . S
C366 C365 1.389 1_455 S
C366 H388 0.931 . S
C367 C364 1.481 . S
C367 C368 1.387 . S
C367 C372 1.390 . S
C368 C367 1.387 . S
C368 C369 1.401 . S
C368 H389 0.930 . S
C369 C368 1.401 . S
C369 C370 1.376 . S
C369 C378 1.511 . S
C370 C369 1.376 . S
C370 C371 1.392 . S
C370 H391 0.931 . S
C371 C370 1.392 . S
C371 C372 1.361 . S
C371 C373 1.500 . S
C372 C367 1.390 . S
C372 C371 1.361 . S
C372 H390 0.931 . S
C373 C371 1.500 . S
C373 C374 1.371 . S
C373 C375 1.365 . S
C374 C373 1.371 . S
C374 C384 1.386 . S
C374 H392 0.931 . S
C375 C373 1.365 . S
C375 C376 1.409 . S
C375 H393 0.929 . S
C376 C375 1.409 . S
C376 C377 1.380 . S
C376 H394 0.930 . S
C377 C376 1.380 . S
C377 C384 1.357 . S
C378 C369 1.511 . S
C378 C379 1.341 . S
C378 C380 1.371 . S
C379 C378 1.341 . S
C379 C383 1.394 . S
C379 H395 0.930 . S
C380 C378 1.371 . S
C380 C381 1.392 . S
C380 H396 0.931 . S
C381 C380 1.392 . S
C381 C382 1.331 . S
C381 H399 0.932 . S
C382 C381 1.331 . S
C382 C383 1.336 . S
C383 C379 1.394 . S
C383 C382 1.336 . S
C383 H398 0.929 . S
C384 C374 1.386 . S
C384 C377 1.357 . S
C384 H397 0.928 . S
H385 C361 0.931 . S
H386 C363 0.930 . S
H387 C365 0.929 . S
H388 C366 0.931 . S
H389 C368 0.930 . S
H390 C372 0.931 . S
H391 C370 0.931 . S
H392 C374 0.931 . S
H393 C375 0.929 . S
H394 C376 0.930 . S
H395 C379 0.930 . S
H396 C380 0.931 . S
H397 C384 0.928 . S
H398 C383 0.929 . S
H399 C381 0.932 . S
H400 C406 0.930 . S
H401 C410 0.930 1_545 S
H402 C415 0.929 . S
H403 C413 0.929 . S
H404 C408 0.929 . S
H405 C414 0.929 . S
C406 H400 0.930 . S
C406 C407 1.367 . S
C406 C414 1.378 . S
C407 C406 1.367 . S
C407 C415 1.433 . S
C408 H404 0.929 . S
C408 C410 1.378 . S
C408 C412 1.350 . S
C409 C412 1.463 . S
C409 C414 1.350 . S
C409 N417 1.427 . S
C410 H401 0.930 1_565 S
C410 C408 1.378 . S
C410 C411 1.367 . S
C411 C410 1.367 . S
C411 C413 1.433 . S
C412 C408 1.350 . S
C412 C409 1.463 . S
C412 N416 1.427 . S
C413 H403 0.929 . S
C413 C411 1.433 . S
C413 N416 1.384 . S
C414 H405 0.929 . S
C414 C406 1.378 . S
C414 C409 1.350 . S
C415 H402 0.929 . S
C415 C407 1.433 . S
C415 N417 1.384 . S
N416 C412 1.427 . S
N416 C413 1.384 . S
N417 C409 1.427 . S
N417 C415 1.384 . S
H418 C424 0.930 . S
H419 C428 0.930 . S
H420 C433 0.929 . S
H421 C431 0.929 . S
H422 C426 0.929 . S
H423 C432 0.929 . S
C424 H418 0.930 . S
C424 C425 1.367 . S
C424 C432 1.378 . S
C425 C424 1.367 . S
C425 C433 1.433 . S
C426 H422 0.929 . S
C426 C428 1.378 . S
C426 C430 1.350 . S
C427 C430 1.463 . S
C427 C432 1.350 . S
C427 N435 1.427 . S
C428 H419 0.930 . S
C428 C426 1.378 . S
C428 C429 1.367 . S
C429 C428 1.367 . S
C429 C431 1.433 . S
C430 C426 1.350 . S
C430 C427 1.463 . S
C430 N434 1.427 . S
C431 H421 0.929 . S
C431 C429 1.433 . S
C431 N434 1.384 . S
C432 H423 0.929 . S
C432 C424 1.378 . S
C432 C427 1.350 . S
C433 H420 0.929 . S
C433 C425 1.433 . S
C433 N435 1.384 . S
N434 C430 1.427 . S
N434 C431 1.384 . S
N435 C427 1.427 . S
N435 C433 1.384 . S
H436 C442 0.930 . S
H437 C446 0.930 . S
H438 C451 0.929 . S
H439 C449 0.929 . S
H440 C444 0.929 . S
H441 C450 0.929 . S
C442 H436 0.930 . S
C442 C443 1.367 . S
C442 C450 1.378 . S
C443 C442 1.367 . S
C443 C451 1.433 . S
C444 H440 0.929 . S
C444 C446 1.378 . S
C444 C448 1.350 1_565 S
C445 C448 1.463 . S
C445 C450 1.350 . S
C445 N453 1.427 . S
C446 H437 0.930 . S
C446 C444 1.378 . S
C446 C447 1.367 . S
C447 C446 1.367 . S
C447 C449 1.433 . S
C448 C444 1.350 1_545 S
C448 C445 1.463 . S
C448 N452 1.427 . S
C449 H439 0.929 . S
C449 C447 1.433 . S
C449 N452 1.384 1_565 S
C450 H441 0.929 . S
C450 C442 1.378 . S
C450 C445 1.350 . S
C451 H438 0.929 . S
C451 C443 1.433 . S
C451 N453 1.384 . S
N452 C448 1.427 . S
N452 C449 1.384 1_545 S
N453 C445 1.427 . S
N453 C451 1.384 . S
H454 C460 0.930 . S
H455 C464 0.930 . S
H456 C469 0.929 . S
H457 C467 0.929 . S
H458 C462 0.929 . S
H459 C468 0.929 . S
C460 H454 0.930 . S
C460 C461 1.367 . S
C460 C468 1.378 . S
C461 C460 1.367 . S
C461 C469 1.433 . S
C462 H458 0.929 . S
C462 C464 1.378 . S
C462 C466 1.350 . S
C463 C466 1.463 . S
C463 C468 1.350 . S
C463 N471 1.427 . S
C464 H455 0.930 . S
C464 C462 1.378 . S
C464 C465 1.367 . S
C465 C464 1.367 . S
C465 C467 1.433 . S
C466 C462 1.350 . S
C466 C463 1.463 . S
C466 N470 1.427 . S
C467 H457 0.929 . S
C467 C465 1.433 . S
C467 N470 1.384 . S
C468 H459 0.929 . S
C468 C460 1.378 . S
C468 C463 1.350 . S
C469 H456 0.929 . S
C469 C461 1.433 . S
C469 N471 1.384 . S
N470 C466 1.427 . S
N470 C467 1.384 . S
N471 C463 1.427 . S
N471 C469 1.384 . S
H472 C478 0.930 . S
H473 C482 0.930 . S
H474 C487 0.929 . S
H475 C485 0.929 . S
H476 C480 0.929 . S
H477 C486 0.929 . S
C478 H472 0.930 . S
C478 C479 1.367 . S
C478 C486 1.378 . S
C479 C478 1.367 . S
C479 C487 1.433 . S
C480 H476 0.929 . S
C480 C482 1.378 . S
C480 C484 1.350 . S
C481 C484 1.463 . S
C481 C486 1.350 . S
C481 N489 1.427 . S
C482 H473 0.930 . S
C482 C480 1.378 . S
C482 C483 1.367 . S
C483 C482 1.367 . S
C483 C485 1.433 . S
C484 C480 1.350 . S
C484 C481 1.463 . S
C484 N488 1.427 . S
C485 H475 0.929 . S
C485 C483 1.433 . S
C485 N488 1.384 . S
C486 H477 0.929 . S
C486 C478 1.378 . S
C486 C481 1.350 . S
C487 H474 0.929 . S
C487 C479 1.433 . S
C487 N489 1.384 . S
N488 C484 1.427 . S
N488 C485 1.384 . S
N489 C481 1.427 . S
N489 C487 1.384 . S
H490 C496 0.930 . S
H491 C500 0.930 . S
H492 C505 0.929 . S
H493 C503 0.929 . S
H494 C498 0.929 . S
H495 C504 0.929 1_454 S
C496 H490 0.930 . S
C496 C497 1.367 1_554 S
C496 C504 1.378 1_554 S
C497 C496 1.367 1_556 S
C497 C505 1.433 . S
C498 H494 0.929 . S
C498 C500 1.378 . S
C498 C502 1.350 . S
C499 C502 1.463 1_655 S
C499 C504 1.350 . S
C499 N507 1.427 . S
C500 H491 0.930 . S
C500 C498 1.378 . S
C500 C501 1.367 . S
C501 C500 1.367 . S
C501 C503 1.433 . S
C502 C498 1.350 . S
C502 C499 1.463 1_455 S
C502 N506 1.427 . S
C503 H493 0.929 . S
C503 C501 1.433 . S
C503 N506 1.384 . S
C504 H495 0.929 1_656 S
C504 C496 1.378 1_556 S
C504 C499 1.350 . S
C505 H492 0.929 . S
C505 C497 1.433 . S
C505 N507 1.384 . S
N506 C502 1.427 . S
N506 C503 1.384 . S
N507 C499 1.427 . S
N507 C505 1.384 . S
H508 C514 0.930 . S
H509 C518 0.930 . S
H510 C523 0.929 . S
H511 C521 0.929 . S
H512 C516 0.929 . S
H513 C522 0.929 . S
C514 H508 0.930 . S
C514 C515 1.367 . S
C514 C522 1.378 . S
C515 C514 1.367 . S
C515 C523 1.433 . S
C516 H512 0.929 . S
C516 C518 1.378 . S
C516 C520 1.350 . S
C517 C520 1.463 . S
C517 C522 1.350 . S
C517 N525 1.427 . S
C518 H509 0.930 . S
C518 C516 1.378 . S
C518 C519 1.367 . S
C519 C518 1.367 . S
C519 C521 1.433 . S
C520 C516 1.350 . S
C520 C517 1.463 . S
C520 N524 1.427 . S
C521 H511 0.929 . S
C521 C519 1.433 . S
C521 N524 1.384 . S
C522 H513 0.929 . S
C522 C514 1.378 . S
C522 C517 1.350 . S
C523 H510 0.929 . S
C523 C515 1.433 . S
C523 N525 1.384 . S
N524 C520 1.427 . S
N524 C521 1.384 . S
N525 C517 1.427 . S
N525 C523 1.384 . S
H526 C532 0.930 . S
H527 C536 0.930 . S
H528 C541 0.929 . S
H529 C539 0.929 . S
H530 C534 0.929 . S
H531 C540 0.929 . S
C532 H526 0.930 . S
C532 C533 1.367 . S
C532 C540 1.378 . S
C533 C532 1.367 . S
C533 C541 1.433 . S
C534 H530 0.929 . S
C534 C536 1.378 . S
C534 C538 1.350 . S
C535 C538 1.463 . S
C535 C540 1.350 . S
C535 N543 1.427 . S
C536 H527 0.930 . S
C536 C534 1.378 . S
C536 C537 1.367 . S
C537 C536 1.367 . S
C537 C539 1.433 . S
C538 C534 1.350 . S
C538 C535 1.463 . S
C538 N542 1.427 . S
C539 H529 0.929 . S
C539 C537 1.433 . S
C539 N542 1.384 . S
C540 H531 0.929 . S
C540 C532 1.378 . S
C540 C535 1.350 . S
C541 H528 0.929 . S
C541 C533 1.433 . S
C541 N543 1.384 . S
N542 C538 1.427 . S
N542 C539 1.384 . S
N543 C535 1.427 . S
N543 C541 1.384 . S
H544 C550 0.930 . S
H545 C554 0.930 . S
H546 C559 0.929 . S
H547 C557 0.929 1_565 S
H548 C552 0.929 . S
H549 C558 0.929 . S
C550 H544 0.930 . S
C550 C551 1.367 . S
C550 C558 1.378 . S
C551 C550 1.367 . S
C551 C559 1.433 . S
C552 H548 0.929 . S
C552 C554 1.378 . S
C552 C556 1.350 . S
C553 C556 1.463 . S
C553 C558 1.350 . S
C553 N561 1.427 . S
C554 H545 0.930 . S
C554 C552 1.378 . S
C554 C555 1.355 1_545 S
C555 C554 1.355 1_565 S
C555 C557 1.432 1_565 S
C556 C552 1.350 . S
C556 C553 1.463 . S
C556 N560 1.427 . S
C557 H547 0.929 1_545 S
C557 C555 1.432 1_545 S
C557 N560 1.384 . S
C558 H549 0.929 . S
C558 C550 1.378 . S
C558 C553 1.350 . S
C559 H546 0.929 . S
C559 C551 1.433 . S
C559 N561 1.384 . S
N560 C556 1.427 . S
N560 C557 1.384 . S
N561 C553 1.427 . S
N561 C559 1.384 . S
H562 C568 0.930 . S
H563 C572 0.930 . S
H564 C577 0.929 . S
H565 C575 0.929 . S
H566 C570 0.929 . S
H567 C576 0.929 . S
C568 H562 0.930 . S
C568 C569 1.367 . S
C568 C576 1.378 . S
C569 C568 1.367 . S
C569 C577 1.433 . S
C570 H566 0.929 . S
C570 C572 1.378 . S
C570 C574 1.350 . S
C571 C574 1.463 . S
C571 C576 1.350 . S
C571 N579 1.427 . S
C572 H563 0.930 . S
C572 C570 1.378 . S
C572 C573 1.367 . S
C573 C572 1.367 . S
C573 C575 1.433 . S
C574 C570 1.350 . S
C574 C571 1.463 . S
C574 N578 1.427 . S
C575 H565 0.929 . S
C575 C573 1.433 . S
C575 N578 1.384 . S
C576 H567 0.929 . S
C576 C568 1.378 . S
C576 C571 1.350 . S
C577 H564 0.929 . S
C577 C569 1.433 . S
C577 N579 1.384 . S
N578 C574 1.427 . S
N578 C575 1.384 . S
N579 C571 1.427 . S
N579 C577 1.384 . S
H580 C586 0.916 1_556 S
H581 C590 0.930 . S
H582 C595 0.929 . S
H583 C593 0.929 . S
H584 C588 0.929 . S
H585 C594 0.929 . S
C586 H580 0.916 1_554 S
C586 C587 1.392 . S
C586 C594 1.368 1_554 S
C587 C586 1.392 . S
C587 C595 1.433 . S
C588 H584 0.929 . S
C588 C590 1.378 . S
C588 C592 1.350 1_545 S
C589 C592 1.463 . S
C589 C594 1.350 1_554 S
C589 N597 1.427 . S
C590 H581 0.930 . S
C590 C588 1.378 . S
C590 C591 1.367 1_554 S
C591 C590 1.367 1_556 S
C591 C593 1.433 . S
C592 C588 1.350 1_565 S
C592 C589 1.463 . S
C592 N596 1.427 1_554 S
C593 H583 0.929 . S
C593 C591 1.433 . S
C593 N596 1.384 1_545 S
C594 H585 0.929 . S
C594 C586 1.368 1_556 S
C594 C589 1.350 1_556 S
C595 H582 0.929 . S
C595 C587 1.433 . S
C595 N597 1.384 . S
N596 C592 1.427 1_556 S
N596 C593 1.384 1_565 S
N597 C589 1.427 . S
N597 C595 1.384 . S
H598 C604 0.930 . S
H599 C608 0.930 . S
H600 C613 0.929 . S
H601 C611 0.929 . S
H602 C606 0.929 . S
H603 C612 0.929 . S
C604 H598 0.930 . S
C604 C605 1.367 . S
C604 C612 1.378 . S
C605 C604 1.367 . S
C605 C613 1.433 . S
C606 H602 0.929 . S
C606 C608 1.378 . S
C606 C610 1.350 . S
C607 C610 1.463 . S
C607 C612 1.350 . S
C607 N615 1.427 . S
C608 H599 0.930 . S
C608 C606 1.378 . S
C608 C609 1.367 . S
C609 C608 1.367 . S
C609 C611 1.433 . S
C610 C606 1.350 . S
C610 C607 1.463 . S
C610 N614 1.427 . S
C611 H601 0.929 . S
C611 C609 1.433 . S
C611 N614 1.384 . S
C612 H603 0.929 . S
C612 C604 1.378 . S
C612 C607 1.350 . S
C613 H600 0.929 . S
C613 C605 1.433 . S
C613 N615 1.384 . S
N614 C610 1.427 . S
N614 C611 1.384 . S
N615 C607 1.427 . S
N615 C613 1.384 . S
H616 C622 0.930 . S
H617 C626 0.930 . S
H618 C631 0.929 . S
H619 C629 0.929 . S
H620 C624 0.929 . S
H621 C630 0.929 . S
C622 H616 0.930 . S
C622 C623 1.367 . S
C622 C630 1.378 . S
C623 C622 1.367 . S
C623 C631 1.433 . S
C624 H620 0.929 . S
C624 C626 1.378 . S
C624 C628 1.350 . S
C625 C628 1.463 . S
C625 C630 1.350 . S
C625 N633 1.427 . S
C626 H617 0.930 . S
C626 C624 1.378 . S
C626 C627 1.367 . S
C627 C626 1.367 . S
C627 C629 1.433 . S
C628 C624 1.350 . S
C628 C625 1.463 . S
C628 N632 1.427 . S
C629 H619 0.929 . S
C629 C627 1.433 . S
C629 N632 1.384 . S
C630 H621 0.929 . S
C630 C622 1.378 . S
C630 C625 1.350 . S
C631 H618 0.929 . S
C631 C623 1.433 . S
C631 N633 1.384 . S
N632 C628 1.427 . S
N632 C629 1.384 . S
N633 C625 1.427 . S
N633 C631 1.384 . S
H634 C640 0.930 . S
H635 C644 0.930 . S
H636 C649 0.929 . S
H637 C647 0.929 . S
H638 C642 0.929 . S
H639 C648 0.929 . S
C640 H634 0.930 . S
C640 C641 1.367 . S
C640 C648 1.378 . S
C641 C640 1.367 . S
C641 C649 1.433 . S
C642 H638 0.929 . S
C642 C644 1.378 . S
C642 C646 1.350 . S
C643 C646 1.463 1_455 S
C643 C648 1.350 . S
C643 N651 1.427 . S
C644 H635 0.930 . S
C644 C642 1.378 . S
C644 C645 1.367 . S
C645 C644 1.367 . S
C645 C647 1.433 . S
C646 C642 1.350 . S
C646 C643 1.463 1_655 S
C646 N650 1.427 . S
C647 H637 0.929 . S
C647 C645 1.433 . S
C647 N650 1.384 . S
C648 H639 0.929 . S
C648 C640 1.378 . S
C648 C643 1.350 . S
C649 H636 0.929 . S
C649 C641 1.433 . S
C649 N651 1.384 . S
N650 C646 1.427 . S
N650 C647 1.384 . S
N651 C643 1.427 . S
N651 C649 1.384 . S
H652 C658 0.930 . S
H653 C662 0.930 . S
H654 C667 0.929 . S
H655 C665 0.929 . S
H656 C660 0.929 . S
H657 C666 0.929 . S
C658 H652 0.930 . S
C658 C659 1.367 . S
C658 C666 1.378 . S
C659 C658 1.367 . S
C659 C667 1.433 . S
C660 H656 0.929 . S
C660 C662 1.378 . S
C660 C664 1.350 . S
C661 C664 1.463 . S
C661 C666 1.350 . S
C661 N669 1.427 . S
C662 H653 0.930 . S
C662 C660 1.378 . S
C662 C663 1.367 . S
C663 C662 1.367 . S
C663 C665 1.433 . S
C664 C660 1.350 . S
C664 C661 1.463 . S
C664 N668 1.427 . S
C665 H655 0.929 . S
C665 C663 1.433 . S
C665 N668 1.384 . S
C666 H657 0.929 . S
C666 C658 1.378 . S
C666 C661 1.350 . S
C667 H654 0.929 . S
C667 C659 1.433 . S
C667 N669 1.384 . S
N668 C664 1.427 . S
N668 C665 1.384 . S
N669 C661 1.427 . S
N669 C667 1.384 . S
H670 C676 0.930 . S
H671 C680 0.930 . S
H672 C685 0.929 . S
H673 C683 0.929 . S
H674 C678 0.929 . S
H675 C684 0.929 . S
C676 H670 0.930 . S
C676 C677 1.367 . S
C676 C684 1.378 . S
C677 C676 1.367 . S
C677 C685 1.433 . S
C678 H674 0.929 . S
C678 C680 1.378 . S
C678 C682 1.350 . S
C679 C682 1.463 . S
C679 C684 1.350 . S
C679 N687 1.427 . S
C680 H671 0.930 . S
C680 C678 1.378 . S
C680 C681 1.367 . S
C681 C680 1.367 . S
C681 C683 1.433 . S
C682 C678 1.350 . S
C682 C679 1.463 . S
C682 N686 1.427 . S
C683 H673 0.929 . S
C683 C681 1.433 . S
C683 N686 1.384 . S
C684 H675 0.929 . S
C684 C676 1.378 . S
C684 C679 1.350 . S
C685 H672 0.929 . S
C685 C677 1.433 . S
C685 N687 1.384 . S
N686 C682 1.427 . S
N686 C683 1.384 . S
N687 C679 1.427 . S
N687 C685 1.384 . S
H688 C694 0.930 . S
H689 C698 0.930 . S
H690 C703 0.929 . S
H691 C701 0.929 . S
H692 C696 0.929 . S
H693 C702 0.929 . S
C694 H688 0.930 . S
C694 C695 1.367 . S
C694 C702 1.378 . S
C695 C694 1.367 . S
C695 C703 1.433 . S
C696 H692 0.929 . S
C696 C698 1.378 . S
C696 C700 1.350 . S
C697 C700 1.463 . S
C697 C702 1.350 . S
C697 N705 1.427 . S
C698 H689 0.930 . S
C698 C696 1.378 . S
C698 C699 1.367 . S
C699 C698 1.367 . S
C699 C701 1.433 . S
C700 C696 1.350 . S
C700 C697 1.463 . S
C700 N704 1.427 . S
C701 H691 0.929 . S
C701 C699 1.433 . S
C701 N704 1.384 . S
C702 H693 0.929 . S
C702 C694 1.378 . S
C702 C697 1.350 . S
C703 H690 0.929 . S
C703 C695 1.433 . S
C703 N705 1.384 . S
N704 C700 1.427 . S
N704 C701 1.384 . S
N705 C697 1.427 . S
N705 C703 1.384 . S
H706 C712 0.930 . S
H707 C716 0.930 . S
H708 C721 0.929 . S
H709 C719 0.929 . S
H710 C714 0.929 . S
H711 C720 0.929 . S
C712 H706 0.930 . S
C712 C713 1.367 . S
C712 C720 1.378 . S
C713 C712 1.367 . S
C713 C721 1.433 . S
C714 H710 0.929 . S
C714 C716 1.378 . S
C714 C718 1.350 . S
C715 C718 1.463 . S
C715 C720 1.350 . S
C715 N723 1.427 . S
C716 H707 0.930 . S
C716 C714 1.378 . S
C716 C717 1.367 . S
C717 C716 1.367 . S
C717 C719 1.433 . S
C718 C714 1.350 . S
C718 C715 1.463 . S
C718 N722 1.427 . S
C719 H709 0.929 . S
C719 C717 1.433 . S
C719 N722 1.384 . S
C720 H711 0.929 . S
C720 C712 1.378 . S
C720 C715 1.350 . S
C721 H708 0.929 . S
C721 C713 1.433 . S
C721 N723 1.384 . S
N722 C718 1.427 . S
N722 C719 1.384 . S
N723 C715 1.427 . S
N723 C721 1.384 . S
H724 C730 0.930 . S
H725 C734 0.930 . S
H726 C739 0.929 . S
H727 C737 0.929 . S
H728 C732 0.929 . S
H729 C738 0.929 . S
C730 H724 0.930 . S
C730 C731 1.367 . S
C730 C738 1.378 . S
C731 C730 1.367 . S
C731 C739 1.433 . S
C732 H728 0.929 . S
C732 C734 1.378 . S
C732 C736 1.350 . S
C733 C736 1.463 . S
C733 C738 1.350 . S
C733 N741 1.427 . S
C734 H725 0.930 . S
C734 C732 1.378 . S
C734 C735 1.367 . S
C735 C734 1.367 . S
C735 C737 1.433 . S
C736 C732 1.350 . S
C736 C733 1.463 . S
C736 N740 1.427 . S
C737 H727 0.929 . S
C737 C735 1.433 . S
C737 N740 1.384 . S
C738 H729 0.929 . S
C738 C730 1.378 . S
C738 C733 1.350 . S
C739 H726 0.929 . S
C739 C731 1.433 . S
C739 N741 1.384 . S
N740 C736 1.427 . S
N740 C737 1.384 . S
N741 C733 1.427 . S
N741 C739 1.384 . S
H742 C748 0.930 . S
H743 C752 0.930 . S
H744 C757 0.929 . S
H745 C755 0.929 . S
H746 C750 0.929 . S
H747 C756 0.929 . S
C748 H742 0.930 . S
C748 C749 1.367 . S
C748 C756 1.378 . S
C749 C748 1.367 . S
C749 C757 1.433 . S
C750 H746 0.929 . S
C750 C752 1.378 . S
C750 C754 1.350 . S
C751 C754 1.463 . S
C751 C756 1.350 . S
C751 N759 1.427 . S
C752 H743 0.930 . S
C752 C750 1.378 . S
C752 C753 1.367 . S
C753 C752 1.367 . S
C753 C755 1.433 . S
C754 C750 1.350 . S
C754 C751 1.463 . S
C754 N758 1.427 . S
C755 H745 0.929 . S
C755 C753 1.433 . S
C755 N758 1.384 . S
C756 H747 0.929 . S
C756 C748 1.378 . S
C756 C751 1.350 . S
C757 H744 0.929 . S
C757 C749 1.433 . S
C757 N759 1.384 . S
N758 C754 1.427 . S
N758 C755 1.384 . S
N759 C751 1.427 . S
N759 C757 1.384 . S
H760 C766 0.930 . S
H761 C770 0.930 . S
H762 C775 0.929 . S
H763 C773 0.929 . S
H764 C768 0.929 . S
H765 C774 0.929 . S
C766 H760 0.930 . S
C766 C767 1.367 . S
C766 C774 1.378 . S
C767 C766 1.367 . S
C767 C775 1.433 . S
C768 H764 0.929 . S
C768 C770 1.378 . S
C768 C772 1.350 . S
C769 C772 1.463 . S
C769 C774 1.350 . S
C769 N777 1.427 . S
C770 H761 0.930 . S
C770 C768 1.378 . S
C770 C771 1.367 . S
C771 C770 1.367 . S
C771 C773 1.433 . S
C772 C768 1.350 . S
C772 C769 1.463 . S
C772 N776 1.427 . S
C773 H763 0.929 . S
C773 C771 1.433 . S
C773 N776 1.384 . S
C774 H765 0.929 . S
C774 C766 1.378 . S
C774 C769 1.350 . S
C775 H762 0.929 . S
C775 C767 1.433 . S
C775 N777 1.384 . S
N776 C772 1.427 . S
N776 C773 1.384 . S
N777 C769 1.427 . S
N777 C775 1.384 . S
H778 C784 0.930 . S
H779 C788 0.930 . S
H780 C793 0.929 . S
H781 C791 0.929 . S
H782 C786 0.929 . S
H783 C792 0.929 . S
C784 H778 0.930 . S
C784 C785 1.367 . S
C784 C792 1.378 . S
C785 C784 1.367 . S
C785 C793 1.433 . S
C786 H782 0.929 . S
C786 C788 1.378 . S
C786 C790 1.350 . S
C787 C790 1.463 . S
C787 C792 1.350 . S
C787 N795 1.427 . S
C788 H779 0.930 . S
C788 C786 1.378 . S
C788 C789 1.367 . S
C789 C788 1.367 . S
C789 C791 1.433 . S
C790 C786 1.350 . S
C790 C787 1.463 . S
C790 N794 1.427 . S
C791 H781 0.929 . S
C791 C789 1.433 . S
C791 N794 1.384 . S
C792 H783 0.929 . S
C792 C784 1.378 . S
C792 C787 1.350 . S
C793 H780 0.929 . S
C793 C785 1.433 . S
C793 N795 1.384 . S
N794 C790 1.427 . S
N794 C791 1.384 . S
N795 C787 1.427 . S
N795 C793 1.384 . S
H796 C802 0.930 . S
H797 C806 0.930 . S
H798 C811 0.929 . S
H799 C809 0.929 . S
H800 C804 0.929 . S
H801 C810 0.929 . S
C802 H796 0.930 . S
C802 C803 1.367 . S
C802 C810 1.378 . S
C803 C802 1.367 . S
C803 C811 1.433 . S
C804 H800 0.929 . S
C804 C806 1.378 . S
C804 C808 1.350 . S
C805 C808 1.463 . S
C805 C810 1.350 . S
C805 N813 1.427 . S
C806 H797 0.930 . S
C806 C804 1.378 . S
C806 C807 1.367 . S
C807 C806 1.367 . S
C807 C809 1.433 . S
C808 C804 1.350 . S
C808 C805 1.463 . S
C808 N812 1.427 . S
C809 H799 0.929 . S
C809 C807 1.433 . S
C809 N812 1.384 . S
C810 H801 0.929 . S
C810 C802 1.378 . S
C810 C805 1.350 . S
C811 H798 0.929 . S
C811 C803 1.433 . S
C811 N813 1.384 . S
N812 C808 1.427 . S
N812 C809 1.384 . S
N813 C805 1.427 . S
N813 C811 1.384 . S
H814 C820 0.930 . S
H815 C824 0.930 . S
H816 C829 0.929 . S
H817 C827 0.929 . S
H818 C822 0.929 . S
H819 C828 0.929 . S
C820 H814 0.930 . S
C820 C821 1.367 . S
C820 C828 1.378 . S
C821 C820 1.367 . S
C821 C829 1.433 . S
C822 H818 0.929 . S
C822 C824 1.378 . S
C822 C826 1.350 . S
C823 C826 1.463 1_554 S
C823 C828 1.350 . S
C823 N831 1.427 . S
C824 H815 0.930 . S
C824 C822 1.378 . S
C824 C825 1.367 . S
C825 C824 1.367 . S
C825 C827 1.433 . S
C826 C822 1.350 . S
C826 C823 1.463 1_556 S
C826 N830 1.427 . S
C827 H817 0.929 . S
C827 C825 1.433 . S
C827 N830 1.384 . S
C828 H819 0.929 . S
C828 C820 1.378 . S
C828 C823 1.350 . S
C829 H816 0.929 . S
C829 C821 1.433 . S
C829 N831 1.384 . S
N830 C826 1.427 . S
N830 C827 1.384 . S
N831 C823 1.427 . S
N831 C829 1.384 . S
C407 C7 1.585 . S
C411 C104 1.518 1_565 S
C425 C37 1.529 . S
C429 C143 1.419 . S
C443 C54 1.719 . S
C447 C182 1.596 . S
C465 C206 1.481 . S
C461 C87 1.499 . S
C483 C245 1.478 . S
C479 C30 1.535 . S
C497 C51 1.529 . S
C501 C284 1.512 . S
C515 C84 1.772 . S
C519 C338 1.640 . S
C533 C10 1.480 1_556 S
C537 C362 1.375 . S
C551 C59 1.595 . S
C555 C377 1.557 . S
C573 C260 1.372 . S
C569 C74 1.487 . S
C591 C299 1.641 . S
C587 C18 1.771 . S
C605 C32 1.510 . S
C609 C323 1.482 . S
C627 C128 1.522 . S
C623 C73 1.594 . S
C641 C15 1.516 . S
C645 C167 1.491 . S
C663 C221 1.680 . S
C659 C43 1.781 . S
C681 C89 1.377 . S
C677 C62 1.487 . S
C699 C343 1.537 . S
C695 C21 1.587 . S
C717 C382 1.339 . S
C713 C29 1.356 . S
C731 C52 1.323 . S
C735 C265 1.294 . S
C753 C304 1.502 . S
C749 C81 1.564 . S
C771 C187 1.501 . S
C767 C40 1.535 . S
C785 C65 1.553 . S
C789 C226 1.499 . S
C807 C109 1.298 . S
C803 C76 1.337 . S
C825 C148 1.335 . S
C821 C8 1.373 . S
