# Generated by pormake.
# Topology tsx, (6,3)-cn, num edge types: 1
# Building blocks:
#     Node 0, Type 0, BuildingBlock: MIDCAF_clean_sbu_0, # of connection points: 6
#     Node 1, Type 0, BuildingBlock: MIDCAF_clean_sbu_0, # of connection points: 6
#     Node 2, Type 1, BuildingBlock: INOVEN_clean_linker_0, # of connection points: 3
#     Node 3, Type 1, BuildingBlock: INOVEN_clean_linker_0, # of connection points: 3
#     Node 4, Type 1, BuildingBlock: INOVEN_clean_linker_0, # of connection points: 3
#     Node 5, Type 1, BuildingBlock: INOVEN_clean_linker_0, # of connection points: 3
#     Edge 6, Type (0, 1), BuildingBlock: MIFKUJ_clean_linker_0, # of connection points: 2
#     Edge 7, Type (0, 1), BuildingBlock: MIFKUJ_clean_linker_0, # of connection points: 2
#     Edge 8, Type (0, 1), BuildingBlock: MIFKUJ_clean_linker_0, # of connection points: 2
#     Edge 9, Type (0, 1), BuildingBlock: MIFKUJ_clean_linker_0, # of connection points: 2
#     Edge 10, Type (0, 1), BuildingBlock: MIFKUJ_clean_linker_0, # of connection points: 2
#     Edge 11, Type (0, 1), BuildingBlock: MIFKUJ_clean_linker_0, # of connection points: 2
#     Edge 12, Type (0, 1), BuildingBlock: MIFKUJ_clean_linker_0, # of connection points: 2
#     Edge 13, Type (0, 1), BuildingBlock: MIFKUJ_clean_linker_0, # of connection points: 2
#     Edge 14, Type (0, 1), BuildingBlock: MIFKUJ_clean_linker_0, # of connection points: 2
#     Edge 15, Type (0, 1), BuildingBlock: MIFKUJ_clean_linker_0, # of connection points: 2
#     Edge 16, Type (0, 1), BuildingBlock: MIFKUJ_clean_linker_0, # of connection points: 2
#     Edge 17, Type (0, 1), BuildingBlock: MIFKUJ_clean_linker_0, # of connection points: 2
# Relax obj value: 0.077
# Max RMSD: 0.149
# Mean RMSD: 0.107
data_MOF--net-tsx--node1-MIDCAF_clean_sbu_0--node2-INOVEN_clean_linker_0--edge1-MIFKUJ_clean_linker_0
_symmetry_space_group_name_H-M    P1
_symmetry_Int_Tables_number       1
_symmetry_cell_setting            triclinic
loop_
_symmetry_equiv_pos_as_xyz
'x, y, z'
_cell_length_a     26.078391
_cell_length_b     26.74038
_cell_length_c     46.199733
_cell_angle_alpha  90.524844
_cell_angle_beta   102.70873
_cell_angle_gamma 90.061101
loop_
_atom_site_label
_atom_site_type_symbol
_atom_site_fract_x
_atom_site_fract_y
_atom_site_fract_z
_atom_type_partial_charge
Zn0 Zn 0.96434 0.02352 0.96739 0.0
Zn1 Zn 0.13408 0.03142 0.0541 0.0
Zn2 Zn 0.05048 0.02824 0.01097 0.0
C3 C 0.10522 0.13038 0.0423 0.0
C4 C 0.16608 0.98583 0.00725 0.0
O5 O 0.99007 0.98088 0.02525 0.0
O6 O 0.9203 0.98268 0.98799 0.0
C7 C 0.98226 0.12474 0.98292 0.0
O8 O 0.07019 0.10864 0.02197 0.0
O9 O 0.13693 0.1045 0.06077 0.0
O10 O 0.18515 1.002 0.03311 0.0
O11 O 0.11681 0.99189 0.99553 0.0
O12 O 0.95207 0.09682 0.96446 0.0
O13 O 0.02114 0.10577 0.00177 0.0
O14 O 0.07266 0.99385 0.97168 0.0
O15 O 0.99772 0.98912 0.9381 0.0
C16 C 0.04656 0.98128 0.94557 0.0
O17 O 0.03277 0.98792 0.04952 0.0
O18 O 0.10839 0.98888 0.08254 0.0
C19 C 0.94246 0.96736 0.01342 0.0
C20 C 0.06072 0.97597 0.07514 0.0
Zn21 Zn 0.61967 0.5243 0.55128 0.0
Zn22 Zn 0.44674 0.51878 0.46682 0.0
Zn23 Zn 0.53297 0.52238 0.50937 0.0
C24 C 0.52541 0.47489 0.44349 0.0
C25 C 0.46673 0.61985 0.48157 0.0
O26 O 0.51612 0.48474 0.54879 0.0
O27 O 0.59317 0.48443 0.58057 0.0
C28 C 0.64596 0.475 0.50396 0.0
O29 O 0.55237 0.48689 0.46952 0.0
O30 O 0.47672 0.48363 0.43653 0.0
O31 O 0.43568 0.59199 0.46354 0.0
O32 O 0.50558 0.60063 0.50029 0.0
O33 O 0.66761 0.49145 0.5294 0.0
O34 O 0.59666 0.48299 0.49324 0.0
O35 O 0.55549 0.60202 0.51963 0.0
O36 O 0.62489 0.59767 0.55697 0.0
C37 C 0.59233 0.62357 0.53897 0.0
O38 O 0.47255 0.47695 0.52495 0.0
O39 O 0.4025 0.47939 0.48795 0.0
C40 C 0.54497 0.47319 0.57424 0.0
C41 C 0.42457 0.46423 0.51343 0.0
H42 H 0.08197 0.03138 0.45108 0.0
H43 H 0.1076 0.94437 0.37661 0.0
H44 H 0.97518 0.04321 0.36613 0.0
N45 N 0.99739 0.07959 0.42157 0.0
N46 N 0.97259 0.11207 0.40493 0.0
C47 C 0.06992 0.01982 0.42803 0.0
C48 C 0.10023 0.98508 0.41602 0.0
C49 C 0.02562 0.04186 0.40987 0.0
C50 C 0.01017 0.02714 0.37993 0.0
C51 C 0.03908 0.99159 0.36776 0.0
C52 C 0.08425 0.97099 0.38596 0.0
H53 H 0.99068 0.01101 0.56676 0.0
H54 H 0.97474 0.93527 0.64592 0.0
H55 H 0.11589 0.01783 0.64448 0.0
N56 N 0.08359 0.05328 0.58966 0.0
N57 N 0.1309 0.06304 0.60015 0.0
C58 C 0.0065 1.00091 0.58964 0.0
C59 C 0.97819 0.96869 0.60435 0.0
C60 C 0.0561 0.01896 0.60418 0.0
C61 C 0.07706 0.00485 0.63369 0.0
C62 C 0.048 0.9755 0.6495 0.0
C63 C 0.99856 0.95735 0.63435 0.0
H64 H 0.63734 0.56885 0.95652 0.0
H65 H 0.65249 0.48036 0.88053 0.0
H66 H 0.53112 0.59129 0.87224 0.0
N67 N 0.55452 0.62221 0.92864 0.0
N68 N 0.52934 0.65566 0.91295 0.0
C69 C 0.62442 0.55956 0.93317 0.0
C70 C 0.64987 0.52154 0.92047 0.0
C71 C 0.58191 0.58529 0.91568 0.0
C72 C 0.56499 0.57257 0.88548 0.0
C73 C 0.58987 0.53469 0.87251 0.0
C74 C 0.63229 0.50924 0.89027 0.0
H75 H 0.48616 0.546 0.06811 0.0
H76 H 0.46003 0.46762 0.14438 0.0
H77 H 0.61011 0.53604 0.14621 0.0
N78 N 0.58236 0.57895 0.09295 0.0
N79 N 0.62968 0.58643 0.10468 0.0
C80 C 0.50042 0.53284 0.09055 0.0
C81 C 0.46763 0.50378 0.10423 0.0
C82 C 0.55143 0.54556 0.10594 0.0
C83 C 0.57015 0.52759 0.13488 0.0
C84 C 0.53754 0.50001 0.14943 0.0
C85 C 0.48614 0.48858 0.13375 0.0
H86 H 0.13797 0.18863 0.09091 0.0
H87 H 0.17928 0.27068 0.0925 0.0
H88 H 0.13658 0.27783 0.99707 0.0
H89 H 0.09512 0.19472 0.99527 0.0
H90 H 0.26355 0.26829 0.05512 0.0
H91 H 0.13847 0.43407 -0.00065 0.0
H92 H 0.04706 0.46444 0.98909 0.0
H93 H 0.01726 0.37963 0.06213 0.0
H94 H 0.10894 0.35045 0.07362 0.0
H95 H 0.44182 0.45937 0.04946 0.0
H96 H 0.36072 0.4134 0.0282 0.0
H97 H 0.29395 0.46197 0.10117 0.0
H98 H 0.37465 0.50834 0.12232 0.0
H99 H 0.21647 0.44811 0.047 0.0
H100 H 0.36187 0.36166 0.11078 0.0
H101 H 0.45432 0.33478 0.12545 0.0
H102 H 0.44021 0.25888 0.04172 0.0
H103 H 0.34785 0.2862 0.02635 0.0
C104 C 0.13558 0.20839 0.07028 0.0
C105 C 0.11383 0.1851 0.04296 0.0
C106 C 0.15913 0.25534 0.07124 0.0
C107 C 0.16114 0.28019 0.04493 0.0
C108 C 0.13499 0.25938 0.01763 0.0
C109 C 0.11124 0.212 0.01664 0.0
C110 C 0.19989 0.32118 0.04639 0.0
C111 C 0.25309 0.30757 0.05281 0.0
C112 C 0.18615 0.37239 0.04371 0.0
C113 C 0.13053 0.38917 0.03696 0.0
C114 C 0.1125 0.422 0.0133 0.0
C115 C 0.06071 0.43937 0.00742 0.0
C116 C 0.02636 0.42398 0.02495 0.0
C117 C 0.04385 0.3914 0.0485 0.0
C118 C 0.09578 0.37438 0.05469 0.0
C119 C 0.40911 0.46179 0.06036 0.0
C120 C 0.41484 0.48673 0.08779 0.0
C121 C 0.3628 0.43548 0.04821 0.0
C122 C 0.32151 0.43379 0.06329 0.0
C123 C 0.3252 0.4628 0.08912 0.0
C124 C 0.37155 0.48887 0.10134 0.0
C125 C 0.27983 0.39491 0.05568 0.0
C126 C 0.22654 0.40873 0.04832 0.0
C127 C 0.29306 0.34359 0.0579 0.0
C128 C 0.34825 0.32647 0.06728 0.0
C129 C 0.37863 0.33955 0.09542 0.0
C130 C 0.43098 0.32423 0.10387 0.0
C131 C 0.45317 0.29525 0.0845 0.0
C132 C 0.42299 0.28143 0.05667 0.0
C133 C 0.37066 0.29685 0.04807 0.0
H134 H 0.4937 0.28339 0.09108 0.0
H135 H 0.98614 0.43709 0.02018 0.0
H136 H 0.14094 0.90545 0.9696 0.0
H137 H 0.20244 0.85078 0.95116 0.0
H138 H 0.33153 0.94585 0.99354 0.0
H139 H 0.27034 1.00052 0.01176 0.0
H140 H 0.27343 0.85959 0.91743 0.0
H141 H 0.4349 0.87309 0.02578 0.0
H142 H 0.4418 0.88913 0.07919 0.0
H143 H 0.28337 0.83732 0.0713 0.0
H144 H 0.2758 0.82028 0.01799 0.0
H145 H 0.49858 0.74268 0.88866 0.0
H146 H 0.43613 0.80108 0.9031 0.0
H147 H 0.42023 0.70262 0.97425 0.0
H148 H 0.48516 0.646 0.96074 0.0
H149 H 0.41832 0.7888 0.99383 0.0
H150 H 0.32541 0.71297 0.90457 0.0
H151 H 0.30226 0.68492 0.85233 0.0
H152 H 0.30054 0.83727 0.8236 0.0
H153 H 0.32455 0.86621 0.87566 0.0
C154 C 0.18221 0.91541 0.97418 0.0
C155 C 0.20087 0.95732 0.99194 0.0
C156 C 0.21737 0.88399 0.96387 0.0
C157 C 0.27169 0.89373 0.97151 0.0
C158 C 0.28992 0.93709 0.98788 0.0
C159 C 0.25491 0.96838 0.99815 0.0
C160 C 0.30961 0.85736 0.9638 0.0
C161 C 0.30492 0.84364 0.93403 0.0
C162 C 0.35023 0.83626 0.98569 0.0
C163 C 0.35464 0.84598 0.01782 0.0
C164 C 0.40161 0.86499 0.03547 0.0
C165 C 0.40563 0.87425 0.06573 0.0
C166 C 0.36299 0.86443 0.07861 0.0
C167 C 0.3163 0.84512 0.06128 0.0
C168 C 0.31211 0.83571 0.03104 0.0
C169 C 0.4822 0.73424 0.90767 0.0
C170 C 0.49688 0.69049 0.92375 0.0
C171 C 0.44599 0.76713 0.91568 0.0
C172 C 0.42226 0.75591 0.93938 0.0
C173 C 0.4378 0.71232 0.95587 0.0
C174 C 0.47503 0.67999 0.94824 0.0
C175 C 0.38183 0.78981 0.94715 0.0
C176 C 0.38647 0.8038 0.97702 0.0
C177 C 0.33938 0.80905 0.92545 0.0
C178 C 0.32765 0.79169 0.89406 0.0
C179 C 0.32093 0.74045 0.88712 0.0
C180 C 0.30744 0.7244 0.85753 0.0
C181 C 0.30016 0.75927 0.83466 0.0
C182 C 0.30641 0.81027 0.84133 0.0
C183 C 0.32003 0.82652 0.87088 0.0
H184 H 0.2895 0.74677 0.81177 0.0
H185 H 0.36617 0.87166 0.10203 0.0
H186 H 0.83704 0.96204 0.00829 0.0
H187 H 0.7874 0.89742 0.02718 0.0
H188 H 0.93227 0.82655 0.07046 0.0
H189 H 0.9822 0.89018 0.05024 0.0
H190 H 0.8652 0.75932 0.04098 0.0
H191 H 0.85682 0.89107 0.10815 0.0
H192 H 0.8413 0.97497 0.12666 0.0
H193 H 0.67691 0.96208 0.08656 0.0
H194 H 0.6913 0.87808 0.06753 0.0
H195 H 0.73268 0.59449 0.12206 0.0
H196 H 0.78915 0.65995 0.10865 0.0
H197 H 0.65375 0.72675 0.05162 0.0
H198 H 0.59736 0.66089 0.06482 0.0
H199 H 0.72011 0.79514 0.09177 0.0
H200 H 0.73354 0.66597 0.02033 0.0
H201 H 0.75018 0.57995 0.00517 0.0
H202 H 0.90858 0.58879 0.05662 0.0
H203 H 0.89254 0.67459 0.07261 0.0
C204 C 0.85838 0.93304 0.02214 0.0
C205 C 0.91356 0.93173 0.02829 0.0
C206 C 0.82995 0.89621 0.03304 0.0
C207 C 0.85605 0.85737 0.05053 0.0
C208 C 0.91129 0.85629 0.05712 0.0
C209 C 0.93982 0.8931 0.04598 0.0
C210 C 0.82518 0.81673 0.06046 0.0
C211 C 0.8341 0.76716 0.05256 0.0
C212 C 0.78395 0.82702 0.07514 0.0
C213 C 0.77521 0.87804 0.08626 0.0
C214 C 0.81735 0.90612 0.10302 0.0
C215 C 0.80876 0.95374 0.11368 0.0
C216 C 0.75819 0.97389 0.10775 0.0
C217 C 0.71607 0.9464 0.09116 0.0
C218 C 0.72441 0.89867 0.0805 0.0
C219 C 0.71535 0.62284 0.10634 0.0
C220 C 0.66116 0.62244 0.09424 0.0
C221 C 0.74742 0.66016 0.09877 0.0
C222 C 0.7256 0.69808 0.07911 0.0
C223 C 0.67127 0.69776 0.06685 0.0
C224 C 0.63922 0.65999 0.07419 0.0
C225 C 0.75961 0.73834 0.07172 0.0
C226 C 0.7513 0.78766 0.08021 0.0
C227 C 0.80172 0.72787 0.05788 0.0
C228 C 0.81167 0.67655 0.04792 0.0
C229 C 0.7718 0.64944 0.02861 0.0
C230 C 0.78114 0.60074 0.01983 0.0
C231 C 0.83039 0.57888 0.02996 0.0
C232 C 0.87043 0.60576 0.04882 0.0
C233 C 0.86124 0.65443 0.05775 0.0
H234 H 0.83757 0.54116 0.02319 0.0
H235 H 0.75162 0.01079 0.11602 0.0
H236 H 0.93458 0.18091 0.9363 0.0
H237 H 0.9 0.26521 0.93745 0.0
H238 H 0.96536 0.2751 0.03163 0.0
H239 H 0.99891 0.18939 0.03069 0.0
H240 H 0.8653 0.30183 0.01971 0.0
H241 H 0.0118 0.34302 0.98342 0.0
H242 H 0.07914 0.3417 0.95373 0.0
H243 H 0.96315 0.38045 0.87595 0.0
H244 H 0.8947 0.38159 0.90506 0.0
H245 H 0.74801 0.55643 0.94643 0.0
H246 H 0.82511 0.50619 0.9696 0.0
H247 H 0.72858 0.37322 0.95666 0.0
H248 H 0.65236 0.42301 0.93323 0.0
H249 H 0.8698 0.43052 0.94365 0.0
H250 H 0.76697 0.29465 0.01244 0.0
H251 H 0.70283 0.30072 0.04433 0.0
H252 H 0.74109 0.45602 0.06115 0.0
H253 H 0.80609 0.45073 0.02978 0.0
C254 C 0.94248 0.20131 0.95719 0.0
C255 C 0.96981 0.17867 0.98336 0.0
C256 C 0.92293 0.2497 0.9578 0.0
C257 C 0.93038 0.27679 0.98458 0.0
C258 C 0.95932 0.25499 0.01069 0.0
C259 C 0.97899 0.20628 0.01007 0.0
C260 C 0.90326 0.32557 0.98518 0.0
C261 C 0.86683 0.33028 0.00334 0.0
C262 C 0.90672 0.36381 0.96462 0.0
C263 C 0.94784 0.36295 0.9467 0.0
C264 C 1.00038 0.35135 0.96001 0.0
C265 C 0.03888 0.35053 0.94323 0.0
C266 C 0.02548 0.36114 0.91298 0.0
C267 C 0.97352 0.37249 0.89944 0.0
C268 C 0.93484 0.37341 0.91614 0.0
C269 C 0.74335 0.51661 0.9492 0.0
C270 C 0.69444 0.49341 0.93833 0.0
C271 C 0.7873 0.48799 0.96227 0.0
C272 C 0.78254 0.43602 0.96518 0.0
C273 C 0.73311 0.41333 0.95514 0.0
C274 C 0.68961 0.44169 0.94172 0.0
C275 C 0.8292 0.40398 0.9763 0.0
C276 C 0.86937 0.4026 0.96045 0.0
C277 C 0.82989 0.36923 -0.00073 0.0
C278 C 0.79137 0.37229 0.01862 0.0
C279 C 0.76206 0.33 0.02312 0.0
C280 C 0.72544 0.33333 0.04107 0.0
C281 C 0.71784 0.37873 0.05473 0.0
C282 C 0.74692 0.42089 0.05051 0.0
C283 C 0.78361 0.41776 0.03261 0.0
H284 H 0.68943 0.38123 0.06859 0.0
H285 H 0.05534 0.36045 0.9 0.0
H286 H 0.62782 0.68497 0.58601 0.0
H287 H 0.67086 0.76564 0.58494 0.0
H288 H 0.6269 0.76429 0.48928 0.0
H289 H 0.58304 0.68318 0.49035 0.0
H290 H 0.7317 0.7705 0.50912 0.0
H291 H 0.58739 0.86045 0.52601 0.0
H292 H 0.51172 0.88077 0.54779 0.0
H293 H 0.61511 0.90278 0.63313 0.0
H294 H 0.6914 0.8817 0.61202 0.0
H295 H 0.89084 0.01423 0.57055 0.0
H296 H 0.80625 0.9744 0.54737 0.0
H297 H 0.86832 0.8312 0.58002 0.0
H298 H 0.95201 0.87051 0.60308 0.0
H299 H 0.73782 0.91879 0.57516 0.0
H300 H 0.82679 0.74426 0.52774 0.0
H301 H 0.90069 0.72493 0.5042 0.0
H302 H 0.90206 0.87667 0.47478 0.0
H303 H 0.82763 0.89677 0.49772 0.0
C304 C 0.62546 0.70285 0.56479 0.0
C305 C 0.6024 0.67782 0.53827 0.0
C306 C 0.65 0.74908 0.56418 0.0
C307 C 0.65236 0.77104 0.53701 0.0
C308 C 0.6255 0.74806 0.51048 0.0
C309 C 0.60015 0.70193 0.51112 0.0
C310 C 0.69038 0.81247 0.53681 0.0
C311 C 0.7325 0.80345 0.52308 0.0
C312 C 0.69088 0.85614 0.55443 0.0
C313 C 0.64525 0.86939 0.56737 0.0
C314 C 0.59404 0.86934 0.54946 0.0
C315 C 0.55099 0.88102 0.5617 0.0
C316 C 0.55861 0.89308 0.59183 0.0
C317 C 0.60929 0.89351 0.60978 0.0
C318 C 0.65249 0.88179 0.59766 0.0
C319 C 0.88636 0.9742 0.57245 0.0
C320 C 0.92786 0.94541 0.58866 0.0
C321 C 0.83807 0.95159 0.55938 0.0
C322 C 0.83113 0.89981 0.56182 0.0
C323 C 0.87292 0.87113 0.5776 0.0
C324 C 0.92064 0.89365 0.5909 0.0
C325 C 0.78019 0.87483 0.54896 0.0
C326 C 0.73602 0.88679 0.56038 0.0
C327 C 0.77735 0.83416 0.52886 0.0
C328 C 0.82166 0.82206 0.51457 0.0
C329 C 0.84256 0.77344 0.51606 0.0
C330 C 0.88463 0.76236 0.50286 0.0
C331 C 0.9061 0.79956 0.48804 0.0
C332 C 0.88547 0.84791 0.48633 0.0
C333 C 0.84338 0.85918 0.49946 0.0
H334 H 0.9387 0.79092 0.47786 0.0
H335 H 0.52523 0.9021 0.60127 0.0
H336 H 0.61324 0.394 0.46816 0.0
H337 H 0.66884 0.33443 0.4487 0.0
H338 H 0.80543 0.42451 0.48554 0.0
H339 H 0.75006 0.48381 0.50516 0.0
H340 H 0.73383 0.33535 0.41227 0.0
H341 H 0.90872 0.34854 0.5137 0.0
H342 H 0.92554 0.37025 0.56699 0.0
H343 H 0.76704 0.32969 0.5691 0.0
H344 H 0.74955 0.30701 0.51597 0.0
H345 H 0.94286 0.19701 0.37776 0.0
H346 H 0.88694 0.2616 0.39254 0.0
H347 H 0.87288 0.17303 0.46818 0.0
H348 H 0.93155 0.11014 0.45422 0.0
H349 H 0.88165 0.26149 0.48537 0.0
H350 H 0.77106 0.18459 0.40079 0.0
H351 H 0.73989 0.1538 0.34944 0.0
H352 H 0.74913 0.3025 0.31664 0.0
H353 H 0.78112 0.33408 0.36776 0.0
C354 C 0.6549 0.40168 0.47142 0.0
C355 C 0.67738 0.44351 0.48806 0.0
C356 C 0.6867 0.36751 0.46046 0.0
C357 C 0.74147 0.37448 0.46623 0.0
C358 C 0.76346 0.4178 0.48139 0.0
C359 C 0.73178 0.45174 0.49245 0.0
C360 C 0.77576 0.33524 0.45775 0.0
C361 C 0.76593 0.3188 0.42819 0.0
C362 C 0.81743 0.31354 0.47873 0.0
C363 C 0.82769 0.32665 0.51077 0.0
C364 C 0.87752 0.34412 0.52557 0.0
C365 C 0.88717 0.3566 0.55574 0.0
C366 C 0.84732 0.35154 0.57139 0.0
C367 C 0.79781 0.33379 0.55693 0.0
C368 C 0.788 0.32116 0.52678 0.0
C369 C 0.92802 0.19188 0.39766 0.0
C370 C 0.94161 0.14921 0.41494 0.0
C371 C 0.8956 0.22838 0.40594 0.0
C372 C 0.87456 0.22192 0.43117 0.0
C373 C 0.88852 0.17907 0.44862 0.0
C374 C 0.92206 0.14313 0.4407 0.0
C375 C 0.83901 0.26024 0.43972 0.0
C376 C 0.84911 0.2772 0.46931 0.0
C377 C 0.796 0.28076 0.41898 0.0
C378 C 0.77925 0.26155 0.3881 0.0
C379 C 0.7672 0.2106 0.3826 0.0
C380 C 0.7492 0.19304 0.35354 0.0
C381 C 0.74276 0.22613 0.32979 0.0
C382 C 0.75439 0.27686 0.33504 0.0
C383 C 0.77251 0.2946 0.36406 0.0
H384 H 0.72857 0.21249 0.30732 0.0
H385 H 0.85485 0.36127 0.59474 0.0
H386 H 0.46461 0.38975 0.55237 0.0
H387 H 0.41523 0.32254 0.56966 0.0
H388 H 0.26987 0.38774 0.52236 0.0
H389 H 0.3188 0.45588 0.50622 0.0
H390 H 0.25592 0.35118 0.57221 0.0
H391 H 0.3318 0.29222 0.4928 0.0
H392 H 0.40213 0.27318 0.46645 0.0
H393 H 0.47421 0.17433 0.53631 0.0
H394 H 0.4048 0.1935 0.56337 0.0
H395 H 0.09241 0.13459 0.55931 0.0
H396 H 0.1435 0.20394 0.54518 0.0
H397 H 0.28448 0.14534 0.60149 0.0
H398 H 0.23333 0.07627 0.61565 0.0
H399 H 0.30076 0.17794 0.54758 0.0
H400 H 0.2214 0.23867 0.62638 0.0
H401 H 0.14704 0.25606 0.64995 0.0
H402 H 0.07699 0.35025 0.5772 0.0
H403 H 0.15066 0.33289 0.55302 0.0
C404 C 0.42211 0.39072 0.5466 0.0
C405 C 0.39561 0.42833 0.52814 0.0
C406 C 0.39391 0.35181 0.55605 0.0
C407 C 0.33882 0.34949 0.54681 0.0
C408 C 0.31229 0.3885 0.5297 0.0
C409 C 0.34036 0.42741 0.52042 0.0
C410 C 0.30867 0.30542 0.55348 0.0
C411 C 0.26554 0.31337 0.56657 0.0
C412 C 0.32128 0.2559 0.54634 0.0
C413 C 0.36348 0.24485 0.53031 0.0
C414 C 0.36297 0.26686 0.50271 0.0
C415 C 0.40262 0.25597 0.48762 0.0
C416 C 0.44272 0.22271 0.49975 0.0
C417 C 0.44321 0.20021 0.52699 0.0
C418 C 0.40375 0.2111 0.54222 0.0
C419 C 0.1344 0.13617 0.56822 0.0
C420 C 0.1594 0.10015 0.58849 0.0
C421 C 0.16347 0.17589 0.56032 0.0
C422 C 0.21771 0.18002 0.57254 0.0
C423 C 0.24274 0.14289 0.59181 0.0
C424 C 0.21368 0.10355 0.59985 0.0
C425 C 0.24831 0.22387 0.56628 0.0
C426 C 0.29142 0.21581 0.55326 0.0
C427 C 0.23532 0.27329 0.57313 0.0
C428 C 0.19127 0.28409 0.58777 0.0
C429 C 0.18995 0.2628 0.61532 0.0
C430 C 0.14797 0.27271 0.6288 0.0
C431 C 0.10725 0.30414 0.61504 0.0
C432 C 0.10852 0.32587 0.58781 0.0
C433 C 0.1504 0.31604 0.57423 0.0
H434 H 0.07477 0.31175 0.62551 0.0
H435 H 0.47332 0.21425 0.488 0.0
H436 H 0.48274 0.68371 0.52978 0.0
H437 H 0.43732 0.76374 0.53227 0.0
H438 H 0.37356 0.75542 0.43801 0.0
H439 H 0.4187 0.67636 0.43531 0.0
H440 H 0.41656 0.86494 0.49085 0.0
H441 H 0.2438 0.73812 0.43942 0.0
H442 H 0.21948 0.64882 0.43878 0.0
H443 H 0.31344 0.63241 0.52697 0.0
H444 H 0.33747 0.72179 0.52831 0.0
H445 H 0.19619 0.97988 0.40205 0.0
H446 H 0.27355 0.93447 0.4281 0.0
H447 H 0.19295 0.89656 0.49712 0.0
H448 H 0.1149 0.94196 0.47081 0.0
H449 H 0.22876 0.8154 0.47472 0.0
H450 H 0.30331 0.96822 0.51397 0.0
H451 H 0.32957 0.05691 0.51516 0.0
H452 H 0.43171 0.02461 0.45615 0.0
H453 H 0.4055 0.93583 0.4542 0.0
C454 C 0.46095 0.70014 0.50943 0.0
C455 C 0.45371 0.67359 0.48239 0.0
C456 C 0.43499 0.74578 0.5109 0.0
C457 C 0.40171 0.76502 0.48535 0.0
C458 C 0.399 0.74106 0.45796 0.0
C459 C 0.42466 0.69578 0.45648 0.0
C460 C 0.36199 0.80372 0.48729 0.0
C461 C 0.37551 0.85452 0.48775 0.0
C462 C 0.3087 0.78979 0.48404 0.0
C463 C 0.2927 0.73651 0.48387 0.0
C464 C 0.25892 0.71552 0.45875 0.0
C465 C 0.24524 0.66489 0.45825 0.0
C466 C 0.26501 0.63493 0.48279 0.0
C467 C 0.29827 0.65561 0.50795 0.0
C468 C 0.31195 0.70623 0.50858 0.0
C469 C 0.19527 0.96253 0.42303 0.0
C470 C 0.14935 0.96389 0.43424 0.0
C471 C 0.23975 0.93706 0.4381 0.0
C472 C 0.23931 0.91231 0.46471 0.0
C473 C 0.1943 0.91562 0.47671 0.0
C474 C 0.1498 0.94157 0.46172 0.0
C475 C 0.28265 0.87729 0.4772 0.0
C476 C 0.26974 0.82664 0.47897 0.0
C477 C 0.33634 0.89174 0.48297 0.0
C478 C 0.35218 0.94524 0.48384 0.0
C479 C 0.33105 0.98004 0.50103 0.0
C480 C 0.346 0.03036 0.50189 0.0
C481 C 0.38225 0.0464 0.48572 0.0
C482 C 0.40365 0.01213 0.46868 0.0
C483 C 0.38882 0.96175 0.46773 0.0
H484 H 0.39381 0.08537 0.48644 0.0
H485 H 0.25451 0.59571 0.48233 0.0
H486 H 0.10628 0.90564 0.11385 0.0
H487 H 0.08246 0.88528 0.16056 0.0
H488 H 0.94078 0.97201 0.13508 0.0
H489 H 0.96451 0.99261 0.08796 0.0
H490 H 0.07323 0.98201 0.19103 0.0
H491 H 0.86398 0.90164 0.19127 0.0
H492 H 0.8011 0.83932 0.1643 0.0
H493 H 0.92515 0.76679 0.13262 0.0
H494 H 0.98923 0.8271 0.16042 0.0
H495 H 1.00476 0.05423 0.32116 0.0
H496 H 0.98838 0.03413 0.26835 0.0
H497 H 0.02428 0.87929 0.28854 0.0
H498 H 0.03926 0.89879 0.34173 0.0
H499 H 0.94185 0.89441 0.23548 0.0
H500 H 0.11968 0.9448 0.27968 0.0
H501 H 0.18719 0.99979 0.30984 0.0
H502 H 0.13284 0.12237 0.25181 0.0
H503 H 0.06437 0.06825 0.22158 0.0
C504 C 0.06894 0.91863 0.11765 0.0
C505 C 0.03756 0.95122 0.09762 0.0
C506 C 0.05523 0.90671 0.14424 0.0
C507 C 0.00999 0.92726 0.15123 0.0
C508 C 0.97549 0.9553 0.12985 0.0
C509 C 0.98919 0.9672 0.10304 0.0
C510 C 0.00743 0.93104 0.18278 0.0
C511 C 0.0443 0.96286 0.20064 0.0
C512 C 0.97 0.90554 0.19525 0.0
C513 C 0.93148 0.86969 0.17765 0.0
C514 C 0.878 0.87232 0.17867 0.0
C515 C 0.84216 0.83704 0.16341 0.0
C516 C 0.85917 0.79906 0.14683 0.0
C517 C 0.91204 0.7963 0.14544 0.0
C518 C 0.94816 0.83109 0.16096 0.0
C519 C 0.00772 0.01561 0.31447 0.0
C520 C 0.02386 0.97818 0.3357 0.0
C521 C 0.99836 0.00421 0.28425 0.0
C522 C 1.00539 0.9553 0.2746 0.0
C523 C 0.01845 0.91722 0.29558 0.0
C524 C 0.02776 0.92858 0.32593 0.0
C525 C 0.00699 0.94598 0.24319 0.0
C526 C 0.97024 0.91357 0.22552 0.0
C527 C 0.04502 0.97016 0.23066 0.0
C528 C 0.0866 1.00262 0.24856 0.0
C529 C 0.12188 0.98358 0.27349 0.0
C530 C 0.16034 0.01457 0.29058 0.0
C531 C 0.16422 0.06458 0.28279 0.0
C532 C 0.12973 0.08365 0.25784 0.0
C533 C 0.09111 0.05283 0.24072 0.0
H534 H 0.19403 0.08852 0.29604 0.0
H535 H 0.83144 0.77173 0.13509 0.0
H536 H 0.01142 0.90862 0.9048 0.0
H537 H 0.04178 0.89261 0.85918 0.0
H538 H 0.16988 0.99639 0.8882 0.0
H539 H 0.13976 0.01217 0.93416 0.0
H540 H 0.09437 0.02394 0.83754 0.0
H541 H 0.19601 0.87937 0.87367 0.0
H542 H 0.21248 0.79598 0.89638 0.0
H543 H 0.09627 0.73125 0.8258 0.0
H544 H 0.07718 0.81407 0.80322 0.0
H545 H 0.11408 0.03501 0.69097 0.0
H546 H 0.14212 0.02268 0.74375 0.0
H547 H 0.05057 0.88687 0.73647 0.0
H548 H 0.02832 0.89479 0.6828 0.0
H549 H 0.12719 0.8754 0.77932 0.0
H550 H 1.00405 0.00947 0.75358 0.0
H551 H 0.96924 0.08875 0.73037 0.0
H552 H 0.10354 0.16758 0.78079 0.0
H553 H 0.13945 0.08859 0.80404 0.0
C554 C 0.04725 0.92651 0.90193 0.0
C555 C 0.07312 0.96184 0.92278 0.0
C556 C 0.0648 0.91704 0.87598 0.0
C557 C 0.10809 0.94327 0.87032 0.0
C558 C 0.13664 0.97547 0.8923 0.0
C559 C 0.11943 0.98447 0.9185 0.0
C560 C 0.11512 0.94596 0.83943 0.0
C561 C 0.10308 0.99173 0.82499 0.0
C562 C 0.1237 0.90322 0.82284 0.0
C563 C 0.135 0.85329 0.83674 0.0
C564 C 0.17347 0.84754 0.86312 0.0
C565 C 0.18338 0.80034 0.87596 0.0
C566 C 0.15577 0.75849 0.86246 0.0
C567 C 0.11778 0.7637 0.8362 0.0
C568 C 0.10729 0.81079 0.8234 0.0
C569 C 0.10125 1.0013 0.70005 0.0
C570 C 0.06797 0.96627 0.682 0.0
C571 C 0.11667 0.99488 0.73066 0.0
C572 C 0.09694 0.95489 0.74443 0.0
C573 C 0.0659 0.91852 0.72655 0.0
C574 C 0.05221 0.92375 0.6957 0.0
C575 C 0.1051 0.9531 0.77736 0.0
C576 C 0.11971 0.90777 0.79207 0.0
C577 C 0.09618 0.99554 0.79419 0.0
C578 C 0.07475 0.04307 0.78024 0.0
C579 C 0.02631 0.04367 0.75955 0.0
C580 C 0.00637 0.08854 0.74641 0.0
C581 C 0.03426 0.13314 0.75402 0.0
C582 C 0.08207 0.13298 0.77486 0.0
C583 C 0.10223 0.08819 0.78803 0.0
H584 H 0.01875 0.16785 0.74383 0.0
H585 H 0.16378 0.72202 0.8724 0.0
H586 H 0.45078 0.49761 0.58713 0.0
H587 H 0.43266 0.49341 0.63693 0.0
H588 H 0.57088 0.40308 0.6658 0.0
H589 H 0.58929 0.40735 0.6164 0.0
H590 H 0.4479 0.4115 0.69428 0.0
H591 H 0.64634 0.49502 0.70084 0.0
H592 H 0.69673 0.53695 0.66851 0.0
H593 H 0.55661 0.61075 0.6225 0.0
H594 H 0.50572 0.56983 0.65489 0.0
H595 H 0.58054 0.44186 0.84576 0.0
H596 H 0.55246 0.42228 0.79282 0.0
H597 H 0.52707 0.57918 0.77401 0.0
H598 H 0.55758 0.59923 0.82653 0.0
H599 H 0.57973 0.54089 0.7382 0.0
H600 H 0.42337 0.49452 0.76906 0.0
H601 H 0.37001 0.45143 0.79918 0.0
H602 H 0.41665 0.30907 0.76993 0.0
H603 H 0.47092 0.35129 0.73995 0.0
C604 C 0.4755 0.47447 0.60364 0.0
C605 C 0.52201 0.45366 0.59827 0.0
C606 C 0.46501 0.47197 0.63206 0.0
C607 C 0.5009 0.44849 0.65501 0.0
C608 C 0.54277 0.42129 0.64832 0.0
C609 C 0.55341 0.42403 0.62013 0.0
C610 C 0.50494 0.46453 0.68608 0.0
C611 C 0.47628 0.43997 0.70404 0.0
C612 C 0.54145 0.50219 0.69844 0.0
C613 C 0.57232 0.52923 0.68012 0.0
C614 C 0.62649 0.52056 0.68399 0.0
C615 C 0.65507 0.54406 0.66563 0.0
C616 C 0.62986 0.57641 0.64342 0.0
C617 C 0.57608 0.58565 0.63968 0.0
C618 C 0.54738 0.56236 0.65804 0.0
C619 C 0.5693 0.47223 0.83033 0.0
C620 C 0.57142 0.52215 0.84045 0.0
C621 C 0.55246 0.4609 0.8001 0.0
C622 C 0.5369 0.4992 0.77944 0.0
C623 C 0.53856 0.54896 0.78953 0.0
C624 C 0.55572 0.56033 0.81964 0.0
C625 C 0.52263 0.488 0.74711 0.0
C626 C 0.55025 0.51315 0.72874 0.0
C627 C 0.48425 0.45167 0.7345 0.0
C628 C 0.45157 0.4261 0.75244 0.0
C629 C 0.42258 0.45402 0.76923 0.0
C630 C 0.39211 0.42974 0.78625 0.0
C631 C 0.39003 0.37754 0.78652 0.0
C632 C 0.41833 0.3495 0.76971 0.0
C633 C 0.44891 0.37359 0.75267 0.0
H634 H 0.36641 0.35882 0.79971 0.0
H635 H 0.65198 0.59436 0.62913 0.0
H636 H 0.48551 0.40843 0.39962 0.0
H637 H 0.51555 0.39532 0.35367 0.0
H638 H 0.65158 0.4876 0.38778 0.0
H639 H 0.6213 0.50116 0.43381 0.0
H640 H 0.58403 0.52492 0.33848 0.0
H641 H 0.66307 0.36707 0.36907 0.0
H642 H 0.66568 0.28082 0.38797 0.0
H643 H 0.54817 0.23559 0.31201 0.0
H644 H 0.5424 0.3217 0.2933 0.0
H645 H 0.61035 0.54805 0.19361 0.0
H646 H 0.63569 0.52765 0.24562 0.0
H647 H 0.52812 0.40261 0.23144 0.0
H648 H 0.5082 0.41806 0.17844 0.0
H649 H 0.60101 0.37958 0.27393 0.0
H650 H 0.49619 0.52795 0.25384 0.0
H651 H 0.47271 0.61242 0.23435 0.0
H652 H 0.61479 0.67163 0.28921 0.0
H653 H 0.63939 0.58732 0.30877 0.0
C654 C 0.52282 0.4244 0.39772 0.0
C655 C 0.551 0.456 0.42013 0.0
C656 C 0.54017 0.41656 0.37154 0.0
C657 C 0.58581 0.44046 0.3673 0.0
C658 C 0.61642 0.46856 0.39072 0.0
C659 C 0.59919 0.47618 0.41702 0.0
C660 C 0.59452 0.44518 0.33681 0.0
C661 C 0.58926 0.4932 0.32459 0.0
C662 C 0.59853 0.4034 0.31838 0.0
C663 C 0.6022 0.35129 0.32978 0.0
C664 C 0.63725 0.33899 0.35653 0.0
C665 C 0.63933 0.29008 0.36722 0.0
C666 C 0.6075 0.25283 0.35112 0.0
C667 C 0.57299 0.26445 0.32442 0.0
C668 C 0.57013 0.31338 0.31382 0.0
C669 C 0.59329 0.51495 0.20099 0.0
C670 C 0.55612 0.4854 0.18128 0.0
C671 C 0.60725 0.5039 0.23116 0.0
C672 C 0.58233 0.46481 0.24285 0.0
C673 C 0.54749 0.43352 0.22319 0.0
C674 C 0.53517 0.44321 0.19275 0.0
C675 C 0.58898 0.45915 0.27554 0.0
C676 C 0.59699 0.41126 0.28808 0.0
C677 C 0.58458 0.50058 0.29419 0.0
C678 C 0.56995 0.55129 0.28246 0.0
C679 C 0.52258 0.55895 0.26158 0.0
C680 C 0.50905 0.60678 0.25055 0.0
C681 C 0.54233 0.64733 0.26045 0.0
C682 C 0.58913 0.64015 0.2815 0.0
C683 C 0.60289 0.59237 0.29257 0.0
H684 H 0.53179 0.68434 0.25189 0.0
H685 H 0.60954 0.21497 0.35938 0.0
loop_
_geom_bond_atom_site_label_1
_geom_bond_atom_site_label_2
_geom_bond_distance
_geom_bond_site_symmetry_2
_ccdc_geom_bond_type
Zn0 O6 1.920 1_545 S
Zn0 O12 1.898 . S
Zn0 O15 1.905 1_545 S
Zn1 O9 1.905 . S
Zn1 O10 1.898 1_545 S
Zn1 O18 1.920 1_545 S
Zn2 O5 2.080 1_445 S
Zn2 O8 2.114 . S
Zn2 O11 2.120 1_545 S
Zn2 O13 2.120 1_455 S
Zn2 O14 2.114 1_554 S
Zn2 O17 2.080 . S
C3 O8 1.166 . S
C3 O9 1.182 . S
C4 O10 1.167 . S
C4 O11 1.299 . S
O5 Zn2 2.080 1_665 S
O5 C19 1.305 . S
O6 Zn0 1.920 1_565 S
O6 C19 1.234 1_556 S
C7 O12 1.167 . S
C7 O13 1.299 1_556 S
O8 Zn2 2.114 . S
O8 C3 1.166 . S
O9 Zn1 1.905 . S
O9 C3 1.182 . S
O10 Zn1 1.898 1_565 S
O10 C4 1.167 . S
O11 Zn2 2.120 1_565 S
O11 C4 1.299 . S
O12 Zn0 1.898 . S
O12 C7 1.167 . S
O13 Zn2 2.120 1_655 S
O13 C7 1.299 1_554 S
O14 Zn2 2.114 1_556 S
O14 C16 1.166 1_545 S
O15 Zn0 1.905 1_565 S
O15 C16 1.182 1_655 S
C16 O14 1.166 1_565 S
C16 O15 1.182 1_455 S
O17 Zn2 2.080 . S
O17 C20 1.305 1_545 S
O18 Zn1 1.920 1_565 S
O18 C20 1.234 . S
C19 O5 1.305 . S
C19 O6 1.234 1_554 S
C20 O17 1.305 1_565 S
C20 O18 1.234 . S
Zn21 O27 1.920 . S
Zn21 O33 1.898 . S
Zn21 O36 1.905 . S
Zn22 O30 1.905 . S
Zn22 O31 1.898 . S
Zn22 O39 1.920 . S
Zn23 O26 2.080 . S
Zn23 O29 2.114 . S
Zn23 O32 2.120 . S
Zn23 O34 2.120 . S
Zn23 O35 2.114 . S
Zn23 O38 2.080 . S
C24 O29 1.166 . S
C24 O30 1.182 . S
C25 O31 1.167 . S
C25 O32 1.299 . S
O26 Zn23 2.080 . S
O26 C40 1.305 . S
O27 Zn21 1.920 . S
O27 C40 1.234 . S
C28 O33 1.167 . S
C28 O34 1.299 . S
O29 Zn23 2.114 . S
O29 C24 1.166 . S
O30 Zn22 1.905 . S
O30 C24 1.182 . S
O31 Zn22 1.898 . S
O31 C25 1.167 . S
O32 Zn23 2.120 . S
O32 C25 1.299 . S
O33 Zn21 1.898 . S
O33 C28 1.167 . S
O34 Zn23 2.120 . S
O34 C28 1.299 . S
O35 Zn23 2.114 . S
O35 C37 1.166 . S
O36 Zn21 1.905 . S
O36 C37 1.182 . S
C37 O35 1.166 . S
C37 O36 1.182 . S
O38 Zn23 2.080 . S
O38 C41 1.305 . S
O39 Zn22 1.920 . S
O39 C41 1.234 . S
C40 O26 1.305 . S
C40 O27 1.234 . S
C41 O38 1.305 . S
C41 O39 1.234 . S
H42 C47 0.929 . S
H43 C52 0.931 1_565 S
H44 C50 0.930 . S
N45 N46 1.234 . S
N45 C49 1.453 . S
N46 N45 1.234 . S
C47 H42 0.929 . S
C47 C48 1.373 1_545 S
C47 C49 1.368 . S
C48 C47 1.373 1_565 S
C48 C52 1.397 1_565 S
C49 N45 1.453 . S
C49 C47 1.368 . S
C49 C50 1.373 . S
C50 H44 0.930 . S
C50 C49 1.373 . S
C50 C51 1.371 . S
C51 C50 1.371 . S
C51 C52 1.383 . S
C52 H43 0.931 1_545 S
C52 C48 1.397 1_545 S
C52 C51 1.383 . S
H53 C58 0.929 . S
H54 C63 0.931 . S
H55 C61 0.930 . S
N56 N57 1.234 . S
N56 C60 1.453 . S
N57 N56 1.234 . S
C58 H53 0.929 . S
C58 C59 1.373 1_545 S
C58 C60 1.368 1_655 S
C59 C58 1.373 1_565 S
C59 C63 1.397 . S
C60 N56 1.453 . S
C60 C58 1.368 1_455 S
C60 C61 1.373 . S
C61 H55 0.930 . S
C61 C60 1.373 . S
C61 C62 1.371 1_455 S
C62 C61 1.371 1_655 S
C62 C63 1.383 1_545 S
C63 H54 0.931 . S
C63 C59 1.397 . S
C63 C62 1.383 1_565 S
H64 C69 0.929 . S
H65 C74 0.931 . S
H66 C72 0.930 . S
N67 N68 1.234 . S
N67 C71 1.453 . S
N68 N67 1.234 . S
C69 H64 0.929 . S
C69 C70 1.373 . S
C69 C71 1.368 . S
C70 C69 1.373 . S
C70 C74 1.397 . S
C71 N67 1.453 . S
C71 C69 1.368 . S
C71 C72 1.373 . S
C72 H66 0.930 . S
C72 C71 1.373 . S
C72 C73 1.371 . S
C73 C72 1.371 . S
C73 C74 1.383 . S
C74 H65 0.931 . S
C74 C70 1.397 . S
C74 C73 1.383 . S
H75 C80 0.929 . S
H76 C85 0.931 . S
H77 C83 0.930 . S
N78 N79 1.234 . S
N78 C82 1.453 . S
N79 N78 1.234 . S
C80 H75 0.929 . S
C80 C81 1.373 . S
C80 C82 1.368 . S
C81 C80 1.373 . S
C81 C85 1.397 . S
C82 N78 1.453 . S
C82 C80 1.368 . S
C82 C83 1.373 . S
C83 H77 0.930 . S
C83 C82 1.373 . S
C83 C84 1.371 . S
C84 C83 1.371 . S
C84 C85 1.383 . S
C85 H76 0.931 . S
C85 C81 1.397 . S
C85 C84 1.383 . S
H86 C104 0.951 . S
H87 C106 0.951 . S
H88 C108 0.950 . S
H89 C109 0.950 . S
H90 C111 0.950 . S
H91 C114 0.950 . S
H92 C115 0.950 . S
H93 C117 0.950 . S
H94 C118 0.950 . S
H95 C119 0.951 . S
H96 C121 0.951 . S
H97 C123 0.950 . S
H98 C124 0.950 . S
H99 C126 0.950 . S
H100 C129 0.950 . S
H101 C130 0.950 . S
H102 C132 0.950 . S
H103 C133 0.950 . S
C104 H86 0.951 . S
C104 C105 1.366 . S
C104 C106 1.388 . S
C105 C104 1.366 . S
C105 C109 1.385 . S
C106 H87 0.951 . S
C106 C104 1.388 . S
C106 C107 1.366 . S
C107 C106 1.366 . S
C107 C108 1.414 . S
C107 C110 1.499 . S
C108 H88 0.950 . S
C108 C107 1.414 . S
C108 C109 1.374 . S
C109 H89 0.950 . S
C109 C105 1.385 . S
C109 C108 1.374 . S
C110 C107 1.499 . S
C110 C111 1.373 . S
C110 C112 1.389 . S
C111 H90 0.950 . S
C111 C110 1.373 . S
C111 C127 1.377 . S
C112 C110 1.389 . S
C112 C113 1.524 . S
C112 C126 1.377 . S
C113 C112 1.524 . S
C113 C114 1.397 1_554 S
C113 C118 1.363 . S
C114 H91 0.950 . S
C114 C113 1.397 1_556 S
C114 C115 1.334 . S
C115 H92 0.950 . S
C115 C114 1.334 . S
C115 C116 1.287 . S
C116 C115 1.287 . S
C116 C117 1.524 1_556 S
C116 H135 0.913 . S
C117 H93 0.950 . S
C117 C116 1.524 1_554 S
C117 C118 1.415 . S
C118 H94 0.950 . S
C118 C113 1.363 . S
C118 C117 1.415 . S
C119 H95 0.951 . S
C119 C120 1.366 . S
C119 C121 1.388 . S
C120 C119 1.366 . S
C120 C124 1.385 . S
C121 H96 0.951 . S
C121 C119 1.388 . S
C121 C122 1.366 . S
C122 C121 1.366 . S
C122 C123 1.414 . S
C122 C125 1.499 . S
C123 H97 0.950 . S
C123 C122 1.414 . S
C123 C124 1.374 . S
C124 H98 0.950 . S
C124 C120 1.385 . S
C124 C123 1.374 . S
C125 C122 1.499 . S
C125 C126 1.373 . S
C125 C127 1.389 . S
C126 H99 0.950 . S
C126 C112 1.377 . S
C126 C125 1.373 . S
C127 C111 1.377 . S
C127 C125 1.389 . S
C127 C128 1.524 . S
C128 C127 1.524 . S
C128 C129 1.397 . S
C128 C133 1.363 . S
C129 H100 0.950 . S
C129 C128 1.397 . S
C129 C130 1.334 . S
C130 H101 0.950 . S
C130 C129 1.334 . S
C130 C131 1.287 . S
C131 C130 1.287 . S
C131 C132 1.524 . S
C131 H134 0.999 . S
C132 H102 0.950 . S
C132 C131 1.524 . S
C132 C133 1.415 . S
C133 H103 0.950 . S
C133 C128 1.363 . S
C133 C132 1.415 . S
H134 C131 0.999 . S
H135 C116 0.913 . S
H136 C154 0.951 . S
H137 C156 0.951 . S
H138 C158 0.950 . S
H139 C159 0.950 . S
H140 C161 0.950 . S
H141 C164 0.950 . S
H142 C165 0.950 . S
H143 C167 0.950 . S
H144 C168 0.950 . S
H145 C169 0.951 . S
H146 C171 0.951 . S
H147 C173 0.950 . S
H148 C174 0.950 . S
H149 C176 0.950 . S
H150 C179 0.950 . S
H151 C180 0.950 . S
H152 C182 0.950 . S
H153 C183 0.950 . S
C154 H136 0.951 . S
C154 C155 1.364 1_556 S
C154 C156 1.388 . S
C155 C154 1.364 1_554 S
C155 C159 1.385 . S
C156 H137 0.951 . S
C156 C154 1.388 . S
C156 C157 1.366 . S
C157 C156 1.366 . S
C157 C158 1.414 1_556 S
C157 C160 1.499 . S
C158 H138 0.950 . S
C158 C157 1.414 1_554 S
C158 C159 1.374 . S
C159 H139 0.950 . S
C159 C155 1.385 . S
C159 C158 1.374 . S
C160 C157 1.499 . S
C160 C161 1.373 . S
C160 C162 1.389 . S
C161 H140 0.950 . S
C161 C160 1.373 . S
C161 C177 1.377 . S
C162 C160 1.389 . S
C162 C163 1.524 . S
C162 C176 1.377 . S
C163 C162 1.524 . S
C163 C164 1.397 1_556 S
C163 C168 1.363 . S
C164 H141 0.950 . S
C164 C163 1.397 1_554 S
C164 C165 1.334 . S
C165 H142 0.950 . S
C165 C164 1.334 . S
C165 C166 1.287 . S
C166 C165 1.287 . S
C166 C167 1.524 1_554 S
C166 H185 0.913 . S
C167 H143 0.950 . S
C167 C166 1.524 1_556 S
C167 C168 1.415 . S
C168 H144 0.950 . S
C168 C163 1.363 . S
C168 C167 1.415 . S
C169 H145 0.951 . S
C169 C170 1.366 . S
C169 C171 1.388 . S
C170 C169 1.366 . S
C170 C174 1.385 . S
C171 H146 0.951 . S
C171 C169 1.388 . S
C171 C172 1.366 . S
C172 C171 1.366 . S
C172 C173 1.414 . S
C172 C175 1.499 . S
C173 H147 0.950 . S
C173 C172 1.414 . S
C173 C174 1.374 . S
C174 H148 0.950 . S
C174 C170 1.385 . S
C174 C173 1.374 . S
C175 C172 1.499 . S
C175 C176 1.373 . S
C175 C177 1.389 . S
C176 H149 0.950 . S
C176 C162 1.377 . S
C176 C175 1.373 . S
C177 C161 1.377 . S
C177 C175 1.389 . S
C177 C178 1.524 . S
C178 C177 1.524 . S
C178 C179 1.397 . S
C178 C183 1.363 . S
C179 H150 0.950 . S
C179 C178 1.397 . S
C179 C180 1.334 . S
C180 H151 0.950 . S
C180 C179 1.334 . S
C180 C181 1.287 . S
C181 C180 1.287 . S
C181 C182 1.524 . S
C181 H184 0.999 . S
C182 H152 0.950 . S
C182 C181 1.524 . S
C182 C183 1.415 . S
C183 H153 0.950 . S
C183 C178 1.363 . S
C183 C182 1.415 . S
H184 C181 0.999 . S
H185 C166 0.913 . S
H186 C204 0.951 1_556 S
H187 C206 0.951 . S
H188 C208 0.950 . S
H189 C209 0.950 . S
H190 C211 0.950 . S
H191 C214 0.950 . S
H192 C215 0.950 . S
H193 C217 0.950 . S
H194 C218 0.950 . S
H195 C219 0.951 . S
H196 C221 0.951 . S
H197 C223 0.950 . S
H198 C224 0.950 . S
H199 C226 0.950 . S
H200 C229 0.950 . S
H201 C230 0.950 . S
H202 C232 0.950 . S
H203 C233 0.950 . S
C204 H186 0.951 1_554 S
C204 C205 1.366 . S
C204 C206 1.388 . S
C205 C204 1.366 . S
C205 C209 1.385 . S
C206 H187 0.951 . S
C206 C204 1.388 . S
C206 C207 1.366 . S
C207 C206 1.366 . S
C207 C208 1.414 . S
C207 C210 1.499 . S
C208 H188 0.950 . S
C208 C207 1.414 . S
C208 C209 1.374 . S
C209 H189 0.950 . S
C209 C205 1.385 . S
C209 C208 1.374 . S
C210 C207 1.499 . S
C210 C211 1.373 . S
C210 C212 1.389 . S
C211 H190 0.950 . S
C211 C210 1.373 . S
C211 C227 1.377 . S
C212 C210 1.389 . S
C212 C213 1.524 . S
C212 C226 1.377 . S
C213 C212 1.524 . S
C213 C214 1.397 . S
C213 C218 1.363 . S
C214 H191 0.950 . S
C214 C213 1.397 . S
C214 C215 1.334 . S
C215 H192 0.950 . S
C215 C214 1.334 . S
C215 C216 1.287 . S
C216 C215 1.287 . S
C216 C217 1.524 . S
C216 H235 0.913 1_565 S
C217 H193 0.950 . S
C217 C216 1.524 . S
C217 C218 1.415 . S
C218 H194 0.950 . S
C218 C213 1.363 . S
C218 C217 1.415 . S
C219 H195 0.951 . S
C219 C220 1.366 . S
C219 C221 1.388 . S
C220 C219 1.366 . S
C220 C224 1.385 . S
C221 H196 0.951 . S
C221 C219 1.388 . S
C221 C222 1.366 . S
C222 C221 1.366 . S
C222 C223 1.414 . S
C222 C225 1.499 . S
C223 H197 0.950 . S
C223 C222 1.414 . S
C223 C224 1.374 . S
C224 H198 0.950 . S
C224 C220 1.385 . S
C224 C223 1.374 . S
C225 C222 1.499 . S
C225 C226 1.373 . S
C225 C227 1.389 . S
C226 H199 0.950 . S
C226 C212 1.377 . S
C226 C225 1.373 . S
C227 C211 1.377 . S
C227 C225 1.389 . S
C227 C228 1.524 . S
C228 C227 1.524 . S
C228 C229 1.397 . S
C228 C233 1.363 . S
C229 H200 0.950 . S
C229 C228 1.397 . S
C229 C230 1.334 . S
C230 H201 0.950 . S
C230 C229 1.334 . S
C230 C231 1.287 . S
C231 C230 1.287 . S
C231 C232 1.524 . S
C231 H234 0.999 . S
C232 H202 0.950 . S
C232 C231 1.524 . S
C232 C233 1.415 . S
C233 H203 0.950 . S
C233 C228 1.363 . S
C233 C232 1.415 . S
H234 C231 0.999 . S
H235 C216 0.913 1_545 S
H236 C254 0.951 . S
H237 C256 0.951 . S
H238 C258 0.950 . S
H239 C259 0.950 . S
H240 C261 0.950 1_554 S
H241 C264 0.950 . S
H242 C265 0.950 . S
H243 C267 0.950 . S
H244 C268 0.950 . S
H245 C269 0.951 . S
H246 C271 0.951 . S
H247 C273 0.950 . S
H248 C274 0.950 . S
H249 C276 0.950 . S
H250 C279 0.950 1_556 S
H251 C280 0.950 . S
H252 C282 0.950 . S
H253 C283 0.950 . S
C254 H236 0.951 . S
C254 C255 1.366 . S
C254 C256 1.388 . S
C255 C254 1.366 . S
C255 C259 1.385 1_556 S
C256 H237 0.951 . S
C256 C254 1.388 . S
C256 C257 1.366 . S
C257 C256 1.366 . S
C257 C258 1.414 1_556 S
C257 C260 1.499 . S
C258 H238 0.950 . S
C258 C257 1.414 1_554 S
C258 C259 1.374 . S
C259 H239 0.950 . S
C259 C255 1.385 1_554 S
C259 C258 1.374 . S
C260 C257 1.499 . S
C260 C261 1.373 . S
C260 C262 1.389 . S
C261 H240 0.950 1_556 S
C261 C260 1.373 . S
C261 C277 1.377 . S
C262 C260 1.389 . S
C262 C263 1.524 . S
C262 C276 1.377 . S
C263 C262 1.524 . S
C263 C264 1.397 . S
C263 C268 1.363 . S
C264 H241 0.950 . S
C264 C263 1.397 . S
C264 C265 1.334 . S
C265 H242 0.950 . S
C265 C264 1.334 . S
C265 C266 1.287 . S
C266 C265 1.287 . S
C266 C267 1.524 . S
C266 H285 0.913 . S
C267 H243 0.950 . S
C267 C266 1.524 . S
C267 C268 1.415 . S
C268 H244 0.950 . S
C268 C263 1.363 . S
C268 C267 1.415 . S
C269 H245 0.951 . S
C269 C270 1.366 . S
C269 C271 1.388 . S
C270 C269 1.366 . S
C270 C274 1.385 . S
C271 H246 0.951 . S
C271 C269 1.388 . S
C271 C272 1.366 . S
C272 C271 1.366 . S
C272 C273 1.414 . S
C272 C275 1.499 . S
C273 H247 0.950 . S
C273 C272 1.414 . S
C273 C274 1.374 . S
C274 H248 0.950 . S
C274 C270 1.385 . S
C274 C273 1.374 . S
C275 C272 1.499 . S
C275 C276 1.373 . S
C275 C277 1.389 . S
C276 H249 0.950 . S
C276 C262 1.377 . S
C276 C275 1.373 . S
C277 C261 1.377 . S
C277 C275 1.389 . S
C277 C278 1.524 1_556 S
C278 C277 1.524 1_554 S
C278 C279 1.397 . S
C278 C283 1.363 . S
C279 H250 0.950 1_554 S
C279 C278 1.397 . S
C279 C280 1.334 . S
C280 H251 0.950 . S
C280 C279 1.334 . S
C280 C281 1.287 . S
C281 C280 1.287 . S
C281 C282 1.524 . S
C281 H284 0.999 . S
C282 H252 0.950 . S
C282 C281 1.524 . S
C282 C283 1.415 . S
C283 H253 0.950 . S
C283 C278 1.363 . S
C283 C282 1.415 . S
H284 C281 0.999 . S
H285 C266 0.913 . S
H286 C304 0.951 . S
H287 C306 0.951 . S
H288 C308 0.950 . S
H289 C309 0.950 . S
H290 C311 0.950 . S
H291 C314 0.950 . S
H292 C315 0.950 . S
H293 C317 0.950 . S
H294 C318 0.950 . S
H295 C319 0.951 . S
H296 C321 0.951 . S
H297 C323 0.950 . S
H298 C324 0.950 . S
H299 C326 0.950 . S
H300 C329 0.950 . S
H301 C330 0.950 . S
H302 C332 0.950 . S
H303 C333 0.950 . S
C304 H286 0.951 . S
C304 C305 1.366 . S
C304 C306 1.388 . S
C305 C304 1.366 . S
C305 C309 1.385 . S
C306 H287 0.951 . S
C306 C304 1.388 . S
C306 C307 1.366 . S
C307 C306 1.366 . S
C307 C308 1.414 . S
C307 C310 1.499 . S
C308 H288 0.950 . S
C308 C307 1.414 . S
C308 C309 1.374 . S
C309 H289 0.950 . S
C309 C305 1.385 . S
C309 C308 1.374 . S
C310 C307 1.499 . S
C310 C311 1.373 . S
C310 C312 1.389 . S
C311 H290 0.950 . S
C311 C310 1.373 . S
C311 C327 1.377 . S
C312 C310 1.389 . S
C312 C313 1.524 . S
C312 C326 1.377 . S
C313 C312 1.524 . S
C313 C314 1.397 . S
C313 C318 1.363 . S
C314 H291 0.950 . S
C314 C313 1.397 . S
C314 C315 1.334 . S
C315 H292 0.950 . S
C315 C314 1.334 . S
C315 C316 1.287 . S
C316 C315 1.287 . S
C316 C317 1.524 . S
C316 H335 0.913 . S
C317 H293 0.950 . S
C317 C316 1.524 . S
C317 C318 1.415 . S
C318 H294 0.950 . S
C318 C313 1.363 . S
C318 C317 1.415 . S
C319 H295 0.951 . S
C319 C320 1.366 . S
C319 C321 1.388 . S
C320 C319 1.366 . S
C320 C324 1.385 . S
C321 H296 0.951 . S
C321 C319 1.388 . S
C321 C322 1.366 . S
C322 C321 1.366 . S
C322 C323 1.414 . S
C322 C325 1.499 . S
C323 H297 0.950 . S
C323 C322 1.414 . S
C323 C324 1.374 . S
C324 H298 0.950 . S
C324 C320 1.385 . S
C324 C323 1.374 . S
C325 C322 1.499 . S
C325 C326 1.373 . S
C325 C327 1.389 . S
C326 H299 0.950 . S
C326 C312 1.377 . S
C326 C325 1.373 . S
C327 C311 1.377 . S
C327 C325 1.389 . S
C327 C328 1.524 . S
C328 C327 1.524 . S
C328 C329 1.397 . S
C328 C333 1.363 . S
C329 H300 0.950 . S
C329 C328 1.397 . S
C329 C330 1.334 . S
C330 H301 0.950 . S
C330 C329 1.334 . S
C330 C331 1.287 . S
C331 C330 1.287 . S
C331 C332 1.524 . S
C331 H334 0.999 . S
C332 H302 0.950 . S
C332 C331 1.524 . S
C332 C333 1.415 . S
C333 H303 0.950 . S
C333 C328 1.363 . S
C333 C332 1.415 . S
H334 C331 0.999 . S
H335 C316 0.913 . S
H336 C354 0.951 . S
H337 C356 0.951 . S
H338 C358 0.950 . S
H339 C359 0.950 . S
H340 C361 0.950 . S
H341 C364 0.950 . S
H342 C365 0.950 . S
H343 C367 0.950 . S
H344 C368 0.950 . S
H345 C369 0.951 1_455 S
H346 C371 0.951 . S
H347 C373 0.950 . S
H348 C374 0.950 . S
H349 C376 0.950 . S
H350 C379 0.950 . S
H351 C380 0.950 . S
H352 C382 0.950 . S
H353 C383 0.950 . S
C354 H336 0.951 . S
C354 C355 1.366 . S
C354 C356 1.388 . S
C355 C354 1.366 . S
C355 C359 1.385 . S
C356 H337 0.951 . S
C356 C354 1.388 . S
C356 C357 1.366 . S
C357 C356 1.366 . S
C357 C358 1.414 . S
C357 C360 1.499 . S
C358 H338 0.950 . S
C358 C357 1.414 . S
C358 C359 1.374 . S
C359 H339 0.950 . S
C359 C355 1.385 . S
C359 C358 1.374 . S
C360 C357 1.499 . S
C360 C361 1.373 . S
C360 C362 1.389 . S
C361 H340 0.950 . S
C361 C360 1.373 . S
C361 C377 1.377 . S
C362 C360 1.389 . S
C362 C363 1.524 . S
C362 C376 1.377 . S
C363 C362 1.524 . S
C363 C364 1.397 . S
C363 C368 1.363 . S
C364 H341 0.950 . S
C364 C363 1.397 . S
C364 C365 1.334 . S
C365 H342 0.950 . S
C365 C364 1.334 . S
C365 C366 1.287 . S
C366 C365 1.287 . S
C366 C367 1.524 . S
C366 H385 0.913 . S
C367 H343 0.950 . S
C367 C366 1.524 . S
C367 C368 1.415 . S
C368 H344 0.950 . S
C368 C363 1.363 . S
C368 C367 1.415 . S
C369 H345 0.951 1_655 S
C369 C370 1.366 . S
C369 C371 1.388 . S
C370 C369 1.366 . S
C370 C374 1.385 . S
C371 H346 0.951 . S
C371 C369 1.388 . S
C371 C372 1.366 . S
C372 C371 1.366 . S
C372 C373 1.414 . S
C372 C375 1.499 . S
C373 H347 0.950 . S
C373 C372 1.414 . S
C373 C374 1.374 . S
C374 H348 0.950 . S
C374 C370 1.385 . S
C374 C373 1.374 . S
C375 C372 1.499 . S
C375 C376 1.373 . S
C375 C377 1.389 . S
C376 H349 0.950 . S
C376 C362 1.377 . S
C376 C375 1.373 . S
C377 C361 1.377 . S
C377 C375 1.389 . S
C377 C378 1.524 . S
C378 C377 1.524 . S
C378 C379 1.397 . S
C378 C383 1.363 . S
C379 H350 0.950 . S
C379 C378 1.397 . S
C379 C380 1.334 . S
C380 H351 0.950 . S
C380 C379 1.334 . S
C380 C381 1.287 . S
C381 C380 1.287 . S
C381 C382 1.524 . S
C381 H384 0.999 . S
C382 H352 0.950 . S
C382 C381 1.524 . S
C382 C383 1.415 . S
C383 H353 0.950 . S
C383 C378 1.363 . S
C383 C382 1.415 . S
H384 C381 0.999 . S
H385 C366 0.913 . S
H386 C404 0.951 . S
H387 C406 0.951 . S
H388 C408 0.950 . S
H389 C409 0.950 . S
H390 C411 0.950 . S
H391 C414 0.950 . S
H392 C415 0.950 . S
H393 C417 0.950 . S
H394 C418 0.950 . S
H395 C419 0.951 . S
H396 C421 0.951 . S
H397 C423 0.950 . S
H398 C424 0.950 . S
H399 C426 0.950 . S
H400 C429 0.950 . S
H401 C430 0.950 . S
H402 C432 0.950 . S
H403 C433 0.950 . S
C404 H386 0.951 . S
C404 C405 1.366 . S
C404 C406 1.388 . S
C405 C404 1.366 . S
C405 C409 1.385 . S
C406 H387 0.951 . S
C406 C404 1.388 . S
C406 C407 1.366 . S
C407 C406 1.366 . S
C407 C408 1.414 . S
C407 C410 1.499 . S
C408 H388 0.950 . S
C408 C407 1.414 . S
C408 C409 1.374 . S
C409 H389 0.950 . S
C409 C405 1.385 . S
C409 C408 1.374 . S
C410 C407 1.499 . S
C410 C411 1.373 . S
C410 C412 1.389 . S
C411 H390 0.950 . S
C411 C410 1.373 . S
C411 C427 1.377 . S
C412 C410 1.389 . S
C412 C413 1.524 . S
C412 C426 1.377 . S
C413 C412 1.524 . S
C413 C414 1.397 . S
C413 C418 1.363 . S
C414 H391 0.950 . S
C414 C413 1.397 . S
C414 C415 1.334 . S
C415 H392 0.950 . S
C415 C414 1.334 . S
C415 C416 1.287 . S
C416 C415 1.287 . S
C416 C417 1.524 . S
C416 H435 0.913 . S
C417 H393 0.950 . S
C417 C416 1.524 . S
C417 C418 1.415 . S
C418 H394 0.950 . S
C418 C413 1.363 . S
C418 C417 1.415 . S
C419 H395 0.951 . S
C419 C420 1.366 . S
C419 C421 1.388 . S
C420 C419 1.366 . S
C420 C424 1.385 . S
C421 H396 0.951 . S
C421 C419 1.388 . S
C421 C422 1.366 . S
C422 C421 1.366 . S
C422 C423 1.414 . S
C422 C425 1.499 . S
C423 H397 0.950 . S
C423 C422 1.414 . S
C423 C424 1.374 . S
C424 H398 0.950 . S
C424 C420 1.385 . S
C424 C423 1.374 . S
C425 C422 1.499 . S
C425 C426 1.373 . S
C425 C427 1.389 . S
C426 H399 0.950 . S
C426 C412 1.377 . S
C426 C425 1.373 . S
C427 C411 1.377 . S
C427 C425 1.389 . S
C427 C428 1.524 . S
C428 C427 1.524 . S
C428 C429 1.397 . S
C428 C433 1.363 . S
C429 H400 0.950 . S
C429 C428 1.397 . S
C429 C430 1.334 . S
C430 H401 0.950 . S
C430 C429 1.334 . S
C430 C431 1.287 . S
C431 C430 1.287 . S
C431 C432 1.524 . S
C431 H434 0.999 . S
C432 H402 0.950 . S
C432 C431 1.524 . S
C432 C433 1.415 . S
C433 H403 0.950 . S
C433 C428 1.363 . S
C433 C432 1.415 . S
H434 C431 0.999 . S
H435 C416 0.913 . S
H436 C454 0.951 . S
H437 C456 0.951 . S
H438 C458 0.950 . S
H439 C459 0.950 . S
H440 C461 0.950 . S
H441 C464 0.950 . S
H442 C465 0.950 . S
H443 C467 0.950 . S
H444 C468 0.950 . S
H445 C469 0.951 . S
H446 C471 0.951 . S
H447 C473 0.950 . S
H448 C474 0.950 . S
H449 C476 0.950 . S
H450 C479 0.950 . S
H451 C480 0.950 . S
H452 C482 0.950 . S
H453 C483 0.950 . S
C454 H436 0.951 . S
C454 C455 1.366 . S
C454 C456 1.388 . S
C455 C454 1.366 . S
C455 C459 1.385 . S
C456 H437 0.951 . S
C456 C454 1.388 . S
C456 C457 1.366 . S
C457 C456 1.366 . S
C457 C458 1.414 . S
C457 C460 1.499 . S
C458 H438 0.950 . S
C458 C457 1.414 . S
C458 C459 1.374 . S
C459 H439 0.950 . S
C459 C455 1.385 . S
C459 C458 1.374 . S
C460 C457 1.499 . S
C460 C461 1.373 . S
C460 C462 1.389 . S
C461 H440 0.950 . S
C461 C460 1.373 . S
C461 C477 1.377 . S
C462 C460 1.389 . S
C462 C463 1.524 . S
C462 C476 1.377 . S
C463 C462 1.524 . S
C463 C464 1.397 . S
C463 C468 1.363 . S
C464 H441 0.950 . S
C464 C463 1.397 . S
C464 C465 1.334 . S
C465 H442 0.950 . S
C465 C464 1.334 . S
C465 C466 1.287 . S
C466 C465 1.287 . S
C466 C467 1.524 . S
C466 H485 0.913 . S
C467 H443 0.950 . S
C467 C466 1.524 . S
C467 C468 1.415 . S
C468 H444 0.950 . S
C468 C463 1.363 . S
C468 C467 1.415 . S
C469 H445 0.951 . S
C469 C470 1.366 . S
C469 C471 1.388 . S
C470 C469 1.366 . S
C470 C474 1.385 . S
C471 H446 0.951 . S
C471 C469 1.388 . S
C471 C472 1.366 . S
C472 C471 1.366 . S
C472 C473 1.414 . S
C472 C475 1.499 . S
C473 H447 0.950 . S
C473 C472 1.414 . S
C473 C474 1.374 . S
C474 H448 0.950 . S
C474 C470 1.385 . S
C474 C473 1.374 . S
C475 C472 1.499 . S
C475 C476 1.373 . S
C475 C477 1.389 . S
C476 H449 0.950 . S
C476 C462 1.377 . S
C476 C475 1.373 . S
C477 C461 1.377 . S
C477 C475 1.389 . S
C477 C478 1.524 . S
C478 C477 1.524 . S
C478 C479 1.397 . S
C478 C483 1.363 . S
C479 H450 0.950 . S
C479 C478 1.397 . S
C479 C480 1.334 . S
C480 H451 0.950 . S
C480 C479 1.334 . S
C480 C481 1.287 . S
C481 C480 1.287 . S
C481 C482 1.524 . S
C481 H484 0.999 1_565 S
C482 H452 0.950 . S
C482 C481 1.524 . S
C482 C483 1.415 . S
C483 H453 0.950 . S
C483 C478 1.363 . S
C483 C482 1.415 . S
H484 C481 0.999 1_545 S
H485 C466 0.913 . S
H486 C504 0.951 . S
H487 C506 0.951 . S
H488 C508 0.950 . S
H489 C509 0.950 . S
H490 C511 0.950 . S
H491 C514 0.950 . S
H492 C515 0.950 . S
H493 C517 0.950 . S
H494 C518 0.950 . S
H495 C519 0.951 . S
H496 C521 0.951 . S
H497 C523 0.950 . S
H498 C524 0.950 . S
H499 C526 0.951 . S
H500 C529 0.950 . S
H501 C530 0.950 . S
H502 C532 0.950 . S
H503 C533 0.950 . S
C504 H486 0.951 . S
C504 C505 1.366 . S
C504 C506 1.388 . S
C505 C504 1.366 . S
C505 C509 1.385 1_565 S
C506 H487 0.951 . S
C506 C504 1.388 . S
C506 C507 1.366 1_565 S
C507 C506 1.366 1_545 S
C507 C508 1.414 . S
C507 C510 1.499 . S
C508 H488 0.950 . S
C508 C507 1.414 . S
C508 C509 1.374 . S
C509 H489 0.950 . S
C509 C505 1.385 1_545 S
C509 C508 1.374 . S
C510 C507 1.499 . S
C510 C511 1.373 . S
C510 C512 1.389 . S
C511 H490 0.950 . S
C511 C510 1.373 . S
C511 C527 1.377 . S
C512 C510 1.389 . S
C512 C513 1.524 1_455 S
C512 C526 1.377 . S
C513 C512 1.524 1_655 S
C513 C514 1.397 . S
C513 C518 1.363 1_545 S
C514 H491 0.950 . S
C514 C513 1.397 . S
C514 C515 1.334 . S
C515 H492 0.950 . S
C515 C514 1.334 . S
C515 C516 1.287 . S
C516 C515 1.287 . S
C516 C517 1.524 1_545 S
C516 H535 0.913 . S
C517 H493 0.950 . S
C517 C516 1.524 1_565 S
C517 C518 1.415 . S
C518 H494 0.950 . S
C518 C513 1.363 1_565 S
C518 C517 1.415 . S
C519 H495 0.951 . S
C519 C520 1.366 . S
C519 C521 1.388 . S
C520 C519 1.366 . S
C520 C524 1.385 1_545 S
C521 H496 0.951 . S
C521 C519 1.388 . S
C521 C522 1.366 . S
C522 C521 1.366 . S
C522 C523 1.414 1_545 S
C522 C525 1.499 . S
C523 H497 0.950 . S
C523 C522 1.414 1_565 S
C523 C524 1.374 . S
C524 H498 0.950 . S
C524 C520 1.385 1_565 S
C524 C523 1.374 . S
C525 C522 1.499 . S
C525 C526 1.373 . S
C525 C527 1.389 . S
C526 H499 0.951 . S
C526 C512 1.377 . S
C526 C525 1.373 . S
C527 C511 1.377 . S
C527 C525 1.389 . S
C527 C528 1.524 . S
C528 C527 1.524 . S
C528 C529 1.397 1_545 S
C528 C533 1.363 . S
C529 H500 0.950 . S
C529 C528 1.397 1_565 S
C529 C530 1.334 . S
C530 H501 0.950 . S
C530 C529 1.334 . S
C530 C531 1.287 1_565 S
C531 C530 1.287 1_545 S
C531 C532 1.524 . S
C531 H534 0.999 1_545 S
C532 H502 0.950 . S
C532 C531 1.524 . S
C532 C533 1.415 . S
C533 H503 0.950 . S
C533 C528 1.363 . S
C533 C532 1.415 . S
H534 C531 0.999 1_565 S
H535 C516 0.913 . S
H536 C554 0.951 . S
H537 C556 0.951 . S
H538 C558 0.950 . S
H539 C559 0.950 . S
H540 C561 0.950 . S
H541 C564 0.950 . S
H542 C565 0.950 . S
H543 C567 0.950 . S
H544 C568 0.950 . S
H545 C569 0.951 . S
H546 C571 0.951 . S
H547 C573 0.950 . S
H548 C574 0.950 . S
H549 C576 0.950 . S
H550 C579 0.950 . S
H551 C580 0.950 . S
H552 C582 0.950 . S
H553 C583 0.950 . S
C554 H536 0.951 . S
C554 C555 1.366 . S
C554 C556 1.388 . S
C555 C554 1.366 . S
C555 C559 1.385 1_565 S
C556 H537 0.951 . S
C556 C554 1.388 . S
C556 C557 1.366 . S
C557 C556 1.366 . S
C557 C558 1.414 1_565 S
C557 C560 1.499 1_565 S
C558 H538 0.950 . S
C558 C557 1.414 1_545 S
C558 C559 1.374 . S
C559 H539 0.950 . S
C559 C555 1.385 1_545 S
C559 C558 1.374 . S
C560 C557 1.499 1_545 S
C560 C561 1.373 1_455 S
C560 C562 1.389 1_545 S
C561 H540 0.950 . S
C561 C560 1.373 1_655 S
C561 C577 1.377 . S
C562 C560 1.389 1_565 S
C562 C563 1.524 . S
C562 C576 1.377 . S
C563 C562 1.524 . S
C563 C564 1.397 . S
C563 C568 1.363 . S
C564 H541 0.950 . S
C564 C563 1.397 . S
C564 C565 1.334 . S
C565 H542 0.950 . S
C565 C564 1.334 . S
C565 C566 1.287 . S
C566 C565 1.287 . S
C566 C567 1.524 . S
C566 H585 0.913 . S
C567 H543 0.950 . S
C567 C566 1.524 . S
C567 C568 1.415 . S
C568 H544 0.950 . S
C568 C563 1.363 . S
C568 C567 1.415 . S
C569 H545 0.951 . S
C569 C570 1.366 1_455 S
C569 C571 1.388 . S
C570 C569 1.366 1_655 S
C570 C574 1.385 1_545 S
C571 H546 0.951 . S
C571 C569 1.388 . S
C571 C572 1.366 . S
C572 C571 1.366 . S
C572 C573 1.414 1_445 S
C572 C575 1.499 . S
C573 H547 0.950 . S
C573 C572 1.414 1_665 S
C573 C574 1.374 . S
C574 H548 0.950 . S
C574 C570 1.385 1_565 S
C574 C573 1.374 . S
C575 C572 1.499 . S
C575 C576 1.373 1_545 S
C575 C577 1.389 1_455 S
C576 H549 0.950 . S
C576 C562 1.377 . S
C576 C575 1.373 1_565 S
C577 C561 1.377 . S
C577 C575 1.389 1_655 S
C577 C578 1.524 . S
C578 C577 1.524 . S
C578 C579 1.397 . S
C578 C583 1.363 . S
C579 H550 0.950 . S
C579 C578 1.397 . S
C579 C580 1.334 . S
C580 H551 0.950 . S
C580 C579 1.334 . S
C580 C581 1.287 . S
C581 C580 1.287 . S
C581 C582 1.524 . S
C581 H584 0.999 . S
C582 H552 0.950 . S
C582 C581 1.524 . S
C582 C583 1.415 . S
C583 H553 0.950 . S
C583 C578 1.363 . S
C583 C582 1.415 . S
H584 C581 0.999 . S
H585 C566 0.913 . S
H586 C604 0.951 . S
H587 C606 0.951 . S
H588 C608 0.950 . S
H589 C609 0.950 . S
H590 C611 0.950 . S
H591 C614 0.950 . S
H592 C615 0.950 . S
H593 C617 0.950 . S
H594 C618 0.950 . S
H595 C619 0.951 . S
H596 C621 0.951 . S
H597 C623 0.950 . S
H598 C624 0.950 . S
H599 C626 0.950 . S
H600 C629 0.950 . S
H601 C630 0.950 . S
H602 C632 0.950 . S
H603 C633 0.950 . S
C604 H586 0.951 . S
C604 C605 1.366 . S
C604 C606 1.388 . S
C605 C604 1.366 . S
C605 C609 1.385 . S
C606 H587 0.951 . S
C606 C604 1.388 . S
C606 C607 1.366 . S
C607 C606 1.366 . S
C607 C608 1.414 . S
C607 C610 1.499 . S
C608 H588 0.950 . S
C608 C607 1.414 . S
C608 C609 1.374 . S
C609 H589 0.950 . S
C609 C605 1.385 . S
C609 C608 1.374 . S
C610 C607 1.499 . S
C610 C611 1.373 . S
C610 C612 1.389 . S
C611 H590 0.950 . S
C611 C610 1.373 . S
C611 C627 1.377 . S
C612 C610 1.389 . S
C612 C613 1.524 . S
C612 C626 1.377 . S
C613 C612 1.524 . S
C613 C614 1.397 . S
C613 C618 1.363 . S
C614 H591 0.950 . S
C614 C613 1.397 . S
C614 C615 1.334 . S
C615 H592 0.950 . S
C615 C614 1.334 . S
C615 C616 1.287 . S
C616 C615 1.287 . S
C616 C617 1.524 . S
C616 H635 0.913 . S
C617 H593 0.950 . S
C617 C616 1.524 . S
C617 C618 1.415 . S
C618 H594 0.950 . S
C618 C613 1.363 . S
C618 C617 1.415 . S
C619 H595 0.951 . S
C619 C620 1.366 . S
C619 C621 1.388 . S
C620 C619 1.366 . S
C620 C624 1.385 . S
C621 H596 0.951 . S
C621 C619 1.388 . S
C621 C622 1.366 . S
C622 C621 1.366 . S
C622 C623 1.414 . S
C622 C625 1.499 . S
C623 H597 0.950 . S
C623 C622 1.414 . S
C623 C624 1.374 . S
C624 H598 0.950 . S
C624 C620 1.385 . S
C624 C623 1.374 . S
C625 C622 1.499 . S
C625 C626 1.373 . S
C625 C627 1.389 . S
C626 H599 0.950 . S
C626 C612 1.377 . S
C626 C625 1.373 . S
C627 C611 1.377 . S
C627 C625 1.389 . S
C627 C628 1.524 . S
C628 C627 1.524 . S
C628 C629 1.397 . S
C628 C633 1.363 . S
C629 H600 0.950 . S
C629 C628 1.397 . S
C629 C630 1.334 . S
C630 H601 0.950 . S
C630 C629 1.334 . S
C630 C631 1.287 . S
C631 C630 1.287 . S
C631 C632 1.524 . S
C631 H634 0.999 . S
C632 H602 0.950 . S
C632 C631 1.524 . S
C632 C633 1.415 . S
C633 H603 0.950 . S
C633 C628 1.363 . S
C633 C632 1.415 . S
H634 C631 0.999 . S
H635 C616 0.913 . S
H636 C654 0.951 . S
H637 C656 0.951 . S
H638 C658 0.950 . S
H639 C659 0.950 . S
H640 C661 0.950 . S
H641 C664 0.950 . S
H642 C665 0.950 . S
H643 C667 0.950 . S
H644 C668 0.950 . S
H645 C669 0.951 . S
H646 C671 0.951 . S
H647 C673 0.950 . S
H648 C674 0.950 . S
H649 C676 0.950 . S
H650 C679 0.950 . S
H651 C680 0.950 . S
H652 C682 0.950 . S
H653 C683 0.950 . S
C654 H636 0.951 . S
C654 C655 1.366 . S
C654 C656 1.388 . S
C655 C654 1.366 . S
C655 C659 1.385 . S
C656 H637 0.951 . S
C656 C654 1.388 . S
C656 C657 1.366 . S
C657 C656 1.366 . S
C657 C658 1.414 . S
C657 C660 1.499 . S
C658 H638 0.950 . S
C658 C657 1.414 . S
C658 C659 1.374 . S
C659 H639 0.950 . S
C659 C655 1.385 . S
C659 C658 1.374 . S
C660 C657 1.499 . S
C660 C661 1.373 . S
C660 C662 1.389 . S
C661 H640 0.950 . S
C661 C660 1.373 . S
C661 C677 1.377 . S
C662 C660 1.389 . S
C662 C663 1.524 . S
C662 C676 1.377 . S
C663 C662 1.524 . S
C663 C664 1.397 . S
C663 C668 1.363 . S
C664 H641 0.950 . S
C664 C663 1.397 . S
C664 C665 1.334 . S
C665 H642 0.950 . S
C665 C664 1.334 . S
C665 C666 1.287 . S
C666 C665 1.287 . S
C666 C667 1.524 . S
C666 H685 0.913 . S
C667 H643 0.950 . S
C667 C666 1.524 . S
C667 C668 1.415 . S
C668 H644 0.950 . S
C668 C663 1.363 . S
C668 C667 1.415 . S
C669 H645 0.951 . S
C669 C670 1.366 . S
C669 C671 1.388 . S
C670 C669 1.366 . S
C670 C674 1.385 . S
C671 H646 0.951 . S
C671 C669 1.388 . S
C671 C672 1.366 . S
C672 C671 1.366 . S
C672 C673 1.414 . S
C672 C675 1.499 . S
C673 H647 0.950 . S
C673 C672 1.414 . S
C673 C674 1.374 . S
C674 H648 0.950 . S
C674 C670 1.385 . S
C674 C673 1.374 . S
C675 C672 1.499 . S
C675 C676 1.373 . S
C675 C677 1.389 . S
C676 H649 0.950 . S
C676 C662 1.377 . S
C676 C675 1.373 . S
C677 C661 1.377 . S
C677 C675 1.389 . S
C677 C678 1.524 . S
C678 C677 1.524 . S
C678 C679 1.397 . S
C678 C683 1.363 . S
C679 H650 0.950 . S
C679 C678 1.397 . S
C679 C680 1.334 . S
C680 H651 0.950 . S
C680 C679 1.334 . S
C680 C681 1.287 . S
C681 C680 1.287 . S
C681 C682 1.524 . S
C681 H684 0.999 . S
C682 H652 0.950 . S
C682 C681 1.524 . S
C682 C683 1.415 . S
C683 H653 0.950 . S
C683 C678 1.363 . S
C683 C682 1.415 . S
H684 C681 0.999 . S
H685 C666 0.913 . S
C120 C81 1.275 . S
C105 C3 1.166 . S
C155 C4 1.452 . S
C170 N68 1.527 . S
C205 C19 1.478 . S
C220 N79 1.548 . S
C255 C7 1.171 . S
C270 C70 1.285 . S
C305 C37 1.168 . S
C320 C59 1.274 . S
C355 C28 1.451 . S
C370 N46 1.527 1_655 S
C420 N57 1.548 . S
C405 C41 1.478 . S
C470 C48 1.285 . S
C455 C25 1.172 . S
C505 C20 1.337 . S
C520 C51 1.463 . S
C555 C16 1.387 . S
C570 C62 1.513 . S
C620 C73 1.463 . S
C605 C40 1.338 . S
C655 C24 1.387 . S
C670 C84 1.513 . S
