# Generated by pormake.
# Topology zzz, (3,6)-cn, num edge types: 1
# Building blocks:
#     Node 0, Type 0, BuildingBlock: QEWDON_clean_linker_0, # of connection points: 3
#     Node 1, Type 0, BuildingBlock: QEWDON_clean_linker_0, # of connection points: 3
#     Node 2, Type 0, BuildingBlock: QEWDON_clean_linker_0, # of connection points: 3
#     Node 3, Type 0, BuildingBlock: QEWDON_clean_linker_0, # of connection points: 3
#     Node 4, Type 0, BuildingBlock: QEWDON_clean_linker_0, # of connection points: 3
#     Node 5, Type 0, BuildingBlock: QEWDON_clean_linker_0, # of connection points: 3
#     Node 6, Type 0, BuildingBlock: QEWDON_clean_linker_0, # of connection points: 3
#     Node 7, Type 0, BuildingBlock: QEWDON_clean_linker_0, # of connection points: 3
#     Node 8, Type 1, BuildingBlock: NUHQIS_clean_sbu_0, # of connection points: 6
#     Node 9, Type 1, BuildingBlock: NUHQIS_clean_sbu_0, # of connection points: 6
#     Node 10, Type 1, BuildingBlock: NUHQIS_clean_sbu_0, # of connection points: 6
#     Node 11, Type 1, BuildingBlock: NUHQIS_clean_sbu_0, # of connection points: 6
#     Edge 12, Type (0, 1), BuildingBlock: CIFDUS_clean_linker_0, # of connection points: 2
#     Edge 13, Type (0, 1), BuildingBlock: CIFDUS_clean_linker_0, # of connection points: 2
#     Edge 14, Type (0, 1), BuildingBlock: CIFDUS_clean_linker_0, # of connection points: 2
#     Edge 15, Type (0, 1), BuildingBlock: CIFDUS_clean_linker_0, # of connection points: 2
#     Edge 16, Type (0, 1), BuildingBlock: CIFDUS_clean_linker_0, # of connection points: 2
#     Edge 17, Type (0, 1), BuildingBlock: CIFDUS_clean_linker_0, # of connection points: 2
#     Edge 18, Type (0, 1), BuildingBlock: CIFDUS_clean_linker_0, # of connection points: 2
#     Edge 19, Type (0, 1), BuildingBlock: CIFDUS_clean_linker_0, # of connection points: 2
#     Edge 20, Type (0, 1), BuildingBlock: CIFDUS_clean_linker_0, # of connection points: 2
#     Edge 21, Type (0, 1), BuildingBlock: CIFDUS_clean_linker_0, # of connection points: 2
#     Edge 22, Type (0, 1), BuildingBlock: CIFDUS_clean_linker_0, # of connection points: 2
#     Edge 23, Type (0, 1), BuildingBlock: CIFDUS_clean_linker_0, # of connection points: 2
#     Edge 24, Type (0, 1), BuildingBlock: CIFDUS_clean_linker_0, # of connection points: 2
#     Edge 25, Type (0, 1), BuildingBlock: CIFDUS_clean_linker_0, # of connection points: 2
#     Edge 26, Type (0, 1), BuildingBlock: CIFDUS_clean_linker_0, # of connection points: 2
#     Edge 27, Type (0, 1), BuildingBlock: CIFDUS_clean_linker_0, # of connection points: 2
#     Edge 28, Type (0, 1), BuildingBlock: CIFDUS_clean_linker_0, # of connection points: 2
#     Edge 29, Type (0, 1), BuildingBlock: CIFDUS_clean_linker_0, # of connection points: 2
#     Edge 30, Type (0, 1), BuildingBlock: CIFDUS_clean_linker_0, # of connection points: 2
#     Edge 31, Type (0, 1), BuildingBlock: CIFDUS_clean_linker_0, # of connection points: 2
#     Edge 32, Type (0, 1), BuildingBlock: CIFDUS_clean_linker_0, # of connection points: 2
#     Edge 33, Type (0, 1), BuildingBlock: CIFDUS_clean_linker_0, # of connection points: 2
#     Edge 34, Type (0, 1), BuildingBlock: CIFDUS_clean_linker_0, # of connection points: 2
#     Edge 35, Type (0, 1), BuildingBlock: CIFDUS_clean_linker_0, # of connection points: 2
# Relax obj value: 0.182
# Max RMSD: 0.148
# Mean RMSD: 0.099
data_MOF--net-zzz--node1-NUHQIS_clean_sbu_0--node2-QEWDON_clean_linker_0--edge1-CIFDUS_clean_linker_0
_symmetry_space_group_name_H-M    P1
_symmetry_Int_Tables_number       1
_symmetry_cell_setting            triclinic
loop_
_symmetry_equiv_pos_as_xyz
'x, y, z'
_cell_length_a     48.791541
_cell_length_b     48.985509
_cell_length_c     11.899595
_cell_angle_alpha  90.045817
_cell_angle_beta   89.780415
_cell_angle_gamma 89.689101
loop_
_atom_site_label
_atom_site_type_symbol
_atom_site_fract_x
_atom_site_fract_y
_atom_site_fract_z
_atom_type_partial_charge
H0 H 0.76944 0.49527 0.2158 0.0
C1 C 0.78401 0.50193 0.27824 0.0
C2 C 0.80678 0.48512 0.3009 0.0
C3 C 0.78121 0.52793 0.32887 0.0
H4 H 0.84535 0.48247 0.38834 0.0
C5 C 0.82677 0.49434 0.37634 0.0
C6 C 0.82514 0.52005 0.42662 0.0
C7 C 0.80213 0.53667 0.40403 0.0
C8 C 0.75826 0.54687 0.29334 0.0
H9 H 0.80095 0.55644 0.44433 0.0
C10 C 0.73277 0.53708 0.25134 0.0
C11 C 0.71285 0.55533 0.20759 0.0
C12 C 0.76256 0.57532 0.29353 0.0
H13 H 0.78178 0.58401 0.32021 0.0
C14 C 0.7425 0.5933 0.25489 0.0
H15 H 0.72855 0.51542 0.24966 0.0
C16 C 0.718 0.58347 0.21181 0.0
H17 H 0.70303 0.59799 0.18053 0.0
H18 H 0.74627 0.61506 0.25588 0.0
H19 H 0.06738 0.76217 0.25769 0.0
C20 C 0.05853 0.77807 0.30974 0.0
C21 C 0.07003 0.80425 0.30492 0.0
C22 C 0.03624 0.7726 0.3827 0.0
H23 H 0.06809 0.84548 0.36736 0.0
C24 C 0.05957 0.82509 0.3734 0.0
C25 C 0.03713 0.82087 0.44355 0.0
C26 C 1.02514 0.79473 0.44714 0.0
C27 C 1.02528 0.74391 0.39455 0.0
H28 H 1.00723 0.79188 0.49963 0.0
C29 C 0.02717 0.7241 0.30678 0.0
C30 C 1.01778 0.69691 0.32249 0.0
C31 C 1.01371 0.73572 0.49767 0.0
H32 H 1.01266 0.74947 0.56873 0.0
C33 C 1.00378 0.70936 0.51253 0.0
H34 H 0.03606 0.72966 0.22674 0.0
C35 C 1.00563 0.69023 0.42624 0.0
H36 H 0.99724 0.67015 0.44115 0.0
H37 H 0.9947 0.70364 0.5922 0.0
H38 H 0.78749 0.05643 0.26745 0.0
C39 C 0.7733 0.05049 0.33285 0.0
C40 C 0.75008 0.06705 0.35121 0.0
C41 C 0.77717 0.02591 0.39357 0.0
H42 H 0.71124 0.07037 0.43761 0.0
C43 C 0.73008 0.05868 0.42841 0.0
C44 C 0.73246 0.03417 0.48645 0.0
C45 C 0.75631 1.0182 0.472 0.0
C46 C 0.80164 1.00754 0.36887 0.0
H47 H 0.75799 0.99973 0.52108 0.0
C48 C 0.82614 1.01721 0.3163 0.0
C49 C 0.84812 0.99918 0.28907 0.0
C50 C 0.80019 0.97943 0.39386 0.0
H51 H 0.78191 0.9703 0.42828 0.0
C52 C 0.82221 0.96199 0.37257 0.0
H53 H 0.82817 0.03852 0.29478 0.0
C54 C 0.84591 0.97169 0.32163 0.0
H55 H 0.86254 0.95738 0.30717 0.0
H56 H 0.82072 0.94059 0.39427 0.0
H57 H 0.48268 0.79376 0.28313 0.0
C58 C 0.49102 0.77763 0.33482 0.0
C59 C 0.47778 0.7523 0.33356 0.0
C60 C 0.51462 0.78176 0.40173 0.0
H61 H 0.4776 0.71124 0.3967 0.0
C62 C 0.48759 0.73098 0.40033 0.0
C63 C 0.51128 0.73366 0.46416 0.0
C64 C 0.52481 0.75906 0.46521 0.0
C65 C 0.52868 0.80931 0.40413 0.0
H66 H 0.5437 0.76054 0.51202 0.0
C67 C 0.52598 0.82888 0.31584 0.0
C68 C 0.53919 0.85471 0.32051 0.0
C69 C 0.54474 0.81655 0.4975 0.0
H70 H 0.54667 0.80326 0.56953 0.0
C71 C 0.5585 0.84136 0.50108 0.0
H72 H 0.5136 0.82418 0.24358 0.0
C73 C 0.55606 0.86006 0.41363 0.0
H74 H 0.56772 0.87872 0.41957 0.0
H75 H 0.57116 0.84621 0.57285 0.0
H76 H 0.29356 0.55605 0.26683 0.0
C77 C 0.27767 0.54928 0.21011 0.0
C78 C 0.25038 0.55568 0.23546 0.0
C79 C 0.28439 0.53539 0.10971 0.0
H80 H 0.20836 0.55326 0.18298 0.0
C81 C 0.22943 0.54797 0.16235 0.0
C82 C 0.23513 0.53446 0.06171 0.0
C83 C 0.26272 0.52818 0.03505 0.0
C84 C 0.31403 0.53022 0.08046 0.0
H85 H 0.26709 0.51756 0.95715 0.0
C86 C 0.33427 0.52514 0.16411 0.0
C87 C 0.36222 0.52138 0.13442 0.0
C88 C 0.32252 0.53165 0.96751 0.0
H89 H 0.3081 0.53631 0.90129 0.0
C90 C 0.34996 0.52798 0.93807 0.0
H91 H 0.32836 0.52357 0.25164 0.0
C92 C 0.3696 0.52295 0.02026 0.0
H93 H 0.39079 0.52067 0.99429 0.0
H94 H 0.35612 0.52937 0.85077 0.0
H95 H 0.98032 0.28731 0.26646 0.0
C96 C 0.98775 0.27201 0.20797 0.0
C97 C 0.97841 0.24522 0.22013 0.0
C98 C 1.00575 0.279 0.11932 0.0
H99 H 0.98002 0.20417 0.15589 0.0
C100 C 0.98701 0.22501 0.14461 0.0
C101 C 1.00487 0.23085 0.05641 0.0
C102 C 1.01435 0.2579 0.04357 0.0
C103 C 1.01431 0.30837 0.10398 0.0
H104 H 0.02858 0.2622 0.976 0.0
C105 C 1.01573 0.32709 0.1957 0.0
C106 C 1.02191 0.3551 0.17871 0.0
C107 C 1.01975 0.31836 0.99541 0.0
H108 H 1.01813 0.30534 0.92229 0.0
C109 C 1.0265 0.34565 0.97831 0.0
H110 H 1.01236 0.31991 0.28052 0.0
C111 C 0.02751 0.36382 0.06833 0.0
H112 H 0.03207 0.38494 0.05012 0.0
H113 H 0.03046 0.35294 0.89395 0.0
H114 H 0.25941 1.00145 0.3169 0.0
C115 C 0.27547 1.00896 0.26217 0.0
C116 C 0.30217 1.00947 0.30281 0.0
C117 C 0.2697 1.01693 0.15109 0.0
H118 H 0.34407 1.01813 0.26809 0.0
C119 C 0.32368 1.01746 0.23258 0.0
C120 C 0.31968 1.02239 0.11745 0.0
C121 C 0.29219 1.02306 0.0779 0.0
C122 C 0.24033 1.01657 0.11243 0.0
H123 H 0.2884 0.0278 0.99061 0.0
C124 C 0.21829 1.02188 0.18843 0.0
C125 C 0.19063 1.0194 0.15474 0.0
C126 C 0.23389 1.0093 1.00131 0.0
H127 H 0.24983 1.0044 0.94102 0.0
C128 C 0.20663 1.00721 0.96709 0.0
H129 H 0.22252 0.02823 0.27375 0.0
C130 C 0.18523 1.01204 0.04282 0.0
H131 H 0.16435 1.00952 0.01401 0.0
H132 H 0.20206 1.00132 0.88152 0.0
H133 H 0.55554 0.26524 0.29164 0.0
C134 C 0.54757 0.28148 0.23915 0.0
C135 C 0.55797 0.30776 0.25291 0.0
C136 C 0.52828 0.27596 0.15419 0.0
H137 H 0.55728 0.34934 0.19549 0.0
C138 C 0.54906 0.32899 0.18336 0.0
C139 C 0.5298 0.32465 0.0989 0.0
C140 C 0.51912 0.29802 0.0848 0.0
C141 C 0.52057 0.24673 0.13164 0.0
H142 H 0.50433 0.29446 0.01886 0.0
C143 C 0.5188 0.22701 0.21932 0.0
C144 C 0.51608 0.19863 0.19584 0.0
C145 C 0.51804 0.23774 0.02016 0.0
H146 H 0.51976 0.25186 0.9506 0.0
C147 C 0.51491 0.21011 0.99599 0.0
H148 H 0.5197 0.2339 0.30554 0.0
C149 C 0.51447 0.19078 0.08196 0.0
H150 H 0.51359 0.16955 0.05743 0.0
H151 H 0.51372 0.20348 0.90933 0.0
Tb152 Tb 0.04782 1.01748 0.88087 0.0
Eu153 Eu 1.00839 0.03123 0.66857 0.0
C154 C 0.07342 1.02316 0.63543 0.0
C155 C 0.02984 0.07862 0.83551 0.0
C156 C 0.09838 0.9819 0.05376 0.0
C157 C 0.11915 0.94083 0.97555 0.0
C158 C 0.10625 0.9661 0.96038 0.0
C159 C 0.10542 0.97319 0.16174 0.0
C160 C 0.11833 0.94797 0.17708 0.0
C161 C 0.12417 0.93089 0.08443 0.0
C162 C 0.07956 1.00511 0.03988 0.0
O163 O 1.00692 0.02605 0.95304 0.0
O164 O 0.98313 1.01082 0.80194 0.0
O165 O 1.02027 0.98705 0.63893 0.0
O166 O 0.03602 0.97722 0.81696 0.0
C167 C 0.98413 1.01672 0.90893 0.0
O168 O 0.96783 0.02859 0.59317 0.0
O169 O 0.99993 0.05067 0.50743 0.0
O170 O 0.05148 0.03642 0.6016 0.0
O171 O 0.07387 1.01063 0.73318 0.0
O172 O 0.04953 0.06181 0.86602 0.0
O173 O 1.00931 0.07006 0.7737 0.0
C174 C 0.02844 0.96942 0.71555 0.0
O175 O 0.08581 1.0224 0.96082 0.0
O176 O 0.05369 0.99863 0.03733 0.0
C177 C 0.95585 0.0694 0.50209 0.0
C178 C 0.92981 0.12036 0.47749 0.0
C179 C 0.93563 0.11016 0.58515 0.0
C180 C 0.94855 0.08481 0.59738 0.0
C181 C 0.94881 0.07881 0.39532 0.0
C182 C 0.93563 0.10395 0.38296 0.0
C183 C 0.97379 0.04549 0.5125 0.0
H184 H 0.12359 0.92835 0.90249 0.0
H185 H 0.1009 0.97249 0.87609 0.0
H186 H 0.09926 0.98497 0.2347 0.0
H187 H 0.12149 0.94094 0.26232 0.0
H188 H 0.93159 0.12244 0.6592 0.0
H189 H 0.95415 0.07794 0.68075 0.0
H190 H 0.95503 0.06746 0.32128 0.0
H191 H 0.93208 0.11149 0.29867 0.0
Tb192 Tb 0.53333 0.04793 0.83798 0.0
Eu193 Eu 0.51222 1.00191 0.65873 0.0
C194 C 0.51568 0.06463 0.59296 0.0
C195 C 0.47068 0.02987 0.8372 0.0
C196 C 0.58132 0.09201 0.97983 0.0
C197 C 0.61779 0.12496 0.00816 0.0
C198 C 0.58977 0.11887 1.00092 0.0
C199 C 0.60105 0.07144 0.96515 0.0
C200 C 0.6288 0.07747 0.97157 0.0
C201 C 0.6376 0.1043 0.99254 0.0
C202 C 0.55243 0.08569 0.95851 0.0
O203 O 0.54462 1.00895 0.91629 0.0
O204 O 0.51316 0.98174 0.82884 0.0
O205 O 0.55815 1.0005 0.63797 0.0
O206 O 0.57084 0.03764 0.74457 0.0
C207 C 0.53065 0.98604 0.91019 0.0
O208 O 0.51189 0.9593 0.60501 0.0
O209 O 0.48792 0.98942 0.51458 0.0
O210 O 0.52054 0.03977 0.55667 0.0
O211 O 0.51259 0.06947 0.70088 0.0
O212 O 0.49191 0.03799 0.89657 0.0
O213 O 0.47356 1.0204 0.73443 0.0
C214 C 0.57683 1.01746 0.67534 0.0
O215 O 0.54527 0.08883 0.85427 0.0
O216 O 0.54347 0.06264 0.99887 0.0
C217 C 0.46717 0.94777 0.55182 0.0
C218 C 0.41185 0.93351 0.57476 0.0
C219 C 0.4269 0.9416 0.66929 0.0
C220 C 0.45439 0.94879 0.65777 0.0
C221 C 0.45324 0.93657 0.4605 0.0
C222 C 0.42574 0.92929 0.47203 0.0
C223 C 0.49222 0.96347 0.53302 0.0
H224 H 0.62394 0.14575 0.02547 0.0
H225 H 0.57477 0.1351 0.0104 0.0
H226 H 0.59501 0.05062 0.94766 0.0
H227 H 0.64337 0.06084 0.96278 0.0
H228 H 0.41674 0.94499 0.74928 0.0
H229 H 0.46487 0.9575 0.72935 0.0
H230 H 0.4628 0.93577 0.3782 0.0
H231 H 0.41466 0.92336 0.39723 0.0
Tb232 Tb 0.51321 0.53353 0.82617 0.0
Eu233 Eu 0.54806 0.51483 0.60727 0.0
C234 C 0.48298 0.52228 0.59463 0.0
C235 C 0.53149 0.47155 0.79898 0.0
C236 C 0.46841 0.57737 0.98969 0.0
C237 C 0.455 0.61951 0.89656 0.0
C238 C 0.46442 0.59257 0.89094 0.0
C239 C 0.46092 0.5887 0.09336 0.0
C240 C 0.45144 0.61567 0.09911 0.0
C241 C 0.44951 0.63175 1.00115 0.0
C242 C 0.48424 0.55181 0.98523 0.0
O243 O 0.55484 0.52593 0.8904 0.0
O244 O 0.57665 0.53598 0.72639 0.0
O245 O 0.53356 0.55708 0.56552 0.0
O246 O 0.52678 0.57201 0.74615 0.0
C247 C 0.57718 0.533 0.83575 0.0
O248 O 0.58512 0.51897 0.50538 0.0
O249 O 0.5547 0.48894 0.46073 0.0
O250 O 0.50381 0.50724 0.56103 0.0
O251 O 0.48498 0.53778 0.68442 0.0
O252 O 0.51185 0.48839 0.8323 0.0
O253 O 0.55061 0.47986 0.72929 0.0
C254 C 0.53018 0.57707 0.63792 0.0
O255 O 0.4757 0.53353 0.91399 0.0
O256 O 0.51066 0.55521 0.97799 0.0
C257 C 0.60048 0.47601 0.44247 0.0
C258 C 0.62824 0.42564 0.44168 0.0
C259 C 0.62369 0.43959 0.54335 0.0
C260 C 0.60985 0.46463 0.54373 0.0
C261 C 0.60737 0.46357 0.34052 0.0
C262 C 0.62143 0.43871 0.33992 0.0
C263 C 0.57962 0.49761 0.44441 0.0
H264 H 0.45362 0.63127 0.81971 0.0
H265 H 0.47021 0.58418 0.80995 0.0
H266 H 0.46405 0.57734 0.17039 0.0
H267 H 0.44781 0.62454 0.18127 0.0
H268 H 0.62866 0.43004 0.62285 0.0
H269 H 0.60455 0.47399 0.6235 0.0
H270 H 0.59991 0.47185 0.26191 0.0
H271 H 0.62417 0.42841 0.26005 0.0
Tb272 Tb 1.0208 0.50076 0.8591 0.0
Eu273 Eu 0.03617 0.54694 0.67126 0.0
C274 C 0.03126 0.48313 0.60708 0.0
C275 C 0.08276 0.51816 0.82604 0.0
C276 C 0.97936 0.45218 0.01913 0.0
C277 C 0.95188 0.4145 0.08923 0.0
C278 C 0.97757 0.42642 0.06986 0.0
C279 C 0.95535 0.46553 0.9855 0.0
C280 C 0.9299 0.45384 1.00456 0.0
C281 C 0.92762 0.42834 0.05837 0.0
C282 C 1.0059 0.46576 1.00267 0.0
O283 O 0.03161 0.53787 0.95254 0.0
O284 O 1.01886 0.56914 0.82139 0.0
O285 O 0.99213 0.53616 0.63192 0.0
O286 O 0.98132 0.51734 0.80355 0.0
C287 C 1.02466 0.56302 0.92556 0.0
O288 O 0.03581 0.58978 0.62076 0.0
O289 O 0.05479 0.55969 0.51276 0.0
O290 O 0.04493 0.50587 0.5909 0.0
O291 O 1.01605 0.47984 0.69745 0.0
O292 O 0.06542 0.49826 0.84683 0.0
O293 O 0.07491 0.54059 0.7741 0.0
C294 C 0.97401 0.52671 0.7041 0.0
O295 O 1.01903 0.4596 0.91058 0.0
O296 O 1.00567 0.49203 0.02007 0.0
C297 C 0.07722 0.60141 0.53215 0.0
C298 C 0.13155 0.61979 0.515 0.0
C299 C 0.12087 0.61168 0.61955 0.0
C300 C 0.09392 0.60244 0.62794 0.0
C301 C 0.0869 0.61196 0.43045 0.0
C302 C 0.11383 0.6212 0.4219 0.0
C303 C 0.05178 0.5856 0.53454 0.0
H304 H 0.95101 0.39493 0.13129 0.0
H305 H 0.99591 0.41595 0.09727 0.0
H306 H 0.95617 0.48566 0.94857 0.0
H307 H 0.91198 0.46583 0.98295 0.0
H308 H 0.13393 0.61056 0.69286 0.0
H309 H 0.08676 0.59441 0.70754 0.0
H310 H 0.07439 0.61124 0.35568 0.0
H311 H 0.1214 0.62698 0.33968 0.0
H312 H 0.18551 1.00194 0.37332 0.0
H313 H 0.14261 0.04699 0.11642 0.0
H314 H 0.10309 0.05239 0.24089 0.0
H315 H 0.07996 0.04357 0.42179 0.0
H316 H 0.12265 0.99815 0.6786 0.0
H317 H 0.16264 0.99387 0.55603 0.0
C318 C 0.16767 1.01325 0.34506 0.0
C319 C 0.16724 1.02403 0.23511 0.0
C320 C 0.14473 1.01616 0.41725 0.0
C321 C 0.14361 0.03826 0.19991 0.0
C322 C 0.12094 0.04146 0.27138 0.0
C323 C 0.09802 0.03282 0.45142 0.0
C324 C 0.09804 1.02123 0.56003 0.0
C325 C 0.12113 0.03032 0.38003 0.0
C326 C 0.12179 1.00731 0.59587 0.0
C327 C 0.14481 1.00483 0.5256 0.0
H328 H 0.4937 0.1466 0.19231 0.0
H329 H 0.53886 0.20089 0.40982 0.0
H330 H 0.54057 0.16553 0.55291 0.0
H331 H 0.53156 0.11794 0.61461 0.0
H332 H 0.49273 0.06228 0.38482 0.0
H333 H 0.48737 0.09903 0.24741 0.0
C334 C 0.50455 0.15092 0.26936 0.0
C335 C 0.51619 0.17703 0.28743 0.0
C336 C 0.50687 0.12987 0.34986 0.0
C337 C 0.52909 0.18164 0.39177 0.0
C338 C 0.53043 0.16113 0.47413 0.0
C339 C 0.52181 0.11393 0.53459 0.0
C340 C 0.51236 0.08736 0.51053 0.0
C341 C 0.51964 0.13505 0.45386 0.0
C342 C 0.50019 0.08244 0.40566 0.0
C343 C 0.49707 0.10351 0.32706 0.0
H344 H 0.37147 0.5473 0.33658 0.0
H345 H 0.403 0.48319 0.12282 0.0
H346 H 0.44249 0.47742 0.24557 0.0
H347 H 0.46965 0.49197 0.40862 0.0
H348 H 0.43835 0.55584 0.62442 0.0
H349 H 0.39757 0.56006 0.50732 0.0
C350 C 0.38674 0.53176 0.31799 0.0
C351 C 0.38421 0.51588 0.21957 0.0
C352 C 0.40976 0.5286 0.38916 0.0
C353 C 0.40446 0.49599 0.19681 0.0
C354 C 0.42714 0.49264 0.26718 0.0
C355 C 0.45388 0.50673 0.43062 0.0
C356 C 0.45738 0.52361 0.52552 0.0
C357 C 0.4303 0.50911 0.36262 0.0
C358 C 0.43646 0.54253 0.55218 0.0
C359 C 0.41301 0.54501 0.48496 0.0
H360 H 0.0544 0.40047 0.20623 0.0
H361 H 0.98826 0.35676 0.36591 0.0
H362 H 0.98574 0.39159 0.51273 0.0
H363 H 1.0012 0.43564 0.59341 0.0
H364 H 0.06544 0.4802 0.42484 0.0
H365 H 0.06908 0.44438 0.2833 0.0
C366 C 0.03917 0.3985 0.2722 0.0
C367 C 1.02155 0.37565 0.27351 0.0
C368 C 0.03726 0.41909 0.35506 0.0
C369 C 1.00249 0.37362 0.36242 0.0
C370 C 1.00081 0.39379 0.44628 0.0
C371 C 1.01604 0.43754 0.52588 0.0
C372 C 0.03303 0.46083 0.52078 0.0
C373 C 1.01795 0.41677 0.44319 0.0
C374 C 0.05201 0.46274 0.43174 0.0
C375 C 0.05418 0.44215 0.35043 0.0
H376 H 0.87639 0.97041 0.12956 0.0
H377 H 0.87633 0.04835 0.29872 0.0
H378 H 0.91816 0.06094 0.19703 0.0
H379 H 0.95726 0.04835 0.06881 0.0
H380 H 0.95544 0.97022 0.90177 0.0
H381 H 0.91328 0.95851 1.00054 0.0
C382 C 0.88577 0.98995 0.14722 0.0
C383 C 0.8732 1.00805 0.22449 0.0
C384 C 0.91036 0.99668 0.09183 0.0
C385 C 0.88532 0.03379 0.24063 0.0
C386 C 0.90965 0.04086 0.18389 0.0
C387 C 0.94775 0.02866 0.05555 0.0
C388 C 0.95978 1.00996 0.97917 0.0
C389 C 0.92279 1.02223 0.11104 0.0
C390 C 0.9468 0.98484 0.96064 0.0
C391 C 0.92259 0.97816 0.01682 0.0
H392 H 0.54199 0.91096 0.34047 0.0
H393 H 0.52868 0.84773 0.09289 0.0
H394 H 0.52378 0.88242 0.94786 0.0
H395 H 0.52447 0.93086 0.88842 0.0
H396 H 0.54351 0.99316 0.13174 0.0
H397 H 0.54604 0.95854 0.27974 0.0
C398 C 0.53866 0.90436 0.25477 0.0
C399 C 0.53583 0.87618 0.22982 0.0
C400 C 0.53713 0.92442 0.16989 0.0
C401 C 0.53047 0.86891 0.11732 0.0
C402 C 0.52797 0.88886 0.03322 0.0
C403 C 0.52928 0.93685 0.97383 0.0
C404 C 0.53375 0.96468 0.99878 0.0
C405 C 0.53139 0.91667 0.05828 0.0
C406 C 0.54017 0.97197 0.1098 0.0
C407 C 0.54148 0.95215 0.19464 0.0
H408 H 0.69426 0.56983 1.00252 0.0
H409 H 0.67341 0.51996 0.28777 0.0
H410 H 0.62904 0.50914 0.20147 0.0
H411 H 0.59541 0.51486 0.04417 0.0
H412 H 0.61856 0.56448 0.75967 0.0
H413 H 0.66232 0.57437 0.84644 0.0
C414 C 0.68006 0.55645 0.04574 0.0
C415 C 0.68714 0.54584 0.15173 0.0
C416 C 0.65474 0.55034 0.9957 0.0
C417 C 0.6686 0.52826 0.2058 0.0
C418 C 0.64313 0.52222 0.15665 0.0
C419 C 0.61001 0.52792 1.00165 0.0
C420 C 0.60343 0.53896 0.89521 0.0
C421 C 0.63578 0.53335 0.05177 0.0
C422 C 0.62286 0.55558 0.84108 0.0
C423 C 0.64804 0.56131 0.89069 0.0
H424 H 0.02746 0.64186 0.34853 0.0
H425 H 1.01344 0.70264 0.09199 0.0
H426 H 1.01483 0.66703 0.9481 0.0
H427 H 1.01841 0.61829 0.89478 0.0
H428 H 0.03025 0.55766 0.15347 0.0
H429 H 0.02987 0.59341 0.29635 0.0
C430 C 1.02431 0.6475 0.26147 0.0
C431 C 1.02014 0.67526 0.23252 0.0
C432 C 1.02441 0.62678 0.17901 0.0
C433 C 1.01702 0.68175 0.11797 0.0
C434 C 1.01754 0.66127 0.03528 0.0
C435 C 1.02096 0.61284 0.98241 0.0
C436 C 1.02435 0.58509 0.01268 0.0
C437 C 1.021 0.63367 0.06479 0.0
C438 C 0.0277 0.57867 0.12698 0.0
C439 C 0.0276 0.5992 0.20904 0.0
H440 H 0.92701 0.22587 0.21169 0.0
H441 H 0.99288 0.24335 0.43962 0.0
H442 H 0.9767 0.2079 0.56771 0.0
H443 H 0.95424 0.16339 0.57708 0.0
H444 H 0.89182 0.14293 0.33612 0.0
H445 H 0.8956 0.18821 0.25203 0.0
C446 C 0.93678 0.22285 0.29258 0.0
C447 C 0.96132 0.23655 0.31582 0.0
C448 C 0.92846 0.20121 0.36135 0.0
C449 C 0.974 0.23283 0.4203 0.0
C450 C 0.96501 0.21222 0.49244 0.0
C451 C 0.94048 0.1693 0.50985 0.0
C452 C 0.9234 0.14964 0.46029 0.0
C453 C 0.94379 0.19483 0.4586 0.0
C454 C 0.9056 0.15759 0.37362 0.0
C455 C 0.90788 0.18341 0.32521 0.0
H456 H 0.3034 0.95608 0.3455 0.0
H457 H 0.31925 0.0345 0.49422 0.0
H458 H 0.35069 1.01342 0.62862 0.0
H459 H 0.38349 0.97647 0.65627 0.0
H460 H 0.373 0.89983 0.4835 0.0
H461 H 0.32923 0.91585 0.40834 0.0
C462 C 0.31267 0.96818 0.41153 0.0
C463 C 0.30938 0.99666 0.41047 0.0
C464 C 0.33232 0.95621 0.48182 0.0
C465 C 0.3216 1.01249 0.49452 0.0
C466 C 0.33984 1.00046 0.57001 0.0
C467 C 0.371 0.96272 0.60683 0.0
C468 C 0.38172 0.93726 0.57288 0.0
C469 C 0.34696 0.97281 0.55787 0.0
C470 C 0.36531 0.91969 0.5089 0.0
C471 C 0.34044 0.92898 0.46516 0.0
H472 H 0.61144 0.31756 0.22015 0.0
H473 H 0.54889 0.31486 0.47562 0.0
H474 H 0.57369 0.34848 0.58717 0.0
H475 H 0.60276 0.38867 0.57333 0.0
H476 H 0.66186 0.39509 0.30439 0.0
H477 H 0.64977 0.34951 0.23887 0.0
C478 C 0.60423 0.32322 0.30342 0.0
C479 C 0.57832 0.31438 0.33943 0.0
C480 C 0.61767 0.34387 0.36284 0.0
C481 C 0.56883 0.32161 0.44676 0.0
C482 C 0.58281 0.34116 0.5095 0.0
C483 C 0.61412 0.37956 0.50414 0.0
C484 C 0.63233 0.39562 0.44062 0.0
C485 C 0.60581 0.35412 0.46309 0.0
C486 C 0.64716 0.38335 0.35242 0.0
C487 C 0.64004 0.35739 0.3143 0.0
H488 H 0.23771 0.60889 0.24481 0.0
H489 H 0.24301 0.53614 0.44606 0.0
H490 H 0.2093 0.55488 0.5781 0.0
H491 H 0.16934 0.58473 0.59723 0.0
H492 H 0.16105 0.65564 0.38535 0.0
H493 H 0.20518 0.64527 0.29708 0.0
C494 C 0.23252 0.59793 0.32116 0.0
C495 C 0.24243 0.57124 0.33617 0.0
C496 C 0.21195 0.60818 0.39231 0.0
C497 C 0.23559 0.55682 0.4339 0.0
C498 C 0.216 0.56737 0.50816 0.0
C499 C 0.17778 0.59876 0.53607 0.0
C500 C 0.16161 0.62049 0.49566 0.0
C501 C 0.20258 0.59203 0.48292 0.0
C502 C 0.17284 0.63838 0.41575 0.0
C503 C 0.19802 0.63239 0.36502 0.0
H504 H 0.12121 0.82304 0.34018 0.0
H505 H 0.06296 0.80566 0.07955 0.0
H506 H 0.08155 0.84254 0.96501 0.0
H507 H 0.10254 0.88773 0.97253 0.0
H508 H 0.15799 0.90754 0.24197 0.0
H509 H 0.15261 0.86174 0.31927 0.0
C510 C 0.11381 0.82635 0.25536 0.0
C511 C 0.09037 0.8123 0.21915 0.0
C512 C 0.12331 0.84884 0.19393 0.0
C513 C 0.08089 0.81641 0.10926 0.0
C514 C 0.09115 0.83792 0.04482 0.0
C515 C 0.11454 0.88173 0.04504 0.0
C516 C 0.12985 0.90139 0.1039 0.0
C517 C 0.11061 0.85567 0.09107 0.0
C518 C 0.14534 0.89306 0.1973 0.0
C519 C 0.14226 0.86685 0.2416 0.0
H520 H 0.7509 0.0675 0.12331 0.0
H521 H 0.73185 0.11799 0.41 0.0
H522 H 0.69618 0.14141 0.30374 0.0
H523 H 0.66133 0.13462 0.15744 0.0
H524 H 0.68093 0.08523 0.86814 0.0
H525 H 0.72589 0.07461 0.94629 0.0
C526 C 0.74013 0.08473 0.16043 0.0
C527 C 0.74283 0.09006 0.27584 0.0
C528 C 0.71905 0.09751 0.09976 0.0
C529 C 0.72934 0.11296 0.32195 0.0
C530 C 0.70865 0.12611 0.26168 0.0
C531 C 0.6759 0.12269 0.10865 0.0
C532 C 0.66727 0.10913 0.011 0.0
C533 C 0.7017 0.11663 0.15446 0.0
C534 C 0.6867 0.09448 0.94709 0.0
C535 C 0.71244 0.08849 0.99156 0.0
H536 H 0.48594 0.74798 0.11165 0.0
H537 H 0.42461 0.73761 0.36844 0.0
H538 H 0.40469 0.69969 0.26423 0.0
H539 H 0.41497 0.66142 0.13608 0.0
H540 H 0.47956 0.66995 0.89026 0.0
H541 H 0.48754 0.71655 0.95139 0.0
C542 C 0.46716 0.73852 0.1409 0.0
C543 C 0.45715 0.74493 0.24852 0.0
C544 C 0.45712 0.71551 0.08435 0.0
C545 C 0.43273 0.73277 0.28588 0.0
C546 C 0.42176 0.71064 0.22748 0.0
C547 C 0.43017 0.67383 0.09366 0.0
C548 C 0.44721 0.66192 0.0113 0.0
C549 C 0.43538 0.70041 0.13222 0.0
C550 C 0.46632 0.67844 0.95471 0.0
C551 C 0.47108 0.70513 0.99035 0.0
H552 H 0.8295 0.43682 0.36731 0.0
H553 H 0.80038 0.47907 0.07296 0.0
H554 H 0.83239 0.45346 0.95614 0.0
H555 H 0.87842 0.43348 0.95088 0.0
H556 H 0.91433 0.40308 0.25752 0.0
H557 H 0.87062 0.40827 0.35363 0.0
C558 C 0.82957 0.4397 0.27689 0.0
C559 C 0.8137 0.46091 0.23005 0.0
C560 C 0.85033 0.42741 0.21232 0.0
C561 C 0.81284 0.46346 0.11236 0.0
C562 C 0.8316 0.44911 0.04539 0.0
C563 C 0.87651 0.42742 0.03822 0.0
C564 C 0.90007 0.41941 0.09826 0.0
C565 C 0.85215 0.43331 0.09638 0.0
C566 C 0.89687 0.40999 0.20923 0.0
C567 C 0.87183 0.41334 0.26509 0.0
H568 H 0.0411 0.19034 0.10122 0.0
H569 H 0.98385 0.21772 0.85097 0.0
H570 H 0.98651 0.17307 0.75721 0.0
H571 H 1.00184 0.12434 0.75815 0.0
H572 H 0.05973 0.09812 0.01013 0.0
H573 H 0.06003 0.14375 0.09066 0.0
C574 C 0.03001 0.18681 0.02374 0.0
C575 C 1.01282 0.20758 0.98162 0.0
C576 C 0.03125 0.1609 0.97186 0.0
C577 C 0.99783 0.20239 0.88327 0.0
C578 C 0.99903 0.17666 0.83072 0.0
C579 C 1.01468 0.12867 0.83011 0.0
C580 C 0.03059 0.10746 0.87803 0.0
C581 C 1.01509 0.15542 0.87608 0.0
C582 C 0.04724 0.11375 0.97088 0.0
C583 C 0.04746 0.13998 0.01743 0.0
H584 H 0.37025 0.99821 0.14289 0.0
H585 H 0.32635 0.05171 0.91726 0.0
H586 H 0.36832 0.05739 0.80558 0.0
H587 H 0.41902 0.04926 0.77887 0.0
H588 H 0.46222 1.0015 0.02642 0.0
H589 H 0.41934 0.99269 0.12551 0.0
C590 C 0.3696 1.012 0.07184 0.0
C591 C 0.34473 0.02518 0.0422 0.0
C592 C 0.3941 1.01649 0.01212 0.0
C593 C 0.34481 0.04127 0.94393 0.0
C594 C 0.36902 0.04476 0.88022 0.0
C595 C 0.41892 0.03707 0.85484 0.0
C596 C 0.44389 0.02616 0.89572 0.0
C597 C 0.394 0.03283 0.91454 0.0
C598 C 0.44344 1.01038 0.99405 0.0
C599 C 0.41887 1.00521 0.05045 0.0
H600 H 0.56318 0.35161 0.95596 0.0
H601 H 0.48108 0.35307 0.08879 0.0
H602 H 0.47374 0.3988 0.00841 0.0
H603 H 0.49242 0.44031 0.91207 0.0
H604 H 0.57503 0.43703 0.78035 0.0
H605 H 0.58029 0.39064 0.84817 0.0
C606 C 0.54339 0.36162 0.96446 0.0
C607 C 0.52255 0.34866 0.02667 0.0
C608 C 0.53959 0.38807 0.91995 0.0
C609 C 0.49724 0.36222 0.0391 0.0
C610 C 0.49321 0.3886 0.99444 0.0
C611 C 0.51153 0.42943 0.89809 0.0
C612 C 0.53334 0.44267 0.84154 0.0
C613 C 0.5145 0.4021 0.93685 0.0
C614 C 0.55782 0.42783 0.82354 0.0
C615 C 0.56093 0.40107 0.86233 0.0
H616 H 0.19287 0.4998 0.09805 0.0
H617 H 0.22322 0.55871 0.86084 0.0
H618 H 0.17883 0.55894 0.76446 0.0
H619 H 0.12964 0.54538 0.75843 0.0
H620 H 0.10057 0.48514 0.99458 0.0
H621 H 0.14582 0.48244 0.07936 0.0
C622 C 0.19001 0.512 0.02291 0.0
C623 C 0.2115 0.52888 0.98565 0.0
C624 C 0.16433 0.51218 0.9686 0.0
C625 C 0.20728 0.54506 0.8897 0.0
C626 C 0.18172 0.54546 0.83546 0.0
C627 C 0.13328 0.53148 0.82777 0.0
C628 C 0.11141 0.51563 0.87016 0.0
C629 C 0.15979 0.52963 0.87584 0.0
C630 C 0.11677 0.49759 0.95961 0.0
C631 C 0.14276 0.49603 0.0086 0.0
H632 H 0.05857 0.84506 0.62831 0.0
H633 H 0.99346 0.85271 0.3874 0.0
H634 H 0.98448 0.89964 0.45028 0.0
H635 H 0.99846 0.94023 0.56135 0.0
H636 H 0.0629 0.93159 0.80629 0.0
H637 H 0.0688 0.88368 0.75492 0.0
C638 C 0.04174 0.8567 0.59274 0.0
C639 C 1.02627 0.84519 0.50503 0.0
C640 C 0.03702 0.88384 0.62835 0.0
C641 C 1.0051 0.86081 0.45711 0.0
C642 C 1.00029 0.88783 0.49191 0.0
C643 C 1.01367 0.9278 0.60388 0.0
C644 C 0.03041 0.93974 0.68686 0.0
C645 C 1.01666 0.89987 0.57523 0.0
C646 C 0.04974 0.92312 0.7421 0.0
C647 C 0.05316 0.89562 0.71269 0.0
H648 H 0.68892 1.00635 0.40734 0.0
H649 H 0.72005 0.04439 0.7066 0.0
H650 H 0.67464 0.04108 0.79532 0.0
H651 H 0.62467 0.03324 0.7774 0.0
H652 H 0.59389 0.99486 0.47725 0.0
H653 H 0.64018 0.99303 0.39879 0.0
C654 C 0.68591 1.01311 0.49337 0.0
C655 C 0.70796 1.02506 0.55127 0.0
C656 C 0.6595 1.01209 0.54213 0.0
C657 C 0.7036 0.03454 0.66136 0.0
C658 C 0.67749 0.03317 0.71116 0.0
C659 C 0.62812 1.0243 0.69521 0.0
C660 C 0.6056 1.01454 0.63295 0.0
C661 C 0.65504 1.02295 0.65079 0.0
C662 C 0.61066 1.00262 0.52719 0.0
C663 C 0.63721 1.00158 0.48202 0.0
H664 H 0.52759 0.68743 0.36175 0.0
H665 H 0.51637 0.7225 0.69041 0.0
H666 H 0.52218 0.6771 0.77617 0.0
H667 H 0.52559 0.62627 0.75438 0.0
H668 H 0.53529 0.59284 0.42009 0.0
H669 H 0.53437 0.63834 0.34085 0.0
C670 C 0.52713 0.68522 0.4525 0.0
C671 C 0.5219 0.70837 0.51962 0.0
C672 C 0.52942 0.65906 0.50028 0.0
C673 C 0.5209 0.70514 0.63694 0.0
C674 C 0.52374 0.67906 0.68572 0.0
C675 C 0.5277 0.62896 0.66435 0.0
C676 C 0.53036 0.60576 0.59389 0.0
C677 C 0.52721 0.65566 0.6179 0.0
C678 C 0.5331 0.60993 0.47724 0.0
C679 C 0.53266 0.63611 0.43124 0.0
H680 H 0.85138 0.4944 0.5979 0.0
H681 H 0.85533 0.56637 0.39115 0.0
H682 H 0.90179 0.57559 0.45963 0.0
H683 H 0.94336 0.56031 0.56514 0.0
H684 H 0.93832 0.48751 0.76743 0.0
H685 H 0.89071 0.4815 0.71423 0.0
C686 C 0.86216 0.5125 0.56996 0.0
C687 C 0.84977 0.52972 0.48979 0.0
C688 C 0.88905 0.51727 0.60771 0.0
C689 C 0.86413 0.553 0.45404 0.0
C690 C 0.89091 0.55803 0.49202 0.0
C691 C 0.93173 0.54328 0.59805 0.0
C692 C 0.94452 0.52455 0.67166 0.0
C693 C 0.90395 0.53985 0.56647 0.0
C694 C 0.92903 0.50263 0.71335 0.0
C695 C 0.90172 0.49902 0.68205 0.0
loop_
_geom_bond_atom_site_label_1
_geom_bond_atom_site_label_2
_geom_bond_distance
_geom_bond_site_symmetry_2
_ccdc_geom_bond_type
H0 C1 0.949 . S
C1 H0 0.949 . S
C1 C2 1.395 . S
C1 C3 1.391 . S
C2 C1 1.395 . S
C2 C5 1.390 . S
C3 C1 1.391 . S
C3 C7 1.387 . S
C3 C8 1.491 . S
H4 C5 0.950 . S
C5 C2 1.390 . S
C5 H4 0.950 . S
C5 C6 1.378 . S
C6 C5 1.378 . S
C6 C7 1.409 . S
C7 C3 1.387 . S
C7 C6 1.409 . S
C7 H9 0.951 . S
C8 C3 1.491 . S
C8 C10 1.382 . S
C8 C12 1.404 . S
H9 C7 0.951 . S
C10 C8 1.382 . S
C10 C11 1.390 . S
C10 H15 0.949 . S
C11 C10 1.390 . S
C11 C16 1.399 . S
C12 C8 1.404 . S
C12 H13 0.950 . S
C12 C14 1.375 . S
H13 C12 0.950 . S
C14 C12 1.375 . S
C14 C16 1.382 . S
C14 H18 0.950 . S
H15 C10 0.949 . S
C16 C11 1.399 . S
C16 C14 1.382 . S
C16 H17 0.952 . S
H17 C16 0.952 . S
H18 C14 0.950 . S
H19 C20 0.949 . S
C20 H19 0.949 . S
C20 C21 1.395 . S
C20 C22 1.391 . S
C21 C20 1.395 . S
C21 C24 1.390 1_655 S
C22 C20 1.391 . S
C22 C26 1.387 . S
C22 C27 1.491 . S
H23 C24 0.950 . S
C24 C21 1.390 1_455 S
C24 H23 0.950 . S
C24 C25 1.377 1_455 S
C25 C24 1.377 1_655 S
C25 C26 1.413 . S
C26 C22 1.387 . S
C26 C25 1.413 . S
C26 H28 0.951 . S
C27 C22 1.491 . S
C27 C29 1.382 . S
C27 C31 1.404 . S
H28 C26 0.951 . S
C29 C27 1.382 . S
C29 C30 1.390 . S
C29 H34 0.949 1_655 S
C30 C29 1.390 . S
C30 C35 1.399 . S
C31 C27 1.404 . S
C31 H32 0.950 . S
C31 C33 1.375 . S
H32 C31 0.950 . S
C33 C31 1.375 . S
C33 C35 1.382 . S
C33 H37 0.950 . S
H34 C29 0.949 1_455 S
C35 C30 1.399 . S
C35 C33 1.382 . S
C35 H36 0.952 . S
H36 C35 0.952 . S
H37 C33 0.950 . S
H38 C39 0.949 . S
C39 H38 0.949 . S
C39 C40 1.395 . S
C39 C41 1.391 . S
C40 C39 1.395 . S
C40 C43 1.390 1_565 S
C41 C39 1.391 . S
C41 C45 1.387 . S
C41 C46 1.491 . S
H42 C43 0.950 . S
C43 C40 1.390 1_545 S
C43 H42 0.950 . S
C43 C44 1.377 1_545 S
C44 C43 1.377 1_565 S
C44 C45 1.413 . S
C45 C41 1.387 . S
C45 C44 1.413 . S
C45 H47 0.951 . S
C46 C41 1.491 . S
C46 C48 1.382 . S
C46 C50 1.404 . S
H47 C45 0.951 . S
C48 C46 1.382 . S
C48 C49 1.390 . S
C48 H53 0.949 1_565 S
C49 C48 1.390 . S
C49 C54 1.399 . S
C50 C46 1.404 . S
C50 H51 0.950 . S
C50 C52 1.375 . S
H51 C50 0.950 . S
C52 C50 1.375 . S
C52 C54 1.382 . S
C52 H56 0.950 . S
H53 C48 0.949 1_545 S
C54 C49 1.399 . S
C54 C52 1.382 . S
C54 H55 0.952 . S
H55 C54 0.952 . S
H56 C52 0.950 . S
H57 C58 0.949 . S
C58 H57 0.949 . S
C58 C59 1.395 . S
C58 C60 1.391 . S
C59 C58 1.395 . S
C59 C62 1.390 . S
C60 C58 1.391 . S
C60 C64 1.387 . S
C60 C65 1.491 . S
H61 C62 0.950 . S
C62 C59 1.390 . S
C62 H61 0.950 . S
C62 C63 1.378 . S
C63 C62 1.378 . S
C63 C64 1.409 . S
C64 C60 1.387 . S
C64 C63 1.409 . S
C64 H66 0.951 . S
C65 C60 1.491 . S
C65 C67 1.382 . S
C65 C69 1.404 . S
H66 C64 0.951 . S
C67 C65 1.382 . S
C67 C68 1.390 . S
C67 H72 0.949 . S
C68 C67 1.390 . S
C68 C73 1.399 . S
C69 C65 1.404 . S
C69 H70 0.950 . S
C69 C71 1.375 . S
H70 C69 0.950 . S
C71 C69 1.375 . S
C71 C73 1.382 . S
C71 H75 0.950 . S
H72 C67 0.949 . S
C73 C68 1.399 . S
C73 C71 1.382 . S
C73 H74 0.952 . S
H74 C73 0.952 . S
H75 C71 0.950 . S
H76 C77 0.949 . S
C77 H76 0.949 . S
C77 C78 1.395 . S
C77 C79 1.391 1_554 S
C78 C77 1.395 . S
C78 C81 1.390 1_554 S
C79 C77 1.391 1_556 S
C79 C83 1.387 . S
C79 C84 1.491 . S
H80 C81 0.950 . S
C81 C78 1.390 1_556 S
C81 H80 0.950 . S
C81 C82 1.378 . S
C82 C81 1.378 . S
C82 C83 1.409 . S
C83 C79 1.387 . S
C83 C82 1.409 . S
C83 H85 0.951 . S
C84 C79 1.491 . S
C84 C86 1.382 1_556 S
C84 C88 1.404 . S
H85 C83 0.951 . S
C86 C84 1.382 1_554 S
C86 C87 1.390 . S
C86 H91 0.949 . S
C87 C86 1.390 . S
C87 C92 1.399 . S
C88 C84 1.404 . S
C88 H89 0.950 . S
C88 C90 1.375 . S
H89 C88 0.950 . S
C90 C88 1.375 . S
C90 C92 1.382 1_556 S
C90 H94 0.950 . S
H91 C86 0.949 . S
C92 C87 1.399 . S
C92 C90 1.382 1_554 S
C92 H93 0.952 . S
H93 C92 0.952 . S
H94 C90 0.950 . S
H95 C96 0.949 . S
C96 H95 0.949 . S
C96 C97 1.394 . S
C96 C98 1.391 1_554 S
C97 C96 1.394 . S
C97 C100 1.391 1_654 S
C98 C96 1.391 1_556 S
C98 C102 1.387 . S
C98 C103 1.491 . S
H99 C100 0.950 . S
C100 C97 1.391 1_456 S
C100 H99 0.950 . S
C100 C101 1.377 1_455 S
C101 C100 1.377 1_655 S
C101 C102 1.411 . S
C102 C98 1.387 . S
C102 C101 1.411 . S
C102 H104 0.951 . S
C103 C98 1.491 . S
C103 C105 1.377 1_556 S
C103 C107 1.409 . S
H104 C102 0.951 . S
C105 C103 1.377 1_554 S
C105 C106 1.390 . S
C105 H110 0.949 1_655 S
C106 C105 1.390 . S
C106 C111 1.399 . S
C107 C103 1.409 . S
C107 H108 0.950 . S
C107 C109 1.375 . S
H108 C107 0.950 . S
C109 C107 1.375 . S
C109 C111 1.382 1_556 S
C109 H113 0.950 . S
H110 C105 0.949 1_455 S
C111 C106 1.399 . S
C111 C109 1.382 1_554 S
C111 H112 0.952 . S
H112 C111 0.952 . S
H113 C109 0.950 . S
H114 C115 0.949 . S
C115 H114 0.949 . S
C115 C116 1.394 . S
C115 C117 1.391 1_554 S
C116 C115 1.394 . S
C116 C119 1.391 1_564 S
C117 C115 1.391 1_556 S
C117 C121 1.387 . S
C117 C122 1.491 . S
H118 C119 0.950 . S
C119 C116 1.391 1_546 S
C119 H118 0.950 . S
C119 C120 1.377 1_545 S
C120 C119 1.377 1_565 S
C120 C121 1.411 . S
C121 C117 1.387 . S
C121 C120 1.411 . S
C121 H123 0.951 . S
C122 C117 1.491 . S
C122 C124 1.382 1_556 S
C122 C126 1.404 . S
H123 C121 0.951 . S
C124 C122 1.382 1_554 S
C124 C125 1.390 . S
C124 H129 0.949 1_565 S
C125 C124 1.390 . S
C125 C130 1.399 . S
C126 C122 1.404 . S
C126 H127 0.950 . S
C126 C128 1.375 . S
H127 C126 0.950 . S
C128 C126 1.375 . S
C128 C130 1.382 1_556 S
C128 H132 0.950 . S
H129 C124 0.949 1_545 S
C130 C125 1.399 . S
C130 C128 1.382 1_554 S
C130 H131 0.952 . S
H131 C130 0.952 . S
H132 C128 0.950 . S
H133 C134 0.949 . S
C134 H133 0.949 . S
C134 C135 1.395 . S
C134 C136 1.391 1_554 S
C135 C134 1.395 . S
C135 C138 1.390 1_554 S
C136 C134 1.391 1_556 S
C136 C140 1.387 . S
C136 C141 1.491 . S
H137 C138 0.950 . S
C138 C135 1.390 1_556 S
C138 H137 0.950 . S
C138 C139 1.378 . S
C139 C138 1.378 . S
C139 C140 1.409 . S
C140 C136 1.387 . S
C140 C139 1.409 . S
C140 H142 0.951 . S
C141 C136 1.491 . S
C141 C143 1.382 1_556 S
C141 C145 1.404 . S
H142 C140 0.951 . S
C143 C141 1.382 1_554 S
C143 C144 1.390 . S
C143 H148 0.949 . S
C144 C143 1.390 . S
C144 C149 1.399 . S
C145 C141 1.404 . S
C145 H146 0.950 . S
C145 C147 1.375 . S
H146 C145 0.950 . S
C147 C145 1.375 . S
C147 C149 1.382 1_556 S
C147 H151 0.950 . S
H148 C143 0.949 . S
C149 C144 1.399 . S
C149 C147 1.382 1_554 S
C149 H150 0.952 . S
H150 C149 0.952 . S
H151 C147 0.950 . S
Tb152 C162 2.830 . S
Tb152 O163 2.347 1_455 S
Tb152 O166 2.366 . S
Tb152 O171 2.418 . S
Tb152 O172 2.384 1_565 S
Tb152 O175 2.479 . S
Tb152 O176 2.474 . S
Eu153 O164 2.418 . S
Eu153 O165 2.384 1_545 S
Eu153 O168 2.479 . S
Eu153 O169 2.471 . S
Eu153 O170 2.347 1_655 S
Eu153 O173 2.366 . S
Eu153 C183 2.825 . S
C154 O170 1.259 1_565 S
C154 O171 1.265 . S
C155 O172 1.255 . S
C155 O173 1.265 1_455 S
C156 C158 1.380 . S
C156 C159 1.374 . S
C156 C162 1.502 1_554 S
C157 C158 1.384 . S
C157 C161 1.387 . S
C157 H184 0.930 . S
C158 C156 1.380 . S
C158 C157 1.384 . S
C158 H185 0.931 . S
C159 C156 1.374 . S
C159 C160 1.390 . S
C159 H186 0.930 1_455 S
C160 C159 1.390 . S
C160 C161 1.391 . S
C160 H187 0.930 1_455 S
C161 C157 1.387 . S
C161 C160 1.391 . S
C162 Tb152 2.830 . S
C162 C156 1.502 1_556 S
C162 O175 1.242 . S
C162 O176 1.247 . S
O163 Tb152 2.347 1_655 S
O163 C167 1.259 1_565 S
O164 Eu153 2.418 . S
O164 C167 1.265 . S
O165 Eu153 2.384 1_565 S
O165 C174 1.255 . S
O166 Tb152 2.366 . S
O166 C174 1.265 1_455 S
C167 O163 1.259 1_545 S
C167 O164 1.265 . S
O168 Eu153 2.479 . S
O168 C183 1.238 . S
O169 Eu153 2.471 . S
O169 C183 1.247 . S
O170 Eu153 2.347 1_455 S
O170 C154 1.259 1_545 S
O171 Tb152 2.418 . S
O171 C154 1.265 . S
O172 Tb152 2.384 1_545 S
O172 C155 1.255 . S
O173 Eu153 2.366 . S
O173 C155 1.265 1_655 S
C174 O165 1.255 . S
C174 O166 1.265 1_655 S
O175 Tb152 2.479 . S
O175 C162 1.242 . S
O176 Tb152 2.474 . S
O176 C162 1.247 . S
C177 C180 1.380 . S
C177 C181 1.374 . S
C177 C183 1.507 . S
C178 C179 1.387 . S
C178 C182 1.391 . S
C179 C178 1.387 . S
C179 C180 1.384 . S
C179 H188 0.930 . S
C180 C177 1.380 . S
C180 C179 1.384 . S
C180 H189 0.931 . S
C181 C177 1.374 . S
C181 C182 1.390 . S
C181 H190 0.930 1_655 S
C182 C178 1.391 . S
C182 C181 1.390 . S
C182 H191 0.930 1_655 S
C183 Eu153 2.825 . S
C183 O168 1.238 . S
C183 O169 1.247 . S
C183 C177 1.507 . S
H184 C157 0.930 . S
H185 C158 0.931 . S
H186 C159 0.930 1_655 S
H187 C160 0.930 1_655 S
H188 C179 0.930 . S
H189 C180 0.931 . S
H190 C181 0.930 1_455 S
H191 C182 0.930 1_455 S
Tb192 C202 2.828 . S
Tb192 O203 2.347 1_545 S
Tb192 O206 2.366 . S
Tb192 O211 2.418 . S
Tb192 O212 2.384 . S
Tb192 O215 2.479 . S
Tb192 O216 2.472 1_556 S
Eu193 O204 2.418 . S
Eu193 O205 2.384 . S
Eu193 O208 2.479 . S
Eu193 O209 2.471 . S
Eu193 O210 2.347 1_565 S
Eu193 O213 2.366 . S
Eu193 C223 2.825 . S
C194 O210 1.259 . S
C194 O211 1.265 . S
C195 O212 1.255 . S
C195 O213 1.265 1_545 S
C196 C198 1.380 . S
C196 C199 1.374 . S
C196 C202 1.504 1_554 S
C197 C198 1.384 . S
C197 C201 1.387 . S
C197 H224 0.930 . S
C198 C196 1.380 . S
C198 C197 1.384 . S
C198 H225 0.931 . S
C199 C196 1.374 . S
C199 C200 1.390 . S
C199 H226 0.930 1_545 S
C200 C199 1.390 . S
C200 C201 1.391 . S
C200 H227 0.930 1_545 S
C201 C197 1.387 . S
C201 C200 1.391 . S
C202 Tb192 2.828 . S
C202 C196 1.504 1_556 S
C202 O215 1.240 . S
C202 O216 1.247 1_556 S
O203 Tb192 2.347 1_565 S
O203 C207 1.259 . S
O204 Eu193 2.418 . S
O204 C207 1.265 . S
O205 Eu193 2.384 . S
O205 C214 1.255 . S
O206 Tb192 2.366 . S
O206 C214 1.265 1_545 S
C207 O203 1.259 . S
C207 O204 1.265 . S
O208 Eu193 2.479 . S
O208 C223 1.238 . S
O209 Eu193 2.471 . S
O209 C223 1.247 . S
O210 Eu193 2.347 1_545 S
O210 C194 1.259 . S
O211 Tb192 2.418 . S
O211 C194 1.265 . S
O212 Tb192 2.384 . S
O212 C195 1.255 . S
O213 Eu193 2.366 . S
O213 C195 1.265 1_565 S
C214 O205 1.255 . S
C214 O206 1.265 1_565 S
O215 Tb192 2.479 . S
O215 C202 1.240 . S
O216 Tb192 2.472 1_554 S
O216 C202 1.247 1_554 S
C217 C220 1.380 . S
C217 C221 1.374 . S
C217 C223 1.507 . S
C218 C219 1.387 . S
C218 C222 1.391 . S
C219 C218 1.387 . S
C219 C220 1.384 . S
C219 H228 0.930 . S
C220 C217 1.380 . S
C220 C219 1.384 . S
C220 H229 0.931 . S
C221 C217 1.374 . S
C221 C222 1.390 . S
C221 H230 0.930 1_565 S
C222 C218 1.391 . S
C222 C221 1.390 . S
C222 H231 0.930 1_565 S
C223 Eu193 2.825 . S
C223 O208 1.238 . S
C223 O209 1.247 . S
C223 C217 1.507 . S
H224 C197 0.930 . S
H225 C198 0.931 . S
H226 C199 0.930 1_565 S
H227 C200 0.930 1_565 S
H228 C219 0.930 . S
H229 C220 0.931 . S
H230 C221 0.930 1_545 S
H231 C222 0.930 1_545 S
Tb232 C242 2.822 1_556 S
Tb232 O243 2.347 . S
Tb232 O246 2.366 . S
Tb232 O251 2.418 . S
Tb232 O252 2.384 . S
Tb232 O255 2.479 . S
Tb232 O256 2.467 1_556 S
Eu233 O244 2.418 . S
Eu233 O245 2.384 . S
Eu233 O248 2.479 . S
Eu233 O249 2.471 . S
Eu233 O250 2.347 . S
Eu233 O253 2.366 . S
Eu233 C263 2.825 . S
C234 O250 1.259 . S
C234 O251 1.265 . S
C235 O252 1.255 . S
C235 O253 1.265 . S
C236 C238 1.380 . S
C236 C239 1.374 . S
C236 C242 1.510 . S
C237 C238 1.384 . S
C237 C241 1.387 . S
C237 H264 0.930 . S
C238 C236 1.380 . S
C238 C237 1.384 . S
C238 H265 0.931 . S
C239 C236 1.374 . S
C239 C240 1.390 . S
C239 H266 0.930 . S
C240 C239 1.390 . S
C240 C241 1.391 . S
C240 H267 0.930 . S
C241 C237 1.387 . S
C241 C240 1.391 . S
C242 Tb232 2.822 1_554 S
C242 C236 1.510 . S
C242 O255 1.235 1_554 S
C242 O256 1.247 . S
O243 Tb232 2.347 . S
O243 C247 1.259 . S
O244 Eu233 2.418 . S
O244 C247 1.265 . S
O245 Eu233 2.384 . S
O245 C254 1.255 . S
O246 Tb232 2.366 . S
O246 C254 1.265 . S
C247 O243 1.259 . S
C247 O244 1.265 . S
O248 Eu233 2.479 . S
O248 C263 1.238 . S
O249 Eu233 2.471 . S
O249 C263 1.247 . S
O250 Eu233 2.347 . S
O250 C234 1.259 . S
O251 Tb232 2.418 . S
O251 C234 1.265 . S
O252 Tb232 2.384 . S
O252 C235 1.255 . S
O253 Eu233 2.366 . S
O253 C235 1.265 . S
C254 O245 1.255 . S
C254 O246 1.265 . S
O255 Tb232 2.479 . S
O255 C242 1.235 1_556 S
O256 Tb232 2.467 1_554 S
O256 C242 1.247 . S
C257 C260 1.380 . S
C257 C261 1.374 . S
C257 C263 1.507 . S
C258 C259 1.387 . S
C258 C262 1.391 . S
C259 C258 1.387 . S
C259 C260 1.384 . S
C259 H268 0.930 . S
C260 C257 1.380 . S
C260 C259 1.384 . S
C260 H269 0.931 . S
C261 C257 1.374 . S
C261 C262 1.390 . S
C261 H270 0.930 . S
C262 C258 1.391 . S
C262 C261 1.390 . S
C262 H271 0.930 . S
C263 Eu233 2.825 . S
C263 O248 1.238 . S
C263 O249 1.247 . S
C263 C257 1.507 . S
H264 C237 0.930 . S
H265 C238 0.931 . S
H266 C239 0.930 . S
H267 C240 0.930 . S
H268 C259 0.930 . S
H269 C260 0.931 . S
H270 C261 0.930 . S
H271 C262 0.930 . S
Tb272 C282 2.823 1_556 S
Tb272 O283 2.347 . S
Tb272 O286 2.366 . S
Tb272 O291 2.418 . S
Tb272 O292 2.384 1_655 S
Tb272 O295 2.479 . S
Tb272 O296 2.470 1_556 S
Eu273 O284 2.418 . S
Eu273 O285 2.384 1_455 S
Eu273 O288 2.479 . S
Eu273 O289 2.471 . S
Eu273 O290 2.347 . S
Eu273 O293 2.366 . S
Eu273 C303 2.825 . S
C274 O290 1.259 1_655 S
C274 O291 1.265 . S
C275 O292 1.255 . S
C275 O293 1.265 . S
C276 C278 1.380 . S
C276 C279 1.374 . S
C276 C282 1.508 . S
C277 C278 1.384 . S
C277 C281 1.387 . S
C277 H304 0.930 . S
C278 C276 1.380 . S
C278 C277 1.384 . S
C278 H305 0.931 . S
C279 C276 1.374 . S
C279 C280 1.390 . S
C279 H306 0.930 . S
C280 C279 1.390 . S
C280 C281 1.391 . S
C280 H307 0.930 . S
C281 C277 1.387 . S
C281 C280 1.391 . S
C282 Tb272 2.823 1_554 S
C282 C276 1.508 . S
C282 O295 1.236 1_554 S
C282 O296 1.247 . S
O283 Tb272 2.347 . S
O283 C287 1.259 1_655 S
O284 Eu273 2.418 . S
O284 C287 1.265 . S
O285 Eu273 2.384 1_655 S
O285 C294 1.255 . S
O286 Tb272 2.366 . S
O286 C294 1.265 . S
C287 O283 1.259 1_455 S
C287 O284 1.265 . S
O288 Eu273 2.479 . S
O288 C303 1.238 . S
O289 Eu273 2.471 . S
O289 C303 1.247 . S
O290 Eu273 2.347 . S
O290 C274 1.259 1_455 S
O291 Tb272 2.418 . S
O291 C274 1.265 . S
O292 Tb272 2.384 1_455 S
O292 C275 1.255 . S
O293 Eu273 2.366 . S
O293 C275 1.265 . S
C294 O285 1.255 . S
C294 O286 1.265 . S
O295 Tb272 2.479 . S
O295 C282 1.236 1_556 S
O296 Tb272 2.470 1_554 S
O296 C282 1.247 . S
C297 C300 1.380 . S
C297 C301 1.374 . S
C297 C303 1.507 . S
C298 C299 1.387 . S
C298 C302 1.391 . S
C299 C298 1.387 . S
C299 C300 1.384 . S
C299 H308 0.930 . S
C300 C297 1.380 . S
C300 C299 1.384 . S
C300 H309 0.931 . S
C301 C297 1.374 . S
C301 C302 1.390 . S
C301 H310 0.930 . S
C302 C298 1.391 . S
C302 C301 1.390 . S
C302 H311 0.930 . S
C303 Eu273 2.825 . S
C303 O288 1.238 . S
C303 O289 1.247 . S
C303 C297 1.507 . S
H304 C277 0.930 . S
H305 C278 0.931 . S
H306 C279 0.930 . S
H307 C280 0.930 . S
H308 C299 0.930 . S
H309 C300 0.931 . S
H310 C301 0.930 . S
H311 C302 0.930 . S
H312 C318 0.930 . S
H313 C321 0.930 . S
H314 C322 0.930 . S
H315 C323 0.930 . S
H316 C326 0.930 . S
H317 C327 0.930 . S
C318 H312 0.930 . S
C318 C319 1.355 1_545 S
C318 C320 1.415 . S
C319 C318 1.355 1_565 S
C319 C321 1.419 . S
C320 C318 1.415 . S
C320 C325 1.425 1_545 S
C320 C327 1.409 . S
C321 H313 0.930 . S
C321 C319 1.419 . S
C321 C322 1.362 . S
C322 H314 0.930 . S
C322 C321 1.362 . S
C322 C325 1.409 . S
C323 H315 0.930 . S
C323 C324 1.355 1_565 S
C323 C325 1.415 . S
C324 C323 1.355 1_545 S
C324 C326 1.419 . S
C325 C320 1.425 1_565 S
C325 C322 1.409 . S
C325 C323 1.415 . S
C326 H316 0.930 . S
C326 C324 1.419 . S
C326 C327 1.362 . S
C327 H317 0.930 . S
C327 C320 1.409 . S
C327 C326 1.362 . S
H328 C334 0.930 . S
H329 C337 0.930 . S
H330 C338 0.930 . S
H331 C339 0.930 . S
H332 C342 0.930 . S
H333 C343 0.930 . S
C334 H328 0.930 . S
C334 C335 1.355 . S
C334 C336 1.415 . S
C335 C334 1.355 . S
C335 C337 1.419 . S
C336 C334 1.415 . S
C336 C341 1.425 . S
C336 C343 1.409 . S
C337 H329 0.930 . S
C337 C335 1.419 . S
C337 C338 1.362 . S
C338 H330 0.930 . S
C338 C337 1.362 . S
C338 C341 1.409 . S
C339 H331 0.930 . S
C339 C340 1.355 . S
C339 C341 1.415 . S
C340 C339 1.355 . S
C340 C342 1.419 . S
C341 C336 1.425 . S
C341 C338 1.409 . S
C341 C339 1.415 . S
C342 H332 0.930 . S
C342 C340 1.419 . S
C342 C343 1.362 . S
C343 H333 0.930 . S
C343 C336 1.409 . S
C343 C342 1.362 . S
H344 C350 0.930 . S
H345 C353 0.930 . S
H346 C354 0.930 . S
H347 C355 0.930 . S
H348 C358 0.930 . S
H349 C359 0.930 . S
C350 H344 0.930 . S
C350 C351 1.355 . S
C350 C352 1.415 . S
C351 C350 1.355 . S
C351 C353 1.419 . S
C352 C350 1.415 . S
C352 C357 1.425 . S
C352 C359 1.409 . S
C353 H345 0.930 . S
C353 C351 1.419 . S
C353 C354 1.362 . S
C354 H346 0.930 . S
C354 C353 1.362 . S
C354 C357 1.409 . S
C355 H347 0.930 . S
C355 C356 1.355 . S
C355 C357 1.415 . S
C356 C355 1.355 . S
C356 C358 1.419 . S
C357 C352 1.425 . S
C357 C354 1.409 . S
C357 C355 1.415 . S
C358 H348 0.930 . S
C358 C356 1.419 . S
C358 C359 1.362 . S
C359 H349 0.930 . S
C359 C352 1.409 . S
C359 C358 1.362 . S
H360 C366 0.930 . S
H361 C369 0.930 . S
H362 C370 0.930 . S
H363 C371 0.930 . S
H364 C374 0.930 . S
H365 C375 0.930 . S
C366 H360 0.930 . S
C366 C367 1.356 . S
C366 C368 1.415 . S
C367 C366 1.356 . S
C367 C369 1.417 1_455 S
C368 C366 1.415 . S
C368 C373 1.425 1_455 S
C368 C375 1.409 . S
C369 H361 0.930 . S
C369 C367 1.417 1_655 S
C369 C370 1.362 . S
C370 H362 0.930 . S
C370 C369 1.362 . S
C370 C373 1.409 . S
C371 H363 0.930 . S
C371 C372 1.345 1_655 S
C371 C373 1.415 . S
C372 C371 1.345 1_455 S
C372 C374 1.432 . S
C373 C368 1.425 1_655 S
C373 C370 1.409 . S
C373 C371 1.415 . S
C374 H364 0.930 . S
C374 C372 1.432 . S
C374 C375 1.362 . S
C375 H365 0.930 . S
C375 C368 1.409 . S
C375 C374 1.362 . S
H376 C382 0.930 . S
H377 C385 0.930 . S
H378 C386 0.930 . S
H379 C387 0.930 . S
H380 C390 0.930 . S
H381 C391 0.930 1_556 S
C382 H376 0.930 . S
C382 C383 1.355 1_545 S
C382 C384 1.415 . S
C383 C382 1.355 1_565 S
C383 C385 1.419 . S
C384 C382 1.415 . S
C384 C389 1.425 1_545 S
C384 C391 1.409 . S
C385 H377 0.930 . S
C385 C383 1.419 . S
C385 C386 1.362 . S
C386 H378 0.930 . S
C386 C385 1.362 . S
C386 C389 1.409 . S
C387 H379 0.930 . S
C387 C388 1.355 1_564 S
C387 C389 1.415 . S
C388 C387 1.355 1_546 S
C388 C390 1.419 . S
C389 C384 1.425 1_565 S
C389 C386 1.409 . S
C389 C387 1.415 . S
C390 H380 0.930 . S
C390 C388 1.419 . S
C390 C391 1.362 1_556 S
C391 H381 0.930 1_554 S
C391 C384 1.409 . S
C391 C390 1.362 1_554 S
H392 C398 0.930 . S
H393 C401 0.930 . S
H394 C402 0.930 . S
H395 C403 0.930 . S
H396 C406 0.930 . S
H397 C407 0.930 . S
C398 H392 0.930 . S
C398 C399 1.355 . S
C398 C400 1.415 . S
C399 C398 1.355 . S
C399 C401 1.419 . S
C400 C398 1.415 . S
C400 C405 1.425 . S
C400 C407 1.409 . S
C401 H393 0.930 . S
C401 C399 1.419 . S
C401 C402 1.362 . S
C402 H394 0.930 . S
C402 C401 1.362 . S
C402 C405 1.409 . S
C403 H395 0.930 . S
C403 C404 1.355 . S
C403 C405 1.415 1_556 S
C404 C403 1.355 . S
C404 C406 1.419 1_556 S
C405 C400 1.425 . S
C405 C402 1.409 . S
C405 C403 1.415 1_554 S
C406 H396 0.930 . S
C406 C404 1.419 1_554 S
C406 C407 1.362 . S
C407 H397 0.930 . S
C407 C400 1.409 . S
C407 C406 1.362 . S
H408 C414 0.930 . S
H409 C417 0.930 . S
H410 C418 0.930 . S
H411 C419 0.930 . S
H412 C422 0.930 . S
H413 C423 0.930 1_556 S
C414 H408 0.930 . S
C414 C415 1.355 . S
C414 C416 1.415 . S
C415 C414 1.355 . S
C415 C417 1.419 . S
C416 C414 1.415 . S
C416 C421 1.425 . S
C416 C423 1.409 . S
C417 H409 0.930 . S
C417 C415 1.419 . S
C417 C418 1.362 . S
C418 H410 0.930 . S
C418 C417 1.362 . S
C418 C421 1.409 . S
C419 H411 0.930 . S
C419 C420 1.355 1_554 S
C419 C421 1.415 . S
C420 C419 1.355 1_556 S
C420 C422 1.419 . S
C421 C416 1.425 . S
C421 C418 1.409 . S
C421 C419 1.415 . S
C422 H412 0.930 . S
C422 C420 1.419 . S
C422 C423 1.362 1_556 S
C423 H413 0.930 1_554 S
C423 C416 1.409 . S
C423 C422 1.362 1_554 S
H424 C430 0.930 . S
H425 C433 0.930 . S
H426 C434 0.930 . S
H427 C435 0.930 . S
H428 C438 0.930 . S
H429 C439 0.930 . S
C430 H424 0.930 . S
C430 C431 1.343 1_455 S
C430 C432 1.415 . S
C431 C430 1.343 1_655 S
C431 C433 1.434 . S
C432 C430 1.415 . S
C432 C437 1.425 1_455 S
C432 C439 1.409 . S
C433 H425 0.930 . S
C433 C431 1.434 . S
C433 C434 1.362 . S
C434 H426 0.930 . S
C434 C433 1.362 . S
C434 C437 1.409 . S
C435 H427 0.930 . S
C435 C436 1.359 . S
C435 C437 1.415 1_556 S
C436 C435 1.359 . S
C436 C438 1.414 1_656 S
C437 C432 1.425 1_655 S
C437 C434 1.409 . S
C437 C435 1.415 1_554 S
C438 H428 0.930 . S
C438 C436 1.414 1_454 S
C438 C439 1.362 . S
C439 H429 0.930 . S
C439 C432 1.409 . S
C439 C438 1.362 . S
H440 C446 0.930 . S
H441 C449 0.930 . S
H442 C450 0.930 . S
H443 C451 0.930 1_455 S
H444 C454 0.930 . S
H445 C455 0.930 . S
C446 H440 0.930 . S
C446 C447 1.355 1_655 S
C446 C448 1.415 . S
C447 C446 1.355 1_455 S
C447 C449 1.419 . S
C448 C446 1.415 . S
C448 C453 1.425 . S
C448 C455 1.409 . S
C449 H441 0.930 . S
C449 C447 1.419 . S
C449 C450 1.362 . S
C450 H442 0.930 . S
C450 C449 1.362 . S
C450 C453 1.409 1_455 S
C451 H443 0.930 1_655 S
C451 C452 1.355 . S
C451 C453 1.415 . S
C452 C451 1.355 . S
C452 C454 1.419 . S
C453 C448 1.425 . S
C453 C450 1.409 1_655 S
C453 C451 1.415 . S
C454 H444 0.930 . S
C454 C452 1.419 . S
C454 C455 1.362 . S
C455 H445 0.930 . S
C455 C448 1.409 . S
C455 C454 1.362 . S
H456 C462 0.930 . S
H457 C465 0.930 . S
H458 C466 0.930 . S
H459 C467 0.930 . S
H460 C470 0.930 . S
H461 C471 0.930 . S
C462 H456 0.930 . S
C462 C463 1.355 1_565 S
C462 C464 1.415 . S
C463 C462 1.355 1_545 S
C463 C465 1.419 . S
C464 C462 1.415 . S
C464 C469 1.425 . S
C464 C471 1.409 . S
C465 H457 0.930 . S
C465 C463 1.419 . S
C465 C466 1.362 . S
C466 H458 0.930 . S
C466 C465 1.362 . S
C466 C469 1.409 1_545 S
C467 H459 0.930 . S
C467 C468 1.355 . S
C467 C469 1.415 . S
C468 C467 1.355 . S
C468 C470 1.419 . S
C469 C464 1.425 . S
C469 C466 1.409 1_565 S
C469 C467 1.415 . S
C470 H460 0.930 . S
C470 C468 1.419 . S
C470 C471 1.362 . S
C471 H461 0.930 . S
C471 C464 1.409 . S
C471 C470 1.362 . S
H472 C478 0.930 . S
H473 C481 0.930 1_556 S
H474 C482 0.930 . S
H475 C483 0.930 . S
H476 C486 0.930 . S
H477 C487 0.930 . S
C478 H472 0.930 . S
C478 C479 1.355 . S
C478 C480 1.415 . S
C479 C478 1.355 . S
C479 C481 1.419 . S
C480 C478 1.415 . S
C480 C485 1.425 . S
C480 C487 1.409 . S
C481 H473 0.930 1_554 S
C481 C479 1.419 . S
C481 C482 1.362 . S
C482 H474 0.930 . S
C482 C481 1.362 . S
C482 C485 1.409 . S
C483 H475 0.930 . S
C483 C484 1.355 . S
C483 C485 1.415 . S
C484 C483 1.355 . S
C484 C486 1.419 . S
C485 C480 1.425 . S
C485 C482 1.409 . S
C485 C483 1.415 . S
C486 H476 0.930 . S
C486 C484 1.419 . S
C486 C487 1.362 . S
C487 H477 0.930 . S
C487 C480 1.409 . S
C487 C486 1.362 . S
H488 C494 0.930 . S
H489 C497 0.930 . S
H490 C498 0.930 . S
H491 C499 0.930 . S
H492 C502 0.930 . S
H493 C503 0.930 . S
C494 H488 0.930 . S
C494 C495 1.355 . S
C494 C496 1.415 . S
C495 C494 1.355 . S
C495 C497 1.419 . S
C496 C494 1.415 . S
C496 C501 1.425 . S
C496 C503 1.409 . S
C497 H489 0.930 . S
C497 C495 1.419 . S
C497 C498 1.362 . S
C498 H490 0.930 . S
C498 C497 1.362 . S
C498 C501 1.409 . S
C499 H491 0.930 . S
C499 C500 1.355 . S
C499 C501 1.415 . S
C500 C499 1.355 . S
C500 C502 1.419 . S
C501 C496 1.425 . S
C501 C498 1.409 . S
C501 C499 1.415 . S
C502 H492 0.930 . S
C502 C500 1.419 . S
C502 C503 1.362 . S
C503 H493 0.930 . S
C503 C496 1.409 . S
C503 C502 1.362 . S
H504 C510 0.930 . S
H505 C513 0.930 . S
H506 C514 0.930 . S
H507 C515 0.930 1_655 S
H508 C518 0.930 . S
H509 C519 0.930 . S
C510 H504 0.930 . S
C510 C511 1.355 1_455 S
C510 C512 1.415 . S
C511 C510 1.355 1_655 S
C511 C513 1.419 . S
C512 C510 1.415 . S
C512 C517 1.425 . S
C512 C519 1.409 . S
C513 H505 0.930 . S
C513 C511 1.419 . S
C513 C514 1.362 . S
C514 H506 0.930 . S
C514 C513 1.362 . S
C514 C517 1.409 1_655 S
C515 H507 0.930 1_455 S
C515 C516 1.355 . S
C515 C517 1.415 . S
C516 C515 1.355 . S
C516 C518 1.419 . S
C517 C512 1.425 . S
C517 C514 1.409 1_455 S
C517 C515 1.415 . S
C518 H508 0.930 . S
C518 C516 1.419 . S
C518 C519 1.362 . S
C519 H509 0.930 . S
C519 C512 1.409 . S
C519 C518 1.362 . S
H520 C526 0.926 1_565 S
H521 C529 0.930 . S
H522 C530 0.930 . S
H523 C531 0.930 . S
H524 C534 0.930 . S
H525 C535 0.930 . S
C526 H520 0.926 1_545 S
C526 C527 1.355 . S
C526 C528 1.415 . S
C527 C526 1.355 . S
C527 C529 1.420 . S
C528 C526 1.415 . S
C528 C533 1.425 . S
C528 C535 1.409 . S
C529 H521 0.930 . S
C529 C527 1.420 . S
C529 C530 1.362 . S
C530 H522 0.930 . S
C530 C529 1.362 . S
C530 C533 1.409 . S
C531 H523 0.930 . S
C531 C532 1.355 . S
C531 C533 1.415 . S
C532 C531 1.355 . S
C532 C534 1.419 . S
C533 C528 1.425 . S
C533 C530 1.409 . S
C533 C531 1.415 . S
C534 H524 0.930 . S
C534 C532 1.419 . S
C534 C535 1.362 . S
C535 H525 0.930 . S
C535 C528 1.409 . S
C535 C534 1.362 . S
H536 C542 0.930 . S
H537 C545 0.930 . S
H538 C546 0.930 . S
H539 C547 0.930 . S
H540 C550 0.930 . S
H541 C551 0.930 . S
C542 H536 0.930 . S
C542 C543 1.355 . S
C542 C544 1.415 . S
C543 C542 1.355 . S
C543 C545 1.419 . S
C544 C542 1.415 . S
C544 C549 1.425 . S
C544 C551 1.409 . S
C545 H537 0.930 . S
C545 C543 1.419 . S
C545 C546 1.362 . S
C546 H538 0.930 . S
C546 C545 1.362 . S
C546 C549 1.409 . S
C547 H539 0.930 . S
C547 C548 1.355 . S
C547 C549 1.415 . S
C548 C547 1.355 . S
C548 C550 1.419 . S
C549 C544 1.425 . S
C549 C546 1.409 . S
C549 C547 1.415 . S
C550 H540 0.930 . S
C550 C548 1.419 . S
C550 C551 1.362 . S
C551 H541 0.930 . S
C551 C544 1.409 . S
C551 C550 1.362 . S
H552 C558 0.930 . S
H553 C561 0.930 . S
H554 C562 0.930 . S
H555 C563 0.930 . S
H556 C566 0.930 . S
H557 C567 0.930 . S
C558 H552 0.930 . S
C558 C559 1.355 . S
C558 C560 1.415 . S
C559 C558 1.355 . S
C559 C561 1.419 . S
C560 C558 1.415 . S
C560 C565 1.425 . S
C560 C567 1.409 . S
C561 H553 0.930 . S
C561 C559 1.419 . S
C561 C562 1.362 . S
C562 H554 0.930 . S
C562 C561 1.362 . S
C562 C565 1.409 . S
C563 H555 0.930 . S
C563 C564 1.355 . S
C563 C565 1.415 . S
C564 C563 1.355 . S
C564 C566 1.419 . S
C565 C560 1.425 . S
C565 C562 1.409 . S
C565 C563 1.415 . S
C566 H556 0.930 . S
C566 C564 1.419 . S
C566 C567 1.362 . S
C567 H557 0.930 . S
C567 C560 1.409 . S
C567 C566 1.362 . S
H568 C574 0.930 . S
H569 C577 0.930 . S
H570 C578 0.930 . S
H571 C579 0.930 . S
H572 C582 0.930 . S
H573 C583 0.930 . S
C574 H568 0.930 . S
C574 C575 1.343 1_455 S
C574 C576 1.415 . S
C575 C574 1.343 1_655 S
C575 C577 1.433 . S
C576 C574 1.415 . S
C576 C581 1.425 1_455 S
C576 C583 1.409 . S
C577 H569 0.930 . S
C577 C575 1.433 . S
C577 C578 1.362 . S
C578 H570 0.930 . S
C578 C577 1.362 . S
C578 C581 1.409 . S
C579 H571 0.930 . S
C579 C580 1.355 1_655 S
C579 C581 1.415 . S
C580 C579 1.355 1_455 S
C580 C582 1.419 . S
C581 C576 1.425 1_655 S
C581 C578 1.409 . S
C581 C579 1.415 . S
C582 H572 0.930 . S
C582 C580 1.419 . S
C582 C583 1.362 . S
C583 H573 0.930 . S
C583 C576 1.409 . S
C583 C582 1.362 . S
H584 C590 0.930 . S
H585 C593 0.930 . S
H586 C594 0.930 . S
H587 C595 0.930 . S
H588 C598 0.930 1_554 S
H589 C599 0.930 1_554 S
C590 H584 0.930 . S
C590 C591 1.355 . S
C590 C592 1.415 . S
C591 C590 1.355 . S
C591 C593 1.419 . S
C592 C590 1.415 . S
C592 C597 1.425 . S
C592 C599 1.409 . S
C593 H585 0.930 . S
C593 C591 1.419 . S
C593 C594 1.362 . S
C594 H586 0.930 . S
C594 C593 1.362 . S
C594 C597 1.409 . S
C595 H587 0.930 . S
C595 C596 1.355 . S
C595 C597 1.415 . S
C596 C595 1.355 . S
C596 C598 1.419 . S
C597 C592 1.425 . S
C597 C594 1.409 . S
C597 C595 1.415 . S
C598 H588 0.930 1_556 S
C598 C596 1.419 . S
C598 C599 1.362 . S
C599 H589 0.930 1_556 S
C599 C592 1.409 . S
C599 C598 1.362 . S
H600 C606 0.930 . S
H601 C609 0.930 . S
H602 C610 0.930 . S
H603 C611 0.930 . S
H604 C614 0.930 . S
H605 C615 0.930 . S
C606 H600 0.930 . S
C606 C607 1.355 . S
C606 C608 1.415 . S
C607 C606 1.355 . S
C607 C609 1.419 . S
C608 C606 1.415 . S
C608 C613 1.425 . S
C608 C615 1.409 . S
C609 H601 0.930 . S
C609 C607 1.419 . S
C609 C610 1.362 . S
C610 H602 0.930 . S
C610 C609 1.362 . S
C610 C613 1.409 . S
C611 H603 0.930 . S
C611 C612 1.355 . S
C611 C613 1.415 . S
C612 C611 1.355 . S
C612 C614 1.419 . S
C613 C608 1.425 . S
C613 C610 1.409 . S
C613 C611 1.415 . S
C614 H604 0.930 . S
C614 C612 1.419 . S
C614 C615 1.362 . S
C615 H605 0.930 . S
C615 C608 1.409 . S
C615 C614 1.362 . S
H616 C622 0.930 . S
H617 C625 0.930 . S
H618 C626 0.930 . S
H619 C627 0.930 . S
H620 C630 0.930 . S
H621 C631 0.930 . S
C622 H616 0.930 . S
C622 C623 1.355 . S
C622 C624 1.415 . S
C623 C622 1.355 . S
C623 C625 1.419 . S
C624 C622 1.415 . S
C624 C629 1.425 . S
C624 C631 1.409 . S
C625 H617 0.930 . S
C625 C623 1.419 . S
C625 C626 1.362 . S
C626 H618 0.930 . S
C626 C625 1.362 . S
C626 C629 1.409 . S
C627 H619 0.930 . S
C627 C628 1.355 . S
C627 C629 1.415 . S
C628 C627 1.355 . S
C628 C630 1.419 . S
C629 C624 1.425 . S
C629 C626 1.409 . S
C629 C627 1.415 . S
C630 H620 0.930 . S
C630 C628 1.419 . S
C630 C631 1.362 . S
C631 H621 0.930 . S
C631 C624 1.409 . S
C631 C630 1.362 . S
H632 C638 0.930 . S
H633 C641 0.930 . S
H634 C642 0.930 . S
H635 C643 0.930 . S
H636 C646 0.930 . S
H637 C647 0.930 . S
C638 H632 0.930 . S
C638 C639 1.355 1_455 S
C638 C640 1.421 . S
C639 C638 1.355 1_655 S
C639 C641 1.419 . S
C640 C638 1.421 . S
C640 C645 1.409 1_455 S
C640 C647 1.419 . S
C641 H633 0.930 . S
C641 C639 1.419 . S
C641 C642 1.362 . S
C642 H634 0.930 . S
C642 C641 1.362 . S
C642 C645 1.409 . S
C643 H635 0.930 . S
C643 C644 1.355 . S
C643 C645 1.415 . S
C644 C643 1.355 . S
C644 C646 1.419 1_655 S
C645 C640 1.409 1_655 S
C645 C642 1.409 . S
C645 C643 1.415 . S
C646 H636 0.930 . S
C646 C644 1.419 1_455 S
C646 C647 1.362 . S
C647 H637 0.930 . S
C647 C640 1.419 . S
C647 C646 1.362 . S
H648 C654 0.930 . S
H649 C657 0.930 . S
H650 C658 0.930 . S
H651 C659 0.930 . S
H652 C662 0.930 . S
H653 C663 0.930 . S
C654 H648 0.930 . S
C654 C655 1.351 1_565 S
C654 C656 1.415 . S
C655 C654 1.351 1_545 S
C655 C657 1.424 . S
C656 C654 1.415 . S
C656 C661 1.425 1_565 S
C656 C663 1.409 . S
C657 H649 0.930 . S
C657 C655 1.424 . S
C657 C658 1.362 . S
C658 H650 0.930 . S
C658 C657 1.362 . S
C658 C661 1.409 . S
C659 H651 0.930 . S
C659 C660 1.355 1_545 S
C659 C661 1.415 . S
C660 C659 1.355 1_565 S
C660 C662 1.419 . S
C661 C656 1.425 1_545 S
C661 C658 1.409 . S
C661 C659 1.415 . S
C662 H652 0.930 . S
C662 C660 1.419 . S
C662 C663 1.362 . S
C663 H653 0.930 . S
C663 C656 1.409 . S
C663 C662 1.362 . S
H664 C670 0.930 . S
H665 C673 0.930 . S
H666 C674 0.930 . S
H667 C675 0.930 . S
H668 C678 0.930 . S
H669 C679 0.930 . S
C670 H664 0.930 . S
C670 C671 1.355 . S
C670 C672 1.415 . S
C671 C670 1.355 . S
C671 C673 1.419 . S
C672 C670 1.415 . S
C672 C677 1.425 . S
C672 C679 1.409 . S
C673 H665 0.930 . S
C673 C671 1.419 . S
C673 C674 1.362 . S
C674 H666 0.930 . S
C674 C673 1.362 . S
C674 C677 1.409 . S
C675 H667 0.930 . S
C675 C676 1.355 . S
C675 C677 1.415 . S
C676 C675 1.355 . S
C676 C678 1.419 . S
C677 C672 1.425 . S
C677 C674 1.409 . S
C677 C675 1.415 . S
C678 H668 0.930 . S
C678 C676 1.419 . S
C678 C679 1.362 . S
C679 H669 0.930 . S
C679 C672 1.409 . S
C679 C678 1.362 . S
H680 C686 0.930 . S
H681 C689 0.930 . S
H682 C690 0.930 . S
H683 C691 0.930 . S
H684 C694 0.930 . S
H685 C695 0.930 . S
C686 H680 0.930 . S
C686 C687 1.355 . S
C686 C688 1.415 . S
C687 C686 1.355 . S
C687 C689 1.419 . S
C688 C686 1.415 . S
C688 C693 1.425 . S
C688 C695 1.409 . S
C689 H681 0.930 . S
C689 C687 1.419 . S
C689 C690 1.362 . S
C690 H682 0.930 . S
C690 C689 1.362 . S
C690 C693 1.409 . S
C691 H683 0.930 . S
C691 C692 1.355 . S
C691 C693 1.415 . S
C692 C691 1.355 . S
C692 C694 1.419 . S
C693 C688 1.425 . S
C693 C690 1.409 . S
C693 C691 1.415 . S
C694 H684 0.930 . S
C694 C692 1.419 . S
C694 C695 1.362 . S
C695 H685 0.930 . S
C695 C688 1.409 . S
C695 C694 1.362 . S
C319 C125 1.968 . S
C324 C154 2.038 1_545 S
C340 C194 2.037 . S
C335 C144 2.016 . S
C356 C234 2.058 . S
C351 C87 1.997 . S
C372 C274 2.038 1_455 S
C367 C106 1.991 1_455 S
C388 C167 2.029 . S
C383 C49 1.976 . S
C399 C68 1.994 . S
C404 C207 2.047 . S
C415 C11 1.979 . S
C420 C247 2.043 . S
C431 C30 1.991 . S
C436 C287 2.038 1_655 S
C452 C178 0.635 . S
C447 C97 0.712 1_455 S
C468 C218 0.618 . S
C463 C116 0.720 1_545 S
C484 C258 0.624 . S
C479 C135 0.568 . S
C495 C78 0.696 . S
C500 C298 0.582 . S
C511 C21 0.678 . S
C516 C161 0.651 . S
C532 C201 0.574 . S
C527 C40 0.529 1_545 S
C548 C241 0.554 . S
C543 C59 0.590 . S
C559 C2 0.698 . S
C564 C281 0.652 . S
C575 C101 2.121 . S
C580 C155 2.392 . S
C591 C120 2.150 1_545 S
C596 C195 2.377 . S
C612 C235 2.348 . S
C607 C139 2.091 . S
C628 C275 2.397 . S
C623 C82 2.149 . S
C639 C25 2.176 . S
C644 C174 2.409 . S
C660 C214 2.370 . S
C655 C44 2.085 1_545 S
C676 C254 2.369 . S
C671 C63 2.106 . S
C687 C6 2.146 . S
C692 C294 2.388 . S
