# Generated by pormake.
# Topology dag, (6,3)-cn, num edge types: 1
# Building blocks:
#     Node 0, Type 0, BuildingBlock: IZENUY_clean_sbu_0, # of connection points: 6
#     Node 1, Type 0, BuildingBlock: IZENUY_clean_sbu_0, # of connection points: 6
#     Node 2, Type 0, BuildingBlock: IZENUY_clean_sbu_0, # of connection points: 6
#     Node 3, Type 0, BuildingBlock: IZENUY_clean_sbu_0, # of connection points: 6
#     Node 4, Type 1, BuildingBlock: VETTIZ_charged_linker_0, # of connection points: 3
#     Node 5, Type 1, BuildingBlock: VETTIZ_charged_linker_0, # of connection points: 3
#     Node 6, Type 1, BuildingBlock: VETTIZ_charged_linker_0, # of connection points: 3
#     Node 7, Type 1, BuildingBlock: VETTIZ_charged_linker_0, # of connection points: 3
#     Node 8, Type 1, BuildingBlock: VETTIZ_charged_linker_0, # of connection points: 3
#     Node 9, Type 1, BuildingBlock: VETTIZ_charged_linker_0, # of connection points: 3
#     Node 10, Type 1, BuildingBlock: VETTIZ_charged_linker_0, # of connection points: 3
#     Node 11, Type 1, BuildingBlock: VETTIZ_charged_linker_0, # of connection points: 3
#     Edge 12, Type (0, 1), BuildingBlock: UVAHIK_clean_linker_0, # of connection points: 2
#     Edge 13, Type (0, 1), BuildingBlock: UVAHIK_clean_linker_0, # of connection points: 2
#     Edge 14, Type (0, 1), BuildingBlock: UVAHIK_clean_linker_0, # of connection points: 2
#     Edge 15, Type (0, 1), BuildingBlock: UVAHIK_clean_linker_0, # of connection points: 2
#     Edge 16, Type (0, 1), BuildingBlock: UVAHIK_clean_linker_0, # of connection points: 2
#     Edge 17, Type (0, 1), BuildingBlock: UVAHIK_clean_linker_0, # of connection points: 2
#     Edge 18, Type (0, 1), BuildingBlock: UVAHIK_clean_linker_0, # of connection points: 2
#     Edge 19, Type (0, 1), BuildingBlock: UVAHIK_clean_linker_0, # of connection points: 2
#     Edge 20, Type (0, 1), BuildingBlock: UVAHIK_clean_linker_0, # of connection points: 2
#     Edge 21, Type (0, 1), BuildingBlock: UVAHIK_clean_linker_0, # of connection points: 2
#     Edge 22, Type (0, 1), BuildingBlock: UVAHIK_clean_linker_0, # of connection points: 2
#     Edge 23, Type (0, 1), BuildingBlock: UVAHIK_clean_linker_0, # of connection points: 2
#     Edge 24, Type (0, 1), BuildingBlock: UVAHIK_clean_linker_0, # of connection points: 2
#     Edge 25, Type (0, 1), BuildingBlock: UVAHIK_clean_linker_0, # of connection points: 2
#     Edge 26, Type (0, 1), BuildingBlock: UVAHIK_clean_linker_0, # of connection points: 2
#     Edge 27, Type (0, 1), BuildingBlock: UVAHIK_clean_linker_0, # of connection points: 2
#     Edge 28, Type (0, 1), BuildingBlock: UVAHIK_clean_linker_0, # of connection points: 2
#     Edge 29, Type (0, 1), BuildingBlock: UVAHIK_clean_linker_0, # of connection points: 2
#     Edge 30, Type (0, 1), BuildingBlock: UVAHIK_clean_linker_0, # of connection points: 2
#     Edge 31, Type (0, 1), BuildingBlock: UVAHIK_clean_linker_0, # of connection points: 2
#     Edge 32, Type (0, 1), BuildingBlock: UVAHIK_clean_linker_0, # of connection points: 2
#     Edge 33, Type (0, 1), BuildingBlock: UVAHIK_clean_linker_0, # of connection points: 2
#     Edge 34, Type (0, 1), BuildingBlock: UVAHIK_clean_linker_0, # of connection points: 2
#     Edge 35, Type (0, 1), BuildingBlock: UVAHIK_clean_linker_0, # of connection points: 2
# Relax obj value: 0.264
# Max RMSD: 0.202
# Mean RMSD: 0.161
data_MOF--net-dag--node1-IZENUY_clean_sbu_0--node2-VETTIZ_charged_linker_0--edge1-UVAHIK_clean_linker_0
_symmetry_space_group_name_H-M    P1
_symmetry_Int_Tables_number       1
_symmetry_cell_setting            triclinic
loop_
_symmetry_equiv_pos_as_xyz
'x, y, z'
_cell_length_a     58.754463
_cell_length_b     58.732919
_cell_length_c     50.888191
_cell_angle_alpha  93.318918
_cell_angle_beta   86.647046
_cell_angle_gamma 87.722001
loop_
_atom_site_label
_atom_site_type_symbol
_atom_site_fract_x
_atom_site_fract_y
_atom_site_fract_z
_atom_type_partial_charge
Fe0 Fe 0.20045 0.83247 0.09126 0.0
Fe1 Fe 0.15378 0.84245 0.06945 0.0
O2 O 0.17304 0.82348 0.08353 0.0
Fe3 Fe 0.16464 0.79556 0.08995 0.0
O4 O 0.18124 0.79322 0.11915 0.0
O5 O 0.19504 0.82715 0.12575 0.0
O6 O 0.19092 0.86231 0.10008 0.0
C7 C 0.17122 0.8712 0.10654 0.0
C8 C 0.20863 0.78679 0.07039 0.0
O9 O 0.15364 0.86253 0.09783 0.0
C10 C 0.14692 0.80318 0.04046 0.0
O11 O 0.20792 0.83856 0.05734 0.0
O12 O 0.17583 0.8575 0.05142 0.0
O13 O 0.18784 0.78276 0.06851 0.0
O14 O 0.21471 0.80421 0.08368 0.0
C15 C 0.1252 0.81993 0.10528 0.0
O16 O 0.15295 0.82351 0.04027 0.0
O17 O 0.14652 0.79274 0.06161 0.0
C18 C 0.1962 0.85149 0.04398 0.0
O19 O 0.12797 0.83092 0.08475 0.0
O20 O 0.14087 0.80663 0.11206 0.0
C21 C 0.18921 0.80839 0.13429 0.0
Fe22 Fe 0.68823 0.65707 0.52485 0.0
Fe23 Fe 0.65497 0.69015 0.55825 0.0
O24 O 0.66135 0.66286 0.54226 0.0
Fe25 Fe 0.64099 0.64155 0.54354 0.0
O26 O 0.66043 0.6222 0.55848 0.0
O27 O 0.68995 0.62654 0.5311 0.0
O28 O 0.70312 0.66228 0.55477 0.0
C29 C 0.70061 0.6805 0.56925 0.0
C30 C 0.65953 0.63721 0.49067 0.0
O31 O 0.6845 0.69489 0.56612 0.0
C32 C 0.61288 0.67889 0.53768 0.0
O33 O 0.6915 0.68653 0.51525 0.0
O34 O 0.65834 0.70376 0.52722 0.0
O35 O 0.64896 0.6291 0.51022 0.0
O36 O 0.67481 0.65146 0.49399 0.0
C37 C 0.63776 0.66264 0.59538 0.0
O38 O 0.62427 0.69027 0.55371 0.0
O39 O 0.61994 0.65931 0.52861 0.0
C40 C 0.67651 0.70222 0.51264 0.0
O41 O 0.65108 0.67829 0.59014 0.0
O42 O 0.62963 0.65033 0.5772 0.0
C43 C 0.67983 0.61545 0.54855 0.0
Fe44 Fe 0.83631 0.20424 0.99101 0.0
Fe45 Fe 0.84939 0.15708 0.00957 0.0
O46 O 0.82899 0.17598 0.99728 0.0
Fe47 Fe 0.80131 0.16667 0.99116 0.0
O48 O 0.80516 0.17232 0.95661 0.0
O49 O 0.81797 0.20667 0.96317 0.0
O50 O 0.85915 0.19426 0.96713 0.0
C51 C 0.87516 0.18042 0.97181 0.0
C52 C 0.79322 0.21175 0.01366 0.0
O53 O 0.87399 0.16889 0.99208 0.0
C54 C 0.80816 0.14718 0.03768 0.0
O55 O 0.85597 0.20703 0.01767 0.0
O56 O 0.85206 0.17572 0.03873 0.0
O57 O 0.78688 0.19481 -0.00027 0.0
O58 O 0.81405 0.21589 0.01451 0.0
C59 C 0.83032 0.12841 0.97366 0.0
O60 O 0.82846 0.14176 0.02916 0.0
O61 O 0.79565 0.16023 0.0253 0.0
C62 C 0.85754 0.19623 0.03837 0.0
O63 O 0.84814 0.1373 0.98123 0.0
O64 O 0.81076 0.13689 0.98155 0.0
C65 C 0.81018 0.19133 0.94809 0.0
Fe66 Fe 0.35702 0.35974 0.54382 0.0
Fe67 Fe 0.30957 0.34546 0.56286 0.0
O68 O 0.33579 0.33925 0.54426 0.0
Fe69 Fe 0.34081 0.31254 0.52642 0.0
O70 O 0.3656 0.30573 0.54449 0.0
O71 O 0.38122 0.33883 0.54095 0.0
O72 O 0.35878 0.35948 0.57914 0.0
C73 C 0.34222 0.36384 0.59572 0.0
C74 C 0.36007 0.34416 0.49213 0.0
O75 O 0.32189 0.36356 0.58871 0.0
C76 C 0.29631 0.32173 0.51652 0.0
O77 O 0.33665 0.38453 0.54655 0.0
O78 O 0.30304 0.36971 0.54383 0.0
O79 O 0.35824 0.32395 0.49932 0.0
O80 O 0.3567 0.36109 0.50848 0.0
C81 C 0.31858 0.30129 0.57454 0.0
O82 O 0.29238 0.32848 0.54052 0.0
O83 O 0.31644 0.3175 0.50714 0.0
C84 C 0.31583 0.38628 0.54134 0.0
O85 O 0.31458 0.32171 0.58305 0.0
O86 O 0.32428 0.29639 0.55038 0.0
C87 C 0.3825 0.31811 0.54653 0.0
C88 C 0.1328 0.11082 0.23826 0.0
C89 C 0.12541 0.09846 0.21605 0.0
C90 C 0.10828 0.1083 0.20151 0.0
C91 C 0.10599 0.14212 0.23123 0.0
C92 C 0.12296 0.13262 0.24537 0.0
C93 C 0.12906 0.14839 0.26804 0.0
H94 H 0.11294 0.2504 0.33725 0.0
C95 C 0.09912 0.16479 0.24391 0.0
C96 C 0.11257 0.16865 0.26545 0.0
H97 H 0.16267 0.19586 0.34777 0.0
H98 H 0.14746 0.17297 0.31282 0.0
H99 H 0.11764 0.24685 0.27285 0.0
H100 H 0.07076 0.21796 0.32888 0.0
H101 H 0.05526 0.22567 0.30205 0.0
H102 H 0.06842 0.24749 0.3217 0.0
H103 H 0.09721 0.26383 0.29405 0.0
H104 H 0.0896 0.25106 0.26299 0.0
C105 C 0.15429 0.15465 0.26312 0.0
C106 C 0.12398 0.13644 0.29395 0.0
C107 C 0.03546 0.2113 0.20696 0.0
C108 C 0.02403 0.23221 0.21496 0.0
C109 C 0.03071 0.24461 0.23756 0.0
C110 C 0.04881 0.23633 0.25176 0.0
C111 C 0.06012 0.21534 0.24338 0.0
C112 C 0.05319 0.20318 0.22142 0.0
C113 C 0.06618 0.18074 0.21594 0.0
C114 C 0.08226 0.18139 0.23812 0.0
C115 C 0.07885 0.20173 0.25402 0.0
C116 C 0.07916 0.18111 0.18854 0.0
C117 C 0.04905 0.16141 0.21841 0.0
C118 C 0.12057 0.23355 0.33194 0.0
C119 C 0.13903 0.22496 0.34538 0.0
C120 C 0.14825 0.2028 0.33807 0.0
C121 C 0.13953 0.18957 0.31754 0.0
C122 C 0.12141 0.19854 0.304 0.0
C123 C 0.11208 0.2201 0.31137 0.0
C124 C 0.09287 0.22675 0.29465 0.0
C125 C 0.09268 0.20587 0.27562 0.0
C126 C 0.10942 0.18939 0.28127 0.0
C127 C 0.09945 0.24834 0.2804 0.0
C128 C 0.07061 0.22983 0.31261 0.0
H129 H 0.0855 0.13641 0.19712 0.0
H130 H 0.14612 0.1038 0.24965 0.0
H131 H 0.10797 0.127 0.29302 0.0
H132 H 0.12113 0.14853 0.31138 0.0
H133 H 0.13799 0.12394 0.29752 0.0
H134 H 0.15906 0.15487 0.24165 0.0
H135 H 0.16608 0.14212 0.27149 0.0
H136 H 0.15765 0.172 0.27112 0.0
H137 H 0.03032 0.2011 0.19007 0.0
H138 H 0.02201 0.26072 0.24413 0.0
H139 H 0.05324 0.24653 0.26873 0.0
H140 H 0.08502 0.19851 0.18495 0.0
H141 H 0.06806 0.17605 0.17246 0.0
H142 H 0.0949 0.17007 0.18672 0.0
H143 H 0.03497 0.16635 0.23349 0.0
H144 H 0.05683 0.14553 0.22521 0.0
H145 H 0.04121 0.15751 0.19941 0.0
H146 H 0.10209 0.09902 0.18453 0.0
C147 C 0.09854 0.12999 0.20897 0.0
C148 C 0.3985 0.50558 0.83686 0.0
C149 C 0.41114 0.49114 0.81779 0.0
C150 C 0.43385 0.49621 0.81066 0.0
C151 C 0.43037 0.53052 0.8395 0.0
C152 C 0.4085 0.52506 0.84753 0.0
C153 C 0.39736 0.54273 0.86731 0.0
H154 H 0.40149 0.64482 0.93537 0.0
C155 C 0.43515 0.55269 0.85271 0.0
C156 C 0.41605 0.55981 0.86939 0.0
H157 H 0.34594 0.5985 0.93411 0.0
H158 H 0.36895 0.5717 0.90561 0.0
H159 H 0.44326 0.60682 0.93695 0.0
H160 H 0.4125 0.63903 0.87289 0.0
H161 H 0.4422 0.63805 0.86645 0.0
H162 H 0.42984 0.65419 0.89532 0.0
H163 H 0.44682 0.63633 0.93094 0.0
H164 H 0.46524 0.61402 0.91431 0.0
C165 C 0.39255 0.5312 0.89357 0.0
C166 C 0.37585 0.55303 0.85536 0.0
C167 C 0.50605 0.59279 0.82319 0.0
C168 C 0.51465 0.61423 0.82994 0.0
C169 C 0.50362 0.62773 0.85118 0.0
C170 C 0.48387 0.62042 0.86455 0.0
C171 C 0.47493 0.59944 0.85657 0.0
C172 C 0.48642 0.58576 0.8367 0.0
C173 C 0.47478 0.56391 0.83085 0.0
C174 C 0.45389 0.56703 0.84985 0.0
C175 C 0.4539 0.58793 0.86472 0.0
C176 C 0.4908 0.54374 0.83769 0.0
C177 C 0.4684 0.56329 0.80167 0.0
C178 C 0.39418 0.62897 0.92893 0.0
C179 C 0.37176 0.6239 0.93733 0.0
C180 C 0.36323 0.60282 0.92857 0.0
C181 C 0.37658 0.58728 0.91169 0.0
C182 C 0.39864 0.59289 0.90298 0.0
C183 C 0.40715 0.6134 0.91165 0.0
C184 C 0.43055 0.61693 0.89927 0.0
C185 C 0.43479 0.59498 0.8821 0.0
C186 C 0.41599 0.58099 0.88437 0.0
C187 C 0.44747 0.61881 0.9214 0.0
C188 C 0.42893 0.63821 0.8827 0.0
H189 H 0.46067 0.51885 0.81468 0.0
H190 H 0.38109 0.50204 0.84297 0.0
H191 H 0.37871 0.55415 0.83367 0.0
H192 H 0.37135 0.57072 0.86294 0.0
H193 H 0.36091 0.54235 0.85885 0.0
H194 H 0.40636 0.51833 0.8968 0.0
H195 H 0.37624 0.52226 0.89351 0.0
H196 H 0.39213 0.54332 0.91102 0.0
H197 H 0.51373 0.58198 0.80684 0.0
H198 H 0.51006 0.6441 0.85725 0.0
H199 H 0.47606 0.63159 0.88025 0.0
H200 H 0.50267 0.54911 0.85292 0.0
H201 H 0.50137 0.53671 0.82005 0.0
H202 H 0.48134 0.52981 0.84645 0.0
H203 H 0.46196 0.58043 0.79647 0.0
H204 H 0.45459 0.55175 0.79735 0.0
H205 H 0.48347 0.5582 0.7881 0.0
H206 H 0.44391 0.48561 0.79579 0.0
C207 C 0.44353 0.51571 0.82147 0.0
C208 C 0.75598 0.8694 0.31256 0.0
C209 C 0.76207 0.8482 0.32221 0.0
C210 C 0.78359 0.83774 0.31449 0.0
C211 C 0.79282 0.86958 0.28827 0.0
C212 C 0.7715 0.87963 0.29537 0.0
C213 C 0.76756 0.90163 0.28217 0.0
H214 H 0.80616 0.97646 0.19498 0.0
C215 C 0.80499 0.88457 0.27045 0.0
C216 C 0.79022 0.90332 0.26654 0.0
H217 H 0.7407 0.97915 0.23846 0.0
H218 H 0.75194 0.94544 0.26094 0.0
H219 H 0.83426 0.96754 0.24329 0.0
H220 H 0.81125 0.92184 0.18243 0.0
H221 H 0.84009 0.91451 0.18679 0.0
H222 H 0.8324 0.94261 0.17708 0.0
H223 H 0.84997 0.96274 0.21207 0.0
H224 H 0.85505 0.94514 0.23929 0.0
C225 C 0.76349 0.92123 0.30381 0.0
C226 C 0.74752 0.89856 0.26401 0.0
C227 C 0.88722 0.86411 0.23776 0.0
C228 C 0.90314 0.87532 0.22196 0.0
C229 C 0.89649 0.89613 0.2116 0.0
C230 C 0.87435 0.90563 0.21679 0.0
C231 C 0.85862 0.89428 0.23264 0.0
C232 C 0.86518 0.87398 0.24301 0.0
C233 C 0.84629 0.86475 0.26002 0.0
C234 C 0.82741 0.88297 0.25825 0.0
C235 C 0.8347 0.90004 0.24198 0.0
C236 C 0.8544 0.86384 0.28839 0.0
C237 C 0.84006 0.84135 0.2473 0.0
C238 C 0.7942 0.96961 0.2092 0.0
C239 C 0.77241 0.98001 0.21468 0.0
C240 C 0.75751 0.97117 0.23385 0.0
C241 C 0.76405 0.95161 0.24672 0.0
C242 C 0.78578 0.941 0.24047 0.0
C243 C 0.80056 0.95037 0.22236 0.0
C244 C 0.82336 0.93776 0.21902 0.0
C245 C 0.81958 0.91858 0.23723 0.0
C246 C 0.79752 0.9204 0.24965 0.0
C247 C 0.84173 0.95404 0.2287 0.0
C248 C 0.82721 0.92874 0.18981 0.0
H249 H 0.81517 0.83956 0.29271 0.0
H250 H 0.73942 0.87766 0.31799 0.0
H251 H 0.74838 0.88113 0.2541 0.0
H252 H 0.74779 0.91024 0.24781 0.0
H253 H 0.73083 0.90091 0.27548 0.0
H254 H 0.7747 0.91864 0.32036 0.0
H255 H 0.74552 0.92208 0.31206 0.0
H256 H 0.76771 0.93805 0.2967 0.0
H257 H 0.89191 0.84817 0.24614 0.0
H258 H 0.90836 0.90493 0.19909 0.0
H259 H 0.87033 0.92138 0.20812 0.0
H260 H 0.86403 0.87921 0.2937 0.0
H261 H 0.86588 0.84859 0.29018 0.0
H262 H 0.84023 0.86386 0.30359 0.0
H263 H 0.84323 0.84063 0.22548 0.0
H264 H 0.82173 0.83805 0.2504 0.0
H265 H 0.85035 0.82714 0.25483 0.0
H266 H 0.78865 0.82147 0.32187 0.0
C267 C 0.79901 0.84833 0.29767 0.0
C268 C 0.7285 0.25266 0.68547 0.0
C269 C 0.74939 0.25988 0.6945 0.0
C270 C 0.76055 0.27733 0.68162 0.0
C271 C 0.72918 0.28154 0.65322 0.0
C272 C 0.71882 0.2636 0.66481 0.0
C273 C 0.69636 0.25857 0.65343 0.0
H274 H 0.61323 0.28894 0.5742 0.0
C275 C 0.71394 0.29031 0.63371 0.0
C276 C 0.69485 0.27665 0.63338 0.0
H277 H 0.61372 0.23367 0.62667 0.0
H278 H 0.65216 0.24206 0.63766 0.0
H279 H 0.63168 0.32324 0.61176 0.0
H280 H 0.66697 0.28068 0.54973 0.0
H281 H 0.67803 0.30802 0.54839 0.0
H282 H 0.6481 0.30442 0.54398 0.0
H283 H 0.63194 0.33045 0.57799 0.0
H284 H 0.65363 0.33963 0.59943 0.0
C285 C 0.67735 0.26221 0.67588 0.0
C286 C 0.69832 0.23415 0.64005 0.0
C287 C 0.72971 0.36561 0.59304 0.0
C288 C 0.71707 0.37924 0.57671 0.0
C289 C 0.69767 0.37022 0.56553 0.0
C290 C 0.69036 0.34864 0.57151 0.0
C291 C 0.70231 0.33591 0.58917 0.0
C292 C 0.72199 0.34412 0.59907 0.0
C293 C 0.7323 0.32822 0.61776 0.0
C294 C 0.71501 0.30961 0.61816 0.0
C295 C 0.69745 0.31434 0.60149 0.0
C296 C 0.73298 0.34137 0.64497 0.0
C297 C 0.75596 0.31914 0.6056 0.0
C298 C 0.62182 0.27823 0.58752 0.0
C299 C 0.61052 0.26051 0.59944 0.0
C300 C 0.62208 0.24745 0.6173 0.0
C301 C 0.64437 0.25239 0.62365 0.0
C302 C 0.65509 0.27079 0.61233 0.0
C303 C 0.64388 0.28314 0.59433 0.0
C304 C 0.65718 0.30289 0.58534 0.0
C305 C 0.67837 0.30029 0.60073 0.0
C306 C 0.67708 0.2815 0.61652 0.0
C307 C 0.64298 0.32528 0.5938 0.0
C308 C 0.66282 0.29905 0.55525 0.0
H309 H 0.75974 0.30153 0.65236 0.0
H310 H 0.71938 0.23938 0.6949 0.0
H311 H 0.71566 0.23043 0.63039 0.0
H312 H 0.68655 0.23173 0.62408 0.0
H313 H 0.69526 0.22113 0.6547 0.0
H314 H 0.68101 0.2768 0.68971 0.0
H315 H 0.67596 0.24682 0.68749 0.0
H316 H 0.66047 0.26669 0.66874 0.0
H317 H 0.74491 0.37181 0.6016 0.0
H318 H 0.68739 0.38029 0.55313 0.0
H319 H 0.67514 0.34309 0.5629 0.0
H320 H 0.71668 0.35141 0.64995 0.0
H321 H 0.74703 0.35348 0.64492 0.0
H322 H 0.735 0.33016 0.66136 0.0
H323 H 0.7567 0.3189 0.58368 0.0
H324 H 0.75985 0.30122 0.61003 0.0
H325 H 0.76978 0.32997 0.61244 0.0
H326 H 0.77691 0.28286 0.68769 0.0
C327 C 0.75059 0.28813 0.66103 0.0
C328 C 0.60721 0.49853 0.24616 0.0
C329 C 0.59429 0.51371 0.26415 0.0
C330 C 0.57115 0.50952 0.27015 0.0
C331 C 0.575 0.47404 0.2433 0.0
C332 C 0.59719 0.47892 0.23585 0.0
C333 C 0.60858 0.46053 0.21715 0.0
H334 H 0.60793 0.35326 0.16116 0.0
C335 C 0.57052 0.45115 0.23168 0.0
C336 C 0.58999 0.44327 0.21597 0.0
H337 H 0.65952 0.40295 0.15052 0.0
H338 H 0.63618 0.43106 0.17762 0.0
H339 H 0.5978 0.36395 0.22118 0.0
H340 H 0.5643 0.38872 0.15488 0.0
H341 H 0.543 0.38218 0.17871 0.0
H342 H 0.56274 0.35988 0.16457 0.0
H343 H 0.57821 0.34708 0.20358 0.0
H344 H 0.56868 0.36677 0.23093 0.0
C345 C 0.63 0.45097 0.22984 0.0
C346 C 0.61364 0.47078 0.19013 0.0
C347 C 0.49974 0.41158 0.26385 0.0
C348 C 0.49313 0.38891 0.26075 0.0
C349 C 0.50593 0.37349 0.2429 0.0
C350 C 0.52546 0.38039 0.22887 0.0
C351 C 0.53252 0.40284 0.23313 0.0
C352 C 0.51956 0.41808 0.25015 0.0
C353 C 0.53046 0.44071 0.25368 0.0
C354 C 0.55212 0.43656 0.23596 0.0
C355 C 0.5532 0.41437 0.22398 0.0
C356 C 0.53553 0.44441 0.28317 0.0
C357 C 0.5144 0.45935 0.24348 0.0
C358 C 0.6142 0.3702 0.16471 0.0
C359 C 0.63564 0.37587 0.15387 0.0
C360 C 0.64301 0.39822 0.15855 0.0
C361 C 0.6295 0.41447 0.17439 0.0
C362 C 0.60838 0.40833 0.18568 0.0
C363 C 0.60087 0.38665 0.18033 0.0
C364 C 0.57784 0.38325 0.19361 0.0
C365 C 0.57265 0.40654 0.20762 0.0
C366 C 0.59077 0.42104 0.20327 0.0
C367 C 0.58054 0.3642 0.21325 0.0
C368 C 0.56098 0.37807 0.17197 0.0
H369 H 0.54396 0.4873 0.26569 0.0
H370 H 0.6249 0.50155 0.24079 0.0
H371 H 0.60164 0.48543 0.18722 0.0
H372 H 0.61127 0.45844 0.17333 0.0
H373 H 0.63122 0.47705 0.18842 0.0
H374 H 0.62597 0.44798 0.25097 0.0
H375 H 0.64397 0.46316 0.22886 0.0
H376 H 0.63658 0.43439 0.22061 0.0
H377 H 0.49044 0.42365 0.27786 0.0
H378 H 0.50106 0.35594 0.24025 0.0
H379 H 0.53468 0.36777 0.21585 0.0
H380 H 0.54141 0.42809 0.29116 0.0
H381 H 0.52001 0.4509 0.29524 0.0
H382 H 0.54937 0.45612 0.28666 0.0
H383 H 0.50477 0.45238 0.22684 0.0
H384 H 0.52377 0.47357 0.23532 0.0
H385 H 0.50172 0.46628 0.25927 0.0
H386 H 0.56083 0.52089 0.28399 0.0
C387 C 0.56144 0.48985 0.25975 0.0
C388 C 0.22655 0.14863 0.76837 0.0
C389 C 0.24902 0.14161 0.75976 0.0
C390 C 0.25844 0.12107 0.76829 0.0
C391 C 0.22323 0.11516 0.7939 0.0
C392 C 0.21401 0.1352 0.78522 0.0
C393 C 0.18968 0.14002 0.79541 0.0
H394 H 0.09837 0.10977 0.87036 0.0
C395 C 0.20556 0.10526 0.81115 0.0
C396 C 0.18585 0.11975 0.81199 0.0
H397 H 0.10293 0.16713 0.82088 0.0
H398 H 0.14225 0.15617 0.80838 0.0
H399 H 0.12177 0.07452 0.82881 0.0
H400 H 0.14814 0.11318 0.89358 0.0
H401 H 0.16027 0.08534 0.89355 0.0
H402 H 0.1297 0.08986 0.89776 0.0
H403 H 0.11791 0.06627 0.8621 0.0
H404 H 0.14263 0.05653 0.84108 0.0
C405 C 0.17442 0.13987 0.77154 0.0
C406 C 0.18847 0.1628 0.81246 0.0
C407 C 0.2225 0.03098 0.85486 0.0
C408 C 0.2089 0.01771 0.87115 0.0
C409 C 0.18635 0.02546 0.87882 0.0
C410 C 0.17731 0.04588 0.87021 0.0
C411 C 0.19087 0.05878 0.85359 0.0
C412 C 0.21307 0.05136 0.84617 0.0
C413 C 0.2246 0.06726 0.82791 0.0
C414 C 0.20563 0.08532 0.8257 0.0
C415 C 0.18599 0.08023 0.84088 0.0
C416 C 0.23097 0.05387 0.80118 0.0
C417 C 0.24518 0.07712 0.84166 0.0
C418 C 0.10767 0.11992 0.85662 0.0
C419 C 0.09734 0.13937 0.84661 0.0
C420 C 0.11043 0.15224 0.82919 0.0
C421 C 0.13326 0.14573 0.82177 0.0
C422 C 0.14316 0.12606 0.83172 0.0
C423 C 0.13033 0.11352 0.84878 0.0
C424 C 0.14329 0.09272 0.85675 0.0
C425 C 0.1661 0.09483 0.84171 0.0
C426 C 0.16599 0.11445 0.82725 0.0
C427 C 0.13082 0.07131 0.84694 0.0
C428 C 0.14543 0.09515 0.887 0.0
H429 H 0.2538 0.09244 0.79134 0.0
H430 H 0.2187 0.1641 0.7617 0.0
H431 H 0.20349 0.16398 0.82473 0.0
H432 H 0.17346 0.16458 0.82662 0.0
H433 H 0.18838 0.17764 0.79988 0.0
H434 H 0.18175 0.12799 0.75511 0.0
H435 H 0.1727 0.15712 0.7638 0.0
H436 H 0.15725 0.13362 0.77622 0.0
H437 H 0.23986 0.02537 0.84859 0.0
H438 H 0.17569 0.01572 0.89172 0.0
H439 H 0.16004 0.05073 0.87679 0.0
H440 H 0.218 0.04115 0.79663 0.0
H441 H 0.24772 0.04447 0.80149 0.0
H442 H 0.23134 0.06489 0.78432 0.0
H443 H 0.24069 0.08125 0.863 0.0
H444 H 0.25061 0.0933 0.83382 0.0
H445 H 0.25998 0.06464 0.84006 0.0
H446 H 0.27574 0.11537 0.76189 0.0
C447 C 0.24569 0.10785 0.78542 0.0
C448 C 0.2462 0.72757 0.40226 0.0
C449 C 0.25496 0.74602 0.389 0.0
C450 C 0.27462 0.75622 0.39807 0.0
C451 C 0.27734 0.7287 0.43153 0.0
C452 C 0.25766 0.71917 0.42328 0.0
C453 C 0.25161 0.69859 0.43809 0.0
H454 H 0.28274 0.62008 0.52242 0.0
C455 C 0.28581 0.71519 0.45278 0.0
C456 C 0.27066 0.69766 0.45697 0.0
H457 H 0.22596 0.61903 0.47218 0.0
H458 H 0.23396 0.65706 0.45935 0.0
H459 H 0.31747 0.63994 0.48055 0.0
H460 H 0.27538 0.67201 0.54534 0.0
H461 H 0.29965 0.68844 0.5424 0.0
H462 H 0.30274 0.65889 0.5503 0.0
H463 H 0.32083 0.63482 0.51461 0.0
H464 H 0.33424 0.65798 0.49952 0.0
C465 C 0.25264 0.67751 0.41809 0.0
C466 C 0.22806 0.70358 0.45297 0.0
C467 C 0.36381 0.72927 0.48712 0.0
C468 C 0.37598 0.7192 0.50671 0.0
C469 C 0.36506 0.70393 0.52311 0.0
C470 C 0.34283 0.69751 0.51885 0.0
C471 C 0.33148 0.70637 0.49791 0.0
C472 C 0.34145 0.72287 0.48335 0.0
C473 C 0.32595 0.73165 0.46335 0.0
C474 C 0.30566 0.71665 0.46729 0.0
C475 C 0.30934 0.70146 0.48705 0.0
C476 C 0.33819 0.72712 0.43563 0.0
C477 C 0.31959 0.75717 0.47093 0.0
C478 C 0.27167 0.62827 0.50918 0.0
C479 C 0.25376 0.61653 0.49822 0.0
C480 C 0.24 0.62765 0.48068 0.0
C481 C 0.24473 0.64968 0.47319 0.0
C482 C 0.26369 0.66053 0.48296 0.0
C483 C 0.27647 0.65003 0.50113 0.0
C484 C 0.29666 0.66347 0.50842 0.0
C485 C 0.29424 0.68353 0.4911 0.0
C486 C 0.27494 0.68169 0.4762 0.0
C487 C 0.31854 0.64839 0.50055 0.0
C488 C 0.29367 0.67104 0.53817 0.0
H489 H 0.30087 0.75595 0.42487 0.0
H490 H 0.231 0.71945 0.39608 0.0
H491 H 0.22678 0.72134 0.462 0.0
H492 H 0.22503 0.69248 0.46949 0.0
H493 H 0.21405 0.70175 0.43935 0.0
H494 H 0.26477 0.67979 0.40091 0.0
H495 H 0.23567 0.67453 0.41034 0.0
H496 H 0.25911 0.66176 0.42649 0.0
H497 H 0.37175 0.74141 0.47464 0.0
H498 H 0.37416 0.69608 0.5384 0.0
H499 H 0.33564 0.68525 0.53139 0.0
H500 H 0.3464 0.70965 0.43357 0.0
H501 H 0.35172 0.73949 0.43227 0.0
H502 H 0.32653 0.72787 0.41947 0.0
H503 H 0.3208 0.76126 0.49242 0.0
H504 H 0.30168 0.76184 0.46718 0.0
H505 H 0.33113 0.76852 0.46026 0.0
H506 H 0.28198 0.77024 0.38811 0.0
C507 C 0.28574 0.74776 0.41931 0.0
C508 C 0.87144 0.88858 0.84516 0.0
C509 C 0.88449 0.90415 0.85923 0.0
C510 C 0.90607 0.89675 0.86703 0.0
C511 C 0.90128 0.85898 0.84696 0.0
C512 C 0.88014 0.86618 0.83929 0.0
C513 C 0.86854 0.84746 0.8245 0.0
H514 H 0.87069 0.73864 0.77237 0.0
C515 C 0.90519 0.83467 0.83808 0.0
C516 C 0.88607 0.82777 0.82498 0.0
H517 H 0.81901 0.79259 0.76754 0.0
H518 H 0.84009 0.81791 0.79453 0.0
H519 H 0.91471 0.77119 0.76446 0.0
H520 H 0.87851 0.74866 0.83381 0.0
H521 H 0.90755 0.74914 0.84016 0.0
H522 H 0.89851 0.73005 0.81404 0.0
H523 H 0.91431 0.74181 0.7725 0.0
H524 H 0.93446 0.76072 0.78615 0.0
C525 C 0.86541 0.85486 0.79611 0.0
C526 C 0.84604 0.84282 0.84035 0.0
C527 C 0.97895 0.7933 0.8575 0.0
C528 C 0.98697 0.77047 0.85393 0.0
C529 C 0.9733 0.75422 0.84192 0.0
C530 C 0.95194 0.76087 0.83307 0.0
C531 C 0.94415 0.7839 0.83672 0.0
C532 C 0.95753 0.79956 0.84911 0.0
C533 C 0.94605 0.82287 0.85324 0.0
C534 C 0.92366 0.81887 0.84079 0.0
C535 C 0.9227 0.79613 0.83081 0.0
C536 C 0.96066 0.8397 0.8379 0.0
C537 C 0.94263 0.82889 0.88337 0.0
C538 C 0.86399 0.75593 0.77713 0.0
C539 C 0.84304 0.76352 0.7679 0.0
C540 C 0.83484 0.78611 0.77476 0.0
C541 C 0.84724 0.80093 0.79026 0.0
C542 C 0.86823 0.79326 0.79902 0.0
C543 C 0.87626 0.77106 0.79264 0.0
C544 C 0.89898 0.76608 0.80385 0.0
C545 C 0.90342 0.78913 0.81732 0.0
C546 C 0.88527 0.80491 0.81444 0.0
C547 C 0.91666 0.75946 0.78066 0.0
C548 C 0.89595 0.74741 0.82391 0.0
H549 H 0.93104 0.86984 0.86751 0.0
H550 H 0.8549 0.89374 0.83861 0.0
H551 H 0.84834 0.84429 0.86192 0.0
H552 H 0.84025 0.82536 0.83646 0.0
H553 H 0.83217 0.85529 0.83625 0.0
H554 H 0.87933 0.8659 0.78949 0.0
H555 H 0.84899 0.86468 0.79495 0.0
H556 H 0.86635 0.84031 0.78126 0.0
H557 H 0.98892 0.80596 0.86738 0.0
H558 H 0.97919 0.73648 0.83934 0.0
H559 H 0.94225 0.74784 0.8239 0.0
H560 H 0.96746 0.83163 0.81855 0.0
H561 H 0.97545 0.84491 0.84913 0.0
H562 H 0.95086 0.85515 0.83304 0.0
H563 H 0.94098 0.81326 0.89458 0.0
H564 H 0.92667 0.8391 0.88888 0.0
H565 H 0.95729 0.83816 0.89082 0.0
H566 H 0.91634 0.90824 0.87825 0.0
C567 C 0.91452 0.87434 0.86096 0.0
C568 C 0.14726 0.90336 0.12983 0.0
C569 C 0.16894 0.89336 0.12213 0.0
C570 C 0.1451 0.92478 0.14338 0.0
C571 C 0.17567 0.97752 0.15275 0.0
H572 H 0.12849 0.99202 0.2084 0.0
C573 C 0.13738 0.05875 0.22682 0.0
C574 C 0.13505 0.07522 0.20809 0.0
C575 C 0.1444 0.03625 0.21884 0.0
C576 C 0.14196 0.98819 0.19315 0.0
H577 H 0.20538 0.89779 0.1234 0.0
H578 H 0.20154 0.93518 0.14707 0.0
H579 H 0.13497 0.95264 0.19064 0.0
H580 H 0.13934 0.08139 0.16654 0.0
H581 H 0.15144 0.04217 0.15259 0.0
H582 H 0.18246 0.0131 0.15502 0.0
C583 C 0.18624 0.92651 0.14235 0.0
C584 C 0.1455 0.96568 0.18278 0.0
C585 C 0.18841 0.90504 0.12889 0.0
C586 C 0.14075 0.06898 0.18138 0.0
C587 C 0.1479 0.04658 0.17343 0.0
C588 C 0.17206 3e-05 0.16304 0.0
C589 C 0.16456 0.93671 0.14951 0.0
C590 C 0.16213 0.96017 0.16217 0.0
C591 C 0.14943 0.02987 0.192 0.0
C592 C 0.15491 0.00567 0.18304 0.0
H593 H 0.1319 0.89481 0.12505 0.0
H594 H 0.12815 0.93229 0.14837 0.0
H595 H 0.18851 0.97386 0.13676 0.0
H596 H 0.133 0.06307 0.24753 0.0
H597 H 0.14562 0.02377 0.23361 0.0
C598 C 0.62836 0.67875 0.64156 0.0
C599 C 0.62985 0.65994 0.62304 0.0
C600 C 0.61961 0.67636 0.66736 0.0
C601 C 0.61172 0.63735 0.71874 0.0
H602 H 0.55326 0.66857 0.738 0.0
C603 C 0.55084 0.6078 0.80108 0.0
C604 C 0.53374 0.62294 0.81328 0.0
C605 C 0.5661 0.61496 0.78149 0.0
C606 C 0.56987 0.66017 0.73348 0.0
H607 H 0.62429 0.62379 0.61718 0.0
H608 H 0.60968 0.61951 0.66263 0.0
H609 H 0.57379 0.67615 0.69674 0.0
H610 H 0.52078 0.65819 0.81597 0.0
H611 H 0.54834 0.67103 0.78325 0.0
H612 H 0.60825 0.62159 0.75547 0.0
C613 C 0.61498 0.63608 0.65698 0.0
C614 C 0.5815 0.66443 0.70966 0.0
C615 C 0.62318 0.63857 0.63102 0.0
C616 C 0.53365 0.64597 0.80706 0.0
C617 C 0.54927 0.65327 0.78784 0.0
C618 C 0.60038 0.63347 0.74289 0.0
C619 C 0.61284 0.65502 0.67521 0.0
C620 C 0.6022 0.65262 0.70184 0.0
C621 C 0.56508 0.63765 0.77397 0.0
C622 C 0.57893 0.6443 0.75028 0.0
H623 H 0.63333 0.69543 0.6359 0.0
H624 H 0.618 0.69117 0.68116 0.0
H625 H 0.6278 0.62819 0.71309 0.0
H626 H 0.5519 0.59008 0.80586 0.0
H627 H 0.57785 0.60227 0.77137 0.0
C628 C 0.77472 0.13419 0.06521 0.0
C629 C 0.79844 0.13586 0.06076 0.0
C630 C 0.76592 0.1215 0.08564 0.0
C631 C 0.78074 0.09497 0.14708 0.0
H632 H 0.74076 0.04742 0.12507 0.0
C633 C 0.76741 0.99819 0.17236 0.0
C634 C 0.76569 -7e-05 0.20002 0.0
C635 C 0.76469 0.01758 0.1581 0.0
C636 C 0.75168 0.06078 0.13163 0.0
H637 H 0.8314 0.12661 0.07509 0.0
H638 H 0.81609 0.10469 0.11067 0.0
H639 H 0.74964 0.07767 0.09561 0.0
H640 H 0.75879 0.02293 0.23459 0.0
H641 H 0.75431 0.0572 0.20954 0.0
H642 H 0.78379 0.0774 0.18249 0.0
C643 C 0.80427 0.11312 0.09843 0.0
C644 C 0.75664 0.07819 0.11485 0.0
C645 C 0.81306 0.12551 0.07787 0.0
C646 C 0.76007 0.02123 0.21324 0.0
C647 C 0.75765 0.04077 0.19894 0.0
C648 C 0.77565 0.07767 0.16394 0.0
C649 C 0.78065 0.11059 0.10224 0.0
C650 C 0.7719 0.09496 0.12201 0.0
C651 C 0.76046 0.03919 0.17123 0.0
C652 C 0.76175 0.05992 0.15596 0.0
H653 H 0.76301 0.142 0.05237 0.0
H654 H 0.74763 0.1199 0.08821 0.0
H655 H 0.79237 0.10783 0.15321 0.0
H656 H 0.77174 0.98191 0.16179 0.0
H657 H 0.76724 0.01581 0.13682 0.0
C658 C 0.42205 0.32238 0.56115 0.0
C659 C 0.40456 0.30808 0.55392 0.0
C660 C 0.44294 0.31314 0.56811 0.0
C661 C 0.48104 0.2625 0.55811 0.0
H662 H 0.51034 0.28982 0.61784 0.0
C663 C 0.57021 0.25607 0.61655 0.0
C664 C 0.58609 0.25738 0.595 0.0
C665 C 0.5468 0.25736 0.61294 0.0
C666 C 0.50228 0.28172 0.60134 0.0
H667 H 0.39527 0.2728 0.54843 0.0
H668 H 0.43206 0.25663 0.56029 0.0
H669 H 0.47149 0.30227 0.60951 0.0
H670 H 0.59001 0.2593 0.55259 0.0
H671 H 0.54916 0.2616 0.54627 0.0
H672 H 0.51214 0.24239 0.54954 0.0
C673 C 0.42947 0.27501 0.56057 0.0
C674 C 0.48012 0.28904 0.59642 0.0
C675 C 0.40841 0.28428 0.55388 0.0
C676 C 0.57813 0.25844 0.56958 0.0
C677 C 0.55474 0.25958 0.56594 0.0
C678 C 0.50332 0.2553 0.5629 0.0
C679 C 0.44691 0.28938 0.5678 0.0
C680 C 0.46944 0.27984 0.57447 0.0
C681 C 0.53884 0.25982 0.5877 0.0
C682 C 0.51431 0.26513 0.58432 0.0
H683 H 0.41961 0.34078 0.56152 0.0
H684 H 0.45616 0.32462 0.5733 0.0
H685 H 0.47324 0.25517 0.54099 0.0
H686 H 0.57584 0.2554 0.6364 0.0
H687 H 0.53492 0.25726 0.63003 0.0
C688 C 0.63666 0.61383 0.4602 0.0
C689 C 0.65459 0.62865 0.4637 0.0
C690 C 0.6316 0.60569 0.43504 0.0
C691 C 0.65617 0.59421 0.36754 0.0
H692 H 0.59265 0.58765 0.35294 0.0
C693 C 0.59384 0.55389 0.28395 0.0
C694 C 0.60518 0.53243 0.27893 0.0
C695 C 0.60202 0.57 0.30195 0.0
C696 C 0.6105 0.58971 0.35633 0.0
H697 H 0.68125 0.6466 0.4433 0.0
H698 H 0.67236 0.6322 0.39908 0.0
H699 H 0.60221 0.60788 0.39348 0.0
H700 H 0.63473 0.51155 0.28764 0.0
H701 H 0.64882 0.53942 0.31928 0.0
H702 H 0.66441 0.57575 0.33041 0.0
C703 C 0.66233 0.62688 0.416 0.0
C704 C 0.61596 0.60107 0.37981 0.0
C705 C 0.66736 0.63516 0.44131 0.0
C706 C 0.62571 0.52801 0.29092 0.0
C707 C 0.63381 0.54405 0.30907 0.0
C708 C 0.65069 0.58282 0.34395 0.0
C709 C 0.64431 0.61212 0.41263 0.0
C710 C 0.63883 0.60287 0.38606 0.0
C711 C 0.62162 0.56492 0.31551 0.0
C712 C 0.62776 0.57993 0.33838 0.0
H713 H 0.62643 0.60844 0.47694 0.0
H714 H 0.61789 0.59401 0.43319 0.0
H715 H 0.67396 0.5953 0.3718 0.0
H716 H 0.57815 0.55788 0.27468 0.0
H717 H 0.5925 0.58611 0.30599 0.0
C718 C 0.90379 0.19697 0.94055 0.0
C719 C 0.89622 0.17842 0.95444 0.0
C720 C 0.92434 0.19498 0.92504 0.0
C721 C 0.96349 0.1542 0.88765 0.0
H722 H 0.01238 0.19298 0.90729 0.0
C723 C 0.05704 0.12902 0.85794 0.0
C724 C 0.07299 0.14593 0.85421 0.0
C725 C 0.03451 0.13491 0.8666 0.0
C726 C 0.99885 0.18232 0.90102 0.0
H727 H 0.90362 0.14308 0.96228 0.0
H728 H 0.9391 0.13944 0.93458 0.0
H729 H 0.97419 0.20012 0.92839 0.0
H730 H 0.07737 0.18249 0.85595 0.0
H731 H 0.03775 0.19283 0.86986 0.0
H732 H 0.98777 0.13646 0.86016 0.0
C733 C 0.92935 0.15556 0.936 0.0
C734 C 0.977 0.1864 0.91324 0.0
C735 C 0.90916 0.1577 0.95195 0.0
C736 C 0.06556 0.16899 0.85845 0.0
C737 C 0.04286 0.17492 0.8668 0.0
C738 C 0.98518 0.15037 0.87508 0.0
C739 C 0.93723 0.17423 0.92265 0.0
C740 C 0.95934 0.17199 0.90713 0.0
C741 C 0.0271 0.15793 0.87134 0.0
C742 C 0.00335 0.16393 0.88217 0.0
H743 H 0.89412 0.21314 0.94218 0.0
H744 H 0.93016 0.20958 0.91488 0.0
H745 H 0.95001 0.14301 0.88247 0.0
H746 H 0.06196 0.11109 0.85435 0.0
H747 H 0.02308 0.12127 0.87022 0.0
C748 C 0.32029 0.42625 0.52794 0.0
C749 C 0.30594 0.4087 0.5349 0.0
C750 C 0.3111 0.44762 0.52245 0.0
C751 C 0.26096 0.48604 0.53657 0.0
H752 H 0.28598 0.51738 0.47712 0.0
C753 C 0.24993 0.5762 0.481 0.0
C754 C 0.25155 0.59195 0.50261 0.0
C755 C 0.25226 0.55277 0.48415 0.0
C756 C 0.27857 0.50876 0.4936 0.0
H757 H 0.27062 0.39981 0.54138 0.0
H758 H 0.2546 0.43735 0.53205 0.0
H759 H 0.29915 0.47828 0.48339 0.0
H760 H 0.25517 0.5955 0.54477 0.0
H761 H 0.25925 0.55453 0.55029 0.0
H762 H 0.24077 0.5168 0.54711 0.0
C763 C 0.27296 0.43447 0.53087 0.0
C764 C 0.2863 0.48646 0.49733 0.0
C765 C 0.28216 0.41297 0.53607 0.0
C766 C 0.25402 0.58375 0.52774 0.0
C767 C 0.2562 0.5603 0.53091 0.0
C768 C 0.25338 0.50847 0.53299 0.0
C769 C 0.28736 0.452 0.52402 0.0
C770 C 0.27781 0.47499 0.51904 0.0
C771 C 0.25612 0.54461 0.50899 0.0
C772 C 0.26231 0.52014 0.51162 0.0
H773 H 0.33867 0.42351 0.52677 0.0
H774 H 0.32261 0.46089 0.51747 0.0
H775 H 0.25422 0.47763 0.55356 0.0
H776 H 0.24823 0.58199 0.46135 0.0
H777 H 0.25187 0.54105 0.46696 0.0
C778 C 0.14145 0.80209 0.99215 0.0
C779 C 0.13693 0.79301 0.01675 0.0
C780 C 0.13 0.79451 0.97025 0.0
C781 C 0.09117 0.75066 0.94488 0.0
H782 H 0.06834 0.80117 0.90673 0.0
C783 C 0.00999 0.74995 0.88556 0.0
C784 C 0.0091 0.76405 0.86429 0.0
C785 C 0.02958 0.74874 0.89989 0.0
C786 C 0.07493 0.78671 0.91667 0.0
H787 H 0.11781 0.76796 0.03739 0.0
H788 H 0.09724 0.75521 0.99931 0.0
H789 H 0.09531 0.80807 0.94005 0.0
H790 H 0.0283 0.78616 0.8396 0.0
H791 H 0.06279 0.78347 0.86393 0.0
H792 H 0.0698 0.72952 0.92192 0.0
C793 C 0.10993 0.76791 0.9968 0.0
C794 C 0.09046 0.79069 0.93589 0.0
C795 C 0.12162 0.77531 0.01868 0.0
C796 C 0.02865 0.77526 0.85605 0.0
C797 C 0.04827 0.77385 0.87012 0.0
C798 C 0.07549 0.74667 0.92558 0.0
C799 C 0.11351 0.77791 0.97251 0.0
C800 C 0.0986 0.77281 0.95047 0.0
C801 C 0.04855 0.76154 0.89301 0.0
C802 C 0.06702 0.76473 0.91146 0.0
H803 H 0.15347 0.81548 0.98994 0.0
H804 H 0.13361 0.80218 0.95169 0.0
H805 H 0.09727 0.73647 0.95559 0.0
H806 H 0.99497 0.74133 0.89235 0.0
H807 H 0.02918 0.73918 0.91748 0.0
C808 C 0.81377 0.09272 0.95461 0.0
C809 C 0.83254 0.10659 0.95746 0.0
C810 C 0.81643 0.0715 0.94054 0.0
C811 C 0.85465 0.03756 0.89147 0.0
H812 H 0.83175 0.98528 0.92617 0.0
C813 C 0.89037 0.94618 0.86477 0.0
C814 C 0.87567 0.92794 0.86614 0.0
C815 C 0.88254 0.96838 0.8728 0.0
C816 C 0.83789 0.9997 0.91591 0.0
H817 H 0.86861 0.10944 0.94693 0.0
H818 H 0.87319 0.07256 0.92244 0.0
H819 H 0.82236 0.02366 0.9456 0.0
H820 H 0.84099 0.91884 0.87646 0.0
H821 H 0.82716 0.95775 0.88995 0.0
H822 H 0.87046 0.01366 0.86198 0.0
C823 C 0.85642 0.07806 0.93102 0.0
C824 C 0.83252 0.0217 0.92709 0.0
C825 C 0.85382 0.09912 0.94526 0.0
C826 C 0.85273 0.93253 0.87501 0.0
C827 C 0.84487 0.95479 0.88301 0.0
C828 C 0.85992 0.01559 0.88022 0.0
C829 C 0.83784 0.06389 0.92877 0.0
C830 C 0.84127 0.04082 0.91529 0.0
C831 C 0.85976 0.97294 0.8823 0.0
C832 C 0.85204 0.99636 0.89262 0.0
H833 H 0.79713 0.09801 0.96373 0.0
H834 H 0.80178 0.06098 0.93896 0.0
H835 H 0.86133 0.05202 0.88172 0.0
H836 H 0.90805 0.94329 0.85768 0.0
H837 H 0.89457 0.98187 0.87226 0.0
C838 C 0.36803 0.33088 0.44461 0.0
C839 C 0.3689 0.34795 0.46499 0.0
C840 C 0.37727 0.33428 0.41923 0.0
C841 C 0.39998 0.37966 0.3773 0.0
H842 H 0.43247 0.32832 0.33874 0.0
C843 C 0.47869 0.36241 0.29379 0.0
C844 C 0.47452 0.38093 0.27829 0.0
C845 C 0.46246 0.35675 0.3132 0.0
C846 C 0.42362 0.34291 0.34929 0.0
H847 H 0.38004 0.38202 0.47471 0.0
H848 H 0.39694 0.38757 0.43111 0.0
H849 H 0.411 0.32241 0.37979 0.0
H850 H 0.44972 0.40727 0.26969 0.0
H851 H 0.42077 0.39677 0.3027 0.0
H852 H 0.41402 0.40048 0.34802 0.0
C853 C 0.38849 0.37182 0.43423 0.0
C854 C 0.41093 0.33944 0.37271 0.0
C855 C 0.37893 0.36857 0.45941 0.0
C856 C 0.45335 0.39299 0.28157 0.0
C857 C 0.43689 0.38706 0.30065 0.0
C858 C 0.41301 0.3832 0.35417 0.0
C859 C 0.3879 0.3547 0.41377 0.0
C860 C 0.39934 0.35787 0.38736 0.0
C861 C 0.44147 0.36927 0.31728 0.0
C862 C 0.42541 0.36496 0.3401 0.0
H863 H 0.36019 0.31488 0.44827 0.0
H864 H 0.3761 0.32085 0.40394 0.0
H865 H 0.39083 0.3942 0.3876 0.0
H866 H 0.49503 0.35304 0.29187 0.0
H867 H 0.46692 0.34324 0.3258 0.0
C868 C 0.19296 0.86667 -0.0002 0.0
C869 C 0.2066 0.8617 0.02063 0.0
C870 C 0.20162 0.87854 0.97879 0.0
C871 C 0.23951 0.92322 0.96586 0.0
H872 H 0.22416 0.91036 0.89357 0.0
C873 C 0.23844 0.9943 0.89272 0.0
C874 C 0.21769 0.99579 0.88041 0.0
C875 C 0.24473 0.97449 0.90509 0.0
C876 C 0.22871 0.91418 0.91362 0.0
H877 H 0.24024 0.86451 0.03553 0.0
H878 H 0.2553 0.88618 0.99888 0.0
H879 H 0.22104 0.88066 0.92507 0.0
H880 H 0.1882 0.97726 0.86946 0.0
H881 H 0.19883 0.94304 0.89114 0.0
H882 H 0.24543 0.95724 0.9551 0.0
C883 C 0.23799 0.8805 0.99877 0.0
C884 C 0.22702 0.89714 0.93158 0.0
C885 C 0.22942 0.8681 0.01962 0.0
C886 C 0.20415 0.97665 0.8791 0.0
C887 C 0.21043 0.95692 0.89129 0.0
C888 C 0.24099 0.94036 0.94795 0.0
C889 C 0.22402 0.88608 0.97836 0.0
C890 C 0.23144 0.90182 0.95813 0.0
C891 C 0.23045 0.95579 0.90511 0.0
C892 C 0.23456 0.93633 0.92194 0.0
H893 H 0.17535 0.86179 6e-05 0.0
H894 H 0.19038 0.88285 0.96352 0.0
H895 H 0.24289 0.92732 0.98626 0.0
H896 H 0.24919 0.00885 0.89398 0.0
H897 H 0.26035 0.97408 0.91537 0.0
C898 C 0.57855 0.67858 0.51057 0.0
C899 C 0.5897 0.68744 0.53237 0.0
C900 C 0.55615 0.68597 0.50656 0.0
C901 C 0.50415 0.70564 0.54292 0.0
H902 H 0.48427 0.72767 0.4773 0.0
C903 C 0.40954 0.72886 0.5326 0.0
C904 C 0.40063 0.7225 0.50843 0.0
C905 C 0.43313 0.72871 0.5349 0.0
C906 C 0.48944 0.72131 0.49567 0.0
H907 H 0.58626 0.71123 0.56681 0.0
H908 H 0.54699 0.72357 0.56011 0.0
H909 H 0.52473 0.71843 0.48179 0.0
H910 H 0.40907 0.71152 0.46758 0.0
H911 H 0.45013 0.7102 0.47168 0.0
H912 H 0.46911 0.7071 0.55654 0.0
C913 C 0.55569 0.71113 0.54605 0.0
C914 C 0.51263 0.71614 0.49822 0.0
C915 C 0.57817 0.70409 0.54979 0.0
C916 C 0.41562 0.71677 0.48636 0.0
C917 C 0.43918 0.71611 0.48876 0.0
C918 C 0.48097 0.71033 0.54023 0.0
C919 C 0.54444 0.702 0.52454 0.0
C920 C 0.52012 0.70821 0.52185 0.0
C921 C 0.44828 0.72157 0.51322 0.0
C922 C 0.47322 0.71814 0.51653 0.0
H923 H 0.58706 0.66581 0.49677 0.0
H924 H 0.54772 0.67862 0.48991 0.0
H925 H 0.50953 0.69929 0.56124 0.0
H926 H 0.39824 0.73346 0.54984 0.0
H927 H 0.43943 0.73366 0.55387 0.0
C928 C 0.33093 0.38582 0.63849 0.0
C929 C 0.34688 0.37171 0.62288 0.0
C930 C 0.33631 0.39471 0.66335 0.0
C931 C 0.38698 0.40725 0.70074 0.0
H932 H 0.34189 0.4221 0.75856 0.0
C933 C 0.41293 0.45154 0.79634 0.0
C934 C 0.40039 0.47208 0.80341 0.0
C935 C 0.40469 0.43544 0.77843 0.0
C936 C 0.35464 0.41796 0.74258 0.0
H937 H 0.38031 0.35455 0.62166 0.0
H938 H 0.38937 0.36925 0.6653 0.0
H939 H 0.33091 0.40071 0.71891 0.0
H940 H 0.36857 0.49103 0.79875 0.0
H941 H 0.3541 0.46276 0.76763 0.0
H942 H 0.41063 0.42457 0.72423 0.0
C943 C 0.37305 0.37427 0.65807 0.0
C944 C 0.34836 0.40583 0.71981 0.0
C945 C 0.36784 0.36573 0.63309 0.0
C946 C 0.37859 0.47532 0.79384 0.0
C947 C 0.3703 0.45914 0.77599 0.0
C948 C 0.39327 0.41908 0.72353 0.0
C949 C 0.35762 0.38936 0.67327 0.0
C950 C 0.3644 0.40061 0.69844 0.0
C951 C 0.38369 0.43948 0.76733 0.0
C952 C 0.37714 0.42482 0.74455 0.0
H953 H 0.31463 0.39072 0.63109 0.0
H954 H 0.32409 0.40646 0.67431 0.0
H955 H 0.39971 0.40409 0.68455 0.0
H956 H 0.42958 0.44833 0.80382 0.0
H957 H 0.41518 0.42023 0.77243 0.0
C958 C 0.09995 0.81396 0.14569 0.0
C959 C 0.10262 0.82128 0.1199 0.0
C960 C 0.07861 0.8161 0.15958 0.0
C961 C 0.01707 0.82227 0.15021 0.0
H962 H 0.01239 0.85358 0.21966 0.0
C963 C 0.94542 0.87923 0.21724 0.0
C964 C 0.92654 0.86537 0.21575 0.0
C965 C 0.96731 0.87046 0.20918 0.0
C966 C 0.01347 0.84468 0.20036 0.0
H967 H 0.08492 0.83614 0.08831 0.0
H968 H 0.04783 0.8396 0.11238 0.0
H969 H 0.05005 0.84412 0.19771 0.0
H970 H 0.91581 0.83129 0.20546 0.0
H971 H 0.95418 0.81594 0.19114 0.0
H972 H 0.98057 0.82345 0.1524 0.0
C973 C 0.06217 0.83221 0.12187 0.0
C974 C 0.03499 0.83912 0.1879 0.0
C975 C 0.08348 0.83038 0.10816 0.0
C976 C 0.93008 0.84233 0.2069 0.0
C977 C 0.95198 0.8336 0.19856 0.0
C978 C 0.99559 0.82761 0.16275 0.0
C979 C 0.05952 0.82523 0.14775 0.0
C980 C 0.03697 0.82839 0.16243 0.0
C981 C 0.97076 0.84768 0.19924 0.0
C982 C 0.99355 0.83936 0.18768 0.0
H983 H 0.11441 0.80695 0.15528 0.0
H984 H 0.07699 0.81057 0.17952 0.0
H985 H 0.01813 0.81382 0.13066 0.0
H986 H 0.9432 0.897 0.22424 0.0
H987 H 0.98141 0.88179 0.20971 0.0
C988 C 0.67645 0.57852 0.57046 0.0
C989 C 0.68938 0.59279 0.55476 0.0
C990 C 0.68454 0.55641 0.57451 0.0
C991 C 0.72431 0.51079 0.54425 0.0
H992 H 0.70817 0.48202 0.60901 0.0
C993 C 0.71888 0.41357 0.54944 0.0
C994 C 0.72249 0.40347 0.57332 0.0
C995 C 0.72015 0.43714 0.54768 0.0
C996 C 0.71327 0.48979 0.59092 0.0
H997 H 0.72149 0.59532 0.532 0.0
H998 H 0.73582 0.55684 0.53953 0.0
H999 H 0.70066 0.52275 0.60656 0.0
H1000 H 0.73181 0.41022 0.61361 0.0
H1001 H 0.735 0.4511 0.61017 0.0
H1002 H 0.73711 0.47782 0.5287 0.0
C1003 C 0.71917 0.56259 0.54821 0.0
C1004 C 0.70861 0.51316 0.5894 0.0
C1005 C 0.711 0.5847 0.54402 0.0
C1006 C 0.72901 0.41733 0.59484 0.0
C1007 C 0.7305 0.44088 0.593 0.0
C1008 C 0.72915 0.48742 0.54585 0.0
C1009 C 0.70588 0.54804 0.56317 0.0
C1010 C 0.71349 0.52385 0.56583 0.0
C1011 C 0.72531 0.45119 0.56968 0.0
C1012 C 0.72316 0.4765 0.56899 0.0
H1013 H 0.65972 0.58416 0.57903 0.0
H1014 H 0.67365 0.54562 0.5858 0.0
H1015 H 0.72821 0.51838 0.52572 0.0
H1016 H 0.71425 0.40337 0.53232 0.0
H1017 H 0.71592 0.4444 0.52942 0.0
C1018 C 0.87422 0.22989 0.06161 0.0
C1019 C 0.86883 0.20676 0.06104 0.0
C1020 C 0.88676 0.2393 0.08176 0.0
C1021 C 0.90919 0.22779 0.14712 0.0
H1022 H 0.95942 0.26342 0.12243 0.0
C1023 C 0.00676 0.23893 0.17235 0.0
C1024 C 0.00465 0.24012 0.20001 0.0
C1025 C 0.98762 0.242 0.15781 0.0
C1026 C 0.94542 0.25361 0.12971 0.0
H1027 H 0.87146 0.17567 0.08191 0.0
H1028 H 0.89376 0.19183 0.11653 0.0
H1029 H 0.92964 0.2539 0.09298 0.0
H1030 H 0.98122 0.24708 0.23425 0.0
H1031 H 0.94757 0.25277 0.20874 0.0
H1032 H 0.92591 0.22606 0.18319 0.0
C1033 C 0.88802 0.20289 0.10172 0.0
C1034 C 0.92816 0.24835 0.1129 0.0
C1035 C 0.87536 0.19353 0.08169 0.0
C1036 C 0.98329 0.2461 0.21291 0.0
C1037 C 0.96403 0.24914 0.19832 0.0
C1038 C 0.92654 0.23292 0.16388 0.0
C1039 C 0.89428 0.22577 0.10173 0.0
C1040 C 0.91026 0.23468 0.12109 0.0
C1041 C 0.96589 0.24636 0.1706 0.0
C1042 C 0.94529 0.24518 0.15502 0.0
H1043 H 0.86918 0.24065 0.04618 0.0
H1044 H 0.89093 0.25708 0.0814 0.0
H1045 H 0.8954 0.21763 0.15425 0.0
H1046 H 0.0231 0.23454 0.16193 0.0
H1047 H 0.98973 0.2395 0.13654 0.0
C1048 C 0.19046 0.78105 0.17014 0.0
C1049 C 0.19368 0.80312 0.16166 0.0
C1050 C 0.19547 0.77568 0.19557 0.0
C1051 C 0.20354 0.80026 0.26226 0.0
H1052 H 0.23928 0.74413 0.26857 0.0
C1053 C 0.24383 0.77667 0.35898 0.0
C1054 C 0.24474 0.75352 0.36471 0.0
C1055 C 0.23605 0.78333 0.33501 0.0
C1056 C 0.22898 0.75968 0.26727 0.0
H1057 H 0.20402 0.83706 0.1736 0.0
H1058 H 0.21278 0.82759 0.21816 0.0
H1059 H 0.22853 0.75469 0.22536 0.0
H1060 H 0.23763 0.7193 0.34983 0.0
H1061 H 0.22327 0.73098 0.30871 0.0
H1062 H 0.20388 0.80516 0.30428 0.0
C1063 C 0.20636 0.8145 0.20502 0.0
C1064 C 0.22289 0.76576 0.24246 0.0
C1065 C 0.20148 0.81986 0.17946 0.0
C1066 C 0.23695 0.73731 0.34629 0.0
C1067 C 0.22904 0.74397 0.32246 0.0
C1068 C 0.20952 0.7941 0.28718 0.0
C1069 C 0.20367 0.79227 0.21319 0.0
C1070 C 0.21007 0.78607 0.23968 0.0
C1071 C 0.22891 0.767 0.31629 0.0
C1072 C 0.22227 0.77368 0.28997 0.0
H1073 H 0.18435 0.76777 0.15703 0.0
H1074 H 0.19294 0.75849 0.20146 0.0
H1075 H 0.19349 0.81594 0.26069 0.0
H1076 H 0.24939 0.78965 0.37287 0.0
H1077 H 0.2363 0.8012 0.33085 0.0
C1078 C 0.73881 0.67528 0.58866 0.0
C1079 C 0.7169 0.68592 0.5895 0.0
C1080 C 0.75401 0.68121 0.60791 0.0
C1081 C 0.76309 0.72794 0.65805 0.0
H1082 H 0.80379 0.6838 0.68744 0.0
C1083 C 0.80605 0.74946 0.75279 0.0
C1084 C 0.83002 0.74866 0.75016 0.0
C1085 C 0.79351 0.73876 0.73362 0.0
C1086 C 0.79255 0.69624 0.67923 0.0
H1087 H 0.6933 0.7101 0.61185 0.0
H1088 H 0.71925 0.71981 0.64555 0.0
H1089 H 0.77933 0.67136 0.65228 0.0
H1090 H 0.85963 0.73447 0.72634 0.0
H1091 H 0.83745 0.71526 0.69294 0.0
H1092 H 0.77571 0.75261 0.68547 0.0
C1093 C 0.72521 0.70762 0.62961 0.0
C1094 C 0.77865 0.6892 0.65907 0.0
C1095 C 0.71025 0.70198 0.6103 0.0
C1096 C 0.84118 0.73535 0.72897 0.0
C1097 C 0.82855 0.72441 0.70984 0.0
C1098 C 0.77663 0.73483 0.67834 0.0
C1099 C 0.74743 0.69767 0.62845 0.0
C1100 C 0.76348 0.70496 0.64855 0.0
C1101 C 0.80464 0.72677 0.71158 0.0
C1102 C 0.79122 0.71903 0.68936 0.0
H1103 H 0.74434 0.66275 0.57289 0.0
H1104 H 0.77103 0.67327 0.60638 0.0
H1105 H 0.7522 0.74071 0.6499 0.0
H1106 H 0.79695 0.75908 0.76922 0.0
H1107 H 0.77504 0.74052 0.73552 0.0
C1108 C 0.78282 0.24423 0.04666 0.0
C1109 C 0.77605 0.22792 0.02767 0.0
C1110 C 0.76679 0.25955 0.06003 0.0
C1111 C 0.71072 0.28763 0.05501 0.0
H1112 H 0.71235 0.29829 0.13082 0.0
C1113 C 0.66213 0.36337 0.11474 0.0
C1114 C 0.65055 0.35832 0.13851 0.0
C1115 C 0.6765 0.34684 0.10063 0.0
C1116 C 0.7116 0.29539 0.10967 0.0
H1117 H 0.74711 0.21497 0.00778 0.0
H1118 H 0.71908 0.24202 0.03107 0.0
H1119 H 0.73914 0.27023 0.10739 0.0
H1120 H 0.64502 0.3321 0.1662 0.0
H1121 H 0.67016 0.30326 0.14159 0.0
H1122 H 0.68325 0.31295 0.05733 0.0
C1123 C 0.73684 0.24286 0.03551 0.0
C1124 C 0.72704 0.27948 0.09625 0.0
C1125 C 0.75287 0.22732 0.0223 0.0
C1126 C 0.65357 0.33641 0.14783 0.0
C1127 C 0.66809 0.31998 0.13387 0.0
C1128 C 0.69542 0.30374 0.06841 0.0
C1129 C 0.74366 0.25906 0.05457 0.0
C1130 C 0.7268 0.27548 0.06879 0.0
C1131 C 0.67976 0.32504 0.11018 0.0
C1132 C 0.69573 0.30779 0.09588 0.0
H1133 H 0.80053 0.24511 0.05134 0.0
H1134 H 0.77255 0.27199 0.07444 0.0
H1135 H 0.71028 0.28498 0.0338 0.0
H1136 H 0.65999 0.38008 0.10702 0.0
H1137 H 0.68542 0.35125 0.08251 0.0
C1138 C 0.30828 0.28833 0.61948 0.0
C1139 C 0.31525 0.28286 0.59289 0.0
C1140 C 0.30523 0.27117 0.63702 0.0
C1141 C 0.29363 0.21033 0.63957 0.0
H1142 H 0.30966 0.22035 0.71209 0.0
C1143 C 0.27366 0.14572 0.71849 0.0
C1144 C 0.26223 0.15567 0.74162 0.0
C1145 C 0.28413 0.15944 0.70015 0.0
C1146 C 0.30511 0.21731 0.6919 0.0
H1147 H 0.32476 0.25499 0.56397 0.0
H1148 H 0.31947 0.22495 0.59477 0.0
H1149 H 0.32048 0.24771 0.67982 0.0
H1150 H 0.25372 0.1875 0.76438 0.0
H1151 H 0.27196 0.21142 0.73247 0.0
H1152 H 0.27785 0.18013 0.65186 0.0
C1153 C 0.31617 0.24256 0.6019 0.0
C1154 C 0.31124 0.23299 0.67343 0.0
C1155 C 0.31924 0.25978 0.58429 0.0
C1156 C 0.26226 0.17943 0.7466 0.0
C1157 C 0.27288 0.19308 0.72844 0.0
C1158 C 0.28757 0.19457 0.65805 0.0
C1159 C 0.30912 0.24809 0.62848 0.0
C1160 C 0.30505 0.23 0.64722 0.0
C1161 C 0.28358 0.18329 0.70481 0.0
C1162 C 0.29275 0.19822 0.68454 0.0
H1163 H 0.30506 0.3059 0.62683 0.0
H1164 H 0.29938 0.27602 0.65723 0.0
H1165 H 0.28844 0.20761 0.6196 0.0
H1166 H 0.27377 0.12744 0.71414 0.0
H1167 H 0.29238 0.15144 0.68217 0.0
C1168 C 0.66379 0.73353 0.4846 0.0
C1169 C 0.68151 0.72022 0.4943 0.0
C1170 C 0.66872 0.75017 0.46674 0.0
C1171 C 0.71349 0.7873 0.44479 0.0
H1172 H 0.68728 0.78377 0.37653 0.0
C1173 C 0.73783 0.84864 0.36435 0.0
C1174 C 0.74648 0.83698 0.34079 0.0
C1175 C 0.72569 0.83705 0.38352 0.0
C1176 C 0.69451 0.78509 0.39563 0.0
H1177 H 0.71823 0.71417 0.49329 0.0
H1178 H 0.72678 0.74352 0.46264 0.0
H1179 H 0.67443 0.75839 0.4105 0.0
H1180 H 0.74818 0.8046 0.31797 0.0
H1181 H 0.72663 0.78443 0.35125 0.0
H1182 H 0.73396 0.81356 0.42983 0.0
C1183 C 0.70912 0.74098 0.46872 0.0
C1184 C 0.68711 0.77069 0.41504 0.0
C1185 C 0.70421 0.72409 0.48612 0.0
C1186 C 0.74174 0.81391 0.33607 0.0
C1187 C 0.7293 0.80244 0.355 0.0
C1188 C 0.72061 0.80193 0.42557 0.0
C1189 C 0.69145 0.75408 0.45877 0.0
C1190 C 0.69698 0.77128 0.43953 0.0
C1191 C 0.72168 0.81374 0.37918 0.0
C1192 C 0.7116 0.80058 0.40059 0.0
H1193 H 0.64613 0.73082 0.49049 0.0
H1194 H 0.65482 0.76008 0.45928 0.0
H1195 H 0.72126 0.78812 0.4636 0.0
H1196 H 0.74138 0.86642 0.36846 0.0
H1197 H 0.71992 0.84615 0.40198 0.0
C1198 C 0.7972 0.17953 0.90335 0.0
C1199 C 0.80549 0.19635 0.92068 0.0
C1200 C 0.79293 0.18434 0.87746 0.0
C1201 C 0.80653 0.22504 0.82638 0.0
H1202 H 0.75081 0.20485 0.797 0.0
C1203 C 0.76862 0.26468 0.73706 0.0
C1204 C 0.7588 0.25028 0.71821 0.0
C1205 C 0.77621 0.25616 0.76018 0.0
C1206 C 0.76662 0.21031 0.80476 0.0
H1207 H 0.81586 0.2314 0.92429 0.0
H1208 H 0.80807 0.23985 0.8794 0.0
H1209 H 0.76028 0.19364 0.8406 0.0
H1210 H 0.74992 0.21538 0.70865 0.0
H1211 H 0.763 0.20054 0.74931 0.0
H1212 H 0.81259 0.24214 0.79078 0.0
C1213 C 0.8052 0.22283 0.88565 0.0
C1214 C 0.77205 0.20389 0.82974 0.0
C1215 C 0.8095 0.21803 0.91149 0.0
C1216 C 0.7571 0.22702 0.72291 0.0
C1217 C 0.76461 0.2185 0.74616 0.0
C1218 C 0.80107 0.23151 0.80146 0.0
C1219 C 0.79686 0.20606 0.86832 0.0
C1220 C 0.79189 0.21148 0.84102 0.0
C1221 C 0.77409 0.23303 0.76513 0.0
C1222 C 0.78089 0.2245 0.79054 0.0
H1223 H 0.79408 0.16259 0.90973 0.0
H1224 H 0.78674 0.17097 0.86452 0.0
H1225 H 0.82219 0.23079 0.83426 0.0
H1226 H 0.76978 0.28277 0.73439 0.0
H1227 H 0.78308 0.26788 0.7746 0.0
C1228 C 0.28144 0.30814 0.47354 0.0
C1229 C 0.27711 0.31652 0.49987 0.0
C1230 C 0.26351 0.30223 0.45805 0.0
C1231 C 0.20436 0.28429 0.46335 0.0
H1232 H 0.20771 0.29334 0.38837 0.0
C1233 C 0.15329 0.26237 0.36258 0.0
C1234 C 0.14947 0.23924 0.3661 0.0
C1235 C 0.16538 0.27513 0.38069 0.0
C1236 C 0.20623 0.29099 0.40935 0.0
H1237 H 0.25042 0.32592 0.53029 0.0
H1238 H 0.21905 0.31573 0.50308 0.0
H1239 H 0.23556 0.31045 0.41613 0.0
H1240 H 0.15412 0.21177 0.39223 0.0
H1241 H 0.17568 0.23376 0.42338 0.0
H1242 H 0.17505 0.26477 0.45652 0.0
C1243 C 0.23639 0.31345 0.49459 0.0
C1244 C 0.2224 0.30056 0.42521 0.0
C1245 C 0.25436 0.31937 0.51015 0.0
C1246 C 0.15709 0.22945 0.38874 0.0
C1247 C 0.1692 0.24217 0.4068 0.0
C1248 C 0.18814 0.27476 0.44749 0.0
C1249 C 0.24079 0.30463 0.46843 0.0
C1250 C 0.222 0.29685 0.45227 0.0
C1251 C 0.17392 0.26502 0.4027 0.0
C1252 C 0.18921 0.27754 0.42019 0.0
H1253 H 0.29874 0.30576 0.46493 0.0
H1254 H 0.26755 0.29516 0.43812 0.0
H1255 H 0.20361 0.28101 0.4841 0.0
H1256 H 0.14775 0.2704 0.34527 0.0
H1257 H 0.16846 0.29278 0.37714 0.0
C1258 C 0.22117 0.74694 0.05469 0.0
C1259 C 0.22616 0.77002 0.05845 0.0
C1260 C 0.2377 0.73105 0.04332 0.0
C1261 C 0.30028 0.72339 0.02505 0.0
H1262 H 0.28049 0.67256 0.98125 0.0
C1263 C 0.3584 0.66441 0.95095 0.0
C1264 C 0.35689 0.64083 0.95408 0.0
C1265 C 0.34348 0.68018 0.96547 0.0
C1266 C 0.28619 0.68661 0.99358 0.0
H1267 H 0.25217 0.79473 0.053 0.0
H1268 H 0.2807 0.7673 0.03188 0.0
H1269 H 0.25225 0.70034 0.00213 0.0
H1270 H 0.33894 0.61563 0.97601 0.0
H1271 H 0.31223 0.6432 0.00027 0.0
H1272 H 0.33441 0.70995 0.01511 0.0
C1273 C 0.26435 0.76116 0.03858 0.0
C1274 C 0.27003 0.70249 0.00574 0.0
C1275 C 0.24795 0.77697 0.05053 0.0
C1276 C 0.34032 0.63354 0.97252 0.0
C1277 C 0.32511 0.64929 0.9866 0.0
C1278 C 0.31647 0.70774 0.01238 0.0
C1279 C 0.25947 0.73795 0.03481 0.0
C1280 C 0.27681 0.72107 0.02178 0.0
C1281 C 0.32648 0.6727 0.98303 0.0
C1282 C 0.30951 0.68919 0.99668 0.0
H1283 H 0.20457 0.74107 0.06091 0.0
H1284 H 0.23339 0.71331 0.04142 0.0
H1285 H 0.30622 0.73716 0.03759 0.0
H1286 H 0.37059 0.67075 0.93667 0.0
H1287 H 0.34468 0.69819 0.96229 0.0
loop_
_geom_bond_atom_site_label_1
_geom_bond_atom_site_label_2
_geom_bond_distance
_geom_bond_site_symmetry_2
_ccdc_geom_bond_type
Fe0 O2 1.918 . S
Fe0 O5 1.997 . S
Fe0 O6 2.002 . S
Fe0 O11 1.976 . S
Fe0 O14 1.996 . S
Fe1 O2 1.918 . S
Fe1 O9 1.997 . S
Fe1 O12 1.996 . S
Fe1 O16 1.976 . S
Fe1 O19 2.002 . S
O2 Fe0 1.918 . S
O2 Fe1 1.918 . S
O2 Fe3 1.918 . S
Fe3 O2 1.918 . S
Fe3 O4 2.002 . S
Fe3 O13 1.976 . S
Fe3 O17 1.996 . S
Fe3 O20 1.997 . S
O4 Fe3 2.002 . S
O4 C21 1.295 . S
O5 Fe0 1.997 . S
O5 C21 1.235 . S
O6 Fe0 2.002 . S
O6 C7 1.295 . S
C7 O6 1.295 . S
C7 O9 1.235 . S
C8 O13 1.287 . S
C8 O14 1.255 . S
O9 Fe1 1.997 . S
O9 C7 1.235 . S
C10 O16 1.287 . S
C10 O17 1.255 . S
O11 Fe0 1.976 . S
O11 C18 1.287 . S
O12 Fe1 1.996 . S
O12 C18 1.255 . S
O13 Fe3 1.976 . S
O13 C8 1.287 . S
O14 Fe0 1.996 . S
O14 C8 1.255 . S
C15 O19 1.295 . S
C15 O20 1.235 . S
O16 Fe1 1.976 . S
O16 C10 1.287 . S
O17 Fe3 1.996 . S
O17 C10 1.255 . S
C18 O11 1.287 . S
C18 O12 1.255 . S
O19 Fe1 2.002 . S
O19 C15 1.295 . S
O20 Fe3 1.997 . S
O20 C15 1.235 . S
C21 O4 1.295 . S
C21 O5 1.235 . S
Fe22 O24 1.918 . S
Fe22 O27 1.997 . S
Fe22 O28 2.002 . S
Fe22 O33 1.976 . S
Fe22 O36 1.996 . S
Fe23 O24 1.918 . S
Fe23 O31 1.997 . S
Fe23 O34 1.996 . S
Fe23 O38 1.976 . S
Fe23 O41 2.002 . S
O24 Fe22 1.918 . S
O24 Fe23 1.918 . S
O24 Fe25 1.918 . S
Fe25 O24 1.918 . S
Fe25 O26 2.002 . S
Fe25 O35 1.976 . S
Fe25 O39 1.996 . S
Fe25 O42 1.997 . S
O26 Fe25 2.002 . S
O26 C43 1.295 . S
O27 Fe22 1.997 . S
O27 C43 1.235 . S
O28 Fe22 2.002 . S
O28 C29 1.295 . S
C29 O28 1.295 . S
C29 O31 1.235 . S
C30 O35 1.287 . S
C30 O36 1.255 . S
O31 Fe23 1.997 . S
O31 C29 1.235 . S
C32 O38 1.287 . S
C32 O39 1.255 . S
O33 Fe22 1.976 . S
O33 C40 1.287 . S
O34 Fe23 1.996 . S
O34 C40 1.255 . S
O35 Fe25 1.976 . S
O35 C30 1.287 . S
O36 Fe22 1.996 . S
O36 C30 1.255 . S
C37 O41 1.295 . S
C37 O42 1.235 . S
O38 Fe23 1.976 . S
O38 C32 1.287 . S
O39 Fe25 1.996 . S
O39 C32 1.255 . S
C40 O33 1.287 . S
C40 O34 1.255 . S
O41 Fe23 2.002 . S
O41 C37 1.295 . S
O42 Fe25 1.997 . S
O42 C37 1.235 . S
C43 O26 1.295 . S
C43 O27 1.235 . S
Fe44 O46 1.918 . S
Fe44 O49 1.997 1_554 S
Fe44 O50 2.002 1_554 S
Fe44 O55 1.976 . S
Fe44 O58 1.996 . S
Fe45 O46 1.918 . S
Fe45 O53 1.997 1_554 S
Fe45 O56 1.996 . S
Fe45 O60 1.976 . S
Fe45 O63 2.002 1_554 S
O46 Fe44 1.918 . S
O46 Fe45 1.918 . S
O46 Fe47 1.918 . S
Fe47 O46 1.918 . S
Fe47 O48 2.002 1_554 S
Fe47 O57 1.976 . S
Fe47 O61 1.996 . S
Fe47 O64 1.997 1_554 S
O48 Fe47 2.002 1_556 S
O48 C65 1.295 . S
O49 Fe44 1.997 1_556 S
O49 C65 1.235 . S
O50 Fe44 2.002 1_556 S
O50 C51 1.295 . S
C51 O50 1.295 . S
C51 O53 1.235 . S
C52 O57 1.287 . S
C52 O58 1.255 . S
O53 Fe45 1.997 1_556 S
O53 C51 1.235 . S
C54 O60 1.287 . S
C54 O61 1.255 . S
O55 Fe44 1.976 . S
O55 C62 1.287 . S
O56 Fe45 1.996 . S
O56 C62 1.255 . S
O57 Fe47 1.976 . S
O57 C52 1.287 . S
O58 Fe44 1.996 . S
O58 C52 1.255 . S
C59 O63 1.295 . S
C59 O64 1.235 . S
O60 Fe45 1.976 . S
O60 C54 1.287 . S
O61 Fe47 1.996 . S
O61 C54 1.255 . S
C62 O55 1.287 . S
C62 O56 1.255 . S
O63 Fe45 2.002 1_556 S
O63 C59 1.295 . S
O64 Fe47 1.997 1_556 S
O64 C59 1.235 . S
C65 O48 1.295 . S
C65 O49 1.235 . S
Fe66 O68 1.918 . S
Fe66 O71 1.997 . S
Fe66 O72 2.002 . S
Fe66 O77 1.976 . S
Fe66 O80 1.996 . S
Fe67 O68 1.918 . S
Fe67 O75 1.997 . S
Fe67 O78 1.996 . S
Fe67 O82 1.976 . S
Fe67 O85 2.002 . S
O68 Fe66 1.918 . S
O68 Fe67 1.918 . S
O68 Fe69 1.918 . S
Fe69 O68 1.918 . S
Fe69 O70 2.002 . S
Fe69 O79 1.976 . S
Fe69 O83 1.996 . S
Fe69 O86 1.997 . S
O70 Fe69 2.002 . S
O70 C87 1.295 . S
O71 Fe66 1.997 . S
O71 C87 1.235 . S
O72 Fe66 2.002 . S
O72 C73 1.295 . S
C73 O72 1.295 . S
C73 O75 1.235 . S
C74 O79 1.287 . S
C74 O80 1.255 . S
O75 Fe67 1.997 . S
O75 C73 1.235 . S
C76 O82 1.287 . S
C76 O83 1.255 . S
O77 Fe66 1.976 . S
O77 C84 1.287 . S
O78 Fe67 1.996 . S
O78 C84 1.255 . S
O79 Fe69 1.976 . S
O79 C74 1.287 . S
O80 Fe66 1.996 . S
O80 C74 1.255 . S
C81 O85 1.295 . S
C81 O86 1.235 . S
O82 Fe67 1.976 . S
O82 C76 1.287 . S
O83 Fe69 1.996 . S
O83 C76 1.255 . S
C84 O77 1.287 . S
C84 O78 1.255 . S
O85 Fe67 2.002 . S
O85 C81 1.295 . S
O86 Fe69 1.997 . S
O86 C81 1.235 . S
C87 O70 1.295 . S
C87 O71 1.235 . S
C88 C89 1.391 . S
C88 C92 1.391 . S
C88 H130 0.948 . S
C89 C88 1.391 . S
C89 C90 1.391 . S
C90 C89 1.391 . S
C90 H146 0.947 . S
C90 C147 1.392 . S
C91 C92 1.391 . S
C91 C95 1.397 . S
C91 C147 1.419 . S
C92 C88 1.391 . S
C92 C91 1.391 . S
C92 C93 1.399 . S
C93 C92 1.399 . S
C93 C96 1.396 . S
C93 C105 1.453 . S
C93 C106 1.684 . S
H94 C118 0.948 . S
C95 C91 1.397 . S
C95 C96 1.394 . S
C95 C114 1.723 . S
C96 C93 1.396 . S
C96 C95 1.394 . S
C96 C126 1.723 . S
H97 C120 0.947 . S
H98 C121 0.948 . S
H99 C127 0.982 . S
H100 C128 0.979 . S
H101 C128 0.980 . S
H102 C128 0.983 . S
H103 C127 0.979 . S
H104 C127 0.977 . S
C105 C93 1.453 . S
C105 H134 0.982 . S
C105 H135 0.979 . S
C105 H136 0.977 . S
C106 C93 1.684 . S
C106 H131 0.979 . S
C106 H132 0.980 . S
C106 H133 0.983 . S
C107 C108 1.391 . S
C107 C112 1.391 . S
C107 H137 0.948 . S
C108 C107 1.391 . S
C108 C109 1.391 . S
C109 C108 1.391 . S
C109 C110 1.392 . S
C109 H138 0.947 . S
C110 C109 1.392 . S
C110 C111 1.419 . S
C110 H139 0.948 . S
C111 C110 1.419 . S
C111 C112 1.391 . S
C111 C115 1.397 . S
C112 C107 1.391 . S
C112 C111 1.391 . S
C112 C113 1.399 . S
C113 C112 1.399 . S
C113 C114 1.396 . S
C113 C116 1.453 . S
C113 C117 1.684 . S
C114 C95 1.723 . S
C114 C113 1.396 . S
C114 C115 1.394 . S
C115 C111 1.397 . S
C115 C114 1.394 . S
C115 C125 1.723 . S
C116 C113 1.453 . S
C116 H140 0.982 . S
C116 H141 0.979 . S
C116 H142 0.977 . S
C117 C113 1.684 . S
C117 H143 0.979 . S
C117 H144 0.980 . S
C117 H145 0.983 . S
C118 H94 0.948 . S
C118 C119 1.391 . S
C118 C123 1.391 . S
C119 C118 1.391 . S
C119 C120 1.391 . S
C120 H97 0.947 . S
C120 C119 1.391 . S
C120 C121 1.392 . S
C121 H98 0.948 . S
C121 C120 1.392 . S
C121 C122 1.419 . S
C122 C121 1.419 . S
C122 C123 1.391 . S
C122 C126 1.397 . S
C123 C118 1.391 . S
C123 C122 1.391 . S
C123 C124 1.399 . S
C124 C123 1.399 . S
C124 C125 1.396 . S
C124 C127 1.453 . S
C124 C128 1.684 . S
C125 C115 1.723 . S
C125 C124 1.396 . S
C125 C126 1.394 . S
C126 C96 1.723 . S
C126 C122 1.397 . S
C126 C125 1.394 . S
C127 H99 0.982 . S
C127 H103 0.979 . S
C127 H104 0.977 . S
C127 C124 1.453 . S
C128 H100 0.979 . S
C128 H101 0.980 . S
C128 H102 0.983 . S
C128 C124 1.684 . S
H129 C147 0.948 . S
H130 C88 0.948 . S
H131 C106 0.979 . S
H132 C106 0.980 . S
H133 C106 0.983 . S
H134 C105 0.982 . S
H135 C105 0.979 . S
H136 C105 0.977 . S
H137 C107 0.948 . S
H138 C109 0.947 . S
H139 C110 0.948 . S
H140 C116 0.982 . S
H141 C116 0.979 . S
H142 C116 0.977 . S
H143 C117 0.979 . S
H144 C117 0.980 . S
H145 C117 0.983 . S
H146 C90 0.947 . S
C147 C90 1.392 . S
C147 C91 1.419 . S
C147 H129 0.948 . S
C148 C149 1.391 . S
C148 C152 1.391 . S
C148 H190 0.948 . S
C149 C148 1.391 . S
C149 C150 1.391 . S
C150 C149 1.391 . S
C150 H206 0.947 . S
C150 C207 1.392 . S
C151 C152 1.391 . S
C151 C155 1.397 . S
C151 C207 1.419 . S
C152 C148 1.391 . S
C152 C151 1.391 . S
C152 C153 1.399 . S
C153 C152 1.399 . S
C153 C156 1.396 . S
C153 C165 1.453 . S
C153 C166 1.684 . S
H154 C178 0.948 . S
C155 C151 1.397 . S
C155 C156 1.394 . S
C155 C174 1.723 . S
C156 C153 1.396 . S
C156 C155 1.394 . S
C156 C186 1.723 . S
H157 C180 0.947 . S
H158 C181 0.948 . S
H159 C187 0.982 . S
H160 C188 0.979 . S
H161 C188 0.980 . S
H162 C188 0.983 . S
H163 C187 0.979 . S
H164 C187 0.977 . S
C165 C153 1.453 . S
C165 H194 0.982 . S
C165 H195 0.979 . S
C165 H196 0.977 . S
C166 C153 1.684 . S
C166 H191 0.979 . S
C166 H192 0.980 . S
C166 H193 0.983 . S
C167 C168 1.391 . S
C167 C172 1.391 . S
C167 H197 0.948 . S
C168 C167 1.391 . S
C168 C169 1.391 . S
C169 C168 1.391 . S
C169 C170 1.392 . S
C169 H198 0.947 . S
C170 C169 1.392 . S
C170 C171 1.419 . S
C170 H199 0.948 . S
C171 C170 1.419 . S
C171 C172 1.391 . S
C171 C175 1.397 . S
C172 C167 1.391 . S
C172 C171 1.391 . S
C172 C173 1.399 . S
C173 C172 1.399 . S
C173 C174 1.396 . S
C173 C176 1.453 . S
C173 C177 1.684 . S
C174 C155 1.723 . S
C174 C173 1.396 . S
C174 C175 1.394 . S
C175 C171 1.397 . S
C175 C174 1.394 . S
C175 C185 1.723 . S
C176 C173 1.453 . S
C176 H200 0.982 . S
C176 H201 0.979 . S
C176 H202 0.977 . S
C177 C173 1.684 . S
C177 H203 0.979 . S
C177 H204 0.980 . S
C177 H205 0.983 . S
C178 H154 0.948 . S
C178 C179 1.391 . S
C178 C183 1.391 . S
C179 C178 1.391 . S
C179 C180 1.391 . S
C180 H157 0.947 . S
C180 C179 1.391 . S
C180 C181 1.392 . S
C181 H158 0.948 . S
C181 C180 1.392 . S
C181 C182 1.419 . S
C182 C181 1.419 . S
C182 C183 1.391 . S
C182 C186 1.397 . S
C183 C178 1.391 . S
C183 C182 1.391 . S
C183 C184 1.399 . S
C184 C183 1.399 . S
C184 C185 1.396 . S
C184 C187 1.453 . S
C184 C188 1.684 . S
C185 C175 1.723 . S
C185 C184 1.396 . S
C185 C186 1.394 . S
C186 C156 1.723 . S
C186 C182 1.397 . S
C186 C185 1.394 . S
C187 H159 0.982 . S
C187 H163 0.979 . S
C187 H164 0.977 . S
C187 C184 1.453 . S
C188 H160 0.979 . S
C188 H161 0.980 . S
C188 H162 0.983 . S
C188 C184 1.684 . S
H189 C207 0.948 . S
H190 C148 0.948 . S
H191 C166 0.979 . S
H192 C166 0.980 . S
H193 C166 0.983 . S
H194 C165 0.982 . S
H195 C165 0.979 . S
H196 C165 0.977 . S
H197 C167 0.948 . S
H198 C169 0.947 . S
H199 C170 0.948 . S
H200 C176 0.982 . S
H201 C176 0.979 . S
H202 C176 0.977 . S
H203 C177 0.979 . S
H204 C177 0.980 . S
H205 C177 0.983 . S
H206 C150 0.947 . S
C207 C150 1.392 . S
C207 C151 1.419 . S
C207 H189 0.948 . S
C208 C209 1.391 . S
C208 C212 1.391 . S
C208 H250 0.948 . S
C209 C208 1.391 . S
C209 C210 1.391 . S
C210 C209 1.391 . S
C210 H266 0.947 . S
C210 C267 1.392 . S
C211 C212 1.391 . S
C211 C215 1.397 . S
C211 C267 1.419 . S
C212 C208 1.391 . S
C212 C211 1.391 . S
C212 C213 1.399 . S
C213 C212 1.399 . S
C213 C216 1.396 . S
C213 C225 1.453 . S
C213 C226 1.684 . S
H214 C238 0.948 . S
C215 C211 1.397 . S
C215 C216 1.394 . S
C215 C234 1.723 . S
C216 C213 1.396 . S
C216 C215 1.394 . S
C216 C246 1.723 . S
H217 C240 0.947 . S
H218 C241 0.948 . S
H219 C247 0.982 . S
H220 C248 0.979 . S
H221 C248 0.980 . S
H222 C248 0.983 . S
H223 C247 0.979 . S
H224 C247 0.977 . S
C225 C213 1.453 . S
C225 H254 0.982 . S
C225 H255 0.979 . S
C225 H256 0.977 . S
C226 C213 1.684 . S
C226 H251 0.979 . S
C226 H252 0.980 . S
C226 H253 0.983 . S
C227 C228 1.391 . S
C227 C232 1.391 . S
C227 H257 0.948 . S
C228 C227 1.391 . S
C228 C229 1.391 . S
C229 C228 1.391 . S
C229 C230 1.392 . S
C229 H258 0.947 . S
C230 C229 1.392 . S
C230 C231 1.419 . S
C230 H259 0.948 . S
C231 C230 1.419 . S
C231 C232 1.391 . S
C231 C235 1.397 . S
C232 C227 1.391 . S
C232 C231 1.391 . S
C232 C233 1.399 . S
C233 C232 1.399 . S
C233 C234 1.396 . S
C233 C236 1.453 . S
C233 C237 1.684 . S
C234 C215 1.723 . S
C234 C233 1.396 . S
C234 C235 1.394 . S
C235 C231 1.397 . S
C235 C234 1.394 . S
C235 C245 1.723 . S
C236 C233 1.453 . S
C236 H260 0.982 . S
C236 H261 0.979 . S
C236 H262 0.977 . S
C237 C233 1.684 . S
C237 H263 0.979 . S
C237 H264 0.980 . S
C237 H265 0.983 . S
C238 H214 0.948 . S
C238 C239 1.391 . S
C238 C243 1.391 . S
C239 C238 1.391 . S
C239 C240 1.391 . S
C240 H217 0.947 . S
C240 C239 1.391 . S
C240 C241 1.392 . S
C241 H218 0.948 . S
C241 C240 1.392 . S
C241 C242 1.419 . S
C242 C241 1.419 . S
C242 C243 1.391 . S
C242 C246 1.397 . S
C243 C238 1.391 . S
C243 C242 1.391 . S
C243 C244 1.399 . S
C244 C243 1.399 . S
C244 C245 1.396 . S
C244 C247 1.453 . S
C244 C248 1.684 . S
C245 C235 1.723 . S
C245 C244 1.396 . S
C245 C246 1.394 . S
C246 C216 1.723 . S
C246 C242 1.397 . S
C246 C245 1.394 . S
C247 H219 0.982 . S
C247 H223 0.979 . S
C247 H224 0.977 . S
C247 C244 1.453 . S
C248 H220 0.979 . S
C248 H221 0.980 . S
C248 H222 0.983 . S
C248 C244 1.684 . S
H249 C267 0.948 . S
H250 C208 0.948 . S
H251 C226 0.979 . S
H252 C226 0.980 . S
H253 C226 0.983 . S
H254 C225 0.982 . S
H255 C225 0.979 . S
H256 C225 0.977 . S
H257 C227 0.948 . S
H258 C229 0.947 . S
H259 C230 0.948 . S
H260 C236 0.982 . S
H261 C236 0.979 . S
H262 C236 0.977 . S
H263 C237 0.979 . S
H264 C237 0.980 . S
H265 C237 0.983 . S
H266 C210 0.947 . S
C267 C210 1.392 . S
C267 C211 1.419 . S
C267 H249 0.948 . S
C268 C269 1.391 . S
C268 C272 1.391 . S
C268 H310 0.948 . S
C269 C268 1.391 . S
C269 C270 1.391 . S
C270 C269 1.391 . S
C270 H326 0.947 . S
C270 C327 1.392 . S
C271 C272 1.391 . S
C271 C275 1.397 . S
C271 C327 1.419 . S
C272 C268 1.391 . S
C272 C271 1.391 . S
C272 C273 1.399 . S
C273 C272 1.399 . S
C273 C276 1.396 . S
C273 C285 1.453 . S
C273 C286 1.684 . S
H274 C298 0.948 . S
C275 C271 1.397 . S
C275 C276 1.394 . S
C275 C294 1.723 . S
C276 C273 1.396 . S
C276 C275 1.394 . S
C276 C306 1.723 . S
H277 C300 0.947 . S
H278 C301 0.948 . S
H279 C307 0.982 . S
H280 C308 0.979 . S
H281 C308 0.980 . S
H282 C308 0.983 . S
H283 C307 0.979 . S
H284 C307 0.977 . S
C285 C273 1.453 . S
C285 H314 0.982 . S
C285 H315 0.979 . S
C285 H316 0.977 . S
C286 C273 1.684 . S
C286 H311 0.979 . S
C286 H312 0.980 . S
C286 H313 0.983 . S
C287 C288 1.391 . S
C287 C292 1.391 . S
C287 H317 0.948 . S
C288 C287 1.391 . S
C288 C289 1.391 . S
C289 C288 1.391 . S
C289 C290 1.392 . S
C289 H318 0.947 . S
C290 C289 1.392 . S
C290 C291 1.419 . S
C290 H319 0.948 . S
C291 C290 1.419 . S
C291 C292 1.391 . S
C291 C295 1.397 . S
C292 C287 1.391 . S
C292 C291 1.391 . S
C292 C293 1.399 . S
C293 C292 1.399 . S
C293 C294 1.396 . S
C293 C296 1.453 . S
C293 C297 1.684 . S
C294 C275 1.723 . S
C294 C293 1.396 . S
C294 C295 1.394 . S
C295 C291 1.397 . S
C295 C294 1.394 . S
C295 C305 1.723 . S
C296 C293 1.453 . S
C296 H320 0.982 . S
C296 H321 0.979 . S
C296 H322 0.977 . S
C297 C293 1.684 . S
C297 H323 0.979 . S
C297 H324 0.980 . S
C297 H325 0.983 . S
C298 H274 0.948 . S
C298 C299 1.391 . S
C298 C303 1.391 . S
C299 C298 1.391 . S
C299 C300 1.391 . S
C300 H277 0.947 . S
C300 C299 1.391 . S
C300 C301 1.392 . S
C301 H278 0.948 . S
C301 C300 1.392 . S
C301 C302 1.419 . S
C302 C301 1.419 . S
C302 C303 1.391 . S
C302 C306 1.397 . S
C303 C298 1.391 . S
C303 C302 1.391 . S
C303 C304 1.399 . S
C304 C303 1.399 . S
C304 C305 1.396 . S
C304 C307 1.453 . S
C304 C308 1.684 . S
C305 C295 1.723 . S
C305 C304 1.396 . S
C305 C306 1.394 . S
C306 C276 1.723 . S
C306 C302 1.397 . S
C306 C305 1.394 . S
C307 H279 0.982 . S
C307 H283 0.979 . S
C307 H284 0.977 . S
C307 C304 1.453 . S
C308 H280 0.979 . S
C308 H281 0.980 . S
C308 H282 0.983 . S
C308 C304 1.684 . S
H309 C327 0.948 . S
H310 C268 0.948 . S
H311 C286 0.979 . S
H312 C286 0.980 . S
H313 C286 0.983 . S
H314 C285 0.982 . S
H315 C285 0.979 . S
H316 C285 0.977 . S
H317 C287 0.948 . S
H318 C289 0.947 . S
H319 C290 0.948 . S
H320 C296 0.982 . S
H321 C296 0.979 . S
H322 C296 0.977 . S
H323 C297 0.979 . S
H324 C297 0.980 . S
H325 C297 0.983 . S
H326 C270 0.947 . S
C327 C270 1.392 . S
C327 C271 1.419 . S
C327 H309 0.948 . S
C328 C329 1.391 . S
C328 C332 1.391 . S
C328 H370 0.948 . S
C329 C328 1.391 . S
C329 C330 1.391 . S
C330 C329 1.391 . S
C330 H386 0.947 . S
C330 C387 1.392 . S
C331 C332 1.391 . S
C331 C335 1.397 . S
C331 C387 1.419 . S
C332 C328 1.391 . S
C332 C331 1.391 . S
C332 C333 1.399 . S
C333 C332 1.399 . S
C333 C336 1.396 . S
C333 C345 1.453 . S
C333 C346 1.684 . S
H334 C358 0.948 . S
C335 C331 1.397 . S
C335 C336 1.394 . S
C335 C354 1.723 . S
C336 C333 1.396 . S
C336 C335 1.394 . S
C336 C366 1.723 . S
H337 C360 0.947 . S
H338 C361 0.948 . S
H339 C367 0.982 . S
H340 C368 0.979 . S
H341 C368 0.980 . S
H342 C368 0.983 . S
H343 C367 0.979 . S
H344 C367 0.977 . S
C345 C333 1.453 . S
C345 H374 0.982 . S
C345 H375 0.979 . S
C345 H376 0.977 . S
C346 C333 1.684 . S
C346 H371 0.979 . S
C346 H372 0.980 . S
C346 H373 0.983 . S
C347 C348 1.391 . S
C347 C352 1.391 . S
C347 H377 0.948 . S
C348 C347 1.391 . S
C348 C349 1.391 . S
C349 C348 1.391 . S
C349 C350 1.392 . S
C349 H378 0.947 . S
C350 C349 1.392 . S
C350 C351 1.419 . S
C350 H379 0.948 . S
C351 C350 1.419 . S
C351 C352 1.391 . S
C351 C355 1.397 . S
C352 C347 1.391 . S
C352 C351 1.391 . S
C352 C353 1.399 . S
C353 C352 1.399 . S
C353 C354 1.396 . S
C353 C356 1.453 . S
C353 C357 1.684 . S
C354 C335 1.723 . S
C354 C353 1.396 . S
C354 C355 1.394 . S
C355 C351 1.397 . S
C355 C354 1.394 . S
C355 C365 1.723 . S
C356 C353 1.453 . S
C356 H380 0.982 . S
C356 H381 0.979 . S
C356 H382 0.977 . S
C357 C353 1.684 . S
C357 H383 0.979 . S
C357 H384 0.980 . S
C357 H385 0.983 . S
C358 H334 0.948 . S
C358 C359 1.391 . S
C358 C363 1.391 . S
C359 C358 1.391 . S
C359 C360 1.391 . S
C360 H337 0.947 . S
C360 C359 1.391 . S
C360 C361 1.392 . S
C361 H338 0.948 . S
C361 C360 1.392 . S
C361 C362 1.419 . S
C362 C361 1.419 . S
C362 C363 1.391 . S
C362 C366 1.397 . S
C363 C358 1.391 . S
C363 C362 1.391 . S
C363 C364 1.399 . S
C364 C363 1.399 . S
C364 C365 1.396 . S
C364 C367 1.453 . S
C364 C368 1.684 . S
C365 C355 1.723 . S
C365 C364 1.396 . S
C365 C366 1.394 . S
C366 C336 1.723 . S
C366 C362 1.397 . S
C366 C365 1.394 . S
C367 H339 0.982 . S
C367 H343 0.979 . S
C367 H344 0.977 . S
C367 C364 1.453 . S
C368 H340 0.979 . S
C368 H341 0.980 . S
C368 H342 0.983 . S
C368 C364 1.684 . S
H369 C387 0.948 . S
H370 C328 0.948 . S
H371 C346 0.979 . S
H372 C346 0.980 . S
H373 C346 0.983 . S
H374 C345 0.982 . S
H375 C345 0.979 . S
H376 C345 0.977 . S
H377 C347 0.948 . S
H378 C349 0.947 . S
H379 C350 0.948 . S
H380 C356 0.982 . S
H381 C356 0.979 . S
H382 C356 0.977 . S
H383 C357 0.979 . S
H384 C357 0.980 . S
H385 C357 0.983 . S
H386 C330 0.947 . S
C387 C330 1.392 . S
C387 C331 1.419 . S
C387 H369 0.948 . S
C388 C389 1.391 . S
C388 C392 1.391 . S
C388 H430 0.948 . S
C389 C388 1.391 . S
C389 C390 1.391 . S
C390 C389 1.391 . S
C390 H446 0.947 . S
C390 C447 1.392 . S
C391 C392 1.391 . S
C391 C395 1.397 . S
C391 C447 1.419 . S
C392 C388 1.391 . S
C392 C391 1.391 . S
C392 C393 1.399 . S
C393 C392 1.399 . S
C393 C396 1.396 . S
C393 C405 1.453 . S
C393 C406 1.684 . S
H394 C418 0.948 . S
C395 C391 1.397 . S
C395 C396 1.394 . S
C395 C414 1.723 . S
C396 C393 1.396 . S
C396 C395 1.394 . S
C396 C426 1.723 . S
H397 C420 0.947 . S
H398 C421 0.948 . S
H399 C427 0.982 . S
H400 C428 0.979 . S
H401 C428 0.980 . S
H402 C428 0.983 . S
H403 C427 0.979 . S
H404 C427 0.977 . S
C405 C393 1.453 . S
C405 H434 0.982 . S
C405 H435 0.979 . S
C405 H436 0.977 . S
C406 C393 1.684 . S
C406 H431 0.979 . S
C406 H432 0.980 . S
C406 H433 0.983 . S
C407 C408 1.391 . S
C407 C412 1.391 . S
C407 H437 0.948 . S
C408 C407 1.391 . S
C408 C409 1.391 . S
C409 C408 1.391 . S
C409 C410 1.392 . S
C409 H438 0.947 . S
C410 C409 1.392 . S
C410 C411 1.419 . S
C410 H439 0.948 . S
C411 C410 1.419 . S
C411 C412 1.391 . S
C411 C415 1.397 . S
C412 C407 1.391 . S
C412 C411 1.391 . S
C412 C413 1.399 . S
C413 C412 1.399 . S
C413 C414 1.396 . S
C413 C416 1.453 . S
C413 C417 1.684 . S
C414 C395 1.723 . S
C414 C413 1.396 . S
C414 C415 1.394 . S
C415 C411 1.397 . S
C415 C414 1.394 . S
C415 C425 1.723 . S
C416 C413 1.453 . S
C416 H440 0.982 . S
C416 H441 0.979 . S
C416 H442 0.977 . S
C417 C413 1.684 . S
C417 H443 0.979 . S
C417 H444 0.980 . S
C417 H445 0.983 . S
C418 H394 0.948 . S
C418 C419 1.391 . S
C418 C423 1.391 . S
C419 C418 1.391 . S
C419 C420 1.391 . S
C420 H397 0.947 . S
C420 C419 1.391 . S
C420 C421 1.392 . S
C421 H398 0.948 . S
C421 C420 1.392 . S
C421 C422 1.419 . S
C422 C421 1.419 . S
C422 C423 1.391 . S
C422 C426 1.397 . S
C423 C418 1.391 . S
C423 C422 1.391 . S
C423 C424 1.399 . S
C424 C423 1.399 . S
C424 C425 1.396 . S
C424 C427 1.453 . S
C424 C428 1.684 . S
C425 C415 1.723 . S
C425 C424 1.396 . S
C425 C426 1.394 . S
C426 C396 1.723 . S
C426 C422 1.397 . S
C426 C425 1.394 . S
C427 H399 0.982 . S
C427 H403 0.979 . S
C427 H404 0.977 . S
C427 C424 1.453 . S
C428 H400 0.979 . S
C428 H401 0.980 . S
C428 H402 0.983 . S
C428 C424 1.684 . S
H429 C447 0.948 . S
H430 C388 0.948 . S
H431 C406 0.979 . S
H432 C406 0.980 . S
H433 C406 0.983 . S
H434 C405 0.982 . S
H435 C405 0.979 . S
H436 C405 0.977 . S
H437 C407 0.948 . S
H438 C409 0.947 . S
H439 C410 0.948 . S
H440 C416 0.982 . S
H441 C416 0.979 . S
H442 C416 0.977 . S
H443 C417 0.979 . S
H444 C417 0.980 . S
H445 C417 0.983 . S
H446 C390 0.947 . S
C447 C390 1.392 . S
C447 C391 1.419 . S
C447 H429 0.948 . S
C448 C449 1.391 . S
C448 C452 1.391 . S
C448 H490 0.948 . S
C449 C448 1.391 . S
C449 C450 1.391 . S
C450 C449 1.391 . S
C450 H506 0.947 . S
C450 C507 1.392 . S
C451 C452 1.391 . S
C451 C455 1.397 . S
C451 C507 1.419 . S
C452 C448 1.391 . S
C452 C451 1.391 . S
C452 C453 1.399 . S
C453 C452 1.399 . S
C453 C456 1.396 . S
C453 C465 1.453 . S
C453 C466 1.684 . S
H454 C478 0.948 . S
C455 C451 1.397 . S
C455 C456 1.394 . S
C455 C474 1.723 . S
C456 C453 1.396 . S
C456 C455 1.394 . S
C456 C486 1.723 . S
H457 C480 0.947 . S
H458 C481 0.948 . S
H459 C487 0.982 . S
H460 C488 0.979 . S
H461 C488 0.980 . S
H462 C488 0.983 . S
H463 C487 0.979 . S
H464 C487 0.977 . S
C465 C453 1.453 . S
C465 H494 0.982 . S
C465 H495 0.979 . S
C465 H496 0.977 . S
C466 C453 1.684 . S
C466 H491 0.979 . S
C466 H492 0.980 . S
C466 H493 0.983 . S
C467 C468 1.391 . S
C467 C472 1.391 . S
C467 H497 0.948 . S
C468 C467 1.391 . S
C468 C469 1.391 . S
C469 C468 1.391 . S
C469 C470 1.392 . S
C469 H498 0.947 . S
C470 C469 1.392 . S
C470 C471 1.419 . S
C470 H499 0.948 . S
C471 C470 1.419 . S
C471 C472 1.391 . S
C471 C475 1.397 . S
C472 C467 1.391 . S
C472 C471 1.391 . S
C472 C473 1.399 . S
C473 C472 1.399 . S
C473 C474 1.396 . S
C473 C476 1.453 . S
C473 C477 1.684 . S
C474 C455 1.723 . S
C474 C473 1.396 . S
C474 C475 1.394 . S
C475 C471 1.397 . S
C475 C474 1.394 . S
C475 C485 1.723 . S
C476 C473 1.453 . S
C476 H500 0.982 . S
C476 H501 0.979 . S
C476 H502 0.977 . S
C477 C473 1.684 . S
C477 H503 0.979 . S
C477 H504 0.980 . S
C477 H505 0.983 . S
C478 H454 0.948 . S
C478 C479 1.391 . S
C478 C483 1.391 . S
C479 C478 1.391 . S
C479 C480 1.391 . S
C480 H457 0.947 . S
C480 C479 1.391 . S
C480 C481 1.392 . S
C481 H458 0.948 . S
C481 C480 1.392 . S
C481 C482 1.419 . S
C482 C481 1.419 . S
C482 C483 1.391 . S
C482 C486 1.397 . S
C483 C478 1.391 . S
C483 C482 1.391 . S
C483 C484 1.399 . S
C484 C483 1.399 . S
C484 C485 1.396 . S
C484 C487 1.453 . S
C484 C488 1.684 . S
C485 C475 1.723 . S
C485 C484 1.396 . S
C485 C486 1.394 . S
C486 C456 1.723 . S
C486 C482 1.397 . S
C486 C485 1.394 . S
C487 H459 0.982 . S
C487 H463 0.979 . S
C487 H464 0.977 . S
C487 C484 1.453 . S
C488 H460 0.979 . S
C488 H461 0.980 . S
C488 H462 0.983 . S
C488 C484 1.684 . S
H489 C507 0.948 . S
H490 C448 0.948 . S
H491 C466 0.979 . S
H492 C466 0.980 . S
H493 C466 0.983 . S
H494 C465 0.982 . S
H495 C465 0.979 . S
H496 C465 0.977 . S
H497 C467 0.948 . S
H498 C469 0.947 . S
H499 C470 0.948 . S
H500 C476 0.982 . S
H501 C476 0.979 . S
H502 C476 0.977 . S
H503 C477 0.979 . S
H504 C477 0.980 . S
H505 C477 0.983 . S
H506 C450 0.947 . S
C507 C450 1.392 . S
C507 C451 1.419 . S
C507 H489 0.948 . S
C508 C509 1.391 . S
C508 C512 1.391 . S
C508 H550 0.948 . S
C509 C508 1.391 . S
C509 C510 1.391 . S
C510 C509 1.391 . S
C510 H566 0.947 . S
C510 C567 1.392 . S
C511 C512 1.391 . S
C511 C515 1.397 . S
C511 C567 1.419 . S
C512 C508 1.391 . S
C512 C511 1.391 . S
C512 C513 1.399 . S
C513 C512 1.399 . S
C513 C516 1.396 . S
C513 C525 1.453 . S
C513 C526 1.684 . S
H514 C538 0.948 . S
C515 C511 1.397 . S
C515 C516 1.394 . S
C515 C534 1.723 . S
C516 C513 1.396 . S
C516 C515 1.394 . S
C516 C546 1.723 . S
H517 C540 0.947 . S
H518 C541 0.948 . S
H519 C547 0.982 . S
H520 C548 0.979 . S
H521 C548 0.980 . S
H522 C548 0.983 . S
H523 C547 0.979 . S
H524 C547 0.977 . S
C525 C513 1.453 . S
C525 H554 0.982 . S
C525 H555 0.979 . S
C525 H556 0.977 . S
C526 C513 1.684 . S
C526 H551 0.979 . S
C526 H552 0.980 . S
C526 H553 0.983 . S
C527 C528 1.391 . S
C527 C532 1.391 . S
C527 H557 0.948 . S
C528 C527 1.391 . S
C528 C529 1.391 . S
C529 C528 1.391 . S
C529 C530 1.392 . S
C529 H558 0.947 . S
C530 C529 1.392 . S
C530 C531 1.419 . S
C530 H559 0.948 . S
C531 C530 1.419 . S
C531 C532 1.391 . S
C531 C535 1.397 . S
C532 C527 1.391 . S
C532 C531 1.391 . S
C532 C533 1.399 . S
C533 C532 1.399 . S
C533 C534 1.396 . S
C533 C536 1.453 . S
C533 C537 1.684 . S
C534 C515 1.723 . S
C534 C533 1.396 . S
C534 C535 1.394 . S
C535 C531 1.397 . S
C535 C534 1.394 . S
C535 C545 1.723 . S
C536 C533 1.453 . S
C536 H560 0.982 . S
C536 H561 0.979 . S
C536 H562 0.977 . S
C537 C533 1.684 . S
C537 H563 0.979 . S
C537 H564 0.980 . S
C537 H565 0.983 . S
C538 H514 0.948 . S
C538 C539 1.391 . S
C538 C543 1.391 . S
C539 C538 1.391 . S
C539 C540 1.391 . S
C540 H517 0.947 . S
C540 C539 1.391 . S
C540 C541 1.392 . S
C541 H518 0.948 . S
C541 C540 1.392 . S
C541 C542 1.419 . S
C542 C541 1.419 . S
C542 C543 1.391 . S
C542 C546 1.397 . S
C543 C538 1.391 . S
C543 C542 1.391 . S
C543 C544 1.399 . S
C544 C543 1.399 . S
C544 C545 1.396 . S
C544 C547 1.453 . S
C544 C548 1.684 . S
C545 C535 1.723 . S
C545 C544 1.396 . S
C545 C546 1.394 . S
C546 C516 1.723 . S
C546 C542 1.397 . S
C546 C545 1.394 . S
C547 H519 0.982 . S
C547 H523 0.979 . S
C547 H524 0.977 . S
C547 C544 1.453 . S
C548 H520 0.979 . S
C548 H521 0.980 . S
C548 H522 0.983 . S
C548 C544 1.684 . S
H549 C567 0.948 . S
H550 C508 0.948 . S
H551 C526 0.979 . S
H552 C526 0.980 . S
H553 C526 0.983 . S
H554 C525 0.982 . S
H555 C525 0.979 . S
H556 C525 0.977 . S
H557 C527 0.948 . S
H558 C529 0.947 . S
H559 C530 0.948 . S
H560 C536 0.982 . S
H561 C536 0.979 . S
H562 C536 0.977 . S
H563 C537 0.979 . S
H564 C537 0.980 . S
H565 C537 0.983 . S
H566 C510 0.947 . S
C567 C510 1.392 . S
C567 C511 1.419 . S
C567 H549 0.948 . S
C568 C569 1.349 . S
C568 C570 1.327 . S
C568 H593 0.950 . S
C569 C568 1.349 . S
C569 C585 1.349 . S
C570 C568 1.327 . S
C570 C589 1.429 . S
C570 H594 0.950 . S
C571 C588 1.574 . S
C571 C590 1.368 . S
C571 H595 0.949 . S
H572 C576 0.949 . S
C573 C574 1.349 . S
C573 C575 1.327 . S
C573 H596 0.950 . S
C574 C573 1.349 . S
C574 C586 1.349 . S
C575 C573 1.327 . S
C575 C591 1.429 . S
C575 H597 0.950 . S
C576 H572 0.949 . S
C576 C584 1.574 1_545 S
C576 C592 1.368 . S
H577 C585 0.950 . S
H578 C583 0.950 . S
H579 C584 0.949 . S
H580 C586 0.950 . S
H581 C587 0.950 . S
H582 C588 0.949 1_545 S
C583 H578 0.950 . S
C583 C585 1.327 . S
C583 C589 1.429 . S
C584 C576 1.574 1_565 S
C584 H579 0.949 . S
C584 C590 1.368 . S
C585 C569 1.349 . S
C585 H577 0.950 . S
C585 C583 1.327 . S
C586 C574 1.349 . S
C586 H580 0.950 . S
C586 C587 1.327 . S
C587 H581 0.950 . S
C587 C586 1.327 . S
C587 C591 1.429 . S
C588 C571 1.574 . S
C588 H582 0.949 1_565 S
C588 C592 1.368 1_565 S
C589 C570 1.429 . S
C589 C583 1.429 . S
C589 C590 1.523 . S
C590 C571 1.368 . S
C590 C584 1.368 . S
C590 C589 1.523 . S
C591 C575 1.429 . S
C591 C587 1.429 . S
C591 C592 1.523 . S
C592 C576 1.368 . S
C592 C588 1.368 1_545 S
C592 C591 1.523 . S
H593 C568 0.950 . S
H594 C570 0.950 . S
H595 C571 0.949 . S
H596 C573 0.950 . S
H597 C575 0.950 . S
C598 C599 1.349 . S
C598 C600 1.327 . S
C598 H623 0.950 . S
C599 C598 1.349 . S
C599 C615 1.349 . S
C600 C598 1.327 . S
C600 C619 1.429 . S
C600 H624 0.950 . S
C601 C618 1.574 . S
C601 C620 1.368 . S
C601 H625 0.949 . S
H602 C606 0.949 . S
C603 C604 1.349 . S
C603 C605 1.327 . S
C603 H626 0.950 . S
C604 C603 1.349 . S
C604 C616 1.349 . S
C605 C603 1.327 . S
C605 C621 1.429 . S
C605 H627 0.950 . S
C606 H602 0.949 . S
C606 C614 1.574 . S
C606 C622 1.368 . S
H607 C615 0.950 . S
H608 C613 0.950 . S
H609 C614 0.949 . S
H610 C616 0.950 . S
H611 C617 0.950 . S
H612 C618 0.949 . S
C613 H608 0.950 . S
C613 C615 1.327 . S
C613 C619 1.429 . S
C614 C606 1.574 . S
C614 H609 0.949 . S
C614 C620 1.368 . S
C615 C599 1.349 . S
C615 H607 0.950 . S
C615 C613 1.327 . S
C616 C604 1.349 . S
C616 H610 0.950 . S
C616 C617 1.327 . S
C617 H611 0.950 . S
C617 C616 1.327 . S
C617 C621 1.429 . S
C618 C601 1.574 . S
C618 H612 0.949 . S
C618 C622 1.368 . S
C619 C600 1.429 . S
C619 C613 1.429 . S
C619 C620 1.523 . S
C620 C601 1.368 . S
C620 C614 1.368 . S
C620 C619 1.523 . S
C621 C605 1.429 . S
C621 C617 1.429 . S
C621 C622 1.523 . S
C622 C606 1.368 . S
C622 C618 1.368 . S
C622 C621 1.523 . S
H623 C598 0.950 . S
H624 C600 0.950 . S
H625 C601 0.949 . S
H626 C603 0.950 . S
H627 C605 0.950 . S
C628 C629 1.349 . S
C628 C630 1.327 . S
C628 H653 0.950 . S
C629 C628 1.349 . S
C629 C645 1.349 . S
C630 C628 1.327 . S
C630 C649 1.429 . S
C630 H654 0.950 . S
C631 C648 1.574 . S
C631 C650 1.368 . S
C631 H655 0.949 . S
H632 C636 0.949 . S
C633 C634 1.349 . S
C633 C635 1.327 . S
C633 H656 0.950 . S
C634 C633 1.349 . S
C634 C646 1.349 1_565 S
C635 C633 1.327 . S
C635 C651 1.429 1_565 S
C635 H657 0.950 . S
C636 H632 0.949 . S
C636 C644 1.574 . S
C636 C652 1.368 . S
H637 C645 0.950 . S
H638 C643 0.950 . S
H639 C644 0.949 . S
H640 C646 0.950 . S
H641 C647 0.950 . S
H642 C648 0.949 . S
C643 H638 0.950 . S
C643 C645 1.327 . S
C643 C649 1.429 . S
C644 C636 1.574 . S
C644 H639 0.949 . S
C644 C650 1.368 . S
C645 C629 1.349 . S
C645 H637 0.950 . S
C645 C643 1.327 . S
C646 C634 1.349 1_545 S
C646 H640 0.950 . S
C646 C647 1.327 . S
C647 H641 0.950 . S
C647 C646 1.327 . S
C647 C651 1.429 . S
C648 C631 1.574 . S
C648 H642 0.949 . S
C648 C652 1.368 . S
C649 C630 1.429 . S
C649 C643 1.429 . S
C649 C650 1.523 . S
C650 C631 1.368 . S
C650 C644 1.368 . S
C650 C649 1.523 . S
C651 C635 1.429 1_545 S
C651 C647 1.429 . S
C651 C652 1.523 . S
C652 C636 1.368 . S
C652 C648 1.368 . S
C652 C651 1.523 . S
H653 C628 0.950 . S
H654 C630 0.950 . S
H655 C631 0.949 . S
H656 C633 0.950 . S
H657 C635 0.950 . S
C658 C659 1.349 . S
C658 C660 1.327 . S
C658 H683 0.950 . S
C659 C658 1.349 . S
C659 C675 1.349 . S
C660 C658 1.327 . S
C660 C679 1.429 . S
C660 H684 0.950 . S
C661 C678 1.574 . S
C661 C680 1.368 . S
C661 H685 0.949 . S
H662 C666 0.949 . S
C663 C664 1.349 . S
C663 C665 1.327 . S
C663 H686 0.950 . S
C664 C663 1.349 . S
C664 C676 1.349 . S
C665 C663 1.327 . S
C665 C681 1.429 . S
C665 H687 0.950 . S
C666 H662 0.949 . S
C666 C674 1.574 . S
C666 C682 1.368 . S
H667 C675 0.950 . S
H668 C673 0.950 . S
H669 C674 0.949 . S
H670 C676 0.950 . S
H671 C677 0.950 . S
H672 C678 0.949 . S
C673 H668 0.950 . S
C673 C675 1.327 . S
C673 C679 1.429 . S
C674 C666 1.574 . S
C674 H669 0.949 . S
C674 C680 1.368 . S
C675 C659 1.349 . S
C675 H667 0.950 . S
C675 C673 1.327 . S
C676 C664 1.349 . S
C676 H670 0.950 . S
C676 C677 1.327 . S
C677 H671 0.950 . S
C677 C676 1.327 . S
C677 C681 1.429 . S
C678 C661 1.574 . S
C678 H672 0.949 . S
C678 C682 1.368 . S
C679 C660 1.429 . S
C679 C673 1.429 . S
C679 C680 1.523 . S
C680 C661 1.368 . S
C680 C674 1.368 . S
C680 C679 1.523 . S
C681 C665 1.429 . S
C681 C677 1.429 . S
C681 C682 1.523 . S
C682 C666 1.368 . S
C682 C678 1.368 . S
C682 C681 1.523 . S
H683 C658 0.950 . S
H684 C660 0.950 . S
H685 C661 0.949 . S
H686 C663 0.950 . S
H687 C665 0.950 . S
C688 C689 1.349 . S
C688 C690 1.327 . S
C688 H713 0.950 . S
C689 C688 1.349 . S
C689 C705 1.349 . S
C690 C688 1.327 . S
C690 C709 1.429 . S
C690 H714 0.950 . S
C691 C708 1.574 . S
C691 C710 1.368 . S
C691 H715 0.949 . S
H692 C696 0.949 . S
C693 C694 1.349 . S
C693 C695 1.327 . S
C693 H716 0.950 . S
C694 C693 1.349 . S
C694 C706 1.349 . S
C695 C693 1.327 . S
C695 C711 1.429 . S
C695 H717 0.950 . S
C696 H692 0.949 . S
C696 C704 1.574 . S
C696 C712 1.368 . S
H697 C705 0.950 . S
H698 C703 0.950 . S
H699 C704 0.949 . S
H700 C706 0.950 . S
H701 C707 0.950 . S
H702 C708 0.949 . S
C703 H698 0.950 . S
C703 C705 1.327 . S
C703 C709 1.429 . S
C704 C696 1.574 . S
C704 H699 0.949 . S
C704 C710 1.368 . S
C705 C689 1.349 . S
C705 H697 0.950 . S
C705 C703 1.327 . S
C706 C694 1.349 . S
C706 H700 0.950 . S
C706 C707 1.327 . S
C707 H701 0.950 . S
C707 C706 1.327 . S
C707 C711 1.429 . S
C708 C691 1.574 . S
C708 H702 0.949 . S
C708 C712 1.368 . S
C709 C690 1.429 . S
C709 C703 1.429 . S
C709 C710 1.523 . S
C710 C691 1.368 . S
C710 C704 1.368 . S
C710 C709 1.523 . S
C711 C695 1.429 . S
C711 C707 1.429 . S
C711 C712 1.523 . S
C712 C696 1.368 . S
C712 C708 1.368 . S
C712 C711 1.523 . S
H713 C688 0.950 . S
H714 C690 0.950 . S
H715 C691 0.949 . S
H716 C693 0.950 . S
H717 C695 0.950 . S
C718 C719 1.349 . S
C718 C720 1.327 . S
C718 H743 0.950 . S
C719 C718 1.349 . S
C719 C735 1.349 . S
C720 C718 1.327 . S
C720 C739 1.429 . S
C720 H744 0.950 . S
C721 C738 1.574 1_655 S
C721 C740 1.368 . S
C721 H745 0.949 . S
H722 C726 0.949 . S
C723 C724 1.349 . S
C723 C725 1.327 . S
C723 H746 0.950 . S
C724 C723 1.349 . S
C724 C736 1.349 . S
C725 C723 1.327 . S
C725 C741 1.429 . S
C725 H747 0.950 . S
C726 H722 0.949 . S
C726 C734 1.574 1_455 S
C726 C742 1.368 . S
H727 C735 0.950 . S
H728 C733 0.950 . S
H729 C734 0.949 . S
H730 C736 0.950 . S
H731 C737 0.950 . S
H732 C738 0.949 . S
C733 H728 0.950 . S
C733 C735 1.327 . S
C733 C739 1.429 . S
C734 C726 1.574 1_655 S
C734 H729 0.949 . S
C734 C740 1.368 . S
C735 C719 1.349 . S
C735 H727 0.950 . S
C735 C733 1.327 . S
C736 C724 1.349 . S
C736 H730 0.950 . S
C736 C737 1.327 . S
C737 H731 0.950 . S
C737 C736 1.327 . S
C737 C741 1.429 . S
C738 C721 1.574 1_455 S
C738 H732 0.949 . S
C738 C742 1.368 . S
C739 C720 1.429 . S
C739 C733 1.429 . S
C739 C740 1.523 . S
C740 C721 1.368 . S
C740 C734 1.368 . S
C740 C739 1.523 . S
C741 C725 1.429 . S
C741 C737 1.429 . S
C741 C742 1.523 . S
C742 C726 1.368 . S
C742 C738 1.368 . S
C742 C741 1.523 . S
H743 C718 0.950 . S
H744 C720 0.950 . S
H745 C721 0.949 . S
H746 C723 0.950 . S
H747 C725 0.950 . S
C748 C749 1.349 . S
C748 C750 1.327 . S
C748 H773 0.950 . S
C749 C748 1.349 . S
C749 C765 1.349 . S
C750 C748 1.327 . S
C750 C769 1.429 . S
C750 H774 0.950 . S
C751 C768 1.574 . S
C751 C770 1.368 . S
C751 H775 0.949 . S
H752 C756 0.949 . S
C753 C754 1.349 . S
C753 C755 1.327 . S
C753 H776 0.950 . S
C754 C753 1.349 . S
C754 C766 1.349 . S
C755 C753 1.327 . S
C755 C771 1.429 . S
C755 H777 0.950 . S
C756 H752 0.949 . S
C756 C764 1.574 . S
C756 C772 1.368 . S
H757 C765 0.950 . S
H758 C763 0.950 . S
H759 C764 0.949 . S
H760 C766 0.950 . S
H761 C767 0.950 . S
H762 C768 0.949 . S
C763 H758 0.950 . S
C763 C765 1.327 . S
C763 C769 1.429 . S
C764 C756 1.574 . S
C764 H759 0.949 . S
C764 C770 1.368 . S
C765 C749 1.349 . S
C765 H757 0.950 . S
C765 C763 1.327 . S
C766 C754 1.349 . S
C766 H760 0.950 . S
C766 C767 1.327 . S
C767 H761 0.950 . S
C767 C766 1.327 . S
C767 C771 1.429 . S
C768 C751 1.574 . S
C768 H762 0.949 . S
C768 C772 1.368 . S
C769 C750 1.429 . S
C769 C763 1.429 . S
C769 C770 1.523 . S
C770 C751 1.368 . S
C770 C764 1.368 . S
C770 C769 1.523 . S
C771 C755 1.429 . S
C771 C767 1.429 . S
C771 C772 1.523 . S
C772 C756 1.368 . S
C772 C768 1.368 . S
C772 C771 1.523 . S
H773 C748 0.950 . S
H774 C750 0.950 . S
H775 C751 0.949 . S
H776 C753 0.950 . S
H777 C755 0.950 . S
C778 C779 1.349 1_556 S
C778 C780 1.327 . S
C778 H803 0.950 . S
C779 C778 1.349 1_554 S
C779 C795 1.349 . S
C780 C778 1.327 . S
C780 C799 1.429 . S
C780 H804 0.950 . S
C781 C798 1.574 . S
C781 C800 1.368 . S
C781 H805 0.949 . S
H782 C786 0.949 . S
C783 C784 1.349 . S
C783 C785 1.327 . S
C783 H806 0.950 . S
C784 C783 1.349 . S
C784 C796 1.349 . S
C785 C783 1.327 . S
C785 C801 1.429 1_655 S
C785 H807 0.950 . S
C786 H782 0.949 . S
C786 C794 1.574 . S
C786 C802 1.368 . S
H787 C795 0.950 . S
H788 C793 0.950 . S
H789 C794 0.949 . S
H790 C796 0.950 . S
H791 C797 0.950 . S
H792 C798 0.949 . S
C793 H788 0.950 . S
C793 C795 1.327 . S
C793 C799 1.429 1_554 S
C794 C786 1.574 . S
C794 H789 0.949 . S
C794 C800 1.368 . S
C795 C779 1.349 . S
C795 H787 0.950 . S
C795 C793 1.327 . S
C796 C784 1.349 . S
C796 H790 0.950 . S
C796 C797 1.327 1_655 S
C797 H791 0.950 . S
C797 C796 1.327 1_455 S
C797 C801 1.429 . S
C798 C781 1.574 . S
C798 H792 0.949 . S
C798 C802 1.368 . S
C799 C780 1.429 . S
C799 C793 1.429 1_556 S
C799 C800 1.523 . S
C800 C781 1.368 . S
C800 C794 1.368 . S
C800 C799 1.523 . S
C801 C785 1.429 1_455 S
C801 C797 1.429 . S
C801 C802 1.523 . S
C802 C786 1.368 . S
C802 C798 1.368 . S
C802 C801 1.523 . S
H803 C778 0.950 . S
H804 C780 0.950 . S
H805 C781 0.949 . S
H806 C783 0.950 . S
H807 C785 0.950 . S
C808 C809 1.349 . S
C808 C810 1.327 . S
C808 H833 0.950 . S
C809 C808 1.349 . S
C809 C825 1.349 . S
C810 C808 1.327 . S
C810 C829 1.429 . S
C810 H834 0.950 . S
C811 C828 1.608 . S
C811 C830 1.368 . S
C811 H835 0.949 . S
H812 C816 0.949 . S
C813 C814 1.349 . S
C813 C815 1.327 . S
C813 H836 0.950 . S
C814 C813 1.349 . S
C814 C826 1.349 . S
C815 C813 1.327 . S
C815 C831 1.429 . S
C815 H837 0.950 . S
C816 H812 0.949 . S
C816 C824 1.574 1_565 S
C816 C832 1.368 . S
H817 C825 0.950 . S
H818 C823 0.950 . S
H819 C824 0.949 . S
H820 C826 0.950 . S
H821 C827 0.950 . S
H822 C828 0.945 1_565 S
C823 H818 0.950 . S
C823 C825 1.327 . S
C823 C829 1.429 . S
C824 C816 1.574 1_545 S
C824 H819 0.949 . S
C824 C830 1.368 . S
C825 C809 1.349 . S
C825 H817 0.950 . S
C825 C823 1.327 . S
C826 C814 1.349 . S
C826 H820 0.950 . S
C826 C827 1.327 . S
C827 H821 0.950 . S
C827 C826 1.327 . S
C827 C831 1.429 . S
C828 C811 1.608 . S
C828 H822 0.945 1_545 S
C828 C832 1.340 1_545 S
C829 C810 1.429 . S
C829 C823 1.429 . S
C829 C830 1.523 . S
C830 C811 1.368 . S
C830 C824 1.368 . S
C830 C829 1.523 . S
C831 C815 1.429 . S
C831 C827 1.429 . S
C831 C832 1.523 . S
C832 C816 1.368 . S
C832 C828 1.340 1_565 S
C832 C831 1.523 . S
H833 C808 0.950 . S
H834 C810 0.950 . S
H835 C811 0.949 . S
H836 C813 0.950 . S
H837 C815 0.950 . S
C838 C839 1.349 . S
C838 C840 1.327 . S
C838 H863 0.950 . S
C839 C838 1.349 . S
C839 C855 1.349 . S
C840 C838 1.327 . S
C840 C859 1.429 . S
C840 H864 0.950 . S
C841 C858 1.574 . S
C841 C860 1.368 . S
C841 H865 0.949 . S
H842 C846 0.949 . S
C843 C844 1.349 . S
C843 C845 1.327 . S
C843 H866 0.950 . S
C844 C843 1.349 . S
C844 C856 1.349 . S
C845 C843 1.327 . S
C845 C861 1.429 . S
C845 H867 0.950 . S
C846 H842 0.949 . S
C846 C854 1.574 . S
C846 C862 1.368 . S
H847 C855 0.950 . S
H848 C853 0.950 . S
H849 C854 0.949 . S
H850 C856 0.950 . S
H851 C857 0.950 . S
H852 C858 0.949 . S
C853 H848 0.950 . S
C853 C855 1.327 . S
C853 C859 1.429 . S
C854 C846 1.574 . S
C854 H849 0.949 . S
C854 C860 1.368 . S
C855 C839 1.349 . S
C855 H847 0.950 . S
C855 C853 1.327 . S
C856 C844 1.349 . S
C856 H850 0.950 . S
C856 C857 1.327 . S
C857 H851 0.950 . S
C857 C856 1.327 . S
C857 C861 1.429 . S
C858 C841 1.574 . S
C858 H852 0.949 . S
C858 C862 1.368 . S
C859 C840 1.429 . S
C859 C853 1.429 . S
C859 C860 1.523 . S
C860 C841 1.368 . S
C860 C854 1.368 . S
C860 C859 1.523 . S
C861 C845 1.429 . S
C861 C857 1.429 . S
C861 C862 1.523 . S
C862 C846 1.368 . S
C862 C858 1.368 . S
C862 C861 1.523 . S
H863 C838 0.950 . S
H864 C840 0.950 . S
H865 C841 0.949 . S
H866 C843 0.950 . S
H867 C845 0.950 . S
C868 C869 1.349 1_556 S
C868 C870 1.327 . S
C868 H893 0.950 . S
C869 C868 1.349 1_554 S
C869 C885 1.349 . S
C870 C868 1.327 . S
C870 C889 1.429 . S
C870 H894 0.950 . S
C871 C888 1.574 . S
C871 C890 1.368 . S
C871 H895 0.949 . S
H872 C876 0.949 . S
C873 C874 1.349 . S
C873 C875 1.327 . S
C873 H896 0.950 . S
C874 C873 1.349 . S
C874 C886 1.363 . S
C875 C873 1.327 . S
C875 C891 1.429 1_545 S
C875 H897 0.950 . S
C876 H872 0.949 . S
C876 C884 1.574 . S
C876 C892 1.368 . S
H877 C885 0.950 . S
H878 C883 0.950 . S
H879 C884 0.949 . S
H880 C886 0.948 1_565 S
H881 C887 0.950 . S
H882 C888 0.949 . S
C883 H878 0.950 . S
C883 C885 1.327 . S
C883 C889 1.429 1_554 S
C884 C876 1.574 . S
C884 H879 0.949 . S
C884 C890 1.368 . S
C885 C869 1.349 . S
C885 H877 0.950 . S
C885 C883 1.327 . S
C886 C874 1.363 . S
C886 H880 0.948 1_545 S
C886 C887 1.315 1_545 S
C887 H881 0.950 . S
C887 C886 1.315 1_565 S
C887 C891 1.429 . S
C888 C871 1.574 . S
C888 H882 0.949 . S
C888 C892 1.368 . S
C889 C870 1.429 . S
C889 C883 1.429 1_556 S
C889 C890 1.523 . S
C890 C871 1.368 . S
C890 C884 1.368 . S
C890 C889 1.523 . S
C891 C875 1.429 1_565 S
C891 C887 1.429 . S
C891 C892 1.523 . S
C892 C876 1.368 . S
C892 C888 1.368 . S
C892 C891 1.523 . S
H893 C868 0.950 . S
H894 C870 0.950 . S
H895 C871 0.949 . S
H896 C873 0.950 . S
H897 C875 0.950 . S
C898 C899 1.349 . S
C898 C900 1.327 . S
C898 H923 0.950 . S
C899 C898 1.349 . S
C899 C915 1.349 . S
C900 C898 1.327 . S
C900 C919 1.429 . S
C900 H924 0.950 . S
C901 C918 1.574 . S
C901 C920 1.368 . S
C901 H925 0.949 . S
H902 C906 0.949 . S
C903 C904 1.349 . S
C903 C905 1.327 . S
C903 H926 0.950 . S
C904 C903 1.349 . S
C904 C916 1.349 . S
C905 C903 1.327 . S
C905 C921 1.429 . S
C905 H927 0.950 . S
C906 H902 0.949 . S
C906 C914 1.574 . S
C906 C922 1.368 . S
H907 C915 0.950 . S
H908 C913 0.950 . S
H909 C914 0.949 . S
H910 C916 0.950 . S
H911 C917 0.950 . S
H912 C918 0.949 . S
C913 H908 0.950 . S
C913 C915 1.327 . S
C913 C919 1.429 . S
C914 C906 1.574 . S
C914 H909 0.949 . S
C914 C920 1.368 . S
C915 C899 1.349 . S
C915 H907 0.950 . S
C915 C913 1.327 . S
C916 C904 1.349 . S
C916 H910 0.950 . S
C916 C917 1.327 . S
C917 H911 0.950 . S
C917 C916 1.327 . S
C917 C921 1.429 . S
C918 C901 1.574 . S
C918 H912 0.949 . S
C918 C922 1.368 . S
C919 C900 1.429 . S
C919 C913 1.429 . S
C919 C920 1.523 . S
C920 C901 1.368 . S
C920 C914 1.368 . S
C920 C919 1.523 . S
C921 C905 1.429 . S
C921 C917 1.429 . S
C921 C922 1.523 . S
C922 C906 1.368 . S
C922 C918 1.368 . S
C922 C921 1.523 . S
H923 C898 0.950 . S
H924 C900 0.950 . S
H925 C901 0.949 . S
H926 C903 0.950 . S
H927 C905 0.950 . S
C928 C929 1.349 . S
C928 C930 1.327 . S
C928 H953 0.950 . S
C929 C928 1.349 . S
C929 C945 1.349 . S
C930 C928 1.327 . S
C930 C949 1.429 . S
C930 H954 0.950 . S
C931 C948 1.574 . S
C931 C950 1.368 . S
C931 H955 0.949 . S
H932 C936 0.949 . S
C933 C934 1.349 . S
C933 C935 1.327 . S
C933 H956 0.950 . S
C934 C933 1.349 . S
C934 C946 1.349 . S
C935 C933 1.327 . S
C935 C951 1.429 . S
C935 H957 0.950 . S
C936 H932 0.949 . S
C936 C944 1.574 . S
C936 C952 1.368 . S
H937 C945 0.950 . S
H938 C943 0.950 . S
H939 C944 0.949 . S
H940 C946 0.950 . S
H941 C947 0.950 . S
H942 C948 0.949 . S
C943 H938 0.950 . S
C943 C945 1.327 . S
C943 C949 1.429 . S
C944 C936 1.574 . S
C944 H939 0.949 . S
C944 C950 1.368 . S
C945 C929 1.349 . S
C945 H937 0.950 . S
C945 C943 1.327 . S
C946 C934 1.349 . S
C946 H940 0.950 . S
C946 C947 1.327 . S
C947 H941 0.950 . S
C947 C946 1.327 . S
C947 C951 1.429 . S
C948 C931 1.574 . S
C948 H942 0.949 . S
C948 C952 1.368 . S
C949 C930 1.429 . S
C949 C943 1.429 . S
C949 C950 1.523 . S
C950 C931 1.368 . S
C950 C944 1.368 . S
C950 C949 1.523 . S
C951 C935 1.429 . S
C951 C947 1.429 . S
C951 C952 1.523 . S
C952 C936 1.368 . S
C952 C948 1.368 . S
C952 C951 1.523 . S
H953 C928 0.950 . S
H954 C930 0.950 . S
H955 C931 0.949 . S
H956 C933 0.950 . S
H957 C935 0.950 . S
C958 C959 1.349 . S
C958 C960 1.327 . S
C958 H983 0.950 . S
C959 C958 1.349 . S
C959 C975 1.349 . S
C960 C958 1.327 . S
C960 C979 1.429 . S
C960 H984 0.950 . S
C961 C978 1.574 1_455 S
C961 C980 1.368 . S
C961 H985 0.949 . S
H962 C966 0.949 . S
C963 C964 1.349 . S
C963 C965 1.327 . S
C963 H986 0.950 . S
C964 C963 1.349 . S
C964 C976 1.349 . S
C965 C963 1.327 . S
C965 C981 1.429 . S
C965 H987 0.950 . S
C966 H962 0.949 . S
C966 C974 1.574 1_655 S
C966 C982 1.368 . S
H967 C975 0.950 . S
H968 C973 0.950 . S
H969 C974 0.949 . S
H970 C976 0.950 . S
H971 C977 0.950 . S
H972 C978 0.949 . S
C973 H968 0.950 . S
C973 C975 1.327 . S
C973 C979 1.429 . S
C974 C966 1.574 1_455 S
C974 H969 0.949 . S
C974 C980 1.368 . S
C975 C959 1.349 . S
C975 H967 0.950 . S
C975 C973 1.327 . S
C976 C964 1.349 . S
C976 H970 0.950 . S
C976 C977 1.327 . S
C977 H971 0.950 . S
C977 C976 1.327 . S
C977 C981 1.429 . S
C978 C961 1.574 1_655 S
C978 H972 0.949 . S
C978 C982 1.368 . S
C979 C960 1.429 . S
C979 C973 1.429 . S
C979 C980 1.523 . S
C980 C961 1.368 . S
C980 C974 1.368 . S
C980 C979 1.523 . S
C981 C965 1.429 . S
C981 C977 1.429 . S
C981 C982 1.523 . S
C982 C966 1.368 . S
C982 C978 1.368 . S
C982 C981 1.523 . S
H983 C958 0.950 . S
H984 C960 0.950 . S
H985 C961 0.949 . S
H986 C963 0.950 . S
H987 C965 0.950 . S
C988 C989 1.349 . S
C988 C990 1.327 . S
C988 H1013 0.950 . S
C989 C988 1.349 . S
C989 C1005 1.349 . S
C990 C988 1.327 . S
C990 C1009 1.429 . S
C990 H1014 0.950 . S
C991 C1008 1.574 . S
C991 C1010 1.368 . S
C991 H1015 0.949 . S
H992 C996 0.949 . S
C993 C994 1.349 . S
C993 C995 1.327 . S
C993 H1016 0.950 . S
C994 C993 1.349 . S
C994 C1006 1.349 . S
C995 C993 1.327 . S
C995 C1011 1.429 . S
C995 H1017 0.950 . S
C996 H992 0.949 . S
C996 C1004 1.574 . S
C996 C1012 1.368 . S
H997 C1005 0.950 . S
H998 C1003 0.950 . S
H999 C1004 0.949 . S
H1000 C1006 0.950 . S
H1001 C1007 0.950 . S
H1002 C1008 0.949 . S
C1003 H998 0.950 . S
C1003 C1005 1.327 . S
C1003 C1009 1.429 . S
C1004 C996 1.574 . S
C1004 H999 0.949 . S
C1004 C1010 1.368 . S
C1005 C989 1.349 . S
C1005 H997 0.950 . S
C1005 C1003 1.327 . S
C1006 C994 1.349 . S
C1006 H1000 0.950 . S
C1006 C1007 1.327 . S
C1007 H1001 0.950 . S
C1007 C1006 1.327 . S
C1007 C1011 1.429 . S
C1008 C991 1.574 . S
C1008 H1002 0.949 . S
C1008 C1012 1.368 . S
C1009 C990 1.429 . S
C1009 C1003 1.429 . S
C1009 C1010 1.523 . S
C1010 C991 1.368 . S
C1010 C1004 1.368 . S
C1010 C1009 1.523 . S
C1011 C995 1.429 . S
C1011 C1007 1.429 . S
C1011 C1012 1.523 . S
C1012 C996 1.368 . S
C1012 C1008 1.368 . S
C1012 C1011 1.523 . S
H1013 C988 0.950 . S
H1014 C990 0.950 . S
H1015 C991 0.949 . S
H1016 C993 0.950 . S
H1017 C995 0.950 . S
C1018 C1019 1.349 . S
C1018 C1020 1.327 . S
C1018 H1043 0.950 . S
C1019 C1018 1.349 . S
C1019 C1035 1.349 . S
C1020 C1018 1.327 . S
C1020 C1039 1.429 . S
C1020 H1044 0.950 . S
C1021 C1038 1.574 . S
C1021 C1040 1.368 . S
C1021 H1045 0.949 . S
H1022 C1026 0.949 . S
C1023 C1024 1.349 . S
C1023 C1025 1.327 . S
C1023 H1046 0.950 . S
C1024 C1023 1.349 . S
C1024 C1036 1.349 1_455 S
C1025 C1023 1.327 . S
C1025 C1041 1.429 1_455 S
C1025 H1047 0.950 . S
C1026 H1022 0.949 . S
C1026 C1034 1.574 . S
C1026 C1042 1.368 . S
H1027 C1035 0.950 . S
H1028 C1033 0.950 . S
H1029 C1034 0.949 . S
H1030 C1036 0.950 . S
H1031 C1037 0.950 . S
H1032 C1038 0.949 . S
C1033 H1028 0.950 . S
C1033 C1035 1.327 . S
C1033 C1039 1.429 . S
C1034 C1026 1.574 . S
C1034 H1029 0.949 . S
C1034 C1040 1.368 . S
C1035 C1019 1.349 . S
C1035 H1027 0.950 . S
C1035 C1033 1.327 . S
C1036 C1024 1.349 1_655 S
C1036 H1030 0.950 . S
C1036 C1037 1.327 . S
C1037 H1031 0.950 . S
C1037 C1036 1.327 . S
C1037 C1041 1.429 . S
C1038 C1021 1.574 . S
C1038 H1032 0.949 . S
C1038 C1042 1.368 . S
C1039 C1020 1.429 . S
C1039 C1033 1.429 . S
C1039 C1040 1.523 . S
C1040 C1021 1.368 . S
C1040 C1034 1.368 . S
C1040 C1039 1.523 . S
C1041 C1025 1.429 1_655 S
C1041 C1037 1.429 . S
C1041 C1042 1.523 . S
C1042 C1026 1.368 . S
C1042 C1038 1.368 . S
C1042 C1041 1.523 . S
H1043 C1018 0.950 . S
H1044 C1020 0.950 . S
H1045 C1021 0.949 . S
H1046 C1023 0.950 . S
H1047 C1025 0.950 . S
C1048 C1049 1.349 . S
C1048 C1050 1.327 . S
C1048 H1073 0.950 . S
C1049 C1048 1.349 . S
C1049 C1065 1.349 . S
C1050 C1048 1.327 . S
C1050 C1069 1.429 . S
C1050 H1074 0.950 . S
C1051 C1068 1.574 . S
C1051 C1070 1.368 . S
C1051 H1075 0.949 . S
H1052 C1056 0.949 . S
C1053 C1054 1.349 . S
C1053 C1055 1.327 . S
C1053 H1076 0.950 . S
C1054 C1053 1.349 . S
C1054 C1066 1.349 . S
C1055 C1053 1.327 . S
C1055 C1071 1.429 . S
C1055 H1077 0.950 . S
C1056 H1052 0.949 . S
C1056 C1064 1.574 . S
C1056 C1072 1.368 . S
H1057 C1065 0.950 . S
H1058 C1063 0.950 . S
H1059 C1064 0.949 . S
H1060 C1066 0.950 . S
H1061 C1067 0.950 . S
H1062 C1068 0.949 . S
C1063 H1058 0.950 . S
C1063 C1065 1.327 . S
C1063 C1069 1.429 . S
C1064 C1056 1.574 . S
C1064 H1059 0.949 . S
C1064 C1070 1.368 . S
C1065 C1049 1.349 . S
C1065 H1057 0.950 . S
C1065 C1063 1.327 . S
C1066 C1054 1.349 . S
C1066 H1060 0.950 . S
C1066 C1067 1.327 . S
C1067 H1061 0.950 . S
C1067 C1066 1.327 . S
C1067 C1071 1.429 . S
C1068 C1051 1.574 . S
C1068 H1062 0.949 . S
C1068 C1072 1.368 . S
C1069 C1050 1.429 . S
C1069 C1063 1.429 . S
C1069 C1070 1.523 . S
C1070 C1051 1.368 . S
C1070 C1064 1.368 . S
C1070 C1069 1.523 . S
C1071 C1055 1.429 . S
C1071 C1067 1.429 . S
C1071 C1072 1.523 . S
C1072 C1056 1.368 . S
C1072 C1068 1.368 . S
C1072 C1071 1.523 . S
H1073 C1048 0.950 . S
H1074 C1050 0.950 . S
H1075 C1051 0.949 . S
H1076 C1053 0.950 . S
H1077 C1055 0.950 . S
C1078 C1079 1.349 . S
C1078 C1080 1.327 . S
C1078 H1103 0.950 . S
C1079 C1078 1.349 . S
C1079 C1095 1.349 . S
C1080 C1078 1.327 . S
C1080 C1099 1.429 . S
C1080 H1104 0.950 . S
C1081 C1098 1.574 . S
C1081 C1100 1.368 . S
C1081 H1105 0.949 . S
H1082 C1086 0.949 . S
C1083 C1084 1.349 . S
C1083 C1085 1.327 . S
C1083 H1106 0.950 . S
C1084 C1083 1.349 . S
C1084 C1096 1.349 . S
C1085 C1083 1.327 . S
C1085 C1101 1.429 . S
C1085 H1107 0.950 . S
C1086 H1082 0.949 . S
C1086 C1094 1.574 . S
C1086 C1102 1.368 . S
H1087 C1095 0.950 . S
H1088 C1093 0.950 . S
H1089 C1094 0.949 . S
H1090 C1096 0.950 . S
H1091 C1097 0.950 . S
H1092 C1098 0.949 . S
C1093 H1088 0.950 . S
C1093 C1095 1.327 . S
C1093 C1099 1.429 . S
C1094 C1086 1.574 . S
C1094 H1089 0.949 . S
C1094 C1100 1.368 . S
C1095 C1079 1.349 . S
C1095 H1087 0.950 . S
C1095 C1093 1.327 . S
C1096 C1084 1.349 . S
C1096 H1090 0.950 . S
C1096 C1097 1.327 . S
C1097 H1091 0.950 . S
C1097 C1096 1.327 . S
C1097 C1101 1.429 . S
C1098 C1081 1.574 . S
C1098 H1092 0.949 . S
C1098 C1102 1.368 . S
C1099 C1080 1.429 . S
C1099 C1093 1.429 . S
C1099 C1100 1.523 . S
C1100 C1081 1.368 . S
C1100 C1094 1.368 . S
C1100 C1099 1.523 . S
C1101 C1085 1.429 . S
C1101 C1097 1.429 . S
C1101 C1102 1.523 . S
C1102 C1086 1.368 . S
C1102 C1098 1.368 . S
C1102 C1101 1.523 . S
H1103 C1078 0.950 . S
H1104 C1080 0.950 . S
H1105 C1081 0.949 . S
H1106 C1083 0.950 . S
H1107 C1085 0.950 . S
C1108 C1109 1.349 . S
C1108 C1110 1.327 . S
C1108 H1133 0.950 . S
C1109 C1108 1.349 . S
C1109 C1125 1.349 . S
C1110 C1108 1.327 . S
C1110 C1129 1.429 . S
C1110 H1134 0.950 . S
C1111 C1128 1.574 . S
C1111 C1130 1.368 . S
C1111 H1135 0.949 . S
H1112 C1116 0.949 . S
C1113 C1114 1.349 . S
C1113 C1115 1.327 . S
C1113 H1136 0.950 . S
C1114 C1113 1.349 . S
C1114 C1126 1.349 . S
C1115 C1113 1.327 . S
C1115 C1131 1.429 . S
C1115 H1137 0.950 . S
C1116 H1112 0.949 . S
C1116 C1124 1.574 . S
C1116 C1132 1.368 . S
H1117 C1125 0.950 . S
H1118 C1123 0.950 . S
H1119 C1124 0.949 . S
H1120 C1126 0.950 . S
H1121 C1127 0.950 . S
H1122 C1128 0.949 . S
C1123 H1118 0.950 . S
C1123 C1125 1.327 . S
C1123 C1129 1.429 . S
C1124 C1116 1.574 . S
C1124 H1119 0.949 . S
C1124 C1130 1.368 . S
C1125 C1109 1.349 . S
C1125 H1117 0.950 . S
C1125 C1123 1.327 . S
C1126 C1114 1.349 . S
C1126 H1120 0.950 . S
C1126 C1127 1.327 . S
C1127 H1121 0.950 . S
C1127 C1126 1.327 . S
C1127 C1131 1.429 . S
C1128 C1111 1.574 . S
C1128 H1122 0.949 . S
C1128 C1132 1.368 . S
C1129 C1110 1.429 . S
C1129 C1123 1.429 . S
C1129 C1130 1.523 . S
C1130 C1111 1.368 . S
C1130 C1124 1.368 . S
C1130 C1129 1.523 . S
C1131 C1115 1.429 . S
C1131 C1127 1.429 . S
C1131 C1132 1.523 . S
C1132 C1116 1.368 . S
C1132 C1128 1.368 . S
C1132 C1131 1.523 . S
H1133 C1108 0.950 . S
H1134 C1110 0.950 . S
H1135 C1111 0.949 . S
H1136 C1113 0.950 . S
H1137 C1115 0.950 . S
C1138 C1139 1.349 . S
C1138 C1140 1.327 . S
C1138 H1163 0.950 . S
C1139 C1138 1.349 . S
C1139 C1155 1.349 . S
C1140 C1138 1.327 . S
C1140 C1159 1.429 . S
C1140 H1164 0.950 . S
C1141 C1158 1.574 . S
C1141 C1160 1.368 . S
C1141 H1165 0.949 . S
H1142 C1146 0.949 . S
C1143 C1144 1.349 . S
C1143 C1145 1.327 . S
C1143 H1166 0.950 . S
C1144 C1143 1.349 . S
C1144 C1156 1.349 . S
C1145 C1143 1.327 . S
C1145 C1161 1.429 . S
C1145 H1167 0.950 . S
C1146 H1142 0.949 . S
C1146 C1154 1.574 . S
C1146 C1162 1.368 . S
H1147 C1155 0.950 . S
H1148 C1153 0.950 . S
H1149 C1154 0.949 . S
H1150 C1156 0.950 . S
H1151 C1157 0.950 . S
H1152 C1158 0.949 . S
C1153 H1148 0.950 . S
C1153 C1155 1.327 . S
C1153 C1159 1.429 . S
C1154 C1146 1.574 . S
C1154 H1149 0.949 . S
C1154 C1160 1.368 . S
C1155 C1139 1.349 . S
C1155 H1147 0.950 . S
C1155 C1153 1.327 . S
C1156 C1144 1.349 . S
C1156 H1150 0.950 . S
C1156 C1157 1.327 . S
C1157 H1151 0.950 . S
C1157 C1156 1.327 . S
C1157 C1161 1.429 . S
C1158 C1141 1.574 . S
C1158 H1152 0.949 . S
C1158 C1162 1.368 . S
C1159 C1140 1.429 . S
C1159 C1153 1.429 . S
C1159 C1160 1.523 . S
C1160 C1141 1.368 . S
C1160 C1154 1.368 . S
C1160 C1159 1.523 . S
C1161 C1145 1.429 . S
C1161 C1157 1.429 . S
C1161 C1162 1.523 . S
C1162 C1146 1.368 . S
C1162 C1158 1.368 . S
C1162 C1161 1.523 . S
H1163 C1138 0.950 . S
H1164 C1140 0.950 . S
H1165 C1141 0.949 . S
H1166 C1143 0.950 . S
H1167 C1145 0.950 . S
C1168 C1169 1.349 . S
C1168 C1170 1.327 . S
C1168 H1193 0.950 . S
C1169 C1168 1.349 . S
C1169 C1185 1.349 . S
C1170 C1168 1.327 . S
C1170 C1189 1.429 . S
C1170 H1194 0.950 . S
C1171 C1188 1.574 . S
C1171 C1190 1.368 . S
C1171 H1195 0.949 . S
H1172 C1176 0.949 . S
C1173 C1174 1.349 . S
C1173 C1175 1.327 . S
C1173 H1196 0.950 . S
C1174 C1173 1.349 . S
C1174 C1186 1.349 . S
C1175 C1173 1.327 . S
C1175 C1191 1.429 . S
C1175 H1197 0.950 . S
C1176 H1172 0.949 . S
C1176 C1184 1.574 . S
C1176 C1192 1.368 . S
H1177 C1185 0.950 . S
H1178 C1183 0.950 . S
H1179 C1184 0.949 . S
H1180 C1186 0.950 . S
H1181 C1187 0.950 . S
H1182 C1188 0.949 . S
C1183 H1178 0.950 . S
C1183 C1185 1.327 . S
C1183 C1189 1.429 . S
C1184 C1176 1.574 . S
C1184 H1179 0.949 . S
C1184 C1190 1.368 . S
C1185 C1169 1.349 . S
C1185 H1177 0.950 . S
C1185 C1183 1.327 . S
C1186 C1174 1.349 . S
C1186 H1180 0.950 . S
C1186 C1187 1.327 . S
C1187 H1181 0.950 . S
C1187 C1186 1.327 . S
C1187 C1191 1.429 . S
C1188 C1171 1.574 . S
C1188 H1182 0.949 . S
C1188 C1192 1.368 . S
C1189 C1170 1.429 . S
C1189 C1183 1.429 . S
C1189 C1190 1.523 . S
C1190 C1171 1.368 . S
C1190 C1184 1.368 . S
C1190 C1189 1.523 . S
C1191 C1175 1.429 . S
C1191 C1187 1.429 . S
C1191 C1192 1.523 . S
C1192 C1176 1.368 . S
C1192 C1188 1.368 . S
C1192 C1191 1.523 . S
H1193 C1168 0.950 . S
H1194 C1170 0.950 . S
H1195 C1171 0.949 . S
H1196 C1173 0.950 . S
H1197 C1175 0.950 . S
C1198 C1199 1.349 . S
C1198 C1200 1.327 . S
C1198 H1223 0.950 . S
C1199 C1198 1.349 . S
C1199 C1215 1.349 . S
C1200 C1198 1.327 . S
C1200 C1219 1.429 . S
C1200 H1224 0.950 . S
C1201 C1218 1.574 . S
C1201 C1220 1.368 . S
C1201 H1225 0.949 . S
H1202 C1206 0.949 . S
C1203 C1204 1.349 . S
C1203 C1205 1.327 . S
C1203 H1226 0.950 . S
C1204 C1203 1.349 . S
C1204 C1216 1.349 . S
C1205 C1203 1.327 . S
C1205 C1221 1.429 . S
C1205 H1227 0.950 . S
C1206 H1202 0.949 . S
C1206 C1214 1.574 . S
C1206 C1222 1.368 . S
H1207 C1215 0.950 . S
H1208 C1213 0.950 . S
H1209 C1214 0.949 . S
H1210 C1216 0.950 . S
H1211 C1217 0.950 . S
H1212 C1218 0.949 . S
C1213 H1208 0.950 . S
C1213 C1215 1.327 . S
C1213 C1219 1.429 . S
C1214 C1206 1.574 . S
C1214 H1209 0.949 . S
C1214 C1220 1.368 . S
C1215 C1199 1.349 . S
C1215 H1207 0.950 . S
C1215 C1213 1.327 . S
C1216 C1204 1.349 . S
C1216 H1210 0.950 . S
C1216 C1217 1.327 . S
C1217 H1211 0.950 . S
C1217 C1216 1.327 . S
C1217 C1221 1.429 . S
C1218 C1201 1.574 . S
C1218 H1212 0.949 . S
C1218 C1222 1.368 . S
C1219 C1200 1.429 . S
C1219 C1213 1.429 . S
C1219 C1220 1.523 . S
C1220 C1201 1.368 . S
C1220 C1214 1.368 . S
C1220 C1219 1.523 . S
C1221 C1205 1.429 . S
C1221 C1217 1.429 . S
C1221 C1222 1.523 . S
C1222 C1206 1.368 . S
C1222 C1218 1.368 . S
C1222 C1221 1.523 . S
H1223 C1198 0.950 . S
H1224 C1200 0.950 . S
H1225 C1201 0.949 . S
H1226 C1203 0.950 . S
H1227 C1205 0.950 . S
C1228 C1229 1.349 . S
C1228 C1230 1.327 . S
C1228 H1253 0.950 . S
C1229 C1228 1.349 . S
C1229 C1245 1.349 . S
C1230 C1228 1.327 . S
C1230 C1249 1.429 . S
C1230 H1254 0.950 . S
C1231 C1248 1.574 . S
C1231 C1250 1.368 . S
C1231 H1255 0.949 . S
H1232 C1236 0.949 . S
C1233 C1234 1.349 . S
C1233 C1235 1.327 . S
C1233 H1256 0.950 . S
C1234 C1233 1.349 . S
C1234 C1246 1.349 . S
C1235 C1233 1.327 . S
C1235 C1251 1.429 . S
C1235 H1257 0.950 . S
C1236 H1232 0.949 . S
C1236 C1244 1.574 . S
C1236 C1252 1.368 . S
H1237 C1245 0.950 . S
H1238 C1243 0.950 . S
H1239 C1244 0.949 . S
H1240 C1246 0.950 . S
H1241 C1247 0.950 . S
H1242 C1248 0.949 . S
C1243 H1238 0.950 . S
C1243 C1245 1.327 . S
C1243 C1249 1.429 . S
C1244 C1236 1.574 . S
C1244 H1239 0.949 . S
C1244 C1250 1.368 . S
C1245 C1229 1.349 . S
C1245 H1237 0.950 . S
C1245 C1243 1.327 . S
C1246 C1234 1.349 . S
C1246 H1240 0.950 . S
C1246 C1247 1.327 . S
C1247 H1241 0.950 . S
C1247 C1246 1.327 . S
C1247 C1251 1.429 . S
C1248 C1231 1.574 . S
C1248 H1242 0.949 . S
C1248 C1252 1.368 . S
C1249 C1230 1.429 . S
C1249 C1243 1.429 . S
C1249 C1250 1.523 . S
C1250 C1231 1.368 . S
C1250 C1244 1.368 . S
C1250 C1249 1.523 . S
C1251 C1235 1.429 . S
C1251 C1247 1.429 . S
C1251 C1252 1.523 . S
C1252 C1236 1.368 . S
C1252 C1248 1.368 . S
C1252 C1251 1.523 . S
H1253 C1228 0.950 . S
H1254 C1230 0.950 . S
H1255 C1231 0.949 . S
H1256 C1233 0.950 . S
H1257 C1235 0.950 . S
C1258 C1259 1.349 . S
C1258 C1260 1.327 . S
C1258 H1283 0.950 . S
C1259 C1258 1.349 . S
C1259 C1275 1.349 . S
C1260 C1258 1.327 . S
C1260 C1279 1.429 . S
C1260 H1284 0.950 . S
C1261 C1278 1.574 1_554 S
C1261 C1280 1.368 . S
C1261 H1285 0.949 . S
H1262 C1266 0.949 . S
C1263 C1264 1.349 . S
C1263 C1265 1.327 . S
C1263 H1286 0.950 . S
C1264 C1263 1.349 . S
C1264 C1276 1.349 . S
C1265 C1263 1.327 . S
C1265 C1281 1.429 . S
C1265 H1287 0.950 . S
C1266 H1262 0.949 . S
C1266 C1274 1.574 1_556 S
C1266 C1282 1.368 . S
H1267 C1275 0.950 . S
H1268 C1273 0.950 . S
H1269 C1274 0.949 . S
H1270 C1276 0.950 . S
H1271 C1277 0.950 . S
H1272 C1278 0.949 . S
C1273 H1268 0.950 . S
C1273 C1275 1.327 . S
C1273 C1279 1.429 . S
C1274 C1266 1.574 1_554 S
C1274 H1269 0.949 . S
C1274 C1280 1.368 . S
C1275 C1259 1.349 . S
C1275 H1267 0.950 . S
C1275 C1273 1.327 . S
C1276 C1264 1.349 . S
C1276 H1270 0.950 . S
C1276 C1277 1.327 . S
C1277 H1271 0.950 . S
C1277 C1276 1.327 . S
C1277 C1281 1.429 . S
C1278 C1261 1.574 1_556 S
C1278 H1272 0.949 . S
C1278 C1282 1.368 . S
C1279 C1260 1.429 . S
C1279 C1273 1.429 . S
C1279 C1280 1.523 . S
C1280 C1261 1.368 . S
C1280 C1274 1.368 . S
C1280 C1279 1.523 . S
C1281 C1265 1.429 . S
C1281 C1277 1.429 . S
C1281 C1282 1.523 . S
C1282 C1266 1.368 . S
C1282 C1278 1.368 . S
C1282 C1281 1.523 . S
H1283 C1258 0.950 . S
H1284 C1260 0.950 . S
H1285 C1261 0.949 . S
H1286 C1263 0.950 . S
H1287 C1265 0.950 . S
C569 C7 1.246 . S
C574 C89 1.196 . S
C599 C37 1.461 . S
C604 C168 1.395 . S
C629 C54 1.218 . S
C634 C239 1.195 . S
C664 C299 1.623 . S
C659 C87 1.608 . S
C694 C329 1.313 . S
C689 C30 1.413 . S
C719 C51 1.276 . S
C724 C419 1.285 . S
C749 C84 1.600 . S
C754 C479 1.594 . S
C779 C10 1.250 . S
C784 C528 1.227 . S
C809 C59 1.293 . S
C814 C509 1.241 . S
C844 C348 1.417 . S
C839 C74 1.424 . S
C874 C408 1.114 . S
C869 C18 1.259 . S
C899 C32 1.614 . S
C904 C468 1.508 . S
C934 C149 1.315 . S
C929 C73 1.473 . S
C959 C15 1.263 . S
C964 C228 1.212 . S
C994 C288 1.535 . S
C989 C43 1.623 . S
C1024 C108 1.209 . S
C1019 C62 1.227 . S
C1054 C449 1.581 . S
C1049 C21 1.619 . S
C1084 C539 0.984 . S
C1079 C29 1.021 . S
C1109 C52 1.251 . S
C1114 C359 1.233 . S
C1144 C389 1.012 . S
C1139 C81 1.013 . S
C1174 C209 0.946 . S
C1169 C40 0.979 . S
C1199 C65 1.594 . S
C1204 C269 1.559 . S
C1234 C119 0.939 . S
C1229 C76 0.971 . S
C1264 C179 1.234 . S
C1259 C8 1.304 . S
