# Generated by pormake.
# Topology pth, (4,4)-cn, num edge types: 1
# Building blocks:
#     Node 0, Type 0, BuildingBlock: QUQFOY_clean_sbu_1, # of connection points: 4
#     Node 1, Type 0, BuildingBlock: QUQFOY_clean_sbu_1, # of connection points: 4
#     Node 2, Type 0, BuildingBlock: QUQFOY_clean_sbu_1, # of connection points: 4
#     Node 3, Type 1, BuildingBlock: NAHDIM_clean_linker_0, # of connection points: 4
#     Node 4, Type 1, BuildingBlock: NAHDIM_clean_linker_0, # of connection points: 4
#     Node 5, Type 1, BuildingBlock: NAHDIM_clean_linker_0, # of connection points: 4
#     Edge 6, Type (0, 1), BuildingBlock: EZIPEK_clean_linker_0, # of connection points: 2
#     Edge 7, Type (0, 1), BuildingBlock: EZIPEK_clean_linker_0, # of connection points: 2
#     Edge 8, Type (0, 1), BuildingBlock: EZIPEK_clean_linker_0, # of connection points: 2
#     Edge 9, Type (0, 1), BuildingBlock: EZIPEK_clean_linker_0, # of connection points: 2
#     Edge 10, Type (0, 1), BuildingBlock: EZIPEK_clean_linker_0, # of connection points: 2
#     Edge 11, Type (0, 1), BuildingBlock: EZIPEK_clean_linker_0, # of connection points: 2
#     Edge 12, Type (0, 1), BuildingBlock: EZIPEK_clean_linker_0, # of connection points: 2
#     Edge 13, Type (0, 1), BuildingBlock: EZIPEK_clean_linker_0, # of connection points: 2
#     Edge 14, Type (0, 1), BuildingBlock: EZIPEK_clean_linker_0, # of connection points: 2
#     Edge 15, Type (0, 1), BuildingBlock: EZIPEK_clean_linker_0, # of connection points: 2
#     Edge 16, Type (0, 1), BuildingBlock: EZIPEK_clean_linker_0, # of connection points: 2
#     Edge 17, Type (0, 1), BuildingBlock: EZIPEK_clean_linker_0, # of connection points: 2
# Relax obj value: 0.030
# Max RMSD: 0.122
# Mean RMSD: 0.078
data_MOF--net-pth--node1-QUQFOY_clean_sbu_1--node2-NAHDIM_clean_linker_0--edge1-EZIPEK_clean_linker_0
_symmetry_space_group_name_H-M    P1
_symmetry_Int_Tables_number       1
_symmetry_cell_setting            triclinic
loop_
_symmetry_equiv_pos_as_xyz
'x, y, z'
_cell_length_a     24.706768
_cell_length_b     27.109588
_cell_length_c     67.445911
_cell_angle_alpha  89.590639
_cell_angle_beta   90.813631
_cell_angle_gamma 120.04974
loop_
_atom_site_label
_atom_site_type_symbol
_atom_site_fract_x
_atom_site_fract_y
_atom_site_fract_z
_atom_type_partial_charge
O0 O 0.06723 0.10703 0.05125 0.0
Cd1 Cd 0.00321 0.05647 0.07222 0.0
Cd2 Cd 0.06246 0.00297 0.06618 0.0
O3 O 0.13607 0.07969 0.05709 0.0
O4 O 0.97497 0.10776 0.0832 0.0
O5 O 0.02653 0.07504 0.10092 0.0
C6 C 0.00259 0.10772 0.09956 0.0
C7 C 0.06175 0.94927 0.09288 0.0
C8 C 0.1214 0.11373 0.04886 0.0
C9 C 0.93542 0.95408 0.04883 0.0
O10 O 0.98977 0.9614 0.04618 0.0
O11 O 0.92684 0.98241 0.06212 0.0
O12 O 0.08649 0.94742 0.07634 0.0
O13 O 0.0411 0.98436 0.09457 0.0
O14 O 0.03657 0.11672 0.41672 0.0
Cd15 Cd 0.0935 0.11081 0.3961 0.0
Cd16 Cd 0.01267 0.00057 0.40059 0.0
O17 O 0.95713 0.02919 0.41275 0.0
O18 O 0.12716 0.18037 0.37909 0.0
O19 O 0.05906 0.09344 0.36859 0.0
C20 C 0.09013 0.14752 0.36529 0.0
C21 C 0.97994 0.92761 0.37751 0.0
C22 C 0.98021 0.07898 0.42002 0.0
C23 C 0.14269 0.04639 0.4168 0.0
O24 O 0.08552 0.00818 0.41782 0.0
O25 O 0.15969 0.09128 0.40657 0.0
O26 O 0.9605 0.91695 0.39554 0.0
O27 O 0.01397 0.98013 0.37219 0.0
O28 O 0.92831 0.00643 0.695 0.0
Cd29 Cd 0.97283 0.97317 0.7119 0.0
Cd30 Cd 0.06869 0.08337 0.71406 0.0
O31 O 0.00471 0.09575 0.69825 0.0
O32 O 0.90954 0.8964 0.72169 0.0
O33 O 0.96306 0.97076 0.74143 0.0
C34 C 0.92213 0.91736 0.73937 0.0
C35 C 0.1126 0.14164 0.74166 0.0
C36 C 0.95098 0.05931 0.69169 0.0
C37 C 0.09783 0.99993 0.69554 0.0
O38 O 0.11849 0.05198 0.6998 0.0
O39 O 0.04175 0.96238 0.6993 0.0
O40 O 0.12983 0.16084 0.72395 0.0
O41 O 0.07162 0.08834 0.74378 0.0
C42 C 0.85124 0.7109 0.31876 0.0
C43 C 0.91691 0.73124 0.32776 0.0
C44 C 0.97403 0.69694 0.30787 0.0
C45 C 0.03411 0.71573 0.3008 0.0
C46 C 0.05147 0.67713 0.29374 0.0
C47 C 0.00631 0.61838 0.29274 0.0
C48 C 0.94574 0.59885 0.30033 0.0
C49 C 0.93058 0.63829 0.30813 0.0
C50 C 0.11743 0.69956 0.28669 0.0
C51 C 0.89619 0.53661 0.29948 0.0
C52 C 0.04632 0.24136 0.33952 0.0
C53 C 0.02718 0.27317 0.32576 0.0
C54 C 0.05824 0.3714 0.31644 0.0
C55 C 0.00275 0.35786 0.30602 0.0
C56 C 0.99624 0.40012 0.29597 0.0
C57 C 0.04715 0.45675 0.29556 0.0
C58 C 0.10304 0.47058 0.30602 0.0
C59 C 0.10747 0.42777 0.31653 0.0
C60 C 0.935 0.38383 0.28555 0.0
C61 C 0.15846 0.53028 0.30578 0.0
C62 C 0.05187 0.35917 0.16928 0.0
C63 C 0.99603 0.34847 0.17824 0.0
C64 C 0.99196 0.39233 0.18776 0.0
C65 C 0.04501 0.44777 0.18857 0.0
C66 C 0.10082 0.45891 0.17918 0.0
C67 C 0.10317 0.41448 0.16944 0.0
C68 C 0.93079 0.37943 0.19691 0.0
C69 C 0.15811 0.51753 0.17962 0.0
C70 C 0.96633 0.79882 0.17138 0.0
C71 C 0.01303 0.79191 0.15854 0.0
C72 C 0.99963 0.69709 0.16451 0.0
C73 C 0.94928 0.64198 0.16705 0.0
C74 C 0.95637 0.60099 0.17777 0.0
C75 C 0.01587 0.61536 0.18563 0.0
C76 C 0.06764 0.67038 0.18233 0.0
C77 C 0.0589 0.71081 0.17188 0.0
C78 C 0.90021 0.54275 0.18103 0.0
C79 C 0.13216 0.68646 0.18994 0.0
C80 C 0.02036 0.57848 0.28194 0.0
C81 C 0.03088 0.53985 0.29285 0.0
C82 C 0.0426 0.50044 0.28334 0.0
C83 C 0.0456 0.50039 0.26241 0.0
C84 C 0.05917 0.46257 0.25238 0.0
C85 C 0.05853 0.46058 0.23178 0.0
C86 C 0.04512 0.49685 0.22038 0.0
C87 C 0.0419 0.49367 0.19944 0.0
C88 C 0.03227 0.53268 0.18851 0.0
C89 C 0.02365 0.57384 0.19799 0.0
C90 C 0.02274 0.57531 0.21893 0.0
C91 C 0.00985 0.61357 0.22889 0.0
C92 C 0.00841 0.61429 0.24947 0.0
C93 C 0.02116 0.57765 0.26096 0.0
C94 C 0.0341 0.53865 0.2512 0.0
C95 C 0.03428 0.53712 0.23016 0.0
C96 C 0.06377 0.24962 0.1811 0.0
C97 C 0.02911 0.26067 0.16408 0.0
O98 O 0.95921 0.73679 0.31341 0.0
O99 O 0.98987 0.73492 0.15407 0.0
O100 O 0.05775 0.31829 0.15967 0.0
O101 O 0.06613 0.33185 0.32661 0.0
H102 H 0.90953 0.69711 0.33848 0.0
H103 H 0.82403 0.6637 0.31806 0.0
H104 H 0.85318 0.72653 0.30342 0.0
H105 H 0.82431 0.72441 0.32813 0.0
H106 H 0.06757 0.76104 0.30082 0.0
H107 H 0.88406 0.62316 0.31364 0.0
H108 H 0.13496 0.67049 0.29117 0.0
H109 H 0.14986 0.74279 0.29265 0.0
H110 H 0.11812 0.7022 0.27026 0.0
H111 H 0.85012 0.52887 0.30469 0.0
H112 H 0.91089 0.51153 0.30889 0.0
H113 H 0.89061 0.52053 0.28405 0.0
H114 H 0.97665 0.25965 0.32681 0.0
H115 H 0.00744 0.22051 0.35055 0.0
H116 H 0.08102 0.27338 0.35035 0.0
H117 H 0.06872 0.1953 0.32081 0.0
H118 H 0.96402 0.31461 0.30565 0.0
H119 H 0.15006 0.43794 0.32459 0.0
H120 H 0.94033 0.3811 0.26935 0.0
H121 H 0.92128 0.41652 0.28806 0.0
H122 H 0.8966 0.34188 0.29064 0.0
H123 H 0.20002 0.5332 0.31347 0.0
H124 H 0.146 0.55966 0.31315 0.0
H125 H 0.171 0.54504 0.29024 0.0
H126 H 0.98207 0.24495 0.17021 0.0
H127 H 0.95495 0.30661 0.1775 0.0
H128 H 0.14567 0.4225 0.16217 0.0
H129 H 0.93581 0.38132 0.21331 0.0
H130 H 0.89187 0.33652 0.19272 0.0
H131 H 0.91816 0.41181 0.19228 0.0
H132 H 0.19929 0.51815 0.17294 0.0
H133 H 0.16992 0.53306 0.19514 0.0
H134 H 0.14825 0.54772 0.17131 0.0
H135 H 0.05418 0.80775 0.16849 0.0
H136 H 0.98445 0.84466 0.17457 0.0
H137 H 0.96034 0.77639 0.18573 0.0
H138 H 0.91952 0.78099 0.16431 0.0
H139 H 0.90395 0.63158 0.16096 0.0
H140 H 0.09864 0.75251 0.1692 0.0
H141 H 0.89333 0.53367 0.19716 0.0
H142 H 0.90841 0.50984 0.1743 0.0
H143 H 0.85673 0.53889 0.17449 0.0
H144 H 0.16847 0.7291 0.18462 0.0
H145 H 0.14458 0.65428 0.18515 0.0
H146 H 0.1326 0.68681 0.2064 0.0
H147 H 0.02864 0.53968 0.3089 0.0
H148 H 0.06986 0.43363 0.26035 0.0
H149 H 0.06863 0.43017 0.22489 0.0
H150 H 0.03086 0.53063 0.17243 0.0
H151 H -9e-05 0.64295 0.22089 0.0
H152 H 0.99708 0.64404 0.25621 0.0
H153 H 0.04174 0.20309 0.18391 0.0
H154 H 0.06039 0.27012 0.19487 0.0
H155 H 0.11402 0.26678 0.17816 0.0
C156 C 0.1988 0.83803 0.67545 0.0
C157 C 0.23807 0.8974 0.66628 0.0
C158 C 0.2992 0.9265 0.63617 0.0
C159 C 0.32667 0.98593 0.63649 0.0
C160 C 0.38163 0.02057 0.62594 0.0
C161 C 0.40985 0.99502 0.61509 0.0
C162 C 0.38166 0.93483 0.61469 0.0
C163 C 0.32578 0.90136 0.62489 0.0
C164 C 0.40963 0.08441 0.62649 0.0
C165 C 0.41103 0.90563 0.60389 0.0
C166 C 0.92181 0.24509 0.64851 0.0
C167 C 0.86233 0.18663 0.64661 0.0
C168 C 0.75382 0.16324 0.64286 0.0
C169 C 0.72575 0.10567 0.63753 0.0
C170 C 0.66892 0.0791 0.62694 0.0
C171 C 0.63951 0.11083 0.62181 0.0
C172 C 0.6658 0.16789 0.62828 0.0
C173 C 0.72264 0.19329 0.63889 0.0
C174 C 0.6411 0.01763 0.62078 0.0
C175 C 0.63495 0.20249 0.62338 0.0
C176 C 0.77886 0.12553 0.49729 0.0
C177 C 0.74823 0.07766 0.5094 0.0
C178 C 0.69136 0.06344 0.51828 0.0
C179 C 0.66608 0.09989 0.51572 0.0
C180 C 0.69762 0.14926 0.50378 0.0
C181 C 0.75351 0.16133 0.4945 0.0
C182 C 0.6583 0.00912 0.53024 0.0
C183 C 0.67248 0.18939 0.5009 0.0
C184 C 0.18509 0.87859 0.46042 0.0
C185 C 0.23796 0.93822 0.46625 0.0
C186 C 0.34023 0.96338 0.47966 0.0
C187 C 0.36167 0.93013 0.48896 0.0
C188 C 0.4103 0.95391 0.50307 0.0
C189 C 0.43825 0.01252 0.50776 0.0
C190 C 0.41709 0.04647 0.49816 0.0
C191 C 0.36856 0.02152 0.48402 0.0
C192 C 0.43256 0.91673 0.51272 0.0
C193 C 0.44673 0.10928 0.50253 0.0
C194 C 0.47049 0.03094 0.60507 0.0
C195 C 0.52464 0.05642 0.61692 0.0
C196 C 0.58386 0.08571 0.60847 0.0
C197 C 0.5898 0.08884 0.58763 0.0
C198 C 0.64887 0.1159 0.57866 0.0
C199 C 0.65429 0.11577 0.55818 0.0
C200 C 0.60089 0.08907 0.54588 0.0
C201 C 0.60591 0.08517 0.52517 0.0
C202 C 0.55208 0.06116 0.51326 0.0
C203 C 0.49282 0.03913 0.52149 0.0
C204 C 0.48656 0.03974 0.54229 0.0
C205 C 0.42753 0.01534 0.55119 0.0
C206 C 0.42204 0.01321 0.57177 0.0
C207 C 0.4754 0.03591 0.58417 0.0
C208 C 0.53536 0.06364 0.57545 0.0
C209 C 0.54093 0.0647 0.55451 0.0
C210 C 0.90956 0.22595 0.47466 0.0
C211 C 0.85843 0.16356 0.47132 0.0
O212 O 0.24639 0.8923 0.6463 0.0
O213 O 0.29436 0.93903 0.46577 0.0
O214 O 0.8335 0.13627 0.48909 0.0
O215 O 0.81079 0.19092 0.65184 0.0
H216 H 0.28382 0.9138 0.67395 0.0
H217 H 0.22238 0.81275 0.67327 0.0
H218 H 0.15136 0.81407 0.66873 0.0
H219 H 0.19405 0.84181 0.69165 0.0
H220 H 0.30476 0.00521 0.64471 0.0
H221 H 0.30358 0.8553 0.62463 0.0
H222 H 0.45325 0.10355 0.63557 0.0
H223 H 0.37727 0.09702 0.63299 0.0
H224 H 0.42209 0.10243 0.6113 0.0
H225 H 0.38922 0.85981 0.60787 0.0
H226 H 0.46192 0.92673 0.60727 0.0
H227 H 0.40528 0.90867 0.58766 0.0
H228 H 0.85942 0.17846 0.63049 0.0
H229 H 0.96297 0.24236 0.64358 0.0
H230 H 0.9307 0.26154 0.66391 0.0
H231 H 0.91755 0.27647 0.6389 0.0
H232 H 0.74801 0.08145 0.64168 0.0
H233 H 0.74417 0.23743 0.6435 0.0
H234 H 0.5919 0.99266 0.62577 0.0
H235 H 0.66773 0.9979 0.62696 0.0
H236 H 0.64061 0.01488 0.60435 0.0
H237 H 0.65978 0.24545 0.6303 0.0
H238 H 0.5858 0.17972 0.62851 0.0
H239 H 0.63382 0.20753 0.60705 0.0
H240 H 0.82249 0.16716 0.46243 0.0
H241 H 0.76852 0.05058 0.5115 0.0
H242 H 0.77766 0.19919 0.48545 0.0
H243 H 0.66429 0.01968 0.54627 0.0
H244 H 0.67733 0.9804 0.52742 0.0
H245 H 0.6074 0.98574 0.52677 0.0
H246 H 0.7066 0.22962 0.49348 0.0
H247 H 0.66006 0.19986 0.51542 0.0
H248 H 0.62922 0.16831 0.49166 0.0
H249 H 0.22689 0.94201 0.48181 0.0
H250 H 0.13935 0.87719 0.46051 0.0
H251 H 0.18311 0.84672 0.47128 0.0
H252 H 0.19218 0.86586 0.44552 0.0
H253 H 0.34003 0.8854 0.48512 0.0
H254 H 0.35391 0.0476 0.47598 0.0
H255 H 0.42883 0.91782 0.52908 0.0
H256 H 0.4826 0.93349 0.50927 0.0
H257 H 0.40524 0.87175 0.50766 0.0
H258 H 0.42212 0.12893 0.49483 0.0
H259 H 0.49624 0.13149 0.49777 0.0
H260 H 0.4466 0.11603 0.51875 0.0
H261 H 0.52072 0.0523 0.63292 0.0
H262 H 0.69168 0.13655 0.58738 0.0
H263 H 0.70091 0.13642 0.5521 0.0
H264 H 0.5562 0.05794 0.49738 0.0
H265 H 0.38492 0.99664 0.54236 0.0
H266 H 0.37546 0.99312 0.57786 0.0
H267 H 0.92815 0.24685 0.46014 0.0
H268 H 0.94922 0.2306 0.48388 0.0
H269 H 0.88961 0.24948 0.48216 0.0
C270 C 0.85782 0.73367 0.80774 0.0
C271 C 0.80562 0.74427 0.79973 0.0
C272 C 0.71887 0.70539 0.82334 0.0
C273 C 0.67875 0.71926 0.83306 0.0
C274 C 0.62465 0.67729 0.8424 0.0
C275 C 0.61216 0.62026 0.84293 0.0
C276 C 0.65233 0.60576 0.83297 0.0
C277 C 0.70463 0.64828 0.82299 0.0
C278 C 0.58156 0.69437 0.85195 0.0
C279 C 0.64089 0.54557 0.83322 0.0
C280 C 0.15719 0.3399 0.80033 0.0
C281 C 0.21014 0.32587 0.79809 0.0
C282 C 0.28909 0.36613 0.82439 0.0
C283 C 0.33072 0.35206 0.83342 0.0
C284 C 0.38633 0.394 0.84239 0.0
C285 C 0.39871 0.45095 0.84327 0.0
C286 C 0.35663 0.46544 0.8341 0.0
C287 C 0.30267 0.42294 0.8245 0.0
C288 C 0.43114 0.37705 0.85122 0.0
C289 C 0.36769 0.52543 0.83492 0.0
C290 C 0.31497 0.37236 0.97658 0.0
C291 C 0.35502 0.3586 0.96661 0.0
C292 C 0.40096 0.39806 0.9539 0.0
C293 C 0.40609 0.452 0.95093 0.0
C294 C 0.36502 0.46557 0.96078 0.0
C295 C 0.3206 0.42577 0.97377 0.0
C296 C 0.44532 0.38281 0.94419 0.0
C297 C 0.36875 0.52244 0.95788 0.0
C298 C 0.80167 0.8456 0.96934 0.0
C299 C 0.75933 0.816 0.9871 0.0
C300 C 0.6979 0.71734 0.9747 0.0
C301 C 0.69554 0.66478 0.9745 0.0
C302 C 0.65283 0.62021 0.96226 0.0
C303 C 0.61029 0.62814 0.9503 0.0
C304 C 0.61199 0.68111 0.95053 0.0
C305 C 0.65645 0.72545 0.96245 0.0
C306 C 0.65277 0.56453 0.96228 0.0
C307 C 0.5659 0.69071 0.93855 0.0
C308 C 0.55898 0.57657 0.85468 0.0
C309 C 0.50563 0.53543 0.84456 0.0
C310 C 0.45343 0.49435 0.85484 0.0
C311 C 0.45371 0.49482 0.87582 0.0
C312 C 0.40109 0.45574 0.88666 0.0
C313 C 0.40227 0.45572 0.90728 0.0
C314 C 0.45575 0.49534 0.91787 0.0
C315 C 0.45759 0.49572 0.93882 0.0
C316 C 0.50957 0.5384 0.94888 0.0
C317 C 0.56098 0.5801 0.93862 0.0
C318 C 0.56203 0.57797 0.91771 0.0
C319 C 0.61492 0.61664 0.907 0.0
C320 C 0.61456 0.61548 0.88638 0.0
C321 C 0.56088 0.57627 0.87567 0.0
C322 C 0.50779 0.53567 0.88624 0.0
C323 C 0.50861 0.53617 0.90728 0.0
C324 C 0.16866 0.2713 0.97908 0.0
C325 C 0.23099 0.27929 0.98713 0.0
O326 O 0.77123 0.74848 0.815 0.0
O327 O 0.7402 0.75838 0.98709 0.0
O328 O 0.27326 0.33657 0.98997 0.0
O329 O 0.23532 0.32372 0.81632 0.0
H330 H 0.77577 0.70621 0.79044 0.0
H331 H 0.83894 0.68777 0.8109 0.0
H332 H 0.87876 0.75666 0.8218 0.0
H333 H 0.8951 0.74605 0.79657 0.0
H334 H 0.68973 0.76331 0.83314 0.0
H335 H 0.7348 0.63661 0.81543 0.0
H336 H 0.53183 0.66152 0.84938 0.0
H337 H 0.58928 0.73589 0.84621 0.0
H338 H 0.59039 0.69859 0.8682 0.0
H339 H 0.68025 0.54258 0.82675 0.0
H340 H 0.59775 0.51755 0.82456 0.0
H341 H 0.63364 0.52909 0.84865 0.0
H342 H 0.24554 0.36184 0.78907 0.0
H343 H 0.12589 0.32578 0.78706 0.0
H344 H 0.17686 0.38658 0.80162 0.0
H345 H 0.12912 0.32043 0.81379 0.0
H346 H 0.31984 0.30805 0.83319 0.0
H347 H 0.27029 0.43397 0.81771 0.0
H348 H 0.48024 0.40947 0.84783 0.0
H349 H 0.4217 0.335 0.84562 0.0
H350 H 0.4263 0.3742 0.86758 0.0
H351 H 0.32773 0.52861 0.82864 0.0
H352 H 0.41023 0.55427 0.82643 0.0
H353 H 0.37584 0.54075 0.8505 0.0
H354 H 0.24694 0.26212 0.97511 0.0
H355 H 0.35214 0.31802 0.96932 0.0
H356 H 0.28979 0.43606 0.98177 0.0
H357 H 0.43846 0.38118 0.92786 0.0
H358 H 0.4382 0.34091 0.94926 0.0
H359 H 0.49446 0.41603 0.94745 0.0
H360 H 0.32749 0.52284 0.96402 0.0
H361 H 0.37235 0.53337 0.94187 0.0
H362 H 0.41141 0.55609 0.96545 0.0
H363 H 0.71777 0.82047 0.98538 0.0
H364 H 0.77584 0.8274 0.95521 0.0
H365 H 0.81747 0.89186 0.96943 0.0
H366 H 0.84336 0.84019 0.96973 0.0
H367 H 0.72769 0.65888 0.98396 0.0
H368 H 0.65733 0.76567 0.96225 0.0
H369 H 0.65041 0.54942 0.94686 0.0
H370 H 0.61078 0.53173 0.97013 0.0
H371 H 0.69495 0.56824 0.96981 0.0
H372 H 0.56738 0.73099 0.94265 0.0
H373 H 0.51753 0.6548 0.94065 0.0
H374 H 0.57682 0.69279 0.92256 0.0
H375 H 0.50466 0.53545 0.82847 0.0
H376 H 0.35831 0.42461 0.87934 0.0
H377 H 0.36055 0.42455 0.91483 0.0
H378 H 0.50955 0.53973 0.96497 0.0
H379 H 0.6572 0.64816 0.91448 0.0
H380 H 0.65681 0.64614 0.87896 0.0
H381 H 0.13495 0.22527 0.97667 0.0
H382 H 0.17626 0.29351 0.9646 0.0
H383 H 0.14741 0.28862 0.98924 0.0
C384 C 0.95686 0.14696 0.12335 0.0
C385 C 0.01029 0.14759 0.11572 0.0
C386 C 0.07838 0.23093 0.13642 0.0
C387 C 0.02426 0.22701 0.14527 0.0
N388 N 0.91644 0.20101 0.13927 0.0
N389 N 0.12262 0.18935 0.11487 0.0
C390 C 0.9646 0.19072 0.13647 0.0
C391 C 0.07127 0.18939 0.1222 0.0
N392 N 0.89839 0.10299 0.1188 0.0
N393 N 0.13613 0.27712 0.14017 0.0
H394 H 0.12083 0.16429 0.10298 0.0
H395 H 0.16714 0.21214 0.12119 0.0
H396 H 0.14362 0.31088 0.14923 0.0
H397 H 0.17643 0.28587 0.13265 0.0
H398 H 0.85815 0.09702 0.12576 0.0
H399 H 0.89058 0.0692 0.10962 0.0
H400 H 0.87357 0.17878 0.13185 0.0
H401 H 0.92208 0.23714 0.14654 0.0
C402 C 0.8882 0.09109 0.42761 0.0
C403 C 0.94355 0.09201 0.43399 0.0
C404 C 0.93491 0.12539 0.46679 0.0
C405 C 0.8826 0.12986 0.45986 0.0
N406 N 0.79285 0.08754 0.43767 0.0
N407 N 0.01414 0.10074 0.46069 0.0
C408 C 0.85407 0.10391 0.44142 0.0
C409 C 0.96494 0.10613 0.45386 0.0
N410 N 0.86947 0.08039 0.40819 0.0
N411 N 0.95615 0.13666 0.48589 0.0
H412 H 0.036 0.08389 0.45219 0.0
H413 H 0.03198 0.11172 0.47512 0.0
H414 H 0.93544 0.1471 0.49722 0.0
H415 H 0.93544 0.1471 0.49722 0.0
H416 H 0.83356 0.08578 0.40229 0.0
H417 H 0.89312 0.07076 0.39759 0.0
H418 H 0.76854 0.06455 0.4251 0.0
H419 H 0.76368 0.08906 0.44837 0.0
C420 C 0.82365 0.84185 0.75528 0.0
C421 C 0.88913 0.88053 0.75666 0.0
C422 C 0.88814 0.84682 0.79039 0.0
C423 C 0.8297 0.79735 0.78648 0.0
N424 N 0.73414 0.75475 0.76697 0.0
N425 N 0.98543 0.916 0.77585 0.0
C426 C 0.79482 0.79711 0.76947 0.0
C427 C 0.92193 0.88267 0.7744 0.0
N428 N 0.78865 0.84976 0.74108 0.0
N429 N 0.91003 0.86101 0.80937 0.0
H430 H 0.01344 0.94041 0.76421 0.0
H431 H 0.01076 0.91442 0.78811 0.0
H432 H 0.88234 0.83943 0.82149 0.0
H433 H 0.95093 0.89877 0.81294 0.0
H434 H 0.74005 0.82612 0.74033 0.0
H435 H 0.80765 0.88429 0.73134 0.0
H436 H 0.70948 0.74731 0.75364 0.0
H437 H 0.7084 0.72652 0.77826 0.0
C438 C 0.98914 0.86315 0.1123 0.0
C439 C 0.051 0.90761 0.10877 0.0
C440 C 0.09078 0.87048 0.13501 0.0
C441 C 0.02802 0.82714 0.13929 0.0
N442 N 0.92229 0.77008 0.12612 0.0
N443 N 0.16183 0.94986 0.11417 0.0
C444 C 0.9786 0.81975 0.12618 0.0
C445 C 0.10219 0.9101 0.11936 0.0
N446 N 0.93983 0.86235 0.10248 0.0
N447 N 0.13979 0.87368 0.14573 0.0
H448 H 0.17174 0.98148 0.10362 0.0
H449 H 0.20183 0.95047 0.11953 0.0
H450 H 0.13713 0.83948 0.15362 0.0
H451 H 0.18408 0.90971 0.14635 0.0
H452 H 0.89343 0.83607 0.10655 0.0
H453 H 0.94493 0.89048 0.09109 0.0
H454 H 0.88794 0.76001 0.11526 0.0
H455 H 0.91143 0.73576 0.13543 0.0
C456 C 0.19912 0.05138 0.44811 0.0
C457 C 0.18853 0.03684 0.42783 0.0
C458 C 0.23957 0.97969 0.43164 0.0
C459 C 0.23747 0.98397 0.4527 0.0
N460 N 0.23395 0.04129 0.48002 0.0
N461 N 0.20035 0.98992 0.39954 0.0
C462 C 0.22388 0.02529 0.46061 0.0
C463 C 0.21067 0.00291 0.41929 0.0
N464 N 0.18329 0.08892 0.45578 0.0
N465 N 0.26939 0.95401 0.4234 0.0
H466 H 0.18208 0.00855 0.38998 0.0
H467 H 0.2068 0.9588 0.39283 0.0
H468 H 0.29149 0.93652 0.43164 0.0
H469 H 0.2777 0.95486 0.40828 0.0
H470 H 0.18878 0.09973 0.47079 0.0
H471 H 0.16592 0.10989 0.447 0.0
H472 H 0.25566 0.02814 0.49044 0.0
H473 H 0.25566 0.02814 0.49044 0.0
C474 C 0.20557 0.21841 0.75988 0.0
C475 C 0.13989 0.18067 0.75889 0.0
C476 C 0.1294 0.22197 0.78963 0.0
C477 C 0.18975 0.26992 0.78694 0.0
N478 N 0.29201 0.30665 0.77265 0.0
N479 N 0.03763 0.14958 0.77276 0.0
C480 C 0.23021 0.26579 0.77308 0.0
C481 C 0.10124 0.18251 0.77391 0.0
N482 N 0.24431 0.20737 0.74884 0.0
N483 N 0.1001 0.21283 0.80738 0.0
H484 H 0.01391 0.122 0.76104 0.0
H485 H 0.00821 0.15415 0.78259 0.0
H486 H 0.12288 0.23745 0.81984 0.0
H487 H 0.05751 0.1763 0.81035 0.0
H488 H 0.29286 0.23027 0.75006 0.0
H489 H 0.22774 0.17132 0.73988 0.0
H490 H 0.32165 0.31089 0.76112 0.0
H491 H 0.31385 0.33674 0.78388 0.0
C492 C 0.90921 0.07539 0.65974 0.0
C493 C 0.91436 0.08004 0.6806 0.0
C494 C 0.87259 0.14501 0.68023 0.0
C495 C 0.86836 0.14161 0.65901 0.0
N496 N 0.85858 0.08387 0.63018 0.0
N497 N 0.88357 0.10376 0.71105 0.0
C498 C 0.87902 0.10063 0.64923 0.0
C499 C 0.89014 0.10972 0.69093 0.0
N500 N 0.93524 0.04869 0.64983 0.0
N501 N 0.86292 0.18348 0.69031 0.0
H502 H 0.89635 0.0783 0.71926 0.0
H503 H 0.85981 0.11911 0.7193 0.0
H504 H 0.84668 0.20864 0.6839 0.0
H505 H 0.87483 0.19329 0.70521 0.0
H506 H 0.94021 0.0506 0.63448 0.0
H507 H 0.95602 0.02809 0.65704 0.0
H508 H 0.86083 0.05074 0.62325 0.0
H509 H 0.83147 0.09658 0.62212 0.0
C510 C 0.87696 0.86091 0.03086 0.0
C511 C 0.88329 0.91438 0.03566 0.0
C512 C 0.79203 0.8912 0.01466 0.0
C513 C 0.79484 0.84428 0.00641 0.0
N514 N 0.84646 0.78957 0.00509 0.0
N515 N 0.85392 0.98558 0.02828 0.0
C516 C 0.83921 0.83039 0.01428 0.0
C517 C 0.84258 0.93097 0.02664 0.0
N518 N 0.90549 0.83863 0.04236 0.0
N519 N 0.74125 0.89785 0.01163 0.0
H520 H 0.89269 0.01783 0.03567 0.0
H521 H 0.82867 0.00049 0.02022 0.0
H522 H 0.70001 0.8677 0.00474 0.0
H523 H 0.73653 0.92956 0.01869 0.0
H524 H 0.89717 0.79723 0.04063 0.0
H525 H 0.93147 0.8589 0.05508 0.0
H526 H 0.88128 0.77988 0.00871 0.0
H527 H 0.88128 0.77988 0.00871 0.0
C528 C 0.99066 0.84246 0.36972 0.0
C529 C 0.96957 0.88075 0.36396 0.0
C530 C 0.93648 0.83342 0.33175 0.0
C531 C 0.94382 0.78784 0.3391 0.0
N532 N 0.00357 0.76198 0.36101 0.0
N533 N 0.91834 0.91051 0.3399 0.0
C534 C 0.97839 0.79598 0.35703 0.0
C535 C 0.94191 0.87601 0.34501 0.0
N536 N 0.02311 0.85117 0.3872 0.0
N537 N 0.92934 0.83858 0.31188 0.0
H538 H 0.92033 0.9418 0.34929 0.0
H539 H 0.89169 0.90443 0.32707 0.0
H540 H 0.93419 0.81282 0.3015 0.0
H541 H 0.92841 0.87339 0.3056 0.0
H542 H 0.03352 0.82197 0.39367 0.0
H543 H 0.03972 0.88818 0.39562 0.0
H544 H 0.03148 0.76624 0.37327 0.0
H545 H 0.00181 0.73221 0.35094 0.0
C546 C 0.19713 0.99541 0.69442 0.0
C547 C 0.1388 0.98218 0.68581 0.0
C548 C 0.14892 0.92069 0.66145 0.0
C549 C 0.20815 0.93442 0.67002 0.0
N550 N 0.29827 0.00595 0.68849 0.0
N551 N 0.07009 0.94839 0.65727 0.0
C552 C 0.23546 0.97845 0.68455 0.0
C553 C 0.11814 0.9499 0.66809 0.0
N554 N 0.21508 0.02171 0.71247 0.0
N555 N 0.12054 0.87884 0.64746 0.0
H556 H 0.04761 0.97054 0.66144 0.0
H557 H 0.05723 0.93054 0.64316 0.0
H558 H 0.14123 0.85788 0.64094 0.0
H559 H 0.074 0.86218 0.64309 0.0
H560 H 0.25425 0.02654 0.72023 0.0
H561 H 0.18791 0.03362 0.72061 0.0
H562 H 0.32023 0.04094 0.69798 0.0
H563 H 0.32983 1.00011 0.68019 0.0
C564 C 0.17241 0.21597 0.03913 0.0
C565 C 0.16583 0.16151 0.03623 0.0
C566 C 0.22979 0.19764 0.00654 0.0
C567 C 0.22147 0.24591 0.00649 0.0
N568 N 0.19489 0.30592 0.02647 0.0
N569 N 0.18523 0.09891 0.01582 0.0
C570 C 0.19661 0.25697 0.02382 0.0
C571 C 0.19461 0.15202 0.01978 0.0
N572 N 0.15399 0.2285 0.05649 0.0
N573 N 0.27308 0.19617 0.99458 0.0
H574 H 0.15868 0.06342 0.02467 0.0
H575 H 0.19946 0.08911 0.00267 0.0
H576 H 0.30473 0.23129 0.98636 0.0
H577 H 0.28384 0.16359 0.99519 0.0
H578 H 0.1569 0.26769 0.05909 0.0
H579 H 0.139 0.20081 0.0686 0.0
H580 H 0.21225 0.34005 0.0166 0.0
H581 H 0.21225 0.34005 0.0166 0.0
C582 C 0.14288 0.23819 0.33724 0.0
C583 C 0.07887 0.17196 0.34721 0.0
C584 C 0.98208 0.17325 0.31626 0.0
C585 C 0.04412 0.24747 0.31075 0.0
N586 N 0.17364 0.32372 0.30902 0.0
N587 N 0.95336 0.08874 0.34361 0.0
C588 C 0.12813 0.27527 0.31717 0.0
C589 C -0.00016 0.13841 0.33636 0.0
N590 N 0.20166 0.25903 0.34442 0.0
N591 N 0.92472 0.15086 0.30783 0.0
H592 H 0.95999 0.06798 0.3556 0.0
H593 H 0.90836 0.07012 0.33757 0.0
H594 H 0.91598 0.17426 0.29721 0.0
H595 H 0.88877 0.11027 0.31153 0.0
H596 H 0.23855 0.29679 0.33892 0.0
H597 H 0.2119 0.23721 0.35524 0.0
H598 H 0.22036 0.34057 0.31322 0.0
H599 H 0.16223 0.3448 0.29819 0.0
loop_
_geom_bond_atom_site_label_1
_geom_bond_atom_site_label_2
_geom_bond_distance
_geom_bond_site_symmetry_2
_ccdc_geom_bond_type
O0 Cd1 2.223 1_455 S
O0 C8 1.315 . S
Cd1 O0 2.223 1_655 S
Cd1 O4 2.297 . S
Cd1 O5 2.439 1_655 S
Cd1 O11 2.240 1_545 S
Cd2 O3 2.240 1_565 S
Cd2 O10 2.223 . S
Cd2 O12 2.297 . S
Cd2 O13 2.439 . S
O3 Cd2 2.240 1_545 S
O3 C8 1.279 . S
O4 Cd1 2.297 . S
O4 C6 1.247 1_655 S
O5 Cd1 2.439 1_455 S
O5 C6 1.208 . S
C6 O4 1.247 1_455 S
C6 O5 1.208 . S
C7 O12 1.247 . S
C7 O13 1.208 . S
C8 O0 1.315 . S
C8 O3 1.279 . S
C9 O10 1.315 1_655 S
C9 O11 1.279 . S
O10 Cd2 2.223 . S
O10 C9 1.315 1_455 S
O11 Cd1 2.240 1_565 S
O11 C9 1.279 . S
O12 Cd2 2.297 . S
O12 C7 1.247 . S
O13 Cd2 2.439 . S
O13 C7 1.208 . S
O14 Cd15 2.223 . S
O14 C22 1.315 1_455 S
Cd15 O14 2.223 . S
Cd15 O18 2.297 . S
Cd15 O19 2.439 . S
Cd15 O25 2.240 . S
Cd16 O17 2.240 1_565 S
Cd16 O24 2.223 1_655 S
Cd16 O26 2.297 1_655 S
Cd16 O27 2.439 1_655 S
O17 Cd16 2.240 1_545 S
O17 C22 1.279 . S
O18 Cd15 2.297 . S
O18 C20 1.247 . S
O19 Cd15 2.439 . S
O19 C20 1.208 . S
C20 O18 1.247 . S
C20 O19 1.208 . S
C21 O26 1.247 . S
C21 O27 1.208 . S
C22 O14 1.315 1_655 S
C22 O17 1.279 . S
C23 O24 1.315 1_545 S
C23 O25 1.279 . S
O24 Cd16 2.223 1_455 S
O24 C23 1.315 1_565 S
O25 Cd15 2.240 . S
O25 C23 1.279 . S
O26 Cd16 2.297 1_455 S
O26 C21 1.247 . S
O27 Cd16 2.439 1_455 S
O27 C21 1.208 . S
O28 Cd29 2.223 . S
O28 C36 1.315 1_565 S
Cd29 O28 2.223 . S
Cd29 O32 2.297 . S
Cd29 O33 2.439 . S
Cd29 O39 2.240 1_665 S
Cd30 O31 2.240 1_455 S
Cd30 O38 2.223 . S
Cd30 O40 2.297 . S
Cd30 O41 2.439 . S
O31 Cd30 2.240 1_655 S
O31 C36 1.279 . S
O32 Cd29 2.297 . S
O32 C34 1.247 . S
O33 Cd29 2.439 . S
O33 C34 1.208 . S
C34 O32 1.247 . S
C34 O33 1.208 . S
C35 O40 1.247 . S
C35 O41 1.208 . S
C36 O28 1.315 1_545 S
C36 O31 1.279 . S
C37 O38 1.315 . S
C37 O39 1.279 . S
O38 Cd30 2.223 . S
O38 C37 1.315 . S
O39 Cd29 2.240 1_445 S
O39 C37 1.279 . S
O40 Cd30 2.297 . S
O40 C35 1.247 . S
O41 Cd30 2.439 . S
O41 C35 1.208 . S
C42 C43 1.560 . S
C42 H103 0.959 . S
C42 H104 0.959 . S
C42 H105 0.960 . S
C43 C42 1.560 . S
C43 O98 1.426 . S
C43 H102 0.980 1_655 S
C44 C45 1.407 1_655 S
C44 C49 1.418 . S
C44 O98 1.334 . S
C45 C44 1.407 1_455 S
C45 C46 1.360 . S
C45 H106 0.929 . S
C46 C45 1.360 . S
C46 C47 1.401 . S
C46 C50 1.527 . S
C47 C46 1.401 . S
C47 C48 1.405 1_455 S
C47 C80 1.587 . S
C48 C47 1.405 1_655 S
C48 C49 1.332 . S
C48 C51 1.496 . S
C49 C44 1.418 . S
C49 C48 1.332 . S
C49 H107 0.929 . S
C50 C46 1.527 . S
C50 H108 0.959 . S
C50 H109 0.961 . S
C50 H110 0.961 . S
C51 C48 1.496 . S
C51 H111 0.960 . S
C51 H112 0.960 . S
C51 H113 0.961 . S
C52 C53 1.517 . S
C52 H115 0.961 . S
C52 H116 0.960 . S
C52 H117 0.959 . S
C53 C52 1.517 . S
C53 O101 1.468 . S
C53 H114 0.980 . S
C54 C55 1.349 . S
C54 C59 1.367 . S
C54 O101 1.408 . S
C55 C54 1.349 . S
C55 C56 1.407 . S
C55 H118 0.930 . S
C56 C55 1.407 . S
C56 C57 1.449 . S
C56 C60 1.535 1_455 S
C57 C56 1.449 . S
C57 C58 1.384 . S
C57 C82 1.553 . S
C58 C57 1.384 . S
C58 C59 1.364 . S
C58 C61 1.450 . S
C59 C54 1.367 . S
C59 C58 1.364 . S
C59 H119 0.931 . S
C60 C56 1.535 1_655 S
C60 H120 0.959 . S
C60 H121 0.961 . S
C60 H122 0.959 . S
C61 C58 1.450 . S
C61 H123 0.960 . S
C61 H124 0.960 . S
C61 H125 0.960 . S
C62 C63 1.309 . S
C62 C67 1.304 . S
C62 O100 1.435 . S
C63 C62 1.309 . S
C63 C64 1.476 . S
C63 H127 0.930 1_455 S
C64 C63 1.476 . S
C64 C65 1.400 . S
C64 C68 1.567 1_455 S
C65 C64 1.400 . S
C65 C66 1.373 . S
C65 C87 1.432 . S
C66 C65 1.373 . S
C66 C67 1.339 . S
C66 C69 1.530 . S
C67 C62 1.304 . S
C67 C66 1.339 . S
C67 H128 0.930 . S
C68 C64 1.567 1_655 S
C68 H129 0.961 . S
C68 H130 0.960 . S
C68 H131 0.958 . S
C69 C66 1.530 . S
C69 H132 0.961 . S
C69 H133 0.960 . S
C69 H134 0.960 . S
C70 C71 1.530 1_655 S
C70 H136 0.961 . S
C70 H137 0.961 . S
C70 H138 0.959 . S
C71 C70 1.530 1_455 S
C71 O99 1.412 1_455 S
C71 H135 0.980 . S
C72 C73 1.288 . S
C72 C77 1.377 1_655 S
C72 O99 1.393 . S
C73 C72 1.288 . S
C73 C74 1.369 . S
C73 H139 0.932 . S
C74 C73 1.369 . S
C74 C75 1.398 1_655 S
C74 C78 1.527 . S
C75 C74 1.398 1_455 S
C75 C76 1.380 . S
C75 C89 1.497 . S
C76 C75 1.380 . S
C76 C77 1.383 . S
C76 C79 1.603 . S
C77 C72 1.377 1_455 S
C77 C76 1.383 . S
C77 H140 0.929 . S
C78 C74 1.527 . S
C78 H141 0.961 . S
C78 H142 0.959 . S
C78 H143 0.959 . S
C79 C76 1.603 . S
C79 H144 0.960 . S
C79 H145 0.962 . S
C79 H146 0.961 . S
C80 C47 1.587 . S
C80 C81 1.360 . S
C80 C93 1.412 . S
C81 C80 1.360 . S
C81 C82 1.365 . S
C81 H147 0.929 . S
C82 C57 1.553 . S
C82 C81 1.365 . S
C82 C83 1.404 . S
C83 C82 1.404 . S
C83 C84 1.395 . S
C83 C94 1.451 . S
C84 C83 1.395 . S
C84 C85 1.322 . S
C84 H148 0.930 . S
C85 C84 1.322 . S
C85 C86 1.459 . S
C85 H149 0.929 . S
C86 C85 1.459 . S
C86 C87 1.445 . S
C86 C95 1.395 . S
C87 C65 1.432 . S
C87 C86 1.445 . S
C87 C88 1.370 . S
C88 C87 1.370 . S
C88 C89 1.438 . S
C88 H150 0.930 . S
C89 C75 1.497 . S
C89 C88 1.438 . S
C89 C90 1.360 . S
C90 C89 1.360 . S
C90 C91 1.401 . S
C90 C95 1.446 . S
C91 C90 1.401 . S
C91 C92 1.347 . S
C91 H151 0.929 . S
C92 C91 1.347 . S
C92 C93 1.455 . S
C92 H152 0.930 . S
C93 C80 1.412 . S
C93 C92 1.455 . S
C93 C94 1.331 . S
C94 C83 1.451 . S
C94 C93 1.331 . S
C94 C95 1.497 . S
C95 C86 1.395 . S
C95 C90 1.446 . S
C95 C94 1.497 . S
C96 C97 1.582 . S
C96 H153 0.962 . S
C96 H154 0.959 . S
C96 H155 0.958 . S
C97 C96 1.582 . S
C97 O100 1.458 . S
C97 H126 0.980 . S
O98 C43 1.426 . S
O98 C44 1.334 . S
O99 C71 1.412 1_655 S
O99 C72 1.393 . S
O100 C62 1.435 . S
O100 C97 1.458 . S
O101 C53 1.468 . S
O101 C54 1.408 . S
H102 C43 0.980 1_455 S
H103 C42 0.959 . S
H104 C42 0.959 . S
H105 C42 0.960 . S
H106 C45 0.929 . S
H107 C49 0.929 . S
H108 C50 0.959 . S
H109 C50 0.961 . S
H110 C50 0.961 . S
H111 C51 0.960 . S
H112 C51 0.960 . S
H113 C51 0.961 . S
H114 C53 0.980 . S
H115 C52 0.961 . S
H116 C52 0.960 . S
H117 C52 0.959 . S
H118 C55 0.930 . S
H119 C59 0.931 . S
H120 C60 0.959 . S
H121 C60 0.961 . S
H122 C60 0.959 . S
H123 C61 0.960 . S
H124 C61 0.960 . S
H125 C61 0.960 . S
H126 C97 0.980 . S
H127 C63 0.930 1_655 S
H128 C67 0.930 . S
H129 C68 0.961 . S
H130 C68 0.960 . S
H131 C68 0.958 . S
H132 C69 0.961 . S
H133 C69 0.960 . S
H134 C69 0.960 . S
H135 C71 0.980 . S
H136 C70 0.961 . S
H137 C70 0.961 . S
H138 C70 0.959 . S
H139 C73 0.932 . S
H140 C77 0.929 . S
H141 C78 0.961 . S
H142 C78 0.959 . S
H143 C78 0.959 . S
H144 C79 0.960 . S
H145 C79 0.962 . S
H146 C79 0.961 . S
H147 C81 0.929 . S
H148 C84 0.930 . S
H149 C85 0.929 . S
H150 C88 0.930 . S
H151 C91 0.929 . S
H152 C92 0.930 . S
H153 C96 0.962 . S
H154 C96 0.959 . S
H155 C96 0.958 . S
C156 C157 1.560 1_565 S
C156 H217 0.959 . S
C156 H218 0.959 . S
C156 H219 0.960 . S
C157 C156 1.560 1_545 S
C157 O212 1.426 1_545 S
C157 H216 0.980 . S
C158 C159 1.407 . S
C158 C163 1.418 1_545 S
C158 O212 1.334 1_545 S
C159 C158 1.407 . S
C159 C160 1.360 . S
C159 H220 0.929 . S
C160 C159 1.360 . S
C160 C161 1.401 . S
C160 C164 1.527 . S
C161 C160 1.401 . S
C161 C162 1.405 1_545 S
C161 C194 1.587 . S
C162 C161 1.405 1_565 S
C162 C163 1.332 . S
C162 C165 1.496 . S
C163 C158 1.418 1_565 S
C163 C162 1.332 . S
C163 H221 0.929 . S
C164 C160 1.527 . S
C164 H222 0.959 . S
C164 H223 0.961 . S
C164 H224 0.961 . S
C165 C162 1.496 . S
C165 H225 0.960 . S
C165 H226 0.960 . S
C165 H227 0.961 . S
C166 C167 1.517 . S
C166 H229 0.961 . S
C166 H230 0.960 . S
C166 H231 0.959 . S
C167 C166 1.517 . S
C167 O215 1.468 . S
C167 H228 0.980 . S
C168 C169 1.349 . S
C168 C173 1.367 . S
C168 O215 1.408 . S
C169 C168 1.349 . S
C169 C170 1.407 . S
C169 H232 0.930 . S
C170 C169 1.407 . S
C170 C171 1.449 . S
C170 C174 1.535 1_545 S
C171 C170 1.449 . S
C171 C172 1.384 . S
C171 C196 1.553 . S
C172 C171 1.384 . S
C172 C173 1.364 . S
C172 C175 1.450 . S
C173 C168 1.367 . S
C173 C172 1.364 . S
C173 H233 0.931 . S
C174 C170 1.535 1_565 S
C174 H234 0.959 . S
C174 H235 0.961 . S
C174 H236 0.959 . S
C175 C172 1.450 . S
C175 H237 0.960 . S
C175 H238 0.960 . S
C175 H239 0.960 . S
C176 C177 1.309 . S
C176 C181 1.304 . S
C176 O214 1.435 . S
C177 C176 1.309 . S
C177 C178 1.476 . S
C177 H241 0.930 . S
C178 C177 1.476 . S
C178 C179 1.400 . S
C178 C182 1.567 1_545 S
C179 C178 1.400 . S
C179 C180 1.373 . S
C179 C201 1.432 . S
C180 C179 1.373 . S
C180 C181 1.339 . S
C180 C183 1.530 . S
C181 C176 1.304 . S
C181 C180 1.339 . S
C181 H242 0.930 . S
C182 C178 1.567 1_565 S
C182 H243 0.961 . S
C182 H244 0.960 . S
C182 H245 0.958 . S
C183 C180 1.530 . S
C183 H246 0.961 . S
C183 H247 0.960 . S
C183 H248 0.960 . S
C184 C185 1.530 1_565 S
C184 H250 0.961 1_565 S
C184 H251 0.961 . S
C184 H252 0.959 . S
C185 C184 1.530 1_545 S
C185 O213 1.412 1_545 S
C185 H249 0.980 . S
C186 C187 1.288 1_545 S
C186 C191 1.377 . S
C186 O213 1.393 1_545 S
C187 C186 1.288 1_565 S
C187 C188 1.369 . S
C187 H253 0.932 . S
C188 C187 1.369 . S
C188 C189 1.398 1_565 S
C188 C192 1.527 . S
C189 C188 1.398 1_545 S
C189 C190 1.380 . S
C189 C203 1.497 . S
C190 C189 1.380 . S
C190 C191 1.383 . S
C190 C193 1.603 . S
C191 C186 1.377 . S
C191 C190 1.383 . S
C191 H254 0.929 . S
C192 C188 1.527 . S
C192 H255 0.961 . S
C192 H256 0.959 . S
C192 H257 0.959 . S
C193 C190 1.603 . S
C193 H258 0.960 . S
C193 H259 0.962 . S
C193 H260 0.961 . S
C194 C161 1.587 . S
C194 C195 1.360 . S
C194 C207 1.412 . S
C195 C194 1.360 . S
C195 C196 1.365 . S
C195 H261 0.929 . S
C196 C171 1.553 . S
C196 C195 1.365 . S
C196 C197 1.404 . S
C197 C196 1.404 . S
C197 C198 1.395 . S
C197 C208 1.451 . S
C198 C197 1.395 . S
C198 C199 1.322 . S
C198 H262 0.930 . S
C199 C198 1.322 . S
C199 C200 1.459 . S
C199 H263 0.929 . S
C200 C199 1.459 . S
C200 C201 1.445 . S
C200 C209 1.395 . S
C201 C179 1.432 . S
C201 C200 1.445 . S
C201 C202 1.370 . S
C202 C201 1.370 . S
C202 C203 1.438 . S
C202 H264 0.930 . S
C203 C189 1.497 . S
C203 C202 1.438 . S
C203 C204 1.360 . S
C204 C203 1.360 . S
C204 C205 1.401 . S
C204 C209 1.446 . S
C205 C204 1.401 . S
C205 C206 1.347 . S
C205 H265 0.929 . S
C206 C205 1.347 . S
C206 C207 1.455 . S
C206 H266 0.930 . S
C207 C194 1.412 . S
C207 C206 1.455 . S
C207 C208 1.331 . S
C208 C197 1.451 . S
C208 C207 1.331 . S
C208 C209 1.497 . S
C209 C200 1.395 . S
C209 C204 1.446 . S
C209 C208 1.497 . S
C210 C211 1.582 . S
C210 H267 0.962 . S
C210 H268 0.959 . S
C210 H269 0.958 . S
C211 C210 1.582 . S
C211 O214 1.458 . S
C211 H240 0.980 . S
O212 C157 1.426 1_565 S
O212 C158 1.334 1_565 S
O213 C185 1.412 1_565 S
O213 C186 1.393 1_565 S
O214 C176 1.435 . S
O214 C211 1.458 . S
O215 C167 1.468 . S
O215 C168 1.408 . S
H216 C157 0.980 . S
H217 C156 0.959 . S
H218 C156 0.959 . S
H219 C156 0.960 . S
H220 C159 0.929 . S
H221 C163 0.929 . S
H222 C164 0.959 . S
H223 C164 0.961 . S
H224 C164 0.961 . S
H225 C165 0.960 . S
H226 C165 0.960 . S
H227 C165 0.961 . S
H228 C167 0.980 . S
H229 C166 0.961 . S
H230 C166 0.960 . S
H231 C166 0.959 . S
H232 C169 0.930 . S
H233 C173 0.931 . S
H234 C174 0.959 . S
H235 C174 0.961 . S
H236 C174 0.959 . S
H237 C175 0.960 . S
H238 C175 0.960 . S
H239 C175 0.960 . S
H240 C211 0.980 . S
H241 C177 0.930 . S
H242 C181 0.930 . S
H243 C182 0.961 . S
H244 C182 0.960 . S
H245 C182 0.958 . S
H246 C183 0.961 . S
H247 C183 0.960 . S
H248 C183 0.960 . S
H249 C185 0.980 . S
H250 C184 0.961 1_545 S
H251 C184 0.961 . S
H252 C184 0.959 . S
H253 C187 0.932 . S
H254 C191 0.929 . S
H255 C192 0.961 . S
H256 C192 0.959 . S
H257 C192 0.959 . S
H258 C193 0.960 . S
H259 C193 0.962 . S
H260 C193 0.961 . S
H261 C195 0.929 . S
H262 C198 0.930 . S
H263 C199 0.929 . S
H264 C202 0.930 . S
H265 C205 0.929 . S
H266 C206 0.930 . S
H267 C210 0.962 . S
H268 C210 0.959 . S
H269 C210 0.958 . S
C270 C271 1.560 . S
C270 H331 0.959 . S
C270 H332 0.959 . S
C270 H333 0.960 . S
C271 C270 1.560 . S
C271 O326 1.426 . S
C271 H330 0.980 . S
C272 C273 1.407 . S
C272 C277 1.418 . S
C272 O326 1.334 . S
C273 C272 1.407 . S
C273 C274 1.360 . S
C273 H334 0.929 . S
C274 C273 1.360 . S
C274 C275 1.401 . S
C274 C278 1.527 . S
C275 C274 1.401 . S
C275 C276 1.405 . S
C275 C308 1.587 . S
C276 C275 1.405 . S
C276 C277 1.332 . S
C276 C279 1.496 . S
C277 C272 1.418 . S
C277 C276 1.332 . S
C277 H335 0.929 . S
C278 C274 1.527 . S
C278 H336 0.959 . S
C278 H337 0.961 . S
C278 H338 0.961 . S
C279 C276 1.496 . S
C279 H339 0.960 . S
C279 H340 0.960 . S
C279 H341 0.961 . S
C280 C281 1.517 . S
C280 H343 0.961 . S
C280 H344 0.960 . S
C280 H345 0.959 . S
C281 C280 1.517 . S
C281 O329 1.468 . S
C281 H342 0.980 . S
C282 C283 1.349 . S
C282 C287 1.367 . S
C282 O329 1.408 . S
C283 C282 1.349 . S
C283 C284 1.407 . S
C283 H346 0.930 . S
C284 C283 1.407 . S
C284 C285 1.449 . S
C284 C288 1.535 . S
C285 C284 1.449 . S
C285 C286 1.384 . S
C285 C310 1.553 . S
C286 C285 1.384 . S
C286 C287 1.364 . S
C286 C289 1.450 . S
C287 C282 1.367 . S
C287 C286 1.364 . S
C287 H347 0.931 . S
C288 C284 1.535 . S
C288 H348 0.959 . S
C288 H349 0.961 . S
C288 H350 0.959 . S
C289 C286 1.450 . S
C289 H351 0.960 . S
C289 H352 0.960 . S
C289 H353 0.960 . S
C290 C291 1.309 . S
C290 C295 1.304 . S
C290 O328 1.435 . S
C291 C290 1.309 . S
C291 C292 1.476 . S
C291 H355 0.930 . S
C292 C291 1.476 . S
C292 C293 1.400 . S
C292 C296 1.567 . S
C293 C292 1.400 . S
C293 C294 1.373 . S
C293 C315 1.432 . S
C294 C293 1.373 . S
C294 C295 1.339 . S
C294 C297 1.530 . S
C295 C290 1.304 . S
C295 C294 1.339 . S
C295 H356 0.930 . S
C296 C292 1.567 . S
C296 H357 0.961 . S
C296 H358 0.960 . S
C296 H359 0.958 . S
C297 C294 1.530 . S
C297 H360 0.961 . S
C297 H361 0.960 . S
C297 H362 0.960 . S
C298 C299 1.530 . S
C298 H364 0.961 . S
C298 H365 0.961 . S
C298 H366 0.959 1_556 S
C299 C298 1.530 . S
C299 O327 1.412 . S
C299 H363 0.980 . S
C300 C301 1.288 . S
C300 C305 1.377 . S
C300 O327 1.393 . S
C301 C300 1.288 . S
C301 C302 1.369 . S
C301 H367 0.932 . S
C302 C301 1.369 . S
C302 C303 1.398 . S
C302 C306 1.527 . S
C303 C302 1.398 . S
C303 C304 1.380 . S
C303 C317 1.497 . S
C304 C303 1.380 . S
C304 C305 1.383 . S
C304 C307 1.603 . S
C305 C300 1.377 . S
C305 C304 1.383 . S
C305 H368 0.929 . S
C306 C302 1.527 . S
C306 H369 0.961 . S
C306 H370 0.959 . S
C306 H371 0.959 . S
C307 C304 1.603 . S
C307 H372 0.960 . S
C307 H373 0.962 . S
C307 H374 0.961 . S
C308 C275 1.587 . S
C308 C309 1.360 . S
C308 C321 1.412 . S
C309 C308 1.360 . S
C309 C310 1.365 . S
C309 H375 0.929 . S
C310 C285 1.553 . S
C310 C309 1.365 . S
C310 C311 1.404 . S
C311 C310 1.404 . S
C311 C312 1.395 . S
C311 C322 1.451 . S
C312 C311 1.395 . S
C312 C313 1.322 . S
C312 H376 0.930 . S
C313 C312 1.322 . S
C313 C314 1.459 . S
C313 H377 0.929 . S
C314 C313 1.459 . S
C314 C315 1.445 . S
C314 C323 1.395 . S
C315 C293 1.432 . S
C315 C314 1.445 . S
C315 C316 1.370 . S
C316 C315 1.370 . S
C316 C317 1.438 . S
C316 H378 0.930 . S
C317 C303 1.497 . S
C317 C316 1.438 . S
C317 C318 1.360 . S
C318 C317 1.360 . S
C318 C319 1.401 . S
C318 C323 1.446 . S
C319 C318 1.401 . S
C319 C320 1.347 . S
C319 H379 0.929 . S
C320 C319 1.347 . S
C320 C321 1.455 . S
C320 H380 0.930 . S
C321 C308 1.412 . S
C321 C320 1.455 . S
C321 C322 1.331 . S
C322 C311 1.451 . S
C322 C321 1.331 . S
C322 C323 1.497 . S
C323 C314 1.395 . S
C323 C318 1.446 . S
C323 C322 1.497 . S
C324 C325 1.582 . S
C324 H381 0.962 1_556 S
C324 H382 0.959 . S
C324 H383 0.958 . S
C325 C324 1.582 . S
C325 O328 1.458 . S
C325 H354 0.980 . S
O326 C271 1.426 . S
O326 C272 1.334 . S
O327 C299 1.412 . S
O327 C300 1.393 . S
O328 C290 1.435 . S
O328 C325 1.458 . S
O329 C281 1.468 . S
O329 C282 1.408 . S
H330 C271 0.980 . S
H331 C270 0.959 . S
H332 C270 0.959 . S
H333 C270 0.960 . S
H334 C273 0.929 . S
H335 C277 0.929 . S
H336 C278 0.959 . S
H337 C278 0.961 . S
H338 C278 0.961 . S
H339 C279 0.960 . S
H340 C279 0.960 . S
H341 C279 0.961 . S
H342 C281 0.980 . S
H343 C280 0.961 . S
H344 C280 0.960 . S
H345 C280 0.959 . S
H346 C283 0.930 . S
H347 C287 0.931 . S
H348 C288 0.959 . S
H349 C288 0.961 . S
H350 C288 0.959 . S
H351 C289 0.960 . S
H352 C289 0.960 . S
H353 C289 0.960 . S
H354 C325 0.980 . S
H355 C291 0.930 . S
H356 C295 0.930 . S
H357 C296 0.961 . S
H358 C296 0.960 . S
H359 C296 0.958 . S
H360 C297 0.961 . S
H361 C297 0.960 . S
H362 C297 0.960 . S
H363 C299 0.980 . S
H364 C298 0.961 . S
H365 C298 0.961 . S
H366 C298 0.959 1_554 S
H367 C301 0.932 . S
H368 C305 0.929 . S
H369 C306 0.961 . S
H370 C306 0.959 . S
H371 C306 0.959 . S
H372 C307 0.960 . S
H373 C307 0.962 . S
H374 C307 0.961 . S
H375 C309 0.929 . S
H376 C312 0.930 . S
H377 C313 0.929 . S
H378 C316 0.930 . S
H379 C319 0.929 . S
H380 C320 0.930 . S
H381 C324 0.962 1_554 S
H382 C324 0.959 . S
H383 C324 0.958 . S
C384 C385 1.363 1_655 S
C384 C390 1.379 . S
C384 N392 1.356 . S
C385 C384 1.363 1_455 S
C385 C391 1.363 . S
C386 C387 1.363 . S
C386 C391 1.379 . S
C386 N393 1.356 . S
C387 C386 1.363 . S
C387 C390 1.363 1_455 S
N388 C390 1.356 . S
N388 H400 0.984 . S
N388 H401 0.985 . S
N389 C391 1.356 . S
N389 H394 0.984 . S
N389 H395 0.985 . S
C390 C384 1.379 . S
C390 C387 1.363 1_655 S
C390 N388 1.356 . S
C391 C385 1.363 . S
C391 C386 1.379 . S
C391 N389 1.356 . S
N392 C384 1.356 . S
N392 H398 0.984 . S
N392 H399 0.984 . S
N393 C386 1.356 . S
N393 H396 0.984 . S
N393 H397 0.985 . S
H394 N389 0.984 . S
H395 N389 0.985 . S
H396 N393 0.984 . S
H397 N393 0.985 . S
H398 N392 0.984 . S
H399 N392 0.984 . S
H400 N388 0.984 . S
H401 N388 0.985 . S
C402 C403 1.363 . S
C402 C408 1.379 . S
C402 N410 1.356 1_545 S
C403 C402 1.363 . S
C403 C409 1.363 . S
C404 C405 1.363 . S
C404 C409 1.379 . S
C404 N411 1.356 . S
C405 C404 1.363 . S
C405 C408 1.363 . S
N406 C408 1.356 1_565 S
N406 H418 0.984 . S
N406 H419 0.985 . S
N407 C409 1.356 . S
N407 H412 0.984 1_655 S
N407 H413 0.985 1_655 S
C408 C402 1.379 . S
C408 C405 1.363 . S
C408 N406 1.356 1_545 S
C409 C403 1.363 . S
C409 C404 1.379 . S
C409 N407 1.356 . S
N410 C402 1.356 1_565 S
N410 H416 0.984 . S
N410 H417 0.984 . S
N411 C404 1.356 . S
N411 H414 0.984 . S
N411 H415 0.985 . S
H412 N407 0.984 1_455 S
H413 N407 0.985 1_455 S
H414 N411 0.984 . S
H415 N411 0.985 . S
H416 N410 0.984 . S
H417 N410 0.984 . S
H418 N406 0.984 . S
H419 N406 0.985 . S
C420 C421 1.363 . S
C420 C426 1.379 . S
C420 N428 1.356 . S
C421 C420 1.363 . S
C421 C427 1.363 . S
C422 C423 1.363 . S
C422 C427 1.379 . S
C422 N429 1.356 . S
C423 C422 1.363 . S
C423 C426 1.363 . S
N424 C426 1.356 . S
N424 H436 0.984 . S
N424 H437 0.985 . S
N425 C427 1.356 . S
N425 H430 0.984 . S
N425 H431 0.985 . S
C426 C420 1.379 . S
C426 C423 1.363 . S
C426 N424 1.356 . S
C427 C421 1.363 . S
C427 C422 1.379 . S
C427 N425 1.356 . S
N428 C420 1.356 . S
N428 H434 0.984 . S
N428 H435 0.984 . S
N429 C422 1.356 . S
N429 H432 0.984 . S
N429 H433 0.985 . S
H430 N425 0.984 . S
H431 N425 0.985 . S
H432 N429 0.984 . S
H433 N429 0.985 . S
H434 N428 0.984 . S
H435 N428 0.984 . S
H436 N424 0.984 . S
H437 N424 0.985 . S
C438 C439 1.366 1_655 S
C438 C444 1.372 1_655 S
C438 N446 1.362 . S
C439 C438 1.366 1_455 S
C439 C445 1.363 . S
C440 C441 1.363 . S
C440 C445 1.379 . S
C440 N447 1.356 . S
C441 C440 1.363 . S
C441 C444 1.363 . S
N442 C444 1.356 1_655 S
N442 H454 0.984 . S
N442 H455 0.985 . S
N443 C445 1.356 . S
N443 H448 0.984 . S
N443 H449 0.985 . S
C444 C438 1.372 1_455 S
C444 C441 1.363 . S
C444 N442 1.356 1_455 S
C445 C439 1.363 . S
C445 C440 1.379 . S
C445 N443 1.356 . S
N446 C438 1.362 . S
N446 H452 0.984 . S
N446 H453 0.984 . S
N447 C440 1.356 . S
N447 H450 0.984 . S
N447 H451 0.985 . S
H448 N443 0.984 . S
H449 N443 0.985 . S
H450 N447 0.984 . S
H451 N447 0.985 . S
H452 N446 0.984 . S
H453 N446 0.984 . S
H454 N442 0.984 . S
H455 N442 0.985 . S
C456 C457 1.363 . S
C456 C462 1.379 . S
C456 N464 1.356 1_545 S
C457 C456 1.363 . S
C457 C463 1.363 . S
C458 C459 1.363 . S
C458 C463 1.379 . S
C458 N465 1.356 . S
C459 C458 1.363 . S
C459 C462 1.363 . S
N460 C462 1.356 1_565 S
N460 H472 0.984 . S
N460 H473 0.985 . S
N461 C463 1.356 . S
N461 H466 0.984 . S
N461 H467 0.985 . S
C462 C456 1.379 . S
C462 C459 1.363 . S
C462 N460 1.356 1_545 S
C463 C457 1.363 . S
C463 C458 1.379 . S
C463 N461 1.356 . S
N464 C456 1.356 1_565 S
N464 H470 0.984 . S
N464 H471 0.984 . S
N465 C458 1.356 . S
N465 H468 0.984 . S
N465 H469 0.985 . S
H466 N461 0.984 . S
H467 N461 0.985 . S
H468 N465 0.984 . S
H469 N465 0.985 . S
H470 N464 0.984 . S
H471 N464 0.984 . S
H472 N460 0.984 . S
H473 N460 0.985 . S
C474 C475 1.363 . S
C474 C480 1.379 . S
C474 N482 1.356 . S
C475 C474 1.363 . S
C475 C481 1.363 . S
C476 C477 1.363 . S
C476 C481 1.379 . S
C476 N483 1.356 . S
C477 C476 1.363 . S
C477 C480 1.363 . S
N478 C480 1.356 . S
N478 H490 0.984 . S
N478 H491 0.985 . S
N479 C481 1.356 . S
N479 H484 0.984 . S
N479 H485 0.985 . S
C480 C474 1.379 . S
C480 C477 1.363 . S
C480 N478 1.356 . S
C481 C475 1.363 . S
C481 C476 1.379 . S
C481 N479 1.356 . S
N482 C474 1.356 . S
N482 H488 0.984 . S
N482 H489 0.984 . S
N483 C476 1.356 . S
N483 H486 0.984 . S
N483 H487 0.985 . S
H484 N479 0.984 . S
H485 N479 0.985 . S
H486 N483 0.984 . S
H487 N483 0.985 . S
H488 N482 0.984 . S
H489 N482 0.984 . S
H490 N478 0.984 . S
H491 N478 0.985 . S
C492 C493 1.363 . S
C492 C498 1.379 . S
C492 N500 1.356 1_545 S
C493 C492 1.363 . S
C493 C499 1.363 . S
C494 C495 1.363 . S
C494 C499 1.379 . S
C494 N501 1.356 . S
C495 C494 1.363 . S
C495 C498 1.363 . S
N496 C498 1.356 1_565 S
N496 H508 0.984 . S
N496 H509 0.985 1_565 S
N497 C499 1.356 . S
N497 H502 0.984 . S
N497 H503 0.985 . S
C498 C492 1.379 . S
C498 C495 1.363 . S
C498 N496 1.356 1_545 S
C499 C493 1.363 . S
C499 C494 1.379 . S
C499 N497 1.356 . S
N500 C492 1.356 1_565 S
N500 H506 0.984 . S
N500 H507 0.984 . S
N501 C494 1.356 . S
N501 H504 0.984 . S
N501 H505 0.985 . S
H502 N497 0.984 . S
H503 N497 0.985 . S
H504 N501 0.984 . S
H505 N501 0.985 . S
H506 N500 0.984 . S
H507 N500 0.984 . S
H508 N496 0.984 . S
H509 N496 0.985 1_545 S
C510 C511 1.363 . S
C510 C516 1.379 . S
C510 N518 1.356 . S
C511 C510 1.363 . S
C511 C517 1.363 . S
C512 C513 1.363 . S
C512 C517 1.379 . S
C512 N519 1.356 . S
C513 C512 1.363 . S
C513 C516 1.363 . S
N514 C516 1.356 1_556 S
N514 H526 0.984 . S
N514 H527 0.985 . S
N515 C517 1.356 . S
N515 H520 0.984 . S
N515 H521 0.985 . S
C516 C510 1.379 . S
C516 C513 1.363 . S
C516 N514 1.356 1_554 S
C517 C511 1.363 . S
C517 C512 1.379 . S
C517 N515 1.356 . S
N518 C510 1.356 . S
N518 H524 0.984 . S
N518 H525 0.984 . S
N519 C512 1.356 . S
N519 H522 0.984 . S
N519 H523 0.985 . S
H520 N515 0.984 . S
H521 N515 0.985 . S
H522 N519 0.984 . S
H523 N519 0.985 . S
H524 N518 0.984 . S
H525 N518 0.984 . S
H526 N514 0.984 . S
H527 N514 0.985 . S
C528 C529 1.363 . S
C528 C534 1.379 . S
C528 N536 1.356 . S
C529 C528 1.363 . S
C529 C535 1.363 . S
C530 C531 1.363 . S
C530 C535 1.379 . S
C530 N537 1.356 1_455 S
C531 C530 1.363 . S
C531 C534 1.363 . S
N532 C534 1.356 . S
N532 H544 0.984 . S
N532 H545 0.985 . S
N533 C535 1.356 . S
N533 H538 0.984 . S
N533 H539 0.985 1_455 S
C534 C528 1.379 . S
C534 C531 1.363 . S
C534 N532 1.356 . S
C535 C529 1.363 . S
C535 C530 1.379 . S
C535 N533 1.356 . S
N536 C528 1.356 . S
N536 H542 0.984 . S
N536 H543 0.984 . S
N537 C530 1.356 1_655 S
N537 H540 0.984 . S
N537 H541 0.985 . S
H538 N533 0.984 . S
H539 N533 0.985 1_655 S
H540 N537 0.984 . S
H541 N537 0.985 . S
H542 N536 0.984 . S
H543 N536 0.984 . S
H544 N532 0.984 . S
H545 N532 0.985 . S
C546 C547 1.363 . S
C546 C552 1.379 . S
C546 N554 1.356 . S
C547 C546 1.363 . S
C547 C553 1.363 . S
C548 C549 1.363 . S
C548 C553 1.379 . S
C548 N555 1.356 . S
C549 C548 1.363 . S
C549 C552 1.363 . S
N550 C552 1.356 . S
N550 H562 0.984 . S
N550 H563 0.985 . S
N551 C553 1.356 . S
N551 H556 0.984 . S
N551 H557 0.985 . S
C552 C546 1.379 . S
C552 C549 1.363 . S
C552 N550 1.356 . S
C553 C547 1.363 . S
C553 C548 1.379 . S
C553 N551 1.356 . S
N554 C546 1.356 . S
N554 H560 0.984 . S
N554 H561 0.984 . S
N555 C548 1.356 . S
N555 H558 0.984 . S
N555 H559 0.985 . S
H556 N551 0.984 . S
H557 N551 0.985 . S
H558 N555 0.984 . S
H559 N555 0.985 . S
H560 N554 0.984 . S
H561 N554 0.984 . S
H562 N550 0.984 . S
H563 N550 0.985 . S
C564 C565 1.363 . S
C564 C570 1.379 . S
C564 N572 1.356 . S
C565 C564 1.363 . S
C565 C571 1.363 . S
C566 C567 1.363 1_554 S
C566 C571 1.379 . S
C566 N573 1.356 1_554 S
C567 C566 1.363 1_556 S
C567 C570 1.363 1_556 S
N568 C570 1.356 1_556 S
N568 H580 0.984 . S
N568 H581 0.985 . S
N569 C571 1.356 . S
N569 H574 0.984 . S
N569 H575 0.985 . S
C570 C564 1.379 . S
C570 C567 1.363 1_554 S
C570 N568 1.356 1_554 S
C571 C565 1.363 . S
C571 C566 1.379 . S
C571 N569 1.356 . S
N572 C564 1.356 . S
N572 H578 0.984 . S
N572 H579 0.984 . S
N573 C566 1.356 1_556 S
N573 H576 0.984 . S
N573 H577 0.985 . S
H574 N569 0.984 . S
H575 N569 0.985 . S
H576 N573 0.984 . S
H577 N573 0.985 . S
H578 N572 0.984 . S
H579 N572 0.984 . S
H580 N568 0.984 . S
H581 N568 0.985 . S
C582 C583 1.363 . S
C582 C588 1.379 . S
C582 N590 1.356 . S
C583 C582 1.363 . S
C583 C589 1.363 1_455 S
C584 C585 1.363 1_655 S
C584 C589 1.379 . S
C584 N591 1.356 . S
C585 C584 1.363 1_455 S
C585 C588 1.363 . S
N586 C588 1.356 . S
N586 H598 0.984 . S
N586 H599 0.985 . S
N587 C589 1.356 . S
N587 H592 0.984 . S
N587 H593 0.985 . S
C588 C582 1.379 . S
C588 C585 1.363 . S
C588 N586 1.356 . S
C589 C583 1.363 1_655 S
C589 C584 1.379 . S
C589 N587 1.356 . S
N590 C582 1.356 . S
N590 H596 0.984 . S
N590 H597 0.984 . S
N591 C584 1.356 . S
N591 H594 0.984 . S
N591 H595 0.985 . S
H592 N587 0.984 . S
H593 N587 0.985 . S
H594 N591 0.984 . S
H595 N591 0.985 . S
H596 N590 0.984 . S
H597 N590 0.984 . S
H598 N586 0.984 . S
H599 N586 0.985 . S
C387 C97 1.142 . S
C385 C6 1.556 . S
C403 C22 1.642 . S
C405 C211 1.221 . S
C421 C34 1.158 . S
C423 C271 0.949 . S
C439 C7 1.426 . S
C441 C71 1.128 . S
C459 C185 1.191 . S
C457 C23 1.539 . S
C475 C35 1.319 . S
C477 C281 0.814 . S
C495 C167 1.008 . S
C493 C36 1.613 . S
C511 C9 1.749 . S
C513 C299 1.362 1_554 S
C531 C43 1.121 1_455 S
C529 C21 1.341 . S
C549 C157 1.173 . S
C547 C37 1.450 . S
C567 C325 1.367 . S
C565 C8 1.846 . S
C583 C20 1.481 . S
C585 C53 0.920 . S
