# Generated by pormake.
# Topology zzz, (3,6)-cn, num edge types: 1
# Building blocks:
#     Node 0, Type 0, BuildingBlock: BELTOD_clean_linker_0, # of connection points: 3
#     Node 1, Type 0, BuildingBlock: BELTOD_clean_linker_0, # of connection points: 3
#     Node 2, Type 0, BuildingBlock: BELTOD_clean_linker_0, # of connection points: 3
#     Node 3, Type 0, BuildingBlock: BELTOD_clean_linker_0, # of connection points: 3
#     Node 4, Type 0, BuildingBlock: BELTOD_clean_linker_0, # of connection points: 3
#     Node 5, Type 0, BuildingBlock: BELTOD_clean_linker_0, # of connection points: 3
#     Node 6, Type 0, BuildingBlock: BELTOD_clean_linker_0, # of connection points: 3
#     Node 7, Type 0, BuildingBlock: BELTOD_clean_linker_0, # of connection points: 3
#     Node 8, Type 1, BuildingBlock: BETDIP_clean_sbu_0, # of connection points: 6
#     Node 9, Type 1, BuildingBlock: BETDIP_clean_sbu_0, # of connection points: 6
#     Node 10, Type 1, BuildingBlock: BETDIP_clean_sbu_0, # of connection points: 6
#     Node 11, Type 1, BuildingBlock: BETDIP_clean_sbu_0, # of connection points: 6
#     Edge 12, Type (0, 1), BuildingBlock: XUDNAN_clean_linker_2, # of connection points: 2
#     Edge 13, Type (0, 1), BuildingBlock: XUDNAN_clean_linker_2, # of connection points: 2
#     Edge 14, Type (0, 1), BuildingBlock: XUDNAN_clean_linker_2, # of connection points: 2
#     Edge 15, Type (0, 1), BuildingBlock: XUDNAN_clean_linker_2, # of connection points: 2
#     Edge 16, Type (0, 1), BuildingBlock: XUDNAN_clean_linker_2, # of connection points: 2
#     Edge 17, Type (0, 1), BuildingBlock: XUDNAN_clean_linker_2, # of connection points: 2
#     Edge 18, Type (0, 1), BuildingBlock: XUDNAN_clean_linker_2, # of connection points: 2
#     Edge 19, Type (0, 1), BuildingBlock: XUDNAN_clean_linker_2, # of connection points: 2
#     Edge 20, Type (0, 1), BuildingBlock: XUDNAN_clean_linker_2, # of connection points: 2
#     Edge 21, Type (0, 1), BuildingBlock: XUDNAN_clean_linker_2, # of connection points: 2
#     Edge 22, Type (0, 1), BuildingBlock: XUDNAN_clean_linker_2, # of connection points: 2
#     Edge 23, Type (0, 1), BuildingBlock: XUDNAN_clean_linker_2, # of connection points: 2
#     Edge 24, Type (0, 1), BuildingBlock: XUDNAN_clean_linker_2, # of connection points: 2
#     Edge 25, Type (0, 1), BuildingBlock: XUDNAN_clean_linker_2, # of connection points: 2
#     Edge 26, Type (0, 1), BuildingBlock: XUDNAN_clean_linker_2, # of connection points: 2
#     Edge 27, Type (0, 1), BuildingBlock: XUDNAN_clean_linker_2, # of connection points: 2
#     Edge 28, Type (0, 1), BuildingBlock: XUDNAN_clean_linker_2, # of connection points: 2
#     Edge 29, Type (0, 1), BuildingBlock: XUDNAN_clean_linker_2, # of connection points: 2
#     Edge 30, Type (0, 1), BuildingBlock: XUDNAN_clean_linker_2, # of connection points: 2
#     Edge 31, Type (0, 1), BuildingBlock: XUDNAN_clean_linker_2, # of connection points: 2
#     Edge 32, Type (0, 1), BuildingBlock: XUDNAN_clean_linker_2, # of connection points: 2
#     Edge 33, Type (0, 1), BuildingBlock: XUDNAN_clean_linker_2, # of connection points: 2
#     Edge 34, Type (0, 1), BuildingBlock: XUDNAN_clean_linker_2, # of connection points: 2
#     Edge 35, Type (0, 1), BuildingBlock: XUDNAN_clean_linker_2, # of connection points: 2
# Relax obj value: 0.429
# Max RMSD: 0.251
# Mean RMSD: 0.233
data_MOF--net-zzz--node1-BETDIP_clean_sbu_0--node2-BELTOD_clean_linker_0--edge1-XUDNAN_clean_linker_2
_symmetry_space_group_name_H-M    P1
_symmetry_Int_Tables_number       1
_symmetry_cell_setting            triclinic
loop_
_symmetry_equiv_pos_as_xyz
'x, y, z'
_cell_length_a     55.64971
_cell_length_b     55.623598
_cell_length_c     17.268329
_cell_angle_alpha  89.622255
_cell_angle_beta   89.904763
_cell_angle_gamma 90.021999
loop_
_atom_site_label
_atom_site_type_symbol
_atom_site_fract_x
_atom_site_fract_y
_atom_site_fract_z
_atom_type_partial_charge
P0 P 0.73133 0.46889 0.3386 0.0
H1 H 0.73631 0.49087 0.49118 0.0
H2 H 0.7718 0.50393 0.56162 0.0
H3 H 0.8137 0.49944 0.35107 0.0
H4 H 0.77752 0.48846 0.28002 0.0
H5 H 0.67933 0.46485 0.34834 0.0
H6 H 0.64724 0.47794 0.26396 0.0
H7 H 0.69803 0.51927 0.12787 0.0
H8 H 0.73064 0.50512 0.21265 0.0
H9 H 0.776 0.44168 0.34823 0.0
H10 H 0.71658 0.44755 0.18933 0.0
O11 O 0.71926 0.45271 0.41052 0.0
H12 H 0.79901 0.4203 0.25233 0.0
H13 H 0.73852 0.42386 0.09488 0.0
C14 C 0.75441 0.48773 0.38093 0.0
C15 C 0.75293 0.49355 0.45956 0.0
C16 C 0.77347 0.50063 0.50014 0.0
C17 C 0.79611 0.50155 0.46327 0.0
C18 C 0.79683 0.49864 0.38225 0.0
C19 C 0.77604 0.49221 0.34129 0.0
C20 C 0.7074 0.48435 0.28796 0.0
C21 C 0.68362 0.47727 0.30183 0.0
C22 C 0.66511 0.48487 0.25306 0.0
C23 C 0.66982 0.49985 0.18875 0.0
C24 C 0.69367 0.50761 0.17634 0.0
C25 C 0.71231 0.49986 0.22545 0.0
C26 C 0.74531 0.44774 0.27397 0.0
C27 C 0.76774 0.43801 0.2928 0.0
C28 C 0.78075 0.42519 0.23782 0.0
C29 C 0.77106 0.42078 0.16384 0.0
C30 C 0.74714 0.42782 0.14947 0.0
C31 C 0.73446 0.44138 0.20381 0.0
P32 P 0.05738 0.7197 0.34556 0.0
H33 H 0.07064 0.75107 0.47175 0.0
H34 H 0.05602 0.78985 0.51331 0.0
H35 H 0.99459 0.78223 0.36207 0.0
H36 H 0.01075 0.74417 0.31594 0.0
H37 H 0.07667 0.68028 0.25992 0.0
H38 H 0.05928 0.64845 0.18348 0.0
H39 H 0.9884 0.66908 0.26203 0.0
H40 H 1.00629 0.70195 0.33661 0.0
H41 H 0.1059 0.73969 0.32232 0.0
H42 H 0.04028 0.73208 0.19225 0.0
O43 O 0.07825 0.70924 0.40636 0.0
H44 H 0.12423 0.76135 0.21285 0.0
H45 H 0.05818 0.75369 0.08384 0.0
C46 C 0.04144 0.74407 0.39244 0.0
C47 C 0.05362 0.75735 0.44906 0.0
C48 C 0.04513 0.7798 0.47304 0.0
C49 C 0.02401 0.78973 0.44137 0.0
C50 C 0.01118 0.77573 0.38714 0.0
C51 C 0.02006 0.75345 0.36186 0.0
C52 C 0.04283 0.69376 0.30332 0.0
C53 C 0.05736 0.6778 0.26167 0.0
C54 C 0.04731 0.65933 0.21809 0.0
C55 C 0.02228 0.65594 0.21568 0.0
C56 C 0.00771 0.67132 0.26086 0.0
C57 C 0.0179 0.69013 0.3041 0.0
C58 C 0.0719 0.73401 0.26467 0.0
C59 C 0.0956 0.74234 0.26983 0.0
C60 C 0.10602 0.75469 0.20738 0.0
C61 C 0.09279 0.75888 0.13923 0.0
C62 C 0.06913 0.75016 0.13446 0.0
C63 C 0.05877 0.73799 0.19674 0.0
P64 P 0.79892 0.03829 0.3661 0.0
H65 H 0.79132 0.00971 0.50742 0.0
H66 H 0.75434 0.99867 0.57477 0.0
H67 H 0.71326 0.01912 0.37257 0.0
H68 H 0.75043 0.0286 0.30425 0.0
H69 H 0.84855 0.0243 0.39742 0.0
H70 H 0.8813 0.0117 0.31503 0.0
H71 H 0.8323 0.007 0.1214 0.0
H72 H 0.79894 0.01688 0.20791 0.0
H73 H 0.76822 0.07558 0.42585 0.0
H74 H 0.79965 0.05871 0.20422 0.0
O75 O 0.81289 0.049 0.44412 0.0
H76 H 0.73907 0.10162 0.36185 0.0
H77 H 0.76977 0.08345 0.13994 0.0
C78 C 0.77374 0.02054 0.40132 0.0
C79 C 0.77445 0.01091 0.47647 0.0
C80 C 0.75312 1.00501 0.51551 0.0
C81 C 0.73054 0.0089 0.48056 0.0
C82 C 0.73013 0.01599 0.40207 0.0
C83 C 0.75154 0.02147 0.36264 0.0
C84 C 0.82136 0.02288 0.30806 0.0
C85 C 0.84465 0.02014 0.3376 0.0
C86 C 0.86362 0.01325 0.28952 0.0
C87 C 0.86005 0.00962 0.2096 0.0
C88 C 0.83617 0.01002 0.18192 0.0
C89 C 0.81696 0.01601 0.23129 0.0
C90 C 0.78544 0.06419 0.31983 0.0
C91 C 0.76934 0.07795 0.36362 0.0
C92 C 0.75255 0.09272 0.32695 0.0
C93 C 0.7516 0.09392 0.24572 0.0
C94 C 0.76982 0.08268 0.20262 0.0
C95 C 0.78673 0.068 0.23955 0.0
P96 P 0.46846 0.78793 0.36112 0.0
H97 H 0.45745 0.75793 0.49461 0.0
H98 H 0.47258 0.71948 0.53791 0.0
H99 H 0.53221 0.72653 0.3778 0.0
H100 H 0.51498 0.76372 0.32863 0.0
H101 H 0.44831 0.82756 0.27581 0.0
H102 H 0.46506 0.85934 0.19565 0.0
H103 H 0.53662 0.8381 0.26569 0.0
H104 H 0.5194 0.80546 0.34403 0.0
H105 H 0.42941 0.75318 0.36926 0.0
H106 H 0.47293 0.78623 0.191 0.0
O107 O 0.44847 0.79885 0.42387 0.0
H108 H 0.41222 0.72618 0.27388 0.0
H109 H 0.45421 0.7611 0.09435 0.0
C110 C 0.48539 0.76436 0.4097 0.0
C111 C 0.47416 0.75153 0.47003 0.0
C112 C 0.48299 0.72922 0.49511 0.0
C113 C 0.5037 0.71907 0.46146 0.0
C114 C 0.51581 0.7329 0.40424 0.0
C115 C 0.50639 0.75485 0.37726 0.0
C116 C 0.48255 0.81373 0.31478 0.0
C117 C 0.46764 0.82989 0.27472 0.0
C118 C 0.47733 0.8483 0.22898 0.0
C119 C 0.50235 0.85145 0.22299 0.0
C120 C 0.51729 0.83598 0.26695 0.0
C121 C 0.50748 0.81725 0.31226 0.0
C122 C 0.45227 0.77192 0.2875 0.0
C123 C 0.43464 0.75521 0.30914 0.0
C124 C 0.42462 0.7399 0.25409 0.0
C125 C 0.43184 0.74128 0.17595 0.0
C126 C 0.44852 0.7591 0.15403 0.0
C127 C 0.45902 0.77387 0.20946 0.0
P128 P 0.27752 0.46393 0.17025 0.0
H129 H 0.27571 0.49824 0.03601 0.0
H130 H 0.24255 0.50818 0.94744 0.0
H131 H 0.2031 0.4465 0.03223 0.0
H132 H 0.23527 0.43747 0.1217 0.0
H133 H 0.31535 0.4284 0.19714 0.0
H134 H 0.35645 0.43358 0.24141 0.0
H135 H 0.35301 0.50901 0.18236 0.0
H136 H 0.31185 0.50368 0.13657 0.0
H137 H 0.26221 0.46122 0.33262 0.0
H138 H 0.2726 0.51644 0.15905 0.0
O139 O 0.27112 0.43713 0.20943 0.0
H140 H 0.24585 0.49102 0.42071 0.0
H141 H 0.25748 0.54648 0.24805 0.0
C142 C 0.25815 0.46713 0.08618 0.0
C143 C 0.26009 0.48665 0.03452 0.0
C144 C 0.24106 0.49231 0.98378 0.0
C145 C 0.21977 0.47849 0.98388 0.0
C146 C 0.21879 0.45802 0.03189 0.0
C147 C 0.23757 0.45257 0.08254 0.0
C148 C 0.31003 0.46577 0.16507 0.0
C149 C 0.32353 0.44596 0.19099 0.0
C150 C 0.34709 0.44896 0.21726 0.0
C151 C 0.35778 0.47184 0.21781 0.0
C152 C 0.34526 0.49115 0.18342 0.0
C153 C 0.32159 0.48811 0.15711 0.0
C154 C 0.26812 0.48642 0.23838 0.0
C155 C 0.26136 0.47979 0.31371 0.0
C156 C 0.25235 0.49698 0.36465 0.0
C157 C 0.25024 0.52118 0.34131 0.0
C158 C 0.25852 0.52795 0.26744 0.0
C159 C 0.26722 0.51071 0.21634 0.0
P160 P 0.02423 0.2636 0.18361 0.0
H161 H 0.06069 0.25406 0.06659 0.0
H162 H 0.06306 0.22273 0.96905 0.0
H163 H 0.98728 0.2084 0.99805 0.0
H164 H 0.9847 0.24134 0.09091 0.0
H165 H 0.06358 0.29495 0.23254 0.0
H166 H 0.06321 0.33574 0.28189 0.0
H167 H 0.99049 0.34478 0.19969 0.0
H168 H 0.99123 0.3038 0.14835 0.0
H169 H 0.99984 0.21755 0.20684 0.0
H170 H 0.99753 0.28811 0.30935 0.0
O171 O 0.04869 0.25198 0.22531 0.0
H172 H 0.96898 0.20395 0.29659 0.0
H173 H 0.96697 0.27426 0.4004 0.0
C174 C 0.02277 0.24942 0.08896 0.0
C175 C 0.04433 0.24493 0.0497 0.0
C176 C 0.04572 0.22661 0.99462 0.0
C177 C 0.02563 0.212 0.97843 0.0
C178 C 1.00328 0.21882 0.00985 0.0
C179 C 1.00182 0.23766 0.06372 0.0
C180 C 0.02729 0.29606 0.18743 0.0
C181 C 0.04778 0.30586 0.22252 0.0
C182 C 0.04744 0.32922 0.25195 0.0
C183 C 0.02655 0.34338 0.24733 0.0
C184 C 0.00689 0.33443 0.20478 0.0
C185 C 0.00733 0.311 0.17464 0.0
C186 C 0.99986 0.25441 0.24657 0.0
C187 C 0.992 0.23049 0.24597 0.0
C188 C 0.9744 0.22266 0.29779 0.0
C189 C 0.96499 0.23834 0.35361 0.0
C190 C 0.97344 0.26206 0.35639 0.0
C191 C 0.99081 0.27 0.3035 0.0
P192 P 0.23753 0.05479 0.09989 0.0
H193 H 0.26895 0.07906 0.98874 0.0
H194 H 0.30446 0.06581 0.91924 0.0
H195 H 0.28831 0.99221 0.97962 0.0
H196 H 0.25256 1.00564 0.05115 0.0
H197 H 0.19704 0.08376 0.14687 0.0
H198 H 0.15891 0.07312 0.2052 0.0
H199 H 0.16955 0.99913 0.14025 0.0
H200 H 0.20805 0.01009 0.07903 0.0
H201 H 0.26752 0.07903 0.21497 0.0
H202 H 0.23612 0.0088 0.18347 0.0
O203 O 0.23941 0.08476 0.09614 0.0
H204 H 0.28721 0.06472 0.33268 0.0
H205 H 0.25495 0.99475 0.30199 0.0
C206 C 0.25769 0.04342 0.02549 0.0
C207 C 0.27243 0.05996 0.98579 0.0
C208 C 0.29306 0.0524 0.94649 0.0
C209 C 0.2995 0.02802 0.94498 0.0
C210 C 0.28386 0.01117 0.97982 0.0
C211 C 0.26325 0.01882 0.0203 0.0
C212 C 0.20576 0.04776 0.10845 0.0
C213 C 0.19097 0.06535 0.14186 0.0
C214 C 0.16916 0.05919 0.17662 0.0
C215 C 0.16148 0.03518 0.1795 0.0
C216 C 0.17506 0.0178 0.13951 0.0
C217 C 0.19706 0.02407 0.10418 0.0
C218 C 0.25015 0.04509 0.19052 0.0
C219 C 0.26437 0.06073 0.23414 0.0
C220 C 0.27541 0.05259 0.30196 0.0
C221 C 0.27245 0.02864 0.32685 0.0
C222 C 0.25756 0.01328 0.2842 0.0
C223 C 0.24669 0.02139 0.21635 0.0
P224 P 0.46186 0.2282 0.08866 0.0
H225 H 0.47399 0.23627 0.92528 0.0
H226 H 0.48864 0.27201 0.85801 0.0
H227 H 0.50636 0.3043 0.07719 0.0
H228 H 0.49217 0.26801 0.14453 0.0
H229 H 0.43823 0.20232 0.21338 0.0
H230 H 0.4509 0.17082 0.30274 0.0
H231 H 0.52301 0.17514 0.21052 0.0
H232 H 0.5099 0.20683 0.11987 0.0
H233 H 0.42078 0.25426 0.02577 0.0
H234 H 0.45847 0.24881 0.24299 0.0
O235 O 0.44751 0.21188 0.02246 0.0
H236 H 0.40463 0.29321 0.06408 0.0
H237 H 0.44337 0.28759 0.28049 0.0
C238 C 0.48204 0.24917 0.04029 0.0
C239 C 0.48193 0.25052 0.9591 0.0
C240 C 0.49014 0.2712 0.92049 0.0
C241 C 0.49834 0.29127 0.96214 0.0
C242 C 0.49982 0.28934 0.04332 0.0
C243 C 0.49204 0.2684 0.08186 0.0
C244 C 0.47324 0.20744 0.16119 0.0
C245 C 0.45693 0.19692 0.21341 0.0
C246 C 0.46423 0.17883 0.2648 0.0
C247 C 0.48806 0.17041 0.26468 0.0
C248 C 0.50449 0.18105 0.21221 0.0
C249 C 0.49711 0.19935 0.16075 0.0
C250 C 0.44077 0.2486 0.13161 0.0
C251 C 0.42456 0.26083 0.08339 0.0
C252 C 0.4156 0.28329 0.10497 0.0
C253 C 0.42313 0.29394 0.17451 0.0
C254 C 0.4369 0.2801 0.22673 0.0
C255 C 0.44564 0.25765 0.20534 0.0
Tb256 Tb 0.02941 0.99488 0.73935 0.0
Tb257 Tb 0.99107 0.0112 0.6399 0.0
C258 C 0.05445 0.97367 0.83946 0.0
C259 C 0.06594 0.95013 0.84871 0.0
C260 C 0.06768 0.9402 0.92299 0.0
C261 C 0.07809 0.91767 0.93388 0.0
C262 C 0.08726 0.9047 0.87058 0.0
C263 C 0.08552 0.91481 0.79586 0.0
C264 C 0.07483 0.93733 0.78494 0.0
C265 C 0.04491 0.01112 0.6035 0.0
C266 C 1.00472 0.95709 0.62628 0.0
C267 C 0.96402 0.03289 0.54686 0.0
C268 C 0.94969 0.05483 0.55428 0.0
C269 C 0.9444 0.06837 0.48815 0.0
C270 C 0.93353 0.09081 0.49509 0.0
C271 C 0.92755 0.10009 0.56853 0.0
C272 C 0.93184 0.0858 0.63458 0.0
C273 C 0.94298 0.0634 0.62753 0.0
C274 C 0.97605 0.99631 0.77847 0.0
C275 C 0.01799 0.04942 0.74795 0.0
O276 O 0.03094 0.97366 0.84009 0.0
O277 O 0.06336 0.98781 0.78594 0.0
O278 O 0.02645 0.99841 0.61523 0.0
O279 O 0.05576 0.0142 0.66885 0.0
O280 O 0.01679 0.9603 0.69143 0.0
O281 O 0.99573 0.9758 0.5887 0.0
O282 O 0.98731 0.03607 0.54896 0.0
O283 O 0.95706 0.0147 0.58952 0.0
O284 O 0.99446 0.00861 0.76333 0.0
O285 O 0.96491 0.99255 0.71415 0.0
O286 O 1.00424 0.04606 0.68626 0.0
O287 O 0.02726 0.03091 0.78543 0.0
H288 H 0.06068 0.94975 0.97266 0.0
H289 H 0.07835 0.91021 0.99194 0.0
H290 H 0.09239 0.90534 0.74591 0.0
H291 H 0.07344 0.94469 0.72687 0.0
H292 H 0.94967 0.06207 0.43134 0.0
H293 H 0.9312 0.10143 0.44288 0.0
H294 H 0.92742 0.09227 0.69185 0.0
H295 H 0.94709 0.05315 0.67942 0.0
Tb296 Tb 0.5203 0.02458 0.80359 0.0
Tb297 Tb 0.51362 0.99128 0.67616 0.0
C298 C 0.53403 0.04582 0.92411 0.0
C299 C 0.55512 0.05968 0.948 0.0
C300 C 0.57487 0.06259 0.89831 0.0
C301 C 0.59549 0.07446 0.92385 0.0
C302 C 0.59656 0.08382 0.9993 0.0
C303 C 0.57623 0.08175 0.04751 0.0
C304 C 0.55573 0.06967 0.02211 0.0
C305 C 0.50853 0.04586 0.67089 0.0
C306 C 0.56595 0.00777 0.70013 0.0
C307 C 0.49574 0.97135 0.56088 0.0
C308 C 0.47054 0.97389 0.53621 0.0
C309 C 0.46075 0.99699 0.52552 0.0
C310 C 0.436 1.00025 0.52352 0.0
C311 C 0.42048 0.98053 0.53176 0.0
C312 C 0.43014 0.95725 0.53682 0.0
C313 C 0.45505 0.95396 0.53933 0.0
C314 C 0.52692 0.97027 0.80645 0.0
C315 C 0.46833 0.00855 0.77538 0.0
O316 O 0.53769 0.02296 0.91112 0.0
O317 O 0.52063 0.0558 0.87094 0.0
O318 O 0.52261 0.02839 0.68018 0.0
O319 O 0.50146 0.0529 0.73841 0.0
O320 O 0.55774 0.01804 0.76433 0.0
O321 O 0.55123 0.99733 0.65088 0.0
O322 O 0.50898 0.99078 0.55571 0.0
O323 O 0.49857 0.96028 0.62731 0.0
O324 O 0.51173 0.9871 0.80011 0.0
O325 O 0.53445 0.96432 0.73814 0.0
O326 O 0.47661 1.00203 0.70683 0.0
O327 O 0.4833 0.0152 0.83022 0.0
H328 H 0.57454 0.05528 0.84044 0.0
H329 H 0.61086 0.07547 0.88545 0.0
H330 H 0.5763 0.0891 0.10543 0.0
H331 H 0.54049 0.0678 0.06083 0.0
H332 H 0.47209 0.01282 0.5233 0.0
H333 H 0.42898 0.01832 0.51741 0.0
H334 H 0.41845 0.94176 0.54253 0.0
H335 H 0.46216 0.93603 0.54838 0.0
Tb336 Tb 0.50084 0.50952 0.75233 0.0
Tb337 Tb 0.53378 0.49475 0.62392 0.0
C338 C 0.48118 0.52835 0.86797 0.0
C339 C 0.4662 0.54963 0.88017 0.0
C340 C 0.46473 0.5677 0.8233 0.0
C341 C 0.45189 0.58873 0.83784 0.0
C342 C 0.44004 0.59179 0.90893 0.0
C343 C 0.4405 0.5731 0.9641 0.0
C344 C 0.45359 0.55218 0.94985 0.0
C345 C 0.47884 0.49722 0.62263 0.0
C346 C 0.52373 0.54997 0.63856 0.0
C347 C 0.54582 0.47536 0.49887 0.0
C348 C 0.53034 0.45989 0.45171 0.0
C349 C 0.50714 0.45491 0.47879 0.0
C350 C 0.49094 0.44215 0.43412 0.0
C351 C 0.49771 0.43346 0.3613 0.0
C352 C 0.52106 0.43843 0.33346 0.0
C353 C 0.53728 0.45172 0.37842 0.0
C354 C 0.55652 0.50639 0.75246 0.0
C355 C 0.51144 0.45531 0.73738 0.0
O356 O 0.50346 0.53257 0.84727 0.0
O357 O 0.47128 0.51126 0.82738 0.0
O358 O 0.49819 0.50863 0.62906 0.0
O359 O 0.47003 0.49377 0.69113 0.0
O360 O 0.51062 0.545 0.70115 0.0
O361 O 0.5341 0.53281 0.598 0.0
O362 O 0.53808 0.49745 0.50365 0.0
O363 O 0.55182 0.4667 0.56684 0.0
O364 O 0.53656 0.4959 0.74698 0.0
O365 O 0.56607 0.50775 0.68377 0.0
O366 O 0.51715 0.46106 0.66518 0.0
O367 O 0.50779 0.47242 0.78889 0.0
H368 H 0.47397 0.56581 0.76853 0.0
H369 H 0.45171 0.60288 0.79445 0.0
H370 H 0.43175 0.57518 0.01976 0.0
H371 H 0.45442 0.53828 0.99403 0.0
H372 H 0.50126 0.46133 0.53426 0.0
H373 H 0.47303 0.43917 0.45681 0.0
H374 H 0.52689 0.43177 0.27773 0.0
H375 H 0.55505 0.45565 0.35605 0.0
Tb376 Tb 1.00559 0.48684 0.78257 0.0
Tb377 Tb 0.01295 0.52311 0.66329 0.0
C378 C 0.98923 0.46223 0.89329 0.0
C379 C 0.96519 0.45212 0.90852 0.0
C380 C 0.9447 0.46681 0.90517 0.0
C381 C 0.92184 0.45676 0.91059 0.0
C382 C 0.91895 0.43184 0.92009 0.0
C383 C 0.9394 0.41719 0.92668 0.0
C384 C 0.96238 0.42727 0.92047 0.0
C385 C 0.0189 0.46908 0.64697 0.0
C386 C 0.96075 0.50526 0.67988 0.0
C387 C 0.02964 0.54835 0.55487 0.0
C388 C 0.05469 0.55455 0.53616 0.0
C389 C 0.07245 0.53662 0.53643 0.0
C390 C 0.09661 0.54285 0.53189 0.0
C391 C 0.10347 0.56703 0.52699 0.0
C392 C 0.08586 0.58499 0.52267 0.0
C393 C 0.06152 0.57877 0.52776 0.0
C394 C 0.99804 0.54059 0.7967 0.0
C395 C 0.05762 0.50394 0.76483 0.0
O396 O 0.99111 0.48569 0.89465 0.0
O397 O 1.00062 0.45295 0.83448 0.0
O398 O 1.00427 0.48597 0.65832 0.0
O399 O 0.02611 0.46103 0.71352 0.0
O400 O 0.96853 0.49501 0.74479 0.0
O401 O 0.97592 0.51571 0.63143 0.0
O402 O 0.02353 0.52576 0.54692 0.0
O403 O 0.02177 0.55731 0.61984 0.0
O404 O 0.01372 0.52439 0.78788 0.0
O405 O 0.99057 0.54762 0.72935 0.0
O406 O 0.05008 0.51313 0.69801 0.0
O407 O 0.04213 0.49504 0.81506 0.0
H408 H 0.94624 0.48605 0.89641 0.0
H409 H 0.90636 0.46853 0.90728 0.0
H410 H 0.93758 0.39795 0.9348 0.0
H411 H 0.97795 0.41561 0.92329 0.0
H412 H 0.0678 0.51781 0.54307 0.0
H413 H 0.11004 0.52875 0.53353 0.0
H414 H 0.09096 0.60373 0.51759 0.0
H415 H 0.04809 0.59286 0.52779 0.0
H416 H 0.15352 0.04963 0.32808 0.0
H417 H 0.12312 1.00515 0.14782 0.0
H418 H 0.08873 0.99519 0.23431 0.0
H419 H 0.13772 0.01113 0.4868 0.0
H420 H 0.13167 0.03564 0.55174 0.0
H421 H 0.15315 0.03941 0.47456 0.0
H422 H 0.1296 0.07655 0.42443 0.0
H423 H 0.10795 0.07281 0.50124 0.0
H424 H 0.09812 0.07362 0.40185 0.0
H425 H 0.057 0.9909 0.34294 0.0
H426 H 0.03324 0.99004 0.46467 0.0
H427 H 0.08564 0.03672 0.5725 0.0
C428 C 0.13951 0.03798 0.30631 0.0
C429 C 0.14084 0.02843 0.23064 0.0
C430 C 0.12245 0.01272 0.20541 0.0
C431 C 0.10281 0.00708 0.25406 0.0
C432 C 0.10196 0.0171 0.32809 0.0
C433 C 0.12003 0.03204 0.35412 0.0
C434 C 0.11556 0.0399 0.43674 0.0
C435 C 0.13572 0.03098 0.49062 0.0
C436 C 0.11263 0.06735 0.44129 0.0
C437 C 0.09209 0.02713 0.45358 0.0
C438 C 0.08434 0.01419 0.3902 0.0
C439 C 0.063 1.00096 0.39274 0.0
C440 C 0.04955 1.00065 0.46201 0.0
C441 C 0.0576 0.0133 0.52804 0.0
C442 C 0.07901 0.02687 0.52302 0.0
H443 H 0.47413 0.16169 0.41612 0.0
H444 H 0.51772 0.13223 0.23094 0.0
H445 H 0.52734 0.09711 0.31354 0.0
H446 H 0.51185 0.14213 0.57462 0.0
H447 H 0.48686 0.13538 0.63768 0.0
H448 H 0.48401 0.15842 0.56451 0.0
H449 H 0.44663 0.13674 0.50925 0.0
H450 H 0.44947 0.11354 0.58194 0.0
H451 H 0.44897 0.10569 0.48086 0.0
H452 H 0.53118 0.06422 0.41602 0.0
H453 H 0.53073 0.03778 0.53188 0.0
H454 H 0.48428 0.08843 0.64946 0.0
C455 C 0.48567 0.14786 0.39266 0.0
C456 C 0.49515 0.14989 0.31659 0.0
C457 C 0.51047 0.13141 0.28911 0.0
C458 C 0.51588 0.11123 0.33548 0.0
C459 C 0.50592 0.10968 0.40957 0.0
C460 C 0.49126 0.12761 0.43817 0.0
C461 C 0.48287 0.12166 0.51979 0.0
C462 C 0.49195 0.14052 0.57755 0.0
C463 C 0.45535 0.11927 0.52312 0.0
C464 C 0.49502 0.09755 0.53271 0.0
C465 C 0.50818 0.0909 0.46835 0.0
C466 C 0.52095 0.06932 0.46668 0.0
C467 C 0.52053 0.05436 0.5327 0.0
C468 C 0.50748 0.06101 0.59972 0.0
C469 C 0.49441 0.08283 0.59912 0.0
H470 H 0.36918 0.45427 0.36144 0.0
H471 H 0.39699 0.4996 0.17668 0.0
H472 H 0.4327 0.50884 0.25683 0.0
H473 H 0.38525 0.49136 0.51415 0.0
H474 H 0.3931 0.46736 0.58004 0.0
H475 H 0.37135 0.46223 0.50498 0.0
H476 H 0.39649 0.42646 0.45503 0.0
H477 H 0.41869 0.43141 0.52915 0.0
H478 H 0.42749 0.43103 0.4287 0.0
H479 H 0.46454 0.51459 0.36121 0.0
H480 H 0.48838 0.51795 0.48166 0.0
H481 H 0.43864 0.46994 0.5988 0.0
C482 C 0.38306 0.46565 0.33685 0.0
C483 C 0.3804 0.47597 0.26219 0.0
C484 C 0.39865 0.49143 0.23351 0.0
C485 C 0.41904 0.49668 0.27853 0.0
C486 C 0.4209 0.48641 0.35232 0.0
C487 C 0.40334 0.47122 0.38117 0.0
C488 C 0.40866 0.46379 0.46401 0.0
C489 C 0.38839 0.47167 0.519 0.0
C490 C 0.4131 0.43656 0.46957 0.0
C491 C 0.43155 0.47778 0.47842 0.0
C492 C 0.43863 0.49034 0.41285 0.0
C493 C 0.45914 0.50478 0.41269 0.0
C494 C 0.47254 0.50662 0.48138 0.0
C495 C 0.46521 0.49436 0.54959 0.0
C496 C 0.44456 0.47963 0.54761 0.0
H497 H 0.04365 0.35211 0.39379 0.0
H498 H 1.00453 0.38612 0.20554 0.0
H499 H 0.99988 0.42279 0.28474 0.0
H500 H 0.0086 0.37547 0.54634 0.0
H501 H 0.03356 0.37937 0.61148 0.0
H502 H 0.0347 0.35643 0.53854 0.0
H503 H 0.07454 0.3743 0.48581 0.0
H504 H 0.07355 0.39731 0.55873 0.0
H505 H 0.07574 0.40557 0.45785 0.0
H506 H 0.99828 0.45544 0.38815 0.0
H507 H 0.99933 0.48054 0.50604 0.0
H508 H 0.04028 0.4252 0.62462 0.0
C509 C 0.03454 0.36741 0.36823 0.0
C510 C 0.02467 0.36618 0.29271 0.0
C511 C 0.01221 0.38648 0.26309 0.0
C512 C 0.00959 0.40746 0.30759 0.0
C513 C 0.01952 0.40795 0.3818 0.0
C514 C 0.03178 0.38842 0.41174 0.0
C515 C 0.04003 0.39306 0.49399 0.0
C516 C 0.02853 0.37502 0.55092 0.0
C517 C 0.0676 0.39253 0.49938 0.0
C518 C 0.03038 0.41824 0.50614 0.0
C519 C 0.01865 0.42658 0.44074 0.0
C520 C 0.00758 0.4491 0.43932 0.0
C521 C 0.00831 0.46327 0.50653 0.0
C522 C 0.02001 0.45492 0.57438 0.0
C523 C 0.03139 0.4322 0.57349 0.0
H524 H 0.86343 0.98601 0.06692 0.0
H525 H 0.90515 0.02938 0.22682 0.0
H526 H 0.93984 0.02685 0.14036 0.0
H527 H 0.91223 0.94816 0.99685 0.0
H528 H 0.90198 0.94874 0.8979 0.0
H529 H 0.88067 0.95149 0.97604 0.0
H530 H 0.86509 0.9915 0.91725 0.0
H531 H 0.88625 0.9888 0.8388 0.0
H532 H 0.88605 0.01549 0.89741 0.0
H533 H 0.9701 0.02134 0.03514 0.0
H534 H 0.99247 0.01579 0.91293 0.0
H535 H 0.93107 0.97877 0.81511 0.0
C536 C 0.87979 0.99496 0.0843 0.0
C537 C 0.88129 0.00733 0.1559 0.0
C538 C 0.90335 0.01884 0.17475 0.0
C539 C 0.92331 0.01775 0.12534 0.0
C540 C 0.92116 1.00543 0.05593 0.0
C541 C 0.89992 0.99445 0.03478 0.0
C542 C 0.90202 0.98391 0.95401 0.0
C543 C 0.89905 0.95644 0.95638 0.0
C544 C 0.88377 0.99563 0.89861 0.0
C545 C 0.92763 0.99096 0.93309 0.0
C546 C 0.93842 1.00308 0.99332 0.0
C547 C 0.96186 0.01182 0.98761 0.0
C548 C 0.97446 0.00854 0.91799 0.0
C549 C 0.96356 0.99686 0.8545 0.0
C550 C 0.93994 0.98765 0.8628 0.0
H551 H 0.48364 0.89599 0.17971 0.0
H552 H 0.54379 0.84808 0.13629 0.0
H553 H 0.55864 0.87587 0.03575 0.0
H554 H 0.47233 0.90923 0.98359 0.0
H555 H 0.46398 0.94013 0.99902 0.0
H556 H 0.45967 0.91826 0.07505 0.0
H557 H 0.48507 0.94429 0.16801 0.0
H558 H 0.48948 0.96626 0.09209 0.0
H559 H 0.51507 0.9531 0.14017 0.0
H560 H 0.565 0.90647 0.93101 0.0
H561 H 0.56214 0.93751 0.82874 0.0
H562 H 0.49738 0.96547 0.93523 0.0
C563 C 0.50003 0.8913 0.14964 0.0
C564 C 0.51255 0.86966 0.16722 0.0
C565 C 0.53405 0.86463 0.1261 0.0
C566 C 0.54259 0.88029 0.06815 0.0
C567 C 0.52953 0.90106 0.05142 0.0
C568 C 0.50872 0.90665 0.09098 0.0
C569 C 0.49716 0.92925 0.05775 0.0
C570 C 0.47179 0.92389 0.02703 0.0
C571 C 0.49667 0.94942 0.11812 0.0
C572 C 0.51443 0.93517 0.99212 0.0
C573 C 0.5331 0.91876 0.9902 0.0
C574 C 0.55063 0.91956 0.93255 0.0
C575 C 0.54884 0.93726 0.87463 0.0
C576 C 0.52967 0.954 0.87431 0.0
C577 C 0.51247 0.95318 0.93476 0.0
H578 H 0.67188 0.50432 0.02861 0.0
H579 H 0.62244 0.50901 0.22293 0.0
H580 H 0.58859 0.51282 0.13233 0.0
H581 H 0.63911 0.5487 0.90494 0.0
H582 H 0.64583 0.53256 0.81736 0.0
H583 H 0.66652 0.53159 0.89754 0.0
H584 H 0.66455 0.48508 0.89754 0.0
H585 H 0.64369 0.48588 0.81803 0.0
H586 H 0.63581 0.47035 0.90641 0.0
H587 H 0.55968 0.51024 0.02207 0.0
H588 H 0.53793 0.50713 0.89828 0.0
H589 H 0.60555 0.50928 0.77347 0.0
C590 C 0.65405 0.50682 0.05236 0.0
C591 C 0.64997 0.50594 0.13347 0.0
C592 C 0.62616 0.50896 0.16138 0.0
C593 C 0.60674 0.51132 0.11029 0.0
C594 C 0.61132 0.51125 0.03102 0.0
C595 C 0.63441 0.50965 1.00201 0.0
C596 C 0.6342 0.50967 0.91398 0.0
C597 C 0.64719 0.53196 0.88155 0.0
C598 C 0.64521 0.48636 0.88215 0.0
C599 C 0.60737 0.51086 0.89832 0.0
C600 C 0.59454 0.51158 0.96684 0.0
C601 C 0.56952 0.51047 0.96795 0.0
C602 C 0.55728 0.5088 0.89726 0.0
C603 C 0.56993 0.50883 0.82613 0.0
C604 C 0.59535 0.50995 0.82686 0.0
H605 H 0.04109 0.61174 0.17168 0.0
H606 H 0.97985 0.65884 0.13402 0.0
H607 H 0.96473 0.63127 0.03459 0.0
H608 H 0.05146 0.60031 0.97544 0.0
H609 H 0.06058 0.56947 0.98878 0.0
H610 H 0.06478 0.59074 0.06561 0.0
H611 H 0.04042 0.56333 0.15876 0.0
H612 H 0.03614 0.54195 0.08199 0.0
H613 H 0.01051 0.55408 0.13231 0.0
H614 H 0.95845 0.60141 0.92898 0.0
H615 H 0.96178 0.57173 0.82396 0.0
H616 H 0.02769 0.54433 0.92487 0.0
C617 C 0.02438 0.61628 0.14322 0.0
C618 C 0.01169 0.63766 0.16187 0.0
C619 C 0.98977 0.64249 0.12293 0.0
C620 C 0.98105 0.62694 0.06565 0.0
C621 C 0.99437 0.60651 0.04747 0.0
C622 C 0.01555 0.60109 0.08518 0.0
C623 C 0.02745 0.57908 0.05008 0.0
C624 C 0.05255 0.58528 0.01807 0.0
C625 C 0.0287 0.55838 0.10933 0.0
C626 C 0.00998 0.57336 0.98529 0.0
C627 C 0.99087 0.58927 0.98563 0.0
C628 C 0.97314 0.58867 0.92883 0.0
C629 C 0.97521 0.57175 0.86933 0.0
C630 C 0.99486 0.55562 0.86659 0.0
C631 C 0.01222 0.55613 0.92633 0.0
H632 H 0.9246 0.21206 0.33196 0.0
H633 H 0.97033 0.24145 0.5099 0.0
H634 H 0.95193 0.21432 0.60617 0.0
H635 H 0.8713 0.19196 0.47526 0.0
H636 H 0.86701 0.1656 0.41674 0.0
H637 H 0.87504 0.19385 0.37169 0.0
H638 H 0.91145 0.17332 0.30634 0.0
H639 H 0.90379 0.14536 0.35118 0.0
H640 H 0.93329 0.15794 0.36584 0.0
H641 H 0.9421 0.17594 0.66528 0.0
H642 H 0.94141 0.13218 0.67998 0.0
H643 H 0.89899 0.12633 0.47085 0.0
C644 C 0.92959 0.21358 0.39229 0.0
C645 C 0.94873 0.22867 0.4139 0.0
C646 C 0.9554 0.2302 0.49258 0.0
C647 C 0.94497 0.21483 0.54771 0.0
C648 C 0.92759 0.19842 0.52339 0.0
C649 C 0.91935 0.19822 0.44765 0.0
C650 C 0.90465 0.17587 0.43175 0.0
C651 C 0.87791 0.18221 0.42341 0.0
C652 C 0.9139 0.16234 0.35969 0.0
C653 C 0.90907 0.16191 0.5059 0.0
C654 C 0.9213 0.17567 0.55961 0.0
C655 C 0.93172 0.16528 0.62521 0.0
C656 C 0.93123 0.14021 0.63319 0.0
C657 C 0.92049 0.12576 0.57558 0.0
C658 C 0.90755 0.13698 0.51516 0.0
H659 H 0.29724 0.98671 0.32703 0.0
H660 H 0.28268 0.0495 0.4667 0.0
H661 H 0.31491 0.03738 0.55682 0.0
H662 H 0.31905 0.94543 0.49512 0.0
H663 H 0.34138 0.93264 0.43188 0.0
H664 H 0.31264 0.94179 0.39358 0.0
H665 H 0.33437 0.96862 0.29227 0.0
H666 H 0.36298 0.95996 0.33058 0.0
H667 H 0.35508 0.99135 0.32484 0.0
H668 H 0.35416 0.02526 0.60831 0.0
H669 H 0.39672 0.01365 0.61877 0.0
H670 H 0.38585 0.95782 0.44872 0.0
C671 C 0.29993 0.99717 0.37893 0.0
C672 C 0.28742 0.01892 0.39036 0.0
C673 C 0.29212 0.03276 0.45705 0.0
C674 C 0.31022 0.02587 0.50887 0.0
C675 C 0.3232 1.00498 0.49353 0.0
C676 C 0.31798 0.99057 0.43077 0.0
C677 C 0.33706 0.97154 0.41893 0.0
C678 C 0.32692 0.94636 0.43593 0.0
C679 C 0.34801 0.973 0.33688 0.0
C680 C 0.35492 0.9789 0.48016 0.0
C681 C 0.34624 0.99773 0.52426 0.0
C682 C 0.36084 0.01001 0.57614 0.0
C683 C 0.38502 1.00341 0.58134 0.0
C684 C 0.39433 0.98464 0.5352 0.0
C685 C 0.3789 0.97172 0.48618 0.0
H686 H 0.41756 0.31889 0.31013 0.0
H687 H 0.42786 0.32889 0.06285 0.0
H688 H 0.43982 0.37068 0.08489 0.0
H689 H 0.40385 0.38571 0.36076 0.0
H690 H 0.42121 0.38222 0.44815 0.0
H691 H 0.4041 0.35726 0.41141 0.0
H692 H 0.44315 0.33165 0.4131 0.0
H693 H 0.46027 0.35682 0.44641 0.0
H694 H 0.46889 0.34183 0.35839 0.0
H695 H 0.46247 0.4058 0.13235 0.0
H696 H 0.48937 0.43319 0.20388 0.0
H697 H 0.46793 0.39891 0.4196 0.0
C698 C 0.42139 0.33017 0.2603 0.0
C699 C 0.42179 0.32043 0.18499 0.0
C700 C 0.42692 0.33581 0.12122 0.0
C701 C 0.43402 0.35965 0.13304 0.0
C702 C 0.4359 0.36791 0.2086 0.0
C703 C 0.4292 0.35379 0.27133 0.0
C704 C 0.4371 0.36498 0.34677 0.0
C705 C 0.41526 0.37303 0.39455 0.0
C706 C 0.45332 0.3478 0.3938 0.0
C707 C 0.451 0.38638 0.31618 0.0
C708 C 0.44952 0.38825 0.23658 0.0
C709 C 0.46319 0.40498 0.19493 0.0
C710 C 0.47869 0.42021 0.23585 0.0
C711 C 0.4806 0.41834 0.31739 0.0
C712 C 0.46635 0.40132 0.35756 0.0
H713 H 0.21737 0.55363 0.29017 0.0
H714 H 0.2503 0.52612 0.5 0.0
H715 H 0.21935 0.54658 0.57765 0.0
H716 H 0.19202 0.61275 0.3809 0.0
H717 H 0.16563 0.60997 0.32121 0.0
H718 H 0.19451 0.60055 0.28477 0.0
H719 H 0.17688 0.55849 0.25549 0.0
H720 H 0.14826 0.56757 0.29225 0.0
H721 H 0.16294 0.54147 0.33271 0.0
H722 H 0.17976 0.55829 0.62687 0.0
H723 H 0.13577 0.56102 0.64273 0.0
H724 H 0.12856 0.58288 0.4033 0.0
C725 C 0.21895 0.55309 0.3526 0.0
C726 C 0.23625 0.53831 0.38899 0.0
C727 C 0.23711 0.53724 0.47084 0.0
C728 C 0.21974 0.54904 0.51545 0.0
C729 C 0.20192 0.56221 0.47741 0.0
C730 C 0.20173 0.56474 0.39764 0.0
C731 C 0.17849 0.57589 0.3695 0.0
C732 C 0.18293 0.60131 0.33721 0.0
C733 C 0.16592 0.55988 0.30908 0.0
C734 C 0.16461 0.57682 0.44476 0.0
C735 C 0.17873 0.56969 0.50688 0.0
C736 C 0.16881 0.56492 0.57962 0.0
C737 C 0.14384 0.56647 0.58822 0.0
C738 C 0.1292 0.57276 0.52449 0.0
C739 C 0.13973 0.57904 0.45319 0.0
H740 H 0.11628 0.80141 0.15606 0.0
H741 H 0.08881 0.7528 0.98227 0.0
H742 H 0.09402 0.78427 0.88248 0.0
H743 H 0.08619 0.8484 0.10448 0.0
H744 H 0.10859 0.87127 0.12008 0.0
H745 H 0.11031 0.84342 0.17236 0.0
H746 H 0.15338 0.83613 0.12062 0.0
H747 H 0.15203 0.86437 0.06883 0.0
H748 H 0.15904 0.83708 0.01782 0.0
H749 H 0.09076 0.82302 0.81298 0.0
H750 H 0.08158 0.86498 0.77853 0.0
H751 H 0.11418 0.88863 0.99296 0.0
C752 C 0.1127 0.79694 0.09626 0.0
C753 C 0.10215 0.77473 0.07683 0.0
C754 C 0.09681 0.7698 0.99838 0.0
C755 C 0.0999 0.78751 0.9412 0.0
C756 C 0.10882 0.80986 0.96314 0.0
C757 C 0.11574 0.81445 0.03861 0.0
C758 C 0.12109 0.84087 0.05006 0.0
C759 C 0.10561 0.85159 0.11553 0.0
C760 C 0.14799 0.84484 0.0652 0.0
C761 C 0.11392 0.85069 0.97157 0.0
C762 C 0.10751 0.8325 0.92148 0.0
C763 C 0.09662 0.8374 0.85041 0.0
C764 C 0.09147 0.86137 0.83121 0.0
C765 C 0.09712 0.88016 0.88307 0.0
C766 C 0.10954 0.87468 0.95222 0.0
H767 H 0.70573 0.08425 0.28852 0.0
H768 H 0.74753 0.12088 0.11147 0.0
H769 H 0.71043 0.12746 0.03517 0.0
H770 H 0.67149 0.05205 0.16703 0.0
H771 H 0.64417 0.05319 0.2231 0.0
H772 H 0.6727 0.05591 0.27055 0.0
H773 H 0.65967 0.09658 0.32964 0.0
H774 H 0.63085 0.09388 0.28296 0.0
H775 H 0.64898 0.12032 0.26705 0.0
H776 H 0.66978 0.12457 0.9705 0.0
H777 H 0.62961 0.11255 0.92349 0.0
H778 H 0.61568 0.07677 0.1431 0.0
C779 C 0.707 0.09469 0.23551 0.0
C780 C 0.72946 0.10246 0.20658 0.0
C781 C 0.73046 0.11497 0.13496 0.0
C782 C 0.70947 0.11886 0.09148 0.0
C783 C 0.68771 0.11018 0.12066 0.0
C784 C 0.68637 0.09853 0.1915 0.0
C785 C 0.66161 0.08823 0.20606 0.0
C786 C 0.66257 0.06073 0.21728 0.0
C787 C 0.64957 0.1005 0.27554 0.0
C788 C 0.64941 0.09508 0.13107 0.0
C789 C 0.66454 0.10808 0.08297 0.0
C790 C 0.65768 0.11474 0.00823 0.0
C791 C 0.63491 0.10766 0.9818 0.0
C792 C 0.6194 0.09383 0.02975 0.0
C793 C 0.62675 0.08789 0.1057 0.0
H794 H 0.45887 0.72169 0.05976 0.0
H795 H 0.38841 0.71719 0.16738 0.0
H796 H 0.37983 0.68072 0.09182 0.0
H797 H 0.43942 0.69757 0.86338 0.0
H798 H 0.46777 0.68228 0.85275 0.0
H799 H 0.46634 0.71046 0.90359 0.0
H800 H 0.48638 0.69038 0.02293 0.0
H801 H 0.48764 0.66222 0.97315 0.0
H802 H 0.47274 0.66404 0.06571 0.0
H803 H 0.38269 0.64055 0.02723 0.0
H804 H 0.39584 0.60173 0.97181 0.0
H805 H 0.46277 0.63459 0.89865 0.0
C806 C 0.44113 0.71389 0.06501 0.0
C807 C 0.42439 0.72242 0.12002 0.0
C808 C 0.40175 0.71087 0.12664 0.0
C809 C 0.39658 0.69027 0.08324 0.0
C810 C 0.41395 0.68183 0.03194 0.0
C811 C 0.43556 0.69365 0.02131 0.0
C812 C 0.45228 0.6797 0.9691 0.0
C813 C 0.4567 0.69332 0.89266 0.0
C814 C 0.47614 0.67373 0.01024 0.0
C815 C 0.43733 0.65743 0.95613 0.0
C816 C 0.41513 0.65906 0.99184 0.0
C817 C 0.39965 0.63935 0.99678 0.0
C818 C 0.40727 0.61739 0.96561 0.0
C819 C 0.43007 0.61545 0.92986 0.0
C820 C 0.4449 0.63589 0.92331 0.0
H821 H 0.81106 0.39134 0.17285 0.0
H822 H 0.76819 0.43249 0.00889 0.0
H823 H 0.79982 0.42842 0.91211 0.0
H824 H 0.8595 0.42325 0.14522 0.0
H825 H 0.88163 0.39976 0.15517 0.0
H826 H 0.85284 0.39643 0.20051 0.0
H827 H 0.84604 0.35629 0.12855 0.0
H828 H 0.8751 0.3594 0.08315 0.0
H829 H 0.84865 0.35539 0.02454 0.0
H830 H 0.83869 0.43119 0.84786 0.0
H831 H 0.88131 0.4406 0.82336 0.0
H832 H 0.90135 0.40148 0.03111 0.0
C833 C 0.80797 0.39897 0.11599 0.0
C834 C 0.78695 0.41239 0.09964 0.0
C835 C 0.78368 0.42166 0.02363 0.0
C836 C 0.80175 0.41953 0.96769 0.0
C837 C 0.82311 0.40815 0.98818 0.0
C838 C 0.82625 0.39777 0.06046 0.0
C839 C 0.85239 0.39138 0.0743 0.0
C840 C 0.86214 0.40344 0.14808 0.0
C841 C 0.85574 0.36398 0.07781 0.0
C842 C 0.8637 0.40184 1.00174 0.0
C843 C 0.84637 0.41049 0.95135 0.0
C844 C 0.8524 0.42388 0.88563 0.0
C845 C 0.87661 0.42933 0.87251 0.0
C846 C 0.89447 0.42167 0.92539 0.0
C847 C 0.88803 0.40697 0.98894 0.0
H848 H 0.99496 0.18728 0.87658 0.0
H849 H 0.06349 0.18142 0.99579 0.0
H850 H 0.06931 0.14132 0.94195 0.0
H851 H 0.97667 0.12652 0.907 0.0
H852 H 0.96318 0.12245 0.81316 0.0
H853 H 0.96449 0.15198 0.85513 0.0
H854 H 0.98619 0.16791 0.73345 0.0
H855 H 0.9857 0.13846 0.69044 0.0
H856 H 0.0138 0.15403 0.70231 0.0
H857 H 0.06728 0.10118 0.88577 0.0
H858 H 0.05771 0.06242 0.82634 0.0
H859 H 0.99061 0.09173 0.73899 0.0
C860 C 0.01129 0.17766 0.89069 0.0
C861 C 0.029 0.18809 0.93956 0.0
C862 C 0.04996 0.17455 0.95677 0.0
C863 C 0.05339 0.1515 0.92693 0.0
C864 C 0.03575 0.14182 0.87948 0.0
C865 C 0.01513 0.15435 0.8608 0.0
C866 C 0.99888 0.139 0.80977 0.0
C867 C 0.97435 0.13474 0.84861 0.0
C868 C 0.99596 0.15055 0.72923 0.0
C869 C 0.01337 0.11575 0.80514 0.0
C870 C 0.03463 0.11809 0.84566 0.0
C871 C 0.05079 0.09916 0.85331 0.0
C872 C 0.04511 0.07712 0.81945 0.0
C873 C 0.02344 0.07391 0.7778 0.0
C874 C 0.00745 0.09368 0.76964 0.0
H875 H 0.34386 0.04768 0.97286 0.0
H876 H 0.30869 0.99177 0.84105 0.0
H877 H 0.34792 0.98068 0.78271 0.0
H878 H 0.38645 0.06594 0.82772 0.0
H879 H 0.41047 0.07086 0.89571 0.0
H880 H 0.37969 0.07435 0.92603 0.0
H881 H 0.38649 0.04353 0.03699 0.0
H882 H 0.4173 0.03997 0.00707 0.0
H883 H 0.39794 0.01407 0.01459 0.0
H884 H 0.39139 0.97672 0.73577 0.0
H885 H 0.43502 0.97903 0.70869 0.0
H886 H 0.44206 0.036 0.87732 0.0
C887 C 0.3444 0.03313 0.93153 0.0
C888 C 0.32313 0.02068 0.91107 0.0
C889 C 0.32471 1.00151 0.85772 0.0
C890 C 0.34691 0.99515 0.82416 0.0
C891 C 0.36751 0.00788 0.84545 0.0
C892 C 0.36643 0.02633 0.89853 0.0
C893 C 0.39117 0.03691 0.91293 0.0
C894 C 0.39198 0.0636 0.88917 0.0
C895 C 0.39866 0.0334 0.99794 0.0
C896 C 0.40641 0.02169 0.85929 0.0
C897 C 0.39242 1.00514 0.82042 0.0
C898 C 0.40245 0.98956 0.76623 0.0
C899 C 0.42727 0.99106 0.75099 0.0
C900 C 0.44201 0.00762 0.79104 0.0
C901 C 0.43133 0.02301 0.8462 0.0
H902 H 0.48519 0.33773 1.00087 0.0
H903 H 0.52424 0.29692 0.82825 0.0
H904 H 0.53162 0.33422 0.7537 0.0
H905 H 0.45713 0.37928 0.86173 0.0
H906 H 0.45834 0.40374 0.92964 0.0
H907 H 0.45646 0.37311 0.96386 0.0
H908 H 0.49514 0.38186 0.04615 0.0
H909 H 0.49718 0.41171 0.0056 0.0
H910 H 0.52215 0.39127 0.9967 0.0
H911 H 0.53312 0.37537 0.69423 0.0
H912 H 0.53101 0.4181 0.65725 0.0
H913 H 0.49224 0.43358 0.86961 0.0
C914 C 0.49566 0.33672 0.94805 0.0
C915 C 0.50422 0.31427 0.92065 0.0
C916 C 0.51736 0.31376 0.8503 0.0
C917 C 0.52169 0.3349 0.80757 0.0
C918 C 0.51275 0.35659 0.83555 0.0
C919 C 0.50006 0.35773 0.90424 0.0
C920 C 0.49189 0.38337 0.91983 0.0
C921 C 0.46432 0.385 0.91877 0.0
C922 C 0.50222 0.3926 0.99663 0.0
C923 C 0.50261 0.39657 0.85048 0.0
C924 C 0.51415 0.3806 0.80198 0.0
C925 C 0.52433 0.38806 0.73214 0.0
C926 C 0.52291 0.41245 0.71147 0.0
C927 C 0.51159 0.4294 0.76057 0.0
C928 C 0.50127 0.42121 0.83115 0.0
H929 H 0.17237 0.47624 0.02853 0.0
H930 H 0.21777 0.49726 0.83508 0.0
H931 H 0.18145 0.50765 0.75896 0.0
H932 H 0.12669 0.44804 0.9181 0.0
H933 H 0.1025 0.45806 0.97949 0.0
H934 H 0.13207 0.4537 0.01928 0.0
H935 H 0.13212 0.49758 0.0688 0.0
H936 H 0.10253 0.50209 0.02912 0.0
H937 H 0.12675 0.52191 1.00156 0.0
H938 H 0.13922 0.51416 0.7021 0.0
H939 H 0.09587 0.51617 0.67124 0.0
H940 H 0.0788 0.49015 0.90196 0.0
C941 C 0.1748 0.48287 0.96996 0.0
C942 C 0.19809 0.48571 0.93778 0.0
C943 C 0.20023 0.49503 0.86143 0.0
C944 C 0.17966 0.50089 0.8176 0.0
C945 C 0.15701 0.49748 0.85095 0.0
C946 C 0.15454 0.48876 0.92563 0.0
C947 C 0.12831 0.48627 0.94811 0.0
C948 C 0.12203 0.45995 0.96735 0.0
C949 C 0.12207 0.50296 0.01591 0.0
C950 C 0.11626 0.49453 0.87399 0.0
C951 C 0.13304 0.50112 0.81867 0.0
C952 C 0.12601 0.50911 0.74532 0.0
C953 C 0.10129 0.51025 0.72821 0.0
C954 C 0.08378 0.50339 0.78384 0.0
C955 C 0.09158 0.49554 0.8578 0.0
H956 H 0.03193 0.816 0.57679 0.0
H957 H 1.00005 0.82226 0.34761 0.0
H958 H 0.98967 0.86422 0.37428 0.0
H959 H 0.99124 0.85565 0.679 0.0
H960 H 0.01462 0.869 0.73671 0.0
H961 H 0.01773 0.83855 0.70324 0.0
H962 H 0.05837 0.8497 0.64025 0.0
H963 H 0.05528 0.88038 0.67156 0.0
H964 H 0.05973 0.87393 0.57047 0.0
H965 H 0.98392 0.9062 0.4225 0.0
H966 H 0.98446 0.94547 0.48734 0.0
H967 H 0.02249 0.91364 0.68208 0.0
C968 C 0.02281 0.82603 0.53175 0.0
C969 C 0.0166 0.81515 0.4601 0.0
C970 C 1.00445 0.82941 0.40391 0.0
C971 C 0.99864 0.85355 0.41817 0.0
C972 C 1.00527 0.86359 0.48865 0.0
C973 C 0.01722 0.85037 0.54443 0.0
C974 C 0.02347 0.86601 0.61359 0.0
C975 C 0.01101 0.85675 0.68751 0.0
C976 C 0.05084 0.86758 0.62458 0.0
C977 C 0.01314 0.89005 0.58778 0.0
C978 C 1.0026 0.88815 0.51569 0.0
C979 C 0.99209 0.90788 0.47904 0.0
C980 C 0.99249 0.93018 0.51656 0.0
C981 C 1.00347 0.93282 0.5901 0.0
C982 C 0.01383 0.91232 0.62614 0.0
H983 H 0.6844 0.99486 0.43664 0.0
H984 H 0.7248 0.02251 0.63197 0.0
H985 H 0.68774 0.02398 0.70918 0.0
H986 H 0.6327 0.03224 0.4656 0.0
H987 H 0.61134 0.00959 0.43734 0.0
H988 H 0.64131 0.00926 0.39787 0.0
H989 H 0.64701 0.96549 0.44657 0.0
H990 H 0.61702 0.96566 0.48603 0.0
H991 H 0.6422 0.9585 0.54752 0.0
H992 H 0.64599 0.02424 0.76484 0.0
H993 H 0.60267 0.02228 0.79495 0.0
H994 H 0.58872 0.99536 0.56383 0.0
C995 C 0.68555 1.00116 0.49568 0.0
C996 C 0.70789 0.0082 0.52801 0.0
C997 C 0.70827 0.01631 0.60586 0.0
C998 C 0.68718 0.01747 0.65029 0.0
C999 C 0.66558 0.01058 0.61652 0.0
C1000 C 0.66456 1.00254 0.54106 0.0
C1001 C 0.63884 0.99678 0.51832 0.0
C1002 C 0.63057 0.01293 0.45079 0.0
C1003 C 0.63611 0.97001 0.49845 0.0
C1004 C 0.62562 1.00289 0.59274 0.0
C1005 C 0.64141 0.01085 0.64858 0.0
C1006 C 0.63346 0.01794 0.72161 0.0
C1007 C 0.60875 0.01683 0.73813 0.0
C1008 C 0.59214 0.00866 0.68201 0.0
C1009 C 0.60086 1.00157 0.60837 0.0
H1010 H 0.49498 0.69171 0.59664 0.0
H1011 H 0.52897 0.68716 0.36971 0.0
H1012 H 0.54018 0.64561 0.39737 0.0
H1013 H 0.53512 0.6518 0.70242 0.0
H1014 H 0.51131 0.63752 0.75672 0.0
H1015 H 0.50804 0.66821 0.72442 0.0
H1016 H 0.46845 0.65712 0.65527 0.0
H1017 H 0.47162 0.6264 0.68713 0.0
H1018 H 0.46834 0.63314 0.58548 0.0
H1019 H 0.54689 0.60417 0.44505 0.0
H1020 H 0.54623 0.56432 0.50589 0.0
H1021 H 0.50459 0.59273 0.69792 0.0
C1022 C 0.50473 0.6822 0.55219 0.0
C1023 C 0.51138 0.69365 0.48108 0.0
C1024 C 0.5243 0.67985 0.42588 0.0
C1025 C 0.5306 0.65585 0.44063 0.0
C1026 C 0.5236 0.64533 0.51041 0.0
C1027 C 0.51072 0.65788 0.5651 0.0
C1028 C 0.5039 0.64147 0.63284 0.0
C1029 C 0.51528 0.65028 0.70858 0.0
C1030 C 0.47644 0.63942 0.6406 0.0
C1031 C 0.51496 0.61776 0.60717 0.0
C1032 C 0.52646 0.62067 0.53673 0.0
C1033 C 0.53794 0.60166 0.50019 0.0
C1034 C 0.53744 0.57897 0.53566 0.0
C1035 C 0.52531 0.57506 0.60708 0.0
C1036 C 0.51407 0.59495 0.64356 0.0
H1037 H 0.8406 0.52205 0.42546 0.0
H1038 H 0.8038 0.48183 0.60707 0.0
H1039 H 0.84097 0.4805 0.68251 0.0
H1040 H 0.89528 0.48847 0.43677 0.0
H1041 H 0.9147 0.51385 0.41888 0.0
H1042 H 0.88464 0.51369 0.38041 0.0
H1043 H 0.87572 0.55404 0.44866 0.0
H1044 H 0.9058 0.55435 0.48719 0.0
H1045 H 0.88038 0.55647 0.55161 0.0
H1046 H 0.88219 0.48128 0.73667 0.0
H1047 H 0.9252 0.48447 0.76619 0.0
H1048 H 0.93696 0.52297 0.55001 0.0
C1049 C 0.84025 0.51307 0.48122 0.0
C1050 C 0.81877 0.50249 0.51032 0.0
C1051 C 0.81947 0.49087 0.58383 0.0
C1052 C 0.84069 0.48975 0.62718 0.0
C1053 C 0.86139 0.50015 0.59662 0.0
C1054 C 0.86145 0.5116 0.52543 0.0
C1055 C 0.8866 0.52041 0.50516 0.0
C1056 C 0.89584 0.50838 0.4309 0.0
C1057 C 0.88715 0.54796 0.49773 0.0
C1058 C 0.90058 0.51189 0.57581 0.0
C1059 C 0.88555 0.50033 0.62778 0.0
C1060 C 0.89411 0.49043 0.69663 0.0
C1061 C 0.91868 0.49235 0.71298 0.0
C1062 C 0.93464 0.50406 0.661 0.0
C1063 C 0.92532 0.514 0.59137 0.0
loop_
_geom_bond_atom_site_label_1
_geom_bond_atom_site_label_2
_geom_bond_distance
_geom_bond_site_symmetry_2
_ccdc_geom_bond_type
P0 O11 1.490 . S
P0 C14 1.812 . S
P0 C20 1.803 . S
P0 C26 1.819 . S
H1 C15 0.941 . S
H2 C16 0.939 . S
H3 C18 0.940 . S
H4 C19 0.940 . S
H5 C21 0.939 . S
H6 C22 0.942 . S
H7 C24 0.940 . S
H8 C25 0.939 . S
H9 C27 0.941 . S
H10 C31 0.939 . S
O11 P0 1.490 . S
H12 C28 0.939 . S
H13 C30 0.940 . S
C14 P0 1.812 . S
C14 C15 1.389 . S
C14 C19 1.391 . S
C15 H1 0.941 . S
C15 C14 1.389 . S
C15 C16 1.397 . S
C16 H2 0.939 . S
C16 C15 1.397 . S
C16 C17 1.378 . S
C17 C16 1.378 . S
C17 C18 1.378 . S
C18 H3 0.940 . S
C18 C17 1.378 . S
C18 C19 1.396 . S
C19 H4 0.940 . S
C19 C14 1.391 . S
C19 C18 1.396 . S
C20 P0 1.803 . S
C20 C21 1.378 . S
C20 C25 1.400 . S
C21 H5 0.939 . S
C21 C20 1.378 . S
C21 C22 1.361 . S
C22 H6 0.942 . S
C22 C21 1.361 . S
C22 C23 1.369 . S
C23 C22 1.369 . S
C23 C24 1.404 . S
C24 H7 0.940 . S
C24 C23 1.404 . S
C24 C25 1.389 . S
C25 H8 0.939 . S
C25 C20 1.400 . S
C25 C24 1.389 . S
C26 P0 1.819 . S
C26 C27 1.391 . S
C26 C31 1.391 . S
C27 H9 0.941 . S
C27 C26 1.391 . S
C27 C28 1.396 . S
C28 H12 0.939 . S
C28 C27 1.396 . S
C28 C29 1.397 . S
C29 C28 1.397 . S
C29 C30 1.385 . S
C30 H13 0.940 . S
C30 C29 1.385 . S
C30 C31 1.388 . S
C31 H10 0.939 . S
C31 C26 1.391 . S
C31 C30 1.388 . S
P32 O43 1.490 . S
P32 C46 1.812 . S
P32 C52 1.803 . S
P32 C58 1.819 . S
H33 C47 0.941 . S
H34 C48 0.939 . S
H35 C50 0.940 . S
H36 C51 0.950 . S
H37 C53 0.939 . S
H38 C54 0.942 . S
H39 C56 0.940 . S
H40 C57 0.959 . S
H41 C59 0.941 . S
H42 C63 0.929 1_655 S
O43 P32 1.490 . S
H44 C60 0.939 . S
H45 C62 0.940 . S
C46 P32 1.812 . S
C46 C47 1.389 . S
C46 C51 1.375 1_455 S
C47 H33 0.941 . S
C47 C46 1.389 . S
C47 C48 1.397 . S
C48 H34 0.939 . S
C48 C47 1.397 . S
C48 C49 1.378 . S
C49 C48 1.378 . S
C49 C50 1.378 1_455 S
C50 H35 0.940 . S
C50 C49 1.378 1_655 S
C50 C51 1.403 . S
C51 H36 0.950 . S
C51 C46 1.375 1_655 S
C51 C50 1.403 . S
C52 P32 1.803 . S
C52 C53 1.378 . S
C52 C57 1.368 1_455 S
C53 H37 0.939 . S
C53 C52 1.378 . S
C53 C54 1.361 . S
C54 H38 0.942 . S
C54 C53 1.361 . S
C54 C55 1.369 . S
C55 C54 1.369 . S
C55 C56 1.404 1_455 S
C56 H39 0.940 . S
C56 C55 1.404 1_655 S
C56 C57 1.402 . S
C57 H40 0.959 . S
C57 C52 1.368 1_655 S
C57 C56 1.402 . S
C58 P32 1.819 . S
C58 C59 1.391 . S
C58 C63 1.391 . S
C59 H41 0.941 . S
C59 C58 1.391 . S
C59 C60 1.396 . S
C60 H44 0.939 . S
C60 C59 1.396 . S
C60 C61 1.397 . S
C61 C60 1.397 . S
C61 C62 1.385 1_455 S
C62 H45 0.940 . S
C62 C61 1.385 1_655 S
C62 C63 1.388 1_655 S
C63 H42 0.929 1_455 S
C63 C58 1.391 . S
C63 C62 1.388 1_455 S
P64 O75 1.490 . S
P64 C78 1.812 . S
P64 C84 1.803 . S
P64 C90 1.819 . S
H65 C79 0.941 . S
H66 C80 0.939 . S
H67 C82 0.940 . S
H68 C83 0.950 . S
H69 C85 0.939 . S
H70 C86 0.942 . S
H71 C88 0.940 . S
H72 C89 0.959 . S
H73 C91 0.941 . S
H74 C95 0.929 1_565 S
O75 P64 1.490 . S
H76 C92 0.939 . S
H77 C94 0.940 . S
C78 P64 1.812 . S
C78 C79 1.389 . S
C78 C83 1.375 1_545 S
C79 H65 0.941 . S
C79 C78 1.389 . S
C79 C80 1.397 . S
C80 H66 0.939 . S
C80 C79 1.397 . S
C80 C81 1.378 . S
C81 C80 1.378 . S
C81 C82 1.378 1_545 S
C82 H67 0.940 . S
C82 C81 1.378 1_565 S
C82 C83 1.402 . S
C83 H68 0.950 . S
C83 C78 1.375 1_565 S
C83 C82 1.402 . S
C84 P64 1.803 . S
C84 C85 1.378 . S
C84 C89 1.368 1_545 S
C85 H69 0.939 . S
C85 C84 1.378 . S
C85 C86 1.361 . S
C86 H70 0.942 . S
C86 C85 1.361 . S
C86 C87 1.369 . S
C87 C86 1.369 . S
C87 C88 1.404 1_545 S
C88 H71 0.940 . S
C88 C87 1.404 1_565 S
C88 C89 1.402 . S
C89 H72 0.959 . S
C89 C84 1.368 1_565 S
C89 C88 1.402 . S
C90 P64 1.819 . S
C90 C91 1.391 . S
C90 C95 1.391 . S
C91 H73 0.941 . S
C91 C90 1.391 . S
C91 C92 1.396 . S
C92 H76 0.939 . S
C92 C91 1.396 . S
C92 C93 1.397 . S
C93 C92 1.397 . S
C93 C94 1.385 1_545 S
C94 H77 0.940 . S
C94 C93 1.385 1_565 S
C94 C95 1.388 1_565 S
C95 H74 0.929 1_545 S
C95 C90 1.391 . S
C95 C94 1.388 1_545 S
P96 O107 1.490 . S
P96 C110 1.812 . S
P96 C116 1.803 . S
P96 C122 1.819 . S
H97 C111 0.941 . S
H98 C112 0.939 . S
H99 C114 0.940 . S
H100 C115 0.940 . S
H101 C117 0.939 . S
H102 C118 0.942 . S
H103 C120 0.940 . S
H104 C121 0.939 . S
H105 C123 0.941 . S
H106 C127 0.939 . S
O107 P96 1.490 . S
H108 C124 0.939 . S
H109 C126 0.940 . S
C110 P96 1.812 . S
C110 C111 1.389 . S
C110 C115 1.391 . S
C111 H97 0.941 . S
C111 C110 1.389 . S
C111 C112 1.397 . S
C112 H98 0.939 . S
C112 C111 1.397 . S
C112 C113 1.378 . S
C113 C112 1.378 . S
C113 C114 1.378 . S
C114 H99 0.940 . S
C114 C113 1.378 . S
C114 C115 1.396 . S
C115 H100 0.940 . S
C115 C110 1.391 . S
C115 C114 1.396 . S
C116 P96 1.803 . S
C116 C117 1.378 . S
C116 C121 1.400 . S
C117 H101 0.939 . S
C117 C116 1.378 . S
C117 C118 1.361 . S
C118 H102 0.942 . S
C118 C117 1.361 . S
C118 C119 1.369 . S
C119 C118 1.369 . S
C119 C120 1.404 . S
C120 H103 0.940 . S
C120 C119 1.404 . S
C120 C121 1.389 . S
C121 H104 0.939 . S
C121 C116 1.400 . S
C121 C120 1.389 . S
C122 P96 1.819 . S
C122 C123 1.391 . S
C122 C127 1.391 . S
C123 H105 0.941 . S
C123 C122 1.391 . S
C123 C124 1.396 . S
C124 H108 0.939 . S
C124 C123 1.396 . S
C124 C125 1.397 . S
C125 C124 1.397 . S
C125 C126 1.385 . S
C126 H109 0.940 . S
C126 C125 1.385 . S
C126 C127 1.388 . S
C127 H106 0.939 . S
C127 C122 1.391 . S
C127 C126 1.388 . S
P128 O139 1.490 . S
P128 C142 1.812 1_554 S
P128 C148 1.803 . S
P128 C154 1.819 . S
H129 C143 0.941 . S
H130 C144 0.939 . S
H131 C146 0.940 . S
H132 C147 0.940 . S
H133 C149 0.939 . S
H134 C150 0.942 . S
H135 C152 0.940 . S
H136 C153 0.939 . S
H137 C155 0.941 . S
H138 C159 0.939 . S
O139 P128 1.490 . S
H140 C156 0.939 . S
H141 C158 0.940 . S
C142 P128 1.812 1_556 S
C142 C143 1.389 . S
C142 C147 1.391 . S
C143 H129 0.941 . S
C143 C142 1.389 . S
C143 C144 1.397 . S
C144 H130 0.939 . S
C144 C143 1.397 . S
C144 C145 1.378 . S
C145 C144 1.378 . S
C145 C146 1.378 . S
C146 H131 0.940 . S
C146 C145 1.378 . S
C146 C147 1.396 . S
C147 H132 0.940 . S
C147 C142 1.391 . S
C147 C146 1.396 . S
C148 P128 1.803 . S
C148 C149 1.378 . S
C148 C153 1.400 . S
C149 H133 0.939 . S
C149 C148 1.378 . S
C149 C150 1.361 . S
C150 H134 0.942 . S
C150 C149 1.361 . S
C150 C151 1.369 . S
C151 C150 1.369 . S
C151 C152 1.404 . S
C152 H135 0.940 . S
C152 C151 1.404 . S
C152 C153 1.389 . S
C153 H136 0.939 . S
C153 C148 1.400 . S
C153 C152 1.389 . S
C154 P128 1.819 . S
C154 C155 1.391 . S
C154 C159 1.391 . S
C155 H137 0.941 . S
C155 C154 1.391 . S
C155 C156 1.396 . S
C156 H140 0.939 . S
C156 C155 1.396 . S
C156 C157 1.397 . S
C157 C156 1.397 . S
C157 C158 1.385 . S
C158 H141 0.940 . S
C158 C157 1.385 . S
C158 C159 1.388 . S
C159 H138 0.939 . S
C159 C154 1.391 . S
C159 C158 1.388 . S
P160 O171 1.490 . S
P160 C174 1.812 1_554 S
P160 C180 1.803 . S
P160 C186 1.819 . S
H161 C175 0.941 . S
H162 C176 0.939 . S
H163 C178 0.940 . S
H164 C179 0.944 1_554 S
H165 C181 0.939 . S
H166 C182 0.942 . S
H167 C184 0.940 . S
H168 C185 0.953 . S
H169 C187 0.941 . S
H170 C191 0.933 1_655 S
O171 P160 1.490 . S
H172 C188 0.939 . S
H173 C190 0.940 . S
C174 P160 1.812 1_556 S
C174 C175 1.389 . S
C174 C179 1.385 1_455 S
C175 H161 0.941 . S
C175 C174 1.389 . S
C175 C176 1.397 . S
C176 H162 0.939 . S
C176 C175 1.397 . S
C176 C177 1.378 . S
C177 C176 1.378 . S
C177 C178 1.378 1_455 S
C178 H163 0.940 . S
C178 C177 1.378 1_655 S
C178 C179 1.399 . S
C179 H164 0.944 1_556 S
C179 C174 1.385 1_655 S
C179 C178 1.399 . S
C180 P160 1.803 . S
C180 C181 1.378 . S
C180 C185 1.379 1_455 S
C181 H165 0.939 . S
C181 C180 1.378 . S
C181 C182 1.361 . S
C182 H166 0.942 . S
C182 C181 1.361 . S
C182 C183 1.369 . S
C183 C182 1.369 . S
C183 C184 1.404 1_455 S
C184 H167 0.940 . S
C184 C183 1.404 1_655 S
C184 C185 1.398 . S
C185 H168 0.953 . S
C185 C180 1.379 1_655 S
C185 C184 1.398 . S
C186 P160 1.819 . S
C186 C187 1.391 . S
C186 C191 1.391 . S
C187 H169 0.941 . S
C187 C186 1.391 . S
C187 C188 1.396 . S
C188 H172 0.939 . S
C188 C187 1.396 . S
C188 C189 1.397 . S
C189 C188 1.397 . S
C189 C190 1.385 1_455 S
C190 H173 0.940 . S
C190 C189 1.385 1_655 S
C190 C191 1.388 1_655 S
C191 H170 0.933 1_455 S
C191 C186 1.391 . S
C191 C190 1.388 1_455 S
P192 O203 1.490 . S
P192 C206 1.812 1_554 S
P192 C212 1.803 . S
P192 C218 1.819 . S
H193 C207 0.941 . S
H194 C208 0.939 . S
H195 C210 0.940 . S
H196 C211 0.943 . S
H197 C213 0.939 . S
H198 C214 0.942 . S
H199 C216 0.940 . S
H200 C217 0.953 . S
H201 C219 0.941 . S
H202 C223 0.933 1_565 S
O203 P192 1.490 . S
H204 C220 0.939 . S
H205 C222 0.940 . S
C206 P192 1.812 1_556 S
C206 C207 1.389 . S
C206 C211 1.385 1_545 S
C207 H193 0.941 . S
C207 C206 1.389 . S
C207 C208 1.397 . S
C208 H194 0.939 . S
C208 C207 1.397 . S
C208 C209 1.378 . S
C209 C208 1.378 . S
C209 C210 1.378 1_545 S
C210 H195 0.940 . S
C210 C209 1.378 1_565 S
C210 C211 1.399 . S
C211 H196 0.943 . S
C211 C206 1.385 1_565 S
C211 C210 1.399 . S
C212 P192 1.803 . S
C212 C213 1.378 . S
C212 C217 1.379 1_545 S
C213 H197 0.939 . S
C213 C212 1.378 . S
C213 C214 1.361 . S
C214 H198 0.942 . S
C214 C213 1.361 . S
C214 C215 1.369 . S
C215 C214 1.369 . S
C215 C216 1.404 1_545 S
C216 H199 0.940 . S
C216 C215 1.404 1_565 S
C216 C217 1.398 . S
C217 H200 0.953 . S
C217 C212 1.379 1_565 S
C217 C216 1.398 . S
C218 P192 1.819 . S
C218 C219 1.391 . S
C218 C223 1.391 . S
C219 H201 0.941 . S
C219 C218 1.391 . S
C219 C220 1.396 . S
C220 H204 0.939 . S
C220 C219 1.396 . S
C220 C221 1.397 . S
C221 C220 1.397 . S
C221 C222 1.385 1_545 S
C222 H205 0.940 . S
C222 C221 1.385 1_565 S
C222 C223 1.388 1_565 S
C223 H202 0.933 1_545 S
C223 C218 1.391 . S
C223 C222 1.388 1_545 S
P224 O235 1.490 . S
P224 C238 1.812 1_554 S
P224 C244 1.803 . S
P224 C250 1.819 . S
H225 C239 0.941 . S
H226 C240 0.939 . S
H227 C242 0.940 . S
H228 C243 0.940 . S
H229 C245 0.939 . S
H230 C246 0.942 . S
H231 C248 0.940 . S
H232 C249 0.939 . S
H233 C251 0.941 . S
H234 C255 0.939 . S
O235 P224 1.490 . S
H236 C252 0.939 . S
H237 C254 0.940 . S
C238 P224 1.812 1_556 S
C238 C239 1.389 . S
C238 C243 1.391 . S
C239 H225 0.941 . S
C239 C238 1.389 . S
C239 C240 1.397 . S
C240 H226 0.939 . S
C240 C239 1.397 . S
C240 C241 1.378 . S
C241 C240 1.378 . S
C241 C242 1.378 . S
C242 H227 0.940 . S
C242 C241 1.378 . S
C242 C243 1.396 . S
C243 H228 0.940 . S
C243 C238 1.391 . S
C243 C242 1.396 . S
C244 P224 1.803 . S
C244 C245 1.378 . S
C244 C249 1.400 . S
C245 H229 0.939 . S
C245 C244 1.378 . S
C245 C246 1.361 . S
C246 H230 0.942 . S
C246 C245 1.361 . S
C246 C247 1.369 . S
C247 C246 1.369 . S
C247 C248 1.404 . S
C248 H231 0.940 . S
C248 C247 1.404 . S
C248 C249 1.389 . S
C249 H232 0.939 . S
C249 C244 1.400 . S
C249 C248 1.389 . S
C250 P224 1.819 . S
C250 C251 1.391 . S
C250 C255 1.391 . S
C251 H233 0.941 . S
C251 C250 1.391 . S
C251 C252 1.396 . S
C252 H236 0.939 . S
C252 C251 1.396 . S
C252 C253 1.397 . S
C253 C252 1.397 . S
C253 C254 1.385 . S
C254 H237 0.940 . S
C254 C253 1.385 . S
C254 C255 1.388 . S
C255 H234 0.939 . S
C255 C250 1.391 . S
C255 C254 1.388 . S
Tb256 C258 2.809 . S
Tb256 O276 2.484 . S
Tb256 O277 2.440 . S
Tb256 O278 2.658 1_565 S
Tb256 O279 2.409 . S
Tb256 O280 2.378 . S
Tb256 O284 2.325 1_455 S
Tb256 O287 2.341 1_565 S
Tb257 C267 2.809 . S
Tb257 O278 2.325 1_655 S
Tb257 O281 2.341 1_545 S
Tb257 O282 2.484 . S
Tb257 O283 2.440 . S
Tb257 O284 2.658 1_545 S
Tb257 O285 2.409 . S
Tb257 O286 2.378 . S
C258 Tb256 2.809 . S
C258 C259 1.514 . S
C258 O276 1.248 . S
C258 O277 1.266 . S
C259 C258 1.514 . S
C259 C260 1.359 . S
C259 C264 1.348 . S
C260 C259 1.359 . S
C260 C261 1.380 . S
C260 H288 0.929 1_455 S
C261 C260 1.380 . S
C261 C262 1.347 . S
C261 H289 0.931 1_455 S
C262 C261 1.347 . S
C262 C263 1.369 . S
C263 C262 1.369 . S
C263 C264 1.408 . S
C263 H290 0.930 . S
C264 C259 1.348 . S
C264 C263 1.408 . S
C264 H291 0.930 . S
C265 O278 1.281 1_565 S
C265 O279 1.254 . S
C266 O280 1.236 1_655 S
C266 O281 1.266 . S
C267 Tb257 2.809 . S
C267 C268 1.514 . S
C267 O282 1.248 . S
C267 O283 1.266 . S
C268 C267 1.514 . S
C268 C269 1.359 . S
C268 C273 1.348 . S
C269 C268 1.359 . S
C269 C270 1.380 . S
C269 H292 0.929 1_655 S
C270 C269 1.380 . S
C270 C271 1.347 . S
C270 H293 0.931 1_655 S
C271 C270 1.347 . S
C271 C272 1.369 . S
C272 C271 1.369 . S
C272 C273 1.408 . S
C272 H294 0.930 . S
C273 C268 1.348 . S
C273 C272 1.408 . S
C273 H295 0.930 . S
C274 O284 1.281 1_545 S
C274 O285 1.254 . S
C275 O286 1.236 1_455 S
C275 O287 1.266 . S
O276 Tb256 2.484 . S
O276 C258 1.248 . S
O277 Tb256 2.440 . S
O277 C258 1.266 . S
O278 Tb256 2.658 1_545 S
O278 Tb257 2.325 1_455 S
O278 C265 1.281 1_545 S
O279 Tb256 2.409 . S
O279 C265 1.254 . S
O280 Tb256 2.378 . S
O280 C266 1.236 1_455 S
O281 Tb257 2.341 1_565 S
O281 C266 1.266 . S
O282 Tb257 2.484 . S
O282 C267 1.248 . S
O283 Tb257 2.440 . S
O283 C267 1.266 . S
O284 Tb256 2.325 1_655 S
O284 Tb257 2.658 1_565 S
O284 C274 1.281 1_565 S
O285 Tb257 2.409 . S
O285 C274 1.254 . S
O286 Tb257 2.378 . S
O286 C275 1.236 1_655 S
O287 Tb256 2.341 1_545 S
O287 C275 1.266 . S
H288 C260 0.929 1_655 S
H289 C261 0.931 1_655 S
H290 C263 0.930 . S
H291 C264 0.930 . S
H292 C269 0.929 1_455 S
H293 C270 0.931 1_455 S
H294 C272 0.930 . S
H295 C273 0.930 . S
Tb296 C298 2.809 . S
Tb296 O316 2.484 . S
Tb296 O317 2.440 . S
Tb296 O318 2.658 . S
Tb296 O319 2.409 . S
Tb296 O320 2.378 . S
Tb296 O324 2.325 1_545 S
Tb296 O327 2.341 . S
Tb297 C307 2.809 . S
Tb297 O318 2.325 1_565 S
Tb297 O321 2.341 . S
Tb297 O322 2.484 . S
Tb297 O323 2.440 . S
Tb297 O324 2.658 . S
Tb297 O325 2.409 . S
Tb297 O326 2.378 . S
C298 Tb296 2.809 . S
C298 C299 1.514 . S
C298 O316 1.248 . S
C298 O317 1.266 . S
C299 C298 1.514 . S
C299 C300 1.359 . S
C299 C304 1.348 . S
C300 C299 1.359 . S
C300 C301 1.380 . S
C300 H328 0.929 1_545 S
C301 C300 1.380 . S
C301 C302 1.347 . S
C301 H329 0.931 1_545 S
C302 C301 1.347 . S
C302 C303 1.369 . S
C303 C302 1.369 . S
C303 C304 1.408 . S
C303 H330 0.930 . S
C304 C299 1.348 . S
C304 C303 1.408 . S
C304 H331 0.930 . S
C305 O318 1.281 . S
C305 O319 1.254 . S
C306 O320 1.236 1_565 S
C306 O321 1.266 . S
C307 Tb297 2.809 . S
C307 C308 1.514 . S
C307 O322 1.248 . S
C307 O323 1.266 . S
C308 C307 1.514 . S
C308 C309 1.359 . S
C308 C313 1.348 . S
C309 C308 1.359 . S
C309 C310 1.380 . S
C309 H332 0.929 1_565 S
C310 C309 1.380 . S
C310 C311 1.347 . S
C310 H333 0.931 1_565 S
C311 C310 1.347 . S
C311 C312 1.369 . S
C312 C311 1.369 . S
C312 C313 1.408 . S
C312 H334 0.930 . S
C313 C308 1.348 . S
C313 C312 1.408 . S
C313 H335 0.930 . S
C314 O324 1.281 . S
C314 O325 1.254 . S
C315 O326 1.236 1_545 S
C315 O327 1.266 . S
O316 Tb296 2.484 . S
O316 C298 1.248 . S
O317 Tb296 2.440 . S
O317 C298 1.266 . S
O318 Tb296 2.658 . S
O318 Tb297 2.325 1_545 S
O318 C305 1.281 . S
O319 Tb296 2.409 . S
O319 C305 1.254 . S
O320 Tb296 2.378 . S
O320 C306 1.236 1_545 S
O321 Tb297 2.341 . S
O321 C306 1.266 . S
O322 Tb297 2.484 . S
O322 C307 1.248 . S
O323 Tb297 2.440 . S
O323 C307 1.266 . S
O324 Tb296 2.325 1_565 S
O324 Tb297 2.658 . S
O324 C314 1.281 . S
O325 Tb297 2.409 . S
O325 C314 1.254 . S
O326 Tb297 2.378 . S
O326 C315 1.236 1_565 S
O327 Tb296 2.341 . S
O327 C315 1.266 . S
H328 C300 0.929 1_565 S
H329 C301 0.931 1_565 S
H330 C303 0.930 . S
H331 C304 0.930 . S
H332 C309 0.929 1_545 S
H333 C310 0.931 1_545 S
H334 C312 0.930 . S
H335 C313 0.930 . S
Tb336 C338 2.809 . S
Tb336 O356 2.484 . S
Tb336 O357 2.440 . S
Tb336 O358 2.658 . S
Tb336 O359 2.409 . S
Tb336 O360 2.378 . S
Tb336 O364 2.325 . S
Tb336 O367 2.341 . S
Tb337 C347 2.809 . S
Tb337 O358 2.325 . S
Tb337 O361 2.341 . S
Tb337 O362 2.484 . S
Tb337 O363 2.440 . S
Tb337 O364 2.658 . S
Tb337 O365 2.409 . S
Tb337 O366 2.378 . S
C338 Tb336 2.809 . S
C338 C339 1.514 . S
C338 O356 1.248 . S
C338 O357 1.266 . S
C339 C338 1.514 . S
C339 C340 1.359 . S
C339 C344 1.348 . S
C340 C339 1.359 . S
C340 C341 1.380 . S
C340 H368 0.929 . S
C341 C340 1.380 . S
C341 C342 1.347 . S
C341 H369 0.931 . S
C342 C341 1.347 . S
C342 C343 1.369 . S
C343 C342 1.369 . S
C343 C344 1.408 . S
C343 H370 0.930 . S
C344 C339 1.348 . S
C344 C343 1.408 . S
C344 H371 0.930 . S
C345 O358 1.281 . S
C345 O359 1.254 . S
C346 O360 1.236 . S
C346 O361 1.266 . S
C347 Tb337 2.809 . S
C347 C348 1.514 . S
C347 O362 1.248 . S
C347 O363 1.266 . S
C348 C347 1.514 . S
C348 C349 1.359 . S
C348 C353 1.348 . S
C349 C348 1.359 . S
C349 C350 1.380 . S
C349 H372 0.929 . S
C350 C349 1.380 . S
C350 C351 1.347 . S
C350 H373 0.931 . S
C351 C350 1.347 . S
C351 C352 1.369 . S
C352 C351 1.369 . S
C352 C353 1.408 . S
C352 H374 0.930 . S
C353 C348 1.348 . S
C353 C352 1.408 . S
C353 H375 0.930 . S
C354 O364 1.281 . S
C354 O365 1.254 . S
C355 O366 1.236 . S
C355 O367 1.266 . S
O356 Tb336 2.484 . S
O356 C338 1.248 . S
O357 Tb336 2.440 . S
O357 C338 1.266 . S
O358 Tb336 2.658 . S
O358 Tb337 2.325 . S
O358 C345 1.281 . S
O359 Tb336 2.409 . S
O359 C345 1.254 . S
O360 Tb336 2.378 . S
O360 C346 1.236 . S
O361 Tb337 2.341 . S
O361 C346 1.266 . S
O362 Tb337 2.484 . S
O362 C347 1.248 . S
O363 Tb337 2.440 . S
O363 C347 1.266 . S
O364 Tb336 2.325 . S
O364 Tb337 2.658 . S
O364 C354 1.281 . S
O365 Tb337 2.409 . S
O365 C354 1.254 . S
O366 Tb337 2.378 . S
O366 C355 1.236 . S
O367 Tb336 2.341 . S
O367 C355 1.266 . S
H368 C340 0.929 . S
H369 C341 0.931 . S
H370 C343 0.930 . S
H371 C344 0.930 . S
H372 C349 0.929 . S
H373 C350 0.931 . S
H374 C352 0.930 . S
H375 C353 0.930 . S
Tb376 C378 2.809 . S
Tb376 O396 2.484 . S
Tb376 O397 2.440 . S
Tb376 O398 2.658 1_655 S
Tb376 O399 2.409 . S
Tb376 O400 2.378 . S
Tb376 O404 2.325 . S
Tb376 O407 2.341 1_655 S
Tb377 C387 2.809 . S
Tb377 O398 2.325 . S
Tb377 O401 2.341 1_455 S
Tb377 O402 2.484 . S
Tb377 O403 2.440 . S
Tb377 O404 2.658 1_455 S
Tb377 O405 2.409 . S
Tb377 O406 2.378 . S
C378 Tb376 2.809 . S
C378 C379 1.514 . S
C378 O396 1.248 . S
C378 O397 1.266 . S
C379 C378 1.514 . S
C379 C380 1.359 . S
C379 C384 1.348 . S
C380 C379 1.359 . S
C380 C381 1.380 . S
C380 H408 0.929 . S
C381 C380 1.380 . S
C381 C382 1.347 . S
C381 H409 0.931 . S
C382 C381 1.347 . S
C382 C383 1.369 . S
C383 C382 1.369 . S
C383 C384 1.408 . S
C383 H410 0.930 . S
C384 C379 1.348 . S
C384 C383 1.408 . S
C384 H411 0.930 . S
C385 O398 1.276 1_655 S
C385 O399 1.260 . S
C386 O400 1.236 . S
C386 O401 1.266 . S
C387 Tb377 2.809 . S
C387 C388 1.514 . S
C387 O402 1.248 . S
C387 O403 1.266 . S
C388 C387 1.514 . S
C388 C389 1.359 . S
C388 C393 1.348 . S
C389 C388 1.359 . S
C389 C390 1.380 . S
C389 H412 0.929 . S
C390 C389 1.380 . S
C390 C391 1.347 . S
C390 H413 0.931 . S
C391 C390 1.347 . S
C391 C392 1.369 . S
C392 C391 1.369 . S
C392 C393 1.408 . S
C392 H414 0.930 . S
C393 C388 1.348 . S
C393 C392 1.408 . S
C393 H415 0.930 . S
C394 O404 1.273 1_455 S
C394 O405 1.265 . S
C395 O406 1.236 . S
C395 O407 1.266 . S
O396 Tb376 2.484 . S
O396 C378 1.248 . S
O397 Tb376 2.440 . S
O397 C378 1.266 . S
O398 Tb376 2.658 1_455 S
O398 Tb377 2.325 . S
O398 C385 1.276 1_455 S
O399 Tb376 2.409 . S
O399 C385 1.260 . S
O400 Tb376 2.378 . S
O400 C386 1.236 . S
O401 Tb377 2.341 1_655 S
O401 C386 1.266 . S
O402 Tb377 2.484 . S
O402 C387 1.248 . S
O403 Tb377 2.440 . S
O403 C387 1.266 . S
O404 Tb376 2.325 . S
O404 Tb377 2.658 1_655 S
O404 C394 1.273 1_655 S
O405 Tb377 2.409 . S
O405 C394 1.265 . S
O406 Tb377 2.378 . S
O406 C395 1.236 . S
O407 Tb376 2.341 1_455 S
O407 C395 1.266 . S
H408 C380 0.929 . S
H409 C381 0.931 . S
H410 C383 0.930 . S
H411 C384 0.930 . S
H412 C389 0.929 . S
H413 C390 0.931 . S
H414 C392 0.930 . S
H415 C393 0.930 . S
H416 C428 0.930 . S
H417 C430 0.930 . S
H418 C431 0.930 . S
H419 C435 0.959 . S
H420 C435 0.959 . S
H421 C435 0.961 . S
H422 C436 0.960 . S
H423 C436 0.961 . S
H424 C436 0.959 . S
H425 C439 0.929 . S
H426 C440 0.931 . S
H427 C442 0.930 . S
C428 H416 0.930 . S
C428 C429 1.399 1_545 S
C428 C433 1.399 . S
C429 C428 1.399 1_565 S
C429 C430 1.376 . S
C430 H417 0.930 . S
C430 C429 1.376 . S
C430 C431 1.388 . S
C431 H418 0.930 . S
C431 C430 1.388 . S
C431 C432 1.390 . S
C432 C431 1.390 . S
C432 C433 1.394 1_565 S
C432 C438 1.465 . S
C433 C428 1.399 . S
C433 C432 1.394 1_545 S
C433 C434 1.516 . S
C434 C433 1.516 . S
C434 C435 1.502 . S
C434 C436 1.561 . S
C434 C437 1.526 . S
C435 H419 0.959 . S
C435 H420 0.959 . S
C435 H421 0.961 . S
C435 C434 1.502 . S
C436 H422 0.960 . S
C436 H423 0.961 . S
C436 H424 0.959 . S
C436 C434 1.561 . S
C437 C434 1.526 . S
C437 C438 1.396 1_545 S
C437 C442 1.390 . S
C438 C432 1.465 . S
C438 C437 1.396 1_565 S
C438 C439 1.399 . S
C439 H425 0.929 . S
C439 C438 1.399 . S
C439 C440 1.385 . S
C440 H426 0.931 . S
C440 C439 1.385 . S
C440 C441 1.389 . S
C441 C440 1.389 . S
C441 C442 1.387 1_565 S
C442 H427 0.930 . S
C442 C437 1.390 . S
C442 C441 1.387 1_545 S
H443 C455 0.930 . S
H444 C457 0.930 . S
H445 C458 0.930 . S
H446 C462 0.959 . S
H447 C462 0.959 . S
H448 C462 0.961 . S
H449 C463 0.960 . S
H450 C463 0.961 . S
H451 C463 0.959 . S
H452 C466 0.929 . S
H453 C467 0.931 . S
H454 C469 0.930 . S
C455 H443 0.930 . S
C455 C456 1.399 . S
C455 C460 1.399 . S
C456 C455 1.399 . S
C456 C457 1.376 . S
C457 H444 0.930 . S
C457 C456 1.376 . S
C457 C458 1.388 . S
C458 H445 0.930 . S
C458 C457 1.388 . S
C458 C459 1.390 . S
C459 C458 1.390 . S
C459 C460 1.394 . S
C459 C465 1.465 . S
C460 C455 1.399 . S
C460 C459 1.394 . S
C460 C461 1.516 . S
C461 C460 1.516 . S
C461 C462 1.502 . S
C461 C463 1.561 . S
C461 C464 1.526 . S
C462 H446 0.959 . S
C462 H447 0.959 . S
C462 H448 0.961 . S
C462 C461 1.502 . S
C463 H449 0.960 . S
C463 H450 0.961 . S
C463 H451 0.959 . S
C463 C461 1.561 . S
C464 C461 1.526 . S
C464 C465 1.396 . S
C464 C469 1.390 . S
C465 C459 1.465 . S
C465 C464 1.396 . S
C465 C466 1.399 . S
C466 H452 0.929 . S
C466 C465 1.399 . S
C466 C467 1.385 . S
C467 H453 0.931 . S
C467 C466 1.385 . S
C467 C468 1.389 . S
C468 C467 1.389 . S
C468 C469 1.387 . S
C469 H454 0.930 . S
C469 C464 1.390 . S
C469 C468 1.387 . S
H470 C482 0.930 . S
H471 C484 0.930 . S
H472 C485 0.930 . S
H473 C489 0.959 . S
H474 C489 0.959 . S
H475 C489 0.961 . S
H476 C490 0.960 . S
H477 C490 0.961 . S
H478 C490 0.959 . S
H479 C493 0.929 . S
H480 C494 0.931 . S
H481 C496 0.930 . S
C482 H470 0.930 . S
C482 C483 1.399 . S
C482 C487 1.399 . S
C483 C482 1.399 . S
C483 C484 1.376 . S
C484 H471 0.930 . S
C484 C483 1.376 . S
C484 C485 1.388 . S
C485 H472 0.930 . S
C485 C484 1.388 . S
C485 C486 1.390 . S
C486 C485 1.390 . S
C486 C487 1.394 . S
C486 C492 1.465 . S
C487 C482 1.399 . S
C487 C486 1.394 . S
C487 C488 1.516 . S
C488 C487 1.516 . S
C488 C489 1.502 . S
C488 C490 1.561 . S
C488 C491 1.526 . S
C489 H473 0.959 . S
C489 H474 0.959 . S
C489 H475 0.961 . S
C489 C488 1.502 . S
C490 H476 0.960 . S
C490 H477 0.961 . S
C490 H478 0.959 . S
C490 C488 1.561 . S
C491 C488 1.526 . S
C491 C492 1.396 . S
C491 C496 1.390 . S
C492 C486 1.465 . S
C492 C491 1.396 . S
C492 C493 1.399 . S
C493 H479 0.929 . S
C493 C492 1.399 . S
C493 C494 1.385 . S
C494 H480 0.931 . S
C494 C493 1.385 . S
C494 C495 1.389 . S
C495 C494 1.389 . S
C495 C496 1.387 . S
C496 H481 0.930 . S
C496 C491 1.390 . S
C496 C495 1.387 . S
H497 C509 0.928 1_655 S
H498 C511 0.930 . S
H499 C512 0.930 . S
H500 C516 0.959 . S
H501 C516 0.959 . S
H502 C516 0.961 . S
H503 C517 0.960 . S
H504 C517 0.961 . S
H505 C517 0.959 . S
H506 C520 0.929 . S
H507 C521 0.931 . S
H508 C523 0.931 . S
C509 H497 0.928 1_455 S
C509 C510 1.400 . S
C509 C514 1.400 . S
C510 C509 1.400 . S
C510 C511 1.376 . S
C511 H498 0.930 . S
C511 C510 1.376 . S
C511 C512 1.388 . S
C512 H499 0.930 . S
C512 C511 1.388 . S
C512 C513 1.390 . S
C513 C512 1.390 . S
C513 C514 1.394 . S
C513 C519 1.465 . S
C514 C509 1.400 . S
C514 C513 1.394 . S
C514 C515 1.516 . S
C515 C514 1.516 . S
C515 C516 1.502 1_455 S
C515 C517 1.561 . S
C515 C518 1.526 . S
C516 H500 0.959 . S
C516 H501 0.959 . S
C516 H502 0.961 . S
C516 C515 1.502 1_655 S
C517 H503 0.960 . S
C517 H504 0.961 . S
C517 H505 0.959 . S
C517 C515 1.561 . S
C518 C515 1.526 . S
C518 C519 1.396 . S
C518 C523 1.390 . S
C519 C513 1.465 . S
C519 C518 1.396 . S
C519 C520 1.399 . S
C520 H506 0.929 . S
C520 C519 1.399 . S
C520 C521 1.385 . S
C521 H507 0.931 . S
C521 C520 1.385 . S
C521 C522 1.389 . S
C522 C521 1.389 . S
C522 C523 1.387 . S
C523 H508 0.931 . S
C523 C518 1.390 . S
C523 C522 1.387 . S
H524 C536 0.930 . S
H525 C538 0.930 . S
H526 C539 0.930 . S
H527 C543 0.959 . S
H528 C543 0.959 . S
H529 C543 0.961 . S
H530 C544 0.960 . S
H531 C544 0.961 . S
H532 C544 0.959 . S
H533 C547 0.929 . S
H534 C548 0.931 . S
H535 C550 0.930 . S
C536 H524 0.930 . S
C536 C537 1.399 1_565 S
C536 C541 1.399 . S
C537 C536 1.399 1_545 S
C537 C538 1.376 . S
C538 H525 0.930 . S
C538 C537 1.376 . S
C538 C539 1.388 . S
C539 H526 0.930 . S
C539 C538 1.388 . S
C539 C540 1.390 . S
C540 C539 1.390 . S
C540 C541 1.394 1_545 S
C540 C546 1.465 . S
C541 C536 1.399 . S
C541 C540 1.394 1_565 S
C541 C542 1.516 . S
C542 C541 1.516 . S
C542 C543 1.502 . S
C542 C544 1.561 . S
C542 C545 1.526 . S
C543 H527 0.959 . S
C543 H528 0.959 . S
C543 H529 0.961 . S
C543 C542 1.502 . S
C544 H530 0.960 . S
C544 H531 0.961 . S
C544 H532 0.959 . S
C544 C542 1.561 . S
C545 C542 1.526 . S
C545 C546 1.396 1_565 S
C545 C550 1.390 1_554 S
C546 C540 1.465 . S
C546 C545 1.396 1_545 S
C546 C547 1.399 1_554 S
C547 H533 0.929 . S
C547 C546 1.399 1_556 S
C547 C548 1.385 . S
C548 H534 0.931 . S
C548 C547 1.385 . S
C548 C549 1.389 . S
C549 C548 1.389 . S
C549 C550 1.387 1_545 S
C550 H535 0.930 . S
C550 C545 1.390 1_556 S
C550 C549 1.387 1_565 S
H551 C563 0.930 . S
H552 C565 0.930 . S
H553 C566 0.930 . S
H554 C570 0.959 . S
H555 C570 0.959 . S
H556 C570 0.961 . S
H557 C571 0.960 . S
H558 C571 0.961 . S
H559 C571 0.959 . S
H560 C574 0.929 . S
H561 C575 0.931 . S
H562 C577 0.930 . S
C563 H551 0.930 . S
C563 C564 1.399 . S
C563 C568 1.399 . S
C564 C563 1.399 . S
C564 C565 1.376 . S
C565 H552 0.930 . S
C565 C564 1.376 . S
C565 C566 1.388 . S
C566 H553 0.930 . S
C566 C565 1.388 . S
C566 C567 1.390 . S
C567 C566 1.390 . S
C567 C568 1.394 . S
C567 C573 1.465 . S
C568 C563 1.399 . S
C568 C567 1.394 . S
C568 C569 1.516 . S
C569 C568 1.516 . S
C569 C570 1.502 . S
C569 C571 1.561 . S
C569 C572 1.526 . S
C570 H554 0.959 . S
C570 H555 0.959 . S
C570 H556 0.961 . S
C570 C569 1.502 . S
C571 H557 0.960 . S
C571 H558 0.961 . S
C571 H559 0.959 . S
C571 C569 1.561 . S
C572 C569 1.526 . S
C572 C573 1.396 . S
C572 C577 1.390 1_554 S
C573 C567 1.465 . S
C573 C572 1.396 . S
C573 C574 1.399 1_554 S
C574 H560 0.929 . S
C574 C573 1.399 1_556 S
C574 C575 1.385 . S
C575 H561 0.931 . S
C575 C574 1.385 . S
C575 C576 1.389 . S
C576 C575 1.389 . S
C576 C577 1.387 . S
C577 H562 0.930 . S
C577 C572 1.390 1_556 S
C577 C576 1.387 . S
H578 C590 0.930 . S
H579 C592 0.930 . S
H580 C593 0.930 . S
H581 C597 0.959 . S
H582 C597 0.959 . S
H583 C597 0.961 . S
H584 C598 0.960 . S
H585 C598 0.961 1_556 S
H586 C598 0.959 1_556 S
H587 C601 0.929 1_554 S
H588 C602 0.931 . S
H589 C604 0.930 . S
C590 H578 0.930 . S
C590 C591 1.399 . S
C590 C595 1.399 . S
C591 C590 1.399 . S
C591 C592 1.376 . S
C592 H579 0.930 . S
C592 C591 1.376 . S
C592 C593 1.388 . S
C593 H580 0.930 . S
C593 C592 1.388 . S
C593 C594 1.390 . S
C594 C593 1.390 . S
C594 C595 1.394 . S
C594 C600 1.465 . S
C595 C590 1.399 . S
C595 C594 1.394 . S
C595 C596 1.516 . S
C596 C595 1.516 . S
C596 C597 1.502 . S
C596 C598 1.561 . S
C596 C599 1.526 1_554 S
C597 H581 0.959 . S
C597 H582 0.959 . S
C597 H583 0.961 . S
C597 C596 1.502 . S
C598 H584 0.960 . S
C598 H585 0.961 1_554 S
C598 H586 0.959 1_554 S
C598 C596 1.561 . S
C599 C596 1.526 1_556 S
C599 C600 1.396 1_556 S
C599 C604 1.390 . S
C600 C594 1.465 . S
C600 C599 1.396 1_554 S
C600 C601 1.399 1_554 S
C601 H587 0.929 1_556 S
C601 C600 1.399 1_556 S
C601 C602 1.385 . S
C602 H588 0.931 . S
C602 C601 1.385 . S
C602 C603 1.389 . S
C603 C602 1.389 . S
C603 C604 1.387 . S
C604 H589 0.930 . S
C604 C599 1.390 . S
C604 C603 1.387 . S
H605 C617 0.930 . S
H606 C619 0.930 . S
H607 C620 0.930 . S
H608 C624 0.959 . S
H609 C624 0.959 . S
H610 C624 0.961 . S
H611 C625 0.960 . S
H612 C625 0.961 . S
H613 C625 0.959 . S
H614 C628 0.929 . S
H615 C629 0.931 . S
H616 C631 0.930 . S
C617 H605 0.930 . S
C617 C618 1.399 1_455 S
C617 C622 1.399 . S
C618 C617 1.399 1_655 S
C618 C619 1.376 . S
C619 H606 0.930 . S
C619 C618 1.376 . S
C619 C620 1.388 . S
C620 H607 0.930 . S
C620 C619 1.388 . S
C620 C621 1.390 . S
C621 C620 1.390 . S
C621 C622 1.394 1_655 S
C621 C627 1.465 . S
C622 C617 1.399 . S
C622 C621 1.394 1_455 S
C622 C623 1.516 . S
C623 C622 1.516 . S
C623 C624 1.502 . S
C623 C625 1.561 . S
C623 C626 1.526 . S
C624 H608 0.959 . S
C624 H609 0.959 . S
C624 H610 0.961 . S
C624 C623 1.502 . S
C625 H611 0.960 . S
C625 H612 0.961 . S
C625 H613 0.959 . S
C625 C623 1.561 . S
C626 C623 1.526 . S
C626 C627 1.396 1_455 S
C626 C631 1.390 1_554 S
C627 C621 1.465 . S
C627 C626 1.396 1_655 S
C627 C628 1.399 1_554 S
C628 H614 0.929 . S
C628 C627 1.399 1_556 S
C628 C629 1.385 . S
C629 H615 0.931 . S
C629 C628 1.385 . S
C629 C630 1.389 . S
C630 C629 1.389 . S
C630 C631 1.387 1_655 S
C631 H616 0.930 . S
C631 C626 1.390 1_556 S
C631 C630 1.387 1_455 S
H632 C644 0.930 . S
H633 C646 0.930 . S
H634 C647 0.930 . S
H635 C651 0.959 . S
H636 C651 0.959 . S
H637 C651 0.961 . S
H638 C652 0.960 . S
H639 C652 0.961 . S
H640 C652 0.959 . S
H641 C655 0.929 . S
H642 C656 0.931 . S
H643 C658 0.930 . S
C644 H632 0.930 . S
C644 C645 1.399 1_655 S
C644 C649 1.399 . S
C645 C644 1.399 1_455 S
C645 C646 1.376 . S
C646 H633 0.930 . S
C646 C645 1.376 . S
C646 C647 1.388 1_455 S
C647 H634 0.930 . S
C647 C646 1.388 1_655 S
C647 C648 1.390 . S
C648 C647 1.390 . S
C648 C649 1.394 . S
C648 C654 1.465 . S
C649 C644 1.399 . S
C649 C648 1.394 . S
C649 C650 1.516 . S
C650 C649 1.516 . S
C650 C651 1.502 . S
C650 C652 1.561 1_655 S
C650 C653 1.526 . S
C651 H635 0.959 . S
C651 H636 0.959 . S
C651 H637 0.961 . S
C651 C650 1.502 . S
C652 H638 0.960 . S
C652 H639 0.961 . S
C652 H640 0.959 . S
C652 C650 1.561 1_455 S
C653 C650 1.526 . S
C653 C654 1.396 . S
C653 C658 1.390 . S
C654 C648 1.465 . S
C654 C653 1.396 . S
C654 C655 1.399 . S
C655 H641 0.929 . S
C655 C654 1.399 . S
C655 C656 1.385 . S
C656 H642 0.931 . S
C656 C655 1.385 . S
C656 C657 1.389 . S
C657 C656 1.389 . S
C657 C658 1.387 . S
C658 H643 0.930 . S
C658 C653 1.390 . S
C658 C657 1.387 . S
H659 C671 0.930 . S
H660 C673 0.930 . S
H661 C674 0.930 . S
H662 C678 0.959 . S
H663 C678 0.959 . S
H664 C678 0.961 . S
H665 C679 0.960 . S
H666 C679 0.961 . S
H667 C679 0.959 . S
H668 C682 0.929 . S
H669 C683 0.931 . S
H670 C685 0.930 . S
C671 H659 0.930 . S
C671 C672 1.399 1_565 S
C671 C676 1.399 . S
C672 C671 1.399 1_545 S
C672 C673 1.376 . S
C673 H660 0.930 . S
C673 C672 1.376 . S
C673 C674 1.388 . S
C674 H661 0.930 . S
C674 C673 1.388 . S
C674 C675 1.351 1_545 S
C675 C674 1.351 1_565 S
C675 C676 1.428 . S
C675 C681 1.480 . S
C676 C671 1.399 . S
C676 C675 1.428 . S
C676 C677 1.516 . S
C677 C676 1.516 . S
C677 C678 1.502 . S
C677 C679 1.561 . S
C677 C680 1.526 . S
C678 H662 0.959 . S
C678 H663 0.959 . S
C678 H664 0.961 . S
C678 C677 1.502 . S
C679 H665 0.960 . S
C679 H666 0.961 . S
C679 H667 0.959 . S
C679 C677 1.561 . S
C680 C677 1.526 . S
C680 C681 1.396 . S
C680 C685 1.390 . S
C681 C675 1.480 . S
C681 C680 1.396 . S
C681 C682 1.399 1_565 S
C682 H668 0.929 . S
C682 C681 1.399 1_545 S
C682 C683 1.385 1_545 S
C683 H669 0.931 . S
C683 C682 1.385 1_565 S
C683 C684 1.389 . S
C684 C683 1.389 . S
C684 C685 1.387 . S
C685 H670 0.930 . S
C685 C680 1.390 . S
C685 C684 1.387 . S
H686 C698 0.930 . S
H687 C700 0.930 . S
H688 C701 0.930 . S
H689 C705 0.959 . S
H690 C705 0.959 . S
H691 C705 0.961 . S
H692 C706 0.960 . S
H693 C706 0.961 . S
H694 C706 0.959 . S
H695 C709 0.929 . S
H696 C710 0.931 . S
H697 C712 0.930 . S
C698 H686 0.930 . S
C698 C699 1.399 . S
C698 C703 1.399 . S
C699 C698 1.399 . S
C699 C700 1.376 . S
C700 H687 0.930 . S
C700 C699 1.376 . S
C700 C701 1.388 . S
C701 H688 0.930 . S
C701 C700 1.388 . S
C701 C702 1.390 . S
C702 C701 1.390 . S
C702 C703 1.394 . S
C702 C708 1.465 . S
C703 C698 1.399 . S
C703 C702 1.394 . S
C703 C704 1.516 . S
C704 C703 1.516 . S
C704 C705 1.502 . S
C704 C706 1.561 . S
C704 C707 1.526 . S
C705 H689 0.959 . S
C705 H690 0.959 . S
C705 H691 0.961 . S
C705 C704 1.502 . S
C706 H692 0.960 . S
C706 H693 0.961 . S
C706 H694 0.959 . S
C706 C704 1.561 . S
C707 C704 1.526 . S
C707 C708 1.396 . S
C707 C712 1.390 . S
C708 C702 1.465 . S
C708 C707 1.396 . S
C708 C709 1.399 . S
C709 H695 0.929 . S
C709 C708 1.399 . S
C709 C710 1.385 . S
C710 H696 0.931 . S
C710 C709 1.385 . S
C710 C711 1.389 . S
C711 C710 1.389 . S
C711 C712 1.387 . S
C712 H697 0.930 . S
C712 C707 1.390 . S
C712 C711 1.387 . S
H713 C725 0.930 . S
H714 C727 0.930 . S
H715 C728 0.930 . S
H716 C732 0.959 . S
H717 C732 0.959 . S
H718 C732 0.961 . S
H719 C733 0.960 . S
H720 C733 0.961 . S
H721 C733 0.959 . S
H722 C736 0.929 . S
H723 C737 0.931 . S
H724 C739 0.930 . S
C725 H713 0.930 . S
C725 C726 1.399 . S
C725 C730 1.399 . S
C726 C725 1.399 . S
C726 C727 1.376 . S
C727 H714 0.930 . S
C727 C726 1.376 . S
C727 C728 1.388 . S
C728 H715 0.930 . S
C728 C727 1.388 . S
C728 C729 1.390 . S
C729 C728 1.390 . S
C729 C730 1.394 . S
C729 C735 1.465 . S
C730 C725 1.399 . S
C730 C729 1.394 . S
C730 C731 1.516 . S
C731 C730 1.516 . S
C731 C732 1.502 . S
C731 C733 1.561 . S
C731 C734 1.526 . S
C732 H716 0.959 . S
C732 H717 0.959 . S
C732 H718 0.961 . S
C732 C731 1.502 . S
C733 H719 0.960 . S
C733 H720 0.961 . S
C733 H721 0.959 . S
C733 C731 1.561 . S
C734 C731 1.526 . S
C734 C735 1.396 . S
C734 C739 1.390 . S
C735 C729 1.465 . S
C735 C734 1.396 . S
C735 C736 1.399 . S
C736 H722 0.929 . S
C736 C735 1.399 . S
C736 C737 1.385 . S
C737 H723 0.931 . S
C737 C736 1.385 . S
C737 C738 1.389 . S
C738 C737 1.389 . S
C738 C739 1.387 . S
C739 H724 0.930 . S
C739 C734 1.390 . S
C739 C738 1.387 . S
H740 C752 0.930 . S
H741 C754 0.930 . S
H742 C755 0.930 . S
H743 C759 0.959 . S
H744 C759 0.959 . S
H745 C759 0.961 . S
H746 C760 0.960 . S
H747 C760 0.961 . S
H748 C760 0.959 . S
H749 C763 0.929 . S
H750 C764 0.931 . S
H751 C766 0.930 . S
C752 H740 0.930 . S
C752 C753 1.400 . S
C752 C757 1.399 1_655 S
C753 C752 1.400 . S
C753 C754 1.364 1_655 S
C754 H741 0.930 . S
C754 C753 1.364 1_455 S
C754 C755 1.388 . S
C755 H742 0.930 . S
C755 C754 1.388 . S
C755 C756 1.390 . S
C756 C755 1.390 . S
C756 C757 1.394 . S
C756 C762 1.465 . S
C757 C752 1.399 1_455 S
C757 C756 1.394 . S
C757 C758 1.516 . S
C758 C757 1.516 . S
C758 C759 1.502 1_455 S
C758 C760 1.561 . S
C758 C761 1.526 . S
C759 H743 0.959 . S
C759 H744 0.959 . S
C759 H745 0.961 . S
C759 C758 1.502 1_655 S
C760 H746 0.960 . S
C760 H747 0.961 . S
C760 H748 0.959 . S
C760 C758 1.561 . S
C761 C758 1.526 . S
C761 C762 1.396 . S
C761 C766 1.390 . S
C762 C756 1.465 . S
C762 C761 1.396 . S
C762 C763 1.399 1_554 S
C763 H749 0.929 . S
C763 C762 1.399 1_556 S
C763 C764 1.385 . S
C764 H750 0.931 . S
C764 C763 1.385 . S
C764 C765 1.389 . S
C765 C764 1.389 . S
C765 C766 1.387 1_556 S
C766 H751 0.930 . S
C766 C761 1.390 . S
C766 C765 1.387 1_554 S
H767 C779 0.930 . S
H768 C781 0.930 . S
H769 C782 0.930 1_556 S
H770 C786 0.959 . S
H771 C786 0.959 . S
H772 C786 0.961 . S
H773 C787 0.960 . S
H774 C787 0.961 . S
H775 C787 0.959 . S
H776 C790 0.929 . S
H777 C791 0.931 . S
H778 C793 0.930 . S
C779 H767 0.930 . S
C779 C780 1.399 1_545 S
C779 C784 1.399 . S
C780 C779 1.399 1_565 S
C780 C781 1.376 . S
C781 H768 0.930 . S
C781 C780 1.376 . S
C781 C782 1.388 . S
C782 H769 0.930 1_554 S
C782 C781 1.388 . S
C782 C783 1.390 1_565 S
C783 C782 1.390 1_545 S
C783 C784 1.394 . S
C783 C789 1.465 . S
C784 C779 1.399 . S
C784 C783 1.394 . S
C784 C785 1.516 . S
C785 C784 1.516 . S
C785 C786 1.502 . S
C785 C787 1.561 . S
C785 C788 1.526 . S
C786 H770 0.959 . S
C786 H771 0.959 . S
C786 H772 0.961 . S
C786 C785 1.502 . S
C787 H773 0.960 . S
C787 H774 0.961 . S
C787 H775 0.959 . S
C787 C785 1.561 . S
C788 C785 1.526 . S
C788 C789 1.396 . S
C788 C793 1.390 . S
C789 C783 1.465 . S
C789 C788 1.396 . S
C789 C790 1.399 1_554 S
C790 H776 0.929 . S
C790 C789 1.399 1_556 S
C790 C791 1.385 . S
C791 H777 0.931 . S
C791 C790 1.385 . S
C791 C792 1.389 . S
C792 C791 1.389 . S
C792 C793 1.387 1_556 S
C793 H778 0.930 . S
C793 C788 1.390 . S
C793 C792 1.387 1_554 S
H794 C806 0.930 . S
H795 C808 0.930 . S
H796 C809 0.930 . S
H797 C813 0.959 . S
H798 C813 0.959 . S
H799 C813 0.961 . S
H800 C814 0.960 . S
H801 C814 0.961 . S
H802 C814 0.959 . S
H803 C817 0.929 . S
H804 C818 0.931 . S
H805 C820 0.930 . S
C806 H794 0.930 . S
C806 C807 1.399 . S
C806 C811 1.399 . S
C807 C806 1.399 . S
C807 C808 1.376 . S
C808 H795 0.930 . S
C808 C807 1.376 . S
C808 C809 1.388 . S
C809 H796 0.930 . S
C809 C808 1.388 . S
C809 C810 1.390 . S
C810 C809 1.390 . S
C810 C811 1.394 . S
C810 C816 1.465 . S
C811 C806 1.399 . S
C811 C810 1.394 . S
C811 C812 1.516 . S
C812 C811 1.516 . S
C812 C813 1.502 . S
C812 C814 1.561 . S
C812 C815 1.526 . S
C813 H797 0.959 . S
C813 H798 0.959 . S
C813 H799 0.961 . S
C813 C812 1.502 . S
C814 H800 0.960 . S
C814 H801 0.961 . S
C814 H802 0.959 . S
C814 C812 1.561 . S
C815 C812 1.526 . S
C815 C816 1.396 . S
C815 C820 1.390 . S
C816 C810 1.465 . S
C816 C815 1.396 . S
C816 C817 1.399 1_554 S
C817 H803 0.929 . S
C817 C816 1.399 1_556 S
C817 C818 1.385 . S
C818 H804 0.931 . S
C818 C817 1.385 . S
C818 C819 1.389 . S
C819 C818 1.389 . S
C819 C820 1.387 1_556 S
C820 H805 0.930 . S
C820 C815 1.390 . S
C820 C819 1.387 1_554 S
H821 C833 0.930 . S
H822 C835 0.930 . S
H823 C836 0.930 . S
H824 C840 0.959 . S
H825 C840 0.959 . S
H826 C840 0.961 . S
H827 C841 0.960 . S
H828 C841 0.961 . S
H829 C841 0.959 . S
H830 C844 0.929 . S
H831 C845 0.931 . S
H832 C847 0.930 . S
C833 H821 0.930 . S
C833 C834 1.399 . S
C833 C838 1.399 . S
C834 C833 1.399 . S
C834 C835 1.376 . S
C835 H822 0.930 . S
C835 C834 1.376 . S
C835 C836 1.388 . S
C836 H823 0.930 . S
C836 C835 1.388 . S
C836 C837 1.390 . S
C837 C836 1.390 . S
C837 C838 1.394 . S
C837 C843 1.465 . S
C838 C833 1.399 . S
C838 C837 1.394 . S
C838 C839 1.516 . S
C839 C838 1.516 . S
C839 C840 1.502 . S
C839 C841 1.561 . S
C839 C842 1.526 . S
C840 H824 0.959 . S
C840 H825 0.959 . S
C840 H826 0.961 . S
C840 C839 1.502 . S
C841 H827 0.960 . S
C841 H828 0.961 . S
C841 H829 0.959 . S
C841 C839 1.561 . S
C842 C839 1.526 . S
C842 C843 1.396 . S
C842 C847 1.390 . S
C843 C837 1.465 . S
C843 C842 1.396 . S
C843 C844 1.399 1_554 S
C844 H830 0.929 . S
C844 C843 1.399 1_556 S
C844 C845 1.385 . S
C845 H831 0.931 . S
C845 C844 1.385 . S
C845 C846 1.389 . S
C846 C845 1.389 . S
C846 C847 1.387 1_556 S
C847 H832 0.930 . S
C847 C842 1.390 . S
C847 C846 1.387 1_554 S
H848 C860 0.930 . S
H849 C862 0.930 . S
H850 C863 0.930 . S
H851 C867 0.959 . S
H852 C867 0.959 . S
H853 C867 0.961 . S
H854 C868 0.960 . S
H855 C868 0.961 . S
H856 C868 0.976 . S
H857 C871 0.929 . S
H858 C872 0.931 . S
H859 C874 0.930 . S
C860 H848 0.930 . S
C860 C861 1.399 1_655 S
C860 C865 1.399 . S
C861 C860 1.399 1_455 S
C861 C862 1.376 . S
C862 H849 0.930 . S
C862 C861 1.376 . S
C862 C863 1.388 . S
C863 H850 0.930 . S
C863 C862 1.388 . S
C863 C864 1.390 . S
C864 C863 1.390 . S
C864 C865 1.394 1_455 S
C864 C870 1.465 . S
C865 C860 1.399 . S
C865 C864 1.394 1_655 S
C865 C866 1.516 . S
C866 C865 1.516 . S
C866 C867 1.502 . S
C866 C868 1.561 . S
C866 C869 1.526 . S
C867 H851 0.959 . S
C867 H852 0.959 . S
C867 H853 0.961 . S
C867 C866 1.502 . S
C868 H854 0.960 . S
C868 H855 0.961 . S
C868 H856 0.976 . S
C868 C866 1.561 . S
C869 C866 1.526 . S
C869 C870 1.396 1_655 S
C869 C874 1.390 . S
C870 C864 1.465 . S
C870 C869 1.396 1_455 S
C870 C871 1.399 . S
C871 H857 0.929 . S
C871 C870 1.399 . S
C871 C872 1.385 . S
C872 H858 0.931 . S
C872 C871 1.385 . S
C872 C873 1.389 . S
C873 C872 1.389 . S
C873 C874 1.387 1_455 S
C874 H859 0.930 . S
C874 C869 1.390 . S
C874 C873 1.387 1_655 S
H875 C887 0.930 . S
H876 C889 0.930 . S
H877 C890 0.930 . S
H878 C894 0.959 . S
H879 C894 0.959 . S
H880 C894 0.961 . S
H881 C895 0.960 . S
H882 C895 0.961 . S
H883 C895 0.959 . S
H884 C898 0.929 . S
H885 C899 0.931 . S
H886 C901 0.930 . S
C887 H875 0.930 . S
C887 C888 1.394 1_545 S
C887 C892 1.399 . S
C888 C887 1.394 1_565 S
C888 C889 1.382 . S
C889 H876 0.930 . S
C889 C888 1.382 . S
C889 C890 1.388 . S
C890 H877 0.930 . S
C890 C889 1.388 . S
C890 C891 1.390 . S
C891 C890 1.390 . S
C891 C892 1.394 1_565 S
C891 C897 1.465 . S
C892 C887 1.399 . S
C892 C891 1.394 1_545 S
C892 C893 1.516 . S
C893 C892 1.516 . S
C893 C894 1.502 . S
C893 C895 1.561 . S
C893 C896 1.526 . S
C894 H878 0.959 . S
C894 H879 0.959 . S
C894 H880 0.961 . S
C894 C893 1.502 . S
C895 H881 0.960 . S
C895 H882 0.961 . S
C895 H883 0.959 . S
C895 C893 1.561 . S
C896 C893 1.526 . S
C896 C897 1.396 1_545 S
C896 C901 1.390 . S
C897 C891 1.465 . S
C897 C896 1.396 1_565 S
C897 C898 1.399 . S
C898 H884 0.929 . S
C898 C897 1.399 . S
C898 C899 1.385 . S
C899 H885 0.931 . S
C899 C898 1.385 . S
C899 C900 1.389 1_565 S
C900 C899 1.389 1_545 S
C900 C901 1.387 . S
C901 H886 0.930 . S
C901 C896 1.390 . S
C901 C900 1.387 . S
H902 C914 0.930 . S
H903 C916 0.930 . S
H904 C917 0.930 . S
H905 C921 0.959 . S
H906 C921 0.959 . S
H907 C921 0.961 . S
H908 C922 0.960 . S
H909 C922 0.961 . S
H910 C922 0.959 . S
H911 C925 0.929 . S
H912 C926 0.931 . S
H913 C928 0.930 . S
C914 H902 0.930 . S
C914 C915 1.399 . S
C914 C919 1.399 . S
C915 C914 1.399 . S
C915 C916 1.376 . S
C916 H903 0.930 . S
C916 C915 1.376 . S
C916 C917 1.388 . S
C917 H904 0.930 . S
C917 C916 1.388 . S
C917 C918 1.390 . S
C918 C917 1.390 . S
C918 C919 1.394 . S
C918 C924 1.465 . S
C919 C914 1.399 . S
C919 C918 1.394 . S
C919 C920 1.516 . S
C920 C919 1.516 . S
C920 C921 1.502 . S
C920 C922 1.561 . S
C920 C923 1.526 . S
C921 H905 0.959 . S
C921 H906 0.959 . S
C921 H907 0.961 . S
C921 C920 1.502 . S
C922 H908 0.960 . S
C922 H909 0.961 . S
C922 H910 0.959 . S
C922 C920 1.561 . S
C923 C920 1.526 . S
C923 C924 1.396 . S
C923 C928 1.390 . S
C924 C918 1.465 . S
C924 C923 1.396 . S
C924 C925 1.399 . S
C925 H911 0.929 . S
C925 C924 1.399 . S
C925 C926 1.385 . S
C926 H912 0.931 . S
C926 C925 1.385 . S
C926 C927 1.389 . S
C927 C926 1.389 . S
C927 C928 1.387 . S
C928 H913 0.930 . S
C928 C923 1.390 . S
C928 C927 1.387 . S
H929 C941 0.930 . S
H930 C943 0.930 . S
H931 C944 0.930 . S
H932 C948 0.959 . S
H933 C948 0.959 . S
H934 C948 0.961 . S
H935 C949 0.960 . S
H936 C949 0.961 . S
H937 C949 0.959 . S
H938 C952 0.929 . S
H939 C953 0.931 . S
H940 C955 0.930 . S
C941 H929 0.930 . S
C941 C942 1.399 . S
C941 C946 1.399 . S
C942 C941 1.399 . S
C942 C943 1.376 . S
C943 H930 0.930 . S
C943 C942 1.376 . S
C943 C944 1.388 . S
C944 H931 0.930 . S
C944 C943 1.388 . S
C944 C945 1.390 . S
C945 C944 1.390 . S
C945 C946 1.394 . S
C945 C951 1.465 . S
C946 C941 1.399 . S
C946 C945 1.394 . S
C946 C947 1.516 . S
C947 C946 1.516 . S
C947 C948 1.502 . S
C947 C949 1.561 . S
C947 C950 1.526 . S
C948 H932 0.959 . S
C948 H933 0.959 . S
C948 H934 0.961 . S
C948 C947 1.502 . S
C949 H935 0.960 . S
C949 H936 0.961 . S
C949 H937 0.959 . S
C949 C947 1.561 . S
C950 C947 1.526 . S
C950 C951 1.396 . S
C950 C955 1.390 . S
C951 C945 1.465 . S
C951 C950 1.396 . S
C951 C952 1.399 . S
C952 H938 0.929 . S
C952 C951 1.399 . S
C952 C953 1.385 . S
C953 H939 0.931 . S
C953 C952 1.385 . S
C953 C954 1.389 . S
C954 C953 1.389 . S
C954 C955 1.387 . S
C955 H940 0.930 . S
C955 C950 1.390 . S
C955 C954 1.387 . S
H956 C968 0.930 . S
H957 C970 0.930 . S
H958 C971 0.930 . S
H959 C975 0.959 . S
H960 C975 0.959 . S
H961 C975 0.961 . S
H962 C976 0.960 . S
H963 C976 0.961 . S
H964 C976 0.959 1_455 S
H965 C979 0.929 . S
H966 C980 0.931 . S
H967 C982 0.930 . S
C968 H956 0.930 . S
C968 C969 1.397 . S
C968 C973 1.399 . S
C969 C968 1.397 . S
C969 C970 1.379 1_655 S
C970 H957 0.930 . S
C970 C969 1.379 1_455 S
C970 C971 1.388 . S
C971 H958 0.930 . S
C971 C970 1.388 . S
C971 C972 1.390 . S
C972 C971 1.390 . S
C972 C973 1.394 1_455 S
C972 C978 1.465 . S
C973 C968 1.399 . S
C973 C972 1.394 1_655 S
C973 C974 1.516 . S
C974 C973 1.516 . S
C974 C975 1.502 . S
C974 C976 1.561 . S
C974 C977 1.526 . S
C975 H959 0.959 . S
C975 H960 0.959 . S
C975 H961 0.961 . S
C975 C974 1.502 . S
C976 H962 0.960 . S
C976 H963 0.961 . S
C976 H964 0.959 1_655 S
C976 C974 1.561 . S
C977 C974 1.526 . S
C977 C978 1.396 1_655 S
C977 C982 1.390 . S
C978 C972 1.465 . S
C978 C977 1.396 1_455 S
C978 C979 1.399 . S
C979 H965 0.929 . S
C979 C978 1.399 . S
C979 C980 1.385 . S
C980 H966 0.931 . S
C980 C979 1.385 . S
C980 C981 1.389 1_455 S
C981 C980 1.389 1_655 S
C981 C982 1.387 . S
C982 H967 0.930 . S
C982 C977 1.390 . S
C982 C981 1.387 . S
H983 C995 0.930 . S
H984 C997 0.930 . S
H985 C998 0.930 . S
H986 C1002 0.959 . S
H987 C1002 0.959 . S
H988 C1002 0.961 . S
H989 C1003 0.960 . S
H990 C1003 0.961 . S
H991 C1003 0.959 . S
H992 C1006 0.929 . S
H993 C1007 0.931 . S
H994 C1009 0.930 . S
C995 H983 0.930 . S
C995 C996 1.386 1_565 S
C995 C1000 1.399 . S
C996 C995 1.386 1_545 S
C996 C997 1.392 . S
C997 H984 0.930 . S
C997 C996 1.392 . S
C997 C998 1.388 . S
C998 H985 0.930 . S
C998 C997 1.388 . S
C998 C999 1.390 . S
C999 C998 1.390 . S
C999 C1000 1.394 1_545 S
C999 C1005 1.465 . S
C1000 C995 1.399 . S
C1000 C999 1.394 1_565 S
C1000 C1001 1.516 . S
C1001 C1000 1.516 . S
C1001 C1002 1.502 . S
C1001 C1003 1.561 . S
C1001 C1004 1.526 . S
C1002 H986 0.959 . S
C1002 H987 0.959 . S
C1002 H988 0.961 . S
C1002 C1001 1.502 . S
C1003 H989 0.960 . S
C1003 H990 0.961 . S
C1003 H991 0.959 . S
C1003 C1001 1.561 . S
C1004 C1001 1.526 . S
C1004 C1005 1.396 1_565 S
C1004 C1009 1.390 . S
C1005 C999 1.465 . S
C1005 C1004 1.396 1_545 S
C1005 C1006 1.399 . S
C1006 H992 0.929 . S
C1006 C1005 1.399 . S
C1006 C1007 1.385 . S
C1007 H993 0.931 . S
C1007 C1006 1.385 . S
C1007 C1008 1.389 1_545 S
C1008 C1007 1.389 1_565 S
C1008 C1009 1.387 . S
C1009 H994 0.930 . S
C1009 C1004 1.390 . S
C1009 C1008 1.387 . S
H1010 C1022 0.930 . S
H1011 C1024 0.930 . S
H1012 C1025 0.930 . S
H1013 C1029 0.959 . S
H1014 C1029 0.959 . S
H1015 C1029 0.961 . S
H1016 C1030 0.960 . S
H1017 C1030 0.961 . S
H1018 C1030 0.959 . S
H1019 C1033 0.929 . S
H1020 C1034 0.931 . S
H1021 C1036 0.930 . S
C1022 H1010 0.930 . S
C1022 C1023 1.399 . S
C1022 C1027 1.399 . S
C1023 C1022 1.399 . S
C1023 C1024 1.376 . S
C1024 H1011 0.930 . S
C1024 C1023 1.376 . S
C1024 C1025 1.388 . S
C1025 H1012 0.930 . S
C1025 C1024 1.388 . S
C1025 C1026 1.390 . S
C1026 C1025 1.390 . S
C1026 C1027 1.394 . S
C1026 C1032 1.465 . S
C1027 C1022 1.399 . S
C1027 C1026 1.394 . S
C1027 C1028 1.516 . S
C1028 C1027 1.516 . S
C1028 C1029 1.502 . S
C1028 C1030 1.561 . S
C1028 C1031 1.526 . S
C1029 H1013 0.959 . S
C1029 H1014 0.959 . S
C1029 H1015 0.961 . S
C1029 C1028 1.502 . S
C1030 H1016 0.960 . S
C1030 H1017 0.961 . S
C1030 H1018 0.959 . S
C1030 C1028 1.561 . S
C1031 C1028 1.526 . S
C1031 C1032 1.396 . S
C1031 C1036 1.390 . S
C1032 C1026 1.465 . S
C1032 C1031 1.396 . S
C1032 C1033 1.399 . S
C1033 H1019 0.929 . S
C1033 C1032 1.399 . S
C1033 C1034 1.385 . S
C1034 H1020 0.931 . S
C1034 C1033 1.385 . S
C1034 C1035 1.389 . S
C1035 C1034 1.389 . S
C1035 C1036 1.387 . S
C1036 H1021 0.930 . S
C1036 C1031 1.390 . S
C1036 C1035 1.387 . S
H1037 C1049 0.930 . S
H1038 C1051 0.930 . S
H1039 C1052 0.930 . S
H1040 C1056 0.959 . S
H1041 C1056 0.959 . S
H1042 C1056 0.961 . S
H1043 C1057 0.960 . S
H1044 C1057 0.961 . S
H1045 C1057 0.959 . S
H1046 C1060 0.929 . S
H1047 C1061 0.931 . S
H1048 C1063 0.930 . S
C1049 H1037 0.930 . S
C1049 C1050 1.399 . S
C1049 C1054 1.399 . S
C1050 C1049 1.399 . S
C1050 C1051 1.376 . S
C1051 H1038 0.930 . S
C1051 C1050 1.376 . S
C1051 C1052 1.388 . S
C1052 H1039 0.930 . S
C1052 C1051 1.388 . S
C1052 C1053 1.390 . S
C1053 C1052 1.390 . S
C1053 C1054 1.394 . S
C1053 C1059 1.465 . S
C1054 C1049 1.399 . S
C1054 C1053 1.394 . S
C1054 C1055 1.516 . S
C1055 C1054 1.516 . S
C1055 C1056 1.502 . S
C1055 C1057 1.561 . S
C1055 C1058 1.526 . S
C1056 H1040 0.959 . S
C1056 H1041 0.959 . S
C1056 H1042 0.961 . S
C1056 C1055 1.502 . S
C1057 H1043 0.960 . S
C1057 H1044 0.961 . S
C1057 H1045 0.959 . S
C1057 C1055 1.561 . S
C1058 C1055 1.526 . S
C1058 C1059 1.396 . S
C1058 C1063 1.390 . S
C1059 C1053 1.465 . S
C1059 C1058 1.396 . S
C1059 C1060 1.399 . S
C1060 H1046 0.929 . S
C1060 C1059 1.399 . S
C1060 C1061 1.385 . S
C1061 H1047 0.931 . S
C1061 C1060 1.385 . S
C1061 C1062 1.389 . S
C1062 C1061 1.389 . S
C1062 C1063 1.387 . S
C1063 H1048 0.930 . S
C1063 C1058 1.390 . S
C1063 C1062 1.387 . S
C429 C215 2.038 1_565 S
C441 C265 2.164 . S
C468 C305 2.196 . S
C456 C247 2.010 . S
C495 C345 2.202 . S
C483 C151 1.979 . S
C522 C385 2.179 1_455 S
C510 C183 2.027 . S
C549 C274 2.167 . S
C537 C87 1.960 . S
C564 C119 2.014 . S
C576 C314 2.199 . S
C591 C23 2.017 . S
C603 C354 2.190 . S
C618 C55 2.026 1_655 S
C630 C394 2.184 1_655 S
C657 C271 0.449 . S
C645 C189 0.416 . S
C684 C311 0.362 . S
C672 C221 0.383 . S
C711 C351 0.472 . S
C699 C253 0.402 . S
C726 C157 0.335 . S
C738 C391 0.329 . S
C753 C61 0.458 1_655 S
C765 C262 0.515 . S
C792 C302 0.444 . S
C780 C93 0.574 1_565 S
C819 C342 0.501 . S
C807 C125 0.475 . S
C834 C29 0.636 . S
C846 C382 0.356 . S
C861 C177 2.506 . S
C873 C275 2.845 . S
C888 C209 2.505 1_565 S
C900 C315 2.777 . S
C927 C355 2.761 . S
C915 C241 2.490 . S
C954 C395 2.831 . S
C942 C145 2.465 . S
C969 C49 2.518 1_655 S
C981 C266 2.834 . S
C1008 C306 2.780 . S
C996 C81 2.488 . S
C1035 C346 2.786 . S
C1023 C113 2.471 . S
C1050 C17 2.539 . S
C1062 C386 2.807 . S
