# Generated by pormake.
# Topology anh, (6,3)-cn, num edge types: 1
# Building blocks:
#     Node 0, Type 0, BuildingBlock: VOLQOD_clean_sbu_1, # of connection points: 6
#     Node 1, Type 0, BuildingBlock: VOLQOD_clean_sbu_1, # of connection points: 6
#     Node 2, Type 0, BuildingBlock: VOLQOD_clean_sbu_1, # of connection points: 6
#     Node 3, Type 1, BuildingBlock: QEWDON_clean_linker_0, # of connection points: 3
#     Node 4, Type 1, BuildingBlock: QEWDON_clean_linker_0, # of connection points: 3
#     Node 5, Type 1, BuildingBlock: QEWDON_clean_linker_0, # of connection points: 3
#     Node 6, Type 1, BuildingBlock: QEWDON_clean_linker_0, # of connection points: 3
#     Node 7, Type 1, BuildingBlock: QEWDON_clean_linker_0, # of connection points: 3
#     Node 8, Type 1, BuildingBlock: QEWDON_clean_linker_0, # of connection points: 3
#     Edge 9, Type (0, 1), BuildingBlock: XIVTED_clean_linker_0, # of connection points: 2
#     Edge 10, Type (0, 1), BuildingBlock: XIVTED_clean_linker_0, # of connection points: 2
#     Edge 11, Type (0, 1), BuildingBlock: XIVTED_clean_linker_0, # of connection points: 2
#     Edge 12, Type (0, 1), BuildingBlock: XIVTED_clean_linker_0, # of connection points: 2
#     Edge 13, Type (0, 1), BuildingBlock: XIVTED_clean_linker_0, # of connection points: 2
#     Edge 14, Type (0, 1), BuildingBlock: XIVTED_clean_linker_0, # of connection points: 2
#     Edge 15, Type (0, 1), BuildingBlock: XIVTED_clean_linker_0, # of connection points: 2
#     Edge 16, Type (0, 1), BuildingBlock: XIVTED_clean_linker_0, # of connection points: 2
#     Edge 17, Type (0, 1), BuildingBlock: XIVTED_clean_linker_0, # of connection points: 2
#     Edge 18, Type (0, 1), BuildingBlock: XIVTED_clean_linker_0, # of connection points: 2
#     Edge 19, Type (0, 1), BuildingBlock: XIVTED_clean_linker_0, # of connection points: 2
#     Edge 20, Type (0, 1), BuildingBlock: XIVTED_clean_linker_0, # of connection points: 2
#     Edge 21, Type (0, 1), BuildingBlock: XIVTED_clean_linker_0, # of connection points: 2
#     Edge 22, Type (0, 1), BuildingBlock: XIVTED_clean_linker_0, # of connection points: 2
#     Edge 23, Type (0, 1), BuildingBlock: XIVTED_clean_linker_0, # of connection points: 2
#     Edge 24, Type (0, 1), BuildingBlock: XIVTED_clean_linker_0, # of connection points: 2
#     Edge 25, Type (0, 1), BuildingBlock: XIVTED_clean_linker_0, # of connection points: 2
#     Edge 26, Type (0, 1), BuildingBlock: XIVTED_clean_linker_0, # of connection points: 2
# Relax obj value: 0.173
# Max RMSD: 0.224
# Mean RMSD: 0.177
data_MOF--net-anh--node1-VOLQOD_clean_sbu_1--node2-QEWDON_clean_linker_0--edge1-XIVTED_clean_linker_0
_symmetry_space_group_name_H-M    P1
_symmetry_Int_Tables_number       1
_symmetry_cell_setting            triclinic
loop_
_symmetry_equiv_pos_as_xyz
'x, y, z'
_cell_length_a     31.194775
_cell_length_b     31.036083
_cell_length_c     56.097897
_cell_angle_alpha  94.366946
_cell_angle_beta   94.315292
_cell_angle_gamma 120.30596
loop_
_atom_site_label
_atom_site_type_symbol
_atom_site_fract_x
_atom_site_fract_y
_atom_site_fract_z
_atom_type_partial_charge
O0 O 0.0321 0.54118 0.21651 0.0
Zn1 Zn 0.04104 0.56012 0.18312 0.0
O2 O 0.05018 0.51275 0.16256 0.0
Zn3 Zn 0.99295 0.4732 0.13783 0.0
Zn4 Zn 0.06031 0.46922 0.18295 0.0
Zn5 Zn 0.1072 0.54985 0.14586 0.0
O6 O 0.0103 0.48177 0.10368 0.0
O7 O 0.08842 0.5461 0.11053 0.0
O8 O 0.9808 0.5624 0.16967 0.0
O9 O 0.94509 0.49776 0.14035 0.0
O10 O 0.95644 0.40058 0.14307 0.0
O11 O 0.00039 0.39834 0.17559 0.0
O12 O 0.12435 0.46981 0.17749 0.0
O13 O 0.10236 0.62964 0.18707 0.0
O14 O 0.15125 0.5213 0.14944 0.0
O15 O 0.14753 0.62262 0.15991 0.0
C16 C 0.04594 0.5161 0.22849 0.0
C17 C 0.04934 0.51548 0.09601 0.0
C18 C 0.96269 0.37674 0.15919 0.0
C19 C 0.94526 0.53375 0.15294 0.0
C20 C 0.1552 0.49159 0.16263 0.0
C21 C 0.14123 0.64866 0.17637 0.0
O22 O 0.06262 0.49035 0.21839 0.0
O23 O 0.5698 0.0855 0.45478 0.0
Zn24 Zn 0.55467 0.07846 0.48874 0.0
O25 O 0.60676 0.07429 0.5082 0.0
Zn26 Zn 0.64079 0.13121 0.5333 0.0
Zn27 Zn 0.6545 0.07237 0.48757 0.0
Zn28 Zn 0.5762 0.01503 0.52443 0.0
O29 O 0.63038 0.11271 0.56682 0.0
O30 O 0.57777 0.03028 0.56008 0.0
O31 O 0.54873 0.13785 0.50125 0.0
O32 O 0.61343 0.17643 0.5302 0.0
O33 O 0.71303 0.17243 0.52994 0.0
O34 O 0.72263 0.13643 0.49661 0.0
O35 O 0.6602 0.01018 0.49118 0.0
O36 O 0.48814 0.01423 0.48657 0.0
O37 O 0.61164 0.97782 0.51983 0.0
O38 O 0.50461 0.96867 0.51015 0.0
C39 C 0.5999 0.08021 0.44248 0.0
C40 C 0.60229 0.07112 0.57447 0.0
C41 C 0.74007 0.17198 0.51415 0.0
C42 C 0.57677 0.17459 0.51763 0.0
C43 C 0.64201 0.97791 0.50592 0.0
C44 C 0.47443 0.97354 0.49563 0.0
O45 O 0.63293 0.07205 0.4523 0.0
O46 O 0.47661 0.52774 0.77426 0.0
Zn47 Zn 0.4592 0.50667 0.80705 0.0
O48 O 0.51515 0.55119 0.83218 0.0
Zn49 Zn 0.49526 0.58523 0.85501 0.0
Zn50 Zn 0.57151 0.60121 0.81738 0.0
Zn51 Zn 0.53429 0.51213 0.85068 0.0
O52 O 0.51228 0.58112 0.88959 0.0
O53 O 0.52701 0.51843 0.88606 0.0
O54 O 0.3962 0.50726 0.81331 0.0
O55 O 0.42158 0.55489 0.84902 0.0
O56 O 0.52529 0.65728 0.85027 0.0
O57 O 0.5779 0.66972 0.82343 0.0
O58 O 0.63625 0.60456 0.82991 0.0
O59 O 0.44553 0.43515 0.80554 0.0
O60 O 0.60654 0.53793 0.84975 0.0
O61 O 0.4968 0.43977 0.83666 0.0
C62 C 0.51804 0.55627 0.7666 0.0
C63 C 0.52134 0.55017 0.89907 0.0
C64 C 0.55665 0.68571 0.83712 0.0
C65 C 0.38736 0.52667 0.83175 0.0
C66 C 0.64282 0.57463 0.84197 0.0
C67 C 0.46339 0.41457 0.81864 0.0
O68 O 0.55838 0.58353 0.78109 0.0
H69 H 0.58143 0.10381 0.25153 0.0
C70 C 0.54593 0.06903 0.24622 0.0
C71 C 0.51849 0.0414 0.26394 0.0
C72 C 0.5259 0.05326 0.22173 0.0
H73 H 0.45009 0.97735 0.27089 0.0
C74 C 0.47146 -0.00241 0.25702 0.0
C75 C 0.45188 0.98013 0.23259 0.0
C76 C 0.47982 0.0082 0.21512 0.0
C77 C 0.55044 0.08498 0.20286 0.0
H78 H 0.46594 0.99516 0.19614 0.0
C79 C 0.60152 0.10437 0.20092 0.0
C80 C 0.62315 0.13226 0.18201 0.0
C81 C 0.5216 0.09486 0.18614 0.0
H82 H 0.48237 0.08091 0.18743 0.0
C83 C 0.54303 0.12305 0.16768 0.0
H84 H 0.62384 0.09649 0.21361 0.0
C85 C 0.59336 0.14155 0.16555 0.0
H86 H 0.60917 0.1639 0.15119 0.0
H87 H 0.52055 0.13065 0.15499 0.0
H88 H 0.49628 0.57003 0.57502 0.0
C89 C 0.50038 0.53799 0.57001 0.0
C90 C 0.51071 0.51421 0.58801 0.0
C91 C 0.49579 0.52064 0.5455 0.0
H92 H 0.52387 0.45441 0.59522 0.0
C93 C 0.51655 0.47319 0.58133 0.0
C94 C 0.5119 0.45546 0.55695 0.0
C95 C 0.50103 0.47911 0.53914 0.0
C96 C 0.4877 0.54687 0.52633 0.0
H97 H 0.49864 0.46652 0.52025 0.0
C98 C 0.52114 0.59847 0.52617 0.0
C99 C 0.51539 0.62336 0.50731 0.0
C100 C 0.44826 0.51986 0.50743 0.0
H101 H 0.42227 0.47995 0.50716 0.0
C102 C 0.44197 0.54426 0.48878 0.0
H103 H 0.55247 0.61872 0.54042 0.0
C104 C 0.47517 0.59562 0.48868 0.0
H105 H 0.46878 0.61366 0.47418 0.0
H106 H 0.4112 0.52331 0.47436 0.0
H107 H 0.10228 0.62864 0.92107 0.0
C108 C 0.0677 0.62779 0.91577 0.0
C109 C 0.02927 0.60907 0.93051 0.0
C110 C 0.06137 0.64465 0.89392 0.0
H111 H 0.95475 0.59386 0.93444 0.0
C112 C 0.98437 0.60742 0.92307 0.0
C113 C 0.97741 0.62359 0.90117 0.0
C114 C 0.01631 0.64268 0.88686 0.0
C115 C 0.10024 0.6613 0.87755 0.0
H116 H 0.01063 0.65371 0.86957 0.0
C117 C 0.12105 0.63166 0.87158 0.0
C118 C 0.15605 0.64553 0.85505 0.0
C119 C 0.11473 0.70529 0.86682 0.0
H120 H 0.09916 0.72876 0.87115 0.0
C121 C 0.14958 0.7194 0.85045 0.0
H122 H 0.10881 0.59693 0.87929 0.0
C123 C 0.17015 0.68975 0.84454 0.0
H124 H 0.19767 0.70189 0.83206 0.0
H125 H 0.16077 0.75348 0.84235 0.0
H126 H 0.00756 0.54871 0.41603 0.0
C127 C 0.04457 0.58093 0.42221 0.0
C128 C 0.08095 0.59871 0.40634 0.0
C129 C 0.05597 0.60498 0.44603 0.0
H130 H 0.15669 0.65505 0.40224 0.0
C131 C 0.12867 0.6408 0.41446 0.0
C132 C 0.14034 0.66492 0.43817 0.0
C133 C 0.10394 0.64669 0.45382 0.0
C134 C 0.01877 0.58698 0.46327 0.0
H135 H 0.11295 0.66528 0.47219 0.0
C136 C 0.99279 0.53601 0.46679 0.0
C137 C 0.9626 0.52008 0.4855 0.0
C138 C 0.01246 0.62177 0.4778 0.0
H139 H 0.03168 0.66116 0.47525 0.0
C140 C 0.9822 0.60634 0.49607 0.0
H141 H -0.00276 0.50927 0.4553 0.0
C142 C 0.9581 0.55619 0.50019 0.0
H143 H 0.93671 0.5462 0.51525 0.0
H144 H 0.97823 0.63358 0.50744 0.0
H145 H 0.46028 0.98038 0.73935 0.0
C146 C 0.45805 0.01264 0.74625 0.0
C147 C 0.47572 0.055 0.7338 0.0
C148 C 0.43574 0.01083 0.76729 0.0
H149 H 0.48647 0.12969 0.73451 0.0
C150 C 0.47109 0.09574 0.74306 0.0
C151 C 0.4479 0.0939 0.76374 0.0
C152 C 0.43047 0.05137 0.77578 0.0
C153 C 0.418 0.96682 0.78067 0.0
H154 H 0.41288 0.04984 0.7919 0.0
C155 C 0.44962 0.94836 0.78708 0.0
C156 C 0.43422 0.90919 0.80145 0.0
C157 C 0.37024 0.94476 0.78817 0.0
H158 H 0.34512 0.95812 0.7833 0.0
C159 C 0.35447 0.90527 0.80204 0.0
H160 H 0.48686 0.96577 0.78172 0.0
C161 C 0.38627 0.88771 0.80878 0.0
H162 H 0.3732 0.85699 0.81956 0.0
H163 H 0.31758 0.88841 0.80771 0.0
H164 H 0.55493 0.61561 0.09119 0.0
C165 C 0.5876 0.61275 0.0961 0.0
C166 C 0.60865 0.59828 0.07814 0.0
C167 C 0.60808 0.62263 0.12048 0.0
H168 H 0.66754 0.58376 0.07112 0.0
C169 C 0.65044 0.59396 0.08487 0.0
C170 C 0.67077 0.60311 0.10914 0.0
C171 C 0.64977 0.61804 0.12682 0.0
C172 C 0.5842 0.63446 0.13967 0.0
H173 H 0.66434 0.62376 0.14568 0.0
C174 C 0.53263 0.60356 0.14032 0.0
C175 C 0.50957 0.61287 0.159 0.0
C176 C 0.61307 0.67491 0.15805 0.0
H177 H 0.65301 0.69914 0.15795 0.0
C178 C 0.5905 0.68448 0.17665 0.0
H179 H 0.51076 0.57138 0.12655 0.0
C180 C 0.53908 0.65377 0.17717 0.0
H181 H 0.52237 0.6626 0.19157 0.0
H182 H 0.61289 0.71593 0.19068 0.0
H183 H 0.21345 0.48625 0.20004 0.0
H184 H 0.43617 0.57258 0.12022 0.0
H185 H 0.19887 0.48881 0.12319 0.0
H186 H 0.4575 0.58007 0.19773 0.0
H187 H 0.3462 0.52478 0.1205 0.0
H188 H 0.29886 0.50239 0.19895 0.0
C189 C 0.22769 0.48859 0.18287 0.0
C190 C 0.19969 0.48701 0.16172 0.0
C191 C 0.37045 0.53641 0.13747 0.0
C192 C 0.29681 0.50609 0.16035 0.0
C193 C 0.42202 0.56358 0.13731 0.0
C194 C 0.45464 0.5809 0.15902 0.0
C195 C 0.351 0.52693 0.15951 0.0
C196 C 0.43378 0.56852 0.18061 0.0
C197 C 0.2765 0.49825 0.18226 0.0
C198 C 0.21973 0.49058 0.13994 0.0
N199 N 0.38322 0.54277 0.18035 0.0
N200 N 0.26728 0.50061 0.13987 0.0
H201 H 0.78836 0.25356 0.54889 0.0
H202 H 0.99225 0.44988 0.47821 0.0
H203 H 0.80157 0.19835 0.47838 0.0
H204 H 0.8731 0.46674 0.50345 0.0
H205 H 0.94837 0.36246 0.48683 0.0
H206 H 0.85122 0.33857 0.54286 0.0
C207 C 0.80545 0.25892 0.53242 0.0
C208 C 0.78855 0.21883 0.5138 0.0
C209 C 0.9325 0.3859 0.49054 0.0
C210 C 0.86086 0.31599 0.50713 0.0
C211 C 0.95703 0.43562 0.48542 0.0
C212 C 0.93673 0.4665 0.49018 0.0
C213 C 0.88841 0.36764 0.50115 0.0
C214 C 0.89139 0.44556 0.50009 0.0
C215 C 0.84117 0.3075 0.52903 0.0
C216 C 0.81292 0.22824 0.49305 0.0
N217 N 0.86914 0.39774 0.50546 0.0
N218 N 0.84744 0.27626 0.49004 0.0
H219 H 0.58277 0.74062 0.79908 0.0
H220 H 0.45495 0.89107 0.84642 0.0
H221 H 0.53953 0.74219 0.87027 0.0
H222 H 0.49012 0.88538 0.77378 0.0
H223 H 0.50239 0.85125 0.85779 0.0
H224 H 0.56733 0.80891 0.79218 0.0
C225 C 0.57149 0.75633 0.81352 0.0
C226 C 0.56147 0.7351 0.83512 0.0
C227 C 0.50028 0.85914 0.83941 0.0
C228 C 0.54303 0.81244 0.82722 0.0
C229 C 0.47296 0.88162 0.8329 0.0
C230 C 0.46782 0.89057 0.80903 0.0
C231 C 0.5222 0.84485 0.82186 0.0
C232 C 0.49294 0.87878 0.79235 0.0
C233 C 0.56228 0.79503 0.80949 0.0
C234 C 0.54683 0.75685 0.85318 0.0
N235 N 0.51842 0.85575 0.79898 0.0
N236 N 0.53732 0.79375 0.84869 0.0
H237 H 0.86154 0.47779 0.12005 0.0
H238 H 0.75411 0.66098 0.14253 0.0
H239 H 0.93451 0.61077 0.173 0.0
H240 H 0.68094 0.52466 0.09185 0.0
H241 H 0.82067 0.64379 0.15425 0.0
H242 H 0.79495 0.49485 0.10982 0.0
C243 C 0.86355 0.51057 0.1296 0.0
C244 C 0.90381 0.54298 0.14739 0.0
C245 C 0.79006 0.61772 0.14054 0.0
C246 C 0.82747 0.56284 0.13565 0.0
C247 C 0.75206 0.62743 0.13391 0.0
C248 C 0.71213 0.59432 0.11611 0.0
C249 C 0.78795 0.57456 0.12932 0.0
C250 C 0.71146 0.55164 0.10536 0.0
C251 C 0.82543 0.5203 0.12372 0.0
C252 C 0.9042 0.58478 0.15916 0.0
N253 N 0.74878 0.54302 0.11214 0.0
N254 N 0.86662 0.59361 0.15303 0.0
H255 H 0.40497 0.96245 0.45894 0.0
H256 H 0.20085 0.68374 0.4801 0.0
H257 H 0.42788 0.88488 0.51477 0.0
H258 H 0.19245 0.74826 0.41571 0.0
H259 H 0.28113 0.76007 0.4949 0.0
H260 H 0.32327 0.88735 0.4449 0.0
C261 C 0.3927 0.92981 0.46838 0.0
C262 C 0.42342 0.92992 0.48803 0.0
C263 C 0.26184 0.75751 0.4775 0.0
C264 C 0.33013 0.8439 0.47197 0.0
C265 C 0.21602 0.71406 0.46909 0.0
C266 C 0.19014 0.70983 0.44667 0.0
C267 C 0.28171 0.79718 0.46346 0.0
C268 C 0.21155 0.74993 0.433 0.0
C269 C 0.34618 0.88687 0.46025 0.0
C270 C 0.40559 0.88646 0.49949 0.0
N271 N 0.25606 0.79211 0.44167 0.0
N272 N 0.36013 0.8452 0.49127 0.0
H273 H 0.41366 0.35425 0.77563 0.0
H274 H 0.46531 0.1376 0.81045 0.0
H275 H 0.4814 0.35452 0.84571 0.0
H276 H 0.41797 0.14762 0.73783 0.0
H277 H 0.45924 0.21035 0.82489 0.0
H278 H 0.40216 0.27147 0.76286 0.0
C279 C 0.42538 0.33661 0.78845 0.0
C280 C 0.44907 0.36163 0.81169 0.0
C281 C 0.44992 0.1965 0.80581 0.0
C282 C 0.43637 0.26726 0.79714 0.0
C283 C 0.45317 0.15484 0.79757 0.0
C284 C 0.44248 0.13679 0.77288 0.0
C285 C 0.43578 0.22029 0.78925 0.0
C286 C 0.42736 0.16088 0.75697 0.0
C287 C 0.41907 0.2895 0.7811 0.0
C288 C 0.46352 0.33693 0.82753 0.0
N289 N 0.42465 0.20152 0.76541 0.0
N290 N 0.45728 0.29134 0.81991 0.0
H291 H 0.64117 0.9192 0.46667 0.0
H292 H 0.55959 0.6974 0.54621 0.0
H293 H 0.65813 0.93815 0.54437 0.0
H294 H 0.55125 0.67507 0.46866 0.0
H295 H 0.61086 0.78757 0.54588 0.0
H296 H 0.62518 0.83325 0.46686 0.0
C297 C 0.64353 0.90593 0.48376 0.0
C298 C 0.65029 0.93526 0.50553 0.0
C299 C 0.59836 0.76303 0.52891 0.0
C300 C 0.63084 0.83721 0.50595 0.0
C301 C 0.56912 0.71126 0.5291 0.0
C302 C 0.5503 0.67829 0.50739 0.0
C303 C 0.60836 0.78242 0.50684 0.0
C304 C 0.56366 0.69901 0.48579 0.0
C305 C 0.63383 0.85672 0.48388 0.0
C306 C 0.65243 0.9163 0.52719 0.0
N307 N 0.59125 0.74977 0.48603 0.0
N308 N 0.64186 0.8682 0.52685 0.0
H309 H 0.73455 0.65729 0.83746 0.0
H310 H 0.88464 0.54269 0.90265 0.0
H311 H 0.66636 0.51008 0.86095 0.0
H312 H 0.95871 0.68983 0.87927 0.0
H313 H 0.8042 0.53106 0.88694 0.0
H314 H 0.81739 0.67036 0.85133 0.0
C315 C 0.73696 0.62765 0.84533 0.0
C316 C 0.69344 0.58271 0.84821 0.0
C317 C 0.83795 0.56601 0.88524 0.0
C318 C 0.78755 0.59745 0.86416 0.0
C319 C 0.88391 0.57282 0.89443 0.0
C320 C 0.92839 0.61742 0.89242 0.0
C321 C 0.83623 0.60405 0.87391 0.0
C322 C 0.92523 0.65473 0.88106 0.0
C323 C 0.78415 0.63519 0.85331 0.0
C324 C 0.69874 0.54557 0.85854 0.0
N325 N 0.87984 0.64725 0.87224 0.0
N326 N 0.74478 0.55388 0.86619 0.0
H327 H 0.20389 0.71646 0.14883 0.0
H328 H 0.40859 0.89433 0.25492 0.0
H329 H 0.17136 0.69874 0.22206 0.0
H330 H 0.38129 0.95758 0.19351 0.0
H331 H 0.3283 0.81702 0.242 0.0
H332 H 0.27659 0.8005 0.1632 0.0
C333 C 0.21188 0.73052 0.16788 0.0
C334 C 0.18176 0.70094 0.18433 0.0
C335 C 0.34005 0.84814 0.23153 0.0
C336 C 0.26499 0.79568 0.20078 0.0
C337 C 0.38579 0.89249 0.23891 0.0
C338 C 0.40236 0.93299 0.2253 0.0
C339 C 0.31122 0.8436 0.21007 0.0
C340 C 0.37117 0.92724 0.20432 0.0
C341 C 0.25309 0.77831 0.17601 0.0
C342 C 0.19357 0.72068 0.20883 0.0
N343 N 0.32745 0.88313 0.19717 0.0
N344 N 0.23492 0.76661 0.21642 0.0
H345 H 0.63002 0.25801 0.55099 0.0
H346 H 0.45777 0.37468 0.52151 0.0
H347 H 0.50146 0.18603 0.49589 0.0
H348 H 0.58532 0.44097 0.57693 0.0
H349 H 0.47311 0.30595 0.51093 0.0
H350 H 0.61397 0.32583 0.55987 0.0
C351 C 0.59833 0.2564 0.5407 0.0
C352 C 0.56697 0.21607 0.52265 0.0
C353 C 0.49765 0.33554 0.52541 0.0
C354 C 0.54831 0.29419 0.53285 0.0
C355 C 0.48906 0.37483 0.53139 0.0
C356 C 0.52019 0.41342 0.55021 0.0
C357 C 0.53774 0.33509 0.53832 0.0
C358 C 0.5599 0.4116 0.56256 0.0
C359 C 0.58917 0.29531 0.54581 0.0
C360 C 0.52657 0.21634 0.50995 0.0
N361 N 0.5675 0.37313 0.55639 0.0
N362 N 0.51833 0.25486 0.51532 0.0
H363 H 0.33915 0.51675 0.8709 0.0
H364 H 0.17679 0.62046 0.81108 0.0
H365 H 0.3256 0.52806 0.79491 0.0
H366 H 0.18694 0.59995 0.88613 0.0
H367 H 0.22034 0.57481 0.8031 0.0
H368 H 0.27045 0.5318 0.87488 0.0
C369 C 0.32073 0.52124 0.85493 0.0
C370 C 0.33819 0.52178 0.83262 0.0
C371 C 0.21237 0.57971 0.82123 0.0
C372 C 0.26077 0.54082 0.83711 0.0
C373 C 0.18796 0.60617 0.82585 0.0
C374 C 0.17875 0.61459 0.84937 0.0
C375 C 0.22792 0.56184 0.84032 0.0
C376 C 0.19302 0.59425 0.8677 0.0
C377 C 0.28167 0.5301 0.8572 0.0
C378 C 0.31308 0.52746 0.81243 0.0
N379 N 0.2173 0.56932 0.86282 0.0
N380 N 0.27621 0.53795 0.81524 0.0
H381 H 0.88951 0.30902 0.12354 0.0
H382 H 0.7042 0.17876 0.21746 0.0
H383 H 0.93936 0.32956 0.1996 0.0
H384 H 0.66446 0.13336 0.1406 0.0
H385 H 0.79265 0.22523 0.21163 0.0
H386 H 0.81004 0.23585 0.12914 0.0
C387 C 0.88413 0.2974 0.14134 0.0
C388 C 0.92078 0.32583 0.16118 0.0
C389 C 0.76463 0.20435 0.19608 0.0
C390 C 0.82934 0.24287 0.1679 0.0
C391 C 0.71412 0.17769 0.19942 0.0
C392 C 0.67687 0.15313 0.17942 0.0
C393 C 0.7778 0.2067 0.17258 0.0
C394 C 0.6919 0.15304 0.15646 0.0
C395 C 0.83867 0.25564 0.14456 0.0
C396 C 0.91199 0.30885 0.18381 0.0
N397 N 0.74108 0.18011 0.15363 0.0
N398 N 0.86667 0.26914 0.18667 0.0
H399 H 0.97098 0.46283 0.05939 0.0
H400 H 0.11241 0.65082 0.96461 0.0
H401 H 0.12532 0.58402 0.07355 0.0
H402 H 0.96022 0.52574 0.94904 0.0
H403 H 0.11979 0.62297 0.0035 0.0
H404 H 0.96813 0.48121 0.01787 0.0
C405 C 0.00443 0.49294 0.05374 0.0
C406 C 0.04832 0.52215 0.07011 0.0
C407 C 0.08484 0.60144 0.99153 0.0
C408 C 0.04518 0.54369 0.02261 0.0
C409 C 0.0807 0.61721 0.96924 0.0
C410 C 0.03546 0.59092 0.9536 0.0
C411 C 0.04343 0.55908 0.99828 0.0
C412 C -0.00452 0.54784 0.96072 0.0
C413 C 0.00274 0.5035 0.03002 0.0
C414 C 0.09051 0.56066 0.06167 0.0
N415 N 0.00031 0.53347 0.98257 0.0
N416 N 0.08775 0.57053 0.03861 0.0
H417 H 0.65398 0.06808 0.40851 0.0
H418 H 0.47215 0.06115 0.29846 0.0
H419 H 0.53385 0.09724 0.41628 0.0
H420 H 0.60643 0.05861 0.28826 0.0
H421 H 0.49711 0.07778 0.34198 0.0
H422 H 0.64012 0.06709 0.36476 0.0
C423 C 0.62496 0.07457 0.40109 0.0
C424 C 0.59474 0.08227 0.41615 0.0
C425 C 0.52156 0.07416 0.33032 0.0
C426 C 0.57875 0.08115 0.3662 0.0
C427 C 0.50727 0.06471 0.3055 0.0
C428 C 0.53724 0.05835 0.28991 0.0
C429 C 0.56586 0.07653 0.33974 0.0
C430 C 0.58248 0.06347 0.29981 0.0
C431 C 0.61717 0.07411 0.37613 0.0
C432 C 0.55787 0.09071 0.40549 0.0
N433 N 0.59519 0.07164 0.32419 0.0
N434 N 0.55076 0.08956 0.38125 0.0
H435 H 0.59998 0.59204 0.7423 0.0
H436 H 0.44291 0.5259 0.61162 0.0
H437 H 0.43908 0.52288 0.73092 0.0
H438 H 0.58758 0.53933 0.6232 0.0
H439 H 0.44611 0.54258 0.65547 0.0
H440 H 0.60068 0.58987 0.69863 0.0
C441 C 0.56484 0.57672 0.73065 0.0
C442 C 0.51934 0.55721 0.74029 0.0
C443 C 0.47733 0.54237 0.64836 0.0
C444 C 0.52003 0.55512 0.69035 0.0
C445 C 0.47568 0.53328 0.62341 0.0
C446 C 0.51493 0.53104 0.61393 0.0
C447 C 0.51885 0.54994 0.6638 0.0
C448 C 0.55642 0.54041 0.6299 0.0
C449 C 0.56529 0.57541 0.70574 0.0
C450 C 0.47497 0.53786 0.72429 0.0
N451 N 0.55728 0.54935 0.65406 0.0
N452 N 0.47642 0.53731 0.70011 0.0
H453 H 0.61187 0.14904 0.60487 0.0
H454 H 0.53083 0.01169 0.72038 0.0
H455 H 0.57063 0.99319 0.60171 0.0
H456 H 0.47207 0.10213 0.69471 0.0
H457 H 0.56666 0.01571 0.68262 0.0
H458 H 0.58486 0.14554 0.64487 0.0
C459 C 0.59812 0.11439 0.61279 0.0
C460 C 0.59318 0.07121 0.59992 0.0
C461 C 0.54607 0.03477 0.68554 0.0
C462 C 0.56275 0.06731 0.64561 0.0
C463 C 0.52519 0.03225 0.70697 0.0
C464 C 0.49835 0.05686 0.71107 0.0
C465 C 0.54126 0.06314 0.66842 0.0
C466 C 0.49351 0.08374 0.69297 0.0
C467 C 0.58243 0.11239 0.63549 0.0
C468 C 0.5747 0.02718 0.611 0.0
N469 N 0.51512 0.08652 0.67261 0.0
N470 N 0.5601 0.0263 0.63331 0.0
H471 H 0.53903 0.48938 0.9261 0.0
H472 H 0.57654 0.65083 0.05233 0.0
H473 H 0.51723 0.61637 0.93278 0.0
H474 H 0.59226 0.52021 0.04517 0.0
H475 H 0.5487 0.63546 0.00892 0.0
H476 H 0.55342 0.4971 0.96998 0.0
C477 C 0.53701 0.51874 0.93677 0.0
C478 C 0.52722 0.55247 0.92567 0.0
C479 C 0.55795 0.60999 0.01689 0.0
C480 C 0.54386 0.56165 0.97603 0.0
C481 C 0.57357 0.6186 0.04168 0.0
C482 C 0.58734 0.58714 0.05233 0.0
C483 C 0.55608 0.5696 0.00267 0.0
C484 C 0.58304 0.54608 0.03763 0.0
C485 C 0.5452 0.52312 0.96186 0.0
C486 C 0.52486 0.58963 0.9405 0.0
N487 N 0.56814 0.53872 0.01357 0.0
N488 N 0.53344 0.59341 0.96489 0.0
H489 H 0.99215 0.54591 0.25409 0.0
H490 H 0.13525 0.5686 0.38142 0.0
H491 H 0.0955 0.49263 0.26287 0.0
H492 H 0.00074 0.5762 0.37358 0.0
H493 H 0.12114 0.53973 0.33817 0.0
H494 H -0.00559 0.55668 0.2978 0.0
C495 C 0.01514 0.53619 0.26521 0.0
C496 C 0.04405 0.51875 0.25481 0.0
C497 C 0.09433 0.54704 0.34594 0.0
C498 C 0.04702 0.53135 0.30493 0.0
C499 C 0.10245 0.56364 0.37057 0.0
C500 C 0.06925 0.57505 0.38097 0.0
C501 C 0.05316 0.54265 0.33154 0.0
C502 C 0.02712 0.56764 0.36623 0.0
C503 C 0.0162 0.54214 0.29017 0.0
C504 C 0.07272 0.5063 0.27012 0.0
N505 N 0.02063 0.55257 0.34218 0.0
N506 N 0.07399 0.51346 0.29445 0.0
loop_
_geom_bond_atom_site_label_1
_geom_bond_atom_site_label_2
_geom_bond_distance
_geom_bond_site_symmetry_2
_ccdc_geom_bond_type
O0 Zn1 1.953 . S
O0 C16 1.225 . S
Zn1 O0 1.953 . S
Zn1 O2 1.949 . S
Zn1 O8 1.919 1_455 S
Zn1 O13 1.924 . S
O2 Zn1 1.949 . S
O2 Zn3 1.923 1_455 S
O2 Zn4 1.950 . S
O2 Zn5 1.945 . S
Zn3 O2 1.923 1_655 S
Zn3 O6 1.933 1_655 S
Zn3 O9 1.941 . S
Zn3 O10 1.965 . S
Zn4 O2 1.950 . S
Zn4 O11 1.938 . S
Zn4 O12 1.906 . S
Zn4 O22 1.953 . S
Zn5 O2 1.945 . S
Zn5 O7 1.932 . S
Zn5 O14 1.977 . S
Zn5 O15 1.910 . S
O6 Zn3 1.933 1_455 S
O6 C17 1.226 . S
O7 Zn5 1.932 . S
O7 C17 1.307 . S
O8 Zn1 1.919 1_655 S
O8 C19 1.253 . S
O9 Zn3 1.941 . S
O9 C19 1.283 . S
O10 Zn3 1.965 . S
O10 C18 1.303 . S
O11 Zn4 1.938 . S
O11 C18 1.247 1_455 S
O12 Zn4 1.906 . S
O12 C20 1.304 . S
O13 Zn1 1.924 . S
O13 C21 1.311 . S
O14 Zn5 1.977 . S
O14 C20 1.272 . S
O15 Zn5 1.910 . S
O15 C21 1.231 . S
C16 O0 1.225 . S
C16 O22 1.298 . S
C17 O6 1.226 . S
C17 O7 1.307 . S
C18 O10 1.303 . S
C18 O11 1.247 1_655 S
C19 O8 1.253 . S
C19 O9 1.283 . S
C20 O12 1.304 . S
C20 O14 1.272 . S
C21 O13 1.311 . S
C21 O15 1.231 . S
O22 Zn4 1.953 . S
O22 C16 1.298 . S
O23 Zn24 1.953 . S
O23 C39 1.225 . S
Zn24 O23 1.953 . S
Zn24 O25 1.949 . S
Zn24 O31 1.919 . S
Zn24 O36 1.924 . S
O25 Zn24 1.949 . S
O25 Zn26 1.923 . S
O25 Zn27 1.950 . S
O25 Zn28 1.945 . S
Zn26 O25 1.923 . S
Zn26 O29 1.933 . S
Zn26 O32 1.941 . S
Zn26 O33 1.965 . S
Zn27 O25 1.950 . S
Zn27 O34 1.938 . S
Zn27 O35 1.895 1_545 S
Zn27 O45 1.953 . S
Zn28 O25 1.945 . S
Zn28 O30 1.932 . S
Zn28 O37 1.977 1_545 S
Zn28 O38 1.910 1_545 S
O29 Zn26 1.933 . S
O29 C40 1.226 . S
O30 Zn28 1.932 . S
O30 C40 1.307 . S
O31 Zn24 1.919 . S
O31 C42 1.253 . S
O32 Zn26 1.941 . S
O32 C42 1.283 . S
O33 Zn26 1.965 . S
O33 C41 1.303 . S
O34 Zn27 1.938 . S
O34 C41 1.247 . S
O35 Zn27 1.895 1_565 S
O35 C43 1.310 . S
O36 Zn24 1.924 . S
O36 C44 1.311 1_545 S
O37 Zn28 1.977 1_565 S
O37 C43 1.272 . S
O38 Zn28 1.910 1_565 S
O38 C44 1.231 . S
C39 O23 1.225 . S
C39 O45 1.298 . S
C40 O29 1.226 . S
C40 O30 1.307 . S
C41 O33 1.303 . S
C41 O34 1.247 . S
C42 O31 1.253 . S
C42 O32 1.283 . S
C43 O35 1.310 . S
C43 O37 1.272 . S
C44 O36 1.311 1_565 S
C44 O38 1.231 . S
O45 Zn27 1.953 . S
O45 C39 1.298 . S
O46 Zn47 1.953 . S
O46 C62 1.225 . S
Zn47 O46 1.953 . S
Zn47 O48 1.949 . S
Zn47 O54 1.919 . S
Zn47 O59 1.924 . S
O48 Zn47 1.949 . S
O48 Zn49 1.923 . S
O48 Zn50 1.950 . S
O48 Zn51 1.945 . S
Zn49 O48 1.923 . S
Zn49 O52 1.933 . S
Zn49 O55 1.941 . S
Zn49 O56 1.965 . S
Zn50 O48 1.950 . S
Zn50 O57 1.938 . S
Zn50 O58 1.906 . S
Zn50 O68 1.953 . S
Zn51 O48 1.945 . S
Zn51 O53 1.932 . S
Zn51 O60 1.977 . S
Zn51 O61 1.910 . S
O52 Zn49 1.933 . S
O52 C63 1.226 . S
O53 Zn51 1.932 . S
O53 C63 1.307 . S
O54 Zn47 1.919 . S
O54 C65 1.253 . S
O55 Zn49 1.941 . S
O55 C65 1.283 . S
O56 Zn49 1.965 . S
O56 C64 1.303 . S
O57 Zn50 1.938 . S
O57 C64 1.247 . S
O58 Zn50 1.906 . S
O58 C66 1.304 . S
O59 Zn47 1.924 . S
O59 C67 1.311 . S
O60 Zn51 1.977 . S
O60 C66 1.272 . S
O61 Zn51 1.910 . S
O61 C67 1.231 . S
C62 O46 1.225 . S
C62 O68 1.298 . S
C63 O52 1.226 . S
C63 O53 1.307 . S
C64 O56 1.303 . S
C64 O57 1.247 . S
C65 O54 1.253 . S
C65 O55 1.283 . S
C66 O58 1.304 . S
C66 O60 1.272 . S
C67 O59 1.311 . S
C67 O61 1.231 . S
O68 Zn50 1.953 . S
O68 C62 1.298 . S
H69 C70 0.949 . S
C70 H69 0.949 . S
C70 C71 1.395 . S
C70 C72 1.391 . S
C71 C70 1.395 . S
C71 C74 1.390 . S
C72 C70 1.391 . S
C72 C76 1.387 . S
C72 C77 1.491 . S
H73 C74 0.950 1_565 S
C74 C71 1.390 . S
C74 H73 0.950 1_545 S
C74 C75 1.378 . S
C75 C74 1.378 . S
C75 C76 1.409 . S
C76 C72 1.387 . S
C76 C75 1.409 . S
C76 H78 0.951 . S
C77 C72 1.491 . S
C77 C79 1.382 . S
C77 C81 1.404 . S
H78 C76 0.951 . S
C79 C77 1.382 . S
C79 C80 1.390 . S
C79 H84 0.949 . S
C80 C79 1.390 . S
C80 C85 1.399 . S
C81 C77 1.404 . S
C81 H82 0.950 . S
C81 C83 1.375 . S
H82 C81 0.950 . S
C83 C81 1.375 . S
C83 C85 1.382 . S
C83 H87 0.950 . S
H84 C79 0.949 . S
C85 C80 1.399 . S
C85 C83 1.382 . S
C85 H86 0.952 . S
H86 C85 0.952 . S
H87 C83 0.950 . S
H88 C89 0.949 . S
C89 H88 0.949 . S
C89 C90 1.395 . S
C89 C91 1.391 . S
C90 C89 1.395 . S
C90 C93 1.390 . S
C91 C89 1.391 . S
C91 C95 1.387 . S
C91 C96 1.491 . S
H92 C93 0.950 . S
C93 C90 1.390 . S
C93 H92 0.950 . S
C93 C94 1.378 . S
C94 C93 1.378 . S
C94 C95 1.409 . S
C95 C91 1.387 . S
C95 C94 1.409 . S
C95 H97 0.951 . S
C96 C91 1.491 . S
C96 C98 1.382 . S
C96 C100 1.404 . S
H97 C95 0.951 . S
C98 C96 1.382 . S
C98 C99 1.390 . S
C98 H103 0.949 . S
C99 C98 1.390 . S
C99 C104 1.399 . S
C100 C96 1.404 . S
C100 H101 0.950 . S
C100 C102 1.375 . S
H101 C100 0.950 . S
C102 C100 1.375 . S
C102 C104 1.382 . S
C102 H106 0.950 . S
H103 C98 0.949 . S
C104 C99 1.399 . S
C104 C102 1.382 . S
C104 H105 0.952 . S
H105 C104 0.952 . S
H106 C102 0.950 . S
H107 C108 0.949 . S
C108 H107 0.949 . S
C108 C109 1.395 . S
C108 C110 1.391 . S
C109 C108 1.395 . S
C109 C112 1.390 . S
C110 C108 1.391 . S
C110 C114 1.387 . S
C110 C115 1.491 . S
H111 C112 0.950 1_655 S
C112 C109 1.390 . S
C112 H111 0.950 1_455 S
C112 C113 1.378 . S
C113 C112 1.378 . S
C113 C114 1.409 . S
C114 C110 1.387 . S
C114 C113 1.409 . S
C114 H116 0.951 . S
C115 C110 1.491 . S
C115 C117 1.382 . S
C115 C119 1.404 . S
H116 C114 0.951 . S
C117 C115 1.382 . S
C117 C118 1.390 . S
C117 H122 0.949 . S
C118 C117 1.390 . S
C118 C123 1.399 . S
C119 C115 1.404 . S
C119 H120 0.950 . S
C119 C121 1.375 . S
H120 C119 0.950 . S
C121 C119 1.375 . S
C121 C123 1.382 . S
C121 H125 0.950 . S
H122 C117 0.949 . S
C123 C118 1.399 . S
C123 C121 1.382 . S
C123 H124 0.952 . S
H124 C123 0.952 . S
H125 C121 0.950 . S
H126 C127 0.949 1_655 S
C127 H126 0.949 1_455 S
C127 C128 1.395 . S
C127 C129 1.391 . S
C128 C127 1.395 . S
C128 C131 1.390 . S
C129 C127 1.391 . S
C129 C133 1.387 . S
C129 C134 1.491 1_455 S
H130 C131 0.950 . S
C131 C128 1.390 . S
C131 H130 0.950 . S
C131 C132 1.378 . S
C132 C131 1.378 . S
C132 C133 1.409 . S
C133 C129 1.387 . S
C133 C132 1.409 . S
C133 H135 0.951 . S
C134 C129 1.491 1_655 S
C134 C136 1.382 . S
C134 C138 1.404 . S
H135 C133 0.951 . S
C136 C134 1.382 . S
C136 C137 1.390 . S
C136 H141 0.949 . S
C137 C136 1.390 . S
C137 C142 1.399 . S
C138 C134 1.404 . S
C138 H139 0.950 . S
C138 C140 1.375 . S
H139 C138 0.950 . S
C140 C138 1.375 . S
C140 C142 1.382 . S
C140 H144 0.950 . S
H141 C136 0.949 . S
C142 C137 1.399 . S
C142 C140 1.382 . S
C142 H143 0.952 . S
H143 C142 0.952 . S
H144 C140 0.950 . S
H145 C146 0.949 1_565 S
C146 H145 0.949 1_545 S
C146 C147 1.395 . S
C146 C148 1.391 . S
C147 C146 1.395 . S
C147 C150 1.390 . S
C148 C146 1.391 . S
C148 C152 1.387 . S
C148 C153 1.491 1_545 S
H149 C150 0.950 . S
C150 C147 1.390 . S
C150 H149 0.950 . S
C150 C151 1.378 . S
C151 C150 1.378 . S
C151 C152 1.409 . S
C152 C148 1.387 . S
C152 C151 1.409 . S
C152 H154 0.951 . S
C153 C148 1.491 1_565 S
C153 C155 1.382 . S
C153 C157 1.404 . S
H154 C152 0.951 . S
C155 C153 1.382 . S
C155 C156 1.390 . S
C155 H160 0.949 . S
C156 C155 1.390 . S
C156 C161 1.399 . S
C157 C153 1.404 . S
C157 H158 0.950 1_565 S
C157 C159 1.375 . S
H158 C157 0.950 1_545 S
C159 C157 1.375 . S
C159 C161 1.382 . S
C159 H163 0.950 . S
H160 C155 0.949 . S
C161 C156 1.399 . S
C161 C159 1.382 . S
C161 H162 0.952 . S
H162 C161 0.952 . S
H163 C159 0.950 . S
H164 C165 0.949 . S
C165 H164 0.949 . S
C165 C166 1.395 . S
C165 C167 1.391 . S
C166 C165 1.395 . S
C166 C169 1.390 . S
C167 C165 1.391 . S
C167 C171 1.387 . S
C167 C172 1.491 . S
H168 C169 0.950 . S
C169 C166 1.390 . S
C169 H168 0.950 . S
C169 C170 1.378 . S
C170 C169 1.378 . S
C170 C171 1.409 . S
C171 C167 1.387 . S
C171 C170 1.409 . S
C171 H173 0.951 . S
C172 C167 1.491 . S
C172 C174 1.382 . S
C172 C176 1.404 . S
H173 C171 0.951 . S
C174 C172 1.382 . S
C174 C175 1.390 . S
C174 H179 0.949 . S
C175 C174 1.390 . S
C175 C180 1.399 . S
C176 C172 1.404 . S
C176 H177 0.950 . S
C176 C178 1.375 . S
H177 C176 0.950 . S
C178 C176 1.375 . S
C178 C180 1.382 . S
C178 H182 0.950 . S
H179 C174 0.949 . S
C180 C175 1.399 . S
C180 C178 1.382 . S
C180 H181 0.952 . S
H181 C180 0.952 . S
H182 C178 0.950 . S
H183 C189 0.930 . S
H184 C193 0.930 . S
H185 C198 0.929 . S
H186 C196 0.929 . S
H187 C191 0.929 . S
H188 C197 0.929 . S
C189 H183 0.930 . S
C189 C190 1.367 . S
C189 C197 1.378 . S
C190 C189 1.367 . S
C190 C198 1.433 . S
C191 H187 0.929 . S
C191 C193 1.378 . S
C191 C195 1.350 . S
C192 C195 1.463 . S
C192 C197 1.350 . S
C192 N200 1.427 . S
C193 H184 0.930 . S
C193 C191 1.378 . S
C193 C194 1.367 . S
C194 C193 1.367 . S
C194 C196 1.433 . S
C195 C191 1.350 . S
C195 C192 1.463 . S
C195 N199 1.427 . S
C196 H186 0.929 . S
C196 C194 1.433 . S
C196 N199 1.384 . S
C197 H188 0.929 . S
C197 C189 1.378 . S
C197 C192 1.350 . S
C198 H185 0.929 . S
C198 C190 1.433 . S
C198 N200 1.384 . S
N199 C195 1.427 . S
N199 C196 1.384 . S
N200 C192 1.427 . S
N200 C198 1.384 . S
H201 C207 0.930 . S
H202 C211 0.930 . S
H203 C216 0.929 . S
H204 C214 0.929 . S
H205 C209 0.929 . S
H206 C215 0.929 . S
C207 H201 0.930 . S
C207 C208 1.367 . S
C207 C215 1.378 . S
C208 C207 1.367 . S
C208 C216 1.433 . S
C209 H205 0.929 . S
C209 C211 1.378 . S
C209 C213 1.350 . S
C210 C213 1.463 . S
C210 C215 1.350 . S
C210 N218 1.427 . S
C211 H202 0.930 . S
C211 C209 1.378 . S
C211 C212 1.367 . S
C212 C211 1.367 . S
C212 C214 1.433 . S
C213 C209 1.350 . S
C213 C210 1.463 . S
C213 N217 1.427 . S
C214 H204 0.929 . S
C214 C212 1.433 . S
C214 N217 1.384 . S
C215 H206 0.929 . S
C215 C207 1.378 . S
C215 C210 1.350 . S
C216 H203 0.929 . S
C216 C208 1.433 . S
C216 N218 1.384 . S
N217 C213 1.427 . S
N217 C214 1.384 . S
N218 C210 1.427 . S
N218 C216 1.384 . S
H219 C225 0.930 . S
H220 C229 0.930 . S
H221 C234 0.929 . S
H222 C232 0.929 . S
H223 C227 0.929 . S
H224 C233 0.929 . S
C225 H219 0.930 . S
C225 C226 1.367 . S
C225 C233 1.378 . S
C226 C225 1.367 . S
C226 C234 1.433 . S
C227 H223 0.929 . S
C227 C229 1.378 . S
C227 C231 1.350 . S
C228 C231 1.463 . S
C228 C233 1.350 . S
C228 N236 1.427 . S
C229 H220 0.930 . S
C229 C227 1.378 . S
C229 C230 1.367 . S
C230 C229 1.367 . S
C230 C232 1.433 . S
C231 C227 1.350 . S
C231 C228 1.463 . S
C231 N235 1.427 . S
C232 H222 0.929 . S
C232 C230 1.433 . S
C232 N235 1.384 . S
C233 H224 0.929 . S
C233 C225 1.378 . S
C233 C228 1.350 . S
C234 H221 0.929 . S
C234 C226 1.433 . S
C234 N236 1.384 . S
N235 C231 1.427 . S
N235 C232 1.384 . S
N236 C228 1.427 . S
N236 C234 1.384 . S
H237 C243 0.930 . S
H238 C247 0.930 . S
H239 C252 0.929 . S
H240 C250 0.929 . S
H241 C245 0.929 . S
H242 C251 0.929 . S
C243 H237 0.930 . S
C243 C244 1.367 . S
C243 C251 1.378 . S
C244 C243 1.367 . S
C244 C252 1.433 . S
C245 H241 0.929 . S
C245 C247 1.378 . S
C245 C249 1.350 . S
C246 C249 1.463 . S
C246 C251 1.350 . S
C246 N254 1.427 . S
C247 H238 0.930 . S
C247 C245 1.378 . S
C247 C248 1.367 . S
C248 C247 1.367 . S
C248 C250 1.433 . S
C249 C245 1.350 . S
C249 C246 1.463 . S
C249 N253 1.427 . S
C250 H240 0.929 . S
C250 C248 1.433 . S
C250 N253 1.384 . S
C251 H242 0.929 . S
C251 C243 1.378 . S
C251 C246 1.350 . S
C252 H239 0.929 . S
C252 C244 1.433 . S
C252 N254 1.384 . S
N253 C249 1.427 . S
N253 C250 1.384 . S
N254 C246 1.427 . S
N254 C252 1.384 . S
H255 C261 0.930 . S
H256 C265 0.930 . S
H257 C270 0.929 . S
H258 C268 0.929 . S
H259 C263 0.929 . S
H260 C269 0.929 . S
C261 H255 0.930 . S
C261 C262 1.367 . S
C261 C269 1.378 . S
C262 C261 1.367 . S
C262 C270 1.433 . S
C263 H259 0.929 . S
C263 C265 1.378 . S
C263 C267 1.350 . S
C264 C267 1.463 . S
C264 C269 1.350 . S
C264 N272 1.427 . S
C265 H256 0.930 . S
C265 C263 1.378 . S
C265 C266 1.367 . S
C266 C265 1.367 . S
C266 C268 1.433 . S
C267 C263 1.350 . S
C267 C264 1.463 . S
C267 N271 1.427 . S
C268 H258 0.929 . S
C268 C266 1.433 . S
C268 N271 1.384 . S
C269 H260 0.929 . S
C269 C261 1.378 . S
C269 C264 1.350 . S
C270 H257 0.929 . S
C270 C262 1.433 . S
C270 N272 1.384 . S
N271 C267 1.427 . S
N271 C268 1.384 . S
N272 C264 1.427 . S
N272 C270 1.384 . S
H273 C279 0.930 . S
H274 C283 0.930 . S
H275 C288 0.929 . S
H276 C286 0.929 . S
H277 C281 0.929 . S
H278 C287 0.929 . S
C279 H273 0.930 . S
C279 C280 1.367 . S
C279 C287 1.378 . S
C280 C279 1.367 . S
C280 C288 1.433 . S
C281 H277 0.929 . S
C281 C283 1.378 . S
C281 C285 1.350 . S
C282 C285 1.463 . S
C282 C287 1.350 . S
C282 N290 1.427 . S
C283 H274 0.930 . S
C283 C281 1.378 . S
C283 C284 1.367 . S
C284 C283 1.367 . S
C284 C286 1.433 . S
C285 C281 1.350 . S
C285 C282 1.463 . S
C285 N289 1.427 . S
C286 H276 0.929 . S
C286 C284 1.433 . S
C286 N289 1.384 . S
C287 H278 0.929 . S
C287 C279 1.378 . S
C287 C282 1.350 . S
C288 H275 0.929 . S
C288 C280 1.433 . S
C288 N290 1.384 . S
N289 C285 1.427 . S
N289 C286 1.384 . S
N290 C282 1.427 . S
N290 C288 1.384 . S
H291 C297 0.930 . S
H292 C301 0.930 . S
H293 C306 0.929 . S
H294 C304 0.929 . S
H295 C299 0.929 . S
H296 C305 0.929 . S
C297 H291 0.930 . S
C297 C298 1.367 . S
C297 C305 1.378 . S
C298 C297 1.367 . S
C298 C306 1.433 . S
C299 H295 0.929 . S
C299 C301 1.378 . S
C299 C303 1.350 . S
C300 C303 1.463 . S
C300 C305 1.350 . S
C300 N308 1.427 . S
C301 H292 0.930 . S
C301 C299 1.378 . S
C301 C302 1.367 . S
C302 C301 1.367 . S
C302 C304 1.433 . S
C303 C299 1.350 . S
C303 C300 1.463 . S
C303 N307 1.427 . S
C304 H294 0.929 . S
C304 C302 1.433 . S
C304 N307 1.384 . S
C305 H296 0.929 . S
C305 C297 1.378 . S
C305 C300 1.350 . S
C306 H293 0.929 . S
C306 C298 1.433 . S
C306 N308 1.384 . S
N307 C303 1.427 . S
N307 C304 1.384 . S
N308 C300 1.427 . S
N308 C306 1.384 . S
H309 C315 0.930 . S
H310 C319 0.930 . S
H311 C324 0.929 . S
H312 C322 0.929 1_455 S
H313 C317 0.929 . S
H314 C323 0.929 . S
C315 H309 0.930 . S
C315 C316 1.367 . S
C315 C323 1.378 . S
C316 C315 1.367 . S
C316 C324 1.433 . S
C317 H313 0.929 . S
C317 C319 1.378 . S
C317 C321 1.350 . S
C318 C321 1.463 . S
C318 C323 1.350 . S
C318 N326 1.427 . S
C319 H310 0.930 . S
C319 C317 1.378 . S
C319 C320 1.367 . S
C320 C319 1.367 . S
C320 C322 1.433 . S
C321 C317 1.350 . S
C321 C318 1.463 . S
C321 N325 1.427 . S
C322 H312 0.929 1_655 S
C322 C320 1.433 . S
C322 N325 1.384 . S
C323 H314 0.929 . S
C323 C315 1.378 . S
C323 C318 1.350 . S
C324 H311 0.929 . S
C324 C316 1.433 . S
C324 N326 1.384 . S
N325 C321 1.427 . S
N325 C322 1.384 . S
N326 C318 1.427 . S
N326 C324 1.384 . S
H327 C333 0.930 . S
H328 C337 0.930 . S
H329 C342 0.929 . S
H330 C340 0.929 1_545 S
H331 C335 0.929 . S
H332 C341 0.929 . S
C333 H327 0.930 . S
C333 C334 1.367 . S
C333 C341 1.378 . S
C334 C333 1.367 . S
C334 C342 1.433 . S
C335 H331 0.929 . S
C335 C337 1.378 . S
C335 C339 1.350 . S
C336 C339 1.463 . S
C336 C341 1.350 . S
C336 N344 1.427 . S
C337 H328 0.930 . S
C337 C335 1.378 . S
C337 C338 1.367 . S
C338 C337 1.367 . S
C338 C340 1.433 . S
C339 C335 1.350 . S
C339 C336 1.463 . S
C339 N343 1.427 . S
C340 H330 0.929 1_565 S
C340 C338 1.433 . S
C340 N343 1.384 . S
C341 H332 0.929 . S
C341 C333 1.378 . S
C341 C336 1.350 . S
C342 H329 0.929 . S
C342 C334 1.433 . S
C342 N344 1.384 . S
N343 C339 1.427 . S
N343 C340 1.384 . S
N344 C336 1.427 . S
N344 C342 1.384 . S
H345 C351 0.930 . S
H346 C355 0.930 . S
H347 C360 0.929 . S
H348 C358 0.929 . S
H349 C353 0.929 . S
H350 C359 0.929 . S
C351 H345 0.930 . S
C351 C352 1.367 . S
C351 C359 1.378 . S
C352 C351 1.367 . S
C352 C360 1.433 . S
C353 H349 0.929 . S
C353 C355 1.378 . S
C353 C357 1.350 . S
C354 C357 1.463 . S
C354 C359 1.350 . S
C354 N362 1.427 . S
C355 H346 0.930 . S
C355 C353 1.378 . S
C355 C356 1.367 . S
C356 C355 1.367 . S
C356 C358 1.433 . S
C357 C353 1.350 . S
C357 C354 1.463 . S
C357 N361 1.427 . S
C358 H348 0.929 . S
C358 C356 1.433 . S
C358 N361 1.384 . S
C359 H350 0.929 . S
C359 C351 1.378 . S
C359 C354 1.350 . S
C360 H347 0.929 . S
C360 C352 1.433 . S
C360 N362 1.384 . S
N361 C357 1.427 . S
N361 C358 1.384 . S
N362 C354 1.427 . S
N362 C360 1.384 . S
H363 C369 0.930 . S
H364 C373 0.930 . S
H365 C378 0.929 . S
H366 C376 0.929 . S
H367 C371 0.929 . S
H368 C377 0.929 . S
C369 H363 0.930 . S
C369 C370 1.367 . S
C369 C377 1.378 . S
C370 C369 1.367 . S
C370 C378 1.433 . S
C371 H367 0.929 . S
C371 C373 1.378 . S
C371 C375 1.350 . S
C372 C375 1.463 . S
C372 C377 1.350 . S
C372 N380 1.427 . S
C373 H364 0.930 . S
C373 C371 1.378 . S
C373 C374 1.367 . S
C374 C373 1.367 . S
C374 C376 1.433 . S
C375 C371 1.350 . S
C375 C372 1.463 . S
C375 N379 1.427 . S
C376 H366 0.929 . S
C376 C374 1.433 . S
C376 N379 1.384 . S
C377 H368 0.929 . S
C377 C369 1.378 . S
C377 C372 1.350 . S
C378 H365 0.929 . S
C378 C370 1.433 . S
C378 N380 1.384 . S
N379 C375 1.427 . S
N379 C376 1.384 . S
N380 C372 1.427 . S
N380 C378 1.384 . S
H381 C387 0.930 . S
H382 C391 0.930 . S
H383 C396 0.929 . S
H384 C394 0.929 . S
H385 C389 0.929 . S
H386 C395 0.929 . S
C387 H381 0.930 . S
C387 C388 1.367 . S
C387 C395 1.378 . S
C388 C387 1.367 . S
C388 C396 1.433 . S
C389 H385 0.929 . S
C389 C391 1.378 . S
C389 C393 1.350 . S
C390 C393 1.463 . S
C390 C395 1.350 . S
C390 N398 1.427 . S
C391 H382 0.930 . S
C391 C389 1.378 . S
C391 C392 1.367 . S
C392 C391 1.367 . S
C392 C394 1.433 . S
C393 C389 1.350 . S
C393 C390 1.463 . S
C393 N397 1.427 . S
C394 H384 0.929 . S
C394 C392 1.433 . S
C394 N397 1.384 . S
C395 H386 0.929 . S
C395 C387 1.378 . S
C395 C390 1.350 . S
C396 H383 0.929 . S
C396 C388 1.433 . S
C396 N398 1.384 . S
N397 C393 1.427 . S
N397 C394 1.384 . S
N398 C390 1.427 . S
N398 C396 1.384 . S
H399 C405 0.946 . S
H400 C409 0.930 . S
H401 C414 0.929 . S
H402 C412 0.929 1_655 S
H403 C407 0.929 1_554 S
H404 C413 0.929 1_655 S
C405 H399 0.946 . S
C405 C406 1.357 1_655 S
C405 C413 1.372 1_655 S
C406 C405 1.357 1_455 S
C406 C414 1.433 . S
C407 H403 0.929 1_556 S
C407 C409 1.378 . S
C407 C411 1.350 1_556 S
C408 C411 1.463 . S
C408 C413 1.350 . S
C408 N416 1.427 . S
C409 H400 0.930 . S
C409 C407 1.378 . S
C409 C410 1.367 . S
C410 C409 1.367 . S
C410 C412 1.433 . S
C411 C407 1.350 1_554 S
C411 C408 1.463 . S
C411 N415 1.427 1_554 S
C412 H402 0.929 1_455 S
C412 C410 1.433 . S
C412 N415 1.384 . S
C413 H404 0.929 1_455 S
C413 C405 1.372 1_455 S
C413 C408 1.350 . S
C414 H401 0.929 . S
C414 C406 1.433 . S
C414 N416 1.384 . S
N415 C411 1.427 1_556 S
N415 C412 1.384 . S
N416 C408 1.427 . S
N416 C414 1.384 . S
H417 C423 0.930 . S
H418 C427 0.930 . S
H419 C432 0.929 . S
H420 C430 0.929 . S
H421 C425 0.929 . S
H422 C431 0.929 . S
C423 H417 0.930 . S
C423 C424 1.367 . S
C423 C431 1.378 . S
C424 C423 1.367 . S
C424 C432 1.433 . S
C425 H421 0.929 . S
C425 C427 1.378 . S
C425 C429 1.350 . S
C426 C429 1.463 . S
C426 C431 1.350 . S
C426 N434 1.427 . S
C427 H418 0.930 . S
C427 C425 1.378 . S
C427 C428 1.367 . S
C428 C427 1.367 . S
C428 C430 1.433 . S
C429 C425 1.350 . S
C429 C426 1.463 . S
C429 N433 1.427 . S
C430 H420 0.929 . S
C430 C428 1.433 . S
C430 N433 1.384 . S
C431 H422 0.929 . S
C431 C423 1.378 . S
C431 C426 1.350 . S
C432 H419 0.929 . S
C432 C424 1.433 . S
C432 N434 1.384 . S
N433 C429 1.427 . S
N433 C430 1.384 . S
N434 C426 1.427 . S
N434 C432 1.384 . S
H435 C441 0.930 . S
H436 C445 0.930 . S
H437 C450 0.929 . S
H438 C448 0.929 . S
H439 C443 0.929 . S
H440 C449 0.929 . S
C441 H435 0.930 . S
C441 C442 1.367 . S
C441 C449 1.378 . S
C442 C441 1.367 . S
C442 C450 1.433 . S
C443 H439 0.929 . S
C443 C445 1.378 . S
C443 C447 1.350 . S
C444 C447 1.463 . S
C444 C449 1.350 . S
C444 N452 1.427 . S
C445 H436 0.930 . S
C445 C443 1.378 . S
C445 C446 1.367 . S
C446 C445 1.367 . S
C446 C448 1.433 . S
C447 C443 1.350 . S
C447 C444 1.463 . S
C447 N451 1.427 . S
C448 H438 0.929 . S
C448 C446 1.433 . S
C448 N451 1.384 . S
C449 H440 0.929 . S
C449 C441 1.378 . S
C449 C444 1.350 . S
C450 H437 0.929 . S
C450 C442 1.433 . S
C450 N452 1.384 . S
N451 C447 1.427 . S
N451 C448 1.384 . S
N452 C444 1.427 . S
N452 C450 1.384 . S
H453 C459 0.930 . S
H454 C463 0.930 1_565 S
H455 C468 0.929 . S
H456 C466 0.929 . S
H457 C461 0.929 1_565 S
H458 C467 0.929 . S
C459 H453 0.930 . S
C459 C460 1.367 . S
C459 C467 1.378 . S
C460 C459 1.367 . S
C460 C468 1.433 . S
C461 H457 0.929 1_545 S
C461 C463 1.378 . S
C461 C465 1.350 . S
C462 C465 1.463 . S
C462 C467 1.350 . S
C462 N470 1.427 . S
C463 H454 0.930 1_545 S
C463 C461 1.378 . S
C463 C464 1.367 . S
C464 C463 1.367 . S
C464 C466 1.433 . S
C465 C461 1.350 . S
C465 C462 1.463 . S
C465 N469 1.427 . S
C466 H456 0.929 . S
C466 C464 1.433 . S
C466 N469 1.384 . S
C467 H458 0.929 . S
C467 C459 1.378 . S
C467 C462 1.350 . S
C468 H455 0.929 . S
C468 C460 1.433 . S
C468 N470 1.384 . S
N469 C465 1.427 . S
N469 C466 1.384 . S
N470 C462 1.427 . S
N470 C468 1.384 . S
H471 C477 0.930 . S
H472 C481 0.930 . S
H473 C486 0.929 . S
H474 C484 0.929 . S
H475 C479 0.932 . S
H476 C485 0.929 . S
C477 H471 0.930 . S
C477 C478 1.367 . S
C477 C485 1.378 . S
C478 C477 1.367 . S
C478 C486 1.433 . S
C479 H475 0.932 . S
C479 C481 1.378 . S
C479 C483 1.350 1_554 S
C480 C483 1.463 . S
C480 C485 1.350 . S
C480 N488 1.427 . S
C481 H472 0.930 . S
C481 C479 1.378 . S
C481 C482 1.367 . S
C482 C481 1.367 . S
C482 C484 1.433 . S
C483 C479 1.350 1_556 S
C483 C480 1.463 . S
C483 N487 1.427 1_556 S
C484 H474 0.929 . S
C484 C482 1.433 . S
C484 N487 1.384 . S
C485 H476 0.929 . S
C485 C477 1.378 . S
C485 C480 1.350 . S
C486 H473 0.929 . S
C486 C478 1.433 . S
C486 N488 1.384 . S
N487 C483 1.427 1_554 S
N487 C484 1.384 . S
N488 C480 1.427 . S
N488 C486 1.384 . S
H489 C495 0.930 . S
H490 C499 0.930 . S
H491 C504 0.929 . S
H492 C502 0.929 . S
H493 C497 0.929 . S
H494 C503 0.929 . S
C495 H489 0.930 . S
C495 C496 1.367 . S
C495 C503 1.378 . S
C496 C495 1.367 . S
C496 C504 1.433 . S
C497 H493 0.929 . S
C497 C499 1.378 . S
C497 C501 1.350 . S
C498 C501 1.463 . S
C498 C503 1.350 . S
C498 N506 1.427 . S
C499 H490 0.930 . S
C499 C497 1.378 . S
C499 C500 1.367 . S
C500 C499 1.367 . S
C500 C502 1.433 . S
C501 C497 1.350 . S
C501 C498 1.463 . S
C501 N505 1.427 . S
C502 H492 0.929 . S
C502 C500 1.433 . S
C502 N505 1.384 . S
C503 H494 0.929 . S
C503 C495 1.378 . S
C503 C498 1.350 . S
C504 H491 0.929 . S
C504 C496 1.433 . S
C504 N506 1.384 . S
N505 C501 1.427 . S
N505 C502 1.384 . S
N506 C498 1.427 . S
N506 C504 1.384 . S
C190 C20 1.307 . S
C194 C175 1.253 . S
C208 C41 1.322 . S
C212 C137 1.269 . S
C226 C64 1.345 . S
C230 C156 1.280 . S
C244 C19 1.276 . S
C248 C170 1.349 . S
C266 C132 1.309 . S
C262 C44 1.300 . S
C284 C151 1.253 . S
C280 C67 1.250 . S
C298 C43 1.295 . S
C302 C99 1.251 . S
C316 C66 1.195 . S
C320 C113 1.232 1_655 S
C334 C21 1.293 . S
C338 C75 1.304 1_565 S
C356 C94 1.334 . S
C352 C42 1.269 . S
C374 C118 1.288 . S
C370 C65 1.294 . S
C388 C18 1.321 . S
C392 C80 1.258 . S
C410 C109 1.579 . S
C406 C17 1.582 . S
C424 C39 1.589 . S
C428 C71 1.573 . S
C442 C62 1.583 . S
C446 C90 1.566 . S
C464 C147 1.575 . S
C460 C40 1.578 . S
C482 C166 1.559 . S
C478 C63 1.575 . S
C496 C16 1.590 . S
C500 C128 1.576 . S
