# Generated by pormake.
# Topology apo, (3,6)-cn, num edge types: 1
# Building blocks:
#     Node 0, Type 0, BuildingBlock: CUQRIR_clean_linker_1, # of connection points: 3
#     Node 1, Type 0, BuildingBlock: CUQRIR_clean_linker_1, # of connection points: 3
#     Node 2, Type 0, BuildingBlock: CUQRIR_clean_linker_1, # of connection points: 3
#     Node 3, Type 0, BuildingBlock: CUQRIR_clean_linker_1, # of connection points: 3
#     Node 4, Type 0, BuildingBlock: CUQRIR_clean_linker_1, # of connection points: 3
#     Node 5, Type 0, BuildingBlock: CUQRIR_clean_linker_1, # of connection points: 3
#     Node 6, Type 0, BuildingBlock: CUQRIR_clean_linker_1, # of connection points: 3
#     Node 7, Type 0, BuildingBlock: CUQRIR_clean_linker_1, # of connection points: 3
#     Node 8, Type 1, BuildingBlock: KUMBUR_clean_sbu_1, # of connection points: 6
#     Node 9, Type 1, BuildingBlock: KUMBUR_clean_sbu_1, # of connection points: 6
#     Node 10, Type 1, BuildingBlock: KUMBUR_clean_sbu_1, # of connection points: 6
#     Node 11, Type 1, BuildingBlock: KUMBUR_clean_sbu_1, # of connection points: 6
#     Edge 12, Type (0, 1), BuildingBlock: XIVTED_clean_linker_0, # of connection points: 2
#     Edge 13, Type (0, 1), BuildingBlock: XIVTED_clean_linker_0, # of connection points: 2
#     Edge 14, Type (0, 1), BuildingBlock: XIVTED_clean_linker_0, # of connection points: 2
#     Edge 15, Type (0, 1), BuildingBlock: XIVTED_clean_linker_0, # of connection points: 2
#     Edge 16, Type (0, 1), BuildingBlock: XIVTED_clean_linker_0, # of connection points: 2
#     Edge 17, Type (0, 1), BuildingBlock: XIVTED_clean_linker_0, # of connection points: 2
#     Edge 18, Type (0, 1), BuildingBlock: XIVTED_clean_linker_0, # of connection points: 2
#     Edge 19, Type (0, 1), BuildingBlock: XIVTED_clean_linker_0, # of connection points: 2
#     Edge 20, Type (0, 1), BuildingBlock: XIVTED_clean_linker_0, # of connection points: 2
#     Edge 21, Type (0, 1), BuildingBlock: XIVTED_clean_linker_0, # of connection points: 2
#     Edge 22, Type (0, 1), BuildingBlock: XIVTED_clean_linker_0, # of connection points: 2
#     Edge 23, Type (0, 1), BuildingBlock: XIVTED_clean_linker_0, # of connection points: 2
#     Edge 24, Type (0, 1), BuildingBlock: XIVTED_clean_linker_0, # of connection points: 2
#     Edge 25, Type (0, 1), BuildingBlock: XIVTED_clean_linker_0, # of connection points: 2
#     Edge 26, Type (0, 1), BuildingBlock: XIVTED_clean_linker_0, # of connection points: 2
#     Edge 27, Type (0, 1), BuildingBlock: XIVTED_clean_linker_0, # of connection points: 2
#     Edge 28, Type (0, 1), BuildingBlock: XIVTED_clean_linker_0, # of connection points: 2
#     Edge 29, Type (0, 1), BuildingBlock: XIVTED_clean_linker_0, # of connection points: 2
#     Edge 30, Type (0, 1), BuildingBlock: XIVTED_clean_linker_0, # of connection points: 2
#     Edge 31, Type (0, 1), BuildingBlock: XIVTED_clean_linker_0, # of connection points: 2
#     Edge 32, Type (0, 1), BuildingBlock: XIVTED_clean_linker_0, # of connection points: 2
#     Edge 33, Type (0, 1), BuildingBlock: XIVTED_clean_linker_0, # of connection points: 2
#     Edge 34, Type (0, 1), BuildingBlock: XIVTED_clean_linker_0, # of connection points: 2
#     Edge 35, Type (0, 1), BuildingBlock: XIVTED_clean_linker_0, # of connection points: 2
# Relax obj value: 0.045
# Max RMSD: 0.226
# Mean RMSD: 0.177
data_MOF--net-apo--node1-KUMBUR_clean_sbu_1--node2-CUQRIR_clean_linker_1--edge1-XIVTED_clean_linker_0
_symmetry_space_group_name_H-M    P1
_symmetry_Int_Tables_number       1
_symmetry_cell_setting            triclinic
loop_
_symmetry_equiv_pos_as_xyz
'x, y, z'
_cell_length_a     26.002754
_cell_length_b     39.56991
_cell_length_c     47.408479
_cell_angle_alpha  89.934302
_cell_angle_beta   89.983249
_cell_angle_gamma 90.320051
loop_
_atom_site_label
_atom_site_type_symbol
_atom_site_fract_x
_atom_site_fract_y
_atom_site_fract_z
_atom_type_partial_charge
C0 C 0.26629 0.33679 0.42573 0.0
N1 N 0.29653 0.36467 0.42881 0.0
N2 N 0.2538 0.33195 0.39824 0.0
C3 C 0.24506 0.31605 0.44972 0.0
C4 C 0.27742 0.35786 0.38469 0.0
N5 N 0.3029 0.37786 0.40319 0.0
C6 C 0.27655 0.36328 0.35324 0.0
H7 H 0.27248 0.29553 0.45476 0.0
H8 H 0.20762 0.30439 0.44395 0.0
H9 H 0.23982 0.33178 0.46885 0.0
H10 H 0.24365 0.37982 0.34785 0.0
H11 H 0.27189 0.33895 0.3419 0.0
H12 H 0.31221 0.3759 0.34578 0.0
C13 C 0.2311 0.17328 0.92287 0.0
N14 N 0.2047 0.1438 0.92581 0.0
N15 N 0.24886 0.17672 0.89613 0.0
C16 C 0.24306 0.19743 0.94647 0.0
C17 C 0.23254 0.14833 0.88294 0.0
N18 N 0.20621 0.12817 0.90102 0.0
C19 C 0.23894 0.14154 0.8519 0.0
H20 H 0.21086 0.21553 0.94861 0.0
H21 H 0.27879 0.21196 0.94207 0.0
H22 H 0.24741 0.18372 0.96675 0.0
H23 H 0.27364 0.1258 0.84873 0.0
H24 H 0.24384 0.1654 0.83987 0.0
H25 H 0.20526 0.12755 0.8434 0.0
C26 C 0.7259 0.16815 0.61374 0.0
N27 N 0.75903 0.1421 0.61096 0.0
N28 N 0.71506 0.17376 0.64128 0.0
C29 C 0.70303 0.18743 0.58948 0.0
C30 C 0.7431 0.15023 0.65516 0.0
N31 N 0.76993 0.13099 0.63671 0.0
C32 C 0.74353 0.14596 0.68677 0.0
H33 H 0.72925 0.20859 0.58383 0.0
H34 H 0.66501 0.19798 0.59522 0.0
H35 H 0.6987 0.17098 0.57068 0.0
H36 H 0.7394 0.17077 0.69739 0.0
H37 H 0.77899 0.13374 0.69448 0.0
H38 H 0.71052 0.12972 0.69299 0.0
C39 C 0.7139 0.31912 0.12045 0.0
N40 N 0.68587 0.34764 0.11714 0.0
N41 N 0.72658 0.31456 0.14794 0.0
C42 C 0.72883 0.29578 0.09686 0.0
C43 C 0.70557 0.34145 0.16113 0.0
N44 N 0.6807 0.36142 0.1425 0.0
C45 C 0.7126 0.34968 0.19193 0.0
H46 H 0.69897 0.29534 0.08016 0.0
H47 H 0.73493 0.26972 0.10478 0.0
H48 H 0.76519 0.30508 0.08728 0.0
H49 H 0.71178 0.37738 0.1955 0.0
H50 H 0.74955 0.33964 0.19997 0.0
H51 H 0.6807 0.33802 0.20414 0.0
C52 C 0.75281 0.66429 0.6139 0.0
N53 N 0.7283 0.63448 0.60916 0.0
N54 N 0.76628 0.66711 0.64139 0.0
C55 C 0.7671 0.68949 0.5914 0.0
C56 C 0.74946 0.63793 0.65318 0.0
N57 N 0.72693 0.61792 0.63356 0.0
C58 C 0.75181 0.62999 0.68422 0.0
H59 H 0.7759 0.67653 0.57124 0.0
H60 H 0.80088 0.70491 0.59782 0.0
H61 H 0.73414 0.70665 0.58783 0.0
H62 H 0.75486 0.65338 0.697 0.0
H63 H 0.78611 0.6142 0.68836 0.0
H64 H 0.71725 0.61556 0.69101 0.0
C65 C 0.76888 0.8361 0.11682 0.0
N66 N 0.79752 0.86465 0.11311 0.0
N67 N 0.7527 0.8334 0.14392 0.0
C68 C 0.75241 0.8125 0.09361 0.0
C69 C 0.77211 0.86127 0.15658 0.0
N70 N 0.79882 0.88042 0.13791 0.0
C71 C 0.76721 0.8689 0.18757 0.0
H72 H 0.71636 0.79897 0.09924 0.0
H73 H 0.78295 0.79347 0.09019 0.0
H74 H 0.74638 0.82651 0.07361 0.0
H75 H 0.80202 0.88215 0.19552 0.0
H76 H 0.76116 0.84544 0.19999 0.0
H77 H 0.73367 0.88566 0.19082 0.0
C78 C 0.23706 0.82955 0.42086 0.0
N79 N 0.21332 0.85964 0.42499 0.0
N80 N 0.25819 0.82827 0.3947 0.0
C81 C 0.238 0.80124 0.44209 0.0
C82 C 0.247 0.8587 0.38332 0.0
N83 N 0.22013 0.8778 0.40167 0.0
C84 C 0.26218 0.86997 0.35412 0.0
H85 H 0.26486 0.78087 0.4362 0.0
H86 H 0.19898 0.78997 0.44371 0.0
H87 H 0.24856 0.81127 0.46318 0.0
H88 H 0.23122 0.86287 0.33911 0.0
H89 H 0.29841 0.85772 0.34735 0.0
H90 H 0.26722 0.89781 0.35327 0.0
C91 C 0.25021 0.67822 0.92119 0.0
N92 N 0.28274 0.65173 0.92395 0.0
N93 N 0.23446 0.68146 0.89406 0.0
C94 C 0.2379 0.70279 0.94441 0.0
C95 C 0.25869 0.65594 0.8805 0.0
N96 N 0.28864 0.63826 0.89852 0.0
C97 C 0.25029 0.64667 0.85003 0.0
H98 H 0.20226 0.69433 0.95525 0.0
H99 H 0.23154 0.72852 0.93583 0.0
H100 H 0.26933 0.70392 0.96021 0.0
H101 H 0.2802 0.65911 0.83688 0.0
H102 H 0.21189 0.65499 0.84266 0.0
H103 H 0.2535 0.61895 0.84704 0.0
Tb104 Tb 0.06494 0.11457 0.24207 0.0
C105 C 0.87365 0.04623 0.29059 0.0
N106 N 0.88137 0.07979 0.28644 0.0
C107 C 0.79903 0.08405 0.26393 0.0
C108 C 0.82915 0.02982 0.28049 0.0
C109 C 0.84414 0.09909 0.27417 0.0
C110 C 0.79181 0.04916 0.26673 0.0
C111 C 0.90307 0.99411 0.31154 0.0
C112 C 0.91023 0.02874 0.30562 0.0
C113 C 0.86 0.97708 0.30046 0.0
C114 C 0.82306 0.99493 0.28495 0.0
Tb115 Tb 0.95654 0.10218 0.30325 0.0
N116 N 0.9508 0.04632 0.31623 0.0
C117 C 0.93813 0.9781 0.32942 0.0
C118 C 0.98174 0.03161 0.33599 0.0
C119 C 0.97695 0.99716 0.34223 0.0
H120 H 0.84962 0.126 0.27202 0.0
H121 H 0.00267 0.98549 0.35727 0.0
H122 H 0.15639 0.05876 0.26092 0.0
H123 H 0.08393 0.24722 0.2188 0.0
H124 H 0.00974 0.04649 0.34738 0.0
H125 H 0.93408 0.95152 0.33453 0.0
H126 H 0.04343 0.19037 0.21658 0.0
H127 H 0.76999 0.09934 0.2538 0.0
H128 H 0.8541 0.95038 0.3045 0.0
H129 H 0.7894 0.9817 0.2771 0.0
H130 H 0.23923 0.06059 0.28583 0.0
H131 H 0.75696 0.03755 0.25869 0.0
H132 H 0.16458 0.25554 0.24579 0.0
N133 N 0.1453 0.11219 0.26228 0.0
C134 C 0.16879 0.1425 0.26663 0.0
C135 C 0.21938 0.08387 0.28103 0.0
C136 C 0.21727 0.14481 0.27981 0.0
C137 C 0.17165 0.08297 0.26742 0.0
C138 C 0.24179 0.11495 0.28785 0.0
N139 N 0.10003 0.1675 0.24253 0.0
C140 C 0.07872 0.19398 0.22825 0.0
C141 C 0.17025 0.20287 0.25784 0.0
C142 C 0.14589 0.1711 0.25581 0.0
C143 C 0.1471 0.23066 0.24474 0.0
C144 C 0.10154 0.22607 0.2295 0.0
H145 H 0.27906 0.11558 0.29806 0.0
H146 H 0.27749 0.17901 0.29384 0.0
H147 H 0.23615 0.22995 0.27461 0.0
O148 O 0.0451 0.11851 0.19915 0.0
O149 O 0.04615 0.15521 0.27197 0.0
O150 O 0.02923 0.12777 0.31335 0.0
O151 O 0.12077 0.10344 0.2113 0.0
O152 O 0.98798 0.13435 0.23292 0.0
O153 O 0.94583 0.14631 0.27547 0.0
O154 O 0.93518 0.09738 0.34578 0.0
O155 O 0.9435 0.08301 0.26001 0.0
O156 O 0.02292 0.0665 0.24407 0.0
O157 O 0.91339 0.14121 0.3222 0.0
O158 O 0.03653 0.08718 0.31109 0.0
O159 O 0.06729 0.06854 0.26829 0.0
C160 C 0.04925 0.15333 0.29949 0.0
C161 C 0.08893 0.08241 0.16815 0.0
C162 C 0.09758 0.06768 0.11828 0.0
C163 C 0.08711 0.03373 0.12523 0.0
C164 C 0.07904 0.04846 0.17464 0.0
C165 C 0.07788 0.02428 0.15322 0.0
C166 C 0.09815 0.09193 0.14005 0.0
C167 C 0.95274 0.15036 0.24793 0.0
C168 C 0.08962 0.10833 0.19034 0.0
C169 C 0.24057 0.17667 0.28341 0.0
C170 C 0.21713 0.20566 0.27238 0.0
C171 C 0.9726 0.06341 0.24437 0.0
C172 C 0.86037 0.12448 0.36114 0.0
C173 C 0.8139 0.12008 0.40598 0.0
C174 C 0.76724 0.12055 0.39095 0.0
C175 C 0.81341 0.12523 0.34664 0.0
C176 C 0.86035 0.12199 0.39076 0.0
C177 C 0.76714 0.12316 0.36153 0.0
C178 C 0.06501 0.06671 0.296 0.0
C179 C 0.91018 0.12554 0.3463 0.0
H180 H 0.08562 0.0145 0.10901 0.0
H181 H 0.07247 0.04074 0.19624 0.0
H182 H 0.06988 0.9981 0.15832 0.0
H183 H 0.10666 0.11817 0.13527 0.0
H184 H 0.73076 0.11957 0.40195 0.0
H185 H 0.81238 0.12747 0.32394 0.0
H186 H 0.89673 0.12115 0.40191 0.0
H187 H 0.73098 0.12377 0.35023 0.0
Tb188 Tb 0.43079 0.40662 0.744 0.0
C189 C 0.65629 0.43384 0.77678 0.0
N190 N 0.63173 0.40356 0.77424 0.0
C191 C 0.70249 0.38163 0.74762 0.0
C192 C 0.7047 0.43942 0.7642 0.0
C193 C 0.65428 0.37736 0.76026 0.0
C194 C 0.72776 0.41282 0.74951 0.0
C195 C 0.6555 0.4915 0.79389 0.0
C196 C 0.63146 0.45964 0.79108 0.0
C197 C 0.70354 0.49736 0.78114 0.0
C198 C 0.72806 0.47139 0.76633 0.0
Tb199 Tb 0.55395 0.39922 0.79623 0.0
N200 N 0.58462 0.45316 0.80291 0.0
C201 C 0.63125 0.51622 0.81012 0.0
C202 C 0.56387 0.47607 0.82116 0.0
C203 C 0.58577 0.50821 0.82429 0.0
H204 H 0.63533 0.35306 0.75914 0.0
H205 H 0.5683 0.52645 0.83828 0.0
H206 H 0.34961 0.45282 0.78108 0.0
H207 H 0.41491 0.28 0.70063 0.0
H208 H 0.53185 0.4695 0.83444 0.0
H209 H 0.64846 0.54101 0.81285 0.0
H210 H 0.45233 0.3366 0.70504 0.0
H211 H 0.72016 0.36086 0.73646 0.0
H212 H 0.72237 0.52176 0.78294 0.0
H213 H 0.76516 0.47626 0.75668 0.0
H214 H 0.26491 0.44504 0.80392 0.0
H215 H 0.76496 0.41609 0.73954 0.0
H216 H 0.33448 0.26558 0.72584 0.0
N217 N 0.35253 0.40253 0.76545 0.0
C218 C 0.32769 0.37239 0.76272 0.0
C219 C 0.28227 0.42437 0.79251 0.0
C220 C 0.27939 0.36681 0.77542 0.0
C221 C 0.33038 0.42863 0.77974 0.0
C222 C 0.25673 0.39329 0.79044 0.0
N223 N 0.39897 0.35312 0.73631 0.0
C224 C 0.41973 0.33023 0.71802 0.0
C225 C 0.32784 0.31494 0.74511 0.0
C226 C 0.35211 0.3467 0.7481 0.0
C227 C 0.35186 0.29029 0.72871 0.0
C228 C 0.39747 0.29823 0.71463 0.0
H229 H 0.21963 0.39001 0.80051 0.0
H230 H 0.21874 0.33007 0.78282 0.0
H231 H 0.2609 0.28475 0.75605 0.0
O232 O 0.42442 0.40708 0.699 0.0
O233 O 0.41996 0.38386 0.78604 0.0
O234 O 0.49671 0.35838 0.79771 0.0
O235 O 0.37712 0.43907 0.72554 0.0
O236 O 0.49924 0.37896 0.72931 0.0
O237 O 0.53656 0.3558 0.76938 0.0
O238 O 0.56471 0.40064 0.841 0.0
O239 O 0.565 0.421 0.75369 0.0
O240 O 0.48834 0.44699 0.74451 0.0
O241 O 0.6079 0.36663 0.81415 0.0
O242 O 0.48468 0.42537 0.81162 0.0
O243 O 0.4481 0.44943 0.7718 0.0
C244 C 0.44618 0.35979 0.79841 0.0
C245 C 0.36192 0.44446 0.67528 0.0
C246 C 0.34469 0.44772 0.62437 0.0
C247 C 0.30948 0.47387 0.62972 0.0
C248 C 0.32679 0.47081 0.67964 0.0
C249 C 0.30084 0.4853 0.65705 0.0
C250 C 0.37077 0.43287 0.64747 0.0
C251 C 0.52762 0.35594 0.74204 0.0
C252 C 0.38831 0.42968 0.7001 0.0
C253 C 0.25574 0.33494 0.77308 0.0
C254 C 0.2799 0.30908 0.75796 0.0
C255 C 0.53761 0.44333 0.73982 0.0
C256 C 0.62903 0.36376 0.86382 0.0
C257 C 0.64995 0.3616 0.91413 0.0
C258 C 0.68955 0.33871 0.90817 0.0
C259 C 0.66879 0.34061 0.8586 0.0
C260 C 0.61926 0.374 0.89187 0.0
C261 C 0.69864 0.32818 0.88063 0.0
C262 C 0.45581 0.44842 0.79929 0.0
C263 C 0.60007 0.37758 0.83951 0.0
H264 H 0.28771 0.48526 0.61275 0.0
H265 H 0.3191 0.4803 0.70064 0.0
H266 H 0.27361 0.5054 0.66076 0.0
H267 H 0.39795 0.41268 0.64384 0.0
H268 H 0.71337 0.3288 0.92498 0.0
H269 H 0.67733 0.33226 0.83737 0.0
H270 H 0.5889 0.39186 0.89632 0.0
H271 H 0.72921 0.31046 0.87631 0.0
Tb272 Tb 0.04566 0.90089 0.74169 0.0
C273 C 0.82304 0.86671 0.77581 0.0
N274 N 0.84563 0.89767 0.77365 0.0
C275 C 0.77368 0.91801 0.74707 0.0
C276 C 0.77518 0.85995 0.76301 0.0
C277 C 0.82142 0.92345 0.75993 0.0
C278 C 0.75055 0.8861 0.7485 0.0
C279 C 0.82748 0.80885 0.79234 0.0
C280 C 0.84933 0.84143 0.78995 0.0
C281 C 0.78003 0.80182 0.77936 0.0
C282 C 0.75395 0.8273 0.76473 0.0
Tb283 Tb 0.9237 0.90361 0.7951 0.0
N284 N 0.8957 0.84901 0.80183 0.0
C285 C 0.85337 0.78452 0.80824 0.0
C286 C 0.91826 0.82626 0.8196 0.0
C287 C 0.89841 0.7935 0.82241 0.0
H288 H 0.83863 0.94831 0.75915 0.0
H289 H 0.91727 0.77544 0.83603 0.0
H290 H 0.13002 0.84561 0.76556 0.0
H291 H 0.06173 0.03508 0.72 0.0
H292 H 0.9504 0.8333 0.8326 0.0
H293 H 0.83787 0.7592 0.81063 0.0
H294 H 0.02183 0.97897 0.7172 0.0
H295 H 0.75474 0.93845 0.73609 0.0
H296 H 0.76289 0.77685 0.7808 0.0
H297 H 0.71735 0.82153 0.75489 0.0
H298 H 0.21715 0.84659 0.7863 0.0
H299 H 0.71373 0.88192 0.73836 0.0
H300 H 0.14677 0.0421 0.74268 0.0
N301 N 0.12692 0.89868 0.75972 0.0
C302 C 0.15266 0.9286 0.76139 0.0
C303 C 0.19932 0.86989 0.77955 0.0
C304 C 0.20272 0.93041 0.77266 0.0
C305 C 0.14968 0.86941 0.76819 0.0
C306 C 0.22589 0.90054 0.78194 0.0
N307 N 0.07954 0.95458 0.74149 0.0
C308 C 0.0569 0.98171 0.72888 0.0
C309 C 0.15359 0.98904 0.7531 0.0
C310 C 0.12819 0.95752 0.75193 0.0
C311 C 0.12857 0.01741 0.74225 0.0
C312 C 0.08039 0.01359 0.72964 0.0
H313 H 0.26433 0.90084 0.79075 0.0
H314 H 0.2662 0.96384 0.78312 0.0
H315 H 0.22329 0.01516 0.76585 0.0
O316 O 0.04402 0.90869 0.69768 0.0
O317 O 0.05667 0.92308 0.78394 0.0
O318 O 0.97827 0.94572 0.79537 0.0
O319 O 0.09561 0.87273 0.71595 0.0
O320 O 0.97492 0.92631 0.72796 0.0
O321 O 0.93625 0.94801 0.7681 0.0
O322 O 0.91752 0.90267 0.8402 0.0
O323 O 0.91462 0.88164 0.75266 0.0
O324 O 0.99261 0.8577 0.74174 0.0
O325 O 0.8677 0.93357 0.81416 0.0
O326 O 0.99457 0.8777 0.80909 0.0
O327 O 0.03285 0.8566 0.76848 0.0
C328 C 0.02818 0.94389 0.79873 0.0
C329 C 0.12319 0.90054 0.67423 0.0
C330 C 0.15693 0.91027 0.62658 0.0
C331 C 0.20185 0.92411 0.63861 0.0
C332 C 0.16857 0.91425 0.68551 0.0
C333 C 0.20745 0.92609 0.6678 0.0
C334 C 0.11753 0.89853 0.64471 0.0
C335 C 0.94406 0.94781 0.74062 0.0
C336 C 0.08175 0.88802 0.69293 0.0
C337 C 0.22779 0.96187 0.7744 0.0
C338 C 0.20329 0.99111 0.76463 0.0
C339 C 0.94209 0.85801 0.74057 0.0
C340 C 0.85183 0.93739 0.8644 0.0
C341 C 0.83616 0.94109 0.91544 0.0
C342 C 0.79705 0.96469 0.91002 0.0
C343 C 0.81271 0.96121 0.85998 0.0
C344 C 0.86337 0.92719 0.89232 0.0
C345 C 0.78561 0.97463 0.8826 0.0
C346 C 0.02509 0.85612 0.796 0.0
C347 C 0.87968 0.92404 0.83946 0.0
H348 H 0.23338 0.93272 0.62547 0.0
H349 H 0.1744 0.91552 0.70797 0.0
H350 H 0.2424 0.93649 0.67676 0.0
H351 H 0.08248 0.88798 0.63593 0.0
H352 H 0.77448 0.97522 0.92706 0.0
H353 H 0.8028 0.96956 0.83891 0.0
H354 H 0.89356 0.90896 0.89603 0.0
H355 H 0.75537 0.99278 0.87883 0.0
Tb356 Tb 0.4564 0.60487 0.23893 0.0
C357 C 0.66481 0.65063 0.28755 0.0
N358 N 0.64555 0.61904 0.28359 0.0
C359 C 0.72409 0.60223 0.26126 0.0
C360 C 0.714 0.65971 0.27755 0.0
C361 C 0.6748 0.59455 0.27135 0.0
C362 C 0.74361 0.63504 0.26414 0.0
C363 C 0.65272 0.70707 0.30588 0.0
C364 C 0.63443 0.67392 0.30133 0.0
C365 C 0.70123 0.71663 0.29538 0.0
C366 C 0.73184 0.69297 0.28126 0.0
Tb367 Tb 0.56481 0.609 0.30055 0.0
N368 N 0.58774 0.66366 0.31113 0.0
C369 C 0.62225 0.72933 0.32142 0.0
C370 C 0.55987 0.68454 0.32816 0.0
C371 C 0.57601 0.71781 0.33301 0.0
H372 H 0.66028 0.56906 0.26938 0.0
H373 H 0.55321 0.73435 0.34613 0.0
H374 H 0.36879 0.66429 0.25294 0.0
H375 H 0.42774 0.4721 0.21827 0.0
H376 H 0.52601 0.6755 0.33886 0.0
H377 H 0.63487 0.75503 0.32541 0.0
H378 H 0.47274 0.52735 0.21518 0.0
H379 H 0.74699 0.58286 0.25131 0.0
H380 H 0.71577 0.74207 0.29847 0.0
H381 H 0.76939 0.70057 0.27354 0.0
H382 H 0.28332 0.66694 0.27526 0.0
H383 H 0.78168 0.64095 0.25618 0.0
H384 H 0.34426 0.46778 0.24327 0.0
N385 N 0.37444 0.61082 0.25625 0.0
C386 C 0.34773 0.58165 0.26054 0.0
C387 C 0.30139 0.64273 0.27177 0.0
C388 C 0.29779 0.58176 0.27211 0.0
C389 C 0.35053 0.64118 0.2598 0.0
C390 C 0.27532 0.61285 0.27855 0.0
N391 N 0.41655 0.5532 0.23937 0.0
C392 C 0.43656 0.52546 0.22625 0.0
C393 C 0.34187 0.52109 0.25347 0.0
C394 C 0.36907 0.55182 0.25124 0.0
C395 C 0.36393 0.49194 0.24202 0.0
C396 C 0.41107 0.49427 0.2279 0.0
H397 H 0.23701 0.61409 0.28747 0.0
H398 H 0.23306 0.5505 0.28489 0.0
H399 H 0.27184 0.49727 0.26865 0.0
O400 O 0.47582 0.59615 0.19652 0.0
O401 O 0.46456 0.56403 0.27041 0.0
O402 O 0.48681 0.59217 0.31048 0.0
O403 O 0.40628 0.62179 0.20695 0.0
O404 O 0.53282 0.58433 0.23081 0.0
O405 O 0.56417 0.56374 0.27329 0.0
O406 O 0.58678 0.61349 0.34301 0.0
O407 O 0.58089 0.62921 0.25823 0.0
O408 O 0.50443 0.65072 0.24186 0.0
O409 O 0.59539 0.56631 0.32115 0.0
O410 O 0.49007 0.63312 0.30859 0.0
O411 O 0.45613 0.6506 0.26564 0.0
C412 C 0.46352 0.56704 0.29791 0.0
C413 C 0.44629 0.63619 0.16387 0.0
C414 C 0.43987 0.65169 0.11404 0.0
C415 C 0.46878 0.6811 0.11971 0.0
C416 C 0.47473 0.66571 0.16905 0.0
C417 C 0.48598 0.688 0.14704 0.0
C418 C 0.42883 0.62928 0.13642 0.0
C419 C 0.5581 0.56172 0.2456 0.0
C420 C 0.43599 0.61182 0.18665 0.0
C421 C 0.27124 0.551 0.27574 0.0
C422 C 0.29326 0.52069 0.26642 0.0
C423 C 0.55487 0.65229 0.24444 0.0
C424 C 0.65101 0.57734 0.36026 0.0
C425 C 0.69563 0.57676 0.40575 0.0
C426 C 0.74102 0.56726 0.39175 0.0
C427 C 0.69666 0.56789 0.34672 0.0
C428 C 0.65075 0.58168 0.38969 0.0
C429 C 0.74141 0.56291 0.36246 0.0
C430 C 0.46083 0.65331 0.29331 0.0
C431 C 0.60267 0.58255 0.34471 0.0
H432 H 0.47734 0.69911 0.10313 0.0
H433 H 0.4883 0.67143 0.19005 0.0
H434 H 0.50798 0.71076 0.15119 0.0
H435 H 0.4073 0.60624 0.13245 0.0
H436 H 0.77646 0.56369 0.40334 0.0
H437 H 0.69776 0.56425 0.32412 0.0
H438 H 0.61516 0.58851 0.4001 0.0
H439 H 0.77661 0.55571 0.35192 0.0
H440 H 0.24936 0.94291 0.40807 0.0
H441 H 0.07285 1.00043 0.28152 0.0
H442 H 0.13078 0.87873 0.37407 0.0
H443 H 0.11899 0.07251 0.34488 0.0
H444 H 0.10764 0.9548 0.31095 0.0
H445 H 0.21217 0.99126 0.38258 0.0
C446 C 0.21427 0.93945 0.39613 0.0
C447 C 0.19191 0.90732 0.39368 0.0
C448 C 0.11044 0.98066 0.31826 0.0
C449 C 0.15162 0.9613 0.36317 0.0
C450 C 0.09135 0.00661 0.30135 0.0
C451 C 0.09317 0.04001 0.31096 0.0
C452 C 0.1325 0.98841 0.34455 0.0
C453 C 0.11685 0.04689 0.33694 0.0
C454 C 0.19361 0.96673 0.38127 0.0
C455 C 0.14802 0.90346 0.37687 0.0
N456 N 0.1358 0.02126 0.35288 0.0
N457 N 0.12969 0.93002 0.36185 0.0
H458 H 0.36656 0.64332 0.86183 0.0
H459 H 0.42515 0.44557 0.85465 0.0
H460 H 0.28806 0.57303 0.91634 0.0
H461 H 0.43766 0.5135 0.78374 0.0
H462 H 0.39061 0.49222 0.88322 0.0
H463 H 0.41206 0.59627 0.8397 0.0
C464 C 0.35995 0.61787 0.86949 0.0
C465 C 0.32348 0.61177 0.89064 0.0
C466 C 0.40103 0.49677 0.86142 0.0
C467 C 0.37464 0.55786 0.86539 0.0
C468 C 0.42068 0.47029 0.84515 0.0
C469 C 0.43396 0.47574 0.81678 0.0
C470 C 0.39585 0.52897 0.84933 0.0
C471 C 0.42743 0.50815 0.80544 0.0
C472 C 0.38544 0.59107 0.85676 0.0
C473 C 0.31609 0.57852 0.90007 0.0
N474 N 0.40917 0.53355 0.82179 0.0
N475 N 0.34115 0.55257 0.88716 0.0
H476 H 0.76714 0.55924 0.6514 0.0
H477 H 0.49882 0.50003 0.71453 0.0
H478 H 0.62463 0.60799 0.63096 0.0
H479 H 0.63408 0.43744 0.71683 0.0
H480 H 0.54315 0.53843 0.68217 0.0
H481 H 0.71892 0.5124 0.673 0.0
C482 C 0.72551 0.55936 0.65077 0.0
C483 C 0.69951 0.58707 0.63936 0.0
C484 C 0.56312 0.51623 0.68968 0.0
C485 C 0.64406 0.53459 0.66475 0.0
C486 C 0.53788 0.49431 0.70826 0.0
C487 C 0.56329 0.4659 0.71911 0.0
C488 C 0.61431 0.50987 0.68195 0.0
C489 C 0.61365 0.45965 0.70989 0.0
C490 C 0.69798 0.53289 0.66324 0.0
C491 C 0.6457 0.58672 0.63934 0.0
N492 N 0.63771 0.48164 0.69212 0.0
N493 N 0.61964 0.56114 0.65231 0.0
H494 H 0.9017 0.88935 0.13943 0.0
H495 H 0.87595 0.06555 0.22178 0.0
H496 H 0.75796 0.93954 0.15397 0.0
H497 H 0.0134 0.00518 0.22277 0.0
H498 H 0.83506 0.0239 0.19095 0.0
H499 H 0.94708 0.93671 0.16243 0.0
C500 C 0.88007 0.91094 0.14673 0.0
C501 C 0.82636 0.91096 0.14476 0.0
C502 C 0.87427 0.0198 0.19777 0.0
C503 C 0.87714 0.96452 0.17158 0.0
C504 C 0.89744 0.04343 0.21563 0.0
C505 C 0.94796 0.03868 0.22512 0.0
C506 C 0.90192 0.99124 0.18907 0.0
C507 C 0.97451 0.00999 0.21577 0.0
C508 C 0.90568 0.93769 0.16014 0.0
C509 C 0.79953 0.93898 0.15501 0.0
N510 N 0.95117 0.98731 0.19832 0.0
N511 N 0.8251 0.96453 0.16816 0.0
H512 H 0.86158 0.1366 0.6624 0.0
H513 H 0.90448 0.94023 0.68773 0.0
H514 H 0.75386 0.06415 0.62905 0.0
H515 H 0.92834 0.0143 0.75311 0.0
H516 H 0.86679 0.9844 0.65766 0.0
H517 H 0.90744 0.09055 0.68636 0.0
C518 C 0.84881 0.11075 0.65944 0.0
C519 C 0.80409 0.10389 0.64396 0.0
C520 C 0.88036 0.99085 0.67858 0.0
C521 C 0.85567 0.05147 0.6711 0.0
C522 C 0.90175 0.96581 0.6957 0.0
C523 C 0.9191 0.97374 0.72295 0.0
C524 C 0.87796 0.02417 0.68851 0.0
C525 C 0.9148 0.00716 0.73235 0.0
C526 C 0.87438 0.08468 0.67332 0.0
C527 C 0.78841 0.07019 0.64076 0.0
N528 N 0.89515 0.03128 0.71502 0.0
N529 N 0.81404 0.04507 0.6544 0.0
H530 H 0.59394 0.36286 0.17261 0.0
H531 H 0.56784 0.49674 0.26437 0.0
H532 H 0.70541 0.4265 0.1313 0.0
H533 H 0.59199 0.55993 0.1913 0.0
H534 H 0.59104 0.44726 0.23603 0.0
H535 H 0.56113 0.41218 0.19808 0.0
C536 C 0.61017 0.38759 0.16828 0.0
C537 C 0.65192 0.39096 0.14982 0.0
C538 C 0.59093 0.47197 0.22619 0.0
C539 C 0.61665 0.44692 0.17957 0.0
C540 C 0.57862 0.50018 0.24247 0.0
C541 C 0.57799 0.53231 0.23009 0.0
C542 C 0.60326 0.47609 0.19749 0.0
C543 C 0.59178 0.53546 0.20154 0.0
C544 C 0.59236 0.41547 0.1832 0.0
C545 C 0.67263 0.42322 0.1451 0.0
N546 N 0.60423 0.50769 0.1862 0.0
N547 N 0.65495 0.45011 0.16008 0.0
H548 H 0.40102 0.37931 0.38556 0.0
H549 H 0.40974 0.57439 0.34673 0.0
H550 H 0.26922 0.44193 0.40038 0.0
H551 H 0.46565 0.49883 0.28908 0.0
H552 H 0.37351 0.52921 0.37656 0.0
H553 H 0.44302 0.42678 0.36064 0.0
C554 C 0.38204 0.40357 0.38453 0.0
C555 C 0.3325 0.40731 0.39566 0.0
C556 C 0.39387 0.52265 0.35741 0.0
C557 C 0.3793 0.46105 0.36711 0.0
C558 C 0.41446 0.54826 0.34046 0.0
C559 C 0.44043 0.54017 0.31545 0.0
C560 C 0.40083 0.48877 0.34972 0.0
C561 C 0.44549 0.50602 0.30812 0.0
C562 C 0.40545 0.43031 0.37003 0.0
C563 C 0.30817 0.43864 0.39288 0.0
N564 N 0.42632 0.48148 0.32536 0.0
N565 N 0.33187 0.46447 0.37895 0.0
H566 H 0.10417 0.11635 0.9036 0.0
H567 H 0.12748 0.9425 0.81812 0.0
H568 H 0.24827 0.07117 0.8807 0.0
H569 H 0.9869 0.99943 0.82465 0.0
H570 H 0.17055 0.98441 0.84768 0.0
H571 H 0.05848 0.06797 0.8825 0.0
C572 C 0.12598 0.09573 0.89467 0.0
C573 C 0.1797 0.09744 0.89366 0.0
C574 C 0.13024 0.98769 0.84271 0.0
C575 C 0.12845 0.04266 0.86923 0.0
C576 C 0.10572 0.96392 0.82557 0.0
C577 C 0.05384 0.9679 0.81819 0.0
C578 C 0.10253 0.01547 0.85293 0.0
C579 C 0.0271 0.9955 0.8295 0.0
C580 C 0.10012 0.06838 0.88242 0.0
C581 C 0.2067 0.07052 0.88167 0.0
N582 N 0.05181 0.01832 0.84618 0.0
N583 N 0.1808 0.04431 0.8697 0.0
H584 H 0.22381 0.0828 0.94903 0.0
H585 H 0.06554 0.12445 0.08992 0.0
H586 H 0.13746 0.17411 0.96104 0.0
H587 H 0.15486 0.03384 0.07871 0.0
H588 H 0.08706 0.14144 0.04176 0.0
H589 H 0.19341 0.06221 0.99501 0.0
C590 C 0.19785 0.09825 0.96129 0.0
C591 C 0.18325 0.13019 0.9515 0.0
C592 C 0.1018 0.11777 0.04978 0.0
C593 C 0.14888 0.10728 1.00415 0.0
C594 C 0.08978 0.10813 0.07738 0.0
C595 C 0.10863 0.07772 0.08855 0.0
C596 C 0.13305 0.09693 0.03309 0.0
C597 C 0.13903 0.05734 0.07099 0.0
C598 C 0.18078 0.08667 0.98757 0.0
C599 C 0.14999 0.14952 0.96816 0.0
N600 N 0.15047 0.06737 0.04425 0.0
N601 N 0.13415 0.13787 0.99374 0.0
H602 H 0.35131 0.33113 0.46833 0.0
H603 H 0.35049 0.48634 0.57639 0.0
H604 H 0.28486 0.42797 0.4497 0.0
H605 H 0.35548 0.38254 0.60425 0.0
H606 H 0.34769 0.46699 0.52757 0.0
H607 H 0.37321 0.3514 0.51591 0.0
C608 C 0.34218 0.35686 0.47414 0.0
C609 C 0.31646 0.378 0.45503 0.0
C610 C 0.34982 0.44845 0.54435 0.0
C611 C 0.34176 0.40143 0.50911 0.0
C612 C 0.35129 0.45943 0.57229 0.0
C613 C 0.35202 0.43604 0.59466 0.0
C614 C 0.34975 0.41375 0.53845 0.0
C615 C 0.35476 0.40152 0.58781 0.0
C616 C 0.35457 0.36835 0.50122 0.0
C617 C 0.30569 0.41114 0.46345 0.0
N618 N 0.35306 0.3914 0.56032 0.0
N619 N 0.31823 0.42181 0.48987 0.0
H620 H 0.73444 0.39435 0.08573 0.0
H621 H 0.56889 0.34675 0.94897 0.0
H622 H 0.60068 0.33018 0.08808 0.0
H623 H 0.71561 0.39769 0.94701 0.0
H624 H 0.56805 0.35202 1.00069 0.0
H625 H 0.71615 0.40769 0.03615 0.0
C626 C 0.70025 0.384 0.07588 0.0
C627 C 0.66865 0.36152 0.09077 0.0
C628 C 0.59987 0.36274 0.9889 0.0
C629 C 0.64817 0.37549 0.03401 0.0
C630 C 0.60008 0.35999 0.95942 0.0
C631 C 0.64233 0.37189 0.94386 0.0
C632 C 0.64226 0.37749 1.00278 0.0
C633 C 0.68231 0.38829 0.95833 0.0
C634 C 0.69001 0.39126 0.04759 0.0
C635 C 0.62543 0.34794 0.07715 0.0
N636 N 0.68153 0.39032 0.98695 0.0
N637 N 0.61673 0.35479 0.04939 0.0
H638 H 0.72505 0.08935 0.58034 0.0
H639 H 0.87564 0.15482 0.44312 0.0
H640 H 0.83636 0.16999 0.58134 0.0
H641 H 0.75232 0.08145 0.44068 0.0
H642 H 0.8718 0.15409 0.49463 0.0
H643 H 0.74533 0.07883 0.53045 0.0
C644 C 0.75514 0.10395 0.57017 0.0
C645 C 0.77987 0.13009 0.58478 0.0
C646 C 0.84581 0.13795 0.48285 0.0
C647 C 0.80201 0.11935 0.52775 0.0
C648 C 0.84814 0.13823 0.45339 0.0
C649 C 0.81397 0.11836 0.43743 0.0
C650 C 0.80909 0.11761 0.49661 0.0
C651 C 0.7788 0.09766 0.45203 0.0
C652 C 0.76625 0.09834 0.54168 0.0
C653 C 0.81731 0.14924 0.57068 0.0
N654 N 0.77711 0.09795 0.48073 0.0
N655 N 0.82698 0.14371 0.54287 0.0
H656 H 0.85448 0.83108 0.07436 0.0
H657 H 0.84056 0.98195 0.96199 0.0
H658 H 0.78449 0.92731 0.09122 0.0
H659 H 0.8545 0.87747 0.93734 0.0
H660 H 0.84115 0.96469 1.01142 0.0
H661 H 0.87484 0.85025 0.02626 0.0
C662 C 0.84399 0.85639 0.06799 0.0
C663 C 0.81725 0.87753 0.08664 0.0
C664 C 0.84457 0.94555 0.99523 0.0
C665 C 0.84116 0.89983 0.03197 0.0
C666 C 0.84417 0.95534 0.96695 0.0
C667 C 0.84633 0.93106 0.94532 0.0
C668 C 0.8477 0.91118 1.00221 0.0
C669 C 0.85255 0.89707 0.9532 0.0
C670 C 0.85562 0.8673 0.04061 0.0
C671 C 0.80544 0.91033 0.07761 0.0
N672 N 0.85248 0.88809 0.98101 0.0
N673 N 0.81719 0.9204 0.05088 0.0
H674 H 0.66284 0.66341 0.57238 0.0
H675 H 0.74356 0.53913 0.44685 0.0
H676 H 0.75965 0.5768 0.58431 0.0
H677 H 0.64659 0.62634 0.43588 0.0
H678 H 0.7445 0.54954 0.49772 0.0
H679 H 0.64912 0.64666 0.52316 0.0
C680 C 0.68044 0.64051 0.56459 0.0
C681 C 0.71253 0.62148 0.58213 0.0
C682 C 0.72275 0.56627 0.4842 0.0
C683 C 0.69794 0.60229 0.52591 0.0
C684 C 0.7225 0.5605 0.45509 0.0
C685 C 0.69516 0.58198 0.43692 0.0
C686 C 0.69562 0.59383 0.49533 0.0
C687 C 0.66782 0.60888 0.44899 0.0
C688 C 0.67287 0.63098 0.53654 0.0
C689 C 0.73447 0.59195 0.57132 0.0
N690 N 0.669 0.61412 0.47733 0.0
N691 N 0.72729 0.58343 0.54377 0.0
H692 H 0.2381 0.62823 0.97109 0.0
H693 H 0.49017 0.66073 0.06354 0.0
H694 H 0.38468 0.65429 0.93493 0.0
H695 H 0.34501 0.62749 0.09825 0.0
H696 H 0.45494 0.65378 1.01605 0.0
H697 H 0.27908 0.62191 1.01734 0.0
C698 C 0.27927 0.63182 0.97297 0.0
C699 C 0.30831 0.64162 0.94946 0.0
C700 C 0.43094 0.64771 0.03404 0.0
C701 C 0.35547 0.63544 1.00217 0.0
C702 C 0.45092 0.65188 0.06119 0.0
C703 C 0.42038 0.645 0.08501 0.0
C704 C 0.37985 0.63676 0.03057 0.0
C705 C 0.37011 0.63296 0.08059 0.0
C706 C 0.30266 0.62845 0.9993 0.0
C707 C 0.36136 0.64641 0.95269 0.0
N708 N 0.35133 0.62955 0.05397 0.0
N709 N 0.38324 0.64371 0.97869 0.0
H710 H 0.13643 0.83137 0.45599 0.0
H711 H 0.18795 0.95588 0.58625 0.0
H712 H 0.24292 0.91493 0.45385 0.0
H713 H 0.11685 0.85764 0.59529 0.0
H714 H 0.19213 0.94727 0.53533 0.0
H715 H 0.11288 0.84673 0.50453 0.0
C716 C 0.15428 0.85322 0.46568 0.0
C717 C 0.19196 0.8718 0.45113 0.0
C718 C 0.17521 0.9277 0.54842 0.0
C719 C 0.16507 0.88974 0.50629 0.0
C720 C 0.17297 0.93252 0.57755 0.0
C721 C 0.15287 0.90718 0.59528 0.0
C722 C 0.15701 0.89736 0.53669 0.0
C723 C 0.13268 0.87789 0.58256 0.0
C724 C 0.14085 0.862 0.49329 0.0
C725 C 0.2133 0.90027 0.46429 0.0
N726 N 0.13572 0.87365 0.55409 0.0
N727 N 0.19991 0.90823 0.49119 0.0
H728 H 0.26354 0.26437 0.40505 0.0
H729 H 0.05252 0.22074 0.28784 0.0
H730 H 0.1722 0.34002 0.36361 0.0
H731 H 0.10904 0.14639 0.34647 0.0
H732 H 0.10152 0.26443 0.31284 0.0
H733 H 0.21187 0.22012 0.38196 0.0
C734 C 0.23228 0.27155 0.39125 0.0
C735 C 0.22213 0.30574 0.38604 0.0
C736 C 0.10303 0.23861 0.32037 0.0
C737 C 0.1636 0.25562 0.35925 0.0
C738 C 0.0753 0.21369 0.30602 0.0
C739 C 0.07698 0.18002 0.31511 0.0
C740 C 0.13293 0.22974 0.3439 0.0
C741 C 0.10658 0.17217 0.33894 0.0
C742 C 0.20299 0.24641 0.37801 0.0
C743 C 0.18163 0.3139 0.36778 0.0
N744 N 0.13374 0.19682 0.35242 0.0
N745 N 0.15407 0.28905 0.35489 0.0
H746 H 0.2235 0.24281 0.89485 0.0
H747 H 0.47703 0.29515 0.80838 0.0
H748 H 0.34062 0.17245 0.87004 0.0
H749 H 0.35187 0.36371 0.824 0.0
H750 H 0.42992 0.25082 0.83353 0.0
H751 H 0.27222 0.2886 0.87179 0.0
C752 C 0.25979 0.23723 0.88471 0.0
C753 C 0.27834 0.20408 0.88419 0.0
C754 C 0.41263 0.27552 0.83143 0.0
C755 C 0.33398 0.2558 0.85773 0.0
C756 C 0.43961 0.30088 0.81717 0.0
C757 C 0.41807 0.33305 0.8139 0.0
C758 C 0.36386 0.28242 0.84275 0.0
C759 C 0.3694 0.33905 0.8256 0.0
C760 C 0.2874 0.26318 0.87145 0.0
C761 C 0.32518 0.19777 0.87066 0.0
N762 N 0.3439 0.31397 0.83952 0.0
N763 N 0.35141 0.22338 0.85794 0.0
H764 H 0.63735 0.16483 0.67845 0.0
H765 H 0.5635 0.35991 0.68787 0.0
H766 H 0.71931 0.24106 0.63132 0.0
H767 H 0.54539 0.29091 0.75771 0.0
H768 H 0.60607 0.3149 0.66094 0.0
H769 H 0.58799 0.20935 0.70195 0.0
C770 C 0.64479 0.19099 0.67308 0.0
C771 C 0.68276 0.19946 0.65329 0.0
C772 C 0.59253 0.30969 0.68212 0.0
C773 C 0.6259 0.25027 0.67939 0.0
C774 C 0.56813 0.33521 0.69739 0.0
C775 C 0.55124 0.32901 0.72501 0.0
C776 C 0.59892 0.27769 0.69443 0.0
C777 C 0.55832 0.29672 0.73652 0.0
C778 C 0.61662 0.2163 0.68636 0.0
C779 C 0.69015 0.23363 0.64642 0.0
N780 N 0.58142 0.27219 0.72112 0.0
N781 N 0.66198 0.25789 0.65948 0.0
H782 H 0.70047 0.27636 0.19288 0.0
H783 H 0.95861 0.16917 0.19235 0.0
H784 H 0.82111 0.29324 0.13217 0.0
H785 H 0.8701 0.1863 0.26813 0.0
H786 H 0.90234 0.20774 0.16697 0.0
H787 H 0.75549 0.23572 0.21753 0.0
C788 C 0.73852 0.27125 0.18472 0.0
C789 C 0.75657 0.28813 0.16063 0.0
C790 C 0.8953 0.20299 0.18914 0.0
C791 C 0.81925 0.24161 0.18831 0.0
C792 C 0.92736 0.18093 0.20374 0.0
C793 C 0.91907 0.17422 0.23252 0.0
C794 C 0.85408 0.21816 0.20324 0.0
C795 C 0.87786 0.19041 0.24596 0.0
C796 C 0.76983 0.2482 0.19874 0.0
C797 C 0.80576 0.28043 0.15053 0.0
N798 N 0.84668 0.21146 0.23115 0.0
N799 N 0.83551 0.25767 0.16443 0.0
H800 H 0.8542 0.66389 0.67126 0.0
H801 H 0.84814 0.85958 0.71459 0.0
H802 H 0.73749 0.73256 0.6427 0.0
H803 H 0.97598 0.79377 0.73191 0.0
H804 H 0.80432 0.8129 0.69048 0.0
H805 H 0.89736 0.71072 0.69572 0.0
C806 C 0.83788 0.68898 0.67022 0.0
C807 C 0.79254 0.69465 0.65508 0.0
C808 C 0.84199 0.80868 0.69951 0.0
C809 C 0.84117 0.74824 0.68283 0.0
C810 C 0.8668 0.83523 0.71345 0.0
C811 C 0.91551 0.83041 0.72543 0.0
C812 C 0.86617 0.7771 0.69751 0.0
C813 C 0.93851 0.79859 0.72285 0.0
C814 C 0.8624 0.71567 0.68406 0.0
C815 C 0.77267 0.72746 0.65409 0.0
N816 N 0.91357 0.77312 0.70925 0.0
N817 N 0.79703 0.75308 0.66788 0.0
H818 H 0.66181 0.84081 0.1706 0.0
H819 H 0.65189 0.64846 0.22267 0.0
H820 H 0.77382 0.76673 0.1463 0.0
H821 H 0.52296 0.7159 0.23017 0.0
H822 H 0.69943 0.69243 0.19728 0.0
H823 H 0.61195 0.79637 0.19465 0.0
C824 C 0.67559 0.81504 0.17032 0.0
C825 C 0.72172 0.80718 0.15659 0.0
C826 C 0.66069 0.69763 0.20438 0.0
C827 C 0.66558 0.75637 0.18406 0.0
C828 C 0.63369 0.67263 0.21909 0.0
C829 C 0.58355 0.67865 0.22871 0.0
C830 C 0.63751 0.72903 0.19929 0.0
C831 C 0.56151 0.71022 0.22304 0.0
C832 C 0.64726 0.78973 0.18394 0.0
C833 C 0.73821 0.77355 0.1566 0.0
N834 N 0.5887 0.73429 0.20881 0.0
N835 N 0.71036 0.74937 0.1703 0.0
H836 H 0.23279 0.79923 0.34518 0.0
H837 H 0.43538 0.65343 0.3492 0.0
H838 H 0.34374 0.79597 0.41254 0.0
H839 H 0.41515 0.71077 0.27246 0.0
H840 H 0.38526 0.69572 0.37464 0.0
H841 H 0.2825 0.75634 0.31958 0.0
C842 C 0.26739 0.78917 0.35462 0.0
C843 C 0.28424 0.80082 0.38099 0.0
C844 C 0.39175 0.69881 0.35221 0.0
C845 C 0.34009 0.75166 0.35238 0.0
C846 C 0.42033 0.67482 0.33763 0.0
C847 C 0.42944 0.67851 0.30856 0.0
C848 C 0.3708 0.72613 0.3375 0.0
C849 C 0.4084 0.7066 0.29472 0.0
C850 C 0.29558 0.76491 0.34007 0.0
C851 C 0.32909 0.78703 0.39252 0.0
N852 N 0.37952 0.72923 0.30928 0.0
N853 N 0.35537 0.76285 0.37823 0.0
H854 H 0.25724 0.7179 0.84751 0.0
H855 H 0.03949 0.85261 0.85361 0.0
H856 H 0.14282 0.70585 0.91258 0.0
H857 H 0.0715 0.79912 0.77626 0.0
H858 H 0.08888 0.8097 0.87961 0.0
H859 H 0.20274 0.76006 0.82456 0.0
C860 C 0.22052 0.72407 0.85688 0.0
C861 C 0.20395 0.70792 0.88162 0.0
C862 C 0.08476 0.80758 0.85694 0.0
C863 C 0.14278 0.75706 0.85625 0.0
C864 C 0.05672 0.83193 0.8421 0.0
C865 C 0.05205 0.82982 0.81261 0.0
C866 C 0.10919 0.78164 0.84203 0.0
C867 C 0.07504 0.80235 0.79885 0.0
C868 C 0.18975 0.7482 0.84392 0.0
C869 C 0.15689 0.7178 0.89353 0.0
N870 N 0.10334 0.7797 0.81359 0.0
N871 N 0.12782 0.74195 0.88077 0.0
loop_
_geom_bond_atom_site_label_1
_geom_bond_atom_site_label_2
_geom_bond_distance
_geom_bond_site_symmetry_2
_ccdc_geom_bond_type
C0 N1 1.317 . S
C0 N2 1.348 . S
C0 C3 1.485 . S
N1 C0 1.317 . S
N1 N5 1.370 . S
N2 C0 1.348 . S
N2 C4 1.346 . S
C3 C0 1.485 . S
C3 H7 0.960 . S
C3 H8 0.961 . S
C3 H9 0.960 . S
C4 N2 1.346 . S
C4 N5 1.307 . S
C4 C6 1.486 . S
N5 N1 1.370 . S
N5 C4 1.307 . S
C6 C4 1.486 . S
C6 H10 0.960 . S
C6 H11 0.960 . S
C6 H12 0.959 . S
H7 C3 0.960 . S
H8 C3 0.961 . S
H9 C3 0.960 . S
H10 C6 0.960 . S
H11 C6 0.960 . S
H12 C6 0.959 . S
C13 N14 1.317 . S
C13 N15 1.348 . S
C13 C16 1.485 . S
N14 C13 1.317 . S
N14 N18 1.370 . S
N15 C13 1.348 . S
N15 C17 1.346 . S
C16 C13 1.485 . S
C16 H20 0.960 . S
C16 H21 0.961 . S
C16 H22 0.960 . S
C17 N15 1.346 . S
C17 N18 1.307 . S
C17 C19 1.486 . S
N18 N14 1.370 . S
N18 C17 1.307 . S
C19 C17 1.486 . S
C19 H23 0.960 . S
C19 H24 0.960 . S
C19 H25 0.959 . S
H20 C16 0.960 . S
H21 C16 0.961 . S
H22 C16 0.960 . S
H23 C19 0.960 . S
H24 C19 0.960 . S
H25 C19 0.959 . S
C26 N27 1.317 . S
C26 N28 1.348 . S
C26 C29 1.485 . S
N27 C26 1.317 . S
N27 N31 1.370 . S
N28 C26 1.348 . S
N28 C30 1.346 . S
C29 C26 1.485 . S
C29 H33 0.960 . S
C29 H34 0.961 . S
C29 H35 0.960 . S
C30 N28 1.346 . S
C30 N31 1.307 . S
C30 C32 1.486 . S
N31 N27 1.370 . S
N31 C30 1.307 . S
C32 C30 1.486 . S
C32 H36 0.960 . S
C32 H37 0.960 . S
C32 H38 0.959 . S
H33 C29 0.960 . S
H34 C29 0.961 . S
H35 C29 0.960 . S
H36 C32 0.960 . S
H37 C32 0.960 . S
H38 C32 0.959 . S
C39 N40 1.317 . S
C39 N41 1.348 . S
C39 C42 1.485 . S
N40 C39 1.317 . S
N40 N44 1.370 . S
N41 C39 1.348 . S
N41 C43 1.346 . S
C42 C39 1.485 . S
C42 H46 0.960 . S
C42 H47 0.961 . S
C42 H48 0.960 . S
C43 N41 1.346 . S
C43 N44 1.307 . S
C43 C45 1.486 . S
N44 N40 1.370 . S
N44 C43 1.307 . S
C45 C43 1.486 . S
C45 H49 0.960 . S
C45 H50 0.960 . S
C45 H51 0.959 . S
H46 C42 0.960 . S
H47 C42 0.961 . S
H48 C42 0.960 . S
H49 C45 0.960 . S
H50 C45 0.960 . S
H51 C45 0.959 . S
C52 N53 1.317 . S
C52 N54 1.348 . S
C52 C55 1.485 . S
N53 C52 1.317 . S
N53 N57 1.370 . S
N54 C52 1.348 . S
N54 C56 1.346 . S
C55 C52 1.485 . S
C55 H59 0.960 . S
C55 H60 0.961 . S
C55 H61 0.960 . S
C56 N54 1.346 . S
C56 N57 1.307 . S
C56 C58 1.486 . S
N57 N53 1.370 . S
N57 C56 1.307 . S
C58 C56 1.486 . S
C58 H62 0.960 . S
C58 H63 0.960 . S
C58 H64 0.959 . S
H59 C55 0.960 . S
H60 C55 0.961 . S
H61 C55 0.960 . S
H62 C58 0.960 . S
H63 C58 0.960 . S
H64 C58 0.959 . S
C65 N66 1.317 . S
C65 N67 1.348 . S
C65 C68 1.485 . S
N66 C65 1.317 . S
N66 N70 1.370 . S
N67 C65 1.348 . S
N67 C69 1.346 . S
C68 C65 1.485 . S
C68 H72 0.960 . S
C68 H73 0.961 . S
C68 H74 0.960 . S
C69 N67 1.346 . S
C69 N70 1.307 . S
C69 C71 1.486 . S
N70 N66 1.370 . S
N70 C69 1.307 . S
C71 C69 1.486 . S
C71 H75 0.960 . S
C71 H76 0.960 . S
C71 H77 0.959 . S
H72 C68 0.960 . S
H73 C68 0.961 . S
H74 C68 0.960 . S
H75 C71 0.960 . S
H76 C71 0.960 . S
H77 C71 0.959 . S
C78 N79 1.317 . S
C78 N80 1.348 . S
C78 C81 1.485 . S
N79 C78 1.317 . S
N79 N83 1.370 . S
N80 C78 1.348 . S
N80 C82 1.346 . S
C81 C78 1.485 . S
C81 H85 0.960 . S
C81 H86 0.961 . S
C81 H87 0.960 . S
C82 N80 1.346 . S
C82 N83 1.307 . S
C82 C84 1.486 . S
N83 N79 1.370 . S
N83 C82 1.307 . S
C84 C82 1.486 . S
C84 H88 0.960 . S
C84 H89 0.960 . S
C84 H90 0.959 . S
H85 C81 0.960 . S
H86 C81 0.961 . S
H87 C81 0.960 . S
H88 C84 0.960 . S
H89 C84 0.960 . S
H90 C84 0.959 . S
C91 N92 1.317 . S
C91 N93 1.348 . S
C91 C94 1.485 . S
N92 C91 1.317 . S
N92 N96 1.370 . S
N93 C91 1.348 . S
N93 C95 1.346 . S
C94 C91 1.485 . S
C94 H98 0.960 . S
C94 H99 0.961 . S
C94 H100 0.960 . S
C95 N93 1.346 . S
C95 N96 1.307 . S
C95 C97 1.486 . S
N96 N92 1.370 . S
N96 C95 1.307 . S
C97 C95 1.486 . S
C97 H101 0.960 . S
C97 H102 0.960 . S
C97 H103 0.959 . S
H98 C94 0.960 . S
H99 C94 0.961 . S
H100 C94 0.960 . S
H101 C97 0.960 . S
H102 C97 0.960 . S
H103 C97 0.959 . S
Tb104 N133 2.617 . S
Tb104 N139 2.572 . S
Tb104 O148 2.465 . S
Tb104 O149 2.387 . S
Tb104 O151 2.428 . S
Tb104 O152 2.308 1_455 S
Tb104 O156 2.349 1_455 S
Tb104 O159 2.393 . S
Tb104 C168 2.802 . S
C105 N106 1.379 . S
C105 C108 1.416 . S
C105 C112 1.424 . S
N106 C105 1.379 . S
N106 C109 1.334 . S
N106 Tb115 2.617 . S
C107 C109 1.390 . S
C107 C110 1.339 . S
C107 H127 0.930 . S
C108 C105 1.416 . S
C108 C110 1.416 . S
C108 C114 1.448 . S
C109 N106 1.334 . S
C109 C107 1.390 . S
C109 H120 0.930 . S
C110 C107 1.339 . S
C110 C108 1.416 . S
C110 H131 0.930 . S
C111 C112 1.413 . S
C111 C113 1.427 . S
C111 C117 1.416 1_545 S
C112 C105 1.424 . S
C112 C111 1.413 . S
C112 N116 1.361 . S
C113 C111 1.427 . S
C113 C114 1.328 . S
C113 H128 0.929 1_545 S
C114 C108 1.448 . S
C114 C113 1.328 . S
C114 H129 0.930 . S
Tb115 N106 2.617 . S
Tb115 N116 2.572 . S
Tb115 O150 2.349 1_655 S
Tb115 O153 2.393 . S
Tb115 O154 2.465 . S
Tb115 O155 2.387 . S
Tb115 O157 2.428 . S
Tb115 O158 2.308 1_655 S
Tb115 C179 2.802 . S
N116 C112 1.361 . S
N116 Tb115 2.572 . S
N116 C118 1.340 . S
C117 C111 1.416 1_565 S
C117 C119 1.332 . S
C117 H125 0.931 . S
C118 N116 1.340 . S
C118 C119 1.407 1_545 S
C118 H124 0.930 . S
C119 C117 1.332 . S
C119 C118 1.407 1_565 S
C119 H121 0.929 . S
H120 C109 0.930 . S
H121 C119 0.929 . S
H122 C137 0.930 . S
H123 C144 0.929 . S
H124 C118 0.930 . S
H125 C117 0.931 . S
H126 C140 0.930 . S
H127 C107 0.930 . S
H128 C113 0.929 1_565 S
H129 C114 0.930 . S
H130 C135 0.930 . S
H131 C110 0.930 . S
H132 C143 0.931 . S
N133 Tb104 2.617 . S
N133 C134 1.379 . S
N133 C137 1.334 . S
C134 N133 1.379 . S
C134 C136 1.416 . S
C134 C142 1.424 . S
C135 H130 0.930 . S
C135 C137 1.390 . S
C135 C138 1.339 . S
C136 C134 1.416 . S
C136 C138 1.416 . S
C136 C169 1.448 . S
C137 H122 0.930 . S
C137 N133 1.334 . S
C137 C135 1.390 . S
C138 C135 1.339 . S
C138 C136 1.416 . S
C138 H145 0.930 . S
N139 Tb104 2.572 . S
N139 C140 1.340 . S
N139 C142 1.361 . S
C140 H126 0.930 . S
C140 N139 1.340 . S
C140 C144 1.407 . S
C141 C142 1.413 . S
C141 C143 1.416 . S
C141 C170 1.427 . S
C142 C134 1.424 . S
C142 N139 1.361 . S
C142 C141 1.413 . S
C143 H132 0.931 . S
C143 C141 1.416 . S
C143 C144 1.332 . S
C144 H123 0.929 . S
C144 C140 1.407 . S
C144 C143 1.332 . S
H145 C138 0.930 . S
H146 C169 0.930 . S
H147 C170 0.929 . S
O148 Tb104 2.465 . S
O148 C168 1.264 . S
O149 Tb104 2.387 . S
O149 C160 1.264 . S
O150 Tb115 2.349 1_455 S
O150 C160 1.243 . S
O151 Tb104 2.428 . S
O151 C168 1.256 . S
O152 Tb104 2.308 1_655 S
O152 C167 1.266 . S
O153 Tb115 2.393 . S
O153 C167 1.248 . S
O154 Tb115 2.465 . S
O154 C179 1.264 . S
O155 Tb115 2.387 . S
O155 C171 1.264 . S
O156 Tb104 2.349 1_655 S
O156 C171 1.243 . S
O157 Tb115 2.428 . S
O157 C179 1.256 . S
O158 Tb115 2.308 1_455 S
O158 C178 1.266 . S
O159 Tb104 2.393 . S
O159 C178 1.248 . S
C160 O149 1.264 . S
C160 O150 1.243 . S
C161 C164 1.399 . S
C161 C166 1.383 . S
C161 C168 1.496 . S
C162 C163 1.399 . S
C162 C166 1.389 . S
C163 C162 1.399 . S
C163 C165 1.380 . S
C163 H180 0.929 . S
C164 C161 1.399 . S
C164 C165 1.392 . S
C164 H181 0.929 . S
C165 C163 1.380 . S
C165 C164 1.392 . S
C165 H182 0.929 . S
C166 C161 1.383 . S
C166 C162 1.389 . S
C166 H183 0.931 . S
C167 O152 1.266 . S
C167 O153 1.248 . S
C168 Tb104 2.802 . S
C168 O148 1.264 . S
C168 O151 1.256 . S
C168 C161 1.496 . S
C169 C136 1.448 . S
C169 H146 0.930 . S
C169 C170 1.328 . S
C170 C141 1.427 . S
C170 H147 0.929 . S
C170 C169 1.328 . S
C171 O155 1.264 . S
C171 O156 1.243 . S
C172 C175 1.399 . S
C172 C176 1.383 . S
C172 C179 1.496 . S
C173 C174 1.399 . S
C173 C176 1.389 . S
C174 C173 1.399 . S
C174 C177 1.380 . S
C174 H184 0.929 . S
C175 C172 1.399 . S
C175 C177 1.392 . S
C175 H185 0.929 . S
C176 C172 1.383 . S
C176 C173 1.389 . S
C176 H186 0.931 . S
C177 C174 1.380 . S
C177 C175 1.392 . S
C177 H187 0.929 . S
C178 O158 1.266 . S
C178 O159 1.248 . S
C179 Tb115 2.802 . S
C179 O154 1.264 . S
C179 O157 1.256 . S
C179 C172 1.496 . S
H180 C163 0.929 . S
H181 C164 0.929 . S
H182 C165 0.929 . S
H183 C166 0.931 . S
H184 C174 0.929 . S
H185 C175 0.929 . S
H186 C176 0.931 . S
H187 C177 0.929 . S
Tb188 N217 2.617 . S
Tb188 N223 2.572 . S
Tb188 O232 2.465 . S
Tb188 O233 2.387 . S
Tb188 O235 2.428 . S
Tb188 O236 2.308 . S
Tb188 O240 2.349 . S
Tb188 O243 2.393 . S
Tb188 C252 2.802 . S
C189 N190 1.379 . S
C189 C192 1.416 . S
C189 C196 1.424 . S
N190 C189 1.379 . S
N190 C193 1.334 . S
N190 Tb199 2.617 . S
C191 C193 1.390 . S
C191 C194 1.339 . S
C191 H211 0.930 . S
C192 C189 1.416 . S
C192 C194 1.416 . S
C192 C198 1.448 . S
C193 N190 1.334 . S
C193 C191 1.390 . S
C193 H204 0.930 . S
C194 C191 1.339 . S
C194 C192 1.416 . S
C194 H215 0.930 . S
C195 C196 1.413 . S
C195 C197 1.427 . S
C195 C201 1.416 . S
C196 C189 1.424 . S
C196 C195 1.413 . S
C196 N200 1.361 . S
C197 C195 1.427 . S
C197 C198 1.328 . S
C197 H212 0.929 . S
C198 C192 1.448 . S
C198 C197 1.328 . S
C198 H213 0.930 . S
Tb199 N190 2.617 . S
Tb199 N200 2.572 . S
Tb199 O234 2.349 . S
Tb199 O237 2.393 . S
Tb199 O238 2.465 . S
Tb199 O239 2.387 . S
Tb199 O241 2.428 . S
Tb199 O242 2.308 . S
Tb199 C263 2.802 . S
N200 C196 1.361 . S
N200 Tb199 2.572 . S
N200 C202 1.340 . S
C201 C195 1.416 . S
C201 C203 1.332 . S
C201 H209 0.931 . S
C202 N200 1.340 . S
C202 C203 1.407 . S
C202 H208 0.930 . S
C203 C201 1.332 . S
C203 C202 1.407 . S
C203 H205 0.929 . S
H204 C193 0.930 . S
H205 C203 0.929 . S
H206 C221 0.930 . S
H207 C228 0.929 . S
H208 C202 0.930 . S
H209 C201 0.931 . S
H210 C224 0.930 . S
H211 C191 0.930 . S
H212 C197 0.929 . S
H213 C198 0.930 . S
H214 C219 0.930 . S
H215 C194 0.930 . S
H216 C227 0.931 . S
N217 Tb188 2.617 . S
N217 C218 1.379 . S
N217 C221 1.334 . S
C218 N217 1.379 . S
C218 C220 1.416 . S
C218 C226 1.424 . S
C219 H214 0.930 . S
C219 C221 1.390 . S
C219 C222 1.339 . S
C220 C218 1.416 . S
C220 C222 1.416 . S
C220 C253 1.448 . S
C221 H206 0.930 . S
C221 N217 1.334 . S
C221 C219 1.390 . S
C222 C219 1.339 . S
C222 C220 1.416 . S
C222 H229 0.930 . S
N223 Tb188 2.572 . S
N223 C224 1.340 . S
N223 C226 1.361 . S
C224 H210 0.930 . S
C224 N223 1.340 . S
C224 C228 1.407 . S
C225 C226 1.413 . S
C225 C227 1.416 . S
C225 C254 1.427 . S
C226 C218 1.424 . S
C226 N223 1.361 . S
C226 C225 1.413 . S
C227 H216 0.931 . S
C227 C225 1.416 . S
C227 C228 1.332 . S
C228 H207 0.929 . S
C228 C224 1.407 . S
C228 C227 1.332 . S
H229 C222 0.930 . S
H230 C253 0.930 . S
H231 C254 0.929 . S
O232 Tb188 2.465 . S
O232 C252 1.264 . S
O233 Tb188 2.387 . S
O233 C244 1.264 . S
O234 Tb199 2.349 . S
O234 C244 1.243 . S
O235 Tb188 2.428 . S
O235 C252 1.256 . S
O236 Tb188 2.308 . S
O236 C251 1.266 . S
O237 Tb199 2.393 . S
O237 C251 1.248 . S
O238 Tb199 2.465 . S
O238 C263 1.264 . S
O239 Tb199 2.387 . S
O239 C255 1.264 . S
O240 Tb188 2.349 . S
O240 C255 1.243 . S
O241 Tb199 2.428 . S
O241 C263 1.256 . S
O242 Tb199 2.308 . S
O242 C262 1.266 . S
O243 Tb188 2.393 . S
O243 C262 1.248 . S
C244 O233 1.264 . S
C244 O234 1.243 . S
C245 C248 1.399 . S
C245 C250 1.383 . S
C245 C252 1.496 . S
C246 C247 1.399 . S
C246 C250 1.389 . S
C247 C246 1.399 . S
C247 C249 1.380 . S
C247 H264 0.929 . S
C248 C245 1.399 . S
C248 C249 1.392 . S
C248 H265 0.929 . S
C249 C247 1.380 . S
C249 C248 1.392 . S
C249 H266 0.929 . S
C250 C245 1.383 . S
C250 C246 1.389 . S
C250 H267 0.931 . S
C251 O236 1.266 . S
C251 O237 1.248 . S
C252 Tb188 2.802 . S
C252 O232 1.264 . S
C252 O235 1.256 . S
C252 C245 1.496 . S
C253 C220 1.448 . S
C253 H230 0.930 . S
C253 C254 1.328 . S
C254 C225 1.427 . S
C254 H231 0.929 . S
C254 C253 1.328 . S
C255 O239 1.264 . S
C255 O240 1.243 . S
C256 C259 1.399 . S
C256 C260 1.383 . S
C256 C263 1.496 . S
C257 C258 1.399 . S
C257 C260 1.389 . S
C258 C257 1.399 . S
C258 C261 1.380 . S
C258 H268 0.929 . S
C259 C256 1.399 . S
C259 C261 1.392 . S
C259 H269 0.929 . S
C260 C256 1.383 . S
C260 C257 1.389 . S
C260 H270 0.931 . S
C261 C258 1.380 . S
C261 C259 1.392 . S
C261 H271 0.929 . S
C262 O242 1.266 . S
C262 O243 1.248 . S
C263 Tb199 2.802 . S
C263 O238 1.264 . S
C263 O241 1.256 . S
C263 C256 1.496 . S
H264 C247 0.929 . S
H265 C248 0.929 . S
H266 C249 0.929 . S
H267 C250 0.931 . S
H268 C258 0.929 . S
H269 C259 0.929 . S
H270 C260 0.931 . S
H271 C261 0.929 . S
Tb272 N301 2.617 . S
Tb272 N307 2.572 . S
Tb272 O316 2.465 . S
Tb272 O317 2.387 . S
Tb272 O319 2.428 . S
Tb272 O320 2.314 . S
Tb272 O324 2.349 . S
Tb272 O327 2.393 . S
Tb272 C336 2.802 . S
C273 N274 1.379 . S
C273 C276 1.416 . S
C273 C280 1.424 . S
N274 C273 1.379 . S
N274 C277 1.334 . S
N274 Tb283 2.617 . S
C275 C277 1.390 . S
C275 C278 1.339 . S
C275 H295 0.930 . S
C276 C273 1.416 . S
C276 C278 1.416 . S
C276 C282 1.448 . S
C277 N274 1.334 . S
C277 C275 1.390 . S
C277 H288 0.930 . S
C278 C275 1.339 . S
C278 C276 1.416 . S
C278 H299 0.930 . S
C279 C280 1.413 . S
C279 C281 1.427 . S
C279 C285 1.416 . S
C280 C273 1.424 . S
C280 C279 1.413 . S
C280 N284 1.361 . S
C281 C279 1.427 . S
C281 C282 1.328 . S
C281 H296 0.929 . S
C282 C276 1.448 . S
C282 C281 1.328 . S
C282 H297 0.930 . S
Tb283 N274 2.617 . S
Tb283 N284 2.572 . S
Tb283 O318 2.349 1_655 S
Tb283 O321 2.393 . S
Tb283 O322 2.465 . S
Tb283 O323 2.387 . S
Tb283 O325 2.428 . S
Tb283 O326 2.308 1_655 S
Tb283 C347 2.802 . S
N284 C280 1.361 . S
N284 Tb283 2.572 . S
N284 C286 1.340 . S
C285 C279 1.416 . S
C285 C287 1.332 . S
C285 H293 0.931 . S
C286 N284 1.340 . S
C286 C287 1.407 . S
C286 H292 0.930 . S
C287 C285 1.332 . S
C287 C286 1.407 . S
C287 H289 0.929 . S
H288 C277 0.930 . S
H289 C287 0.929 . S
H290 C305 0.930 . S
H291 C312 0.929 . S
H292 C286 0.930 . S
H293 C285 0.931 . S
H294 C308 0.930 . S
H295 C275 0.930 . S
H296 C281 0.929 . S
H297 C282 0.930 . S
H298 C303 0.930 . S
H299 C278 0.930 . S
H300 C311 0.931 . S
N301 Tb272 2.617 . S
N301 C302 1.379 . S
N301 C305 1.334 . S
C302 N301 1.379 . S
C302 C304 1.416 . S
C302 C310 1.424 . S
C303 H298 0.930 . S
C303 C305 1.390 . S
C303 C306 1.339 . S
C304 C302 1.416 . S
C304 C306 1.416 . S
C304 C337 1.448 . S
C305 H290 0.930 . S
C305 N301 1.334 . S
C305 C303 1.390 . S
C306 C303 1.339 . S
C306 C304 1.416 . S
C306 H313 0.930 . S
N307 Tb272 2.572 . S
N307 C308 1.340 . S
N307 C310 1.361 . S
C308 H294 0.930 . S
C308 N307 1.340 . S
C308 C312 1.407 1_565 S
C309 C310 1.413 . S
C309 C311 1.416 1_565 S
C309 C338 1.427 . S
C310 C302 1.424 . S
C310 N307 1.361 . S
C310 C309 1.413 . S
C311 H300 0.931 . S
C311 C309 1.416 1_545 S
C311 C312 1.332 . S
C312 H291 0.929 . S
C312 C308 1.407 1_545 S
C312 C311 1.332 . S
H313 C306 0.930 . S
H314 C337 0.930 . S
H315 C338 0.929 1_545 S
O316 Tb272 2.465 . S
O316 C336 1.264 . S
O317 Tb272 2.387 . S
O317 C328 1.264 . S
O318 Tb283 2.349 1_455 S
O318 C328 1.243 . S
O319 Tb272 2.428 . S
O319 C336 1.256 . S
O320 Tb272 2.314 . S
O320 C335 1.259 1_455 S
O321 Tb283 2.393 . S
O321 C335 1.248 . S
O322 Tb283 2.465 . S
O322 C347 1.264 . S
O323 Tb283 2.387 . S
O323 C339 1.264 . S
O324 Tb272 2.349 . S
O324 C339 1.243 1_455 S
O325 Tb283 2.428 . S
O325 C347 1.256 . S
O326 Tb283 2.308 1_455 S
O326 C346 1.266 . S
O327 Tb272 2.393 . S
O327 C346 1.248 . S
C328 O317 1.264 . S
C328 O318 1.243 . S
C329 C332 1.399 . S
C329 C334 1.383 . S
C329 C336 1.496 . S
C330 C331 1.399 . S
C330 C334 1.389 . S
C331 C330 1.399 . S
C331 C333 1.380 . S
C331 H348 0.929 . S
C332 C329 1.399 . S
C332 C333 1.392 . S
C332 H349 0.929 . S
C333 C331 1.380 . S
C333 C332 1.392 . S
C333 H350 0.929 . S
C334 C329 1.383 . S
C334 C330 1.389 . S
C334 H351 0.931 . S
C335 O320 1.259 1_655 S
C335 O321 1.248 . S
C336 Tb272 2.802 . S
C336 O316 1.264 . S
C336 O319 1.256 . S
C336 C329 1.496 . S
C337 C304 1.448 . S
C337 H314 0.930 . S
C337 C338 1.328 . S
C338 C309 1.427 . S
C338 H315 0.929 1_565 S
C338 C337 1.328 . S
C339 O323 1.264 . S
C339 O324 1.243 1_655 S
C340 C343 1.399 . S
C340 C344 1.383 . S
C340 C347 1.496 . S
C341 C342 1.399 . S
C341 C344 1.389 . S
C342 C341 1.399 . S
C342 C345 1.380 . S
C342 H352 0.929 . S
C343 C340 1.399 . S
C343 C345 1.392 . S
C343 H353 0.929 . S
C344 C340 1.383 . S
C344 C341 1.389 . S
C344 H354 0.931 . S
C345 C342 1.380 . S
C345 C343 1.392 . S
C345 H355 0.929 . S
C346 O326 1.266 . S
C346 O327 1.248 . S
C347 Tb283 2.802 . S
C347 O322 1.264 . S
C347 O325 1.256 . S
C347 C340 1.496 . S
H348 C331 0.929 . S
H349 C332 0.929 . S
H350 C333 0.929 . S
H351 C334 0.931 . S
H352 C342 0.929 . S
H353 C343 0.929 . S
H354 C344 0.931 . S
H355 C345 0.929 . S
Tb356 N385 2.617 . S
Tb356 N391 2.572 . S
Tb356 O400 2.465 . S
Tb356 O401 2.387 . S
Tb356 O403 2.428 . S
Tb356 O404 2.308 . S
Tb356 O408 2.349 . S
Tb356 O411 2.393 . S
Tb356 C420 2.802 . S
C357 N358 1.379 . S
C357 C360 1.416 . S
C357 C364 1.424 . S
N358 C357 1.379 . S
N358 C361 1.334 . S
N358 Tb367 2.617 . S
C359 C361 1.390 . S
C359 C362 1.339 . S
C359 H379 0.930 . S
C360 C357 1.416 . S
C360 C362 1.416 . S
C360 C366 1.448 . S
C361 N358 1.334 . S
C361 C359 1.390 . S
C361 H372 0.930 . S
C362 C359 1.339 . S
C362 C360 1.416 . S
C362 H383 0.930 . S
C363 C364 1.413 . S
C363 C365 1.427 . S
C363 C369 1.416 . S
C364 C357 1.424 . S
C364 C363 1.413 . S
C364 N368 1.361 . S
C365 C363 1.427 . S
C365 C366 1.328 . S
C365 H380 0.929 . S
C366 C360 1.448 . S
C366 C365 1.328 . S
C366 H381 0.930 . S
Tb367 N358 2.617 . S
Tb367 N368 2.572 . S
Tb367 O402 2.349 . S
Tb367 O405 2.393 . S
Tb367 O406 2.465 . S
Tb367 O407 2.387 . S
Tb367 O409 2.428 . S
Tb367 O410 2.308 . S
Tb367 C431 2.802 . S
N368 C364 1.361 . S
N368 Tb367 2.572 . S
N368 C370 1.340 . S
C369 C363 1.416 . S
C369 C371 1.332 . S
C369 H377 0.931 . S
C370 N368 1.340 . S
C370 C371 1.407 . S
C370 H376 0.930 . S
C371 C369 1.332 . S
C371 C370 1.407 . S
C371 H373 0.929 . S
H372 C361 0.930 . S
H373 C371 0.929 . S
H374 C389 0.930 . S
H375 C396 0.929 . S
H376 C370 0.930 . S
H377 C369 0.931 . S
H378 C392 0.930 . S
H379 C359 0.930 . S
H380 C365 0.929 . S
H381 C366 0.930 . S
H382 C387 0.930 . S
H383 C362 0.930 . S
H384 C395 0.931 . S
N385 Tb356 2.617 . S
N385 C386 1.379 . S
N385 C389 1.334 . S
C386 N385 1.379 . S
C386 C388 1.416 . S
C386 C394 1.424 . S
C387 H382 0.930 . S
C387 C389 1.390 . S
C387 C390 1.339 . S
C388 C386 1.416 . S
C388 C390 1.416 . S
C388 C421 1.448 . S
C389 H374 0.930 . S
C389 N385 1.334 . S
C389 C387 1.390 . S
C390 C387 1.339 . S
C390 C388 1.416 . S
C390 H397 0.930 . S
N391 Tb356 2.572 . S
N391 C392 1.340 . S
N391 C394 1.361 . S
C392 H378 0.930 . S
C392 N391 1.340 . S
C392 C396 1.407 . S
C393 C394 1.413 . S
C393 C395 1.416 . S
C393 C422 1.427 . S
C394 C386 1.424 . S
C394 N391 1.361 . S
C394 C393 1.413 . S
C395 H384 0.931 . S
C395 C393 1.416 . S
C395 C396 1.332 . S
C396 H375 0.929 . S
C396 C392 1.407 . S
C396 C395 1.332 . S
H397 C390 0.930 . S
H398 C421 0.930 . S
H399 C422 0.929 . S
O400 Tb356 2.465 . S
O400 C420 1.264 . S
O401 Tb356 2.387 . S
O401 C412 1.264 . S
O402 Tb367 2.349 . S
O402 C412 1.243 . S
O403 Tb356 2.428 . S
O403 C420 1.256 . S
O404 Tb356 2.308 . S
O404 C419 1.266 . S
O405 Tb367 2.393 . S
O405 C419 1.248 . S
O406 Tb367 2.465 . S
O406 C431 1.264 . S
O407 Tb367 2.387 . S
O407 C423 1.264 . S
O408 Tb356 2.349 . S
O408 C423 1.243 . S
O409 Tb367 2.428 . S
O409 C431 1.256 . S
O410 Tb367 2.308 . S
O410 C430 1.266 . S
O411 Tb356 2.393 . S
O411 C430 1.248 . S
C412 O401 1.264 . S
C412 O402 1.243 . S
C413 C416 1.399 . S
C413 C418 1.383 . S
C413 C420 1.496 . S
C414 C415 1.399 . S
C414 C418 1.389 . S
C415 C414 1.399 . S
C415 C417 1.380 . S
C415 H432 0.929 . S
C416 C413 1.399 . S
C416 C417 1.392 . S
C416 H433 0.929 . S
C417 C415 1.380 . S
C417 C416 1.392 . S
C417 H434 0.929 . S
C418 C413 1.383 . S
C418 C414 1.389 . S
C418 H435 0.931 . S
C419 O404 1.266 . S
C419 O405 1.248 . S
C420 Tb356 2.802 . S
C420 O400 1.264 . S
C420 O403 1.256 . S
C420 C413 1.496 . S
C421 C388 1.448 . S
C421 H398 0.930 . S
C421 C422 1.328 . S
C422 C393 1.427 . S
C422 H399 0.929 . S
C422 C421 1.328 . S
C423 O407 1.264 . S
C423 O408 1.243 . S
C424 C427 1.399 . S
C424 C428 1.383 . S
C424 C431 1.496 . S
C425 C426 1.399 . S
C425 C428 1.389 . S
C426 C425 1.399 . S
C426 C429 1.380 . S
C426 H436 0.929 . S
C427 C424 1.399 . S
C427 C429 1.392 . S
C427 H437 0.929 . S
C428 C424 1.383 . S
C428 C425 1.389 . S
C428 H438 0.931 . S
C429 C426 1.380 . S
C429 C427 1.392 . S
C429 H439 0.929 . S
C430 O410 1.266 . S
C430 O411 1.248 . S
C431 Tb367 2.802 . S
C431 O406 1.264 . S
C431 O409 1.256 . S
C431 C424 1.496 . S
H432 C415 0.929 . S
H433 C416 0.929 . S
H434 C417 0.929 . S
H435 C418 0.931 . S
H436 C426 0.929 . S
H437 C427 0.929 . S
H438 C428 0.931 . S
H439 C429 0.929 . S
H440 C446 0.930 . S
H441 C450 0.930 . S
H442 C455 0.929 . S
H443 C453 0.929 . S
H444 C448 0.929 . S
H445 C454 0.929 . S
C446 H440 0.930 . S
C446 C447 1.367 . S
C446 C454 1.378 . S
C447 C446 1.367 . S
C447 C455 1.433 . S
C448 H444 0.929 . S
C448 C450 1.378 . S
C448 C452 1.350 . S
C449 C452 1.463 . S
C449 C454 1.350 . S
C449 N457 1.427 . S
C450 H441 0.930 . S
C450 C448 1.378 . S
C450 C451 1.367 1_565 S
C451 C450 1.367 1_545 S
C451 C453 1.433 . S
C452 C448 1.350 . S
C452 C449 1.463 . S
C452 N456 1.427 1_565 S
C453 H443 0.929 . S
C453 C451 1.433 . S
C453 N456 1.384 . S
C454 H445 0.929 . S
C454 C446 1.378 . S
C454 C449 1.350 . S
C455 H442 0.929 . S
C455 C447 1.433 . S
C455 N457 1.384 . S
N456 C452 1.427 1_545 S
N456 C453 1.384 . S
N457 C449 1.427 . S
N457 C455 1.384 . S
H458 C464 0.930 . S
H459 C468 0.930 . S
H460 C473 0.929 . S
H461 C471 0.929 . S
H462 C466 0.929 . S
H463 C472 0.929 . S
C464 H458 0.930 . S
C464 C465 1.367 . S
C464 C472 1.378 . S
C465 C464 1.367 . S
C465 C473 1.433 . S
C466 H462 0.929 . S
C466 C468 1.378 . S
C466 C470 1.350 . S
C467 C470 1.463 . S
C467 C472 1.350 . S
C467 N475 1.427 . S
C468 H459 0.930 . S
C468 C466 1.378 . S
C468 C469 1.367 . S
C469 C468 1.367 . S
C469 C471 1.433 . S
C470 C466 1.350 . S
C470 C467 1.463 . S
C470 N474 1.427 . S
C471 H461 0.929 . S
C471 C469 1.433 . S
C471 N474 1.384 . S
C472 H463 0.929 . S
C472 C464 1.378 . S
C472 C467 1.350 . S
C473 H460 0.929 . S
C473 C465 1.433 . S
C473 N475 1.384 . S
N474 C470 1.427 . S
N474 C471 1.384 . S
N475 C467 1.427 . S
N475 C473 1.384 . S
H476 C482 0.930 . S
H477 C486 0.930 . S
H478 C491 0.929 . S
H479 C489 0.929 . S
H480 C484 0.929 . S
H481 C490 0.929 . S
C482 H476 0.930 . S
C482 C483 1.367 . S
C482 C490 1.378 . S
C483 C482 1.367 . S
C483 C491 1.433 . S
C484 H480 0.929 . S
C484 C486 1.378 . S
C484 C488 1.350 . S
C485 C488 1.463 . S
C485 C490 1.350 . S
C485 N493 1.427 . S
C486 H477 0.930 . S
C486 C484 1.378 . S
C486 C487 1.367 . S
C487 C486 1.367 . S
C487 C489 1.433 . S
C488 C484 1.350 . S
C488 C485 1.463 . S
C488 N492 1.427 . S
C489 H479 0.929 . S
C489 C487 1.433 . S
C489 N492 1.384 . S
C490 H481 0.929 . S
C490 C482 1.378 . S
C490 C485 1.350 . S
C491 H478 0.929 . S
C491 C483 1.433 . S
C491 N493 1.384 . S
N492 C488 1.427 . S
N492 C489 1.384 . S
N493 C485 1.427 . S
N493 C491 1.384 . S
H494 C500 0.930 . S
H495 C504 0.930 . S
H496 C509 0.929 . S
H497 C507 0.929 . S
H498 C502 0.929 . S
H499 C508 0.929 . S
C500 H494 0.930 . S
C500 C501 1.367 . S
C500 C508 1.378 . S
C501 C500 1.367 . S
C501 C509 1.433 . S
C502 H498 0.929 . S
C502 C504 1.378 . S
C502 C506 1.350 1_545 S
C503 C506 1.463 . S
C503 C508 1.350 . S
C503 N511 1.427 . S
C504 H495 0.930 . S
C504 C502 1.378 . S
C504 C505 1.367 . S
C505 C504 1.367 . S
C505 C507 1.433 1_545 S
C506 C502 1.350 1_565 S
C506 C503 1.463 . S
C506 N510 1.427 . S
C507 H497 0.929 . S
C507 C505 1.433 1_565 S
C507 N510 1.384 . S
C508 H499 0.929 . S
C508 C500 1.378 . S
C508 C503 1.350 . S
C509 H496 0.929 . S
C509 C501 1.433 . S
C509 N511 1.384 . S
N510 C506 1.427 . S
N510 C507 1.384 . S
N511 C503 1.427 . S
N511 C509 1.384 . S
H512 C518 0.930 . S
H513 C522 0.930 . S
H514 C527 0.929 . S
H515 C525 0.929 . S
H516 C520 0.929 . S
H517 C526 0.929 . S
C518 H512 0.930 . S
C518 C519 1.367 . S
C518 C526 1.378 . S
C519 C518 1.367 . S
C519 C527 1.433 . S
C520 H516 0.929 . S
C520 C522 1.378 . S
C520 C524 1.350 1_565 S
C521 C524 1.463 . S
C521 C526 1.350 . S
C521 N529 1.427 . S
C522 H513 0.930 . S
C522 C520 1.378 . S
C522 C523 1.367 . S
C523 C522 1.367 . S
C523 C525 1.433 1_565 S
C524 C520 1.350 1_545 S
C524 C521 1.463 . S
C524 N528 1.427 . S
C525 H515 0.929 . S
C525 C523 1.433 1_545 S
C525 N528 1.384 . S
C526 H517 0.929 . S
C526 C518 1.378 . S
C526 C521 1.350 . S
C527 H514 0.929 . S
C527 C519 1.433 . S
C527 N529 1.384 . S
N528 C524 1.427 . S
N528 C525 1.384 . S
N529 C521 1.427 . S
N529 C527 1.384 . S
H530 C536 0.930 . S
H531 C540 0.930 . S
H532 C545 0.929 . S
H533 C543 0.929 . S
H534 C538 0.929 . S
H535 C544 0.929 . S
C536 H530 0.930 . S
C536 C537 1.367 . S
C536 C544 1.378 . S
C537 C536 1.367 . S
C537 C545 1.433 . S
C538 H534 0.929 . S
C538 C540 1.378 . S
C538 C542 1.350 . S
C539 C542 1.463 . S
C539 C544 1.350 . S
C539 N547 1.427 . S
C540 H531 0.930 . S
C540 C538 1.378 . S
C540 C541 1.367 . S
C541 C540 1.367 . S
C541 C543 1.433 . S
C542 C538 1.350 . S
C542 C539 1.463 . S
C542 N546 1.427 . S
C543 H533 0.929 . S
C543 C541 1.433 . S
C543 N546 1.384 . S
C544 H535 0.929 . S
C544 C536 1.378 . S
C544 C539 1.350 . S
C545 H532 0.929 . S
C545 C537 1.433 . S
C545 N547 1.384 . S
N546 C542 1.427 . S
N546 C543 1.384 . S
N547 C539 1.427 . S
N547 C545 1.384 . S
H548 C554 0.930 . S
H549 C558 0.930 . S
H550 C563 0.929 . S
H551 C561 0.929 . S
H552 C556 0.929 . S
H553 C562 0.929 . S
C554 H548 0.930 . S
C554 C555 1.367 . S
C554 C562 1.378 . S
C555 C554 1.367 . S
C555 C563 1.433 . S
C556 H552 0.929 . S
C556 C558 1.378 . S
C556 C560 1.350 . S
C557 C560 1.463 . S
C557 C562 1.350 . S
C557 N565 1.427 . S
C558 H549 0.930 . S
C558 C556 1.378 . S
C558 C559 1.367 . S
C559 C558 1.367 . S
C559 C561 1.433 . S
C560 C556 1.350 . S
C560 C557 1.463 . S
C560 N564 1.427 . S
C561 H551 0.929 . S
C561 C559 1.433 . S
C561 N564 1.384 . S
C562 H553 0.929 . S
C562 C554 1.378 . S
C562 C557 1.350 . S
C563 H550 0.929 . S
C563 C555 1.433 . S
C563 N565 1.384 . S
N564 C560 1.427 . S
N564 C561 1.384 . S
N565 C557 1.427 . S
N565 C563 1.384 . S
H566 C572 0.930 . S
H567 C576 0.930 . S
H568 C581 0.929 . S
H569 C579 0.929 . S
H570 C574 0.929 . S
H571 C580 0.929 . S
C572 H566 0.930 . S
C572 C573 1.367 . S
C572 C580 1.378 . S
C573 C572 1.367 . S
C573 C581 1.433 . S
C574 H570 0.929 . S
C574 C576 1.378 1_545 S
C574 C578 1.350 . S
C575 C578 1.463 . S
C575 C580 1.350 . S
C575 N583 1.427 . S
C576 H567 0.930 . S
C576 C574 1.378 1_565 S
C576 C577 1.367 . S
C577 C576 1.367 . S
C577 C579 1.433 . S
C578 C574 1.350 . S
C578 C575 1.463 . S
C578 N582 1.427 . S
C579 H569 0.929 . S
C579 C577 1.433 . S
C579 N582 1.384 1_565 S
C580 H571 0.929 . S
C580 C572 1.378 . S
C580 C575 1.350 . S
C581 H568 0.929 . S
C581 C573 1.433 . S
C581 N583 1.384 . S
N582 C578 1.427 . S
N582 C579 1.384 1_545 S
N583 C575 1.427 . S
N583 C581 1.384 . S
H584 C590 0.930 . S
H585 C594 0.930 . S
H586 C599 0.929 . S
H587 C597 0.929 . S
H588 C592 0.929 . S
H589 C598 0.929 1_554 S
C590 H584 0.930 . S
C590 C591 1.367 . S
C590 C598 1.378 . S
C591 C590 1.367 . S
C591 C599 1.433 . S
C592 H588 0.929 . S
C592 C594 1.378 . S
C592 C596 1.350 . S
C593 C596 1.463 1_556 S
C593 C598 1.350 . S
C593 N601 1.427 . S
C594 H585 0.930 . S
C594 C592 1.378 . S
C594 C595 1.367 . S
C595 C594 1.367 . S
C595 C597 1.433 . S
C596 C592 1.350 . S
C596 C593 1.463 1_554 S
C596 N600 1.427 . S
C597 H587 0.929 . S
C597 C595 1.433 . S
C597 N600 1.384 . S
C598 H589 0.929 1_556 S
C598 C590 1.378 . S
C598 C593 1.350 . S
C599 H586 0.929 . S
C599 C591 1.433 . S
C599 N601 1.384 . S
N600 C596 1.427 . S
N600 C597 1.384 . S
N601 C593 1.427 . S
N601 C599 1.384 . S
H602 C608 0.930 . S
H603 C612 0.930 . S
H604 C617 0.929 . S
H605 C615 0.929 . S
H606 C610 0.929 . S
H607 C616 0.929 . S
C608 H602 0.930 . S
C608 C609 1.367 . S
C608 C616 1.378 . S
C609 C608 1.367 . S
C609 C617 1.433 . S
C610 H606 0.929 . S
C610 C612 1.378 . S
C610 C614 1.350 . S
C611 C614 1.463 . S
C611 C616 1.350 . S
C611 N619 1.427 . S
C612 H603 0.930 . S
C612 C610 1.378 . S
C612 C613 1.367 . S
C613 C612 1.367 . S
C613 C615 1.433 . S
C614 C610 1.350 . S
C614 C611 1.463 . S
C614 N618 1.427 . S
C615 H605 0.929 . S
C615 C613 1.433 . S
C615 N618 1.384 . S
C616 H607 0.929 . S
C616 C608 1.378 . S
C616 C611 1.350 . S
C617 H604 0.929 . S
C617 C609 1.433 . S
C617 N619 1.384 . S
N618 C614 1.427 . S
N618 C615 1.384 . S
N619 C611 1.427 . S
N619 C617 1.384 . S
H620 C626 0.930 . S
H621 C630 0.930 . S
H622 C635 0.929 . S
H623 C633 0.929 . S
H624 C628 0.929 . S
H625 C634 0.929 . S
C626 H620 0.930 . S
C626 C627 1.367 . S
C626 C634 1.378 . S
C627 C626 1.367 . S
C627 C635 1.433 . S
C628 H624 0.929 . S
C628 C630 1.378 . S
C628 C632 1.350 . S
C629 C632 1.463 1_554 S
C629 C634 1.350 . S
C629 N637 1.427 . S
C630 H621 0.930 . S
C630 C628 1.378 . S
C630 C631 1.367 . S
C631 C630 1.367 . S
C631 C633 1.433 . S
C632 C628 1.350 . S
C632 C629 1.463 1_556 S
C632 N636 1.427 . S
C633 H623 0.929 . S
C633 C631 1.433 . S
C633 N636 1.384 . S
C634 H625 0.929 . S
C634 C626 1.378 . S
C634 C629 1.350 . S
C635 H622 0.929 . S
C635 C627 1.433 . S
C635 N637 1.384 . S
N636 C632 1.427 . S
N636 C633 1.384 . S
N637 C629 1.427 . S
N637 C635 1.384 . S
H638 C644 0.930 . S
H639 C648 0.930 . S
H640 C653 0.929 . S
H641 C651 0.929 . S
H642 C646 0.929 . S
H643 C652 0.929 . S
C644 H638 0.930 . S
C644 C645 1.367 . S
C644 C652 1.378 . S
C645 C644 1.367 . S
C645 C653 1.433 . S
C646 H642 0.929 . S
C646 C648 1.378 . S
C646 C650 1.350 . S
C647 C650 1.463 . S
C647 C652 1.350 . S
C647 N655 1.427 . S
C648 H639 0.930 . S
C648 C646 1.378 . S
C648 C649 1.367 . S
C649 C648 1.367 . S
C649 C651 1.433 . S
C650 C646 1.350 . S
C650 C647 1.463 . S
C650 N654 1.427 . S
C651 H641 0.929 . S
C651 C649 1.433 . S
C651 N654 1.384 . S
C652 H643 0.929 . S
C652 C644 1.378 . S
C652 C647 1.350 . S
C653 H640 0.929 . S
C653 C645 1.433 . S
C653 N655 1.384 . S
N654 C650 1.427 . S
N654 C651 1.384 . S
N655 C647 1.427 . S
N655 C653 1.384 . S
H656 C662 0.930 . S
H657 C666 0.930 . S
H658 C671 0.929 . S
H659 C669 0.929 . S
H660 C664 0.929 . S
H661 C670 0.929 . S
C662 H656 0.930 . S
C662 C663 1.367 . S
C662 C670 1.378 . S
C663 C662 1.367 . S
C663 C671 1.433 . S
C664 H660 0.929 . S
C664 C666 1.378 . S
C664 C668 1.350 . S
C665 C668 1.463 1_554 S
C665 C670 1.350 . S
C665 N673 1.427 . S
C666 H657 0.930 . S
C666 C664 1.378 . S
C666 C667 1.367 . S
C667 C666 1.367 . S
C667 C669 1.433 . S
C668 C664 1.350 . S
C668 C665 1.463 1_556 S
C668 N672 1.427 . S
C669 H659 0.929 . S
C669 C667 1.433 . S
C669 N672 1.384 . S
C670 H661 0.929 . S
C670 C662 1.378 . S
C670 C665 1.350 . S
C671 H658 0.929 . S
C671 C663 1.433 . S
C671 N673 1.384 . S
N672 C668 1.427 . S
N672 C669 1.384 . S
N673 C665 1.427 . S
N673 C671 1.384 . S
H674 C680 0.930 . S
H675 C684 0.930 . S
H676 C689 0.929 . S
H677 C687 0.929 . S
H678 C682 0.929 . S
H679 C688 0.929 . S
C680 H674 0.930 . S
C680 C681 1.367 . S
C680 C688 1.378 . S
C681 C680 1.367 . S
C681 C689 1.433 . S
C682 H678 0.929 . S
C682 C684 1.378 . S
C682 C686 1.350 . S
C683 C686 1.463 . S
C683 C688 1.350 . S
C683 N691 1.427 . S
C684 H675 0.930 . S
C684 C682 1.378 . S
C684 C685 1.367 . S
C685 C684 1.367 . S
C685 C687 1.433 . S
C686 C682 1.350 . S
C686 C683 1.463 . S
C686 N690 1.427 . S
C687 H677 0.929 . S
C687 C685 1.433 . S
C687 N690 1.384 . S
C688 H679 0.929 . S
C688 C680 1.378 . S
C688 C683 1.350 . S
C689 H676 0.929 . S
C689 C681 1.433 . S
C689 N691 1.384 . S
N690 C686 1.427 . S
N690 C687 1.384 . S
N691 C683 1.427 . S
N691 C689 1.384 . S
H692 C698 0.930 . S
H693 C702 0.930 . S
H694 C707 0.929 . S
H695 C705 0.929 . S
H696 C700 0.929 . S
H697 C706 0.929 1_554 S
C698 H692 0.930 . S
C698 C699 1.367 . S
C698 C706 1.378 . S
C699 C698 1.367 . S
C699 C707 1.433 . S
C700 H696 0.929 . S
C700 C702 1.378 . S
C700 C704 1.350 . S
C701 C704 1.463 1_556 S
C701 C706 1.350 . S
C701 N709 1.427 . S
C702 H693 0.930 . S
C702 C700 1.378 . S
C702 C703 1.367 . S
C703 C702 1.367 . S
C703 C705 1.433 . S
C704 C700 1.350 . S
C704 C701 1.463 1_554 S
C704 N708 1.427 . S
C705 H695 0.929 . S
C705 C703 1.433 . S
C705 N708 1.384 . S
C706 H697 0.929 1_556 S
C706 C698 1.378 . S
C706 C701 1.350 . S
C707 H694 0.929 . S
C707 C699 1.433 . S
C707 N709 1.384 . S
N708 C704 1.427 . S
N708 C705 1.384 . S
N709 C701 1.427 . S
N709 C707 1.384 . S
H710 C716 0.930 . S
H711 C720 0.930 . S
H712 C725 0.929 . S
H713 C723 0.929 . S
H714 C718 0.929 . S
H715 C724 0.929 . S
C716 H710 0.930 . S
C716 C717 1.367 . S
C716 C724 1.378 . S
C717 C716 1.367 . S
C717 C725 1.433 . S
C718 H714 0.929 . S
C718 C720 1.378 . S
C718 C722 1.350 . S
C719 C722 1.463 . S
C719 C724 1.350 . S
C719 N727 1.427 . S
C720 H711 0.930 . S
C720 C718 1.378 . S
C720 C721 1.367 . S
C721 C720 1.367 . S
C721 C723 1.433 . S
C722 C718 1.350 . S
C722 C719 1.463 . S
C722 N726 1.427 . S
C723 H713 0.929 . S
C723 C721 1.433 . S
C723 N726 1.384 . S
C724 H715 0.929 . S
C724 C716 1.378 . S
C724 C719 1.350 . S
C725 H712 0.929 . S
C725 C717 1.433 . S
C725 N727 1.384 . S
N726 C722 1.427 . S
N726 C723 1.384 . S
N727 C719 1.427 . S
N727 C725 1.384 . S
H728 C734 0.930 . S
H729 C738 0.930 . S
H730 C743 0.929 . S
H731 C741 0.929 . S
H732 C736 0.929 . S
H733 C742 0.929 . S
C734 H728 0.930 . S
C734 C735 1.367 . S
C734 C742 1.378 . S
C735 C734 1.367 . S
C735 C743 1.433 . S
C736 H732 0.929 . S
C736 C738 1.378 . S
C736 C740 1.350 . S
C737 C740 1.463 . S
C737 C742 1.350 . S
C737 N745 1.427 . S
C738 H729 0.930 . S
C738 C736 1.378 . S
C738 C739 1.367 . S
C739 C738 1.367 . S
C739 C741 1.433 . S
C740 C736 1.350 . S
C740 C737 1.463 . S
C740 N744 1.427 . S
C741 H731 0.929 . S
C741 C739 1.433 . S
C741 N744 1.384 . S
C742 H733 0.929 . S
C742 C734 1.378 . S
C742 C737 1.350 . S
C743 H730 0.929 . S
C743 C735 1.433 . S
C743 N745 1.384 . S
N744 C740 1.427 . S
N744 C741 1.384 . S
N745 C737 1.427 . S
N745 C743 1.384 . S
H746 C752 0.930 . S
H747 C756 0.930 . S
H748 C761 0.929 . S
H749 C759 0.929 . S
H750 C754 0.929 . S
H751 C760 0.929 . S
C752 H746 0.930 . S
C752 C753 1.367 . S
C752 C760 1.378 . S
C753 C752 1.367 . S
C753 C761 1.433 . S
C754 H750 0.929 . S
C754 C756 1.378 . S
C754 C758 1.350 . S
C755 C758 1.463 . S
C755 C760 1.350 . S
C755 N763 1.427 . S
C756 H747 0.930 . S
C756 C754 1.378 . S
C756 C757 1.367 . S
C757 C756 1.367 . S
C757 C759 1.433 . S
C758 C754 1.350 . S
C758 C755 1.463 . S
C758 N762 1.427 . S
C759 H749 0.929 . S
C759 C757 1.433 . S
C759 N762 1.384 . S
C760 H751 0.929 . S
C760 C752 1.378 . S
C760 C755 1.350 . S
C761 H748 0.929 . S
C761 C753 1.433 . S
C761 N763 1.384 . S
N762 C758 1.427 . S
N762 C759 1.384 . S
N763 C755 1.427 . S
N763 C761 1.384 . S
H764 C770 0.930 . S
H765 C774 0.930 . S
H766 C779 0.929 . S
H767 C777 0.929 . S
H768 C772 0.929 . S
H769 C778 0.929 . S
C770 H764 0.930 . S
C770 C771 1.367 . S
C770 C778 1.378 . S
C771 C770 1.367 . S
C771 C779 1.433 . S
C772 H768 0.929 . S
C772 C774 1.378 . S
C772 C776 1.350 . S
C773 C776 1.463 . S
C773 C778 1.350 . S
C773 N781 1.427 . S
C774 H765 0.930 . S
C774 C772 1.378 . S
C774 C775 1.367 . S
C775 C774 1.367 . S
C775 C777 1.433 . S
C776 C772 1.350 . S
C776 C773 1.463 . S
C776 N780 1.427 . S
C777 H767 0.929 . S
C777 C775 1.433 . S
C777 N780 1.384 . S
C778 H769 0.929 . S
C778 C770 1.378 . S
C778 C773 1.350 . S
C779 H766 0.929 . S
C779 C771 1.433 . S
C779 N781 1.384 . S
N780 C776 1.427 . S
N780 C777 1.384 . S
N781 C773 1.427 . S
N781 C779 1.384 . S
H782 C788 0.930 . S
H783 C792 0.930 . S
H784 C797 0.929 . S
H785 C795 0.929 . S
H786 C790 0.929 . S
H787 C796 0.929 . S
C788 H782 0.930 . S
C788 C789 1.367 . S
C788 C796 1.378 . S
C789 C788 1.367 . S
C789 C797 1.433 . S
C790 H786 0.929 . S
C790 C792 1.378 . S
C790 C794 1.350 . S
C791 C794 1.463 . S
C791 C796 1.350 . S
C791 N799 1.427 . S
C792 H783 0.930 . S
C792 C790 1.378 . S
C792 C793 1.367 . S
C793 C792 1.367 . S
C793 C795 1.433 . S
C794 C790 1.350 . S
C794 C791 1.463 . S
C794 N798 1.427 . S
C795 H785 0.929 . S
C795 C793 1.433 . S
C795 N798 1.384 . S
C796 H787 0.929 . S
C796 C788 1.378 . S
C796 C791 1.350 . S
C797 H784 0.929 . S
C797 C789 1.433 . S
C797 N799 1.384 . S
N798 C794 1.427 . S
N798 C795 1.384 . S
N799 C791 1.427 . S
N799 C797 1.384 . S
H800 C806 0.930 . S
H801 C810 0.930 . S
H802 C815 0.929 . S
H803 C813 0.929 . S
H804 C808 0.929 . S
H805 C814 0.929 . S
C806 H800 0.930 . S
C806 C807 1.367 . S
C806 C814 1.378 . S
C807 C806 1.367 . S
C807 C815 1.433 . S
C808 H804 0.929 . S
C808 C810 1.378 . S
C808 C812 1.350 . S
C809 C812 1.463 . S
C809 C814 1.350 . S
C809 N817 1.427 . S
C810 H801 0.930 . S
C810 C808 1.378 . S
C810 C811 1.367 . S
C811 C810 1.367 . S
C811 C813 1.433 . S
C812 C808 1.350 . S
C812 C809 1.463 . S
C812 N816 1.427 . S
C813 H803 0.929 . S
C813 C811 1.433 . S
C813 N816 1.384 . S
C814 H805 0.929 . S
C814 C806 1.378 . S
C814 C809 1.350 . S
C815 H802 0.929 . S
C815 C807 1.433 . S
C815 N817 1.384 . S
N816 C812 1.427 . S
N816 C813 1.384 . S
N817 C809 1.427 . S
N817 C815 1.384 . S
H818 C824 0.930 . S
H819 C828 0.930 . S
H820 C833 0.929 . S
H821 C831 0.929 . S
H822 C826 0.929 . S
H823 C832 0.929 . S
C824 H818 0.930 . S
C824 C825 1.367 . S
C824 C832 1.378 . S
C825 C824 1.367 . S
C825 C833 1.433 . S
C826 H822 0.929 . S
C826 C828 1.378 . S
C826 C830 1.350 . S
C827 C830 1.463 . S
C827 C832 1.350 . S
C827 N835 1.427 . S
C828 H819 0.930 . S
C828 C826 1.378 . S
C828 C829 1.367 . S
C829 C828 1.367 . S
C829 C831 1.433 . S
C830 C826 1.350 . S
C830 C827 1.463 . S
C830 N834 1.427 . S
C831 H821 0.929 . S
C831 C829 1.433 . S
C831 N834 1.384 . S
C832 H823 0.929 . S
C832 C824 1.378 . S
C832 C827 1.350 . S
C833 H820 0.929 . S
C833 C825 1.433 . S
C833 N835 1.384 . S
N834 C830 1.427 . S
N834 C831 1.384 . S
N835 C827 1.427 . S
N835 C833 1.384 . S
H836 C842 0.930 . S
H837 C846 0.930 . S
H838 C851 0.929 . S
H839 C849 0.929 . S
H840 C844 0.929 . S
H841 C850 0.929 . S
C842 H836 0.930 . S
C842 C843 1.367 . S
C842 C850 1.378 . S
C843 C842 1.367 . S
C843 C851 1.433 . S
C844 H840 0.929 . S
C844 C846 1.378 . S
C844 C848 1.350 . S
C845 C848 1.463 . S
C845 C850 1.350 . S
C845 N853 1.427 . S
C846 H837 0.930 . S
C846 C844 1.378 . S
C846 C847 1.367 . S
C847 C846 1.367 . S
C847 C849 1.433 . S
C848 C844 1.350 . S
C848 C845 1.463 . S
C848 N852 1.427 . S
C849 H839 0.929 . S
C849 C847 1.433 . S
C849 N852 1.384 . S
C850 H841 0.929 . S
C850 C842 1.378 . S
C850 C845 1.350 . S
C851 H838 0.929 . S
C851 C843 1.433 . S
C851 N853 1.384 . S
N852 C848 1.427 . S
N852 C849 1.384 . S
N853 C845 1.427 . S
N853 C851 1.384 . S
H854 C860 0.930 . S
H855 C864 0.930 . S
H856 C869 0.929 . S
H857 C867 0.929 . S
H858 C862 0.929 . S
H859 C868 0.929 . S
C860 H854 0.930 . S
C860 C861 1.367 . S
C860 C868 1.378 . S
C861 C860 1.367 . S
C861 C869 1.433 . S
C862 H858 0.929 . S
C862 C864 1.378 . S
C862 C866 1.350 . S
C863 C866 1.463 . S
C863 C868 1.350 . S
C863 N871 1.427 . S
C864 H855 0.930 . S
C864 C862 1.378 . S
C864 C865 1.367 . S
C865 C864 1.367 . S
C865 C867 1.433 . S
C866 C862 1.350 . S
C866 C863 1.463 . S
C866 N870 1.427 . S
C867 H857 0.929 . S
C867 C865 1.433 . S
C867 N870 1.384 . S
C868 H859 0.929 . S
C868 C860 1.378 . S
C868 C863 1.350 . S
C869 H856 0.929 . S
C869 C861 1.433 . S
C869 N871 1.384 . S
N870 C866 1.427 . S
N870 C867 1.384 . S
N871 C863 1.427 . S
N871 C869 1.384 . S
C447 N83 1.643 . S
C451 C178 1.637 . S
C469 C262 1.642 . S
C465 N96 1.636 . S
C487 C255 1.655 . S
C483 N57 1.634 . S
C501 N70 1.628 . S
C505 C171 1.651 . S
C523 C335 1.642 . S
C519 N31 1.639 . S
C541 C419 1.634 . S
C537 N44 1.646 . S
C555 N5 1.629 . S
C559 C412 1.651 . S
C573 N18 1.637 . S
C577 C328 1.652 . S
C595 C162 1.464 . S
C591 N14 1.616 . S
C613 C246 1.445 . S
C609 N1 1.614 . S
C631 C257 1.387 . S
C627 N40 1.617 . S
C649 C173 1.384 . S
C645 N27 1.618 . S
C667 C341 1.445 . S
C663 N66 1.604 . S
C681 N53 1.605 . S
C685 C425 1.449 . S
C703 C414 1.402 . S
C699 N92 1.608 . S
C717 N79 1.606 . S
C721 C330 1.399 . S
C739 C160 1.545 . S
C735 N2 1.545 . S
C757 C244 1.546 . S
C753 N15 1.545 . S
C771 N28 1.542 . S
C775 C251 1.512 . S
C793 C167 1.519 . S
C789 N41 1.540 . S
C811 C339 1.543 . S
C807 N54 1.540 . S
C825 N67 1.542 . S
C829 C423 1.545 . S
C843 N80 1.534 . S
C847 C430 1.517 . S
C861 N93 1.536 . S
C865 C346 1.519 . S
