# Generated by pormake.
# Topology bpr, (3,3)-cn, num edge types: 1
# Building blocks:
#     Node 0, Type 0, BuildingBlock: OLANEW_clean_sbu_2, # of connection points: 3
#     Node 1, Type 0, BuildingBlock: OLANEW_clean_sbu_2, # of connection points: 3
#     Node 2, Type 0, BuildingBlock: OLANEW_clean_sbu_2, # of connection points: 3
#     Node 3, Type 0, BuildingBlock: OLANEW_clean_sbu_2, # of connection points: 3
#     Node 4, Type 0, BuildingBlock: OLANEW_clean_sbu_2, # of connection points: 3
#     Node 5, Type 0, BuildingBlock: OLANEW_clean_sbu_2, # of connection points: 3
#     Node 6, Type 0, BuildingBlock: OLANEW_clean_sbu_2, # of connection points: 3
#     Node 7, Type 0, BuildingBlock: OLANEW_clean_sbu_2, # of connection points: 3
#     Node 8, Type 0, BuildingBlock: OLANEW_clean_sbu_2, # of connection points: 3
#     Node 9, Type 0, BuildingBlock: OLANEW_clean_sbu_2, # of connection points: 3
#     Node 10, Type 0, BuildingBlock: OLANEW_clean_sbu_2, # of connection points: 3
#     Node 11, Type 0, BuildingBlock: OLANEW_clean_sbu_2, # of connection points: 3
#     Node 12, Type 0, BuildingBlock: OLANEW_clean_sbu_2, # of connection points: 3
#     Node 13, Type 0, BuildingBlock: OLANEW_clean_sbu_2, # of connection points: 3
#     Node 14, Type 0, BuildingBlock: OLANEW_clean_sbu_2, # of connection points: 3
#     Node 15, Type 0, BuildingBlock: OLANEW_clean_sbu_2, # of connection points: 3
#     Node 16, Type 0, BuildingBlock: OLANEW_clean_sbu_2, # of connection points: 3
#     Node 17, Type 0, BuildingBlock: OLANEW_clean_sbu_2, # of connection points: 3
#     Node 18, Type 0, BuildingBlock: OLANEW_clean_sbu_2, # of connection points: 3
#     Node 19, Type 0, BuildingBlock: OLANEW_clean_sbu_2, # of connection points: 3
#     Node 20, Type 0, BuildingBlock: OLANEW_clean_sbu_2, # of connection points: 3
#     Node 21, Type 0, BuildingBlock: OLANEW_clean_sbu_2, # of connection points: 3
#     Node 22, Type 0, BuildingBlock: OLANEW_clean_sbu_2, # of connection points: 3
#     Node 23, Type 0, BuildingBlock: OLANEW_clean_sbu_2, # of connection points: 3
#     Node 24, Type 0, BuildingBlock: OLANEW_clean_sbu_2, # of connection points: 3
#     Node 25, Type 0, BuildingBlock: OLANEW_clean_sbu_2, # of connection points: 3
#     Node 26, Type 0, BuildingBlock: OLANEW_clean_sbu_2, # of connection points: 3
#     Node 27, Type 0, BuildingBlock: OLANEW_clean_sbu_2, # of connection points: 3
#     Node 28, Type 0, BuildingBlock: OLANEW_clean_sbu_2, # of connection points: 3
#     Node 29, Type 0, BuildingBlock: OLANEW_clean_sbu_2, # of connection points: 3
#     Node 30, Type 0, BuildingBlock: OLANEW_clean_sbu_2, # of connection points: 3
#     Node 31, Type 0, BuildingBlock: OLANEW_clean_sbu_2, # of connection points: 3
#     Node 32, Type 0, BuildingBlock: OLANEW_clean_sbu_2, # of connection points: 3
#     Node 33, Type 0, BuildingBlock: OLANEW_clean_sbu_2, # of connection points: 3
#     Node 34, Type 0, BuildingBlock: OLANEW_clean_sbu_2, # of connection points: 3
#     Node 35, Type 0, BuildingBlock: OLANEW_clean_sbu_2, # of connection points: 3
#     Node 36, Type 0, BuildingBlock: OLANEW_clean_sbu_2, # of connection points: 3
#     Node 37, Type 0, BuildingBlock: OLANEW_clean_sbu_2, # of connection points: 3
#     Node 38, Type 0, BuildingBlock: OLANEW_clean_sbu_2, # of connection points: 3
#     Node 39, Type 0, BuildingBlock: OLANEW_clean_sbu_2, # of connection points: 3
#     Node 40, Type 0, BuildingBlock: OLANEW_clean_sbu_2, # of connection points: 3
#     Node 41, Type 0, BuildingBlock: OLANEW_clean_sbu_2, # of connection points: 3
#     Node 42, Type 0, BuildingBlock: OLANEW_clean_sbu_2, # of connection points: 3
#     Node 43, Type 0, BuildingBlock: OLANEW_clean_sbu_2, # of connection points: 3
#     Node 44, Type 0, BuildingBlock: OLANEW_clean_sbu_2, # of connection points: 3
#     Node 45, Type 0, BuildingBlock: OLANEW_clean_sbu_2, # of connection points: 3
#     Node 46, Type 0, BuildingBlock: OLANEW_clean_sbu_2, # of connection points: 3
#     Node 47, Type 0, BuildingBlock: OLANEW_clean_sbu_2, # of connection points: 3
#     Node 48, Type 1, BuildingBlock: CUQRIR_clean_linker_1, # of connection points: 3
#     Node 49, Type 1, BuildingBlock: CUQRIR_clean_linker_1, # of connection points: 3
#     Node 50, Type 1, BuildingBlock: CUQRIR_clean_linker_1, # of connection points: 3
#     Node 51, Type 1, BuildingBlock: CUQRIR_clean_linker_1, # of connection points: 3
#     Node 52, Type 1, BuildingBlock: CUQRIR_clean_linker_1, # of connection points: 3
#     Node 53, Type 1, BuildingBlock: CUQRIR_clean_linker_1, # of connection points: 3
#     Node 54, Type 1, BuildingBlock: CUQRIR_clean_linker_1, # of connection points: 3
#     Node 55, Type 1, BuildingBlock: CUQRIR_clean_linker_1, # of connection points: 3
#     Node 56, Type 1, BuildingBlock: CUQRIR_clean_linker_1, # of connection points: 3
#     Node 57, Type 1, BuildingBlock: CUQRIR_clean_linker_1, # of connection points: 3
#     Node 58, Type 1, BuildingBlock: CUQRIR_clean_linker_1, # of connection points: 3
#     Node 59, Type 1, BuildingBlock: CUQRIR_clean_linker_1, # of connection points: 3
#     Node 60, Type 1, BuildingBlock: CUQRIR_clean_linker_1, # of connection points: 3
#     Node 61, Type 1, BuildingBlock: CUQRIR_clean_linker_1, # of connection points: 3
#     Node 62, Type 1, BuildingBlock: CUQRIR_clean_linker_1, # of connection points: 3
#     Node 63, Type 1, BuildingBlock: CUQRIR_clean_linker_1, # of connection points: 3
#     Node 64, Type 1, BuildingBlock: CUQRIR_clean_linker_1, # of connection points: 3
#     Node 65, Type 1, BuildingBlock: CUQRIR_clean_linker_1, # of connection points: 3
#     Node 66, Type 1, BuildingBlock: CUQRIR_clean_linker_1, # of connection points: 3
#     Node 67, Type 1, BuildingBlock: CUQRIR_clean_linker_1, # of connection points: 3
#     Node 68, Type 1, BuildingBlock: CUQRIR_clean_linker_1, # of connection points: 3
#     Node 69, Type 1, BuildingBlock: CUQRIR_clean_linker_1, # of connection points: 3
#     Node 70, Type 1, BuildingBlock: CUQRIR_clean_linker_1, # of connection points: 3
#     Node 71, Type 1, BuildingBlock: CUQRIR_clean_linker_1, # of connection points: 3
#     Node 72, Type 1, BuildingBlock: CUQRIR_clean_linker_1, # of connection points: 3
#     Node 73, Type 1, BuildingBlock: CUQRIR_clean_linker_1, # of connection points: 3
#     Node 74, Type 1, BuildingBlock: CUQRIR_clean_linker_1, # of connection points: 3
#     Node 75, Type 1, BuildingBlock: CUQRIR_clean_linker_1, # of connection points: 3
#     Node 76, Type 1, BuildingBlock: CUQRIR_clean_linker_1, # of connection points: 3
#     Node 77, Type 1, BuildingBlock: CUQRIR_clean_linker_1, # of connection points: 3
#     Node 78, Type 1, BuildingBlock: CUQRIR_clean_linker_1, # of connection points: 3
#     Node 79, Type 1, BuildingBlock: CUQRIR_clean_linker_1, # of connection points: 3
#     Node 80, Type 1, BuildingBlock: CUQRIR_clean_linker_1, # of connection points: 3
#     Node 81, Type 1, BuildingBlock: CUQRIR_clean_linker_1, # of connection points: 3
#     Node 82, Type 1, BuildingBlock: CUQRIR_clean_linker_1, # of connection points: 3
#     Node 83, Type 1, BuildingBlock: CUQRIR_clean_linker_1, # of connection points: 3
#     Node 84, Type 1, BuildingBlock: CUQRIR_clean_linker_1, # of connection points: 3
#     Node 85, Type 1, BuildingBlock: CUQRIR_clean_linker_1, # of connection points: 3
#     Node 86, Type 1, BuildingBlock: CUQRIR_clean_linker_1, # of connection points: 3
#     Node 87, Type 1, BuildingBlock: CUQRIR_clean_linker_1, # of connection points: 3
#     Node 88, Type 1, BuildingBlock: CUQRIR_clean_linker_1, # of connection points: 3
#     Node 89, Type 1, BuildingBlock: CUQRIR_clean_linker_1, # of connection points: 3
#     Node 90, Type 1, BuildingBlock: CUQRIR_clean_linker_1, # of connection points: 3
#     Node 91, Type 1, BuildingBlock: CUQRIR_clean_linker_1, # of connection points: 3
#     Node 92, Type 1, BuildingBlock: CUQRIR_clean_linker_1, # of connection points: 3
#     Node 93, Type 1, BuildingBlock: CUQRIR_clean_linker_1, # of connection points: 3
#     Node 94, Type 1, BuildingBlock: CUQRIR_clean_linker_1, # of connection points: 3
#     Node 95, Type 1, BuildingBlock: CUQRIR_clean_linker_1, # of connection points: 3
#     Edge 96, Type (0, 1), None
#     Edge 97, Type (0, 1), None
#     Edge 98, Type (0, 1), None
#     Edge 99, Type (0, 1), None
#     Edge 100, Type (0, 1), None
#     Edge 101, Type (0, 1), None
#     Edge 102, Type (0, 1), None
#     Edge 103, Type (0, 1), None
#     Edge 104, Type (0, 1), None
#     Edge 105, Type (0, 1), None
#     Edge 106, Type (0, 1), None
#     Edge 107, Type (0, 1), None
#     Edge 108, Type (0, 1), None
#     Edge 109, Type (0, 1), None
#     Edge 110, Type (0, 1), None
#     Edge 111, Type (0, 1), None
#     Edge 112, Type (0, 1), None
#     Edge 113, Type (0, 1), None
#     Edge 114, Type (0, 1), None
#     Edge 115, Type (0, 1), None
#     Edge 116, Type (0, 1), None
#     Edge 117, Type (0, 1), None
#     Edge 118, Type (0, 1), None
#     Edge 119, Type (0, 1), None
#     Edge 120, Type (0, 1), None
#     Edge 121, Type (0, 1), None
#     Edge 122, Type (0, 1), None
#     Edge 123, Type (0, 1), None
#     Edge 124, Type (0, 1), None
#     Edge 125, Type (0, 1), None
#     Edge 126, Type (0, 1), None
#     Edge 127, Type (0, 1), None
#     Edge 128, Type (0, 1), None
#     Edge 129, Type (0, 1), None
#     Edge 130, Type (0, 1), None
#     Edge 131, Type (0, 1), None
#     Edge 132, Type (0, 1), None
#     Edge 133, Type (0, 1), None
#     Edge 134, Type (0, 1), None
#     Edge 135, Type (0, 1), None
#     Edge 136, Type (0, 1), None
#     Edge 137, Type (0, 1), None
#     Edge 138, Type (0, 1), None
#     Edge 139, Type (0, 1), None
#     Edge 140, Type (0, 1), None
#     Edge 141, Type (0, 1), None
#     Edge 142, Type (0, 1), None
#     Edge 143, Type (0, 1), None
#     Edge 144, Type (0, 1), None
#     Edge 145, Type (0, 1), None
#     Edge 146, Type (0, 1), None
#     Edge 147, Type (0, 1), None
#     Edge 148, Type (0, 1), None
#     Edge 149, Type (0, 1), None
#     Edge 150, Type (0, 1), None
#     Edge 151, Type (0, 1), None
#     Edge 152, Type (0, 1), None
#     Edge 153, Type (0, 1), None
#     Edge 154, Type (0, 1), None
#     Edge 155, Type (0, 1), None
#     Edge 156, Type (0, 1), None
#     Edge 157, Type (0, 1), None
#     Edge 158, Type (0, 1), None
#     Edge 159, Type (0, 1), None
#     Edge 160, Type (0, 1), None
#     Edge 161, Type (0, 1), None
#     Edge 162, Type (0, 1), None
#     Edge 163, Type (0, 1), None
#     Edge 164, Type (0, 1), None
#     Edge 165, Type (0, 1), None
#     Edge 166, Type (0, 1), None
#     Edge 167, Type (0, 1), None
#     Edge 168, Type (0, 1), None
#     Edge 169, Type (0, 1), None
#     Edge 170, Type (0, 1), None
#     Edge 171, Type (0, 1), None
#     Edge 172, Type (0, 1), None
#     Edge 173, Type (0, 1), None
#     Edge 174, Type (0, 1), None
#     Edge 175, Type (0, 1), None
#     Edge 176, Type (0, 1), None
#     Edge 177, Type (0, 1), None
#     Edge 178, Type (0, 1), None
#     Edge 179, Type (0, 1), None
#     Edge 180, Type (0, 1), None
#     Edge 181, Type (0, 1), None
#     Edge 182, Type (0, 1), None
#     Edge 183, Type (0, 1), None
#     Edge 184, Type (0, 1), None
#     Edge 185, Type (0, 1), None
#     Edge 186, Type (0, 1), None
#     Edge 187, Type (0, 1), None
#     Edge 188, Type (0, 1), None
#     Edge 189, Type (0, 1), None
#     Edge 190, Type (0, 1), None
#     Edge 191, Type (0, 1), None
#     Edge 192, Type (0, 1), None
#     Edge 193, Type (0, 1), None
#     Edge 194, Type (0, 1), None
#     Edge 195, Type (0, 1), None
#     Edge 196, Type (0, 1), None
#     Edge 197, Type (0, 1), None
#     Edge 198, Type (0, 1), None
#     Edge 199, Type (0, 1), None
#     Edge 200, Type (0, 1), None
#     Edge 201, Type (0, 1), None
#     Edge 202, Type (0, 1), None
#     Edge 203, Type (0, 1), None
#     Edge 204, Type (0, 1), None
#     Edge 205, Type (0, 1), None
#     Edge 206, Type (0, 1), None
#     Edge 207, Type (0, 1), None
#     Edge 208, Type (0, 1), None
#     Edge 209, Type (0, 1), None
#     Edge 210, Type (0, 1), None
#     Edge 211, Type (0, 1), None
#     Edge 212, Type (0, 1), None
#     Edge 213, Type (0, 1), None
#     Edge 214, Type (0, 1), None
#     Edge 215, Type (0, 1), None
#     Edge 216, Type (0, 1), None
#     Edge 217, Type (0, 1), None
#     Edge 218, Type (0, 1), None
#     Edge 219, Type (0, 1), None
#     Edge 220, Type (0, 1), None
#     Edge 221, Type (0, 1), None
#     Edge 222, Type (0, 1), None
#     Edge 223, Type (0, 1), None
#     Edge 224, Type (0, 1), None
#     Edge 225, Type (0, 1), None
#     Edge 226, Type (0, 1), None
#     Edge 227, Type (0, 1), None
#     Edge 228, Type (0, 1), None
#     Edge 229, Type (0, 1), None
#     Edge 230, Type (0, 1), None
#     Edge 231, Type (0, 1), None
#     Edge 232, Type (0, 1), None
#     Edge 233, Type (0, 1), None
#     Edge 234, Type (0, 1), None
#     Edge 235, Type (0, 1), None
#     Edge 236, Type (0, 1), None
#     Edge 237, Type (0, 1), None
#     Edge 238, Type (0, 1), None
#     Edge 239, Type (0, 1), None
# Relax obj value: 0.017
# Max RMSD: 0.108
# Mean RMSD: 0.058
data_MOF--net-bpr--node1-OLANEW_clean_sbu_2--node2-CUQRIR_clean_linker_1--edge1-none
_symmetry_space_group_name_H-M    P1
_symmetry_Int_Tables_number       1
_symmetry_cell_setting            triclinic
loop_
_symmetry_equiv_pos_as_xyz
'x, y, z'
_cell_length_a     31.353463
_cell_length_b     35.001965
_cell_length_c     33.732191
_cell_angle_alpha  84.894303
_cell_angle_beta   89.373291
_cell_angle_gamma 94.64696
loop_
_atom_site_label
_atom_site_type_symbol
_atom_site_fract_x
_atom_site_fract_y
_atom_site_fract_z
_atom_type_partial_charge
O0 O 0.0807 0.36785 0.33266 0.0
Cd1 Cd 0.03847 0.39146 0.27684 0.0
O2 O 0.03621 0.31768 0.35219 0.0
Cd3 Cd 0.98038 0.33386 0.31845 0.0
O4 O 0.91189 0.33593 0.33033 0.0
C5 C 0.89989 0.36583 0.3444 0.0
O6 O 0.92771 0.39596 0.34495 0.0
C7 C 0.07182 0.33723 0.35536 0.0
C8 C 0.09338 0.41475 0.21114 0.0
O9 O 0.08799 0.43637 0.23916 0.0
O10 O 0.07204 0.3818 0.21392 0.0
O11 O 0.87807 0.83696 0.57317 0.0
Cd12 Cd 0.89582 0.78942 0.52809 0.0
O13 O 0.91453 0.82041 0.62618 0.0
Cd14 Cd 0.92703 0.76686 0.60081 0.0
O15 O 0.91521 0.70412 0.60227 0.0
C16 C 0.92395 0.68621 0.63516 0.0
O17 O 0.94313 0.70641 0.66181 0.0
C18 C 0.89006 0.84307 0.6081 0.0
C19 C 0.87502 0.81871 0.45128 0.0
O20 O 0.84638 0.80504 0.47717 0.0
O21 O 0.91425 0.81761 0.46129 0.0
O22 O 0.43367 0.59403 0.82005 0.0
Cd23 Cd 0.46543 0.54718 0.78174 0.0
O24 O 0.37078 0.58786 0.79273 0.0
Cd25 Cd 0.39831 0.56748 0.7398 0.0
O26 O 0.39947 0.58161 0.67559 0.0
C27 C 0.3932 0.55586 0.65162 0.0
O28 O 0.39149 0.51959 0.66587 0.0
C29 C 0.39427 0.60001 0.82005 0.0
C30 C 0.54503 0.53951 0.81611 0.0
O31 O 0.51094 0.52206 0.83235 0.0
O32 O 0.54154 0.55858 0.78221 0.0
O33 O 0.63927 0.13523 0.10328 0.0
Cd34 Cd 0.64909 0.18965 0.05248 0.0
O35 O 0.67549 0.09424 0.074 0.0
Cd36 Cd 0.67863 0.12639 0.01553 0.0
O37 O 0.66103 0.1244 0.95311 0.0
C38 C 0.64452 0.09249 0.94267 0.0
O39 O 0.6397 0.06305 0.9698 0.0
C40 C 0.65479 0.10277 0.10418 0.0
C41 C 0.64172 0.25559 0.09244 0.0
O42 O 0.60904 0.23376 0.08376 0.0
O43 O 0.6784 0.2476 0.07994 0.0
O44 O 0.09205 0.67254 0.22493 0.0
Cd45 Cd 0.03934 0.67747 0.27826 0.0
O46 O 0.07521 0.72445 0.1895 0.0
Cd47 Cd 0.01439 0.71995 0.22368 0.0
O48 O 0.95584 0.68103 0.21988 0.0
C49 C 0.96523 0.65056 0.20506 0.0
O50 O 0.00593 0.64516 0.20057 0.0
C51 C 0.09897 0.69668 0.1946 0.0
C52 C 0.06305 0.6424 0.35154 0.0
O53 O 0.04439 0.62306 0.32527 0.0
O54 O 0.071 0.67867 0.3427 0.0
O55 O 0.56323 0.83408 0.41088 0.0
Cd56 Cd 0.57533 0.78454 0.46383 0.0
O57 O 0.60228 0.88599 0.42522 0.0
Cd58 Cd 0.60654 0.86502 0.48839 0.0
O59 O 0.59702 0.87586 0.55113 0.0
C60 C 0.62465 0.89965 0.56474 0.0
O61 O 0.6583 0.91182 0.54218 0.0
C62 C 0.57884 0.86829 0.40108 0.0
C63 C 0.58101 0.71929 0.4223 0.0
O64 O 0.54515 0.73259 0.42946 0.0
O65 O 0.61466 0.73545 0.43694 0.0
O66 O 0.40218 0.37372 0.69619 0.0
Cd67 Cd 0.41425 0.41513 0.75145 0.0
O68 O 0.46161 0.40515 0.67304 0.0
Cd69 Cd 0.50937 0.42421 0.62658 0.0
O70 O 0.5668 0.43489 0.58922 0.0
C71 C 0.57104 0.41074 0.56387 0.0
O72 O 0.53853 0.38561 0.55887 0.0
C73 C 0.43126 0.37946 0.66921 0.0
C74 C 0.3716 0.39149 0.82459 0.0
O75 O 0.35634 0.41561 0.79893 0.0
O76 O 0.40701 0.37843 0.81518 0.0
O77 O 0.90825 0.25218 0.84575 0.0
Cd78 Cd 0.94567 0.31526 0.85248 0.0
O79 O 0.89669 0.2489 0.91019 0.0
Cd80 Cd 0.87743 0.21253 0.96418 0.0
O81 O 0.86751 0.1575 0.99974 0.0
C82 C 0.8634 0.15434 0.03737 0.0
O83 O 0.86595 0.18594 0.05578 0.0
C84 C 0.89199 0.23404 0.87731 0.0
C85 C 0.89735 0.37664 0.82662 0.0
O86 O 0.92201 0.36159 0.80296 0.0
O87 O 0.89557 0.36234 0.86297 0.0
O88 O 0.37632 0.051 0.36965 0.0
Cd89 Cd 0.31965 1.00016 0.3623 0.0
O90 O 0.33572 0.07834 0.40989 0.0
Cd91 Cd 0.27763 0.04251 0.398 0.0
O92 O 0.21108 0.04415 0.37993 0.0
C93 C 0.18951 0.06182 0.40339 0.0
O94 O 0.20719 0.07016 0.43702 0.0
C95 C 0.3714 0.07792 0.39181 0.0
C96 C 0.34493 0.93741 0.32498 0.0
O97 O 0.3342 0.96796 0.3051 0.0
O98 O 0.34514 0.93714 0.36298 0.0
O99 O 0.1559 0.04457 0.66196 0.0
Cd100 Cd 0.20568 0.9934 0.66602 0.0
O101 O 0.19582 0.09905 0.64575 0.0
Cd102 Cd 0.26108 0.08008 0.64881 0.0
O103 O 0.33145 0.08901 0.64272 0.0
C104 C 0.35677 0.10309 0.668 0.0
O105 O 0.34067 0.11134 0.70201 0.0
C106 C 0.15932 0.08091 0.65327 0.0
C107 C 0.16602 0.9209 0.64992 0.0
O108 O 0.15981 0.93522 0.68295 0.0
O109 O 0.19154 0.94059 0.62448 0.0
O110 O 0.17703 0.96926 0.89629 0.0
Cd111 Cd 0.24814 0.00168 0.90261 0.0
O112 O 0.13669 0.01627 0.87847 0.0
Cd113 Cd 0.17802 0.06768 0.8901 0.0
O114 O 0.1682 0.12705 0.90293 0.0
C115 C 0.14549 0.14501 0.8777 0.0
O116 O 0.13661 0.12919 0.84456 0.0
C117 C 0.14106 0.98051 0.88549 0.0
C118 C 0.30539 0.95064 0.87723 0.0
O119 O 0.28902 0.94698 0.91245 0.0
O120 O 0.29662 0.98006 0.85435 0.0
O121 O 0.35194 0.93027 0.09116 0.0
Cd122 Cd 0.30548 0.97633 0.11485 0.0
O123 O 0.34469 0.95158 0.02875 0.0
Cd124 Cd 0.29357 0.98791 0.04267 0.0
O125 O 0.22387 0.98452 0.05112 0.0
C126 C 0.21011 0.94925 0.05407 0.0
O127 O 0.23861 0.92375 0.05327 0.0
C128 C 0.36128 0.92877 0.05462 0.0
C129 C 0.35376 0.04356 0.13085 0.0
O130 O 0.34642 0.01521 0.15746 0.0
O131 O 0.33767 0.04025 0.09646 0.0
O132 O 0.3493 0.3357 0.08136 0.0
Cd133 Cd 0.35248 0.28873 0.03226 0.0
O134 O 0.38891 0.31254 0.12962 0.0
Cd135 Cd 0.3933 0.25855 0.10246 0.0
O136 O 0.38333 0.1957 0.10704 0.0
C137 C 0.40123 0.17833 0.13619 0.0
O138 O 0.42771 0.19899 0.15727 0.0
C139 C 0.36647 0.33878 0.11501 0.0
C140 C 0.34316 0.3281 0.95704 0.0
O141 O 0.31196 0.32103 0.98206 0.0
O142 O 0.3792 0.31577 0.96722 0.0
O143 O 0.93429 0.87113 0.19288 0.0
Cd144 Cd 0.91914 0.91512 0.2437 0.0
O145 O 0.95033 0.92239 0.1518 0.0
Cd146 Cd 0.98324 0.95604 0.1007 0.0
O147 O 0.04653 0.96988 0.07264 0.0
C148 C 0.05535 0.94506 0.04931 0.0
O149 O 0.02371 0.92143 0.03879 0.0
C150 C 0.94744 0.88581 0.15858 0.0
C151 C 0.88401 0.88119 0.31701 0.0
O152 O 0.86035 0.89556 0.28983 0.0
O153 O 0.9242 0.88244 0.30909 0.0
O154 O 0.14614 0.6697 0.63206 0.0
Cd155 Cd 0.15404 0.7207 0.57688 0.0
O156 O 0.18403 0.62872 0.60463 0.0
Cd157 Cd 0.17751 0.65646 0.54442 0.0
O158 O 0.15036 0.65236 0.48496 0.0
C159 C 0.13233 0.61976 0.47806 0.0
O160 O 0.13043 0.5918 0.50689 0.0
C161 C 0.16404 0.63828 0.63476 0.0
C162 C 0.14644 0.79169 0.60768 0.0
O163 O 0.11401 0.76807 0.60258 0.0
O164 O 0.18326 0.78254 0.59682 0.0
O165 O 0.94992 0.52795 0.67135 0.0
Cd166 Cd 0.00245 0.49417 0.71095 0.0
O167 O 0.96396 0.56211 0.72053 0.0
Cd168 Cd 0.98104 0.59601 0.77076 0.0
O169 O 0.98243 0.61873 0.82904 0.0
C170 C 0.94877 0.63381 0.83865 0.0
O171 O 0.91843 0.63665 0.81224 0.0
C172 C 0.94419 0.55827 0.68811 0.0
C173 C 0.07847 0.54115 0.70697 0.0
O174 O 0.07483 0.50989 0.68972 0.0
O175 O 0.04684 0.54951 0.72777 0.0
O176 O 0.12852 0.13433 0.46559 0.0
Cd177 Cd 0.16829 0.1656 0.5178 0.0
O178 O 0.18725 0.14009 0.4288 0.0
Cd179 Cd 0.21181 0.19095 0.45733 0.0
O180 O 0.19499 0.25031 0.4458 0.0
C181 C 0.15754 0.25066 0.43187 0.0
O182 O 0.13534 0.2174 0.43013 0.0
C183 C 0.14903 0.12553 0.43546 0.0
C184 C 0.13323 0.14234 0.59381 0.0
O185 O 0.15947 0.12191 0.57763 0.0
O186 O 0.1244 0.17358 0.57399 0.0
O187 O 0.54455 0.32343 0.18731 0.0
Cd188 Cd 0.48721 0.3449 0.22738 0.0
O189 O 0.57616 0.38026 0.16883 0.0
Cd190 Cd 0.51697 0.40406 0.18541 0.0
O191 O 0.44745 0.40637 0.18733 0.0
C192 C 0.4257 0.38502 0.16506 0.0
O193 O 0.44693 0.36536 0.14124 0.0
C194 C 0.57639 0.34384 0.17083 0.0
C195 C 0.52182 0.36918 0.29797 0.0
O196 O 0.50968 0.33377 0.29479 0.0
O197 O 0.51708 0.39302 0.2676 0.0
O198 O 0.37588 0.82202 0.91306 0.0
Cd199 Cd 0.40671 0.76641 0.94787 0.0
O200 O 0.43162 0.84087 0.87476 0.0
Cd201 Cd 0.47185 0.80908 0.9155 0.0
O202 O 0.46483 0.82921 0.97415 0.0
C203 C 0.45548 0.86391 0.97436 0.0
O204 O 0.45626 0.88505 0.94017 0.0
C205 C 0.39265 0.84389 0.88391 0.0
C206 C 0.38566 0.69993 0.90891 0.0
O207 O 0.42018 0.72147 0.90069 0.0
O208 O 0.36156 0.70929 0.93677 0.0
O209 O 0.90105 0.38936 0.73217 0.0
Cd210 Cd 0.95835 0.38603 0.68352 0.0
O211 O 0.93636 0.4454 0.73491 0.0
Cd212 Cd 0.95604 0.49302 0.76996 0.0
O213 O 0.01217 0.49953 0.80686 0.0
C214 C 0.01312 0.47402 0.83595 0.0
O215 O 0.97932 0.44938 0.84236 0.0
C216 C 0.90625 0.42096 0.74786 0.0
C217 C 0.93134 0.37848 0.60612 0.0
O218 O 0.93682 0.34911 0.63051 0.0
O219 O 0.93829 0.41187 0.6187 0.0
O220 O 0.46327 0.17677 0.57643 0.0
Cd221 Cd 0.49859 0.23195 0.53683 0.0
O222 O 0.51542 0.13829 0.57733 0.0
Cd223 Cd 0.53956 0.16834 0.52129 0.0
O224 O 0.51354 0.16131 0.46258 0.0
C225 C 0.47344 0.1523 0.46399 0.0
O226 O 0.45419 0.15026 0.4989 0.0
C227 C 0.47912 0.14612 0.59 0.0
C228 C 0.46721 0.29499 0.57023 0.0
O229 O 0.50286 0.28267 0.58166 0.0
O230 O 0.44809 0.27828 0.54236 0.0
O231 O 0.51812 0.6482 0.30137 0.0
Cd232 Cd 0.47309 0.6168 0.25259 0.0
O233 O 0.53479 0.5935 0.33132 0.0
Cd234 Cd 0.48074 0.5635 0.3041 0.0
O235 O 0.41208 0.5649 0.31311 0.0
C236 C 0.40146 0.59739 0.32201 0.0
O237 O 0.43194 0.62541 0.32172 0.0
C238 C 0.54033 0.63004 0.3269 0.0
C239 C 0.52542 0.58868 0.19637 0.0
O240 O 0.51085 0.62181 0.19017 0.0
O241 O 0.51427 0.56855 0.22894 0.0
O242 O 0.18225 0.8729 0.10799 0.0
Cd243 Cd 0.20545 0.81946 0.1505 0.0
O244 O 0.17331 0.84014 0.05524 0.0
Cd245 Cd 0.15233 0.84496 0.9933 0.0
O246 O 0.12471 0.86717 0.9373 0.0
C247 C 0.12308 0.90323 0.92917 0.0
O248 O 0.13907 0.9265 0.95471 0.0
C249 C 0.17061 0.87086 0.07219 0.0
C250 C 0.15721 0.75099 0.13821 0.0
O251 O 0.14988 0.76824 0.16923 0.0
O252 O 0.18665 0.76667 0.11399 0.0
O253 O 0.64897 0.98243 0.55204 0.0
Cd254 Cd 0.69898 0.03207 0.5181 0.0
O255 O 0.69245 0.99388 0.60035 0.0
Cd256 Cd 0.72393 0.98089 0.65661 0.0
O257 O 0.78042 0.95117 0.6718 0.0
C258 C 0.7848 0.92489 0.64885 0.0
O259 O 0.7554 0.91977 0.62192 0.0
C260 C 0.65982 0.97487 0.58793 0.0
C261 C 0.6906 0.09925 0.55461 0.0
O262 O 0.67978 0.0973 0.5183 0.0
O263 O 0.70661 0.07029 0.57273 0.0
O264 O 0.78942 0.92119 0.37845 0.0
Cd265 Cd 0.74887 0.97567 0.35564 0.0
O266 O 0.78598 0.89603 0.32111 0.0
Cd267 Cd 0.72809 0.92552 0.30807 0.0
O268 O 0.65862 0.92954 0.30998 0.0
C269 C 0.63717 0.91283 0.33975 0.0
O270 O 0.65843 0.89492 0.36803 0.0
C271 C 0.80199 0.89723 0.35544 0.0
C272 C 0.79435 0.04695 0.36578 0.0
O273 O 0.76458 0.03252 0.3903 0.0
O274 O 0.80305 0.02695 0.33727 0.0
O275 O 0.88663 0.00611 0.04126 0.0
Cd276 Cd 0.8661 0.93834 0.03673 0.0
O277 O 0.84122 0.99235 0.09051 0.0
Cd278 Cd 0.79035 0.00492 0.13001 0.0
O279 O 0.72273 0.00735 0.14237 0.0
C280 C 0.70667 0.03921 0.13466 0.0
O281 O 0.7327 0.06957 0.12306 0.0
C282 C 0.86544 0.0174 0.06962 0.0
C283 C 0.92453 0.89192 0.07364 0.0
O284 O 0.92415 0.89915 0.03577 0.0
O285 O 0.89659 0.90679 0.09412 0.0
O286 O 0.60399 0.99049 0.89999 0.0
Cd287 Cd 0.64336 0.93451 0.91852 0.0
O288 O 0.66571 0.01512 0.91875 0.0
Cd289 Cd 0.71767 0.06028 0.91475 0.0
O290 O 0.77346 0.09658 0.89221 0.0
C291 C 0.77907 0.13191 0.89807 0.0
O292 O 0.75087 0.14642 0.92023 0.0
C293 C 0.62922 0.0201 0.90405 0.0
C294 C 0.61347 0.86217 0.8975 0.0
O295 O 0.60806 0.87199 0.93282 0.0
O296 O 0.63103 0.88746 0.87123 0.0
O297 O 0.62439 0.56327 0.95311 0.0
Cd298 Cd 0.65575 0.59968 0.00608 0.0
O299 O 0.64657 0.61422 0.91343 0.0
Cd300 Cd 0.64835 0.65748 0.95573 0.0
O301 O 0.63432 0.71709 0.94213 0.0
C302 C 0.61528 0.72397 0.90948 0.0
O303 O 0.60256 0.69459 0.88968 0.0
C304 C 0.63253 0.579 0.91817 0.0
C305 C 0.61815 0.58378 0.08171 0.0
O306 O 0.64587 0.56254 0.06912 0.0
O307 O 0.60786 0.61203 0.0579 0.0
O308 O 0.04573 0.19673 0.81825 0.0
Cd309 Cd 0.99589 0.16716 0.77214 0.0
O310 O 0.05833 0.1414 0.84929 0.0
Cd311 Cd 0.99683 0.11973 0.82818 0.0
O312 O 0.93003 0.13128 0.83474 0.0
C313 C 0.92115 0.16407 0.84455 0.0
O314 O 0.95307 0.19 0.84876 0.0
C315 C 0.06792 0.17738 0.84282 0.0
C316 C 0.0437 0.13987 0.7117 0.0
O317 O 0.03033 0.17362 0.70821 0.0
O318 O 0.03353 0.11854 0.7438 0.0
O319 O 0.83281 0.28761 0.43139 0.0
Cd320 Cd 0.85172 0.22808 0.46924 0.0
O321 O 0.88821 0.29496 0.39103 0.0
Cd322 Cd 0.92183 0.25892 0.43394 0.0
O323 O 0.92752 0.29103 0.48635 0.0
C324 C 0.92883 0.32735 0.47842 0.0
O325 O 0.93352 0.34141 0.44112 0.0
C326 C 0.8524 0.30583 0.40127 0.0
C327 C 0.84338 0.16495 0.42327 0.0
O328 O 0.87814 0.18676 0.42396 0.0
O329 O 0.81249 0.17225 0.44581 0.0
O330 O 0.56733 0.86882 0.82672 0.0
Cd331 Cd 0.53122 0.90533 0.77337 0.0
O332 O 0.53844 0.81486 0.80755 0.0
Cd333 Cd 0.48656 0.84423 0.77835 0.0
O334 O 0.42557 0.85919 0.80219 0.0
C335 C 0.41777 0.89295 0.80961 0.0
O336 O 0.44409 0.92226 0.79559 0.0
C337 C 0.56533 0.83233 0.82907 0.0
C338 C 0.5766 0.91319 0.70021 0.0
O339 O 0.58418 0.9362 0.72724 0.0
O340 O 0.54745 0.88562 0.70798 0.0
O341 O 0.9181 0.08007 0.32718 0.0
Cd342 Cd 0.98178 0.06929 0.28869 0.0
O343 O 0.85792 0.06897 0.29517 0.0
Cd344 Cd 0.88357 0.05677 0.23749 0.0
O345 O 0.8729 0.0759 0.17499 0.0
C346 C 0.86986 0.05546 0.14567 0.0
O347 O 0.87784 0.01919 0.15166 0.0
C348 C 0.87743 0.07872 0.32601 0.0
C349 C 0.05312 0.07529 0.33873 0.0
O350 O 0.03256 0.10438 0.32758 0.0
O351 O 0.04035 0.04301 0.32597 0.0
O352 O 0.63077 0.15361 0.68198 0.0
Cd353 Cd 0.58028 0.16298 0.7356 0.0
O354 O 0.6254 0.20975 0.64908 0.0
Cd355 Cd 0.56885 0.21489 0.68716 0.0
O356 O 0.50538 0.18216 0.69341 0.0
C357 C 0.50484 0.15626 0.66924 0.0
O358 O 0.54044 0.15269 0.64955 0.0
C359 C 0.6423 0.17778 0.65261 0.0
C360 C 0.5976 0.12333 0.80805 0.0
O361 O 0.5748 0.10715 0.78197 0.0
O362 O 0.61245 0.15832 0.79942 0.0
O363 O 0.09735 0.38175 0.93156 0.0
Cd364 Cd 0.12121 0.32952 0.9772 0.0
O365 O 0.1469 0.42733 0.94243 0.0
Cd366 Cd 0.1594 0.39661 0.99992 0.0
O367 O 0.14384 0.398 0.06327 0.0
C368 C 0.16323 0.42482 0.08078 0.0
O369 O 0.19414 0.44632 0.06111 0.0
C370 C 0.11532 0.41528 0.92237 0.0
C371 C 0.12311 0.26522 0.9334 0.0
O372 O 0.08816 0.27836 0.94382 0.0
O373 O 0.15825 0.28146 0.94511 0.0
O374 O 0.38029 0.68121 0.31413 0.0
Cd375 Cd 0.42447 0.74243 0.30601 0.0
O376 O 0.38214 0.68942 0.37745 0.0
Cd377 Cd 0.38053 0.66611 0.43893 0.0
O378 O 0.37523 0.62269 0.4886 0.0
C379 C 0.38703 0.62887 0.52343 0.0
O380 O 0.40358 0.66343 0.52979 0.0
C381 C 0.37112 0.66838 0.34987 0.0
C382 C 0.38258 0.81035 0.29797 0.0
O383 O 0.39279 0.79306 0.26772 0.0
O384 O 0.39134 0.79467 0.3324 0.0
O385 O 0.86535 0.60499 0.86847 0.0
Cd386 Cd 0.80146 0.56181 0.85952 0.0
O387 O 0.83297 0.65184 0.89121 0.0
Cd388 Cd 0.77212 0.62144 0.87907 0.0
O389 O 0.71071 0.58832 0.8778 0.0
C390 C 0.68777 0.58605 0.84715 0.0
O391 O 0.70318 0.60211 0.81272 0.0
C392 C 0.86742 0.63786 0.88202 0.0
C393 C 0.82774 0.49457 0.83161 0.0
O394 O 0.82069 0.52416 0.8082 0.0
O395 O 0.82126 0.49645 0.86893 0.0
O396 O 0.64765 0.49717 0.16181 0.0
Cd397 Cd 0.70097 0.45001 0.16851 0.0
O398 O 0.6833 0.55185 0.13828 0.0
Cd399 Cd 0.75025 0.53828 0.14543 0.0
O400 O 0.81926 0.55581 0.1492 0.0
C401 C 0.83416 0.57514 0.17693 0.0
O402 O 0.80734 0.58336 0.20452 0.0
C403 C 0.64818 0.53237 0.14847 0.0
C404 C 0.66385 0.37879 0.14772 0.0
O405 O 0.65763 0.39016 0.18223 0.0
O406 O 0.68813 0.40085 0.12313 0.0
O407 O 0.64805 0.43552 0.39763 0.0
Cd408 Cd 0.71521 0.46904 0.41395 0.0
O409 O 0.61273 0.4787 0.36425 0.0
Cd410 Cd 0.65404 0.52828 0.37979 0.0
O411 O 0.63947 0.58575 0.39345 0.0
C412 C 0.61791 0.60286 0.3667 0.0
O413 O 0.61427 0.58796 0.33239 0.0
C414 C 0.61525 0.44409 0.3782 0.0
C415 C 0.77467 0.41859 0.39307 0.0
O416 O 0.7522 0.4123 0.42525 0.0
O417 O 0.77115 0.45036 0.37185 0.0
O418 O 0.86979 0.43219 0.58789 0.0
Cd419 Cd 0.82936 0.48549 0.60565 0.0
O420 O 0.86027 0.44826 0.52493 0.0
Cd421 Cd 0.80343 0.47787 0.53758 0.0
O422 O 0.73433 0.463 0.54567 0.0
C423 C 0.72343 0.42878 0.5377 0.0
O424 O 0.75344 0.40842 0.52507 0.0
C425 C 0.87827 0.42771 0.55179 0.0
C426 C 0.8801 0.55122 0.62404 0.0
O427 O 0.86997 0.52288 0.65 0.0
O428 O 0.86677 0.54834 0.58856 0.0
O429 O 0.4273 0.01809 0.16841 0.0
Cd430 Cd 0.47893 0.9791 0.20308 0.0
O431 O 0.45342 0.05263 0.21353 0.0
Cd432 Cd 0.4808 0.08628 0.26009 0.0
O433 O 0.48166 0.10249 0.32075 0.0
C434 C 0.44489 0.10336 0.33664 0.0
O435 O 0.41121 0.09703 0.31461 0.0
C436 C 0.42781 0.04946 0.1847 0.0
C437 C 0.56061 0.01301 0.1821 0.0
O438 O 0.54698 0.98094 0.16928 0.0
O439 O 0.53645 0.02807 0.2061 0.0
O440 O 0.05309 0.86253 0.70206 0.0
Cd441 Cd 0.99762 0.88588 0.74293 0.0
O442 O 0.07803 0.91904 0.67505 0.0
Cd443 Cd 0.01518 0.93686 0.68882 0.0
O444 O 0.94619 0.92461 0.6834 0.0
C445 C 0.93242 0.89832 0.6619 0.0
O446 O 0.96082 0.88091 0.64283 0.0
C447 C 0.08207 0.88323 0.6816 0.0
C448 C 0.0363 0.91049 0.8117 0.0
O449 O 0.02202 0.87541 0.80962 0.0
O450 O 0.03171 0.93398 0.781 0.0
O451 O 0.33454 0.82866 0.2161 0.0
Cd452 Cd 0.32237 0.80531 0.15135 0.0
O453 O 0.39045 0.86751 0.19443 0.0
Cd454 Cd 0.44608 0.90404 0.21202 0.0
O455 O 0.50027 0.91672 0.25087 0.0
C456 C 0.49542 0.90075 0.2861 0.0
O457 O 0.45986 0.87902 0.29458 0.0
C458 C 0.36419 0.85432 0.22226 0.0
C459 C 0.37377 0.8503 0.09415 0.0
O460 O 0.33584 0.85877 0.1022 0.0
O461 O 0.38634 0.81983 0.11274 0.0
O462 O 0.98852 0.6618 0.12671 0.0
Cd463 Cd 0.03689 0.70912 0.08831 0.0
O464 O 0.97729 0.61166 0.09278 0.0
Cd465 Cd 0.0164 0.64016 0.04312 0.0
O466 O 0.00899 0.65493 0.97967 0.0
C467 C 0.97394 0.66951 0.97177 0.0
O468 O 0.95053 0.67758 0.00197 0.0
C469 C 0.97083 0.62817 0.12401 0.0
C470 C 0.00578 0.78102 0.09693 0.0
O471 O 0.02864 0.76495 0.12375 0.0
O472 O 0.99821 0.76309 0.06595 0.0
O473 O 0.7183 0.34851 0.57827 0.0
Cd474 Cd 0.75503 0.29444 0.60518 0.0
O475 O 0.69198 0.31704 0.52913 0.0
Cd476 Cd 0.65179 0.31647 0.4763 0.0
O477 O 0.61532 0.3317 0.42306 0.0
C478 C 0.60263 0.36539 0.41918 0.0
O479 O 0.60929 0.38747 0.4484 0.0
C480 C 0.69446 0.34692 0.54812 0.0
C481 C 0.70518 0.22618 0.59613 0.0
O482 O 0.70411 0.24166 0.62912 0.0
O483 O 0.72954 0.24348 0.5683 0.0
O484 O 0.16734 0.51052 0.08076 0.0
Cd485 Cd 0.20761 0.57132 0.06134 0.0
O486 O 0.20725 0.51941 0.13232 0.0
Cd487 Cd 0.23865 0.49798 0.18619 0.0
O488 O 0.28992 0.45969 0.19378 0.0
C489 C 0.2865 0.43424 0.16921 0.0
O490 O 0.25375 0.43465 0.14527 0.0
C491 C 0.17862 0.49896 0.11554 0.0
C492 C 0.16919 0.62773 0.09895 0.0
O493 O 0.16963 0.628 0.06096 0.0
O494 O 0.188 0.60143 0.1189 0.0
O495 O 0.2917 0.45329 0.88735 0.0
Cd496 Cd 0.25861 0.51386 0.86977 0.0
O497 O 0.28788 0.43295 0.82771 0.0
Cd498 Cd 0.24363 0.47652 0.81222 0.0
O499 O 0.17874 0.48819 0.82857 0.0
C500 C 0.16278 0.46675 0.85836 0.0
O501 O 0.18687 0.44119 0.87523 0.0
C502 C 0.30043 0.42868 0.86337 0.0
C503 C 0.31445 0.58121 0.86919 0.0
O504 O 0.2889 0.57062 0.89877 0.0
O505 O 0.31411 0.55914 0.84095 0.0
O506 O 0.33399 0.4848 0.57415 0.0
Cd507 Cd 0.29622 0.42628 0.60446 0.0
O508 O 0.32043 0.50201 0.63294 0.0
Cd509 Cd 0.3086 0.54561 0.6725 0.0
O510 O 0.2428 0.55421 0.68425 0.0
C511 C 0.22357 0.58324 0.67161 0.0
O512 O 0.24612 0.61342 0.65403 0.0
C513 C 0.33866 0.50973 0.59912 0.0
C514 C 0.36202 0.37839 0.61044 0.0
O515 O 0.33373 0.37559 0.58351 0.0
O516 O 0.35634 0.40167 0.63683 0.0
O517 O 0.1612 0.55117 0.45632 0.0
Cd518 Cd 0.2224 0.51369 0.45931 0.0
O519 O 0.12138 0.51902 0.41579 0.0
Cd520 Cd 0.15468 0.46595 0.42102 0.0
O521 O 0.16179 0.40433 0.41705 0.0
C522 C 0.12965 0.38492 0.40409 0.0
O523 O 0.09549 0.40304 0.39508 0.0
C524 C 0.12828 0.54855 0.43498 0.0
C525 C 0.28111 0.55872 0.40803 0.0
O526 O 0.27047 0.56923 0.44184 0.0
O527 O 0.26541 0.52572 0.39913 0.0
C528 C 0.12692 0.40882 0.14571 0.0
N529 N 0.15073 0.4326 0.11818 0.0
N530 N 0.1197 0.42708 0.17894 0.0
C531 C 0.11453 0.36666 0.14196 0.0
C532 C 0.14185 0.46212 0.17141 0.0
N533 N 0.16045 0.46549 0.13458 0.0
C534 C 0.13989 0.49484 0.19779 0.0
H535 H 0.11571 0.34952 0.17109 0.0
H536 H 0.13665 0.35413 0.12185 0.0
H537 H 0.08155 0.36326 0.13045 0.0
H538 H 0.15295 0.4862 0.22739 0.0
H539 H 0.10607 0.50102 0.20204 0.0
H540 H 0.15758 0.52203 0.18576 0.0
C541 C 0.88842 0.84412 0.38155 0.0
N542 N 0.86738 0.86533 0.35325 0.0
N543 N 0.86404 0.83602 0.4153 0.0
C544 C 0.93059 0.82746 0.37475 0.0
C545 C 0.82724 0.85256 0.4065 0.0
N546 N 0.82933 0.87085 0.36924 0.0
C547 C 0.78873 0.85046 0.4343 0.0
H548 H 0.9342 0.80125 0.39498 0.0
H549 H 0.95721 0.84933 0.37962 0.0
H550 H 0.93317 0.81912 0.34391 0.0
H551 H 0.79726 0.86594 0.4608 0.0
H552 H 0.77895 0.81999 0.44456 0.0
H553 H 0.76058 0.86257 0.41993 0.0
C554 C 0.39715 0.59965 0.59117 0.0
N555 N 0.38378 0.56605 0.61275 0.0
N556 N 0.38176 0.6001 0.55364 0.0
C557 C 0.43019 0.62945 0.60469 0.0
C558 C 0.35886 0.56546 0.55295 0.0
N559 N 0.36005 0.5448 0.58884 0.0
C560 C 0.32894 0.55523 0.51985 0.0
H561 H 0.41375 0.65382 0.6149 0.0
H562 H 0.4527 0.64059 0.58001 0.0
H563 H 0.44995 0.61758 0.6291 0.0
H564 H 0.34785 0.54702 0.49439 0.0
H565 H 0.31147 0.58048 0.50954 0.0
H566 H 0.30423 0.53166 0.52903 0.0
C567 C 0.62304 0.118 0.87671 0.0
N568 N 0.63125 0.08894 0.9044 0.0
N569 N 0.60679 0.1036 0.84333 0.0
C570 C 0.62471 0.16003 0.88452 0.0
C571 C 0.60441 0.06478 0.85197 0.0
N572 N 0.61975 0.05586 0.88889 0.0
C573 C 0.59453 0.03613 0.8215 0.0
H574 H 0.60388 0.17676 0.86457 0.0
H575 H 0.65823 0.17287 0.88094 0.0
H576 H 0.61332 0.16324 0.91517 0.0
H577 H 0.61048 0.04657 0.7926 0.0
H578 H 0.55948 0.03316 0.81687 0.0
H579 H 0.60547 0.00735 0.82996 0.0
C580 C 0.09713 0.6412 0.41674 0.0
N581 N 0.11365 0.61407 0.44221 0.0
N582 N 0.07704 0.62462 0.38626 0.0
C583 C 0.09544 0.68298 0.42441 0.0
C584 C 0.0799 0.58628 0.39541 0.0
N585 N 0.10487 0.57997 0.4277 0.0
C586 C 0.0571 0.55491 0.37354 0.0
H587 H 0.06772 0.69576 0.40996 0.0
H588 H 0.12543 0.6995 0.41298 0.0
H589 H 0.09197 0.68624 0.45663 0.0
H590 H 0.07675 0.54954 0.34736 0.0
H591 H 0.02537 0.56314 0.36333 0.0
H592 H 0.05081 0.52784 0.39311 0.0
C593 C 0.59503 0.89657 0.63279 0.0
N594 N 0.61881 0.91371 0.60101 0.0
N595 N 0.59793 0.91876 0.66409 0.0
C596 C 0.57314 0.85633 0.63501 0.0
C597 C 0.62507 0.94958 0.65047 0.0
N598 N 0.6376 0.94657 0.61222 0.0
C599 C 0.63284 0.98545 0.67229 0.0
H600 H 0.5755 0.8414 0.66519 0.0
H601 H 0.5878 0.83821 0.61421 0.0
H602 H 0.53883 0.85797 0.62789 0.0
H603 H 0.65089 0.97854 0.69976 0.0
H604 H 0.60175 0.99558 0.68105 0.0
H605 H 0.65063 0.00971 0.65462 0.0
C606 C 0.36345 0.35209 0.88817 0.0
N607 N 0.35143 0.38013 0.86072 0.0
N608 N 0.33881 0.34997 0.92183 0.0
C609 C 0.39548 0.32346 0.88036 0.0
C610 C 0.31079 0.37709 0.91387 0.0
N611 N 0.31898 0.39615 0.87733 0.0
C612 C 0.27369 0.38336 0.94106 0.0
H613 H 0.3908 0.29686 0.90082 0.0
H614 H 0.42837 0.33693 0.88369 0.0
H615 H 0.39225 0.31451 0.84974 0.0
H616 H 0.28616 0.39577 0.96821 0.0
H617 H 0.25535 0.3555 0.95026 0.0
H618 H 0.25052 0.40219 0.9267 0.0
C619 C 0.85748 0.11019 0.09838 0.0
N620 N 0.86182 0.07207 0.10821 0.0
N621 N 0.86043 0.11877 0.05826 0.0
C622 C 0.84505 0.13807 0.12746 0.0
C623 C 0.86343 0.08405 0.04375 0.0
N624 N 0.86431 0.05573 0.07398 0.0
C625 C 0.85948 0.07725 0.00014 0.0
H626 H 0.82492 0.15983 0.11331 0.0
H627 H 0.87438 0.15289 0.13898 0.0
H628 H 0.82564 0.12312 0.15273 0.0
H629 H 0.8908 0.08531 0.98474 0.0
H630 H 0.83527 0.09507 0.98579 0.0
H631 H 0.84897 0.04707 0.99545 0.0
C632 C 0.09201 0.10365 0.39269 0.0
N633 N 0.13046 0.10066 0.41043 0.0
N634 N 0.08667 0.07864 0.36415 0.0
C635 C 0.06061 0.13273 0.40092 0.0
C636 C 0.12322 0.06001 0.3654 0.0
N637 N 0.15004 0.07366 0.39335 0.0
C638 C 0.13464 0.0308 0.33746 0.0
H639 H 0.0273 0.11944 0.40014 0.0
H640 H 0.06439 0.15703 0.37734 0.0
H641 H 0.06502 0.14453 0.43002 0.0
H642 H 0.10944 0.02371 0.31612 0.0
H643 H 0.14212 0.00393 0.35507 0.0
H644 H 0.16373 0.04218 0.31984 0.0
C645 C 0.1642 0.85962 0.61997 0.0
N646 N 0.14778 0.88506 0.6432 0.0
N647 N 0.14165 0.82458 0.62571 0.0
C648 C 0.20098 0.86964 0.59064 0.0
C649 C 0.11134 0.82948 0.65342 0.0
N650 N 0.11393 0.86652 0.66297 0.0
C651 C 0.08185 0.79708 0.67396 0.0
H652 H 0.19517 0.89605 0.57145 0.0
H653 H 0.20555 0.84684 0.57071 0.0
H654 H 0.23089 0.87553 0.60712 0.0
H655 H 0.09347 0.76839 0.67115 0.0
H656 H 0.04942 0.7979 0.66123 0.0
H657 H 0.0796 0.80002 0.70636 0.0
C658 C 0.36113 0.92894 0.83457 0.0
N659 N 0.385 0.89807 0.83529 0.0
N660 N 0.33195 0.92449 0.86513 0.0
C661 C 0.36446 0.96247 0.80291 0.0
C662 C 0.3375 0.88894 0.88317 0.0
N663 N 0.37099 0.87345 0.86624 0.0
C664 C 0.30817 0.86829 0.91559 0.0
H665 H 0.37885 0.98848 0.81585 0.0
H666 H 0.33218 0.96847 0.79216 0.0
H667 H 0.38354 0.95711 0.7765 0.0
H668 H 0.30325 0.83713 0.9118 0.0
H669 H 0.27584 0.8789 0.91486 0.0
H670 H 0.32242 0.87221 0.94509 0.0
C671 C 0.37146 0.11311 0.12407 0.0
N672 N 0.37695 0.07655 0.13954 0.0
N673 N 0.39512 0.13912 0.14424 0.0
C674 C 0.3385 0.12383 0.09343 0.0
C675 C 0.41318 0.11701 0.17367 0.0
N676 N 0.4046 0.07897 0.16928 0.0
C677 C 0.43106 0.13207 0.21092 0.0
H678 H 0.35422 0.12885 0.06359 0.0
H679 H 0.32376 0.15028 0.10014 0.0
H680 H 0.31156 0.10153 0.09254 0.0
H681 H 0.42092 0.1114 0.23662 0.0
H682 H 0.4181 0.1594 0.21734 0.0
H683 H 0.46646 0.13635 0.20825 0.0
C684 C 0.10991 0.90035 0.04586 0.0
N685 N 0.15234 0.90097 0.05301 0.0
N686 N 0.09671 0.93648 0.04461 0.0
C687 C 0.07995 0.86406 0.0483 0.0
C688 C 0.13335 0.95927 0.04903 0.0
N689 N 0.16731 0.93756 0.05381 0.0
C690 C 0.13616 0.0026 0.04645 0.0
H691 H 0.06028 0.86413 0.02119 0.0
H692 H 0.05861 0.86355 0.07476 0.0
H693 H 0.09633 0.8372 0.05066 0.0
H694 H 0.10496 0.01426 0.03979 0.0
H695 H 0.15908 0.01451 0.02232 0.0
H696 H 0.1483 0.01255 0.07488 0.0
C697 C 0.35928 0.86948 0.32227 0.0
N698 N 0.36753 0.84623 0.29326 0.0
N699 N 0.35502 0.90614 0.30619 0.0
C700 C 0.3504 0.8555 0.3655 0.0
C701 C 0.36058 0.90415 0.26643 0.0
N702 N 0.36742 0.86782 0.25868 0.0
C703 C 0.35668 0.93727 0.23497 0.0
H704 H 0.32391 0.87009 0.37794 0.0
H705 H 0.37959 0.86153 0.38295 0.0
H706 H 0.34033 0.82432 0.36952 0.0
H707 H 0.37831 0.96239 0.24193 0.0
H708 H 0.32335 0.94578 0.23499 0.0
H709 H 0.36472 0.93031 0.20457 0.0
C710 C 0.43081 0.12803 0.681 0.0
N711 N 0.46759 0.13652 0.65911 0.0
N712 N 0.39933 0.11207 0.65855 0.0
C713 C 0.42637 0.13343 0.72465 0.0
C714 C 0.41895 0.11105 0.62251 0.0
N715 N 0.46024 0.12587 0.62266 0.0
C716 C 0.3973 0.09802 0.58565 0.0
H717 H 0.40797 0.1081 0.74047 0.0
H718 H 0.40887 0.15928 0.72813 0.0
H719 H 0.4579 0.13695 0.73899 0.0
H720 H 0.37248 0.1177 0.57634 0.0
H721 H 0.3816 0.06852 0.59206 0.0
H722 H 0.42048 0.09754 0.56066 0.0
C723 C 0.14494 0.20439 0.91132 0.0
N724 N 0.12999 0.17946 0.8848 0.0
N725 N 0.12245 0.23617 0.90894 0.0
C726 C 0.1793 0.19629 0.94117 0.0
C727 C 0.09436 0.23034 0.87937 0.0
N728 N 0.09804 0.19555 0.86533 0.0
C729 C 0.06373 0.25918 0.86368 0.0
H730 H 0.18688 0.22009 0.96003 0.0
H731 H 0.20895 0.19048 0.9253 0.0
H732 H 0.1687 0.17017 0.96102 0.0
H733 H 0.07123 0.28811 0.87395 0.0
H734 H 0.03051 0.24851 0.873 0.0
H735 H 0.06549 0.26293 0.8307 0.0
C736 C 0.85256 0.42919 0.83735 0.0
N737 N 0.87605 0.4083 0.81416 0.0
N738 N 0.84454 0.46343 0.81741 0.0
C739 C 0.8353 0.41531 0.87855 0.0
C740 C 0.86214 0.46179 0.78076 0.0
N741 N 0.88099 0.42858 0.77871 0.0
C742 C 0.85989 0.49219 0.74624 0.0
H743 H 0.80538 0.42841 0.88534 0.0
H744 H 0.85965 0.4227 0.90086 0.0
H745 H 0.82741 0.38373 0.88139 0.0
H746 H 0.87904 0.51888 0.75282 0.0
H747 H 0.82624 0.49898 0.74172 0.0
H748 H 0.87183 0.4827 0.71804 0.0
C749 C 0.89514 0.61511 0.20063 0.0
N750 N 0.93505 0.62797 0.18695 0.0
N751 N 0.87605 0.59026 0.17593 0.0
C752 C 0.87621 0.62426 0.23967 0.0
C753 C 0.90677 0.58778 0.14747 0.0
N754 N 0.94165 0.61244 0.1529 0.0
C755 C 0.90276 0.56117 0.11454 0.0
H756 H 0.8616 0.59755 0.25631 0.0
H757 H 0.8508 0.64421 0.23369 0.0
H758 H 0.90039 0.63765 0.25898 0.0
H759 H 0.88738 0.57574 0.08853 0.0
H760 H 0.8835 0.534 0.12441 0.0
H761 H 0.93436 0.55267 0.10527 0.0
C762 C 0.60832 0.66004 0.40165 0.0
N763 N 0.59819 0.63535 0.37348 0.0
N764 N 0.58316 0.69002 0.39835 0.0
C765 C 0.64062 0.65318 0.43389 0.0
C766 C 0.55812 0.68321 0.36669 0.0
N767 N 0.56638 0.64952 0.35212 0.0
C768 C 0.5264 0.71018 0.34915 0.0
H769 H 0.64327 0.67566 0.45492 0.0
H770 H 0.67254 0.65118 0.42004 0.0
H771 H 0.63135 0.6254 0.45151 0.0
H772 H 0.5307 0.73922 0.3598 0.0
H773 H 0.49332 0.69753 0.35638 0.0
H774 H 0.53042 0.71437 0.31632 0.0
C775 C 0.83726 0.39872 0.35846 0.0
N776 N 0.85936 0.36675 0.35963 0.0
N777 N 0.80192 0.3925 0.38242 0.0
C778 C 0.84955 0.43588 0.33309 0.0
C779 C 0.8019 0.35496 0.39656 0.0
N780 N 0.83749 0.33926 0.38389 0.0
C781 C 0.76477 0.33273 0.41964 0.0
H782 H 0.86126 0.45833 0.35252 0.0
H783 H 0.82133 0.44589 0.31696 0.0
H784 H 0.87432 0.4327 0.31023 0.0
H785 H 0.76112 0.30239 0.41231 0.0
H786 H 0.73407 0.34517 0.41241 0.0
H787 H 0.77027 0.33341 0.45204 0.0
C788 C 0.58727 0.54113 0.87643 0.0
N789 N 0.62551 0.55941 0.8852 0.0
N790 N 0.58264 0.54206 0.8362 0.0
C791 C 0.55164 0.52854 0.90648 0.0
C792 C 0.62101 0.55794 0.82115 0.0
N793 N 0.64695 0.56865 0.85077 0.0
C794 C 0.63396 0.56028 0.7777 0.0
H795 H 0.5636 0.52276 0.93695 0.0
H796 H 0.53414 0.50149 0.89877 0.0
H797 H 0.52886 0.55122 0.90643 0.0
H798 H 0.63263 0.59028 0.76432 0.0
H799 H 0.6128 0.54068 0.76105 0.0
H800 H 0.66711 0.55194 0.77437 0.0
C801 C 0.9153 0.67171 0.92488 0.0
N802 N 0.90648 0.6554 0.89052 0.0
N803 N 0.95707 0.669 0.93451 0.0
C804 C 0.88264 0.68868 0.94996 0.0
C805 C 0.97443 0.65507 0.90212 0.0
N806 N 0.94364 0.64669 0.87545 0.0
C807 C 0.02178 0.65272 0.89523 0.0
H808 H 0.85792 0.70177 0.93123 0.0
H809 H 0.89777 0.71206 0.96646 0.0
H810 H 0.86696 0.66578 0.97139 0.0
H811 H 0.02967 0.6225 0.90189 0.0
H812 H 0.04128 0.67158 0.91401 0.0
H813 H 0.03102 0.66213 0.86385 0.0
C814 C 0.08098 0.14669 0.64705 0.0
N815 N 0.11453 0.13103 0.63046 0.0
N816 N 0.07023 0.12822 0.68338 0.0
C817 C 0.05472 0.17628 0.62555 0.0
C818 C 0.09666 0.09916 0.68737 0.0
N819 N 0.12399 0.10115 0.65543 0.0
C820 C 0.10041 0.07346 0.72555 0.0
H821 H 0.07118 0.20543 0.62678 0.0
H822 H 0.02195 0.17563 0.63825 0.0
H823 H 0.05057 0.17062 0.59395 0.0
H824 H 0.06997 0.05527 0.73154 0.0
H825 H 0.10578 0.09146 0.7508 0.0
H826 H 0.12689 0.0545 0.72532 0.0
C827 C 0.55722 0.35768 0.3618 0.0
N828 N 0.58323 0.37877 0.38509 0.0
N829 N 0.54234 0.38056 0.33114 0.0
C830 C 0.54278 0.31551 0.37118 0.0
C831 C 0.55827 0.41669 0.33808 0.0
N832 N 0.58495 0.41546 0.36968 0.0
C833 C 0.54675 0.45323 0.31467 0.0
H834 H 0.56179 0.29805 0.35279 0.0
H835 H 0.50843 0.30987 0.36444 0.0
H836 H 0.54624 0.30569 0.403 0.0
H837 H 0.51499 0.44956 0.30085 0.0
H838 H 0.57149 0.46216 0.29117 0.0
H839 H 0.54458 0.47682 0.33423 0.0
C840 C 0.41312 0.90672 0.00908 0.0
N841 N 0.38899 0.90316 0.04323 0.0
N842 N 0.43707 0.87616 0.00744 0.0
C843 C 0.41616 0.94153 0.97888 0.0
C844 C 0.42932 0.85558 0.04316 0.0
N845 N 0.39816 0.87048 0.06397 0.0
C846 C 0.45345 0.8216 0.05809 0.0
H847 H 0.44833 0.94625 0.96452 0.0
H848 H 0.41102 0.96827 0.9929 0.0
H849 H 0.39177 0.93731 0.95571 0.0
H850 H 0.48517 0.82231 0.0431 0.0
H851 H 0.4344 0.79444 0.05287 0.0
H852 H 0.45964 0.82194 0.09036 0.0
C853 C 0.90417 0.38473 0.50532 0.0
N854 N 0.90257 0.39874 0.54183 0.0
N855 N 0.9233 0.35104 0.50773 0.0
C856 C 0.88001 0.40017 0.46936 0.0
C857 C 0.93354 0.34499 0.54654 0.0
N858 N 0.9217 0.37416 0.56722 0.0
C859 C 0.96166 0.31418 0.5626 0.0
H860 H 0.84557 0.40022 0.47731 0.0
H861 H 0.88116 0.38334 0.4434 0.0
H862 H 0.89267 0.43019 0.46003 0.0
H863 H 0.97885 0.30162 0.53869 0.0
H864 H 0.94159 0.29092 0.58013 0.0
H865 H 0.98643 0.3262 0.5823 0.0
C866 C 0.41113 0.12361 0.43098 0.0
N867 N 0.40467 0.10482 0.39766 0.0
N868 N 0.45221 0.13946 0.43183 0.0
C869 C 0.377 0.12753 0.46219 0.0
C870 C 0.46906 0.13329 0.39587 0.0
N871 N 0.44028 0.11205 0.37516 0.0
C872 C 0.51124 0.15239 0.37901 0.0
H873 H 0.34535 0.13061 0.44862 0.0
H874 H 0.38353 0.15378 0.47787 0.0
H875 H 0.37485 0.10179 0.48407 0.0
H876 H 0.53649 0.1321 0.38387 0.0
H877 H 0.5208 0.17919 0.39293 0.0
H878 H 0.5093 0.16094 0.34671 0.0
C879 C 0.56461 0.5918 0.13284 0.0
N880 N 0.59968 0.57627 0.11896 0.0
N881 N 0.55408 0.57641 0.17043 0.0
C882 C 0.53715 0.6179 0.10789 0.0
C883 C 0.58274 0.54971 0.17842 0.0
N884 N 0.61096 0.55015 0.14743 0.0
C885 C 0.58752 0.5286 0.21915 0.0
H886 H 0.55259 0.64771 0.10531 0.0
H887 H 0.50434 0.61781 0.12037 0.0
H888 H 0.53336 0.60826 0.07761 0.0
H889 H 0.55921 0.50775 0.22574 0.0
H890 H 0.58866 0.54937 0.24221 0.0
H891 H 0.61669 0.51299 0.22228 0.0
C892 C 0.07297 0.89816 0.87466 0.0
N893 N 0.10342 0.91744 0.89544 0.0
N894 N 0.05912 0.92151 0.84385 0.0
C895 C 0.05252 0.85823 0.88759 0.0
C896 C 0.07955 0.95661 0.84878 0.0
N897 N 0.10795 0.95379 0.879 0.0
C898 C 0.07261 0.99339 0.82331 0.0
H899 H 0.07065 0.83652 0.87417 0.0
H900 H 0.01865 0.8548 0.87862 0.0
H901 H 0.05196 0.85223 0.9204 0.0
H902 H 0.04047 0.99254 0.81004 0.0
H903 H 0.09744 0.99835 0.79929 0.0
H904 H 0.07424 0.01853 0.84106 0.0
C905 C 0.85774 0.91177 0.66921 0.0
N906 N 0.88939 0.89169 0.65521 0.0
N907 N 0.82106 0.90559 0.6487 0.0
C908 C 0.86163 0.93522 0.70474 0.0
C909 C 0.83034 0.87875 0.62397 0.0
N910 N 0.87178 0.87043 0.62764 0.0
C911 C 0.79695 0.85604 0.60135 0.0
H912 H 0.83086 0.93412 0.72139 0.0
H913 H 0.87191 0.96562 0.6945 0.0
H914 H 0.88498 0.92392 0.72629 0.0
H915 H 0.79348 0.87101 0.57129 0.0
H916 H 0.7655 0.85304 0.61713 0.0
H917 H 0.80541 0.82632 0.59819 0.0
C918 C 0.80708 0.10719 0.39727 0.0
N919 N 0.8169 0.08153 0.37097 0.0
N920 N 0.83994 0.13487 0.39968 0.0
C921 C 0.76381 0.1076 0.41753 0.0
C922 C 0.8694 0.12609 0.3728 0.0
N923 N 0.85558 0.09383 0.35543 0.0
C924 C 0.90801 0.15297 0.35844 0.0
H925 H 0.75413 0.13732 0.41762 0.0
H926 H 0.76533 0.09491 0.44877 0.0
H927 H 0.73798 0.09177 0.40202 0.0
H928 H 0.9343 0.1497 0.37994 0.0
H929 H 0.89993 0.18333 0.35605 0.0
H930 H 0.91974 0.14792 0.32845 0.0
C931 C 0.63522 0.01569 0.16016 0.0
N932 N 0.66396 0.04256 0.14125 0.0
N933 N 0.59855 0.0316 0.16871 0.0
C934 C 0.64392 0.97455 0.17256 0.0
C935 C 0.60557 0.06901 0.15369 0.0
N936 N 0.64451 0.07502 0.13481 0.0
C937 C 0.57145 0.09735 0.15007 0.0
H938 H 0.61553 0.95692 0.18547 0.0
H939 H 0.66928 0.97419 0.19526 0.0
H940 H 0.65545 0.96088 0.14644 0.0
H941 H 0.58453 0.12542 0.15962 0.0
H942 H 0.54214 0.08809 0.16795 0.0
H943 H 0.56212 0.10194 0.11847 0.0
C944 C 0.61741 0.7938 0.913 0.0
N945 N 0.60579 0.82473 0.88952 0.0
N946 N 0.60816 0.76081 0.89529 0.0
C947 C 0.64311 0.79601 0.95064 0.0
C948 C 0.59107 0.77297 0.85984 0.0
N949 N 0.58868 0.81183 0.85658 0.0
C950 C 0.5823 0.74769 0.8262 0.0
H951 H 0.67204 0.78002 0.94841 0.0
H952 H 0.62338 0.78246 0.97643 0.0
H953 H 0.65468 0.82557 0.95661 0.0
H954 H 0.55085 0.73094 0.83152 0.0
H955 H 0.60742 0.72738 0.82422 0.0
H956 H 0.58257 0.76449 0.79678 0.0
C957 C 0.84664 0.1427 0.86002 0.0
N958 N 0.88035 0.16988 0.85652 0.0
N959 N 0.81526 0.15345 0.88385 0.0
C960 C 0.84235 0.10763 0.83673 0.0
C961 C 0.82976 0.18929 0.89255 0.0
N962 N 0.86922 0.19928 0.87598 0.0
C963 C 0.80307 0.2161 0.91302 0.0
H964 H 0.8614 0.11227 0.80859 0.0
H965 H 0.80874 0.10095 0.82811 0.0
H966 H 0.8532 0.08251 0.85517 0.0
H967 H 0.79811 0.20533 0.94482 0.0
H968 H 0.77119 0.21661 0.8991 0.0
H969 H 0.81766 0.24609 0.91114 0.0
C970 C 0.69356 0.16801 0.5623 0.0
N971 N 0.6857 0.19022 0.59238 0.0
N972 N 0.68355 0.13042 0.57426 0.0
C973 C 0.71537 0.18244 0.52293 0.0
C974 C 0.66725 0.13029 0.61163 0.0
N975 N 0.66675 0.16692 0.62217 0.0
C976 C 0.64429 0.0951 0.63417 0.0
H977 H 0.71157 0.16149 0.50032 0.0
H978 H 0.75017 0.18848 0.5276 0.0
H979 H 0.70212 0.20941 0.5107 0.0
H980 H 0.66018 0.08882 0.66298 0.0
H981 H 0.6434 0.06938 0.61728 0.0
H982 H 0.61055 0.10041 0.64035 0.0
C983 C 0.56795 0.92026 0.3086 0.0
N984 N 0.59309 0.90915 0.33967 0.0
N985 N 0.52767 0.90252 0.3132 0.0
C986 C 0.582 0.94979 0.27468 0.0
C987 C 0.52816 0.88267 0.34963 0.0
N988 N 0.56766 0.88647 0.36563 0.0
C989 C 0.48871 0.86329 0.37165 0.0
H990 H 0.60657 0.97153 0.28416 0.0
H991 H 0.55498 0.96584 0.26337 0.0
H992 H 0.59532 0.93487 0.25032 0.0
H993 H 0.4808 0.83462 0.36071 0.0
H994 H 0.46104 0.88082 0.36648 0.0
H995 H 0.493 0.85967 0.40428 0.0
C996 C 0.97025 0.83889 0.07406 0.0
N997 N 0.95213 0.86752 0.09142 0.0
N998 N 0.98846 0.81507 0.10193 0.0
C999 C 0.97014 0.83417 0.02979 0.0
C1000 C 0.98228 0.83119 0.13664 0.0
N1001 N 0.95984 0.86283 0.13037 0.0
C1002 C 0.00056 0.81719 0.1761 0.0
H1003 H 0.93842 0.82098 0.02166 0.0
H1004 H 0.99543 0.81653 0.02035 0.0
H1005 H 0.97646 0.8622 0.012 0.0
H1006 H 0.0351 0.8134 0.1723 0.0
H1007 H 0.98402 0.78885 0.18679 0.0
H1008 H 0.99797 0.83741 0.19924 0.0
C1009 C 0.15157 0.69343 0.10437 0.0
N1010 N 0.13985 0.71441 0.13409 0.0
N1011 N 0.15158 0.65579 0.1176 0.0
C1012 C 0.16385 0.70996 0.0625 0.0
C1013 C 0.13562 0.65385 0.15537 0.0
N1014 N 0.12642 0.68941 0.16476 0.0
C1015 C 0.12206 0.61652 0.18007 0.0
H1016 H 0.1479 0.69216 0.04052 0.0
H1017 H 0.199 0.71012 0.05806 0.0
H1018 H 0.15378 0.73952 0.05623 0.0
H1019 H 0.13908 0.61566 0.20877 0.0
H1020 H 0.12809 0.59067 0.16494 0.0
H1021 H 0.08717 0.6148 0.1866 0.0
C1022 C 0.09023 0.48527 0.84747 0.0
N1023 N 0.12006 0.46598 0.86837 0.0
N1024 N 0.05009 0.46858 0.85622 0.0
C1025 C 0.10002 0.52139 0.81984 0.0
C1026 C 0.05621 0.4406 0.88566 0.0
N1027 N 0.09855 0.43907 0.89322 0.0
C1028 C 0.02043 0.41842 0.91065 0.0
H1029 H 0.12984 0.53775 0.82815 0.0
H1030 H 0.07417 0.54107 0.82111 0.0
H1031 H 0.10332 0.51351 0.78893 0.0
H1032 H 0.01028 0.39158 0.89689 0.0
H1033 H 0.9925 0.43567 0.91278 0.0
H1034 H 0.03043 0.41082 0.94156 0.0
C1035 C 0.41034 0.33734 0.58041 0.0
N1036 N 0.39787 0.35845 0.60993 0.0
N1037 N 0.44846 0.32273 0.589 0.0
C1038 C 0.38895 0.3362 0.54035 0.0
C1039 C 0.46028 0.33819 0.62328 0.0
N1040 N 0.4294 0.35945 0.6362 0.0
C1041 C 0.49965 0.32904 0.64649 0.0
H1042 H 0.36055 0.315 0.54303 0.0
H1043 H 0.41066 0.32917 0.5165 0.0
H1044 H 0.37863 0.36483 0.52979 0.0
H1045 H 0.52862 0.33697 0.62748 0.0
H1046 H 0.49827 0.29763 0.65524 0.0
H1047 H 0.50281 0.34425 0.67386 0.0
C1048 C 0.15447 0.55467 0.69768 0.0
N1049 N 0.18032 0.58319 0.67769 0.0
N1050 N 0.1144 0.56553 0.70152 0.0
C1051 C 0.16809 0.5161 0.71458 0.0
C1052 C 0.11657 0.60208 0.68373 0.0
N1053 N 0.15626 0.6121 0.66721 0.0
C1054 C 0.07795 0.62453 0.67507 0.0
H1055 H 0.14143 0.49755 0.72979 0.0
H1056 H 0.19339 0.52053 0.73685 0.0
H1057 H 0.18122 0.50076 0.69036 0.0
H1058 H 0.08538 0.655 0.681 0.0
H1059 H 0.0495 0.61323 0.69343 0.0
H1060 H 0.06978 0.6238 0.6432 0.0
C1061 C 0.35736 0.40979 0.1809 0.0
N1062 N 0.38195 0.38563 0.16289 0.0
N1063 N 0.31786 0.40987 0.16445 0.0
C1064 C 0.37104 0.43173 0.21592 0.0
C1065 C 0.31809 0.38274 0.13809 0.0
N1066 N 0.35688 0.36813 0.13694 0.0
C1067 C 0.27826 0.36604 0.11859 0.0
H1068 H 0.34358 0.43556 0.23565 0.0
H1069 H 0.38648 0.46041 0.20488 0.0
H1070 H 0.39371 0.41602 0.23488 0.0
H1071 H 0.27365 0.38295 0.08976 0.0
H1072 H 0.24946 0.36679 0.13779 0.0
H1073 H 0.28015 0.33545 0.11326 0.0
C1074 C 0.66318 0.31923 0.11478 0.0
N1075 N 0.64544 0.34413 0.13782 0.0
N1076 N 0.63719 0.28623 0.11421 0.0
C1077 C 0.70694 0.32541 0.09483 0.0
C1078 C 0.60412 0.2911 0.13909 0.0
N1079 N 0.60824 0.32677 0.15242 0.0
C1080 C 0.57007 0.25954 0.1535 0.0
H1081 H 0.70319 0.3275 0.06205 0.0
H1082 H 0.72553 0.30039 0.10322 0.0
H1083 H 0.72643 0.35106 0.10311 0.0
H1084 H 0.57936 0.23041 0.14885 0.0
H1085 H 0.53969 0.26445 0.13799 0.0
H1086 H 0.56444 0.25932 0.18602 0.0
C1087 C 0.89893 0.62076 0.61795 0.0
N1088 N 0.90179 0.58421 0.63493 0.0
N1089 N 0.91654 0.64695 0.64201 0.0
C1090 C 0.87365 0.63056 0.58096 0.0
C1091 C 0.92799 0.62482 0.67476 0.0
N1092 N 0.9222 0.58689 0.66922 0.0
C1093 C 0.93557 0.63954 0.7148 0.0
H1094 H 0.89233 0.62475 0.55434 0.0
H1095 H 0.865 0.66059 0.57764 0.0
H1096 H 0.84288 0.61252 0.5817 0.0
H1097 H 0.92277 0.61743 0.73834 0.0
H1098 H 0.91801 0.66523 0.7186 0.0
H1099 H 0.97031 0.6469 0.71846 0.0
C1100 C 0.626 0.37213 0.54147 0.0
N1101 N 0.66944 0.37621 0.53838 0.0
N1102 N 0.61063 0.40614 0.54863 0.0
C1103 C 0.59935 0.33379 0.54687 0.0
C1104 C 0.64602 0.43139 0.54769 0.0
N1105 N 0.68183 0.41317 0.54159 0.0
C1106 C 0.64511 0.47416 0.55005 0.0
H1107 H 0.57291 0.33385 0.52526 0.0
H1108 H 0.58511 0.32967 0.57734 0.0
H1109 H 0.61728 0.30855 0.54277 0.0
H1110 H 0.6124 0.48364 0.54634 0.0
H1111 H 0.66577 0.49019 0.52622 0.0
H1112 H 0.65755 0.48178 0.57925 0.0
C1113 C 0.33958 0.64291 0.89317 0.0
N1114 N 0.34165 0.61422 0.8685 0.0
N1115 N 0.37533 0.66798 0.889 0.0
C1116 C 0.30042 0.64921 0.9176 0.0
C1117 C 0.39874 0.65409 0.86015 0.0
N1118 N 0.37831 0.62177 0.84751 0.0
C1119 C 0.43913 0.67478 0.84098 0.0
H1120 H 0.29472 0.68013 0.91591 0.0
H1121 H 0.30521 0.63886 0.94918 0.0
H1122 H 0.27088 0.63435 0.90676 0.0
H1123 H 0.46568 0.67327 0.86242 0.0
H1124 H 0.4342 0.70551 0.83295 0.0
H1125 H 0.44883 0.66302 0.81318 0.0
C1126 C 0.15428 0.32121 0.42262 0.0
N1127 N 0.12955 0.34591 0.40158 0.0
N1128 N 0.14138 0.28401 0.4168 0.0
C1129 C 0.18615 0.33308 0.4535 0.0
C1130 C 0.10823 0.28692 0.39136 0.0
N1131 N 0.10104 0.32435 0.38213 0.0
C1132 C 0.08851 0.25376 0.36977 0.0
H1133 H 0.21634 0.34551 0.4383 0.0
H1134 H 0.19318 0.30901 0.47528 0.0
H1135 H 0.17358 0.35521 0.471 0.0
H1136 H 0.07479 0.26329 0.34082 0.0
H1137 H 0.063 0.23744 0.38891 0.0
H1138 H 0.1129 0.23394 0.36295 0.0
C1139 C 0.33357 0.57142 0.35283 0.0
N1140 N 0.3625 0.60105 0.33959 0.0
N1141 N 0.30924 0.58158 0.38319 0.0
C1142 C 0.32906 0.53262 0.33619 0.0
C1143 C 0.32173 0.61941 0.38556 0.0
N1144 N 0.35341 0.63147 0.35847 0.0
C1145 C 0.29716 0.64569 0.40882 0.0
H1146 H 0.34247 0.53399 0.30553 0.0
H1147 H 0.29495 0.52211 0.33422 0.0
H1148 H 0.34542 0.51151 0.35588 0.0
H1149 H 0.30432 0.64081 0.44091 0.0
H1150 H 0.26226 0.63876 0.40559 0.0
H1151 H 0.30476 0.67651 0.39881 0.0
loop_
_geom_bond_atom_site_label_1
_geom_bond_atom_site_label_2
_geom_bond_distance
_geom_bond_site_symmetry_2
_ccdc_geom_bond_type
O0 Cd1 2.300 . S
O0 C7 1.275 . S
Cd1 O0 2.300 . S
Cd1 O9 2.381 . S
Cd1 O10 2.378 . S
O2 Cd3 2.385 1_455 S
O2 C7 1.255 . S
Cd3 O2 2.385 1_655 S
Cd3 O4 2.317 . S
O4 Cd3 2.317 . S
O4 C5 1.232 . S
C5 O4 1.232 . S
C5 O6 1.218 . S
O6 C5 1.218 . S
C7 O0 1.275 . S
C7 O2 1.255 . S
C8 O9 1.258 . S
C8 O10 1.256 . S
O9 Cd1 2.381 . S
O9 C8 1.258 . S
O10 Cd1 2.378 . S
O10 C8 1.256 . S
O11 Cd12 2.300 . S
O11 C18 1.275 . S
Cd12 O11 2.300 . S
Cd12 O20 2.381 . S
Cd12 O21 2.378 . S
O13 Cd14 2.385 . S
O13 C18 1.255 . S
Cd14 O13 2.385 . S
Cd14 O15 2.317 . S
O15 Cd14 2.317 . S
O15 C16 1.232 . S
C16 O15 1.232 . S
C16 O17 1.218 . S
O17 C16 1.218 . S
C18 O11 1.275 . S
C18 O13 1.255 . S
C19 O20 1.258 . S
C19 O21 1.256 . S
O20 Cd12 2.381 . S
O20 C19 1.258 . S
O21 Cd12 2.378 . S
O21 C19 1.256 . S
O22 Cd23 2.300 . S
O22 C29 1.275 . S
Cd23 O22 2.300 . S
Cd23 O31 2.381 . S
Cd23 O32 2.378 . S
O24 Cd25 2.385 . S
O24 C29 1.255 . S
Cd25 O24 2.385 . S
Cd25 O26 2.317 . S
O26 Cd25 2.317 . S
O26 C27 1.232 . S
C27 O26 1.232 . S
C27 O28 1.218 . S
O28 C27 1.218 . S
C29 O22 1.275 . S
C29 O24 1.255 . S
C30 O31 1.258 . S
C30 O32 1.256 . S
O31 Cd23 2.381 . S
O31 C30 1.258 . S
O32 Cd23 2.378 . S
O32 C30 1.256 . S
O33 Cd34 2.300 . S
O33 C40 1.275 . S
Cd34 O33 2.300 . S
Cd34 O42 2.381 . S
Cd34 O43 2.378 . S
O35 Cd36 2.385 1_554 S
O35 C40 1.255 . S
Cd36 O35 2.385 1_556 S
Cd36 O37 2.317 . S
O37 Cd36 2.317 . S
O37 C38 1.232 . S
C38 O37 1.232 . S
C38 O39 1.218 . S
O39 C38 1.218 . S
C40 O33 1.275 . S
C40 O35 1.255 . S
C41 O42 1.258 . S
C41 O43 1.256 . S
O42 Cd34 2.381 . S
O42 C41 1.258 . S
O43 Cd34 2.378 . S
O43 C41 1.256 . S
O44 Cd45 2.300 . S
O44 C51 1.275 . S
Cd45 O44 2.300 . S
Cd45 O53 2.381 . S
Cd45 O54 2.378 . S
O46 Cd47 2.385 1_455 S
O46 C51 1.255 . S
Cd47 O46 2.385 1_655 S
Cd47 O48 2.317 . S
O48 Cd47 2.317 . S
O48 C49 1.232 . S
C49 O48 1.232 . S
C49 O50 1.218 . S
O50 C49 1.218 . S
C51 O44 1.275 . S
C51 O46 1.255 . S
C52 O53 1.258 . S
C52 O54 1.256 . S
O53 Cd45 2.381 . S
O53 C52 1.258 . S
O54 Cd45 2.378 . S
O54 C52 1.256 . S
O55 Cd56 2.300 . S
O55 C62 1.275 . S
Cd56 O55 2.300 . S
Cd56 O64 2.381 . S
Cd56 O65 2.378 . S
O57 Cd58 2.385 . S
O57 C62 1.255 . S
Cd58 O57 2.385 . S
Cd58 O59 2.317 . S
O59 Cd58 2.317 . S
O59 C60 1.232 . S
C60 O59 1.232 . S
C60 O61 1.218 . S
O61 C60 1.218 . S
C62 O55 1.275 . S
C62 O57 1.255 . S
C63 O64 1.258 . S
C63 O65 1.256 . S
O64 Cd56 2.381 . S
O64 C63 1.258 . S
O65 Cd56 2.378 . S
O65 C63 1.256 . S
O66 Cd67 2.300 . S
O66 C73 1.275 . S
Cd67 O66 2.300 . S
Cd67 O75 2.381 . S
Cd67 O76 2.378 . S
O68 Cd69 2.385 . S
O68 C73 1.255 . S
Cd69 O68 2.385 . S
Cd69 O70 2.317 . S
O70 Cd69 2.317 . S
O70 C71 1.232 . S
C71 O70 1.232 . S
C71 O72 1.218 . S
O72 C71 1.218 . S
C73 O66 1.275 . S
C73 O68 1.255 . S
C74 O75 1.258 . S
C74 O76 1.256 . S
O75 Cd67 2.381 . S
O75 C74 1.258 . S
O76 Cd67 2.378 . S
O76 C74 1.256 . S
O77 Cd78 2.300 . S
O77 C84 1.275 . S
Cd78 O77 2.300 . S
Cd78 O86 2.381 . S
Cd78 O87 2.378 . S
O79 Cd80 2.385 . S
O79 C84 1.255 . S
Cd80 O79 2.385 . S
Cd80 O81 2.317 1_556 S
O81 Cd80 2.317 1_554 S
O81 C82 1.232 . S
C82 O81 1.232 . S
C82 O83 1.218 . S
O83 C82 1.218 . S
C84 O77 1.275 . S
C84 O79 1.255 . S
C85 O86 1.258 . S
C85 O87 1.256 . S
O86 Cd78 2.381 . S
O86 C85 1.258 . S
O87 Cd78 2.378 . S
O87 C85 1.256 . S
O88 Cd89 2.300 . S
O88 C95 1.275 . S
Cd89 O88 2.300 . S
Cd89 O97 2.381 1_545 S
Cd89 O98 2.378 1_545 S
O90 Cd91 2.385 . S
O90 C95 1.255 . S
Cd91 O90 2.385 . S
Cd91 O92 2.317 . S
O92 Cd91 2.317 . S
O92 C93 1.232 . S
C93 O92 1.232 . S
C93 O94 1.218 . S
O94 C93 1.218 . S
C95 O88 1.275 . S
C95 O90 1.255 . S
C96 O97 1.258 . S
C96 O98 1.256 . S
O97 Cd89 2.381 1_565 S
O97 C96 1.258 . S
O98 Cd89 2.378 1_565 S
O98 C96 1.256 . S
O99 Cd100 2.300 1_545 S
O99 C106 1.275 . S
Cd100 O99 2.300 1_565 S
Cd100 O108 2.381 . S
Cd100 O109 2.378 . S
O101 Cd102 2.385 . S
O101 C106 1.255 . S
Cd102 O101 2.385 . S
Cd102 O103 2.317 . S
O103 Cd102 2.317 . S
O103 C104 1.232 . S
C104 O103 1.232 . S
C104 O105 1.218 . S
O105 C104 1.218 . S
C106 O99 1.275 . S
C106 O101 1.255 . S
C107 O108 1.258 . S
C107 O109 1.256 . S
O108 Cd100 2.381 . S
O108 C107 1.258 . S
O109 Cd100 2.378 . S
O109 C107 1.256 . S
O110 Cd111 2.300 . S
O110 C117 1.275 . S
Cd111 O110 2.300 . S
Cd111 O119 2.381 . S
Cd111 O120 2.378 . S
O112 Cd113 2.385 1_565 S
O112 C117 1.255 . S
Cd113 O112 2.385 1_545 S
Cd113 O114 2.317 . S
O114 Cd113 2.317 . S
O114 C115 1.232 . S
C115 O114 1.232 . S
C115 O116 1.218 . S
O116 C115 1.218 . S
C117 O110 1.275 . S
C117 O112 1.255 . S
C118 O119 1.258 . S
C118 O120 1.256 . S
O119 Cd111 2.381 . S
O119 C118 1.258 . S
O120 Cd111 2.378 . S
O120 C118 1.256 . S
O121 Cd122 2.300 1_565 S
O121 C128 1.275 . S
Cd122 O121 2.300 1_545 S
Cd122 O130 2.381 . S
Cd122 O131 2.378 . S
O123 Cd124 2.385 . S
O123 C128 1.255 . S
Cd124 O123 2.385 . S
Cd124 O125 2.317 . S
O125 Cd124 2.317 . S
O125 C126 1.232 . S
C126 O125 1.232 . S
C126 O127 1.218 . S
O127 C126 1.218 . S
C128 O121 1.275 . S
C128 O123 1.255 . S
C129 O130 1.258 . S
C129 O131 1.256 . S
O130 Cd122 2.381 . S
O130 C129 1.258 . S
O131 Cd122 2.378 . S
O131 C129 1.256 . S
O132 Cd133 2.300 . S
O132 C139 1.275 . S
Cd133 O132 2.300 . S
Cd133 O141 2.381 1_554 S
Cd133 O142 2.378 1_554 S
O134 Cd135 2.385 . S
O134 C139 1.255 . S
Cd135 O134 2.385 . S
Cd135 O136 2.317 . S
O136 Cd135 2.317 . S
O136 C137 1.232 . S
C137 O136 1.232 . S
C137 O138 1.218 . S
O138 C137 1.218 . S
C139 O132 1.275 . S
C139 O134 1.255 . S
C140 O141 1.258 . S
C140 O142 1.256 . S
O141 Cd133 2.381 1_556 S
O141 C140 1.258 . S
O142 Cd133 2.378 1_556 S
O142 C140 1.256 . S
O143 Cd144 2.300 . S
O143 C150 1.275 . S
Cd144 O143 2.300 . S
Cd144 O152 2.381 . S
Cd144 O153 2.378 . S
O145 Cd146 2.385 . S
O145 C150 1.255 . S
Cd146 O145 2.385 . S
Cd146 O147 2.317 1_655 S
O147 Cd146 2.317 1_455 S
O147 C148 1.232 . S
C148 O147 1.232 . S
C148 O149 1.218 . S
O149 C148 1.218 . S
C150 O143 1.275 . S
C150 O145 1.255 . S
C151 O152 1.258 . S
C151 O153 1.256 . S
O152 Cd144 2.381 . S
O152 C151 1.258 . S
O153 Cd144 2.378 . S
O153 C151 1.256 . S
O154 Cd155 2.300 . S
O154 C161 1.275 . S
Cd155 O154 2.300 . S
Cd155 O163 2.381 . S
Cd155 O164 2.378 . S
O156 Cd157 2.385 . S
O156 C161 1.255 . S
Cd157 O156 2.385 . S
Cd157 O158 2.317 . S
O158 Cd157 2.317 . S
O158 C159 1.232 . S
C159 O158 1.232 . S
C159 O160 1.218 . S
O160 C159 1.218 . S
C161 O154 1.275 . S
C161 O156 1.255 . S
C162 O163 1.258 . S
C162 O164 1.256 . S
O163 Cd155 2.381 . S
O163 C162 1.258 . S
O164 Cd155 2.378 . S
O164 C162 1.256 . S
O165 Cd166 2.300 . S
O165 C172 1.275 . S
Cd166 O165 2.300 . S
Cd166 O174 2.381 1_655 S
Cd166 O175 2.378 1_655 S
O167 Cd168 2.385 . S
O167 C172 1.255 . S
Cd168 O167 2.385 . S
Cd168 O169 2.317 . S
O169 Cd168 2.317 . S
O169 C170 1.232 . S
C170 O169 1.232 . S
C170 O171 1.218 . S
O171 C170 1.218 . S
C172 O165 1.275 . S
C172 O167 1.255 . S
C173 O174 1.258 . S
C173 O175 1.256 . S
O174 Cd166 2.381 1_455 S
O174 C173 1.258 . S
O175 Cd166 2.378 1_455 S
O175 C173 1.256 . S
O176 Cd177 2.300 . S
O176 C183 1.275 . S
Cd177 O176 2.300 . S
Cd177 O185 2.381 . S
Cd177 O186 2.378 . S
O178 Cd179 2.385 . S
O178 C183 1.255 . S
Cd179 O178 2.385 . S
Cd179 O180 2.317 . S
O180 Cd179 2.317 . S
O180 C181 1.232 . S
C181 O180 1.232 . S
C181 O182 1.218 . S
O182 C181 1.218 . S
C183 O176 1.275 . S
C183 O178 1.255 . S
C184 O185 1.258 . S
C184 O186 1.256 . S
O185 Cd177 2.381 . S
O185 C184 1.258 . S
O186 Cd177 2.378 . S
O186 C184 1.256 . S
O187 Cd188 2.300 . S
O187 C194 1.275 . S
Cd188 O187 2.300 . S
Cd188 O196 2.381 . S
Cd188 O197 2.378 . S
O189 Cd190 2.385 . S
O189 C194 1.255 . S
Cd190 O189 2.385 . S
Cd190 O191 2.317 . S
O191 Cd190 2.317 . S
O191 C192 1.232 . S
C192 O191 1.232 . S
C192 O193 1.218 . S
O193 C192 1.218 . S
C194 O187 1.275 . S
C194 O189 1.255 . S
C195 O196 1.258 . S
C195 O197 1.256 . S
O196 Cd188 2.381 . S
O196 C195 1.258 . S
O197 Cd188 2.378 . S
O197 C195 1.256 . S
O198 Cd199 2.300 . S
O198 C205 1.275 . S
Cd199 O198 2.300 . S
Cd199 O207 2.381 . S
Cd199 O208 2.378 . S
O200 Cd201 2.385 . S
O200 C205 1.255 . S
Cd201 O200 2.385 . S
Cd201 O202 2.317 1_556 S
O202 Cd201 2.317 1_554 S
O202 C203 1.232 . S
C203 O202 1.232 . S
C203 O204 1.218 . S
O204 C203 1.218 . S
C205 O198 1.275 . S
C205 O200 1.255 . S
C206 O207 1.258 . S
C206 O208 1.256 . S
O207 Cd199 2.381 . S
O207 C206 1.258 . S
O208 Cd199 2.378 . S
O208 C206 1.256 . S
O209 Cd210 2.300 . S
O209 C216 1.275 . S
Cd210 O209 2.300 . S
Cd210 O218 2.381 . S
Cd210 O219 2.378 . S
O211 Cd212 2.385 . S
O211 C216 1.255 . S
Cd212 O211 2.385 . S
Cd212 O213 2.317 1_655 S
O213 Cd212 2.317 1_455 S
O213 C214 1.232 . S
C214 O213 1.232 . S
C214 O215 1.218 . S
O215 C214 1.218 . S
C216 O209 1.275 . S
C216 O211 1.255 . S
C217 O218 1.258 . S
C217 O219 1.256 . S
O218 Cd210 2.381 . S
O218 C217 1.258 . S
O219 Cd210 2.378 . S
O219 C217 1.256 . S
O220 Cd221 2.300 . S
O220 C227 1.275 . S
Cd221 O220 2.300 . S
Cd221 O229 2.381 . S
Cd221 O230 2.378 . S
O222 Cd223 2.385 . S
O222 C227 1.255 . S
Cd223 O222 2.385 . S
Cd223 O224 2.317 . S
O224 Cd223 2.317 . S
O224 C225 1.232 . S
C225 O224 1.232 . S
C225 O226 1.218 . S
O226 C225 1.218 . S
C227 O220 1.275 . S
C227 O222 1.255 . S
C228 O229 1.258 . S
C228 O230 1.256 . S
O229 Cd221 2.381 . S
O229 C228 1.258 . S
O230 Cd221 2.378 . S
O230 C228 1.256 . S
O231 Cd232 2.300 . S
O231 C238 1.275 . S
Cd232 O231 2.300 . S
Cd232 O240 2.381 . S
Cd232 O241 2.378 . S
O233 Cd234 2.385 . S
O233 C238 1.255 . S
Cd234 O233 2.385 . S
Cd234 O235 2.317 . S
O235 Cd234 2.317 . S
O235 C236 1.232 . S
C236 O235 1.232 . S
C236 O237 1.218 . S
O237 C236 1.218 . S
C238 O231 1.275 . S
C238 O233 1.255 . S
C239 O240 1.258 . S
C239 O241 1.256 . S
O240 Cd232 2.381 . S
O240 C239 1.258 . S
O241 Cd232 2.378 . S
O241 C239 1.256 . S
O242 Cd243 2.300 . S
O242 C249 1.275 . S
Cd243 O242 2.300 . S
Cd243 O251 2.381 . S
Cd243 O252 2.378 . S
O244 Cd245 2.385 . S
O244 C249 1.255 . S
Cd245 O244 2.385 . S
Cd245 O246 2.317 1_554 S
O246 Cd245 2.317 1_556 S
O246 C247 1.232 . S
C247 O246 1.232 . S
C247 O248 1.218 . S
O248 C247 1.218 . S
C249 O242 1.275 . S
C249 O244 1.255 . S
C250 O251 1.258 . S
C250 O252 1.256 . S
O251 Cd243 2.381 . S
O251 C250 1.258 . S
O252 Cd243 2.378 . S
O252 C250 1.256 . S
O253 Cd254 2.300 1_565 S
O253 C260 1.275 . S
Cd254 O253 2.300 1_545 S
Cd254 O262 2.381 . S
Cd254 O263 2.378 . S
O255 Cd256 2.385 . S
O255 C260 1.255 . S
Cd256 O255 2.385 . S
Cd256 O257 2.317 . S
O257 Cd256 2.317 . S
O257 C258 1.232 . S
C258 O257 1.232 . S
C258 O259 1.218 . S
O259 C258 1.218 . S
C260 O253 1.275 . S
C260 O255 1.255 . S
C261 O262 1.258 . S
C261 O263 1.256 . S
O262 Cd254 2.381 . S
O262 C261 1.258 . S
O263 Cd254 2.378 . S
O263 C261 1.256 . S
O264 Cd265 2.300 1_565 S
O264 C271 1.275 . S
Cd265 O264 2.300 1_545 S
Cd265 O273 2.381 . S
Cd265 O274 2.378 . S
O266 Cd267 2.385 . S
O266 C271 1.255 . S
Cd267 O266 2.385 . S
Cd267 O268 2.317 . S
O268 Cd267 2.317 . S
O268 C269 1.232 . S
C269 O268 1.232 . S
C269 O270 1.218 . S
O270 C269 1.218 . S
C271 O264 1.275 . S
C271 O266 1.255 . S
C272 O273 1.258 . S
C272 O274 1.256 . S
O273 Cd265 2.381 . S
O273 C272 1.258 . S
O274 Cd265 2.378 . S
O274 C272 1.256 . S
O275 Cd276 2.300 1_545 S
O275 C282 1.275 . S
Cd276 O275 2.300 1_565 S
Cd276 O284 2.381 . S
Cd276 O285 2.378 . S
O277 Cd278 2.385 . S
O277 C282 1.255 . S
Cd278 O277 2.385 . S
Cd278 O279 2.317 . S
O279 Cd278 2.317 . S
O279 C280 1.232 . S
C280 O279 1.232 . S
C280 O281 1.218 . S
O281 C280 1.218 . S
C282 O275 1.275 . S
C282 O277 1.255 . S
C283 O284 1.258 . S
C283 O285 1.256 . S
O284 Cd276 2.381 . S
O284 C283 1.258 . S
O285 Cd276 2.378 . S
O285 C283 1.256 . S
O286 Cd287 2.300 1_545 S
O286 C293 1.275 . S
Cd287 O286 2.300 1_565 S
Cd287 O295 2.381 . S
Cd287 O296 2.378 . S
O288 Cd289 2.385 . S
O288 C293 1.255 . S
Cd289 O288 2.385 . S
Cd289 O290 2.317 . S
O290 Cd289 2.317 . S
O290 C291 1.232 . S
C291 O290 1.232 . S
C291 O292 1.218 . S
O292 C291 1.218 . S
C293 O286 1.275 . S
C293 O288 1.255 . S
C294 O295 1.258 . S
C294 O296 1.256 . S
O295 Cd287 2.381 . S
O295 C294 1.258 . S
O296 Cd287 2.378 . S
O296 C294 1.256 . S
O297 Cd298 2.300 1_556 S
O297 C304 1.275 . S
Cd298 O297 2.300 1_554 S
Cd298 O306 2.381 . S
Cd298 O307 2.378 . S
O299 Cd300 2.385 . S
O299 C304 1.255 . S
Cd300 O299 2.385 . S
Cd300 O301 2.317 . S
O301 Cd300 2.317 . S
O301 C302 1.232 . S
C302 O301 1.232 . S
C302 O303 1.218 . S
O303 C302 1.218 . S
C304 O297 1.275 . S
C304 O299 1.255 . S
C305 O306 1.258 . S
C305 O307 1.256 . S
O306 Cd298 2.381 . S
O306 C305 1.258 . S
O307 Cd298 2.378 . S
O307 C305 1.256 . S
O308 Cd309 2.300 . S
O308 C315 1.275 . S
Cd309 O308 2.300 . S
Cd309 O317 2.381 . S
Cd309 O318 2.378 . S
O310 Cd311 2.385 1_455 S
O310 C315 1.255 . S
Cd311 O310 2.385 1_655 S
Cd311 O312 2.317 . S
O312 Cd311 2.317 . S
O312 C313 1.232 . S
C313 O312 1.232 . S
C313 O314 1.218 . S
O314 C313 1.218 . S
C315 O308 1.275 . S
C315 O310 1.255 . S
C316 O317 1.258 . S
C316 O318 1.256 . S
O317 Cd309 2.381 . S
O317 C316 1.258 . S
O318 Cd309 2.378 . S
O318 C316 1.256 . S
O319 Cd320 2.300 . S
O319 C326 1.275 . S
Cd320 O319 2.300 . S
Cd320 O328 2.381 . S
Cd320 O329 2.378 . S
O321 Cd322 2.385 . S
O321 C326 1.255 . S
Cd322 O321 2.385 . S
Cd322 O323 2.317 . S
O323 Cd322 2.317 . S
O323 C324 1.232 . S
C324 O323 1.232 . S
C324 O325 1.218 . S
O325 C324 1.218 . S
C326 O319 1.275 . S
C326 O321 1.255 . S
C327 O328 1.258 . S
C327 O329 1.256 . S
O328 Cd320 2.381 . S
O328 C327 1.258 . S
O329 Cd320 2.378 . S
O329 C327 1.256 . S
O330 Cd331 2.300 . S
O330 C337 1.275 . S
Cd331 O330 2.300 . S
Cd331 O339 2.381 . S
Cd331 O340 2.378 . S
O332 Cd333 2.385 . S
O332 C337 1.255 . S
Cd333 O332 2.385 . S
Cd333 O334 2.317 . S
O334 Cd333 2.317 . S
O334 C335 1.232 . S
C335 O334 1.232 . S
C335 O336 1.218 . S
O336 C335 1.218 . S
C337 O330 1.275 . S
C337 O332 1.255 . S
C338 O339 1.258 . S
C338 O340 1.256 . S
O339 Cd331 2.381 . S
O339 C338 1.258 . S
O340 Cd331 2.378 . S
O340 C338 1.256 . S
O341 Cd342 2.300 . S
O341 C348 1.275 . S
Cd342 O341 2.300 . S
Cd342 O350 2.381 1_655 S
Cd342 O351 2.378 1_655 S
O343 Cd344 2.385 . S
O343 C348 1.255 . S
Cd344 O343 2.385 . S
Cd344 O345 2.317 . S
O345 Cd344 2.317 . S
O345 C346 1.232 . S
C346 O345 1.232 . S
C346 O347 1.218 . S
O347 C346 1.218 . S
C348 O341 1.275 . S
C348 O343 1.255 . S
C349 O350 1.258 . S
C349 O351 1.256 . S
O350 Cd342 2.381 1_455 S
O350 C349 1.258 . S
O351 Cd342 2.378 1_455 S
O351 C349 1.256 . S
O352 Cd353 2.300 . S
O352 C359 1.275 . S
Cd353 O352 2.300 . S
Cd353 O361 2.381 . S
Cd353 O362 2.378 . S
O354 Cd355 2.385 . S
O354 C359 1.255 . S
Cd355 O354 2.385 . S
Cd355 O356 2.317 . S
O356 Cd355 2.317 . S
O356 C357 1.232 . S
C357 O356 1.232 . S
C357 O358 1.218 . S
O358 C357 1.218 . S
C359 O352 1.275 . S
C359 O354 1.255 . S
C360 O361 1.258 . S
C360 O362 1.256 . S
O361 Cd353 2.381 . S
O361 C360 1.258 . S
O362 Cd353 2.378 . S
O362 C360 1.256 . S
O363 Cd364 2.300 . S
O363 C370 1.275 . S
Cd364 O363 2.300 . S
Cd364 O372 2.381 . S
Cd364 O373 2.378 . S
O365 Cd366 2.385 . S
O365 C370 1.255 . S
Cd366 O365 2.385 . S
Cd366 O367 2.317 1_556 S
O367 Cd366 2.317 1_554 S
O367 C368 1.232 . S
C368 O367 1.232 . S
C368 O369 1.218 . S
O369 C368 1.218 . S
C370 O363 1.275 . S
C370 O365 1.255 . S
C371 O372 1.258 . S
C371 O373 1.256 . S
O372 Cd364 2.381 . S
O372 C371 1.258 . S
O373 Cd364 2.378 . S
O373 C371 1.256 . S
O374 Cd375 2.300 . S
O374 C381 1.275 . S
Cd375 O374 2.300 . S
Cd375 O383 2.381 . S
Cd375 O384 2.378 . S
O376 Cd377 2.385 . S
O376 C381 1.255 . S
Cd377 O376 2.385 . S
Cd377 O378 2.317 . S
O378 Cd377 2.317 . S
O378 C379 1.232 . S
C379 O378 1.232 . S
C379 O380 1.218 . S
O380 C379 1.218 . S
C381 O374 1.275 . S
C381 O376 1.255 . S
C382 O383 1.258 . S
C382 O384 1.256 . S
O383 Cd375 2.381 . S
O383 C382 1.258 . S
O384 Cd375 2.378 . S
O384 C382 1.256 . S
O385 Cd386 2.300 . S
O385 C392 1.275 . S
Cd386 O385 2.300 . S
Cd386 O394 2.381 . S
Cd386 O395 2.378 . S
O387 Cd388 2.385 . S
O387 C392 1.255 . S
Cd388 O387 2.385 . S
Cd388 O389 2.317 . S
O389 Cd388 2.317 . S
O389 C390 1.232 . S
C390 O389 1.232 . S
C390 O391 1.218 . S
O391 C390 1.218 . S
C392 O385 1.275 . S
C392 O387 1.255 . S
C393 O394 1.258 . S
C393 O395 1.256 . S
O394 Cd386 2.381 . S
O394 C393 1.258 . S
O395 Cd386 2.378 . S
O395 C393 1.256 . S
O396 Cd397 2.300 . S
O396 C403 1.275 . S
Cd397 O396 2.300 . S
Cd397 O405 2.381 . S
Cd397 O406 2.378 . S
O398 Cd399 2.385 . S
O398 C403 1.255 . S
Cd399 O398 2.385 . S
Cd399 O400 2.317 . S
O400 Cd399 2.317 . S
O400 C401 1.232 . S
C401 O400 1.232 . S
C401 O402 1.218 . S
O402 C401 1.218 . S
C403 O396 1.275 . S
C403 O398 1.255 . S
C404 O405 1.258 . S
C404 O406 1.256 . S
O405 Cd397 2.381 . S
O405 C404 1.258 . S
O406 Cd397 2.378 . S
O406 C404 1.256 . S
O407 Cd408 2.300 . S
O407 C414 1.275 . S
Cd408 O407 2.300 . S
Cd408 O416 2.381 . S
Cd408 O417 2.378 . S
O409 Cd410 2.385 . S
O409 C414 1.255 . S
Cd410 O409 2.385 . S
Cd410 O411 2.317 . S
O411 Cd410 2.317 . S
O411 C412 1.232 . S
C412 O411 1.232 . S
C412 O413 1.218 . S
O413 C412 1.218 . S
C414 O407 1.275 . S
C414 O409 1.255 . S
C415 O416 1.258 . S
C415 O417 1.256 . S
O416 Cd408 2.381 . S
O416 C415 1.258 . S
O417 Cd408 2.378 . S
O417 C415 1.256 . S
O418 Cd419 2.300 . S
O418 C425 1.275 . S
Cd419 O418 2.300 . S
Cd419 O427 2.381 . S
Cd419 O428 2.378 . S
O420 Cd421 2.385 . S
O420 C425 1.255 . S
Cd421 O420 2.385 . S
Cd421 O422 2.317 . S
O422 Cd421 2.317 . S
O422 C423 1.232 . S
C423 O422 1.232 . S
C423 O424 1.218 . S
O424 C423 1.218 . S
C425 O418 1.275 . S
C425 O420 1.255 . S
C426 O427 1.258 . S
C426 O428 1.256 . S
O427 Cd419 2.381 . S
O427 C426 1.258 . S
O428 Cd419 2.378 . S
O428 C426 1.256 . S
O429 Cd430 2.300 . S
O429 C436 1.275 . S
Cd430 O429 2.300 . S
Cd430 O438 2.381 . S
Cd430 O439 2.378 . S
O431 Cd432 2.385 . S
O431 C436 1.255 . S
Cd432 O431 2.385 . S
Cd432 O433 2.317 . S
O433 Cd432 2.317 . S
O433 C434 1.232 . S
C434 O433 1.232 . S
C434 O435 1.218 . S
O435 C434 1.218 . S
C436 O429 1.275 . S
C436 O431 1.255 . S
C437 O438 1.258 . S
C437 O439 1.256 . S
O438 Cd430 2.381 . S
O438 C437 1.258 . S
O439 Cd430 2.378 . S
O439 C437 1.256 . S
O440 Cd441 2.300 . S
O440 C447 1.275 . S
Cd441 O440 2.300 . S
Cd441 O449 2.381 . S
Cd441 O450 2.378 . S
O442 Cd443 2.385 . S
O442 C447 1.255 . S
Cd443 O442 2.385 . S
Cd443 O444 2.317 1_455 S
O444 Cd443 2.317 1_655 S
O444 C445 1.232 . S
C445 O444 1.232 . S
C445 O446 1.218 . S
O446 C445 1.218 . S
C447 O440 1.275 . S
C447 O442 1.255 . S
C448 O449 1.258 . S
C448 O450 1.256 . S
O449 Cd441 2.381 . S
O449 C448 1.258 . S
O450 Cd441 2.378 . S
O450 C448 1.256 . S
O451 Cd452 2.300 . S
O451 C458 1.275 . S
Cd452 O451 2.300 . S
Cd452 O460 2.381 . S
Cd452 O461 2.378 . S
O453 Cd454 2.385 . S
O453 C458 1.255 . S
Cd454 O453 2.385 . S
Cd454 O455 2.317 . S
O455 Cd454 2.317 . S
O455 C456 1.232 . S
C456 O455 1.232 . S
C456 O457 1.218 . S
O457 C456 1.218 . S
C458 O451 1.275 . S
C458 O453 1.255 . S
C459 O460 1.258 . S
C459 O461 1.256 . S
O460 Cd452 2.381 . S
O460 C459 1.258 . S
O461 Cd452 2.378 . S
O461 C459 1.256 . S
O462 Cd463 2.300 . S
O462 C469 1.275 . S
Cd463 O462 2.300 . S
Cd463 O471 2.381 . S
Cd463 O472 2.378 . S
O464 Cd465 2.385 1_654 S
O464 C469 1.255 . S
Cd465 O464 2.385 1_456 S
Cd465 O466 2.317 1_455 S
O466 Cd465 2.317 1_655 S
O466 C467 1.232 . S
C467 O466 1.232 . S
C467 O468 1.218 . S
O468 C467 1.218 . S
C469 O462 1.275 . S
C469 O464 1.255 . S
C470 O471 1.258 . S
C470 O472 1.256 . S
O471 Cd463 2.381 . S
O471 C470 1.258 . S
O472 Cd463 2.378 . S
O472 C470 1.256 . S
O473 Cd474 2.300 . S
O473 C480 1.275 . S
Cd474 O473 2.300 . S
Cd474 O482 2.381 . S
Cd474 O483 2.378 . S
O475 Cd476 2.385 . S
O475 C480 1.255 . S
Cd476 O475 2.385 . S
Cd476 O477 2.317 . S
O477 Cd476 2.317 . S
O477 C478 1.232 . S
C478 O477 1.232 . S
C478 O479 1.218 . S
O479 C478 1.218 . S
C480 O473 1.275 . S
C480 O475 1.255 . S
C481 O482 1.258 . S
C481 O483 1.256 . S
O482 Cd474 2.381 . S
O482 C481 1.258 . S
O483 Cd474 2.378 . S
O483 C481 1.256 . S
O484 Cd485 2.300 . S
O484 C491 1.275 . S
Cd485 O484 2.300 . S
Cd485 O493 2.381 . S
Cd485 O494 2.378 . S
O486 Cd487 2.385 . S
O486 C491 1.255 . S
Cd487 O486 2.385 . S
Cd487 O488 2.317 . S
O488 Cd487 2.317 . S
O488 C489 1.232 . S
C489 O488 1.232 . S
C489 O490 1.218 . S
O490 C489 1.218 . S
C491 O484 1.275 . S
C491 O486 1.255 . S
C492 O493 1.258 . S
C492 O494 1.256 . S
O493 Cd485 2.381 . S
O493 C492 1.258 . S
O494 Cd485 2.378 . S
O494 C492 1.256 . S
O495 Cd496 2.300 . S
O495 C502 1.275 . S
Cd496 O495 2.300 . S
Cd496 O504 2.381 . S
Cd496 O505 2.378 . S
O497 Cd498 2.385 . S
O497 C502 1.255 . S
Cd498 O497 2.385 . S
Cd498 O499 2.317 . S
O499 Cd498 2.317 . S
O499 C500 1.232 . S
C500 O499 1.232 . S
C500 O501 1.218 . S
O501 C500 1.218 . S
C502 O495 1.275 . S
C502 O497 1.255 . S
C503 O504 1.258 . S
C503 O505 1.256 . S
O504 Cd496 2.381 . S
O504 C503 1.258 . S
O505 Cd496 2.378 . S
O505 C503 1.256 . S
O506 Cd507 2.300 . S
O506 C513 1.275 . S
Cd507 O506 2.300 . S
Cd507 O515 2.381 . S
Cd507 O516 2.378 . S
O508 Cd509 2.385 . S
O508 C513 1.255 . S
Cd509 O508 2.385 . S
Cd509 O510 2.317 . S
O510 Cd509 2.317 . S
O510 C511 1.232 . S
C511 O510 1.232 . S
C511 O512 1.218 . S
O512 C511 1.218 . S
C513 O506 1.275 . S
C513 O508 1.255 . S
C514 O515 1.258 . S
C514 O516 1.256 . S
O515 Cd507 2.381 . S
O515 C514 1.258 . S
O516 Cd507 2.378 . S
O516 C514 1.256 . S
O517 Cd518 2.300 . S
O517 C524 1.275 . S
Cd518 O517 2.300 . S
Cd518 O526 2.381 . S
Cd518 O527 2.378 . S
O519 Cd520 2.385 . S
O519 C524 1.255 . S
Cd520 O519 2.385 . S
Cd520 O521 2.317 . S
O521 Cd520 2.317 . S
O521 C522 1.232 . S
C522 O521 1.232 . S
C522 O523 1.218 . S
O523 C522 1.218 . S
C524 O517 1.275 . S
C524 O519 1.255 . S
C525 O526 1.258 . S
C525 O527 1.256 . S
O526 Cd518 2.381 . S
O526 C525 1.258 . S
O527 Cd518 2.378 . S
O527 C525 1.256 . S
C528 N529 1.317 . S
C528 N530 1.348 . S
C528 C531 1.485 . S
N529 C528 1.317 . S
N529 N533 1.370 . S
N530 C528 1.348 . S
N530 C532 1.346 . S
C531 C528 1.485 . S
C531 H535 0.960 . S
C531 H536 0.961 . S
C531 H537 0.960 . S
C532 N530 1.346 . S
C532 N533 1.307 . S
C532 C534 1.486 . S
N533 N529 1.370 . S
N533 C532 1.307 . S
C534 C532 1.486 . S
C534 H538 0.960 . S
C534 H539 0.960 . S
C534 H540 0.959 . S
H535 C531 0.960 . S
H536 C531 0.961 . S
H537 C531 0.960 . S
H538 C534 0.960 . S
H539 C534 0.960 . S
H540 C534 0.959 . S
C541 N542 1.317 . S
C541 N543 1.348 . S
C541 C544 1.485 . S
N542 C541 1.317 . S
N542 N546 1.370 . S
N543 C541 1.348 . S
N543 C545 1.346 . S
C544 C541 1.485 . S
C544 H548 0.960 . S
C544 H549 0.961 . S
C544 H550 0.960 . S
C545 N543 1.346 . S
C545 N546 1.307 . S
C545 C547 1.486 . S
N546 N542 1.370 . S
N546 C545 1.307 . S
C547 C545 1.486 . S
C547 H551 0.960 . S
C547 H552 0.960 . S
C547 H553 0.959 . S
H548 C544 0.960 . S
H549 C544 0.961 . S
H550 C544 0.960 . S
H551 C547 0.960 . S
H552 C547 0.960 . S
H553 C547 0.959 . S
C554 N555 1.317 . S
C554 N556 1.348 . S
C554 C557 1.485 . S
N555 C554 1.317 . S
N555 N559 1.370 . S
N556 C554 1.348 . S
N556 C558 1.346 . S
C557 C554 1.485 . S
C557 H561 0.960 . S
C557 H562 0.961 . S
C557 H563 0.960 . S
C558 N556 1.346 . S
C558 N559 1.307 . S
C558 C560 1.486 . S
N559 N555 1.370 . S
N559 C558 1.307 . S
C560 C558 1.486 . S
C560 H564 0.960 . S
C560 H565 0.960 . S
C560 H566 0.959 . S
H561 C557 0.960 . S
H562 C557 0.961 . S
H563 C557 0.960 . S
H564 C560 0.960 . S
H565 C560 0.960 . S
H566 C560 0.959 . S
C567 N568 1.317 . S
C567 N569 1.348 . S
C567 C570 1.485 . S
N568 C567 1.317 . S
N568 N572 1.370 . S
N569 C567 1.348 . S
N569 C571 1.346 . S
C570 C567 1.485 . S
C570 H574 0.960 . S
C570 H575 0.961 . S
C570 H576 0.960 . S
C571 N569 1.346 . S
C571 N572 1.307 . S
C571 C573 1.486 . S
N572 N568 1.370 . S
N572 C571 1.307 . S
C573 C571 1.486 . S
C573 H577 0.960 . S
C573 H578 0.960 . S
C573 H579 0.959 . S
H574 C570 0.960 . S
H575 C570 0.961 . S
H576 C570 0.960 . S
H577 C573 0.960 . S
H578 C573 0.960 . S
H579 C573 0.959 . S
C580 N581 1.317 . S
C580 N582 1.348 . S
C580 C583 1.485 . S
N581 C580 1.317 . S
N581 N585 1.370 . S
N582 C580 1.348 . S
N582 C584 1.346 . S
C583 C580 1.485 . S
C583 H587 0.960 . S
C583 H588 0.961 . S
C583 H589 0.960 . S
C584 N582 1.346 . S
C584 N585 1.307 . S
C584 C586 1.486 . S
N585 N581 1.370 . S
N585 C584 1.307 . S
C586 C584 1.486 . S
C586 H590 0.960 . S
C586 H591 0.960 . S
C586 H592 0.959 . S
H587 C583 0.960 . S
H588 C583 0.961 . S
H589 C583 0.960 . S
H590 C586 0.960 . S
H591 C586 0.960 . S
H592 C586 0.959 . S
C593 N594 1.317 . S
C593 N595 1.348 . S
C593 C596 1.485 . S
N594 C593 1.317 . S
N594 N598 1.370 . S
N595 C593 1.348 . S
N595 C597 1.346 . S
C596 C593 1.485 . S
C596 H600 0.960 . S
C596 H601 0.961 . S
C596 H602 0.960 . S
C597 N595 1.346 . S
C597 N598 1.307 . S
C597 C599 1.486 . S
N598 N594 1.370 . S
N598 C597 1.307 . S
C599 C597 1.486 . S
C599 H603 0.960 . S
C599 H604 0.960 . S
C599 H605 0.959 . S
H600 C596 0.960 . S
H601 C596 0.961 . S
H602 C596 0.960 . S
H603 C599 0.960 . S
H604 C599 0.960 . S
H605 C599 0.959 . S
C606 N607 1.317 . S
C606 N608 1.348 . S
C606 C609 1.485 . S
N607 C606 1.317 . S
N607 N611 1.370 . S
N608 C606 1.348 . S
N608 C610 1.346 . S
C609 C606 1.485 . S
C609 H613 0.960 . S
C609 H614 0.961 . S
C609 H615 0.960 . S
C610 N608 1.346 . S
C610 N611 1.307 . S
C610 C612 1.486 . S
N611 N607 1.370 . S
N611 C610 1.307 . S
C612 C610 1.486 . S
C612 H616 0.960 . S
C612 H617 0.960 . S
C612 H618 0.959 . S
H613 C609 0.960 . S
H614 C609 0.961 . S
H615 C609 0.960 . S
H616 C612 0.960 . S
H617 C612 0.960 . S
H618 C612 0.959 . S
C619 N620 1.317 . S
C619 N621 1.348 . S
C619 C622 1.485 . S
N620 C619 1.317 . S
N620 N624 1.370 . S
N621 C619 1.348 . S
N621 C623 1.346 . S
C622 C619 1.485 . S
C622 H626 0.960 . S
C622 H627 0.961 . S
C622 H628 0.960 . S
C623 N621 1.346 . S
C623 N624 1.307 . S
C623 C625 1.486 . S
N624 N620 1.370 . S
N624 C623 1.307 . S
C625 C623 1.486 . S
C625 H629 0.960 . S
C625 H630 0.960 . S
C625 H631 0.959 . S
H626 C622 0.960 . S
H627 C622 0.961 . S
H628 C622 0.960 . S
H629 C625 0.960 . S
H630 C625 0.960 . S
H631 C625 0.959 . S
C632 N633 1.317 . S
C632 N634 1.348 . S
C632 C635 1.485 . S
N633 C632 1.317 . S
N633 N637 1.370 . S
N634 C632 1.348 . S
N634 C636 1.346 . S
C635 C632 1.485 . S
C635 H639 0.960 . S
C635 H640 0.961 . S
C635 H641 0.960 . S
C636 N634 1.346 . S
C636 N637 1.307 . S
C636 C638 1.486 . S
N637 N633 1.370 . S
N637 C636 1.307 . S
C638 C636 1.486 . S
C638 H642 0.960 . S
C638 H643 0.960 . S
C638 H644 0.959 . S
H639 C635 0.960 . S
H640 C635 0.961 . S
H641 C635 0.960 . S
H642 C638 0.960 . S
H643 C638 0.960 . S
H644 C638 0.959 . S
C645 N646 1.317 . S
C645 N647 1.348 . S
C645 C648 1.485 . S
N646 C645 1.317 . S
N646 N650 1.370 . S
N647 C645 1.348 . S
N647 C649 1.346 . S
C648 C645 1.485 . S
C648 H652 0.960 . S
C648 H653 0.961 . S
C648 H654 0.960 . S
C649 N647 1.346 . S
C649 N650 1.307 . S
C649 C651 1.486 . S
N650 N646 1.370 . S
N650 C649 1.307 . S
C651 C649 1.486 . S
C651 H655 0.960 . S
C651 H656 0.960 . S
C651 H657 0.959 . S
H652 C648 0.960 . S
H653 C648 0.961 . S
H654 C648 0.960 . S
H655 C651 0.960 . S
H656 C651 0.960 . S
H657 C651 0.959 . S
C658 N659 1.317 . S
C658 N660 1.348 . S
C658 C661 1.485 . S
N659 C658 1.317 . S
N659 N663 1.370 . S
N660 C658 1.348 . S
N660 C662 1.346 . S
C661 C658 1.485 . S
C661 H665 0.960 . S
C661 H666 0.961 . S
C661 H667 0.960 . S
C662 N660 1.346 . S
C662 N663 1.307 . S
C662 C664 1.486 . S
N663 N659 1.370 . S
N663 C662 1.307 . S
C664 C662 1.486 . S
C664 H668 0.960 . S
C664 H669 0.960 . S
C664 H670 0.959 . S
H665 C661 0.960 . S
H666 C661 0.961 . S
H667 C661 0.960 . S
H668 C664 0.960 . S
H669 C664 0.960 . S
H670 C664 0.959 . S
C671 N672 1.317 . S
C671 N673 1.348 . S
C671 C674 1.485 . S
N672 C671 1.317 . S
N672 N676 1.370 . S
N673 C671 1.348 . S
N673 C675 1.346 . S
C674 C671 1.485 . S
C674 H678 0.960 . S
C674 H679 0.961 . S
C674 H680 0.960 . S
C675 N673 1.346 . S
C675 N676 1.307 . S
C675 C677 1.486 . S
N676 N672 1.370 . S
N676 C675 1.307 . S
C677 C675 1.486 . S
C677 H681 0.960 . S
C677 H682 0.960 . S
C677 H683 0.959 . S
H678 C674 0.960 . S
H679 C674 0.961 . S
H680 C674 0.960 . S
H681 C677 0.960 . S
H682 C677 0.960 . S
H683 C677 0.959 . S
C684 N685 1.317 . S
C684 N686 1.348 . S
C684 C687 1.485 . S
N685 C684 1.317 . S
N685 N689 1.370 . S
N686 C684 1.348 . S
N686 C688 1.346 . S
C687 C684 1.485 . S
C687 H691 0.960 . S
C687 H692 0.961 . S
C687 H693 0.960 . S
C688 N686 1.346 . S
C688 N689 1.307 . S
C688 C690 1.486 . S
N689 N685 1.370 . S
N689 C688 1.307 . S
C690 C688 1.486 . S
C690 H694 0.960 . S
C690 H695 0.960 . S
C690 H696 0.959 . S
H691 C687 0.960 . S
H692 C687 0.961 . S
H693 C687 0.960 . S
H694 C690 0.960 . S
H695 C690 0.960 . S
H696 C690 0.959 . S
C697 N698 1.317 . S
C697 N699 1.348 . S
C697 C700 1.485 . S
N698 C697 1.317 . S
N698 N702 1.370 . S
N699 C697 1.348 . S
N699 C701 1.346 . S
C700 C697 1.485 . S
C700 H704 0.960 . S
C700 H705 0.961 . S
C700 H706 0.960 . S
C701 N699 1.346 . S
C701 N702 1.307 . S
C701 C703 1.486 . S
N702 N698 1.370 . S
N702 C701 1.307 . S
C703 C701 1.486 . S
C703 H707 0.960 . S
C703 H708 0.960 . S
C703 H709 0.959 . S
H704 C700 0.960 . S
H705 C700 0.961 . S
H706 C700 0.960 . S
H707 C703 0.960 . S
H708 C703 0.960 . S
H709 C703 0.959 . S
C710 N711 1.317 . S
C710 N712 1.348 . S
C710 C713 1.485 . S
N711 C710 1.317 . S
N711 N715 1.370 . S
N712 C710 1.348 . S
N712 C714 1.346 . S
C713 C710 1.485 . S
C713 H717 0.960 . S
C713 H718 0.961 . S
C713 H719 0.960 . S
C714 N712 1.346 . S
C714 N715 1.307 . S
C714 C716 1.486 . S
N715 N711 1.370 . S
N715 C714 1.307 . S
C716 C714 1.486 . S
C716 H720 0.960 . S
C716 H721 0.960 . S
C716 H722 0.959 . S
H717 C713 0.960 . S
H718 C713 0.961 . S
H719 C713 0.960 . S
H720 C716 0.960 . S
H721 C716 0.960 . S
H722 C716 0.959 . S
C723 N724 1.317 . S
C723 N725 1.348 . S
C723 C726 1.485 . S
N724 C723 1.317 . S
N724 N728 1.370 . S
N725 C723 1.348 . S
N725 C727 1.346 . S
C726 C723 1.485 . S
C726 H730 0.987 . S
C726 H731 0.961 . S
C726 H732 0.960 . S
C727 N725 1.346 . S
C727 N728 1.307 . S
C727 C729 1.486 . S
N728 N724 1.370 . S
N728 C727 1.307 . S
C729 C727 1.486 . S
C729 H733 0.960 . S
C729 H734 0.960 . S
C729 H735 0.959 . S
H730 C726 0.987 . S
H731 C726 0.961 . S
H732 C726 0.960 . S
H733 C729 0.960 . S
H734 C729 0.960 . S
H735 C729 0.959 . S
C736 N737 1.317 . S
C736 N738 1.348 . S
C736 C739 1.485 . S
N737 C736 1.317 . S
N737 N741 1.370 . S
N738 C736 1.348 . S
N738 C740 1.346 . S
C739 C736 1.485 . S
C739 H743 0.960 . S
C739 H744 0.961 . S
C739 H745 0.960 . S
C740 N738 1.346 . S
C740 N741 1.307 . S
C740 C742 1.486 . S
N741 N737 1.370 . S
N741 C740 1.307 . S
C742 C740 1.486 . S
C742 H746 0.960 . S
C742 H747 0.960 . S
C742 H748 0.959 . S
H743 C739 0.960 . S
H744 C739 0.961 . S
H745 C739 0.960 . S
H746 C742 0.960 . S
H747 C742 0.960 . S
H748 C742 0.959 . S
C749 N750 1.317 . S
C749 N751 1.348 . S
C749 C752 1.485 . S
N750 C749 1.317 . S
N750 N754 1.370 . S
N751 C749 1.348 . S
N751 C753 1.346 . S
C752 C749 1.485 . S
C752 H756 0.960 . S
C752 H757 0.961 . S
C752 H758 0.960 . S
C753 N751 1.346 . S
C753 N754 1.307 . S
C753 C755 1.486 . S
N754 N750 1.370 . S
N754 C753 1.307 . S
C755 C753 1.486 . S
C755 H759 0.960 . S
C755 H760 0.960 . S
C755 H761 0.959 . S
H756 C752 0.960 . S
H757 C752 0.961 . S
H758 C752 0.960 . S
H759 C755 0.960 . S
H760 C755 0.960 . S
H761 C755 0.959 . S
C762 N763 1.317 . S
C762 N764 1.348 . S
C762 C765 1.485 . S
N763 C762 1.317 . S
N763 N767 1.370 . S
N764 C762 1.348 . S
N764 C766 1.346 . S
C765 C762 1.485 . S
C765 H769 0.960 . S
C765 H770 0.961 . S
C765 H771 0.960 . S
C766 N764 1.346 . S
C766 N767 1.307 . S
C766 C768 1.486 . S
N767 N763 1.370 . S
N767 C766 1.307 . S
C768 C766 1.486 . S
C768 H772 0.960 . S
C768 H773 0.960 . S
C768 H774 0.959 . S
H769 C765 0.960 . S
H770 C765 0.961 . S
H771 C765 0.960 . S
H772 C768 0.960 . S
H773 C768 0.960 . S
H774 C768 0.959 . S
C775 N776 1.317 . S
C775 N777 1.348 . S
C775 C778 1.485 . S
N776 C775 1.317 . S
N776 N780 1.370 . S
N777 C775 1.348 . S
N777 C779 1.346 . S
C778 C775 1.485 . S
C778 H782 0.960 . S
C778 H783 0.961 . S
C778 H784 0.960 . S
C779 N777 1.346 . S
C779 N780 1.307 . S
C779 C781 1.486 . S
N780 N776 1.370 . S
N780 C779 1.307 . S
C781 C779 1.486 . S
C781 H785 0.960 . S
C781 H786 0.960 . S
C781 H787 0.959 . S
H782 C778 0.960 . S
H783 C778 0.961 . S
H784 C778 0.960 . S
H785 C781 0.960 . S
H786 C781 0.960 . S
H787 C781 0.959 . S
C788 N789 1.317 . S
C788 N790 1.348 . S
C788 C791 1.485 . S
N789 C788 1.317 . S
N789 N793 1.370 . S
N790 C788 1.348 . S
N790 C792 1.346 . S
C791 C788 1.485 . S
C791 H795 0.960 . S
C791 H796 0.961 . S
C791 H797 0.960 . S
C792 N790 1.346 . S
C792 N793 1.307 . S
C792 C794 1.486 . S
N793 N789 1.370 . S
N793 C792 1.307 . S
C794 C792 1.486 . S
C794 H798 0.960 . S
C794 H799 0.960 . S
C794 H800 0.959 . S
H795 C791 0.960 . S
H796 C791 0.961 . S
H797 C791 0.960 . S
H798 C794 0.960 . S
H799 C794 0.960 . S
H800 C794 0.959 . S
C801 N802 1.317 . S
C801 N803 1.348 . S
C801 C804 1.485 . S
N802 C801 1.317 . S
N802 N806 1.370 . S
N803 C801 1.348 . S
N803 C805 1.346 . S
C804 C801 1.485 . S
C804 H808 0.960 . S
C804 H809 0.961 . S
C804 H810 0.960 . S
C805 N803 1.346 . S
C805 N806 1.307 . S
C805 C807 1.486 . S
N806 N802 1.370 . S
N806 C805 1.307 . S
C807 C805 1.486 . S
C807 H811 0.960 . S
C807 H812 0.960 . S
C807 H813 0.959 . S
H808 C804 0.960 . S
H809 C804 0.961 . S
H810 C804 0.960 . S
H811 C807 0.960 . S
H812 C807 0.960 . S
H813 C807 0.959 . S
C814 N815 1.317 . S
C814 N816 1.348 . S
C814 C817 1.485 . S
N815 C814 1.317 . S
N815 N819 1.370 . S
N816 C814 1.348 . S
N816 C818 1.346 . S
C817 C814 1.485 . S
C817 H821 0.960 . S
C817 H822 0.961 . S
C817 H823 0.960 . S
C818 N816 1.346 . S
C818 N819 1.307 . S
C818 C820 1.486 . S
N819 N815 1.370 . S
N819 C818 1.307 . S
C820 C818 1.486 . S
C820 H824 0.960 . S
C820 H825 0.960 . S
C820 H826 0.959 . S
H821 C817 0.960 . S
H822 C817 0.961 . S
H823 C817 0.960 . S
H824 C820 0.960 . S
H825 C820 0.960 . S
H826 C820 0.959 . S
C827 N828 1.317 . S
C827 N829 1.348 . S
C827 C830 1.485 . S
N828 C827 1.317 . S
N828 N832 1.370 . S
N829 C827 1.348 . S
N829 C831 1.346 . S
C830 C827 1.485 . S
C830 H834 0.960 . S
C830 H835 0.961 . S
C830 H836 0.960 . S
C831 N829 1.346 . S
C831 N832 1.307 . S
C831 C833 1.486 . S
N832 N828 1.370 . S
N832 C831 1.307 . S
C833 C831 1.486 . S
C833 H837 0.960 . S
C833 H838 0.960 . S
C833 H839 0.959 . S
H834 C830 0.960 . S
H835 C830 0.961 . S
H836 C830 0.960 . S
H837 C833 0.960 . S
H838 C833 0.960 . S
H839 C833 0.959 . S
C840 N841 1.317 . S
C840 N842 1.348 . S
C840 C843 1.485 . S
N841 C840 1.317 . S
N841 N845 1.370 . S
N842 C840 1.348 . S
N842 C844 1.346 . S
C843 C840 1.485 . S
C843 H847 0.960 . S
C843 H848 0.961 . S
C843 H849 0.960 . S
C844 N842 1.346 . S
C844 N845 1.307 . S
C844 C846 1.486 . S
N845 N841 1.370 . S
N845 C844 1.307 . S
C846 C844 1.486 . S
C846 H850 0.960 . S
C846 H851 0.960 . S
C846 H852 0.959 . S
H847 C843 0.960 . S
H848 C843 0.961 . S
H849 C843 0.960 . S
H850 C846 0.960 . S
H851 C846 0.960 . S
H852 C846 0.959 . S
C853 N854 1.317 . S
C853 N855 1.348 . S
C853 C856 1.485 . S
N854 C853 1.317 . S
N854 N858 1.370 . S
N855 C853 1.348 . S
N855 C857 1.346 . S
C856 C853 1.485 . S
C856 H860 0.960 . S
C856 H861 0.961 . S
C856 H862 0.960 . S
C857 N855 1.346 . S
C857 N858 1.307 . S
C857 C859 1.486 . S
N858 N854 1.370 . S
N858 C857 1.307 . S
C859 C857 1.486 . S
C859 H863 0.960 . S
C859 H864 0.960 . S
C859 H865 0.959 . S
H860 C856 0.960 . S
H861 C856 0.961 . S
H862 C856 0.960 . S
H863 C859 0.960 . S
H864 C859 0.960 . S
H865 C859 0.959 . S
C866 N867 1.317 . S
C866 N868 1.348 . S
C866 C869 1.485 . S
N867 C866 1.317 . S
N867 N871 1.370 . S
N868 C866 1.348 . S
N868 C870 1.346 . S
C869 C866 1.485 . S
C869 H873 0.960 . S
C869 H874 0.961 . S
C869 H875 0.960 . S
C870 N868 1.346 . S
C870 N871 1.307 . S
C870 C872 1.486 . S
N871 N867 1.370 . S
N871 C870 1.307 . S
C872 C870 1.486 . S
C872 H876 0.960 . S
C872 H877 0.960 . S
C872 H878 0.959 . S
H873 C869 0.960 . S
H874 C869 0.961 . S
H875 C869 0.960 . S
H876 C872 0.960 . S
H877 C872 0.960 . S
H878 C872 0.959 . S
C879 N880 1.317 . S
C879 N881 1.348 . S
C879 C882 1.485 . S
N880 C879 1.317 . S
N880 N884 1.370 . S
N881 C879 1.348 . S
N881 C883 1.346 . S
C882 C879 1.485 . S
C882 H886 0.960 . S
C882 H887 0.961 . S
C882 H888 0.960 . S
C883 N881 1.346 . S
C883 N884 1.307 . S
C883 C885 1.486 . S
N884 N880 1.370 . S
N884 C883 1.307 . S
C885 C883 1.486 . S
C885 H889 0.960 . S
C885 H890 0.960 . S
C885 H891 0.959 . S
H886 C882 0.960 . S
H887 C882 0.961 . S
H888 C882 0.960 . S
H889 C885 0.960 . S
H890 C885 0.960 . S
H891 C885 0.959 . S
C892 N893 1.317 . S
C892 N894 1.348 . S
C892 C895 1.485 . S
N893 C892 1.317 . S
N893 N897 1.370 . S
N894 C892 1.348 . S
N894 C896 1.346 . S
C895 C892 1.485 . S
C895 H899 0.960 . S
C895 H900 0.961 . S
C895 H901 0.960 . S
C896 N894 1.346 . S
C896 N897 1.307 . S
C896 C898 1.486 . S
N897 N893 1.370 . S
N897 C896 1.307 . S
C898 C896 1.486 . S
C898 H902 0.960 . S
C898 H903 0.960 . S
C898 H904 0.959 . S
H899 C895 0.960 . S
H900 C895 0.961 . S
H901 C895 0.960 . S
H902 C898 0.960 . S
H903 C898 0.960 . S
H904 C898 0.959 . S
C905 N906 1.317 . S
C905 N907 1.348 . S
C905 C908 1.485 . S
N906 C905 1.317 . S
N906 N910 1.370 . S
N907 C905 1.348 . S
N907 C909 1.346 . S
C908 C905 1.485 . S
C908 H912 0.960 . S
C908 H913 0.961 . S
C908 H914 0.960 . S
C909 N907 1.346 . S
C909 N910 1.307 . S
C909 C911 1.486 . S
N910 N906 1.370 . S
N910 C909 1.307 . S
C911 C909 1.486 . S
C911 H915 0.960 . S
C911 H916 0.960 . S
C911 H917 0.959 . S
H912 C908 0.960 . S
H913 C908 0.961 . S
H914 C908 0.960 . S
H915 C911 0.960 . S
H916 C911 0.960 . S
H917 C911 0.959 . S
C918 N919 1.317 . S
C918 N920 1.348 . S
C918 C921 1.485 . S
N919 C918 1.317 . S
N919 N923 1.370 . S
N920 C918 1.348 . S
N920 C922 1.346 . S
C921 C918 1.485 . S
C921 H925 0.960 . S
C921 H926 0.961 . S
C921 H927 0.960 . S
C922 N920 1.346 . S
C922 N923 1.307 . S
C922 C924 1.486 . S
N923 N919 1.370 . S
N923 C922 1.307 . S
C924 C922 1.486 . S
C924 H928 0.960 . S
C924 H929 0.960 . S
C924 H930 0.959 . S
H925 C921 0.960 . S
H926 C921 0.961 . S
H927 C921 0.960 . S
H928 C924 0.960 . S
H929 C924 0.960 . S
H930 C924 0.959 . S
C931 N932 1.317 . S
C931 N933 1.348 . S
C931 C934 1.485 . S
N932 C931 1.317 . S
N932 N936 1.370 . S
N933 C931 1.348 . S
N933 C935 1.346 . S
C934 C931 1.485 . S
C934 H938 0.960 1_545 S
C934 H939 0.961 . S
C934 H940 0.960 . S
C935 N933 1.346 . S
C935 N936 1.307 . S
C935 C937 1.486 . S
N936 N932 1.370 . S
N936 C935 1.307 . S
C937 C935 1.486 . S
C937 H941 0.960 . S
C937 H942 0.960 . S
C937 H943 0.959 . S
H938 C934 0.960 1_565 S
H939 C934 0.961 . S
H940 C934 0.960 . S
H941 C937 0.960 . S
H942 C937 0.960 . S
H943 C937 0.959 . S
C944 N945 1.317 . S
C944 N946 1.348 . S
C944 C947 1.485 . S
N945 C944 1.317 . S
N945 N949 1.370 . S
N946 C944 1.348 . S
N946 C948 1.346 . S
C947 C944 1.485 . S
C947 H951 0.960 . S
C947 H952 0.961 . S
C947 H953 0.960 . S
C948 N946 1.346 . S
C948 N949 1.307 . S
C948 C950 1.486 . S
N949 N945 1.370 . S
N949 C948 1.307 . S
C950 C948 1.486 . S
C950 H954 0.960 . S
C950 H955 0.960 . S
C950 H956 0.959 . S
H951 C947 0.960 . S
H952 C947 0.961 . S
H953 C947 0.960 . S
H954 C950 0.960 . S
H955 C950 0.960 . S
H956 C950 0.959 . S
C957 N958 1.317 . S
C957 N959 1.348 . S
C957 C960 1.485 . S
N958 C957 1.317 . S
N958 N962 1.370 . S
N959 C957 1.348 . S
N959 C961 1.346 . S
C960 C957 1.485 . S
C960 H964 0.960 . S
C960 H965 0.961 . S
C960 H966 0.960 . S
C961 N959 1.346 . S
C961 N962 1.307 . S
C961 C963 1.486 . S
N962 N958 1.370 . S
N962 C961 1.307 . S
C963 C961 1.486 . S
C963 H967 0.960 . S
C963 H968 0.960 . S
C963 H969 0.959 . S
H964 C960 0.960 . S
H965 C960 0.961 . S
H966 C960 0.960 . S
H967 C963 0.960 . S
H968 C963 0.960 . S
H969 C963 0.959 . S
C970 N971 1.317 . S
C970 N972 1.348 . S
C970 C973 1.485 . S
N971 C970 1.317 . S
N971 N975 1.370 . S
N972 C970 1.348 . S
N972 C974 1.346 . S
C973 C970 1.485 . S
C973 H977 0.960 . S
C973 H978 0.961 . S
C973 H979 0.960 . S
C974 N972 1.346 . S
C974 N975 1.307 . S
C974 C976 1.486 . S
N975 N971 1.370 . S
N975 C974 1.307 . S
C976 C974 1.486 . S
C976 H980 0.960 . S
C976 H981 0.960 . S
C976 H982 0.959 . S
H977 C973 0.960 . S
H978 C973 0.961 . S
H979 C973 0.960 . S
H980 C976 0.960 . S
H981 C976 0.960 . S
H982 C976 0.959 . S
C983 N984 1.317 . S
C983 N985 1.348 . S
C983 C986 1.485 . S
N984 C983 1.317 . S
N984 N988 1.370 . S
N985 C983 1.348 . S
N985 C987 1.346 . S
C986 C983 1.485 . S
C986 H990 0.960 . S
C986 H991 0.961 . S
C986 H992 0.960 . S
C987 N985 1.346 . S
C987 N988 1.307 . S
C987 C989 1.486 . S
N988 N984 1.370 . S
N988 C987 1.307 . S
C989 C987 1.486 . S
C989 H993 0.960 . S
C989 H994 0.960 . S
C989 H995 0.959 . S
H990 C986 0.960 . S
H991 C986 0.961 . S
H992 C986 0.960 . S
H993 C989 0.960 . S
H994 C989 0.960 . S
H995 C989 0.959 . S
C996 N997 1.317 . S
C996 N998 1.348 . S
C996 C999 1.485 . S
N997 C996 1.317 . S
N997 N1001 1.370 . S
N998 C996 1.348 . S
N998 C1000 1.346 . S
C999 C996 1.485 . S
C999 H1003 0.960 . S
C999 H1004 0.961 . S
C999 H1005 0.960 . S
C1000 N998 1.346 . S
C1000 N1001 1.307 . S
C1000 C1002 1.486 . S
N1001 N997 1.370 . S
N1001 C1000 1.307 . S
C1002 C1000 1.486 . S
C1002 H1006 0.960 . S
C1002 H1007 0.960 . S
C1002 H1008 0.959 . S
H1003 C999 0.960 . S
H1004 C999 0.961 . S
H1005 C999 0.960 . S
H1006 C1002 0.960 . S
H1007 C1002 0.960 . S
H1008 C1002 0.959 . S
C1009 N1010 1.317 . S
C1009 N1011 1.348 . S
C1009 C1012 1.485 . S
N1010 C1009 1.317 . S
N1010 N1014 1.370 . S
N1011 C1009 1.348 . S
N1011 C1013 1.346 . S
C1012 C1009 1.485 . S
C1012 H1016 0.960 . S
C1012 H1017 0.961 . S
C1012 H1018 0.960 . S
C1013 N1011 1.346 . S
C1013 N1014 1.307 . S
C1013 C1015 1.486 . S
N1014 N1010 1.370 . S
N1014 C1013 1.307 . S
C1015 C1013 1.486 . S
C1015 H1019 0.960 . S
C1015 H1020 0.960 . S
C1015 H1021 0.959 . S
H1016 C1012 0.960 . S
H1017 C1012 0.961 . S
H1018 C1012 0.960 . S
H1019 C1015 0.960 . S
H1020 C1015 0.960 . S
H1021 C1015 0.959 . S
C1022 N1023 1.317 . S
C1022 N1024 1.348 . S
C1022 C1025 1.485 . S
N1023 C1022 1.317 . S
N1023 N1027 1.370 . S
N1024 C1022 1.348 . S
N1024 C1026 1.346 . S
C1025 C1022 1.485 . S
C1025 H1029 0.960 . S
C1025 H1030 0.961 . S
C1025 H1031 0.960 . S
C1026 N1024 1.346 . S
C1026 N1027 1.307 . S
C1026 C1028 1.486 . S
N1027 N1023 1.370 . S
N1027 C1026 1.307 . S
C1028 C1026 1.486 . S
C1028 H1032 0.960 . S
C1028 H1033 0.960 . S
C1028 H1034 0.959 . S
H1029 C1025 0.960 . S
H1030 C1025 0.961 . S
H1031 C1025 0.960 . S
H1032 C1028 0.960 . S
H1033 C1028 0.960 . S
H1034 C1028 0.959 . S
C1035 N1036 1.317 . S
C1035 N1037 1.348 . S
C1035 C1038 1.485 . S
N1036 C1035 1.317 . S
N1036 N1040 1.370 . S
N1037 C1035 1.348 . S
N1037 C1039 1.346 . S
C1038 C1035 1.485 . S
C1038 H1042 0.960 . S
C1038 H1043 0.961 . S
C1038 H1044 0.960 . S
C1039 N1037 1.346 . S
C1039 N1040 1.307 . S
C1039 C1041 1.486 . S
N1040 N1036 1.370 . S
N1040 C1039 1.307 . S
C1041 C1039 1.486 . S
C1041 H1045 0.960 . S
C1041 H1046 0.960 . S
C1041 H1047 0.959 . S
H1042 C1038 0.960 . S
H1043 C1038 0.961 . S
H1044 C1038 0.960 . S
H1045 C1041 0.960 . S
H1046 C1041 0.960 . S
H1047 C1041 0.959 . S
C1048 N1049 1.317 . S
C1048 N1050 1.348 . S
C1048 C1051 1.485 . S
N1049 C1048 1.317 . S
N1049 N1053 1.370 . S
N1050 C1048 1.348 . S
N1050 C1052 1.346 . S
C1051 C1048 1.485 . S
C1051 H1055 0.960 . S
C1051 H1056 0.961 . S
C1051 H1057 0.960 . S
C1052 N1050 1.346 . S
C1052 N1053 1.307 . S
C1052 C1054 1.486 . S
N1053 N1049 1.370 . S
N1053 C1052 1.307 . S
C1054 C1052 1.486 . S
C1054 H1058 0.960 . S
C1054 H1059 0.960 . S
C1054 H1060 0.959 . S
H1055 C1051 0.960 . S
H1056 C1051 0.961 . S
H1057 C1051 0.960 . S
H1058 C1054 0.960 . S
H1059 C1054 0.960 . S
H1060 C1054 0.959 . S
C1061 N1062 1.317 . S
C1061 N1063 1.348 . S
C1061 C1064 1.485 . S
N1062 C1061 1.317 . S
N1062 N1066 1.370 . S
N1063 C1061 1.348 . S
N1063 C1065 1.346 . S
C1064 C1061 1.485 . S
C1064 H1068 0.960 . S
C1064 H1069 0.961 . S
C1064 H1070 0.960 . S
C1065 N1063 1.346 . S
C1065 N1066 1.307 . S
C1065 C1067 1.486 . S
N1066 N1062 1.370 . S
N1066 C1065 1.307 . S
C1067 C1065 1.486 . S
C1067 H1071 0.960 . S
C1067 H1072 0.960 . S
C1067 H1073 0.959 . S
H1068 C1064 0.960 . S
H1069 C1064 0.961 . S
H1070 C1064 0.960 . S
H1071 C1067 0.960 . S
H1072 C1067 0.960 . S
H1073 C1067 0.959 . S
C1074 N1075 1.317 . S
C1074 N1076 1.348 . S
C1074 C1077 1.485 . S
N1075 C1074 1.317 . S
N1075 N1079 1.370 . S
N1076 C1074 1.348 . S
N1076 C1078 1.346 . S
C1077 C1074 1.485 . S
C1077 H1081 0.960 . S
C1077 H1082 0.961 . S
C1077 H1083 0.960 . S
C1078 N1076 1.346 . S
C1078 N1079 1.307 . S
C1078 C1080 1.486 . S
N1079 N1075 1.370 . S
N1079 C1078 1.307 . S
C1080 C1078 1.486 . S
C1080 H1084 0.960 . S
C1080 H1085 0.960 . S
C1080 H1086 0.959 . S
H1081 C1077 0.960 . S
H1082 C1077 0.961 . S
H1083 C1077 0.960 . S
H1084 C1080 0.960 . S
H1085 C1080 0.960 . S
H1086 C1080 0.959 . S
C1087 N1088 1.317 . S
C1087 N1089 1.348 . S
C1087 C1090 1.485 . S
N1088 C1087 1.317 . S
N1088 N1092 1.370 . S
N1089 C1087 1.348 . S
N1089 C1091 1.346 . S
C1090 C1087 1.485 . S
C1090 H1094 0.960 . S
C1090 H1095 0.961 . S
C1090 H1096 0.960 . S
C1091 N1089 1.346 . S
C1091 N1092 1.307 . S
C1091 C1093 1.486 . S
N1092 N1088 1.370 . S
N1092 C1091 1.307 . S
C1093 C1091 1.486 . S
C1093 H1097 0.960 . S
C1093 H1098 0.960 . S
C1093 H1099 0.959 . S
H1094 C1090 0.960 . S
H1095 C1090 0.961 . S
H1096 C1090 0.960 . S
H1097 C1093 0.960 . S
H1098 C1093 0.960 . S
H1099 C1093 0.959 . S
C1100 N1101 1.317 . S
C1100 N1102 1.348 . S
C1100 C1103 1.485 . S
N1101 C1100 1.317 . S
N1101 N1105 1.370 . S
N1102 C1100 1.348 . S
N1102 C1104 1.346 . S
C1103 C1100 1.485 . S
C1103 H1107 0.960 . S
C1103 H1108 0.961 . S
C1103 H1109 0.960 . S
C1104 N1102 1.346 . S
C1104 N1105 1.307 . S
C1104 C1106 1.486 . S
N1105 N1101 1.370 . S
N1105 C1104 1.307 . S
C1106 C1104 1.486 . S
C1106 H1110 0.960 . S
C1106 H1111 0.960 . S
C1106 H1112 0.959 . S
H1107 C1103 0.960 . S
H1108 C1103 0.961 . S
H1109 C1103 0.960 . S
H1110 C1106 0.960 . S
H1111 C1106 0.960 . S
H1112 C1106 0.959 . S
C1113 N1114 1.317 . S
C1113 N1115 1.348 . S
C1113 C1116 1.485 . S
N1114 C1113 1.317 . S
N1114 N1118 1.370 . S
N1115 C1113 1.348 . S
N1115 C1117 1.346 . S
C1116 C1113 1.485 . S
C1116 H1120 0.960 . S
C1116 H1121 0.961 . S
C1116 H1122 0.960 . S
C1117 N1115 1.346 . S
C1117 N1118 1.307 . S
C1117 C1119 1.486 . S
N1118 N1114 1.370 . S
N1118 C1117 1.307 . S
C1119 C1117 1.486 . S
C1119 H1123 0.960 . S
C1119 H1124 0.960 . S
C1119 H1125 0.959 . S
H1120 C1116 0.960 . S
H1121 C1116 0.961 . S
H1122 C1116 0.960 . S
H1123 C1119 0.960 . S
H1124 C1119 0.960 . S
H1125 C1119 0.959 . S
C1126 N1127 1.317 . S
C1126 N1128 1.348 . S
C1126 C1129 1.485 . S
N1127 C1126 1.317 . S
N1127 N1131 1.370 . S
N1128 C1126 1.348 . S
N1128 C1130 1.346 . S
C1129 C1126 1.485 . S
C1129 H1133 0.960 . S
C1129 H1134 0.961 . S
C1129 H1135 0.960 . S
C1130 N1128 1.346 . S
C1130 N1131 1.307 . S
C1130 C1132 1.486 . S
N1131 N1127 1.370 . S
N1131 C1130 1.307 . S
C1132 C1130 1.486 . S
C1132 H1136 0.960 . S
C1132 H1137 0.960 . S
C1132 H1138 0.959 . S
H1133 C1129 0.960 . S
H1134 C1129 0.961 . S
H1135 C1129 0.960 . S
H1136 C1132 0.960 . S
H1137 C1132 0.960 . S
H1138 C1132 0.959 . S
C1139 N1140 1.317 . S
C1139 N1141 1.348 . S
C1139 C1142 1.485 . S
N1140 C1139 1.317 . S
N1140 N1144 1.370 . S
N1141 C1139 1.348 . S
N1141 C1143 1.346 . S
C1142 C1139 1.485 . S
C1142 H1146 0.960 . S
C1142 H1147 0.961 . S
C1142 H1148 0.960 . S
C1143 N1141 1.346 . S
C1143 N1144 1.307 . S
C1143 C1145 1.486 . S
N1144 N1140 1.370 . S
N1144 C1143 1.307 . S
C1145 C1143 1.486 . S
C1145 H1149 0.960 . S
C1145 H1150 0.960 . S
C1145 H1151 0.959 . S
H1146 C1142 0.960 . S
H1147 C1142 0.961 . S
H1148 C1142 0.960 . S
H1149 C1145 0.960 . S
H1150 C1145 0.960 . S
H1151 C1145 0.959 . S
C491 N533 1.535 . S
C271 N546 1.689 . S
N559 C513 1.606 . S
C293 N572 1.516 . S
C524 N585 1.713 . S
C260 N598 1.501 . S
C502 N611 1.689 . S
C282 N624 1.588 . S
C183 N633 1.885 . S
C447 N650 1.729 . S
C205 N663 1.806 . S
C436 N676 1.528 . S
C249 N685 1.441 . S
N702 C458 1.265 . S
N715 C227 1.923 . S
C315 N728 1.699 . S
N741 C216 1.249 . S
N754 C469 1.929 . S
C238 N767 1.585 . S
C326 N780 1.778 . S
N789 C304 1.799 . S
C392 N802 1.639 . S
N819 C106 1.482 . S
N832 C414 1.561 . S
N841 C128 1.612 . S
N854 C425 1.623 . S
C95 N867 1.647 . S
N884 C403 1.401 . S
C117 N897 1.546 . S
N910 C18 1.909 . S
N923 C348 1.879 . S
C40 N936 2.015 . S
N949 C337 1.603 . S
N962 C84 1.695 . S
C359 N975 2.066 . S
N988 C62 2.023 . S
N1001 C150 1.420 . S
C51 N1014 2.093 . S
N1027 C370 1.985 . S
C73 N1040 1.446 . S
N1053 C161 2.013 . S
C139 N1066 1.926 . S
C194 N1079 1.692 . S
N1092 C172 1.529 . S
C480 N1101 1.441 . S
C29 N1118 1.885 . S
N1131 C7 1.560 . S
N1144 C381 1.760 . S
C368 N529 2.013 . S
C151 N542 1.713 . S
C379 N556 1.216 . S
N569 C360 1.946 . S
C159 N581 2.332 . S
C338 N595 1.530 . S
N608 C140 1.911 . S
C346 N620 2.032 . S
C349 N634 1.897 . S
N647 C162 1.933 . S
C335 N659 1.592 . S
N673 C137 2.341 . S
C148 N686 1.057 . S
C382 N698 1.860 . S
N711 C357 2.295 . S
N725 C371 1.832 . S
C129 N672 1.714 . S
C393 N738 1.482 . S
C401 N751 1.403 . S
N763 C412 1.330 . S
N689 C126 1.445 . S
C107 N646 1.577 . S
C415 N777 1.429 . S
N793 C390 1.635 . S
N803 C467 1.838 . S
C316 N816 1.638 . S
N828 C478 1.304 . S
N845 C459 1.583 . S
C324 N855 1.786 . S
C434 N871 1.294 . S
C305 N880 1.704 . S
N894 C448 1.675 . S
N906 C445 1.460 . S
C327 N920 1.999 . S
N933 C437 1.699 . S
C302 N946 1.675 . S
N958 C313 1.561 . S
C481 N971 1.531 . S
N985 C456 1.146 . S
C470 N998 1.834 . S
C294 N945 1.529 . S
C492 N1011 1.712 . S
C500 N1023 1.442 . S
N1036 C514 1.482 . S
C291 N959 1.174 . S
C272 N919 1.574 . S
N1049 C511 1.393 . S
C489 N1063 1.334 . S
N594 C60 2.072 . S
N607 C74 1.741 . S
N621 C82 1.184 . S
N582 C52 2.056 . S
N568 C38 2.182 . S
C8 N530 1.489 . S
C19 N543 1.891 . S
C27 N555 2.051 . S
C30 N790 1.865 . S
C41 N1076 1.884 . S
C5 N776 1.390 . S
C16 N1089 2.309 . S
C71 N1102 1.071 . S
N737 C85 1.756 . S
C49 N750 2.293 . S
C63 N764 1.826 . S
N1088 C426 1.710 . S
C96 N699 1.522 . S
C104 N712 1.458 . S
C115 N724 1.410 . S
N1105 C423 1.455 . S
N1075 C404 1.513 . S
N660 C118 1.472 . S
C93 N637 1.713 . S
C225 N868 1.793 . S
C239 N881 1.576 . S
C247 N893 1.289 . S
C217 N858 1.585 . S
N842 C203 1.787 . S
N806 C170 1.291 . S
N815 C184 1.759 . S
C195 N829 1.683 . S
N1062 C192 1.456 . S
C206 N1115 2.009 . S
C173 N1050 1.669 . S
N1128 C181 1.792 . S
C236 N1140 1.406 . S
N1010 C250 1.547 . S
C214 N1024 1.138 . S
C228 N1037 1.814 . S
C522 N1127 1.606 . S
N972 C261 1.660 . S
C269 N984 1.466 . S
C283 N997 1.494 . S
C525 N1141 1.582 . S
C503 N1114 1.562 . S
N932 C280 1.443 . S
N907 C258 1.299 . S
