# Generated by pormake.
# Topology anh, (6,3)-cn, num edge types: 1
# Building blocks:
#     Node 0, Type 0, BuildingBlock: CUKXOW_clean_sbu_0, # of connection points: 6
#     Node 1, Type 0, BuildingBlock: CUKXOW_clean_sbu_0, # of connection points: 6
#     Node 2, Type 0, BuildingBlock: CUKXOW_clean_sbu_0, # of connection points: 6
#     Node 3, Type 1, BuildingBlock: VETTIZ_charged_linker_0, # of connection points: 3
#     Node 4, Type 1, BuildingBlock: VETTIZ_charged_linker_0, # of connection points: 3
#     Node 5, Type 1, BuildingBlock: VETTIZ_charged_linker_0, # of connection points: 3
#     Node 6, Type 1, BuildingBlock: VETTIZ_charged_linker_0, # of connection points: 3
#     Node 7, Type 1, BuildingBlock: VETTIZ_charged_linker_0, # of connection points: 3
#     Node 8, Type 1, BuildingBlock: VETTIZ_charged_linker_0, # of connection points: 3
#     Edge 9, Type (0, 1), None
#     Edge 10, Type (0, 1), None
#     Edge 11, Type (0, 1), None
#     Edge 12, Type (0, 1), None
#     Edge 13, Type (0, 1), None
#     Edge 14, Type (0, 1), None
#     Edge 15, Type (0, 1), None
#     Edge 16, Type (0, 1), None
#     Edge 17, Type (0, 1), None
#     Edge 18, Type (0, 1), None
#     Edge 19, Type (0, 1), None
#     Edge 20, Type (0, 1), None
#     Edge 21, Type (0, 1), None
#     Edge 22, Type (0, 1), None
#     Edge 23, Type (0, 1), None
#     Edge 24, Type (0, 1), None
#     Edge 25, Type (0, 1), None
#     Edge 26, Type (0, 1), None
# Relax obj value: 0.147
# Max RMSD: 0.197
# Mean RMSD: 0.147
data_MOF--net-anh--node1-CUKXOW_clean_sbu_0--node2-VETTIZ_charged_linker_0--edge1-none
_symmetry_space_group_name_H-M    P1
_symmetry_Int_Tables_number       1
_symmetry_cell_setting            triclinic
loop_
_symmetry_equiv_pos_as_xyz
'x, y, z'
_cell_length_a     17.963571
_cell_length_b     17.401639
_cell_length_c     36.14312
_cell_angle_alpha  95.711606
_cell_angle_beta   90.884736
_cell_angle_gamma 111.36809
loop_
_atom_site_label
_atom_site_type_symbol
_atom_site_fract_x
_atom_site_fract_y
_atom_site_fract_z
_atom_type_partial_charge
Tb0 Tb 0.11266 0.52306 0.13201 0.0
C1 C 0.09172 0.46652 0.20983 0.0
Tb2 Tb 1.03473 0.33609 0.13928 0.0
O3 O 1.00386 0.54165 0.15135 0.0
O4 O 0.99278 0.43108 0.12382 0.0
O5 O 0.1433 0.5164 0.18917 0.0
C6 C 0.92523 0.19197 0.15503 0.0
O7 O 1.03271 0.39897 0.19461 0.0
C8 C 0.19588 0.38354 0.13974 0.0
C9 C 1.05738 0.39376 0.05886 0.0
O10 O 0.99136 0.23551 0.17417 0.0
O11 O 0.92142 0.22867 0.12589 0.0
O12 O 0.14673 0.30696 0.13966 0.0
O13 O 0.15077 0.42475 0.13886 0.0
O14 O 1.02859 0.32983 0.07872 0.0
O15 O 0.0924 0.47272 0.07345 0.0
C16 C 0.21887 0.6769 0.12621 0.0
O17 O 0.22266 0.60825 0.11039 0.0
O18 O 0.15312 0.6581 0.14366 0.0
C19 C 0.95103 0.46821 0.14038 0.0
Tb20 Tb 0.46714 0.03006 0.49922 0.0
C21 C 0.54042 0.04108 0.42035 0.0
Tb22 Tb 0.65167 0.1075 0.49238 0.0
O23 O 0.45079 0.13699 0.47657 0.0
O24 O 0.55685 0.14896 0.50321 0.0
O25 O 0.48152 0.99958 0.44056 0.0
C26 C 0.79979 0.21741 0.48972 0.0
O27 O 0.6084 0.09739 0.43529 0.0
C28 C 0.58707 0.94327 0.49066 0.0
C29 C 0.58034 0.10154 0.5727 0.0
O30 O 0.78149 0.13938 0.49382 0.0
O31 O 0.73466 0.23269 0.48714 0.0
O32 O 0.65292 0.98174 0.47486 0.0
O33 O 0.56744 0.99831 0.5081 0.0
O34 O 0.64471 0.12763 0.55253 0.0
O35 O 0.50572 0.05913 0.55838 0.0
C36 C 0.32839 0.90413 0.49965 0.0
O37 O 0.33915 0.98144 0.51078 0.0
O38 O 0.39523 0.89957 0.48895 0.0
C39 C 0.52453 0.1873 0.48491 0.0
Tb40 Tb 0.5657 0.62882 0.82608 0.0
C41 C 0.63008 0.69302 0.90518 0.0
Tb42 Tb 0.73582 0.72979 0.83608 0.0
O43 O 0.58562 0.53911 0.85939 0.0
O44 O 0.67132 0.60034 0.82459 0.0
O45 O 0.56797 0.68333 0.88276 0.0
C46 C 0.88992 0.76146 0.85173 0.0
O47 O 0.69891 0.69739 0.89134 0.0
C48 C 0.64809 0.82225 0.83687 0.0
C49 C 0.66601 0.66309 0.75453 0.0
O50 O 0.83522 0.75353 0.87537 0.0
O51 O 0.85864 0.76188 0.81912 0.0
O52 O 0.71961 0.84649 0.85244 0.0
O53 O 0.63468 0.75361 0.81766 0.0
O54 O 0.73294 0.69733 0.77598 0.0
O55 O 0.59405 0.63802 0.76808 0.0
C56 C 0.41491 0.53765 0.80476 0.0
O57 O 0.47321 0.51107 0.80412 0.0
O58 O 0.4414 0.61585 0.81773 0.0
C59 C 0.65497 0.54668 0.84727 0.0
C60 C 0.78385 0.0838 0.15047 0.0
C61 C 0.85742 0.12896 0.17076 0.0
C62 C 0.86414 0.12151 0.20895 0.0
C63 C 0.72308 0.04007 0.20811 0.0
C64 C 0.71743 0.03771 0.16983 0.0
C65 C 0.63445 0.98125 0.15414 0.0
H66 H 0.24638 0.76912 0.19226 0.0
C67 C 0.64291 0.99792 0.22112 0.0
C68 C 0.59 0.96139 0.18981 0.0
H69 H 0.35377 0.75027 0.08746 0.0
H70 H 0.48052 0.85542 0.11359 0.0
H71 H 0.37136 0.74468 0.236 0.0
H72 H 0.34559 0.97456 0.21808 0.0
H73 H 0.37195 0.98011 0.2656 0.0
H74 H 0.28037 0.90038 0.24566 0.0
H75 H 0.30302 0.78075 0.26126 0.0
H76 H 0.40594 0.80976 0.27778 0.0
C77 C 0.6412 0.9028 0.13253 0.0
C78 C 0.59903 0.02928 0.13001 0.0
C79 C 0.59985 0.04551 0.35849 0.0
C80 C 0.53185 1.0206 0.37956 0.0
C81 C 0.4567 0.97313 0.36141 0.0
C82 C 0.44965 0.95104 0.32278 0.0
C83 C 0.51858 0.9759 0.30212 0.0
C84 C 0.59194 1.02218 0.32011 0.0
C85 C 0.65917 0.04134 0.2942 0.0
C86 C 0.61377 0.99965 0.25731 0.0
C87 C 0.53175 0.9619 0.26214 0.0
C88 C 0.7178 1.00003 0.30631 0.0
C89 C 0.6973 0.13712 0.29521 0.0
C90 C 0.29625 0.78932 0.17443 0.0
C91 C 0.29016 0.75218 0.13774 0.0
C92 C 0.35743 0.77808 0.1159 0.0
C93 C 0.43086 0.83801 0.13121 0.0
C94 C 0.43728 0.86988 0.16901 0.0
C95 C 0.37015 0.84529 0.18977 0.0
C96 C 0.38864 0.87572 0.23037 0.0
C97 C 0.47823 0.92128 0.23097 0.0
C98 C 0.50682 0.91993 0.19492 0.0
C99 C 0.36578 0.79932 0.25278 0.0
C100 C 0.34417 0.93549 0.24084 0.0
H101 H 0.80624 0.07745 0.25696 0.0
H102 H 0.77793 0.08599 0.12078 0.0
H103 H 0.60202 0.08854 0.1459 0.0
H104 H 0.53558 0.99367 0.12119 0.0
H105 H 0.63288 0.04435 0.10455 0.0
H106 H 0.69252 0.8893 0.14387 0.0
H107 H 0.65031 0.91053 0.10259 0.0
H108 H 0.58827 0.84614 0.13506 0.0
H109 H 0.6587 0.08079 0.37164 0.0
H110 H 0.40331 0.95284 0.37705 0.0
H111 H 0.39087 0.91482 0.31061 0.0
H112 H 0.68993 0.95089 0.32475 0.0
H113 H 0.77214 0.04633 0.32175 0.0
H114 H 0.7361 0.96755 0.28224 0.0
H115 H 0.65007 0.16374 0.29236 0.0
H116 H 0.7374 0.15825 0.27255 0.0
H117 H 0.73204 0.16554 0.32203 0.0
H118 H 0.92019 0.15383 0.22509 0.0
C119 C 0.79754 0.07768 0.22765 0.0
C120 C 0.58899 0.79625 0.48527 0.0
C121 C 0.56451 0.85902 0.5029 0.0
C122 C 0.52133 0.84337 0.53541 0.0
C123 C 0.54621 0.71736 0.53776 0.0
C124 C 0.57593 0.7235 0.5028 0.0
C125 C 0.59355 0.64647 0.48956 0.0
H126 H 0.6268 0.29079 0.53944 0.0
C127 C 0.55562 0.64654 0.55295 0.0
C128 C 0.5721 0.59737 0.5235 0.0
H129 H 0.47092 0.28965 0.44718 0.0
H130 H 0.49695 0.43752 0.46563 0.0
H131 H 0.76408 0.48534 0.54643 0.0
H132 H 0.53339 0.38121 0.59458 0.0
H133 H 0.6134 0.43103 0.62865 0.0
H134 H 0.61206 0.34205 0.6 0.0
H135 H 0.75138 0.42483 0.58494 0.0
H136 H 0.76808 0.53434 0.59182 0.0
C137 C 0.68304 0.67069 0.48225 0.0
C138 C 0.54114 0.60118 0.45421 0.0
C139 C 0.62362 0.68323 0.69214 0.0
C140 C 0.66905 0.65224 0.71395 0.0
C141 C 0.70759 0.60205 0.69667 0.0
C142 C 0.69608 0.57823 0.65807 0.0
C143 C 0.64557 0.60499 0.63695 0.0
C144 C 0.6148 0.66108 0.65362 0.0
C145 C 0.57077 0.69115 0.62619 0.0
C146 C 0.57892 0.64187 0.59016 0.0
C147 C 0.61953 0.58891 0.59708 0.0
C148 C 0.61348 0.78663 0.62664 0.0
C149 C 0.48248 0.66516 0.63652 0.0
C150 C 0.602 0.32312 0.52168 0.0
C151 C 0.54965 0.27935 0.49088 0.0
C152 C 0.51415 0.3227 0.46997 0.0
C153 C 0.53076 0.40825 0.4798 0.0
C154 C 0.58378 0.45069 0.51048 0.0
C155 C 0.61458 0.40684 0.53218 0.0
C156 C 0.64549 0.45339 0.57023 0.0
C157 C 0.624 0.52971 0.56808 0.0
C158 C 0.59539 0.53116 0.53196 0.0
C159 C 0.73701 0.47546 0.57389 0.0
C160 C 0.599 0.39953 0.60012 0.0
H161 H 0.47835 0.76285 0.5773 0.0
H162 H 0.61867 0.80448 0.45931 0.0
H163 H 0.47729 0.57226 0.46073 0.0
H164 H 0.56185 0.55298 0.44079 0.0
H165 H 0.54539 0.64522 0.43335 0.0
H166 H 0.72092 0.70577 0.50752 0.0
H167 H 0.69922 0.71009 0.45904 0.0
H168 H 0.69725 0.6143 0.4746 0.0
H169 H 0.59456 0.72306 0.70498 0.0
H170 H 0.74321 0.57808 0.71323 0.0
H171 H 0.72497 0.5382 0.64617 0.0
H172 H 0.65835 0.80216 0.60504 0.0
H173 H 0.64579 0.81644 0.65386 0.0
H174 H 0.57083 0.81803 0.6227 0.0
H175 H 0.4593 0.60026 0.6438 0.0
H176 H 0.44276 0.66648 0.61315 0.0
H177 H 0.47638 0.70647 0.66083 0.0
H178 H 0.49805 0.88791 0.54866 0.0
C179 C 0.51174 0.77257 0.55272 0.0
C180 C 0.2745 0.51674 0.79489 0.0
C181 C 0.33122 0.48431 0.80489 0.0
C182 C 0.30966 0.41677 0.82623 0.0
C183 C 0.18623 0.43684 0.8385 0.0
C184 C 0.2027 0.4933 0.81259 0.0
C185 C 0.1456 0.53776 0.8127 0.0
H186 H 0.89412 0.67061 0.90713 0.0
C187 C 0.11871 0.44269 0.85939 0.0
C188 C 0.09321 0.49989 0.84358 0.0
H189 H 0.99893 0.74477 0.80334 0.0
H190 H 1.05654 0.63938 0.80147 0.0
H191 H 0.83872 0.46743 0.87169 0.0
H192 H 1.03345 0.58352 0.95693 0.0
H193 H 0.93025 0.54031 0.96911 0.0
H194 H 0.96804 0.63923 0.95408 0.0
H195 H 0.81906 0.51495 0.91499 0.0
H196 H 0.84124 0.42181 0.913 0.0
C197 C 0.09792 0.51334 0.7745 0.0
C198 C 0.19439 0.63279 0.82241 0.0
C199 C 0.09214 0.37512 -0.00707 0.0
C200 C 1.03641 0.38022 0.01893 0.0
C201 C 0.96461 0.3872 0.00684 0.0
C202 C 0.95262 0.399 0.96988 0.0
C203 C 1.01395 0.40609 0.94559 0.0
C204 C 0.07835 0.38608 0.95582 0.0
C205 C 0.12998 0.38399 0.92353 0.0
C206 C 0.08977 0.41521 0.89391 0.0
C207 C 1.02485 0.43292 0.90828 0.0
C208 C 0.12361 0.29316 0.91268 0.0
C209 C 0.21654 0.44472 0.93478 0.0
C210 C 0.93309 0.66711 0.88497 0.0
C211 C 0.94501 0.7182 0.85604 0.0
C212 C 0.99137 0.70792 0.82646 0.0
C213 C 1.02317 0.64554 0.82511 0.0
C214 C 1.00911 0.59377 0.85385 0.0
C215 C 0.96418 0.60441 0.88297 0.0
C216 C 0.94648 0.53678 0.90822 0.0
C217 C 0.99853 0.49054 0.8922 0.0
C218 C 1.03349 0.52407 0.86013 0.0
C219 C 0.8565 0.48223 0.90197 0.0
C220 C 0.97102 0.57645 0.94916 0.0
H221 H 0.22378 0.34484 0.86139 0.0
H222 H 0.29045 0.56835 0.77823 0.0
H223 H 0.25431 0.64547 0.83601 0.0
H224 H 0.1666 0.66343 0.84307 0.0
H225 H 0.20429 0.66578 0.7971 0.0
H226 H 0.08619 0.44745 0.76396 0.0
H227 H 0.13157 0.5525 0.75332 0.0
H228 H 1.0379 0.51724 0.77604 0.0
H229 H 0.14644 0.36697 0.00171 0.0
H230 H 0.91987 0.38818 0.02644 0.0
H231 H 0.8974 0.4043 0.96154 0.0
H232 H 0.10607 0.27284 0.88267 0.0
H233 H 0.07709 0.24806 0.92788 0.0
H234 H 0.18105 0.28543 0.91898 0.0
H235 H 0.21726 0.50781 0.94424 0.0
H236 H 0.25698 0.45088 0.91172 0.0
H237 H 0.24284 0.42333 0.95783 0.0
H238 H 0.35311 0.39033 0.83372 0.0
C239 C 0.23604 0.39205 0.84297 0.0
C240 C 0.91205 0.35255 0.48888 0.0
C241 C 0.87333 0.26922 0.47422 0.0
C242 C 0.89398 0.24044 0.43966 0.0
C243 C 0.98135 0.38026 0.43183 0.0
C244 C 0.96765 0.40668 0.46753 0.0
C245 C 1.01696 0.4971 0.47864 0.0
H246 H 0.2794 0.85728 0.42873 0.0
C247 C 1.0329 0.45318 0.41487 0.0
C248 C 1.05581 0.52169 0.44236 0.0
H249 H 0.21412 0.79881 0.53974 0.0
H250 H 0.11563 0.66476 0.51429 0.0
H251 H 0.30239 0.7029 0.40432 0.0
H252 H 0.09197 0.7601 0.38607 0.0
H253 H 0.10628 0.70724 0.34444 0.0
H254 H 0.18237 0.80518 0.36257 0.0
H255 H 0.29631 0.76827 0.36989 0.0
H256 H 0.26276 0.657 0.35938 0.0
C257 C 0.07935 0.50332 0.51013 0.0
C258 C 0.96033 0.5435 0.48966 0.0
C259 C 1.05838 0.43124 0.27462 0.0
C260 C 0.09836 0.48969 0.25051 0.0
C261 C 0.14447 0.57171 0.26557 0.0
C262 C 0.14923 0.59567 0.30392 0.0
C263 C 0.10798 0.53697 0.32767 0.0
C264 C 0.06443 0.45605 0.31301 0.0
C265 C 1.02686 0.4016 0.3427 0.0
C266 C 1.05287 0.46419 0.37742 0.0
C267 C 0.09978 0.54325 0.36833 0.0
C268 C 0.06362 0.33356 0.34308 0.0
C269 C 0.93495 0.36708 0.33471 0.0
C270 C 0.24133 0.81679 0.44739 0.0
C271 C 0.25251 0.83842 0.48603 0.0
C272 C 0.20469 0.78363 0.50981 0.0
C273 C 0.14923 0.70543 0.49501 0.0
C274 C 0.14355 0.68196 0.45629 0.0
C275 C 0.18797 0.73819 0.43314 0.0
C276 C 0.18025 0.701 0.39325 0.0
C277 C 0.12672 0.61192 0.39643 0.0
C278 C 0.10453 0.60132 0.43324 0.0
C279 C 0.26454 0.70785 0.38069 0.0
C280 C 0.13858 0.74563 0.37006 0.0
H281 H 0.95856 0.27128 0.39137 0.0
H282 H 0.89716 0.37539 0.51564 0.0
H283 H 0.91005 0.52676 0.46832 0.0
H284 H 0.99066 0.61164 0.49179 0.0
H285 H 0.93437 0.52697 0.51679 0.0
H286 H 0.0887 0.44374 0.51111 0.0
H287 H 1.06013 0.51974 0.5379 0.0
H288 H 0.13947 0.54919 0.50593 0.0
H289 H 1.02356 0.36746 0.26392 0.0
H290 H 0.17607 0.61805 0.24764 0.0
H291 H 0.18483 0.65911 0.31353 0.0
H292 H 0.1215 0.35079 0.32929 0.0
H293 H 1.0228 0.27339 0.32837 0.0
H294 H 0.07835 0.32413 0.37177 0.0
H295 H 0.91394 0.41812 0.32972 0.0
H296 H 0.90128 0.3371 0.35788 0.0
H297 H 0.91741 0.32086 0.30953 0.0
H298 H 0.86386 0.17635 0.42793 0.0
C299 C 0.94773 0.29576 0.41825 0.0
C300 C 0.64518 0.96561 0.84314 0.0
C301 C 0.61354 0.88255 0.82656 0.0
C302 C 0.55572 0.86028 0.79668 0.0
C303 C 0.57775 1.00486 0.79426 0.0
C304 C 0.62529 0.02594 0.8268 0.0
C305 C 0.65528 0.11829 0.83886 0.0
H306 H 0.72139 0.49986 0.78703 0.0
C307 C 0.58362 0.0813 0.77878 0.0
C308 C 0.62236 0.14826 0.80614 0.0
H309 H 0.62402 0.42158 0.89127 0.0
H310 H 0.61262 0.2805 0.87018 0.0
H311 H 0.82079 0.3715 0.76378 0.0
H312 H 0.5792 0.36172 0.74803 0.0
H313 H 0.60999 0.32881 0.70531 0.0
H314 H 0.66347 0.43156 0.72696 0.0
H315 H 0.79227 0.41934 0.72717 0.0
H316 H 0.78246 0.3116 0.72084 0.0
C317 C 0.74763 0.15494 0.84178 0.0
C318 C 0.62081 0.1334 0.87649 0.0
C319 C 0.55539 0.06602 0.63761 0.0
C320 C 0.59304 0.12404 0.61302 0.0
C321 C 0.6459 0.20394 0.62718 0.0
C322 C 0.65787 0.22757 0.66554 0.0
C323 C 0.61786 0.16999 0.68991 0.0
C324 C 0.5711 0.08949 0.676 0.0
C325 C 0.54576 0.03317 0.70626 0.0
C326 C 0.58163 0.09514 0.74074 0.0
C327 C 0.62108 0.17531 0.73072 0.0
C328 C 0.58279 0.96494 0.70023 0.0
C329 C 0.45339 0.99755 0.70572 0.0
C330 C 0.7045 0.45423 0.80674 0.0
C331 C 0.67651 0.47242 0.84131 0.0
C332 C 0.6492 0.40978 0.86525 0.0
C333 C 0.64495 0.32873 0.85374 0.0
C334 C 0.6702 0.31076 0.81856 0.0
C335 C 0.69597 0.37222 0.79494 0.0
C336 C 0.68984 0.3361 0.75476 0.0
C337 C 0.65286 0.2438 0.75853 0.0
C338 C 0.64822 0.23008 0.79599 0.0
C339 C 0.77549 0.36106 0.74059 0.0
C340 C 0.63306 0.36597 0.73231 0.0
H341 H 0.49332 0.90253 0.75778 0.0
H342 H 0.68758 0.9837 0.86698 0.0
H343 H 0.55791 0.12925 0.87259 0.0
H344 H 0.65797 0.19438 0.89164 0.0
H345 H 0.62149 0.08677 0.89526 0.0
H346 H 0.77222 0.14032 0.81509 0.0
H347 H 0.7714 0.12956 0.86424 0.0
H348 H 0.76991 0.22356 0.84835 0.0
H349 H 0.51757 1.00295 0.62717 0.0
H350 H 0.67742 0.24845 0.60849 0.0
H351 H 0.69789 0.28961 0.67481 0.0
H352 H 0.63233 0.97537 0.72119 0.0
H353 H 0.60896 0.96318 0.67263 0.0
H354 H 0.53739 0.90167 0.701 0.0
H355 H 0.42916 0.04746 0.70355 0.0
H356 H 0.43112 0.96978 0.7315 0.0
H357 H 0.42795 0.9495 0.68154 0.0
H358 H 0.52828 0.79632 0.78439 0.0
C359 C 0.53715 0.92143 0.78064 0.0
C360 C 0.79774 0.4458 0.14021 0.0
C361 C 0.87286 0.46559 0.12274 0.0
C362 C 0.87756 0.49414 0.0876 0.0
C363 C 0.74106 0.4913 0.08856 0.0
C364 C 0.73144 0.45772 0.12199 0.0
C365 C 0.64416 0.4375 0.13325 0.0
H366 H 0.28163 0.49014 0.09234 0.0
C367 C 0.66699 0.50478 0.07761 0.0
C368 C 0.60761 0.47308 0.1032 0.0
H369 H 0.31161 0.33545 0.17256 0.0
H370 H 0.45426 0.3748 0.15912 0.0
H371 H 0.45241 0.64243 0.10735 0.0
H372 H 0.35715 0.41705 0.03324 0.0
H373 H 0.4239 0.48763 0.00684 0.0
H374 H 0.33927 0.50872 0.02478 0.0
H375 H 0.38436 0.62812 0.06814 0.0
H376 H 0.49138 0.6677 0.064 0.0
C377 C 0.64288 0.48031 0.17238 0.0
C378 C 0.60282 0.34251 0.13109 0.0
C379 C 0.67495 0.65414 0.96342 0.0
C380 C 0.61749 0.67467 0.94412 0.0
C381 C 0.54435 0.66507 0.96034 0.0
C382 C 0.52728 0.6313 -0.00569 0.0
C383 C 0.58319 0.60508 0.01184 0.0
C384 C 0.65608 0.61848 -0.00338 0.0
C385 C 0.70751 0.58494 0.0179 0.0
C386 C 0.653 0.54759 0.04842 0.0
C387 C 0.58043 0.55932 0.04466 0.0
C388 C 0.7834 0.65993 0.03349 0.0
C389 C 0.72379 0.51727 -0.00862 0.0
C390 C 0.31872 0.46608 0.10786 0.0
C391 C 0.28484 0.41129 0.1341 0.0
C392 C 0.33577 0.37847 0.15222 0.0
C393 C 0.41831 0.40058 0.14425 0.0
C394 C 0.45044 0.45377 0.11673 0.0
C395 C 0.39927 0.48441 0.09912 0.0
C396 C 0.4368 0.53147 0.06774 0.0
C397 C 0.51901 0.52602 0.06916 0.0
C398 C 0.5301 0.48167 0.09829 0.0
C399 C 0.44131 0.62215 0.07691 0.0
C400 C 0.38694 0.48476 0.0312 0.0
H401 H 0.824 0.5308 0.0444 0.0
H402 H 0.79127 0.42277 0.16716 0.0
H403 H 0.60872 0.31276 0.10316 0.0
H404 H 0.53832 0.3234 0.13561 0.0
H405 H 0.63051 0.31762 0.15233 0.0
H406 H 0.67576 0.54845 0.17351 0.0
H407 H 0.67166 0.45623 0.1935 0.0
H408 H 0.58069 0.46952 0.18006 0.0
H409 H 0.73178 0.66012 0.9518 0.0
H410 H 0.49913 0.68067 0.94612 0.0
H411 H 0.46989 0.62419 0.00478 0.0
H412 H 0.76888 0.71622 0.04117 0.0
H413 H 0.82961 0.67556 0.0125 0.0
H414 H 0.81013 0.65014 0.05946 0.0
H415 H 0.67718 0.49042 0.96816 0.0
H416 H 0.72191 0.46305 0.00556 0.0
H417 H 0.78246 0.54313 0.97875 0.0
H418 H 0.93321 0.51026 0.07353 0.0
C419 C 0.81336 0.50695 0.07072 0.0
loop_
_geom_bond_atom_site_label_1
_geom_bond_atom_site_label_2
_geom_bond_distance
_geom_bond_site_symmetry_2
_ccdc_geom_bond_type
Tb0 O3 2.453 1_455 S
Tb0 O4 2.596 1_455 S
Tb0 O5 2.374 . S
Tb0 O13 2.343 . S
Tb0 O15 2.353 . S
Tb0 O17 2.427 . S
Tb0 O18 2.513 . S
C1 O5 1.251 . S
C1 O7 1.263 . S
Tb2 O4 2.343 . S
Tb2 O7 2.353 1_655 S
Tb2 O10 2.427 . S
Tb2 O11 2.513 . S
Tb2 O12 2.453 1_655 S
Tb2 O13 2.596 1_655 S
Tb2 O14 2.374 1_655 S
O3 Tb0 2.453 1_655 S
O3 C19 1.245 . S
O4 Tb0 2.596 1_655 S
O4 Tb2 2.343 . S
O4 C19 1.259 . S
O5 Tb0 2.374 . S
O5 C1 1.251 . S
C6 O10 1.275 . S
C6 O11 1.246 . S
O7 C1 1.263 . S
O7 Tb2 2.353 1_455 S
C8 O12 1.245 . S
C8 O13 1.259 . S
C9 O14 1.250 . S
C9 O15 1.263 . S
O10 Tb2 2.427 . S
O10 C6 1.275 . S
O11 Tb2 2.513 . S
O11 C6 1.246 . S
O12 Tb2 2.453 1_455 S
O12 C8 1.245 . S
O13 Tb0 2.343 . S
O13 Tb2 2.596 1_455 S
O13 C8 1.259 . S
O14 Tb2 2.374 1_455 S
O14 C9 1.250 . S
O15 Tb0 2.353 . S
O15 C9 1.263 . S
C16 O17 1.275 . S
C16 O18 1.246 . S
O17 Tb0 2.427 . S
O17 C16 1.275 . S
O18 Tb0 2.513 . S
O18 C16 1.246 . S
C19 O3 1.245 . S
C19 O4 1.259 . S
Tb20 O23 2.453 . S
Tb20 O24 2.596 . S
Tb20 O25 2.374 . S
Tb20 O33 2.343 1_545 S
Tb20 O35 2.353 . S
Tb20 O37 2.427 1_545 S
Tb20 O38 2.513 1_545 S
C21 O25 1.251 . S
C21 O27 1.263 . S
Tb22 O24 2.343 . S
Tb22 O27 2.353 . S
Tb22 O30 2.427 . S
Tb22 O31 2.513 . S
Tb22 O32 2.453 1_545 S
Tb22 O33 2.596 1_545 S
Tb22 O34 2.374 . S
O23 Tb20 2.453 . S
O23 C39 1.245 . S
O24 Tb20 2.596 . S
O24 Tb22 2.343 . S
O24 C39 1.259 . S
O25 Tb20 2.374 . S
O25 C21 1.251 . S
C26 O30 1.275 . S
C26 O31 1.246 . S
O27 C21 1.263 . S
O27 Tb22 2.353 . S
C28 O32 1.245 . S
C28 O33 1.259 . S
C29 O34 1.250 . S
C29 O35 1.263 . S
O30 Tb22 2.427 . S
O30 C26 1.275 . S
O31 Tb22 2.513 . S
O31 C26 1.246 . S
O32 Tb22 2.453 1_565 S
O32 C28 1.245 . S
O33 Tb20 2.343 1_565 S
O33 Tb22 2.596 1_565 S
O33 C28 1.259 . S
O34 Tb22 2.374 . S
O34 C29 1.250 . S
O35 Tb20 2.353 . S
O35 C29 1.263 . S
C36 O37 1.275 . S
C36 O38 1.246 . S
O37 Tb20 2.427 1_565 S
O37 C36 1.275 . S
O38 Tb20 2.513 1_565 S
O38 C36 1.246 . S
C39 O23 1.245 . S
C39 O24 1.259 . S
Tb40 O43 2.453 . S
Tb40 O44 2.596 . S
Tb40 O45 2.374 . S
Tb40 O53 2.343 . S
Tb40 O55 2.353 . S
Tb40 O57 2.427 . S
Tb40 O58 2.513 . S
C41 O45 1.251 . S
C41 O47 1.263 . S
Tb42 O44 2.343 . S
Tb42 O47 2.353 . S
Tb42 O50 2.427 . S
Tb42 O51 2.513 . S
Tb42 O52 2.453 . S
Tb42 O53 2.596 . S
Tb42 O54 2.374 . S
O43 Tb40 2.453 . S
O43 C59 1.245 . S
O44 Tb40 2.596 . S
O44 Tb42 2.343 . S
O44 C59 1.259 . S
O45 Tb40 2.374 . S
O45 C41 1.251 . S
C46 O50 1.275 . S
C46 O51 1.246 . S
O47 C41 1.263 . S
O47 Tb42 2.353 . S
C48 O52 1.245 . S
C48 O53 1.259 . S
C49 O54 1.250 . S
C49 O55 1.263 . S
O50 Tb42 2.427 . S
O50 C46 1.275 . S
O51 Tb42 2.513 . S
O51 C46 1.246 . S
O52 Tb42 2.453 . S
O52 C48 1.245 . S
O53 Tb40 2.343 . S
O53 Tb42 2.596 . S
O53 C48 1.259 . S
O54 Tb42 2.374 . S
O54 C49 1.250 . S
O55 Tb40 2.353 . S
O55 C49 1.263 . S
C56 O57 1.275 . S
C56 O58 1.246 . S
O57 Tb40 2.427 . S
O57 C56 1.275 . S
O58 Tb40 2.513 . S
O58 C56 1.246 . S
C59 O43 1.245 . S
C59 O44 1.259 . S
C60 C61 1.391 . S
C60 C64 1.391 . S
C60 H102 0.948 . S
C61 C60 1.391 . S
C61 C62 1.391 . S
C62 C61 1.391 . S
C62 H118 0.947 . S
C62 C119 1.392 . S
C63 C64 1.391 . S
C63 C67 1.397 . S
C63 C119 1.419 . S
C64 C60 1.391 . S
C64 C63 1.391 . S
C64 C65 1.399 . S
C65 C64 1.399 . S
C65 C68 1.396 . S
C65 C77 1.453 . S
C65 C78 1.684 . S
H66 C90 0.948 . S
C67 C63 1.397 . S
C67 C68 1.394 . S
C67 C86 1.723 . S
C68 C65 1.396 . S
C68 C67 1.394 . S
C68 C98 1.723 1_545 S
H69 C92 0.947 . S
H70 C93 0.948 . S
H71 C99 0.982 . S
H72 C100 0.979 . S
H73 C100 0.980 . S
H74 C100 0.983 . S
H75 C99 0.979 . S
H76 C99 0.977 . S
C77 C65 1.453 . S
C77 H106 0.982 . S
C77 H107 0.979 . S
C77 H108 0.977 1_545 S
C78 C65 1.684 . S
C78 H103 0.979 . S
C78 H104 0.980 . S
C78 H105 0.983 . S
C79 C80 1.391 . S
C79 C84 1.391 . S
C79 H109 0.948 . S
C80 C79 1.391 . S
C80 C81 1.391 . S
C81 C80 1.391 . S
C81 C82 1.392 1_545 S
C81 H110 0.947 1_545 S
C82 C81 1.392 1_565 S
C82 C83 1.419 1_565 S
C82 H111 0.948 . S
C83 C82 1.419 1_545 S
C83 C84 1.391 . S
C83 C87 1.397 . S
C84 C79 1.391 . S
C84 C83 1.391 . S
C84 C85 1.399 . S
C85 C84 1.399 . S
C85 C86 1.396 . S
C85 C88 1.453 . S
C85 C89 1.684 . S
C86 C67 1.723 . S
C86 C85 1.396 . S
C86 C87 1.394 . S
C87 C83 1.397 . S
C87 C86 1.394 . S
C87 C97 1.723 1_545 S
C88 C85 1.453 . S
C88 H112 0.982 . S
C88 H113 0.979 . S
C88 H114 0.977 . S
C89 C85 1.684 . S
C89 H115 0.979 . S
C89 H116 0.980 . S
C89 H117 0.983 . S
C90 H66 0.948 . S
C90 C91 1.391 . S
C90 C95 1.391 . S
C91 C90 1.391 . S
C91 C92 1.391 . S
C92 H69 0.947 . S
C92 C91 1.391 . S
C92 C93 1.392 . S
C93 H70 0.948 . S
C93 C92 1.392 . S
C93 C94 1.419 . S
C94 C93 1.419 . S
C94 C95 1.391 . S
C94 C98 1.397 . S
C95 C90 1.391 . S
C95 C94 1.391 . S
C95 C96 1.399 . S
C96 C95 1.399 . S
C96 C97 1.396 . S
C96 C99 1.453 . S
C96 C100 1.684 . S
C97 C87 1.723 1_565 S
C97 C96 1.396 . S
C97 C98 1.394 . S
C98 C68 1.723 1_565 S
C98 C94 1.397 . S
C98 C97 1.394 . S
C99 H71 0.982 . S
C99 H75 0.979 . S
C99 H76 0.977 . S
C99 C96 1.453 . S
C100 H72 0.979 . S
C100 H73 0.980 . S
C100 H74 0.983 . S
C100 C96 1.684 . S
H101 C119 0.948 . S
H102 C60 0.948 . S
H103 C78 0.979 . S
H104 C78 0.980 . S
H105 C78 0.983 . S
H106 C77 0.982 . S
H107 C77 0.979 . S
H108 C77 0.977 1_565 S
H109 C79 0.948 . S
H110 C81 0.947 1_565 S
H111 C82 0.948 . S
H112 C88 0.982 . S
H113 C88 0.979 . S
H114 C88 0.977 . S
H115 C89 0.979 . S
H116 C89 0.980 . S
H117 C89 0.983 . S
H118 C62 0.947 . S
C119 C62 1.392 . S
C119 C63 1.419 . S
C119 H101 0.948 . S
C120 C121 1.391 . S
C120 C124 1.391 . S
C120 H162 0.948 . S
C121 C120 1.391 . S
C121 C122 1.391 . S
C122 C121 1.391 . S
C122 H178 0.947 . S
C122 C179 1.392 . S
C123 C124 1.391 . S
C123 C127 1.397 . S
C123 C179 1.419 . S
C124 C120 1.391 . S
C124 C123 1.391 . S
C124 C125 1.399 . S
C125 C124 1.399 . S
C125 C128 1.396 . S
C125 C137 1.453 . S
C125 C138 1.684 . S
H126 C150 0.948 . S
C127 C123 1.397 . S
C127 C128 1.394 . S
C127 C146 1.723 . S
C128 C125 1.396 . S
C128 C127 1.394 . S
C128 C158 1.723 . S
H129 C152 0.947 . S
H130 C153 0.948 . S
H131 C159 0.982 . S
H132 C160 0.979 . S
H133 C160 0.980 . S
H134 C160 0.983 . S
H135 C159 0.979 . S
H136 C159 0.977 . S
C137 C125 1.453 . S
C137 H166 0.982 . S
C137 H167 0.979 . S
C137 H168 0.977 . S
C138 C125 1.684 . S
C138 H163 0.979 . S
C138 H164 0.980 . S
C138 H165 0.983 . S
C139 C140 1.391 . S
C139 C144 1.391 . S
C139 H169 0.948 . S
C140 C139 1.391 . S
C140 C141 1.391 . S
C141 C140 1.391 . S
C141 C142 1.392 . S
C141 H170 0.947 . S
C142 C141 1.392 . S
C142 C143 1.419 . S
C142 H171 0.948 . S
C143 C142 1.419 . S
C143 C144 1.391 . S
C143 C147 1.397 . S
C144 C139 1.391 . S
C144 C143 1.391 . S
C144 C145 1.399 . S
C145 C144 1.399 . S
C145 C146 1.396 . S
C145 C148 1.453 . S
C145 C149 1.684 . S
C146 C127 1.723 . S
C146 C145 1.396 . S
C146 C147 1.394 . S
C147 C143 1.397 . S
C147 C146 1.394 . S
C147 C157 1.723 . S
C148 C145 1.453 . S
C148 H172 0.982 . S
C148 H173 0.979 . S
C148 H174 0.977 . S
C149 C145 1.684 . S
C149 H175 0.979 . S
C149 H176 0.980 . S
C149 H177 0.983 . S
C150 H126 0.948 . S
C150 C151 1.391 . S
C150 C155 1.391 . S
C151 C150 1.391 . S
C151 C152 1.391 . S
C152 H129 0.947 . S
C152 C151 1.391 . S
C152 C153 1.392 . S
C153 H130 0.948 . S
C153 C152 1.392 . S
C153 C154 1.419 . S
C154 C153 1.419 . S
C154 C155 1.391 . S
C154 C158 1.397 . S
C155 C150 1.391 . S
C155 C154 1.391 . S
C155 C156 1.399 . S
C156 C155 1.399 . S
C156 C157 1.396 . S
C156 C159 1.453 . S
C156 C160 1.684 . S
C157 C147 1.723 . S
C157 C156 1.396 . S
C157 C158 1.394 . S
C158 C128 1.723 . S
C158 C154 1.397 . S
C158 C157 1.394 . S
C159 H131 0.982 . S
C159 H135 0.979 . S
C159 H136 0.977 . S
C159 C156 1.453 . S
C160 H132 0.979 . S
C160 H133 0.980 . S
C160 H134 0.983 . S
C160 C156 1.684 . S
H161 C179 0.948 . S
H162 C120 0.948 . S
H163 C138 0.979 . S
H164 C138 0.980 . S
H165 C138 0.983 . S
H166 C137 0.982 . S
H167 C137 0.979 . S
H168 C137 0.977 . S
H169 C139 0.948 . S
H170 C141 0.947 . S
H171 C142 0.948 . S
H172 C148 0.982 . S
H173 C148 0.979 . S
H174 C148 0.977 . S
H175 C149 0.979 . S
H176 C149 0.980 . S
H177 C149 0.983 . S
H178 C122 0.947 . S
C179 C122 1.392 . S
C179 C123 1.419 . S
C179 H161 0.948 . S
C180 C181 1.391 . S
C180 C184 1.391 . S
C180 H222 0.948 . S
C181 C180 1.391 . S
C181 C182 1.391 . S
C182 C181 1.391 . S
C182 H238 0.947 . S
C182 C239 1.392 . S
C183 C184 1.391 . S
C183 C187 1.397 . S
C183 C239 1.419 . S
C184 C180 1.391 . S
C184 C183 1.391 . S
C184 C185 1.399 . S
C185 C184 1.399 . S
C185 C188 1.396 . S
C185 C197 1.453 . S
C185 C198 1.684 . S
H186 C210 0.948 . S
C187 C183 1.397 . S
C187 C188 1.394 . S
C187 C206 1.723 . S
C188 C185 1.396 . S
C188 C187 1.394 . S
C188 C218 1.723 . S
H189 C212 0.947 . S
H190 C213 0.939 1_455 S
H191 C219 0.982 . S
H192 C220 0.979 . S
H193 C220 0.980 . S
H194 C220 0.983 . S
H195 C219 0.979 . S
H196 C219 0.977 . S
C197 C185 1.453 . S
C197 H226 0.982 . S
C197 H227 0.979 . S
C197 H228 0.977 . S
C198 C185 1.684 . S
C198 H223 0.979 . S
C198 H224 0.980 . S
C198 H225 0.983 . S
C199 C200 1.391 . S
C199 C204 1.391 1_554 S
C199 H229 0.948 . S
C200 C199 1.391 . S
C200 C201 1.391 1_455 S
C201 C200 1.391 1_655 S
C201 C202 1.392 1_554 S
C201 H230 0.947 . S
C202 C201 1.392 1_556 S
C202 C203 1.419 1_655 S
C202 H231 0.948 . S
C203 C202 1.419 1_455 S
C203 C204 1.391 . S
C203 C207 1.397 . S
C204 C199 1.391 1_556 S
C204 C203 1.391 . S
C204 C205 1.399 . S
C205 C204 1.399 . S
C205 C206 1.396 . S
C205 C208 1.453 . S
C205 C209 1.684 . S
C206 C187 1.723 . S
C206 C205 1.396 . S
C206 C207 1.394 . S
C207 C203 1.397 . S
C207 C206 1.394 . S
C207 C217 1.723 1_455 S
C208 C205 1.453 . S
C208 H232 0.982 . S
C208 H233 0.979 . S
C208 H234 0.977 . S
C209 C205 1.684 . S
C209 H235 0.979 . S
C209 H236 0.980 . S
C209 H237 0.983 . S
C210 H186 0.948 . S
C210 C211 1.391 . S
C210 C215 1.391 . S
C211 C210 1.391 . S
C211 C212 1.391 . S
C212 H189 0.947 . S
C212 C211 1.391 . S
C212 C213 1.392 . S
C213 H190 0.939 1_655 S
C213 C212 1.392 . S
C213 C214 1.419 . S
C214 C213 1.419 . S
C214 C215 1.391 . S
C214 C218 1.397 1_655 S
C215 C210 1.391 . S
C215 C214 1.391 . S
C215 C216 1.399 . S
C216 C215 1.399 . S
C216 C217 1.396 . S
C216 C219 1.453 . S
C216 C220 1.684 . S
C217 C207 1.723 1_655 S
C217 C216 1.396 . S
C217 C218 1.394 1_655 S
C218 C188 1.723 . S
C218 C214 1.397 1_455 S
C218 C217 1.394 1_455 S
C219 H191 0.982 . S
C219 H195 0.979 . S
C219 H196 0.977 . S
C219 C216 1.453 . S
C220 H192 0.979 . S
C220 H193 0.980 . S
C220 H194 0.983 . S
C220 C216 1.684 . S
H221 C239 0.948 . S
H222 C180 0.948 . S
H223 C198 0.979 . S
H224 C198 0.980 . S
H225 C198 0.983 . S
H226 C197 0.982 . S
H227 C197 0.979 . S
H228 C197 0.977 . S
H229 C199 0.948 . S
H230 C201 0.947 . S
H231 C202 0.948 . S
H232 C208 0.982 . S
H233 C208 0.979 . S
H234 C208 0.977 . S
H235 C209 0.979 . S
H236 C209 0.980 . S
H237 C209 0.983 . S
H238 C182 0.947 . S
C239 C182 1.392 . S
C239 C183 1.419 . S
C239 H221 0.948 . S
C240 C241 1.391 . S
C240 C244 1.391 . S
C240 H282 0.948 . S
C241 C240 1.391 . S
C241 C242 1.391 . S
C242 C241 1.391 . S
C242 H298 0.947 . S
C242 C299 1.392 . S
C243 C244 1.391 . S
C243 C247 1.397 . S
C243 C299 1.419 . S
C244 C240 1.391 . S
C244 C243 1.391 . S
C244 C245 1.399 . S
C245 C244 1.399 . S
C245 C248 1.396 . S
C245 C257 1.453 . S
C245 C258 1.684 . S
H246 C270 0.948 . S
C247 C243 1.397 . S
C247 C248 1.394 . S
C247 C266 1.723 . S
C248 C245 1.396 . S
C248 C247 1.394 . S
C248 C278 1.723 1_655 S
H249 C272 0.947 . S
H250 C273 0.948 . S
H251 C279 0.982 . S
H252 C280 0.979 . S
H253 C280 0.980 . S
H254 C280 0.983 . S
H255 C279 0.979 . S
H256 C279 0.977 . S
C257 C245 1.453 . S
C257 H286 0.982 1_655 S
C257 H287 0.979 . S
C257 H288 0.977 1_655 S
C258 C245 1.684 . S
C258 H283 0.979 . S
C258 H284 0.980 . S
C258 H285 0.983 . S
C259 C260 1.391 1_655 S
C259 C264 1.391 . S
C259 H289 0.948 . S
C260 C259 1.391 1_455 S
C260 C261 1.391 . S
C261 C260 1.391 . S
C261 C262 1.392 . S
C261 H290 0.947 . S
C262 C261 1.392 . S
C262 C263 1.419 . S
C262 H291 0.948 . S
C263 C262 1.419 . S
C263 C264 1.391 1_455 S
C263 C267 1.397 . S
C264 C259 1.391 . S
C264 C263 1.391 1_655 S
C264 C265 1.399 . S
C265 C264 1.399 . S
C265 C266 1.396 . S
C265 C268 1.453 . S
C265 C269 1.684 . S
C266 C247 1.723 . S
C266 C265 1.396 . S
C266 C267 1.394 1_655 S
C267 C263 1.397 . S
C267 C266 1.394 1_455 S
C267 C277 1.723 . S
C268 C265 1.453 . S
C268 H292 0.982 . S
C268 H293 0.979 . S
C268 H294 0.977 . S
C269 C265 1.684 . S
C269 H295 0.979 . S
C269 H296 0.980 . S
C269 H297 0.983 . S
C270 H246 0.948 . S
C270 C271 1.391 . S
C270 C275 1.391 . S
C271 C270 1.391 . S
C271 C272 1.391 . S
C272 H249 0.947 . S
C272 C271 1.391 . S
C272 C273 1.392 . S
C273 H250 0.948 . S
C273 C272 1.392 . S
C273 C274 1.419 . S
C274 C273 1.419 . S
C274 C275 1.391 . S
C274 C278 1.397 . S
C275 C270 1.391 . S
C275 C274 1.391 . S
C275 C276 1.399 . S
C276 C275 1.399 . S
C276 C277 1.396 . S
C276 C279 1.453 . S
C276 C280 1.684 . S
C277 C267 1.723 . S
C277 C276 1.396 . S
C277 C278 1.394 . S
C278 C248 1.723 1_455 S
C278 C274 1.397 . S
C278 C277 1.394 . S
C279 H251 0.982 . S
C279 H255 0.979 . S
C279 H256 0.977 . S
C279 C276 1.453 . S
C280 H252 0.979 . S
C280 H253 0.980 . S
C280 H254 0.983 . S
C280 C276 1.684 . S
H281 C299 0.948 . S
H282 C240 0.948 . S
H283 C258 0.979 . S
H284 C258 0.980 . S
H285 C258 0.983 . S
H286 C257 0.982 1_455 S
H287 C257 0.979 . S
H288 C257 0.977 1_455 S
H289 C259 0.948 . S
H290 C261 0.947 . S
H291 C262 0.948 . S
H292 C268 0.982 . S
H293 C268 0.979 . S
H294 C268 0.977 . S
H295 C269 0.979 . S
H296 C269 0.980 . S
H297 C269 0.983 . S
H298 C242 0.947 . S
C299 C242 1.392 . S
C299 C243 1.419 . S
C299 H281 0.948 . S
C300 C301 1.391 . S
C300 C304 1.391 . S
C300 H342 0.948 . S
C301 C300 1.391 . S
C301 C302 1.391 . S
C302 C301 1.391 . S
C302 H358 0.947 . S
C302 C359 1.392 . S
C303 C304 1.391 . S
C303 C307 1.397 . S
C303 C359 1.419 . S
C304 C300 1.391 . S
C304 C303 1.391 . S
C304 C305 1.399 . S
C305 C304 1.399 . S
C305 C308 1.396 1_565 S
C305 C317 1.453 1_565 S
C305 C318 1.684 . S
H306 C330 0.948 . S
C307 C303 1.397 . S
C307 C308 1.394 1_565 S
C307 C326 1.723 . S
C308 C305 1.396 1_545 S
C308 C307 1.394 1_545 S
C308 C338 1.723 . S
H309 C332 0.947 . S
H310 C333 0.948 . S
H311 C339 0.982 . S
H312 C340 0.979 . S
H313 C340 0.980 . S
H314 C340 0.983 . S
H315 C339 0.979 . S
H316 C339 0.977 . S
C317 C305 1.453 1_545 S
C317 H346 0.982 . S
C317 H347 0.979 1_545 S
C317 H348 0.977 . S
C318 C305 1.684 . S
C318 H343 0.979 . S
C318 H344 0.980 1_565 S
C318 H345 0.983 . S
C319 C320 1.391 1_565 S
C319 C324 1.391 . S
C319 H349 0.948 . S
C320 C319 1.391 1_545 S
C320 C321 1.391 . S
C321 C320 1.391 . S
C321 C322 1.392 . S
C321 H350 0.947 . S
C322 C321 1.392 . S
C322 C323 1.419 . S
C322 H351 0.948 . S
C323 C322 1.419 . S
C323 C324 1.391 1_545 S
C323 C327 1.397 . S
C324 C319 1.391 . S
C324 C323 1.391 1_565 S
C324 C325 1.399 . S
C325 C324 1.399 . S
C325 C326 1.396 . S
C325 C328 1.453 . S
C325 C329 1.684 . S
C326 C307 1.723 . S
C326 C325 1.396 . S
C326 C327 1.394 1_565 S
C327 C323 1.397 . S
C327 C326 1.394 1_545 S
C327 C337 1.723 . S
C328 C325 1.453 . S
C328 H352 0.982 . S
C328 H353 0.979 . S
C328 H354 0.977 . S
C329 C325 1.684 . S
C329 H355 0.979 . S
C329 H356 0.980 . S
C329 H357 0.983 . S
C330 H306 0.948 . S
C330 C331 1.391 . S
C330 C335 1.391 . S
C331 C330 1.391 . S
C331 C332 1.391 . S
C332 H309 0.947 . S
C332 C331 1.391 . S
C332 C333 1.392 . S
C333 H310 0.948 . S
C333 C332 1.392 . S
C333 C334 1.419 . S
C334 C333 1.419 . S
C334 C335 1.391 . S
C334 C338 1.397 . S
C335 C330 1.391 . S
C335 C334 1.391 . S
C335 C336 1.399 . S
C336 C335 1.399 . S
C336 C337 1.396 . S
C336 C339 1.453 . S
C336 C340 1.684 . S
C337 C327 1.723 . S
C337 C336 1.396 . S
C337 C338 1.394 . S
C338 C308 1.723 . S
C338 C334 1.397 . S
C338 C337 1.394 . S
C339 H311 0.982 . S
C339 H315 0.979 . S
C339 H316 0.977 . S
C339 C336 1.453 . S
C340 H312 0.979 . S
C340 H313 0.980 . S
C340 H314 0.983 . S
C340 C336 1.684 . S
H341 C359 0.948 . S
H342 C300 0.948 . S
H343 C318 0.979 . S
H344 C318 0.980 1_545 S
H345 C318 0.983 . S
H346 C317 0.982 . S
H347 C317 0.979 1_565 S
H348 C317 0.977 . S
H349 C319 0.948 . S
H350 C321 0.947 . S
H351 C322 0.948 . S
H352 C328 0.982 . S
H353 C328 0.979 . S
H354 C328 0.977 . S
H355 C329 0.979 . S
H356 C329 0.980 . S
H357 C329 0.983 . S
H358 C302 0.947 . S
C359 C302 1.392 . S
C359 C303 1.419 . S
C359 H341 0.948 . S
C360 C361 1.391 . S
C360 C364 1.391 . S
C360 H402 0.948 . S
C361 C360 1.391 . S
C361 C362 1.391 . S
C362 C361 1.391 . S
C362 H418 0.947 . S
C362 C419 1.392 . S
C363 C364 1.391 . S
C363 C367 1.397 . S
C363 C419 1.419 . S
C364 C360 1.391 . S
C364 C363 1.391 . S
C364 C365 1.399 . S
C365 C364 1.399 . S
C365 C368 1.396 . S
C365 C377 1.453 . S
C365 C378 1.684 . S
H366 C390 0.948 . S
C367 C363 1.397 . S
C367 C368 1.394 . S
C367 C386 1.723 . S
C368 C365 1.396 . S
C368 C367 1.394 . S
C368 C398 1.723 . S
H369 C392 0.947 . S
H370 C393 0.948 . S
H371 C399 0.982 . S
H372 C400 0.979 . S
H373 C400 0.980 . S
H374 C400 0.983 . S
H375 C399 0.979 . S
H376 C399 0.977 . S
C377 C365 1.453 . S
C377 H406 0.982 . S
C377 H407 0.979 . S
C377 H408 0.977 . S
C378 C365 1.684 . S
C378 H403 0.979 . S
C378 H404 0.980 . S
C378 H405 0.983 . S
C379 C380 1.391 . S
C379 C384 1.391 1_556 S
C379 H409 0.948 . S
C380 C379 1.391 . S
C380 C381 1.391 . S
C381 C380 1.391 . S
C381 C382 1.392 1_556 S
C381 H410 0.947 . S
C382 C381 1.392 1_554 S
C382 C383 1.419 . S
C382 H411 0.948 . S
C383 C382 1.419 . S
C383 C384 1.391 . S
C383 C387 1.397 . S
C384 C379 1.391 1_554 S
C384 C383 1.391 . S
C384 C385 1.399 . S
C385 C384 1.399 . S
C385 C386 1.396 . S
C385 C388 1.453 . S
C385 C389 1.684 . S
C386 C367 1.723 . S
C386 C385 1.396 . S
C386 C387 1.394 . S
C387 C383 1.397 . S
C387 C386 1.394 . S
C387 C397 1.723 . S
C388 C385 1.453 . S
C388 H412 0.982 . S
C388 H413 0.979 . S
C388 H414 0.977 . S
C389 C385 1.684 . S
C389 H415 0.979 . S
C389 H416 0.980 . S
C389 H417 0.983 . S
C390 H366 0.948 . S
C390 C391 1.391 . S
C390 C395 1.391 . S
C391 C390 1.391 . S
C391 C392 1.391 . S
C392 H369 0.947 . S
C392 C391 1.391 . S
C392 C393 1.392 . S
C393 H370 0.948 . S
C393 C392 1.392 . S
C393 C394 1.419 . S
C394 C393 1.419 . S
C394 C395 1.391 . S
C394 C398 1.397 . S
C395 C390 1.391 . S
C395 C394 1.391 . S
C395 C396 1.399 . S
C396 C395 1.399 . S
C396 C397 1.396 . S
C396 C399 1.453 . S
C396 C400 1.684 . S
C397 C387 1.723 . S
C397 C396 1.396 . S
C397 C398 1.394 . S
C398 C368 1.723 . S
C398 C394 1.397 . S
C398 C397 1.394 . S
C399 H371 0.982 . S
C399 H375 0.979 . S
C399 H376 0.977 . S
C399 C396 1.453 . S
C400 H372 0.979 . S
C400 H373 0.980 . S
C400 H374 0.983 . S
C400 C396 1.684 . S
H401 C419 0.948 . S
H402 C360 0.948 . S
H403 C378 0.979 . S
H404 C378 0.980 . S
H405 C378 0.983 . S
H406 C377 0.982 . S
H407 C377 0.979 . S
H408 C377 0.977 . S
H409 C379 0.948 . S
H410 C381 0.947 . S
H411 C382 0.948 . S
H412 C388 0.982 . S
H413 C388 0.979 . S
H414 C388 0.977 . S
H415 C389 0.979 . S
H416 C389 0.980 . S
H417 C389 0.983 . S
H418 C362 0.947 . S
C419 C362 1.392 . S
C419 C363 1.419 . S
C419 H401 0.948 . S
C8 C391 3.053 . S
C26 C241 1.394 . S
C48 C301 1.787 . S
C19 C361 2.618 . S
C271 C36 2.023 . S
C331 C59 2.726 . S
C28 C121 1.866 . S
C46 C211 1.543 . S
C16 C91 2.228 . S
C151 C39 2.646 . S
C181 C56 0.790 . S
C6 C61 1.806 . S
C200 C9 1.426 . S
C21 C80 1.570 . S
C49 C140 1.443 . S
C320 C29 1.438 . S
C380 C41 1.712 . S
C1 C260 1.509 . S
