# Generated by pormake.
# Topology zzz, (3,6)-cn, num edge types: 1
# Building blocks:
#     Node 0, Type 0, BuildingBlock: PAMTOO_clean_linker_0, # of connection points: 3
#     Node 1, Type 0, BuildingBlock: PAMTOO_clean_linker_0, # of connection points: 3
#     Node 2, Type 0, BuildingBlock: PAMTOO_clean_linker_0, # of connection points: 3
#     Node 3, Type 0, BuildingBlock: PAMTOO_clean_linker_0, # of connection points: 3
#     Node 4, Type 0, BuildingBlock: PAMTOO_clean_linker_0, # of connection points: 3
#     Node 5, Type 0, BuildingBlock: PAMTOO_clean_linker_0, # of connection points: 3
#     Node 6, Type 0, BuildingBlock: PAMTOO_clean_linker_0, # of connection points: 3
#     Node 7, Type 0, BuildingBlock: PAMTOO_clean_linker_0, # of connection points: 3
#     Node 8, Type 1, BuildingBlock: KUMBOL_clean_sbu_0, # of connection points: 6
#     Node 9, Type 1, BuildingBlock: KUMBOL_clean_sbu_0, # of connection points: 6
#     Node 10, Type 1, BuildingBlock: KUMBOL_clean_sbu_0, # of connection points: 6
#     Node 11, Type 1, BuildingBlock: KUMBOL_clean_sbu_0, # of connection points: 6
#     Edge 12, Type (0, 1), BuildingBlock: XUDNAN_clean_linker_2, # of connection points: 2
#     Edge 13, Type (0, 1), BuildingBlock: XUDNAN_clean_linker_2, # of connection points: 2
#     Edge 14, Type (0, 1), BuildingBlock: XUDNAN_clean_linker_2, # of connection points: 2
#     Edge 15, Type (0, 1), BuildingBlock: XUDNAN_clean_linker_2, # of connection points: 2
#     Edge 16, Type (0, 1), BuildingBlock: XUDNAN_clean_linker_2, # of connection points: 2
#     Edge 17, Type (0, 1), BuildingBlock: XUDNAN_clean_linker_2, # of connection points: 2
#     Edge 18, Type (0, 1), BuildingBlock: XUDNAN_clean_linker_2, # of connection points: 2
#     Edge 19, Type (0, 1), BuildingBlock: XUDNAN_clean_linker_2, # of connection points: 2
#     Edge 20, Type (0, 1), BuildingBlock: XUDNAN_clean_linker_2, # of connection points: 2
#     Edge 21, Type (0, 1), BuildingBlock: XUDNAN_clean_linker_2, # of connection points: 2
#     Edge 22, Type (0, 1), BuildingBlock: XUDNAN_clean_linker_2, # of connection points: 2
#     Edge 23, Type (0, 1), BuildingBlock: XUDNAN_clean_linker_2, # of connection points: 2
#     Edge 24, Type (0, 1), BuildingBlock: XUDNAN_clean_linker_2, # of connection points: 2
#     Edge 25, Type (0, 1), BuildingBlock: XUDNAN_clean_linker_2, # of connection points: 2
#     Edge 26, Type (0, 1), BuildingBlock: XUDNAN_clean_linker_2, # of connection points: 2
#     Edge 27, Type (0, 1), BuildingBlock: XUDNAN_clean_linker_2, # of connection points: 2
#     Edge 28, Type (0, 1), BuildingBlock: XUDNAN_clean_linker_2, # of connection points: 2
#     Edge 29, Type (0, 1), BuildingBlock: XUDNAN_clean_linker_2, # of connection points: 2
#     Edge 30, Type (0, 1), BuildingBlock: XUDNAN_clean_linker_2, # of connection points: 2
#     Edge 31, Type (0, 1), BuildingBlock: XUDNAN_clean_linker_2, # of connection points: 2
#     Edge 32, Type (0, 1), BuildingBlock: XUDNAN_clean_linker_2, # of connection points: 2
#     Edge 33, Type (0, 1), BuildingBlock: XUDNAN_clean_linker_2, # of connection points: 2
#     Edge 34, Type (0, 1), BuildingBlock: XUDNAN_clean_linker_2, # of connection points: 2
#     Edge 35, Type (0, 1), BuildingBlock: XUDNAN_clean_linker_2, # of connection points: 2
# Relax obj value: 0.173
# Max RMSD: 0.164
# Mean RMSD: 0.115
data_MOF--net-zzz--node1-KUMBOL_clean_sbu_0--node2-PAMTOO_clean_linker_0--edge1-XUDNAN_clean_linker_2
_symmetry_space_group_name_H-M    P1
_symmetry_Int_Tables_number       1
_symmetry_cell_setting            triclinic
loop_
_symmetry_equiv_pos_as_xyz
'x, y, z'
_cell_length_a     50.651993
_cell_length_b     50.654525
_cell_length_c     14.769792
_cell_angle_alpha  91.312852
_cell_angle_beta   89.817551
_cell_angle_gamma 89.898395
loop_
_atom_site_label
_atom_site_type_symbol
_atom_site_fract_x
_atom_site_fract_y
_atom_site_fract_z
_atom_type_partial_charge
H0 H 0.82344 0.57541 0.22474 0.0
H1 H 0.74877 0.57218 0.09091 0.0
H2 H 0.7635 0.52153 0.31642 0.0
H3 H 0.71532 0.50014 0.16659 0.0
C4 C 0.71834 0.51907 0.13146 0.0
O5 O 0.72698 0.53786 0.19533 0.0
H6 H 0.73388 0.51521 0.07929 0.0
C7 C 0.80382 0.56696 0.22031 0.0
C8 C 0.79645 0.54686 0.27932 0.0
C9 C 0.78702 0.57573 0.15204 0.0
C10 C 0.76156 0.56549 0.14431 0.0
C11 C 0.75261 0.54623 0.20351 0.0
C12 C 0.77018 0.53672 0.27137 0.0
H13 H 1.00895 0.83534 0.15727 0.0
H14 H 0.99757 0.75589 0.05799 0.0
H15 H 0.99747 0.7722 0.34525 0.0
H16 H 0.01856 0.70679 0.26453 0.0
C17 C 0.01335 0.71475 0.19742 0.0
O18 O 0.9937 0.73395 0.21142 0.0
H19 H 0.03161 0.7239 0.17024 0.0
C20 C 1.0056 0.8147 0.17107 0.0
C21 C 1.00329 0.80678 0.26159 0.0
C22 C 1.00367 0.79651 0.09779 0.0
C23 C 0.99934 0.76986 0.11427 0.0
C24 C 0.99772 0.76057 0.20205 0.0
C25 C 0.99931 0.77915 0.27676 0.0
H26 H 0.70318 0.0242 0.1519 0.0
H27 H 0.78284 0.01445 0.05871 0.0
H28 H 0.76423 1.00027 0.3379 0.0
H29 H 0.8325 0.01944 0.27511 0.0
C30 C 0.82364 0.01798 0.20652 0.0
O31 O 0.8028 0.99991 0.20892 0.0
H32 H 0.81611 0.03809 0.19159 0.0
C33 C 0.7235 0.01937 0.16719 0.0
C34 C 0.73065 1.0123 0.25579 0.0
C35 C 0.74229 0.02054 0.09721 0.0
C36 C 0.76848 0.01377 0.11329 0.0
C37 C 0.77678 1.00669 0.1991 0.0
C38 C 0.75784 1.00589 0.27117 0.0
H39 H 0.57358 0.71371 0.23289 0.0
H40 H 0.57045 0.78956 0.11139 0.0
H41 H 0.52164 0.77396 0.34402 0.0
H42 H 0.50019 0.8243 0.20914 0.0
C43 C 0.5185 0.82056 0.1693 0.0
O44 O 0.53774 0.81101 0.22745 0.0
H45 H 0.51371 0.80538 0.11609 0.0
C46 C 0.5655 0.73355 0.23314 0.0
C47 C 0.54596 0.74086 0.29661 0.0
C48 C 0.57399 0.75066 0.16588 0.0
C49 C 0.56418 0.77642 0.16421 0.0
C50 C 0.54572 0.78523 0.22903 0.0
C51 C 0.53636 0.76735 0.29525 0.0
H52 H 0.21035 0.4647 0.14901 0.0
H53 H 0.28222 0.47585 0.29494 0.0
H54 H 0.26856 0.51993 0.05347 0.0
H55 H 0.33462 0.50236 0.11398 0.0
C56 C 0.32706 0.49933 0.18367 0.0
O57 O 0.30226 0.51131 0.19194 0.0
H58 H 0.32529 0.4776 0.19172 0.0
C59 C 0.22985 0.47339 0.15125 0.0
C60 C 0.23695 0.49254 0.08807 0.0
C61 C 0.24618 0.46695 0.22407 0.0
C62 C 0.27026 0.47991 0.23611 0.0
C63 C 0.27894 0.49849 0.17413 0.0
C64 C 0.26221 0.50493 0.09975 0.0
H65 H 0.07068 0.21146 0.10561 0.0
H66 H 0.06779 0.288 0.24044 0.0
H67 H 1.00836 0.26559 0.04841 0.0
H68 H 0.01942 0.33579 0.09788 0.0
C69 C 0.03191 0.32875 0.15416 0.0
O70 O 0.02437 0.30283 0.17279 0.0
H71 H 0.05265 0.32911 0.12914 0.0
C72 C 0.06238 0.23095 0.11543 0.0
C73 C 0.03979 0.23662 0.06471 0.0
C74 C 0.07146 0.24801 0.1859 0.0
C75 C 0.06043 0.27358 0.19213 0.0
C76 C 0.03768 0.28033 0.14466 0.0
C77 C 0.02691 0.26143 0.0814 0.0
H78 H 0.32974 0.05039 0.13295 0.0
H79 H 0.24918 0.05497 0.22301 0.0
H80 H 0.26654 0.03335 0.94511 0.0
H81 H 0.22488 1.00728 0.14287 0.0
C82 C 0.21229 0.02136 0.10528 0.0
O83 O 0.22772 0.0418 0.07139 0.0
H84 H 0.2039 1.00998 0.04706 0.0
C85 C 0.30886 0.04884 0.11752 0.0
C86 C 0.30103 0.04147 0.02947 0.0
C87 C 0.29033 0.05369 0.18678 0.0
C88 C 0.26341 0.05147 0.16899 0.0
C89 C 0.25446 0.04376 0.08331 0.0
C90 C 0.27332 0.03896 0.01225 0.0
H91 H 0.46057 0.32165 0.07133 0.0
H92 H 0.46263 0.24577 0.19294 0.0
H93 H 0.51408 0.26194 0.96765 0.0
H94 H 0.52056 0.23333 0.20011 0.0
C95 C 0.51709 0.21734 0.14847 0.0
O96 O 0.49835 0.22531 0.0858 0.0
H97 H 0.53606 0.21385 0.11217 0.0
C98 C 0.4678 0.30148 0.0696 0.0
C99 C 0.48765 0.29419 1.0075 0.0
C100 C 0.45869 0.2843 0.13585 0.0
C101 C 0.46922 0.25887 0.14049 0.0
C102 C 0.4891 0.25056 0.08012 0.0
C103 C 0.49859 0.26833 0.01387 0.0
Gd104 Gd 0.99347 0.03347 0.57577 0.0
Gd105 Gd 0.04172 0.01406 0.73407 0.0
C106 C 0.04226 0.05945 1.00745 0.0
C107 C 0.0745 0.09368 0.98092 0.0
C108 C 0.06301 0.06224 0.85962 0.0
C109 C 0.0454 0.04996 0.91701 0.0
C110 C 0.07826 0.08381 0.89232 0.0
C111 C 0.05633 0.08171 0.03802 0.0
C112 C 0.02599 0.0456 0.06621 0.0
C113 C 0.01486 0.02189 0.03676 0.0
N114 N 0.03259 0.02792 0.88669 0.0
C115 C 0.01921 0.01285 0.94795 0.0
H116 H 1.01225 0.99331 0.93023 0.0
C117 C 0.08442 0.06372 0.7176 0.0
N118 N 0.06579 0.05286 0.77294 0.0
C119 C 0.10018 0.08468 0.74772 0.0
C120 C 0.09725 0.09463 0.83558 0.0
H121 H 0.08835 0.05607 0.65088 0.0
H122 H 0.054 0.08927 0.10685 0.0
H123 H 0.02928 0.02581 0.37839 0.0
H124 H 0.02309 0.05229 0.13578 0.0
H125 H 1.00358 1.0101 0.08327 0.0
H126 H 0.08585 0.11035 1.00644 0.0
H127 H 0.93067 0.02192 0.65324 0.0
H128 H 1.00427 0.95607 0.24049 0.0
H129 H 0.0342 0.99422 0.25391 0.0
H130 H 0.92905 0.92875 0.40898 0.0
H131 H 0.11497 0.09286 0.70338 0.0
H132 H 0.10994 0.11053 0.85918 0.0
H133 H 0.96591 0.93109 0.30109 0.0
H134 H 0.89761 0.98706 0.64416 0.0
N135 N 0.99905 1.00448 0.44716 0.0
C136 C 1.00267 0.96938 0.29868 0.0
C137 C 0.01962 0.99084 0.30613 0.0
C138 C 0.98293 0.96621 0.36364 0.0
C139 C 0.98118 0.98466 0.43691 0.0
C140 C 0.0172 1.00848 0.37972 0.0
N141 N 0.95812 1.00255 0.56292 0.0
C142 C 0.96036 0.98343 0.49734 0.0
C143 C 0.91544 0.9854 0.60383 0.0
C144 C 0.91876 0.96428 0.54297 0.0
C145 C 0.93489 1.00484 0.61066 0.0
C146 C 0.9409 0.96359 0.4864 0.0
H147 H 0.90348 0.94941 0.53684 0.0
O148 O 0.95808 0.05497 0.538 0.0
O149 O 0.02389 0.05023 0.67433 0.0
O150 O 1.00013 1.00202 0.7828 0.0
O151 O 0.97205 0.0305 0.71043 0.0
O152 O 0.98669 0.06761 0.67384 0.0
O153 O 0.99388 0.05862 0.45952 0.0
O154 O 0.08257 1.00254 0.75629 0.0
O155 O 1.01068 0.99715 0.6387 0.0
O156 O 0.03474 0.04387 0.52082 0.0
O157 O 0.06443 0.01937 0.60346 0.0
O158 O 0.04834 0.98206 0.62692 0.0
O159 O 0.05076 0.98152 0.82099 0.0
C160 C 1.00973 0.0688 0.71039 0.0
C161 C 0.94357 0.94429 0.41729 0.0
C162 C 0.96451 0.94565 0.35582 0.0
C163 C 0.9703 0.06789 0.47554 0.0
C164 C 0.96769 0.09681 0.48038 0.0
C165 C 0.94261 0.10854 0.47882 0.0
C166 C 0.99019 0.11288 0.48691 0.0
C167 C 0.98789 0.14047 0.48829 0.0
C168 C 0.94011 0.136 0.48298 0.0
C169 C 0.96258 0.15194 0.48712 0.0
C170 C 0.97704 0.01443 0.7772 0.0
C171 C 0.02457 0.97936 0.59815 0.0
C172 C 0.07582 0.98169 0.80056 0.0
C173 C 0.08714 0.95644 0.76757 0.0
C174 C 0.11433 0.95186 0.77233 0.0
C175 C 0.07053 0.9363 0.73478 0.0
C176 C 0.08 0.91049 0.7192 0.0
C177 C 0.12453 0.92705 0.74815 0.0
C178 C 0.10755 0.90633 0.72389 0.0
C179 C 0.05852 0.03321 0.5316 0.0
H180 H 0.92501 0.09646 0.47431 0.0
H181 H 1.00962 0.10395 0.49011 0.0
H182 H 0.92071 0.14498 0.48144 0.0
H183 H 0.96013 0.17318 0.48679 0.0
H184 H 0.12758 0.9673 0.79589 0.0
H185 H 0.04981 0.9406 0.72648 0.0
H186 H 0.14556 0.92349 0.75264 0.0
H187 H 0.11613 0.88694 0.71387 0.0
Gd188 Gd 0.50868 0.99632 0.58843 0.0
Gd189 Gd 0.52934 0.04551 0.74626 0.0
C190 C 0.48409 0.04385 0.01555 0.0
C191 C 0.44693 0.0727 0.98701 0.0
C192 C 0.48038 0.06489 0.87029 0.0
C193 C 0.49359 0.0479 0.92678 0.0
C194 C 0.45734 0.07813 0.90133 0.0
C195 C 0.46026 0.05555 0.04398 0.0
C196 C 0.49961 0.02954 0.07524 0.0
C197 C 0.52492 0.02176 0.04879 0.0
N198 N 0.51708 0.03757 0.89874 0.0
C199 C 0.53378 0.02708 0.96147 0.0
H200 H 0.554 0.02235 0.94405 0.0
C201 C 0.48029 0.08927 0.73589 0.0
N202 N 0.49075 0.06964 0.78714 0.0
C203 C 0.45768 0.10302 0.76431 0.0
C204 C 0.44586 0.0971 0.8466 0.0
H205 H 0.48924 0.09501 0.67342 0.0
H206 H 0.45257 0.05237 0.1114 0.0
H207 H 0.50394 0.02759 0.38375 0.0
H208 H 0.49293 0.02587 0.14358 0.0
H209 H 0.53784 1.01213 0.09603 0.0
H210 H 0.42903 0.08232 0.01104 0.0
H211 H 0.53097 0.93699 0.66714 0.0
H212 H 0.5738 1.01207 0.23218 0.0
H213 H 0.53189 0.03635 0.25396 0.0
H214 H 0.61373 0.94098 0.38826 0.0
H215 H 0.4494 0.11822 0.72256 0.0
H216 H 0.42826 0.10772 0.86821 0.0
H217 H 0.604 0.97631 0.28239 0.0
H218 H 0.5686 0.90769 0.64604 0.0
N219 N 0.53187 1.00262 0.44927 0.0
C220 C 0.56211 1.00906 0.29263 0.0
C221 C 0.53856 0.02284 0.30478 0.0
C222 C 0.56937 0.99029 0.35568 0.0
C223 C 0.55349 0.98723 0.43379 0.0
C224 C 0.52315 0.01853 0.38157 0.0
N225 N 0.54287 0.96435 0.56623 0.0
C226 C 0.55902 0.9674 0.49357 0.0
C227 C 0.56654 0.92474 0.60375 0.0
C228 C 0.58448 0.92897 0.53414 0.0
C229 C 0.54545 0.94221 0.61731 0.0
C230 C 0.58046 0.95001 0.47637 0.0
H231 H 0.60072 0.91528 0.52336 0.0
O232 O 0.49071 0.95846 0.55346 0.0
O233 O 0.49271 0.02843 0.68307 0.0
O234 O 0.53955 1.0044 0.80155 0.0
O235 O 0.51267 0.97554 0.72099 0.0
O236 O 0.47776 0.99077 0.69697 0.0
O237 O 0.47691 0.99387 0.4907 0.0
O238 O 0.53853 0.08614 0.78358 0.0
O239 O 0.54537 0.01368 0.65045 0.0
O240 O 0.49784 0.03724 0.53406 0.0
O241 O 0.52261 0.06741 0.6175 0.0
O242 O 0.55948 0.05161 0.63624 0.0
O243 O 0.56612 0.05503 0.81443 0.0
C244 C 0.47539 0.01491 0.72496 0.0
C245 C 0.59698 0.95385 0.40139 0.0
C246 C 0.59148 0.974 0.34128 0.0
C247 C 0.47146 0.9695 0.51014 0.0
C248 C 0.44452 0.96485 0.54568 0.0
C249 C 0.43945 0.94462 0.6071 0.0
C250 C 0.42472 0.98349 0.52969 0.0
C251 C 0.40101 0.98362 0.57928 0.0
C252 C 0.41541 0.94387 0.65377 0.0
C253 C 0.39637 0.96343 0.64093 0.0
C254 C 0.52777 0.98109 0.79129 0.0
C255 C 0.56221 0.0276 0.60811 0.0
C256 C 0.56279 0.08036 0.80407 0.0
C257 C 0.5836 0.09391 0.75194 0.0
C258 C 0.57754 0.1141 0.69132 0.0
C259 C 0.60938 0.08408 0.75387 0.0
C260 C 0.62875 0.09294 0.69342 0.0
C261 C 0.59694 0.12368 0.63298 0.0
C262 C 0.62244 0.11307 0.63347 0.0
C263 C 0.50844 0.06106 0.54567 0.0
H264 H 0.45436 0.92996 0.62149 0.0
H265 H 0.42821 0.99854 0.48013 0.0
H266 H 0.41181 0.92848 0.70192 0.0
H267 H 0.37824 0.96294 0.67985 0.0
H268 H 0.55773 0.12206 0.68733 0.0
H269 H 0.61426 0.06905 0.80223 0.0
H270 H 0.59208 0.13912 0.58641 0.0
H271 H 0.63714 0.12046 0.58708 0.0
Gd272 Gd 0.49632 0.52722 0.75757 0.0
Gd273 Gd 0.54204 0.50999 0.57586 0.0
C274 C 0.63124 0.52121 0.61665 0.0
C275 C 0.64167 0.55361 0.50347 0.0
C276 C 0.5968 0.53711 0.51867 0.0
C277 C 0.60451 0.52148 0.58928 0.0
C278 C 0.61551 0.55258 0.47269 0.0
C279 C 0.64951 0.53801 0.5756 0.0
C280 C 0.63911 0.50328 0.68177 0.0
C281 C 0.62085 0.48537 0.71469 0.0
N282 N 0.58641 0.50508 0.62637 0.0
C283 C 0.59469 0.48621 0.68499 0.0
H284 H 0.58132 0.47229 0.71318 0.0
C285 C 0.56418 0.54688 0.41049 0.0
N286 N 0.57149 0.53545 0.4898 0.0
C287 C 0.58211 0.56201 0.36188 0.0
C288 C 0.60771 0.56547 0.39436 0.0
H289 H 0.5444 0.54434 0.38468 0.0
H290 H 0.66998 0.53829 0.59669 0.0
H291 H 0.46141 0.57603 0.65589 0.0
H292 H 0.65938 0.50254 0.70487 0.0
H293 H 0.62685 0.47095 0.76359 0.0
H294 H 0.65622 0.56565 0.46984 0.0
H295 H 0.49055 0.4817 0.91781 0.0
H296 H 0.38083 0.55262 0.64065 0.0
H297 H 0.41626 0.58444 0.6074 0.0
H298 H 0.37744 0.47612 0.82384 0.0
H299 H 0.57625 0.57078 0.29894 0.0
H300 H 0.62158 0.57721 0.3565 0.0
H301 H 0.36656 0.51209 0.72135 0.0
H302 H 0.45634 0.45295 0.9822 0.0
N303 N 0.4529 0.53846 0.71242 0.0
C304 C 0.40088 0.54855 0.66169 0.0
C305 C 0.42079 0.56657 0.64307 0.0
C306 C 0.40682 0.52621 0.71154 0.0
C307 C 0.43331 0.52174 0.73678 0.0
C308 C 0.44667 0.56149 0.6706 0.0
N309 N 0.46456 0.4993 0.8233 0.0
C310 C 0.43934 0.50154 0.79438 0.0
C311 C 0.45131 0.46628 0.92863 0.0
C312 C 0.4256 0.46715 0.89524 0.0
C313 C 0.47058 0.48269 0.89237 0.0
C314 C 0.4192 0.48529 0.82868 0.0
H315 H 0.41067 0.45445 0.92361 0.0
O316 O 0.49243 0.53392 0.90244 0.0
O317 O 0.53924 0.52645 0.7178 0.0
O318 O 0.53799 0.47553 0.67259 0.0
O319 O 0.4966 0.48224 0.73613 0.0
O320 O 0.52962 0.51109 0.84175 0.0
O321 O 0.49754 0.56712 0.81517 0.0
O322 O 0.55518 0.49272 0.44675 0.0
O323 O 0.49928 0.51401 0.61352 0.0
O324 O 0.50497 0.56458 0.6769 0.0
O325 O 0.53846 0.55472 0.57205 0.0
O326 O 0.50988 0.52627 0.48646 0.0
O327 O 0.52946 0.47081 0.53308 0.0
C328 C 0.54899 0.51739 0.79009 0.0
C329 C 0.39312 0.4886 0.79911 0.0
C330 C 0.38694 0.50907 0.74075 0.0
C331 C 0.49895 0.55862 0.89773 0.0
C332 C 0.52217 0.56667 0.95232 0.0
C333 C 0.52755 0.55403 0.03398 0.0
C334 C 0.53982 0.58591 0.92147 0.0
C335 C 0.56198 0.59348 0.97322 0.0
C336 C 0.55005 0.56051 0.0837 0.0
C337 C 0.56705 0.58019 0.05424 0.0
C338 C 0.51709 0.46674 0.71728 0.0
C339 C 0.49025 0.52355 0.5409 0.0
C340 C 0.53951 0.47258 0.45266 0.0
C341 C 0.52122 0.46709 0.37681 0.0
C342 C 0.52225 0.48138 0.29646 0.0
C343 C 0.50217 0.44722 0.38569 0.0
C344 C 0.48481 0.44072 0.31448 0.0
C345 C 0.50465 0.47562 0.22619 0.0
C346 C 0.4862 0.45533 0.23458 0.0
C347 C 0.5221 0.57159 0.61326 0.0
H348 H 0.51447 0.53894 0.05909 0.0
H349 H 0.5361 0.59525 0.85755 0.0
H350 H 0.55401 0.55065 0.1465 0.0
H351 H 0.58345 0.58567 0.09743 0.0
H352 H 0.5366 0.49696 0.28775 0.0
H353 H 0.50105 0.43667 0.44857 0.0
H354 H 0.50563 0.48661 0.16425 0.0
H355 H 0.47366 0.45066 0.17724 0.0
Gd356 Gd 1.00677 0.49701 0.77233 0.0
Gd357 Gd 0.02591 0.54232 0.59864 0.0
C358 C 0.01997 0.63237 0.64607 0.0
C359 C 0.98909 0.645 0.52941 0.0
C360 C 1.00229 0.59903 0.54361 0.0
C361 C 0.01809 0.6057 0.61629 0.0
C362 C 0.98825 0.61872 0.49741 0.0
C363 C 1.00485 0.6518 0.6039 0.0
C364 C 0.03759 0.63892 0.71549 0.0
C365 C 0.05348 0.61932 0.75111 0.0
N366 N 0.03274 0.58643 0.65457 0.0
C367 C 0.0511 0.59327 0.71893 0.0
H368 H 0.0633 0.57886 0.75029 0.0
C369 C 0.98968 0.56678 0.4344 0.0
N370 N 1.00207 0.57355 0.51402 0.0
C371 C 0.97589 0.58563 0.38558 0.0
C372 C 0.97469 0.61163 0.41821 0.0
H373 H 0.99051 0.54666 0.40846 0.0
H374 H 1.00587 0.67227 0.62655 0.0
H375 H 0.96355 0.46606 0.62502 0.0
H376 H 0.03949 0.65909 0.74058 0.0
H377 H 0.06745 0.6242 0.80419 0.0
H378 H 0.97823 0.66032 0.49546 0.0
H379 H 0.04889 0.48774 0.94357 0.0
H380 H 0.98128 0.38407 0.61569 0.0
H381 H 0.95492 0.42195 0.56501 0.0
H382 H 0.04846 0.37456 0.83899 0.0
H383 H 0.96645 0.58015 0.32235 0.0
H384 H 0.964 0.62623 0.38021 0.0
H385 H 0.01632 0.36666 0.71709 0.0
H386 H 0.07276 0.45128 0.01503 0.0
N387 N 0.99542 0.45462 0.71099 0.0
C388 C 0.98526 0.40365 0.64338 0.0
C389 C 0.9703 0.42496 0.61489 0.0
C390 C 1.00479 0.40777 0.70868 0.0
C391 C 1.0094 0.43375 0.74197 0.0
C392 C 0.97537 0.45027 0.65028 0.0
N393 N 0.03127 0.46317 0.84149 0.0
C394 C 0.02784 0.43817 0.80927 0.0
C395 C 0.06061 0.44734 0.95618 0.0
C396 C 0.05844 0.42174 0.92038 0.0
C397 C 0.04688 0.46788 0.91585 0.0
C398 C 0.04171 0.41682 0.84674 0.0
H399 H 0.06918 0.40584 0.95159 0.0
O400 O 0.99844 0.49295 0.91531 0.0
O401 O 1.00788 0.54001 0.73685 0.0
O402 O 0.06059 0.53647 0.69643 0.0
O403 O 0.05205 0.49716 0.76863 0.0
O404 O 0.02252 0.53016 0.86186 0.0
O405 O 0.96629 0.49832 0.82217 0.0
O406 O 0.04021 0.54782 0.46135 0.0
O407 O 0.02371 0.49949 0.6336 0.0
O408 O 0.9698 0.50692 0.68935 0.0
O409 O 0.98118 0.53954 0.58739 0.0
O410 O 1.01042 0.50914 0.5075 0.0
O411 O 0.06739 0.53671 0.565 0.0
C412 C 0.01657 0.54967 0.81144 0.0
C413 C 0.03781 0.39114 0.81171 0.0
C414 C 0.01946 0.38665 0.74251 0.0
C415 C 0.97387 0.49955 0.9065 0.0
C416 C 0.96543 0.52273 0.96197 0.0
C417 C 0.97561 0.5265 0.04966 0.0
C418 C 0.9486 0.542 0.92645 0.0
C419 C 0.94082 0.56419 0.97925 0.0
C420 C 0.96909 0.54904 0.10085 0.0
C421 C 0.9517 0.56766 0.06651 0.0
C422 C 0.06838 0.51649 0.747 0.0
C423 C 0.01505 0.48963 0.55939 0.0
C424 C 0.0629 0.53727 0.47849 0.0
C425 C 0.06983 0.51324 0.42474 0.0
C426 C 0.05838 0.50842 0.33948 0.0
C427 C 0.08675 0.49417 0.46077 0.0
C428 C 0.09381 0.4713 0.41029 0.0
C429 C 0.06392 0.4851 0.29115 0.0
C430 C 0.08165 0.46679 0.32552 0.0
C431 C 0.96363 0.52375 0.62476 0.0
H432 H 0.98886 0.51213 0.07833 0.0
H433 H 0.94119 0.53952 0.85812 0.0
H434 H 0.97704 0.55177 0.16836 0.0
H435 H 0.94589 0.58404 0.1105 0.0
H436 H 0.04493 0.52254 0.31044 0.0
H437 H 0.09485 0.49745 0.5278 0.0
H438 H 0.05503 0.48157 0.22544 0.0
H439 H 0.0867 0.44984 0.28301 0.0
H440 H 0.19576 1.00166 0.27006 0.0
H441 H 0.17513 0.06074 0.07513 0.0
H442 H 0.13453 0.07146 0.16357 0.0
H443 H 0.13078 0.97784 0.30548 0.0
H444 H 0.13499 0.97224 0.42463 0.0
H445 H 0.16309 0.97071 0.3497 0.0
H446 H 0.18702 1.00601 0.44871 0.0
H447 H 0.15902 1.0075 0.52428 0.0
H448 H 0.17096 0.03717 0.47312 0.0
H449 H 0.094 0.0739 0.27307 0.0
H450 H 0.05938 0.06831 0.38997 0.0
H451 H 0.10664 1.00738 0.51289 0.0
C452 C 0.18306 0.01734 0.24704 0.0
C453 C 0.18926 0.03089 0.16636 0.0
C454 C 0.1714 0.05058 0.13757 0.0
C455 C 0.14813 0.05666 0.18737 0.0
C456 C 0.1426 0.04282 0.26627 0.0
C457 C 0.15975 0.02362 0.29601 0.0
C458 C 0.14896 1.01084 0.3809 0.0
C459 C 0.14418 0.98115 0.36413 0.0
C460 C 0.1676 0.01567 0.46153 0.0
C461 C 0.12301 0.02565 0.39446 0.0
C462 C 0.1196 0.04405 0.32774 0.0
C463 C 0.09672 0.05959 0.32555 0.0
C464 C 0.07702 0.05623 0.39251 0.0
C465 C 0.07997 0.03742 0.46169 0.0
C466 C 0.10356 0.02211 0.46201 0.0
H467 H 0.54152 0.1964 0.29543 0.0
H468 H 0.47675 0.18034 0.11142 0.0
H469 H 0.46717 0.13898 0.19184 0.0
H470 H 0.56337 0.12894 0.31082 0.0
H471 H 0.57224 0.1318 0.4286 0.0
H472 H 0.57372 0.16035 0.35829 0.0
H473 H 0.54263 0.186 0.46836 0.0
H474 H 0.54128 0.15775 0.54007 0.0
H475 H 0.51118 0.17193 0.49799 0.0
H476 H 0.46503 0.09818 0.29596 0.0
H477 H 0.47065 0.06345 0.41018 0.0
H478 H 0.53711 0.10653 0.52388 0.0
C479 C 0.52514 0.18429 0.27253 0.0
C480 C 0.50964 0.19206 0.19782 0.0
C481 C 0.48873 0.17527 0.16904 0.0
C482 C 0.48318 0.1516 0.21441 0.0
C483 C 0.49878 0.14468 0.2883 0.0
C484 C 0.5194 0.16064 0.31686 0.0
C485 C 0.53362 0.14874 0.3968 0.0
C486 C 0.56244 0.14207 0.37214 0.0
C487 C 0.53207 0.16721 0.48077 0.0
C488 C 0.5176 0.12381 0.4101 0.0
C489 C 0.49767 0.1216 0.34668 0.0
C490 C 0.48061 0.09988 0.34572 0.0
C491 C 0.48399 0.08013 0.4109 0.0
C492 C 0.5043 0.08205 0.47667 0.0
C493 C 0.52119 0.10437 0.47551 0.0
H494 H 0.35322 0.47356 0.32359 0.0
H495 H 0.34864 0.54921 0.19358 0.0
H496 H 0.38673 0.56505 0.28453 0.0
H497 H 0.37351 0.49958 0.54993 0.0
H498 H 0.3961 0.47285 0.5712 0.0
H499 H 0.36718 0.46715 0.50256 0.0
H500 H 0.39547 0.44961 0.36828 0.0
H501 H 0.42447 0.4538 0.43735 0.0
H502 H 0.42262 0.46943 0.32911 0.0
H503 H 0.42945 0.57025 0.37183 0.0
H504 H 0.47121 0.56578 0.45575 0.0
H505 H 0.44791 0.48789 0.53987 0.0
C506 C 0.35973 0.49375 0.31623 0.0
C507 C 0.34747 0.51031 0.25178 0.0
C508 C 0.35722 0.53631 0.24307 0.0
C509 C 0.37899 0.54542 0.29442 0.0
C510 C 0.39093 0.52846 0.3557 0.0
C511 C 0.38142 0.50326 0.36782 0.0
C512 C 0.39878 0.48859 0.43476 0.0
C513 C 0.38296 0.48162 0.51974 0.0
C514 C 0.41103 0.46385 0.38973 0.0
C515 C 0.41996 0.50914 0.45662 0.0
C516 C 0.41496 0.532 0.40989 0.0
C517 C 0.43304 0.55275 0.41061 0.0
C518 C 0.45679 0.55004 0.4588 0.0
C519 C 0.46246 0.52706 0.50831 0.0
C520 C 0.44359 0.50632 0.50725 0.0
H521 H 1.0013 0.37459 0.17454 0.0
H522 H 0.05944 0.32879 0.31728 0.0
H523 H 0.06135 0.36365 0.43774 0.0
H524 H 0.02981 0.43707 0.22008 0.0
H525 H 0.99915 0.45481 0.23478 0.0
H526 H 1.00047 0.42561 0.16298 0.0
H527 H 0.9633 0.40376 0.25504 0.0
H528 H 0.96103 0.43314 0.3258 0.0
H529 H 0.96648 0.40153 0.37621 0.0
H530 H 0.05898 0.40685 0.5402 0.0
H531 H 0.05029 0.45066 0.61394 0.0
H532 H 0.99282 0.46741 0.40666 0.0
C533 C 0.01397 0.3715 0.23224 0.0
C534 C 0.02982 0.34828 0.2364 0.0
C535 C 0.04664 0.3458 0.31252 0.0
C536 C 0.04799 0.36577 0.38132 0.0
C537 C 0.03239 0.3885 0.37432 0.0
C538 C 0.01546 0.39124 0.30178 0.0
C539 C 1.0012 0.41777 0.30837 0.0
C540 C 1.00806 0.43482 0.22672 0.0
C541 C 0.97122 0.4138 0.31685 0.0
C542 C 1.01261 0.4296 0.39562 0.0
C543 C 0.03073 0.41257 0.43282 0.0
C544 C 0.04443 0.41994 0.51191 0.0
C545 C 0.03924 0.44489 0.55408 0.0
C546 C 0.02015 0.46235 0.51862 0.0
C547 C 1.00706 0.45442 0.43735 0.0
H548 H 0.84374 0.04659 0.06247 0.0
H549 H 0.85459 0.97283 0.20015 0.0
H550 H 0.89416 0.96321 0.10519 0.0
H551 H 0.86549 0.02286 0.8362 0.0
H552 H 0.88164 0.0535 0.8108 0.0
H553 H 0.85341 0.05348 0.88541 0.0
H554 H 0.8809 0.07765 1.00933 0.0
H555 H 0.90924 0.07749 0.93541 0.0
H556 H 0.91156 0.06333 0.04593 0.0
H557 H 0.93498 0.96314 0.99833 0.0
H558 H 0.97076 0.97152 0.88798 0.0
H559 H 0.93341 0.0455 0.81993 0.0
C560 C 0.85407 0.0281 0.0713 0.0
C561 C 0.84555 1.01019 0.13825 0.0
C562 C 0.86023 0.98659 0.14856 0.0
C563 C 0.88291 0.98108 0.09508 0.0
C564 C 0.89096 0.99933 0.03078 0.0
C565 C 0.87676 0.02229 0.01825 0.0
C566 C 0.8899 0.03905 0.94644 0.0
C567 C 0.87151 0.04242 0.86488 0.0
C568 C 0.8984 0.06597 0.98671 0.0
C569 C 0.91382 0.02215 0.92085 0.0
C570 C 0.91415 0.99931 0.97027 0.0
C571 C 0.9347 0.98097 0.95938 0.0
C572 C 0.95516 0.986 0.89666 0.0
C573 C 0.95527 1.00924 0.84475 0.0
C574 C 0.93407 0.02743 0.85762 0.0
H575 H 0.49447 0.84305 0.02425 0.0
H576 H 0.55896 0.85699 0.21112 0.0
H577 H 0.56868 0.89929 0.13639 0.0
H578 H 0.52549 0.87028 0.82595 0.0
H579 H 0.49533 0.8846 0.785 0.0
H580 H 0.49416 0.8554 0.85224 0.0
H581 H 0.46246 0.87923 0.96553 0.0
H582 H 0.46363 0.90849 0.89864 0.0
H583 H 0.47219 0.91032 0.01697 0.0
H584 H 0.57116 0.9412 0.03644 0.0
H585 H 0.56575 0.97701 0.9263 0.0
H586 H 0.49854 0.93578 0.80994 0.0
C587 C 0.51085 0.85486 0.04887 0.0
C588 C 0.52626 0.84621 0.1226 0.0
C589 C 0.54712 0.8627 0.15391 0.0
C590 C 0.55273 0.8869 0.11183 0.0
C591 C 0.53719 0.8947 0.03881 0.0
C592 C 0.51661 0.87905 1.00794 0.0
C593 C 0.50244 0.89186 0.92966 0.0
C594 C 0.50448 0.8745 0.8431 0.0
C595 C 0.47347 0.89782 0.9542 0.0
C596 C 0.5182 0.91715 0.92068 0.0
C597 C 0.53822 0.91856 0.98394 0.0
C598 C 0.5554 0.94019 0.98721 0.0
C599 C 0.55205 0.96066 0.92455 0.0
C600 C 0.53155 0.95967 0.8593 0.0
C601 C 0.51449 0.93742 0.85834 0.0
H602 H 0.66851 0.49587 0.13787 0.0
H603 H 0.71089 0.55881 1.00786 0.0
H604 H 0.6721 0.56704 0.91049 0.0
H605 H 0.63838 0.46965 0.94307 0.0
H606 H 0.60736 0.46179 0.99605 0.0
H607 H 0.63711 0.46289 0.06234 0.0
H608 H 0.61569 0.49707 0.17296 0.0
H609 H 0.58571 0.49618 0.10752 0.0
H610 H 0.60216 0.52717 0.12963 0.0
H611 H 0.6283 0.56606 0.81764 0.0
H612 H 0.58518 0.55621 0.74426 0.0
H613 H 0.57224 0.49331 0.93291 0.0
C614 C 0.66942 0.51187 0.09063 0.0
C615 C 0.69284 0.52706 0.08234 0.0
C616 C 0.69318 0.54731 0.01754 0.0
C617 C 0.67118 0.55198 0.96122 0.0
C618 C 0.64866 0.53627 0.96981 0.0
C619 C 0.64761 0.51676 0.03379 0.0
C620 C 0.62163 0.50178 0.02719 0.0
C621 C 0.62642 0.47228 1.0059 0.0
C622 C 0.60533 0.50579 0.1145 0.0
C623 C 0.60855 0.51524 0.94797 0.0
C624 C 0.6242 0.53534 0.91609 0.0
C625 C 0.61606 0.55029 0.84244 0.0
C626 C 0.59158 0.54443 0.80042 0.0
C627 C 0.57552 0.52353 0.83098 0.0
C628 C 0.58417 0.50916 0.90678 0.0
H629 H 0.03436 0.66467 0.19143 0.0
H630 H 0.9772 0.71237 0.05156 0.0
H631 H 0.97056 0.67573 0.93912 0.0
H632 H 0.0646 0.63571 0.99735 0.0
H633 H 0.0696 0.60389 0.04671 0.0
H634 H 0.0682 0.63311 0.11826 0.0
H635 H 0.03052 0.61236 0.21171 0.0
H636 H 0.03157 0.58305 0.14026 0.0
H637 H 1.00106 0.60102 0.15507 0.0
H638 H 0.97153 0.63191 0.83623 0.0
H639 H 0.98067 0.58858 0.75924 0.0
H640 H 0.03807 0.57102 0.96591 0.0
C641 C 0.01998 0.66728 0.13827 0.0
C642 C 1.00588 0.69149 0.13256 0.0
C643 C 0.98795 0.6941 0.0595 0.0
C644 C 0.9841 0.67325 0.99482 0.0
C645 C 0.99845 0.64969 1.00268 0.0
C646 C 0.01599 0.64673 0.07333 0.0
C647 C 0.02978 0.62002 0.06624 0.0
C648 C 0.05982 0.6234 0.05657 0.0
C649 C 0.02282 0.60311 0.14816 0.0
C650 C 0.01783 0.60847 0.97972 0.0
C651 C 0.99954 0.6256 0.94395 0.0
C652 C 0.986 0.61865 0.86408 0.0
C653 C 0.99145 0.59399 0.82005 0.0
C654 C 1.01066 0.57646 0.85455 0.0
C655 C 0.02359 0.58398 0.93637 0.0
H656 H 0.09736 0.19897 0.20532 0.0
H657 H 0.08046 0.27056 0.361 0.0
H658 H 0.06877 0.24467 0.48994 0.0
H659 H 0.04455 0.17294 0.22977 0.0
H660 H 0.05238 0.1386 0.24538 0.0
H661 H 0.07534 0.15918 0.18866 0.0
H662 H 0.11192 0.14778 0.30309 0.0
H663 H 0.08909 0.1263 0.35945 0.0
H664 H 0.1059 0.15198 0.42291 0.0
H665 H 0.03506 0.21741 0.55486 0.0
H666 H 0.99727 0.18778 0.57633 0.0
H667 H 0.03175 0.1315 0.38492 0.0
C668 C 0.09141 0.20931 0.26672 0.0
C669 C 0.08535 0.23665 0.26695 0.0
C670 C 0.08218 0.24942 0.35308 0.0
C671 C 0.07571 0.23469 0.42877 0.0
C672 C 0.07404 0.20738 0.41827 0.0
C673 C 0.08342 0.19446 0.34088 0.0
C674 C 0.07385 0.16603 0.33655 0.0
C675 C 0.06073 0.15885 0.24481 0.0
C676 C 0.09654 0.1469 0.35677 0.0
C677 C 0.05402 0.16675 0.41353 0.0
C678 C 0.05515 0.19042 0.462 0.0
C679 C 0.03493 0.19818 0.5214 0.0
C680 C 0.01325 0.18143 0.53207 0.0
C681 C 1.01196 0.15701 0.48426 0.0
C682 C 0.03292 0.14946 0.42588 0.0
H683 H 0.27829 0.02351 0.32811 0.0
H684 H 0.32453 0.09104 0.25127 0.0
H685 H 0.35008 0.08818 0.39202 0.0
H686 H 0.28983 0.03266 0.5978 0.0
H687 H 0.29173 0.99723 0.60479 0.0
H688 H 0.26884 1.01212 0.52761 0.0
H689 H 0.28906 0.98414 0.39605 0.0
H690 H 0.31206 0.96964 0.47154 0.0
H691 H 0.324 0.98643 0.37313 0.0
H692 H 0.38009 0.06868 0.49417 0.0
H693 H 0.41081 0.0358 0.54954 0.0
H694 H 0.34735 0.979 0.56832 0.0
C695 C 0.29269 0.03862 0.34468 0.0
C696 C 0.2995 0.05757 0.28044 0.0
C697 C 0.31904 0.07655 0.30073 0.0
C698 C 0.33346 0.07512 0.38092 0.0
C699 C 0.32811 0.05455 0.43961 0.0
C700 C 0.30767 0.03689 0.42364 0.0
C701 C 0.31006 0.01299 0.48313 0.0
C702 C 0.28886 0.01381 0.55777 0.0
C703 C 0.30878 0.98681 0.42755 0.0
C704 C 0.33715 0.01783 0.52298 0.0
C705 C 0.34641 0.04266 0.50153 0.0
C706 C 0.37267 0.04971 0.51473 0.0
C707 C 0.39014 0.03069 0.54571 0.0
C708 C 0.38141 1.00487 0.5647 0.0
C709 C 0.35434 0.99885 0.55731 0.0
H710 H 0.47385 0.29264 0.30671 0.0
H711 H 0.40901 0.30462 0.12411 0.0
H712 H 0.39851 0.34669 0.20109 0.0
H713 H 0.4456 0.34312 0.50879 0.0
H714 H 0.4794 0.35273 0.52801 0.0
H715 H 0.47146 0.31865 0.50288 0.0
H716 H 0.50531 0.31897 0.37181 0.0
H717 H 0.51261 0.35286 0.39387 0.0
H718 H 0.5015 0.34252 0.2827 0.0
H719 H 0.40999 0.39208 0.23084 0.0
H720 H 0.43565 0.43298 0.23688 0.0
H721 H 0.49454 0.39458 0.4009 0.0
C722 C 0.45605 0.30318 0.28919 0.0
C723 C 0.44246 0.29594 0.20955 0.0
C724 C 0.41953 0.30997 0.18559 0.0
C725 C 0.41364 0.33414 0.22873 0.0
C726 C 0.43058 0.34349 0.29659 0.0
C727 C 0.45066 0.3278 0.33043 0.0
C728 C 0.47003 0.34429 0.38578 0.0
C729 C 0.46638 0.33941 0.48738 0.0
C730 C 0.49901 0.33939 0.35651 0.0
C731 C 0.46069 0.37171 0.36293 0.0
C732 C 0.43716 0.37093 0.3157 0.0
C733 C 0.42765 0.39311 0.27176 0.0
C734 C 0.44265 0.41632 0.27451 0.0
C735 C 0.46698 0.41743 0.32136 0.0
C736 C 0.47551 0.39493 0.36809 0.0
H737 H 0.23645 0.48239 0.39487 0.0
H738 H 0.22849 0.41618 0.20874 0.0
H739 H 0.19248 0.39852 0.30094 0.0
H740 H 0.19925 0.44697 0.6105 0.0
H741 H 0.185 0.47893 0.63598 0.0
H742 H 0.21877 0.47638 0.5978 0.0
H743 H 0.20771 0.50905 0.47098 0.0
H744 H 0.1744 0.51085 0.50832 0.0
H745 H 0.18148 0.50107 0.39239 0.0
H746 H 0.14835 0.39895 0.36195 0.0
H747 H 0.104 0.41826 0.37219 0.0
H748 H 0.13667 0.48726 0.50956 0.0
C749 C 0.22826 0.46316 0.37847 0.0
C750 C 0.23501 0.45053 0.29594 0.0
C751 C 0.22366 0.42589 0.27279 0.0
C752 C 0.20315 0.41575 0.32525 0.0
C753 C 0.19409 0.43062 0.40002 0.0
C754 C 0.20689 0.45362 0.42841 0.0
C755 C 0.18941 0.47012 0.49115 0.0
C756 C 0.19866 0.46793 0.5897 0.0
C757 C 0.18814 0.49942 0.46371 0.0
C758 C 0.16341 0.45587 0.47758 0.0
C759 C 0.16696 0.43189 0.4323 0.0
C760 C 0.14548 0.41746 0.39869 0.0
C761 C 0.12027 0.42886 0.40334 0.0
C762 C 0.11687 0.45493 0.43806 0.0
C763 C 0.13834 0.46734 0.48269 0.0
H764 H 0.98405 0.84072 0.02009 0.0
H765 H 0.03308 0.77211 0.96447 0.0
H766 H 0.0461 0.79033 0.81824 0.0
H767 H 0.97073 0.85778 0.76391 0.0
H768 H 0.97318 0.8924 0.79341 0.0
H769 H 0.95866 0.86984 0.87216 0.0
H770 H 0.99186 0.88528 0.99614 0.0
H771 H 1.00556 0.90804 0.91874 0.0
H772 H 0.02675 0.88418 0.97125 0.0
H773 H 0.06369 0.82023 0.70437 0.0
H774 H 0.08731 0.85912 0.65058 0.0
H775 H 0.02904 0.90935 0.78633 0.0
C776 C 0.9968 0.82922 0.97536 0.0
C777 C 1.00757 0.80513 1.00347 0.0
C778 C 0.02425 0.79049 0.94376 0.0
C779 C 0.03163 0.80063 0.86002 0.0
C780 C 0.02197 0.82531 0.83634 0.0
C781 C 1.00457 0.83931 0.89211 0.0
C782 C 1.00173 0.86754 0.86264 0.0
C783 C 0.97445 0.87214 0.82052 0.0
C784 C 1.00685 0.88737 0.94178 0.0
C785 C 0.02308 0.86818 0.79079 0.0
C786 C 0.03323 0.84333 0.77193 0.0
C787 C 0.05564 0.83974 0.71783 0.0
C788 C 0.06927 0.86211 0.68881 0.0
C789 C 0.06105 0.88777 0.71717 0.0
C790 C 0.03639 0.8905 0.76219 0.0
H791 H 0.70626 0.99997 0.97835 0.0
H792 H 0.76176 0.06402 0.01778 0.0
H793 H 0.74606 0.08446 0.87767 0.0
H794 H 0.70854 1.00138 0.71302 0.0
H795 H 0.67395 0.99331 0.70812 0.0
H796 H 0.69435 0.97996 0.79594 0.0
H797 H 0.66248 0.99936 0.91853 0.0
H798 H 0.64202 1.01211 0.83115 0.0
H799 H 0.6547 0.03412 0.91827 0.0
H800 H 0.71646 0.10377 0.76657 0.0
H801 H 0.67548 0.11992 0.69781 0.0
H802 H 0.64219 0.04141 0.70899 0.0
C803 C 0.71558 0.01782 0.95514 0.0
C804 C 0.73504 0.03058 1.00788 0.0
C805 C 0.74686 0.05401 0.97732 0.0
C806 C 0.73825 0.06558 0.89751 0.0
C807 C 0.7184 0.053 0.84774 0.0
C808 C 0.7076 0.02926 0.87427 0.0
C809 C 0.68414 0.02168 0.81617 0.0
C810 C 0.69065 0.99766 0.75467 0.0
C811 C 0.6594 0.01657 0.87452 0.0
C812 C 0.68142 0.04637 0.76105 0.0
C813 C 0.70192 0.06384 0.77779 0.0
C814 C 0.70083 0.08998 0.74987 0.0
C815 C 0.67748 0.09903 0.7104 0.0
C816 C 0.6557 0.08189 0.69948 0.0
C817 C 0.65869 0.05481 0.71724 0.0
H818 H 0.55471 0.74006 1.00207 0.0
H819 H 0.6245 0.73188 0.16506 0.0
H820 H 0.63813 0.69312 0.07321 0.0
H821 H 0.53452 0.68496 0.02159 0.0
H822 H 0.52129 0.67674 0.91116 0.0
H823 H 0.5249 0.71047 0.94479 0.0
H824 H 0.55358 0.71893 0.8036 0.0
H825 H 0.55007 0.68476 0.76866 0.0
H826 H 0.58245 0.69898 0.7809 0.0
H827 H 0.63474 0.64804 0.01552 0.0
H828 H 0.61487 0.60388 1.00486 0.0
H829 H 0.544 0.63802 0.89226 0.0
C830 C 0.57389 0.73121 0.01263 0.0
C831 C 0.58878 0.7389 0.0889 0.0
C832 C 0.61323 0.72653 0.10522 0.0
C833 C 0.62099 0.70434 0.05329 0.0
C834 C 0.60398 0.69475 0.9859 0.0
C835 C 0.58107 0.70828 0.96374 0.0
C836 C 0.56247 0.69071 0.90933 0.0
C837 C 0.53421 0.6907 0.94937 0.0
C838 C 0.56214 0.69883 0.80972 0.0
C839 C 0.57617 0.66433 0.91872 0.0
C840 C 0.60098 0.66733 0.95647 0.0
C841 C 0.61559 0.64556 0.9842 0.0
C842 C 0.60392 0.6205 0.97933 0.0
C843 C 0.57747 0.61747 0.95015 0.0
C844 C 0.56431 0.63944 0.9138 0.0
H845 H 0.79697 0.55921 0.98318 0.0
H846 H 0.80608 0.62601 0.16605 0.0
H847 H 0.84394 0.64136 0.07753 0.0
H848 H 0.85115 0.53801 0.9936 0.0
H849 H 0.85898 0.5273 0.87914 0.0
H850 H 0.8254 0.53075 0.91245 0.0
H851 H 0.81732 0.56269 0.78182 0.0
H852 H 0.85143 0.55942 0.74784 0.0
H853 H 0.83757 0.59166 0.77076 0.0
H854 H 0.88864 0.63847 0.02227 0.0
H855 H 0.93226 0.61733 0.01656 0.0
H856 H 0.89802 0.54921 0.87907 0.0
C857 C 0.80585 0.57816 0.99918 0.0
C858 C 0.79875 0.59163 0.07992 0.0
C859 C 0.81106 0.61579 0.10304 0.0
C860 C 0.83269 0.62456 0.05282 0.0
C861 C 0.84188 0.6088 0.98037 0.0
C862 C 0.82828 0.5863 0.95167 0.0
C863 C 0.84563 0.56867 0.89199 0.0
C864 C 0.8453 0.53954 0.9214 0.0
C865 C 0.8375 0.57075 0.79221 0.0
C866 C 0.87213 0.58177 0.90772 0.0
C867 C 0.86925 0.60608 0.95151 0.0
C868 C 0.89103 0.61974 0.98648 0.0
C869 C 0.91578 0.60736 0.98425 0.0
C870 C 0.91841 0.58113 0.95025 0.0
C871 C 0.89678 0.56929 0.90495 0.0
H872 H 0.05762 0.21309 0.9028 0.0
H873 H 0.99823 0.20544 0.11171 0.0
H874 H 0.9871 0.16082 0.05117 0.0
H875 H 0.01837 0.17744 0.7238 0.0
H876 H 0.04743 0.16271 0.67218 0.0
H877 H 0.04954 0.19452 0.72902 0.0
H878 H 0.08638 0.177 0.82977 0.0
H879 H 0.08434 0.1452 0.77386 0.0
H880 H 0.08073 0.14817 0.8958 0.0
H881 H 0.98423 0.11522 0.97237 0.0
H882 H 0.98488 0.07586 0.87065 0.0
H883 H 0.04463 0.11235 0.70492 0.0
C884 C 0.04155 0.20243 0.93365 0.0
C885 C 0.0282 0.2135 0.0109 0.0
C886 C 1.00809 0.19815 0.05093 0.0
C887 C 1.00195 0.17245 0.01761 0.0
C888 C 0.01586 0.16197 0.94293 0.0
C889 C 0.03474 0.17681 0.89983 0.0
C890 C 0.04634 0.16106 0.81945 0.0
C891 C 0.04005 0.17478 0.73075 0.0
C892 C 0.07624 0.15758 0.83045 0.0
C893 C 0.03161 0.1347 0.82496 0.0
C894 C 0.0142 0.13576 0.8974 0.0
C895 C 0.99786 0.11433 0.9158 0.0
C896 C 0.99853 0.0918 0.85772 0.0
C897 C 0.01556 0.09009 0.78133 0.0
C898 C 0.0323 0.11218 0.76489 0.0
H899 H 0.344 1.00773 0.03568 0.0
H900 H 0.3088 0.06747 0.86909 0.0
H901 H 0.34953 0.06814 0.77486 0.0
H902 H 0.40736 0.03226 0.04084 0.0
H903 H 0.42532 1.00154 0.03059 0.0
H904 H 0.39283 1.00229 0.0806 0.0
H905 H 0.37501 0.9679 0.96729 0.0
H906 H 0.40746 0.96487 0.91767 0.0
H907 H 0.3795 0.97241 0.84763 0.0
H908 H 0.39727 0.06541 0.70849 0.0
H909 H 0.44287 0.05381 0.65952 0.0
H910 H 0.4467 0.99508 0.86696 0.0
C911 C 0.34453 0.02044 0.97773 0.0
C912 C 0.32275 0.03736 0.95953 0.0
C913 C 0.32473 0.05396 0.88381 0.0
C914 C 0.34805 0.05468 0.83049 0.0
C915 C 0.36943 0.03844 0.85248 0.0
C916 C 0.36751 0.02106 0.92298 0.0
C917 C 0.39319 1.00558 0.93288 0.0
C918 C 0.40542 1.01072 0.02676 0.0
C919 C 0.38852 0.97593 0.91531 0.0
C920 C 0.41015 0.01724 0.85833 0.0
C921 C 0.3962 0.03635 0.81313 0.0
C922 C 0.40809 0.05024 0.74311 0.0
C923 C 0.43426 0.04382 0.71645 0.0
C924 C 0.44887 0.02409 0.76066 0.0
C925 C 0.43635 1.01061 0.83245 0.0
H926 H 0.4583 0.33217 0.91993 0.0
H927 H 0.53892 0.30501 0.9524 0.0
H928 H 0.5548 0.34454 0.87274 0.0
H929 H 0.46711 0.3642 0.69932 0.0
H930 H 0.44526 0.3911 0.72981 0.0
H931 H 0.44014 0.35895 0.77673 0.0
H932 H 0.4427 0.37898 0.94076 0.0
H933 H 0.44629 0.4108 0.89128 0.0
H934 H 0.47048 0.39952 0.97115 0.0
H935 H 0.56191 0.3894 0.79828 0.0
H936 H 0.56009 0.43434 0.73944 0.0
H937 H 0.47485 0.43459 0.76801 0.0
C938 C 0.47936 0.33425 0.90975 0.0
C939 C 0.49731 0.31512 0.94351 0.0
C940 C 0.52462 0.31885 0.92672 0.0
C941 C 0.53383 0.3415 0.88204 0.0
C942 C 0.5156 0.36046 0.85403 0.0
C943 C 0.48887 0.35691 0.86687 0.0
C944 C 0.47335 0.38088 0.83589 0.0
C945 C 0.4554 0.37333 0.75567 0.0
C946 C 0.4573 0.39328 0.91456 0.0
C947 C 0.49553 0.39903 0.80624 0.0
C948 C 0.5197 0.38659 0.81539 0.0
C949 C 0.54305 0.39919 0.79125 0.0
C950 C 0.54178 0.42499 0.75772 0.0
C951 C 0.5174 0.43865 0.74972 0.0
C952 C 0.49393 0.42515 0.77419 0.0
H953 H 0.19742 0.46152 1.00593 0.0
H954 H 0.22818 0.54152 0.01038 0.0
H955 H 0.19056 0.5553 0.91576 0.0
H956 H 0.16838 0.46105 0.78008 0.0
H957 H 0.13979 0.44257 0.81391 0.0
H958 H 0.17079 0.43815 0.87126 0.0
H959 H 0.14889 0.45004 0.0265 0.0
H960 H 0.11804 0.45289 0.96792 0.0
H961 H 0.12982 0.48004 0.03776 0.0
H962 H 0.14733 0.56073 0.82418 0.0
H963 H 0.10341 0.55811 0.75396 0.0
H964 H 0.09778 0.47571 0.82506 0.0
C965 C 0.1965 0.48208 0.98796 0.0
C966 C 0.21632 0.50037 0.01794 0.0
C967 C 0.21396 0.52679 0.98864 0.0
C968 C 0.19233 0.5349 0.93511 0.0
C969 C 0.17275 0.51654 0.91085 0.0
C970 C 0.17472 0.49063 0.93665 0.0
C971 C 0.15028 0.47504 0.90735 0.0
C972 C 0.15776 0.45289 0.8391 0.0
C973 C 0.13591 0.46388 0.98989 0.0
C974 C 0.13383 0.49628 0.86235 0.0
C975 C 0.14744 0.51996 0.86342 0.0
C976 C 0.13657 0.54229 0.82413 0.0
C977 C 0.11129 0.54059 0.7843 0.0
C978 C 0.09626 0.5169 0.78504 0.0
C979 C 0.10814 0.49436 0.82428 0.0
H980 H 0.03916 0.84799 0.28129 0.0
H981 H 0.9693 0.81601 0.4076 0.0
H982 H 0.96675 0.85578 0.5092 0.0
H983 H 0.06674 0.87995 0.4907 0.0
H984 H 0.07946 0.9074 0.42864 0.0
H985 H 0.07679 0.8753 0.37425 0.0
H986 H 0.0497 0.89615 0.24823 0.0
H987 H 0.04992 0.92829 0.30291 0.0
H988 H 0.01899 0.91242 0.27517 0.0
H989 H 0.97064 0.90279 0.59209 0.0
H990 H 0.98183 0.94811 0.64804 0.0
H991 H 0.04903 0.94882 0.4666 0.0
C992 C 0.02355 0.84898 0.33147 0.0
C993 C 1.00446 0.82834 0.33575 0.0
C994 C 0.98443 0.83098 0.40291 0.0
C995 C 0.98273 0.8538 0.4607 0.0
C996 C 1.00138 0.87408 0.45232 0.0
C997 C 0.02175 0.87147 0.39017 0.0
C998 C 0.03909 0.89607 0.39223 0.0
C999 C 0.06719 0.88927 0.42329 0.0
C1000 C 0.03945 0.90904 0.29915 0.0
C1001 C 0.02502 0.91344 0.46295 0.0
C1002 C 1.00339 0.90045 0.49784 0.0
C1003 C 0.98754 0.91289 0.56441 0.0
C1004 C 0.9939 0.93888 0.59556 0.0
C1005 C 0.01588 0.95265 0.56022 0.0
C1006 C 0.03174 0.93926 0.49393 0.0
H1007 H 0.68776 0.04621 0.28175 0.0
H1008 H 0.72353 0.97652 0.39468 0.0
H1009 H 0.68529 0.97254 0.49916 0.0
H1010 H 0.65815 0.07197 0.4932 0.0
H1011 H 0.62914 0.08393 0.4368 0.0
H1012 H 0.66025 0.08227 0.37741 0.0
H1013 H 0.63848 0.05402 0.25115 0.0
H1014 H 0.60731 0.05452 0.3102 0.0
H1015 H 0.6226 0.02346 0.27875 0.0
H1016 H 0.63997 0.97553 0.5892 0.0
H1017 H 0.59546 0.98591 0.65277 0.0
H1018 H 0.58942 0.05231 0.47492 0.0
C1019 C 0.68779 0.03002 0.3283 0.0
C1020 C 0.70908 1.01154 0.32832 0.0
C1021 C 0.70795 0.99114 0.39271 0.0
C1022 C 0.68604 0.98862 0.45222 0.0
C1023 C 0.66511 1.00672 0.44791 0.0
C1024 C 0.6661 0.02722 0.38783 0.0
C1025 C 0.6411 0.04393 0.39439 0.0
C1026 C 0.64754 0.0722 0.42741 0.0
C1027 C 0.6265 0.04398 0.30324 0.0
C1028 C 0.6254 0.02934 0.46553 0.0
C1029 C 0.63957 1.00808 0.49688 0.0
C1030 C 0.62889 0.9921 0.56417 0.0
C1031 C 0.60338 0.99795 0.59953 0.0
C1032 C 0.5883 0.0193 0.56662 0.0
C1033 C 0.59997 0.03534 0.49981 0.0
H1034 H 0.53729 0.688 0.25768 0.0
H1035 H 0.53297 0.74512 0.48047 0.0
H1036 H 0.5238 0.70859 0.58578 0.0
H1037 H 0.48838 0.6411 0.33754 0.0
H1038 H 0.50732 0.61298 0.29778 0.0
H1039 H 0.50977 0.64389 0.24041 0.0
H1040 H 0.56059 0.64398 0.26297 0.0
H1041 H 0.5578 0.61291 0.31824 0.0
H1042 H 0.57376 0.64031 0.37537 0.0
H1043 H 0.51652 0.66354 0.66817 0.0
H1044 H 0.51492 0.61701 0.71729 0.0
H1045 H 0.52893 0.59029 0.4407 0.0
C1046 C 0.5344 0.69311 0.3286 0.0
C1047 C 0.53618 0.71982 0.36015 0.0
C1048 C 0.53153 0.72511 0.45363 0.0
C1049 C 0.52647 0.70434 0.51419 0.0
C1050 C 0.52609 0.67818 0.48077 0.0
C1051 C 0.52994 0.67269 0.38969 0.0
C1052 C 0.53055 0.64311 0.37022 0.0
C1053 C 0.50764 0.63479 0.3078 0.0
C1054 C 0.55729 0.63461 0.32936 0.0
C1055 C 0.52684 0.63247 0.4647 0.0
C1056 C 0.52373 0.6529 0.52768 0.0
C1057 C 0.51927 0.64759 0.61907 0.0
C1058 C 0.51829 0.62101 0.64649 0.0
C1059 C 0.52227 0.5998 0.58344 0.0
C1060 C 0.52646 0.60588 0.49125 0.0
H1061 H 0.85007 0.53971 0.2498 0.0
H1062 H 0.7909 0.53307 0.46081 0.0
H1063 H 0.82658 0.52455 0.57191 0.0
H1064 H 0.89718 0.49137 0.33172 0.0
H1065 H 0.92527 0.51093 0.2998 0.0
H1066 H 0.89491 0.51318 0.23724 0.0
H1067 H 0.89375 0.56384 0.26695 0.0
H1068 H 0.92422 0.56131 0.328 0.0
H1069 H 0.8959 0.57657 0.38178 0.0
H1070 H 0.87108 0.51831 0.66258 0.0
H1071 H 0.91709 0.51662 0.71969 0.0
H1072 H 0.9462 0.53155 0.44974 0.0
C1073 C 0.84433 0.53643 0.3193 0.0
C1074 C 0.81722 0.53736 0.34571 0.0
C1075 C 0.81119 0.53229 0.43761 0.0
C1076 C 0.8315 0.52762 0.50157 0.0
C1077 C 0.85799 0.52802 0.47333 0.0
C1078 C 0.86426 0.53226 0.3838 0.0
C1079 C 0.89404 0.53335 0.37008 0.0
C1080 C 0.90339 0.51087 0.30592 0.0
C1081 C 0.90244 0.5604 0.33467 0.0
C1082 C 0.90386 0.52936 0.46601 0.0
C1083 C 0.88288 0.52587 0.52478 0.0
C1084 C 0.88743 0.52122 0.61659 0.0
C1085 C 0.91377 0.52024 0.64865 0.0
C1086 C 0.93558 0.5244 0.59004 0.0
C1087 C 0.93022 0.52893 0.49731 0.0
loop_
_geom_bond_atom_site_label_1
_geom_bond_atom_site_label_2
_geom_bond_distance
_geom_bond_site_symmetry_2
_ccdc_geom_bond_type
H0 C7 0.929 . S
H1 C10 0.930 . S
H2 C12 0.929 . S
H3 C4 0.969 . S
C4 H3 0.969 . S
C4 O5 1.550 . S
C4 H6 0.973 . S
O5 C4 1.550 . S
O5 C11 1.412 . S
H6 C4 0.973 . S
C7 H0 0.929 . S
C7 C8 1.400 . S
C7 C9 1.364 . S
C8 C7 1.400 . S
C8 C12 1.377 . S
C9 C7 1.364 . S
C9 C10 1.374 . S
C10 H1 0.930 . S
C10 C9 1.374 . S
C10 C11 1.383 . S
C11 O5 1.412 . S
C11 C10 1.383 . S
C11 C12 1.394 . S
C12 H2 0.929 . S
C12 C8 1.377 . S
C12 C11 1.394 . S
H13 C20 0.929 . S
H14 C23 0.930 . S
H15 C25 0.929 . S
H16 C17 0.969 . S
C17 H16 0.969 . S
C17 O18 1.550 . S
C17 H19 0.973 . S
O18 C17 1.550 . S
O18 C24 1.412 . S
H19 C17 0.973 . S
C20 H13 0.929 . S
C20 C21 1.400 . S
C20 C22 1.364 . S
C21 C20 1.400 . S
C21 C25 1.377 . S
C22 C20 1.364 . S
C22 C23 1.374 . S
C23 H14 0.930 . S
C23 C22 1.374 . S
C23 C24 1.383 . S
C24 O18 1.412 . S
C24 C23 1.383 . S
C24 C25 1.394 . S
C25 H15 0.929 . S
C25 C21 1.377 . S
C25 C24 1.394 . S
H26 C33 0.929 . S
H27 C36 0.930 . S
H28 C38 0.929 . S
H29 C30 0.969 . S
C30 H29 0.969 . S
C30 O31 1.550 . S
C30 H32 0.973 . S
O31 C30 1.550 . S
O31 C37 1.412 . S
H32 C30 0.973 . S
C33 H26 0.929 . S
C33 C34 1.400 . S
C33 C35 1.364 . S
C34 C33 1.400 . S
C34 C38 1.377 . S
C35 C33 1.364 . S
C35 C36 1.374 . S
C36 H27 0.930 . S
C36 C35 1.374 . S
C36 C37 1.383 . S
C37 O31 1.412 . S
C37 C36 1.383 . S
C37 C38 1.394 . S
C38 H28 0.929 . S
C38 C34 1.377 . S
C38 C37 1.394 . S
H39 C46 0.929 . S
H40 C49 0.930 . S
H41 C51 0.929 . S
H42 C43 0.969 . S
C43 H42 0.969 . S
C43 O44 1.550 . S
C43 H45 0.973 . S
O44 C43 1.550 . S
O44 C50 1.412 . S
H45 C43 0.973 . S
C46 H39 0.929 . S
C46 C47 1.400 . S
C46 C48 1.364 . S
C47 C46 1.400 . S
C47 C51 1.377 . S
C48 C46 1.364 . S
C48 C49 1.374 . S
C49 H40 0.930 . S
C49 C48 1.374 . S
C49 C50 1.383 . S
C50 O44 1.412 . S
C50 C49 1.383 . S
C50 C51 1.394 . S
C51 H41 0.929 . S
C51 C47 1.377 . S
C51 C50 1.394 . S
H52 C59 0.929 . S
H53 C62 0.930 . S
H54 C64 0.929 . S
H55 C56 0.969 . S
C56 H55 0.969 . S
C56 O57 1.550 . S
C56 H58 0.973 . S
O57 C56 1.550 . S
O57 C63 1.412 . S
H58 C56 0.973 . S
C59 H52 0.929 . S
C59 C60 1.400 . S
C59 C61 1.364 1_556 S
C60 C59 1.400 . S
C60 C64 1.377 . S
C61 C59 1.364 1_554 S
C61 C62 1.374 . S
C62 H53 0.930 . S
C62 C61 1.374 . S
C62 C63 1.383 . S
C63 O57 1.412 . S
C63 C62 1.383 . S
C63 C64 1.394 1_554 S
C64 H54 0.929 . S
C64 C60 1.377 . S
C64 C63 1.394 1_556 S
H65 C72 0.929 . S
H66 C75 0.930 . S
H67 C77 0.929 . S
H68 C69 0.969 . S
C69 H68 0.969 . S
C69 O70 1.556 . S
C69 H71 0.973 . S
O70 C69 1.556 . S
O70 C76 1.412 . S
H71 C69 0.973 . S
C72 H65 0.929 . S
C72 C73 1.400 . S
C72 C74 1.364 1_556 S
C73 C72 1.400 . S
C73 C77 1.377 . S
C74 C72 1.364 1_554 S
C74 C75 1.374 . S
C75 H66 0.930 . S
C75 C74 1.374 . S
C75 C76 1.386 . S
C76 O70 1.412 . S
C76 C75 1.386 . S
C76 C77 1.391 1_554 S
C77 H67 0.929 . S
C77 C73 1.377 . S
C77 C76 1.391 1_556 S
H78 C85 0.929 . S
H79 C88 0.930 . S
H80 C90 0.929 . S
H81 C82 0.969 . S
C82 H81 0.969 . S
C82 O83 1.550 1_554 S
C82 H84 0.973 . S
O83 C82 1.550 1_556 S
O83 C89 1.412 . S
H84 C82 0.973 . S
C85 H78 0.929 . S
C85 C86 1.400 . S
C85 C87 1.364 1_556 S
C86 C85 1.400 . S
C86 C90 1.377 . S
C87 C85 1.364 1_554 S
C87 C88 1.374 . S
C88 H79 0.930 . S
C88 C87 1.374 . S
C88 C89 1.383 1_554 S
C89 O83 1.412 . S
C89 C88 1.383 1_556 S
C89 C90 1.394 . S
C90 H80 0.929 . S
C90 C86 1.377 . S
C90 C89 1.394 . S
H91 C98 0.929 . S
H92 C101 0.930 . S
H93 C103 0.929 . S
H94 C95 0.969 . S
C95 H94 0.969 . S
C95 O96 1.550 . S
C95 H97 0.973 . S
O96 C95 1.550 . S
O96 C102 1.412 . S
H97 C95 0.973 . S
C98 H91 0.929 . S
C98 C99 1.400 . S
C98 C100 1.364 1_556 S
C99 C98 1.400 . S
C99 C103 1.377 . S
C100 C98 1.364 1_554 S
C100 C101 1.374 . S
C101 H92 0.930 . S
C101 C100 1.374 . S
C101 C102 1.383 . S
C102 O96 1.412 . S
C102 C101 1.383 . S
C102 C103 1.394 1_554 S
C103 H93 0.929 . S
C103 C99 1.377 . S
C103 C102 1.394 1_556 S
Gd104 N135 2.641 1_545 S
Gd104 N141 2.601 . S
Gd104 O148 2.545 . S
Gd104 O149 2.606 1_655 S
Gd104 O151 2.429 . S
Gd104 O152 2.545 1_655 S
Gd104 O153 2.412 . S
Gd104 O155 2.362 1_545 S
Gd104 O156 2.324 1_655 S
Gd104 C163 2.828 . S
Gd105 N114 2.661 1_565 S
Gd105 N118 2.601 1_565 S
Gd105 O149 2.362 1_565 S
Gd105 O150 2.324 1_455 S
Gd105 O154 2.545 . S
Gd105 O155 2.606 1_455 S
Gd105 O157 2.429 . S
Gd105 O158 2.545 . S
Gd105 O159 2.412 . S
Gd105 C172 2.828 . S
C106 C109 1.417 1_554 S
C106 C111 1.431 . S
C106 C112 1.412 . S
C107 C110 1.437 1_554 S
C107 C111 1.317 . S
C107 H126 0.929 . S
C108 C109 1.426 . S
C108 C110 1.413 . S
C108 N118 1.359 . S
C109 C106 1.417 1_556 S
C109 C108 1.426 . S
C109 N114 1.350 . S
C110 C107 1.437 1_556 S
C110 C108 1.413 . S
C110 C120 1.391 . S
C111 C106 1.431 . S
C111 C107 1.317 . S
C111 H122 0.930 . S
C112 C106 1.412 . S
C112 C113 1.355 . S
C112 H124 0.930 . S
C113 C112 1.355 . S
C113 C115 1.402 1_554 S
C113 H125 0.930 1_455 S
N114 Gd105 2.661 1_545 S
N114 C109 1.350 . S
N114 C115 1.307 . S
C115 C113 1.402 1_556 S
C115 N114 1.307 . S
C115 H116 0.930 1_455 S
H116 C115 0.930 1_655 S
C117 N118 1.334 1_565 S
C117 C119 1.394 . S
C117 H121 0.930 . S
N118 Gd105 2.601 1_545 S
N118 C108 1.359 . S
N118 C117 1.334 1_545 S
C119 C117 1.394 . S
C119 C120 1.359 1_565 S
C119 H131 0.930 . S
C120 C110 1.391 . S
C120 C119 1.359 1_545 S
C120 H132 0.929 . S
H121 C117 0.930 . S
H122 C111 0.930 . S
H123 C140 0.930 . S
H124 C112 0.930 . S
H125 C113 0.930 1_655 S
H126 C107 0.929 . S
H127 C145 0.930 . S
H128 C136 0.930 . S
H129 C137 0.930 . S
H130 C161 0.929 . S
H131 C119 0.930 . S
H132 C120 0.929 . S
H133 C162 0.930 . S
H134 C143 0.930 . S
N135 Gd104 2.641 1_565 S
N135 C139 1.358 . S
N135 C140 1.321 1_655 S
C136 H128 0.930 . S
C136 C137 1.355 1_655 S
C136 C138 1.412 . S
C137 H129 0.930 . S
C137 C136 1.355 1_455 S
C137 C140 1.402 . S
C138 C136 1.412 . S
C138 C139 1.417 . S
C138 C162 1.431 . S
C139 N135 1.358 . S
C139 C138 1.417 . S
C139 C142 1.426 1_565 S
C140 H123 0.930 . S
C140 N135 1.321 1_455 S
C140 C137 1.402 . S
N141 Gd104 2.601 . S
N141 C142 1.359 . S
N141 C145 1.334 . S
C142 C139 1.426 1_545 S
C142 N141 1.359 . S
C142 C146 1.409 1_545 S
C143 H134 0.930 . S
C143 C144 1.359 . S
C143 C145 1.394 . S
C144 C143 1.359 . S
C144 C146 1.379 1_545 S
C144 H147 0.929 . S
C145 H127 0.930 . S
C145 N141 1.334 . S
C145 C143 1.394 . S
C146 C142 1.409 1_565 S
C146 C144 1.379 1_565 S
C146 C161 1.454 . S
H147 C144 0.929 . S
O148 Gd104 2.545 . S
O148 C163 1.258 . S
O149 Gd104 2.606 1_455 S
O149 Gd105 2.362 1_545 S
O149 C160 1.284 . S
O150 Gd105 2.324 1_655 S
O150 C170 1.254 1_565 S
O151 Gd104 2.429 . S
O151 C170 1.268 . S
O152 Gd104 2.545 1_455 S
O152 C160 1.250 . S
O153 Gd104 2.412 . S
O153 C163 1.252 . S
O154 Gd105 2.545 . S
O154 C172 1.258 . S
O155 Gd104 2.362 1_565 S
O155 Gd105 2.606 1_655 S
O155 C171 1.284 . S
O156 Gd104 2.324 1_455 S
O156 C179 1.254 . S
O157 Gd105 2.429 . S
O157 C179 1.268 1_565 S
O158 Gd105 2.545 . S
O158 C171 1.250 1_455 S
O159 Gd105 2.412 . S
O159 C172 1.252 . S
C160 O149 1.284 . S
C160 O152 1.250 . S
C161 H130 0.929 . S
C161 C146 1.454 . S
C161 C162 1.317 . S
C162 H133 0.930 . S
C162 C138 1.431 . S
C162 C161 1.317 . S
C163 Gd104 2.828 . S
C163 O148 1.258 . S
C163 O153 1.252 . S
C163 C164 1.497 . S
C164 C163 1.497 . S
C164 C165 1.395 . S
C164 C166 1.380 . S
C165 C164 1.395 . S
C165 C168 1.398 . S
C165 H180 0.930 . S
C166 C164 1.380 . S
C166 C167 1.391 . S
C166 H181 0.930 1_655 S
C167 C166 1.391 . S
C167 C169 1.387 . S
C168 C165 1.398 . S
C168 C169 1.380 . S
C168 H182 0.930 . S
C169 C167 1.387 . S
C169 C168 1.380 . S
C169 H183 0.930 . S
C170 O150 1.254 1_545 S
C170 O151 1.268 . S
C171 O155 1.284 . S
C171 O158 1.250 1_655 S
C172 Gd105 2.828 . S
C172 O154 1.258 . S
C172 O159 1.252 . S
C172 C173 1.497 . S
C173 C172 1.497 . S
C173 C174 1.395 . S
C173 C175 1.380 . S
C174 C173 1.395 . S
C174 C177 1.398 . S
C174 H184 0.930 . S
C175 C173 1.380 . S
C175 C176 1.391 . S
C175 H185 0.947 . S
C176 C175 1.391 . S
C176 C178 1.387 1_556 S
C177 C174 1.398 . S
C177 C178 1.380 1_556 S
C177 H186 0.930 . S
C178 C176 1.387 1_554 S
C178 C177 1.380 1_554 S
C178 H187 0.930 . S
C179 O156 1.254 . S
C179 O157 1.268 1_545 S
H180 C165 0.930 . S
H181 C166 0.930 1_455 S
H182 C168 0.930 . S
H183 C169 0.930 . S
H184 C174 0.930 . S
H185 C175 0.947 . S
H186 C177 0.930 . S
H187 C178 0.930 . S
Gd188 N219 2.661 . S
Gd188 N225 2.601 . S
Gd188 O232 2.545 . S
Gd188 O233 2.606 1_565 S
Gd188 O235 2.429 . S
Gd188 O236 2.545 1_565 S
Gd188 O237 2.412 . S
Gd188 O239 2.362 . S
Gd188 O240 2.324 1_565 S
Gd188 C247 2.828 . S
Gd189 N198 2.661 . S
Gd189 N202 2.601 . S
Gd189 O233 2.362 . S
Gd189 O234 2.324 1_545 S
Gd189 O238 2.545 . S
Gd189 O239 2.606 1_545 S
Gd189 O241 2.429 . S
Gd189 O242 2.545 . S
Gd189 O243 2.412 . S
Gd189 C256 2.828 . S
C190 C193 1.417 1_554 S
C190 C195 1.431 . S
C190 C196 1.412 . S
C191 C194 1.437 1_554 S
C191 C195 1.317 . S
C191 H210 0.929 . S
C192 C193 1.426 . S
C192 C194 1.413 . S
C192 N202 1.359 . S
C193 C190 1.417 1_556 S
C193 C192 1.426 . S
C193 N198 1.350 . S
C194 C191 1.437 1_556 S
C194 C192 1.413 . S
C194 C204 1.391 . S
C195 C190 1.431 . S
C195 C191 1.317 . S
C195 H206 0.930 . S
C196 C190 1.412 . S
C196 C197 1.355 . S
C196 H208 0.930 . S
C197 C196 1.355 . S
C197 C199 1.402 1_554 S
C197 H209 0.930 1_545 S
N198 Gd189 2.661 . S
N198 C193 1.350 . S
N198 C199 1.307 . S
C199 C197 1.402 1_556 S
C199 N198 1.307 . S
C199 H200 0.930 1_545 S
H200 C199 0.930 1_565 S
C201 N202 1.334 . S
C201 C203 1.394 . S
C201 H205 0.930 . S
N202 Gd189 2.601 . S
N202 C192 1.359 . S
N202 C201 1.334 . S
C203 C201 1.394 . S
C203 C204 1.359 . S
C203 H215 0.930 . S
C204 C194 1.391 . S
C204 C203 1.359 . S
C204 H216 0.929 . S
H205 C201 0.930 . S
H206 C195 0.930 . S
H207 C224 0.930 . S
H208 C196 0.930 . S
H209 C197 0.930 1_565 S
H210 C191 0.929 . S
H211 C229 0.930 . S
H212 C220 0.930 . S
H213 C221 0.930 . S
H214 C245 0.929 . S
H215 C203 0.930 . S
H216 C204 0.929 . S
H217 C246 0.930 . S
H218 C227 0.930 . S
N219 Gd188 2.661 . S
N219 C223 1.350 . S
N219 C224 1.307 1_565 S
C220 H212 0.930 . S
C220 C221 1.355 1_565 S
C220 C222 1.412 . S
C221 H213 0.930 . S
C221 C220 1.355 1_545 S
C221 C224 1.402 . S
C222 C220 1.412 . S
C222 C223 1.417 . S
C222 C246 1.431 . S
C223 N219 1.350 . S
C223 C222 1.417 . S
C223 C226 1.426 . S
C224 H207 0.930 . S
C224 N219 1.307 1_545 S
C224 C221 1.402 . S
N225 Gd188 2.601 . S
N225 C226 1.359 . S
N225 C229 1.334 . S
C226 C223 1.426 . S
C226 N225 1.359 . S
C226 C230 1.413 . S
C227 H218 0.930 . S
C227 C228 1.359 . S
C227 C229 1.394 . S
C228 C227 1.359 . S
C228 C230 1.391 . S
C228 H231 0.929 . S
C229 H211 0.930 . S
C229 N225 1.334 . S
C229 C227 1.394 . S
C230 C226 1.413 . S
C230 C228 1.391 . S
C230 C245 1.437 . S
H231 C228 0.929 . S
O232 Gd188 2.545 . S
O232 C247 1.258 . S
O233 Gd188 2.606 1_545 S
O233 Gd189 2.362 . S
O233 C244 1.284 . S
O234 Gd189 2.324 1_565 S
O234 C254 1.254 . S
O235 Gd188 2.429 . S
O235 C254 1.268 . S
O236 Gd188 2.545 1_545 S
O236 C244 1.250 . S
O237 Gd188 2.412 . S
O237 C247 1.252 . S
O238 Gd189 2.545 . S
O238 C256 1.258 . S
O239 Gd188 2.362 . S
O239 Gd189 2.606 1_565 S
O239 C255 1.284 . S
O240 Gd188 2.324 1_545 S
O240 C263 1.254 . S
O241 Gd189 2.429 . S
O241 C263 1.268 . S
O242 Gd189 2.545 . S
O242 C255 1.250 1_545 S
O243 Gd189 2.412 . S
O243 C256 1.252 . S
C244 O233 1.284 . S
C244 O236 1.250 . S
C245 H214 0.929 . S
C245 C230 1.437 . S
C245 C246 1.317 . S
C246 H217 0.930 . S
C246 C222 1.431 . S
C246 C245 1.317 . S
C247 Gd188 2.828 . S
C247 O232 1.258 . S
C247 O237 1.252 . S
C247 C248 1.497 . S
C248 C247 1.497 . S
C248 C249 1.395 . S
C248 C250 1.380 . S
C249 C248 1.395 . S
C249 C252 1.398 . S
C249 H264 0.930 . S
C250 C248 1.380 . S
C250 C251 1.391 . S
C250 H265 0.930 1_565 S
C251 C250 1.391 . S
C251 C253 1.387 . S
C252 C249 1.398 . S
C252 C253 1.380 . S
C252 H266 0.930 . S
C253 C251 1.387 . S
C253 C252 1.380 . S
C253 H267 0.930 . S
C254 O234 1.254 . S
C254 O235 1.268 . S
C255 O239 1.284 . S
C255 O242 1.250 1_565 S
C256 Gd189 2.828 . S
C256 O238 1.258 . S
C256 O243 1.252 . S
C256 C257 1.497 . S
C257 C256 1.497 . S
C257 C258 1.395 . S
C257 C259 1.380 . S
C258 C257 1.395 . S
C258 C261 1.398 . S
C258 H268 0.930 . S
C259 C257 1.380 . S
C259 C260 1.391 . S
C259 H269 0.930 . S
C260 C259 1.391 . S
C260 C262 1.387 1_556 S
C261 C258 1.398 . S
C261 C262 1.380 1_556 S
C261 H270 0.930 . S
C262 C260 1.387 1_554 S
C262 C261 1.380 1_554 S
C262 H271 0.930 . S
C263 O240 1.254 . S
C263 O241 1.268 . S
H264 C249 0.930 . S
H265 C250 0.930 1_545 S
H266 C252 0.930 . S
H267 C253 0.930 . S
H268 C258 0.930 . S
H269 C259 0.930 . S
H270 C261 0.930 . S
H271 C262 0.930 . S
Gd272 N303 2.661 . S
Gd272 N309 2.601 . S
Gd272 O316 2.545 . S
Gd272 O317 2.606 . S
Gd272 O319 2.429 . S
Gd272 O320 2.545 . S
Gd272 O321 2.412 . S
Gd272 O323 2.362 . S
Gd272 O324 2.324 . S
Gd272 C331 2.828 . S
Gd273 N282 2.661 . S
Gd273 N286 2.601 . S
Gd273 O317 2.362 . S
Gd273 O318 2.324 . S
Gd273 O322 2.545 . S
Gd273 O323 2.606 . S
Gd273 O325 2.429 . S
Gd273 O326 2.545 . S
Gd273 O327 2.412 . S
Gd273 C340 2.828 . S
C274 C277 1.417 . S
C274 C279 1.431 . S
C274 C280 1.412 . S
C275 C278 1.437 . S
C275 C279 1.317 . S
C275 H294 0.929 . S
C276 C277 1.426 . S
C276 C278 1.413 . S
C276 N286 1.359 . S
C277 C274 1.417 . S
C277 C276 1.426 . S
C277 N282 1.350 . S
C278 C275 1.437 . S
C278 C276 1.413 . S
C278 C288 1.391 . S
C279 C274 1.431 . S
C279 C275 1.317 . S
C279 H290 0.930 . S
C280 C274 1.412 . S
C280 C281 1.355 . S
C280 H292 0.930 . S
C281 C280 1.355 . S
C281 C283 1.402 . S
C281 H293 0.930 . S
N282 Gd273 2.661 . S
N282 C277 1.350 . S
N282 C283 1.307 . S
C283 C281 1.402 . S
C283 N282 1.307 . S
C283 H284 0.930 . S
H284 C283 0.930 . S
C285 N286 1.334 . S
C285 C287 1.394 . S
C285 H289 0.930 . S
N286 Gd273 2.601 . S
N286 C276 1.359 . S
N286 C285 1.334 . S
C287 C285 1.394 . S
C287 C288 1.359 . S
C287 H299 0.930 . S
C288 C278 1.391 . S
C288 C287 1.359 . S
C288 H300 0.929 . S
H289 C285 0.930 . S
H290 C279 0.930 . S
H291 C308 0.930 . S
H292 C280 0.930 . S
H293 C281 0.930 . S
H294 C275 0.929 . S
H295 C313 0.930 . S
H296 C304 0.930 . S
H297 C305 0.930 . S
H298 C329 0.929 . S
H299 C287 0.930 . S
H300 C288 0.929 . S
H301 C330 0.930 . S
H302 C311 0.930 . S
N303 Gd272 2.661 . S
N303 C307 1.350 . S
N303 C308 1.307 . S
C304 H296 0.930 . S
C304 C305 1.355 . S
C304 C306 1.412 . S
C305 H297 0.930 . S
C305 C304 1.355 . S
C305 C308 1.402 . S
C306 C304 1.412 . S
C306 C307 1.417 . S
C306 C330 1.431 . S
C307 N303 1.350 . S
C307 C306 1.417 . S
C307 C310 1.426 . S
C308 H291 0.930 . S
C308 N303 1.307 . S
C308 C305 1.402 . S
N309 Gd272 2.601 . S
N309 C310 1.359 . S
N309 C313 1.334 . S
C310 C307 1.426 . S
C310 N309 1.359 . S
C310 C314 1.413 . S
C311 H302 0.930 . S
C311 C312 1.359 . S
C311 C313 1.394 . S
C312 C311 1.359 . S
C312 C314 1.391 . S
C312 H315 0.929 . S
C313 H295 0.930 . S
C313 N309 1.334 . S
C313 C311 1.394 . S
C314 C310 1.413 . S
C314 C312 1.391 . S
C314 C329 1.437 . S
H315 C312 0.929 . S
O316 Gd272 2.545 . S
O316 C331 1.258 . S
O317 Gd272 2.606 . S
O317 Gd273 2.362 . S
O317 C328 1.284 . S
O318 Gd273 2.324 . S
O318 C338 1.254 . S
O319 Gd272 2.429 . S
O319 C338 1.268 . S
O320 Gd272 2.545 . S
O320 C328 1.250 . S
O321 Gd272 2.412 . S
O321 C331 1.252 . S
O322 Gd273 2.545 . S
O322 C340 1.258 . S
O323 Gd272 2.362 . S
O323 Gd273 2.606 . S
O323 C339 1.284 . S
O324 Gd272 2.324 . S
O324 C347 1.254 . S
O325 Gd273 2.429 . S
O325 C347 1.268 . S
O326 Gd273 2.545 . S
O326 C339 1.250 . S
O327 Gd273 2.412 . S
O327 C340 1.252 . S
C328 O317 1.284 . S
C328 O320 1.250 . S
C329 H298 0.929 . S
C329 C314 1.437 . S
C329 C330 1.317 . S
C330 H301 0.930 . S
C330 C306 1.431 . S
C330 C329 1.317 . S
C331 Gd272 2.828 . S
C331 O316 1.258 . S
C331 O321 1.252 . S
C331 C332 1.497 . S
C332 C331 1.497 . S
C332 C333 1.395 1_556 S
C332 C334 1.380 . S
C333 C332 1.395 1_554 S
C333 C336 1.398 . S
C333 H348 0.930 . S
C334 C332 1.380 . S
C334 C335 1.391 1_556 S
C334 H349 0.930 . S
C335 C334 1.391 1_554 S
C335 C337 1.387 . S
C336 C333 1.398 . S
C336 C337 1.380 . S
C336 H350 0.930 . S
C337 C335 1.387 . S
C337 C336 1.380 . S
C337 H351 0.930 . S
C338 O318 1.254 . S
C338 O319 1.268 . S
C339 O323 1.284 . S
C339 O326 1.250 . S
C340 Gd273 2.828 . S
C340 O322 1.258 . S
C340 O327 1.252 . S
C340 C341 1.497 . S
C341 C340 1.497 . S
C341 C342 1.395 . S
C341 C343 1.380 . S
C342 C341 1.395 . S
C342 C345 1.398 . S
C342 H352 0.930 . S
C343 C341 1.380 . S
C343 C344 1.391 . S
C343 H353 0.930 . S
C344 C343 1.391 . S
C344 C346 1.387 . S
C345 C342 1.398 . S
C345 C346 1.380 . S
C345 H354 0.930 . S
C346 C344 1.387 . S
C346 C345 1.380 . S
C346 H355 0.930 . S
C347 O324 1.254 . S
C347 O325 1.268 . S
H348 C333 0.930 . S
H349 C334 0.930 . S
H350 C336 0.930 . S
H351 C337 0.930 . S
H352 C342 0.930 . S
H353 C343 0.930 . S
H354 C345 0.930 . S
H355 C346 0.930 . S
Gd356 N387 2.661 . S
Gd356 N393 2.601 . S
Gd356 O400 2.545 . S
Gd356 O401 2.606 1_655 S
Gd356 O403 2.429 1_655 S
Gd356 O404 2.545 . S
Gd356 O405 2.412 . S
Gd356 O407 2.362 1_655 S
Gd356 O408 2.324 . S
Gd356 C415 2.828 . S
Gd357 N366 2.661 . S
Gd357 N370 2.601 . S
Gd357 O401 2.362 . S
Gd357 O402 2.324 . S
Gd357 O406 2.545 . S
Gd357 O407 2.606 . S
Gd357 O409 2.429 1_455 S
Gd357 O410 2.545 . S
Gd357 O411 2.412 . S
Gd357 C424 2.828 . S
C358 C361 1.417 . S
C358 C363 1.431 . S
C358 C364 1.412 . S
C359 C362 1.437 . S
C359 C363 1.317 . S
C359 H378 0.929 . S
C360 C361 1.426 . S
C360 C362 1.413 . S
C360 N370 1.359 . S
C361 C358 1.417 . S
C361 C360 1.426 . S
C361 N366 1.350 . S
C362 C359 1.437 . S
C362 C360 1.413 . S
C362 C372 1.391 . S
C363 C358 1.431 . S
C363 C359 1.317 . S
C363 H374 0.930 . S
C364 C358 1.412 . S
C364 C365 1.355 . S
C364 H376 0.930 . S
C365 C364 1.355 . S
C365 C367 1.402 . S
C365 H377 0.930 . S
N366 Gd357 2.661 . S
N366 C361 1.350 . S
N366 C367 1.307 . S
C367 C365 1.402 . S
C367 N366 1.307 . S
C367 H368 0.930 . S
H368 C367 0.930 . S
C369 N370 1.342 . S
C369 C371 1.393 1_455 S
C369 H373 0.924 1_455 S
N370 Gd357 2.601 . S
N370 C360 1.359 . S
N370 C369 1.342 . S
C371 C369 1.393 1_655 S
C371 C372 1.359 1_655 S
C371 H383 0.930 . S
C372 C362 1.391 . S
C372 C371 1.359 1_455 S
C372 H384 0.929 . S
H373 C369 0.924 1_655 S
H374 C363 0.930 . S
H375 C392 0.930 . S
H376 C364 0.930 . S
H377 C365 0.930 . S
H378 C359 0.929 . S
H379 C397 0.930 . S
H380 C388 0.930 . S
H381 C389 0.930 . S
H382 C413 0.929 . S
H383 C371 0.930 . S
H384 C372 0.929 . S
H385 C414 0.930 . S
H386 C395 0.930 . S
N387 Gd356 2.661 . S
N387 C391 1.350 . S
N387 C392 1.307 . S
C388 H380 0.930 . S
C388 C389 1.355 . S
C388 C390 1.412 . S
C389 H381 0.930 . S
C389 C388 1.355 . S
C389 C392 1.402 . S
C390 C388 1.412 . S
C390 C391 1.417 . S
C390 C414 1.431 . S
C391 N387 1.350 . S
C391 C390 1.417 . S
C391 C394 1.426 . S
C392 H375 0.930 . S
C392 N387 1.307 . S
C392 C389 1.402 . S
N393 Gd356 2.601 . S
N393 C394 1.359 . S
N393 C397 1.334 1_655 S
C394 C391 1.426 . S
C394 N393 1.359 . S
C394 C398 1.413 . S
C395 H386 0.930 . S
C395 C396 1.359 . S
C395 C397 1.394 . S
C396 C395 1.359 . S
C396 C398 1.391 1_455 S
C396 H399 0.929 . S
C397 H379 0.930 . S
C397 N393 1.334 1_455 S
C397 C395 1.394 . S
C398 C394 1.413 . S
C398 C396 1.391 1_655 S
C398 C413 1.437 . S
H399 C396 0.929 . S
O400 Gd356 2.545 . S
O400 C415 1.258 . S
O401 Gd356 2.606 1_455 S
O401 Gd357 2.362 . S
O401 C412 1.284 1_455 S
O402 Gd357 2.324 . S
O402 C422 1.254 . S
O403 Gd356 2.429 1_455 S
O403 C422 1.268 . S
O404 Gd356 2.545 . S
O404 C412 1.250 . S
O405 Gd356 2.412 . S
O405 C415 1.252 . S
O406 Gd357 2.545 . S
O406 C424 1.258 . S
O407 Gd356 2.362 1_455 S
O407 Gd357 2.606 . S
O407 C423 1.284 . S
O408 Gd356 2.324 . S
O408 C431 1.254 . S
O409 Gd357 2.429 1_655 S
O409 C431 1.268 . S
O410 Gd357 2.545 . S
O410 C423 1.250 . S
O411 Gd357 2.412 . S
O411 C424 1.252 . S
C412 O401 1.284 1_655 S
C412 O404 1.250 . S
C413 H382 0.929 . S
C413 C398 1.437 . S
C413 C414 1.317 . S
C414 H385 0.930 . S
C414 C390 1.431 . S
C414 C413 1.317 . S
C415 Gd356 2.828 . S
C415 O400 1.258 . S
C415 O405 1.252 . S
C415 C416 1.497 . S
C416 C415 1.497 . S
C416 C417 1.395 1_556 S
C416 C418 1.380 . S
C417 C416 1.395 1_554 S
C417 C420 1.398 . S
C417 H432 0.930 . S
C418 C416 1.380 . S
C418 C419 1.391 1_556 S
C418 H433 0.930 . S
C419 C418 1.391 1_554 S
C419 C421 1.387 . S
C420 C417 1.398 . S
C420 C421 1.380 . S
C420 H434 0.930 . S
C421 C419 1.387 . S
C421 C420 1.380 . S
C421 H435 0.930 . S
C422 O402 1.254 . S
C422 O403 1.268 . S
C423 O407 1.284 . S
C423 O410 1.250 . S
C424 Gd357 2.828 . S
C424 O406 1.258 . S
C424 O411 1.252 . S
C424 C425 1.497 . S
C425 C424 1.497 . S
C425 C426 1.395 . S
C425 C427 1.380 . S
C426 C425 1.395 . S
C426 C429 1.398 . S
C426 H436 0.930 . S
C427 C425 1.380 . S
C427 C428 1.391 . S
C427 H437 0.930 . S
C428 C427 1.391 . S
C428 C430 1.387 . S
C429 C426 1.398 . S
C429 C430 1.380 . S
C429 H438 0.930 . S
C430 C428 1.387 . S
C430 C429 1.380 . S
C430 H439 0.930 . S
C431 O408 1.254 . S
C431 O409 1.268 . S
H432 C417 0.930 . S
H433 C418 0.930 . S
H434 C420 0.930 . S
H435 C421 0.930 . S
H436 C426 0.930 . S
H437 C427 0.930 . S
H438 C429 0.930 . S
H439 C430 0.930 . S
H440 C452 0.930 . S
H441 C454 0.930 . S
H442 C455 0.930 . S
H443 C459 0.959 1_545 S
H444 C459 0.959 . S
H445 C459 0.961 . S
H446 C460 0.960 . S
H447 C460 0.961 . S
H448 C460 0.959 . S
H449 C463 0.929 . S
H450 C464 0.931 . S
H451 C466 0.930 1_565 S
C452 H440 0.930 . S
C452 C453 1.399 . S
C452 C457 1.399 . S
C453 C452 1.399 . S
C453 C454 1.376 . S
C454 H441 0.930 . S
C454 C453 1.376 . S
C454 C455 1.388 . S
C455 H442 0.930 . S
C455 C454 1.388 . S
C455 C456 1.390 . S
C456 C455 1.390 . S
C456 C457 1.394 . S
C456 C462 1.465 . S
C457 C452 1.399 . S
C457 C456 1.394 . S
C457 C458 1.516 . S
C458 C457 1.516 . S
C458 C459 1.502 1_545 S
C458 C460 1.561 1_545 S
C458 C461 1.526 . S
C459 H443 0.959 1_565 S
C459 H444 0.959 . S
C459 H445 0.961 . S
C459 C458 1.502 1_565 S
C460 H446 0.960 . S
C460 H447 0.961 . S
C460 H448 0.959 . S
C460 C458 1.561 1_565 S
C461 C458 1.526 . S
C461 C462 1.396 . S
C461 C466 1.390 . S
C462 C456 1.465 . S
C462 C461 1.396 . S
C462 C463 1.399 . S
C463 H449 0.929 . S
C463 C462 1.399 . S
C463 C464 1.385 . S
C464 H450 0.931 . S
C464 C463 1.385 . S
C464 C465 1.389 . S
C465 C464 1.389 . S
C465 C466 1.387 . S
C466 H451 0.930 1_545 S
C466 C461 1.390 . S
C466 C465 1.387 . S
H467 C479 0.930 . S
H468 C481 0.930 . S
H469 C482 0.930 . S
H470 C486 0.959 . S
H471 C486 0.959 . S
H472 C486 0.961 . S
H473 C487 0.960 . S
H474 C487 0.961 . S
H475 C487 0.959 . S
H476 C490 0.929 . S
H477 C491 0.931 . S
H478 C493 0.930 . S
C479 H467 0.930 . S
C479 C480 1.399 . S
C479 C484 1.399 . S
C480 C479 1.399 . S
C480 C481 1.376 . S
C481 H468 0.930 . S
C481 C480 1.376 . S
C481 C482 1.388 . S
C482 H469 0.930 . S
C482 C481 1.388 . S
C482 C483 1.390 . S
C483 C482 1.390 . S
C483 C484 1.394 . S
C483 C489 1.465 . S
C484 C479 1.399 . S
C484 C483 1.394 . S
C484 C485 1.516 . S
C485 C484 1.516 . S
C485 C486 1.502 . S
C485 C487 1.561 . S
C485 C488 1.526 . S
C486 H470 0.959 . S
C486 H471 0.959 . S
C486 H472 0.961 . S
C486 C485 1.502 . S
C487 H473 0.960 . S
C487 H474 0.961 . S
C487 H475 0.959 . S
C487 C485 1.561 . S
C488 C485 1.526 . S
C488 C489 1.396 . S
C488 C493 1.390 . S
C489 C483 1.465 . S
C489 C488 1.396 . S
C489 C490 1.399 . S
C490 H476 0.929 . S
C490 C489 1.399 . S
C490 C491 1.385 . S
C491 H477 0.931 . S
C491 C490 1.385 . S
C491 C492 1.389 . S
C492 C491 1.389 . S
C492 C493 1.387 . S
C493 H478 0.930 . S
C493 C488 1.390 . S
C493 C492 1.387 . S
H494 C506 0.930 . S
H495 C508 0.930 . S
H496 C509 0.930 . S
H497 C513 0.959 . S
H498 C513 0.959 . S
H499 C513 0.961 . S
H500 C514 0.960 . S
H501 C514 0.961 . S
H502 C514 0.959 . S
H503 C517 0.929 . S
H504 C518 0.931 . S
H505 C520 0.930 . S
C506 H494 0.930 . S
C506 C507 1.399 . S
C506 C511 1.399 . S
C507 C506 1.399 . S
C507 C508 1.376 . S
C508 H495 0.930 . S
C508 C507 1.376 . S
C508 C509 1.388 . S
C509 H496 0.930 . S
C509 C508 1.388 . S
C509 C510 1.390 . S
C510 C509 1.390 . S
C510 C511 1.394 . S
C510 C516 1.465 . S
C511 C506 1.399 . S
C511 C510 1.394 . S
C511 C512 1.516 . S
C512 C511 1.516 . S
C512 C513 1.502 . S
C512 C514 1.561 . S
C512 C515 1.526 . S
C513 H497 0.959 . S
C513 H498 0.959 . S
C513 H499 0.961 . S
C513 C512 1.502 . S
C514 H500 0.960 . S
C514 H501 0.961 . S
C514 H502 0.959 . S
C514 C512 1.561 . S
C515 C512 1.526 . S
C515 C516 1.396 . S
C515 C520 1.390 . S
C516 C510 1.465 . S
C516 C515 1.396 . S
C516 C517 1.399 . S
C517 H503 0.929 . S
C517 C516 1.399 . S
C517 C518 1.385 . S
C518 H504 0.931 . S
C518 C517 1.385 . S
C518 C519 1.389 . S
C519 C518 1.389 . S
C519 C520 1.387 . S
C520 H505 0.930 . S
C520 C515 1.390 . S
C520 C519 1.387 . S
H521 C533 0.930 . S
H522 C535 0.930 . S
H523 C536 0.930 . S
H524 C540 0.959 . S
H525 C540 0.959 . S
H526 C540 0.961 . S
H527 C541 0.963 . S
H528 C541 0.975 . S
H529 C541 0.979 . S
H530 C544 0.929 . S
H531 C545 0.931 . S
H532 C547 0.930 . S
C533 H521 0.930 . S
C533 C534 1.399 . S
C533 C538 1.399 . S
C534 C533 1.399 . S
C534 C535 1.376 . S
C535 H522 0.930 . S
C535 C534 1.376 . S
C535 C536 1.388 . S
C536 H523 0.930 . S
C536 C535 1.388 . S
C536 C537 1.390 . S
C537 C536 1.390 . S
C537 C538 1.394 . S
C537 C543 1.465 . S
C538 C533 1.399 . S
C538 C537 1.394 . S
C538 C539 1.516 . S
C539 C538 1.516 . S
C539 C540 1.502 . S
C539 C541 1.526 1_455 S
C539 C542 1.526 . S
C540 H524 0.959 . S
C540 H525 0.959 . S
C540 H526 0.961 . S
C540 C539 1.502 . S
C541 H527 0.963 . S
C541 H528 0.975 . S
C541 H529 0.979 . S
C541 C539 1.526 1_655 S
C542 C539 1.526 . S
C542 C543 1.396 . S
C542 C547 1.390 . S
C543 C537 1.465 . S
C543 C542 1.396 . S
C543 C544 1.399 . S
C544 H530 0.929 . S
C544 C543 1.399 . S
C544 C545 1.385 . S
C545 H531 0.931 . S
C545 C544 1.385 . S
C545 C546 1.389 . S
C546 C545 1.389 . S
C546 C547 1.387 . S
C547 H532 0.930 . S
C547 C542 1.390 . S
C547 C546 1.387 . S
H548 C560 0.930 1_545 S
H549 C562 0.930 . S
H550 C563 0.930 . S
H551 C567 0.959 1_556 S
H552 C567 0.959 1_556 S
H553 C567 0.961 . S
H554 C568 0.960 . S
H555 C568 0.961 . S
H556 C568 0.959 . S
H557 C571 0.929 . S
H558 C572 0.931 . S
H559 C574 0.930 . S
C560 H548 0.930 1_565 S
C560 C561 1.399 . S
C560 C565 1.399 . S
C561 C560 1.399 . S
C561 C562 1.376 . S
C562 H549 0.930 . S
C562 C561 1.376 . S
C562 C563 1.388 . S
C563 H550 0.930 . S
C563 C562 1.388 . S
C563 C564 1.390 . S
C564 C563 1.390 . S
C564 C565 1.394 . S
C564 C570 1.465 1_554 S
C565 C560 1.399 . S
C565 C564 1.394 . S
C565 C566 1.516 1_565 S
C566 C565 1.516 1_545 S
C566 C567 1.502 . S
C566 C568 1.561 . S
C566 C569 1.526 1_544 S
C567 H551 0.959 1_554 S
C567 H552 0.959 1_554 S
C567 H553 0.961 . S
C567 C566 1.502 . S
C568 H554 0.960 . S
C568 H555 0.961 . S
C568 H556 0.959 . S
C568 C566 1.561 . S
C569 C566 1.526 1_566 S
C569 C570 1.396 . S
C569 C574 1.390 1_565 S
C570 C564 1.465 1_556 S
C570 C569 1.396 . S
C570 C571 1.399 . S
C571 H557 0.929 . S
C571 C570 1.399 . S
C571 C572 1.385 . S
C572 H558 0.931 . S
C572 C571 1.385 . S
C572 C573 1.389 . S
C573 C572 1.389 . S
C573 C574 1.387 1_565 S
C574 H559 0.930 . S
C574 C569 1.390 1_545 S
C574 C573 1.387 1_545 S
H575 C587 0.930 . S
H576 C589 0.930 . S
H577 C590 0.930 . S
H578 C594 0.959 . S
H579 C594 0.959 . S
H580 C594 0.961 . S
H581 C595 0.960 . S
H582 C595 0.961 . S
H583 C595 0.959 . S
H584 C598 0.929 1_554 S
H585 C599 0.931 . S
H586 C601 0.930 . S
C587 H575 0.930 . S
C587 C588 1.399 . S
C587 C592 1.399 . S
C588 C587 1.399 . S
C588 C589 1.376 . S
C589 H576 0.930 . S
C589 C588 1.376 . S
C589 C590 1.388 . S
C590 H577 0.930 . S
C590 C589 1.388 . S
C590 C591 1.390 . S
C591 C590 1.390 . S
C591 C592 1.394 . S
C591 C597 1.465 1_554 S
C592 C587 1.399 . S
C592 C591 1.394 . S
C592 C593 1.516 1_554 S
C593 C592 1.516 1_556 S
C593 C594 1.502 . S
C593 C595 1.561 . S
C593 C596 1.526 . S
C594 H578 0.959 . S
C594 H579 0.959 . S
C594 H580 0.961 . S
C594 C593 1.502 . S
C595 H581 0.960 . S
C595 H582 0.961 . S
C595 H583 0.959 . S
C595 C593 1.561 . S
C596 C593 1.526 . S
C596 C597 1.396 . S
C596 C601 1.390 . S
C597 C591 1.465 1_556 S
C597 C596 1.396 . S
C597 C598 1.399 . S
C598 H584 0.929 1_556 S
C598 C597 1.399 . S
C598 C599 1.385 . S
C599 H585 0.931 . S
C599 C598 1.385 . S
C599 C600 1.389 . S
C600 C599 1.389 . S
C600 C601 1.387 . S
C601 H586 0.930 . S
C601 C596 1.390 . S
C601 C600 1.387 . S
H602 C614 0.930 . S
H603 C616 0.930 . S
H604 C617 0.930 . S
H605 C621 0.959 1_556 S
H606 C621 0.959 1_556 S
H607 C621 0.961 . S
H608 C622 0.960 . S
H609 C622 0.961 . S
H610 C622 0.959 . S
H611 C625 0.929 . S
H612 C626 0.931 . S
H613 C628 0.930 . S
C614 H602 0.930 . S
C614 C615 1.399 . S
C614 C619 1.399 . S
C615 C614 1.399 . S
C615 C616 1.376 . S
C616 H603 0.930 . S
C616 C615 1.376 . S
C616 C617 1.388 . S
C617 H604 0.930 . S
C617 C616 1.388 . S
C617 C618 1.390 . S
C618 C617 1.390 . S
C618 C619 1.394 . S
C618 C624 1.465 1_554 S
C619 C614 1.399 . S
C619 C618 1.394 . S
C619 C620 1.516 . S
C620 C619 1.516 . S
C620 C621 1.502 . S
C620 C622 1.561 . S
C620 C623 1.526 1_554 S
C621 H605 0.959 1_554 S
C621 H606 0.959 1_554 S
C621 H607 0.961 . S
C621 C620 1.502 . S
C622 H608 0.960 . S
C622 H609 0.961 . S
C622 H610 0.959 . S
C622 C620 1.561 . S
C623 C620 1.526 1_556 S
C623 C624 1.396 . S
C623 C628 1.390 . S
C624 C618 1.465 1_556 S
C624 C623 1.396 . S
C624 C625 1.399 . S
C625 H611 0.929 . S
C625 C624 1.399 . S
C625 C626 1.385 . S
C626 H612 0.931 . S
C626 C625 1.385 . S
C626 C627 1.389 . S
C627 C626 1.389 . S
C627 C628 1.387 . S
C628 H613 0.930 . S
C628 C623 1.390 . S
C628 C627 1.387 . S
H629 C641 0.930 . S
H630 C643 0.930 . S
H631 C644 0.930 1_556 S
H632 C648 0.959 . S
H633 C648 0.959 . S
H634 C648 0.961 . S
H635 C649 0.960 . S
H636 C649 0.961 . S
H637 C649 0.959 . S
H638 C652 0.929 . S
H639 C653 0.931 . S
H640 C655 0.930 . S
C641 H629 0.930 . S
C641 C642 1.399 . S
C641 C646 1.399 . S
C642 C641 1.399 . S
C642 C643 1.376 . S
C643 H630 0.930 . S
C643 C642 1.376 . S
C643 C644 1.388 . S
C644 H631 0.930 1_554 S
C644 C643 1.388 . S
C644 C645 1.390 . S
C645 C644 1.390 . S
C645 C646 1.394 . S
C645 C651 1.465 1_554 S
C646 C641 1.399 . S
C646 C645 1.394 . S
C646 C647 1.516 . S
C647 C646 1.516 . S
C647 C648 1.502 1_655 S
C647 C649 1.561 . S
C647 C650 1.526 1_554 S
C648 H632 0.959 . S
C648 H633 0.959 . S
C648 H634 0.961 . S
C648 C647 1.502 1_455 S
C649 H635 0.960 . S
C649 H636 0.961 . S
C649 H637 0.959 . S
C649 C647 1.561 . S
C650 C647 1.526 1_556 S
C650 C651 1.396 . S
C650 C655 1.390 . S
C651 C645 1.465 1_556 S
C651 C650 1.396 . S
C651 C652 1.399 . S
C652 H638 0.929 . S
C652 C651 1.399 . S
C652 C653 1.385 . S
C653 H639 0.931 . S
C653 C652 1.385 . S
C653 C654 1.389 . S
C654 C653 1.389 . S
C654 C655 1.387 . S
C655 H640 0.930 . S
C655 C650 1.390 . S
C655 C654 1.387 . S
H656 C668 0.930 . S
H657 C670 0.930 . S
H658 C671 0.930 . S
H659 C675 0.959 . S
H660 C675 0.959 . S
H661 C675 0.961 1_556 S
H662 C676 0.960 . S
H663 C676 0.961 . S
H664 C676 0.959 . S
H665 C679 0.929 . S
H666 C680 0.931 1_655 S
H667 C682 0.930 . S
C668 H656 0.930 . S
C668 C669 1.399 . S
C668 C673 1.399 . S
C669 C668 1.399 . S
C669 C670 1.376 . S
C670 H657 0.930 . S
C670 C669 1.376 . S
C670 C671 1.388 . S
C671 H658 0.930 . S
C671 C670 1.388 . S
C671 C672 1.390 . S
C672 C671 1.390 . S
C672 C673 1.394 . S
C672 C678 1.465 . S
C673 C668 1.399 . S
C673 C672 1.394 . S
C673 C674 1.516 . S
C674 C673 1.516 . S
C674 C675 1.502 . S
C674 C676 1.561 . S
C674 C677 1.526 . S
C675 H659 0.959 . S
C675 H660 0.959 . S
C675 H661 0.961 1_554 S
C675 C674 1.502 . S
C676 H662 0.960 . S
C676 H663 0.961 . S
C676 H664 0.959 . S
C676 C674 1.561 . S
C677 C674 1.526 . S
C677 C678 1.396 . S
C677 C682 1.390 . S
C678 C672 1.465 . S
C678 C677 1.396 . S
C678 C679 1.399 . S
C679 H665 0.929 . S
C679 C678 1.399 . S
C679 C680 1.385 . S
C680 H666 0.931 1_455 S
C680 C679 1.385 . S
C680 C681 1.389 . S
C681 C680 1.389 . S
C681 C682 1.387 . S
C682 H667 0.930 . S
C682 C677 1.390 . S
C682 C681 1.387 . S
H683 C695 0.930 . S
H684 C697 0.930 . S
H685 C698 0.930 . S
H686 C702 0.959 . S
H687 C702 0.959 . S
H688 C702 0.961 . S
H689 C703 0.960 . S
H690 C703 0.961 . S
H691 C703 0.959 1_545 S
H692 C706 0.929 . S
H693 C707 0.931 . S
H694 C709 0.930 . S
C695 H683 0.930 . S
C695 C696 1.399 . S
C695 C700 1.399 . S
C696 C695 1.399 . S
C696 C697 1.376 . S
C697 H684 0.930 . S
C697 C696 1.376 . S
C697 C698 1.388 . S
C698 H685 0.930 . S
C698 C697 1.388 . S
C698 C699 1.390 . S
C699 C698 1.390 . S
C699 C700 1.394 . S
C699 C705 1.465 . S
C700 C695 1.399 . S
C700 C699 1.394 . S
C700 C701 1.516 . S
C701 C700 1.516 . S
C701 C702 1.502 1_545 S
C701 C703 1.561 1_545 S
C701 C704 1.526 . S
C702 H686 0.959 . S
C702 H687 0.959 . S
C702 H688 0.961 . S
C702 C701 1.502 1_565 S
C703 H689 0.960 . S
C703 H690 0.961 . S
C703 H691 0.959 1_565 S
C703 C701 1.561 1_565 S
C704 C701 1.526 . S
C704 C705 1.396 . S
C704 C709 1.390 1_545 S
C705 C699 1.465 . S
C705 C704 1.396 . S
C705 C706 1.399 . S
C706 H692 0.929 . S
C706 C705 1.399 . S
C706 C707 1.385 . S
C707 H693 0.931 . S
C707 C706 1.385 . S
C707 C708 1.389 . S
C708 C707 1.389 . S
C708 C709 1.387 1_545 S
C709 H694 0.930 . S
C709 C704 1.390 1_565 S
C709 C708 1.387 1_565 S
H710 C722 0.930 . S
H711 C724 0.930 . S
H712 C725 0.930 . S
H713 C729 0.959 . S
H714 C729 0.959 . S
H715 C729 0.961 . S
H716 C730 0.960 . S
H717 C730 0.961 . S
H718 C730 0.959 . S
H719 C733 0.929 . S
H720 C734 0.931 . S
H721 C736 0.930 . S
C722 H710 0.930 . S
C722 C723 1.399 . S
C722 C727 1.399 . S
C723 C722 1.399 . S
C723 C724 1.376 . S
C724 H711 0.930 . S
C724 C723 1.376 . S
C724 C725 1.388 . S
C725 H712 0.930 . S
C725 C724 1.388 . S
C725 C726 1.390 . S
C726 C725 1.390 . S
C726 C727 1.394 . S
C726 C732 1.465 . S
C727 C722 1.399 . S
C727 C726 1.394 . S
C727 C728 1.516 . S
C728 C727 1.516 . S
C728 C729 1.502 . S
C728 C730 1.561 . S
C728 C731 1.526 . S
C729 H713 0.959 . S
C729 H714 0.959 . S
C729 H715 0.961 . S
C729 C728 1.502 . S
C730 H716 0.960 . S
C730 H717 0.961 . S
C730 H718 0.959 . S
C730 C728 1.561 . S
C731 C728 1.526 . S
C731 C732 1.396 . S
C731 C736 1.390 . S
C732 C726 1.465 . S
C732 C731 1.396 . S
C732 C733 1.399 . S
C733 H719 0.929 . S
C733 C732 1.399 . S
C733 C734 1.385 . S
C734 H720 0.931 . S
C734 C733 1.385 . S
C734 C735 1.389 . S
C735 C734 1.389 . S
C735 C736 1.387 . S
C736 H721 0.930 . S
C736 C731 1.390 . S
C736 C735 1.387 . S
H737 C749 0.930 . S
H738 C751 0.930 . S
H739 C752 0.930 . S
H740 C756 0.959 . S
H741 C756 0.959 . S
H742 C756 0.961 . S
H743 C757 0.960 1_556 S
H744 C757 0.961 . S
H745 C757 0.959 . S
H746 C760 0.929 . S
H747 C761 0.931 . S
H748 C763 0.930 . S
C749 H737 0.930 . S
C749 C750 1.399 . S
C749 C754 1.399 . S
C750 C749 1.399 . S
C750 C751 1.376 . S
C751 H738 0.930 . S
C751 C750 1.376 . S
C751 C752 1.388 . S
C752 H739 0.930 . S
C752 C751 1.388 . S
C752 C753 1.390 . S
C753 C752 1.390 . S
C753 C754 1.394 . S
C753 C759 1.465 . S
C754 C749 1.399 . S
C754 C753 1.394 . S
C754 C755 1.516 . S
C755 C754 1.516 . S
C755 C756 1.502 . S
C755 C757 1.561 . S
C755 C758 1.526 . S
C756 H740 0.959 . S
C756 H741 0.959 . S
C756 H742 0.961 . S
C756 C755 1.502 . S
C757 H743 0.960 1_554 S
C757 H744 0.961 . S
C757 H745 0.959 . S
C757 C755 1.561 . S
C758 C755 1.526 . S
C758 C759 1.396 . S
C758 C763 1.390 . S
C759 C753 1.465 . S
C759 C758 1.396 . S
C759 C760 1.399 . S
C760 H746 0.929 . S
C760 C759 1.399 . S
C760 C761 1.385 . S
C761 H747 0.931 . S
C761 C760 1.385 . S
C761 C762 1.389 . S
C762 C761 1.389 . S
C762 C763 1.387 . S
C763 H748 0.930 . S
C763 C758 1.390 . S
C763 C762 1.387 . S
H764 C776 0.930 . S
H765 C778 0.930 . S
H766 C779 0.930 1_455 S
H767 C783 0.959 . S
H768 C783 0.959 . S
H769 C783 0.961 . S
H770 C784 0.960 . S
H771 C784 0.961 . S
H772 C784 0.959 . S
H773 C787 0.929 . S
H774 C788 0.931 . S
H775 C790 0.930 . S
C776 H764 0.930 . S
C776 C777 1.399 . S
C776 C781 1.399 . S
C777 C776 1.399 . S
C777 C778 1.376 . S
C778 H765 0.930 . S
C778 C777 1.376 . S
C778 C779 1.388 . S
C779 H766 0.930 1_655 S
C779 C778 1.388 . S
C779 C780 1.390 . S
C780 C779 1.390 . S
C780 C781 1.394 . S
C780 C786 1.465 . S
C781 C776 1.399 . S
C781 C780 1.394 . S
C781 C782 1.516 . S
C782 C781 1.516 . S
C782 C783 1.502 . S
C782 C784 1.561 . S
C782 C785 1.526 . S
C783 H767 0.959 . S
C783 H768 0.959 . S
C783 H769 0.961 . S
C783 C782 1.502 . S
C784 H770 0.960 . S
C784 H771 0.961 . S
C784 H772 0.959 . S
C784 C782 1.561 . S
C785 C782 1.526 . S
C785 C786 1.396 . S
C785 C790 1.390 . S
C786 C780 1.465 . S
C786 C785 1.396 . S
C786 C787 1.399 1_655 S
C787 H773 0.929 . S
C787 C786 1.399 1_455 S
C787 C788 1.385 1_554 S
C788 H774 0.931 . S
C788 C787 1.385 1_556 S
C788 C789 1.389 . S
C789 C788 1.389 . S
C789 C790 1.387 1_456 S
C790 H775 0.930 . S
C790 C785 1.390 . S
C790 C789 1.387 1_654 S
H791 C803 0.930 . S
H792 C805 0.930 . S
H793 C806 0.930 1_545 S
H794 C810 0.959 . S
H795 C810 0.959 . S
H796 C810 0.961 . S
H797 C811 0.960 . S
H798 C811 0.961 1_556 S
H799 C811 0.959 . S
H800 C814 0.929 . S
H801 C815 0.931 . S
H802 C817 0.930 . S
C803 H791 0.930 . S
C803 C804 1.399 . S
C803 C808 1.399 . S
C804 C803 1.399 . S
C804 C805 1.376 . S
C805 H792 0.930 . S
C805 C804 1.376 . S
C805 C806 1.388 . S
C806 H793 0.930 1_565 S
C806 C805 1.388 . S
C806 C807 1.390 . S
C807 C806 1.390 . S
C807 C808 1.394 . S
C807 C813 1.465 . S
C808 C803 1.399 . S
C808 C807 1.394 . S
C808 C809 1.516 . S
C809 C808 1.516 . S
C809 C810 1.502 1_554 S
C809 C811 1.561 . S
C809 C812 1.526 . S
C810 H794 0.959 . S
C810 H795 0.959 . S
C810 H796 0.961 . S
C810 C809 1.502 1_556 S
C811 H797 0.960 . S
C811 H798 0.961 1_554 S
C811 H799 0.959 . S
C811 C809 1.561 . S
C812 C809 1.526 . S
C812 C813 1.396 . S
C812 C817 1.390 1_554 S
C813 C807 1.465 . S
C813 C812 1.396 . S
C813 C814 1.399 1_565 S
C814 H800 0.929 . S
C814 C813 1.399 1_545 S
C814 C815 1.385 . S
C815 H801 0.931 . S
C815 C814 1.385 . S
C815 C816 1.382 1_554 S
C816 C815 1.382 1_556 S
C816 C817 1.389 1_545 S
C817 H802 0.930 . S
C817 C812 1.390 1_556 S
C817 C816 1.389 1_565 S
H818 C830 0.930 . S
H819 C832 0.930 . S
H820 C833 0.930 . S
H821 C837 0.959 . S
H822 C837 0.959 1_556 S
H823 C837 0.961 . S
H824 C838 0.960 . S
H825 C838 0.961 . S
H826 C838 0.959 . S
H827 C841 0.929 . S
H828 C842 0.931 . S
H829 C844 0.930 . S
C830 H818 0.930 . S
C830 C831 1.399 . S
C830 C835 1.399 . S
C831 C830 1.399 . S
C831 C832 1.376 . S
C832 H819 0.930 . S
C832 C831 1.376 . S
C832 C833 1.388 . S
C833 H820 0.930 . S
C833 C832 1.388 . S
C833 C834 1.390 . S
C834 C833 1.390 . S
C834 C835 1.394 . S
C834 C840 1.465 . S
C835 C830 1.399 . S
C835 C834 1.394 . S
C835 C836 1.516 . S
C836 C835 1.516 . S
C836 C837 1.502 . S
C836 C838 1.561 1_554 S
C836 C839 1.526 . S
C837 H821 0.959 . S
C837 H822 0.959 1_554 S
C837 H823 0.961 . S
C837 C836 1.502 . S
C838 H824 0.960 . S
C838 H825 0.961 . S
C838 H826 0.959 . S
C838 C836 1.561 1_556 S
C839 C836 1.526 . S
C839 C840 1.396 . S
C839 C844 1.390 1_554 S
C840 C834 1.465 . S
C840 C839 1.396 . S
C840 C841 1.399 . S
C841 H827 0.929 . S
C841 C840 1.399 . S
C841 C842 1.385 . S
C842 H828 0.931 . S
C842 C841 1.385 . S
C842 C843 1.389 . S
C843 C842 1.389 . S
C843 C844 1.387 1_554 S
C844 H829 0.930 . S
C844 C839 1.390 1_556 S
C844 C843 1.387 1_556 S
H845 C857 0.930 . S
H846 C859 0.930 . S
H847 C860 0.930 . S
H848 C864 0.959 . S
H849 C864 0.959 . S
H850 C864 0.961 . S
H851 C865 0.960 . S
H852 C865 0.961 . S
H853 C865 0.959 . S
H854 C868 0.929 . S
H855 C869 0.931 . S
H856 C871 0.930 1_556 S
C857 H845 0.930 . S
C857 C858 1.399 . S
C857 C862 1.399 . S
C858 C857 1.399 . S
C858 C859 1.376 . S
C859 H846 0.930 . S
C859 C858 1.376 . S
C859 C860 1.388 . S
C860 H847 0.930 . S
C860 C859 1.388 . S
C860 C861 1.390 . S
C861 C860 1.390 . S
C861 C862 1.394 . S
C861 C867 1.465 . S
C862 C857 1.399 . S
C862 C861 1.394 . S
C862 C863 1.516 . S
C863 C862 1.516 . S
C863 C864 1.502 . S
C863 C865 1.561 1_554 S
C863 C866 1.526 . S
C864 H848 0.959 . S
C864 H849 0.959 . S
C864 H850 0.961 . S
C864 C863 1.502 . S
C865 H851 0.960 . S
C865 H852 0.961 . S
C865 H853 0.959 . S
C865 C863 1.561 1_556 S
C866 C863 1.526 . S
C866 C867 1.396 . S
C866 C871 1.390 . S
C867 C861 1.465 . S
C867 C866 1.396 . S
C867 C868 1.399 . S
C868 H854 0.929 . S
C868 C867 1.399 . S
C868 C869 1.385 . S
C869 H855 0.931 . S
C869 C868 1.385 . S
C869 C870 1.389 . S
C870 C869 1.389 . S
C870 C871 1.387 . S
C871 H856 0.930 1_554 S
C871 C866 1.390 . S
C871 C870 1.387 . S
H872 C884 0.930 . S
H873 C886 0.930 . S
H874 C887 0.930 . S
H875 C891 0.959 . S
H876 C891 0.959 . S
H877 C891 0.961 . S
H878 C892 0.960 1_554 S
H879 C892 0.961 . S
H880 C892 0.959 . S
H881 C895 0.921 1_655 S
H882 C896 0.940 . S
H883 C898 0.930 . S
C884 H872 0.930 . S
C884 C885 1.399 . S
C884 C889 1.399 . S
C885 C884 1.399 . S
C885 C886 1.376 . S
C886 H873 0.930 . S
C886 C885 1.376 . S
C886 C887 1.388 . S
C887 H874 0.930 . S
C887 C886 1.388 . S
C887 C888 1.390 . S
C888 C887 1.390 . S
C888 C889 1.394 . S
C888 C894 1.465 . S
C889 C884 1.399 . S
C889 C888 1.394 . S
C889 C890 1.516 . S
C890 C889 1.516 . S
C890 C891 1.502 . S
C890 C892 1.561 . S
C890 C893 1.526 . S
C891 H875 0.959 . S
C891 H876 0.959 . S
C891 H877 0.961 . S
C891 C890 1.502 . S
C892 H878 0.960 1_556 S
C892 H879 0.961 . S
C892 H880 0.959 . S
C892 C890 1.561 . S
C893 C890 1.526 . S
C893 C894 1.396 . S
C893 C898 1.390 . S
C894 C888 1.465 . S
C894 C893 1.396 . S
C894 C895 1.399 . S
C895 H881 0.921 1_455 S
C895 C894 1.399 . S
C895 C896 1.385 . S
C896 H882 0.940 . S
C896 C895 1.385 . S
C896 C897 1.389 . S
C897 C896 1.389 . S
C897 C898 1.387 . S
C898 H883 0.930 . S
C898 C893 1.390 . S
C898 C897 1.387 . S
H899 C911 0.930 . S
H900 C913 0.930 . S
H901 C914 0.930 . S
H902 C918 0.959 . S
H903 C918 0.959 . S
H904 C918 0.961 1_554 S
H905 C919 0.960 . S
H906 C919 0.961 . S
H907 C919 0.959 . S
H908 C922 0.929 . S
H909 C923 0.931 . S
H910 C925 0.930 . S
C911 H899 0.930 . S
C911 C912 1.399 . S
C911 C916 1.399 . S
C912 C911 1.399 . S
C912 C913 1.376 . S
C913 H900 0.930 . S
C913 C912 1.376 . S
C913 C914 1.388 . S
C914 H901 0.930 . S
C914 C913 1.388 . S
C914 C915 1.390 . S
C915 C914 1.390 . S
C915 C916 1.394 . S
C915 C921 1.465 . S
C916 C911 1.399 . S
C916 C915 1.394 . S
C916 C917 1.516 . S
C917 C916 1.516 . S
C917 C918 1.502 . S
C917 C919 1.561 . S
C917 C920 1.526 . S
C918 H902 0.959 . S
C918 H903 0.959 . S
C918 H904 0.961 1_556 S
C918 C917 1.502 . S
C919 H905 0.960 . S
C919 H906 0.961 . S
C919 H907 0.959 . S
C919 C917 1.561 . S
C920 C917 1.526 . S
C920 C921 1.396 . S
C920 C925 1.390 . S
C921 C915 1.465 . S
C921 C920 1.396 . S
C921 C922 1.399 . S
C922 H908 0.929 . S
C922 C921 1.399 . S
C922 C923 1.385 . S
C923 H909 0.931 . S
C923 C922 1.385 . S
C923 C924 1.389 . S
C924 C923 1.389 . S
C924 C925 1.387 . S
C925 H910 0.930 . S
C925 C920 1.390 . S
C925 C924 1.387 . S
H926 C938 0.930 . S
H927 C940 0.930 . S
H928 C941 0.930 . S
H929 C945 0.959 . S
H930 C945 0.959 . S
H931 C945 0.961 . S
H932 C946 0.960 1_554 S
H933 C946 0.961 1_554 S
H934 C946 0.959 . S
H935 C949 0.929 . S
H936 C950 0.931 . S
H937 C952 0.930 . S
C938 H926 0.930 . S
C938 C939 1.399 . S
C938 C943 1.399 . S
C939 C938 1.399 . S
C939 C940 1.376 . S
C940 H927 0.930 . S
C940 C939 1.376 . S
C940 C941 1.388 . S
C941 H928 0.930 . S
C941 C940 1.388 . S
C941 C942 1.390 . S
C942 C941 1.390 . S
C942 C943 1.394 . S
C942 C948 1.465 . S
C943 C938 1.399 . S
C943 C942 1.394 . S
C943 C944 1.516 . S
C944 C943 1.516 . S
C944 C945 1.502 . S
C944 C946 1.561 . S
C944 C947 1.526 . S
C945 H929 0.959 . S
C945 H930 0.959 . S
C945 H931 0.961 . S
C945 C944 1.502 . S
C946 H932 0.960 1_556 S
C946 H933 0.961 1_556 S
C946 H934 0.959 . S
C946 C944 1.561 . S
C947 C944 1.526 . S
C947 C948 1.396 . S
C947 C952 1.390 . S
C948 C942 1.465 . S
C948 C947 1.396 . S
C948 C949 1.399 . S
C949 H935 0.929 . S
C949 C948 1.399 . S
C949 C950 1.385 . S
C950 H936 0.931 . S
C950 C949 1.385 . S
C950 C951 1.389 . S
C951 C950 1.389 . S
C951 C952 1.387 . S
C952 H937 0.930 . S
C952 C947 1.390 . S
C952 C951 1.387 . S
H953 C965 0.930 . S
H954 C967 0.930 . S
H955 C968 0.930 . S
H956 C972 0.959 . S
H957 C972 0.959 . S
H958 C972 0.961 . S
H959 C973 0.960 . S
H960 C973 0.961 . S
H961 C973 0.959 . S
H962 C976 0.929 . S
H963 C977 0.931 . S
H964 C979 0.930 . S
C965 H953 0.930 . S
C965 C966 1.399 . S
C965 C970 1.399 . S
C966 C965 1.399 . S
C966 C967 1.376 . S
C967 H954 0.930 . S
C967 C966 1.376 . S
C967 C968 1.388 . S
C968 H955 0.930 . S
C968 C967 1.388 . S
C968 C969 1.390 . S
C969 C968 1.390 . S
C969 C970 1.394 . S
C969 C975 1.465 . S
C970 C965 1.399 . S
C970 C969 1.394 . S
C970 C971 1.516 . S
C971 C970 1.516 . S
C971 C972 1.502 . S
C971 C973 1.561 . S
C971 C974 1.526 . S
C972 H956 0.959 . S
C972 H957 0.959 . S
C972 H958 0.961 . S
C972 C971 1.502 . S
C973 H959 0.960 . S
C973 H960 0.961 . S
C973 H961 0.959 . S
C973 C971 1.561 . S
C974 C971 1.526 . S
C974 C975 1.396 . S
C974 C979 1.390 . S
C975 C969 1.465 . S
C975 C974 1.396 . S
C975 C976 1.399 . S
C976 H962 0.929 . S
C976 C975 1.399 . S
C976 C977 1.385 . S
C977 H963 0.931 . S
C977 C976 1.385 . S
C977 C978 1.389 . S
C978 C977 1.389 . S
C978 C979 1.387 . S
C979 H964 0.930 . S
C979 C974 1.390 . S
C979 C978 1.387 . S
H980 C992 0.930 . S
H981 C994 0.930 . S
H982 C995 0.930 . S
H983 C999 0.959 . S
H984 C999 0.959 . S
H985 C999 0.961 . S
H986 C1000 0.960 . S
H987 C1000 0.961 . S
H988 C1000 0.959 . S
H989 C1003 0.929 . S
H990 C1004 0.931 . S
H991 C1006 0.930 . S
C992 H980 0.930 . S
C992 C993 1.399 . S
C992 C997 1.399 . S
C993 C992 1.399 . S
C993 C994 1.376 . S
C994 H981 0.930 . S
C994 C993 1.376 . S
C994 C995 1.388 . S
C995 H982 0.930 . S
C995 C994 1.388 . S
C995 C996 1.390 . S
C996 C995 1.390 . S
C996 C997 1.394 . S
C996 C1002 1.465 . S
C997 C992 1.399 . S
C997 C996 1.394 . S
C997 C998 1.516 . S
C998 C997 1.516 . S
C998 C999 1.502 1_655 S
C998 C1000 1.561 . S
C998 C1001 1.526 . S
C999 H983 0.959 . S
C999 H984 0.959 . S
C999 H985 0.961 . S
C999 C998 1.502 1_455 S
C1000 H986 0.960 . S
C1000 H987 0.961 . S
C1000 H988 0.959 . S
C1000 C998 1.561 . S
C1001 C998 1.526 . S
C1001 C1002 1.396 . S
C1001 C1006 1.390 . S
C1002 C996 1.465 . S
C1002 C1001 1.396 . S
C1002 C1003 1.399 . S
C1003 H989 0.929 . S
C1003 C1002 1.399 . S
C1003 C1004 1.385 . S
C1004 H990 0.931 . S
C1004 C1003 1.385 . S
C1004 C1005 1.389 . S
C1005 C1004 1.389 . S
C1005 C1006 1.387 . S
C1006 H991 0.930 . S
C1006 C1001 1.390 . S
C1006 C1005 1.387 . S
H1007 C1019 0.930 . S
H1008 C1021 0.930 . S
H1009 C1022 0.930 . S
H1010 C1026 0.959 1_565 S
H1011 C1026 0.959 . S
H1012 C1026 0.961 . S
H1013 C1027 0.960 . S
H1014 C1027 0.961 . S
H1015 C1027 0.959 . S
H1016 C1030 0.929 . S
H1017 C1031 0.931 . S
H1018 C1033 0.930 1_545 S
C1019 H1007 0.930 . S
C1019 C1020 1.399 . S
C1019 C1024 1.399 . S
C1020 C1019 1.399 . S
C1020 C1021 1.376 . S
C1021 H1008 0.930 . S
C1021 C1020 1.376 . S
C1021 C1022 1.388 . S
C1022 H1009 0.930 . S
C1022 C1021 1.388 . S
C1022 C1023 1.390 . S
C1023 C1022 1.390 . S
C1023 C1024 1.394 . S
C1023 C1029 1.465 . S
C1024 C1019 1.399 . S
C1024 C1023 1.394 . S
C1024 C1025 1.516 1_565 S
C1025 C1024 1.516 1_545 S
C1025 C1026 1.502 . S
C1025 C1027 1.561 . S
C1025 C1028 1.526 1_545 S
C1026 H1010 0.959 1_545 S
C1026 H1011 0.959 . S
C1026 H1012 0.961 . S
C1026 C1025 1.502 . S
C1027 H1013 0.960 . S
C1027 H1014 0.961 . S
C1027 H1015 0.959 . S
C1027 C1025 1.561 . S
C1028 C1025 1.526 1_565 S
C1028 C1029 1.396 . S
C1028 C1033 1.390 . S
C1029 C1023 1.465 . S
C1029 C1028 1.396 . S
C1029 C1030 1.399 . S
C1030 H1016 0.929 . S
C1030 C1029 1.399 . S
C1030 C1031 1.385 . S
C1031 H1017 0.931 . S
C1031 C1030 1.385 . S
C1031 C1032 1.389 . S
C1032 C1031 1.389 . S
C1032 C1033 1.387 . S
C1033 H1018 0.930 1_565 S
C1033 C1028 1.390 . S
C1033 C1032 1.387 . S
H1034 C1046 0.930 . S
H1035 C1048 0.930 . S
H1036 C1049 0.930 . S
H1037 C1053 0.959 . S
H1038 C1053 0.959 . S
H1039 C1053 0.961 . S
H1040 C1054 0.960 . S
H1041 C1054 0.961 . S
H1042 C1054 0.959 . S
H1043 C1057 0.929 . S
H1044 C1058 0.931 . S
H1045 C1060 0.930 . S
C1046 H1034 0.930 . S
C1046 C1047 1.399 . S
C1046 C1051 1.399 . S
C1047 C1046 1.399 . S
C1047 C1048 1.376 . S
C1048 H1035 0.930 . S
C1048 C1047 1.376 . S
C1048 C1049 1.388 . S
C1049 H1036 0.930 . S
C1049 C1048 1.388 . S
C1049 C1050 1.390 . S
C1050 C1049 1.390 . S
C1050 C1051 1.394 . S
C1050 C1056 1.465 . S
C1051 C1046 1.399 . S
C1051 C1050 1.394 . S
C1051 C1052 1.516 . S
C1052 C1051 1.516 . S
C1052 C1053 1.502 . S
C1052 C1054 1.561 . S
C1052 C1055 1.526 . S
C1053 H1037 0.959 . S
C1053 H1038 0.959 . S
C1053 H1039 0.961 . S
C1053 C1052 1.502 . S
C1054 H1040 0.960 . S
C1054 H1041 0.961 . S
C1054 H1042 0.959 . S
C1054 C1052 1.561 . S
C1055 C1052 1.526 . S
C1055 C1056 1.396 . S
C1055 C1060 1.390 . S
C1056 C1050 1.465 . S
C1056 C1055 1.396 . S
C1056 C1057 1.399 . S
C1057 H1043 0.929 . S
C1057 C1056 1.399 . S
C1057 C1058 1.385 . S
C1058 H1044 0.931 . S
C1058 C1057 1.385 . S
C1058 C1059 1.389 . S
C1059 C1058 1.389 . S
C1059 C1060 1.387 . S
C1060 H1045 0.930 . S
C1060 C1055 1.390 . S
C1060 C1059 1.387 . S
H1061 C1073 0.930 . S
H1062 C1075 0.930 . S
H1063 C1076 0.930 . S
H1064 C1080 0.959 . S
H1065 C1080 0.959 . S
H1066 C1080 0.961 . S
H1067 C1081 0.960 . S
H1068 C1081 0.961 . S
H1069 C1081 0.959 . S
H1070 C1084 0.929 . S
H1071 C1085 0.931 . S
H1072 C1087 0.930 . S
C1073 H1061 0.930 . S
C1073 C1074 1.399 . S
C1073 C1078 1.399 . S
C1074 C1073 1.399 . S
C1074 C1075 1.376 . S
C1075 H1062 0.930 . S
C1075 C1074 1.376 . S
C1075 C1076 1.388 . S
C1076 H1063 0.930 . S
C1076 C1075 1.388 . S
C1076 C1077 1.390 . S
C1077 C1076 1.390 . S
C1077 C1078 1.394 . S
C1077 C1083 1.465 . S
C1078 C1073 1.399 . S
C1078 C1077 1.394 . S
C1078 C1079 1.516 . S
C1079 C1078 1.516 . S
C1079 C1080 1.502 . S
C1079 C1081 1.561 . S
C1079 C1082 1.526 . S
C1080 H1064 0.959 . S
C1080 H1065 0.959 . S
C1080 H1066 0.961 . S
C1080 C1079 1.502 . S
C1081 H1067 0.960 . S
C1081 H1068 0.961 . S
C1081 H1069 0.959 . S
C1081 C1079 1.561 . S
C1082 C1079 1.526 . S
C1082 C1083 1.396 . S
C1082 C1087 1.390 . S
C1083 C1077 1.465 . S
C1083 C1082 1.396 . S
C1083 C1084 1.399 . S
C1084 H1070 0.929 . S
C1084 C1083 1.399 . S
C1084 C1085 1.385 . S
C1085 H1071 0.931 . S
C1085 C1084 1.385 . S
C1085 C1086 1.389 . S
C1086 C1085 1.389 . S
C1086 C1087 1.387 . S
C1087 H1072 0.930 . S
C1087 C1082 1.390 . S
C1087 C1086 1.387 . S
C453 C82 1.693 . S
C465 C179 1.952 . S
C492 C263 1.964 . S
C480 C95 1.730 . S
C519 C339 1.887 . S
C507 C56 1.902 . S
C546 C423 1.939 . S
C534 C69 1.783 . S
C573 C170 1.944 1_565 S
C561 C30 1.717 . S
C588 C43 1.729 . S
C600 C254 1.914 . S
C615 C4 1.814 . S
C627 C328 1.909 . S
C642 C17 1.747 . S
C654 C412 1.931 . S
C681 C167 0.657 1_455 S
C669 C74 0.732 . S
C708 C251 0.714 1_545 S
C696 C87 0.675 . S
C735 C344 0.558 . S
C723 C100 0.546 . S
C750 C61 0.710 . S
C762 C428 0.706 . S
C777 C22 0.590 . S
C789 C176 0.576 . S
C816 C260 0.580 . S
C804 C35 0.551 . S
C843 C335 0.565 . S
C831 C48 0.622 . S
C858 C9 0.679 . S
C870 C419 0.622 . S
C885 C73 2.008 . S
C897 C160 2.018 . S
C912 C86 2.009 . S
C924 C244 1.997 . S
C951 C338 2.052 . S
C939 C99 1.914 . S
C978 C422 2.067 . S
C966 C60 1.861 . S
C993 C21 2.028 . S
C1005 C171 2.047 . S
C1032 C255 2.067 . S
C1020 C34 1.930 . S
C1059 C347 2.070 . S
C1047 C47 1.919 . S
C1074 C8 1.902 . S
C1086 C431 2.104 . S
