# Generated by pormake.
# Topology zzz, (3,6)-cn, num edge types: 1
# Building blocks:
#     Node 0, Type 0, BuildingBlock: ESEHIV_clean_linker_0, # of connection points: 3
#     Node 1, Type 0, BuildingBlock: ESEHIV_clean_linker_0, # of connection points: 3
#     Node 2, Type 0, BuildingBlock: ESEHIV_clean_linker_0, # of connection points: 3
#     Node 3, Type 0, BuildingBlock: ESEHIV_clean_linker_0, # of connection points: 3
#     Node 4, Type 0, BuildingBlock: ESEHIV_clean_linker_0, # of connection points: 3
#     Node 5, Type 0, BuildingBlock: ESEHIV_clean_linker_0, # of connection points: 3
#     Node 6, Type 0, BuildingBlock: ESEHIV_clean_linker_0, # of connection points: 3
#     Node 7, Type 0, BuildingBlock: ESEHIV_clean_linker_0, # of connection points: 3
#     Node 8, Type 1, BuildingBlock: BETFAJ_clean_sbu_0, # of connection points: 6
#     Node 9, Type 1, BuildingBlock: BETFAJ_clean_sbu_0, # of connection points: 6
#     Node 10, Type 1, BuildingBlock: BETFAJ_clean_sbu_0, # of connection points: 6
#     Node 11, Type 1, BuildingBlock: BETFAJ_clean_sbu_0, # of connection points: 6
#     Edge 12, Type (0, 1), BuildingBlock: ZUJKAS_clean_linker_0, # of connection points: 2
#     Edge 13, Type (0, 1), BuildingBlock: ZUJKAS_clean_linker_0, # of connection points: 2
#     Edge 14, Type (0, 1), BuildingBlock: ZUJKAS_clean_linker_0, # of connection points: 2
#     Edge 15, Type (0, 1), BuildingBlock: ZUJKAS_clean_linker_0, # of connection points: 2
#     Edge 16, Type (0, 1), BuildingBlock: ZUJKAS_clean_linker_0, # of connection points: 2
#     Edge 17, Type (0, 1), BuildingBlock: ZUJKAS_clean_linker_0, # of connection points: 2
#     Edge 18, Type (0, 1), BuildingBlock: ZUJKAS_clean_linker_0, # of connection points: 2
#     Edge 19, Type (0, 1), BuildingBlock: ZUJKAS_clean_linker_0, # of connection points: 2
#     Edge 20, Type (0, 1), BuildingBlock: ZUJKAS_clean_linker_0, # of connection points: 2
#     Edge 21, Type (0, 1), BuildingBlock: ZUJKAS_clean_linker_0, # of connection points: 2
#     Edge 22, Type (0, 1), BuildingBlock: ZUJKAS_clean_linker_0, # of connection points: 2
#     Edge 23, Type (0, 1), BuildingBlock: ZUJKAS_clean_linker_0, # of connection points: 2
#     Edge 24, Type (0, 1), BuildingBlock: ZUJKAS_clean_linker_0, # of connection points: 2
#     Edge 25, Type (0, 1), BuildingBlock: ZUJKAS_clean_linker_0, # of connection points: 2
#     Edge 26, Type (0, 1), BuildingBlock: ZUJKAS_clean_linker_0, # of connection points: 2
#     Edge 27, Type (0, 1), BuildingBlock: ZUJKAS_clean_linker_0, # of connection points: 2
#     Edge 28, Type (0, 1), BuildingBlock: ZUJKAS_clean_linker_0, # of connection points: 2
#     Edge 29, Type (0, 1), BuildingBlock: ZUJKAS_clean_linker_0, # of connection points: 2
#     Edge 30, Type (0, 1), BuildingBlock: ZUJKAS_clean_linker_0, # of connection points: 2
#     Edge 31, Type (0, 1), BuildingBlock: ZUJKAS_clean_linker_0, # of connection points: 2
#     Edge 32, Type (0, 1), BuildingBlock: ZUJKAS_clean_linker_0, # of connection points: 2
#     Edge 33, Type (0, 1), BuildingBlock: ZUJKAS_clean_linker_0, # of connection points: 2
#     Edge 34, Type (0, 1), BuildingBlock: ZUJKAS_clean_linker_0, # of connection points: 2
#     Edge 35, Type (0, 1), BuildingBlock: ZUJKAS_clean_linker_0, # of connection points: 2
# Relax obj value: 0.446
# Max RMSD: 0.271
# Mean RMSD: 0.253
data_MOF--net-zzz--node1-BETFAJ_clean_sbu_0--node2-ESEHIV_clean_linker_0--edge1-ZUJKAS_clean_linker_0
_symmetry_space_group_name_H-M    P1
_symmetry_Int_Tables_number       1
_symmetry_cell_setting            triclinic
loop_
_symmetry_equiv_pos_as_xyz
'x, y, z'
_cell_length_a     60.881937
_cell_length_b     60.810942
_cell_length_c     18.598463
_cell_angle_alpha  89.883368
_cell_angle_beta   90.045499
_cell_angle_gamma 89.993321
loop_
_atom_site_label
_atom_site_type_symbol
_atom_site_fract_x
_atom_site_fract_y
_atom_site_fract_z
_atom_type_partial_charge
H0 H 0.77476 0.46206 0.30964 0.0
H1 H 0.71415 0.45854 0.19159 0.0
H2 H 0.72562 0.51186 0.33947 0.0
C3 C 0.75838 0.46816 0.29842 0.0
C4 C 0.75142 0.48737 0.33304 0.0
C5 C 0.7453 0.45771 0.24658 0.0
C6 C 0.72451 0.46645 0.2313 0.0
C7 C 0.71726 0.48594 0.26417 0.0
C8 C 0.73092 0.49667 0.31463 0.0
H9 H 0.05407 0.78015 0.29501 0.0
H10 H 0.06378 0.71989 0.1797 0.0
H11 H 0.00696 0.72814 0.31615 0.0
C12 C 0.04923 0.76341 0.28283 0.0
C13 C 0.02976 0.75539 0.31285 0.0
C14 C 0.0617 0.75079 0.23484 0.0
C15 C 0.05441 0.72956 0.21766 0.0
C16 C 0.03466 0.72105 0.24609 0.0
C17 C 0.02226 0.73422 0.29402 0.0
H18 H 0.73083 0.04197 0.27258 0.0
H19 H 0.78919 0.05104 0.14819 0.0
H20 H 0.78754 1.00192 0.31694 0.0
C21 C 0.74785 0.03772 0.26195 0.0
C22 C 0.75788 0.02107 0.30217 0.0
C23 C 0.75904 0.04843 0.20659 0.0
C24 C 0.78091 0.04302 0.19268 0.0
C25 C 0.7916 0.02631 0.23213 0.0
C26 C 0.7798 0.01507 0.28681 0.0
H27 H 0.45836 0.73752 0.29561 0.0
H28 H 0.50697 0.78857 0.31608 0.0
H29 H 0.45308 0.79535 0.16576 0.0
C30 C 0.46433 0.7538 0.28163 0.0
C31 C 0.45333 0.76597 0.22912 0.0
C32 C 0.48375 0.7616 0.31269 0.0
C33 C 0.4919 0.78249 0.29237 0.0
C34 C 0.48042 0.79533 0.24074 0.0
C35 C 0.46136 0.78653 0.20868 0.0
H36 H 0.22911 0.54591 0.13159 0.0
H37 H 0.28704 0.55356 0.25929 0.0
H38 H 0.28683 0.50812 0.08045 0.0
C39 C 0.24616 0.54171 0.14198 0.0
C40 C 0.25668 0.52625 0.09838 0.0
C41 C 0.25706 0.55153 0.1996 0.0
C42 C 0.27898 0.54624 0.21314 0.0
C43 C 0.29008 0.53059 0.17078 0.0
C44 C 0.27868 0.52033 0.11331 0.0
H45 H 0.96575 0.23351 0.10803 0.0
H46 H 0.95397 0.29425 0.21874 0.0
H47 H 0.01155 0.28655 0.08551 0.0
C48 C 0.97007 0.25044 0.11942 0.0
C49 C 0.98942 0.25877 0.08955 0.0
C50 C 0.957 0.26304 0.1658 0.0
C51 C 0.96374 0.28453 0.18206 0.0
C52 C 0.98347 0.2933 0.1543 0.0
C53 C 0.99632 0.28022 0.10738 0.0
H54 H 0.27706 0.96094 0.07798 0.0
H55 H 0.21758 0.95111 0.19738 0.0
H56 H 0.22575 0.00903 0.06508 0.0
C57 C 0.26047 0.96585 0.09167 0.0
C58 C 0.25254 0.9857 0.06385 0.0
C59 C 0.2481 0.95322 0.14006 0.0
C60 C 0.22709 0.96064 0.1593 0.0
C61 C 0.21867 0.98074 0.13303 0.0
C62 C 0.23169 0.9934 0.08526 0.0
H63 H 0.55533 0.28001 0.12958 0.0
H64 H 0.5105 0.22882 0.0675 0.0
H65 H 0.55758 0.21785 0.23777 0.0
C66 C 0.54971 0.26317 0.13468 0.0
C67 C 0.55891 0.24963 0.18769 0.0
C68 C 0.53268 0.25588 0.08978 0.0
C69 C 0.52392 0.23458 0.10076 0.0
C70 C 0.53315 0.22056 0.15382 0.0
C71 C 0.55065 0.22833 0.19638 0.0
Sm72 Sm 0.02238 0.99925 0.76903 0.0
Sm73 Sm 0.99491 0.01619 0.62562 0.0
C74 C 0.03563 0.98435 0.89462 0.0
C75 C 0.05213 0.96776 0.91396 0.0
C76 C 0.05742 0.95104 0.86513 0.0
C77 C 0.07289 0.93507 0.88323 0.0
C78 C 0.08363 0.93563 0.95025 0.0
C79 C 0.07884 0.95293 0.998 0.0
C80 C 0.06316 0.96886 0.97996 0.0
C81 C 0.04954 1.00362 0.64915 0.0
C82 C 1.00566 0.96307 0.64877 0.0
C83 C 0.98141 0.03134 0.50073 0.0
C84 C 0.96476 0.04799 0.48293 0.0
C85 C 0.96134 0.06585 0.52918 0.0
C86 C 0.94531 0.0815 0.51355 0.0
C87 C 0.93206 0.07949 0.45186 0.0
C88 C 0.93513 0.06118 0.40664 0.0
C89 C 0.95139 0.04557 0.42208 0.0
C90 C 0.9676 0.0114 0.74495 0.0
C91 C 0.0117 0.05239 0.74593 0.0
O92 O 0.01802 0.97687 0.86186 0.0
O93 O 0.04348 1.00239 0.86571 0.0
O94 O 0.02937 0.00763 0.65425 0.0
O95 O 0.05639 0.99693 0.71154 0.0
O96 O 0.01166 0.96659 0.71645 0.0
O97 O 1.00095 0.97927 0.60323 0.0
O98 O 0.9992 0.03864 0.53288 0.0
O99 O 0.97371 0.01315 0.52908 0.0
O100 O 0.98787 0.0078 0.74051 0.0
O101 O 0.9608 0.01795 0.68236 0.0
O102 O 1.00554 0.04889 0.67839 0.0
O103 O 0.01651 0.03618 0.79127 0.0
H104 H 0.0493 0.95011 0.81334 0.0
H105 H 0.07577 0.92182 0.84559 0.0
H106 H 0.08697 0.95401 0.04967 0.0
H107 H 0.05953 0.98191 0.01772 0.0
H108 H 0.97121 0.06786 0.57722 0.0
H109 H 0.94386 0.09555 0.54888 0.0
H110 H 0.9251 0.05899 0.3591 0.0
H111 H 0.95354 0.03164 0.38654 0.0
Sm112 Sm 0.5141 0.02017 0.75571 0.0
Sm113 Sm 0.49703 0.99232 0.61366 0.0
C114 C 0.52837 0.03362 0.88178 0.0
C115 C 0.54413 0.05068 0.90258 0.0
C116 C 0.55849 0.05949 0.85112 0.0
C117 C 0.57429 0.07491 0.87117 0.0
C118 C 0.57594 0.08188 0.94304 0.0
C119 C 0.56075 0.07378 0.99369 0.0
C120 C 0.54497 0.05825 0.97355 0.0
C121 C 0.5094 0.04722 0.63549 0.0
C122 C 0.55025 1.00257 0.63709 0.0
C123 C 0.48243 0.97907 0.48773 0.0
C124 C 0.46599 0.96261 0.46692 0.0
C125 C 0.44895 0.95715 0.51439 0.0
C126 C 0.43305 0.94183 0.49452 0.0
C127 C 0.43399 0.93142 0.42705 0.0
C128 C 0.45162 0.93636 0.38071 0.0
C129 C 0.46748 0.95188 0.40053 0.0
C130 C 0.50174 0.96532 0.73402 0.0
C131 C 0.46096 0.00933 0.73357 0.0
O132 O 0.53674 0.0166 0.84814 0.0
O133 O 0.51013 0.04088 0.85272 0.0
O134 O 0.50567 0.02696 0.64069 0.0
O135 O 0.51605 0.05416 0.69774 0.0
O136 O 0.54676 0.00916 0.70414 0.0
O137 O 0.53406 0.9977 0.59188 0.0
O138 O 0.47479 0.9966 0.52051 0.0
O139 O 0.50032 0.97115 0.51729 0.0
O140 O 0.50543 0.98558 0.72862 0.0
O141 O 0.49506 0.95833 0.67183 0.0
O142 O 0.4643 1.00282 0.66634 0.0
O143 O 0.47723 0.01433 0.77822 0.0
H144 H 0.55786 0.05397 0.79578 0.0
H145 H 0.5859 0.08052 0.83102 0.0
H146 H 0.56143 0.07902 0.04927 0.0
H147 H 0.53375 0.05182 0.01361 0.0
H148 H 0.44771 0.96504 0.56642 0.0
H149 H 0.41955 0.93882 0.53112 0.0
H150 H 0.45299 0.92848 0.32875 0.0
H151 H 0.48076 0.95565 0.36379 0.0
Sm152 Sm 0.49321 0.51808 0.78058 0.0
Sm153 Sm 0.51948 0.50146 0.63416 0.0
C154 C 0.48205 0.53224 0.90912 0.0
C155 C 0.46551 0.54769 0.93574 0.0
C156 C 0.45459 0.56181 0.8879 0.0
C157 C 0.43953 0.57721 0.9137 0.0
C158 C 0.43514 0.57867 0.98776 0.0
C159 C 0.4455 0.56382 0.03506 0.0
C160 C 0.4606 0.54846 0.00917 0.0
C161 C 0.46493 0.51305 0.66379 0.0
C162 C 0.50859 0.55439 0.65727 0.0
C163 C 0.53228 0.48484 0.51097 0.0
C164 C 0.54796 0.46691 0.49834 0.0
C165 C 0.55102 0.45081 0.55155 0.0
C166 C 0.56584 0.4337 0.54102 0.0
C167 C 0.57825 0.43244 0.47743 0.0
C168 C 0.57569 0.44907 0.42513 0.0
C169 C 0.56061 0.46617 0.43553 0.0
C170 C 0.54751 0.50622 0.75207 0.0
C171 C 0.50406 0.46526 0.75608 0.0
O172 O 0.49811 0.54097 0.87152 0.0
O173 O 0.47427 0.51403 0.88131 0.0
O174 O 0.48525 0.50966 0.66674 0.0
O175 O 0.45849 0.51936 0.72705 0.0
O176 O 0.50312 0.55082 0.72555 0.0
O177 O 0.51308 0.53827 0.61141 0.0
O178 O 0.51387 0.47902 0.54246 0.0
O179 O 0.54086 0.50287 0.5376 0.0
O180 O 0.52722 0.50954 0.74835 0.0
O181 O 0.55408 0.50001 0.689 0.0
O182 O 0.50846 0.46889 0.68724 0.0
O183 O 0.50067 0.48136 0.80286 0.0
H184 H 0.4581 0.56126 0.83081 0.0
H185 H 0.43208 0.58858 0.876 0.0
H186 H 0.44226 0.56438 0.09228 0.0
H187 H 0.46872 0.53745 0.04659 0.0
H188 H 0.54169 0.45128 0.60112 0.0
H189 H 0.56693 0.42104 0.5819 0.0
H190 H 0.58516 0.44875 0.37589 0.0
H191 H 0.55876 0.47872 0.39455 0.0
Sm192 Sm 0.99826 0.49367 0.77558 0.0
Sm193 Sm 0.01516 0.51937 0.62834 0.0
C194 C 0.98358 0.48224 0.90342 0.0
C195 C 0.96782 0.46551 0.92748 0.0
C196 C 0.9551 0.46928 0.98884 0.0
C197 C 0.93801 0.45495 0.00656 0.0
C198 C 0.93333 0.4366 0.963 0.0
C199 C 0.94683 0.43235 0.90336 0.0
C200 C 0.96387 0.44672 0.88561 0.0
C201 C 1.00314 0.46504 0.65941 0.0
C202 C 0.96217 0.50903 0.65347 0.0
C203 C 0.02913 0.53112 0.50009 0.0
C204 C 0.04337 0.54903 0.47463 0.0
C205 C 0.05903 0.54474 0.4215 0.0
C206 C 0.07451 0.56071 0.40316 0.0
C207 C 0.07457 0.58136 0.43751 0.0
C208 C 0.05822 0.58591 0.48865 0.0
C209 C 0.04281 0.56985 0.50729 0.0
C210 C 0.01048 0.54806 0.74419 0.0
C211 C 0.05122 0.504 0.75059 0.0
O212 O 0.97508 0.49849 0.86606 0.0
O213 O 1.00212 0.47483 0.87681 0.0
O214 O 0.0068 0.48531 0.66215 0.0
O215 O 0.99648 0.45882 0.72251 0.0
O216 O 0.96568 0.50438 0.72229 0.0
O217 O 0.97837 0.51245 0.60701 0.0
O218 O 0.03892 0.51589 0.53869 0.0
O219 O 0.00991 0.53698 0.5256 0.0
O220 O 0.00665 0.5278 0.74172 0.0
O221 O 0.01715 0.55419 0.68099 0.0
O222 O 0.0477 0.50839 0.68154 0.0
O223 O 0.03502 0.50068 0.79717 0.0
H224 H 0.95781 0.4838 0.02137 0.0
H225 H 0.92771 0.45896 0.05215 0.0
H226 H 0.94378 0.41828 0.86913 0.0
H227 H 0.97347 0.44355 0.83777 0.0
H228 H 0.05983 0.52872 0.3962 0.0
H229 H 0.08711 0.5564 0.36464 0.0
H230 H 0.05767 0.60166 0.51566 0.0
H231 H 0.0309 0.57351 0.5488 0.0
H232 H 0.207 0.02259 0.17586 0.0
H233 H 0.17428 0.03317 0.24435 0.0
H234 H 0.14954 0.96693 0.22759 0.0
H235 H 0.1812 0.95675 0.15511 0.0
H236 H 0.11641 0.99401 0.22714 0.0
H237 H 0.17165 0.01788 0.45176 0.0
H238 H 0.17504 0.03411 0.37197 0.0
H239 H 0.18185 1.00529 0.37093 0.0
C240 C 0.19427 0.01046 0.18489 0.0
C241 C 0.19706 0.98865 0.16137 0.0
C242 C 0.1757 0.01644 0.2252 0.0
C243 C 0.15976 1.00065 0.24393 0.0
C244 C 0.16166 0.97941 0.21516 0.0
H245 H 0.08921 0.98471 0.63262 0.0
H246 H 0.11371 0.98621 0.52952 0.0
C247 C 0.17995 0.97354 0.17405 0.0
C248 C 0.14207 1.00534 0.29767 0.0
H249 H 0.13388 0.01977 0.47322 0.0
C250 C 0.12021 0.99982 0.28083 0.0
C251 C 0.14695 0.01272 0.3682 0.0
C252 C 0.17013 0.01766 0.39223 0.0
C253 C 0.10339 1.0006 0.33288 0.0
C254 C 0.10836 0.00778 0.40347 0.0
C255 C 0.12999 0.01428 0.41923 0.0
C256 C 0.09228 1.00647 0.46417 0.0
C257 C 0.08076 0.99258 0.31268 0.0
C258 C 0.07174 0.01716 0.46229 0.0
C259 C 0.05736 0.01596 0.52148 0.0
C260 C 0.06352 1.00443 0.58391 0.0
C261 C 0.084 0.99381 0.58544 0.0
C262 C 0.09809 0.99471 0.52639 0.0
H263 H 0.08095 0.98289 0.26209 0.0
H264 H 0.07368 0.98221 0.35605 0.0
H265 H 0.0698 0.00693 0.30438 0.0
H266 H 0.06697 0.02676 0.41577 0.0
H267 H 0.04175 0.02444 0.51908 0.0
H268 H 0.55693 0.18295 0.16898 0.0
H269 H 0.54541 0.14914 0.22746 0.0
H270 H 0.47856 0.17271 0.23261 0.0
H271 H 0.49048 0.20743 0.1773 0.0
H272 H 0.48867 0.16038 0.35814 0.0
H273 H 0.51671 0.09303 0.18537 0.0
H274 H 0.5396 0.11086 0.20059 0.0
H275 H 0.51573 0.12104 0.15332 0.0
C276 C 0.53965 0.18073 0.18086 0.0
C277 C 0.52466 0.198 0.16914 0.0
C278 C 0.53298 0.16117 0.21373 0.0
C279 C 0.511 0.15801 0.23422 0.0
C280 C 0.49563 0.1746 0.21738 0.0
H281 H 0.49133 0.03782 0.50214 0.0
H282 H 0.48765 0.06322 0.39913 0.0
C283 C 0.50239 0.1944 0.18506 0.0
C284 C 0.5051 0.13916 0.28251 0.0
H285 H 0.51685 0.085 0.3156 0.0
C286 C 0.49439 0.1438 0.34768 0.0
C287 C 0.51199 0.11723 0.26929 0.0
C288 C 0.5214 0.11026 0.19787 0.0
C289 C 0.49198 0.12776 0.40161 0.0
C290 C 0.50121 0.10659 0.39165 0.0
C291 C 0.51029 0.10136 0.32438 0.0
C292 C 0.5034 0.09065 0.45253 0.0
C293 C 0.47988 0.13391 0.46946 0.0
C294 C 0.51397 0.0973 0.51595 0.0
C295 C 0.51585 0.083 0.5744 0.0
C296 C 0.50761 0.06145 0.57081 0.0
C297 C 0.4977 0.05437 0.50657 0.0
C298 C 0.49561 0.06888 0.44779 0.0
H299 H 0.46712 0.14654 0.45838 0.0
H300 H 0.47188 0.1194 0.49459 0.0
H301 H 0.49166 0.14107 0.5085 0.0
H302 H 0.52084 0.11367 0.52041 0.0
H303 H 0.52385 0.08891 0.62269 0.0
H304 H 0.30831 0.48934 0.1865 0.0
H305 H 0.3429 0.48033 0.24806 0.0
H306 H 0.3573 0.54948 0.26872 0.0
H307 H 0.32362 0.55842 0.20425 0.0
H308 H 0.39426 0.52752 0.25186 0.0
H309 H 0.34446 0.48572 0.4621 0.0
H310 H 0.34282 0.47353 0.37452 0.0
H311 H 0.33205 0.50072 0.38906 0.0
C312 C 0.31923 0.50256 0.20212 0.0
C313 C 0.313 0.52461 0.19169 0.0
C314 C 0.33885 0.49742 0.23838 0.0
C315 C 0.35241 0.51424 0.2656 0.0
C316 C 0.3471 0.53615 0.24932 0.0
H317 H 0.42247 0.52561 0.65594 0.0
H318 H 0.39755 0.52362 0.55378 0.0
C319 C 0.32773 0.54126 0.21261 0.0
C320 C 0.37095 0.5096 0.31627 0.0
H321 H 0.38207 0.48928 0.48399 0.0
C322 C 0.39168 0.51893 0.30231 0.0
C323 C 0.36759 0.49859 0.38265 0.0
C324 C 0.34552 0.48922 0.40354 0.0
C325 C 0.4087 0.5184 0.35372 0.0
C326 C 0.40518 0.50769 0.42045 0.0
C327 C 0.38482 0.49746 0.43291 0.0
C328 C 0.42118 0.50894 0.48137 0.0
C329 C 0.42983 0.53041 0.33759 0.0
C330 C 0.44298 0.5014 0.47535 0.0
C331 C 0.45749 0.50283 0.53411 0.0
C332 C 0.45033 0.51147 0.6001 0.0
C333 C 0.42852 0.51881 0.60594 0.0
C334 C 0.41419 0.51762 0.54743 0.0
H335 H 0.42808 0.5418 0.29115 0.0
H336 H 0.43539 0.53999 0.38497 0.0
H337 H 0.44279 0.51827 0.32423 0.0
H338 H 0.44873 0.49421 0.42562 0.0
H339 H 0.47418 0.49701 0.52813 0.0
H340 H 0.95856 0.33034 0.17363 0.0
H341 H 0.9681 0.36286 0.24248 0.0
H342 H 0.03487 0.33978 0.26122 0.0
H343 H 0.02491 0.3062 0.19629 0.0
H344 H 0.02193 0.35055 0.38541 0.0
H345 H 0.99731 0.41951 0.21205 0.0
H346 H 0.97435 0.40137 0.22157 0.0
H347 H 0.99909 0.39178 0.1782 0.0
C348 C 0.97538 0.33225 0.19154 0.0
C349 C 0.99086 0.31539 0.18019 0.0
C350 C 0.98094 0.35115 0.23017 0.0
C351 C 1.00233 0.35414 0.25683 0.0
C352 C 0.01824 0.338 0.24135 0.0
H353 H 0.02167 0.4733 0.52643 0.0
H354 H 0.02492 0.44744 0.42507 0.0
C355 C 0.01259 0.31885 0.20346 0.0
C356 C 0.0071 0.3725 0.30816 0.0
H357 H 0.99607 0.42674 0.34157 0.0
C358 C 0.01666 0.36729 0.37489 0.0
C359 C 1.00077 0.39461 0.2949 0.0
C360 C 0.99256 0.40214 0.22238 0.0
C361 C 0.01873 0.38303 0.42973 0.0
C362 C 0.01025 0.4045 0.41905 0.0
C363 C 1.00208 0.41018 0.3508 0.0
C364 C 0.00837 0.42061 0.47943 0.0
C365 C 0.02991 0.37631 0.49885 0.0
C366 C 0.99754 0.41446 0.54301 0.0
C367 C 0.99597 0.42902 0.60073 0.0
C368 C 1.00472 0.45035 0.59605 0.0
C369 C 0.0149 0.45692 0.53166 0.0
C370 C 0.01673 0.44215 0.4738 0.0
H371 H 0.04234 0.36328 0.48908 0.0
H372 H 0.03814 0.39047 0.52511 0.0
H373 H 0.0175 0.36945 0.53637 0.0
H374 H 0.9902 0.39832 0.54811 0.0
H375 H 0.98774 0.42355 0.64921 0.0
H376 H 0.8257 0.05394 0.20201 0.0
H377 H 0.85958 0.0451 0.13886 0.0
H378 H 0.84404 0.97601 0.15254 0.0
H379 H 0.80926 0.98495 0.21257 0.0
H380 H 0.89615 0.02229 0.15691 0.0
H381 H 0.8471 0.98337 0.93922 0.0
H382 H 0.83443 0.99791 0.01253 0.0
H383 H 0.84468 0.97042 0.02558 0.0
C384 C 0.82954 0.03681 0.19221 0.0
C385 C 0.81446 0.0202 0.21081 0.0
C386 C 0.84905 0.03175 0.15635 0.0
C387 C 0.85416 0.00991 0.13865 0.0
C388 C 0.84019 0.99306 0.16339 0.0
H389 H 0.97674 0.99348 0.87883 0.0
H390 H 0.95119 0.98989 0.981 0.0
C391 C 0.82043 0.99816 0.19875 0.0
C392 C 0.87298 1.00545 0.08906 0.0
H393 H 0.88484 0.98672 0.92026 0.0
C394 C 0.89376 0.01427 0.10547 0.0
C395 C 0.86988 0.99515 0.02148 0.0
C396 C 0.84781 0.98632 0.99812 0.0
C397 C 0.91111 0.01397 0.05528 0.0
C398 C 0.90781 1.00409 0.98724 0.0
C399 C 0.88741 0.99427 0.97238 0.0
C400 C 0.92402 1.00607 0.92721 0.0
C401 C 0.93235 0.02539 0.07404 0.0
C402 C 0.91731 0.01599 0.86262 0.0
C403 C 0.93166 0.01768 0.80446 0.0
C404 C 0.95325 0.00965 0.80913 0.0
C405 C 0.96023 0.99989 0.87385 0.0
C406 C 0.94566 0.99797 0.93235 0.0
H407 H 0.93068 0.03594 0.12241 0.0
H408 H 0.94515 0.01286 0.08531 0.0
H409 H 0.9381 0.03573 0.02852 0.0
H410 H 0.90081 0.02246 0.85704 0.0
H411 H 0.92576 0.02535 0.7555 0.0
H412 H 0.52259 0.80824 0.20603 0.0
H413 H 0.5335 0.84198 0.14275 0.0
H414 H 0.46641 0.86476 0.14926 0.0
H415 H 0.45587 0.83206 0.21582 0.0
H416 H 0.52243 0.85298 0.01619 0.0
H417 H 0.49482 0.92152 0.18505 0.0
H418 H 0.49634 0.89378 0.21936 0.0
H419 H 0.4721 0.90327 0.17257 0.0
C420 C 0.51038 0.82086 0.1964 0.0
C421 C 0.48831 0.81731 0.21552 0.0
C422 C 0.51658 0.84011 0.15959 0.0
C423 C 0.50087 0.85623 0.14136 0.0
C424 C 0.47909 0.8531 0.16391 0.0
H425 H 0.48731 0.92362 0.74777 0.0
H426 H 0.49029 0.89913 0.85081 0.0
C427 C 0.47297 0.8341 0.20124 0.0
C428 C 0.50631 0.87469 0.09095 0.0
H429 H 0.49449 0.92865 0.05474 0.0
C430 C 0.51674 0.86962 0.02566 0.0
C431 C 0.49945 0.8967 0.10293 0.0
C432 C 0.49031 0.90413 0.17423 0.0
C433 C 0.519 0.88532 0.9706 0.0
C434 C 0.50987 0.90659 0.97957 0.0
C435 C 0.50099 0.91223 0.04676 0.0
C436 C 0.50775 0.92231 0.91803 0.0
C437 C 0.5309 0.87875 0.9028 0.0
C438 C 0.51556 0.94409 0.9221 0.0
C439 C 0.51348 0.95844 0.86294 0.0
C440 C 0.50356 0.9512 0.79892 0.0
C441 C 0.49532 0.92964 0.7959 0.0
C442 C 0.49719 0.91549 0.85477 0.0
H443 H 0.54362 0.86612 0.91427 0.0
H444 H 0.51899 0.87144 0.86449 0.0
H445 H 0.53891 0.89308 0.87663 0.0
H446 H 0.52352 0.94988 0.9706 0.0
H447 H 0.51985 0.975 0.86692 0.0
H448 H 0.67656 0.46985 0.29217 0.0
H449 H 0.64299 0.47748 0.22353 0.0
H450 H 0.67688 0.52841 0.1062 0.0
H451 H 0.71032 0.52114 0.17641 0.0
H452 H 0.63137 0.53784 0.12903 0.0
H453 H 0.64462 0.45418 0.01729 0.0
H454 H 0.64126 0.4551 0.11312 0.0
H455 H 0.66484 0.46781 0.07231 0.0
C456 C 0.67651 0.48329 0.25384 0.0
C457 C 0.69591 0.49507 0.23997 0.0
C458 C 0.65742 0.48748 0.21405 0.0
C459 C 0.65752 0.50319 0.15854 0.0
C460 C 0.67639 0.51619 0.14863 0.0
H461 H 0.59156 0.50158 0.75458 0.0
H462 H 0.61619 0.50226 0.85785 0.0
C463 C 0.69545 0.51214 0.18903 0.0
C464 C 0.6392 0.50411 0.10531 0.0
H465 H 0.61408 0.47378 0.97432 0.0
C466 C 0.62743 0.5238 0.09556 0.0
C467 C 0.63426 0.48586 0.06085 0.0
C468 C 0.64699 0.46459 0.06571 0.0
C469 C 0.61101 0.52572 0.04231 0.0
C470 C 0.60612 0.50744 0.99805 0.0
C471 C 0.61768 0.48773 0.00863 0.0
C472 C 0.59069 0.50878 0.93586 0.0
C473 C 0.59957 0.54749 0.03188 0.0
C474 C 0.56801 0.51236 0.94495 0.0
C475 C 0.55374 0.512 0.88534 0.0
C476 C 0.56198 0.50797 0.81598 0.0
C477 C 0.58467 0.50472 0.80728 0.0
C478 C 0.59881 0.5051 0.86636 0.0
H479 H 0.60775 0.56095 0.06209 0.0
H480 H 0.59909 0.55196 0.97398 0.0
H481 H 0.58237 0.54614 0.0511 0.0
H482 H 0.56128 0.51488 0.99818 0.0
H483 H 0.5363 0.51439 0.89365 0.0
H484 H 0.05893 0.68372 0.22464 0.0
H485 H 0.04863 0.65153 0.15482 0.0
H486 H 0.982 0.67533 0.14192 0.0
H487 H 0.99268 0.70858 0.20756 0.0
H488 H 0.0222 0.61805 0.15924 0.0
H489 H 0.99543 0.67177 0.9336 0.0
H490 H 0.00853 0.68261 0.01273 0.0
H491 H 0.97986 0.67532 0.0145 0.0
C492 C 0.04204 0.68215 0.20711 0.0
C493 C 0.02682 0.69915 0.21993 0.0
C494 C 0.0361 0.66356 0.16753 0.0
C495 C 0.01468 0.66123 0.14054 0.0
C496 C 0.99884 0.67707 0.15962 0.0
H497 H 0.9908 0.54098 0.8762 0.0
H498 H 0.98873 0.56698 0.97734 0.0
C499 C 1.00489 0.69595 0.19833 0.0
C500 C 0.0098 0.64318 0.08827 0.0
H501 H 0.99391 0.63382 0.91462 0.0
C502 C 0.01585 0.62148 0.10588 0.0
C503 C 1.00171 0.64757 0.01814 0.0
C504 C 0.99619 0.67057 0.99318 0.0
C505 C 0.01489 0.60436 0.05493 0.0
C506 C 0.00696 0.60884 0.98475 0.0
C507 C 0.99997 0.6303 0.96829 0.0
C508 C 0.00793 0.59241 0.925 0.0
C509 C 0.02353 0.58198 0.07573 0.0
C510 C 0.01891 0.59805 0.86119 0.0
C511 C 0.01963 0.5835 0.80332 0.0
C512 C 0.00962 0.56274 0.80769 0.0
C513 C 0.99879 0.55681 0.87159 0.0
C514 C 0.99775 0.57164 0.92956 0.0
H515 H 0.03377 0.58264 0.12517 0.0
H516 H 0.0095 0.57081 0.08642 0.0
H517 H 0.03352 0.57479 0.03173 0.0
H518 H 0.02699 0.61385 0.85598 0.0
H519 H 0.02817 0.58855 0.75493 0.0
H520 H 0.94104 0.27064 0.30309 0.0
H521 H 0.91664 0.24683 0.37122 0.0
H522 H 0.90715 0.20629 0.18371 0.0
H523 H 0.92862 0.23182 0.11253 0.0
H524 H 0.87477 0.1996 0.26695 0.0
H525 H 0.94999 0.196 0.43862 0.0
H526 H 0.93551 0.22159 0.44047 0.0
H527 H 0.94891 0.21269 0.35904 0.0
C528 C 0.93299 0.25731 0.27508 0.0
C529 C 0.93789 0.25254 0.2027 0.0
C530 C 0.91928 0.2434 0.31482 0.0
C531 C 0.91132 0.22389 0.28406 0.0
C532 C 0.91364 0.22084 0.20967 0.0
H533 H 0.92346 0.09576 0.31734 0.0
H534 H 0.90704 0.13112 0.28873 0.0
C535 C 0.9264 0.23528 0.16914 0.0
C536 C 0.90424 0.20494 0.32913 0.0
H537 H 0.92493 0.16803 0.45006 0.0
C538 C 0.88552 0.19294 0.30814 0.0
C539 C 0.91818 0.19614 0.38337 0.0
C540 C 0.93933 0.20713 0.40646 0.0
C541 C 0.88161 0.17164 0.33463 0.0
C542 C 0.89641 0.16246 0.38465 0.0
C543 C 0.9136 0.1753 0.41169 0.0
C544 C 0.89779 0.13857 0.39827 0.0
C545 C 0.86254 0.15855 0.30579 0.0
C546 C 0.89703 0.13054 0.4689 0.0
C547 C 0.90623 0.1101 0.48547 0.0
C548 C 0.91683 0.09766 0.4319 0.0
C549 C 0.91543 0.10477 0.36004 0.0
C550 C 0.90593 0.12504 0.34341 0.0
H551 H 0.84937 0.16947 0.28487 0.0
H552 H 0.86835 0.14806 0.26088 0.0
H553 H 0.85561 0.14764 0.34803 0.0
H554 H 0.89095 0.14083 0.51202 0.0
H555 H 0.90643 0.10481 0.54109 0.0
H556 H 0.27726 0.92332 0.08388 0.0
H557 H 0.30339 0.90182 0.15213 0.0
H558 H 0.26749 0.91546 0.34713 0.0
H559 H 0.24297 0.93944 0.28042 0.0
H560 H 0.30446 0.92922 0.36585 0.0
H561 H 0.31924 0.84807 0.2506 0.0
H562 H 0.32004 0.8668 0.17652 0.0
H563 H 0.29492 0.86354 0.22744 0.0
C564 C 0.27473 0.92161 0.14124 0.0
C565 C 0.25856 0.93404 0.17678 0.0
C566 C 0.28945 0.90869 0.18029 0.0
C567 C 0.28769 0.90701 0.25543 0.0
C568 C 0.26946 0.91667 0.28937 0.0
H569 H 0.40982 0.90179 0.50635 0.0
H570 H 0.37361 0.88717 0.47474 0.0
C571 C 0.25523 0.93034 0.25073 0.0
C572 C 0.30728 0.90046 0.29844 0.0
H573 H 0.35349 0.86868 0.28833 0.0
C574 C 0.31466 0.91535 0.35092 0.0
C575 C 0.32085 0.88237 0.28002 0.0
C576 C 0.31311 0.86423 0.23107 0.0
C577 C 0.33592 0.91412 0.37905 0.0
C578 C 0.35031 0.89767 0.35369 0.0
C579 C 0.34246 0.8815 0.30665 0.0
C580 C 0.37413 0.89987 0.36617 0.0
C581 C 0.34355 0.93166 0.43081 0.0
C582 C 0.3867 0.91092 0.31438 0.0
C583 C 0.40712 0.91971 0.33255 0.0
C584 C 0.41534 0.91748 0.40289 0.0
C585 C 0.4037 0.90429 0.45226 0.0
C586 C 0.38315 0.89565 0.43412 0.0
H587 H 0.33032 0.94352 0.44443 0.0
H588 H 0.3494 0.92387 0.48134 0.0
H589 H 0.35754 0.94091 0.40723 0.0
H590 H 0.37985 0.91449 0.26182 0.0
H591 H 0.41549 0.92982 0.29319 0.0
H592 H 0.59268 0.27755 0.15442 0.0
H593 H 0.61234 0.30084 0.23748 0.0
H594 H 0.58561 0.26421 0.41637 0.0
H595 H 0.56378 0.24241 0.33309 0.0
H596 H 0.57515 0.30222 0.43524 0.0
H597 H 0.66157 0.30998 0.36498 0.0
H598 H 0.6474 0.31289 0.28139 0.0
H599 H 0.64542 0.28734 0.33118 0.0
C600 C 0.59114 0.27423 0.21143 0.0
C601 C 0.57593 0.2587 0.23697 0.0
C602 C 0.60297 0.28726 0.25928 0.0
C603 C 0.60059 0.28445 0.33389 0.0
C604 C 0.58765 0.2669 0.35917 0.0
H605 H 0.60351 0.40881 0.5733 0.0
H606 H 0.61703 0.37124 0.55655 0.0
C607 C 0.57522 0.2543 0.31124 0.0
C608 C 0.6068 0.30282 0.38267 0.0
H609 H 0.64197 0.34653 0.38824 0.0
C610 C 0.59028 0.31132 0.42753 0.0
C611 C 0.62659 0.31484 0.37439 0.0
C612 C 0.64626 0.30552 0.3359 0.0
C613 C 0.59172 0.33259 0.45558 0.0
C614 C 0.61 0.34576 0.43758 0.0
C615 C 0.62772 0.33649 0.40039 0.0
C616 C 0.60837 0.36985 0.44399 0.0
C617 C 0.57261 0.3417 0.49784 0.0
C618 C 0.59992 0.38166 0.38541 0.0
C619 C 0.59167 0.40284 0.395 0.0
C620 C 0.59188 0.4126 0.46345 0.0
C621 C 0.60256 0.40153 0.5203 0.0
C622 C 0.61058 0.38019 0.51077 0.0
H623 H 0.56002 0.32899 0.50978 0.0
H624 H 0.57855 0.34865 0.54945 0.0
H625 H 0.5647 0.35522 0.46706 0.0
H626 H 0.59793 0.37378 0.33359 0.0
H627 H 0.5835 0.4107 0.35007 0.0
H628 H 0.26503 0.59464 0.23414 0.0
H629 H 0.24125 0.61889 0.30669 0.0
H630 H 0.1976 0.56425 0.34619 0.0
H631 H 0.22099 0.54041 0.27445 0.0
H632 H 0.19712 0.62795 0.27437 0.0
H633 H 0.20216 0.59218 0.54463 0.0
H634 H 0.22377 0.5887 0.47888 0.0
H635 H 0.2006 0.5702 0.48083 0.0
C636 C 0.25056 0.58789 0.25982 0.0
C637 C 0.24465 0.5658 0.24893 0.0
C638 C 0.23707 0.60167 0.30105 0.0
C639 C 0.21793 0.59325 0.33297 0.0
C640 C 0.21259 0.57098 0.32372 0.0
H641 H 0.09533 0.59079 0.31073 0.0
H642 H 0.13147 0.60682 0.2975 0.0
C643 C 0.2258 0.55741 0.28217 0.0
C644 C 0.2016 0.60759 0.36833 0.0
H645 H 0.16432 0.60127 0.50215 0.0
C646 C 0.19029 0.62292 0.32568 0.0
C647 C 0.19317 0.60199 0.43662 0.0
C648 C 0.20578 0.58755 0.48811 0.0
C649 C 0.16895 0.62959 0.34405 0.0
C650 C 0.1587 0.62004 0.40487 0.0
C651 C 0.17165 0.60808 0.45388 0.0
C652 C 0.13449 0.61706 0.40886 0.0
C653 C 0.15707 0.64539 0.2951 0.0
C654 C 0.12357 0.61779 0.47534 0.0
C655 C 0.10309 0.60768 0.48362 0.0
C656 C 0.09308 0.59687 0.42529 0.0
C657 C 0.10284 0.59847 0.35712 0.0
C658 C 0.12343 0.60818 0.34917 0.0
H659 H 0.16824 0.65898 0.27909 0.0
H660 H 0.15214 0.63676 0.2451 0.0
H661 H 0.14226 0.65249 0.32105 0.0
H662 H 0.13169 0.62451 0.52226 0.0
H663 H 0.09608 0.60679 0.53702 0.0
H664 H 0.075 0.74493 0.09447 0.0
H665 H 0.09923 0.76877 0.02611 0.0
H666 H 0.11354 0.80561 0.21879 0.0
H667 H 0.09173 0.78019 0.28868 0.0
H668 H 0.08636 0.8059 0.00433 0.0
H669 H 0.16749 0.81992 0.11992 0.0
H670 H 0.15168 0.79592 0.14425 0.0
H671 H 0.14893 0.82132 0.19409 0.0
C672 C 0.08428 0.75728 0.12329 0.0
C673 C 0.08073 0.76106 0.19703 0.0
C674 C 0.09809 0.77109 0.08373 0.0
C675 C 0.10809 0.78936 0.11653 0.0
C676 C 0.10645 0.7916 0.19152 0.0
H677 H 0.08615 0.91631 0.08283 0.0
H678 H 0.10182 0.88055 0.11118 0.0
C679 C 0.09335 0.7773 0.23149 0.0
C680 C 0.11502 0.8086 0.07237 0.0
H681 H 0.14712 0.85459 0.08242 0.0
C682 C 0.10029 0.81601 0.01931 0.0
C683 C 0.13324 0.822 0.09063 0.0
C684 C 0.15129 0.81413 0.13983 0.0
C685 C 0.10169 0.83727 0.99099 0.0
C686 C 0.11814 0.8516 0.01674 0.0
C687 C 0.13427 0.84362 0.06385 0.0
C688 C 0.1158 0.8755 0.00568 0.0
C689 C 0.08423 0.84502 0.93898 0.0
C690 C 0.11956 0.88496 0.93807 0.0
C691 C 0.11073 0.90559 0.92167 0.0
C692 C 0.0978 0.91688 0.97247 0.0
C693 C 0.09604 0.90822 0.04241 0.0
C694 C 0.10503 0.88773 0.05884 0.0
H695 H 0.07239 0.8318 0.92493 0.0
H696 H 0.07497 0.85898 0.9626 0.0
H697 H 0.09206 0.85095 0.88869 0.0
H698 H 0.12784 0.87569 0.89643 0.0
H699 H 0.11288 0.91206 0.86785 0.0
H700 H 0.76816 0.09167 0.17488 0.0
H701 H 0.74442 0.11737 0.10706 0.0
H702 H 0.69892 0.06443 0.0659 0.0
H703 H 0.72231 0.03912 0.13251 0.0
H704 H 0.70825 0.09434 0.94409 0.0
H705 H 0.68362 0.13646 0.19723 0.0
H706 H 0.71208 0.13375 0.17181 0.0
H707 H 0.69716 0.11012 0.20275 0.0
C708 C 0.75325 0.08563 0.15003 0.0
C709 C 0.7468 0.0636 0.15929 0.0
C710 C 0.73975 0.10024 0.11168 0.0
C711 C 0.71992 0.09276 0.08186 0.0
C712 C 0.71421 0.0705 0.08824 0.0
H713 H 0.60059 0.07599 0.06341 0.0
H714 H 0.63642 0.09147 0.08873 0.0
C715 C 0.72747 0.05609 0.12662 0.0
C716 C 0.70349 0.10771 0.04971 0.0
H717 H 0.65654 0.13236 0.10764 0.0
C718 C 0.69726 0.10365 0.97839 0.0
C719 C 0.68949 0.12013 0.09453 0.0
C720 C 0.69581 0.12553 0.17089 0.0
C721 C 0.67587 0.10822 0.9547 0.0
C722 C 0.66065 0.11746 0.00369 0.0
C723 C 0.66817 0.12499 0.07065 0.0
C724 C 0.63685 0.11302 0.99584 0.0
C725 C 0.66896 0.1003 0.88119 0.0
C726 C 0.62463 0.12078 0.93706 0.0
C727 C 0.60394 0.11178 0.92215 0.0
C728 C 0.59519 0.09508 0.96625 0.0
C729 C 0.60667 0.08892 0.0286 0.0
C730 C 0.62726 0.09778 0.04315 0.0
H731 H 0.68279 0.09283 0.85088 0.0
H732 H 0.6557 0.08786 0.88627 0.0
H733 H 0.6625 0.11431 0.84928 0.0
H734 H 0.63154 0.13284 0.90066 0.0
H735 H 0.59526 0.11716 0.8744 0.0
H736 H 0.45679 0.74776 0.09859 0.0
H737 H 0.43241 0.72044 0.04738 0.0
H738 H 0.38542 0.73237 0.21705 0.0
H739 H 0.41103 0.75874 0.27137 0.0
H740 H 0.39206 0.69315 0.21863 0.0
H741 H 0.38081 0.70802 0.9333 0.0
H742 H 0.40961 0.712 0.94589 0.0
H743 H 0.39027 0.72983 0.99139 0.0
C744 C 0.44085 0.74516 0.12312 0.0
C745 C 0.43563 0.75524 0.18843 0.0
C746 C 0.42668 0.72967 0.09337 0.0
C747 C 0.40672 0.72436 0.12742 0.0
C748 C 0.40064 0.73611 0.18947 0.0
H749 H 0.39644 0.59555 0.93422 0.0
H750 H 0.37798 0.62951 0.97212 0.0
C751 C 0.41516 0.75123 0.22038 0.0
C752 C 0.39542 0.70351 0.10775 0.0
H753 H 0.39344 0.66873 0.9647 0.0
C754 C 0.39145 0.68811 0.16278 0.0
C755 C 0.39329 0.69665 0.03536 0.0
C756 C 0.39347 0.71271 0.97351 0.0
C757 C 0.38935 0.66568 0.14741 0.0
C758 C 0.39227 0.65846 0.07588 0.0
C759 C 0.39227 0.67408 0.02015 0.0
C760 C 0.40037 0.63597 0.06005 0.0
C761 C 0.38575 0.64982 0.20873 0.0
C762 C 0.41895 0.62821 0.09707 0.0
C763 C 0.42941 0.60896 0.07577 0.0
C764 C 0.42178 0.59712 0.0161 0.0
C765 C 0.40275 0.60442 0.98025 0.0
C766 C 0.39213 0.62373 1.00203 0.0
H767 H 0.37387 0.6568 0.24784 0.0
H768 H 0.37949 0.6337 0.18972 0.0
H769 H 0.40147 0.64725 0.23785 0.0
H770 H 0.42626 0.63772 0.14003 0.0
H771 H 0.44431 0.60413 0.1035 0.0
H772 H 0.73986 0.45024 0.10199 0.0
H773 H 0.76401 0.42878 0.02549 0.0
H774 H 0.79835 0.40492 0.21319 0.0
H775 H 0.77288 0.42445 0.29004 0.0
H776 H 0.80233 0.44294 0.02139 0.0
H777 H 0.81186 0.35558 0.08622 0.0
H778 H 0.788 0.37089 0.11489 0.0
H779 H 0.81261 0.37028 0.16934 0.0
C780 C 0.75168 0.43943 0.12741 0.0
C781 C 0.7549 0.43971 0.20235 0.0
C782 C 0.76563 0.42719 0.08329 0.0
C783 C 0.78333 0.41544 0.1131 0.0
C784 C 0.7848 0.41356 0.18823 0.0
H785 H 0.9159 0.42285 0.09133 0.0
H786 H 0.87823 0.41045 0.11183 0.0
C787 C 0.77045 0.42525 0.2324 0.0
C788 C 0.80296 0.41047 0.06846 0.0
H789 H 0.84684 0.37558 0.05819 0.0
C790 C 0.8116 0.42781 0.02721 0.0
C791 C 0.81528 0.39083 0.0758 0.0
C792 C 0.80623 0.37082 0.11344 0.0
C793 C 0.83292 0.42697 0.99947 0.0
C794 C 0.84596 0.40816 0.01271 0.0
C795 C 0.83683 0.39006 0.04878 0.0
C796 C 0.86983 0.40883 0.99893 0.0
C797 C 0.84196 0.44703 0.96153 0.0
C798 C 0.87784 0.41087 0.9286 0.0
C799 C 0.89923 0.41835 0.91673 0.0
C800 C 0.91294 0.42372 0.97514 0.0
C801 C 0.90557 0.41933 0.04533 0.0
C802 C 0.88415 0.41198 0.05711 0.0
H803 H 0.83043 0.46119 0.96315 0.0
H804 H 0.85774 0.45217 0.98632 0.0
H805 H 0.84517 0.44302 0.90433 0.0
H806 H 0.867 0.40844 0.88308 0.0
H807 H 0.90433 0.42158 0.86196 0.0
H808 H 0.0166 0.22574 0.13018 0.0
H809 H 0.02557 0.19321 0.0589 0.0
H810 H 0.99693 0.22378 0.87159 0.0
H811 H 0.9876 0.25624 0.94373 0.0
H812 H 0.97868 0.18447 0.8987 0.0
H813 H 0.06886 0.17426 0.90791 0.0
H814 H 0.0573 0.17777 0.99578 0.0
H815 H 0.05557 0.19981 0.93123 0.0
C816 C 0.01329 0.22596 0.07293 0.0
C817 C 1.00195 0.24375 0.04201 0.0
C818 C 0.01831 0.20726 0.03213 0.0
C819 C 0.01214 0.20597 0.95938 0.0
C820 C 1.00203 0.22437 0.92736 0.0
H821 H 1.00128 0.09068 0.67411 0.0
H822 H 1.00221 0.12834 0.72036 0.0
C823 C 0.99698 0.24307 0.96829 0.0
C824 C 0.01344 0.18454 0.92015 0.0
H825 H 0.04791 0.14201 0.87797 0.0
C826 C 0.99391 0.17537 0.89314 0.0
C827 C 0.03323 0.17246 0.91332 0.0
C828 C 0.05496 0.18168 0.93798 0.0
C829 C 0.99346 0.15429 0.862 0.0
C830 C 0.01316 0.14203 0.85646 0.0
C831 C 0.03278 0.15133 0.88224 0.0
C832 C 0.01353 0.11923 0.82666 0.0
C833 C 0.97168 0.14496 0.83801 0.0
C834 C 0.02015 0.10152 0.87013 0.0
C835 C 0.01973 0.07994 0.84377 0.0
C836 C 0.01279 0.0755 0.77295 0.0
C837 C 0.00662 0.09336 0.72897 0.0
C838 C 0.00703 0.11495 0.75548 0.0
H839 H 0.9576 0.15414 0.86121 0.0
H840 H 0.9705 0.14606 0.77858 0.0
H841 H 0.97019 0.12739 0.8536 0.0
H842 H 0.02529 0.10435 0.92512 0.0
H843 H 0.02469 0.06672 0.87934 0.0
H844 H 0.28121 0.01771 0.10263 0.0
H845 H 0.3149 0.02752 0.03769 0.0
H846 H 0.29345 0.98891 0.85664 0.0
H847 H 0.25982 0.97917 0.92162 0.0
H848 H 0.34376 0.99367 0.9993 0.0
H849 H 0.32145 0.04271 0.75825 0.0
H850 H 0.30359 0.04024 0.8354 0.0
H851 H 0.30532 0.01828 0.77119 0.0
C852 C 0.28317 0.01235 0.04749 0.0
C853 C 0.26765 0.99817 0.01636 0.0
C854 C 0.30256 0.0177 0.01071 0.0
C855 C 0.30674 0.00908 0.94195 0.0
C856 C 0.29048 0.99617 0.90885 0.0
H857 H 0.42293 0.99381 0.67111 0.0
H858 H 0.38566 0.99447 0.72096 0.0
C859 C 0.27116 0.99072 0.9458 0.0
C860 C 0.32915 0.01076 0.90982 0.0
H861 H 0.35762 0.02771 0.7611 0.0
C862 C 0.34681 1.00134 0.94756 0.0
C863 C 0.33313 0.0204 0.84173 0.0
C864 C 0.31493 0.03116 0.79937 0.0
C865 C 0.36817 1.00094 0.91881 0.0
C866 C 0.37226 0.01078 0.85097 0.0
C867 C 0.35458 0.02022 0.81311 0.0
C868 C 0.39476 0.01137 0.81884 0.0
C869 C 0.38599 0.98927 0.96057 0.0
C870 C 0.41231 0.02107 0.85624 0.0
C871 C 0.43365 0.02055 0.82823 0.0
C872 C 0.438 0.0106 0.76142 0.0
C873 C 0.42027 1.00157 0.72275 0.0
C874 C 0.3989 1.00196 0.75118 0.0
H875 H 0.37905 0.97725 0.99945 0.0
H876 H 0.3974 0.98044 0.92411 0.0
H877 H 0.39557 1.00154 0.99159 0.0
H878 H 0.40954 0.02896 0.90757 0.0
H879 H 0.44676 0.02794 0.85927 0.0
H880 H 0.55756 0.27845 0.99411 0.0
H881 H 0.54738 0.31121 0.92718 0.0
H882 H 0.47956 0.30158 0.98693 0.0
H883 H 0.49019 0.26932 0.05927 0.0
H884 H 0.52465 0.32328 0.82219 0.0
H885 H 0.48641 0.36167 0.0619 0.0
H886 H 0.50053 0.33571 0.06673 0.0
H887 H 0.47283 0.3371 0.03285 0.0
C888 C 0.54039 0.28313 0.9924 0.0
C889 C 0.52477 0.27151 0.03331 0.0
C890 C 0.53454 0.30195 0.95383 0.0
C891 C 0.51276 0.30958 0.95364 0.0
C892 C 0.49664 0.2967 0.98842 0.0
H893 H 0.49218 0.42817 0.68218 0.0
H894 H 0.49135 0.39022 0.72627 0.0
C895 C 0.50263 0.27794 0.02859 0.0
C896 C 0.50777 0.33153 0.92017 0.0
H897 H 0.487 0.38267 0.95604 0.0
C898 C 0.51634 0.33623 0.85156 0.0
C899 C 0.49719 0.34872 0.95839 0.0
C900 C 0.48889 0.34568 0.03425 0.0
C901 C 0.5155 0.35751 0.82158 0.0
C902 C 0.50462 0.37461 0.85931 0.0
C903 C 0.4953 0.36972 0.9267 0.0
C904 C 0.50386 0.39791 0.83243 0.0
C905 C 0.52746 0.36156 0.75169 0.0
C906 C 0.50998 0.41533 0.87803 0.0
C907 C 0.50965 0.43716 0.85363 0.0
C908 C 0.50357 0.44215 0.78252 0.0
C909 C 0.49725 0.42483 0.73697 0.0
C910 C 0.49698 0.40304 0.76204 0.0
H911 H 0.54039 0.34899 0.74215 0.0
H912 H 0.51562 0.36056 0.70646 0.0
H913 H 0.53533 0.37802 0.75089 0.0
H914 H 0.51534 0.41205 0.93255 0.0
H915 H 0.51467 0.4501 0.89006 0.0
H916 H 0.23271 0.48852 0.10077 0.0
H917 H 0.20053 0.48094 0.02528 0.0
H918 H 0.21645 0.53688 0.89247 0.0
H919 H 0.24851 0.54447 0.96823 0.0
H920 H 0.17505 0.53924 0.95459 0.0
H921 H 0.18609 0.45838 0.82173 0.0
H922 H 0.19194 0.45847 0.91647 0.0
H923 H 0.20888 0.47421 0.85637 0.0
C924 C 0.23 0.49841 0.05307 0.0
C925 C 0.24342 0.51673 0.03919 0.0
C926 C 0.21148 0.49419 0.01019 0.0
C927 C 0.20603 0.50828 0.95281 0.0
C928 C 0.22034 0.52569 0.93604 0.0
H929 H 0.08971 0.50536 0.67278 0.0
H930 H 0.12747 0.50576 0.71899 0.0
C931 C 0.23884 0.52986 0.97875 0.0
C932 C 0.18402 0.50694 0.91751 0.0
H933 H 0.14979 0.47331 0.82146 0.0
C934 C 0.16964 0.52487 0.92498 0.0
C935 C 0.17687 0.48822 0.87883 0.0
C936 C 0.19178 0.46877 0.86716 0.0
C937 C 0.14826 0.52444 0.8963 0.0
C938 C 0.1409 0.50553 0.8593 0.0
C939 C 0.15539 0.48775 0.85024 0.0
C940 C 0.11805 0.50399 0.83089 0.0
C941 C 0.13363 0.54424 0.90583 0.0
C942 C 0.10019 0.50258 0.87834 0.0
C943 C 0.07859 0.50225 0.85221 0.0
C944 C 0.07431 0.50344 0.77784 0.0
C945 C 0.09231 0.50451 0.73033 0.0
C946 C 0.11394 0.50466 0.75661 0.0
H947 H 0.14303 0.55898 0.92307 0.0
H948 H 0.12486 0.54813 0.85499 0.0
H949 H 0.12111 0.54059 0.94752 0.0
H950 H 0.10296 0.50192 0.93586 0.0
H951 H 0.06525 0.5014 0.8906 0.0
H952 H 0.03488 0.7601 0.45695 0.0
H953 H 0.02555 0.79296 0.52692 0.0
H954 H 0.99106 0.81954 0.34369 0.0
H955 H 1.00007 0.78652 0.27459 0.0
H956 H 0.04106 0.83267 0.48988 0.0
H957 H 0.95047 0.8382 0.50338 0.0
H958 H 0.96452 0.81307 0.47997 0.0
H959 H 0.96023 0.83417 0.4134 0.0
C960 C 0.02429 0.77244 0.43313 0.0
C961 C 0.01763 0.77049 0.36111 0.0
C962 C 0.01921 0.79138 0.47274 0.0
C963 C 0.00744 0.80879 0.44103 0.0
C964 C 0.99966 0.80623 0.37029 0.0
H965 H 0.99105 0.94833 0.5176 0.0
H966 H 0.99094 0.91062 0.47199 0.0
C967 C 1.0047 0.78726 0.33079 0.0
C968 C 1.00594 0.83059 0.47789 0.0
H969 H 0.97037 0.87155 0.52652 0.0
C970 C 0.02555 0.84099 0.49883 0.0
C971 C 0.98576 0.84167 0.48907 0.0
C972 C 0.96404 0.83112 0.47091 0.0
C973 C 0.02561 0.86225 0.52857 0.0
C974 C 1.00548 0.87345 0.5388 0.0
C975 C 0.98582 0.863 0.51867 0.0
C976 C 1.00464 0.89622 0.5685 0.0
C977 C 0.04734 0.87288 0.54645 0.0
C978 C 0.01205 0.90073 0.63851 0.0
C979 C 0.01213 0.92233 0.66494 0.0
C980 C 1.00477 0.93996 0.62194 0.0
C981 C 0.99694 0.93528 0.5523 0.0
C982 C 0.9968 0.91367 0.52608 0.0
H983 H 0.06134 0.86424 0.52062 0.0
H984 H 0.04752 0.89037 0.52912 0.0
H985 H 0.04989 0.87239 0.60551 0.0
H986 H 0.01789 0.88753 0.67271 0.0
H987 H 0.01822 0.9252 0.71884 0.0
H988 H 0.73238 0.98502 0.28307 0.0
H989 H 0.69895 0.97662 0.35148 0.0
H990 H 0.71641 0.02593 0.50744 0.0
H991 H 0.74981 0.03437 0.43887 0.0
H992 H 0.69327 0.984 0.56258 0.0
H993 H 0.65195 0.02842 0.3382 0.0
H994 H 0.66997 1.00621 0.31376 0.0
H995 H 0.68112 0.03051 0.3544 0.0
C996 C 0.72968 0.99319 0.33403 0.0
C997 C 0.74393 0.01 0.35655 0.0
C998 C 0.71042 0.98861 0.37257 0.0
C999 C 0.70505 1.00083 0.43416 0.0
C1000 C 0.72024 0.01625 0.46027 0.0
H1001 H 0.58804 0.01761 0.70181 0.0
H1002 H 0.62559 0.01616 0.65537 0.0
C1003 C 0.73946 0.02089 0.42154 0.0
C1004 C 0.6825 0.99976 0.46516 0.0
H1005 H 0.62938 0.01456 0.43005 0.0
C1006 C 0.67926 0.99061 0.53369 0.0
C1007 C 0.66425 0.00848 0.4275 0.0
C1008 C 0.66686 0.01912 0.35459 0.0
C1009 C 0.65817 0.98961 0.56499 0.0
C1010 C 0.63989 0.99854 0.52753 0.0
C1011 C 0.64326 0.00767 0.45893 0.0
C1012 C 0.61712 0.99869 0.55788 0.0
C1013 C 0.65564 0.97851 0.63711 0.0
C1014 C 0.59957 0.9899 0.51807 0.0
C1015 C 0.57799 0.99101 0.54399 0.0
C1016 C 0.57334 1.00094 0.6106 0.0
C1017 C 0.59095 0.00964 0.65066 0.0
C1018 C 0.61254 0.00867 0.62436 0.0
H1019 H 0.66933 0.96689 0.6479 0.0
H1020 H 0.65583 0.99117 0.67997 0.0
H1021 H 0.63988 0.96938 0.64053 0.0
H1022 H 0.60256 0.9822 0.4665 0.0
H1023 H 0.56494 0.98409 0.51154 0.0
H1024 H 0.51158 0.72886 0.27557 0.0
H1025 H 0.51989 0.69608 0.34745 0.0
H1026 H 0.48873 0.72587 0.53123 0.0
H1027 H 0.47991 0.75846 0.45841 0.0
H1028 H 0.54096 0.68485 0.47314 0.0
H1029 H 0.45106 0.67183 0.50031 0.0
H1030 H 0.4625 0.69246 0.44152 0.0
H1031 H 0.46067 0.6974 0.53666 0.0
C1032 C 0.50734 0.72875 0.33215 0.0
C1033 C 0.49545 0.74634 0.36183 0.0
C1034 C 0.51188 0.70991 0.37308 0.0
C1035 C 0.50446 0.70819 0.44441 0.0
C1036 C 0.4942 0.72654 0.47589 0.0
H1037 H 0.49568 0.59226 0.72645 0.0
H1038 H 0.49604 0.62997 0.67976 0.0
C1039 C 0.48953 0.74536 0.43474 0.0
C1040 C 0.50578 0.68661 0.48297 0.0
H1041 H 0.47407 0.6459 0.55679 0.0
C1042 C 0.52634 0.6764 0.49173 0.0
C1043 C 0.48669 0.67538 0.50684 0.0
C1044 C 0.46396 0.68468 0.49538 0.0
C1045 C 0.52831 0.65546 0.52376 0.0
C1046 C 0.50921 0.6442 0.54699 0.0
C1047 C 0.48872 0.65454 0.53935 0.0
C1048 C 0.50996 0.62136 0.57662 0.0
C1049 C 0.55087 0.64558 0.53281 0.0
C1050 C 0.51746 0.60383 0.53411 0.0
C1051 C 0.51718 0.58222 0.56048 0.0
C1052 C 0.50936 0.57753 0.63015 0.0
C1053 C 0.50192 0.59516 0.67275 0.0
C1054 C 0.5021 0.61678 0.6461 0.0
H1055 H 0.56391 0.65835 0.53085 0.0
H1056 H 0.5522 0.63653 0.58454 0.0
H1057 H 0.55393 0.63379 0.48849 0.0
H1058 H 0.52317 0.60681 0.47982 0.0
H1059 H 0.52299 0.56916 0.52584 0.0
H1060 H 0.76301 0.47096 0.4628 0.0
H1061 H 0.79678 0.47919 0.52896 0.0
H1062 H 0.81042 0.53261 0.38296 0.0
H1063 H 0.77644 0.52437 0.3167 0.0
H1064 H 0.83714 0.47567 0.45458 0.0
H1065 H 0.82849 0.55763 0.58321 0.0
H1066 H 0.80508 0.54111 0.55761 0.0
H1067 H 0.82023 0.55594 0.49047 0.0
C1068 C 0.77268 0.48512 0.44698 0.0
C1069 C 0.7669 0.4973 0.38548 0.0
C1070 C 0.79211 0.48967 0.48433 0.0
C1071 C 0.80619 0.50653 0.46115 0.0
C1072 C 0.79968 0.51975 0.40268 0.0
H1073 H 0.94802 0.5125 0.51374 0.0
H1074 H 0.91023 0.51276 0.46903 0.0
C1075 C 0.78017 0.51516 0.3651 0.0
C1076 C 0.82881 0.50812 0.49173 0.0
H1077 H 0.86412 0.54162 0.58394 0.0
C1078 C 0.84298 0.49008 0.48305 0.0
C1079 C 0.83646 0.52689 0.52897 0.0
C1080 C 0.82179 0.54648 0.54132 0.0
C1081 C 0.86458 0.49037 0.50981 0.0
C1082 C 0.87237 0.50922 0.54615 0.0
C1083 C 0.85816 0.52721 0.55576 0.0
C1084 C 0.89528 0.51036 0.57412 0.0
C1085 C 0.87896 0.47041 0.49949 0.0
C1086 C 0.89947 0.50917 0.64827 0.0
C1087 C 0.92113 0.50885 0.67421 0.0
C1088 C 0.93908 0.50994 0.62649 0.0
C1089 C 0.93471 0.51161 0.55226 0.0
C1090 C 0.91308 0.51176 0.52645 0.0
H1091 H 0.8694 0.45585 0.48156 0.0
H1092 H 0.89158 0.47407 0.45812 0.0
H1093 H 0.88763 0.46622 0.55025 0.0
H1094 H 0.88598 0.50804 0.68602 0.0
H1095 H 0.92379 0.50763 0.73166 0.0
loop_
_geom_bond_atom_site_label_1
_geom_bond_atom_site_label_2
_geom_bond_distance
_geom_bond_site_symmetry_2
_ccdc_geom_bond_type
H0 C3 0.931 . S
H1 C6 0.928 . S
H2 C8 0.930 . S
C3 H0 0.931 . S
C3 C4 1.413 . S
C3 C5 1.360 . S
C4 C3 1.413 . S
C4 C8 1.429 . S
C5 C3 1.360 . S
C5 C6 1.372 . S
C6 H1 0.928 . S
C6 C5 1.372 . S
C6 C7 1.404 . S
C7 C6 1.404 . S
C7 C8 1.391 . S
C8 H2 0.930 . S
C8 C4 1.429 . S
C8 C7 1.391 . S
H9 C12 0.931 . S
H10 C15 0.928 . S
H11 C17 0.930 . S
C12 H9 0.931 . S
C12 C13 1.413 . S
C12 C14 1.360 . S
C13 C12 1.413 . S
C13 C17 1.429 1_655 S
C14 C12 1.360 . S
C14 C15 1.372 . S
C15 H10 0.928 . S
C15 C14 1.372 . S
C15 C16 1.404 . S
C16 C15 1.404 . S
C16 C17 1.390 1_655 S
C17 H11 0.930 . S
C17 C13 1.429 1_455 S
C17 C16 1.390 1_455 S
H18 C21 0.931 . S
H19 C24 0.928 . S
H20 C26 0.930 . S
C21 H18 0.931 . S
C21 C22 1.413 . S
C21 C23 1.360 . S
C22 C21 1.413 . S
C22 C26 1.429 1_565 S
C23 C21 1.360 . S
C23 C24 1.372 . S
C24 H19 0.928 . S
C24 C23 1.372 . S
C24 C25 1.404 . S
C25 C24 1.404 . S
C25 C26 1.390 1_565 S
C26 H20 0.930 . S
C26 C22 1.429 1_545 S
C26 C25 1.390 1_545 S
H27 C30 0.931 . S
H28 C33 0.928 . S
H29 C35 0.930 . S
C30 H27 0.931 . S
C30 C31 1.413 . S
C30 C32 1.360 . S
C31 C30 1.413 . S
C31 C35 1.429 . S
C32 C30 1.360 . S
C32 C33 1.372 . S
C33 H28 0.928 . S
C33 C32 1.372 . S
C33 C34 1.404 . S
C34 C33 1.404 . S
C34 C35 1.391 . S
C35 H29 0.930 . S
C35 C31 1.429 . S
C35 C34 1.391 . S
H36 C39 0.931 . S
H37 C42 0.928 . S
H38 C44 0.930 . S
C39 H36 0.931 . S
C39 C40 1.413 1_554 S
C39 C41 1.360 . S
C40 C39 1.413 1_556 S
C40 C44 1.429 . S
C41 C39 1.360 . S
C41 C42 1.372 . S
C42 H37 0.928 . S
C42 C41 1.372 . S
C42 C43 1.404 . S
C43 C42 1.404 . S
C43 C44 1.391 1_554 S
C44 H38 0.930 . S
C44 C40 1.429 . S
C44 C43 1.391 1_556 S
H45 C48 0.931 . S
H46 C51 0.928 . S
H47 C53 0.930 . S
C48 H45 0.931 . S
C48 C49 1.413 1_554 S
C48 C50 1.360 . S
C49 C48 1.413 1_556 S
C49 C53 1.429 1_655 S
C50 C48 1.360 . S
C50 C51 1.372 . S
C51 H46 0.928 . S
C51 C50 1.372 . S
C51 C52 1.404 . S
C52 C51 1.404 . S
C52 C53 1.391 1_654 S
C53 H47 0.930 . S
C53 C49 1.429 1_455 S
C53 C52 1.391 1_456 S
H54 C57 0.931 . S
H55 C60 0.928 . S
H56 C62 0.930 . S
C57 H54 0.931 . S
C57 C58 1.413 1_554 S
C57 C59 1.360 . S
C58 C57 1.413 1_556 S
C58 C62 1.429 1_565 S
C59 C57 1.360 . S
C59 C60 1.372 . S
C60 H55 0.928 . S
C60 C59 1.372 . S
C60 C61 1.404 . S
C61 C60 1.404 . S
C61 C62 1.391 1_564 S
C62 H56 0.930 . S
C62 C58 1.429 1_545 S
C62 C61 1.391 1_546 S
H63 C66 0.931 . S
H64 C69 0.928 . S
H65 C71 0.930 . S
C66 H63 0.931 . S
C66 C67 1.413 . S
C66 C68 1.360 1_554 S
C67 C66 1.413 . S
C67 C71 1.429 . S
C68 C66 1.360 1_556 S
C68 C69 1.372 . S
C69 H64 0.928 . S
C69 C68 1.372 . S
C69 C70 1.404 1_556 S
C70 C69 1.404 1_554 S
C70 C71 1.391 . S
C71 H65 0.930 . S
C71 C67 1.429 . S
C71 C70 1.391 . S
Sm72 C74 2.846 . S
Sm72 O92 2.543 . S
Sm72 O93 2.450 . S
Sm72 O94 2.681 1_565 S
Sm72 O95 2.464 . S
Sm72 O96 2.396 . S
Sm72 O100 2.386 1_455 S
Sm72 O103 2.408 1_565 S
Sm73 C83 2.846 . S
Sm73 O94 2.386 1_655 S
Sm73 O97 2.408 1_545 S
Sm73 O98 2.543 . S
Sm73 O99 2.450 . S
Sm73 O100 2.681 1_545 S
Sm73 O101 2.464 . S
Sm73 O102 2.396 . S
C74 Sm72 2.846 . S
C74 C75 1.506 . S
C74 O92 1.261 . S
C74 O93 1.242 . S
C75 C74 1.506 . S
C75 C76 1.358 . S
C75 C80 1.382 . S
C76 C75 1.358 . S
C76 C77 1.385 . S
C76 H104 0.930 1_455 S
C77 C76 1.385 . S
C77 C78 1.395 . S
C77 H105 0.929 1_455 S
C78 C77 1.395 . S
C78 C79 1.335 . S
C79 C78 1.335 . S
C79 C80 1.398 . S
C79 H106 0.930 . S
C80 C75 1.382 . S
C80 C79 1.398 . S
C80 H107 0.929 . S
C81 O94 1.271 1_565 S
C81 O95 1.251 . S
C82 O96 1.252 1_655 S
C82 O97 1.272 . S
C83 Sm73 2.846 . S
C83 C84 1.506 . S
C83 O98 1.261 . S
C83 O99 1.242 . S
C84 C83 1.506 . S
C84 C85 1.358 . S
C84 C89 1.382 . S
C85 C84 1.358 . S
C85 C86 1.385 . S
C85 H108 0.930 1_655 S
C86 C85 1.385 . S
C86 C87 1.395 . S
C86 H109 0.929 1_655 S
C87 C86 1.395 . S
C87 C88 1.335 . S
C88 C87 1.335 . S
C88 C89 1.398 . S
C88 H110 0.930 . S
C89 C84 1.382 . S
C89 C88 1.398 . S
C89 H111 0.929 . S
C90 O100 1.271 1_545 S
C90 O101 1.251 . S
C91 O102 1.252 1_455 S
C91 O103 1.272 . S
O92 Sm72 2.543 . S
O92 C74 1.261 . S
O93 Sm72 2.450 . S
O93 C74 1.242 . S
O94 Sm72 2.681 1_545 S
O94 Sm73 2.386 1_455 S
O94 C81 1.271 1_545 S
O95 Sm72 2.464 . S
O95 C81 1.251 . S
O96 Sm72 2.396 . S
O96 C82 1.252 1_455 S
O97 Sm73 2.408 1_565 S
O97 C82 1.272 . S
O98 Sm73 2.543 . S
O98 C83 1.261 . S
O99 Sm73 2.450 . S
O99 C83 1.242 . S
O100 Sm72 2.386 1_655 S
O100 Sm73 2.681 1_565 S
O100 C90 1.271 1_565 S
O101 Sm73 2.464 . S
O101 C90 1.251 . S
O102 Sm73 2.396 . S
O102 C91 1.252 1_655 S
O103 Sm72 2.408 1_545 S
O103 C91 1.272 . S
H104 C76 0.930 1_655 S
H105 C77 0.929 1_655 S
H106 C79 0.930 . S
H107 C80 0.929 . S
H108 C85 0.930 1_455 S
H109 C86 0.929 1_455 S
H110 C88 0.930 . S
H111 C89 0.929 . S
Sm112 C114 2.846 . S
Sm112 O132 2.543 . S
Sm112 O133 2.450 . S
Sm112 O134 2.681 . S
Sm112 O135 2.464 . S
Sm112 O136 2.396 . S
Sm112 O140 2.386 1_545 S
Sm112 O143 2.408 . S
Sm113 C123 2.846 . S
Sm113 O134 2.386 1_565 S
Sm113 O137 2.408 . S
Sm113 O138 2.543 . S
Sm113 O139 2.450 . S
Sm113 O140 2.681 . S
Sm113 O141 2.464 . S
Sm113 O142 2.396 . S
C114 Sm112 2.846 . S
C114 C115 1.506 . S
C114 O132 1.261 . S
C114 O133 1.242 . S
C115 C114 1.506 . S
C115 C116 1.358 . S
C115 C120 1.382 . S
C116 C115 1.358 . S
C116 C117 1.385 . S
C116 H144 0.930 1_545 S
C117 C116 1.385 . S
C117 C118 1.395 . S
C117 H145 0.929 1_545 S
C118 C117 1.395 . S
C118 C119 1.335 . S
C119 C118 1.335 . S
C119 C120 1.398 . S
C119 H146 0.930 . S
C120 C115 1.382 . S
C120 C119 1.398 . S
C120 H147 0.929 . S
C121 O134 1.271 . S
C121 O135 1.251 . S
C122 O136 1.252 1_565 S
C122 O137 1.272 . S
C123 Sm113 2.846 . S
C123 C124 1.506 . S
C123 O138 1.261 . S
C123 O139 1.242 . S
C124 C123 1.506 . S
C124 C125 1.358 . S
C124 C129 1.382 . S
C125 C124 1.358 . S
C125 C126 1.385 . S
C125 H148 0.930 1_565 S
C126 C125 1.385 . S
C126 C127 1.395 . S
C126 H149 0.929 1_565 S
C127 C126 1.395 . S
C127 C128 1.335 . S
C128 C127 1.335 . S
C128 C129 1.398 . S
C128 H150 0.930 . S
C129 C124 1.382 . S
C129 C128 1.398 . S
C129 H151 0.929 . S
C130 O140 1.271 . S
C130 O141 1.251 . S
C131 O142 1.252 1_545 S
C131 O143 1.272 . S
O132 Sm112 2.543 . S
O132 C114 1.261 . S
O133 Sm112 2.450 . S
O133 C114 1.242 . S
O134 Sm112 2.681 . S
O134 Sm113 2.386 1_545 S
O134 C121 1.271 . S
O135 Sm112 2.464 . S
O135 C121 1.251 . S
O136 Sm112 2.396 . S
O136 C122 1.252 1_545 S
O137 Sm113 2.408 . S
O137 C122 1.272 . S
O138 Sm113 2.543 . S
O138 C123 1.261 . S
O139 Sm113 2.450 . S
O139 C123 1.242 . S
O140 Sm112 2.386 1_565 S
O140 Sm113 2.681 . S
O140 C130 1.271 . S
O141 Sm113 2.464 . S
O141 C130 1.251 . S
O142 Sm113 2.396 . S
O142 C131 1.252 1_565 S
O143 Sm112 2.408 . S
O143 C131 1.272 . S
H144 C116 0.930 1_565 S
H145 C117 0.929 1_565 S
H146 C119 0.930 . S
H147 C120 0.929 . S
H148 C125 0.930 1_545 S
H149 C126 0.929 1_545 S
H150 C128 0.930 . S
H151 C129 0.929 . S
Sm152 C154 2.846 . S
Sm152 O172 2.543 . S
Sm152 O173 2.450 . S
Sm152 O174 2.681 . S
Sm152 O175 2.464 . S
Sm152 O176 2.396 . S
Sm152 O180 2.386 . S
Sm152 O183 2.408 . S
Sm153 C163 2.846 . S
Sm153 O174 2.386 . S
Sm153 O177 2.408 . S
Sm153 O178 2.543 . S
Sm153 O179 2.450 . S
Sm153 O180 2.681 . S
Sm153 O181 2.464 . S
Sm153 O182 2.396 . S
C154 Sm152 2.846 . S
C154 C155 1.506 . S
C154 O172 1.261 . S
C154 O173 1.242 . S
C155 C154 1.506 . S
C155 C156 1.358 . S
C155 C160 1.382 . S
C156 C155 1.358 . S
C156 C157 1.385 . S
C156 H184 0.930 . S
C157 C156 1.385 . S
C157 C158 1.395 . S
C157 H185 0.929 . S
C158 C157 1.395 . S
C158 C159 1.335 . S
C159 C158 1.335 . S
C159 C160 1.398 . S
C159 H186 0.930 . S
C160 C155 1.382 . S
C160 C159 1.398 . S
C160 H187 0.929 . S
C161 O174 1.271 . S
C161 O175 1.251 . S
C162 O176 1.252 . S
C162 O177 1.272 . S
C163 Sm153 2.846 . S
C163 C164 1.506 . S
C163 O178 1.261 . S
C163 O179 1.242 . S
C164 C163 1.506 . S
C164 C165 1.358 . S
C164 C169 1.382 . S
C165 C164 1.358 . S
C165 C166 1.385 . S
C165 H188 0.930 . S
C166 C165 1.385 . S
C166 C167 1.395 . S
C166 H189 0.929 . S
C167 C166 1.395 . S
C167 C168 1.335 . S
C168 C167 1.335 . S
C168 C169 1.398 . S
C168 H190 0.930 . S
C169 C164 1.382 . S
C169 C168 1.398 . S
C169 H191 0.929 . S
C170 O180 1.271 . S
C170 O181 1.251 . S
C171 O182 1.252 . S
C171 O183 1.272 . S
O172 Sm152 2.543 . S
O172 C154 1.261 . S
O173 Sm152 2.450 . S
O173 C154 1.242 . S
O174 Sm152 2.681 . S
O174 Sm153 2.386 . S
O174 C161 1.271 . S
O175 Sm152 2.464 . S
O175 C161 1.251 . S
O176 Sm152 2.396 . S
O176 C162 1.252 . S
O177 Sm153 2.408 . S
O177 C162 1.272 . S
O178 Sm153 2.543 . S
O178 C163 1.261 . S
O179 Sm153 2.450 . S
O179 C163 1.242 . S
O180 Sm152 2.386 . S
O180 Sm153 2.681 . S
O180 C170 1.271 . S
O181 Sm153 2.464 . S
O181 C170 1.251 . S
O182 Sm153 2.396 . S
O182 C171 1.252 . S
O183 Sm152 2.408 . S
O183 C171 1.272 . S
H184 C156 0.930 . S
H185 C157 0.929 . S
H186 C159 0.930 . S
H187 C160 0.929 . S
H188 C165 0.930 . S
H189 C166 0.929 . S
H190 C168 0.930 . S
H191 C169 0.929 . S
Sm192 C194 2.846 . S
Sm192 O212 2.543 . S
Sm192 O213 2.450 . S
Sm192 O214 2.681 1_655 S
Sm192 O215 2.464 . S
Sm192 O216 2.396 . S
Sm192 O220 2.386 . S
Sm192 O223 2.408 1_655 S
Sm193 C203 2.846 . S
Sm193 O214 2.386 . S
Sm193 O217 2.408 1_455 S
Sm193 O218 2.543 . S
Sm193 O219 2.450 . S
Sm193 O220 2.681 1_455 S
Sm193 O221 2.464 . S
Sm193 O222 2.396 . S
C194 Sm192 2.846 . S
C194 C195 1.506 . S
C194 O212 1.261 . S
C194 O213 1.242 . S
C195 C194 1.506 . S
C195 C196 1.358 . S
C195 C200 1.382 . S
C196 C195 1.358 . S
C196 C197 1.385 . S
C196 H224 0.930 . S
C197 C196 1.385 . S
C197 C198 1.395 . S
C197 H225 0.929 . S
C198 C197 1.395 . S
C198 C199 1.335 . S
C199 C198 1.335 . S
C199 C200 1.398 . S
C199 H226 0.930 . S
C200 C195 1.382 . S
C200 C199 1.398 . S
C200 H227 0.929 . S
C201 O214 1.260 1_655 S
C201 O215 1.270 . S
C202 O216 1.252 . S
C202 O217 1.272 . S
C203 Sm193 2.846 . S
C203 C204 1.506 . S
C203 O218 1.261 . S
C203 O219 1.242 . S
C204 C203 1.506 . S
C204 C205 1.358 . S
C204 C209 1.382 . S
C205 C204 1.358 . S
C205 C206 1.385 . S
C205 H228 0.930 . S
C206 C205 1.385 . S
C206 C207 1.395 . S
C206 H229 0.929 . S
C207 C206 1.395 . S
C207 C208 1.335 . S
C208 C207 1.335 . S
C208 C209 1.398 . S
C208 H230 0.930 . S
C209 C204 1.382 . S
C209 C208 1.398 . S
C209 H231 0.929 . S
C210 O220 1.257 1_455 S
C210 O221 1.277 . S
C211 O222 1.252 . S
C211 O223 1.272 . S
O212 Sm192 2.543 . S
O212 C194 1.261 . S
O213 Sm192 2.450 . S
O213 C194 1.242 . S
O214 Sm192 2.681 1_455 S
O214 Sm193 2.386 . S
O214 C201 1.260 1_455 S
O215 Sm192 2.464 . S
O215 C201 1.270 . S
O216 Sm192 2.396 . S
O216 C202 1.252 . S
O217 Sm193 2.408 1_655 S
O217 C202 1.272 . S
O218 Sm193 2.543 . S
O218 C203 1.261 . S
O219 Sm193 2.450 . S
O219 C203 1.242 . S
O220 Sm192 2.386 . S
O220 Sm193 2.681 1_655 S
O220 C210 1.257 1_655 S
O221 Sm193 2.464 . S
O221 C210 1.277 . S
O222 Sm193 2.396 . S
O222 C211 1.252 . S
O223 Sm192 2.408 1_455 S
O223 C211 1.272 . S
H224 C196 0.930 . S
H225 C197 0.929 . S
H226 C199 0.930 . S
H227 C200 0.929 . S
H228 C205 0.930 . S
H229 C206 0.929 . S
H230 C208 0.930 . S
H231 C209 0.929 . S
H232 C240 0.929 . S
H233 C242 0.930 . S
H234 C244 0.930 . S
H235 C247 0.929 . S
H236 C250 0.930 . S
H237 C252 0.960 . S
H238 C252 0.960 . S
H239 C252 0.960 1_565 S
C240 H232 0.929 . S
C240 C241 1.395 . S
C240 C242 1.384 . S
C241 C240 1.395 . S
C241 C247 1.373 1_545 S
C242 H233 0.930 . S
C242 C240 1.384 . S
C242 C243 1.372 . S
C243 C242 1.372 . S
C243 C244 1.400 1_545 S
C243 C248 1.490 . S
C244 H234 0.930 . S
C244 C243 1.400 1_565 S
C244 C247 1.386 . S
H245 C261 0.930 . S
H246 C262 0.931 . S
C247 H235 0.929 . S
C247 C241 1.373 1_565 S
C247 C244 1.386 . S
C248 C243 1.490 . S
C248 C250 1.395 1_545 S
C248 C251 1.403 . S
H249 C255 0.930 . S
C250 H236 0.930 . S
C250 C248 1.395 1_565 S
C250 C253 1.403 . S
C251 C248 1.403 . S
C251 C252 1.524 . S
C251 C255 1.400 . S
C252 H237 0.960 . S
C252 H238 0.960 . S
C252 H239 0.960 1_545 S
C252 C251 1.524 . S
C253 C250 1.403 . S
C253 C254 1.387 1_565 S
C253 C257 1.495 . S
C254 C253 1.387 1_545 S
C254 C255 1.392 . S
C254 C256 1.477 . S
C255 H249 0.930 . S
C255 C251 1.400 . S
C255 C254 1.392 . S
C256 C254 1.477 . S
C256 C258 1.389 . S
C256 C262 1.375 1_545 S
C257 C253 1.495 . S
C257 H263 0.959 . S
C257 H264 0.961 . S
C257 H265 0.960 1_565 S
C258 C256 1.389 . S
C258 C259 1.394 . S
C258 H266 0.930 . S
C259 C258 1.394 . S
C259 C260 1.415 . S
C259 H267 0.929 . S
C260 C259 1.415 . S
C260 C261 1.345 1_545 S
C261 H245 0.930 . S
C261 C260 1.345 1_565 S
C261 C262 1.379 . S
C262 H246 0.931 . S
C262 C256 1.375 1_565 S
C262 C261 1.379 . S
H263 C257 0.959 . S
H264 C257 0.961 . S
H265 C257 0.960 1_545 S
H266 C258 0.930 . S
H267 C259 0.929 . S
H268 C276 0.929 . S
H269 C278 0.930 . S
H270 C280 0.930 . S
H271 C283 0.929 . S
H272 C286 0.930 . S
H273 C288 0.960 . S
H274 C288 0.960 . S
H275 C288 0.960 . S
C276 H268 0.929 . S
C276 C277 1.377 . S
C276 C278 1.384 . S
C277 C276 1.377 . S
C277 C283 1.390 . S
C278 H269 0.930 . S
C278 C276 1.384 . S
C278 C279 1.372 . S
C279 C278 1.372 . S
C279 C280 1.400 . S
C279 C284 1.490 . S
C280 H270 0.930 . S
C280 C279 1.400 . S
C280 C283 1.386 . S
H281 C297 0.930 . S
H282 C298 0.931 . S
C283 H271 0.929 . S
C283 C277 1.390 . S
C283 C280 1.386 . S
C284 C279 1.490 . S
C284 C286 1.395 . S
C284 C287 1.403 . S
H285 C291 0.930 . S
C286 H272 0.930 . S
C286 C284 1.395 . S
C286 C289 1.403 . S
C287 C284 1.403 . S
C287 C288 1.524 . S
C287 C291 1.400 . S
C288 H273 0.960 . S
C288 H274 0.960 . S
C288 H275 0.960 . S
C288 C287 1.524 . S
C289 C286 1.403 . S
C289 C290 1.392 . S
C289 C293 1.495 . S
C290 C289 1.392 . S
C290 C291 1.385 . S
C290 C292 1.478 . S
C291 H285 0.930 . S
C291 C287 1.400 . S
C291 C290 1.385 . S
C292 C290 1.478 . S
C292 C294 1.381 . S
C292 C298 1.383 . S
C293 C289 1.495 . S
C293 H299 0.959 . S
C293 H300 0.961 . S
C293 H301 0.960 . S
C294 C292 1.381 . S
C294 C295 1.394 . S
C294 H302 0.930 . S
C295 C294 1.394 . S
C295 C296 1.383 . S
C295 H303 0.929 . S
C296 C295 1.383 . S
C296 C297 1.377 . S
C297 H281 0.930 . S
C297 C296 1.377 . S
C297 C298 1.379 . S
C298 H282 0.931 . S
C298 C292 1.383 . S
C298 C297 1.379 . S
H299 C293 0.959 . S
H300 C293 0.961 . S
H301 C293 0.960 . S
H302 C294 0.930 . S
H303 C295 0.929 . S
H304 C312 0.929 . S
H305 C314 0.930 . S
H306 C316 0.930 . S
H307 C319 0.929 . S
H308 C322 0.930 . S
H309 C324 0.960 . S
H310 C324 0.960 . S
H311 C324 0.960 . S
C312 H304 0.929 . S
C312 C313 1.377 . S
C312 C314 1.384 . S
C313 C312 1.377 . S
C313 C319 1.390 . S
C314 H305 0.930 . S
C314 C312 1.384 . S
C314 C315 1.372 . S
C315 C314 1.372 . S
C315 C316 1.400 . S
C315 C320 1.490 . S
C316 H306 0.930 . S
C316 C315 1.400 . S
C316 C319 1.386 . S
H317 C333 0.930 . S
H318 C334 0.931 . S
C319 H307 0.929 . S
C319 C313 1.390 . S
C319 C316 1.386 . S
C320 C315 1.490 . S
C320 C322 1.395 . S
C320 C323 1.403 . S
H321 C327 0.930 . S
C322 H308 0.930 . S
C322 C320 1.395 . S
C322 C325 1.403 . S
C323 C320 1.403 . S
C323 C324 1.524 . S
C323 C327 1.400 . S
C324 H309 0.960 . S
C324 H310 0.960 . S
C324 H311 0.960 . S
C324 C323 1.524 . S
C325 C322 1.403 . S
C325 C326 1.392 . S
C325 C329 1.495 . S
C326 C325 1.392 . S
C326 C327 1.385 . S
C326 C328 1.478 . S
C327 H321 0.930 . S
C327 C323 1.400 . S
C327 C326 1.385 . S
C328 C326 1.478 . S
C328 C330 1.381 . S
C328 C334 1.383 . S
C329 C325 1.495 . S
C329 H335 0.959 . S
C329 H336 0.961 . S
C329 H337 0.960 . S
C330 C328 1.381 . S
C330 C331 1.394 . S
C330 H338 0.930 . S
C331 C330 1.394 . S
C331 C332 1.383 . S
C331 H339 0.929 . S
C332 C331 1.383 . S
C332 C333 1.377 . S
C333 H317 0.930 . S
C333 C332 1.377 . S
C333 C334 1.379 . S
C334 H318 0.931 . S
C334 C328 1.383 . S
C334 C333 1.379 . S
H335 C329 0.959 . S
H336 C329 0.961 . S
H337 C329 0.960 . S
H338 C330 0.930 . S
H339 C331 0.929 . S
H340 C348 0.929 . S
H341 C350 0.930 . S
H342 C352 0.930 . S
H343 C355 0.929 . S
H344 C358 0.930 . S
H345 C360 0.960 . S
H346 C360 0.960 . S
H347 C360 0.960 . S
C348 H340 0.929 . S
C348 C349 1.378 . S
C348 C350 1.384 . S
C349 C348 1.378 . S
C349 C355 1.389 1_655 S
C350 H341 0.930 . S
C350 C348 1.384 . S
C350 C351 1.382 . S
C351 C350 1.382 . S
C351 C352 1.390 1_655 S
C351 C356 1.490 1_655 S
C352 H342 0.930 . S
C352 C351 1.390 1_455 S
C352 C355 1.386 . S
H353 C369 0.930 . S
H354 C370 0.931 . S
C355 H343 0.929 . S
C355 C349 1.389 1_455 S
C355 C352 1.386 . S
C356 C351 1.490 1_455 S
C356 C358 1.394 . S
C356 C359 1.403 1_455 S
H357 C363 0.930 . S
C358 H344 0.930 . S
C358 C356 1.394 . S
C358 C361 1.403 . S
C359 C356 1.403 1_655 S
C359 C360 1.524 . S
C359 C363 1.400 . S
C360 H345 0.960 . S
C360 H346 0.960 . S
C360 H347 0.960 . S
C360 C359 1.524 . S
C361 C358 1.403 . S
C361 C362 1.392 . S
C361 C365 1.495 . S
C362 C361 1.392 . S
C362 C363 1.385 1_455 S
C362 C364 1.478 . S
C363 H357 0.930 . S
C363 C359 1.400 . S
C363 C362 1.385 1_655 S
C364 C362 1.478 . S
C364 C366 1.381 1_455 S
C364 C370 1.383 . S
C365 C361 1.495 . S
C365 H371 0.959 . S
C365 H372 0.961 . S
C365 H373 0.960 . S
C366 C364 1.381 1_655 S
C366 C367 1.394 . S
C366 H374 0.930 . S
C367 C366 1.394 . S
C367 C368 1.383 1_655 S
C367 H375 0.929 . S
C368 C367 1.383 1_455 S
C368 C369 1.377 . S
C369 H353 0.930 . S
C369 C368 1.377 . S
C369 C370 1.379 . S
C370 H354 0.931 . S
C370 C364 1.383 . S
C370 C369 1.379 . S
H371 C365 0.959 . S
H372 C365 0.961 . S
H373 C365 0.960 . S
H374 C366 0.930 . S
H375 C367 0.929 . S
H376 C384 0.929 . S
H377 C386 0.930 . S
H378 C388 0.930 . S
H379 C391 0.929 . S
H380 C394 0.930 . S
H381 C396 0.960 . S
H382 C396 0.960 . S
H383 C396 0.960 . S
C384 H376 0.929 . S
C384 C385 1.380 . S
C384 C386 1.384 . S
C385 C384 1.380 . S
C385 C391 1.388 1_565 S
C386 H377 0.930 . S
C386 C384 1.384 . S
C386 C387 1.378 . S
C387 C386 1.378 . S
C387 C388 1.395 1_565 S
C387 C392 1.490 . S
C388 H378 0.930 . S
C388 C387 1.395 1_545 S
C388 C391 1.386 . S
H389 C405 0.930 . S
H390 C406 0.931 . S
C391 H379 0.929 . S
C391 C385 1.388 1_545 S
C391 C388 1.386 . S
C392 C387 1.490 . S
C392 C394 1.390 1_565 S
C392 C395 1.407 . S
H393 C399 0.930 . S
C394 H380 0.930 . S
C394 C392 1.390 1_545 S
C394 C397 1.403 1_554 S
C395 C392 1.407 . S
C395 C396 1.524 . S
C395 C399 1.400 . S
C396 H381 0.960 . S
C396 H382 0.960 . S
C396 H383 0.960 . S
C396 C395 1.524 . S
C397 C394 1.403 1_556 S
C397 C398 1.392 . S
C397 C401 1.495 . S
C398 C397 1.392 . S
C398 C399 1.385 1_546 S
C398 C400 1.478 . S
C399 H393 0.930 . S
C399 C395 1.400 . S
C399 C398 1.385 1_564 S
C400 C398 1.478 . S
C400 C402 1.381 1_545 S
C400 C406 1.383 . S
C401 C397 1.495 . S
C401 H407 0.959 . S
C401 H408 0.961 . S
C401 H409 0.960 . S
C402 C400 1.381 1_565 S
C402 C403 1.394 . S
C402 H410 0.930 . S
C403 C402 1.394 . S
C403 C404 1.381 1_565 S
C403 H411 0.929 . S
C404 C403 1.381 1_545 S
C404 C405 1.380 . S
C405 H389 0.930 . S
C405 C404 1.380 . S
C405 C406 1.379 . S
C406 H390 0.931 . S
C406 C400 1.383 . S
C406 C405 1.379 . S
H407 C401 0.959 . S
H408 C401 0.961 . S
H409 C401 0.960 . S
H410 C402 0.930 . S
H411 C403 0.929 . S
H412 C420 0.929 . S
H413 C422 0.930 . S
H414 C424 0.930 . S
H415 C427 0.929 . S
H416 C430 0.930 . S
H417 C432 0.960 . S
H418 C432 0.960 . S
H419 C432 0.960 . S
C420 H412 0.929 . S
C420 C421 1.377 . S
C420 C422 1.384 . S
C421 C420 1.377 . S
C421 C427 1.390 . S
C422 H413 0.930 . S
C422 C420 1.384 . S
C422 C423 1.372 . S
C423 C422 1.372 . S
C423 C424 1.400 . S
C423 C428 1.490 . S
C424 H414 0.930 . S
C424 C423 1.400 . S
C424 C427 1.386 . S
H425 C441 0.930 . S
H426 C442 0.931 . S
C427 H415 0.929 . S
C427 C421 1.390 . S
C427 C424 1.386 . S
C428 C423 1.490 . S
C428 C430 1.395 . S
C428 C431 1.403 . S
H429 C435 0.930 . S
C430 H416 0.930 . S
C430 C428 1.395 . S
C430 C433 1.403 1_554 S
C431 C428 1.403 . S
C431 C432 1.524 . S
C431 C435 1.400 . S
C432 H417 0.960 . S
C432 H418 0.960 . S
C432 H419 0.960 . S
C432 C431 1.524 . S
C433 C430 1.403 1_556 S
C433 C434 1.392 . S
C433 C437 1.495 . S
C434 C433 1.392 . S
C434 C435 1.385 1_556 S
C434 C436 1.478 . S
C435 H429 0.930 . S
C435 C431 1.400 . S
C435 C434 1.385 1_554 S
C436 C434 1.478 . S
C436 C438 1.381 . S
C436 C442 1.383 . S
C437 C433 1.495 . S
C437 H443 0.959 . S
C437 H444 0.961 . S
C437 H445 0.960 . S
C438 C436 1.381 . S
C438 C439 1.394 . S
C438 H446 0.930 . S
C439 C438 1.394 . S
C439 C440 1.383 . S
C439 H447 0.929 . S
C440 C439 1.383 . S
C440 C441 1.377 . S
C441 H425 0.930 . S
C441 C440 1.377 . S
C441 C442 1.379 . S
C442 H426 0.931 . S
C442 C436 1.383 . S
C442 C441 1.379 . S
H443 C437 0.959 . S
H444 C437 0.961 . S
H445 C437 0.960 . S
H446 C438 0.930 . S
H447 C439 0.929 . S
H448 C456 0.929 . S
H449 C458 0.930 . S
H450 C460 0.930 . S
H451 C463 0.929 . S
H452 C466 0.930 . S
H453 C468 0.960 1_556 S
H454 C468 0.960 . S
H455 C468 0.960 . S
C456 H448 0.929 . S
C456 C457 1.377 . S
C456 C458 1.384 . S
C457 C456 1.377 . S
C457 C463 1.390 . S
C458 H449 0.930 . S
C458 C456 1.384 . S
C458 C459 1.372 . S
C459 C458 1.372 . S
C459 C460 1.400 . S
C459 C464 1.490 . S
C460 H450 0.930 . S
C460 C459 1.400 . S
C460 C463 1.386 . S
H461 C477 0.930 . S
H462 C478 0.931 . S
C463 H451 0.929 . S
C463 C457 1.390 . S
C463 C460 1.386 . S
C464 C459 1.490 . S
C464 C466 1.395 . S
C464 C467 1.403 . S
H465 C471 0.930 . S
C466 H452 0.930 . S
C466 C464 1.395 . S
C466 C469 1.403 . S
C467 C464 1.403 . S
C467 C468 1.524 . S
C467 C471 1.400 1_554 S
C468 H453 0.960 1_554 S
C468 H454 0.960 . S
C468 H455 0.960 . S
C468 C467 1.524 . S
C469 C466 1.403 . S
C469 C470 1.392 . S
C469 C473 1.495 . S
C470 C469 1.392 . S
C470 C471 1.385 1_554 S
C470 C472 1.478 1_554 S
C471 H465 0.930 . S
C471 C467 1.400 1_556 S
C471 C470 1.385 1_556 S
C472 C470 1.478 1_556 S
C472 C474 1.381 . S
C472 C478 1.383 . S
C473 C469 1.495 . S
C473 H479 0.959 . S
C473 H480 0.961 . S
C473 H481 0.960 . S
C474 C472 1.381 . S
C474 C475 1.394 . S
C474 H482 0.930 . S
C475 C474 1.394 . S
C475 C476 1.383 . S
C475 H483 0.929 . S
C476 C475 1.383 . S
C476 C477 1.377 . S
C477 H461 0.930 . S
C477 C476 1.377 . S
C477 C478 1.379 . S
C478 H462 0.931 . S
C478 C472 1.383 . S
C478 C477 1.379 . S
H479 C473 0.959 . S
H480 C473 0.961 . S
H481 C473 0.960 . S
H482 C474 0.930 . S
H483 C475 0.929 . S
H484 C492 0.929 . S
H485 C494 0.930 . S
H486 C496 0.930 . S
H487 C499 0.929 . S
H488 C502 0.930 . S
H489 C504 0.960 . S
H490 C504 0.960 . S
H491 C504 0.960 . S
C492 H484 0.929 . S
C492 C493 1.371 1_455 S
C492 C494 1.384 . S
C493 C492 1.371 1_655 S
C493 C499 1.396 . S
C494 H485 0.930 . S
C494 C492 1.384 . S
C494 C495 1.369 1_455 S
C495 C494 1.369 1_655 S
C495 C496 1.402 . S
C495 C500 1.490 1_655 S
C496 H486 0.930 . S
C496 C495 1.402 . S
C496 C499 1.386 . S
H497 C513 0.930 . S
H498 C514 0.931 . S
C499 H487 0.929 . S
C499 C493 1.396 . S
C499 C496 1.386 . S
C500 C495 1.490 1_455 S
C500 C502 1.412 . S
C500 C503 1.387 1_455 S
H501 C507 0.930 . S
C502 H488 0.930 . S
C502 C500 1.412 . S
C502 C505 1.403 . S
C503 C500 1.387 1_655 S
C503 C504 1.524 . S
C503 C507 1.400 . S
C504 H489 0.960 . S
C504 H490 0.960 . S
C504 H491 0.960 . S
C504 C503 1.524 . S
C505 C502 1.403 . S
C505 C506 1.392 1_554 S
C505 C509 1.490 1_554 S
C506 C505 1.392 1_556 S
C506 C507 1.385 1_456 S
C506 C508 1.478 . S
C507 H501 0.930 . S
C507 C503 1.400 . S
C507 C506 1.385 1_654 S
C508 C506 1.478 . S
C508 C510 1.381 . S
C508 C514 1.383 1_455 S
C509 C505 1.490 1_556 S
C509 H515 0.951 1_556 S
C509 H516 0.959 1_556 S
C509 H517 0.976 . S
C510 C508 1.381 . S
C510 C511 1.394 . S
C510 H518 0.930 . S
C511 C510 1.394 . S
C511 C512 1.383 . S
C511 H519 0.929 . S
C512 C511 1.383 . S
C512 C513 1.377 1_455 S
C513 H497 0.930 . S
C513 C512 1.377 1_655 S
C513 C514 1.379 . S
C514 H498 0.931 . S
C514 C508 1.383 1_655 S
C514 C513 1.379 . S
H515 C509 0.951 1_554 S
H516 C509 0.959 1_554 S
H517 C509 0.976 . S
H518 C510 0.930 . S
H519 C511 0.929 . S
H520 C528 0.929 . S
H521 C530 0.938 . S
H522 C532 0.930 . S
H523 C535 0.929 . S
H524 C538 0.930 . S
H525 C540 0.960 . S
H526 C540 0.960 . S
H527 C540 0.960 . S
C528 H520 0.929 . S
C528 C529 1.377 . S
C528 C530 1.394 . S
C529 C528 1.377 . S
C529 C535 1.390 1_455 S
C530 H521 0.938 . S
C530 C528 1.394 . S
C530 C531 1.356 1_455 S
C531 C530 1.356 1_655 S
C531 C532 1.400 . S
C531 C536 1.490 . S
C532 H522 0.930 . S
C532 C531 1.400 . S
C532 C535 1.386 . S
H533 C549 0.930 . S
H534 C550 0.931 . S
C535 H523 0.929 . S
C535 C529 1.390 1_655 S
C535 C532 1.386 . S
C536 C531 1.490 . S
C536 C538 1.395 . S
C536 C539 1.403 . S
H537 C543 0.930 . S
C538 H524 0.930 . S
C538 C536 1.395 . S
C538 C541 1.403 . S
C539 C536 1.403 . S
C539 C540 1.524 1_655 S
C539 C543 1.400 . S
C540 H525 0.960 . S
C540 H526 0.960 . S
C540 H527 0.960 . S
C540 C539 1.524 1_455 S
C541 C538 1.403 . S
C541 C542 1.392 . S
C541 C545 1.495 . S
C542 C541 1.392 . S
C542 C543 1.385 . S
C542 C544 1.478 . S
C543 H537 0.930 . S
C543 C539 1.400 . S
C543 C542 1.385 . S
C544 C542 1.478 . S
C544 C546 1.381 . S
C544 C550 1.383 . S
C545 C541 1.495 . S
C545 H551 0.959 . S
C545 H552 0.961 . S
C545 H553 0.960 . S
C546 C544 1.381 . S
C546 C547 1.394 . S
C546 H554 0.930 . S
C547 C546 1.394 . S
C547 C548 1.383 . S
C547 H555 0.929 . S
C548 C547 1.383 . S
C548 C549 1.377 . S
C549 H533 0.930 . S
C549 C548 1.377 . S
C549 C550 1.379 . S
C550 H534 0.931 . S
C550 C544 1.383 . S
C550 C549 1.379 . S
H551 C545 0.959 . S
H552 C545 0.961 . S
H553 C545 0.960 . S
H554 C546 0.930 . S
H555 C547 0.929 . S
H556 C564 0.929 . S
H557 C566 0.930 . S
H558 C568 0.930 . S
H559 C571 0.929 . S
H560 C574 0.930 1_545 S
H561 C576 0.960 . S
H562 C576 0.960 . S
H563 C576 0.960 . S
C564 H556 0.929 . S
C564 C565 1.377 1_565 S
C564 C566 1.384 . S
C565 C564 1.377 1_545 S
C565 C571 1.390 . S
C566 H557 0.930 . S
C566 C564 1.384 . S
C566 C567 1.372 . S
C567 C566 1.372 . S
C567 C568 1.400 1_565 S
C567 C572 1.490 . S
C568 H558 0.930 . S
C568 C567 1.400 1_545 S
C568 C571 1.386 . S
H569 C585 0.930 . S
H570 C586 0.931 . S
C571 H559 0.929 . S
C571 C565 1.390 . S
C571 C568 1.386 . S
C572 C567 1.490 . S
C572 C574 1.395 . S
C572 C575 1.403 . S
H573 C579 0.930 . S
C574 H560 0.930 1_565 S
C574 C572 1.395 . S
C574 C577 1.403 . S
C575 C572 1.403 . S
C575 C576 1.524 . S
C575 C579 1.400 . S
C576 H561 0.960 . S
C576 H562 0.960 . S
C576 H563 0.960 . S
C576 C575 1.524 . S
C577 C574 1.403 . S
C577 C578 1.392 . S
C577 C581 1.495 1_565 S
C578 C577 1.392 . S
C578 C579 1.385 . S
C578 C580 1.478 . S
C579 H573 0.930 . S
C579 C575 1.400 . S
C579 C578 1.385 . S
C580 C578 1.478 . S
C580 C582 1.381 . S
C580 C586 1.383 . S
C581 C577 1.495 1_545 S
C581 H587 0.959 . S
C581 H588 0.961 . S
C581 H589 0.960 1_545 S
C582 C580 1.381 . S
C582 C583 1.394 . S
C582 H590 0.930 . S
C583 C582 1.394 . S
C583 C584 1.383 . S
C583 H591 0.929 . S
C584 C583 1.383 . S
C584 C585 1.377 . S
C585 H569 0.930 . S
C585 C584 1.377 . S
C585 C586 1.379 . S
C586 H570 0.931 . S
C586 C580 1.383 . S
C586 C585 1.379 . S
H587 C581 0.959 . S
H588 C581 0.961 . S
H589 C581 0.960 1_565 S
H590 C582 0.930 . S
H591 C583 0.929 . S
H592 C600 0.929 . S
H593 C602 0.930 . S
H594 C604 0.930 . S
H595 C607 0.929 . S
H596 C610 0.930 . S
H597 C612 0.960 . S
H598 C612 0.960 . S
H599 C612 0.960 . S
C600 H592 0.929 . S
C600 C601 1.377 . S
C600 C602 1.384 . S
C601 C600 1.377 . S
C601 C607 1.390 . S
C602 H593 0.930 . S
C602 C600 1.384 . S
C602 C603 1.372 . S
C603 C602 1.372 . S
C603 C604 1.400 . S
C603 C608 1.490 . S
C604 H594 0.930 . S
C604 C603 1.400 . S
C604 C607 1.386 . S
H605 C621 0.930 . S
H606 C622 0.931 . S
C607 H595 0.929 . S
C607 C601 1.390 . S
C607 C604 1.386 . S
C608 C603 1.490 . S
C608 C610 1.395 . S
C608 C611 1.403 . S
H609 C615 0.930 . S
C610 H596 0.930 . S
C610 C608 1.395 . S
C610 C613 1.403 . S
C611 C608 1.403 . S
C611 C612 1.524 . S
C611 C615 1.400 . S
C612 H597 0.960 . S
C612 H598 0.960 . S
C612 H599 0.960 . S
C612 C611 1.524 . S
C613 C610 1.403 . S
C613 C614 1.392 . S
C613 C617 1.495 . S
C614 C613 1.392 . S
C614 C615 1.385 . S
C614 C616 1.478 . S
C615 H609 0.930 . S
C615 C611 1.400 . S
C615 C614 1.385 . S
C616 C614 1.478 . S
C616 C618 1.381 . S
C616 C622 1.383 . S
C617 C613 1.495 . S
C617 H623 0.959 . S
C617 H624 0.961 . S
C617 H625 0.960 . S
C618 C616 1.381 . S
C618 C619 1.394 . S
C618 H626 0.930 . S
C619 C618 1.394 . S
C619 C620 1.383 . S
C619 H627 0.929 . S
C620 C619 1.383 . S
C620 C621 1.377 . S
C621 H605 0.930 . S
C621 C620 1.377 . S
C621 C622 1.379 . S
C622 H606 0.931 . S
C622 C616 1.383 . S
C622 C621 1.379 . S
H623 C617 0.959 . S
H624 C617 0.961 . S
H625 C617 0.960 . S
H626 C618 0.930 . S
H627 C619 0.929 . S
H628 C636 0.929 . S
H629 C638 0.930 . S
H630 C640 0.930 . S
H631 C643 0.929 . S
H632 C646 0.930 . S
H633 C648 0.960 . S
H634 C648 0.960 . S
H635 C648 0.960 . S
C636 H628 0.929 . S
C636 C637 1.377 . S
C636 C638 1.384 . S
C637 C636 1.377 . S
C637 C643 1.390 . S
C638 H629 0.930 . S
C638 C636 1.384 . S
C638 C639 1.372 . S
C639 C638 1.372 . S
C639 C640 1.400 . S
C639 C644 1.490 . S
C640 H630 0.930 . S
C640 C639 1.400 . S
C640 C643 1.386 . S
H641 C657 0.930 . S
H642 C658 0.931 . S
C643 H631 0.929 . S
C643 C637 1.390 . S
C643 C640 1.386 . S
C644 C639 1.490 . S
C644 C646 1.395 . S
C644 C647 1.403 . S
H645 C651 0.930 . S
C646 H632 0.930 . S
C646 C644 1.395 . S
C646 C649 1.403 . S
C647 C644 1.403 . S
C647 C648 1.524 . S
C647 C651 1.400 . S
C648 H633 0.960 . S
C648 H634 0.960 . S
C648 H635 0.960 . S
C648 C647 1.524 . S
C649 C646 1.403 . S
C649 C650 1.392 . S
C649 C653 1.495 . S
C650 C649 1.392 . S
C650 C651 1.385 . S
C650 C652 1.478 . S
C651 H645 0.930 . S
C651 C647 1.400 . S
C651 C650 1.385 . S
C652 C650 1.478 . S
C652 C654 1.381 . S
C652 C658 1.383 . S
C653 C649 1.495 . S
C653 H659 0.959 . S
C653 H660 0.961 . S
C653 H661 0.960 . S
C654 C652 1.381 . S
C654 C655 1.394 . S
C654 H662 0.930 . S
C655 C654 1.394 . S
C655 C656 1.383 . S
C655 H663 0.929 . S
C656 C655 1.383 . S
C656 C657 1.377 . S
C657 H641 0.930 . S
C657 C656 1.377 . S
C657 C658 1.379 . S
C658 H642 0.931 . S
C658 C652 1.383 . S
C658 C657 1.379 . S
H659 C653 0.959 . S
H660 C653 0.961 . S
H661 C653 0.960 . S
H662 C654 0.930 . S
H663 C655 0.929 . S
H664 C672 0.929 . S
H665 C674 0.930 1_655 S
H666 C676 0.930 . S
H667 C679 0.929 . S
H668 C682 0.930 . S
H669 C684 0.960 . S
H670 C684 0.960 . S
H671 C684 0.960 . S
C672 H664 0.929 . S
C672 C673 1.377 . S
C672 C674 1.384 1_655 S
C673 C672 1.377 . S
C673 C679 1.390 1_655 S
C674 H665 0.930 1_455 S
C674 C672 1.384 1_455 S
C674 C675 1.372 . S
C675 C674 1.372 . S
C675 C676 1.400 . S
C675 C680 1.490 . S
C676 H666 0.930 . S
C676 C675 1.400 . S
C676 C679 1.386 . S
H677 C693 0.930 . S
H678 C694 0.931 . S
C679 H667 0.929 . S
C679 C673 1.390 1_455 S
C679 C676 1.386 . S
C680 C675 1.490 . S
C680 C682 1.395 1_455 S
C680 C683 1.403 . S
H681 C687 0.930 . S
C682 H668 0.930 . S
C682 C680 1.395 1_655 S
C682 C685 1.403 . S
C683 C680 1.403 . S
C683 C684 1.524 . S
C683 C687 1.400 . S
C684 H669 0.960 . S
C684 H670 0.960 . S
C684 H671 0.960 . S
C684 C683 1.524 . S
C685 C682 1.403 . S
C685 C686 1.392 1_655 S
C685 C689 1.495 . S
C686 C685 1.392 1_455 S
C686 C687 1.385 . S
C686 C688 1.478 . S
C687 H681 0.930 . S
C687 C683 1.400 . S
C687 C686 1.385 . S
C688 C686 1.478 . S
C688 C690 1.381 1_554 S
C688 C694 1.383 . S
C689 C685 1.495 . S
C689 H695 0.959 . S
C689 H696 0.961 . S
C689 H697 0.960 1_554 S
C690 C688 1.381 1_556 S
C690 C691 1.394 . S
C690 H698 0.930 . S
C691 C690 1.394 . S
C691 C692 1.383 . S
C691 H699 0.929 . S
C692 C691 1.383 . S
C692 C693 1.377 1_556 S
C693 H677 0.930 . S
C693 C692 1.377 1_554 S
C693 C694 1.379 . S
C694 H678 0.931 . S
C694 C688 1.383 . S
C694 C693 1.379 . S
H695 C689 0.959 . S
H696 C689 0.961 . S
H697 C689 0.960 1_556 S
H698 C690 0.930 . S
H699 C691 0.929 . S
H700 C708 0.929 . S
H701 C710 0.930 . S
H702 C712 0.930 . S
H703 C715 0.929 . S
H704 C718 0.930 . S
H705 C720 0.960 . S
H706 C720 0.960 . S
H707 C720 0.960 . S
C708 H700 0.929 . S
C708 C709 1.377 1_545 S
C708 C710 1.384 . S
C709 C708 1.377 1_565 S
C709 C715 1.390 . S
C710 H701 0.930 . S
C710 C708 1.384 . S
C710 C711 1.372 . S
C711 C710 1.372 . S
C711 C712 1.400 . S
C711 C716 1.490 . S
C712 H702 0.930 . S
C712 C711 1.400 . S
C712 C715 1.386 1_545 S
H713 C729 0.930 . S
H714 C730 0.931 . S
C715 H703 0.929 . S
C715 C709 1.390 . S
C715 C712 1.386 1_565 S
C716 C711 1.490 . S
C716 C718 1.395 1_545 S
C716 C719 1.403 . S
H717 C723 0.930 . S
C718 H704 0.930 . S
C718 C716 1.395 1_565 S
C718 C721 1.403 1_565 S
C719 C716 1.403 . S
C719 C720 1.524 . S
C719 C723 1.400 . S
C720 H705 0.960 . S
C720 H706 0.960 . S
C720 H707 0.960 . S
C720 C719 1.524 . S
C721 C718 1.403 1_545 S
C721 C722 1.392 . S
C721 C725 1.495 1_544 S
C722 C721 1.392 . S
C722 C723 1.385 . S
C722 C724 1.478 . S
C723 H717 0.930 . S
C723 C719 1.400 . S
C723 C722 1.385 . S
C724 C722 1.478 . S
C724 C726 1.381 1_554 S
C724 C730 1.383 . S
C725 C721 1.495 1_566 S
C725 H731 0.959 . S
C725 H732 0.961 . S
C725 H733 0.960 . S
C726 C724 1.381 1_556 S
C726 C727 1.394 . S
C726 H734 0.930 . S
C727 C726 1.394 . S
C727 C728 1.383 . S
C727 H735 0.929 . S
C728 C727 1.383 . S
C728 C729 1.377 1_556 S
C729 H713 0.930 . S
C729 C728 1.377 1_554 S
C729 C730 1.379 . S
C730 H714 0.931 . S
C730 C724 1.383 . S
C730 C729 1.379 . S
H731 C725 0.959 . S
H732 C725 0.961 . S
H733 C725 0.960 . S
H734 C726 0.930 . S
H735 C727 0.929 . S
H736 C744 0.929 . S
H737 C746 0.930 . S
H738 C748 0.930 . S
H739 C751 0.929 . S
H740 C754 0.930 . S
H741 C756 0.960 . S
H742 C756 0.960 . S
H743 C756 0.960 . S
C744 H736 0.929 . S
C744 C745 1.377 . S
C744 C746 1.384 . S
C745 C744 1.377 . S
C745 C751 1.390 . S
C746 H737 0.930 . S
C746 C744 1.384 . S
C746 C747 1.372 . S
C747 C746 1.372 . S
C747 C748 1.400 . S
C747 C752 1.490 . S
C748 H738 0.930 . S
C748 C747 1.400 . S
C748 C751 1.386 . S
H749 C765 0.930 . S
H750 C766 0.931 . S
C751 H739 0.929 . S
C751 C745 1.390 . S
C751 C748 1.386 . S
C752 C747 1.490 . S
C752 C754 1.395 . S
C752 C755 1.403 . S
H753 C759 0.930 . S
C754 H740 0.930 . S
C754 C752 1.395 . S
C754 C757 1.403 . S
C755 C752 1.403 . S
C755 C756 1.524 . S
C755 C759 1.400 . S
C756 H741 0.960 . S
C756 H742 0.960 . S
C756 H743 0.960 . S
C756 C755 1.524 . S
C757 C754 1.403 . S
C757 C758 1.392 . S
C757 C761 1.495 . S
C758 C757 1.392 . S
C758 C759 1.385 . S
C758 C760 1.478 . S
C759 H753 0.930 . S
C759 C755 1.400 . S
C759 C758 1.385 . S
C760 C758 1.478 . S
C760 C762 1.381 . S
C760 C766 1.383 1_554 S
C761 C757 1.495 . S
C761 H767 0.959 . S
C761 H768 0.961 . S
C761 H769 0.960 . S
C762 C760 1.381 . S
C762 C763 1.394 . S
C762 H770 0.930 . S
C763 C762 1.394 . S
C763 C764 1.383 1_554 S
C763 H771 0.929 . S
C764 C763 1.383 1_556 S
C764 C765 1.377 . S
C765 H749 0.930 . S
C765 C764 1.377 . S
C765 C766 1.379 . S
C766 H750 0.931 . S
C766 C760 1.383 1_556 S
C766 C765 1.379 . S
H767 C761 0.959 . S
H768 C761 0.961 . S
H769 C761 0.960 . S
H770 C762 0.930 . S
H771 C763 0.929 . S
H772 C780 0.929 . S
H773 C782 0.930 . S
H774 C784 0.930 . S
H775 C787 0.929 . S
H776 C790 0.930 . S
H777 C792 0.960 . S
H778 C792 0.960 . S
H779 C792 0.960 . S
C780 H772 0.929 . S
C780 C781 1.377 . S
C780 C782 1.384 . S
C781 C780 1.377 . S
C781 C787 1.390 . S
C782 H773 0.930 . S
C782 C780 1.384 . S
C782 C783 1.372 . S
C783 C782 1.372 . S
C783 C784 1.400 . S
C783 C788 1.490 . S
C784 H774 0.930 . S
C784 C783 1.400 . S
C784 C787 1.386 . S
H785 C801 0.930 . S
H786 C802 0.931 . S
C787 H775 0.929 . S
C787 C781 1.390 . S
C787 C784 1.386 . S
C788 C783 1.490 . S
C788 C790 1.395 . S
C788 C791 1.403 . S
H789 C795 0.930 . S
C790 H776 0.930 . S
C790 C788 1.395 . S
C790 C793 1.403 . S
C791 C788 1.403 . S
C791 C792 1.524 . S
C791 C795 1.400 . S
C792 H777 0.960 . S
C792 H778 0.960 . S
C792 H779 0.960 . S
C792 C791 1.524 . S
C793 C790 1.403 . S
C793 C794 1.392 . S
C793 C797 1.495 . S
C794 C793 1.392 . S
C794 C795 1.385 . S
C794 C796 1.478 . S
C795 H789 0.930 . S
C795 C791 1.400 . S
C795 C794 1.385 . S
C796 C794 1.478 . S
C796 C798 1.381 1_554 S
C796 C802 1.383 . S
C797 C793 1.495 . S
C797 H803 0.959 . S
C797 H804 0.961 . S
C797 H805 0.960 . S
C798 C796 1.381 1_556 S
C798 C799 1.394 . S
C798 H806 0.930 . S
C799 C798 1.394 . S
C799 C800 1.383 . S
C799 H807 0.929 . S
C800 C799 1.383 . S
C800 C801 1.377 . S
C801 H785 0.930 . S
C801 C800 1.377 . S
C801 C802 1.379 1_556 S
C802 H786 0.931 . S
C802 C796 1.383 . S
C802 C801 1.379 1_554 S
H803 C797 0.959 . S
H804 C797 0.961 . S
H805 C797 0.960 . S
H806 C798 0.930 . S
H807 C799 0.929 . S
H808 C816 0.929 1_554 S
H809 C818 0.930 . S
H810 C820 0.937 . S
H811 C823 0.929 . S
H812 C826 0.930 . S
H813 C828 0.960 . S
H814 C828 0.960 . S
H815 C828 0.960 . S
C816 H808 0.929 1_556 S
C816 C817 1.377 . S
C816 C818 1.384 . S
C817 C816 1.377 . S
C817 C823 1.390 1_455 S
C818 H809 0.930 . S
C818 C816 1.384 . S
C818 C819 1.372 . S
C819 C818 1.372 . S
C819 C820 1.392 1_455 S
C819 C824 1.490 . S
C820 H810 0.937 . S
C820 C819 1.392 1_655 S
C820 C823 1.389 . S
H821 C837 0.930 1_655 S
H822 C838 0.932 . S
C823 H811 0.929 . S
C823 C817 1.390 1_655 S
C823 C820 1.389 . S
C824 C819 1.490 . S
C824 C826 1.395 1_455 S
C824 C827 1.403 . S
H825 C831 0.930 . S
C826 H812 0.930 . S
C826 C824 1.395 1_655 S
C826 C829 1.403 . S
C827 C824 1.403 . S
C827 C828 1.524 . S
C827 C831 1.400 . S
C828 H813 0.960 . S
C828 H814 0.960 . S
C828 H815 0.960 . S
C828 C827 1.524 . S
C829 C826 1.403 . S
C829 C830 1.392 1_655 S
C829 C833 1.495 . S
C830 C829 1.392 1_455 S
C830 C831 1.385 . S
C830 C832 1.478 . S
C831 H825 0.930 . S
C831 C827 1.400 . S
C831 C830 1.385 . S
C832 C830 1.478 . S
C832 C834 1.381 . S
C832 C838 1.382 1_455 S
C833 C829 1.495 . S
C833 H839 0.959 . S
C833 H840 0.961 . S
C833 H841 0.960 . S
C834 C832 1.381 . S
C834 C835 1.394 . S
C834 H842 0.930 . S
C835 C834 1.394 . S
C835 C836 1.383 . S
C835 H843 0.929 . S
C836 C835 1.383 . S
C836 C837 1.377 . S
C837 H821 0.930 1_455 S
C837 C836 1.377 . S
C837 C838 1.379 1_455 S
C838 H822 0.932 . S
C838 C832 1.382 1_655 S
C838 C837 1.379 1_655 S
H839 C833 0.959 . S
H840 C833 0.961 . S
H841 C833 0.960 . S
H842 C834 0.930 . S
H843 C835 0.929 . S
H844 C852 0.929 . S
H845 C854 0.930 . S
H846 C856 0.930 . S
H847 C859 0.929 . S
H848 C862 0.930 . S
H849 C864 0.960 . S
H850 C864 0.960 1_545 S
H851 C864 0.960 . S
C852 H844 0.929 . S
C852 C853 1.377 . S
C852 C854 1.384 . S
C853 C852 1.377 . S
C853 C859 1.390 1_545 S
C854 H845 0.930 . S
C854 C852 1.384 . S
C854 C855 1.372 . S
C855 C854 1.372 . S
C855 C856 1.400 1_545 S
C855 C860 1.490 . S
C856 H846 0.930 . S
C856 C855 1.400 1_565 S
C856 C859 1.386 . S
H857 C873 0.930 . S
H858 C874 0.931 . S
C859 H847 0.929 . S
C859 C853 1.390 1_565 S
C859 C856 1.386 . S
C860 C855 1.490 . S
C860 C862 1.395 . S
C860 C863 1.405 . S
H861 C867 0.930 1_565 S
C862 H848 0.930 . S
C862 C860 1.395 . S
C862 C865 1.403 . S
C863 C860 1.405 . S
C863 C864 1.521 1_545 S
C863 C867 1.400 . S
C864 H849 0.960 . S
C864 H850 0.960 1_565 S
C864 H851 0.960 . S
C864 C863 1.521 1_565 S
C865 C862 1.403 . S
C865 C866 1.392 . S
C865 C869 1.495 . S
C866 C865 1.392 . S
C866 C867 1.385 . S
C866 C868 1.478 . S
C867 H861 0.930 1_545 S
C867 C863 1.400 . S
C867 C866 1.385 . S
C868 C866 1.478 . S
C868 C870 1.381 . S
C868 C874 1.383 1_545 S
C869 C865 1.495 . S
C869 H875 0.959 . S
C869 H876 0.961 . S
C869 H877 0.960 . S
C870 C868 1.381 . S
C870 C871 1.394 . S
C870 H878 0.930 . S
C871 C870 1.394 . S
C871 C872 1.383 . S
C871 H879 0.929 . S
C872 C871 1.383 . S
C872 C873 1.377 1_545 S
C873 H857 0.930 . S
C873 C872 1.377 1_565 S
C873 C874 1.379 . S
C874 H858 0.931 . S
C874 C868 1.383 1_565 S
C874 C873 1.379 . S
H875 C869 0.959 . S
H876 C869 0.961 . S
H877 C869 0.960 . S
H878 C870 0.930 . S
H879 C871 0.929 . S
H880 C888 0.929 1_554 S
H881 C890 0.930 . S
H882 C892 0.930 . S
H883 C895 0.929 . S
H884 C898 0.930 . S
H885 C900 0.960 . S
H886 C900 0.960 . S
H887 C900 0.960 . S
C888 H880 0.929 1_556 S
C888 C889 1.377 . S
C888 C890 1.384 . S
C889 C888 1.377 . S
C889 C895 1.390 . S
C890 H881 0.930 . S
C890 C888 1.384 . S
C890 C891 1.372 . S
C891 C890 1.372 . S
C891 C892 1.400 . S
C891 C896 1.490 . S
C892 H882 0.930 . S
C892 C891 1.400 . S
C892 C895 1.386 . S
H893 C909 0.930 . S
H894 C910 0.931 . S
C895 H883 0.929 . S
C895 C889 1.390 . S
C895 C892 1.386 . S
C896 C891 1.490 . S
C896 C898 1.395 . S
C896 C899 1.403 . S
H897 C903 0.930 . S
C898 H884 0.930 . S
C898 C896 1.395 . S
C898 C901 1.403 . S
C899 C896 1.403 . S
C899 C900 1.524 . S
C899 C903 1.400 . S
C900 H885 0.960 . S
C900 H886 0.960 . S
C900 H887 0.960 . S
C900 C899 1.524 . S
C901 C898 1.403 . S
C901 C902 1.392 . S
C901 C905 1.495 . S
C902 C901 1.392 . S
C902 C903 1.385 . S
C902 C904 1.478 . S
C903 H897 0.930 . S
C903 C899 1.400 . S
C903 C902 1.385 . S
C904 C902 1.478 . S
C904 C906 1.381 . S
C904 C910 1.383 . S
C905 C901 1.495 . S
C905 H911 0.959 . S
C905 H912 0.961 . S
C905 H913 0.960 . S
C906 C904 1.381 . S
C906 C907 1.394 . S
C906 H914 0.930 . S
C907 C906 1.394 . S
C907 C908 1.383 . S
C907 H915 0.929 . S
C908 C907 1.383 . S
C908 C909 1.377 . S
C909 H893 0.930 . S
C909 C908 1.377 . S
C909 C910 1.379 . S
C910 H894 0.931 . S
C910 C904 1.383 . S
C910 C909 1.379 . S
H911 C905 0.959 . S
H912 C905 0.961 . S
H913 C905 0.960 . S
H914 C906 0.930 . S
H915 C907 0.929 . S
H916 C924 0.929 . S
H917 C926 0.930 . S
H918 C928 0.930 . S
H919 C931 0.929 . S
H920 C934 0.930 . S
H921 C936 0.960 . S
H922 C936 0.960 . S
H923 C936 0.960 . S
C924 H916 0.929 . S
C924 C925 1.377 . S
C924 C926 1.384 . S
C925 C924 1.377 . S
C925 C931 1.390 . S
C926 H917 0.930 . S
C926 C924 1.384 . S
C926 C927 1.372 . S
C927 C926 1.372 . S
C927 C928 1.400 . S
C927 C932 1.490 . S
C928 H918 0.930 . S
C928 C927 1.400 . S
C928 C931 1.386 . S
H929 C945 0.930 . S
H930 C946 0.931 . S
C931 H919 0.929 . S
C931 C925 1.390 . S
C931 C928 1.386 . S
C932 C927 1.490 . S
C932 C934 1.395 . S
C932 C935 1.403 . S
H933 C939 0.930 . S
C934 H920 0.930 . S
C934 C932 1.395 . S
C934 C937 1.403 . S
C935 C932 1.403 . S
C935 C936 1.524 . S
C935 C939 1.400 . S
C936 H921 0.960 . S
C936 H922 0.960 . S
C936 H923 0.960 . S
C936 C935 1.524 . S
C937 C934 1.403 . S
C937 C938 1.392 . S
C937 C941 1.495 . S
C938 C937 1.392 . S
C938 C939 1.385 . S
C938 C940 1.478 . S
C939 H933 0.930 . S
C939 C935 1.400 . S
C939 C938 1.385 . S
C940 C938 1.478 . S
C940 C942 1.381 . S
C940 C946 1.383 . S
C941 C937 1.495 . S
C941 H947 0.959 1_556 S
C941 H948 0.961 . S
C941 H949 0.960 . S
C942 C940 1.381 . S
C942 C943 1.394 . S
C942 H950 0.930 . S
C943 C942 1.394 . S
C943 C944 1.383 . S
C943 H951 0.929 . S
C944 C943 1.383 . S
C944 C945 1.377 . S
C945 H929 0.930 . S
C945 C944 1.377 . S
C945 C946 1.379 . S
C946 H930 0.931 . S
C946 C940 1.383 . S
C946 C945 1.379 . S
H947 C941 0.959 1_554 S
H948 C941 0.961 . S
H949 C941 0.960 . S
H950 C942 0.930 . S
H951 C943 0.929 . S
H952 C960 0.929 . S
H953 C962 0.930 . S
H954 C964 0.930 . S
H955 C967 0.929 . S
H956 C970 0.930 . S
H957 C972 0.960 . S
H958 C972 0.960 . S
H959 C972 0.960 . S
C960 H952 0.929 . S
C960 C961 1.377 1_455 S
C960 C962 1.384 . S
C961 C960 1.377 1_655 S
C961 C967 1.390 . S
C962 H953 0.930 . S
C962 C960 1.384 . S
C962 C963 1.372 1_455 S
C963 C962 1.372 1_655 S
C963 C964 1.400 . S
C963 C968 1.490 . S
C964 H954 0.930 . S
C964 C963 1.400 . S
C964 C967 1.386 . S
H965 C981 0.930 . S
H966 C982 0.931 . S
C967 H955 0.929 . S
C967 C961 1.390 . S
C967 C964 1.386 . S
C968 C963 1.490 . S
C968 C970 1.395 1_655 S
C968 C971 1.403 . S
H969 C975 0.930 . S
C970 H956 0.930 . S
C970 C968 1.395 1_455 S
C970 C973 1.403 . S
C971 C968 1.403 . S
C971 C972 1.524 . S
C971 C975 1.400 . S
C972 H957 0.960 . S
C972 H958 0.960 . S
C972 H959 0.960 . S
C972 C971 1.524 . S
C973 C970 1.403 . S
C973 C974 1.392 1_455 S
C973 C977 1.495 . S
C974 C973 1.392 1_655 S
C974 C975 1.385 . S
C974 C976 1.478 . S
C975 H969 0.930 . S
C975 C971 1.400 . S
C975 C974 1.385 . S
C976 C974 1.478 . S
C976 C978 1.381 1_655 S
C976 C982 1.383 . S
C977 C973 1.495 . S
C977 H983 0.959 . S
C977 H984 0.961 . S
C977 H985 0.960 . S
C978 C976 1.381 1_455 S
C978 C979 1.394 . S
C978 H986 0.930 . S
C979 C978 1.394 . S
C979 C980 1.383 1_455 S
C979 H987 0.929 . S
C980 C979 1.383 1_655 S
C980 C981 1.377 . S
C981 H965 0.930 . S
C981 C980 1.377 . S
C981 C982 1.379 . S
C982 H966 0.931 . S
C982 C976 1.383 . S
C982 C981 1.379 . S
H983 C977 0.959 . S
H984 C977 0.961 . S
H985 C977 0.960 . S
H986 C978 0.930 . S
H987 C979 0.929 . S
H988 C996 0.929 . S
H989 C998 0.930 . S
H990 C1000 0.930 . S
H991 C1003 0.929 . S
H992 C1006 0.930 . S
H993 C1008 0.960 . S
H994 C1008 0.960 . S
H995 C1008 0.960 . S
C996 H988 0.929 . S
C996 C997 1.412 . S
C996 C998 1.384 . S
C997 C996 1.412 . S
C997 C1003 1.360 1_565 S
C998 H989 0.930 . S
C998 C996 1.384 . S
C998 C999 1.372 . S
C999 C998 1.372 . S
C999 C1000 1.400 1_565 S
C999 C1004 1.490 . S
C1000 H990 0.930 . S
C1000 C999 1.400 1_545 S
C1000 C1003 1.386 . S
H1001 C1017 0.919 1_545 S
H1002 C1018 0.914 1_545 S
C1003 H991 0.929 . S
C1003 C997 1.360 1_545 S
C1003 C1000 1.386 . S
C1004 C999 1.490 . S
C1004 C1006 1.395 . S
C1004 C1007 1.403 1_565 S
H1005 C1011 0.930 . S
C1006 H992 0.930 . S
C1006 C1004 1.395 . S
C1006 C1009 1.403 . S
C1007 C1004 1.403 1_545 S
C1007 C1008 1.524 . S
C1007 C1011 1.400 . S
C1008 H993 0.960 . S
C1008 H994 0.960 . S
C1008 H995 0.960 . S
C1008 C1007 1.524 . S
C1009 C1006 1.403 . S
C1009 C1010 1.392 . S
C1009 C1013 1.495 . S
C1010 C1009 1.392 . S
C1010 C1011 1.385 1_565 S
C1010 C1012 1.478 . S
C1011 H1005 0.930 . S
C1011 C1007 1.400 . S
C1011 C1010 1.385 1_545 S
C1012 C1010 1.478 . S
C1012 C1014 1.381 . S
C1012 C1018 1.400 . S
C1013 C1009 1.495 . S
C1013 H1019 0.959 . S
C1013 H1020 0.961 . S
C1013 H1021 0.960 . S
C1014 C1012 1.381 . S
C1014 C1015 1.394 . S
C1014 H1022 0.930 . S
C1015 C1014 1.394 . S
C1015 C1016 1.383 . S
C1015 H1023 0.929 . S
C1016 C1015 1.383 . S
C1016 C1017 1.387 . S
C1017 H1001 0.919 1_565 S
C1017 C1016 1.387 . S
C1017 C1018 1.379 . S
C1018 H1002 0.914 1_565 S
C1018 C1012 1.400 . S
C1018 C1017 1.379 . S
H1019 C1013 0.959 . S
H1020 C1013 0.961 . S
H1021 C1013 0.960 . S
H1022 C1014 0.930 . S
H1023 C1015 0.929 . S
H1024 C1032 0.929 . S
H1025 C1034 0.930 . S
H1026 C1036 0.930 . S
H1027 C1039 0.929 . S
H1028 C1042 0.930 . S
H1029 C1044 0.960 . S
H1030 C1044 0.960 . S
H1031 C1044 0.960 . S
C1032 H1024 0.929 . S
C1032 C1033 1.377 . S
C1032 C1034 1.384 . S
C1033 C1032 1.377 . S
C1033 C1039 1.390 . S
C1034 H1025 0.930 . S
C1034 C1032 1.384 . S
C1034 C1035 1.372 . S
C1035 C1034 1.372 . S
C1035 C1036 1.400 . S
C1035 C1040 1.490 . S
C1036 H1026 0.930 . S
C1036 C1035 1.400 . S
C1036 C1039 1.386 . S
H1037 C1053 0.930 . S
H1038 C1054 0.931 . S
C1039 H1027 0.929 . S
C1039 C1033 1.390 . S
C1039 C1036 1.386 . S
C1040 C1035 1.490 . S
C1040 C1042 1.395 . S
C1040 C1043 1.403 . S
H1041 C1047 0.930 . S
C1042 H1028 0.930 . S
C1042 C1040 1.395 . S
C1042 C1045 1.403 . S
C1043 C1040 1.403 . S
C1043 C1044 1.524 . S
C1043 C1047 1.400 . S
C1044 H1029 0.960 . S
C1044 H1030 0.960 . S
C1044 H1031 0.960 . S
C1044 C1043 1.524 . S
C1045 C1042 1.403 . S
C1045 C1046 1.392 . S
C1045 C1049 1.495 . S
C1046 C1045 1.392 . S
C1046 C1047 1.385 . S
C1046 C1048 1.478 . S
C1047 H1041 0.930 . S
C1047 C1043 1.400 . S
C1047 C1046 1.385 . S
C1048 C1046 1.478 . S
C1048 C1050 1.381 . S
C1048 C1054 1.383 . S
C1049 C1045 1.495 . S
C1049 H1055 0.959 . S
C1049 H1056 0.961 . S
C1049 H1057 0.960 . S
C1050 C1048 1.381 . S
C1050 C1051 1.394 . S
C1050 H1058 0.930 . S
C1051 C1050 1.394 . S
C1051 C1052 1.383 . S
C1051 H1059 0.929 . S
C1052 C1051 1.383 . S
C1052 C1053 1.377 . S
C1053 H1037 0.930 . S
C1053 C1052 1.377 . S
C1053 C1054 1.379 . S
C1054 H1038 0.931 . S
C1054 C1048 1.383 . S
C1054 C1053 1.379 . S
H1055 C1049 0.959 . S
H1056 C1049 0.961 . S
H1057 C1049 0.960 . S
H1058 C1050 0.930 . S
H1059 C1051 0.929 . S
H1060 C1068 0.929 . S
H1061 C1070 0.930 . S
H1062 C1072 0.930 . S
H1063 C1075 0.929 . S
H1064 C1078 0.930 . S
H1065 C1080 0.960 . S
H1066 C1080 0.960 . S
H1067 C1080 0.960 . S
C1068 H1060 0.929 . S
C1068 C1069 1.377 . S
C1068 C1070 1.384 . S
C1069 C1068 1.377 . S
C1069 C1075 1.390 . S
C1070 H1061 0.930 . S
C1070 C1068 1.384 . S
C1070 C1071 1.372 . S
C1071 C1070 1.372 . S
C1071 C1072 1.400 . S
C1071 C1076 1.490 . S
C1072 H1062 0.930 . S
C1072 C1071 1.400 . S
C1072 C1075 1.386 . S
H1073 C1089 0.930 . S
H1074 C1090 0.931 . S
C1075 H1063 0.929 . S
C1075 C1069 1.390 . S
C1075 C1072 1.386 . S
C1076 C1071 1.490 . S
C1076 C1078 1.395 . S
C1076 C1079 1.403 . S
H1077 C1083 0.930 . S
C1078 H1064 0.930 . S
C1078 C1076 1.395 . S
C1078 C1081 1.403 . S
C1079 C1076 1.403 . S
C1079 C1080 1.524 . S
C1079 C1083 1.400 . S
C1080 H1065 0.960 . S
C1080 H1066 0.960 . S
C1080 H1067 0.960 . S
C1080 C1079 1.524 . S
C1081 C1078 1.403 . S
C1081 C1082 1.392 . S
C1081 C1085 1.495 . S
C1082 C1081 1.392 . S
C1082 C1083 1.385 . S
C1082 C1084 1.478 . S
C1083 H1077 0.930 . S
C1083 C1079 1.400 . S
C1083 C1082 1.385 . S
C1084 C1082 1.478 . S
C1084 C1086 1.381 . S
C1084 C1090 1.383 . S
C1085 C1081 1.495 . S
C1085 H1091 0.959 . S
C1085 H1092 0.961 . S
C1085 H1093 0.960 . S
C1086 C1084 1.381 . S
C1086 C1087 1.394 . S
C1086 H1094 0.930 . S
C1087 C1086 1.394 . S
C1087 C1088 1.383 . S
C1087 H1095 0.929 . S
C1088 C1087 1.383 . S
C1088 C1089 1.377 . S
C1089 H1073 0.930 . S
C1089 C1088 1.377 . S
C1089 C1090 1.379 . S
C1090 H1074 0.931 . S
C1090 C1084 1.383 . S
C1090 C1089 1.379 . S
H1091 C1085 0.959 . S
H1092 C1085 0.961 . S
H1093 C1085 0.960 . S
H1094 C1086 0.930 . S
H1095 C1087 0.929 . S
C241 C61 1.637 1_545 S
C260 C81 1.716 1_545 S
C296 C121 1.722 . S
C277 C70 1.649 . S
C332 C161 1.733 . S
C313 C43 1.646 . S
C368 C201 1.720 1_455 S
C349 C52 1.646 . S
C404 C90 1.709 . S
C385 C25 1.641 . S
C421 C34 1.659 . S
C440 C130 1.727 . S
C457 C7 1.646 . S
C476 C170 1.734 . S
C493 C16 1.640 . S
C512 C210 1.715 . S
C548 C87 0.395 . S
C529 C50 0.278 1_455 S
C584 C127 0.243 . S
C565 C59 0.254 1_545 S
C620 C167 0.225 . S
C601 C67 0.241 . S
C637 C41 0.275 . S
C656 C207 0.365 . S
C673 C14 0.259 . S
C692 C78 0.230 . S
C728 C118 0.259 . S
C709 C23 0.254 . S
C764 C158 0.371 . S
C745 C31 0.270 . S
C781 C5 0.266 . S
C800 C198 0.258 . S
C817 C49 1.797 1_455 S
C836 C91 1.952 . S
C853 C58 1.785 1_545 S
C872 C131 1.951 . S
C908 C171 1.929 . S
C889 C68 1.763 . S
C944 C211 1.955 . S
C925 C40 1.787 . S
C961 C13 1.807 . S
C980 C82 1.963 . S
C1016 C122 1.969 . S
C997 C22 1.772 . S
C1052 C162 1.961 . S
C1033 C32 1.765 . S
C1069 C4 1.793 . S
C1088 C202 1.955 . S
