# Generated by pormake.
# Topology pth, (4,4)-cn, num edge types: 1
# Building blocks:
#     Node 0, Type 0, BuildingBlock: QUQFOY_clean_sbu_1, # of connection points: 4
#     Node 1, Type 0, BuildingBlock: QUQFOY_clean_sbu_1, # of connection points: 4
#     Node 2, Type 0, BuildingBlock: QUQFOY_clean_sbu_1, # of connection points: 4
#     Node 3, Type 1, BuildingBlock: NAWXER_clean_linker_0, # of connection points: 4
#     Node 4, Type 1, BuildingBlock: NAWXER_clean_linker_0, # of connection points: 4
#     Node 5, Type 1, BuildingBlock: NAWXER_clean_linker_0, # of connection points: 4
#     Edge 6, Type (0, 1), BuildingBlock: XUDNAN_clean_linker_2, # of connection points: 2
#     Edge 7, Type (0, 1), BuildingBlock: XUDNAN_clean_linker_2, # of connection points: 2
#     Edge 8, Type (0, 1), BuildingBlock: XUDNAN_clean_linker_2, # of connection points: 2
#     Edge 9, Type (0, 1), BuildingBlock: XUDNAN_clean_linker_2, # of connection points: 2
#     Edge 10, Type (0, 1), BuildingBlock: XUDNAN_clean_linker_2, # of connection points: 2
#     Edge 11, Type (0, 1), BuildingBlock: XUDNAN_clean_linker_2, # of connection points: 2
#     Edge 12, Type (0, 1), BuildingBlock: XUDNAN_clean_linker_2, # of connection points: 2
#     Edge 13, Type (0, 1), BuildingBlock: XUDNAN_clean_linker_2, # of connection points: 2
#     Edge 14, Type (0, 1), BuildingBlock: XUDNAN_clean_linker_2, # of connection points: 2
#     Edge 15, Type (0, 1), BuildingBlock: XUDNAN_clean_linker_2, # of connection points: 2
#     Edge 16, Type (0, 1), BuildingBlock: XUDNAN_clean_linker_2, # of connection points: 2
#     Edge 17, Type (0, 1), BuildingBlock: XUDNAN_clean_linker_2, # of connection points: 2
# Relax obj value: 0.022
# Max RMSD: 0.123
# Mean RMSD: 0.072
data_MOF--net-pth--node1-QUQFOY_clean_sbu_1--node2-NAWXER_clean_linker_0--edge1-XUDNAN_clean_linker_2
_symmetry_space_group_name_H-M    P1
_symmetry_Int_Tables_number       1
_symmetry_cell_setting            triclinic
loop_
_symmetry_equiv_pos_as_xyz
'x, y, z'
_cell_length_a     27.896975
_cell_length_b     30.236275
_cell_length_c     67.068251
_cell_angle_alpha  89.928195
_cell_angle_beta   90.071508
_cell_angle_gamma 120.126
loop_
_atom_site_label
_atom_site_type_symbol
_atom_site_fract_x
_atom_site_fract_y
_atom_site_fract_z
_atom_type_partial_charge
O0 O 0.02927 0.08125 0.06892 0.0
Cd1 Cd 0.96086 0.02952 0.08489 0.0
Cd2 Cd 0.02003 0.97864 0.07993 0.0
O3 O 0.08176 0.04595 0.06733 0.0
O4 O 0.92198 0.06937 0.08744 0.0
O5 O 0.95544 0.04929 0.11347 0.0
C6 C 0.9314 0.07284 0.1063 0.0
C7 C 0.03185 0.94126 0.10847 0.0
C8 C 0.07404 0.0832 0.06367 0.0
C9 C 0.90742 0.93088 0.06124 0.0
O10 O 0.95319 0.9314 0.06224 0.0
O11 O 0.90113 0.96446 0.0704 0.0
O12 O 0.04919 0.93583 0.0913 0.0
O13 O 0.01008 0.97022 0.10957 0.0
O14 O 0.98037 0.06184 0.41816 0.0
Cd15 Cd 0.04208 0.06782 0.39965 0.0
Cd16 Cd 0.99073 0.96554 0.40944 0.0
O17 O 0.93164 0.97837 0.42265 0.0
O18 O 0.06892 0.13614 0.38711 0.0
O19 O 0.02899 0.06416 0.36991 0.0
C20 C 0.04982 0.11317 0.37034 0.0
C21 C 0.96687 0.89285 0.39013 0.0
C22 C 0.93847 0.02278 0.42544 0.0
C23 C 0.10832 0.03501 0.42392 0.0
O24 O 0.06412 0.99177 0.42478 0.0
O25 O 0.11021 0.07085 0.41336 0.0
O26 O 0.95962 0.89013 0.40917 0.0
O27 O 0.98507 0.93692 0.38173 0.0
O28 O 0.92099 0.97131 0.72878 0.0
Cd29 Cd 0.96375 0.94354 0.74476 0.0
Cd30 Cd 0.0412 0.04392 0.7474 0.0
O31 O 0.98146 0.05331 0.73296 0.0
O32 O 0.91043 0.87011 0.75048 0.0
O33 O 0.94887 0.92853 0.77419 0.0
C34 C 0.91634 0.88145 0.76916 0.0
C35 C 0.08281 0.08866 0.77669 0.0
C36 C 0.93583 0.01805 0.72589 0.0
C37 C 0.07335 0.97804 0.72452 0.0
O38 O 0.08721 0.02329 0.72972 0.0
O39 O 0.02688 0.94067 0.72984 0.0
O40 O 0.0955 0.1109 0.75952 0.0
O41 O 0.04519 0.04082 0.77729 0.0
C42 C 0.96383 0.3371 0.26825 0.0
C43 C 0.01126 0.34858 0.27955 0.0
C44 C 0.95836 0.37614 0.25926 0.0
C45 C 1.00046 0.42744 0.26118 0.0
C46 C 0.05287 0.40012 0.2817 0.0
C47 C 0.04734 0.43909 0.2727 0.0
C48 C 0.99601 0.46938 0.25152 0.0
C49 C 1.00141 0.37091 0.20145 0.0
C50 C 0.94962 0.3445 0.19176 0.0
C51 C 0.01375 0.41196 0.21422 0.0
C52 C 0.97473 0.42757 0.21741 0.0
C53 C 0.91061 0.3602 0.1953 0.0
C54 C 0.92333 0.40161 0.20776 0.0
C55 C 0.98632 0.4704 0.23093 0.0
C56 C 0.04376 0.69079 0.22038 0.0
C57 C 0.01101 0.68479 0.20356 0.0
C58 C 0.03869 0.64801 0.23039 0.0
C59 C 0.99928 0.59824 0.22423 0.0
C60 C 0.97297 0.63519 0.19697 0.0
C61 C 0.96705 0.59239 0.20723 0.0
C62 C 0.9937 0.55226 0.2346 0.0
C63 C 0.95313 0.63404 0.2817 0.0
C64 C 0.98437 0.64649 0.29933 0.0
C65 C 0.95778 0.60283 0.26735 0.0
C66 C 0.9953 0.58498 0.27001 0.0
C67 C 0.02145 0.62837 0.30212 0.0
C68 C 0.02699 0.5981 0.28758 0.0
C69 C 0.99803 0.54892 0.25557 0.0
H70 H 0.93042 0.29799 0.26664 0.0
H71 H 0.92102 0.36622 0.25093 0.0
H72 H 0.09016 0.4104 0.29012 0.0
H73 H 0.08022 0.4784 0.27447 0.0
H74 H 0.03287 0.36061 0.19891 0.0
H75 H 0.05386 0.43178 0.22146 0.0
H76 H 0.86984 0.34028 0.18858 0.0
H77 H 0.89249 0.41283 0.21018 0.0
H78 H 0.0741 0.72863 0.22555 0.0
H79 H 0.06603 0.65402 0.24283 0.0
H80 H 0.94723 0.62954 0.18403 0.0
H81 H 0.93694 0.55462 0.20193 0.0
H82 H 0.92351 0.64676 0.27939 0.0
H83 H 0.93087 0.59164 0.25444 0.0
H84 H 0.04592 0.63739 0.31563 0.0
H85 H 0.05566 0.58441 0.2902 0.0
N86 N 1.00073 0.50832 0.26307 0.0
N87 N 0.98633 0.51204 0.22322 0.0
C88 C 0.69626 0.06017 0.54173 0.0
C89 C 0.68388 0.02389 0.52655 0.0
C90 C 0.65535 0.05471 0.55516 0.0
C91 C 0.60139 0.01266 0.55375 0.0
C92 C 0.63036 0.98092 0.52563 0.0
C93 C 0.58943 0.9756 0.53901 0.0
C94 C 0.55561 0.01036 0.56565 0.0
C95 C 0.67019 1.00087 0.61161 0.0
C96 C 0.68935 0.03958 0.62618 0.0
C97 C 0.62812 0.99376 0.59831 0.0
C98 C 0.60469 0.02539 0.59931 0.0
C99 C 0.66576 0.07109 0.62705 0.0
C100 C 0.62386 0.06395 0.61383 0.0
C101 C 0.55746 0.01689 0.58654 0.0
C102 C 0.32364 0.95917 0.60629 0.0
C103 C 0.33456 0.98843 0.62377 0.0
C104 C 0.36665 0.96759 0.59333 0.0
C105 C 0.42142 0.00581 0.59748 0.0
C106 C 0.38916 0.02755 0.62758 0.0
C107 C 0.43208 0.03598 0.61462 0.0
C108 C 0.46847 0.01046 0.58557 0.0
C109 C 0.38272 0.05807 0.54069 0.0
C110 C 0.36247 0.02737 0.52356 0.0
C111 C 0.41473 0.04978 0.5546 0.0
C112 C 0.4271 0.01056 0.55168 0.0
C113 C 0.37343 0.98715 0.52095 0.0
C114 C 0.40589 0.97917 0.53479 0.0
C115 C 0.46807 0.00685 0.56458 0.0
H116 H 0.73726 0.09351 0.5429 0.0
H117 H 0.66532 0.08451 0.56606 0.0
H118 H 0.61934 0.95264 0.51398 0.0
H119 H 0.54787 0.94319 0.53749 0.0
H120 H 0.68765 0.97605 0.61052 0.0
H121 H 0.61315 0.96292 0.58757 0.0
H122 H 0.67872 0.10061 0.63829 0.0
H123 H 0.60605 0.08849 0.61506 0.0
H124 H 0.28195 0.92906 0.60281 0.0
H125 H 0.35727 0.94277 0.58054 0.0
H126 H 0.3992 0.05036 0.64102 0.0
H127 H 0.47401 0.06535 0.61828 0.0
H128 H 0.37462 0.08912 0.54315 0.0
H129 H 0.43177 0.07548 0.5672 0.0
H130 H 0.35882 0.96317 0.50781 0.0
H131 H 0.41553 0.94917 0.53207 0.0
N132 N 0.51119 0.00605 0.55552 0.0
N133 N 0.5135 0.01605 0.59562 0.0
C134 C 0.36525 0.31521 0.8931 0.0
C135 C 0.3376 0.32587 0.87793 0.0
C136 C 0.40775 0.35486 0.90408 0.0
C137 C 0.42321 0.40602 0.90025 0.0
C138 C 0.35372 0.37721 0.87398 0.0
C139 C 0.39623 0.4168 0.88495 0.0
C140 C 0.46834 0.44862 0.91166 0.0
C141 C 0.33284 0.36409 0.95707 0.0
C142 C 0.34727 0.34178 0.97264 0.0
C143 C 0.37293 0.3977 0.94368 0.0
C144 C 0.42825 0.40955 0.94555 0.0
C145 C 0.40236 0.35264 0.97421 0.0
C146 C 0.44263 0.38671 0.96089 0.0
C147 C 0.47183 0.44905 0.93271 0.0
C148 C 0.63456 0.66637 0.95091 0.0
C149 C 0.65954 0.66039 0.96813 0.0
C150 C 0.60245 0.62472 0.93849 0.0
C151 C 0.5948 0.57617 0.94296 0.0
C152 C 0.65325 0.61217 0.97229 0.0
C153 C 0.62073 0.57035 0.95991 0.0
C154 C 0.55451 0.53065 0.93147 0.0
C155 C 0.69199 0.61485 0.88684 0.0
C156 C 0.67835 0.63799 0.8714 0.0
C157 C 0.65122 0.58111 0.90005 0.0
C158 C 0.59597 0.56929 0.8978 0.0
C159 C 0.62348 0.62747 0.86954 0.0
C160 C 0.58242 0.5928 0.88248 0.0
C161 C 0.55186 0.52963 0.91044 0.0
H162 H 0.35477 0.27624 0.89627 0.0
H163 H 0.42898 0.34551 0.91539 0.0
H164 H 0.33302 0.38686 0.86256 0.0
H165 H 0.40757 0.45595 0.88165 0.0
H166 H 0.29062 0.35622 0.95547 0.0
H167 H 0.36101 0.41564 0.93223 0.0
H168 H 0.41469 0.33637 0.98618 0.0
H169 H 0.48521 0.39579 0.96272 0.0
H170 H 0.63893 0.70313 0.94726 0.0
H171 H 0.58167 0.63012 0.92587 0.0
H172 H 0.67155 0.60628 0.98555 0.0
H173 H 0.61484 0.53316 0.96381 0.0
H174 H 0.73403 0.62225 0.88846 0.0
H175 H 0.66246 0.56285 0.91159 0.0
H176 H 0.612 0.6445 0.85759 0.0
H177 H 0.53998 0.58393 0.88042 0.0
N178 N 0.50865 0.48892 0.90135 0.0
N179 N 0.51466 0.49008 0.94177 0.0
H180 H 0.96982 0.11082 0.14405 0.0
H181 H 0.86662 0.11271 0.09592 0.0
H182 H 0.8562 0.17865 0.11356 0.0
H183 H 0.89502 0.1343 0.18513 0.0
H184 H 0.95814 0.17461 0.19862 0.0
H185 H 0.95267 0.12328 0.18332 0.0
H186 H 0.04084 0.18788 0.16409 0.0
H187 H 0.04617 0.23946 0.17912 0.0
H188 H 0.043 0.24253 0.15234 0.0
H189 H 0.86569 0.25078 0.13392 0.0
H190 H 0.88858 0.32109 0.15727 0.0
H191 H 0.98221 0.27153 0.1936 0.0
C192 C 0.94382 0.12415 0.13752 0.0
C193 C 0.91887 0.10642 0.11862 0.0
C194 C 0.88609 0.12559 0.11037 0.0
C195 C 0.87988 0.1631 0.12028 0.0
C196 C 0.90641 0.18099 0.13852 0.0
C197 C 0.93714 0.16182 0.14726 0.0
C198 C 0.96356 0.18987 0.16654 0.0
C199 C 0.94099 0.15333 0.18446 0.0
C200 C 0.02716 0.21651 0.16544 0.0
C201 C 0.94399 0.22853 0.16693 0.0
C202 C 0.91095 0.22247 0.15063 0.0
C203 C 0.89042 0.2552 0.14701 0.0
C204 C 0.90348 0.29499 0.1605 0.0
C205 C 0.93648 0.30174 0.1776 0.0
C206 C 0.95694 0.26778 0.18074 0.0
H207 H 0.85502 0.95264 0.44988 0.0
H208 H 0.93535 0.11084 0.43015 0.0
H209 H 0.87818 0.12731 0.45347 0.0
H210 H 0.71668 0.9369 0.45689 0.0
H211 H 0.70236 0.89763 0.4788 0.0
H212 H 0.74739 0.89711 0.45968 0.0
H213 H 0.82459 0.92089 0.48601 0.0
H214 H 0.78001 0.92194 0.50517 0.0
H215 H 0.84724 0.97738 0.50103 0.0
H216 H 0.81707 0.12873 0.48 0.0
H217 H 0.75089 0.11341 0.5071 0.0
H218 H 0.70928 0.95458 0.51006 0.0
C219 C 0.85994 0.99051 0.45024 0.0
C220 C 0.89978 0.03041 0.43815 0.0
C221 C 0.90528 0.0796 0.43926 0.0
C222 C 0.87298 0.08942 0.45247 0.0
C223 C 0.8351 0.04968 0.46447 0.0
C224 C 0.82793 1.00108 0.46341 0.0
C225 C 0.78509 0.96569 0.47841 0.0
C226 C 0.7349 0.92174 0.46781 0.0
C227 C 0.81079 0.94529 0.49355 0.0
C228 C 0.76992 1.00225 0.48816 0.0
C229 C 0.79936 0.05047 0.47987 0.0
C230 C 0.79359 0.09109 0.4866 0.0
C231 C 0.75628 0.08212 0.50213 0.0
C232 C 0.72515 0.03291 0.51078 0.0
C233 C 0.73223 0.99252 0.50365 0.0
H234 H 0.85956 0.88294 0.80235 0.0
H235 H 0.90712 0.78808 0.76915 0.0
H236 H 0.85638 0.71758 0.79317 0.0
H237 H 0.86136 0.83516 0.85242 0.0
H238 H 0.80003 0.83579 0.8604 0.0
H239 H 0.84485 0.88081 0.84189 0.0
H240 H 0.76167 0.8496 0.81766 0.0
H241 H 0.71666 0.80449 0.83607 0.0
H242 H 0.7214 0.78258 0.81156 0.0
H243 H 0.80055 0.65751 0.82041 0.0
H244 H 0.73469 0.60799 0.84734 0.0
H245 H 0.71525 0.7381 0.86122 0.0
C246 C 0.8599 0.84755 0.80042 0.0
C247 C 0.88778 0.8409 0.78416 0.0
C248 C 0.8862 0.79376 0.78164 0.0
C249 C 0.85771 0.75367 0.79522 0.0
C250 C 0.83011 0.76106 0.81101 0.0
C251 C 0.83024 0.8065 0.81356 0.0
C252 C 0.79313 0.80267 0.8308 0.0
C253 C 0.82687 0.84088 0.84736 0.0
C254 C 0.74539 0.81028 0.82358 0.0
C255 C 0.7721 0.74799 0.83746 0.0
C256 C 0.79486 0.7251 0.82605 0.0
C257 C 0.78236 0.67494 0.82942 0.0
C258 C 0.74513 0.6472 0.84474 0.0
C259 C 0.72015 0.66936 0.85622 0.0
C260 C 0.73385 0.72041 0.85255 0.0
H261 H 0.04445 0.85725 0.10857 0.0
H262 H 0.0208 0.95849 0.14793 0.0
H263 H 0.01719 0.90604 0.17689 0.0
H264 H 0.9494 0.74276 0.13286 0.0
H265 H 0.98924 0.71152 0.12902 0.0
H266 H 0.9952 0.75958 0.11172 0.0
H267 H 0.10145 0.81091 0.11733 0.0
H268 H 0.09588 0.76282 0.13457 0.0
H269 H 0.12831 0.82871 0.1423 0.0
H270 H 0.01428 0.84094 0.20151 0.0
H271 H 0.0074 0.76627 0.21945 0.0
H272 H 0.02746 0.70544 0.16359 0.0
C273 C 0.03949 0.86897 0.12332 0.0
C274 C 0.03358 0.91234 0.12604 0.0
C275 C 0.02581 0.92562 0.14552 0.0
C276 C 0.02377 0.89609 0.16205 0.0
C277 C 0.02904 0.85315 0.15881 0.0
C278 C 0.0365 0.83952 0.1399 0.0
C279 C 0.03765 0.78996 0.14023 0.0
C280 C 0.99003 0.74852 0.12772 0.0
C281 C 0.09419 0.79864 0.13319 0.0
C282 C 0.02908 0.77745 0.16225 0.0
C283 C 0.02501 0.81471 0.17278 0.0
C284 C 0.01742 0.81158 0.1934 0.0
C285 C 0.01367 0.76918 0.20346 0.0
C286 C 0.01665 0.73014 0.19287 0.0
C287 C 0.02454 0.73454 0.17201 0.0
H288 H 0.12104 0.96424 0.44524 0.0
H289 H 0.20344 0.12634 0.43135 0.0
H290 H 0.2787 0.14187 0.45483 0.0
H291 H 0.15017 0.97703 0.49667 0.0
H292 H 0.16125 0.9233 0.49824 0.0
H293 H 0.11575 0.92446 0.47946 0.0
H294 H 0.17294 0.91214 0.45186 0.0
H295 H 0.21842 0.91051 0.47058 0.0
H296 H 0.24657 0.95583 0.45037 0.0
H297 H 0.34154 0.14023 0.4816 0.0
H298 H 0.39036 0.12089 0.50795 0.0
H299 H 0.26701 0.95977 0.50391 0.0
C300 C 0.15519 1.003 0.44692 0.0
C301 C 0.15627 0.04411 0.43643 0.0
C302 C 0.20177 0.09419 0.43913 0.0
C303 C 0.24464 0.10341 0.45248 0.0
C304 C 0.24159 0.06209 0.46287 0.0
C305 C 0.19832 0.0128 0.46006 0.0
C306 C 0.20416 0.97517 0.47332 0.0
C307 C 0.15491 0.94844 0.48777 0.0
C308 C 0.21094 0.93611 0.46078 0.0
C309 C 0.25712 0.01106 0.48425 0.0
C310 C 0.27805 0.06105 0.47805 0.0
C311 C 0.32572 0.10119 0.48647 0.0
C312 C 0.3529 0.08989 0.50153 0.0
C313 C 0.33244 0.03884 0.50797 0.0
C314 C 0.28394 0.99906 0.49914 0.0
H315 H 0.1689 0.18723 0.77918 0.0
H316 H 0.06385 0.05412 0.8154 0.0
H317 H 0.11604 0.10084 0.84549 0.0
H318 H 0.29472 0.22261 0.8047 0.0
H319 H 0.32129 0.2904 0.80239 0.0
H320 H 0.27401 0.24727 0.78397 0.0
H321 H 0.20812 0.28306 0.79009 0.0
H322 H 0.25526 0.32639 0.80852 0.0
H323 H 0.18394 0.28304 0.81501 0.0
H324 H 0.18195 0.16197 0.87154 0.0
H325 H 0.25542 0.23223 0.89135 0.0
H326 H 0.31809 0.32397 0.83765 0.0
C327 C 0.15644 0.16794 0.79345 0.0
C328 C 0.1121 0.11701 0.79494 0.0
C329 C 0.09755 0.09314 0.81389 0.0
C330 C 0.12696 0.11938 0.83107 0.0
C331 C 0.17079 0.16943 0.82902 0.0
C332 C 0.18538 0.19344 0.81068 0.0
C333 C 0.23494 0.24689 0.81236 0.0
C334 C 0.28414 0.25206 0.80013 0.0
C335 C 0.21963 0.28722 0.80613 0.0
C336 C 0.24627 0.24919 0.83452 0.0
C337 C 0.20877 0.20425 0.8439 0.0
C338 C 0.2115 0.19731 0.86433 0.0
C339 C 0.25364 0.23734 0.87544 0.0
C340 C 0.29267 0.28374 0.8661 0.0
C341 C 0.28855 0.28942 0.84534 0.0
H342 H 0.84067 0.95282 0.7054 0.0
H343 H 0.95564 0.11394 0.7163 0.0
H344 H 0.9051 0.13671 0.692 0.0
H345 H 0.82755 0.96318 0.65335 0.0
H346 H 0.75475 0.91629 0.65235 0.0
H347 H 0.79782 0.91215 0.67142 0.0
H348 H 0.7328 0.91302 0.69878 0.0
H349 H 0.68912 0.91651 0.67978 0.0
H350 H 0.71721 0.96411 0.69919 0.0
H351 H 0.84523 0.14215 0.66533 0.0
H352 H 0.77671 0.12987 0.63944 0.0
H353 H 0.69985 0.96529 0.64619 0.0
C354 C 0.85485 0.99292 0.70291 0.0
C355 C 0.90218 0.03158 0.71282 0.0
C356 C 0.91948 0.08358 0.70896 0.0
C357 C 0.89112 0.09694 0.69514 0.0
C358 C 0.84543 0.0579 0.68533 0.0
C359 C 0.82706 0.00695 0.68915 0.0
C360 C 0.77737 0.97246 0.67632 0.0
C361 C 0.79017 0.93906 0.66254 0.0
C362 C 0.72609 0.9396 0.6893 0.0
C363 C 0.77101 0.01201 0.66456 0.0
C364 C 0.8107 0.06104 0.66999 0.0
C365 C 0.81363 0.10394 0.66108 0.0
C366 C 0.77442 0.09656 0.64643 0.0
C367 C 0.73268 0.04664 0.64084 0.0
C368 C 0.73149 1.00391 0.64997 0.0
H369 H 0.9036 0.84966 0.04128 0.0
H370 H 0.80834 0.92487 0.05247 0.0
H371 H 0.73467 0.8635 0.03013 0.0
H372 H 0.87 0.82388 0.98975 0.0
H373 H 0.86531 0.76222 0.9902 0.0
H374 H 0.91009 0.81109 0.00752 0.0
H375 H 0.8603 0.74971 0.03708 0.0
H376 H 0.81548 0.70054 0.01984 0.0
H377 H 0.78612 0.72023 0.03944 0.0
H378 H 0.6731 0.79641 1.00559 0.0
H379 H 0.6255 0.72525 0.98171 0.0
H380 H 0.75984 0.69266 0.98672 0.0
C381 C 0.86712 0.85309 0.03915 0.0
C382 C 0.86188 0.89223 0.04866 0.0
C383 C 0.81338 0.89525 0.04542 0.0
C384 C 0.77129 0.8606 0.03272 0.0
C385 C 0.77809 0.82292 0.02344 0.0
C386 C 0.82455 0.81866 0.0266 0.0
C387 C 0.82167 0.77477 0.0147 0.0
C388 C 0.86961 0.79417 0.99965 0.0
C389 C 0.82083 0.73389 0.0286 0.0
C390 C 0.7665 0.75527 1.00425 0.0
C391 C 0.74217 0.78372 0.00946 0.0
C392 C 0.69165 0.77376 1.00144 0.0
C393 C 0.66514 0.73351 0.98778 0.0
C394 C 0.68904 0.70354 0.98231 0.0
C395 C 0.74037 0.71464 0.99074 0.0
H396 H 0.97993 0.88456 0.34969 0.0
H397 H 0.9372 0.79873 0.40513 0.0
H398 H 0.934 0.72588 0.3876 0.0
H399 H 0.89223 0.77381 0.31733 0.0
H400 H 0.94181 0.79702 0.29724 0.0
H401 H 0.9373 0.84161 0.31385 0.0
H402 H 0.04195 0.88249 0.32179 0.0
H403 H 0.04669 0.8378 0.30536 0.0
H404 H 0.06831 0.84274 0.33099 0.0
H405 H 0.94419 0.66563 0.36514 0.0
H406 H 0.95901 0.61829 0.3381 0.0
H407 H 0.99087 0.74015 0.29661 0.0
C408 C 0.96894 0.85011 0.35805 0.0
C409 C 0.95879 0.84748 0.37882 0.0
C410 C 0.94499 0.80178 0.38923 0.0
C411 C 0.94315 0.76011 0.37941 0.0
C412 C 0.95457 0.76433 0.35909 0.0
C413 C 0.96639 0.80777 0.34841 0.0
C414 C 0.97819 0.80247 0.32672 0.0
C415 C 0.93478 0.8038 0.31297 0.0
C416 C 0.0373 0.84383 0.32088 0.0
C417 C 0.97228 0.74977 0.32703 0.0
C418 C 0.95882 0.72861 0.34589 0.0
C419 C 0.95399 0.68146 0.35023 0.0
C420 C 0.9628 0.65502 0.33485 0.0
C421 C 0.97582 0.67554 0.31534 0.0
C422 C 0.9803 0.72342 0.31138 0.0
H423 H 0.16765 0.04981 0.70539 0.0
H424 H 0.06012 0.8859 0.71258 0.0
H425 H 0.1157 0.87082 0.68782 0.0
H426 H 0.1847 0.04806 0.65314 0.0
H427 H 0.2563 0.09823 0.6531 0.0
H428 H 0.21025 0.09644 0.67228 0.0
H429 H 0.27627 0.09628 0.69947 0.0
H430 H 0.32278 0.09849 0.68037 0.0
H431 H 0.29643 0.04823 0.69877 0.0
H432 H 0.18062 0.87349 0.66133 0.0
H433 H 0.25258 0.89375 0.63588 0.0
H434 H 0.31622 0.05587 0.64539 0.0
C435 C 0.15618 0.01071 0.702 0.0
C436 C 0.10956 0.96903 0.71101 0.0
C437 C 0.09569 0.91848 0.70593 0.0
C438 C 0.12697 0.90949 0.69186 0.0
C439 C 0.17198 0.95143 0.68299 0.0
C440 C 0.18678 1.00104 0.68793 0.0
C441 C 0.23611 0.03934 0.67582 0.0
C442 C 0.2209 0.07245 0.66282 0.0
C443 C 0.28584 0.07253 0.68942 0.0
C444 C 0.24652 1.00349 0.66322 0.0
C445 C 0.20911 0.95297 0.6676 0.0
C446 C 0.21016 0.91292 0.65777 0.0
C447 C 0.25089 0.92484 0.6432 0.0
C448 C 0.28997 0.97641 0.63855 0.0
C449 C 0.28735 0.01609 0.64871 0.0
H450 H 0.16436 0.09632 0.04157 0.0
H451 H 0.07767 0.17449 0.061 0.0
H452 H 0.14065 0.24947 0.04103 0.0
H453 H 0.30412 0.21113 0.04046 0.0
H454 H 0.32456 0.19084 0.01838 0.0
H455 H 0.27521 0.14392 0.03539 0.0
H456 H 0.20521 0.10223 1.0064 0.0
H457 H 0.25417 0.14915 0.98934 0.0
H458 H 0.18578 0.14084 0.99176 0.0
H459 H 0.20706 0.31331 0.01744 0.0
H460 H 0.27735 0.36485 0.99218 0.0
H461 H 0.3235 0.24786 0.98766 0.0
C462 C 0.1593 0.12955 0.04186 0.0
C463 C 0.11591 0.12934 0.05287 0.0
C464 C 0.11032 0.17344 0.05266 0.0
C465 C 0.146 0.21642 0.04138 0.0
C466 C 0.18742 0.21506 0.03039 0.0
C467 C 0.19474 0.17311 0.03059 0.0
C468 C 0.24157 0.18142 0.01672 0.0
C469 C 0.28919 0.18186 0.02844 0.0
C470 C 0.22039 0.14101 1.00007 0.0
C471 C 0.2585 0.2341 0.00852 0.0
C472 C 0.22664 0.25266 0.01669 0.0
C473 C 0.23262 0.29946 0.01101 0.0
C474 C 0.27233 0.32826 0.99656 0.0
C475 C 0.30567 0.31028 0.98795 0.0
C476 C 0.29888 0.2627 0.99415 0.0
H477 H 0.07915 0.21399 0.36879 0.0
H478 H 0.01362 0.07716 0.33241 0.0
H479 H 1.00089 0.12374 0.3044 0.0
H480 H 0.98532 0.25152 0.35288 0.0
H481 H 0.0346 0.31913 0.35331 0.0
H482 H 0.04369 0.27667 0.36966 0.0
H483 H 0.14218 0.30935 0.35541 0.0
H484 H 0.13355 0.35222 0.33908 0.0
H485 H 0.15127 0.30713 0.32889 0.0
H486 H 0.98966 0.18437 0.28112 0.0
H487 H 0.98239 0.25376 0.26447 0.0
H488 H 0.05267 0.34924 0.31684 0.0
C489 C 0.06313 0.19396 0.35482 0.0
C490 C 0.04775 0.14195 0.35275 0.0
C491 C 0.02606 0.11707 0.3343 0.0
C492 C 0.01864 0.14322 0.31832 0.0
C493 C 0.03314 0.19421 0.32104 0.0
C494 C 0.0552 0.21933 0.33882 0.0
C495 C 0.06464 0.2732 0.3384 0.0
C496 C 0.02998 0.28052 0.35451 0.0
C497 C 0.1266 0.31281 0.34057 0.0
C498 C 0.04377 0.27439 0.31769 0.0
C499 C 0.02606 0.22864 0.30784 0.0
C500 C 0.00366 0.22041 0.28869 0.0
C501 C 0.99929 0.25994 0.27941 0.0
C502 C 0.01697 0.30711 0.2893 0.0
C503 C 0.03963 0.31412 0.30869 0.0
loop_
_geom_bond_atom_site_label_1
_geom_bond_atom_site_label_2
_geom_bond_distance
_geom_bond_site_symmetry_2
_ccdc_geom_bond_type
O0 Cd1 2.223 1_455 S
O0 C8 1.315 . S
Cd1 O0 2.223 1_655 S
Cd1 O4 2.297 . S
Cd1 O5 2.439 . S
Cd1 O11 2.240 1_545 S
Cd2 O3 2.240 1_565 S
Cd2 O10 2.223 1_455 S
Cd2 O12 2.297 . S
Cd2 O13 2.439 . S
O3 Cd2 2.240 1_545 S
O3 C8 1.279 . S
O4 Cd1 2.297 . S
O4 C6 1.247 . S
O5 Cd1 2.439 . S
O5 C6 1.208 . S
C6 O4 1.247 . S
C6 O5 1.208 . S
C7 O12 1.247 . S
C7 O13 1.208 . S
C8 O0 1.315 . S
C8 O3 1.279 . S
C9 O10 1.315 . S
C9 O11 1.279 . S
O10 Cd2 2.223 1_655 S
O10 C9 1.315 . S
O11 Cd1 2.240 1_565 S
O11 C9 1.279 . S
O12 Cd2 2.297 . S
O12 C7 1.247 . S
O13 Cd2 2.439 . S
O13 C7 1.208 . S
O14 Cd15 2.223 1_655 S
O14 C22 1.315 . S
Cd15 O14 2.223 1_455 S
Cd15 O18 2.297 . S
Cd15 O19 2.439 . S
Cd15 O25 2.240 . S
Cd16 O17 2.240 . S
Cd16 O24 2.223 1_655 S
Cd16 O26 2.297 . S
Cd16 O27 2.439 . S
O17 Cd16 2.240 . S
O17 C22 1.279 1_565 S
O18 Cd15 2.297 . S
O18 C20 1.247 . S
O19 Cd15 2.439 . S
O19 C20 1.208 . S
C20 O18 1.247 . S
C20 O19 1.208 . S
C21 O26 1.247 . S
C21 O27 1.208 . S
C22 O14 1.315 . S
C22 O17 1.279 1_545 S
C23 O24 1.315 . S
C23 O25 1.279 1_565 S
O24 Cd16 2.223 1_455 S
O24 C23 1.315 . S
O25 Cd15 2.240 . S
O25 C23 1.279 1_545 S
O26 Cd16 2.297 . S
O26 C21 1.247 . S
O27 Cd16 2.439 . S
O27 C21 1.208 . S
O28 Cd29 2.223 . S
O28 C36 1.315 . S
Cd29 O28 2.223 . S
Cd29 O32 2.297 . S
Cd29 O33 2.439 . S
Cd29 O39 2.240 1_655 S
Cd30 O31 2.240 1_455 S
Cd30 O38 2.223 . S
Cd30 O40 2.297 . S
Cd30 O41 2.439 . S
O31 Cd30 2.240 1_655 S
O31 C36 1.279 1_545 S
O32 Cd29 2.297 . S
O32 C34 1.247 . S
O33 Cd29 2.439 . S
O33 C34 1.208 . S
C34 O32 1.247 . S
C34 O33 1.208 . S
C35 O40 1.247 . S
C35 O41 1.208 . S
C36 O28 1.315 . S
C36 O31 1.279 1_565 S
C37 O38 1.315 . S
C37 O39 1.279 1_545 S
O38 Cd30 2.223 . S
O38 C37 1.315 . S
O39 Cd29 2.240 1_455 S
O39 C37 1.279 1_565 S
O40 Cd30 2.297 . S
O40 C35 1.247 . S
O41 Cd30 2.439 . S
O41 C35 1.208 . S
C42 C43 1.384 1_655 S
C42 C44 1.384 . S
C42 H70 0.931 . S
C43 C42 1.384 1_455 S
C43 C46 1.382 . S
C44 C42 1.384 . S
C44 C45 1.381 1_655 S
C44 H71 0.930 . S
C45 C44 1.381 1_455 S
C45 C47 1.381 . S
C45 C48 1.487 . S
C46 C43 1.382 . S
C46 C47 1.387 . S
C46 H72 0.930 . S
C47 C45 1.381 . S
C47 C46 1.387 . S
C47 H73 0.931 . S
C48 C45 1.487 . S
C48 C55 1.399 1_455 S
C48 N86 1.343 . S
C49 C50 1.384 1_455 S
C49 C51 1.384 . S
C49 H74 0.931 . S
C50 C49 1.384 1_655 S
C50 C53 1.382 . S
C51 C49 1.384 . S
C51 C52 1.381 1_455 S
C51 H75 0.930 . S
C52 C51 1.381 1_655 S
C52 C54 1.381 . S
C52 C55 1.487 . S
C53 C50 1.382 . S
C53 C54 1.387 . S
C53 H76 0.930 . S
C54 C52 1.381 . S
C54 C53 1.387 . S
C54 H77 0.931 . S
C55 C48 1.399 1_655 S
C55 C52 1.487 . S
C55 N87 1.343 . S
C56 C57 1.384 1_455 S
C56 C58 1.384 . S
C56 H78 0.931 . S
C57 C56 1.384 1_655 S
C57 C60 1.382 . S
C58 C56 1.384 . S
C58 C59 1.381 1_455 S
C58 H79 0.930 . S
C59 C58 1.381 1_655 S
C59 C61 1.381 . S
C59 C62 1.487 . S
C60 C57 1.382 . S
C60 C61 1.387 . S
C60 H80 0.930 . S
C61 C59 1.381 . S
C61 C60 1.387 . S
C61 H81 0.931 . S
C62 C59 1.487 . S
C62 C69 1.399 1_655 S
C62 N87 1.343 . S
C63 C64 1.384 1_655 S
C63 C65 1.384 . S
C63 H82 0.931 . S
C64 C63 1.384 1_455 S
C64 C67 1.382 . S
C65 C63 1.384 . S
C65 C66 1.381 1_655 S
C65 H83 0.930 . S
C66 C65 1.381 1_455 S
C66 C68 1.381 . S
C66 C69 1.487 . S
C67 C64 1.382 . S
C67 C68 1.387 . S
C67 H84 0.930 . S
C68 C66 1.381 . S
C68 C67 1.387 . S
C68 H85 0.931 . S
C69 C62 1.399 1_455 S
C69 C66 1.487 . S
C69 N86 1.343 . S
H70 C42 0.931 . S
H71 C44 0.930 . S
H72 C46 0.930 . S
H73 C47 0.931 . S
H74 C49 0.931 . S
H75 C51 0.930 . S
H76 C53 0.930 . S
H77 C54 0.931 . S
H78 C56 0.931 . S
H79 C58 0.930 . S
H80 C60 0.930 . S
H81 C61 0.931 . S
H82 C63 0.931 . S
H83 C65 0.930 . S
H84 C67 0.930 . S
H85 C68 0.931 . S
N86 C48 1.343 . S
N86 C69 1.343 . S
N87 C55 1.343 . S
N87 C62 1.343 . S
C88 C89 1.384 1_545 S
C88 C90 1.384 . S
C88 H116 0.931 . S
C89 C88 1.384 1_565 S
C89 C92 1.382 . S
C90 C88 1.384 . S
C90 C91 1.381 1_545 S
C90 H117 0.930 . S
C91 C90 1.381 1_565 S
C91 C93 1.381 . S
C91 C94 1.487 . S
C92 C89 1.382 . S
C92 C93 1.387 . S
C92 H118 0.930 . S
C93 C91 1.381 . S
C93 C92 1.387 . S
C93 H119 0.931 . S
C94 C91 1.487 . S
C94 C101 1.399 1_565 S
C94 N132 1.343 . S
C95 C96 1.384 1_565 S
C95 C97 1.384 . S
C95 H120 0.931 . S
C96 C95 1.384 1_545 S
C96 C99 1.382 . S
C97 C95 1.384 . S
C97 C98 1.381 1_565 S
C97 H121 0.930 . S
C98 C97 1.381 1_545 S
C98 C100 1.381 . S
C98 C101 1.487 . S
C99 C96 1.382 . S
C99 C100 1.387 . S
C99 H122 0.930 . S
C100 C98 1.381 . S
C100 C99 1.387 . S
C100 H123 0.931 . S
C101 C94 1.399 1_545 S
C101 C98 1.487 . S
C101 N133 1.343 . S
C102 C103 1.384 1_565 S
C102 C104 1.384 . S
C102 H124 0.931 . S
C103 C102 1.384 1_545 S
C103 C106 1.382 . S
C104 C102 1.384 . S
C104 C105 1.381 1_565 S
C104 H125 0.930 . S
C105 C104 1.381 1_545 S
C105 C107 1.381 . S
C105 C108 1.487 . S
C106 C103 1.382 . S
C106 C107 1.387 . S
C106 H126 0.930 . S
C107 C105 1.381 . S
C107 C106 1.387 . S
C107 H127 0.931 . S
C108 C105 1.487 . S
C108 C115 1.399 1_545 S
C108 N133 1.343 . S
C109 C110 1.384 1_545 S
C109 C111 1.384 . S
C109 H128 0.931 . S
C110 C109 1.384 1_565 S
C110 C113 1.382 . S
C111 C109 1.384 . S
C111 C112 1.381 1_545 S
C111 H129 0.930 . S
C112 C111 1.381 1_565 S
C112 C114 1.381 . S
C112 C115 1.487 . S
C113 C110 1.382 . S
C113 C114 1.387 . S
C113 H130 0.930 . S
C114 C112 1.381 . S
C114 C113 1.387 . S
C114 H131 0.931 . S
C115 C108 1.399 1_565 S
C115 C112 1.487 . S
C115 N132 1.343 . S
H116 C88 0.931 . S
H117 C90 0.930 . S
H118 C92 0.930 . S
H119 C93 0.931 . S
H120 C95 0.931 . S
H121 C97 0.930 . S
H122 C99 0.930 . S
H123 C100 0.931 . S
H124 C102 0.931 . S
H125 C104 0.930 . S
H126 C106 0.930 . S
H127 C107 0.931 . S
H128 C109 0.931 . S
H129 C111 0.930 . S
H130 C113 0.930 . S
H131 C114 0.931 . S
N132 C94 1.343 . S
N132 C115 1.343 . S
N133 C101 1.343 . S
N133 C108 1.343 . S
C134 C135 1.384 . S
C134 C136 1.384 . S
C134 H162 0.931 . S
C135 C134 1.384 . S
C135 C138 1.382 . S
C136 C134 1.384 . S
C136 C137 1.381 . S
C136 H163 0.930 . S
C137 C136 1.381 . S
C137 C139 1.381 . S
C137 C140 1.487 . S
C138 C135 1.382 . S
C138 C139 1.387 . S
C138 H164 0.930 . S
C139 C137 1.381 . S
C139 C138 1.387 . S
C139 H165 0.931 . S
C140 C137 1.487 . S
C140 C147 1.399 . S
C140 N178 1.343 . S
C141 C142 1.384 . S
C141 C143 1.384 . S
C141 H166 0.931 . S
C142 C141 1.384 . S
C142 C145 1.382 . S
C143 C141 1.384 . S
C143 C144 1.381 . S
C143 H167 0.930 . S
C144 C143 1.381 . S
C144 C146 1.381 . S
C144 C147 1.487 . S
C145 C142 1.382 . S
C145 C146 1.387 . S
C145 H168 0.930 . S
C146 C144 1.381 . S
C146 C145 1.387 . S
C146 H169 0.931 . S
C147 C140 1.399 . S
C147 C144 1.487 . S
C147 N179 1.343 . S
C148 C149 1.384 . S
C148 C150 1.384 . S
C148 H170 0.931 . S
C149 C148 1.384 . S
C149 C152 1.382 . S
C150 C148 1.384 . S
C150 C151 1.381 . S
C150 H171 0.930 . S
C151 C150 1.381 . S
C151 C153 1.381 . S
C151 C154 1.487 . S
C152 C149 1.382 . S
C152 C153 1.387 . S
C152 H172 0.930 . S
C153 C151 1.381 . S
C153 C152 1.387 . S
C153 H173 0.931 . S
C154 C151 1.487 . S
C154 C161 1.399 . S
C154 N179 1.343 . S
C155 C156 1.384 . S
C155 C157 1.384 . S
C155 H174 0.931 . S
C156 C155 1.384 . S
C156 C159 1.382 . S
C157 C155 1.384 . S
C157 C158 1.381 . S
C157 H175 0.930 . S
C158 C157 1.381 . S
C158 C160 1.381 . S
C158 C161 1.487 . S
C159 C156 1.382 . S
C159 C160 1.387 . S
C159 H176 0.930 . S
C160 C158 1.381 . S
C160 C159 1.387 . S
C160 H177 0.931 . S
C161 C154 1.399 . S
C161 C158 1.487 . S
C161 N178 1.343 . S
H162 C134 0.931 . S
H163 C136 0.930 . S
H164 C138 0.930 . S
H165 C139 0.931 . S
H166 C141 0.931 . S
H167 C143 0.930 . S
H168 C145 0.930 . S
H169 C146 0.931 . S
H170 C148 0.931 . S
H171 C150 0.930 . S
H172 C152 0.930 . S
H173 C153 0.931 . S
H174 C155 0.931 . S
H175 C157 0.930 . S
H176 C159 0.930 . S
H177 C160 0.931 . S
N178 C140 1.343 . S
N178 C161 1.343 . S
N179 C147 1.343 . S
N179 C154 1.343 . S
H180 C192 0.930 . S
H181 C194 0.930 . S
H182 C195 0.930 . S
H183 C199 0.959 1_655 S
H184 C199 0.959 . S
H185 C199 0.961 . S
H186 C200 0.960 . S
H187 C200 0.961 . S
H188 C200 0.959 . S
H189 C203 0.929 . S
H190 C204 0.931 . S
H191 C206 0.930 . S
C192 H180 0.930 . S
C192 C193 1.400 . S
C192 C197 1.399 . S
C193 C192 1.400 . S
C193 C194 1.373 1_455 S
C194 H181 0.930 . S
C194 C193 1.373 1_655 S
C194 C195 1.388 . S
C195 H182 0.930 . S
C195 C194 1.388 . S
C195 C196 1.390 . S
C196 C195 1.390 . S
C196 C197 1.394 1_655 S
C196 C202 1.465 . S
C197 C192 1.399 . S
C197 C196 1.394 1_455 S
C197 C198 1.516 . S
C198 C197 1.516 . S
C198 C199 1.502 . S
C198 C200 1.561 . S
C198 C201 1.526 . S
C199 H183 0.959 1_455 S
C199 H184 0.959 . S
C199 H185 0.961 . S
C199 C198 1.502 . S
C200 H186 0.960 . S
C200 H187 0.961 . S
C200 H188 0.959 . S
C200 C198 1.561 . S
C201 C198 1.526 . S
C201 C202 1.396 1_455 S
C201 C206 1.390 . S
C202 C196 1.465 . S
C202 C201 1.396 1_655 S
C202 C203 1.399 . S
C203 H189 0.929 . S
C203 C202 1.399 . S
C203 C204 1.385 . S
C204 H190 0.931 . S
C204 C203 1.385 . S
C204 C205 1.389 . S
C205 C204 1.389 . S
C205 C206 1.387 1_655 S
C206 H191 0.930 . S
C206 C201 1.390 . S
C206 C205 1.387 1_455 S
H207 C219 0.930 . S
H208 C221 0.930 . S
H209 C222 0.930 . S
H210 C226 0.959 . S
H211 C226 0.959 . S
H212 C226 0.961 . S
H213 C227 0.960 . S
H214 C227 0.961 . S
H215 C227 0.959 . S
H216 C230 0.929 . S
H217 C231 0.931 . S
H218 C233 0.930 . S
C219 H207 0.930 . S
C219 C220 1.399 1_565 S
C219 C224 1.399 . S
C220 C219 1.399 1_545 S
C220 C221 1.376 . S
C221 H208 0.930 . S
C221 C220 1.376 . S
C221 C222 1.388 . S
C222 H209 0.930 . S
C222 C221 1.388 . S
C222 C223 1.390 . S
C223 C222 1.390 . S
C223 C224 1.394 1_545 S
C223 C229 1.465 . S
C224 C219 1.399 . S
C224 C223 1.394 1_565 S
C224 C225 1.516 . S
C225 C224 1.516 . S
C225 C226 1.502 . S
C225 C227 1.561 . S
C225 C228 1.526 . S
C226 H210 0.959 . S
C226 H211 0.959 . S
C226 H212 0.961 . S
C226 C225 1.502 . S
C227 H213 0.960 . S
C227 H214 0.961 . S
C227 H215 0.959 . S
C227 C225 1.561 . S
C228 C225 1.526 . S
C228 C229 1.396 1_565 S
C228 C233 1.390 . S
C229 C223 1.465 . S
C229 C228 1.396 1_545 S
C229 C230 1.399 . S
C230 H216 0.929 . S
C230 C229 1.399 . S
C230 C231 1.385 . S
C231 H217 0.931 . S
C231 C230 1.385 . S
C231 C232 1.389 . S
C232 C231 1.389 . S
C232 C233 1.387 1_545 S
C233 H218 0.930 . S
C233 C228 1.390 . S
C233 C232 1.387 1_565 S
H234 C246 0.930 . S
H235 C248 0.930 . S
H236 C249 0.930 . S
H237 C253 0.959 . S
H238 C253 0.959 . S
H239 C253 0.961 . S
H240 C254 0.960 . S
H241 C254 0.961 . S
H242 C254 0.959 . S
H243 C257 0.929 . S
H244 C258 0.931 . S
H245 C260 0.930 . S
C246 H234 0.930 . S
C246 C247 1.399 . S
C246 C251 1.399 . S
C247 C246 1.399 . S
C247 C248 1.376 . S
C248 H235 0.930 . S
C248 C247 1.376 . S
C248 C249 1.388 . S
C249 H236 0.930 . S
C249 C248 1.388 . S
C249 C250 1.390 . S
C250 C249 1.390 . S
C250 C251 1.394 . S
C250 C256 1.465 . S
C251 C246 1.399 . S
C251 C250 1.394 . S
C251 C252 1.516 . S
C252 C251 1.516 . S
C252 C253 1.502 . S
C252 C254 1.561 . S
C252 C255 1.526 . S
C253 H237 0.959 . S
C253 H238 0.959 . S
C253 H239 0.961 . S
C253 C252 1.502 . S
C254 H240 0.960 . S
C254 H241 0.961 . S
C254 H242 0.959 . S
C254 C252 1.561 . S
C255 C252 1.526 . S
C255 C256 1.396 . S
C255 C260 1.390 . S
C256 C250 1.465 . S
C256 C255 1.396 . S
C256 C257 1.399 . S
C257 H243 0.929 . S
C257 C256 1.399 . S
C257 C258 1.385 . S
C258 H244 0.931 . S
C258 C257 1.385 . S
C258 C259 1.389 . S
C259 C258 1.389 . S
C259 C260 1.387 . S
C260 H245 0.930 . S
C260 C255 1.390 . S
C260 C259 1.387 . S
H261 C273 0.930 . S
H262 C275 0.930 . S
H263 C276 0.930 . S
H264 C280 0.959 . S
H265 C280 0.959 . S
H266 C280 0.961 . S
H267 C281 0.960 . S
H268 C281 0.961 . S
H269 C281 0.959 . S
H270 C284 0.929 . S
H271 C285 0.931 . S
H272 C287 0.930 . S
C273 H261 0.930 . S
C273 C274 1.399 1_455 S
C273 C278 1.399 . S
C274 C273 1.399 1_655 S
C274 C275 1.376 . S
C275 H262 0.930 . S
C275 C274 1.376 . S
C275 C276 1.388 . S
C276 H263 0.930 . S
C276 C275 1.388 . S
C276 C277 1.390 . S
C277 C276 1.390 . S
C277 C278 1.394 1_655 S
C277 C283 1.465 . S
C278 C273 1.399 . S
C278 C277 1.394 1_455 S
C278 C279 1.516 . S
C279 C278 1.516 . S
C279 C280 1.502 . S
C279 C281 1.561 . S
C279 C282 1.526 . S
C280 H264 0.959 . S
C280 H265 0.959 . S
C280 H266 0.961 . S
C280 C279 1.502 . S
C281 H267 0.960 . S
C281 H268 0.961 . S
C281 H269 0.959 . S
C281 C279 1.561 . S
C282 C279 1.526 . S
C282 C283 1.396 1_455 S
C282 C287 1.390 . S
C283 C277 1.465 . S
C283 C282 1.396 1_655 S
C283 C284 1.399 . S
C284 H270 0.929 . S
C284 C283 1.399 . S
C284 C285 1.385 . S
C285 H271 0.931 . S
C285 C284 1.385 . S
C285 C286 1.389 . S
C286 C285 1.389 . S
C286 C287 1.387 1_655 S
C287 H272 0.930 . S
C287 C282 1.390 . S
C287 C286 1.387 1_455 S
H288 C300 0.930 . S
H289 C302 0.930 . S
H290 C303 0.930 . S
H291 C307 0.959 . S
H292 C307 0.959 . S
H293 C307 0.961 . S
H294 C308 0.960 . S
H295 C308 0.961 . S
H296 C308 0.959 . S
H297 C311 0.929 . S
H298 C312 0.931 . S
H299 C314 0.930 . S
C300 H288 0.930 . S
C300 C301 1.399 1_565 S
C300 C305 1.399 . S
C301 C300 1.399 1_545 S
C301 C302 1.376 . S
C302 H289 0.930 . S
C302 C301 1.376 . S
C302 C303 1.388 . S
C303 H290 0.930 . S
C303 C302 1.388 . S
C303 C304 1.390 . S
C304 C303 1.390 . S
C304 C305 1.394 1_545 S
C304 C310 1.465 . S
C305 C300 1.399 . S
C305 C304 1.394 1_565 S
C305 C306 1.516 . S
C306 C305 1.516 . S
C306 C307 1.502 . S
C306 C308 1.561 . S
C306 C309 1.526 . S
C307 H291 0.959 . S
C307 H292 0.959 . S
C307 H293 0.961 . S
C307 C306 1.502 . S
C308 H294 0.960 . S
C308 H295 0.961 . S
C308 H296 0.959 . S
C308 C306 1.561 . S
C309 C306 1.526 . S
C309 C310 1.396 1_565 S
C309 C314 1.390 . S
C310 C304 1.465 . S
C310 C309 1.396 1_545 S
C310 C311 1.399 . S
C311 H297 0.929 . S
C311 C310 1.399 . S
C311 C312 1.385 . S
C312 H298 0.931 . S
C312 C311 1.385 . S
C312 C313 1.389 . S
C313 C312 1.389 . S
C313 C314 1.387 1_545 S
C314 H299 0.930 . S
C314 C309 1.390 . S
C314 C313 1.387 1_565 S
H315 C327 0.930 . S
H316 C329 0.930 . S
H317 C330 0.930 . S
H318 C334 0.959 . S
H319 C334 0.959 . S
H320 C334 0.961 . S
H321 C335 0.960 . S
H322 C335 0.961 . S
H323 C335 0.959 . S
H324 C338 0.929 . S
H325 C339 0.931 . S
H326 C341 0.930 . S
C327 H315 0.930 . S
C327 C328 1.399 . S
C327 C332 1.399 . S
C328 C327 1.399 . S
C328 C329 1.376 . S
C329 H316 0.930 . S
C329 C328 1.376 . S
C329 C330 1.388 . S
C330 H317 0.930 . S
C330 C329 1.388 . S
C330 C331 1.390 . S
C331 C330 1.390 . S
C331 C332 1.394 . S
C331 C337 1.465 . S
C332 C327 1.399 . S
C332 C331 1.394 . S
C332 C333 1.516 . S
C333 C332 1.516 . S
C333 C334 1.502 . S
C333 C335 1.561 . S
C333 C336 1.526 . S
C334 H318 0.959 . S
C334 H319 0.959 . S
C334 H320 0.961 . S
C334 C333 1.502 . S
C335 H321 0.960 . S
C335 H322 0.961 . S
C335 H323 0.959 . S
C335 C333 1.561 . S
C336 C333 1.526 . S
C336 C337 1.396 . S
C336 C341 1.390 . S
C337 C331 1.465 . S
C337 C336 1.396 . S
C337 C338 1.399 . S
C338 H324 0.929 . S
C338 C337 1.399 . S
C338 C339 1.385 . S
C339 H325 0.931 . S
C339 C338 1.385 . S
C339 C340 1.389 . S
C340 C339 1.389 . S
C340 C341 1.387 . S
C341 H326 0.930 . S
C341 C336 1.390 . S
C341 C340 1.387 . S
H342 C354 0.930 . S
H343 C356 0.930 . S
H344 C357 0.930 . S
H345 C361 0.959 . S
H346 C361 0.959 . S
H347 C361 0.961 . S
H348 C362 0.960 . S
H349 C362 0.961 . S
H350 C362 0.959 . S
H351 C365 0.929 . S
H352 C366 0.931 . S
H353 C368 0.930 . S
C354 H342 0.930 . S
C354 C355 1.399 . S
C354 C359 1.399 . S
C355 C354 1.399 . S
C355 C356 1.376 1_565 S
C356 H343 0.930 . S
C356 C355 1.376 1_545 S
C356 C357 1.388 . S
C357 H344 0.930 . S
C357 C356 1.388 . S
C357 C358 1.390 . S
C358 C357 1.390 . S
C358 C359 1.394 1_545 S
C358 C364 1.465 . S
C359 C354 1.399 . S
C359 C358 1.394 1_565 S
C359 C360 1.516 . S
C360 C359 1.516 . S
C360 C361 1.502 . S
C360 C362 1.561 . S
C360 C363 1.526 . S
C361 H345 0.959 . S
C361 H346 0.959 . S
C361 H347 0.961 . S
C361 C360 1.502 . S
C362 H348 0.960 . S
C362 H349 0.961 . S
C362 H350 0.959 . S
C362 C360 1.561 . S
C363 C360 1.526 . S
C363 C364 1.396 1_565 S
C363 C368 1.390 . S
C364 C358 1.465 . S
C364 C363 1.396 1_545 S
C364 C365 1.399 . S
C365 H351 0.929 . S
C365 C364 1.399 . S
C365 C366 1.385 . S
C366 H352 0.931 . S
C366 C365 1.385 . S
C366 C367 1.389 . S
C367 C366 1.389 . S
C367 C368 1.387 1_545 S
C368 H353 0.930 . S
C368 C363 1.390 . S
C368 C367 1.387 1_565 S
H369 C381 0.930 . S
H370 C383 0.930 . S
H371 C384 0.930 . S
H372 C388 0.959 . S
H373 C388 0.959 . S
H374 C388 0.971 . S
H375 C389 0.960 . S
H376 C389 0.961 . S
H377 C389 0.959 . S
H378 C392 0.929 . S
H379 C393 0.931 . S
H380 C395 0.930 . S
C381 H369 0.930 . S
C381 C382 1.399 . S
C381 C386 1.399 . S
C382 C381 1.399 . S
C382 C383 1.376 . S
C383 H370 0.930 . S
C383 C382 1.376 . S
C383 C384 1.388 . S
C384 H371 0.930 . S
C384 C383 1.388 . S
C384 C385 1.390 . S
C385 C384 1.390 . S
C385 C386 1.394 . S
C385 C391 1.465 1_554 S
C386 C381 1.399 . S
C386 C385 1.394 . S
C386 C387 1.516 . S
C387 C386 1.516 . S
C387 C388 1.502 1_554 S
C387 C389 1.561 . S
C387 C390 1.526 1_554 S
C388 H372 0.959 . S
C388 H373 0.959 . S
C388 H374 0.971 . S
C388 C387 1.502 1_556 S
C389 H375 0.960 . S
C389 H376 0.961 . S
C389 H377 0.959 . S
C389 C387 1.561 . S
C390 C387 1.526 1_556 S
C390 C391 1.396 . S
C390 C395 1.390 . S
C391 C385 1.465 1_556 S
C391 C390 1.396 . S
C391 C392 1.399 . S
C392 H378 0.929 . S
C392 C391 1.399 . S
C392 C393 1.385 . S
C393 H379 0.931 . S
C393 C392 1.385 . S
C393 C394 1.389 . S
C394 C393 1.389 . S
C394 C395 1.387 . S
C395 H380 0.930 . S
C395 C390 1.390 . S
C395 C394 1.387 . S
H396 C408 0.930 . S
H397 C410 0.930 . S
H398 C411 0.930 . S
H399 C415 0.959 1_655 S
H400 C415 0.959 . S
H401 C415 0.961 . S
H402 C416 0.960 . S
H403 C416 0.961 . S
H404 C416 0.959 . S
H405 C419 0.929 . S
H406 C420 0.931 . S
H407 C422 0.930 . S
C408 H396 0.930 . S
C408 C409 1.399 . S
C408 C413 1.399 . S
C409 C408 1.399 . S
C409 C410 1.376 1_455 S
C410 H397 0.930 . S
C410 C409 1.376 1_655 S
C410 C411 1.388 . S
C411 H398 0.930 . S
C411 C410 1.388 . S
C411 C412 1.390 . S
C412 C411 1.390 . S
C412 C413 1.394 1_655 S
C412 C418 1.465 . S
C413 C408 1.399 . S
C413 C412 1.394 1_455 S
C413 C414 1.516 . S
C414 C413 1.516 . S
C414 C415 1.502 . S
C414 C416 1.561 . S
C414 C417 1.526 . S
C415 H399 0.959 1_455 S
C415 H400 0.959 . S
C415 H401 0.961 . S
C415 C414 1.502 . S
C416 H402 0.960 . S
C416 H403 0.961 . S
C416 H404 0.959 . S
C416 C414 1.561 . S
C417 C414 1.526 . S
C417 C418 1.396 1_455 S
C417 C422 1.390 . S
C418 C412 1.465 . S
C418 C417 1.396 1_655 S
C418 C419 1.399 . S
C419 H405 0.929 . S
C419 C418 1.399 . S
C419 C420 1.385 . S
C420 H406 0.931 . S
C420 C419 1.385 . S
C420 C421 1.393 . S
C421 C420 1.393 . S
C421 C422 1.391 1_655 S
C422 H407 0.930 . S
C422 C417 1.390 . S
C422 C421 1.391 1_455 S
H423 C435 0.930 . S
H424 C437 0.930 . S
H425 C438 0.930 . S
H426 C442 0.959 . S
H427 C442 0.959 . S
H428 C442 0.961 . S
H429 C443 0.960 . S
H430 C443 0.961 . S
H431 C443 0.959 . S
H432 C446 0.929 . S
H433 C447 0.931 . S
H434 C449 0.930 . S
C435 H423 0.930 . S
C435 C436 1.399 . S
C435 C440 1.399 . S
C436 C435 1.399 . S
C436 C437 1.376 1_545 S
C437 H424 0.930 . S
C437 C436 1.376 1_565 S
C437 C438 1.388 . S
C438 H425 0.930 . S
C438 C437 1.388 . S
C438 C439 1.390 . S
C439 C438 1.390 . S
C439 C440 1.394 1_565 S
C439 C445 1.465 . S
C440 C435 1.399 . S
C440 C439 1.394 1_545 S
C440 C441 1.516 . S
C441 C440 1.516 . S
C441 C442 1.502 . S
C441 C443 1.561 . S
C441 C444 1.526 . S
C442 H426 0.959 . S
C442 H427 0.959 . S
C442 H428 0.961 . S
C442 C441 1.502 . S
C443 H429 0.960 . S
C443 H430 0.961 . S
C443 H431 0.959 . S
C443 C441 1.561 . S
C444 C441 1.526 . S
C444 C445 1.396 1_545 S
C444 C449 1.390 . S
C445 C439 1.465 . S
C445 C444 1.396 1_565 S
C445 C446 1.399 . S
C446 H432 0.929 . S
C446 C445 1.399 . S
C446 C447 1.385 . S
C447 H433 0.931 . S
C447 C446 1.385 . S
C447 C448 1.389 . S
C448 C447 1.389 . S
C448 C449 1.387 1_565 S
C449 H434 0.930 . S
C449 C444 1.390 . S
C449 C448 1.387 1_545 S
H450 C462 0.930 . S
H451 C464 0.930 . S
H452 C465 0.930 . S
H453 C469 0.959 1_554 S
H454 C469 0.960 . S
H455 C469 0.961 1_554 S
H456 C470 0.960 . S
H457 C470 0.961 . S
H458 C470 0.959 . S
H459 C473 0.933 . S
H460 C474 0.931 . S
H461 C476 0.930 . S
C462 H450 0.930 . S
C462 C463 1.399 . S
C462 C467 1.399 . S
C463 C462 1.399 . S
C463 C464 1.376 . S
C464 H451 0.930 . S
C464 C463 1.376 . S
C464 C465 1.388 . S
C465 H452 0.930 . S
C465 C464 1.388 . S
C465 C466 1.390 . S
C466 C465 1.390 . S
C466 C467 1.394 . S
C466 C472 1.465 1_554 S
C467 C462 1.399 . S
C467 C466 1.394 . S
C467 C468 1.516 1_554 S
C468 C467 1.516 1_556 S
C468 C469 1.502 . S
C468 C470 1.561 . S
C468 C471 1.526 . S
C469 H453 0.959 1_556 S
C469 H454 0.960 . S
C469 H455 0.961 1_556 S
C469 C468 1.502 . S
C470 H456 0.960 . S
C470 H457 0.961 . S
C470 H458 0.959 . S
C470 C468 1.561 . S
C471 C468 1.526 . S
C471 C472 1.396 . S
C471 C476 1.390 . S
C472 C466 1.465 1_556 S
C472 C471 1.396 . S
C472 C473 1.399 . S
C473 H459 0.933 . S
C473 C472 1.399 . S
C473 C474 1.385 . S
C474 H460 0.931 . S
C474 C473 1.385 . S
C474 C475 1.389 . S
C475 C474 1.389 . S
C475 C476 1.387 . S
C476 H461 0.930 . S
C476 C471 1.390 . S
C476 C475 1.387 . S
H477 C489 0.930 . S
H478 C491 0.930 . S
H479 C492 0.930 . S
H480 C496 0.959 . S
H481 C496 0.959 . S
H482 C496 0.961 . S
H483 C497 0.960 . S
H484 C497 0.961 . S
H485 C497 0.959 1_455 S
H486 C500 0.929 . S
H487 C501 0.931 . S
H488 C503 0.930 . S
C489 H477 0.930 . S
C489 C490 1.390 1_655 S
C489 C494 1.399 . S
C490 C489 1.390 1_455 S
C490 C491 1.383 . S
C491 H478 0.930 . S
C491 C490 1.383 . S
C491 C492 1.388 . S
C492 H479 0.930 . S
C492 C491 1.388 . S
C492 C493 1.390 . S
C493 C492 1.390 . S
C493 C494 1.394 1_455 S
C493 C499 1.465 . S
C494 C489 1.399 . S
C494 C493 1.394 1_655 S
C494 C495 1.516 . S
C495 C494 1.516 . S
C495 C496 1.502 . S
C495 C497 1.561 . S
C495 C498 1.526 . S
C496 H480 0.959 . S
C496 H481 0.959 . S
C496 H482 0.961 . S
C496 C495 1.502 . S
C497 H483 0.960 . S
C497 H484 0.961 . S
C497 H485 0.959 1_655 S
C497 C495 1.561 . S
C498 C495 1.526 . S
C498 C499 1.396 1_655 S
C498 C503 1.390 . S
C499 C493 1.465 . S
C499 C498 1.396 1_455 S
C499 C500 1.399 . S
C500 H486 0.929 . S
C500 C499 1.399 . S
C500 C501 1.385 . S
C501 H487 0.931 . S
C501 C500 1.385 . S
C501 C502 1.389 . S
C502 C501 1.389 . S
C502 C503 1.387 1_455 S
C503 H488 0.930 . S
C503 C498 1.390 . S
C503 C502 1.387 1_655 S
C205 C50 1.480 . S
C193 C6 1.437 1_455 S
C220 C22 1.558 . S
C232 C89 1.600 1_545 S
C247 C34 1.218 . S
C259 C156 1.272 . S
C274 C7 1.473 1_655 S
C286 C57 1.479 . S
C313 C110 1.599 1_545 S
C301 C23 1.586 1_545 S
C328 C35 1.248 . S
C340 C135 1.265 . S
C367 C96 1.593 . S
C355 C36 1.586 . S
C382 C9 1.801 . S
C394 C149 1.827 . S
C421 C64 1.470 1_655 S
C409 C21 1.436 1_455 S
C448 C103 1.598 1_565 S
C436 C37 1.580 . S
C475 C142 1.825 . S
C463 C8 1.762 . S
C490 C20 1.447 . S
C502 C43 1.469 . S
