# Generated by pormake.
# Topology anh, (6,3)-cn, num edge types: 1
# Building blocks:
#     Node 0, Type 0, BuildingBlock: CUWYAW_clean_sbu_0, # of connection points: 6
#     Node 1, Type 0, BuildingBlock: CUWYAW_clean_sbu_0, # of connection points: 6
#     Node 2, Type 0, BuildingBlock: CUWYAW_clean_sbu_0, # of connection points: 6
#     Node 3, Type 1, BuildingBlock: ESEHIV_clean_linker_0, # of connection points: 3
#     Node 4, Type 1, BuildingBlock: ESEHIV_clean_linker_0, # of connection points: 3
#     Node 5, Type 1, BuildingBlock: ESEHIV_clean_linker_0, # of connection points: 3
#     Node 6, Type 1, BuildingBlock: ESEHIV_clean_linker_0, # of connection points: 3
#     Node 7, Type 1, BuildingBlock: ESEHIV_clean_linker_0, # of connection points: 3
#     Node 8, Type 1, BuildingBlock: ESEHIV_clean_linker_0, # of connection points: 3
#     Edge 9, Type (0, 1), BuildingBlock: TEMPAE_clean_linker_10, # of connection points: 2
#     Edge 10, Type (0, 1), BuildingBlock: TEMPAE_clean_linker_10, # of connection points: 2
#     Edge 11, Type (0, 1), BuildingBlock: TEMPAE_clean_linker_10, # of connection points: 2
#     Edge 12, Type (0, 1), BuildingBlock: TEMPAE_clean_linker_10, # of connection points: 2
#     Edge 13, Type (0, 1), BuildingBlock: TEMPAE_clean_linker_10, # of connection points: 2
#     Edge 14, Type (0, 1), BuildingBlock: TEMPAE_clean_linker_10, # of connection points: 2
#     Edge 15, Type (0, 1), BuildingBlock: TEMPAE_clean_linker_10, # of connection points: 2
#     Edge 16, Type (0, 1), BuildingBlock: TEMPAE_clean_linker_10, # of connection points: 2
#     Edge 17, Type (0, 1), BuildingBlock: TEMPAE_clean_linker_10, # of connection points: 2
#     Edge 18, Type (0, 1), BuildingBlock: TEMPAE_clean_linker_10, # of connection points: 2
#     Edge 19, Type (0, 1), BuildingBlock: TEMPAE_clean_linker_10, # of connection points: 2
#     Edge 20, Type (0, 1), BuildingBlock: TEMPAE_clean_linker_10, # of connection points: 2
#     Edge 21, Type (0, 1), BuildingBlock: TEMPAE_clean_linker_10, # of connection points: 2
#     Edge 22, Type (0, 1), BuildingBlock: TEMPAE_clean_linker_10, # of connection points: 2
#     Edge 23, Type (0, 1), BuildingBlock: TEMPAE_clean_linker_10, # of connection points: 2
#     Edge 24, Type (0, 1), BuildingBlock: TEMPAE_clean_linker_10, # of connection points: 2
#     Edge 25, Type (0, 1), BuildingBlock: TEMPAE_clean_linker_10, # of connection points: 2
#     Edge 26, Type (0, 1), BuildingBlock: TEMPAE_clean_linker_10, # of connection points: 2
# Relax obj value: 0.308
# Max RMSD: 0.193
# Mean RMSD: 0.164
data_MOF--net-anh--node1-CUWYAW_clean_sbu_0--node2-ESEHIV_clean_linker_0--edge1-TEMPAE_clean_linker_10
_symmetry_space_group_name_H-M    P1
_symmetry_Int_Tables_number       1
_symmetry_cell_setting            triclinic
loop_
_symmetry_equiv_pos_as_xyz
'x, y, z'
_cell_length_a     30.137972
_cell_length_b     30.091061
_cell_length_c     52.157162
_cell_angle_alpha  90.123352
_cell_angle_beta   89.93874
_cell_angle_gamma 120.01208
loop_
_atom_site_label
_atom_site_type_symbol
_atom_site_fract_x
_atom_site_fract_y
_atom_site_fract_z
_atom_type_partial_charge
C0 C 1.02759 0.4036 0.14076 0.0
Eu1 Eu 0.09215 0.49806 0.15273 0.0
C2 C 0.97361 0.37363 0.14881 0.0
C3 C 0.96073 0.37396 0.17467 0.0
C4 C 0.91015 0.35638 0.18177 0.0
C5 C 0.87111 0.33801 0.16323 0.0
C6 C 0.88356 0.33546 0.13747 0.0
C7 C 0.93449 0.35312 0.13033 0.0
C8 C 0.10765 0.52725 0.20344 0.0
C9 C 1.01754 0.55464 0.15025 0.0
C10 C 0.19571 0.69957 0.17422 0.0
Eu11 Eu 0.14302 0.60623 0.15776 0.0
C12 C 0.22557 0.75241 0.18402 0.0
C13 C 0.24477 0.79432 0.16718 0.0
C14 C 0.26861 0.8444 0.17676 0.0
C15 C 0.27327 0.8533 0.20333 0.0
C16 C 0.25524 0.81137 0.22012 0.0
C17 C 0.23169 0.76137 0.21056 0.0
C18 C 0.12307 0.5729 0.10873 0.0
C19 C 0.21893 0.55203 0.14886 0.0
O20 O 1.03763 0.4421 0.12567 0.0
O21 O 1.06206 0.41619 0.15878 0.0
O22 O 0.11345 0.49101 0.19354 0.0
O23 O 0.09292 0.54659 0.18609 0.0
O24 O 1.02176 0.51281 0.14606 0.0
O25 O 1.0604 0.59685 0.15769 0.0
O26 O 0.18151 0.65972 0.1891 0.0
O27 O 0.18276 0.68882 0.15011 0.0
O28 O 0.11621 0.60949 0.11741 0.0
O29 O 0.14129 0.55763 0.12593 0.0
O30 O 0.21584 0.59321 0.15676 0.0
O31 O 0.17416 0.50972 0.14359 0.0
H32 H 0.99002 0.39056 0.18935 0.0
H33 H 0.90216 0.35985 0.2017 0.0
H34 H 0.85422 0.32112 0.12279 0.0
H35 H 0.94366 0.35325 0.11023 0.0
H36 H 0.24037 0.78842 0.14663 0.0
H37 H 0.28208 0.87609 0.16341 0.0
H38 H 0.25913 0.81724 0.24068 0.0
H39 H 0.21714 0.72974 0.22399 0.0
C40 C 0.5279 0.14861 0.47846 0.0
Eu41 Eu 0.56146 0.08576 0.48859 0.0
C42 C 0.55495 0.20462 0.47511 0.0
C43 C 0.60456 0.23035 0.46472 0.0
C44 C 0.63507 0.28343 0.46726 0.0
C45 C 0.61633 0.31189 0.48005 0.0
C46 C 0.56446 0.2865 0.48766 0.0
C47 C 0.53426 0.2332 0.48551 0.0
C48 C 0.57481 0.05903 0.53691 0.0
C49 C 0.69315 0.16019 0.48485 0.0
C50 C 0.65822 0.97653 0.49913 0.0
Eu51 Eu 0.61928 1.03426 0.48797 0.0
C52 C 0.70646 0.97811 0.50621 0.0
C53 C 0.73357 0.96734 0.48762 0.0
C54 C 0.77315 0.95861 0.49484 0.0
C55 C 0.78611 0.96004 0.52082 0.0
C56 C 0.76162 0.97459 0.53919 0.0
C57 C 0.72203 0.98338 0.53198 0.0
C58 C 0.60913 0.06634 0.44146 0.0
C59 C 0.48801 0.9596 0.48195 0.0
O60 O 0.5361 0.12256 0.4609 0.0
O61 O 0.52958 0.13302 0.50162 0.0
O62 O 0.5317 0.05239 0.52799 0.0
O63 O 0.60917 0.07866 0.51968 0.0
O64 O 0.64697 0.15696 0.48401 0.0
O65 O 0.69312 0.11611 0.48825 0.0
O66 O 0.63687 0.99204 0.51613 0.0
O67 O 0.65402 0.98936 0.4757 0.0
O68 O 0.65162 0.07005 0.44947 0.0
O69 O 0.57422 1.04406 0.45792 0.0
O70 O 0.53371 0.96206 0.48462 0.0
O71 O 0.48867 1.00439 0.48222 0.0
H72 H 0.62097 0.20928 0.45594 0.0
H73 H 0.67442 0.30125 0.46082 0.0
H74 H 0.54792 0.30737 0.49661 0.0
H75 H 0.49575 0.2141 0.49327 0.0
H76 H 0.72237 0.96284 0.46763 0.0
H77 H 0.79167 0.94784 0.48026 0.0
H78 H 0.77035 0.97541 0.55939 0.0
H79 H 0.70179 0.99138 0.5468 0.0
C80 C 0.76619 0.64347 0.8029 0.0
Eu81 Eu 0.672 0.60743 0.81807 0.0
C82 C 0.79502 0.61637 0.79899 0.0
C83 C 0.83552 0.62641 0.81566 0.0
C84 C 0.85034 0.58968 0.81907 0.0
C85 C 0.82501 0.54303 0.80567 0.0
C86 C 0.79051 0.53667 0.78615 0.0
C87 C 0.77526 0.57301 0.7829 0.0
C88 C 0.64394 0.59576 0.86892 0.0
C89 C 0.61776 0.47631 0.81677 0.0
C90 C 0.47037 0.50627 0.84011 0.0
Eu91 Eu 0.56442 0.54812 0.82416 0.0
C92 C 0.42347 0.5097 0.84007 0.0
C93 C 0.39712 0.50596 0.8172 0.0
C94 C 0.34707 0.49724 0.81807 0.0
C95 C 0.32287 0.4923 0.84177 0.0
C96 C 0.35092 0.50019 0.8645 0.0
C97 C 0.40074 0.50869 0.86363 0.0
C98 C 0.59529 0.55978 0.77472 0.0
C99 C 0.61559 0.67812 0.81567 0.0
O100 O 0.72813 0.63154 0.78719 0.0
O101 O 0.75373 0.64566 0.82669 0.0
O102 O 0.67822 0.63835 0.85847 0.0
O103 O 0.62543 0.56063 0.85201 0.0
O104 O 0.65816 0.52237 0.81073 0.0
O105 O 0.57676 0.47701 0.82597 0.0
O106 O 0.50933 0.53973 0.85374 0.0
O107 O 0.48381 0.49422 0.81853 0.0
O108 O 0.56035 0.51645 0.78409 0.0
O109 O 0.61056 0.59406 0.79161 0.0
O110 O 0.57427 0.6327 0.82199 0.0
O111 O 0.65926 0.6777 0.8118 0.0
H112 H 0.85161 0.65977 0.82809 0.0
H113 H 0.87709 0.59514 0.83428 0.0
H114 H 0.77149 0.50127 0.77531 0.0
H115 H 0.74444 0.56442 0.7696 0.0
H116 H 0.41396 0.50687 0.79871 0.0
H117 H 0.32645 0.49188 0.80028 0.0
H118 H 0.33316 0.496 0.88309 0.0
H119 H 0.42027 0.51116 0.88147 0.0
H120 H 0.47714 0.19308 0.31391 0.0
H121 H 0.62303 0.30498 0.28416 0.0
H122 H 0.49405 0.22744 0.23353 0.0
C123 C 0.49957 0.21785 0.29824 0.0
C124 C 0.47919 0.20673 0.27337 0.0
C125 C 0.55161 0.25301 0.30217 0.0
C126 C 0.58202 0.28128 0.28134 0.0
C127 C 0.56148 0.27261 0.25641 0.0
C128 C 0.50926 0.23685 0.25284 0.0
H129 H 0.84902 0.71482 0.63471 0.0
H130 H 0.79989 0.56406 0.60536 0.0
H131 H 0.87093 0.69398 0.55501 0.0
C132 C 0.84843 0.69043 0.61922 0.0
C133 C 0.86482 0.71133 0.59463 0.0
C134 C 0.82465 0.63731 0.62311 0.0
C135 C 0.82088 0.60533 0.60266 0.0
C136 C 0.83833 0.62568 0.5781 0.0
C137 C 0.86094 0.6788 0.57431 0.0
H138 H 0.88681 0.35413 0.95639 0.0
H139 H 1.02781 0.35546 0.94339 0.0
H140 H 0.91948 0.31359 0.88232 0.0
C141 C 0.91007 0.34465 0.9442 0.0
C142 C 0.89628 0.33143 0.91834 0.0
C143 C 0.95776 0.35377 0.9532 0.0
C144 C 0.9897 0.3452 0.93685 0.0
C145 C 0.97615 0.33113 0.91118 0.0
C146 C 0.92827 0.32165 0.90252 0.0
H147 H 1.02536 0.48192 0.40338 0.0
H148 H 0.16425 0.62626 0.40292 0.0
H149 H 0.08696 0.56271 0.47526 0.0
C150 C 1.05306 0.51495 0.41416 0.0
C151 C 1.04682 0.51528 0.44116 0.0
C152 C 0.09415 0.55462 0.40033 0.0
C153 C 0.13311 0.59677 0.41396 0.0
C154 C 0.13362 0.60275 0.441 0.0
C155 C 0.08924 0.56016 0.45466 0.0
H156 H 0.61816 0.1478 0.73633 0.0
H157 H 0.60665 1.00051 0.73681 0.0
H158 H 0.6078 0.07321 0.80897 0.0
C159 C 0.613 0.11517 0.74735 0.0
C160 C 0.61028 0.11744 0.77446 0.0
C161 C 0.61047 0.0733 0.73365 0.0
C162 C 0.60829 1.03196 0.74761 0.0
C163 C 0.60795 1.0292 0.77479 0.0
C164 C 0.60922 0.07359 0.78825 0.0
H165 H 0.54728 0.55298 0.06912 0.0
H166 H 0.69124 0.55809 0.06862 0.0
H167 H 0.62148 0.55913 0.14144 0.0
C168 C 0.57932 0.55636 0.08003 0.0
C169 C 0.57715 0.558 0.10719 0.0
C170 C 0.62028 0.55769 0.06611 0.0
C171 C 0.66104 0.55806 0.07979 0.0
C172 C 0.6647 0.55863 0.107 0.0
C173 C 0.62083 0.55802 0.12071 0.0
C174 C 0.32052 0.59252 0.15481 0.0
C175 C 0.27261 0.55344 0.14483 0.0
C176 C 0.36914 0.59353 0.15128 0.0
C177 C 0.37371 0.55536 0.13659 0.0
C178 C 0.32555 0.51612 0.12631 0.0
C179 C 0.2773 0.51531 0.13068 0.0
C180 C 0.41638 0.63632 0.16366 0.0
C181 C 0.32487 0.47445 0.11 0.0
C182 C 0.50844 0.58855 0.10447 0.0
C183 C 0.52834 0.56096 0.11815 0.0
C184 C 0.46039 0.58683 0.11006 0.0
C185 C 0.42783 0.55785 0.13091 0.0
C186 C 0.44819 0.5314 0.14568 0.0
C187 C 0.49634 0.53278 0.13923 0.0
C188 C 0.44376 0.61583 0.09273 0.0
C189 C 0.41836 0.50043 0.16854 0.0
H190 H 0.32023 0.62287 0.16588 0.0
H191 H 0.24262 0.48435 0.12237 0.0
H192 H 0.43753 0.62057 0.17412 0.0
H193 H 0.44235 0.6625 0.14866 0.0
H194 H 0.40711 0.65902 0.17722 0.0
H195 H 0.286 0.44726 0.10254 0.0
H196 H 0.35142 0.49178 0.09353 0.0
H197 H 0.33867 0.45264 0.12136 0.0
H198 H 0.53067 0.61192 0.08845 0.0
H199 H 0.50808 0.51031 0.15055 0.0
H200 H 0.44098 0.64579 0.10386 0.0
H201 H 0.40509 0.58934 0.08486 0.0
H202 H 0.47065 0.63453 0.07651 0.0
H203 H 0.40677 0.52319 0.18073 0.0
H204 H 0.44071 0.48781 0.18033 0.0
H205 H 0.38283 0.46593 0.16193 0.0
C206 C 0.74918 0.2626 0.48295 0.0
C207 C 0.7454 0.21361 0.48078 0.0
C208 C 0.7963 0.31135 0.47904 0.0
C209 C 0.84413 0.31467 0.47173 0.0
C210 C 0.84025 0.26511 0.46923 0.0
C211 C 0.7929 0.21705 0.47405 0.0
C212 C 0.79367 0.35959 0.48291 0.0
C213 C 0.8865 0.26197 0.46097 0.0
C214 C 0.94814 0.44554 0.43719 0.0
C215 C 0.99431 0.4675 0.45206 0.0
C216 C 0.90154 0.39795 0.44302 0.0
C217 C 0.89607 0.36827 0.46555 0.0
C218 C 0.94157 0.39117 0.48152 0.0
C219 C 0.98872 0.43852 0.47466 0.0
C220 C 0.85811 0.37967 0.42405 0.0
C221 C 0.94167 0.36592 0.50636 0.0
H222 H 0.71476 0.26324 0.48823 0.0
H223 H 0.79313 0.18135 0.47191 0.0
H224 H 0.83161 0.39323 0.48749 0.0
H225 H 0.77896 0.3678 0.46513 0.0
H226 H 0.76645 0.35448 0.49855 0.0
H227 H 0.87537 0.22413 0.4522 0.0
H228 H 0.91017 0.29257 0.447 0.0
H229 H 0.91045 0.26678 0.47803 0.0
H230 H 0.94819 0.46563 0.41997 0.0
H231 H 1.02182 0.45208 0.48707 0.0
H232 H 0.83532 0.39843 0.42845 0.0
H233 H 0.83233 0.33745 0.42454 0.0
H234 H 0.87299 0.39081 0.40421 0.0
H235 H 0.90245 0.33902 0.51341 0.0
H236 H 0.96259 0.39536 0.52137 0.0
H237 H 0.96238 0.34445 0.50355 0.0
C238 C 0.65281 0.77417 0.79926 0.0
C239 C 0.61332 0.72991 0.81185 0.0
C240 C 0.65151 0.82136 0.795 0.0
C241 C 0.61041 0.82864 0.804 0.0
C242 C 0.5708 0.78434 0.81719 0.0
C243 C 0.57232 0.73695 0.82045 0.0
C244 C 0.69484 0.86382 0.78019 0.0
C245 C 0.5255 0.78592 0.82834 0.0
C246 C 0.63565 0.97492 0.8059 0.0
C247 C 0.60463 0.9776 0.786 0.0
C248 C 0.63708 0.92824 0.81233 0.0
C249 C 0.60793 0.88033 0.79853 0.0
C250 C 0.57619 0.88288 0.77881 0.0
C251 C 0.57436 0.92921 0.77339 0.0
C252 C 0.67124 0.93144 0.83413 0.0
C253 C 0.54406 0.83617 0.76251 0.0
H254 H 0.6853 0.7718 0.79207 0.0
H255 H 0.54081 0.70513 0.83029 0.0
H256 H 0.67974 0.87938 0.76545 0.0
H257 H 0.71921 0.89558 0.79349 0.0
H258 H 0.71925 0.85073 0.77062 0.0
H259 H 0.51438 0.76554 0.84702 0.0
H260 H 0.53307 0.82565 0.83124 0.0
H261 H 0.49229 0.7655 0.81523 0.0
H262 H 0.66038 1.00996 0.81629 0.0
H263 H 0.54888 0.92739 0.75828 0.0
H264 H 0.71102 0.94778 0.82692 0.0
H265 H 0.6591 0.89332 0.8427 0.0
H266 H 0.67173 0.95754 0.84936 0.0
H267 H 0.56641 0.8176 0.75669 0.0
H268 H 0.52962 0.84564 0.74497 0.0
H269 H 0.5106 0.80792 0.77378 0.0
C270 C 0.95543 0.59393 0.15529 0.0
C271 C 0.96449 0.55441 0.1461 0.0
C272 C 0.90769 0.59447 0.15152 0.0
C273 C 0.86496 0.55533 0.13731 0.0
C274 C 0.87391 0.51539 0.12795 0.0
C275 C 0.92159 0.51511 0.13253 0.0
C276 C 0.90303 0.63778 0.16316 0.0
C277 C 0.83286 0.47258 0.11225 0.0
C278 C 0.72008 0.53389 0.13947 0.0
C279 C 0.71635 0.5612 0.11795 0.0
C280 C 0.76658 0.53215 0.14611 0.0
C281 C 0.81333 0.55756 0.13121 0.0
C282 C 0.80987 0.58568 0.10993 0.0
C283 C 0.76385 0.58784 0.10417 0.0
C284 C 0.76559 0.50313 0.16976 0.0
C285 C 0.85541 0.61347 0.09239 0.0
H286 H 0.9861 0.62513 0.1659 0.0
H287 H 0.92546 0.48375 0.12483 0.0
H288 H 0.90213 0.66262 0.14774 0.0
H289 H 0.86654 0.62233 0.17399 0.0
H290 H 0.9354 0.66178 0.17624 0.0
H291 H 0.84196 0.44181 0.10805 0.0
H292 H 0.79559 0.45562 0.12242 0.0
H293 H 0.82827 0.48829 0.09384 0.0
H294 H 0.68606 0.51258 0.15109 0.0
H295 H 0.76549 0.61111 0.08801 0.0
H296 H 0.78481 0.48044 0.16621 0.0
H297 H 0.72589 0.47705 0.17655 0.0
H298 H 0.78709 0.53099 0.18526 0.0
H299 H 0.888 0.64445 0.1031 0.0
H300 H 0.84701 0.63069 0.07559 0.0
H301 H 0.86786 0.58656 0.08535 0.0
C302 C 0.38605 0.90113 0.48153 0.0
C303 C 0.43537 0.90627 0.47813 0.0
C304 C 0.33773 0.85331 0.47821 0.0
C305 C 0.33496 0.80612 0.47004 0.0
C306 C 0.38478 0.81126 0.4663 0.0
C307 C 0.4326 0.85927 0.47072 0.0
C308 C 0.28937 0.85459 0.48391 0.0
C309 C 0.38851 0.76573 0.45717 0.0
C310 C 0.21266 0.66046 0.47339 0.0
C311 C 0.18151 0.65536 0.45175 0.0
C312 C 0.26035 0.70768 0.47981 0.0
C313 C 0.28146 0.7537 0.46426 0.0
C314 C 0.24974 0.74859 0.44265 0.0
C315 C 0.2018 0.70198 0.43733 0.0
C316 C 0.28804 0.70703 0.50366 0.0
C317 C 0.26631 0.79251 0.42413 0.0
H318 H 0.38478 0.93508 0.48731 0.0
H319 H 0.4685 0.85996 0.46771 0.0
H320 H 0.28107 0.87305 0.46766 0.0
H321 H 0.2558 0.81585 0.48706 0.0
H322 H 0.29467 0.87837 0.5012 0.0
H323 H 0.42532 0.77793 0.44709 0.0
H324 H 0.3869 0.7425 0.474 0.0
H325 H 0.35649 0.74095 0.44409 0.0
H326 H 0.20057 0.62691 0.48532 0.0
H327 H 0.1801 0.70219 0.42084 0.0
H328 H 0.31493 0.74616 0.51092 0.0
H329 H 0.30993 0.68725 0.49939 0.0
H330 H 0.26019 0.68493 0.51906 0.0
H331 H 0.25019 0.81676 0.43042 0.0
H332 H 0.2515 0.77832 0.40453 0.0
H333 H 0.30862 0.8168 0.42306 0.0
C334 C 0.65537 0.41845 0.79851 0.0
C335 C 0.61744 0.42316 0.81268 0.0
C336 C 0.65466 0.37012 0.79427 0.0
C337 C 0.61487 0.32177 0.80413 0.0
C338 C 0.57656 0.32631 0.81854 0.0
C339 C 0.57815 0.37512 0.82241 0.0
C340 C 0.6976 0.37112 0.77904 0.0
C341 C 0.53279 0.2787 0.83009 0.0
C342 C 0.58277 0.18837 0.77069 0.0
C343 C 0.60772 0.16661 0.78516 0.0
C344 C 0.58496 0.23662 0.77644 0.0
C345 C 0.61173 0.26741 0.79821 0.0
C346 C 0.63501 0.24489 0.81379 0.0
C347 C 0.63333 0.19665 0.80721 0.0
C348 C 0.55866 0.25528 0.75847 0.0
C349 C 0.66315 0.27276 0.83756 0.0
H350 H 0.68605 0.45313 0.79023 0.0
H351 H 0.54773 0.37539 0.83335 0.0
H352 H 0.72199 0.36322 0.79203 0.0
H353 H 0.68212 0.3407 0.76412 0.0
H354 H 0.72197 0.40872 0.76963 0.0
H355 H 0.50744 0.28732 0.84201 0.0
H356 H 0.50955 0.25172 0.81462 0.0
H357 H 0.54783 0.25882 0.84214 0.0
H358 H 0.561 0.16744 0.75398 0.0
H359 H 0.65351 0.18327 0.81925 0.0
H360 H 0.587 0.2935 0.75075 0.0
H361 H 0.52932 0.26001 0.76904 0.0
H362 H 0.53983 0.22862 0.74214 0.0
H363 H 0.69657 0.3098 0.83186 0.0
H364 H 0.67657 0.25062 0.84896 0.0
H365 H 0.63824 0.28143 0.84977 0.0
C366 C 0.80668 0.88976 0.51954 0.0
C367 C 0.8178 0.93772 0.52922 0.0
C368 C 0.82744 0.86205 0.53079 0.0
C369 C 0.86068 0.88309 0.55211 0.0
C370 C 0.87585 0.9335 0.56047 0.0
C371 C 0.85367 0.96009 0.5491 0.0
C372 C 0.80981 0.80822 0.52134 0.0
C373 C 0.91254 0.95792 0.58254 0.0
C374 C 0.83724 0.77642 0.5973 0.0
C375 C 0.87323 0.76319 0.5887 0.0
C376 C 0.83578 0.81859 0.58711 0.0
C377 C 0.87148 0.84861 0.56792 0.0
C378 C 0.91115 0.83867 0.56104 0.0
C379 C 0.91125 0.79558 0.57132 0.0
C380 C 0.79257 0.82754 0.59496 0.0
C381 C 0.95097 0.87093 0.54134 0.0
H382 H 0.77858 0.87199 0.50438 0.0
H383 H 0.86281 0.99747 0.55644 0.0
H384 H 0.84308 0.80271 0.51802 0.0
H385 H 0.7853 0.78012 0.53613 0.0
H386 H 0.78747 0.79932 0.50326 0.0
H387 H 0.92999 1.00034 0.58251 0.0
H388 H 0.89163 0.94315 0.60089 0.0
H389 H 0.94354 0.94822 0.58189 0.0
H390 H 0.80728 0.75128 0.61045 0.0
H391 H 0.93944 0.78574 0.56481 0.0
H392 H 0.76517 0.81725 0.57881 0.0
H393 H 0.80741 0.86858 0.59952 0.0
H394 H 0.77134 0.80425 0.6119 0.0
H395 H 0.93454 0.85872 0.52185 0.0
H396 H 0.98538 0.86658 0.54276 0.0
H397 H 0.96285 0.9121 0.54354 0.0
C398 C 0.86594 0.49221 0.81861 0.0
C399 C 0.82263 0.49757 0.81732 0.0
C400 C 0.86612 0.45462 0.83439 0.0
C401 C 0.82241 0.42306 0.84961 0.0
C402 C 0.77777 0.42703 0.84735 0.0
C403 C 0.77841 0.46412 0.83105 0.0
C404 C 0.91435 0.45124 0.83622 0.0
C405 C 0.7309 0.39621 0.86377 0.0
C406 C 0.83416 0.31816 0.88317 0.0
C407 C 0.85983 0.34408 0.90562 0.0
C408 C 0.81858 0.34192 0.86505 0.0
C409 C 0.82665 0.39162 0.87022 0.0
C410 C 0.84551 0.41454 0.89444 0.0
C411 C 0.86208 0.3906 0.91181 0.0
C412 C 0.79912 0.31561 0.83951 0.0
C413 C 0.85397 0.46722 0.90089 0.0
H414 H 0.90017 0.51875 0.80816 0.0
H415 H 0.74547 0.46956 0.83055 0.0
H416 H 0.93089 0.46268 0.85575 0.0
H417 H 0.90531 0.4111 0.83303 0.0
H418 H 0.94377 0.47636 0.82205 0.0
H419 H 0.69551 0.38574 0.85269 0.0
H420 H 0.72862 0.3608 0.87147 0.0
H421 H 0.73178 0.42016 0.88017 0.0
H422 H 0.83101 0.28155 0.8785 0.0
H423 H 0.8818 0.41137 0.92898 0.0
H424 H 0.83119 0.31568 0.82898 0.0
H425 H 0.78311 0.33426 0.82729 0.0
H426 H 0.76944 0.27483 0.84252 0.0
H427 H 0.88478 0.49629 0.88851 0.0
H428 H 0.86515 0.47781 0.92124 0.0
H429 H 0.81872 0.46904 0.89712 0.0
C430 C 0.34251 0.94528 0.2036 0.0
C431 C 0.29632 0.9061 0.21363 0.0
C432 C 0.36604 0.99484 0.21406 0.0
C433 C 0.34245 1.0054 0.23488 0.0
C434 C 0.29494 0.96642 0.2445 0.0
C435 C 0.27251 0.91708 0.23381 0.0
C436 C 0.41715 1.03531 0.20352 0.0
C437 C 0.26862 0.97644 0.26656 0.0
C438 C 0.43683 0.1121 0.27759 0.0
C439 C 0.43566 0.15483 0.26764 0.0
C440 C 0.40465 0.06279 0.26798 0.0
C441 C 0.37013 0.05586 0.24799 0.0
C442 C 0.36605 0.0981 0.23908 0.0
C443 C 0.39924 0.14735 0.2489 0.0
C444 C 0.41068 1.0189 0.27785 0.0
C445 C 0.32899 0.09182 0.21805 0.0
H446 H 0.36111 0.93673 0.18811 0.0
H447 H 0.23634 0.88694 0.24132 0.0
H448 H 0.41559 0.07016 0.19818 0.0
H449 H 0.4471 1.04672 0.21847 0.0
H450 H 0.42892 1.02165 0.18641 0.0
H451 H 0.22977 0.94334 0.27028 0.0
H452 H 0.29191 0.98441 0.28422 0.0
H453 H 0.26528 1.01086 0.26261 0.0
H454 H 0.46571 0.11755 0.29159 0.0
H455 H 0.39841 0.1803 0.24111 0.0
H456 H 0.42783 1.00635 0.26264 0.0
H457 H 0.37285 0.9855 0.28274 0.0
H458 H 0.43567 1.02979 0.29507 0.0
H459 H 0.34259 0.08459 0.19958 0.0
H460 H 0.32522 0.12651 0.2159 0.0
H461 H 0.29059 0.05826 0.22192 0.0
C462 C 0.69614 0.39841 0.47436 0.0
C463 C 0.65232 0.36541 0.4887 0.0
C464 C 0.73401 0.44567 0.48447 0.0
C465 C 0.72719 0.4608 0.50918 0.0
C466 C 0.68198 0.42893 0.52317 0.0
C467 C 0.64561 0.38154 0.51294 0.0
C468 C 0.78208 0.47831 0.46917 0.0
C469 C 0.67276 0.44394 0.54949 0.0
C470 C 0.82853 0.54727 0.55626 0.0
C471 C 0.82194 0.59014 0.55594 0.0
C472 C 0.80196 0.50671 0.53892 0.0
C473 C 0.76736 0.5089 0.5213 0.0
C474 C 0.76438 0.55422 0.51933 0.0
C475 C 0.79191 0.59447 0.53667 0.0
C476 C 0.80723 0.45956 0.5411 0.0
C477 C 0.72784 0.55807 0.50092 0.0
H478 H 0.70155 0.38685 0.45547 0.0
H479 H 0.61289 0.35623 0.52461 0.0
H480 H 0.79021 0.51853 0.46822 0.0
H481 H 0.81518 0.47894 0.47881 0.0
H482 H 0.77937 0.46359 0.44934 0.0
H483 H 0.63412 0.4164 0.55707 0.0
H484 H 0.70183 0.4457 0.56314 0.0
H485 H 0.67675 0.48263 0.5489 0.0
H486 H 0.8521 0.54417 0.57104 0.0
H487 H 0.78637 0.62741 0.5365 0.0
H488 H 0.81084 0.44608 0.52183 0.0
H489 H 0.77235 0.42815 0.55022 0.0
H490 H 0.841 0.46684 0.55281 0.0
H491 H 0.73701 0.59843 0.4983 0.0
H492 H 0.68825 0.53563 0.50854 0.0
H493 H 0.72849 0.54173 0.48194 0.0
C494 C 0.23351 0.42814 0.82897 0.0
C495 C 0.26695 0.47175 0.8433 0.0
C496 C 0.18093 0.40089 0.83443 0.0
C497 C 0.16183 0.41749 0.85482 0.0
C498 C 0.19473 0.46382 0.86791 0.0
C499 C 0.24693 0.49058 0.86186 0.0
C500 C 0.14672 0.35243 0.81963 0.0
C501 C 0.17558 0.48319 0.88959 0.0
C502 C 1.02383 0.37144 0.87085 0.0
C503 C 1.01706 0.34078 0.89245 0.0
C504 C 1.06932 0.39299 0.85667 0.0
C505 C 0.10914 0.38432 0.86457 0.0
C506 C 0.10074 0.34957 0.88477 0.0
C507 C 1.05454 0.32795 0.89842 0.0
C508 C 0.07641 0.42889 0.83486 0.0
C509 C 0.1423 0.33902 0.89357 0.0
H510 H 0.2488 0.41322 0.81467 0.0
H511 H 0.27264 0.52481 0.87261 0.0
H512 H 0.13894 0.31865 0.83142 0.0
H513 H 0.10933 0.34952 0.81526 0.0
H514 H 0.16477 0.35053 0.80139 0.0
H515 H 0.20533 0.52162 0.89654 0.0
H516 H 0.14164 0.48555 0.88339 0.0
H517 H 0.16349 0.4559 0.90588 0.0
H518 H 0.99546 0.38225 0.86618 0.0
H519 H 1.04915 0.30379 0.91488 0.0
H520 H 0.09756 0.42387 0.81874 0.0
H521 H 0.09927 0.46916 0.84164 0.0
H522 H 1.0391 0.42282 0.82764 0.0
H523 H 0.15938 0.32987 0.87698 0.0
H524 H 0.12775 0.30677 0.90744 0.0
H525 H 0.17335 0.37388 0.90296 0.0
C526 C 0.7906 0.34182 0.15631 0.0
C527 C 0.8186 0.32513 0.17094 0.0
C528 C 0.74376 0.33542 0.16526 0.0
C529 C 0.72533 0.31288 0.18956 0.0
C530 C 0.75251 0.29431 0.20392 0.0
C531 C 0.79841 0.30011 0.19428 0.0
C532 C 0.71493 0.35423 0.14915 0.0
C533 C 0.73393 0.2696 0.22989 0.0
C534 C 0.64185 0.33766 0.23426 0.0
C535 C 0.59717 0.2894 0.23419 0.0
C536 C 0.68268 0.34808 0.21774 0.0
C537 C 0.6784 0.30935 0.20074 0.0
C538 C 0.63125 0.26301 0.19845 0.0
C539 C 0.59131 0.25339 0.21534 0.0
C540 C 0.73221 0.39829 0.22065 0.0
C541 C 0.62472 0.22109 0.18022 0.0
H542 H 0.80613 0.36155 0.13834 0.0
H543 H 0.81929 0.28613 0.20539 0.0
H544 H 0.67369 0.32479 0.14814 0.0
H545 H 0.71757 0.38887 0.15815 0.0
H546 H 0.73033 0.36394 0.12934 0.0
H547 H 0.75948 0.25692 0.23847 0.0
H548 H 0.73167 0.29718 0.24324 0.0
H549 H 0.69486 0.23581 0.22823 0.0
H550 H 0.64634 0.36592 0.2485 0.0
H551 H 0.55734 0.21567 0.21514 0.0
H552 H 0.75197 0.41203 0.20197 0.0
H553 H 0.75814 0.39258 0.23359 0.0
H554 H 0.72568 0.42847 0.2291 0.0
H555 H 0.58363 0.19308 0.17664 0.0
H556 H 0.64274 0.20009 0.18863 0.0
H557 H 0.6438 0.23728 0.16162 0.0
C558 C 0.10758 0.50257 0.07872 0.0
C559 C 0.09893 0.54271 0.08544 0.0
C560 C 0.08183 0.47015 0.05803 0.0
C561 C 1.047 0.47848 0.04355 0.0
C562 C 1.0383 0.51919 0.05015 0.0
C563 C 1.06446 0.55094 0.0711 0.0
C564 C 0.09211 0.42713 0.0516 0.0
C565 C 1.00158 0.52928 0.03502 0.0
C566 C 1.0267 0.43055 0.97517 0.0
C567 C 0.97978 0.38449 0.97678 0.0
C568 C 1.04839 0.46181 0.99668 0.0
C569 C 1.02256 0.44666 0.02046 0.0
C570 C 0.97479 0.40049 0.02223 0.0
C571 C 0.95367 0.36999 0.00021 0.0
C572 C 0.09916 0.51092 0.99396 0.0
C573 C 0.9465 0.38309 0.0474 0.0
H574 H 0.1341 0.49603 0.08989 0.0
H575 H 1.05738 0.58167 0.07647 0.0
H576 H 1.05564 0.38992 0.05134 0.0
H577 H 0.10915 0.4331 0.03217 0.0
H578 H 0.11857 0.42447 0.06551 0.0
H579 H 0.99782 0.56139 0.04316 0.0
H580 H 1.01494 0.5387 0.01489 0.0
H581 H 0.96314 0.49431 0.03456 0.0
H582 H 1.04625 0.44258 0.95687 0.0
H583 H 0.91716 0.33463 0.00134 0.0
H584 H 0.12828 0.50948 0.00638 0.0
H585 H 0.09545 0.54409 0.00038 0.0
H586 H 0.11349 0.51782 0.9739 0.0
H587 H 0.97022 0.37665 0.06152 0.0
H588 H 0.90909 0.34707 0.0454 0.0
H589 H 0.9397 0.41337 0.05538 0.0
C590 C 0.56319 0.08422 0.40725 0.0
C591 C 0.60748 0.10038 0.42185 0.0
C592 C 0.56016 0.11711 0.38925 0.0
C593 C 0.60154 0.16813 0.38683 0.0
C594 C 0.64566 0.18515 0.4023 0.0
C595 C 0.64873 0.15046 0.41909 0.0
C596 C 0.51305 0.09694 0.37253 0.0
C597 C 0.6893 0.23992 0.4013 0.0
C598 C 0.60735 0.22394 0.32149 0.0
C599 C 0.57602 0.24557 0.32503 0.0
C600 C 0.61883 0.20139 0.34192 0.0
C601 C 0.59962 0.20178 0.36663 0.0
C602 C 0.5723 0.22816 0.37081 0.0
C603 C 0.55988 0.24899 0.34977 0.0
C604 C 0.6469 0.17254 0.33644 0.0
C605 C 0.55371 0.23167 0.39721 0.0
H606 H 0.53128 1.04553 0.40964 0.0
H607 H 0.68278 0.1631 0.43068 0.0
H608 H 0.4938 0.11969 0.37573 0.0
H609 H 0.52421 0.10101 0.352 0.0
H610 H 0.48504 0.05593 0.37638 0.0
H611 H 0.71839 0.2482 0.41643 0.0
H612 H 0.70841 0.24782 0.38234 0.0
H613 H 0.67445 0.26679 0.40368 0.0
H614 H 0.61898 0.22043 0.30225 0.0
H615 H 0.53547 0.26557 0.35241 0.0
H616 H 0.61996 0.13072 0.33849 0.0
H617 H 0.67839 0.18324 0.35038 0.0
H618 H 0.66322 0.17989 0.31677 0.0
H619 H 0.525 0.19287 0.40408 0.0
H620 H 0.53612 0.25647 0.39753 0.0
H621 H 0.58617 0.24735 0.41093 0.0
C622 C 0.64889 0.61038 0.7381 0.0
C623 C 0.62603 0.56453 0.75195 0.0
C624 C 0.68206 0.61776 0.71765 0.0
C625 C 0.69404 0.57901 0.71158 0.0
C626 C 0.67172 0.53292 0.72592 0.0
C627 C 0.63706 0.52579 0.74568 0.0
C628 C 0.70464 0.66726 0.70267 0.0
C629 C 0.68563 0.49196 0.72092 0.0
C630 C 0.73974 0.58418 0.64352 0.0
C631 C 0.79292 0.61505 0.64629 0.0
C632 C 0.70721 0.57013 0.66483 0.0
C633 C 0.7285 0.58661 0.68957 0.0
C634 C 0.78247 0.61523 0.69262 0.0
C635 C 0.81412 0.62966 0.67083 0.0
C636 C 0.64994 0.54079 0.66064 0.0
C637 C 0.80683 0.63131 0.71878 0.0
H638 H 0.64074 0.64049 0.7433 0.0
H639 H 0.62032 0.49085 0.75692 0.0
H640 H 0.74696 0.68844 0.7047 0.0
H641 H 0.69581 0.65888 0.68197 0.0
H642 H 0.68983 0.69257 0.70921 0.0
H643 H 0.66569 0.45884 0.73417 0.0
H644 H 0.67587 0.47786 0.70091 0.0
H645 H 0.72759 0.50847 0.7232 0.0
H646 H 0.72335 0.57362 0.62446 0.0
H647 H 0.85531 0.65339 0.67286 0.0
H648 H 0.63367 0.56561 0.66568 0.0
H649 H 0.63158 0.50668 0.6733 0.0
H650 H 0.63964 0.5279 0.64045 0.0
H651 H 0.78785 0.64786 0.73049 0.0
H652 H 0.8484 0.65978 0.7176 0.0
H653 H 0.80222 0.59696 0.72897 0.0
C654 C 0.54487 1.02451 0.58145 0.0
C655 C 0.58431 0.05914 0.56525 0.0
C656 C 0.55101 1.02585 0.6084 0.0
C657 C 0.59716 0.06407 0.61995 0.0
C658 C 0.63725 0.09916 0.60361 0.0
C659 C 0.6307 0.09573 0.57659 0.0
C660 C 0.50767 0.98638 0.62457 0.0
C661 C 0.6865 0.14164 0.61474 0.0
C662 C 0.5864 0.09642 0.69051 0.0
C663 C 0.60884 0.0723 0.70429 0.0
C664 C 0.58399 0.09547 0.66337 0.0
C665 C 0.60259 0.06805 0.649 0.0
C666 C 0.62486 1.04323 0.66259 0.0
C667 C 0.62857 1.04642 0.68972 0.0
C668 C 0.56098 0.1237 0.65004 0.0
C669 C 0.64408 1.01233 0.64847 0.0
H670 H 0.50888 0.99606 0.57298 0.0
H671 H 0.66124 0.12314 0.56437 0.0
H672 H 0.522 0.96721 0.63759 0.0
H673 H 0.49186 1.00543 0.63674 0.0
H674 H 0.47611 0.95664 0.61273 0.0
H675 H 0.7142 0.16559 0.59966 0.0
H676 H 0.67812 0.16668 0.62705 0.0
H677 H 0.7048 0.1254 0.62709 0.0
H678 H 0.56967 0.11565 0.70088 0.0
H679 H 0.64723 1.02845 0.69942 0.0
H680 H 0.52477 0.09584 0.64043 0.0
H681 H 0.58744 0.14926 0.63498 0.0
H682 H 0.55266 0.14719 0.66356 0.0
H683 H 0.61259 0.98191 0.6369 0.0
H684 H 0.65906 0.99399 0.66167 0.0
H685 H 0.67499 1.03731 0.63497 0.0
C686 C 0.6748 0.62459 0.91431 0.0
C687 C 0.6383 0.5876 0.8976 0.0
C688 C 0.67121 0.61813 0.94127 0.0
C689 C 0.62931 0.57403 0.95239 0.0
C690 C 0.59191 0.53673 0.93561 0.0
C691 C 0.59714 0.54361 0.90858 0.0
C692 C 0.71277 0.65865 0.95791 0.0
C693 C 0.54588 0.48967 0.94624 0.0
C694 C 0.64325 0.53716 0.02175 0.0
C695 C 0.62094 0.55998 0.03675 0.0
C696 C 0.64593 0.54111 0.99461 0.0
C697 C 0.62477 0.5675 0.98144 0.0
C698 C 0.60109 0.58951 0.99629 0.0
C699 C 0.60005 0.58611 0.02343 0.0
C700 C 0.67234 0.51758 0.97998 0.0
C701 C 0.5772 0.61742 0.98349 0.0
H702 H 0.70694 0.6587 0.90625 0.0
H703 H 0.5685 0.51481 0.89604 0.0
H704 H 0.69623 0.67588 0.97086 0.0
H705 H 0.7298 0.64096 0.97017 0.0
H706 H 0.74379 0.68979 0.94645 0.0
H707 H 0.51958 0.46476 0.93091 0.0
H708 H 0.55843 0.46692 0.95769 0.0
H709 H 0.52436 0.50127 0.95932 0.0
H710 H 0.65871 0.51582 0.03117 0.0
H711 H 0.5835 0.60504 0.03423 0.0
H712 H 0.70491 0.54773 0.96888 0.0
H713 H 0.64543 0.48896 0.96601 0.0
H714 H 0.68707 0.49844 0.9928 0.0
H715 H 0.60733 0.65245 0.9739 0.0
H716 H 0.55663 0.62883 0.99733 0.0
H717 H 0.54982 0.59278 0.96846 0.0
C718 C 0.10401 0.4965 0.24881 0.0
C719 C 0.10484 0.53351 0.23203 0.0
C720 C 0.10151 0.50057 0.27573 0.0
C721 C 0.1009 0.54343 0.28677 0.0
C722 C 0.10215 0.58127 0.26995 0.0
C723 C 0.10353 0.57563 0.24292 0.0
C724 C 0.09928 0.45858 0.29242 0.0
C725 C 0.10261 0.62816 0.28053 0.0
C726 C 1.05083 0.53055 0.35619 0.0
C727 C 0.09602 0.55232 0.37106 0.0
C728 C 1.05186 0.52786 0.32905 0.0
C729 C 0.09927 0.5483 0.3158 0.0
C730 C 0.14503 0.57113 0.33054 0.0
C731 C 0.14288 0.57234 0.35769 0.0
C732 C 1.00185 0.5024 0.31453 0.0
C733 C 0.19664 0.594 0.31761 0.0
H734 H 0.10482 0.46362 0.24083 0.0
H735 H 0.10437 0.60464 0.23032 0.0
H736 H 0.13304 0.47457 0.30533 0.0
H737 H 1.06462 0.44235 0.30473 0.0
H738 H 0.09847 0.42696 0.28101 0.0
H739 H 0.10496 0.65478 0.26517 0.0
H740 H 1.0674 0.61653 0.29194 0.0
H741 H 0.13574 0.64908 0.29364 0.0
H742 H 1.0142 0.51575 0.36572 0.0
H743 H 0.17833 0.58848 0.36842 0.0
H744 H 0.99849 0.46944 0.30333 0.0
H745 H 1.00088 0.52978 0.30066 0.0
H746 H 0.96814 0.48832 0.32743 0.0
H747 H 0.20041 0.56336 0.30774 0.0
H748 H 0.22882 0.61371 0.3314 0.0
H749 H 0.20014 0.62196 0.30277 0.0
loop_
_geom_bond_atom_site_label_1
_geom_bond_atom_site_label_2
_geom_bond_distance
_geom_bond_site_symmetry_2
_ccdc_geom_bond_type
C0 Eu1 2.835 . S
C0 C2 1.500 . S
C0 O20 1.257 . S
C0 O21 1.260 . S
Eu1 C0 2.835 . S
Eu1 O20 2.473 . S
Eu1 O21 2.480 . S
Eu1 O22 2.430 1_655 S
Eu1 O23 2.670 1_655 S
Eu1 O24 2.394 . S
Eu1 O29 2.355 1_655 S
Eu1 O31 2.374 1_655 S
C2 C0 1.500 . S
C2 C3 1.377 . S
C2 C7 1.377 . S
C3 C2 1.377 . S
C3 C4 1.395 . S
C3 H32 0.931 . S
C4 C3 1.395 . S
C4 C5 1.383 . S
C4 H33 0.931 . S
C5 C4 1.383 . S
C5 C6 1.394 . S
C6 C5 1.394 . S
C6 C7 1.378 . S
C6 H34 0.931 . S
C7 C2 1.377 . S
C7 C6 1.378 . S
C7 H35 0.931 . S
C8 O22 1.259 . S
C8 O23 1.270 . S
C9 O24 1.251 . S
C9 O25 1.251 . S
C10 Eu11 2.835 . S
C10 C12 1.500 . S
C10 O26 1.257 . S
C10 O27 1.260 . S
Eu11 C10 2.835 . S
Eu11 O23 2.355 . S
Eu11 O25 2.374 1_455 S
Eu11 O26 2.473 . S
Eu11 O27 2.480 . S
Eu11 O28 2.430 . S
Eu11 O29 2.670 . S
Eu11 O30 2.394 . S
C12 C10 1.500 . S
C12 C13 1.377 . S
C12 C17 1.377 . S
C13 C12 1.377 . S
C13 C14 1.395 . S
C13 H36 0.931 . S
C14 C13 1.395 . S
C14 C15 1.383 . S
C14 H37 0.931 . S
C15 C14 1.383 . S
C15 C16 1.394 . S
C16 C15 1.394 . S
C16 C17 1.378 . S
C16 H38 0.931 . S
C17 C12 1.377 . S
C17 C16 1.378 . S
C17 H39 0.931 . S
C18 O28 1.259 . S
C18 O29 1.270 . S
C19 O30 1.251 . S
C19 O31 1.251 . S
O20 C0 1.257 . S
O20 Eu1 2.473 . S
O21 C0 1.260 . S
O21 Eu1 2.480 . S
O22 Eu1 2.430 1_455 S
O22 C8 1.259 . S
O23 Eu1 2.670 1_455 S
O23 C8 1.270 . S
O23 Eu11 2.355 . S
O24 Eu1 2.394 . S
O24 C9 1.251 . S
O25 C9 1.251 . S
O25 Eu11 2.374 1_655 S
O26 C10 1.257 . S
O26 Eu11 2.473 . S
O27 C10 1.260 . S
O27 Eu11 2.480 . S
O28 Eu11 2.430 . S
O28 C18 1.259 . S
O29 Eu1 2.355 1_455 S
O29 Eu11 2.670 . S
O29 C18 1.270 . S
O30 Eu11 2.394 . S
O30 C19 1.251 . S
O31 Eu1 2.374 1_455 S
O31 C19 1.251 . S
H32 C3 0.931 . S
H33 C4 0.931 . S
H34 C6 0.931 . S
H35 C7 0.931 . S
H36 C13 0.931 . S
H37 C14 0.931 . S
H38 C16 0.931 . S
H39 C17 0.931 . S
C40 Eu41 2.835 . S
C40 C42 1.500 . S
C40 O60 1.257 . S
C40 O61 1.260 . S
Eu41 C40 2.835 . S
Eu41 O60 2.473 . S
Eu41 O61 2.480 . S
Eu41 O62 2.430 . S
Eu41 O63 2.670 . S
Eu41 O64 2.394 . S
Eu41 O69 2.355 . S
Eu41 O71 2.374 1_545 S
C42 C40 1.500 . S
C42 C43 1.377 . S
C42 C47 1.377 . S
C43 C42 1.377 . S
C43 C44 1.395 . S
C43 H72 0.931 . S
C44 C43 1.395 . S
C44 C45 1.383 . S
C44 H73 0.931 . S
C45 C44 1.383 . S
C45 C46 1.394 . S
C46 C45 1.394 . S
C46 C47 1.378 . S
C46 H74 0.931 . S
C47 C42 1.377 . S
C47 C46 1.378 . S
C47 H75 0.931 . S
C48 O62 1.259 . S
C48 O63 1.270 . S
C49 O64 1.251 . S
C49 O65 1.251 . S
C50 Eu51 2.835 . S
C50 C52 1.500 . S
C50 O66 1.257 . S
C50 O67 1.260 . S
Eu51 C50 2.835 . S
Eu51 O63 2.355 1_565 S
Eu51 O65 2.374 1_565 S
Eu51 O66 2.473 . S
Eu51 O67 2.480 . S
Eu51 O68 2.430 1_565 S
Eu51 O69 2.670 1_565 S
Eu51 O70 2.394 . S
C52 C50 1.500 . S
C52 C53 1.377 . S
C52 C57 1.377 . S
C53 C52 1.377 . S
C53 C54 1.395 . S
C53 H76 0.931 . S
C54 C53 1.395 . S
C54 C55 1.383 . S
C54 H77 0.931 . S
C55 C54 1.383 . S
C55 C56 1.394 . S
C56 C55 1.394 . S
C56 C57 1.378 . S
C56 H78 0.931 . S
C57 C52 1.377 . S
C57 C56 1.378 . S
C57 H79 0.931 . S
C58 O68 1.259 . S
C58 O69 1.270 . S
C59 O70 1.251 . S
C59 O71 1.251 . S
O60 C40 1.257 . S
O60 Eu41 2.473 . S
O61 C40 1.260 . S
O61 Eu41 2.480 . S
O62 Eu41 2.430 . S
O62 C48 1.259 . S
O63 Eu41 2.670 . S
O63 C48 1.270 . S
O63 Eu51 2.355 1_545 S
O64 Eu41 2.394 . S
O64 C49 1.251 . S
O65 C49 1.251 . S
O65 Eu51 2.374 1_545 S
O66 C50 1.257 . S
O66 Eu51 2.473 . S
O67 C50 1.260 . S
O67 Eu51 2.480 . S
O68 Eu51 2.430 1_545 S
O68 C58 1.259 . S
O69 Eu41 2.355 . S
O69 Eu51 2.670 1_545 S
O69 C58 1.270 . S
O70 Eu51 2.394 . S
O70 C59 1.251 . S
O71 Eu41 2.374 1_565 S
O71 C59 1.251 . S
H72 C43 0.931 . S
H73 C44 0.931 . S
H74 C46 0.931 . S
H75 C47 0.931 . S
H76 C53 0.931 . S
H77 C54 0.931 . S
H78 C56 0.931 . S
H79 C57 0.931 . S
C80 Eu81 2.835 . S
C80 C82 1.500 . S
C80 O100 1.257 . S
C80 O101 1.260 . S
Eu81 C80 2.835 . S
Eu81 O100 2.473 . S
Eu81 O101 2.480 . S
Eu81 O102 2.430 . S
Eu81 O103 2.670 . S
Eu81 O104 2.394 . S
Eu81 O109 2.355 . S
Eu81 O111 2.374 . S
C82 C80 1.500 . S
C82 C83 1.377 . S
C82 C87 1.377 . S
C83 C82 1.377 . S
C83 C84 1.395 . S
C83 H112 0.931 . S
C84 C83 1.395 . S
C84 C85 1.383 . S
C84 H113 0.931 . S
C85 C84 1.383 . S
C85 C86 1.394 . S
C86 C85 1.394 . S
C86 C87 1.378 . S
C86 H114 0.931 . S
C87 C82 1.377 . S
C87 C86 1.378 . S
C87 H115 0.931 . S
C88 O102 1.259 . S
C88 O103 1.270 . S
C89 O104 1.251 . S
C89 O105 1.251 . S
C90 Eu91 2.835 . S
C90 C92 1.500 . S
C90 O106 1.257 . S
C90 O107 1.260 . S
Eu91 C90 2.835 . S
Eu91 O103 2.355 . S
Eu91 O105 2.374 . S
Eu91 O106 2.473 . S
Eu91 O107 2.480 . S
Eu91 O108 2.430 . S
Eu91 O109 2.670 . S
Eu91 O110 2.394 . S
C92 C90 1.500 . S
C92 C93 1.377 . S
C92 C97 1.377 . S
C93 C92 1.377 . S
C93 C94 1.395 . S
C93 H116 0.931 . S
C94 C93 1.395 . S
C94 C95 1.383 . S
C94 H117 0.931 . S
C95 C94 1.383 . S
C95 C96 1.394 . S
C96 C95 1.394 . S
C96 C97 1.378 . S
C96 H118 0.931 . S
C97 C92 1.377 . S
C97 C96 1.378 . S
C97 H119 0.931 . S
C98 O108 1.259 . S
C98 O109 1.270 . S
C99 O110 1.251 . S
C99 O111 1.251 . S
O100 C80 1.257 . S
O100 Eu81 2.473 . S
O101 C80 1.260 . S
O101 Eu81 2.480 . S
O102 Eu81 2.430 . S
O102 C88 1.259 . S
O103 Eu81 2.670 . S
O103 C88 1.270 . S
O103 Eu91 2.355 . S
O104 Eu81 2.394 . S
O104 C89 1.251 . S
O105 C89 1.251 . S
O105 Eu91 2.374 . S
O106 C90 1.257 . S
O106 Eu91 2.473 . S
O107 C90 1.260 . S
O107 Eu91 2.480 . S
O108 Eu91 2.430 . S
O108 C98 1.259 . S
O109 Eu81 2.355 . S
O109 Eu91 2.670 . S
O109 C98 1.270 . S
O110 Eu91 2.394 . S
O110 C99 1.251 . S
O111 Eu81 2.374 . S
O111 C99 1.251 . S
H112 C83 0.931 . S
H113 C84 0.931 . S
H114 C86 0.931 . S
H115 C87 0.931 . S
H116 C93 0.931 . S
H117 C94 0.931 . S
H118 C96 0.931 . S
H119 C97 0.931 . S
H120 C123 0.931 1_565 S
H121 C126 0.928 . S
H122 C128 0.930 . S
C123 H120 0.931 1_545 S
C123 C124 1.413 . S
C123 C125 1.360 . S
C124 C123 1.413 . S
C124 C128 1.429 . S
C125 C123 1.360 . S
C125 C126 1.372 . S
C126 H121 0.928 . S
C126 C125 1.372 . S
C126 C127 1.404 . S
C127 C126 1.404 . S
C127 C128 1.391 . S
C128 H122 0.930 . S
C128 C124 1.429 . S
C128 C127 1.391 . S
H129 C132 0.931 . S
H130 C135 0.928 . S
H131 C137 0.930 . S
C132 H129 0.931 . S
C132 C133 1.413 . S
C132 C134 1.360 . S
C133 C132 1.413 . S
C133 C137 1.429 . S
C134 C132 1.360 . S
C134 C135 1.372 . S
C135 H130 0.928 . S
C135 C134 1.372 . S
C135 C136 1.404 . S
C136 C135 1.404 . S
C136 C137 1.391 . S
C137 H131 0.930 . S
C137 C133 1.429 . S
C137 C136 1.391 . S
H138 C141 0.931 . S
H139 C144 0.928 . S
H140 C146 0.930 . S
C141 H138 0.931 . S
C141 C142 1.413 . S
C141 C143 1.360 1_655 S
C142 C141 1.413 . S
C142 C146 1.429 1_655 S
C143 C141 1.360 1_455 S
C143 C144 1.372 . S
C144 H139 0.928 . S
C144 C143 1.372 . S
C144 C145 1.404 . S
C145 C144 1.404 . S
C145 C146 1.391 . S
C146 H140 0.930 . S
C146 C142 1.429 1_455 S
C146 C145 1.391 . S
H147 C150 0.931 1_655 S
H148 C153 0.928 . S
H149 C155 0.930 . S
C150 H147 0.931 1_455 S
C150 C151 1.413 . S
C150 C152 1.360 . S
C151 C150 1.413 . S
C151 C155 1.429 . S
C152 C150 1.360 . S
C152 C153 1.372 . S
C153 H148 0.928 . S
C153 C152 1.372 . S
C153 C154 1.404 . S
C154 C153 1.404 . S
C154 C155 1.391 . S
C155 H149 0.930 . S
C155 C151 1.429 . S
C155 C154 1.391 . S
H156 C159 0.931 . S
H157 C162 0.928 . S
H158 C164 0.931 . S
C159 H156 0.931 . S
C159 C160 1.413 . S
C159 C161 1.360 . S
C160 C159 1.413 . S
C160 C164 1.429 . S
C161 C159 1.360 . S
C161 C162 1.372 1_545 S
C162 H157 0.928 . S
C162 C161 1.372 1_565 S
C162 C163 1.404 . S
C163 C162 1.404 . S
C163 C164 1.391 1_565 S
C164 H158 0.931 . S
C164 C160 1.429 . S
C164 C163 1.391 1_545 S
H165 C168 0.931 . S
H166 C171 0.928 . S
H167 C173 0.930 . S
C168 H165 0.931 . S
C168 C169 1.413 . S
C168 C170 1.360 . S
C169 C168 1.413 . S
C169 C173 1.429 . S
C170 C168 1.360 . S
C170 C171 1.372 . S
C171 H166 0.928 . S
C171 C170 1.372 . S
C171 C172 1.404 . S
C172 C171 1.404 . S
C172 C173 1.391 . S
C173 H167 0.930 . S
C173 C169 1.429 . S
C173 C172 1.391 . S
C174 C175 1.391 . S
C174 C176 1.394 . S
C174 H190 0.931 . S
C175 C174 1.391 . S
C175 C179 1.376 . S
C176 C174 1.394 . S
C176 C177 1.369 . S
C176 C180 1.531 . S
C177 C176 1.369 . S
C177 C178 1.410 . S
C177 C185 1.503 . S
C178 C177 1.410 . S
C178 C179 1.392 . S
C178 C181 1.511 . S
C179 C175 1.376 . S
C179 C178 1.392 . S
C179 H191 0.929 . S
C180 C176 1.531 . S
C180 H192 0.960 . S
C180 H193 0.962 . S
C180 H194 0.960 . S
C181 C178 1.511 . S
C181 H195 0.961 . S
C181 H196 0.961 . S
C181 H197 0.961 . S
C182 C183 1.370 . S
C182 C184 1.363 . S
C182 H198 0.931 . S
C183 C182 1.370 . S
C183 C187 1.408 . S
C184 C182 1.363 . S
C184 C185 1.370 . S
C184 C188 1.524 . S
C185 C177 1.503 . S
C185 C184 1.370 . S
C185 C186 1.403 . S
C186 C185 1.403 . S
C186 C187 1.404 . S
C186 C189 1.539 . S
C187 C183 1.408 . S
C187 C186 1.404 . S
C187 H199 0.930 . S
C188 C184 1.524 . S
C188 H200 0.956 . S
C188 H201 0.961 . S
C188 H202 0.961 . S
C189 C186 1.539 . S
C189 H203 0.958 . S
C189 H204 0.961 . S
C189 H205 0.960 . S
H190 C174 0.931 . S
H191 C179 0.929 . S
H192 C180 0.960 . S
H193 C180 0.962 . S
H194 C180 0.960 . S
H195 C181 0.961 . S
H196 C181 0.961 . S
H197 C181 0.961 . S
H198 C182 0.931 . S
H199 C187 0.930 . S
H200 C188 0.956 . S
H201 C188 0.961 . S
H202 C188 0.961 . S
H203 C189 0.958 . S
H204 C189 0.961 . S
H205 C189 0.960 . S
C206 C207 1.391 . S
C206 C208 1.394 . S
C206 H222 0.931 . S
C207 C206 1.391 . S
C207 C211 1.376 . S
C208 C206 1.394 . S
C208 C209 1.369 . S
C208 C212 1.531 . S
C209 C208 1.369 . S
C209 C210 1.410 . S
C209 C217 1.503 . S
C210 C209 1.410 . S
C210 C211 1.392 . S
C210 C213 1.511 . S
C211 C207 1.376 . S
C211 C210 1.392 . S
C211 H223 0.929 . S
C212 C208 1.531 . S
C212 H224 0.960 . S
C212 H225 0.962 . S
C212 H226 0.960 . S
C213 C210 1.511 . S
C213 H227 0.961 . S
C213 H228 0.961 . S
C213 H229 0.961 . S
C214 C215 1.370 . S
C214 C216 1.363 . S
C214 H230 0.931 . S
C215 C214 1.370 . S
C215 C219 1.408 . S
C216 C214 1.363 . S
C216 C217 1.370 . S
C216 C220 1.524 . S
C217 C209 1.503 . S
C217 C216 1.370 . S
C217 C218 1.403 . S
C218 C217 1.403 . S
C218 C219 1.404 . S
C218 C221 1.539 . S
C219 C215 1.408 . S
C219 C218 1.404 . S
C219 H231 0.930 . S
C220 C216 1.524 . S
C220 H232 0.956 . S
C220 H233 0.961 . S
C220 H234 0.961 . S
C221 C218 1.539 . S
C221 H235 0.958 . S
C221 H236 0.961 . S
C221 H237 0.960 . S
H222 C206 0.931 . S
H223 C211 0.929 . S
H224 C212 0.960 . S
H225 C212 0.962 . S
H226 C212 0.960 . S
H227 C213 0.961 . S
H228 C213 0.961 . S
H229 C213 0.961 . S
H230 C214 0.931 . S
H231 C219 0.930 . S
H232 C220 0.956 . S
H233 C220 0.961 . S
H234 C220 0.961 . S
H235 C221 0.958 . S
H236 C221 0.961 . S
H237 C221 0.960 . S
C238 C239 1.391 . S
C238 C240 1.394 . S
C238 H254 0.931 . S
C239 C238 1.391 . S
C239 C243 1.376 . S
C240 C238 1.394 . S
C240 C241 1.369 . S
C240 C244 1.531 . S
C241 C240 1.369 . S
C241 C242 1.410 . S
C241 C249 1.503 . S
C242 C241 1.410 . S
C242 C243 1.392 . S
C242 C245 1.511 . S
C243 C239 1.376 . S
C243 C242 1.392 . S
C243 H255 0.929 . S
C244 C240 1.531 . S
C244 H256 0.960 . S
C244 H257 0.962 . S
C244 H258 0.960 . S
C245 C242 1.511 . S
C245 H259 0.961 . S
C245 H260 0.961 . S
C245 H261 0.961 . S
C246 C247 1.370 . S
C246 C248 1.363 . S
C246 H262 0.931 . S
C247 C246 1.370 . S
C247 C251 1.408 . S
C248 C246 1.363 . S
C248 C249 1.370 . S
C248 C252 1.524 . S
C249 C241 1.503 . S
C249 C248 1.370 . S
C249 C250 1.403 . S
C250 C249 1.403 . S
C250 C251 1.404 . S
C250 C253 1.539 . S
C251 C247 1.408 . S
C251 C250 1.404 . S
C251 H263 0.930 . S
C252 C248 1.524 . S
C252 H264 0.956 . S
C252 H265 0.961 . S
C252 H266 0.961 . S
C253 C250 1.539 . S
C253 H267 0.958 . S
C253 H268 0.961 . S
C253 H269 0.960 . S
H254 C238 0.931 . S
H255 C243 0.929 . S
H256 C244 0.960 . S
H257 C244 0.962 . S
H258 C244 0.960 . S
H259 C245 0.961 . S
H260 C245 0.961 . S
H261 C245 0.961 . S
H262 C246 0.931 . S
H263 C251 0.930 . S
H264 C252 0.956 . S
H265 C252 0.961 . S
H266 C252 0.961 . S
H267 C253 0.958 . S
H268 C253 0.961 . S
H269 C253 0.960 . S
C270 C271 1.391 . S
C270 C272 1.394 . S
C270 H286 0.931 . S
C271 C270 1.391 . S
C271 C275 1.376 . S
C272 C270 1.394 . S
C272 C273 1.369 . S
C272 C276 1.531 . S
C273 C272 1.369 . S
C273 C274 1.410 . S
C273 C281 1.503 . S
C274 C273 1.410 . S
C274 C275 1.392 . S
C274 C277 1.511 . S
C275 C271 1.376 . S
C275 C274 1.392 . S
C275 H287 0.929 . S
C276 C272 1.531 . S
C276 H288 0.960 . S
C276 H289 0.962 . S
C276 H290 0.960 . S
C277 C274 1.511 . S
C277 H291 0.961 . S
C277 H292 0.961 . S
C277 H293 0.961 . S
C278 C279 1.370 . S
C278 C280 1.363 . S
C278 H294 0.931 . S
C279 C278 1.370 . S
C279 C283 1.408 . S
C280 C278 1.363 . S
C280 C281 1.370 . S
C280 C284 1.524 . S
C281 C273 1.503 . S
C281 C280 1.370 . S
C281 C282 1.403 . S
C282 C281 1.403 . S
C282 C283 1.404 . S
C282 C285 1.539 . S
C283 C279 1.408 . S
C283 C282 1.404 . S
C283 H295 0.930 . S
C284 C280 1.524 . S
C284 H296 0.956 . S
C284 H297 0.961 . S
C284 H298 0.961 . S
C285 C282 1.539 . S
C285 H299 0.958 . S
C285 H300 0.961 . S
C285 H301 0.960 . S
H286 C270 0.931 . S
H287 C275 0.929 . S
H288 C276 0.960 . S
H289 C276 0.962 . S
H290 C276 0.960 . S
H291 C277 0.961 . S
H292 C277 0.961 . S
H293 C277 0.961 . S
H294 C278 0.931 . S
H295 C283 0.930 . S
H296 C284 0.956 . S
H297 C284 0.961 . S
H298 C284 0.961 . S
H299 C285 0.958 . S
H300 C285 0.961 . S
H301 C285 0.960 . S
C302 C303 1.391 . S
C302 C304 1.394 . S
C302 H318 0.931 . S
C303 C302 1.391 . S
C303 C307 1.376 . S
C304 C302 1.394 . S
C304 C305 1.369 . S
C304 C308 1.531 . S
C305 C304 1.369 . S
C305 C306 1.410 . S
C305 C313 1.503 . S
C306 C305 1.410 . S
C306 C307 1.392 . S
C306 C309 1.511 . S
C307 C303 1.376 . S
C307 C306 1.392 . S
C307 H319 0.929 . S
C308 C304 1.531 . S
C308 H320 0.960 . S
C308 H321 0.962 . S
C308 H322 0.960 . S
C309 C306 1.511 . S
C309 H323 0.961 . S
C309 H324 0.961 . S
C309 H325 0.961 . S
C310 C311 1.370 . S
C310 C312 1.363 . S
C310 H326 0.931 . S
C311 C310 1.370 . S
C311 C315 1.408 . S
C312 C310 1.363 . S
C312 C313 1.370 . S
C312 C316 1.524 . S
C313 C305 1.503 . S
C313 C312 1.370 . S
C313 C314 1.403 . S
C314 C313 1.403 . S
C314 C315 1.404 . S
C314 C317 1.539 . S
C315 C311 1.408 . S
C315 C314 1.404 . S
C315 H327 0.930 . S
C316 C312 1.524 . S
C316 H328 0.956 . S
C316 H329 0.961 . S
C316 H330 0.961 . S
C317 C314 1.539 . S
C317 H331 0.958 . S
C317 H332 0.961 . S
C317 H333 0.960 . S
H318 C302 0.931 . S
H319 C307 0.929 . S
H320 C308 0.960 . S
H321 C308 0.962 . S
H322 C308 0.960 . S
H323 C309 0.961 . S
H324 C309 0.961 . S
H325 C309 0.961 . S
H326 C310 0.931 . S
H327 C315 0.930 . S
H328 C316 0.956 . S
H329 C316 0.961 . S
H330 C316 0.961 . S
H331 C317 0.958 . S
H332 C317 0.961 . S
H333 C317 0.960 . S
C334 C335 1.391 . S
C334 C336 1.394 . S
C334 H350 0.931 . S
C335 C334 1.391 . S
C335 C339 1.376 . S
C336 C334 1.394 . S
C336 C337 1.369 . S
C336 C340 1.531 . S
C337 C336 1.369 . S
C337 C338 1.410 . S
C337 C345 1.503 . S
C338 C337 1.410 . S
C338 C339 1.392 . S
C338 C341 1.511 . S
C339 C335 1.376 . S
C339 C338 1.392 . S
C339 H351 0.929 . S
C340 C336 1.531 . S
C340 H352 0.960 . S
C340 H353 0.962 . S
C340 H354 0.960 . S
C341 C338 1.511 . S
C341 H355 0.961 . S
C341 H356 0.961 . S
C341 H357 0.961 . S
C342 C343 1.370 . S
C342 C344 1.363 . S
C342 H358 0.931 . S
C343 C342 1.370 . S
C343 C347 1.408 . S
C344 C342 1.363 . S
C344 C345 1.370 . S
C344 C348 1.524 . S
C345 C337 1.503 . S
C345 C344 1.370 . S
C345 C346 1.403 . S
C346 C345 1.403 . S
C346 C347 1.404 . S
C346 C349 1.539 . S
C347 C343 1.408 . S
C347 C346 1.404 . S
C347 H359 0.930 . S
C348 C344 1.524 . S
C348 H360 0.956 . S
C348 H361 0.961 . S
C348 H362 0.961 . S
C349 C346 1.539 . S
C349 H363 0.958 . S
C349 H364 0.961 . S
C349 H365 0.960 . S
H350 C334 0.931 . S
H351 C339 0.929 . S
H352 C340 0.960 . S
H353 C340 0.962 . S
H354 C340 0.960 . S
H355 C341 0.961 . S
H356 C341 0.961 . S
H357 C341 0.961 . S
H358 C342 0.931 . S
H359 C347 0.930 . S
H360 C348 0.956 . S
H361 C348 0.961 . S
H362 C348 0.961 . S
H363 C349 0.958 . S
H364 C349 0.961 . S
H365 C349 0.960 . S
C366 C367 1.391 . S
C366 C368 1.394 . S
C366 H382 0.931 . S
C367 C366 1.391 . S
C367 C371 1.376 . S
C368 C366 1.394 . S
C368 C369 1.369 . S
C368 C372 1.531 . S
C369 C368 1.369 . S
C369 C370 1.410 . S
C369 C377 1.503 . S
C370 C369 1.410 . S
C370 C371 1.392 . S
C370 C373 1.511 . S
C371 C367 1.376 . S
C371 C370 1.392 . S
C371 H383 0.929 . S
C372 C368 1.531 . S
C372 H384 0.960 . S
C372 H385 0.962 . S
C372 H386 0.960 . S
C373 C370 1.511 . S
C373 H387 0.961 . S
C373 H388 0.961 . S
C373 H389 0.961 . S
C374 C375 1.370 . S
C374 C376 1.363 . S
C374 H390 0.931 . S
C375 C374 1.370 . S
C375 C379 1.408 . S
C376 C374 1.363 . S
C376 C377 1.370 . S
C376 C380 1.524 . S
C377 C369 1.503 . S
C377 C376 1.370 . S
C377 C378 1.403 . S
C378 C377 1.403 . S
C378 C379 1.404 . S
C378 C381 1.539 . S
C379 C375 1.408 . S
C379 C378 1.404 . S
C379 H391 0.930 . S
C380 C376 1.524 . S
C380 H392 0.956 . S
C380 H393 0.961 . S
C380 H394 0.961 . S
C381 C378 1.539 . S
C381 H395 0.958 . S
C381 H396 0.961 . S
C381 H397 0.960 . S
H382 C366 0.931 . S
H383 C371 0.929 . S
H384 C372 0.960 . S
H385 C372 0.962 . S
H386 C372 0.960 . S
H387 C373 0.961 . S
H388 C373 0.961 . S
H389 C373 0.961 . S
H390 C374 0.931 . S
H391 C379 0.930 . S
H392 C380 0.956 . S
H393 C380 0.961 . S
H394 C380 0.961 . S
H395 C381 0.958 . S
H396 C381 0.961 . S
H397 C381 0.960 . S
C398 C399 1.391 . S
C398 C400 1.394 . S
C398 H414 0.931 . S
C399 C398 1.391 . S
C399 C403 1.376 . S
C400 C398 1.394 . S
C400 C401 1.369 . S
C400 C404 1.531 . S
C401 C400 1.369 . S
C401 C402 1.410 . S
C401 C409 1.503 . S
C402 C401 1.410 . S
C402 C403 1.392 . S
C402 C405 1.511 . S
C403 C399 1.376 . S
C403 C402 1.392 . S
C403 H415 0.929 . S
C404 C400 1.531 . S
C404 H416 0.960 . S
C404 H417 0.962 . S
C404 H418 0.960 . S
C405 C402 1.511 . S
C405 H419 0.961 . S
C405 H420 0.961 . S
C405 H421 0.961 . S
C406 C407 1.370 . S
C406 C408 1.363 . S
C406 H422 0.931 . S
C407 C406 1.370 . S
C407 C411 1.408 . S
C408 C406 1.363 . S
C408 C409 1.370 . S
C408 C412 1.524 . S
C409 C401 1.503 . S
C409 C408 1.370 . S
C409 C410 1.403 . S
C410 C409 1.403 . S
C410 C411 1.404 . S
C410 C413 1.539 . S
C411 C407 1.408 . S
C411 C410 1.404 . S
C411 H423 0.930 . S
C412 C408 1.524 . S
C412 H424 0.956 . S
C412 H425 0.961 . S
C412 H426 0.961 . S
C413 C410 1.539 . S
C413 H427 0.958 . S
C413 H428 0.961 . S
C413 H429 0.960 . S
H414 C398 0.931 . S
H415 C403 0.929 . S
H416 C404 0.960 . S
H417 C404 0.962 . S
H418 C404 0.960 . S
H419 C405 0.961 . S
H420 C405 0.961 . S
H421 C405 0.961 . S
H422 C406 0.931 . S
H423 C411 0.930 . S
H424 C412 0.956 . S
H425 C412 0.961 . S
H426 C412 0.961 . S
H427 C413 0.958 . S
H428 C413 0.961 . S
H429 C413 0.960 . S
C430 C431 1.391 . S
C430 C432 1.394 . S
C430 H446 0.931 . S
C431 C430 1.391 . S
C431 C435 1.376 . S
C432 C430 1.394 . S
C432 C433 1.369 . S
C432 C436 1.531 . S
C433 C432 1.369 . S
C433 C434 1.410 . S
C433 C441 1.503 . S
C434 C433 1.410 . S
C434 C435 1.392 . S
C434 C437 1.511 . S
C435 C431 1.376 . S
C435 C434 1.392 . S
C435 H447 0.929 . S
C436 C432 1.531 . S
C436 H448 0.960 . S
C436 H449 0.962 . S
C436 H450 0.960 . S
C437 C434 1.511 . S
C437 H451 0.961 . S
C437 H452 0.961 . S
C437 H453 0.961 . S
C438 C439 1.370 1_565 S
C438 C440 1.363 . S
C438 H454 0.931 . S
C439 C438 1.370 1_545 S
C439 C443 1.408 . S
C440 C438 1.363 . S
C440 C441 1.370 . S
C440 C444 1.524 . S
C441 C433 1.503 . S
C441 C440 1.370 . S
C441 C442 1.403 . S
C442 C441 1.403 . S
C442 C443 1.404 1_565 S
C442 C445 1.539 . S
C443 C439 1.408 . S
C443 C442 1.404 1_545 S
C443 H455 0.930 . S
C444 C440 1.524 . S
C444 H456 0.956 . S
C444 H457 0.961 . S
C444 H458 0.961 . S
C445 C442 1.539 . S
C445 H459 0.958 . S
C445 H460 0.961 . S
C445 H461 0.960 . S
H446 C430 0.931 . S
H447 C435 0.929 . S
H448 C436 0.960 . S
H449 C436 0.962 . S
H450 C436 0.960 . S
H451 C437 0.961 . S
H452 C437 0.961 . S
H453 C437 0.961 . S
H454 C438 0.931 . S
H455 C443 0.930 . S
H456 C444 0.956 . S
H457 C444 0.961 . S
H458 C444 0.961 . S
H459 C445 0.958 . S
H460 C445 0.961 . S
H461 C445 0.960 . S
C462 C463 1.391 . S
C462 C464 1.394 . S
C462 H478 0.931 . S
C463 C462 1.391 . S
C463 C467 1.376 . S
C464 C462 1.394 . S
C464 C465 1.369 . S
C464 C468 1.531 . S
C465 C464 1.369 . S
C465 C466 1.410 . S
C465 C473 1.503 . S
C466 C465 1.410 . S
C466 C467 1.392 . S
C466 C469 1.511 . S
C467 C463 1.376 . S
C467 C466 1.392 . S
C467 H479 0.929 . S
C468 C464 1.531 . S
C468 H480 0.960 . S
C468 H481 0.962 . S
C468 H482 0.960 . S
C469 C466 1.511 . S
C469 H483 0.961 . S
C469 H484 0.961 . S
C469 H485 0.961 . S
C470 C471 1.370 . S
C470 C472 1.363 . S
C470 H486 0.931 . S
C471 C470 1.370 . S
C471 C475 1.408 . S
C472 C470 1.363 . S
C472 C473 1.370 . S
C472 C476 1.524 . S
C473 C465 1.503 . S
C473 C472 1.370 . S
C473 C474 1.403 . S
C474 C473 1.403 . S
C474 C475 1.404 . S
C474 C477 1.539 . S
C475 C471 1.408 . S
C475 C474 1.404 . S
C475 H487 0.930 . S
C476 C472 1.524 . S
C476 H488 0.956 . S
C476 H489 0.961 . S
C476 H490 0.961 . S
C477 C474 1.539 . S
C477 H491 0.958 . S
C477 H492 0.961 . S
C477 H493 0.960 . S
H478 C462 0.931 . S
H479 C467 0.929 . S
H480 C468 0.960 . S
H481 C468 0.962 . S
H482 C468 0.960 . S
H483 C469 0.961 . S
H484 C469 0.961 . S
H485 C469 0.961 . S
H486 C470 0.931 . S
H487 C475 0.930 . S
H488 C476 0.956 . S
H489 C476 0.961 . S
H490 C476 0.961 . S
H491 C477 0.958 . S
H492 C477 0.961 . S
H493 C477 0.960 . S
C494 C495 1.391 . S
C494 C496 1.394 . S
C494 H510 0.931 . S
C495 C494 1.391 . S
C495 C499 1.376 . S
C496 C494 1.394 . S
C496 C497 1.369 . S
C496 C500 1.531 . S
C497 C496 1.369 . S
C497 C498 1.410 . S
C497 C505 1.503 . S
C498 C497 1.410 . S
C498 C499 1.392 . S
C498 C501 1.511 . S
C499 C495 1.376 . S
C499 C498 1.392 . S
C499 H511 0.929 . S
C500 C496 1.531 . S
C500 H512 0.960 . S
C500 H513 0.962 . S
C500 H514 0.960 . S
C501 C498 1.511 . S
C501 H515 0.961 . S
C501 H516 0.961 . S
C501 H517 0.961 . S
C502 C503 1.370 . S
C502 C504 1.363 . S
C502 H518 0.931 . S
C503 C502 1.370 . S
C503 C507 1.408 . S
C504 C502 1.363 . S
C504 C505 1.370 . S
C504 C508 1.524 . S
C505 C497 1.503 . S
C505 C504 1.370 . S
C505 C506 1.403 . S
C506 C505 1.403 . S
C506 C507 1.404 . S
C506 C509 1.539 . S
C507 C503 1.408 . S
C507 C506 1.404 . S
C507 H519 0.930 . S
C508 C504 1.524 . S
C508 H520 0.956 . S
C508 H521 0.961 . S
C508 H522 0.961 . S
C509 C506 1.539 . S
C509 H523 0.958 . S
C509 H524 0.961 . S
C509 H525 0.960 . S
H510 C494 0.931 . S
H511 C499 0.929 . S
H512 C500 0.960 . S
H513 C500 0.962 . S
H514 C500 0.960 . S
H515 C501 0.961 . S
H516 C501 0.961 . S
H517 C501 0.961 . S
H518 C502 0.931 . S
H519 C507 0.930 . S
H520 C508 0.956 . S
H521 C508 0.961 . S
H522 C508 0.961 . S
H523 C509 0.958 . S
H524 C509 0.961 . S
H525 C509 0.960 . S
C526 C527 1.391 . S
C526 C528 1.394 . S
C526 H542 0.931 . S
C527 C526 1.391 . S
C527 C531 1.376 . S
C528 C526 1.394 . S
C528 C529 1.369 . S
C528 C532 1.531 . S
C529 C528 1.369 . S
C529 C530 1.410 . S
C529 C537 1.503 . S
C530 C529 1.410 . S
C530 C531 1.392 . S
C530 C533 1.511 . S
C531 C527 1.376 . S
C531 C530 1.392 . S
C531 H543 0.929 . S
C532 C528 1.531 . S
C532 H544 0.960 . S
C532 H545 0.962 . S
C532 H546 0.960 . S
C533 C530 1.511 . S
C533 H547 0.961 . S
C533 H548 0.961 . S
C533 H549 0.961 . S
C534 C535 1.370 . S
C534 C536 1.363 . S
C534 H550 0.931 . S
C535 C534 1.370 . S
C535 C539 1.408 . S
C536 C534 1.363 . S
C536 C537 1.370 . S
C536 C540 1.524 . S
C537 C529 1.503 . S
C537 C536 1.370 . S
C537 C538 1.403 . S
C538 C537 1.403 . S
C538 C539 1.404 . S
C538 C541 1.539 . S
C539 C535 1.408 . S
C539 C538 1.404 . S
C539 H551 0.930 . S
C540 C536 1.524 . S
C540 H552 0.956 . S
C540 H553 0.961 . S
C540 H554 0.961 . S
C541 C538 1.539 . S
C541 H555 0.958 . S
C541 H556 0.961 . S
C541 H557 0.960 . S
H542 C526 0.931 . S
H543 C531 0.929 . S
H544 C532 0.960 . S
H545 C532 0.962 . S
H546 C532 0.960 . S
H547 C533 0.961 . S
H548 C533 0.961 . S
H549 C533 0.961 . S
H550 C534 0.931 . S
H551 C539 0.930 . S
H552 C540 0.956 . S
H553 C540 0.961 . S
H554 C540 0.961 . S
H555 C541 0.958 . S
H556 C541 0.961 . S
H557 C541 0.960 . S
C558 C559 1.391 . S
C558 C560 1.394 . S
C558 H574 0.931 . S
C559 C558 1.391 . S
C559 C563 1.376 1_455 S
C560 C558 1.394 . S
C560 C561 1.369 . S
C560 C564 1.531 . S
C561 C560 1.369 . S
C561 C562 1.410 1_455 S
C561 C569 1.503 . S
C562 C561 1.410 1_655 S
C562 C563 1.392 . S
C562 C565 1.511 . S
C563 C559 1.376 1_655 S
C563 C562 1.392 . S
C563 H575 0.929 . S
C564 C560 1.531 . S
C564 H576 0.960 . S
C564 H577 0.962 . S
C564 H578 0.960 . S
C565 C562 1.511 . S
C565 H579 0.961 . S
C565 H580 0.961 . S
C565 H581 0.961 . S
C566 C567 1.370 . S
C566 C568 1.363 1_556 S
C566 H582 0.931 . S
C567 C566 1.370 . S
C567 C571 1.408 1_455 S
C568 C566 1.363 1_554 S
C568 C569 1.370 . S
C568 C572 1.524 . S
C569 C561 1.503 . S
C569 C568 1.370 . S
C569 C570 1.403 1_455 S
C570 C569 1.403 1_655 S
C570 C571 1.404 1_554 S
C570 C573 1.539 . S
C571 C567 1.408 1_655 S
C571 C570 1.404 1_556 S
C571 H583 0.930 . S
C572 C568 1.524 . S
C572 H584 0.956 . S
C572 H585 0.961 . S
C572 H586 0.961 1_554 S
C573 C570 1.539 . S
C573 H587 0.958 . S
C573 H588 0.961 . S
C573 H589 0.960 . S
H574 C558 0.931 . S
H575 C563 0.929 . S
H576 C564 0.960 . S
H577 C564 0.962 . S
H578 C564 0.960 . S
H579 C565 0.961 . S
H580 C565 0.961 . S
H581 C565 0.961 . S
H582 C566 0.931 . S
H583 C571 0.930 . S
H584 C572 0.956 . S
H585 C572 0.961 . S
H586 C572 0.961 1_556 S
H587 C573 0.958 . S
H588 C573 0.961 . S
H589 C573 0.960 . S
C590 C591 1.391 . S
C590 C592 1.394 . S
C590 H606 0.931 1_545 S
C591 C590 1.391 . S
C591 C595 1.376 . S
C592 C590 1.394 . S
C592 C593 1.369 . S
C592 C596 1.531 1_545 S
C593 C592 1.369 . S
C593 C594 1.410 . S
C593 C601 1.503 . S
C594 C593 1.410 . S
C594 C595 1.392 . S
C594 C597 1.511 . S
C595 C591 1.376 . S
C595 C594 1.392 . S
C595 H607 0.929 . S
C596 C592 1.531 1_565 S
C596 H608 0.960 . S
C596 H609 0.962 . S
C596 H610 0.960 . S
C597 C594 1.511 . S
C597 H611 0.961 . S
C597 H612 0.961 . S
C597 H613 0.961 . S
C598 C599 1.370 . S
C598 C600 1.363 . S
C598 H614 0.931 . S
C599 C598 1.370 . S
C599 C603 1.408 . S
C600 C598 1.363 . S
C600 C601 1.370 . S
C600 C604 1.524 . S
C601 C593 1.503 . S
C601 C600 1.370 . S
C601 C602 1.403 . S
C602 C601 1.403 . S
C602 C603 1.404 . S
C602 C605 1.539 1_545 S
C603 C599 1.408 . S
C603 C602 1.404 . S
C603 H615 0.930 1_545 S
C604 C600 1.524 . S
C604 H616 0.956 . S
C604 H617 0.961 . S
C604 H618 0.961 . S
C605 C602 1.539 1_565 S
C605 H619 0.958 . S
C605 H620 0.961 . S
C605 H621 0.960 . S
H606 C590 0.931 1_565 S
H607 C595 0.929 . S
H608 C596 0.960 . S
H609 C596 0.962 . S
H610 C596 0.960 . S
H611 C597 0.961 . S
H612 C597 0.961 . S
H613 C597 0.961 . S
H614 C598 0.931 . S
H615 C603 0.930 1_565 S
H616 C604 0.956 . S
H617 C604 0.961 . S
H618 C604 0.961 . S
H619 C605 0.958 . S
H620 C605 0.961 . S
H621 C605 0.960 . S
C622 C623 1.391 . S
C622 C624 1.394 . S
C622 H638 0.931 . S
C623 C622 1.391 . S
C623 C627 1.376 . S
C624 C622 1.394 . S
C624 C625 1.369 . S
C624 C628 1.531 . S
C625 C624 1.369 . S
C625 C626 1.410 . S
C625 C633 1.503 . S
C626 C625 1.410 . S
C626 C627 1.392 . S
C626 C629 1.511 . S
C627 C623 1.376 . S
C627 C626 1.392 . S
C627 H639 0.929 . S
C628 C624 1.531 . S
C628 H640 0.960 . S
C628 H641 0.962 . S
C628 H642 0.960 . S
C629 C626 1.511 . S
C629 H643 0.961 . S
C629 H644 0.961 . S
C629 H645 0.961 . S
C630 C631 1.370 . S
C630 C632 1.363 . S
C630 H646 0.931 . S
C631 C630 1.370 . S
C631 C635 1.408 . S
C632 C630 1.363 . S
C632 C633 1.370 . S
C632 C636 1.524 . S
C633 C625 1.503 . S
C633 C632 1.370 . S
C633 C634 1.403 . S
C634 C633 1.403 . S
C634 C635 1.404 . S
C634 C637 1.539 . S
C635 C631 1.408 . S
C635 C634 1.404 . S
C635 H647 0.930 . S
C636 C632 1.524 . S
C636 H648 0.956 . S
C636 H649 0.961 . S
C636 H650 0.961 . S
C637 C634 1.539 . S
C637 H651 0.958 . S
C637 H652 0.961 . S
C637 H653 0.960 . S
H638 C622 0.931 . S
H639 C627 0.929 . S
H640 C628 0.960 . S
H641 C628 0.962 . S
H642 C628 0.960 . S
H643 C629 0.961 . S
H644 C629 0.961 . S
H645 C629 0.961 . S
H646 C630 0.931 . S
H647 C635 0.930 . S
H648 C636 0.956 . S
H649 C636 0.961 . S
H650 C636 0.961 . S
H651 C637 0.958 . S
H652 C637 0.961 . S
H653 C637 0.960 . S
C654 C655 1.391 1_565 S
C654 C656 1.394 . S
C654 H670 0.931 . S
C655 C654 1.391 1_545 S
C655 C659 1.376 . S
C656 C654 1.394 . S
C656 C657 1.369 1_565 S
C656 C660 1.531 . S
C657 C656 1.369 1_545 S
C657 C658 1.410 . S
C657 C665 1.503 . S
C658 C657 1.410 . S
C658 C659 1.392 . S
C658 C661 1.511 . S
C659 C655 1.376 . S
C659 C658 1.392 . S
C659 H671 0.929 . S
C660 C656 1.531 . S
C660 H672 0.960 . S
C660 H673 0.962 . S
C660 H674 0.960 . S
C661 C658 1.511 . S
C661 H675 0.961 . S
C661 H676 0.961 . S
C661 H677 0.961 . S
C662 C663 1.370 . S
C662 C664 1.363 . S
C662 H678 0.931 . S
C663 C662 1.370 . S
C663 C667 1.408 1_545 S
C664 C662 1.363 . S
C664 C665 1.370 . S
C664 C668 1.524 . S
C665 C657 1.503 . S
C665 C664 1.370 . S
C665 C666 1.403 1_545 S
C666 C665 1.403 1_565 S
C666 C667 1.404 . S
C666 C669 1.539 . S
C667 C663 1.408 1_565 S
C667 C666 1.404 . S
C667 H679 0.930 . S
C668 C664 1.524 . S
C668 H680 0.956 . S
C668 H681 0.961 . S
C668 H682 0.961 . S
C669 C666 1.539 . S
C669 H683 0.958 . S
C669 H684 0.961 . S
C669 H685 0.960 . S
H670 C654 0.931 . S
H671 C659 0.929 . S
H672 C660 0.960 . S
H673 C660 0.962 . S
H674 C660 0.960 . S
H675 C661 0.961 . S
H676 C661 0.961 . S
H677 C661 0.961 . S
H678 C662 0.931 . S
H679 C667 0.930 . S
H680 C668 0.956 . S
H681 C668 0.961 . S
H682 C668 0.961 . S
H683 C669 0.958 . S
H684 C669 0.961 . S
H685 C669 0.960 . S
C686 C687 1.391 . S
C686 C688 1.394 . S
C686 H702 0.931 . S
C687 C686 1.391 . S
C687 C691 1.376 . S
C688 C686 1.394 . S
C688 C689 1.369 . S
C688 C692 1.531 . S
C689 C688 1.369 . S
C689 C690 1.410 . S
C689 C697 1.503 . S
C690 C689 1.410 . S
C690 C691 1.392 . S
C690 C693 1.511 . S
C691 C687 1.376 . S
C691 C690 1.392 . S
C691 H703 0.929 . S
C692 C688 1.531 . S
C692 H704 0.960 . S
C692 H705 0.962 . S
C692 H706 0.960 . S
C693 C690 1.511 . S
C693 H707 0.961 . S
C693 H708 0.961 . S
C693 H709 0.961 . S
C694 C695 1.370 . S
C694 C696 1.363 . S
C694 H710 0.931 . S
C695 C694 1.370 . S
C695 C699 1.408 . S
C696 C694 1.363 . S
C696 C697 1.370 1_554 S
C696 C700 1.524 1_554 S
C697 C689 1.503 . S
C697 C696 1.370 1_556 S
C697 C698 1.403 1_556 S
C698 C697 1.403 1_554 S
C698 C699 1.404 . S
C698 C701 1.539 1_554 S
C699 C695 1.408 . S
C699 C698 1.404 . S
C699 H711 0.930 . S
C700 C696 1.524 1_556 S
C700 H712 0.956 . S
C700 H713 0.961 . S
C700 H714 0.961 1_556 S
C701 C698 1.539 1_556 S
C701 H715 0.958 . S
C701 H716 0.961 1_556 S
C701 H717 0.960 . S
H702 C686 0.931 . S
H703 C691 0.929 . S
H704 C692 0.960 . S
H705 C692 0.962 . S
H706 C692 0.960 . S
H707 C693 0.961 . S
H708 C693 0.961 . S
H709 C693 0.961 . S
H710 C694 0.931 . S
H711 C699 0.930 . S
H712 C700 0.956 . S
H713 C700 0.961 . S
H714 C700 0.961 1_554 S
H715 C701 0.958 . S
H716 C701 0.961 1_554 S
H717 C701 0.960 . S
C718 C719 1.391 . S
C718 C720 1.394 . S
C718 H734 0.931 . S
C719 C718 1.391 . S
C719 C723 1.376 . S
C720 C718 1.394 . S
C720 C721 1.369 . S
C720 C724 1.531 . S
C721 C720 1.369 . S
C721 C722 1.410 . S
C721 C729 1.503 . S
C722 C721 1.410 . S
C722 C723 1.392 . S
C722 C725 1.511 . S
C723 C719 1.376 . S
C723 C722 1.392 . S
C723 H735 0.929 . S
C724 C720 1.531 . S
C724 H736 0.960 . S
C724 H737 0.962 1_455 S
C724 H738 0.960 . S
C725 C722 1.511 . S
C725 H739 0.961 . S
C725 H740 0.961 . S
C725 H741 0.961 . S
C726 C727 1.370 . S
C726 C728 1.363 . S
C726 H742 0.931 1_455 S
C727 C726 1.370 . S
C727 C731 1.408 . S
C728 C726 1.363 . S
C728 C729 1.370 . S
C728 C732 1.524 1_455 S
C729 C721 1.503 . S
C729 C728 1.370 . S
C729 C730 1.403 . S
C730 C729 1.403 . S
C730 C731 1.404 . S
C730 C733 1.539 . S
C731 C727 1.408 . S
C731 C730 1.404 . S
C731 H743 0.930 . S
C732 C728 1.524 1_655 S
C732 H744 0.956 . S
C732 H745 0.961 . S
C732 H746 0.961 . S
C733 C730 1.539 . S
C733 H747 0.958 . S
C733 H748 0.961 . S
C733 H749 0.960 . S
H734 C718 0.931 . S
H735 C723 0.929 . S
H736 C724 0.960 . S
H737 C724 0.962 1_655 S
H738 C724 0.960 . S
H739 C725 0.961 . S
H740 C725 0.961 . S
H741 C725 0.961 . S
H742 C726 0.931 1_655 S
H743 C731 0.930 . S
H744 C732 0.956 . S
H745 C732 0.961 . S
H746 C732 0.961 . S
H747 C733 0.958 . S
H748 C733 0.961 . S
H749 C733 0.960 . S
C175 C19 2.867 . S
C183 C169 2.885 . S
C207 C49 2.971 . S
C215 C151 2.955 1_655 S
C239 C99 2.845 . S
C247 C163 2.856 . S
C271 C9 2.957 . S
C279 C172 2.924 . S
C311 C154 2.856 . S
C303 C59 2.843 . S
C343 C160 2.955 . S
C335 C89 2.972 . S
C367 C55 0.558 . S
C375 C133 0.480 . S
C399 C85 0.577 . S
C407 C142 0.512 . S
C431 C15 0.485 . S
C439 C124 0.485 . S
C471 C136 0.489 . S
C463 C45 0.678 . S
C503 C145 0.457 . S
C495 C95 0.427 . S
C527 C5 0.685 . S
C535 C127 0.490 . S
C567 C143 1.015 . S
C559 C18 1.029 . S
C591 C58 1.008 . S
C599 C125 1.015 . S
C623 C98 1.023 . S
C631 C134 1.016 . S
C663 C161 1.817 . S
C655 C48 1.748 . S
C695 C170 1.818 . S
C687 C88 1.723 . S
C719 C8 1.715 . S
C727 C152 1.818 . S
