# Generated by pormake.
# Topology pyr, (3,6)-cn, num edge types: 1
# Building blocks:
#     Node 0, Type 0, BuildingBlock: BETDIP_clean_linker_0, # of connection points: 3
#     Node 1, Type 0, BuildingBlock: BETDIP_clean_linker_0, # of connection points: 3
#     Node 2, Type 0, BuildingBlock: BETDIP_clean_linker_0, # of connection points: 3
#     Node 3, Type 0, BuildingBlock: BETDIP_clean_linker_0, # of connection points: 3
#     Node 4, Type 0, BuildingBlock: BETDIP_clean_linker_0, # of connection points: 3
#     Node 5, Type 0, BuildingBlock: BETDIP_clean_linker_0, # of connection points: 3
#     Node 6, Type 0, BuildingBlock: BETDIP_clean_linker_0, # of connection points: 3
#     Node 7, Type 0, BuildingBlock: BETDIP_clean_linker_0, # of connection points: 3
#     Node 8, Type 1, BuildingBlock: MIDCAF_clean_sbu_0, # of connection points: 6
#     Node 9, Type 1, BuildingBlock: MIDCAF_clean_sbu_0, # of connection points: 6
#     Node 10, Type 1, BuildingBlock: MIDCAF_clean_sbu_0, # of connection points: 6
#     Node 11, Type 1, BuildingBlock: MIDCAF_clean_sbu_0, # of connection points: 6
#     Edge 12, Type (0, 1), BuildingBlock: ZUJKAS_clean_linker_0, # of connection points: 2
#     Edge 13, Type (0, 1), BuildingBlock: ZUJKAS_clean_linker_0, # of connection points: 2
#     Edge 14, Type (0, 1), BuildingBlock: ZUJKAS_clean_linker_0, # of connection points: 2
#     Edge 15, Type (0, 1), BuildingBlock: ZUJKAS_clean_linker_0, # of connection points: 2
#     Edge 16, Type (0, 1), BuildingBlock: ZUJKAS_clean_linker_0, # of connection points: 2
#     Edge 17, Type (0, 1), BuildingBlock: ZUJKAS_clean_linker_0, # of connection points: 2
#     Edge 18, Type (0, 1), BuildingBlock: ZUJKAS_clean_linker_0, # of connection points: 2
#     Edge 19, Type (0, 1), BuildingBlock: ZUJKAS_clean_linker_0, # of connection points: 2
#     Edge 20, Type (0, 1), BuildingBlock: ZUJKAS_clean_linker_0, # of connection points: 2
#     Edge 21, Type (0, 1), BuildingBlock: ZUJKAS_clean_linker_0, # of connection points: 2
#     Edge 22, Type (0, 1), BuildingBlock: ZUJKAS_clean_linker_0, # of connection points: 2
#     Edge 23, Type (0, 1), BuildingBlock: ZUJKAS_clean_linker_0, # of connection points: 2
#     Edge 24, Type (0, 1), BuildingBlock: ZUJKAS_clean_linker_0, # of connection points: 2
#     Edge 25, Type (0, 1), BuildingBlock: ZUJKAS_clean_linker_0, # of connection points: 2
#     Edge 26, Type (0, 1), BuildingBlock: ZUJKAS_clean_linker_0, # of connection points: 2
#     Edge 27, Type (0, 1), BuildingBlock: ZUJKAS_clean_linker_0, # of connection points: 2
#     Edge 28, Type (0, 1), BuildingBlock: ZUJKAS_clean_linker_0, # of connection points: 2
#     Edge 29, Type (0, 1), BuildingBlock: ZUJKAS_clean_linker_0, # of connection points: 2
#     Edge 30, Type (0, 1), BuildingBlock: ZUJKAS_clean_linker_0, # of connection points: 2
#     Edge 31, Type (0, 1), BuildingBlock: ZUJKAS_clean_linker_0, # of connection points: 2
#     Edge 32, Type (0, 1), BuildingBlock: ZUJKAS_clean_linker_0, # of connection points: 2
#     Edge 33, Type (0, 1), BuildingBlock: ZUJKAS_clean_linker_0, # of connection points: 2
#     Edge 34, Type (0, 1), BuildingBlock: ZUJKAS_clean_linker_0, # of connection points: 2
#     Edge 35, Type (0, 1), BuildingBlock: ZUJKAS_clean_linker_0, # of connection points: 2
# Relax obj value: 0.086
# Max RMSD: 0.179
# Mean RMSD: 0.138
data_MOF--net-pyr--node1-MIDCAF_clean_sbu_0--node2-BETDIP_clean_linker_0--edge1-ZUJKAS_clean_linker_0
_symmetry_space_group_name_H-M    P1
_symmetry_Int_Tables_number       1
_symmetry_cell_setting            triclinic
loop_
_symmetry_equiv_pos_as_xyz
'x, y, z'
_cell_length_a     45.492054
_cell_length_b     45.004055
_cell_length_c     47.291869
_cell_angle_alpha  93.107549
_cell_angle_beta   85.918964
_cell_angle_gamma 96.929087
loop_
_atom_site_label
_atom_site_type_symbol
_atom_site_fract_x
_atom_site_fract_y
_atom_site_fract_z
_atom_type_partial_charge
H0 H 0.20991 0.24632 0.26074 0.0
H1 H 0.27786 0.23646 0.19419 0.0
H2 H 0.2713 0.18162 0.26643 0.0
H3 H 0.26268 0.27463 0.17562 0.0
C4 C 0.24216 0.28044 0.18633 0.0
C5 C 0.22879 0.23546 0.25205 0.0
C6 C 0.2387 0.21265 0.26675 0.0
C7 C 0.24284 0.24459 0.22613 0.0
C8 C 0.26736 0.23054 0.21463 0.0
C9 C 0.27795 0.20781 0.22911 0.0
C10 C 0.26351 0.19921 0.25523 0.0
N11 N 0.23087 0.26729 0.2122 0.0
H12 H 0.30132 0.84033 0.77303 0.0
H13 H 0.2953 0.77573 0.70273 0.0
H14 H 0.3583 0.77012 0.76504 0.0
H15 H 0.25134 0.79071 0.69862 0.0
C16 C 0.2519 0.81367 0.70703 0.0
C17 C 0.30844 0.82038 0.76211 0.0
C18 C 0.33142 0.8065 0.77239 0.0
C19 C 0.29479 0.80926 0.73741 0.0
C20 C 0.30483 0.78413 0.7223 0.0
C21 C 0.32773 0.76981 0.73221 0.0
C22 C 0.34061 0.781 0.75739 0.0
N23 N 0.27195 0.82474 0.72798 0.0
H24 H 0.78718 0.3346 0.7799 0.0
H25 H 0.71352 0.26605 0.79128 0.0
H26 H 0.78905 0.26793 0.84128 0.0
H27 H 0.70297 0.27763 0.74796 0.0
C28 C 0.71063 0.30129 0.7462 0.0
C29 C 0.77702 0.31463 0.79022 0.0
C30 C 0.79154 0.30282 0.81153 0.0
C31 C 0.74938 0.30104 0.78207 0.0
C32 C 0.73565 0.27562 0.79608 0.0
C33 C 0.74978 0.2635 0.8176 0.0
C34 C 0.77798 0.27698 0.8247 0.0
N35 N 0.73542 0.31468 0.76096 0.0
H36 H 0.77602 0.7034 0.27873 0.0
H37 H 0.84181 0.77882 0.29214 0.0
H38 H 0.77201 0.75785 0.35628 0.0
H39 H 0.85811 0.77013 0.24834 0.0
C40 C 0.84981 0.74751 0.24141 0.0
C41 C 0.78461 0.72256 0.29183 0.0
C42 C 0.77072 0.72845 0.3187 0.0
C43 C 0.80996 0.74071 0.28177 0.0
C44 C 0.82153 0.76533 0.29889 0.0
C45 C 0.80782 0.77179 0.32577 0.0
C46 C 0.78232 0.75334 0.33537 0.0
N47 N 0.82414 0.73204 0.2553 0.0
H48 H 0.86057 0.88259 0.93336 0.0
H49 H 0.93506 0.87057 0.8744 0.0
H50 H 0.8739 0.93204 0.85719 0.0
H51 H 0.95518 0.85995 0.9158 0.0
C52 C 0.93666 0.84596 0.92588 0.0
C53 C 0.87324 0.88809 0.91367 0.0
C54 C 0.86418 0.90916 0.89625 0.0
C55 C 0.89914 0.87469 0.90644 0.0
C56 C 0.9157 0.8817 0.88088 0.0
C57 C 0.9065 0.90211 0.86285 0.0
C58 C 0.88092 0.916 0.87086 0.0
N59 N 0.90731 0.85344 0.92474 0.0
H60 H 0.66427 0.11086 0.35441 0.0
H61 H 0.6763 0.17026 0.42789 0.0
H62 H 0.61058 0.18323 0.37005 0.0
H63 H 0.69095 0.12788 0.44557 0.0
C64 C 0.70382 0.11895 0.42753 0.0
C65 C 0.65783 0.12987 0.36744 0.0
C66 C 0.63555 0.14603 0.35911 0.0
C67 C 0.67209 0.13791 0.39247 0.0
C68 C 0.66452 0.16309 0.40915 0.0
C69 C 0.64261 0.17991 0.40101 0.0
C70 C 0.62814 0.17103 0.37603 0.0
N71 N 0.69467 0.12084 0.39962 0.0
H72 H 0.39163 0.58922 0.17807 0.0
H73 H 0.44571 0.6724 0.16168 0.0
H74 H 0.37095 0.64348 0.11191 0.0
H75 H 0.43655 0.57716 0.19144 0.0
C76 C 0.44415 0.59744 0.20365 0.0
C77 C 0.39689 0.609 0.16579 0.0
C78 C 0.37863 0.61375 0.14415 0.0
C79 C 0.42153 0.6299 0.17174 0.0
C80 C 0.42721 0.656 0.15643 0.0
C81 C 0.40913 0.66112 0.1347 0.0
C82 C 0.38503 0.63973 0.12861 0.0
N83 N 0.44025 0.62586 0.19372 0.0
H84 H 0.08431 0.38928 0.61196 0.0
H85 H 0.13562 0.47118 0.63876 0.0
H86 H 0.1762 0.40778 0.58257 0.0
H87 H 0.09073 0.48663 0.65011 0.0
C88 C 0.07812 0.46641 0.6581 0.0
C89 C 0.10491 0.40415 0.61068 0.0
C90 C 0.12999 0.3951 0.59494 0.0
C91 C 0.10639 0.4317 0.62609 0.0
C92 C 0.1335 0.45052 0.62588 0.0
C93 C 0.15877 0.44176 0.61047 0.0
C94 C 0.15673 0.41428 0.59478 0.0
N95 N 0.08116 0.43827 0.6438 0.0
Zn96 Zn 0.99799 0.05641 0.56784 0.0
Zn97 Zn 0.06229 0.98717 0.49974 0.0
Zn98 Zn 0.0295 0.02252 0.53334 0.0
C99 C 0.08494 0.04671 0.48989 0.0
C100 C 0.00309 0.97618 0.48429 0.0
O101 O 0.03083 0.0085 0.57761 0.0
O102 O 0.00607 0.04036 0.6042 0.0
C103 C 0.04156 0.0949 0.53953 0.0
O104 O 0.0637 0.0516 0.50847 0.0
O105 O 0.08994 0.02021 0.48288 0.0
O106 O 0.02865 0.96872 0.47755 0.0
O107 O 0.99923 0.99599 0.50451 0.0
O108 O 0.01933 0.09539 0.55703 0.0
O109 O 0.049 0.06977 0.52867 0.0
O110 O 0.9831 0.01743 0.5196 0.0
O111 O 0.95902 0.04454 0.5518 0.0
C112 C 0.95902 0.02792 0.52941 0.0
O113 O 0.05048 0.99261 0.56023 0.0
O114 O 0.07565 0.96414 0.53014 0.0
C115 C 0.0207 0.01816 0.60214 0.0
C116 C 0.06752 0.97168 0.55533 0.0
Zn117 Zn 0.49832 0.04326 0.99973 0.0
Zn118 Zn 0.56202 0.98096 0.05915 0.0
Zn119 Zn 0.53027 0.01131 0.02972 0.0
C120 C 0.60158 0.00895 0.01933 0.0
C121 C 0.51989 0.93925 0.03488 0.0
O122 O 0.50786 0.04268 0.05957 0.0
O123 O 0.48399 0.06878 0.03225 0.0
C124 C 0.55741 0.05339 0.97804 0.0
O125 O 0.57714 0.01708 0.01182 0.0
O126 O 0.60162 0.99377 0.04096 0.0
O127 O 0.54265 0.94053 0.04889 0.0
O128 O 0.51162 0.96341 0.02618 0.0
O129 O 0.53191 0.05992 0.97376 0.0
O130 O 0.56081 0.03582 0.99792 0.0
O131 O 0.4972 0.97947 0.00753 0.0
O132 O 0.47127 0.00852 0.98535 0.0
C133 C 0.47632 0.98264 0.99124 0.0
O134 O 0.52746 0.02878 0.0749 0.0
O135 O 0.55199 0.99857 0.09717 0.0
C136 C 0.49089 0.06316 0.05664 0.0
C137 C 0.53716 0.02058 0.09791 0.0
Zn138 Zn 0.5567 0.54962 0.56634 0.0
Zn139 Zn 0.48506 0.46877 0.50916 0.0
Zn140 Zn 0.52254 0.50945 0.53522 0.0
C141 C 0.5283 0.43749 0.52716 0.0
C142 C 0.51127 0.51144 0.46951 0.0
O143 O 0.4944 0.53561 0.56561 0.0
O144 O 0.5249 0.57236 0.58432 0.0
C145 C 0.56732 0.49137 0.57938 0.0
O146 O 0.53749 0.46393 0.53736 0.0
O147 O 0.50498 0.43313 0.51388 0.0
O148 O 0.49204 0.48883 0.47214 0.0
O149 O 0.52613 0.52202 0.49074 0.0
O150 O 0.57147 0.51839 0.58846 0.0
O151 O 0.55134 0.48393 0.55808 0.0
O152 O 0.54936 0.53871 0.50493 0.0
O153 O 0.58046 0.56638 0.53241 0.0
C154 C 0.57185 0.55867 0.50795 0.0
O155 O 0.47618 0.51294 0.55213 0.0
O156 O 0.44851 0.47413 0.53309 0.0
C157 C 0.49891 0.5597 0.58156 0.0
C158 C 0.45086 0.49706 0.54969 0.0
Zn159 Zn 0.0865 0.54941 0.98458 0.0
Zn160 Zn 0.00249 0.48327 0.04951 0.0
Zn161 Zn 0.04402 0.51589 0.01551 0.0
C162 C 0.05937 0.46932 0.06104 0.0
C163 C 0.99422 0.46556 0.9916 0.0
O164 O 0.03347 0.5625 0.0194 0.0
O165 O 0.06831 0.58763 0.99202 0.0
C166 C 0.11508 0.52447 0.02564 0.0
O167 O 0.06751 0.48941 0.04271 0.0
O168 O 0.03216 0.46253 0.06813 0.0
O169 O 0.98228 0.46262 0.01642 0.0
O170 O 0.0181 0.48367 0.98722 0.0
O171 O 0.12071 0.54224 0.00569 0.0
O172 O 0.08832 0.5122 0.03124 0.0
O173 O 0.03936 0.50212 0.97048 0.0
O174 O 0.07888 0.52643 0.94824 0.0
C175 C 0.05554 0.50817 0.94757 0.0
O176 O 0.01675 0.5464 0.04097 0.0
O177 O 0.98549 0.51821 0.06931 0.0
C178 C 0.04474 0.587 0.00795 0.0
C179 C 0.99595 0.54378 0.06097 0.0
H180 H 0.17859 0.20333 0.27853 0.0
H181 H 0.15175 0.18323 0.32121 0.0
H182 H 0.23477 0.17608 0.35752 0.0
H183 H 0.26184 0.19728 0.31532 0.0
H184 H 0.15445 0.12795 0.34004 0.0
H185 H 0.18817 0.21353 0.42394 0.0
H186 H 0.1937 0.22064 0.3866 0.0
H187 H 0.21906 0.20044 0.40324 0.0
C188 C 0.19119 0.19819 0.29585 0.0
C189 C 0.22242 0.202 0.29347 0.0
C190 C 0.17578 0.18653 0.3202 0.0
C191 C 0.19121 0.17853 0.34276 0.0
C192 C 0.22236 0.18269 0.34067 0.0
H193 H 0.14228 0.0498 0.46881 0.0
H194 H 0.16782 0.08566 0.43553 0.0
C195 C 0.23782 0.19441 0.31633 0.0
C196 C 0.17475 0.16336 0.36725 0.0
H197 H 0.16507 0.16596 0.43974 0.0
C198 C 0.15652 0.13649 0.36179 0.0
C199 C 0.17736 0.17456 0.39566 0.0
C200 C 0.1954 0.20403 0.40276 0.0
C201 C 0.14162 0.12007 0.38394 0.0
C202 C 0.14509 0.13069 0.41229 0.0
C203 C 0.16264 0.15789 0.4179 0.0
C204 C 0.13158 0.11266 0.43611 0.0
C205 C 0.12267 0.09105 0.37705 0.0
C206 C 0.10305 0.11656 0.44792 0.0
C207 C 0.08834 0.09602 0.4669 0.0
C208 C 0.10208 0.07147 0.47438 0.0
C209 C 0.13123 0.06859 0.46353 0.0
C210 C 0.14587 0.08907 0.44461 0.0
H211 H 0.12035 0.08707 0.35388 0.0
H212 H 0.13274 0.07209 0.38498 0.0
H213 H 0.10023 0.09118 0.38792 0.0
H214 H 0.09161 0.13452 0.44133 0.0
H215 H 0.06564 0.09838 0.47436 0.0
H216 H 0.39078 0.81149 0.78157 0.0
H217 H 0.41555 0.83328 0.82325 0.0
H218 H 0.33155 0.85394 0.86265 0.0
H219 H 0.30636 0.8308 0.82164 0.0
H220 H 0.41918 0.88983 0.84311 0.0
H221 H 0.36498 0.81773 0.92754 0.0
H222 H 0.36173 0.80779 0.8903 0.0
H223 H 0.3386 0.83363 0.90826 0.0
C224 C 0.3774 0.81998 0.79935 0.0
C225 C 0.34646 0.81917 0.7982 0.0
C226 C 0.39168 0.83265 0.82314 0.0
C227 C 0.37542 0.84482 0.84638 0.0
C228 C 0.34454 0.84404 0.84535 0.0
H229 H 0.41949 0.97772 0.97594 0.0
H230 H 0.39546 0.93985 0.9433 0.0
C231 C 0.3302 0.83121 0.82163 0.0
C232 C 0.39103 0.86031 0.87065 0.0
H233 H 0.39155 0.86459 0.94312 0.0
C234 C 0.41341 0.88395 0.86492 0.0
C235 C 0.38363 0.85264 0.89918 0.0
C236 C 0.36113 0.82636 0.9067 0.0
C237 C 0.42775 0.90078 0.88688 0.0
C238 C 0.41954 0.89384 0.91535 0.0
C239 C 0.39774 0.86981 0.92121 0.0
C240 C 0.43201 0.91307 0.93903 0.0
C241 C 0.45101 0.92657 0.87969 0.0
C242 C 0.46014 0.90991 0.94813 0.0
C243 C 0.47392 0.93149 0.96694 0.0
C244 C 0.45975 0.95654 0.97675 0.0
C245 C 0.4309 0.95862 0.96878 0.0
C246 C 0.41712 0.93701 0.95019 0.0
H247 H 0.45469 0.92927 0.85645 0.0
H248 H 0.44421 0.94771 0.88987 0.0
H249 H 0.47234 0.92294 0.88822 0.0
H250 H 0.47202 0.89163 0.93955 0.0
H251 H 0.49634 0.92959 0.97229 0.0
H252 H 0.66533 0.28105 0.71322 0.0
H253 H 0.64035 0.30964 0.68138 0.0
H254 H 0.6972 0.38973 0.7045 0.0
H255 H 0.72248 0.36127 0.73591 0.0
H256 H 0.60929 0.35751 0.69399 0.0
H257 H 0.70498 0.38959 0.61834 0.0
H258 H 0.70526 0.36089 0.64351 0.0
H259 H 0.71263 0.39983 0.65451 0.0
C260 C 0.67259 0.30472 0.71132 0.0
C261 C 0.69595 0.31885 0.72689 0.0
C262 C 0.65832 0.32102 0.69316 0.0
C263 C 0.66724 0.35172 0.69016 0.0
C264 C 0.69041 0.36593 0.70592 0.0
H265 H 0.57104 0.48905 0.63616 0.0
H266 H 0.59387 0.4528 0.66157 0.0
C267 C 0.70473 0.34964 0.72403 0.0
C268 C 0.65158 0.36919 0.67145 0.0
H269 H 0.66283 0.41634 0.61646 0.0
C270 C 0.62095 0.37015 0.67687 0.0
C271 C 0.66666 0.38527 0.64877 0.0
C272 C 0.69914 0.38365 0.6407 0.0
C273 C 0.60524 0.38766 0.66097 0.0
C274 C 0.62068 0.4051 0.63938 0.0
C275 C 0.65106 0.40322 0.63321 0.0
C276 C 0.60602 0.42642 0.62383 0.0
C277 C 0.57224 0.38727 0.66742 0.0
C278 C 0.60598 0.42421 0.59408 0.0
C279 C 0.59317 0.44517 0.57954 0.0
C280 C 0.58016 0.46856 0.59443 0.0
C281 C 0.58059 0.47097 0.62415 0.0
C282 C 0.59339 0.45012 0.6387 0.0
H283 H 0.56252 0.36647 0.67787 0.0
H284 H 0.56802 0.40658 0.68212 0.0
H285 H 0.56064 0.38911 0.64781 0.0
H286 H 0.61611 0.40646 0.58211 0.0
H287 H 0.59447 0.44385 0.55668 0.0
H288 H 0.83464 0.69257 0.21492 0.0
H289 H 0.86432 0.66657 0.17862 0.0
H290 H 0.93274 0.74172 0.17897 0.0
H291 H 0.90302 0.76805 0.21546 0.0
H292 H 0.89059 0.68786 0.122 0.0
H293 H 0.97301 0.66573 0.19785 0.0
H294 H 0.93653 0.67503 0.20988 0.0
H295 H 0.96405 0.70346 0.19616 0.0
C296 C 0.8559 0.70369 0.2072 0.0
C297 C 0.86666 0.73229 0.21815 0.0
C298 C 0.87278 0.68883 0.18639 0.0
C299 C 0.90076 0.70216 0.17632 0.0
C300 C 0.91127 0.73101 0.18667 0.0
H301 H 0.02569 0.59924 0.07239 0.0
H302 H 0.00523 0.64285 0.0963 0.0
C303 C 0.89429 0.746 0.20741 0.0
C304 C 0.9192 0.68506 0.15589 0.0
H305 H 0.9772 0.64314 0.15211 0.0
C306 C 0.90979 0.67841 0.1284 0.0
C307 C 0.9444 0.67307 0.16425 0.0
C308 C 0.9552 0.67946 0.19365 0.0
C309 C 0.92431 0.65907 0.10939 0.0
C310 C 0.9483 0.64554 0.11842 0.0
C311 C 0.95873 0.65351 0.14532 0.0
C312 C 0.96048 0.6205 0.10174 0.0
C313 C 0.91358 0.6528 0.07997 0.0
C314 C 0.94213 0.59356 0.09708 0.0
C315 C 0.95371 0.56879 0.08357 0.0
C316 C 0.98385 0.57052 0.07432 0.0
C317 C 0.00226 0.59752 0.07888 0.0
C318 C 0.99065 0.62235 0.09257 0.0
H319 H 0.9016 0.67117 0.07347 0.0
H320 H 0.93237 0.64983 0.06415 0.0
H321 H 0.89799 0.63184 0.07968 0.0
H322 H 0.91894 0.59145 0.10458 0.0
H323 H 0.93909 0.54819 0.08045 0.0
H324 H 0.2849 0.14802 0.22926 0.0
H325 H 0.32623 0.12275 0.20812 0.0
H326 H 0.36922 0.20673 0.17759 0.0
H327 H 0.32879 0.2325 0.20008 0.0
H328 H 0.34338 0.11677 0.15404 0.0
H329 H 0.43802 0.17544 0.20975 0.0
H330 H 0.39996 0.17898 0.22167 0.0
H331 H 0.41803 0.2012 0.19346 0.0
C332 C 0.30346 0.16132 0.21868 0.0
C333 C 0.30348 0.19242 0.21657 0.0
C334 C 0.32703 0.14675 0.20641 0.0
C335 C 0.35118 0.16286 0.19167 0.0
C336 C 0.35129 0.19388 0.18948 0.0
H337 H 0.47715 0.1203 0.06005 0.0
H338 H 0.44617 0.14355 0.09729 0.0
C339 C 0.32784 0.20853 0.20196 0.0
C340 C 0.37499 0.14685 0.17671 0.0
H341 H 0.45032 0.14786 0.16619 0.0
C342 C 0.36672 0.12327 0.15711 0.0
C343 C 0.40553 0.15517 0.18074 0.0
C344 C 0.41591 0.17887 0.20278 0.0
C345 C 0.38806 0.10874 0.14062 0.0
C346 C 0.41849 0.118 0.14375 0.0
C347 C 0.42692 0.1409 0.16386 0.0
C348 C 0.44147 0.10579 0.12427 0.0
C349 C 0.37806 0.08428 0.1191 0.0
C350 C 0.44981 0.07721 0.12764 0.0
C351 C 0.46767 0.06388 0.10639 0.0
C352 C 0.47725 0.07896 0.08151 0.0
C353 C 0.47009 0.10818 0.07901 0.0
C354 C 0.45249 0.12153 0.10027 0.0
H355 H 0.35352 0.08047 0.11851 0.0
H356 H 0.38781 0.09013 0.09763 0.0
H357 H 0.38614 0.06303 0.12425 0.0
H358 H 0.44134 0.0647 0.146 0.0
H359 H 0.47242 0.04116 0.10866 0.0
H360 H 0.21222 0.79809 0.66728 0.0
H361 H 0.17719 0.82863 0.64935 0.0
H362 H 0.20742 0.902 0.70664 0.0
H363 H 0.24293 0.87169 0.7243 0.0
H364 H 0.13076 0.85563 0.67708 0.0
H365 H 0.21645 0.94112 0.63033 0.0
H366 H 0.22546 0.90595 0.6419 0.0
H367 H 0.21848 0.93571 0.66746 0.0
C368 C 0.21141 0.82076 0.67602 0.0
C369 C 0.23045 0.83253 0.69703 0.0
C370 C 0.19133 0.83816 0.66583 0.0
C371 C 0.18988 0.86776 0.67637 0.0
C372 C 0.2085 0.87943 0.69778 0.0
H373 H 0.08539 0.99669 0.60643 0.0
H374 H 0.1117 0.97314 0.64134 0.0
C375 C 0.22871 0.86202 0.70795 0.0
C376 C 0.16904 0.8862 0.66451 0.0
H377 H 0.16657 0.94726 0.62513 0.0
C378 C 0.13858 0.87582 0.66595 0.0
C379 C 0.17917 0.91269 0.65013 0.0
C380 C 0.21167 0.9245 0.64708 0.0
C381 C 0.11819 0.8907 0.65274 0.0
C382 C 0.12851 0.91641 0.63741 0.0
C383 C 0.1587 0.92759 0.63701 0.0
C384 C 0.1092 0.92985 0.61881 0.0
C385 C 0.08577 0.87853 0.65486 0.0
C386 C 0.09879 0.91325 0.59483 0.0
C387 C 0.08399 0.92663 0.57495 0.0
C388 C 0.07903 0.95684 0.57872 0.0
C389 C 0.08841 0.97321 0.60328 0.0
C390 C 0.1036 0.95985 0.6231 0.0
H391 H 0.08021 0.86434 0.67345 0.0
H392 H 0.0715 0.89701 0.65656 0.0
H393 H 0.0805 0.86451 0.63544 0.0
H394 H 0.10328 0.89024 0.59083 0.0
H395 H 0.07716 0.91354 0.55613 0.0
H396 H 0.84147 0.2785 0.82334 0.0
H397 H 0.88464 0.30376 0.84675 0.0
H398 H 0.84795 0.38776 0.84697 0.0
H399 H 0.80492 0.36276 0.82345 0.0
H400 H 0.91021 0.39336 0.83568 0.0
H401 H 0.87367 0.3281 0.93122 0.0
H402 H 0.88059 0.30639 0.89895 0.0
H403 H 0.8504 0.32893 0.90204 0.0
C404 C 0.8428 0.30242 0.82811 0.0
C405 C 0.81965 0.3186 0.82183 0.0
C406 C 0.86745 0.3168 0.84146 0.0
C407 C 0.86922 0.34752 0.84904 0.0
C408 C 0.84701 0.36403 0.84131 0.0
H409 H 0.93521 0.45442 0.98642 0.0
H410 H 0.90923 0.42504 0.94897 0.0
C411 C 0.82245 0.34972 0.82782 0.0
C412 C 0.89259 0.36209 0.86722 0.0
H413 H 0.915 0.36418 0.93474 0.0
C414 C 0.91163 0.38676 0.85721 0.0
C415 C 0.89415 0.35354 0.89539 0.0
C416 C 0.87351 0.32796 0.90773 0.0
C417 C 0.93155 0.4037 0.87496 0.0
C418 C 0.93247 0.3956 0.90333 0.0
C419 C 0.91428 0.37024 0.91292 0.0
C420 C 0.94917 0.41498 0.92456 0.0
C421 C 0.95012 0.43114 0.86388 0.0
C422 C 0.98036 0.41919 0.92323 0.0
C423 C 0.99533 0.43609 0.94478 0.0
C424 C 0.97927 0.44897 0.96781 0.0
C425 C 0.94814 0.44478 0.96889 0.0
C426 C 0.93328 0.42806 0.94749 0.0
H427 H 0.94513 0.43569 0.84197 0.0
H428 H 0.94618 0.45094 0.87804 0.0
H429 H 0.97397 0.42813 0.8638 0.0
H430 H 0.99306 0.40885 0.90598 0.0
H431 H 0.01935 0.43848 0.94382 0.0
H432 H 0.76493 0.66717 0.31563 0.0
H433 H 0.72621 0.63276 0.33904 0.0
H434 H 0.68183 0.70769 0.37281 0.0
H435 H 0.71996 0.7422 0.34874 0.0
H436 H 0.71576 0.63267 0.39635 0.0
H437 H 0.61255 0.64898 0.3469 0.0
H438 H 0.649 0.6609 0.33083 0.0
H439 H 0.63264 0.68372 0.35866 0.0
C440 C 0.74648 0.6763 0.32735 0.0
C441 C 0.74554 0.70746 0.33034 0.0
C442 C 0.72444 0.65659 0.34083 0.0
C443 C 0.70093 0.6676 0.35738 0.0
C444 C 0.69941 0.69862 0.35966 0.0
H445 H 0.60256 0.61414 0.50686 0.0
H446 H 0.63235 0.63723 0.46706 0.0
C447 C 0.72144 0.71836 0.3462 0.0
C448 C 0.68007 0.64715 0.37497 0.0
H449 H 0.60646 0.62729 0.3929 0.0
C450 C 0.69189 0.63106 0.3952 0.0
C451 C 0.64891 0.64489 0.37336 0.0
C452 C 0.63501 0.66031 0.35106 0.0
C453 C 0.67339 0.61412 0.41484 0.0
C454 C 0.64232 0.61339 0.41433 0.0
C455 C 0.63036 0.62813 0.39326 0.0
C456 C 0.62235 0.5998 0.43732 0.0
C457 C 0.6871 0.59795 0.43675 0.0
C458 C 0.60669 0.5712 0.43354 0.0
C459 C 0.58982 0.55777 0.4564 0.0
C460 C 0.58812 0.57299 0.48313 0.0
C461 C 0.60344 0.60186 0.48653 0.0
C462 C 0.62035 0.61514 0.46382 0.0
H463 H 0.71103 0.59632 0.43128 0.0
H464 H 0.68489 0.61025 0.45764 0.0
H465 H 0.67533 0.57501 0.439 0.0
H466 H 0.6082 0.55901 0.4132 0.0
H467 H 0.57879 0.53525 0.45335 0.0
H468 H 0.25666 0.30721 0.13633 0.0
H469 H 0.22979 0.34296 0.1141 0.0
H470 H 0.16421 0.33857 0.18469 0.0
H471 H 0.19094 0.3031 0.20703 0.0
H472 H 0.17075 0.33386 0.09819 0.0
H473 H 0.18711 0.42915 0.17703 0.0
H474 H 0.20924 0.39828 0.17501 0.0
H475 H 0.1726 0.3943 0.19235 0.0
C476 C 0.2366 0.31406 0.14715 0.0
C477 C 0.22598 0.30243 0.17342 0.0
C478 C 0.2213 0.33444 0.13445 0.0
C479 C 0.19525 0.34378 0.14794 0.0
C480 C 0.18459 0.33216 0.17418 0.0
H481 H 0.05531 0.44527 0.11297 0.0
H482 H 0.09053 0.41627 0.13269 0.0
C483 C 0.19981 0.31172 0.18684 0.0
C484 C 0.17843 0.36461 0.13408 0.0
H485 H 0.1505 0.43183 0.14385 0.0
C486 C 0.16658 0.35544 0.10798 0.0
C487 C 0.17308 0.39276 0.14689 0.0
C488 C 0.18639 0.4044 0.17424 0.0
C489 C 0.14849 0.37311 0.09491 0.0
C490 C 0.14255 0.40096 0.10807 0.0
C491 C 0.15502 0.41046 0.13383 0.0
C492 C 0.12212 0.41975 0.09627 0.0
C493 C 0.13492 0.36127 0.06772 0.0
C494 C 0.12838 0.43169 0.06938 0.0
C495 C 0.10815 0.44809 0.05797 0.0
C496 C 0.08157 0.45327 0.07347 0.0
C497 C 0.07563 0.4417 0.10056 0.0
C498 C 0.09578 0.42525 0.1119 0.0
H499 H 0.13637 0.33691 0.06376 0.0
H500 H 0.11124 0.36518 0.06821 0.0
H501 H 0.14693 0.3732 0.04964 0.0
H502 H 0.14877 0.4281 0.05711 0.0
H503 H 0.1131 0.45631 0.03685 0.0
H504 H 0.74957 0.25572 0.87471 0.0
H505 H 0.72402 0.21461 0.9017 0.0
H506 H 0.68779 0.17336 0.8253 0.0
H507 H 0.71474 0.21365 0.79773 0.0
H508 H 0.6662 0.20021 0.90942 0.0
H509 H 0.71499 0.10192 0.85898 0.0
H510 H 0.73097 0.13993 0.85293 0.0
H511 H 0.69986 0.12324 0.83376 0.0
C512 C 0.73685 0.23754 0.86341 0.0
C513 C 0.7345 0.23794 0.8339 0.0
C514 C 0.72203 0.21412 0.87898 0.0
C515 C 0.70437 0.19057 0.86552 0.0
C516 C 0.70189 0.19084 0.83609 0.0
H517 H 0.55897 0.06696 0.92276 0.0
H518 H 0.59856 0.09728 0.89588 0.0
C519 C 0.71695 0.21418 0.8204 0.0
C520 C 0.68673 0.16716 0.8827 0.0
H521 H 0.67003 0.09144 0.88845 0.0
C522 C 0.66741 0.17646 0.90505 0.0
C523 C 0.68833 0.13612 0.8771 0.0
C524 C 0.70989 0.12469 0.85458 0.0
C525 C 0.64898 0.15564 0.92127 0.0
C526 C 0.64984 0.12472 0.915 0.0
C527 C 0.66951 0.11525 0.89312 0.0
C528 C 0.62858 0.10228 0.9297 0.0
C529 C 0.62795 0.16673 0.9445 0.0
C530 C 0.63279 0.09449 0.95735 0.0
C531 C 0.61018 0.07711 0.97276 0.0
C532 C 0.58313 0.0674 0.96069 0.0
C533 C 0.57961 0.07415 0.93255 0.0
C534 C 0.60221 0.09132 0.91714 0.0
H535 H 0.62907 0.19156 0.94589 0.0
H536 H 0.60482 0.15714 0.94077 0.0
H537 H 0.63337 0.15907 0.96523 0.0
H538 H 0.65297 0.10301 0.96741 0.0
H539 H 0.61321 0.07282 0.9946 0.0
H540 H 0.83135 0.82844 0.31155 0.0
H541 H 0.85855 0.86688 0.34161 0.0
H542 H 0.84201 0.80956 0.41253 0.0
H543 H 0.81553 0.77076 0.38257 0.0
H544 H 0.84286 0.89667 0.39771 0.0
H545 H 0.93426 0.82479 0.3977 0.0
H546 H 0.90578 0.81842 0.37265 0.0
H547 H 0.89781 0.80749 0.4086 0.0
C548 C 0.83339 0.82409 0.33359 0.0
C549 C 0.82149 0.79644 0.34459 0.0
C550 C 0.84866 0.84617 0.35078 0.0
C551 C 0.85239 0.84093 0.37919 0.0
C552 C 0.83943 0.81395 0.39059 0.0
H553 H 0.94583 0.96043 0.50507 0.0
H554 H 0.90613 0.93019 0.48013 0.0
C555 C 0.82416 0.79187 0.37346 0.0
C556 C 0.8722 0.86239 0.39608 0.0
H557 H 0.93972 0.87044 0.42444 0.0
C558 C 0.86399 0.891 0.40372 0.0
C559 C 0.89982 0.85489 0.4036 0.0
C560 C 0.91018 0.82484 0.39509 0.0
C561 C 0.88287 0.91238 0.41875 0.0
C562 C 0.91047 0.90478 0.4262 0.0
C563 C 0.91847 0.87612 0.41872 0.0
C564 C 0.93241 0.92649 0.44038 0.0
C565 C 0.87365 0.94315 0.42592 0.0
C566 C 0.96012 0.93458 0.42622 0.0
C567 C 0.98265 0.95172 0.44033 0.0
C568 C 0.97789 0.9612 0.46889 0.0
C569 C 0.94985 0.9539 0.48289 0.0
C570 C 0.92721 0.93665 0.46869 0.0
H571 H 0.85392 0.94706 0.41469 0.0
H572 H 0.86812 0.9456 0.4491 0.0
H573 H 0.89216 0.96073 0.42039 0.0
H574 H 0.9646 0.92684 0.40442 0.0
H575 H 0.00406 0.95702 0.42906 0.0
H576 H 0.34128 0.71734 0.75222 0.0
H577 H 0.3648 0.67725 0.72555 0.0
H578 H 0.36388 0.72377 0.64839 0.0
H579 H 0.34073 0.7641 0.67488 0.0
H580 H 0.34671 0.64006 0.67224 0.0
H581 H 0.45362 0.71409 0.66113 0.0
H582 H 0.42454 0.72139 0.68771 0.0
H583 H 0.42125 0.72948 0.6514 0.0
C584 C 0.34595 0.71896 0.72954 0.0
C585 C 0.3393 0.74403 0.71571 0.0
C586 C 0.35918 0.69593 0.71433 0.0
C587 C 0.36621 0.69765 0.68506 0.0
C588 C 0.35869 0.72209 0.671 0.0
H589 H 0.47995 0.60912 0.56326 0.0
H590 H 0.44376 0.63949 0.58735 0.0
C591 C 0.34532 0.74503 0.68615 0.0
C592 C 0.38328 0.67508 0.66953 0.0
H593 H 0.45139 0.66682 0.63712 0.0
C594 C 0.36961 0.64577 0.66453 0.0
C595 C 0.41316 0.68264 0.6597 0.0
C596 C 0.42922 0.71351 0.66536 0.0
C597 C 0.38486 0.62398 0.64914 0.0
C598 C 0.41476 0.63166 0.63903 0.0
C599 C 0.42842 0.66092 0.64456 0.0
C600 C 0.43264 0.61025 0.6224 0.0
C601 C 0.36855 0.59331 0.64323 0.0
C602 C 0.4379 0.58313 0.63354 0.0
C603 C 0.4583 0.56546 0.61942 0.0
C604 C 0.47394 0.57492 0.59422 0.0
C605 C 0.46798 0.60139 0.58263 0.0
C606 C 0.44737 0.61874 0.59643 0.0
H607 H 0.34411 0.59365 0.64505 0.0
H608 H 0.37508 0.58436 0.62171 0.0
H609 H 0.37412 0.57774 0.6589 0.0
H610 H 0.42741 0.57634 0.65381 0.0
H611 H 0.4629 0.54524 0.62883 0.0
H612 H 0.88422 0.90175 0.81094 0.0
H613 H 0.91096 0.91526 0.76593 0.0
H614 H 0.993 0.93156 0.80782 0.0
H615 H 0.96632 0.91718 0.85283 0.0
H616 H 0.93851 0.96846 0.7552 0.0
H617 H 0.01972 0.88591 0.73675 0.0
H618 H 0.98876 0.88121 0.76285 0.0
H619 H 0.02176 0.90562 0.77071 0.0
C620 C 0.90801 0.90794 0.81046 0.0
C621 C 0.92319 0.9086 0.83535 0.0
C622 C 0.9233 0.91551 0.78473 0.0
C623 C 0.95408 0.92412 0.78335 0.0
C624 C 0.96942 0.92427 0.80813 0.0
H625 H 0.03236 0.04249 0.65432 0.0
H626 H 0.02219 0.01755 0.69923 0.0
C627 C 0.95413 0.91628 0.83388 0.0
C628 C 0.96924 0.93582 0.75664 0.0
H629 H 0.02682 0.92802 0.70718 0.0
C630 C 0.95772 0.95946 0.74469 0.0
C631 C 0.99422 0.92397 0.74277 0.0
C632 C 0.00669 0.89758 0.75375 0.0
C633 C 0.9704 0.97166 0.71943 0.0
C634 C 0.99605 0.96065 0.7061 0.0
C635 C 0.00748 0.93675 0.71773 0.0
C636 C 0.01036 0.97357 0.67966 0.0
C637 C 0.95574 0.9959 0.70696 0.0
C638 C 0.00953 0.95659 0.65384 0.0
C639 C 0.01596 0.97076 0.62809 0.0
C640 C 0.02303 0.00202 0.62801 0.0
C641 C 0.02672 0.01838 0.65389 0.0
C642 C 0.02082 0.00419 0.67951 0.0
H643 H 0.93238 0.99614 0.71554 0.0
H644 H 0.96802 0.01807 0.71236 0.0
H645 H 0.95594 0.99292 0.68349 0.0
H646 H 1.0017 0.93288 0.65353 0.0
H647 H 0.01289 0.95771 0.60837 0.0
H648 H 0.61512 0.0892 0.34058 0.0
H649 H 0.59214 0.07339 0.29621 0.0
H650 H 0.59736 0.16554 0.2738 0.0
H651 H 0.62057 0.18163 0.31824 0.0
H652 H 0.54193 0.12929 0.26176 0.0
H653 H 0.64114 0.07677 0.21925 0.0
H654 H 0.62691 0.06428 0.25351 0.0
H655 H 0.64183 0.10282 0.24966 0.0
C656 C 0.61151 0.10613 0.32619 0.0
C657 C 0.62006 0.13665 0.3328 0.0
C658 C 0.59825 0.09707 0.3009 0.0
C659 C 0.59343 0.11827 0.28154 0.0
C660 C 0.60093 0.14883 0.28844 0.0
H661 H 0.53973 0.08155 0.10699 0.0
H662 H 0.5488 0.10946 0.15233 0.0
C663 C 0.61416 0.15796 0.31384 0.0
C664 C 0.58192 0.10815 0.2536 0.0
H665 H 0.5973 0.06455 0.19438 0.0
C666 C 0.55411 0.11541 0.24683 0.0
C667 C 0.59806 0.09038 0.23403 0.0
C668 C 0.62877 0.08332 0.23928 0.0
C669 C 0.54144 0.10404 0.22152 0.0
C670 C 0.55705 0.08512 0.20273 0.0
C671 C 0.58527 0.07886 0.20904 0.0
C672 C 0.5443 0.0699 0.17706 0.0
C673 C 0.51109 0.11127 0.21538 0.0
C674 C 0.53768 0.03865 0.17623 0.0
C675 C 0.53261 0.02281 0.15055 0.0
C676 C 0.53403 0.03791 0.12517 0.0
C677 C 0.53817 0.06941 0.1263 0.0
C678 C 0.54341 0.08535 0.15215 0.0
H679 H 0.50098 0.12479 0.233 0.0
H680 H 0.51276 0.12397 0.19574 0.0
H681 H 0.49617 0.09023 0.2116 0.0
H682 H 0.53834 0.02635 0.1952 0.0
H683 H 0.52944 0.99854 0.15028 0.0
H684 H 0.46466 0.64223 0.24191 0.0
H685 H 0.48713 0.63616 0.28658 0.0
H686 H 0.47927 0.5405 0.26957 0.0
H687 H 0.45706 0.54643 0.22492 0.0
H688 H 0.46045 0.60379 0.33152 0.0
H689 H 0.56451 0.55882 0.29273 0.0
H690 H 0.543 0.5776 0.2701 0.0
H691 H 0.53275 0.53867 0.27712 0.0
C692 C 0.4681 0.61995 0.24753 0.0
C693 C 0.45921 0.59474 0.22994 0.0
C694 C 0.48095 0.61654 0.27303 0.0
C695 C 0.48539 0.58794 0.28115 0.0
C696 C 0.47678 0.56284 0.2634 0.0
H697 H 0.50442 0.48456 0.41739 0.0
H698 H 0.50384 0.50856 0.3724 0.0
C699 C 0.46388 0.56622 0.23802 0.0
C700 C 0.49654 0.58373 0.30921 0.0
H701 H 0.54662 0.54799 0.34091 0.0
C702 C 0.47971 0.59223 0.33368 0.0
C703 C 0.52176 0.5688 0.31194 0.0
C704 C 0.54172 0.56072 0.28656 0.0
C705 C 0.48607 0.58416 0.36067 0.0
C706 C 0.51019 0.56755 0.36319 0.0
C707 C 0.5281 0.56066 0.3389 0.0
C708 C 0.51449 0.55362 0.39005 0.0
C709 C 0.46575 0.59168 0.386 0.0
C710 C 0.52148 0.57098 0.41478 0.0
C711 C 0.52167 0.55725 0.44066 0.0
C712 C 0.51516 0.526 0.44202 0.0
C713 C 0.50948 0.50869 0.41697 0.0
C714 C 0.50928 0.52235 0.39124 0.0
H715 H 0.44571 0.60095 0.37978 0.0
H716 H 0.45853 0.57144 0.39829 0.0
H717 H 0.47788 0.60861 0.40019 0.0
H718 H 0.52588 0.59514 0.41423 0.0
H719 H 0.52577 0.57114 0.45973 0.0
H720 H 0.03826 0.42335 0.6833 0.0
H721 H 0.01697 0.42466 0.73235 0.0
H722 H 0.06299 0.51336 0.74615 0.0
H723 H 0.08301 0.51262 0.69694 0.0
H724 H 0.0444 0.4253 0.77721 0.0
H725 H 0.98687 0.52603 0.78739 0.0
H726 H 0.99859 0.51019 0.75314 0.0
H727 H 0.02367 0.53664 0.77255 0.0
C728 C 0.04323 0.44337 0.69668 0.0
C729 C 0.06231 0.46792 0.68644 0.0
C730 C 0.03104 0.44411 0.72469 0.0
C731 C 0.0379 0.4693 0.74297 0.0
C732 C 0.05642 0.49407 0.73237 0.0
H733 H 0.09102 0.48542 0.90581 0.0
H734 H 0.07874 0.4703 0.85736 0.0
C735 C 0.06815 0.49353 0.70429 0.0
C736 C 0.02911 0.46849 0.77384 0.0
H737 H 0.00968 0.5138 0.83056 0.0
C738 C 0.03603 0.44434 0.78876 0.0
C739 C 0.0172 0.49269 0.78917 0.0
C740 C 0.00584 0.5176 0.77458 0.0
C741 C 0.03425 0.44521 0.81851 0.0
C742 C 0.02646 0.47136 0.8337 0.0
C743 C 0.01652 0.49407 0.81893 0.0
C744 C 0.03241 0.47734 0.86404 0.0
C745 C 0.04175 0.4185 0.83331 0.0
C746 C 0.01066 0.48696 0.88389 0.0
C747 C 0.01771 0.49553 0.91173 0.0
C748 C 0.04672 0.4951 0.91987 0.0
C749 C 0.06837 0.48541 0.90009 0.0
C750 C 0.06128 0.47654 0.87248 0.0
H751 H 0.03503 0.39737 0.82097 0.0
H752 H 0.06613 0.42027 0.83491 0.0
H753 H 0.03072 0.41712 0.855 0.0
H754 H 0.98852 0.48864 0.87766 0.0
H755 H 1.00085 0.50363 0.92653 0.0
H756 H 0.85869 0.96906 0.89692 0.0
H757 H 0.81547 0.99416 0.91422 0.0
H758 H 0.76598 0.90835 0.9312 0.0
H759 H 0.8093 0.88329 0.91466 0.0
H760 H 0.75819 0.99184 0.89949 0.0
H761 H 0.76032 0.95175 0.0078 0.0
H762 H 0.79012 0.94801 0.9811 0.0
H763 H 0.75721 0.92136 0.98166 0.0
C764 C 0.83849 0.95559 0.90419 0.0
C765 C 0.83744 0.92426 0.90483 0.0
C766 C 0.81383 0.96994 0.91404 0.0
C767 C 0.78769 0.95319 0.92457 0.0
C768 C 0.78618 0.9218 0.92391 0.0
H769 H 0.61003 0.99721 0.96251 0.0
H770 H 0.65758 0.99002 0.93699 0.0
C771 C 0.81091 0.90749 0.91444 0.0
C772 C 0.76236 0.96844 0.9373 0.0
H773 H 0.71664 0.9721 0.99734 0.0
C774 C 0.74921 0.98781 0.92098 0.0
C775 C 0.75112 0.96381 0.96558 0.0
C776 C 0.76562 0.94537 0.98515 0.0
C777 C 0.72441 0.00174 0.93188 0.0
C778 C 0.71207 0.99553 0.95957 0.0
C779 C 0.72588 0.97688 0.97607 0.0
C780 C 0.68425 0.00678 0.97194 0.0
C781 C 0.71193 0.02311 0.91373 0.0
C782 C 0.68325 0.0194 0.99978 0.0
C783 C 0.65608 0.02263 0.01456 0.0
C784 C 0.62943 0.01403 1.00154 0.0
C785 C 0.63038 0.00433 0.97282 0.0
C786 C 0.65762 1.00035 0.9582 0.0
H787 H 0.72932 0.0336 0.89846 0.0
H788 H 0.69434 0.01054 0.90123 0.0
H789 H 0.70212 0.04112 0.92682 0.0
H790 H 0.70343 0.02473 0.01082 0.0
H791 H 0.65582 0.03011 0.03673 0.0
H792 H 0.74483 0.09696 0.38867 0.0
H793 H 0.78732 0.07126 0.39866 0.0
H794 H 0.76248 0.07852 0.48824 0.0
H795 H 0.72013 0.10433 0.47844 0.0
H796 H 0.83402 0.09567 0.43436 0.0
H797 H 0.77558 0.98888 0.47309 0.0
H798 H 0.75837 0.01322 0.45178 0.0
H799 H 0.7612 0.02172 0.48914 0.0
C800 C 0.74827 0.09283 0.41047 0.0
C801 C 0.72912 0.10255 0.43284 0.0
C802 C 0.77254 0.07814 0.41612 0.0
C803 C 0.77776 0.07254 0.44414 0.0
C804 C 0.75852 0.08206 0.46642 0.0
H805 H 0.90223 0.02773 0.55119 0.0
H806 H 0.85866 0.03286 0.52549 0.0
C807 C 0.73447 0.09697 0.46082 0.0
C808 C 0.80441 0.05868 0.45052 0.0
H809 H 0.82613 1.00097 0.48487 0.0
C810 C 0.83245 0.07467 0.4449 0.0
C811 C 0.80221 0.03127 0.46421 0.0
C812 C 0.77274 0.01258 0.46971 0.0
C813 C 0.85819 0.06506 0.45435 0.0
C814 C 0.85587 0.03825 0.4692 0.0
C815 C 0.82795 0.02145 0.47346 0.0
C816 C 0.88128 0.02968 0.4838 0.0
C817 C 0.88729 0.08477 0.45 0.0
C818 C 0.90827 0.02475 0.46891 0.0
C819 C 0.93344 0.02215 0.48367 0.0
C820 C 0.93181 0.02383 0.51351 0.0
C821 C 0.90421 0.0264 0.52821 0.0
C822 C 0.87923 0.02925 0.51352 0.0
H823 H 0.88421 0.10726 0.4429 0.0
H824 H 0.89909 0.08773 0.4699 0.0
H825 H 0.90166 0.07405 0.4335 0.0
H826 H 0.91022 0.02435 0.44595 0.0
H827 H 0.95447 0.02058 0.47176 0.0
H828 H 0.33525 0.58964 0.18206 0.0
H829 H 0.28843 0.55941 0.17126 0.0
H830 H 0.31539 0.56024 0.08197 0.0
H831 H 0.36213 0.59008 0.09264 0.0
H832 H 0.24838 0.58104 0.13802 0.0
H833 H 0.27937 0.47304 0.09146 0.0
H834 H 0.30344 0.49787 0.11345 0.0
H835 H 0.30205 0.50442 0.07637 0.0
C836 C 0.33146 0.58265 0.16021 0.0
C837 C 0.35221 0.59228 0.13815 0.0
C838 C 0.30474 0.56545 0.15408 0.0
C839 C 0.29863 0.55722 0.12586 0.0
C840 C 0.31991 0.56576 0.10394 0.0
H841 H 0.17318 0.52476 0.00854 0.0
H842 H 0.21487 0.52559 0.03836 0.0
C843 C 0.34644 0.58311 0.11002 0.0
C844 C 0.26866 0.54353 0.11867 0.0
H845 H 0.23359 0.48822 0.07669 0.0
C846 C 0.24482 0.5603 0.12528 0.0
C847 C 0.26417 0.51646 0.10214 0.0
C848 C 0.28858 0.49675 0.09568 0.0
C849 C 0.21732 0.55219 0.11362 0.0
C850 C 0.21343 0.52619 0.0954 0.0
C851 C 0.23661 0.50817 0.09059 0.0
C852 C 0.18763 0.5203 0.0776 0.0
C853 C 0.19355 0.5729 0.11907 0.0
C854 C 0.15838 0.516 0.08964 0.0
C855 C 0.13443 0.51599 0.07259 0.0
C856 C 0.13945 0.51963 0.04324 0.0
C857 C 0.16867 0.52199 0.03111 0.0
C858 C 0.1925 0.52226 0.04811 0.0
H859 H 0.20188 0.5944 0.13004 0.0
H860 H 0.18465 0.57796 0.09882 0.0
H861 H 0.17496 0.56184 0.13265 0.0
H862 H 0.15412 0.51397 0.11231 0.0
H863 H 0.11215 0.51452 0.08253 0.0
H864 H 0.21061 0.42303 0.62288 0.0
H865 H 0.2596 0.45185 0.62258 0.0
H866 H 0.22207 0.53078 0.60155 0.0
H867 H 0.17255 0.50176 0.60187 0.0
H868 H 0.27027 0.51575 0.56476 0.0
H869 H 0.29916 0.51753 0.67614 0.0
H870 H 0.28359 0.4808 0.66434 0.0
H871 H 0.26124 0.51136 0.66596 0.0
C872 C 0.21274 0.4466 0.61847 0.0
C873 C 0.18791 0.46015 0.61217 0.0
C874 C 0.24066 0.46315 0.61868 0.0
C875 C 0.24437 0.49359 0.61257 0.0
C876 C 0.21954 0.50742 0.60674 0.0
H877 H 0.42998 0.55155 0.55334 0.0
H878 H 0.38085 0.56255 0.57331 0.0
C879 C 0.19139 0.49087 0.60687 0.0
C880 C 0.27484 0.50924 0.60888 0.0
H881 H 0.34068 0.51648 0.64027 0.0
C882 C 0.28562 0.51703 0.58143 0.0
C883 C 0.29467 0.5112 0.63077 0.0
C884 C 0.28398 0.50507 0.66103 0.0
C885 C 0.31621 0.5231 0.57453 0.0
C886 C 0.33628 0.5217 0.59582 0.0
C887 C 0.32524 0.51726 0.62394 0.0
C888 C 0.36777 0.51792 0.58821 0.0
C889 C 0.32689 0.52795 0.54399 0.0
C890 C 0.37696 0.48958 0.59078 0.0
C891 C 0.40474 0.48334 0.57939 0.0
C892 C 0.42402 0.50549 0.56568 0.0
C893 C 0.41561 0.53437 0.56442 0.0
C894 C 0.38755 0.54057 0.5756 0.0
H895 H 0.30831 0.52623 0.52974 0.0
H896 H 0.33949 0.55055 0.54231 0.0
H897 H 0.34204 0.5112 0.53639 0.0
H898 H 0.36195 0.47173 0.60025 0.0
H899 H 0.41077 0.46087 0.58042 0.0
H900 H 0.99048 0.83007 0.93516 0.0
H901 H 1.00157 0.78598 0.95882 0.0
H902 H 0.90797 0.75922 0.97548 0.0
H903 H 0.89669 0.80332 0.95184 0.0
H904 H 0.98181 0.76554 0.01712 0.0
H905 H 0.9421 0.68724 0.92872 0.0
H906 H 0.95143 0.72692 0.92419 0.0
H907 H 0.91772 0.71342 0.94381 0.0
C908 C 0.97229 0.81488 0.94406 0.0
C909 C 0.94278 0.82003 0.94156 0.0
C910 C 0.97864 0.78981 0.95763 0.0
C911 C 0.95559 0.76932 0.96874 0.0
C912 C 0.92605 0.77472 0.96686 0.0
H913 H 0.98491 0.58956 0.01471 0.0
H914 H 0.95892 0.63391 0.01234 0.0
C915 C 0.91967 0.79992 0.95339 0.0
C916 C 0.96273 0.74161 0.98088 0.0
H917 H 0.96437 0.66692 0.96518 0.0
C918 C 0.97768 0.74387 0.00601 0.0
C919 C 0.95702 0.71337 0.96647 0.0
C920 C 0.94133 0.70985 0.93922 0.0
C921 C 0.98795 0.71871 0.01662 0.0
C922 C 0.98382 0.69083 1.00126 0.0
C923 C 0.96754 0.68831 0.97693 0.0
C924 C 0.99902 0.66494 0.00792 0.0
C925 C 0.00345 0.72225 0.04396 0.0
C926 C 0.03015 0.66771 0.0067 0.0
C927 C 0.04499 0.6425 0.00822 0.0
C928 C 0.029 0.61399 0.01098 0.0
C929 C 0.99781 0.61133 0.0132 0.0
C930 C 0.98294 0.63661 0.01168 0.0
H931 H 0.99597 0.74107 0.0577 0.0
H932 H 0.99941 0.70142 0.05593 0.0
H933 H 0.02769 0.72734 0.03906 0.0
H934 H 0.04305 0.68916 0.00307 0.0
H935 H 0.06902 0.64516 0.0062 0.0
H936 H 0.46272 0.68789 0.11333 0.0
H937 H 0.47251 0.73414 0.08751 0.0
H938 H 0.37892 0.74291 0.09299 0.0
H939 H 0.36897 0.69706 0.11939 0.0
H940 H 0.44803 0.74904 0.03488 0.0
H941 H 0.4189 0.82305 0.12847 0.0
H942 H 0.4268 0.78513 0.13207 0.0
H943 H 0.39205 0.79191 0.11945 0.0
C944 C 0.44424 0.69977 0.10921 0.0
C945 C 0.41509 0.68889 0.11855 0.0
C946 C 0.44983 0.72601 0.09424 0.0
C947 C 0.42644 0.74197 0.0885 0.0
C948 C 0.39728 0.731 0.09739 0.0
H949 H 0.45939 0.92713 0.03498 0.0
H950 H 0.43048 0.87781 0.0406 0.0
C951 C 0.39165 0.70471 0.11231 0.0
C952 C 0.43293 0.77064 0.07407 0.0
H953 H 0.43719 0.84633 0.08668 0.0
C954 C 0.44531 0.77033 0.04603 0.0
C955 C 0.42897 0.79833 0.08856 0.0
C956 C 0.41612 0.79989 0.11886 0.0
C957 C 0.45498 0.79711 0.03247 0.0
C958 C 0.45276 0.82483 0.0476 0.0
C959 C 0.43879 0.82508 0.07505 0.0
C960 C 0.46884 0.85335 0.03751 0.0
C961 C 0.46806 0.79545 1.0023 0.0
C962 C 0.49983 0.85583 0.03301 0.0
C963 C 0.51623 0.88378 0.02982 0.0
C964 C 0.50201 0.90988 0.0311 0.0
C965 C 0.47086 0.90731 0.03357 0.0
C966 C 0.45437 0.87919 0.03692 0.0
H967 H 0.45812 0.77505 0.99059 0.0
H968 H 0.46468 0.81547 0.99074 0.0
H969 H 0.49225 0.79412 0.00242 0.0
H970 H 0.51159 0.83641 0.03403 0.0
H971 H 0.54023 0.88516 0.02801 0.0
H972 H 0.17223 0.35621 0.59171 0.0
H973 H 0.16894 0.30546 0.57032 0.0
H974 H 0.08105 0.31386 0.54537 0.0
H975 H 0.08477 0.36521 0.56537 0.0
H976 H 0.13082 0.26035 0.58762 0.0
H977 H 0.11514 0.27385 0.47465 0.0
H978 H 0.12803 0.305 0.49808 0.0
H979 H 0.08893 0.2926 0.49694 0.0
C980 C 0.15253 0.34765 0.58092 0.0
C981 C 0.12876 0.3649 0.58023 0.0
C982 C 0.15065 0.31852 0.56883 0.0
C983 C 0.12498 0.30596 0.55579 0.0
C984 C 0.10143 0.32328 0.55461 0.0
H985 H 0.01959 0.14667 0.53189 0.0
H986 H 0.04694 0.19664 0.52956 0.0
C987 C 0.10337 0.35251 0.56652 0.0
C988 C 0.12128 0.27375 0.54654 0.0
H989 H 0.09604 0.22528 0.49314 0.0
C990 C 0.12401 0.25263 0.5667 0.0
C991 C 0.11257 0.26367 0.51917 0.0
C992 C 0.11133 0.28502 0.49591 0.0
C993 C 0.116 0.22193 0.56103 0.0
C994 C 0.10525 0.21207 0.53438 0.0
C995 C 0.1043 0.23294 0.51356 0.0
C996 C 0.0902 0.18134 0.52984 0.0
C997 C 0.11703 0.20049 0.58433 0.0
C998 C 0.1056 0.15606 0.52963 0.0
C999 C 0.08992 0.12732 0.53097 0.0
C1000 C 0.05875 0.12372 0.53252 0.0
C1001 C 0.04363 0.14891 0.53085 0.0
C1002 C 0.05922 0.17743 0.52936 0.0
H1003 H 0.12313 0.21224 0.60472 0.0
H1004 H 0.09514 0.18691 0.58784 0.0
H1005 H 0.13367 0.18487 0.57795 0.0
H1006 H 0.12957 0.15868 0.52983 0.0
H1007 H 0.10201 0.10821 0.53241 0.0
H1008 H 0.63198 0.23381 0.38222 0.0
H1009 H 0.61676 0.27712 0.41039 0.0
H1010 H 0.62048 0.23066 0.48719 0.0
H1011 H 0.63551 0.18699 0.45909 0.0
H1012 H 0.56565 0.27702 0.44663 0.0
H1013 H 0.66685 0.31355 0.50462 0.0
H1014 H 0.6671 0.28864 0.47337 0.0
H1015 H 0.65239 0.27472 0.50698 0.0
C1016 C 0.62954 0.23273 0.4051 0.0
C1017 C 0.63483 0.20683 0.41837 0.0
C1018 C 0.62102 0.2576 0.42119 0.0
C1019 C 0.61777 0.25726 0.4509 0.0
C1020 C 0.62342 0.23165 0.46432 0.0
H1021 H 0.51213 0.38221 0.54736 0.0
H1022 H 0.53597 0.33701 0.53362 0.0
C1023 C 0.63196 0.20669 0.44822 0.0
C1024 C 0.60661 0.28306 0.46747 0.0
H1025 H 0.625 0.33944 0.51679 0.0
C1026 C 0.57857 0.29058 0.46206 0.0
C1027 C 0.62361 0.30081 0.48746 0.0
C1028 C 0.65428 0.29429 0.4934 0.0
C1029 C 0.56712 0.31548 0.47588 0.0
C1030 C 0.58396 0.33313 0.49606 0.0
C1031 C 0.612 0.32562 0.50159 0.0
C1032 C 0.5733 0.36055 0.50998 0.0
C1033 C 0.53743 0.32324 0.46807 0.0
C1034 C 0.5873 0.38886 0.50263 0.0
C1035 C 0.57386 0.41466 0.51071 0.0
C1036 C 0.54649 0.41254 0.52663 0.0
C1037 C 0.53356 0.38443 0.53561 0.0
C1038 C 0.54702 0.35864 0.52759 0.0
H1039 H 0.53022 0.3111 0.44819 0.0
H1040 H 0.52041 0.317 0.48538 0.0
H1041 H 0.53826 0.34768 0.46534 0.0
H1042 H 0.6075 0.39081 0.48894 0.0
H1043 H 0.58379 0.43601 0.50288 0.0
loop_
_geom_bond_atom_site_label_1
_geom_bond_atom_site_label_2
_geom_bond_distance
_geom_bond_site_symmetry_2
_ccdc_geom_bond_type
H0 C5 0.930 . S
H1 C8 0.930 . S
H2 C10 0.930 . S
H3 C4 1.016 . S
C4 H3 1.016 . S
C4 N11 1.286 . S
C5 H0 0.930 . S
C5 C6 1.397 . S
C5 C7 1.361 . S
C6 C5 1.397 . S
C6 C10 1.390 . S
C7 C5 1.361 . S
C7 C8 1.393 . S
C7 N11 1.413 . S
C8 H1 0.930 . S
C8 C7 1.393 . S
C8 C9 1.399 . S
C9 C8 1.399 . S
C9 C10 1.381 . S
C10 H2 0.930 . S
C10 C6 1.390 . S
C10 C9 1.381 . S
N11 C4 1.286 . S
N11 C7 1.413 . S
H12 C17 0.930 . S
H13 C20 0.930 . S
H14 C22 0.930 . S
H15 C16 1.016 . S
C16 H15 1.016 . S
C16 N23 1.286 . S
C17 H12 0.930 . S
C17 C18 1.397 . S
C17 C19 1.361 . S
C18 C17 1.397 . S
C18 C22 1.390 . S
C19 C17 1.361 . S
C19 C20 1.393 . S
C19 N23 1.413 . S
C20 H13 0.930 . S
C20 C19 1.393 . S
C20 C21 1.399 . S
C21 C20 1.399 . S
C21 C22 1.381 . S
C22 H14 0.930 . S
C22 C18 1.390 . S
C22 C21 1.381 . S
N23 C16 1.286 . S
N23 C19 1.413 . S
H24 C29 0.930 . S
H25 C32 0.930 . S
H26 C34 0.930 . S
H27 C28 1.016 . S
C28 H27 1.016 . S
C28 N35 1.286 . S
C29 H24 0.930 . S
C29 C30 1.397 . S
C29 C31 1.361 . S
C30 C29 1.397 . S
C30 C34 1.390 . S
C31 C29 1.361 . S
C31 C32 1.393 . S
C31 N35 1.413 . S
C32 H25 0.930 . S
C32 C31 1.393 . S
C32 C33 1.399 . S
C33 C32 1.399 . S
C33 C34 1.381 . S
C34 H26 0.930 . S
C34 C30 1.390 . S
C34 C33 1.381 . S
N35 C28 1.286 . S
N35 C31 1.413 . S
H36 C41 0.930 . S
H37 C44 0.930 . S
H38 C46 0.930 . S
H39 C40 1.016 . S
C40 H39 1.016 . S
C40 N47 1.286 . S
C41 H36 0.930 . S
C41 C42 1.397 . S
C41 C43 1.361 . S
C42 C41 1.397 . S
C42 C46 1.390 . S
C43 C41 1.361 . S
C43 C44 1.393 . S
C43 N47 1.413 . S
C44 H37 0.930 . S
C44 C43 1.393 . S
C44 C45 1.399 . S
C45 C44 1.399 . S
C45 C46 1.381 . S
C46 H38 0.930 . S
C46 C42 1.390 . S
C46 C45 1.381 . S
N47 C40 1.286 . S
N47 C43 1.413 . S
H48 C53 0.930 . S
H49 C56 0.930 . S
H50 C58 0.930 . S
H51 C52 1.016 . S
C52 H51 1.016 . S
C52 N59 1.286 . S
C53 H48 0.930 . S
C53 C54 1.397 . S
C53 C55 1.361 . S
C54 C53 1.397 . S
C54 C58 1.390 . S
C55 C53 1.361 . S
C55 C56 1.393 . S
C55 N59 1.413 . S
C56 H49 0.930 . S
C56 C55 1.393 . S
C56 C57 1.399 . S
C57 C56 1.399 . S
C57 C58 1.381 . S
C58 H50 0.930 . S
C58 C54 1.390 . S
C58 C57 1.381 . S
N59 C52 1.286 . S
N59 C55 1.413 . S
H60 C65 0.930 . S
H61 C68 0.930 . S
H62 C70 0.930 . S
H63 C64 1.016 . S
C64 H63 1.016 . S
C64 N71 1.286 . S
C65 H60 0.930 . S
C65 C66 1.397 . S
C65 C67 1.361 . S
C66 C65 1.397 . S
C66 C70 1.390 . S
C67 C65 1.361 . S
C67 C68 1.393 . S
C67 N71 1.413 . S
C68 H61 0.930 . S
C68 C67 1.393 . S
C68 C69 1.399 . S
C69 C68 1.399 . S
C69 C70 1.381 . S
C70 H62 0.930 . S
C70 C66 1.390 . S
C70 C69 1.381 . S
N71 C64 1.286 . S
N71 C67 1.413 . S
H72 C77 0.930 . S
H73 C80 0.930 . S
H74 C82 0.930 . S
H75 C76 1.016 . S
C76 H75 1.016 . S
C76 N83 1.286 . S
C77 H72 0.930 . S
C77 C78 1.397 . S
C77 C79 1.361 . S
C78 C77 1.397 . S
C78 C82 1.390 . S
C79 C77 1.361 . S
C79 C80 1.393 . S
C79 N83 1.413 . S
C80 H73 0.930 . S
C80 C79 1.393 . S
C80 C81 1.399 . S
C81 C80 1.399 . S
C81 C82 1.381 . S
C82 H74 0.930 . S
C82 C78 1.390 . S
C82 C81 1.381 . S
N83 C76 1.286 . S
N83 C79 1.413 . S
H84 C89 0.930 . S
H85 C92 0.930 . S
H86 C94 0.930 . S
H87 C88 1.016 . S
C88 H87 1.016 . S
C88 N95 1.286 . S
C89 H84 0.930 . S
C89 C90 1.397 . S
C89 C91 1.361 . S
C90 C89 1.397 . S
C90 C94 1.390 . S
C91 C89 1.361 . S
C91 C92 1.393 . S
C91 N95 1.413 . S
C92 H85 0.930 . S
C92 C91 1.393 . S
C92 C93 1.399 . S
C93 C92 1.399 . S
C93 C94 1.381 . S
C94 H86 0.930 . S
C94 C90 1.390 . S
C94 C93 1.381 . S
N95 C88 1.286 . S
N95 C91 1.413 . S
Zn96 O102 1.920 . S
Zn96 O108 1.898 . S
Zn96 O111 1.905 . S
Zn97 O105 1.905 1_565 S
Zn97 O106 1.898 . S
Zn97 O114 1.920 . S
Zn98 O101 2.080 1_455 S
Zn98 O104 2.114 . S
Zn98 O107 2.120 1_445 S
Zn98 O109 2.120 . S
Zn98 O110 2.114 1_455 S
Zn98 O113 2.080 . S
C99 O104 1.166 . S
C99 O105 1.182 . S
C100 O106 1.167 1_655 S
C100 O107 1.299 . S
O101 Zn98 2.080 1_655 S
O101 C115 1.305 . S
O102 Zn96 1.920 . S
O102 C115 1.234 . S
C103 O108 1.167 1_455 S
C103 O109 1.299 . S
O104 Zn98 2.114 . S
O104 C99 1.166 . S
O105 Zn97 1.905 1_545 S
O105 C99 1.182 . S
O106 Zn97 1.898 . S
O106 C100 1.167 1_455 S
O107 Zn98 2.120 1_665 S
O107 C100 1.299 . S
O108 Zn96 1.898 . S
O108 C103 1.167 1_655 S
O109 Zn98 2.120 . S
O109 C103 1.299 . S
O110 Zn98 2.114 1_655 S
O110 C112 1.166 . S
O111 Zn96 1.905 . S
O111 C112 1.182 . S
C112 O110 1.166 . S
C112 O111 1.182 . S
O113 Zn98 2.080 . S
O113 C116 1.305 1_545 S
O114 Zn97 1.920 . S
O114 C116 1.234 . S
C115 O101 1.305 . S
C115 O102 1.234 . S
C116 O113 1.305 1_565 S
C116 O114 1.234 . S
Zn117 O123 1.920 1_556 S
Zn117 O129 1.898 . S
Zn117 O132 1.905 . S
Zn118 O126 1.905 . S
Zn118 O127 1.898 . S
Zn118 O135 1.920 . S
Zn119 O122 2.080 . S
Zn119 O125 2.114 1_545 S
Zn119 O128 2.120 1_545 S
Zn119 O130 2.120 . S
Zn119 O131 2.114 1_544 S
Zn119 O134 2.080 . S
C120 O125 1.166 . S
C120 O126 1.182 . S
C121 O127 1.167 . S
C121 O128 1.299 . S
O122 Zn119 2.080 . S
O122 C136 1.305 . S
O123 Zn117 1.920 1_554 S
O123 C136 1.234 . S
C124 O129 1.167 . S
C124 O130 1.299 1_556 S
O125 Zn119 2.114 1_565 S
O125 C120 1.166 . S
O126 Zn118 1.905 . S
O126 C120 1.182 . S
O127 Zn118 1.898 . S
O127 C121 1.167 . S
O128 Zn119 2.120 1_565 S
O128 C121 1.299 . S
O129 Zn117 1.898 . S
O129 C124 1.167 . S
O130 Zn119 2.120 . S
O130 C124 1.299 1_554 S
O131 Zn119 2.114 1_566 S
O131 C133 1.166 . S
O132 Zn117 1.905 . S
O132 C133 1.182 1_545 S
C133 O131 1.166 . S
C133 O132 1.182 1_565 S
O134 Zn119 2.080 . S
O134 C137 1.305 . S
O135 Zn118 1.920 . S
O135 C137 1.234 1_565 S
C136 O122 1.305 . S
C136 O123 1.234 . S
C137 O134 1.305 . S
C137 O135 1.234 1_545 S
Zn138 O144 1.920 . S
Zn138 O150 1.898 . S
Zn138 O153 1.905 . S
Zn139 O147 1.905 . S
Zn139 O148 1.898 . S
Zn139 O156 1.920 . S
Zn140 O143 2.080 . S
Zn140 O146 2.114 . S
Zn140 O149 2.120 . S
Zn140 O151 2.120 . S
Zn140 O152 2.114 . S
Zn140 O155 2.080 . S
C141 O146 1.166 . S
C141 O147 1.182 . S
C142 O148 1.167 . S
C142 O149 1.299 . S
O143 Zn140 2.080 . S
O143 C157 1.305 . S
O144 Zn138 1.920 . S
O144 C157 1.234 . S
C145 O150 1.167 . S
C145 O151 1.299 . S
O146 Zn140 2.114 . S
O146 C141 1.166 . S
O147 Zn139 1.905 . S
O147 C141 1.182 . S
O148 Zn139 1.898 . S
O148 C142 1.167 . S
O149 Zn140 2.120 . S
O149 C142 1.299 . S
O150 Zn138 1.898 . S
O150 C145 1.167 . S
O151 Zn140 2.120 . S
O151 C145 1.299 . S
O152 Zn140 2.114 . S
O152 C154 1.166 . S
O153 Zn138 1.905 . S
O153 C154 1.182 . S
C154 O152 1.166 . S
C154 O153 1.182 . S
O155 Zn140 2.080 . S
O155 C158 1.305 . S
O156 Zn139 1.920 . S
O156 C158 1.234 . S
C157 O143 1.305 . S
C157 O144 1.234 . S
C158 O155 1.305 . S
C158 O156 1.234 . S
Zn159 O165 1.920 . S
Zn159 O171 1.898 . S
Zn159 O174 1.905 . S
Zn160 O168 1.871 1_655 S
Zn160 O169 1.914 . S
Zn160 O177 1.930 . S
Zn161 O164 2.080 1_554 S
Zn161 O167 2.114 . S
Zn161 O170 2.120 1_554 S
Zn161 O172 2.120 . S
Zn161 O173 2.114 1_554 S
Zn161 O176 2.080 . S
C162 O167 1.166 . S
C162 O168 1.182 . S
C163 O169 1.167 1_556 S
C163 O170 1.299 1_655 S
O164 Zn161 2.080 1_556 S
O164 C178 1.305 . S
O165 Zn159 1.920 . S
O165 C178 1.234 . S
C166 O171 1.167 1_554 S
C166 O172 1.299 . S
O167 Zn161 2.114 . S
O167 C162 1.166 . S
O168 Zn160 1.871 1_455 S
O168 C162 1.182 . S
O169 Zn160 1.914 . S
O169 C163 1.167 1_554 S
O170 Zn161 2.120 1_556 S
O170 C163 1.299 1_455 S
O171 Zn159 1.898 . S
O171 C166 1.167 1_556 S
O172 Zn161 2.120 . S
O172 C166 1.299 . S
O173 Zn161 2.114 1_556 S
O173 C175 1.166 . S
O174 Zn159 1.905 . S
O174 C175 1.182 . S
C175 O173 1.166 . S
C175 O174 1.182 . S
O176 Zn161 2.080 . S
O176 C179 1.305 . S
O177 Zn160 1.930 . S
O177 C179 1.234 1_655 S
C178 O164 1.305 . S
C178 O165 1.234 . S
C179 O176 1.305 . S
C179 O177 1.234 1_455 S
H180 C188 0.929 . S
H181 C190 0.930 . S
H182 C192 0.930 . S
H183 C195 0.929 . S
H184 C198 0.930 . S
H185 C200 0.960 . S
H186 C200 0.960 . S
H187 C200 0.960 . S
C188 H180 0.929 . S
C188 C189 1.377 . S
C188 C190 1.384 . S
C189 C188 1.377 . S
C189 C195 1.390 . S
C190 H181 0.930 . S
C190 C188 1.384 . S
C190 C191 1.372 . S
C191 C190 1.372 . S
C191 C192 1.400 . S
C191 C196 1.490 . S
C192 H182 0.930 . S
C192 C191 1.400 . S
C192 C195 1.386 . S
H193 C209 0.930 . S
H194 C210 0.931 . S
C195 H183 0.929 . S
C195 C189 1.390 . S
C195 C192 1.386 . S
C196 C191 1.490 . S
C196 C198 1.395 . S
C196 C199 1.403 . S
H197 C203 0.930 . S
C198 H184 0.930 . S
C198 C196 1.395 . S
C198 C201 1.403 . S
C199 C196 1.403 . S
C199 C200 1.524 . S
C199 C203 1.400 . S
C200 H185 0.960 . S
C200 H186 0.960 . S
C200 H187 0.960 . S
C200 C199 1.524 . S
C201 C198 1.403 . S
C201 C202 1.392 . S
C201 C205 1.495 . S
C202 C201 1.392 . S
C202 C203 1.385 . S
C202 C204 1.478 . S
C203 H197 0.930 . S
C203 C199 1.400 . S
C203 C202 1.385 . S
C204 C202 1.478 . S
C204 C206 1.381 . S
C204 C210 1.383 . S
C205 C201 1.495 . S
C205 H211 0.959 . S
C205 H212 0.961 . S
C205 H213 0.960 . S
C206 C204 1.381 . S
C206 C207 1.394 . S
C206 H214 0.930 . S
C207 C206 1.394 . S
C207 C208 1.383 . S
C207 H215 0.929 . S
C208 C207 1.383 . S
C208 C209 1.377 . S
C209 H193 0.930 . S
C209 C208 1.377 . S
C209 C210 1.379 . S
C210 H194 0.931 . S
C210 C204 1.383 . S
C210 C209 1.379 . S
H211 C205 0.959 . S
H212 C205 0.961 . S
H213 C205 0.960 . S
H214 C206 0.930 . S
H215 C207 0.929 . S
H216 C224 0.929 . S
H217 C226 0.930 . S
H218 C228 0.930 . S
H219 C231 0.929 . S
H220 C234 0.930 . S
H221 C236 0.960 . S
H222 C236 0.960 . S
H223 C236 0.960 . S
C224 H216 0.929 . S
C224 C225 1.377 . S
C224 C226 1.384 . S
C225 C224 1.377 . S
C225 C231 1.390 . S
C226 H217 0.930 . S
C226 C224 1.384 . S
C226 C227 1.372 . S
C227 C226 1.372 . S
C227 C228 1.400 . S
C227 C232 1.490 . S
C228 H218 0.930 . S
C228 C227 1.400 . S
C228 C231 1.386 . S
H229 C245 0.930 . S
H230 C246 0.931 . S
C231 H219 0.929 . S
C231 C225 1.390 . S
C231 C228 1.386 . S
C232 C227 1.490 . S
C232 C234 1.395 . S
C232 C235 1.403 . S
H233 C239 0.930 . S
C234 H220 0.930 . S
C234 C232 1.395 . S
C234 C237 1.403 . S
C235 C232 1.403 . S
C235 C236 1.524 . S
C235 C239 1.400 . S
C236 H221 0.960 . S
C236 H222 0.960 . S
C236 H223 0.960 . S
C236 C235 1.524 . S
C237 C234 1.403 . S
C237 C238 1.392 . S
C237 C241 1.495 . S
C238 C237 1.392 . S
C238 C239 1.385 . S
C238 C240 1.478 . S
C239 H233 0.930 . S
C239 C235 1.400 . S
C239 C238 1.385 . S
C240 C238 1.478 . S
C240 C242 1.381 . S
C240 C246 1.383 . S
C241 C237 1.495 . S
C241 H247 0.959 . S
C241 H248 0.961 . S
C241 H249 0.960 . S
C242 C240 1.381 . S
C242 C243 1.394 . S
C242 H250 0.930 . S
C243 C242 1.394 . S
C243 C244 1.383 . S
C243 H251 0.957 . S
C244 C243 1.383 . S
C244 C245 1.377 . S
C245 H229 0.930 . S
C245 C244 1.377 . S
C245 C246 1.379 . S
C246 H230 0.931 . S
C246 C240 1.383 . S
C246 C245 1.379 . S
H247 C241 0.959 . S
H248 C241 0.961 . S
H249 C241 0.960 . S
H250 C242 0.930 . S
H251 C243 0.957 . S
H252 C260 0.929 . S
H253 C262 0.930 . S
H254 C264 0.930 . S
H255 C267 0.929 . S
H256 C270 0.930 . S
H257 C272 0.960 . S
H258 C272 0.960 . S
H259 C272 0.960 . S
C260 H252 0.929 . S
C260 C261 1.377 . S
C260 C262 1.384 . S
C261 C260 1.377 . S
C261 C267 1.390 . S
C262 H253 0.930 . S
C262 C260 1.384 . S
C262 C263 1.372 . S
C263 C262 1.372 . S
C263 C264 1.400 . S
C263 C268 1.490 . S
C264 H254 0.930 . S
C264 C263 1.400 . S
C264 C267 1.386 . S
H265 C281 0.930 . S
H266 C282 0.931 . S
C267 H255 0.929 . S
C267 C261 1.390 . S
C267 C264 1.386 . S
C268 C263 1.490 . S
C268 C270 1.395 . S
C268 C271 1.403 . S
H269 C275 0.930 . S
C270 H256 0.930 . S
C270 C268 1.395 . S
C270 C273 1.403 . S
C271 C268 1.403 . S
C271 C272 1.524 . S
C271 C275 1.400 . S
C272 H257 0.960 . S
C272 H258 0.960 . S
C272 H259 0.960 . S
C272 C271 1.524 . S
C273 C270 1.403 . S
C273 C274 1.392 . S
C273 C277 1.495 . S
C274 C273 1.392 . S
C274 C275 1.385 . S
C274 C276 1.478 . S
C275 H269 0.930 . S
C275 C271 1.400 . S
C275 C274 1.385 . S
C276 C274 1.478 . S
C276 C278 1.381 . S
C276 C282 1.383 . S
C277 C273 1.495 . S
C277 H283 0.959 . S
C277 H284 0.961 . S
C277 H285 0.960 . S
C278 C276 1.381 . S
C278 C279 1.394 . S
C278 H286 0.930 . S
C279 C278 1.394 . S
C279 C280 1.383 . S
C279 H287 0.929 . S
C280 C279 1.383 . S
C280 C281 1.377 . S
C281 H265 0.930 . S
C281 C280 1.377 . S
C281 C282 1.379 . S
C282 H266 0.931 . S
C282 C276 1.383 . S
C282 C281 1.379 . S
H283 C277 0.959 . S
H284 C277 0.961 . S
H285 C277 0.960 . S
H286 C278 0.930 . S
H287 C279 0.929 . S
H288 C296 0.929 . S
H289 C298 0.930 . S
H290 C300 0.930 . S
H291 C303 0.929 . S
H292 C306 0.930 . S
H293 C308 0.960 1_455 S
H294 C308 0.960 . S
H295 C308 0.960 . S
C296 H288 0.929 . S
C296 C297 1.377 . S
C296 C298 1.384 . S
C297 C296 1.377 . S
C297 C303 1.390 . S
C298 H289 0.930 . S
C298 C296 1.384 . S
C298 C299 1.372 . S
C299 C298 1.372 . S
C299 C300 1.400 . S
C299 C304 1.490 . S
C300 H290 0.930 . S
C300 C299 1.400 . S
C300 C303 1.386 . S
H301 C317 0.930 . S
H302 C318 0.931 . S
C303 H291 0.929 . S
C303 C297 1.390 . S
C303 C300 1.386 . S
C304 C299 1.490 . S
C304 C306 1.395 . S
C304 C307 1.403 . S
H305 C311 0.930 . S
C306 H292 0.930 . S
C306 C304 1.395 . S
C306 C309 1.403 . S
C307 C304 1.403 . S
C307 C308 1.524 . S
C307 C311 1.400 . S
C308 H293 0.960 1_655 S
C308 H294 0.960 . S
C308 H295 0.960 . S
C308 C307 1.524 . S
C309 C306 1.403 . S
C309 C310 1.392 . S
C309 C313 1.495 . S
C310 C309 1.392 . S
C310 C311 1.385 . S
C310 C312 1.478 . S
C311 H305 0.930 . S
C311 C307 1.400 . S
C311 C310 1.385 . S
C312 C310 1.478 . S
C312 C314 1.381 . S
C312 C318 1.383 1_655 S
C313 C309 1.495 . S
C313 H319 0.959 . S
C313 H320 0.961 . S
C313 H321 0.960 . S
C314 C312 1.381 . S
C314 C315 1.394 . S
C314 H322 0.930 . S
C315 C314 1.394 . S
C315 C316 1.383 1_655 S
C315 H323 0.929 . S
C316 C315 1.383 1_455 S
C316 C317 1.377 . S
C317 H301 0.930 . S
C317 C316 1.377 . S
C317 C318 1.379 . S
C318 H302 0.931 . S
C318 C312 1.383 1_455 S
C318 C317 1.379 . S
H319 C313 0.959 . S
H320 C313 0.961 . S
H321 C313 0.960 . S
H322 C314 0.930 . S
H323 C315 0.929 . S
H324 C332 0.929 . S
H325 C334 0.930 . S
H326 C336 0.930 . S
H327 C339 0.929 . S
H328 C342 0.930 . S
H329 C344 0.960 . S
H330 C344 0.960 . S
H331 C344 0.960 . S
C332 H324 0.929 . S
C332 C333 1.377 . S
C332 C334 1.384 . S
C333 C332 1.377 . S
C333 C339 1.390 . S
C334 H325 0.930 . S
C334 C332 1.384 . S
C334 C335 1.372 . S
C335 C334 1.372 . S
C335 C336 1.400 . S
C335 C340 1.490 . S
C336 H326 0.930 . S
C336 C335 1.400 . S
C336 C339 1.386 . S
H337 C353 0.930 . S
H338 C354 0.931 . S
C339 H327 0.929 . S
C339 C333 1.390 . S
C339 C336 1.386 . S
C340 C335 1.490 . S
C340 C342 1.395 . S
C340 C343 1.403 . S
H341 C347 0.930 . S
C342 H328 0.930 . S
C342 C340 1.395 . S
C342 C345 1.403 . S
C343 C340 1.403 . S
C343 C344 1.524 . S
C343 C347 1.400 . S
C344 H329 0.960 . S
C344 H330 0.960 . S
C344 H331 0.960 . S
C344 C343 1.524 . S
C345 C342 1.403 . S
C345 C346 1.392 . S
C345 C349 1.495 . S
C346 C345 1.392 . S
C346 C347 1.385 . S
C346 C348 1.478 . S
C347 H341 0.930 . S
C347 C343 1.400 . S
C347 C346 1.385 . S
C348 C346 1.478 . S
C348 C350 1.381 . S
C348 C354 1.383 . S
C349 C345 1.495 . S
C349 H355 0.959 . S
C349 H356 0.961 . S
C349 H357 0.960 . S
C350 C348 1.381 . S
C350 C351 1.394 . S
C350 H358 0.930 . S
C351 C350 1.394 . S
C351 C352 1.383 . S
C351 H359 0.929 . S
C352 C351 1.383 . S
C352 C353 1.377 . S
C353 H337 0.930 . S
C353 C352 1.377 . S
C353 C354 1.379 . S
C354 H338 0.931 . S
C354 C348 1.383 . S
C354 C353 1.379 . S
H355 C349 0.959 . S
H356 C349 0.961 . S
H357 C349 0.960 . S
H358 C350 0.930 . S
H359 C351 0.929 . S
H360 C368 0.929 . S
H361 C370 0.930 . S
H362 C372 0.930 . S
H363 C375 0.929 . S
H364 C378 0.930 . S
H365 C380 0.960 . S
H366 C380 0.960 . S
H367 C380 0.960 . S
C368 H360 0.929 . S
C368 C369 1.377 . S
C368 C370 1.384 . S
C369 C368 1.377 . S
C369 C375 1.390 . S
C370 H361 0.930 . S
C370 C368 1.384 . S
C370 C371 1.372 . S
C371 C370 1.372 . S
C371 C372 1.400 . S
C371 C376 1.490 . S
C372 H362 0.930 . S
C372 C371 1.400 . S
C372 C375 1.386 . S
H373 C389 0.930 1_545 S
H374 C390 0.931 . S
C375 H363 0.929 . S
C375 C369 1.390 . S
C375 C372 1.386 . S
C376 C371 1.490 . S
C376 C378 1.395 . S
C376 C379 1.403 . S
H377 C383 0.930 . S
C378 H364 0.930 . S
C378 C376 1.395 . S
C378 C381 1.403 . S
C379 C376 1.403 . S
C379 C380 1.524 . S
C379 C383 1.400 . S
C380 H365 0.960 . S
C380 H366 0.960 . S
C380 H367 0.960 . S
C380 C379 1.524 . S
C381 C378 1.403 . S
C381 C382 1.392 . S
C381 C385 1.495 . S
C382 C381 1.392 . S
C382 C383 1.385 . S
C382 C384 1.478 . S
C383 H377 0.930 . S
C383 C379 1.400 . S
C383 C382 1.385 . S
C384 C382 1.478 . S
C384 C386 1.381 . S
C384 C390 1.383 . S
C385 C381 1.495 . S
C385 H391 0.959 . S
C385 H392 0.961 . S
C385 H393 0.960 . S
C386 C384 1.381 . S
C386 C387 1.394 . S
C386 H394 0.930 . S
C387 C386 1.394 . S
C387 C388 1.383 . S
C387 H395 0.929 . S
C388 C387 1.383 . S
C388 C389 1.377 . S
C389 H373 0.930 1_565 S
C389 C388 1.377 . S
C389 C390 1.379 . S
C390 H374 0.931 . S
C390 C384 1.383 . S
C390 C389 1.379 . S
H391 C385 0.959 . S
H392 C385 0.961 . S
H393 C385 0.960 . S
H394 C386 0.930 . S
H395 C387 0.929 . S
H396 C404 0.929 . S
H397 C406 0.930 . S
H398 C408 0.930 . S
H399 C411 0.929 . S
H400 C414 0.930 . S
H401 C416 0.960 . S
H402 C416 0.960 . S
H403 C416 0.960 . S
C404 H396 0.929 . S
C404 C405 1.377 . S
C404 C406 1.384 . S
C405 C404 1.377 . S
C405 C411 1.390 . S
C406 H397 0.930 . S
C406 C404 1.384 . S
C406 C407 1.372 . S
C407 C406 1.372 . S
C407 C408 1.400 . S
C407 C412 1.490 . S
C408 H398 0.930 . S
C408 C407 1.400 . S
C408 C411 1.386 . S
H409 C425 0.930 . S
H410 C426 0.931 . S
C411 H399 0.929 . S
C411 C405 1.390 . S
C411 C408 1.386 . S
C412 C407 1.490 . S
C412 C414 1.395 . S
C412 C415 1.403 . S
H413 C419 0.930 . S
C414 H400 0.930 . S
C414 C412 1.395 . S
C414 C417 1.403 . S
C415 C412 1.403 . S
C415 C416 1.524 . S
C415 C419 1.400 . S
C416 H401 0.960 . S
C416 H402 0.960 . S
C416 H403 0.960 . S
C416 C415 1.524 . S
C417 C414 1.403 . S
C417 C418 1.392 . S
C417 C421 1.495 . S
C418 C417 1.392 . S
C418 C419 1.385 . S
C418 C420 1.478 . S
C419 H413 0.930 . S
C419 C415 1.400 . S
C419 C418 1.385 . S
C420 C418 1.478 . S
C420 C422 1.381 . S
C420 C426 1.383 . S
C421 C417 1.495 . S
C421 H427 0.959 . S
C421 H428 0.961 . S
C421 H429 0.960 . S
C422 C420 1.381 . S
C422 C423 1.394 . S
C422 H430 0.930 . S
C423 C422 1.394 . S
C423 C424 1.383 . S
C423 H431 0.929 . S
C424 C423 1.383 . S
C424 C425 1.377 . S
C425 H409 0.930 . S
C425 C424 1.377 . S
C425 C426 1.379 . S
C426 H410 0.931 . S
C426 C420 1.383 . S
C426 C425 1.379 . S
H427 C421 0.959 . S
H428 C421 0.961 . S
H429 C421 0.960 . S
H430 C422 0.930 . S
H431 C423 0.929 . S
H432 C440 0.929 . S
H433 C442 0.930 . S
H434 C444 0.930 . S
H435 C447 0.929 . S
H436 C450 0.930 . S
H437 C452 0.960 . S
H438 C452 0.960 . S
H439 C452 0.960 . S
C440 H432 0.929 . S
C440 C441 1.377 . S
C440 C442 1.384 . S
C441 C440 1.377 . S
C441 C447 1.390 . S
C442 H433 0.930 . S
C442 C440 1.384 . S
C442 C443 1.372 . S
C443 C442 1.372 . S
C443 C444 1.400 . S
C443 C448 1.490 . S
C444 H434 0.930 . S
C444 C443 1.400 . S
C444 C447 1.386 . S
H445 C461 0.930 . S
H446 C462 0.931 . S
C447 H435 0.929 . S
C447 C441 1.390 . S
C447 C444 1.386 . S
C448 C443 1.490 . S
C448 C450 1.395 . S
C448 C451 1.403 . S
H449 C455 0.930 . S
C450 H436 0.930 . S
C450 C448 1.395 . S
C450 C453 1.403 . S
C451 C448 1.403 . S
C451 C452 1.524 . S
C451 C455 1.400 . S
C452 H437 0.960 . S
C452 H438 0.960 . S
C452 H439 0.960 . S
C452 C451 1.524 . S
C453 C450 1.403 . S
C453 C454 1.392 . S
C453 C457 1.495 . S
C454 C453 1.392 . S
C454 C455 1.385 . S
C454 C456 1.478 . S
C455 H449 0.930 . S
C455 C451 1.400 . S
C455 C454 1.385 . S
C456 C454 1.478 . S
C456 C458 1.381 . S
C456 C462 1.383 . S
C457 C453 1.495 . S
C457 H463 0.959 . S
C457 H464 0.961 . S
C457 H465 0.960 . S
C458 C456 1.381 . S
C458 C459 1.394 . S
C458 H466 0.930 . S
C459 C458 1.394 . S
C459 C460 1.383 . S
C459 H467 0.929 . S
C460 C459 1.383 . S
C460 C461 1.377 . S
C461 H445 0.930 . S
C461 C460 1.377 . S
C461 C462 1.379 . S
C462 H446 0.931 . S
C462 C456 1.383 . S
C462 C461 1.379 . S
H463 C457 0.959 . S
H464 C457 0.961 . S
H465 C457 0.960 . S
H466 C458 0.930 . S
H467 C459 0.929 . S
H468 C476 0.929 . S
H469 C478 0.930 . S
H470 C480 0.930 . S
H471 C483 0.929 . S
H472 C486 0.930 . S
H473 C488 0.960 . S
H474 C488 0.960 . S
H475 C488 0.960 . S
C476 H468 0.929 . S
C476 C477 1.377 . S
C476 C478 1.384 . S
C477 C476 1.377 . S
C477 C483 1.390 . S
C478 H469 0.930 . S
C478 C476 1.384 . S
C478 C479 1.372 . S
C479 C478 1.372 . S
C479 C480 1.400 . S
C479 C484 1.490 . S
C480 H470 0.930 . S
C480 C479 1.400 . S
C480 C483 1.386 . S
H481 C497 0.930 . S
H482 C498 0.931 . S
C483 H471 0.929 . S
C483 C477 1.390 . S
C483 C480 1.386 . S
C484 C479 1.490 . S
C484 C486 1.395 . S
C484 C487 1.403 . S
H485 C491 0.930 . S
C486 H472 0.930 . S
C486 C484 1.395 . S
C486 C489 1.403 . S
C487 C484 1.403 . S
C487 C488 1.524 . S
C487 C491 1.400 . S
C488 H473 0.960 . S
C488 H474 0.960 . S
C488 H475 0.960 . S
C488 C487 1.524 . S
C489 C486 1.403 . S
C489 C490 1.392 . S
C489 C493 1.495 . S
C490 C489 1.392 . S
C490 C491 1.385 . S
C490 C492 1.478 . S
C491 H485 0.930 . S
C491 C487 1.400 . S
C491 C490 1.385 . S
C492 C490 1.478 . S
C492 C494 1.381 . S
C492 C498 1.383 . S
C493 C489 1.495 . S
C493 H499 0.959 . S
C493 H500 0.961 . S
C493 H501 0.960 . S
C494 C492 1.381 . S
C494 C495 1.394 . S
C494 H502 0.930 . S
C495 C494 1.394 . S
C495 C496 1.383 . S
C495 H503 0.929 . S
C496 C495 1.383 . S
C496 C497 1.377 . S
C497 H481 0.930 . S
C497 C496 1.377 . S
C497 C498 1.379 . S
C498 H482 0.931 . S
C498 C492 1.383 . S
C498 C497 1.379 . S
H499 C493 0.959 . S
H500 C493 0.961 . S
H501 C493 0.960 . S
H502 C494 0.930 . S
H503 C495 0.929 . S
H504 C512 0.929 . S
H505 C514 0.930 . S
H506 C516 0.930 . S
H507 C519 0.929 . S
H508 C522 0.930 . S
H509 C524 0.960 . S
H510 C524 0.960 . S
H511 C524 0.960 . S
C512 H504 0.929 . S
C512 C513 1.377 . S
C512 C514 1.384 . S
C513 C512 1.377 . S
C513 C519 1.390 . S
C514 H505 0.930 . S
C514 C512 1.384 . S
C514 C515 1.372 . S
C515 C514 1.372 . S
C515 C516 1.400 . S
C515 C520 1.490 . S
C516 H506 0.930 . S
C516 C515 1.400 . S
C516 C519 1.386 . S
H517 C533 0.930 . S
H518 C534 0.931 . S
C519 H507 0.929 . S
C519 C513 1.390 . S
C519 C516 1.386 . S
C520 C515 1.490 . S
C520 C522 1.395 . S
C520 C523 1.403 . S
H521 C527 0.930 . S
C522 H508 0.930 . S
C522 C520 1.395 . S
C522 C525 1.403 . S
C523 C520 1.403 . S
C523 C524 1.524 . S
C523 C527 1.400 . S
C524 H509 0.960 . S
C524 H510 0.960 . S
C524 H511 0.960 . S
C524 C523 1.524 . S
C525 C522 1.403 . S
C525 C526 1.392 . S
C525 C529 1.495 . S
C526 C525 1.392 . S
C526 C527 1.385 . S
C526 C528 1.478 . S
C527 H521 0.930 . S
C527 C523 1.400 . S
C527 C526 1.385 . S
C528 C526 1.478 . S
C528 C530 1.381 . S
C528 C534 1.383 . S
C529 C525 1.495 . S
C529 H535 0.959 . S
C529 H536 0.961 . S
C529 H537 0.960 . S
C530 C528 1.381 . S
C530 C531 1.394 1_556 S
C530 H538 0.931 . S
C531 C530 1.394 1_554 S
C531 C532 1.383 1_554 S
C531 H539 0.929 . S
C532 C531 1.383 1_556 S
C532 C533 1.377 . S
C533 H517 0.930 . S
C533 C532 1.377 . S
C533 C534 1.379 . S
C534 H518 0.931 . S
C534 C528 1.383 . S
C534 C533 1.379 . S
H535 C529 0.959 . S
H536 C529 0.961 . S
H537 C529 0.960 . S
H538 C530 0.931 . S
H539 C531 0.929 . S
H540 C548 0.929 . S
H541 C550 0.930 . S
H542 C552 0.930 . S
H543 C555 0.929 . S
H544 C558 0.930 . S
H545 C560 0.960 . S
H546 C560 0.960 . S
H547 C560 0.960 . S
C548 H540 0.929 . S
C548 C549 1.377 . S
C548 C550 1.384 . S
C549 C548 1.377 . S
C549 C555 1.390 . S
C550 H541 0.930 . S
C550 C548 1.384 . S
C550 C551 1.372 . S
C551 C550 1.372 . S
C551 C552 1.400 . S
C551 C556 1.490 . S
C552 H542 0.930 . S
C552 C551 1.400 . S
C552 C555 1.386 . S
H553 C569 0.930 . S
H554 C570 0.931 . S
C555 H543 0.929 . S
C555 C549 1.390 . S
C555 C552 1.386 . S
C556 C551 1.490 . S
C556 C558 1.395 . S
C556 C559 1.403 . S
H557 C563 0.930 . S
C558 H544 0.930 . S
C558 C556 1.395 . S
C558 C561 1.403 . S
C559 C556 1.403 . S
C559 C560 1.524 . S
C559 C563 1.400 . S
C560 H545 0.960 . S
C560 H546 0.960 . S
C560 H547 0.960 . S
C560 C559 1.524 . S
C561 C558 1.403 . S
C561 C562 1.392 . S
C561 C565 1.495 . S
C562 C561 1.392 . S
C562 C563 1.385 . S
C562 C564 1.478 . S
C563 H557 0.930 . S
C563 C559 1.400 . S
C563 C562 1.385 . S
C564 C562 1.478 . S
C564 C566 1.381 . S
C564 C570 1.383 . S
C565 C561 1.495 . S
C565 H571 0.959 . S
C565 H572 0.961 . S
C565 H573 0.960 . S
C566 C564 1.381 . S
C566 C567 1.394 . S
C566 H574 0.930 . S
C567 C566 1.394 . S
C567 C568 1.383 . S
C567 H575 0.929 . S
C568 C567 1.383 . S
C568 C569 1.377 . S
C569 H553 0.930 . S
C569 C568 1.377 . S
C569 C570 1.379 . S
C570 H554 0.931 . S
C570 C564 1.383 . S
C570 C569 1.379 . S
H571 C565 0.959 . S
H572 C565 0.961 . S
H573 C565 0.960 . S
H574 C566 0.930 . S
H575 C567 0.929 . S
H576 C584 0.929 . S
H577 C586 0.930 . S
H578 C588 0.930 . S
H579 C591 0.929 . S
H580 C594 0.930 . S
H581 C596 0.960 . S
H582 C596 0.960 . S
H583 C596 0.960 . S
C584 H576 0.929 . S
C584 C585 1.377 . S
C584 C586 1.384 . S
C585 C584 1.377 . S
C585 C591 1.390 . S
C586 H577 0.930 . S
C586 C584 1.384 . S
C586 C587 1.372 . S
C587 C586 1.372 . S
C587 C588 1.400 . S
C587 C592 1.490 . S
C588 H578 0.930 . S
C588 C587 1.400 . S
C588 C591 1.386 . S
H589 C605 0.930 . S
H590 C606 0.931 . S
C591 H579 0.929 . S
C591 C585 1.390 . S
C591 C588 1.386 . S
C592 C587 1.490 . S
C592 C594 1.395 . S
C592 C595 1.403 . S
H593 C599 0.930 . S
C594 H580 0.930 . S
C594 C592 1.395 . S
C594 C597 1.403 . S
C595 C592 1.403 . S
C595 C596 1.524 . S
C595 C599 1.400 . S
C596 H581 0.960 . S
C596 H582 0.960 . S
C596 H583 0.960 . S
C596 C595 1.524 . S
C597 C594 1.403 . S
C597 C598 1.392 . S
C597 C601 1.495 . S
C598 C597 1.392 . S
C598 C599 1.385 . S
C598 C600 1.478 . S
C599 H593 0.930 . S
C599 C595 1.400 . S
C599 C598 1.385 . S
C600 C598 1.478 . S
C600 C602 1.381 . S
C600 C606 1.383 . S
C601 C597 1.495 . S
C601 H607 0.959 . S
C601 H608 0.961 . S
C601 H609 0.960 . S
C602 C600 1.381 . S
C602 C603 1.394 . S
C602 H610 0.930 . S
C603 C602 1.394 . S
C603 C604 1.383 . S
C603 H611 0.929 . S
C604 C603 1.383 . S
C604 C605 1.377 . S
C605 H589 0.930 . S
C605 C604 1.377 . S
C605 C606 1.379 . S
C606 H590 0.931 . S
C606 C600 1.383 . S
C606 C605 1.379 . S
H607 C601 0.959 . S
H608 C601 0.961 . S
H609 C601 0.960 . S
H610 C602 0.930 . S
H611 C603 0.929 . S
H612 C620 0.929 . S
H613 C622 0.930 . S
H614 C624 0.930 1_445 S
H615 C627 0.929 1_545 S
H616 C630 0.930 . S
H617 C632 0.960 . S
H618 C632 0.960 . S
H619 C632 0.960 . S
C620 H612 0.929 . S
C620 C621 1.377 . S
C620 C622 1.384 . S
C621 C620 1.377 . S
C621 C627 1.390 . S
C622 H613 0.930 . S
C622 C620 1.384 . S
C622 C623 1.372 . S
C623 C622 1.372 . S
C623 C624 1.400 . S
C623 C628 1.490 . S
C624 H614 0.930 1_665 S
C624 C623 1.400 . S
C624 C627 1.386 . S
H625 C641 0.930 . S
H626 C642 0.931 1_455 S
C627 H615 0.929 1_565 S
C627 C621 1.390 . S
C627 C624 1.386 . S
C628 C623 1.490 . S
C628 C630 1.395 . S
C628 C631 1.418 . S
H629 C635 0.938 . S
C630 H616 0.930 . S
C630 C628 1.395 . S
C630 C633 1.403 . S
C631 C628 1.418 . S
C631 C632 1.508 1_655 S
C631 C635 1.402 1_655 S
C632 H617 0.960 . S
C632 H618 0.960 . S
C632 H619 0.960 . S
C632 C631 1.508 1_455 S
C633 C630 1.403 . S
C633 C634 1.392 . S
C633 C637 1.495 . S
C634 C633 1.392 . S
C634 C635 1.377 1_655 S
C634 C636 1.478 . S
C635 H629 0.938 . S
C635 C631 1.402 1_455 S
C635 C634 1.377 1_455 S
C636 C634 1.478 . S
C636 C638 1.381 . S
C636 C642 1.383 1_565 S
C637 C633 1.495 . S
C637 H643 0.959 . S
C637 H644 0.961 1_565 S
C637 H645 0.960 . S
C638 C636 1.381 . S
C638 C639 1.394 . S
C638 H646 0.930 . S
C639 C638 1.394 . S
C639 C640 1.383 1_565 S
C639 H647 0.929 . S
C640 C639 1.383 1_545 S
C640 C641 1.377 1_655 S
C641 H625 0.930 . S
C641 C640 1.377 1_455 S
C641 C642 1.379 1_455 S
C642 H626 0.931 1_655 S
C642 C636 1.383 1_545 S
C642 C641 1.379 1_655 S
H643 C637 0.959 . S
H644 C637 0.961 1_545 S
H645 C637 0.960 . S
H646 C638 0.930 . S
H647 C639 0.929 . S
H648 C656 0.929 . S
H649 C658 0.930 . S
H650 C660 0.930 . S
H651 C663 0.929 . S
H652 C666 0.930 . S
H653 C668 0.960 . S
H654 C668 0.960 . S
H655 C668 0.960 . S
C656 H648 0.929 . S
C656 C657 1.377 . S
C656 C658 1.384 . S
C657 C656 1.377 . S
C657 C663 1.390 . S
C658 H649 0.930 . S
C658 C656 1.384 . S
C658 C659 1.372 . S
C659 C658 1.372 . S
C659 C660 1.400 . S
C659 C664 1.490 . S
C660 H650 0.930 . S
C660 C659 1.400 . S
C660 C663 1.386 . S
H661 C677 0.930 . S
H662 C678 0.931 . S
C663 H651 0.929 . S
C663 C657 1.390 . S
C663 C660 1.386 . S
C664 C659 1.490 . S
C664 C666 1.395 . S
C664 C667 1.403 . S
H665 C671 0.930 . S
C666 H652 0.930 . S
C666 C664 1.395 . S
C666 C669 1.403 . S
C667 C664 1.403 . S
C667 C668 1.524 . S
C667 C671 1.400 . S
C668 H653 0.960 . S
C668 H654 0.960 . S
C668 H655 0.960 . S
C668 C667 1.524 . S
C669 C666 1.403 . S
C669 C670 1.392 . S
C669 C673 1.495 . S
C670 C669 1.392 . S
C670 C671 1.385 . S
C670 C672 1.478 . S
C671 H665 0.930 . S
C671 C667 1.400 . S
C671 C670 1.385 . S
C672 C670 1.478 . S
C672 C674 1.381 . S
C672 C678 1.383 . S
C673 C669 1.495 . S
C673 H679 0.959 . S
C673 H680 0.961 . S
C673 H681 0.960 . S
C674 C672 1.381 . S
C674 C675 1.394 . S
C674 H682 0.930 . S
C675 C674 1.394 . S
C675 C676 1.383 . S
C675 H683 0.929 1_545 S
C676 C675 1.383 . S
C676 C677 1.377 . S
C677 H661 0.930 . S
C677 C676 1.377 . S
C677 C678 1.379 . S
C678 H662 0.931 . S
C678 C672 1.383 . S
C678 C677 1.379 . S
H679 C673 0.959 . S
H680 C673 0.961 . S
H681 C673 0.960 . S
H682 C674 0.930 . S
H683 C675 0.929 1_565 S
H684 C692 0.929 . S
H685 C694 0.930 . S
H686 C696 0.930 . S
H687 C699 0.929 . S
H688 C702 0.930 . S
H689 C704 0.960 . S
H690 C704 0.960 . S
H691 C704 0.960 . S
C692 H684 0.929 . S
C692 C693 1.377 . S
C692 C694 1.384 . S
C693 C692 1.377 . S
C693 C699 1.390 . S
C694 H685 0.930 . S
C694 C692 1.384 . S
C694 C695 1.372 . S
C695 C694 1.372 . S
C695 C696 1.400 . S
C695 C700 1.490 . S
C696 H686 0.930 . S
C696 C695 1.400 . S
C696 C699 1.386 . S
H697 C713 0.930 . S
H698 C714 0.931 . S
C699 H687 0.929 . S
C699 C693 1.390 . S
C699 C696 1.386 . S
C700 C695 1.490 . S
C700 C702 1.395 . S
C700 C703 1.403 . S
H701 C707 0.930 . S
C702 H688 0.930 . S
C702 C700 1.395 . S
C702 C705 1.403 . S
C703 C700 1.403 . S
C703 C704 1.524 . S
C703 C707 1.400 . S
C704 H689 0.960 . S
C704 H690 0.960 . S
C704 H691 0.960 . S
C704 C703 1.524 . S
C705 C702 1.403 . S
C705 C706 1.392 . S
C705 C709 1.495 . S
C706 C705 1.392 . S
C706 C707 1.385 . S
C706 C708 1.478 . S
C707 H701 0.930 . S
C707 C703 1.400 . S
C707 C706 1.385 . S
C708 C706 1.478 . S
C708 C710 1.381 . S
C708 C714 1.383 . S
C709 C705 1.495 . S
C709 H715 0.959 . S
C709 H716 0.961 . S
C709 H717 0.960 . S
C710 C708 1.381 . S
C710 C711 1.394 . S
C710 H718 0.930 . S
C711 C710 1.394 . S
C711 C712 1.383 . S
C711 H719 0.929 . S
C712 C711 1.383 . S
C712 C713 1.377 . S
C713 H697 0.930 . S
C713 C712 1.377 . S
C713 C714 1.379 . S
C714 H698 0.931 . S
C714 C708 1.383 . S
C714 C713 1.379 . S
H715 C709 0.959 . S
H716 C709 0.961 . S
H717 C709 0.960 . S
H718 C710 0.930 . S
H719 C711 0.929 . S
H720 C728 0.929 . S
H721 C730 0.930 . S
H722 C732 0.930 . S
H723 C735 0.929 . S
H724 C738 0.930 . S
H725 C740 0.960 . S
H726 C740 0.960 . S
H727 C740 0.960 . S
C728 H720 0.929 . S
C728 C729 1.377 . S
C728 C730 1.384 . S
C729 C728 1.377 . S
C729 C735 1.390 . S
C730 H721 0.930 . S
C730 C728 1.384 . S
C730 C731 1.372 . S
C731 C730 1.372 . S
C731 C732 1.400 . S
C731 C736 1.490 . S
C732 H722 0.930 . S
C732 C731 1.400 . S
C732 C735 1.386 . S
H733 C749 0.930 . S
H734 C750 0.931 . S
C735 H723 0.929 . S
C735 C729 1.390 . S
C735 C732 1.386 . S
C736 C731 1.490 . S
C736 C738 1.395 . S
C736 C739 1.403 . S
H737 C743 0.930 . S
C738 H724 0.930 . S
C738 C736 1.395 . S
C738 C741 1.403 . S
C739 C736 1.403 . S
C739 C740 1.524 . S
C739 C743 1.400 . S
C740 H725 0.960 . S
C740 H726 0.960 . S
C740 H727 0.960 . S
C740 C739 1.524 . S
C741 C738 1.403 . S
C741 C742 1.392 . S
C741 C745 1.495 . S
C742 C741 1.392 . S
C742 C743 1.385 . S
C742 C744 1.478 . S
C743 H737 0.930 . S
C743 C739 1.400 . S
C743 C742 1.385 . S
C744 C742 1.478 . S
C744 C746 1.381 . S
C744 C750 1.383 . S
C745 C741 1.495 . S
C745 H751 0.959 . S
C745 H752 0.961 . S
C745 H753 0.960 . S
C746 C744 1.381 . S
C746 C747 1.394 . S
C746 H754 0.930 . S
C747 C746 1.394 . S
C747 C748 1.383 . S
C747 H755 0.929 . S
C748 C747 1.383 . S
C748 C749 1.377 . S
C749 H733 0.930 . S
C749 C748 1.377 . S
C749 C750 1.379 . S
C750 H734 0.931 . S
C750 C744 1.383 . S
C750 C749 1.379 . S
H751 C745 0.959 . S
H752 C745 0.961 . S
H753 C745 0.960 . S
H754 C746 0.930 . S
H755 C747 0.929 . S
H756 C764 0.929 1_545 S
H757 C766 0.918 1_545 S
H758 C768 0.930 . S
H759 C771 0.929 . S
H760 C774 0.930 . S
H761 C776 0.960 . S
H762 C776 0.960 . S
H763 C776 0.960 1_556 S
C764 H756 0.929 1_565 S
C764 C765 1.377 . S
C764 C766 1.387 . S
C765 C764 1.377 . S
C765 C771 1.390 . S
C766 H757 0.918 1_565 S
C766 C764 1.387 . S
C766 C767 1.381 . S
C767 C766 1.381 . S
C767 C768 1.400 . S
C767 C772 1.490 . S
C768 H758 0.930 . S
C768 C767 1.400 . S
C768 C771 1.386 . S
H769 C785 0.930 . S
H770 C786 0.931 . S
C771 H759 0.929 . S
C771 C765 1.390 . S
C771 C768 1.386 . S
C772 C767 1.490 . S
C772 C774 1.395 1_565 S
C772 C775 1.403 . S
H773 C779 0.930 1_554 S
C774 H760 0.930 . S
C774 C772 1.395 1_545 S
C774 C777 1.403 . S
C775 C772 1.403 . S
C775 C776 1.524 1_556 S
C775 C779 1.400 . S
C776 H761 0.960 . S
C776 H762 0.960 . S
C776 H763 0.960 1_554 S
C776 C775 1.524 1_554 S
C777 C774 1.403 . S
C777 C778 1.392 1_545 S
C777 C781 1.495 . S
C778 C777 1.392 1_565 S
C778 C779 1.385 . S
C778 C780 1.478 . S
C779 H773 0.930 1_556 S
C779 C775 1.400 . S
C779 C778 1.385 . S
C780 C778 1.478 . S
C780 C782 1.381 1_566 S
C780 C786 1.383 . S
C781 C777 1.495 . S
C781 H787 0.959 . S
C781 H788 0.961 . S
C781 H789 0.960 . S
C782 C780 1.381 1_544 S
C782 C783 1.394 . S
C782 H790 0.930 . S
C783 C782 1.394 . S
C783 C784 1.383 1_545 S
C783 H791 0.929 . S
C784 C783 1.383 1_565 S
C784 C785 1.377 1_554 S
C785 H769 0.930 . S
C785 C784 1.377 1_556 S
C785 C786 1.379 . S
C786 H770 0.931 . S
C786 C780 1.383 . S
C786 C785 1.379 . S
H787 C781 0.959 . S
H788 C781 0.961 . S
H789 C781 0.960 . S
H790 C782 0.930 . S
H791 C783 0.929 . S
H792 C800 0.929 . S
H793 C802 0.930 . S
H794 C804 0.930 . S
H795 C807 0.929 . S
H796 C810 0.930 . S
H797 C812 0.960 . S
H798 C812 0.960 . S
H799 C812 0.960 . S
C800 H792 0.929 . S
C800 C801 1.377 . S
C800 C802 1.384 . S
C801 C800 1.377 . S
C801 C807 1.390 . S
C802 H793 0.930 . S
C802 C800 1.384 . S
C802 C803 1.372 . S
C803 C802 1.372 . S
C803 C804 1.400 . S
C803 C808 1.490 . S
C804 H794 0.930 . S
C804 C803 1.400 . S
C804 C807 1.386 . S
H805 C821 0.930 . S
H806 C822 0.931 . S
C807 H795 0.929 . S
C807 C801 1.390 . S
C807 C804 1.386 . S
C808 C803 1.490 . S
C808 C810 1.395 . S
C808 C811 1.403 . S
H809 C815 0.930 . S
C810 H796 0.930 . S
C810 C808 1.395 . S
C810 C813 1.403 . S
C811 C808 1.403 . S
C811 C812 1.524 . S
C811 C815 1.400 . S
C812 H797 0.960 . S
C812 H798 0.960 . S
C812 H799 0.960 . S
C812 C811 1.524 . S
C813 C810 1.403 . S
C813 C814 1.392 . S
C813 C817 1.495 . S
C814 C813 1.392 . S
C814 C815 1.385 . S
C814 C816 1.478 . S
C815 H809 0.930 . S
C815 C811 1.400 . S
C815 C814 1.385 . S
C816 C814 1.478 . S
C816 C818 1.381 . S
C816 C822 1.383 . S
C817 C813 1.495 . S
C817 H823 0.959 1_545 S
C817 H824 0.961 . S
C817 H825 0.960 1_545 S
C818 C816 1.381 . S
C818 C819 1.394 . S
C818 H826 0.930 1_545 S
C819 C818 1.394 . S
C819 C820 1.383 . S
C819 H827 0.929 1_545 S
C820 C819 1.383 . S
C820 C821 1.377 . S
C821 H805 0.930 . S
C821 C820 1.377 . S
C821 C822 1.379 . S
C822 H806 0.931 . S
C822 C816 1.383 . S
C822 C821 1.379 . S
H823 C817 0.959 1_565 S
H824 C817 0.961 . S
H825 C817 0.960 1_565 S
H826 C818 0.930 1_565 S
H827 C819 0.929 1_565 S
H828 C836 0.929 . S
H829 C838 0.930 . S
H830 C840 0.930 . S
H831 C843 0.929 . S
H832 C846 0.930 . S
H833 C848 0.960 . S
H834 C848 0.960 . S
H835 C848 0.960 . S
C836 H828 0.929 . S
C836 C837 1.377 . S
C836 C838 1.384 . S
C837 C836 1.377 . S
C837 C843 1.390 . S
C838 H829 0.930 . S
C838 C836 1.384 . S
C838 C839 1.372 . S
C839 C838 1.372 . S
C839 C840 1.400 . S
C839 C844 1.490 . S
C840 H830 0.930 . S
C840 C839 1.400 . S
C840 C843 1.386 . S
H841 C857 0.930 1_556 S
H842 C858 0.931 1_556 S
C843 H831 0.929 . S
C843 C837 1.390 . S
C843 C840 1.386 . S
C844 C839 1.490 . S
C844 C846 1.395 . S
C844 C847 1.403 . S
H845 C851 0.930 . S
C846 H832 0.930 . S
C846 C844 1.395 . S
C846 C849 1.403 . S
C847 C844 1.403 . S
C847 C848 1.524 . S
C847 C851 1.400 . S
C848 H833 0.960 . S
C848 H834 0.960 . S
C848 H835 0.960 . S
C848 C847 1.524 . S
C849 C846 1.403 . S
C849 C850 1.392 . S
C849 C853 1.495 . S
C850 C849 1.392 . S
C850 C851 1.385 . S
C850 C852 1.478 . S
C851 H845 0.930 . S
C851 C847 1.400 . S
C851 C850 1.385 . S
C852 C850 1.478 . S
C852 C854 1.381 . S
C852 C858 1.383 . S
C853 C849 1.495 . S
C853 H859 0.959 . S
C853 H860 0.961 . S
C853 H861 0.960 . S
C854 C852 1.381 . S
C854 C855 1.394 . S
C854 H862 0.930 . S
C855 C854 1.394 . S
C855 C856 1.383 . S
C855 H863 0.929 . S
C856 C855 1.383 . S
C856 C857 1.377 . S
C857 H841 0.930 1_554 S
C857 C856 1.377 . S
C857 C858 1.379 . S
C858 H842 0.931 1_554 S
C858 C852 1.383 . S
C858 C857 1.379 . S
H859 C853 0.959 . S
H860 C853 0.961 . S
H861 C853 0.960 . S
H862 C854 0.930 . S
H863 C855 0.929 . S
H864 C872 0.929 . S
H865 C874 0.930 . S
H866 C876 0.930 . S
H867 C879 0.929 . S
H868 C882 0.930 . S
H869 C884 0.960 . S
H870 C884 0.960 . S
H871 C884 0.960 . S
C872 H864 0.929 . S
C872 C873 1.377 . S
C872 C874 1.384 . S
C873 C872 1.377 . S
C873 C879 1.390 . S
C874 H865 0.930 . S
C874 C872 1.384 . S
C874 C875 1.372 . S
C875 C874 1.372 . S
C875 C876 1.400 . S
C875 C880 1.490 . S
C876 H866 0.930 . S
C876 C875 1.400 . S
C876 C879 1.386 . S
H877 C893 0.930 . S
H878 C894 0.931 . S
C879 H867 0.929 . S
C879 C873 1.390 . S
C879 C876 1.386 . S
C880 C875 1.490 . S
C880 C882 1.395 . S
C880 C883 1.403 . S
H881 C887 0.930 . S
C882 H868 0.930 . S
C882 C880 1.395 . S
C882 C885 1.403 . S
C883 C880 1.403 . S
C883 C884 1.524 . S
C883 C887 1.400 . S
C884 H869 0.960 . S
C884 H870 0.960 . S
C884 H871 0.960 . S
C884 C883 1.524 . S
C885 C882 1.403 . S
C885 C886 1.392 . S
C885 C889 1.495 . S
C886 C885 1.392 . S
C886 C887 1.385 . S
C886 C888 1.478 . S
C887 H881 0.930 . S
C887 C883 1.400 . S
C887 C886 1.385 . S
C888 C886 1.478 . S
C888 C890 1.381 . S
C888 C894 1.383 . S
C889 C885 1.495 . S
C889 H895 0.959 . S
C889 H896 0.961 . S
C889 H897 0.960 . S
C890 C888 1.381 . S
C890 C891 1.394 . S
C890 H898 0.930 . S
C891 C890 1.394 . S
C891 C892 1.383 . S
C891 H899 0.929 . S
C892 C891 1.383 . S
C892 C893 1.377 . S
C893 H877 0.930 . S
C893 C892 1.377 . S
C893 C894 1.379 . S
C894 H878 0.931 . S
C894 C888 1.383 . S
C894 C893 1.379 . S
H895 C889 0.959 . S
H896 C889 0.961 . S
H897 C889 0.960 . S
H898 C890 0.930 . S
H899 C891 0.929 . S
H900 C908 0.929 . S
H901 C910 0.930 . S
H902 C912 0.930 . S
H903 C915 0.929 . S
H904 C918 0.930 . S
H905 C920 0.960 . S
H906 C920 0.960 . S
H907 C920 0.960 . S
C908 H900 0.929 . S
C908 C909 1.377 1_455 S
C908 C910 1.384 . S
C909 C908 1.377 1_655 S
C909 C915 1.390 . S
C910 H901 0.930 . S
C910 C908 1.384 . S
C910 C911 1.372 . S
C911 C910 1.372 . S
C911 C912 1.400 1_455 S
C911 C916 1.490 . S
C912 H902 0.930 . S
C912 C911 1.400 1_655 S
C912 C915 1.386 . S
H913 C929 0.930 . S
H914 C930 0.931 1_655 S
C915 H903 0.929 . S
C915 C909 1.390 . S
C915 C912 1.386 . S
C916 C911 1.490 . S
C916 C918 1.395 . S
C916 C919 1.403 1_455 S
H917 C923 0.930 1_655 S
C918 H904 0.930 . S
C918 C916 1.395 . S
C918 C921 1.403 . S
C919 C916 1.403 1_655 S
C919 C920 1.524 . S
C919 C923 1.400 1_655 S
C920 H905 0.960 . S
C920 H906 0.960 . S
C920 H907 0.960 . S
C920 C919 1.524 . S
C921 C918 1.403 . S
C921 C922 1.392 . S
C921 C925 1.495 1_556 S
C922 C921 1.392 . S
C922 C923 1.385 . S
C922 C924 1.478 . S
C923 H917 0.930 1_455 S
C923 C919 1.400 1_455 S
C923 C922 1.385 . S
C924 C922 1.478 . S
C924 C926 1.381 . S
C924 C930 1.383 1_556 S
C925 C921 1.495 1_554 S
C925 H931 0.959 . S
C925 H932 0.961 . S
C925 H933 0.973 . S
C926 C924 1.381 . S
C926 C927 1.394 . S
C926 H934 0.930 . S
C927 C926 1.394 . S
C927 C928 1.383 . S
C927 H935 0.929 . S
C928 C927 1.383 . S
C928 C929 1.377 1_556 S
C929 H913 0.930 . S
C929 C928 1.377 1_554 S
C929 C930 1.379 . S
C930 H914 0.931 1_455 S
C930 C924 1.383 1_554 S
C930 C929 1.379 . S
H931 C925 0.959 . S
H932 C925 0.961 . S
H933 C925 0.973 . S
H934 C926 0.930 . S
H935 C927 0.929 . S
H936 C944 0.929 . S
H937 C946 0.930 . S
H938 C948 0.930 . S
H939 C951 0.929 . S
H940 C954 0.930 . S
H941 C956 0.960 . S
H942 C956 0.960 . S
H943 C956 0.960 . S
C944 H936 0.929 . S
C944 C945 1.377 . S
C944 C946 1.384 . S
C945 C944 1.377 . S
C945 C951 1.390 . S
C946 H937 0.930 . S
C946 C944 1.384 . S
C946 C947 1.372 . S
C947 C946 1.372 . S
C947 C948 1.400 . S
C947 C952 1.490 . S
C948 H938 0.930 . S
C948 C947 1.400 . S
C948 C951 1.386 . S
H949 C965 0.930 . S
H950 C966 0.931 . S
C951 H939 0.929 . S
C951 C945 1.390 . S
C951 C948 1.386 . S
C952 C947 1.490 . S
C952 C954 1.395 . S
C952 C955 1.403 . S
H953 C959 0.930 . S
C954 H940 0.930 . S
C954 C952 1.395 . S
C954 C957 1.403 . S
C955 C952 1.403 . S
C955 C956 1.524 . S
C955 C959 1.400 . S
C956 H941 0.960 . S
C956 H942 0.960 . S
C956 H943 0.960 . S
C956 C955 1.524 . S
C957 C954 1.403 . S
C957 C958 1.392 . S
C957 C961 1.495 . S
C958 C957 1.392 . S
C958 C959 1.385 . S
C958 C960 1.478 . S
C959 H953 0.930 . S
C959 C955 1.400 . S
C959 C958 1.385 . S
C960 C958 1.478 . S
C960 C962 1.381 . S
C960 C966 1.383 . S
C961 C957 1.495 . S
C961 H967 0.958 . S
C961 H968 0.961 1_554 S
C961 H969 0.960 . S
C962 C960 1.381 . S
C962 C963 1.394 . S
C962 H970 0.930 . S
C963 C962 1.394 . S
C963 C964 1.383 . S
C963 H971 0.929 . S
C964 C963 1.383 . S
C964 C965 1.377 . S
C965 H949 0.930 . S
C965 C964 1.377 . S
C965 C966 1.379 . S
C966 H950 0.931 . S
C966 C960 1.383 . S
C966 C965 1.379 . S
H967 C961 0.958 . S
H968 C961 0.961 1_556 S
H969 C961 0.960 . S
H970 C962 0.930 . S
H971 C963 0.929 . S
H972 C980 0.929 . S
H973 C982 0.930 . S
H974 C984 0.930 . S
H975 C987 0.929 . S
H976 C990 0.930 . S
H977 C992 0.960 . S
H978 C992 0.960 . S
H979 C992 0.960 . S
C980 H972 0.929 . S
C980 C981 1.377 . S
C980 C982 1.384 . S
C981 C980 1.377 . S
C981 C987 1.390 . S
C982 H973 0.930 . S
C982 C980 1.384 . S
C982 C983 1.372 . S
C983 C982 1.372 . S
C983 C984 1.400 . S
C983 C988 1.490 . S
C984 H974 0.930 . S
C984 C983 1.400 . S
C984 C987 1.386 . S
H985 C1001 0.930 1_655 S
H986 C1002 0.931 . S
C987 H975 0.929 . S
C987 C981 1.390 . S
C987 C984 1.386 . S
C988 C983 1.490 . S
C988 C990 1.395 . S
C988 C991 1.403 . S
H989 C995 0.930 . S
C990 H976 0.930 . S
C990 C988 1.395 . S
C990 C993 1.403 . S
C991 C988 1.403 . S
C991 C992 1.524 . S
C991 C995 1.400 . S
C992 H977 0.960 . S
C992 H978 0.960 . S
C992 H979 0.960 . S
C992 C991 1.524 . S
C993 C990 1.403 . S
C993 C994 1.392 . S
C993 C997 1.495 . S
C994 C993 1.392 . S
C994 C995 1.385 . S
C994 C996 1.478 . S
C995 H989 0.930 . S
C995 C991 1.400 . S
C995 C994 1.385 . S
C996 C994 1.478 . S
C996 C998 1.381 . S
C996 C1002 1.383 . S
C997 C993 1.495 . S
C997 H1003 0.959 . S
C997 H1004 0.961 . S
C997 H1005 0.960 . S
C998 C996 1.381 . S
C998 C999 1.394 . S
C998 H1006 0.930 . S
C999 C998 1.394 . S
C999 C1000 1.383 . S
C999 H1007 0.929 . S
C1000 C999 1.383 . S
C1000 C1001 1.377 . S
C1001 H985 0.930 1_455 S
C1001 C1000 1.377 . S
C1001 C1002 1.379 . S
C1002 H986 0.931 . S
C1002 C996 1.383 . S
C1002 C1001 1.379 . S
H1003 C997 0.959 . S
H1004 C997 0.961 . S
H1005 C997 0.960 . S
H1006 C998 0.930 . S
H1007 C999 0.929 . S
H1008 C1016 0.929 . S
H1009 C1018 0.930 . S
H1010 C1020 0.930 . S
H1011 C1023 0.929 . S
H1012 C1026 0.930 . S
H1013 C1028 0.960 . S
H1014 C1028 0.960 . S
H1015 C1028 0.960 . S
C1016 H1008 0.929 . S
C1016 C1017 1.377 . S
C1016 C1018 1.384 . S
C1017 C1016 1.377 . S
C1017 C1023 1.390 . S
C1018 H1009 0.930 . S
C1018 C1016 1.384 . S
C1018 C1019 1.372 . S
C1019 C1018 1.372 . S
C1019 C1020 1.400 . S
C1019 C1024 1.490 . S
C1020 H1010 0.930 . S
C1020 C1019 1.400 . S
C1020 C1023 1.386 . S
H1021 C1037 0.930 . S
H1022 C1038 0.931 . S
C1023 H1011 0.929 . S
C1023 C1017 1.390 . S
C1023 C1020 1.386 . S
C1024 C1019 1.490 . S
C1024 C1026 1.395 . S
C1024 C1027 1.403 . S
H1025 C1031 0.930 . S
C1026 H1012 0.930 . S
C1026 C1024 1.395 . S
C1026 C1029 1.403 . S
C1027 C1024 1.403 . S
C1027 C1028 1.524 . S
C1027 C1031 1.400 . S
C1028 H1013 0.960 . S
C1028 H1014 0.960 . S
C1028 H1015 0.960 . S
C1028 C1027 1.524 . S
C1029 C1026 1.403 . S
C1029 C1030 1.392 . S
C1029 C1033 1.495 . S
C1030 C1029 1.392 . S
C1030 C1031 1.385 . S
C1030 C1032 1.478 . S
C1031 H1025 0.930 . S
C1031 C1027 1.400 . S
C1031 C1030 1.385 . S
C1032 C1030 1.478 . S
C1032 C1034 1.381 . S
C1032 C1038 1.383 . S
C1033 C1029 1.495 . S
C1033 H1039 0.959 . S
C1033 H1040 0.961 . S
C1033 H1041 0.960 . S
C1034 C1032 1.381 . S
C1034 C1035 1.394 . S
C1034 H1042 0.930 . S
C1035 C1034 1.394 . S
C1035 C1036 1.383 . S
C1035 H1043 0.929 . S
C1036 C1035 1.383 . S
C1036 C1037 1.377 . S
C1037 H1021 0.930 . S
C1037 C1036 1.377 . S
C1037 C1038 1.379 . S
C1038 H1022 0.931 . S
C1038 C1032 1.383 . S
C1038 C1037 1.379 . S
H1039 C1033 0.959 . S
H1040 C1033 0.961 . S
H1041 C1033 0.960 . S
H1042 C1034 0.930 . S
H1043 C1035 0.929 . S
C189 C6 1.760 . S
C208 C99 1.605 . S
C225 C18 1.847 . S
C244 C133 1.677 . S
C280 C145 1.412 . S
C261 C28 1.492 . S
C297 C40 0.902 . S
C316 C179 0.871 . S
C352 C136 1.706 . S
C333 C9 1.864 . S
C388 C116 1.439 . S
C369 C16 1.514 . S
C424 C163 1.436 . S
C405 C30 1.513 . S
C460 C154 1.077 . S
C441 C42 1.177 . S
C477 C4 1.524 . S
C496 C162 1.404 . S
C532 C124 1.430 . S
C513 C33 1.593 . S
C549 C45 1.235 . S
C568 C100 1.186 . S
C585 C21 1.812 . S
C604 C157 1.726 . S
C640 C115 1.672 . S
C621 C57 1.822 . S
C657 C66 1.927 . S
C676 C137 1.807 . S
C693 C76 1.683 . S
C712 C142 1.562 . S
C729 C88 1.007 . S
C748 C175 1.009 . S
C765 C54 1.900 . S
C784 C120 1.798 . S
C820 C112 1.588 . S
C801 C64 1.650 . S
C856 C166 1.342 . S
C837 C78 1.429 . S
C892 C158 1.177 . S
C873 C93 1.291 . S
C909 C52 1.459 . S
C928 C178 1.391 . S
C964 C121 1.554 . S
C945 C81 1.674 . S
C1000 C103 1.254 . S
C981 C90 1.371 . S
C1017 C69 1.858 . S
C1036 C141 1.724 . S
