# Generated by pormake.
# Topology tsx, (6,3)-cn, num edge types: 1
# Building blocks:
#     Node 0, Type 0, BuildingBlock: LEVNOQ01_clean_sbu_1, # of connection points: 6
#     Node 1, Type 0, BuildingBlock: LEVNOQ01_clean_sbu_1, # of connection points: 6
#     Node 2, Type 1, BuildingBlock: CUQRIR_clean_linker_1, # of connection points: 3
#     Node 3, Type 1, BuildingBlock: CUQRIR_clean_linker_1, # of connection points: 3
#     Node 4, Type 1, BuildingBlock: CUQRIR_clean_linker_1, # of connection points: 3
#     Node 5, Type 1, BuildingBlock: CUQRIR_clean_linker_1, # of connection points: 3
#     Edge 6, Type (0, 1), BuildingBlock: XIVTED_clean_linker_0, # of connection points: 2
#     Edge 7, Type (0, 1), BuildingBlock: XIVTED_clean_linker_0, # of connection points: 2
#     Edge 8, Type (0, 1), BuildingBlock: XIVTED_clean_linker_0, # of connection points: 2
#     Edge 9, Type (0, 1), BuildingBlock: XIVTED_clean_linker_0, # of connection points: 2
#     Edge 10, Type (0, 1), BuildingBlock: XIVTED_clean_linker_0, # of connection points: 2
#     Edge 11, Type (0, 1), BuildingBlock: XIVTED_clean_linker_0, # of connection points: 2
#     Edge 12, Type (0, 1), BuildingBlock: XIVTED_clean_linker_0, # of connection points: 2
#     Edge 13, Type (0, 1), BuildingBlock: XIVTED_clean_linker_0, # of connection points: 2
#     Edge 14, Type (0, 1), BuildingBlock: XIVTED_clean_linker_0, # of connection points: 2
#     Edge 15, Type (0, 1), BuildingBlock: XIVTED_clean_linker_0, # of connection points: 2
#     Edge 16, Type (0, 1), BuildingBlock: XIVTED_clean_linker_0, # of connection points: 2
#     Edge 17, Type (0, 1), BuildingBlock: XIVTED_clean_linker_0, # of connection points: 2
# Relax obj value: 0.161
# Max RMSD: 0.177
# Mean RMSD: 0.163
data_MOF--net-tsx--node1-LEVNOQ01_clean_sbu_1--node2-CUQRIR_clean_linker_1--edge1-XIVTED_clean_linker_0
_symmetry_space_group_name_H-M    P1
_symmetry_Int_Tables_number       1
_symmetry_cell_setting            triclinic
loop_
_symmetry_equiv_pos_as_xyz
'x, y, z'
_cell_length_a     17.286337
_cell_length_b     20.820864
_cell_length_c     33.178145
_cell_angle_alpha  86.966733
_cell_angle_beta   89.950944
_cell_angle_gamma 91.186907
loop_
_atom_site_label
_atom_site_type_symbol
_atom_site_fract_x
_atom_site_fract_y
_atom_site_fract_z
_atom_type_partial_charge
O0 O 0.20065 0.97915 0.0597 0.0
Mg1 Mg 0.22906 0.02474 0.00261 0.0
O2 O 0.07867 0.00675 0.05371 0.0
Mg3 Mg 0.08354 0.02994 -0.01566 0.0
O4 O 0.18122 0.11157 -0.0103 0.0
O5 O 0.30515 0.09798 0.00805 0.0
O6 O 0.09779 0.05032 0.91582 0.0
O7 O 0.01295 0.1297 -0.00796 0.0
Mg8 Mg 0.9545 0.04094 0.96162 0.0
O9 O 0.9812 0.94929 -0.02014 0.0
O10 O 0.98706 0.0972 0.9086 0.0
O11 O 0.89974 0.08857 0.00717 0.0
O12 O 0.87898 0.97643 0.94131 0.0
C13 C 0.21677 0.9251 0.95626 0.0
C14 C 0.13369 0.98286 0.07494 0.0
C15 C 0.24968 0.13545 -0.00294 0.0
C16 C 0.05256 0.08502 0.89454 0.0
C17 C 0.94342 0.13756 0.00384 0.0
C18 C 0.916 0.9339 0.96271 0.0
O19 O 0.26416 0.97172 0.95465 0.0
O20 O 0.1518 0.93222 0.97367 0.0
O21 O 0.70531 0.50481 0.56245 0.0
Mg22 Mg 0.734 0.54707 0.50472 0.0
O23 O 0.58189 0.52623 0.5536 0.0
Mg24 Mg 0.58572 0.55001 0.48427 0.0
O25 O 0.68374 0.63191 0.4884 0.0
O26 O 0.80774 0.6221 0.50797 0.0
O27 O 0.5976 0.57035 0.41571 0.0
O28 O 0.51403 0.64926 0.49247 0.0
Mg29 Mg 0.45601 0.55982 0.46256 0.0
O30 O 0.4836 0.46847 0.48095 0.0
O31 O 0.48584 0.61569 0.40896 0.0
O32 O 0.40167 0.60718 0.5083 0.0
O33 O 0.38011 0.49482 0.44318 0.0
C34 C 0.7226 0.44583 0.45767 0.0
C35 C 0.6369 0.50561 0.57614 0.0
C36 C 0.75158 0.65755 0.49526 0.0
C37 C 0.55121 0.60407 0.39453 0.0
C38 C 0.44456 0.65658 0.50456 0.0
C39 C 0.4178 0.45268 0.46454 0.0
O40 O 0.77146 0.49118 0.4589 0.0
O41 O 0.65548 0.45337 0.47267 0.0
C42 C 0.029 0.00779 0.41878 0.0
N43 N 0.06428 0.96429 0.39664 0.0
N44 N 0.96642 0.03182 0.39919 0.0
C45 C 0.05843 0.02958 0.45839 0.0
C46 C 0.96566 0.00192 0.36396 0.0
N47 N 0.02475 0.96005 0.36248 0.0
C48 C 0.91461 0.02103 0.32864 0.0
H49 H 0.01082 0.04921 0.47576 0.0
H50 H 0.10321 0.06794 0.4527 0.0
H51 H 0.08491 0.98924 0.47629 0.0
H52 H 0.95043 0.03223 0.3013 0.0
H53 H 0.87918 0.06336 0.33438 0.0
H54 H 0.87494 0.98024 0.32236 0.0
C55 C 0.95717 0.13633 0.54911 0.0
N56 N 0.00825 0.16139 0.5753 0.0
N57 N 0.91625 0.08613 0.56674 0.0
C58 C 0.95039 0.15808 0.50551 0.0
C59 C 0.94384 0.08216 0.60485 0.0
N60 N 0.99973 0.12724 0.60993 0.0
C61 C 0.91923 0.03116 0.63632 0.0
H62 H 0.91207 0.12506 0.48939 0.0
H63 H 0.00834 0.16151 0.49106 0.0
H64 H 0.92486 0.20655 0.50322 0.0
H65 H 0.96117 0.99151 0.6367 0.0
H66 H 0.86098 0.01123 0.6294 0.0
H67 H 0.91861 0.05105 0.66669 0.0
C68 C 0.525 0.4859 0.9196 0.0
N69 N 0.56259 0.44455 0.89682 0.0
N70 N 0.46391 0.51138 0.89936 0.0
C71 C 0.55009 0.50403 0.96081 0.0
C72 C 0.46601 0.48403 0.86332 0.0
N73 N 0.52542 0.44265 0.86185 0.0
C74 C 0.41759 0.50515 0.8274 0.0
H75 H 0.58449 0.46566 0.97622 0.0
H76 H 0.4987 0.51324 -0.02071 0.0
H77 H 0.58617 0.54873 0.9579 0.0
H78 H 0.45585 0.52294 0.80215 0.0
H79 H 0.37689 0.54348 0.83439 0.0
H80 H 0.38365 0.46336 0.81707 0.0
C81 C 0.45471 0.61699 0.04867 0.0
N82 N 0.50487 0.64551 0.07385 0.0
N83 N 0.4139 0.56854 0.06827 0.0
C84 C 0.44963 0.63317 0.00427 0.0
C85 C 0.44047 0.56937 0.10653 0.0
N86 N 0.49569 0.61552 0.10981 0.0
C87 C 0.41545 0.52218 0.14014 0.0
H88 H 0.42525 0.68177 -0.00064 0.0
H89 H 0.41123 0.59862 -0.0105 0.0
H90 H 0.50807 0.63399 -0.00958 0.0
H91 H 0.4581 0.48312 0.14309 0.0
H92 H 0.3578 0.50062 0.13371 0.0
H93 H 0.41339 0.54612 0.16921 0.0
H94 H 0.14546 0.23343 0.00166 0.0
H95 H 0.27258 0.55178 0.03415 0.0
H96 H 0.38891 0.19685 -0.01088 0.0
H97 H 0.48768 0.45871 0.06103 0.0
H98 H 0.22238 0.45158 0.00609 0.0
H99 H 0.17749 0.34695 0.01132 0.0
C100 C 0.20539 0.24963 -4e-05 0.0
C101 C 0.26477 0.20556 -0.00463 0.0
C102 C 0.28029 0.45289 0.01837 0.0
C103 C 0.30186 0.33486 0.00591 0.0
C104 C 0.30873 0.50994 0.03411 0.0
C105 C 0.38347 0.51222 0.05029 0.0
C106 C 0.32769 0.39863 0.01894 0.0
C107 C 0.42927 0.45785 0.0493 0.0
C108 C 0.2237 0.31453 0.00534 0.0
C109 C 0.34138 0.22888 -0.0066 0.0
N110 N 0.40071 0.40338 0.03391 0.0
N111 N 0.35764 0.29156 -0.00078 0.0
H112 H 0.14957 0.80412 0.97088 0.0
H113 H 0.52536 0.63027 0.89325 0.0
H114 H 0.34418 0.90247 0.91175 0.0
H115 H 0.31442 0.52417 0.92139 0.0
H116 H 0.45853 0.73085 0.90276 0.0
H117 H 0.20584 0.70063 0.95495 0.0
C118 C 0.20337 0.80403 0.95413 0.0
C119 C 0.24257 0.86208 0.94299 0.0
C120 C 0.42639 0.68578 0.90688 0.0
C121 C 0.30726 0.7445 0.92513 0.0
C122 C 0.46486 0.62867 0.90183 0.0
C123 C 0.42533 0.56969 0.90742 0.0
C124 C 0.34773 0.68387 0.91794 0.0
C125 C 0.34654 0.56924 0.91754 0.0
C126 C 0.23552 0.74506 0.94517 0.0
C127 C 0.31221 0.8591 0.92141 0.0
N128 N 0.31018 0.62567 0.92292 0.0
N129 N 0.34242 0.80154 0.91355 0.0
H130 H 0.79831 0.87937 0.92171 0.0
H131 H 0.6554 0.61963 0.08787 0.0
H132 H 0.9352 0.85203 0.02982 0.0
H133 H 0.50503 0.75905 0.03039 0.0
H134 H 0.76804 0.68025 0.05922 0.0
H135 H 0.70136 0.80364 0.95055 0.0
C136 C 0.80915 0.85599 0.95106 0.0
C137 C 0.87417 0.87301 0.97378 0.0
C138 C 0.71028 0.69751 0.05321 0.0
C139 C 0.7632 0.78675 0.00679 0.0
C140 C 0.6463 0.66368 0.06989 0.0
C141 C 0.57107 0.68483 0.06156 0.0
C142 C 0.6983 0.75143 0.02713 0.0
C143 C 0.56204 0.74091 0.03704 0.0
C144 C 0.75339 0.81336 0.96757 0.0
C145 C 0.88564 0.84049 0.01142 0.0
N146 N 0.62491 0.77187 0.0202 0.0
N147 N 0.8298 0.79929 0.02716 0.0
H148 H 0.99055 0.24529 0.95761 0.0
H149 H 0.71328 0.48187 0.8999 0.0
H150 H 0.80555 0.17085 0.03517 0.0
H151 H 0.55629 0.32227 0.92586 0.0
H152 H 0.81935 0.41892 0.93094 0.0
H153 H 0.90415 0.32914 0.93055 0.0
C154 C 0.93295 0.24813 0.9702 0.0
C155 C 0.90513 0.20059 -0.00144 0.0
C156 C 0.76208 0.39725 0.92918 0.0
C157 C 0.80553 0.29506 0.96694 0.0
C158 C 0.70202 0.4329 0.91133 0.0
C159 C 0.62715 0.40598 0.90943 0.0
C160 C 0.74605 0.33507 0.94614 0.0
C161 C 0.61393 0.34358 0.92593 0.0
C162 C 0.88334 0.2957 0.95441 0.0
C163 C 0.82935 0.20613 0.01315 0.0
N164 N 0.67259 0.31042 0.94393 0.0
N165 N 0.78179 0.25128 -0.00351 0.0
H166 H 0.8851 0.71758 0.47159 0.0
H167 H 0.76813 0.06315 0.54324 0.0
H168 H 0.65212 0.75618 0.50859 0.0
H169 H 0.99704 0.98611 0.54528 0.0
H170 H 0.71912 0.96356 0.51335 0.0
H171 H 0.92008 0.83035 0.47798 0.0
C172 C 0.84093 0.75022 0.4805 0.0
C173 C 0.76613 0.72751 0.49044 0.0
C174 C 0.78021 0.96912 0.51982 0.0
C175 C 0.80625 0.85647 0.49882 0.0
C176 C 0.80783 0.0255 0.53674 0.0
C177 C 0.88638 0.03192 0.54633 0.0
C178 C 0.83219 0.92003 0.51228 0.0
C179 C 0.93617 0.9824 0.53791 0.0
C180 C 0.86098 0.81454 0.48427 0.0
C181 C 0.71069 0.77197 0.50106 0.0
N182 N 0.90835 0.92862 0.52135 0.0
N183 N 0.73229 0.83448 0.50585 0.0
H184 H 0.84864 0.42599 0.41176 0.0
H185 H 0.81634 0.04138 0.42088 0.0
H186 H 0.65653 0.32391 0.47073 0.0
H187 H 0.02454 0.15211 0.39408 0.0
H188 H 0.74741 0.14221 0.43117 0.0
H189 H 0.90295 0.32418 0.39522 0.0
C190 C 0.81742 0.38201 0.42103 0.0
C191 C 0.74831 0.38359 0.44315 0.0
C192 C 0.80813 0.14435 0.42306 0.0
C193 C 0.81109 0.26588 0.42439 0.0
C194 C 0.84718 0.08714 0.4174 0.0
C195 C 0.92606 0.08928 0.40742 0.0
C196 C 0.84844 0.20361 0.41792 0.0
C197 C 0.96401 0.14905 0.40248 0.0
C198 C 0.84875 0.32371 0.41164 0.0
C199 C 0.71007 0.32487 0.45374 0.0
N200 N 0.92488 0.20381 0.40774 0.0
N201 N 0.74238 0.26814 0.44456 0.0
H202 H 0.29918 0.39732 0.42474 0.0
H203 H 0.15896 0.13421 0.58794 0.0
H204 H 0.43812 0.37214 0.53227 0.0
H205 H 0.00841 0.2789 0.53641 0.0
H206 H 0.2714 0.19648 0.56034 0.0
H207 H 0.20283 0.32201 0.4546 0.0
C208 C 0.31061 0.37449 0.45418 0.0
C209 C 0.37614 0.39196 0.47639 0.0
C210 C 0.21366 0.21455 0.55549 0.0
C211 C 0.26583 0.30604 0.51054 0.0
C212 C 0.14978 0.17972 0.57154 0.0
C213 C 0.07449 0.20172 0.56436 0.0
C214 C 0.20145 0.27043 0.53119 0.0
C215 C 0.0654 0.25994 0.542 0.0
C216 C 0.25519 0.33211 0.47127 0.0
C217 C 0.38825 0.36016 0.51422 0.0
N218 N 0.1281 0.29183 0.52562 0.0
N219 N 0.33278 0.31905 0.5305 0.0
H220 H 0.4921 0.76618 0.46003 0.0
H221 H 0.21294 0.0042 0.40579 0.0
H222 H 0.30394 0.68721 0.53385 0.0
H223 H 0.0602 0.83891 0.41947 0.0
H224 H 0.31818 0.94034 0.43693 0.0
H225 H 0.40557 0.84997 0.43276 0.0
C226 C 0.43369 0.76786 0.47172 0.0
C227 C 0.40517 0.71917 0.49912 0.0
C228 C 0.26205 0.9178 0.43249 0.0
C229 C 0.30559 0.81336 0.46711 0.0
C230 C 0.20247 0.95399 0.41468 0.0
C231 C 0.12897 0.92584 0.40939 0.0
C232 C 0.24683 0.85371 0.44606 0.0
C233 C 0.11679 0.86144 0.4223 0.0
C234 C 0.38409 0.81536 0.45581 0.0
C235 C 0.32837 0.72334 0.51258 0.0
N236 N 0.17484 0.82771 0.44049 0.0
N237 N 0.28089 0.76836 0.49569 0.0
H238 H 0.24354 0.94291 0.12922 0.0
H239 H 0.16551 0.98454 0.33001 0.0
H240 H 0.99783 0.97349 0.11871 0.0
H241 H 0.94904 0.88545 0.31017 0.0
H242 H 0.20009 0.97327 0.25955 0.0
H243 H 0.22669 0.9162 0.20114 0.0
C244 C 0.18586 0.94381 0.14193 0.0
C245 C 0.12209 0.9618 0.11792 0.0
C246 C 0.14614 0.95185 0.27079 0.0
C247 C 0.10288 0.93143 0.20048 0.0
C248 C 0.12682 0.95775 0.3112 0.0
C249 C 0.05441 0.9359 0.32578 0.0
C250 C 0.09191 0.92492 0.24468 0.0
C251 C 0.00509 0.90347 0.29972 0.0
C252 C 0.17654 0.92872 0.18307 0.0
C253 C 0.04874 0.961 0.13616 0.0
N254 N 0.02367 0.90062 0.26001 0.0
N255 N 0.04117 0.94638 0.17648 0.0
H256 H 0.16186 0.03679 0.84532 0.0
H257 H 0.99354 0.23214 0.65317 0.0
H258 H 0.99001 0.1838 0.84943 0.0
H259 H 0.09564 0.04593 0.64983 0.0
H260 H 0.035 0.23827 0.72378 0.0
H261 H 0.17865 0.06316 0.77291 0.0
C262 C 0.12883 0.07543 0.83115 0.0
C263 C 0.073 0.1071 0.85297 0.0
C264 C 0.0501 0.19678 0.70728 0.0
C265 C 0.09245 0.13769 0.7708 0.0
C266 C 0.02687 0.19358 0.66719 0.0
C267 C 0.04023 0.138 0.64666 0.0
C268 C 0.0869 0.14393 0.72644 0.0
C269 C 0.08347 0.08894 0.66544 0.0
C270 C 0.13846 0.09041 0.78994 0.0
C271 C 0.03229 0.15719 0.83337 0.0
N272 N 0.10436 0.0925 0.70467 0.0
N273 N 0.04215 0.17046 0.79322 0.0
H274 H 0.49799 0.47157 0.61243 0.0
H275 H 0.45857 0.36112 0.81115 0.0
H276 H 0.74321 0.48561 0.63596 0.0
H277 H 0.66046 0.48105 0.82739 0.0
H278 H 0.48743 0.36092 0.73865 0.0
H279 H 0.47697 0.43435 0.68289 0.0
C280 C 0.54738 0.46638 0.63233 0.0
C281 C 0.62235 0.48204 0.61835 0.0
C282 C 0.52618 0.38636 0.75818 0.0
C283 C 0.59912 0.43815 0.69868 0.0
C284 C 0.51061 0.38533 0.79951 0.0
C285 C 0.557 0.42155 0.82487 0.0
C286 C 0.58879 0.42383 0.74247 0.0
C287 C 0.62377 0.45225 0.80872 0.0
C288 C 0.53554 0.44413 0.67239 0.0
C289 C 0.68436 0.47413 0.64542 0.0
N290 N 0.63714 0.45358 0.76833 0.0
N291 N 0.67123 0.45368 0.68441 0.0
H292 H 0.48425 0.69925 0.34805 0.0
H293 H 0.59539 0.54005 0.15124 0.0
H294 H 0.6603 0.55554 0.34548 0.0
H295 H 0.4848 0.72314 0.15017 0.0
H296 H 0.63768 0.55408 0.22072 0.0
H297 H 0.49922 0.71954 0.27538 0.0
C298 C 0.52689 0.67264 0.3322 0.0
C299 C 0.56973 0.62453 0.35247 0.0
C300 C 0.60601 0.59217 0.20509 0.0
C301 C 0.5866 0.64691 0.26941 0.0
C302 C 0.58202 0.58398 0.16563 0.0
C303 C 0.53607 0.63022 0.1459 0.0
C304 C 0.58172 0.6462 0.22499 0.0
C305 C 0.51994 0.68657 0.16502 0.0
C306 C 0.53582 0.68451 0.29076 0.0
C307 C 0.62529 0.59236 0.33078 0.0
N308 N 0.54117 0.69244 0.20406 0.0
N309 N 0.63088 0.60307 0.29015 0.0
loop_
_geom_bond_atom_site_label_1
_geom_bond_atom_site_label_2
_geom_bond_distance
_geom_bond_site_symmetry_2
_ccdc_geom_bond_type
O0 Mg1 1.990 . S
O0 C14 1.253 . S
Mg1 O0 1.990 . S
Mg1 O4 2.180 . S
Mg1 O5 2.117 . S
Mg1 O19 2.030 1_545 S
O2 Mg3 2.072 1_554 S
O2 C14 1.260 . S
Mg3 O2 2.072 1_556 S
Mg3 O4 2.099 1_556 S
Mg3 O6 2.079 . S
Mg3 O7 2.073 . S
Mg3 O9 2.099 1_445 S
Mg3 O20 2.079 1_545 S
O4 Mg1 2.180 . S
O4 Mg3 2.099 1_554 S
O4 C15 1.279 . S
O5 Mg1 2.117 . S
O5 C15 1.250 . S
O6 Mg3 2.079 . S
O6 C16 1.264 . S
O7 Mg3 2.073 . S
O7 C17 1.261 1_455 S
Mg8 O9 2.180 1_545 S
Mg8 O10 2.030 . S
Mg8 O11 1.990 . S
Mg8 O12 2.117 1_545 S
O9 Mg3 2.099 1_665 S
O9 Mg8 2.180 1_565 S
O9 C18 1.279 1_556 S
O10 Mg8 2.030 . S
O10 C16 1.248 1_655 S
O11 Mg8 1.990 . S
O11 C17 1.253 . S
O12 Mg8 2.117 1_565 S
O12 C18 1.250 1_556 S
C13 O19 1.248 . S
C13 O20 1.264 1_554 S
C14 O0 1.253 . S
C14 O2 1.260 . S
C15 O4 1.279 . S
C15 O5 1.250 . S
C16 O6 1.264 . S
C16 O10 1.248 1_455 S
C17 O7 1.261 1_655 S
C17 O11 1.253 . S
C18 O9 1.279 1_554 S
C18 O12 1.250 1_554 S
O19 Mg1 2.030 1_565 S
O19 C13 1.248 . S
O20 Mg3 2.079 1_565 S
O20 C13 1.264 1_556 S
O21 Mg22 1.990 . S
O21 C35 1.253 . S
Mg22 O21 1.990 . S
Mg22 O25 2.180 . S
Mg22 O26 2.117 . S
Mg22 O40 2.030 . S
O23 Mg24 2.072 . S
O23 C35 1.260 . S
Mg24 O23 2.072 . S
Mg24 O25 2.099 . S
Mg24 O27 2.079 . S
Mg24 O28 2.072 . S
Mg24 O30 2.099 . S
Mg24 O41 2.079 . S
O25 Mg22 2.180 . S
O25 Mg24 2.099 . S
O25 C36 1.279 . S
O26 Mg22 2.117 . S
O26 C36 1.250 . S
O27 Mg24 2.079 . S
O27 C37 1.264 . S
O28 Mg24 2.072 . S
O28 C38 1.260 . S
Mg29 O30 2.180 . S
Mg29 O31 2.030 . S
Mg29 O32 1.990 . S
Mg29 O33 2.117 . S
O30 Mg24 2.099 . S
O30 Mg29 2.180 . S
O30 C39 1.279 . S
O31 Mg29 2.030 . S
O31 C37 1.248 . S
O32 Mg29 1.990 . S
O32 C38 1.253 . S
O33 Mg29 2.117 . S
O33 C39 1.250 . S
C34 O40 1.248 . S
C34 O41 1.264 . S
C35 O21 1.253 . S
C35 O23 1.260 . S
C36 O25 1.279 . S
C36 O26 1.250 . S
C37 O27 1.264 . S
C37 O31 1.248 . S
C38 O28 1.260 . S
C38 O32 1.253 . S
C39 O30 1.279 . S
C39 O33 1.250 . S
O40 Mg22 2.030 . S
O40 C34 1.248 . S
O41 Mg24 2.079 . S
O41 C34 1.264 . S
C42 N43 1.317 1_545 S
C42 N44 1.348 1_455 S
C42 C45 1.483 1_545 S
N43 C42 1.317 1_565 S
N43 N47 1.370 1_565 S
N44 C42 1.348 1_655 S
N44 C46 1.346 . S
C45 C42 1.483 1_565 S
C45 H49 0.969 . S
C45 H50 0.948 1_565 S
C45 H51 0.966 . S
C46 N44 1.346 . S
C46 N47 1.307 1_655 S
C46 C48 1.486 . S
N47 N43 1.370 1_545 S
N47 C46 1.307 1_455 S
C48 C46 1.486 . S
C48 H52 0.960 . S
C48 H53 0.960 . S
C48 H54 0.959 . S
H49 C45 0.969 . S
H50 C45 0.948 1_545 S
H51 C45 0.966 . S
H52 C48 0.960 . S
H53 C48 0.960 . S
H54 C48 0.959 . S
C55 N56 1.317 . S
C55 N57 1.348 1_455 S
C55 C58 1.485 . S
N56 C55 1.317 . S
N56 N60 1.370 . S
N57 C55 1.348 1_655 S
N57 C59 1.346 . S
C58 C55 1.485 . S
C58 H62 0.960 1_455 S
C58 H63 0.961 . S
C58 H64 0.960 . S
C59 N57 1.346 . S
C59 N60 1.307 1_655 S
C59 C61 1.486 . S
N60 N56 1.370 . S
N60 C59 1.307 1_455 S
C61 C59 1.486 . S
C61 H65 0.960 1_545 S
C61 H66 0.960 . S
C61 H67 0.959 . S
H62 C58 0.960 1_655 S
H63 C58 0.961 . S
H64 C58 0.960 . S
H65 C61 0.960 1_565 S
H66 C61 0.960 . S
H67 C61 0.959 . S
C68 N69 1.317 . S
C68 N70 1.348 . S
C68 C71 1.485 1_556 S
N69 C68 1.317 . S
N69 N73 1.370 . S
N70 C68 1.348 . S
N70 C72 1.346 . S
C71 C68 1.485 1_554 S
C71 H75 0.960 . S
C71 H76 0.961 . S
C71 H77 0.960 . S
C72 N70 1.346 . S
C72 N73 1.307 . S
C72 C74 1.486 . S
N73 N69 1.370 . S
N73 C72 1.307 . S
C74 C72 1.486 . S
C74 H78 0.960 . S
C74 H79 0.960 . S
C74 H80 0.959 . S
H75 C71 0.960 . S
H76 C71 0.961 . S
H77 C71 0.960 . S
H78 C74 0.960 . S
H79 C74 0.960 . S
H80 C74 0.959 . S
C81 N82 1.317 . S
C81 N83 1.348 . S
C81 C84 1.485 1_554 S
N82 C81 1.317 . S
N82 N86 1.370 . S
N83 C81 1.348 . S
N83 C85 1.346 . S
C84 C81 1.485 1_556 S
C84 H88 0.960 . S
C84 H89 0.961 . S
C84 H90 0.960 . S
C85 N83 1.346 . S
C85 N86 1.307 . S
C85 C87 1.486 . S
N86 N82 1.370 . S
N86 C85 1.307 . S
C87 C85 1.486 . S
C87 H91 0.960 . S
C87 H92 0.960 . S
C87 H93 0.959 . S
H88 C84 0.960 . S
H89 C84 0.961 . S
H90 C84 0.960 . S
H91 C87 0.960 . S
H92 C87 0.960 . S
H93 C87 0.959 . S
H94 C100 0.930 . S
H95 C104 0.930 . S
H96 C109 0.929 . S
H97 C107 0.929 . S
H98 C102 0.929 . S
H99 C108 0.929 . S
C100 H94 0.930 . S
C100 C101 1.367 . S
C100 C108 1.378 . S
C101 C100 1.367 . S
C101 C109 1.433 1_554 S
C102 H98 0.929 . S
C102 C104 1.378 . S
C102 C106 1.350 1_556 S
C103 C106 1.463 . S
C103 C108 1.350 . S
C103 N111 1.427 1_554 S
C104 H95 0.930 . S
C104 C102 1.378 . S
C104 C105 1.367 1_556 S
C105 C104 1.367 1_554 S
C105 C107 1.433 . S
C106 C102 1.350 1_554 S
C106 C103 1.463 . S
C106 N110 1.427 . S
C107 H97 0.929 . S
C107 C105 1.433 . S
C107 N110 1.384 . S
C108 H99 0.929 . S
C108 C100 1.378 . S
C108 C103 1.350 . S
C109 H96 0.929 . S
C109 C101 1.433 1_556 S
C109 N111 1.384 . S
N110 C106 1.427 . S
N110 C107 1.384 . S
N111 C103 1.427 1_556 S
N111 C109 1.384 . S
H112 C118 0.930 . S
H113 C122 0.930 . S
H114 C127 0.929 . S
H115 C125 0.929 1_554 S
H116 C120 0.929 . S
H117 C126 0.929 . S
C118 H112 0.930 . S
C118 C119 1.367 . S
C118 C126 1.378 . S
C119 C118 1.367 . S
C119 C127 1.433 1_554 S
C120 H116 0.929 . S
C120 C122 1.378 . S
C120 C124 1.350 . S
C121 C124 1.463 . S
C121 C126 1.350 1_556 S
C121 N129 1.427 . S
C122 H113 0.930 . S
C122 C120 1.378 . S
C122 C123 1.367 . S
C123 C122 1.367 . S
C123 C125 1.433 . S
C124 C120 1.350 . S
C124 C121 1.463 . S
C124 N128 1.427 1_556 S
C125 H115 0.929 1_556 S
C125 C123 1.433 . S
C125 N128 1.384 1_556 S
C126 H117 0.929 . S
C126 C118 1.378 . S
C126 C121 1.350 1_554 S
C127 H114 0.929 . S
C127 C119 1.433 1_556 S
C127 N129 1.384 . S
N128 C124 1.427 1_554 S
N128 C125 1.384 1_554 S
N129 C121 1.427 . S
N129 C127 1.384 . S
H130 C136 0.930 . S
H131 C140 0.930 . S
H132 C145 0.929 . S
H133 C143 0.929 1_556 S
H134 C138 0.929 . S
H135 C144 0.929 . S
C136 H130 0.930 . S
C136 C137 1.367 1_556 S
C136 C144 1.378 . S
C137 C136 1.367 1_554 S
C137 C145 1.433 . S
C138 H134 0.929 . S
C138 C140 1.378 . S
C138 C142 1.350 . S
C139 C142 1.463 . S
C139 C144 1.350 1_554 S
C139 N147 1.427 . S
C140 H131 0.930 . S
C140 C138 1.378 . S
C140 C141 1.367 . S
C141 C140 1.367 . S
C141 C143 1.433 . S
C142 C138 1.350 . S
C142 C139 1.463 . S
C142 N146 1.427 . S
C143 H133 0.929 1_554 S
C143 C141 1.433 . S
C143 N146 1.384 . S
C144 H135 0.929 . S
C144 C136 1.378 . S
C144 C139 1.350 1_556 S
C145 H132 0.929 . S
C145 C137 1.433 . S
C145 N147 1.384 . S
N146 C142 1.427 . S
N146 C143 1.384 . S
N147 C139 1.427 . S
N147 C145 1.384 . S
H148 C154 0.930 . S
H149 C158 0.930 1_554 S
H150 C163 0.929 . S
H151 C161 0.929 . S
H152 C156 0.921 1_554 S
H153 C162 0.929 . S
C154 H148 0.930 . S
C154 C155 1.367 . S
C154 C162 1.378 . S
C155 C154 1.367 . S
C155 C163 1.433 1_556 S
C156 H152 0.921 1_556 S
C156 C158 1.379 . S
C156 C160 1.356 . S
C157 C160 1.463 . S
C157 C162 1.350 . S
C157 N165 1.427 1_556 S
C158 H149 0.930 1_556 S
C158 C156 1.379 . S
C158 C159 1.367 . S
C159 C158 1.367 . S
C159 C161 1.433 . S
C160 C156 1.356 . S
C160 C157 1.463 . S
C160 N164 1.427 . S
C161 H151 0.929 . S
C161 C159 1.433 . S
C161 N164 1.384 . S
C162 H153 0.929 . S
C162 C154 1.378 . S
C162 C157 1.350 . S
C163 H150 0.929 . S
C163 C155 1.433 1_554 S
C163 N165 1.384 . S
N164 C160 1.427 . S
N164 C161 1.384 . S
N165 C157 1.427 1_554 S
N165 C163 1.384 . S
H166 C172 0.930 . S
H167 C176 0.930 1_545 S
H168 C181 0.929 . S
H169 C179 0.929 1_455 S
H170 C174 0.929 . S
H171 C180 0.929 . S
C172 H166 0.930 . S
C172 C173 1.367 . S
C172 C180 1.378 . S
C173 C172 1.367 . S
C173 C181 1.433 . S
C174 H170 0.929 . S
C174 C176 1.378 . S
C174 C178 1.350 . S
C175 C178 1.463 . S
C175 C180 1.350 . S
C175 N183 1.427 . S
C176 H167 0.930 1_565 S
C176 C174 1.378 . S
C176 C177 1.367 . S
C177 C176 1.367 . S
C177 C179 1.433 . S
C178 C174 1.350 . S
C178 C175 1.463 . S
C178 N182 1.427 . S
C179 H169 0.929 1_655 S
C179 C177 1.433 . S
C179 N182 1.384 . S
C180 H171 0.929 . S
C180 C172 1.378 . S
C180 C175 1.350 . S
C181 H168 0.929 . S
C181 C173 1.433 . S
C181 N183 1.384 . S
N182 C178 1.427 . S
N182 C179 1.384 . S
N183 C175 1.427 . S
N183 C181 1.384 . S
H184 C190 0.930 . S
H185 C194 0.930 . S
H186 C199 0.929 . S
H187 C197 0.929 1_455 S
H188 C192 0.929 . S
H189 C198 0.929 . S
C190 H184 0.930 . S
C190 C191 1.367 . S
C190 C198 1.378 . S
C191 C190 1.367 . S
C191 C199 1.433 . S
C192 H188 0.929 . S
C192 C194 1.378 . S
C192 C196 1.350 . S
C193 C196 1.463 . S
C193 C198 1.350 . S
C193 N201 1.427 . S
C194 H185 0.930 . S
C194 C192 1.378 . S
C194 C195 1.367 . S
C195 C194 1.367 . S
C195 C197 1.433 . S
C196 C192 1.350 . S
C196 C193 1.463 . S
C196 N200 1.427 . S
C197 H187 0.929 1_655 S
C197 C195 1.433 . S
C197 N200 1.384 . S
C198 H189 0.929 . S
C198 C190 1.378 . S
C198 C193 1.350 . S
C199 H186 0.929 . S
C199 C191 1.433 . S
C199 N201 1.384 . S
N200 C196 1.427 . S
N200 C197 1.384 . S
N201 C193 1.427 . S
N201 C199 1.384 . S
H202 C208 0.930 . S
H203 C212 0.930 . S
H204 C217 0.929 . S
H205 C215 0.929 . S
H206 C210 0.929 . S
H207 C216 0.929 . S
C208 H202 0.930 . S
C208 C209 1.367 . S
C208 C216 1.378 . S
C209 C208 1.367 . S
C209 C217 1.433 . S
C210 H206 0.929 . S
C210 C212 1.378 . S
C210 C214 1.350 . S
C211 C214 1.463 . S
C211 C216 1.350 . S
C211 N219 1.427 . S
C212 H203 0.930 . S
C212 C210 1.378 . S
C212 C213 1.367 . S
C213 C212 1.367 . S
C213 C215 1.433 . S
C214 C210 1.350 . S
C214 C211 1.463 . S
C214 N218 1.427 . S
C215 H205 0.929 . S
C215 C213 1.433 . S
C215 N218 1.384 . S
C216 H207 0.929 . S
C216 C208 1.378 . S
C216 C211 1.350 . S
C217 H204 0.929 . S
C217 C209 1.433 . S
C217 N219 1.384 . S
N218 C214 1.427 . S
N218 C215 1.384 . S
N219 C211 1.427 . S
N219 C217 1.384 . S
H220 C226 0.930 . S
H221 C230 0.930 . S
H222 C235 0.929 . S
H223 C233 0.929 . S
H224 C228 0.929 . S
H225 C234 0.929 . S
C226 H220 0.930 . S
C226 C227 1.367 . S
C226 C234 1.378 . S
C227 C226 1.367 . S
C227 C235 1.433 . S
C228 H224 0.929 . S
C228 C230 1.378 . S
C228 C232 1.350 . S
C229 C232 1.463 . S
C229 C234 1.350 . S
C229 N237 1.427 . S
C230 H221 0.930 . S
C230 C228 1.378 . S
C230 C231 1.367 . S
C231 C230 1.367 . S
C231 C233 1.433 . S
C232 C228 1.350 . S
C232 C229 1.463 . S
C232 N236 1.427 . S
C233 H223 0.929 . S
C233 C231 1.433 . S
C233 N236 1.384 . S
C234 H225 0.929 . S
C234 C226 1.378 . S
C234 C229 1.350 . S
C235 H222 0.929 . S
C235 C227 1.433 . S
C235 N237 1.384 . S
N236 C232 1.427 . S
N236 C233 1.384 . S
N237 C229 1.427 . S
N237 C235 1.384 . S
H238 C244 0.930 . S
H239 C248 0.930 1_655 S
H240 C253 0.929 1_655 S
H241 C251 0.929 . S
H242 C246 0.929 1_655 S
H243 C252 0.929 . S
C244 H238 0.930 . S
C244 C245 1.367 1_565 S
C244 C252 1.378 . S
C245 C244 1.367 1_545 S
C245 C253 1.433 . S
C246 H242 0.929 1_455 S
C246 C248 1.378 . S
C246 C250 1.350 1_545 S
C247 C250 1.462 . S
C247 C252 1.356 . S
C247 N255 1.422 1_565 S
C248 H239 0.930 1_455 S
C248 C246 1.378 . S
C248 C249 1.367 1_545 S
C249 C248 1.367 1_565 S
C249 C251 1.433 . S
C250 C246 1.350 1_565 S
C250 C247 1.462 . S
C250 N254 1.427 . S
C251 H241 0.929 . S
C251 C249 1.433 . S
C251 N254 1.384 . S
C252 H243 0.929 . S
C252 C244 1.378 . S
C252 C247 1.356 . S
C253 H240 0.929 1_455 S
C253 C245 1.433 . S
C253 N255 1.384 . S
N254 C250 1.427 . S
N254 C251 1.384 . S
N255 C247 1.422 1_545 S
N255 C253 1.384 . S
H256 C262 0.930 1_565 S
H257 C266 0.930 . S
H258 C271 0.929 . S
H259 C269 0.929 . S
H260 C264 0.929 . S
H261 C270 0.929 1_665 S
C262 H256 0.930 1_545 S
C262 C263 1.367 . S
C262 C270 1.378 . S
C263 C262 1.367 . S
C263 C271 1.433 . S
C264 H260 0.929 . S
C264 C266 1.378 . S
C264 C268 1.350 . S
C265 C268 1.463 . S
C265 C270 1.350 . S
C265 N273 1.427 . S
C266 H257 0.930 . S
C266 C264 1.378 . S
C266 C267 1.367 . S
C267 C266 1.367 . S
C267 C269 1.433 1_455 S
C268 C264 1.350 . S
C268 C265 1.463 . S
C268 N272 1.427 1_455 S
C269 H259 0.929 . S
C269 C267 1.433 1_655 S
C269 N272 1.384 . S
C270 H261 0.929 1_445 S
C270 C262 1.378 . S
C270 C265 1.350 . S
C271 H258 0.929 . S
C271 C263 1.433 . S
C271 N273 1.384 . S
N272 C268 1.427 1_655 S
N272 C269 1.384 . S
N273 C265 1.427 . S
N273 C271 1.384 . S
H274 C280 0.930 . S
H275 C284 0.930 . S
H276 C289 0.929 . S
H277 C287 0.929 . S
H278 C282 0.929 . S
H279 C288 0.929 . S
C280 H274 0.930 . S
C280 C281 1.367 . S
C280 C288 1.378 . S
C281 C280 1.367 . S
C281 C289 1.433 . S
C282 H278 0.929 . S
C282 C284 1.378 . S
C282 C286 1.350 . S
C283 C286 1.463 . S
C283 C288 1.350 . S
C283 N291 1.427 . S
C284 H275 0.930 . S
C284 C282 1.378 . S
C284 C285 1.367 . S
C285 C284 1.367 . S
C285 C287 1.433 . S
C286 C282 1.350 . S
C286 C283 1.463 . S
C286 N290 1.427 . S
C287 H277 0.929 . S
C287 C285 1.433 . S
C287 N290 1.384 . S
C288 H279 0.929 . S
C288 C280 1.378 . S
C288 C283 1.350 . S
C289 H276 0.929 . S
C289 C281 1.433 . S
C289 N291 1.384 . S
N290 C286 1.427 . S
N290 C287 1.384 . S
N291 C283 1.427 . S
N291 C289 1.384 . S
H292 C298 0.930 . S
H293 C302 0.930 . S
H294 C307 0.929 . S
H295 C305 0.929 . S
H296 C300 0.929 . S
H297 C306 0.929 . S
C298 H292 0.930 . S
C298 C299 1.367 . S
C298 C306 1.378 . S
C299 C298 1.367 . S
C299 C307 1.433 . S
C300 H296 0.929 . S
C300 C302 1.378 . S
C300 C304 1.350 . S
C301 C304 1.463 . S
C301 C306 1.350 . S
C301 N309 1.427 . S
C302 H293 0.930 . S
C302 C300 1.378 . S
C302 C303 1.367 . S
C303 C302 1.367 . S
C303 C305 1.433 . S
C304 C300 1.350 . S
C304 C301 1.463 . S
C304 N308 1.427 . S
C305 H295 0.929 . S
C305 C303 1.433 . S
C305 N308 1.384 . S
C306 H297 0.929 . S
C306 C298 1.378 . S
C306 C301 1.350 . S
C307 H294 0.929 . S
C307 C299 1.433 . S
C307 N309 1.384 . S
N308 C304 1.427 . S
N308 C305 1.384 . S
N309 C301 1.427 . S
N309 C307 1.384 . S
C105 N83 1.385 . S
C101 C15 1.196 . S
C119 C13 1.435 . S
C123 N70 1.420 . S
C137 C18 1.306 . S
C141 N82 1.538 . S
C155 C17 1.406 . S
C159 N69 1.481 . S
C173 C36 1.201 . S
C177 N57 1.382 1_565 S
C191 C34 1.430 . S
C195 N44 1.428 . S
C213 N56 1.536 . S
C209 C39 1.306 . S
C231 N43 1.481 . S
C227 C38 1.405 . S
C245 C14 1.551 . S
C249 N47 1.579 1_565 S
C263 C16 1.405 . S
C267 N60 1.450 . S
C285 N73 1.589 . S
C281 C35 1.551 . S
C299 C37 1.415 . S
C303 N86 1.438 . S
