# Generated by pormake.
# Topology cml, (3,6)-cn, num edge types: 1
# Building blocks:
#     Node 0, Type 0, BuildingBlock: BELTOD_clean_linker_0, # of connection points: 3
#     Node 1, Type 0, BuildingBlock: BELTOD_clean_linker_0, # of connection points: 3
#     Node 2, Type 0, BuildingBlock: BELTOD_clean_linker_0, # of connection points: 3
#     Node 3, Type 0, BuildingBlock: BELTOD_clean_linker_0, # of connection points: 3
#     Node 4, Type 0, BuildingBlock: BELTOD_clean_linker_0, # of connection points: 3
#     Node 5, Type 0, BuildingBlock: BELTOD_clean_linker_0, # of connection points: 3
#     Node 6, Type 0, BuildingBlock: BELTOD_clean_linker_0, # of connection points: 3
#     Node 7, Type 0, BuildingBlock: BELTOD_clean_linker_0, # of connection points: 3
#     Node 8, Type 1, BuildingBlock: IZENUY_clean_sbu_0, # of connection points: 6
#     Node 9, Type 1, BuildingBlock: IZENUY_clean_sbu_0, # of connection points: 6
#     Node 10, Type 1, BuildingBlock: IZENUY_clean_sbu_0, # of connection points: 6
#     Node 11, Type 1, BuildingBlock: IZENUY_clean_sbu_0, # of connection points: 6
#     Edge 12, Type (0, 1), BuildingBlock: ZUJKAS_clean_linker_0, # of connection points: 2
#     Edge 13, Type (0, 1), BuildingBlock: ZUJKAS_clean_linker_0, # of connection points: 2
#     Edge 14, Type (0, 1), BuildingBlock: ZUJKAS_clean_linker_0, # of connection points: 2
#     Edge 15, Type (0, 1), BuildingBlock: ZUJKAS_clean_linker_0, # of connection points: 2
#     Edge 16, Type (0, 1), BuildingBlock: ZUJKAS_clean_linker_0, # of connection points: 2
#     Edge 17, Type (0, 1), BuildingBlock: ZUJKAS_clean_linker_0, # of connection points: 2
#     Edge 18, Type (0, 1), BuildingBlock: ZUJKAS_clean_linker_0, # of connection points: 2
#     Edge 19, Type (0, 1), BuildingBlock: ZUJKAS_clean_linker_0, # of connection points: 2
#     Edge 20, Type (0, 1), BuildingBlock: ZUJKAS_clean_linker_0, # of connection points: 2
#     Edge 21, Type (0, 1), BuildingBlock: ZUJKAS_clean_linker_0, # of connection points: 2
#     Edge 22, Type (0, 1), BuildingBlock: ZUJKAS_clean_linker_0, # of connection points: 2
#     Edge 23, Type (0, 1), BuildingBlock: ZUJKAS_clean_linker_0, # of connection points: 2
#     Edge 24, Type (0, 1), BuildingBlock: ZUJKAS_clean_linker_0, # of connection points: 2
#     Edge 25, Type (0, 1), BuildingBlock: ZUJKAS_clean_linker_0, # of connection points: 2
#     Edge 26, Type (0, 1), BuildingBlock: ZUJKAS_clean_linker_0, # of connection points: 2
#     Edge 27, Type (0, 1), BuildingBlock: ZUJKAS_clean_linker_0, # of connection points: 2
#     Edge 28, Type (0, 1), BuildingBlock: ZUJKAS_clean_linker_0, # of connection points: 2
#     Edge 29, Type (0, 1), BuildingBlock: ZUJKAS_clean_linker_0, # of connection points: 2
#     Edge 30, Type (0, 1), BuildingBlock: ZUJKAS_clean_linker_0, # of connection points: 2
#     Edge 31, Type (0, 1), BuildingBlock: ZUJKAS_clean_linker_0, # of connection points: 2
#     Edge 32, Type (0, 1), BuildingBlock: ZUJKAS_clean_linker_0, # of connection points: 2
#     Edge 33, Type (0, 1), BuildingBlock: ZUJKAS_clean_linker_0, # of connection points: 2
#     Edge 34, Type (0, 1), BuildingBlock: ZUJKAS_clean_linker_0, # of connection points: 2
#     Edge 35, Type (0, 1), BuildingBlock: ZUJKAS_clean_linker_0, # of connection points: 2
# Relax obj value: 0.049
# Max RMSD: 0.063
# Mean RMSD: 0.061
data_MOF--net-cml--node1-IZENUY_clean_sbu_0--node2-BELTOD_clean_linker_0--edge1-ZUJKAS_clean_linker_0
_symmetry_space_group_name_H-M    P1
_symmetry_Int_Tables_number       1
_symmetry_cell_setting            triclinic
loop_
_symmetry_equiv_pos_as_xyz
'x, y, z'
_cell_length_a     50.833169
_cell_length_b     58.997163
_cell_length_c     54.380996
_cell_angle_alpha  89.614842
_cell_angle_beta   89.784136
_cell_angle_gamma 90.103494
loop_
_atom_site_label
_atom_site_type_symbol
_atom_site_fract_x
_atom_site_fract_y
_atom_site_fract_z
_atom_type_partial_charge
P0 P 0.32177 0.34809 0.98347 0.0
H1 H 0.30585 0.31349 0.01889 0.0
H2 H 0.30785 0.3115 0.06379 0.0
H3 H 0.33661 0.38051 0.0653 0.0
H4 H 0.33352 0.38263 0.02085 0.0
H5 H 0.31101 0.32335 0.93854 0.0
H6 H 0.27054 0.30877 0.92045 0.0
H7 H 0.22573 0.33748 0.98033 0.0
H8 H 0.26649 0.35166 0.99854 0.0
H9 H 0.37132 0.37233 0.98 0.0
H10 H 0.29004 0.38503 0.96205 0.0
O11 O 0.34588 0.33034 0.97572 0.0
H12 H 0.38297 0.41055 0.96609 0.0
H13 H 0.30168 0.42327 0.94783 0.0
C14 C 0.31959 0.34814 0.01649 0.0
C15 C 0.31206 0.32831 0.02899 0.0
C16 C 0.31337 0.32717 0.05464 0.0
C17 C 0.32257 0.34579 0.0682 0.0
C18 C 0.32908 0.36594 0.05556 0.0
C19 C 0.32757 0.36709 0.02997 0.0
C20 C 0.29172 0.33803 0.97015 0.0
C21 C 0.29247 0.32642 0.9478 0.0
C22 C 0.26929 0.31831 0.93736 0.0
C23 C 0.24492 0.32188 0.94903 0.0
C24 C 0.24423 0.33413 0.97113 0.0
C25 C 0.26748 0.34224 0.98155 0.0
C26 C 0.32994 0.37575 0.97168 0.0
C27 C 0.35604 0.38328 0.97283 0.0
C28 C 0.36262 0.40515 0.96509 0.0
C29 C 0.34319 0.41982 0.95594 0.0
C30 C 0.31703 0.4122 0.95465 0.0
C31 C 0.3104 0.39036 0.96273 0.0
P32 P 0.74887 0.58802 0.52254 0.0
H33 H 0.75991 0.54487 0.49853 0.0
H34 H 0.73406 0.52089 0.47122 0.0
H35 H 0.67127 0.57021 0.47234 0.0
H36 H 0.6976 0.59433 0.4992 0.0
H37 H 0.80357 0.59351 0.50729 0.0
H38 H 0.82658 0.62253 0.48344 0.0
H39 H 0.7538 0.65951 0.47509 0.0
H40 H 0.73088 0.63035 0.49947 0.0
H41 H 0.70422 0.56801 0.54833 0.0
H42 H 0.748 0.63063 0.55057 0.0
O43 O 0.77116 0.57159 0.53633 0.0
H44 H 0.6774 0.5804 0.58299 0.0
H45 H 0.72138 0.64308 0.58558 0.0
C46 C 0.73038 0.5711 0.50129 0.0
C47 C 0.74061 0.55053 0.49284 0.0
C48 C 0.72576 0.53681 0.47729 0.0
C49 C 0.70044 0.54348 0.46981 0.0
C50 C 0.69073 0.56459 0.4776 0.0
C51 C 0.70566 0.57833 0.49311 0.0
C52 C 0.76563 0.61001 0.50552 0.0
C53 C 0.79255 0.60792 0.5005 0.0
C54 C 0.80565 0.62444 0.48662 0.0
C55 C 0.79203 0.64334 0.4773 0.0
C56 C 0.76492 0.6453 0.48224 0.0
C57 C 0.75179 0.62866 0.49611 0.0
C58 C 0.7276 0.59865 0.54639 0.0
C59 C 0.70779 0.5846 0.55603 0.0
C60 C 0.69266 0.59161 0.57605 0.0
C61 C 0.69726 0.61273 0.58707 0.0
C62 C 0.71708 0.62686 0.57728 0.0
C63 C 0.7323 0.61977 0.55724 0.0
P64 P 0.7512 0.40838 0.02587 0.0
H65 H 0.76313 0.39931 0.07757 0.0
H66 H 0.73638 0.38602 0.11218 0.0
H67 H 0.6696 0.37906 0.06386 0.0
H68 H 0.69665 0.39208 0.02921 0.0
H69 H 0.78659 0.41044 0.98405 0.0
H70 H 0.80784 0.38146 0.95912 0.0
H71 H 0.76455 0.32952 0.99863 0.0
H72 H 0.74403 0.35864 0.02398 0.0
H73 H 0.74556 0.45734 0.03027 0.0
H74 H 0.7142 0.40429 0.98478 0.0
O75 O 0.77716 0.42179 0.03764 0.0
H76 H 0.71931 0.48531 0.00816 0.0
H77 H 0.68693 0.43205 0.96309 0.0
C78 C 0.73173 0.39712 0.05091 0.0
C79 C 0.74275 0.3949 0.07438 0.0
C80 C 0.7274 0.38736 0.0942 0.0
C81 C 0.70077 0.38171 0.09085 0.0
C82 C 0.69007 0.38317 0.06706 0.0
C83 C 0.70545 0.39079 0.04725 0.0
C84 C 0.76384 0.38672 0.00589 0.0
C85 C 0.78151 0.39281 0.98716 0.0
C86 C 0.79353 0.37618 0.97281 0.0
C87 C 0.78801 0.35306 0.97687 0.0
C88 C 0.76959 0.3471 0.99524 0.0
C89 C 0.75766 0.36379 0.00966 0.0
C90 C 0.73214 0.42882 0.00888 0.0
C91 C 0.73302 0.45172 0.01545 0.0
C92 C 0.71774 0.46769 0.00293 0.0
C93 C 0.7009 0.46101 0.98379 0.0
C94 C 0.69997 0.43791 0.97741 0.0
C95 C 0.71545 0.42197 0.98986 0.0
P96 P 0.31757 0.64429 0.48297 0.0
H97 H 0.34214 0.6247 0.4395 0.0
H98 H 0.3467 0.58587 0.42526 0.0
H99 H 0.29723 0.56263 0.48525 0.0
H100 H 0.29359 0.60165 0.49987 0.0
H101 H 0.30817 0.69155 0.47045 0.0
H102 H 0.26888 0.71237 0.45815 0.0
H103 H 0.22302 0.65081 0.46419 0.0
H104 H 0.2626 0.63 0.47622 0.0
H105 H 0.35077 0.61745 0.51517 0.0
H106 H 0.29262 0.67011 0.52303 0.0
O107 O 0.34371 0.65819 0.47186 0.0
H108 H 0.35862 0.61805 0.55937 0.0
H109 H 0.30022 0.67066 0.56741 0.0
C110 C 0.31796 0.61595 0.47097 0.0
C111 C 0.33215 0.61127 0.44951 0.0
C112 C 0.33452 0.58902 0.44125 0.0
C113 C 0.32244 0.57102 0.45418 0.0
C114 C 0.30716 0.57599 0.4751 0.0
C115 C 0.30494 0.59829 0.4834 0.0
C116 C 0.2884 0.65916 0.47368 0.0
C117 C 0.2897 0.6825 0.46896 0.0
C118 C 0.26717 0.69442 0.46217 0.0
C119 C 0.24285 0.68322 0.46014 0.0
C120 C 0.24155 0.65983 0.46525 0.0
C121 C 0.26415 0.64793 0.47214 0.0
C122 C 0.3208 0.64342 0.51587 0.0
C123 C 0.3393 0.62883 0.5265 0.0
C124 C 0.3437 0.62914 0.55179 0.0
C125 C 0.32988 0.64429 0.56692 0.0
C126 C 0.31121 0.65884 0.55621 0.0
C127 C 0.30674 0.65844 0.53085 0.0
P128 P 0.83127 0.84824 0.97645 0.0
H129 H 0.86352 0.81909 0.00777 0.0
H130 H 0.86789 0.81574 0.05228 0.0
H131 H 0.80608 0.86518 0.06181 0.0
H132 H 0.80221 0.86875 0.01707 0.0
H133 H 0.82199 0.8051 0.952 0.0
H134 H 0.78219 0.78691 0.93662 0.0
H135 H 0.73585 0.84333 0.96256 0.0
H136 H 0.77592 0.86159 0.97762 0.0
H137 H 0.85646 0.88715 0.9995 0.0
H138 H 0.80928 0.87428 0.9353 0.0
O139 O 0.85745 0.83625 0.9633 0.0
H140 H 0.8605 0.92686 0.98747 0.0
H141 H 0.8127 0.9142 0.92341 0.0
C142 C 0.83285 0.84443 0.0092 0.0
C143 C 0.85082 0.82913 0.01942 0.0
C144 C 0.85311 0.82708 0.0449 0.0
C145 C 0.83735 0.84024 0.0606 0.0
C146 C 0.8187 0.85502 0.05021 0.0
C147 C 0.8164 0.85701 0.02469 0.0
C148 C 0.80188 0.83485 0.96551 0.0
C149 C 0.80328 0.81359 0.95429 0.0
C150 C 0.78049 0.80314 0.94568 0.0
C151 C 0.7559 0.81374 0.94829 0.0
C152 C 0.75456 0.83491 0.95997 0.0
C153 C 0.77739 0.84531 0.96866 0.0
C154 C 0.83194 0.8779 0.96868 0.0
C155 C 0.84641 0.89299 0.98313 0.0
C156 C 0.84863 0.91574 0.97626 0.0
C157 C 0.83669 0.92377 0.9546 0.0
C158 C 0.82216 0.90855 0.94017 0.0
C159 C 0.82 0.88576 0.94707 0.0
P160 P 0.24843 0.08885 0.5235 0.0
H161 H 0.25371 0.07208 0.47335 0.0
H162 H 0.2258 0.04791 0.44795 0.0
H163 H 0.16695 0.04697 0.50554 0.0
H164 H 0.19521 0.0703 0.531 0.0
H165 H 0.29979 0.10976 0.52929 0.0
H166 H 0.32265 0.14013 0.50725 0.0
H167 H 0.25457 0.14977 0.46099 0.0
H168 H 0.23187 0.11904 0.4831 0.0
H169 H 0.25424 0.08022 0.57629 0.0
H170 H 0.2052 0.1211 0.52916 0.0
O171 O 0.27152 0.07062 0.53267 0.0
H172 H 0.22938 0.09269 0.6121 0.0
H173 H 0.17954 0.1332 0.56494 0.0
C174 C 0.22636 0.07343 0.50385 0.0
C175 C 0.23462 0.0669 0.48032 0.0
C176 C 0.21861 0.05312 0.4658 0.0
C177 C 0.19411 0.04544 0.47469 0.0
C178 C 0.18582 0.0523 0.49821 0.0
C179 C 0.20189 0.06596 0.51272 0.0
C180 C 0.26442 0.11183 0.50744 0.0
C181 C 0.2898 0.11838 0.51438 0.0
C182 C 0.30276 0.13589 0.50187 0.0
C183 C 0.29047 0.14734 0.48228 0.0
C184 C 0.26471 0.14106 0.47575 0.0
C185 C 0.25171 0.12354 0.48838 0.0
C186 C 0.23148 0.09969 0.55007 0.0
C187 C 0.23814 0.09197 0.57364 0.0
C188 C 0.22374 0.09899 0.59413 0.0
C189 C 0.20224 0.11378 0.59144 0.0
C190 C 0.1961 0.12198 0.56776 0.0
C191 C 0.21067 0.11503 0.54727 0.0
P192 P 0.24834 0.90717 0.02515 0.0
H193 H 0.261 0.89625 0.07629 0.0
H194 H 0.23472 0.88165 0.11053 0.0
H195 H 0.16828 0.8738 0.06187 0.0
H196 H 0.19462 0.88914 0.02785 0.0
H197 H 0.29425 0.90924 0.99323 0.0
H198 H 0.31727 0.88098 0.96867 0.0
H199 H 0.25875 0.83099 0.98912 0.0
H200 H 0.23606 0.85935 0.01401 0.0
H201 H 0.21437 0.94357 0.04126 0.0
H202 H 0.23699 0.91371 0.9722 0.0
O203 O 0.2722 0.92266 0.03774 0.0
H204 H 0.18729 0.97125 0.01947 0.0
H205 H 0.21045 0.94172 0.95017 0.0
C206 C 0.22959 0.89417 0.04967 0.0
C207 C 0.24081 0.89132 0.07298 0.0
C208 C 0.22577 0.88277 0.09253 0.0
C209 C 0.19926 0.87668 0.08907 0.0
C210 C 0.18845 0.87873 0.06534 0.0
C211 C 0.20351 0.88739 0.04583 0.0
C212 C 0.26373 0.88631 0.00578 0.0
C213 C 0.28635 0.8922 0.99238 0.0
C214 C 0.29938 0.87605 0.97818 0.0
C215 C 0.28995 0.85364 0.977 0.0
C216 C 0.26678 0.84798 0.98994 0.0
C217 C 0.25371 0.86422 0.00412 0.0
C218 C 0.22754 0.9265 0.0084 0.0
C219 C 0.21345 0.94296 0.02137 0.0
C220 C 0.19816 0.95891 0.00886 0.0
C221 C 0.19678 0.95883 0.98303 0.0
C222 C 0.21084 0.94214 0.97007 0.0
C223 C 0.22614 0.92614 0.98266 0.0
P224 P 0.82307 0.14962 0.47864 0.0
H225 H 0.84361 0.13266 0.43222 0.0
H226 H 0.84973 0.09443 0.41625 0.0
H227 H 0.81156 0.06672 0.48098 0.0
H228 H 0.80486 0.10513 0.49648 0.0
H229 H 0.81193 0.19688 0.46755 0.0
H230 H 0.77205 0.21678 0.45516 0.0
H231 H 0.72871 0.15373 0.45847 0.0
H232 H 0.76895 0.13384 0.4706 0.0
H233 H 0.85826 0.12431 0.51039 0.0
H234 H 0.79552 0.17277 0.51923 0.0
O235 O 0.8488 0.16435 0.46796 0.0
H236 H 0.86513 0.12383 0.55476 0.0
H237 H 0.80227 0.17231 0.56376 0.0
C238 C 0.82451 0.12162 0.46582 0.0
C239 C 0.83638 0.11836 0.44287 0.0
C240 C 0.83994 0.09649 0.43382 0.0
C241 C 0.83159 0.0775 0.44757 0.0
C242 C 0.81822 0.08096 0.46993 0.0
C243 C 0.81459 0.10289 0.47892 0.0
C244 C 0.79347 0.16385 0.46943 0.0
C245 C 0.79389 0.18731 0.46546 0.0
C246 C 0.77101 0.1987 0.45861 0.0
C247 C 0.74723 0.18681 0.45578 0.0
C248 C 0.74682 0.16328 0.46017 0.0
C249 C 0.76977 0.15191 0.46711 0.0
C250 C 0.82611 0.14824 0.51155 0.0
C251 C 0.84567 0.13456 0.52194 0.0
C252 C 0.8495 0.13424 0.54731 0.0
C253 C 0.83407 0.14789 0.56277 0.0
C254 C 0.81446 0.16164 0.55229 0.0
C255 C 0.81052 0.16181 0.52684 0.0
Fe256 Fe 0.99385 0.81972 0.32442 0.0
Fe257 Fe 0.99111 0.84772 0.37178 0.0
O258 O 0.99189 0.84636 0.33923 0.0
Fe259 Fe 0.99071 0.8717 0.32157 0.0
O260 O 0.96078 0.86286 0.30635 0.0
O261 O 0.97411 0.82834 0.29783 0.0
O262 O 0.96344 0.81007 0.33867 0.0
C263 C 0.95922 0.80947 0.36153 0.0
C264 C 0.02737 0.8447 0.29541 0.0
O265 O 0.9734 0.82083 0.37606 0.0
C266 C 0.02371 0.88488 0.35836 0.0
O267 O 0.01399 0.80633 0.34844 0.0
O268 O 0.0228 0.83394 0.37408 0.0
O269 O 0.01131 0.86104 0.29646 0.0
O270 O 0.02439 0.82741 0.30895 0.0
C271 C 0.95473 0.88006 0.3605 0.0
O272 O 0.00873 0.87483 0.37358 0.0
O273 O 0.02063 0.88236 0.33554 0.0
C274 C 0.02824 0.81488 0.36505 0.0
O275 O 0.95933 0.86169 0.37165 0.0
O276 O 0.96986 0.88698 0.34346 0.0
C277 C 0.95818 0.84458 0.2947 0.0
Fe278 Fe 0.99377 0.15721 0.87223 0.0
Fe279 Fe 0.99306 0.12908 0.82505 0.0
O280 O 0.99332 0.15579 0.83969 0.0
Fe281 Fe 0.99316 0.181 0.82173 0.0
O282 O 0.02402 0.19024 0.83476 0.0
O283 O 0.01359 0.18323 0.87334 0.0
O284 O 0.02441 0.14148 0.87397 0.0
C285 C 0.02771 0.12196 0.86516 0.0
C286 C 0.95921 0.19143 0.86177 0.0
O287 O 0.01235 0.11449 0.84883 0.0
C288 C 0.95848 0.15535 0.79572 0.0
O289 O 0.97391 0.13148 0.87694 0.0
O290 O 0.9623 0.12135 0.8397 0.0
O291 O 0.97384 0.19756 0.84399 0.0
O292 O 0.96324 0.17296 0.87291 0.0
C293 C 0.02757 0.15191 0.79533 0.0
O294 O 0.9737 0.13859 0.79857 0.0
O295 O 0.96225 0.17347 0.80735 0.0
C296 C 0.95855 0.121 0.86263 0.0
O297 O 0.02382 0.13513 0.80941 0.0
O298 O 0.01253 0.16903 0.79622 0.0
C299 C 0.02839 0.19251 0.8574 0.0
Fe300 Fe 0.49291 0.32095 0.32446 0.0
Fe301 Fe 0.49148 0.34789 0.37257 0.0
O302 O 0.49071 0.34721 0.34001 0.0
Fe303 Fe 0.48777 0.37279 0.32303 0.0
O304 O 0.45742 0.3634 0.30893 0.0
O305 O 0.47181 0.32962 0.29879 0.0
O306 O 0.46342 0.31033 0.33958 0.0
C307 C 0.46023 0.30921 0.36257 0.0
C308 C 0.52425 0.34735 0.29488 0.0
O309 O 0.47481 0.3205 0.37683 0.0
C310 C 0.52217 0.38607 0.35867 0.0
O311 O 0.51443 0.30753 0.34737 0.0
O312 O 0.52369 0.33487 0.37319 0.0
O313 O 0.50755 0.36314 0.29683 0.0
O314 O 0.52253 0.32977 0.30815 0.0
C315 C 0.45341 0.37939 0.36357 0.0
O316 O 0.50829 0.3754 0.3743 0.0
O317 O 0.51797 0.38395 0.33596 0.0
C318 C 0.52921 0.31608 0.36358 0.0
O319 O 0.45932 0.36103 0.37418 0.0
O320 O 0.4674 0.3871 0.34609 0.0
C321 C 0.45503 0.34537 0.29681 0.0
Fe322 Fe 0.49675 0.65803 0.87265 0.0
Fe323 Fe 0.49672 0.63011 0.82529 0.0
O324 O 0.49651 0.65672 0.84009 0.0
Fe325 Fe 0.49607 0.68204 0.82231 0.0
O326 O 0.52688 0.69133 0.83541 0.0
O327 O 0.5161 0.68431 0.8739 0.0
O328 O 0.52764 0.64273 0.87448 0.0
C329 C 0.53152 0.62339 0.86542 0.0
C330 C 0.46184 0.69193 0.86228 0.0
O331 O 0.51651 0.61575 0.84888 0.0
C332 C 0.46155 0.65619 0.79631 0.0
O333 O 0.47754 0.63193 0.87723 0.0
O334 O 0.46615 0.62178 0.83998 0.0
O335 O 0.47667 0.69832 0.84474 0.0
O336 O 0.46588 0.67334 0.87319 0.0
C337 C 0.53071 0.6535 0.79553 0.0
O338 O 0.47699 0.63954 0.799 0.0
O339 O 0.46521 0.67435 0.80792 0.0
C340 C 0.46261 0.62103 0.86292 0.0
O341 O 0.5273 0.63666 0.80957 0.0
O342 O 0.51545 0.67045 0.7966 0.0
C343 C 0.53114 0.6935 0.85809 0.0
H344 H 0.23007 0.32065 0.90069 0.0
H345 H 0.19151 0.30175 0.88335 0.0
H346 H 0.16631 0.28204 0.95623 0.0
H347 H 0.20486 0.30065 0.9737 0.0
H348 H 0.18006 0.25545 0.88869 0.0
H349 H 0.09921 0.30846 0.92562 0.0
H350 H 0.13302 0.31792 0.9247 0.0
H351 H 0.12203 0.29884 0.94853 0.0
C352 C 0.21625 0.31236 0.91303 0.0
C353 C 0.22052 0.31212 0.93857 0.0
C354 C 0.1942 0.3017 0.9031 0.0
C355 C 0.17595 0.29077 0.91854 0.0
C356 C 0.17988 0.29083 0.94406 0.0
H357 H 0.04348 0.20155 0.90453 0.0
H358 H 0.07935 0.22608 0.91792 0.0
C359 C 0.20192 0.30147 0.954 0.0
C360 C 0.15383 0.27786 0.90793 0.0
H361 H 0.08697 0.27278 0.90866 0.0
C362 C 0.15968 0.25936 0.8928 0.0
C363 C 0.12733 0.28303 0.91343 0.0
C364 C 0.11993 0.30327 0.92878 0.0
C365 C 0.1397 0.24536 0.88367 0.0
C366 C 0.11321 0.2503 0.88951 0.0
C367 C 0.10733 0.26905 0.90428 0.0
C368 C 0.09135 0.23576 0.88111 0.0
C369 C 0.14717 0.22495 0.86858 0.0
C370 C 0.08611 0.23329 0.85597 0.0
C371 C 0.06567 0.21922 0.84821 0.0
C372 C 0.05 0.20751 0.86551 0.0
C373 C 0.05516 0.21028 0.89071 0.0
C374 C 0.07561 0.22433 0.89842 0.0
H375 H 0.16834 0.22066 0.87053 0.0
H376 H 0.13525 0.20994 0.87404 0.0
H377 H 0.14333 0.22861 0.84888 0.0
H378 H 0.09778 0.2423 0.84236 0.0
H379 H 0.06216 0.21755 0.82868 0.0
H380 H 0.82922 0.63694 0.44153 0.0
H381 H 0.85526 0.66579 0.41996 0.0
H382 H 0.81318 0.71835 0.45818 0.0
H383 H 0.78712 0.68956 0.48004 0.0
H384 H 0.82158 0.72698 0.40656 0.0
H385 H 0.91324 0.70244 0.45523 0.0
H386 H 0.89668 0.67959 0.43999 0.0
H387 H 0.88105 0.69341 0.46549 0.0
C388 C 0.82553 0.65464 0.44541 0.0
C389 C 0.80631 0.66094 0.46274 0.0
C390 C 0.84039 0.67109 0.43303 0.0
C391 C 0.83642 0.69417 0.43778 0.0
C392 C 0.81658 0.7006 0.45431 0.0
H393 H 0.94568 0.80355 0.40979 0.0
H394 H 0.91449 0.77637 0.42728 0.0
C395 C 0.80166 0.68413 0.46672 0.0
C396 C 0.85365 0.71151 0.42617 0.0
H397 H 0.91743 0.72955 0.42323 0.0
C398 C 0.84254 0.7276 0.41017 0.0
C399 C 0.88092 0.71239 0.43118 0.0
C400 C 0.89373 0.69619 0.44907 0.0
C401 C 0.8581 0.74441 0.3988 0.0
C402 C 0.88546 0.74495 0.4034 0.0
C403 C 0.89648 0.72899 0.41959 0.0
C404 C 0.90307 0.7623 0.39227 0.0
C405 C 0.84508 0.76171 0.38234 0.0
C406 C 0.90698 0.76346 0.36672 0.0
C407 C 0.92487 0.77904 0.35659 0.0
C408 C 0.9393 0.79362 0.37188 0.0
C409 C 0.93502 0.79256 0.39744 0.0
C410 C 0.91717 0.77702 0.40751 0.0
H411 H 0.82344 0.76221 0.38523 0.0
H412 H 0.85325 0.7789 0.38558 0.0
H413 H 0.84887 0.75728 0.36285 0.0
H414 H 0.89663 0.75198 0.35465 0.0
H415 H 0.9277 0.77937 0.33684 0.0
H416 H 0.80686 0.31233 0.99384 0.0
H417 H 0.83293 0.28442 0.97142 0.0
H418 H 0.82875 0.3258 0.90596 0.0
H419 H 0.80205 0.35361 0.928 0.0
H420 H 0.82082 0.26079 0.92449 0.0
H421 H 0.9094 0.31634 0.92039 0.0
H422 H 0.88289 0.32095 0.94198 0.0
H423 H 0.87888 0.32856 0.91022 0.0
C424 C 0.81102 0.31536 0.97456 0.0
C425 C 0.8024 0.33533 0.96279 0.0
C426 C 0.82607 0.29943 0.96182 0.0
C427 C 0.83301 0.30321 0.93715 0.0
C428 C 0.82391 0.32276 0.92511 0.0
H429 H 0.94288 0.2317 0.84158 0.0
H430 H 0.91054 0.25821 0.85825 0.0
C431 C 0.80873 0.33866 0.93779 0.0
C432 C 0.85035 0.28696 0.92425 0.0
H433 H 0.91241 0.28086 0.90107 0.0
C434 C 0.84084 0.26514 0.91929 0.0
C435 C 0.87637 0.29278 0.91743 0.0
C436 C 0.8877 0.31586 0.92286 0.0
C437 C 0.85667 0.24894 0.90755 0.0
C438 C 0.88295 0.25458 0.90121 0.0
C439 C 0.89229 0.27654 0.90591 0.0
C440 C 0.9014 0.23782 0.8904 0.0
C441 C 0.84494 0.2261 0.90172 0.0
C442 C 0.90711 0.21755 0.90294 0.0
C443 C 0.92545 0.20229 0.89339 0.0
C444 C 0.93881 0.20713 0.87124 0.0
C445 C 0.933 0.22743 0.85868 0.0
C446 C 0.91451 0.24262 0.86818 0.0
H447 H 0.82316 0.22696 0.90046 0.0
H448 H 0.85281 0.2194 0.88414 0.0
H449 H 0.8499 0.21395 0.91666 0.0
H450 H 0.8978 0.21372 0.92042 0.0
H451 H 0.92953 0.18691 0.90367 0.0
H452 H 0.22695 0.72514 0.47524 0.0
H453 H 0.18925 0.74702 0.46052 0.0
H454 H 0.16762 0.69212 0.41265 0.0
H455 H 0.20531 0.67014 0.42723 0.0
H456 H 0.18018 0.76062 0.41228 0.0
H457 H 0.09824 0.70692 0.44727 0.0
H458 H 0.13156 0.7041 0.45826 0.0
H459 H 0.12221 0.6919 0.42937 0.0
C460 C 0.21412 0.71771 0.46161 0.0
C461 C 0.2191 0.69592 0.45237 0.0
C462 C 0.19256 0.73018 0.45332 0.0
C463 C 0.1755 0.72108 0.43573 0.0
C464 C 0.18022 0.69925 0.42663 0.0
H465 H 0.04378 0.77222 0.35212 0.0
H466 H 0.07982 0.74998 0.36945 0.0
C467 C 0.20177 0.68673 0.43496 0.0
C468 C 0.15363 0.73494 0.42593 0.0
H469 H 0.08692 0.73641 0.41923 0.0
C470 C 0.15977 0.75543 0.41393 0.0
C471 C 0.12706 0.72804 0.42807 0.0
C472 C 0.11927 0.70664 0.44163 0.0
C473 C 0.14004 0.76903 0.40358 0.0
C474 C 0.1135 0.76208 0.40564 0.0
C475 C 0.10733 0.74164 0.41769 0.0
C476 C 0.09181 0.77574 0.39522 0.0
C477 C 0.14782 0.79043 0.39002 0.0
C478 C 0.08655 0.79753 0.40414 0.0
C479 C 0.06598 0.81032 0.39428 0.0
C480 C 0.05022 0.80148 0.3754 0.0
C481 C 0.05553 0.77957 0.36662 0.0
C482 C 0.07608 0.7668 0.37651 0.0
H483 H 0.16905 0.79054 0.38508 0.0
H484 H 0.13611 0.79252 0.37296 0.0
H485 H 0.14395 0.80525 0.40195 0.0
H486 H 0.09823 0.80456 0.41886 0.0
H487 H 0.06239 0.8271 0.40153 0.0
H488 H 0.74159 0.76923 0.95228 0.0
H489 H 0.7026 0.75094 0.93518 0.0
H490 H 0.6768 0.81511 0.90555 0.0
H491 H 0.71582 0.83357 0.9226 0.0
H492 H 0.63693 0.79087 0.92902 0.0
H493 H 0.69058 0.73699 0.86249 0.0
H494 H 0.70208 0.73389 0.8935 0.0
H495 H 0.70583 0.76065 0.87782 0.0
C496 C 0.72772 0.77941 0.94196 0.0
C497 C 0.73184 0.8028 0.93863 0.0
C498 C 0.70549 0.76894 0.93218 0.0
C499 C 0.68712 0.78161 0.91873 0.0
C500 C 0.69086 0.80504 0.91578 0.0
H501 H 0.56517 0.71862 0.82974 0.0
H502 H 0.60198 0.7419 0.84371 0.0
C503 C 0.71306 0.81555 0.92562 0.0
C504 C 0.66381 0.77041 0.90804 0.0
H505 H 0.64538 0.72797 0.86941 0.0
C506 C 0.63872 0.77724 0.91584 0.0
C507 C 0.66624 0.75291 0.89054 0.0
C508 C 0.69262 0.7458 0.88038 0.0
C509 C 0.61597 0.76646 0.90721 0.0
C510 C 0.61849 0.74817 0.89069 0.0
C511 C 0.64354 0.74186 0.88227 0.0
C512 C 0.59549 0.73492 0.88237 0.0
C513 C 0.58946 0.77484 0.91575 0.0
C514 C 0.57982 0.72317 0.89949 0.0
C515 C 0.55874 0.70992 0.89161 0.0
C516 C 0.55308 0.70802 0.86641 0.0
C517 C 0.56892 0.71977 0.84928 0.0
C518 C 0.58996 0.73308 0.85721 0.0
H519 H 0.59051 0.79265 0.9222 0.0
H520 H 0.57467 0.77378 0.90082 0.0
H521 H 0.58257 0.76416 0.93137 0.0
H522 H 0.58416 0.72392 0.91896 0.0
H523 H 0.5471 0.70095 0.90528 0.0
H524 H 0.32157 0.18091 0.50099 0.0
H525 H 0.34799 0.2087 0.47826 0.0
H526 H 0.31865 0.18246 0.4098 0.0
H527 H 0.29222 0.15446 0.43242 0.0
H528 H 0.38738 0.19819 0.44403 0.0
H529 H 0.30932 0.25134 0.40161 0.0
H530 H 0.30289 0.23234 0.42713 0.0
H531 H 0.30637 0.22136 0.39657 0.0
C532 C 0.32066 0.18107 0.48109 0.0
C533 C 0.30485 0.16541 0.46851 0.0
C534 C 0.33568 0.19704 0.46814 0.0
C535 C 0.33511 0.19778 0.44236 0.0
C536 C 0.31899 0.18248 0.42971 0.0
H537 H 0.42707 0.28012 0.3383 0.0
H538 H 0.39645 0.25253 0.35657 0.0
C539 C 0.30391 0.16648 0.44267 0.0
C540 C 0.35267 0.21368 0.42885 0.0
H541 H 0.35329 0.25936 0.38987 0.0
C542 C 0.37992 0.21157 0.4322 0.0
C543 C 0.34289 0.23098 0.41325 0.0
C544 C 0.31377 0.23435 0.4095 0.0
C545 C 0.39768 0.22636 0.42049 0.0
C546 C 0.3879 0.24399 0.40535 0.0
C547 C 0.36069 0.24584 0.40154 0.0
C548 C 0.40567 0.26116 0.39416 0.0
C549 C 0.42679 0.22287 0.42429 0.0
C550 C 0.42055 0.27543 0.40926 0.0
C551 C 0.43803 0.29113 0.39894 0.0
C552 C 0.44093 0.29298 0.37326 0.0
C553 C 0.42547 0.27904 0.35814 0.0
C554 C 0.40793 0.2633 0.36853 0.0
H555 H 0.43122 0.20536 0.43065 0.0
H556 H 0.43797 0.22628 0.40707 0.0
H557 H 0.43386 0.23478 0.43854 0.0
H558 H 0.41871 0.27435 0.42908 0.0
H559 H 0.44939 0.30171 0.41117 0.0
H560 H 0.29976 0.80959 0.99043 0.0
H561 H 0.32669 0.78174 0.96872 0.0
H562 H 0.34102 0.83022 0.91051 0.0
H563 H 0.31395 0.85812 0.93196 0.0
H564 H 0.32252 0.7635 0.9206 0.0
H565 H 0.41533 0.81195 0.93285 0.0
H566 H 0.38576 0.81814 0.94999 0.0
H567 H 0.38911 0.82759 0.91865 0.0
C568 C 0.30832 0.81425 0.97284 0.0
C569 C 0.30484 0.83618 0.96304 0.0
C570 C 0.32382 0.79834 0.96052 0.0
C571 C 0.33622 0.80404 0.93822 0.0
C572 C 0.33209 0.82563 0.92797 0.0
H573 H 0.44862 0.73402 0.84471 0.0
H574 H 0.41669 0.76056 0.86192 0.0
C575 C 0.31663 0.84156 0.94027 0.0
C576 C 0.35384 0.78754 0.92594 0.0
H577 H 0.41761 0.77912 0.9083 0.0
C578 C 0.34332 0.76687 0.91791 0.0
C579 C 0.38097 0.792 0.92247 0.0
C580 C 0.39359 0.81352 0.93161 0.0
C581 C 0.35915 0.75064 0.90619 0.0
C582 C 0.38631 0.75506 0.90285 0.0
C583 C 0.39678 0.77579 0.91079 0.0
C584 C 0.40443 0.7383 0.89161 0.0
C585 C 0.34656 0.72911 0.89712 0.0
C586 C 0.40818 0.71696 0.90259 0.0
C587 C 0.4264 0.70171 0.89278 0.0
C588 C 0.44145 0.70758 0.87189 0.0
C589 C 0.43742 0.72891 0.8608 0.0
C590 C 0.41918 0.74413 0.87062 0.0
H591 H 0.32497 0.73107 0.89479 0.0
H592 H 0.35526 0.72381 0.8793 0.0
H593 H 0.34991 0.71535 0.91076 0.0
H594 H 0.39746 0.71227 0.9191 0.0
H595 H 0.42902 0.68548 0.90187 0.0
H596 H 0.72933 0.22785 0.47173 0.0
H597 H 0.69123 0.24904 0.45678 0.0
H598 H 0.67277 0.19472 0.40702 0.0
H599 H 0.71092 0.17344 0.4218 0.0
H600 H 0.68296 0.2633 0.40831 0.0
H601 H 0.60208 0.2071 0.44089 0.0
H602 H 0.63521 0.20502 0.45255 0.0
H603 H 0.62708 0.1931 0.42321 0.0
C604 C 0.71713 0.2204 0.45764 0.0
C605 C 0.72315 0.19899 0.44791 0.0
C606 C 0.69533 0.23248 0.4492 0.0
C607 C 0.67906 0.22334 0.431 0.0
C608 C 0.68478 0.20186 0.42145 0.0
H609 H 0.54554 0.2741 0.34895 0.0
H610 H 0.58235 0.25201 0.36504 0.0
C611 C 0.70658 0.18973 0.42991 0.0
C612 C 0.65696 0.23685 0.42111 0.0
H613 H 0.59029 0.2372 0.41394 0.0
C614 C 0.66267 0.25768 0.40964 0.0
C615 C 0.63057 0.22937 0.4228 0.0
C616 C 0.62324 0.20752 0.43571 0.0
C617 C 0.64269 0.27112 0.39949 0.0
C618 C 0.6163 0.26367 0.40123 0.0
C619 C 0.61058 0.24282 0.41264 0.0
C620 C 0.59431 0.27731 0.39136 0.0
C621 C 0.65005 0.29294 0.38653 0.0
C622 C 0.58879 0.2988 0.40096 0.0
C623 C 0.56779 0.31151 0.3918 0.0
C624 C 0.55182 0.30287 0.37297 0.0
C625 C 0.55743 0.28129 0.36344 0.0
C626 C 0.57843 0.26861 0.37262 0.0
H627 H 0.67123 0.29336 0.3814 0.0
H628 H 0.63813 0.2954 0.36965 0.0
H629 H 0.64617 0.3074 0.39897 0.0
H630 H 0.60056 0.30564 0.41573 0.0
H631 H 0.56399 0.32803 0.39962 0.0
H632 H 0.32989 0.44107 0.91297 0.0
H633 H 0.34565 0.47799 0.8979 0.0
H634 H 0.38798 0.4877 0.96564 0.0
H635 H 0.37275 0.4507 0.98053 0.0
H636 H 0.34224 0.52215 0.91517 0.0
H637 H 0.44573 0.49246 0.91409 0.0
H638 H 0.41829 0.47336 0.91819 0.0
H639 H 0.43033 0.48962 0.94369 0.0
C640 C 0.34233 0.45123 0.9247 0.0
C641 C 0.35046 0.44296 0.94774 0.0
C642 C 0.35132 0.47226 0.91609 0.0
C643 C 0.36843 0.48531 0.93045 0.0
C644 C 0.37535 0.47761 0.95402 0.0
H645 H 0.45586 0.60931 0.91123 0.0
H646 H 0.42967 0.57796 0.92777 0.0
C647 C 0.36663 0.45653 0.9625 0.0
C648 C 0.38006 0.50646 0.92044 0.0
H649 H 0.4389 0.53175 0.90721 0.0
C650 C 0.36335 0.52425 0.91331 0.0
C651 C 0.40763 0.50903 0.91783 0.0
C652 C 0.42654 0.49003 0.92361 0.0
C653 C 0.3736 0.5448 0.9042 0.0
C654 C 0.40113 0.54746 0.9022 0.0
C655 C 0.41778 0.52964 0.90908 0.0
C656 C 0.41339 0.56844 0.89265 0.0
C657 C 0.35511 0.56368 0.89711 0.0
C658 C 0.41247 0.57361 0.86747 0.0
C659 C 0.42758 0.59142 0.85787 0.0
C660 C 0.44387 0.60429 0.87334 0.0
C661 C 0.44363 0.59972 0.89877 0.0
C662 C 0.42866 0.58184 0.90829 0.0
H663 H 0.33459 0.5602 0.90316 0.0
H664 H 0.36174 0.57993 0.90523 0.0
H665 H 0.35526 0.56578 0.87681 0.0
H666 H 0.401 0.56323 0.85511 0.0
H667 H 0.42721 0.59456 0.83822 0.0
H668 H 0.66792 0.5545 0.43131 0.0
H669 H 0.63881 0.52913 0.40847 0.0
H670 H 0.66632 0.47235 0.45149 0.0
H671 H 0.69518 0.49752 0.47457 0.0
H672 H 0.66276 0.46382 0.4 0.0
H673 H 0.57117 0.50119 0.43858 0.0
H674 H 0.59352 0.5208 0.42402 0.0
H675 H 0.60316 0.50636 0.45171 0.0
C676 C 0.66771 0.53663 0.43597 0.0
C677 C 0.68382 0.52807 0.45486 0.0
C678 C 0.65111 0.52216 0.42286 0.0
C679 C 0.65023 0.49892 0.42849 0.0
C680 C 0.66675 0.49024 0.44685 0.0
H681 H 0.53378 0.39673 0.40618 0.0
H682 H 0.56546 0.42453 0.42089 0.0
C683 C 0.68332 0.50466 0.45995 0.0
C684 C 0.63157 0.48363 0.41586 0.0
H685 H 0.56616 0.47168 0.41002 0.0
C686 C 0.64162 0.4656 0.40199 0.0
C687 C 0.60405 0.48592 0.41876 0.0
C688 C 0.59221 0.50448 0.43421 0.0
C689 C 0.62484 0.44962 0.39112 0.0
C690 C 0.59732 0.45191 0.39407 0.0
C691 C 0.58728 0.47009 0.40768 0.0
C692 C 0.57861 0.4348 0.38462 0.0
C693 C 0.63664 0.42999 0.37732 0.0
C694 C 0.57546 0.43138 0.35928 0.0
C695 C 0.55728 0.41544 0.35073 0.0
C696 C 0.54188 0.40271 0.36742 0.0
C697 C 0.54524 0.4062 0.39278 0.0
C698 C 0.56333 0.42212 0.40126 0.0
H699 H 0.65812 0.42839 0.38059 0.0
H700 H 0.6269 0.41384 0.38275 0.0
H701 H 0.63352 0.43255 0.35731 0.0
H702 H 0.58684 0.44122 0.34614 0.0
H703 H 0.55518 0.4132 0.33109 0.0
H704 H 0.67545 0.49776 0.0034 0.0
H705 H 0.64874 0.526 0.98193 0.0
H706 H 0.66105 0.49104 0.91356 0.0
H707 H 0.68859 0.46305 0.93464 0.0
H708 H 0.66566 0.55349 0.93613 0.0
H709 H 0.57784 0.49795 0.92501 0.0
H710 H 0.60212 0.49298 0.94862 0.0
H711 H 0.60952 0.48635 0.91722 0.0
C712 C 0.67283 0.49617 0.98374 0.0
C713 C 0.68428 0.47807 0.97078 0.0
C714 C 0.65742 0.51228 0.97155 0.0
C715 C 0.65288 0.5105 0.94624 0.0
C716 C 0.66419 0.49255 0.93318 0.0
H717 H 0.55017 0.58373 0.84664 0.0
H718 H 0.5813 0.5574 0.86545 0.0
C719 C 0.67978 0.4765 0.9453 0.0
C720 C 0.63619 0.52742 0.93354 0.0
H721 H 0.57575 0.53451 0.90758 0.0
C722 C 0.64599 0.54942 0.92985 0.0
C723 C 0.61066 0.52192 0.92533 0.0
C724 C 0.59918 0.49858 0.92928 0.0
C725 C 0.63096 0.5661 0.91783 0.0
C726 C 0.60518 0.56074 0.90994 0.0
C727 C 0.59549 0.53864 0.91362 0.0
C728 C 0.58777 0.57769 0.89789 0.0
C729 C 0.64311 0.5891 0.91323 0.0
C730 C 0.58111 0.59798 0.90977 0.0
C731 C 0.56348 0.61322 0.89891 0.0
C732 C 0.55179 0.60826 0.87616 0.0
C733 C 0.55872 0.58804 0.86422 0.0
C734 C 0.57651 0.57295 0.87496 0.0
H735 H 0.66495 0.5883 0.91343 0.0
H736 H 0.63675 0.59628 0.89529 0.0
H737 H 0.63685 0.60083 0.92799 0.0
H738 H 0.589 0.60178 0.92774 0.0
H739 H 0.55842 0.62854 0.9087 0.0
H740 H 0.3304 0.53401 0.48402 0.0
H741 H 0.34406 0.49606 0.47177 0.0
H742 H 0.34098 0.5163 0.3955 0.0
H743 H 0.32586 0.55392 0.40747 0.0
H744 H 0.32384 0.4725 0.40257 0.0
H745 H 0.41936 0.48677 0.44966 0.0
H746 H 0.39099 0.48853 0.46928 0.0
H747 H 0.39571 0.50912 0.44512 0.0
C748 C 0.33193 0.53027 0.4646 0.0
C749 C 0.32741 0.54718 0.44673 0.0
C750 C 0.34007 0.50861 0.45766 0.0
C751 C 0.34422 0.50355 0.43277 0.0
C752 C 0.33817 0.51992 0.41484 0.0
H753 H 0.4287 0.41467 0.34096 0.0
H754 H 0.39794 0.44152 0.35929 0.0
C755 C 0.32979 0.5415 0.42173 0.0
C756 C 0.35663 0.48193 0.42534 0.0
H757 H 0.41398 0.4521 0.42938 0.0
C758 C 0.34345 0.46792 0.40861 0.0
C759 C 0.38229 0.47602 0.43318 0.0
C760 C 0.39806 0.49096 0.45012 0.0
C761 C 0.35547 0.4484 0.39913 0.0
C762 C 0.38128 0.44287 0.40655 0.0
C763 C 0.39408 0.45636 0.42393 0.0
C764 C 0.39655 0.42463 0.3947 0.0
C765 C 0.34071 0.43402 0.38096 0.0
C766 C 0.40579 0.40616 0.40854 0.0
C767 C 0.42334 0.3907 0.39808 0.0
C768 C 0.4323 0.39379 0.37378 0.0
C769 C 0.42228 0.4119 0.35976 0.0
C770 C 0.40454 0.42716 0.37013 0.0
H771 H 0.31917 0.4371 0.38187 0.0
H772 H 0.34757 0.43824 0.36208 0.0
H773 H 0.3445 0.41572 0.38431 0.0
H774 H 0.40001 0.4041 0.42762 0.0
H775 H 0.43076 0.37694 0.40936 0.0
H776 H 0.84707 0.93894 0.90797 0.0
H777 H 0.85942 0.97728 0.89517 0.0
H778 H 0.84933 0.00058 0.96957 0.0
H779 H 0.83651 0.96226 0.98256 0.0
H780 H 0.83371 0.02213 0.90126 0.0
H781 H 0.92852 0.01191 0.95125 0.0
H782 H 0.90768 0.98809 0.94402 0.0
H783 H 0.89878 0.00689 0.96847 0.0
C784 C 0.84682 0.9523 0.92153 0.0
C785 C 0.84104 0.94751 0.94634 0.0
C786 C 0.85396 0.97418 0.91418 0.0
C787 C 0.85553 0.99161 0.9315 0.0
C788 C 0.84849 0.98722 0.95603 0.0
H789 H 0.94222 0.11793 0.91048 0.0
H790 H 0.91267 0.08959 0.92856 0.0
C791 C 0.84132 0.96534 0.96341 0.0
C792 C 0.86679 0.01373 0.92416 0.0
H793 H 0.92276 0.04532 0.92851 0.0
C794 C 0.85305 0.0274 0.90738 0.0
C795 C 0.89197 0.02048 0.93228 0.0
C796 C 0.90779 0.00609 0.94988 0.0
C797 C 0.8641 0.04758 0.89816 0.0
C798 C 0.88976 0.05384 0.90551 0.0
C799 C 0.90306 0.04052 0.92294 0.0
C800 C 0.90423 0.07304 0.89408 0.0
C801 C 0.84822 0.06191 0.8806 0.0
C802 C 0.90899 0.07334 0.86864 0.0
C803 C 0.92574 0.08957 0.85823 0.0
C804 C 0.93843 0.10557 0.87315 0.0
C805 C 0.93291 0.10573 0.89851 0.0
C806 C 0.91598 0.08959 0.90887 0.0
H807 H 0.82677 0.05938 0.88356 0.0
H808 H 0.85285 0.0802 0.8826 0.0
H809 H 0.85283 0.05683 0.86145 0.0
H810 H 0.9007 0.06039 0.85694 0.0
H811 H 0.9296 0.08893 0.83864 0.0
H812 H 0.1658 0.00888 0.4912 0.0
H813 H 0.13799 0.98346 0.4674 0.0
H814 H 0.15758 0.02025 0.40106 0.0
H815 H 0.18513 0.04623 0.42484 0.0
H816 H 0.09382 0.99762 0.43625 0.0
H817 H 0.17253 0.9516 0.38552 0.0
H818 H 0.17902 0.96692 0.41352 0.0
H819 H 0.17369 0.98211 0.38531 0.0
C820 C 0.16405 0.01177 0.47158 0.0
C821 C 0.1776 0.02973 0.45997 0.0
C822 C 0.14829 0.9971 0.458 0.0
C823 C 0.14592 0.99989 0.43249 0.0
C824 C 0.15948 0.01765 0.42071 0.0
H825 H 0.05427 0.91487 0.33175 0.0
H826 H 0.08395 0.94399 0.34793 0.0
C827 C 0.17522 0.03244 0.43432 0.0
C828 C 0.1285 0.98452 0.41857 0.0
H829 H 0.12875 0.94043 0.37819 0.0
C830 C 0.10141 0.9852 0.42343 0.0
C831 C 0.1385 0.96853 0.40172 0.0
C832 C 0.16753 0.96701 0.39618 0.0
C833 C 0.08402 0.97001 0.4122 0.0
C834 C 0.09412 0.95334 0.39614 0.0
C835 C 0.12111 0.95315 0.39061 0.0
C836 C 0.07707 0.93523 0.38611 0.0
C837 C 0.05499 0.97193 0.41769 0.0
C838 C 0.06399 0.92031 0.40219 0.0
C839 C 0.04704 0.90377 0.39309 0.0
C840 C 0.04296 0.90166 0.36763 0.0
C841 C 0.05685 0.91612 0.35146 0.0
C842 C 0.0738 0.93276 0.36065 0.0
H843 H 0.04973 0.98923 0.42396 0.0
H844 H 0.04302 0.9678 0.40127 0.0
H845 H 0.0497 0.95984 0.43263 0.0
H846 H 0.06675 0.92155 0.42188 0.0
H847 H 0.03698 0.89276 0.40608 0.0
H848 H 0.19237 0.00409 0.99324 0.0
H849 H 0.16475 0.03224 0.97263 0.0
H850 H 0.13841 0.98143 0.92165 0.0
H851 H 0.16525 0.95296 0.94268 0.0
H852 H 0.1648 0.04739 0.92402 0.0
H853 H 0.06946 0.00694 0.94841 0.0
H854 H 0.1 0.99901 0.9629 0.0
H855 H 0.09202 0.98848 0.93288 0.0
C856 C 0.18048 0.99881 0.97781 0.0
C857 C 0.18083 0.97617 0.9698 0.0
C858 C 0.16487 0.01498 0.96593 0.0
C859 C 0.1492 0.00886 0.94586 0.0
C860 C 0.14997 0.98644 0.9374 0.0
H861 H 0.03857 0.07841 0.85177 0.0
H862 H 0.06931 0.05203 0.87093 0.0
C863 C 0.16556 0.97023 0.94929 0.0
C864 C 0.13202 0.02596 0.93384 0.0
H865 H 0.06794 0.03776 0.92025 0.0
C866 C 0.14361 0.04535 0.92327 0.0
C867 C 0.10437 0.02331 0.93298 0.0
C868 C 0.09064 0.00343 0.94509 0.0
C869 C 0.12832 0.06192 0.91135 0.0
C870 C 0.10071 0.05913 0.9103 0.0
C871 C 0.08913 0.03981 0.921 0.0
C872 C 0.08335 0.07586 0.89794 0.0
C873 C 0.14187 0.08199 0.89949 0.0
C874 C 0.08109 0.0981 0.90672 0.0
C875 C 0.06346 0.11332 0.89579 0.0
C876 C 0.04766 0.1065 0.87596 0.0
C877 C 0.05034 0.08428 0.86702 0.0
C878 C 0.06791 0.06913 0.87796 0.0
H879 H 0.16327 0.07898 0.8969 0.0
H880 H 0.13301 0.08599 0.88134 0.0
H881 H 0.13947 0.09703 0.91142 0.0
H882 H 0.09251 0.10354 0.92239 0.0
H883 H 0.06187 0.13027 0.90318 0.0
H884 H 0.87821 0.06341 0.42829 0.0
H885 H 0.89063 0.02526 0.41594 0.0
H886 H 0.81396 0.00042 0.43717 0.0
H887 H 0.801 0.03893 0.44907 0.0
H888 H 0.89055 0.98595 0.44729 0.0
H889 H 0.8256 0.97679 0.3656 0.0
H890 H 0.83325 0.00411 0.37856 0.0
H891 H 0.81079 0.98542 0.39417 0.0
C892 C 0.86377 0.04997 0.42995 0.0
C893 C 0.83852 0.05427 0.43944 0.0
C894 C 0.871 0.02813 0.42309 0.0
C895 C 0.85317 0.01009 0.42552 0.0
C896 C 0.8279 0.0142 0.43494 0.0
H897 H 0.92392 0.87531 0.40194 0.0
H898 H 0.89399 0.90358 0.41938 0.0
C899 C 0.82062 0.03614 0.44188 0.0
C900 C 0.8617 0.98706 0.41849 0.0
H901 H 0.85607 0.94768 0.37312 0.0
C902 C 0.88274 0.97731 0.43135 0.0
C903 C 0.85143 0.976 0.39764 0.0
C904 C 0.8291 0.98605 0.38301 0.0
C905 C 0.89474 0.95732 0.4232 0.0
C906 C 0.8851 0.94666 0.40181 0.0
C907 C 0.86323 0.95584 0.38961 0.0
C908 C 0.89979 0.928 0.38998 0.0
C909 C 0.91866 0.94861 0.43662 0.0
C910 C 0.91199 0.93199 0.3672 0.0
C911 C 0.92894 0.91594 0.35718 0.0
C912 C 0.93406 0.89552 0.36975 0.0
C913 C 0.9206 0.89096 0.39191 0.0
C914 C 0.90356 0.9071 0.40194 0.0
H915 H 0.92595 0.96084 0.45049 0.0
H916 H 0.91361 0.93256 0.44629 0.0
H917 H 0.93485 0.94502 0.42345 0.0
H918 H 0.90928 0.948 0.35765 0.0
H919 H 0.93872 0.91993 0.33995 0.0
H920 H 0.31513 0.37756 0.10434 0.0
H921 H 0.33177 0.37606 0.14653 0.0
H922 H 0.35827 0.30757 0.13501 0.0
H923 H 0.34287 0.30919 0.09266 0.0
H924 H 0.32449 0.34602 0.18826 0.0
H925 H 0.42582 0.34388 0.14974 0.0
H926 H 0.39749 0.3509 0.13133 0.0
H927 H 0.40466 0.32181 0.1387 0.0
C928 C 0.32436 0.36212 0.11083 0.0
C929 C 0.32803 0.34363 0.09495 0.0
C930 C 0.33363 0.36124 0.13499 0.0
C931 C 0.34665 0.34186 0.14365 0.0
C932 C 0.34859 0.3228 0.12849 0.0
H933 H 0.44421 0.30919 0.26754 0.0
H934 H 0.41464 0.30801 0.23236 0.0
C935 C 0.33951 0.3237 0.10433 0.0
C936 C 0.36038 0.34223 0.16755 0.0
H937 H 0.42162 0.33896 0.19272 0.0
C938 C 0.34571 0.34452 0.18932 0.0
C939 C 0.3881 0.34054 0.16875 0.0
C940 C 0.40502 0.33936 0.1459 0.0
C941 C 0.3581 0.34452 0.21239 0.0
C942 C 0.38576 0.34237 0.21352 0.0
C943 C 0.40037 0.34037 0.19174 0.0
C944 C 0.40034 0.34222 0.23699 0.0
C945 C 0.34159 0.34635 0.23538 0.0
C946 C 0.40173 0.36177 0.25147 0.0
C947 C 0.41871 0.36256 0.27163 0.0
C948 C 0.43472 0.34385 0.27745 0.0
C949 C 0.43235 0.32397 0.26348 0.0
C950 C 0.4154 0.32322 0.2434 0.0
H951 H 0.32044 0.34312 0.2317 0.0
H952 H 0.34848 0.3342 0.24964 0.0
H953 H 0.34354 0.36371 0.24292 0.0
H954 H 0.39057 0.37674 0.24656 0.0
H955 H 0.42002 0.37811 0.28203 0.0
H956 H 0.68402 0.58659 0.6269 0.0
H957 H 0.65763 0.5973 0.66263 0.0
H958 H 0.64999 0.6651 0.63349 0.0
H959 H 0.676 0.65438 0.59731 0.0
H960 H 0.6671 0.63287 0.69738 0.0
H961 H 0.57315 0.64411 0.64653 0.0
H962 H 0.60084 0.62906 0.63372 0.0
H963 H 0.60114 0.65946 0.63478 0.0
C964 C 0.67654 0.60374 0.62795 0.0
C965 C 0.68188 0.61958 0.60912 0.0
C966 C 0.66163 0.60986 0.64848 0.0
C967 C 0.65162 0.63189 0.65056 0.0
C968 C 0.65726 0.64791 0.63206 0.0
H969 H 0.54248 0.68557 0.76042 0.0
H970 H 0.57359 0.68233 0.72618 0.0
C971 C 0.67229 0.64182 0.61152 0.0
C972 C 0.63513 0.63788 0.67209 0.0
H973 H 0.57233 0.6512 0.68906 0.0
C974 C 0.64641 0.63699 0.69559 0.0
C975 C 0.60819 0.64334 0.66965 0.0
C976 C 0.59494 0.64393 0.64487 0.0
C977 C 0.63139 0.64128 0.71679 0.0
C978 C 0.60425 0.64608 0.71441 0.0
C979 C 0.59314 0.6475 0.69085 0.0
C980 C 0.58672 0.64864 0.73612 0.0
C981 C 0.64479 0.64074 0.7415 0.0
C982 C 0.58374 0.63078 0.75308 0.0
C983 C 0.56605 0.63257 0.7727 0.0
C984 C 0.55071 0.65221 0.77563 0.0
C985 C 0.55395 0.6702 0.75874 0.0
C986 C 0.57171 0.66839 0.73914 0.0
H987 H 0.66627 0.64392 0.7397 0.0
H988 H 0.63627 0.65354 0.7541 0.0
H989 H 0.64211 0.62373 0.74996 0.0
H990 H 0.59465 0.61517 0.75081 0.0
H991 H 0.56402 0.61835 0.78526 0.0
H992 H 0.66378 0.34781 0.09376 0.0
H993 H 0.63505 0.3384 0.12867 0.0
H994 H 0.671 0.39154 0.17109 0.0
H995 H 0.69977 0.40098 0.1364 0.0
H996 H 0.66394 0.35198 0.19799 0.0
H997 H 0.57211 0.3765 0.14959 0.0
H998 H 0.59138 0.35536 0.13424 0.0
H999 H 0.60434 0.38352 0.13778 0.0
C1000 C 0.66549 0.35753 0.1105 0.0
C1001 C 0.68399 0.37521 0.11226 0.0
C1002 C 0.64907 0.35214 0.13043 0.0
C1003 C 0.65063 0.36449 0.15237 0.0
C1004 C 0.66946 0.38178 0.15435 0.0
H1005 H 0.53558 0.38384 0.26567 0.0
H1006 H 0.56704 0.38622 0.23185 0.0
C1007 C 0.68595 0.38711 0.13451 0.0
C1008 C 0.63232 0.35986 0.17316 0.0
H1009 H 0.56744 0.36123 0.18956 0.0
C1010 C 0.64282 0.35388 0.19616 0.0
C1011 C 0.6048 0.3626 0.17076 0.0
C1012 C 0.59242 0.37004 0.14685 0.0
C1013 C 0.62657 0.35079 0.21689 0.0
C1014 C 0.59904 0.35339 0.21443 0.0
C1015 C 0.58854 0.3591 0.19137 0.0
C1016 C 0.5808 0.35172 0.23577 0.0
C1017 C 0.63907 0.34556 0.2414 0.0
C1018 C 0.57811 0.3315 0.24936 0.0
C1019 C 0.56013 0.33009 0.26892 0.0
C1020 C 0.54433 0.34881 0.27504 0.0
C1021 C 0.54729 0.36904 0.26145 0.0
C1022 C 0.56528 0.37045 0.24205 0.0
H1023 H 0.66052 0.34922 0.24128 0.0
H1024 H 0.62968 0.35551 0.25629 0.0
H1025 H 0.63635 0.3273 0.24575 0.0
H1026 H 0.58956 0.3167 0.24458 0.0
H1027 H 0.55827 0.31423 0.27893 0.0
H1028 H 0.33639 0.68247 0.59456 0.0
H1029 H 0.35269 0.68472 0.63681 0.0
H1030 H 0.35468 0.61177 0.64132 0.0
H1031 H 0.33815 0.60932 0.59921 0.0
H1032 H 0.33494 0.66401 0.68417 0.0
H1033 H 0.43234 0.63413 0.6507 0.0
H1034 H 0.40729 0.64477 0.63023 0.0
H1035 H 0.40477 0.61658 0.64269 0.0
C1036 C 0.3397 0.6669 0.60474 0.0
C1037 C 0.33629 0.64571 0.59347 0.0
C1038 C 0.34906 0.66824 0.62883 0.0
C1039 C 0.35518 0.64842 0.64196 0.0
C1040 C 0.35037 0.62724 0.6313 0.0
H1041 H 0.44392 0.61871 0.77253 0.0
H1042 H 0.41496 0.61723 0.73693 0.0
C1043 C 0.34105 0.62589 0.60725 0.0
C1044 C 0.36869 0.64983 0.66591 0.0
H1045 H 0.4274 0.63863 0.69349 0.0
C1046 C 0.35515 0.6585 0.68631 0.0
C1047 C 0.39509 0.64276 0.66845 0.0
C1048 C 0.41088 0.63421 0.64686 0.0
C1049 C 0.36724 0.65975 0.70948 0.0
C1050 C 0.3936 0.65248 0.71203 0.0
C1051 C 0.40712 0.64403 0.69151 0.0
C1052 C 0.40788 0.65336 0.73568 0.0
C1053 C 0.35159 0.66835 0.73109 0.0
C1054 C 0.4131 0.67416 0.74708 0.0
C1055 C 0.42964 0.67507 0.76757 0.0
C1056 C 0.44147 0.65522 0.77673 0.0
C1057 C 0.43533 0.63434 0.7658 0.0
C1058 C 0.41873 0.63344 0.74549 0.0
H1059 H 0.33009 0.66775 0.72755 0.0
H1060 H 0.35588 0.6583 0.74794 0.0
H1061 H 0.35711 0.68624 0.73462 0.0
H1062 H 0.40533 0.68979 0.73953 0.0
H1063 H 0.43403 0.69142 0.77554 0.0
H1064 H 0.84599 0.80295 0.08968 0.0
H1065 H 0.85927 0.8024 0.13288 0.0
H1066 H 0.85205 0.87515 0.13562 0.0
H1067 H 0.83906 0.87591 0.0924 0.0
H1068 H 0.90484 0.8256 0.14796 0.0
H1069 H 0.81715 0.85391 0.20057 0.0
H1070 H 0.815 0.84277 0.16976 0.0
H1071 H 0.82573 0.87142 0.17458 0.0
C1072 C 0.84693 0.81881 0.09957 0.0
C1073 C 0.84165 0.83949 0.08758 0.0
C1074 C 0.85434 0.81845 0.12426 0.0
C1075 C 0.85639 0.83871 0.13746 0.0
C1076 C 0.85003 0.85929 0.12589 0.0
H1077 H 0.93107 0.87927 0.27258 0.0
H1078 H 0.90396 0.877 0.23553 0.0
C1079 C 0.84264 0.85968 0.10117 0.0
C1080 C 0.86835 0.8386 0.16221 0.0
H1081 H 0.85785 0.85286 0.2222 0.0
C1082 C 0.89449 0.83132 0.16425 0.0
C1083 C 0.85485 0.84637 0.18329 0.0
C1084 C 0.82655 0.8539 0.1821 0.0
C1085 C 0.90775 0.83199 0.18675 0.0
C1086 C 0.89426 0.83964 0.20793 0.0
C1087 C 0.86806 0.84689 0.20594 0.0
C1088 C 0.90748 0.84062 0.23208 0.0
C1089 C 0.93638 0.82519 0.18745 0.0
C1090 C 0.91752 0.82081 0.24288 0.0
C1091 C 0.9332 0.82206 0.26382 0.0
C1092 C 0.93883 0.84313 0.27455 0.0
C1093 C 0.92723 0.8628 0.26467 0.0
C1094 C 0.91171 0.86154 0.24354 0.0
H1095 H 0.94544 0.82538 0.16882 0.0
H1096 H 0.94785 0.83666 0.19948 0.0
H1097 H 0.93799 0.80771 0.19494 0.0
H1098 H 0.91397 0.80444 0.2346 0.0
H1099 H 0.94148 0.80656 0.27123 0.0
H1100 H 0.17992 0.15499 0.60231 0.0
H1101 H 0.15208 0.16438 0.6377 0.0
H1102 H 0.15952 0.09592 0.66495 0.0
H1103 H 0.18681 0.08624 0.62956 0.0
H1104 H 0.10365 0.14293 0.65192 0.0
H1105 H 0.17954 0.13544 0.72459 0.0
H1106 H 0.18772 0.1385 0.69238 0.0
H1107 H 0.17759 0.11144 0.70452 0.0
C1108 C 0.17556 0.1419 0.61578 0.0
C1109 C 0.18579 0.11989 0.61313 0.0
C1110 C 0.15978 0.14734 0.63605 0.0
C1111 C 0.15413 0.13094 0.65413 0.0
C1112 C 0.16416 0.10897 0.6515 0.0
H1113 H 0.05941 0.11591 0.7844 0.0
H1114 H 0.0904 0.11258 0.75018 0.0
C1115 C 0.17982 0.10349 0.63125 0.0
C1116 C 0.13688 0.13641 0.6753 0.0
H1117 H 0.13497 0.13739 0.73806 0.0
C1118 C 0.11051 0.14199 0.67076 0.0
C1119 C 0.14593 0.13508 0.69982 0.0
C1120 C 0.1743 0.12999 0.70571 0.0
C1121 C 0.09267 0.14545 0.69016 0.0
C1122 C 0.10162 0.14377 0.71473 0.0
C1123 C 0.12813 0.13864 0.71923 0.0
C1124 C 0.08356 0.14641 0.73602 0.0
C1125 C 0.06418 0.14999 0.68416 0.0
C1126 C 0.06984 0.16673 0.73976 0.0
C1127 C 0.05198 0.16867 0.75927 0.0
C1128 C 0.04766 0.15038 0.77554 0.0
C1129 C 0.06212 0.13031 0.77219 0.0
C1130 C 0.07989 0.12837 0.75264 0.0
H1131 H 0.05936 0.14525 0.66495 0.0
H1132 H 0.05092 0.14049 0.69684 0.0
H1133 H 0.06013 0.16834 0.68628 0.0
H1134 H 0.07283 0.18106 0.72751 0.0
H1135 H 0.04139 0.18445 0.76143 0.0
H1136 H 0.14785 0.88755 0.09856 0.0
H1137 H 0.12149 0.87745 0.13465 0.0
H1138 H 0.18667 0.83968 0.16438 0.0
H1139 H 0.21312 0.84925 0.12801 0.0
H1140 H 0.1087 0.83276 0.15545 0.0
H1141 H 0.16701 0.88764 0.21797 0.0
H1142 H 0.16826 0.89077 0.18494 0.0
H1143 H 0.18503 0.86766 0.19962 0.0
C1144 C 0.1565 0.87674 0.1125 0.0
C1145 C 0.1827 0.86929 0.11035 0.0
C1146 C 0.14142 0.87109 0.1332 0.0
C1147 C 0.15224 0.85803 0.15227 0.0
C1148 C 0.1781 0.85005 0.14999 0.0
H1149 H 0.05813 0.80951 0.27892 0.0
H1150 H 0.09028 0.81056 0.24509 0.0
C1151 C 0.19319 0.85561 0.12923 0.0
C1152 C 0.13656 0.85347 0.1748 0.0
H1153 H 0.1311 0.86795 0.23532 0.0
C1154 C 0.11372 0.84021 0.173 0.0
C1155 C 0.14311 0.8634 0.19758 0.0
C1156 C 0.16707 0.87831 0.2003 0.0
C1157 C 0.09698 0.8369 0.19334 0.0
C1158 C 0.10336 0.84708 0.21603 0.0
C1159 C 0.12644 0.86002 0.21793 0.0
C1160 C 0.08506 0.84627 0.23728 0.0
C1161 C 0.07204 0.82333 0.19024 0.0
C1162 C 0.07199 0.86608 0.24437 0.0
C1163 C 0.05365 0.86555 0.26353 0.0
C1164 C 0.04813 0.84519 0.27617 0.0
C1165 C 0.06188 0.82545 0.26953 0.0
C1166 C 0.08015 0.82599 0.25016 0.0
H1167 H 0.06826 0.81909 0.1707 0.0
H1168 H 0.07359 0.80728 0.20089 0.0
H1169 H 0.05492 0.83287 0.19754 0.0
H1170 H 0.07559 0.88192 0.23471 0.0
H1171 H 0.04361 0.88111 0.26826 0.0
H1172 H 0.83743 0.18516 0.59226 0.0
H1173 H 0.85237 0.18643 0.63502 0.0
H1174 H 0.85842 0.11355 0.6363 0.0
H1175 H 0.84344 0.1121 0.59362 0.0
H1176 H 0.83483 0.16418 0.68069 0.0
H1177 H 0.93414 0.13751 0.64915 0.0
H1178 H 0.90926 0.14768 0.62824 0.0
H1179 H 0.90771 0.11918 0.64002 0.0
C1180 C 0.84139 0.16938 0.60182 0.0
C1181 C 0.8396 0.14854 0.58952 0.0
C1182 C 0.84996 0.17015 0.62621 0.0
C1183 C 0.85685 0.15011 0.6386 0.0
C1184 C 0.85357 0.12921 0.62686 0.0
H1185 H 0.94154 0.1182 0.77088 0.0
H1186 H 0.91353 0.11726 0.73459 0.0
C1187 C 0.8451 0.12842 0.6025 0.0
C1188 C 0.86953 0.15112 0.66298 0.0
H1189 H 0.92752 0.14018 0.69198 0.0
C1190 C 0.85509 0.15898 0.68325 0.0
C1191 C 0.89602 0.14448 0.66609 0.0
C1192 C 0.91283 0.13692 0.64472 0.0
C1193 C 0.86636 0.1598 0.7068 0.0
C1194 C 0.89277 0.1529 0.70991 0.0
C1195 C 0.9072 0.14528 0.68955 0.0
C1196 C 0.90621 0.15337 0.734 0.0
C1197 C 0.84983 0.16758 0.72822 0.0
C1198 C 0.91094 0.17397 0.74599 0.0
C1199 C 0.92696 0.17458 0.76686 0.0
C1200 C 0.93874 0.15461 0.77582 0.0
C1201 C 0.93299 0.13392 0.76433 0.0
C1202 C 0.91692 0.13332 0.74362 0.0
H1203 H 0.82848 0.16697 0.72396 0.0
H1204 H 0.8536 0.157 0.74479 0.0
H1205 H 0.85505 0.18536 0.73264 0.0
H1206 H 0.90324 0.18969 0.7386 0.0
H1207 H 0.93103 0.19079 0.77526 0.0
loop_
_geom_bond_atom_site_label_1
_geom_bond_atom_site_label_2
_geom_bond_distance
_geom_bond_site_symmetry_2
_ccdc_geom_bond_type
P0 O11 1.490 . S
P0 C14 1.812 1_556 S
P0 C20 1.803 . S
P0 C26 1.819 . S
H1 C15 0.941 . S
H2 C16 0.939 . S
H3 C18 0.940 . S
H4 C19 0.940 . S
H5 C21 0.939 . S
H6 C22 0.942 . S
H7 C24 0.940 1_554 S
H8 C25 0.939 . S
H9 C27 0.941 . S
H10 C31 0.939 . S
O11 P0 1.490 . S
H12 C28 0.939 . S
H13 C30 0.940 . S
C14 P0 1.812 1_554 S
C14 C15 1.389 . S
C14 C19 1.391 . S
C15 H1 0.941 . S
C15 C14 1.389 . S
C15 C16 1.397 . S
C16 H2 0.939 . S
C16 C15 1.397 . S
C16 C17 1.378 . S
C17 C16 1.378 . S
C17 C18 1.378 . S
C18 H3 0.940 . S
C18 C17 1.378 . S
C18 C19 1.396 . S
C19 H4 0.940 . S
C19 C14 1.391 . S
C19 C18 1.396 . S
C20 P0 1.803 . S
C20 C21 1.378 . S
C20 C25 1.400 1_556 S
C21 H5 0.939 . S
C21 C20 1.378 . S
C21 C22 1.361 . S
C22 H6 0.942 . S
C22 C21 1.361 . S
C22 C23 1.369 . S
C23 C22 1.369 . S
C23 C24 1.404 . S
C24 H7 0.940 1_556 S
C24 C23 1.404 . S
C24 C25 1.389 1_556 S
C25 H8 0.939 . S
C25 C20 1.400 1_554 S
C25 C24 1.389 1_554 S
C26 P0 1.819 . S
C26 C27 1.391 . S
C26 C31 1.391 . S
C27 H9 0.941 . S
C27 C26 1.391 . S
C27 C28 1.396 . S
C28 H12 0.939 . S
C28 C27 1.396 . S
C28 C29 1.397 . S
C29 C28 1.397 . S
C29 C30 1.385 . S
C30 H13 0.940 . S
C30 C29 1.385 . S
C30 C31 1.388 . S
C31 H10 0.939 . S
C31 C26 1.391 . S
C31 C30 1.388 . S
P32 O43 1.490 . S
P32 C46 1.812 . S
P32 C52 1.803 . S
P32 C58 1.819 . S
H33 C47 0.941 . S
H34 C48 0.939 . S
H35 C50 0.940 . S
H36 C51 0.940 . S
H37 C53 0.939 . S
H38 C54 0.942 . S
H39 C56 0.940 . S
H40 C57 0.939 . S
H41 C59 0.941 . S
H42 C63 0.939 . S
O43 P32 1.490 . S
H44 C60 0.939 . S
H45 C62 0.940 . S
C46 P32 1.812 . S
C46 C47 1.389 . S
C46 C51 1.391 . S
C47 H33 0.941 . S
C47 C46 1.389 . S
C47 C48 1.397 . S
C48 H34 0.939 . S
C48 C47 1.397 . S
C48 C49 1.378 . S
C49 C48 1.378 . S
C49 C50 1.378 . S
C50 H35 0.940 . S
C50 C49 1.378 . S
C50 C51 1.396 . S
C51 H36 0.940 . S
C51 C46 1.391 . S
C51 C50 1.396 . S
C52 P32 1.803 . S
C52 C53 1.378 . S
C52 C57 1.400 . S
C53 H37 0.939 . S
C53 C52 1.378 . S
C53 C54 1.361 . S
C54 H38 0.942 . S
C54 C53 1.361 . S
C54 C55 1.369 . S
C55 C54 1.369 . S
C55 C56 1.404 . S
C56 H39 0.940 . S
C56 C55 1.404 . S
C56 C57 1.389 . S
C57 H40 0.939 . S
C57 C52 1.400 . S
C57 C56 1.389 . S
C58 P32 1.819 . S
C58 C59 1.391 . S
C58 C63 1.391 . S
C59 H41 0.941 . S
C59 C58 1.391 . S
C59 C60 1.396 . S
C60 H44 0.939 . S
C60 C59 1.396 . S
C60 C61 1.397 . S
C61 C60 1.397 . S
C61 C62 1.385 . S
C62 H45 0.940 . S
C62 C61 1.385 . S
C62 C63 1.388 . S
C63 H42 0.939 . S
C63 C58 1.391 . S
C63 C62 1.388 . S
P64 O75 1.490 . S
P64 C78 1.812 . S
P64 C84 1.803 . S
P64 C90 1.834 . S
H65 C79 0.941 . S
H66 C80 0.939 . S
H67 C82 0.940 . S
H68 C83 0.940 . S
H69 C85 0.939 . S
H70 C86 0.942 . S
H71 C88 0.940 . S
H72 C89 0.939 . S
H73 C91 0.941 . S
H74 C95 0.939 . S
O75 P64 1.490 . S
H76 C92 0.939 . S
H77 C94 0.940 . S
C78 P64 1.812 . S
C78 C79 1.389 . S
C78 C83 1.391 . S
C79 H65 0.941 . S
C79 C78 1.389 . S
C79 C80 1.397 . S
C80 H66 0.939 . S
C80 C79 1.397 . S
C80 C81 1.378 . S
C81 C80 1.378 . S
C81 C82 1.378 . S
C82 H67 0.940 . S
C82 C81 1.378 . S
C82 C83 1.396 . S
C83 H68 0.940 . S
C83 C78 1.391 . S
C83 C82 1.396 . S
C84 P64 1.803 . S
C84 C85 1.378 1_554 S
C84 C89 1.400 . S
C85 H69 0.939 . S
C85 C84 1.378 1_556 S
C85 C86 1.361 . S
C86 H70 0.942 . S
C86 C85 1.361 . S
C86 C87 1.369 . S
C87 C86 1.369 . S
C87 C88 1.404 . S
C88 H71 0.940 . S
C88 C87 1.404 . S
C88 C89 1.389 1_556 S
C89 H72 0.939 . S
C89 C84 1.400 . S
C89 C88 1.389 1_554 S
C90 P64 1.834 . S
C90 C91 1.399 . S
C90 C95 1.370 1_554 S
C91 H73 0.941 . S
C91 C90 1.399 . S
C91 C92 1.396 1_554 S
C92 H76 0.939 . S
C92 C91 1.396 1_556 S
C92 C93 1.397 . S
C93 C92 1.397 . S
C93 C94 1.385 . S
C94 H77 0.940 . S
C94 C93 1.385 . S
C94 C95 1.388 . S
C95 H74 0.939 . S
C95 C90 1.370 1_556 S
C95 C94 1.388 . S
P96 O107 1.490 . S
P96 C110 1.812 . S
P96 C116 1.803 . S
P96 C122 1.819 . S
H97 C111 0.941 . S
H98 C112 0.939 . S
H99 C114 0.940 . S
H100 C115 0.940 . S
H101 C117 0.939 . S
H102 C118 0.942 . S
H103 C120 0.940 . S
H104 C121 0.939 . S
H105 C123 0.941 . S
H106 C127 0.939 . S
O107 P96 1.490 . S
H108 C124 0.939 . S
H109 C126 0.940 . S
C110 P96 1.812 . S
C110 C111 1.389 . S
C110 C115 1.391 . S
C111 H97 0.941 . S
C111 C110 1.389 . S
C111 C112 1.397 . S
C112 H98 0.939 . S
C112 C111 1.397 . S
C112 C113 1.378 . S
C113 C112 1.378 . S
C113 C114 1.378 . S
C114 H99 0.940 . S
C114 C113 1.378 . S
C114 C115 1.396 . S
C115 H100 0.940 . S
C115 C110 1.391 . S
C115 C114 1.396 . S
C116 P96 1.803 . S
C116 C117 1.378 . S
C116 C121 1.400 . S
C117 H101 0.939 . S
C117 C116 1.378 . S
C117 C118 1.361 . S
C118 H102 0.942 . S
C118 C117 1.361 . S
C118 C119 1.369 . S
C119 C118 1.369 . S
C119 C120 1.404 . S
C120 H103 0.940 . S
C120 C119 1.404 . S
C120 C121 1.389 . S
C121 H104 0.939 . S
C121 C116 1.400 . S
C121 C120 1.389 . S
C122 P96 1.819 . S
C122 C123 1.391 . S
C122 C127 1.391 . S
C123 H105 0.941 . S
C123 C122 1.391 . S
C123 C124 1.396 . S
C124 H108 0.939 . S
C124 C123 1.396 . S
C124 C125 1.397 . S
C125 C124 1.397 . S
C125 C126 1.385 . S
C126 H109 0.940 . S
C126 C125 1.385 . S
C126 C127 1.388 . S
C127 H106 0.939 . S
C127 C122 1.391 . S
C127 C126 1.388 . S
P128 O139 1.490 . S
P128 C142 1.812 1_556 S
P128 C148 1.803 . S
P128 C154 1.819 . S
H129 C143 0.941 . S
H130 C144 0.939 . S
H131 C146 0.940 . S
H132 C147 0.940 . S
H133 C149 0.939 . S
H134 C150 0.942 . S
H135 C152 0.940 1_554 S
H136 C153 0.939 . S
H137 C155 0.941 . S
H138 C159 0.939 . S
O139 P128 1.490 . S
H140 C156 0.939 . S
H141 C158 0.940 . S
C142 P128 1.812 1_554 S
C142 C143 1.389 . S
C142 C147 1.391 . S
C143 H129 0.941 . S
C143 C142 1.389 . S
C143 C144 1.397 . S
C144 H130 0.939 . S
C144 C143 1.397 . S
C144 C145 1.378 . S
C145 C144 1.378 . S
C145 C146 1.378 . S
C146 H131 0.940 . S
C146 C145 1.378 . S
C146 C147 1.396 . S
C147 H132 0.940 . S
C147 C142 1.391 . S
C147 C146 1.396 . S
C148 P128 1.803 . S
C148 C149 1.378 . S
C148 C153 1.400 1_556 S
C149 H133 0.939 . S
C149 C148 1.378 . S
C149 C150 1.361 . S
C150 H134 0.942 . S
C150 C149 1.361 . S
C150 C151 1.369 . S
C151 C150 1.369 . S
C151 C152 1.404 . S
C152 H135 0.940 1_556 S
C152 C151 1.404 . S
C152 C153 1.389 1_556 S
C153 H136 0.939 . S
C153 C148 1.400 1_554 S
C153 C152 1.389 1_554 S
C154 P128 1.819 . S
C154 C155 1.391 . S
C154 C159 1.391 . S
C155 H137 0.941 . S
C155 C154 1.391 . S
C155 C156 1.396 . S
C156 H140 0.939 . S
C156 C155 1.396 . S
C156 C157 1.397 . S
C157 C156 1.397 . S
C157 C158 1.385 . S
C158 H141 0.940 . S
C158 C157 1.385 . S
C158 C159 1.388 . S
C159 H138 0.939 . S
C159 C154 1.391 . S
C159 C158 1.388 . S
P160 O171 1.490 . S
P160 C174 1.812 . S
P160 C180 1.803 . S
P160 C186 1.819 . S
H161 C175 0.941 . S
H162 C176 0.939 . S
H163 C178 0.940 . S
H164 C179 0.940 . S
H165 C181 0.939 . S
H166 C182 0.942 . S
H167 C184 0.940 . S
H168 C185 0.939 . S
H169 C187 0.941 . S
H170 C191 0.939 . S
O171 P160 1.490 . S
H172 C188 0.939 . S
H173 C190 0.940 . S
C174 P160 1.812 . S
C174 C175 1.389 . S
C174 C179 1.391 . S
C175 H161 0.941 . S
C175 C174 1.389 . S
C175 C176 1.397 . S
C176 H162 0.939 . S
C176 C175 1.397 . S
C176 C177 1.378 . S
C177 C176 1.378 . S
C177 C178 1.378 . S
C178 H163 0.940 . S
C178 C177 1.378 . S
C178 C179 1.396 . S
C179 H164 0.940 . S
C179 C174 1.391 . S
C179 C178 1.396 . S
C180 P160 1.803 . S
C180 C181 1.378 . S
C180 C185 1.400 . S
C181 H165 0.939 . S
C181 C180 1.378 . S
C181 C182 1.361 . S
C182 H166 0.942 . S
C182 C181 1.361 . S
C182 C183 1.369 . S
C183 C182 1.369 . S
C183 C184 1.404 . S
C184 H167 0.940 . S
C184 C183 1.404 . S
C184 C185 1.389 . S
C185 H168 0.939 . S
C185 C180 1.400 . S
C185 C184 1.389 . S
C186 P160 1.819 . S
C186 C187 1.391 . S
C186 C191 1.391 . S
C187 H169 0.941 . S
C187 C186 1.391 . S
C187 C188 1.396 . S
C188 H172 0.939 . S
C188 C187 1.396 . S
C188 C189 1.397 . S
C189 C188 1.397 . S
C189 C190 1.385 . S
C190 H173 0.940 . S
C190 C189 1.385 . S
C190 C191 1.388 . S
C191 H170 0.939 . S
C191 C186 1.391 . S
C191 C190 1.388 . S
P192 O203 1.490 . S
P192 C206 1.812 . S
P192 C212 1.803 . S
P192 C218 1.834 . S
H193 C207 0.941 . S
H194 C208 0.939 . S
H195 C210 0.940 . S
H196 C211 0.940 . S
H197 C213 0.939 . S
H198 C214 0.942 . S
H199 C216 0.940 . S
H200 C217 0.939 . S
H201 C219 0.941 . S
H202 C223 0.939 . S
O203 P192 1.490 . S
H204 C220 0.939 . S
H205 C222 0.940 . S
C206 P192 1.812 . S
C206 C207 1.389 . S
C206 C211 1.391 . S
C207 H193 0.941 . S
C207 C206 1.389 . S
C207 C208 1.397 . S
C208 H194 0.939 . S
C208 C207 1.397 . S
C208 C209 1.378 . S
C209 C208 1.378 . S
C209 C210 1.378 . S
C210 H195 0.940 . S
C210 C209 1.378 . S
C210 C211 1.396 . S
C211 H196 0.940 . S
C211 C206 1.391 . S
C211 C210 1.396 . S
C212 P192 1.803 . S
C212 C213 1.378 1_554 S
C212 C217 1.400 . S
C213 H197 0.939 . S
C213 C212 1.378 1_556 S
C213 C214 1.361 . S
C214 H198 0.942 . S
C214 C213 1.361 . S
C214 C215 1.369 . S
C215 C214 1.369 . S
C215 C216 1.404 . S
C216 H199 0.940 . S
C216 C215 1.404 . S
C216 C217 1.389 1_556 S
C217 H200 0.939 . S
C217 C212 1.400 . S
C217 C216 1.389 1_554 S
C218 P192 1.834 . S
C218 C219 1.399 . S
C218 C223 1.370 1_554 S
C219 H201 0.941 . S
C219 C218 1.399 . S
C219 C220 1.396 1_554 S
C220 H204 0.939 . S
C220 C219 1.396 1_556 S
C220 C221 1.397 . S
C221 C220 1.397 . S
C221 C222 1.385 . S
C222 H205 0.940 . S
C222 C221 1.385 . S
C222 C223 1.388 . S
C223 H202 0.939 . S
C223 C218 1.370 1_556 S
C223 C222 1.388 . S
P224 O235 1.490 . S
P224 C238 1.812 . S
P224 C244 1.803 . S
P224 C250 1.819 . S
H225 C239 0.941 . S
H226 C240 0.939 . S
H227 C242 0.940 . S
H228 C243 0.940 . S
H229 C245 0.939 . S
H230 C246 0.942 . S
H231 C248 0.940 . S
H232 C249 0.939 . S
H233 C251 0.941 . S
H234 C255 0.939 . S
O235 P224 1.490 . S
H236 C252 0.939 . S
H237 C254 0.940 . S
C238 P224 1.812 . S
C238 C239 1.389 . S
C238 C243 1.391 . S
C239 H225 0.941 . S
C239 C238 1.389 . S
C239 C240 1.397 . S
C240 H226 0.939 . S
C240 C239 1.397 . S
C240 C241 1.378 . S
C241 C240 1.378 . S
C241 C242 1.378 . S
C242 H227 0.940 . S
C242 C241 1.378 . S
C242 C243 1.396 . S
C243 H228 0.940 . S
C243 C238 1.391 . S
C243 C242 1.396 . S
C244 P224 1.803 . S
C244 C245 1.378 . S
C244 C249 1.400 . S
C245 H229 0.939 . S
C245 C244 1.378 . S
C245 C246 1.361 . S
C246 H230 0.942 . S
C246 C245 1.361 . S
C246 C247 1.369 . S
C247 C246 1.369 . S
C247 C248 1.404 . S
C248 H231 0.940 . S
C248 C247 1.404 . S
C248 C249 1.389 . S
C249 H232 0.939 . S
C249 C244 1.400 . S
C249 C248 1.389 . S
C250 P224 1.819 . S
C250 C251 1.391 . S
C250 C255 1.391 . S
C251 H233 0.941 . S
C251 C250 1.391 . S
C251 C252 1.396 . S
C252 H236 0.939 . S
C252 C251 1.396 . S
C252 C253 1.397 . S
C253 C252 1.397 . S
C253 C254 1.385 . S
C254 H237 0.940 . S
C254 C253 1.385 . S
C254 C255 1.388 . S
C255 H234 0.939 . S
C255 C250 1.391 . S
C255 C254 1.388 . S
Fe256 O258 1.918 . S
Fe256 O261 1.997 1_455 S
Fe256 O262 2.002 1_455 S
Fe256 O267 1.976 . S
Fe256 O270 1.996 . S
Fe257 O258 1.918 . S
Fe257 O265 1.997 1_455 S
Fe257 O268 1.996 . S
Fe257 O272 1.976 . S
Fe257 O275 2.002 1_455 S
O258 Fe256 1.918 . S
O258 Fe257 1.918 . S
O258 Fe259 1.918 . S
Fe259 O258 1.918 . S
Fe259 O260 2.002 1_455 S
Fe259 O269 1.976 . S
Fe259 O273 1.996 . S
Fe259 O276 1.997 1_455 S
O260 Fe259 2.002 1_655 S
O260 C277 1.295 . S
O261 Fe256 1.997 1_655 S
O261 C277 1.235 . S
O262 Fe256 2.002 1_655 S
O262 C263 1.295 . S
C263 O262 1.295 . S
C263 O265 1.235 . S
C264 O269 1.287 . S
C264 O270 1.255 . S
O265 Fe257 1.997 1_655 S
O265 C263 1.235 . S
C266 O272 1.287 . S
C266 O273 1.255 . S
O267 Fe256 1.976 . S
O267 C274 1.287 . S
O268 Fe257 1.996 . S
O268 C274 1.255 . S
O269 Fe259 1.976 . S
O269 C264 1.287 . S
O270 Fe256 1.996 . S
O270 C264 1.255 . S
C271 O275 1.295 . S
C271 O276 1.235 . S
O272 Fe257 1.976 . S
O272 C266 1.287 . S
O273 Fe259 1.996 . S
O273 C266 1.255 . S
C274 O267 1.287 . S
C274 O268 1.255 . S
O275 Fe257 2.002 1_655 S
O275 C271 1.295 . S
O276 Fe259 1.997 1_655 S
O276 C271 1.235 . S
C277 O260 1.295 . S
C277 O261 1.235 . S
Fe278 O280 1.918 . S
Fe278 O283 1.988 1_655 S
Fe278 O284 1.994 1_655 S
Fe278 O289 1.984 . S
Fe278 O292 2.004 . S
Fe279 O280 1.918 . S
Fe279 O287 1.988 1_655 S
Fe279 O290 2.004 . S
Fe279 O294 1.984 . S
Fe279 O297 1.994 1_655 S
O280 Fe278 1.918 . S
O280 Fe279 1.918 . S
O280 Fe281 1.918 . S
Fe281 O280 1.918 . S
Fe281 O282 1.994 1_655 S
Fe281 O291 1.984 . S
Fe281 O295 2.004 . S
Fe281 O298 1.988 1_655 S
O282 Fe281 1.994 1_455 S
O282 C299 1.295 . S
O283 Fe278 1.988 1_455 S
O283 C299 1.235 . S
O284 Fe278 1.994 1_455 S
O284 C285 1.295 . S
C285 O284 1.295 . S
C285 O287 1.235 . S
C286 O291 1.287 . S
C286 O292 1.255 . S
O287 Fe279 1.988 1_455 S
O287 C285 1.235 . S
C288 O294 1.287 . S
C288 O295 1.255 . S
O289 Fe278 1.984 . S
O289 C296 1.287 . S
O290 Fe279 2.004 . S
O290 C296 1.255 . S
O291 Fe281 1.984 . S
O291 C286 1.287 . S
O292 Fe278 2.004 . S
O292 C286 1.255 . S
C293 O297 1.295 . S
C293 O298 1.235 . S
O294 Fe279 1.984 . S
O294 C288 1.287 . S
O295 Fe281 2.004 . S
O295 C288 1.255 . S
C296 O289 1.287 . S
C296 O290 1.255 . S
O297 Fe279 1.994 1_455 S
O297 C293 1.295 . S
O298 Fe281 1.988 1_455 S
O298 C293 1.235 . S
C299 O282 1.295 . S
C299 O283 1.235 . S
Fe300 O302 1.918 . S
Fe300 O305 1.997 . S
Fe300 O306 2.002 . S
Fe300 O311 1.976 . S
Fe300 O314 1.996 . S
Fe301 O302 1.918 . S
Fe301 O309 1.997 . S
Fe301 O312 1.996 . S
Fe301 O316 1.976 . S
Fe301 O319 2.002 . S
O302 Fe300 1.918 . S
O302 Fe301 1.918 . S
O302 Fe303 1.918 . S
Fe303 O302 1.918 . S
Fe303 O304 2.002 . S
Fe303 O313 1.976 . S
Fe303 O317 1.996 . S
Fe303 O320 1.997 . S
O304 Fe303 2.002 . S
O304 C321 1.295 . S
O305 Fe300 1.997 . S
O305 C321 1.235 . S
O306 Fe300 2.002 . S
O306 C307 1.295 . S
C307 O306 1.295 . S
C307 O309 1.235 . S
C308 O313 1.287 . S
C308 O314 1.255 . S
O309 Fe301 1.997 . S
O309 C307 1.235 . S
C310 O316 1.287 . S
C310 O317 1.255 . S
O311 Fe300 1.976 . S
O311 C318 1.287 . S
O312 Fe301 1.996 . S
O312 C318 1.255 . S
O313 Fe303 1.976 . S
O313 C308 1.287 . S
O314 Fe300 1.996 . S
O314 C308 1.255 . S
C315 O319 1.295 . S
C315 O320 1.235 . S
O316 Fe301 1.976 . S
O316 C310 1.287 . S
O317 Fe303 1.996 . S
O317 C310 1.255 . S
C318 O311 1.287 . S
C318 O312 1.255 . S
O319 Fe301 2.002 . S
O319 C315 1.295 . S
O320 Fe303 1.997 . S
O320 C315 1.235 . S
C321 O304 1.295 . S
C321 O305 1.235 . S
Fe322 O324 1.918 . S
Fe322 O327 1.997 . S
Fe322 O328 2.002 . S
Fe322 O333 1.976 . S
Fe322 O336 1.996 . S
Fe323 O324 1.918 . S
Fe323 O331 1.997 . S
Fe323 O334 1.996 . S
Fe323 O338 1.976 . S
Fe323 O341 2.002 . S
O324 Fe322 1.918 . S
O324 Fe323 1.918 . S
O324 Fe325 1.918 . S
Fe325 O324 1.918 . S
Fe325 O326 2.002 . S
Fe325 O335 1.976 . S
Fe325 O339 1.996 . S
Fe325 O342 1.997 . S
O326 Fe325 2.002 . S
O326 C343 1.295 . S
O327 Fe322 1.997 . S
O327 C343 1.235 . S
O328 Fe322 2.002 . S
O328 C329 1.295 . S
C329 O328 1.295 . S
C329 O331 1.235 . S
C330 O335 1.287 . S
C330 O336 1.255 . S
O331 Fe323 1.997 . S
O331 C329 1.235 . S
C332 O338 1.287 . S
C332 O339 1.255 . S
O333 Fe322 1.976 . S
O333 C340 1.287 . S
O334 Fe323 1.996 . S
O334 C340 1.255 . S
O335 Fe325 1.976 . S
O335 C330 1.287 . S
O336 Fe322 1.996 . S
O336 C330 1.255 . S
C337 O341 1.295 . S
C337 O342 1.235 . S
O338 Fe323 1.976 . S
O338 C332 1.287 . S
O339 Fe325 1.996 . S
O339 C332 1.255 . S
C340 O333 1.287 . S
C340 O334 1.255 . S
O341 Fe323 2.002 . S
O341 C337 1.295 . S
O342 Fe325 1.997 . S
O342 C337 1.235 . S
C343 O326 1.295 . S
C343 O327 1.235 . S
H344 C352 0.929 . S
H345 C354 0.930 . S
H346 C356 0.930 . S
H347 C359 0.929 . S
H348 C362 0.930 . S
H349 C364 0.960 . S
H350 C364 0.960 . S
H351 C364 0.960 . S
C352 H344 0.929 . S
C352 C353 1.377 . S
C352 C354 1.384 . S
C353 C352 1.377 . S
C353 C359 1.390 . S
C354 H345 0.930 . S
C354 C352 1.384 . S
C354 C355 1.372 . S
C355 C354 1.372 . S
C355 C356 1.400 . S
C355 C360 1.490 . S
C356 H346 0.930 . S
C356 C355 1.400 . S
C356 C359 1.386 . S
H357 C373 0.930 . S
H358 C374 0.931 . S
C359 H347 0.929 . S
C359 C353 1.390 . S
C359 C356 1.386 . S
C360 C355 1.490 . S
C360 C362 1.395 . S
C360 C363 1.403 . S
H361 C367 0.930 . S
C362 H348 0.930 . S
C362 C360 1.395 . S
C362 C365 1.403 . S
C363 C360 1.403 . S
C363 C364 1.524 . S
C363 C367 1.400 . S
C364 H349 0.960 . S
C364 H350 0.960 . S
C364 H351 0.960 . S
C364 C363 1.524 . S
C365 C362 1.403 . S
C365 C366 1.392 . S
C365 C369 1.495 . S
C366 C365 1.392 . S
C366 C367 1.385 . S
C366 C368 1.478 . S
C367 H361 0.930 . S
C367 C363 1.400 . S
C367 C366 1.385 . S
C368 C366 1.478 . S
C368 C370 1.381 . S
C368 C374 1.383 . S
C369 C365 1.495 . S
C369 H375 0.959 . S
C369 H376 0.961 . S
C369 H377 0.960 . S
C370 C368 1.381 . S
C370 C371 1.394 . S
C370 H378 0.930 . S
C371 C370 1.394 . S
C371 C372 1.383 . S
C371 H379 0.929 . S
C372 C371 1.383 . S
C372 C373 1.377 . S
C373 H357 0.930 . S
C373 C372 1.377 . S
C373 C374 1.379 . S
C374 H358 0.931 . S
C374 C368 1.383 . S
C374 C373 1.379 . S
H375 C369 0.959 . S
H376 C369 0.961 . S
H377 C369 0.960 . S
H378 C370 0.930 . S
H379 C371 0.929 . S
H380 C388 0.929 . S
H381 C390 0.930 . S
H382 C392 0.930 . S
H383 C395 0.929 . S
H384 C398 0.930 . S
H385 C400 0.960 . S
H386 C400 0.960 . S
H387 C400 0.960 . S
C388 H380 0.929 . S
C388 C389 1.377 . S
C388 C390 1.384 . S
C389 C388 1.377 . S
C389 C395 1.390 . S
C390 H381 0.930 . S
C390 C388 1.384 . S
C390 C391 1.372 . S
C391 C390 1.372 . S
C391 C392 1.400 . S
C391 C396 1.490 . S
C392 H382 0.930 . S
C392 C391 1.400 . S
C392 C395 1.386 . S
H393 C409 0.930 . S
H394 C410 0.931 . S
C395 H383 0.929 . S
C395 C389 1.390 . S
C395 C392 1.386 . S
C396 C391 1.490 . S
C396 C398 1.395 . S
C396 C399 1.403 . S
H397 C403 0.930 . S
C398 H384 0.930 . S
C398 C396 1.395 . S
C398 C401 1.403 . S
C399 C396 1.403 . S
C399 C400 1.524 . S
C399 C403 1.400 . S
C400 H385 0.960 . S
C400 H386 0.960 . S
C400 H387 0.960 . S
C400 C399 1.524 . S
C401 C398 1.403 . S
C401 C402 1.392 . S
C401 C405 1.495 . S
C402 C401 1.392 . S
C402 C403 1.385 . S
C402 C404 1.478 . S
C403 H397 0.930 . S
C403 C399 1.400 . S
C403 C402 1.385 . S
C404 C402 1.478 . S
C404 C406 1.381 . S
C404 C410 1.383 . S
C405 C401 1.495 . S
C405 H411 0.959 . S
C405 H412 0.961 . S
C405 H413 0.960 . S
C406 C404 1.381 . S
C406 C407 1.394 . S
C406 H414 0.930 . S
C407 C406 1.394 . S
C407 C408 1.383 . S
C407 H415 0.929 . S
C408 C407 1.383 . S
C408 C409 1.377 . S
C409 H393 0.930 . S
C409 C408 1.377 . S
C409 C410 1.379 . S
C410 H394 0.931 . S
C410 C404 1.383 . S
C410 C409 1.379 . S
H411 C405 0.959 . S
H412 C405 0.961 . S
H413 C405 0.960 . S
H414 C406 0.930 . S
H415 C407 0.929 . S
H416 C424 0.929 . S
H417 C426 0.930 . S
H418 C428 0.930 . S
H419 C431 0.929 . S
H420 C434 0.930 . S
H421 C436 0.960 . S
H422 C436 0.960 . S
H423 C436 0.960 . S
C424 H416 0.929 . S
C424 C425 1.377 . S
C424 C426 1.384 . S
C425 C424 1.377 . S
C425 C431 1.390 . S
C426 H417 0.930 . S
C426 C424 1.384 . S
C426 C427 1.372 . S
C427 C426 1.372 . S
C427 C428 1.400 . S
C427 C432 1.490 . S
C428 H418 0.930 . S
C428 C427 1.400 . S
C428 C431 1.386 . S
H429 C445 0.930 . S
H430 C446 0.931 . S
C431 H419 0.929 . S
C431 C425 1.390 . S
C431 C428 1.386 . S
C432 C427 1.490 . S
C432 C434 1.395 . S
C432 C435 1.403 . S
H433 C439 0.930 . S
C434 H420 0.930 . S
C434 C432 1.395 . S
C434 C437 1.403 . S
C435 C432 1.403 . S
C435 C436 1.524 . S
C435 C439 1.400 . S
C436 H421 0.960 . S
C436 H422 0.960 . S
C436 H423 0.960 . S
C436 C435 1.524 . S
C437 C434 1.403 . S
C437 C438 1.392 . S
C437 C441 1.495 . S
C438 C437 1.392 . S
C438 C439 1.385 . S
C438 C440 1.478 . S
C439 H433 0.930 . S
C439 C435 1.400 . S
C439 C438 1.385 . S
C440 C438 1.478 . S
C440 C442 1.381 . S
C440 C446 1.383 . S
C441 C437 1.495 . S
C441 H447 0.959 . S
C441 H448 0.961 . S
C441 H449 0.960 . S
C442 C440 1.381 . S
C442 C443 1.394 . S
C442 H450 0.930 . S
C443 C442 1.394 . S
C443 C444 1.383 . S
C443 H451 0.929 . S
C444 C443 1.383 . S
C444 C445 1.377 . S
C445 H429 0.930 . S
C445 C444 1.377 . S
C445 C446 1.379 . S
C446 H430 0.931 . S
C446 C440 1.383 . S
C446 C445 1.379 . S
H447 C441 0.959 . S
H448 C441 0.961 . S
H449 C441 0.960 . S
H450 C442 0.930 . S
H451 C443 0.929 . S
H452 C460 0.929 . S
H453 C462 0.930 . S
H454 C464 0.930 . S
H455 C467 0.929 . S
H456 C470 0.930 . S
H457 C472 0.960 . S
H458 C472 0.960 . S
H459 C472 0.960 . S
C460 H452 0.929 . S
C460 C461 1.377 . S
C460 C462 1.384 . S
C461 C460 1.377 . S
C461 C467 1.390 . S
C462 H453 0.930 . S
C462 C460 1.384 . S
C462 C463 1.372 . S
C463 C462 1.372 . S
C463 C464 1.400 . S
C463 C468 1.490 . S
C464 H454 0.930 . S
C464 C463 1.400 . S
C464 C467 1.386 . S
H465 C481 0.930 . S
H466 C482 0.931 . S
C467 H455 0.929 . S
C467 C461 1.390 . S
C467 C464 1.386 . S
C468 C463 1.490 . S
C468 C470 1.395 . S
C468 C471 1.403 . S
H469 C475 0.930 . S
C470 H456 0.930 . S
C470 C468 1.395 . S
C470 C473 1.403 . S
C471 C468 1.403 . S
C471 C472 1.524 . S
C471 C475 1.400 . S
C472 H457 0.960 . S
C472 H458 0.960 . S
C472 H459 0.960 . S
C472 C471 1.524 . S
C473 C470 1.403 . S
C473 C474 1.392 . S
C473 C477 1.495 . S
C474 C473 1.392 . S
C474 C475 1.385 . S
C474 C476 1.478 . S
C475 H469 0.930 . S
C475 C471 1.400 . S
C475 C474 1.385 . S
C476 C474 1.478 . S
C476 C478 1.381 . S
C476 C482 1.383 . S
C477 C473 1.495 . S
C477 H483 0.959 . S
C477 H484 0.961 . S
C477 H485 0.960 . S
C478 C476 1.381 . S
C478 C479 1.394 . S
C478 H486 0.930 . S
C479 C478 1.394 . S
C479 C480 1.383 . S
C479 H487 0.929 . S
C480 C479 1.383 . S
C480 C481 1.377 . S
C481 H465 0.930 . S
C481 C480 1.377 . S
C481 C482 1.379 . S
C482 H466 0.931 . S
C482 C476 1.383 . S
C482 C481 1.379 . S
H483 C477 0.959 . S
H484 C477 0.961 . S
H485 C477 0.960 . S
H486 C478 0.930 . S
H487 C479 0.929 . S
H488 C496 0.929 . S
H489 C498 0.930 . S
H490 C500 0.930 . S
H491 C503 0.929 . S
H492 C506 0.930 . S
H493 C508 0.960 . S
H494 C508 0.960 . S
H495 C508 0.960 . S
C496 H488 0.929 . S
C496 C497 1.377 . S
C496 C498 1.384 . S
C497 C496 1.377 . S
C497 C503 1.390 . S
C498 H489 0.930 . S
C498 C496 1.384 . S
C498 C499 1.372 . S
C499 C498 1.372 . S
C499 C500 1.400 . S
C499 C504 1.490 . S
C500 H490 0.930 . S
C500 C499 1.400 . S
C500 C503 1.386 . S
H501 C517 0.930 . S
H502 C518 0.931 . S
C503 H491 0.929 . S
C503 C497 1.390 . S
C503 C500 1.386 . S
C504 C499 1.490 . S
C504 C506 1.395 . S
C504 C507 1.403 . S
H505 C511 0.930 . S
C506 H492 0.930 . S
C506 C504 1.395 . S
C506 C509 1.403 . S
C507 C504 1.403 . S
C507 C508 1.524 . S
C507 C511 1.400 . S
C508 H493 0.960 . S
C508 H494 0.960 . S
C508 H495 0.960 . S
C508 C507 1.524 . S
C509 C506 1.403 . S
C509 C510 1.392 . S
C509 C513 1.495 . S
C510 C509 1.392 . S
C510 C511 1.385 . S
C510 C512 1.478 . S
C511 H505 0.930 . S
C511 C507 1.400 . S
C511 C510 1.385 . S
C512 C510 1.478 . S
C512 C514 1.381 . S
C512 C518 1.383 . S
C513 C509 1.495 . S
C513 H519 0.959 . S
C513 H520 0.961 . S
C513 H521 0.960 . S
C514 C512 1.381 . S
C514 C515 1.394 . S
C514 H522 0.930 . S
C515 C514 1.394 . S
C515 C516 1.383 . S
C515 H523 0.929 . S
C516 C515 1.383 . S
C516 C517 1.377 . S
C517 H501 0.930 . S
C517 C516 1.377 . S
C517 C518 1.379 . S
C518 H502 0.931 . S
C518 C512 1.383 . S
C518 C517 1.379 . S
H519 C513 0.959 . S
H520 C513 0.961 . S
H521 C513 0.960 . S
H522 C514 0.930 . S
H523 C515 0.929 . S
H524 C532 0.929 . S
H525 C534 0.930 . S
H526 C536 0.930 . S
H527 C539 0.929 . S
H528 C542 0.930 . S
H529 C544 0.960 . S
H530 C544 0.960 . S
H531 C544 0.960 . S
C532 H524 0.929 . S
C532 C533 1.377 . S
C532 C534 1.384 . S
C533 C532 1.377 . S
C533 C539 1.390 . S
C534 H525 0.930 . S
C534 C532 1.384 . S
C534 C535 1.372 . S
C535 C534 1.372 . S
C535 C536 1.400 . S
C535 C540 1.490 . S
C536 H526 0.930 . S
C536 C535 1.400 . S
C536 C539 1.386 . S
H537 C553 0.930 . S
H538 C554 0.931 . S
C539 H527 0.929 . S
C539 C533 1.390 . S
C539 C536 1.386 . S
C540 C535 1.490 . S
C540 C542 1.395 . S
C540 C543 1.403 . S
H541 C547 0.930 . S
C542 H528 0.930 . S
C542 C540 1.395 . S
C542 C545 1.403 . S
C543 C540 1.403 . S
C543 C544 1.524 . S
C543 C547 1.400 . S
C544 H529 0.960 . S
C544 H530 0.960 . S
C544 H531 0.960 . S
C544 C543 1.524 . S
C545 C542 1.403 . S
C545 C546 1.392 . S
C545 C549 1.495 . S
C546 C545 1.392 . S
C546 C547 1.385 . S
C546 C548 1.478 . S
C547 H541 0.930 . S
C547 C543 1.400 . S
C547 C546 1.385 . S
C548 C546 1.478 . S
C548 C550 1.381 . S
C548 C554 1.383 . S
C549 C545 1.495 . S
C549 H555 0.959 . S
C549 H556 0.961 . S
C549 H557 0.960 . S
C550 C548 1.381 . S
C550 C551 1.394 . S
C550 H558 0.930 . S
C551 C550 1.394 . S
C551 C552 1.383 . S
C551 H559 0.929 . S
C552 C551 1.383 . S
C552 C553 1.377 . S
C553 H537 0.930 . S
C553 C552 1.377 . S
C553 C554 1.379 . S
C554 H538 0.931 . S
C554 C548 1.383 . S
C554 C553 1.379 . S
H555 C549 0.959 . S
H556 C549 0.961 . S
H557 C549 0.960 . S
H558 C550 0.930 . S
H559 C551 0.929 . S
H560 C568 0.929 . S
H561 C570 0.930 . S
H562 C572 0.930 . S
H563 C575 0.929 . S
H564 C578 0.930 . S
H565 C580 0.960 . S
H566 C580 0.960 . S
H567 C580 0.960 . S
C568 H560 0.929 . S
C568 C569 1.377 . S
C568 C570 1.384 . S
C569 C568 1.377 . S
C569 C575 1.390 . S
C570 H561 0.930 . S
C570 C568 1.384 . S
C570 C571 1.372 . S
C571 C570 1.372 . S
C571 C572 1.400 . S
C571 C576 1.490 . S
C572 H562 0.930 . S
C572 C571 1.400 . S
C572 C575 1.386 . S
H573 C589 0.930 . S
H574 C590 0.931 . S
C575 H563 0.929 . S
C575 C569 1.390 . S
C575 C572 1.386 . S
C576 C571 1.490 . S
C576 C578 1.395 . S
C576 C579 1.403 . S
H577 C583 0.930 . S
C578 H564 0.930 . S
C578 C576 1.395 . S
C578 C581 1.403 . S
C579 C576 1.403 . S
C579 C580 1.524 . S
C579 C583 1.400 . S
C580 H565 0.960 . S
C580 H566 0.960 . S
C580 H567 0.960 . S
C580 C579 1.524 . S
C581 C578 1.403 . S
C581 C582 1.392 . S
C581 C585 1.495 . S
C582 C581 1.392 . S
C582 C583 1.385 . S
C582 C584 1.478 . S
C583 H577 0.930 . S
C583 C579 1.400 . S
C583 C582 1.385 . S
C584 C582 1.478 . S
C584 C586 1.381 . S
C584 C590 1.383 . S
C585 C581 1.495 . S
C585 H591 0.959 . S
C585 H592 0.961 . S
C585 H593 0.960 . S
C586 C584 1.381 . S
C586 C587 1.394 . S
C586 H594 0.930 . S
C587 C586 1.394 . S
C587 C588 1.383 . S
C587 H595 0.929 . S
C588 C587 1.383 . S
C588 C589 1.377 . S
C589 H573 0.930 . S
C589 C588 1.377 . S
C589 C590 1.379 . S
C590 H574 0.931 . S
C590 C584 1.383 . S
C590 C589 1.379 . S
H591 C585 0.959 . S
H592 C585 0.961 . S
H593 C585 0.960 . S
H594 C586 0.930 . S
H595 C587 0.929 . S
H596 C604 0.929 . S
H597 C606 0.930 . S
H598 C608 0.930 . S
H599 C611 0.929 . S
H600 C614 0.930 . S
H601 C616 0.960 . S
H602 C616 0.960 . S
H603 C616 0.960 . S
C604 H596 0.929 . S
C604 C605 1.377 . S
C604 C606 1.384 . S
C605 C604 1.377 . S
C605 C611 1.390 . S
C606 H597 0.930 . S
C606 C604 1.384 . S
C606 C607 1.372 . S
C607 C606 1.372 . S
C607 C608 1.400 . S
C607 C612 1.490 . S
C608 H598 0.930 . S
C608 C607 1.400 . S
C608 C611 1.386 . S
H609 C625 0.930 . S
H610 C626 0.931 . S
C611 H599 0.929 . S
C611 C605 1.390 . S
C611 C608 1.386 . S
C612 C607 1.490 . S
C612 C614 1.395 . S
C612 C615 1.403 . S
H613 C619 0.930 . S
C614 H600 0.930 . S
C614 C612 1.395 . S
C614 C617 1.403 . S
C615 C612 1.403 . S
C615 C616 1.524 . S
C615 C619 1.400 . S
C616 H601 0.960 . S
C616 H602 0.960 . S
C616 H603 0.960 . S
C616 C615 1.524 . S
C617 C614 1.403 . S
C617 C618 1.392 . S
C617 C621 1.495 . S
C618 C617 1.392 . S
C618 C619 1.385 . S
C618 C620 1.478 . S
C619 H613 0.930 . S
C619 C615 1.400 . S
C619 C618 1.385 . S
C620 C618 1.478 . S
C620 C622 1.381 . S
C620 C626 1.383 . S
C621 C617 1.495 . S
C621 H627 0.959 . S
C621 H628 0.961 . S
C621 H629 0.960 . S
C622 C620 1.381 . S
C622 C623 1.394 . S
C622 H630 0.930 . S
C623 C622 1.394 . S
C623 C624 1.383 . S
C623 H631 0.929 . S
C624 C623 1.383 . S
C624 C625 1.377 . S
C625 H609 0.930 . S
C625 C624 1.377 . S
C625 C626 1.379 . S
C626 H610 0.931 . S
C626 C620 1.383 . S
C626 C625 1.379 . S
H627 C621 0.959 . S
H628 C621 0.961 . S
H629 C621 0.960 . S
H630 C622 0.930 . S
H631 C623 0.929 . S
H632 C640 0.929 . S
H633 C642 0.930 . S
H634 C644 0.930 . S
H635 C647 0.929 . S
H636 C650 0.930 . S
H637 C652 0.960 . S
H638 C652 0.960 . S
H639 C652 0.960 . S
C640 H632 0.929 . S
C640 C641 1.377 . S
C640 C642 1.384 . S
C641 C640 1.377 . S
C641 C647 1.390 . S
C642 H633 0.930 . S
C642 C640 1.384 . S
C642 C643 1.372 . S
C643 C642 1.372 . S
C643 C644 1.400 . S
C643 C648 1.490 . S
C644 H634 0.930 . S
C644 C643 1.400 . S
C644 C647 1.386 . S
H645 C661 0.930 . S
H646 C662 0.931 . S
C647 H635 0.929 . S
C647 C641 1.390 . S
C647 C644 1.386 . S
C648 C643 1.490 . S
C648 C650 1.395 . S
C648 C651 1.403 . S
H649 C655 0.930 . S
C650 H636 0.930 . S
C650 C648 1.395 . S
C650 C653 1.403 . S
C651 C648 1.403 . S
C651 C652 1.524 . S
C651 C655 1.400 . S
C652 H637 0.960 . S
C652 H638 0.960 . S
C652 H639 0.960 . S
C652 C651 1.524 . S
C653 C650 1.403 . S
C653 C654 1.392 . S
C653 C657 1.495 . S
C654 C653 1.392 . S
C654 C655 1.385 . S
C654 C656 1.478 . S
C655 H649 0.930 . S
C655 C651 1.400 . S
C655 C654 1.385 . S
C656 C654 1.478 . S
C656 C658 1.381 . S
C656 C662 1.383 . S
C657 C653 1.495 . S
C657 H663 0.959 . S
C657 H664 0.961 . S
C657 H665 0.960 . S
C658 C656 1.381 . S
C658 C659 1.394 . S
C658 H666 0.930 . S
C659 C658 1.394 . S
C659 C660 1.383 . S
C659 H667 0.929 . S
C660 C659 1.383 . S
C660 C661 1.377 . S
C661 H645 0.930 . S
C661 C660 1.377 . S
C661 C662 1.379 . S
C662 H646 0.931 . S
C662 C656 1.383 . S
C662 C661 1.379 . S
H663 C657 0.959 . S
H664 C657 0.961 . S
H665 C657 0.960 . S
H666 C658 0.930 . S
H667 C659 0.929 . S
H668 C676 0.929 . S
H669 C678 0.930 . S
H670 C680 0.930 . S
H671 C683 0.929 . S
H672 C686 0.930 . S
H673 C688 0.960 . S
H674 C688 0.960 . S
H675 C688 0.960 . S
C676 H668 0.929 . S
C676 C677 1.377 . S
C676 C678 1.384 . S
C677 C676 1.377 . S
C677 C683 1.390 . S
C678 H669 0.930 . S
C678 C676 1.384 . S
C678 C679 1.372 . S
C679 C678 1.372 . S
C679 C680 1.400 . S
C679 C684 1.490 . S
C680 H670 0.930 . S
C680 C679 1.400 . S
C680 C683 1.386 . S
H681 C697 0.930 . S
H682 C698 0.931 . S
C683 H671 0.929 . S
C683 C677 1.390 . S
C683 C680 1.386 . S
C684 C679 1.490 . S
C684 C686 1.395 . S
C684 C687 1.403 . S
H685 C691 0.930 . S
C686 H672 0.930 . S
C686 C684 1.395 . S
C686 C689 1.403 . S
C687 C684 1.403 . S
C687 C688 1.524 . S
C687 C691 1.400 . S
C688 H673 0.960 . S
C688 H674 0.960 . S
C688 H675 0.960 . S
C688 C687 1.524 . S
C689 C686 1.403 . S
C689 C690 1.392 . S
C689 C693 1.495 . S
C690 C689 1.392 . S
C690 C691 1.385 . S
C690 C692 1.478 . S
C691 H685 0.930 . S
C691 C687 1.400 . S
C691 C690 1.385 . S
C692 C690 1.478 . S
C692 C694 1.381 . S
C692 C698 1.383 . S
C693 C689 1.495 . S
C693 H699 0.959 . S
C693 H700 0.961 . S
C693 H701 0.960 . S
C694 C692 1.381 . S
C694 C695 1.394 . S
C694 H702 0.930 . S
C695 C694 1.394 . S
C695 C696 1.383 . S
C695 H703 0.929 . S
C696 C695 1.383 . S
C696 C697 1.377 . S
C697 H681 0.930 . S
C697 C696 1.377 . S
C697 C698 1.379 . S
C698 H682 0.931 . S
C698 C692 1.383 . S
C698 C697 1.379 . S
H699 C693 0.959 . S
H700 C693 0.961 . S
H701 C693 0.960 . S
H702 C694 0.930 . S
H703 C695 0.929 . S
H704 C712 0.929 . S
H705 C714 0.930 . S
H706 C716 0.930 . S
H707 C719 0.929 . S
H708 C722 0.930 . S
H709 C724 0.960 . S
H710 C724 0.960 . S
H711 C724 0.960 . S
C712 H704 0.929 . S
C712 C713 1.377 . S
C712 C714 1.384 . S
C713 C712 1.377 . S
C713 C719 1.390 . S
C714 H705 0.930 . S
C714 C712 1.384 . S
C714 C715 1.372 . S
C715 C714 1.372 . S
C715 C716 1.400 . S
C715 C720 1.490 . S
C716 H706 0.930 . S
C716 C715 1.400 . S
C716 C719 1.386 . S
H717 C733 0.930 . S
H718 C734 0.931 . S
C719 H707 0.929 . S
C719 C713 1.390 . S
C719 C716 1.386 . S
C720 C715 1.490 . S
C720 C722 1.395 . S
C720 C723 1.403 . S
H721 C727 0.930 . S
C722 H708 0.930 . S
C722 C720 1.395 . S
C722 C725 1.403 . S
C723 C720 1.403 . S
C723 C724 1.524 . S
C723 C727 1.400 . S
C724 H709 0.960 . S
C724 H710 0.960 . S
C724 H711 0.960 . S
C724 C723 1.524 . S
C725 C722 1.403 . S
C725 C726 1.392 . S
C725 C729 1.495 . S
C726 C725 1.392 . S
C726 C727 1.385 . S
C726 C728 1.478 . S
C727 H721 0.930 . S
C727 C723 1.400 . S
C727 C726 1.385 . S
C728 C726 1.478 . S
C728 C730 1.381 . S
C728 C734 1.383 . S
C729 C725 1.495 . S
C729 H735 0.959 . S
C729 H736 0.961 . S
C729 H737 0.960 . S
C730 C728 1.381 . S
C730 C731 1.394 . S
C730 H738 0.930 . S
C731 C730 1.394 . S
C731 C732 1.383 . S
C731 H739 0.929 . S
C732 C731 1.383 . S
C732 C733 1.377 . S
C733 H717 0.930 . S
C733 C732 1.377 . S
C733 C734 1.379 . S
C734 H718 0.931 . S
C734 C728 1.383 . S
C734 C733 1.379 . S
H735 C729 0.959 . S
H736 C729 0.961 . S
H737 C729 0.960 . S
H738 C730 0.930 . S
H739 C731 0.929 . S
H740 C748 0.929 . S
H741 C750 0.930 . S
H742 C752 0.930 . S
H743 C755 0.929 . S
H744 C758 0.930 . S
H745 C760 0.960 . S
H746 C760 0.960 . S
H747 C760 0.960 . S
C748 H740 0.929 . S
C748 C749 1.377 . S
C748 C750 1.384 . S
C749 C748 1.377 . S
C749 C755 1.390 . S
C750 H741 0.930 . S
C750 C748 1.384 . S
C750 C751 1.372 . S
C751 C750 1.372 . S
C751 C752 1.400 . S
C751 C756 1.490 . S
C752 H742 0.930 . S
C752 C751 1.400 . S
C752 C755 1.386 . S
H753 C769 0.930 . S
H754 C770 0.931 . S
C755 H743 0.929 . S
C755 C749 1.390 . S
C755 C752 1.386 . S
C756 C751 1.490 . S
C756 C758 1.395 . S
C756 C759 1.403 . S
H757 C763 0.930 . S
C758 H744 0.930 . S
C758 C756 1.395 . S
C758 C761 1.403 . S
C759 C756 1.403 . S
C759 C760 1.524 . S
C759 C763 1.400 . S
C760 H745 0.960 . S
C760 H746 0.960 . S
C760 H747 0.960 . S
C760 C759 1.524 . S
C761 C758 1.403 . S
C761 C762 1.392 . S
C761 C765 1.495 . S
C762 C761 1.392 . S
C762 C763 1.385 . S
C762 C764 1.478 . S
C763 H757 0.930 . S
C763 C759 1.400 . S
C763 C762 1.385 . S
C764 C762 1.478 . S
C764 C766 1.381 . S
C764 C770 1.383 . S
C765 C761 1.495 . S
C765 H771 0.959 . S
C765 H772 0.961 . S
C765 H773 0.960 . S
C766 C764 1.381 . S
C766 C767 1.394 . S
C766 H774 0.930 . S
C767 C766 1.394 . S
C767 C768 1.383 . S
C767 H775 0.929 . S
C768 C767 1.383 . S
C768 C769 1.377 . S
C769 H753 0.930 . S
C769 C768 1.377 . S
C769 C770 1.379 . S
C770 H754 0.931 . S
C770 C764 1.383 . S
C770 C769 1.379 . S
H771 C765 0.959 . S
H772 C765 0.961 . S
H773 C765 0.960 . S
H774 C766 0.930 . S
H775 C767 0.929 . S
H776 C784 0.929 . S
H777 C786 0.930 . S
H778 C788 0.930 1_545 S
H779 C791 0.929 . S
H780 C794 0.930 . S
H781 C796 0.960 . S
H782 C796 0.960 . S
H783 C796 0.960 . S
C784 H776 0.929 . S
C784 C785 1.377 . S
C784 C786 1.384 . S
C785 C784 1.377 . S
C785 C791 1.390 . S
C786 H777 0.930 . S
C786 C784 1.384 . S
C786 C787 1.372 1_565 S
C787 C786 1.372 1_545 S
C787 C788 1.400 1_545 S
C787 C792 1.490 . S
C788 H778 0.930 1_565 S
C788 C787 1.400 1_565 S
C788 C791 1.386 . S
H789 C805 0.930 . S
H790 C806 0.931 . S
C791 H779 0.929 . S
C791 C785 1.390 . S
C791 C788 1.386 . S
C792 C787 1.490 . S
C792 C794 1.395 . S
C792 C795 1.403 . S
H793 C799 0.930 . S
C794 H780 0.930 . S
C794 C792 1.395 . S
C794 C797 1.403 . S
C795 C792 1.403 . S
C795 C796 1.524 1_545 S
C795 C799 1.400 . S
C796 H781 0.960 . S
C796 H782 0.960 . S
C796 H783 0.960 . S
C796 C795 1.524 1_565 S
C797 C794 1.403 . S
C797 C798 1.392 . S
C797 C801 1.495 . S
C798 C797 1.392 . S
C798 C799 1.385 . S
C798 C800 1.478 . S
C799 H793 0.930 . S
C799 C795 1.400 . S
C799 C798 1.385 . S
C800 C798 1.478 . S
C800 C802 1.381 . S
C800 C806 1.383 . S
C801 C797 1.495 . S
C801 H807 0.959 . S
C801 H808 0.961 . S
C801 H809 0.960 . S
C802 C800 1.381 . S
C802 C803 1.394 . S
C802 H810 0.930 . S
C803 C802 1.394 . S
C803 C804 1.383 . S
C803 H811 0.929 . S
C804 C803 1.383 . S
C804 C805 1.377 . S
C805 H789 0.930 . S
C805 C804 1.377 . S
C805 C806 1.379 . S
C806 H790 0.931 . S
C806 C800 1.383 . S
C806 C805 1.379 . S
H807 C801 0.959 . S
H808 C801 0.961 . S
H809 C801 0.960 . S
H810 C802 0.930 . S
H811 C803 0.929 . S
H812 C820 0.929 . S
H813 C822 0.930 . S
H814 C824 0.930 . S
H815 C827 0.929 . S
H816 C830 0.930 . S
H817 C832 0.960 . S
H818 C832 0.960 . S
H819 C832 0.960 . S
C820 H812 0.929 . S
C820 C821 1.377 . S
C820 C822 1.384 1_545 S
C821 C820 1.377 . S
C821 C827 1.390 . S
C822 H813 0.930 . S
C822 C820 1.384 1_565 S
C822 C823 1.372 . S
C823 C822 1.372 . S
C823 C824 1.400 1_565 S
C823 C828 1.490 . S
C824 H814 0.930 . S
C824 C823 1.400 1_545 S
C824 C827 1.386 . S
H825 C841 0.930 . S
H826 C842 0.931 . S
C827 H815 0.929 . S
C827 C821 1.390 . S
C827 C824 1.386 . S
C828 C823 1.490 . S
C828 C830 1.395 . S
C828 C831 1.403 . S
H829 C835 0.930 . S
C830 H816 0.930 . S
C830 C828 1.395 . S
C830 C833 1.403 . S
C831 C828 1.403 . S
C831 C832 1.524 . S
C831 C835 1.400 . S
C832 H817 0.960 . S
C832 H818 0.960 . S
C832 H819 0.960 . S
C832 C831 1.524 . S
C833 C830 1.403 . S
C833 C834 1.392 . S
C833 C837 1.495 . S
C834 C833 1.392 . S
C834 C835 1.385 . S
C834 C836 1.478 . S
C835 H829 0.930 . S
C835 C831 1.400 . S
C835 C834 1.385 . S
C836 C834 1.478 . S
C836 C838 1.381 . S
C836 C842 1.383 . S
C837 C833 1.495 . S
C837 H843 0.959 . S
C837 H844 0.961 . S
C837 H845 0.960 . S
C838 C836 1.381 . S
C838 C839 1.394 . S
C838 H846 0.930 . S
C839 C838 1.394 . S
C839 C840 1.383 . S
C839 H847 0.929 . S
C840 C839 1.383 . S
C840 C841 1.377 . S
C841 H825 0.930 . S
C841 C840 1.377 . S
C841 C842 1.379 . S
C842 H826 0.931 . S
C842 C836 1.383 . S
C842 C841 1.379 . S
H843 C837 0.959 . S
H844 C837 0.961 . S
H845 C837 0.960 . S
H846 C838 0.930 . S
H847 C839 0.929 . S
H848 C856 0.934 . S
H849 C858 0.930 . S
H850 C860 0.930 . S
H851 C863 0.929 . S
H852 C866 0.930 . S
H853 C868 0.960 . S
H854 C868 0.960 . S
H855 C868 0.960 1_565 S
C856 H848 0.934 . S
C856 C857 1.377 . S
C856 C858 1.384 1_565 S
C857 C856 1.377 . S
C857 C863 1.390 . S
C858 H849 0.930 . S
C858 C856 1.384 1_545 S
C858 C859 1.372 . S
C859 C858 1.372 . S
C859 C860 1.400 1_545 S
C859 C864 1.490 . S
C860 H850 0.930 . S
C860 C859 1.400 1_565 S
C860 C863 1.386 . S
H861 C877 0.930 . S
H862 C878 0.931 . S
C863 H851 0.929 . S
C863 C857 1.390 . S
C863 C860 1.386 . S
C864 C859 1.490 . S
C864 C866 1.395 . S
C864 C867 1.403 . S
H865 C871 0.930 . S
C866 H852 0.930 . S
C866 C864 1.395 . S
C866 C869 1.403 . S
C867 C864 1.403 . S
C867 C868 1.524 . S
C867 C871 1.400 . S
C868 H853 0.960 . S
C868 H854 0.960 . S
C868 H855 0.960 1_545 S
C868 C867 1.524 . S
C869 C866 1.403 . S
C869 C870 1.392 . S
C869 C873 1.495 . S
C870 C869 1.392 . S
C870 C871 1.385 . S
C870 C872 1.478 . S
C871 H865 0.930 . S
C871 C867 1.400 . S
C871 C870 1.385 . S
C872 C870 1.478 . S
C872 C874 1.381 . S
C872 C878 1.383 . S
C873 C869 1.495 . S
C873 H879 0.959 . S
C873 H880 0.961 . S
C873 H881 0.960 . S
C874 C872 1.381 . S
C874 C875 1.394 . S
C874 H882 0.930 . S
C875 C874 1.394 . S
C875 C876 1.383 . S
C875 H883 0.929 . S
C876 C875 1.383 . S
C876 C877 1.377 . S
C877 H861 0.930 . S
C877 C876 1.377 . S
C877 C878 1.379 . S
C878 H862 0.931 . S
C878 C872 1.383 . S
C878 C877 1.379 . S
H879 C873 0.959 . S
H880 C873 0.961 . S
H881 C873 0.960 . S
H882 C874 0.930 . S
H883 C875 0.929 . S
H884 C892 0.929 . S
H885 C894 0.930 . S
H886 C896 0.930 . S
H887 C899 0.929 1_565 S
H888 C902 0.930 . S
H889 C904 0.960 . S
H890 C904 0.960 . S
H891 C904 0.960 . S
C892 H884 0.929 . S
C892 C893 1.377 . S
C892 C894 1.384 . S
C893 C892 1.377 . S
C893 C899 1.390 . S
C894 H885 0.930 . S
C894 C892 1.384 . S
C894 C895 1.372 1_545 S
C895 C894 1.372 1_565 S
C895 C896 1.400 . S
C895 C900 1.490 . S
C896 H886 0.930 . S
C896 C895 1.400 . S
C896 C899 1.386 1_565 S
H897 C913 0.930 . S
H898 C914 0.931 . S
C899 H887 0.929 1_545 S
C899 C893 1.390 . S
C899 C896 1.386 1_545 S
C900 C895 1.490 . S
C900 C902 1.395 . S
C900 C903 1.403 . S
H901 C907 0.930 . S
C902 H888 0.930 . S
C902 C900 1.395 . S
C902 C905 1.403 . S
C903 C900 1.403 . S
C903 C904 1.524 . S
C903 C907 1.400 . S
C904 H889 0.960 . S
C904 H890 0.960 . S
C904 H891 0.960 . S
C904 C903 1.524 . S
C905 C902 1.403 . S
C905 C906 1.392 . S
C905 C909 1.495 . S
C906 C905 1.392 . S
C906 C907 1.385 . S
C906 C908 1.478 . S
C907 H901 0.930 . S
C907 C903 1.400 . S
C907 C906 1.385 . S
C908 C906 1.478 . S
C908 C910 1.381 . S
C908 C914 1.383 . S
C909 C905 1.495 . S
C909 H915 0.959 . S
C909 H916 0.961 . S
C909 H917 0.960 . S
C910 C908 1.381 . S
C910 C911 1.394 . S
C910 H918 0.930 . S
C911 C910 1.394 . S
C911 C912 1.383 . S
C911 H919 0.929 . S
C912 C911 1.383 . S
C912 C913 1.377 . S
C913 H897 0.930 . S
C913 C912 1.377 . S
C913 C914 1.379 . S
C914 H898 0.931 . S
C914 C908 1.383 . S
C914 C913 1.379 . S
H915 C909 0.959 . S
H916 C909 0.961 . S
H917 C909 0.960 . S
H918 C910 0.930 . S
H919 C911 0.929 . S
H920 C928 0.929 . S
H921 C930 0.930 . S
H922 C932 0.930 . S
H923 C935 0.929 . S
H924 C938 0.930 . S
H925 C940 0.960 . S
H926 C940 0.960 . S
H927 C940 0.960 . S
C928 H920 0.929 . S
C928 C929 1.377 . S
C928 C930 1.384 . S
C929 C928 1.377 . S
C929 C935 1.390 . S
C930 H921 0.930 . S
C930 C928 1.384 . S
C930 C931 1.372 . S
C931 C930 1.372 . S
C931 C932 1.400 . S
C931 C936 1.490 . S
C932 H922 0.930 . S
C932 C931 1.400 . S
C932 C935 1.386 . S
H933 C949 0.930 . S
H934 C950 0.931 . S
C935 H923 0.929 . S
C935 C929 1.390 . S
C935 C932 1.386 . S
C936 C931 1.490 . S
C936 C938 1.395 . S
C936 C939 1.403 . S
H937 C943 0.930 . S
C938 H924 0.930 . S
C938 C936 1.395 . S
C938 C941 1.403 . S
C939 C936 1.403 . S
C939 C940 1.524 . S
C939 C943 1.400 . S
C940 H925 0.960 . S
C940 H926 0.960 . S
C940 H927 0.960 . S
C940 C939 1.524 . S
C941 C938 1.403 . S
C941 C942 1.392 . S
C941 C945 1.495 . S
C942 C941 1.392 . S
C942 C943 1.385 . S
C942 C944 1.478 . S
C943 H937 0.930 . S
C943 C939 1.400 . S
C943 C942 1.385 . S
C944 C942 1.478 . S
C944 C946 1.381 . S
C944 C950 1.383 . S
C945 C941 1.495 . S
C945 H951 0.959 . S
C945 H952 0.961 . S
C945 H953 0.960 . S
C946 C944 1.381 . S
C946 C947 1.394 . S
C946 H954 0.930 . S
C947 C946 1.394 . S
C947 C948 1.383 . S
C947 H955 0.929 . S
C948 C947 1.383 . S
C948 C949 1.377 . S
C949 H933 0.930 . S
C949 C948 1.377 . S
C949 C950 1.379 . S
C950 H934 0.931 . S
C950 C944 1.383 . S
C950 C949 1.379 . S
H951 C945 0.959 . S
H952 C945 0.961 . S
H953 C945 0.960 . S
H954 C946 0.930 . S
H955 C947 0.929 . S
H956 C964 0.929 . S
H957 C966 0.930 . S
H958 C968 0.930 . S
H959 C971 0.929 . S
H960 C974 0.930 . S
H961 C976 0.960 . S
H962 C976 0.960 . S
H963 C976 0.960 . S
C964 H956 0.929 . S
C964 C965 1.377 . S
C964 C966 1.384 . S
C965 C964 1.377 . S
C965 C971 1.390 . S
C966 H957 0.930 . S
C966 C964 1.384 . S
C966 C967 1.372 . S
C967 C966 1.372 . S
C967 C968 1.400 . S
C967 C972 1.490 . S
C968 H958 0.930 . S
C968 C967 1.400 . S
C968 C971 1.386 . S
H969 C985 0.930 . S
H970 C986 0.931 . S
C971 H959 0.929 . S
C971 C965 1.390 . S
C971 C968 1.386 . S
C972 C967 1.490 . S
C972 C974 1.395 . S
C972 C975 1.403 . S
H973 C979 0.930 . S
C974 H960 0.930 . S
C974 C972 1.395 . S
C974 C977 1.403 . S
C975 C972 1.403 . S
C975 C976 1.524 . S
C975 C979 1.400 . S
C976 H961 0.960 . S
C976 H962 0.960 . S
C976 H963 0.960 . S
C976 C975 1.524 . S
C977 C974 1.403 . S
C977 C978 1.392 . S
C977 C981 1.495 . S
C978 C977 1.392 . S
C978 C979 1.385 . S
C978 C980 1.478 . S
C979 H973 0.930 . S
C979 C975 1.400 . S
C979 C978 1.385 . S
C980 C978 1.478 . S
C980 C982 1.381 . S
C980 C986 1.383 . S
C981 C977 1.495 . S
C981 H987 0.959 . S
C981 H988 0.961 . S
C981 H989 0.960 . S
C982 C980 1.381 . S
C982 C983 1.394 . S
C982 H990 0.930 . S
C983 C982 1.394 . S
C983 C984 1.383 . S
C983 H991 0.929 . S
C984 C983 1.383 . S
C984 C985 1.377 . S
C985 H969 0.930 . S
C985 C984 1.377 . S
C985 C986 1.379 . S
C986 H970 0.931 . S
C986 C980 1.383 . S
C986 C985 1.379 . S
H987 C981 0.959 . S
H988 C981 0.961 . S
H989 C981 0.960 . S
H990 C982 0.930 . S
H991 C983 0.929 . S
H992 C1000 0.929 . S
H993 C1002 0.930 . S
H994 C1004 0.930 . S
H995 C1007 0.929 . S
H996 C1010 0.930 . S
H997 C1012 0.960 . S
H998 C1012 0.960 . S
H999 C1012 0.960 . S
C1000 H992 0.929 . S
C1000 C1001 1.377 . S
C1000 C1002 1.384 . S
C1001 C1000 1.377 . S
C1001 C1007 1.390 . S
C1002 H993 0.930 . S
C1002 C1000 1.384 . S
C1002 C1003 1.372 . S
C1003 C1002 1.372 . S
C1003 C1004 1.400 . S
C1003 C1008 1.490 . S
C1004 H994 0.930 . S
C1004 C1003 1.400 . S
C1004 C1007 1.386 . S
H1005 C1021 0.930 . S
H1006 C1022 0.931 . S
C1007 H995 0.929 . S
C1007 C1001 1.390 . S
C1007 C1004 1.386 . S
C1008 C1003 1.490 . S
C1008 C1010 1.395 . S
C1008 C1011 1.403 . S
H1009 C1015 0.930 . S
C1010 H996 0.930 . S
C1010 C1008 1.395 . S
C1010 C1013 1.403 . S
C1011 C1008 1.403 . S
C1011 C1012 1.524 . S
C1011 C1015 1.400 . S
C1012 H997 0.960 . S
C1012 H998 0.960 . S
C1012 H999 0.960 . S
C1012 C1011 1.524 . S
C1013 C1010 1.403 . S
C1013 C1014 1.392 . S
C1013 C1017 1.495 . S
C1014 C1013 1.392 . S
C1014 C1015 1.385 . S
C1014 C1016 1.478 . S
C1015 H1009 0.930 . S
C1015 C1011 1.400 . S
C1015 C1014 1.385 . S
C1016 C1014 1.478 . S
C1016 C1018 1.381 . S
C1016 C1022 1.383 . S
C1017 C1013 1.495 . S
C1017 H1023 0.959 . S
C1017 H1024 0.961 . S
C1017 H1025 0.960 . S
C1018 C1016 1.381 . S
C1018 C1019 1.394 . S
C1018 H1026 0.930 . S
C1019 C1018 1.394 . S
C1019 C1020 1.383 . S
C1019 H1027 0.929 . S
C1020 C1019 1.383 . S
C1020 C1021 1.377 . S
C1021 H1005 0.930 . S
C1021 C1020 1.377 . S
C1021 C1022 1.379 . S
C1022 H1006 0.931 . S
C1022 C1016 1.383 . S
C1022 C1021 1.379 . S
H1023 C1017 0.959 . S
H1024 C1017 0.961 . S
H1025 C1017 0.960 . S
H1026 C1018 0.930 . S
H1027 C1019 0.929 . S
H1028 C1036 0.929 . S
H1029 C1038 0.930 . S
H1030 C1040 0.930 . S
H1031 C1043 0.929 . S
H1032 C1046 0.930 . S
H1033 C1048 0.960 . S
H1034 C1048 0.960 . S
H1035 C1048 0.960 . S
C1036 H1028 0.929 . S
C1036 C1037 1.377 . S
C1036 C1038 1.384 . S
C1037 C1036 1.377 . S
C1037 C1043 1.390 . S
C1038 H1029 0.930 . S
C1038 C1036 1.384 . S
C1038 C1039 1.372 . S
C1039 C1038 1.372 . S
C1039 C1040 1.400 . S
C1039 C1044 1.490 . S
C1040 H1030 0.930 . S
C1040 C1039 1.400 . S
C1040 C1043 1.386 . S
H1041 C1057 0.930 . S
H1042 C1058 0.931 . S
C1043 H1031 0.929 . S
C1043 C1037 1.390 . S
C1043 C1040 1.386 . S
C1044 C1039 1.490 . S
C1044 C1046 1.395 . S
C1044 C1047 1.403 . S
H1045 C1051 0.930 . S
C1046 H1032 0.930 . S
C1046 C1044 1.395 . S
C1046 C1049 1.403 . S
C1047 C1044 1.403 . S
C1047 C1048 1.524 . S
C1047 C1051 1.400 . S
C1048 H1033 0.960 . S
C1048 H1034 0.960 . S
C1048 H1035 0.960 . S
C1048 C1047 1.524 . S
C1049 C1046 1.403 . S
C1049 C1050 1.392 . S
C1049 C1053 1.495 . S
C1050 C1049 1.392 . S
C1050 C1051 1.385 . S
C1050 C1052 1.478 . S
C1051 H1045 0.930 . S
C1051 C1047 1.400 . S
C1051 C1050 1.385 . S
C1052 C1050 1.478 . S
C1052 C1054 1.381 . S
C1052 C1058 1.383 . S
C1053 C1049 1.495 . S
C1053 H1059 0.959 . S
C1053 H1060 0.961 . S
C1053 H1061 0.960 . S
C1054 C1052 1.381 . S
C1054 C1055 1.394 . S
C1054 H1062 0.930 . S
C1055 C1054 1.394 . S
C1055 C1056 1.383 . S
C1055 H1063 0.929 . S
C1056 C1055 1.383 . S
C1056 C1057 1.377 . S
C1057 H1041 0.930 . S
C1057 C1056 1.377 . S
C1057 C1058 1.379 . S
C1058 H1042 0.931 . S
C1058 C1052 1.383 . S
C1058 C1057 1.379 . S
H1059 C1053 0.959 . S
H1060 C1053 0.961 . S
H1061 C1053 0.960 . S
H1062 C1054 0.930 . S
H1063 C1055 0.929 . S
H1064 C1072 0.929 . S
H1065 C1074 0.930 . S
H1066 C1076 0.930 . S
H1067 C1079 0.929 . S
H1068 C1082 0.930 . S
H1069 C1084 0.960 . S
H1070 C1084 0.960 . S
H1071 C1084 0.960 . S
C1072 H1064 0.929 . S
C1072 C1073 1.377 . S
C1072 C1074 1.384 . S
C1073 C1072 1.377 . S
C1073 C1079 1.390 . S
C1074 H1065 0.930 . S
C1074 C1072 1.384 . S
C1074 C1075 1.372 . S
C1075 C1074 1.372 . S
C1075 C1076 1.400 . S
C1075 C1080 1.490 . S
C1076 H1066 0.930 . S
C1076 C1075 1.400 . S
C1076 C1079 1.386 . S
H1077 C1093 0.930 . S
H1078 C1094 0.931 . S
C1079 H1067 0.929 . S
C1079 C1073 1.390 . S
C1079 C1076 1.386 . S
C1080 C1075 1.490 . S
C1080 C1082 1.395 . S
C1080 C1083 1.403 . S
H1081 C1087 0.930 . S
C1082 H1068 0.930 . S
C1082 C1080 1.395 . S
C1082 C1085 1.403 . S
C1083 C1080 1.403 . S
C1083 C1084 1.524 . S
C1083 C1087 1.400 . S
C1084 H1069 0.960 . S
C1084 H1070 0.960 . S
C1084 H1071 0.960 . S
C1084 C1083 1.524 . S
C1085 C1082 1.403 . S
C1085 C1086 1.392 . S
C1085 C1089 1.495 . S
C1086 C1085 1.392 . S
C1086 C1087 1.385 . S
C1086 C1088 1.478 . S
C1087 H1081 0.930 . S
C1087 C1083 1.400 . S
C1087 C1086 1.385 . S
C1088 C1086 1.478 . S
C1088 C1090 1.381 . S
C1088 C1094 1.383 . S
C1089 C1085 1.495 . S
C1089 H1095 0.959 . S
C1089 H1096 0.961 . S
C1089 H1097 0.960 . S
C1090 C1088 1.381 . S
C1090 C1091 1.394 . S
C1090 H1098 0.930 . S
C1091 C1090 1.394 . S
C1091 C1092 1.383 . S
C1091 H1099 0.929 . S
C1092 C1091 1.383 . S
C1092 C1093 1.377 . S
C1093 H1077 0.930 . S
C1093 C1092 1.377 . S
C1093 C1094 1.379 . S
C1094 H1078 0.931 . S
C1094 C1088 1.383 . S
C1094 C1093 1.379 . S
H1095 C1089 0.959 . S
H1096 C1089 0.961 . S
H1097 C1089 0.960 . S
H1098 C1090 0.930 . S
H1099 C1091 0.929 . S
H1100 C1108 0.929 . S
H1101 C1110 0.930 . S
H1102 C1112 0.930 . S
H1103 C1115 0.929 . S
H1104 C1118 0.930 . S
H1105 C1120 0.960 . S
H1106 C1120 0.960 . S
H1107 C1120 0.960 . S
C1108 H1100 0.929 . S
C1108 C1109 1.377 . S
C1108 C1110 1.384 . S
C1109 C1108 1.377 . S
C1109 C1115 1.390 . S
C1110 H1101 0.930 . S
C1110 C1108 1.384 . S
C1110 C1111 1.372 . S
C1111 C1110 1.372 . S
C1111 C1112 1.400 . S
C1111 C1116 1.490 . S
C1112 H1102 0.930 . S
C1112 C1111 1.400 . S
C1112 C1115 1.386 . S
H1113 C1129 0.930 . S
H1114 C1130 0.931 . S
C1115 H1103 0.929 . S
C1115 C1109 1.390 . S
C1115 C1112 1.386 . S
C1116 C1111 1.490 . S
C1116 C1118 1.395 . S
C1116 C1119 1.403 . S
H1117 C1123 0.930 . S
C1118 H1104 0.930 . S
C1118 C1116 1.395 . S
C1118 C1121 1.403 . S
C1119 C1116 1.403 . S
C1119 C1120 1.524 . S
C1119 C1123 1.400 . S
C1120 H1105 0.960 . S
C1120 H1106 0.960 . S
C1120 H1107 0.960 . S
C1120 C1119 1.524 . S
C1121 C1118 1.403 . S
C1121 C1122 1.392 . S
C1121 C1125 1.495 . S
C1122 C1121 1.392 . S
C1122 C1123 1.385 . S
C1122 C1124 1.478 . S
C1123 H1117 0.930 . S
C1123 C1119 1.400 . S
C1123 C1122 1.385 . S
C1124 C1122 1.478 . S
C1124 C1126 1.381 . S
C1124 C1130 1.383 . S
C1125 C1121 1.495 . S
C1125 H1131 0.959 . S
C1125 H1132 0.961 . S
C1125 H1133 0.960 . S
C1126 C1124 1.381 . S
C1126 C1127 1.394 . S
C1126 H1134 0.930 . S
C1127 C1126 1.394 . S
C1127 C1128 1.383 . S
C1127 H1135 0.929 . S
C1128 C1127 1.383 . S
C1128 C1129 1.377 . S
C1129 H1113 0.930 . S
C1129 C1128 1.377 . S
C1129 C1130 1.379 . S
C1130 H1114 0.931 . S
C1130 C1124 1.383 . S
C1130 C1129 1.379 . S
H1131 C1125 0.959 . S
H1132 C1125 0.961 . S
H1133 C1125 0.960 . S
H1134 C1126 0.930 . S
H1135 C1127 0.929 . S
H1136 C1144 0.929 . S
H1137 C1146 0.930 . S
H1138 C1148 0.930 . S
H1139 C1151 0.929 . S
H1140 C1154 0.930 . S
H1141 C1156 0.960 . S
H1142 C1156 0.960 . S
H1143 C1156 0.960 . S
C1144 H1136 0.929 . S
C1144 C1145 1.377 . S
C1144 C1146 1.384 . S
C1145 C1144 1.377 . S
C1145 C1151 1.390 . S
C1146 H1137 0.930 . S
C1146 C1144 1.384 . S
C1146 C1147 1.372 . S
C1147 C1146 1.372 . S
C1147 C1148 1.400 . S
C1147 C1152 1.490 . S
C1148 H1138 0.930 . S
C1148 C1147 1.400 . S
C1148 C1151 1.386 . S
H1149 C1165 0.930 . S
H1150 C1166 0.931 . S
C1151 H1139 0.929 . S
C1151 C1145 1.390 . S
C1151 C1148 1.386 . S
C1152 C1147 1.490 . S
C1152 C1154 1.395 . S
C1152 C1155 1.403 . S
H1153 C1159 0.930 . S
C1154 H1140 0.930 . S
C1154 C1152 1.395 . S
C1154 C1157 1.403 . S
C1155 C1152 1.403 . S
C1155 C1156 1.524 . S
C1155 C1159 1.400 . S
C1156 H1141 0.960 . S
C1156 H1142 0.960 . S
C1156 H1143 0.960 . S
C1156 C1155 1.524 . S
C1157 C1154 1.403 . S
C1157 C1158 1.392 . S
C1157 C1161 1.495 . S
C1158 C1157 1.392 . S
C1158 C1159 1.385 . S
C1158 C1160 1.478 . S
C1159 H1153 0.930 . S
C1159 C1155 1.400 . S
C1159 C1158 1.385 . S
C1160 C1158 1.478 . S
C1160 C1162 1.381 . S
C1160 C1166 1.383 . S
C1161 C1157 1.495 . S
C1161 H1167 0.959 . S
C1161 H1168 0.961 . S
C1161 H1169 0.960 . S
C1162 C1160 1.381 . S
C1162 C1163 1.394 . S
C1162 H1170 0.930 . S
C1163 C1162 1.394 . S
C1163 C1164 1.383 . S
C1163 H1171 0.929 . S
C1164 C1163 1.383 . S
C1164 C1165 1.377 . S
C1165 H1149 0.930 . S
C1165 C1164 1.377 . S
C1165 C1166 1.379 . S
C1166 H1150 0.931 . S
C1166 C1160 1.383 . S
C1166 C1165 1.379 . S
H1167 C1161 0.959 . S
H1168 C1161 0.961 . S
H1169 C1161 0.960 . S
H1170 C1162 0.930 . S
H1171 C1163 0.929 . S
H1172 C1180 0.929 . S
H1173 C1182 0.930 . S
H1174 C1184 0.930 . S
H1175 C1187 0.929 . S
H1176 C1190 0.930 . S
H1177 C1192 0.960 . S
H1178 C1192 0.960 . S
H1179 C1192 0.960 . S
C1180 H1172 0.929 . S
C1180 C1181 1.377 . S
C1180 C1182 1.384 . S
C1181 C1180 1.377 . S
C1181 C1187 1.390 . S
C1182 H1173 0.930 . S
C1182 C1180 1.384 . S
C1182 C1183 1.372 . S
C1183 C1182 1.372 . S
C1183 C1184 1.400 . S
C1183 C1188 1.490 . S
C1184 H1174 0.930 . S
C1184 C1183 1.400 . S
C1184 C1187 1.386 . S
H1185 C1201 0.930 . S
H1186 C1202 0.931 . S
C1187 H1175 0.929 . S
C1187 C1181 1.390 . S
C1187 C1184 1.386 . S
C1188 C1183 1.490 . S
C1188 C1190 1.395 . S
C1188 C1191 1.403 . S
H1189 C1195 0.930 . S
C1190 H1176 0.930 . S
C1190 C1188 1.395 . S
C1190 C1193 1.403 . S
C1191 C1188 1.403 . S
C1191 C1192 1.524 . S
C1191 C1195 1.400 . S
C1192 H1177 0.960 . S
C1192 H1178 0.960 . S
C1192 H1179 0.960 . S
C1192 C1191 1.524 . S
C1193 C1190 1.403 . S
C1193 C1194 1.392 . S
C1193 C1197 1.495 . S
C1194 C1193 1.392 . S
C1194 C1195 1.385 . S
C1194 C1196 1.478 . S
C1195 H1189 0.930 . S
C1195 C1191 1.400 . S
C1195 C1194 1.385 . S
C1196 C1194 1.478 . S
C1196 C1198 1.381 . S
C1196 C1202 1.383 . S
C1197 C1193 1.495 . S
C1197 H1203 0.959 . S
C1197 H1204 0.961 . S
C1197 H1205 0.960 . S
C1198 C1196 1.381 . S
C1198 C1199 1.394 . S
C1198 H1206 0.930 . S
C1199 C1198 1.394 . S
C1199 C1200 1.383 . S
C1199 H1207 0.929 . S
C1200 C1199 1.383 . S
C1200 C1201 1.377 . S
C1201 H1185 0.930 . S
C1201 C1200 1.377 . S
C1201 C1202 1.379 . S
C1202 H1186 0.931 . S
C1202 C1196 1.383 . S
C1202 C1201 1.379 . S
H1203 C1197 0.959 . S
H1204 C1197 0.961 . S
H1205 C1197 0.960 . S
H1206 C1198 0.930 . S
H1207 C1199 0.929 . S
C353 C23 1.509 . S
C372 C299 1.561 . S
C408 C263 1.506 . S
C389 C55 1.507 . S
C444 C286 1.547 . S
C425 C87 1.543 . S
C480 C274 1.483 . S
C461 C119 1.435 . S
C516 C343 1.541 . S
C497 C151 1.502 . S
C552 C307 1.478 . S
C533 C183 1.510 . S
C569 C215 1.542 . S
C588 C330 1.543 . S
C624 C318 1.492 . S
C605 C247 1.431 . S
C641 C29 1.445 . S
C660 C340 1.518 . S
C696 C310 1.437 . S
C677 C49 1.436 . S
C713 C93 1.544 . S
C732 C329 1.542 . S
C749 C113 1.420 . S
C768 C315 1.473 . S
C804 C296 1.518 . S
C785 C157 1.446 . S
C821 C177 1.433 . S
C840 C266 1.430 . S
C876 C285 1.551 . S
C857 C221 1.541 . S
C912 C271 1.450 . S
C893 C241 1.421 . S
C948 C321 1.493 . S
C929 C17 1.442 . S
C984 C337 1.486 . S
C965 C61 1.479 . S
C1001 C81 1.452 . S
C1020 C308 1.454 . S
C1056 C332 1.444 . S
C1037 C125 1.371 . S
C1092 C277 1.473 . S
C1073 C145 1.445 . S
C1109 C189 1.481 . S
C1128 C293 1.462 . S
C1145 C209 1.451 . S
C1164 C264 1.449 . S
C1181 C253 1.369 . S
C1200 C288 1.448 . S
