# Generated by pormake.
# Topology anh, (6,3)-cn, num edge types: 1
# Building blocks:
#     Node 0, Type 0, BuildingBlock: NUHQIS_clean_sbu_0, # of connection points: 6
#     Node 1, Type 0, BuildingBlock: NUHQIS_clean_sbu_0, # of connection points: 6
#     Node 2, Type 0, BuildingBlock: NUHQIS_clean_sbu_0, # of connection points: 6
#     Node 3, Type 1, BuildingBlock: VETTIZ_charged_linker_0, # of connection points: 3
#     Node 4, Type 1, BuildingBlock: VETTIZ_charged_linker_0, # of connection points: 3
#     Node 5, Type 1, BuildingBlock: VETTIZ_charged_linker_0, # of connection points: 3
#     Node 6, Type 1, BuildingBlock: VETTIZ_charged_linker_0, # of connection points: 3
#     Node 7, Type 1, BuildingBlock: VETTIZ_charged_linker_0, # of connection points: 3
#     Node 8, Type 1, BuildingBlock: VETTIZ_charged_linker_0, # of connection points: 3
#     Edge 9, Type (0, 1), BuildingBlock: AJUNOK_clean_linker_0, # of connection points: 2
#     Edge 10, Type (0, 1), BuildingBlock: AJUNOK_clean_linker_0, # of connection points: 2
#     Edge 11, Type (0, 1), BuildingBlock: AJUNOK_clean_linker_0, # of connection points: 2
#     Edge 12, Type (0, 1), BuildingBlock: AJUNOK_clean_linker_0, # of connection points: 2
#     Edge 13, Type (0, 1), BuildingBlock: AJUNOK_clean_linker_0, # of connection points: 2
#     Edge 14, Type (0, 1), BuildingBlock: AJUNOK_clean_linker_0, # of connection points: 2
#     Edge 15, Type (0, 1), BuildingBlock: AJUNOK_clean_linker_0, # of connection points: 2
#     Edge 16, Type (0, 1), BuildingBlock: AJUNOK_clean_linker_0, # of connection points: 2
#     Edge 17, Type (0, 1), BuildingBlock: AJUNOK_clean_linker_0, # of connection points: 2
#     Edge 18, Type (0, 1), BuildingBlock: AJUNOK_clean_linker_0, # of connection points: 2
#     Edge 19, Type (0, 1), BuildingBlock: AJUNOK_clean_linker_0, # of connection points: 2
#     Edge 20, Type (0, 1), BuildingBlock: AJUNOK_clean_linker_0, # of connection points: 2
#     Edge 21, Type (0, 1), BuildingBlock: AJUNOK_clean_linker_0, # of connection points: 2
#     Edge 22, Type (0, 1), BuildingBlock: AJUNOK_clean_linker_0, # of connection points: 2
#     Edge 23, Type (0, 1), BuildingBlock: AJUNOK_clean_linker_0, # of connection points: 2
#     Edge 24, Type (0, 1), BuildingBlock: AJUNOK_clean_linker_0, # of connection points: 2
#     Edge 25, Type (0, 1), BuildingBlock: AJUNOK_clean_linker_0, # of connection points: 2
#     Edge 26, Type (0, 1), BuildingBlock: AJUNOK_clean_linker_0, # of connection points: 2
# Relax obj value: 0.302
# Max RMSD: 0.199
# Mean RMSD: 0.166
data_MOF--net-anh--node1-NUHQIS_clean_sbu_0--node2-VETTIZ_charged_linker_0--edge1-AJUNOK_clean_linker_0
_symmetry_space_group_name_H-M    P1
_symmetry_Int_Tables_number       1
_symmetry_cell_setting            triclinic
loop_
_symmetry_equiv_pos_as_xyz
'x, y, z'
_cell_length_a     27.715087
_cell_length_b     27.663326
_cell_length_c     53.120114
_cell_angle_alpha  89.946964
_cell_angle_beta   92.42255
_cell_angle_gamma 119.73598
loop_
_atom_site_label
_atom_site_type_symbol
_atom_site_fract_x
_atom_site_fract_y
_atom_site_fract_z
_atom_type_partial_charge
Tb0 Tb 0.2397 0.66274 0.16918 0.0
Eu1 Eu 0.18279 0.73312 0.15176 0.0
C2 C 0.20426 0.72078 0.20815 0.0
C3 C 1.10698 0.60002 0.16169 0.0
C4 C 0.31971 0.58678 0.18323 0.0
C5 C 0.35234 0.52256 0.19438 0.0
C6 C 0.32409 0.55062 0.20046 0.0
C7 C 0.34691 0.59772 0.16055 0.0
C8 C 0.37522 0.56971 0.15446 0.0
C9 C 0.37628 0.53034 0.17092 0.0
C10 C 0.27865 0.60398 0.18725 0.0
O11 O 0.25856 0.67589 0.12949 0.0
O12 O 0.18114 0.68134 0.11854 0.0
O13 O 0.27452 0.79816 0.14902 0.0
O14 O 0.31122 0.75016 0.17011 0.0
C15 C 0.22229 0.67391 0.11226 0.0
O16 O 0.15686 0.77216 0.12238 0.0
O17 O 1.13206 0.77029 0.16061 0.0
O18 O 0.21387 0.75929 0.19181 0.0
O19 O 0.19749 0.6728 0.20061 0.0
O20 O 0.15279 0.59776 0.15842 0.0
O21 O 1.1108 0.64928 0.16409 0.0
C22 C 0.31769 0.79681 0.15979 0.0
O23 O 0.29626 0.65523 0.19456 0.0
O24 O 0.23885 0.58706 0.16987 0.0
C25 C 1.06078 0.73327 0.12908 0.0
C26 C 0.96416 0.628 0.12474 0.0
C27 C 1.00058 0.64802 0.10493 0.0
C28 C 1.04827 0.70036 0.10697 0.0
C29 C 1.02059 0.71596 0.14743 0.0
C30 C 0.97313 0.66338 0.14547 0.0
C31 C 1.11965 0.77217 0.13676 0.0
H32 H 0.35354 0.49316 0.20752 0.0
H33 H 0.30293 0.54162 0.218 0.0
H34 H 0.34334 0.62518 0.14697 0.0
H35 H 0.39338 0.57633 0.13623 0.0
H36 H 0.9936 0.62205 0.0884 0.0
H37 H 1.07781 0.71246 0.09227 0.0
H38 H 1.02879 0.74034 0.16464 0.0
H39 H 0.94559 0.64903 0.161 0.0
Tb40 Tb 0.76491 0.20432 0.4965 0.0
Eu41 Eu 0.63534 0.12871 0.48634 0.0
C42 C 0.68632 0.15229 0.53979 0.0
C43 C 0.71409 1.07089 0.49271 0.0
C44 C 0.87933 0.33539 0.51067 0.0
C45 C 0.83944 0.39566 0.51617 0.0
C46 C 0.84254 0.34831 0.52272 0.0
C47 C 0.91853 0.37477 0.495 0.0
C48 C 0.91534 0.42198 0.48845 0.0
C49 C 0.873 0.4303 0.49754 0.0
C50 C 0.86358 0.27653 0.50701 0.0
O51 O 0.75343 0.18184 0.4562 0.0
O52 O 0.66703 0.17141 0.45008 0.0
O53 O 0.64763 0.21448 0.49803 0.0
O54 O 0.73766 0.26568 0.48717 0.0
C55 C 0.71389 0.18038 0.44105 0.0
O56 O 0.56162 1.06702 0.46482 0.0
O57 O 0.55312 0.10113 0.50016 0.0
O58 O 0.65875 0.11071 0.52413 0.0
O59 O 0.72207 0.20034 0.53084 0.0
O60 O 0.75496 0.11977 0.50152 0.0
O61 O 0.66818 1.06746 0.48236 0.0
C62 C 0.69102 0.2634 0.49345 0.0
O63 O 0.83165 0.242 0.52363 0.0
O64 O 0.84495 0.25772 0.48412 0.0
C65 C 0.49955 1.0054 0.49325 0.0
C66 C 0.44478 0.89642 0.51096 0.0
C67 C 0.41437 0.91996 0.49977 0.0
C68 C 0.44164 0.97418 0.49098 0.0
C69 C 0.52997 0.9828 0.50514 0.0
C70 C 0.50279 0.92842 0.51376 0.0
C71 C 0.5291 1.06128 0.48309 0.0
H72 H 0.80734 0.40207 0.5238 0.0
H73 H 0.81166 0.31874 0.53493 0.0
H74 H 0.9471 0.36581 0.48546 0.0
H75 H 0.94282 0.44942 0.47456 0.0
H76 H 0.3696 0.8955 0.49673 0.0
H77 H 0.41773 0.99116 0.4819 0.0
H78 H 0.57487 1.0068 0.50723 0.0
H79 H 0.52701 0.91091 0.522 0.0
Tb80 Tb 0.75829 0.68977 0.8361 0.0
Eu81 Eu 0.69221 0.56036 0.82044 0.0
C82 C 0.72327 0.59819 0.8756 0.0
C83 C 0.82802 0.6266 0.82598 0.0
C84 C 0.79658 0.83336 0.85636 0.0
C85 C 0.72391 0.84969 0.87061 0.0
C86 C 0.75101 0.81851 0.87139 0.0
C87 C 0.81946 0.88386 0.84363 0.0
C88 C 0.79154 0.91415 0.84242 0.0
C89 C 0.74087 0.8942 0.85409 0.0
C90 C 0.81194 0.79198 0.84878 0.0
O91 O 0.76522 0.6843 0.79509 0.0
O92 O 0.68422 0.60399 0.7866 0.0
O93 O 0.62442 0.57874 0.83326 0.0
O94 O 0.67124 0.67413 0.83164 0.0
C95 C 0.72532 0.65044 0.7789 0.0
O96 O 0.64799 0.47702 0.83486 0.0
O97 O 0.65701 0.48811 0.79449 0.0
O98 O 0.73503 0.57371 0.85809 0.0
O99 O 0.719 0.64189 0.86955 0.0
O100 O 0.82378 0.66573 0.83845 0.0
O101 O 0.78351 0.58601 0.8138 0.0
C102 C 0.624 0.6264 0.83374 0.0
O103 O 0.80248 0.7519 0.86422 0.0
O104 O 0.79583 0.77317 0.82573 0.0
C105 C 0.57302 0.41136 0.80853 0.0
C106 C 0.4652 0.31848 0.80255 0.0
C107 C 0.49873 0.34 0.78172 0.0
C108 C 0.55226 0.38588 0.78472 0.0
C109 C 0.53777 0.3925 0.82895 0.0
C110 C 0.4844 0.3464 0.82598 0.0
C111 C 0.63255 0.45328 0.81254 0.0
H112 H 0.68561 0.83464 0.88026 0.0
H113 H 0.73287 0.77994 0.88158 0.0
H114 H 0.85485 0.89615 0.83206 0.0
H115 H 0.80521 0.94836 0.82951 0.0
H116 H 0.48552 0.31851 0.76356 0.0
H117 H 0.57848 0.39938 0.7687 0.0
H118 H 0.55231 0.41129 0.8476 0.0
H119 H 0.45954 0.33027 0.84234 0.0
C120 C 0.85111 0.34627 0.17087 0.0
C121 C 0.89637 0.39352 0.18415 0.0
C122 C 0.89715 0.39315 0.21059 0.0
C123 C 0.8127 0.30241 0.2108 0.0
C124 C 0.80904 0.30104 0.18474 0.0
C125 C 0.7559 0.24712 0.17535 0.0
H126 H 0.5297 0.99408 0.21329 0.0
C127 C 0.76569 0.2505 0.22051 0.0
C128 C 0.73082 0.21649 0.2 0.0
H129 H 0.55368 1.04602 0.13627 0.0
H130 H 0.63922 0.13369 0.14985 0.0
H131 H 0.65263 1.02961 0.22782 0.0
H132 H 0.55068 0.10442 0.2348 0.0
H133 H 0.59287 0.12517 0.26252 0.0
H134 H 0.547 1.05194 0.25571 0.0
H135 H 0.60174 1.0096 0.25122 0.0
H136 H 0.67303 1.06373 0.25733 0.0
C137 C 0.77175 0.2125 0.15854 0.0
C138 C 0.71627 0.26283 0.16117 0.0
C139 C 0.75813 0.22606 0.3162 0.0
C140 C 0.72077 0.18291 0.33134 0.0
C141 C 0.67758 0.13419 0.31955 0.0
C142 C 0.67052 0.1288 0.29332 0.0
C143 C 0.70681 0.17272 0.27828 0.0
C144 C 0.75016 0.21997 0.28974 0.0
C145 C 0.78454 0.26191 0.2706 0.0
C146 C 0.75405 0.23234 0.2458 0.0
C147 C 0.70855 0.18041 0.25056 0.0
C148 C 0.84409 0.26981 0.2731 0.0
C149 C 0.78113 0.31551 0.27533 0.0
C150 C 0.5531 1.02339 0.19899 0.0
C151 C 0.53443 1.0114 0.17365 0.0
C152 C 0.56651 1.05308 0.15608 0.0
C153 C 0.61619 0.10396 0.16391 0.0
C154 C 0.63412 0.11442 0.18971 0.0
C155 C 0.60134 1.07361 0.20639 0.0
C156 C 0.622 1.08918 0.23306 0.0
C157 C 0.67276 0.14588 0.23043 0.0
C158 C 0.68208 0.16253 0.205 0.0
C159 C 0.6379 1.04584 0.24312 0.0
C160 C 0.57597 1.09258 0.24747 0.0
H161 H 0.86146 0.35267 0.24381 0.0
H162 H 0.84833 0.34498 0.15048 0.0
H163 H 0.70783 0.2905 0.17315 0.0
H164 H 0.6759 0.22555 0.15592 0.0
H165 H 0.73488 0.28515 0.14368 0.0
H166 H 0.80175 0.20312 0.16889 0.0
H167 H 0.79139 0.23556 0.14133 0.0
H168 H 0.73466 0.17244 0.15262 0.0
H169 H 0.79161 0.2642 0.32471 0.0
H170 H 0.64862 0.10018 0.33078 0.0
H171 H 0.6363 1.09061 0.28592 0.0
H172 H 0.84326 0.23111 0.27953 0.0
H173 H 0.87086 0.30353 0.28699 0.0
H174 H 0.86465 0.27848 0.25495 0.0
H175 H 0.74034 0.30541 0.28282 0.0
H176 H 0.7836 0.33833 0.25789 0.0
H177 H 0.81412 0.34401 0.28926 0.0
H178 H 0.93036 0.42771 0.22142 0.0
C179 C 0.85659 0.34878 0.22372 0.0
C180 C 0.71519 0.81617 0.50814 0.0
C181 C 0.72291 0.86563 0.52093 0.0
C182 C 0.73126 0.86821 0.5473 0.0
C183 C 0.72503 0.77707 0.54821 0.0
C184 C 0.71704 0.77237 0.52226 0.0
C185 C 0.712 0.71682 0.51316 0.0
H186 H 0.71378 0.47359 0.55136 0.0
C187 C 0.72526 0.7267 0.55819 0.0
C188 C 0.71815 0.6901 0.53787 0.0
H189 H 0.68987 0.50805 0.47419 0.0
H190 H 0.69969 0.59834 0.48778 0.0
H191 H 0.81038 0.5926 0.56653 0.0
H192 H 0.63371 0.50603 0.57265 0.0
H193 H 0.65925 0.54711 0.60023 0.0
H194 H 0.67893 0.49518 0.59409 0.0
H195 H 0.77545 0.53942 0.58907 0.0
H196 H 0.79983 0.61187 0.59634 0.0
C197 C 0.75937 0.72912 0.49566 0.0
C198 C 0.65453 0.68048 0.49989 0.0
C199 C 0.7398 0.71096 0.65409 0.0
C200 C 0.73907 0.66909 0.66947 0.0
C201 C 0.73873 0.62313 0.65795 0.0
C202 C 0.73747 0.61781 0.63171 0.0
C203 C 0.73585 0.65857 0.61639 0.0
C204 C 0.73796 0.70462 0.62763 0.0
C205 C 0.73609 0.74357 0.60824 0.0
C206 C 0.73083 0.71246 0.58356 0.0
C207 C 0.73068 0.66279 0.58856 0.0
C208 C 0.79198 0.79939 0.61098 0.0
C209 C 0.68346 0.74827 0.6124 0.0
C210 C 0.70963 0.49943 0.53707 0.0
C211 C 0.69931 0.48154 0.51171 0.0
C212 C 0.69704 0.51941 0.49404 0.0
C213 C 0.70261 0.57185 0.50191 0.0
C214 C 0.71121 0.58771 0.52779 0.0
C215 C 0.71472 0.55077 0.5445 0.0
C216 C 0.72283 0.57063 0.57121 0.0
C217 C 0.72411 0.62572 0.56852 0.0
C218 C 0.71756 0.63775 0.54303 0.0
C219 C 0.77976 0.57879 0.58157 0.0
C220 C 0.67151 0.52767 0.58549 0.0
H221 H 0.73856 0.83137 0.58071 0.0
H222 H 0.70892 0.81222 0.48784 0.0
H223 H 0.62105 0.67417 0.51256 0.0
H224 H 0.64811 0.63898 0.49455 0.0
H225 H 0.65001 0.70065 0.48253 0.0
H226 H 0.80036 0.75747 0.50531 0.0
H227 H 0.7553 0.74941 0.47826 0.0
H228 H 0.75926 0.69054 0.49012 0.0
H229 H 0.73982 0.74672 0.66239 0.0
H230 H 0.73865 0.59061 0.66938 0.0
H231 H 0.7368 0.58135 0.62447 0.0
H232 H 0.82604 0.7933 0.61935 0.0
H233 H 0.78845 0.82977 0.62333 0.0
H234 H 0.80729 0.8185 0.59259 0.0
H235 H 0.64837 0.70761 0.61801 0.0
H236 H 0.66736 0.75898 0.59519 0.0
H237 H 0.69144 0.77932 0.62757 0.0
H238 H 0.73669 0.90419 0.55789 0.0
C239 C 0.73225 0.82516 0.56072 0.0
C240 C 0.36502 0.61772 0.8448 0.0
C241 C 0.41078 0.61717 0.85833 0.0
C242 C 0.41046 0.61704 0.88477 0.0
C243 C 0.32398 0.62035 0.88439 0.0
C244 C 0.32156 0.61894 0.85832 0.0
C245 C 0.26833 0.61886 0.84834 0.0
H246 H 1.0375 0.6416 0.88223 0.0
C247 C 0.27584 0.62433 0.89357 0.0
C248 C 0.24183 0.62356 0.87262 0.0
H249 H 1.06627 0.61216 0.80617 0.0
H250 H 0.15241 0.61278 0.82122 0.0
H251 H 1.0604 0.55517 0.90606 0.0
H252 H 0.15966 0.731 0.89703 0.0
H253 H 0.18103 0.71948 0.92684 0.0
H254 H 1.1093 0.70138 0.92069 0.0
H255 H 1.05419 0.60476 0.92536 0.0
H256 H 1.10081 0.57911 0.93422 0.0
C257 C 0.2303 0.56347 0.83409 0.0
C258 C 0.28391 0.66919 0.83147 0.0
C259 C 0.26201 0.64026 0.98904 0.0
C260 C 0.2252 0.64895 0.00351 0.0
C261 C 0.18388 0.65645 0.9907 0.0
C262 C 0.17781 0.65354 0.96443 0.0
C263 C 0.21366 0.64347 0.9502 0.0
C264 C 0.25563 0.63816 0.96245 0.0
C265 C 0.29131 0.63056 0.94391 0.0
C266 C 0.26262 0.63053 0.91863 0.0
C267 C 0.21686 0.63739 0.92261 0.0
C268 C 0.28721 0.57339 0.94876 0.0
C269 C 0.351 0.6814 0.94716 0.0
C270 C 1.06189 0.63559 0.86845 0.0
C271 C 1.04397 0.62718 0.84293 0.0
C272 C 1.07792 0.61843 0.8261 0.0
C273 C 1.12806 0.61887 0.83481 0.0
C274 C 1.14475 0.62728 0.86076 0.0
C275 C 1.11062 0.63507 0.87673 0.0
C276 C 1.13054 0.64165 0.90364 0.0
C277 C 0.18184 0.6359 0.90198 0.0
C278 C 0.19246 0.62827 0.87683 0.0
C279 C 1.08431 0.59316 0.91828 0.0
C280 C 1.14562 0.70114 0.91276 0.0
H281 H 0.37198 0.61882 0.91778 0.0
H282 H 0.36351 0.61784 0.82441 0.0
H283 H 0.31317 0.70851 0.84191 0.0
H284 H 0.24665 0.6718 0.82525 0.0
H285 H 0.3043 0.66619 0.81444 0.0
H286 H 0.22211 0.52772 0.84626 0.0
H287 H 0.2501 0.5601 0.81692 0.0
H288 H 0.18969 0.55948 0.82832 0.0
H289 H 0.29434 0.63427 -0.00192 0.0
H290 H 0.15581 0.66468 0.00109 0.0
H291 H 1.14477 0.65889 0.95634 0.0
H292 H 0.24445 0.54201 0.95389 0.0
H293 H 0.31636 0.57644 0.96449 0.0
H294 H 0.29494 0.5553 0.93191 0.0
H295 H 0.35053 0.71883 0.95449 0.0
H296 H 0.37181 0.69479 0.92911 0.0
H297 H 0.37742 0.67272 0.96059 0.0
H298 H 0.4442 0.61674 0.89572 0.0
C299 C 0.36814 0.61858 0.89765 0.0
C300 C 0.97134 0.6278 0.46342 0.0
C301 C 0.9213 0.61396 0.44999 0.0
C302 C 0.9237 0.63097 0.42477 0.0
C303 C 1.02184 0.65885 0.42526 0.0
C304 C 1.01969 0.64633 0.4505 0.0
C305 C 1.06917 0.64271 0.46038 0.0
H306 H 0.33568 0.72682 0.45184 0.0
C307 C 1.07634 0.66905 0.41689 0.0
C308 C 1.10367 0.65902 0.43739 0.0
H309 H 0.22981 0.63745 0.51257 0.0
H310 H 1.14898 0.61582 0.48587 0.0
H311 H 0.24798 0.62694 0.40819 0.0
H312 H 0.28413 0.79017 0.43247 0.0
H313 H 0.27567 0.78689 0.39938 0.0
H314 H 0.33031 0.77802 0.41419 0.0
H315 H 0.30687 0.68888 0.39767 0.0
H316 H 0.23952 0.65914 0.38124 0.0
C317 C 1.0497 0.5814 0.46766 0.0
C318 C 1.09716 0.68558 0.48244 0.0
C319 C 1.13301 0.72221 0.32675 0.0
C320 C 0.18262 0.73693 0.31483 0.0
C321 C 0.22963 0.74441 0.32927 0.0
C322 C 0.2266 0.73449 0.35512 0.0
C323 C 0.17609 0.71728 0.36665 0.0
C324 C 1.13087 0.7133 0.35276 0.0
C325 C 1.0812 0.6958 0.36858 0.0
C326 C 1.1033 0.68704 0.39381 0.0
C327 C 0.15863 0.69894 0.39235 0.0
C328 C 1.03221 0.64089 0.35732 0.0
C329 C 1.069 0.74455 0.36974 0.0
C330 C 0.29515 0.70055 0.45925 0.0
C331 C 0.2892 0.68728 0.48502 0.0
C332 C 0.23556 0.65116 0.49328 0.0
C333 C 0.18865 0.63902 0.47778 0.0
C334 C 0.19588 0.66169 0.45363 0.0
C335 C 0.24787 0.68724 0.44389 0.0
C336 C 0.24671 0.70446 0.41705 0.0
C337 C 0.18621 0.68942 0.41325 0.0
C338 C 0.15748 0.66632 0.43507 0.0
C339 C 0.26133 0.66852 0.40001 0.0
C340 C 0.28645 0.76813 0.41545 0.0
H341 H 0.97281 0.66257 0.39271 0.0
H342 H 0.97144 0.61442 0.48259 0.0
H343 H 1.10456 0.72728 0.47663 0.0
H344 H 1.13785 0.69119 0.48902 0.0
H345 H 1.07015 0.67282 0.49882 0.0
H346 H 1.00816 0.55163 0.45882 0.0
H347 H 1.04662 0.5762 0.48838 0.0
H348 H 1.07746 0.5666 0.4608 0.0
H349 H 1.09635 0.7162 0.31592 0.0
H350 H 0.26801 0.75528 0.3203 0.0
H351 H 0.2634 0.73956 0.36503 0.0
H352 H 1.04734 0.6131 0.35033 0.0
H353 H 1.01059 0.64912 0.34122 0.0
H354 H 1.00149 0.61637 0.37133 0.0
H355 H 1.10836 0.785 0.37239 0.0
H356 H 1.04391 0.74217 0.38575 0.0
H357 H 1.04737 0.74643 0.35199 0.0
H358 H 0.88574 0.62104 0.41398 0.0
C359 C 0.97407 0.65387 0.41234 0.0
C360 C 0.54883 0.94395 0.79583 0.0
C361 C 0.5919 0.93334 0.79018 0.0
C362 C 0.60803 0.9373 0.76515 0.0
C363 C 0.54333 0.96788 0.75226 0.0
C364 C 0.52486 0.96096 0.77645 0.0
C365 C 0.48022 0.9766 0.77875 0.0
H366 H 0.38456 0.14127 0.7371 0.0
C367 C 0.51605 0.99285 0.73723 0.0
C368 C 0.47804 0.99727 0.7523 0.0
H369 H 0.34229 1.04477 0.80496 0.0
H370 H 0.38325 0.9919 0.78909 0.0
H371 H 0.49859 0.16698 0.73431 0.0
H372 H 0.3542 1.02826 0.69815 0.0
H373 H 0.4077 1.05295 0.67679 0.0
H374 H 0.38234 1.0981 0.68722 0.0
H375 H 0.46119 0.17507 0.70771 0.0
H376 H 0.51607 0.15937 0.70378 0.0
C377 C 0.50077 1.02356 0.79909 0.0
C378 C 0.42505 0.92368 0.78471 0.0
C379 C 0.596 1.07477 0.65371 0.0
C380 C 0.58707 0.10854 0.63665 0.0
C381 C 0.54716 0.12426 0.64164 0.0
C382 C 0.51652 0.10632 0.66345 0.0
C383 C 0.52621 1.0726 0.68042 0.0
C384 C 0.56525 1.05729 0.67526 0.0
C385 C 0.57056 1.02159 0.69516 0.0
C386 C 0.52843 1.01823 0.71341 0.0
C387 C 0.50238 1.0478 0.70468 0.0
C388 C 0.63139 1.05252 0.70662 0.0
C389 C 0.55227 0.96374 0.683 0.0
C390 C 0.38119 0.10706 0.74822 0.0
C391 C 0.36159 1.09866 0.77278 0.0
C392 C 0.3586 1.05334 0.78631 0.0
C393 C 0.38311 1.02331 0.77729 0.0
C394 C 0.41058 1.03884 0.75459 0.0
C395 C 0.40552 1.07692 0.73955 0.0
C396 C 0.43642 1.08753 0.71574 0.0
C397 C 0.46328 1.05178 0.71966 0.0
C398 C 0.4493 1.02456 0.74283 0.0
C399 C 0.48022 0.15044 0.71507 0.0
C400 C 0.39329 1.06608 0.69316 0.0
H401 H 0.5986 0.95712 0.72767 0.0
H402 H 0.53482 0.93977 0.81484 0.0
H403 H 0.42462 0.8851 0.77843 0.0
H404 H 0.38864 0.92226 0.77454 0.0
H405 H 0.4184 0.92058 0.80526 0.0
H406 H 0.543 1.05796 0.79504 0.0
H407 H 0.50316 1.00769 0.81805 0.0
H408 H 0.47394 1.04226 0.80019 0.0
H409 H 0.6264 1.06201 0.65033 0.0
H410 H 0.53876 0.14929 0.62841 0.0
H411 H 0.48671 0.11958 0.66631 0.0
H412 H 0.65423 1.09716 0.70148 0.0
H413 H 0.65575 1.03343 0.69999 0.0
H414 H 0.63328 1.05358 0.72748 0.0
H415 H 0.516 0.95089 0.66947 0.0
H416 H 0.53811 0.93021 0.69692 0.0
H417 H 0.5864 0.96447 0.67247 0.0
H418 H 0.64095 0.92909 0.76034 0.0
C419 C 0.58369 0.95401 0.74618 0.0
C420 C 0.73125 0.37934 0.11851 0.0
C421 C 0.7829 0.40438 0.10722 0.0
C422 C 0.78428 0.39128 0.08175 0.0
C423 C 0.68595 0.35766 0.07698 0.0
C424 C 0.68268 0.35842 0.10281 0.0
C425 C 0.62588 0.34676 0.11009 0.0
H426 H 0.45016 0.43768 0.08901 0.0
C427 C 0.63704 0.35785 0.06522 0.0
C428 C 0.60037 0.35006 0.0844 0.0
H429 H 0.45781 0.34503 0.15293 0.0
H430 H 0.50785 0.31072 0.1285 0.0
H431 H 0.57374 0.4912 0.07372 0.0
H432 H 0.42597 0.34212 0.04818 0.0
H433 H 0.47041 0.36036 0.0229 0.0
H434 H 0.44662 0.40702 0.03313 0.0
H435 H 0.51423 0.48844 0.05739 0.0
H436 H 0.56873 0.48914 0.0405 0.0
C437 C 0.63259 0.39226 0.12924 0.0
C438 C 0.59553 0.28742 0.12065 0.0
C439 C 0.66881 0.45859 0.98228 0.0
C440 C 0.63948 0.4802 0.96863 0.0
C441 C 0.58858 0.47151 0.97734 0.0
C442 C 0.56756 0.44209 -0.00056 0.0
C443 C 0.59844 0.42245 0.01335 0.0
C444 C 0.64743 0.42968 0.00437 0.0
C445 C 0.67342 0.40376 0.02086 0.0
C446 C 0.6323 0.38084 0.04185 0.0
C447 C 0.58929 0.39311 0.03744 0.0
C448 C 0.7327 0.45027 0.03017 0.0
C449 C 0.67308 0.35612 0.00545 0.0
C450 C 0.4629 0.4101 0.09773 0.0
C451 C 0.45289 0.396 0.12304 0.0
C452 C 0.46687 0.35766 0.1336 0.0
C453 C 0.49667 0.3389 0.11972 0.0
C454 C 0.51483 0.36141 0.09598 0.0
C455 C 0.49381 0.39224 0.08452 0.0
C456 C 0.51281 0.40793 0.05827 0.0
C457 C 0.55185 0.38444 0.05652 0.0
C458 C 0.55498 0.3596 0.07921 0.0
C459 C 0.5439 0.47246 0.05718 0.0
C460 C 0.4615 0.37824 0.03957 0.0
H461 H 0.73805 0.36013 0.04698 0.0
H462 H 0.73004 0.38507 0.13855 0.0
H463 H 0.60532 0.25887 0.1101 0.0
H464 H 0.54989 0.26826 0.11874 0.0
H465 H 0.60831 0.2877 0.14079 0.0
H466 H 0.6523 0.43377 0.12041 0.0
H467 H 0.65818 0.39432 0.14623 0.0
H468 H 0.59342 0.38474 0.13682 0.0
H469 H 0.70817 0.46474 0.97611 0.0
H470 H 0.5648 0.48698 0.96688 0.0
H471 H 0.5287 0.43684 0.00518 0.0
H472 H 0.74622 0.49051 0.02068 0.0
H473 H 0.76502 0.43907 0.02637 0.0
H474 H 0.7347 0.46002 0.05059 0.0
H475 H 0.63366 0.33279 0.99377 0.0
H476 H 0.67523 0.32467 0.01757 0.0
H477 H 0.70807 0.3728 0.99255 0.0
H478 H 0.82345 0.40712 0.0727 0.0
C479 C 0.73518 0.36644 0.0666 0.0
C480 C 0.45043 0.51893 0.15175 0.0
C481 C 0.39829 0.49454 0.16245 0.0
C482 C 0.46864 0.48608 0.14008 0.0
C483 C 0.43533 0.42776 0.13871 0.0
H484 H 0.47654 0.56382 0.1517 0.0
H485 H 0.50839 0.50652 0.13131 0.0
S486 S 0.29663 0.34334 0.16468 0.0
N487 N 0.31427 0.40839 0.17173 0.0
N488 N 0.34934 0.34661 0.14984 0.0
C489 C 0.38438 0.40254 0.15033 0.0
C490 C 0.36561 0.43602 0.16221 0.0
C491 C 0.86132 0.51479 0.49836 0.0
C492 C 0.86013 0.47046 0.48494 0.0
C493 C 0.86475 0.56071 0.48542 0.0
C494 C 0.87128 0.56438 0.4591 0.0
H495 H 0.86524 0.5166 0.51876 0.0
H496 H 0.87423 0.59765 0.49637 0.0
S497 S 0.8412 0.44692 0.41574 0.0
N498 N 0.84331 0.42372 0.44417 0.0
N499 N 0.85113 0.51035 0.4201 0.0
C500 C 0.85532 0.51454 0.44569 0.0
C501 C 0.85169 0.46799 0.45864 0.0
C502 C 0.66883 0.86678 0.82019 0.0
C503 C 0.69781 0.90229 0.84094 0.0
C504 C 0.63104 0.8746 0.80514 0.0
C505 C 0.62209 0.9194 0.8098 0.0
H506 H 0.67642 0.83318 0.81525 0.0
H507 H 0.61051 0.84681 0.78902 0.0
S508 S 0.68793 1.02429 0.86197 0.0
N509 N 0.71454 0.9828 0.86602 0.0
N510 N 0.64447 0.99937 0.83695 0.0
C511 C 0.64974 0.95456 0.83094 0.0
C512 C 0.68786 0.94588 0.8466 0.0
C513 C 0.92847 0.52601 0.11797 0.0
C514 C 0.91825 0.56957 0.12408 0.0
C515 C 0.88483 0.47092 0.11502 0.0
C516 C 0.8294 0.45758 0.11789 0.0
H517 H 0.97043 0.53479 0.11488 0.0
H518 H 0.89418 0.43906 0.10919 0.0
S519 S 0.78132 0.55701 0.13459 0.0
N520 N 0.84951 0.59575 0.13386 0.0
N521 N 0.76734 0.49297 0.12806 0.0
C522 C 0.81921 0.50067 0.12528 0.0
C523 C 0.86365 0.55651 0.12836 0.0
C524 C 0.43013 0.80193 0.50227 0.0
C525 C 0.41575 0.83622 0.51579 0.0
C526 C 0.39026 0.74651 0.49638 0.0
C527 C 0.33484 0.72498 0.5032 0.0
H528 H 0.46962 0.81968 0.49338 0.0
H529 H 0.40061 0.72357 0.48319 0.0
S530 S 0.2848 0.79254 0.5476 0.0
N531 N 0.3496 0.84038 0.5428 0.0
N532 N 0.27355 0.73706 0.53112 0.0
C533 C 0.32403 0.7555 0.52121 0.0
C534 C 0.36489 0.81148 0.52747 0.0
C535 C 0.42154 0.2211 0.81649 0.0
C536 C 0.41827 0.26061 0.80096 0.0
C537 C 0.3941 0.16482 0.8093 0.0
C538 C 0.36254 0.1463 0.78629 0.0
H539 H 0.451 0.23437 0.83256 0.0
H540 H 0.40437 0.1377 0.82014 0.0
S541 S 0.32345 0.23032 0.74469 0.0
N542 N 0.36917 0.27576 0.76567 0.0
N543 N 0.31534 0.16902 0.7526 0.0
C544 C 0.35027 0.18374 0.77343 0.0
C545 C 0.3791 0.24136 0.78053 0.0
C546 C 0.76488 1.01963 0.50904 0.0
C547 C 0.71795 1.0176 0.49637 0.0
C548 C 0.76742 0.97078 0.51504 0.0
C549 C 0.72345 0.9163 0.5087 0.0
H550 H 0.79971 1.05947 0.5152 0.0
H551 H 0.80384 0.97577 0.52572 0.0
S552 S 0.5915 0.88589 0.47441 0.0
N553 N 0.62666 0.9546 0.47671 0.0
N554 N 0.63172 0.86417 0.48813 0.0
C555 C 0.67711 0.91348 0.49519 0.0
C556 C 0.67431 0.96337 0.48907 0.0
C557 C 0.9297 0.66951 0.84198 0.0
C558 C 0.88389 0.62726 0.82766 0.0
C559 C 0.981 0.67009 0.84567 0.0
C560 C 0.99058 0.62866 0.83523 0.0
H561 H 0.92583 0.70241 0.85102 0.0
H562 H 1.01352 0.70334 0.85732 0.0
S563 S 0.88616 0.50914 0.79525 0.0
N564 N 0.85327 0.54315 0.80217 0.0
N565 N 0.94895 0.54443 0.80912 0.0
C566 C 0.94593 0.587 0.82018 0.0
C567 C 0.89318 0.58619 0.81647 0.0
C568 C 0.38267 0.90133 0.15138 0.0
C569 C 0.37487 0.85038 0.16139 0.0
C570 C 0.43448 0.95226 0.15401 0.0
C571 C 0.48174 0.95554 0.16693 0.0
H572 H 0.34796 0.90236 0.14178 0.0
H573 H 0.43681 0.98986 0.14668 0.0
S574 S 0.48671 0.8347 0.19507 0.0
N575 N 0.42198 0.80751 0.1836 0.0
N576 N 0.51745 0.90149 0.18847 0.0
C577 C 0.47505 0.90466 0.17627 0.0
C578 C 0.42257 0.85295 0.17354 0.0
C579 C 0.71917 0.36419 0.4815 0.0
C580 C 0.68854 0.31719 0.49655 0.0
C581 C 0.71991 0.41571 0.4853 0.0
C582 C 0.69139 0.42384 0.50487 0.0
H583 H 0.74315 0.36121 0.46666 0.0
H584 H 0.74465 0.45014 0.47333 0.0
S585 S 0.60025 0.31285 0.5482 0.0
N586 N 0.62524 0.28192 0.53064 0.0
N587 N 0.62717 0.37712 0.53802 0.0
C588 C 0.65883 0.3763 0.51935 0.0
C589 C 0.65731 0.32381 0.51518 0.0
C590 C 0.51689 0.57496 0.8362 0.0
C591 C 0.5686 0.62563 0.83729 0.0
C592 C 0.46535 0.57251 0.84095 0.0
C593 C 0.46204 0.62065 0.84674 0.0
H594 H 0.51618 0.53621 0.83225 0.0
H595 H 0.42802 0.53213 0.84108 0.0
S596 S 0.58274 0.76314 0.85319 0.0
N597 N 0.61109 0.72534 0.84529 0.0
N598 N 0.51537 0.71998 0.85398 0.0
C599 C 0.51282 0.67128 0.84757 0.0
C600 C 0.56534 0.67402 0.84285 0.0
C601 C 1.00471 0.54786 0.17377 0.0
C602 C 1.05061 0.5464 0.16384 0.0
C603 C 0.95368 0.49861 0.1782 0.0
C604 C 0.94446 0.44451 0.1725 0.0
H605 H 1.00876 0.5875 0.17914 0.0
H606 H 0.92158 0.50289 0.18716 0.0
S607 S 1.04861 0.41595 0.14458 0.0
N608 N 1.08115 0.4846 0.14725 0.0
N609 N 0.98609 0.39346 0.15535 0.0
C610 C 0.98893 0.44243 0.16153 0.0
C611 C 1.04134 0.49261 0.15728 0.0
C612 C 0.17669 0.63029 0.0706 0.0
C613 C 0.22597 0.66215 0.08535 0.0
C614 C 0.17756 0.62364 0.04451 0.0
C615 C 0.22766 0.64977 0.03177 0.0
H616 H 1.13681 0.61098 0.07924 0.0
H617 H 1.13818 0.59897 0.03409 0.0
S618 S 0.36869 0.73646 0.06205 0.0
N619 N 0.3267 0.71782 0.08573 0.0
N620 N 0.32837 0.70746 0.03641 0.0
C621 C 0.27761 0.6801 0.04648 0.0
C622 C 0.27673 0.68591 0.07329 0.0
C623 C 0.67323 0.17665 0.39768 0.0
C624 C 0.71957 0.18555 0.41321 0.0
C625 C 0.67502 0.17786 0.3714 0.0
C626 C 0.7233 0.1884 0.3593 0.0
H627 H 0.63442 0.16744 0.40577 0.0
H628 H 0.6378 0.16958 0.36038 0.0
S629 S 0.85735 0.21778 0.39076 0.0
N630 N 0.81644 0.20793 0.41426 0.0
N631 N 0.81948 0.21017 0.36464 0.0
C632 C 0.7707 0.19938 0.37439 0.0
C633 C 0.76887 0.19783 0.40136 0.0
C634 C 0.68745 0.61913 0.73462 0.0
C635 C 0.72833 0.66039 0.75115 0.0
C636 C 0.69064 0.62359 0.70841 0.0
C637 C 0.73446 0.66974 0.69732 0.0
H638 H 0.65306 0.58196 0.74188 0.0
H639 H 0.65883 0.58993 0.69665 0.0
S640 S 0.85054 0.79135 0.73149 0.0
N641 N 0.81309 0.75068 0.75411 0.0
N642 N 0.81852 0.75896 0.70464 0.0
C643 C 0.77454 0.71253 0.71336 0.0
C644 C 0.77164 0.70785 0.74027 0.0
C645 C 0.64155 1.09119 0.57543 0.0
C646 C 0.66844 0.14529 0.56588 0.0
C647 C 0.6161 1.08024 0.59842 0.0
C648 C 0.61637 0.12292 0.61282 0.0
H649 H 0.63884 1.05651 0.56473 0.0
H650 H 0.59468 1.0376 0.60464 0.0
S651 S 0.68386 0.2724 0.59704 0.0
N652 N 0.69592 0.24263 0.573 0.0
N653 N 0.64807 0.22194 0.61667 0.0
C654 C 0.64444 0.17761 0.60394 0.0
C655 C 0.67077 0.18889 0.58042 0.0
C656 C 0.6864 0.59151 0.9187 0.0
C657 C 0.70524 0.56981 0.89997 0.0
C658 C 0.66492 0.56234 0.9409 0.0
C659 C 0.66149 0.51044 0.94505 0.0
H660 H 0.68763 0.631 0.91612 0.0
H661 H 0.65118 0.58057 0.95493 0.0
S662 S 0.70292 0.43399 0.90168 0.0
N663 N 0.71854 0.49246 0.88729 0.0
N664 N 0.67639 0.43752 0.92835 0.0
C665 C 0.67984 0.4882 0.92648 0.0
C666 C 0.70223 0.5179 0.90413 0.0
C667 C 0.15563 0.68298 0.24769 0.0
C668 C 0.19568 0.72857 0.23466 0.0
C669 C 1.14942 0.68733 0.27344 0.0
C670 C 0.18381 0.73708 0.2871 0.0
H671 H 1.12944 0.64333 0.238 0.0
H672 H 1.11928 0.65075 0.28297 0.0
S673 S 0.29348 0.869 0.26161 0.0
N674 N 0.2684 0.82571 0.23697 0.0
N675 N 0.25781 0.83337 0.28575 0.0
C676 C 0.22299 0.78342 0.27421 0.0
C677 C 0.22857 0.77933 0.24783 0.0
loop_
_geom_bond_atom_site_label_1
_geom_bond_atom_site_label_2
_geom_bond_distance
_geom_bond_site_symmetry_2
_ccdc_geom_bond_type
Tb0 C10 2.825 . S
Tb0 O11 2.347 . S
Tb0 O14 2.366 . S
Tb0 O19 2.418 . S
Tb0 O20 2.384 1_455 S
Tb0 O23 2.479 . S
Tb0 O24 2.471 . S
Eu1 O12 2.418 . S
Eu1 O13 2.384 1_655 S
Eu1 O16 2.479 . S
Eu1 O17 2.471 . S
Eu1 O18 2.347 1_655 S
Eu1 O21 2.366 . S
Eu1 C31 2.825 . S
C2 O18 1.259 . S
C2 O19 1.265 . S
C3 O20 1.255 . S
C3 O21 1.265 . S
C4 C6 1.380 . S
C4 C7 1.374 . S
C4 C10 1.507 . S
C5 C6 1.384 . S
C5 C9 1.387 . S
C5 H32 0.930 . S
C6 C4 1.380 . S
C6 C5 1.384 . S
C6 H33 0.931 . S
C7 C4 1.374 . S
C7 C8 1.390 . S
C7 H34 0.930 . S
C8 C7 1.390 . S
C8 C9 1.391 . S
C8 H35 0.930 . S
C9 C5 1.387 . S
C9 C8 1.391 . S
C10 Tb0 2.825 . S
C10 C4 1.507 . S
C10 O23 1.238 . S
C10 O24 1.247 . S
O11 Tb0 2.347 . S
O11 C15 1.259 . S
O12 Eu1 2.418 . S
O12 C15 1.265 1_655 S
O13 Eu1 2.384 1_455 S
O13 C22 1.255 . S
O14 Tb0 2.366 . S
O14 C22 1.265 . S
C15 O11 1.259 . S
C15 O12 1.265 1_455 S
O16 Eu1 2.479 . S
O16 C31 1.238 . S
O17 Eu1 2.471 . S
O17 C31 1.247 . S
O18 Eu1 2.347 1_455 S
O18 C2 1.259 . S
O19 Tb0 2.418 . S
O19 C2 1.265 . S
O20 Tb0 2.384 1_655 S
O20 C3 1.255 . S
O21 Eu1 2.366 . S
O21 C3 1.265 . S
C22 O13 1.255 . S
C22 O14 1.265 . S
O23 Tb0 2.479 . S
O23 C10 1.238 . S
O24 Tb0 2.471 . S
O24 C10 1.247 . S
C25 C28 1.380 . S
C25 C29 1.374 . S
C25 C31 1.507 . S
C26 C27 1.387 . S
C26 C30 1.391 . S
C27 C26 1.387 . S
C27 C28 1.384 . S
C27 H36 0.930 . S
C28 C25 1.380 . S
C28 C27 1.384 . S
C28 H37 0.931 . S
C29 C25 1.374 . S
C29 C30 1.390 . S
C29 H38 0.930 . S
C30 C26 1.391 . S
C30 C29 1.390 . S
C30 H39 0.930 . S
C31 Eu1 2.825 . S
C31 O16 1.238 . S
C31 O17 1.247 . S
C31 C25 1.507 . S
H32 C5 0.930 . S
H33 C6 0.931 . S
H34 C7 0.930 . S
H35 C8 0.930 . S
H36 C27 0.930 . S
H37 C28 0.931 . S
H38 C29 0.930 . S
H39 C30 0.930 . S
Tb40 C50 2.825 . S
Tb40 O51 2.347 . S
Tb40 O54 2.366 . S
Tb40 O59 2.418 . S
Tb40 O60 2.384 1_545 S
Tb40 O63 2.479 . S
Tb40 O64 2.471 . S
Eu41 O52 2.418 . S
Eu41 O53 2.384 . S
Eu41 O56 2.479 1_545 S
Eu41 O57 2.471 1_545 S
Eu41 O58 2.347 . S
Eu41 O61 2.366 1_545 S
Eu41 C71 2.825 1_545 S
C42 O58 1.259 . S
C42 O59 1.265 . S
C43 O60 1.255 . S
C43 O61 1.265 . S
C44 C46 1.380 . S
C44 C47 1.374 . S
C44 C50 1.507 . S
C45 C46 1.384 . S
C45 C49 1.387 . S
C45 H72 0.930 . S
C46 C44 1.380 . S
C46 C45 1.384 . S
C46 H73 0.931 . S
C47 C44 1.374 . S
C47 C48 1.390 . S
C47 H74 0.930 . S
C48 C47 1.390 . S
C48 C49 1.391 . S
C48 H75 0.930 . S
C49 C45 1.387 . S
C49 C48 1.391 . S
C50 Tb40 2.825 . S
C50 C44 1.507 . S
C50 O63 1.238 . S
C50 O64 1.247 . S
O51 Tb40 2.347 . S
O51 C55 1.259 . S
O52 Eu41 2.418 . S
O52 C55 1.265 . S
O53 Eu41 2.384 . S
O53 C62 1.255 . S
O54 Tb40 2.366 . S
O54 C62 1.265 . S
C55 O51 1.259 . S
C55 O52 1.265 . S
O56 Eu41 2.479 1_565 S
O56 C71 1.238 . S
O57 Eu41 2.471 1_565 S
O57 C71 1.247 . S
O58 Eu41 2.347 . S
O58 C42 1.259 . S
O59 Tb40 2.418 . S
O59 C42 1.265 . S
O60 Tb40 2.384 1_565 S
O60 C43 1.255 . S
O61 Eu41 2.366 1_565 S
O61 C43 1.265 . S
C62 O53 1.255 . S
C62 O54 1.265 . S
O63 Tb40 2.479 . S
O63 C50 1.238 . S
O64 Tb40 2.471 . S
O64 C50 1.247 . S
C65 C68 1.380 . S
C65 C69 1.374 . S
C65 C71 1.507 . S
C66 C67 1.387 . S
C66 C70 1.391 . S
C67 C66 1.387 . S
C67 C68 1.384 . S
C67 H76 0.930 . S
C68 C65 1.380 . S
C68 C67 1.384 . S
C68 H77 0.931 . S
C69 C65 1.374 . S
C69 C70 1.390 . S
C69 H78 0.930 . S
C70 C66 1.391 . S
C70 C69 1.390 . S
C70 H79 0.930 . S
C71 Eu41 2.825 1_565 S
C71 O56 1.238 . S
C71 O57 1.247 . S
C71 C65 1.507 . S
H72 C45 0.930 . S
H73 C46 0.931 . S
H74 C47 0.930 . S
H75 C48 0.930 . S
H76 C67 0.930 . S
H77 C68 0.931 . S
H78 C69 0.930 . S
H79 C70 0.930 . S
Tb80 C90 2.825 . S
Tb80 O91 2.347 . S
Tb80 O94 2.366 . S
Tb80 O99 2.418 . S
Tb80 O100 2.384 . S
Tb80 O103 2.479 . S
Tb80 O104 2.471 . S
Eu81 O92 2.418 . S
Eu81 O93 2.384 . S
Eu81 O96 2.479 . S
Eu81 O97 2.471 . S
Eu81 O98 2.347 . S
Eu81 O101 2.366 . S
Eu81 C111 2.825 . S
C82 O98 1.259 . S
C82 O99 1.265 . S
C83 O100 1.255 . S
C83 O101 1.265 . S
C84 C86 1.380 . S
C84 C87 1.374 . S
C84 C90 1.507 . S
C85 C86 1.384 . S
C85 C89 1.387 . S
C85 H112 0.930 . S
C86 C84 1.380 . S
C86 C85 1.384 . S
C86 H113 0.931 . S
C87 C84 1.374 . S
C87 C88 1.390 . S
C87 H114 0.930 . S
C88 C87 1.390 . S
C88 C89 1.391 . S
C88 H115 0.930 . S
C89 C85 1.387 . S
C89 C88 1.391 . S
C90 Tb80 2.825 . S
C90 C84 1.507 . S
C90 O103 1.238 . S
C90 O104 1.247 . S
O91 Tb80 2.347 . S
O91 C95 1.259 . S
O92 Eu81 2.418 . S
O92 C95 1.265 . S
O93 Eu81 2.384 . S
O93 C102 1.255 . S
O94 Tb80 2.366 . S
O94 C102 1.265 . S
C95 O91 1.259 . S
C95 O92 1.265 . S
O96 Eu81 2.479 . S
O96 C111 1.238 . S
O97 Eu81 2.471 . S
O97 C111 1.247 . S
O98 Eu81 2.347 . S
O98 C82 1.259 . S
O99 Tb80 2.418 . S
O99 C82 1.265 . S
O100 Tb80 2.384 . S
O100 C83 1.255 . S
O101 Eu81 2.366 . S
O101 C83 1.265 . S
C102 O93 1.255 . S
C102 O94 1.265 . S
O103 Tb80 2.479 . S
O103 C90 1.238 . S
O104 Tb80 2.471 . S
O104 C90 1.247 . S
C105 C108 1.380 . S
C105 C109 1.374 . S
C105 C111 1.507 . S
C106 C107 1.387 . S
C106 C110 1.391 . S
C107 C106 1.387 . S
C107 C108 1.384 . S
C107 H116 0.930 . S
C108 C105 1.380 . S
C108 C107 1.384 . S
C108 H117 0.931 . S
C109 C105 1.374 . S
C109 C110 1.390 . S
C109 H118 0.930 . S
C110 C106 1.391 . S
C110 C109 1.390 . S
C110 H119 0.930 . S
C111 Eu81 2.825 . S
C111 O96 1.238 . S
C111 O97 1.247 . S
C111 C105 1.507 . S
H112 C85 0.930 . S
H113 C86 0.931 . S
H114 C87 0.930 . S
H115 C88 0.930 . S
H116 C107 0.930 . S
H117 C108 0.931 . S
H118 C109 0.930 . S
H119 C110 0.930 . S
C120 C121 1.391 . S
C120 C124 1.391 . S
C120 H162 0.948 . S
C121 C120 1.391 . S
C121 C122 1.391 . S
C122 C121 1.391 . S
C122 H178 0.947 . S
C122 C179 1.392 . S
C123 C124 1.391 . S
C123 C127 1.397 . S
C123 C179 1.419 . S
C124 C120 1.391 . S
C124 C123 1.391 . S
C124 C125 1.399 . S
C125 C124 1.399 . S
C125 C128 1.396 . S
C125 C137 1.453 . S
C125 C138 1.684 . S
H126 C150 0.948 . S
C127 C123 1.397 . S
C127 C128 1.394 . S
C127 C146 1.723 . S
C128 C125 1.396 . S
C128 C127 1.394 . S
C128 C158 1.723 1_545 S
H129 C152 0.947 . S
H130 C153 0.948 . S
H131 C159 0.982 . S
H132 C160 0.979 . S
H133 C160 0.980 . S
H134 C160 0.983 . S
H135 C159 0.979 . S
H136 C159 0.977 . S
C137 C125 1.453 . S
C137 H166 0.982 . S
C137 H167 0.979 . S
C137 H168 0.977 1_545 S
C138 C125 1.684 . S
C138 H163 0.979 . S
C138 H164 0.980 . S
C138 H165 0.983 . S
C139 C140 1.391 . S
C139 C144 1.391 . S
C139 H169 0.948 . S
C140 C139 1.391 . S
C140 C141 1.391 1_545 S
C141 C140 1.391 1_565 S
C141 C142 1.392 . S
C141 H170 0.947 . S
C142 C141 1.392 . S
C142 C143 1.419 1_565 S
C142 H171 0.948 . S
C143 C142 1.419 1_545 S
C143 C144 1.391 . S
C143 C147 1.397 . S
C144 C139 1.391 . S
C144 C143 1.391 . S
C144 C145 1.399 . S
C145 C144 1.399 . S
C145 C146 1.396 . S
C145 C148 1.453 . S
C145 C149 1.684 . S
C146 C127 1.723 . S
C146 C145 1.396 . S
C146 C147 1.394 . S
C147 C143 1.397 . S
C147 C146 1.394 . S
C147 C157 1.723 1_545 S
C148 C145 1.453 . S
C148 H172 0.982 . S
C148 H173 0.979 . S
C148 H174 0.977 . S
C149 C145 1.684 . S
C149 H175 0.979 . S
C149 H176 0.980 . S
C149 H177 0.983 . S
C150 H126 0.948 . S
C150 C151 1.391 . S
C150 C155 1.391 . S
C151 C150 1.391 . S
C151 C152 1.391 . S
C152 H129 0.947 . S
C152 C151 1.391 . S
C152 C153 1.392 . S
C153 H130 0.948 . S
C153 C152 1.392 . S
C153 C154 1.419 . S
C154 C153 1.419 . S
C154 C155 1.391 . S
C154 C158 1.397 . S
C155 C150 1.391 . S
C155 C154 1.391 . S
C155 C156 1.399 . S
C156 C155 1.399 . S
C156 C157 1.396 . S
C156 C159 1.453 . S
C156 C160 1.684 . S
C157 C147 1.723 1_565 S
C157 C156 1.396 . S
C157 C158 1.394 . S
C158 C128 1.723 1_565 S
C158 C154 1.397 . S
C158 C157 1.394 . S
C159 H131 0.982 . S
C159 H135 0.979 . S
C159 H136 0.977 . S
C159 C156 1.453 . S
C160 H132 0.979 . S
C160 H133 0.980 . S
C160 H134 0.983 . S
C160 C156 1.684 . S
H161 C179 0.948 . S
H162 C120 0.948 . S
H163 C138 0.979 . S
H164 C138 0.980 . S
H165 C138 0.983 . S
H166 C137 0.982 . S
H167 C137 0.979 . S
H168 C137 0.977 1_565 S
H169 C139 0.948 . S
H170 C141 0.947 . S
H171 C142 0.948 . S
H172 C148 0.982 . S
H173 C148 0.979 . S
H174 C148 0.977 . S
H175 C149 0.979 . S
H176 C149 0.980 . S
H177 C149 0.983 . S
H178 C122 0.947 . S
C179 C122 1.392 . S
C179 C123 1.419 . S
C179 H161 0.948 . S
C180 C181 1.391 . S
C180 C184 1.391 . S
C180 H222 0.948 . S
C181 C180 1.391 . S
C181 C182 1.391 . S
C182 C181 1.391 . S
C182 H238 0.947 . S
C182 C239 1.392 . S
C183 C184 1.391 . S
C183 C187 1.397 . S
C183 C239 1.419 . S
C184 C180 1.391 . S
C184 C183 1.391 . S
C184 C185 1.399 . S
C185 C184 1.399 . S
C185 C188 1.396 . S
C185 C197 1.453 . S
C185 C198 1.684 . S
H186 C210 0.948 . S
C187 C183 1.397 . S
C187 C188 1.394 . S
C187 C206 1.723 . S
C188 C185 1.396 . S
C188 C187 1.394 . S
C188 C218 1.723 . S
H189 C212 0.947 . S
H190 C213 0.948 . S
H191 C219 0.982 . S
H192 C220 0.979 . S
H193 C220 0.980 . S
H194 C220 0.983 . S
H195 C219 0.979 . S
H196 C219 0.977 . S
C197 C185 1.453 . S
C197 H226 0.982 . S
C197 H227 0.979 . S
C197 H228 0.977 . S
C198 C185 1.684 . S
C198 H223 0.979 . S
C198 H224 0.980 . S
C198 H225 0.983 . S
C199 C200 1.391 . S
C199 C204 1.391 . S
C199 H229 0.948 . S
C200 C199 1.391 . S
C200 C201 1.391 . S
C201 C200 1.391 . S
C201 C202 1.392 . S
C201 H230 0.947 . S
C202 C201 1.392 . S
C202 C203 1.419 . S
C202 H231 0.948 . S
C203 C202 1.419 . S
C203 C204 1.391 . S
C203 C207 1.397 . S
C204 C199 1.391 . S
C204 C203 1.391 . S
C204 C205 1.399 . S
C205 C204 1.399 . S
C205 C206 1.396 . S
C205 C208 1.453 . S
C205 C209 1.684 . S
C206 C187 1.723 . S
C206 C205 1.396 . S
C206 C207 1.394 . S
C207 C203 1.397 . S
C207 C206 1.394 . S
C207 C217 1.723 . S
C208 C205 1.453 . S
C208 H232 0.982 . S
C208 H233 0.979 . S
C208 H234 0.977 . S
C209 C205 1.684 . S
C209 H235 0.979 . S
C209 H236 0.980 . S
C209 H237 0.983 . S
C210 H186 0.948 . S
C210 C211 1.391 . S
C210 C215 1.391 . S
C211 C210 1.391 . S
C211 C212 1.391 . S
C212 H189 0.947 . S
C212 C211 1.391 . S
C212 C213 1.392 . S
C213 H190 0.948 . S
C213 C212 1.392 . S
C213 C214 1.419 . S
C214 C213 1.419 . S
C214 C215 1.391 . S
C214 C218 1.397 . S
C215 C210 1.391 . S
C215 C214 1.391 . S
C215 C216 1.399 . S
C216 C215 1.399 . S
C216 C217 1.396 . S
C216 C219 1.453 . S
C216 C220 1.684 . S
C217 C207 1.723 . S
C217 C216 1.396 . S
C217 C218 1.394 . S
C218 C188 1.723 . S
C218 C214 1.397 . S
C218 C217 1.394 . S
C219 H191 0.982 . S
C219 H195 0.979 . S
C219 H196 0.977 . S
C219 C216 1.453 . S
C220 H192 0.979 . S
C220 H193 0.980 . S
C220 H194 0.983 . S
C220 C216 1.684 . S
H221 C239 0.948 . S
H222 C180 0.948 . S
H223 C198 0.979 . S
H224 C198 0.980 . S
H225 C198 0.983 . S
H226 C197 0.982 . S
H227 C197 0.979 . S
H228 C197 0.977 . S
H229 C199 0.948 . S
H230 C201 0.947 . S
H231 C202 0.948 . S
H232 C208 0.982 . S
H233 C208 0.979 . S
H234 C208 0.977 . S
H235 C209 0.979 . S
H236 C209 0.980 . S
H237 C209 0.983 . S
H238 C182 0.947 . S
C239 C182 1.392 . S
C239 C183 1.419 . S
C239 H221 0.948 . S
C240 C241 1.391 . S
C240 C244 1.391 . S
C240 H282 0.948 . S
C241 C240 1.391 . S
C241 C242 1.391 . S
C242 C241 1.391 . S
C242 H298 0.947 . S
C242 C299 1.392 . S
C243 C244 1.391 . S
C243 C247 1.397 . S
C243 C299 1.419 . S
C244 C240 1.391 . S
C244 C243 1.391 . S
C244 C245 1.399 . S
C245 C244 1.399 . S
C245 C248 1.396 . S
C245 C257 1.453 . S
C245 C258 1.684 . S
H246 C270 0.948 . S
C247 C243 1.397 . S
C247 C248 1.394 . S
C247 C266 1.723 . S
C248 C245 1.396 . S
C248 C247 1.394 . S
C248 C278 1.723 1_455 S
H249 C272 0.947 . S
H250 C273 0.948 . S
H251 C279 0.982 . S
H252 C280 0.979 . S
H253 C280 0.980 . S
H254 C280 0.983 . S
H255 C279 0.979 . S
H256 C279 0.977 . S
C257 C245 1.453 . S
C257 H286 0.982 . S
C257 H287 0.979 . S
C257 H288 0.955 1_455 S
C258 C245 1.684 . S
C258 H283 0.979 . S
C258 H284 0.980 . S
C258 H285 0.983 . S
C259 C260 1.414 . S
C259 C264 1.391 . S
C259 H289 0.948 . S
C260 C259 1.414 . S
C260 C261 1.406 1_455 S
C261 C260 1.406 1_655 S
C261 C262 1.392 . S
C261 H290 0.947 . S
C262 C261 1.392 . S
C262 C263 1.419 1_655 S
C262 H291 0.948 . S
C263 C262 1.419 1_455 S
C263 C264 1.391 . S
C263 C267 1.397 . S
C264 C259 1.391 . S
C264 C263 1.391 . S
C264 C265 1.399 . S
C265 C264 1.399 . S
C265 C266 1.396 . S
C265 C268 1.453 . S
C265 C269 1.684 . S
C266 C247 1.723 . S
C266 C265 1.396 . S
C266 C267 1.394 . S
C267 C263 1.397 . S
C267 C266 1.394 . S
C267 C277 1.723 1_455 S
C268 C265 1.453 . S
C268 H292 0.982 . S
C268 H293 0.979 . S
C268 H294 0.977 . S
C269 C265 1.684 . S
C269 H295 0.979 . S
C269 H296 0.980 . S
C269 H297 0.983 . S
C270 H246 0.948 . S
C270 C271 1.391 . S
C270 C275 1.391 . S
C271 C270 1.391 . S
C271 C272 1.391 . S
C272 H249 0.947 . S
C272 C271 1.391 . S
C272 C273 1.392 . S
C273 H250 0.948 . S
C273 C272 1.392 . S
C273 C274 1.419 . S
C274 C273 1.419 . S
C274 C275 1.391 . S
C274 C278 1.397 . S
C275 C270 1.391 . S
C275 C274 1.391 . S
C275 C276 1.399 . S
C276 C275 1.399 . S
C276 C277 1.396 . S
C276 C279 1.453 . S
C276 C280 1.684 . S
C277 C267 1.723 1_655 S
C277 C276 1.396 . S
C277 C278 1.394 . S
C278 C248 1.723 1_655 S
C278 C274 1.397 . S
C278 C277 1.394 . S
C279 H251 0.982 . S
C279 H255 0.979 . S
C279 H256 0.977 . S
C279 C276 1.453 . S
C280 H252 0.979 . S
C280 H253 0.980 . S
C280 H254 0.983 . S
C280 C276 1.684 . S
H281 C299 0.948 . S
H282 C240 0.948 . S
H283 C258 0.979 . S
H284 C258 0.980 . S
H285 C258 0.983 . S
H286 C257 0.982 . S
H287 C257 0.979 . S
H288 C257 0.955 1_655 S
H289 C259 0.948 . S
H290 C261 0.947 . S
H291 C262 0.948 . S
H292 C268 0.982 . S
H293 C268 0.979 . S
H294 C268 0.977 . S
H295 C269 0.979 . S
H296 C269 0.980 . S
H297 C269 0.983 . S
H298 C242 0.947 . S
C299 C242 1.392 . S
C299 C243 1.419 . S
C299 H281 0.948 . S
C300 C301 1.391 . S
C300 C304 1.391 . S
C300 H342 0.948 . S
C301 C300 1.391 . S
C301 C302 1.391 . S
C302 C301 1.391 . S
C302 H358 0.947 . S
C302 C359 1.392 . S
C303 C304 1.391 . S
C303 C307 1.397 . S
C303 C359 1.419 . S
C304 C300 1.391 . S
C304 C303 1.391 . S
C304 C305 1.399 . S
C305 C304 1.399 . S
C305 C308 1.396 . S
C305 C317 1.454 1_655 S
C305 C318 1.684 . S
H306 C330 0.948 . S
C307 C303 1.397 . S
C307 C308 1.394 . S
C307 C326 1.723 . S
C308 C305 1.396 . S
C308 C307 1.394 . S
C308 C338 1.723 1_655 S
H309 C332 0.947 . S
H310 C333 0.948 . S
H311 C339 0.982 . S
H312 C340 0.979 . S
H313 C340 0.980 . S
H314 C340 0.983 . S
H315 C339 0.979 . S
H316 C339 0.977 . S
C317 C305 1.454 1_455 S
C317 H346 0.981 . S
C317 H347 0.980 1_455 S
C317 H348 0.976 . S
C318 C305 1.684 . S
C318 H343 0.979 . S
C318 H344 0.980 . S
C318 H345 0.983 . S
C319 C320 1.391 1_655 S
C319 C324 1.391 . S
C319 H349 0.948 . S
C320 C319 1.391 1_455 S
C320 C321 1.391 . S
C321 C320 1.391 . S
C321 C322 1.392 . S
C321 H350 0.947 . S
C322 C321 1.392 . S
C322 C323 1.419 . S
C322 H351 0.948 . S
C323 C322 1.419 . S
C323 C324 1.391 1_455 S
C323 C327 1.397 . S
C324 C319 1.391 . S
C324 C323 1.391 1_655 S
C324 C325 1.399 . S
C325 C324 1.399 . S
C325 C326 1.396 . S
C325 C328 1.453 . S
C325 C329 1.684 . S
C326 C307 1.723 . S
C326 C325 1.396 . S
C326 C327 1.394 1_655 S
C327 C323 1.397 . S
C327 C326 1.394 1_455 S
C327 C337 1.723 . S
C328 C325 1.453 . S
C328 H352 0.982 . S
C328 H353 0.979 . S
C328 H354 0.977 . S
C329 C325 1.684 . S
C329 H355 0.979 . S
C329 H356 0.980 . S
C329 H357 0.983 . S
C330 H306 0.948 . S
C330 C331 1.391 . S
C330 C335 1.391 . S
C331 C330 1.391 . S
C331 C332 1.391 . S
C332 H309 0.947 . S
C332 C331 1.391 . S
C332 C333 1.392 . S
C333 H310 0.948 . S
C333 C332 1.392 . S
C333 C334 1.419 . S
C334 C333 1.419 . S
C334 C335 1.391 . S
C334 C338 1.397 . S
C335 C330 1.391 . S
C335 C334 1.391 . S
C335 C336 1.399 . S
C336 C335 1.399 . S
C336 C337 1.396 . S
C336 C339 1.453 . S
C336 C340 1.684 . S
C337 C327 1.723 . S
C337 C336 1.396 . S
C337 C338 1.394 . S
C338 C308 1.723 1_455 S
C338 C334 1.397 . S
C338 C337 1.394 . S
C339 H311 0.982 . S
C339 H315 0.979 . S
C339 H316 0.977 . S
C339 C336 1.453 . S
C340 H312 0.979 . S
C340 H313 0.980 . S
C340 H314 0.983 . S
C340 C336 1.684 . S
H341 C359 0.948 . S
H342 C300 0.948 . S
H343 C318 0.979 . S
H344 C318 0.980 . S
H345 C318 0.983 . S
H346 C317 0.981 . S
H347 C317 0.980 1_655 S
H348 C317 0.976 . S
H349 C319 0.948 . S
H350 C321 0.947 . S
H351 C322 0.948 . S
H352 C328 0.982 . S
H353 C328 0.979 . S
H354 C328 0.977 . S
H355 C329 0.979 . S
H356 C329 0.980 . S
H357 C329 0.983 . S
H358 C302 0.947 . S
C359 C302 1.392 . S
C359 C303 1.419 . S
C359 H341 0.948 . S
C360 C361 1.391 . S
C360 C364 1.391 . S
C360 H402 0.948 . S
C361 C360 1.391 . S
C361 C362 1.391 . S
C362 C361 1.391 . S
C362 H418 0.947 . S
C362 C419 1.392 . S
C363 C364 1.391 . S
C363 C367 1.397 . S
C363 C419 1.419 . S
C364 C360 1.391 . S
C364 C363 1.391 . S
C364 C365 1.399 . S
C365 C364 1.399 . S
C365 C368 1.396 . S
C365 C377 1.453 . S
C365 C378 1.684 . S
H366 C390 0.948 . S
C367 C363 1.397 . S
C367 C368 1.394 . S
C367 C386 1.723 . S
C368 C365 1.396 . S
C368 C367 1.394 . S
C368 C398 1.723 1_565 S
H369 C392 0.947 . S
H370 C393 0.948 . S
H371 C399 0.982 . S
H372 C400 0.979 . S
H373 C400 0.980 . S
H374 C400 0.983 . S
H375 C399 0.979 . S
H376 C399 0.977 . S
C377 C365 1.453 . S
C377 H406 0.982 1_565 S
C377 H407 0.979 . S
C377 H408 0.977 1_565 S
C378 C365 1.684 . S
C378 H403 0.979 . S
C378 H404 0.980 . S
C378 H405 0.983 . S
C379 C380 1.391 1_565 S
C379 C384 1.391 . S
C379 H409 0.948 . S
C380 C379 1.391 1_545 S
C380 C381 1.391 . S
C381 C380 1.391 . S
C381 C382 1.392 . S
C381 H410 0.947 . S
C382 C381 1.392 . S
C382 C383 1.419 . S
C382 H411 0.948 . S
C383 C382 1.419 . S
C383 C384 1.391 1_545 S
C383 C387 1.397 . S
C384 C379 1.391 . S
C384 C383 1.391 1_565 S
C384 C385 1.399 . S
C385 C384 1.399 . S
C385 C386 1.396 . S
C385 C388 1.453 . S
C385 C389 1.684 . S
C386 C367 1.723 . S
C386 C385 1.396 . S
C386 C387 1.394 1_565 S
C387 C383 1.397 . S
C387 C386 1.394 1_545 S
C387 C397 1.723 . S
C388 C385 1.453 . S
C388 H412 0.982 . S
C388 H413 0.979 . S
C388 H414 0.977 . S
C389 C385 1.684 . S
C389 H415 0.979 . S
C389 H416 0.980 . S
C389 H417 0.983 . S
C390 H366 0.948 . S
C390 C391 1.391 . S
C390 C395 1.391 . S
C391 C390 1.391 . S
C391 C392 1.391 . S
C392 H369 0.947 . S
C392 C391 1.391 . S
C392 C393 1.392 . S
C393 H370 0.948 . S
C393 C392 1.392 . S
C393 C394 1.419 . S
C394 C393 1.419 . S
C394 C395 1.391 . S
C394 C398 1.397 . S
C395 C390 1.391 . S
C395 C394 1.391 . S
C395 C396 1.399 . S
C396 C395 1.399 . S
C396 C397 1.396 . S
C396 C399 1.453 . S
C396 C400 1.684 . S
C397 C387 1.723 . S
C397 C396 1.396 . S
C397 C398 1.394 . S
C398 C368 1.723 1_545 S
C398 C394 1.397 . S
C398 C397 1.394 . S
C399 H371 0.982 . S
C399 H375 0.979 . S
C399 H376 0.977 . S
C399 C396 1.453 . S
C400 H372 0.979 . S
C400 H373 0.980 . S
C400 H374 0.983 . S
C400 C396 1.684 . S
H401 C419 0.948 . S
H402 C360 0.948 . S
H403 C378 0.979 . S
H404 C378 0.980 . S
H405 C378 0.983 . S
H406 C377 0.982 1_545 S
H407 C377 0.979 . S
H408 C377 0.977 1_545 S
H409 C379 0.948 . S
H410 C381 0.947 . S
H411 C382 0.948 . S
H412 C388 0.982 . S
H413 C388 0.979 . S
H414 C388 0.977 . S
H415 C389 0.979 . S
H416 C389 0.980 . S
H417 C389 0.983 . S
H418 C362 0.947 . S
C419 C362 1.392 . S
C419 C363 1.419 . S
C419 H401 0.948 . S
C420 C421 1.391 . S
C420 C424 1.391 . S
C420 H462 0.948 . S
C421 C420 1.391 . S
C421 C422 1.391 . S
C422 C421 1.391 . S
C422 H478 0.947 . S
C422 C479 1.392 . S
C423 C424 1.391 . S
C423 C427 1.397 . S
C423 C479 1.419 . S
C424 C420 1.391 . S
C424 C423 1.391 . S
C424 C425 1.399 . S
C425 C424 1.399 . S
C425 C428 1.396 . S
C425 C437 1.453 . S
C425 C438 1.684 . S
H426 C450 0.948 . S
C427 C423 1.397 . S
C427 C428 1.394 . S
C427 C446 1.723 . S
C428 C425 1.396 . S
C428 C427 1.394 . S
C428 C458 1.723 . S
H429 C452 0.947 . S
H430 C453 0.948 . S
H431 C459 0.982 . S
H432 C460 0.979 . S
H433 C460 0.980 . S
H434 C460 0.983 . S
H435 C459 0.979 . S
H436 C459 0.977 . S
C437 C425 1.453 . S
C437 H466 0.982 . S
C437 H467 0.979 . S
C437 H468 0.977 . S
C438 C425 1.684 . S
C438 H463 0.979 . S
C438 H464 0.980 . S
C438 H465 0.983 . S
C439 C440 1.391 . S
C439 C444 1.391 1_556 S
C439 H469 0.948 . S
C440 C439 1.391 . S
C440 C441 1.391 . S
C441 C440 1.391 . S
C441 C442 1.392 1_556 S
C441 H470 0.947 . S
C442 C441 1.392 1_554 S
C442 C443 1.419 . S
C442 H471 0.948 . S
C443 C442 1.419 . S
C443 C444 1.391 . S
C443 C447 1.397 . S
C444 C439 1.391 1_554 S
C444 C443 1.391 . S
C444 C445 1.399 . S
C445 C444 1.399 . S
C445 C446 1.396 . S
C445 C448 1.453 . S
C445 C449 1.684 . S
C446 C427 1.723 . S
C446 C445 1.396 . S
C446 C447 1.394 . S
C447 C443 1.397 . S
C447 C446 1.394 . S
C447 C457 1.723 . S
C448 C445 1.453 . S
C448 H472 0.982 . S
C448 H473 0.979 . S
C448 H474 0.977 . S
C449 C445 1.684 . S
C449 H475 0.979 . S
C449 H476 0.980 . S
C449 H477 0.983 . S
C450 H426 0.948 . S
C450 C451 1.391 . S
C450 C455 1.391 . S
C451 C450 1.391 . S
C451 C452 1.391 . S
C452 H429 0.947 . S
C452 C451 1.391 . S
C452 C453 1.392 . S
C453 H430 0.948 . S
C453 C452 1.392 . S
C453 C454 1.419 . S
C454 C453 1.419 . S
C454 C455 1.391 . S
C454 C458 1.397 . S
C455 C450 1.391 . S
C455 C454 1.391 . S
C455 C456 1.399 . S
C456 C455 1.399 . S
C456 C457 1.396 . S
C456 C459 1.453 . S
C456 C460 1.684 . S
C457 C447 1.723 . S
C457 C456 1.396 . S
C457 C458 1.394 . S
C458 C428 1.723 . S
C458 C454 1.397 . S
C458 C457 1.394 . S
C459 H431 0.982 . S
C459 H435 0.979 . S
C459 H436 0.977 . S
C459 C456 1.453 . S
C460 H432 0.979 . S
C460 H433 0.980 . S
C460 H434 0.983 . S
C460 C456 1.684 . S
H461 C479 0.948 . S
H462 C420 0.948 . S
H463 C438 0.979 . S
H464 C438 0.980 . S
H465 C438 0.983 . S
H466 C437 0.982 . S
H467 C437 0.979 . S
H468 C437 0.977 . S
H469 C439 0.948 . S
H470 C441 0.947 . S
H471 C442 0.948 . S
H472 C448 0.982 . S
H473 C448 0.979 . S
H474 C448 0.977 . S
H475 C449 0.979 . S
H476 C449 0.980 . S
H477 C449 0.983 . S
H478 C422 0.947 . S
C479 C422 1.392 . S
C479 C423 1.419 . S
C479 H461 0.948 . S
C480 C481 1.369 . S
C480 C482 1.419 . S
C480 H484 0.930 . S
C481 C480 1.369 . S
C481 C490 1.429 . S
C482 C480 1.419 . S
C482 C483 1.363 . S
C482 H485 0.929 . S
C483 C482 1.363 . S
C483 C489 1.428 . S
H484 C480 0.930 . S
H485 C482 0.929 . S
S486 N487 1.613 . S
S486 N488 1.610 . S
N487 S486 1.613 . S
N487 C490 1.350 . S
N488 S486 1.610 . S
N488 C489 1.351 . S
C489 C483 1.428 . S
C489 N488 1.351 . S
C489 C490 1.434 . S
C490 C481 1.429 . S
C490 N487 1.350 . S
C490 C489 1.434 . S
C491 C492 1.369 . S
C491 C493 1.419 . S
C491 H495 0.930 . S
C492 C491 1.369 . S
C492 C501 1.429 . S
C493 C491 1.419 . S
C493 C494 1.363 . S
C493 H496 0.929 . S
C494 C493 1.363 . S
C494 C500 1.428 . S
H495 C491 0.930 . S
H496 C493 0.929 . S
S497 N498 1.613 . S
S497 N499 1.610 . S
N498 S497 1.613 . S
N498 C501 1.350 . S
N499 S497 1.610 . S
N499 C500 1.351 . S
C500 C494 1.428 . S
C500 N499 1.351 . S
C500 C501 1.434 . S
C501 C492 1.429 . S
C501 N498 1.350 . S
C501 C500 1.434 . S
C502 C503 1.369 . S
C502 C504 1.419 . S
C502 H506 0.930 . S
C503 C502 1.369 . S
C503 C512 1.429 . S
C504 C502 1.419 . S
C504 C505 1.363 . S
C504 H507 0.929 . S
C505 C504 1.363 . S
C505 C511 1.428 . S
H506 C502 0.930 . S
H507 C504 0.929 . S
S508 N509 1.613 . S
S508 N510 1.610 . S
N509 S508 1.613 . S
N509 C512 1.350 . S
N510 S508 1.610 . S
N510 C511 1.351 . S
C511 C505 1.428 . S
C511 N510 1.351 . S
C511 C512 1.434 . S
C512 C503 1.429 . S
C512 N509 1.350 . S
C512 C511 1.434 . S
C513 C514 1.369 . S
C513 C515 1.419 . S
C513 H517 0.930 . S
C514 C513 1.369 . S
C514 C523 1.429 . S
C515 C513 1.419 . S
C515 C516 1.363 . S
C515 H518 0.929 . S
C516 C515 1.363 . S
C516 C522 1.428 . S
H517 C513 0.930 . S
H518 C515 0.929 . S
S519 N520 1.613 . S
S519 N521 1.610 . S
N520 S519 1.613 . S
N520 C523 1.350 . S
N521 S519 1.610 . S
N521 C522 1.351 . S
C522 C516 1.428 . S
C522 N521 1.351 . S
C522 C523 1.434 . S
C523 C514 1.429 . S
C523 N520 1.350 . S
C523 C522 1.434 . S
C524 C525 1.369 . S
C524 C526 1.419 . S
C524 H528 0.930 . S
C525 C524 1.369 . S
C525 C534 1.429 . S
C526 C524 1.419 . S
C526 C527 1.363 . S
C526 H529 0.929 . S
C527 C526 1.363 . S
C527 C533 1.428 . S
H528 C524 0.930 . S
H529 C526 0.929 . S
S530 N531 1.613 . S
S530 N532 1.610 . S
N531 S530 1.613 . S
N531 C534 1.350 . S
N532 S530 1.610 . S
N532 C533 1.351 . S
C533 C527 1.428 . S
C533 N532 1.351 . S
C533 C534 1.434 . S
C534 C525 1.429 . S
C534 N531 1.350 . S
C534 C533 1.434 . S
C535 C536 1.369 . S
C535 C537 1.419 . S
C535 H539 0.930 . S
C536 C535 1.369 . S
C536 C545 1.429 . S
C537 C535 1.419 . S
C537 C538 1.363 . S
C537 H540 0.929 . S
C538 C537 1.363 . S
C538 C544 1.428 . S
H539 C535 0.930 . S
H540 C537 0.929 . S
S541 N542 1.613 . S
S541 N543 1.610 . S
N542 S541 1.613 . S
N542 C545 1.350 . S
N543 S541 1.610 . S
N543 C544 1.351 . S
C544 C538 1.428 . S
C544 N543 1.351 . S
C544 C545 1.434 . S
C545 C536 1.429 . S
C545 N542 1.350 . S
C545 C544 1.434 . S
C546 C547 1.369 . S
C546 C548 1.419 . S
C546 H550 0.930 . S
C547 C546 1.369 . S
C547 C556 1.429 . S
C548 C546 1.419 . S
C548 C549 1.363 . S
C548 H551 0.929 . S
C549 C548 1.363 . S
C549 C555 1.428 . S
H550 C546 0.930 . S
H551 C548 0.929 . S
S552 N553 1.613 . S
S552 N554 1.610 . S
N553 S552 1.613 . S
N553 C556 1.350 . S
N554 S552 1.610 . S
N554 C555 1.351 . S
C555 C549 1.428 . S
C555 N554 1.351 . S
C555 C556 1.434 . S
C556 C547 1.429 . S
C556 N553 1.350 . S
C556 C555 1.434 . S
C557 C558 1.369 . S
C557 C559 1.419 . S
C557 H561 0.930 . S
C558 C557 1.369 . S
C558 C567 1.429 . S
C559 C557 1.419 . S
C559 C560 1.363 . S
C559 H562 0.929 . S
C560 C559 1.363 . S
C560 C566 1.428 . S
H561 C557 0.930 . S
H562 C559 0.929 . S
S563 N564 1.613 . S
S563 N565 1.610 . S
N564 S563 1.613 . S
N564 C567 1.350 . S
N565 S563 1.610 . S
N565 C566 1.351 . S
C566 C560 1.428 . S
C566 N565 1.351 . S
C566 C567 1.434 . S
C567 C558 1.429 . S
C567 N564 1.350 . S
C567 C566 1.434 . S
C568 C569 1.369 . S
C568 C570 1.419 . S
C568 H572 0.930 . S
C569 C568 1.369 . S
C569 C578 1.429 . S
C570 C568 1.419 . S
C570 C571 1.363 . S
C570 H573 0.929 . S
C571 C570 1.363 . S
C571 C577 1.428 . S
H572 C568 0.930 . S
H573 C570 0.929 . S
S574 N575 1.613 . S
S574 N576 1.610 . S
N575 S574 1.613 . S
N575 C578 1.350 . S
N576 S574 1.610 . S
N576 C577 1.351 . S
C577 C571 1.428 . S
C577 N576 1.351 . S
C577 C578 1.434 . S
C578 C569 1.429 . S
C578 N575 1.350 . S
C578 C577 1.434 . S
C579 C580 1.369 . S
C579 C581 1.419 . S
C579 H583 0.930 . S
C580 C579 1.369 . S
C580 C589 1.429 . S
C581 C579 1.419 . S
C581 C582 1.363 . S
C581 H584 0.929 . S
C582 C581 1.363 . S
C582 C588 1.428 . S
H583 C579 0.930 . S
H584 C581 0.929 . S
S585 N586 1.613 . S
S585 N587 1.610 . S
N586 S585 1.613 . S
N586 C589 1.350 . S
N587 S585 1.610 . S
N587 C588 1.351 . S
C588 C582 1.428 . S
C588 N587 1.351 . S
C588 C589 1.434 . S
C589 C580 1.429 . S
C589 N586 1.350 . S
C589 C588 1.434 . S
C590 C591 1.369 . S
C590 C592 1.419 . S
C590 H594 0.930 . S
C591 C590 1.369 . S
C591 C600 1.429 . S
C592 C590 1.419 . S
C592 C593 1.363 . S
C592 H595 0.929 . S
C593 C592 1.363 . S
C593 C599 1.428 . S
H594 C590 0.930 . S
H595 C592 0.929 . S
S596 N597 1.613 . S
S596 N598 1.610 . S
N597 S596 1.613 . S
N597 C600 1.350 . S
N598 S596 1.610 . S
N598 C599 1.351 . S
C599 C593 1.428 . S
C599 N598 1.351 . S
C599 C600 1.434 . S
C600 C591 1.429 . S
C600 N597 1.350 . S
C600 C599 1.434 . S
C601 C602 1.369 . S
C601 C603 1.419 . S
C601 H605 0.930 . S
C602 C601 1.369 . S
C602 C611 1.429 . S
C603 C601 1.419 . S
C603 C604 1.363 . S
C603 H606 0.929 . S
C604 C603 1.363 . S
C604 C610 1.428 . S
H605 C601 0.930 . S
H606 C603 0.929 . S
S607 N608 1.613 . S
S607 N609 1.610 . S
N608 S607 1.613 . S
N608 C611 1.350 . S
N609 S607 1.610 . S
N609 C610 1.351 . S
C610 C604 1.428 . S
C610 N609 1.351 . S
C610 C611 1.434 . S
C611 C602 1.429 . S
C611 N608 1.350 . S
C611 C610 1.434 . S
C612 C613 1.369 1_655 S
C612 C614 1.419 . S
C612 H616 0.930 . S
C613 C612 1.369 1_455 S
C613 C622 1.429 . S
C614 C612 1.419 . S
C614 C615 1.363 1_655 S
C614 H617 0.929 . S
C615 C614 1.363 1_455 S
C615 C621 1.428 . S
H616 C612 0.930 . S
H617 C614 0.929 . S
S618 N619 1.613 . S
S618 N620 1.610 . S
N619 S618 1.613 . S
N619 C622 1.350 . S
N620 S618 1.610 . S
N620 C621 1.351 . S
C621 C615 1.428 . S
C621 N620 1.351 . S
C621 C622 1.434 . S
C622 C613 1.429 . S
C622 N619 1.350 . S
C622 C621 1.434 . S
C623 C624 1.369 . S
C623 C625 1.419 . S
C623 H627 0.930 1_545 S
C624 C623 1.369 . S
C624 C633 1.429 . S
C625 C623 1.419 . S
C625 C626 1.363 . S
C625 H628 0.929 1_545 S
C626 C625 1.363 . S
C626 C632 1.428 . S
H627 C623 0.930 1_565 S
H628 C625 0.929 1_565 S
S629 N630 1.613 . S
S629 N631 1.610 . S
N630 S629 1.613 . S
N630 C633 1.350 . S
N631 S629 1.610 . S
N631 C632 1.351 . S
C632 C626 1.428 . S
C632 N631 1.351 . S
C632 C633 1.434 . S
C633 C624 1.429 . S
C633 N630 1.350 . S
C633 C632 1.434 . S
C634 C635 1.369 . S
C634 C636 1.419 . S
C634 H638 0.930 . S
C635 C634 1.369 . S
C635 C644 1.429 . S
C636 C634 1.419 . S
C636 C637 1.363 . S
C636 H639 0.929 . S
C637 C636 1.363 . S
C637 C643 1.428 . S
H638 C634 0.930 . S
H639 C636 0.929 . S
S640 N641 1.613 . S
S640 N642 1.610 . S
N641 S640 1.613 . S
N641 C644 1.350 . S
N642 S640 1.610 . S
N642 C643 1.351 . S
C643 C637 1.428 . S
C643 N642 1.351 . S
C643 C644 1.434 . S
C644 C635 1.429 . S
C644 N641 1.350 . S
C644 C643 1.434 . S
C645 C646 1.369 1_565 S
C645 C647 1.419 . S
C645 H649 0.930 . S
C646 C645 1.369 1_545 S
C646 C655 1.429 . S
C647 C645 1.419 . S
C647 C648 1.363 1_565 S
C647 H650 0.929 . S
C648 C647 1.363 1_545 S
C648 C654 1.428 . S
H649 C645 0.930 . S
H650 C647 0.929 . S
S651 N652 1.613 . S
S651 N653 1.610 . S
N652 S651 1.613 . S
N652 C655 1.350 . S
N653 S651 1.610 . S
N653 C654 1.351 . S
C654 C648 1.428 . S
C654 N653 1.351 . S
C654 C655 1.434 . S
C655 C646 1.429 . S
C655 N652 1.350 . S
C655 C654 1.434 . S
C656 C657 1.369 . S
C656 C658 1.419 . S
C656 H660 0.930 . S
C657 C656 1.369 . S
C657 C666 1.429 . S
C658 C656 1.419 . S
C658 C659 1.363 . S
C658 H661 0.929 . S
C659 C658 1.363 . S
C659 C665 1.428 . S
H660 C656 0.930 . S
H661 C658 0.929 . S
S662 N663 1.613 . S
S662 N664 1.610 . S
N663 S662 1.613 . S
N663 C666 1.350 . S
N664 S662 1.610 . S
N664 C665 1.351 . S
C665 C659 1.428 . S
C665 N664 1.351 . S
C665 C666 1.434 . S
C666 C657 1.429 . S
C666 N663 1.350 . S
C666 C665 1.434 . S
C667 C668 1.369 . S
C667 C669 1.419 . S
C667 H671 0.930 . S
C668 C667 1.369 . S
C668 C677 1.415 1_455 S
C669 C667 1.419 . S
C669 C670 1.363 . S
C669 H672 0.929 . S
C670 C669 1.363 . S
C670 C676 1.428 1_455 S
H671 C667 0.930 . S
H672 C669 0.929 . S
S673 N674 1.613 . S
S673 N675 1.610 . S
N674 S673 1.613 . S
N674 C677 1.359 . S
N675 S673 1.610 . S
N675 C676 1.351 . S
C676 C670 1.428 1_655 S
C676 N675 1.351 . S
C676 C677 1.440 . S
C677 C668 1.415 1_655 S
C677 N674 1.359 . S
C677 C676 1.440 . S
C481 C9 0.720 . S
C483 C451 0.730 . S
C492 C49 0.504 . S
C494 C301 0.443 . S
C503 C89 0.537 . S
C505 C361 0.480 . S
C514 C26 0.653 . S
C516 C421 0.585 . S
C527 C331 0.707 . S
C525 C66 0.731 . S
C538 C391 0.781 . S
C536 C106 0.764 . S
C547 C43 3.052 . S
C549 C181 2.857 . S
C558 C83 3.178 . S
C560 C271 3.153 . S
C569 C22 3.228 . S
C571 C151 3.204 . S
C582 C211 3.202 . S
C580 C62 3.227 . S
C593 C241 2.896 . S
C591 C102 3.100 . S
C602 C3 3.051 . S
C604 C121 2.866 . S
C615 C260 1.749 1_554 S
C613 C15 1.747 . S
C624 C55 1.766 . S
C626 C140 1.780 . S
C635 C95 1.760 . S
C637 C200 1.776 . S
C648 C380 1.040 . S
C646 C42 1.057 . S
C659 C440 1.054 . S
C657 C82 1.060 . S
C668 C2 1.046 . S
C670 C320 1.028 . S
