# Generated by pormake.
# Topology pth, (4,4)-cn, num edge types: 1
# Building blocks:
#     Node 0, Type 0, BuildingBlock: GALJAG_clean_sbu_0, # of connection points: 4
#     Node 1, Type 0, BuildingBlock: GALJAG_clean_sbu_0, # of connection points: 4
#     Node 2, Type 0, BuildingBlock: GALJAG_clean_sbu_0, # of connection points: 4
#     Node 3, Type 1, BuildingBlock: NAHDIM_clean_linker_0, # of connection points: 4
#     Node 4, Type 1, BuildingBlock: NAHDIM_clean_linker_0, # of connection points: 4
#     Node 5, Type 1, BuildingBlock: NAHDIM_clean_linker_0, # of connection points: 4
#     Edge 6, Type (0, 1), BuildingBlock: FUNLAD_clean_linker_1, # of connection points: 2
#     Edge 7, Type (0, 1), BuildingBlock: FUNLAD_clean_linker_1, # of connection points: 2
#     Edge 8, Type (0, 1), BuildingBlock: FUNLAD_clean_linker_1, # of connection points: 2
#     Edge 9, Type (0, 1), BuildingBlock: FUNLAD_clean_linker_1, # of connection points: 2
#     Edge 10, Type (0, 1), BuildingBlock: FUNLAD_clean_linker_1, # of connection points: 2
#     Edge 11, Type (0, 1), BuildingBlock: FUNLAD_clean_linker_1, # of connection points: 2
#     Edge 12, Type (0, 1), BuildingBlock: FUNLAD_clean_linker_1, # of connection points: 2
#     Edge 13, Type (0, 1), BuildingBlock: FUNLAD_clean_linker_1, # of connection points: 2
#     Edge 14, Type (0, 1), BuildingBlock: FUNLAD_clean_linker_1, # of connection points: 2
#     Edge 15, Type (0, 1), BuildingBlock: FUNLAD_clean_linker_1, # of connection points: 2
#     Edge 16, Type (0, 1), BuildingBlock: FUNLAD_clean_linker_1, # of connection points: 2
#     Edge 17, Type (0, 1), BuildingBlock: FUNLAD_clean_linker_1, # of connection points: 2
# Relax obj value: 0.024
# Max RMSD: 0.067
# Mean RMSD: 0.066
data_MOF--net-pth--node1-GALJAG_clean_sbu_0--node2-NAHDIM_clean_linker_0--edge1-FUNLAD_clean_linker_1
_symmetry_space_group_name_H-M    P1
_symmetry_Int_Tables_number       1
_symmetry_cell_setting            triclinic
loop_
_symmetry_equiv_pos_as_xyz
'x, y, z'
_cell_length_a     33.495985
_cell_length_b     33.439039
_cell_length_c     81.310067
_cell_angle_alpha  89.844902
_cell_angle_beta   90.845117
_cell_angle_gamma 119.99719
loop_
_atom_site_label
_atom_site_type_symbol
_atom_site_fract_x
_atom_site_fract_y
_atom_site_fract_z
_atom_type_partial_charge
In0 In 0.9795 0.04506 0.04357 0.0
O1 O 0.93513 0.07782 0.04906 0.0
O2 O 0.99881 0.10301 0.06208 0.0
C3 C 0.92547 0.97773 0.02201 0.0
C4 C 0.04491 0.1058 0.02346 0.0
C5 C 0.98915 0.99257 0.06679 0.0
O6 O 0.90868 0.99316 0.03237 0.0
O7 O 0.96868 0.99618 0.02255 0.0
O8 O 0.02135 0.01819 0.05727 0.0
O9 O 0.95254 0.99409 0.06486 0.0
C10 C 0.96344 0.10639 0.0594 0.0
O11 O 0.05435 0.0875 0.03541 0.0
O12 O 0.00287 0.09366 0.02174 0.0
In13 In 0.01326 0.02971 0.37265 0.0
O14 O 0.05142 0.10824 0.37061 0.0
O15 O 0.01246 0.06923 0.34978 0.0
C16 C 0.08453 0.03498 0.39038 0.0
C17 C 0.94481 0.02832 0.39017 0.0
C18 C 0.98781 0.95039 0.35599 0.0
O19 O 0.08915 0.05041 0.37595 0.0
O20 O 0.04419 0.01697 0.39587 0.0
O21 O 0.96683 0.95176 0.36851 0.0
O22 O 0.02081 0.98887 0.35169 0.0
C23 C 0.03793 0.10857 0.3561 0.0
O24 O 0.94093 0.02028 0.3749 0.0
O25 O 0.98259 0.03617 0.39657 0.0
In26 In 0.03649 0.05256 0.72013 0.0
O27 O 0.98349 0.97815 0.72684 0.0
O28 O 0.98477 0.03238 0.74083 0.0
C29 C 0.09407 0.0344 0.70288 0.0
C30 C 0.98696 0.07067 0.69796 0.0
C31 C 0.09342 0.11523 0.74261 0.0
O32 O 0.07278 0.01142 0.71528 0.0
O33 O 0.08636 0.06651 0.69905 0.0
O34 O 0.07013 0.12384 0.73233 0.0
O35 O 0.08858 0.07549 0.74141 0.0
C36 C 0.96632 0.98956 0.73837 0.0
O37 O 0.02054 0.10226 0.70589 0.0
O38 O 0.97913 0.03034 0.70091 0.0
C39 C 0.00028 0.65374 0.31002 0.0
C40 C 0.02321 0.6944 0.29812 0.0
C41 C 0.0081 0.65785 0.27117 0.0
C42 C 0.05269 0.6687 0.26665 0.0
C43 C 0.05936 0.64169 0.25504 0.0
C44 C 0.02063 0.60311 0.2478 0.0
C45 C 0.97565 0.59319 0.25186 0.0
C46 C 0.97001 0.62116 0.26337 0.0
C47 C 0.1078 0.65401 0.25065 0.0
C48 C 0.93362 0.5524 0.24434 0.0
C49 C 0.13076 0.43169 0.29724 0.0
C50 C 0.08868 0.3933 0.28817 0.0
C51 C 0.08192 0.42317 0.26185 0.0
C52 C 0.03546 0.41117 0.26078 0.0
C53 C 0.02178 0.43756 0.25132 0.0
C54 C 0.0555 0.47707 0.24299 0.0
C55 C 0.10241 0.48871 0.24389 0.0
C56 C 0.11481 0.46088 0.25306 0.0
C57 C 0.97145 0.42361 0.25042 0.0
C58 C 0.1397 0.53123 0.2356 0.0
C59 C 0.07345 0.44005 0.13241 0.0
C60 C 0.02787 0.4253 0.13702 0.0
C61 C 0.01811 0.45229 0.14768 0.0
C62 C 0.05463 0.49441 0.15398 0.0
C63 C 0.10056 0.50868 0.14962 0.0
C64 C 0.10925 0.48137 0.13884 0.0
C65 C 0.96878 0.43611 0.1521 0.0
C66 C 0.14049 0.55313 0.15618 0.0
C67 C 0.09269 0.81978 0.15767 0.0
C68 C 0.0875 0.79921 0.14039 0.0
C69 C 0.04906 0.71574 0.14591 0.0
C70 C 0.00694 0.67431 0.14532 0.0
C71 C 0.00246 0.63352 0.15204 0.0
C72 C 0.04128 0.63427 0.15945 0.0
C73 C 0.08431 0.67576 0.15974 0.0
C74 C 0.08776 0.71602 0.15302 0.0
C75 C 0.95614 0.58987 0.15155 0.0
C76 C 0.12664 0.67779 0.16741 0.0
C77 C 0.02724 0.57183 0.23666 0.0
C78 C 0.03491 0.53825 0.24388 0.0
C79 C 0.04242 0.50806 0.2343 0.0
C80 C 0.0408 0.51029 0.21695 0.0
C81 C 0.04609 0.47913 0.20691 0.0
C82 C 0.04673 0.48307 0.18985 0.0
C83 C 0.04225 0.51842 0.18219 0.0
C84 C 0.04506 0.5241 0.16491 0.0
C85 C 0.04253 0.56095 0.15779 0.0
C86 C 0.03701 0.59233 0.16746 0.0
C87 C 0.0323 0.58611 0.18467 0.0
C88 C 0.0253 0.61622 0.1947 0.0
C89 C 0.02284 0.61117 0.21171 0.0
C90 C 0.02783 0.57614 0.21935 0.0
C91 C 0.03436 0.54505 0.20946 0.0
C92 C 0.03577 0.54953 0.19208 0.0
C93 C 0.0867 0.35792 0.10635 0.0
C94 C 0.05589 0.37523 0.1135 0.0
O95 O 0.00077 0.68211 0.28294 0.0
O96 O 0.05057 0.75436 0.13968 0.0
O97 O 0.08473 0.41651 0.12157 0.0
O98 O 0.09572 0.39892 0.27139 0.0
H99 H 0.05996 0.70403 0.29706 0.0
H100 H 0.00312 0.62416 0.30528 0.0
H101 H 0.96317 0.64246 0.31139 0.0
H102 H 0.01762 0.66363 0.32229 0.0
H103 H 0.08237 0.6984 0.27207 0.0
H104 H 0.93574 0.61354 0.26675 0.0
H105 H 0.11465 0.62654 0.25508 0.0
H106 H 0.13412 0.68744 0.25618 0.0
H107 H 0.11164 0.65601 0.23708 0.0
H108 H 0.901 0.54893 0.24897 0.0
H109 H 0.93422 0.52016 0.24711 0.0
H110 H 0.93407 0.55607 0.23076 0.0
H111 H 0.05768 0.39534 0.29165 0.0
H112 H 0.12575 0.42827 0.31075 0.0
H113 H 0.13582 0.4659 0.29353 0.0
H114 H 0.16233 0.43033 0.29422 0.0
H115 H 0.01001 0.38115 0.26735 0.0
H116 H 0.15056 0.46949 0.25394 0.0
H117 H 0.96594 0.44863 0.25758 0.0
H118 H 0.94899 0.38854 0.25548 0.0
H119 H 0.96078 0.4244 0.23748 0.0
H120 H 0.17481 0.5387 0.23934 0.0
H121 H 0.13629 0.56179 0.23856 0.0
H122 H 0.13611 0.52625 0.22206 0.0
H123 H 0.03255 0.34926 0.12252 0.0
H124 H 0.9998 0.39322 0.13221 0.0
H125 H 0.14427 0.49241 0.13523 0.0
H126 H 0.96471 0.43115 0.16561 0.0
H127 H 0.9441 0.40318 0.14586 0.0
H128 H 0.95983 0.46289 0.14868 0.0
H129 H 0.17436 0.55701 0.15293 0.0
H130 H 0.13871 0.55471 0.16977 0.0
H131 H 0.13841 0.58278 0.15099 0.0
H132 H 0.11989 0.79981 0.1371 0.0
H133 H 0.12177 0.85598 0.15805 0.0
H134 H 0.10004 0.79971 0.16689 0.0
H135 H 0.06056 0.81932 0.16122 0.0
H136 H 0.97727 0.67421 0.13977 0.0
H137 H 0.12079 0.74747 0.15354 0.0
H138 H 0.94527 0.57735 0.16427 0.0
H139 H 0.95886 0.56251 0.14481 0.0
H140 H 0.92912 0.59503 0.14548 0.0
H141 H 0.15836 0.71148 0.16532 0.0
H142 H 0.13164 0.64988 0.16232 0.0
H143 H 0.12187 0.67223 0.18087 0.0
H144 H 0.03614 0.53631 0.25719 0.0
H145 H 0.05012 0.45154 0.21216 0.0
H146 H 0.05141 0.4584 0.18275 0.0
H147 H 0.04661 0.56625 0.14461 0.0
H148 H 0.02176 0.64416 0.1895 0.0
H149 H 0.0177 0.63552 0.21881 0.0
H150 H 0.06694 0.32031 0.10384 0.0
H151 H 0.11411 0.36335 0.11543 0.0
H152 H 0.1036 0.37688 0.09495 0.0
C153 C 0.32694 0.95219 0.64222 0.0
C154 C 0.33139 0.99534 0.63388 0.0
C155 C 0.36695 0.00071 0.60767 0.0
C156 C 0.40463 0.04578 0.60757 0.0
C157 C 0.44342 0.05688 0.59804 0.0
C158 C 0.44457 0.02193 0.58862 0.0
C159 C 0.40625 0.97645 0.58863 0.0
C160 C 0.36748 0.9667 0.59793 0.0
C161 C 0.48322 0.10585 0.5981 0.0
C162 C 0.4065 0.93794 0.57906 0.0
C163 C 0.66336 0.99178 0.6445 0.0
C164 C 0.6957 0.0007 0.63008 0.0
C165 C 0.66705 0.03665 0.61031 0.0
C166 C 0.62798 0.99557 0.60491 0.0
C167 C 0.59457 0.99672 0.59463 0.0
C168 C 0.59979 0.03975 0.58982 0.0
C169 C 0.63915 0.08116 0.59512 0.0
C170 C 0.67258 0.07899 0.60512 0.0
C171 C 0.5533 0.95181 0.58906 0.0
C172 C 0.64549 0.12766 0.59045 0.0
C173 C 0.6876 0.07134 0.48452 0.0
C174 C 0.65254 0.02792 0.48958 0.0
C175 C 0.61369 0.0233 0.49764 0.0
C176 C 0.61036 0.06313 0.50088 0.0
C177 C 0.64511 0.10678 0.49531 0.0
C178 C 0.68308 0.11019 0.48696 0.0
C179 C 0.57644 0.97595 0.50281 0.0
C180 C 0.64254 0.14988 0.49844 0.0
C181 C 0.28086 0.01273 0.49528 0.0
C182 C 0.3103 0.04977 0.48276 0.0
C183 C 0.37955 0.04379 0.4831 0.0
C184 C 0.38677 0.00614 0.48339 0.0
C185 C 0.42463 0.00855 0.49194 0.0
C186 C 0.45668 0.05025 0.49992 0.0
C187 C 0.4509 0.08933 0.49881 0.0
C188 C 0.41206 0.08553 0.49054 0.0
C189 C 0.42978 0.96626 0.49275 0.0
C190 C 0.48539 0.1349 0.50657 0.0
C191 C 0.4864 0.03245 0.57921 0.0
C192 C 0.52361 0.03427 0.58788 0.0
C193 C 0.56306 0.04111 0.57979 0.0
C194 C 0.56577 0.04651 0.56251 0.0
C195 C 0.60454 0.05262 0.55392 0.0
C196 C 0.60663 0.05739 0.5369 0.0
C197 C 0.56977 0.05562 0.52776 0.0
C198 C 0.57105 0.05917 0.51041 0.0
C199 C 0.53403 0.05782 0.50174 0.0
C200 C 0.49521 0.05241 0.50991 0.0
C201 C 0.493 0.04812 0.52724 0.0
C202 C 0.45412 0.04177 0.53584 0.0
C203 C 0.45216 0.03736 0.55287 0.0
C204 C 0.48871 0.03842 0.56196 0.0
C205 C 0.52844 0.04519 0.55357 0.0
C206 C 0.53049 0.04985 0.53619 0.0
C207 C 0.79129 0.09945 0.49478 0.0
C208 C 0.75444 0.06151 0.48378 0.0
O209 O 0.32958 0.98939 0.61698 0.0
O210 O 0.34098 0.03892 0.47555 0.0
O211 O 0.72587 0.07647 0.47711 0.0
O212 O 0.69976 0.0371 0.62061 0.0
H213 H 0.3647 0.02581 0.63783 0.0
H214 H 0.35544 0.94661 0.63832 0.0
H215 H 0.29358 0.92121 0.63876 0.0
H216 H 0.32907 0.95627 0.65581 0.0
H217 H 0.40346 0.07229 0.61483 0.0
H218 H 0.33792 0.93208 0.59804 0.0
H219 H 0.51354 0.10706 0.60432 0.0
H220 H 0.47491 0.12994 0.60457 0.0
H221 H 0.49313 0.11798 0.58528 0.0
H222 H 0.3765 0.90364 0.58196 0.0
H223 H 0.43868 0.9371 0.58175 0.0
H224 H 0.40555 0.94415 0.56569 0.0
H225 H 0.68235 0.96891 0.62246 0.0
H226 H 0.66086 0.9632 0.65225 0.0
H227 H 0.6282 0.98172 0.63991 0.0
H228 H 0.67622 0.02335 0.65223 0.0
H229 H 0.623 0.96237 0.60865 0.0
H230 H 0.70279 0.11051 0.60928 0.0
H231 H 0.54808 0.95214 0.57555 0.0
H232 H 0.52189 0.94771 0.59504 0.0
H233 H 0.55697 0.92144 0.59219 0.0
H234 H 0.67646 0.15659 0.59646 0.0
H235 H 0.61464 0.12974 0.59395 0.0
H236 H 0.64901 0.13203 0.57692 0.0
H237 H 0.7346 0.03017 0.49142 0.0
H238 H 0.6554 0.99764 0.48712 0.0
H239 H 0.71016 0.14344 0.48276 0.0
H240 H 0.57654 0.97351 0.51643 0.0
H241 H 0.58137 0.94807 0.4976 0.0
H242 H 0.54205 0.97012 0.49885 0.0
H243 H 0.67367 0.18153 0.49415 0.0
H244 H 0.63851 0.15347 0.5118 0.0
H245 H 0.6118 0.1471 0.49199 0.0
H246 H 0.32907 0.08369 0.48918 0.0
H247 H 0.25581 0.02092 0.50097 0.0
H248 H 0.30321 0.01131 0.50523 0.0
H249 H 0.2617 0.97825 0.48925 0.0
H250 H 0.36169 0.97429 0.47739 0.0
H251 H 0.40734 0.11524 0.48976 0.0
H252 H 0.43289 0.95794 0.50578 0.0
H253 H 0.46185 0.97331 0.48648 0.0
H254 H 0.4002 0.93565 0.48685 0.0
H255 H 0.47946 0.1634 0.50267 0.0
H256 H 0.521 0.14394 0.50329 0.0
H257 H 0.48284 0.13198 0.52016 0.0
H258 H 0.52143 0.02928 0.6011 0.0
H259 H 0.63373 0.05376 0.56027 0.0
H260 H 0.63747 0.06221 0.53098 0.0
H261 H 0.53524 0.06054 0.48843 0.0
H262 H 0.42463 0.04003 0.52951 0.0
H263 H 0.42145 0.03277 0.55882 0.0
H264 H 0.81455 0.08796 0.50018 0.0
H265 H 0.77464 0.10735 0.505 0.0
H266 H 0.81212 0.13151 0.48762 0.0
C267 C 0.62646 0.71862 0.77531 0.0
C268 C 0.66312 0.73098 0.7889 0.0
C269 C 0.6244 0.66344 0.80704 0.0
C270 C 0.59344 0.67526 0.81401 0.0
C271 C 0.55898 0.64495 0.82471 0.0
C272 C 0.55506 0.60178 0.82842 0.0
C273 C 0.58642 0.58998 0.82158 0.0
C274 C 0.62091 0.62119 0.81109 0.0
C275 C 0.52636 0.65882 0.83189 0.0
C276 C 0.58306 0.5441 0.82517 0.0
C277 C 0.18617 0.36366 0.79965 0.0
C278 C 0.23142 0.36977 0.80685 0.0
C279 C 0.30093 0.43669 0.81867 0.0
C280 C 0.33007 0.41776 0.81782 0.0
C281 C 0.37471 0.44114 0.82478 0.0
C282 C 0.39037 0.48415 0.83273 0.0
C283 C 0.36141 0.50364 0.83328 0.0
C284 C 0.31713 0.47965 0.82618 0.0
C285 C 0.40494 0.41967 0.82389 0.0
C286 C 0.37701 0.54953 0.84159 0.0
C287 C 0.36052 0.36984 0.93568 0.0
C288 C 0.3928 0.36527 0.92617 0.0
C289 C 0.42661 0.40285 0.91738 0.0
C290 C 0.42823 0.4459 0.91805 0.0
C291 C 0.39633 0.4509 0.92777 0.0
C292 C 0.36295 0.41276 0.9365 0.0
C293 C 0.46049 0.39647 0.90727 0.0
C294 C 0.39721 0.49637 0.92875 0.0
C295 C 0.77928 0.7207 0.93062 0.0
C296 C 0.73633 0.7163 0.93874 0.0
C297 C 0.66666 0.64234 0.93367 0.0
C298 C 0.65675 0.59786 0.9294 0.0
C299 C 0.61633 0.56791 0.92059 0.0
C300 C 0.58446 0.58254 0.91642 0.0
C301 C 0.59358 0.62703 0.92127 0.0
C302 C 0.6348 0.65661 0.92977 0.0
C303 C 0.60779 0.52073 0.91571 0.0
C304 C 0.55962 0.64318 0.9176 0.0
C305 C 0.51722 0.56837 0.839 0.0
C306 C 0.47378 0.54088 0.83169 0.0
C307 C 0.43655 0.50859 0.84085 0.0
C308 C 0.44295 0.50229 0.85769 0.0
C309 C 0.40677 0.46863 0.86709 0.0
C310 C 0.41339 0.46274 0.88366 0.0
C311 C 0.4561 0.49104 0.89156 0.0
C312 C 0.46316 0.48535 0.90839 0.0
C313 C 0.5051 0.51583 0.91611 0.0
C314 C 0.54119 0.551 0.90731 0.0
C315 C 0.53574 0.55545 0.89022 0.0
C316 C 0.57214 0.58861 0.88076 0.0
C317 C 0.56629 0.59278 0.86397 0.0
C318 C 0.52372 0.56419 0.85602 0.0
C319 C 0.48652 0.53066 0.86534 0.0
C320 C 0.49278 0.52577 0.88239 0.0
C321 C 0.28951 0.26523 0.92744 0.0
C322 C 0.31507 0.28805 0.94357 0.0
O323 O 0.65761 0.69115 0.79627 0.0
O324 O 0.70648 0.67008 0.94201 0.0
O325 O 0.32645 0.33403 0.94409 0.0
O326 O 0.25683 0.41465 0.81274 0.0
H327 H 0.66058 0.75384 0.79823 0.0
H328 H 0.59134 0.6996 0.78049 0.0
H329 H 0.62945 0.69653 0.76578 0.0
H330 H 0.63053 0.75042 0.76941 0.0
H331 H 0.59558 0.70785 0.81114 0.0
H332 H 0.64495 0.61234 0.80572 0.0
H333 H 0.49133 0.63664 0.82656 0.0
H334 H 0.53709 0.69547 0.82935 0.0
H335 H 0.52414 0.65348 0.84541 0.0
H336 H 0.60876 0.53926 0.81829 0.0
H337 H 0.54797 0.51554 0.82191 0.0
H338 H 0.58863 0.54155 0.83854 0.0
H339 H 0.25043 0.3646 0.79676 0.0
H340 H 0.16789 0.33179 0.79212 0.0
H341 H 0.1935 0.39301 0.7914 0.0
H342 H 0.16324 0.36266 0.80958 0.0
H343 H 0.31819 0.38477 0.81186 0.0
H344 H 0.29448 0.49404 0.82671 0.0
H345 H 0.43788 0.44392 0.81787 0.0
H346 H 0.38815 0.38651 0.81695 0.0
H347 H 0.41348 0.41332 0.83652 0.0
H348 H 0.35055 0.56026 0.84077 0.0
H349 H 0.40913 0.57658 0.83587 0.0
H350 H 0.38495 0.54747 0.85477 0.0
H351 H 0.34667 0.28523 0.94474 0.0
H352 H 0.39188 0.33256 0.92542 0.0
H353 H 0.33812 0.41613 0.94389 0.0
H354 H 0.45573 0.40184 0.89407 0.0
H355 H 0.45628 0.36153 0.90872 0.0
H356 H 0.49631 0.42263 0.91089 0.0
H357 H 0.36947 0.49444 0.93662 0.0
H358 H 0.39327 0.50735 0.91622 0.0
H359 H 0.43106 0.52334 0.9338 0.0
H360 H 0.72049 0.73054 0.93012 0.0
H361 H 0.80357 0.75713 0.92727 0.0
H362 H 0.76915 0.69958 0.91917 0.0
H363 H 0.7972 0.70828 0.93902 0.0
H364 H 0.68134 0.58701 0.93272 0.0
H365 H 0.64166 0.69045 0.93366 0.0
H366 H 0.59844 0.51428 0.90243 0.0
H367 H 0.57836 0.49398 0.92275 0.0
H368 H 0.63834 0.51674 0.91814 0.0
H369 H 0.56948 0.67659 0.92372 0.0
H370 H 0.52465 0.6169 0.92166 0.0
H371 H 0.55766 0.64749 0.90413 0.0
H372 H 0.46868 0.54521 0.81873 0.0
H373 H 0.37304 0.44613 0.8617 0.0
H374 H 0.38442 0.43605 0.89025 0.0
H375 H 0.50995 0.51172 0.9291 0.0
H376 H 0.60565 0.61159 0.88622 0.0
H377 H 0.5955 0.61892 0.85731 0.0
H378 H 0.27981 0.22822 0.92722 0.0
H379 H 0.31173 0.28227 0.91672 0.0
H380 H 0.25779 0.26777 0.92607 0.0
H381 H 0.92788 0.1464 0.06271 0.0
C382 C 0.95799 0.14405 0.06635 0.0
H383 H 0.02289 0.17693 0.07847 0.0
H384 H 0.05048 0.37499 0.06389 0.0
H385 H 0.09264 0.36777 0.04118 0.0
H386 H 0.08929 0.29375 0.03539 0.0
H387 H 0.04364 0.22649 0.05223 0.0
C388 C 0.99172 0.17797 0.07542 0.0
C389 C 0.99195 0.22176 0.07876 0.0
C390 C 0.01871 0.2607 0.06876 0.0
C391 C 0.02057 0.3033 0.07207 0.0
C392 C 0.04764 0.34168 0.06188 0.0
C393 C 0.07209 0.33805 0.04882 0.0
C394 C 0.07022 0.2964 0.04556 0.0
C395 C 0.0439 0.25806 0.05535 0.0
H396 H 0.02788 0.41569 0.1008 0.0
C397 C 0.02755 0.38305 0.1004 0.0
H398 H 0.98065 0.36269 0.08068 0.0
H399 H 0.93791 0.1539 0.10033 0.0
H400 H 0.8954 0.16102 0.12303 0.0
H401 H 0.89815 0.23485 0.12866 0.0
H402 H 0.9436 0.30215 0.11168 0.0
C403 C 0.99936 0.35223 0.08901 0.0
C404 C 0.99629 0.30711 0.08556 0.0
C405 C 0.96905 0.26804 0.09544 0.0
C406 C 0.96703 0.2253 0.09207 0.0
C407 C 0.94026 0.18701 0.10228 0.0
C408 C 0.91577 0.19067 0.11535 0.0
C409 C 0.91734 0.23226 0.11852 0.0
C410 C 0.94358 0.27062 0.10871 0.0
H411 H 0.87925 0.02829 0.39297 0.0
C412 C 0.90887 0.03085 0.39959 0.0
H413 H 0.94353 0.04221 0.42244 0.0
H414 H 0.86548 0.15215 0.45829 0.0
H415 H 0.9447 0.21157 0.45402 0.0
H416 H 0.99536 0.19717 0.43629 0.0
H417 H 0.9672 0.12306 0.42287 0.0
C418 C 0.91317 0.03824 0.41592 0.0
C419 C 0.88071 0.04743 0.4253 0.0
C420 C 0.8974 0.09138 0.43276 0.0
C421 C 0.86787 0.10004 0.44267 0.0
C422 C 0.88601 0.14381 0.45039 0.0
C423 C 0.93153 0.17829 0.44808 0.0
C424 C 0.96007 0.17017 0.43812 0.0
C425 C 0.94344 0.12734 0.43053 0.0
H426 H 0.78491 0.02173 0.473 0.0
C427 C 0.77696 0.04893 0.4704 0.0
H428 H 0.78689 0.10236 0.4542 0.0
H429 H 0.83811 0.95828 0.4137 0.0
H430 H 0.7575 0.90057 0.41647 0.0
H431 H 0.70464 0.91805 0.43156 0.0
H432 H 0.73242 0.9931 0.44429 0.0
C433 C 0.79207 0.07321 0.45642 0.0
C434 C 0.82146 0.06494 0.44492 0.0
C435 C 0.80412 0.02175 0.4368 0.0
C436 C 0.83407 0.01251 0.42735 0.0
C437 C 0.81655 0.96795 0.42039 0.0
C438 C 0.77035 0.93433 0.42198 0.0
C439 C 0.74063 0.94411 0.43053 0.0
C440 C 0.75711 0.98722 0.43788 0.0
H441 H 0.91428 0.96943 0.75763 0.0
C442 C 0.92629 0.95617 0.74783 0.0
H443 H 0.91317 0.89749 0.73391 0.0
H444 H 0.78652 0.81366 0.8016 0.0
H445 H 0.85962 0.84013 0.81593 0.0
H446 H 0.93313 0.88383 0.80132 0.0
H447 H 0.93399 0.90171 0.77232 0.0
C448 C 0.90285 0.91094 0.74414 0.0
C449 C 0.8589 0.8796 0.75253 0.0
C450 C 0.85901 0.86837 0.76936 0.0
C451 C 0.8166 0.84217 0.77768 0.0
C452 C 0.8177 0.83274 0.79461 0.0
C453 C 0.85943 0.8478 0.80299 0.0
C454 C 0.90082 0.87249 0.79478 0.0
C455 C 0.90084 0.88273 0.77815 0.0
H456 H 0.7279 0.73793 0.77831 0.0
C457 C 0.71049 0.75682 0.78156 0.0
H458 H 0.71145 0.82026 0.78022 0.0
H459 H 0.84654 0.89266 0.71998 0.0
H460 H 0.77344 0.86372 0.70543 0.0
H461 H 0.69992 0.81714 0.71976 0.0
H462 H 0.69907 0.79937 0.74876 0.0
C463 C 0.72982 0.8018 0.77784 0.0
C464 C 0.77425 0.82654 0.76905 0.0
C465 C 0.77415 0.83618 0.75208 0.0
C466 C 0.81652 0.86266 0.74379 0.0
C467 C 0.81538 0.8724 0.72687 0.0
C468 C 0.77365 0.85603 0.71837 0.0
C469 C 0.73225 0.82984 0.72644 0.0
C470 C 0.73227 0.81996 0.74309 0.0
H471 H 0.96326 0.94076 0.08656 0.0
C472 C 0.99278 0.96161 0.07887 0.0
H473 H 0.06055 0.97848 0.07281 0.0
H474 H 0.09244 0.90807 0.14189 0.0
H475 H 0.13635 0.99085 0.14633 0.0
H476 H 0.13362 0.04437 0.126 0.0
H477 H 0.08666 0.01533 0.10115 0.0
C478 C 0.0304 0.95721 0.08016 0.0
C479 C 0.03272 0.92469 0.09213 0.0
C480 C 0.06109 0.94225 0.1064 0.0
C481 C 0.06329 0.91142 0.11797 0.0
C482 C 0.09051 0.92989 0.13244 0.0
C483 C 0.11565 0.97738 0.13521 0.0
C484 C 0.11407 0.0075 0.12378 0.0
C485 C 0.08704 0.99036 0.10955 0.0
H486 H 0.11001 0.85143 0.1203 0.0
C487 C 0.08082 0.82874 0.12786 0.0
H488 H 0.0122 0.80818 0.13407 0.0
H489 H 0.97692 0.87964 0.06555 0.0
H490 H 0.93285 0.79682 0.06115 0.0
H491 H 0.93609 0.74334 0.08138 0.0
H492 H 0.98365 0.77243 0.1061 0.0
C493 C 0.04182 0.83077 0.12668 0.0
C494 C 0.03789 0.86308 0.11504 0.0
C495 C 0.00919 0.84549 0.10085 0.0
C496 C 0.00687 0.87633 0.0893 0.0
C497 C 0.97919 0.85783 0.07492 0.0
C498 C 0.95389 0.81033 0.0722 0.0
C499 C 0.95576 0.78022 0.08357 0.0
C500 C 0.98314 0.79738 0.09772 0.0
H501 H 0.15586 0.04887 0.39376 0.0
C502 C 0.12345 0.03768 0.39996 0.0
H503 H 0.0872 0.01521 0.42216 0.0
H504 H 0.20472 0.94233 0.45758 0.0
H505 H 0.13239 0.87166 0.45278 0.0
H506 H 0.07148 0.8711 0.4352 0.0
H507 H 0.08234 0.94141 0.4225 0.0
C508 C 0.11985 0.02723 0.41603 0.0
C509 C 0.15833 0.02773 0.42564 0.0
C510 C 0.15189 0.98606 0.43265 0.0
C511 C 0.1875 0.98615 0.44243 0.0
C512 C 0.17936 0.94426 0.44975 0.0
C513 C 0.13788 0.90335 0.44714 0.0
C514 C 0.10356 0.90305 0.43727 0.0
C515 C 0.11025 0.94376 0.43009 0.0
H516 H 0.26487 0.07535 0.47279 0.0
C517 C 0.27944 0.05358 0.4699 0.0
H518 H 0.27793 0.00399 0.45354 0.0
H519 H 0.18058 0.11503 0.41572 0.0
H520 H 0.25493 0.18453 0.41877 0.0
H521 H 0.31972 0.18265 0.43284 0.0
H522 H 0.30998 0.11144 0.44438 0.0
C523 C 0.26579 0.02798 0.45605 0.0
C524 C 0.22995 0.02776 0.44489 0.0
C525 C 0.23719 0.06902 0.43723 0.0
C526 C 0.20078 0.06941 0.42812 0.0
C527 C 0.20772 0.11203 0.42192 0.0
C528 C 0.25018 0.15237 0.42371 0.0
C529 C 0.28657 0.15136 0.43171 0.0
C530 C 0.28037 0.1103 0.4384 0.0
H531 H 0.13916 0.13627 0.76448 0.0
C532 C 0.12159 0.14738 0.75585 0.0
H533 H 0.10396 0.19828 0.75017 0.0
H534 H 0.11847 0.26023 0.82439 0.0
H535 H 0.03571 0.21983 0.81969 0.0
H536 H 0.00164 0.17668 0.79389 0.0
H537 H 0.05007 0.17379 0.77262 0.0
C538 C 0.12311 0.18781 0.75829 0.0
C539 C 0.14437 0.21525 0.77354 0.0
C540 C 0.11548 0.21656 0.78584 0.0
C541 C 0.13505 0.24102 0.80078 0.0
C542 C 0.1054 0.24182 0.81286 0.0
C543 C 0.05782 0.21884 0.81032 0.0
C544 C 0.03865 0.1946 0.79579 0.0
C545 C 0.06692 0.19329 0.78366 0.0
H546 H 0.23314 0.35007 0.83313 0.0
C547 C 0.2227 0.33604 0.82076 0.0
H548 H 0.19848 0.26956 0.83 0.0
H549 H 0.20973 0.22255 0.752 0.0
H550 H 0.29241 0.26129 0.75705 0.0
H551 H 0.32595 0.30062 0.78352 0.0
H552 H 0.27702 0.30193 0.80502 0.0
C553 C 0.20336 0.28999 0.81902 0.0
C554 C 0.1835 0.26457 0.80331 0.0
C555 C 0.21237 0.26285 0.79111 0.0
C556 C 0.19285 0.23881 0.77607 0.0
C557 C 0.22263 0.23919 0.76382 0.0
C558 C 0.27015 0.26146 0.76654 0.0
C559 C 0.28905 0.2837 0.78143 0.0
C560 C 0.26065 0.28439 0.79363 0.0
H561 H 0.96554 0.11561 0.68523 0.0
C562 C 0.95732 0.08006 0.68693 0.0
H563 H 0.9109 0.00993 0.68137 0.0
H564 H 0.76356 0.08177 0.67028 0.0
H565 H 0.77216 0.09742 0.69956 0.0
H566 H 0.83245 0.0927 0.71578 0.0
H567 H 0.88456 0.07246 0.7028 0.0
C568 C 0.91899 0.04553 0.67995 0.0
C569 C 0.88626 0.05392 0.67003 0.0
C570 C 0.85622 0.06612 0.67785 0.0
C571 C 0.82111 0.06839 0.66852 0.0
C572 C 0.79096 0.07969 0.6767 0.0
C573 C 0.79543 0.08869 0.69354 0.0
C574 C 0.82939 0.08607 0.70267 0.0
C575 C 0.8593 0.07464 0.69502 0.0
H576 H 0.7479 0.98158 0.63791 0.0
C577 C 0.74224 0.01075 0.63654 0.0
H578 H 0.76776 0.08107 0.64208 0.0
H579 H 0.9405 0.03333 0.65113 0.0
H580 H 0.93393 0.02076 0.62158 0.0
H581 H 0.87445 0.02685 0.6053 0.0
H582 H 0.82088 0.04506 0.6185 0.0
C583 C 0.77421 0.05231 0.64243 0.0
C584 C 0.81571 0.05774 0.65147 0.0
C585 C 0.8477 0.04858 0.64349 0.0
C586 C 0.88259 0.04605 0.65282 0.0
C587 C 0.91334 0.03566 0.64462 0.0
C588 C 0.91006 0.02854 0.62766 0.0
C589 C 0.87653 0.0319 0.6185 0.0
C590 C 0.84574 0.04197 0.62624 0.0
H591 H 0.91656 0.93474 0.00045 0.0
C592 C 0.89789 0.94117 0.00994 0.0
H593 H 0.83248 0.92121 0.01968 0.0
H594 H 0.72889 0.83235 0.95192 0.0
H595 H 0.70814 0.89116 0.95674 0.0
H596 H 0.74165 0.94508 0.98021 0.0
H597 H 0.79565 0.94017 0.99912 0.0
C598 C 0.85178 0.9149 0.01043 0.0
C599 C 0.8265 0.87833 0.9977 0.0
C600 C 0.79504 0.88173 0.98676 0.0
C601 C 0.77648 0.85124 0.97302 0.0
C602 C 0.74475 0.85515 0.96237 0.0
C603 C 0.7324 0.88866 0.96502 0.0
C604 C 0.75122 0.91898 0.97824 0.0
C605 C 0.78222 0.91578 0.98901 0.0
H606 H 0.73964 0.72515 0.96622 0.0
C607 C 0.74908 0.74359 0.9546 0.0
H608 H 0.78274 0.8083 0.943 0.0
H609 H 0.8754 0.8542 0.01873 0.0
H610 H 0.89847 0.79718 0.01365 0.0
H611 H 0.87506 0.75135 0.98798 0.0
H612 H 0.82732 0.76101 0.96761 0.0
C613 C 0.77432 0.78994 0.95463 0.0
C614 C 0.79002 0.81793 0.97007 0.0
C615 C 0.8204 0.81354 0.98136 0.0
C616 C 0.83691 0.84242 0.99555 0.0
C617 C 0.86417 0.83498 0.00729 0.0
C618 C 0.87734 0.80214 0.00459 0.0
C619 C 0.86394 0.77617 0.99019 0.0
C620 C 0.83599 0.78176 0.97865 0.0
H621 H 0.94764 0.87482 0.3523 0.0
C622 C 0.97653 0.90665 0.3478 0.0
H623 H 0.03162 0.93675 0.33115 0.0
H624 H 0.99449 0.72286 0.33679 0.0
H625 H 0.01774 0.74114 0.36542 0.0
H626 H 0.03307 0.81524 0.37745 0.0
H627 H 0.02421 0.87089 0.36105 0.0
C628 C 0.00315 0.90504 0.33592 0.0
C629 C 0.99494 0.86058 0.32875 0.0
C630 C 0.00225 0.82931 0.33842 0.0
C631 C 0.99592 0.78773 0.33127 0.0
C632 C 0.00088 0.75589 0.3414 0.0
C633 C 0.01389 0.76579 0.3579 0.0
C634 C 0.02233 0.80741 0.36468 0.0
C635 C 0.01674 0.83895 0.35512 0.0
H636 H 0.05507 0.76414 0.30983 0.0
C637 C 0.0228 0.73604 0.30495 0.0
H638 H 0.9515 0.71069 0.30135 0.0
H639 H 0.97633 0.91197 0.30702 0.0
H640 H 0.95506 0.89437 0.27818 0.0
H641 H 0.94741 0.82385 0.26553 0.0
H642 H 0.96073 0.7703 0.28165 0.0
C643 C 0.98397 0.7382 0.30631 0.0
C644 C 0.98495 0.77873 0.31427 0.0
C645 C 0.9769 0.80953 0.30469 0.0
C646 C 0.98185 0.85047 0.31195 0.0
C647 C 0.97356 0.88063 0.30209 0.0
C648 C 0.96124 0.87091 0.28553 0.0
C649 C 0.95689 0.83117 0.27841 0.0
C650 C 0.96463 0.80074 0.28781 0.0
H651 H 0.13499 0.00023 0.69939 0.0
C652 C 0.12658 0.025 0.69405 0.0
H653 H 0.13873 0.07176 0.67472 0.0
H654 H 0.33623 0.10485 0.65804 0.0
H655 H 0.35286 0.18103 0.6667 0.0
H656 H 0.29192 0.19315 0.67816 0.0
H657 H 0.21395 0.12933 0.68086 0.0
C658 C 0.14631 0.04629 0.67995 0.0
C659 C 0.18219 0.0391 0.67208 0.0
C660 C 0.22775 0.07682 0.67071 0.0
C661 C 0.26313 0.06967 0.66443 0.0
C662 C 0.30819 0.10811 0.66299 0.0
C663 C 0.31821 0.1521 0.66787 0.0
C664 C 0.28389 0.15893 0.6743 0.0
C665 C 0.23918 0.12191 0.67575 0.0
H666 H 0.26465 0.99521 0.63032 0.0
C667 C 0.29272 0.00316 0.63898 0.0
H668 H 0.31975 0.02619 0.66283 0.0
H669 H 0.097 0.96125 0.66985 0.0
H670 H 0.08071 0.88446 0.66215 0.0
H671 H 0.14342 0.87035 0.6542 0.0
H672 H 0.22242 0.93304 0.65344 0.0
C673 C 0.29125 0.01743 0.65428 0.0
C674 C 0.25312 0.02472 0.65977 0.0
C675 C 0.2074 0.98702 0.66096 0.0
C676 C 0.17165 0.99456 0.66658 0.0
C677 C 0.12581 0.957 0.66653 0.0
C678 C 0.11591 0.9128 0.66201 0.0
C679 C 0.15118 0.90491 0.65745 0.0
C680 C 0.19643 0.94139 0.65694 0.0
H681 H 0.06736 0.14897 0.00129 0.0
C682 C 0.07942 0.13733 0.01175 0.0
H683 H 0.13734 0.14027 0.02371 0.0
H684 H 0.20344 0.19073 0.9462 0.0
H685 H 0.15099 0.10927 0.94118 0.0
H686 H 0.10181 0.05878 0.96329 0.0
H687 H 0.10439 0.08964 0.99048 0.0
C688 C 0.12429 0.15052 0.01316 0.0
C689 C 0.15722 0.17989 0.00035 0.0
C690 C 0.15641 0.1609 0.98469 0.0
C691 C 0.18596 0.18965 0.97212 0.0
C692 C 0.18289 0.17023 0.95637 0.0
C693 C 0.15272 0.12353 0.95328 0.0
C694 C 0.12494 0.09513 0.96571 0.0
C695 C 0.12661 0.11338 0.98125 0.0
H696 H 0.29116 0.23661 0.96393 0.0
C697 C 0.28531 0.26242 0.95796 0.0
H698 H 0.24255 0.29213 0.95657 0.0
H699 H 0.16785 0.22673 0.02909 0.0
H700 H 0.22166 0.308 0.03433 0.0
H701 H 0.27427 0.3575 0.01272 0.0
H702 H 0.27326 0.32613 0.98571 0.0
C703 C 0.24923 0.2668 0.96245 0.0
C704 C 0.21742 0.23696 0.97544 0.0
C705 C 0.21858 0.25579 0.99114 0.0
C706 C 0.18849 0.22718 0.00364 0.0
C707 C 0.19013 0.24691 0.01919 0.0
C708 C 0.22083 0.29348 0.02236 0.0
C709 C 0.25044 0.32136 0.01019 0.0
C710 C 0.24951 0.30293 0.99474 0.0
H711 H 0.06874 0.18402 0.35455 0.0
C712 C 0.04952 0.15193 0.34765 0.0
H713 H 0.01532 0.12077 0.32531 0.0
H714 H 0.97542 0.28065 0.30609 0.0
H715 H 0.89836 0.21581 0.30983 0.0
H716 H 0.88658 0.14167 0.32057 0.0
H717 H 0.9517 0.13177 0.32749 0.0
C718 C 0.03572 0.1528 0.33213 0.0
C719 C 0.04321 0.19668 0.32464 0.0
C720 C 0.00465 0.20186 0.32071 0.0
C721 C 0.01142 0.24485 0.31481 0.0
C722 C 0.9723 0.24898 0.31085 0.0
C723 C 0.92784 0.212 0.3129 0.0
C724 C 0.92121 0.17024 0.31892 0.0
C725 C 0.95899 0.16503 0.32282 0.0
H726 H 0.09375 0.32926 0.2851 0.0
C727 C 0.08152 0.34674 0.29311 0.0
H728 H 0.05044 0.34532 0.3156 0.0
H729 H 0.12435 0.19603 0.32824 0.0
H730 H 0.20149 0.26151 0.32535 0.0
H731 H 0.21336 0.33799 0.3175 0.0
H732 H 0.1483 0.34916 0.31215 0.0
C733 C 0.06312 0.3281 0.30767 0.0
C734 C 0.05668 0.28268 0.31297 0.0
C735 C 0.0953 0.27738 0.31671 0.0
C736 C 0.08851 0.23393 0.32211 0.0
C737 C 0.12756 0.2288 0.32485 0.0
C738 C 0.17204 0.26602 0.32311 0.0
C739 C 0.17872 0.30901 0.31863 0.0
C740 C 0.14097 0.31486 0.31547 0.0
loop_
_geom_bond_atom_site_label_1
_geom_bond_atom_site_label_2
_geom_bond_distance
_geom_bond_site_symmetry_2
_ccdc_geom_bond_type
In0 O1 2.294 1_455 S
In0 O2 2.326 . S
In0 O6 2.266 1_445 S
In0 O7 2.326 1_445 S
In0 O8 2.266 1_545 S
In0 O9 2.326 1_445 S
In0 O11 2.294 . S
In0 O12 2.326 . S
O1 In0 2.294 1_655 S
O1 C10 1.240 1_655 S
O2 In0 2.326 . S
O2 C10 1.252 . S
C3 O6 1.252 . S
C3 O7 1.260 . S
C4 O11 1.240 . S
C4 O12 1.252 . S
C5 O8 1.252 . S
C5 O9 1.260 1_455 S
O6 In0 2.266 1_665 S
O6 C3 1.252 . S
O7 In0 2.326 1_665 S
O7 C3 1.260 . S
O8 In0 2.266 1_565 S
O8 C5 1.252 . S
O9 In0 2.326 1_665 S
O9 C5 1.260 1_655 S
C10 O1 1.240 1_455 S
C10 O2 1.252 . S
O11 In0 2.294 . S
O11 C4 1.240 . S
O12 In0 2.326 . S
O12 C4 1.252 . S
In13 O14 2.294 . S
In13 O15 2.326 1_455 S
In13 O19 2.266 . S
In13 O20 2.326 . S
In13 O21 2.266 1_445 S
In13 O22 2.326 . S
In13 O24 2.294 1_455 S
In13 O25 2.326 1_455 S
O14 In13 2.294 . S
O14 C23 1.240 . S
O15 In13 2.326 1_655 S
O15 C23 1.252 1_655 S
C16 O19 1.252 . S
C16 O20 1.260 . S
C17 O24 1.240 . S
C17 O25 1.252 . S
C18 O21 1.252 1_455 S
C18 O22 1.260 1_565 S
O19 In13 2.266 . S
O19 C16 1.252 . S
O20 In13 2.326 . S
O20 C16 1.260 . S
O21 In13 2.266 1_665 S
O21 C18 1.252 1_655 S
O22 In13 2.326 . S
O22 C18 1.260 1_545 S
C23 O14 1.240 . S
C23 O15 1.252 1_455 S
O24 In13 2.294 1_655 S
O24 C17 1.240 . S
O25 In13 2.326 1_655 S
O25 C17 1.252 . S
In26 O27 2.294 1_445 S
In26 O28 2.326 1_455 S
In26 O32 2.266 . S
In26 O33 2.326 . S
In26 O34 2.266 . S
In26 O35 2.326 . S
In26 O37 2.294 1_455 S
In26 O38 2.326 1_445 S
O27 In26 2.294 1_665 S
O27 C36 1.240 . S
O28 In26 2.326 1_655 S
O28 C36 1.252 1_545 S
C29 O32 1.252 . S
C29 O33 1.260 . S
C30 O37 1.240 . S
C30 O38 1.252 1_545 S
C31 O34 1.252 . S
C31 O35 1.260 . S
O32 In26 2.266 . S
O32 C29 1.252 . S
O33 In26 2.326 . S
O33 C29 1.260 . S
O34 In26 2.266 . S
O34 C31 1.252 . S
O35 In26 2.326 . S
O35 C31 1.260 . S
C36 O27 1.240 . S
C36 O28 1.252 1_565 S
O37 In26 2.294 1_655 S
O37 C30 1.240 . S
O38 In26 2.326 1_665 S
O38 C30 1.252 1_565 S
C39 C40 1.560 . S
C39 H100 0.959 . S
C39 H101 0.959 . S
C39 H102 0.960 . S
C40 C39 1.560 . S
C40 O95 1.426 . S
C40 H99 0.980 1_655 S
C41 C42 1.407 1_655 S
C41 C46 1.418 . S
C41 O95 1.334 . S
C42 C41 1.407 1_455 S
C42 C43 1.360 . S
C42 H103 0.929 . S
C43 C42 1.360 . S
C43 C44 1.401 . S
C43 C47 1.527 . S
C44 C43 1.401 . S
C44 C45 1.405 1_455 S
C44 C77 1.587 . S
C45 C44 1.405 1_655 S
C45 C46 1.332 . S
C45 C48 1.496 . S
C46 C41 1.418 . S
C46 C45 1.332 . S
C46 H104 0.929 . S
C47 C43 1.527 . S
C47 H105 0.959 . S
C47 H106 0.961 . S
C47 H107 0.961 . S
C48 C45 1.496 . S
C48 H108 0.960 . S
C48 H109 0.960 . S
C48 H110 0.961 . S
C49 C50 1.517 . S
C49 H112 0.961 . S
C49 H113 0.960 . S
C49 H114 0.959 . S
C50 C49 1.517 . S
C50 O98 1.468 . S
C50 H111 0.980 . S
C51 C52 1.349 . S
C51 C56 1.367 . S
C51 O98 1.408 . S
C52 C51 1.349 . S
C52 C53 1.407 . S
C52 H115 0.930 . S
C53 C52 1.407 . S
C53 C54 1.449 . S
C53 C57 1.535 1_455 S
C54 C53 1.449 . S
C54 C55 1.384 . S
C54 C79 1.553 . S
C55 C54 1.384 . S
C55 C56 1.364 . S
C55 C58 1.450 . S
C56 C51 1.367 . S
C56 C55 1.364 . S
C56 H116 0.931 . S
C57 C53 1.535 1_655 S
C57 H117 0.959 . S
C57 H118 0.961 . S
C57 H119 0.959 . S
C58 C55 1.450 . S
C58 H120 0.960 . S
C58 H121 0.960 . S
C58 H122 0.960 . S
C59 C60 1.309 . S
C59 C64 1.304 . S
C59 O97 1.435 . S
C60 C59 1.309 . S
C60 C61 1.476 . S
C60 H124 0.930 1_455 S
C61 C60 1.476 . S
C61 C62 1.400 . S
C61 C65 1.567 1_455 S
C62 C61 1.400 . S
C62 C63 1.373 . S
C62 C84 1.432 . S
C63 C62 1.373 . S
C63 C64 1.339 . S
C63 C66 1.530 . S
C64 C59 1.304 . S
C64 C63 1.339 . S
C64 H125 0.930 . S
C65 C61 1.567 1_655 S
C65 H126 0.961 . S
C65 H127 0.960 . S
C65 H128 0.958 . S
C66 C63 1.530 . S
C66 H129 0.961 . S
C66 H130 0.960 . S
C66 H131 0.960 . S
C67 C68 1.530 1_655 S
C67 H133 0.961 . S
C67 H134 0.961 . S
C67 H135 0.959 . S
C68 C67 1.530 1_455 S
C68 O96 1.412 1_455 S
C68 H132 0.980 . S
C69 C70 1.288 . S
C69 C74 1.377 1_655 S
C69 O96 1.393 . S
C70 C69 1.288 . S
C70 C71 1.369 . S
C70 H136 0.932 . S
C71 C70 1.369 . S
C71 C72 1.398 1_655 S
C71 C75 1.527 . S
C72 C71 1.398 1_455 S
C72 C73 1.380 . S
C72 C86 1.497 . S
C73 C72 1.380 . S
C73 C74 1.383 . S
C73 C76 1.603 . S
C74 C69 1.377 1_455 S
C74 C73 1.383 . S
C74 H137 0.929 . S
C75 C71 1.527 . S
C75 H138 0.961 . S
C75 H139 0.959 . S
C75 H140 0.959 . S
C76 C73 1.603 . S
C76 H141 0.960 . S
C76 H142 0.962 . S
C76 H143 0.961 . S
C77 C44 1.587 . S
C77 C78 1.360 . S
C77 C90 1.412 . S
C78 C77 1.360 . S
C78 C79 1.365 . S
C78 H144 0.929 . S
C79 C54 1.553 . S
C79 C78 1.365 . S
C79 C80 1.404 . S
C80 C79 1.404 . S
C80 C81 1.395 . S
C80 C91 1.451 . S
C81 C80 1.395 . S
C81 C82 1.322 . S
C81 H145 0.930 . S
C82 C81 1.322 . S
C82 C83 1.459 . S
C82 H146 0.929 . S
C83 C82 1.459 . S
C83 C84 1.445 . S
C83 C92 1.395 . S
C84 C62 1.432 . S
C84 C83 1.445 . S
C84 C85 1.370 . S
C85 C84 1.370 . S
C85 C86 1.438 . S
C85 H147 0.930 . S
C86 C72 1.497 . S
C86 C85 1.438 . S
C86 C87 1.360 . S
C87 C86 1.360 . S
C87 C88 1.401 . S
C87 C92 1.446 . S
C88 C87 1.401 . S
C88 C89 1.347 . S
C88 H148 0.929 . S
C89 C88 1.347 . S
C89 C90 1.455 . S
C89 H149 0.930 . S
C90 C77 1.412 . S
C90 C89 1.455 . S
C90 C91 1.331 . S
C91 C80 1.451 . S
C91 C90 1.331 . S
C91 C92 1.497 . S
C92 C83 1.395 . S
C92 C87 1.446 . S
C92 C91 1.497 . S
C93 C94 1.582 . S
C93 H150 0.962 . S
C93 H151 0.959 . S
C93 H152 0.958 . S
C94 C93 1.582 . S
C94 O97 1.458 . S
C94 H123 0.980 . S
O95 C40 1.426 . S
O95 C41 1.334 . S
O96 C68 1.412 1_655 S
O96 C69 1.393 . S
O97 C59 1.435 . S
O97 C94 1.458 . S
O98 C50 1.468 . S
O98 C51 1.408 . S
H99 C40 0.980 1_455 S
H100 C39 0.959 . S
H101 C39 0.959 . S
H102 C39 0.960 . S
H103 C42 0.929 . S
H104 C46 0.929 . S
H105 C47 0.959 . S
H106 C47 0.961 . S
H107 C47 0.961 . S
H108 C48 0.960 . S
H109 C48 0.960 . S
H110 C48 0.961 . S
H111 C50 0.980 . S
H112 C49 0.961 . S
H113 C49 0.960 . S
H114 C49 0.959 . S
H115 C52 0.930 . S
H116 C56 0.931 . S
H117 C57 0.959 . S
H118 C57 0.961 . S
H119 C57 0.959 . S
H120 C58 0.960 . S
H121 C58 0.960 . S
H122 C58 0.960 . S
H123 C94 0.980 . S
H124 C60 0.930 1_655 S
H125 C64 0.930 . S
H126 C65 0.961 . S
H127 C65 0.960 . S
H128 C65 0.958 . S
H129 C66 0.961 . S
H130 C66 0.960 . S
H131 C66 0.960 . S
H132 C68 0.980 . S
H133 C67 0.961 . S
H134 C67 0.961 . S
H135 C67 0.959 . S
H136 C70 0.932 . S
H137 C74 0.929 . S
H138 C75 0.961 . S
H139 C75 0.959 . S
H140 C75 0.959 . S
H141 C76 0.960 . S
H142 C76 0.962 . S
H143 C76 0.961 . S
H144 C78 0.929 . S
H145 C81 0.930 . S
H146 C82 0.929 . S
H147 C85 0.930 . S
H148 C88 0.929 . S
H149 C89 0.930 . S
H150 C93 0.962 . S
H151 C93 0.959 . S
H152 C93 0.958 . S
C153 C154 1.560 1_565 S
C153 H214 0.959 . S
C153 H215 0.959 . S
C153 H216 0.960 . S
C154 C153 1.560 1_545 S
C154 O209 1.426 1_545 S
C154 H213 0.980 . S
C155 C156 1.407 . S
C155 C160 1.418 1_545 S
C155 O209 1.334 1_545 S
C156 C155 1.407 . S
C156 C157 1.360 . S
C156 H217 0.929 . S
C157 C156 1.360 . S
C157 C158 1.401 . S
C157 C161 1.527 . S
C158 C157 1.401 . S
C158 C159 1.397 1_545 S
C158 C191 1.587 . S
C159 C158 1.397 1_565 S
C159 C160 1.331 . S
C159 C162 1.505 . S
C160 C155 1.418 1_565 S
C160 C159 1.331 . S
C160 H218 0.929 . S
C161 C157 1.527 . S
C161 H219 0.959 . S
C161 H220 0.961 . S
C161 H221 0.961 . S
C162 C159 1.505 . S
C162 H222 0.960 . S
C162 H223 0.960 . S
C162 H224 0.961 . S
C163 C164 1.517 . S
C163 H226 0.961 . S
C163 H227 0.960 . S
C163 H228 0.959 . S
C164 C163 1.517 . S
C164 O212 1.468 . S
C164 H225 0.980 . S
C165 C166 1.349 . S
C165 C170 1.367 . S
C165 O212 1.408 . S
C166 C165 1.349 . S
C166 C167 1.407 . S
C166 H229 0.930 . S
C167 C166 1.407 . S
C167 C168 1.449 . S
C167 C171 1.536 1_545 S
C168 C167 1.449 . S
C168 C169 1.384 . S
C168 C193 1.553 . S
C169 C168 1.384 . S
C169 C170 1.364 . S
C169 C172 1.450 . S
C170 C165 1.367 . S
C170 C169 1.364 . S
C170 H230 0.931 . S
C171 C167 1.536 1_565 S
C171 H231 0.960 1_565 S
C171 H232 0.960 . S
C171 H233 0.958 . S
C172 C169 1.450 . S
C172 H234 0.960 . S
C172 H235 0.960 . S
C172 H236 0.960 . S
C173 C174 1.309 . S
C173 C178 1.304 . S
C173 O211 1.435 . S
C174 C173 1.309 . S
C174 C175 1.476 . S
C174 H238 0.930 . S
C175 C174 1.476 . S
C175 C176 1.400 . S
C175 C179 1.567 1_545 S
C176 C175 1.400 . S
C176 C177 1.373 . S
C176 C198 1.432 . S
C177 C176 1.373 . S
C177 C178 1.339 . S
C177 C180 1.530 . S
C178 C173 1.304 . S
C178 C177 1.339 . S
C178 H239 0.930 . S
C179 C175 1.567 1_565 S
C179 H240 0.961 . S
C179 H241 0.960 . S
C179 H242 0.958 . S
C180 C177 1.530 . S
C180 H243 0.961 . S
C180 H244 0.960 . S
C180 H245 0.960 . S
C181 C182 1.530 . S
C181 H247 0.961 . S
C181 H248 0.961 1_545 S
C181 H249 0.959 1_545 S
C182 C181 1.530 . S
C182 O210 1.412 . S
C182 H246 0.980 . S
C183 C184 1.288 1_545 S
C183 C188 1.377 . S
C183 O210 1.393 . S
C184 C183 1.288 1_565 S
C184 C185 1.369 . S
C184 H250 0.932 . S
C185 C184 1.369 . S
C185 C186 1.398 1_565 S
C185 C189 1.527 . S
C186 C185 1.398 1_545 S
C186 C187 1.380 . S
C186 C200 1.497 . S
C187 C186 1.380 . S
C187 C188 1.383 . S
C187 C190 1.603 . S
C188 C183 1.377 . S
C188 C187 1.383 . S
C188 H251 0.929 . S
C189 C185 1.527 . S
C189 H252 0.961 . S
C189 H253 0.959 . S
C189 H254 0.959 . S
C190 C187 1.603 . S
C190 H255 0.960 . S
C190 H256 0.962 . S
C190 H257 0.961 . S
C191 C158 1.587 . S
C191 C192 1.360 . S
C191 C204 1.412 . S
C192 C191 1.360 . S
C192 C193 1.365 . S
C192 H258 0.929 . S
C193 C168 1.553 . S
C193 C192 1.365 . S
C193 C194 1.404 . S
C194 C193 1.404 . S
C194 C195 1.395 . S
C194 C205 1.451 . S
C195 C194 1.395 . S
C195 C196 1.322 . S
C195 H259 0.930 . S
C196 C195 1.322 . S
C196 C197 1.459 . S
C196 H260 0.929 . S
C197 C196 1.459 . S
C197 C198 1.445 . S
C197 C206 1.395 . S
C198 C176 1.432 . S
C198 C197 1.445 . S
C198 C199 1.370 . S
C199 C198 1.370 . S
C199 C200 1.438 . S
C199 H261 0.930 . S
C200 C186 1.497 . S
C200 C199 1.438 . S
C200 C201 1.360 . S
C201 C200 1.360 . S
C201 C202 1.401 . S
C201 C206 1.446 . S
C202 C201 1.401 . S
C202 C203 1.347 . S
C202 H262 0.929 . S
C203 C202 1.347 . S
C203 C204 1.455 . S
C203 H263 0.930 . S
C204 C191 1.412 . S
C204 C203 1.455 . S
C204 C205 1.331 . S
C205 C194 1.451 . S
C205 C204 1.331 . S
C205 C206 1.497 . S
C206 C197 1.395 . S
C206 C201 1.446 . S
C206 C205 1.497 . S
C207 C208 1.582 . S
C207 H264 0.962 . S
C207 H265 0.959 . S
C207 H266 0.958 . S
C208 C207 1.582 . S
C208 O211 1.458 . S
C208 H237 0.980 . S
O209 C154 1.426 1_565 S
O209 C155 1.334 1_565 S
O210 C182 1.412 . S
O210 C183 1.393 . S
O211 C173 1.435 . S
O211 C208 1.458 . S
O212 C164 1.468 . S
O212 C165 1.408 . S
H213 C154 0.980 . S
H214 C153 0.959 . S
H215 C153 0.959 . S
H216 C153 0.960 . S
H217 C156 0.929 . S
H218 C160 0.929 . S
H219 C161 0.959 . S
H220 C161 0.961 . S
H221 C161 0.961 . S
H222 C162 0.960 . S
H223 C162 0.960 . S
H224 C162 0.961 . S
H225 C164 0.980 . S
H226 C163 0.961 . S
H227 C163 0.960 . S
H228 C163 0.959 . S
H229 C166 0.930 . S
H230 C170 0.931 . S
H231 C171 0.960 1_545 S
H232 C171 0.960 . S
H233 C171 0.958 . S
H234 C172 0.960 . S
H235 C172 0.960 . S
H236 C172 0.960 . S
H237 C208 0.980 . S
H238 C174 0.930 . S
H239 C178 0.930 . S
H240 C179 0.961 . S
H241 C179 0.960 . S
H242 C179 0.958 . S
H243 C180 0.961 . S
H244 C180 0.960 . S
H245 C180 0.960 . S
H246 C182 0.980 . S
H247 C181 0.961 . S
H248 C181 0.961 1_565 S
H249 C181 0.959 1_565 S
H250 C184 0.932 . S
H251 C188 0.929 . S
H252 C189 0.961 . S
H253 C189 0.959 . S
H254 C189 0.959 . S
H255 C190 0.960 . S
H256 C190 0.962 . S
H257 C190 0.961 . S
H258 C192 0.929 . S
H259 C195 0.930 . S
H260 C196 0.929 . S
H261 C199 0.930 . S
H262 C202 0.929 . S
H263 C203 0.930 . S
H264 C207 0.962 . S
H265 C207 0.959 . S
H266 C207 0.958 . S
C267 C268 1.560 . S
C267 H328 0.959 . S
C267 H329 0.959 . S
C267 H330 0.960 . S
C268 C267 1.560 . S
C268 O323 1.426 . S
C268 H327 0.980 . S
C269 C270 1.407 . S
C269 C274 1.418 . S
C269 O323 1.334 . S
C270 C269 1.407 . S
C270 C271 1.360 . S
C270 H331 0.929 . S
C271 C270 1.360 . S
C271 C272 1.401 . S
C271 C275 1.527 . S
C272 C271 1.401 . S
C272 C273 1.405 . S
C272 C305 1.587 . S
C273 C272 1.405 . S
C273 C274 1.332 . S
C273 C276 1.496 . S
C274 C269 1.418 . S
C274 C273 1.332 . S
C274 H332 0.929 . S
C275 C271 1.527 . S
C275 H333 0.959 . S
C275 H334 0.961 . S
C275 H335 0.961 . S
C276 C273 1.496 . S
C276 H336 0.960 . S
C276 H337 0.960 . S
C276 H338 0.961 . S
C277 C278 1.517 . S
C277 H340 0.961 . S
C277 H341 0.960 . S
C277 H342 0.959 . S
C278 C277 1.517 . S
C278 O326 1.468 . S
C278 H339 0.980 . S
C279 C280 1.349 . S
C279 C284 1.367 . S
C279 O326 1.408 . S
C280 C279 1.349 . S
C280 C281 1.407 . S
C280 H343 0.930 . S
C281 C280 1.407 . S
C281 C282 1.449 . S
C281 C285 1.535 . S
C282 C281 1.449 . S
C282 C283 1.384 . S
C282 C307 1.553 . S
C283 C282 1.384 . S
C283 C284 1.364 . S
C283 C286 1.450 . S
C284 C279 1.367 . S
C284 C283 1.364 . S
C284 H344 0.931 . S
C285 C281 1.535 . S
C285 H345 0.959 . S
C285 H346 0.961 . S
C285 H347 0.959 . S
C286 C283 1.450 . S
C286 H348 0.960 . S
C286 H349 0.960 . S
C286 H350 0.960 . S
C287 C288 1.309 . S
C287 C292 1.304 . S
C287 O325 1.435 . S
C288 C287 1.309 . S
C288 C289 1.476 . S
C288 H352 0.930 . S
C289 C288 1.476 . S
C289 C290 1.400 . S
C289 C293 1.567 . S
C290 C289 1.400 . S
C290 C291 1.373 . S
C290 C312 1.432 . S
C291 C290 1.373 . S
C291 C292 1.339 . S
C291 C294 1.530 . S
C292 C287 1.304 . S
C292 C291 1.339 . S
C292 H353 0.930 . S
C293 C289 1.567 . S
C293 H354 0.961 . S
C293 H355 0.960 . S
C293 H356 0.958 . S
C294 C291 1.530 . S
C294 H357 0.961 . S
C294 H358 0.960 . S
C294 H359 0.960 . S
C295 C296 1.530 . S
C295 H361 0.961 . S
C295 H362 0.961 . S
C295 H363 0.959 . S
C296 C295 1.530 . S
C296 O324 1.412 . S
C296 H360 0.980 . S
C297 C298 1.288 . S
C297 C302 1.377 . S
C297 O324 1.393 . S
C298 C297 1.288 . S
C298 C299 1.369 . S
C298 H364 0.932 . S
C299 C298 1.369 . S
C299 C300 1.398 . S
C299 C303 1.527 . S
C300 C299 1.398 . S
C300 C301 1.380 . S
C300 C314 1.497 . S
C301 C300 1.380 . S
C301 C302 1.383 . S
C301 C304 1.603 . S
C302 C297 1.377 . S
C302 C301 1.383 . S
C302 H365 0.929 . S
C303 C299 1.527 . S
C303 H366 0.961 . S
C303 H367 0.959 . S
C303 H368 0.959 . S
C304 C301 1.603 . S
C304 H369 0.960 . S
C304 H370 0.962 . S
C304 H371 0.961 . S
C305 C272 1.587 . S
C305 C306 1.360 . S
C305 C318 1.412 . S
C306 C305 1.360 . S
C306 C307 1.365 . S
C306 H372 0.929 . S
C307 C282 1.553 . S
C307 C306 1.365 . S
C307 C308 1.404 . S
C308 C307 1.404 . S
C308 C309 1.395 . S
C308 C319 1.451 . S
C309 C308 1.395 . S
C309 C310 1.322 . S
C309 H373 0.930 . S
C310 C309 1.322 . S
C310 C311 1.459 . S
C310 H374 0.929 . S
C311 C310 1.459 . S
C311 C312 1.445 . S
C311 C320 1.395 . S
C312 C290 1.432 . S
C312 C311 1.445 . S
C312 C313 1.370 . S
C313 C312 1.370 . S
C313 C314 1.438 . S
C313 H375 0.930 . S
C314 C300 1.497 . S
C314 C313 1.438 . S
C314 C315 1.360 . S
C315 C314 1.360 . S
C315 C316 1.401 . S
C315 C320 1.446 . S
C316 C315 1.401 . S
C316 C317 1.347 . S
C316 H376 0.929 . S
C317 C316 1.347 . S
C317 C318 1.455 . S
C317 H377 0.930 . S
C318 C305 1.412 . S
C318 C317 1.455 . S
C318 C319 1.331 . S
C319 C308 1.451 . S
C319 C318 1.331 . S
C319 C320 1.497 . S
C320 C311 1.395 . S
C320 C315 1.446 . S
C320 C319 1.497 . S
C321 C322 1.582 . S
C321 H378 0.962 . S
C321 H379 0.959 . S
C321 H380 0.958 . S
C322 C321 1.582 . S
C322 O325 1.458 . S
C322 H351 0.980 . S
O323 C268 1.426 . S
O323 C269 1.334 . S
O324 C296 1.412 . S
O324 C297 1.393 . S
O325 C287 1.435 . S
O325 C322 1.458 . S
O326 C278 1.468 . S
O326 C279 1.408 . S
H327 C268 0.980 . S
H328 C267 0.959 . S
H329 C267 0.959 . S
H330 C267 0.960 . S
H331 C270 0.929 . S
H332 C274 0.929 . S
H333 C275 0.959 . S
H334 C275 0.961 . S
H335 C275 0.961 . S
H336 C276 0.960 . S
H337 C276 0.960 . S
H338 C276 0.961 . S
H339 C278 0.980 . S
H340 C277 0.961 . S
H341 C277 0.960 . S
H342 C277 0.959 . S
H343 C280 0.930 . S
H344 C284 0.931 . S
H345 C285 0.959 . S
H346 C285 0.961 . S
H347 C285 0.959 . S
H348 C286 0.960 . S
H349 C286 0.960 . S
H350 C286 0.960 . S
H351 C322 0.980 . S
H352 C288 0.930 . S
H353 C292 0.930 . S
H354 C293 0.961 . S
H355 C293 0.960 . S
H356 C293 0.958 . S
H357 C294 0.961 . S
H358 C294 0.960 . S
H359 C294 0.960 . S
H360 C296 0.980 . S
H361 C295 0.961 . S
H362 C295 0.961 . S
H363 C295 0.959 . S
H364 C298 0.932 . S
H365 C302 0.929 . S
H366 C303 0.961 . S
H367 C303 0.959 . S
H368 C303 0.959 . S
H369 C304 0.960 . S
H370 C304 0.962 . S
H371 C304 0.961 . S
H372 C306 0.929 . S
H373 C309 0.930 . S
H374 C310 0.929 . S
H375 C313 0.930 . S
H376 C316 0.929 . S
H377 C317 0.930 . S
H378 C321 0.962 . S
H379 C321 0.959 . S
H380 C321 0.958 . S
H381 C382 0.951 1_655 S
C382 H381 0.951 1_455 S
C382 C388 1.265 . S
H383 C388 0.950 . S
H384 C392 0.949 . S
H385 C393 0.950 . S
H386 C394 0.951 . S
H387 C395 0.951 . S
C388 C382 1.265 . S
C388 H383 0.950 . S
C388 C389 1.478 . S
C389 C388 1.478 . S
C389 C390 1.397 . S
C389 C406 1.394 1_455 S
C390 C389 1.397 . S
C390 C391 1.438 . S
C390 C395 1.429 . S
C391 C390 1.438 . S
C391 C392 1.428 . S
C391 C404 1.394 1_455 S
C392 H384 0.949 . S
C392 C391 1.428 . S
C392 C393 1.345 . S
C393 H385 0.950 . S
C393 C392 1.345 . S
C393 C394 1.424 . S
C394 H386 0.951 . S
C394 C393 1.424 . S
C394 C395 1.347 . S
C395 H387 0.951 . S
C395 C390 1.429 . S
C395 C394 1.347 . S
H396 C397 0.951 . S
C397 H396 0.951 . S
C397 C403 1.265 1_455 S
H398 C403 0.950 . S
H399 C407 0.949 . S
H400 C408 0.950 . S
H401 C409 0.951 . S
H402 C410 0.951 . S
C403 C397 1.265 1_655 S
C403 H398 0.950 . S
C403 C404 1.478 . S
C404 C391 1.394 1_655 S
C404 C403 1.478 . S
C404 C405 1.397 . S
C405 C404 1.397 . S
C405 C406 1.438 . S
C405 C410 1.429 . S
C406 C389 1.394 1_655 S
C406 C405 1.438 . S
C406 C407 1.428 . S
C407 H399 0.949 . S
C407 C406 1.428 . S
C407 C408 1.345 . S
C408 H400 0.950 . S
C408 C407 1.345 . S
C408 C409 1.424 . S
C409 H401 0.951 . S
C409 C408 1.424 . S
C409 C410 1.347 . S
C410 H402 0.951 . S
C410 C405 1.429 . S
C410 C409 1.347 . S
H411 C412 0.951 . S
C412 H411 0.951 . S
C412 C418 1.265 . S
H413 C418 0.950 . S
H414 C422 0.949 . S
H415 C423 0.950 . S
H416 C424 0.951 . S
H417 C425 0.951 . S
C418 C412 1.265 . S
C418 H413 0.950 . S
C418 C419 1.478 . S
C419 C418 1.478 . S
C419 C420 1.397 . S
C419 C436 1.394 . S
C420 C419 1.397 . S
C420 C421 1.438 . S
C420 C425 1.429 . S
C421 C420 1.438 . S
C421 C422 1.428 . S
C421 C434 1.394 . S
C422 H414 0.949 . S
C422 C421 1.428 . S
C422 C423 1.345 . S
C423 H415 0.950 . S
C423 C422 1.345 . S
C423 C424 1.424 . S
C424 H416 0.951 . S
C424 C423 1.424 . S
C424 C425 1.347 . S
C425 H417 0.951 . S
C425 C420 1.429 . S
C425 C424 1.347 . S
H426 C427 0.951 . S
C427 H426 0.951 . S
C427 C433 1.265 . S
H428 C433 0.950 . S
H429 C437 0.949 . S
H430 C438 0.950 . S
H431 C439 0.951 . S
H432 C440 0.951 . S
C433 C427 1.265 . S
C433 H428 0.950 . S
C433 C434 1.478 . S
C434 C421 1.394 . S
C434 C433 1.478 . S
C434 C435 1.397 . S
C435 C434 1.397 . S
C435 C436 1.438 . S
C435 C440 1.429 1_545 S
C436 C419 1.394 . S
C436 C435 1.438 . S
C436 C437 1.428 1_545 S
C437 H429 0.949 . S
C437 C436 1.428 1_565 S
C437 C438 1.345 . S
C438 H430 0.950 . S
C438 C437 1.345 . S
C438 C439 1.424 . S
C439 H431 0.951 . S
C439 C438 1.424 . S
C439 C440 1.347 . S
C440 H432 0.951 . S
C440 C435 1.429 1_565 S
C440 C439 1.347 . S
H441 C442 0.951 . S
C442 H441 0.951 . S
C442 C448 1.265 . S
H443 C448 0.950 . S
H444 C452 0.949 . S
H445 C453 0.950 . S
H446 C454 0.951 . S
H447 C455 0.951 . S
C448 C442 1.265 . S
C448 H443 0.950 . S
C448 C449 1.478 . S
C449 C448 1.478 . S
C449 C450 1.397 . S
C449 C466 1.394 . S
C450 C449 1.397 . S
C450 C451 1.438 . S
C450 C455 1.429 . S
C451 C450 1.438 . S
C451 C452 1.428 . S
C451 C464 1.394 . S
C452 H444 0.949 . S
C452 C451 1.428 . S
C452 C453 1.345 . S
C453 H445 0.950 . S
C453 C452 1.345 . S
C453 C454 1.424 . S
C454 H446 0.951 . S
C454 C453 1.424 . S
C454 C455 1.347 . S
C455 H447 0.951 . S
C455 C450 1.429 . S
C455 C454 1.347 . S
H456 C457 0.951 . S
C457 H456 0.951 . S
C457 C463 1.265 . S
H458 C463 0.950 . S
H459 C467 0.949 . S
H460 C468 0.950 . S
H461 C469 0.951 . S
H462 C470 0.951 . S
C463 C457 1.265 . S
C463 H458 0.950 . S
C463 C464 1.478 . S
C464 C451 1.394 . S
C464 C463 1.478 . S
C464 C465 1.397 . S
C465 C464 1.397 . S
C465 C466 1.438 . S
C465 C470 1.429 . S
C466 C449 1.394 . S
C466 C465 1.438 . S
C466 C467 1.428 . S
C467 H459 0.949 . S
C467 C466 1.428 . S
C467 C468 1.345 . S
C468 H460 0.950 . S
C468 C467 1.345 . S
C468 C469 1.424 . S
C469 H461 0.951 . S
C469 C468 1.424 . S
C469 C470 1.347 . S
C470 H462 0.951 . S
C470 C465 1.429 . S
C470 C469 1.347 . S
H471 C472 0.951 1_655 S
C472 H471 0.951 1_455 S
C472 C478 1.265 . S
H473 C478 0.950 . S
H474 C482 0.949 . S
H475 C483 0.950 . S
H476 C484 0.951 . S
H477 C485 0.951 . S
C478 C472 1.265 . S
C478 H473 0.950 . S
C478 C479 1.478 . S
C479 C478 1.478 . S
C479 C480 1.397 . S
C479 C496 1.394 1_455 S
C480 C479 1.397 . S
C480 C481 1.438 . S
C480 C485 1.429 . S
C481 C480 1.438 . S
C481 C482 1.428 . S
C481 C494 1.394 . S
C482 H474 0.949 . S
C482 C481 1.428 . S
C482 C483 1.345 . S
C483 H475 0.950 . S
C483 C482 1.345 . S
C483 C484 1.424 . S
C484 H476 0.951 . S
C484 C483 1.424 . S
C484 C485 1.347 . S
C485 H477 0.951 . S
C485 C480 1.429 . S
C485 C484 1.347 . S
H486 C487 0.951 . S
C487 H486 0.951 . S
C487 C493 1.265 1_455 S
H488 C493 0.950 . S
H489 C497 0.949 . S
H490 C498 0.950 . S
H491 C499 0.951 . S
H492 C500 0.951 . S
C493 C487 1.265 1_655 S
C493 H488 0.950 . S
C493 C494 1.478 1_655 S
C494 C481 1.394 . S
C494 C493 1.478 1_455 S
C494 C495 1.397 1_455 S
C495 C494 1.397 1_655 S
C495 C496 1.438 . S
C495 C500 1.429 . S
C496 C479 1.394 1_655 S
C496 C495 1.438 . S
C496 C497 1.428 . S
C497 H489 0.949 . S
C497 C496 1.428 . S
C497 C498 1.345 . S
C498 H490 0.950 . S
C498 C497 1.345 . S
C498 C499 1.424 . S
C499 H491 0.951 . S
C499 C498 1.424 . S
C499 C500 1.347 . S
C500 H492 0.951 . S
C500 C495 1.429 . S
C500 C499 1.347 . S
H501 C502 0.951 . S
C502 H501 0.951 . S
C502 C508 1.265 . S
H503 C508 0.950 . S
H504 C512 0.949 . S
H505 C513 0.950 . S
H506 C514 0.951 . S
H507 C515 0.951 . S
C508 C502 1.265 . S
C508 H503 0.950 . S
C508 C509 1.478 . S
C509 C508 1.478 . S
C509 C510 1.397 . S
C509 C526 1.394 . S
C510 C509 1.397 . S
C510 C511 1.438 . S
C510 C515 1.429 1_545 S
C511 C510 1.438 . S
C511 C512 1.428 1_545 S
C511 C524 1.394 . S
C512 H504 0.949 . S
C512 C511 1.428 1_565 S
C512 C513 1.345 . S
C513 H505 0.950 . S
C513 C512 1.345 . S
C513 C514 1.424 . S
C514 H506 0.951 . S
C514 C513 1.424 . S
C514 C515 1.347 . S
C515 H507 0.951 . S
C515 C510 1.429 1_565 S
C515 C514 1.347 . S
H516 C517 0.951 . S
C517 H516 0.951 . S
C517 C523 1.265 . S
H518 C523 0.950 . S
H519 C527 0.949 . S
H520 C528 0.950 . S
H521 C529 0.951 . S
H522 C530 0.951 . S
C523 C517 1.265 . S
C523 H518 0.950 . S
C523 C524 1.478 . S
C524 C511 1.394 . S
C524 C523 1.478 . S
C524 C525 1.397 . S
C525 C524 1.397 . S
C525 C526 1.438 . S
C525 C530 1.429 . S
C526 C509 1.394 . S
C526 C525 1.438 . S
C526 C527 1.428 . S
C527 H519 0.949 . S
C527 C526 1.428 . S
C527 C528 1.345 . S
C528 H520 0.950 . S
C528 C527 1.345 . S
C528 C529 1.424 . S
C529 H521 0.951 . S
C529 C528 1.424 . S
C529 C530 1.347 . S
C530 H522 0.951 . S
C530 C525 1.429 . S
C530 C529 1.347 . S
H531 C532 0.951 . S
C532 H531 0.951 . S
C532 C538 1.265 . S
H533 C538 0.950 . S
H534 C542 0.949 . S
H535 C543 0.950 . S
H536 C544 0.951 . S
H537 C545 0.951 . S
C538 C532 1.265 . S
C538 H533 0.950 . S
C538 C539 1.478 . S
C539 C538 1.478 . S
C539 C540 1.397 . S
C539 C556 1.394 . S
C540 C539 1.397 . S
C540 C541 1.438 . S
C540 C545 1.429 . S
C541 C540 1.438 . S
C541 C542 1.428 . S
C541 C554 1.394 . S
C542 H534 0.949 . S
C542 C541 1.428 . S
C542 C543 1.345 . S
C543 H535 0.950 . S
C543 C542 1.345 . S
C543 C544 1.424 . S
C544 H536 0.951 . S
C544 C543 1.424 . S
C544 C545 1.347 . S
C545 H537 0.951 . S
C545 C540 1.429 . S
C545 C544 1.347 . S
H546 C547 0.951 . S
C547 H546 0.951 . S
C547 C553 1.265 . S
H548 C553 0.950 . S
H549 C557 0.949 . S
H550 C558 0.950 . S
H551 C559 0.951 . S
H552 C560 0.951 . S
C553 C547 1.265 . S
C553 H548 0.950 . S
C553 C554 1.478 . S
C554 C541 1.394 . S
C554 C553 1.478 . S
C554 C555 1.397 . S
C555 C554 1.397 . S
C555 C556 1.438 . S
C555 C560 1.429 . S
C556 C539 1.394 . S
C556 C555 1.438 . S
C556 C557 1.428 . S
C557 H549 0.949 . S
C557 C556 1.428 . S
C557 C558 1.345 . S
C558 H550 0.950 . S
C558 C557 1.345 . S
C558 C559 1.424 . S
C559 H551 0.951 . S
C559 C558 1.424 . S
C559 C560 1.347 . S
C560 H552 0.951 . S
C560 C555 1.429 . S
C560 C559 1.347 . S
H561 C562 0.951 . S
C562 H561 0.951 . S
C562 C568 1.265 . S
H563 C568 0.950 . S
H564 C572 0.949 . S
H565 C573 0.950 . S
H566 C574 0.951 . S
H567 C575 0.951 . S
C568 C562 1.265 . S
C568 H563 0.950 . S
C568 C569 1.478 . S
C569 C568 1.478 . S
C569 C570 1.397 . S
C569 C586 1.394 . S
C570 C569 1.397 . S
C570 C571 1.438 . S
C570 C575 1.429 . S
C571 C570 1.438 . S
C571 C572 1.428 . S
C571 C584 1.394 . S
C572 H564 0.949 . S
C572 C571 1.428 . S
C572 C573 1.345 . S
C573 H565 0.950 . S
C573 C572 1.345 . S
C573 C574 1.424 . S
C574 H566 0.951 . S
C574 C573 1.424 . S
C574 C575 1.347 . S
C575 H567 0.951 . S
C575 C570 1.429 . S
C575 C574 1.347 . S
H576 C577 0.951 . S
C577 H576 0.951 . S
C577 C583 1.265 . S
H578 C583 0.950 . S
H579 C587 0.949 . S
H580 C588 0.950 . S
H581 C589 0.951 . S
H582 C590 0.951 . S
C583 C577 1.265 . S
C583 H578 0.950 . S
C583 C584 1.478 . S
C584 C571 1.394 . S
C584 C583 1.478 . S
C584 C585 1.397 . S
C585 C584 1.397 . S
C585 C586 1.438 . S
C585 C590 1.429 1_545 S
C586 C569 1.394 . S
C586 C585 1.438 . S
C586 C587 1.428 1_545 S
C587 H579 0.949 . S
C587 C586 1.428 1_565 S
C587 C588 1.345 . S
C588 H580 0.950 . S
C588 C587 1.345 . S
C588 C589 1.424 . S
C589 H581 0.951 . S
C589 C588 1.424 . S
C589 C590 1.347 . S
C590 H582 0.951 . S
C590 C585 1.429 1_565 S
C590 C589 1.347 . S
H591 C592 0.951 . S
C592 H591 0.951 . S
C592 C598 1.265 . S
H593 C598 0.950 . S
H594 C602 0.949 . S
H595 C603 0.950 . S
H596 C604 0.951 . S
H597 C605 0.951 . S
C598 C592 1.265 . S
C598 H593 0.950 . S
C598 C599 1.478 1_554 S
C599 C598 1.478 1_556 S
C599 C600 1.397 . S
C599 C616 1.394 . S
C600 C599 1.397 . S
C600 C601 1.438 . S
C600 C605 1.429 . S
C601 C600 1.438 . S
C601 C602 1.428 . S
C601 C614 1.394 . S
C602 H594 0.949 . S
C602 C601 1.428 . S
C602 C603 1.345 . S
C603 H595 0.950 . S
C603 C602 1.345 . S
C603 C604 1.424 . S
C604 H596 0.951 . S
C604 C603 1.424 . S
C604 C605 1.347 . S
C605 H597 0.951 . S
C605 C600 1.429 . S
C605 C604 1.347 . S
H606 C607 0.951 . S
C607 H606 0.951 . S
C607 C613 1.265 . S
H608 C613 0.950 . S
H609 C617 0.949 . S
H610 C618 0.950 . S
H611 C619 0.951 1_554 S
H612 C620 0.951 . S
C613 C607 1.265 . S
C613 H608 0.950 . S
C613 C614 1.478 . S
C614 C601 1.394 . S
C614 C613 1.478 . S
C614 C615 1.397 . S
C615 C614 1.397 . S
C615 C616 1.438 . S
C615 C620 1.429 . S
C616 C599 1.394 . S
C616 C615 1.438 . S
C616 C617 1.428 1_556 S
C617 H609 0.949 . S
C617 C616 1.428 1_554 S
C617 C618 1.345 . S
C618 H610 0.950 . S
C618 C617 1.345 . S
C618 C619 1.419 1_554 S
C619 H611 0.951 1_556 S
C619 C618 1.419 1_556 S
C619 C620 1.352 . S
C620 H612 0.951 . S
C620 C615 1.429 . S
C620 C619 1.352 . S
H621 C622 0.951 1_655 S
C622 H621 0.951 1_455 S
C622 C628 1.265 . S
H623 C628 0.950 . S
H624 C632 0.949 . S
H625 C633 0.950 . S
H626 C634 0.951 . S
H627 C635 0.951 . S
C628 C622 1.265 . S
C628 H623 0.950 . S
C628 C629 1.478 . S
C629 C628 1.478 . S
C629 C630 1.397 . S
C629 C646 1.394 . S
C630 C629 1.397 . S
C630 C631 1.438 . S
C630 C635 1.429 . S
C631 C630 1.438 . S
C631 C632 1.428 . S
C631 C644 1.394 . S
C632 H624 0.949 . S
C632 C631 1.428 . S
C632 C633 1.345 . S
C633 H625 0.950 . S
C633 C632 1.345 . S
C633 C634 1.424 . S
C634 H626 0.951 . S
C634 C633 1.424 . S
C634 C635 1.347 . S
C635 H627 0.951 . S
C635 C630 1.429 . S
C635 C634 1.347 . S
H636 C637 0.951 . S
C637 H636 0.951 . S
C637 C643 1.265 1_455 S
H638 C643 0.950 . S
H639 C647 0.949 . S
H640 C648 0.950 . S
H641 C649 0.951 . S
H642 C650 0.951 . S
C643 C637 1.265 1_655 S
C643 H638 0.950 . S
C643 C644 1.478 1_655 S
C644 C631 1.394 . S
C644 C643 1.478 1_455 S
C644 C645 1.390 1_455 S
C645 C644 1.390 1_655 S
C645 C646 1.440 1_655 S
C645 C650 1.434 . S
C646 C629 1.394 . S
C646 C645 1.440 1_455 S
C646 C647 1.428 . S
C647 H639 0.949 . S
C647 C646 1.428 . S
C647 C648 1.345 1_455 S
C648 H640 0.950 . S
C648 C647 1.345 1_655 S
C648 C649 1.424 . S
C649 H641 0.951 . S
C649 C648 1.424 . S
C649 C650 1.347 . S
C650 H642 0.951 . S
C650 C645 1.434 . S
C650 C649 1.347 . S
H651 C652 0.951 . S
C652 H651 0.951 . S
C652 C658 1.265 . S
H653 C658 0.950 . S
H654 C662 0.949 . S
H655 C663 0.950 . S
H656 C664 0.951 . S
H657 C665 0.951 . S
C658 C652 1.265 . S
C658 H653 0.950 . S
C658 C659 1.478 . S
C659 C658 1.478 . S
C659 C660 1.397 . S
C659 C676 1.394 1_545 S
C660 C659 1.397 . S
C660 C661 1.438 . S
C660 C665 1.429 . S
C661 C660 1.438 . S
C661 C662 1.428 . S
C661 C674 1.394 . S
C662 H654 0.949 . S
C662 C661 1.428 . S
C662 C663 1.345 . S
C663 H655 0.950 . S
C663 C662 1.345 . S
C663 C664 1.424 . S
C664 H656 0.951 . S
C664 C663 1.424 . S
C664 C665 1.347 . S
C665 H657 0.951 . S
C665 C660 1.429 . S
C665 C664 1.347 . S
H666 C667 0.951 . S
C667 H666 0.951 . S
C667 C673 1.265 . S
H668 C673 0.950 . S
H669 C677 0.949 . S
H670 C678 0.950 . S
H671 C679 0.951 . S
H672 C680 0.951 . S
C673 C667 1.265 . S
C673 H668 0.950 . S
C673 C674 1.478 . S
C674 C661 1.394 . S
C674 C673 1.478 . S
C674 C675 1.397 1_545 S
C675 C674 1.397 1_565 S
C675 C676 1.438 . S
C675 C680 1.429 . S
C676 C659 1.394 1_565 S
C676 C675 1.438 . S
C676 C677 1.428 . S
C677 H669 0.949 . S
C677 C676 1.428 . S
C677 C678 1.345 . S
C678 H670 0.950 . S
C678 C677 1.345 . S
C678 C679 1.424 . S
C679 H671 0.951 . S
C679 C678 1.424 . S
C679 C680 1.347 . S
C680 H672 0.951 . S
C680 C675 1.429 . S
C680 C679 1.347 . S
H681 C682 0.951 . S
C682 H681 0.951 . S
C682 C688 1.265 . S
H683 C688 0.950 . S
H684 C692 0.949 . S
H685 C693 0.950 . S
H686 C694 0.951 . S
H687 C695 0.951 . S
C688 C682 1.265 . S
C688 H683 0.950 . S
C688 C689 1.478 1_554 S
C689 C688 1.478 1_556 S
C689 C690 1.397 . S
C689 C706 1.373 1_556 S
C690 C689 1.397 . S
C690 C691 1.438 . S
C690 C695 1.429 . S
C691 C690 1.438 . S
C691 C692 1.428 . S
C691 C704 1.394 . S
C692 H684 0.949 . S
C692 C691 1.428 . S
C692 C693 1.345 . S
C693 H685 0.950 . S
C693 C692 1.345 . S
C693 C694 1.424 . S
C694 H686 0.951 . S
C694 C693 1.424 . S
C694 C695 1.347 . S
C695 H687 0.951 . S
C695 C690 1.429 . S
C695 C694 1.347 . S
H696 C697 0.951 . S
C697 H696 0.951 . S
C697 C703 1.265 . S
H698 C703 0.950 . S
H699 C707 0.949 . S
H700 C708 0.950 . S
H701 C709 0.951 . S
H702 C710 0.951 . S
C703 C697 1.265 . S
C703 H698 0.950 . S
C703 C704 1.478 . S
C704 C691 1.394 . S
C704 C703 1.478 . S
C704 C705 1.397 . S
C705 C704 1.397 . S
C705 C706 1.410 1_556 S
C705 C710 1.429 . S
C706 C689 1.373 1_554 S
C706 C705 1.410 1_554 S
C706 C707 1.478 . S
C707 H699 0.949 . S
C707 C706 1.478 . S
C707 C708 1.345 . S
C708 H700 0.950 . S
C708 C707 1.345 . S
C708 C709 1.424 . S
C709 H701 0.951 . S
C709 C708 1.424 . S
C709 C710 1.347 1_554 S
C710 H702 0.951 . S
C710 C705 1.429 . S
C710 C709 1.347 1_556 S
H711 C712 0.951 1_655 S
C712 H711 0.951 1_455 S
C712 C718 1.265 . S
H713 C718 0.950 . S
H714 C722 0.949 . S
H715 C723 0.950 . S
H716 C724 0.951 . S
H717 C725 0.951 . S
C718 C712 1.265 . S
C718 H713 0.950 . S
C718 C719 1.478 . S
C719 C718 1.478 . S
C719 C720 1.397 . S
C719 C736 1.394 . S
C720 C719 1.397 . S
C720 C721 1.438 1_455 S
C720 C725 1.429 1_455 S
C721 C720 1.438 1_655 S
C721 C722 1.428 . S
C721 C734 1.394 1_655 S
C722 H714 0.949 . S
C722 C721 1.428 . S
C722 C723 1.345 . S
C723 H715 0.950 . S
C723 C722 1.345 . S
C723 C724 1.424 . S
C724 H716 0.951 . S
C724 C723 1.424 . S
C724 C725 1.347 . S
C725 H717 0.951 . S
C725 C720 1.429 1_655 S
C725 C724 1.347 . S
H726 C727 0.951 . S
C727 H726 0.951 . S
C727 C733 1.265 . S
H728 C733 0.950 1_655 S
H729 C737 0.949 . S
H730 C738 0.950 . S
H731 C739 0.951 . S
H732 C740 0.951 . S
C733 C727 1.265 . S
C733 H728 0.950 1_455 S
C733 C734 1.478 . S
C734 C721 1.394 1_455 S
C734 C733 1.478 . S
C734 C735 1.397 . S
C735 C734 1.397 . S
C735 C736 1.438 . S
C735 C740 1.429 . S
C736 C719 1.394 . S
C736 C735 1.438 . S
C736 C737 1.428 . S
C737 H729 0.949 . S
C737 C736 1.428 . S
C737 C738 1.345 . S
C738 H730 0.950 . S
C738 C737 1.345 . S
C738 C739 1.424 . S
C739 H731 0.951 . S
C739 C738 1.424 . S
C739 C740 1.347 . S
C740 H732 0.951 . S
C740 C735 1.429 . S
C740 C739 1.347 . S
C397 C94 1.049 . S
C382 C10 1.598 . S
C412 C17 1.609 . S
C427 C208 1.092 . S
C442 C36 1.378 . S
C457 C268 1.095 . S
C472 C5 1.472 . S
C487 C68 1.257 . S
C517 C182 1.066 . S
C502 C16 1.475 . S
C532 C31 1.524 . S
C547 C278 0.879 . S
C577 C164 0.892 . S
C562 C30 1.521 . S
C592 C3 1.475 . S
C607 C296 1.260 . S
C637 C40 1.158 1_455 S
C622 C18 1.374 . S
C667 C154 1.220 . S
C652 C29 1.381 . S
C697 C322 1.226 . S
C682 C4 1.609 . S
C712 C23 1.516 . S
C727 C50 0.988 . S
