# Generated by pormake.
# Topology eea, (3,6)-cn, num edge types: 1
# Building blocks:
#     Node 0, Type 0, BuildingBlock: BELTOD_clean_linker_0, # of connection points: 3
#     Node 1, Type 0, BuildingBlock: BELTOD_clean_linker_0, # of connection points: 3
#     Node 2, Type 0, BuildingBlock: BELTOD_clean_linker_0, # of connection points: 3
#     Node 3, Type 0, BuildingBlock: BELTOD_clean_linker_0, # of connection points: 3
#     Node 4, Type 0, BuildingBlock: BELTOD_clean_linker_0, # of connection points: 3
#     Node 5, Type 0, BuildingBlock: BELTOD_clean_linker_0, # of connection points: 3
#     Node 6, Type 0, BuildingBlock: BELTOD_clean_linker_0, # of connection points: 3
#     Node 7, Type 0, BuildingBlock: BELTOD_clean_linker_0, # of connection points: 3
#     Node 8, Type 0, BuildingBlock: BELTOD_clean_linker_0, # of connection points: 3
#     Node 9, Type 0, BuildingBlock: BELTOD_clean_linker_0, # of connection points: 3
#     Node 10, Type 0, BuildingBlock: BELTOD_clean_linker_0, # of connection points: 3
#     Node 11, Type 0, BuildingBlock: BELTOD_clean_linker_0, # of connection points: 3
#     Node 12, Type 0, BuildingBlock: BELTOD_clean_linker_0, # of connection points: 3
#     Node 13, Type 0, BuildingBlock: BELTOD_clean_linker_0, # of connection points: 3
#     Node 14, Type 0, BuildingBlock: BELTOD_clean_linker_0, # of connection points: 3
#     Node 15, Type 0, BuildingBlock: BELTOD_clean_linker_0, # of connection points: 3
#     Node 16, Type 0, BuildingBlock: BELTOD_clean_linker_0, # of connection points: 3
#     Node 17, Type 0, BuildingBlock: BELTOD_clean_linker_0, # of connection points: 3
#     Node 18, Type 1, BuildingBlock: HISSIN_clean_sbu_0, # of connection points: 6
#     Node 19, Type 1, BuildingBlock: HISSIN_clean_sbu_0, # of connection points: 6
#     Node 20, Type 1, BuildingBlock: HISSIN_clean_sbu_0, # of connection points: 6
#     Node 21, Type 1, BuildingBlock: HISSIN_clean_sbu_0, # of connection points: 6
#     Node 22, Type 1, BuildingBlock: HISSIN_clean_sbu_0, # of connection points: 6
#     Node 23, Type 1, BuildingBlock: HISSIN_clean_sbu_0, # of connection points: 6
#     Node 24, Type 1, BuildingBlock: HISSIN_clean_sbu_0, # of connection points: 6
#     Node 25, Type 1, BuildingBlock: HISSIN_clean_sbu_0, # of connection points: 6
#     Node 26, Type 1, BuildingBlock: HISSIN_clean_sbu_0, # of connection points: 6
#     Edge 27, Type (0, 1), BuildingBlock: TEMPAE_clean_linker_10, # of connection points: 2
#     Edge 28, Type (0, 1), BuildingBlock: TEMPAE_clean_linker_10, # of connection points: 2
#     Edge 29, Type (0, 1), BuildingBlock: TEMPAE_clean_linker_10, # of connection points: 2
#     Edge 30, Type (0, 1), BuildingBlock: TEMPAE_clean_linker_10, # of connection points: 2
#     Edge 31, Type (0, 1), BuildingBlock: TEMPAE_clean_linker_10, # of connection points: 2
#     Edge 32, Type (0, 1), BuildingBlock: TEMPAE_clean_linker_10, # of connection points: 2
#     Edge 33, Type (0, 1), BuildingBlock: TEMPAE_clean_linker_10, # of connection points: 2
#     Edge 34, Type (0, 1), BuildingBlock: TEMPAE_clean_linker_10, # of connection points: 2
#     Edge 35, Type (0, 1), BuildingBlock: TEMPAE_clean_linker_10, # of connection points: 2
#     Edge 36, Type (0, 1), BuildingBlock: TEMPAE_clean_linker_10, # of connection points: 2
#     Edge 37, Type (0, 1), BuildingBlock: TEMPAE_clean_linker_10, # of connection points: 2
#     Edge 38, Type (0, 1), BuildingBlock: TEMPAE_clean_linker_10, # of connection points: 2
#     Edge 39, Type (0, 1), BuildingBlock: TEMPAE_clean_linker_10, # of connection points: 2
#     Edge 40, Type (0, 1), BuildingBlock: TEMPAE_clean_linker_10, # of connection points: 2
#     Edge 41, Type (0, 1), BuildingBlock: TEMPAE_clean_linker_10, # of connection points: 2
#     Edge 42, Type (0, 1), BuildingBlock: TEMPAE_clean_linker_10, # of connection points: 2
#     Edge 43, Type (0, 1), BuildingBlock: TEMPAE_clean_linker_10, # of connection points: 2
#     Edge 44, Type (0, 1), BuildingBlock: TEMPAE_clean_linker_10, # of connection points: 2
#     Edge 45, Type (0, 1), BuildingBlock: TEMPAE_clean_linker_10, # of connection points: 2
#     Edge 46, Type (0, 1), BuildingBlock: TEMPAE_clean_linker_10, # of connection points: 2
#     Edge 47, Type (0, 1), BuildingBlock: TEMPAE_clean_linker_10, # of connection points: 2
#     Edge 48, Type (0, 1), BuildingBlock: TEMPAE_clean_linker_10, # of connection points: 2
#     Edge 49, Type (0, 1), BuildingBlock: TEMPAE_clean_linker_10, # of connection points: 2
#     Edge 50, Type (0, 1), BuildingBlock: TEMPAE_clean_linker_10, # of connection points: 2
#     Edge 51, Type (0, 1), BuildingBlock: TEMPAE_clean_linker_10, # of connection points: 2
#     Edge 52, Type (0, 1), BuildingBlock: TEMPAE_clean_linker_10, # of connection points: 2
#     Edge 53, Type (0, 1), BuildingBlock: TEMPAE_clean_linker_10, # of connection points: 2
#     Edge 54, Type (0, 1), BuildingBlock: TEMPAE_clean_linker_10, # of connection points: 2
#     Edge 55, Type (0, 1), BuildingBlock: TEMPAE_clean_linker_10, # of connection points: 2
#     Edge 56, Type (0, 1), BuildingBlock: TEMPAE_clean_linker_10, # of connection points: 2
#     Edge 57, Type (0, 1), BuildingBlock: TEMPAE_clean_linker_10, # of connection points: 2
#     Edge 58, Type (0, 1), BuildingBlock: TEMPAE_clean_linker_10, # of connection points: 2
#     Edge 59, Type (0, 1), BuildingBlock: TEMPAE_clean_linker_10, # of connection points: 2
#     Edge 60, Type (0, 1), BuildingBlock: TEMPAE_clean_linker_10, # of connection points: 2
#     Edge 61, Type (0, 1), BuildingBlock: TEMPAE_clean_linker_10, # of connection points: 2
#     Edge 62, Type (0, 1), BuildingBlock: TEMPAE_clean_linker_10, # of connection points: 2
#     Edge 63, Type (0, 1), BuildingBlock: TEMPAE_clean_linker_10, # of connection points: 2
#     Edge 64, Type (0, 1), BuildingBlock: TEMPAE_clean_linker_10, # of connection points: 2
#     Edge 65, Type (0, 1), BuildingBlock: TEMPAE_clean_linker_10, # of connection points: 2
#     Edge 66, Type (0, 1), BuildingBlock: TEMPAE_clean_linker_10, # of connection points: 2
#     Edge 67, Type (0, 1), BuildingBlock: TEMPAE_clean_linker_10, # of connection points: 2
#     Edge 68, Type (0, 1), BuildingBlock: TEMPAE_clean_linker_10, # of connection points: 2
#     Edge 69, Type (0, 1), BuildingBlock: TEMPAE_clean_linker_10, # of connection points: 2
#     Edge 70, Type (0, 1), BuildingBlock: TEMPAE_clean_linker_10, # of connection points: 2
#     Edge 71, Type (0, 1), BuildingBlock: TEMPAE_clean_linker_10, # of connection points: 2
#     Edge 72, Type (0, 1), BuildingBlock: TEMPAE_clean_linker_10, # of connection points: 2
#     Edge 73, Type (0, 1), BuildingBlock: TEMPAE_clean_linker_10, # of connection points: 2
#     Edge 74, Type (0, 1), BuildingBlock: TEMPAE_clean_linker_10, # of connection points: 2
#     Edge 75, Type (0, 1), BuildingBlock: TEMPAE_clean_linker_10, # of connection points: 2
#     Edge 76, Type (0, 1), BuildingBlock: TEMPAE_clean_linker_10, # of connection points: 2
#     Edge 77, Type (0, 1), BuildingBlock: TEMPAE_clean_linker_10, # of connection points: 2
#     Edge 78, Type (0, 1), BuildingBlock: TEMPAE_clean_linker_10, # of connection points: 2
#     Edge 79, Type (0, 1), BuildingBlock: TEMPAE_clean_linker_10, # of connection points: 2
#     Edge 80, Type (0, 1), BuildingBlock: TEMPAE_clean_linker_10, # of connection points: 2
# Relax obj value: 0.032
# Max RMSD: 0.129
# Mean RMSD: 0.080
data_MOF--net-eea--node1-HISSIN_clean_sbu_0--node2-BELTOD_clean_linker_0--edge1-TEMPAE_clean_linker_10
_symmetry_space_group_name_H-M    P1
_symmetry_Int_Tables_number       1
_symmetry_cell_setting            triclinic
loop_
_symmetry_equiv_pos_as_xyz
'x, y, z'
_cell_length_a     59.193936
_cell_length_b     58.973294
_cell_length_c     85.051692
_cell_angle_alpha  93.90806
_cell_angle_beta   93.52409
_cell_angle_gamma 119.88265
loop_
_atom_site_label
_atom_site_type_symbol
_atom_site_fract_x
_atom_site_fract_y
_atom_site_fract_z
_atom_type_partial_charge
P0 P 0.32703 0.17472 0.40053 0.0
H1 H 0.28815 0.14598 0.37272 0.0
H2 H 0.26441 0.09969 0.36194 0.0
H3 H 0.30769 0.08316 0.39767 0.0
H4 H 0.33177 0.12969 0.40823 0.0
H5 H 0.33765 0.21659 0.38032 0.0
H6 H 0.31092 0.23464 0.37039 0.0
H7 H 0.24852 0.18325 0.39682 0.0
H8 H 0.27514 0.165 0.40644 0.0
H9 H 0.36593 0.2123 0.42602 0.0
H10 H 0.29156 0.13993 0.42179 0.0
O11 O 0.35721 0.19094 0.39506 0.0
H12 H 0.36862 0.21347 0.45495 0.0
H13 H 0.29395 0.14111 0.45062 0.0
C14 C 0.31119 0.14112 0.39158 0.0
C15 C 0.29258 0.13246 0.37826 0.0
C16 C 0.27895 0.10594 0.37211 0.0
C17 C 0.28388 0.08769 0.37909 0.0
C18 C 0.30347 0.09673 0.39199 0.0
C19 C 0.31712 0.12328 0.3981 0.0
C20 C 0.30848 0.18972 0.39428 0.0
C21 C 0.31833 0.20941 0.3841 0.0
C22 C 0.30305 0.21973 0.37845 0.0
C23 C 0.2776 0.21033 0.38282 0.0
C24 C 0.26792 0.19068 0.39311 0.0
C25 C 0.28323 0.18045 0.39876 0.0
C26 C 0.32887 0.17572 0.42178 0.0
C27 C 0.35022 0.19665 0.43132 0.0
C28 C 0.35163 0.1974 0.44784 0.0
C29 C 0.33159 0.17725 0.45505 0.0
C30 C 0.30992 0.15665 0.44541 0.0
C31 C 0.30851 0.15599 0.42893 0.0
P32 P 0.91516 0.10587 0.44276 0.0
H33 H 0.89917 0.05052 0.4344 0.0
H34 H 0.85993 0.01356 0.41968 0.0
H35 H 0.82717 0.06391 0.41332 0.0
H36 H 0.86703 0.10104 0.42747 0.0
H37 H 0.94347 0.16401 0.44439 0.0
H38 H 0.97162 0.19419 0.42642 0.0
H39 H 0.95691 0.1279 0.39369 0.0
H40 H 0.9281 0.09777 0.41139 0.0
H41 H 0.916 0.09962 0.47638 0.0
H42 H 0.89289 0.14085 0.44511 0.0
O43 O 0.93448 0.09509 0.45005 0.0
H44 H 0.90008 0.11412 0.49839 0.0
H45 H 0.87687 0.15556 0.46723 0.0
C46 C 0.88587 0.07847 0.43224 0.0
C47 C 0.88353 0.05361 0.4299 0.0
C48 C 0.86095 0.03241 0.42155 0.0
C49 C 0.84024 0.03566 0.41542 0.0
C50 C 0.84278 0.06071 0.41776 0.0
C51 C 0.86548 0.08195 0.42601 0.0
C52 C 0.93308 0.12861 0.42902 0.0
C53 C 0.94558 0.15592 0.43315 0.0
C54 C 0.96176 0.17316 0.42292 0.0
C55 C 0.96626 0.16328 0.40869 0.0
C56 C 0.95364 0.13595 0.40458 0.0
C57 C 0.93712 0.11878 0.41464 0.0
C58 C 0.90603 0.11948 0.45914 0.0
C59 C 0.90794 0.11221 0.47429 0.0
C60 C 0.89885 0.12056 0.4869 0.0
C61 C 0.88735 0.13613 0.48458 0.0
C62 C 0.88553 0.14349 0.46937 0.0
C63 C 0.89478 0.13519 0.45674 0.0
P64 P 0.85848 0.72476 0.41875 0.0
H65 H 0.80259 0.70522 0.41759 0.0
H66 H 0.77461 0.72174 0.4077 0.0
H67 H 0.84262 0.79005 0.3945 0.0
H68 H 0.87058 0.77397 0.40521 0.0
H69 H 0.87431 0.72169 0.38747 0.0
H70 H 0.91668 0.74172 0.37694 0.0
H71 H 0.95473 0.78359 0.42318 0.0
H72 H 0.91198 0.76394 0.43351 0.0
H73 H 0.83456 0.73917 0.44426 0.0
H74 H 0.8865 0.70813 0.43998 0.0
O75 O 0.8432 0.69338 0.41083 0.0
H76 H 0.83158 0.73069 0.47184 0.0
H77 H 0.88474 0.7008 0.46793 0.0
C78 C 0.83861 0.73823 0.41203 0.0
C79 C 0.81147 0.72386 0.41266 0.0
C80 C 0.79546 0.73326 0.40687 0.0
C81 C 0.80623 0.75713 0.40009 0.0
C82 C 0.83361 0.77173 0.39976 0.0
C83 C 0.84966 0.76244 0.40577 0.0
C84 C 0.89008 0.74086 0.41134 0.0
C85 C 0.89178 0.73519 0.39534 0.0
C86 C 0.91606 0.74658 0.38935 0.0
C87 C 0.93922 0.76397 0.39926 0.0
C88 C 0.93731 0.77032 0.41521 0.0
C89 C 0.9129 0.75893 0.42118 0.0
C90 C 0.86073 0.72422 0.43998 0.0
C91 C 0.84581 0.73104 0.4493 0.0
C92 C 0.84427 0.72633 0.46521 0.0
C93 C 0.85773 0.71481 0.47217 0.0
C94 C 0.87367 0.70919 0.46293 0.0
C95 C 0.87497 0.71367 0.44698 0.0
P96 P 0.1177 0.27737 0.59395 0.0
H97 H 0.09013 0.23741 0.61543 0.0
H98 H 0.04667 0.2195 0.62432 0.0
H99 H 0.02762 0.26109 0.5909 0.0
H100 H 0.0715 0.27956 0.5824 0.0
H101 H 0.14267 0.27805 0.62469 0.0
H102 H 0.16984 0.2598 0.63322 0.0
H103 H 0.16094 0.22508 0.58517 0.0
H104 H 0.13298 0.24262 0.57688 0.0
H105 H 0.15581 0.32114 0.57867 0.0
H106 H 0.08734 0.24516 0.56403 0.0
O107 O 0.13115 0.30678 0.6046 0.0
H108 H 0.1616 0.32882 0.55103 0.0
H109 H 0.09339 0.25236 0.53615 0.0
C110 C 0.08398 0.2595 0.59803 0.0
C111 C 0.07648 0.24227 0.60975 0.0
C112 C 0.05151 0.23197 0.61483 0.0
C113 C 0.03361 0.23891 0.60838 0.0
C114 C 0.04099 0.25557 0.59628 0.0
C115 C 0.06598 0.2659 0.59125 0.0
C116 C 0.13613 0.26206 0.60012 0.0
C117 C 0.14648 0.2664 0.61601 0.0
C118 C 0.16218 0.25609 0.62085 0.0
C119 C 0.16796 0.24128 0.60985 0.0
C120 C 0.15683 0.23629 0.59399 0.0
C121 C 0.14095 0.24648 0.58919 0.0
C122 C 0.12084 0.28283 0.57339 0.0
C123 C 0.14191 0.30613 0.56947 0.0
C124 C 0.14537 0.31037 0.55363 0.0
C125 C 0.128 0.29119 0.54132 0.0
C126 C 0.10692 0.2677 0.54532 0.0
C127 C 0.10344 0.26353 0.56123 0.0
P128 P 0.81404 0.90087 0.57301 0.0
H129 H 0.84836 0.95809 0.57814 0.0
H130 H 0.8445 0.99296 0.59255 0.0
H131 H 0.76888 0.93491 0.60512 0.0
H132 H 0.77367 0.90007 0.59141 0.0
H133 H 0.78288 0.84269 0.56932 0.0
H134 H 0.78005 0.81024 0.58675 0.0
H135 H 0.83549 0.87293 0.622 0.0
H136 H 0.83754 0.90549 0.6048 0.0
H137 H 0.81928 0.90729 0.53951 0.0
H138 H 0.75663 0.8677 0.56858 0.0
O139 O 0.84407 0.91331 0.56733 0.0
H140 H 0.7874 0.89272 0.51617 0.0
H141 H 0.72451 0.85253 0.54515 0.0
C142 C 0.81131 0.92653 0.58374 0.0
C143 C 0.83103 0.95286 0.58408 0.0
C144 C 0.82865 0.97282 0.5922 0.0
C145 C 0.80628 0.9668 0.59993 0.0
C146 C 0.7865 0.94028 0.59947 0.0
C147 C 0.78909 0.92033 0.59151 0.0
C148 C 0.80993 0.87654 0.58595 0.0
C149 C 0.79385 0.84956 0.58095 0.0
C150 C 0.7923 0.83101 0.59087 0.0
C151 C 0.80742 0.83923 0.60569 0.0
C152 C 0.82357 0.86622 0.61064 0.0
C153 C 0.8247 0.88474 0.60085 0.0
C154 C 0.79036 0.8882 0.55574 0.0
C155 C 0.79867 0.8951 0.54084 0.0
C156 C 0.78039 0.88667 0.52748 0.0
C157 C 0.75341 0.87127 0.52878 0.0
C158 C 0.74514 0.8645 0.54377 0.0
C159 C 0.76348 0.87303 0.55716 0.0
P160 P 0.13254 0.83092 0.60057 0.0
H161 H 0.14925 0.86213 0.6315 0.0
H162 H 0.17393 0.90976 0.63974 0.0
H163 H 0.18137 0.92422 0.59075 0.0
H164 H 0.15614 0.87696 0.58249 0.0
H165 H 0.08994 0.77665 0.59693 0.0
H166 H 0.04609 0.75514 0.60558 0.0
H167 H 0.05943 0.83085 0.62546 0.0
H168 H 0.10234 0.85217 0.61593 0.0
H169 H 0.1699 0.8263 0.58195 0.0
H170 H 0.09597 0.82342 0.57313 0.0
O171 O 0.14771 0.81754 0.61005 0.0
H172 H 0.17328 0.82366 0.55351 0.0
H173 H 0.09878 0.82 0.54456 0.0
C174 C 0.15077 0.86593 0.60641 0.0
C175 C 0.15609 0.87557 0.62254 0.0
C176 C 0.17007 0.90268 0.62722 0.0
C177 C 0.17945 0.92047 0.61584 0.0
C178 C 0.17438 0.9108 0.59972 0.0
C179 C 0.15993 0.88374 0.59502 0.0
C180 C 0.09957 0.81593 0.60596 0.0
C181 C 0.08324 0.78859 0.60301 0.0
C182 C 0.05826 0.77631 0.6081 0.0
C183 C 0.04925 0.79118 0.61643 0.0
C184 C 0.06552 0.81873 0.61898 0.0
C185 C 0.09035 0.83099 0.61368 0.0
C186 C 0.13242 0.82445 0.57959 0.0
C187 C 0.15404 0.82436 0.57384 0.0
C188 C 0.15592 0.82283 0.55756 0.0
C189 C 0.13625 0.82152 0.54673 0.0
C190 C 0.11436 0.82119 0.55258 0.0
C191 C 0.11256 0.82282 0.56889 0.0
P192 P 0.99051 0.50362 0.73686 0.0
H193 H 0.99565 0.46877 0.71291 0.0
H194 H 0.96827 0.42169 0.70407 0.0
H195 H 0.91595 0.41489 0.73909 0.0
H196 H 0.9431 0.46202 0.7476 0.0
H197 H 0.99716 0.55578 0.74444 0.0
H198 H 0.97259 0.57644 0.7351 0.0
H199 H 0.92231 0.50678 0.70247 0.0
H200 H 0.94646 0.48611 0.71208 0.0
H201 H 0.0295 0.50347 0.75938 0.0
H202 H 0.96202 0.51299 0.76116 0.0
O203 O 0.0194 0.51633 0.72959 0.0
H204 H 0.03487 0.50657 0.78831 0.0
H205 H 0.96787 0.51726 0.79005 0.0
C206 C 0.97162 0.46873 0.73109 0.0
C207 C 0.97844 0.45708 0.71878 0.0
C208 C 0.9628 0.43017 0.71376 0.0
C209 C 0.93998 0.41456 0.72091 0.0
C210 C 0.93327 0.42641 0.73325 0.0
C211 C 0.94892 0.45329 0.73825 0.0
C212 C 0.97323 0.51918 0.72928 0.0
C213 C 0.98079 0.54497 0.73531 0.0
C214 C 0.96684 0.5568 0.72988 0.0
C215 C 0.94529 0.54312 0.71816 0.0
C216 C 0.9384 0.5176 0.71177 0.0
C217 C 0.9523 0.50578 0.71724 0.0
C218 C 0.99583 0.50872 0.75816 0.0
C219 C 0.0162 0.50683 0.76603 0.0
C220 C 0.01928 0.50867 0.78257 0.0
C221 C 0.00189 0.51232 0.79153 0.0
C222 C 0.98148 0.51424 0.78353 0.0
C223 C 0.97834 0.51218 0.767 0.0
P224 P 0.5847 0.43752 0.77423 0.0
H225 H 0.57497 0.41524 0.74105 0.0
H226 H 0.53545 0.38106 0.72467 0.0
H227 H 0.49031 0.37244 0.76412 0.0
H228 H 0.52965 0.40677 0.78038 0.0
H229 H 0.6412 0.47182 0.77931 0.0
H230 H 0.67261 0.5054 0.76441 0.0
H231 H 0.60878 0.49491 0.73131 0.0
H232 H 0.57746 0.46243 0.74688 0.0
H233 H 0.58472 0.42707 0.80728 0.0
H234 H 0.56594 0.47474 0.7791 0.0
O235 O 0.59959 0.42122 0.77988 0.0
H236 H 0.56971 0.44043 0.83027 0.0
H237 H 0.55034 0.48795 0.80213 0.0
C238 C 0.55517 0.4142 0.76179 0.0
C239 C 0.55646 0.40646 0.74606 0.0
C240 C 0.5339 0.38692 0.73672 0.0
C241 C 0.50982 0.37429 0.74311 0.0
C242 C 0.50862 0.38192 0.75891 0.0
C243 C 0.53111 0.40169 0.76817 0.0
C244 C 0.60711 0.46405 0.7639 0.0
C245 C 0.63399 0.47691 0.7689 0.0
C246 C 0.65194 0.49596 0.76027 0.0
C247 C 0.64334 0.50246 0.74639 0.0
C248 C 0.61618 0.49044 0.7419 0.0
C249 C 0.59821 0.47161 0.7507 0.0
C250 C 0.57675 0.4502 0.79155 0.0
C251 C 0.57767 0.4407 0.80608 0.0
C252 C 0.56882 0.44816 0.8192 0.0
C253 C 0.55864 0.4651 0.818 0.0
C254 C 0.55829 0.47507 0.80347 0.0
C255 C 0.56718 0.46756 0.79032 0.0
P256 P 0.51879 0.05354 0.74966 0.0
H257 H 0.52236 0.08247 0.72262 0.0
H258 H 0.49843 0.10377 0.7134 0.0
H259 H 0.46049 0.09009 0.75633 0.0
H260 H 0.48471 0.06922 0.76564 0.0
H261 H 0.53989 0.03416 0.7254 0.0
H262 H 0.58224 0.05269 0.71538 0.0
H263 H 0.61225 0.12097 0.75017 0.0
H264 H 0.56877 0.10291 0.75931 0.0
H265 H 0.47469 0.02214 0.76684 0.0
H266 H 0.5587 0.06867 0.77751 0.0
O267 O 0.49932 0.02466 0.73876 0.0
H268 H 0.47066 0.01068 0.7939 0.0
H269 H 0.55494 0.05651 0.80447 0.0
C270 C 0.50558 0.07434 0.74489 0.0
C271 C 0.50947 0.08469 0.73028 0.0
C272 C 0.49573 0.09684 0.72499 0.0
C273 C 0.47745 0.09845 0.7341 0.0
C274 C 0.47426 0.08889 0.74898 0.0
C275 C 0.48822 0.07699 0.75434 0.0
C276 C 0.55123 0.06687 0.74336 0.0
C277 C 0.55555 0.05306 0.73097 0.0
C278 C 0.58005 0.06369 0.7253 0.0
C279 C 0.6011 0.08829 0.73205 0.0
C280 C 0.59662 0.10212 0.74451 0.0
C281 C 0.57183 0.09165 0.74995 0.0
C282 C 0.51693 0.04654 0.7701 0.0
C283 C 0.49232 0.02997 0.77502 0.0
C284 C 0.49006 0.02319 0.7905 0.0
C285 C 0.51248 0.03249 0.80143 0.0
C286 C 0.53721 0.04924 0.79648 0.0
C287 C 0.5394 0.0562 0.78096 0.0
P288 P 0.78721 0.61256 0.9277 0.0
H289 H 0.76436 0.57995 0.95317 0.0
H290 H 0.72037 0.55894 0.96162 0.0
H291 H 0.69298 0.58252 0.92109 0.0
H292 H 0.73709 0.60358 0.91273 0.0
H293 H 0.84188 0.63746 0.94074 0.0
H294 H 0.86998 0.62021 0.94909 0.0
H295 H 0.80581 0.5409 0.93527 0.0
H296 H 0.77792 0.55851 0.92654 0.0
H297 H 0.80916 0.65991 0.91139 0.0
H298 H 0.76992 0.57596 0.89856 0.0
O299 O 0.79902 0.64174 0.93839 0.0
H300 H 0.8131 0.66696 0.88359 0.0
H301 H 0.77347 0.58286 0.87045 0.0
C302 C 0.75388 0.59269 0.93207 0.0
C303 C 0.74874 0.57992 0.94583 0.0
C304 C 0.72356 0.56796 0.95069 0.0
C305 C 0.70315 0.56903 0.94202 0.0
C306 C 0.7083 0.58146 0.92807 0.0
C307 C 0.73346 0.59328 0.92318 0.0
C308 C 0.80763 0.59923 0.93344 0.0
C309 C 0.83381 0.61635 0.93956 0.0
C310 C 0.84985 0.60644 0.94438 0.0
C311 C 0.84006 0.57914 0.9431 0.0
C312 C 0.81399 0.56202 0.93641 0.0
C313 C 0.79796 0.57203 0.93154 0.0
C314 C 0.78911 0.61739 0.90703 0.0
C315 C 0.80116 0.64293 0.90257 0.0
C316 C 0.80328 0.64695 0.88661 0.0
C317 C 0.79344 0.62547 0.87476 0.0
C318 C 0.78139 0.59983 0.87929 0.0
C319 C 0.77924 0.59584 0.89532 0.0
P320 P 0.46257 0.21601 0.9112 0.0
H321 H 0.50242 0.27134 0.92009 0.0
H322 H 0.50067 0.30844 0.93318 0.0
H323 H 0.41768 0.25806 0.93586 0.0
H324 H 0.41983 0.22078 0.92319 0.0
H325 H 0.43959 0.15901 0.90502 0.0
H326 H 0.43362 0.12559 0.92244 0.0
H327 H 0.46114 0.18423 0.96315 0.0
H328 H 0.46722 0.21758 0.94567 0.0
H329 H 0.47328 0.22765 0.87894 0.0
H330 H 0.40579 0.18138 0.90323 0.0
O331 O 0.49319 0.22562 0.90739 0.0
H332 H 0.44501 0.21572 0.85411 0.0
H333 H 0.37715 0.16983 0.87842 0.0
C334 C 0.46123 0.24339 0.92065 0.0
C335 C 0.48385 0.26826 0.92348 0.0
C336 C 0.48278 0.28951 0.93087 0.0
C337 C 0.45899 0.28623 0.93548 0.0
C338 C 0.43633 0.26118 0.93258 0.0
C339 C 0.43748 0.23992 0.92524 0.0
C340 C 0.45333 0.19063 0.92408 0.0
C341 C 0.44359 0.1645 0.91772 0.0
C342 C 0.44012 0.14542 0.92769 0.0
C343 C 0.44683 0.15232 0.94416 0.0
C344 C 0.45583 0.17839 0.95051 0.0
C345 C 0.45917 0.19741 0.94053 0.0
C346 C 0.44164 0.20502 0.89282 0.0
C347 C 0.45237 0.21471 0.87889 0.0
C348 C 0.43615 0.2081 0.86474 0.0
C349 C 0.40883 0.19195 0.86433 0.0
C350 C 0.39814 0.18209 0.87834 0.0
C351 C 0.41445 0.18871 0.89251 0.0
P352 P 0.79907 0.17118 0.93244 0.0
H353 H 0.7999 0.20571 0.95928 0.0
H354 H 0.82522 0.25347 0.9663 0.0
H355 H 0.86369 0.26172 0.92377 0.0
H356 H 0.83833 0.21408 0.91678 0.0
H357 H 0.7688 0.12134 0.94527 0.0
H358 H 0.72628 0.10039 0.95557 0.0
H359 H 0.71667 0.16613 0.9454 0.0
H360 H 0.75902 0.18658 0.93464 0.0
H361 H 0.8213 0.14727 0.91191 0.0
H362 H 0.77029 0.17946 0.90649 0.0
O363 O 0.81694 0.15984 0.94112 0.0
H364 H 0.8214 0.14235 0.88321 0.0
H365 H 0.7699 0.17415 0.87765 0.0
C366 C 0.81657 0.20639 0.93724 0.0
C367 C 0.81339 0.21782 0.95131 0.0
C368 C 0.82787 0.2451 0.95531 0.0
C369 C 0.84623 0.26129 0.94549 0.0
C370 C 0.84966 0.24971 0.93154 0.0
C371 C 0.83501 0.22248 0.92749 0.0
C372 C 0.76732 0.15579 0.93956 0.0
C373 C 0.75758 0.13128 0.94529 0.0
C374 C 0.73331 0.11939 0.95126 0.0
C375 C 0.71823 0.13178 0.95158 0.0
C376 C 0.72775 0.15603 0.94534 0.0
C377 C 0.75202 0.16784 0.93928 0.0
C378 C 0.7956 0.16352 0.9113 0.0
C379 C 0.80963 0.15273 0.90452 0.0
C380 C 0.80962 0.14986 0.88809 0.0
C381 C 0.79567 0.15789 0.87815 0.0
C382 C 0.78102 0.16801 0.885 0.0
C383 C 0.78102 0.17083 0.90145 0.0
P384 P 0.66196 0.83301 0.06993 0.0
H385 H 0.67016 0.79713 0.04858 0.0
H386 H 0.64332 0.7499 0.04008 0.0
H387 H 0.58507 0.74512 0.0701 0.0
H388 H 0.61156 0.79238 0.07806 0.0
H389 H 0.66262 0.88195 0.07968 0.0
H390 H 0.63788 0.90175 0.06914 0.0
H391 H 0.60116 0.83905 0.03052 0.0
H392 H 0.62555 0.81905 0.04123 0.0
H393 H 0.70183 0.83678 0.09361 0.0
H394 H 0.62949 0.83786 0.09311 0.0
O395 O 0.69137 0.84561 0.06334 0.0
H396 H 0.70531 0.83947 0.12255 0.0
H397 H 0.6333 0.8416 0.12198 0.0
C398 C 0.64299 0.79814 0.06411 0.0
C399 C 0.65168 0.78587 0.05338 0.0
C400 C 0.63636 0.75885 0.04859 0.0
C401 C 0.61209 0.74372 0.05446 0.0
C402 C 0.60352 0.75622 0.06522 0.0
C403 C 0.61878 0.78321 0.06993 0.0
C404 C 0.64519 0.84853 0.06157 0.0
C405 C 0.64909 0.87234 0.06903 0.0
C406 C 0.63499 0.88363 0.06301 0.0
C407 C 0.61738 0.87167 0.04917 0.0
C408 C 0.61454 0.84855 0.04126 0.0
C409 C 0.62836 0.83707 0.04743 0.0
C410 C 0.6658 0.83784 0.09125 0.0
C411 C 0.68701 0.83819 0.09975 0.0
C412 C 0.68899 0.83978 0.1163 0.0
C413 C 0.66964 0.84088 0.1246 0.0
C414 C 0.64842 0.84056 0.11597 0.0
C415 C 0.6464 0.83878 0.09945 0.0
P416 P 0.25193 0.78131 0.1102 0.0
H417 H 0.23923 0.72856 0.09746 0.0
H418 H 0.19999 0.69157 0.08269 0.0
H419 H 0.16069 0.73668 0.08524 0.0
H420 H 0.2004 0.77392 0.09975 0.0
H421 H 0.29369 0.83656 0.11517 0.0
H422 H 0.3227 0.866 0.09724 0.0
H423 H 0.27954 0.80606 0.05771 0.0
H424 H 0.25077 0.7768 0.07559 0.0
H425 H 0.24096 0.76523 0.14151 0.0
H426 H 0.24181 0.82547 0.1151 0.0
O427 O 0.2714 0.7706 0.1173 0.0
H428 H 0.22628 0.78056 0.1639 0.0
H429 H 0.22703 0.84104 0.13761 0.0
C430 C 0.22251 0.75376 0.09994 0.0
C431 C 0.2221 0.73042 0.09498 0.0
C432 C 0.1996 0.70924 0.08658 0.0
C433 C 0.1771 0.71107 0.08291 0.0
C434 C 0.17771 0.73467 0.08781 0.0
C435 C 0.2003 0.75589 0.0962 0.0
C436 C 0.2697 0.80469 0.09671 0.0
C437 C 0.29003 0.83005 0.10258 0.0
C438 C 0.3066 0.84684 0.09232 0.0
C439 C 0.30339 0.8383 0.07607 0.0
C440 C 0.28257 0.81312 0.07019 0.0
C441 C 0.26596 0.79645 0.08042 0.0
C442 C 0.24306 0.7946 0.12682 0.0
C443 C 0.23829 0.782 0.14061 0.0
C444 C 0.22967 0.79063 0.15335 0.0
C445 C 0.22549 0.81199 0.1525 0.0
C446 C 0.23038 0.82472 0.13865 0.0
C447 C 0.23886 0.81588 0.12582 0.0
P448 P 0.19068 0.39084 0.08399 0.0
H449 H 0.20235 0.4345 0.06469 0.0
H450 H 0.17636 0.4538 0.05587 0.0
H451 H 0.11633 0.4059 0.08479 0.0
H452 H 0.14216 0.38609 0.09322 0.0
H453 H 0.20608 0.38828 0.05252 0.0
H454 H 0.24836 0.40636 0.04202 0.0
H455 H 0.28765 0.44278 0.08898 0.0
H456 H 0.24497 0.42509 0.09933 0.0
H457 H 0.18656 0.34761 0.10068 0.0
H458 H 0.19817 0.42506 0.11308 0.0
O459 O 0.17209 0.3609 0.07409 0.0
H460 H 0.18363 0.33948 0.12839 0.0
H461 H 0.19603 0.41742 0.14108 0.0
C462 C 0.17428 0.40892 0.07972 0.0
C463 C 0.18381 0.42839 0.06935 0.0
C464 C 0.16893 0.43954 0.06434 0.0
C465 C 0.14416 0.43132 0.06955 0.0
C466 C 0.13514 0.41243 0.08037 0.0
C467 C 0.15001 0.40127 0.08533 0.0
C468 C 0.2224 0.40495 0.07674 0.0
C469 C 0.2238 0.4001 0.06057 0.0
C470 C 0.24803 0.41038 0.0546 0.0
C471 C 0.2715 0.42576 0.06468 0.0
C472 C 0.26999 0.43111 0.08087 0.0
C473 C 0.24561 0.42086 0.08683 0.0
C474 C 0.19206 0.38673 0.1048 0.0
C475 C 0.1888 0.36302 0.10943 0.0
C476 C 0.18733 0.35848 0.12534 0.0
C477 C 0.18941 0.37772 0.13703 0.0
C478 C 0.19386 0.40198 0.13238 0.0
C479 C 0.19524 0.40645 0.1164 0.0
P480 P 0.45198 0.94283 0.25881 0.0
H481 H 0.4288 0.91194 0.28488 0.0
H482 H 0.38513 0.89287 0.2937 0.0
H483 H 0.35854 0.9164 0.25282 0.0
H484 H 0.40234 0.93539 0.24402 0.0
H485 H 0.50664 0.96655 0.27169 0.0
H486 H 0.53346 0.94833 0.28087 0.0
H487 H 0.46736 0.86965 0.26852 0.0
H488 H 0.44071 0.88819 0.25902 0.0
H489 H 0.46396 0.98756 0.2411 0.0
H490 H 0.44367 0.90663 0.23067 0.0
O491 O 0.46497 0.9726 0.26897 0.0
H492 H 0.46903 0.99404 0.21329 0.0
H493 H 0.4482 0.91281 0.20256 0.0
C494 C 0.41867 0.92439 0.26353 0.0
C495 C 0.41339 0.91228 0.27754 0.0
C496 C 0.38841 0.90145 0.28261 0.0
C497 C 0.36834 0.90306 0.27394 0.0
C498 C 0.37361 0.91492 0.25978 0.0
C499 C 0.39858 0.92555 0.25465 0.0
C500 C 0.4715 0.92873 0.26506 0.0
C501 C 0.49786 0.94538 0.271 0.0
C502 C 0.51317 0.93492 0.2763 0.0
C503 C 0.50247 0.90752 0.27567 0.0
C504 C 0.47623 0.89084 0.26917 0.0
C505 C 0.46091 0.90138 0.26384 0.0
C506 C 0.45379 0.9467 0.238 0.0
C507 C 0.46042 0.97109 0.2328 0.0
C508 C 0.46311 0.97472 0.21682 0.0
C509 C 0.45907 0.95396 0.20565 0.0
C510 C 0.45181 0.92931 0.21087 0.0
C511 C 0.4491 0.9257 0.22692 0.0
P512 P 0.14015 0.56868 0.24575 0.0
H513 H 0.14501 0.58451 0.2797 0.0
H514 H 0.13626 0.61587 0.29448 0.0
H515 H 0.10586 0.62914 0.25074 0.0
H516 H 0.11494 0.59815 0.23604 0.0
H517 H 0.17383 0.54621 0.25 0.0
H518 H 0.17045 0.51041 0.26426 0.0
H519 H 0.09554 0.49556 0.27802 0.0
H520 H 0.09977 0.5324 0.26429 0.0
H521 H 0.1525 0.57896 0.21332 0.0
H522 H 0.08446 0.53092 0.23676 0.0
O523 O 0.17153 0.58805 0.24299 0.0
H524 H 0.12515 0.56467 0.18793 0.0
H525 H 0.05692 0.51668 0.21137 0.0
C526 C 0.13015 0.5886 0.25682 0.0
C527 C 0.13591 0.59372 0.27334 0.0
C528 C 0.13084 0.61157 0.28178 0.0
C529 C 0.12032 0.62488 0.27375 0.0
C530 C 0.11407 0.61924 0.25722 0.0
C531 C 0.1191 0.60137 0.24882 0.0
C532 C 0.13719 0.54209 0.25624 0.0
C533 C 0.15676 0.53536 0.25616 0.0
C534 C 0.15465 0.51467 0.2642 0.0
C535 C 0.13266 0.5 0.27225 0.0
C536 C 0.11288 0.50665 0.27212 0.0
C537 C 0.11516 0.52756 0.26417 0.0
C538 C 0.12055 0.55574 0.22688 0.0
C539 C 0.13174 0.56507 0.21299 0.0
C540 C 0.11606 0.55706 0.1985 0.0
C541 C 0.0889 0.53965 0.1977 0.0
C542 C 0.07784 0.52988 0.21162 0.0
C543 C 0.09356 0.53798 0.22612 0.0
P544 P 0.45763 0.49783 0.26471 0.0
H545 H 0.47755 0.52991 0.29535 0.0
H546 H 0.50204 0.57768 0.30305 0.0
H547 H 0.50114 0.59066 0.25377 0.0
H548 H 0.47584 0.54312 0.24608 0.0
H549 H 0.41336 0.44463 0.25678 0.0
H550 H 0.36913 0.42198 0.26485 0.0
H551 H 0.38497 0.49412 0.29192 0.0
H552 H 0.42836 0.51677 0.28314 0.0
H553 H 0.49897 0.49749 0.24825 0.0
H554 H 0.42189 0.48582 0.23575 0.0
O555 O 0.47254 0.48521 0.27524 0.0
H556 H 0.5048 0.49394 0.22015 0.0
H557 H 0.42755 0.48208 0.20757 0.0
C558 C 0.47503 0.53292 0.27017 0.0
C559 C 0.48247 0.54304 0.28621 0.0
C560 C 0.49633 0.57022 0.2906 0.0
C561 C 0.50341 0.58761 0.27896 0.0
C562 C 0.49593 0.57751 0.26291 0.0
C563 C 0.48152 0.55034 0.25854 0.0
C564 C 0.42416 0.48241 0.26924 0.0
C565 C 0.40708 0.45564 0.26421 0.0
C566 C 0.38189 0.44266 0.26899 0.0
C567 C 0.37347 0.45614 0.27916 0.0
C568 C 0.39057 0.48315 0.28392 0.0
C569 C 0.41562 0.49615 0.27898 0.0
C570 C 0.45977 0.49126 0.24406 0.0
C571 C 0.48309 0.49361 0.23944 0.0
C572 C 0.48649 0.49184 0.22341 0.0
C573 C 0.46661 0.48773 0.2117 0.0
C574 C 0.44304 0.48492 0.21635 0.0
C575 C 0.43976 0.48696 0.23244 0.0
Eu576 Eu 0.48663 0.97148 0.98629 0.0
Eu577 Eu 0.50771 0.0077 0.0212 0.0
C578 C 0.47974 0.02105 0.99306 0.0
C579 C 0.47598 0.95618 0.94172 0.0
C580 C 0.47997 0.98116 0.93919 0.0
C581 C 0.48223 0.94929 0.91418 0.0
C582 C 0.48479 0.99002 0.92424 0.0
C583 C 0.47721 0.94035 0.92912 0.0
C584 C 0.486 0.97421 0.91155 0.0
C585 C 0.47142 0.94695 0.95755 0.0
O586 O 0.476 0.96749 0.02506 0.0
O587 O 0.45211 0.95595 0.00082 0.0
C588 C 0.45372 0.95362 0.01605 0.0
O589 O 0.49876 0.94931 0.00199 0.0
O590 O 0.49906 0.02663 0.04096 0.0
O591 O 0.53613 0.02762 0.04224 0.0
O592 O 0.52909 0.98518 0.01899 0.0
C593 C 0.51949 0.96082 0.01257 0.0
O594 O 0.5296 0.00084 0.98609 0.0
O595 O 0.53593 0.03387 0.00501 0.0
O596 O 0.48016 0.0179 0.00816 0.0
O597 O 0.49191 0.94999 0.96621 0.0
O598 O 0.45712 0.95342 0.96575 0.0
O599 O 0.48768 0.0093 0.98311 0.0
C600 C 0.5157 0.02297 0.06576 0.0
C601 C 0.50473 0.9961 0.06747 0.0
C602 C 0.51496 0.03195 0.09395 0.0
C603 C 0.49881 0.98719 0.08233 0.0
C604 C 0.52087 0.04082 0.07908 0.0
C605 C 0.50371 0.005 0.09576 0.0
C606 C 0.52015 0.03213 0.04997 0.0
C607 C 0.54345 0.02529 0.99285 0.0
H608 H 0.47948 0.9939 0.94879 0.0
H609 H 0.48283 0.93656 0.90462 0.0
H610 H 0.48794 0.00943 0.92267 0.0
H611 H 0.47434 0.9211 0.93085 0.0
H612 H 0.50048 0.98199 0.05728 0.0
H613 H 0.51863 0.04616 0.10396 0.0
H614 H 0.49043 0.96637 0.08331 0.0
H615 H 0.52905 0.06158 0.07793 0.0
Eu616 Eu 0.0095 0.50901 0.9861 0.0
Eu617 Eu 0.97655 0.49656 0.01721 0.0
C618 C 0.96009 0.45269 0.98767 0.0
C619 C 0.02962 0.51804 0.94378 0.0
C620 C 0.0105 0.49479 0.93453 0.0
C621 C 0.04043 0.54014 0.91995 0.0
C622 C 0.00664 0.49418 0.9181 0.0
C623 C 0.04446 0.54068 0.93636 0.0
C624 C 0.02163 0.51683 0.91065 0.0
C625 C 0.03486 0.51907 0.96106 0.0
O626 O 0.01422 0.4983 0.02549 0.0
O627 O 0.02397 0.48785 0.00137 0.0
C628 C 0.02693 0.48996 0.01696 0.0
O629 O 0.03632 0.54062 0.00558 0.0
O630 O 0.95666 0.47001 0.03469 0.0
O631 O 0.9577 0.50724 0.03522 0.0
O632 O 0.00508 0.54028 0.02025 0.0
C633 C 0.02924 0.5518 0.01654 0.0
O634 O 0.98283 0.52597 0.98329 0.0
O635 O 0.95055 0.49912 0.99787 0.0
O636 O 0.96434 0.45779 0.00315 0.0
O637 O 0.03274 0.53675 0.96989 0.0
O638 O 0.02536 0.49669 0.96705 0.0
O639 O 0.97131 0.47148 0.97853 0.0
C640 C 0.9639 0.49323 0.05946 0.0
C641 C 0.99097 0.51011 0.06329 0.0
C642 C 0.95975 0.4844 0.08689 0.0
C643 C 0.00242 0.51386 0.07875 0.0
C644 C 0.94827 0.48058 0.07133 0.0
C645 C 0.98701 0.50072 0.09066 0.0
C646 C 0.95279 0.48706 0.04283 0.0
C647 C 0.95878 0.51569 0.98717 0.0
H648 H 0.99864 0.47706 0.93995 0.0
H649 H 0.05243 0.5578 0.9145 0.0
H650 H 0.99183 0.47603 0.91121 0.0
H651 H 0.05935 0.55878 0.94326 0.0
H652 H 0.00335 0.51991 0.05421 0.0
H653 H 0.94747 0.47394 0.09584 0.0
H654 H 0.0234 0.52686 0.08136 0.0
H655 H 0.92738 0.46726 0.0685 0.0
Eu656 Eu 0.50176 0.49518 0.02167 0.0
Eu657 Eu 0.47633 0.50247 0.98811 0.0
C658 C 0.50696 0.54988 0.01616 0.0
C659 C 0.51402 0.48854 0.06535 0.0
C660 C 0.51597 0.51094 0.07372 0.0
C661 C 0.50025 0.46532 0.08861 0.0
C662 C 0.51023 0.51054 0.08944 0.0
C663 C 0.5062 0.4658 0.07296 0.0
C664 C 0.50223 0.48769 0.09707 0.0
C665 C 0.51952 0.48817 0.04867 0.0
O666 O 0.51212 0.5008 0.9824 0.0
O667 O 0.53558 0.51546 0.00698 0.0
C668 C 0.53444 0.51124 0.99148 0.0
O669 O 0.49559 0.46215 0.00391 0.0
O670 O 0.47937 0.5273 0.96954 0.0
O671 O 0.44677 0.48744 0.96753 0.0
O672 O 0.46115 0.45909 0.98836 0.0
C673 C 0.47525 0.44891 0.99323 0.0
O674 O 0.45851 0.47818 0.02343 0.0
O675 O 0.44871 0.5006 0.00575 0.0
O676 O 0.50393 0.54282 0.00087 0.0
O677 O 0.50104 0.46903 0.03881 0.0
O678 O 0.53044 0.51056 0.04264 0.0
O679 O 0.50064 0.53249 0.02632 0.0
C680 C 0.46718 0.50307 0.94458 0.0
C681 C 0.47967 0.48825 0.94303 0.0
C682 C 0.47332 0.51238 0.91729 0.0
C683 C 0.48918 0.48574 0.9288 0.0
C684 C 0.46387 0.51498 0.93161 0.0
C685 C 0.48643 0.49806 0.91583 0.0
C686 C 0.46013 0.50807 0.96018 0.0
C687 C 0.4431 0.48653 0.01779 0.0
H688 H 0.52191 0.52878 0.06816 0.0
H689 H 0.49376 0.44726 0.094 0.0
H690 H 0.51233 0.52824 0.09566 0.0
H691 H 0.50446 0.44826 0.06672 0.0
H692 H 0.48255 0.47902 0.95294 0.0
H693 H 0.47107 0.52223 0.90753 0.0
H694 H 0.49882 0.47425 0.92799 0.0
H695 H 0.45457 0.52676 0.93268 0.0
Eu696 Eu 0.14305 0.30795 0.3192 0.0
Eu697 Eu 0.16733 0.34105 0.35504 0.0
C698 C 0.14279 0.36112 0.32897 0.0
C699 C 0.13212 0.296 0.27451 0.0
C700 C 0.14276 0.32304 0.27347 0.0
C701 C 0.1344 0.28921 0.24629 0.0
C702 C 0.14914 0.33309 0.25892 0.0
C703 C 0.12794 0.27918 0.26084 0.0
C704 C 0.14516 0.31633 0.24514 0.0
C705 C 0.12702 0.28558 0.28996 0.0
O706 O 0.12384 0.31479 0.3553 0.0
O707 O 0.11505 0.28197 0.33557 0.0
C708 C 0.10911 0.29053 0.34847 0.0
O709 O 0.16938 0.2945 0.33025 0.0
O710 O 0.16554 0.3649 0.37515 0.0
O711 O 0.1955 0.35399 0.37615 0.0
O712 O 0.16463 0.30193 0.3562 0.0
C713 C 0.17152 0.29072 0.34517 0.0
O714 O 0.17955 0.34543 0.31589 0.0
O715 O 0.20181 0.3545 0.34067 0.0
O716 O 0.16255 0.36836 0.33984 0.0
O717 O 0.14724 0.28745 0.29824 0.0
O718 O 0.11339 0.29226 0.29865 0.0
O719 O 0.12855 0.33659 0.32254 0.0
C720 C 0.17725 0.3555 0.39974 0.0
C721 C 0.1581 0.32941 0.40111 0.0
C722 C 0.18328 0.36505 0.4284 0.0
C723 C 0.15141 0.32121 0.41604 0.0
C724 C 0.18983 0.37324 0.41345 0.0
C725 C 0.1639 0.33895 0.42989 0.0
C726 C 0.18394 0.36429 0.38405 0.0
C727 C 0.20148 0.35714 0.32543 0.0
H728 H 0.14637 0.33641 0.28395 0.0
H729 H 0.13147 0.27577 0.23601 0.0
H730 H 0.15709 0.354 0.25848 0.0
H731 H 0.12009 0.25832 0.26146 0.0
H732 H 0.14827 0.31542 0.39061 0.0
H733 H 0.19362 0.37912 0.4388 0.0
H734 H 0.13622 0.30108 0.41671 0.0
H735 H 0.20474 0.39342 0.4126 0.0
Eu736 Eu 0.66857 0.83439 0.31932 0.0
Eu737 Eu 0.63624 0.82203 0.35074 0.0
C738 C 0.61888 0.77835 0.32104 0.0
C739 C 0.68831 0.84364 0.27679 0.0
C740 C 0.67158 0.8199 0.26713 0.0
C741 C 0.69794 0.86677 0.25332 0.0
C742 C 0.66833 0.81959 0.25069 0.0
C743 C 0.70134 0.86705 0.26973 0.0
C744 C 0.68162 0.843 0.24362 0.0
C745 C 0.69341 0.84434 0.29406 0.0
O746 O 0.67334 0.82225 0.35862 0.0
O747 O 0.68316 0.81298 0.33417 0.0
C748 C 0.68604 0.81434 0.34973 0.0
O749 O 0.69624 0.8652 0.33887 0.0
O750 O 0.61765 0.79664 0.369 0.0
O751 O 0.61621 0.83246 0.36802 0.0
O752 O 0.66589 0.86551 0.35414 0.0
C753 C 0.6899 0.8765 0.35019 0.0
O754 O 0.64289 0.85252 0.31726 0.0
O755 O 0.6104 0.82506 0.33145 0.0
O756 O 0.62334 0.78319 0.33653 0.0
O757 O 0.69167 0.86212 0.30306 0.0
O758 O 0.68369 0.82185 0.29994 0.0
O759 O 0.62991 0.79722 0.31194 0.0
C760 C 0.62256 0.82091 0.39308 0.0
C761 C 0.64936 0.83871 0.39727 0.0
C762 C 0.61687 0.81526 0.42082 0.0
C763 C 0.6599 0.84462 0.41311 0.0
C764 C 0.60631 0.80935 0.40491 0.0
C765 C 0.64384 0.8328 0.42506 0.0
C766 C 0.61224 0.81322 0.3763 0.0
C767 C 0.61881 0.84217 0.32106 0.0
H768 H 0.66121 0.80151 0.27222 0.0
H769 H 0.70862 0.88505 0.24816 0.0
H770 H 0.65543 0.80104 0.2435 0.0
H771 H 0.71449 0.88555 0.27692 0.0
H772 H 0.66224 0.84757 0.38824 0.0
H773 H 0.60401 0.80598 0.42978 0.0
H774 H 0.68081 0.85781 0.41593 0.0
H775 H 0.5856 0.79545 0.40181 0.0
Eu776 Eu 0.1712 0.83847 0.35648 0.0
Eu777 Eu 0.14301 0.84055 0.32244 0.0
C778 C 0.17749 0.89178 0.34703 0.0
C779 C 0.18453 0.83433 0.40057 0.0
C780 C 0.19066 0.8575 0.41013 0.0
C781 C 0.16609 0.80923 0.42262 0.0
C782 C 0.1845 0.85649 0.42579 0.0
C783 C 0.1724 0.81025 0.40704 0.0
C784 C 0.17204 0.83231 0.43215 0.0
C785 C 0.19074 0.83483 0.38395 0.0
O786 O 0.17949 0.8403 0.31658 0.0
O787 O 0.2041 0.85598 0.34089 0.0
C788 C 0.20214 0.85096 0.32538 0.0
O789 O 0.16297 0.8034 0.33985 0.0
O790 O 0.13341 0.8616 0.30552 0.0
O791 O 0.12107 0.82058 0.29945 0.0
O792 O 0.12569 0.79816 0.32692 0.0
C793 C 0.14047 0.78844 0.33121 0.0
O794 O 0.12852 0.82233 0.35979 0.0
O795 O 0.11591 0.83994 0.34011 0.0
O796 O 0.17373 0.88199 0.33216 0.0
O797 O 0.17406 0.81456 0.37402 0.0
O798 O 0.19928 0.85696 0.37774 0.0
O799 O 0.17064 0.87632 0.35831 0.0
C800 C 0.13599 0.84775 0.27928 0.0
C801 C 0.16337 0.86163 0.27944 0.0
C802 C 0.13159 0.83827 0.25068 0.0
C803 C 0.1748 0.86354 0.26533 0.0
C804 C 0.12019 0.83648 0.26481 0.0
C805 C 0.15905 0.85136 0.25081 0.0
C806 C 0.12408 0.84206 0.29424 0.0
C807 C 0.1119 0.82855 0.35325 0.0
H808 H 0.20013 0.87641 0.40555 0.0
H809 H 0.15689 0.79038 0.42729 0.0
H810 H 0.1892 0.87458 0.43285 0.0
H811 H 0.16775 0.79212 0.40004 0.0
H812 H 0.17594 0.87021 0.29054 0.0
H813 H 0.11885 0.8283 0.23977 0.0
H814 H 0.19598 0.87402 0.26586 0.0
H815 H 0.09903 0.82535 0.2645 0.0
Eu816 Eu 0.81717 0.6464 0.65463 0.0
Eu817 Eu 0.8398 0.68107 0.69027 0.0
C818 C 0.8166 0.70013 0.66265 0.0
C819 C 0.80634 0.63328 0.61016 0.0
C820 C 0.82408 0.66006 0.60939 0.0
C821 C 0.79932 0.62623 0.58138 0.0
C822 C 0.82973 0.66979 0.59473 0.0
C823 C 0.79386 0.61646 0.59608 0.0
C824 C 0.81752 0.65296 0.58055 0.0
C825 C 0.80161 0.62291 0.62562 0.0
O826 O 0.79628 0.65449 0.68973 0.0
O827 O 0.78929 0.62087 0.67125 0.0
C828 C 0.78257 0.62975 0.68364 0.0
O829 O 0.84351 0.63383 0.66655 0.0
O830 O 0.83578 0.70396 0.71003 0.0
O831 O 0.86743 0.69548 0.7117 0.0
O832 O 0.8386 0.64271 0.69229 0.0
C833 C 0.84573 0.63109 0.68165 0.0
O834 O 0.85399 0.68358 0.6513 0.0
O835 O 0.87509 0.69518 0.67662 0.0
O836 O 0.83493 0.70778 0.67455 0.0
O837 O 0.82227 0.62595 0.63405 0.0
O838 O 0.78729 0.62885 0.63414 0.0
O839 O 0.80331 0.67564 0.65605 0.0
C840 C 0.84726 0.69487 0.73477 0.0
C841 C 0.83105 0.66788 0.73584 0.0
C842 C 0.84952 0.70369 0.76327 0.0
C843 C 0.82416 0.65883 0.75057 0.0
C844 C 0.85639 0.7127 0.74854 0.0
C845 C 0.83339 0.67663 0.76449 0.0
C846 C 0.85443 0.70439 0.71929 0.0
C847 C 0.87543 0.69647 0.66124 0.0
H848 H 0.83377 0.67341 0.62015 0.0
H849 H 0.78976 0.61276 0.57066 0.0
H850 H 0.84357 0.69052 0.59449 0.0
H851 H 0.78014 0.59573 0.59645 0.0
H852 H 0.82381 0.65382 0.72529 0.0
H853 H 0.85661 0.71797 0.7737 0.0
H854 H 0.81193 0.63787 0.75106 0.0
H855 H 0.86878 0.73361 0.74789 0.0
Eu856 Eu 0.33734 0.16871 0.64968 0.0
Eu857 Eu 0.30722 0.16045 0.68181 0.0
C858 C 0.2887 0.11389 0.65388 0.0
C859 C 0.35556 0.17453 0.60678 0.0
C860 C 0.36625 0.1638 0.59647 0.0
C861 C 0.33728 0.18549 0.58414 0.0
C862 C 0.36267 0.16404 0.58012 0.0
C863 C 0.34076 0.1851 0.60052 0.0
C864 C 0.34843 0.17519 0.57376 0.0
C865 C 0.36088 0.17518 0.62398 0.0
O866 O 0.34491 0.16192 0.6897 0.0
O867 O 0.35211 0.14839 0.66554 0.0
C868 C 0.3565 0.15223 0.68113 0.0
O869 O 0.36591 0.2013 0.66815 0.0
O870 O 0.28548 0.13459 0.69917 0.0
O871 O 0.2921 0.17422 0.70072 0.0
O872 O 0.3363 0.20393 0.68309 0.0
C873 C 0.36007 0.21411 0.67882 0.0
O874 O 0.31154 0.1866 0.64651 0.0
O875 O 0.28059 0.16252 0.66269 0.0
O876 O 0.29502 0.12061 0.6692 0.0
O877 O 0.36161 0.19437 0.63304 0.0
O878 O 0.34902 0.15274 0.62986 0.0
O879 O 0.29818 0.1316 0.64395 0.0
C880 C 0.29417 0.15687 0.72447 0.0
C881 C 0.32128 0.17052 0.72895 0.0
C882 C 0.28665 0.14731 0.75157 0.0
C883 C 0.33105 0.17242 0.74461 0.0
C884 C 0.27688 0.14541 0.73584 0.0
C885 C 0.31386 0.16057 0.75606 0.0
C886 C 0.28417 0.15295 0.70775 0.0
C887 C 0.2882 0.17787 0.65133 0.0
H888 H 0.37761 0.15543 0.60108 0.0
H889 H 0.32638 0.19439 0.57965 0.0
H890 H 0.37106 0.15547 0.57245 0.0
H891 H 0.33221 0.19339 0.60828 0.0
H892 H 0.3349 0.17936 0.72026 0.0
H893 H 0.27296 0.13783 0.76011 0.0
H894 H 0.35209 0.18314 0.74775 0.0
H895 H 0.25589 0.13458 0.7325 0.0
Eu896 Eu 0.83267 0.16804 0.68821 0.0
Eu897 Eu 0.80572 0.17292 0.65436 0.0
C898 C 0.83426 0.22111 0.68213 0.0
C899 C 0.84429 0.16264 0.73207 0.0
C900 C 0.86048 0.18379 0.74365 0.0
C901 C 0.81535 0.14062 0.75197 0.0
C902 C 0.85411 0.18344 0.75923 0.0
C903 C 0.82164 0.14103 0.73639 0.0
C904 C 0.8315 0.1618 0.76358 0.0
C905 C 0.85127 0.16326 0.71562 0.0
O906 O 0.84291 0.17399 0.64882 0.0
O907 O 0.86623 0.18932 0.67348 0.0
C908 C 0.86525 0.18516 0.65798 0.0
O909 O 0.82886 0.13573 0.67075 0.0
O910 O 0.80766 0.19627 0.63512 0.0
O911 O 0.77506 0.15659 0.63434 0.0
O912 O 0.79387 0.13022 0.65451 0.0
C913 C 0.80925 0.12165 0.65972 0.0
O914 O 0.78926 0.1488 0.6901 0.0
O915 O 0.77729 0.16905 0.67189 0.0
O916 O 0.83117 0.21395 0.66685 0.0
O917 O 0.83503 0.14332 0.70532 0.0
O918 O 0.86029 0.1857 0.70973 0.0
O919 O 0.82902 0.204 0.69237 0.0
C920 C 0.79339 0.17054 0.61058 0.0
C921 C 0.80554 0.15544 0.60875 0.0
C922 C 0.79675 0.17792 0.58287 0.0
C923 C 0.81334 0.15168 0.59412 0.0
C924 C 0.78889 0.18165 0.59756 0.0
C925 C 0.80924 0.16305 0.58103 0.0
C926 C 0.78777 0.17661 0.6264 0.0
C927 C 0.77273 0.15557 0.68416 0.0
H928 H 0.87806 0.20067 0.74066 0.0
H929 H 0.79802 0.12347 0.75496 0.0
H930 H 0.8668 0.20024 0.76782 0.0
H931 H 0.80875 0.12431 0.72779 0.0
H932 H 0.80958 0.14707 0.61876 0.0
H933 H 0.79319 0.18678 0.57298 0.0
H934 H 0.82332 0.14052 0.59318 0.0
H935 H 0.77979 0.1936 0.59883 0.0
C936 C 0.33343 0.84345 0.05544 0.0
C937 C 0.3229 0.85472 0.06553 0.0
C938 C 0.35339 0.85891 0.0463 0.0
C939 C 0.36291 0.8863 0.04717 0.0
C940 C 0.35172 0.89766 0.05691 0.0
C941 C 0.33195 0.88175 0.06607 0.0
C942 C 0.36504 0.84611 0.03624 0.0
C943 C 0.36119 0.92674 0.05802 0.0
C944 C 0.43327 0.93043 0.03919 0.0
C945 C 0.43027 0.93555 0.02355 0.0
C946 C 0.41153 0.91444 0.04695 0.0
C947 C 0.38602 0.90332 0.03893 0.0
C948 C 0.38276 0.90828 0.02312 0.0
C949 C 0.40497 0.92426 0.01557 0.0
C950 C 0.41592 0.90951 0.06377 0.0
C951 C 0.35582 0.89693 0.01426 0.0
H952 H 0.32675 0.82263 0.05515 0.0
H953 H 0.32369 0.89047 0.07375 0.0
H954 H 0.365 0.85105 0.0239 0.0
H955 H 0.38576 0.8538 0.04096 0.0
H956 H 0.35425 0.82434 0.03603 0.0
H957 H 0.34894 0.93208 0.06502 0.0
H958 H 0.3817 0.93808 0.06372 0.0
H959 H 0.36109 0.93291 0.04599 0.0
H960 H 0.45273 0.93897 0.04547 0.0
H961 H 0.40248 0.92826 0.00353 0.0
H962 H 0.40724 0.88807 0.06441 0.0
H963 H 0.40596 0.91649 0.07175 0.0
H964 H 0.43704 0.91958 0.0683 0.0
H965 H 0.34524 0.87514 0.01351 0.0
H966 H 0.35661 0.90272 0.00206 0.0
H967 H 0.3442 0.90369 0.0208 0.0
C968 C 0.13782 0.46774 0.06051 0.0
C969 C 0.12717 0.44119 0.06299 0.0
C970 C 0.12212 0.47686 0.05355 0.0
C971 C 0.09512 0.45901 0.04894 0.0
C972 C 0.08417 0.43231 0.05166 0.0
C973 C 0.1003 0.42374 0.05861 0.0
C974 C 0.13449 0.5055 0.05091 0.0
C975 C 0.05548 0.41265 0.04691 0.0
C976 C 0.04807 0.48452 0.04178 0.0
C977 C 0.04497 0.48277 0.02516 0.0
C978 C 0.0646 0.47723 0.0497 0.0
C979 C 0.07842 0.46798 0.0408 0.0
C980 C 0.07566 0.46649 0.02404 0.0
C981 C 0.05898 0.47389 0.01643 0.0
C982 C 0.06699 0.47909 0.06759 0.0
C983 C 0.09009 0.45677 0.01412 0.0
H984 H 0.15847 0.48143 0.06402 0.0
H985 H 0.09196 0.40311 0.06022 0.0
H986 H 0.13271 0.50722 0.03804 0.0
H987 H 0.12404 0.51444 0.0567 0.0
H988 H 0.15557 0.51701 0.0556 0.0
H989 H 0.04979 0.39283 0.05039 0.0
H990 H 0.04319 0.41956 0.05246 0.0
H991 H 0.05099 0.41084 0.03387 0.0
H992 H 0.0374 0.4914 0.04867 0.0
H993 H 0.0568 0.47252 0.0036 0.0
H994 H 0.08785 0.49155 0.07252 0.0
H995 H 0.05991 0.45925 0.07141 0.0
H996 H 0.05558 0.48747 0.07279 0.0
H997 H 0.11149 0.46882 0.01777 0.0
H998 H 0.0864 0.45749 0.00125 0.0
H999 H 0.08394 0.43617 0.01609 0.0
C1000 C 0.60714 0.69932 0.04771 0.0
C1001 C 0.59563 0.71505 0.04929 0.0
C1002 C 0.59186 0.67229 0.04265 0.0
C1003 C 0.56439 0.66069 0.03918 0.0
C1004 C 0.55259 0.67635 0.04092 0.0
C1005 C 0.56837 0.70337 0.0459 0.0
C1006 C 0.60514 0.65618 0.04089 0.0
C1007 C 0.52335 0.66464 0.03735 0.0
C1008 C 0.52966 0.59719 0.01139 0.0
C1009 C 0.51985 0.57819 0.02205 0.0
C1010 C 0.54383 0.62412 0.01681 0.0
C1011 C 0.54815 0.63227 0.03328 0.0
C1012 C 0.53767 0.61327 0.04409 0.0
C1013 C 0.52368 0.58642 0.03835 0.0
C1014 C 0.55477 0.64382 0.00493 0.0
C1015 C 0.54173 0.62129 0.06174 0.0
H1016 H 0.62813 0.70813 0.05054 0.0
H1017 H 0.55936 0.71546 0.04688 0.0
H1018 H 0.59682 0.63984 0.04841 0.0
H1019 H 0.60146 0.64721 0.02843 0.0
H1020 H 0.62666 0.66815 0.04424 0.0
H1021 H 0.51713 0.67932 0.0399 0.0
H1022 H 0.51721 0.65655 0.02467 0.0
H1023 H 0.5128 0.64805 0.04446 0.0
H1024 H 0.52682 0.59105 0.99878 0.0
H1025 H 0.51612 0.57189 0.04667 0.0
H1026 H 0.5765 0.65502 0.00703 0.0
H1027 H 0.54801 0.65825 0.00641 0.0
H1028 H 0.54888 0.63429 0.99249 0.0
H1029 H 0.56295 0.63156 0.06598 0.0
H1030 H 0.53128 0.60415 0.0685 0.0
H1031 H 0.53478 0.63532 0.06443 0.0
C1032 C 0.88963 0.30299 0.94959 0.0
C1033 C 0.86243 0.29008 0.9501 0.0
C1034 C 0.90546 0.32995 0.95474 0.0
C1035 C 0.89374 0.34433 0.96039 0.0
C1036 C 0.86619 0.33156 0.96048 0.0
C1037 C 0.85086 0.30451 0.95541 0.0
C1038 C 0.93479 0.34281 0.95465 0.0
C1039 C 0.85298 0.34633 0.96626 0.0
C1040 C 0.93522 0.40456 0.99011 0.0
C1041 C 0.94288 0.4251 0.98054 0.0
C1042 C 0.91927 0.37824 0.98367 0.0
C1043 C 0.91048 0.37226 0.96727 0.0
C1044 C 0.91791 0.39288 0.95754 0.0
C1045 C 0.93418 0.41909 0.96428 0.0
C1046 C 0.912 0.35679 0.99441 0.0
C1047 C 0.90868 0.38722 0.94002 0.0
H1048 H 0.89864 0.29181 0.94563 0.0
H1049 H 0.82979 0.2946 0.95564 0.0
H1050 H 0.94225 0.36045 0.94818 0.0
H1051 H 0.94448 0.34952 0.967 0.0
H1052 H 0.94067 0.32922 0.94906 0.0
H1053 H 0.83126 0.33398 0.96447 0.0
H1054 H 0.85916 0.35318 0.97909 0.0
H1055 H 0.85904 0.36404 0.95999 0.0
H1056 H 0.94196 0.40899 0.00268 0.0
H1057 H 0.93995 0.43487 0.95682 0.0
H1058 H 0.91888 0.3433 0.99014 0.0
H1059 H 0.89038 0.34489 0.99414 0.0
H1060 H 0.9206 0.36476 0.00689 0.0
H1061 H 0.9156 0.37479 0.93413 0.0
H1062 H 0.91583 0.40548 0.93415 0.0
H1063 H 0.88694 0.37599 0.93817 0.0
C1064 C 0.66513 0.53453 0.95434 0.0
C1065 C 0.67717 0.5588 0.94813 0.0
C1066 C 0.64133 0.52547 0.96096 0.0
C1067 C 0.6294 0.54117 0.96152 0.0
C1068 C 0.64126 0.56548 0.95504 0.0
C1069 C 0.66493 0.57396 0.94839 0.0
C1070 C 0.62909 0.49925 0.96753 0.0
C1071 C 0.62927 0.58288 0.95549 0.0
C1072 C 0.55733 0.51086 0.96771 0.0
C1073 C 0.55873 0.51818 0.98397 0.0
C1074 C 0.58011 0.51777 0.9603 0.0
C1075 C 0.60496 0.5326 0.96931 0.0
C1076 C 0.60651 0.53987 0.98574 0.0
C1077 C 0.5834 0.53249 0.99288 0.0
C1078 C 0.57754 0.50949 0.94277 0.0
C1079 C 0.63264 0.55583 0.99574 0.0
H1080 H 0.67436 0.52262 0.95402 0.0
H1081 H 0.6743 0.5929 0.94382 0.0
H1082 H 0.62811 0.50216 0.98044 0.0
H1083 H 0.6087 0.48638 0.96187 0.0
H1084 H 0.64027 0.48894 0.96562 0.0
H1085 H 0.64058 0.60089 0.94959 0.0
H1086 H 0.60888 0.57186 0.94959 0.0
H1087 H 0.62835 0.58888 0.96798 0.0
H1088 H 0.53839 0.49973 0.96069 0.0
H1089 H 0.58471 0.53829 0.00542 0.0
H1090 H 0.58906 0.49969 0.9405 0.0
H1091 H 0.58557 0.52713 0.93628 0.0
H1092 H 0.55683 0.49587 0.93782 0.0
H1093 H 0.6439 0.54544 0.99505 0.0
H1094 H 0.6305 0.55957 0.00839 0.0
H1095 H 0.64438 0.57504 0.99111 0.0
C1096 C 0.42686 0.107 0.95263 0.0
C1097 C 0.44746 0.13319 0.95431 0.0
C1098 C 0.42912 0.08796 0.96051 0.0
C1099 C 0.45269 0.09531 0.97006 0.0
C1100 C 0.47295 0.122 0.97248 0.0
C1101 C 0.47003 0.14064 0.96462 0.0
C1102 C 0.40694 0.05975 0.95787 0.0
C1103 C 0.49849 0.13059 0.98245 0.0
C1104 C 0.45967 0.04953 0.99674 0.0
C1105 C 0.4714 0.039 0.98711 0.0
C1106 C 0.45259 0.06729 0.99119 0.0
C1107 C 0.45771 0.07484 0.97577 0.0
C1108 C 0.46912 0.0639 0.96594 0.0
C1109 C 0.47569 0.04604 0.97169 0.0
C1110 C 0.4401 0.07831 0.00189 0.0
C1111 C 0.47512 0.07163 0.94945 0.0
H1112 H 0.40928 0.10128 0.94479 0.0
H1113 H 0.48613 0.16081 0.96581 0.0
H1114 H 0.41258 0.0479 0.95012 0.0
H1115 H 0.40289 0.05113 0.96927 0.0
H1116 H 0.38866 0.05797 0.95215 0.0
H1117 H 0.51108 0.15237 0.98449 0.0
H1118 H 0.49479 0.12281 0.9941 0.0
H1119 H 0.50945 0.12249 0.97638 0.0
H1120 H 0.45612 0.04402 0.00862 0.0
H1121 H 0.48476 0.03803 0.96417 0.0
H1122 H 0.42171 0.0755 0.99566 0.0
H1123 H 0.45346 0.09979 0.00496 0.0
H1124 H 0.43558 0.06891 0.01304 0.0
H1125 H 0.45706 0.06785 0.94226 0.0
H1126 H 0.48336 0.06072 0.94317 0.0
H1127 H 0.48942 0.09302 0.95015 0.0
C1128 C 0.69007 0.10671 0.97215 0.0
C1129 C 0.69273 0.11929 0.95839 0.0
C1130 C 0.66581 0.09331 0.97818 0.0
C1131 C 0.64364 0.09264 0.97037 0.0
C1132 C 0.64636 0.10615 0.95684 0.0
C1133 C 0.67086 0.11924 0.95097 0.0
C1134 C 0.66372 0.07909 0.99262 0.0
C1135 C 0.62319 0.10598 0.94823 0.0
C1136 C 0.57782 0.03323 0.97483 0.0
C1137 C 0.5686 0.04313 0.98675 0.0
C1138 C 0.60197 0.04928 0.96924 0.0
C1139 C 0.61731 0.07601 0.97563 0.0
C1140 C 0.60793 0.08636 0.9874 0.0
C1141 C 0.5837 0.06976 0.99287 0.0
C1142 C 0.61132 0.03743 0.95673 0.0
C1143 C 0.62368 0.11485 0.99437 0.0
H1144 H 0.70699 0.10714 0.97816 0.0
H1145 H 0.67267 0.12874 0.94028 0.0
H1146 H 0.65481 0.08533 0.00182 0.0
H1147 H 0.65069 0.05759 0.98936 0.0
H1148 H 0.68308 0.08276 0.99784 0.0
H1149 H 0.62904 0.11947 0.93885 0.0
H1150 H 0.60892 0.08577 0.94263 0.0
H1151 H 0.61296 0.1118 0.9567 0.0
H1152 H 0.56635 0.01271 0.96998 0.0
H1153 H 0.57669 0.07764 0.00202 0.0
H1154 H 0.62982 0.03866 0.9615 0.0
H1155 H 0.61559 0.04869 0.94631 0.0
H1156 H 0.5967 0.01648 0.95267 0.0
H1157 H 0.64246 0.11881 0.00069 0.0
H1158 H 0.61303 0.1202 0.0028 0.0
H1159 H 0.62859 0.12786 0.98477 0.0
C1160 C 0.85689 0.54752 0.94041 0.0
C1161 C 0.85696 0.56874 0.949 0.0
C1162 C 0.87301 0.53784 0.94589 0.0
C1163 C 0.8896 0.54967 0.9603 0.0
C1164 C 0.88968 0.57101 0.96905 0.0
C1165 C 0.87334 0.58022 0.96332 0.0
C1166 C 0.87237 0.51503 0.93624 0.0
C1167 C 0.90701 0.58412 0.98449 0.0
C1168 C 0.91476 0.51222 0.98336 0.0
C1169 C 0.9407 0.52344 0.97964 0.0
C1170 C 0.89774 0.5201 0.97685 0.0
C1171 C 0.90684 0.53974 0.96637 0.0
C1172 C 0.9328 0.55076 0.96229 0.0
C1173 C 0.9494 0.54246 0.96895 0.0
C1174 C 0.87016 0.50779 0.98144 0.0
C1175 C 0.94324 0.57177 0.95117 0.0
H1176 H 0.8445 0.5387 0.92926 0.0
H1177 H 0.8732 0.59631 0.97019 0.0
H1178 H 0.89215 0.52099 0.93273 0.0
H1179 H 0.86691 0.49847 0.9435 0.0
H1180 H 0.85823 0.50788 0.92536 0.0
H1181 H 0.90495 0.60066 0.98978 0.0
H1182 H 0.9021 0.56953 0.99315 0.0
H1183 H 0.92784 0.5918 0.98256 0.0
H1184 H 0.90776 0.49741 0.99153 0.0
H1185 H 0.96936 0.55122 0.96595 0.0
H1186 H 0.85578 0.49952 0.97067 0.0
H1187 H 0.86736 0.52305 0.98789 0.0
H1188 H 0.8657 0.49187 0.98911 0.0
H1189 H 0.93028 0.56481 0.93982 0.0
H1190 H 0.96345 0.57745 0.9486 0.0
H1191 H 0.94337 0.58957 0.95646 0.0
C1192 C 0.47204 0.33383 0.93833 0.0
C1193 C 0.45806 0.30884 0.94349 0.0
C1194 C 0.47278 0.35575 0.94639 0.0
C1195 C 0.45903 0.35256 0.95986 0.0
C1196 C 0.44413 0.32727 0.96482 0.0
C1197 C 0.4439 0.30569 0.95661 0.0
C1198 C 0.48888 0.38246 0.94074 0.0
C1199 C 0.42912 0.32314 0.9791 0.0
C1200 C 0.486 0.41312 0.98968 0.0
C1201 C 0.46955 0.42306 0.98559 0.0
C1202 C 0.48234 0.38981 0.98164 0.0
C1203 C 0.46164 0.37602 0.96928 0.0
C1204 C 0.4444 0.38541 0.96543 0.0
C1205 C 0.4486 0.40889 0.97362 0.0
C1206 C 0.50118 0.38042 0.98604 0.0
C1207 C 0.42199 0.37106 0.95238 0.0
H1208 H 0.4826 0.33629 0.92802 0.0
H1209 H 0.43325 0.28648 0.96075 0.0
H1210 H 0.47661 0.39152 0.9386 0.0
H1211 H 0.50506 0.39573 0.95005 0.0
H1212 H 0.49749 0.38138 0.92966 0.0
H1213 H 0.41683 0.30196 0.98063 0.0
H1214 H 0.44304 0.33334 0.98996 0.0
H1215 H 0.4163 0.33181 0.97801 0.0
H1216 H 0.50221 0.42389 0.99893 0.0
H1217 H 0.43575 0.41639 0.97041 0.0
H1218 H 0.51214 0.3808 0.97584 0.0
H1219 H 0.49027 0.35977 0.98881 0.0
H1220 H 0.51553 0.39277 0.99642 0.0
H1221 H 0.42983 0.37153 0.94081 0.0
H1222 H 0.40925 0.3799 0.95163 0.0
H1223 H 0.40982 0.35008 0.95431 0.0
C1224 C 0.1451 0.66271 0.07703 0.0
C1225 C 0.15336 0.68854 0.07377 0.0
C1226 C 0.12375 0.64109 0.06788 0.0
C1227 C 0.11021 0.64539 0.0552 0.0
C1228 C 0.1179 0.67142 0.05213 0.0
C1229 C 0.13943 0.6927 0.06144 0.0
C1230 C 0.11609 0.61362 0.07154 0.0
C1231 C 0.10388 0.67676 0.03874 0.0
C1232 C 0.07536 0.58935 0.02197 0.0
C1233 C 0.04942 0.57692 0.02573 0.0
C1234 C 0.09518 0.61199 0.03126 0.0
C1235 C 0.08895 0.62255 0.04464 0.0
C1236 C 0.0627 0.61056 0.04828 0.0
C1237 C 0.04323 0.58787 0.03878 0.0
C1238 C 0.12296 0.6242 0.027 0.0
C1239 C 0.05531 0.62131 0.06243 0.0
H1240 H 0.15548 0.65937 0.08671 0.0
H1241 H 0.14583 0.71258 0.05876 0.0
H1242 H 0.09507 0.60257 0.07344 0.0
H1243 H 0.11877 0.60279 0.06132 0.0
H1244 H 0.12791 0.61369 0.08223 0.0
H1245 H 0.1111 0.69811 0.03861 0.0
H1246 H 0.1067 0.66899 0.02723 0.0
H1247 H 0.0825 0.66643 0.03969 0.0
H1248 H 0.08036 0.58111 0.0119 0.0
H1249 H 0.02326 0.57841 0.04181 0.0
H1250 H 0.13565 0.62306 0.0367 0.0
H1251 H 0.13087 0.64534 0.02566 0.0
H1252 H 0.12436 0.61427 0.01583 0.0
H1253 H 0.06509 0.61968 0.0735 0.0
H1254 H 0.03381 0.61068 0.06308 0.0
H1255 H 0.0622 0.64251 0.06197 0.0
C1256 C 0.31818 0.46131 0.06315 0.0
C1257 C 0.29729 0.43573 0.05825 0.0
C1258 C 0.34239 0.47088 0.05693 0.0
C1259 C 0.3458 0.4545 0.04551 0.0
C1260 C 0.32483 0.42866 0.04056 0.0
C1261 C 0.30093 0.41959 0.04701 0.0
C1262 C 0.36431 0.49852 0.06255 0.0
C1263 C 0.32765 0.41052 0.02845 0.0
C1264 C 0.39957 0.48427 0.01817 0.0
C1265 C 0.41861 0.47938 0.02515 0.0
C1266 C 0.37599 0.47672 0.02482 0.0
C1267 C 0.37136 0.46412 0.03884 0.0
C1268 C 0.39073 0.45967 0.04613 0.0
C1269 C 0.41404 0.46727 0.03919 0.0
C1270 C 0.35578 0.48174 0.01665 0.0
C1271 C 0.38668 0.44646 0.06114 0.0
H1272 H 0.3155 0.47404 0.07169 0.0
H1273 H 0.28511 0.39964 0.04335 0.0
H1274 H 0.3817 0.49806 0.06777 0.0
H1275 H 0.37033 0.51022 0.05235 0.0
H1276 H 0.35858 0.50872 0.07154 0.0
H1277 H 0.30933 0.39116 0.02565 0.0
H1278 H 0.33313 0.41977 0.01732 0.0
H1279 H 0.34362 0.40715 0.03291 0.0
H1280 H 0.40289 0.49363 0.00734 0.0
H1281 H 0.42866 0.46357 0.04479 0.0
H1282 H 0.35055 0.49315 0.02507 0.0
H1283 H 0.3376 0.46273 0.01266 0.0
H1284 H 0.36277 0.49267 0.0062 0.0
H1285 H 0.38209 0.45717 0.07047 0.0
H1286 H 0.40415 0.44556 0.06575 0.0
H1287 H 0.36969 0.42611 0.05887 0.0
C1288 C 0.5876 0.8895 0.05342 0.0
C1289 C 0.60172 0.88309 0.04316 0.0
C1290 C 0.57291 0.90067 0.04802 0.0
C1291 C 0.57273 0.90594 0.03203 0.0
C1292 C 0.58676 0.89926 0.02157 0.0
C1293 C 0.60094 0.88769 0.02724 0.0
C1294 C 0.55789 0.90718 0.05946 0.0
C1295 C 0.58736 0.90499 0.00452 0.0
C1296 C 0.51992 0.91894 0.01497 0.0
C1297 C 0.53298 0.94651 0.01717 0.0
C1298 C 0.53262 0.90538 0.01972 0.0
C1299 C 0.55907 0.9198 0.02654 0.0
C1300 C 0.57246 0.94764 0.02848 0.0
C1301 C 0.55919 0.96064 0.0239 0.0
C1302 C 0.51763 0.87566 0.0177 0.0
C1303 C 0.60081 0.96373 0.03547 0.0
H1304 H 0.58794 0.8856 0.06568 0.0
H1305 H 0.61199 0.88283 0.01934 0.0
H1306 H 0.56604 0.92878 0.0612 0.0
H1307 H 0.53705 0.89804 0.05454 0.0
H1308 H 0.55873 0.90031 0.07121 0.0
H1309 H 0.59841 0.89768 0.99778 0.0
H1310 H 0.56712 0.89578 0.99851 0.0
H1311 H 0.59665 0.92654 0.00408 0.0
H1312 H 0.49963 0.90796 0.00983 0.0
H1313 H 0.56948 0.98198 0.02547 0.0
H1314 H 0.51685 0.8683 0.02944 0.0
H1315 H 0.52784 0.86811 0.01036 0.0
H1316 H 0.49727 0.86739 0.01203 0.0
H1317 H 0.60282 0.95948 0.04782 0.0
H1318 H 0.60867 0.98522 0.03557 0.0
H1319 H 0.61305 0.95824 0.0286 0.0
C1320 C 0.98301 0.20173 0.39291 0.0
C1321 C 0.98549 0.18131 0.39868 0.0
C1322 C 0.00158 0.21921 0.38368 0.0
C1323 C 0.02345 0.21656 0.38057 0.0
C1324 C 0.02594 0.19588 0.38638 0.0
C1325 C 0.00675 0.17832 0.39522 0.0
C1326 C 0.99798 0.24066 0.3774 0.0
C1327 C 0.04929 0.19277 0.38369 0.0
C1328 C 0.06543 0.24928 0.34778 0.0
C1329 C 0.08628 0.27217 0.35627 0.0
C1330 C 0.04432 0.23139 0.35542 0.0
C1331 C 0.04451 0.23619 0.372 0.0
C1332 C 0.06549 0.25933 0.38059 0.0
C1333 C 0.08588 0.2772 0.37258 0.0
C1334 C 0.02196 0.20724 0.34582 0.0
C1335 C 0.06686 0.26487 0.39834 0.0
H1336 H 0.96644 0.20388 0.39554 0.0
H1337 H 0.00873 0.16263 0.39983 0.0
H1338 H 0.01404 0.2602 0.3829 0.0
H1339 H 0.999 0.2401 0.36441 0.0
H1340 H 0.97896 0.23884 0.37987 0.0
H1341 H 0.04808 0.17542 0.38881 0.0
H1342 H 0.05089 0.19066 0.37081 0.0
H1343 H 0.06756 0.21067 0.38912 0.0
H1344 H 0.06558 0.2454 0.33515 0.0
H1345 H 0.10198 0.29478 0.37924 0.0
H1346 H 0.00302 0.20587 0.34792 0.0
H1347 H 0.02125 0.1893 0.34962 0.0
H1348 H 0.02383 0.20734 0.3329 0.0
H1349 H 0.04916 0.26534 0.40143 0.0
H1350 H 0.08448 0.28388 0.40323 0.0
H1351 H 0.06728 0.24886 0.40425 0.0
C1352 C 0.79675 0.79318 0.39445 0.0
C1353 C 0.78886 0.76631 0.39307 0.0
C1354 C 0.78064 0.80196 0.38765 0.0
C1355 C 0.75586 0.78342 0.37945 0.0
C1356 C 0.74765 0.7563 0.37814 0.0
C1357 C 0.7643 0.74811 0.38483 0.0
C1358 C 0.79018 0.83109 0.38917 0.0
C1359 C 0.7213 0.73587 0.36959 0.0
C1360 C 0.70344 0.80238 0.37343 0.0
C1361 C 0.70428 0.80702 0.35745 0.0
C1362 C 0.72024 0.79489 0.38078 0.0
C1363 C 0.73858 0.79232 0.37202 0.0
C1364 C 0.73987 0.79747 0.35598 0.0
C1365 C 0.72259 0.80456 0.34886 0.0
C1366 C 0.71802 0.78924 0.39785 0.0
C1367 C 0.75941 0.79533 0.34629 0.0
H1368 H 0.81547 0.80741 0.40096 0.0
H1369 H 0.75815 0.72738 0.38338 0.0
H1370 H 0.79069 0.83769 0.37722 0.0
H1371 H 0.77641 0.83513 0.39538 0.0
H1372 H 0.81005 0.84299 0.39577 0.0
H1373 H 0.71745 0.71549 0.37011 0.0
H1374 H 0.70546 0.73761 0.37486 0.0
H1375 H 0.72028 0.73928 0.35696 0.0
H1376 H 0.68931 0.80416 0.38015 0.0
H1377 H 0.72355 0.80834 0.33655 0.0
H1378 H 0.7372 0.80184 0.40507 0.0
H1379 H 0.71262 0.76847 0.39864 0.0
H1380 H 0.70311 0.79268 0.40311 0.0
H1381 H 0.77957 0.8081 0.35233 0.0
H1382 H 0.75865 0.80105 0.33418 0.0
H1383 H 0.75553 0.77481 0.34525 0.0
C1384 C 0.24072 0.04724 0.36979 0.0
C1385 C 0.26797 0.05919 0.37336 0.0
C1386 C 0.2252 0.02014 0.36501 0.0
C1387 C 0.23722 0.0046 0.36382 0.0
C1388 C 0.26475 0.01657 0.3672 0.0
C1389 C 0.2798 0.04374 0.37193 0.0
C1390 C 0.1959 0.00805 0.36153 0.0
C1391 C 0.27826 0.00063 0.366 0.0
C1392 C 0.1965 0.93144 0.36714 0.0
C1393 C 0.19146 0.92067 0.35123 0.0
C1394 C 0.21112 0.95875 0.37138 0.0
C1395 C 0.22094 0.9757 0.35942 0.0
C1396 C 0.21555 0.96501 0.34332 0.0
C1397 C 0.20086 0.93762 0.33941 0.0
C1398 C 0.21642 0.96945 0.38868 0.0
C1399 C 0.22568 0.9825 0.33025 0.0
H1400 H 0.2314 0.05899 0.3711 0.0
H1401 H 0.30088 0.05293 0.37449 0.0
H1402 H 0.18921 0.99729 0.34941 0.0
H1403 H 0.18578 0.99351 0.36994 0.0
H1404 H 0.18972 0.02301 0.36246 0.0
H1405 H 0.29988 0.01302 0.3687 0.0
H1406 H 0.27085 0.98549 0.37437 0.0
H1407 H 0.27372 0.9901 0.35389 0.0
H1408 H 0.18932 0.91852 0.37635 0.0
H1409 H 0.19708 0.92949 0.32708 0.0
H1410 H 0.20929 0.98353 0.39056 0.0
H1411 H 0.23784 0.98043 0.39236 0.0
H1412 H 0.20684 0.95366 0.39649 0.0
H1413 H 0.21885 0.99694 0.33075 0.0
H1414 H 0.21918 0.97112 0.31829 0.0
H1415 H 0.24742 0.99387 0.33191 0.0
C1416 C 0.50996 0.62896 0.29349 0.0
C1417 C 0.51928 0.61627 0.28358 0.0
C1418 C 0.5254 0.65599 0.29854 0.0
C1419 C 0.55098 0.67037 0.2939 0.0
C1420 C 0.56031 0.65761 0.28371 0.0
C1421 C 0.54416 0.6307 0.2785 0.0
C1422 C 0.51455 0.66904 0.3091 0.0
C1423 C 0.58769 0.6721 0.27883 0.0
C1424 C 0.5872 0.74522 0.29902 0.0
C1425 C 0.60173 0.75092 0.31385 0.0
C1426 C 0.57033 0.71904 0.2924 0.0
C1427 C 0.56862 0.69824 0.30063 0.0
C1428 C 0.58371 0.70399 0.31545 0.0
C1429 C 0.5998 0.73025 0.32197 0.0
C1430 C 0.55406 0.71361 0.27676 0.0
C1431 C 0.58295 0.68239 0.32441 0.0
H1432 H 0.4906 0.61767 0.29729 0.0
H1433 H 0.55131 0.62069 0.2709 0.0
H1434 H 0.52575 0.67535 0.32104 0.0
H1435 H 0.51678 0.68696 0.30424 0.0
H1436 H 0.49352 0.6557 0.31039 0.0
H1437 H 0.59153 0.65958 0.27033 0.0
H1438 H 0.59093 0.68984 0.27332 0.0
H1439 H 0.60222 0.67889 0.28948 0.0
H1440 H 0.58857 0.76122 0.29278 0.0
H1441 H 0.61125 0.73463 0.33337 0.0
H1442 H 0.53293 0.70146 0.27823 0.0
H1443 H 0.55862 0.70218 0.26792 0.0
H1444 H 0.55747 0.73198 0.27195 0.0
H1445 H 0.56286 0.66954 0.32757 0.0
H1446 H 0.59673 0.69026 0.33547 0.0
H1447 H 0.588 0.66988 0.3168 0.0
C1448 C 0.32998 0.86983 0.28662 0.0
C1449 C 0.34262 0.89391 0.28022 0.0
C1450 C 0.3065 0.86177 0.29346 0.0
C1451 C 0.29551 0.87832 0.29408 0.0
C1452 C 0.30794 0.90243 0.28741 0.0
C1453 C 0.33127 0.90989 0.28051 0.0
C1454 C 0.29357 0.83568 0.30017 0.0
C1455 C 0.29696 0.92071 0.28791 0.0
C1456 C 0.22398 0.85014 0.30116 0.0
C1457 C 0.22603 0.85749 0.31748 0.0
C1458 C 0.24635 0.85645 0.29342 0.0
C1459 C 0.27147 0.8708 0.30215 0.0
C1460 C 0.2737 0.87829 0.31862 0.0
C1461 C 0.25098 0.87145 0.32609 0.0
C1462 C 0.24303 0.84801 0.27586 0.0
C1463 C 0.30015 0.89379 0.32832 0.0
H1464 H 0.33851 0.85727 0.28627 0.0
H1465 H 0.3411 0.92867 0.27578 0.0
H1466 H 0.29297 0.83892 0.3131 0.0
H1467 H 0.273 0.82335 0.29466 0.0
H1468 H 0.30402 0.82464 0.29819 0.0
H1469 H 0.30864 0.93847 0.28188 0.0
H1470 H 0.27647 0.91024 0.28219 0.0
H1471 H 0.29656 0.9271 0.30042 0.0
H1472 H 0.20483 0.8394 0.29434 0.0
H1473 H 0.25282 0.87734 0.33867 0.0
H1474 H 0.25472 0.83851 0.27324 0.0
H1475 H 0.25032 0.86555 0.26931 0.0
H1476 H 0.22221 0.83408 0.27128 0.0
H1477 H 0.31073 0.8827 0.32761 0.0
H1478 H 0.29855 0.8981 0.341 0.0
H1479 H 0.31225 0.91269 0.32345 0.0
C1480 C 0.12115 0.47433 0.29576 0.0
C1481 C 0.13069 0.47812 0.28089 0.0
C1482 C 0.12062 0.45463 0.30438 0.0
C1483 C 0.13019 0.43863 0.29805 0.0
C1484 C 0.13928 0.44194 0.2829 0.0
C1485 C 0.1392 0.46148 0.27446 0.0
C1486 C 0.11045 0.45137 0.32041 0.0
C1487 C 0.14973 0.4253 0.27578 0.0
C1488 C 0.15778 0.40789 0.32518 0.0
C1489 C 0.13813 0.38129 0.32262 0.0
C1490 C 0.15505 0.42693 0.31764 0.0
C1491 C 0.13195 0.4192 0.30749 0.0
C1492 C 0.11147 0.39261 0.3055 0.0
C1493 C 0.11489 0.3739 0.31299 0.0
C1494 C 0.17745 0.45507 0.31991 0.0
C1495 C 0.08636 0.38375 0.29499 0.0
H1496 H 0.11476 0.48722 0.3009 0.0
H1497 H 0.14604 0.46387 0.26282 0.0
H1498 H 0.09544 0.4305 0.32102 0.0
H1499 H 0.1267 0.45671 0.32979 0.0
H1500 H 0.10169 0.46387 0.32305 0.0
H1501 H 0.1556 0.43004 0.26373 0.0
H1502 H 0.16703 0.42836 0.28352 0.0
H1503 H 0.1347 0.40412 0.27501 0.0
H1504 H 0.17583 0.41373 0.33255 0.0
H1505 H 0.09955 0.35338 0.31106 0.0
H1506 H 0.17036 0.46861 0.32361 0.0
H1507 H 0.18573 0.4606 0.3085 0.0
H1508 H 0.19341 0.45813 0.32892 0.0
H1509 H 0.07815 0.39659 0.29802 0.0
H1510 H 0.07133 0.36303 0.29603 0.0
H1511 H 0.09046 0.38546 0.28244 0.0
C1512 C 0.33796 0.41636 0.28956 0.0
C1513 C 0.34747 0.44192 0.28534 0.0
C1514 C 0.31394 0.40299 0.2959 0.0
C1515 C 0.2992 0.41559 0.2983 0.0
C1516 C 0.30859 0.44133 0.29405 0.0
C1517 C 0.3325 0.45411 0.28752 0.0
C1518 C 0.30445 0.37543 0.30013 0.0
C1519 C 0.29346 0.45544 0.29652 0.0
C1520 C 0.22673 0.37206 0.30208 0.0
C1521 C 0.22637 0.37319 0.3186 0.0
C1522 C 0.25024 0.38603 0.29531 0.0
C1523 C 0.27396 0.40174 0.3053 0.0
C1524 C 0.27368 0.4035 0.32197 0.0
C1525 C 0.2499 0.38907 0.32843 0.0
C1526 C 0.24974 0.38342 0.27748 0.0
C1527 C 0.29856 0.42036 0.33299 0.0
H1528 H 0.34953 0.40692 0.28822 0.0
H1529 H 0.33945 0.47368 0.28408 0.0
H1530 H 0.30266 0.37495 0.31303 0.0
H1531 H 0.28468 0.36171 0.29383 0.0
H1532 H 0.31784 0.36811 0.29707 0.0
H1533 H 0.30358 0.47553 0.29275 0.0
H1534 H 0.27372 0.444 0.28975 0.0
H1535 H 0.29057 0.45703 0.30923 0.0
H1536 H 0.20868 0.35978 0.29436 0.0
H1537 H 0.24978 0.39017 0.3412 0.0
H1538 H 0.26152 0.37441 0.27398 0.0
H1539 H 0.25875 0.40313 0.27322 0.0
H1540 H 0.22952 0.37113 0.27137 0.0
H1541 H 0.31228 0.41288 0.33158 0.0
H1542 H 0.29484 0.42062 0.34562 0.0
H1543 H 0.3085 0.44087 0.3299 0.0
C1544 C 0.53511 0.90838 0.2963 0.0
C1545 C 0.51864 0.89661 0.28203 0.0
C1546 C 0.55094 0.89882 0.30237 0.0
C1547 C 0.55028 0.87686 0.29402 0.0
C1548 C 0.53351 0.86469 0.2797 0.0
C1549 C 0.51788 0.8747 0.27388 0.0
C1550 C 0.56845 0.9123 0.31772 0.0
C1551 C 0.53228 0.84125 0.27045 0.0
C1552 C 0.60961 0.86891 0.30273 0.0
C1553 C 0.60091 0.85024 0.31364 0.0
C1554 C 0.59317 0.87735 0.29602 0.0
C1555 C 0.56736 0.86687 0.30029 0.0
C1556 C 0.55828 0.84767 0.31105 0.0
C1557 C 0.57514 0.8396 0.3176 0.0
C1558 C 0.60359 0.89786 0.28458 0.0
C1559 C 0.53088 0.83599 0.31588 0.0
H1560 H 0.53548 0.92503 0.30282 0.0
H1561 H 0.5054 0.86564 0.26278 0.0
H1562 H 0.56356 0.89802 0.32657 0.0
H1563 H 0.58922 0.91973 0.31573 0.0
H1564 H 0.56658 0.92908 0.3228 0.0
H1565 H 0.51786 0.83371 0.25969 0.0
H1566 H 0.55186 0.84671 0.26679 0.0
H1567 H 0.52688 0.82511 0.27805 0.0
H1568 H 0.62943 0.87721 0.29954 0.0
H1569 H 0.56815 0.8251 0.32596 0.0
H1570 H 0.60392 0.9159 0.2896 0.0
H1571 H 0.5905 0.89055 0.27327 0.0
H1572 H 0.62372 0.90324 0.28198 0.0
H1573 H 0.52843 0.85168 0.32206 0.0
H1574 H 0.52644 0.82047 0.32386 0.0
H1575 H 0.51627 0.82736 0.30522 0.0
C1576 C 0.12796 0.67057 0.27625 0.0
C1577 C 0.11823 0.64633 0.28237 0.0
C1578 C 0.12853 0.692 0.28481 0.0
C1579 C 0.11902 0.68909 0.29984 0.0
C1580 C 0.1082 0.66439 0.30583 0.0
C1581 C 0.10809 0.64328 0.29705 0.0
C1582 C 0.14045 0.71811 0.27807 0.0
C1583 C 0.09756 0.66052 0.32172 0.0
C1584 C 0.1512 0.75276 0.3272 0.0
C1585 C 0.13324 0.76147 0.32483 0.0
C1586 C 0.1462 0.72858 0.3197 0.0
C1587 C 0.12253 0.71259 0.3097 0.0
C1588 C 0.10363 0.72053 0.30798 0.0
C1589 C 0.10927 0.74499 0.31552 0.0
C1590 C 0.16692 0.72086 0.32177 0.0
C1591 C 0.07802 0.70378 0.29759 0.0
H1592 H 0.13616 0.67311 0.26501 0.0
H1593 H 0.10034 0.62447 0.30173 0.0
H1594 H 0.12664 0.72567 0.27787 0.0
H1595 H 0.15849 0.73279 0.28573 0.0
H1596 H 0.1456 0.71667 0.26584 0.0
H1597 H 0.08735 0.63951 0.32391 0.0
H1598 H 0.11387 0.67199 0.33129 0.0
H1599 H 0.0837 0.66795 0.3225 0.0
H1600 H 0.16972 0.76529 0.33444 0.0
H1601 H 0.09519 0.75148 0.31374 0.0
H1602 H 0.17502 0.7209 0.31034 0.0
H1603 H 0.15824 0.70063 0.32522 0.0
H1604 H 0.18333 0.73449 0.33088 0.0
H1605 H 0.08178 0.70393 0.28497 0.0
H1606 H 0.0641 0.71101 0.29914 0.0
H1607 H 0.06864 0.68304 0.30024 0.0
C1608 C 0.80442 0.01665 0.39272 0.0
C1609 C 0.81634 0.01308 0.40638 0.0
C1610 C 0.78258 0.99529 0.3837 0.0
C1611 C 0.7726 0.9697 0.38833 0.0
C1612 C 0.78416 0.96602 0.40226 0.0
C1613 C 0.80578 0.98775 0.41116 0.0
C1614 C 0.77064 1e-05 0.36897 0.0
C1615 C 0.77412 0.93899 0.40755 0.0
C1616 C 0.70474 0.91429 0.37139 0.0
C1617 C 0.71075 0.90122 0.35941 0.0
C1618 C 0.72462 0.93693 0.38073 0.0
C1619 C 0.75111 0.94655 0.37811 0.0
C1620 C 0.75726 0.93364 0.36591 0.0
C1621 C 0.73702 0.91123 0.35668 0.0
C1622 C 0.71733 0.95033 0.39355 0.0
C1623 C 0.78529 0.94318 0.36282 0.0
H1624 H 0.81258 0.03606 0.38882 0.0
H1625 H 0.81452 0.98487 0.42185 0.0
H1626 H 0.7736 0.99024 0.35833 0.0
H1627 H 0.74919 0.99126 0.36923 0.0
H1628 H 0.77939 0.0213 0.36768 0.0
H1629 H 0.78465 0.93961 0.41899 0.0
H1630 H 0.7529 0.9297 0.40887 0.0
H1631 H 0.77644 0.92617 0.39841 0.0
H1632 H 0.6845 0.90672 0.37359 0.0
H1633 H 0.74191 0.90126 0.3475 0.0
H1634 H 0.72561 0.97143 0.39193 0.0
H1635 H 0.72588 0.94949 0.40533 0.0
H1636 H 0.69577 0.94109 0.39361 0.0
H1637 H 0.79487 0.96398 0.36029 0.0
H1638 H 0.78672 0.93119 0.3527 0.0
H1639 H 0.79648 0.94246 0.37355 0.0
C1640 C 0.98485 0.80123 0.39712 0.0
C1641 C 0.96518 0.77484 0.39296 0.0
C1642 C 0.00928 0.81154 0.39111 0.0
C1643 C 0.01417 0.7951 0.38066 0.0
C1644 C 0.99444 0.76845 0.37646 0.0
C1645 C 0.97028 0.75867 0.38268 0.0
C1646 C 0.02984 0.84004 0.39588 0.0
C1647 C 0.99887 0.75021 0.36542 0.0
C1648 C 0.06741 0.82422 0.35297 0.0
C1649 C 0.08747 0.82153 0.36067 0.0
C1650 C 0.0437 0.8163 0.35952 0.0
C1651 C 0.03995 0.80552 0.37417 0.0
C1652 C 0.06039 0.80344 0.38222 0.0
C1653 C 0.08383 0.81139 0.37537 0.0
C1654 C 0.02237 0.8188 0.35056 0.0
C1655 C 0.05727 0.79221 0.39791 0.0
H1656 H 0.98102 0.81395 0.40493 0.0
H1657 H 0.95542 0.73814 0.37961 0.0
H1658 H 0.04788 0.84143 0.40165 0.0
H1659 H 0.03523 0.85063 0.38521 0.0
H1660 H 0.02305 0.85018 0.40418 0.0
H1661 H 0.98141 0.73011 0.36316 0.0
H1662 H 0.00383 0.75828 0.3539 0.0
H1663 H 0.01571 0.74872 0.37053 0.0
H1664 H 0.06998 0.83204 0.34163 0.0
H1665 H 0.09923 0.80939 0.38151 0.0
H1666 H 0.01598 0.82998 0.35829 0.0
H1667 H 0.00504 0.79896 0.34699 0.0
H1668 H 0.02883 0.82884 0.33975 0.0
H1669 H 0.05152 0.80291 0.4065 0.0
H1670 H 0.07554 0.79334 0.40309 0.0
H1671 H 0.04137 0.77129 0.39629 0.0
C1672 C 0.23448 0.20369 0.37125 0.0
C1673 C 0.26108 0.22081 0.37658 0.0
C1674 C 0.21852 0.21335 0.36558 0.0
C1675 C 0.22943 0.24077 0.36523 0.0
C1676 C 0.25631 0.25813 0.37044 0.0
C1677 C 0.27182 0.24794 0.37605 0.0
C1678 C 0.18996 0.19424 0.36005 0.0
C1679 C 0.26862 0.28753 0.37029 0.0
C1680 C 0.19592 0.26726 0.33889 0.0
C1681 C 0.18408 0.27555 0.34992 0.0
C1682 C 0.21023 0.2553 0.34363 0.0
C1683 C 0.21266 0.25147 0.35976 0.0
C1684 C 0.19997 0.25891 0.37083 0.0
C1685 C 0.18585 0.27088 0.36578 0.0
C1686 C 0.22348 0.24758 0.33149 0.0
C1687 C 0.20198 0.25499 0.38812 0.0
H1688 H 0.22618 0.18267 0.37142 0.0
H1689 H 0.29229 0.26127 0.38031 0.0
H1690 H 0.17745 0.19871 0.36734 0.0
H1691 H 0.18537 0.19639 0.34759 0.0
H1692 H 0.18463 0.17346 0.36084 0.0
H1693 H 0.28994 0.29827 0.37439 0.0
H1694 H 0.26583 0.2921 0.35813 0.0
H1695 H 0.25884 0.29503 0.37807 0.0
H1696 H 0.19467 0.2708 0.32661 0.0
H1697 H 0.17667 0.27709 0.37438 0.0
H1698 H 0.2179 0.22666 0.33174 0.0
H1699 H 0.24507 0.25959 0.33442 0.0
H1700 H 0.21838 0.25042 0.31928 0.0
H1701 H 0.19569 0.2341 0.38931 0.0
H1702 H 0.18984 0.26059 0.39504 0.0
H1703 H 0.22269 0.26703 0.39341 0.0
C1704 C 0.6581 0.53901 0.72886 0.0
C1705 C 0.6627 0.52104 0.73644 0.0
C1706 C 0.67631 0.5565 0.71946 0.0
C1707 C 0.69985 0.55628 0.71777 0.0
C1708 C 0.70458 0.53816 0.72531 0.0
C1709 C 0.68588 0.52065 0.73442 0.0
C1710 C 0.67051 0.57542 0.71149 0.0
C1711 C 0.72957 0.53749 0.72394 0.0
C1712 C 0.74085 0.58688 0.6842 0.0
C1713 C 0.76032 0.6114 0.69187 0.0
C1714 C 0.72051 0.56901 0.69235 0.0
C1715 C 0.72006 0.57564 0.70862 0.0
C1716 C 0.73964 0.60043 0.71638 0.0
C1717 C 0.75932 0.61809 0.70787 0.0
C1718 C 0.69975 0.5429 0.68363 0.0
C1719 C 0.74027 0.60804 0.7338 0.0
H1720 H 0.64043 0.53971 0.73045 0.0
H1721 H 0.68941 0.50648 0.7399 0.0
H1722 H 0.68525 0.59596 0.71629 0.0
H1723 H 0.67197 0.57344 0.69858 0.0
H1724 H 0.65068 0.57211 0.71324 0.0
H1725 H 0.73022 0.52214 0.73051 0.0
H1726 H 0.73159 0.53366 0.7113 0.0
H1727 H 0.74674 0.5569 0.72863 0.0
H1728 H 0.7415 0.58165 0.67183 0.0
H1729 H 0.77446 0.6369 0.71394 0.0
H1730 H 0.67997 0.53997 0.68497 0.0
H1731 H 0.70077 0.52665 0.68883 0.0
H1732 H 0.70199 0.54139 0.67079 0.0
H1733 H 0.72157 0.60699 0.73615 0.0
H1734 H 0.75669 0.62822 0.738 0.0
H1735 H 0.74237 0.59397 0.7409 0.0
C1736 C 0.47103 0.13132 0.72008 0.0
C1737 C 0.46043 0.10824 0.72756 0.0
C1738 C 0.45481 0.13978 0.71304 0.0
C1739 C 0.4273 0.12456 0.71325 0.0
C1740 C 0.41654 0.10142 0.72097 0.0
C1741 C 0.43323 0.09363 0.7281 0.0
C1742 C 0.46708 0.16479 0.70516 0.0
C1743 C 0.38731 0.08447 0.7213 0.0
C1744 C 0.38431 0.15456 0.70534 0.0
C1745 C 0.37498 0.14555 0.68927 0.0
C1746 C 0.40166 0.14825 0.71324 0.0
C1747 C 0.40965 0.13227 0.70494 0.0
C1748 C 0.40031 0.12313 0.68871 0.0
C1749 C 0.38325 0.13002 0.68106 0.0
C1750 C 0.41138 0.15863 0.73049 0.0
C1751 C 0.40807 0.10575 0.67949 0.0
H1752 H 0.49206 0.14276 0.71974 0.0
H1753 H 0.4249 0.07558 0.73366 0.0
H1754 H 0.46037 0.16021 0.69228 0.0
H1755 H 0.46072 0.17837 0.71008 0.0
H1756 H 0.48884 0.17511 0.70675 0.0
H1757 H 0.38211 0.06745 0.72815 0.0
H1758 H 0.37932 0.09633 0.72663 0.0
H1759 H 0.37751 0.0769 0.70902 0.0
H1760 H 0.37817 0.16671 0.71178 0.0
H1761 H 0.37606 0.12288 0.66866 0.0
H1762 H 0.43312 0.17014 0.73206 0.0
H1763 H 0.40524 0.14199 0.73775 0.0
H1764 H 0.40384 0.17136 0.73514 0.0
H1765 H 0.4297 0.11592 0.67965 0.0
H1766 H 0.39914 0.10032 0.66695 0.0
H1767 H 0.40192 0.08744 0.68515 0.0
C1768 C 0.93434 0.37047 0.71211 0.0
C1769 C 0.92309 0.38606 0.71542 0.0
C1770 C 0.91864 0.34356 0.70682 0.0
C1771 C 0.89102 0.33197 0.70481 0.0
C1772 C 0.87952 0.34755 0.70818 0.0
C1773 C 0.89571 0.37444 0.71344 0.0
C1774 C 0.93161 0.32753 0.70337 0.0
C1775 C 0.85015 0.33586 0.70614 0.0
C1776 C 0.85394 0.26827 0.67723 0.0
C1777 C 0.84628 0.24937 0.68797 0.0
C1778 C 0.86787 0.29526 0.68257 0.0
C1779 C 0.87427 0.30353 0.69904 0.0
C1780 C 0.86576 0.2846 0.70997 0.0
C1781 C 0.85186 0.25773 0.7043 0.0
C1782 C 0.87656 0.31491 0.67056 0.0
C1783 C 0.87212 0.2927 0.72763 0.0
H1784 H 0.95546 0.37928 0.71382 0.0
H1785 H 0.88692 0.38647 0.71578 0.0
H1786 H 0.92465 0.31114 0.71087 0.0
H1787 H 0.9261 0.31864 0.69083 0.0
H1788 H 0.95332 0.33953 0.70558 0.0
H1789 H 0.8443 0.35059 0.70952 0.0
H1790 H 0.84235 0.32763 0.6936 0.0
H1791 H 0.84077 0.31938 0.71348 0.0
H1792 H 0.84967 0.26204 0.66459 0.0
H1793 H 0.84598 0.24329 0.7127 0.0
H1794 H 0.89828 0.326 0.67131 0.0
H1795 H 0.87019 0.32943 0.67319 0.0
H1796 H 0.86861 0.30531 0.65824 0.0
H1797 H 0.89365 0.30288 0.73082 0.0
H1798 H 0.8627 0.27561 0.73456 0.0
H1799 H 0.86565 0.30682 0.73122 0.0
C1800 C 0.18436 0.9613 0.63014 0.0
C1801 C 0.19478 0.94909 0.62076 0.0
C1802 C 0.1988 0.98847 0.63494 0.0
C1803 C 0.22447 0.00354 0.63057 0.0
C1804 C 0.23505 0.99123 0.62108 0.0
C1805 C 0.21991 0.96414 0.61613 0.0
C1806 C 0.18668 0.00101 0.64478 0.0
C1807 C 0.26256 0.00652 0.61649 0.0
C1808 C 0.25717 0.07805 0.63299 0.0
C1809 C 0.27201 0.08579 0.64785 0.0
C1810 C 0.24122 0.05128 0.62729 0.0
C1811 C 0.24072 0.03195 0.63651 0.0
C1812 C 0.25593 0.03973 0.65144 0.0
C1813 C 0.27114 0.06654 0.65701 0.0
C1814 C 0.22481 0.04367 0.61146 0.0
C1815 C 0.25639 0.01974 0.66146 0.0
H1816 H 0.1648 0.94958 0.63357 0.0
H1817 H 0.22794 0.95455 0.60894 0.0
H1818 H 0.198 0.00901 0.65667 0.0
H1819 H 0.18748 0.01776 0.63912 0.0
H1820 H 0.16596 0.98684 0.64633 0.0
H1821 H 0.26772 0.99404 0.60891 0.0
H1822 H 0.26481 0.0231 0.61003 0.0
H1823 H 0.27681 0.01511 0.62733 0.0
H1824 H 0.25772 0.09292 0.62593 0.0
H1825 H 0.28281 0.07247 0.66845 0.0
H1826 H 0.20385 0.03045 0.61293 0.0
H1827 H 0.23062 0.0326 0.60319 0.0
H1828 H 0.22683 0.06106 0.60598 0.0
H1829 H 0.23639 0.00621 0.66451 0.0
H1830 H 0.26975 0.0291 0.67264 0.0
H1831 H 0.26278 0.00759 0.65467 0.0
C1832 C 0.99883 0.24771 0.61748 0.0
C1833 C 0.00805 0.2301 0.61491 0.0
C1834 C 0.97539 0.24018 0.62424 0.0
C1835 C 0.96074 0.21442 0.62862 0.0
C1836 C 0.96975 0.19643 0.62594 0.0
C1837 C 0.99326 0.20447 0.61911 0.0
C1838 C 0.96647 0.25996 0.62689 0.0
C1839 C 0.95465 0.16875 0.6304 0.0
C1840 C 0.91397 0.20356 0.65987 0.0
C1841 C 0.88973 0.19251 0.65056 0.0
C1842 C 0.93717 0.21055 0.6529 0.0
C1843 C 0.93617 0.20645 0.6362 0.0
C1844 C 0.91177 0.19521 0.62673 0.0
C1845 C 0.88889 0.18837 0.63401 0.0
C1846 C 0.9628 0.22244 0.66341 0.0
C1847 C 0.90984 0.19057 0.60889 0.0
H1848 H 0.0103 0.26768 0.61454 0.0
H1849 H 1.00004 0.19063 0.61702 0.0
H1850 H 0.94642 0.25196 0.62082 0.0
H1851 H 0.96558 0.26372 0.63973 0.0
H1852 H 0.97973 0.27899 0.62245 0.0
H1853 H 0.96412 0.15706 0.62737 0.0
H1854 H 0.95295 0.16933 0.64332 0.0
H1855 H 0.93445 0.15847 0.62421 0.0
H1856 H 0.91486 0.2068 0.67265 0.0
H1857 H 0.87031 0.17983 0.62666 0.0
H1858 H 0.9765 0.24242 0.66033 0.0
H1859 H 0.97216 0.21036 0.66144 0.0
H1860 H 0.96021 0.22395 0.67619 0.0
H1861 H 0.92181 0.20953 0.60405 0.0
H1862 H 0.88933 0.1813 0.60324 0.0
H1863 H 0.91783 0.17768 0.60548 0.0
C1864 C 0.83125 0.82023 0.61949 0.0
C1865 C 0.80767 0.81965 0.61549 0.0
C1866 C 0.83176 0.80084 0.62789 0.0
C1867 C 0.80818 0.78081 0.63272 0.0
C1868 C 0.78442 0.78068 0.62915 0.0
C1869 C 0.78439 0.79996 0.62035 0.0
C1870 C 0.85736 0.80127 0.63113 0.0
C1871 C 0.75903 0.75999 0.63443 0.0
C1872 C 0.80529 0.7165 0.63902 0.0
C1873 C 0.8124 0.71989 0.65539 0.0
C1874 C 0.80352 0.73607 0.63152 0.0
C1875 C 0.80827 0.75925 0.64071 0.0
C1876 C 0.81446 0.76233 0.65736 0.0
C1877 C 0.81688 0.74274 0.66449 0.0
C1878 C 0.79758 0.73235 0.61369 0.0
C1879 C 0.81899 0.78649 0.66757 0.0
H1880 H 0.84918 0.83541 0.61557 0.0
H1881 H 0.76621 0.79971 0.61728 0.0
H1882 H 0.86198 0.80186 0.64404 0.0
H1883 H 0.85564 0.78299 0.62528 0.0
H1884 H 0.87399 0.81844 0.62677 0.0
H1885 H 0.74275 0.76392 0.63182 0.0
H1886 H 0.75337 0.74037 0.62834 0.0
H1887 H 0.76157 0.75905 0.64736 0.0
H1888 H 0.80216 0.69898 0.63193 0.0
H1889 H 0.82228 0.74529 0.67717 0.0
H1890 H 0.81421 0.74818 0.60847 0.0
H1891 H 0.78001 0.73386 0.61037 0.0
H1892 H 0.79412 0.71302 0.60832 0.0
H1893 H 0.83688 0.80407 0.66467 0.0
H1894 H 0.82137 0.78482 0.68042 0.0
H1895 H 0.80233 0.78987 0.66512 0.0
C1896 C 0.00761 0.78956 0.62301 0.0
C1897 C 0.02337 0.77797 0.62285 0.0
C1898 C 0.98355 0.77761 0.62944 0.0
C1899 C 0.9748 0.75326 0.63562 0.0
C1900 C 0.99044 0.74133 0.63538 0.0
C1901 C 0.0146 0.75392 0.62914 0.0
C1902 C 0.96749 0.79103 0.62962 0.0
C1903 C 0.98164 0.7152 0.64171 0.0
C1904 C 0.92344 0.73007 0.66466 0.0
C1905 C 0.90067 0.71223 0.6547 0.0
C1906 C 0.94761 0.74414 0.65855 0.0
C1907 C 0.94908 0.73995 0.64213 0.0
C1908 C 0.9261 0.72224 0.63199 0.0
C1909 C 0.90217 0.70874 0.63838 0.0
C1910 C 0.97165 0.7632 0.66967 0.0
C1911 C 0.92688 0.71698 0.61446 0.0
H1912 H 0.01395 0.80792 0.61798 0.0
H1913 H 0.02679 0.74502 0.62939 0.0
H1914 H 0.94827 0.77831 0.62246 0.0
H1915 H 0.96348 0.79415 0.64191 0.0
H1916 H 0.97747 0.81036 0.62484 0.0
H1917 H 0.99588 0.70832 0.64039 0.0
H1918 H 0.97895 0.71681 0.65444 0.0
H1919 H 0.9624 0.70004 0.63536 0.0
H1920 H 0.92241 0.73299 0.67726 0.0
H1921 H 0.88473 0.6949 0.63058 0.0
H1922 H 0.98126 0.78285 0.66532 0.0
H1923 H 0.98605 0.75636 0.67002 0.0
H1924 H 0.96695 0.76533 0.68194 0.0
H1925 H 0.93566 0.73568 0.609 0.0
H1926 H 0.90708 0.70337 0.60811 0.0
H1927 H 0.93946 0.70822 0.61265 0.0
C1928 C 0.18084 0.20646 0.60901 0.0
C1929 C 0.18591 0.23157 0.6149 0.0
C1930 C 0.19749 0.19707 0.61393 0.0
C1931 C 0.21963 0.21307 0.62512 0.0
C1932 C 0.22504 0.23853 0.63096 0.0
C1933 C 0.20823 0.24749 0.62573 0.0
C1934 C 0.19113 0.16985 0.60737 0.0
C1935 C 0.24841 0.25619 0.64293 0.0
C1936 C 0.24746 0.18086 0.65107 0.0
C1937 C 0.27018 0.18593 0.64411 0.0
C1938 C 0.23069 0.18926 0.64487 0.0
C1939 C 0.2366 0.20287 0.63126 0.0
C1940 C 0.25918 0.20755 0.62394 0.0
C1941 C 0.27578 0.19914 0.6305 0.0
C1942 C 0.20694 0.18405 0.6531 0.0
C1943 C 0.26598 0.22175 0.60932 0.0
H1944 H 0.16355 0.19389 0.60076 0.0
H1945 H 0.21266 0.26713 0.63011 0.0
H1946 H 0.2083 0.17078 0.60221 0.0
H1947 H 0.18673 0.15711 0.61708 0.0
H1948 H 0.17405 0.16047 0.59811 0.0
H1949 H 0.25016 0.27564 0.64608 0.0
H1950 H 0.24679 0.24658 0.65391 0.0
H1951 H 0.26671 0.25942 0.63819 0.0
H1952 H 0.24295 0.17073 0.66161 0.0
H1953 H 0.29318 0.20301 0.62497 0.0
H1954 H 0.18892 0.17308 0.64462 0.0
H1955 H 0.2085 0.20299 0.65746 0.0
H1956 H 0.2047 0.17257 0.66331 0.0
H1957 H 0.24916 0.2118 0.59991 0.0
H1958 H 0.28343 0.22262 0.60457 0.0
H1959 H 0.26997 0.24215 0.61212 0.0
C1960 C 0.81268 0.01231 0.60244 0.0
C1961 C 0.8038 0.98811 0.60856 0.0
C1962 C 0.81183 0.03311 0.61085 0.0
C1963 C 0.80145 0.0295 0.62562 0.0
C1964 C 0.7916 0.00489 0.63162 0.0
C1965 C 0.79308 0.98455 0.62308 0.0
C1966 C 0.8227 0.05916 0.60412 0.0
C1967 C 0.78011 0.00026 0.64725 0.0
C1968 C 0.8261 0.09095 0.65442 0.0
C1969 C 0.80606 0.09688 0.65193 0.0
C1970 C 0.8246 0.06882 0.64611 0.0
C1971 C 0.80237 0.05202 0.63519 0.0
C1972 C 0.78166 0.05738 0.63298 0.0
C1973 C 0.78384 0.07988 0.64131 0.0
C1974 C 0.84723 0.06391 0.64864 0.0
C1975 C 0.75749 0.03965 0.62159 0.0
H1976 H 0.82045 0.01507 0.59108 0.0
H1977 H 0.78644 0.96607 0.62801 0.0
H1978 H 0.80762 0.06507 0.60308 0.0
H1979 H 0.83954 0.07469 0.61227 0.0
H1980 H 0.82938 0.05849 0.59226 0.0
H1981 H 0.77131 0.97939 0.64961 0.0
H1982 H 0.79563 0.01281 0.65705 0.0
H1983 H 0.76482 0.00591 0.64743 0.0
H1984 H 0.84342 0.10404 0.66253 0.0
H1985 H 0.76823 0.0843 0.63937 0.0
H1986 H 0.85605 0.06489 0.63739 0.0
H1987 H 0.84017 0.04389 0.65216 0.0
H1988 H 0.86276 0.07846 0.6579 0.0
H1989 H 0.7629 0.04016 0.60931 0.0
H1990 H 0.7424 0.04557 0.62205 0.0
H1991 H 0.74877 0.01898 0.6243 0.0
C1992 C 0.47907 0.35468 0.71809 0.0
C1993 C 0.48635 0.35223 0.73359 0.0
C1994 C 0.45752 0.33346 0.70876 0.0
C1995 C 0.44329 0.30914 0.71503 0.0
C1996 C 0.45039 0.30671 0.73076 0.0
C1997 C 0.47173 0.32836 0.73989 0.0
C1998 C 0.45027 0.3369 0.69212 0.0
C1999 C 0.43596 0.28099 0.73779 0.0
C2000 C 0.37546 0.25624 0.69628 0.0
C2001 C 0.38127 0.2394 0.68721 0.0
C2002 C 0.39553 0.2795 0.70502 0.0
C2003 C 0.42192 0.28576 0.70489 0.0
C2004 C 0.4279 0.26902 0.69558 0.0
C2005 C 0.40753 0.24617 0.68676 0.0
C2006 C 0.38846 0.29712 0.71461 0.0
C2007 C 0.45576 0.27479 0.69532 0.0
H2008 H 0.49025 0.37322 0.71327 0.0
H2009 H 0.47753 0.32636 0.75183 0.0
H2010 H 0.45324 0.32397 0.68344 0.0
H2011 H 0.42922 0.33092 0.69041 0.0
H2012 H 0.46213 0.35755 0.68943 0.0
H2013 H 0.44342 0.28262 0.75036 0.0
H2014 H 0.41473 0.27421 0.7371 0.0
H2015 H 0.43804 0.26562 0.73085 0.0
H2016 H 0.35522 0.25117 0.69662 0.0
H2017 H 0.41218 0.23317 0.67988 0.0
H2018 H 0.39985 0.3176 0.71159 0.0
H2019 H 0.39367 0.29755 0.72742 0.0
H2020 H 0.36724 0.29043 0.71257 0.0
H2021 H 0.46822 0.29461 0.6916 0.0
H2022 H 0.45715 0.2601 0.68718 0.0
H2023 H 0.46396 0.27488 0.70743 0.0
C2024 C 0.63613 0.08262 0.72002 0.0
C2025 C 0.62732 0.0994 0.72587 0.0
C2026 C 0.65991 0.09244 0.71333 0.0
C2027 C 0.67591 0.11989 0.7129 0.0
C2028 C 0.66767 0.13708 0.71922 0.0
C2029 C 0.64338 0.12665 0.72542 0.0
C2030 C 0.66776 0.07336 0.70653 0.0
C2031 C 0.68445 0.16652 0.71932 0.0
C2032 C 0.74748 0.14388 0.70772 0.0
C2033 C 0.74822 0.14753 0.69159 0.0
C2034 C 0.72433 0.13577 0.71493 0.0
C2035 C 0.70112 0.13043 0.70569 0.0
C2036 C 0.70179 0.13418 0.6894 0.0
C2037 C 0.72543 0.14304 0.6826 0.0
C2038 C 0.72468 0.13275 0.73242 0.0
C2039 C 0.67736 0.12809 0.67904 0.0
H2040 H 0.62443 0.06164 0.72064 0.0
H2041 H 0.63682 0.1399 0.72966 0.0
H2042 H 0.67088 0.07588 0.69389 0.0
H2043 H 0.68656 0.07748 0.7129 0.0
H2044 H 0.65276 0.05253 0.70735 0.0
H2045 H 0.67604 0.17732 0.72552 0.0
H2046 H 0.70441 0.17348 0.72522 0.0
H2047 H 0.6866 0.17163 0.70698 0.0
H2048 H 0.76514 0.14761 0.71476 0.0
H2049 H 0.72588 0.14569 0.67011 0.0
H2050 H 0.71164 0.11184 0.7342 0.0
H2051 H 0.71706 0.14435 0.73855 0.0
H2052 H 0.74468 0.13927 0.73813 0.0
H2053 H 0.66232 0.10701 0.6789 0.0
H2054 H 0.6812 0.1323 0.66665 0.0
H2055 H 0.66893 0.13982 0.68394 0.0
C2056 C 0.90239 0.54024 0.71021 0.0
C2057 C 0.92986 0.55525 0.71272 0.0
C2058 C 0.8875 0.55137 0.70507 0.0
C2059 C 0.90039 0.57821 0.70247 0.0
C2060 C 0.92809 0.59351 0.70501 0.0
C2061 C 0.94249 0.58183 0.71008 0.0
C2062 C 0.858 0.53446 0.70249 0.0
C2063 C 0.94251 0.62221 0.70236 0.0
C2064 C 0.86586 0.60328 0.67582 0.0
C2065 C 0.85796 0.61587 0.68693 0.0
C2066 C 0.87925 0.59049 0.68071 0.0
C2067 C 0.88493 0.59037 0.6971 0.0
C2068 C 0.87649 0.6025 0.70837 0.0
C2069 C 0.86305 0.61506 0.70315 0.0
C2070 C 0.8878 0.57759 0.66835 0.0
C2071 C 0.88222 0.60278 0.72596 0.0
H2072 H 0.89247 0.51979 0.71246 0.0
H2073 H 0.96371 0.59345 0.7118 0.0
H2074 H 0.84903 0.54282 0.71034 0.0
H2075 H 0.85084 0.53429 0.69009 0.0
H2076 H 0.85102 0.51384 0.70487 0.0
H2077 H 0.96409 0.63141 0.70499 0.0
H2078 H 0.93801 0.62431 0.68986 0.0
H2079 H 0.93583 0.63326 0.70997 0.0
H2080 H 0.86196 0.60373 0.66326 0.0
H2081 H 0.85705 0.62474 0.71184 0.0
H2082 H 0.88021 0.55666 0.67016 0.0
H2083 H 0.90951 0.58744 0.66957 0.0
H2084 H 0.8809 0.57848 0.65608 0.0
H2085 H 0.87454 0.58239 0.72899 0.0
H2086 H 0.87346 0.61221 0.73317 0.0
H2087 H 0.90372 0.61361 0.72934 0.0
C2088 C 0.45505 0.97401 0.18125 0.0
C2089 C 0.46326 0.95846 0.18877 0.0
C2090 C 0.46067 0.98019 0.16578 0.0
C2091 C 0.47476 0.9705 0.15755 0.0
C2092 C 0.48237 0.9541 0.16485 0.0
C2093 C 0.47657 0.94831 0.18037 0.0
C2094 C 0.45211 0.99766 0.15842 0.0
C2095 C 0.49733 0.94329 0.15644 0.0
C2096 C 0.47303 0.97235 0.11282 0.0
C2097 C 0.49669 0.99552 0.11153 0.0
C2098 C 0.46581 0.9637 0.12768 0.0
C2099 C 0.48258 0.97861 0.14161 0.0
C2100 C 0.50663 0.00181 0.14037 0.0
C2101 C 0.5134 0.00993 0.12537 0.0
C2102 C 0.44003 0.93885 0.12849 0.0
C2103 C 0.52509 0.01826 0.15492 0.0
H2104 H 0.44435 0.98156 0.18753 0.0
H2105 H 0.48324 0.93651 0.18611 0.0
H2106 H 0.46959 0.01622 0.15613 0.0
H2107 H 0.44027 0.98785 0.14683 0.0
H2108 H 0.44036 0.00266 0.16612 0.0
H2109 H 0.50032 0.92947 0.16331 0.0
H2110 H 0.48674 0.93289 0.14464 0.0
H2111 H 0.51679 0.95973 0.15441 0.0
H2112 H 0.45983 0.96124 0.10223 0.0
H2113 H 0.53189 0.0276 0.12448 0.0
H2114 H 0.42703 0.94356 0.1351 0.0
H2115 H 0.44329 0.92491 0.13505 0.0
H2116 H 0.42976 0.92889 0.11654 0.0
H2117 H 0.51516 0.02549 0.16276 0.0
H2118 H 0.54326 0.03548 0.15192 0.0
H2119 H 0.53061 0.00608 0.16178 0.0
C2120 C 0.05258 0.50634 0.17761 0.0
C2121 C 0.07211 0.53252 0.18246 0.0
C2122 C 0.03699 0.49945 0.16304 0.0
C2123 C 0.04101 0.51925 0.15318 0.0
C2124 C 0.06036 0.54577 0.15817 0.0
C2125 C 0.07568 0.55207 0.17275 0.0
C2126 C 0.01659 0.47096 0.15805 0.0
C2127 C 0.06511 0.56746 0.14802 0.0
C2128 C 0.02273 0.50246 0.1088 0.0
C2129 C 0.99967 0.50366 0.10682 0.0
C2130 C 0.03594 0.50669 0.12389 0.0
C2131 C 0.02583 0.51227 0.13733 0.0
C2132 C 0.00211 0.51271 0.13547 0.0
C2133 C 0.98926 0.50834 0.1202 0.0
C2134 C 0.06109 0.5059 0.1254 0.0
C2135 C 0.99079 0.51863 0.14955 0.0
H2136 H 0.04988 0.49118 0.18506 0.0
H2137 H 0.09044 0.5724 0.1766 0.0
H2138 H 0.9971 0.46898 0.15519 0.0
H2139 H 0.02151 0.46374 0.14713 0.0
H2140 H 0.01512 0.45814 0.16738 0.0
H2141 H 0.08031 0.58719 0.15388 0.0
H2142 H 0.07149 0.56379 0.13659 0.0
H2143 H 0.04667 0.56767 0.14522 0.0
H2144 H 0.03055 0.49834 0.09848 0.0
H2145 H 0.97149 0.50938 0.11868 0.0
H2146 H 0.05993 0.49203 0.13393 0.0
H2147 H 0.07768 0.52566 0.13013 0.0
H2148 H 0.06549 0.49983 0.11387 0.0
H2149 H 0.98877 0.50534 0.15866 0.0
H2150 H 0.97131 0.51645 0.1462 0.0
H2151 H 0.00431 0.53908 0.15508 0.0
C2152 C 0.49434 0.50711 0.18988 0.0
C2153 C 0.47096 0.48745 0.19472 0.0
C2154 C 0.49893 0.50721 0.1739 0.0
C2155 C 0.47978 0.48702 0.16252 0.0
C2156 C 0.45609 0.46714 0.16733 0.0
C2157 C 0.45189 0.46769 0.18339 0.0
C2158 C 0.52429 0.52894 0.1692 0.0
C2159 C 0.43535 0.44513 0.15555 0.0
C2160 C 0.48264 0.49965 0.11928 0.0
C2161 C 0.49607 0.48719 0.11379 0.0
C2162 C 0.47705 0.49961 0.13508 0.0
C2163 C 0.48481 0.48655 0.14562 0.0
C2164 C 0.49804 0.47364 0.14012 0.0
C2165 C 0.50365 0.47425 0.12432 0.0
C2166 C 0.46304 0.51374 0.14054 0.0
C2167 C 0.50653 0.4594 0.15099 0.0
H2168 H 0.50895 0.52263 0.19859 0.0
H2169 H 0.43388 0.45239 0.18714 0.0
H2170 H 0.53542 0.52045 0.1638 0.0
H2171 H 0.5201 0.53941 0.16014 0.0
H2172 H 0.5369 0.54349 0.17946 0.0
H2173 H 0.41792 0.43134 0.16118 0.0
H2174 H 0.42894 0.45335 0.14606 0.0
H2175 H 0.44363 0.43386 0.14979 0.0
H2176 H 0.47632 0.50932 0.11118 0.0
H2177 H 0.51437 0.46491 0.12028 0.0
H2178 H 0.47547 0.52942 0.15033 0.0
H2179 H 0.44463 0.49982 0.14526 0.0
H2180 H 0.45819 0.52283 0.13084 0.0
H2181 H 0.52089 0.47355 0.16084 0.0
H2182 H 0.51562 0.44938 0.1447 0.0
H2183 H 0.48944 0.44449 0.15638 0.0
C2184 C 0.02951 0.52686 0.81783 0.0
C2185 C 0.00463 0.51346 0.80911 0.0
C2186 C 0.03236 0.52759 0.83438 0.0
C2187 C 0.00977 0.51484 0.84244 0.0
C2188 C 0.9846 0.50152 0.83376 0.0
C2189 C 0.98234 0.50086 0.8172 0.0
C2190 C 0.05954 0.54191 0.84325 0.0
C2191 C 0.96006 0.48779 0.84195 0.0
C2192 C 0.01701 0.49549 0.88329 0.0
C2193 C 0.01805 0.51607 0.89319 0.0
C2194 C 0.01437 0.49487 0.86674 0.0
C2195 C 0.01248 0.51521 0.85995 0.0
C2196 C 0.01325 0.5359 0.86988 0.0
C2197 C 0.01616 0.53615 0.8864 0.0
C2198 C 0.01389 0.47263 0.85653 0.0
C2199 C 0.01098 0.55775 0.86306 0.0
H2200 H 0.04681 0.53696 0.81171 0.0
H2201 H 0.96306 0.49009 0.81055 0.0
H2202 H 0.06155 0.55784 0.85199 0.0
H2203 H 0.0628 0.52814 0.84999 0.0
H2204 H 0.07509 0.55068 0.83521 0.0
H2205 H 0.94193 0.47896 0.83352 0.0
H2206 H 0.96015 0.47196 0.84825 0.0
H2207 H 0.95947 0.50192 0.85099 0.0
H2208 H 0.01878 0.48011 0.88853 0.0
H2209 H 0.01671 0.55194 0.89404 0.0
H2210 H 0.0303 0.48064 0.84905 0.0
H2211 H 0.99541 0.46196 0.84842 0.0
H2212 H 0.01554 0.45833 0.86368 0.0
H2213 H 0.02717 0.5683 0.85569 0.0
H2214 H 0.01162 0.57222 0.87241 0.0
H2215 H 0.99232 0.54938 0.8552 0.0
C2216 C 0.53173 0.45154 0.8408 0.0
C2217 C 0.54763 0.47145 0.83175 0.0
C2218 C 0.52169 0.45709 0.85409 0.0
C2219 C 0.52763 0.48322 0.85846 0.0
C2220 C 0.54329 0.50338 0.84924 0.0
C2221 C 0.55309 0.49724 0.83596 0.0
C2222 C 0.50496 0.43501 0.86357 0.0
C2223 C 0.55005 0.53147 0.85356 0.0
C2224 C 0.48319 0.49082 0.88614 0.0
C2225 C 0.49764 0.49615 0.90097 0.0
C2226 C 0.49306 0.48739 0.87212 0.0
C2227 C 0.51797 0.48938 0.87298 0.0
C2228 C 0.53299 0.4956 0.88788 0.0
C2229 C 0.52266 0.49894 0.90167 0.0
C2230 C 0.47648 0.48078 0.85645 0.0
C2231 C 0.55968 0.49801 0.88932 0.0
H2232 H 0.52701 0.43147 0.83743 0.0
H2233 H 0.56549 0.51274 0.82907 0.0
H2234 H 0.5145 0.43917 0.87589 0.0
H2235 H 0.48564 0.43358 0.86424 0.0
H2236 H 0.50168 0.41566 0.85837 0.0
H2237 H 0.5616 0.54465 0.84483 0.0
H2238 H 0.53189 0.53241 0.85433 0.0
H2239 H 0.56157 0.53905 0.86541 0.0
H2240 H 0.4638 0.48852 0.88553 0.0
H2241 H 0.53414 0.5036 0.91308 0.0
H2242 H 0.47068 0.46059 0.85129 0.0
H2243 H 0.48791 0.49444 0.84792 0.0
H2244 H 0.45843 0.48184 0.85768 0.0
H2245 H 0.55773 0.47874 0.88534 0.0
H2246 H 0.56944 0.50439 0.90167 0.0
H2247 H 0.57251 0.51234 0.88152 0.0
C2248 C 0.52578 0.04226 0.83096 0.0
C2249 C 0.50992 0.02435 0.81779 0.0
C2250 C 0.52304 0.03484 0.84642 0.0
C2251 C 0.50385 0.00894 0.84882 0.0
C2252 C 0.48794 0.99073 0.83559 0.0
C2253 C 0.49127 0.99858 0.82028 0.0
C2254 C 0.54051 0.05479 0.86021 0.0
C2255 C 0.4672 0.96295 0.83762 0.0
C2256 C 0.50888 0.98049 0.88691 0.0
C2257 C 0.49106 0.98364 0.89563 0.0
C2258 C 0.51362 0.98908 0.8718 0.0
C2259 C 0.50004 0.0009 0.86517 0.0
C2260 C 0.48215 0.00428 0.87396 0.0
C2261 C 0.47796 0.99571 0.88909 0.0
C2262 C 0.53306 0.98538 0.8629 0.0
C2263 C 0.46706 0.01652 0.86726 0.0
H2264 H 0.54005 0.06228 0.82923 0.0
H2265 H 0.47928 0.98439 0.81021 0.0
H2266 H 0.52843 0.05854 0.86829 0.0
H2267 H 0.55109 0.04698 0.86714 0.0
H2268 H 0.55513 0.0738 0.85631 0.0
H2269 H 0.4564 0.95118 0.82612 0.0
H2270 H 0.47632 0.95284 0.84357 0.0
H2271 H 0.4529 0.96332 0.84532 0.0
H2272 H 0.51933 0.9715 0.89198 0.0
H2273 H 0.46397 0.99797 0.89568 0.0
H2274 H 0.54844 0.00459 0.8597 0.0
H2275 H 0.52302 0.97234 0.85168 0.0
H2276 H 0.54265 0.97666 0.86992 0.0
H2277 H 0.48081 0.03639 0.86406 0.0
H2278 H 0.45433 0.01831 0.87574 0.0
H2279 H 0.45459 0.00442 0.85624 0.0
C2280 C 0.11081 0.28886 0.51308 0.0
C2281 C 0.13209 0.29585 0.52445 0.0
C2282 C 0.11468 0.29438 0.49732 0.0
C2283 C 0.14045 0.30729 0.49283 0.0
C2284 C 0.16194 0.3139 0.50417 0.0
C2285 C 0.1575 0.30802 0.51979 0.0
C2286 C 0.09124 0.2869 0.48556 0.0
C2287 C 0.18972 0.32764 0.49986 0.0
C2288 C 0.15218 0.30553 0.44937 0.0
C2289 C 0.15689 0.33034 0.44584 0.0
C2290 C 0.14625 0.29752 0.4645 0.0
C2291 C 0.14514 0.31477 0.47645 0.0
C2292 C 0.14949 0.33966 0.47291 0.0
C2293 C 0.15521 0.34709 0.45766 0.0
C2294 C 0.14166 0.27079 0.46779 0.0
C2295 C 0.14848 0.35863 0.48531 0.0
H2296 H 0.09114 0.27967 0.51659 0.0
H2297 H 0.17402 0.31302 0.52839 0.0
H2298 H 0.09248 0.3049 0.48146 0.0
H2299 H 0.09113 0.27476 0.47497 0.0
H2300 H 0.07242 0.27574 0.4907 0.0
H2301 H 0.20422 0.33085 0.50996 0.0
H2302 H 0.1916 0.3159 0.48981 0.0
H2303 H 0.19474 0.34702 0.49595 0.0
H2304 H 0.1537 0.29255 0.4404 0.0
H2305 H 0.15832 0.36608 0.45499 0.0
H2306 H 0.12251 0.25945 0.47252 0.0
H2307 H 0.15704 0.27313 0.47698 0.0
H2308 H 0.14189 0.25917 0.45702 0.0
H2309 H 0.1292 0.34918 0.49006 0.0
H2310 H 0.1517 0.37698 0.48055 0.0
H2311 H 0.16369 0.36396 0.49539 0.0
C2312 C 0.73911 0.85444 0.50003 0.0
C2313 C 0.73411 0.86291 0.51453 0.0
C2314 C 0.72218 0.84841 0.48617 0.0
C2315 C 0.69956 0.85069 0.48684 0.0
C2316 C 0.69383 0.85827 0.50153 0.0
C2317 C 0.71124 0.86438 0.51521 0.0
C2318 C 0.72893 0.84032 0.47072 0.0
C2319 C 0.66977 0.86073 0.5027 0.0
C2320 C 0.67531 0.86331 0.44803 0.0
C2321 C 0.6557 0.83785 0.44173 0.0
C2322 C 0.68903 0.86792 0.46301 0.0
C2323 C 0.68285 0.84657 0.47196 0.0
C2324 C 0.66215 0.82105 0.46603 0.0
C2325 C 0.64885 0.81697 0.45094 0.0
C2326 C 0.71094 0.89544 0.46895 0.0
C2327 C 0.6549 0.79785 0.47529 0.0
H2328 H 0.75648 0.85277 0.49948 0.0
H2329 H 0.70735 0.87112 0.52635 0.0
H2330 H 0.71232 0.82119 0.46512 0.0
H2331 H 0.73239 0.85509 0.46236 0.0
H2332 H 0.74669 0.83848 0.47234 0.0
H2333 H 0.66696 0.86466 0.51518 0.0
H2334 H 0.67151 0.87705 0.49614 0.0
H2335 H 0.65202 0.84245 0.49713 0.0
H2336 H 0.68035 0.87959 0.44107 0.0
H2337 H 0.63385 0.79721 0.44609 0.0
H2338 H 0.72995 0.8959 0.46975 0.0
H2339 H 0.70826 0.9014 0.48103 0.0
H2340 H 0.71207 0.91014 0.46105 0.0
H2341 H 0.67095 0.79326 0.4758 0.0
H2342 H 0.63655 0.77999 0.46986 0.0
H2343 H 0.6524 0.80262 0.48767 0.0
C2344 C 0.14956 0.80738 0.52218 0.0
C2345 C 0.13929 0.82179 0.52951 0.0
C2346 C 0.15411 0.80879 0.50618 0.0
C2347 C 0.14808 0.82487 0.49725 0.0
C2348 C 0.13716 0.83899 0.50446 0.0
C2349 C 0.13297 0.83735 0.52051 0.0
C2350 C 0.16576 0.79342 0.49891 0.0
C2351 C 0.1304 0.85626 0.4953 0.0
C2352 C 0.18408 0.84894 0.46105 0.0
C2353 C 0.16552 0.83108 0.44876 0.0
C2354 C 0.17856 0.84728 0.47688 0.0
C2355 C 0.15384 0.82738 0.48048 0.0
C2356 C 0.13485 0.80958 0.46809 0.0
C2357 C 0.14096 0.8116 0.45238 0.0
C2358 C 0.19937 0.86651 0.48979 0.0
C2359 C 0.10818 0.78828 0.47145 0.0
H2360 H 0.15413 0.79502 0.52898 0.0
H2361 H 0.12539 0.84885 0.52612 0.0
H2362 H 0.15269 0.78007 0.48839 0.0
H2363 H 0.18485 0.80712 0.49477 0.0
H2364 H 0.16892 0.78148 0.50739 0.0
H2365 H 0.12089 0.86496 0.50242 0.0
H2366 H 0.14845 0.87248 0.49145 0.0
H2367 H 0.11703 0.84472 0.48443 0.0
H2368 H 0.20318 0.86385 0.45832 0.0
H2369 H 0.12644 0.79796 0.44288 0.0
H2370 H 0.20474 0.85571 0.49801 0.0
H2371 H 0.19169 0.87717 0.49685 0.0
H2372 H 0.21738 0.88117 0.48498 0.0
H2373 H 0.11033 0.77484 0.47911 0.0
H2374 H 0.09537 0.77649 0.46043 0.0
H2375 H 0.09829 0.79714 0.478 0.0
C2376 C 0.64855 0.82677 0.14954 0.0
C2377 C 0.6712 0.84166 0.14215 0.0
C2378 C 0.6497 0.82709 0.16608 0.0
C2379 C 0.67413 0.84246 0.17545 0.0
C2380 C 0.69707 0.85755 0.16809 0.0
C2381 C 0.69532 0.85704 0.15153 0.0
C2382 C 0.6248 0.8108 0.17351 0.0
C2383 C 0.72349 0.87411 0.17771 0.0
C2384 C 0.67504 0.86126 0.21916 0.0
C2385 C 0.6791 0.84255 0.22615 0.0
C2386 C 0.6732 0.86137 0.20264 0.0
C2387 C 0.67573 0.84245 0.19294 0.0
C2388 C 0.67982 0.82351 0.19994 0.0
C2389 C 0.68135 0.82372 0.21647 0.0
C2390 C 0.66854 0.88169 0.19558 0.0
C2391 C 0.68284 0.80318 0.18998 0.0
H2392 H 0.62991 0.81448 0.14238 0.0
H2393 H 0.71284 0.86888 0.14593 0.0
H2394 H 0.62643 0.79584 0.17995 0.0
H2395 H 0.62179 0.82353 0.18233 0.0
H2396 H 0.60726 0.80056 0.16459 0.0
H2397 H 0.73945 0.88466 0.17017 0.0
H2398 H 0.72298 0.88881 0.18632 0.0
H2399 H 0.72824 0.86147 0.18465 0.0
H2400 H 0.67306 0.87569 0.22663 0.0
H2401 H 0.68484 0.80946 0.22187 0.0
H2402 H 0.65033 0.87178 0.18721 0.0
H2403 H 0.6849 0.8939 0.18871 0.0
H2404 H 0.66677 0.89486 0.20477 0.0
H2405 H 0.66516 0.79117 0.18136 0.0
H2406 H 0.68588 0.7898 0.19727 0.0
H2407 H 0.69978 0.8131 0.18304 0.0
C2408 C 0.22732 0.84706 0.17194 0.0
C2409 C 0.21559 0.82042 0.16601 0.0
C2410 C 0.21911 0.85486 0.18541 0.0
C2411 C 0.19859 0.83555 0.19299 0.0
C2412 C 0.18618 0.80872 0.18674 0.0
C2413 C 0.19486 0.8015 0.17335 0.0
C2414 C 0.23287 0.88362 0.19178 0.0
C2415 C 0.16406 0.78754 0.19437 0.0
C2416 C 0.19227 0.84593 0.23663 0.0
C2417 C 0.17107 0.8504 0.23607 0.0
C2418 C 0.20224 0.84233 0.22273 0.0
C2419 C 0.19061 0.84298 0.20785 0.0
C2420 C 0.16989 0.84851 0.2072 0.0
C2421 C 0.16041 0.85221 0.22132 0.0
C2422 C 0.22443 0.83659 0.22396 0.0
C2423 C 0.15703 0.84943 0.19156 0.0
H2424 H 0.24345 0.86172 0.16634 0.0
H2425 H 0.18546 0.78093 0.16865 0.0
H2426 H 0.21838 0.89014 0.1931 0.0
H2427 H 0.24321 0.88658 0.20373 0.0
H2428 H 0.24737 0.89632 0.18399 0.0
H2429 H 0.15581 0.76774 0.18766 0.0
H2430 H 0.17118 0.78688 0.20661 0.0
H2431 H 0.14808 0.79208 0.19524 0.0
H2432 H 0.20043 0.84412 0.24791 0.0
H2433 H 0.14432 0.85608 0.22079 0.0
H2434 H 0.24021 0.8496 0.21698 0.0
H2435 H 0.21716 0.81598 0.21893 0.0
H2436 H 0.23295 0.83928 0.23643 0.0
H2437 H 0.17203 0.86276 0.18427 0.0
H2438 H 0.14274 0.85619 0.19314 0.0
H2439 H 0.14657 0.82952 0.18482 0.0
C2440 C 0.19545 0.35703 0.16067 0.0
C2441 C 0.18565 0.37182 0.15379 0.0
C2442 C 0.19 0.34925 0.17589 0.0
C2443 C 0.17455 0.35662 0.18456 0.0
C2444 C 0.1654 0.37237 0.17796 0.0
C2445 C 0.17097 0.37968 0.16265 0.0
C2446 C 0.20015 0.33248 0.18249 0.0
C2447 C 0.14904 0.38081 0.18686 0.0
C2448 C 0.13656 0.31302 0.2155 0.0
C2449 C 0.15249 0.32704 0.22966 0.0
C2450 C 0.14349 0.32248 0.2008 0.0
C2451 C 0.16684 0.3467 0.20018 0.0
C2452 C 0.18288 0.36114 0.21442 0.0
C2453 C 0.17557 0.35111 0.22896 0.0
C2454 C 0.12585 0.30643 0.1859 0.0
C2455 C 0.20787 0.38709 0.21428 0.0
H2456 H 0.20721 0.35125 0.15407 0.0
H2457 H 0.16301 0.39083 0.15742 0.0
H2458 H 0.21151 0.34177 0.19426 0.0
H2459 H 0.18342 0.31298 0.18422 0.0
H2460 H 0.21284 0.3294 0.17456 0.0
H2461 H 0.14505 0.39458 0.18059 0.0
H2462 H 0.13003 0.36326 0.18842 0.0
H2463 H 0.15909 0.39051 0.19887 0.0
H2464 H 0.11848 0.29465 0.2159 0.0
H2465 H 0.18824 0.36194 0.23978 0.0
H2466 H 0.13692 0.3012 0.17776 0.0
H2467 H 0.11912 0.31822 0.17958 0.0
H2468 H 0.10838 0.28801 0.18839 0.0
H2469 H 0.22161 0.38414 0.2073 0.0
H2470 H 0.21779 0.39626 0.2264 0.0
H2471 H 0.2036 0.401 0.20842 0.0
C2472 C 0.80434 0.61608 0.84785 0.0
C2473 C 0.79635 0.63012 0.85781 0.0
C2474 C 0.80907 0.62177 0.8322 0.0
C2475 C 0.80576 0.64199 0.82637 0.0
C2476 C 0.79691 0.65563 0.8362 0.0
C2477 C 0.79229 0.64951 0.85177 0.0
C2478 C 0.81842 0.60673 0.82207 0.0
C2479 C 0.79304 0.67725 0.83043 0.0
C2480 C 0.84518 0.67816 0.79355 0.0
C2481 C 0.82637 0.66708 0.78023 0.0
C2482 C 0.83879 0.66991 0.80856 0.0
C2483 C 0.81296 0.64996 0.81033 0.0
C2484 C 0.79396 0.63834 0.79691 0.0
C2485 C 0.80087 0.64707 0.78203 0.0
C2486 C 0.85965 0.68278 0.82256 0.0
C2487 C 0.76622 0.61699 0.79831 0.0
H2488 H 0.80774 0.60123 0.85246 0.0
H2489 H 0.78567 0.66012 0.8593 0.0
H2490 H 0.80592 0.59848 0.81055 0.0
H2491 H 0.83871 0.62027 0.81945 0.0
H2492 H 0.81822 0.59038 0.82794 0.0
H2493 H 0.78482 0.68506 0.83926 0.0
H2494 H 0.81208 0.69371 0.82784 0.0
H2495 H 0.77966 0.66986 0.81923 0.0
H2496 H 0.86504 0.69327 0.79223 0.0
H2497 H 0.78612 0.63857 0.77185 0.0
H2498 H 0.86205 0.66765 0.82829 0.0
H2499 H 0.85358 0.69262 0.83155 0.0
H2500 H 0.87893 0.69762 0.81914 0.0
H2501 H 0.76629 0.60052 0.80384 0.0
H2502 H 0.75412 0.60912 0.78662 0.0
H2503 H 0.75679 0.62485 0.80614 0.0
C2504 C 0.37088 0.16032 0.84451 0.0
C2505 C 0.39171 0.18593 0.84934 0.0
C2506 C 0.35562 0.15428 0.82988 0.0
C2507 C 0.36145 0.17432 0.81989 0.0
C2508 C 0.38193 0.20035 0.82494 0.0
C2509 C 0.39674 0.20584 0.83962 0.0
C2510 C 0.33382 0.12633 0.8249 0.0
C2511 C 0.38871 0.22228 0.81463 0.0
C2512 C 0.34597 0.15819 0.77535 0.0
C2513 C 0.3245 0.1619 0.77255 0.0
C2514 C 0.35756 0.16121 0.79078 0.0
C2515 C 0.34736 0.168 0.80374 0.0
C2516 C 0.32502 0.1707 0.80107 0.0
C2517 C 0.31385 0.16765 0.78547 0.0
C2518 C 0.38132 0.15808 0.79315 0.0
C2519 C 0.31354 0.1778 0.81462 0.0
H2520 H 0.36699 0.14484 0.85196 0.0
H2521 H 0.41246 0.22578 0.84345 0.0
H2522 H 0.31533 0.12595 0.82117 0.0
H2523 H 0.33878 0.11786 0.81454 0.0
H2524 H 0.33037 0.11358 0.83456 0.0
H2525 H 0.40446 0.24165 0.8206 0.0
H2526 H 0.39529 0.21788 0.80348 0.0
H2527 H 0.37112 0.22378 0.81132 0.0
H2528 H 0.35391 0.15317 0.76542 0.0
H2529 H 0.29733 0.17065 0.78336 0.0
H2530 H 0.37825 0.14382 0.80181 0.0
H2531 H 0.39864 0.17721 0.79812 0.0
H2532 H 0.38583 0.15123 0.78192 0.0
H2533 H 0.3102 0.16452 0.82394 0.0
H2534 H 0.29471 0.17665 0.81069 0.0
H2535 H 0.32759 0.19815 0.82011 0.0
C2536 C 0.80201 0.17885 0.85292 0.0
C2537 C 0.79782 0.15718 0.86083 0.0
C2538 C 0.8062 0.17943 0.83686 0.0
C2539 C 0.80619 0.15783 0.82851 0.0
C2540 C 0.80125 0.13559 0.8363 0.0
C2541 C 0.79714 0.13555 0.85238 0.0
C2542 C 0.81148 0.20353 0.82897 0.0
C2543 C 0.8009 0.1121 0.82775 0.0
C2544 C 0.7989 0.15105 0.78346 0.0
C2545 C 0.82497 0.16112 0.78022 0.0
C2546 C 0.79245 0.14979 0.79911 0.0
C2547 C 0.81258 0.15901 0.81184 0.0
C2548 C 0.83894 0.16939 0.80867 0.0
C2549 C 0.8448 0.17022 0.79292 0.0
C2550 C 0.76412 0.13858 0.80203 0.0
C2551 C 0.86097 0.17949 0.82194 0.0
H2552 H 0.80292 0.19578 0.85943 0.0
H2553 H 0.79359 0.11862 0.85838 0.0
H2554 H 0.8317 0.21328 0.82548 0.0
H2555 H 0.79787 0.19782 0.81798 0.0
H2556 H 0.80934 0.218 0.83684 0.0
H2557 H 0.7955 0.09585 0.83528 0.0
H2558 H 0.78679 0.10456 0.81687 0.0
H2559 H 0.82054 0.11808 0.82399 0.0
H2560 H 0.7835 0.14433 0.77373 0.0
H2561 H 0.86493 0.17764 0.79054 0.0
H2562 H 0.76176 0.15354 0.8092 0.0
H2563 H 0.75797 0.12152 0.80893 0.0
H2564 H 0.75079 0.13207 0.79082 0.0
H2565 H 0.86119 0.19532 0.8299 0.0
H2566 H 0.88045 0.18736 0.81748 0.0
H2567 H 0.85782 0.16341 0.82918 0.0
C2568 C 0.32724 0.15424 0.4793 0.0
C2569 C 0.33342 0.17742 0.47254 0.0
C2570 C 0.3292 0.15406 0.4958 0.0
C2571 C 0.33748 0.17763 0.50579 0.0
C2572 C 0.34355 0.20106 0.49906 0.0
C2573 C 0.34151 0.20069 0.4825 0.0
C2574 C 0.32276 0.12873 0.50253 0.0
C2575 C 0.3523 0.22652 0.50935 0.0
C2576 C 0.32179 0.17126 0.54848 0.0
C2577 C 0.34566 0.17641 0.55638 0.0
C2578 C 0.31894 0.17198 0.53204 0.0
C2579 C 0.34042 0.17783 0.52329 0.0
C2580 C 0.36462 0.18327 0.53121 0.0
C2581 C 0.36698 0.18261 0.54765 0.0
C2582 C 0.29285 0.16616 0.524 0.0
C2583 C 0.38798 0.18956 0.52228 0.0
H2584 H 0.32131 0.13628 0.47165 0.0
H2585 H 0.34602 0.21858 0.47733 0.0
H2586 H 0.3403 0.13126 0.50974 0.0
H2587 H 0.30718 0.12364 0.51051 0.0
H2588 H 0.31607 0.11199 0.49313 0.0
H2589 H 0.35574 0.24288 0.50226 0.0
H2590 H 0.33728 0.22385 0.51738 0.0
H2591 H 0.37068 0.23227 0.51693 0.0
H2592 H 0.30515 0.16619 0.5551 0.0
H2593 H 0.38564 0.18712 0.5537 0.0
H2594 H 0.28464 0.14829 0.51532 0.0
H2595 H 0.29548 0.18266 0.5173 0.0
H2596 H 0.2784 0.16297 0.53258 0.0
H2597 H 0.38306 0.17286 0.51323 0.0
H2598 H 0.40548 0.19357 0.53023 0.0
H2599 H 0.39309 0.20702 0.51591 0.0
C2600 C 0.8514 0.14081 0.49568 0.0
C2601 C 0.87636 0.14355 0.49792 0.0
C2602 C 0.83976 0.14531 0.50852 0.0
C2603 C 0.85344 0.15276 0.52394 0.0
C2604 C 0.87903 0.1565 0.52617 0.0
C2605 C 0.89016 0.15184 0.51314 0.0
C2606 C 0.81246 0.14114 0.50568 0.0
C2607 C 0.89433 0.16462 0.54241 0.0
C2608 C 0.83243 0.18183 0.55735 0.0
C2609 C 0.81888 0.16007 0.56574 0.0
C2610 C 0.84329 0.17965 0.5435 0.0
C2611 C 0.8405 0.15512 0.53791 0.0
C2612 C 0.82625 0.13293 0.5461 0.0
C2613 C 0.81562 0.13568 0.55991 0.0
C2614 C 0.85839 0.20374 0.5351 0.0
C2615 C 0.82273 0.1064 0.54049 0.0
H2616 H 0.84053 0.13416 0.48398 0.0
H2617 H 0.90961 0.15437 0.51489 0.0
H2618 H 0.79872 0.12414 0.51164 0.0
H2619 H 0.81197 0.15864 0.51089 0.0
H2620 H 0.80528 0.13731 0.49286 0.0
H2621 H 0.91456 0.16818 0.54199 0.0
H2622 H 0.8955 0.1828 0.54796 0.0
H2623 H 0.88409 0.14899 0.55019 0.0
H2624 H 0.83527 0.2008 0.5619 0.0
H2625 H 0.80486 0.11872 0.56622 0.0
H2626 H 0.8507 0.19956 0.52238 0.0
H2627 H 0.87927 0.2091 0.53571 0.0
H2628 H 0.85738 0.22093 0.54039 0.0
H2629 H 0.81375 0.10028 0.52799 0.0
H2630 H 0.81021 0.09089 0.54782 0.0
H2631 H 0.84212 0.10771 0.5409 0.0
C2632 C 0.85113 0.72313 0.50054 0.0
C2633 C 0.85389 0.70726 0.48862 0.0
C2634 C 0.8458 0.71528 0.51577 0.0
C2635 C 0.84344 0.69111 0.51926 0.0
C2636 C 0.84681 0.67529 0.50743 0.0
C2637 C 0.85181 0.68345 0.49227 0.0
C2638 C 0.84226 0.73267 0.52804 0.0
C2639 C 0.84464 0.64946 0.51071 0.0
C2640 C 0.85034 0.67953 0.56234 0.0
C2641 C 0.82411 0.66319 0.56495 0.0
C2642 C 0.85693 0.6889 0.54758 0.0
C2643 C 0.83679 0.68196 0.53515 0.0
C2644 C 0.81026 0.66575 0.53779 0.0
C2645 C 0.80425 0.65645 0.55262 0.0
C2646 C 0.88546 0.70585 0.54519 0.0
C2647 C 0.78819 0.65815 0.52491 0.0
H2648 H 0.85307 0.74172 0.49796 0.0
H2649 H 0.85341 0.67075 0.48313 0.0
H2650 H 0.82228 0.72181 0.53181 0.0
H2651 H 0.85638 0.738 0.53873 0.0
H2652 H 0.84507 0.75104 0.52353 0.0
H2653 H 0.84907 0.64011 0.5005 0.0
H2654 H 0.8583 0.65255 0.52123 0.0
H2655 H 0.82452 0.63562 0.51344 0.0
H2656 H 0.86579 0.68456 0.57178 0.0
H2657 H 0.78394 0.64408 0.55464 0.0
H2658 H 0.8891 0.72488 0.54135 0.0
H2659 H 0.89056 0.69596 0.53565 0.0
H2660 H 0.89873 0.7099 0.55614 0.0
H2661 H 0.78939 0.6761 0.52073 0.0
H2662 H 0.7686 0.64603 0.529 0.0
H2663 H 0.79002 0.64685 0.51459 0.0
loop_
_geom_bond_atom_site_label_1
_geom_bond_atom_site_label_2
_geom_bond_distance
_geom_bond_site_symmetry_2
_ccdc_geom_bond_type
P0 O11 1.490 . S
P0 C14 1.812 . S
P0 C20 1.803 . S
P0 C26 1.819 . S
H1 C15 0.941 . S
H2 C16 0.939 . S
H3 C18 0.940 . S
H4 C19 0.940 . S
H5 C21 0.939 . S
H6 C22 0.942 . S
H7 C24 0.940 . S
H8 C25 0.939 . S
H9 C27 0.941 . S
H10 C31 0.939 . S
O11 P0 1.490 . S
H12 C28 0.939 . S
H13 C30 0.940 . S
C14 P0 1.812 . S
C14 C15 1.389 . S
C14 C19 1.391 . S
C15 H1 0.941 . S
C15 C14 1.389 . S
C15 C16 1.397 . S
C16 H2 0.939 . S
C16 C15 1.397 . S
C16 C17 1.378 . S
C17 C16 1.378 . S
C17 C18 1.378 . S
C18 H3 0.940 . S
C18 C17 1.378 . S
C18 C19 1.396 . S
C19 H4 0.940 . S
C19 C14 1.391 . S
C19 C18 1.396 . S
C20 P0 1.803 . S
C20 C21 1.378 . S
C20 C25 1.400 . S
C21 H5 0.939 . S
C21 C20 1.378 . S
C21 C22 1.361 . S
C22 H6 0.942 . S
C22 C21 1.361 . S
C22 C23 1.369 . S
C23 C22 1.369 . S
C23 C24 1.404 . S
C24 H7 0.940 . S
C24 C23 1.404 . S
C24 C25 1.389 . S
C25 H8 0.939 . S
C25 C20 1.400 . S
C25 C24 1.389 . S
C26 P0 1.819 . S
C26 C27 1.391 . S
C26 C31 1.391 . S
C27 H9 0.941 . S
C27 C26 1.391 . S
C27 C28 1.396 . S
C28 H12 0.939 . S
C28 C27 1.396 . S
C28 C29 1.397 . S
C29 C28 1.397 . S
C29 C30 1.385 . S
C30 H13 0.940 . S
C30 C29 1.385 . S
C30 C31 1.388 . S
C31 H10 0.939 . S
C31 C26 1.391 . S
C31 C30 1.388 . S
P32 O43 1.490 . S
P32 C46 1.812 . S
P32 C52 1.803 . S
P32 C58 1.819 . S
H33 C47 0.941 . S
H34 C48 0.939 . S
H35 C50 0.940 . S
H36 C51 0.940 . S
H37 C53 0.939 . S
H38 C54 0.942 . S
H39 C56 0.940 . S
H40 C57 0.939 . S
H41 C59 0.941 . S
H42 C63 0.939 . S
O43 P32 1.490 . S
H44 C60 0.939 . S
H45 C62 0.940 . S
C46 P32 1.812 . S
C46 C47 1.389 . S
C46 C51 1.391 . S
C47 H33 0.941 . S
C47 C46 1.389 . S
C47 C48 1.397 . S
C48 H34 0.939 . S
C48 C47 1.397 . S
C48 C49 1.378 . S
C49 C48 1.378 . S
C49 C50 1.378 . S
C50 H35 0.940 . S
C50 C49 1.378 . S
C50 C51 1.396 . S
C51 H36 0.940 . S
C51 C46 1.391 . S
C51 C50 1.396 . S
C52 P32 1.803 . S
C52 C53 1.378 . S
C52 C57 1.400 . S
C53 H37 0.939 . S
C53 C52 1.378 . S
C53 C54 1.361 . S
C54 H38 0.942 . S
C54 C53 1.361 . S
C54 C55 1.369 . S
C55 C54 1.369 . S
C55 C56 1.404 . S
C56 H39 0.940 . S
C56 C55 1.404 . S
C56 C57 1.389 . S
C57 H40 0.939 . S
C57 C52 1.400 . S
C57 C56 1.389 . S
C58 P32 1.819 . S
C58 C59 1.391 . S
C58 C63 1.391 . S
C59 H41 0.941 . S
C59 C58 1.391 . S
C59 C60 1.396 . S
C60 H44 0.939 . S
C60 C59 1.396 . S
C60 C61 1.397 . S
C61 C60 1.397 . S
C61 C62 1.385 . S
C62 H45 0.940 . S
C62 C61 1.385 . S
C62 C63 1.388 . S
C63 H42 0.939 . S
C63 C58 1.391 . S
C63 C62 1.388 . S
P64 O75 1.490 . S
P64 C78 1.812 . S
P64 C84 1.803 . S
P64 C90 1.819 . S
H65 C79 0.941 . S
H66 C80 0.939 . S
H67 C82 0.940 . S
H68 C83 0.940 . S
H69 C85 0.939 . S
H70 C86 0.942 . S
H71 C88 0.940 . S
H72 C89 0.939 . S
H73 C91 0.941 . S
H74 C95 0.939 . S
O75 P64 1.490 . S
H76 C92 0.939 . S
H77 C94 0.940 . S
C78 P64 1.812 . S
C78 C79 1.389 . S
C78 C83 1.391 . S
C79 H65 0.941 . S
C79 C78 1.389 . S
C79 C80 1.397 . S
C80 H66 0.939 . S
C80 C79 1.397 . S
C80 C81 1.378 . S
C81 C80 1.378 . S
C81 C82 1.378 . S
C82 H67 0.940 . S
C82 C81 1.378 . S
C82 C83 1.396 . S
C83 H68 0.940 . S
C83 C78 1.391 . S
C83 C82 1.396 . S
C84 P64 1.803 . S
C84 C85 1.378 . S
C84 C89 1.400 . S
C85 H69 0.939 . S
C85 C84 1.378 . S
C85 C86 1.361 . S
C86 H70 0.942 . S
C86 C85 1.361 . S
C86 C87 1.369 . S
C87 C86 1.369 . S
C87 C88 1.404 . S
C88 H71 0.940 . S
C88 C87 1.404 . S
C88 C89 1.389 . S
C89 H72 0.939 . S
C89 C84 1.400 . S
C89 C88 1.389 . S
C90 P64 1.819 . S
C90 C91 1.391 . S
C90 C95 1.391 . S
C91 H73 0.941 . S
C91 C90 1.391 . S
C91 C92 1.396 . S
C92 H76 0.939 . S
C92 C91 1.396 . S
C92 C93 1.397 . S
C93 C92 1.397 . S
C93 C94 1.385 . S
C94 H77 0.940 . S
C94 C93 1.385 . S
C94 C95 1.388 . S
C95 H74 0.939 . S
C95 C90 1.391 . S
C95 C94 1.388 . S
P96 O107 1.490 . S
P96 C110 1.812 . S
P96 C116 1.803 . S
P96 C122 1.819 . S
H97 C111 0.941 . S
H98 C112 0.939 . S
H99 C114 0.940 . S
H100 C115 0.940 . S
H101 C117 0.939 . S
H102 C118 0.942 . S
H103 C120 0.940 . S
H104 C121 0.939 . S
H105 C123 0.941 . S
H106 C127 0.939 . S
O107 P96 1.490 . S
H108 C124 0.939 . S
H109 C126 0.940 . S
C110 P96 1.812 . S
C110 C111 1.389 . S
C110 C115 1.391 . S
C111 H97 0.941 . S
C111 C110 1.389 . S
C111 C112 1.397 . S
C112 H98 0.939 . S
C112 C111 1.397 . S
C112 C113 1.378 . S
C113 C112 1.378 . S
C113 C114 1.378 . S
C114 H99 0.940 . S
C114 C113 1.378 . S
C114 C115 1.396 . S
C115 H100 0.940 . S
C115 C110 1.391 . S
C115 C114 1.396 . S
C116 P96 1.803 . S
C116 C117 1.378 . S
C116 C121 1.400 . S
C117 H101 0.939 . S
C117 C116 1.378 . S
C117 C118 1.361 . S
C118 H102 0.942 . S
C118 C117 1.361 . S
C118 C119 1.369 . S
C119 C118 1.369 . S
C119 C120 1.404 . S
C120 H103 0.940 . S
C120 C119 1.404 . S
C120 C121 1.389 . S
C121 H104 0.939 . S
C121 C116 1.400 . S
C121 C120 1.389 . S
C122 P96 1.819 . S
C122 C123 1.391 . S
C122 C127 1.391 . S
C123 H105 0.941 . S
C123 C122 1.391 . S
C123 C124 1.396 . S
C124 H108 0.939 . S
C124 C123 1.396 . S
C124 C125 1.397 . S
C125 C124 1.397 . S
C125 C126 1.385 . S
C126 H109 0.940 . S
C126 C125 1.385 . S
C126 C127 1.388 . S
C127 H106 0.939 . S
C127 C122 1.391 . S
C127 C126 1.388 . S
P128 O139 1.490 . S
P128 C142 1.812 . S
P128 C148 1.803 . S
P128 C154 1.819 . S
H129 C143 0.941 . S
H130 C144 0.939 . S
H131 C146 0.940 . S
H132 C147 0.940 . S
H133 C149 0.939 . S
H134 C150 0.942 . S
H135 C152 0.940 . S
H136 C153 0.939 . S
H137 C155 0.941 . S
H138 C159 0.939 . S
O139 P128 1.490 . S
H140 C156 0.939 . S
H141 C158 0.940 . S
C142 P128 1.812 . S
C142 C143 1.389 . S
C142 C147 1.391 . S
C143 H129 0.941 . S
C143 C142 1.389 . S
C143 C144 1.397 . S
C144 H130 0.939 . S
C144 C143 1.397 . S
C144 C145 1.378 . S
C145 C144 1.378 . S
C145 C146 1.378 . S
C146 H131 0.940 . S
C146 C145 1.378 . S
C146 C147 1.396 . S
C147 H132 0.940 . S
C147 C142 1.391 . S
C147 C146 1.396 . S
C148 P128 1.803 . S
C148 C149 1.378 . S
C148 C153 1.400 . S
C149 H133 0.939 . S
C149 C148 1.378 . S
C149 C150 1.361 . S
C150 H134 0.942 . S
C150 C149 1.361 . S
C150 C151 1.369 . S
C151 C150 1.369 . S
C151 C152 1.404 . S
C152 H135 0.940 . S
C152 C151 1.404 . S
C152 C153 1.389 . S
C153 H136 0.939 . S
C153 C148 1.400 . S
C153 C152 1.389 . S
C154 P128 1.819 . S
C154 C155 1.391 . S
C154 C159 1.391 . S
C155 H137 0.941 . S
C155 C154 1.391 . S
C155 C156 1.396 . S
C156 H140 0.939 . S
C156 C155 1.396 . S
C156 C157 1.397 . S
C157 C156 1.397 . S
C157 C158 1.385 . S
C158 H141 0.940 . S
C158 C157 1.385 . S
C158 C159 1.388 . S
C159 H138 0.939 . S
C159 C154 1.391 . S
C159 C158 1.388 . S
P160 O171 1.490 . S
P160 C174 1.812 . S
P160 C180 1.803 . S
P160 C186 1.819 . S
H161 C175 0.941 . S
H162 C176 0.939 . S
H163 C178 0.940 . S
H164 C179 0.940 . S
H165 C181 0.939 . S
H166 C182 0.942 . S
H167 C184 0.940 . S
H168 C185 0.939 . S
H169 C187 0.941 . S
H170 C191 0.939 . S
O171 P160 1.490 . S
H172 C188 0.939 . S
H173 C190 0.940 . S
C174 P160 1.812 . S
C174 C175 1.389 . S
C174 C179 1.391 . S
C175 H161 0.941 . S
C175 C174 1.389 . S
C175 C176 1.397 . S
C176 H162 0.939 . S
C176 C175 1.397 . S
C176 C177 1.378 . S
C177 C176 1.378 . S
C177 C178 1.378 . S
C178 H163 0.940 . S
C178 C177 1.378 . S
C178 C179 1.396 . S
C179 H164 0.940 . S
C179 C174 1.391 . S
C179 C178 1.396 . S
C180 P160 1.803 . S
C180 C181 1.378 . S
C180 C185 1.400 . S
C181 H165 0.939 . S
C181 C180 1.378 . S
C181 C182 1.361 . S
C182 H166 0.942 . S
C182 C181 1.361 . S
C182 C183 1.369 . S
C183 C182 1.369 . S
C183 C184 1.404 . S
C184 H167 0.940 . S
C184 C183 1.404 . S
C184 C185 1.389 . S
C185 H168 0.939 . S
C185 C180 1.400 . S
C185 C184 1.389 . S
C186 P160 1.819 . S
C186 C187 1.391 . S
C186 C191 1.391 . S
C187 H169 0.941 . S
C187 C186 1.391 . S
C187 C188 1.396 . S
C188 H172 0.939 . S
C188 C187 1.396 . S
C188 C189 1.397 . S
C189 C188 1.397 . S
C189 C190 1.385 . S
C190 H173 0.940 . S
C190 C189 1.385 . S
C190 C191 1.388 . S
C191 H170 0.939 . S
C191 C186 1.391 . S
C191 C190 1.388 . S
P192 O203 1.490 1_655 S
P192 C206 1.812 . S
P192 C212 1.803 . S
P192 C218 1.819 . S
H193 C207 0.941 . S
H194 C208 0.939 . S
H195 C210 0.940 . S
H196 C211 0.940 . S
H197 C213 0.939 1_455 S
H198 C214 0.942 . S
H199 C216 0.940 . S
H200 C217 0.939 . S
H201 C219 0.941 . S
H202 C223 0.939 . S
O203 P192 1.490 1_455 S
H204 C220 0.939 . S
H205 C222 0.940 . S
C206 P192 1.812 . S
C206 C207 1.389 . S
C206 C211 1.391 . S
C207 H193 0.941 . S
C207 C206 1.389 . S
C207 C208 1.397 . S
C208 H194 0.939 . S
C208 C207 1.397 . S
C208 C209 1.378 . S
C209 C208 1.378 . S
C209 C210 1.378 . S
C210 H195 0.940 . S
C210 C209 1.378 . S
C210 C211 1.396 . S
C211 H196 0.940 . S
C211 C206 1.391 . S
C211 C210 1.396 . S
C212 P192 1.803 . S
C212 C213 1.378 . S
C212 C217 1.400 . S
C213 H197 0.939 1_655 S
C213 C212 1.378 . S
C213 C214 1.361 . S
C214 H198 0.942 . S
C214 C213 1.361 . S
C214 C215 1.369 . S
C215 C214 1.369 . S
C215 C216 1.404 . S
C216 H199 0.940 . S
C216 C215 1.404 . S
C216 C217 1.389 . S
C217 H200 0.939 . S
C217 C212 1.400 . S
C217 C216 1.389 . S
C218 P192 1.819 . S
C218 C219 1.391 1_655 S
C218 C223 1.391 . S
C219 H201 0.941 . S
C219 C218 1.391 1_455 S
C219 C220 1.396 . S
C220 H204 0.939 . S
C220 C219 1.396 . S
C220 C221 1.397 1_455 S
C221 C220 1.397 1_655 S
C221 C222 1.385 . S
C222 H205 0.940 . S
C222 C221 1.385 . S
C222 C223 1.388 . S
C223 H202 0.939 . S
C223 C218 1.391 . S
C223 C222 1.388 . S
P224 O235 1.490 . S
P224 C238 1.812 . S
P224 C244 1.803 . S
P224 C250 1.819 . S
H225 C239 0.941 . S
H226 C240 0.939 . S
H227 C242 0.940 . S
H228 C243 0.940 . S
H229 C245 0.939 . S
H230 C246 0.942 . S
H231 C248 0.940 . S
H232 C249 0.939 . S
H233 C251 0.941 . S
H234 C255 0.939 . S
O235 P224 1.490 . S
H236 C252 0.939 . S
H237 C254 0.940 . S
C238 P224 1.812 . S
C238 C239 1.389 . S
C238 C243 1.391 . S
C239 H225 0.941 . S
C239 C238 1.389 . S
C239 C240 1.397 . S
C240 H226 0.939 . S
C240 C239 1.397 . S
C240 C241 1.378 . S
C241 C240 1.378 . S
C241 C242 1.378 . S
C242 H227 0.940 . S
C242 C241 1.378 . S
C242 C243 1.396 . S
C243 H228 0.940 . S
C243 C238 1.391 . S
C243 C242 1.396 . S
C244 P224 1.803 . S
C244 C245 1.378 . S
C244 C249 1.400 . S
C245 H229 0.939 . S
C245 C244 1.378 . S
C245 C246 1.361 . S
C246 H230 0.942 . S
C246 C245 1.361 . S
C246 C247 1.369 . S
C247 C246 1.369 . S
C247 C248 1.404 . S
C248 H231 0.940 . S
C248 C247 1.404 . S
C248 C249 1.389 . S
C249 H232 0.939 . S
C249 C244 1.400 . S
C249 C248 1.389 . S
C250 P224 1.819 . S
C250 C251 1.391 . S
C250 C255 1.391 . S
C251 H233 0.941 . S
C251 C250 1.391 . S
C251 C252 1.396 . S
C252 H236 0.939 . S
C252 C251 1.396 . S
C252 C253 1.397 . S
C253 C252 1.397 . S
C253 C254 1.385 . S
C254 H237 0.940 . S
C254 C253 1.385 . S
C254 C255 1.388 . S
C255 H234 0.939 . S
C255 C250 1.391 . S
C255 C254 1.388 . S
P256 O267 1.490 . S
P256 C270 1.812 . S
P256 C276 1.803 . S
P256 C282 1.819 . S
H257 C271 0.941 . S
H258 C272 0.939 . S
H259 C274 0.940 . S
H260 C275 0.940 . S
H261 C277 0.939 . S
H262 C278 0.942 . S
H263 C280 0.940 . S
H264 C281 0.939 . S
H265 C283 0.941 . S
H266 C287 0.939 . S
O267 P256 1.490 . S
H268 C284 0.939 . S
H269 C286 0.940 . S
C270 P256 1.812 . S
C270 C271 1.389 . S
C270 C275 1.391 . S
C271 H257 0.941 . S
C271 C270 1.389 . S
C271 C272 1.397 . S
C272 H258 0.939 . S
C272 C271 1.397 . S
C272 C273 1.378 . S
C273 C272 1.378 . S
C273 C274 1.378 . S
C274 H259 0.940 . S
C274 C273 1.378 . S
C274 C275 1.396 . S
C275 H260 0.940 . S
C275 C270 1.391 . S
C275 C274 1.396 . S
C276 P256 1.803 . S
C276 C277 1.378 . S
C276 C281 1.400 . S
C277 H261 0.939 . S
C277 C276 1.378 . S
C277 C278 1.361 . S
C278 H262 0.942 . S
C278 C277 1.361 . S
C278 C279 1.369 . S
C279 C278 1.369 . S
C279 C280 1.404 . S
C280 H263 0.940 . S
C280 C279 1.404 . S
C280 C281 1.389 . S
C281 H264 0.939 . S
C281 C276 1.400 . S
C281 C280 1.389 . S
C282 P256 1.819 . S
C282 C283 1.391 . S
C282 C287 1.391 . S
C283 H265 0.941 . S
C283 C282 1.391 . S
C283 C284 1.396 . S
C284 H268 0.939 . S
C284 C283 1.396 . S
C284 C285 1.397 . S
C285 C284 1.397 . S
C285 C286 1.385 . S
C286 H269 0.940 . S
C286 C285 1.385 . S
C286 C287 1.388 . S
C287 H266 0.939 . S
C287 C282 1.391 . S
C287 C286 1.388 . S
P288 O299 1.490 . S
P288 C302 1.812 . S
P288 C308 1.803 . S
P288 C314 1.819 . S
H289 C303 0.941 . S
H290 C304 0.939 . S
H291 C306 0.940 . S
H292 C307 0.940 . S
H293 C309 0.939 . S
H294 C310 0.942 . S
H295 C312 0.940 . S
H296 C313 0.939 . S
H297 C315 0.941 . S
H298 C319 0.939 . S
O299 P288 1.490 . S
H300 C316 0.939 . S
H301 C318 0.940 . S
C302 P288 1.812 . S
C302 C303 1.389 . S
C302 C307 1.391 . S
C303 H289 0.941 . S
C303 C302 1.389 . S
C303 C304 1.397 . S
C304 H290 0.939 . S
C304 C303 1.397 . S
C304 C305 1.378 . S
C305 C304 1.378 . S
C305 C306 1.378 . S
C306 H291 0.940 . S
C306 C305 1.378 . S
C306 C307 1.396 . S
C307 H292 0.940 . S
C307 C302 1.391 . S
C307 C306 1.396 . S
C308 P288 1.803 . S
C308 C309 1.378 . S
C308 C313 1.400 . S
C309 H293 0.939 . S
C309 C308 1.378 . S
C309 C310 1.361 . S
C310 H294 0.942 . S
C310 C309 1.361 . S
C310 C311 1.369 . S
C311 C310 1.369 . S
C311 C312 1.404 . S
C312 H295 0.940 . S
C312 C311 1.404 . S
C312 C313 1.389 . S
C313 H296 0.939 . S
C313 C308 1.400 . S
C313 C312 1.389 . S
C314 P288 1.819 . S
C314 C315 1.391 . S
C314 C319 1.391 . S
C315 H297 0.941 . S
C315 C314 1.391 . S
C315 C316 1.396 . S
C316 H300 0.939 . S
C316 C315 1.396 . S
C316 C317 1.397 . S
C317 C316 1.397 . S
C317 C318 1.385 . S
C318 H301 0.940 . S
C318 C317 1.385 . S
C318 C319 1.388 . S
C319 H298 0.939 . S
C319 C314 1.391 . S
C319 C318 1.388 . S
P320 O331 1.490 . S
P320 C334 1.812 . S
P320 C340 1.803 . S
P320 C346 1.819 . S
H321 C335 0.941 . S
H322 C336 0.939 . S
H323 C338 0.940 . S
H324 C339 0.940 . S
H325 C341 0.939 . S
H326 C342 0.942 . S
H327 C344 0.940 . S
H328 C345 0.939 . S
H329 C347 0.941 . S
H330 C351 0.939 . S
O331 P320 1.490 . S
H332 C348 0.939 . S
H333 C350 0.940 . S
C334 P320 1.812 . S
C334 C335 1.389 . S
C334 C339 1.391 . S
C335 H321 0.941 . S
C335 C334 1.389 . S
C335 C336 1.397 . S
C336 H322 0.939 . S
C336 C335 1.397 . S
C336 C337 1.378 . S
C337 C336 1.378 . S
C337 C338 1.378 . S
C338 H323 0.940 . S
C338 C337 1.378 . S
C338 C339 1.396 . S
C339 H324 0.940 . S
C339 C334 1.391 . S
C339 C338 1.396 . S
C340 P320 1.803 . S
C340 C341 1.378 . S
C340 C345 1.400 . S
C341 H325 0.939 . S
C341 C340 1.378 . S
C341 C342 1.361 . S
C342 H326 0.942 . S
C342 C341 1.361 . S
C342 C343 1.369 . S
C343 C342 1.369 . S
C343 C344 1.404 . S
C344 H327 0.940 . S
C344 C343 1.404 . S
C344 C345 1.389 . S
C345 H328 0.939 . S
C345 C340 1.400 . S
C345 C344 1.389 . S
C346 P320 1.819 . S
C346 C347 1.391 . S
C346 C351 1.391 . S
C347 H329 0.941 . S
C347 C346 1.391 . S
C347 C348 1.396 . S
C348 H332 0.939 . S
C348 C347 1.396 . S
C348 C349 1.397 . S
C349 C348 1.397 . S
C349 C350 1.385 . S
C350 H333 0.940 . S
C350 C349 1.385 . S
C350 C351 1.388 . S
C351 H330 0.939 . S
C351 C346 1.391 . S
C351 C350 1.388 . S
P352 O363 1.490 . S
P352 C366 1.812 . S
P352 C372 1.803 . S
P352 C378 1.819 . S
H353 C367 0.941 . S
H354 C368 0.939 . S
H355 C370 0.940 . S
H356 C371 0.940 . S
H357 C373 0.939 . S
H358 C374 0.942 . S
H359 C376 0.940 . S
H360 C377 0.939 . S
H361 C379 0.941 . S
H362 C383 0.939 . S
O363 P352 1.490 . S
H364 C380 0.939 . S
H365 C382 0.940 . S
C366 P352 1.812 . S
C366 C367 1.389 . S
C366 C371 1.391 . S
C367 H353 0.941 . S
C367 C366 1.389 . S
C367 C368 1.397 . S
C368 H354 0.939 . S
C368 C367 1.397 . S
C368 C369 1.378 . S
C369 C368 1.378 . S
C369 C370 1.378 . S
C370 H355 0.940 . S
C370 C369 1.378 . S
C370 C371 1.396 . S
C371 H356 0.940 . S
C371 C366 1.391 . S
C371 C370 1.396 . S
C372 P352 1.803 . S
C372 C373 1.378 . S
C372 C377 1.400 . S
C373 H357 0.939 . S
C373 C372 1.378 . S
C373 C374 1.361 . S
C374 H358 0.942 . S
C374 C373 1.361 . S
C374 C375 1.369 . S
C375 C374 1.369 . S
C375 C376 1.404 . S
C376 H359 0.940 . S
C376 C375 1.404 . S
C376 C377 1.389 . S
C377 H360 0.939 . S
C377 C372 1.400 . S
C377 C376 1.389 . S
C378 P352 1.819 . S
C378 C379 1.391 . S
C378 C383 1.391 . S
C379 H361 0.941 . S
C379 C378 1.391 . S
C379 C380 1.396 . S
C380 H364 0.939 . S
C380 C379 1.396 . S
C380 C381 1.397 . S
C381 C380 1.397 . S
C381 C382 1.385 . S
C382 H365 0.940 . S
C382 C381 1.385 . S
C382 C383 1.388 . S
C383 H362 0.939 . S
C383 C378 1.391 . S
C383 C382 1.388 . S
P384 O395 1.490 . S
P384 C398 1.812 . S
P384 C404 1.803 . S
P384 C410 1.819 . S
H385 C399 0.941 . S
H386 C400 0.939 . S
H387 C402 0.940 . S
H388 C403 0.940 . S
H389 C405 0.939 . S
H390 C406 0.942 . S
H391 C408 0.940 . S
H392 C409 0.939 . S
H393 C411 0.941 . S
H394 C415 0.939 . S
O395 P384 1.490 . S
H396 C412 0.939 . S
H397 C414 0.940 . S
C398 P384 1.812 . S
C398 C399 1.389 . S
C398 C403 1.391 . S
C399 H385 0.941 . S
C399 C398 1.389 . S
C399 C400 1.397 . S
C400 H386 0.939 . S
C400 C399 1.397 . S
C400 C401 1.378 . S
C401 C400 1.378 . S
C401 C402 1.378 . S
C402 H387 0.940 . S
C402 C401 1.378 . S
C402 C403 1.396 . S
C403 H388 0.940 . S
C403 C398 1.391 . S
C403 C402 1.396 . S
C404 P384 1.803 . S
C404 C405 1.378 . S
C404 C409 1.400 . S
C405 H389 0.939 . S
C405 C404 1.378 . S
C405 C406 1.361 . S
C406 H390 0.942 . S
C406 C405 1.361 . S
C406 C407 1.369 . S
C407 C406 1.369 . S
C407 C408 1.404 . S
C408 H391 0.940 . S
C408 C407 1.404 . S
C408 C409 1.389 . S
C409 H392 0.939 . S
C409 C404 1.400 . S
C409 C408 1.389 . S
C410 P384 1.819 . S
C410 C411 1.391 . S
C410 C415 1.391 . S
C411 H393 0.941 . S
C411 C410 1.391 . S
C411 C412 1.396 . S
C412 H396 0.939 . S
C412 C411 1.396 . S
C412 C413 1.397 . S
C413 C412 1.397 . S
C413 C414 1.385 . S
C414 H397 0.940 . S
C414 C413 1.385 . S
C414 C415 1.388 . S
C415 H394 0.939 . S
C415 C410 1.391 . S
C415 C414 1.388 . S
P416 O427 1.490 . S
P416 C430 1.812 . S
P416 C436 1.803 . S
P416 C442 1.819 . S
H417 C431 0.941 . S
H418 C432 0.939 . S
H419 C434 0.940 . S
H420 C435 0.940 . S
H421 C437 0.939 . S
H422 C438 0.942 . S
H423 C440 0.940 . S
H424 C441 0.939 . S
H425 C443 0.941 . S
H426 C447 0.939 . S
O427 P416 1.490 . S
H428 C444 0.939 . S
H429 C446 0.940 . S
C430 P416 1.812 . S
C430 C431 1.389 . S
C430 C435 1.391 . S
C431 H417 0.941 . S
C431 C430 1.389 . S
C431 C432 1.397 . S
C432 H418 0.939 . S
C432 C431 1.397 . S
C432 C433 1.378 . S
C433 C432 1.378 . S
C433 C434 1.378 . S
C434 H419 0.940 . S
C434 C433 1.378 . S
C434 C435 1.396 . S
C435 H420 0.940 . S
C435 C430 1.391 . S
C435 C434 1.396 . S
C436 P416 1.803 . S
C436 C437 1.378 . S
C436 C441 1.400 . S
C437 H421 0.939 . S
C437 C436 1.378 . S
C437 C438 1.361 . S
C438 H422 0.942 . S
C438 C437 1.361 . S
C438 C439 1.369 . S
C439 C438 1.369 . S
C439 C440 1.404 . S
C440 H423 0.940 . S
C440 C439 1.404 . S
C440 C441 1.389 . S
C441 H424 0.939 . S
C441 C436 1.400 . S
C441 C440 1.389 . S
C442 P416 1.819 . S
C442 C443 1.391 . S
C442 C447 1.391 . S
C443 H425 0.941 . S
C443 C442 1.391 . S
C443 C444 1.396 . S
C444 H428 0.939 . S
C444 C443 1.396 . S
C444 C445 1.397 . S
C445 C444 1.397 . S
C445 C446 1.385 . S
C446 H429 0.940 . S
C446 C445 1.385 . S
C446 C447 1.388 . S
C447 H426 0.939 . S
C447 C442 1.391 . S
C447 C446 1.388 . S
P448 O459 1.490 . S
P448 C462 1.812 . S
P448 C468 1.803 . S
P448 C474 1.819 . S
H449 C463 0.941 . S
H450 C464 0.939 . S
H451 C466 0.940 . S
H452 C467 0.940 . S
H453 C469 0.939 . S
H454 C470 0.942 . S
H455 C472 0.940 . S
H456 C473 0.939 . S
H457 C475 0.941 . S
H458 C479 0.939 . S
O459 P448 1.490 . S
H460 C476 0.939 . S
H461 C478 0.940 . S
C462 P448 1.812 . S
C462 C463 1.389 . S
C462 C467 1.391 . S
C463 H449 0.941 . S
C463 C462 1.389 . S
C463 C464 1.397 . S
C464 H450 0.939 . S
C464 C463 1.397 . S
C464 C465 1.378 . S
C465 C464 1.378 . S
C465 C466 1.378 . S
C466 H451 0.940 . S
C466 C465 1.378 . S
C466 C467 1.396 . S
C467 H452 0.940 . S
C467 C462 1.391 . S
C467 C466 1.396 . S
C468 P448 1.803 . S
C468 C469 1.378 . S
C468 C473 1.400 . S
C469 H453 0.939 . S
C469 C468 1.378 . S
C469 C470 1.361 . S
C470 H454 0.942 . S
C470 C469 1.361 . S
C470 C471 1.369 . S
C471 C470 1.369 . S
C471 C472 1.404 . S
C472 H455 0.940 . S
C472 C471 1.404 . S
C472 C473 1.389 . S
C473 H456 0.939 . S
C473 C468 1.400 . S
C473 C472 1.389 . S
C474 P448 1.819 . S
C474 C475 1.391 . S
C474 C479 1.391 . S
C475 H457 0.941 . S
C475 C474 1.391 . S
C475 C476 1.396 . S
C476 H460 0.939 . S
C476 C475 1.396 . S
C476 C477 1.397 . S
C477 C476 1.397 . S
C477 C478 1.385 . S
C478 H461 0.940 . S
C478 C477 1.385 . S
C478 C479 1.388 . S
C479 H458 0.939 . S
C479 C474 1.391 . S
C479 C478 1.388 . S
P480 O491 1.490 . S
P480 C494 1.812 . S
P480 C500 1.803 . S
P480 C506 1.819 . S
H481 C495 0.941 . S
H482 C496 0.939 . S
H483 C498 0.940 . S
H484 C499 0.940 . S
H485 C501 0.939 . S
H486 C502 0.942 . S
H487 C504 0.940 . S
H488 C505 0.939 . S
H489 C507 0.941 . S
H490 C511 0.939 . S
O491 P480 1.490 . S
H492 C508 0.939 . S
H493 C510 0.940 . S
C494 P480 1.812 . S
C494 C495 1.389 . S
C494 C499 1.391 . S
C495 H481 0.941 . S
C495 C494 1.389 . S
C495 C496 1.397 . S
C496 H482 0.939 . S
C496 C495 1.397 . S
C496 C497 1.378 . S
C497 C496 1.378 . S
C497 C498 1.378 . S
C498 H483 0.940 . S
C498 C497 1.378 . S
C498 C499 1.396 . S
C499 H484 0.940 . S
C499 C494 1.391 . S
C499 C498 1.396 . S
C500 P480 1.803 . S
C500 C501 1.378 . S
C500 C505 1.400 . S
C501 H485 0.939 . S
C501 C500 1.378 . S
C501 C502 1.361 . S
C502 H486 0.942 . S
C502 C501 1.361 . S
C502 C503 1.369 . S
C503 C502 1.369 . S
C503 C504 1.404 . S
C504 H487 0.940 . S
C504 C503 1.404 . S
C504 C505 1.389 . S
C505 H488 0.939 . S
C505 C500 1.400 . S
C505 C504 1.389 . S
C506 P480 1.819 . S
C506 C507 1.391 . S
C506 C511 1.391 . S
C507 H489 0.941 . S
C507 C506 1.391 . S
C507 C508 1.396 . S
C508 H492 0.939 . S
C508 C507 1.396 . S
C508 C509 1.397 . S
C509 C508 1.397 . S
C509 C510 1.385 . S
C510 H493 0.940 . S
C510 C509 1.385 . S
C510 C511 1.388 . S
C511 H490 0.939 . S
C511 C506 1.391 . S
C511 C510 1.388 . S
P512 O523 1.490 . S
P512 C526 1.812 . S
P512 C532 1.803 . S
P512 C538 1.819 . S
H513 C527 0.941 . S
H514 C528 0.939 . S
H515 C530 0.940 . S
H516 C531 0.940 . S
H517 C533 0.939 . S
H518 C534 0.942 . S
H519 C536 0.940 . S
H520 C537 0.939 . S
H521 C539 0.941 . S
H522 C543 0.939 . S
O523 P512 1.490 . S
H524 C540 0.939 . S
H525 C542 0.940 . S
C526 P512 1.812 . S
C526 C527 1.389 . S
C526 C531 1.391 . S
C527 H513 0.941 . S
C527 C526 1.389 . S
C527 C528 1.397 . S
C528 H514 0.939 . S
C528 C527 1.397 . S
C528 C529 1.378 . S
C529 C528 1.378 . S
C529 C530 1.378 . S
C530 H515 0.940 . S
C530 C529 1.378 . S
C530 C531 1.396 . S
C531 H516 0.940 . S
C531 C526 1.391 . S
C531 C530 1.396 . S
C532 P512 1.803 . S
C532 C533 1.378 . S
C532 C537 1.400 . S
C533 H517 0.939 . S
C533 C532 1.378 . S
C533 C534 1.361 . S
C534 H518 0.942 . S
C534 C533 1.361 . S
C534 C535 1.369 . S
C535 C534 1.369 . S
C535 C536 1.404 . S
C536 H519 0.940 . S
C536 C535 1.404 . S
C536 C537 1.389 . S
C537 H520 0.939 . S
C537 C532 1.400 . S
C537 C536 1.389 . S
C538 P512 1.819 . S
C538 C539 1.391 . S
C538 C543 1.391 . S
C539 H521 0.941 . S
C539 C538 1.391 . S
C539 C540 1.396 . S
C540 H524 0.939 . S
C540 C539 1.396 . S
C540 C541 1.397 . S
C541 C540 1.397 . S
C541 C542 1.385 . S
C542 H525 0.940 . S
C542 C541 1.385 . S
C542 C543 1.388 . S
C543 H522 0.939 . S
C543 C538 1.391 . S
C543 C542 1.388 . S
P544 O555 1.490 . S
P544 C558 1.812 . S
P544 C564 1.803 . S
P544 C570 1.819 . S
H545 C559 0.941 . S
H546 C560 0.939 . S
H547 C562 0.940 . S
H548 C563 0.940 . S
H549 C565 0.939 . S
H550 C566 0.942 . S
H551 C568 0.940 . S
H552 C569 0.939 . S
H553 C571 0.941 . S
H554 C575 0.939 . S
O555 P544 1.490 . S
H556 C572 0.939 . S
H557 C574 0.940 . S
C558 P544 1.812 . S
C558 C559 1.389 . S
C558 C563 1.391 . S
C559 H545 0.941 . S
C559 C558 1.389 . S
C559 C560 1.397 . S
C560 H546 0.939 . S
C560 C559 1.397 . S
C560 C561 1.378 . S
C561 C560 1.378 . S
C561 C562 1.378 . S
C562 H547 0.940 . S
C562 C561 1.378 . S
C562 C563 1.396 . S
C563 H548 0.940 . S
C563 C558 1.391 . S
C563 C562 1.396 . S
C564 P544 1.803 . S
C564 C565 1.378 . S
C564 C569 1.400 . S
C565 H549 0.939 . S
C565 C564 1.378 . S
C565 C566 1.361 . S
C566 H550 0.942 . S
C566 C565 1.361 . S
C566 C567 1.369 . S
C567 C566 1.369 . S
C567 C568 1.404 . S
C568 H551 0.940 . S
C568 C567 1.404 . S
C568 C569 1.389 . S
C569 H552 0.939 . S
C569 C564 1.400 . S
C569 C568 1.389 . S
C570 P544 1.819 . S
C570 C571 1.391 . S
C570 C575 1.391 . S
C571 H553 0.941 . S
C571 C570 1.391 . S
C571 C572 1.396 . S
C572 H556 0.939 . S
C572 C571 1.396 . S
C572 C573 1.397 . S
C573 C572 1.397 . S
C573 C574 1.385 . S
C574 H557 0.940 . S
C574 C573 1.385 . S
C574 C575 1.388 . S
C575 H554 0.939 . S
C575 C570 1.391 . S
C575 C574 1.388 . S
Eu576 C585 2.828 . S
Eu576 O587 2.358 1_556 S
Eu576 O589 2.418 . S
Eu576 O594 2.373 1_565 S
Eu576 O597 2.488 . S
Eu576 O598 2.471 1_565 S
Eu576 O599 2.349 1_565 S
Eu577 O586 2.373 1_545 S
Eu577 O590 2.488 . S
Eu577 O591 2.471 1_545 S
Eu577 O592 2.349 1_545 S
Eu577 O595 2.392 . S
Eu577 O596 2.418 . S
Eu577 C606 2.828 . S
C578 O596 1.308 . S
C578 O599 1.241 1_554 S
C579 C580 1.379 1_565 S
C579 C583 1.373 . S
C579 C585 1.505 . S
C580 C579 1.379 1_545 S
C580 C582 1.369 . S
C580 H608 0.930 . S
C581 C583 1.383 . S
C581 C584 1.382 1_565 S
C581 H609 0.930 . S
C582 C580 1.369 . S
C582 C584 1.392 . S
C582 H610 0.930 . S
C583 C579 1.373 . S
C583 C581 1.383 . S
C583 H611 0.931 . S
C584 C581 1.382 1_545 S
C584 C582 1.392 . S
C585 Eu576 2.828 . S
C585 C579 1.505 . S
C585 O597 1.249 . S
C585 O598 1.244 1_565 S
O586 Eu577 2.373 1_565 S
O586 C588 1.258 . S
O587 Eu576 2.358 1_554 S
O587 C588 1.283 . S
C588 O586 1.258 . S
C588 O587 1.283 . S
O589 Eu576 2.418 . S
O589 C593 1.244 1_556 S
O590 Eu577 2.488 . S
O590 C606 1.249 . S
O591 Eu577 2.471 1_565 S
O591 C606 1.244 1_565 S
O592 Eu577 2.349 1_565 S
O592 C593 1.265 . S
C593 O589 1.244 1_554 S
C593 O592 1.265 . S
O594 Eu576 2.373 1_545 S
O594 C607 1.258 . S
O595 Eu577 2.392 . S
O595 C607 1.242 1_554 S
O596 Eu577 2.418 . S
O596 C578 1.308 . S
O597 Eu576 2.488 . S
O597 C585 1.249 . S
O598 Eu576 2.471 1_545 S
O598 C585 1.244 1_545 S
O599 Eu576 2.349 1_545 S
O599 C578 1.241 1_556 S
C600 C601 1.379 1_545 S
C600 C604 1.373 . S
C600 C606 1.505 . S
C601 C600 1.379 1_565 S
C601 C603 1.369 . S
C601 H612 0.930 . S
C602 C604 1.383 . S
C602 C605 1.382 1_545 S
C602 H613 0.930 . S
C603 C601 1.369 . S
C603 C605 1.392 . S
C603 H614 0.930 . S
C604 C600 1.373 . S
C604 C602 1.383 . S
C604 H615 0.931 . S
C605 C602 1.382 1_565 S
C605 C603 1.392 . S
C606 Eu577 2.828 . S
C606 O590 1.249 . S
C606 O591 1.244 1_545 S
C606 C600 1.505 . S
C607 O594 1.258 . S
C607 O595 1.242 1_556 S
H608 C580 0.930 . S
H609 C581 0.930 . S
H610 C582 0.930 . S
H611 C583 0.931 . S
H612 C601 0.930 . S
H613 C602 0.930 . S
H614 C603 0.930 . S
H615 C604 0.931 . S
Eu616 C625 2.828 . S
Eu616 O627 2.392 1_556 S
Eu616 O629 2.418 . S
Eu616 O634 2.373 1_455 S
Eu616 O637 2.488 . S
Eu616 O638 2.471 1_455 S
Eu616 O639 2.349 1_455 S
Eu617 O626 2.373 1_655 S
Eu617 O630 2.488 . S
Eu617 O631 2.471 1_655 S
Eu617 O632 2.349 1_655 S
Eu617 O635 2.392 . S
Eu617 O636 2.418 . S
Eu617 C646 2.828 . S
C618 O636 1.244 1_556 S
C618 O639 1.265 . S
C619 C620 1.353 1_455 S
C619 C623 1.388 . S
C619 C625 1.517 . S
C620 C619 1.353 1_655 S
C620 C622 1.369 . S
C620 H648 0.930 . S
C621 C623 1.383 . S
C621 C624 1.382 1_455 S
C621 H649 0.930 . S
C622 C620 1.369 . S
C622 C624 1.392 . S
C622 H650 0.930 . S
C623 C619 1.388 . S
C623 C621 1.383 . S
C623 H651 0.931 . S
C624 C621 1.382 1_655 S
C624 C622 1.392 . S
C625 Eu616 2.828 . S
C625 C619 1.517 . S
C625 O637 1.249 . S
C625 O638 1.244 1_455 S
O626 Eu617 2.373 1_455 S
O626 C628 1.258 . S
O627 Eu616 2.392 1_554 S
O627 C628 1.242 . S
C628 O626 1.258 . S
C628 O627 1.242 . S
O629 Eu616 2.418 . S
O629 C633 1.244 1_556 S
O630 Eu617 2.488 . S
O630 C646 1.249 . S
O631 Eu617 2.471 1_455 S
O631 C646 1.244 1_455 S
O632 Eu617 2.349 1_455 S
O632 C633 1.265 . S
C633 O629 1.244 1_554 S
C633 O632 1.265 . S
O634 Eu616 2.373 1_655 S
O634 C647 1.258 . S
O635 Eu617 2.392 . S
O635 C647 1.242 1_554 S
O636 Eu617 2.418 . S
O636 C618 1.244 1_554 S
O637 Eu616 2.488 . S
O637 C625 1.249 . S
O638 Eu616 2.471 1_655 S
O638 C625 1.244 1_655 S
O639 Eu616 2.349 1_655 S
O639 C618 1.265 . S
C640 C641 1.379 . S
C640 C644 1.373 1_455 S
C640 C646 1.505 1_455 S
C641 C640 1.379 . S
C641 C643 1.369 . S
C641 H652 0.930 . S
C642 C644 1.383 . S
C642 C645 1.382 1_655 S
C642 H653 0.930 . S
C643 C641 1.369 . S
C643 C645 1.392 . S
C643 H654 0.930 . S
C644 C640 1.373 1_655 S
C644 C642 1.383 . S
C644 H655 0.931 . S
C645 C642 1.382 1_455 S
C645 C643 1.392 . S
C646 Eu617 2.828 . S
C646 O630 1.249 . S
C646 O631 1.244 1_655 S
C646 C640 1.505 1_655 S
C647 O634 1.258 . S
C647 O635 1.242 1_556 S
H648 C620 0.930 . S
H649 C621 0.930 . S
H650 C622 0.930 . S
H651 C623 0.931 . S
H652 C641 0.930 . S
H653 C642 0.930 . S
H654 C643 0.930 . S
H655 C644 0.931 . S
Eu656 C665 2.828 . S
Eu656 O667 2.392 . S
Eu656 O669 2.418 . S
Eu656 O674 2.373 . S
Eu656 O677 2.488 . S
Eu656 O678 2.471 . S
Eu656 O679 2.349 . S
Eu657 O666 2.373 . S
Eu657 O670 2.488 . S
Eu657 O671 2.471 . S
Eu657 O672 2.349 . S
Eu657 O675 2.392 1_556 S
Eu657 O676 2.418 . S
Eu657 C686 2.828 . S
C658 O676 1.244 1_554 S
C658 O679 1.265 . S
C659 C660 1.379 . S
C659 C663 1.373 . S
C659 C665 1.505 . S
C660 C659 1.379 . S
C660 C662 1.369 . S
C660 H688 0.930 . S
C661 C663 1.383 . S
C661 C664 1.382 . S
C661 H689 0.930 . S
C662 C660 1.369 . S
C662 C664 1.392 . S
C662 H690 0.930 . S
C663 C659 1.373 . S
C663 C661 1.383 . S
C663 H691 0.931 . S
C664 C661 1.382 . S
C664 C662 1.392 . S
C665 Eu656 2.828 . S
C665 C659 1.505 . S
C665 O677 1.249 . S
C665 O678 1.244 . S
O666 Eu657 2.373 . S
O666 C668 1.258 . S
O667 Eu656 2.392 . S
O667 C668 1.242 1_554 S
C668 O666 1.258 . S
C668 O667 1.242 1_556 S
O669 Eu656 2.418 . S
O669 C673 1.244 1_554 S
O670 Eu657 2.488 . S
O670 C686 1.249 . S
O671 Eu657 2.471 . S
O671 C686 1.244 . S
O672 Eu657 2.349 . S
O672 C673 1.265 . S
C673 O669 1.244 1_556 S
C673 O672 1.265 . S
O674 Eu656 2.373 . S
O674 C687 1.258 . S
O675 Eu657 2.392 1_554 S
O675 C687 1.242 . S
O676 Eu657 2.418 . S
O676 C658 1.244 1_556 S
O677 Eu656 2.488 . S
O677 C665 1.249 . S
O678 Eu656 2.471 . S
O678 C665 1.244 . S
O679 Eu656 2.349 . S
O679 C658 1.265 . S
C680 C681 1.379 . S
C680 C684 1.373 . S
C680 C686 1.505 . S
C681 C680 1.379 . S
C681 C683 1.369 . S
C681 H692 0.930 . S
C682 C684 1.383 . S
C682 C685 1.382 . S
C682 H693 0.930 . S
C683 C681 1.369 . S
C683 C685 1.392 . S
C683 H694 0.930 . S
C684 C680 1.373 . S
C684 C682 1.383 . S
C684 H695 0.931 . S
C685 C682 1.382 . S
C685 C683 1.392 . S
C686 Eu657 2.828 . S
C686 O670 1.249 . S
C686 O671 1.244 . S
C686 C680 1.505 . S
C687 O674 1.258 . S
C687 O675 1.242 . S
H688 C660 0.930 . S
H689 C661 0.930 . S
H690 C662 0.930 . S
H691 C663 0.931 . S
H692 C681 0.930 . S
H693 C682 0.930 . S
H694 C683 0.930 . S
H695 C684 0.931 . S
Eu696 C705 2.828 . S
Eu696 O707 2.392 . S
Eu696 O709 2.418 . S
Eu696 O714 2.373 . S
Eu696 O717 2.488 . S
Eu696 O718 2.471 . S
Eu696 O719 2.349 . S
Eu697 O706 2.373 . S
Eu697 O710 2.488 . S
Eu697 O711 2.471 . S
Eu697 O712 2.349 . S
Eu697 O715 2.392 . S
Eu697 O716 2.418 . S
Eu697 C726 2.828 . S
C698 O716 1.244 . S
C698 O719 1.265 . S
C699 C700 1.379 . S
C699 C703 1.373 . S
C699 C705 1.505 . S
C700 C699 1.379 . S
C700 C702 1.369 . S
C700 H728 0.930 . S
C701 C703 1.383 . S
C701 C704 1.382 . S
C701 H729 0.930 . S
C702 C700 1.369 . S
C702 C704 1.392 . S
C702 H730 0.930 . S
C703 C699 1.373 . S
C703 C701 1.383 . S
C703 H731 0.931 . S
C704 C701 1.382 . S
C704 C702 1.392 . S
C705 Eu696 2.828 . S
C705 C699 1.505 . S
C705 O717 1.249 . S
C705 O718 1.244 . S
O706 Eu697 2.373 . S
O706 C708 1.258 . S
O707 Eu696 2.392 . S
O707 C708 1.242 . S
C708 O706 1.258 . S
C708 O707 1.242 . S
O709 Eu696 2.418 . S
O709 C713 1.244 . S
O710 Eu697 2.488 . S
O710 C726 1.249 . S
O711 Eu697 2.471 . S
O711 C726 1.244 . S
O712 Eu697 2.349 . S
O712 C713 1.265 . S
C713 O709 1.244 . S
C713 O712 1.265 . S
O714 Eu696 2.373 . S
O714 C727 1.258 . S
O715 Eu697 2.392 . S
O715 C727 1.242 . S
O716 Eu697 2.418 . S
O716 C698 1.244 . S
O717 Eu696 2.488 . S
O717 C705 1.249 . S
O718 Eu696 2.471 . S
O718 C705 1.244 . S
O719 Eu696 2.349 . S
O719 C698 1.265 . S
C720 C721 1.379 . S
C720 C724 1.373 . S
C720 C726 1.505 . S
C721 C720 1.379 . S
C721 C723 1.369 . S
C721 H732 0.930 . S
C722 C724 1.383 . S
C722 C725 1.382 . S
C722 H733 0.930 . S
C723 C721 1.369 . S
C723 C725 1.392 . S
C723 H734 0.930 . S
C724 C720 1.373 . S
C724 C722 1.383 . S
C724 H735 0.931 . S
C725 C722 1.382 . S
C725 C723 1.392 . S
C726 Eu697 2.828 . S
C726 O710 1.249 . S
C726 O711 1.244 . S
C726 C720 1.505 . S
C727 O714 1.258 . S
C727 O715 1.242 . S
H728 C700 0.930 . S
H729 C701 0.930 . S
H730 C702 0.930 . S
H731 C703 0.931 . S
H732 C721 0.930 . S
H733 C722 0.930 . S
H734 C723 0.930 . S
H735 C724 0.931 . S
Eu736 C745 2.828 . S
Eu736 O747 2.392 . S
Eu736 O749 2.418 . S
Eu736 O754 2.373 . S
Eu736 O757 2.488 . S
Eu736 O758 2.471 . S
Eu736 O759 2.349 . S
Eu737 O746 2.373 . S
Eu737 O750 2.488 . S
Eu737 O751 2.471 . S
Eu737 O752 2.349 . S
Eu737 O755 2.392 . S
Eu737 O756 2.418 . S
Eu737 C766 2.828 . S
C738 O756 1.244 . S
C738 O759 1.265 . S
C739 C740 1.379 . S
C739 C743 1.373 . S
C739 C745 1.505 . S
C740 C739 1.379 . S
C740 C742 1.369 . S
C740 H768 0.930 . S
C741 C743 1.383 . S
C741 C744 1.382 . S
C741 H769 0.930 . S
C742 C740 1.369 . S
C742 C744 1.392 . S
C742 H770 0.930 . S
C743 C739 1.373 . S
C743 C741 1.383 . S
C743 H771 0.931 . S
C744 C741 1.382 . S
C744 C742 1.392 . S
C745 Eu736 2.828 . S
C745 C739 1.505 . S
C745 O757 1.249 . S
C745 O758 1.244 . S
O746 Eu737 2.373 . S
O746 C748 1.258 . S
O747 Eu736 2.392 . S
O747 C748 1.242 . S
C748 O746 1.258 . S
C748 O747 1.242 . S
O749 Eu736 2.418 . S
O749 C753 1.244 . S
O750 Eu737 2.488 . S
O750 C766 1.249 . S
O751 Eu737 2.471 . S
O751 C766 1.244 . S
O752 Eu737 2.349 . S
O752 C753 1.265 . S
C753 O749 1.244 . S
C753 O752 1.265 . S
O754 Eu736 2.373 . S
O754 C767 1.258 . S
O755 Eu737 2.392 . S
O755 C767 1.242 . S
O756 Eu737 2.418 . S
O756 C738 1.244 . S
O757 Eu736 2.488 . S
O757 C745 1.249 . S
O758 Eu736 2.471 . S
O758 C745 1.244 . S
O759 Eu736 2.349 . S
O759 C738 1.265 . S
C760 C761 1.379 . S
C760 C764 1.373 . S
C760 C766 1.505 . S
C761 C760 1.379 . S
C761 C763 1.369 . S
C761 H772 0.930 . S
C762 C764 1.383 . S
C762 C765 1.382 . S
C762 H773 0.930 . S
C763 C761 1.369 . S
C763 C765 1.392 . S
C763 H774 0.930 . S
C764 C760 1.373 . S
C764 C762 1.383 . S
C764 H775 0.931 . S
C765 C762 1.382 . S
C765 C763 1.392 . S
C766 Eu737 2.828 . S
C766 O750 1.249 . S
C766 O751 1.244 . S
C766 C760 1.505 . S
C767 O754 1.258 . S
C767 O755 1.242 . S
H768 C740 0.930 . S
H769 C741 0.930 . S
H770 C742 0.930 . S
H771 C743 0.931 . S
H772 C761 0.930 . S
H773 C762 0.930 . S
H774 C763 0.930 . S
H775 C764 0.931 . S
Eu776 C785 2.828 . S
Eu776 O787 2.392 . S
Eu776 O789 2.418 . S
Eu776 O794 2.373 . S
Eu776 O797 2.488 . S
Eu776 O798 2.471 . S
Eu776 O799 2.349 . S
Eu777 O786 2.373 . S
Eu777 O790 2.488 . S
Eu777 O791 2.471 . S
Eu777 O792 2.349 . S
Eu777 O795 2.392 . S
Eu777 O796 2.418 . S
Eu777 C806 2.828 . S
C778 O796 1.244 . S
C778 O799 1.265 . S
C779 C780 1.379 . S
C779 C783 1.373 . S
C779 C785 1.505 . S
C780 C779 1.379 . S
C780 C782 1.369 . S
C780 H808 0.930 . S
C781 C783 1.383 . S
C781 C784 1.382 . S
C781 H809 0.930 . S
C782 C780 1.369 . S
C782 C784 1.392 . S
C782 H810 0.930 . S
C783 C779 1.373 . S
C783 C781 1.383 . S
C783 H811 0.931 . S
C784 C781 1.382 . S
C784 C782 1.392 . S
C785 Eu776 2.828 . S
C785 C779 1.505 . S
C785 O797 1.249 . S
C785 O798 1.244 . S
O786 Eu777 2.373 . S
O786 C788 1.258 . S
O787 Eu776 2.392 . S
O787 C788 1.242 . S
C788 O786 1.258 . S
C788 O787 1.242 . S
O789 Eu776 2.418 . S
O789 C793 1.244 . S
O790 Eu777 2.488 . S
O790 C806 1.249 . S
O791 Eu777 2.471 . S
O791 C806 1.244 . S
O792 Eu777 2.349 . S
O792 C793 1.265 . S
C793 O789 1.244 . S
C793 O792 1.265 . S
O794 Eu776 2.373 . S
O794 C807 1.258 . S
O795 Eu777 2.392 . S
O795 C807 1.242 . S
O796 Eu777 2.418 . S
O796 C778 1.244 . S
O797 Eu776 2.488 . S
O797 C785 1.249 . S
O798 Eu776 2.471 . S
O798 C785 1.244 . S
O799 Eu776 2.349 . S
O799 C778 1.265 . S
C800 C801 1.379 . S
C800 C804 1.373 . S
C800 C806 1.505 . S
C801 C800 1.379 . S
C801 C803 1.369 . S
C801 H812 0.930 . S
C802 C804 1.383 . S
C802 C805 1.382 . S
C802 H813 0.930 . S
C803 C801 1.369 . S
C803 C805 1.392 . S
C803 H814 0.930 . S
C804 C800 1.373 . S
C804 C802 1.383 . S
C804 H815 0.931 . S
C805 C802 1.382 . S
C805 C803 1.392 . S
C806 Eu777 2.828 . S
C806 O790 1.249 . S
C806 O791 1.244 . S
C806 C800 1.505 . S
C807 O794 1.258 . S
C807 O795 1.242 . S
H808 C780 0.930 . S
H809 C781 0.930 . S
H810 C782 0.930 . S
H811 C783 0.931 . S
H812 C801 0.930 . S
H813 C802 0.930 . S
H814 C803 0.930 . S
H815 C804 0.931 . S
Eu816 C825 2.828 . S
Eu816 O827 2.392 . S
Eu816 O829 2.418 . S
Eu816 O834 2.373 . S
Eu816 O837 2.488 . S
Eu816 O838 2.471 . S
Eu816 O839 2.349 . S
Eu817 O826 2.373 . S
Eu817 O830 2.488 . S
Eu817 O831 2.471 . S
Eu817 O832 2.349 . S
Eu817 O835 2.392 . S
Eu817 O836 2.418 . S
Eu817 C846 2.828 . S
C818 O836 1.244 . S
C818 O839 1.265 . S
C819 C820 1.379 . S
C819 C823 1.373 . S
C819 C825 1.505 . S
C820 C819 1.379 . S
C820 C822 1.369 . S
C820 H848 0.930 . S
C821 C823 1.383 . S
C821 C824 1.382 . S
C821 H849 0.930 . S
C822 C820 1.369 . S
C822 C824 1.392 . S
C822 H850 0.930 . S
C823 C819 1.373 . S
C823 C821 1.383 . S
C823 H851 0.931 . S
C824 C821 1.382 . S
C824 C822 1.392 . S
C825 Eu816 2.828 . S
C825 C819 1.505 . S
C825 O837 1.249 . S
C825 O838 1.244 . S
O826 Eu817 2.373 . S
O826 C828 1.258 . S
O827 Eu816 2.392 . S
O827 C828 1.242 . S
C828 O826 1.258 . S
C828 O827 1.242 . S
O829 Eu816 2.418 . S
O829 C833 1.244 . S
O830 Eu817 2.488 . S
O830 C846 1.249 . S
O831 Eu817 2.471 . S
O831 C846 1.244 . S
O832 Eu817 2.349 . S
O832 C833 1.265 . S
C833 O829 1.244 . S
C833 O832 1.265 . S
O834 Eu816 2.373 . S
O834 C847 1.258 . S
O835 Eu817 2.392 . S
O835 C847 1.242 . S
O836 Eu817 2.418 . S
O836 C818 1.244 . S
O837 Eu816 2.488 . S
O837 C825 1.249 . S
O838 Eu816 2.471 . S
O838 C825 1.244 . S
O839 Eu816 2.349 . S
O839 C818 1.265 . S
C840 C841 1.379 . S
C840 C844 1.373 . S
C840 C846 1.505 . S
C841 C840 1.379 . S
C841 C843 1.369 . S
C841 H852 0.930 . S
C842 C844 1.383 . S
C842 C845 1.382 . S
C842 H853 0.930 . S
C843 C841 1.369 . S
C843 C845 1.392 . S
C843 H854 0.930 . S
C844 C840 1.373 . S
C844 C842 1.383 . S
C844 H855 0.931 . S
C845 C842 1.382 . S
C845 C843 1.392 . S
C846 Eu817 2.828 . S
C846 O830 1.249 . S
C846 O831 1.244 . S
C846 C840 1.505 . S
C847 O834 1.258 . S
C847 O835 1.242 . S
H848 C820 0.930 . S
H849 C821 0.930 . S
H850 C822 0.930 . S
H851 C823 0.931 . S
H852 C841 0.930 . S
H853 C842 0.930 . S
H854 C843 0.930 . S
H855 C844 0.931 . S
Eu856 C865 2.828 . S
Eu856 O867 2.392 . S
Eu856 O869 2.418 . S
Eu856 O874 2.373 . S
Eu856 O877 2.488 . S
Eu856 O878 2.471 . S
Eu856 O879 2.349 . S
Eu857 O866 2.373 . S
Eu857 O870 2.488 . S
Eu857 O871 2.471 . S
Eu857 O872 2.349 . S
Eu857 O875 2.392 . S
Eu857 O876 2.418 . S
Eu857 C886 2.828 . S
C858 O876 1.244 . S
C858 O879 1.265 . S
C859 C860 1.379 . S
C859 C863 1.373 . S
C859 C865 1.505 . S
C860 C859 1.379 . S
C860 C862 1.369 . S
C860 H888 0.930 . S
C861 C863 1.383 . S
C861 C864 1.382 . S
C861 H889 0.930 . S
C862 C860 1.369 . S
C862 C864 1.392 . S
C862 H890 0.930 . S
C863 C859 1.373 . S
C863 C861 1.383 . S
C863 H891 0.931 . S
C864 C861 1.382 . S
C864 C862 1.392 . S
C865 Eu856 2.828 . S
C865 C859 1.505 . S
C865 O877 1.249 . S
C865 O878 1.244 . S
O866 Eu857 2.373 . S
O866 C868 1.258 . S
O867 Eu856 2.392 . S
O867 C868 1.242 . S
C868 O866 1.258 . S
C868 O867 1.242 . S
O869 Eu856 2.418 . S
O869 C873 1.244 . S
O870 Eu857 2.488 . S
O870 C886 1.249 . S
O871 Eu857 2.471 . S
O871 C886 1.244 . S
O872 Eu857 2.349 . S
O872 C873 1.265 . S
C873 O869 1.244 . S
C873 O872 1.265 . S
O874 Eu856 2.373 . S
O874 C887 1.258 . S
O875 Eu857 2.392 . S
O875 C887 1.242 . S
O876 Eu857 2.418 . S
O876 C858 1.244 . S
O877 Eu856 2.488 . S
O877 C865 1.249 . S
O878 Eu856 2.471 . S
O878 C865 1.244 . S
O879 Eu856 2.349 . S
O879 C858 1.265 . S
C880 C881 1.379 . S
C880 C884 1.373 . S
C880 C886 1.505 . S
C881 C880 1.379 . S
C881 C883 1.369 . S
C881 H892 0.930 . S
C882 C884 1.383 . S
C882 C885 1.382 . S
C882 H893 0.930 . S
C883 C881 1.369 . S
C883 C885 1.392 . S
C883 H894 0.930 . S
C884 C880 1.373 . S
C884 C882 1.383 . S
C884 H895 0.931 . S
C885 C882 1.382 . S
C885 C883 1.392 . S
C886 Eu857 2.828 . S
C886 O870 1.249 . S
C886 O871 1.244 . S
C886 C880 1.505 . S
C887 O874 1.258 . S
C887 O875 1.242 . S
H888 C860 0.930 . S
H889 C861 0.930 . S
H890 C862 0.930 . S
H891 C863 0.931 . S
H892 C881 0.930 . S
H893 C882 0.930 . S
H894 C883 0.930 . S
H895 C884 0.931 . S
Eu896 C905 2.828 . S
Eu896 O907 2.392 . S
Eu896 O909 2.418 . S
Eu896 O914 2.373 . S
Eu896 O917 2.488 . S
Eu896 O918 2.471 . S
Eu896 O919 2.349 . S
Eu897 O906 2.373 . S
Eu897 O910 2.488 . S
Eu897 O911 2.471 . S
Eu897 O912 2.349 . S
Eu897 O915 2.392 . S
Eu897 O916 2.418 . S
Eu897 C926 2.828 . S
C898 O916 1.244 . S
C898 O919 1.265 . S
C899 C900 1.379 . S
C899 C903 1.373 . S
C899 C905 1.505 . S
C900 C899 1.379 . S
C900 C902 1.369 . S
C900 H928 0.930 . S
C901 C903 1.383 . S
C901 C904 1.382 . S
C901 H929 0.930 . S
C902 C900 1.369 . S
C902 C904 1.392 . S
C902 H930 0.930 . S
C903 C899 1.373 . S
C903 C901 1.383 . S
C903 H931 0.931 . S
C904 C901 1.382 . S
C904 C902 1.392 . S
C905 Eu896 2.828 . S
C905 C899 1.505 . S
C905 O917 1.249 . S
C905 O918 1.244 . S
O906 Eu897 2.373 . S
O906 C908 1.258 . S
O907 Eu896 2.392 . S
O907 C908 1.242 . S
C908 O906 1.258 . S
C908 O907 1.242 . S
O909 Eu896 2.418 . S
O909 C913 1.244 . S
O910 Eu897 2.488 . S
O910 C926 1.249 . S
O911 Eu897 2.471 . S
O911 C926 1.244 . S
O912 Eu897 2.349 . S
O912 C913 1.265 . S
C913 O909 1.244 . S
C913 O912 1.265 . S
O914 Eu896 2.373 . S
O914 C927 1.258 . S
O915 Eu897 2.392 . S
O915 C927 1.242 . S
O916 Eu897 2.418 . S
O916 C898 1.244 . S
O917 Eu896 2.488 . S
O917 C905 1.249 . S
O918 Eu896 2.471 . S
O918 C905 1.244 . S
O919 Eu896 2.349 . S
O919 C898 1.265 . S
C920 C921 1.379 . S
C920 C924 1.373 . S
C920 C926 1.505 . S
C921 C920 1.379 . S
C921 C923 1.369 . S
C921 H932 0.930 . S
C922 C924 1.383 . S
C922 C925 1.382 . S
C922 H933 0.930 . S
C923 C921 1.369 . S
C923 C925 1.392 . S
C923 H934 0.930 . S
C924 C920 1.373 . S
C924 C922 1.383 . S
C924 H935 0.931 . S
C925 C922 1.382 . S
C925 C923 1.392 . S
C926 Eu897 2.828 . S
C926 O910 1.249 . S
C926 O911 1.244 . S
C926 C920 1.505 . S
C927 O914 1.258 . S
C927 O915 1.242 . S
H928 C900 0.930 . S
H929 C901 0.930 . S
H930 C902 0.930 . S
H931 C903 0.931 . S
H932 C921 0.930 . S
H933 C922 0.930 . S
H934 C923 0.930 . S
H935 C924 0.931 . S
C936 C937 1.391 . S
C936 C938 1.394 . S
C936 H952 0.931 . S
C937 C936 1.391 . S
C937 C941 1.376 . S
C938 C936 1.394 . S
C938 C939 1.369 . S
C938 C942 1.531 . S
C939 C938 1.369 . S
C939 C940 1.410 . S
C939 C947 1.503 . S
C940 C939 1.410 . S
C940 C941 1.392 . S
C940 C943 1.511 . S
C941 C937 1.376 . S
C941 C940 1.392 . S
C941 H953 0.929 . S
C942 C938 1.531 . S
C942 H954 0.960 . S
C942 H955 0.962 . S
C942 H956 0.960 . S
C943 C940 1.511 . S
C943 H957 0.961 . S
C943 H958 0.961 . S
C943 H959 0.961 . S
C944 C945 1.370 . S
C944 C946 1.363 . S
C944 H960 0.931 . S
C945 C944 1.370 . S
C945 C949 1.408 . S
C946 C944 1.363 . S
C946 C947 1.370 . S
C946 C950 1.524 . S
C947 C939 1.503 . S
C947 C946 1.370 . S
C947 C948 1.403 . S
C948 C947 1.403 . S
C948 C949 1.404 . S
C948 C951 1.539 . S
C949 C945 1.408 . S
C949 C948 1.404 . S
C949 H961 0.930 . S
C950 C946 1.524 . S
C950 H962 0.956 . S
C950 H963 0.961 . S
C950 H964 0.961 . S
C951 C948 1.539 . S
C951 H965 0.958 1_554 S
C951 H966 0.961 . S
C951 H967 0.960 . S
H952 C936 0.931 . S
H953 C941 0.929 . S
H954 C942 0.960 . S
H955 C942 0.962 . S
H956 C942 0.960 . S
H957 C943 0.961 . S
H958 C943 0.961 . S
H959 C943 0.961 . S
H960 C944 0.931 . S
H961 C949 0.930 . S
H962 C950 0.956 . S
H963 C950 0.961 . S
H964 C950 0.961 . S
H965 C951 0.958 1_556 S
H966 C951 0.961 . S
H967 C951 0.960 . S
C968 C969 1.391 . S
C968 C970 1.394 . S
C968 H984 0.931 . S
C969 C968 1.391 . S
C969 C973 1.376 . S
C970 C968 1.394 . S
C970 C971 1.369 . S
C970 C974 1.531 . S
C971 C970 1.369 . S
C971 C972 1.410 . S
C971 C979 1.503 . S
C972 C971 1.410 . S
C972 C973 1.392 . S
C972 C975 1.511 . S
C973 C969 1.376 . S
C973 C972 1.392 . S
C973 H985 0.929 . S
C974 C970 1.531 . S
C974 H986 0.960 . S
C974 H987 0.962 . S
C974 H988 0.960 . S
C975 C972 1.511 . S
C975 H989 0.961 . S
C975 H990 0.961 . S
C975 H991 0.961 . S
C976 C977 1.370 . S
C976 C978 1.363 . S
C976 H992 0.931 . S
C977 C976 1.370 . S
C977 C981 1.408 . S
C978 C976 1.363 . S
C978 C979 1.370 . S
C978 C982 1.524 . S
C979 C971 1.503 . S
C979 C978 1.370 . S
C979 C980 1.403 . S
C980 C979 1.403 . S
C980 C981 1.404 . S
C980 C983 1.539 . S
C981 C977 1.408 . S
C981 C980 1.404 . S
C981 H993 0.930 . S
C982 C978 1.524 . S
C982 H994 0.956 . S
C982 H995 0.961 . S
C982 H996 0.961 . S
C983 C980 1.539 . S
C983 H997 0.958 . S
C983 H998 0.961 . S
C983 H999 0.960 . S
H984 C968 0.931 . S
H985 C973 0.929 . S
H986 C974 0.960 . S
H987 C974 0.962 . S
H988 C974 0.960 . S
H989 C975 0.961 . S
H990 C975 0.961 . S
H991 C975 0.961 . S
H992 C976 0.931 . S
H993 C981 0.930 . S
H994 C982 0.956 . S
H995 C982 0.961 . S
H996 C982 0.961 . S
H997 C983 0.958 . S
H998 C983 0.961 . S
H999 C983 0.960 . S
C1000 C1001 1.391 . S
C1000 C1002 1.394 . S
C1000 H1016 0.931 . S
C1001 C1000 1.391 . S
C1001 C1005 1.376 . S
C1002 C1000 1.394 . S
C1002 C1003 1.369 . S
C1002 C1006 1.531 . S
C1003 C1002 1.369 . S
C1003 C1004 1.410 . S
C1003 C1011 1.503 . S
C1004 C1003 1.410 . S
C1004 C1005 1.392 . S
C1004 C1007 1.511 . S
C1005 C1001 1.376 . S
C1005 C1004 1.392 . S
C1005 H1017 0.929 . S
C1006 C1002 1.531 . S
C1006 H1018 0.960 . S
C1006 H1019 0.962 . S
C1006 H1020 0.960 . S
C1007 C1004 1.511 . S
C1007 H1021 0.961 . S
C1007 H1022 0.961 . S
C1007 H1023 0.961 . S
C1008 C1009 1.370 . S
C1008 C1010 1.363 . S
C1008 H1024 0.931 1_554 S
C1009 C1008 1.370 . S
C1009 C1013 1.408 . S
C1010 C1008 1.363 . S
C1010 C1011 1.370 . S
C1010 C1014 1.524 1_554 S
C1011 C1003 1.503 . S
C1011 C1010 1.370 . S
C1011 C1012 1.403 . S
C1012 C1011 1.403 . S
C1012 C1013 1.404 . S
C1012 C1015 1.539 . S
C1013 C1009 1.408 . S
C1013 C1012 1.404 . S
C1013 H1025 0.930 . S
C1014 C1010 1.524 1_556 S
C1014 H1026 0.956 1_556 S
C1014 H1027 0.961 . S
C1014 H1028 0.961 . S
C1015 C1012 1.539 . S
C1015 H1029 0.958 . S
C1015 H1030 0.961 . S
C1015 H1031 0.960 . S
H1016 C1000 0.931 . S
H1017 C1005 0.929 . S
H1018 C1006 0.960 . S
H1019 C1006 0.962 . S
H1020 C1006 0.960 . S
H1021 C1007 0.961 . S
H1022 C1007 0.961 . S
H1023 C1007 0.961 . S
H1024 C1008 0.931 1_556 S
H1025 C1013 0.930 . S
H1026 C1014 0.956 1_554 S
H1027 C1014 0.961 . S
H1028 C1014 0.961 . S
H1029 C1015 0.958 . S
H1030 C1015 0.961 . S
H1031 C1015 0.960 . S
C1032 C1033 1.391 . S
C1032 C1034 1.394 . S
C1032 H1048 0.931 . S
C1033 C1032 1.391 . S
C1033 C1037 1.376 . S
C1034 C1032 1.394 . S
C1034 C1035 1.369 . S
C1034 C1038 1.531 . S
C1035 C1034 1.369 . S
C1035 C1036 1.410 . S
C1035 C1043 1.503 . S
C1036 C1035 1.410 . S
C1036 C1037 1.392 . S
C1036 C1039 1.511 . S
C1037 C1033 1.376 . S
C1037 C1036 1.392 . S
C1037 H1049 0.929 . S
C1038 C1034 1.531 . S
C1038 H1050 0.960 . S
C1038 H1051 0.962 . S
C1038 H1052 0.960 . S
C1039 C1036 1.511 . S
C1039 H1053 0.961 . S
C1039 H1054 0.961 . S
C1039 H1055 0.961 . S
C1040 C1041 1.370 . S
C1040 C1042 1.363 . S
C1040 H1056 0.931 1_556 S
C1041 C1040 1.370 . S
C1041 C1045 1.408 . S
C1042 C1040 1.363 . S
C1042 C1043 1.370 . S
C1042 C1046 1.524 1_556 S
C1043 C1035 1.503 . S
C1043 C1042 1.370 . S
C1043 C1044 1.403 . S
C1044 C1043 1.403 . S
C1044 C1045 1.404 . S
C1044 C1047 1.539 . S
C1045 C1041 1.408 . S
C1045 C1044 1.404 . S
C1045 H1057 0.930 . S
C1046 C1042 1.524 1_554 S
C1046 H1058 0.956 1_554 S
C1046 H1059 0.961 . S
C1046 H1060 0.961 . S
C1047 C1044 1.539 . S
C1047 H1061 0.958 . S
C1047 H1062 0.961 . S
C1047 H1063 0.960 . S
H1048 C1032 0.931 . S
H1049 C1037 0.929 . S
H1050 C1038 0.960 . S
H1051 C1038 0.962 . S
H1052 C1038 0.960 . S
H1053 C1039 0.961 . S
H1054 C1039 0.961 . S
H1055 C1039 0.961 . S
H1056 C1040 0.931 1_554 S
H1057 C1045 0.930 . S
H1058 C1046 0.956 1_556 S
H1059 C1046 0.961 . S
H1060 C1046 0.961 . S
H1061 C1047 0.958 . S
H1062 C1047 0.961 . S
H1063 C1047 0.960 . S
C1064 C1065 1.391 . S
C1064 C1066 1.394 . S
C1064 H1080 0.931 . S
C1065 C1064 1.391 . S
C1065 C1069 1.376 . S
C1066 C1064 1.394 . S
C1066 C1067 1.369 . S
C1066 C1070 1.531 . S
C1067 C1066 1.369 . S
C1067 C1068 1.410 . S
C1067 C1075 1.503 . S
C1068 C1067 1.410 . S
C1068 C1069 1.392 . S
C1068 C1071 1.511 . S
C1069 C1065 1.376 . S
C1069 C1068 1.392 . S
C1069 H1081 0.929 . S
C1070 C1066 1.531 . S
C1070 H1082 0.960 . S
C1070 H1083 0.962 . S
C1070 H1084 0.960 . S
C1071 C1068 1.511 . S
C1071 H1085 0.961 . S
C1071 H1086 0.961 . S
C1071 H1087 0.961 . S
C1072 C1073 1.370 . S
C1072 C1074 1.363 . S
C1072 H1088 0.931 . S
C1073 C1072 1.370 . S
C1073 C1077 1.408 . S
C1074 C1072 1.363 . S
C1074 C1075 1.370 . S
C1074 C1078 1.524 . S
C1075 C1067 1.503 . S
C1075 C1074 1.370 . S
C1075 C1076 1.403 . S
C1076 C1075 1.403 . S
C1076 C1077 1.404 . S
C1076 C1079 1.539 . S
C1077 C1073 1.408 . S
C1077 C1076 1.404 . S
C1077 H1089 0.930 . S
C1078 C1074 1.524 . S
C1078 H1090 0.956 . S
C1078 H1091 0.961 . S
C1078 H1092 0.961 . S
C1079 C1076 1.539 . S
C1079 H1093 0.958 . S
C1079 H1094 0.961 . S
C1079 H1095 0.960 . S
H1080 C1064 0.931 . S
H1081 C1069 0.929 . S
H1082 C1070 0.960 . S
H1083 C1070 0.962 . S
H1084 C1070 0.960 . S
H1085 C1071 0.961 . S
H1086 C1071 0.961 . S
H1087 C1071 0.961 . S
H1088 C1072 0.931 . S
H1089 C1077 0.930 . S
H1090 C1078 0.956 . S
H1091 C1078 0.961 . S
H1092 C1078 0.961 . S
H1093 C1079 0.958 . S
H1094 C1079 0.961 . S
H1095 C1079 0.960 . S
C1096 C1097 1.391 . S
C1096 C1098 1.394 . S
C1096 H1112 0.931 . S
C1097 C1096 1.391 . S
C1097 C1101 1.376 . S
C1098 C1096 1.394 . S
C1098 C1099 1.369 . S
C1098 C1102 1.531 . S
C1099 C1098 1.369 . S
C1099 C1100 1.410 . S
C1099 C1107 1.503 . S
C1100 C1099 1.410 . S
C1100 C1101 1.392 . S
C1100 C1103 1.511 . S
C1101 C1097 1.376 . S
C1101 C1100 1.392 . S
C1101 H1113 0.929 . S
C1102 C1098 1.531 . S
C1102 H1114 0.960 . S
C1102 H1115 0.962 . S
C1102 H1116 0.960 . S
C1103 C1100 1.511 . S
C1103 H1117 0.985 . S
C1103 H1118 0.961 . S
C1103 H1119 0.961 . S
C1104 C1105 1.370 1_554 S
C1104 C1106 1.363 1_554 S
C1104 H1120 0.931 . S
C1105 C1104 1.370 1_556 S
C1105 C1109 1.408 . S
C1106 C1104 1.363 1_556 S
C1106 C1107 1.370 . S
C1106 C1110 1.524 1_556 S
C1107 C1099 1.503 . S
C1107 C1106 1.370 . S
C1107 C1108 1.403 . S
C1108 C1107 1.403 . S
C1108 C1109 1.404 . S
C1108 C1111 1.539 . S
C1109 C1105 1.408 . S
C1109 C1108 1.404 . S
C1109 H1121 0.930 . S
C1110 C1106 1.524 1_554 S
C1110 H1122 0.956 . S
C1110 H1123 0.961 . S
C1110 H1124 0.961 . S
C1111 C1108 1.539 . S
C1111 H1125 0.958 . S
C1111 H1126 0.961 . S
C1111 H1127 0.960 . S
H1112 C1096 0.931 . S
H1113 C1101 0.929 . S
H1114 C1102 0.960 . S
H1115 C1102 0.962 . S
H1116 C1102 0.960 . S
H1117 C1103 0.985 . S
H1118 C1103 0.961 . S
H1119 C1103 0.961 . S
H1120 C1104 0.931 . S
H1121 C1109 0.930 . S
H1122 C1110 0.956 . S
H1123 C1110 0.961 . S
H1124 C1110 0.961 . S
H1125 C1111 0.958 . S
H1126 C1111 0.961 . S
H1127 C1111 0.960 . S
C1128 C1129 1.391 . S
C1128 C1130 1.394 . S
C1128 H1144 0.931 . S
C1129 C1128 1.391 . S
C1129 C1133 1.376 . S
C1130 C1128 1.394 . S
C1130 C1131 1.369 . S
C1130 C1134 1.531 . S
C1131 C1130 1.369 . S
C1131 C1132 1.410 . S
C1131 C1139 1.503 . S
C1132 C1131 1.410 . S
C1132 C1133 1.392 . S
C1132 C1135 1.511 . S
C1133 C1129 1.376 . S
C1133 C1132 1.392 . S
C1133 H1145 0.929 . S
C1134 C1130 1.531 . S
C1134 H1146 0.960 1_556 S
C1134 H1147 0.962 . S
C1134 H1148 0.960 1_556 S
C1135 C1132 1.511 . S
C1135 H1149 0.961 . S
C1135 H1150 0.961 . S
C1135 H1151 0.961 . S
C1136 C1137 1.370 . S
C1136 C1138 1.363 . S
C1136 H1152 0.931 . S
C1137 C1136 1.370 . S
C1137 C1141 1.408 . S
C1138 C1136 1.363 . S
C1138 C1139 1.370 . S
C1138 C1142 1.524 . S
C1139 C1131 1.503 . S
C1139 C1138 1.370 . S
C1139 C1140 1.403 . S
C1140 C1139 1.403 . S
C1140 C1141 1.404 . S
C1140 C1143 1.539 . S
C1141 C1137 1.408 . S
C1141 C1140 1.404 . S
C1141 H1153 0.933 . S
C1142 C1138 1.524 . S
C1142 H1154 0.956 . S
C1142 H1155 0.961 . S
C1142 H1156 0.961 . S
C1143 C1140 1.539 . S
C1143 H1157 0.958 1_556 S
C1143 H1158 0.961 . S
C1143 H1159 0.960 . S
H1144 C1128 0.931 . S
H1145 C1133 0.929 . S
H1146 C1134 0.960 1_554 S
H1147 C1134 0.962 . S
H1148 C1134 0.960 1_554 S
H1149 C1135 0.961 . S
H1150 C1135 0.961 . S
H1151 C1135 0.961 . S
H1152 C1136 0.931 . S
H1153 C1141 0.933 . S
H1154 C1142 0.956 . S
H1155 C1142 0.961 . S
H1156 C1142 0.961 . S
H1157 C1143 0.958 1_554 S
H1158 C1143 0.961 . S
H1159 C1143 0.960 . S
C1160 C1161 1.391 . S
C1160 C1162 1.394 . S
C1160 H1176 0.931 . S
C1161 C1160 1.391 . S
C1161 C1165 1.376 . S
C1162 C1160 1.394 . S
C1162 C1163 1.369 . S
C1162 C1166 1.531 . S
C1163 C1162 1.369 . S
C1163 C1164 1.410 . S
C1163 C1171 1.503 . S
C1164 C1163 1.410 . S
C1164 C1165 1.392 . S
C1164 C1167 1.511 . S
C1165 C1161 1.376 . S
C1165 C1164 1.392 . S
C1165 H1177 0.929 . S
C1166 C1162 1.531 . S
C1166 H1178 0.960 . S
C1166 H1179 0.962 . S
C1166 H1180 0.960 . S
C1167 C1164 1.511 . S
C1167 H1181 0.961 . S
C1167 H1182 0.961 . S
C1167 H1183 0.961 . S
C1168 C1169 1.370 . S
C1168 C1170 1.363 . S
C1168 H1184 0.931 . S
C1169 C1168 1.370 . S
C1169 C1173 1.408 . S
C1170 C1168 1.363 . S
C1170 C1171 1.370 . S
C1170 C1174 1.524 . S
C1171 C1163 1.503 . S
C1171 C1170 1.370 . S
C1171 C1172 1.403 . S
C1172 C1171 1.403 . S
C1172 C1173 1.404 . S
C1172 C1175 1.539 . S
C1173 C1169 1.408 . S
C1173 C1172 1.404 . S
C1173 H1185 0.930 . S
C1174 C1170 1.524 . S
C1174 H1186 0.956 . S
C1174 H1187 0.961 . S
C1174 H1188 0.961 . S
C1175 C1172 1.539 . S
C1175 H1189 0.958 . S
C1175 H1190 0.961 . S
C1175 H1191 0.960 . S
H1176 C1160 0.931 . S
H1177 C1165 0.929 . S
H1178 C1166 0.960 . S
H1179 C1166 0.962 . S
H1180 C1166 0.960 . S
H1181 C1167 0.961 . S
H1182 C1167 0.961 . S
H1183 C1167 0.961 . S
H1184 C1168 0.931 . S
H1185 C1173 0.930 . S
H1186 C1174 0.956 . S
H1187 C1174 0.961 . S
H1188 C1174 0.961 . S
H1189 C1175 0.958 . S
H1190 C1175 0.961 . S
H1191 C1175 0.960 . S
C1192 C1193 1.391 . S
C1192 C1194 1.394 . S
C1192 H1208 0.931 . S
C1193 C1192 1.391 . S
C1193 C1197 1.376 . S
C1194 C1192 1.394 . S
C1194 C1195 1.369 . S
C1194 C1198 1.531 . S
C1195 C1194 1.369 . S
C1195 C1196 1.410 . S
C1195 C1203 1.503 . S
C1196 C1195 1.410 . S
C1196 C1197 1.392 . S
C1196 C1199 1.511 . S
C1197 C1193 1.376 . S
C1197 C1196 1.392 . S
C1197 H1209 0.929 . S
C1198 C1194 1.531 . S
C1198 H1210 0.960 . S
C1198 H1211 0.962 . S
C1198 H1212 0.960 . S
C1199 C1196 1.511 . S
C1199 H1213 0.961 . S
C1199 H1214 0.961 . S
C1199 H1215 0.961 . S
C1200 C1201 1.370 1_554 S
C1200 C1202 1.363 1_554 S
C1200 H1216 0.931 . S
C1201 C1200 1.370 1_556 S
C1201 C1205 1.408 . S
C1202 C1200 1.363 1_556 S
C1202 C1203 1.370 . S
C1202 C1206 1.524 1_556 S
C1203 C1195 1.503 . S
C1203 C1202 1.370 . S
C1203 C1204 1.403 . S
C1204 C1203 1.403 . S
C1204 C1205 1.404 . S
C1204 C1207 1.539 . S
C1205 C1201 1.408 . S
C1205 C1204 1.404 . S
C1205 H1217 0.930 . S
C1206 C1202 1.524 1_554 S
C1206 H1218 0.956 . S
C1206 H1219 0.961 . S
C1206 H1220 0.961 . S
C1207 C1204 1.539 . S
C1207 H1221 0.958 . S
C1207 H1222 0.961 . S
C1207 H1223 0.960 . S
H1208 C1192 0.931 . S
H1209 C1197 0.929 . S
H1210 C1198 0.960 . S
H1211 C1198 0.962 . S
H1212 C1198 0.960 . S
H1213 C1199 0.961 . S
H1214 C1199 0.961 . S
H1215 C1199 0.961 . S
H1216 C1200 0.931 . S
H1217 C1205 0.930 . S
H1218 C1206 0.956 . S
H1219 C1206 0.961 . S
H1220 C1206 0.961 . S
H1221 C1207 0.958 . S
H1222 C1207 0.961 . S
H1223 C1207 0.960 . S
C1224 C1225 1.391 . S
C1224 C1226 1.394 . S
C1224 H1240 0.931 . S
C1225 C1224 1.391 . S
C1225 C1229 1.376 . S
C1226 C1224 1.394 . S
C1226 C1227 1.369 . S
C1226 C1230 1.531 . S
C1227 C1226 1.369 . S
C1227 C1228 1.410 . S
C1227 C1235 1.503 . S
C1228 C1227 1.410 . S
C1228 C1229 1.392 . S
C1228 C1231 1.511 . S
C1229 C1225 1.376 . S
C1229 C1228 1.392 . S
C1229 H1241 0.929 . S
C1230 C1226 1.531 . S
C1230 H1242 0.960 . S
C1230 H1243 0.962 . S
C1230 H1244 0.960 . S
C1231 C1228 1.511 . S
C1231 H1245 0.961 . S
C1231 H1246 0.961 . S
C1231 H1247 0.961 . S
C1232 C1233 1.370 . S
C1232 C1234 1.363 . S
C1232 H1248 0.931 . S
C1233 C1232 1.370 . S
C1233 C1237 1.408 . S
C1234 C1232 1.363 . S
C1234 C1235 1.370 . S
C1234 C1238 1.524 . S
C1235 C1227 1.503 . S
C1235 C1234 1.370 . S
C1235 C1236 1.403 . S
C1236 C1235 1.403 . S
C1236 C1237 1.404 . S
C1236 C1239 1.539 . S
C1237 C1233 1.408 . S
C1237 C1236 1.404 . S
C1237 H1249 0.930 . S
C1238 C1234 1.524 . S
C1238 H1250 0.956 . S
C1238 H1251 0.961 . S
C1238 H1252 0.961 . S
C1239 C1236 1.539 . S
C1239 H1253 0.958 . S
C1239 H1254 0.961 . S
C1239 H1255 0.960 . S
H1240 C1224 0.931 . S
H1241 C1229 0.929 . S
H1242 C1230 0.960 . S
H1243 C1230 0.962 . S
H1244 C1230 0.960 . S
H1245 C1231 0.961 . S
H1246 C1231 0.961 . S
H1247 C1231 0.961 . S
H1248 C1232 0.931 . S
H1249 C1237 0.930 . S
H1250 C1238 0.956 . S
H1251 C1238 0.961 . S
H1252 C1238 0.961 . S
H1253 C1239 0.958 . S
H1254 C1239 0.961 . S
H1255 C1239 0.960 . S
C1256 C1257 1.391 . S
C1256 C1258 1.394 . S
C1256 H1272 0.931 . S
C1257 C1256 1.391 . S
C1257 C1261 1.376 . S
C1258 C1256 1.394 . S
C1258 C1259 1.369 . S
C1258 C1262 1.531 . S
C1259 C1258 1.369 . S
C1259 C1260 1.410 . S
C1259 C1267 1.503 . S
C1260 C1259 1.410 . S
C1260 C1261 1.392 . S
C1260 C1263 1.511 . S
C1261 C1257 1.376 . S
C1261 C1260 1.392 . S
C1261 H1273 0.929 . S
C1262 C1258 1.531 . S
C1262 H1274 0.960 . S
C1262 H1275 0.962 . S
C1262 H1276 0.960 . S
C1263 C1260 1.511 . S
C1263 H1277 0.961 . S
C1263 H1278 0.961 . S
C1263 H1279 0.961 . S
C1264 C1265 1.370 . S
C1264 C1266 1.363 . S
C1264 H1280 0.931 . S
C1265 C1264 1.370 . S
C1265 C1269 1.408 . S
C1266 C1264 1.363 . S
C1266 C1267 1.370 . S
C1266 C1270 1.524 . S
C1267 C1259 1.503 . S
C1267 C1266 1.370 . S
C1267 C1268 1.403 . S
C1268 C1267 1.403 . S
C1268 C1269 1.404 . S
C1268 C1271 1.539 . S
C1269 C1265 1.408 . S
C1269 C1268 1.404 . S
C1269 H1281 0.930 . S
C1270 C1266 1.524 . S
C1270 H1282 0.956 . S
C1270 H1283 0.961 . S
C1270 H1284 0.961 . S
C1271 C1268 1.539 . S
C1271 H1285 0.958 . S
C1271 H1286 0.961 . S
C1271 H1287 0.960 . S
H1272 C1256 0.931 . S
H1273 C1261 0.929 . S
H1274 C1262 0.960 . S
H1275 C1262 0.962 . S
H1276 C1262 0.960 . S
H1277 C1263 0.961 . S
H1278 C1263 0.961 . S
H1279 C1263 0.961 . S
H1280 C1264 0.931 . S
H1281 C1269 0.930 . S
H1282 C1270 0.956 . S
H1283 C1270 0.961 . S
H1284 C1270 0.961 . S
H1285 C1271 0.958 . S
H1286 C1271 0.961 . S
H1287 C1271 0.960 . S
C1288 C1289 1.391 . S
C1288 C1290 1.394 . S
C1288 H1304 0.931 . S
C1289 C1288 1.391 . S
C1289 C1293 1.376 . S
C1290 C1288 1.394 . S
C1290 C1291 1.369 . S
C1290 C1294 1.531 . S
C1291 C1290 1.369 . S
C1291 C1292 1.410 . S
C1291 C1299 1.503 . S
C1292 C1291 1.410 . S
C1292 C1293 1.392 . S
C1292 C1295 1.511 1_554 S
C1293 C1289 1.376 . S
C1293 C1292 1.392 . S
C1293 H1305 0.929 . S
C1294 C1290 1.531 . S
C1294 H1306 0.960 . S
C1294 H1307 0.962 . S
C1294 H1308 0.960 . S
C1295 C1292 1.511 1_556 S
C1295 H1309 0.961 . S
C1295 H1310 0.961 . S
C1295 H1311 0.961 . S
C1296 C1297 1.370 . S
C1296 C1298 1.363 . S
C1296 H1312 0.931 . S
C1297 C1296 1.370 . S
C1297 C1301 1.408 . S
C1298 C1296 1.363 . S
C1298 C1299 1.370 . S
C1298 C1302 1.524 . S
C1299 C1291 1.503 . S
C1299 C1298 1.370 . S
C1299 C1300 1.403 . S
C1300 C1299 1.403 . S
C1300 C1301 1.404 . S
C1300 C1303 1.539 . S
C1301 C1297 1.408 . S
C1301 C1300 1.404 . S
C1301 H1313 0.930 . S
C1302 C1298 1.524 . S
C1302 H1314 0.956 . S
C1302 H1315 0.961 . S
C1302 H1316 0.961 . S
C1303 C1300 1.539 . S
C1303 H1317 0.958 . S
C1303 H1318 0.961 . S
C1303 H1319 0.960 . S
H1304 C1288 0.931 . S
H1305 C1293 0.929 . S
H1306 C1294 0.960 . S
H1307 C1294 0.962 . S
H1308 C1294 0.960 . S
H1309 C1295 0.961 . S
H1310 C1295 0.961 . S
H1311 C1295 0.961 . S
H1312 C1296 0.931 . S
H1313 C1301 0.930 . S
H1314 C1302 0.956 . S
H1315 C1302 0.961 . S
H1316 C1302 0.961 . S
H1317 C1303 0.958 . S
H1318 C1303 0.961 . S
H1319 C1303 0.960 . S
C1320 C1321 1.391 . S
C1320 C1322 1.394 1_655 S
C1320 H1336 0.931 . S
C1321 C1320 1.391 . S
C1321 C1325 1.376 . S
C1322 C1320 1.394 1_455 S
C1322 C1323 1.369 . S
C1322 C1326 1.531 . S
C1323 C1322 1.369 . S
C1323 C1324 1.410 . S
C1323 C1331 1.503 . S
C1324 C1323 1.410 . S
C1324 C1325 1.392 1_455 S
C1324 C1327 1.511 . S
C1325 C1321 1.376 . S
C1325 C1324 1.392 1_655 S
C1325 H1337 0.929 . S
C1326 C1322 1.531 . S
C1326 H1338 0.960 . S
C1326 H1339 0.962 . S
C1326 H1340 0.960 . S
C1327 C1324 1.511 . S
C1327 H1341 0.951 1_455 S
C1327 H1342 0.961 . S
C1327 H1343 0.961 . S
C1328 C1329 1.370 . S
C1328 C1330 1.363 . S
C1328 H1344 0.931 . S
C1329 C1328 1.370 . S
C1329 C1333 1.408 . S
C1330 C1328 1.363 . S
C1330 C1331 1.370 . S
C1330 C1334 1.524 . S
C1331 C1323 1.503 . S
C1331 C1330 1.370 . S
C1331 C1332 1.403 . S
C1332 C1331 1.403 . S
C1332 C1333 1.404 . S
C1332 C1335 1.539 . S
C1333 C1329 1.408 . S
C1333 C1332 1.404 . S
C1333 H1345 0.930 . S
C1334 C1330 1.524 . S
C1334 H1346 0.956 . S
C1334 H1347 0.961 . S
C1334 H1348 0.961 . S
C1335 C1332 1.539 . S
C1335 H1349 0.958 . S
C1335 H1350 0.961 . S
C1335 H1351 0.960 . S
H1336 C1320 0.931 . S
H1337 C1325 0.929 . S
H1338 C1326 0.960 . S
H1339 C1326 0.962 . S
H1340 C1326 0.960 . S
H1341 C1327 0.951 1_655 S
H1342 C1327 0.961 . S
H1343 C1327 0.961 . S
H1344 C1328 0.931 . S
H1345 C1333 0.930 . S
H1346 C1334 0.956 . S
H1347 C1334 0.961 . S
H1348 C1334 0.961 . S
H1349 C1335 0.958 . S
H1350 C1335 0.961 . S
H1351 C1335 0.960 . S
C1352 C1353 1.391 . S
C1352 C1354 1.394 . S
C1352 H1368 0.931 . S
C1353 C1352 1.391 . S
C1353 C1357 1.376 . S
C1354 C1352 1.394 . S
C1354 C1355 1.369 . S
C1354 C1358 1.531 . S
C1355 C1354 1.369 . S
C1355 C1356 1.410 . S
C1355 C1363 1.503 . S
C1356 C1355 1.410 . S
C1356 C1357 1.392 . S
C1356 C1359 1.511 . S
C1357 C1353 1.376 . S
C1357 C1356 1.392 . S
C1357 H1369 0.929 . S
C1358 C1354 1.531 . S
C1358 H1370 0.960 . S
C1358 H1371 0.962 . S
C1358 H1372 0.960 . S
C1359 C1356 1.511 . S
C1359 H1373 0.961 . S
C1359 H1374 0.961 . S
C1359 H1375 0.961 . S
C1360 C1361 1.370 . S
C1360 C1362 1.363 . S
C1360 H1376 0.931 . S
C1361 C1360 1.370 . S
C1361 C1365 1.408 . S
C1362 C1360 1.363 . S
C1362 C1363 1.370 . S
C1362 C1366 1.524 . S
C1363 C1355 1.503 . S
C1363 C1362 1.370 . S
C1363 C1364 1.403 . S
C1364 C1363 1.403 . S
C1364 C1365 1.404 . S
C1364 C1367 1.539 . S
C1365 C1361 1.408 . S
C1365 C1364 1.404 . S
C1365 H1377 0.930 . S
C1366 C1362 1.524 . S
C1366 H1378 0.956 . S
C1366 H1379 0.961 . S
C1366 H1380 0.961 . S
C1367 C1364 1.539 . S
C1367 H1381 0.958 . S
C1367 H1382 0.961 . S
C1367 H1383 0.960 . S
H1368 C1352 0.931 . S
H1369 C1357 0.929 . S
H1370 C1358 0.960 . S
H1371 C1358 0.962 . S
H1372 C1358 0.960 . S
H1373 C1359 0.961 . S
H1374 C1359 0.961 . S
H1375 C1359 0.961 . S
H1376 C1360 0.931 . S
H1377 C1365 0.930 . S
H1378 C1366 0.956 . S
H1379 C1366 0.961 . S
H1380 C1366 0.961 . S
H1381 C1367 0.958 . S
H1382 C1367 0.961 . S
H1383 C1367 0.960 . S
C1384 C1385 1.391 . S
C1384 C1386 1.394 . S
C1384 H1400 0.931 . S
C1385 C1384 1.391 . S
C1385 C1389 1.376 . S
C1386 C1384 1.394 . S
C1386 C1387 1.401 . S
C1386 C1390 1.531 . S
C1387 C1386 1.401 . S
C1387 C1388 1.411 . S
C1387 C1395 1.471 1_545 S
C1388 C1387 1.411 . S
C1388 C1389 1.392 . S
C1388 C1391 1.511 1_545 S
C1389 C1385 1.376 . S
C1389 C1388 1.392 . S
C1389 H1401 0.929 . S
C1390 C1386 1.531 . S
C1390 H1402 0.960 1_545 S
C1390 H1403 0.962 1_545 S
C1390 H1404 0.960 . S
C1391 C1388 1.511 1_565 S
C1391 H1405 0.961 1_565 S
C1391 H1406 0.961 . S
C1391 H1407 0.961 . S
C1392 C1393 1.370 . S
C1392 C1394 1.363 . S
C1392 H1408 0.931 . S
C1393 C1392 1.370 . S
C1393 C1397 1.408 . S
C1394 C1392 1.363 . S
C1394 C1395 1.370 . S
C1394 C1398 1.524 . S
C1395 C1387 1.471 1_565 S
C1395 C1394 1.370 . S
C1395 C1396 1.403 . S
C1396 C1395 1.403 . S
C1396 C1397 1.404 . S
C1396 C1399 1.539 . S
C1397 C1393 1.408 . S
C1397 C1396 1.404 . S
C1397 H1409 0.930 . S
C1398 C1394 1.524 . S
C1398 H1410 0.956 . S
C1398 H1411 0.961 . S
C1398 H1412 0.961 . S
C1399 C1396 1.539 . S
C1399 H1413 0.958 . S
C1399 H1414 0.961 . S
C1399 H1415 0.960 . S
H1400 C1384 0.931 . S
H1401 C1389 0.929 . S
H1402 C1390 0.960 1_565 S
H1403 C1390 0.962 1_565 S
H1404 C1390 0.960 . S
H1405 C1391 0.961 1_545 S
H1406 C1391 0.961 . S
H1407 C1391 0.961 . S
H1408 C1392 0.931 . S
H1409 C1397 0.930 . S
H1410 C1398 0.956 . S
H1411 C1398 0.961 . S
H1412 C1398 0.961 . S
H1413 C1399 0.958 . S
H1414 C1399 0.961 . S
H1415 C1399 0.960 . S
C1416 C1417 1.391 . S
C1416 C1418 1.394 . S
C1416 H1432 0.931 . S
C1417 C1416 1.391 . S
C1417 C1421 1.376 . S
C1418 C1416 1.394 . S
C1418 C1419 1.369 . S
C1418 C1422 1.531 . S
C1419 C1418 1.369 . S
C1419 C1420 1.410 . S
C1419 C1427 1.503 . S
C1420 C1419 1.410 . S
C1420 C1421 1.392 . S
C1420 C1423 1.511 . S
C1421 C1417 1.376 . S
C1421 C1420 1.392 . S
C1421 H1433 0.929 . S
C1422 C1418 1.531 . S
C1422 H1434 0.960 . S
C1422 H1435 0.962 . S
C1422 H1436 0.960 . S
C1423 C1420 1.511 . S
C1423 H1437 0.961 . S
C1423 H1438 0.961 . S
C1423 H1439 0.961 . S
C1424 C1425 1.370 . S
C1424 C1426 1.363 . S
C1424 H1440 0.931 . S
C1425 C1424 1.370 . S
C1425 C1429 1.408 . S
C1426 C1424 1.363 . S
C1426 C1427 1.370 . S
C1426 C1430 1.524 . S
C1427 C1419 1.503 . S
C1427 C1426 1.370 . S
C1427 C1428 1.403 . S
C1428 C1427 1.403 . S
C1428 C1429 1.404 . S
C1428 C1431 1.539 . S
C1429 C1425 1.408 . S
C1429 C1428 1.404 . S
C1429 H1441 0.930 . S
C1430 C1426 1.524 . S
C1430 H1442 0.956 . S
C1430 H1443 0.961 . S
C1430 H1444 0.961 . S
C1431 C1428 1.539 . S
C1431 H1445 0.958 . S
C1431 H1446 0.961 . S
C1431 H1447 0.960 . S
H1432 C1416 0.931 . S
H1433 C1421 0.929 . S
H1434 C1422 0.960 . S
H1435 C1422 0.962 . S
H1436 C1422 0.960 . S
H1437 C1423 0.961 . S
H1438 C1423 0.961 . S
H1439 C1423 0.961 . S
H1440 C1424 0.931 . S
H1441 C1429 0.930 . S
H1442 C1430 0.956 . S
H1443 C1430 0.961 . S
H1444 C1430 0.961 . S
H1445 C1431 0.958 . S
H1446 C1431 0.961 . S
H1447 C1431 0.960 . S
C1448 C1449 1.391 . S
C1448 C1450 1.394 . S
C1448 H1464 0.931 . S
C1449 C1448 1.391 . S
C1449 C1453 1.376 . S
C1450 C1448 1.394 . S
C1450 C1451 1.369 . S
C1450 C1454 1.531 . S
C1451 C1450 1.369 . S
C1451 C1452 1.410 . S
C1451 C1459 1.503 . S
C1452 C1451 1.410 . S
C1452 C1453 1.392 . S
C1452 C1455 1.511 . S
C1453 C1449 1.376 . S
C1453 C1452 1.392 . S
C1453 H1465 0.929 . S
C1454 C1450 1.531 . S
C1454 H1466 0.960 . S
C1454 H1467 0.962 . S
C1454 H1468 0.960 . S
C1455 C1452 1.511 . S
C1455 H1469 0.961 . S
C1455 H1470 0.961 . S
C1455 H1471 0.961 . S
C1456 C1457 1.370 . S
C1456 C1458 1.363 . S
C1456 H1472 0.931 . S
C1457 C1456 1.370 . S
C1457 C1461 1.408 . S
C1458 C1456 1.363 . S
C1458 C1459 1.370 . S
C1458 C1462 1.524 . S
C1459 C1451 1.503 . S
C1459 C1458 1.370 . S
C1459 C1460 1.403 . S
C1460 C1459 1.403 . S
C1460 C1461 1.404 . S
C1460 C1463 1.539 . S
C1461 C1457 1.408 . S
C1461 C1460 1.404 . S
C1461 H1473 0.930 . S
C1462 C1458 1.524 . S
C1462 H1474 0.956 . S
C1462 H1475 0.961 . S
C1462 H1476 0.961 . S
C1463 C1460 1.539 . S
C1463 H1477 0.958 . S
C1463 H1478 0.961 . S
C1463 H1479 0.960 . S
H1464 C1448 0.931 . S
H1465 C1453 0.929 . S
H1466 C1454 0.960 . S
H1467 C1454 0.962 . S
H1468 C1454 0.960 . S
H1469 C1455 0.961 . S
H1470 C1455 0.961 . S
H1471 C1455 0.961 . S
H1472 C1456 0.931 . S
H1473 C1461 0.930 . S
H1474 C1462 0.956 . S
H1475 C1462 0.961 . S
H1476 C1462 0.961 . S
H1477 C1463 0.958 . S
H1478 C1463 0.961 . S
H1479 C1463 0.960 . S
C1480 C1481 1.391 . S
C1480 C1482 1.394 . S
C1480 H1496 0.931 . S
C1481 C1480 1.391 . S
C1481 C1485 1.376 . S
C1482 C1480 1.394 . S
C1482 C1483 1.369 . S
C1482 C1486 1.531 . S
C1483 C1482 1.369 . S
C1483 C1484 1.410 . S
C1483 C1491 1.503 . S
C1484 C1483 1.410 . S
C1484 C1485 1.392 . S
C1484 C1487 1.511 . S
C1485 C1481 1.376 . S
C1485 C1484 1.392 . S
C1485 H1497 0.929 . S
C1486 C1482 1.531 . S
C1486 H1498 0.960 . S
C1486 H1499 0.962 . S
C1486 H1500 0.960 . S
C1487 C1484 1.511 . S
C1487 H1501 0.961 . S
C1487 H1502 0.961 . S
C1487 H1503 0.961 . S
C1488 C1489 1.370 . S
C1488 C1490 1.363 . S
C1488 H1504 0.931 . S
C1489 C1488 1.370 . S
C1489 C1493 1.408 . S
C1490 C1488 1.363 . S
C1490 C1491 1.370 . S
C1490 C1494 1.524 . S
C1491 C1483 1.503 . S
C1491 C1490 1.370 . S
C1491 C1492 1.403 . S
C1492 C1491 1.403 . S
C1492 C1493 1.404 . S
C1492 C1495 1.539 . S
C1493 C1489 1.408 . S
C1493 C1492 1.404 . S
C1493 H1505 0.930 . S
C1494 C1490 1.524 . S
C1494 H1506 0.956 . S
C1494 H1507 0.961 . S
C1494 H1508 0.961 . S
C1495 C1492 1.539 . S
C1495 H1509 0.958 . S
C1495 H1510 0.961 . S
C1495 H1511 0.960 . S
H1496 C1480 0.931 . S
H1497 C1485 0.929 . S
H1498 C1486 0.960 . S
H1499 C1486 0.962 . S
H1500 C1486 0.960 . S
H1501 C1487 0.961 . S
H1502 C1487 0.961 . S
H1503 C1487 0.961 . S
H1504 C1488 0.931 . S
H1505 C1493 0.930 . S
H1506 C1494 0.956 . S
H1507 C1494 0.961 . S
H1508 C1494 0.961 . S
H1509 C1495 0.958 . S
H1510 C1495 0.961 . S
H1511 C1495 0.960 . S
C1512 C1513 1.391 . S
C1512 C1514 1.394 . S
C1512 H1528 0.931 . S
C1513 C1512 1.391 . S
C1513 C1517 1.376 . S
C1514 C1512 1.394 . S
C1514 C1515 1.369 . S
C1514 C1518 1.531 . S
C1515 C1514 1.369 . S
C1515 C1516 1.410 . S
C1515 C1523 1.503 . S
C1516 C1515 1.410 . S
C1516 C1517 1.392 . S
C1516 C1519 1.511 . S
C1517 C1513 1.376 . S
C1517 C1516 1.392 . S
C1517 H1529 0.929 . S
C1518 C1514 1.531 . S
C1518 H1530 0.960 . S
C1518 H1531 0.962 . S
C1518 H1532 0.960 . S
C1519 C1516 1.511 . S
C1519 H1533 0.961 . S
C1519 H1534 0.961 . S
C1519 H1535 0.961 . S
C1520 C1521 1.370 . S
C1520 C1522 1.363 . S
C1520 H1536 0.931 . S
C1521 C1520 1.370 . S
C1521 C1525 1.408 . S
C1522 C1520 1.363 . S
C1522 C1523 1.370 . S
C1522 C1526 1.524 . S
C1523 C1515 1.503 . S
C1523 C1522 1.370 . S
C1523 C1524 1.403 . S
C1524 C1523 1.403 . S
C1524 C1525 1.404 . S
C1524 C1527 1.539 . S
C1525 C1521 1.408 . S
C1525 C1524 1.404 . S
C1525 H1537 0.930 . S
C1526 C1522 1.524 . S
C1526 H1538 0.956 . S
C1526 H1539 0.961 . S
C1526 H1540 0.961 . S
C1527 C1524 1.539 . S
C1527 H1541 0.958 . S
C1527 H1542 0.961 . S
C1527 H1543 0.960 . S
H1528 C1512 0.931 . S
H1529 C1517 0.929 . S
H1530 C1518 0.960 . S
H1531 C1518 0.962 . S
H1532 C1518 0.960 . S
H1533 C1519 0.961 . S
H1534 C1519 0.961 . S
H1535 C1519 0.961 . S
H1536 C1520 0.931 . S
H1537 C1525 0.930 . S
H1538 C1526 0.956 . S
H1539 C1526 0.961 . S
H1540 C1526 0.961 . S
H1541 C1527 0.958 . S
H1542 C1527 0.961 . S
H1543 C1527 0.960 . S
C1544 C1545 1.391 . S
C1544 C1546 1.394 . S
C1544 H1560 0.931 . S
C1545 C1544 1.391 . S
C1545 C1549 1.376 . S
C1546 C1544 1.394 . S
C1546 C1547 1.369 . S
C1546 C1550 1.531 . S
C1547 C1546 1.369 . S
C1547 C1548 1.410 . S
C1547 C1555 1.503 . S
C1548 C1547 1.410 . S
C1548 C1549 1.392 . S
C1548 C1551 1.511 . S
C1549 C1545 1.376 . S
C1549 C1548 1.392 . S
C1549 H1561 0.929 . S
C1550 C1546 1.531 . S
C1550 H1562 0.960 . S
C1550 H1563 0.962 . S
C1550 H1564 0.960 . S
C1551 C1548 1.511 . S
C1551 H1565 0.961 . S
C1551 H1566 0.961 . S
C1551 H1567 0.961 . S
C1552 C1553 1.370 . S
C1552 C1554 1.363 . S
C1552 H1568 0.931 . S
C1553 C1552 1.370 . S
C1553 C1557 1.408 . S
C1554 C1552 1.363 . S
C1554 C1555 1.370 . S
C1554 C1558 1.524 . S
C1555 C1547 1.503 . S
C1555 C1554 1.370 . S
C1555 C1556 1.403 . S
C1556 C1555 1.403 . S
C1556 C1557 1.404 . S
C1556 C1559 1.539 . S
C1557 C1553 1.408 . S
C1557 C1556 1.404 . S
C1557 H1569 0.930 . S
C1558 C1554 1.524 . S
C1558 H1570 0.956 . S
C1558 H1571 0.961 . S
C1558 H1572 0.961 . S
C1559 C1556 1.539 . S
C1559 H1573 0.958 . S
C1559 H1574 0.961 . S
C1559 H1575 0.960 . S
H1560 C1544 0.931 . S
H1561 C1549 0.929 . S
H1562 C1550 0.960 . S
H1563 C1550 0.962 . S
H1564 C1550 0.960 . S
H1565 C1551 0.961 . S
H1566 C1551 0.961 . S
H1567 C1551 0.961 . S
H1568 C1552 0.931 . S
H1569 C1557 0.930 . S
H1570 C1558 0.956 . S
H1571 C1558 0.961 . S
H1572 C1558 0.961 . S
H1573 C1559 0.958 . S
H1574 C1559 0.961 . S
H1575 C1559 0.960 . S
C1576 C1577 1.391 . S
C1576 C1578 1.394 . S
C1576 H1592 0.931 . S
C1577 C1576 1.391 . S
C1577 C1581 1.376 . S
C1578 C1576 1.394 . S
C1578 C1579 1.369 . S
C1578 C1582 1.531 . S
C1579 C1578 1.369 . S
C1579 C1580 1.410 . S
C1579 C1587 1.503 . S
C1580 C1579 1.410 . S
C1580 C1581 1.392 . S
C1580 C1583 1.511 . S
C1581 C1577 1.376 . S
C1581 C1580 1.392 . S
C1581 H1593 0.929 . S
C1582 C1578 1.531 . S
C1582 H1594 0.960 . S
C1582 H1595 0.962 . S
C1582 H1596 0.960 . S
C1583 C1580 1.511 . S
C1583 H1597 0.961 . S
C1583 H1598 0.961 . S
C1583 H1599 0.961 . S
C1584 C1585 1.370 . S
C1584 C1586 1.363 . S
C1584 H1600 0.931 . S
C1585 C1584 1.370 . S
C1585 C1589 1.408 . S
C1586 C1584 1.363 . S
C1586 C1587 1.370 . S
C1586 C1590 1.524 . S
C1587 C1579 1.503 . S
C1587 C1586 1.370 . S
C1587 C1588 1.403 . S
C1588 C1587 1.403 . S
C1588 C1589 1.404 . S
C1588 C1591 1.539 . S
C1589 C1585 1.408 . S
C1589 C1588 1.404 . S
C1589 H1601 0.930 . S
C1590 C1586 1.524 . S
C1590 H1602 0.956 . S
C1590 H1603 0.961 . S
C1590 H1604 0.961 . S
C1591 C1588 1.539 . S
C1591 H1605 0.958 . S
C1591 H1606 0.961 . S
C1591 H1607 0.960 . S
H1592 C1576 0.931 . S
H1593 C1581 0.929 . S
H1594 C1582 0.960 . S
H1595 C1582 0.962 . S
H1596 C1582 0.960 . S
H1597 C1583 0.961 . S
H1598 C1583 0.961 . S
H1599 C1583 0.961 . S
H1600 C1584 0.931 . S
H1601 C1589 0.930 . S
H1602 C1590 0.956 . S
H1603 C1590 0.961 . S
H1604 C1590 0.961 . S
H1605 C1591 0.958 . S
H1606 C1591 0.961 . S
H1607 C1591 0.960 . S
C1608 C1609 1.391 . S
C1608 C1610 1.394 . S
C1608 H1624 0.931 . S
C1609 C1608 1.391 . S
C1609 C1613 1.376 . S
C1610 C1608 1.394 . S
C1610 C1611 1.369 1_545 S
C1610 C1614 1.531 1_545 S
C1611 C1610 1.369 1_565 S
C1611 C1612 1.410 1_565 S
C1611 C1619 1.503 . S
C1612 C1611 1.410 1_545 S
C1612 C1613 1.392 . S
C1612 C1615 1.511 1_545 S
C1613 C1609 1.376 . S
C1613 C1612 1.392 . S
C1613 H1625 0.929 . S
C1614 C1610 1.531 1_565 S
C1614 H1626 0.960 . S
C1614 H1627 0.962 . S
C1614 H1628 0.960 1_565 S
C1615 C1612 1.511 1_565 S
C1615 H1629 0.962 . S
C1615 H1630 0.961 . S
C1615 H1631 0.961 . S
C1616 C1617 1.370 . S
C1616 C1618 1.363 . S
C1616 H1632 0.931 . S
C1617 C1616 1.370 . S
C1617 C1621 1.408 . S
C1618 C1616 1.363 . S
C1618 C1619 1.370 . S
C1618 C1622 1.524 . S
C1619 C1611 1.503 . S
C1619 C1618 1.370 . S
C1619 C1620 1.403 . S
C1620 C1619 1.403 . S
C1620 C1621 1.404 . S
C1620 C1623 1.539 . S
C1621 C1617 1.408 . S
C1621 C1620 1.404 . S
C1621 H1633 0.930 . S
C1622 C1618 1.524 . S
C1622 H1634 0.956 . S
C1622 H1635 0.961 . S
C1622 H1636 0.961 . S
C1623 C1620 1.539 . S
C1623 H1637 0.958 . S
C1623 H1638 0.961 . S
C1623 H1639 0.960 . S
H1624 C1608 0.931 . S
H1625 C1613 0.929 . S
H1626 C1614 0.960 . S
H1627 C1614 0.962 . S
H1628 C1614 0.960 1_545 S
H1629 C1615 0.962 . S
H1630 C1615 0.961 . S
H1631 C1615 0.961 . S
H1632 C1616 0.931 . S
H1633 C1621 0.930 . S
H1634 C1622 0.956 . S
H1635 C1622 0.961 . S
H1636 C1622 0.961 . S
H1637 C1623 0.958 . S
H1638 C1623 0.961 . S
H1639 C1623 0.960 . S
C1640 C1641 1.391 . S
C1640 C1642 1.394 1_655 S
C1640 H1656 0.931 . S
C1641 C1640 1.391 . S
C1641 C1645 1.376 . S
C1642 C1640 1.394 1_455 S
C1642 C1643 1.369 . S
C1642 C1646 1.531 . S
C1643 C1642 1.369 . S
C1643 C1644 1.410 . S
C1643 C1651 1.503 . S
C1644 C1643 1.410 . S
C1644 C1645 1.392 1_455 S
C1644 C1647 1.511 . S
C1645 C1641 1.376 . S
C1645 C1644 1.392 1_655 S
C1645 H1657 0.929 . S
C1646 C1642 1.531 . S
C1646 H1658 0.960 . S
C1646 H1659 0.962 . S
C1646 H1660 0.960 . S
C1647 C1644 1.511 . S
C1647 H1661 0.961 . S
C1647 H1662 0.961 . S
C1647 H1663 0.961 . S
C1648 C1649 1.370 . S
C1648 C1650 1.363 . S
C1648 H1664 0.931 . S
C1649 C1648 1.370 . S
C1649 C1653 1.408 . S
C1650 C1648 1.363 . S
C1650 C1651 1.370 . S
C1650 C1654 1.524 . S
C1651 C1643 1.503 . S
C1651 C1650 1.370 . S
C1651 C1652 1.403 . S
C1652 C1651 1.403 . S
C1652 C1653 1.404 . S
C1652 C1655 1.539 . S
C1653 C1649 1.408 . S
C1653 C1652 1.404 . S
C1653 H1665 0.930 . S
C1654 C1650 1.524 . S
C1654 H1666 0.956 . S
C1654 H1667 0.961 . S
C1654 H1668 0.961 . S
C1655 C1652 1.539 . S
C1655 H1669 0.958 . S
C1655 H1670 0.961 . S
C1655 H1671 0.960 . S
H1656 C1640 0.931 . S
H1657 C1645 0.929 . S
H1658 C1646 0.960 . S
H1659 C1646 0.962 . S
H1660 C1646 0.960 . S
H1661 C1647 0.961 . S
H1662 C1647 0.961 . S
H1663 C1647 0.961 . S
H1664 C1648 0.931 . S
H1665 C1653 0.930 . S
H1666 C1654 0.956 . S
H1667 C1654 0.961 . S
H1668 C1654 0.961 . S
H1669 C1655 0.958 . S
H1670 C1655 0.961 . S
H1671 C1655 0.960 . S
C1672 C1673 1.391 . S
C1672 C1674 1.394 . S
C1672 H1688 0.931 . S
C1673 C1672 1.391 . S
C1673 C1677 1.376 . S
C1674 C1672 1.394 . S
C1674 C1675 1.369 . S
C1674 C1678 1.531 . S
C1675 C1674 1.369 . S
C1675 C1676 1.410 . S
C1675 C1683 1.503 . S
C1676 C1675 1.410 . S
C1676 C1677 1.392 . S
C1676 C1679 1.511 . S
C1677 C1673 1.376 . S
C1677 C1676 1.392 . S
C1677 H1689 0.929 . S
C1678 C1674 1.531 . S
C1678 H1690 0.960 . S
C1678 H1691 0.962 . S
C1678 H1692 0.960 . S
C1679 C1676 1.511 . S
C1679 H1693 0.961 . S
C1679 H1694 0.961 . S
C1679 H1695 0.961 . S
C1680 C1681 1.370 . S
C1680 C1682 1.363 . S
C1680 H1696 0.931 . S
C1681 C1680 1.370 . S
C1681 C1685 1.408 . S
C1682 C1680 1.363 . S
C1682 C1683 1.370 . S
C1682 C1686 1.524 . S
C1683 C1675 1.503 . S
C1683 C1682 1.370 . S
C1683 C1684 1.403 . S
C1684 C1683 1.403 . S
C1684 C1685 1.404 . S
C1684 C1687 1.539 . S
C1685 C1681 1.408 . S
C1685 C1684 1.404 . S
C1685 H1697 0.930 . S
C1686 C1682 1.524 . S
C1686 H1698 0.956 . S
C1686 H1699 0.961 . S
C1686 H1700 0.961 . S
C1687 C1684 1.539 . S
C1687 H1701 0.958 . S
C1687 H1702 0.961 . S
C1687 H1703 0.960 . S
H1688 C1672 0.931 . S
H1689 C1677 0.929 . S
H1690 C1678 0.960 . S
H1691 C1678 0.962 . S
H1692 C1678 0.960 . S
H1693 C1679 0.961 . S
H1694 C1679 0.961 . S
H1695 C1679 0.961 . S
H1696 C1680 0.931 . S
H1697 C1685 0.930 . S
H1698 C1686 0.956 . S
H1699 C1686 0.961 . S
H1700 C1686 0.961 . S
H1701 C1687 0.958 . S
H1702 C1687 0.961 . S
H1703 C1687 0.960 . S
C1704 C1705 1.391 . S
C1704 C1706 1.394 . S
C1704 H1720 0.931 . S
C1705 C1704 1.391 . S
C1705 C1709 1.376 . S
C1706 C1704 1.394 . S
C1706 C1707 1.369 . S
C1706 C1710 1.531 . S
C1707 C1706 1.369 . S
C1707 C1708 1.410 . S
C1707 C1715 1.503 . S
C1708 C1707 1.410 . S
C1708 C1709 1.392 . S
C1708 C1711 1.511 . S
C1709 C1705 1.376 . S
C1709 C1708 1.392 . S
C1709 H1721 0.929 . S
C1710 C1706 1.531 . S
C1710 H1722 0.960 . S
C1710 H1723 0.962 . S
C1710 H1724 0.960 . S
C1711 C1708 1.511 . S
C1711 H1725 0.961 . S
C1711 H1726 0.961 . S
C1711 H1727 0.961 . S
C1712 C1713 1.370 . S
C1712 C1714 1.363 . S
C1712 H1728 0.931 . S
C1713 C1712 1.370 . S
C1713 C1717 1.408 . S
C1714 C1712 1.363 . S
C1714 C1715 1.370 . S
C1714 C1718 1.524 . S
C1715 C1707 1.503 . S
C1715 C1714 1.370 . S
C1715 C1716 1.403 . S
C1716 C1715 1.403 . S
C1716 C1717 1.404 . S
C1716 C1719 1.539 . S
C1717 C1713 1.408 . S
C1717 C1716 1.404 . S
C1717 H1729 0.930 . S
C1718 C1714 1.524 . S
C1718 H1730 0.956 . S
C1718 H1731 0.961 . S
C1718 H1732 0.961 . S
C1719 C1716 1.539 . S
C1719 H1733 0.958 . S
C1719 H1734 0.961 . S
C1719 H1735 0.960 . S
H1720 C1704 0.931 . S
H1721 C1709 0.929 . S
H1722 C1710 0.960 . S
H1723 C1710 0.962 . S
H1724 C1710 0.960 . S
H1725 C1711 0.961 . S
H1726 C1711 0.961 . S
H1727 C1711 0.961 . S
H1728 C1712 0.931 . S
H1729 C1717 0.930 . S
H1730 C1718 0.956 . S
H1731 C1718 0.961 . S
H1732 C1718 0.961 . S
H1733 C1719 0.958 . S
H1734 C1719 0.961 . S
H1735 C1719 0.960 . S
C1736 C1737 1.391 . S
C1736 C1738 1.394 . S
C1736 H1752 0.931 . S
C1737 C1736 1.391 . S
C1737 C1741 1.376 . S
C1738 C1736 1.394 . S
C1738 C1739 1.369 . S
C1738 C1742 1.531 . S
C1739 C1738 1.369 . S
C1739 C1740 1.410 . S
C1739 C1747 1.503 . S
C1740 C1739 1.410 . S
C1740 C1741 1.392 . S
C1740 C1743 1.511 . S
C1741 C1737 1.376 . S
C1741 C1740 1.392 . S
C1741 H1753 0.929 . S
C1742 C1738 1.531 . S
C1742 H1754 0.960 . S
C1742 H1755 0.962 . S
C1742 H1756 0.960 . S
C1743 C1740 1.511 . S
C1743 H1757 0.961 . S
C1743 H1758 0.961 . S
C1743 H1759 0.961 . S
C1744 C1745 1.370 . S
C1744 C1746 1.363 . S
C1744 H1760 0.931 . S
C1745 C1744 1.370 . S
C1745 C1749 1.408 . S
C1746 C1744 1.363 . S
C1746 C1747 1.370 . S
C1746 C1750 1.524 . S
C1747 C1739 1.503 . S
C1747 C1746 1.370 . S
C1747 C1748 1.403 . S
C1748 C1747 1.403 . S
C1748 C1749 1.404 . S
C1748 C1751 1.539 . S
C1749 C1745 1.408 . S
C1749 C1748 1.404 . S
C1749 H1761 0.930 . S
C1750 C1746 1.524 . S
C1750 H1762 0.956 . S
C1750 H1763 0.961 . S
C1750 H1764 0.961 . S
C1751 C1748 1.539 . S
C1751 H1765 0.958 . S
C1751 H1766 0.961 . S
C1751 H1767 0.960 . S
H1752 C1736 0.931 . S
H1753 C1741 0.929 . S
H1754 C1742 0.960 . S
H1755 C1742 0.962 . S
H1756 C1742 0.960 . S
H1757 C1743 0.961 . S
H1758 C1743 0.961 . S
H1759 C1743 0.961 . S
H1760 C1744 0.931 . S
H1761 C1749 0.930 . S
H1762 C1750 0.956 . S
H1763 C1750 0.961 . S
H1764 C1750 0.961 . S
H1765 C1751 0.958 . S
H1766 C1751 0.961 . S
H1767 C1751 0.960 . S
C1768 C1769 1.391 . S
C1768 C1770 1.394 . S
C1768 H1784 0.931 . S
C1769 C1768 1.391 . S
C1769 C1773 1.376 . S
C1770 C1768 1.394 . S
C1770 C1771 1.369 . S
C1770 C1774 1.531 . S
C1771 C1770 1.369 . S
C1771 C1772 1.410 . S
C1771 C1779 1.503 . S
C1772 C1771 1.410 . S
C1772 C1773 1.392 . S
C1772 C1775 1.511 . S
C1773 C1769 1.376 . S
C1773 C1772 1.392 . S
C1773 H1785 0.929 . S
C1774 C1770 1.531 . S
C1774 H1786 0.960 . S
C1774 H1787 0.962 . S
C1774 H1788 0.960 . S
C1775 C1772 1.511 . S
C1775 H1789 0.961 . S
C1775 H1790 0.961 . S
C1775 H1791 0.961 . S
C1776 C1777 1.370 . S
C1776 C1778 1.363 . S
C1776 H1792 0.931 . S
C1777 C1776 1.370 . S
C1777 C1781 1.408 . S
C1778 C1776 1.363 . S
C1778 C1779 1.370 . S
C1778 C1782 1.524 . S
C1779 C1771 1.503 . S
C1779 C1778 1.370 . S
C1779 C1780 1.403 . S
C1780 C1779 1.403 . S
C1780 C1781 1.404 . S
C1780 C1783 1.539 . S
C1781 C1777 1.408 . S
C1781 C1780 1.404 . S
C1781 H1793 0.930 . S
C1782 C1778 1.524 . S
C1782 H1794 0.956 . S
C1782 H1795 0.961 . S
C1782 H1796 0.961 . S
C1783 C1780 1.539 . S
C1783 H1797 0.958 . S
C1783 H1798 0.961 . S
C1783 H1799 0.960 . S
H1784 C1768 0.931 . S
H1785 C1773 0.929 . S
H1786 C1774 0.960 . S
H1787 C1774 0.962 . S
H1788 C1774 0.960 . S
H1789 C1775 0.961 . S
H1790 C1775 0.961 . S
H1791 C1775 0.961 . S
H1792 C1776 0.931 . S
H1793 C1781 0.930 . S
H1794 C1782 0.956 . S
H1795 C1782 0.961 . S
H1796 C1782 0.961 . S
H1797 C1783 0.958 . S
H1798 C1783 0.961 . S
H1799 C1783 0.960 . S
C1800 C1801 1.391 . S
C1800 C1802 1.394 . S
C1800 H1816 0.931 . S
C1801 C1800 1.391 . S
C1801 C1805 1.376 . S
C1802 C1800 1.394 . S
C1802 C1803 1.369 1_565 S
C1802 C1806 1.520 1_565 S
C1803 C1802 1.369 1_545 S
C1803 C1804 1.410 1_545 S
C1803 C1811 1.503 . S
C1804 C1803 1.410 1_565 S
C1804 C1805 1.392 . S
C1804 C1807 1.511 1_565 S
C1805 C1801 1.376 . S
C1805 C1804 1.392 . S
C1805 H1817 0.929 . S
C1806 C1802 1.520 1_545 S
C1806 H1818 0.968 . S
C1806 H1819 0.978 . S
C1806 H1820 0.948 1_545 S
C1807 C1804 1.511 1_545 S
C1807 H1821 0.961 . S
C1807 H1822 0.961 . S
C1807 H1823 0.961 . S
C1808 C1809 1.370 . S
C1808 C1810 1.363 . S
C1808 H1824 0.931 . S
C1809 C1808 1.370 . S
C1809 C1813 1.408 . S
C1810 C1808 1.363 . S
C1810 C1811 1.370 . S
C1810 C1814 1.524 . S
C1811 C1803 1.503 . S
C1811 C1810 1.370 . S
C1811 C1812 1.403 . S
C1812 C1811 1.403 . S
C1812 C1813 1.404 . S
C1812 C1815 1.539 . S
C1813 C1809 1.408 . S
C1813 C1812 1.404 . S
C1813 H1825 0.930 . S
C1814 C1810 1.524 . S
C1814 H1826 0.956 . S
C1814 H1827 0.961 . S
C1814 H1828 0.961 . S
C1815 C1812 1.539 . S
C1815 H1829 0.958 . S
C1815 H1830 0.961 . S
C1815 H1831 0.960 . S
H1816 C1800 0.931 . S
H1817 C1805 0.929 . S
H1818 C1806 0.968 . S
H1819 C1806 0.978 . S
H1820 C1806 0.948 1_565 S
H1821 C1807 0.961 . S
H1822 C1807 0.961 . S
H1823 C1807 0.961 . S
H1824 C1808 0.931 . S
H1825 C1813 0.930 . S
H1826 C1814 0.956 . S
H1827 C1814 0.961 . S
H1828 C1814 0.961 . S
H1829 C1815 0.958 . S
H1830 C1815 0.961 . S
H1831 C1815 0.960 . S
C1832 C1833 1.391 . S
C1832 C1834 1.394 1_455 S
C1832 H1848 0.931 . S
C1833 C1832 1.391 . S
C1833 C1837 1.376 . S
C1834 C1832 1.394 1_655 S
C1834 C1835 1.369 . S
C1834 C1838 1.531 . S
C1835 C1834 1.369 . S
C1835 C1836 1.410 . S
C1835 C1843 1.503 . S
C1836 C1835 1.410 . S
C1836 C1837 1.392 1_655 S
C1836 C1839 1.511 . S
C1837 C1833 1.376 . S
C1837 C1836 1.392 1_455 S
C1837 H1849 0.929 . S
C1838 C1834 1.531 . S
C1838 H1850 0.960 . S
C1838 H1851 0.962 . S
C1838 H1852 0.960 . S
C1839 C1836 1.511 . S
C1839 H1853 0.961 1_655 S
C1839 H1854 0.961 . S
C1839 H1855 0.961 . S
C1840 C1841 1.370 . S
C1840 C1842 1.363 . S
C1840 H1856 0.931 . S
C1841 C1840 1.370 . S
C1841 C1845 1.408 . S
C1842 C1840 1.363 . S
C1842 C1843 1.370 . S
C1842 C1846 1.524 . S
C1843 C1835 1.503 . S
C1843 C1842 1.370 . S
C1843 C1844 1.403 . S
C1844 C1843 1.403 . S
C1844 C1845 1.404 . S
C1844 C1847 1.539 . S
C1845 C1841 1.408 . S
C1845 C1844 1.404 . S
C1845 H1857 0.930 . S
C1846 C1842 1.524 . S
C1846 H1858 0.956 . S
C1846 H1859 0.961 . S
C1846 H1860 0.961 . S
C1847 C1844 1.539 . S
C1847 H1861 0.958 . S
C1847 H1862 0.961 . S
C1847 H1863 0.960 . S
H1848 C1832 0.931 . S
H1849 C1837 0.929 . S
H1850 C1838 0.960 . S
H1851 C1838 0.962 . S
H1852 C1838 0.960 . S
H1853 C1839 0.961 1_455 S
H1854 C1839 0.961 . S
H1855 C1839 0.961 . S
H1856 C1840 0.931 . S
H1857 C1845 0.930 . S
H1858 C1846 0.956 . S
H1859 C1846 0.961 . S
H1860 C1846 0.961 . S
H1861 C1847 0.958 . S
H1862 C1847 0.961 . S
H1863 C1847 0.960 . S
C1864 C1865 1.391 . S
C1864 C1866 1.394 . S
C1864 H1880 0.931 . S
C1865 C1864 1.391 . S
C1865 C1869 1.376 . S
C1866 C1864 1.394 . S
C1866 C1867 1.369 . S
C1866 C1870 1.531 . S
C1867 C1866 1.369 . S
C1867 C1868 1.410 . S
C1867 C1875 1.503 . S
C1868 C1867 1.410 . S
C1868 C1869 1.392 . S
C1868 C1871 1.511 . S
C1869 C1865 1.376 . S
C1869 C1868 1.392 . S
C1869 H1881 0.929 . S
C1870 C1866 1.531 . S
C1870 H1882 0.960 . S
C1870 H1883 0.962 . S
C1870 H1884 0.960 . S
C1871 C1868 1.511 . S
C1871 H1885 0.961 . S
C1871 H1886 0.961 . S
C1871 H1887 0.961 . S
C1872 C1873 1.370 . S
C1872 C1874 1.363 . S
C1872 H1888 0.931 . S
C1873 C1872 1.370 . S
C1873 C1877 1.408 . S
C1874 C1872 1.363 . S
C1874 C1875 1.370 . S
C1874 C1878 1.524 . S
C1875 C1867 1.503 . S
C1875 C1874 1.370 . S
C1875 C1876 1.403 . S
C1876 C1875 1.403 . S
C1876 C1877 1.404 . S
C1876 C1879 1.539 . S
C1877 C1873 1.408 . S
C1877 C1876 1.404 . S
C1877 H1889 0.930 . S
C1878 C1874 1.524 . S
C1878 H1890 0.956 . S
C1878 H1891 0.961 . S
C1878 H1892 0.961 . S
C1879 C1876 1.539 . S
C1879 H1893 0.958 . S
C1879 H1894 0.961 . S
C1879 H1895 0.960 . S
H1880 C1864 0.931 . S
H1881 C1869 0.929 . S
H1882 C1870 0.960 . S
H1883 C1870 0.962 . S
H1884 C1870 0.960 . S
H1885 C1871 0.961 . S
H1886 C1871 0.961 . S
H1887 C1871 0.961 . S
H1888 C1872 0.931 . S
H1889 C1877 0.930 . S
H1890 C1878 0.956 . S
H1891 C1878 0.961 . S
H1892 C1878 0.961 . S
H1893 C1879 0.958 . S
H1894 C1879 0.961 . S
H1895 C1879 0.960 . S
C1896 C1897 1.391 . S
C1896 C1898 1.394 1_455 S
C1896 H1912 0.931 . S
C1897 C1896 1.391 . S
C1897 C1901 1.376 . S
C1898 C1896 1.394 1_655 S
C1898 C1899 1.369 . S
C1898 C1902 1.531 . S
C1899 C1898 1.369 . S
C1899 C1900 1.410 1_655 S
C1899 C1907 1.503 . S
C1900 C1899 1.410 1_455 S
C1900 C1901 1.392 . S
C1900 C1903 1.511 1_455 S
C1901 C1897 1.376 . S
C1901 C1900 1.392 . S
C1901 H1913 0.929 . S
C1902 C1898 1.531 . S
C1902 H1914 0.960 . S
C1902 H1915 0.962 . S
C1902 H1916 0.960 . S
C1903 C1900 1.511 1_655 S
C1903 H1917 0.961 1_655 S
C1903 H1918 0.961 . S
C1903 H1919 0.961 . S
C1904 C1905 1.370 . S
C1904 C1906 1.363 . S
C1904 H1920 0.931 . S
C1905 C1904 1.370 . S
C1905 C1909 1.408 . S
C1906 C1904 1.363 . S
C1906 C1907 1.370 . S
C1906 C1910 1.524 . S
C1907 C1899 1.503 . S
C1907 C1906 1.370 . S
C1907 C1908 1.403 . S
C1908 C1907 1.403 . S
C1908 C1909 1.404 . S
C1908 C1911 1.539 . S
C1909 C1905 1.408 . S
C1909 C1908 1.404 . S
C1909 H1921 0.930 . S
C1910 C1906 1.524 . S
C1910 H1922 0.956 . S
C1910 H1923 0.961 . S
C1910 H1924 0.961 . S
C1911 C1908 1.539 . S
C1911 H1925 0.958 . S
C1911 H1926 0.961 . S
C1911 H1927 0.960 . S
H1912 C1896 0.931 . S
H1913 C1901 0.929 . S
H1914 C1902 0.960 . S
H1915 C1902 0.962 . S
H1916 C1902 0.960 . S
H1917 C1903 0.961 1_455 S
H1918 C1903 0.961 . S
H1919 C1903 0.961 . S
H1920 C1904 0.931 . S
H1921 C1909 0.930 . S
H1922 C1910 0.956 . S
H1923 C1910 0.961 . S
H1924 C1910 0.961 . S
H1925 C1911 0.958 . S
H1926 C1911 0.961 . S
H1927 C1911 0.960 . S
C1928 C1929 1.391 . S
C1928 C1930 1.394 . S
C1928 H1944 0.931 . S
C1929 C1928 1.391 . S
C1929 C1933 1.376 . S
C1930 C1928 1.394 . S
C1930 C1931 1.369 . S
C1930 C1934 1.531 . S
C1931 C1930 1.369 . S
C1931 C1932 1.410 . S
C1931 C1939 1.503 . S
C1932 C1931 1.410 . S
C1932 C1933 1.392 . S
C1932 C1935 1.511 . S
C1933 C1929 1.376 . S
C1933 C1932 1.392 . S
C1933 H1945 0.929 . S
C1934 C1930 1.531 . S
C1934 H1946 0.960 . S
C1934 H1947 0.962 . S
C1934 H1948 0.960 . S
C1935 C1932 1.511 . S
C1935 H1949 0.961 . S
C1935 H1950 0.961 . S
C1935 H1951 0.961 . S
C1936 C1937 1.370 . S
C1936 C1938 1.363 . S
C1936 H1952 0.931 . S
C1937 C1936 1.370 . S
C1937 C1941 1.408 . S
C1938 C1936 1.363 . S
C1938 C1939 1.370 . S
C1938 C1942 1.524 . S
C1939 C1931 1.503 . S
C1939 C1938 1.370 . S
C1939 C1940 1.403 . S
C1940 C1939 1.403 . S
C1940 C1941 1.404 . S
C1940 C1943 1.539 . S
C1941 C1937 1.408 . S
C1941 C1940 1.404 . S
C1941 H1953 0.930 . S
C1942 C1938 1.524 . S
C1942 H1954 0.956 . S
C1942 H1955 0.961 . S
C1942 H1956 0.961 . S
C1943 C1940 1.539 . S
C1943 H1957 0.958 . S
C1943 H1958 0.961 . S
C1943 H1959 0.960 . S
H1944 C1928 0.931 . S
H1945 C1933 0.929 . S
H1946 C1934 0.960 . S
H1947 C1934 0.962 . S
H1948 C1934 0.960 . S
H1949 C1935 0.961 . S
H1950 C1935 0.961 . S
H1951 C1935 0.961 . S
H1952 C1936 0.931 . S
H1953 C1941 0.930 . S
H1954 C1942 0.956 . S
H1955 C1942 0.961 . S
H1956 C1942 0.961 . S
H1957 C1943 0.958 . S
H1958 C1943 0.961 . S
H1959 C1943 0.960 . S
C1960 C1961 1.391 . S
C1960 C1962 1.394 . S
C1960 H1976 0.931 . S
C1961 C1960 1.391 . S
C1961 C1965 1.376 . S
C1962 C1960 1.394 . S
C1962 C1963 1.369 1_565 S
C1962 C1966 1.531 1_565 S
C1963 C1962 1.369 1_545 S
C1963 C1964 1.410 1_545 S
C1963 C1971 1.503 . S
C1964 C1963 1.410 1_565 S
C1964 C1965 1.392 . S
C1964 C1967 1.511 1_565 S
C1965 C1961 1.376 . S
C1965 C1964 1.392 . S
C1965 H1977 0.929 . S
C1966 C1962 1.531 1_545 S
C1966 H1978 0.960 . S
C1966 H1979 0.962 . S
C1966 H1980 0.960 1_545 S
C1967 C1964 1.511 1_545 S
C1967 H1981 0.961 1_545 S
C1967 H1982 0.961 . S
C1967 H1983 0.961 . S
C1968 C1969 1.370 . S
C1968 C1970 1.363 . S
C1968 H1984 0.931 . S
C1969 C1968 1.370 . S
C1969 C1973 1.408 . S
C1970 C1968 1.363 . S
C1970 C1971 1.370 . S
C1970 C1974 1.524 . S
C1971 C1963 1.503 . S
C1971 C1970 1.370 . S
C1971 C1972 1.403 . S
C1972 C1971 1.403 . S
C1972 C1973 1.404 . S
C1972 C1975 1.539 . S
C1973 C1969 1.408 . S
C1973 C1972 1.404 . S
C1973 H1985 0.930 . S
C1974 C1970 1.524 . S
C1974 H1986 0.956 . S
C1974 H1987 0.961 . S
C1974 H1988 0.961 . S
C1975 C1972 1.539 . S
C1975 H1989 0.958 . S
C1975 H1990 0.961 . S
C1975 H1991 0.960 . S
H1976 C1960 0.931 . S
H1977 C1965 0.929 . S
H1978 C1966 0.960 . S
H1979 C1966 0.962 . S
H1980 C1966 0.960 1_565 S
H1981 C1967 0.961 1_565 S
H1982 C1967 0.961 . S
H1983 C1967 0.961 . S
H1984 C1968 0.931 . S
H1985 C1973 0.930 . S
H1986 C1974 0.956 . S
H1987 C1974 0.961 . S
H1988 C1974 0.961 . S
H1989 C1975 0.958 . S
H1990 C1975 0.961 . S
H1991 C1975 0.960 . S
C1992 C1993 1.391 . S
C1992 C1994 1.394 . S
C1992 H2008 0.931 . S
C1993 C1992 1.391 . S
C1993 C1997 1.376 . S
C1994 C1992 1.394 . S
C1994 C1995 1.369 . S
C1994 C1998 1.531 . S
C1995 C1994 1.369 . S
C1995 C1996 1.410 . S
C1995 C2003 1.503 . S
C1996 C1995 1.410 . S
C1996 C1997 1.392 . S
C1996 C1999 1.511 . S
C1997 C1993 1.376 . S
C1997 C1996 1.392 . S
C1997 H2009 0.929 . S
C1998 C1994 1.531 . S
C1998 H2010 0.960 . S
C1998 H2011 0.962 . S
C1998 H2012 0.960 . S
C1999 C1996 1.511 . S
C1999 H2013 0.961 . S
C1999 H2014 0.961 . S
C1999 H2015 0.961 . S
C2000 C2001 1.370 . S
C2000 C2002 1.363 . S
C2000 H2016 0.931 . S
C2001 C2000 1.370 . S
C2001 C2005 1.408 . S
C2002 C2000 1.363 . S
C2002 C2003 1.370 . S
C2002 C2006 1.524 . S
C2003 C1995 1.503 . S
C2003 C2002 1.370 . S
C2003 C2004 1.403 . S
C2004 C2003 1.403 . S
C2004 C2005 1.404 . S
C2004 C2007 1.539 . S
C2005 C2001 1.408 . S
C2005 C2004 1.404 . S
C2005 H2017 0.930 . S
C2006 C2002 1.524 . S
C2006 H2018 0.956 . S
C2006 H2019 0.961 . S
C2006 H2020 0.961 . S
C2007 C2004 1.539 . S
C2007 H2021 0.958 . S
C2007 H2022 0.961 . S
C2007 H2023 0.960 . S
H2008 C1992 0.931 . S
H2009 C1997 0.929 . S
H2010 C1998 0.960 . S
H2011 C1998 0.962 . S
H2012 C1998 0.960 . S
H2013 C1999 0.961 . S
H2014 C1999 0.961 . S
H2015 C1999 0.961 . S
H2016 C2000 0.931 . S
H2017 C2005 0.930 . S
H2018 C2006 0.956 . S
H2019 C2006 0.961 . S
H2020 C2006 0.961 . S
H2021 C2007 0.958 . S
H2022 C2007 0.961 . S
H2023 C2007 0.960 . S
C2024 C2025 1.391 . S
C2024 C2026 1.394 . S
C2024 H2040 0.931 . S
C2025 C2024 1.391 . S
C2025 C2029 1.376 . S
C2026 C2024 1.394 . S
C2026 C2027 1.369 . S
C2026 C2030 1.531 . S
C2027 C2026 1.369 . S
C2027 C2028 1.410 . S
C2027 C2035 1.503 . S
C2028 C2027 1.410 . S
C2028 C2029 1.392 . S
C2028 C2031 1.511 . S
C2029 C2025 1.376 . S
C2029 C2028 1.392 . S
C2029 H2041 0.929 . S
C2030 C2026 1.531 . S
C2030 H2042 0.960 . S
C2030 H2043 0.962 . S
C2030 H2044 0.960 . S
C2031 C2028 1.511 . S
C2031 H2045 0.961 . S
C2031 H2046 0.961 . S
C2031 H2047 0.961 . S
C2032 C2033 1.370 . S
C2032 C2034 1.363 . S
C2032 H2048 0.931 . S
C2033 C2032 1.370 . S
C2033 C2037 1.408 . S
C2034 C2032 1.363 . S
C2034 C2035 1.370 . S
C2034 C2038 1.524 . S
C2035 C2027 1.503 . S
C2035 C2034 1.370 . S
C2035 C2036 1.403 . S
C2036 C2035 1.403 . S
C2036 C2037 1.404 . S
C2036 C2039 1.539 . S
C2037 C2033 1.408 . S
C2037 C2036 1.404 . S
C2037 H2049 0.930 . S
C2038 C2034 1.524 . S
C2038 H2050 0.956 . S
C2038 H2051 0.961 . S
C2038 H2052 0.961 . S
C2039 C2036 1.539 . S
C2039 H2053 0.958 . S
C2039 H2054 0.961 . S
C2039 H2055 0.960 . S
H2040 C2024 0.931 . S
H2041 C2029 0.929 . S
H2042 C2030 0.960 . S
H2043 C2030 0.962 . S
H2044 C2030 0.960 . S
H2045 C2031 0.961 . S
H2046 C2031 0.961 . S
H2047 C2031 0.961 . S
H2048 C2032 0.931 . S
H2049 C2037 0.930 . S
H2050 C2038 0.956 . S
H2051 C2038 0.961 . S
H2052 C2038 0.961 . S
H2053 C2039 0.958 . S
H2054 C2039 0.961 . S
H2055 C2039 0.960 . S
C2056 C2057 1.391 . S
C2056 C2058 1.394 . S
C2056 H2072 0.931 . S
C2057 C2056 1.391 . S
C2057 C2061 1.376 . S
C2058 C2056 1.394 . S
C2058 C2059 1.369 . S
C2058 C2062 1.531 . S
C2059 C2058 1.369 . S
C2059 C2060 1.410 . S
C2059 C2067 1.503 . S
C2060 C2059 1.410 . S
C2060 C2061 1.392 . S
C2060 C2063 1.511 . S
C2061 C2057 1.376 . S
C2061 C2060 1.392 . S
C2061 H2073 0.929 . S
C2062 C2058 1.531 . S
C2062 H2074 0.960 . S
C2062 H2075 0.962 . S
C2062 H2076 0.960 . S
C2063 C2060 1.511 . S
C2063 H2077 0.961 . S
C2063 H2078 0.961 . S
C2063 H2079 0.961 . S
C2064 C2065 1.370 . S
C2064 C2066 1.363 . S
C2064 H2080 0.931 . S
C2065 C2064 1.370 . S
C2065 C2069 1.408 . S
C2066 C2064 1.363 . S
C2066 C2067 1.370 . S
C2066 C2070 1.524 . S
C2067 C2059 1.503 . S
C2067 C2066 1.370 . S
C2067 C2068 1.403 . S
C2068 C2067 1.403 . S
C2068 C2069 1.404 . S
C2068 C2071 1.539 . S
C2069 C2065 1.408 . S
C2069 C2068 1.404 . S
C2069 H2081 0.930 . S
C2070 C2066 1.524 . S
C2070 H2082 0.956 . S
C2070 H2083 0.961 . S
C2070 H2084 0.961 . S
C2071 C2068 1.539 . S
C2071 H2085 0.958 . S
C2071 H2086 0.961 . S
C2071 H2087 0.960 . S
H2072 C2056 0.931 . S
H2073 C2061 0.929 . S
H2074 C2062 0.960 . S
H2075 C2062 0.962 . S
H2076 C2062 0.960 . S
H2077 C2063 0.961 . S
H2078 C2063 0.961 . S
H2079 C2063 0.961 . S
H2080 C2064 0.931 . S
H2081 C2069 0.930 . S
H2082 C2070 0.956 . S
H2083 C2070 0.961 . S
H2084 C2070 0.961 . S
H2085 C2071 0.958 . S
H2086 C2071 0.961 . S
H2087 C2071 0.960 . S
C2088 C2089 1.391 . S
C2088 C2090 1.394 . S
C2088 H2104 0.931 . S
C2089 C2088 1.391 . S
C2089 C2093 1.376 . S
C2090 C2088 1.394 . S
C2090 C2091 1.369 . S
C2090 C2094 1.531 . S
C2091 C2090 1.369 . S
C2091 C2092 1.410 . S
C2091 C2099 1.503 . S
C2092 C2091 1.410 . S
C2092 C2093 1.392 . S
C2092 C2095 1.511 . S
C2093 C2089 1.376 . S
C2093 C2092 1.392 . S
C2093 H2105 0.929 . S
C2094 C2090 1.531 . S
C2094 H2106 0.960 1_565 S
C2094 H2107 0.962 . S
C2094 H2108 0.960 1_565 S
C2095 C2092 1.511 . S
C2095 H2109 0.961 . S
C2095 H2110 0.961 . S
C2095 H2111 0.961 . S
C2096 C2097 1.370 . S
C2096 C2098 1.363 . S
C2096 H2112 0.931 . S
C2097 C2096 1.370 . S
C2097 C2101 1.408 1_565 S
C2098 C2096 1.363 . S
C2098 C2099 1.370 . S
C2098 C2102 1.524 . S
C2099 C2091 1.503 . S
C2099 C2098 1.370 . S
C2099 C2100 1.403 1_565 S
C2100 C2099 1.403 1_545 S
C2100 C2101 1.404 . S
C2100 C2103 1.539 . S
C2101 C2097 1.408 1_545 S
C2101 C2100 1.404 . S
C2101 H2113 0.930 . S
C2102 C2098 1.524 . S
C2102 H2114 0.956 . S
C2102 H2115 0.961 . S
C2102 H2116 0.961 . S
C2103 C2100 1.539 . S
C2103 H2117 0.958 . S
C2103 H2118 0.961 . S
C2103 H2119 0.960 . S
H2104 C2088 0.931 . S
H2105 C2093 0.929 . S
H2106 C2094 0.960 1_545 S
H2107 C2094 0.962 . S
H2108 C2094 0.960 1_545 S
H2109 C2095 0.961 . S
H2110 C2095 0.961 . S
H2111 C2095 0.961 . S
H2112 C2096 0.931 . S
H2113 C2101 0.930 . S
H2114 C2102 0.956 . S
H2115 C2102 0.961 . S
H2116 C2102 0.961 . S
H2117 C2103 0.958 . S
H2118 C2103 0.961 . S
H2119 C2103 0.960 . S
C2120 C2121 1.391 . S
C2120 C2122 1.394 . S
C2120 H2136 0.931 . S
C2121 C2120 1.391 . S
C2121 C2125 1.376 . S
C2122 C2120 1.394 . S
C2122 C2123 1.369 . S
C2122 C2126 1.531 . S
C2123 C2122 1.369 . S
C2123 C2124 1.410 . S
C2123 C2131 1.503 . S
C2124 C2123 1.410 . S
C2124 C2125 1.392 . S
C2124 C2127 1.511 1_455 S
C2125 C2121 1.376 . S
C2125 C2124 1.392 . S
C2125 H2137 0.929 1_455 S
C2126 C2122 1.531 . S
C2126 H2138 0.960 . S
C2126 H2139 0.962 . S
C2126 H2140 0.960 . S
C2127 C2124 1.511 1_655 S
C2127 H2141 0.961 . S
C2127 H2142 0.961 . S
C2127 H2143 0.961 . S
C2128 C2129 1.370 . S
C2128 C2130 1.363 . S
C2128 H2144 0.931 . S
C2129 C2128 1.370 . S
C2129 C2133 1.408 1_455 S
C2130 C2128 1.363 . S
C2130 C2131 1.370 . S
C2130 C2134 1.524 . S
C2131 C2123 1.503 . S
C2131 C2130 1.370 . S
C2131 C2132 1.403 1_455 S
C2132 C2131 1.403 1_655 S
C2132 C2133 1.404 . S
C2132 C2135 1.539 . S
C2133 C2129 1.408 1_655 S
C2133 C2132 1.404 . S
C2133 H2145 0.930 . S
C2134 C2130 1.524 . S
C2134 H2146 0.956 . S
C2134 H2147 0.961 . S
C2134 H2148 0.961 . S
C2135 C2132 1.539 . S
C2135 H2149 0.958 . S
C2135 H2150 0.961 . S
C2135 H2151 0.960 . S
H2136 C2120 0.931 . S
H2137 C2125 0.929 1_655 S
H2138 C2126 0.960 . S
H2139 C2126 0.962 . S
H2140 C2126 0.960 . S
H2141 C2127 0.961 . S
H2142 C2127 0.961 . S
H2143 C2127 0.961 . S
H2144 C2128 0.931 . S
H2145 C2133 0.930 . S
H2146 C2134 0.956 . S
H2147 C2134 0.961 . S
H2148 C2134 0.961 . S
H2149 C2135 0.958 . S
H2150 C2135 0.961 . S
H2151 C2135 0.960 . S
C2152 C2153 1.391 . S
C2152 C2154 1.394 . S
C2152 H2168 0.931 . S
C2153 C2152 1.391 . S
C2153 C2157 1.376 . S
C2154 C2152 1.394 . S
C2154 C2155 1.369 . S
C2154 C2158 1.531 . S
C2155 C2154 1.369 . S
C2155 C2156 1.410 . S
C2155 C2163 1.503 . S
C2156 C2155 1.410 . S
C2156 C2157 1.392 . S
C2156 C2159 1.511 . S
C2157 C2153 1.376 . S
C2157 C2156 1.392 . S
C2157 H2169 0.929 . S
C2158 C2154 1.531 . S
C2158 H2170 0.960 . S
C2158 H2171 0.962 . S
C2158 H2172 0.960 . S
C2159 C2156 1.511 . S
C2159 H2173 0.961 . S
C2159 H2174 0.961 . S
C2159 H2175 0.961 . S
C2160 C2161 1.370 . S
C2160 C2162 1.363 . S
C2160 H2176 0.931 . S
C2161 C2160 1.370 . S
C2161 C2165 1.408 . S
C2162 C2160 1.363 . S
C2162 C2163 1.370 . S
C2162 C2166 1.524 . S
C2163 C2155 1.503 . S
C2163 C2162 1.370 . S
C2163 C2164 1.403 . S
C2164 C2163 1.403 . S
C2164 C2165 1.404 . S
C2164 C2167 1.539 . S
C2165 C2161 1.408 . S
C2165 C2164 1.404 . S
C2165 H2177 0.930 . S
C2166 C2162 1.524 . S
C2166 H2178 0.956 . S
C2166 H2179 0.961 . S
C2166 H2180 0.961 . S
C2167 C2164 1.539 . S
C2167 H2181 0.958 . S
C2167 H2182 0.961 . S
C2167 H2183 0.960 . S
H2168 C2152 0.931 . S
H2169 C2157 0.929 . S
H2170 C2158 0.960 . S
H2171 C2158 0.962 . S
H2172 C2158 0.960 . S
H2173 C2159 0.961 . S
H2174 C2159 0.961 . S
H2175 C2159 0.961 . S
H2176 C2160 0.931 . S
H2177 C2165 0.930 . S
H2178 C2166 0.956 . S
H2179 C2166 0.961 . S
H2180 C2166 0.961 . S
H2181 C2167 0.958 . S
H2182 C2167 0.961 . S
H2183 C2167 0.960 . S
C2184 C2185 1.391 1_455 S
C2184 C2186 1.394 . S
C2184 H2200 0.931 . S
C2185 C2184 1.391 1_655 S
C2185 C2189 1.376 . S
C2186 C2184 1.394 . S
C2186 C2187 1.369 1_455 S
C2186 C2190 1.531 . S
C2187 C2186 1.369 1_655 S
C2187 C2188 1.410 . S
C2187 C2195 1.503 . S
C2188 C2187 1.410 . S
C2188 C2189 1.392 . S
C2188 C2191 1.511 . S
C2189 C2185 1.376 . S
C2189 C2188 1.392 . S
C2189 H2201 0.929 . S
C2190 C2186 1.531 . S
C2190 H2202 0.960 . S
C2190 H2203 0.962 . S
C2190 H2204 0.960 . S
C2191 C2188 1.511 . S
C2191 H2205 0.961 . S
C2191 H2206 0.961 . S
C2191 H2207 0.961 . S
C2192 C2193 1.370 . S
C2192 C2194 1.363 . S
C2192 H2208 0.931 . S
C2193 C2192 1.370 . S
C2193 C2197 1.408 . S
C2194 C2192 1.363 . S
C2194 C2195 1.370 . S
C2194 C2198 1.524 . S
C2195 C2187 1.503 . S
C2195 C2194 1.370 . S
C2195 C2196 1.403 . S
C2196 C2195 1.403 . S
C2196 C2197 1.404 . S
C2196 C2199 1.539 . S
C2197 C2193 1.408 . S
C2197 C2196 1.404 . S
C2197 H2209 0.930 . S
C2198 C2194 1.524 . S
C2198 H2210 0.956 . S
C2198 H2211 0.961 . S
C2198 H2212 0.961 . S
C2199 C2196 1.539 . S
C2199 H2213 0.958 1_655 S
C2199 H2214 0.961 . S
C2199 H2215 0.960 . S
H2200 C2184 0.931 . S
H2201 C2189 0.929 . S
H2202 C2190 0.960 . S
H2203 C2190 0.962 . S
H2204 C2190 0.960 . S
H2205 C2191 0.961 . S
H2206 C2191 0.961 . S
H2207 C2191 0.961 . S
H2208 C2192 0.931 . S
H2209 C2197 0.930 . S
H2210 C2198 0.956 . S
H2211 C2198 0.961 . S
H2212 C2198 0.961 . S
H2213 C2199 0.958 1_455 S
H2214 C2199 0.961 . S
H2215 C2199 0.960 . S
C2216 C2217 1.391 . S
C2216 C2218 1.394 . S
C2216 H2232 0.931 . S
C2217 C2216 1.391 . S
C2217 C2221 1.376 . S
C2218 C2216 1.394 . S
C2218 C2219 1.369 . S
C2218 C2222 1.531 . S
C2219 C2218 1.369 . S
C2219 C2220 1.410 . S
C2219 C2227 1.503 . S
C2220 C2219 1.410 . S
C2220 C2221 1.392 . S
C2220 C2223 1.511 . S
C2221 C2217 1.376 . S
C2221 C2220 1.392 . S
C2221 H2233 0.929 . S
C2222 C2218 1.531 . S
C2222 H2234 0.960 . S
C2222 H2235 0.962 . S
C2222 H2236 0.960 . S
C2223 C2220 1.511 . S
C2223 H2237 0.961 . S
C2223 H2238 0.961 . S
C2223 H2239 0.961 . S
C2224 C2225 1.370 . S
C2224 C2226 1.363 . S
C2224 H2240 0.931 . S
C2225 C2224 1.370 . S
C2225 C2229 1.408 . S
C2226 C2224 1.363 . S
C2226 C2227 1.370 . S
C2226 C2230 1.524 . S
C2227 C2219 1.503 . S
C2227 C2226 1.370 . S
C2227 C2228 1.403 . S
C2228 C2227 1.403 . S
C2228 C2229 1.404 . S
C2228 C2231 1.539 . S
C2229 C2225 1.408 . S
C2229 C2228 1.404 . S
C2229 H2241 0.930 . S
C2230 C2226 1.524 . S
C2230 H2242 0.956 . S
C2230 H2243 0.961 . S
C2230 H2244 0.961 . S
C2231 C2228 1.539 . S
C2231 H2245 0.958 . S
C2231 H2246 0.961 . S
C2231 H2247 0.960 . S
H2232 C2216 0.931 . S
H2233 C2221 0.929 . S
H2234 C2222 0.960 . S
H2235 C2222 0.962 . S
H2236 C2222 0.960 . S
H2237 C2223 0.961 . S
H2238 C2223 0.961 . S
H2239 C2223 0.961 . S
H2240 C2224 0.931 . S
H2241 C2229 0.930 . S
H2242 C2230 0.956 . S
H2243 C2230 0.961 . S
H2244 C2230 0.961 . S
H2245 C2231 0.958 . S
H2246 C2231 0.961 . S
H2247 C2231 0.960 . S
C2248 C2249 1.391 . S
C2248 C2250 1.394 . S
C2248 H2264 0.931 . S
C2249 C2248 1.391 . S
C2249 C2253 1.376 . S
C2250 C2248 1.394 . S
C2250 C2251 1.369 . S
C2250 C2254 1.531 . S
C2251 C2250 1.369 . S
C2251 C2252 1.410 . S
C2251 C2259 1.503 . S
C2252 C2251 1.410 . S
C2252 C2253 1.392 . S
C2252 C2255 1.511 1_545 S
C2253 C2249 1.376 . S
C2253 C2252 1.392 . S
C2253 H2265 0.929 . S
C2254 C2250 1.531 . S
C2254 H2266 0.960 . S
C2254 H2267 0.962 . S
C2254 H2268 0.960 . S
C2255 C2252 1.511 1_565 S
C2255 H2269 0.961 . S
C2255 H2270 0.961 . S
C2255 H2271 0.961 . S
C2256 C2257 1.370 . S
C2256 C2258 1.363 . S
C2256 H2272 0.931 . S
C2257 C2256 1.370 . S
C2257 C2261 1.408 . S
C2258 C2256 1.363 . S
C2258 C2259 1.370 . S
C2258 C2262 1.524 . S
C2259 C2251 1.503 . S
C2259 C2258 1.370 . S
C2259 C2260 1.403 . S
C2260 C2259 1.403 . S
C2260 C2261 1.404 . S
C2260 C2263 1.539 . S
C2261 C2257 1.408 . S
C2261 C2260 1.404 . S
C2261 H2273 0.930 . S
C2262 C2258 1.524 . S
C2262 H2274 0.956 . S
C2262 H2275 0.961 . S
C2262 H2276 0.961 . S
C2263 C2260 1.539 . S
C2263 H2277 0.958 . S
C2263 H2278 0.961 . S
C2263 H2279 0.960 . S
H2264 C2248 0.931 . S
H2265 C2253 0.929 . S
H2266 C2254 0.960 . S
H2267 C2254 0.962 . S
H2268 C2254 0.960 . S
H2269 C2255 0.961 . S
H2270 C2255 0.961 . S
H2271 C2255 0.961 . S
H2272 C2256 0.931 . S
H2273 C2261 0.930 . S
H2274 C2262 0.956 . S
H2275 C2262 0.961 . S
H2276 C2262 0.961 . S
H2277 C2263 0.958 . S
H2278 C2263 0.961 . S
H2279 C2263 0.960 . S
C2280 C2281 1.391 . S
C2280 C2282 1.394 . S
C2280 H2296 0.931 . S
C2281 C2280 1.391 . S
C2281 C2285 1.376 . S
C2282 C2280 1.394 . S
C2282 C2283 1.369 . S
C2282 C2286 1.531 . S
C2283 C2282 1.369 . S
C2283 C2284 1.410 . S
C2283 C2291 1.503 . S
C2284 C2283 1.410 . S
C2284 C2285 1.392 . S
C2284 C2287 1.511 . S
C2285 C2281 1.376 . S
C2285 C2284 1.392 . S
C2285 H2297 0.929 . S
C2286 C2282 1.531 . S
C2286 H2298 0.960 . S
C2286 H2299 0.962 . S
C2286 H2300 0.960 . S
C2287 C2284 1.511 . S
C2287 H2301 0.961 . S
C2287 H2302 0.961 . S
C2287 H2303 0.961 . S
C2288 C2289 1.370 . S
C2288 C2290 1.363 . S
C2288 H2304 0.931 . S
C2289 C2288 1.370 . S
C2289 C2293 1.408 . S
C2290 C2288 1.363 . S
C2290 C2291 1.370 . S
C2290 C2294 1.524 . S
C2291 C2283 1.503 . S
C2291 C2290 1.370 . S
C2291 C2292 1.403 . S
C2292 C2291 1.403 . S
C2292 C2293 1.404 . S
C2292 C2295 1.539 . S
C2293 C2289 1.408 . S
C2293 C2292 1.404 . S
C2293 H2305 0.930 . S
C2294 C2290 1.524 . S
C2294 H2306 0.956 . S
C2294 H2307 0.961 . S
C2294 H2308 0.961 . S
C2295 C2292 1.539 . S
C2295 H2309 0.958 . S
C2295 H2310 0.961 . S
C2295 H2311 0.960 . S
H2296 C2280 0.931 . S
H2297 C2285 0.929 . S
H2298 C2286 0.960 . S
H2299 C2286 0.962 . S
H2300 C2286 0.960 . S
H2301 C2287 0.961 . S
H2302 C2287 0.961 . S
H2303 C2287 0.961 . S
H2304 C2288 0.931 . S
H2305 C2293 0.930 . S
H2306 C2294 0.956 . S
H2307 C2294 0.961 . S
H2308 C2294 0.961 . S
H2309 C2295 0.958 . S
H2310 C2295 0.961 . S
H2311 C2295 0.960 . S
C2312 C2313 1.391 . S
C2312 C2314 1.394 . S
C2312 H2328 0.931 . S
C2313 C2312 1.391 . S
C2313 C2317 1.376 . S
C2314 C2312 1.394 . S
C2314 C2315 1.369 . S
C2314 C2318 1.531 . S
C2315 C2314 1.369 . S
C2315 C2316 1.410 . S
C2315 C2323 1.503 . S
C2316 C2315 1.410 . S
C2316 C2317 1.392 . S
C2316 C2319 1.511 . S
C2317 C2313 1.376 . S
C2317 C2316 1.392 . S
C2317 H2329 0.929 . S
C2318 C2314 1.531 . S
C2318 H2330 0.960 . S
C2318 H2331 0.962 . S
C2318 H2332 0.960 . S
C2319 C2316 1.511 . S
C2319 H2333 0.961 . S
C2319 H2334 0.961 . S
C2319 H2335 0.961 . S
C2320 C2321 1.370 . S
C2320 C2322 1.363 . S
C2320 H2336 0.931 . S
C2321 C2320 1.370 . S
C2321 C2325 1.408 . S
C2322 C2320 1.363 . S
C2322 C2323 1.370 . S
C2322 C2326 1.524 . S
C2323 C2315 1.503 . S
C2323 C2322 1.370 . S
C2323 C2324 1.403 . S
C2324 C2323 1.403 . S
C2324 C2325 1.404 . S
C2324 C2327 1.539 . S
C2325 C2321 1.408 . S
C2325 C2324 1.404 . S
C2325 H2337 0.930 . S
C2326 C2322 1.524 . S
C2326 H2338 0.956 . S
C2326 H2339 0.961 . S
C2326 H2340 0.961 . S
C2327 C2324 1.539 . S
C2327 H2341 0.958 . S
C2327 H2342 0.961 . S
C2327 H2343 0.960 . S
H2328 C2312 0.931 . S
H2329 C2317 0.929 . S
H2330 C2318 0.960 . S
H2331 C2318 0.962 . S
H2332 C2318 0.960 . S
H2333 C2319 0.961 . S
H2334 C2319 0.961 . S
H2335 C2319 0.961 . S
H2336 C2320 0.931 . S
H2337 C2325 0.930 . S
H2338 C2326 0.956 . S
H2339 C2326 0.961 . S
H2340 C2326 0.961 . S
H2341 C2327 0.958 . S
H2342 C2327 0.961 . S
H2343 C2327 0.960 . S
C2344 C2345 1.391 . S
C2344 C2346 1.394 . S
C2344 H2360 0.931 . S
C2345 C2344 1.391 . S
C2345 C2349 1.376 . S
C2346 C2344 1.394 . S
C2346 C2347 1.369 . S
C2346 C2350 1.531 . S
C2347 C2346 1.369 . S
C2347 C2348 1.410 . S
C2347 C2355 1.503 . S
C2348 C2347 1.410 . S
C2348 C2349 1.392 . S
C2348 C2351 1.511 . S
C2349 C2345 1.376 . S
C2349 C2348 1.392 . S
C2349 H2361 0.929 . S
C2350 C2346 1.531 . S
C2350 H2362 0.960 . S
C2350 H2363 0.962 . S
C2350 H2364 0.960 . S
C2351 C2348 1.511 . S
C2351 H2365 0.961 . S
C2351 H2366 0.961 . S
C2351 H2367 0.961 . S
C2352 C2353 1.370 . S
C2352 C2354 1.363 . S
C2352 H2368 0.931 . S
C2353 C2352 1.370 . S
C2353 C2357 1.408 . S
C2354 C2352 1.363 . S
C2354 C2355 1.370 . S
C2354 C2358 1.524 . S
C2355 C2347 1.503 . S
C2355 C2354 1.370 . S
C2355 C2356 1.403 . S
C2356 C2355 1.403 . S
C2356 C2357 1.404 . S
C2356 C2359 1.539 . S
C2357 C2353 1.408 . S
C2357 C2356 1.404 . S
C2357 H2369 0.930 . S
C2358 C2354 1.524 . S
C2358 H2370 0.956 . S
C2358 H2371 0.961 . S
C2358 H2372 0.961 . S
C2359 C2356 1.539 . S
C2359 H2373 0.958 . S
C2359 H2374 0.961 . S
C2359 H2375 0.960 . S
H2360 C2344 0.931 . S
H2361 C2349 0.929 . S
H2362 C2350 0.960 . S
H2363 C2350 0.962 . S
H2364 C2350 0.960 . S
H2365 C2351 0.961 . S
H2366 C2351 0.961 . S
H2367 C2351 0.961 . S
H2368 C2352 0.931 . S
H2369 C2357 0.930 . S
H2370 C2358 0.956 . S
H2371 C2358 0.961 . S
H2372 C2358 0.961 . S
H2373 C2359 0.958 . S
H2374 C2359 0.961 . S
H2375 C2359 0.960 . S
C2376 C2377 1.391 . S
C2376 C2378 1.394 . S
C2376 H2392 0.931 . S
C2377 C2376 1.391 . S
C2377 C2381 1.376 . S
C2378 C2376 1.394 . S
C2378 C2379 1.369 . S
C2378 C2382 1.531 . S
C2379 C2378 1.369 . S
C2379 C2380 1.410 . S
C2379 C2387 1.503 . S
C2380 C2379 1.410 . S
C2380 C2381 1.392 . S
C2380 C2383 1.511 . S
C2381 C2377 1.376 . S
C2381 C2380 1.392 . S
C2381 H2393 0.929 . S
C2382 C2378 1.531 . S
C2382 H2394 0.960 . S
C2382 H2395 0.962 . S
C2382 H2396 0.960 . S
C2383 C2380 1.511 . S
C2383 H2397 0.961 . S
C2383 H2398 0.961 . S
C2383 H2399 0.961 . S
C2384 C2385 1.370 . S
C2384 C2386 1.363 . S
C2384 H2400 0.931 . S
C2385 C2384 1.370 . S
C2385 C2389 1.408 . S
C2386 C2384 1.363 . S
C2386 C2387 1.370 . S
C2386 C2390 1.524 . S
C2387 C2379 1.503 . S
C2387 C2386 1.370 . S
C2387 C2388 1.403 . S
C2388 C2387 1.403 . S
C2388 C2389 1.404 . S
C2388 C2391 1.539 . S
C2389 C2385 1.408 . S
C2389 C2388 1.404 . S
C2389 H2401 0.930 . S
C2390 C2386 1.524 . S
C2390 H2402 0.956 . S
C2390 H2403 0.961 . S
C2390 H2404 0.961 . S
C2391 C2388 1.539 . S
C2391 H2405 0.958 . S
C2391 H2406 0.961 . S
C2391 H2407 0.960 . S
H2392 C2376 0.931 . S
H2393 C2381 0.929 . S
H2394 C2382 0.960 . S
H2395 C2382 0.962 . S
H2396 C2382 0.960 . S
H2397 C2383 0.961 . S
H2398 C2383 0.961 . S
H2399 C2383 0.961 . S
H2400 C2384 0.931 . S
H2401 C2389 0.930 . S
H2402 C2390 0.956 . S
H2403 C2390 0.961 . S
H2404 C2390 0.961 . S
H2405 C2391 0.958 . S
H2406 C2391 0.961 . S
H2407 C2391 0.960 . S
C2408 C2409 1.391 . S
C2408 C2410 1.394 . S
C2408 H2424 0.931 . S
C2409 C2408 1.391 . S
C2409 C2413 1.376 . S
C2410 C2408 1.394 . S
C2410 C2411 1.369 . S
C2410 C2414 1.531 . S
C2411 C2410 1.369 . S
C2411 C2412 1.410 . S
C2411 C2419 1.503 . S
C2412 C2411 1.410 . S
C2412 C2413 1.392 . S
C2412 C2415 1.511 . S
C2413 C2409 1.376 . S
C2413 C2412 1.392 . S
C2413 H2425 0.929 . S
C2414 C2410 1.531 . S
C2414 H2426 0.960 . S
C2414 H2427 0.962 . S
C2414 H2428 0.960 . S
C2415 C2412 1.511 . S
C2415 H2429 0.961 . S
C2415 H2430 0.961 . S
C2415 H2431 0.961 . S
C2416 C2417 1.370 . S
C2416 C2418 1.363 . S
C2416 H2432 0.931 . S
C2417 C2416 1.370 . S
C2417 C2421 1.408 . S
C2418 C2416 1.363 . S
C2418 C2419 1.370 . S
C2418 C2422 1.524 . S
C2419 C2411 1.503 . S
C2419 C2418 1.370 . S
C2419 C2420 1.403 . S
C2420 C2419 1.403 . S
C2420 C2421 1.404 . S
C2420 C2423 1.539 . S
C2421 C2417 1.408 . S
C2421 C2420 1.404 . S
C2421 H2433 0.930 . S
C2422 C2418 1.524 . S
C2422 H2434 0.956 . S
C2422 H2435 0.961 . S
C2422 H2436 0.961 . S
C2423 C2420 1.539 . S
C2423 H2437 0.958 . S
C2423 H2438 0.961 . S
C2423 H2439 0.960 . S
H2424 C2408 0.931 . S
H2425 C2413 0.929 . S
H2426 C2414 0.960 . S
H2427 C2414 0.962 . S
H2428 C2414 0.960 . S
H2429 C2415 0.961 . S
H2430 C2415 0.961 . S
H2431 C2415 0.961 . S
H2432 C2416 0.931 . S
H2433 C2421 0.930 . S
H2434 C2422 0.956 . S
H2435 C2422 0.961 . S
H2436 C2422 0.961 . S
H2437 C2423 0.958 . S
H2438 C2423 0.961 . S
H2439 C2423 0.960 . S
C2440 C2441 1.391 . S
C2440 C2442 1.394 . S
C2440 H2456 0.931 . S
C2441 C2440 1.391 . S
C2441 C2445 1.376 . S
C2442 C2440 1.394 . S
C2442 C2443 1.369 . S
C2442 C2446 1.531 . S
C2443 C2442 1.369 . S
C2443 C2444 1.410 . S
C2443 C2451 1.503 . S
C2444 C2443 1.410 . S
C2444 C2445 1.392 . S
C2444 C2447 1.511 . S
C2445 C2441 1.376 . S
C2445 C2444 1.392 . S
C2445 H2457 0.929 . S
C2446 C2442 1.531 . S
C2446 H2458 0.960 . S
C2446 H2459 0.962 . S
C2446 H2460 0.960 . S
C2447 C2444 1.511 . S
C2447 H2461 0.961 . S
C2447 H2462 0.961 . S
C2447 H2463 0.961 . S
C2448 C2449 1.370 . S
C2448 C2450 1.363 . S
C2448 H2464 0.931 . S
C2449 C2448 1.370 . S
C2449 C2453 1.408 . S
C2450 C2448 1.363 . S
C2450 C2451 1.370 . S
C2450 C2454 1.524 . S
C2451 C2443 1.503 . S
C2451 C2450 1.370 . S
C2451 C2452 1.403 . S
C2452 C2451 1.403 . S
C2452 C2453 1.404 . S
C2452 C2455 1.539 . S
C2453 C2449 1.408 . S
C2453 C2452 1.404 . S
C2453 H2465 0.930 . S
C2454 C2450 1.524 . S
C2454 H2466 0.956 . S
C2454 H2467 0.961 . S
C2454 H2468 0.961 . S
C2455 C2452 1.539 . S
C2455 H2469 0.958 . S
C2455 H2470 0.961 . S
C2455 H2471 0.960 . S
H2456 C2440 0.931 . S
H2457 C2445 0.929 . S
H2458 C2446 0.960 . S
H2459 C2446 0.962 . S
H2460 C2446 0.960 . S
H2461 C2447 0.961 . S
H2462 C2447 0.961 . S
H2463 C2447 0.961 . S
H2464 C2448 0.931 . S
H2465 C2453 0.930 . S
H2466 C2454 0.956 . S
H2467 C2454 0.961 . S
H2468 C2454 0.961 . S
H2469 C2455 0.958 . S
H2470 C2455 0.961 . S
H2471 C2455 0.960 . S
C2472 C2473 1.391 . S
C2472 C2474 1.394 . S
C2472 H2488 0.931 . S
C2473 C2472 1.391 . S
C2473 C2477 1.376 . S
C2474 C2472 1.394 . S
C2474 C2475 1.369 . S
C2474 C2478 1.531 . S
C2475 C2474 1.369 . S
C2475 C2476 1.410 . S
C2475 C2483 1.503 . S
C2476 C2475 1.410 . S
C2476 C2477 1.392 . S
C2476 C2479 1.511 . S
C2477 C2473 1.376 . S
C2477 C2476 1.392 . S
C2477 H2489 0.929 . S
C2478 C2474 1.531 . S
C2478 H2490 0.960 . S
C2478 H2491 0.962 . S
C2478 H2492 0.960 . S
C2479 C2476 1.511 . S
C2479 H2493 0.961 . S
C2479 H2494 0.961 . S
C2479 H2495 0.961 . S
C2480 C2481 1.370 . S
C2480 C2482 1.363 . S
C2480 H2496 0.931 . S
C2481 C2480 1.370 . S
C2481 C2485 1.408 . S
C2482 C2480 1.363 . S
C2482 C2483 1.370 . S
C2482 C2486 1.524 . S
C2483 C2475 1.503 . S
C2483 C2482 1.370 . S
C2483 C2484 1.403 . S
C2484 C2483 1.403 . S
C2484 C2485 1.404 . S
C2484 C2487 1.539 . S
C2485 C2481 1.408 . S
C2485 C2484 1.404 . S
C2485 H2497 0.930 . S
C2486 C2482 1.524 . S
C2486 H2498 0.956 . S
C2486 H2499 0.961 . S
C2486 H2500 0.961 . S
C2487 C2484 1.539 . S
C2487 H2501 0.958 . S
C2487 H2502 0.961 . S
C2487 H2503 0.960 . S
H2488 C2472 0.931 . S
H2489 C2477 0.929 . S
H2490 C2478 0.960 . S
H2491 C2478 0.962 . S
H2492 C2478 0.960 . S
H2493 C2479 0.961 . S
H2494 C2479 0.961 . S
H2495 C2479 0.961 . S
H2496 C2480 0.931 . S
H2497 C2485 0.930 . S
H2498 C2486 0.956 . S
H2499 C2486 0.961 . S
H2500 C2486 0.961 . S
H2501 C2487 0.958 . S
H2502 C2487 0.961 . S
H2503 C2487 0.960 . S
C2504 C2505 1.391 . S
C2504 C2506 1.394 . S
C2504 H2520 0.931 . S
C2505 C2504 1.391 . S
C2505 C2509 1.376 . S
C2506 C2504 1.394 . S
C2506 C2507 1.369 . S
C2506 C2510 1.531 . S
C2507 C2506 1.369 . S
C2507 C2508 1.410 . S
C2507 C2515 1.503 . S
C2508 C2507 1.410 . S
C2508 C2509 1.392 . S
C2508 C2511 1.511 . S
C2509 C2505 1.376 . S
C2509 C2508 1.392 . S
C2509 H2521 0.929 . S
C2510 C2506 1.531 . S
C2510 H2522 0.960 . S
C2510 H2523 0.962 . S
C2510 H2524 0.960 . S
C2511 C2508 1.511 . S
C2511 H2525 0.961 . S
C2511 H2526 0.961 . S
C2511 H2527 0.961 . S
C2512 C2513 1.370 . S
C2512 C2514 1.363 . S
C2512 H2528 0.931 . S
C2513 C2512 1.370 . S
C2513 C2517 1.408 . S
C2514 C2512 1.363 . S
C2514 C2515 1.370 . S
C2514 C2518 1.524 . S
C2515 C2507 1.503 . S
C2515 C2514 1.370 . S
C2515 C2516 1.403 . S
C2516 C2515 1.403 . S
C2516 C2517 1.404 . S
C2516 C2519 1.539 . S
C2517 C2513 1.408 . S
C2517 C2516 1.404 . S
C2517 H2529 0.930 . S
C2518 C2514 1.524 . S
C2518 H2530 0.956 . S
C2518 H2531 0.961 . S
C2518 H2532 0.961 . S
C2519 C2516 1.539 . S
C2519 H2533 0.958 . S
C2519 H2534 0.961 . S
C2519 H2535 0.960 . S
H2520 C2504 0.931 . S
H2521 C2509 0.929 . S
H2522 C2510 0.960 . S
H2523 C2510 0.962 . S
H2524 C2510 0.960 . S
H2525 C2511 0.961 . S
H2526 C2511 0.961 . S
H2527 C2511 0.961 . S
H2528 C2512 0.931 . S
H2529 C2517 0.930 . S
H2530 C2518 0.956 . S
H2531 C2518 0.961 . S
H2532 C2518 0.961 . S
H2533 C2519 0.958 . S
H2534 C2519 0.961 . S
H2535 C2519 0.960 . S
C2536 C2537 1.391 . S
C2536 C2538 1.394 . S
C2536 H2552 0.931 . S
C2537 C2536 1.391 . S
C2537 C2541 1.376 . S
C2538 C2536 1.394 . S
C2538 C2539 1.369 . S
C2538 C2542 1.531 . S
C2539 C2538 1.369 . S
C2539 C2540 1.410 . S
C2539 C2547 1.503 . S
C2540 C2539 1.410 . S
C2540 C2541 1.392 . S
C2540 C2543 1.511 . S
C2541 C2537 1.376 . S
C2541 C2540 1.392 . S
C2541 H2553 0.929 . S
C2542 C2538 1.531 . S
C2542 H2554 0.960 . S
C2542 H2555 0.962 . S
C2542 H2556 0.960 . S
C2543 C2540 1.511 . S
C2543 H2557 0.961 . S
C2543 H2558 0.961 . S
C2543 H2559 0.961 . S
C2544 C2545 1.370 . S
C2544 C2546 1.363 . S
C2544 H2560 0.931 . S
C2545 C2544 1.370 . S
C2545 C2549 1.408 . S
C2546 C2544 1.363 . S
C2546 C2547 1.370 . S
C2546 C2550 1.524 . S
C2547 C2539 1.503 . S
C2547 C2546 1.370 . S
C2547 C2548 1.403 . S
C2548 C2547 1.403 . S
C2548 C2549 1.404 . S
C2548 C2551 1.539 . S
C2549 C2545 1.408 . S
C2549 C2548 1.404 . S
C2549 H2561 0.930 . S
C2550 C2546 1.524 . S
C2550 H2562 0.956 . S
C2550 H2563 0.961 . S
C2550 H2564 0.961 . S
C2551 C2548 1.539 . S
C2551 H2565 0.958 . S
C2551 H2566 0.961 . S
C2551 H2567 0.960 . S
H2552 C2536 0.931 . S
H2553 C2541 0.929 . S
H2554 C2542 0.960 . S
H2555 C2542 0.962 . S
H2556 C2542 0.960 . S
H2557 C2543 0.961 . S
H2558 C2543 0.961 . S
H2559 C2543 0.961 . S
H2560 C2544 0.931 . S
H2561 C2549 0.930 . S
H2562 C2550 0.956 . S
H2563 C2550 0.961 . S
H2564 C2550 0.961 . S
H2565 C2551 0.958 . S
H2566 C2551 0.961 . S
H2567 C2551 0.960 . S
C2568 C2569 1.391 . S
C2568 C2570 1.394 . S
C2568 H2584 0.931 . S
C2569 C2568 1.391 . S
C2569 C2573 1.376 . S
C2570 C2568 1.394 . S
C2570 C2571 1.369 . S
C2570 C2574 1.531 . S
C2571 C2570 1.369 . S
C2571 C2572 1.410 . S
C2571 C2579 1.503 . S
C2572 C2571 1.410 . S
C2572 C2573 1.392 . S
C2572 C2575 1.511 . S
C2573 C2569 1.376 . S
C2573 C2572 1.392 . S
C2573 H2585 0.929 . S
C2574 C2570 1.531 . S
C2574 H2586 0.960 . S
C2574 H2587 0.962 . S
C2574 H2588 0.960 . S
C2575 C2572 1.511 . S
C2575 H2589 0.961 . S
C2575 H2590 0.961 . S
C2575 H2591 0.961 . S
C2576 C2577 1.370 . S
C2576 C2578 1.363 . S
C2576 H2592 0.931 . S
C2577 C2576 1.370 . S
C2577 C2581 1.408 . S
C2578 C2576 1.363 . S
C2578 C2579 1.370 . S
C2578 C2582 1.524 . S
C2579 C2571 1.503 . S
C2579 C2578 1.370 . S
C2579 C2580 1.403 . S
C2580 C2579 1.403 . S
C2580 C2581 1.404 . S
C2580 C2583 1.539 . S
C2581 C2577 1.408 . S
C2581 C2580 1.404 . S
C2581 H2593 0.930 . S
C2582 C2578 1.524 . S
C2582 H2594 0.956 . S
C2582 H2595 0.961 . S
C2582 H2596 0.961 . S
C2583 C2580 1.539 . S
C2583 H2597 0.958 . S
C2583 H2598 0.961 . S
C2583 H2599 0.960 . S
H2584 C2568 0.931 . S
H2585 C2573 0.929 . S
H2586 C2574 0.960 . S
H2587 C2574 0.962 . S
H2588 C2574 0.960 . S
H2589 C2575 0.961 . S
H2590 C2575 0.961 . S
H2591 C2575 0.961 . S
H2592 C2576 0.931 . S
H2593 C2581 0.930 . S
H2594 C2582 0.956 . S
H2595 C2582 0.961 . S
H2596 C2582 0.961 . S
H2597 C2583 0.958 . S
H2598 C2583 0.961 . S
H2599 C2583 0.960 . S
C2600 C2601 1.391 . S
C2600 C2602 1.394 . S
C2600 H2616 0.931 . S
C2601 C2600 1.391 . S
C2601 C2605 1.376 . S
C2602 C2600 1.394 . S
C2602 C2603 1.369 . S
C2602 C2606 1.531 . S
C2603 C2602 1.369 . S
C2603 C2604 1.410 . S
C2603 C2611 1.503 . S
C2604 C2603 1.410 . S
C2604 C2605 1.392 . S
C2604 C2607 1.511 . S
C2605 C2601 1.376 . S
C2605 C2604 1.392 . S
C2605 H2617 0.929 . S
C2606 C2602 1.531 . S
C2606 H2618 0.960 . S
C2606 H2619 0.962 . S
C2606 H2620 0.960 . S
C2607 C2604 1.511 . S
C2607 H2621 0.961 . S
C2607 H2622 0.961 . S
C2607 H2623 0.961 . S
C2608 C2609 1.370 . S
C2608 C2610 1.363 . S
C2608 H2624 0.931 . S
C2609 C2608 1.370 . S
C2609 C2613 1.408 . S
C2610 C2608 1.363 . S
C2610 C2611 1.370 . S
C2610 C2614 1.524 . S
C2611 C2603 1.503 . S
C2611 C2610 1.370 . S
C2611 C2612 1.403 . S
C2612 C2611 1.403 . S
C2612 C2613 1.404 . S
C2612 C2615 1.539 . S
C2613 C2609 1.408 . S
C2613 C2612 1.404 . S
C2613 H2625 0.930 . S
C2614 C2610 1.524 . S
C2614 H2626 0.956 . S
C2614 H2627 0.961 . S
C2614 H2628 0.961 . S
C2615 C2612 1.539 . S
C2615 H2629 0.958 . S
C2615 H2630 0.961 . S
C2615 H2631 0.960 . S
H2616 C2600 0.931 . S
H2617 C2605 0.929 . S
H2618 C2606 0.960 . S
H2619 C2606 0.962 . S
H2620 C2606 0.960 . S
H2621 C2607 0.961 . S
H2622 C2607 0.961 . S
H2623 C2607 0.961 . S
H2624 C2608 0.931 . S
H2625 C2613 0.930 . S
H2626 C2614 0.956 . S
H2627 C2614 0.961 . S
H2628 C2614 0.961 . S
H2629 C2615 0.958 . S
H2630 C2615 0.961 . S
H2631 C2615 0.960 . S
C2632 C2633 1.391 . S
C2632 C2634 1.394 . S
C2632 H2648 0.931 . S
C2633 C2632 1.391 . S
C2633 C2637 1.376 . S
C2634 C2632 1.394 . S
C2634 C2635 1.369 . S
C2634 C2638 1.531 . S
C2635 C2634 1.369 . S
C2635 C2636 1.410 . S
C2635 C2643 1.503 . S
C2636 C2635 1.410 . S
C2636 C2637 1.392 . S
C2636 C2639 1.511 . S
C2637 C2633 1.376 . S
C2637 C2636 1.392 . S
C2637 H2649 0.929 . S
C2638 C2634 1.531 . S
C2638 H2650 0.960 . S
C2638 H2651 0.962 . S
C2638 H2652 0.960 . S
C2639 C2636 1.511 . S
C2639 H2653 0.961 . S
C2639 H2654 0.961 . S
C2639 H2655 0.961 . S
C2640 C2641 1.370 . S
C2640 C2642 1.363 . S
C2640 H2656 0.931 . S
C2641 C2640 1.370 . S
C2641 C2645 1.408 . S
C2642 C2640 1.363 . S
C2642 C2643 1.370 . S
C2642 C2646 1.524 . S
C2643 C2635 1.503 . S
C2643 C2642 1.370 . S
C2643 C2644 1.403 . S
C2644 C2643 1.403 . S
C2644 C2645 1.404 . S
C2644 C2647 1.539 . S
C2645 C2641 1.408 . S
C2645 C2644 1.404 . S
C2645 H2657 0.930 . S
C2646 C2642 1.524 . S
C2646 H2658 0.956 . S
C2646 H2659 0.961 . S
C2646 H2660 0.961 . S
C2647 C2644 1.539 . S
C2647 H2661 0.958 . S
C2647 H2662 0.961 . S
C2647 H2663 0.960 . S
H2648 C2632 0.931 . S
H2649 C2637 0.929 . S
H2650 C2638 0.960 . S
H2651 C2638 0.962 . S
H2652 C2638 0.960 . S
H2653 C2639 0.961 . S
H2654 C2639 0.961 . S
H2655 C2639 0.961 . S
H2656 C2640 0.931 . S
H2657 C2645 0.930 . S
H2658 C2646 0.956 . S
H2659 C2646 0.961 . S
H2660 C2646 0.961 . S
H2661 C2647 0.958 . S
H2662 C2647 0.961 . S
H2663 C2647 0.960 . S
C937 C439 1.550 . S
C945 C588 1.618 . S
C969 C465 1.801 . S
C977 C628 1.804 . S
C1001 C401 1.708 . S
C1009 C658 1.690 . S
C1033 C369 1.550 . S
C1041 C618 1.528 . S
C1073 C668 1.506 . S
C1065 C305 1.494 . S
C1097 C343 1.222 . S
C1105 C578 1.346 1_556 S
C1137 C607 1.662 . S
C1129 C375 1.661 . S
C1169 C647 1.769 . S
C1161 C311 1.765 . S
C1193 C337 1.576 . S
C1201 C673 1.694 . S
C1225 C433 1.469 . S
C1233 C633 1.529 . S
C1257 C471 1.477 . S
C1265 C687 1.473 . S
C1297 C593 1.402 . S
C1289 C407 1.428 . S
C1329 C708 1.627 . S
C1321 C55 1.492 . S
C1353 C81 1.807 . S
C1361 C748 1.804 . S
C1385 C17 1.722 . S
C1393 C778 1.678 . S
C1417 C561 1.555 . S
C1425 C738 1.519 . S
C1449 C497 1.497 . S
C1457 C788 1.505 . S
C1481 C535 1.317 . S
C1489 C698 1.363 . S
C1513 C567 1.661 . S
C1521 C727 1.658 . S
C1545 C503 1.773 . S
C1553 C767 1.769 . S
C1585 C793 1.686 . S
C1577 C529 1.618 . S
C1609 C49 1.466 . S
C1617 C753 1.513 . S
C1649 C807 1.473 . S
C1641 C87 1.477 . S
C1673 C23 1.420 . S
C1681 C713 1.415 . S
C1713 C828 1.625 . S
C1705 C247 1.505 . S
C1737 C273 1.800 . S
C1745 C868 1.804 . S
C1777 C898 1.691 . S
C1769 C209 1.709 . S
C1809 C858 1.520 . S
C1801 C177 1.554 . S
C1841 C908 1.512 . S
C1833 C113 1.508 . S
C1865 C151 1.281 . S
C1873 C818 1.359 . S
C1897 C183 1.671 . S
C1905 C847 1.654 . S
C1929 C119 1.772 . S
C1937 C887 1.773 . S
C1969 C913 1.694 . S
C1961 C145 1.579 . S
C1993 C241 1.416 . S
C2001 C873 1.526 . S
C2025 C279 1.453 . S
C2033 C927 1.469 . S
C2057 C215 1.420 . S
C2065 C833 1.415 . S
C2089 C509 1.315 . S
C2097 C605 1.349 . S
C2129 C645 1.786 . S
C2121 C541 1.730 . S
C2153 C573 1.544 . S
C2161 C664 1.556 . S
C2185 C221 1.832 . S
C2193 C624 1.819 . S
C2217 C253 1.431 . S
C2225 C685 1.535 . S
C2257 C584 1.340 . S
C2249 C285 1.337 . S
C2281 C125 1.349 . S
C2289 C725 1.360 . S
C2313 C157 1.685 . S
C2321 C765 1.796 . S
C2345 C189 1.553 . S
C2353 C784 1.561 . S
C2377 C413 1.840 . S
C2385 C744 1.806 . S
C2417 C805 1.528 . S
C2409 C445 1.490 . S
C2441 C477 1.335 . S
C2449 C704 1.353 . S
C2473 C317 1.360 . S
C2481 C845 1.353 . S
C2505 C349 1.735 . S
C2513 C885 1.783 . S
C2545 C904 1.554 . S
C2537 C381 1.554 . S
C2569 C29 1.840 . S
C2577 C864 1.806 . S
C2601 C61 1.460 . S
C2609 C925 1.529 . S
C2633 C93 1.309 . S
C2641 C824 1.347 . S
