# Generated by pormake.
# Topology pyr, (3,6)-cn, num edge types: 1
# Building blocks:
#     Node 0, Type 0, BuildingBlock: BETDAH_clean_linker_0, # of connection points: 3
#     Node 1, Type 0, BuildingBlock: BETDAH_clean_linker_0, # of connection points: 3
#     Node 2, Type 0, BuildingBlock: BETDAH_clean_linker_0, # of connection points: 3
#     Node 3, Type 0, BuildingBlock: BETDAH_clean_linker_0, # of connection points: 3
#     Node 4, Type 0, BuildingBlock: BETDAH_clean_linker_0, # of connection points: 3
#     Node 5, Type 0, BuildingBlock: BETDAH_clean_linker_0, # of connection points: 3
#     Node 6, Type 0, BuildingBlock: BETDAH_clean_linker_0, # of connection points: 3
#     Node 7, Type 0, BuildingBlock: BETDAH_clean_linker_0, # of connection points: 3
#     Node 8, Type 1, BuildingBlock: BETDEL_clean_sbu_0, # of connection points: 6
#     Node 9, Type 1, BuildingBlock: BETDEL_clean_sbu_0, # of connection points: 6
#     Node 10, Type 1, BuildingBlock: BETDEL_clean_sbu_0, # of connection points: 6
#     Node 11, Type 1, BuildingBlock: BETDEL_clean_sbu_0, # of connection points: 6
#     Edge 12, Type (0, 1), BuildingBlock: TEMPAE_clean_linker_10, # of connection points: 2
#     Edge 13, Type (0, 1), BuildingBlock: TEMPAE_clean_linker_10, # of connection points: 2
#     Edge 14, Type (0, 1), BuildingBlock: TEMPAE_clean_linker_10, # of connection points: 2
#     Edge 15, Type (0, 1), BuildingBlock: TEMPAE_clean_linker_10, # of connection points: 2
#     Edge 16, Type (0, 1), BuildingBlock: TEMPAE_clean_linker_10, # of connection points: 2
#     Edge 17, Type (0, 1), BuildingBlock: TEMPAE_clean_linker_10, # of connection points: 2
#     Edge 18, Type (0, 1), BuildingBlock: TEMPAE_clean_linker_10, # of connection points: 2
#     Edge 19, Type (0, 1), BuildingBlock: TEMPAE_clean_linker_10, # of connection points: 2
#     Edge 20, Type (0, 1), BuildingBlock: TEMPAE_clean_linker_10, # of connection points: 2
#     Edge 21, Type (0, 1), BuildingBlock: TEMPAE_clean_linker_10, # of connection points: 2
#     Edge 22, Type (0, 1), BuildingBlock: TEMPAE_clean_linker_10, # of connection points: 2
#     Edge 23, Type (0, 1), BuildingBlock: TEMPAE_clean_linker_10, # of connection points: 2
#     Edge 24, Type (0, 1), BuildingBlock: TEMPAE_clean_linker_10, # of connection points: 2
#     Edge 25, Type (0, 1), BuildingBlock: TEMPAE_clean_linker_10, # of connection points: 2
#     Edge 26, Type (0, 1), BuildingBlock: TEMPAE_clean_linker_10, # of connection points: 2
#     Edge 27, Type (0, 1), BuildingBlock: TEMPAE_clean_linker_10, # of connection points: 2
#     Edge 28, Type (0, 1), BuildingBlock: TEMPAE_clean_linker_10, # of connection points: 2
#     Edge 29, Type (0, 1), BuildingBlock: TEMPAE_clean_linker_10, # of connection points: 2
#     Edge 30, Type (0, 1), BuildingBlock: TEMPAE_clean_linker_10, # of connection points: 2
#     Edge 31, Type (0, 1), BuildingBlock: TEMPAE_clean_linker_10, # of connection points: 2
#     Edge 32, Type (0, 1), BuildingBlock: TEMPAE_clean_linker_10, # of connection points: 2
#     Edge 33, Type (0, 1), BuildingBlock: TEMPAE_clean_linker_10, # of connection points: 2
#     Edge 34, Type (0, 1), BuildingBlock: TEMPAE_clean_linker_10, # of connection points: 2
#     Edge 35, Type (0, 1), BuildingBlock: TEMPAE_clean_linker_10, # of connection points: 2
# Relax obj value: 0.072
# Max RMSD: 0.185
# Mean RMSD: 0.133
data_MOF--net-pyr--node1-BETDEL_clean_sbu_0--node2-BETDAH_clean_linker_0--edge1-TEMPAE_clean_linker_10
_symmetry_space_group_name_H-M    P1
_symmetry_Int_Tables_number       1
_symmetry_cell_setting            triclinic
loop_
_symmetry_equiv_pos_as_xyz
'x, y, z'
_cell_length_a     36.14941
_cell_length_b     38.549381
_cell_length_c     36.784345
_cell_angle_alpha  92.344766
_cell_angle_beta   90.228219
_cell_angle_gamma 101.68691
loop_
_atom_site_label
_atom_site_type_symbol
_atom_site_fract_x
_atom_site_fract_y
_atom_site_fract_z
_atom_type_partial_charge
H0 H 0.22261 0.14493 0.21105 0.0
H1 H 0.28067 0.24111 0.16445 0.0
H2 H 0.1866 0.24369 0.23387 0.0
C3 C 0.22574 0.17317 0.2078 0.0
C4 C 0.20124 0.19201 0.2261 0.0
C5 C 0.25447 0.19053 0.18541 0.0
C6 C 0.25808 0.22697 0.18077 0.0
C7 C 0.23287 0.24568 0.19704 0.0
C8 C 0.20453 0.22833 0.21976 0.0
N9 N 0.2381 0.28248 0.19172 0.0
C10 C 0.20838 0.29925 0.18508 0.0
H11 H 0.33721 0.81374 0.76166 0.0
H12 H 0.27601 0.89015 0.72322 0.0
H13 H 0.29129 0.80291 0.65266 0.0
C14 C 0.32109 0.82271 0.74034 0.0
C15 C 0.31566 0.80389 0.70658 0.0
C16 C 0.30731 0.85402 0.74639 0.0
C17 C 0.28638 0.86586 0.7188 0.0
C18 C 0.27989 0.84666 0.68524 0.0
C19 C 0.29504 0.81633 0.67928 0.0
N20 N 0.25992 0.85755 0.65595 0.0
C21 C 0.23681 0.88227 0.65819 0.0
H22 H 0.70514 0.35534 0.96093 0.0
H23 H 0.68582 0.44794 0.90794 0.0
H24 H 0.59471 0.35876 0.91874 0.0
C25 C 0.68644 0.36901 0.94663 0.0
C26 C 0.64844 0.35238 0.9407 0.0
C27 C 0.70027 0.40356 0.93507 0.0
C28 C 0.67589 0.42104 0.9163 0.0
C29 C 0.63783 0.4048 0.91069 0.0
C30 C 0.62424 0.37085 0.92317 0.0
N31 N 0.61181 0.42372 0.89636 0.0
C32 C 0.61292 0.43447 0.86074 0.0
H33 H 0.80244 0.73143 0.44096 0.0
H34 H 0.8743 0.7192 0.34998 0.0
H35 H 0.78408 0.63351 0.37726 0.0
C36 C 0.80997 0.71562 0.41815 0.0
C37 C 0.78967 0.68086 0.41178 0.0
C38 C 0.84071 0.72969 0.39618 0.0
C39 C 0.85083 0.70853 0.36718 0.0
C40 C 0.83006 0.67378 0.36033 0.0
C41 C 0.79996 0.66025 0.38283 0.0
N42 N 0.83789 0.65127 0.33116 0.0
C43 C 0.86598 0.65946 0.30545 0.0
H44 H 0.92135 0.85749 0.87186 0.0
H45 H 0.83245 0.82096 0.94683 0.0
H46 H 0.81966 0.89989 0.87148 0.0
C47 C 0.89416 0.85914 0.88334 0.0
C48 C 0.87243 0.88156 0.86824 0.0
C49 C 0.8799 0.83707 0.91161 0.0
C50 C 0.84391 0.83796 0.9251 0.0
C51 C 0.82252 0.86095 0.9114 0.0
C52 C 0.83672 0.88282 0.88289 0.0
N53 N 0.78592 0.85957 0.92558 0.0
C54 C 0.7681 0.8882 0.92885 0.0
H55 H 0.76852 0.16633 0.34945 0.0
H56 H 0.80031 0.24047 0.43991 0.0
H57 H 0.71148 0.25363 0.36734 0.0
C58 C 0.76437 0.18956 0.36523 0.0
C59 C 0.73706 0.20855 0.35414 0.0
C60 C 0.7871 0.20064 0.39625 0.0
C61 C 0.78313 0.23165 0.41577 0.0
C62 C 0.75598 0.25072 0.40563 0.0
C63 C 0.73275 0.23905 0.37494 0.0
N64 N 0.75318 0.28152 0.42709 0.0
C65 C 0.72251 0.29822 0.4272 0.0
H66 H 0.35228 0.75088 0.1494 0.0
H67 H 0.35683 0.68772 0.24281 0.0
H68 H 0.43695 0.78563 0.23248 0.0
C69 C 0.36579 0.74629 0.17463 0.0
C70 C 0.39659 0.77166 0.18825 0.0
C71 C 0.35105 0.716 0.19413 0.0
C72 C 0.36802 0.7109 0.22756 0.0
C73 C 0.39922 0.73614 0.24125 0.0
C74 C 0.41295 0.76634 0.22166 0.0
N75 N 0.41726 0.73303 0.27496 0.0
C76 C 0.41279 0.70295 0.29542 0.0
H77 H 0.19797 0.34899 0.65458 0.0
H78 H 0.17776 0.44383 0.70989 0.0
H79 H 0.08641 0.35481 0.69171 0.0
C80 C 0.17881 0.36322 0.66836 0.0
C81 C 0.14065 0.34675 0.67222 0.0
C82 C 0.19231 0.3985 0.681 0.0
C83 C 0.16774 0.41673 0.69981 0.0
C84 C 0.12972 0.40041 0.70418 0.0
C85 C 0.11625 0.36615 0.68951 0.0
N86 N 0.10367 0.41852 0.72125 0.0
C87 C 0.1116 0.43912 0.75324 0.0
Dy88 Dy 0.0229 0.0478 0.49673 0.0
C89 C 0.96609 0.99456 0.63432 0.0
C90 C 0.04971 0.08247 0.43587 0.0
Dy91 Dy 0.98694 0.0238 0.56914 0.0
O92 O 0.01971 0.05745 0.43672 0.0
O93 O 0.06491 0.08837 0.46808 0.0
O94 O 0.06353 0.01119 0.50179 0.0
O95 O 0.04438 0.03391 0.5489 0.0
C96 C 0.06295 0.01164 0.53707 0.0
C97 C 0.94627 0.05968 0.52909 0.0
O98 O 0.02806 0.07343 0.58579 0.0
O99 O 0.02504 0.09828 0.53015 0.0
O100 O 0.95867 0.02399 0.62338 0.0
O101 O 0.98495 0.9808 0.60951 0.0
O102 O 0.94481 0.05907 0.56427 0.0
O103 O 0.96555 0.03802 0.51718 0.0
O104 O 0.9878 0.99582 0.47721 0.0
O105 O 0.97205 0.97343 0.53418 0.0
C106 C 0.033 0.10147 0.56542 0.0
C107 C 0.97309 0.96942 0.49814 0.0
Dy108 Dy 0.54512 0.06973 0.07387 0.0
C109 C 0.44043 0.99003 0.96308 0.0
C110 C 0.58476 0.11008 0.12929 0.0
Dy111 Dy 0.48962 0.03493 0.00841 0.0
O112 O 0.55135 0.09025 0.13198 0.0
O113 O 0.59673 0.10804 0.09608 0.0
O114 O 0.5482 0.01526 0.09089 0.0
O115 O 0.49901 0.02321 0.0652 0.0
C116 C 0.51557 1.00007 0.07701 0.0
C117 C 0.52728 0.10103 0.99387 0.0
O118 O 0.44989 0.05268 0.04791 0.0
O119 O 0.49424 0.09438 0.08116 0.0
O120 O 0.43523 0.02043 0.97633 0.0
O121 O 0.47233 0.9839 0.97505 0.0
O122 O 0.50333 0.08164 0.97113 0.0
O123 O 0.52878 0.08334 0.02133 0.0
O124 O 0.58604 0.05556 0.0332 0.0
O125 O 0.54255 0.01432 0.99827 0.0
C126 C 0.45877 0.08 0.07164 0.0
C127 C 0.57779 0.02931 0.00805 0.0
Dy128 Dy 0.51158 0.50582 0.53767 0.0
C129 C 0.45213 0.6154 0.6151 0.0
C130 C 0.55309 0.4626 0.50334 0.0
Dy131 Dy 0.48859 0.56743 0.58209 0.0
O132 O 0.51645 0.45594 0.50536 0.0
O133 O 0.5669 0.49287 0.51991 0.0
O134 O 0.45132 0.47565 0.53646 0.0
O135 O 0.47165 0.5101 0.58091 0.0
C136 C 0.44259 0.49086 0.56654 0.0
C137 C 0.55789 0.58138 0.55397 0.0
O138 O 0.51372 0.54324 0.62761 0.0
O139 O 0.53999 0.50313 0.59218 0.0
O140 O 0.47725 0.62237 0.58992 0.0
O141 O 0.44699 0.58212 0.62255 0.0
O142 O 0.54949 0.59544 0.5848 0.0
O143 O 0.52857 0.56316 0.53894 0.0
O144 O 0.49086 0.53486 0.49294 0.0
O145 O 0.45428 0.56388 0.53022 0.0
C146 C 0.53516 0.51918 0.62404 0.0
C147 C 0.4643 0.55386 0.49734 0.0
Dy148 Dy 0.03626 0.52269 0.06239 0.0
C149 C 0.01016 0.65379 0.01125 0.0
C150 C 0.05891 0.46229 0.08095 0.0
Dy151 Dy 0.03079 0.59339 0.03293 0.0
O152 O 0.03237 0.47521 0.09681 0.0
O153 O 0.07269 0.48209 0.05453 0.0
O154 O 0.98919 0.52626 0.10084 0.0
O155 O 0.02683 0.57272 0.08708 0.0
C156 C 0.99701 0.56065 0.10391 0.0
C157 C 0.07024 0.55511 0.99168 0.0
O158 O 0.08192 0.61239 0.06811 0.0
O159 O 0.09292 0.55634 0.07839 0.0
O160 O 0.02552 0.63263 0.99075 0.0
O161 O 0.00624 0.64215 0.04395 0.0
O162 O 0.07909 0.5894 0.99617 0.0
O163 O 0.04 0.54337 0.00809 0.0
O164 O 0.98697 0.50429 0.02503 0.0
O165 O 0.97253 0.55993 0.0218 0.0
C166 C 0.1035 0.5914 0.08062 0.0
C167 C 0.96335 0.52493 0.01653 0.0
C168 C 0.18473 0.14904 0.27587 0.0
C169 C 0.17432 0.17437 0.25365 0.0
C170 C 0.16098 0.13353 0.30334 0.0
C171 C 0.12628 0.14423 0.30963 0.0
C172 C 0.1152 0.16937 0.28715 0.0
C173 C 0.13916 0.18386 0.25919 0.0
C174 C 0.17366 0.10644 0.3264 0.0
C175 C 0.07864 0.1818 0.29338 0.0
C176 C 0.05629 0.08445 0.36836 0.0
C177 C 0.06596 0.10006 0.40306 0.0
C178 C 0.07484 0.09915 0.33735 0.0
C179 C 0.103 0.13056 0.34125 0.0
C180 C 0.1113 0.14737 0.37612 0.0
C181 C 0.09298 0.13166 0.40666 0.0
C182 C 0.0657 0.08009 0.30076 0.0
C183 C 0.14053 0.18128 0.38138 0.0
H184 H 0.21207 0.14195 0.27262 0.0
H185 H 0.13044 0.20293 0.24193 0.0
H186 H 0.17924 0.11739 0.3547 0.0
H187 H 0.15106 0.08228 0.32743 0.0
H188 H 0.19974 0.09867 0.31593 0.0
H189 H 0.07323 0.20022 0.27247 0.0
H190 H 0.05457 0.15881 0.29326 0.0
H191 H 0.07953 0.19558 0.32055 0.0
H192 H 0.03542 0.05994 0.36562 0.0
H193 H 0.10021 0.1439 0.43351 0.0
H194 H 0.09043 0.06944 0.29119 0.0
H195 H 0.0599 0.09872 0.2803 0.0
H196 H 0.04094 0.05777 0.30182 0.0
H197 H 0.16899 0.176 0.37546 0.0
H198 H 0.14084 0.19287 0.40956 0.0
H199 H 0.13511 0.20118 0.36215 0.0
C200 C 0.31214 0.8604 0.81426 0.0
C201 C 0.31841 0.87568 0.78033 0.0
C202 C 0.32785 0.87883 0.84623 0.0
C203 C 0.35113 0.91295 0.84398 0.0
C204 C 0.35631 0.92899 0.80988 0.0
C205 C 0.33955 0.91025 0.77849 0.0
C206 C 0.32087 0.86118 0.88214 0.0
C207 C 0.38138 0.96507 0.80621 0.0
C208 C 0.38002 0.97427 0.92739 0.0
C209 C 0.41605 0.96801 0.93505 0.0
C210 C 0.35787 0.95558 0.89865 0.0
C211 C 0.37255 0.9307 0.87661 0.0
C212 C 0.40867 0.92381 0.88478 0.0
C213 C 0.42981 0.9423 0.91418 0.0
C214 C 0.31915 0.96302 0.89137 0.0
C215 C 0.4256 0.89786 0.86166 0.0
H216 H 0.29574 0.83362 0.81561 0.0
H217 H 0.34479 0.92185 0.75216 0.0
H218 H 0.3473 0.85409 0.892 0.0
H219 H 0.31243 0.87965 0.90295 0.0
H220 H 0.29855 0.83667 0.87989 0.0
H221 H 0.38069 0.97469 0.7782 0.0
H222 H 0.37268 0.98472 0.82548 0.0
H223 H 0.41096 0.96383 0.81322 0.0
H224 H 0.3693 0.99409 0.94364 0.0
H225 H 0.45775 0.93755 0.91997 0.0
H226 H 0.29781 0.93785 0.88956 0.0
H227 H 0.31886 0.97564 0.86485 0.0
H228 H 0.31057 0.9808 0.91285 0.0
H229 H 0.40654 0.87138 0.86069 0.0
H230 H 0.45372 0.89509 0.87202 0.0
H231 H 0.42873 0.90677 0.83332 0.0
C232 C 0.5733 0.42977 0.80603 0.0
C233 C 0.60712 0.44474 0.82422 0.0
C234 C 0.56477 0.44157 0.77202 0.0
C235 C 0.59083 0.46901 0.75594 0.0
C236 C 0.62572 0.48337 0.77385 0.0
C237 C 0.63341 0.47111 0.80804 0.0
C238 C 0.52724 0.4256 0.75398 0.0
C239 C 0.65428 0.51247 0.7575 0.0
C240 C 0.57339 0.48133 0.6556 0.0
C241 C 0.55236 0.50825 0.65737 0.0
C242 C 0.58737 0.46914 0.68736 0.0
C243 C 0.58011 0.48414 0.72172 0.0
C244 C 0.56003 0.5121 0.7236 0.0
C245 C 0.54647 0.52381 0.69147 0.0
C246 C 0.60882 0.4394 0.68424 0.0
C247 C 0.55165 0.52884 0.75968 0.0
H248 H 0.553 0.40944 0.8189 0.0
H249 H 0.65952 0.48266 0.82245 0.0
H250 H 0.50989 0.44617 0.7522 0.0
H251 H 0.53158 0.41598 0.7258 0.0
H252 H 0.5111 0.40317 0.76908 0.0
H253 H 0.68128 0.51859 0.77323 0.0
H254 H 0.6602 0.50487 0.72903 0.0
H255 H 0.64262 0.53694 0.75675 0.0
H256 H 0.5783 0.4692 0.62943 0.0
H257 H 0.53048 0.54474 0.69327 0.0
H258 H 0.59205 0.41535 0.69626 0.0
H259 H 0.63586 0.44667 0.69975 0.0
H260 H 0.615 0.43273 0.65553 0.0
H261 H 0.53285 0.50886 0.77571 0.0
H262 H 0.53774 0.55173 0.75637 0.0
H263 H 0.57811 0.53802 0.77574 0.0
C264 C 0.92493 0.64655 0.28118 0.0
C265 C 0.89157 0.6587 0.27565 0.0
C266 C 0.94522 0.63639 0.2515 0.0
C267 C 0.93144 0.63828 0.21565 0.0
C268 C 0.89929 0.65329 0.21007 0.0
C269 C 0.87954 0.66318 0.24031 0.0
C270 C 0.97945 0.62072 0.25867 0.0
C271 C 0.88385 0.65608 0.17236 0.0
C272 C 0.99328 0.61781 0.13726 0.0
C273 C 0.9789 0.58151 0.13041 0.0
C274 C 0.97757 0.63709 0.1643 0.0
C275 C 0.94693 0.61951 0.18491 0.0
C276 C 0.93169 0.58308 0.17726 0.0
C277 C 0.94784 0.56458 0.15008 0.0
C278 C 0.99434 0.67593 0.17143 0.0
C279 C 0.89887 0.56333 0.19842 0.0
H280 H 0.93382 0.64277 0.30869 0.0
H281 H 0.85337 0.67226 0.23626 0.0
H282 H 0.97225 0.59165 0.2528 0.0
H283 H 0.00289 0.63187 0.2405 0.0
H284 H 0.98948 0.62561 0.28736 0.0
H285 H 0.86298 0.67364 0.17228 0.0
H286 H 0.90698 0.66633 0.15348 0.0
H287 H 0.86969 0.62933 0.16166 0.0
H288 H 0.01728 0.631 0.12198 0.0
H289 H 0.93651 0.53657 0.14468 0.0
H290 H 0.00788 0.67998 0.19881 0.0
H291 H 0.97184 0.69168 0.17128 0.0
H292 H 0.01584 0.68635 0.15097 0.0
H293 H 0.90695 0.56351 0.22758 0.0
H294 H 0.88963 0.53534 0.1883 0.0
H295 H 0.87451 0.57668 0.19672 0.0
C296 C 0.29753 0.14711 0.18739 0.0
C297 C 0.28175 0.17118 0.16787 0.0
C298 C 0.32531 0.1306 0.17193 0.0
C299 C 0.33772 0.13854 0.1362 0.0
C300 C 0.3213 0.16218 0.11607 0.0
C301 C 0.29342 0.17809 0.13209 0.0
C302 C 0.34204 0.10536 0.19415 0.0
C303 C 0.33377 0.17127 0.07787 0.0
C304 C 0.43585 0.12664 0.1095 0.0
C305 C 0.42782 0.09478 0.08846 0.0
C306 C 0.40678 0.14107 0.12534 0.0
C307 C 0.36878 0.12307 0.12024 0.0
C308 C 0.36047 0.09075 0.09936 0.0
C309 C 0.39008 0.07705 0.0836 0.0
C310 C 0.4167 0.17575 0.14725 0.0
C311 C 0.3203 0.07069 0.09356 0.0
H312 H 0.28897 0.14194 0.21519 0.0
H313 H 0.2809 0.19623 0.11665 0.0
H314 H 0.33991 0.07962 0.17884 0.0
H315 H 0.37249 0.11635 0.19937 0.0
H316 H 0.32779 0.10047 0.2207 0.0
H317 H 0.31745 0.18941 0.06555 0.0
H318 H 0.36417 0.18409 0.07813 0.0
H319 H 0.33049 0.14676 0.06025 0.0
H320 H 0.46488 0.14059 0.11337 0.0
H321 H 0.38357 0.0523 0.06758 0.0
H322 H 0.40568 0.17228 0.17525 0.0
H323 H 0.40315 0.19585 0.13479 0.0
H324 H 0.44767 0.18621 0.14897 0.0
H325 H 0.30678 0.06454 0.1202 0.0
H326 H 0.31868 0.0455 0.07728 0.0
H327 H 0.30363 0.08736 0.07936 0.0
C328 C 0.17162 0.88981 0.65035 0.0
C329 C 0.21021 0.90478 0.65214 0.0
C330 C 0.14573 0.90871 0.63643 0.0
C331 C 0.15901 0.94325 0.62391 0.0
C332 C 0.19782 0.95925 0.62804 0.0
C333 C 0.22308 0.93964 0.64198 0.0
C334 C 0.10467 0.89067 0.63255 0.0
C335 C 0.21309 0.99607 0.61531 0.0
C336 C 0.10756 0.97078 0.54323 0.0
C337 C 0.08645 0.99362 0.55976 0.0
C338 C 0.13102 0.95413 0.56392 0.0
C339 C 0.13352 0.96054 0.60215 0.0
C340 C 0.11191 0.98331 0.61909 0.0
C341 C 0.08852 0.99958 0.59765 0.0
C342 C 0.15334 0.92982 0.54476 0.0
C343 C 0.1138 0.99075 0.65973 0.0
H344 H 0.16194 0.86259 0.65791 0.0
H345 H 0.25312 0.95091 0.64309 0.0
H346 H 0.08612 0.90871 0.64221 0.0
H347 H 0.09775 0.88373 0.6034 0.0
H348 H 0.09807 0.866 0.64792 0.0
H349 H 0.24262 0.00642 0.62483 0.0
H350 H 0.2125 0.99559 0.58513 0.0
H351 H 0.19519 0.01466 0.62511 0.0
H352 H 0.10588 0.96602 0.51396 0.0
H353 H 0.07213 0.01721 0.61051 0.0
H354 H 0.14621 0.90303 0.55597 0.0
H355 H 0.18402 0.94001 0.54953 0.0
H356 H 0.1478 0.92728 0.51494 0.0
H357 H 0.10633 0.96556 0.67406 0.0
H358 H 0.09451 0.00838 0.66879 0.0
H359 H 0.14309 0.00345 0.66811 0.0
C360 C 0.76324 0.44033 0.91895 0.0
C361 C 0.73937 0.42211 0.94491 0.0
C362 C 0.80028 0.45784 0.92832 0.0
C363 C 0.81346 0.45752 0.96461 0.0
C364 C 0.78925 0.43951 0.99098 0.0
C365 C 0.75262 0.42189 0.98077 0.0
C366 C 0.82541 0.4764 0.89936 0.0
C367 C 0.802 0.43893 0.03007 0.0
C368 C 0.91824 0.47308 0.98771 0.0
C369 C 0.92563 0.50844 1.00112 0.0
C370 C 0.88218 0.45658 0.97455 0.0
C371 C 0.85263 0.47572 0.97523 0.0
C372 C 0.86008 0.51163 0.98807 0.0
C373 C 0.89654 0.52762 1.00065 0.0
C374 C 0.87552 0.41839 0.96064 0.0
C375 C 0.82923 0.53283 0.98961 0.0
H376 H 0.7531 0.44041 0.89118 0.0
H377 H 0.73403 0.40832 1.00105 0.0
H378 H 0.83489 0.50489 0.90733 0.0
H379 H 0.8511 0.46492 0.89665 0.0
H380 H 0.81092 0.47417 0.87243 0.0
H381 H 0.77947 0.42428 0.04737 0.0
H382 H 0.82691 0.42628 0.03144 0.0
H383 H 0.8108 0.46643 0.04162 0.0
H384 H 0.94063 0.45815 0.98764 0.0
H385 H 0.90197 0.55492 0.01104 0.0
H386 H 0.86255 0.41565 0.93301 0.0
H387 H 0.85543 0.40163 0.97862 0.0
H388 H 0.90203 0.40801 0.95951 0.0
H389 H 0.81557 0.53219 0.96247 0.0
H390 H 0.84002 0.56093 0.99866 0.0
H391 H 0.80707 0.52081 0.00872 0.0
C392 C 0.75464 0.63233 0.44916 0.0
C393 C 0.75743 0.66599 0.43504 0.0
C394 C 0.72355 0.61731 0.47006 0.0
C395 C 0.69437 0.63626 0.47653 0.0
C396 C 0.69723 0.67041 0.4626 0.0
C397 C 0.7289 0.68498 0.44222 0.0
C398 C 0.72175 0.58107 0.48493 0.0
C399 C 0.66642 0.69122 0.46851 0.0
C400 C 0.59603 0.58538 0.49749 0.0
C401 C 0.59376 0.59299 0.53489 0.0
C402 C 0.62883 0.59893 0.47823 0.0
C403 C 0.66028 0.62005 0.49701 0.0
C404 C 0.65861 0.62665 0.53507 0.0
C405 C 0.62519 0.61324 0.55354 0.0
C406 C 0.62937 0.59156 0.43762 0.0
C407 C 0.69184 0.64848 0.55611 0.0
H408 H 0.77692 0.61778 0.44392 0.0
H409 H 0.73088 0.71087 0.43102 0.0
H410 H 0.71815 0.58225 0.51487 0.0
H411 H 0.69689 0.56217 0.47321 0.0
H412 H 0.74753 0.5705 0.47874 0.0
H413 H 0.67319 0.71759 0.45624 0.0
H414 H 0.63947 0.67612 0.45642 0.0
H415 H 0.66177 0.69518 0.49805 0.0
H416 H 0.57173 0.5697 0.48302 0.0
H417 H 0.6235 0.61893 0.58253 0.0
H418 H 0.65349 0.57896 0.43037 0.0
H419 H 0.63335 0.61688 0.42342 0.0
H420 H 0.60288 0.57398 0.42728 0.0
H421 H 0.71756 0.63758 0.5509 0.0
H422 H 0.68684 0.64922 0.58588 0.0
H423 H 0.69762 0.67605 0.54682 0.0
C424 C 0.18644 0.35517 0.1832 0.0
C425 C 0.18079 0.31897 0.17403 0.0
C426 C 0.163 0.37607 0.16854 0.0
C427 C 0.13341 0.36018 0.1441 0.0
C428 C 0.12682 0.32319 0.13593 0.0
C429 C 0.15082 0.30295 0.15098 0.0
C430 C 0.17093 0.4154 0.17798 0.0
C431 C 0.09549 0.30531 0.11016 0.0
C432 C 0.06058 0.416 0.12598 0.0
C433 C 0.07477 0.4328 0.09439 0.0
C434 C 0.07844 0.39105 0.14172 0.0
C435 C 0.1112 0.38287 0.12543 0.0
C436 C 0.12454 0.39858 0.09256 0.0
C437 C 0.10612 0.4234 0.07743 0.0
C438 C 0.06328 0.37471 0.17664 0.0
C439 C 0.1593 0.39042 0.07426 0.0
H440 H 0.20999 0.36736 0.20088 0.0
H441 H 0.14691 0.27485 0.14382 0.0
H442 H 0.17979 0.4303 0.15323 0.0
H443 H 0.14494 0.42357 0.18799 0.0
H444 H 0.19351 0.42319 0.19906 0.0
H445 H 0.09193 0.27597 0.1093 0.0
H446 H 0.06835 0.31243 0.11824 0.0
H447 H 0.10177 0.31469 0.08231 0.0
H448 H 0.03626 0.42322 0.13911 0.0
H449 H 0.11706 0.43633 0.05295 0.0
H450 H 0.08359 0.38462 0.19924 0.0
H451 H 0.06012 0.34547 0.1744 0.0
H452 H 0.03553 0.38113 0.18385 0.0
H453 H 0.18444 0.40033 0.09199 0.0
H454 H 0.16431 0.40281 0.04751 0.0
H455 H 0.15666 0.36135 0.07013 0.0
C456 C 0.65427 0.28905 0.94656 0.0
C457 C 0.63378 0.3159 0.95297 0.0
C458 C 0.63944 0.25395 0.95562 0.0
C459 C 0.60327 0.24552 0.97149 0.0
C460 C 0.58309 0.27276 0.97928 0.0
C461 C 0.59857 0.30759 0.96992 0.0
C462 C 0.66181 0.22564 0.94687 0.0
C463 C 0.54454 0.26492 0.99638 0.0
C464 C 0.54414 0.15294 0.95499 0.0
C465 C 0.54791 0.13748 0.98823 0.0
C466 C 0.5625 0.18789 0.94909 0.0
C467 C 0.58513 0.20791 0.9772 0.0
C468 C 0.58938 0.19225 0.01076 0.0
C469 C 0.57067 0.15712 0.01587 0.0
C470 C 0.55725 0.20354 0.9129 0.0
C471 C 0.61322 0.21273 0.04137 0.0
H472 H 0.68139 0.29524 0.93327 0.0
H473 H 0.58291 0.32835 0.97558 0.0
H474 H 0.66402 0.20998 0.97114 0.0
H475 H 0.64697 0.20703 0.92521 0.0
H476 H 0.69074 0.23694 0.93746 0.0
H477 H 0.53374 0.28941 0.00304 0.0
H478 H 0.52416 0.24763 0.97743 0.0
H479 H 0.5455 0.25037 0.02165 0.0
H480 H 0.52656 0.13774 0.93357 0.0
H481 H 0.57345 0.14517 0.04163 0.0
H482 H 0.5851 0.21311 0.90033 0.0
H483 H 0.54369 0.22675 0.91702 0.0
H484 H 0.53954 0.18413 0.89358 0.0
H485 H 0.6423 0.22298 0.03182 0.0
H486 H 0.61478 0.19629 0.06523 0.0
H487 H 0.60129 0.23599 0.05025 0.0
C488 C 0.90178 0.77298 0.40828 0.0
C489 C 0.86232 0.76621 0.40467 0.0
C490 C 0.92191 0.80642 0.42103 0.0
C491 C 0.90206 0.83368 0.43009 0.0
C492 C 0.86242 0.8274 0.42479 0.0
C493 C 0.84305 0.79375 0.41223 0.0
C494 C 0.96417 0.81207 0.42633 0.0
C495 C 0.84022 0.85583 0.43371 0.0
C496 C 0.94207 0.90532 0.50185 0.0
C497 C 0.95617 0.93437 0.48058 0.0
C498 C 0.92519 0.87224 0.48569 0.0
C499 C 0.92219 0.86803 0.44729 0.0
C500 C 0.93687 0.89703 0.42562 0.0
C501 C 0.95372 0.92982 0.4425 0.0
C502 C 0.90998 0.84193 0.50978 0.0
C503 C 0.93413 0.89361 0.38461 0.0
H504 H 0.91673 0.75168 0.40271 0.0
H505 H 0.81258 0.78871 0.40902 0.0
H506 H 0.97843 0.83643 0.41302 0.0
H507 H 0.97124 0.81587 0.4558 0.0
H508 H 0.97574 0.78929 0.41521 0.0
H509 H 0.80997 0.84749 0.42566 0.0
H510 H 0.84195 0.86238 0.46341 0.0
H511 H 0.85245 0.88044 0.41977 0.0
H512 H 0.94397 0.9084 0.53126 0.0
H513 H 0.96457 0.95201 0.42575 0.0
H514 H 0.92255 0.8187 0.50224 0.0
H515 H 0.87896 0.83363 0.50576 0.0
H516 H 0.91593 0.8491 0.53908 0.0
H517 H 0.94688 0.87127 0.37439 0.0
H518 H 0.94846 0.91817 0.3716 0.0
H519 H 0.904 0.88754 0.37591 0.0
C520 C 0.37008 0.77265 0.71165 0.0
C521 C 0.3335 0.77277 0.6987 0.0
C522 C 0.38863 0.74516 0.70146 0.0
C523 C 0.37055 0.71749 0.67709 0.0
C524 C 0.3332 0.71673 0.66493 0.0
C525 C 0.31499 0.74412 0.67621 0.0
C526 C 0.42823 0.74658 0.71553 0.0
C527 C 0.3131 0.68789 0.6386 0.0
C528 C 0.43367 0.67408 0.61572 0.0
C529 C 0.43163 0.64135 0.63157 0.0
C530 C 0.41376 0.69896 0.63023 0.0
C531 C 0.39184 0.69115 0.6618 0.0
C532 C 0.3901 0.65827 0.67824 0.0
C533 C 0.40977 0.63354 0.66267 0.0
C534 C 0.41584 0.73344 0.6115 0.0
C535 C 0.36763 0.64933 0.7123 0.0
H536 H 0.38495 0.79475 0.72864 0.0
H537 H 0.28644 0.74348 0.66671 0.0
H538 H 0.43079 0.72056 0.72598 0.0
H539 H 0.44854 0.75236 0.69297 0.0
H540 H 0.4365 0.7673 0.73759 0.0
H541 H 0.28332 0.68992 0.63346 0.0
H542 H 0.32813 0.68957 0.61228 0.0
H543 H 0.31338 0.66139 0.64913 0.0
H544 H 0.45043 0.68005 0.59154 0.0
H545 H 0.4083 0.60822 0.67497 0.0
H546 H 0.42765 0.75612 0.63047 0.0
H547 H 0.38705 0.73638 0.60346 0.0
H548 H 0.43364 0.73513 0.58682 0.0
H549 H 0.37769 0.66977 0.7342 0.0
H550 H 0.36985 0.62297 0.72217 0.0
H551 H 0.33742 0.64946 0.70709 0.0
C552 C 0.92349 0.92001 0.83363 0.0
C553 C 0.88605 0.90126 0.83541 0.0
C554 C 0.93755 0.93626 0.80162 0.0
C555 C 0.9137 0.93332 0.77053 0.0
C556 C 0.87572 0.91482 0.77235 0.0
C557 C 0.8623 0.89918 0.80483 0.0
C558 C 0.97802 0.95624 0.80094 0.0
C559 C 0.84949 0.91083 0.73972 0.0
C560 C 0.93736 0.99864 0.69536 0.0
C561 C 0.95401 0.97912 0.66948 0.0
C562 C 0.92474 0.98429 0.72863 0.0
C563 C 0.92846 0.9494 0.73599 0.0
C564 C 0.94555 0.92965 0.71001 0.0
C565 C 0.95835 0.94486 0.67709 0.0
C566 C 0.90714 0.00637 0.75577 0.0
C567 C 0.94975 0.89227 0.71675 0.0
H568 H 0.94185 0.92181 0.8573 0.0
H569 H 0.83351 0.88426 0.80593 0.0
H570 H 0.99395 0.9436 0.78034 0.0
H571 H 0.97907 0.98384 0.79288 0.0
H572 H 0.99249 0.95703 0.82775 0.0
H573 H 0.82066 0.89594 0.74571 0.0
H574 H 0.84732 0.93731 0.73026 0.0
H575 H 0.86109 0.8967 0.71695 0.0
H576 H 0.93413 0.02523 0.68958 0.0
H577 H 0.97121 0.92974 0.65708 0.0
H578 H 0.92231 0.0085 0.7823 0.0
H579 H 0.87737 0.9933 0.76049 0.0
H580 H 0.90764 0.03352 0.74647 0.0
H581 H 0.96622 0.89184 0.74217 0.0
H582 H 0.96406 0.88065 0.69401 0.0
H583 H 0.9215 0.87517 0.72045 0.0
C584 C 0.70353 0.22096 0.29731 0.0
C585 C 0.71337 0.1964 0.32088 0.0
C586 C 0.68212 0.20967 0.26544 0.0
C587 C 0.67088 0.17297 0.25646 0.0
C588 C 0.68062 0.14806 0.28008 0.0
C589 C 0.70124 0.16004 0.31213 0.0
C590 C 0.67161 0.23702 0.24131 0.0
C591 C 0.66945 0.10866 0.27139 0.0
C592 C 0.58823 0.1356 0.19276 0.0
C593 C 0.60665 0.12951 0.16039 0.0
C594 C 0.60871 0.15129 0.22377 0.0
C595 C 0.64863 0.16031 0.22258 0.0
C596 C 0.6673 0.15502 0.18961 0.0
C597 C 0.646 0.14001 0.15873 0.0
C598 C 0.58765 0.15723 0.25809 0.0
C599 C 0.70985 0.16372 0.1874 0.0
H600 H 0.71308 0.24909 0.3034 0.0
H601 H 0.70777 0.14073 0.33044 0.0
H602 H 0.68425 0.23499 0.21408 0.0
H603 H 0.6405 0.23197 0.23733 0.0
H604 H 0.68129 0.26448 0.2528 0.0
H605 H 0.6804 0.09281 0.29193 0.0
H606 H 0.63823 0.10043 0.27008 0.0
H607 H 0.68033 0.1022 0.24431 0.0
H608 H 0.55773 0.1277 0.19399 0.0
H609 H 0.66025 0.13517 0.13371 0.0
H610 H 0.59702 0.18492 0.26895 0.0
H611 H 0.59403 0.13953 0.27926 0.0
H612 H 0.55658 0.15193 0.25354 0.0
H613 H 0.7209 0.1916 0.19687 0.0
H614 H 0.71993 0.15979 0.15934 0.0
H615 H 0.722 0.14657 0.20564 0.0
C616 C 0.38977 0.64518 0.32369 0.0
C617 C 0.41627 0.67696 0.32172 0.0
C618 C 0.3935 0.62084 0.35039 0.0
C619 C 0.4243 0.62883 0.37547 0.0
C620 C 0.45117 0.66095 0.37305 0.0
C621 C 0.44678 0.68457 0.34616 0.0
C622 C 0.36443 0.58683 0.35203 0.0
C623 C 0.48437 0.67066 0.39917 0.0
C624 C 0.42364 0.59139 0.4693 0.0
C625 C 0.44877 0.56816 0.46496 0.0
C626 C 0.4134 0.60961 0.43979 0.0
C627 C 0.42851 0.60444 0.40499 0.0
C628 C 0.4518 0.57922 0.39991 0.0
C629 C 0.4617 0.56143 0.42994 0.0
C630 C 0.38848 0.63623 0.44646 0.0
C631 C 0.46827 0.57269 0.36322 0.0
H632 H 0.36617 0.63951 0.30461 0.0
H633 H 0.46717 0.70931 0.34444 0.0
H634 H 0.37844 0.56375 0.3502 0.0
H635 H 0.34979 0.58599 0.37853 0.0
H636 H 0.34297 0.58398 0.32983 0.0
H637 H 0.50294 0.69644 0.39328 0.0
H638 H 0.47413 0.67227 0.42747 0.0
H639 H 0.50152 0.64982 0.39782 0.0
H640 H 0.4132 0.59666 0.49612 0.0
H641 H 0.48091 0.54338 0.42615 0.0
H642 H 0.36578 0.63272 0.42546 0.0
H643 H 0.40558 0.66345 0.44451 0.0
H644 H 0.37534 0.63401 0.47373 0.0
H645 H 0.44621 0.56928 0.34159 0.0
H646 H 0.48122 0.54888 0.36255 0.0
H647 H 0.49038 0.596 0.35673 0.0
C648 C 0.0899 0.48252 0.79378 0.0
C649 C 0.1134 0.45829 0.78785 0.0
C650 C 0.08711 0.49815 0.82849 0.0
C651 C 0.10841 0.48918 0.85783 0.0
C652 C 0.13322 0.46548 0.85154 0.0
C653 C 0.13528 0.4501 0.81646 0.0
C654 C 0.06029 0.52324 0.83401 0.0
C655 C 0.15655 0.4555 0.88204 0.0
C656 C 0.11441 0.55279 0.9401 0.0
C657 C 0.08414 0.5358 0.96083 0.0
C658 C 0.1242 0.53696 0.90744 0.0
C659 C 0.10302 0.50347 0.89522 0.0
C660 C 0.07391 0.48529 0.91722 0.0
C661 C 0.06492 0.50163 0.94989 0.0
C662 C 0.15575 0.55697 0.88504 0.0
C663 C 0.05067 0.44952 0.9052 0.0
H664 H 0.07277 0.48842 0.77146 0.0
H665 H 0.15317 0.43097 0.81162 0.0
H666 H 0.03767 0.5119 0.85298 0.0
H667 H 0.07549 0.54886 0.84652 0.0
H668 H 0.04691 0.52847 0.8081 0.0
H669 H 0.1768 0.43921 0.87206 0.0
H670 H 0.17254 0.47967 0.8967 0.0
H671 H 0.13765 0.44021 0.90203 0.0
H672 H 0.12955 0.5791 0.94868 0.0
H673 H 0.04164 0.48832 0.96597 0.0
H674 H 0.14372 0.56621 0.86029 0.0
H675 H 0.17502 0.5394 0.87594 0.0
H676 H 0.17248 0.58041 0.90037 0.0
H677 H 0.03327 0.45242 0.88102 0.0
H678 H 0.03153 0.43749 0.92688 0.0
H679 H 0.06933 0.43105 0.89711 0.0
C680 C 0.72491 0.90933 0.97093 0.0
C681 C 0.74524 0.91361 0.93868 0.0
C682 C 0.70015 0.93169 0.98062 0.0
C683 C 0.6958 0.95903 0.95738 0.0
C684 C 0.71727 0.96406 0.92513 0.0
C685 C 0.74179 0.94104 0.91602 0.0
C686 C 0.67772 0.92524 0.01513 0.0
C687 C 0.71355 0.99306 0.89988 0.0
C688 C 0.60066 0.98507 0.96685 0.0
C689 C 0.60893 0.01431 0.99168 0.0
C690 C 0.62908 0.96799 0.95397 0.0
C691 C 0.66683 0.9805 0.96603 0.0
C692 C 0.67576 0.01113 0.98952 0.0
C693 C 0.64669 0.02764 0.00217 0.0
C694 C 0.61829 0.93534 0.92903 0.0
C695 C 0.71575 0.02545 0.00271 0.0
H696 H 0.72779 0.8879 0.98828 0.0
H697 H 0.75771 0.94409 0.89102 0.0
H698 H 0.68209 0.94985 0.03269 0.0
H699 H 0.64712 0.91778 0.00834 0.0
H700 H 0.68563 0.90383 0.03092 0.0
H701 H 0.73449 0.99537 0.87763 0.0
H702 H 0.68477 0.98759 0.88758 0.0
H703 H 0.71728 0.01892 0.91528 0.0
H704 H 0.57169 0.97464 0.95827 0.0
H705 H 0.6535 0.05037 0.0211 0.0
H706 H 0.62231 0.91169 0.94357 0.0
H707 H 0.63679 0.93749 0.9049 0.0
H708 H 0.58841 0.93094 0.91956 0.0
H709 H 0.72427 0.00681 0.02176 0.0
H710 H 0.71882 0.05184 0.01701 0.0
H711 H 0.73556 0.02768 0.97957 0.0
C712 C 0.85022 0.19509 0.42135 0.0
C713 C 0.81358 0.17895 0.40961 0.0
C714 C 0.87406 0.17539 0.43757 0.0
C715 C 0.86076 0.13875 0.44253 0.0
C716 C 0.82433 0.12206 0.42944 0.0
C717 C 0.80125 0.14233 0.41299 0.0
C718 C 0.9129 0.19407 0.45069 0.0
C719 C 0.80896 0.08314 0.43449 0.0
C720 C 0.92911 0.08029 0.46875 0.0
C721 C 0.9249 0.07989 0.50659 0.0
C722 C 0.90882 0.09971 0.44743 0.0
C723 C 0.8834 0.11867 0.46443 0.0
C724 C 0.87914 0.11826 0.50267 0.0
C725 C 0.90013 0.09907 0.52328 0.0
C726 C 0.91451 0.0999 0.40681 0.0
C727 C 0.85216 0.13788 0.52187 0.0
H728 H 0.86002 0.22332 0.41838 0.0
H729 H 0.77284 0.1298 0.40425 0.0
H730 H 0.91405 0.19488 0.48086 0.0
H731 H 0.93451 0.17933 0.4408 0.0
H732 H 0.92043 0.22168 0.44149 0.0
H733 H 0.78142 0.07357 0.4202 0.0
H734 H 0.82929 0.0671 0.42431 0.0
H735 H 0.80504 0.07842 0.46391 0.0
H736 H 0.94832 0.06552 0.45582 0.0
H737 H 0.89686 0.09885 0.55256 0.0
H738 H 0.92282 0.12758 0.39805 0.0
H739 H 0.8876 0.08784 0.39255 0.0
H740 H 0.93652 0.08509 0.39803 0.0
H741 H 0.86003 0.16657 0.5167 0.0
H742 H 0.85196 0.13465 0.55174 0.0
H743 H 0.82307 0.12814 0.511 0.0
C744 C 0.28536 0.68113 0.20233 0.0
C745 C 0.31663 0.69126 0.17991 0.0
C746 C 0.25068 0.66242 0.18775 0.0
C747 C 0.24736 0.6536 0.14994 0.0
C748 C 0.27943 0.66214 0.12759 0.0
C749 C 0.31365 0.68085 0.14285 0.0
C750 C 0.21715 0.65364 0.21247 0.0
C751 C 0.27719 0.65292 0.08723 0.0
C752 C 0.16344 0.5856 0.11214 0.0
C753 C 0.14011 0.60734 0.09874 0.0
C754 C 0.19818 0.60022 0.12933 0.0
C755 C 0.20993 0.6375 0.13322 0.0
C756 C 0.18642 0.6596 0.12004 0.0
C757 C 0.15183 0.64427 0.10295 0.0
C758 C 0.22247 0.5758 0.14299 0.0
C759 C 0.19798 0.6995 0.12367 0.0
H760 H 0.28746 0.68937 0.23092 0.0
H761 H 0.33793 0.68829 0.12554 0.0
H762 H 0.19584 0.66936 0.20529 0.0
H763 H 0.20347 0.62523 0.20877 0.0
H764 H 0.22516 0.65945 0.24161 0.0
H765 H 0.30529 0.65913 0.07418 0.0
H766 H 0.26498 0.62432 0.08216 0.0
H767 H 0.25822 0.668 0.07388 0.0
H768 H 0.1547 0.55702 0.10912 0.0
H769 H 0.13403 0.66132 0.09282 0.0
H770 H 0.2288 0.58152 0.17242 0.0
H771 H 0.24986 0.58046 0.12866 0.0
H772 H 0.20875 0.54738 0.13886 0.0
H773 H 0.2035 0.70808 0.15269 0.0
H774 H 0.17609 0.71294 0.11283 0.0
H775 H 0.22463 0.70853 0.10882 0.0
C776 C 0.26156 0.39976 0.67436 0.0
C777 C 0.23101 0.41685 0.67129 0.0
C778 C 0.29692 0.41427 0.65991 0.0
C779 C 0.3018 0.44658 0.6418 0.0
C780 C 0.27163 0.46488 0.6403 0.0
C781 C 0.23659 0.44982 0.65513 0.0
C782 C 0.32853 0.39416 0.66252 0.0
C783 C 0.27571 0.4994 0.62128 0.0
C784 C 0.40213 0.49331 0.62109 0.0
C785 C 0.40607 0.4811 0.58516 0.0
C786 C 0.36813 0.48287 0.63975 0.0
C787 C 0.33743 0.45963 0.622 0.0
C788 C 0.34109 0.44781 0.58544 0.0
C789 C 0.37542 0.45866 0.56748 0.0
C790 C 0.36536 0.49607 0.67865 0.0
C791 C 0.30892 0.4232 0.56548 0.0
H792 H 0.25746 0.37447 0.6872 0.0
H793 H 0.21297 0.46297 0.65235 0.0
H794 H 0.33505 0.38441 0.63496 0.0
H795 H 0.35458 0.41191 0.67349 0.0
H796 H 0.32121 0.37108 0.68013 0.0
H797 H 0.25096 0.51203 0.62562 0.0
H798 H 0.30155 0.51828 0.631 0.0
H799 H 0.27877 0.49449 0.59161 0.0
H800 H 0.42589 0.51052 0.63492 0.0
H801 H 0.37838 0.44929 0.53966 0.0
H802 H 0.36141 0.4734 0.69686 0.0
H803 H 0.34039 0.50853 0.68184 0.0
H804 H 0.39098 0.51568 0.68777 0.0
H805 H 0.30172 0.39777 0.57944 0.0
H806 H 0.31587 0.41746 0.53675 0.0
H807 H 0.28337 0.43501 0.5658 0.0
C808 C 0.93976 0.82339 0.93653 0.0
C809 C 0.90171 0.81197 0.92627 0.0
C810 C 0.96013 0.79991 0.95155 0.0
C811 C 0.94205 0.76416 0.95593 0.0
C812 C 0.90374 0.75247 0.94522 0.0
C813 C 0.88403 0.77655 0.93064 0.0
C814 C 0.00085 0.81333 0.9629 0.0
C815 C 0.8836 0.71445 0.94898 0.0
C816 C 0.9984 0.6916 0.96106 0.0
C817 C 0.99605 0.68436 0.99809 0.0
C818 C 0.98206 0.7184 0.94717 0.0
C819 C 0.96314 0.73854 0.97098 0.0
C820 C 0.96201 0.73227 0.00869 0.0
C821 C 0.9784 0.70508 0.02181 0.0
C822 C 0.98368 0.72411 0.90678 0.0
C823 C 0.94233 0.75342 0.03494 0.0
H824 H 0.95336 0.85086 0.93341 0.0
H825 H 0.85474 0.76756 0.92227 0.0
H826 H 0.00451 0.8091 0.99224 0.0
H827 H 0.01925 0.79819 0.94767 0.0
H828 H 0.01063 0.84197 0.95805 0.0
H829 H 0.85374 0.70967 0.93938 0.0
H830 H 0.89843 0.69643 0.93311 0.0
H831 H 0.88403 0.70728 0.97786 0.0
H832 H 0.0121 0.6756 0.94267 0.0
H833 H 0.97666 0.69954 0.05049 0.0
H834 H 0.99488 0.75244 0.90168 0.0
H835 H 0.95475 0.71709 0.89485 0.0
H836 H 0.00161 0.70785 0.89236 0.0
H837 H 0.95264 0.78223 0.03164 0.0
H838 H 0.94677 0.74737 0.06371 0.0
H839 H 0.91154 0.74747 0.02893 0.0
C840 C 0.41931 0.83734 0.18642 0.0
C841 C 0.41127 0.80407 0.16801 0.0
C842 C 0.43425 0.86814 0.16805 0.0
C843 C 0.44159 0.86561 0.13033 0.0
C844 C 0.43283 0.83219 0.1114 0.0
C845 C 0.41764 0.8018 0.13047 0.0
C846 C 0.44287 0.90332 0.18918 0.0
C847 C 0.44048 0.82842 0.07127 0.0
C848 C 0.45729 0.95294 0.08257 0.0
C849 C 0.49666 0.96367 0.0853 0.0
C850 C 0.43888 0.92025 0.09569 0.0
C851 C 0.46049 0.8978 0.11151 0.0
C852 C 0.50041 0.90768 0.11219 0.0
C853 C 0.51799 0.94057 0.0992 0.0
C854 C 0.39628 0.91065 0.09444 0.0
C855 C 0.52453 0.88433 0.12836 0.0
H856 H 0.41382 0.83929 0.21531 0.0
H857 H 0.41165 0.77609 0.11617 0.0
H858 H 0.47371 0.91432 0.18894 0.0
H859 H 0.42863 0.92263 0.17616 0.0
H860 H 0.4337 0.901 0.21793 0.0
H861 H 0.42977 0.801 0.06007 0.0
H862 H 0.42715 0.84692 0.05591 0.0
H863 H 0.47134 0.83556 0.06659 0.0
H864 H 0.44075 0.97076 0.07171 0.0
H865 H 0.54848 0.9487 0.10101 0.0
H866 H 0.38524 0.91168 0.12248 0.0
H867 H 0.38652 0.88317 0.08314 0.0
H868 H 0.38388 0.92896 0.07781 0.0
H869 H 0.51992 0.88319 0.15813 0.0
H870 H 0.55512 0.89422 0.12364 0.0
H871 H 0.51634 0.85685 0.11662 0.0
C872 C 0.14035 0.29724 0.62516 0.0
C873 C 0.12591 0.30984 0.6574 0.0
C874 C 0.12634 0.26275 0.61082 0.0
C875 C 0.0962 0.24067 0.62833 0.0
C876 C 0.08129 0.25313 0.66068 0.0
C877 C 0.09678 0.28723 0.67516 0.0
C878 C 0.14364 0.25005 0.57674 0.0
C879 C 0.04855 0.23064 0.6797 0.0
C880 C 0.03621 0.16657 0.57001 0.0
C881 C 0.04867 0.13683 0.58195 0.0
C882 C 0.05093 0.20048 0.58542 0.0
C883 C 0.07974 0.20476 0.61241 0.0
C884 C 0.09278 0.17476 0.62415 0.0
C885 C 0.07655 0.14099 0.6092 0.0
C886 C 0.03541 0.23164 0.57304 0.0
C887 C 0.12431 0.1784 0.65197 0.0
H888 H 0.16226 0.31445 0.61063 0.0
H889 H 0.08588 0.29614 0.7005 0.0
H890 H 0.15217 0.22447 0.58128 0.0
H891 H 0.12249 0.24531 0.55422 0.0
H892 H 0.16877 0.26945 0.56802 0.0
H893 H 0.03952 0.24465 0.70404 0.0
H894 H 0.02411 0.22294 0.66065 0.0
H895 H 0.0564 0.20583 0.68832 0.0
H896 H 0.0144 0.1632 0.54909 0.0
H897 H 0.08641 0.11793 0.61811 0.0
H898 H 0.05811 0.25107 0.56048 0.0
H899 H 0.02503 0.24542 0.59679 0.0
H900 H 0.01189 0.22355 0.55296 0.0
H901 H 0.1498 0.19669 0.64234 0.0
H902 H 0.13187 0.15255 0.6574 0.0
H903 H 0.11598 0.1901 0.67795 0.0
C904 C 0.68393 0.34007 0.40704 0.0
C905 C 0.69324 0.31816 0.43349 0.0
C906 C 0.65881 0.36281 0.41496 0.0
C907 C 0.64318 0.36366 0.45021 0.0
C908 C 0.65178 0.34054 0.47652 0.0
C909 C 0.67677 0.31804 0.46778 0.0
C910 C 0.65014 0.38684 0.38612 0.0
C911 C 0.63585 0.34062 0.51442 0.0
C912 C 0.61542 0.44748 0.48898 0.0
C913 C 0.57591 0.43838 0.487 0.0
C914 C 0.63765 0.4238 0.47606 0.0
C915 C 0.61993 0.39024 0.46062 0.0
C916 C 0.58002 0.38141 0.45743 0.0
C917 C 0.55845 0.40559 0.47078 0.0
C918 C 0.6801 0.43425 0.48007 0.0
C919 C 0.56009 0.34604 0.44092 0.0
H920 H 0.69705 0.34015 0.38057 0.0
H921 H 0.68438 0.30111 0.48821 0.0
H922 H 0.61916 0.38449 0.3832 0.0
H923 H 0.66239 0.41482 0.39437 0.0
H924 H 0.66175 0.3807 0.35923 0.0
H925 H 0.64359 0.31962 0.53097 0.0
H926 H 0.64659 0.36672 0.52856 0.0
H927 H 0.60461 0.33668 0.5131 0.0
H928 H 0.62901 0.47287 0.50143 0.0
H929 H 0.52788 0.39854 0.46911 0.0
H930 H 0.69365 0.43127 0.45344 0.0
H931 H 0.6903 0.4164 0.49893 0.0
H932 H 0.68954 0.46204 0.49075 0.0
H933 H 0.572 0.34116 0.41388 0.0
H934 H 0.5292 0.34437 0.43773 0.0
H935 H 0.56466 0.32451 0.45846 0.0
loop_
_geom_bond_atom_site_label_1
_geom_bond_atom_site_label_2
_geom_bond_distance
_geom_bond_site_symmetry_2
_ccdc_geom_bond_type
H0 C3 0.929 . S
H1 C6 0.929 . S
H2 C8 0.930 . S
C3 H0 0.929 . S
C3 C4 1.398 . S
C3 C5 1.396 . S
C4 C3 1.398 . S
C4 C8 1.407 . S
C5 C3 1.396 . S
C5 C6 1.394 . S
C6 H1 0.929 . S
C6 C5 1.394 . S
C6 C7 1.382 . S
C7 C6 1.382 . S
C7 C8 1.392 . S
C7 N9 1.420 . S
C8 H2 0.930 . S
C8 C4 1.407 . S
C8 C7 1.392 . S
N9 C7 1.420 . S
N9 C10 1.244 . S
C10 N9 1.244 . S
H11 C14 0.929 . S
H12 C17 0.929 . S
H13 C19 0.930 . S
C14 H11 0.929 . S
C14 C15 1.398 . S
C14 C16 1.396 . S
C15 C14 1.398 . S
C15 C19 1.407 . S
C16 C14 1.396 . S
C16 C17 1.394 . S
C17 H12 0.929 . S
C17 C16 1.394 . S
C17 C18 1.382 . S
C18 C17 1.382 . S
C18 C19 1.392 . S
C18 N20 1.420 . S
C19 H13 0.930 . S
C19 C15 1.407 . S
C19 C18 1.392 . S
N20 C18 1.420 . S
N20 C21 1.244 . S
C21 N20 1.244 . S
H22 C25 0.929 . S
H23 C28 0.929 . S
H24 C30 0.930 . S
C25 H22 0.929 . S
C25 C26 1.398 . S
C25 C27 1.396 . S
C26 C25 1.398 . S
C26 C30 1.407 . S
C27 C25 1.396 . S
C27 C28 1.394 . S
C28 H23 0.929 . S
C28 C27 1.394 . S
C28 C29 1.382 . S
C29 C28 1.382 . S
C29 C30 1.392 . S
C29 N31 1.420 . S
C30 H24 0.930 . S
C30 C26 1.407 . S
C30 C29 1.392 . S
N31 C29 1.420 . S
N31 C32 1.244 . S
C32 N31 1.244 . S
H33 C36 0.929 . S
H34 C39 0.929 . S
H35 C41 0.930 . S
C36 H33 0.929 . S
C36 C37 1.398 . S
C36 C38 1.396 . S
C37 C36 1.398 . S
C37 C41 1.407 . S
C38 C36 1.396 . S
C38 C39 1.394 . S
C39 H34 0.929 . S
C39 C38 1.394 . S
C39 C40 1.382 . S
C40 C39 1.382 . S
C40 C41 1.392 . S
C40 N42 1.420 . S
C41 H35 0.930 . S
C41 C37 1.407 . S
C41 C40 1.392 . S
N42 C40 1.420 . S
N42 C43 1.244 . S
C43 N42 1.244 . S
H44 C47 0.929 . S
H45 C50 0.929 . S
H46 C52 0.930 . S
C47 H44 0.929 . S
C47 C48 1.398 . S
C47 C49 1.396 . S
C48 C47 1.398 . S
C48 C52 1.407 . S
C49 C47 1.396 . S
C49 C50 1.394 . S
C50 H45 0.929 . S
C50 C49 1.394 . S
C50 C51 1.382 . S
C51 C50 1.382 . S
C51 C52 1.392 . S
C51 N53 1.420 . S
C52 H46 0.930 . S
C52 C48 1.407 . S
C52 C51 1.392 . S
N53 C51 1.420 . S
N53 C54 1.244 . S
C54 N53 1.244 . S
H55 C58 0.929 . S
H56 C61 0.929 . S
H57 C63 0.930 . S
C58 H55 0.929 . S
C58 C59 1.398 . S
C58 C60 1.396 . S
C59 C58 1.398 . S
C59 C63 1.407 . S
C60 C58 1.396 . S
C60 C61 1.394 . S
C61 H56 0.929 . S
C61 C60 1.394 . S
C61 C62 1.382 . S
C62 C61 1.382 . S
C62 C63 1.392 . S
C62 N64 1.420 . S
C63 H57 0.930 . S
C63 C59 1.407 . S
C63 C62 1.392 . S
N64 C62 1.420 . S
N64 C65 1.244 . S
C65 N64 1.244 . S
H66 C69 0.929 . S
H67 C72 0.929 . S
H68 C74 0.930 . S
C69 H66 0.929 . S
C69 C70 1.398 . S
C69 C71 1.396 . S
C70 C69 1.398 . S
C70 C74 1.407 . S
C71 C69 1.396 . S
C71 C72 1.394 . S
C72 H67 0.929 . S
C72 C71 1.394 . S
C72 C73 1.382 . S
C73 C72 1.382 . S
C73 C74 1.392 . S
C73 N75 1.420 . S
C74 H68 0.930 . S
C74 C70 1.407 . S
C74 C73 1.392 . S
N75 C73 1.420 . S
N75 C76 1.244 . S
C76 N75 1.244 . S
H77 C80 0.929 . S
H78 C83 0.929 . S
H79 C85 0.930 . S
C80 H77 0.929 . S
C80 C81 1.398 . S
C80 C82 1.396 . S
C81 C80 1.398 . S
C81 C85 1.407 . S
C82 C80 1.396 . S
C82 C83 1.394 . S
C83 H78 0.929 . S
C83 C82 1.394 . S
C83 C84 1.382 . S
C84 C83 1.382 . S
C84 C85 1.392 . S
C84 N86 1.420 . S
C85 H79 0.930 . S
C85 C81 1.407 . S
C85 C84 1.392 . S
N86 C84 1.420 . S
N86 C87 1.244 . S
C87 N86 1.244 . S
Dy88 O92 2.398 . S
Dy88 O93 2.491 . S
Dy88 O94 2.403 . S
Dy88 O95 2.664 . S
Dy88 O99 2.326 . S
Dy88 O103 2.310 1_455 S
Dy88 O104 2.363 1_545 S
C89 O100 1.185 . S
C89 O101 1.355 . S
C90 O92 1.185 . S
C90 O93 1.355 . S
Dy91 O95 2.310 1_655 S
Dy91 O98 2.351 1_655 S
Dy91 O100 2.398 1_545 S
Dy91 O101 2.491 1_545 S
Dy91 O102 2.403 . S
Dy91 O103 2.664 . S
Dy91 O105 2.326 1_545 S
O92 Dy88 2.398 . S
O92 C90 1.185 . S
O93 Dy88 2.491 . S
O93 C90 1.355 . S
O94 Dy88 2.403 . S
O94 C96 1.254 . S
O95 Dy88 2.664 . S
O95 Dy91 2.310 1_455 S
O95 C96 1.268 . S
C96 O94 1.254 . S
C96 O95 1.268 . S
C97 O102 1.254 . S
C97 O103 1.268 . S
O98 Dy91 2.351 1_455 S
O98 C106 1.249 . S
O99 Dy88 2.326 . S
O99 C106 1.267 . S
O100 C89 1.185 . S
O100 Dy91 2.398 1_565 S
O101 C89 1.355 . S
O101 Dy91 2.491 1_565 S
O102 Dy91 2.403 . S
O102 C97 1.254 . S
O103 Dy88 2.310 1_655 S
O103 Dy91 2.664 . S
O103 C97 1.268 . S
O104 Dy88 2.363 1_565 S
O104 C107 1.232 1_455 S
O105 Dy91 2.326 1_565 S
O105 C107 1.267 . S
C106 O98 1.249 . S
C106 O99 1.267 . S
C107 O104 1.232 1_655 S
C107 O105 1.267 . S
Dy108 O112 2.398 . S
Dy108 O113 2.491 . S
Dy108 O114 2.403 1_545 S
Dy108 O115 2.664 1_545 S
Dy108 O119 2.326 . S
Dy108 O123 2.310 . S
Dy108 O124 2.351 . S
C109 O120 1.185 1_565 S
C109 O121 1.355 . S
C110 O112 1.185 . S
C110 O113 1.355 . S
Dy111 O115 2.310 1_545 S
Dy111 O118 2.351 . S
Dy111 O120 2.398 1_554 S
Dy111 O121 2.491 1_544 S
Dy111 O122 2.403 1_554 S
Dy111 O123 2.664 . S
Dy111 O125 2.326 . S
O112 Dy108 2.398 . S
O112 C110 1.185 . S
O113 Dy108 2.491 . S
O113 C110 1.355 . S
O114 Dy108 2.403 1_565 S
O114 C116 1.254 . S
O115 Dy108 2.664 1_565 S
O115 Dy111 2.310 1_565 S
O115 C116 1.268 . S
C116 O114 1.254 . S
C116 O115 1.268 . S
C117 O122 1.254 1_554 S
C117 O123 1.268 . S
O118 Dy111 2.351 . S
O118 C126 1.249 . S
O119 Dy108 2.326 . S
O119 C126 1.267 . S
O120 C109 1.185 1_545 S
O120 Dy111 2.398 1_556 S
O121 C109 1.355 . S
O121 Dy111 2.491 1_566 S
O122 Dy111 2.403 1_556 S
O122 C117 1.254 1_556 S
O123 Dy108 2.310 . S
O123 Dy111 2.664 . S
O123 C117 1.268 . S
O124 Dy108 2.351 . S
O124 C127 1.251 . S
O125 Dy111 2.326 . S
O125 C127 1.279 . S
C126 O118 1.249 . S
C126 O119 1.267 . S
C127 O124 1.251 . S
C127 O125 1.279 . S
Dy128 O132 2.398 . S
Dy128 O133 2.491 . S
Dy128 O134 2.403 . S
Dy128 O135 2.664 . S
Dy128 O139 2.326 . S
Dy128 O143 2.310 . S
Dy128 O144 2.351 . S
C129 O140 1.185 . S
C129 O141 1.355 . S
C130 O132 1.185 . S
C130 O133 1.355 . S
Dy131 O135 2.310 . S
Dy131 O138 2.351 . S
Dy131 O140 2.398 . S
Dy131 O141 2.491 . S
Dy131 O142 2.403 . S
Dy131 O143 2.664 . S
Dy131 O145 2.326 . S
O132 Dy128 2.398 . S
O132 C130 1.185 . S
O133 Dy128 2.491 . S
O133 C130 1.355 . S
O134 Dy128 2.403 . S
O134 C136 1.254 . S
O135 Dy128 2.664 . S
O135 Dy131 2.310 . S
O135 C136 1.268 . S
C136 O134 1.254 . S
C136 O135 1.268 . S
C137 O142 1.254 . S
C137 O143 1.268 . S
O138 Dy131 2.351 . S
O138 C146 1.249 . S
O139 Dy128 2.326 . S
O139 C146 1.267 . S
O140 C129 1.185 . S
O140 Dy131 2.398 . S
O141 C129 1.355 . S
O141 Dy131 2.491 . S
O142 Dy131 2.403 . S
O142 C137 1.254 . S
O143 Dy128 2.310 . S
O143 Dy131 2.664 . S
O143 C137 1.268 . S
O144 Dy128 2.351 . S
O144 C147 1.249 . S
O145 Dy131 2.326 . S
O145 C147 1.267 . S
C146 O138 1.249 . S
C146 O139 1.267 . S
C147 O144 1.249 . S
C147 O145 1.267 . S
Dy148 O152 2.398 . S
Dy148 O153 2.491 . S
Dy148 O154 2.415 . S
Dy148 O155 2.664 . S
Dy148 O159 2.326 . S
Dy148 O163 2.295 1_554 S
Dy148 O164 2.351 1_455 S
C149 O160 1.185 . S
C149 O161 1.355 1_556 S
C150 O152 1.185 . S
C150 O153 1.355 . S
Dy151 O155 2.310 . S
Dy151 O158 2.351 . S
Dy151 O160 2.398 1_454 S
Dy151 O161 2.491 1_455 S
Dy151 O162 2.403 1_554 S
Dy151 O163 2.664 1_554 S
Dy151 O165 2.326 1_454 S
O152 Dy148 2.398 . S
O152 C150 1.185 . S
O153 Dy148 2.491 . S
O153 C150 1.355 . S
O154 Dy148 2.415 . S
O154 C156 1.245 1_455 S
O155 Dy148 2.664 . S
O155 Dy151 2.310 . S
O155 C156 1.268 1_455 S
C156 O154 1.245 1_655 S
C156 O155 1.268 1_655 S
C157 O162 1.254 . S
C157 O163 1.284 . S
O158 Dy151 2.351 . S
O158 C166 1.249 . S
O159 Dy148 2.326 . S
O159 C166 1.267 . S
O160 C149 1.185 . S
O160 Dy151 2.398 1_656 S
O161 C149 1.355 1_554 S
O161 Dy151 2.491 1_655 S
O162 Dy151 2.403 1_556 S
O162 C157 1.254 . S
O163 Dy148 2.295 1_556 S
O163 Dy151 2.664 1_556 S
O163 C157 1.284 . S
O164 Dy148 2.351 1_655 S
O164 C167 1.249 1_554 S
O165 Dy151 2.326 1_656 S
O165 C167 1.267 . S
C166 O158 1.249 . S
C166 O159 1.267 . S
C167 O164 1.249 1_556 S
C167 O165 1.267 . S
C168 C169 1.391 . S
C168 C170 1.394 . S
C168 H184 0.931 . S
C169 C168 1.391 . S
C169 C173 1.376 . S
C170 C168 1.394 . S
C170 C171 1.369 . S
C170 C174 1.531 . S
C171 C170 1.369 . S
C171 C172 1.410 . S
C171 C179 1.503 . S
C172 C171 1.410 . S
C172 C173 1.392 . S
C172 C175 1.511 . S
C173 C169 1.376 . S
C173 C172 1.392 . S
C173 H185 0.929 . S
C174 C170 1.531 . S
C174 H186 0.960 . S
C174 H187 0.962 . S
C174 H188 0.960 . S
C175 C172 1.511 . S
C175 H189 0.961 . S
C175 H190 0.961 . S
C175 H191 0.961 . S
C176 C177 1.370 . S
C176 C178 1.363 . S
C176 H192 0.931 . S
C177 C176 1.370 . S
C177 C181 1.408 . S
C178 C176 1.363 . S
C178 C179 1.370 . S
C178 C182 1.524 . S
C179 C171 1.503 . S
C179 C178 1.370 . S
C179 C180 1.403 . S
C180 C179 1.403 . S
C180 C181 1.404 . S
C180 C183 1.539 . S
C181 C177 1.408 . S
C181 C180 1.404 . S
C181 H193 0.930 . S
C182 C178 1.524 . S
C182 H194 0.956 . S
C182 H195 0.961 . S
C182 H196 0.961 . S
C183 C180 1.539 . S
C183 H197 0.958 . S
C183 H198 0.961 . S
C183 H199 0.960 . S
H184 C168 0.931 . S
H185 C173 0.929 . S
H186 C174 0.960 . S
H187 C174 0.962 . S
H188 C174 0.960 . S
H189 C175 0.961 . S
H190 C175 0.961 . S
H191 C175 0.961 . S
H192 C176 0.931 . S
H193 C181 0.930 . S
H194 C182 0.956 . S
H195 C182 0.961 . S
H196 C182 0.961 . S
H197 C183 0.958 . S
H198 C183 0.961 . S
H199 C183 0.960 . S
C200 C201 1.391 . S
C200 C202 1.394 . S
C200 H216 0.931 . S
C201 C200 1.391 . S
C201 C205 1.376 . S
C202 C200 1.394 . S
C202 C203 1.369 . S
C202 C206 1.531 . S
C203 C202 1.369 . S
C203 C204 1.410 . S
C203 C211 1.503 . S
C204 C203 1.410 . S
C204 C205 1.392 . S
C204 C207 1.511 . S
C205 C201 1.376 . S
C205 C204 1.392 . S
C205 H217 0.929 . S
C206 C202 1.531 . S
C206 H218 0.960 . S
C206 H219 0.962 . S
C206 H220 0.960 . S
C207 C204 1.511 . S
C207 H221 0.961 . S
C207 H222 0.961 . S
C207 H223 0.961 . S
C208 C209 1.370 . S
C208 C210 1.363 . S
C208 H224 0.931 1_565 S
C209 C208 1.370 . S
C209 C213 1.408 . S
C210 C208 1.363 . S
C210 C211 1.370 . S
C210 C214 1.524 . S
C211 C203 1.503 . S
C211 C210 1.370 . S
C211 C212 1.403 . S
C212 C211 1.403 . S
C212 C213 1.404 . S
C212 C215 1.539 . S
C213 C209 1.408 . S
C213 C212 1.404 . S
C213 H225 0.930 . S
C214 C210 1.524 . S
C214 H226 0.956 . S
C214 H227 0.961 1_565 S
C214 H228 0.961 1_565 S
C215 C212 1.539 . S
C215 H229 0.958 . S
C215 H230 0.961 . S
C215 H231 0.960 . S
H216 C200 0.931 . S
H217 C205 0.929 . S
H218 C206 0.960 . S
H219 C206 0.962 . S
H220 C206 0.960 . S
H221 C207 0.961 . S
H222 C207 0.961 . S
H223 C207 0.961 . S
H224 C208 0.931 1_545 S
H225 C213 0.930 . S
H226 C214 0.956 . S
H227 C214 0.961 1_545 S
H228 C214 0.961 1_545 S
H229 C215 0.958 . S
H230 C215 0.961 . S
H231 C215 0.960 . S
C232 C233 1.391 . S
C232 C234 1.394 . S
C232 H248 0.931 . S
C233 C232 1.391 . S
C233 C237 1.376 . S
C234 C232 1.394 . S
C234 C235 1.369 . S
C234 C238 1.531 . S
C235 C234 1.369 . S
C235 C236 1.410 . S
C235 C243 1.503 . S
C236 C235 1.410 . S
C236 C237 1.392 . S
C236 C239 1.511 . S
C237 C233 1.376 . S
C237 C236 1.392 . S
C237 H249 0.929 . S
C238 C234 1.531 . S
C238 H250 0.960 . S
C238 H251 0.962 . S
C238 H252 0.960 . S
C239 C236 1.511 . S
C239 H253 0.961 . S
C239 H254 0.961 . S
C239 H255 0.961 . S
C240 C241 1.370 . S
C240 C242 1.363 . S
C240 H256 0.931 . S
C241 C240 1.370 . S
C241 C245 1.408 . S
C242 C240 1.363 . S
C242 C243 1.370 . S
C242 C246 1.524 . S
C243 C235 1.503 . S
C243 C242 1.370 . S
C243 C244 1.403 . S
C244 C243 1.403 . S
C244 C245 1.404 . S
C244 C247 1.539 . S
C245 C241 1.408 . S
C245 C244 1.404 . S
C245 H257 0.930 . S
C246 C242 1.524 . S
C246 H258 0.956 . S
C246 H259 0.961 . S
C246 H260 0.961 . S
C247 C244 1.539 . S
C247 H261 0.958 . S
C247 H262 0.961 . S
C247 H263 0.960 . S
H248 C232 0.931 . S
H249 C237 0.929 . S
H250 C238 0.960 . S
H251 C238 0.962 . S
H252 C238 0.960 . S
H253 C239 0.961 . S
H254 C239 0.961 . S
H255 C239 0.961 . S
H256 C240 0.931 . S
H257 C245 0.930 . S
H258 C246 0.956 . S
H259 C246 0.961 . S
H260 C246 0.961 . S
H261 C247 0.958 . S
H262 C247 0.961 . S
H263 C247 0.960 . S
C264 C265 1.391 . S
C264 C266 1.394 . S
C264 H280 0.931 . S
C265 C264 1.391 . S
C265 C269 1.376 . S
C266 C264 1.394 . S
C266 C267 1.369 . S
C266 C270 1.531 . S
C267 C266 1.369 . S
C267 C268 1.410 . S
C267 C275 1.503 . S
C268 C267 1.410 . S
C268 C269 1.392 . S
C268 C271 1.511 . S
C269 C265 1.376 . S
C269 C268 1.392 . S
C269 H281 0.929 . S
C270 C266 1.531 . S
C270 H282 0.960 . S
C270 H283 0.962 . S
C270 H284 0.960 . S
C271 C268 1.511 . S
C271 H285 0.961 . S
C271 H286 0.961 . S
C271 H287 0.961 . S
C272 C273 1.370 . S
C272 C274 1.363 . S
C272 H288 0.931 1_655 S
C273 C272 1.370 . S
C273 C277 1.408 . S
C274 C272 1.363 . S
C274 C275 1.370 . S
C274 C278 1.524 . S
C275 C267 1.503 . S
C275 C274 1.370 . S
C275 C276 1.403 . S
C276 C275 1.403 . S
C276 C277 1.404 . S
C276 C279 1.539 . S
C277 C273 1.408 . S
C277 C276 1.404 . S
C277 H289 0.930 . S
C278 C274 1.524 . S
C278 H290 0.945 1_655 S
C278 H291 0.961 . S
C278 H292 0.961 1_655 S
C279 C276 1.539 . S
C279 H293 0.958 . S
C279 H294 0.961 . S
C279 H295 0.960 . S
H280 C264 0.931 . S
H281 C269 0.929 . S
H282 C270 0.960 . S
H283 C270 0.962 . S
H284 C270 0.960 . S
H285 C271 0.961 . S
H286 C271 0.961 . S
H287 C271 0.961 . S
H288 C272 0.931 1_455 S
H289 C277 0.930 . S
H290 C278 0.945 1_455 S
H291 C278 0.961 . S
H292 C278 0.961 1_455 S
H293 C279 0.958 . S
H294 C279 0.961 . S
H295 C279 0.960 . S
C296 C297 1.391 . S
C296 C298 1.394 . S
C296 H312 0.931 . S
C297 C296 1.391 . S
C297 C301 1.376 . S
C298 C296 1.394 . S
C298 C299 1.369 . S
C298 C302 1.531 . S
C299 C298 1.369 . S
C299 C300 1.410 . S
C299 C307 1.503 . S
C300 C299 1.410 . S
C300 C301 1.392 . S
C300 C303 1.511 . S
C301 C297 1.376 . S
C301 C300 1.392 . S
C301 H313 0.929 . S
C302 C298 1.531 . S
C302 H314 0.960 . S
C302 H315 0.962 . S
C302 H316 0.960 . S
C303 C300 1.511 . S
C303 H317 0.961 . S
C303 H318 0.961 . S
C303 H319 0.961 . S
C304 C305 1.370 . S
C304 C306 1.363 . S
C304 H320 0.931 . S
C305 C304 1.370 . S
C305 C309 1.408 . S
C306 C304 1.363 . S
C306 C307 1.370 . S
C306 C310 1.524 . S
C307 C299 1.503 . S
C307 C306 1.370 . S
C307 C308 1.403 . S
C308 C307 1.403 . S
C308 C309 1.404 . S
C308 C311 1.539 . S
C309 C305 1.408 . S
C309 C308 1.404 . S
C309 H321 0.930 . S
C310 C306 1.524 . S
C310 H322 0.956 . S
C310 H323 0.961 . S
C310 H324 0.961 . S
C311 C308 1.539 . S
C311 H325 0.958 . S
C311 H326 0.961 . S
C311 H327 0.960 . S
H312 C296 0.931 . S
H313 C301 0.929 . S
H314 C302 0.960 . S
H315 C302 0.962 . S
H316 C302 0.960 . S
H317 C303 0.961 . S
H318 C303 0.961 . S
H319 C303 0.961 . S
H320 C304 0.931 . S
H321 C309 0.930 . S
H322 C310 0.956 . S
H323 C310 0.961 . S
H324 C310 0.961 . S
H325 C311 0.958 . S
H326 C311 0.961 . S
H327 C311 0.960 . S
C328 C329 1.391 . S
C328 C330 1.394 . S
C328 H344 0.931 . S
C329 C328 1.391 . S
C329 C333 1.376 . S
C330 C328 1.394 . S
C330 C331 1.369 . S
C330 C334 1.531 . S
C331 C330 1.369 . S
C331 C332 1.410 . S
C331 C339 1.503 . S
C332 C331 1.410 . S
C332 C333 1.392 . S
C332 C335 1.511 1_565 S
C333 C329 1.376 . S
C333 C332 1.392 . S
C333 H345 0.929 . S
C334 C330 1.531 . S
C334 H346 0.960 . S
C334 H347 0.962 . S
C334 H348 0.960 . S
C335 C332 1.511 1_545 S
C335 H349 0.961 . S
C335 H350 0.961 . S
C335 H351 0.961 . S
C336 C337 1.370 . S
C336 C338 1.363 . S
C336 H352 0.931 . S
C337 C336 1.370 . S
C337 C341 1.408 . S
C338 C336 1.363 . S
C338 C339 1.370 . S
C338 C342 1.524 . S
C339 C331 1.503 . S
C339 C338 1.370 . S
C339 C340 1.403 . S
C340 C339 1.403 . S
C340 C341 1.404 . S
C340 C343 1.539 . S
C341 C337 1.408 . S
C341 C340 1.404 . S
C341 H353 0.930 1_565 S
C342 C338 1.524 . S
C342 H354 0.956 . S
C342 H355 0.961 . S
C342 H356 0.961 . S
C343 C340 1.539 . S
C343 H357 0.958 . S
C343 H358 0.961 1_565 S
C343 H359 0.960 . S
H344 C328 0.931 . S
H345 C333 0.929 . S
H346 C334 0.960 . S
H347 C334 0.962 . S
H348 C334 0.960 . S
H349 C335 0.961 . S
H350 C335 0.961 . S
H351 C335 0.961 . S
H352 C336 0.931 . S
H353 C341 0.930 1_545 S
H354 C342 0.956 . S
H355 C342 0.961 . S
H356 C342 0.961 . S
H357 C343 0.958 . S
H358 C343 0.961 1_545 S
H359 C343 0.960 . S
C360 C361 1.391 . S
C360 C362 1.394 . S
C360 H376 0.931 . S
C361 C360 1.391 . S
C361 C365 1.376 . S
C362 C360 1.394 . S
C362 C363 1.369 . S
C362 C366 1.531 . S
C363 C362 1.369 . S
C363 C364 1.410 . S
C363 C371 1.503 . S
C364 C363 1.410 . S
C364 C365 1.392 . S
C364 C367 1.511 . S
C365 C361 1.376 . S
C365 C364 1.392 . S
C365 H377 0.929 . S
C366 C362 1.531 . S
C366 H378 0.960 . S
C366 H379 0.962 . S
C366 H380 0.960 . S
C367 C364 1.511 . S
C367 H381 0.961 . S
C367 H382 0.961 . S
C367 H383 0.961 . S
C368 C369 1.369 1_554 S
C368 C370 1.362 1_554 S
C368 H384 0.934 . S
C369 C368 1.369 1_556 S
C369 C373 1.408 . S
C370 C368 1.362 1_556 S
C370 C371 1.370 . S
C370 C374 1.524 1_556 S
C371 C363 1.503 . S
C371 C370 1.370 . S
C371 C372 1.403 . S
C372 C371 1.403 . S
C372 C373 1.404 . S
C372 C375 1.539 . S
C373 C369 1.408 . S
C373 C372 1.404 . S
C373 H385 0.930 . S
C374 C370 1.524 1_554 S
C374 H386 0.956 1_554 S
C374 H387 0.961 . S
C374 H388 0.961 . S
C375 C372 1.539 . S
C375 H389 0.958 . S
C375 H390 0.961 . S
C375 H391 0.960 . S
H376 C360 0.931 . S
H377 C365 0.929 . S
H378 C366 0.960 . S
H379 C366 0.962 . S
H380 C366 0.960 . S
H381 C367 0.961 . S
H382 C367 0.961 . S
H383 C367 0.961 . S
H384 C368 0.934 . S
H385 C373 0.930 . S
H386 C374 0.956 1_556 S
H387 C374 0.961 . S
H388 C374 0.961 . S
H389 C375 0.958 . S
H390 C375 0.961 . S
H391 C375 0.960 . S
C392 C393 1.391 . S
C392 C394 1.394 . S
C392 H408 0.931 . S
C393 C392 1.391 . S
C393 C397 1.376 . S
C394 C392 1.394 . S
C394 C395 1.369 . S
C394 C398 1.531 . S
C395 C394 1.369 . S
C395 C396 1.410 . S
C395 C403 1.503 . S
C396 C395 1.410 . S
C396 C397 1.392 . S
C396 C399 1.511 . S
C397 C393 1.376 . S
C397 C396 1.392 . S
C397 H409 0.929 . S
C398 C394 1.531 . S
C398 H410 0.960 . S
C398 H411 0.962 . S
C398 H412 0.960 . S
C399 C396 1.511 . S
C399 H413 0.961 . S
C399 H414 0.961 . S
C399 H415 0.961 . S
C400 C401 1.370 . S
C400 C402 1.363 . S
C400 H416 0.931 . S
C401 C400 1.370 . S
C401 C405 1.408 . S
C402 C400 1.363 . S
C402 C403 1.370 . S
C402 C406 1.524 . S
C403 C395 1.503 . S
C403 C402 1.370 . S
C403 C404 1.403 . S
C404 C403 1.403 . S
C404 C405 1.404 . S
C404 C407 1.539 . S
C405 C401 1.408 . S
C405 C404 1.404 . S
C405 H417 0.930 . S
C406 C402 1.524 . S
C406 H418 0.956 . S
C406 H419 0.961 . S
C406 H420 0.961 . S
C407 C404 1.539 . S
C407 H421 0.958 . S
C407 H422 0.961 . S
C407 H423 0.960 . S
H408 C392 0.931 . S
H409 C397 0.929 . S
H410 C398 0.960 . S
H411 C398 0.962 . S
H412 C398 0.960 . S
H413 C399 0.961 . S
H414 C399 0.961 . S
H415 C399 0.961 . S
H416 C400 0.931 . S
H417 C405 0.930 . S
H418 C406 0.956 . S
H419 C406 0.961 . S
H420 C406 0.961 . S
H421 C407 0.958 . S
H422 C407 0.961 . S
H423 C407 0.960 . S
C424 C425 1.391 . S
C424 C426 1.394 . S
C424 H440 0.931 . S
C425 C424 1.391 . S
C425 C429 1.376 . S
C426 C424 1.394 . S
C426 C427 1.369 . S
C426 C430 1.531 . S
C427 C426 1.369 . S
C427 C428 1.410 . S
C427 C435 1.503 . S
C428 C427 1.410 . S
C428 C429 1.392 . S
C428 C431 1.511 . S
C429 C425 1.376 . S
C429 C428 1.392 . S
C429 H441 0.929 . S
C430 C426 1.531 . S
C430 H442 0.960 . S
C430 H443 0.962 . S
C430 H444 0.960 . S
C431 C428 1.511 . S
C431 H445 0.961 . S
C431 H446 0.961 . S
C431 H447 0.961 . S
C432 C433 1.370 . S
C432 C434 1.363 . S
C432 H448 0.931 . S
C433 C432 1.370 . S
C433 C437 1.408 . S
C434 C432 1.363 . S
C434 C435 1.370 . S
C434 C438 1.524 . S
C435 C427 1.503 . S
C435 C434 1.370 . S
C435 C436 1.403 . S
C436 C435 1.403 . S
C436 C437 1.404 . S
C436 C439 1.539 . S
C437 C433 1.408 . S
C437 C436 1.404 . S
C437 H449 0.930 . S
C438 C434 1.524 . S
C438 H450 0.956 . S
C438 H451 0.961 . S
C438 H452 0.961 . S
C439 C436 1.539 . S
C439 H453 0.958 . S
C439 H454 0.961 . S
C439 H455 0.960 . S
H440 C424 0.931 . S
H441 C429 0.929 . S
H442 C430 0.960 . S
H443 C430 0.962 . S
H444 C430 0.960 . S
H445 C431 0.961 . S
H446 C431 0.961 . S
H447 C431 0.961 . S
H448 C432 0.931 . S
H449 C437 0.930 . S
H450 C438 0.956 . S
H451 C438 0.961 . S
H452 C438 0.961 . S
H453 C439 0.958 . S
H454 C439 0.961 . S
H455 C439 0.960 . S
C456 C457 1.391 . S
C456 C458 1.394 . S
C456 H472 0.931 . S
C457 C456 1.391 . S
C457 C461 1.376 . S
C458 C456 1.394 . S
C458 C459 1.369 . S
C458 C462 1.531 1_556 S
C459 C458 1.369 . S
C459 C460 1.410 . S
C459 C467 1.503 . S
C460 C459 1.410 . S
C460 C461 1.392 . S
C460 C463 1.511 . S
C461 C457 1.376 . S
C461 C460 1.392 . S
C461 H473 0.929 . S
C462 C458 1.531 1_554 S
C462 H474 0.960 . S
C462 H475 0.962 1_554 S
C462 H476 0.960 . S
C463 C460 1.511 . S
C463 H477 0.961 . S
C463 H478 0.961 . S
C463 H479 0.961 . S
C464 C465 1.370 1_556 S
C464 C466 1.363 . S
C464 H480 0.931 . S
C465 C464 1.370 1_554 S
C465 C469 1.408 . S
C466 C464 1.363 . S
C466 C467 1.370 . S
C466 C470 1.524 . S
C467 C459 1.503 . S
C467 C466 1.370 . S
C467 C468 1.403 1_556 S
C468 C467 1.403 1_554 S
C468 C469 1.404 . S
C468 C471 1.539 . S
C469 C465 1.408 . S
C469 C468 1.404 . S
C469 H481 0.930 . S
C470 C466 1.524 . S
C470 H482 0.956 . S
C470 H483 0.961 . S
C470 H484 0.961 . S
C471 C468 1.539 . S
C471 H485 0.958 . S
C471 H486 0.961 . S
C471 H487 0.960 . S
H472 C456 0.931 . S
H473 C461 0.929 . S
H474 C462 0.960 . S
H475 C462 0.962 1_556 S
H476 C462 0.960 . S
H477 C463 0.961 . S
H478 C463 0.961 . S
H479 C463 0.961 . S
H480 C464 0.931 . S
H481 C469 0.930 . S
H482 C470 0.956 . S
H483 C470 0.961 . S
H484 C470 0.961 . S
H485 C471 0.958 . S
H486 C471 0.961 . S
H487 C471 0.960 . S
C488 C489 1.391 . S
C488 C490 1.394 . S
C488 H504 0.931 . S
C489 C488 1.391 . S
C489 C493 1.376 . S
C490 C488 1.394 . S
C490 C491 1.369 . S
C490 C494 1.531 . S
C491 C490 1.369 . S
C491 C492 1.410 . S
C491 C499 1.503 . S
C492 C491 1.410 . S
C492 C493 1.392 . S
C492 C495 1.511 . S
C493 C489 1.376 . S
C493 C492 1.392 . S
C493 H505 0.929 . S
C494 C490 1.531 . S
C494 H506 0.960 . S
C494 H507 0.962 . S
C494 H508 0.960 . S
C495 C492 1.511 . S
C495 H509 0.961 . S
C495 H510 0.961 . S
C495 H511 0.961 . S
C496 C497 1.370 . S
C496 C498 1.363 . S
C496 H512 0.931 . S
C497 C496 1.370 . S
C497 C501 1.408 . S
C498 C496 1.363 . S
C498 C499 1.370 . S
C498 C502 1.524 . S
C499 C491 1.503 . S
C499 C498 1.370 . S
C499 C500 1.403 . S
C500 C499 1.403 . S
C500 C501 1.404 . S
C500 C503 1.539 1_655 S
C501 C497 1.408 . S
C501 C500 1.404 . S
C501 H513 0.930 1_655 S
C502 C498 1.524 . S
C502 H514 0.956 . S
C502 H515 0.961 . S
C502 H516 0.961 . S
C503 C500 1.539 1_455 S
C503 H517 0.958 . S
C503 H518 0.961 . S
C503 H519 0.960 1_455 S
H504 C488 0.931 . S
H505 C493 0.929 . S
H506 C494 0.960 . S
H507 C494 0.962 . S
H508 C494 0.960 . S
H509 C495 0.961 . S
H510 C495 0.961 . S
H511 C495 0.961 . S
H512 C496 0.931 . S
H513 C501 0.930 1_455 S
H514 C502 0.956 . S
H515 C502 0.961 . S
H516 C502 0.961 . S
H517 C503 0.958 . S
H518 C503 0.961 . S
H519 C503 0.960 1_655 S
C520 C521 1.391 . S
C520 C522 1.394 . S
C520 H536 0.931 . S
C521 C520 1.391 . S
C521 C525 1.376 . S
C522 C520 1.394 . S
C522 C523 1.369 . S
C522 C526 1.531 . S
C523 C522 1.369 . S
C523 C524 1.410 . S
C523 C531 1.503 . S
C524 C523 1.410 . S
C524 C525 1.392 . S
C524 C527 1.511 . S
C525 C521 1.376 . S
C525 C524 1.392 . S
C525 H537 0.929 . S
C526 C522 1.531 . S
C526 H538 0.960 . S
C526 H539 0.962 . S
C526 H540 0.960 . S
C527 C524 1.511 . S
C527 H541 0.961 . S
C527 H542 0.961 . S
C527 H543 0.961 . S
C528 C529 1.370 . S
C528 C530 1.363 . S
C528 H544 0.931 . S
C529 C528 1.370 . S
C529 C533 1.408 . S
C530 C528 1.363 . S
C530 C531 1.370 . S
C530 C534 1.524 . S
C531 C523 1.503 . S
C531 C530 1.370 . S
C531 C532 1.403 . S
C532 C531 1.403 . S
C532 C533 1.404 . S
C532 C535 1.539 . S
C533 C529 1.408 . S
C533 C532 1.404 . S
C533 H545 0.930 . S
C534 C530 1.524 . S
C534 H546 0.956 . S
C534 H547 0.961 . S
C534 H548 0.961 . S
C535 C532 1.539 . S
C535 H549 0.958 . S
C535 H550 0.961 . S
C535 H551 0.960 . S
H536 C520 0.931 . S
H537 C525 0.929 . S
H538 C526 0.960 . S
H539 C526 0.962 . S
H540 C526 0.960 . S
H541 C527 0.961 . S
H542 C527 0.961 . S
H543 C527 0.961 . S
H544 C528 0.931 . S
H545 C533 0.930 . S
H546 C534 0.956 . S
H547 C534 0.961 . S
H548 C534 0.961 . S
H549 C535 0.958 . S
H550 C535 0.961 . S
H551 C535 0.960 . S
C552 C553 1.391 . S
C552 C554 1.394 . S
C552 H568 0.931 . S
C553 C552 1.391 . S
C553 C557 1.376 . S
C554 C552 1.394 . S
C554 C555 1.369 . S
C554 C558 1.531 . S
C555 C554 1.369 . S
C555 C556 1.410 . S
C555 C563 1.503 . S
C556 C555 1.410 . S
C556 C557 1.392 . S
C556 C559 1.511 . S
C557 C553 1.376 . S
C557 C556 1.392 . S
C557 H569 0.929 . S
C558 C554 1.531 . S
C558 H570 0.960 . S
C558 H571 0.962 . S
C558 H572 0.960 . S
C559 C556 1.511 . S
C559 H573 0.961 . S
C559 H574 0.961 . S
C559 H575 0.961 . S
C560 C561 1.370 . S
C560 C562 1.363 . S
C560 H576 0.931 . S
C561 C560 1.370 . S
C561 C565 1.408 . S
C562 C560 1.363 . S
C562 C563 1.370 . S
C562 C566 1.524 . S
C563 C555 1.503 . S
C563 C562 1.370 . S
C563 C564 1.403 . S
C564 C563 1.403 . S
C564 C565 1.404 . S
C564 C567 1.539 . S
C565 C561 1.408 . S
C565 C564 1.404 . S
C565 H577 0.930 . S
C566 C562 1.524 . S
C566 H578 0.956 . S
C566 H579 0.961 . S
C566 H580 0.961 . S
C567 C564 1.539 . S
C567 H581 0.958 . S
C567 H582 0.961 . S
C567 H583 0.960 . S
H568 C552 0.931 . S
H569 C557 0.929 . S
H570 C558 0.960 . S
H571 C558 0.962 . S
H572 C558 0.960 . S
H573 C559 0.961 . S
H574 C559 0.961 . S
H575 C559 0.961 . S
H576 C560 0.931 . S
H577 C565 0.930 . S
H578 C566 0.956 . S
H579 C566 0.961 . S
H580 C566 0.961 . S
H581 C567 0.958 . S
H582 C567 0.961 . S
H583 C567 0.960 . S
C584 C585 1.391 . S
C584 C586 1.394 . S
C584 H600 0.931 . S
C585 C584 1.391 . S
C585 C589 1.376 . S
C586 C584 1.394 . S
C586 C587 1.369 . S
C586 C590 1.531 . S
C587 C586 1.369 . S
C587 C588 1.410 . S
C587 C595 1.503 . S
C588 C587 1.410 . S
C588 C589 1.392 . S
C588 C591 1.511 . S
C589 C585 1.376 . S
C589 C588 1.392 . S
C589 H601 0.929 . S
C590 C586 1.531 . S
C590 H602 0.960 . S
C590 H603 0.962 . S
C590 H604 0.960 . S
C591 C588 1.511 . S
C591 H605 0.961 . S
C591 H606 0.961 . S
C591 H607 0.961 . S
C592 C593 1.370 . S
C592 C594 1.363 . S
C592 H608 0.931 . S
C593 C592 1.370 . S
C593 C597 1.408 . S
C594 C592 1.363 . S
C594 C595 1.370 . S
C594 C598 1.524 . S
C595 C587 1.503 . S
C595 C594 1.370 . S
C595 C596 1.403 . S
C596 C595 1.403 . S
C596 C597 1.404 . S
C596 C599 1.539 . S
C597 C593 1.408 . S
C597 C596 1.404 . S
C597 H609 0.930 . S
C598 C594 1.524 . S
C598 H610 0.956 . S
C598 H611 0.961 . S
C598 H612 0.961 . S
C599 C596 1.539 . S
C599 H613 0.958 . S
C599 H614 0.961 . S
C599 H615 0.960 . S
H600 C584 0.931 . S
H601 C589 0.929 . S
H602 C590 0.960 . S
H603 C590 0.962 . S
H604 C590 0.960 . S
H605 C591 0.961 . S
H606 C591 0.961 . S
H607 C591 0.961 . S
H608 C592 0.931 . S
H609 C597 0.930 . S
H610 C598 0.956 . S
H611 C598 0.961 . S
H612 C598 0.961 . S
H613 C599 0.958 . S
H614 C599 0.961 . S
H615 C599 0.960 . S
C616 C617 1.391 . S
C616 C618 1.394 . S
C616 H632 0.931 . S
C617 C616 1.391 . S
C617 C621 1.376 . S
C618 C616 1.394 . S
C618 C619 1.369 . S
C618 C622 1.531 . S
C619 C618 1.369 . S
C619 C620 1.410 . S
C619 C627 1.503 . S
C620 C619 1.410 . S
C620 C621 1.392 . S
C620 C623 1.511 . S
C621 C617 1.376 . S
C621 C620 1.392 . S
C621 H633 0.929 . S
C622 C618 1.531 . S
C622 H634 0.960 . S
C622 H635 0.962 . S
C622 H636 0.960 . S
C623 C620 1.511 . S
C623 H637 0.961 . S
C623 H638 0.961 . S
C623 H639 0.961 . S
C624 C625 1.370 . S
C624 C626 1.363 . S
C624 H640 0.931 . S
C625 C624 1.370 . S
C625 C629 1.408 . S
C626 C624 1.363 . S
C626 C627 1.370 . S
C626 C630 1.524 . S
C627 C619 1.503 . S
C627 C626 1.370 . S
C627 C628 1.403 . S
C628 C627 1.403 . S
C628 C629 1.404 . S
C628 C631 1.539 . S
C629 C625 1.408 . S
C629 C628 1.404 . S
C629 H641 0.930 . S
C630 C626 1.524 . S
C630 H642 0.956 . S
C630 H643 0.961 . S
C630 H644 0.961 . S
C631 C628 1.539 . S
C631 H645 0.958 . S
C631 H646 0.961 . S
C631 H647 0.960 . S
H632 C616 0.931 . S
H633 C621 0.929 . S
H634 C622 0.960 . S
H635 C622 0.962 . S
H636 C622 0.960 . S
H637 C623 0.961 . S
H638 C623 0.961 . S
H639 C623 0.961 . S
H640 C624 0.931 . S
H641 C629 0.930 . S
H642 C630 0.956 . S
H643 C630 0.961 . S
H644 C630 0.961 . S
H645 C631 0.958 . S
H646 C631 0.961 . S
H647 C631 0.960 . S
C648 C649 1.391 . S
C648 C650 1.394 . S
C648 H664 0.931 . S
C649 C648 1.391 . S
C649 C653 1.376 . S
C650 C648 1.394 . S
C650 C651 1.369 . S
C650 C654 1.531 . S
C651 C650 1.369 . S
C651 C652 1.410 . S
C651 C659 1.503 . S
C652 C651 1.410 . S
C652 C653 1.392 . S
C652 C655 1.511 . S
C653 C649 1.376 . S
C653 C652 1.392 . S
C653 H665 0.929 . S
C654 C650 1.531 . S
C654 H666 0.960 . S
C654 H667 0.962 . S
C654 H668 0.960 . S
C655 C652 1.511 . S
C655 H669 0.961 . S
C655 H670 0.961 . S
C655 H671 0.961 . S
C656 C657 1.370 . S
C656 C658 1.363 . S
C656 H672 0.931 . S
C657 C656 1.370 . S
C657 C661 1.408 . S
C658 C656 1.363 . S
C658 C659 1.370 . S
C658 C662 1.524 . S
C659 C651 1.503 . S
C659 C658 1.370 . S
C659 C660 1.403 . S
C660 C659 1.403 . S
C660 C661 1.404 . S
C660 C663 1.539 . S
C661 C657 1.408 . S
C661 C660 1.404 . S
C661 H673 0.930 . S
C662 C658 1.524 . S
C662 H674 0.956 . S
C662 H675 0.961 . S
C662 H676 0.961 . S
C663 C660 1.539 . S
C663 H677 0.958 . S
C663 H678 0.961 . S
C663 H679 0.960 . S
H664 C648 0.931 . S
H665 C653 0.929 . S
H666 C654 0.960 . S
H667 C654 0.962 . S
H668 C654 0.960 . S
H669 C655 0.961 . S
H670 C655 0.961 . S
H671 C655 0.961 . S
H672 C656 0.931 . S
H673 C661 0.930 . S
H674 C662 0.956 . S
H675 C662 0.961 . S
H676 C662 0.961 . S
H677 C663 0.958 . S
H678 C663 0.961 . S
H679 C663 0.960 . S
C680 C681 1.391 . S
C680 C682 1.394 . S
C680 H696 0.931 . S
C681 C680 1.391 . S
C681 C685 1.376 . S
C682 C680 1.394 . S
C682 C683 1.369 . S
C682 C686 1.531 . S
C683 C682 1.369 . S
C683 C684 1.410 . S
C683 C691 1.503 . S
C684 C683 1.410 . S
C684 C685 1.392 . S
C684 C687 1.511 . S
C685 C681 1.376 . S
C685 C684 1.392 . S
C685 H697 0.929 . S
C686 C682 1.531 . S
C686 H698 0.960 1_556 S
C686 H699 0.962 . S
C686 H700 0.969 . S
C687 C684 1.511 . S
C687 H701 0.961 . S
C687 H702 0.961 . S
C687 H703 0.961 . S
C688 C689 1.370 . S
C688 C690 1.363 . S
C688 H704 0.931 . S
C689 C688 1.370 . S
C689 C693 1.408 1_556 S
C690 C688 1.363 . S
C690 C691 1.370 . S
C690 C694 1.524 . S
C691 C683 1.503 . S
C691 C690 1.370 . S
C691 C692 1.403 . S
C692 C691 1.403 . S
C692 C693 1.404 1_556 S
C692 C695 1.539 . S
C693 C689 1.408 1_554 S
C693 C692 1.404 1_554 S
C693 H705 0.930 . S
C694 C690 1.524 . S
C694 H706 0.956 . S
C694 H707 0.961 . S
C694 H708 0.961 . S
C695 C692 1.539 . S
C695 H709 0.958 1_556 S
C695 H710 0.961 . S
C695 H711 0.960 . S
H696 C680 0.931 . S
H697 C685 0.929 . S
H698 C686 0.960 1_554 S
H699 C686 0.962 . S
H700 C686 0.969 . S
H701 C687 0.961 . S
H702 C687 0.961 . S
H703 C687 0.961 . S
H704 C688 0.931 . S
H705 C693 0.930 . S
H706 C694 0.956 . S
H707 C694 0.961 . S
H708 C694 0.961 . S
H709 C695 0.958 1_554 S
H710 C695 0.961 . S
H711 C695 0.960 . S
C712 C713 1.391 . S
C712 C714 1.394 . S
C712 H728 0.931 . S
C713 C712 1.391 . S
C713 C717 1.376 . S
C714 C712 1.394 . S
C714 C715 1.369 . S
C714 C718 1.531 . S
C715 C714 1.369 . S
C715 C716 1.410 . S
C715 C723 1.503 . S
C716 C715 1.410 . S
C716 C717 1.392 . S
C716 C719 1.511 . S
C717 C713 1.376 . S
C717 C716 1.392 . S
C717 H729 0.929 . S
C718 C714 1.531 . S
C718 H730 0.960 . S
C718 H731 0.962 . S
C718 H732 0.960 . S
C719 C716 1.511 . S
C719 H733 0.961 . S
C719 H734 0.961 . S
C719 H735 0.961 . S
C720 C721 1.370 . S
C720 C722 1.363 . S
C720 H736 0.931 . S
C721 C720 1.370 . S
C721 C725 1.408 . S
C722 C720 1.363 . S
C722 C723 1.370 . S
C722 C726 1.524 . S
C723 C715 1.503 . S
C723 C722 1.370 . S
C723 C724 1.403 . S
C724 C723 1.403 . S
C724 C725 1.404 . S
C724 C727 1.539 . S
C725 C721 1.408 . S
C725 C724 1.404 . S
C725 H737 0.930 . S
C726 C722 1.524 . S
C726 H738 0.956 . S
C726 H739 0.961 . S
C726 H740 0.961 . S
C727 C724 1.539 . S
C727 H741 0.958 . S
C727 H742 0.961 . S
C727 H743 0.960 . S
H728 C712 0.931 . S
H729 C717 0.929 . S
H730 C718 0.960 . S
H731 C718 0.962 . S
H732 C718 0.960 . S
H733 C719 0.961 . S
H734 C719 0.961 . S
H735 C719 0.961 . S
H736 C720 0.931 . S
H737 C725 0.930 . S
H738 C726 0.956 . S
H739 C726 0.961 . S
H740 C726 0.961 . S
H741 C727 0.958 . S
H742 C727 0.961 . S
H743 C727 0.960 . S
C744 C745 1.391 . S
C744 C746 1.394 . S
C744 H760 0.931 . S
C745 C744 1.391 . S
C745 C749 1.376 . S
C746 C744 1.394 . S
C746 C747 1.369 . S
C746 C750 1.531 . S
C747 C746 1.369 . S
C747 C748 1.410 . S
C747 C755 1.503 . S
C748 C747 1.410 . S
C748 C749 1.392 . S
C748 C751 1.511 . S
C749 C745 1.376 . S
C749 C748 1.392 . S
C749 H761 0.929 . S
C750 C746 1.531 . S
C750 H762 0.960 . S
C750 H763 0.962 . S
C750 H764 0.960 . S
C751 C748 1.511 . S
C751 H765 0.961 . S
C751 H766 0.961 . S
C751 H767 0.961 . S
C752 C753 1.370 . S
C752 C754 1.363 . S
C752 H768 0.931 . S
C753 C752 1.370 . S
C753 C757 1.408 . S
C754 C752 1.363 . S
C754 C755 1.370 . S
C754 C758 1.524 . S
C755 C747 1.503 . S
C755 C754 1.370 . S
C755 C756 1.403 . S
C756 C755 1.403 . S
C756 C757 1.404 . S
C756 C759 1.539 . S
C757 C753 1.408 . S
C757 C756 1.404 . S
C757 H769 0.930 . S
C758 C754 1.524 . S
C758 H770 0.956 . S
C758 H771 0.961 . S
C758 H772 0.961 . S
C759 C756 1.539 . S
C759 H773 0.958 . S
C759 H774 0.961 . S
C759 H775 0.960 . S
H760 C744 0.931 . S
H761 C749 0.929 . S
H762 C750 0.960 . S
H763 C750 0.962 . S
H764 C750 0.960 . S
H765 C751 0.961 . S
H766 C751 0.961 . S
H767 C751 0.961 . S
H768 C752 0.931 . S
H769 C757 0.930 . S
H770 C758 0.956 . S
H771 C758 0.961 . S
H772 C758 0.961 . S
H773 C759 0.958 . S
H774 C759 0.961 . S
H775 C759 0.960 . S
C776 C777 1.391 . S
C776 C778 1.394 . S
C776 H792 0.931 . S
C777 C776 1.391 . S
C777 C781 1.376 . S
C778 C776 1.394 . S
C778 C779 1.369 . S
C778 C782 1.531 . S
C779 C778 1.369 . S
C779 C780 1.410 . S
C779 C787 1.503 . S
C780 C779 1.410 . S
C780 C781 1.392 . S
C780 C783 1.511 . S
C781 C777 1.376 . S
C781 C780 1.392 . S
C781 H793 0.929 . S
C782 C778 1.531 . S
C782 H794 0.960 . S
C782 H795 0.962 . S
C782 H796 0.960 . S
C783 C780 1.511 . S
C783 H797 0.961 . S
C783 H798 0.961 . S
C783 H799 0.961 . S
C784 C785 1.370 . S
C784 C786 1.363 . S
C784 H800 0.931 . S
C785 C784 1.370 . S
C785 C789 1.408 . S
C786 C784 1.363 . S
C786 C787 1.370 . S
C786 C790 1.524 . S
C787 C779 1.503 . S
C787 C786 1.370 . S
C787 C788 1.403 . S
C788 C787 1.403 . S
C788 C789 1.404 . S
C788 C791 1.539 . S
C789 C785 1.408 . S
C789 C788 1.404 . S
C789 H801 0.930 . S
C790 C786 1.524 . S
C790 H802 0.956 . S
C790 H803 0.961 . S
C790 H804 0.961 . S
C791 C788 1.539 . S
C791 H805 0.958 . S
C791 H806 0.961 . S
C791 H807 0.960 . S
H792 C776 0.931 . S
H793 C781 0.929 . S
H794 C782 0.960 . S
H795 C782 0.962 . S
H796 C782 0.960 . S
H797 C783 0.961 . S
H798 C783 0.961 . S
H799 C783 0.961 . S
H800 C784 0.931 . S
H801 C789 0.930 . S
H802 C790 0.956 . S
H803 C790 0.961 . S
H804 C790 0.961 . S
H805 C791 0.958 . S
H806 C791 0.961 . S
H807 C791 0.960 . S
C808 C809 1.391 . S
C808 C810 1.394 . S
C808 H824 0.931 . S
C809 C808 1.391 . S
C809 C813 1.376 . S
C810 C808 1.394 . S
C810 C811 1.369 . S
C810 C814 1.531 . S
C811 C810 1.369 . S
C811 C812 1.410 . S
C811 C819 1.503 . S
C812 C811 1.410 . S
C812 C813 1.392 . S
C812 C815 1.511 . S
C813 C809 1.376 . S
C813 C812 1.392 . S
C813 H825 0.929 . S
C814 C810 1.531 . S
C814 H826 0.960 . S
C814 H827 0.962 . S
C814 H828 0.960 . S
C815 C812 1.511 . S
C815 H829 0.961 . S
C815 H830 0.961 . S
C815 H831 0.961 . S
C816 C817 1.370 . S
C816 C818 1.363 . S
C816 H832 0.931 . S
C817 C816 1.370 . S
C817 C821 1.408 . S
C818 C816 1.363 . S
C818 C819 1.370 . S
C818 C822 1.524 . S
C819 C811 1.503 . S
C819 C818 1.370 . S
C819 C820 1.403 . S
C820 C819 1.403 . S
C820 C821 1.404 . S
C820 C823 1.539 . S
C821 C817 1.408 . S
C821 C820 1.404 . S
C821 H833 0.930 . S
C822 C818 1.524 . S
C822 H834 0.956 . S
C822 H835 0.961 . S
C822 H836 0.961 . S
C823 C820 1.539 . S
C823 H837 0.958 . S
C823 H838 0.961 . S
C823 H839 0.960 . S
H824 C808 0.931 . S
H825 C813 0.929 . S
H826 C814 0.960 . S
H827 C814 0.962 . S
H828 C814 0.960 . S
H829 C815 0.961 . S
H830 C815 0.961 . S
H831 C815 0.961 . S
H832 C816 0.931 . S
H833 C821 0.930 . S
H834 C822 0.956 . S
H835 C822 0.961 . S
H836 C822 0.961 . S
H837 C823 0.958 . S
H838 C823 0.961 . S
H839 C823 0.960 . S
C840 C841 1.391 . S
C840 C842 1.394 . S
C840 H856 0.931 . S
C841 C840 1.391 . S
C841 C845 1.376 . S
C842 C840 1.394 . S
C842 C843 1.369 . S
C842 C846 1.531 . S
C843 C842 1.369 . S
C843 C844 1.410 . S
C843 C851 1.503 . S
C844 C843 1.410 . S
C844 C845 1.392 . S
C844 C847 1.511 . S
C845 C841 1.376 . S
C845 C844 1.392 . S
C845 H857 0.929 . S
C846 C842 1.531 . S
C846 H858 0.960 . S
C846 H859 0.962 . S
C846 H860 0.960 . S
C847 C844 1.511 . S
C847 H861 0.961 . S
C847 H862 0.961 . S
C847 H863 0.961 . S
C848 C849 1.370 . S
C848 C850 1.363 . S
C848 H864 0.931 . S
C849 C848 1.370 . S
C849 C853 1.408 . S
C850 C848 1.363 . S
C850 C851 1.370 . S
C850 C854 1.524 . S
C851 C843 1.503 . S
C851 C850 1.370 . S
C851 C852 1.403 . S
C852 C851 1.403 . S
C852 C853 1.404 . S
C852 C855 1.539 . S
C853 C849 1.408 . S
C853 C852 1.404 . S
C853 H865 0.930 . S
C854 C850 1.524 . S
C854 H866 0.956 . S
C854 H867 0.961 . S
C854 H868 0.961 . S
C855 C852 1.539 . S
C855 H869 0.958 . S
C855 H870 0.961 . S
C855 H871 0.960 . S
H856 C840 0.931 . S
H857 C845 0.929 . S
H858 C846 0.960 . S
H859 C846 0.962 . S
H860 C846 0.960 . S
H861 C847 0.961 . S
H862 C847 0.961 . S
H863 C847 0.961 . S
H864 C848 0.931 . S
H865 C853 0.930 . S
H866 C854 0.956 . S
H867 C854 0.961 . S
H868 C854 0.961 . S
H869 C855 0.958 . S
H870 C855 0.961 . S
H871 C855 0.960 . S
C872 C873 1.391 . S
C872 C874 1.394 . S
C872 H888 0.931 . S
C873 C872 1.391 . S
C873 C877 1.376 . S
C874 C872 1.394 . S
C874 C875 1.369 . S
C874 C878 1.531 . S
C875 C874 1.369 . S
C875 C876 1.410 . S
C875 C883 1.503 . S
C876 C875 1.410 . S
C876 C877 1.392 . S
C876 C879 1.511 . S
C877 C873 1.376 . S
C877 C876 1.392 . S
C877 H889 0.929 . S
C878 C874 1.531 . S
C878 H890 0.960 . S
C878 H891 0.962 . S
C878 H892 0.960 . S
C879 C876 1.511 . S
C879 H893 0.961 . S
C879 H894 0.961 . S
C879 H895 0.961 . S
C880 C881 1.370 . S
C880 C882 1.363 . S
C880 H896 0.931 . S
C881 C880 1.370 . S
C881 C885 1.408 . S
C882 C880 1.363 . S
C882 C883 1.370 . S
C882 C886 1.524 . S
C883 C875 1.503 . S
C883 C882 1.370 . S
C883 C884 1.403 . S
C884 C883 1.403 . S
C884 C885 1.404 . S
C884 C887 1.539 . S
C885 C881 1.408 . S
C885 C884 1.404 . S
C885 H897 0.930 . S
C886 C882 1.524 . S
C886 H898 0.956 . S
C886 H899 0.961 . S
C886 H900 0.961 . S
C887 C884 1.539 . S
C887 H901 0.958 . S
C887 H902 0.961 . S
C887 H903 0.960 . S
H888 C872 0.931 . S
H889 C877 0.929 . S
H890 C878 0.960 . S
H891 C878 0.962 . S
H892 C878 0.960 . S
H893 C879 0.961 . S
H894 C879 0.961 . S
H895 C879 0.961 . S
H896 C880 0.931 . S
H897 C885 0.930 . S
H898 C886 0.956 . S
H899 C886 0.961 . S
H900 C886 0.961 . S
H901 C887 0.958 . S
H902 C887 0.961 . S
H903 C887 0.960 . S
C904 C905 1.391 . S
C904 C906 1.394 . S
C904 H920 0.931 . S
C905 C904 1.391 . S
C905 C909 1.376 . S
C906 C904 1.394 . S
C906 C907 1.369 . S
C906 C910 1.531 . S
C907 C906 1.369 . S
C907 C908 1.410 . S
C907 C915 1.503 . S
C908 C907 1.410 . S
C908 C909 1.392 . S
C908 C911 1.511 . S
C909 C905 1.376 . S
C909 C908 1.392 . S
C909 H921 0.929 . S
C910 C906 1.531 . S
C910 H922 0.960 . S
C910 H923 0.962 . S
C910 H924 0.960 . S
C911 C908 1.511 . S
C911 H925 0.961 . S
C911 H926 0.961 . S
C911 H927 0.961 . S
C912 C913 1.370 . S
C912 C914 1.363 . S
C912 H928 0.931 . S
C913 C912 1.370 . S
C913 C917 1.408 . S
C914 C912 1.363 . S
C914 C915 1.370 . S
C914 C918 1.524 . S
C915 C907 1.503 . S
C915 C914 1.370 . S
C915 C916 1.403 . S
C916 C915 1.403 . S
C916 C917 1.404 . S
C916 C919 1.539 . S
C917 C913 1.408 . S
C917 C916 1.404 . S
C917 H929 0.930 . S
C918 C914 1.524 . S
C918 H930 0.956 . S
C918 H931 0.961 . S
C918 H932 0.961 . S
C919 C916 1.539 . S
C919 H933 0.958 . S
C919 H934 0.961 . S
C919 H935 0.960 . S
H920 C904 0.931 . S
H921 C909 0.929 . S
H922 C910 0.960 . S
H923 C910 0.962 . S
H924 C910 0.960 . S
H925 C911 0.961 . S
H926 C911 0.961 . S
H927 C911 0.961 . S
H928 C912 0.931 . S
H929 C917 0.930 . S
H930 C918 0.956 . S
H931 C918 0.961 . S
H932 C918 0.961 . S
H933 C919 0.958 . S
H934 C919 0.961 . S
H935 C919 0.960 . S
C169 C4 1.519 . S
C177 C90 1.512 . S
C201 C16 1.578 . S
C209 C109 1.578 . S
C241 C146 1.389 . S
C233 C32 1.375 . S
C265 C43 1.575 . S
C273 C156 1.519 . S
C305 C126 2.269 . S
C297 C5 2.204 . S
C337 C96 1.212 1_565 S
C329 C21 1.200 . S
C369 C167 1.453 . S
C361 C27 1.471 . S
C401 C137 1.322 . S
C393 C37 1.329 . S
C425 C10 1.601 . S
C433 C150 1.611 . S
C465 C117 1.824 . S
C457 C26 1.884 . S
C489 C38 1.562 . S
C497 C107 1.557 . S
C521 C15 1.342 . S
C529 C129 1.327 . S
C561 C89 1.629 . S
C553 C48 1.644 . S
C585 C59 1.416 . S
C593 C110 1.402 . S
C617 C76 1.687 . S
C625 C147 1.654 . S
C649 C87 1.429 . S
C657 C157 1.428 . S
C681 C54 1.650 . S
C689 C127 1.678 1_566 S
C721 C97 1.850 . S
C713 C60 1.893 . S
C753 C166 1.375 . S
C745 C71 1.364 . S
C785 C136 1.255 . S
C777 C82 1.298 . S
C809 C49 1.837 . S
C817 C149 1.867 . S
C849 C116 1.419 . S
C841 C70 1.469 . S
C881 C106 1.872 . S
C873 C81 1.877 . S
C905 C65 1.277 . S
C913 C130 1.269 . S
