# Generated by pormake.
# Topology pyr, (3,6)-cn, num edge types: 1
# Building blocks:
#     Node 0, Type 0, BuildingBlock: MIDCAF_clean_linker_0, # of connection points: 3
#     Node 1, Type 0, BuildingBlock: MIDCAF_clean_linker_0, # of connection points: 3
#     Node 2, Type 0, BuildingBlock: MIDCAF_clean_linker_0, # of connection points: 3
#     Node 3, Type 0, BuildingBlock: MIDCAF_clean_linker_0, # of connection points: 3
#     Node 4, Type 0, BuildingBlock: MIDCAF_clean_linker_0, # of connection points: 3
#     Node 5, Type 0, BuildingBlock: MIDCAF_clean_linker_0, # of connection points: 3
#     Node 6, Type 0, BuildingBlock: MIDCAF_clean_linker_0, # of connection points: 3
#     Node 7, Type 0, BuildingBlock: MIDCAF_clean_linker_0, # of connection points: 3
#     Node 8, Type 1, BuildingBlock: JUFBIX_clean_sbu_0, # of connection points: 6
#     Node 9, Type 1, BuildingBlock: JUFBIX_clean_sbu_0, # of connection points: 6
#     Node 10, Type 1, BuildingBlock: JUFBIX_clean_sbu_0, # of connection points: 6
#     Node 11, Type 1, BuildingBlock: JUFBIX_clean_sbu_0, # of connection points: 6
#     Edge 12, Type (0, 1), BuildingBlock: TEMPAE_clean_linker_10, # of connection points: 2
#     Edge 13, Type (0, 1), BuildingBlock: TEMPAE_clean_linker_10, # of connection points: 2
#     Edge 14, Type (0, 1), BuildingBlock: TEMPAE_clean_linker_10, # of connection points: 2
#     Edge 15, Type (0, 1), BuildingBlock: TEMPAE_clean_linker_10, # of connection points: 2
#     Edge 16, Type (0, 1), BuildingBlock: TEMPAE_clean_linker_10, # of connection points: 2
#     Edge 17, Type (0, 1), BuildingBlock: TEMPAE_clean_linker_10, # of connection points: 2
#     Edge 18, Type (0, 1), BuildingBlock: TEMPAE_clean_linker_10, # of connection points: 2
#     Edge 19, Type (0, 1), BuildingBlock: TEMPAE_clean_linker_10, # of connection points: 2
#     Edge 20, Type (0, 1), BuildingBlock: TEMPAE_clean_linker_10, # of connection points: 2
#     Edge 21, Type (0, 1), BuildingBlock: TEMPAE_clean_linker_10, # of connection points: 2
#     Edge 22, Type (0, 1), BuildingBlock: TEMPAE_clean_linker_10, # of connection points: 2
#     Edge 23, Type (0, 1), BuildingBlock: TEMPAE_clean_linker_10, # of connection points: 2
#     Edge 24, Type (0, 1), BuildingBlock: TEMPAE_clean_linker_10, # of connection points: 2
#     Edge 25, Type (0, 1), BuildingBlock: TEMPAE_clean_linker_10, # of connection points: 2
#     Edge 26, Type (0, 1), BuildingBlock: TEMPAE_clean_linker_10, # of connection points: 2
#     Edge 27, Type (0, 1), BuildingBlock: TEMPAE_clean_linker_10, # of connection points: 2
#     Edge 28, Type (0, 1), BuildingBlock: TEMPAE_clean_linker_10, # of connection points: 2
#     Edge 29, Type (0, 1), BuildingBlock: TEMPAE_clean_linker_10, # of connection points: 2
#     Edge 30, Type (0, 1), BuildingBlock: TEMPAE_clean_linker_10, # of connection points: 2
#     Edge 31, Type (0, 1), BuildingBlock: TEMPAE_clean_linker_10, # of connection points: 2
#     Edge 32, Type (0, 1), BuildingBlock: TEMPAE_clean_linker_10, # of connection points: 2
#     Edge 33, Type (0, 1), BuildingBlock: TEMPAE_clean_linker_10, # of connection points: 2
#     Edge 34, Type (0, 1), BuildingBlock: TEMPAE_clean_linker_10, # of connection points: 2
#     Edge 35, Type (0, 1), BuildingBlock: TEMPAE_clean_linker_10, # of connection points: 2
# Relax obj value: 0.046
# Max RMSD: 0.092
# Mean RMSD: 0.031
data_MOF--net-pry--node1-JUFBIX_clean_sbu_0--node2-MIDCAF_clean_linker_0--edge1-TEMPAE_clean_linker_10
_symmetry_space_group_name_H-M    P1
_symmetry_Int_Tables_number       1
_symmetry_cell_setting            triclinic
loop_
_symmetry_equiv_pos_as_xyz
'x, y, z'
_cell_length_a     46.155876
_cell_length_b     44.042741
_cell_length_c     46.211741
_cell_angle_alpha  85.345474
_cell_angle_beta   89.710892
_cell_angle_gamma 91.597576
loop_
_atom_site_label
_atom_site_type_symbol
_atom_site_fract_x
_atom_site_fract_y
_atom_site_fract_z
_atom_type_partial_charge
C0 C 0.11926 0.11975 0.25201 0.0
C1 C 0.13645 0.10775 0.2749 0.0
C2 C 0.1667 0.108 0.2712 0.0
C3 C 0.17953 0.12001 0.24497 0.0
H4 H 0.24747 0.10524 0.18322 0.0
H5 H 0.2914 0.08575 0.16288 0.0
H6 H 0.28484 0.1506 0.0881 0.0
H7 H 0.24138 0.1706 0.10868 0.0
H8 H 0.19663 0.22724 0.11363 0.0
H9 H 0.17277 0.27158 0.09023 0.0
H10 H 0.09499 0.24732 0.14001 0.0
H11 H 0.11863 0.20313 0.16339 0.0
H12 H 0.11823 0.14195 0.20905 0.0
H13 H 0.0959 0.11985 0.25441 0.0
H14 H 0.18036 0.09883 0.28859 0.0
H15 H 0.2029 0.12007 0.24274 0.0
N16 N 0.20128 0.13762 0.18476 0.0
N17 N 0.19973 0.17502 0.14551 0.0
N18 N 0.16241 0.17091 0.18034 0.0
C19 C 0.21332 0.15116 0.15976 0.0
C20 C 0.17428 0.18508 0.1557 0.0
C21 C 0.17575 0.14735 0.1951 0.0
C22 C 0.24066 0.13959 0.1477 0.0
C23 C 0.25539 0.11548 0.16248 0.0
C24 C 0.28058 0.10412 0.15069 0.0
C25 C 0.2918 0.11647 0.12373 0.0
C26 C 0.27719 0.14072 0.10907 0.0
C27 C 0.25205 0.15213 0.12087 0.0
C28 C 0.15964 0.21153 0.14049 0.0
C29 C 0.1744 0.23124 0.1195 0.0
C30 C 0.16079 0.25678 0.1062 0.0
C31 C 0.13198 0.263 0.11326 0.0
C32 C 0.1171 0.24305 0.13388 0.0
C33 C 0.13078 0.21776 0.14741 0.0
C34 C 0.16236 0.13275 0.22227 0.0
C35 C 0.13208 0.13244 0.22613 0.0
C36 C 0.3266 0.92261 0.61359 0.0
C37 C 0.31203 0.91145 0.58992 0.0
C38 C 0.32718 0.89444 0.5707 0.0
C39 C 0.35628 0.88789 0.57563 0.0
H40 H 0.42817 0.83129 0.55244 0.0
H41 H 0.44056 0.78119 0.53824 0.0
H42 H 0.48039 0.76092 0.62191 0.0
H43 H 0.46956 0.81171 0.63518 0.0
H44 H 0.48714 0.87196 0.66896 0.0
H45 H 0.50618 0.89243 0.7128 0.0
H46 H 0.45078 0.96963 0.69913 0.0
H47 H 0.43198 0.94956 0.65531 0.0
H48 H 0.36618 0.92508 0.63704 0.0
H49 H 0.31543 0.93617 0.62845 0.0
H50 H 0.31633 0.88571 0.55223 0.0
H51 H 0.36731 0.87416 0.56083 0.0
N52 N 0.4118 0.86484 0.59552 0.0
N53 N 0.45301 0.86885 0.62469 0.0
N54 N 0.41627 0.90433 0.62631 0.0
C55 C 0.43789 0.8543 0.60451 0.0
C56 C 0.4425 0.89425 0.63532 0.0
C57 C 0.40078 0.88978 0.60645 0.0
C58 C 0.44791 0.8253 0.59487 0.0
C59 C 0.43995 0.8162 0.56756 0.0
C60 C 0.44681 0.78736 0.55959 0.0
C61 C 0.46113 0.76671 0.57906 0.0
C62 C 0.46972 0.77625 0.60615 0.0
C63 C 0.46344 0.80537 0.61383 0.0
C64 C 0.45765 0.90886 0.65891 0.0
C65 C 0.47948 0.89364 0.67493 0.0
C66 C 0.49034 0.90528 0.70008 0.0
C67 C 0.47977 0.93245 0.70948 0.0
C68 C 0.4595 0.94874 0.69232 0.0
C69 C 0.44852 0.93705 0.66733 0.0
C70 C 0.37081 0.89871 0.59961 0.0
C71 C 0.35574 0.9165 0.61828 0.0
C72 C 0.65997 0.25345 0.90067 0.0
C73 C 0.63133 0.2458 0.89336 0.0
C74 C 0.6172 0.2644 0.87203 0.0
C75 C 0.63141 0.2901 0.85829 0.0
H76 H 0.63012 0.34675 0.7838 0.0
H77 H 0.6096 0.37105 0.7398 0.0
H78 H 0.67132 0.44622 0.7424 0.0
H79 H 0.69203 0.42198 0.7868 0.0
H80 H 0.73243 0.42105 0.85184 0.0
H81 H 0.77643 0.43947 0.87435 0.0
H82 H 0.80162 0.3463 0.89502 0.0
H83 H 0.75659 0.32824 0.87442 0.0
H84 H 0.69615 0.28461 0.89341 0.0
H85 H 0.67132 0.23965 0.91721 0.0
H86 H 0.59522 0.25888 0.86574 0.0
H87 H 0.61981 0.30392 0.84198 0.0
N88 N 0.66284 0.34099 0.82814 0.0
N89 N 0.70109 0.37732 0.8263 0.0
N90 N 0.70032 0.33616 0.86201 0.0
C91 C 0.67583 0.36672 0.81526 0.0
C92 C 0.71349 0.36201 0.8496 0.0
C93 C 0.67483 0.32564 0.85157 0.0
C94 C 0.66286 0.38231 0.78891 0.0
C95 C 0.63937 0.3685 0.77518 0.0
C96 C 0.62768 0.38233 0.7498 0.0
C97 C 0.639 0.41041 0.73753 0.0
C98 C 0.6621 0.4246 0.75144 0.0
C99 C 0.67402 0.41063 0.7768 0.0
C100 C 0.74104 0.37325 0.86156 0.0
C101 C 0.74747 0.4046 0.8612 0.0
C102 C 0.77287 0.41511 0.87397 0.0
C103 C 0.79284 0.39447 0.88675 0.0
C104 C 0.7866 0.36303 0.88622 0.0
C105 C 0.76085 0.35258 0.87416 0.0
C106 C 0.66001 0.29796 0.86575 0.0
C107 C 0.67413 0.27931 0.88712 0.0
C108 C 0.84151 0.60721 0.48026 0.0
C109 C 0.82605 0.58426 0.46683 0.0
C110 C 0.83874 0.57182 0.44291 0.0
C111 C 0.86551 0.58289 0.43189 0.0
H112 H 0.92269 0.57272 0.36619 0.0
H113 H 0.93248 0.55794 0.31761 0.0
H114 H 0.98029 0.64267 0.29708 0.0
H115 H 0.97043 0.65774 0.34592 0.0
H116 H 0.97792 0.70298 0.39607 0.0
H117 H 0.9994 0.74888 0.41354 0.0
H118 H 0.96593 0.72212 0.49968 0.0
H119 H 0.94325 0.67669 0.48178 0.0
H120 H 0.87924 0.63678 0.4794 0.0
H121 H 0.83256 0.617 0.49899 0.0
H122 H 0.82738 0.55447 0.43168 0.0
H123 H 0.87399 0.57324 0.41287 0.0
N124 N 0.91537 0.61193 0.40395 0.0
N125 N 0.95185 0.65004 0.39997 0.0
N126 N 0.9211 0.64496 0.44089 0.0
C127 C 0.93785 0.62612 0.38888 0.0
C128 C 0.9438 0.65942 0.4261 0.0
C129 C 0.90675 0.62113 0.42988 0.0
C130 C 0.9457 0.61647 0.35996 0.0
C131 C 0.93545 0.5882 0.35146 0.0
C132 C 0.94121 0.57961 0.32366 0.0
C133 C 0.95716 0.59915 0.3036 0.0
C134 C 0.96778 0.62726 0.3121 0.0
C135 C 0.96228 0.63576 0.34011 0.0
C136 C 0.95864 0.68623 0.43746 0.0
C137 C 0.97529 0.70671 0.41881 0.0
C138 C 0.98786 0.73301 0.42892 0.0
C139 C 0.98446 0.73936 0.45808 0.0
C140 C 0.96859 0.71831 0.47698 0.0
C141 C 0.95567 0.69217 0.46674 0.0
C142 C 0.88032 0.60691 0.44431 0.0
C143 C 0.86837 0.61843 0.46912 0.0
C144 C 0.75093 0.91074 0.87572 0.0
C145 C 0.73963 0.89778 0.90243 0.0
C146 C 0.75413 0.87314 0.91657 0.0
C147 C 0.7789 0.86155 0.90423 0.0
H148 H 0.84934 0.80068 0.92078 0.0
H149 H 0.87289 0.75547 0.94314 0.0
H150 H 0.90348 0.73434 0.85894 0.0
H151 H 0.88051 0.77966 0.83659 0.0
H152 H 0.87358 0.83249 0.78122 0.0
H153 H 0.8968 0.85501 0.73702 0.0
H154 H 0.88092 0.94499 0.76385 0.0
H155 H 0.85575 0.92202 0.80711 0.0
H156 H 0.78351 0.90961 0.84265 0.0
H157 H 0.74025 0.92949 0.86396 0.0
H158 H 0.74647 0.86286 0.93739 0.0
H159 H 0.78924 0.84248 0.91583 0.0
N160 N 0.82749 0.83511 0.87615 0.0
N161 N 0.86081 0.83509 0.83767 0.0
N162 N 0.82731 0.8742 0.83833 0.0
C163 C 0.85 0.82199 0.86324 0.0
C164 C 0.84984 0.86127 0.82519 0.0
C165 C 0.81576 0.86106 0.86373 0.0
C166 C 0.86306 0.79386 0.87688 0.0
C167 C 0.86098 0.78632 0.90702 0.0
C168 C 0.87458 0.76056 0.91986 0.0
C169 C 0.89003 0.74141 0.90277 0.0
C170 C 0.89161 0.74859 0.87262 0.0
C171 C 0.87854 0.77464 0.85986 0.0
C172 C 0.86283 0.87546 0.79768 0.0
C173 C 0.87488 0.8571 0.77753 0.0
C174 C 0.88854 0.87015 0.75222 0.0
C175 C 0.89135 0.90205 0.74665 0.0
C176 C 0.87897 0.9204 0.76685 0.0
C177 C 0.8646 0.90725 0.79185 0.0
C178 C 0.79003 0.87429 0.87737 0.0
C179 C 0.77577 0.8992 0.86339 0.0
C180 C 0.55753 0.04665 0.34373 0.0
C181 C 0.54525 0.06413 0.32032 0.0
C182 C 0.54078 0.09528 0.32306 0.0
C183 C 0.55054 0.10906 0.34752 0.0
H184 H 0.54067 0.18149 0.40349 0.0
H185 H 0.52849 0.23249 0.4157 0.0
H186 H 0.60766 0.23833 0.46466 0.0
H187 H 0.61954 0.18739 0.45323 0.0
H188 H 0.66042 0.12943 0.4612 0.0
H189 H 0.71099 0.11689 0.46902 0.0
H190 H 0.7086 0.06362 0.39444 0.0
H191 H 0.65781 0.07502 0.38745 0.0
H192 H 0.57887 0.04688 0.38472 0.0
H193 H 0.56054 0.02245 0.34277 0.0
H194 H 0.53166 0.1096 0.30545 0.0
H195 H 0.54846 0.13344 0.34816 0.0
N196 N 0.57292 0.1345 0.40049 0.0
N197 N 0.61586 0.13916 0.42686 0.0
N198 N 0.60811 0.09711 0.39978 0.0
C199 C 0.58974 0.15018 0.41859 0.0
C200 C 0.62523 0.11274 0.41751 0.0
C201 C 0.58186 0.10768 0.39139 0.0
C202 C 0.58113 0.18028 0.42729 0.0
C203 C 0.55536 0.19353 0.41707 0.0
C204 C 0.54846 0.22283 0.42388 0.0
C205 C 0.56717 0.23945 0.44105 0.0
C206 C 0.59262 0.22598 0.45168 0.0
C207 C 0.59949 0.19676 0.44495 0.0
C208 C 0.6551 0.10315 0.42377 0.0
C209 C 0.67065 0.11479 0.44667 0.0
C210 C 0.69972 0.10785 0.45096 0.0
C211 C 0.71398 0.08947 0.4322 0.0
C212 C 0.69823 0.0775 0.40955 0.0
C213 C 0.66907 0.08407 0.40552 0.0
C214 C 0.56542 0.09208 0.36942 0.0
C215 C 0.56785 0.06057 0.36786 0.0
C216 C 0.24302 0.60031 0.15381 0.0
C217 C 0.23294 0.61438 0.1275 0.0
C218 C 0.24926 0.63891 0.11377 0.0
C219 C 0.27517 0.64892 0.12586 0.0
H220 H 0.33553 0.72003 0.11993 0.0
H221 H 0.36121 0.76566 0.09874 0.0
H222 H 0.43567 0.74341 0.15164 0.0
H223 H 0.4102 0.6976 0.17281 0.0
H224 H 0.40762 0.63204 0.21349 0.0
H225 H 0.42748 0.60618 0.25753 0.0
H226 H 0.34097 0.5808 0.28793 0.0
H227 H 0.32093 0.60602 0.24349 0.0
H228 H 0.27609 0.59877 0.1861 0.0
H229 H 0.23077 0.58164 0.16518 0.0
H230 H 0.24235 0.65001 0.09329 0.0
H231 H 0.28728 0.66766 0.11443 0.0
N232 N 0.3287 0.66897 0.15133 0.0
N233 N 0.36569 0.66197 0.18557 0.0
N234 N 0.32463 0.62919 0.18821 0.0
C235 C 0.35475 0.67787 0.16188 0.0
C236 C 0.35074 0.63771 0.1989 0.0
C237 C 0.31355 0.64458 0.16425 0.0
C238 C 0.37072 0.70509 0.14818 0.0
C239 C 0.35742 0.7247 0.127 0.0
C240 C 0.37205 0.75099 0.11496 0.0
C241 C 0.40039 0.75817 0.12362 0.0
C242 C 0.41391 0.73835 0.1444 0.0
C243 C 0.39922 0.71217 0.15663 0.0
C244 C 0.36271 0.62109 0.22506 0.0
C245 C 0.39282 0.62079 0.22946 0.0
C246 C 0.40421 0.60589 0.25454 0.0
C247 C 0.3857 0.59157 0.27597 0.0
C248 C 0.35562 0.59174 0.27164 0.0
C249 C 0.34422 0.60606 0.24622 0.0
C250 C 0.28549 0.6346 0.15198 0.0
C251 C 0.26898 0.61027 0.16589 0.0
C252 C 0.05402 0.30526 0.54106 0.0
C253 C 0.03915 0.2846 0.56118 0.0
C254 C 0.03436 0.29331 0.58942 0.0
C255 C 0.04457 0.32156 0.59745 0.0
H256 H 0.03735 0.38065 0.6615 0.0
H257 H 0.02536 0.39811 0.70879 0.0
H258 H 0.07676 0.48049 0.68816 0.0
H259 H 0.08866 0.46333 0.64089 0.0
H260 H 0.13771 0.46258 0.5936 0.0
H261 H 0.18685 0.47907 0.57951 0.0
H262 H 0.19465 0.40045 0.53023 0.0
H263 H 0.14522 0.38404 0.54391 0.0
H264 H 0.0765 0.34842 0.53341 0.0
H265 H 0.05762 0.29973 0.51895 0.0
H266 H 0.02355 0.27793 0.60575 0.0
H267 H 0.04098 0.32716 0.61956 0.0
N268 N 0.0622 0.38273 0.61071 0.0
N269 N 0.09826 0.42131 0.60633 0.0
N270 N 0.09688 0.3837 0.57325 0.0
C271 C 0.07455 0.40835 0.62035 0.0
C272 C 0.10963 0.4092 0.58283 0.0
C273 C 0.07303 0.37047 0.58699 0.0
C274 C 0.06423 0.42043 0.64747 0.0
C275 C 0.04573 0.40271 0.66681 0.0
C276 C 0.03896 0.41261 0.69397 0.0
C277 C 0.05028 0.44056 0.70221 0.0
C278 C 0.06755 0.45895 0.68233 0.0
C279 C 0.07452 0.44897 0.6553 0.0
C280 C 0.13759 0.42167 0.57029 0.0
C281 C 0.14966 0.44897 0.5794 0.0
C282 C 0.17791 0.45841 0.57142 0.0
C283 C 0.1948 0.44082 0.55415 0.0
C284 C 0.18215 0.41459 0.54347 0.0
C285 C 0.15381 0.40512 0.55142 0.0
C286 C 0.06032 0.34163 0.57764 0.0
C287 C 0.06472 0.3333 0.54928 0.0
Co288 Co 0.99495 0.01078 0.50258 0.0
C289 C 0.02359 0.95542 0.50048 0.0
Co290 Co 0.03759 0.00881 0.52376 0.0
C291 C 0.94043 0.03008 0.47669 0.0
C292 C 0.94139 0.9822 0.48922 0.0
N293 N 0.9581 0.00798 0.48733 0.0
N294 N 0.91349 0.01892 0.4722 0.0
C295 C 0.91396 0.98891 0.48007 0.0
H296 H 0.94651 0.05407 0.47424 0.0
H297 H 0.94813 0.96021 0.4985 0.0
C298 C 1.00892 0.06423 0.52569 0.0
N299 N 0.07445 0.01127 0.53904 0.0
C300 C 0.09115 0.98899 0.55103 0.0
C301 C 0.09167 0.03661 0.53737 0.0
N302 N 0.11814 0.99948 0.55676 0.0
C303 C 0.11839 0.02949 0.54827 0.0
C304 C 0.03799 0.02963 0.46398 0.0
O305 O 0.98863 0.05121 0.51248 0.0
O306 O 0.03163 0.04969 0.53223 0.0
O307 O 0.05333 0.0227 0.48624 0.0
O308 O 1.01053 0.02672 0.46604 0.0
O309 O 0.04303 0.96761 0.51543 0.0
H310 H 0.0857 0.05865 0.52753 0.0
H311 H 0.0839 0.96541 0.55466 0.0
O312 O 1.00176 0.97072 0.49247 0.0
O313 O 0.97947 0.9947 0.53948 0.0
O314 O 0.02175 0.99492 0.56089 0.0
C315 C 0.99452 0.98961 0.56226 0.0
H316 H 0.89533 0.97336 0.48068 0.0
H317 H 0.13707 0.0449 0.54827 0.0
Co318 Co 0.5025 1.0015 0.99329 0.0
C319 C 0.49627 0.95329 0.03583 0.0
Co320 Co 0.52684 0.00825 0.03307 0.0
C321 C 0.49298 0.99667 0.93278 0.0
C322 C 0.4546 0.98497 0.95789 0.0
N323 N 0.48231 0.99491 0.96007 0.0
N324 N 0.47319 0.98781 0.91357 0.0
C325 C 0.44892 0.98057 0.92931 0.0
H326 H 0.51509 1.00378 0.92728 0.0
H327 H 0.43983 0.98019 0.97604 0.0
C328 C 0.53314 0.05632 0.99033 0.0
N329 N 0.54709 0.01487 0.06625 0.0
C330 C 0.53681 0.01252 0.09372 0.0
C331 C 0.57462 0.02556 0.06812 0.0
N332 N 0.55668 0.02174 0.11263 0.0
C333 C 0.58056 0.02992 0.09665 0.0
C334 C 0.55905 0.98009 0.9923 0.0
O335 O 0.5161 0.03991 0.97626 0.0
O336 O 0.54038 0.04682 0.0159 0.0
O337 O 0.55993 0.98951 0.01759 0.0
O338 O 0.53571 0.98282 0.97797 0.0
O339 O 0.51316 0.96967 0.05011 0.0
H340 H 0.58911 0.03072 0.0498 0.0
H341 H 0.51473 0.00551 0.09953 0.0
O342 O 0.48904 0.96298 0.01032 0.0
O343 O 0.46939 0.02026 1.0088 0.0
O344 O 0.49369 0.02698 0.04838 0.0
C345 C 0.47035 0.02978 0.03405 0.0
H346 H 0.42889 0.97139 0.92107 0.0
H347 H 0.60068 0.03887 0.10493 0.0
Co348 Co 0.53241 0.51303 0.49754 0.0
C349 C 0.48517 0.51603 0.4603 0.0
Co350 Co 0.49154 0.49391 0.51762 0.0
C351 C 0.59388 0.52475 0.48731 0.0
C352 C 0.5676 0.55478 0.46061 0.0
N353 N 0.56602 0.53091 0.48084 0.0
N354 N 0.61269 0.54382 0.47189 0.0
C355 C 0.59621 0.56265 0.45497 0.0
H356 H 0.60027 0.50684 0.50323 0.0
H357 H 0.54914 0.56639 0.45117 0.0
C358 C 0.53883 0.49108 0.55492 0.0
N359 N 0.45804 0.47584 0.53434 0.0
C360 C 0.43008 0.48232 0.52872 0.0
C361 C 0.45679 0.45104 0.55348 0.0
N362 N 0.41146 0.46235 0.54341 0.0
C363 C 0.4283 0.44278 0.55915 0.0
C364 C 0.52477 0.45216 0.4908 0.0
O365 O 0.55228 0.50389 0.53299 0.0
O366 O 0.51193 0.48481 0.55287 0.0
O367 O 0.50154 0.45597 0.50474 0.0
O368 O 0.5423 0.47466 0.48509 0.0
O369 O 0.47156 0.50321 0.48215 0.0
H370 H 0.47543 0.43919 0.56222 0.0
H371 H 0.42356 0.50066 0.51333 0.0
O372 O 0.51212 0.52204 0.46235 0.0
O373 O 0.52219 0.55111 0.50995 0.0
O374 O 0.4818 0.53213 0.53039 0.0
C375 C 0.49903 0.55475 0.52406 0.0
H376 H 0.60425 0.58153 0.4404 0.0
H377 H 0.42065 0.42368 0.57365 0.0
Co378 Co 0.0248 0.50285 0.98882 0.0
C379 C 0.96959 0.47609 0.98684 0.0
Co380 Co 0.9996 0.50429 0.02934 0.0
C381 C 0.03526 0.50145 0.92747 0.0
C382 C 0.07408 0.49573 0.95219 0.0
N383 N 0.04561 0.50102 0.95475 0.0
N384 N 0.05605 0.49621 0.90794 0.0
C385 C 0.08057 0.49279 0.92349 0.0
H386 H 0.0127 0.50478 0.92221 0.0
H387 H 0.08892 0.49288 0.97019 0.0
C388 C 0.05481 0.53123 0.03124 0.0
N389 N 0.97899 0.50563 0.06366 0.0
C390 C 0.98149 0.52668 0.08323 0.0
C391 C 0.95973 0.48457 0.07557 0.0
N392 N 0.96478 0.5195 0.10697 0.0
C393 C 0.9509 0.49309 0.10214 0.0
C394 C 0.03317 0.45275 0.02844 0.0
O395 O 0.05638 0.52409 1.0052 0.0
O396 O 0.0317 0.52466 0.04569 0.0
O397 O 0.01503 0.46606 0.04353 0.0
O398 O 0.04038 0.46493 1.00346 0.0
O399 O 0.96769 0.48406 0.01257 0.0
H400 H 0.95327 0.46384 0.06601 0.0
H401 H 0.99569 0.54668 0.08034 0.0
O402 O 0.99307 0.48154 0.97271 0.0
O403 O 1.00897 0.54087 0.97442 0.0
O404 O 0.98432 0.54234 0.015 0.0
C405 C 0.9911 0.55428 0.98978 0.0
H406 H 0.10143 0.48697 0.91506 0.0
H407 H 0.93642 0.48013 0.1173 0.0
C408 C 0.12739 0.11041 0.32806 0.0
C409 C 0.12271 0.0956 0.30272 0.0
C410 C 0.11335 0.10007 0.35428 0.0
C411 C 0.09479 0.07378 0.35536 0.0
C412 C 0.09048 0.05844 0.32984 0.0
C413 C 0.10415 0.06981 0.30373 0.0
C414 C 0.11803 0.11756 0.38072 0.0
C415 C 0.07155 0.02991 0.33014 0.0
C416 C 0.0804 0.03194 0.42981 0.0
C417 C 0.0522 0.04071 0.43605 0.0
C418 C 0.09428 0.04208 0.40347 0.0
C419 C 0.08 0.06228 0.38318 0.0
C420 C 0.05163 0.0715 0.38956 0.0
C421 C 0.03791 0.06023 0.4157 0.0
C422 C 0.12416 0.03098 0.39727 0.0
C423 C 0.03591 0.09362 0.36894 0.0
H424 H 0.14155 0.13053 0.32715 0.0
H425 H 0.10059 0.05838 0.28409 0.0
H426 H 0.0969 0.12492 0.38888 0.0
H427 H 0.12772 0.10267 0.39839 0.0
H428 H 0.13246 0.13801 0.3761 0.0
H429 H 0.07127 0.02006 0.30876 0.0
H430 H 0.07937 0.0125 0.34678 0.0
H431 H 0.04901 0.03499 0.33615 0.0
H432 H 0.09149 0.01667 0.44537 0.0
H433 H 0.01621 0.06727 0.42052 0.0
H434 H 0.13988 0.05053 0.39474 0.0
H435 H 0.1241 0.01993 0.37652 0.0
H436 H 0.13186 0.01443 0.41479 0.0
H437 H 0.04906 0.11505 0.36495 0.0
H438 H 0.0143 0.0992 0.37742 0.0
H439 H 0.03297 0.08394 0.3477 0.0
C440 C 0.49208 0.97259 0.74322 0.0
C441 C 0.4867 0.94183 0.73876 0.0
C442 C 0.49369 0.98222 0.77139 0.0
C443 C 0.48951 0.96058 0.7955 0.0
C444 C 0.48573 0.92929 0.79111 0.0
C445 C 0.48446 0.92029 0.76277 0.0
C446 C 0.49831 0.0157 0.7753 0.0
C447 C 0.48107 0.90552 0.81628 0.0
C448 C 0.50568 0.97805 0.87285 0.0
C449 C 0.47786 0.9837 0.8833 0.0
C450 C 0.51009 0.97175 0.84392 0.0
C451 C 0.48608 0.97072 0.82512 0.0
C452 C 0.45813 0.97734 0.83524 0.0
C453 C 0.45441 0.98389 0.86416 0.0
C454 C 0.54024 0.96502 0.83384 0.0
C455 C 0.43195 0.97645 0.8158 0.0
H456 H 0.4941 0.98923 0.72466 0.0
H457 H 0.47993 0.89654 0.75944 0.0
H458 H 0.47793 0.02505 0.78322 0.0
H459 H 0.51517 0.01908 0.79185 0.0
H460 H 0.50485 0.02894 0.7547 0.0
H461 H 0.48098 0.88197 0.80931 0.0
H462 H 0.49823 0.90772 0.83275 0.0
H463 H 0.46 0.90909 0.82699 0.0
H464 H 0.52393 0.97747 0.88748 0.0
H465 H 0.43299 0.98879 0.8719 0.0
H466 H 0.54541 0.97811 0.81283 0.0
H467 H 0.54145 0.94048 0.83029 0.0
H468 H 0.55701 0.97058 0.8499 0.0
H469 H 0.43569 0.9917 0.79575 0.0
H470 H 0.41195 0.98342 0.82667 0.0
H471 H 0.42831 0.95301 0.80912 0.0
C472 C 0.61979 0.45543 0.70752 0.0
C473 C 0.62667 0.42452 0.71018 0.0
C474 C 0.60653 0.46842 0.68233 0.0
C475 C 0.60024 0.45009 0.65921 0.0
C476 C 0.60792 0.4191 0.66149 0.0
C477 C 0.62095 0.40669 0.68696 0.0
C478 C 0.5985 0.50151 0.68076 0.0
C479 C 0.60188 0.39886 0.63722 0.0
C480 C 0.53924 0.46992 0.60682 0.0
C481 C 0.55448 0.48251 0.58217 0.0
C482 C 0.55384 0.46012 0.6323 0.0
C483 C 0.58447 0.46278 0.63313 0.0
C484 C 0.59996 0.47608 0.60855 0.0
C485 C 0.58477 0.48587 0.58338 0.0
C486 C 0.53652 0.44623 0.65811 0.0
C487 C 0.63262 0.4792 0.60854 0.0
H488 H 0.62401 0.46924 0.7255 0.0
H489 H 0.62665 0.38289 0.68875 0.0
H490 H 0.60785 0.51388 0.66085 0.0
H491 H 0.57461 0.50325 0.67942 0.0
H492 H 0.60617 0.51304 0.69993 0.0
H493 H 0.61041 0.37564 0.64186 0.0
H494 H 0.57816 0.39676 0.63374 0.0
H495 H 0.61174 0.40914 0.61664 0.0
H496 H 0.51583 0.46735 0.60613 0.0
H497 H 0.59673 0.49558 0.56444 0.0
H498 H 0.54202 0.45811 0.67772 0.0
H499 H 0.54213 0.42198 0.66268 0.0
H500 H 0.51278 0.44737 0.65453 0.0
H501 H 0.63999 0.49147 0.62733 0.0
H502 H 0.6413 0.49159 0.58829 0.0
H503 H 0.64209 0.45626 0.61087 0.0
C504 C 0.97012 0.56084 0.26899 0.0
C505 C 0.96168 0.59039 0.27363 0.0
C506 C 0.972 0.55125 0.24087 0.0
C507 C 0.96506 0.57166 0.2168 0.0
C508 C 0.95738 0.60183 0.22127 0.0
C509 C 0.95587 0.61089 0.24967 0.0
C510 C 0.98059 0.51898 0.23698 0.0
C511 C 0.94973 0.62418 0.19614 0.0
C512 C 0.9892 0.54991 0.14275 0.0
C513 C 0.96422 0.53485 0.13331 0.0
C514 C 0.9896 0.56282 0.16954 0.0
C515 C 0.96436 0.56072 0.1872 0.0
C516 C 0.9388 0.54649 0.17731 0.0
C517 C 0.93908 0.53363 0.15053 0.0
C518 C 0.01732 0.57765 0.17941 0.0
C519 C 0.91135 0.5441 0.19538 0.0
H520 H 0.97497 0.54508 0.28747 0.0
H521 H 0.94909 0.63367 0.25321 0.0
H522 H 0.96222 0.50629 0.22773 0.0
H523 H 0.99899 0.51902 0.22143 0.0
H524 H 0.98694 0.50657 0.25777 0.0
H525 H 0.94609 0.64734 0.20309 0.0
H526 H 0.96725 0.62572 0.17952 0.0
H527 H 0.92974 0.61605 0.1856 0.0
H528 H 1.00881 0.5506 0.12971 0.0
H529 H 0.91965 0.5224 0.14309 0.0
H530 H 0.02598 0.56384 0.19841 0.0
H531 H 0.01312 0.60062 0.18645 0.0
H532 H 0.03418 0.57988 0.16207 0.0
H533 H 0.91497 0.52972 0.21581 0.0
H534 H 0.89286 0.53402 0.18378 0.0
H535 H 0.90533 0.56696 0.20147 0.0
C536 C 0.32304 0.07247 0.11301 0.0
C537 C 0.31841 0.10398 0.11081 0.0
C538 C 0.34776 0.06039 0.10069 0.0
C539 C 0.36848 0.0802 0.08563 0.0
C540 C 0.36401 0.112 0.08336 0.0
C541 C 0.33916 0.12347 0.09597 0.0
C542 C 0.3516 0.02636 0.10366 0.0
C543 C 0.38553 0.13397 0.06758 0.0
C544 C 0.44511 0.05188 0.07559 0.0
C545 C 0.44446 0.04326 0.04697 0.0
C546 C 0.42065 0.06394 0.08837 0.0
C547 C 0.39479 0.06764 0.07221 0.0
C548 C 0.39404 0.05916 0.04327 0.0
C549 C 0.4188 0.04706 0.03105 0.0
C550 C 0.42245 0.07255 0.11929 0.0
C551 C 0.367 0.06276 0.02521 0.0
H552 H 0.30706 0.05708 0.124 0.0
H553 H 0.33614 0.14786 0.09445 0.0
H554 H 0.35249 0.01758 0.08185 0.0
H555 H 0.37246 0.021 0.11449 0.0
H556 H 0.33377 0.01405 0.11636 0.0
H557 H 0.37889 0.15803 0.06758 0.0
H558 H 0.40712 0.13187 0.07787 0.0
H559 H 0.388 0.1283 0.04476 0.0
H560 H 0.46474 0.049 0.08817 0.0
H561 H 0.41798 0.04048 1.00896 0.0
H562 H 0.40594 0.05924 0.13291 0.0
H563 H 0.41762 0.097 0.12017 0.0
H564 H 0.44414 0.06842 0.1289 0.0
H565 H 0.3488 0.04915 0.03595 0.0
H566 H 0.36997 0.0554 1.00298 0.0
H567 H 0.36063 0.08694 0.02346 0.0
C568 C 0.2721 0.93171 0.55854 0.0
C569 C 0.28117 0.91814 0.58526 0.0
C570 C 0.2436 0.94145 0.55488 0.0
C571 C 0.22374 0.93702 0.57843 0.0
C572 C 0.23239 0.92166 0.60492 0.0
C573 C 0.26115 0.91265 0.60812 0.0
C574 C 0.23525 0.95803 0.52639 0.0
C575 C 0.21164 0.91595 0.63026 0.0
C576 C 0.16635 0.99647 0.57901 0.0
C577 C 0.14299 0.98216 0.5658 0.0
C578 C 0.19245 0.98161 0.58409 0.0
C579 C 0.1951 0.95142 0.57623 0.0
C580 C 0.17104 0.93607 0.56461 0.0
C581 C 0.14525 0.95171 0.55936 0.0
C582 C 0.21763 0.99877 0.59659 0.0
C583 C 0.17294 0.90367 0.5565 0.0
H584 H 0.28767 0.93603 0.54093 0.0
H585 H 0.26819 0.90175 0.62868 0.0
H586 H 0.21509 0.94772 0.51802 0.0
H587 H 0.23083 0.98213 0.52978 0.0
H588 H 0.25254 0.95764 0.50962 0.0
H589 H 0.22058 0.90027 0.64783 0.0
H590 H 0.20695 0.93785 0.63936 0.0
H591 H 0.19075 0.90613 0.62306 0.0
H592 H 0.1645 0.01972 0.58468 0.0
H593 H 0.12738 0.94048 0.54903 0.0
H594 H 0.2356 1.00158 0.58047 0.0
H595 H 0.22598 0.98569 0.61617 0.0
H596 H 0.2116 0.02169 0.60261 0.0
H597 H 0.1872 0.90306 0.53718 0.0
H598 H 0.15136 0.89372 0.55139 0.0
H599 H 0.18269 0.88912 0.57439 0.0
C600 C 0.83107 0.38904 0.92547 0.0
C601 C 0.81971 0.4056 0.90101 0.0
C602 C 0.8562 0.3992 0.93917 0.0
C603 C 0.86988 0.42716 0.92887 0.0
C604 C 0.85854 0.44416 0.9044 0.0
C605 C 0.83393 0.43297 0.89052 0.0
C606 C 0.86798 0.38008 0.96484 0.0
C607 C 0.87218 0.47443 0.89312 0.0
C608 C 0.91615 0.4678 0.98239 0.0
C609 C 0.94426 0.46234 0.97284 0.0
C610 C 0.89177 0.45672 0.9681 0.0
C611 C 0.89561 0.43902 0.94418 0.0
C612 C 0.92398 0.43284 0.93486 0.0
C613 C 0.94798 0.44496 0.94906 0.0
C614 C 0.86191 0.46452 0.9782 0.0
C615 C 0.92898 0.41343 0.90993 0.0
H616 H 0.82013 0.36825 0.93433 0.0
H617 H 0.82591 0.44575 0.87135 0.0
H618 H 0.89122 0.37564 0.96119 0.0
H619 H 0.86657 0.3926 0.98465 0.0
H620 H 0.85602 0.35789 0.9689 0.0
H621 H 0.86035 0.48519 0.87427 0.0
H622 H 0.87259 0.49028 0.9106 0.0
H623 H 0.89496 0.47137 0.88648 0.0
H624 H 0.91318 0.48155 1.00055 0.0
H625 H 0.9697 0.44066 0.94165 0.0
H626 H 0.84914 0.44338 0.98483 0.0
H627 H 0.85018 0.47674 0.96008 0.0
H628 H 0.86268 0.47902 0.99678 0.0
H629 H 0.91774 0.39091 0.91432 0.0
H630 H 0.95237 0.40979 0.90611 0.0
H631 H 0.9197 0.42438 0.88973 0.0
C632 C 0.78561 0.54493 0.47439 0.0
C633 C 0.79573 0.57516 0.47563 0.0
C634 C 0.75598 0.53716 0.47731 0.0
C635 C 0.73601 0.5601 0.482 0.0
C636 C 0.74631 0.59013 0.48559 0.0
C637 C 0.77601 0.59735 0.48219 0.0
C638 C 0.74589 0.50486 0.4734 0.0
C639 C 0.72576 0.61516 0.49104 0.0
C640 C 0.66082 0.55484 0.44988 0.0
C641 C 0.64376 0.54558 0.47432 0.0
C642 C 0.69093 0.55883 0.45205 0.0
C643 C 0.70433 0.55373 0.47946 0.0
C644 C 0.68732 0.5437 0.50417 0.0
C645 C 0.65719 0.53958 0.50127 0.0
C646 C 0.70832 0.56908 0.42506 0.0
C647 C 0.70077 0.53832 0.53378 0.0
H648 H 0.80076 0.52747 0.47 0.0
H649 H 0.78346 0.62081 0.48301 0.0
H650 H 0.73027 0.49653 0.49077 0.0
H651 H 0.73447 0.50421 0.45238 0.0
H652 H 0.7642 0.48901 0.47352 0.0
H653 H 0.73737 0.63609 0.49721 0.0
H654 H 0.71316 0.62109 0.47109 0.0
H655 H 0.71006 0.6074 0.50853 0.0
H656 H 0.6505 0.55907 0.42899 0.0
H657 H 0.644 0.53272 0.52027 0.0
H658 H 0.72592 0.55297 0.42198 0.0
H659 H 0.71866 0.59177 0.42747 0.0
H660 H 0.69476 0.57068 0.40523 0.0
H661 H 0.71931 0.52292 0.53288 0.0
H662 H 0.68495 0.52827 0.55032 0.0
H663 H 0.70938 0.56025 0.54091 0.0
C664 C 0.08904 0.28821 0.08933 0.0
C665 C 0.11753 0.29043 0.09961 0.0
C666 C 0.07486 0.31402 0.07711 0.0
C667 C 0.08935 0.34291 0.07539 0.0
C668 C 0.11815 0.34527 0.08565 0.0
C669 C 0.13193 0.31902 0.09745 0.0
C670 C 0.04433 0.31037 0.06607 0.0
C671 C 0.13427 0.37565 0.08457 0.0
C672 C 0.06321 0.40699 0.02218 0.0
C673 C 0.04664 0.42405 0.04022 0.0
C674 C 0.07687 0.38037 0.03323 0.0
C675 C 0.07429 0.37069 0.06315 0.0
C676 C 0.05751 0.38776 0.08145 0.0
C677 C 0.04375 0.41407 0.06975 0.0
C678 C 0.09421 0.36266 0.01288 0.0
C679 C 0.05443 0.37848 0.11352 0.0
H680 H 0.07788 0.26615 0.09064 0.0
H681 H 0.15381 0.32099 0.10564 0.0
H682 H 0.02946 0.32418 0.0782 0.0
H683 H 0.04335 0.31893 0.04285 0.0
H684 H 0.03633 0.28626 0.06832 0.0
H685 H 0.15657 0.37366 0.09333 0.0
H686 H 0.13568 0.3859 0.06186 0.0
H687 H 0.12228 0.3916 0.09729 0.0
H688 H 0.06552 0.41443 0.99933 0.0
H689 H 0.03115 0.42715 0.08391 0.0
H690 H 0.08589 0.33872 0.01374 0.0
H691 H 0.11718 0.36208 0.0198 0.0
H692 H 0.09341 0.37266 0.99005 0.0
H693 H 0.04482 0.35509 0.11689 0.0
H694 H 0.04062 0.39415 0.12481 0.0
H695 H 0.07611 0.37812 0.12378 0.0
C696 C 0.63021 0.19061 0.91144 0.0
C697 C 0.6162 0.21849 0.90791 0.0
C698 C 0.61609 0.16454 0.92493 0.0
C699 C 0.58735 0.16648 0.93538 0.0
C700 C 0.57315 0.19462 0.93203 0.0
C701 C 0.58771 0.22026 0.91822 0.0
C702 C 0.63185 0.13487 0.92783 0.0
C703 C 0.54264 0.19765 0.94316 0.0
C704 C 0.54229 0.09292 0.94674 0.0
C705 C 0.54557 0.08537 0.97661 0.0
C706 C 0.55552 0.11943 0.93309 0.0
C707 C 0.57219 0.139 0.94975 0.0
C708 C 0.57501 0.13189 0.98002 0.0
C709 C 0.56179 0.10508 0.99306 0.0
C710 C 0.55219 0.12613 0.90073 0.0
C711 C 0.59236 0.15236 0.99856 0.0
H712 H 0.65211 0.18908 0.90321 0.0
H713 H 0.57693 0.24187 0.91582 0.0
H714 H 0.6334 0.12653 0.95106 0.0
H715 H 0.61951 0.11725 0.91675 0.0
H716 H 0.65407 0.13715 0.91842 0.0
H717 H 0.53474 0.2212 0.93904 0.0
H718 H 0.52768 0.18184 0.93263 0.0
H719 H 0.54166 0.19118 0.96687 0.0
H720 H 0.5299 0.07776 0.93385 0.0
H721 H 0.56435 0.09945 0.01617 0.0
H722 H 0.57376 0.12653 0.88997 0.0
H723 H 0.54297 0.14897 0.89596 0.0
H724 H 0.53797 0.10897 0.89101 0.0
H725 H 0.61537 0.1535 0.9914 0.0
H726 H 0.5914 0.14428 0.02196 0.0
H727 H 0.58422 0.17588 0.9959 0.0
C728 C 0.97945 0.78464 0.48725 0.0
C729 C 0.99584 0.76875 0.46807 0.0
C730 C 0.98813 0.8139 0.49429 0.0
C731 C 0.01357 0.82793 0.48148 0.0
C732 C 0.03098 0.81154 0.46325 0.0
C733 C 0.02203 0.78207 0.45694 0.0
C734 C 0.96911 0.83049 0.51414 0.0
C735 C 0.0582 0.82574 0.44909 0.0
C736 C 1.00888 0.91367 0.47014 0.0
C737 C 0.02485 0.92332 0.49359 0.0
C738 C 1.00637 0.88278 0.46516 0.0
C739 C 0.01976 0.86087 0.48441 0.0
C740 C 0.03699 0.87056 0.50743 0.0
C741 C 0.03952 0.90181 0.51163 0.0
C742 C 0.98826 0.87353 0.44001 0.0
C743 C 0.05138 0.84787 0.52854 0.0
H744 H 0.95904 0.77487 0.49578 0.0
H745 H 0.03523 0.76975 0.44265 0.0
H746 H 0.98236 0.84073 0.531 0.0
H747 H 0.95833 0.84935 0.50138 0.0
H748 H 0.9521 0.81521 0.52504 0.0
H749 H 0.07108 0.80888 0.43833 0.0
H750 H 0.05229 0.84414 0.43251 0.0
H751 H 0.07201 0.83629 0.46533 0.0
H752 H 0.99772 0.93029 0.45598 0.0
H753 H 0.05177 0.90921 0.52987 0.0
H754 H 0.96853 0.86068 0.44837 0.0
H755 H 1.00056 0.85824 0.42683 0.0
H756 H 0.98145 0.89348 0.42565 0.0
H757 H 0.03458 0.83523 0.54234 0.0
H758 H 0.0669 0.8591 0.54287 0.0
H759 H 0.06307 0.83089 0.51679 0.0
C760 C 0.44557 0.71963 0.55547 0.0
C761 C 0.46619 0.73506 0.57155 0.0
C762 C 0.45007 0.68993 0.54797 0.0
C763 C 0.47542 0.67494 0.55747 0.0
C764 C 0.49601 0.68999 0.57426 0.0
C765 C 0.49135 0.72001 0.58076 0.0
C766 C 0.42789 0.67475 0.52955 0.0
C767 C 0.52309 0.67446 0.58516 0.0
C768 C 0.4756 0.58879 0.55732 0.0
C769 C 0.49229 0.58527 0.53249 0.0
C770 C 0.47013 0.61792 0.56595 0.0
C771 C 0.48097 0.64393 0.54883 0.0
C772 C 0.49728 0.64042 0.52338 0.0
C773 C 0.50307 0.61108 0.51573 0.0
C774 C 0.45323 0.62087 0.59359 0.0
C775 C 0.50853 0.66763 0.50416 0.0
H776 H 0.42572 0.73067 0.54882 0.0
H777 H 0.50764 0.73178 0.59281 0.0
H778 H 0.43824 0.66851 0.50921 0.0
H779 H 0.41932 0.65336 0.54122 0.0
H780 H 0.40941 0.68965 0.52377 0.0
H781 H 0.53592 0.68854 0.59965 0.0
H782 H 0.51731 0.65227 0.5972 0.0
H783 H 0.53699 0.66965 0.56652 0.0
H784 H 0.46744 0.56876 0.57036 0.0
H785 H 0.51576 0.60833 0.49634 0.0
H786 H 0.43351 0.63416 0.58885 0.0
H787 H 0.46655 0.63351 0.60881 0.0
H788 H 0.44659 0.59835 0.60458 0.0
H789 H 0.49031 0.68234 0.49712 0.0
H790 H 0.51996 0.66091 0.48456 0.0
H791 H 0.52373 0.68158 0.51648 0.0
C792 C 0.89944 0.94406 0.70626 0.0
C793 C 0.90736 0.91589 0.72011 0.0
C794 C 0.91428 0.95707 0.68136 0.0
C795 C 0.93713 0.94125 0.66929 0.0
C796 C 0.94523 0.91286 0.68299 0.0
C797 C 0.93066 0.90085 0.70837 0.0
C798 C 0.90531 0.9877 0.66782 0.0
C799 C 0.96905 0.89488 0.67057 0.0
C800 C 0.95441 0.95972 0.5889 0.0
C801 C 0.98021 0.97723 0.58974 0.0
C802 C 0.94042 0.94762 0.61456 0.0
C803 C 0.95199 0.9539 0.64186 0.0
C804 C 0.97786 0.97193 0.64283 0.0
C805 C 0.9919 0.98298 0.61678 0.0
C806 C 0.9134 0.92781 0.61242 0.0
C807 C 0.99052 0.97986 0.67141 0.0
H808 H 0.88131 0.95589 0.71456 0.0
H809 H 0.93775 0.87956 0.71902 0.0
H810 H 0.92443 1.00355 0.66522 0.0
H811 H 0.89645 0.9852 0.64585 0.0
H812 H 0.88863 0.99813 0.68098 0.0
H813 H 0.97239 0.87286 0.68344 0.0
H814 H 0.96377 0.89017 0.64794 0.0
H815 H 0.98974 0.90836 0.66982 0.0
H816 H 0.94537 0.95499 0.56807 0.0
H817 H 0.01171 0.99669 0.61755 0.0
H818 H 0.89487 0.93822 0.62288 0.0
H819 H 0.91656 0.90518 0.6242 0.0
H820 H 0.90763 0.92442 0.58957 0.0
H821 H 0.97416 0.99146 0.68394 0.0
H822 H 1.0102 0.99492 0.66847 0.0
H823 H 0.99628 0.95878 0.68464 0.0
C824 C 0.56167 0.03157 0.28181 0.0
C825 C 0.54105 0.0512 0.29182 0.0
C826 C 0.56124 0.02328 0.2532 0.0
C827 C 0.54001 0.03534 0.23391 0.0
C828 C 0.51802 0.05354 0.24424 0.0
C829 C 0.51868 0.06108 0.27317 0.0
C830 C 0.58485 1.00345 0.2431 0.0
C831 C 0.49501 0.06681 0.22426 0.0
C832 C 0.5654 0.04953 0.15589 0.0
C833 C 0.55223 0.02505 0.14299 0.0
C834 C 0.56097 0.05346 0.18532 0.0
C835 C 0.54319 0.03213 0.20235 0.0
C836 C 0.5297 0.00739 0.18945 0.0
C837 C 0.53425 1.00425 0.15979 0.0
C838 C 0.57548 0.08037 0.19822 0.0
C839 C 0.51096 0.984 0.20705 0.0
H840 H 0.57933 0.02407 0.29573 0.0
H841 H 0.5023 0.07573 0.28084 0.0
H842 H 0.5756 0.98545 0.23014 0.0
H843 H 0.60032 0.01756 0.2289 0.0
H844 H 0.59708 0.99243 0.26155 0.0
H845 H 0.47743 0.07713 0.23636 0.0
H846 H 0.50502 0.08474 0.2088 0.0
H847 H 0.48534 0.04907 0.21126 0.0
H848 H 0.57884 0.06593 0.14279 0.0
H849 H 0.52421 0.98521 0.14981 0.0
H850 H 0.59081 0.07224 0.21538 0.0
H851 H 0.55905 0.09396 0.20859 0.0
H852 H 0.58763 0.09553 0.18171 0.0
H853 H 0.52417 0.97198 0.22415 0.0
H854 H 0.50106 0.96684 0.19347 0.0
H855 H 0.49341 0.99533 0.21818 0.0
C856 C 0.4188 0.55517 0.30246 0.0
C857 C 0.39788 0.57752 0.30324 0.0
C858 C 0.43179 0.54298 0.32808 0.0
C859 C 0.42421 0.55408 0.35495 0.0
C860 C 0.40276 0.57639 0.35584 0.0
C861 C 0.3896 0.58759 0.32996 0.0
C862 C 0.45406 0.51872 0.32632 0.0
C863 C 0.39455 0.58931 0.38393 0.0
C864 C 0.44364 0.51034 0.42632 0.0
C865 C 0.46975 0.52506 0.43315 0.0
C866 C 0.42879 0.51913 0.40065 0.0
C867 C 0.43995 0.54374 0.38185 0.0
C868 C 0.46619 0.55882 0.38883 0.0
C869 C 0.48095 0.54904 0.41419 0.0
C870 C 0.40126 0.50204 0.39358 0.0
C871 C 0.47847 0.58562 0.36973 0.0
H872 H 0.42504 0.54731 0.28174 0.0
H873 H 0.37357 0.60509 0.33044 0.0
H874 H 0.47565 0.5278 0.33237 0.0
H875 H 0.44856 0.4989 0.34196 0.0
H876 H 0.45565 0.51069 0.30421 0.0
H877 H 0.3768 0.60579 0.38106 0.0
H878 H 0.38761 0.57071 0.40033 0.0
H879 H 0.41372 0.60107 0.39281 0.0
H880 H 0.435 0.4917 0.44089 0.0
H881 H 0.50098 0.56068 0.41954 0.0
H882 H 0.40335 0.49297 0.37197 0.0
H883 H 0.38284 0.51772 0.39239 0.0
H884 H 0.396 0.48278 0.40997 0.0
H885 H 0.48314 0.5786 0.34771 0.0
H886 H 0.49873 0.59529 0.3786 0.0
H887 H 0.46231 0.60384 0.3673 0.0
C888 C 0.05104 0.42827 0.7559 0.0
C889 C 0.0462 0.44944 0.73222 0.0
C890 C 0.0504 0.43695 0.78442 0.0
C891 C 0.04454 0.46749 0.78938 0.0
C892 C 0.03849 0.48869 0.76564 0.0
C893 C 0.03956 0.47944 0.73729 0.0
C894 C 0.05722 0.41373 0.80914 0.0
C895 C 0.03174 0.52132 0.77014 0.0
C896 C 0.0255 0.4817 0.8671 0.0
C897 C 0.05239 0.49155 0.8776 0.0
C898 C 0.02232 0.4748 0.83814 0.0
C899 C 0.04665 0.47754 0.81927 0.0
C900 C 0.07362 0.48828 0.82945 0.0
C901 C 0.0761 0.4953 0.85841 0.0
C902 C 0.99315 0.46365 0.828 0.0
C903 C 0.10013 0.49144 0.81001 0.0
H904 H 0.05655 0.40517 0.75207 0.0
H905 H 0.03556 0.49578 0.71901 0.0
H906 H 0.0776 0.42065 0.81976 0.0
H907 H 0.03978 0.41266 0.82582 0.0
H908 H 0.05978 0.39056 0.80175 0.0
H909 H 0.02518 0.53425 0.74968 0.0
H910 H 0.01408 0.52211 0.78642 0.0
H911 H 0.0511 0.53294 0.77876 0.0
H912 H 1.00709 0.47836 0.88172 0.0
H913 H 0.09679 0.50342 0.86612 0.0
H914 H 0.99445 0.43955 0.82287 0.0
H915 H 0.98681 0.4771 0.8078 0.0
H916 H 0.97588 0.46516 0.84463 0.0
H917 H 0.10575 0.46877 0.80309 0.0
H918 H 0.11922 0.50116 0.82096 0.0
H919 H 0.0956 0.50628 0.79009 0.0
C920 C 0.70775 0.94112 0.91376 0.0
C921 C 0.71276 0.9097 0.9154 0.0
C922 C 0.68264 0.95255 0.92595 0.0
C923 C 0.66192 0.93218 0.9403 0.0
C924 C 0.66677 0.90046 0.94198 0.0
C925 C 0.692 0.88964 0.92951 0.0
C926 C 0.67839 0.98653 0.92363 0.0
C927 C 0.64528 0.87789 0.95699 0.0
C928 C 0.61069 0.96319 0.99532 0.0
C929 C 0.58512 0.96708 0.97927 0.0
C930 C 0.6357 0.95174 0.98299 0.0
C931 C 0.63532 0.94405 0.95379 0.0
C932 C 0.60954 0.94781 0.9375 0.0
C933 C 0.58481 0.95919 0.95041 0.0
C934 C 0.66262 0.94801 1.0012 0.0
C935 C 0.60811 0.94004 0.9063 0.0
H936 H 0.72371 0.95692 0.90331 0.0
H937 H 0.69527 0.86531 0.93054 0.0
H938 H 0.65758 0.99184 0.91268 0.0
H939 H 0.67715 0.99477 0.94564 0.0
H940 H 0.69621 0.99932 0.91133 0.0
H941 H 0.6522 0.85398 0.95651 0.0
H942 H 0.64243 0.88292 0.97996 0.0
H943 H 0.6238 0.88003 0.94646 0.0
H944 H 0.61125 0.96921 0.0176 0.0
H945 H 0.56526 0.96219 0.93772 0.0
H946 H 0.68076 0.96209 0.99092 0.0
H947 H 0.66928 0.92393 1.00244 0.0
H948 H 0.65936 0.95472 0.02362 0.0
H949 H 0.62436 0.95416 0.89305 0.0
H950 H 0.58635 0.94383 0.89672 0.0
H951 H 0.61357 0.91585 0.90479 0.0
C952 C 0.75519 0.05371 0.43191 0.0
C953 C 0.74512 0.08276 0.43625 0.0
C954 C 0.78434 0.04676 0.43626 0.0
C955 C 0.80382 0.06922 0.44572 0.0
C956 C 0.79402 0.09873 0.4497 0.0
C957 C 0.7648 0.10523 0.44471 0.0
C958 C 0.79407 0.01503 0.4316 0.0
C959 C 0.81417 0.12312 0.46005 0.0
C960 C 0.86607 0.03446 0.48792 0.0
C961 C 0.88787 0.03581 0.46673 0.0
C962 C 0.83909 0.04707 0.48186 0.0
C963 C 0.83377 0.06076 0.45368 0.0
C964 C 0.85629 0.06343 0.43258 0.0
C965 C 0.88333 0.05102 0.4395 0.0
C966 C 0.81584 0.04423 0.50511 0.0
C967 C 0.85128 0.07762 0.40225 0.0
H968 H 0.74014 0.03607 0.42578 0.0
H969 H 0.75735 0.12792 0.44755 0.0
H970 H 0.81341 0.01619 0.41717 0.0
H971 H 0.80036 1.00325 0.45267 0.0
H972 H 0.77683 1.00107 0.42188 0.0
H973 H 0.80362 0.14547 0.46023 0.0
H974 H 0.82153 0.11616 0.48237 0.0
H975 H 0.83376 0.12596 0.44599 0.0
H976 H 0.87001 0.02268 0.50898 0.0
H977 H 0.90041 0.05171 0.42326 0.0
H978 H 0.79853 0.02798 0.49909 0.0
H979 H 0.80571 0.06653 0.50705 0.0
H980 H 0.82447 0.03598 0.52665 0.0
H981 H 0.83652 0.0625 0.39064 0.0
H982 H 0.8718 0.08119 0.3896 0.0
H983 H 0.84063 0.09982 0.40293 0.0
C984 C 0.18621 0.62369 0.10096 0.0
C985 C 0.20583 0.60313 0.11409 0.0
C986 C 0.161 0.61332 0.08751 0.0
C987 C 0.15519 0.58161 0.08724 0.0
C988 C 0.17472 0.56074 0.10073 0.0
C989 C 0.1998 0.57173 0.11392 0.0
C990 C 0.14067 0.63628 0.0734 0.0
C991 C 0.16928 0.52674 0.10092 0.0
C992 C 0.07851 0.55226 0.07426 0.0
C993 C 0.07997 0.54573 0.04506 0.0
C994 C 0.10268 0.56437 0.08815 0.0
C995 C 0.12895 0.57017 0.07247 0.0
C996 C 0.1304 0.56422 0.04285 0.0
C997 C 0.10591 0.55204 0.02951 0.0
C998 C 0.10025 0.57041 0.11977 0.0
C999 C 0.15799 0.5702 0.02536 0.0
H1000 H 0.19049 0.64798 0.10133 0.0
H1001 H 0.21502 0.55567 0.12363 0.0
H1002 H 0.13869 0.63299 0.04993 0.0
H1003 H 0.1187 0.63278 0.08315 0.0
H1004 H 0.14815 0.66014 0.07575 0.0
H1005 H 0.18621 0.51356 0.11295 0.0
H1006 H 0.14789 0.52033 0.11101 0.0
H1007 H 0.16866 0.51998 0.07831 0.0
H1008 H 0.05855 0.54749 0.08647 0.0
H1009 H 0.10725 0.54709 1.00695 0.0
H1010 H 0.10602 0.59461 0.12257 0.0
H1011 H 0.1158 0.55627 0.13276 0.0
H1012 H 0.0781 0.56528 0.12868 0.0
H1013 H 0.16535 0.59433 0.02609 0.0
H1014 H 0.15527 0.56534 1.0023 0.0
H1015 H 0.17543 0.55583 0.03495 0.0
C1016 C 0.24324 0.45602 0.57313 0.0
C1017 C 0.2262 0.44823 0.54963 0.0
C1018 C 0.27332 0.46051 0.57023 0.0
C1019 C 0.2868 0.45719 0.54314 0.0
C1020 C 0.26967 0.45037 0.51903 0.0
C1021 C 0.23955 0.44583 0.5226 0.0
C1022 C 0.29082 0.46751 0.59654 0.0
C1023 C 0.28325 0.44693 0.48974 0.0
C1024 C 0.36464 0.48752 0.5347 0.0
C1025 C 0.38023 0.46106 0.54173 0.0
C1026 C 0.33417 0.48654 0.53415 0.0
C1027 C 0.31899 0.45845 0.54087 0.0
C1028 C 0.33462 0.43156 0.54723 0.0
C1029 C 0.36498 0.43319 0.54749 0.0
C1030 C 0.31823 0.51566 0.52717 0.0
C1031 C 0.31927 0.40112 0.55447 0.0
H1032 H 0.23317 0.45743 0.5942 0.0
H1033 H 0.22645 0.4401 0.5043 0.0
H1034 H 0.30513 0.44825 0.60274 0.0
H1035 H 0.30498 0.48804 0.59146 0.0
H1036 H 0.27688 0.47138 0.61548 0.0
H1037 H 0.26675 0.44427 0.47264 0.0
H1038 H 0.2975 0.46702 0.48312 0.0
H1039 H 0.29702 0.42662 0.49108 0.0
H1040 H 0.3762 0.50915 0.53038 0.0
H1041 H 0.3768 0.41251 0.55223 0.0
H1042 H 0.306 0.52145 0.54661 0.0
H1043 H 0.30222 0.51262 0.50973 0.0
H1044 H 0.33315 0.53513 0.52016 0.0
H1045 H 0.30611 0.40194 0.57454 0.0
H1046 H 0.33461 0.38219 0.5578 0.0
H1047 H 0.30418 0.39598 0.53679 0.0
C1048 C 0.9237 0.71689 0.93965 0.0
C1049 C 0.90477 0.7142 0.91629 0.0
C1050 C 0.93853 0.69155 0.95195 0.0
C1051 C 0.93386 0.66265 0.94108 0.0
C1052 C 0.91441 0.65976 0.91775 0.0
C1053 C 0.90037 0.68561 0.90544 0.0
C1054 C 0.95949 0.69579 0.97637 0.0
C1055 C 0.90828 0.6293 0.90589 0.0
C1056 C 0.98931 0.60038 0.95409 0.0
C1057 C 0.97721 0.58268 0.97798 0.0
C1058 C 0.97578 0.62679 0.94226 0.0
C1059 C 0.94914 0.63537 0.95416 0.0
C1060 C 0.93683 0.61756 0.97827 0.0
C1061 C 0.95115 0.59167 0.99006 0.0
C1062 C 0.98995 0.64545 0.91694 0.0
C1063 C 0.90821 0.62548 0.99127 0.0
H1064 H 0.92737 0.73902 0.94788 0.0
H1065 H 0.88559 0.68342 0.88752 0.0
H1066 H 0.95255 0.68123 0.99604 0.0
H1067 H 0.98134 0.6885 0.97022 0.0
H1068 H 0.96115 0.71983 0.98197 0.0
H1069 H 0.89206 0.63074 0.88818 0.0
H1070 H 0.92856 0.62031 0.89739 0.0
H1071 H 0.90011 0.61261 0.92353 0.0
H1072 H 1.00948 0.59366 0.94469 0.0
H1073 H 0.9415 0.57799 1.00837 0.0
H1074 H 0.9931 0.66946 0.92221 0.0
H1075 H 0.97567 0.64557 0.89771 0.0
H1076 H 0.01129 0.63654 0.91106 0.0
H1077 H 0.90959 0.64879 0.99871 0.0
H1078 H 0.90151 0.60929 0.00995 0.0
H1079 H 0.89106 0.62537 0.97452 0.0
C1080 C 0.44454 0.78592 0.10191 0.0
C1081 C 0.41563 0.78649 0.11131 0.0
C1082 C 0.45902 0.81252 0.08993 0.0
C1083 C 0.44428 0.84038 0.08752 0.0
C1084 C 0.41521 0.84115 0.09729 0.0
C1085 C 0.40121 0.81418 0.10896 0.0
C1086 C 0.48992 0.81075 0.07948 0.0
C1087 C 0.39884 0.87046 0.09533 0.0
C1088 C 0.48739 0.91547 0.07868 0.0
C1089 C 0.48432 0.92372 0.04891 0.0
C1090 C 0.47477 0.88821 0.09151 0.0
C1091 C 0.45896 0.86864 0.07411 0.0
C1092 C 0.45635 0.87654 0.04394 0.0
C1093 C 0.46894 0.90403 0.03174 0.0
C1094 C 0.47784 0.88067 0.12379 0.0
C1095 C 0.43988 0.85616 0.02461 0.0
H1096 H 0.45568 0.76451 0.10346 0.0
H1097 H 0.37899 0.8148 0.11657 0.0
H1098 H 0.49127 0.81768 0.05587 0.0
H1099 H 0.5041 0.82681 0.09061 0.0
H1100 H 0.49847 0.78745 0.08338 0.0
H1101 H 0.3766 0.86734 0.10461 0.0
H1102 H 0.41074 0.8879 0.10703 0.0
H1103 H 0.39723 0.87953 0.07231 0.0
H1104 H 0.49917 0.93061 0.0921 0.0
H1105 H 0.46656 0.91017 1.0087 0.0
H1106 H 0.4876 0.85803 0.12807 0.0
H1107 H 0.45613 0.87935 0.1343 0.0
H1108 H 0.49147 0.89788 0.13414 0.0
H1109 H 0.4487 0.83291 0.02672 0.0
H1110 H 0.44092 0.86495 1.00139 0.0
H1111 H 0.41679 0.85408 0.03147 0.0
C1112 C 1.00478 0.23889 0.56533 0.0
C1113 C 0.03009 0.25349 0.55339 0.0
C1114 C 0.99774 0.20846 0.56057 0.0
C1115 C 0.01608 0.19239 0.54293 0.0
C1116 C 0.04078 0.20742 0.52958 0.0
C1117 C 0.04766 0.23759 0.53522 0.0
C1118 C 0.97138 0.19312 0.57544 0.0
C1119 C 0.06069 0.19121 0.51026 0.0
C1120 C 0.02362 0.1069 0.55502 0.0
C1121 C 1.0074 0.09644 0.53209 0.0
C1122 C 0.02535 0.13795 0.55962 0.0
C1123 C 0.01107 0.15918 0.54039 0.0
C1124 C 0.99385 0.14866 0.51774 0.0
C1125 C 0.99195 0.11728 0.51405 0.0
C1126 C 0.04339 0.14811 0.58445 0.0
C1127 C 0.97872 0.17063 0.4965 0.0
H1128 H 0.99065 0.25106 0.57885 0.0
H1129 H 0.06748 0.24827 0.52617 0.0
H1130 H 0.95754 0.18214 0.5595 0.0
H1131 H 0.97832 0.17488 0.5917 0.0
H1132 H 0.95815 0.20935 0.58667 0.0
H1133 H 0.07716 0.20697 0.4991 0.0
H1134 H 0.07214 0.17316 0.52345 0.0
H1135 H 0.04799 0.17996 0.49362 0.0
H1136 H 0.03542 0.09077 0.56914 0.0
H1137 H 0.97957 0.10925 0.49616 0.0
H1138 H 0.03077 0.16321 0.59753 0.0
H1139 H 0.06273 0.16144 0.57577 0.0
H1140 H 0.05084 0.12856 0.59897 0.0
H1141 H 0.96594 0.18681 0.50819 0.0
H1142 H 0.96405 0.15873 0.48185 0.0
H1143 H 0.99513 0.18428 0.48305 0.0
C1144 C 0.5654 0.28047 0.47535 0.0
C1145 C 0.5606 0.27097 0.4475 0.0
C1146 C 0.56017 0.31043 0.48159 0.0
C1147 C 0.54969 0.33132 0.45948 0.0
C1148 C 0.54469 0.3219 0.43134 0.0
C1149 C 0.55026 0.2918 0.42566 0.0
C1150 C 0.56569 0.31969 0.51189 0.0
C1151 C 0.53341 0.34358 0.40728 0.0
C1152 C 0.50968 0.39836 0.48458 0.0
C1153 C 0.53109 0.42168 0.48165 0.0
C1154 C 0.51532 0.36901 0.47687 0.0
C1155 C 0.54309 0.36276 0.46617 0.0
C1156 C 0.56472 0.38624 0.46279 0.0
C1157 C 0.55841 0.41553 0.4705 0.0
C1158 C 0.49165 0.34458 0.48056 0.0
C1159 C 0.59464 0.38027 0.45159 0.0
H1160 H 0.57304 0.26435 0.49241 0.0
H1161 H 0.54692 0.2847 0.40398 0.0
H1162 H 0.58109 0.33955 0.51108 0.0
H1163 H 0.54519 0.3268 0.52162 0.0
H1164 H 0.5747 0.30093 0.52636 0.0
H1165 H 0.53091 0.33272 0.38652 0.0
H1166 H 0.51207 0.35206 0.41361 0.0
H1167 H 0.54838 0.36369 0.40361 0.0
H1168 H 0.48844 0.40299 0.49302 0.0
H1169 H 0.57504 0.43346 0.46822 0.0
H1170 H 0.49846 0.32598 0.4965 0.0
H1171 H 0.48779 0.33442 0.45967 0.0
H1172 H 0.4709 0.35349 0.48816 0.0
H1173 H 0.60518 0.36306 0.4666 0.0
H1174 H 0.6087 0.40123 0.44937 0.0
H1175 H 0.59314 0.37074 0.43013 0.0
loop_
_geom_bond_atom_site_label_1
_geom_bond_atom_site_label_2
_geom_bond_distance
_geom_bond_site_symmetry_2
_ccdc_geom_bond_type
C0 C1 1.384 . S
C0 H13 0.947 . S
C0 C35 1.382 . S
C1 C0 1.384 . S
C1 C2 1.378 . S
C2 C1 1.378 . S
C2 C3 1.378 . S
C2 H14 0.952 . S
C3 C2 1.378 . S
C3 H15 0.950 . S
C3 C34 1.383 . S
H4 C23 0.947 . S
H5 C24 0.946 . S
H6 C26 0.953 . S
H7 C27 0.945 . S
H8 C29 0.952 . S
H9 C30 0.949 . S
H10 C32 0.950 . S
H11 C33 0.948 . S
H12 C35 0.951 . S
H13 C0 0.947 . S
H14 C2 0.952 . S
H15 C3 0.950 . S
N16 C19 1.382 . S
N16 C21 1.363 . S
N17 C19 1.371 . S
N17 C20 1.372 . S
N18 C20 1.361 . S
N18 C21 1.377 . S
C19 N16 1.382 . S
C19 N17 1.371 . S
C19 C22 1.480 . S
C20 N17 1.372 . S
C20 N18 1.361 . S
C20 C28 1.457 . S
C21 N16 1.363 . S
C21 N18 1.377 . S
C21 C34 1.479 . S
C22 C19 1.480 . S
C22 C23 1.383 . S
C22 C27 1.385 . S
C23 H4 0.947 . S
C23 C22 1.383 . S
C23 C24 1.388 . S
C24 H5 0.946 . S
C24 C23 1.388 . S
C24 C25 1.384 . S
C25 C24 1.384 . S
C25 C26 1.377 . S
C26 H6 0.953 . S
C26 C25 1.377 . S
C26 C27 1.369 . S
C27 H7 0.945 . S
C27 C22 1.385 . S
C27 C26 1.369 . S
C28 C20 1.457 . S
C28 C29 1.372 . S
C28 C33 1.364 . S
C29 H8 0.952 . S
C29 C28 1.372 . S
C29 C30 1.389 . S
C30 H9 0.949 . S
C30 C29 1.389 . S
C30 C31 1.387 . S
C31 C30 1.387 . S
C31 C32 1.372 . S
C32 H10 0.950 . S
C32 C31 1.372 . S
C32 C33 1.379 . S
C33 H11 0.948 . S
C33 C28 1.364 . S
C33 C32 1.379 . S
C34 C3 1.383 . S
C34 C21 1.479 . S
C34 C35 1.398 . S
C35 C0 1.382 . S
C35 H12 0.951 . S
C35 C34 1.398 . S
C36 C37 1.384 . S
C36 H49 0.947 . S
C36 C71 1.382 . S
C37 C36 1.384 . S
C37 C38 1.378 . S
C38 C37 1.378 . S
C38 C39 1.378 . S
C38 H50 0.952 . S
C39 C38 1.378 . S
C39 H51 0.950 . S
C39 C70 1.383 . S
H40 C59 0.947 . S
H41 C60 0.946 . S
H42 C62 0.953 . S
H43 C63 0.945 . S
H44 C65 0.952 . S
H45 C66 0.949 . S
H46 C68 0.950 . S
H47 C69 0.948 . S
H48 C71 0.951 . S
H49 C36 0.947 . S
H50 C38 0.952 . S
H51 C39 0.950 . S
N52 C55 1.382 . S
N52 C57 1.363 . S
N53 C55 1.371 . S
N53 C56 1.372 . S
N54 C56 1.361 . S
N54 C57 1.377 . S
C55 N52 1.382 . S
C55 N53 1.371 . S
C55 C58 1.480 . S
C56 N53 1.372 . S
C56 N54 1.361 . S
C56 C64 1.457 . S
C57 N52 1.363 . S
C57 N54 1.377 . S
C57 C70 1.479 . S
C58 C55 1.480 . S
C58 C59 1.383 . S
C58 C63 1.385 . S
C59 H40 0.947 . S
C59 C58 1.383 . S
C59 C60 1.388 . S
C60 H41 0.946 . S
C60 C59 1.388 . S
C60 C61 1.384 . S
C61 C60 1.384 . S
C61 C62 1.377 . S
C62 H42 0.953 . S
C62 C61 1.377 . S
C62 C63 1.369 . S
C63 H43 0.945 . S
C63 C58 1.385 . S
C63 C62 1.369 . S
C64 C56 1.457 . S
C64 C65 1.372 . S
C64 C69 1.364 . S
C65 H44 0.952 . S
C65 C64 1.372 . S
C65 C66 1.389 . S
C66 H45 0.949 . S
C66 C65 1.389 . S
C66 C67 1.387 . S
C67 C66 1.387 . S
C67 C68 1.372 . S
C68 H46 0.950 . S
C68 C67 1.372 . S
C68 C69 1.379 . S
C69 H47 0.948 . S
C69 C64 1.364 . S
C69 C68 1.379 . S
C70 C39 1.383 . S
C70 C57 1.479 . S
C70 C71 1.398 . S
C71 C36 1.382 . S
C71 H48 0.951 . S
C71 C70 1.398 . S
C72 C73 1.384 . S
C72 H85 0.947 . S
C72 C107 1.382 . S
C73 C72 1.384 . S
C73 C74 1.378 . S
C74 C73 1.378 . S
C74 C75 1.378 . S
C74 H86 0.952 . S
C75 C74 1.378 . S
C75 H87 0.950 . S
C75 C106 1.383 . S
H76 C95 0.947 . S
H77 C96 0.946 . S
H78 C98 0.953 . S
H79 C99 0.945 . S
H80 C101 0.952 . S
H81 C102 0.949 . S
H82 C104 0.950 . S
H83 C105 0.948 . S
H84 C107 0.951 . S
H85 C72 0.947 . S
H86 C74 0.952 . S
H87 C75 0.950 . S
N88 C91 1.382 . S
N88 C93 1.363 . S
N89 C91 1.371 . S
N89 C92 1.372 . S
N90 C92 1.361 . S
N90 C93 1.377 . S
C91 N88 1.382 . S
C91 N89 1.371 . S
C91 C94 1.480 . S
C92 N89 1.372 . S
C92 N90 1.361 . S
C92 C100 1.457 . S
C93 N88 1.363 . S
C93 N90 1.377 . S
C93 C106 1.479 . S
C94 C91 1.480 . S
C94 C95 1.383 . S
C94 C99 1.385 . S
C95 H76 0.947 . S
C95 C94 1.383 . S
C95 C96 1.388 . S
C96 H77 0.946 . S
C96 C95 1.388 . S
C96 C97 1.384 . S
C97 C96 1.384 . S
C97 C98 1.377 . S
C98 H78 0.953 . S
C98 C97 1.377 . S
C98 C99 1.369 . S
C99 H79 0.945 . S
C99 C94 1.385 . S
C99 C98 1.369 . S
C100 C92 1.457 . S
C100 C101 1.372 . S
C100 C105 1.364 . S
C101 H80 0.952 . S
C101 C100 1.372 . S
C101 C102 1.389 . S
C102 H81 0.949 . S
C102 C101 1.389 . S
C102 C103 1.387 . S
C103 C102 1.387 . S
C103 C104 1.372 . S
C104 H82 0.950 . S
C104 C103 1.372 . S
C104 C105 1.379 . S
C105 H83 0.948 . S
C105 C100 1.364 . S
C105 C104 1.379 . S
C106 C75 1.383 . S
C106 C93 1.479 . S
C106 C107 1.398 . S
C107 C72 1.382 . S
C107 H84 0.951 . S
C107 C106 1.398 . S
C108 C109 1.384 . S
C108 H121 0.947 . S
C108 C143 1.382 . S
C109 C108 1.384 . S
C109 C110 1.378 . S
C110 C109 1.378 . S
C110 C111 1.378 . S
C110 H122 0.952 . S
C111 C110 1.378 . S
C111 H123 0.950 . S
C111 C142 1.383 . S
H112 C131 0.947 . S
H113 C132 0.946 . S
H114 C134 0.953 . S
H115 C135 0.945 . S
H116 C137 0.952 . S
H117 C138 0.949 . S
H118 C140 0.950 . S
H119 C141 0.948 . S
H120 C143 0.951 . S
H121 C108 0.947 . S
H122 C110 0.952 . S
H123 C111 0.950 . S
N124 C127 1.382 . S
N124 C129 1.363 . S
N125 C127 1.371 . S
N125 C128 1.372 . S
N126 C128 1.361 . S
N126 C129 1.377 . S
C127 N124 1.382 . S
C127 N125 1.371 . S
C127 C130 1.480 . S
C128 N125 1.372 . S
C128 N126 1.361 . S
C128 C136 1.457 . S
C129 N124 1.363 . S
C129 N126 1.377 . S
C129 C142 1.479 . S
C130 C127 1.480 . S
C130 C131 1.383 . S
C130 C135 1.385 . S
C131 H112 0.947 . S
C131 C130 1.383 . S
C131 C132 1.388 . S
C132 H113 0.946 . S
C132 C131 1.388 . S
C132 C133 1.384 . S
C133 C132 1.384 . S
C133 C134 1.377 . S
C134 H114 0.953 . S
C134 C133 1.377 . S
C134 C135 1.369 . S
C135 H115 0.945 . S
C135 C130 1.385 . S
C135 C134 1.369 . S
C136 C128 1.457 . S
C136 C137 1.372 . S
C136 C141 1.364 . S
C137 H116 0.952 . S
C137 C136 1.372 . S
C137 C138 1.389 . S
C138 H117 0.949 . S
C138 C137 1.389 . S
C138 C139 1.387 . S
C139 C138 1.387 . S
C139 C140 1.372 . S
C140 H118 0.950 . S
C140 C139 1.372 . S
C140 C141 1.379 . S
C141 H119 0.948 . S
C141 C136 1.364 . S
C141 C140 1.379 . S
C142 C111 1.383 . S
C142 C129 1.479 . S
C142 C143 1.398 . S
C143 C108 1.382 . S
C143 H120 0.951 . S
C143 C142 1.398 . S
C144 C145 1.384 . S
C144 H157 0.947 . S
C144 C179 1.382 . S
C145 C144 1.384 . S
C145 C146 1.378 . S
C146 C145 1.378 . S
C146 C147 1.378 . S
C146 H158 0.952 . S
C147 C146 1.378 . S
C147 H159 0.950 . S
C147 C178 1.383 . S
H148 C167 0.947 . S
H149 C168 0.946 . S
H150 C170 0.953 . S
H151 C171 0.945 . S
H152 C173 0.952 . S
H153 C174 0.949 . S
H154 C176 0.950 . S
H155 C177 0.948 . S
H156 C179 0.951 . S
H157 C144 0.947 . S
H158 C146 0.952 . S
H159 C147 0.950 . S
N160 C163 1.382 . S
N160 C165 1.363 . S
N161 C163 1.371 . S
N161 C164 1.372 . S
N162 C164 1.361 . S
N162 C165 1.377 . S
C163 N160 1.382 . S
C163 N161 1.371 . S
C163 C166 1.480 . S
C164 N161 1.372 . S
C164 N162 1.361 . S
C164 C172 1.457 . S
C165 N160 1.363 . S
C165 N162 1.377 . S
C165 C178 1.479 . S
C166 C163 1.480 . S
C166 C167 1.383 . S
C166 C171 1.385 . S
C167 H148 0.947 . S
C167 C166 1.383 . S
C167 C168 1.388 . S
C168 H149 0.946 . S
C168 C167 1.388 . S
C168 C169 1.384 . S
C169 C168 1.384 . S
C169 C170 1.377 . S
C170 H150 0.953 . S
C170 C169 1.377 . S
C170 C171 1.369 . S
C171 H151 0.945 . S
C171 C166 1.385 . S
C171 C170 1.369 . S
C172 C164 1.457 . S
C172 C173 1.372 . S
C172 C177 1.364 . S
C173 H152 0.952 . S
C173 C172 1.372 . S
C173 C174 1.389 . S
C174 H153 0.949 . S
C174 C173 1.389 . S
C174 C175 1.387 . S
C175 C174 1.387 . S
C175 C176 1.372 . S
C176 H154 0.950 . S
C176 C175 1.372 . S
C176 C177 1.379 . S
C177 H155 0.948 . S
C177 C172 1.364 . S
C177 C176 1.379 . S
C178 C147 1.383 . S
C178 C165 1.479 . S
C178 C179 1.398 . S
C179 C144 1.382 . S
C179 H156 0.951 . S
C179 C178 1.398 . S
C180 C181 1.384 . S
C180 H193 0.947 . S
C180 C215 1.382 . S
C181 C180 1.384 . S
C181 C182 1.378 . S
C182 C181 1.378 . S
C182 C183 1.378 . S
C182 H194 0.952 . S
C183 C182 1.378 . S
C183 H195 0.950 . S
C183 C214 1.383 . S
H184 C203 0.947 . S
H185 C204 0.946 . S
H186 C206 0.953 . S
H187 C207 0.945 . S
H188 C209 0.952 . S
H189 C210 0.949 . S
H190 C212 0.950 . S
H191 C213 0.948 . S
H192 C215 0.951 . S
H193 C180 0.947 . S
H194 C182 0.952 . S
H195 C183 0.950 . S
N196 C199 1.382 . S
N196 C201 1.363 . S
N197 C199 1.371 . S
N197 C200 1.372 . S
N198 C200 1.361 . S
N198 C201 1.377 . S
C199 N196 1.382 . S
C199 N197 1.371 . S
C199 C202 1.480 . S
C200 N197 1.372 . S
C200 N198 1.361 . S
C200 C208 1.457 . S
C201 N196 1.363 . S
C201 N198 1.377 . S
C201 C214 1.479 . S
C202 C199 1.480 . S
C202 C203 1.383 . S
C202 C207 1.385 . S
C203 H184 0.947 . S
C203 C202 1.383 . S
C203 C204 1.388 . S
C204 H185 0.946 . S
C204 C203 1.388 . S
C204 C205 1.384 . S
C205 C204 1.384 . S
C205 C206 1.377 . S
C206 H186 0.953 . S
C206 C205 1.377 . S
C206 C207 1.369 . S
C207 H187 0.945 . S
C207 C202 1.385 . S
C207 C206 1.369 . S
C208 C200 1.457 . S
C208 C209 1.372 . S
C208 C213 1.364 . S
C209 H188 0.952 . S
C209 C208 1.372 . S
C209 C210 1.389 . S
C210 H189 0.949 . S
C210 C209 1.389 . S
C210 C211 1.387 . S
C211 C210 1.387 . S
C211 C212 1.372 . S
C212 H190 0.950 . S
C212 C211 1.372 . S
C212 C213 1.379 . S
C213 H191 0.948 . S
C213 C208 1.364 . S
C213 C212 1.379 . S
C214 C183 1.383 . S
C214 C201 1.479 . S
C214 C215 1.398 . S
C215 C180 1.382 . S
C215 H192 0.951 . S
C215 C214 1.398 . S
C216 C217 1.384 . S
C216 H229 0.947 . S
C216 C251 1.382 . S
C217 C216 1.384 . S
C217 C218 1.378 . S
C218 C217 1.378 . S
C218 C219 1.378 . S
C218 H230 0.952 . S
C219 C218 1.378 . S
C219 H231 0.950 . S
C219 C250 1.383 . S
H220 C239 0.947 . S
H221 C240 0.946 . S
H222 C242 0.953 . S
H223 C243 0.945 . S
H224 C245 0.952 . S
H225 C246 0.949 . S
H226 C248 0.950 . S
H227 C249 0.948 . S
H228 C251 0.951 . S
H229 C216 0.947 . S
H230 C218 0.952 . S
H231 C219 0.950 . S
N232 C235 1.382 . S
N232 C237 1.363 . S
N233 C235 1.371 . S
N233 C236 1.372 . S
N234 C236 1.361 . S
N234 C237 1.377 . S
C235 N232 1.382 . S
C235 N233 1.371 . S
C235 C238 1.480 . S
C236 N233 1.372 . S
C236 N234 1.361 . S
C236 C244 1.457 . S
C237 N232 1.363 . S
C237 N234 1.377 . S
C237 C250 1.479 . S
C238 C235 1.480 . S
C238 C239 1.383 . S
C238 C243 1.385 . S
C239 H220 0.947 . S
C239 C238 1.383 . S
C239 C240 1.388 . S
C240 H221 0.946 . S
C240 C239 1.388 . S
C240 C241 1.384 . S
C241 C240 1.384 . S
C241 C242 1.377 . S
C242 H222 0.953 . S
C242 C241 1.377 . S
C242 C243 1.369 . S
C243 H223 0.945 . S
C243 C238 1.385 . S
C243 C242 1.369 . S
C244 C236 1.457 . S
C244 C245 1.372 . S
C244 C249 1.364 . S
C245 H224 0.952 . S
C245 C244 1.372 . S
C245 C246 1.389 . S
C246 H225 0.949 . S
C246 C245 1.389 . S
C246 C247 1.387 . S
C247 C246 1.387 . S
C247 C248 1.372 . S
C248 H226 0.950 . S
C248 C247 1.372 . S
C248 C249 1.379 . S
C249 H227 0.948 . S
C249 C244 1.364 . S
C249 C248 1.379 . S
C250 C219 1.383 . S
C250 C237 1.479 . S
C250 C251 1.398 . S
C251 C216 1.382 . S
C251 H228 0.951 . S
C251 C250 1.398 . S
C252 C253 1.384 . S
C252 H265 0.947 . S
C252 C287 1.382 . S
C253 C252 1.384 . S
C253 C254 1.378 . S
C254 C253 1.378 . S
C254 C255 1.378 . S
C254 H266 0.952 . S
C255 C254 1.378 . S
C255 H267 0.950 . S
C255 C286 1.383 . S
H256 C275 0.947 . S
H257 C276 0.946 . S
H258 C278 0.953 . S
H259 C279 0.945 . S
H260 C281 0.952 . S
H261 C282 0.949 . S
H262 C284 0.950 . S
H263 C285 0.948 . S
H264 C287 0.951 . S
H265 C252 0.947 . S
H266 C254 0.952 . S
H267 C255 0.950 . S
N268 C271 1.382 . S
N268 C273 1.363 . S
N269 C271 1.371 . S
N269 C272 1.372 . S
N270 C272 1.361 . S
N270 C273 1.377 . S
C271 N268 1.382 . S
C271 N269 1.371 . S
C271 C274 1.480 . S
C272 N269 1.372 . S
C272 N270 1.361 . S
C272 C280 1.457 . S
C273 N268 1.363 . S
C273 N270 1.377 . S
C273 C286 1.479 . S
C274 C271 1.480 . S
C274 C275 1.383 . S
C274 C279 1.385 . S
C275 H256 0.947 . S
C275 C274 1.383 . S
C275 C276 1.388 . S
C276 H257 0.946 . S
C276 C275 1.388 . S
C276 C277 1.384 . S
C277 C276 1.384 . S
C277 C278 1.377 . S
C278 H258 0.953 . S
C278 C277 1.377 . S
C278 C279 1.369 . S
C279 H259 0.945 . S
C279 C274 1.385 . S
C279 C278 1.369 . S
C280 C272 1.457 . S
C280 C281 1.372 . S
C280 C285 1.364 . S
C281 H260 0.952 . S
C281 C280 1.372 . S
C281 C282 1.389 . S
C282 H261 0.949 . S
C282 C281 1.389 . S
C282 C283 1.387 . S
C283 C282 1.387 . S
C283 C284 1.372 . S
C284 H262 0.950 . S
C284 C283 1.372 . S
C284 C285 1.379 . S
C285 H263 0.948 . S
C285 C280 1.364 . S
C285 C284 1.379 . S
C286 C255 1.383 . S
C286 C273 1.479 . S
C286 C287 1.398 . S
C287 C252 1.382 . S
C287 H264 0.951 . S
C287 C286 1.398 . S
Co288 N293 2.057 . S
Co288 O305 2.021 . S
Co288 O308 2.062 . S
Co288 O312 2.117 1_545 S
Co288 O313 2.020 1_545 S
C289 O309 1.259 1_655 S
C289 O312 1.258 . S
Co290 N299 2.057 . S
Co290 O306 2.117 1_565 S
Co290 O307 2.020 1_565 S
Co290 O309 2.021 . S
Co290 O314 2.062 . S
C291 N293 1.316 . S
C291 N294 1.347 . S
C291 H296 0.931 . S
C292 N293 1.375 1_565 S
C292 C295 1.350 1_565 S
C292 H297 0.930 . S
N293 Co288 2.057 . S
N293 C291 1.316 . S
N293 C292 1.375 1_545 S
N294 C291 1.347 . S
N294 C295 1.373 . S
C295 C292 1.350 1_545 S
C295 N294 1.373 . S
C295 H316 0.931 1_545 S
H296 C291 0.931 . S
H297 C292 0.930 . S
C298 O305 1.259 1_455 S
C298 O306 1.258 . S
N299 Co290 2.057 . S
N299 C300 1.316 . S
N299 C301 1.375 1_565 S
C300 N299 1.316 . S
C300 N302 1.347 . S
C300 H311 0.931 . S
C301 N299 1.375 1_545 S
C301 C303 1.350 1_545 S
C301 H310 0.930 . S
N302 C300 1.347 . S
N302 C303 1.373 . S
C303 C301 1.350 1_565 S
C303 N302 1.373 . S
C303 H317 0.931 1_565 S
C304 O307 1.256 . S
C304 O308 1.255 1_455 S
O305 Co288 2.021 . S
O305 C298 1.259 1_655 S
O306 Co290 2.117 1_545 S
O306 C298 1.258 . S
O307 Co290 2.020 1_545 S
O307 C304 1.256 . S
O308 Co288 2.062 . S
O308 C304 1.255 1_655 S
O309 C289 1.259 1_455 S
O309 Co290 2.021 . S
H310 C301 0.930 . S
H311 C300 0.931 . S
O312 Co288 2.117 1_565 S
O312 C289 1.258 . S
O313 Co288 2.020 1_565 S
O313 C315 1.256 . S
O314 Co290 2.062 . S
O314 C315 1.255 1_455 S
C315 O313 1.256 . S
C315 O314 1.255 1_655 S
H316 C295 0.931 1_565 S
H317 C303 0.931 1_545 S
Co318 N323 2.057 . S
Co318 O335 2.021 1_565 S
Co318 O338 2.062 . S
Co318 O342 2.117 . S
Co318 O343 2.020 1_565 S
C319 O339 1.259 . S
C319 O342 1.258 1_554 S
Co320 N329 2.057 . S
Co320 O336 2.117 . S
Co320 O337 2.020 1_545 S
Co320 O339 2.021 1_545 S
Co320 O344 2.062 . S
C321 N323 1.316 . S
C321 N324 1.347 . S
C321 H326 0.931 1_565 S
C322 N323 1.375 . S
C322 C325 1.350 . S
C322 H327 0.930 . S
N323 Co318 2.057 . S
N323 C321 1.316 . S
N323 C322 1.375 . S
N324 C321 1.347 . S
N324 C325 1.373 . S
C325 C322 1.350 . S
C325 N324 1.373 . S
C325 H346 0.931 . S
H326 C321 0.931 1_545 S
H327 C322 0.930 . S
C328 O335 1.259 . S
C328 O336 1.258 1_556 S
N329 Co320 2.057 . S
N329 C330 1.316 . S
N329 C331 1.375 . S
C330 N329 1.316 . S
C330 N332 1.347 . S
C330 H341 0.931 1_545 S
C331 N329 1.375 . S
C331 C333 1.350 . S
C331 H340 0.930 . S
N332 C330 1.347 . S
N332 C333 1.373 . S
C333 C331 1.350 . S
C333 N332 1.373 . S
C333 H347 0.931 . S
C334 O337 1.256 1_556 S
C334 O338 1.255 . S
O335 Co318 2.021 1_545 S
O335 C328 1.259 . S
O336 Co320 2.117 . S
O336 C328 1.258 1_554 S
O337 Co320 2.020 1_565 S
O337 C334 1.256 1_554 S
O338 Co318 2.062 . S
O338 C334 1.255 . S
O339 C319 1.259 . S
O339 Co320 2.021 1_565 S
H340 C331 0.930 . S
H341 C330 0.931 1_565 S
O342 Co318 2.117 . S
O342 C319 1.258 1_556 S
O343 Co318 2.020 1_545 S
O343 C345 1.256 1_556 S
O344 Co320 2.062 . S
O344 C345 1.255 . S
C345 O343 1.256 1_554 S
C345 O344 1.255 . S
H346 C325 0.931 . S
H347 C333 0.931 . S
Co348 N353 2.057 . S
Co348 O365 2.021 . S
Co348 O368 2.062 . S
Co348 O372 2.117 . S
Co348 O373 2.020 . S
C349 O369 1.259 . S
C349 O372 1.258 . S
Co350 N359 2.057 . S
Co350 O366 2.117 . S
Co350 O367 2.020 . S
Co350 O369 2.021 . S
Co350 O374 2.062 . S
C351 N353 1.316 . S
C351 N354 1.347 . S
C351 H356 0.931 . S
C352 N353 1.375 . S
C352 C355 1.350 . S
C352 H357 0.930 . S
N353 Co348 2.057 . S
N353 C351 1.316 . S
N353 C352 1.375 . S
N354 C351 1.347 . S
N354 C355 1.373 . S
C355 C352 1.350 . S
C355 N354 1.373 . S
C355 H376 0.931 . S
H356 C351 0.931 . S
H357 C352 0.930 . S
C358 O365 1.259 . S
C358 O366 1.258 . S
N359 Co350 2.057 . S
N359 C360 1.316 . S
N359 C361 1.375 . S
C360 N359 1.316 . S
C360 N362 1.347 . S
C360 H371 0.931 . S
C361 N359 1.375 . S
C361 C363 1.350 . S
C361 H370 0.930 . S
N362 C360 1.347 . S
N362 C363 1.373 . S
C363 C361 1.350 . S
C363 N362 1.373 . S
C363 H377 0.931 . S
C364 O367 1.256 . S
C364 O368 1.255 . S
O365 Co348 2.021 . S
O365 C358 1.259 . S
O366 Co350 2.117 . S
O366 C358 1.258 . S
O367 Co350 2.020 . S
O367 C364 1.256 . S
O368 Co348 2.062 . S
O368 C364 1.255 . S
O369 C349 1.259 . S
O369 Co350 2.021 . S
H370 C361 0.930 . S
H371 C360 0.931 . S
O372 Co348 2.117 . S
O372 C349 1.258 . S
O373 Co348 2.020 . S
O373 C375 1.256 . S
O374 Co350 2.062 . S
O374 C375 1.255 . S
C375 O373 1.256 . S
C375 O374 1.255 . S
H376 C355 0.931 . S
H377 C363 0.931 . S
Co378 N383 2.057 . S
Co378 O395 2.021 . S
Co378 O398 2.062 . S
Co378 O402 2.117 1_455 S
Co378 O403 2.020 1_455 S
C379 O399 1.259 1_556 S
C379 O402 1.258 . S
Co380 N389 2.057 . S
Co380 O396 2.117 1_655 S
Co380 O397 2.020 1_655 S
Co380 O399 2.021 . S
Co380 O404 2.062 . S
C381 N383 1.316 . S
C381 N384 1.347 . S
C381 H386 0.931 . S
C382 N383 1.375 1_655 S
C382 C385 1.350 1_655 S
C382 H387 0.930 . S
N383 Co378 2.057 . S
N383 C381 1.316 . S
N383 C382 1.375 1_455 S
N384 C381 1.347 . S
N384 C385 1.373 . S
C385 C382 1.350 1_455 S
C385 N384 1.373 . S
C385 H406 0.931 1_455 S
H386 C381 0.931 . S
H387 C382 0.930 . S
C388 O395 1.259 1_554 S
C388 O396 1.258 . S
N389 Co380 2.057 . S
N389 C390 1.316 . S
N389 C391 1.375 1_655 S
C390 N389 1.316 . S
C390 N392 1.347 . S
C390 H401 0.931 . S
C391 N389 1.375 1_455 S
C391 C393 1.350 1_455 S
C391 H400 0.930 . S
N392 C390 1.347 . S
N392 C393 1.373 . S
C393 C391 1.350 1_655 S
C393 N392 1.373 . S
C393 H407 0.931 1_655 S
C394 O397 1.256 . S
C394 O398 1.255 1_554 S
O395 Co378 2.021 . S
O395 C388 1.259 1_556 S
O396 Co380 2.117 1_455 S
O396 C388 1.258 . S
O397 Co380 2.020 1_455 S
O397 C394 1.256 . S
O398 Co378 2.062 . S
O398 C394 1.255 1_556 S
O399 C379 1.259 1_554 S
O399 Co380 2.021 . S
H400 C391 0.930 . S
H401 C390 0.931 . S
O402 Co378 2.117 1_655 S
O402 C379 1.258 . S
O403 Co378 2.020 1_655 S
O403 C405 1.256 . S
O404 Co380 2.062 . S
O404 C405 1.255 1_554 S
C405 O403 1.256 . S
C405 O404 1.255 1_556 S
H406 C385 0.931 1_655 S
H407 C393 0.931 1_455 S
C408 C409 1.391 . S
C408 C410 1.394 . S
C408 H424 0.931 . S
C409 C408 1.391 . S
C409 C413 1.376 . S
C410 C408 1.394 . S
C410 C411 1.369 . S
C410 C414 1.531 . S
C411 C410 1.369 . S
C411 C412 1.410 . S
C411 C419 1.503 . S
C412 C411 1.410 . S
C412 C413 1.392 . S
C412 C415 1.532 . S
C413 C409 1.376 . S
C413 C412 1.392 . S
C413 H425 0.929 . S
C414 C410 1.531 . S
C414 H426 0.960 . S
C414 H427 0.962 . S
C414 H428 0.960 . S
C415 C412 1.532 . S
C415 H429 0.956 1_455 S
C415 H430 0.962 . S
C415 H431 0.944 1_455 S
C416 C417 1.370 . S
C416 C418 1.363 . S
C416 H432 0.931 1_545 S
C417 C416 1.370 . S
C417 C421 1.408 . S
C418 C416 1.363 . S
C418 C419 1.370 . S
C418 C422 1.524 1_545 S
C419 C411 1.503 . S
C419 C418 1.370 . S
C419 C420 1.403 . S
C420 C419 1.403 . S
C420 C421 1.404 . S
C420 C423 1.539 . S
C421 C417 1.408 . S
C421 C420 1.404 . S
C421 H433 0.930 . S
C422 C418 1.524 1_565 S
C422 H434 0.956 1_565 S
C422 H435 0.961 . S
C422 H436 0.961 . S
C423 C420 1.539 . S
C423 H437 0.958 . S
C423 H438 0.961 1_455 S
C423 H439 0.960 . S
H424 C408 0.931 . S
H425 C413 0.929 . S
H426 C414 0.960 . S
H427 C414 0.962 . S
H428 C414 0.960 . S
H429 C415 0.956 1_655 S
H430 C415 0.962 . S
H431 C415 0.944 1_655 S
H432 C416 0.931 1_565 S
H433 C421 0.930 . S
H434 C422 0.956 1_545 S
H435 C422 0.961 . S
H436 C422 0.961 . S
H437 C423 0.958 . S
H438 C423 0.961 1_655 S
H439 C423 0.960 . S
C440 C441 1.391 . S
C440 C442 1.394 . S
C440 H456 0.931 . S
C441 C440 1.391 . S
C441 C445 1.376 . S
C442 C440 1.394 . S
C442 C443 1.369 . S
C442 C446 1.531 . S
C443 C442 1.369 . S
C443 C444 1.410 . S
C443 C451 1.503 . S
C444 C443 1.410 . S
C444 C445 1.392 . S
C444 C447 1.511 . S
C445 C441 1.376 . S
C445 C444 1.392 . S
C445 H457 0.929 . S
C446 C442 1.531 . S
C446 H458 0.960 . S
C446 H459 0.962 . S
C446 H460 0.960 . S
C447 C444 1.511 . S
C447 H461 0.961 . S
C447 H462 0.961 . S
C447 H463 0.961 . S
C448 C449 1.370 . S
C448 C450 1.363 . S
C448 H464 0.931 . S
C449 C448 1.370 . S
C449 C453 1.408 . S
C450 C448 1.363 . S
C450 C451 1.370 . S
C450 C454 1.524 . S
C451 C443 1.503 . S
C451 C450 1.370 . S
C451 C452 1.403 . S
C452 C451 1.403 . S
C452 C453 1.404 . S
C452 C455 1.539 . S
C453 C449 1.408 . S
C453 C452 1.404 . S
C453 H465 0.930 . S
C454 C450 1.524 . S
C454 H466 0.956 . S
C454 H467 0.961 . S
C454 H468 0.961 . S
C455 C452 1.539 . S
C455 H469 0.958 1_565 S
C455 H470 0.961 . S
C455 H471 0.960 . S
H456 C440 0.931 . S
H457 C445 0.929 . S
H458 C446 0.960 . S
H459 C446 0.962 . S
H460 C446 0.960 . S
H461 C447 0.961 . S
H462 C447 0.961 . S
H463 C447 0.961 . S
H464 C448 0.931 . S
H465 C453 0.930 . S
H466 C454 0.956 . S
H467 C454 0.961 . S
H468 C454 0.961 . S
H469 C455 0.958 1_545 S
H470 C455 0.961 . S
H471 C455 0.960 . S
C472 C473 1.391 . S
C472 C474 1.394 . S
C472 H488 0.931 . S
C473 C472 1.391 . S
C473 C477 1.376 . S
C474 C472 1.394 . S
C474 C475 1.369 . S
C474 C478 1.531 . S
C475 C474 1.369 . S
C475 C476 1.410 . S
C475 C483 1.503 . S
C476 C475 1.410 . S
C476 C477 1.392 . S
C476 C479 1.511 . S
C477 C473 1.376 . S
C477 C476 1.392 . S
C477 H489 0.929 . S
C478 C474 1.531 . S
C478 H490 0.960 . S
C478 H491 0.962 . S
C478 H492 0.960 . S
C479 C476 1.511 . S
C479 H493 0.961 . S
C479 H494 0.961 . S
C479 H495 0.961 . S
C480 C481 1.370 . S
C480 C482 1.363 . S
C480 H496 0.931 . S
C481 C480 1.370 . S
C481 C485 1.408 . S
C482 C480 1.363 . S
C482 C483 1.370 . S
C482 C486 1.524 . S
C483 C475 1.503 . S
C483 C482 1.370 . S
C483 C484 1.403 . S
C484 C483 1.403 . S
C484 C485 1.404 . S
C484 C487 1.539 . S
C485 C481 1.408 . S
C485 C484 1.404 . S
C485 H497 0.930 . S
C486 C482 1.524 . S
C486 H498 0.956 . S
C486 H499 0.961 . S
C486 H500 0.961 . S
C487 C484 1.539 . S
C487 H501 0.958 . S
C487 H502 0.961 . S
C487 H503 0.960 . S
H488 C472 0.931 . S
H489 C477 0.929 . S
H490 C478 0.960 . S
H491 C478 0.962 . S
H492 C478 0.960 . S
H493 C479 0.961 . S
H494 C479 0.961 . S
H495 C479 0.961 . S
H496 C480 0.931 . S
H497 C485 0.930 . S
H498 C486 0.956 . S
H499 C486 0.961 . S
H500 C486 0.961 . S
H501 C487 0.958 . S
H502 C487 0.961 . S
H503 C487 0.960 . S
C504 C505 1.391 . S
C504 C506 1.394 . S
C504 H520 0.931 . S
C505 C504 1.391 . S
C505 C509 1.376 . S
C506 C504 1.394 . S
C506 C507 1.369 . S
C506 C510 1.531 . S
C507 C506 1.369 . S
C507 C508 1.410 . S
C507 C515 1.503 . S
C508 C507 1.410 . S
C508 C509 1.392 . S
C508 C511 1.511 . S
C509 C505 1.376 . S
C509 C508 1.392 . S
C509 H521 0.929 . S
C510 C506 1.531 . S
C510 H522 0.960 . S
C510 H523 0.962 . S
C510 H524 0.960 . S
C511 C508 1.511 . S
C511 H525 0.961 . S
C511 H526 0.961 . S
C511 H527 0.961 . S
C512 C513 1.370 . S
C512 C514 1.363 . S
C512 H528 0.931 . S
C513 C512 1.370 . S
C513 C517 1.408 . S
C514 C512 1.363 . S
C514 C515 1.370 . S
C514 C518 1.524 1_655 S
C515 C507 1.503 . S
C515 C514 1.370 . S
C515 C516 1.403 . S
C516 C515 1.403 . S
C516 C517 1.404 . S
C516 C519 1.539 . S
C517 C513 1.408 . S
C517 C516 1.404 . S
C517 H529 0.930 . S
C518 C514 1.524 1_455 S
C518 H530 0.956 . S
C518 H531 0.961 1_455 S
C518 H532 0.961 . S
C519 C516 1.539 . S
C519 H533 0.958 . S
C519 H534 0.961 . S
C519 H535 0.960 . S
H520 C504 0.931 . S
H521 C509 0.929 . S
H522 C510 0.960 . S
H523 C510 0.962 . S
H524 C510 0.960 . S
H525 C511 0.961 . S
H526 C511 0.961 . S
H527 C511 0.961 . S
H528 C512 0.931 . S
H529 C517 0.930 . S
H530 C518 0.956 . S
H531 C518 0.961 1_655 S
H532 C518 0.961 . S
H533 C519 0.958 . S
H534 C519 0.961 . S
H535 C519 0.960 . S
C536 C537 1.391 . S
C536 C538 1.394 . S
C536 H552 0.931 . S
C537 C536 1.391 . S
C537 C541 1.376 . S
C538 C536 1.394 . S
C538 C539 1.369 . S
C538 C542 1.531 1_545 S
C539 C538 1.369 . S
C539 C540 1.410 . S
C539 C547 1.503 . S
C540 C539 1.410 . S
C540 C541 1.392 . S
C540 C543 1.511 . S
C541 C537 1.376 . S
C541 C540 1.392 . S
C541 H553 0.929 . S
C542 C538 1.531 1_565 S
C542 H554 0.960 . S
C542 H555 0.962 . S
C542 H556 0.960 . S
C543 C540 1.511 . S
C543 H557 0.961 . S
C543 H558 0.961 . S
C543 H559 0.927 1_554 S
C544 C545 1.370 . S
C544 C546 1.363 . S
C544 H560 0.931 . S
C545 C544 1.370 . S
C545 C549 1.408 . S
C546 C544 1.363 . S
C546 C547 1.370 . S
C546 C550 1.524 . S
C547 C539 1.503 . S
C547 C546 1.370 . S
C547 C548 1.403 . S
C548 C547 1.403 . S
C548 C549 1.404 . S
C548 C551 1.539 1_554 S
C549 C545 1.408 . S
C549 C548 1.404 . S
C549 H561 0.930 1_554 S
C550 C546 1.524 . S
C550 H562 0.956 . S
C550 H563 0.961 . S
C550 H564 0.961 . S
C551 C548 1.539 1_556 S
C551 H565 0.958 . S
C551 H566 0.961 . S
C551 H567 0.960 . S
H552 C536 0.931 . S
H553 C541 0.929 . S
H554 C542 0.960 . S
H555 C542 0.962 . S
H556 C542 0.960 . S
H557 C543 0.961 . S
H558 C543 0.961 . S
H559 C543 0.927 1_556 S
H560 C544 0.931 . S
H561 C549 0.930 1_556 S
H562 C550 0.956 . S
H563 C550 0.961 . S
H564 C550 0.961 . S
H565 C551 0.958 . S
H566 C551 0.961 . S
H567 C551 0.960 . S
C568 C569 1.391 . S
C568 C570 1.394 . S
C568 H584 0.931 . S
C569 C568 1.391 . S
C569 C573 1.376 . S
C570 C568 1.394 . S
C570 C571 1.369 . S
C570 C574 1.531 . S
C571 C570 1.369 . S
C571 C572 1.410 . S
C571 C579 1.503 . S
C572 C571 1.410 . S
C572 C573 1.392 . S
C572 C575 1.511 . S
C573 C569 1.376 . S
C573 C572 1.392 . S
C573 H585 0.929 . S
C574 C570 1.531 . S
C574 H586 0.960 . S
C574 H587 0.962 . S
C574 H588 0.960 . S
C575 C572 1.511 . S
C575 H589 0.961 . S
C575 H590 0.961 . S
C575 H591 0.961 . S
C576 C577 1.370 . S
C576 C578 1.363 . S
C576 H592 0.931 . S
C577 C576 1.370 . S
C577 C581 1.408 . S
C578 C576 1.363 . S
C578 C579 1.370 . S
C578 C582 1.524 . S
C579 C571 1.503 . S
C579 C578 1.370 . S
C579 C580 1.403 . S
C580 C579 1.403 . S
C580 C581 1.404 . S
C580 C583 1.539 . S
C581 C577 1.408 . S
C581 C580 1.404 . S
C581 H593 0.930 . S
C582 C578 1.524 . S
C582 H594 0.956 . S
C582 H595 0.961 . S
C582 H596 0.961 . S
C583 C580 1.539 . S
C583 H597 0.958 . S
C583 H598 0.961 . S
C583 H599 0.960 . S
H584 C568 0.931 . S
H585 C573 0.929 . S
H586 C574 0.960 . S
H587 C574 0.962 . S
H588 C574 0.960 . S
H589 C575 0.961 . S
H590 C575 0.961 . S
H591 C575 0.961 . S
H592 C576 0.931 . S
H593 C581 0.930 . S
H594 C582 0.956 . S
H595 C582 0.961 . S
H596 C582 0.961 . S
H597 C583 0.958 . S
H598 C583 0.961 . S
H599 C583 0.960 . S
C600 C601 1.391 . S
C600 C602 1.394 . S
C600 H616 0.931 . S
C601 C600 1.391 . S
C601 C605 1.376 . S
C602 C600 1.394 . S
C602 C603 1.369 . S
C602 C606 1.531 . S
C603 C602 1.369 . S
C603 C604 1.410 . S
C603 C611 1.503 . S
C604 C603 1.410 . S
C604 C605 1.392 . S
C604 C607 1.511 . S
C605 C601 1.376 . S
C605 C604 1.392 . S
C605 H617 0.929 . S
C606 C602 1.531 . S
C606 H618 0.960 . S
C606 H619 0.962 1_556 S
C606 H620 0.956 1_556 S
C607 C604 1.511 . S
C607 H621 0.961 . S
C607 H622 0.961 . S
C607 H623 0.961 . S
C608 C609 1.370 . S
C608 C610 1.363 . S
C608 H624 0.931 . S
C609 C608 1.370 . S
C609 C613 1.408 . S
C610 C608 1.363 . S
C610 C611 1.370 . S
C610 C614 1.524 . S
C611 C603 1.503 . S
C611 C610 1.370 . S
C611 C612 1.403 . S
C612 C611 1.403 . S
C612 C613 1.404 . S
C612 C615 1.539 . S
C613 C609 1.408 . S
C613 C612 1.404 . S
C613 H625 0.930 . S
C614 C610 1.524 . S
C614 H626 0.956 . S
C614 H627 0.961 . S
C614 H628 0.961 . S
C615 C612 1.539 . S
C615 H629 0.958 . S
C615 H630 0.961 . S
C615 H631 0.960 . S
H616 C600 0.931 . S
H617 C605 0.929 . S
H618 C606 0.960 . S
H619 C606 0.962 1_554 S
H620 C606 0.956 1_554 S
H621 C607 0.961 . S
H622 C607 0.961 . S
H623 C607 0.961 . S
H624 C608 0.931 . S
H625 C613 0.930 . S
H626 C614 0.956 . S
H627 C614 0.961 . S
H628 C614 0.961 . S
H629 C615 0.958 . S
H630 C615 0.961 . S
H631 C615 0.960 . S
C632 C633 1.391 . S
C632 C634 1.394 . S
C632 H648 0.931 . S
C633 C632 1.391 . S
C633 C637 1.376 . S
C634 C632 1.394 . S
C634 C635 1.369 . S
C634 C638 1.531 . S
C635 C634 1.369 . S
C635 C636 1.410 . S
C635 C643 1.503 . S
C636 C635 1.410 . S
C636 C637 1.392 . S
C636 C639 1.511 . S
C637 C633 1.376 . S
C637 C636 1.392 . S
C637 H649 0.929 . S
C638 C634 1.531 . S
C638 H650 0.960 . S
C638 H651 0.962 . S
C638 H652 0.960 . S
C639 C636 1.511 . S
C639 H653 0.961 . S
C639 H654 0.961 . S
C639 H655 0.961 . S
C640 C641 1.370 . S
C640 C642 1.363 . S
C640 H656 0.931 . S
C641 C640 1.370 . S
C641 C645 1.408 . S
C642 C640 1.363 . S
C642 C643 1.370 . S
C642 C646 1.524 . S
C643 C635 1.503 . S
C643 C642 1.370 . S
C643 C644 1.403 . S
C644 C643 1.403 . S
C644 C645 1.404 . S
C644 C647 1.539 . S
C645 C641 1.408 . S
C645 C644 1.404 . S
C645 H657 0.930 . S
C646 C642 1.524 . S
C646 H658 0.956 . S
C646 H659 0.961 . S
C646 H660 0.961 . S
C647 C644 1.539 . S
C647 H661 0.958 . S
C647 H662 0.961 . S
C647 H663 0.960 . S
H648 C632 0.931 . S
H649 C637 0.929 . S
H650 C638 0.960 . S
H651 C638 0.962 . S
H652 C638 0.960 . S
H653 C639 0.961 . S
H654 C639 0.961 . S
H655 C639 0.961 . S
H656 C640 0.931 . S
H657 C645 0.930 . S
H658 C646 0.956 . S
H659 C646 0.961 . S
H660 C646 0.961 . S
H661 C647 0.958 . S
H662 C647 0.961 . S
H663 C647 0.960 . S
C664 C665 1.391 . S
C664 C666 1.394 . S
C664 H680 0.931 . S
C665 C664 1.391 . S
C665 C669 1.376 . S
C666 C664 1.394 . S
C666 C667 1.369 . S
C666 C670 1.531 . S
C667 C666 1.369 . S
C667 C668 1.410 . S
C667 C675 1.503 . S
C668 C667 1.410 . S
C668 C669 1.392 . S
C668 C671 1.511 . S
C669 C665 1.376 . S
C669 C668 1.392 . S
C669 H681 0.929 . S
C670 C666 1.531 . S
C670 H682 0.960 . S
C670 H683 0.962 1_455 S
C670 H684 0.960 . S
C671 C668 1.511 . S
C671 H685 0.961 . S
C671 H686 0.961 . S
C671 H687 0.961 . S
C672 C673 1.370 . S
C672 C674 1.363 . S
C672 H688 0.931 1_554 S
C673 C672 1.370 . S
C673 C677 1.408 . S
C674 C672 1.363 . S
C674 C675 1.370 . S
C674 C678 1.524 . S
C675 C667 1.503 . S
C675 C674 1.370 . S
C675 C676 1.403 . S
C676 C675 1.403 . S
C676 C677 1.404 . S
C676 C679 1.539 . S
C677 C673 1.408 . S
C677 C676 1.404 . S
C677 H689 0.930 . S
C678 C674 1.524 . S
C678 H690 0.956 . S
C678 H691 0.961 1_554 S
C678 H692 0.961 1_554 S
C679 C676 1.539 . S
C679 H693 0.958 . S
C679 H694 0.961 . S
C679 H695 0.960 . S
H680 C664 0.931 . S
H681 C669 0.929 . S
H682 C670 0.960 . S
H683 C670 0.962 1_655 S
H684 C670 0.960 . S
H685 C671 0.961 . S
H686 C671 0.961 . S
H687 C671 0.961 . S
H688 C672 0.931 1_556 S
H689 C677 0.930 . S
H690 C678 0.956 . S
H691 C678 0.961 1_556 S
H692 C678 0.961 1_556 S
H693 C679 0.958 . S
H694 C679 0.961 . S
H695 C679 0.960 . S
C696 C697 1.391 . S
C696 C698 1.394 . S
C696 H712 0.931 . S
C697 C696 1.391 . S
C697 C701 1.376 . S
C698 C696 1.394 . S
C698 C699 1.369 . S
C698 C702 1.531 . S
C699 C698 1.369 . S
C699 C700 1.410 . S
C699 C707 1.503 . S
C700 C699 1.410 . S
C700 C701 1.392 . S
C700 C703 1.511 . S
C701 C697 1.376 . S
C701 C700 1.392 . S
C701 H713 0.929 . S
C702 C698 1.531 . S
C702 H714 0.960 . S
C702 H715 0.962 . S
C702 H716 0.961 . S
C703 C700 1.511 . S
C703 H717 0.961 . S
C703 H718 0.961 . S
C703 H719 0.961 . S
C704 C705 1.370 . S
C704 C706 1.363 . S
C704 H720 0.931 . S
C705 C704 1.370 . S
C705 C709 1.408 . S
C706 C704 1.363 . S
C706 C707 1.370 . S
C706 C710 1.524 . S
C707 C699 1.503 . S
C707 C706 1.370 . S
C707 C708 1.403 . S
C708 C707 1.403 . S
C708 C709 1.404 . S
C708 C711 1.539 1_556 S
C709 C705 1.408 . S
C709 C708 1.404 . S
C709 H721 0.930 1_556 S
C710 C706 1.524 . S
C710 H722 0.956 . S
C710 H723 0.961 . S
C710 H724 0.961 . S
C711 C708 1.539 1_554 S
C711 H725 0.958 . S
C711 H726 0.961 . S
C711 H727 0.960 1_554 S
H712 C696 0.931 . S
H713 C701 0.929 . S
H714 C702 0.960 . S
H715 C702 0.962 . S
H716 C702 0.961 . S
H717 C703 0.961 . S
H718 C703 0.961 . S
H719 C703 0.961 . S
H720 C704 0.931 . S
H721 C709 0.930 1_554 S
H722 C710 0.956 . S
H723 C710 0.961 . S
H724 C710 0.961 . S
H725 C711 0.958 . S
H726 C711 0.961 . S
H727 C711 0.960 1_556 S
C728 C729 1.391 . S
C728 C730 1.394 . S
C728 H744 0.931 . S
C729 C728 1.391 . S
C729 C733 1.376 . S
C730 C728 1.394 . S
C730 C731 1.369 . S
C730 C734 1.531 . S
C731 C730 1.369 . S
C731 C732 1.410 . S
C731 C739 1.503 . S
C732 C731 1.410 . S
C732 C733 1.392 . S
C732 C735 1.511 1_655 S
C733 C729 1.376 . S
C733 C732 1.392 . S
C733 H745 0.929 . S
C734 C730 1.531 . S
C734 H746 0.960 . S
C734 H747 0.962 . S
C734 H748 0.960 . S
C735 C732 1.511 1_455 S
C735 H749 0.961 . S
C735 H750 0.961 . S
C735 H751 0.961 . S
C736 C737 1.370 . S
C736 C738 1.363 . S
C736 H752 0.931 . S
C737 C736 1.370 . S
C737 C741 1.408 . S
C738 C736 1.363 . S
C738 C739 1.370 . S
C738 C742 1.524 . S
C739 C731 1.503 . S
C739 C738 1.370 . S
C739 C740 1.403 . S
C740 C739 1.403 . S
C740 C741 1.404 . S
C740 C743 1.539 1_655 S
C741 C737 1.408 . S
C741 C740 1.404 . S
C741 H753 0.930 1_655 S
C742 C738 1.524 . S
C742 H754 0.956 . S
C742 H755 0.961 . S
C742 H756 0.961 . S
C743 C740 1.539 1_455 S
C743 H757 0.958 . S
C743 H758 0.961 . S
C743 H759 0.960 . S
H744 C728 0.931 . S
H745 C733 0.929 . S
H746 C734 0.960 . S
H747 C734 0.962 . S
H748 C734 0.960 . S
H749 C735 0.961 . S
H750 C735 0.961 . S
H751 C735 0.961 . S
H752 C736 0.931 . S
H753 C741 0.930 1_455 S
H754 C742 0.956 . S
H755 C742 0.961 . S
H756 C742 0.961 . S
H757 C743 0.958 . S
H758 C743 0.961 . S
H759 C743 0.960 . S
C760 C761 1.391 . S
C760 C762 1.394 . S
C760 H776 0.931 . S
C761 C760 1.391 . S
C761 C765 1.376 . S
C762 C760 1.394 . S
C762 C763 1.369 . S
C762 C766 1.531 . S
C763 C762 1.369 . S
C763 C764 1.410 . S
C763 C771 1.503 . S
C764 C763 1.410 . S
C764 C765 1.392 . S
C764 C767 1.511 . S
C765 C761 1.376 . S
C765 C764 1.392 . S
C765 H777 0.929 . S
C766 C762 1.531 . S
C766 H778 0.960 . S
C766 H779 0.962 . S
C766 H780 0.960 . S
C767 C764 1.511 . S
C767 H781 0.961 . S
C767 H782 0.961 . S
C767 H783 0.961 . S
C768 C769 1.370 . S
C768 C770 1.363 . S
C768 H784 0.931 . S
C769 C768 1.370 . S
C769 C773 1.408 . S
C770 C768 1.363 . S
C770 C771 1.370 . S
C770 C774 1.524 . S
C771 C763 1.503 . S
C771 C770 1.370 . S
C771 C772 1.403 . S
C772 C771 1.403 . S
C772 C773 1.404 . S
C772 C775 1.539 . S
C773 C769 1.408 . S
C773 C772 1.404 . S
C773 H785 0.930 . S
C774 C770 1.524 . S
C774 H786 0.956 . S
C774 H787 0.961 . S
C774 H788 0.961 . S
C775 C772 1.539 . S
C775 H789 0.958 . S
C775 H790 0.961 . S
C775 H791 0.960 . S
H776 C760 0.931 . S
H777 C765 0.929 . S
H778 C766 0.960 . S
H779 C766 0.962 . S
H780 C766 0.960 . S
H781 C767 0.961 . S
H782 C767 0.961 . S
H783 C767 0.961 . S
H784 C768 0.931 . S
H785 C773 0.930 . S
H786 C774 0.956 . S
H787 C774 0.961 . S
H788 C774 0.961 . S
H789 C775 0.958 . S
H790 C775 0.961 . S
H791 C775 0.960 . S
C792 C793 1.391 . S
C792 C794 1.394 . S
C792 H808 0.931 . S
C793 C792 1.391 . S
C793 C797 1.376 . S
C794 C792 1.394 . S
C794 C795 1.369 . S
C794 C798 1.531 . S
C795 C794 1.369 . S
C795 C796 1.410 . S
C795 C803 1.503 . S
C796 C795 1.410 . S
C796 C797 1.392 . S
C796 C799 1.535 . S
C797 C793 1.376 . S
C797 C796 1.392 . S
C797 H809 0.929 . S
C798 C794 1.531 . S
C798 H810 0.960 1_565 S
C798 H811 0.962 . S
C798 H812 0.960 1_565 S
C799 C796 1.535 . S
C799 H813 0.955 1_655 S
C799 H814 0.963 . S
C799 H815 0.941 1_655 S
C800 C801 1.370 . S
C800 C802 1.363 . S
C800 H816 0.931 . S
C801 C800 1.370 . S
C801 C805 1.408 . S
C802 C800 1.363 . S
C802 C803 1.370 . S
C802 C806 1.524 . S
C803 C795 1.503 . S
C803 C802 1.370 . S
C803 C804 1.403 . S
C804 C803 1.403 . S
C804 C805 1.404 . S
C804 C807 1.539 1_565 S
C805 C801 1.408 . S
C805 C804 1.404 . S
C805 H817 0.930 1_565 S
C806 C802 1.524 . S
C806 H818 0.956 . S
C806 H819 0.961 . S
C806 H820 0.961 . S
C807 C804 1.539 1_545 S
C807 H821 0.958 . S
C807 H822 0.961 1_655 S
C807 H823 0.960 . S
H808 C792 0.931 . S
H809 C797 0.929 . S
H810 C798 0.960 1_545 S
H811 C798 0.962 . S
H812 C798 0.960 1_545 S
H813 C799 0.955 1_455 S
H814 C799 0.963 . S
H815 C799 0.941 1_455 S
H816 C800 0.931 . S
H817 C805 0.930 1_545 S
H818 C806 0.956 . S
H819 C806 0.961 . S
H820 C806 0.961 . S
H821 C807 0.958 . S
H822 C807 0.961 1_455 S
H823 C807 0.960 . S
C824 C825 1.391 . S
C824 C826 1.394 . S
C824 H840 0.931 . S
C825 C824 1.391 . S
C825 C829 1.376 . S
C826 C824 1.394 . S
C826 C827 1.369 . S
C826 C830 1.531 . S
C827 C826 1.369 . S
C827 C828 1.410 . S
C827 C835 1.503 . S
C828 C827 1.410 . S
C828 C829 1.392 . S
C828 C831 1.511 . S
C829 C825 1.376 . S
C829 C828 1.392 . S
C829 H841 0.929 . S
C830 C826 1.531 . S
C830 H842 0.960 . S
C830 H843 0.962 . S
C830 H844 0.960 . S
C831 C828 1.511 . S
C831 H845 0.961 . S
C831 H846 0.961 . S
C831 H847 0.961 . S
C832 C833 1.370 . S
C832 C834 1.363 . S
C832 H848 0.931 . S
C833 C832 1.370 . S
C833 C837 1.408 . S
C834 C832 1.363 . S
C834 C835 1.370 . S
C834 C838 1.524 . S
C835 C827 1.503 . S
C835 C834 1.370 . S
C835 C836 1.403 . S
C836 C835 1.403 . S
C836 C837 1.404 . S
C836 C839 1.539 . S
C837 C833 1.408 . S
C837 C836 1.404 . S
C837 H849 0.930 . S
C838 C834 1.524 . S
C838 H850 0.956 . S
C838 H851 0.961 . S
C838 H852 0.961 . S
C839 C836 1.539 . S
C839 H853 0.958 1_545 S
C839 H854 0.961 . S
C839 H855 0.960 . S
H840 C824 0.931 . S
H841 C829 0.929 . S
H842 C830 0.960 . S
H843 C830 0.962 . S
H844 C830 0.960 . S
H845 C831 0.961 . S
H846 C831 0.961 . S
H847 C831 0.961 . S
H848 C832 0.931 . S
H849 C837 0.930 . S
H850 C838 0.956 . S
H851 C838 0.961 . S
H852 C838 0.961 . S
H853 C839 0.958 1_565 S
H854 C839 0.961 . S
H855 C839 0.960 . S
C856 C857 1.391 . S
C856 C858 1.394 . S
C856 H872 0.931 . S
C857 C856 1.391 . S
C857 C861 1.376 . S
C858 C856 1.394 . S
C858 C859 1.369 . S
C858 C862 1.531 . S
C859 C858 1.369 . S
C859 C860 1.410 . S
C859 C867 1.503 . S
C860 C859 1.410 . S
C860 C861 1.392 . S
C860 C863 1.511 . S
C861 C857 1.376 . S
C861 C860 1.392 . S
C861 H873 0.929 . S
C862 C858 1.531 . S
C862 H874 0.960 . S
C862 H875 0.962 . S
C862 H876 0.960 . S
C863 C860 1.511 . S
C863 H877 0.961 . S
C863 H878 0.961 . S
C863 H879 0.961 . S
C864 C865 1.370 . S
C864 C866 1.363 . S
C864 H880 0.931 . S
C865 C864 1.370 . S
C865 C869 1.408 . S
C866 C864 1.363 . S
C866 C867 1.370 . S
C866 C870 1.524 . S
C867 C859 1.503 . S
C867 C866 1.370 . S
C867 C868 1.403 . S
C868 C867 1.403 . S
C868 C869 1.404 . S
C868 C871 1.539 . S
C869 C865 1.408 . S
C869 C868 1.404 . S
C869 H881 0.930 . S
C870 C866 1.524 . S
C870 H882 0.956 . S
C870 H883 0.961 . S
C870 H884 0.961 . S
C871 C868 1.539 . S
C871 H885 0.958 . S
C871 H886 0.961 . S
C871 H887 0.960 . S
H872 C856 0.931 . S
H873 C861 0.929 . S
H874 C862 0.960 . S
H875 C862 0.962 . S
H876 C862 0.960 . S
H877 C863 0.961 . S
H878 C863 0.961 . S
H879 C863 0.961 . S
H880 C864 0.931 . S
H881 C869 0.930 . S
H882 C870 0.956 . S
H883 C870 0.961 . S
H884 C870 0.961 . S
H885 C871 0.958 . S
H886 C871 0.961 . S
H887 C871 0.960 . S
C888 C889 1.391 . S
C888 C890 1.394 . S
C888 H904 0.931 . S
C889 C888 1.391 . S
C889 C893 1.376 . S
C890 C888 1.394 . S
C890 C891 1.369 . S
C890 C894 1.531 . S
C891 C890 1.369 . S
C891 C892 1.410 . S
C891 C899 1.503 . S
C892 C891 1.410 . S
C892 C893 1.392 . S
C892 C895 1.511 . S
C893 C889 1.376 . S
C893 C892 1.392 . S
C893 H905 0.929 . S
C894 C890 1.531 . S
C894 H906 0.960 . S
C894 H907 0.962 . S
C894 H908 0.960 . S
C895 C892 1.511 . S
C895 H909 0.961 . S
C895 H910 0.961 . S
C895 H911 0.961 . S
C896 C897 1.370 . S
C896 C898 1.363 . S
C896 H912 0.931 . S
C897 C896 1.370 . S
C897 C901 1.408 . S
C898 C896 1.363 . S
C898 C899 1.370 . S
C898 C902 1.524 . S
C899 C891 1.503 . S
C899 C898 1.370 . S
C899 C900 1.403 . S
C900 C899 1.403 . S
C900 C901 1.404 . S
C900 C903 1.539 . S
C901 C897 1.408 . S
C901 C900 1.404 . S
C901 H913 0.930 . S
C902 C898 1.524 . S
C902 H914 0.948 1_455 S
C902 H915 0.961 . S
C902 H916 0.958 . S
C903 C900 1.539 . S
C903 H917 0.958 . S
C903 H918 0.961 . S
C903 H919 0.960 . S
H904 C888 0.931 . S
H905 C893 0.929 . S
H906 C894 0.960 . S
H907 C894 0.962 . S
H908 C894 0.960 . S
H909 C895 0.961 . S
H910 C895 0.961 . S
H911 C895 0.961 . S
H912 C896 0.931 . S
H913 C901 0.930 . S
H914 C902 0.948 1_655 S
H915 C902 0.961 . S
H916 C902 0.958 . S
H917 C903 0.958 . S
H918 C903 0.961 . S
H919 C903 0.960 . S
C920 C921 1.391 . S
C920 C922 1.394 . S
C920 H936 0.931 . S
C921 C920 1.391 . S
C921 C925 1.376 . S
C922 C920 1.394 . S
C922 C923 1.369 . S
C922 C926 1.531 1_565 S
C923 C922 1.369 . S
C923 C924 1.410 . S
C923 C931 1.503 . S
C924 C923 1.410 . S
C924 C925 1.392 . S
C924 C927 1.511 . S
C925 C921 1.376 . S
C925 C924 1.392 . S
C925 H937 0.929 . S
C926 C922 1.531 1_545 S
C926 H938 0.960 . S
C926 H939 0.962 . S
C926 H940 0.960 . S
C927 C924 1.511 . S
C927 H941 0.961 . S
C927 H942 0.961 . S
C927 H943 0.961 . S
C928 C929 1.370 . S
C928 C930 1.363 . S
C928 H944 0.931 1_556 S
C929 C928 1.370 . S
C929 C933 1.408 . S
C930 C928 1.363 . S
C930 C931 1.370 . S
C930 C934 1.524 1_556 S
C931 C923 1.503 . S
C931 C930 1.370 . S
C931 C932 1.403 . S
C932 C931 1.403 . S
C932 C933 1.404 . S
C932 C935 1.539 . S
C933 C929 1.408 . S
C933 C932 1.404 . S
C933 H945 0.930 . S
C934 C930 1.524 1_554 S
C934 H946 0.956 . S
C934 H947 0.961 . S
C934 H948 0.961 . S
C935 C932 1.539 . S
C935 H949 0.958 . S
C935 H950 0.961 . S
C935 H951 0.960 . S
H936 C920 0.931 . S
H937 C925 0.929 . S
H938 C926 0.960 . S
H939 C926 0.962 . S
H940 C926 0.960 . S
H941 C927 0.961 . S
H942 C927 0.961 . S
H943 C927 0.961 . S
H944 C928 0.931 1_554 S
H945 C933 0.930 . S
H946 C934 0.956 . S
H947 C934 0.961 . S
H948 C934 0.961 . S
H949 C935 0.958 . S
H950 C935 0.961 . S
H951 C935 0.960 . S
C952 C953 1.391 . S
C952 C954 1.394 . S
C952 H968 0.931 . S
C953 C952 1.391 . S
C953 C957 1.376 . S
C954 C952 1.394 . S
C954 C955 1.369 . S
C954 C958 1.531 . S
C955 C954 1.369 . S
C955 C956 1.410 . S
C955 C963 1.503 . S
C956 C955 1.410 . S
C956 C957 1.392 . S
C956 C959 1.511 . S
C957 C953 1.376 . S
C957 C956 1.392 . S
C957 H969 0.929 . S
C958 C954 1.531 . S
C958 H970 0.960 . S
C958 H971 0.962 . S
C958 H972 0.960 . S
C959 C956 1.511 . S
C959 H973 0.961 . S
C959 H974 0.961 . S
C959 H975 0.961 . S
C960 C961 1.370 . S
C960 C962 1.363 . S
C960 H976 0.931 . S
C961 C960 1.370 . S
C961 C965 1.408 . S
C962 C960 1.363 . S
C962 C963 1.370 . S
C962 C966 1.524 . S
C963 C955 1.503 . S
C963 C962 1.370 . S
C963 C964 1.403 . S
C964 C963 1.403 . S
C964 C965 1.404 . S
C964 C967 1.539 . S
C965 C961 1.408 . S
C965 C964 1.404 . S
C965 H977 0.930 . S
C966 C962 1.524 . S
C966 H978 0.956 . S
C966 H979 0.961 . S
C966 H980 0.961 . S
C967 C964 1.539 . S
C967 H981 0.958 . S
C967 H982 0.961 . S
C967 H983 0.960 . S
H968 C952 0.931 . S
H969 C957 0.929 . S
H970 C958 0.960 . S
H971 C958 0.962 . S
H972 C958 0.960 . S
H973 C959 0.961 . S
H974 C959 0.961 . S
H975 C959 0.961 . S
H976 C960 0.931 . S
H977 C965 0.930 . S
H978 C966 0.956 . S
H979 C966 0.961 . S
H980 C966 0.961 . S
H981 C967 0.958 . S
H982 C967 0.961 . S
H983 C967 0.960 . S
C984 C985 1.391 . S
C984 C986 1.394 . S
C984 H1000 0.931 . S
C985 C984 1.391 . S
C985 C989 1.376 . S
C986 C984 1.394 . S
C986 C987 1.369 . S
C986 C990 1.531 . S
C987 C986 1.369 . S
C987 C988 1.410 . S
C987 C995 1.503 . S
C988 C987 1.410 . S
C988 C989 1.392 . S
C988 C991 1.511 . S
C989 C985 1.376 . S
C989 C988 1.392 . S
C989 H1001 0.929 . S
C990 C986 1.531 . S
C990 H1002 0.960 . S
C990 H1003 0.962 . S
C990 H1004 0.960 . S
C991 C988 1.511 . S
C991 H1005 0.961 . S
C991 H1006 0.961 . S
C991 H1007 0.961 . S
C992 C993 1.370 . S
C992 C994 1.363 . S
C992 H1008 0.931 . S
C993 C992 1.370 . S
C993 C997 1.408 . S
C994 C992 1.363 . S
C994 C995 1.370 . S
C994 C998 1.524 . S
C995 C987 1.503 . S
C995 C994 1.370 . S
C995 C996 1.403 . S
C996 C995 1.403 . S
C996 C997 1.404 . S
C996 C999 1.539 1_554 S
C997 C993 1.408 . S
C997 C996 1.404 . S
C997 H1009 0.930 1_554 S
C998 C994 1.524 . S
C998 H1010 0.956 . S
C998 H1011 0.961 . S
C998 H1012 0.961 . S
C999 C996 1.539 1_556 S
C999 H1013 0.958 . S
C999 H1014 0.961 . S
C999 H1015 0.960 . S
H1000 C984 0.931 . S
H1001 C989 0.929 . S
H1002 C990 0.960 . S
H1003 C990 0.962 . S
H1004 C990 0.960 . S
H1005 C991 0.961 . S
H1006 C991 0.961 . S
H1007 C991 0.961 . S
H1008 C992 0.931 . S
H1009 C997 0.930 1_556 S
H1010 C998 0.956 . S
H1011 C998 0.961 . S
H1012 C998 0.961 . S
H1013 C999 0.958 . S
H1014 C999 0.961 . S
H1015 C999 0.960 . S
C1016 C1017 1.391 . S
C1016 C1018 1.394 . S
C1016 H1032 0.931 . S
C1017 C1016 1.391 . S
C1017 C1021 1.376 . S
C1018 C1016 1.394 . S
C1018 C1019 1.369 . S
C1018 C1022 1.531 . S
C1019 C1018 1.369 . S
C1019 C1020 1.410 . S
C1019 C1027 1.503 . S
C1020 C1019 1.410 . S
C1020 C1021 1.392 . S
C1020 C1023 1.511 . S
C1021 C1017 1.376 . S
C1021 C1020 1.392 . S
C1021 H1033 0.929 . S
C1022 C1018 1.531 . S
C1022 H1034 0.960 . S
C1022 H1035 0.962 . S
C1022 H1036 0.960 . S
C1023 C1020 1.511 . S
C1023 H1037 0.961 . S
C1023 H1038 0.961 . S
C1023 H1039 0.961 . S
C1024 C1025 1.370 . S
C1024 C1026 1.363 . S
C1024 H1040 0.931 . S
C1025 C1024 1.370 . S
C1025 C1029 1.408 . S
C1026 C1024 1.363 . S
C1026 C1027 1.370 . S
C1026 C1030 1.524 . S
C1027 C1019 1.503 . S
C1027 C1026 1.370 . S
C1027 C1028 1.403 . S
C1028 C1027 1.403 . S
C1028 C1029 1.404 . S
C1028 C1031 1.539 . S
C1029 C1025 1.408 . S
C1029 C1028 1.404 . S
C1029 H1041 0.930 . S
C1030 C1026 1.524 . S
C1030 H1042 0.956 . S
C1030 H1043 0.961 . S
C1030 H1044 0.961 . S
C1031 C1028 1.539 . S
C1031 H1045 0.958 . S
C1031 H1046 0.961 . S
C1031 H1047 0.960 . S
H1032 C1016 0.931 . S
H1033 C1021 0.929 . S
H1034 C1022 0.960 . S
H1035 C1022 0.962 . S
H1036 C1022 0.960 . S
H1037 C1023 0.961 . S
H1038 C1023 0.961 . S
H1039 C1023 0.961 . S
H1040 C1024 0.931 . S
H1041 C1029 0.930 . S
H1042 C1030 0.956 . S
H1043 C1030 0.961 . S
H1044 C1030 0.961 . S
H1045 C1031 0.958 . S
H1046 C1031 0.961 . S
H1047 C1031 0.960 . S
C1048 C1049 1.391 . S
C1048 C1050 1.394 . S
C1048 H1064 0.931 . S
C1049 C1048 1.391 . S
C1049 C1053 1.376 . S
C1050 C1048 1.394 . S
C1050 C1051 1.369 . S
C1050 C1054 1.531 1_556 S
C1051 C1050 1.369 . S
C1051 C1052 1.410 . S
C1051 C1059 1.503 . S
C1052 C1051 1.410 . S
C1052 C1053 1.392 . S
C1052 C1055 1.511 . S
C1053 C1049 1.376 . S
C1053 C1052 1.392 . S
C1053 H1065 0.929 . S
C1054 C1050 1.531 1_554 S
C1054 H1066 0.960 . S
C1054 H1067 0.962 . S
C1054 H1068 0.960 . S
C1055 C1052 1.511 . S
C1055 H1069 0.961 . S
C1055 H1070 0.961 . S
C1055 H1071 0.961 . S
C1056 C1057 1.370 . S
C1056 C1058 1.363 . S
C1056 H1072 0.931 1_655 S
C1057 C1056 1.370 . S
C1057 C1061 1.408 . S
C1058 C1056 1.363 . S
C1058 C1059 1.370 . S
C1058 C1062 1.524 1_655 S
C1059 C1051 1.503 . S
C1059 C1058 1.370 . S
C1059 C1060 1.403 . S
C1060 C1059 1.403 . S
C1060 C1061 1.404 . S
C1060 C1063 1.539 . S
C1061 C1057 1.408 . S
C1061 C1060 1.404 . S
C1061 H1073 0.930 . S
C1062 C1058 1.524 1_455 S
C1062 H1074 0.956 . S
C1062 H1075 0.961 1_455 S
C1062 H1076 0.961 . S
C1063 C1060 1.539 . S
C1063 H1077 0.958 1_556 S
C1063 H1078 0.961 . S
C1063 H1079 0.960 . S
H1064 C1048 0.931 . S
H1065 C1053 0.929 . S
H1066 C1054 0.960 . S
H1067 C1054 0.962 . S
H1068 C1054 0.960 . S
H1069 C1055 0.961 . S
H1070 C1055 0.961 . S
H1071 C1055 0.961 . S
H1072 C1056 0.931 1_455 S
H1073 C1061 0.930 . S
H1074 C1062 0.956 . S
H1075 C1062 0.961 1_655 S
H1076 C1062 0.961 . S
H1077 C1063 0.958 1_554 S
H1078 C1063 0.961 . S
H1079 C1063 0.960 . S
C1080 C1081 1.391 . S
C1080 C1082 1.394 . S
C1080 H1096 0.931 . S
C1081 C1080 1.391 . S
C1081 C1085 1.376 . S
C1082 C1080 1.394 . S
C1082 C1083 1.369 . S
C1082 C1086 1.531 . S
C1083 C1082 1.369 . S
C1083 C1084 1.410 . S
C1083 C1091 1.503 . S
C1084 C1083 1.410 . S
C1084 C1085 1.392 . S
C1084 C1087 1.511 . S
C1085 C1081 1.376 . S
C1085 C1084 1.392 . S
C1085 H1097 0.929 . S
C1086 C1082 1.531 . S
C1086 H1098 0.960 . S
C1086 H1099 0.962 . S
C1086 H1100 0.960 . S
C1087 C1084 1.511 . S
C1087 H1101 0.961 . S
C1087 H1102 0.961 . S
C1087 H1103 0.961 . S
C1088 C1089 1.370 . S
C1088 C1090 1.363 . S
C1088 H1104 0.931 . S
C1089 C1088 1.370 . S
C1089 C1093 1.408 . S
C1090 C1088 1.363 . S
C1090 C1091 1.370 . S
C1090 C1094 1.524 . S
C1091 C1083 1.503 . S
C1091 C1090 1.370 . S
C1091 C1092 1.403 . S
C1092 C1091 1.403 . S
C1092 C1093 1.404 . S
C1092 C1095 1.539 1_554 S
C1093 C1089 1.408 . S
C1093 C1092 1.404 . S
C1093 H1105 0.930 1_554 S
C1094 C1090 1.524 . S
C1094 H1106 0.956 . S
C1094 H1107 0.961 . S
C1094 H1108 0.961 . S
C1095 C1092 1.539 1_556 S
C1095 H1109 0.958 . S
C1095 H1110 0.961 . S
C1095 H1111 0.960 . S
H1096 C1080 0.931 . S
H1097 C1085 0.929 . S
H1098 C1086 0.960 . S
H1099 C1086 0.962 . S
H1100 C1086 0.960 . S
H1101 C1087 0.961 . S
H1102 C1087 0.961 . S
H1103 C1087 0.961 . S
H1104 C1088 0.931 . S
H1105 C1093 0.930 1_556 S
H1106 C1094 0.956 . S
H1107 C1094 0.961 . S
H1108 C1094 0.961 . S
H1109 C1095 0.958 . S
H1110 C1095 0.961 . S
H1111 C1095 0.960 . S
C1112 C1113 1.391 . S
C1112 C1114 1.394 . S
C1112 H1128 0.931 . S
C1113 C1112 1.391 . S
C1113 C1117 1.376 . S
C1114 C1112 1.394 . S
C1114 C1115 1.369 . S
C1114 C1118 1.531 1_455 S
C1115 C1114 1.369 . S
C1115 C1116 1.410 . S
C1115 C1123 1.503 . S
C1116 C1115 1.410 . S
C1116 C1117 1.392 . S
C1116 C1119 1.511 . S
C1117 C1113 1.376 . S
C1117 C1116 1.392 . S
C1117 H1129 0.929 . S
C1118 C1114 1.531 1_655 S
C1118 H1130 0.960 . S
C1118 H1131 0.962 . S
C1118 H1132 0.960 . S
C1119 C1116 1.511 . S
C1119 H1133 0.961 . S
C1119 H1134 0.961 . S
C1119 H1135 0.961 . S
C1120 C1121 1.370 . S
C1120 C1122 1.363 . S
C1120 H1136 0.931 . S
C1121 C1120 1.370 . S
C1121 C1125 1.408 . S
C1122 C1120 1.363 . S
C1122 C1123 1.370 . S
C1122 C1126 1.524 . S
C1123 C1115 1.503 . S
C1123 C1122 1.370 . S
C1123 C1124 1.403 . S
C1124 C1123 1.403 . S
C1124 C1125 1.404 . S
C1124 C1127 1.539 . S
C1125 C1121 1.408 . S
C1125 C1124 1.404 . S
C1125 H1137 0.930 . S
C1126 C1122 1.524 . S
C1126 H1138 0.956 . S
C1126 H1139 0.961 . S
C1126 H1140 0.961 . S
C1127 C1124 1.539 . S
C1127 H1141 0.958 . S
C1127 H1142 0.961 . S
C1127 H1143 0.960 . S
H1128 C1112 0.931 . S
H1129 C1117 0.929 . S
H1130 C1118 0.960 . S
H1131 C1118 0.962 . S
H1132 C1118 0.960 . S
H1133 C1119 0.961 . S
H1134 C1119 0.961 . S
H1135 C1119 0.961 . S
H1136 C1120 0.931 . S
H1137 C1125 0.930 . S
H1138 C1126 0.956 . S
H1139 C1126 0.961 . S
H1140 C1126 0.961 . S
H1141 C1127 0.958 . S
H1142 C1127 0.961 . S
H1143 C1127 0.960 . S
C1144 C1145 1.391 . S
C1144 C1146 1.394 . S
C1144 H1160 0.931 . S
C1145 C1144 1.391 . S
C1145 C1149 1.376 . S
C1146 C1144 1.394 . S
C1146 C1147 1.369 . S
C1146 C1150 1.531 . S
C1147 C1146 1.369 . S
C1147 C1148 1.410 . S
C1147 C1155 1.503 . S
C1148 C1147 1.410 . S
C1148 C1149 1.392 . S
C1148 C1151 1.511 . S
C1149 C1145 1.376 . S
C1149 C1148 1.392 . S
C1149 H1161 0.929 . S
C1150 C1146 1.531 . S
C1150 H1162 0.960 . S
C1150 H1163 0.962 . S
C1150 H1164 0.960 . S
C1151 C1148 1.511 . S
C1151 H1165 0.961 . S
C1151 H1166 0.961 . S
C1151 H1167 0.961 . S
C1152 C1153 1.370 . S
C1152 C1154 1.363 . S
C1152 H1168 0.931 . S
C1153 C1152 1.370 . S
C1153 C1157 1.408 . S
C1154 C1152 1.363 . S
C1154 C1155 1.370 . S
C1154 C1158 1.524 . S
C1155 C1147 1.503 . S
C1155 C1154 1.370 . S
C1155 C1156 1.403 . S
C1156 C1155 1.403 . S
C1156 C1157 1.404 . S
C1156 C1159 1.539 . S
C1157 C1153 1.408 . S
C1157 C1156 1.404 . S
C1157 H1169 0.930 . S
C1158 C1154 1.524 . S
C1158 H1170 0.956 . S
C1158 H1171 0.961 . S
C1158 H1172 0.961 . S
C1159 C1156 1.539 . S
C1159 H1173 0.958 . S
C1159 H1174 0.961 . S
C1159 H1175 0.960 . S
H1160 C1144 0.931 . S
H1161 C1149 0.929 . S
H1162 C1150 0.960 . S
H1163 C1150 0.962 . S
H1164 C1150 0.960 . S
H1165 C1151 0.961 . S
H1166 C1151 0.961 . S
H1167 C1151 0.961 . S
H1168 C1152 0.931 . S
H1169 C1157 0.930 . S
H1170 C1158 0.956 . S
H1171 C1158 0.961 . S
H1172 C1158 0.961 . S
H1173 C1159 0.958 . S
H1174 C1159 0.961 . S
H1175 C1159 0.960 . S
C409 C1 2.129 . S
C417 C304 2.174 . S
C441 C67 1.102 . S
C449 N324 1.120 . S
C481 C358 1.987 . S
C473 C97 1.944 . S
C505 C133 1.351 . S
C513 N392 1.302 . S
C545 C345 2.346 . S
C537 C25 2.313 . S
C577 N302 1.181 . S
C569 C37 1.197 . S
C609 C379 2.010 . S
C601 C103 1.948 . S
C641 N354 1.056 . S
C633 C109 1.070 . S
C665 C31 1.786 . S
C673 C394 1.856 . S
C705 C328 1.716 . S
C697 C73 1.701 . S
C729 C139 1.517 . S
C737 C289 1.501 . S
C761 C61 1.446 . S
C769 C375 1.463 . S
C801 C315 2.182 . S
C793 C175 2.182 . S
C825 C181 1.138 . S
C833 N332 1.121 . S
C857 C247 2.001 . S
C865 C349 2.012 . S
C889 C277 1.330 . S
C897 N384 1.297 . S
C921 C145 2.331 . S
C929 C334 2.343 . S
C961 N294 1.196 . S
C953 C211 1.159 . S
C993 C388 1.991 . S
C985 C217 1.980 . S
C1025 N362 1.061 . S
C1017 C283 1.059 . S
C1049 C169 1.838 . S
C1057 C405 1.848 . S
C1089 C319 1.719 . S
C1081 C241 1.721 . S
C1121 C298 1.493 . S
C1113 C253 1.498 . S
C1145 C205 1.430 . S
C1153 C364 1.475 . S
