# Generated by pormake.
# Topology anh, (6,3)-cn, num edge types: 1
# Building blocks:
#     Node 0, Type 0, BuildingBlock: GEDQOX_clean_sbu_0, # of connection points: 6
#     Node 1, Type 0, BuildingBlock: GEDQOX_clean_sbu_0, # of connection points: 6
#     Node 2, Type 0, BuildingBlock: GEDQOX_clean_sbu_0, # of connection points: 6
#     Node 3, Type 1, BuildingBlock: ESEHIV_clean_linker_0, # of connection points: 3
#     Node 4, Type 1, BuildingBlock: ESEHIV_clean_linker_0, # of connection points: 3
#     Node 5, Type 1, BuildingBlock: ESEHIV_clean_linker_0, # of connection points: 3
#     Node 6, Type 1, BuildingBlock: ESEHIV_clean_linker_0, # of connection points: 3
#     Node 7, Type 1, BuildingBlock: ESEHIV_clean_linker_0, # of connection points: 3
#     Node 8, Type 1, BuildingBlock: ESEHIV_clean_linker_0, # of connection points: 3
#     Edge 9, Type (0, 1), BuildingBlock: XIVTED_clean_linker_0, # of connection points: 2
#     Edge 10, Type (0, 1), BuildingBlock: XIVTED_clean_linker_0, # of connection points: 2
#     Edge 11, Type (0, 1), BuildingBlock: XIVTED_clean_linker_0, # of connection points: 2
#     Edge 12, Type (0, 1), BuildingBlock: XIVTED_clean_linker_0, # of connection points: 2
#     Edge 13, Type (0, 1), BuildingBlock: XIVTED_clean_linker_0, # of connection points: 2
#     Edge 14, Type (0, 1), BuildingBlock: XIVTED_clean_linker_0, # of connection points: 2
#     Edge 15, Type (0, 1), BuildingBlock: XIVTED_clean_linker_0, # of connection points: 2
#     Edge 16, Type (0, 1), BuildingBlock: XIVTED_clean_linker_0, # of connection points: 2
#     Edge 17, Type (0, 1), BuildingBlock: XIVTED_clean_linker_0, # of connection points: 2
#     Edge 18, Type (0, 1), BuildingBlock: XIVTED_clean_linker_0, # of connection points: 2
#     Edge 19, Type (0, 1), BuildingBlock: XIVTED_clean_linker_0, # of connection points: 2
#     Edge 20, Type (0, 1), BuildingBlock: XIVTED_clean_linker_0, # of connection points: 2
#     Edge 21, Type (0, 1), BuildingBlock: XIVTED_clean_linker_0, # of connection points: 2
#     Edge 22, Type (0, 1), BuildingBlock: XIVTED_clean_linker_0, # of connection points: 2
#     Edge 23, Type (0, 1), BuildingBlock: XIVTED_clean_linker_0, # of connection points: 2
#     Edge 24, Type (0, 1), BuildingBlock: XIVTED_clean_linker_0, # of connection points: 2
#     Edge 25, Type (0, 1), BuildingBlock: XIVTED_clean_linker_0, # of connection points: 2
#     Edge 26, Type (0, 1), BuildingBlock: XIVTED_clean_linker_0, # of connection points: 2
# Relax obj value: 0.211
# Max RMSD: 0.227
# Mean RMSD: 0.166
data_MOF--net-anh--node1-GEDQOX_clean_sbu_0--node2-ESEHIV_clean_linker_0--edge1-XIVTED_clean_linker_0
_symmetry_space_group_name_H-M    P1
_symmetry_Int_Tables_number       1
_symmetry_cell_setting            triclinic
loop_
_symmetry_equiv_pos_as_xyz
'x, y, z'
_cell_length_a     29.380846
_cell_length_b     27.883647
_cell_length_c     52.294895
_cell_angle_alpha  92.773197
_cell_angle_beta   91.239437
_cell_angle_gamma 103.90191
loop_
_atom_site_label
_atom_site_type_symbol
_atom_site_fract_x
_atom_site_fract_y
_atom_site_fract_z
_atom_type_partial_charge
Nd0 Nd 0.08449 0.56825 0.13521 0.0
Nd1 Nd 1.05921 0.46029 0.14277 0.0
C2 C 0.12438 0.65892 0.12233 0.0
C3 C 0.16713 0.69491 0.13248 0.0
C4 C 0.19386 0.7294 0.11664 0.0
C5 C 0.23455 0.76331 0.12647 0.0
C6 C 0.24885 0.76344 0.15234 0.0
C7 C 0.22228 0.72825 0.16797 0.0
C8 C 0.18207 0.6942 0.15812 0.0
C9 C 0.07416 0.54639 0.18561 0.0
C10 C 0.17374 0.50894 0.13912 0.0
C11 C 1.02431 0.37103 0.15949 0.0
C12 C 0.97914 0.33953 0.16744 0.0
C13 C 0.97168 0.33197 0.19354 0.0
C14 C 0.93003 0.30116 0.20142 0.0
C15 C 0.89485 0.27678 0.18337 0.0
C16 C 0.90236 0.28417 0.15722 0.0
C17 C 0.94401 0.31519 0.14934 0.0
C18 C 0.07426 0.48391 0.09315 0.0
C19 C 0.97016 0.51775 0.1345 0.0
O20 O 0.13094 0.61933 0.10999 0.0
O21 O 0.0897 0.64887 0.13801 0.0
O22 O 1.06105 0.58275 0.17572 0.0
O23 O 0.0944 0.52453 0.16942 0.0
O24 O 0.15976 0.54972 0.13388 0.0
O25 O 0.14141 0.46891 0.14508 0.0
O26 O 1.04376 0.40967 0.17459 0.0
O27 O 1.02887 0.37982 0.1352 0.0
O28 O 0.08813 0.44804 0.10332 0.0
O29 O 1.05126 0.50418 0.10856 0.0
O30 O 0.98408 0.47968 0.14398 0.0
O31 O 1.00295 0.55533 0.12635 0.0
H32 H 0.18318 0.73022 0.09674 0.0
H33 H 0.25427 0.79003 0.11399 0.0
H34 H 0.23281 0.7268 0.18784 0.0
H35 H 0.16253 0.66731 0.1706 0.0
H36 H 0.99831 0.34958 0.20793 0.0
H37 H 0.9258 0.29571 0.22167 0.0
H38 H 0.87586 0.2663 0.14283 0.0
H39 H 0.94868 0.31989 0.12905 0.0
Nd40 Nd 0.5163 0.98536 0.52724 0.0
Nd41 Nd 0.61843 0.01094 0.51964 0.0
C42 C 0.42936 0.94582 0.54017 0.0
C43 C 0.39552 0.90037 0.53053 0.0
C44 C 0.35521 0.88069 0.54403 0.0
C45 C 0.32339 0.83718 0.53463 0.0
C46 C 0.33146 0.81274 0.51156 0.0
C47 C 0.37215 0.83287 0.49822 0.0
C48 C 0.40391 0.87602 0.50768 0.0
C49 C 0.53848 0.99894 0.47695 0.0
C50 C 0.5715 0.89435 0.52108 0.0
C51 C 0.70605 0.04443 0.5056 0.0
C52 C 0.73846 0.08861 0.49669 0.0
C53 C 0.7254 0.13358 0.49501 0.0
C54 C 0.75717 0.17503 0.48634 0.0
C55 C 0.80234 0.17193 0.47913 0.0
C56 C 0.8151 0.1267 0.48107 0.0
C57 C 0.78343 0.08549 0.48976 0.0
C58 C 0.59433 0.99562 0.56959 0.0
C59 C 0.56396 0.10069 0.52798 0.0
O60 O 0.46621 0.93928 0.5527 0.0
O61 O 0.44006 0.98043 0.52381 0.0
O62 O 0.50441 0.01313 0.48781 0.0
O63 O 0.55843 0.97603 0.49215 0.0
O64 O 0.53329 0.90828 0.52776 0.0
O65 O 0.60931 0.92703 0.51461 0.0
O66 O 0.67177 0.02184 0.48972 0.0
O67 O 0.69306 0.04676 0.52927 0.0
O68 O 0.62654 0.97824 0.55855 0.0
O69 O 0.57631 0.02042 0.55456 0.0
O70 O 0.59804 0.08624 0.51597 0.0
O71 O 0.53088 0.06798 0.53876 0.0
H72 H 0.34842 0.89888 0.56182 0.0
H73 H 0.29278 0.82247 0.54557 0.0
H74 H 0.37921 0.81577 0.48018 0.0
H75 H 0.43499 0.89062 0.49703 0.0
H76 H 0.6907 0.13649 0.50028 0.0
H77 H 0.74612 0.20919 0.48486 0.0
H78 H 0.8498 0.12323 0.4761 0.0
H79 H 0.79411 0.05107 0.49107 0.0
Nd80 Nd 0.51082 0.50361 0.82818 0.0
Nd81 Nd 0.61012 0.52871 0.84655 0.0
C82 C 0.43381 0.50816 0.80292 0.0
C83 C 0.41242 0.55063 0.80198 0.0
C84 C 0.39733 0.56503 0.77853 0.0
C85 C 0.38125 0.60836 0.77754 0.0
C86 C 0.38042 0.63806 0.8 0.0
C87 C 0.39618 0.6235 0.82332 0.0
C88 C 0.41221 0.58059 0.82426 0.0
C89 C 0.52222 0.50298 0.88053 0.0
C90 C 0.56547 0.6214 0.84079 0.0
C91 C 0.69249 0.53104 0.86792 0.0
C92 C 0.72994 0.50719 0.85989 0.0
C93 C 0.724 0.45547 0.85951 0.0
C94 C 0.75827 0.43362 0.84922 0.0
C95 C 0.79836 0.46311 0.83876 0.0
C96 C 0.80444 0.51471 0.83958 0.0
C97 C 0.77081 0.53649 0.85017 0.0
C98 C 0.59915 0.52872 0.79428 0.0
C99 C 0.55419 0.41011 0.83376 0.0
O100 O 0.47443 0.51473 0.7922 0.0
O101 O 0.43323 0.48767 0.82499 0.0
O102 O 0.48974 0.4712 0.86716 0.0
O103 O 0.54541 0.53507 0.86658 0.0
O104 O 0.53251 0.58894 0.82731 0.0
O105 O 0.59748 0.60645 0.85425 0.0
O106 O 0.65354 0.50241 0.87548 0.0
O107 O 0.68519 0.56496 0.85303 0.0
O108 O 0.63152 0.56032 0.80756 0.0
O109 O 0.576 0.49694 0.80832 0.0
O110 O 0.58929 0.4422 0.84624 0.0
O111 O 0.52059 0.42533 0.82191 0.0
H112 H 0.39831 0.54296 0.76101 0.0
H113 H 0.36912 0.61839 0.75932 0.0
H114 H 0.39495 0.64446 0.84117 0.0
H115 H 0.4248 0.57113 0.84252 0.0
H116 H 0.69277 0.43187 0.86685 0.0
H117 H 0.75336 0.39386 0.84924 0.0
H118 H 0.83583 0.53849 0.83244 0.0
H119 H 0.77641 0.57637 0.85033 0.0
H120 H 0.50093 0.95925 0.27901 0.0
H121 H 0.6366 0.05982 0.28727 0.0
H122 H 0.57112 0.01958 0.21213 0.0
C123 C 0.53081 0.98283 0.27037 0.0
C124 C 0.53135 0.98593 0.24362 0.0
C125 C 0.56843 0.00947 0.28621 0.0
C126 C 0.60759 0.03906 0.27503 0.0
C127 C 0.60902 0.04317 0.24829 0.0
C128 C 0.57091 0.01587 0.23266 0.0
H129 H 0.5774 0.5867 0.59781 0.0
H130 H 0.56392 0.43013 0.59999 0.0
H131 H 0.56424 0.4968 0.52734 0.0
C132 C 0.57413 0.55087 0.58792 0.0
C133 C 0.57161 0.54709 0.56101 0.0
C134 C 0.57079 0.50886 0.60215 0.0
C135 C 0.56551 0.46262 0.58912 0.0
C136 C 0.56334 0.45761 0.56225 0.0
C137 C 0.56636 0.50018 0.54808 0.0
H138 H 0.07129 0.51874 0.90421 0.0
H139 H 0.16945 0.65865 0.91883 0.0
H140 H 0.12479 0.60583 0.84122 0.0
C141 C 0.09385 0.55143 0.89683 0.0
C142 C 0.09387 0.55836 0.87047 0.0
C143 C 0.12173 0.58681 0.91418 0.0
C144 C 0.14835 0.63122 0.90527 0.0
C145 C 0.1494 0.63894 0.87883 0.0
C146 C 0.12245 0.60181 0.86167 0.0
H147 H 1.01737 0.43456 0.37224 0.0
H148 H 0.12864 0.56617 0.38323 0.0
H149 H 0.06794 0.49012 0.44857 0.0
C150 C 1.04134 0.46128 0.38499 0.0
C151 C 1.03882 0.45719 0.41166 0.0
C152 C 0.0733 0.50068 0.37463 0.0
C153 C 0.10363 0.53583 0.39115 0.0
C154 C 0.1019 0.53228 0.41782 0.0
C155 C 0.06898 0.49325 0.428 0.0
H156 H 0.56299 0.08186 0.76252 0.0
H157 H 0.58309 0.93445 0.76669 0.0
H158 H 0.56578 0.01801 0.83559 0.0
C159 C 0.56719 0.05126 0.77358 0.0
C160 C 0.56513 0.05589 0.80038 0.0
C161 C 0.57403 0.00797 0.76099 0.0
C162 C 0.57772 0.96826 0.77584 0.0
C163 C 0.57412 0.97114 0.80258 0.0
C164 C 0.56867 0.01549 0.81497 0.0
H165 H 0.49068 0.50488 0.07715 0.0
H166 H 0.63712 0.50906 0.07323 0.0
H167 H 0.57447 0.51547 0.14722 0.0
C168 C 0.52386 0.50639 0.08706 0.0
C169 C 0.52577 0.50977 0.11393 0.0
C170 C 0.56343 0.50625 0.07251 0.0
C171 C 0.60716 0.50964 0.08489 0.0
C172 C 0.61327 0.51271 0.11178 0.0
C173 C 0.57142 0.51256 0.12652 0.0
H174 H 0.21852 0.43067 0.14415 0.0
H175 H 0.48647 0.59026 0.12298 0.0
H176 H 0.25295 0.58631 0.13132 0.0
H177 H 0.45172 0.43251 0.12815 0.0
H178 H 0.40363 0.59034 0.12976 0.0
H179 H 0.30248 0.43108 0.14149 0.0
C180 C 0.24334 0.46518 0.14086 0.0
C181 C 0.22681 0.50853 0.13801 0.0
C182 C 0.41394 0.55561 0.13004 0.0
C183 C 0.32618 0.50928 0.13498 0.0
C184 C 0.46208 0.55565 0.12662 0.0
C185 C 0.47831 0.51164 0.12619 0.0
C186 C 0.37964 0.511 0.1328 0.0
C187 C 0.44268 0.46794 0.12944 0.0
C188 C 0.29196 0.46533 0.13931 0.0
C189 C 0.2625 0.55161 0.13369 0.0
N190 N 0.39611 0.4688 0.13257 0.0
N191 N 0.30937 0.5508 0.13239 0.0
H192 H 0.82077 0.26946 0.49688 0.0
H193 H 1.01795 0.35996 0.39446 0.0
H194 H 0.86093 0.17318 0.43908 0.0
H195 H 0.98217 0.45814 0.45281 0.0
H196 H 0.95991 0.29138 0.41071 0.0
H197 H 0.8784 0.33949 0.48093 0.0
C198 C 0.84148 0.26308 0.48075 0.0
C199 C 0.83613 0.21528 0.46938 0.0
C200 C 0.96468 0.32787 0.42002 0.0
C201 C 0.90239 0.29512 0.45119 0.0
C202 C 0.99772 0.36714 0.41066 0.0
C203 C 1.00477 0.41497 0.42219 0.0
C204 C 0.93825 0.33628 0.4411 0.0
C205 C 0.97813 0.42181 0.44345 0.0
C206 C 0.87458 0.30301 0.47176 0.0
C207 C 0.86431 0.20916 0.44872 0.0
N208 N 0.94591 0.38293 0.45217 0.0
N209 N 0.89614 0.24852 0.44032 0.0
H210 H 0.49614 0.66124 0.82222 0.0
H211 H 0.64688 0.9402 0.8249 0.0
H212 H 0.63542 0.70416 0.85695 0.0
H213 H 0.49786 0.89642 0.80913 0.0
H214 H 0.64459 0.85608 0.83831 0.0
H215 H 0.497 0.74788 0.81823 0.0
C216 C 0.52685 0.68889 0.82928 0.0
C217 C 0.56568 0.67497 0.84005 0.0
C218 C 0.61223 0.86516 0.83246 0.0
C219 C 0.56729 0.77556 0.83505 0.0
C220 C 0.61351 0.91324 0.82504 0.0
C221 C 0.57233 0.92539 0.81639 0.0
C222 C 0.56959 0.82878 0.83068 0.0
C223 C 0.53021 0.88876 0.81612 0.0
C224 C 0.52731 0.73866 0.82698 0.0
C225 C 0.60459 0.71299 0.84861 0.0
N226 N 0.53 0.84217 0.82288 0.0
N227 N 0.60462 0.76149 0.84569 0.0
H228 H 0.92615 0.58821 0.11512 0.0
H229 H 0.65314 0.4476 0.14026 0.0
H230 H 0.88984 0.44809 0.15003 0.0
H231 H 0.69393 0.58513 0.1034 0.0
H232 H 0.7373 0.44828 0.14647 0.0
H233 H 0.84236 0.58837 0.11254 0.0
C234 C 0.90095 0.55726 0.12233 0.0
C235 C 0.91696 0.51807 0.13284 0.0
C236 C 0.72807 0.47886 0.13738 0.0
C237 C 0.81748 0.51811 0.12992 0.0
C238 C 0.67939 0.47888 0.13416 0.0
C239 C 0.66471 0.51717 0.12188 0.0
C240 C 0.76394 0.51727 0.12817 0.0
C241 C 0.70214 0.55517 0.11354 0.0
C242 C 0.85236 0.55742 0.12084 0.0
C243 C 0.88067 0.47943 0.14171 0.0
N244 N 0.74873 0.55415 0.11676 0.0
N245 N 0.8337 0.4805 0.14006 0.0
H246 H 0.35057 0.73102 0.48683 0.0
H247 H 0.08246 0.58661 0.45952 0.0
H248 H 0.23482 0.78954 0.51232 0.0
H249 H 0.19681 0.56213 0.41447 0.0
H250 H 0.13821 0.65201 0.48525 0.0
H251 H 0.2947 0.65973 0.46635 0.0
C252 C 0.31343 0.72903 0.48813 0.0
C253 C 0.29755 0.76697 0.50104 0.0
C254 C 0.15103 0.63208 0.46981 0.0
C255 C 0.23324 0.68457 0.47796 0.0
C256 C 0.11936 0.5947 0.45526 0.0
C257 C 0.13514 0.56931 0.43478 0.0
C258 C 0.19879 0.64345 0.46404 0.0
C259 C 0.18321 0.58126 0.42993 0.0
C260 C 0.28155 0.6881 0.47652 0.0
C261 C 0.24883 0.76126 0.5027 0.0
N262 N 0.21331 0.61743 0.44444 0.0
N263 N 0.2184 0.72097 0.49119 0.0
H264 H 0.48609 0.33379 0.81142 0.0
H265 H 0.62297 0.1217 0.83507 0.0
H266 H 0.61948 0.36281 0.85273 0.0
H267 H 0.49355 0.09962 0.79083 0.0
H268 H 0.61882 0.20743 0.84629 0.0
H269 H 0.48532 0.24619 0.80765 0.0
C270 C 0.51528 0.32184 0.81979 0.0
C271 C 0.55307 0.35617 0.8323 0.0
C272 C 0.59096 0.18357 0.83446 0.0
C273 C 0.55238 0.25483 0.82799 0.0
C274 C 0.59309 0.13451 0.8283 0.0
C275 C 0.55847 0.10349 0.81207 0.0
C276 C 0.55389 0.20162 0.82431 0.0
C277 C 0.52095 0.12226 0.80342 0.0
C278 C 0.51477 0.27154 0.81765 0.0
C279 C 0.58966 0.33792 0.84284 0.0
N280 N 0.51984 0.16995 0.80948 0.0
N281 N 0.58853 0.28864 0.84034 0.0
H282 H 0.64785 0.85336 0.52013 0.0
H283 H 0.49886 0.57515 0.53745 0.0
H284 H 0.49708 0.81354 0.5246 0.0
H285 H 0.64672 0.62503 0.55593 0.0
H286 H 0.49862 0.65856 0.52408 0.0
H287 H 0.64881 0.76665 0.52508 0.0
C288 C 0.61487 0.8264 0.52187 0.0
C289 C 0.57234 0.8411 0.52207 0.0
C290 C 0.53131 0.65104 0.53061 0.0
C291 C 0.57324 0.74126 0.52765 0.0
C292 C 0.53153 0.60331 0.53792 0.0
C293 C 0.57302 0.59306 0.54739 0.0
C294 C 0.57296 0.6888 0.5327 0.0
C295 C 0.61417 0.63127 0.54836 0.0
C296 C 0.61549 0.77683 0.5248 0.0
C297 C 0.53078 0.80419 0.52451 0.0
N298 N 0.6131 0.67736 0.54118 0.0
N299 N 0.53228 0.75617 0.52721 0.0
H300 H 0.84321 0.47866 0.79367 0.0
H301 H 0.06452 0.45662 0.87293 0.0
H302 H 0.84229 0.40151 0.86316 0.0
H303 H 1.04838 0.57629 0.82675 0.0
H304 H 0.99306 0.40443 0.85229 0.0
H305 H 0.9251 0.47646 0.78833 0.0
C306 C 0.85973 0.45934 0.8072 0.0
C307 C 0.83699 0.44223 0.82949 0.0
C308 C 1.00636 0.44157 0.84609 0.0
C309 C 0.93017 0.44036 0.82376 0.0
C310 C 1.04671 0.47176 0.85812 0.0
C311 C 1.06114 0.52201 0.85269 0.0
C312 C 0.98084 0.46166 0.8283 0.0
C313 C 1.03826 0.53837 0.8322 0.0
C314 C 0.90638 0.45807 0.80414 0.0
C315 C 0.85922 0.4164 0.84609 0.0
N316 N 0.99864 0.5086 0.82117 0.0
N317 N 0.90536 0.41769 0.84338 0.0
H318 H 0.33653 0.7931 0.13228 0.0
H319 H 0.43891 0.97776 0.25342 0.0
H320 H 0.25646 0.81812 0.19762 0.0
H321 H 0.52825 0.93271 0.19738 0.0
H322 H 0.3705 0.92734 0.22968 0.0
H323 H 0.40576 0.85155 0.15242 0.0
C324 C 0.33343 0.81118 0.15074 0.0
C325 C 0.29074 0.80044 0.16339 0.0
C326 C 0.40499 0.92844 0.22247 0.0
C327 C 0.36956 0.86723 0.18644 0.0
C328 C 0.44418 0.95716 0.23609 0.0
C329 C 0.48957 0.95884 0.22766 0.0
C330 C 0.41083 0.90106 0.20007 0.0
C331 C 0.49396 0.93245 0.20462 0.0
C332 C 0.37296 0.8443 0.16226 0.0
C333 C 0.28878 0.8247 0.18734 0.0
N334 N 0.45509 0.90432 0.1917 0.0
N335 N 0.3275 0.85681 0.19804 0.0
H336 H 0.62775 0.18116 0.51031 0.0
H337 H 0.49106 0.37752 0.56732 0.0
H338 H 0.49708 0.14243 0.54926 0.0
H339 H 0.62413 0.42173 0.5315 0.0
H340 H 0.48932 0.29096 0.55621 0.0
H341 H 0.62483 0.26849 0.51419 0.0
C342 C 0.5984 0.19085 0.51962 0.0
C343 C 0.56276 0.15405 0.52961 0.0
C344 C 0.51869 0.3194 0.55038 0.0
C345 C 0.55904 0.2543 0.53395 0.0
C346 C 0.51943 0.36892 0.55652 0.0
C347 C 0.55758 0.4069 0.55013 0.0
C348 C 0.55673 0.30726 0.53796 0.0
C349 C 0.59376 0.39361 0.53647 0.0
C350 C 0.59673 0.24082 0.52178 0.0
C351 C 0.52555 0.16918 0.54137 0.0
N352 N 0.59272 0.34487 0.53108 0.0
N353 N 0.52478 0.21785 0.54324 0.0
H354 H 0.30018 0.64333 0.77369 0.0
H355 H 0.23797 0.68613 0.89765 0.0
H356 H 0.40583 0.72783 0.82759 0.0
H357 H 0.13883 0.69071 0.83619 0.0
H358 H 0.30056 0.7304 0.87241 0.0
H359 H 0.24498 0.68811 0.79013 0.0
C360 C 0.31255 0.67282 0.78826 0.0
C361 C 0.35672 0.67949 0.80052 0.0
C362 C 0.26497 0.72333 0.86461 0.0
C363 C 0.29289 0.72916 0.82029 0.0
C364 C 0.22882 0.69785 0.8792 0.0
C365 C 0.18322 0.68164 0.86841 0.0
C366 C 0.25569 0.73046 0.83876 0.0
C367 C 0.17405 0.69937 0.84457 0.0
C368 C 0.28074 0.69851 0.7978 0.0
C369 C 0.37093 0.7193 0.81877 0.0
N370 N 0.21025 0.72088 0.83001 0.0
N371 N 0.33844 0.74121 0.82901 0.0
H372 H 0.84258 0.29146 0.22452 0.0
H373 H 0.6559 0.02918 0.20448 0.0
H374 H 0.84645 0.18636 0.16175 0.0
H375 H 0.65411 0.13669 0.2664 0.0
H376 H 0.72382 0.08664 0.18745 0.0
H377 H 0.77218 0.23545 0.23932 0.0
C378 C 0.82872 0.2565 0.21387 0.0
C379 C 0.85076 0.24358 0.19192 0.0
C380 C 0.7085 0.09761 0.20475 0.0
C381 C 0.76953 0.17909 0.2087 0.0
C382 C 0.66959 0.06491 0.21442 0.0
C383 C 0.64947 0.07784 0.23707 0.0
C384 C 0.72733 0.1437 0.21777 0.0
C385 C 0.66895 0.12459 0.2492 0.0
C386 C 0.7883 0.22457 0.22227 0.0
C387 C 0.8305 0.1981 0.17865 0.0
N388 N 0.70671 0.15563 0.23945 0.0
N389 N 0.7912 0.16743 0.1873 0.0
H390 H 0.13246 0.45143 0.06056 0.0
H391 H 0.13793 0.50345 0.93291 0.0
H392 H 1.04636 0.5564 0.06803 0.0
H393 H 0.10922 0.64303 0.95694 0.0
H394 H 0.13166 0.47872 0.97679 0.0
H395 H 0.15356 0.47963 0.01812 0.0
C396 C 0.11752 0.48003 0.05306 0.0
C397 C 0.08691 0.50095 0.06751 0.0
C398 C 0.12805 0.51536 0.97283 0.0
C399 C 0.10975 0.5326 0.01859 0.0
C400 C 0.13109 0.52924 0.94765 0.0
C401 C 0.12388 0.57521 0.94138 0.0
C402 C 0.11786 0.5478 0.99204 0.0
C403 C 0.11523 0.60736 0.96111 0.0
C404 C 0.12931 0.49595 0.02871 0.0
C405 C 0.06952 0.53881 0.05723 0.0
N406 N 0.11183 0.59275 0.98561 0.0
N407 N 0.08102 0.55331 0.03328 0.0
H408 H 0.60667 0.96979 0.44909 0.0
H409 H 0.49486 0.01944 0.31508 0.0
H410 H 0.48719 0.0333 0.44159 0.0
H411 H 0.63488 0.99729 0.3217 0.0
H412 H 0.48916 0.01721 0.36147 0.0
H413 H 0.61602 0.97308 0.40248 0.0
C414 C 0.58253 0.98447 0.43765 0.0
C415 C 0.54603 1.00117 0.44915 0.0
C416 C 0.52122 0.01289 0.35286 0.0
C417 C 0.55617 1.00461 0.39611 0.0
C418 C 0.52436 0.01383 0.32634 0.0
C419 C 0.56532 0.00831 0.31451 0.0
C420 C 0.55916 1.00595 0.36782 0.0
C421 C 0.60275 1.00191 0.3301 0.0
C422 C 0.5879 0.9864 0.41112 0.0
C423 C 0.51574 0.0199 0.43352 0.0
N424 N 0.5987 1.00062 0.35599 0.0
N425 N 0.52133 0.02084 0.40785 0.0
H426 H 0.64863 0.59354 0.76176 0.0
H427 H 0.51669 0.44748 0.6351 0.0
H428 H 0.53758 0.46062 0.76287 0.0
H429 H 0.62901 0.57948 0.63416 0.0
H430 H 0.52231 0.45284 0.68187 0.0
H431 H 0.64037 0.59031 0.71506 0.0
C432 C 0.62248 0.56365 0.75213 0.0
C433 C 0.59387 0.52716 0.76612 0.0
C434 C 0.54567 0.4807 0.67145 0.0
C435 C 0.58412 0.52321 0.71269 0.0
C436 C 0.54266 0.47753 0.64473 0.0
C437 C 0.57264 0.51293 0.63064 0.0
C438 C 0.57896 0.51953 0.68429 0.0
C439 C 0.60495 0.55159 0.6442 0.0
C440 C 0.61774 0.56184 0.72547 0.0
C441 C 0.56042 0.4894 0.75274 0.0
N442 N 0.60737 0.55374 0.67024 0.0
N443 N 0.55652 0.48834 0.72674 0.0
H444 H 0.56599 0.06479 0.59979 0.0
H445 H 0.54495 0.92502 0.72784 0.0
H446 H 0.60786 0.92705 0.60246 0.0
H447 H 0.60822 0.08213 0.72821 0.0
H448 H 0.54905 0.92047 0.68118 0.0
H449 H 0.56043 0.06705 0.64665 0.0
C450 C 0.5735 0.03481 0.61024 0.0
C451 C 0.58764 0.99578 0.59742 0.0
C452 C 0.56186 0.9558 0.69167 0.0
C453 C 0.58051 0.99775 0.65056 0.0
C454 C 0.56 0.95855 0.71836 0.0
C455 C 0.57629 1.00413 0.73239 0.0
C456 C 0.57883 0.99903 0.67877 0.0
C457 C 0.59409 0.04631 0.71853 0.0
C458 C 0.57057 0.03628 0.63687 0.0
C459 C 0.59714 0.95789 0.61178 0.0
N460 N 0.59443 0.0428 0.69253 0.0
N461 N 0.59306 0.95957 0.63765 0.0
H462 H 0.59065 0.56507 0.91093 0.0
H463 H 0.4946 0.44516 0.04165 0.0
H464 H 0.4709 0.4411 0.9141 0.0
H465 H 0.62138 0.56073 0.0382 0.0
H466 H 0.48518 0.44362 -0.00496 0.0
H467 H 0.60231 0.5647 0.95746 0.0
C468 C 0.56676 0.53782 0.92145 0.0
C469 C 0.52961 0.50319 0.90866 0.0
C470 C 0.51517 0.46923 0.00442 0.0
C471 C 0.54275 0.50246 0.96195 0.0
C472 C 0.52048 0.47028 0.03108 0.0
C473 C 0.55876 0.50328 0.04394 0.0
C474 C 0.54824 0.5016 0.99034 0.0
C475 C 0.59153 0.53441 0.02913 0.0
C476 C 0.57349 0.53754 0.94801 0.0
C477 C 0.49989 0.46855 0.92321 0.0
N478 N 0.58539 0.53299 0.00318 0.0
N479 N 0.50701 0.46915 0.94905 0.0
H480 H 1.04638 0.60247 0.22327 0.0
H481 H 0.07555 0.42996 0.33667 0.0
H482 H 0.10075 0.47291 0.21092 0.0
H483 H 0.07267 0.58328 0.34886 0.0
H484 H 0.07585 0.43985 0.29024 0.0
H485 H 1.04648 0.59076 0.26922 0.0
C486 C 1.05823 0.57143 0.23025 0.0
C487 C 0.07359 0.53858 0.21331 0.0
C488 C 0.07532 0.4713 0.30313 0.0
C489 C 0.07351 0.52479 0.26588 0.0
C490 C 0.07491 0.46563 0.32954 0.0
C491 C 0.07419 0.50593 0.34656 0.0
C492 C 0.07419 0.51735 0.29373 0.0
C493 C 0.07368 0.55143 0.33639 0.0
C494 C 1.05842 0.56487 0.25648 0.0
C495 C 0.08853 0.49898 0.22338 0.0
N496 N 0.0734 0.55583 0.31065 0.0
N497 N 0.08795 0.49301 0.24907 0.0
loop_
_geom_bond_atom_site_label_1
_geom_bond_atom_site_label_2
_geom_bond_distance
_geom_bond_site_symmetry_2
_ccdc_geom_bond_type
Nd0 C2 2.836 . S
Nd0 O20 2.500 . S
Nd0 O21 2.492 . S
Nd0 O22 2.487 . S
Nd0 O23 2.682 . S
Nd0 O24 2.410 . S
Nd0 O29 2.414 . S
Nd0 O31 2.424 1_455 S
Nd1 C11 2.836 . S
Nd1 O23 2.414 1_655 S
Nd1 O25 2.424 1_655 S
Nd1 O26 2.500 . S
Nd1 O27 2.492 . S
Nd1 O28 2.487 . S
Nd1 O29 2.682 1_655 S
Nd1 O30 2.410 . S
C2 Nd0 2.836 . S
C2 C3 1.498 . S
C2 O20 1.258 . S
C2 O21 1.239 . S
C3 C2 1.498 . S
C3 C4 1.366 . S
C3 C8 1.407 . S
C4 C3 1.366 . S
C4 C5 1.392 . S
C4 H32 0.930 . S
C5 C4 1.392 . S
C5 C6 1.398 . S
C5 H33 0.929 . S
C6 C5 1.398 . S
C6 C7 1.352 . S
C7 C6 1.352 . S
C7 C8 1.384 . S
C7 H34 0.930 . S
C8 C3 1.407 . S
C8 C7 1.384 . S
C8 H35 0.929 . S
C9 O22 1.241 . S
C9 O23 1.273 . S
C10 O24 1.251 . S
C10 O25 1.268 . S
C11 Nd1 2.836 . S
C11 C12 1.498 . S
C11 O26 1.258 . S
C11 O27 1.239 . S
C12 C11 1.498 . S
C12 C13 1.366 . S
C12 C17 1.407 . S
C13 C12 1.366 . S
C13 C14 1.392 . S
C13 H36 0.930 . S
C14 C13 1.392 . S
C14 C15 1.398 . S
C14 H37 0.929 . S
C15 C14 1.398 . S
C15 C16 1.352 . S
C16 C15 1.352 . S
C16 C17 1.384 . S
C16 H38 0.930 . S
C17 C12 1.407 . S
C17 C16 1.384 . S
C17 H39 0.929 . S
C18 O28 1.241 1_455 S
C18 O29 1.273 . S
C19 O30 1.251 . S
C19 O31 1.268 . S
O20 Nd0 2.500 . S
O20 C2 1.258 . S
O21 Nd0 2.492 . S
O21 C2 1.239 . S
O22 Nd0 2.487 . S
O22 C9 1.241 . S
O23 Nd0 2.682 . S
O23 Nd1 2.414 1_455 S
O23 C9 1.273 . S
O24 Nd0 2.410 . S
O24 C10 1.251 . S
O25 Nd1 2.424 1_455 S
O25 C10 1.268 . S
O26 Nd1 2.500 . S
O26 C11 1.258 . S
O27 Nd1 2.492 . S
O27 C11 1.239 . S
O28 Nd1 2.487 . S
O28 C18 1.241 1_655 S
O29 Nd0 2.414 . S
O29 Nd1 2.682 1_455 S
O29 C18 1.273 . S
O30 Nd1 2.410 . S
O30 C19 1.251 . S
O31 Nd0 2.424 1_655 S
O31 C19 1.268 . S
H32 C4 0.930 . S
H33 C5 0.929 . S
H34 C7 0.930 . S
H35 C8 0.929 . S
H36 C13 0.930 . S
H37 C14 0.929 . S
H38 C16 0.930 . S
H39 C17 0.929 . S
Nd40 C42 2.840 . S
Nd40 O60 2.504 . S
Nd40 O61 2.495 . S
Nd40 O62 2.487 . S
Nd40 O63 2.681 1_565 S
Nd40 O64 2.415 . S
Nd40 O69 2.415 1_565 S
Nd40 O71 2.418 1_565 S
Nd41 C51 2.836 . S
Nd41 O63 2.414 . S
Nd41 O65 2.424 1_545 S
Nd41 O66 2.500 . S
Nd41 O67 2.492 . S
Nd41 O68 2.487 . S
Nd41 O69 2.682 . S
Nd41 O70 2.410 . S
C42 Nd40 2.840 . S
C42 C43 1.498 . S
C42 O60 1.258 . S
C42 O61 1.239 . S
C43 C42 1.498 . S
C43 C44 1.366 . S
C43 C48 1.407 . S
C44 C43 1.366 . S
C44 C45 1.392 . S
C44 H72 0.930 . S
C45 C44 1.392 . S
C45 C46 1.398 . S
C45 H73 0.929 . S
C46 C45 1.398 . S
C46 C47 1.352 . S
C47 C46 1.352 . S
C47 C48 1.384 . S
C47 H74 0.930 . S
C48 C43 1.407 . S
C48 C47 1.384 . S
C48 H75 0.929 . S
C49 O62 1.241 1_545 S
C49 O63 1.273 . S
C50 O64 1.251 . S
C50 O65 1.268 . S
C51 Nd41 2.836 . S
C51 C52 1.498 . S
C51 O66 1.258 . S
C51 O67 1.239 . S
C52 C51 1.498 . S
C52 C53 1.366 . S
C52 C57 1.407 . S
C53 C52 1.366 . S
C53 C54 1.392 . S
C53 H76 0.930 . S
C54 C53 1.392 . S
C54 C55 1.398 . S
C54 H77 0.929 . S
C55 C54 1.398 . S
C55 C56 1.352 . S
C56 C55 1.352 . S
C56 C57 1.384 . S
C56 H78 0.930 . S
C57 C52 1.407 . S
C57 C56 1.384 . S
C57 H79 0.929 . S
C58 O68 1.241 . S
C58 O69 1.273 . S
C59 O70 1.251 . S
C59 O71 1.268 . S
O60 Nd40 2.504 . S
O60 C42 1.258 . S
O61 Nd40 2.495 . S
O61 C42 1.239 . S
O62 Nd40 2.487 . S
O62 C49 1.241 1_565 S
O63 Nd40 2.681 1_545 S
O63 Nd41 2.414 . S
O63 C49 1.273 . S
O64 Nd40 2.415 . S
O64 C50 1.251 . S
O65 Nd41 2.424 1_565 S
O65 C50 1.268 . S
O66 Nd41 2.500 . S
O66 C51 1.258 . S
O67 Nd41 2.492 . S
O67 C51 1.239 . S
O68 Nd41 2.487 . S
O68 C58 1.241 . S
O69 Nd40 2.415 1_545 S
O69 Nd41 2.682 . S
O69 C58 1.273 . S
O70 Nd41 2.410 . S
O70 C59 1.251 . S
O71 Nd40 2.418 1_545 S
O71 C59 1.268 . S
H72 C44 0.930 . S
H73 C45 0.929 . S
H74 C47 0.930 . S
H75 C48 0.929 . S
H76 C53 0.930 . S
H77 C54 0.929 . S
H78 C56 0.930 . S
H79 C57 0.929 . S
Nd80 C82 2.836 . S
Nd80 O100 2.500 . S
Nd80 O101 2.492 . S
Nd80 O102 2.487 . S
Nd80 O103 2.682 . S
Nd80 O104 2.410 . S
Nd80 O109 2.414 . S
Nd80 O111 2.424 . S
Nd81 C91 2.836 . S
Nd81 O103 2.414 . S
Nd81 O105 2.424 . S
Nd81 O106 2.500 . S
Nd81 O107 2.492 . S
Nd81 O108 2.487 . S
Nd81 O109 2.682 . S
Nd81 O110 2.410 . S
C82 Nd80 2.836 . S
C82 C83 1.498 . S
C82 O100 1.258 . S
C82 O101 1.239 . S
C83 C82 1.498 . S
C83 C84 1.366 . S
C83 C88 1.407 . S
C84 C83 1.366 . S
C84 C85 1.392 . S
C84 H112 0.930 . S
C85 C84 1.392 . S
C85 C86 1.398 . S
C85 H113 0.929 . S
C86 C85 1.398 . S
C86 C87 1.352 . S
C87 C86 1.352 . S
C87 C88 1.384 . S
C87 H114 0.930 . S
C88 C83 1.407 . S
C88 C87 1.384 . S
C88 H115 0.929 . S
C89 O102 1.241 . S
C89 O103 1.273 . S
C90 O104 1.251 . S
C90 O105 1.268 . S
C91 Nd81 2.836 . S
C91 C92 1.498 . S
C91 O106 1.258 . S
C91 O107 1.239 . S
C92 C91 1.498 . S
C92 C93 1.366 . S
C92 C97 1.407 . S
C93 C92 1.366 . S
C93 C94 1.392 . S
C93 H116 0.930 . S
C94 C93 1.392 . S
C94 C95 1.398 . S
C94 H117 0.929 . S
C95 C94 1.398 . S
C95 C96 1.352 . S
C96 C95 1.352 . S
C96 C97 1.384 . S
C96 H118 0.930 . S
C97 C92 1.407 . S
C97 C96 1.384 . S
C97 H119 0.929 . S
C98 O108 1.241 . S
C98 O109 1.273 . S
C99 O110 1.251 . S
C99 O111 1.268 . S
O100 Nd80 2.500 . S
O100 C82 1.258 . S
O101 Nd80 2.492 . S
O101 C82 1.239 . S
O102 Nd80 2.487 . S
O102 C89 1.241 . S
O103 Nd80 2.682 . S
O103 Nd81 2.414 . S
O103 C89 1.273 . S
O104 Nd80 2.410 . S
O104 C90 1.251 . S
O105 Nd81 2.424 . S
O105 C90 1.268 . S
O106 Nd81 2.500 . S
O106 C91 1.258 . S
O107 Nd81 2.492 . S
O107 C91 1.239 . S
O108 Nd81 2.487 . S
O108 C98 1.241 . S
O109 Nd80 2.414 . S
O109 Nd81 2.682 . S
O109 C98 1.273 . S
O110 Nd81 2.410 . S
O110 C99 1.251 . S
O111 Nd80 2.424 . S
O111 C99 1.268 . S
H112 C84 0.930 . S
H113 C85 0.929 . S
H114 C87 0.930 . S
H115 C88 0.929 . S
H116 C93 0.930 . S
H117 C94 0.929 . S
H118 C96 0.930 . S
H119 C97 0.929 . S
H120 C123 0.931 . S
H121 C126 0.928 . S
H122 C128 0.930 . S
C123 H120 0.931 . S
C123 C124 1.413 . S
C123 C125 1.360 1_565 S
C124 C123 1.413 . S
C124 C128 1.429 1_565 S
C125 C123 1.360 1_545 S
C125 C126 1.372 . S
C126 H121 0.928 . S
C126 C125 1.372 . S
C126 C127 1.404 . S
C127 C126 1.404 . S
C127 C128 1.391 . S
C128 H122 0.930 . S
C128 C124 1.429 1_545 S
C128 C127 1.391 . S
H129 C132 0.931 . S
H130 C135 0.928 . S
H131 C137 0.930 . S
C132 H129 0.931 . S
C132 C133 1.413 . S
C132 C134 1.360 . S
C133 C132 1.413 . S
C133 C137 1.429 . S
C134 C132 1.360 . S
C134 C135 1.372 . S
C135 H130 0.928 . S
C135 C134 1.372 . S
C135 C136 1.404 . S
C136 C135 1.404 . S
C136 C137 1.391 . S
C137 H131 0.930 . S
C137 C133 1.429 . S
C137 C136 1.391 . S
H138 C141 0.931 . S
H139 C144 0.928 . S
H140 C146 0.930 . S
C141 H138 0.931 . S
C141 C142 1.413 . S
C141 C143 1.360 1_655 S
C142 C141 1.413 . S
C142 C146 1.429 1_655 S
C143 C141 1.360 1_455 S
C143 C144 1.372 . S
C144 H139 0.928 . S
C144 C143 1.372 . S
C144 C145 1.404 . S
C145 C144 1.404 . S
C145 C146 1.391 . S
C146 H140 0.930 . S
C146 C142 1.429 1_455 S
C146 C145 1.391 . S
H147 C150 0.931 . S
H148 C153 0.928 . S
H149 C155 0.930 . S
C150 H147 0.931 . S
C150 C151 1.413 . S
C150 C152 1.346 1_655 S
C151 C150 1.413 . S
C151 C155 1.417 1_655 S
C152 C150 1.346 1_455 S
C152 C153 1.386 . S
C153 H148 0.928 . S
C153 C152 1.386 . S
C153 C154 1.404 . S
C154 C153 1.404 . S
C154 C155 1.404 . S
C155 H149 0.930 . S
C155 C151 1.417 1_455 S
C155 C154 1.404 . S
H156 C159 0.931 . S
H157 C162 0.928 . S
H158 C164 0.930 . S
C159 H156 0.931 . S
C159 C160 1.413 . S
C159 C161 1.360 . S
C160 C159 1.413 . S
C160 C164 1.429 . S
C161 C159 1.360 . S
C161 C162 1.372 1_545 S
C162 H157 0.928 . S
C162 C161 1.372 1_565 S
C162 C163 1.404 . S
C163 C162 1.404 . S
C163 C164 1.391 1_565 S
C164 H158 0.930 . S
C164 C160 1.429 . S
C164 C163 1.391 1_545 S
H165 C168 0.931 . S
H166 C171 0.928 . S
H167 C173 0.930 . S
C168 H165 0.931 . S
C168 C169 1.413 . S
C168 C170 1.360 . S
C169 C168 1.413 . S
C169 C173 1.429 . S
C170 C168 1.360 . S
C170 C171 1.372 . S
C171 H166 0.928 . S
C171 C170 1.372 . S
C171 C172 1.404 . S
C172 C171 1.404 . S
C172 C173 1.391 . S
C173 H167 0.930 . S
C173 C169 1.429 . S
C173 C172 1.391 . S
H174 C180 0.930 . S
H175 C184 0.930 . S
H176 C189 0.929 . S
H177 C187 0.929 . S
H178 C182 0.929 . S
H179 C188 0.929 . S
C180 H174 0.930 . S
C180 C181 1.367 . S
C180 C188 1.378 . S
C181 C180 1.367 . S
C181 C189 1.433 . S
C182 H178 0.929 . S
C182 C184 1.378 . S
C182 C186 1.350 . S
C183 C186 1.463 . S
C183 C188 1.350 . S
C183 N191 1.427 . S
C184 H175 0.930 . S
C184 C182 1.378 . S
C184 C185 1.367 . S
C185 C184 1.367 . S
C185 C187 1.433 . S
C186 C182 1.350 . S
C186 C183 1.463 . S
C186 N190 1.427 . S
C187 H177 0.929 . S
C187 C185 1.433 . S
C187 N190 1.384 . S
C188 H179 0.929 . S
C188 C180 1.378 . S
C188 C183 1.350 . S
C189 H176 0.929 . S
C189 C181 1.433 . S
C189 N191 1.384 . S
N190 C186 1.427 . S
N190 C187 1.384 . S
N191 C183 1.427 . S
N191 C189 1.384 . S
H192 C198 0.930 . S
H193 C202 0.930 . S
H194 C207 0.929 . S
H195 C205 0.929 . S
H196 C200 0.929 . S
H197 C206 0.929 . S
C198 H192 0.930 . S
C198 C199 1.367 . S
C198 C206 1.378 . S
C199 C198 1.367 . S
C199 C207 1.433 . S
C200 H196 0.929 . S
C200 C202 1.378 . S
C200 C204 1.350 . S
C201 C204 1.463 . S
C201 C206 1.350 . S
C201 N209 1.427 . S
C202 H193 0.930 . S
C202 C200 1.378 . S
C202 C203 1.367 . S
C203 C202 1.367 . S
C203 C205 1.433 . S
C204 C200 1.350 . S
C204 C201 1.463 . S
C204 N208 1.427 . S
C205 H195 0.929 . S
C205 C203 1.433 . S
C205 N208 1.384 . S
C206 H197 0.929 . S
C206 C198 1.378 . S
C206 C201 1.350 . S
C207 H194 0.929 . S
C207 C199 1.433 . S
C207 N209 1.384 . S
N208 C204 1.427 . S
N208 C205 1.384 . S
N209 C201 1.427 . S
N209 C207 1.384 . S
H210 C216 0.930 . S
H211 C220 0.930 . S
H212 C225 0.929 . S
H213 C223 0.929 . S
H214 C218 0.929 . S
H215 C224 0.929 . S
C216 H210 0.930 . S
C216 C217 1.367 . S
C216 C224 1.378 . S
C217 C216 1.367 . S
C217 C225 1.433 . S
C218 H214 0.929 . S
C218 C220 1.378 . S
C218 C222 1.350 . S
C219 C222 1.463 . S
C219 C224 1.350 . S
C219 N227 1.427 . S
C220 H211 0.930 . S
C220 C218 1.378 . S
C220 C221 1.367 . S
C221 C220 1.367 . S
C221 C223 1.433 . S
C222 C218 1.350 . S
C222 C219 1.463 . S
C222 N226 1.427 . S
C223 H213 0.929 . S
C223 C221 1.433 . S
C223 N226 1.384 . S
C224 H215 0.929 . S
C224 C216 1.378 . S
C224 C219 1.350 . S
C225 H212 0.929 . S
C225 C217 1.433 . S
C225 N227 1.384 . S
N226 C222 1.427 . S
N226 C223 1.384 . S
N227 C219 1.427 . S
N227 C225 1.384 . S
H228 C234 0.930 . S
H229 C238 0.930 . S
H230 C243 0.929 . S
H231 C241 0.929 . S
H232 C236 0.929 . S
H233 C242 0.929 . S
C234 H228 0.930 . S
C234 C235 1.367 . S
C234 C242 1.378 . S
C235 C234 1.367 . S
C235 C243 1.433 . S
C236 H232 0.929 . S
C236 C238 1.378 . S
C236 C240 1.350 . S
C237 C240 1.463 . S
C237 C242 1.350 . S
C237 N245 1.427 . S
C238 H229 0.930 . S
C238 C236 1.378 . S
C238 C239 1.367 . S
C239 C238 1.367 . S
C239 C241 1.433 . S
C240 C236 1.350 . S
C240 C237 1.463 . S
C240 N244 1.427 . S
C241 H231 0.929 . S
C241 C239 1.433 . S
C241 N244 1.384 . S
C242 H233 0.929 . S
C242 C234 1.378 . S
C242 C237 1.350 . S
C243 H230 0.929 . S
C243 C235 1.433 . S
C243 N245 1.384 . S
N244 C240 1.427 . S
N244 C241 1.384 . S
N245 C237 1.427 . S
N245 C243 1.384 . S
H246 C252 0.930 . S
H247 C256 0.930 . S
H248 C261 0.929 . S
H249 C259 0.929 . S
H250 C254 0.929 . S
H251 C260 0.929 . S
C252 H246 0.930 . S
C252 C253 1.367 . S
C252 C260 1.378 . S
C253 C252 1.367 . S
C253 C261 1.433 . S
C254 H250 0.929 . S
C254 C256 1.378 . S
C254 C258 1.350 . S
C255 C258 1.463 . S
C255 C260 1.350 . S
C255 N263 1.427 . S
C256 H247 0.930 . S
C256 C254 1.378 . S
C256 C257 1.367 . S
C257 C256 1.367 . S
C257 C259 1.433 . S
C258 C254 1.350 . S
C258 C255 1.463 . S
C258 N262 1.427 . S
C259 H249 0.929 . S
C259 C257 1.433 . S
C259 N262 1.384 . S
C260 H251 0.929 . S
C260 C252 1.378 . S
C260 C255 1.350 . S
C261 H248 0.929 . S
C261 C253 1.433 . S
C261 N263 1.384 . S
N262 C258 1.427 . S
N262 C259 1.384 . S
N263 C255 1.427 . S
N263 C261 1.384 . S
H264 C270 0.930 . S
H265 C274 0.930 . S
H266 C279 0.929 . S
H267 C277 0.929 . S
H268 C272 0.929 . S
H269 C278 0.929 . S
C270 H264 0.930 . S
C270 C271 1.367 . S
C270 C278 1.378 . S
C271 C270 1.367 . S
C271 C279 1.433 . S
C272 H268 0.929 . S
C272 C274 1.378 . S
C272 C276 1.350 . S
C273 C276 1.463 . S
C273 C278 1.350 . S
C273 N281 1.427 . S
C274 H265 0.930 . S
C274 C272 1.378 . S
C274 C275 1.367 . S
C275 C274 1.367 . S
C275 C277 1.433 . S
C276 C272 1.350 . S
C276 C273 1.463 . S
C276 N280 1.427 . S
C277 H267 0.929 . S
C277 C275 1.433 . S
C277 N280 1.384 . S
C278 H269 0.929 . S
C278 C270 1.378 . S
C278 C273 1.350 . S
C279 H266 0.929 . S
C279 C271 1.433 . S
C279 N281 1.384 . S
N280 C276 1.427 . S
N280 C277 1.384 . S
N281 C273 1.427 . S
N281 C279 1.384 . S
H282 C288 0.930 . S
H283 C292 0.930 . S
H284 C297 0.929 . S
H285 C295 0.929 . S
H286 C290 0.929 . S
H287 C296 0.929 . S
C288 H282 0.930 . S
C288 C289 1.367 . S
C288 C296 1.378 . S
C289 C288 1.367 . S
C289 C297 1.433 . S
C290 H286 0.929 . S
C290 C292 1.378 . S
C290 C294 1.350 . S
C291 C294 1.463 . S
C291 C296 1.350 . S
C291 N299 1.427 . S
C292 H283 0.930 . S
C292 C290 1.378 . S
C292 C293 1.367 . S
C293 C292 1.367 . S
C293 C295 1.433 . S
C294 C290 1.350 . S
C294 C291 1.463 . S
C294 N298 1.427 . S
C295 H285 0.929 . S
C295 C293 1.433 . S
C295 N298 1.384 . S
C296 H287 0.929 . S
C296 C288 1.378 . S
C296 C291 1.350 . S
C297 H284 0.929 . S
C297 C289 1.433 . S
C297 N299 1.384 . S
N298 C294 1.427 . S
N298 C295 1.384 . S
N299 C291 1.427 . S
N299 C297 1.384 . S
H300 C306 0.930 . S
H301 C310 0.930 . S
H302 C315 0.929 . S
H303 C313 0.932 . S
H304 C308 0.929 . S
H305 C314 0.929 . S
C306 H300 0.930 . S
C306 C307 1.367 . S
C306 C314 1.378 . S
C307 C306 1.367 . S
C307 C315 1.433 . S
C308 H304 0.929 . S
C308 C310 1.378 . S
C308 C312 1.350 . S
C309 C312 1.463 . S
C309 C314 1.350 . S
C309 N317 1.427 . S
C310 H301 0.930 . S
C310 C308 1.378 . S
C310 C311 1.367 . S
C311 C310 1.367 . S
C311 C313 1.433 . S
C312 C308 1.350 . S
C312 C309 1.463 . S
C312 N316 1.427 . S
C313 H303 0.932 . S
C313 C311 1.433 . S
C313 N316 1.384 . S
C314 H305 0.929 . S
C314 C306 1.378 . S
C314 C309 1.350 . S
C315 H302 0.929 . S
C315 C307 1.433 . S
C315 N317 1.384 . S
N316 C312 1.427 . S
N316 C313 1.384 . S
N317 C309 1.427 . S
N317 C315 1.384 . S
H318 C324 0.930 . S
H319 C328 0.930 . S
H320 C333 0.929 . S
H321 C331 0.929 . S
H322 C326 0.929 . S
H323 C332 0.929 . S
C324 H318 0.930 . S
C324 C325 1.367 . S
C324 C332 1.378 . S
C325 C324 1.367 . S
C325 C333 1.433 . S
C326 H322 0.929 . S
C326 C328 1.378 . S
C326 C330 1.350 . S
C327 C330 1.463 . S
C327 C332 1.350 . S
C327 N335 1.427 . S
C328 H319 0.930 . S
C328 C326 1.378 . S
C328 C329 1.367 . S
C329 C328 1.367 . S
C329 C331 1.433 . S
C330 C326 1.350 . S
C330 C327 1.463 . S
C330 N334 1.427 . S
C331 H321 0.929 . S
C331 C329 1.433 . S
C331 N334 1.384 . S
C332 H323 0.929 . S
C332 C324 1.378 . S
C332 C327 1.350 . S
C333 H320 0.929 . S
C333 C325 1.433 . S
C333 N335 1.384 . S
N334 C330 1.427 . S
N334 C331 1.384 . S
N335 C327 1.427 . S
N335 C333 1.384 . S
H336 C342 0.930 . S
H337 C346 0.930 . S
H338 C351 0.929 . S
H339 C349 0.929 . S
H340 C344 0.929 . S
H341 C350 0.929 . S
C342 H336 0.930 . S
C342 C343 1.367 . S
C342 C350 1.378 . S
C343 C342 1.367 . S
C343 C351 1.433 . S
C344 H340 0.929 . S
C344 C346 1.378 . S
C344 C348 1.350 . S
C345 C348 1.463 . S
C345 C350 1.350 . S
C345 N353 1.427 . S
C346 H337 0.930 . S
C346 C344 1.378 . S
C346 C347 1.367 . S
C347 C346 1.367 . S
C347 C349 1.433 . S
C348 C344 1.350 . S
C348 C345 1.463 . S
C348 N352 1.427 . S
C349 H339 0.929 . S
C349 C347 1.433 . S
C349 N352 1.384 . S
C350 H341 0.929 . S
C350 C342 1.378 . S
C350 C345 1.350 . S
C351 H338 0.929 . S
C351 C343 1.433 . S
C351 N353 1.384 . S
N352 C348 1.427 . S
N352 C349 1.384 . S
N353 C345 1.427 . S
N353 C351 1.384 . S
H354 C360 0.930 . S
H355 C364 0.930 . S
H356 C369 0.929 . S
H357 C367 0.929 . S
H358 C362 0.929 . S
H359 C368 0.929 . S
C360 H354 0.930 . S
C360 C361 1.367 . S
C360 C368 1.378 . S
C361 C360 1.367 . S
C361 C369 1.433 . S
C362 H358 0.929 . S
C362 C364 1.378 . S
C362 C366 1.350 . S
C363 C366 1.463 . S
C363 C368 1.350 . S
C363 N371 1.427 . S
C364 H355 0.930 . S
C364 C362 1.378 . S
C364 C365 1.367 . S
C365 C364 1.367 . S
C365 C367 1.433 . S
C366 C362 1.350 . S
C366 C363 1.463 . S
C366 N370 1.427 . S
C367 H357 0.929 . S
C367 C365 1.433 . S
C367 N370 1.384 . S
C368 H359 0.929 . S
C368 C360 1.378 . S
C368 C363 1.350 . S
C369 H356 0.929 . S
C369 C361 1.433 . S
C369 N371 1.384 . S
N370 C366 1.427 . S
N370 C367 1.384 . S
N371 C363 1.427 . S
N371 C369 1.384 . S
H372 C378 0.930 . S
H373 C382 0.930 . S
H374 C387 0.929 . S
H375 C385 0.929 . S
H376 C380 0.929 . S
H377 C386 0.929 . S
C378 H372 0.930 . S
C378 C379 1.367 . S
C378 C386 1.378 . S
C379 C378 1.367 . S
C379 C387 1.433 . S
C380 H376 0.929 . S
C380 C382 1.378 . S
C380 C384 1.350 . S
C381 C384 1.463 . S
C381 C386 1.350 . S
C381 N389 1.427 . S
C382 H373 0.930 . S
C382 C380 1.378 . S
C382 C383 1.367 . S
C383 C382 1.367 . S
C383 C385 1.433 . S
C384 C380 1.350 . S
C384 C381 1.463 . S
C384 N388 1.427 . S
C385 H375 0.929 . S
C385 C383 1.433 . S
C385 N388 1.384 . S
C386 H377 0.929 . S
C386 C378 1.378 . S
C386 C381 1.350 . S
C387 H374 0.929 . S
C387 C379 1.433 . S
C387 N389 1.384 . S
N388 C384 1.427 . S
N388 C385 1.384 . S
N389 C381 1.427 . S
N389 C387 1.384 . S
H390 C396 0.930 . S
H391 C400 0.930 . S
H392 C405 0.929 . S
H393 C403 0.929 . S
H394 C398 0.929 1_554 S
H395 C404 0.929 . S
C396 H390 0.930 . S
C396 C397 1.367 . S
C396 C404 1.378 . S
C397 C396 1.367 . S
C397 C405 1.433 1_455 S
C398 H394 0.929 1_556 S
C398 C400 1.378 . S
C398 C402 1.350 1_656 S
C399 C402 1.463 . S
C399 C404 1.350 . S
C399 N407 1.427 1_455 S
C400 H391 0.930 . S
C400 C398 1.378 . S
C400 C401 1.367 1_655 S
C401 C400 1.367 1_455 S
C401 C403 1.433 . S
C402 C398 1.350 1_454 S
C402 C399 1.463 . S
C402 N406 1.427 . S
C403 H393 0.929 . S
C403 C401 1.433 . S
C403 N406 1.384 1_556 S
C404 H395 0.929 . S
C404 C396 1.378 . S
C404 C399 1.350 . S
C405 H392 0.929 . S
C405 C397 1.433 1_655 S
C405 N407 1.384 . S
N406 C402 1.427 . S
N406 C403 1.384 1_554 S
N407 C399 1.427 1_655 S
N407 C405 1.384 . S
H408 C414 0.930 . S
H409 C418 0.929 1_565 S
H410 C423 0.929 . S
H411 C421 0.929 . S
H412 C416 0.929 . S
H413 C422 0.929 . S
C414 H408 0.930 . S
C414 C415 1.367 . S
C414 C422 1.378 . S
C415 C414 1.367 . S
C415 C423 1.433 1_545 S
C416 H412 0.929 . S
C416 C418 1.378 1_565 S
C416 C420 1.350 1_565 S
C417 C420 1.463 . S
C417 C422 1.350 . S
C417 N425 1.427 1_545 S
C418 H409 0.929 1_545 S
C418 C416 1.378 1_545 S
C418 C419 1.368 . S
C419 C418 1.368 . S
C419 C421 1.433 . S
C420 C416 1.350 1_545 S
C420 C417 1.463 . S
C420 N424 1.427 . S
C421 H411 0.929 . S
C421 C419 1.433 . S
C421 N424 1.384 . S
C422 H413 0.929 . S
C422 C414 1.378 . S
C422 C417 1.350 . S
C423 H410 0.929 . S
C423 C415 1.433 1_565 S
C423 N425 1.384 . S
N424 C420 1.427 . S
N424 C421 1.384 . S
N425 C417 1.427 1_565 S
N425 C423 1.384 . S
H426 C432 0.930 . S
H427 C436 0.930 . S
H428 C441 0.929 . S
H429 C439 0.929 . S
H430 C434 0.929 . S
H431 C440 0.929 . S
C432 H426 0.930 . S
C432 C433 1.367 . S
C432 C440 1.378 . S
C433 C432 1.367 . S
C433 C441 1.433 . S
C434 H430 0.929 . S
C434 C436 1.378 . S
C434 C438 1.350 . S
C435 C438 1.463 . S
C435 C440 1.350 . S
C435 N443 1.427 . S
C436 H427 0.930 . S
C436 C434 1.378 . S
C436 C437 1.367 . S
C437 C436 1.367 . S
C437 C439 1.433 . S
C438 C434 1.350 . S
C438 C435 1.463 . S
C438 N442 1.427 . S
C439 H429 0.929 . S
C439 C437 1.433 . S
C439 N442 1.384 . S
C440 H431 0.929 . S
C440 C432 1.378 . S
C440 C435 1.350 . S
C441 H428 0.929 . S
C441 C433 1.433 . S
C441 N443 1.384 . S
N442 C438 1.427 . S
N442 C439 1.384 . S
N443 C435 1.427 . S
N443 C441 1.384 . S
H444 C450 0.930 . S
H445 C454 0.930 . S
H446 C459 0.929 . S
H447 C457 0.929 . S
H448 C452 0.929 . S
H449 C458 0.929 . S
C450 H444 0.930 . S
C450 C451 1.367 . S
C450 C458 1.378 . S
C451 C450 1.367 . S
C451 C459 1.433 1_545 S
C452 H448 0.929 . S
C452 C454 1.378 . S
C452 C456 1.350 1_565 S
C453 C456 1.463 . S
C453 C458 1.350 . S
C453 N461 1.427 1_545 S
C454 H445 0.930 . S
C454 C452 1.378 . S
C454 C455 1.367 1_565 S
C455 C454 1.367 1_545 S
C455 C457 1.433 . S
C456 C452 1.350 1_545 S
C456 C453 1.463 . S
C456 N460 1.427 . S
C457 H447 0.929 . S
C457 C455 1.433 . S
C457 N460 1.384 . S
C458 H449 0.929 . S
C458 C450 1.378 . S
C458 C453 1.350 . S
C459 H446 0.929 . S
C459 C451 1.433 1_565 S
C459 N461 1.384 . S
N460 C456 1.427 . S
N460 C457 1.384 . S
N461 C453 1.427 1_565 S
N461 C459 1.384 . S
H462 C468 0.930 . S
H463 C472 0.930 . S
H464 C477 0.929 . S
H465 C475 0.929 . S
H466 C470 0.929 1_556 S
H467 C476 0.929 . S
C468 H462 0.930 . S
C468 C469 1.367 . S
C468 C476 1.378 . S
C469 C468 1.367 . S
C469 C477 1.433 . S
C470 H466 0.929 1_554 S
C470 C472 1.378 . S
C470 C474 1.350 1_554 S
C471 C474 1.463 . S
C471 C476 1.350 . S
C471 N479 1.427 . S
C472 H463 0.930 . S
C472 C470 1.378 . S
C472 C473 1.367 . S
C473 C472 1.367 . S
C473 C475 1.433 . S
C474 C470 1.350 1_556 S
C474 C471 1.463 . S
C474 N478 1.427 1_556 S
C475 H465 0.929 . S
C475 C473 1.433 . S
C475 N478 1.384 . S
C476 H467 0.929 . S
C476 C468 1.378 . S
C476 C471 1.350 . S
C477 H464 0.929 . S
C477 C469 1.433 . S
C477 N479 1.384 . S
N478 C474 1.427 1_554 S
N478 C475 1.384 . S
N479 C471 1.427 . S
N479 C477 1.384 . S
H480 C486 0.930 . S
H481 C490 0.930 . S
H482 C495 0.929 . S
H483 C493 0.929 . S
H484 C488 0.929 . S
H485 C494 0.929 . S
C486 H480 0.930 . S
C486 C487 1.367 1_655 S
C486 C494 1.378 . S
C487 C486 1.367 1_455 S
C487 C495 1.433 . S
C488 H484 0.929 . S
C488 C490 1.378 . S
C488 C492 1.350 . S
C489 C492 1.463 . S
C489 C494 1.350 1_455 S
C489 N497 1.427 . S
C490 H481 0.930 . S
C490 C488 1.378 . S
C490 C491 1.367 . S
C491 C490 1.367 . S
C491 C493 1.433 1_455 S
C492 C488 1.350 . S
C492 C489 1.463 . S
C492 N496 1.427 1_455 S
C493 H483 0.929 . S
C493 C491 1.433 1_655 S
C493 N496 1.384 . S
C494 H485 0.929 . S
C494 C486 1.378 . S
C494 C489 1.350 1_655 S
C495 H482 0.929 . S
C495 C487 1.433 . S
C495 N497 1.384 . S
N496 C492 1.427 1_655 S
N496 C493 1.384 . S
N497 C489 1.427 . S
N497 C495 1.384 . S
C181 C10 2.994 . S
C185 C169 2.963 . S
C199 C55 1.296 . S
C203 C151 1.329 . S
C217 C90 1.810 . S
C221 C163 1.801 . S
C235 C19 2.893 . S
C239 C172 2.898 . S
C257 C154 1.381 . S
C253 C46 1.323 . S
C275 C160 1.903 . S
C271 C99 1.878 . S
C289 C50 1.820 . S
C293 C133 1.804 . S
C307 C95 0.747 . S
C311 C142 0.732 . S
C325 C6 1.353 . S
C329 C124 1.386 . S
C347 C136 1.843 . S
C343 C59 1.844 . S
C365 C145 0.532 . S
C361 C86 0.600 . S
C379 C15 1.362 . S
C383 C127 1.407 . S
C401 C143 1.063 . S
C397 C18 1.057 . S
C415 C49 1.445 . S
C419 C125 1.484 . S
C433 C98 1.311 . S
C437 C134 1.353 . S
C455 C161 1.367 . S
C451 C58 1.316 . S
C473 C170 1.793 . S
C469 C89 1.723 . S
C487 C9 1.438 . S
C491 C152 1.508 . S
