# Generated by pormake.
# Topology pyr, (3,6)-cn, num edge types: 1
# Building blocks:
#     Node 0, Type 0, BuildingBlock: CUQRIR_clean_linker_1, # of connection points: 3
#     Node 1, Type 0, BuildingBlock: CUQRIR_clean_linker_1, # of connection points: 3
#     Node 2, Type 0, BuildingBlock: CUQRIR_clean_linker_1, # of connection points: 3
#     Node 3, Type 0, BuildingBlock: CUQRIR_clean_linker_1, # of connection points: 3
#     Node 4, Type 0, BuildingBlock: CUQRIR_clean_linker_1, # of connection points: 3
#     Node 5, Type 0, BuildingBlock: CUQRIR_clean_linker_1, # of connection points: 3
#     Node 6, Type 0, BuildingBlock: CUQRIR_clean_linker_1, # of connection points: 3
#     Node 7, Type 0, BuildingBlock: CUQRIR_clean_linker_1, # of connection points: 3
#     Node 8, Type 1, BuildingBlock: MIFKUJ_clean_sbu_0, # of connection points: 6
#     Node 9, Type 1, BuildingBlock: MIFKUJ_clean_sbu_0, # of connection points: 6
#     Node 10, Type 1, BuildingBlock: MIFKUJ_clean_sbu_0, # of connection points: 6
#     Node 11, Type 1, BuildingBlock: MIFKUJ_clean_sbu_0, # of connection points: 6
#     Edge 12, Type (0, 1), BuildingBlock: XUDNAN_clean_linker_2, # of connection points: 2
#     Edge 13, Type (0, 1), BuildingBlock: XUDNAN_clean_linker_2, # of connection points: 2
#     Edge 14, Type (0, 1), BuildingBlock: XUDNAN_clean_linker_2, # of connection points: 2
#     Edge 15, Type (0, 1), BuildingBlock: XUDNAN_clean_linker_2, # of connection points: 2
#     Edge 16, Type (0, 1), BuildingBlock: XUDNAN_clean_linker_2, # of connection points: 2
#     Edge 17, Type (0, 1), BuildingBlock: XUDNAN_clean_linker_2, # of connection points: 2
#     Edge 18, Type (0, 1), BuildingBlock: XUDNAN_clean_linker_2, # of connection points: 2
#     Edge 19, Type (0, 1), BuildingBlock: XUDNAN_clean_linker_2, # of connection points: 2
#     Edge 20, Type (0, 1), BuildingBlock: XUDNAN_clean_linker_2, # of connection points: 2
#     Edge 21, Type (0, 1), BuildingBlock: XUDNAN_clean_linker_2, # of connection points: 2
#     Edge 22, Type (0, 1), BuildingBlock: XUDNAN_clean_linker_2, # of connection points: 2
#     Edge 23, Type (0, 1), BuildingBlock: XUDNAN_clean_linker_2, # of connection points: 2
#     Edge 24, Type (0, 1), BuildingBlock: XUDNAN_clean_linker_2, # of connection points: 2
#     Edge 25, Type (0, 1), BuildingBlock: XUDNAN_clean_linker_2, # of connection points: 2
#     Edge 26, Type (0, 1), BuildingBlock: XUDNAN_clean_linker_2, # of connection points: 2
#     Edge 27, Type (0, 1), BuildingBlock: XUDNAN_clean_linker_2, # of connection points: 2
#     Edge 28, Type (0, 1), BuildingBlock: XUDNAN_clean_linker_2, # of connection points: 2
#     Edge 29, Type (0, 1), BuildingBlock: XUDNAN_clean_linker_2, # of connection points: 2
#     Edge 30, Type (0, 1), BuildingBlock: XUDNAN_clean_linker_2, # of connection points: 2
#     Edge 31, Type (0, 1), BuildingBlock: XUDNAN_clean_linker_2, # of connection points: 2
#     Edge 32, Type (0, 1), BuildingBlock: XUDNAN_clean_linker_2, # of connection points: 2
#     Edge 33, Type (0, 1), BuildingBlock: XUDNAN_clean_linker_2, # of connection points: 2
#     Edge 34, Type (0, 1), BuildingBlock: XUDNAN_clean_linker_2, # of connection points: 2
#     Edge 35, Type (0, 1), BuildingBlock: XUDNAN_clean_linker_2, # of connection points: 2
# Relax obj value: 0.096
# Max RMSD: 0.225
# Mean RMSD: 0.152
data_MOF--net-pyr--node1-MIFKUJ_clean_sbu_0--node2-CUQRIR_clean_linker_1--edge1-XUDNAN_clean_linker_2
_symmetry_space_group_name_H-M    P1
_symmetry_Int_Tables_number       1
_symmetry_cell_setting            triclinic
loop_
_symmetry_equiv_pos_as_xyz
'x, y, z'
_cell_length_a     36.658993
_cell_length_b     33.1635
_cell_length_c     34.343594
_cell_angle_alpha  83.441551
_cell_angle_beta   89.808562
_cell_angle_gamma 100.48718
loop_
_atom_site_label
_atom_site_type_symbol
_atom_site_fract_x
_atom_site_fract_y
_atom_site_fract_z
_atom_type_partial_charge
C0 C 0.15707 0.18591 0.19179 0.0
N1 N 0.18495 0.16575 0.20306 0.0
N2 N 0.16609 0.21032 0.1575 0.0
C3 C 0.12288 0.18544 0.21653 0.0
C4 C 0.20085 0.20489 0.14877 0.0
N5 N 0.2124 0.17795 0.17662 0.0
C6 C 0.22284 0.22444 0.11226 0.0
H7 H 0.10086 0.1597 0.20971 0.0
H8 H 0.11236 0.21478 0.21053 0.0
H9 H 0.12868 0.18058 0.24824 0.0
H10 H 0.2411 0.25334 0.11868 0.0
H11 H 0.20424 0.23213 0.08821 0.0
H12 H 0.24065 0.20355 0.10259 0.0
C13 C 0.33985 0.83051 0.6728 0.0
N14 N 0.33143 0.85785 0.69635 0.0
N15 N 0.36938 0.81437 0.68647 0.0
C16 C 0.3217 0.82278 0.63439 0.0
C17 C 0.37875 0.83305 0.71899 0.0
N18 N 0.3561 0.85999 0.72467 0.0
C19 C 0.40805 0.8224 0.74698 0.0
H20 H 0.2977 0.79693 0.63977 0.0
H21 H 0.34133 0.81429 0.61346 0.0
H22 H 0.3114 0.85045 0.62085 0.0
H23 H 0.43465 0.84378 0.73903 0.0
H24 H 0.41231 0.79033 0.74551 0.0
H25 H 0.40023 0.82571 0.77754 0.0
C26 C 0.61648 0.34498 0.82874 0.0
N27 N 0.63781 0.34396 0.86072 0.0
N28 N 0.6328 0.3744 0.80036 0.0
C29 C 0.57985 0.31681 0.82506 0.0
C30 C 0.66503 0.39123 0.81614 0.0
N31 N 0.66824 0.37246 0.85288 0.0
C32 C 0.69408 0.42459 0.79505 0.0
H33 H 0.58493 0.28823 0.81376 0.0
H34 H 0.56181 0.33174 0.80431 0.0
H35 H 0.56536 0.30802 0.85404 0.0
H36 H 0.68168 0.4446 0.77282 0.0
H37 H 0.71402 0.40999 0.77971 0.0
H38 H 0.70958 0.44393 0.81608 0.0
C39 C 0.84448 0.62392 0.29142 0.0
N40 N 0.87527 0.65186 0.2786 0.0
N41 N 0.82947 0.63493 0.32385 0.0
C42 C 0.82909 0.58606 0.27216 0.0
C43 C 0.85179 0.67062 0.3301 0.0
N44 N 0.8795 0.68104 0.30271 0.0
C45 C 0.8457 0.69624 0.36226 0.0
H46 H 0.83061 0.59341 0.23978 0.0
H47 H 0.80005 0.57294 0.28165 0.0
H48 H 0.84608 0.56205 0.28022 0.0
H49 H 0.86113 0.68657 0.38838 0.0
H50 H 0.81585 0.69174 0.37064 0.0
H51 H 0.85613 0.72955 0.35322 0.0
C52 C 0.81973 0.87923 0.84483 0.0
N53 N 0.84243 0.87194 0.81633 0.0
N54 N 0.79977 0.90813 0.83093 0.0
C55 C 0.81415 0.85505 0.88496 0.0
C56 C 0.81079 0.91769 0.79275 0.0
N57 N 0.83664 0.89553 0.78389 0.0
C58 C 0.79745 0.94971 0.76462 0.0
H59 H 0.78591 0.85423 0.89706 0.0
H60 H 0.83473 0.86995 0.90497 0.0
H61 H 0.81838 0.82287 0.88406 0.0
H62 H 0.78816 0.97354 0.78044 0.0
H63 H 0.77363 0.93443 0.74853 0.0
H64 H 0.81968 0.96469 0.74288 0.0
C65 C 0.71838 0.19328 0.39906 0.0
N66 N 0.73068 0.16597 0.37811 0.0
N67 N 0.69555 0.2142 0.3774 0.0
C68 C 0.72555 0.19646 0.44176 0.0
C69 C 0.69481 0.1989 0.34246 0.0
N70 N 0.71597 0.1693 0.34282 0.0
C71 C 0.67033 0.20996 0.30919 0.0
H72 H 0.70328 0.175 0.45952 0.0
H73 H 0.72527 0.22817 0.44888 0.0
H74 H 0.75262 0.18782 0.44989 0.0
H75 H 0.68703 0.21843 0.28155 0.0
H76 H 0.65708 0.23648 0.3142 0.0
H77 H 0.64855 0.18281 0.30531 0.0
C78 C 0.31504 0.63566 0.2257 0.0
N79 N 0.34968 0.65883 0.22518 0.0
N80 N 0.29379 0.65277 0.19871 0.0
C81 C 0.30161 0.59695 0.25314 0.0
C82 C 0.31635 0.68731 0.18207 0.0
N83 N 0.35008 0.69124 0.19842 0.0
C84 C 0.30551 0.71783 0.15034 0.0
H85 H 0.3109 0.57057 0.24144 0.0
H86 H 0.27096 0.58977 0.25601 0.0
H87 H 0.31341 0.59989 0.28261 0.0
H88 H 0.30574 0.74765 0.16215 0.0
H89 H 0.27754 0.7072 0.13909 0.0
H90 H 0.32628 0.72361 0.12581 0.0
C91 C 0.13733 0.36985 0.72425 0.0
N92 N 0.15912 0.35837 0.69708 0.0
N93 N 0.15027 0.40922 0.73125 0.0
C94 C 0.10188 0.34381 0.74179 0.0
C95 C 0.18065 0.42137 0.70729 0.0
N96 N 0.18596 0.39057 0.68645 0.0
C97 C 0.20526 0.46324 0.7044 0.0
H98 H 0.08889 0.32195 0.72148 0.0
H99 H 0.08185 0.36342 0.74891 0.0
H100 H 0.10823 0.32575 0.76934 0.0
H101 H 0.20344 0.47779 0.7317 0.0
H102 H 0.19618 0.4833 0.67962 0.0
H103 H 0.23458 0.46117 0.69854 0.0
Zn104 Zn 0.0771 0.02619 0.54441 0.0
Zn105 Zn 0.99657 0.99073 0.45976 0.0
C106 C 0.0939 0.11433 0.55803 0.0
O107 O 0.10629 0.12209 0.52151 0.0
C108 C 0.99465 0.91042 0.42736 0.0
O109 O 0.01376 0.89945 0.45779 0.0
O110 O 0.1203 0.00377 0.56944 0.0
O111 O 0.0291 0.98636 0.56142 0.0
O112 O 0.98799 0.96713 0.51641 0.0
C113 C 0.12024 0.96888 0.58914 0.0
O114 O 0.0894 0.94135 0.59327 0.0
O115 O 0.07885 0.07768 0.57142 0.0
C116 C 0.92445 0.00725 0.4572 0.0
O117 O 0.91999 0.96897 0.47393 0.0
O118 O 0.95717 0.02617 0.44728 0.0
O119 O 0.04779 0.02137 0.44404 0.0
O120 O 0.09123 0.04091 0.48663 0.0
O121 O 0.98505 0.94562 0.42399 0.0
C122 C 0.99842 0.96549 0.55176 0.0
C123 C 0.08045 0.03871 0.45161 0.0
Zn124 Zn 0.52108 0.99831 0.99513 0.0
Zn125 Zn 0.50239 0.04298 0.10312 0.0
C126 C 0.45013 0.97998 0.95514 0.0
O127 O 0.43504 0.97864 0.99012 0.0
C128 C 0.57521 0.06525 0.13851 0.0
O129 O 0.5853 0.08592 0.10408 0.0
O130 O 0.56933 0.98192 0.97996 0.0
O131 O 0.53424 0.05937 0.9977 0.0
O132 O 0.52401 0.08044 0.05514 0.0
C133 C 0.5759 0.97273 0.94595 0.0
O134 O 0.54988 0.97181 0.91971 0.0
O135 O 0.48529 0.98834 0.95092 0.0
C136 C 0.42642 0.05158 0.12857 0.0
O137 O 0.41542 0.01334 0.1211 0.0
O138 O 0.46048 0.06826 0.12332 0.0
O139 O 0.48563 0.98213 0.09971 0.0
O140 O 0.49928 0.96067 0.04319 0.0
O141 O 0.54199 0.04582 0.14426 0.0
C142 C 0.53523 0.08792 0.01958 0.0
C143 C 0.48635 0.95347 0.07822 0.0
Zn144 Zn 0.51782 0.47798 0.47307 0.0
Zn145 Zn 0.4888 0.53837 0.52633 0.0
C146 C 0.57918 0.52903 0.43195 0.0
O147 O 0.55782 0.5185 0.40275 0.0
C148 C 0.42934 0.48014 0.56734 0.0
O149 O 0.45152 0.4869 0.59681 0.0
O150 O 0.52851 0.42892 0.44793 0.0
O151 O 0.50894 0.45498 0.52999 0.0
O152 O 0.52949 0.51371 0.55297 0.0
C153 C 0.55901 0.41842 0.45875 0.0
O154 O 0.57912 0.43913 0.48403 0.0
O155 O 0.56681 0.51772 0.46689 0.0
C156 C 0.45036 0.59596 0.55862 0.0
O157 O 0.42162 0.57457 0.54287 0.0
O158 O 0.48209 0.58612 0.5554 0.0
O159 O 0.49722 0.56269 0.47011 0.0
O160 O 0.47987 0.50574 0.44242 0.0
O161 O 0.44004 0.49742 0.53317 0.0
C162 C 0.52642 0.47479 0.5558 0.0
C163 C 0.48332 0.54478 0.44137 0.0
Zn164 Zn 0.96214 0.56282 0.95791 0.0
Zn165 Zn 0.01769 0.50757 0.02603 0.0
C166 C 0.90841 0.49401 0.93879 0.0
O167 O 0.93046 0.49866 0.90773 0.0
C168 C 0.05716 0.54288 0.08762 0.0
O169 O 0.02736 0.52166 0.10661 0.0
O170 O 0.94522 0.60802 0.92242 0.0
O171 O 0.97647 0.58594 0.00828 0.0
O172 O 0.97168 0.52703 0.04647 0.0
C173 C 0.95766 0.64608 0.92429 0.0
O174 O 0.98225 0.6569 0.95069 0.0
O175 O 0.91735 0.51678 0.96592 0.0
C176 C 0.05368 0.44213 0.04741 0.0
O177 O 0.08013 0.47131 0.03093 0.0
O178 O 0.02082 0.44944 0.04938 0.0
O179 O 0.03181 0.50895 0.96819 0.0
O180 O 1.00188 0.54692 0.92703 0.0
O181 O 0.05984 0.54277 0.05072 0.0
C182 C 0.97011 0.56538 0.04187 0.0
C183 C 0.02622 0.52452 0.93364 0.0
H184 H 0.13682 0.09663 0.22703 0.0
H185 H 0.23255 0.17996 0.26184 0.0
H186 H 0.22128 0.14862 0.33094 0.0
H187 H 0.0811 0.10896 0.29954 0.0
H188 H 0.05512 0.05695 0.30762 0.0
H189 H 0.07645 0.07657 0.26045 0.0
H190 H 0.1126 0.01612 0.26318 0.0
H191 H 0.09058 0.99541 0.31004 0.0
H192 H 0.14047 0.00575 0.305 0.0
H193 H 0.19186 0.11777 0.39707 0.0
H194 H 0.14947 0.088 0.45345 0.0
H195 H 0.07105 0.02771 0.37434 0.0
C196 C 0.1564 0.10653 0.2491 0.0
C197 C 0.18582 0.13997 0.2395 0.0
C198 C 0.21042 0.15361 0.26884 0.0
C199 C 0.20397 0.13619 0.30808 0.0
C200 C 0.17296 0.10506 0.31713 0.0
C201 C 0.14992 0.08989 0.28824 0.0
C202 C 0.11554 0.061 0.30563 0.0
C203 C 0.07998 0.07684 0.29254 0.0
C204 C 0.11477 0.01695 0.29536 0.0
C205 C 0.12191 0.06357 0.34878 0.0
C206 C 0.15543 0.08846 0.35502 0.0
C207 C 0.16591 0.09756 0.39253 0.0
C208 C 0.14156 0.08069 0.42436 0.0
C209 C 0.10687 0.05553 0.41839 0.0
C210 C 0.09733 0.04673 0.38004 0.0
H211 H 0.41648 0.91327 0.74198 0.0
H212 H 0.30254 0.86368 0.77792 0.0
H213 H 0.31184 0.89781 0.83882 0.0
H214 H 0.45323 0.89228 0.83129 0.0
H215 H 0.48936 0.93746 0.828 0.0
H216 H 0.4715 0.91729 0.78407 0.0
H217 H 0.45528 0.98818 0.75797 0.0
H218 H 0.47358 0.00889 0.80169 0.0
H219 H 0.42677 0.0122 0.78769 0.0
H220 H 0.337 0.9284 0.89999 0.0
H221 H 0.37462 0.95327 0.95501 0.0
H222 H 0.47301 0.98013 0.8791 0.0
C223 C 0.3933 0.91078 0.76225 0.0
C224 C 0.3588 0.88621 0.75556 0.0
C225 C 0.32897 0.88298 0.78256 0.0
C226 C 0.33414 0.90209 0.81716 0.0
C227 C 0.36924 0.92446 0.82392 0.0
C228 C 0.3982 0.9292 0.7969 0.0
C229 C 0.43425 0.95044 0.81268 0.0
C230 C 0.4638 0.92271 0.8141 0.0
C231 C 0.44828 0.99243 0.78858 0.0
C232 C 0.42149 0.9557 0.8534 0.0
C233 C 0.38382 0.94119 0.85921 0.0
C234 C 0.36637 0.94047 0.8955 0.0
C235 C 0.38801 0.95457 0.92663 0.0
C236 C 0.42679 0.96876 0.92141 0.0
C237 C 0.44342 0.96982 0.88405 0.0
H238 H 0.61396 0.44548 0.76758 0.0
H239 H 0.62189 0.32133 0.74612 0.0
H240 H 0.59584 0.33345 0.68012 0.0
H241 H 0.52856 0.44997 0.72019 0.0
H242 H 0.54144 0.50325 0.69974 0.0
H243 H 0.56174 0.48511 0.74454 0.0
H244 H 0.62762 0.51113 0.7136 0.0
H245 H 0.60751 0.52963 0.66878 0.0
H246 H 0.6393 0.49417 0.66787 0.0
H247 H 0.56652 0.35843 0.61803 0.0
H248 H 0.5384 0.39525 0.56271 0.0
H249 H 0.55142 0.5042 0.62415 0.0
C250 C 0.61073 0.42129 0.74852 0.0
C251 C 0.62009 0.38266 0.76128 0.0
C252 C 0.61487 0.35112 0.73634 0.0
C253 C 0.60017 0.35777 0.69902 0.0
C254 C 0.59101 0.39623 0.68723 0.0
C255 C 0.59632 0.42757 0.71111 0.0
C256 C 0.58375 0.46584 0.69163 0.0
C257 C 0.55198 0.47666 0.71545 0.0
C258 C 0.6165 0.50235 0.68508 0.0
C259 C 0.57027 0.45103 0.6532 0.0
C260 C 0.57458 0.41076 0.65128 0.0
C261 C 0.56321 0.39006 0.61907 0.0
C262 C 0.54714 0.41116 0.58789 0.0
C263 C 0.54281 0.4526 0.58909 0.0
C264 C 0.55462 0.47265 0.62223 0.0
H265 H 0.91008 0.59024 0.26172 0.0
H266 H 0.88653 0.70931 0.2152 0.0
H267 H 0.91472 0.70292 0.15154 0.0
H268 H 0.99644 0.59273 0.20234 0.0
H269 H 0.98347 0.53911 0.19501 0.0
H270 H 0.96887 0.55686 0.23921 0.0
H271 H 0.90046 0.52684 0.22531 0.0
H272 H 0.91477 0.50946 0.1809 0.0
H273 H 0.88104 0.54293 0.17922 0.0
H274 H 0.93909 0.6806 0.09123 0.0
H275 H 0.95713 0.6442 0.03792 0.0
H276 H 0.95879 0.53528 0.12076 0.0
C277 C 0.91189 0.61538 0.23834 0.0
C278 C 0.89735 0.6511 0.24386 0.0
C279 C 0.89925 0.68289 0.21241 0.0
C280 C 0.91472 0.67911 0.17588 0.0
C281 C 0.9277 0.64296 0.17103 0.0
C282 C 0.92646 0.61156 0.20138 0.0
C283 C 0.93823 0.57399 0.18715 0.0
C284 C 0.97387 0.56516 0.20712 0.0
C285 C 0.90675 0.53607 0.19352 0.0
C286 C 0.94538 0.58883 0.14387 0.0
C287 C 0.93978 0.62898 0.13547 0.0
C288 C 0.94385 0.64928 0.09753 0.0
C289 C 0.95404 0.62815 0.06736 0.0
C290 C 0.95963 0.58675 0.07494 0.0
C291 C 0.95511 0.56693 0.11389 0.0
H292 H 0.22492 0.10077 0.17181 0.0
H293 H 0.2791 0.22627 0.18155 0.0
H294 H 0.34061 0.20618 0.17531 0.0
H295 H 0.29555 0.04848 0.22363 0.0
H296 H 0.29115 0.00917 0.19089 0.0
H297 H 0.25187 0.03245 0.2009 0.0
H298 H 0.24548 0.05257 0.12644 0.0
H299 H 0.28486 0.02969 0.11621 0.0
H300 H 0.28468 0.08291 0.09834 0.0
H301 H 0.39545 0.1738 0.16284 0.0
H302 H 0.44043 0.13185 0.14465 0.0
H303 H 0.35082 0.02684 0.14117 0.0
C304 C 0.24992 0.12352 0.1736 0.0
C305 C 0.24775 0.16489 0.17755 0.0
C306 C 0.28065 0.19442 0.17879 0.0
C307 C 0.31551 0.18323 0.17531 0.0
C308 C 0.31687 0.14234 0.17052 0.0
C309 C 0.28498 0.11285 0.16977 0.0
C310 C 0.29417 0.07183 0.16138 0.0
C311 C 0.28249 0.03851 0.19629 0.0
C312 C 0.27623 0.05849 0.12333 0.0
C313 C 0.3361 0.08309 0.15672 0.0
C314 C 0.34859 0.12379 0.16256 0.0
C315 C 0.38603 0.14178 0.15854 0.0
C316 C 0.41139 0.11765 0.1481 0.0
C317 C 0.39929 0.07595 0.14149 0.0
C318 C 0.36107 0.05851 0.1462 0.0
H319 H 0.25846 0.8297 0.68879 0.0
H320 H 0.34114 0.94107 0.68668 0.0
H321 H 0.2942 0.98297 0.6633 0.0
H322 H 0.21737 0.85746 0.60187 0.0
H323 H 0.17041 0.83441 0.61727 0.0
H324 H 0.20863 0.81401 0.63946 0.0
H325 H 0.18536 0.82417 0.70835 0.0
H326 H 0.14666 0.84409 0.68647 0.0
H327 H 0.17726 0.87427 0.71763 0.0
H328 H 0.2406 0.01107 0.63191 0.0
H329 H 0.18326 0.02454 0.59973 0.0
H330 H 0.13503 0.89423 0.62242 0.0
C331 C 0.26617 0.86302 0.68439 0.0
C332 C 0.30305 0.88248 0.68974 0.0
C333 C 0.31275 0.92596 0.6833 0.0
C334 C 0.28636 0.9498 0.66982 0.0
C335 C 0.25044 0.92951 0.66333 0.0
C336 C 0.24018 0.88711 0.67096 0.0
C337 C 0.20062 0.87254 0.65909 0.0
C338 C 0.1992 0.84286 0.62755 0.0
C339 C 0.17602 0.8526 0.69503 0.0
C340 C 0.19045 0.91324 0.64258 0.0
C341 C 0.21952 0.94573 0.64543 0.0
C342 C 0.21747 0.98596 0.6301 0.0
C343 C 0.18483 0.99324 0.61163 0.0
C344 C 0.15454 0.96046 0.60866 0.0
C345 C 0.15749 0.92 0.62457 0.0
H346 H 0.73906 0.36771 0.83574 0.0
H347 H 0.6684 0.39862 0.92447 0.0
H348 H 0.72345 0.42234 0.96293 0.0
H349 H 0.81527 0.34008 0.90074 0.0
H350 H 0.85054 0.36503 0.86476 0.0
H351 H 0.80547 0.34158 0.84924 0.0
H352 H 0.79864 0.41093 0.80941 0.0
H353 H 0.84346 0.43461 0.82488 0.0
H354 H 0.80329 0.45682 0.83388 0.0
H355 H 0.78637 0.45182 0.98664 0.0
H356 H 0.85108 0.48748 0.99214 0.0
H357 H 0.881 0.44176 0.88521 0.0
C358 C 0.73534 0.37831 0.86389 0.0
C359 C 0.69958 0.38028 0.87788 0.0
C360 C 0.69546 0.39527 0.91422 0.0
C361 C 0.72664 0.40914 0.936 0.0
C362 C 0.76174 0.40802 0.92081 0.0
C363 C 0.76623 0.39295 0.88551 0.0
C364 C 0.80673 0.4004 0.87282 0.0
C365 C 0.8203 0.35932 0.87185 0.0
C366 C 0.8134 0.4273 0.83291 0.0
C367 C 0.82426 0.42337 0.90572 0.0
C368 C 0.79798 0.42664 0.93358 0.0
C369 C 0.80726 0.44891 0.96532 0.0
C370 C 0.84413 0.4691 0.96819 0.0
C371 C 0.87119 0.46742 0.93914 0.0
C372 C 0.86111 0.44338 0.90809 0.0
H373 H 0.75947 0.62216 0.29725 0.0
H374 H 0.82501 0.60594 0.40042 0.0
H375 H 0.76748 0.5795 0.44069 0.0
H376 H 0.68484 0.65536 0.34303 0.0
H377 H 0.6491 0.62789 0.31498 0.0
H378 H 0.69532 0.64477 0.2943 0.0
H379 H 0.69868 0.56981 0.28205 0.0
H380 H 0.65223 0.55284 0.30207 0.0
H381 H 0.68955 0.52902 0.32221 0.0
H382 H 0.70264 0.55742 0.46965 0.0
H383 H 0.63554 0.53475 0.48445 0.0
H384 H 0.6125 0.56338 0.36148 0.0
C385 C 0.7615 0.61212 0.32816 0.0
C386 C 0.79635 0.61535 0.34593 0.0
C387 C 0.79832 0.60314 0.38656 0.0
C388 C 0.76591 0.58835 0.40951 0.0
C389 C 0.73183 0.58591 0.39121 0.0
C390 C 0.72942 0.59693 0.35135 0.0
C391 C 0.68944 0.59095 0.33882 0.0
C392 C 0.67908 0.6322 0.32178 0.0
C393 C 0.68204 0.55873 0.30957 0.0
C394 C 0.66971 0.57497 0.37785 0.0
C395 C 0.69461 0.57263 0.40776 0.0
C396 C 0.68287 0.55897 0.44644 0.0
C397 C 0.64469 0.54642 0.4546 0.0
C398 C 0.61878 0.54732 0.42414 0.0
C399 C 0.63159 0.56233 0.38541 0.0
H400 H 0.18801 0.29189 0.13343 0.0
H401 H 0.09476 0.19051 0.13651 0.0
H402 H 0.05478 0.23878 0.10857 0.0
H403 H 0.13923 0.36732 0.15941 0.0
H404 H 0.1651 0.40917 0.12664 0.0
H405 H 0.18652 0.36646 0.14547 0.0
H406 H 0.20168 0.35345 0.07469 0.0
H407 H 0.18075 0.39653 0.05567 0.0
H408 H 0.1649 0.34635 0.04002 0.0
H409 H 0.02413 0.29957 0.08507 0.0
H410 H 0.00689 0.36685 0.06111 0.0
H411 H 0.1215 0.42711 0.06979 0.0
C412 C 0.15941 0.27984 0.12731 0.0
C413 C 0.14427 0.23765 0.13708 0.0
C414 C 0.10658 0.22291 0.12939 0.0
C415 C 0.08379 0.25004 0.11357 0.0
C416 C 0.09934 0.29172 0.10506 0.0
C417 C 0.13646 0.30643 0.11104 0.0
C418 C 0.14636 0.35256 0.09949 0.0
C419 C 0.1601 0.37519 0.13487 0.0
C420 C 0.17512 0.36282 0.06544 0.0
C421 C 0.10896 0.3616 0.08656 0.0
C422 C 0.08207 0.32624 0.09025 0.0
C423 C 0.04506 0.3274 0.08158 0.0
C424 C 0.03546 0.36569 0.06823 0.0
C425 C 0.06289 0.40201 0.0633 0.0
C426 C 0.09999 0.39975 0.07277 0.0
H427 H 0.64341 0.26454 0.86204 0.0
H428 H 0.61152 0.35344 0.93177 0.0
H429 H 0.58697 0.29728 0.98421 0.0
H430 H 0.56263 0.19416 0.88012 0.0
H431 H 0.58278 0.14836 0.88107 0.0
H432 H 0.60525 0.19564 0.85322 0.0
H433 H 0.6659 0.19275 0.8911 0.0
H434 H 0.64388 0.1449 0.91863 0.0
H435 H 0.66457 0.18781 0.94394 0.0
H436 H 0.55969 0.23062 0.02526 0.0
H437 H 0.53153 0.15923 0.05166 0.0
H438 H 0.57706 0.11364 0.95196 0.0
C439 C 0.6328 0.272 0.88927 0.0
C440 C 0.63098 0.31318 0.89412 0.0
C441 C 0.61497 0.32222 0.92879 0.0
C442 C 0.60055 0.29045 0.95836 0.0
C443 C 0.60188 0.24986 0.9523 0.0
C444 C 0.6177 0.24057 0.91858 0.0
C445 C 0.61155 0.19443 0.91684 0.0
C446 C 0.58922 0.18247 0.88068 0.0
C447 C 0.64869 0.17907 0.91769 0.0
C448 C 0.58911 0.17919 0.9544 0.0
C449 C 0.58428 0.21153 0.97475 0.0
C450 C 0.56358 0.20503 0.00975 0.0
C451 C 0.54758 0.16438 0.02444 0.0
C452 C 0.55191 0.13081 0.00382 0.0
C453 C 0.57304 0.13857 0.96837 0.0
H454 H 0.93692 0.69158 0.35043 0.0
H455 H 0.87996 0.75355 0.25893 0.0
H456 H 0.91378 0.8209 0.27395 0.0
H457 H 0.92274 0.75319 0.4161 0.0
H458 H 0.96554 0.75471 0.44208 0.0
H459 H 0.94801 0.71134 0.41627 0.0
H460 H 0.00931 0.7224 0.37563 0.0
H461 H 0.02774 0.76525 0.40211 0.0
H462 H 0.02716 0.77236 0.3493 0.0
H463 H 0.94191 0.88058 0.30795 0.0
H464 H 0.96397 0.92822 0.35643 0.0
H465 H 0.99965 0.82818 0.43036 0.0
C466 C 0.93394 0.71938 0.33185 0.0
C467 C 0.90793 0.7173 0.30159 0.0
C468 C 0.90193 0.75427 0.27991 0.0
C469 C 0.9205 0.79277 0.28896 0.0
C470 C 0.94452 0.79386 0.32038 0.0
C471 C 0.95157 0.75806 0.34138 0.0
C472 C 0.97282 0.76747 0.37814 0.0
C473 C 0.95096 0.74538 0.41532 0.0
C474 C 0.01157 0.75621 0.37616 0.0
C475 C 0.97524 0.81383 0.3754 0.0
C476 C 0.95931 0.82849 0.3415 0.0
C477 C 0.9552 0.8696 0.33413 0.0
C478 C 0.9676 0.8964 0.36205 0.0
C479 C 0.98372 0.88205 0.39721 0.0
C480 C 0.98798 0.84027 0.40356 0.0
H481 H 0.33823 0.7414 0.66188 0.0
H482 H 0.44292 0.82432 0.67094 0.0
H483 H 0.47578 0.77595 0.64135 0.0
H484 H 0.3716 0.64548 0.68136 0.0
H485 H 0.34255 0.62015 0.64579 0.0
H486 H 0.32766 0.66033 0.66948 0.0
H487 H 0.32002 0.7007 0.60169 0.0
H488 H 0.33475 0.66058 0.5778 0.0
H489 H 0.35869 0.71326 0.56717 0.0
H490 H 0.49698 0.71842 0.61106 0.0
H491 H 0.50485 0.65777 0.57845 0.0
H492 H 0.38562 0.6145 0.5853 0.0
C493 C 0.36804 0.74926 0.65746 0.0
C494 C 0.38824 0.7862 0.669 0.0
C495 C 0.42721 0.79568 0.66294 0.0
C496 C 0.44599 0.76855 0.64602 0.0
C497 C 0.42527 0.73231 0.63495 0.0
C498 C 0.38712 0.72277 0.6401 0.0
C499 C 0.37127 0.68262 0.62429 0.0
C500 C 0.35215 0.65024 0.6572 0.0
C501 C 0.34461 0.68973 0.59074 0.0
C502 C 0.40646 0.67109 0.6094 0.0
C503 C 0.43733 0.69994 0.61618 0.0
C504 C 0.47301 0.69567 0.60546 0.0
C505 C 0.4772 0.6611 0.58705 0.0
C506 C 0.44585 0.63157 0.57918 0.0
C507 C 0.4101 0.63672 0.59066 0.0
H508 H 0.90989 0.92093 0.76851 0.0
H509 H 0.80559 0.87534 0.71622 0.0
H510 H 0.83778 0.88037 0.65165 0.0
H511 H 0.94339 0.99645 0.68974 0.0
H512 H 0.99125 0.99081 0.69391 0.0
H513 H 0.96075 0.97872 0.73644 0.0
H514 H 0.97667 0.90532 0.74752 0.0
H515 H 0.00715 0.91716 0.70482 0.0
H516 H 0.9701 0.87285 0.70852 0.0
H517 H 0.88064 0.89357 0.59288 0.0
H518 H 0.92929 0.92032 0.54221 0.0
H519 H 0.00597 0.96112 0.63204 0.0
C520 C 0.89421 0.91151 0.74338 0.0
C521 C 0.85554 0.89752 0.74681 0.0
C522 C 0.83531 0.88607 0.71365 0.0
C523 C 0.85339 0.88858 0.67716 0.0
C524 C 0.89165 0.90284 0.6745 0.0
C525 C 0.91181 0.91446 0.70664 0.0
C526 C 0.95196 0.93229 0.69512 0.0
C527 C 0.96243 0.97723 0.70434 0.0
C528 C 0.97801 0.90529 0.71519 0.0
C529 C 0.95105 0.92983 0.65131 0.0
C530 C 0.91618 0.91193 0.64023 0.0
C531 C 0.90809 0.90752 0.60121 0.0
C532 C 0.93601 0.92292 0.57258 0.0
C533 C 0.97154 0.9432 0.58293 0.0
C534 C 0.97926 0.94566 0.62305 0.0
H535 H 0.73133 0.1778 0.26525 0.0
H536 H 0.68264 0.09069 0.36284 0.0
H537 H 0.65026 0.04502 0.31719 0.0
H538 H 0.65409 0.17801 0.21861 0.0
H539 H 0.67136 0.18277 0.16877 0.0
H540 H 0.70182 0.20087 0.20635 0.0
H541 H 0.74767 0.15411 0.18981 0.0
H542 H 0.71782 0.13649 0.15118 0.0
H543 H 0.73112 0.09964 0.18865 0.0
H544 H 0.60977 0.02018 0.26439 0.0
H545 H 0.56871 0.01445 0.20777 0.0
H546 H 0.64084 0.11906 0.14314 0.0
C547 C 0.71555 0.14789 0.27658 0.0
C548 C 0.70986 0.13727 0.31735 0.0
C549 C 0.68823 0.09865 0.33169 0.0
C550 C 0.66939 0.07276 0.30587 0.0
C551 C 0.67269 0.08593 0.26577 0.0
C552 C 0.6959 0.12227 0.25102 0.0
C553 C 0.68935 0.13332 0.20784 0.0
C554 C 0.6785 0.17625 0.19999 0.0
C555 C 0.72353 0.13071 0.18289 0.0
C556 C 0.65713 0.09926 0.20137 0.0
C557 C 0.64849 0.07172 0.23489 0.0
C558 C 0.61697 0.04074 0.23759 0.0
C559 C 0.5936 0.03796 0.20539 0.0
C560 C 0.60172 0.06613 0.17095 0.0
C561 C 0.63433 0.09655 0.16877 0.0
H562 H 0.37724 0.58852 0.24261 0.0
H563 H 0.38644 0.71426 0.26963 0.0
H564 H 0.4288 0.70043 0.3233 0.0
H565 H 0.3674 0.54455 0.33905 0.0
H566 H 0.39257 0.50351 0.33372 0.0
H567 H 0.36982 0.5253 0.29228 0.0
H568 H 0.43188 0.54216 0.25233 0.0
H569 H 0.45486 0.52003 0.29358 0.0
H570 H 0.47207 0.57223 0.27205 0.0
H571 H 0.46277 0.6708 0.37883 0.0
H572 H 0.48636 0.62813 0.43272 0.0
H573 H 0.45153 0.5192 0.37323 0.0
C574 C 0.38881 0.61324 0.25944 0.0
C575 C 0.3789 0.65257 0.25191 0.0
C576 C 0.39446 0.68429 0.27437 0.0
C577 C 0.41829 0.67656 0.30507 0.0
C578 C 0.42615 0.63687 0.31292 0.0
C579 C 0.41201 0.60572 0.29068 0.0
C580 C 0.42119 0.56468 0.30799 0.0
C581 C 0.38563 0.53264 0.31891 0.0
C582 C 0.44652 0.54885 0.2798 0.0
C583 C 0.44171 0.57735 0.34417 0.0
C584 C 0.44479 0.61928 0.34598 0.0
C585 C 0.46096 0.63805 0.37748 0.0
C586 C 0.47417 0.61339 0.40807 0.0
C587 C 0.47086 0.57017 0.40733 0.0
C588 C 0.4547 0.55211 0.37463 0.0
H589 H 0.13459 0.39099 0.80919 0.0
H590 H 0.12862 0.4816 0.70931 0.0
H591 H 0.09915 0.52309 0.75142 0.0
H592 H 0.04686 0.39474 0.85289 0.0
H593 H 0.06227 0.38899 0.90267 0.0
H594 H 0.0844 0.36756 0.86506 0.0
H595 H 0.14819 0.40862 0.88243 0.0
H596 H 0.12619 0.43027 0.92002 0.0
H597 H 0.15431 0.46386 0.882 0.0
H598 H 0.06762 0.55242 0.8031 0.0
H599 H 0.03629 0.5688 0.86129 0.0
H600 H 0.06339 0.45983 0.92902 0.0
C601 C 0.12714 0.4197 0.79648 0.0
C602 C 0.13393 0.43351 0.75622 0.0
C603 C 0.12393 0.47104 0.74023 0.0
C604 C 0.10716 0.49461 0.76388 0.0
C605 C 0.10076 0.48021 0.8035 0.0
C606 C 0.1105 0.4437 0.8198 0.0
C607 C 0.09969 0.43483 0.86305 0.0
C608 C 0.07163 0.39412 0.87139 0.0
C609 C 0.13415 0.43438 0.88837 0.0
C610 C 0.08191 0.47179 0.86838 0.0
C611 C 0.08291 0.49753 0.83361 0.0
C612 C 0.06694 0.53272 0.83057 0.0
C613 C 0.04913 0.5417 0.86382 0.0
C614 C 0.04753 0.51575 0.89981 0.0
C615 C 0.06459 0.48058 0.90211 0.0
H616 H 0.72858 0.90863 0.81031 0.0
H617 H 0.80853 0.94091 0.89924 0.0
H618 H 0.75977 0.96141 0.93884 0.0
H619 H 0.67764 0.9929 0.81853 0.0
H620 H 0.63335 0.96149 0.8105 0.0
H621 H 0.675 0.95098 0.78892 0.0
H622 H 0.65945 0.87551 0.82214 0.0
H623 H 0.618 0.8859 0.84417 0.0
H624 H 0.6521 0.86582 0.87457 0.0
H625 H 0.70166 0.9748 0.96994 0.0
H626 H 0.63903 0.98434 0.98894 0.0
H627 H 0.5971 0.94496 0.87862 0.0
C628 C 0.73579 0.9208 0.83776 0.0
C629 C 0.77211 0.92339 0.85193 0.0
C630 C 0.78068 0.93869 0.88824 0.0
C631 C 0.75325 0.95036 0.91077 0.0
C632 C 0.71746 0.94678 0.89635 0.0
C633 C 0.70873 0.93277 0.86051 0.0
C634 C 0.66803 0.93135 0.85202 0.0
C635 C 0.66323 0.96095 0.81532 0.0
C636 C 0.64824 0.88701 0.848 0.0
C637 C 0.65517 0.94638 0.88884 0.0
C638 C 0.68409 0.95501 0.91407 0.0
C639 C 0.67883 0.96843 0.95032 0.0
C640 C 0.64312 0.97359 0.96091 0.0
C641 C 0.61315 0.9655 0.93526 0.0
C642 C 0.61942 0.9516 0.89882 0.0
H643 H 0.80086 0.16471 0.35488 0.0
H644 H 0.71116 0.10167 0.43395 0.0
H645 H 0.75111 0.05341 0.46215 0.0
H646 H 0.84028 0.0742 0.33794 0.0
H647 H 0.88758 0.10136 0.33778 0.0
H648 H 0.85109 0.12886 0.32214 0.0
H649 H 0.87075 0.17981 0.37332 0.0
H650 H 0.90709 0.15229 0.38936 0.0
H651 H 0.87289 0.16004 0.42423 0.0
H652 H 0.80066 0.01326 0.48212 0.0
H653 H 0.85705 0.9836 0.49408 0.0
H654 H 0.91691 0.07481 0.40446 0.0
C655 C 0.78975 0.14023 0.37771 0.0
C656 C 0.75306 0.13623 0.39222 0.0
C657 C 0.73922 0.10467 0.42258 0.0
C658 C 0.76169 0.07733 0.43865 0.0
C659 C 0.79804 0.08238 0.42422 0.0
C660 C 0.8121 0.11306 0.3945 0.0
C661 C 0.85269 0.11281 0.3857 0.0
C662 C 0.85823 0.10376 0.34338 0.0
C663 C 0.8773 0.15367 0.39364 0.0
C664 C 0.85925 0.07725 0.41515 0.0
C665 C 0.8272 0.06002 0.43679 0.0
C666 C 0.82593 0.0265 0.46541 0.0
C667 C 0.85816 0.00987 0.47196 0.0
C668 C 0.89146 0.02695 0.45033 0.0
C669 C 0.89199 0.06134 0.42171 0.0
H670 H 0.26949 0.62416 0.13154 0.0
H671 H 0.23357 0.64931 0.2449 0.0
H672 H 0.16785 0.62538 0.22829 0.0
H673 H 0.19475 0.65866 0.07702 0.0
H674 H 0.1912 0.61942 0.04427 0.0
H675 H 0.23506 0.63774 0.0656 0.0
H676 H 0.23923 0.5628 0.09377 0.0
H677 H 0.19552 0.54424 0.07233 0.0
H678 H 0.20161 0.53243 0.12417 0.0
H679 H 0.10672 0.59709 0.1995 0.0
H680 H 0.0541 0.56719 0.16061 0.0
H681 H 0.13029 0.56373 0.06457 0.0
C682 C 0.24757 0.62436 0.15269 0.0
C683 C 0.25598 0.63794 0.18953 0.0
C684 C 0.22713 0.63841 0.21673 0.0
C685 C 0.18999 0.62511 0.20745 0.0
C686 C 0.18247 0.61194 0.17069 0.0
C687 C 0.21045 0.61159 0.14369 0.0
C688 C 0.19499 0.5963 0.10617 0.0
C689 C 0.20457 0.63005 0.07121 0.0
C690 C 0.20865 0.55658 0.09869 0.0
C691 C 0.15392 0.58782 0.11633 0.0
C692 C 0.14727 0.59692 0.15371 0.0
C693 C 0.11155 0.59012 0.17011 0.0
C694 C 0.0819 0.57311 0.14785 0.0
C695 C 0.08819 0.56348 0.10956 0.0
C696 C 0.12463 0.57141 0.09353 0.0
H697 H 0.25485 0.38061 0.70587 0.0
H698 H 0.18659 0.40938 0.60814 0.0
H699 H 0.24195 0.42477 0.56362 0.0
H700 H 0.32419 0.46367 0.68125 0.0
H701 H 0.36236 0.43903 0.69734 0.0
H702 H 0.31695 0.42063 0.71932 0.0
H703 H 0.3184 0.34716 0.70131 0.0
H704 H 0.36411 0.36523 0.6795 0.0
H705 H 0.32735 0.34 0.65114 0.0
H706 H 0.30553 0.44585 0.53197 0.0
H707 H 0.37162 0.47454 0.51634 0.0
H708 H 0.39915 0.43661 0.63614 0.0
C709 C 0.25168 0.38828 0.67472 0.0
C710 C 0.21655 0.39195 0.65976 0.0
C711 C 0.21316 0.40454 0.61946 0.0
C712 C 0.24448 0.4136 0.59417 0.0
C713 C 0.27906 0.41059 0.60993 0.0
C714 C 0.28283 0.39829 0.64937 0.0
C715 C 0.32334 0.40348 0.66013 0.0
C716 C 0.33221 0.43349 0.69133 0.0
C717 C 0.33392 0.36146 0.67382 0.0
C718 C 0.34176 0.4218 0.62094 0.0
C719 C 0.31582 0.42483 0.59216 0.0
C720 C 0.32611 0.44308 0.55415 0.0
C721 C 0.36377 0.4593 0.54553 0.0
C722 C 0.39064 0.45778 0.57496 0.0
C723 C 0.37938 0.438 0.61289 0.0
H724 H 0.8964 0.86227 0.86764 0.0
H725 H 0.8358 0.80874 0.77254 0.0
H726 H 0.8654 0.74718 0.78476 0.0
H727 H 0.98277 0.81776 0.85569 0.0
H728 H 0.98799 0.80939 0.90801 0.0
H729 H 0.9675 0.85203 0.88679 0.0
H730 H 0.90942 0.8258 0.93218 0.0
H731 H 0.92938 0.78287 0.95319 0.0
H732 H 0.88439 0.77381 0.9314 0.0
H733 H 0.89304 0.68751 0.81445 0.0
H734 H 0.91982 0.63546 0.85662 0.0
H735 H 0.96286 0.72799 0.93272 0.0
C736 C 0.89047 0.83801 0.84875 0.0
C737 C 0.86436 0.84002 0.81894 0.0
C738 C 0.85639 0.80777 0.79498 0.0
C739 C 0.87291 0.77276 0.80187 0.0
C740 C 0.89753 0.77088 0.83261 0.0
C741 C 0.9067 0.80292 0.85534 0.0
C742 C 0.93101 0.79168 0.8889 0.0
C743 C 0.96962 0.81936 0.88457 0.0
C744 C 0.91242 0.79365 0.92875 0.0
C745 C 0.93287 0.74771 0.88247 0.0
C746 C 0.91367 0.73641 0.84965 0.0
C747 C 0.90883 0.69625 0.83971 0.0
C748 C 0.92393 0.66684 0.86397 0.0
C749 C 0.94364 0.67779 0.89776 0.0
C750 C 0.94851 0.7189 0.90671 0.0
H751 H 0.35766 0.7703 0.21216 0.0
H752 H 0.40973 0.68493 0.15547 0.0
H753 H 0.45449 0.74362 0.12108 0.0
H754 H 0.35959 0.84284 0.13299 0.0
H755 H 0.36942 0.88779 0.15885 0.0
H756 H 0.34595 0.83939 0.18392 0.0
H757 H 0.39629 0.84204 0.2368 0.0
H758 H 0.41959 0.89103 0.21243 0.0
H759 H 0.44447 0.84894 0.22201 0.0
H760 H 0.48565 0.81176 0.08498 0.0
H761 H 0.50684 0.884 0.05593 0.0
H762 H 0.43557 0.92511 0.13837 0.0
C763 C 0.37958 0.76424 0.19371 0.0
C764 C 0.38107 0.72356 0.18666 0.0
C765 C 0.40906 0.71611 0.1616 0.0
C766 C 0.43424 0.74919 0.14187 0.0
C767 C 0.43111 0.7893 0.14813 0.0
C768 C 0.40499 0.79688 0.17418 0.0
C769 C 0.40561 0.84271 0.17371 0.0
C770 C 0.36791 0.85381 0.16164 0.0
C771 C 0.41719 0.85702 0.21361 0.0
C772 C 0.43528 0.85977 0.14241 0.0
C773 C 0.44964 0.82851 0.12796 0.0
C774 C 0.47523 0.83654 0.09668 0.0
C775 C 0.48684 0.87761 0.08014 0.0
C776 C 0.47307 0.91017 0.09511 0.0
C777 C 0.44705 0.90095 0.12673 0.0
H778 H 0.14995 0.3421 0.62158 0.0
H779 H 0.15521 0.28489 0.74062 0.0
H780 H 0.1384 0.21575 0.71796 0.0
H781 H 0.07429 0.27302 0.59165 0.0
H782 H 0.09217 0.27202 0.54288 0.0
H783 H 0.10617 0.31693 0.56797 0.0
H784 H 0.17533 0.31197 0.55889 0.0
H785 H 0.16161 0.26749 0.53304 0.0
H786 H 0.19053 0.26425 0.57521 0.0
H787 H 0.11582 0.15382 0.68321 0.0
H788 H 0.09674 0.10186 0.63778 0.0
H789 H 0.11094 0.19891 0.53982 0.0
C790 C 0.14891 0.31503 0.64254 0.0
C791 C 0.15428 0.31859 0.68277 0.0
C792 C 0.15118 0.28248 0.7097 0.0
C793 C 0.14163 0.24326 0.69709 0.0
C794 C 0.1358 0.24076 0.65729 0.0
C795 C 0.14003 0.2756 0.63026 0.0
C796 C 0.13209 0.26423 0.58918 0.0
C797 C 0.09923 0.28265 0.57192 0.0
C798 C 0.16697 0.27778 0.5625 0.0
C799 C 0.12215 0.21758 0.59743 0.0
C800 C 0.12413 0.2048 0.63699 0.0
C801 C 0.11464 0.16339 0.65211 0.0
C802 C 0.10355 0.13413 0.62606 0.0
C803 C 0.10244 0.14627 0.58521 0.0
C804 C 0.11175 0.18865 0.57084 0.0
H805 H 0.71145 0.28912 0.40392 0.0
H806 H 0.62131 0.19122 0.38174 0.0
H807 H 0.57565 0.23344 0.39884 0.0
H808 H 0.66607 0.31899 0.48877 0.0
H809 H 0.68519 0.37308 0.47684 0.0
H810 H 0.71028 0.33471 0.46317 0.0
H811 H 0.71272 0.36782 0.39086 0.0
H812 H 0.68719 0.40591 0.40423 0.0
H813 H 0.67009 0.3739 0.36679 0.0
H814 H 0.5402 0.28868 0.41356 0.0
H815 H 0.51728 0.34932 0.43357 0.0
H816 H 0.63063 0.40886 0.45082 0.0
C817 C 0.68208 0.27656 0.40337 0.0
C818 C 0.66959 0.23729 0.39135 0.0
C819 C 0.63106 0.22153 0.39066 0.0
C820 C 0.60509 0.24525 0.40022 0.0
C821 C 0.6182 0.28437 0.4111 0.0
C822 C 0.65578 0.29961 0.4135 0.0
C823 C 0.66249 0.34227 0.42675 0.0
C824 C 0.68216 0.34224 0.46623 0.0
C825 C 0.68441 0.37436 0.39527 0.0
C826 C 0.6229 0.34877 0.43097 0.0
C827 C 0.59774 0.31526 0.42137 0.0
C828 C 0.55961 0.31492 0.42162 0.0
C829 C 0.54684 0.3495 0.43274 0.0
C830 C 0.57217 0.38344 0.44398 0.0
C831 C 0.61062 0.38304 0.4428 0.0
loop_
_geom_bond_atom_site_label_1
_geom_bond_atom_site_label_2
_geom_bond_distance
_geom_bond_site_symmetry_2
_ccdc_geom_bond_type
C0 N1 1.317 . S
C0 N2 1.348 . S
C0 C3 1.485 . S
N1 C0 1.317 . S
N1 N5 1.370 . S
N2 C0 1.348 . S
N2 C4 1.346 . S
C3 C0 1.485 . S
C3 H7 0.960 . S
C3 H8 0.961 . S
C3 H9 0.960 . S
C4 N2 1.346 . S
C4 N5 1.307 . S
C4 C6 1.486 . S
N5 N1 1.370 . S
N5 C4 1.307 . S
C6 C4 1.486 . S
C6 H10 0.960 . S
C6 H11 0.960 . S
C6 H12 0.959 . S
H7 C3 0.960 . S
H8 C3 0.961 . S
H9 C3 0.960 . S
H10 C6 0.960 . S
H11 C6 0.960 . S
H12 C6 0.959 . S
C13 N14 1.317 . S
C13 N15 1.348 . S
C13 C16 1.485 . S
N14 C13 1.317 . S
N14 N18 1.370 . S
N15 C13 1.348 . S
N15 C17 1.346 . S
C16 C13 1.485 . S
C16 H20 0.960 . S
C16 H21 0.961 . S
C16 H22 0.960 . S
C17 N15 1.346 . S
C17 N18 1.307 . S
C17 C19 1.486 . S
N18 N14 1.370 . S
N18 C17 1.307 . S
C19 C17 1.486 . S
C19 H23 0.960 . S
C19 H24 0.960 . S
C19 H25 0.959 . S
H20 C16 0.960 . S
H21 C16 0.961 . S
H22 C16 0.960 . S
H23 C19 0.960 . S
H24 C19 0.960 . S
H25 C19 0.959 . S
C26 N27 1.317 . S
C26 N28 1.348 . S
C26 C29 1.485 . S
N27 C26 1.317 . S
N27 N31 1.370 . S
N28 C26 1.348 . S
N28 C30 1.346 . S
C29 C26 1.485 . S
C29 H33 0.960 . S
C29 H34 0.961 . S
C29 H35 0.960 . S
C30 N28 1.346 . S
C30 N31 1.307 . S
C30 C32 1.486 . S
N31 N27 1.370 . S
N31 C30 1.307 . S
C32 C30 1.486 . S
C32 H36 0.960 . S
C32 H37 0.960 . S
C32 H38 0.959 . S
H33 C29 0.960 . S
H34 C29 0.961 . S
H35 C29 0.960 . S
H36 C32 0.960 . S
H37 C32 0.960 . S
H38 C32 0.959 . S
C39 N40 1.317 . S
C39 N41 1.348 . S
C39 C42 1.485 . S
N40 C39 1.317 . S
N40 N44 1.370 . S
N41 C39 1.348 . S
N41 C43 1.346 . S
C42 C39 1.485 . S
C42 H46 0.960 . S
C42 H47 0.961 . S
C42 H48 0.960 . S
C43 N41 1.346 . S
C43 N44 1.307 . S
C43 C45 1.486 . S
N44 N40 1.370 . S
N44 C43 1.307 . S
C45 C43 1.486 . S
C45 H49 0.960 . S
C45 H50 0.960 . S
C45 H51 0.959 . S
H46 C42 0.960 . S
H47 C42 0.961 . S
H48 C42 0.960 . S
H49 C45 0.960 . S
H50 C45 0.960 . S
H51 C45 0.959 . S
C52 N53 1.317 . S
C52 N54 1.348 . S
C52 C55 1.485 . S
N53 C52 1.317 . S
N53 N57 1.370 . S
N54 C52 1.348 . S
N54 C56 1.346 . S
C55 C52 1.485 . S
C55 H59 0.960 . S
C55 H60 0.961 . S
C55 H61 0.960 . S
C56 N54 1.346 . S
C56 N57 1.307 . S
C56 C58 1.486 . S
N57 N53 1.370 . S
N57 C56 1.307 . S
C58 C56 1.486 . S
C58 H62 0.960 . S
C58 H63 0.960 . S
C58 H64 0.959 . S
H59 C55 0.960 . S
H60 C55 0.961 . S
H61 C55 0.960 . S
H62 C58 0.960 . S
H63 C58 0.960 . S
H64 C58 0.959 . S
C65 N66 1.317 . S
C65 N67 1.348 . S
C65 C68 1.485 . S
N66 C65 1.317 . S
N66 N70 1.370 . S
N67 C65 1.348 . S
N67 C69 1.346 . S
C68 C65 1.485 . S
C68 H72 0.960 . S
C68 H73 0.961 . S
C68 H74 0.960 . S
C69 N67 1.346 . S
C69 N70 1.307 . S
C69 C71 1.486 . S
N70 N66 1.370 . S
N70 C69 1.307 . S
C71 C69 1.486 . S
C71 H75 0.960 . S
C71 H76 0.960 . S
C71 H77 0.959 . S
H72 C68 0.960 . S
H73 C68 0.961 . S
H74 C68 0.960 . S
H75 C71 0.960 . S
H76 C71 0.960 . S
H77 C71 0.959 . S
C78 N79 1.317 . S
C78 N80 1.348 . S
C78 C81 1.485 . S
N79 C78 1.317 . S
N79 N83 1.370 . S
N80 C78 1.348 . S
N80 C82 1.346 . S
C81 C78 1.485 . S
C81 H85 0.960 . S
C81 H86 0.961 . S
C81 H87 0.960 . S
C82 N80 1.346 . S
C82 N83 1.307 . S
C82 C84 1.486 . S
N83 N79 1.370 . S
N83 C82 1.307 . S
C84 C82 1.486 . S
C84 H88 0.960 . S
C84 H89 0.960 . S
C84 H90 0.959 . S
H85 C81 0.960 . S
H86 C81 0.961 . S
H87 C81 0.960 . S
H88 C84 0.960 . S
H89 C84 0.960 . S
H90 C84 0.959 . S
C91 N92 1.317 . S
C91 N93 1.348 . S
C91 C94 1.485 . S
N92 C91 1.317 . S
N92 N96 1.370 . S
N93 C91 1.348 . S
N93 C95 1.346 . S
C94 C91 1.485 . S
C94 H98 0.960 . S
C94 H99 0.961 . S
C94 H100 0.960 . S
C95 N93 1.346 . S
C95 N96 1.307 . S
C95 C97 1.486 . S
N96 N92 1.370 . S
N96 C95 1.307 . S
C97 C95 1.486 . S
C97 H101 0.960 . S
C97 H102 0.960 . S
C97 H103 0.959 . S
H98 C94 0.960 . S
H99 C94 0.961 . S
H100 C94 0.960 . S
H101 C97 0.960 . S
H102 C97 0.960 . S
H103 C97 0.959 . S
Zn104 O110 1.969 1_545 S
Zn104 O111 1.965 1_545 S
Zn104 O115 2.024 . S
Zn104 O120 1.969 . S
Zn105 O112 1.978 . S
Zn105 O118 1.949 1_565 S
Zn105 O119 1.949 1_665 S
Zn105 O121 2.048 . S
C106 O107 1.229 . S
C106 O115 1.058 . S
O107 C106 1.229 . S
C108 O109 1.229 . S
C108 O121 1.059 . S
O109 C108 1.229 . S
O110 Zn104 1.969 1_565 S
O110 C113 1.267 . S
O111 Zn104 1.965 1_565 S
O111 C122 1.260 . S
O112 Zn105 1.978 . S
O112 C122 1.258 1_655 S
C113 O110 1.267 . S
C113 O114 1.228 . S
O114 C113 1.228 . S
O115 Zn104 2.024 . S
O115 C106 1.058 . S
C116 O117 1.228 . S
C116 O118 1.267 . S
O117 C116 1.228 . S
O118 Zn105 1.949 1_545 S
O118 C116 1.267 . S
O119 Zn105 1.949 1_445 S
O119 C123 1.260 . S
O120 Zn104 1.969 . S
O120 C123 1.258 . S
O121 Zn105 2.048 . S
O121 C108 1.059 . S
C122 O111 1.260 . S
C122 O112 1.258 1_455 S
C123 O119 1.260 . S
C123 O120 1.258 . S
Zn124 O130 1.969 . S
Zn124 O131 1.965 1_566 S
Zn124 O135 2.024 . S
Zn124 O140 1.969 1_556 S
Zn125 O132 1.969 . S
Zn125 O138 1.969 . S
Zn125 O139 1.965 1_545 S
Zn125 O141 2.024 . S
C126 O127 1.229 . S
C126 O135 1.058 . S
O127 C126 1.229 . S
C128 O129 1.229 . S
C128 O141 1.058 . S
O129 C128 1.229 . S
O130 Zn124 1.969 . S
O130 C133 1.267 . S
O131 Zn124 1.965 1_544 S
O131 C142 1.260 . S
O132 Zn125 1.969 . S
O132 C142 1.258 . S
C133 O130 1.267 . S
C133 O134 1.228 . S
O134 C133 1.228 . S
O135 Zn124 2.024 . S
O135 C126 1.058 . S
C136 O137 1.228 . S
C136 O138 1.267 . S
O137 C136 1.228 . S
O138 Zn125 1.969 . S
O138 C136 1.267 . S
O139 Zn125 1.965 1_565 S
O139 C143 1.260 . S
O140 Zn124 1.969 1_554 S
O140 C143 1.258 . S
O141 Zn125 2.024 . S
O141 C128 1.058 . S
C142 O131 1.260 . S
C142 O132 1.258 . S
C143 O139 1.260 . S
C143 O140 1.258 . S
Zn144 O150 1.969 . S
Zn144 O151 1.965 . S
Zn144 O155 2.024 . S
Zn144 O160 1.969 . S
Zn145 O152 1.969 . S
Zn145 O158 1.969 . S
Zn145 O159 1.965 . S
Zn145 O161 2.024 . S
C146 O147 1.229 . S
C146 O155 1.058 . S
O147 C146 1.229 . S
C148 O149 1.229 . S
C148 O161 1.058 . S
O149 C148 1.229 . S
O150 Zn144 1.969 . S
O150 C153 1.267 . S
O151 Zn144 1.965 . S
O151 C162 1.260 . S
O152 Zn145 1.969 . S
O152 C162 1.258 . S
C153 O150 1.267 . S
C153 O154 1.228 . S
O154 C153 1.228 . S
O155 Zn144 2.024 . S
O155 C146 1.058 . S
C156 O157 1.228 . S
C156 O158 1.267 . S
O157 C156 1.228 . S
O158 Zn145 1.969 . S
O158 C156 1.267 . S
O159 Zn145 1.965 . S
O159 C163 1.260 . S
O160 Zn144 1.969 . S
O160 C163 1.258 . S
O161 Zn145 2.024 . S
O161 C148 1.058 . S
C162 O151 1.260 . S
C162 O152 1.258 . S
C163 O159 1.260 . S
C163 O160 1.258 . S
Zn164 O170 1.969 . S
Zn164 O171 1.965 1_556 S
Zn164 O175 2.024 . S
Zn164 O180 1.963 1_655 S
Zn165 O172 1.969 . S
Zn165 O178 1.969 . S
Zn165 O179 1.965 1_554 S
Zn165 O181 2.024 . S
C166 O167 1.229 . S
C166 O175 1.058 . S
O167 C166 1.229 . S
C168 O169 1.229 . S
C168 O181 1.058 . S
O169 C168 1.229 . S
O170 Zn164 1.969 . S
O170 C173 1.267 . S
O171 Zn164 1.965 1_554 S
O171 C182 1.260 . S
O172 Zn165 1.969 . S
O172 C182 1.258 1_455 S
C173 O170 1.267 . S
C173 O174 1.228 . S
O174 C173 1.228 . S
O175 Zn164 2.024 . S
O175 C166 1.058 . S
C176 O177 1.228 . S
C176 O178 1.267 . S
O177 C176 1.228 . S
O178 Zn165 1.969 . S
O178 C176 1.267 . S
O179 Zn165 1.965 1_556 S
O179 C183 1.260 . S
O180 Zn164 1.963 1_455 S
O180 C183 1.264 . S
O181 Zn165 2.024 . S
O181 C168 1.058 . S
C182 O171 1.260 . S
C182 O172 1.258 1_655 S
C183 O179 1.260 . S
C183 O180 1.264 . S
H184 C196 0.930 . S
H185 C198 0.930 . S
H186 C199 0.930 . S
H187 C203 0.959 . S
H188 C203 0.959 . S
H189 C203 0.961 . S
H190 C204 0.960 . S
H191 C204 0.961 . S
H192 C204 0.959 . S
H193 C207 0.929 . S
H194 C208 0.931 . S
H195 C210 0.930 . S
C196 H184 0.930 . S
C196 C197 1.399 . S
C196 C201 1.399 . S
C197 C196 1.399 . S
C197 C198 1.376 . S
C198 H185 0.930 . S
C198 C197 1.376 . S
C198 C199 1.388 . S
C199 H186 0.930 . S
C199 C198 1.388 . S
C199 C200 1.390 . S
C200 C199 1.390 . S
C200 C201 1.394 . S
C200 C206 1.465 . S
C201 C196 1.399 . S
C201 C200 1.394 . S
C201 C202 1.516 . S
C202 C201 1.516 . S
C202 C203 1.502 . S
C202 C204 1.561 . S
C202 C205 1.526 . S
C203 H187 0.959 . S
C203 H188 0.959 . S
C203 H189 0.961 . S
C203 C202 1.502 . S
C204 H190 0.960 . S
C204 H191 0.961 . S
C204 H192 0.959 . S
C204 C202 1.561 . S
C205 C202 1.526 . S
C205 C206 1.396 . S
C205 C210 1.390 . S
C206 C200 1.465 . S
C206 C205 1.396 . S
C206 C207 1.399 . S
C207 H193 0.929 . S
C207 C206 1.399 . S
C207 C208 1.385 . S
C208 H194 0.931 . S
C208 C207 1.385 . S
C208 C209 1.389 . S
C209 C208 1.389 . S
C209 C210 1.387 . S
C210 H195 0.930 . S
C210 C205 1.390 . S
C210 C209 1.387 . S
H211 C223 0.930 . S
H212 C225 0.930 . S
H213 C226 0.930 . S
H214 C230 0.959 . S
H215 C230 0.959 . S
H216 C230 0.961 . S
H217 C231 0.960 . S
H218 C231 0.961 . S
H219 C231 0.959 . S
H220 C234 0.929 . S
H221 C235 0.931 . S
H222 C237 0.930 . S
C223 H211 0.930 . S
C223 C224 1.399 . S
C223 C228 1.399 . S
C224 C223 1.399 . S
C224 C225 1.376 . S
C225 H212 0.930 . S
C225 C224 1.376 . S
C225 C226 1.388 . S
C226 H213 0.930 . S
C226 C225 1.388 . S
C226 C227 1.390 . S
C227 C226 1.390 . S
C227 C228 1.394 . S
C227 C233 1.465 . S
C228 C223 1.399 . S
C228 C227 1.394 . S
C228 C229 1.516 . S
C229 C228 1.516 . S
C229 C230 1.502 . S
C229 C231 1.561 . S
C229 C232 1.526 . S
C230 H214 0.959 . S
C230 H215 0.959 . S
C230 H216 0.961 . S
C230 C229 1.502 . S
C231 H217 0.960 . S
C231 H218 0.961 . S
C231 H219 0.959 . S
C231 C229 1.561 . S
C232 C229 1.526 . S
C232 C233 1.396 . S
C232 C237 1.390 . S
C233 C227 1.465 . S
C233 C232 1.396 . S
C233 C234 1.399 . S
C234 H220 0.929 . S
C234 C233 1.399 . S
C234 C235 1.385 . S
C235 H221 0.931 . S
C235 C234 1.385 . S
C235 C236 1.389 . S
C236 C235 1.389 . S
C236 C237 1.387 . S
C237 H222 0.930 . S
C237 C232 1.390 . S
C237 C236 1.387 . S
H238 C250 0.930 . S
H239 C252 0.930 . S
H240 C253 0.930 . S
H241 C257 0.959 . S
H242 C257 0.959 . S
H243 C257 0.961 . S
H244 C258 0.960 . S
H245 C258 0.961 . S
H246 C258 0.959 . S
H247 C261 0.929 . S
H248 C262 0.931 . S
H249 C264 0.930 . S
C250 H238 0.930 . S
C250 C251 1.399 . S
C250 C255 1.399 . S
C251 C250 1.399 . S
C251 C252 1.376 . S
C252 H239 0.930 . S
C252 C251 1.376 . S
C252 C253 1.388 . S
C253 H240 0.930 . S
C253 C252 1.388 . S
C253 C254 1.390 . S
C254 C253 1.390 . S
C254 C255 1.394 . S
C254 C260 1.465 . S
C255 C250 1.399 . S
C255 C254 1.394 . S
C255 C256 1.516 . S
C256 C255 1.516 . S
C256 C257 1.502 . S
C256 C258 1.561 . S
C256 C259 1.526 . S
C257 H241 0.959 . S
C257 H242 0.959 . S
C257 H243 0.961 . S
C257 C256 1.502 . S
C258 H244 0.960 . S
C258 H245 0.961 . S
C258 H246 0.959 . S
C258 C256 1.561 . S
C259 C256 1.526 . S
C259 C260 1.396 . S
C259 C264 1.390 . S
C260 C254 1.465 . S
C260 C259 1.396 . S
C260 C261 1.399 . S
C261 H247 0.929 . S
C261 C260 1.399 . S
C261 C262 1.385 . S
C262 H248 0.931 . S
C262 C261 1.385 . S
C262 C263 1.389 . S
C263 C262 1.389 . S
C263 C264 1.387 . S
C264 H249 0.930 . S
C264 C259 1.390 . S
C264 C263 1.387 . S
H265 C277 0.930 . S
H266 C279 0.930 . S
H267 C280 0.930 . S
H268 C284 0.959 . S
H269 C284 0.959 . S
H270 C284 0.961 . S
H271 C285 0.960 . S
H272 C285 0.961 . S
H273 C285 0.959 . S
H274 C288 0.929 . S
H275 C289 0.931 . S
H276 C291 0.930 . S
C277 H265 0.930 . S
C277 C278 1.399 . S
C277 C282 1.399 . S
C278 C277 1.399 . S
C278 C279 1.376 . S
C279 H266 0.930 . S
C279 C278 1.376 . S
C279 C280 1.388 . S
C280 H267 0.930 . S
C280 C279 1.388 . S
C280 C281 1.390 . S
C281 C280 1.390 . S
C281 C282 1.394 . S
C281 C287 1.465 . S
C282 C277 1.399 . S
C282 C281 1.394 . S
C282 C283 1.516 . S
C283 C282 1.516 . S
C283 C284 1.502 . S
C283 C285 1.561 . S
C283 C286 1.526 . S
C284 H268 0.959 . S
C284 H269 0.959 . S
C284 H270 0.961 . S
C284 C283 1.502 . S
C285 H271 0.960 . S
C285 H272 0.961 . S
C285 H273 0.959 . S
C285 C283 1.561 . S
C286 C283 1.526 . S
C286 C287 1.396 . S
C286 C291 1.390 . S
C287 C281 1.465 . S
C287 C286 1.396 . S
C287 C288 1.399 . S
C288 H274 0.929 . S
C288 C287 1.399 . S
C288 C289 1.385 . S
C289 H275 0.931 . S
C289 C288 1.385 . S
C289 C290 1.389 . S
C290 C289 1.389 . S
C290 C291 1.387 . S
C291 H276 0.930 . S
C291 C286 1.390 . S
C291 C290 1.387 . S
H292 C304 0.930 . S
H293 C306 0.930 . S
H294 C307 0.930 . S
H295 C311 0.959 . S
H296 C311 0.959 . S
H297 C311 0.961 . S
H298 C312 0.960 . S
H299 C312 0.961 . S
H300 C312 0.959 . S
H301 C315 0.929 . S
H302 C316 0.931 . S
H303 C318 0.930 . S
C304 H292 0.930 . S
C304 C305 1.399 . S
C304 C309 1.399 . S
C305 C304 1.399 . S
C305 C306 1.376 . S
C306 H293 0.930 . S
C306 C305 1.376 . S
C306 C307 1.388 . S
C307 H294 0.930 . S
C307 C306 1.388 . S
C307 C308 1.390 . S
C308 C307 1.390 . S
C308 C309 1.394 . S
C308 C314 1.465 . S
C309 C304 1.399 . S
C309 C308 1.394 . S
C309 C310 1.516 . S
C310 C309 1.516 . S
C310 C311 1.502 . S
C310 C312 1.561 . S
C310 C313 1.526 . S
C311 H295 0.959 . S
C311 H296 0.959 . S
C311 H297 0.961 . S
C311 C310 1.502 . S
C312 H298 0.960 . S
C312 H299 0.961 . S
C312 H300 0.959 . S
C312 C310 1.561 . S
C313 C310 1.526 . S
C313 C314 1.396 . S
C313 C318 1.390 . S
C314 C308 1.465 . S
C314 C313 1.396 . S
C314 C315 1.399 . S
C315 H301 0.929 . S
C315 C314 1.399 . S
C315 C316 1.385 . S
C316 H302 0.931 . S
C316 C315 1.385 . S
C316 C317 1.389 . S
C317 C316 1.389 . S
C317 C318 1.387 . S
C318 H303 0.930 . S
C318 C313 1.390 . S
C318 C317 1.387 . S
H319 C331 0.930 . S
H320 C333 0.930 . S
H321 C334 0.930 . S
H322 C338 0.959 . S
H323 C338 0.959 . S
H324 C338 0.961 . S
H325 C339 0.960 . S
H326 C339 0.961 . S
H327 C339 0.959 . S
H328 C342 0.929 . S
H329 C343 0.931 1_545 S
H330 C345 0.930 . S
C331 H319 0.930 . S
C331 C332 1.399 . S
C331 C336 1.399 . S
C332 C331 1.399 . S
C332 C333 1.376 . S
C333 H320 0.930 . S
C333 C332 1.376 . S
C333 C334 1.388 . S
C334 H321 0.930 . S
C334 C333 1.388 . S
C334 C335 1.390 . S
C335 C334 1.390 . S
C335 C336 1.394 . S
C335 C341 1.465 . S
C336 C331 1.399 . S
C336 C335 1.394 . S
C336 C337 1.516 . S
C337 C336 1.516 . S
C337 C338 1.502 . S
C337 C339 1.561 . S
C337 C340 1.526 . S
C338 H322 0.959 . S
C338 H323 0.959 . S
C338 H324 0.961 . S
C338 C337 1.502 . S
C339 H325 0.960 . S
C339 H326 0.961 . S
C339 H327 0.959 . S
C339 C337 1.561 . S
C340 C337 1.526 . S
C340 C341 1.396 . S
C340 C345 1.390 . S
C341 C335 1.465 . S
C341 C340 1.396 . S
C341 C342 1.399 . S
C342 H328 0.929 . S
C342 C341 1.399 . S
C342 C343 1.385 . S
C343 H329 0.931 1_565 S
C343 C342 1.385 . S
C343 C344 1.389 . S
C344 C343 1.389 . S
C344 C345 1.387 . S
C345 H330 0.930 . S
C345 C340 1.390 . S
C345 C344 1.387 . S
H346 C358 0.930 . S
H347 C360 0.930 . S
H348 C361 0.930 . S
H349 C365 0.959 . S
H350 C365 0.959 . S
H351 C365 0.961 . S
H352 C366 0.960 . S
H353 C366 0.961 . S
H354 C366 0.959 . S
H355 C369 0.929 . S
H356 C370 0.931 . S
H357 C372 0.930 . S
C358 H346 0.930 . S
C358 C359 1.399 . S
C358 C363 1.399 . S
C359 C358 1.399 . S
C359 C360 1.376 . S
C360 H347 0.930 . S
C360 C359 1.376 . S
C360 C361 1.388 . S
C361 H348 0.930 . S
C361 C360 1.388 . S
C361 C362 1.390 . S
C362 C361 1.390 . S
C362 C363 1.394 . S
C362 C368 1.465 . S
C363 C358 1.399 . S
C363 C362 1.394 . S
C363 C364 1.516 . S
C364 C363 1.516 . S
C364 C365 1.502 . S
C364 C366 1.561 . S
C364 C367 1.526 . S
C365 H349 0.959 . S
C365 H350 0.959 . S
C365 H351 0.961 . S
C365 C364 1.502 . S
C366 H352 0.960 . S
C366 H353 0.961 . S
C366 H354 0.959 . S
C366 C364 1.561 . S
C367 C364 1.526 . S
C367 C368 1.396 . S
C367 C372 1.390 . S
C368 C362 1.465 . S
C368 C367 1.396 . S
C368 C369 1.399 . S
C369 H355 0.929 . S
C369 C368 1.399 . S
C369 C370 1.385 . S
C370 H356 0.931 . S
C370 C369 1.385 . S
C370 C371 1.389 . S
C371 C370 1.389 . S
C371 C372 1.387 . S
C372 H357 0.930 . S
C372 C367 1.390 . S
C372 C371 1.387 . S
H373 C385 0.930 . S
H374 C387 0.930 . S
H375 C388 0.930 . S
H376 C392 0.959 . S
H377 C392 0.959 . S
H378 C392 0.961 . S
H379 C393 0.960 . S
H380 C393 0.961 . S
H381 C393 0.959 . S
H382 C396 0.929 . S
H383 C397 0.931 . S
H384 C399 0.930 . S
C385 H373 0.930 . S
C385 C386 1.399 . S
C385 C390 1.399 . S
C386 C385 1.399 . S
C386 C387 1.376 . S
C387 H374 0.930 . S
C387 C386 1.376 . S
C387 C388 1.388 . S
C388 H375 0.930 . S
C388 C387 1.388 . S
C388 C389 1.390 . S
C389 C388 1.390 . S
C389 C390 1.394 . S
C389 C395 1.465 . S
C390 C385 1.399 . S
C390 C389 1.394 . S
C390 C391 1.516 . S
C391 C390 1.516 . S
C391 C392 1.502 . S
C391 C393 1.561 . S
C391 C394 1.526 . S
C392 H376 0.959 . S
C392 H377 0.959 . S
C392 H378 0.961 . S
C392 C391 1.502 . S
C393 H379 0.960 . S
C393 H380 0.961 . S
C393 H381 0.959 . S
C393 C391 1.561 . S
C394 C391 1.526 . S
C394 C395 1.396 . S
C394 C399 1.390 . S
C395 C389 1.465 . S
C395 C394 1.396 . S
C395 C396 1.399 . S
C396 H382 0.929 . S
C396 C395 1.399 . S
C396 C397 1.385 . S
C397 H383 0.931 . S
C397 C396 1.385 . S
C397 C398 1.389 . S
C398 C397 1.389 . S
C398 C399 1.387 . S
C399 H384 0.930 . S
C399 C394 1.390 . S
C399 C398 1.387 . S
H400 C412 0.930 . S
H401 C414 0.930 . S
H402 C415 0.930 . S
H403 C419 0.959 . S
H404 C419 0.959 . S
H405 C419 0.961 . S
H406 C420 0.960 . S
H407 C420 0.961 . S
H408 C420 0.959 . S
H409 C423 0.929 . S
H410 C424 0.931 . S
H411 C426 0.930 . S
C412 H400 0.930 . S
C412 C413 1.399 . S
C412 C417 1.399 . S
C413 C412 1.399 . S
C413 C414 1.376 . S
C414 H401 0.930 . S
C414 C413 1.376 . S
C414 C415 1.388 . S
C415 H402 0.930 . S
C415 C414 1.388 . S
C415 C416 1.390 . S
C416 C415 1.390 . S
C416 C417 1.394 . S
C416 C422 1.465 . S
C417 C412 1.399 . S
C417 C416 1.394 . S
C417 C418 1.516 . S
C418 C417 1.516 . S
C418 C419 1.502 . S
C418 C420 1.561 . S
C418 C421 1.526 . S
C419 H403 0.959 . S
C419 H404 0.959 . S
C419 H405 0.961 . S
C419 C418 1.502 . S
C420 H406 0.960 . S
C420 H407 0.961 . S
C420 H408 0.959 . S
C420 C418 1.561 . S
C421 C418 1.526 . S
C421 C422 1.396 . S
C421 C426 1.390 . S
C422 C416 1.465 . S
C422 C421 1.396 . S
C422 C423 1.399 . S
C423 H409 0.929 . S
C423 C422 1.399 . S
C423 C424 1.385 . S
C424 H410 0.931 . S
C424 C423 1.385 . S
C424 C425 1.389 . S
C425 C424 1.389 . S
C425 C426 1.387 . S
C426 H411 0.930 . S
C426 C421 1.390 . S
C426 C425 1.387 . S
H427 C439 0.930 . S
H428 C441 0.930 . S
H429 C442 0.930 . S
H430 C446 0.959 . S
H431 C446 0.959 . S
H432 C446 0.961 . S
H433 C447 0.960 . S
H434 C447 0.961 . S
H435 C447 0.959 . S
H436 C450 0.929 . S
H437 C451 0.931 1_554 S
H438 C453 0.930 . S
C439 H427 0.930 . S
C439 C440 1.399 . S
C439 C444 1.399 . S
C440 C439 1.399 . S
C440 C441 1.376 . S
C441 H428 0.930 . S
C441 C440 1.376 . S
C441 C442 1.388 . S
C442 H429 0.930 . S
C442 C441 1.388 . S
C442 C443 1.390 . S
C443 C442 1.390 . S
C443 C444 1.394 . S
C443 C449 1.465 . S
C444 C439 1.399 . S
C444 C443 1.394 . S
C444 C445 1.516 . S
C445 C444 1.516 . S
C445 C446 1.502 . S
C445 C447 1.561 . S
C445 C448 1.526 . S
C446 H430 0.959 . S
C446 H431 0.959 . S
C446 H432 0.961 . S
C446 C445 1.502 . S
C447 H433 0.960 . S
C447 H434 0.961 . S
C447 H435 0.959 . S
C447 C445 1.561 . S
C448 C445 1.526 . S
C448 C449 1.396 . S
C448 C453 1.390 . S
C449 C443 1.465 . S
C449 C448 1.396 . S
C449 C450 1.399 . S
C450 H436 0.929 . S
C450 C449 1.399 . S
C450 C451 1.385 . S
C451 H437 0.931 1_556 S
C451 C450 1.385 . S
C451 C452 1.389 . S
C452 C451 1.389 . S
C452 C453 1.387 . S
C453 H438 0.930 . S
C453 C448 1.390 . S
C453 C452 1.387 . S
H454 C466 0.930 . S
H455 C468 0.930 . S
H456 C469 0.930 . S
H457 C473 0.959 . S
H458 C473 0.959 . S
H459 C473 0.961 . S
H460 C474 0.960 . S
H461 C474 0.961 . S
H462 C474 0.959 . S
H463 C477 0.929 . S
H464 C478 0.931 . S
H465 C480 0.930 . S
C466 H454 0.930 . S
C466 C467 1.399 . S
C466 C471 1.399 . S
C467 C466 1.399 . S
C467 C468 1.376 . S
C468 H455 0.930 . S
C468 C467 1.376 . S
C468 C469 1.388 . S
C469 H456 0.930 . S
C469 C468 1.388 . S
C469 C470 1.390 . S
C470 C469 1.390 . S
C470 C471 1.394 . S
C470 C476 1.465 . S
C471 C466 1.399 . S
C471 C470 1.394 . S
C471 C472 1.516 . S
C472 C471 1.516 . S
C472 C473 1.502 . S
C472 C474 1.561 . S
C472 C475 1.526 . S
C473 H457 0.959 . S
C473 H458 0.959 . S
C473 H459 0.961 . S
C473 C472 1.502 . S
C474 H460 0.960 . S
C474 H461 0.961 . S
C474 H462 0.959 . S
C474 C472 1.561 . S
C475 C472 1.526 . S
C475 C476 1.396 . S
C475 C480 1.390 . S
C476 C470 1.465 . S
C476 C475 1.396 . S
C476 C477 1.399 . S
C477 H463 0.929 . S
C477 C476 1.399 . S
C477 C478 1.385 . S
C478 H464 0.931 . S
C478 C477 1.385 . S
C478 C479 1.389 . S
C479 C478 1.389 . S
C479 C480 1.387 . S
C480 H465 0.930 . S
C480 C475 1.390 . S
C480 C479 1.387 . S
H481 C493 0.930 . S
H482 C495 0.930 . S
H483 C496 0.930 . S
H484 C500 0.959 . S
H485 C500 0.959 . S
H486 C500 0.961 . S
H487 C501 0.960 . S
H488 C501 0.961 . S
H489 C501 0.959 . S
H490 C504 0.929 . S
H491 C505 0.931 . S
H492 C507 0.930 . S
C493 H481 0.930 . S
C493 C494 1.399 . S
C493 C498 1.399 . S
C494 C493 1.399 . S
C494 C495 1.376 . S
C495 H482 0.930 . S
C495 C494 1.376 . S
C495 C496 1.388 . S
C496 H483 0.930 . S
C496 C495 1.388 . S
C496 C497 1.390 . S
C497 C496 1.390 . S
C497 C498 1.394 . S
C497 C503 1.465 . S
C498 C493 1.399 . S
C498 C497 1.394 . S
C498 C499 1.516 . S
C499 C498 1.516 . S
C499 C500 1.502 . S
C499 C501 1.561 . S
C499 C502 1.526 . S
C500 H484 0.959 . S
C500 H485 0.959 . S
C500 H486 0.961 . S
C500 C499 1.502 . S
C501 H487 0.960 . S
C501 H488 0.961 . S
C501 H489 0.959 . S
C501 C499 1.561 . S
C502 C499 1.526 . S
C502 C503 1.396 . S
C502 C507 1.390 . S
C503 C497 1.465 . S
C503 C502 1.396 . S
C503 C504 1.399 . S
C504 H490 0.929 . S
C504 C503 1.399 . S
C504 C505 1.385 . S
C505 H491 0.931 . S
C505 C504 1.385 . S
C505 C506 1.389 . S
C506 C505 1.389 . S
C506 C507 1.387 . S
C507 H492 0.930 . S
C507 C502 1.390 . S
C507 C506 1.387 . S
H508 C520 0.930 . S
H509 C522 0.930 . S
H510 C523 0.930 . S
H511 C527 0.959 . S
H512 C527 0.959 . S
H513 C527 0.961 . S
H514 C528 0.960 . S
H515 C528 0.961 . S
H516 C528 0.959 . S
H517 C531 0.929 . S
H518 C532 0.931 . S
H519 C534 0.930 1_455 S
C520 H508 0.930 . S
C520 C521 1.399 . S
C520 C525 1.399 . S
C521 C520 1.399 . S
C521 C522 1.376 . S
C522 H509 0.930 . S
C522 C521 1.376 . S
C522 C523 1.388 . S
C523 H510 0.930 . S
C523 C522 1.388 . S
C523 C524 1.390 . S
C524 C523 1.390 . S
C524 C525 1.394 . S
C524 C530 1.465 . S
C525 C520 1.399 . S
C525 C524 1.394 . S
C525 C526 1.516 . S
C526 C525 1.516 . S
C526 C527 1.502 . S
C526 C528 1.561 . S
C526 C529 1.526 . S
C527 H511 0.959 . S
C527 H512 0.959 . S
C527 H513 0.961 . S
C527 C526 1.502 . S
C528 H514 0.960 . S
C528 H515 0.961 . S
C528 H516 0.959 . S
C528 C526 1.561 . S
C529 C526 1.526 . S
C529 C530 1.396 . S
C529 C534 1.390 . S
C530 C524 1.465 . S
C530 C529 1.396 . S
C530 C531 1.399 . S
C531 H517 0.929 . S
C531 C530 1.399 . S
C531 C532 1.385 . S
C532 H518 0.931 . S
C532 C531 1.385 . S
C532 C533 1.389 . S
C533 C532 1.389 . S
C533 C534 1.387 . S
C534 H519 0.930 1_655 S
C534 C529 1.390 . S
C534 C533 1.387 . S
H535 C547 0.930 . S
H536 C549 0.930 . S
H537 C550 0.930 . S
H538 C554 0.959 . S
H539 C554 0.959 . S
H540 C554 0.961 . S
H541 C555 0.960 . S
H542 C555 0.961 . S
H543 C555 0.959 . S
H544 C558 0.929 . S
H545 C559 0.931 . S
H546 C561 0.930 . S
C547 H535 0.930 . S
C547 C548 1.399 . S
C547 C552 1.399 . S
C548 C547 1.399 . S
C548 C549 1.376 . S
C549 H536 0.930 . S
C549 C548 1.376 . S
C549 C550 1.388 . S
C550 H537 0.930 . S
C550 C549 1.388 . S
C550 C551 1.390 . S
C551 C550 1.390 . S
C551 C552 1.394 . S
C551 C557 1.465 . S
C552 C547 1.399 . S
C552 C551 1.394 . S
C552 C553 1.516 . S
C553 C552 1.516 . S
C553 C554 1.502 . S
C553 C555 1.561 . S
C553 C556 1.526 . S
C554 H538 0.959 . S
C554 H539 0.959 . S
C554 H540 0.961 . S
C554 C553 1.502 . S
C555 H541 0.960 . S
C555 H542 0.961 . S
C555 H543 0.959 . S
C555 C553 1.561 . S
C556 C553 1.526 . S
C556 C557 1.396 . S
C556 C561 1.390 . S
C557 C551 1.465 . S
C557 C556 1.396 . S
C557 C558 1.399 . S
C558 H544 0.929 . S
C558 C557 1.399 . S
C558 C559 1.385 . S
C559 H545 0.931 . S
C559 C558 1.385 . S
C559 C560 1.389 . S
C560 C559 1.389 . S
C560 C561 1.387 . S
C561 H546 0.930 . S
C561 C556 1.390 . S
C561 C560 1.387 . S
H562 C574 0.930 . S
H563 C576 0.930 . S
H564 C577 0.930 . S
H565 C581 0.959 . S
H566 C581 0.959 . S
H567 C581 0.961 . S
H568 C582 0.960 . S
H569 C582 0.961 . S
H570 C582 0.959 . S
H571 C585 0.929 . S
H572 C586 0.931 . S
H573 C588 0.930 . S
C574 H562 0.930 . S
C574 C575 1.399 . S
C574 C579 1.399 . S
C575 C574 1.399 . S
C575 C576 1.376 . S
C576 H563 0.930 . S
C576 C575 1.376 . S
C576 C577 1.388 . S
C577 H564 0.930 . S
C577 C576 1.388 . S
C577 C578 1.390 . S
C578 C577 1.390 . S
C578 C579 1.394 . S
C578 C584 1.465 . S
C579 C574 1.399 . S
C579 C578 1.394 . S
C579 C580 1.516 . S
C580 C579 1.516 . S
C580 C581 1.502 . S
C580 C582 1.561 . S
C580 C583 1.526 . S
C581 H565 0.959 . S
C581 H566 0.959 . S
C581 H567 0.961 . S
C581 C580 1.502 . S
C582 H568 0.960 . S
C582 H569 0.961 . S
C582 H570 0.959 . S
C582 C580 1.561 . S
C583 C580 1.526 . S
C583 C584 1.396 . S
C583 C588 1.390 . S
C584 C578 1.465 . S
C584 C583 1.396 . S
C584 C585 1.399 . S
C585 H571 0.929 . S
C585 C584 1.399 . S
C585 C586 1.385 . S
C586 H572 0.931 . S
C586 C585 1.385 . S
C586 C587 1.389 . S
C587 C586 1.389 . S
C587 C588 1.387 . S
C588 H573 0.930 . S
C588 C583 1.390 . S
C588 C587 1.387 . S
H589 C601 0.930 . S
H590 C603 0.930 . S
H591 C604 0.930 . S
H592 C608 0.959 . S
H593 C608 0.959 . S
H594 C608 0.961 . S
H595 C609 0.960 . S
H596 C609 0.961 . S
H597 C609 0.959 . S
H598 C612 0.929 . S
H599 C613 0.931 . S
H600 C615 0.930 . S
C601 H589 0.930 . S
C601 C602 1.399 . S
C601 C606 1.399 . S
C602 C601 1.399 . S
C602 C603 1.376 . S
C603 H590 0.930 . S
C603 C602 1.376 . S
C603 C604 1.388 . S
C604 H591 0.930 . S
C604 C603 1.388 . S
C604 C605 1.390 . S
C605 C604 1.390 . S
C605 C606 1.394 . S
C605 C611 1.465 . S
C606 C601 1.399 . S
C606 C605 1.394 . S
C606 C607 1.516 . S
C607 C606 1.516 . S
C607 C608 1.502 . S
C607 C609 1.561 . S
C607 C610 1.526 . S
C608 H592 0.959 . S
C608 H593 0.959 . S
C608 H594 0.961 . S
C608 C607 1.502 . S
C609 H595 0.960 . S
C609 H596 0.961 . S
C609 H597 0.959 . S
C609 C607 1.561 . S
C610 C607 1.526 . S
C610 C611 1.396 . S
C610 C615 1.390 . S
C611 C605 1.465 . S
C611 C610 1.396 . S
C611 C612 1.399 . S
C612 H598 0.929 . S
C612 C611 1.399 . S
C612 C613 1.385 . S
C613 H599 0.931 . S
C613 C612 1.385 . S
C613 C614 1.389 . S
C614 C613 1.389 . S
C614 C615 1.387 . S
C615 H600 0.930 . S
C615 C610 1.390 . S
C615 C614 1.387 . S
H616 C628 0.930 . S
H617 C630 0.930 . S
H618 C631 0.930 . S
H619 C635 0.959 . S
H620 C635 0.959 . S
H621 C635 0.961 . S
H622 C636 0.960 . S
H623 C636 0.961 . S
H624 C636 0.959 . S
H625 C639 0.929 . S
H626 C640 0.931 . S
H627 C642 0.930 . S
C628 H616 0.930 . S
C628 C629 1.399 . S
C628 C633 1.399 . S
C629 C628 1.399 . S
C629 C630 1.376 . S
C630 H617 0.930 . S
C630 C629 1.376 . S
C630 C631 1.388 . S
C631 H618 0.930 . S
C631 C630 1.388 . S
C631 C632 1.390 . S
C632 C631 1.390 . S
C632 C633 1.394 . S
C632 C638 1.465 . S
C633 C628 1.399 . S
C633 C632 1.394 . S
C633 C634 1.516 . S
C634 C633 1.516 . S
C634 C635 1.502 . S
C634 C636 1.561 . S
C634 C637 1.526 . S
C635 H619 0.959 . S
C635 H620 0.959 . S
C635 H621 0.961 . S
C635 C634 1.502 . S
C636 H622 0.960 . S
C636 H623 0.961 . S
C636 H624 0.959 . S
C636 C634 1.561 . S
C637 C634 1.526 . S
C637 C638 1.396 . S
C637 C642 1.390 . S
C638 C632 1.465 . S
C638 C637 1.396 . S
C638 C639 1.399 . S
C639 H625 0.929 . S
C639 C638 1.399 . S
C639 C640 1.385 . S
C640 H626 0.931 . S
C640 C639 1.385 . S
C640 C641 1.389 . S
C641 C640 1.389 . S
C641 C642 1.387 . S
C642 H627 0.930 . S
C642 C637 1.390 . S
C642 C641 1.387 . S
H643 C655 0.930 . S
H644 C657 0.930 . S
H645 C658 0.930 . S
H646 C662 0.959 . S
H647 C662 0.959 . S
H648 C662 0.961 . S
H649 C663 0.960 . S
H650 C663 0.961 . S
H651 C663 0.959 . S
H652 C666 0.929 . S
H653 C667 0.931 . S
H654 C669 0.930 . S
C655 H643 0.930 . S
C655 C656 1.399 . S
C655 C660 1.399 . S
C656 C655 1.399 . S
C656 C657 1.376 . S
C657 H644 0.930 . S
C657 C656 1.376 . S
C657 C658 1.388 . S
C658 H645 0.930 . S
C658 C657 1.388 . S
C658 C659 1.390 . S
C659 C658 1.390 . S
C659 C660 1.394 . S
C659 C665 1.465 . S
C660 C655 1.399 . S
C660 C659 1.394 . S
C660 C661 1.516 . S
C661 C660 1.516 . S
C661 C662 1.502 . S
C661 C663 1.561 . S
C661 C664 1.526 . S
C662 H646 0.959 . S
C662 H647 0.959 . S
C662 H648 0.961 . S
C662 C661 1.502 . S
C663 H649 0.960 . S
C663 H650 0.961 . S
C663 H651 0.959 . S
C663 C661 1.561 . S
C664 C661 1.526 . S
C664 C665 1.396 . S
C664 C669 1.390 . S
C665 C659 1.465 . S
C665 C664 1.396 . S
C665 C666 1.399 . S
C666 H652 0.929 . S
C666 C665 1.399 . S
C666 C667 1.385 . S
C667 H653 0.931 . S
C667 C666 1.385 . S
C667 C668 1.389 . S
C668 C667 1.389 . S
C668 C669 1.387 . S
C669 H654 0.930 . S
C669 C664 1.390 . S
C669 C668 1.387 . S
H670 C682 0.930 . S
H671 C684 0.930 . S
H672 C685 0.930 . S
H673 C689 0.959 . S
H674 C689 0.959 . S
H675 C689 0.961 . S
H676 C690 0.960 . S
H677 C690 0.961 . S
H678 C690 0.959 . S
H679 C693 0.929 . S
H680 C694 0.931 . S
H681 C696 0.930 . S
C682 H670 0.930 . S
C682 C683 1.399 . S
C682 C687 1.399 . S
C683 C682 1.399 . S
C683 C684 1.376 . S
C684 H671 0.930 . S
C684 C683 1.376 . S
C684 C685 1.388 . S
C685 H672 0.930 . S
C685 C684 1.388 . S
C685 C686 1.390 . S
C686 C685 1.390 . S
C686 C687 1.394 . S
C686 C692 1.465 . S
C687 C682 1.399 . S
C687 C686 1.394 . S
C687 C688 1.516 . S
C688 C687 1.516 . S
C688 C689 1.502 . S
C688 C690 1.561 . S
C688 C691 1.526 . S
C689 H673 0.959 . S
C689 H674 0.959 . S
C689 H675 0.961 . S
C689 C688 1.502 . S
C690 H676 0.960 . S
C690 H677 0.961 . S
C690 H678 0.959 . S
C690 C688 1.561 . S
C691 C688 1.526 . S
C691 C692 1.396 . S
C691 C696 1.390 . S
C692 C686 1.465 . S
C692 C691 1.396 . S
C692 C693 1.399 . S
C693 H679 0.929 . S
C693 C692 1.399 . S
C693 C694 1.385 . S
C694 H680 0.931 . S
C694 C693 1.385 . S
C694 C695 1.389 . S
C695 C694 1.389 . S
C695 C696 1.387 . S
C696 H681 0.930 . S
C696 C691 1.390 . S
C696 C695 1.387 . S
H697 C709 0.930 . S
H698 C711 0.930 . S
H699 C712 0.930 . S
H700 C716 0.959 . S
H701 C716 0.959 . S
H702 C716 0.961 . S
H703 C717 0.960 . S
H704 C717 0.961 . S
H705 C717 0.959 . S
H706 C720 0.929 . S
H707 C721 0.931 . S
H708 C723 0.930 . S
C709 H697 0.930 . S
C709 C710 1.399 . S
C709 C714 1.399 . S
C710 C709 1.399 . S
C710 C711 1.376 . S
C711 H698 0.930 . S
C711 C710 1.376 . S
C711 C712 1.388 . S
C712 H699 0.930 . S
C712 C711 1.388 . S
C712 C713 1.390 . S
C713 C712 1.390 . S
C713 C714 1.394 . S
C713 C719 1.465 . S
C714 C709 1.399 . S
C714 C713 1.394 . S
C714 C715 1.516 . S
C715 C714 1.516 . S
C715 C716 1.502 . S
C715 C717 1.561 . S
C715 C718 1.526 . S
C716 H700 0.959 . S
C716 H701 0.959 . S
C716 H702 0.961 . S
C716 C715 1.502 . S
C717 H703 0.960 . S
C717 H704 0.961 . S
C717 H705 0.959 . S
C717 C715 1.561 . S
C718 C715 1.526 . S
C718 C719 1.396 . S
C718 C723 1.390 . S
C719 C713 1.465 . S
C719 C718 1.396 . S
C719 C720 1.399 . S
C720 H706 0.929 . S
C720 C719 1.399 . S
C720 C721 1.385 . S
C721 H707 0.931 . S
C721 C720 1.385 . S
C721 C722 1.389 . S
C722 C721 1.389 . S
C722 C723 1.387 . S
C723 H708 0.930 . S
C723 C718 1.390 . S
C723 C722 1.387 . S
H724 C736 0.930 . S
H725 C738 0.930 . S
H726 C739 0.930 . S
H727 C743 0.959 . S
H728 C743 0.959 . S
H729 C743 0.961 . S
H730 C744 0.960 . S
H731 C744 0.961 . S
H732 C744 0.959 . S
H733 C747 0.929 . S
H734 C748 0.931 . S
H735 C750 0.930 . S
C736 H724 0.930 . S
C736 C737 1.399 . S
C736 C741 1.399 . S
C737 C736 1.399 . S
C737 C738 1.376 . S
C738 H725 0.930 . S
C738 C737 1.376 . S
C738 C739 1.388 . S
C739 H726 0.930 . S
C739 C738 1.388 . S
C739 C740 1.390 . S
C740 C739 1.390 . S
C740 C741 1.394 . S
C740 C746 1.465 . S
C741 C736 1.399 . S
C741 C740 1.394 . S
C741 C742 1.516 . S
C742 C741 1.516 . S
C742 C743 1.502 . S
C742 C744 1.561 . S
C742 C745 1.526 . S
C743 H727 0.959 . S
C743 H728 0.959 . S
C743 H729 0.961 . S
C743 C742 1.502 . S
C744 H730 0.960 . S
C744 H731 0.961 . S
C744 H732 0.959 . S
C744 C742 1.561 . S
C745 C742 1.526 . S
C745 C746 1.396 . S
C745 C750 1.390 . S
C746 C740 1.465 . S
C746 C745 1.396 . S
C746 C747 1.399 . S
C747 H733 0.929 . S
C747 C746 1.399 . S
C747 C748 1.385 . S
C748 H734 0.931 . S
C748 C747 1.385 . S
C748 C749 1.389 . S
C749 C748 1.389 . S
C749 C750 1.387 . S
C750 H735 0.930 . S
C750 C745 1.390 . S
C750 C749 1.387 . S
H751 C763 0.930 . S
H752 C765 0.930 . S
H753 C766 0.930 . S
H754 C770 0.959 . S
H755 C770 0.959 . S
H756 C770 0.961 . S
H757 C771 0.960 . S
H758 C771 0.961 . S
H759 C771 0.959 . S
H760 C774 0.929 . S
H761 C775 0.931 . S
H762 C777 0.930 . S
C763 H751 0.930 . S
C763 C764 1.399 . S
C763 C768 1.399 . S
C764 C763 1.399 . S
C764 C765 1.376 . S
C765 H752 0.930 . S
C765 C764 1.376 . S
C765 C766 1.388 . S
C766 H753 0.930 . S
C766 C765 1.388 . S
C766 C767 1.390 . S
C767 C766 1.390 . S
C767 C768 1.394 . S
C767 C773 1.465 . S
C768 C763 1.399 . S
C768 C767 1.394 . S
C768 C769 1.516 . S
C769 C768 1.516 . S
C769 C770 1.502 . S
C769 C771 1.561 . S
C769 C772 1.526 . S
C770 H754 0.959 . S
C770 H755 0.959 . S
C770 H756 0.961 . S
C770 C769 1.502 . S
C771 H757 0.960 . S
C771 H758 0.961 . S
C771 H759 0.959 . S
C771 C769 1.561 . S
C772 C769 1.526 . S
C772 C773 1.396 . S
C772 C777 1.390 . S
C773 C767 1.465 . S
C773 C772 1.396 . S
C773 C774 1.399 . S
C774 H760 0.929 . S
C774 C773 1.399 . S
C774 C775 1.385 . S
C775 H761 0.931 . S
C775 C774 1.385 . S
C775 C776 1.389 . S
C776 C775 1.389 . S
C776 C777 1.387 . S
C777 H762 0.930 . S
C777 C772 1.390 . S
C777 C776 1.387 . S
H778 C790 0.930 . S
H779 C792 0.930 . S
H780 C793 0.930 . S
H781 C797 0.959 . S
H782 C797 0.959 . S
H783 C797 0.961 . S
H784 C798 0.960 . S
H785 C798 0.961 . S
H786 C798 0.959 . S
H787 C801 0.929 . S
H788 C802 0.931 . S
H789 C804 0.930 . S
C790 H778 0.930 . S
C790 C791 1.399 . S
C790 C795 1.399 . S
C791 C790 1.399 . S
C791 C792 1.376 . S
C792 H779 0.930 . S
C792 C791 1.376 . S
C792 C793 1.388 . S
C793 H780 0.930 . S
C793 C792 1.388 . S
C793 C794 1.390 . S
C794 C793 1.390 . S
C794 C795 1.394 . S
C794 C800 1.465 . S
C795 C790 1.399 . S
C795 C794 1.394 . S
C795 C796 1.516 . S
C796 C795 1.516 . S
C796 C797 1.502 . S
C796 C798 1.561 . S
C796 C799 1.526 . S
C797 H781 0.959 . S
C797 H782 0.959 . S
C797 H783 0.961 . S
C797 C796 1.502 . S
C798 H784 0.960 . S
C798 H785 0.961 . S
C798 H786 0.959 . S
C798 C796 1.561 . S
C799 C796 1.526 . S
C799 C800 1.396 . S
C799 C804 1.390 . S
C800 C794 1.465 . S
C800 C799 1.396 . S
C800 C801 1.399 . S
C801 H787 0.929 . S
C801 C800 1.399 . S
C801 C802 1.385 . S
C802 H788 0.931 . S
C802 C801 1.385 . S
C802 C803 1.389 . S
C803 C802 1.389 . S
C803 C804 1.387 . S
C804 H789 0.930 . S
C804 C799 1.390 . S
C804 C803 1.387 . S
H805 C817 0.930 . S
H806 C819 0.930 . S
H807 C820 0.930 . S
H808 C824 0.959 . S
H809 C824 0.959 . S
H810 C824 0.961 . S
H811 C825 0.960 . S
H812 C825 0.961 . S
H813 C825 0.959 . S
H814 C828 0.929 . S
H815 C829 0.931 . S
H816 C831 0.930 . S
C817 H805 0.930 . S
C817 C818 1.399 . S
C817 C822 1.399 . S
C818 C817 1.399 . S
C818 C819 1.376 . S
C819 H806 0.930 . S
C819 C818 1.376 . S
C819 C820 1.388 . S
C820 H807 0.930 . S
C820 C819 1.388 . S
C820 C821 1.390 . S
C821 C820 1.390 . S
C821 C822 1.394 . S
C821 C827 1.465 . S
C822 C817 1.399 . S
C822 C821 1.394 . S
C822 C823 1.516 . S
C823 C822 1.516 . S
C823 C824 1.502 . S
C823 C825 1.561 . S
C823 C826 1.526 . S
C824 H808 0.959 . S
C824 H809 0.959 . S
C824 H810 0.961 . S
C824 C823 1.502 . S
C825 H811 0.960 . S
C825 H812 0.961 . S
C825 H813 0.959 . S
C825 C823 1.561 . S
C826 C823 1.526 . S
C826 C827 1.396 . S
C826 C831 1.390 . S
C827 C821 1.465 . S
C827 C826 1.396 . S
C827 C828 1.399 . S
C828 H814 0.929 . S
C828 C827 1.399 . S
C828 C829 1.385 . S
C829 H815 0.931 . S
C829 C828 1.385 . S
C829 C830 1.389 . S
C830 C829 1.389 . S
C830 C831 1.387 . S
C831 H816 0.930 . S
C831 C826 1.390 . S
C831 C830 1.387 . S
C197 N1 1.441 . S
C209 C123 1.393 . S
C224 N18 1.552 . S
C236 C126 1.517 . S
C263 C162 1.357 . S
C251 N28 1.381 . S
C278 N40 1.775 . S
C290 C182 1.835 . S
C317 C136 1.982 . S
C305 N5 1.953 . S
C344 C113 1.559 . S
C332 N14 1.579 . S
C371 C166 1.611 . S
C359 N31 1.658 . S
C398 C146 1.128 . S
C386 N41 1.118 . S
C413 N2 1.245 . S
C425 C176 1.262 . S
C452 C142 1.715 1_556 S
C440 N27 1.740 . S
C467 N44 1.744 . S
C479 C108 1.697 . S
C494 N15 1.170 . S
C506 C156 1.196 . S
C533 C122 1.747 1_655 S
C521 N57 1.803 . S
C548 N70 1.184 . S
C560 C128 1.182 . S
C575 N79 1.638 . S
C587 C163 1.585 . S
C602 N93 1.614 . S
C614 C183 1.612 . S
C629 N54 1.562 . S
C641 C133 1.561 . S
C668 C116 1.951 . S
C656 N66 1.974 . S
C695 C168 1.149 . S
C683 N80 1.218 . S
C722 C148 1.384 . S
C710 N96 1.435 . S
C737 N53 1.330 . S
C749 C173 1.276 . S
C776 C143 1.544 . S
C764 N83 1.560 . S
C803 C106 1.791 . S
C791 N92 1.814 . S
C818 N67 1.234 . S
C830 C153 1.213 . S
