# Generated by pormake.
# Topology ptr, (4,4)-cn, num edge types: 1
# Building blocks:
#     Node 0, Type 0, BuildingBlock: AZAVOO_clean_sbu_0, # of connection points: 4
#     Node 1, Type 0, BuildingBlock: AZAVOO_clean_sbu_0, # of connection points: 4
#     Node 2, Type 0, BuildingBlock: AZAVOO_clean_sbu_0, # of connection points: 4
#     Node 3, Type 0, BuildingBlock: AZAVOO_clean_sbu_0, # of connection points: 4
#     Node 4, Type 0, BuildingBlock: AZAVOO_clean_sbu_0, # of connection points: 4
#     Node 5, Type 0, BuildingBlock: AZAVOO_clean_sbu_0, # of connection points: 4
#     Node 6, Type 0, BuildingBlock: AZAVOO_clean_sbu_0, # of connection points: 4
#     Node 7, Type 0, BuildingBlock: AZAVOO_clean_sbu_0, # of connection points: 4
#     Node 8, Type 0, BuildingBlock: AZAVOO_clean_sbu_0, # of connection points: 4
#     Node 9, Type 0, BuildingBlock: AZAVOO_clean_sbu_0, # of connection points: 4
#     Node 10, Type 0, BuildingBlock: AZAVOO_clean_sbu_0, # of connection points: 4
#     Node 11, Type 0, BuildingBlock: AZAVOO_clean_sbu_0, # of connection points: 4
#     Node 12, Type 0, BuildingBlock: AZAVOO_clean_sbu_0, # of connection points: 4
#     Node 13, Type 0, BuildingBlock: AZAVOO_clean_sbu_0, # of connection points: 4
#     Node 14, Type 0, BuildingBlock: AZAVOO_clean_sbu_0, # of connection points: 4
#     Node 15, Type 0, BuildingBlock: AZAVOO_clean_sbu_0, # of connection points: 4
#     Node 16, Type 0, BuildingBlock: AZAVOO_clean_sbu_0, # of connection points: 4
#     Node 17, Type 0, BuildingBlock: AZAVOO_clean_sbu_0, # of connection points: 4
#     Node 18, Type 1, BuildingBlock: NAWXER_clean_linker_0, # of connection points: 4
#     Node 19, Type 1, BuildingBlock: NAWXER_clean_linker_0, # of connection points: 4
#     Node 20, Type 1, BuildingBlock: NAWXER_clean_linker_0, # of connection points: 4
#     Node 21, Type 1, BuildingBlock: NAWXER_clean_linker_0, # of connection points: 4
#     Node 22, Type 1, BuildingBlock: NAWXER_clean_linker_0, # of connection points: 4
#     Node 23, Type 1, BuildingBlock: NAWXER_clean_linker_0, # of connection points: 4
#     Node 24, Type 1, BuildingBlock: NAWXER_clean_linker_0, # of connection points: 4
#     Node 25, Type 1, BuildingBlock: NAWXER_clean_linker_0, # of connection points: 4
#     Node 26, Type 1, BuildingBlock: NAWXER_clean_linker_0, # of connection points: 4
#     Node 27, Type 1, BuildingBlock: NAWXER_clean_linker_0, # of connection points: 4
#     Node 28, Type 1, BuildingBlock: NAWXER_clean_linker_0, # of connection points: 4
#     Node 29, Type 1, BuildingBlock: NAWXER_clean_linker_0, # of connection points: 4
#     Node 30, Type 1, BuildingBlock: NAWXER_clean_linker_0, # of connection points: 4
#     Node 31, Type 1, BuildingBlock: NAWXER_clean_linker_0, # of connection points: 4
#     Node 32, Type 1, BuildingBlock: NAWXER_clean_linker_0, # of connection points: 4
#     Node 33, Type 1, BuildingBlock: NAWXER_clean_linker_0, # of connection points: 4
#     Node 34, Type 1, BuildingBlock: NAWXER_clean_linker_0, # of connection points: 4
#     Node 35, Type 1, BuildingBlock: NAWXER_clean_linker_0, # of connection points: 4
#     Edge 36, Type (0, 1), BuildingBlock: KIFKEQ_clean_linker_1, # of connection points: 2
#     Edge 37, Type (0, 1), BuildingBlock: KIFKEQ_clean_linker_1, # of connection points: 2
#     Edge 38, Type (0, 1), BuildingBlock: KIFKEQ_clean_linker_1, # of connection points: 2
#     Edge 39, Type (0, 1), BuildingBlock: KIFKEQ_clean_linker_1, # of connection points: 2
#     Edge 40, Type (0, 1), BuildingBlock: KIFKEQ_clean_linker_1, # of connection points: 2
#     Edge 41, Type (0, 1), BuildingBlock: KIFKEQ_clean_linker_1, # of connection points: 2
#     Edge 42, Type (0, 1), BuildingBlock: KIFKEQ_clean_linker_1, # of connection points: 2
#     Edge 43, Type (0, 1), BuildingBlock: KIFKEQ_clean_linker_1, # of connection points: 2
#     Edge 44, Type (0, 1), BuildingBlock: KIFKEQ_clean_linker_1, # of connection points: 2
#     Edge 45, Type (0, 1), BuildingBlock: KIFKEQ_clean_linker_1, # of connection points: 2
#     Edge 46, Type (0, 1), BuildingBlock: KIFKEQ_clean_linker_1, # of connection points: 2
#     Edge 47, Type (0, 1), BuildingBlock: KIFKEQ_clean_linker_1, # of connection points: 2
#     Edge 48, Type (0, 1), BuildingBlock: KIFKEQ_clean_linker_1, # of connection points: 2
#     Edge 49, Type (0, 1), BuildingBlock: KIFKEQ_clean_linker_1, # of connection points: 2
#     Edge 50, Type (0, 1), BuildingBlock: KIFKEQ_clean_linker_1, # of connection points: 2
#     Edge 51, Type (0, 1), BuildingBlock: KIFKEQ_clean_linker_1, # of connection points: 2
#     Edge 52, Type (0, 1), BuildingBlock: KIFKEQ_clean_linker_1, # of connection points: 2
#     Edge 53, Type (0, 1), BuildingBlock: KIFKEQ_clean_linker_1, # of connection points: 2
#     Edge 54, Type (0, 1), BuildingBlock: KIFKEQ_clean_linker_1, # of connection points: 2
#     Edge 55, Type (0, 1), BuildingBlock: KIFKEQ_clean_linker_1, # of connection points: 2
#     Edge 56, Type (0, 1), BuildingBlock: KIFKEQ_clean_linker_1, # of connection points: 2
#     Edge 57, Type (0, 1), BuildingBlock: KIFKEQ_clean_linker_1, # of connection points: 2
#     Edge 58, Type (0, 1), BuildingBlock: KIFKEQ_clean_linker_1, # of connection points: 2
#     Edge 59, Type (0, 1), BuildingBlock: KIFKEQ_clean_linker_1, # of connection points: 2
#     Edge 60, Type (0, 1), BuildingBlock: KIFKEQ_clean_linker_1, # of connection points: 2
#     Edge 61, Type (0, 1), BuildingBlock: KIFKEQ_clean_linker_1, # of connection points: 2
#     Edge 62, Type (0, 1), BuildingBlock: KIFKEQ_clean_linker_1, # of connection points: 2
#     Edge 63, Type (0, 1), BuildingBlock: KIFKEQ_clean_linker_1, # of connection points: 2
#     Edge 64, Type (0, 1), BuildingBlock: KIFKEQ_clean_linker_1, # of connection points: 2
#     Edge 65, Type (0, 1), BuildingBlock: KIFKEQ_clean_linker_1, # of connection points: 2
#     Edge 66, Type (0, 1), BuildingBlock: KIFKEQ_clean_linker_1, # of connection points: 2
#     Edge 67, Type (0, 1), BuildingBlock: KIFKEQ_clean_linker_1, # of connection points: 2
#     Edge 68, Type (0, 1), BuildingBlock: KIFKEQ_clean_linker_1, # of connection points: 2
#     Edge 69, Type (0, 1), BuildingBlock: KIFKEQ_clean_linker_1, # of connection points: 2
#     Edge 70, Type (0, 1), BuildingBlock: KIFKEQ_clean_linker_1, # of connection points: 2
#     Edge 71, Type (0, 1), BuildingBlock: KIFKEQ_clean_linker_1, # of connection points: 2
#     Edge 72, Type (0, 1), BuildingBlock: KIFKEQ_clean_linker_1, # of connection points: 2
#     Edge 73, Type (0, 1), BuildingBlock: KIFKEQ_clean_linker_1, # of connection points: 2
#     Edge 74, Type (0, 1), BuildingBlock: KIFKEQ_clean_linker_1, # of connection points: 2
#     Edge 75, Type (0, 1), BuildingBlock: KIFKEQ_clean_linker_1, # of connection points: 2
#     Edge 76, Type (0, 1), BuildingBlock: KIFKEQ_clean_linker_1, # of connection points: 2
#     Edge 77, Type (0, 1), BuildingBlock: KIFKEQ_clean_linker_1, # of connection points: 2
#     Edge 78, Type (0, 1), BuildingBlock: KIFKEQ_clean_linker_1, # of connection points: 2
#     Edge 79, Type (0, 1), BuildingBlock: KIFKEQ_clean_linker_1, # of connection points: 2
#     Edge 80, Type (0, 1), BuildingBlock: KIFKEQ_clean_linker_1, # of connection points: 2
#     Edge 81, Type (0, 1), BuildingBlock: KIFKEQ_clean_linker_1, # of connection points: 2
#     Edge 82, Type (0, 1), BuildingBlock: KIFKEQ_clean_linker_1, # of connection points: 2
#     Edge 83, Type (0, 1), BuildingBlock: KIFKEQ_clean_linker_1, # of connection points: 2
#     Edge 84, Type (0, 1), BuildingBlock: KIFKEQ_clean_linker_1, # of connection points: 2
#     Edge 85, Type (0, 1), BuildingBlock: KIFKEQ_clean_linker_1, # of connection points: 2
#     Edge 86, Type (0, 1), BuildingBlock: KIFKEQ_clean_linker_1, # of connection points: 2
#     Edge 87, Type (0, 1), BuildingBlock: KIFKEQ_clean_linker_1, # of connection points: 2
#     Edge 88, Type (0, 1), BuildingBlock: KIFKEQ_clean_linker_1, # of connection points: 2
#     Edge 89, Type (0, 1), BuildingBlock: KIFKEQ_clean_linker_1, # of connection points: 2
#     Edge 90, Type (0, 1), BuildingBlock: KIFKEQ_clean_linker_1, # of connection points: 2
#     Edge 91, Type (0, 1), BuildingBlock: KIFKEQ_clean_linker_1, # of connection points: 2
#     Edge 92, Type (0, 1), BuildingBlock: KIFKEQ_clean_linker_1, # of connection points: 2
#     Edge 93, Type (0, 1), BuildingBlock: KIFKEQ_clean_linker_1, # of connection points: 2
#     Edge 94, Type (0, 1), BuildingBlock: KIFKEQ_clean_linker_1, # of connection points: 2
#     Edge 95, Type (0, 1), BuildingBlock: KIFKEQ_clean_linker_1, # of connection points: 2
#     Edge 96, Type (0, 1), BuildingBlock: KIFKEQ_clean_linker_1, # of connection points: 2
#     Edge 97, Type (0, 1), BuildingBlock: KIFKEQ_clean_linker_1, # of connection points: 2
#     Edge 98, Type (0, 1), BuildingBlock: KIFKEQ_clean_linker_1, # of connection points: 2
#     Edge 99, Type (0, 1), BuildingBlock: KIFKEQ_clean_linker_1, # of connection points: 2
#     Edge 100, Type (0, 1), BuildingBlock: KIFKEQ_clean_linker_1, # of connection points: 2
#     Edge 101, Type (0, 1), BuildingBlock: KIFKEQ_clean_linker_1, # of connection points: 2
#     Edge 102, Type (0, 1), BuildingBlock: KIFKEQ_clean_linker_1, # of connection points: 2
#     Edge 103, Type (0, 1), BuildingBlock: KIFKEQ_clean_linker_1, # of connection points: 2
#     Edge 104, Type (0, 1), BuildingBlock: KIFKEQ_clean_linker_1, # of connection points: 2
#     Edge 105, Type (0, 1), BuildingBlock: KIFKEQ_clean_linker_1, # of connection points: 2
#     Edge 106, Type (0, 1), BuildingBlock: KIFKEQ_clean_linker_1, # of connection points: 2
#     Edge 107, Type (0, 1), BuildingBlock: KIFKEQ_clean_linker_1, # of connection points: 2
# Relax obj value: 0.082
# Max RMSD: 0.298
# Mean RMSD: 0.121
data_MOF--net-ptr--node1-AZAVOO_clean_sbu_0--node2-NAWXER_clean_linker_0--edge1-KIFKEQ_clean_linker_1
_symmetry_space_group_name_H-M    P1
_symmetry_Int_Tables_number       1
_symmetry_cell_setting            triclinic
loop_
_symmetry_equiv_pos_as_xyz
'x, y, z'
_cell_length_a     89.413124
_cell_length_b     87.865309
_cell_length_c     62.793372
_cell_angle_alpha  91.159182
_cell_angle_beta   90.870448
_cell_angle_gamma 120.09302
loop_
_atom_site_label
_atom_site_type_symbol
_atom_site_fract_x
_atom_site_fract_y
_atom_site_fract_z
_atom_type_partial_charge
Mg0 Mg 0.01563 0.33813 0.98151 0.0
O1 O 0.00348 0.34686 0.00785 0.0
O2 O 0.9825 0.34995 0.9923 0.0
Mg3 Mg 0.98178 0.34429 0.95655 0.0
C4 C 0.99136 0.35054 0.00875 0.0
C5 C 0.03663 0.33859 0.02296 0.0
O6 O 0.03688 0.35346 0.02695 0.0
O7 O 0.99199 0.31037 0.97887 0.0
O8 O 0.97243 0.31521 0.96254 0.0
O9 O 0.03442 0.36649 0.97594 0.0
O10 O 0.00907 0.35112 0.95913 0.0
C11 C 0.97694 0.30481 0.97054 0.0
C12 C 0.02294 0.36604 0.96271 0.0
O13 O 0.0288 0.32955 0.00619 0.0
Mg14 Mg 0.66329 0.65638 0.0414 0.0
O15 O 0.64114 0.64708 0.01651 0.0
O16 O 0.6172 0.64128 0.03355 0.0
Mg17 Mg 0.62388 0.64608 0.06934 0.0
C18 C 0.62505 0.64211 0.01642 0.0
C19 C 0.69784 0.67967 0.01997 0.0
O20 O 0.70106 0.68647 0.03947 0.0
O21 O 0.66486 0.68294 0.04591 0.0
O22 O 0.64139 0.67577 0.06483 0.0
O23 O 0.65673 0.62848 0.04564 0.0
O24 O 0.64597 0.642 0.0646 0.0
C25 C 0.65525 0.68723 0.05621 0.0
C26 C 0.64637 0.62785 0.06024 0.0
O27 O 0.68291 0.66677 0.0152 0.0
Mg28 Mg 0.33901 0.98542 0.99146 0.0
O29 O 0.36082 0.00027 0.0166 0.0
O30 O 0.38371 0.02139 1.00055 0.0
Mg31 Mg 0.37664 0.01987 0.96511 0.0
C32 C 0.37638 0.01306 0.0172 0.0
C33 C 0.30663 0.95839 0.01531 0.0
O34 O 0.30426 0.94955 0.99725 0.0
O35 O 0.33348 0.00797 0.98941 0.0
O36 O 0.35643 0.02795 0.97213 0.0
O37 O 0.34936 0.96734 0.98454 0.0
O38 O 0.35682 0.99192 0.96779 0.0
C39 C 0.34189 0.02287 0.98076 0.0
C40 C 0.3588 0.97858 0.97056 0.0
O41 O 0.32 0.97349 0.01796 0.0
Mg42 Mg 0.99507 0.66647 0.02892 0.0
O43 O 0.00875 0.65904 0.00315 0.0
O44 O 0.02956 0.65661 0.0202 0.0
Mg45 Mg 0.02925 0.66191 0.05582 0.0
C46 C 0.02123 0.65583 0.00313 0.0
C47 C 0.96567 0.66726 0.00319 0.0
O48 O 0.957 0.65494 0.01686 0.0
O49 O 0.01775 0.69463 0.03278 0.0
O50 O 0.03745 0.69083 0.05046 0.0
O51 O 0.97669 0.63788 0.03372 0.0
O52 O 0.00167 0.65342 0.05133 0.0
C53 C 0.03253 0.70079 0.04212 0.0
C54 C 0.9881 0.63837 0.04708 0.0
O55 O 0.98208 0.67473 0.00359 0.0
Mg56 Mg 0.34049 0.34908 0.98068 0.0
O57 O 0.36253 0.35476 0.00478 0.0
O58 O 0.38487 0.35768 0.9862 0.0
Mg59 Mg 0.37736 0.35392 0.9508 0.0
C60 C 0.37799 0.35761 0.00389 0.0
C61 C 0.31058 0.34623 0.00662 0.0
O62 O 0.31121 0.35605 0.99076 0.0
O63 O 0.33452 0.32088 0.97473 0.0
O64 O 0.35714 0.32494 0.95574 0.0
O65 O 0.3509 0.37795 0.97782 0.0
O66 O 0.35831 0.36221 0.95732 0.0
C67 C 0.34275 0.31488 0.96438 0.0
C68 C 0.36035 0.37736 0.96275 0.0
O69 O 0.3214 0.34089 0.00747 0.0
Mg70 Mg 0.66177 0.01116 0.0349 0.0
O71 O 0.64077 0.998 0.00853 0.0
O72 O 0.61593 0.97937 0.02358 0.0
Mg73 Mg 0.62074 0.98124 0.0597 0.0
C74 C 0.62467 0.98659 0.00715 0.0
C75 C 0.68437 0.03277 0.99776 0.0
O76 O 0.67473 0.04 1.00053 0.0
O77 O 0.66275 0.98599 0.03911 0.0
O78 O 0.63842 0.96941 0.0564 0.0
O79 O 0.65557 0.03281 0.03937 0.0
O80 O 0.643 0.00782 0.05639 0.0
C81 C 0.65263 0.97196 0.04872 0.0
C82 C 0.64393 0.02254 0.05234 0.0
O83 O 0.68232 0.02039 0.00968 0.0
Mg84 Mg 0.67614 0.67052 0.32582 0.0
O85 O 0.66323 0.67951 0.35097 0.0
O86 O 0.64454 0.68471 0.33294 0.0
Mg87 Mg 0.6459 0.68023 0.29726 0.0
C88 C 0.65176 0.68416 0.3504 0.0
C89 C 0.69081 0.64869 0.34538 0.0
O90 O 0.68761 0.64296 0.32541 0.0
O91 O 0.6515 0.64355 0.32101 0.0
O92 O 0.63486 0.65073 0.3018 0.0
O93 O 0.69701 0.6986 0.32167 0.0
O94 O 0.67222 0.68532 0.30333 0.0
C95 C 0.63754 0.63924 0.31043 0.0
C96 C 0.68658 0.6995 0.3079 0.0
O97 O 0.68697 0.66018 0.3514 0.0
Mg98 Mg 0.32972 0.99169 0.37997 0.0
O99 O 0.30755 0.98354 0.35508 0.0
O100 O 0.28483 0.98096 0.37254 0.0
Mg101 Mg 0.29189 0.98673 0.40804 0.0
C102 C 0.29189 0.98021 0.35533 0.0
C103 C 0.35667 0.98992 0.35188 0.0
O104 O 0.35284 0.97727 0.36528 0.0
O105 O 0.33431 0.01974 0.38266 0.0
O106 O 0.3116 0.01545 0.40149 0.0
O107 O 0.32071 0.96337 0.38606 0.0
O108 O 0.31157 0.97914 0.4034 0.0
C109 C 0.32573 0.02563 0.39241 0.0
C110 C 0.31051 0.96415 0.39987 0.0
O111 O 0.3492 0.99894 0.35353 0.0
Mg112 Mg 0.00245 0.31593 0.31693 0.0
O113 O 0.02576 0.32966 0.34042 0.0
O114 O 0.04923 0.34618 0.3217 0.0
Mg115 Mg 0.0411 0.34308 0.28647 0.0
C116 C 0.042 0.34031 0.3394 0.0
C117 C 0.98577 0.3006 0.36055 0.0
O118 O 0.99881 0.29771 0.36172 0.0
O119 O 0.00202 0.34147 0.31285 0.0
O120 O 0.02521 0.35646 0.29295 0.0
O121 O 0.00775 0.29368 0.31172 0.0
O122 O 0.01835 0.31748 0.29252 0.0
C123 C 0.01201 0.35503 0.30237 0.0
C124 C 0.01754 0.30281 0.29647 0.0
O125 O 0.98403 0.30809 0.34437 0.0
Mg126 Mg 0.65803 0.99291 0.36806 0.0
O127 O 0.67315 0.98549 0.3445 0.0
O128 O 0.69276 0.98273 0.36395 0.0
Mg129 Mg 0.69063 0.98843 0.39896 0.0
C130 C 0.6855 0.98214 0.34605 0.0
C131 C 0.63979 0.01014 0.34506 0.0
O132 O 0.64142 0.01628 0.36473 0.0
O133 O 0.68062 0.02117 0.37225 0.0
O134 O 0.69947 0.01723 0.39177 0.0
O135 O 0.63969 0.96432 0.37261 0.0
O136 O 0.66336 0.98035 0.39243 0.0
C137 C 0.69512 0.02722 0.3823 0.0
C138 C 0.65019 0.96514 0.38761 0.0
O139 O 0.64595 0.00022 0.34065 0.0
Mg140 Mg 0.00746 0.67598 0.31681 0.0
O141 O 0.0297 0.68522 0.34187 0.0
O142 O 0.05365 0.69217 0.32407 0.0
Mg143 Mg 0.04723 0.68836 0.28832 0.0
C144 C 0.0459 0.69066 0.3415 0.0
C145 C 0.97257 0.65156 0.33714 0.0
O146 O 0.96957 0.64538 0.31735 0.0
O147 O 0.00686 0.64993 0.31089 0.0
O148 O 0.03043 0.65855 0.29168 0.0
O149 O 0.01269 0.70362 0.31394 0.0
O150 O 0.02506 0.69186 0.2947 0.0
C151 C 0.0168 0.64647 0.30003 0.0
C152 C 0.02389 0.70545 0.29992 0.0
O153 O 0.98748 0.66424 0.34246 0.0
Mg154 Mg 0.32895 0.34577 0.36526 0.0
O155 O 0.30694 0.33058 0.34028 0.0
O156 O 0.28322 0.31286 0.35807 0.0
Mg157 Mg 0.28946 0.31751 0.39384 0.0
C158 C 0.29094 0.31883 0.34064 0.0
C159 C 0.36248 0.36883 0.34199 0.0
O160 O 0.36416 0.37871 0.35886 0.0
O161 O 0.33064 0.32125 0.37186 0.0
O162 O 0.30723 0.30582 0.3912 0.0
O163 O 0.3225 0.36734 0.36749 0.0
O164 O 0.31104 0.34369 0.38711 0.0
C165 C 0.3211 0.30794 0.38295 0.0
C166 C 0.31147 0.35789 0.38155 0.0
O167 O 0.34891 0.35385 0.33961 0.0
Mg168 Mg 0.3482 0.00916 0.65944 0.0
O169 O 0.33417 0.0196 0.68081 0.0
O170 O 0.31879 0.0266 0.65877 0.0
Mg171 Mg 0.32132 0.01929 0.6245 0.0
C172 C 0.3241 0.02578 0.67748 0.0
C173 C 0.36098 0.98809 0.68501 0.0
O174 O 0.35792 0.98053 0.66593 0.0
O175 O 0.32325 0.98248 0.65456 0.0
O176 O 0.30834 0.9901 0.63263 0.0
O177 O 0.3696 0.0369 0.65517 0.0
O178 O 0.34662 0.02297 0.63371 0.0
C179 C 0.30978 0.97854 0.64308 0.0
C180 C 0.36067 0.03726 0.63898 0.0
O181 O 0.35728 0.00014 0.6883 0.0
Mg182 Mg 0.99784 0.3193 0.70877 0.0
O183 O 0.9747 0.31095 0.68559 0.0
O184 O 0.95203 0.30649 0.70461 0.0
Mg185 Mg 0.96052 0.31177 0.73975 0.0
C186 C 0.95885 0.30678 0.68681 0.0
C187 C 0.03084 0.34121 0.6821 0.0
O188 O 0.03592 0.35076 0.69991 0.0
O189 O 0.00125 0.34667 0.71355 0.0
O190 O 0.97856 0.34106 0.73335 0.0
O191 O 0.98993 0.29109 0.71291 0.0
O192 O 0.98128 0.30589 0.73318 0.0
C193 C 0.99231 0.35179 0.72393 0.0
C194 C 0.9805 0.2912 0.7283 0.0
O195 O 0.01579 0.32774 0.68074 0.0
Mg196 Mg 0.68568 0.65847 0.65949 0.0
O197 O 0.70786 0.67605 0.68317 0.0
O198 O 0.73059 0.69417 0.66418 0.0
Mg199 Mg 0.72302 0.68851 0.62875 0.0
C200 C 0.72354 0.68842 0.68199 0.0
C201 C 0.65634 0.63292 0.68722 0.0
O202 O 0.65789 0.62235 0.67347 0.0
O203 O 0.68072 0.68087 0.65234 0.0
O204 O 0.70292 0.6973 0.63166 0.0
O205 O 0.69512 0.63908 0.65699 0.0
O206 O 0.70308 0.66163 0.63617 0.0
C207 C 0.6888 0.69396 0.64034 0.0
C208 C 0.70441 0.64831 0.64147 0.0
O209 O 0.66653 0.64939 0.68622 0.0
Mg210 Mg 0.31909 0.32552 0.70122 0.0
O211 O 0.33386 0.31742 0.67763 0.0
O212 O 0.35219 0.31308 0.6977 0.0
Mg213 Mg 0.34974 0.31829 0.73269 0.0
C214 C 0.34564 0.31326 0.67957 0.0
C215 C 0.29273 0.33124 0.677 0.0
O216 O 0.28494 0.32321 0.69432 0.0
O217 O 0.34263 0.35323 0.70639 0.0
O218 O 0.36017 0.34737 0.72595 0.0
O219 O 0.29953 0.29699 0.70506 0.0
O220 O 0.32312 0.3119 0.72533 0.0
C221 C 0.35685 0.35819 0.71668 0.0
C222 C 0.30956 0.29708 0.72021 0.0
O223 O 0.30808 0.33441 0.67417 0.0
Mg224 Mg 0.67148 0.01496 0.64364 0.0
O225 O 0.69529 0.02471 0.66603 0.0
O226 O 0.71806 0.03127 0.64601 0.0
Mg227 Mg 0.70905 0.02702 0.61089 0.0
C228 C 0.71136 0.03003 0.66417 0.0
C229 C 0.63931 0.99009 0.66939 0.0
O230 O 0.63509 0.98153 0.65088 0.0
O231 O 0.67059 0.98888 0.63693 0.0
O232 O 0.69251 0.99717 0.6148 0.0
O233 O 0.67664 0.04251 0.64099 0.0
O234 O 0.68684 0.02999 0.61931 0.0
C235 C 0.67958 0.98523 0.62445 0.0
C236 C 0.6861 0.04374 0.62496 0.0
O237 O 0.65384 0.00415 0.67173 0.0
Mg238 Mg 0.98501 0.67634 0.69689 0.0
O239 O 0.96234 0.66206 0.67256 0.0
O240 O 0.93853 0.64538 0.69073 0.0
Mg241 Mg 0.94587 0.64833 0.72616 0.0
C242 C 0.94611 0.65125 0.67322 0.0
C243 C 0.01861 0.6858 0.67296 0.0
O244 O 0.02213 0.6812 0.69133 0.0
O245 O 0.986 0.65115 0.70137 0.0
O246 O 0.96258 0.63567 0.72069 0.0
O247 O 0.97902 0.69817 0.70157 0.0
O248 O 0.96828 0.6743 0.7206 0.0
C249 C 0.97612 0.63751 0.71178 0.0
C250 C 0.96889 0.68886 0.71646 0.0
O251 O 0.00408 0.68487 0.67006 0.0
C252 C 0.21766 0.31926 0.13067 0.0
C253 C 0.21508 0.30917 0.11186 0.0
C254 C 0.20385 0.31536 0.14394 0.0
C255 C 0.18728 0.30115 0.13878 0.0
C256 C 0.19852 0.29481 0.10694 0.0
C257 C 0.18475 0.29092 0.12021 0.0
C258 C 0.1722 0.2978 0.15146 0.0
C259 C 0.20711 0.28937 0.19797 0.0
C260 C 0.21125 0.29977 0.21684 0.0
C261 C 0.19462 0.28851 0.18341 0.0
C262 C 0.18634 0.29825 0.18742 0.0
C263 C 0.20329 0.30986 0.2204 0.0
C264 C 0.19096 0.30906 0.20591 0.0
C265 C 0.1718 0.29639 0.17384 0.0
C266 C 0.09745 0.27434 0.19162 0.0
C267 C 0.10018 0.28341 0.2113 0.0
C268 C 0.11147 0.27726 0.17925 0.0
C269 C 0.12844 0.28947 0.18624 0.0
C270 C 0.11721 0.29525 0.21848 0.0
C271 C 0.13118 0.29818 0.20611 0.0
C272 C 0.1435 0.29279 0.17348 0.0
C273 C 0.11602 0.31397 0.13463 0.0
C274 C 0.10911 0.30527 0.11485 0.0
C275 C 0.12715 0.31045 0.14662 0.0
C276 C 0.13153 0.29803 0.13919 0.0
C277 C 0.11343 0.29277 0.10745 0.0
C278 C 0.12468 0.28932 0.11943 0.0
C279 C 0.14429 0.29524 0.15129 0.0
H280 H 0.23019 0.33058 0.13471 0.0
H281 H 0.20602 0.32379 0.15784 0.0
H282 H 0.19615 0.28667 0.09269 0.0
H283 H 0.17204 0.27999 0.11585 0.0
H284 H 0.213 0.2814 0.19492 0.0
H285 H 0.19103 0.2798 0.16947 0.0
H286 H 0.20642 0.31821 0.23462 0.0
H287 H 0.1848 0.31673 0.20935 0.0
H288 H 0.08449 0.26496 0.18581 0.0
H289 H 0.10903 0.26993 0.1643 0.0
H290 H 0.11976 0.30265 0.2334 0.0
H291 H 0.14416 0.30756 0.21192 0.0
H292 H 0.11288 0.32359 0.14083 0.0
H293 H 0.13263 0.31773 0.16153 0.0
H294 H 0.10849 0.28601 0.09214 0.0
H295 H 0.12809 0.27989 0.11324 0.0
N296 N 0.15846 0.29729 0.14108 0.0
N297 N 0.15738 0.29375 0.18385 0.0
C298 C 0.68585 0.89543 0.14311 0.0
C299 C 0.69679 0.90454 0.12644 0.0
C300 C 0.69054 0.88667 0.15768 0.0
C301 C 0.70623 0.88683 0.15579 0.0
C302 C 0.71274 0.90517 0.12494 0.0
C303 C 0.71732 0.89616 0.13936 0.0
C304 C 0.70975 0.87518 0.16889 0.0
C305 C 0.71471 0.91822 0.21424 0.0
C306 C 0.70392 0.91228 0.23185 0.0
C307 C 0.71633 0.90623 0.20078 0.0
C308 C 0.70692 0.88808 0.20449 0.0
C309 C 0.69441 0.89415 0.23535 0.0
C310 C 0.69591 0.88221 0.22186 0.0
C311 C 0.70899 0.87504 0.19137 0.0
C312 C 0.72006 0.81441 0.21304 0.0
C313 C 0.70665 0.80595 0.22743 0.0
C314 C 0.72135 0.8283 0.20114 0.0
C315 C 0.70938 0.83407 0.20373 0.0
C316 C 0.69482 0.81187 0.23012 0.0
C317 C 0.69629 0.82593 0.21856 0.0
C318 C 0.71029 0.84854 0.19115 0.0
C319 C 0.68845 0.80291 0.14384 0.0
C320 C 0.69935 0.80471 0.12705 0.0
C321 C 0.69271 0.81698 0.15803 0.0
C322 C 0.70795 0.83315 0.15569 0.0
C323 C 0.71486 0.82071 0.12502 0.0
C324 C 0.71901 0.83494 0.13909 0.0
C325 C 0.71088 0.84863 0.16872 0.0
H326 H 0.67353 0.89486 0.14467 0.0
H327 H 0.68158 0.87917 0.16989 0.0
H328 H 0.72134 0.91206 0.11216 0.0
H329 H 0.72934 0.89616 0.13744 0.0
H330 H 0.72234 0.93215 0.21133 0.0
H331 H 0.72529 0.91122 0.18787 0.0
H332 H 0.68584 0.88917 0.24865 0.0
H333 H 0.68847 0.86832 0.22511 0.0
H334 H 0.72931 0.81003 0.2107 0.0
H335 H 0.73168 0.83455 0.18997 0.0
H336 H 0.68444 0.80563 0.24124 0.0
H337 H 0.68696 0.83021 0.22085 0.0
H338 H 0.67647 0.79066 0.14579 0.0
H339 H 0.68373 0.81543 0.17034 0.0
H340 H 0.72342 0.82238 0.11212 0.0
H341 H 0.73066 0.84742 0.13681 0.0
N342 N 0.71071 0.862 0.15849 0.0
N343 N 0.70932 0.8617 0.20157 0.0
C344 C 0.11072 0.8102 0.13723 0.0
C345 C 0.10539 0.81472 0.11847 0.0
C346 C 0.12257 0.82327 0.15145 0.0
C347 C 0.12879 0.84116 0.14765 0.0
C348 C 0.11188 0.83253 0.11425 0.0
C349 C 0.12342 0.84565 0.12879 0.0
C350 C 0.14227 0.85523 0.16191 0.0
C351 C 0.09805 0.82205 0.20486 0.0
C352 C 0.10249 0.81251 0.21872 0.0
C353 C 0.11091 0.83597 0.19364 0.0
C354 C 0.12831 0.84053 0.19641 0.0
C355 C 0.11992 0.8174 0.22179 0.0
C356 C 0.13272 0.83139 0.21091 0.0
C357 C 0.14222 0.85466 0.1844 0.0
C358 C 0.20662 0.92197 0.21349 0.0
C359 C 0.21067 0.91507 0.23125 0.0
C360 C 0.19384 0.91072 0.19849 0.0
C361 C 0.18512 0.89239 0.20087 0.0
C362 C 0.20221 0.89673 0.23327 0.0
C363 C 0.18958 0.88556 0.2183 0.0
C364 C 0.17044 0.88012 0.18655 0.0
C365 C 0.21544 0.90237 0.14235 0.0
C366 C 0.21363 0.91097 0.12468 0.0
C367 C 0.20167 0.89325 0.15586 0.0
C368 C 0.18588 0.89269 0.15209 0.0
C369 C 0.19798 0.91085 0.12137 0.0
C370 C 0.18419 0.90168 0.13486 0.0
C371 C 0.17048 0.88081 0.16411 0.0
H372 H 0.10618 0.79652 0.14052 0.0
H373 H 0.12722 0.81929 0.16503 0.0
H374 H 0.10804 0.83628 0.09973 0.0
H375 H 0.12831 0.85932 0.12518 0.0
H376 H 0.08464 0.81845 0.20232 0.0
H377 H 0.1073 0.84305 0.18271 0.0
H378 H 0.12363 0.81029 0.23256 0.0
H379 H 0.14608 0.83477 0.21337 0.0
H380 H 0.21283 0.93606 0.21165 0.0
H381 H 0.19039 0.91639 0.18549 0.0
H382 H 0.20523 0.89102 0.24661 0.0
H383 H 0.18312 0.87148 0.22051 0.0
H384 H 0.2272 0.90194 0.14514 0.0
H385 H 0.2031 0.88594 0.16863 0.0
H386 H 0.19625 0.91753 0.10807 0.0
H387 H 0.17205 0.90125 0.13155 0.0
N388 N 0.15636 0.86843 0.15272 0.0
N389 N 0.1563 0.86705 0.19571 0.0
C390 C 0.30908 0.0972 0.81003 0.0
C391 C 0.29515 0.08532 0.79654 0.0
C392 C 0.30737 0.10881 0.82396 0.0
C393 C 0.2918 0.109 0.82457 0.0
C394 C 0.27933 0.08515 0.79788 0.0
C395 C 0.27777 0.09705 0.81151 0.0
C396 C 0.29083 0.12279 0.8373 0.0
C397 C 0.28715 0.0844 0.88759 0.0
C398 C 0.30157 0.09156 0.90181 0.0
C399 C 0.28506 0.09508 0.873 0.0
C400 C 0.29732 0.11308 0.87248 0.0
C401 C 0.31406 0.1095 0.90065 0.0
C402 C 0.31186 0.12014 0.88631 0.0
C403 C 0.29436 0.12515 0.85945 0.0
C404 C 0.28619 0.18713 0.88414 0.0
C405 C 0.3009 0.19619 0.8978 0.0
C406 C 0.28384 0.17285 0.87125 0.0
C407 C 0.29611 0.16735 0.87189 0.0
C408 C 0.31315 0.1906 0.89819 0.0
C409 C 0.31068 0.17626 0.88557 0.0
C410 C 0.29373 0.15192 0.85916 0.0
C411 C 0.30609 0.19424 0.81295 0.0
C412 C 0.29313 0.1905 0.79738 0.0
C413 C 0.30511 0.18105 0.82581 0.0
C414 C 0.29098 0.16384 0.82376 0.0
C415 C 0.27903 0.17321 0.79518 0.0
C416 C 0.27804 0.15997 0.80816 0.0
C417 C 0.29042 0.14977 0.8369 0.0
H418 H 0.32159 0.09813 0.80928 0.0
H419 H 0.31848 0.11817 0.83363 0.0
H420 H 0.26816 0.07599 0.78819 0.0
H421 H 0.26565 0.09704 0.81173 0.0
H422 H 0.27723 0.07067 0.88813 0.0
H423 H 0.27357 0.08945 0.86272 0.0
H424 H 0.32557 0.11539 0.91088 0.0
H425 H 0.32148 0.13401 0.88615 0.0
H426 H 0.27638 0.1909 0.88359 0.0
H427 H 0.27234 0.16595 0.86107 0.0
H428 H 0.32485 0.19747 0.90803 0.0
H429 H 0.32033 0.17225 0.88627 0.0
H430 H 0.31704 0.20742 0.81526 0.0
H431 H 0.31559 0.18429 0.83719 0.0
H432 H 0.26894 0.16985 0.78317 0.0
H433 H 0.26717 0.14671 0.80605 0.0
N434 N 0.28897 0.13519 0.82681 0.0
N435 N 0.29565 0.13958 0.86947 0.0
C436 C 0.89769 0.17588 0.89621 0.0
C437 C 0.89299 0.18608 0.90902 0.0
C438 C 0.88547 0.16237 0.88267 0.0
C439 C 0.86827 0.15871 0.88171 0.0
C440 C 0.8756 0.18198 0.90839 0.0
C441 C 0.86337 0.16834 0.89505 0.0
C442 C 0.85534 0.14505 0.8667 0.0
C443 C 0.89116 0.18956 0.82674 0.0
C444 C 0.90012 0.1856 0.81146 0.0
C445 C 0.87774 0.17618 0.83772 0.0
C446 C 0.8732 0.15854 0.83404 0.0
C447 C 0.89543 0.16792 0.80751 0.0
C448 C 0.88205 0.1545 0.8187 0.0
C449 C 0.8582 0.14431 0.84472 0.0
C450 C 0.78818 0.09269 0.80758 0.0
C451 C 0.7931 0.08474 0.79165 0.0
C452 C 0.8 0.10338 0.82369 0.0
C453 C 0.81686 0.106 0.82452 0.0
C454 C 0.80991 0.08726 0.79255 0.0
C455 C 0.82166 0.09778 0.80881 0.0
C456 C 0.83016 0.1188 0.84003 0.0
C457 C 0.7889 0.07911 0.88302 0.0
C458 C 0.78013 0.08649 0.89348 0.0
C459 C 0.80403 0.08986 0.87213 0.0
C460 C 0.81066 0.10811 0.87194 0.0
C461 C 0.78669 0.10471 0.89292 0.0
C462 C 0.80192 0.11544 0.88245 0.0
C463 C 0.82714 0.11995 0.86188 0.0
H464 H 0.91084 0.17837 0.89657 0.0
H465 H 0.88946 0.15484 0.87284 0.0
H466 H 0.87148 0.18966 0.91769 0.0
H467 H 0.85017 0.16573 0.8946 0.0
H468 H 0.89415 0.203 0.82972 0.0
H469 H 0.87061 0.17965 0.84868 0.0
H470 H 0.9021 0.16449 0.79578 0.0
H471 H 0.87855 0.14096 0.81531 0.0
H472 H 0.77544 0.09129 0.80705 0.0
H473 H 0.79611 0.11017 0.8349 0.0
H474 H 0.81404 0.08125 0.78053 0.0
H475 H 0.83464 0.09976 0.8089 0.0
H476 H 0.78407 0.06508 0.88332 0.0
H477 H 0.81073 0.08401 0.86427 0.0
H478 H 0.78027 0.11072 0.9011 0.0
H479 H 0.80692 0.12951 0.88257 0.0
N480 N 0.83985 0.13299 0.87433 0.0
N481 N 0.8456 0.13107 0.83234 0.0
C482 C 0.80103 0.72475 0.9045 0.0
C483 C 0.79432 0.71081 0.91867 0.0
C484 C 0.81476 0.72768 0.89154 0.0
C485 C 0.82178 0.71651 0.89225 0.0
C486 C 0.80134 0.69967 0.91933 0.0
C487 C 0.81491 0.70249 0.90628 0.0
C488 C 0.83682 0.71968 0.87946 0.0
C489 C 0.79671 0.7067 0.8263 0.0
C490 C 0.79961 0.72139 0.81454 0.0
C491 C 0.80895 0.70801 0.84143 0.0
C492 C 0.82445 0.72395 0.84496 0.0
C493 C 0.81483 0.73761 0.81907 0.0
C494 C 0.82726 0.73877 0.83386 0.0
C495 C 0.83855 0.72434 0.8579 0.0
C496 C 0.88877 0.70557 0.82601 0.0
C497 C 0.89783 0.71892 0.81149 0.0
C498 C 0.8786 0.70741 0.84128 0.0
C499 C 0.8775 0.72277 0.84264 0.0
C500 C 0.89703 0.73447 0.8131 0.0
C501 C 0.8868 0.7363 0.82845 0.0
C502 C 0.86488 0.72364 0.85676 0.0
C503 C 0.90414 0.72051 0.8994 0.0
C504 C 0.89717 0.70533 0.91165 0.0
C505 C 0.89324 0.72519 0.88868 0.0
C506 C 0.87518 0.71471 0.88992 0.0
C507 C 0.87912 0.69516 0.91323 0.0
C508 C 0.86828 0.69983 0.90257 0.0
C509 C 0.8632 0.719 0.87838 0.0
H510 H 0.79599 0.73367 0.9039 0.0
H511 H 0.82015 0.73894 0.88143 0.0
H512 H 0.79629 0.68871 0.92993 0.0
H513 H 0.82007 0.69368 0.90718 0.0
H514 H 0.78543 0.69389 0.82312 0.0
H515 H 0.80671 0.69632 0.84955 0.0
H516 H 0.81741 0.74934 0.81083 0.0
H517 H 0.83921 0.75117 0.83632 0.0
H518 H 0.8893 0.69352 0.82533 0.0
H519 H 0.8711 0.69651 0.85152 0.0
H520 H 0.90377 0.74491 0.80203 0.0
H521 H 0.88586 0.74812 0.82897 0.0
H522 H 0.91799 0.72864 0.89786 0.0
H523 H 0.89893 0.73697 0.87944 0.0
H524 H 0.87332 0.68361 0.92289 0.0
H525 H 0.85441 0.69159 0.90396 0.0
N526 N 0.84923 0.71722 0.88881 0.0
N527 N 0.85254 0.72622 0.84745 0.0
C528 C 0.76209 0.60829 0.45213 0.0
C529 C 0.76777 0.62164 0.43716 0.0
C530 C 0.77402 0.60579 0.46401 0.0
C531 C 0.79189 0.6168 0.46144 0.0
C532 C 0.78563 0.63248 0.43445 0.0
C533 C 0.79753 0.63005 0.4464 0.0
C534 C 0.80491 0.6145 0.47378 0.0
C535 C 0.77958 0.62962 0.52514 0.0
C536 C 0.77198 0.61742 0.54131 0.0
C537 C 0.78923 0.62718 0.50962 0.0
C538 C 0.79127 0.61235 0.50977 0.0
C539 C 0.77353 0.60228 0.54106 0.0
C540 C 0.78323 0.59985 0.5255 0.0
C541 C 0.80391 0.61132 0.49584 0.0
C542 C 0.87291 0.63151 0.52651 0.0
C543 C 0.8703 0.61757 0.53958 0.0
C544 C 0.86052 0.62918 0.51098 0.0
C545 C 0.84517 0.61296 0.50835 0.0
C546 C 0.85531 0.60101 0.53586 0.0
C547 C 0.84274 0.59884 0.52067 0.0
C548 C 0.83072 0.61161 0.4952 0.0
C549 C 0.86761 0.60902 0.44968 0.0
C550 C 0.87415 0.62225 0.43456 0.0
C551 C 0.8539 0.60656 0.46237 0.0
C552 C 0.8467 0.6175 0.46043 0.0
C553 C 0.86686 0.63309 0.43256 0.0
C554 C 0.85326 0.63071 0.44533 0.0
C555 C 0.83185 0.61488 0.47323 0.0
H556 H 0.7484 0.59955 0.45433 0.0
H557 H 0.76926 0.59511 0.475 0.0
H558 H 0.79044 0.643 0.42322 0.0
H559 H 0.81121 0.63872 0.44404 0.0
H560 H 0.77844 0.64132 0.5248 0.0
H561 H 0.79573 0.6373 0.49809 0.0
H562 H 0.76791 0.59274 0.55341 0.0
H563 H 0.7849 0.58848 0.52612 0.0
H564 H 0.88406 0.64453 0.52899 0.0
H565 H 0.86247 0.64034 0.50187 0.0
H566 H 0.85299 0.5898 0.54511 0.0
H567 H 0.83092 0.58623 0.5189 0.0
H568 H 0.8728 0.60029 0.45131 0.0
H569 H 0.84871 0.59585 0.47333 0.0
H570 H 0.87175 0.64352 0.42121 0.0
H571 H 0.84791 0.63929 0.44346 0.0
N572 N 0.81888 0.61618 0.4634 0.0
N573 N 0.8168 0.6099 0.50559 0.0
C574 C 0.35476 0.23155 0.47818 0.0
C575 C 0.36582 0.24131 0.4619 0.0
C576 C 0.35965 0.22281 0.49253 0.0
C577 C 0.37568 0.22367 0.49082 0.0
C578 C 0.38207 0.24258 0.46057 0.0
C579 C 0.38687 0.23363 0.47479 0.0
C580 C 0.37965 0.21224 0.50371 0.0
C581 C 0.38109 0.25332 0.54953 0.0
C582 C 0.36988 0.24648 0.56666 0.0
C583 C 0.38407 0.24219 0.53617 0.0
C584 C 0.37563 0.22398 0.53948 0.0
C585 C 0.36141 0.22827 0.56983 0.0
C586 C 0.36427 0.21719 0.55643 0.0
C587 C 0.37886 0.21181 0.52616 0.0
C588 C 0.3941 0.15296 0.54449 0.0
C589 C 0.38295 0.14563 0.56159 0.0
C590 C 0.39412 0.1664 0.53291 0.0
C591 C 0.38277 0.17256 0.53796 0.0
C592 C 0.37203 0.15222 0.56704 0.0
C593 C 0.37197 0.16556 0.55538 0.0
C594 C 0.38211 0.18639 0.52546 0.0
C595 C 0.36195 0.14122 0.47736 0.0
C596 C 0.373 0.14385 0.46047 0.0
C597 C 0.36556 0.15496 0.49184 0.0
C598 C 0.38023 0.1716 0.48959 0.0
C599 C 0.38797 0.16031 0.45851 0.0
C600 C 0.39142 0.17421 0.47283 0.0
C601 C 0.38243 0.18662 0.50299 0.0
H602 H 0.34221 0.23048 0.47961 0.0
H603 H 0.35063 0.21483 0.50444 0.0
H604 H 0.39077 0.24995 0.44808 0.0
H605 H 0.39917 0.23418 0.47302 0.0
H606 H 0.38798 0.26733 0.5469 0.0
H607 H 0.39326 0.2479 0.52361 0.0
H608 H 0.35255 0.22258 0.58274 0.0
H609 H 0.35755 0.20322 0.55936 0.0
H610 H 0.40287 0.14835 0.54014 0.0
H611 H 0.40304 0.17197 0.52004 0.0
H612 H 0.36317 0.14674 0.57999 0.0
H613 H 0.36316 0.17012 0.55971 0.0
H614 H 0.35034 0.12859 0.47911 0.0
H615 H 0.35651 0.15277 0.50431 0.0
H616 H 0.39659 0.16257 0.44551 0.0
H617 H 0.40265 0.18704 0.47064 0.0
N618 N 0.38139 0.19964 0.49304 0.0
N619 N 0.38024 0.19893 0.53611 0.0
C620 C 0.7783 0.14108 0.4685 0.0
C621 C 0.77385 0.14461 0.44844 0.0
C622 C 0.79041 0.15475 0.48186 0.0
C623 C 0.7978 0.17236 0.47582 0.0
C624 C 0.78172 0.16209 0.44191 0.0
C625 C 0.79356 0.17586 0.45555 0.0
C626 C 0.81085 0.18695 0.48989 0.0
C627 C 0.76264 0.15858 0.52824 0.0
C628 C 0.76507 0.15151 0.547 0.0
C629 C 0.7769 0.1707 0.51693 0.0
C630 C 0.79376 0.17556 0.52397 0.0
C631 C 0.78196 0.15692 0.55435 0.0
C632 C 0.79613 0.16882 0.54299 0.0
C633 C 0.80922 0.18788 0.51221 0.0
C634 C 0.87437 0.25322 0.5433 0.0
C635 C 0.8772 0.24606 0.56175 0.0
C636 C 0.86198 0.24225 0.52777 0.0
C637 C 0.85241 0.22397 0.53036 0.0
C638 C 0.86788 0.22774 0.56395 0.0
C639 C 0.8556 0.21686 0.54851 0.0
C640 C 0.83816 0.21202 0.51539 0.0
C641 C 0.88643 0.23325 0.47742 0.0
C642 C 0.88648 0.2429 0.45983 0.0
C643 C 0.87128 0.22324 0.48847 0.0
C644 C 0.85592 0.22283 0.48223 0.0
C645 C 0.87108 0.24247 0.45364 0.0
C646 C 0.85591 0.23241 0.46466 0.0
C647 C 0.83964 0.21155 0.49309 0.0
H648 H 0.77269 0.12765 0.47364 0.0
H649 H 0.7941 0.15149 0.49683 0.0
H650 H 0.77859 0.16507 0.42639 0.0
H651 H 0.79937 0.18927 0.45029 0.0
H652 H 0.74974 0.15471 0.52233 0.0
H653 H 0.77475 0.17613 0.50265 0.0
H654 H 0.78425 0.1515 0.56856 0.0
H655 H 0.80899 0.17241 0.54883 0.0
H656 H 0.8813 0.26731 0.54126 0.0
H657 H 0.85952 0.2481 0.51411 0.0
H658 H 0.86999 0.22178 0.57776 0.0
H659 H 0.84843 0.2028 0.55085 0.0
H660 H 0.8981 0.23336 0.48259 0.0
H661 H 0.87149 0.21559 0.50165 0.0
H662 H 0.87066 0.24955 0.43993 0.0
H663 H 0.84413 0.23205 0.45942 0.0
N664 N 0.82593 0.19905 0.48119 0.0
N665 N 0.823 0.20025 0.52395 0.0
C666 C 0.96163 0.52248 0.13518 0.0
C667 C 0.9758 0.53247 0.12219 0.0
C668 C 0.96085 0.50884 0.14705 0.0
C669 C 0.97405 0.50468 0.14597 0.0
C670 C 0.98895 0.52811 0.12108 0.0
C671 C 0.98796 0.51422 0.13265 0.0
C672 C 0.97334 0.49038 0.1587 0.0
C673 C 0.99136 0.53505 0.207 0.0
C674 C 0.97959 0.53251 0.22299 0.0
C675 C 0.98813 0.52139 0.19258 0.0
C676 C 0.97308 0.5049 0.19392 0.0
C677 C 0.96425 0.51621 0.22393 0.0
C678 C 0.96113 0.50241 0.20966 0.0
C679 C 0.97118 0.48979 0.18094 0.0
C680 C 0.99025 0.43893 0.21011 0.0
C681 C 0.97777 0.42993 0.22541 0.0
C682 C 0.98761 0.44876 0.19492 0.0
C683 C 0.97247 0.44984 0.19485 0.0
C684 C 0.96234 0.43046 0.22488 0.0
C685 C 0.95982 0.44057 0.20986 0.0
C686 C 0.97115 0.46269 0.18138 0.0
C687 C 0.96316 0.41932 0.13465 0.0
C688 C 0.9778 0.42404 0.12245 0.0
C689 C 0.96196 0.43206 0.14705 0.0
C690 C 0.97522 0.44974 0.14703 0.0
C691 C 0.9912 0.44165 0.12279 0.0
C692 C 0.98981 0.45445 0.13476 0.0
C693 C 0.97368 0.46344 0.15922 0.0
H694 H 0.95103 0.52507 0.1361 0.0
H695 H 0.94984 0.50142 0.15697 0.0
H696 H 0.00022 0.53562 0.11161 0.0
H697 H 0.9983 0.51122 0.13163 0.0
H698 H 0.00324 0.54754 0.20589 0.0
H699 H 0.99778 0.5235 0.18098 0.0
H700 H 0.95503 0.51396 0.23619 0.0
H701 H 0.94959 0.48969 0.21116 0.0
H702 H 0.0022 0.4386 0.21015 0.0
H703 H 0.99775 0.45619 0.18387 0.0
H704 H 0.95258 0.42365 0.23658 0.0
H705 H 0.94819 0.44149 0.21025 0.0
H706 H 0.95265 0.4058 0.13449 0.0
H707 H 0.95052 0.42818 0.15626 0.0
H708 H 0.00253 0.44557 0.11332 0.0
H709 H 0.00015 0.46803 0.13453 0.0
N710 N 0.97465 0.47725 0.14864 0.0
N711 N 0.97005 0.4759 0.1914 0.0
C712 C 0.46455 0.41016 0.14566 0.0
C713 C 0.46015 0.41708 0.1282 0.0
C714 C 0.47712 0.42145 0.16084 0.0
C715 C 0.48522 0.43982 0.15898 0.0
C716 C 0.46806 0.4354 0.12664 0.0
C717 C 0.48043 0.44661 0.14181 0.0
C718 C 0.49949 0.4523 0.17366 0.0
C719 C 0.45417 0.42603 0.21729 0.0
C720 C 0.45668 0.41741 0.23444 0.0
C721 C 0.46781 0.43642 0.20412 0.0
C722 C 0.48418 0.43825 0.20772 0.0
C723 C 0.47295 0.41883 0.23754 0.0
C724 C 0.4866 0.42926 0.2244 0.0
C725 C 0.49926 0.45128 0.19609 0.0
C726 C 0.54941 0.52346 0.2255 0.0
C727 C 0.55908 0.52138 0.24183 0.0
C728 C 0.53914 0.50953 0.21124 0.0
C729 C 0.53824 0.49321 0.21313 0.0
C730 C 0.55838 0.50512 0.24359 0.0
C731 C 0.5478 0.49103 0.22951 0.0
C732 C 0.52629 0.47822 0.19893 0.0
C733 C 0.57102 0.51447 0.15919 0.0
C734 C 0.56653 0.52085 0.14129 0.0
C735 C 0.5582 0.50086 0.17075 0.0
C736 C 0.54065 0.49365 0.16486 0.0
C737 C 0.54901 0.51341 0.13522 0.0
C738 C 0.53623 0.49997 0.14687 0.0
C739 C 0.52673 0.47902 0.17651 0.0
H740 H 0.45873 0.39606 0.14712 0.0
H741 H 0.48085 0.41582 0.17362 0.0
H742 H 0.46475 0.4411 0.11352 0.0
H743 H 0.48641 0.4607 0.13999 0.0
H744 H 0.44191 0.42549 0.21468 0.0
H745 H 0.46577 0.44366 0.19176 0.0
H746 H 0.47525 0.41219 0.25044 0.0
H747 H 0.49918 0.43065 0.22756 0.0
H748 H 0.54983 0.53591 0.22375 0.0
H749 H 0.53162 0.51141 0.19896 0.0
H750 H 0.56569 0.50321 0.25612 0.0
H751 H 0.5471 0.47845 0.23136 0.0
H752 H 0.58446 0.51984 0.16405 0.0
H753 H 0.56206 0.49583 0.18406 0.0
H754 H 0.54515 0.51821 0.12166 0.0
H755 H 0.52282 0.49462 0.1419 0.0
N756 N 0.51329 0.46608 0.16486 0.0
N757 N 0.51268 0.46428 0.20783 0.0
C758 C 0.45637 0.02911 0.23256 0.0
C759 C 0.44935 0.01453 0.24579 0.0
C760 C 0.46998 0.03229 0.21923 0.0
C761 C 0.47663 0.02079 0.21869 0.0
C762 C 0.4559 0.00296 0.24498 0.0
C763 C 0.46943 0.00611 0.23165 0.0
C764 C 0.49188 0.02454 0.20607 0.0
C765 C 0.45099 0.01577 0.15585 0.0
C766 C 0.45582 0.02977 0.14199 0.0
C767 C 0.46308 0.01585 0.17035 0.0
C768 C 0.48016 0.03006 0.17146 0.0
C769 C 0.47278 0.04416 0.14356 0.0
C770 C 0.48482 0.04426 0.15806 0.0
C771 C 0.49376 0.02945 0.18456 0.0
C772 C 0.55578 0.02445 0.15899 0.0
C773 C 0.56219 0.0376 0.14382 0.0
C774 C 0.54266 0.02252 0.1724 0.0
C775 C 0.5362 0.03416 0.17144 0.0
C776 C 0.55555 0.04901 0.1425 0.0
C777 C 0.54273 0.04737 0.15628 0.0
C778 C 0.52154 0.03169 0.1846 0.0
C779 C 0.56332 0.03888 0.23158 0.0
C780 C 0.55889 0.02412 0.24397 0.0
C781 C 0.55069 0.03996 0.21934 0.0
C782 C 0.5334 0.02622 0.21908 0.0
C783 C 0.54151 0.01054 0.24394 0.0
C784 C 0.5289 0.01163 0.23172 0.0
C785 C 0.5198 0.02709 0.20625 0.0
H786 H 0.45174 0.03838 0.23305 0.0
H787 H 0.47561 0.04399 0.20984 0.0
H788 H 0.45061 0.99148 0.25475 0.0
H789 H 0.47437 0.99709 0.23157 0.0
H790 H 0.4381 0.00438 0.15481 0.0
H791 H 0.45926 0.00448 0.18002 0.0
H792 H 0.47685 0.05524 0.13329 0.0
H793 H 0.49793 0.05531 0.15852 0.0
H794 H 0.56049 0.01526 0.15993 0.0
H795 H 0.53731 0.01162 0.18308 0.0
H796 H 0.56026 0.05916 0.13078 0.0
H797 H 0.53777 0.05632 0.15493 0.0
H798 H 0.57658 0.04955 0.23119 0.0
H799 H 0.55443 0.05156 0.21012 0.0
H800 H 0.53757 -0.00086 0.25362 0.0
H801 H 0.51562 0.00096 0.232 0.0
N802 N 0.50498 0.02355 0.216 0.0
N803 N 0.50851 0.03283 0.17477 0.0
C804 C 0.55319 0.98245 0.79106 0.0
C805 C 0.54835 0.96935 0.77494 0.0
C806 C 0.5408 0.98249 0.80427 0.0
C807 C 0.52336 0.96927 0.80185 0.0
C808 C 0.53085 0.95626 0.77238 0.0
C809 C 0.51847 0.95627 0.78567 0.0
C810 C 0.51008 0.96938 0.81547 0.0
C811 C 0.54491 0.96082 0.86152 0.0
C812 C 0.55311 0.97436 0.87722 0.0
C813 C 0.53183 0.96 0.84813 0.0
C814 C 0.52677 0.97271 0.85027 0.0
C815 C 0.54818 0.9872 0.87898 0.0
C816 C 0.53509 0.98632 0.86574 0.0
C817 C 0.5119 0.9713 0.83789 0.0
C818 C 0.44233 0.95894 0.86436 0.0
C819 C 0.44783 0.97105 0.88175 0.0
C820 C 0.45435 0.95886 0.85046 0.0
C821 C 0.47205 0.97106 0.85354 0.0
C822 C 0.4656 0.98293 0.88505 0.0
C823 C 0.47756 0.98292 0.87111 0.0
C824 C 0.4851 0.97094 0.83948 0.0
C825 C 0.45293 0.98519 0.79837 0.0
C826 C 0.44386 0.97328 0.78129 0.0
C827 C 0.4658 0.98404 0.80992 0.0
C828 C 0.4697 0.97077 0.80494 0.0
C829 C 0.448 0.96019 0.77611 0.0
C830 C 0.46085 0.95901 0.78775 0.0
C831 C 0.48351 0.96965 0.81699 0.0
H832 H 0.5665 0.99295 0.7931 0.0
H833 H 0.54482 0.99302 0.81615 0.0
H834 H 0.52675 0.94596 0.76016 0.0
H835 H 0.50506 0.94605 0.78341 0.0
H836 H 0.54846 0.95076 0.85978 0.0
H837 H 0.52536 0.94919 0.83656 0.0
H838 H 0.55399 0.99761 0.89115 0.0
H839 H 0.53128 0.99616 0.86779 0.0
H840 H 0.42872 0.94967 0.86132 0.0
H841 H 0.4498 0.94919 0.83743 0.0
H842 H 0.4703 0.9922 0.89852 0.0
H843 H 0.49118 0.99226 0.87402 0.0
H844 H 0.45005 0.99538 0.80291 0.0
H845 H 0.47279 0.99365 0.82267 0.0
H846 H 0.44153 0.95101 0.76281 0.0
H847 H 0.46381 0.94884 0.78337 0.0
N848 N 0.49595 0.96864 0.80586 0.0
N849 N 0.49931 0.97194 0.84895 0.0
C850 C 0.00705 0.55779 0.80284 0.0
C851 C 0.01777 0.56655 0.78585 0.0
C852 C 0.01176 0.54903 0.81739 0.0
C853 C 0.02722 0.5488 0.8151 0.0
C854 C 0.03345 0.56666 0.78386 0.0
C855 C 0.03802 0.55763 0.79823 0.0
C856 C 0.0311 0.53766 0.82869 0.0
C857 C 0.03853 0.58307 0.87144 0.0
C858 C 0.02888 0.57825 0.89006 0.0
C859 C 0.03929 0.57031 0.8585 0.0
C860 C 0.03011 0.55244 0.86372 0.0
C861 C 0.01959 0.56039 0.89511 0.0
C862 C 0.02021 0.54766 0.88211 0.0
C863 C 0.03152 0.53872 0.85118 0.0
C864 C 0.04682 0.48078 0.87397 0.0
C865 C 0.03519 0.47342 0.89065 0.0
C866 C 0.047 0.49406 0.86186 0.0
C867 C 0.03533 0.5 0.86594 0.0
C868 C 0.02425 0.48015 0.89543 0.0
C869 C 0.02434 0.49329 0.88323 0.0
C870 C 0.03418 0.51297 0.85229 0.0
C871 C 0.01903 0.4653 0.80969 0.0
C872 C 0.0283 0.46849 0.79093 0.0
C873 C 0.02076 0.47931 0.82246 0.0
C874 C 0.03231 0.49678 0.81709 0.0
C875 C 0.03951 0.48587 0.78518 0.0
C876 C 0.04154 0.49991 0.79822 0.0
C877 C 0.0335 0.51182 0.82974 0.0
H878 H 0.99495 0.55764 0.80477 0.0
H879 H 0.00306 0.54196 0.83002 0.0
H880 H 0.04187 0.57327 0.77083 0.0
H881 H 0.04988 0.55736 0.79605 0.0
H882 H 0.04601 0.59677 0.86733 0.0
H883 H 0.04749 0.57452 0.84482 0.0
H884 H 0.01192 0.55627 0.90926 0.0
H885 H 0.01302 0.53402 0.88656 0.0
H886 H 0.05542 0.47592 0.86983 0.0
H887 H 0.05597 0.49939 0.84901 0.0
H888 H 0.01544 0.47511 0.90848 0.0
H889 H 0.01541 0.49785 0.88693 0.0
H890 H 0.01008 0.45194 0.81414 0.0
H891 H 0.01277 0.47644 0.83626 0.0
H892 H 0.04664 0.48854 0.77062 0.0
H893 H 0.05023 0.51325 0.79347 0.0
N894 N 0.03216 0.52433 0.81891 0.0
N895 N 0.03305 0.5263 0.86204 0.0
C896 C 0.54832 0.58605 0.79676 0.0
C897 C 0.55413 0.5777 0.78251 0.0
C898 C 0.53385 0.57603 0.8091 0.0
C899 C 0.52524 0.55754 0.80761 0.0
C900 C 0.54552 0.55925 0.78121 0.0
C901 C 0.53124 0.54931 0.79356 0.0
C902 C 0.50952 0.54633 0.81961 0.0
C903 C 0.55151 0.57528 0.87053 0.0
C904 C 0.5476 0.584 0.88667 0.0
C905 C 0.53884 0.56407 0.85551 0.0
C906 C 0.52209 0.56167 0.85589 0.0
C907 C 0.53084 0.58166 0.88687 0.0
C908 C 0.51825 0.57061 0.87169 0.0
C909 C 0.50796 0.54832 0.84174 0.0
C910 C 0.45209 0.47764 0.86361 0.0
C911 C 0.44368 0.48158 0.8797 0.0
C912 C 0.46357 0.49073 0.85044 0.0
C913 C 0.46667 0.50801 0.85276 0.0
C914 C 0.44668 0.49885 0.88194 0.0
C915 C 0.45819 0.51199 0.86867 0.0
C916 C 0.48018 0.52216 0.84024 0.0
C917 C 0.43845 0.4855 0.79328 0.0
C918 C 0.44373 0.47608 0.78004 0.0
C919 C 0.45067 0.50012 0.80554 0.0
C920 C 0.46835 0.50557 0.80462 0.0
C921 C 0.46145 0.48189 0.77871 0.0
C922 C 0.47364 0.49657 0.79073 0.0
C923 C 0.48154 0.5205 0.81805 0.0
H924 H 0.55469 0.60028 0.79794 0.0
H925 H 0.52924 0.58269 0.81949 0.0
H926 H 0.54988 0.55245 0.77064 0.0
H927 H 0.52487 0.53508 0.79215 0.0
H928 H 0.5643 0.57685 0.86972 0.0
H929 H 0.54205 0.55685 0.84405 0.0
H930 H 0.5272 0.58783 0.89925 0.0
H931 H 0.50533 0.56871 0.87259 0.0
H932 H 0.44993 0.46443 0.86131 0.0
H933 H 0.4704 0.4874 0.83884 0.0
H934 H 0.44053 0.50233 0.89433 0.0
H935 H 0.46067 0.52532 0.871 0.0
H936 H 0.42486 0.48126 0.79461 0.0
H937 H 0.44631 0.50706 0.81585 0.0
H938 H 0.46589 0.47497 0.76846 0.0
H939 H 0.4872 0.50059 0.78963 0.0
N940 N 0.4962 0.53255 0.80872 0.0
N941 N 0.49331 0.53614 0.85112 0.0
C942 C 0.64381 0.75978 0.48531 0.0
C943 C 0.63218 0.75071 0.46813 0.0
C944 C 0.64198 0.772 0.49797 0.0
C945 C 0.62832 0.77522 0.49394 0.0
C946 C 0.61854 0.75401 0.46414 0.0
C947 C 0.6167 0.7662 0.47684 0.0
C948 C 0.62689 0.78895 0.50631 0.0
C949 C 0.62143 0.7478 0.55211 0.0
C950 C 0.63335 0.75456 0.56944 0.0
C951 C 0.61896 0.75916 0.5391 0.0
C952 C 0.62881 0.77747 0.54286 0.0
C953 C 0.64243 0.77276 0.57383 0.0
C954 C 0.64021 0.78408 0.56067 0.0
C955 C 0.62743 0.79012 0.52886 0.0
C956 C 0.62287 0.85609 0.54633 0.0
C957 C 0.63515 0.86313 0.56327 0.0
C958 C 0.61996 0.84091 0.53504 0.0
C959 C 0.62965 0.83283 0.54013 0.0
C960 C 0.6441 0.85445 0.56909 0.0
C961 C 0.64139 0.83947 0.55763 0.0
C962 C 0.62789 0.8175 0.52757 0.0
C963 C 0.6459 0.86174 0.4824 0.0
C964 C 0.63388 0.85876 0.46583 0.0
C965 C 0.64387 0.84797 0.49502 0.0
C966 C 0.62962 0.83096 0.4916 0.0
C967 C 0.61984 0.8416 0.4621 0.0
C968 C 0.6178 0.82781 0.4748 0.0
C969 C 0.62741 0.81639 0.50505 0.0
H970 H 0.65441 0.75752 0.4889 0.0
H971 H 0.65142 0.77914 0.5107 0.0
H972 H 0.60955 0.74755 0.4508 0.0
H973 H 0.60626 0.7687 0.47319 0.0
H974 H 0.61416 0.73377 0.54853 0.0
H975 H 0.60956 0.75363 0.52601 0.0
H976 H 0.65185 0.77834 0.58693 0.0
H977 H 0.64785 0.79812 0.5641 0.0
H978 H 0.61563 0.86242 0.54172 0.0
H979 H 0.61034 0.83569 0.52216 0.0
H980 H 0.65374 0.85966 0.58196 0.0
H981 H 0.64891 0.8334 0.56205 0.0
H982 H 0.65678 0.87478 0.48585 0.0
H983 H 0.65342 0.85062 0.50754 0.0
H984 H 0.61051 0.8388 0.44925 0.0
H985 H 0.60688 0.81472 0.47167 0.0
N986 N 0.62674 0.80207 0.49533 0.0
N987 N 0.62792 0.80434 0.53845 0.0
C988 C 0.12753 0.75019 0.48591 0.0
C989 C 0.12248 0.75667 0.4686 0.0
C990 C 0.13925 0.76179 0.50161 0.0
C991 C 0.14587 0.78003 0.50041 0.0
C992 C 0.12889 0.77486 0.4677 0.0
C993 C 0.14046 0.78638 0.48337 0.0
C994 C 0.15937 0.79286 0.51565 0.0
C995 C 0.11288 0.76242 0.55538 0.0
C996 C 0.11515 0.75375 0.57263 0.0
C997 C 0.12702 0.77429 0.54385 0.0
C998 C 0.14371 0.77747 0.54899 0.0
C999 C 0.13186 0.75686 0.57768 0.0
C1000 C 0.14601 0.76869 0.56602 0.0
C1001 C 0.1589 0.79116 0.53803 0.0
C1002 C 0.21031 0.86279 0.57012 0.0
C1003 C 0.22116 0.86042 0.58442 0.0
C1004 C 0.19892 0.84911 0.55625 0.0
C1005 C 0.19806 0.83273 0.55644 0.0
C1006 C 0.22033 0.84401 0.58461 0.0
C1007 C 0.20867 0.83017 0.57089 0.0
C1008 C 0.18567 0.8183 0.54189 0.0
C1009 C 0.22951 0.85367 0.49912 0.0
C1010 C 0.2248 0.86299 0.48509 0.0
C1011 C 0.217 0.84005 0.51099 0.0
C1012 C 0.19957 0.8354 0.50887 0.0
C1013 C 0.20734 0.85856 0.48364 0.0
C1014 C 0.19485 0.84478 0.49518 0.0
C1015 C 0.18595 0.82006 0.51964 0.0
H1016 H 0.12291 0.73624 0.48689 0.0
H1017 H 0.14352 0.75655 0.51429 0.0
H1018 H 0.12505 0.78023 0.45472 0.0
H1019 H 0.14533 0.80037 0.48206 0.0
H1020 H 0.10018 0.76024 0.55096 0.0
H1021 H 0.12492 0.78132 0.53127 0.0
H1022 H 0.13411 0.75062 0.59107 0.0
H1023 H 0.15881 0.77116 0.57051 0.0
H1024 H 0.2108 0.87534 0.56947 0.0
H1025 H 0.19067 0.85128 0.54542 0.0
H1026 H 0.22853 0.84184 0.59552 0.0
H1027 H 0.20808 0.81756 0.57135 0.0
H1028 H 0.24275 0.85652 0.50049 0.0
H1029 H 0.22084 0.83278 0.52128 0.0
H1030 H 0.20324 0.8657 0.47352 0.0
H1031 H 0.18145 0.84141 0.49341 0.0
N1032 N 0.17285 0.80731 0.50743 0.0
N1033 N 0.17216 0.80391 0.5503 0.0
C1034 C 0.23114 0.38243 0.48773 0.0
C1035 C 0.22721 0.37028 0.47062 0.0
C1036 C 0.21826 0.38054 0.50161 0.0
C1037 C 0.20126 0.36648 0.49859 0.0
C1038 C 0.21023 0.356 0.46807 0.0
C1039 C 0.19739 0.35423 0.48177 0.0
C1040 C 0.18705 0.36529 0.51144 0.0
C1041 C 0.21761 0.35151 0.55611 0.0
C1042 C 0.22509 0.36279 0.57414 0.0
C1043 C 0.20577 0.35298 0.54281 0.0
C1044 C 0.2012 0.36587 0.54706 0.0
C1045 C 0.22058 0.37577 0.57831 0.0
C1046 C 0.20867 0.3772 0.56498 0.0
C1047 C 0.18761 0.36648 0.53389 0.0
C1048 C 0.11529 0.3479 0.55513 0.0
C1049 C 0.11883 0.36013 0.57199 0.0
C1050 C 0.12854 0.34941 0.54224 0.0
C1051 C 0.14555 0.36336 0.5457 0.0
C1052 C 0.13588 0.37408 0.5754 0.0
C1053 C 0.1491 0.37562 0.56244 0.0
C1054 C 0.15992 0.36452 0.53312 0.0
C1055 C 0.12529 0.36979 0.48266 0.0
C1056 C 0.11975 0.35701 0.46599 0.0
C1057 C 0.13763 0.37132 0.49794 0.0
C1058 C 0.1444 0.35994 0.49687 0.0
C1059 C 0.12607 0.34525 0.46555 0.0
C1060 C 0.13829 0.34675 0.48074 0.0
C1061 C 0.15916 0.36263 0.51066 0.0
H1062 H 0.24404 0.39366 0.49005 0.0
H1063 H 0.22145 0.39036 0.51423 0.0
H1064 H 0.20682 0.34614 0.45544 0.0
H1065 H 0.18434 0.34329 0.47916 0.0
H1066 H 0.22041 0.34108 0.55267 0.0
H1067 H 0.19974 0.34361 0.52957 0.0
H1068 H 0.22618 0.38478 0.59195 0.0
H1069 H 0.20523 0.38713 0.56872 0.0
H1070 H 0.1023 0.33705 0.55199 0.0
H1071 H 0.12551 0.33943 0.52988 0.0
H1072 H 0.13912 0.38355 0.58847 0.0
H1073 H 0.16218 0.38634 0.56562 0.0
H1074 H 0.12071 0.37909 0.48331 0.0
H1075 H 0.14238 0.38181 0.50999 0.0
H1076 H 0.12182 0.33507 0.45314 0.0
H1077 H 0.1433 0.33781 0.47959 0.0
N1078 N 0.17282 0.36321 0.5008 0.0
N1079 N 0.17411 0.36631 0.54387 0.0
H1080 H 0.9608 0.34488 0.0243 0.0
H1081 H 0.01572 0.3726 0.03815 0.0
H1082 H 0.95656 0.35995 0.05453 0.0
H1083 H 0.01186 0.38879 0.06735 0.0
H1084 H 0.00087 0.41241 0.12483 0.0
H1085 H 0.00308 0.39161 0.10049 0.0
H1086 H 0.95971 0.3867 0.06303 0.0
H1087 H 0.95694 0.40639 0.08834 0.0
C1088 C 0.97196 0.35417 0.03396 0.0
C1089 C 0.98858 0.35761 0.0289 0.0
C1090 C 0.9696 0.36302 0.05116 0.0
C1091 C 0.98388 0.376 0.0633 0.0
C1092 C 0.00045 0.37882 0.0587 0.0
C1093 C 0.00274 0.36956 0.04186 0.0
C1094 C 0.99172 0.40659 0.1115 0.0
C1095 C 0.97871 0.41086 0.10839 0.0
C1096 C 0.99303 0.39478 0.09741 0.0
C1097 C 0.98162 0.38736 0.07956 0.0
C1098 C 0.96851 0.39166 0.07674 0.0
C1099 C 0.96696 0.4031 0.09113 0.0
H1100 H 0.63973 0.59438 0.05068 0.0
H1101 H 0.62798 0.62458 0.09559 0.0
H1102 H 0.62165 0.56771 0.07037 0.0
H1103 H 0.61002 0.5981 0.11503 0.0
H1104 H 0.59364 0.55162 0.15725 0.0
H1105 H 0.61407 0.577 0.13733 0.0
H1106 H 0.58978 0.54876 0.07818 0.0
H1107 H 0.56949 0.52328 0.09809 0.0
C1108 C 0.63328 0.59531 0.06469 0.0
C1109 C 0.63521 0.61154 0.07154 0.0
C1110 C 0.62294 0.58008 0.07591 0.0
C1111 C 0.61456 0.58089 0.0943 0.0
C1112 C 0.61653 0.59713 0.1011 0.0
C1113 C 0.62669 0.61226 0.08981 0.0
C1114 C 0.59287 0.55074 0.13999 0.0
C1115 C 0.57992 0.53555 0.12921 0.0
C1116 C 0.60445 0.5653 0.12861 0.0
C1117 C 0.6034 0.56488 0.10623 0.0
C1118 C 0.59092 0.54941 0.09541 0.0
C1119 C 0.57924 0.53491 0.1068 0.0
H1120 H 0.36843 0.99388 0.05337 0.0
H1121 H 0.40793 0.04206 0.02668 0.0
H1122 H 0.38715 -0.00087 0.08452 0.0
H1123 H 0.4264 0.0476 0.05813 0.0
H1124 H 0.46283 0.03811 0.1004 0.0
H1125 H 0.44301 0.03551 0.07183 0.0
H1126 H 0.40134 0.01664 0.11616 0.0
H1127 H 0.4213 0.01901 0.14484 0.0
C1128 C 0.38097 0.00578 0.05432 0.0
C1129 C 0.38675 0.01744 0.03738 0.0
C1130 C 0.39169 0.00883 0.07227 0.0
C1131 C 0.4084 0.02369 0.07376 0.0
C1132 C 0.41379 0.03581 0.0573 0.0
C1133 C 0.40314 0.03269 0.0393 0.0
C1134 C 0.4495 0.03367 0.10415 0.0
C1135 C 0.44366 0.02885 0.12493 0.0
C1136 C 0.43811 0.0322 0.08775 0.0
C1137 C 0.42056 0.02597 0.09166 0.0
C1138 C 0.41473 0.02131 0.11251 0.0
C1139 C 0.42615 0.02269 0.12896 0.0
H1140 H 0.37044 0.9553 0.97647 0.0
H1141 H 0.37647 0.99764 0.93699 0.0
H1142 H 0.39247 0.95305 0.95608 0.0
H1143 H 0.39803 0.99524 0.91668 0.0
H1144 H 0.44831 0.00015 0.89856 0.0
H1145 H 0.4274 0.0014 0.92165 0.0
H1146 H 0.39713 0.9446 0.91993 0.0
H1147 H 0.41861 0.9433 0.89752 0.0
C1148 C 0.37644 0.96409 0.96348 0.0
C1149 C 0.3719 0.97679 0.95851 0.0
C1150 C 0.38898 0.96276 0.95177 0.0
C1151 C 0.39711 0.97411 0.93494 0.0
C1152 C 0.39232 0.98659 0.92987 0.0
C1153 C 0.3799 0.98793 0.94152 0.0
C1154 C 0.43737 0.9879 0.90337 0.0
C1155 C 0.43512 0.97162 0.89616 0.0
C1156 C 0.42527 0.98862 0.91642 0.0
C1157 C 0.41054 0.97309 0.92245 0.0
C1158 C 0.40841 0.95678 0.91564 0.0
C1159 C 0.42059 0.95605 0.90259 0.0
H1160 H 0.048 0.40029 0.97164 0.0
H1161 H 0.00303 0.36817 0.931 0.0
H1162 H 0.05127 0.42672 0.95513 0.0
H1163 H 0.00646 0.39438 0.91431 0.0
H1164 H 0.00587 0.44454 0.90369 0.0
H1165 H 0.00334 0.41941 0.92223 0.0
H1166 H 0.05882 0.44213 0.92171 0.0
H1167 H 0.06144 0.46783 0.90404 0.0
C1168 C 0.03885 0.39887 0.95916 0.0
C1169 C 0.02516 0.38215 0.95276 0.0
C1170 C 0.04077 0.414 0.94963 0.0
C1171 C 0.02907 0.4127 0.93348 0.0
C1172 C 0.0155 0.39592 0.927 0.0
C1173 C 0.01356 0.38086 0.93654 0.0
C1174 C 0.01758 0.44437 0.90784 0.0
C1175 C 0.03387 0.45827 0.9024 0.0
C1176 C 0.01611 0.42981 0.91822 0.0
C1177 C 0.03086 0.42866 0.92332 0.0
C1178 C 0.0472 0.44265 0.91816 0.0
C1179 C 0.04868 0.45728 0.9078 0.0
H1180 H 0.59214 0.63561 0.0083 0.0
H1181 H 0.63497 0.63488 0.97824 0.0
H1182 H 0.57466 0.62335 0.97557 0.0
H1183 H 0.61742 0.62262 0.94554 0.0
H1184 H 0.57126 0.57724 0.90607 0.0
H1185 H 0.59113 0.59334 0.9358 0.0
H1186 H 0.5728 0.63038 0.93711 0.0
H1187 H 0.5532 0.6146 0.90683 0.0
C1188 C 0.59789 0.633 0.99467 0.0
C1189 C 0.61494 0.63614 0.99597 0.0
C1190 C 0.5879 0.62607 0.97588 0.0
C1191 C 0.59465 0.62196 0.95803 0.0
C1192 C 0.61182 0.62551 0.95912 0.0
C1193 C 0.62189 0.63262 0.97783 0.0
C1194 C 0.5717 0.58904 0.91228 0.0
C1195 C 0.56055 0.59457 0.90396 0.0
C1196 C 0.58308 0.59824 0.92941 0.0
C1197 C 0.58349 0.61309 0.93881 0.0
C1198 C 0.57262 0.61885 0.93033 0.0
C1199 C 0.56135 0.60975 0.91303 0.0
H1200 H 0.00212 0.64458 0.96546 0.0
H1201 H 0.04859 0.65091 0.9962 0.0
H1202 H 0.00546 0.62783 0.93615 0.0
H1203 H 0.05187 0.63434 0.96699 0.0
H1204 H 0.03411 0.58084 0.93301 0.0
H1205 H 0.03392 0.60229 0.95795 0.0
H1206 H 0.02436 0.62791 0.90585 0.0
H1207 H 0.02442 0.60616 0.88067 0.0
C1208 C 0.01325 0.64279 0.96575 0.0
C1209 C 0.02492 0.64886 0.98339 0.0
C1210 C 0.01516 0.63321 0.94894 0.0
C1211 C 0.02875 0.62951 0.9495 0.0
C1212 C 0.04107 0.63667 0.96635 0.0
C1213 C 0.0392 0.64624 0.98306 0.0
C1214 C 0.03193 0.59102 0.92685 0.0
C1215 C 0.02918 0.59177 0.90491 0.0
C1216 C 0.03201 0.60343 0.94111 0.0
C1217 C 0.02924 0.61687 0.93385 0.0
C1218 C 0.0265 0.61768 0.91189 0.0
C1219 C 0.02663 0.60532 0.89751 0.0
H1220 H 0.36837 0.41142 0.97114 0.0
H1221 H 0.38128 0.3797 0.93038 0.0
H1222 H 0.38919 0.43779 0.95286 0.0
H1223 H 0.40194 0.40586 0.91236 0.0
H1224 H 0.44949 0.45723 0.89845 0.0
H1225 H 0.42995 0.43296 0.92022 0.0
H1226 H 0.39257 0.4503 0.91627 0.0
H1227 H 0.41215 0.47465 0.89424 0.0
C1228 C 0.3757 0.41008 0.95841 0.0
C1229 C 0.37329 0.39348 0.95236 0.0
C1230 C 0.38755 0.42515 0.94791 0.0
C1231 C 0.39726 0.42388 0.9313 0.0
C1232 C 0.39487 0.4073 0.92536 0.0
C1233 C 0.383 0.39228 0.93571 0.0
C1234 C 0.43708 0.45585 0.90215 0.0
C1235 C 0.43224 0.46769 0.89433 0.0
C1236 C 0.42592 0.44198 0.91467 0.0
C1237 C 0.40967 0.43963 0.91975 0.0
C1238 C 0.40507 0.45187 0.9127 0.0
C1239 C 0.41626 0.46578 0.90009 0.0
H1240 H 0.63821 0.00048 0.96865 0.0
H1241 H 0.59049 0.9634 0.99777 0.0
H1242 H 0.6226 0.99581 0.93475 0.0
H1243 H 0.57493 0.95905 0.96407 0.0
H1244 H 0.55143 0.9466 0.89826 0.0
H1245 H 0.57031 0.94771 0.92749 0.0
H1246 H 0.60202 0.00396 0.92137 0.0
H1247 H 0.58353 0.00273 0.89172 0.0
C1248 C 0.62443 0.99121 0.96781 0.0
C1249 C 0.61559 0.98244 0.98603 0.0
C1250 C 0.61548 0.9886 0.94839 0.0
C1251 C 0.5975 0.97714 0.94672 0.0
C1252 C 0.5888 0.96782 0.9647 0.0
C1253 C 0.59773 0.97043 0.98411 0.0
C1254 C 0.5627 0.95912 0.9028 0.0
C1255 C 0.5659 0.97461 0.89281 0.0
C1256 C 0.5734 0.95979 0.9197 0.0
C1257 C 0.58756 0.97594 0.92693 0.0
C1258 C 0.5913 0.99127 0.91614 0.0
C1259 C 0.5806 0.99061 0.89928 0.0
H1260 H 0.65179 0.05382 0.07136 0.0
H1261 H 0.60921 0.00181 0.05553 0.0
H1262 H 0.63242 0.06014 0.09234 0.0
H1263 H 0.58984 0.00826 0.07595 0.0
H1264 H 0.55895 0.03441 0.10066 0.0
H1265 H 0.57919 0.03302 0.07575 0.0
H1266 H 0.61469 0.04195 0.12821 0.0
H1267 H 0.59424 0.04282 0.15316 0.0
C1268 C 0.63822 0.04393 0.072 0.0
C1269 C 0.63194 0.02729 0.06209 0.0
C1270 C 0.62722 0.04751 0.08401 0.0
C1271 C 0.60973 0.03466 0.08568 0.0
C1272 C 0.60328 0.01838 0.07477 0.0
C1273 C 0.61436 0.01466 0.06326 0.0
C1274 C 0.57121 0.03632 0.10674 0.0
C1275 C 0.57513 0.0387 0.12871 0.0
C1276 C 0.5827 0.03551 0.09257 0.0
C1277 C 0.59845 0.03748 0.10015 0.0
C1278 C 0.60268 0.04059 0.12203 0.0
C1279 C 0.59101 0.04099 0.13625 0.0
H1280 H 0.95805 0.60991 0.05864 0.0
H1281 H 0.01307 0.63016 0.05664 0.0
H1282 H 0.95445 0.58362 0.07617 0.0
H1283 H 0.00943 0.60384 0.07379 0.0
H1284 H 0.9897 0.54386 0.08284 0.0
H1285 H 0.99252 0.5691 0.0639 0.0
H1286 H 0.96652 0.57982 0.11426 0.0
H1287 H 0.96454 0.55531 0.13398 0.0
C1288 C 0.96933 0.60867 0.06181 0.0
C1289 C 0.98587 0.62216 0.05655 0.0
C1290 C 0.96728 0.59371 0.07188 0.0
C1291 C 0.98168 0.5918 0.07634 0.0
C1292 C 0.99814 0.60503 0.07048 0.0
C1293 C 0.00023 0.62015 0.06086 0.0
C1294 C 0.98479 0.55169 0.09012 0.0
C1295 C 0.97693 0.54745 0.11008 0.0
C1296 C 0.9863 0.56606 0.07914 0.0
C1297 C 0.97967 0.57629 0.08763 0.0
C1298 C 0.97154 0.57196 0.10729 0.0
C1299 C 0.97034 0.55783 0.1185 0.0
H1300 H 0.37027 0.36386 0.04419 0.0
H1301 H 0.41043 0.36215 0.00855 0.0
H1302 H 0.38985 0.37559 0.07538 0.0
H1303 H 0.42978 0.37359 0.03974 0.0
H1304 H 0.46487 0.42013 0.08561 0.0
H1305 H 0.44431 0.40296 0.05692 0.0
H1306 H 0.40724 0.37042 0.10303 0.0
H1307 H 0.42796 0.38797 0.132 0.0
C1308 C 0.38314 0.36567 0.04309 0.0
C1309 C 0.38885 0.36232 0.02373 0.0
C1310 C 0.39432 0.37231 0.06102 0.0
C1311 C 0.41143 0.37573 0.05993 0.0
C1312 C 0.41678 0.37141 0.04095 0.0
C1313 C 0.40564 0.3648 0.02308 0.0
C1314 C 0.45236 0.40927 0.08964 0.0
C1315 C 0.44795 0.40547 0.11102 0.0
C1316 C 0.44063 0.39931 0.0732 0.0
C1317 C 0.42415 0.3853 0.07769 0.0
C1318 C 0.41982 0.38121 0.0991 0.0
C1319 C 0.43168 0.39114 0.11563 0.0
H1320 H 0.6246 0.68956 0.35651 0.0
H1321 H 0.66938 0.69345 0.38909 0.0
H1322 H 0.61953 0.70354 0.3871 0.0
H1323 H 0.6641 0.70733 0.42 0.0
H1324 H 0.6626 0.75484 0.45318 0.0
H1325 H 0.66649 0.73619 0.42727 0.0
H1326 H 0.61133 0.70037 0.42434 0.0
H1327 H 0.60741 0.71897 0.4504 0.0
C1328 C 0.63324 0.69315 0.37034 0.0
C1329 C 0.64749 0.69049 0.37024 0.0
C1330 C 0.63024 0.70108 0.38798 0.0
C1331 C 0.64145 0.70664 0.40598 0.0
C1332 C 0.65534 0.70338 0.40627 0.0
C1333 C 0.65828 0.69531 0.38861 0.0
C1334 C 0.65132 0.7428 0.44737 0.0
C1335 C 0.63467 0.7385 0.45377 0.0
C1336 C 0.65356 0.73209 0.43251 0.0
C1337 C 0.63921 0.71683 0.42364 0.0
C1338 C 0.62263 0.71218 0.43062 0.0
C1339 C 0.62038 0.72287 0.44551 0.0
H1340 H 0.27759 0.95505 0.4099 0.0
H1341 H 0.31489 0.93767 0.41439 0.0
H1342 H 0.25718 0.92975 0.42991 0.0
H1343 H 0.29444 0.91236 0.43478 0.0
H1344 H 0.25892 0.88692 0.4953 0.0
H1345 H 0.27992 0.91027 0.47331 0.0
H1346 H 0.24121 0.89478 0.42296 0.0
H1347 H 0.22043 0.87084 0.44422 0.0
C1348 C 0.28145 0.94588 0.41528 0.0
C1349 C 0.29785 0.94837 0.41083 0.0
C1350 C 0.26974 0.93135 0.42656 0.0
C1351 C 0.27434 0.91923 0.43392 0.0
C1352 C 0.29069 0.92162 0.42935 0.0
C1353 C 0.30229 0.93598 0.41762 0.0
C1354 C 0.25493 0.88821 0.47939 0.0
C1355 C 0.23786 0.87702 0.47168 0.0
C1356 C 0.26696 0.90163 0.46687 0.0
C1357 C 0.26208 0.90429 0.44656 0.0
C1358 C 0.24518 0.89306 0.43869 0.0
C1359 C 0.23326 0.87946 0.451 0.0
H1360 H 0.03225 0.3284 0.37982 0.0
H1361 H 0.07674 0.36346 0.34378 0.0
H1362 H 0.05103 0.33428 0.41122 0.0
H1363 H 0.09534 0.36948 0.37519 0.0
H1364 H 0.08997 0.35883 0.46813 0.0
H1365 H 0.07093 0.35687 0.43832 0.0
H1366 H 0.10488 0.35179 0.39417 0.0
H1367 H 0.1239 0.35413 0.42363 0.0
C1368 C 0.04598 0.33754 0.37864 0.0
C1369 C 0.053 0.34526 0.35914 0.0
C1370 C 0.05672 0.34098 0.39669 0.0
C1371 C 0.07469 0.35219 0.39563 0.0
C1372 C 0.08158 0.36052 0.37642 0.0
C1373 C 0.07088 0.3571 0.35842 0.0
C1374 C 0.09339 0.35747 0.45201 0.0
C1375 C 0.10833 0.35648 0.44822 0.0
C1376 C 0.08245 0.35623 0.43498 0.0
C1377 C 0.08641 0.35421 0.41388 0.0
C1378 C 0.10154 0.35356 0.41018 0.0
C1379 C 0.11235 0.35469 0.4271 0.0
H1380 H 0.025 0.27673 0.30536 0.0
H1381 H 0.03338 0.31607 0.25948 0.0
H1382 H 0.04284 0.26826 0.28444 0.0
H1383 H 0.05108 0.30781 0.23899 0.0
H1384 H 0.07063 0.28179 0.19625 0.0
H1385 H 0.04835 0.28294 0.21689 0.0
H1386 H 0.07441 0.28267 0.27524 0.0
H1387 H 0.09644 0.28091 0.25455 0.0
C1388 C 0.03058 0.2835 0.29083 0.0
C1389 C 0.02791 0.29714 0.28414 0.0
C1390 C 0.04078 0.27868 0.27891 0.0
C1391 C 0.04821 0.28728 0.26 0.0
C1392 C 0.04529 0.30072 0.25327 0.0
C1393 C 0.0353 0.3056 0.26519 0.0
C1394 C 0.07136 0.28148 0.21345 0.0
C1395 C 0.08541 0.28149 0.22378 0.0
C1396 C 0.05869 0.2823 0.22528 0.0
C1397 C 0.0598 0.28315 0.24766 0.0
C1398 C 0.0732 0.28199 0.25801 0.0
C1399 C 0.08591 0.28119 0.24616 0.0
H1400 H 0.66474 0.71211 0.30167 0.0
H1401 H 0.71738 0.72464 0.29288 0.0
H1402 H 0.67031 0.73839 0.28322 0.0
H1403 H 0.72295 0.75069 0.27334 0.0
H1404 H 0.73069 0.80391 0.25272 0.0
H1405 H 0.72655 0.77907 0.27388 0.0
H1406 H 0.67396 0.7486 0.24885 0.0
H1407 H 0.67798 0.7737 0.22879 0.0
C1408 C 0.67747 0.72044 0.29553 0.0
C1409 C 0.69055 0.71624 0.29835 0.0
C1410 C 0.6807 0.7355 0.28485 0.0
C1411 C 0.697 0.74656 0.27629 0.0
C1412 C 0.71027 0.74261 0.27977 0.0
C1413 C 0.7071 0.72766 0.2909 0.0
C1414 C 0.71829 0.79183 0.25183 0.0
C1415 C 0.7046 0.79069 0.23932 0.0
C1416 C 0.71591 0.77757 0.26386 0.0
C1417 C 0.69984 0.7618 0.26333 0.0
C1418 C 0.68635 0.76064 0.25024 0.0
C1419 C 0.68866 0.77496 0.23857 0.0
H1420 H 0.25882 0.97364 0.34938 0.0
H1421 H 0.30032 0.97263 0.31611 0.0
H1422 H 0.23978 0.9602 0.31825 0.0
H1423 H 0.28104 0.9589 0.28494 0.0
H1424 H 0.20606 0.91236 0.27394 0.0
H1425 H 0.22637 0.9303 0.30247 0.0
H1426 H 0.26331 0.96246 0.25604 0.0
H1427 H 0.24289 0.94414 0.22723 0.0
C1428 C 0.26396 0.9707 0.33538 0.0
C1429 C 0.28108 0.97402 0.3354 0.0
C1430 C 0.253 0.96293 0.31754 0.0
C1431 C 0.25883 0.95826 0.29924 0.0
C1432 C 0.27619 0.96241 0.29878 0.0
C1433 C 0.28721 0.97021 0.31669 0.0
C1434 C 0.21853 0.92324 0.26978 0.0
C1435 C 0.22295 0.92676 0.24836 0.0
C1436 C 0.2301 0.93365 0.28614 0.0
C1437 C 0.24643 0.94785 0.28152 0.0
C1438 C 0.25084 0.95155 0.26007 0.0
C1439 C 0.23914 0.94116 0.24362 0.0
H1440 H 0.66944 0.97245 0.30635 0.0
H1441 H 0.71324 0.97733 0.34257 0.0
H1442 H 0.67563 0.9577 0.27721 0.0
H1443 H 0.71941 0.96283 0.31349 0.0
H1444 H 0.70628 0.91239 0.27501 0.0
H1445 H 0.70347 0.93179 0.30076 0.0
H1446 H 0.69701 0.9602 0.24946 0.0
H1447 H 0.69963 0.94045 0.22346 0.0
C1448 C 0.68057 0.97072 0.30796 0.0
C1449 C 0.69067 0.97583 0.32697 0.0
C1450 C 0.68414 0.96231 0.29122 0.0
C1451 C 0.69784 0.95886 0.29322 0.0
C1452 C 0.70855 0.96498 0.31166 0.0
C1453 C 0.70502 0.97335 0.32831 0.0
C1454 C 0.70425 0.92277 0.2692 0.0
C1455 C 0.70306 0.92484 0.24724 0.0
C1456 C 0.70282 0.93401 0.28395 0.0
C1457 C 0.7001 0.94759 0.27715 0.0
C1458 C 0.69904 0.94981 0.25516 0.0
C1459 C 0.70065 0.9386 0.24031 0.0
H1460 H 0.01561 0.72989 0.28726 0.0
H1461 H 0.05787 0.71955 0.29156 0.0
H1462 H 0.03361 0.75626 0.26703 0.0
H1463 H 0.07596 0.7459 0.2721 0.0
H1464 H 0.09716 0.77948 0.21585 0.0
H1465 H 0.07747 0.75424 0.2362 0.0
H1466 H 0.0587 0.78558 0.26721 0.0
H1467 H 0.07813 0.81076 0.24596 0.0
C1468 C 0.02884 0.73344 0.28415 0.0
C1469 C 0.03527 0.72252 0.29045 0.0
C1470 C 0.03914 0.74851 0.27261 0.0
C1471 C 0.0561 0.75296 0.26747 0.0
C1472 C 0.06276 0.74252 0.27505 0.0
C1473 C 0.05242 0.72742 0.28626 0.0
C1474 C 0.08868 0.78087 0.22688 0.0
C1475 C 0.08917 0.79698 0.22954 0.0
C1476 C 0.07751 0.7665 0.23869 0.0
C1477 C 0.06678 0.76799 0.25372 0.0
C1478 C 0.06678 0.78398 0.25576 0.0
C1479 C 0.07787 0.79837 0.24366 0.0
H1480 H 0.29974 0.33356 0.30137 0.0
H1481 H 0.25844 0.29063 0.33418 0.0
H1482 H 0.28073 0.32637 0.2699 0.0
H1483 H 0.23968 0.28325 0.30265 0.0
H1484 H 0.24332 0.30321 0.21212 0.0
H1485 H 0.26341 0.30512 0.24056 0.0
H1486 H 0.22578 0.29823 0.28741 0.0
H1487 H 0.20581 0.29595 0.25923 0.0
C1488 C 0.28675 0.32236 0.30173 0.0
C1489 C 0.28052 0.31287 0.32044 0.0
C1490 C 0.27588 0.31819 0.28364 0.0
C1491 C 0.25861 0.30441 0.28389 0.0
C1492 C 0.2528 0.2942 0.30211 0.0
C1493 C 0.26359 0.29841 0.32018 0.0
C1494 C 0.23933 0.30185 0.2285 0.0
C1495 C 0.22309 0.29961 0.23351 0.0
C1496 C 0.25084 0.30306 0.24476 0.0
C1497 C 0.24619 0.30181 0.26625 0.0
C1498 C 0.22972 0.29901 0.27105 0.0
C1499 C 0.21833 0.29791 0.25491 0.0
H1500 H 0.27697 0.33668 0.38484 0.0
H1501 H 0.3186 0.38961 0.39865 0.0
H1502 H 0.25718 0.34292 0.40439 0.0
H1503 H 0.29873 0.39587 0.41867 0.0
H1504 H 0.26142 0.38126 0.47915 0.0
H1505 H 0.28243 0.38159 0.45446 0.0
H1506 H 0.24422 0.36378 0.40313 0.0
H1507 H 0.22337 0.36405 0.42746 0.0
C1508 C 0.2818 0.34971 0.39192 0.0
C1509 C 0.29924 0.36264 0.39047 0.0
C1510 C 0.27048 0.35332 0.40294 0.0
C1511 C 0.2765 0.36985 0.41305 0.0
C1512 C 0.29385 0.38302 0.41102 0.0
C1513 C 0.30513 0.3795 0.39952 0.0
C1514 C 0.25761 0.37786 0.46251 0.0
C1515 C 0.2406 0.37233 0.45538 0.0
C1516 C 0.26965 0.37807 0.44839 0.0
C1517 C 0.26485 0.3726 0.42699 0.0
C1518 C 0.24815 0.36789 0.41963 0.0
C1519 C 0.2362 0.36789 0.43363 0.0
H1520 H 0.62519 0.93091 0.37875 0.0
H1521 H 0.66936 0.96312 0.42055 0.0
H1522 H 0.6211 0.90459 0.39639 0.0
H1523 H 0.66525 0.93694 0.43809 0.0
H1524 H 0.66381 0.88545 0.4503 0.0
H1525 H 0.66759 0.91066 0.43053 0.0
H1526 H 0.61258 0.8908 0.43155 0.0
H1527 H 0.60878 0.86561 0.45153 0.0
C1528 C 0.63404 0.93239 0.39165 0.0
C1529 C 0.64769 0.94912 0.39811 0.0
C1530 C 0.63165 0.91732 0.40181 0.0
C1531 C 0.64291 0.91867 0.41856 0.0
C1532 C 0.65654 0.93541 0.42499 0.0
C1533 C 0.65887 0.95045 0.41493 0.0
C1534 C 0.65252 0.88649 0.44642 0.0
C1535 C 0.63601 0.87357 0.45266 0.0
C1536 C 0.65469 0.90093 0.43506 0.0
C1537 C 0.6404 0.90279 0.42959 0.0
C1538 C 0.62383 0.88965 0.43533 0.0
C1539 C 0.62165 0.87521 0.44677 0.0
H1540 H 0.08009 0.70102 0.34721 0.0
H1541 H 0.0357 0.69432 0.38147 0.0
H1542 H 0.09836 0.71462 0.37891 0.0
H1543 H 0.05417 0.70821 0.41322 0.0
H1544 H 0.0923 0.72499 0.47103 0.0
H1545 H 0.07336 0.70633 0.44133 0.0
H1546 H 0.10847 0.74331 0.39673 0.0
H1547 H 0.12737 0.76159 0.42614 0.0
C1548 C 0.07417 0.70228 0.36154 0.0
C1549 C 0.05643 0.69677 0.36165 0.0
C1550 C 0.08468 0.71015 0.37971 0.0
C1551 C 0.07777 0.71273 0.39848 0.0
C1552 C 0.05988 0.70635 0.39902 0.0
C1553 C 0.04931 0.69845 0.38078 0.0
C1554 C 0.096 0.72896 0.45484 0.0
C1555 C 0.11124 0.74479 0.45089 0.0
C1556 C 0.08512 0.71837 0.43788 0.0
C1557 C 0.08944 0.72333 0.41669 0.0
C1558 C 0.10487 0.73898 0.41284 0.0
C1559 C 0.11561 0.74958 0.4297 0.0
H1560 H 0.32306 0.01831 0.71995 0.0
H1561 H 0.31362 0.04991 0.67596 0.0
H1562 H 0.31433 0.03051 0.74938 0.0
H1563 H 0.30591 0.06279 0.70514 0.0
H1564 H 0.27991 0.07471 0.75651 0.0
H1565 H 0.2851 0.05825 0.72924 0.0
H1566 H 0.32242 0.05544 0.77109 0.0
H1567 H 0.3159 0.07038 0.79924 0.0
C1568 C 0.31922 0.02793 0.7166 0.0
C1569 C 0.31891 0.03303 0.6956 0.0
C1570 C 0.3143 0.03503 0.73348 0.0
C1571 C 0.30925 0.04762 0.72978 0.0
C1572 C 0.30919 0.05279 0.70872 0.0
C1573 C 0.31377 0.04548 0.6919 0.0
C1574 C 0.28886 0.07018 0.76026 0.0
C1575 C 0.29754 0.0741 0.78025 0.0
C1576 C 0.29213 0.06099 0.74433 0.0
C1577 C 0.30449 0.05576 0.74764 0.0
C1578 C 0.31277 0.05914 0.76784 0.0
C1579 C 0.30923 0.06804 0.78396 0.0
H1580 H 0.97386 0.25759 0.71988 0.0
H1581 H 0.96135 0.28836 0.76287 0.0
H1582 H 0.95569 0.23129 0.73997 0.0
H1583 H 0.94301 0.26219 0.78248 0.0
H1584 H 0.92601 0.21743 0.82666 0.0
H1585 H 0.9462 0.24239 0.80617 0.0
H1586 H 0.92498 0.21128 0.74785 0.0
H1587 H 0.90481 0.18622 0.76844 0.0
C1588 C 0.96716 0.25872 0.7335 0.0
C1589 C 0.96901 0.27505 0.73974 0.0
C1590 C 0.95672 0.24366 0.74496 0.0
C1591 C 0.94803 0.24468 0.76292 0.0
C1592 C 0.94978 0.261 0.76896 0.0
C1593 C 0.96016 0.27599 0.75754 0.0
C1594 C 0.92573 0.2159 0.80947 0.0
C1595 C 0.91372 0.19995 0.79913 0.0
C1596 C 0.93725 0.23019 0.79773 0.0
C1597 C 0.93701 0.22889 0.77537 0.0
C1598 C 0.92555 0.21267 0.76506 0.0
C1599 C 0.91401 0.19832 0.77685 0.0
H1600 H 0.75851 0.70397 0.68622 0.0
H1601 H 0.71279 0.68884 0.72253 0.0
H1602 H 0.77613 0.71349 0.71874 0.0
H1603 H 0.73056 0.69946 0.75524 0.0
H1604 H 0.76428 0.6991 0.81077 0.0
H1605 H 0.74587 0.69254 0.77924 0.0
H1606 H 0.78869 0.73378 0.74628 0.0
H1607 H 0.80751 0.73898 0.77689 0.0
C1608 C 0.75227 0.70305 0.70118 0.0
C1609 C 0.73425 0.6956 0.70181 0.0
C1610 C 0.76241 0.70866 0.71993 0.0
C1611 C 0.75488 0.70736 0.73984 0.0
C1612 C 0.73686 0.70039 0.74035 0.0
C1613 C 0.72664 0.69441 0.72157 0.0
C1614 C 0.76987 0.70666 0.79675 0.0
C1615 C 0.78758 0.71936 0.79647 0.0
C1616 C 0.75916 0.7031 0.77866 0.0
C1617 C 0.76575 0.71242 0.7599 0.0
C1618 C 0.78318 0.72592 0.76012 0.0
C1619 C 0.79397 0.72919 0.778 0.0
H1620 H 0.70951 0.62023 0.64705 0.0
H1621 H 0.72481 0.66571 0.60858 0.0
H1622 H 0.72706 0.61197 0.62522 0.0
H1623 H 0.74215 0.65763 0.58728 0.0
H1624 H 0.78347 0.64838 0.56342 0.0
H1625 H 0.76853 0.65539 0.59058 0.0
H1626 H 0.72607 0.60178 0.58661 0.0
H1627 H 0.74113 0.5947 0.5593 0.0
C1628 C 0.71677 0.62858 0.6342 0.0
C1629 C 0.71592 0.64375 0.62974 0.0
C1630 C 0.72671 0.62381 0.62168 0.0
C1631 C 0.73608 0.63425 0.60468 0.0
C1632 C 0.73538 0.64951 0.60053 0.0
C1633 C 0.7254 0.65415 0.61282 0.0
C1634 C 0.77094 0.63808 0.56833 0.0
C1635 C 0.76329 0.62109 0.55894 0.0
C1636 C 0.76244 0.64207 0.58394 0.0
C1637 C 0.74606 0.62918 0.59052 0.0
C1638 C 0.73874 0.61194 0.58193 0.0
C1639 C 0.7473 0.60792 0.56626 0.0
H1640 H 0.38489 0.07111 0.65127 0.0
H1641 H 0.34761 0.04041 0.60101 0.0
H1642 H 0.39223 0.09809 0.63258 0.0
H1643 H 0.35478 0.06721 0.58258 0.0
H1644 H 0.38252 0.11651 0.54479 0.0
H1645 H 0.37905 0.09094 0.56359 0.0
H1646 H 0.37761 0.11522 0.62343 0.0
H1647 H 0.38147 0.14099 0.60466 0.0
C1648 C 0.37831 0.07012 0.63623 0.0
C1649 C 0.36561 0.05365 0.62767 0.0
C1650 C 0.38245 0.08555 0.6256 0.0
C1651 C 0.37411 0.08476 0.60609 0.0
C1652 C 0.36159 0.06825 0.59744 0.0
C1653 C 0.35737 0.0529 0.60812 0.0
C1654 C 0.38176 0.11652 0.56199 0.0
C1655 C 0.38218 0.13073 0.57323 0.0
C1656 C 0.37961 0.10181 0.57273 0.0
C1657 C 0.37793 0.10102 0.59497 0.0
C1658 C 0.37897 0.11549 0.60631 0.0
C1659 C 0.38101 0.13016 0.59554 0.0
H1660 H 0.92585 0.30075 0.68219 0.0
H1661 H 0.96661 0.29999 0.64687 0.0
H1662 H 0.90657 0.28878 0.65098 0.0
H1663 H 0.94712 0.28757 0.61576 0.0
H1664 H 0.87169 0.2434 0.60431 0.0
H1665 H 0.89193 0.26025 0.63332 0.0
H1666 H 0.93024 0.29191 0.58788 0.0
H1667 H 0.90997 0.27448 0.55861 0.0
C1668 C 0.93075 0.29811 0.66774 0.0
C1669 C 0.94774 0.30114 0.66715 0.0
C1670 C 0.91966 0.29118 0.64986 0.0
C1671 C 0.92522 0.28699 0.63095 0.0
C1672 C 0.94245 0.29076 0.63002 0.0
C1673 C 0.9536 0.29779 0.64791 0.0
C1674 C 0.88444 0.25393 0.60047 0.0
C1675 C 0.8893 0.25747 0.57917 0.0
C1676 C 0.89599 0.26376 0.61712 0.0
C1677 C 0.91272 0.27747 0.61295 0.0
C1678 C 0.91749 0.28134 0.59162 0.0
C1679 C 0.90585 0.27147 0.57487 0.0
H1680 H 0.37385 0.30929 0.67677 0.0
H1681 H 0.32998 0.30319 0.6396 0.0
H1682 H 0.38087 0.29521 0.64809 0.0
H1683 H 0.33704 0.28883 0.61076 0.0
H1684 H 0.36388 0.27352 0.55788 0.0
H1685 H 0.35932 0.29219 0.58356 0.0
H1686 H 0.36584 0.26419 0.63529 0.0
H1687 H 0.37059 0.24589 0.60989 0.0
C1688 C 0.36577 0.3051 0.66239 0.0
C1689 C 0.35117 0.30714 0.66066 0.0
C1690 C 0.36979 0.29697 0.64596 0.0
C1691 C 0.35933 0.29062 0.62733 0.0
C1692 C 0.34535 0.29361 0.62494 0.0
C1693 C 0.34129 0.3018 0.64147 0.0
C1694 C 0.36446 0.27151 0.57477 0.0
C1695 C 0.36752 0.25821 0.58189 0.0
C1696 C 0.36174 0.28209 0.58942 0.0
C1697 C 0.36231 0.27971 0.61144 0.0
C1698 C 0.36554 0.26652 0.61846 0.0
C1699 C 0.36809 0.2559 0.60389 0.0
H1700 H 0.70285 0.04834 0.58785 0.0
H1701 H 0.69139 0.07646 0.63614 0.0
H1702 H 0.71926 0.07536 0.56884 0.0
H1703 H 0.70779 0.10369 0.61679 0.0
H1704 H 0.76004 0.14909 0.58987 0.0
H1705 H 0.73881 0.12348 0.60867 0.0
H1706 H 0.71536 0.0969 0.5484 0.0
H1707 H 0.73689 0.12236 0.52959 0.0
C1708 C 0.70382 0.0603 0.59441 0.0
C1709 C 0.69596 0.0603 0.6136 0.0
C1710 C 0.71305 0.07576 0.58334 0.0
C1711 C 0.71468 0.09161 0.59122 0.0
C1712 C 0.70676 0.09165 0.61038 0.0
C1713 C 0.69738 0.07609 0.62143 0.0
C1714 C 0.75018 0.13786 0.58067 0.0
C1715 C 0.75024 0.1376 0.55828 0.0
C1716 C 0.73794 0.12327 0.59143 0.0
C1717 C 0.72558 0.10812 0.57999 0.0
C1718 C 0.72492 0.10833 0.55761 0.0
C1719 C 0.73712 0.12295 0.54685 0.0
H1720 H 0.95674 0.65073 0.63262 0.0
H1721 H 0.91162 0.6391 0.66854 0.0
H1722 H 0.93902 0.641 0.5998 0.0
H1723 H 0.89413 0.63037 0.63589 0.0
H1724 H 0.86232 0.60215 0.57855 0.0
H1725 H 0.8811 0.6087 0.60955 0.0
H1726 H 0.92404 0.64817 0.57496 0.0
H1727 H 0.90559 0.64033 0.54313 0.0
C1728 C 0.94305 0.64622 0.63346 0.0
C1729 C 0.93555 0.64558 0.65317 0.0
C1730 C 0.93288 0.64072 0.61463 0.0
C1731 C 0.91503 0.63475 0.61506 0.0
C1732 C 0.90767 0.63437 0.63485 0.0
C1733 C 0.91775 0.63953 0.65364 0.0
C1734 C 0.87586 0.61186 0.5772 0.0
C1735 C 0.8823 0.62072 0.55813 0.0
C1736 C 0.88663 0.61591 0.59527 0.0
C1737 C 0.90409 0.62927 0.59506 0.0
C1738 C 0.91071 0.63776 0.57583 0.0
C1739 C 0.9 0.63344 0.55757 0.0
H1740 H 0.96586 0.71826 0.71117 0.0
H1741 H 0.94783 0.67204 0.74905 0.0
H1742 H 0.94807 0.72699 0.73184 0.0
H1743 H 0.93011 0.68051 0.76902 0.0
H1744 H 0.88707 0.68948 0.78644 0.0
H1745 H 0.90381 0.68338 0.76099 0.0
H1746 H 0.94704 0.73597 0.77176 0.0
H1747 H 0.93026 0.74212 0.79756 0.0
C1748 C 0.95802 0.7099 0.7237 0.0
C1749 C 0.95802 0.69428 0.72819 0.0
C1750 C 0.94792 0.71492 0.73552 0.0
C1751 C 0.93755 0.70427 0.75179 0.0
C1752 C 0.93767 0.68876 0.75625 0.0
C1753 C 0.94783 0.68389 0.74471 0.0
C1754 C 0.90014 0.69977 0.78338 0.0
C1755 C 0.9075 0.71615 0.79434 0.0
C1756 C 0.90966 0.69631 0.76873 0.0
C1757 C 0.92676 0.70914 0.76464 0.0
C1758 C 0.93385 0.72589 0.77459 0.0
C1759 C 0.92427 0.72937 0.78936 0.0
H1760 H 0.28376 0.26316 0.71072 0.0
H1761 H 0.32772 0.29395 0.7534 0.0
H1762 H 0.27896 0.23625 0.72774 0.0
H1763 H 0.32307 0.26728 0.77 0.0
H1764 H 0.3221 0.21598 0.77888 0.0
H1765 H 0.3253 0.24093 0.7591 0.0
H1766 H 0.2707 0.22206 0.76415 0.0
H1767 H 0.26748 0.19709 0.78438 0.0
C1768 C 0.29241 0.2642 0.72365 0.0
C1769 C 0.30629 0.2807 0.73047 0.0
C1770 C 0.28963 0.24882 0.7334 0.0
C1771 C 0.30077 0.24967 0.75001 0.0
C1772 C 0.31448 0.26617 0.75694 0.0
C1773 C 0.31715 0.28149 0.74738 0.0
C1774 C 0.31076 0.21715 0.77587 0.0
C1775 C 0.29458 0.20469 0.78354 0.0
C1776 C 0.3126 0.23142 0.76448 0.0
C1777 C 0.29829 0.23354 0.76031 0.0
C1778 C 0.28194 0.2207 0.76707 0.0
C1779 C 0.2801 0.20641 0.77862 0.0
H1780 H 0.70444 0.03781 0.70395 0.0
H1781 H 0.74423 0.03548 0.66831 0.0
H1782 H 0.72402 0.04971 0.7349 0.0
H1783 H 0.76361 0.04667 0.69954 0.0
H1784 H 0.80022 0.08772 0.74939 0.0
H1785 H 0.78027 0.07315 0.71924 0.0
H1786 H 0.73883 0.04448 0.76257 0.0
H1787 H 0.75882 0.05962 0.79274 0.0
C1788 C 0.71728 0.03956 0.70282 0.0
C1789 C 0.72279 0.03581 0.68357 0.0
C1790 C 0.72852 0.04631 0.72065 0.0
C1791 C 0.7455 0.04929 0.71979 0.0
C1792 C 0.75078 0.04494 0.70072 0.0
C1793 C 0.73961 0.0384 0.68281 0.0
C1794 C 0.78689 0.07814 0.75246 0.0
C1795 C 0.78108 0.07482 0.77343 0.0
C1796 C 0.77542 0.06971 0.73515 0.0
C1797 C 0.75786 0.05758 0.73836 0.0
C1798 C 0.75216 0.05396 0.75942 0.0
C1799 C 0.76362 0.06256 0.77674 0.0
H1800 H 0.04259 0.31121 0.01645 0.0
H1801 H 0.05226 0.35306 0.06172 0.0
H1802 H 0.05964 0.3029 0.03884 0.0
H1803 H 0.06885 0.3444 0.08449 0.0
H1804 H 0.11404 0.33788 0.10697 0.0
H1805 H 0.09593 0.34535 0.0854 0.0
H1806 H 0.06053 0.29007 0.07167 0.0
H1807 H 0.07892 0.28266 0.093 0.0
C1808 C 0.04819 0.31852 0.03131 0.0
C1809 C 0.04613 0.33287 0.03723 0.0
C1810 C 0.0579 0.31368 0.04424 0.0
C1811 C 0.06572 0.323 0.06348 0.0
C1812 C 0.06331 0.33712 0.0696 0.0
C1813 C 0.05369 0.34202 0.0566 0.0
C1814 C 0.10231 0.32732 0.09948 0.0
C1815 C 0.09789 0.30967 0.10174 0.0
C1816 C 0.09188 0.33159 0.08715 0.0
C1817 C 0.07668 0.31833 0.07683 0.0
C1818 C 0.07225 0.30065 0.07913 0.0
C1819 C 0.08276 0.29638 0.09138 0.0
H1820 H 0.63788 0.70118 0.07642 0.0
H1821 H 0.68631 0.71604 0.04636 0.0
H1822 H 0.64928 0.73117 0.08942 0.0
H1823 H 0.69761 0.74645 0.05891 0.0
H1824 H 0.71768 0.78897 0.11477 0.0
H1825 H 0.7071 0.762 0.09289 0.0
H1826 H 0.65865 0.76077 0.08179 0.0
H1827 H 0.66906 0.78726 0.10433 0.0
C1828 C 0.65086 0.71093 0.07215 0.0
C1829 C 0.66124 0.7061 0.06055 0.0
C1830 C 0.65738 0.72825 0.07951 0.0
C1831 C 0.67444 0.74127 0.07536 0.0
C1832 C 0.68452 0.73669 0.06269 0.0
C1833 C 0.67798 0.71928 0.05534 0.0
C1834 C 0.70489 0.78302 0.10734 0.0
C1835 C 0.69405 0.78994 0.11146 0.0
C1836 C 0.69883 0.76763 0.09471 0.0
C1837 C 0.68191 0.75905 0.08579 0.0
C1838 C 0.67157 0.76676 0.08883 0.0
C1839 C 0.67753 0.78195 0.10166 0.0
H1840 H 0.30659 0.9745 0.05298 0.0
H1841 H 0.27693 0.92641 0.01519 0.0
H1842 H 0.28426 0.96353 0.07952 0.0
H1843 H 0.25479 0.91527 0.04201 0.0
H1844 H 0.21006 0.90919 0.0813 0.0
H1845 H 0.23275 0.92096 0.05532 0.0
H1846 H 0.27145 0.94146 0.10638 0.0
H1847 H 0.24867 0.93036 0.13245 0.0
C1848 C 0.29538 0.96152 0.05042 0.0
C1849 C 0.2935 0.95135 0.03193 0.0
C1850 C 0.28261 0.95521 0.06569 0.0
C1851 C 0.26771 0.93857 0.06284 0.0
C1852 C 0.26598 0.92828 0.04451 0.0
C1853 C 0.27872 0.93461 0.0292 0.0
C1854 C 0.22339 0.91649 0.08701 0.0
C1855 C 0.22755 0.9189 0.10896 0.0
C1856 C 0.23641 0.923 0.0721 0.0
C1857 C 0.25391 0.93202 0.07877 0.0
C1858 C 0.25809 0.93467 0.10072 0.0
C1859 C 0.24504 0.92817 0.11566 0.0
H1860 H 0.3575 0.05835 0.97705 0.0
H1861 H 0.30741 0.011 0.97542 0.0
H1862 H 0.34451 0.0746 0.96212 0.0
H1863 H 0.29447 0.02727 0.96008 0.0
H1864 H 0.31433 0.10089 0.9429 0.0
H1865 H 0.32164 0.08425 0.96739 0.0
H1866 H 0.3006 0.04043 0.92199 0.0
H1867 H 0.29389 0.05724 0.89705 0.0
C1868 C 0.34364 0.05156 0.97408 0.0
C1869 C 0.33349 0.03342 0.97725 0.0
C1870 C 0.3362 0.06085 0.96557 0.0
C1871 C 0.31853 0.05211 0.95976 0.0
C1872 C 0.30814 0.03425 0.96433 0.0
C1873 C 0.31553 0.02501 0.97325 0.0
C1874 C 0.31126 0.08771 0.93808 0.0
C1875 C 0.30383 0.08055 0.91778 0.0
C1876 C 0.31529 0.07816 0.95222 0.0
C1877 C 0.31169 0.06111 0.94655 0.0
C1878 C 0.30331 0.0535 0.92685 0.0
C1879 C 0.29948 0.06314 0.91256 0.0
H1880 H 0.98465 0.27846 0.96637 0.0
H1881 H 0.94179 0.28806 0.96779 0.0
H1882 H 0.96479 0.24781 0.95496 0.0
H1883 H 0.92202 0.25748 0.95673 0.0
H1884 H 0.92672 0.20922 0.89946 0.0
H1885 H 0.94739 0.23596 0.91915 0.0
H1886 H 0.90991 0.22532 0.96751 0.0
H1887 H 0.88934 0.19807 0.94837 0.0
C1888 C 0.97095 0.27391 0.96482 0.0
C1889 C 0.96478 0.28567 0.96784 0.0
C1890 C 0.95963 0.25642 0.95816 0.0
C1891 C 0.9419 0.25032 0.95486 0.0
C1892 C 0.9356 0.26179 0.95928 0.0
C1893 C 0.94693 0.27931 0.96553 0.0
C1894 C 0.92297 0.21222 0.91459 0.0
C1895 C 0.90622 0.20147 0.92216 0.0
C1896 C 0.93486 0.2276 0.92586 0.0
C1897 C 0.93022 0.23273 0.94481 0.0
C1898 C 0.91375 0.22173 0.95283 0.0
C1899 C 0.90194 0.2062 0.94174 0.0
H1900 H 0.73177 0.70473 0.02648 0.0
H1901 H 0.69536 0.66941 0.97798 0.0
H1902 H 0.75514 0.71398 0.00147 0.0
H1903 H 0.71883 0.67864 0.95302 0.0
H1904 H 0.76421 0.71052 0.90902 0.0
H1905 H 0.7407 0.70471 0.93306 0.0
H1906 H 0.7695 0.69888 0.98497 0.0
H1907 H 0.79297 0.70489 0.96113 0.0
C1908 C 0.72872 0.69902 0.01045 0.0
C1909 C 0.71173 0.68621 0.00428 0.0
C1910 C 0.74212 0.70429 0.99616 0.0
C1911 C 0.73882 0.69694 0.97535 0.0
C1912 C 0.72174 0.68461 0.96891 0.0
C1913 C 0.70832 0.67926 0.98325 0.0
C1914 C 0.76554 0.70818 0.92563 0.0
C1915 C 0.78034 0.70806 0.93321 0.0
C1916 C 0.75206 0.70474 0.93932 0.0
C1917 C 0.75328 0.70135 0.96088 0.0
C1918 C 0.76827 0.70162 0.9685 0.0
C1919 C 0.78162 0.70488 0.95481 0.0
H1920 H 0.93082 0.65233 0.99692 0.0
H1921 H 0.97945 0.69462 0.97566 0.0
H1922 H 0.9153 0.66175 0.97351 0.0
H1923 H 0.96381 0.70396 0.95192 0.0
H1924 H 0.92773 0.72642 0.93387 0.0
H1925 H 0.94508 0.71724 0.95452 0.0
H1926 H 0.9096 0.66306 0.93559 0.0
H1927 H 0.89235 0.6722 0.91494 0.0
C1928 C 0.93822 0.66358 0.98715 0.0
C1929 C 0.95639 0.67272 0.98819 0.0
C1930 C 0.9293 0.66892 0.9736 0.0
C1931 C 0.93831 0.68358 0.96079 0.0
C1932 C 0.9565 0.6927 0.96172 0.0
C1933 C 0.96545 0.68729 0.97523 0.0
C1934 C 0.92378 0.71259 0.93386 0.0
C1935 C 0.90853 0.70003 0.92294 0.0
C1936 C 0.93373 0.70732 0.94569 0.0
C1937 C 0.92862 0.6894 0.94688 0.0
C1938 C 0.9137 0.67693 0.93537 0.0
C1939 C 0.9038 0.68218 0.92355 0.0
H1940 H 0.35916 0.29615 0.9592 0.0
H1941 H 0.30838 0.29065 0.9595 0.0
H1942 H 0.34644 0.26557 0.94653 0.0
H1943 H 0.29569 0.26007 0.94627 0.0
H1944 H 0.29316 0.22186 0.88794 0.0
H1945 H 0.30089 0.2488 0.90848 0.0
H1946 H 0.32383 0.23316 0.95807 0.0
H1947 H 0.3154 0.20577 0.93819 0.0
C1948 C 0.34525 0.28829 0.95691 0.0
C1949 C 0.33475 0.29574 0.96029 0.0
C1950 C 0.33798 0.27081 0.94973 0.0
C1951 C 0.32012 0.26056 0.94537 0.0
C1952 C 0.3095 0.26777 0.9495 0.0
C1953 C 0.31675 0.28518 0.95718 0.0
C1954 C 0.29938 0.22385 0.90349 0.0
C1955 C 0.30386 0.21169 0.91122 0.0
C1956 C 0.30383 0.23932 0.91521 0.0
C1957 C 0.31302 0.24303 0.93475 0.0
C1958 C 0.31687 0.23062 0.94293 0.0
C1959 C 0.31217 0.21503 0.93142 0.0
H1960 H 0.70202 0.01709 0.98235 0.0
H1961 H 0.69641 0.06282 0.97561 0.0
H1962 H 0.72373 0.02777 0.95492 0.0
H1963 H 0.71852 0.07386 0.94898 0.0
H1964 H 0.74892 0.08465 0.89029 0.0
H1965 H 0.72457 0.06973 0.91377 0.0
H1966 H 0.75268 0.04981 0.94916 0.0
H1967 H 0.77665 0.06416 0.92495 0.0
C1968 C 0.70549 0.02946 0.97508 0.0
C1969 C 0.69751 0.03911 0.98114 0.0
C1970 C 0.71799 0.03563 0.95942 0.0
C1971 C 0.72289 0.05167 0.94962 0.0
C1972 C 0.71484 0.06127 0.95576 0.0
C1973 C 0.70223 0.05501 0.9712 0.0
C1974 C 0.7497 0.07683 0.90291 0.0
C1975 C 0.76461 0.07557 0.90592 0.0
C1976 C 0.73585 0.06841 0.91649 0.0
C1977 C 0.73673 0.05879 0.93364 0.0
C1978 C 0.75143 0.05694 0.93604 0.0
C1979 C 0.76519 0.06518 0.92222 0.0
H1980 H 0.68379 0.97433 0.0402 0.0
H1981 H 0.63473 0.94103 0.06916 0.0
H1982 H 0.69495 0.95624 0.05459 0.0
H1983 H 0.64599 0.92351 0.08405 0.0
H1984 H 0.66643 0.88937 0.10364 0.0
H1985 H 0.65592 0.90346 0.07935 0.0
H1986 H 0.70387 0.95272 0.0894 0.0
H1987 H 0.71455 0.93829 0.11302 0.0
C1988 C 0.67529 0.96301 0.04932 0.0
C1989 C 0.65843 0.95929 0.05376 0.0
C1990 C 0.68174 0.95274 0.05774 0.0
C1991 C 0.67148 0.93856 0.07075 0.0
C1992 C 0.65427 0.9342 0.07396 0.0
C1993 C 0.64781 0.94437 0.0655 0.0
C1994 C 0.67475 0.90317 0.10044 0.0
C1995 C 0.69118 0.91284 0.11037 0.0
C1996 C 0.66874 0.91126 0.08656 0.0
C1997 C 0.67894 0.9293 0.0826 0.0
C1998 C 0.69573 0.93877 0.09185 0.0
C1999 C 0.70183 0.93057 0.10551 0.0
H2000 H 0.06762 0.71987 0.04715 0.0
H2001 H 0.02194 0.72483 0.04732 0.0
H2002 H 0.08486 0.75002 0.06152 0.0
H2003 H 0.03919 0.75489 0.06221 0.0
H2004 H 0.1122 0.80926 0.07782 0.0
H2005 H 0.09434 0.78353 0.05414 0.0
H2006 H 0.05459 0.763 0.10096 0.0
H2007 H 0.07262 0.78842 0.12477 0.0
C2008 C 0.06136 0.72756 0.04977 0.0
C2009 C 0.04343 0.71998 0.04621 0.0
C2010 C 0.07123 0.74481 0.05793 0.0
C2011 C 0.0633 0.75468 0.06308 0.0
C2012 C 0.04557 0.74749 0.0584 0.0
C2013 C 0.03575 0.73035 0.04977 0.0
C2014 C 0.09949 0.79937 0.08278 0.0
C2015 C 0.0937 0.8007 0.10302 0.0
C2016 C 0.08934 0.7847 0.06931 0.0
C2017 C 0.07309 0.77138 0.07572 0.0
C2018 C 0.06697 0.7732 0.09554 0.0
C2019 C 0.07728 0.78765 0.10917 0.0
H2020 H 0.30551 0.32608 0.0415 0.0
H2021 H 0.28528 0.35486 0.00835 0.0
H2022 H 0.28262 0.31693 0.06734 0.0
H2023 H 0.26266 0.34593 0.03428 0.0
H2024 H 0.21337 0.31007 0.06855 0.0
H2025 H 0.2367 0.31878 0.0437 0.0
H2026 H 0.27261 0.32901 0.09623 0.0
H2027 H 0.24905 0.31972 0.12117 0.0
C2028 C 0.29625 0.33053 0.03979 0.0
C2029 C 0.29716 0.34112 0.0228 0.0
C2030 C 0.2832 0.32535 0.05465 0.0
C2031 C 0.27078 0.33062 0.05277 0.0
C2032 C 0.27187 0.34142 0.03596 0.0
C2033 C 0.2849 0.34661 0.02116 0.0
C2034 C 0.22619 0.31394 0.0748 0.0
C2035 C 0.22935 0.31415 0.09683 0.0
C2036 C 0.2396 0.31915 0.06058 0.0
C2037 C 0.25652 0.32469 0.06801 0.0
C2038 C 0.25969 0.32471 0.09001 0.0
C2039 C 0.24624 0.31954 0.10429 0.0
H2040 H 0.70103 0.65899 0.38719 0.0
H2041 H 0.70173 0.62535 0.33651 0.0
H2042 H 0.71853 0.65126 0.40989 0.0
H2043 H 0.71898 0.61753 0.35923 0.0
H2044 H 0.76856 0.62753 0.39458 0.0
H2045 H 0.74881 0.63299 0.37334 0.0
H2046 H 0.71855 0.62671 0.42887 0.0
H2047 H 0.73864 0.62163 0.45033 0.0
C2048 C 0.70474 0.64981 0.38097 0.0
C2049 C 0.70009 0.64291 0.35996 0.0
C2050 C 0.7147 0.64532 0.39402 0.0
C2051 C 0.72028 0.6339 0.3863 0.0
C2052 C 0.71515 0.62659 0.36554 0.0
C2053 C 0.70517 0.63102 0.35255 0.0
C2054 C 0.75774 0.62738 0.40229 0.0
C2055 C 0.75521 0.62422 0.42416 0.0
C2056 C 0.7463 0.63032 0.39007 0.0
C2057 C 0.73207 0.63024 0.3994 0.0
C2058 C 0.72945 0.62698 0.42125 0.0
C2059 C 0.74086 0.62391 0.43348 0.0
H2060 H 0.30933 0.04247 0.40747 0.0
H2061 H 0.35875 0.05235 0.38491 0.0
H2062 H 0.32217 0.07291 0.41924 0.0
H2063 H 0.37164 0.08332 0.39617 0.0
H2064 H 0.39016 0.12618 0.45193 0.0
H2065 H 0.37949 0.09917 0.43002 0.0
H2066 H 0.33469 0.10273 0.41089 0.0
H2067 H 0.34506 0.12915 0.43363 0.0
C2068 C 0.32289 0.05125 0.40456 0.0
C2069 C 0.33305 0.04487 0.39551 0.0
C2070 C 0.33027 0.06884 0.41117 0.0
C2071 C 0.34801 0.08063 0.4088 0.0
C2072 C 0.35799 0.07453 0.39853 0.0
C2073 C 0.35057 0.05682 0.39191 0.0
C2074 C 0.3782 0.12126 0.44269 0.0
C2075 C 0.36826 0.12946 0.44457 0.0
C2076 C 0.37212 0.10588 0.43004 0.0
C2077 C 0.35608 0.0986 0.41889 0.0
C2078 C 0.34686 0.1077 0.41964 0.0
C2079 C 0.35281 0.12285 0.43254 0.0
H2080 H 0.95589 0.30189 0.3609 0.0
H2081 H 0.98563 0.28457 0.39752 0.0
H2082 H 0.93297 0.28913 0.38648 0.0
H2083 H 0.96282 0.27218 0.42349 0.0
H2084 H 0.90872 0.23204 0.44697 0.0
H2085 H 0.93377 0.24745 0.42475 0.0
H2086 H 0.92515 0.29159 0.4224 0.0
H2087 H 0.89991 0.27601 0.44447 0.0
C2088 C 0.95765 0.29556 0.37457 0.0
C2089 C 0.97253 0.29412 0.37708 0.0
C2090 C 0.94453 0.28834 0.38933 0.0
C2091 C 0.94602 0.27957 0.40701 0.0
C2092 C 0.96115 0.27861 0.40986 0.0
C2093 C 0.97426 0.28579 0.39504 0.0
C2094 C 0.91233 0.24514 0.44197 0.0
C2095 C 0.90232 0.2528 0.4474 0.0
C2096 C 0.92671 0.254 0.42926 0.0
C2097 C 0.93146 0.27075 0.42176 0.0
C2098 C 0.92168 0.27859 0.42763 0.0
C2099 C 0.90724 0.26969 0.44027 0.0
H2100 H 0.03213 0.38733 0.28606 0.0
H2101 H 0.98095 0.35336 0.30942 0.0
H2102 H 0.02279 0.40674 0.27214 0.0
H2103 H 0.97166 0.37331 0.29598 0.0
H2104 H 0.95772 0.39569 0.23624 0.0
H2105 H 0.96556 0.37936 0.26067 0.0
H2106 H 0.01335 0.42717 0.27751 0.0
H2107 H 0.00573 0.44318 0.2524 0.0
C2108 C 0.01896 0.38423 0.28872 0.0
C2109 C 0.00721 0.36861 0.29852 0.0
C2110 C 0.01362 0.39549 0.28086 0.0
C2111 C 0.99639 0.39151 0.28271 0.0
C2112 C 0.98494 0.37658 0.29396 0.0
C2113 C 0.99031 0.36524 0.30184 0.0
C2114 C 0.96975 0.40267 0.24545 0.0
C2115 C 0.98129 0.42055 0.24223 0.0
C2116 C 0.97422 0.39339 0.25957 0.0
C2117 C 0.99021 0.40191 0.27089 0.0
C2118 C 0.00113 0.42011 0.26869 0.0
C2119 C 0.99679 0.42929 0.25436 0.0
H2120 H 0.64036 0.61003 0.31851 0.0
H2121 H 0.6055 0.62577 0.29189 0.0
H2122 H 0.62047 0.57964 0.30632 0.0
H2123 H 0.58618 0.59593 0.2792 0.0
H2124 H 0.5485 0.54016 0.26567 0.0
H2125 H 0.56633 0.56678 0.28741 0.0
H2126 H 0.61165 0.56326 0.27293 0.0
H2127 H 0.59351 0.53612 0.25193 0.0
C2128 C 0.62838 0.607 0.31035 0.0
C2129 C 0.62462 0.6204 0.30606 0.0
C2130 C 0.61705 0.58961 0.30319 0.0
C2131 C 0.60172 0.58528 0.29164 0.0
C2132 C 0.59767 0.59859 0.28828 0.0
C2133 C 0.6089 0.61585 0.29545 0.0
C2134 C 0.56225 0.54499 0.26743 0.0
C2135 C 0.5697 0.53627 0.25697 0.0
C2136 C 0.5725 0.56027 0.2798 0.0
C2137 C 0.59052 0.56741 0.28166 0.0
C2138 C 0.59783 0.55812 0.27204 0.0
C2139 C 0.58748 0.54263 0.25991 0.0
H2140 H 0.36958 0.01648 0.32324 0.0
H2141 H 0.37321 0.97167 0.34339 0.0
H2142 H 0.39194 0.02295 0.29724 0.0
H2143 H 0.39514 0.97789 0.31725 0.0
H2144 H 0.44754 0.00538 0.28725 0.0
H2145 H 0.42499 -0.00019 0.31226 0.0
H2146 H 0.39771 0.01172 0.26405 0.0
H2147 H 0.42049 0.01743 0.23893 0.0
C2148 C 0.37506 0.00796 0.32204 0.0
C2149 C 0.36971 0.99364 0.3355 0.0
C2150 C 0.3878 0.01161 0.30707 0.0
C2151 C 0.39543 0.00102 0.3053 0.0
C2152 C 0.38979 0.98652 0.31849 0.0
C2153 C 0.37713 0.9829 0.33342 0.0
C2154 C 0.43667 0.00668 0.28191 0.0
C2155 C 0.4357 0.01165 0.26104 0.0
C2156 C 0.42373 0.00349 0.29625 0.0
C2157 C 0.40945 0.00514 0.29009 0.0
C2158 C 0.40862 0.01046 0.26934 0.0
C2159 C 0.42163 0.01371 0.25495 0.0
H2160 H 0.63179 0.99758 0.30364 0.0
H2161 H 0.62492 0.03054 0.34982 0.0
H2162 H 0.61363 0.00192 0.27788 0.0
H2163 H 0.60657 0.03459 0.32428 0.0
H2164 H 0.58543 0.05028 0.26821 0.0
H2165 H 0.60656 0.04804 0.29096 0.0
H2166 H 0.58319 0.99289 0.27307 0.0
H2167 H 0.5625 0.99529 0.24972 0.0
C2168 C 0.62649 0.00582 0.30827 0.0
C2169 C 0.62977 0.01366 0.32883 0.0
C2170 C 0.616 0.00822 0.29354 0.0
C2171 C 0.60858 0.01855 0.29903 0.0
C2172 C 0.61223 0.02673 0.31942 0.0
C2173 C 0.62268 0.02431 0.33413 0.0
C2174 C 0.58497 0.03775 0.26887 0.0
C2175 C 0.57221 0.02295 0.2572 0.0
C2176 C 0.59697 0.03642 0.28209 0.0
C2177 C 0.59654 0.02027 0.28394 0.0
C2178 C 0.58402 0.00557 0.2719 0.0
C2179 C 0.57201 0.00689 0.2587 0.0
H2180 H 0.03597 0.63441 0.2804 0.0
H2181 H 0.98577 0.61656 0.30708 0.0
H2182 H 0.02613 0.6052 0.26561 0.0
H2183 H 0.976 0.58686 0.29273 0.0
H2184 H 0.95984 0.54685 0.23452 0.0
H2185 H 0.96855 0.57278 0.25779 0.0
H2186 H 0.01741 0.57552 0.27147 0.0
H2187 H 0.00889 0.55012 0.24757 0.0
C2188 C 0.02291 0.62414 0.28354 0.0
C2189 C 0.0116 0.62792 0.29472 0.0
C2190 C 0.01728 0.60727 0.27515 0.0
C2191 C 0.0002 0.59364 0.27783 0.0
C2192 C 0.98915 0.59713 0.29008 0.0
C2193 C 0.9948 0.61411 0.29848 0.0
C2194 C 0.97233 0.55292 0.24277 0.0
C2195 C 0.98383 0.54676 0.23902 0.0
C2196 C 0.9773 0.5677 0.2562 0.0
C2197 C 0.9938 0.5764 0.26632 0.0
C2198 C 0.0048 0.56943 0.26354 0.0
C2199 C -7e-05 0.55487 0.24991 0.0
H2200 H 0.36346 0.35141 0.30583 0.0
H2201 H 0.39256 0.40035 0.34223 0.0
H2202 H 0.38632 0.36181 0.27986 0.0
H2203 H 0.41515 0.41083 0.31611 0.0
H2204 H 0.46022 0.41826 0.27778 0.0
H2205 H 0.43751 0.40526 0.30362 0.0
H2206 H 0.39898 0.38379 0.25242 0.0
H2207 H 0.42181 0.39618 0.22644 0.0
C2208 C 0.3747 0.3644 0.30826 0.0
C2209 C 0.37621 0.37505 0.32611 0.0
C2210 C 0.38776 0.37037 0.29333 0.0
C2211 C 0.40258 0.38711 0.29596 0.0
C2212 C 0.40404 0.39775 0.3138 0.0
C2213 C 0.39102 0.39178 0.32871 0.0
C2214 C 0.44694 0.41045 0.27198 0.0
C2215 C 0.44283 0.40827 0.25002 0.0
C2216 C 0.4339 0.4032 0.28682 0.0
C2217 C 0.41643 0.39366 0.28009 0.0
C2218 C 0.41232 0.39101 0.25813 0.0
C2219 C 0.42539 0.39825 0.24325 0.0
H2220 H 0.3524 0.31047 0.3749 0.0
H2221 H 0.3035 0.27753 0.4044 0.0
H2222 H 0.36371 0.29269 0.3899 0.0
H2223 H 0.3149 0.26031 0.41983 0.0
H2224 H 0.33544 0.22607 0.43908 0.0
H2225 H 0.32485 0.24014 0.41486 0.0
H2226 H 0.37259 0.28953 0.42517 0.0
H2227 H 0.38333 0.27519 0.44884 0.0
C2228 C 0.34397 0.29929 0.38428 0.0
C2229 C 0.32711 0.29557 0.38866 0.0
C2230 C 0.35051 0.2892 0.39303 0.0
C2231 C 0.3403 0.27519 0.40628 0.0
C2232 C 0.32311 0.27086 0.40954 0.0
C2233 C 0.31659 0.28087 0.40078 0.0
C2234 C 0.34368 0.23991 0.436 0.0
C2235 C 0.36008 0.24964 0.44602 0.0
C2236 C 0.33764 0.24797 0.42215 0.0
C2237 C 0.34777 0.26602 0.41825 0.0
C2238 C 0.36451 0.27557 0.4276 0.0
C2239 C 0.37064 0.26742 0.44127 0.0
H2240 H 0.7302 0.04509 0.38646 0.0
H2241 H 0.68601 0.05257 0.38556 0.0
H2242 H 0.74882 0.07578 0.39816 0.0
H2243 H 0.70468 0.08328 0.3978 0.0
H2244 H 0.77913 0.13555 0.40865 0.0
H2245 H 0.75968 0.10871 0.38751 0.0
H2246 H 0.72114 0.09375 0.43554 0.0
H2247 H 0.7407 0.1203 0.4568 0.0
C2248 C 0.72455 0.05342 0.38832 0.0
C2249 C 0.70667 0.04644 0.3852 0.0
C2250 C 0.73522 0.07099 0.39493 0.0
C2251 C 0.72815 0.08184 0.39897 0.0
C2252 C 0.71041 0.07514 0.39482 0.0
C2253 C 0.69977 0.05763 0.38772 0.0
C2254 C 0.76636 0.12665 0.41441 0.0
C2255 C 0.76135 0.12987 0.43431 0.0
C2256 C 0.7553 0.11134 0.40239 0.0
C2257 C 0.73892 0.09923 0.40988 0.0
C2258 C 0.73361 0.10296 0.42928 0.0
C2259 C 0.7448 0.11806 0.44148 0.0
H2260 H 0.93871 0.62652 0.32977 0.0
H2261 H 0.97425 0.66171 0.37903 0.0
H2262 H 0.9148 0.61758 0.35386 0.0
H2263 H 0.95026 0.65288 0.40303 0.0
H2264 H 0.90407 0.62271 0.44586 0.0
H2265 H 0.92789 0.62775 0.42287 0.0
H2266 H 0.90013 0.63259 0.36896 0.0
H2267 H 0.87626 0.62719 0.39177 0.0
C2268 C 0.94146 0.63225 0.34578 0.0
C2269 C 0.95837 0.64495 0.35241 0.0
C2270 C 0.92774 0.62718 0.35954 0.0
C2271 C 0.93063 0.63464 0.38027 0.0
C2272 C 0.94764 0.6468 0.3872 0.0
C2273 C 0.96137 0.65193 0.3734 0.0
C2274 C 0.90301 0.62464 0.42905 0.0
C2275 C 0.88836 0.62465 0.42062 0.0
C2276 C 0.91668 0.62766 0.41594 0.0
C2277 C 0.91587 0.63056 0.39412 0.0
C2278 C 0.90106 0.6302 0.38566 0.0
C2279 C 0.88748 0.62732 0.39876 0.0
H2280 H 0.36971 0.96244 0.68322 0.0
H2281 H 0.37445 0.00513 0.72362 0.0
H2282 H 0.38856 0.95826 0.70783 0.0
H2283 H 0.39318 0.00077 0.74842 0.0
H2284 H 0.44449 0.00331 0.76878 0.0
H2285 H 0.42282 0.00578 0.7476 0.0
H2286 H 0.39109 0.94914 0.74376 0.0
H2287 H 0.41271 0.94662 0.7652 0.0
C2288 C 0.37457 0.97078 0.69751 0.0
C2289 C 0.37065 0.98421 0.70136 0.0
C2290 C 0.38532 0.96832 0.71169 0.0
C2291 C 0.39249 0.97926 0.73003 0.0
C2292 C 0.38807 0.99228 0.73428 0.0
C2293 C 0.37723 0.99469 0.72014 0.0
C2294 C 0.43278 0.99136 0.76372 0.0
C2295 C 0.43039 0.97476 0.76871 0.0
C2296 C 0.42034 0.99279 0.75157 0.0
C2297 C 0.4052 0.97766 0.744 0.0
C2298 C 0.4027 0.96105 0.74914 0.0
C2299 C 0.41513 0.95962 0.76137 0.0
H2300 H 0.02596 0.37837 0.72596 0.0
H2301 H 0.97349 0.36795 0.73037 0.0
H2302 H 0.03675 0.40875 0.73877 0.0
H2303 H 0.98432 0.39836 0.74265 0.0
H2304 H 0.01162 0.45844 0.75233 0.0
H2305 H 0.00425 0.43159 0.73123 0.0
H2306 H 0.03174 0.41837 0.77757 0.0
H2307 H 0.03867 0.44494 0.79884 0.0
C2308 C 0.01677 0.38271 0.72905 0.0
C2309 C 0.99889 0.3708 0.72733 0.0
C2310 C 0.02295 0.40003 0.73646 0.0
C2311 C 0.01134 0.40579 0.74174 0.0
C2312 C 0.99352 0.39424 0.73856 0.0
C2313 C 0.98734 0.37685 0.73162 0.0
C2314 C 0.01627 0.44988 0.75772 0.0
C2315 C 0.02568 0.45359 0.77707 0.0
C2316 C 0.01206 0.43459 0.74574 0.0
C2317 C 0.01753 0.42303 0.75276 0.0
C2318 C 0.02758 0.4272 0.77169 0.0
C2319 C 0.03147 0.44228 0.78388 0.0
H2320 H 0.64793 0.65112 0.71606 0.0
H2321 H 0.6327 0.59848 0.69302 0.0
H2322 H 0.6232 0.63907 0.73947 0.0
H2323 H 0.6083 0.58654 0.71653 0.0
H2324 H 0.55586 0.57221 0.74015 0.0
H2325 H 0.58098 0.58653 0.71788 0.0
H2326 H 0.61119 0.62052 0.77122 0.0
H2327 H 0.58582 0.60614 0.79361 0.0
C2328 C 0.63941 0.63699 0.71612 0.0
C2329 C 0.64219 0.62576 0.70255 0.0
C2330 C 0.6253 0.63011 0.72957 0.0
C2331 C 0.61369 0.61188 0.72963 0.0
C2332 C 0.6168 0.60067 0.71651 0.0
C2333 C 0.63086 0.60752 0.70312 0.0
C2334 C 0.56785 0.58277 0.74711 0.0
C2335 C 0.56897 0.58791 0.76867 0.0
C2336 C 0.58225 0.59094 0.73439 0.0
C2337 C 0.59815 0.60442 0.74291 0.0
C2338 C 0.5991 0.61016 0.76422 0.0
C2339 C 0.5846 0.60197 0.77701 0.0
H2340 H 0.69998 0.71934 0.61073 0.0
H2341 H 0.6586 0.69136 0.65445 0.0
H2342 H 0.68415 0.73233 0.5951 0.0
H2343 H 0.64287 0.70482 0.63875 0.0
H2344 H 0.63601 0.7533 0.61277 0.0
H2345 H 0.64852 0.73829 0.63248 0.0
H2346 H 0.65377 0.7157 0.57338 0.0
H2347 H 0.64123 0.73054 0.55372 0.0
C2348 C 0.68765 0.71616 0.61729 0.0
C2349 C 0.68049 0.70412 0.63373 0.0
C2350 C 0.67855 0.72353 0.60819 0.0
C2351 C 0.66221 0.71926 0.61549 0.0
C2352 C 0.65543 0.70816 0.6328 0.0
C2353 C 0.66446 0.70053 0.64177 0.0
C2354 C 0.63952 0.74482 0.6041 0.0
C2355 C 0.63774 0.7431 0.58174 0.0
C2356 C 0.6466 0.73624 0.61536 0.0
C2357 C 0.65224 0.72608 0.60434 0.0
C2358 C 0.64962 0.72362 0.58214 0.0
C2359 C 0.64232 0.73196 0.57095 0.0
H2360 H 0.31058 0.94841 0.65233 0.0
H2361 H 0.27728 0.96654 0.62687 0.0
H2362 H 0.28845 0.91801 0.6428 0.0
H2363 H 0.25561 0.93659 0.61703 0.0
H2364 H 0.21423 0.88139 0.60995 0.0
H2365 H 0.2349 0.90839 0.62933 0.0
H2366 H 0.27668 0.90045 0.60969 0.0
H2367 H 0.25581 0.87311 0.59078 0.0
C2368 C 0.29847 0.94591 0.64502 0.0
C2369 C 0.29577 0.95993 0.64022 0.0
C2370 C 0.28586 0.92852 0.63941 0.0
C2371 C 0.27025 0.92482 0.62908 0.0
C2372 C 0.26732 0.93883 0.62522 0.0
C2373 C 0.27987 0.95611 0.63072 0.0
C2374 C 0.22781 0.88531 0.61006 0.0
C2375 C 0.23347 0.87531 0.59864 0.0
C2376 C 0.23967 0.90079 0.6211 0.0
C2377 C 0.2575 0.90678 0.62077 0.0
C2378 C 0.26304 0.89619 0.61042 0.0
C2379 C 0.25112 0.88056 0.59951 0.0
H2380 H 0.02484 0.32305 0.64412 0.0
H2381 H 0.06415 0.36842 0.68007 0.0
H2382 H 0.04534 0.32835 0.61615 0.0
H2383 H 0.08471 0.37355 0.65218 0.0
H2384 H 0.11314 0.38565 0.5893 0.0
H2385 H 0.09121 0.38193 0.6147 0.0
H2386 H 0.07136 0.32583 0.61309 0.0
H2387 H 0.09329 0.32952 0.58796 0.0
C2388 C 0.03782 0.33421 0.64602 0.0
C2389 C 0.0429 0.34524 0.66441 0.0
C2390 C 0.04959 0.33719 0.63003 0.0
C2391 C 0.06668 0.35129 0.63203 0.0
C2392 C 0.0716 0.36266 0.65009 0.0
C2393 C 0.05983 0.35966 0.66613 0.0
C2394 C 0.10412 0.37253 0.59442 0.0
C2395 C 0.10498 0.35788 0.58659 0.0
C2396 C 0.09155 0.37041 0.60894 0.0
C2397 C 0.07954 0.35359 0.61587 0.0
C2398 C 0.08024 0.33894 0.60779 0.0
C2399 C 0.09281 0.34106 0.59335 0.0
H2400 H 0.30537 0.35006 0.64067 0.0
H2401 H 0.25959 0.32465 0.67831 0.0
H2402 H 0.29029 0.35931 0.61589 0.0
H2403 H 0.2445 0.33347 0.65347 0.0
H2404 H 0.22635 0.36515 0.61778 0.0
H2405 H 0.24388 0.35906 0.6423 0.0
H2406 H 0.26707 0.34759 0.58905 0.0
H2407 H 0.25012 0.35455 0.56446 0.0
C2408 C 0.29209 0.34638 0.64361 0.0
C2409 C 0.28371 0.33665 0.66151 0.0
C2410 C 0.28342 0.35163 0.62938 0.0
C2411 C 0.2662 0.34725 0.63274 0.0
C2412 C 0.25785 0.33741 0.65058 0.0
C2413 C 0.26649 0.33222 0.66477 0.0
C2414 C 0.23544 0.3617 0.61125 0.0
C2415 C 0.23674 0.36028 0.5891 0.0
C2416 C 0.24533 0.35795 0.62534 0.0
C2417 C 0.25675 0.35261 0.61768 0.0
C2418 C 0.25848 0.35174 0.59553 0.0
C2419 C 0.2486 0.35553 0.58142 0.0
H2420 H 0.65239 0.95538 0.64047 0.0
H2421 H 0.69343 0.97275 0.59529 0.0
H2422 H 0.64062 0.92502 0.62699 0.0
H2423 H 0.68155 0.94265 0.58191 0.0
H2424 H 0.64204 0.89338 0.54428 0.0
H2425 H 0.65271 0.9224 0.5612 0.0
H2426 H 0.64962 0.90058 0.62304 0.0
H2427 H 0.6389 0.87139 0.60606 0.0
C2428 C 0.65904 0.95274 0.62793 0.0
C2429 C 0.67377 0.96657 0.61884 0.0
C2430 C 0.65228 0.93538 0.62023 0.0
C2431 C 0.66003 0.93161 0.60318 0.0
C2432 C 0.67516 0.94527 0.59481 0.0
C2433 C 0.68202 0.96252 0.60261 0.0
C2434 C 0.64334 0.89471 0.5615 0.0
C2435 C 0.63968 0.88017 0.57387 0.0
C2436 C 0.6496 0.91132 0.57116 0.0
C2437 C 0.65213 0.9137 0.59338 0.0
C2438 C 0.64777 0.89905 0.60587 0.0
C2439 C 0.64172 0.88243 0.59617 0.0
H2440 H 0.05141 0.6909 0.67472 0.0
H2441 H 0.01598 0.69793 0.63415 0.0
H2442 H 0.07419 0.70595 0.6492 0.0
H2443 H 0.03869 0.71272 0.60853 0.0
H2444 H 0.08937 0.75945 0.58584 0.0
H2445 H 0.06545 0.74129 0.60848 0.0
H2446 H 0.08344 0.70406 0.61282 0.0
H2447 H 0.10744 0.72224 0.58989 0.0
C2448 C 0.04841 0.69546 0.66025 0.0
C2449 C 0.03193 0.69337 0.65658 0.0
C2450 C 0.06145 0.70399 0.64557 0.0
C2451 C 0.05827 0.71065 0.62694 0.0
C2452 C 0.04161 0.70799 0.62291 0.0
C2453 C 0.02858 0.69943 0.63755 0.0
C2454 C 0.08809 0.74724 0.59128 0.0
C2455 C 0.10029 0.74226 0.58596 0.0
C2456 C 0.07437 0.73683 0.60429 0.0
C2457 C 0.0725 0.72119 0.61236 0.0
C2458 C 0.08463 0.71613 0.60699 0.0
C2459 C 0.09837 0.72654 0.59389 0.0
H2460 H 0.00667 0.63887 0.70209 0.0
H2461 H 0.95771 0.60646 0.73173 0.0
H2462 H 0.01708 0.6198 0.71533 0.0
H2463 H 0.96825 0.58801 0.74553 0.0
H2464 H 0.98715 0.55237 0.7637 0.0
H2465 H 0.97713 0.56726 0.73999 0.0
H2466 H 0.02612 0.61549 0.74959 0.0
H2467 H 0.03629 0.60025 0.77256 0.0
C2468 C 0.99803 0.62754 0.7111 0.0
C2469 C 0.98144 0.62435 0.7161 0.0
C2470 C 0.00405 0.6167 0.71886 0.0
C2471 C 0.99362 0.60249 0.73177 0.0
C2472 C 0.97664 0.59869 0.7355 0.0
C2473 C 0.97061 0.60942 0.72769 0.0
C2474 C 0.99579 0.56611 0.7605 0.0
C2475 C 0.01237 0.57527 0.77012 0.0
C2476 C 0.99007 0.57466 0.74696 0.0
C2477 C 0.00071 0.59266 0.74306 0.0
C2478 C 0.01763 0.60159 0.75199 0.0
C2479 C 0.02344 0.59293 0.76528 0.0
H2480 H 0.35067 0.38506 0.72564 0.0
H2481 H 0.39168 0.37363 0.71558 0.0
H2482 H 0.37184 0.41465 0.73907 0.0
H2483 H 0.41296 0.40338 0.72766 0.0
H2484 H 0.44228 0.44453 0.77963 0.0
H2485 H 0.42148 0.41739 0.76107 0.0
H2486 H 0.39547 0.44348 0.73503 0.0
H2487 H 0.41615 0.47063 0.75457 0.0
C2488 C 0.36429 0.38913 0.72561 0.0
C2489 C 0.36958 0.37708 0.7198 0.0
C2490 C 0.37645 0.40608 0.7333 0.0
C2491 C 0.39414 0.41134 0.73498 0.0
C2492 C 0.39943 0.39965 0.72736 0.0
C2493 C 0.38728 0.38265 0.72017 0.0
C2494 C 0.43218 0.44449 0.76982 0.0
C2495 C 0.43088 0.45969 0.76843 0.0
C2496 C 0.42029 0.42894 0.759 0.0
C2497 C 0.40687 0.42821 0.74617 0.0
C2498 C 0.40554 0.44348 0.74483 0.0
C2499 C 0.41737 0.45904 0.75597 0.0
H2500 H 0.60674 0.96136 0.6692 0.0
H2501 H 0.643 0.00644 0.70819 0.0
H2502 H 0.58475 0.95407 0.69581 0.0
H2503 H 0.62094 -0.00061 0.73447 0.0
H2504 H 0.58097 0.97595 0.78517 0.0
H2505 H 0.60318 0.97871 0.76083 0.0
H2506 H 0.56755 0.96681 0.70744 0.0
H2507 H 0.54539 0.96396 0.73174 0.0
C2508 C 0.61007 0.96964 0.68351 0.0
C2509 C 0.62657 0.98457 0.68648 0.0
C2510 C 0.59743 0.96551 0.69869 0.0
C2511 C 0.60103 0.97623 0.71717 0.0
C2512 C 0.61777 0.99075 0.72053 0.0
C2513 C 0.6304 0.99486 0.70538 0.0
C2514 C 0.5779 0.97389 0.76823 0.0
C2515 C 0.56146 0.96982 0.76036 0.0
C2516 C 0.5906 0.97546 0.7543 0.0
C2517 C 0.58715 0.97303 0.73219 0.0
C2518 C 0.57056 0.96849 0.7244 0.0
C2519 C 0.55785 0.96689 0.73832 0.0
loop_
_geom_bond_atom_site_label_1
_geom_bond_atom_site_label_2
_geom_bond_distance
_geom_bond_site_symmetry_2
_ccdc_geom_bond_type
Mg0 O1 2.028 1_556 S
Mg0 O7 1.986 1_455 S
Mg0 O9 2.114 . S
Mg0 O10 2.224 1_455 S
Mg0 O13 2.010 1_556 S
O1 Mg0 2.028 1_554 S
O1 C4 1.250 1_455 S
O2 Mg3 2.028 1_554 S
O2 C4 1.248 . S
Mg3 O2 2.028 1_556 S
Mg3 O8 2.032 . S
Mg3 O10 2.114 . S
C4 O1 1.250 1_655 S
C4 O2 1.248 . S
C5 O6 1.264 . S
C5 O13 1.249 . S
O6 C5 1.264 . S
O7 Mg0 1.986 1_655 S
O7 C11 1.246 . S
O8 Mg3 2.032 . S
O8 C11 1.259 . S
O9 Mg0 2.114 . S
O9 C12 1.252 . S
O10 Mg0 2.224 1_655 S
O10 Mg3 2.114 . S
O10 C12 1.247 1_655 S
C11 O7 1.246 . S
C11 O8 1.259 . S
C12 O9 1.252 . S
C12 O10 1.247 1_455 S
O13 Mg0 2.010 1_554 S
O13 C5 1.249 . S
Mg14 O15 2.028 1_554 S
Mg14 O21 1.986 . S
Mg14 O23 2.114 . S
Mg14 O24 2.251 . S
Mg14 O27 2.010 . S
O15 Mg14 2.028 1_556 S
O15 C18 1.250 . S
O16 Mg17 2.028 . S
O16 C18 1.248 1_554 S
Mg17 O16 2.028 . S
Mg17 O22 2.032 . S
Mg17 O24 2.079 . S
C18 O15 1.250 . S
C18 O16 1.248 1_556 S
C19 O20 1.264 1_556 S
C19 O27 1.249 1_556 S
O20 C19 1.264 1_554 S
O21 Mg14 1.986 . S
O21 C25 1.246 . S
O22 Mg17 2.032 . S
O22 C25 1.259 . S
O23 Mg14 2.114 . S
O23 C26 1.252 . S
O24 Mg14 2.251 . S
O24 Mg17 2.079 . S
O24 C26 1.273 . S
C25 O21 1.246 . S
C25 O22 1.259 . S
C26 O23 1.252 . S
C26 O24 1.273 . S
O27 Mg14 2.010 . S
O27 C19 1.249 1_554 S
Mg28 O29 1.994 1_566 S
Mg28 O35 1.986 1_565 S
Mg28 O37 2.127 . S
Mg28 O38 2.274 1_565 S
Mg28 O41 1.996 1_556 S
O29 Mg28 1.994 1_544 S
O29 C32 1.250 . S
O30 Mg31 2.028 1_554 S
O30 C32 1.248 . S
Mg31 O30 2.028 1_556 S
Mg31 O36 2.032 . S
Mg31 O38 2.079 . S
C32 O29 1.250 . S
C32 O30 1.248 . S
C33 O34 1.264 . S
C33 O41 1.249 . S
O34 C33 1.264 . S
O35 Mg28 1.986 1_545 S
O35 C39 1.250 . S
O36 Mg31 2.032 . S
O36 C39 1.259 . S
O37 Mg28 2.127 . S
O37 C40 1.252 . S
O38 Mg28 2.274 1_545 S
O38 Mg31 2.079 . S
O38 C40 1.273 1_545 S
C39 O35 1.250 . S
C39 O36 1.259 . S
C40 O37 1.252 . S
C40 O38 1.273 1_565 S
O41 Mg28 1.996 1_554 S
O41 C33 1.249 . S
Mg42 O43 2.007 1_654 S
Mg42 O49 1.986 1_655 S
Mg42 O51 2.114 . S
Mg42 O52 2.251 1_655 S
Mg42 O55 2.010 . S
O43 Mg42 2.007 1_456 S
O43 C46 1.300 . S
O44 Mg45 2.026 1_556 S
O44 C46 1.249 . S
Mg45 O44 2.026 1_554 S
Mg45 O50 2.032 . S
Mg45 O52 2.079 . S
C46 O43 1.300 . S
C46 O44 1.249 . S
C47 O48 1.264 . S
C47 O55 1.249 . S
O48 C47 1.264 . S
O49 Mg42 1.986 1_455 S
O49 C53 1.246 . S
O50 Mg45 2.032 . S
O50 C53 1.259 . S
O51 Mg42 2.114 . S
O51 C54 1.252 . S
O52 Mg42 2.251 1_455 S
O52 Mg45 2.079 . S
O52 C54 1.273 1_455 S
C53 O49 1.246 . S
C53 O50 1.259 . S
C54 O51 1.252 . S
C54 O52 1.273 1_655 S
O55 Mg42 2.010 . S
O55 C47 1.249 . S
Mg56 O57 2.049 . S
Mg56 O63 1.985 1_554 S
Mg56 O65 2.106 1_554 S
Mg56 O66 2.237 1_554 S
Mg56 O69 2.021 . S
O57 Mg56 2.049 . S
O57 C60 1.250 . S
O58 Mg59 2.028 1_554 S
O58 C60 1.248 . S
Mg59 O58 2.028 1_556 S
Mg59 O64 2.032 . S
Mg59 O66 2.079 . S
C60 O57 1.250 . S
C60 O58 1.248 . S
C61 O62 1.264 . S
C61 O69 1.249 . S
O62 C61 1.264 . S
O63 Mg56 1.985 1_556 S
O63 C67 1.246 . S
O64 Mg59 2.032 . S
O64 C67 1.259 . S
O65 Mg56 2.106 1_556 S
O65 C68 1.252 . S
O66 Mg56 2.237 1_556 S
O66 Mg59 2.079 . S
O66 C68 1.273 . S
C67 O63 1.246 . S
C67 O64 1.259 . S
C68 O65 1.252 . S
C68 O66 1.273 . S
O69 Mg56 2.021 . S
O69 C61 1.249 . S
Mg70 O71 2.028 1_554 S
Mg70 O77 1.986 1_545 S
Mg70 O79 2.114 . S
Mg70 O80 2.251 1_545 S
Mg70 O83 2.010 . S
O71 Mg70 2.028 1_556 S
O71 C74 1.250 1_545 S
O72 Mg73 2.081 . S
O72 C74 1.214 1_554 S
Mg73 O72 2.081 . S
Mg73 O78 2.032 . S
Mg73 O80 2.079 . S
C74 O71 1.250 1_565 S
C74 O72 1.214 1_556 S
C75 O76 1.264 . S
C75 O83 1.249 . S
O76 C75 1.264 . S
O77 Mg70 1.986 1_565 S
O77 C81 1.246 . S
O78 Mg73 2.032 . S
O78 C81 1.259 . S
O79 Mg70 2.114 . S
O79 C82 1.252 . S
O80 Mg70 2.251 1_565 S
O80 Mg73 2.079 . S
O80 C82 1.273 1_565 S
C81 O77 1.246 . S
C81 O78 1.259 . S
C82 O79 1.252 . S
C82 O80 1.273 1_545 S
O83 Mg70 2.010 . S
O83 C75 1.249 . S
Mg84 O85 2.028 . S
Mg84 O91 1.986 . S
Mg84 O93 2.114 . S
Mg84 O94 2.251 . S
Mg84 O97 2.010 . S
O85 Mg84 2.028 . S
O85 C88 1.250 . S
O86 Mg87 2.028 . S
O86 C88 1.248 . S
Mg87 O86 2.028 . S
Mg87 O92 2.032 . S
Mg87 O94 2.079 . S
C88 O85 1.250 . S
C88 O86 1.248 . S
C89 O90 1.264 . S
C89 O97 1.249 . S
O90 C89 1.264 . S
O91 Mg84 1.986 . S
O91 C95 1.246 . S
O92 Mg87 2.032 . S
O92 C95 1.259 . S
O93 Mg84 2.114 . S
O93 C96 1.252 . S
O94 Mg84 2.251 . S
O94 Mg87 2.079 . S
O94 C96 1.273 . S
C95 O91 1.246 . S
C95 O92 1.259 . S
C96 O93 1.252 . S
C96 O94 1.273 . S
O97 Mg84 2.010 . S
O97 C89 1.249 . S
Mg98 O99 2.028 . S
Mg98 O105 1.986 1_565 S
Mg98 O107 2.114 . S
Mg98 O108 2.251 . S
Mg98 O111 2.010 . S
O99 Mg98 2.028 . S
O99 C102 1.250 . S
O100 Mg101 2.028 . S
O100 C102 1.248 . S
Mg101 O100 2.028 . S
Mg101 O106 2.032 1_565 S
Mg101 O108 2.079 . S
C102 O99 1.250 . S
C102 O100 1.248 . S
C103 O104 1.264 . S
C103 O111 1.249 . S
O104 C103 1.264 . S
O105 Mg98 1.986 1_545 S
O105 C109 1.246 . S
O106 Mg101 2.032 1_545 S
O106 C109 1.259 . S
O107 Mg98 2.114 . S
O107 C110 1.252 . S
O108 Mg98 2.251 . S
O108 Mg101 2.079 . S
O108 C110 1.273 . S
C109 O105 1.246 . S
C109 O106 1.259 . S
C110 O107 1.252 . S
C110 O108 1.273 . S
O111 Mg98 2.010 . S
O111 C103 1.249 . S
Mg112 O113 2.028 . S
Mg112 O119 1.986 . S
Mg112 O121 2.114 . S
Mg112 O122 2.251 . S
Mg112 O125 2.010 1_455 S
O113 Mg112 2.028 . S
O113 C116 1.250 . S
O114 Mg115 2.028 . S
O114 C116 1.248 . S
Mg115 O114 2.028 . S
Mg115 O120 2.032 . S
Mg115 O122 2.079 . S
C116 O113 1.250 . S
C116 O114 1.248 . S
C117 O118 1.264 . S
C117 O125 1.249 . S
O118 C117 1.264 . S
O119 Mg112 1.986 . S
O119 C123 1.246 . S
O120 Mg115 2.032 . S
O120 C123 1.259 . S
O121 Mg112 2.114 . S
O121 C124 1.252 . S
O122 Mg112 2.251 . S
O122 Mg115 2.079 . S
O122 C124 1.273 . S
C123 O119 1.246 . S
C123 O120 1.259 . S
C124 O121 1.252 . S
C124 O122 1.273 . S
O125 Mg112 2.010 1_655 S
O125 C117 1.249 . S
Mg126 O127 2.028 . S
Mg126 O133 1.986 1_565 S
Mg126 O135 2.114 . S
Mg126 O136 2.251 . S
Mg126 O139 2.010 . S
O127 Mg126 2.028 . S
O127 C130 1.250 . S
O128 Mg129 2.028 . S
O128 C130 1.248 . S
Mg129 O128 2.028 . S
Mg129 O134 2.032 1_565 S
Mg129 O136 2.079 . S
C130 O127 1.250 . S
C130 O128 1.248 . S
C131 O132 1.264 . S
C131 O139 1.249 . S
O132 C131 1.264 . S
O133 Mg126 1.986 1_545 S
O133 C137 1.246 . S
O134 Mg129 2.032 1_545 S
O134 C137 1.259 . S
O135 Mg126 2.114 . S
O135 C138 1.252 . S
O136 Mg126 2.251 . S
O136 Mg129 2.079 . S
O136 C138 1.273 . S
C137 O133 1.246 . S
C137 O134 1.259 . S
C138 O135 1.252 . S
C138 O136 1.273 . S
O139 Mg126 2.010 . S
O139 C131 1.249 . S
Mg140 O141 2.028 . S
Mg140 O147 1.986 . S
Mg140 O149 2.114 . S
Mg140 O150 2.251 . S
Mg140 O153 2.010 1_455 S
O141 Mg140 2.028 . S
O141 C144 1.250 . S
O142 Mg143 2.028 . S
O142 C144 1.248 . S
Mg143 O142 2.028 . S
Mg143 O148 2.032 . S
Mg143 O150 2.079 . S
C144 O141 1.250 . S
C144 O142 1.248 . S
C145 O146 1.264 . S
C145 O153 1.249 . S
O146 C145 1.264 . S
O147 Mg140 1.986 . S
O147 C151 1.246 . S
O148 Mg143 2.032 . S
O148 C151 1.259 . S
O149 Mg140 2.114 . S
O149 C152 1.252 . S
O150 Mg140 2.251 . S
O150 Mg143 2.079 . S
O150 C152 1.273 . S
C151 O147 1.246 . S
C151 O148 1.259 . S
C152 O149 1.252 . S
C152 O150 1.273 . S
O153 Mg140 2.010 1_655 S
O153 C145 1.249 . S
Mg154 O155 2.028 . S
Mg154 O161 1.986 . S
Mg154 O163 2.114 . S
Mg154 O164 2.251 . S
Mg154 O167 2.010 . S
O155 Mg154 2.028 . S
O155 C158 1.250 . S
O156 Mg157 2.028 . S
O156 C158 1.248 . S
Mg157 O156 2.028 . S
Mg157 O162 2.032 . S
Mg157 O164 2.079 . S
C158 O155 1.250 . S
C158 O156 1.248 . S
C159 O160 1.264 . S
C159 O167 1.249 . S
O160 C159 1.264 . S
O161 Mg154 1.986 . S
O161 C165 1.246 . S
O162 Mg157 2.032 . S
O162 C165 1.259 . S
O163 Mg154 2.114 . S
O163 C166 1.252 . S
O164 Mg154 2.251 . S
O164 Mg157 2.079 . S
O164 C166 1.273 . S
C165 O161 1.246 . S
C165 O162 1.259 . S
C166 O163 1.252 . S
C166 O164 1.273 . S
O167 Mg154 2.010 . S
O167 C159 1.249 . S
Mg168 O169 2.028 . S
Mg168 O175 1.986 1_545 S
Mg168 O177 2.114 . S
Mg168 O178 2.251 . S
Mg168 O181 2.010 . S
O169 Mg168 2.028 . S
O169 C172 1.250 . S
O170 Mg171 2.028 . S
O170 C172 1.248 . S
Mg171 O170 2.028 . S
Mg171 O176 2.032 1_545 S
Mg171 O178 2.079 . S
C172 O169 1.250 . S
C172 O170 1.248 . S
C173 O174 1.264 . S
C173 O181 1.249 . S
O174 C173 1.264 . S
O175 Mg168 1.986 1_565 S
O175 C179 1.246 . S
O176 Mg171 2.032 1_565 S
O176 C179 1.259 . S
O177 Mg168 2.114 . S
O177 C180 1.252 . S
O178 Mg168 2.251 . S
O178 Mg171 2.079 . S
O178 C180 1.273 . S
C179 O175 1.246 . S
C179 O176 1.259 . S
C180 O177 1.252 . S
C180 O178 1.273 . S
O181 Mg168 2.010 . S
O181 C173 1.249 . S
Mg182 O183 2.028 . S
Mg182 O189 1.986 . S
Mg182 O191 2.114 . S
Mg182 O192 2.251 . S
Mg182 O195 2.010 1_655 S
O183 Mg182 2.028 . S
O183 C186 1.250 . S
O184 Mg185 2.028 . S
O184 C186 1.248 . S
Mg185 O184 2.028 . S
Mg185 O190 2.032 . S
Mg185 O192 2.079 . S
C186 O183 1.250 . S
C186 O184 1.248 . S
C187 O188 1.264 . S
C187 O195 1.249 . S
O188 C187 1.264 . S
O189 Mg182 1.986 . S
O189 C193 1.246 . S
O190 Mg185 2.032 . S
O190 C193 1.259 . S
O191 Mg182 2.114 . S
O191 C194 1.252 . S
O192 Mg182 2.251 . S
O192 Mg185 2.079 . S
O192 C194 1.273 . S
C193 O189 1.246 . S
C193 O190 1.259 . S
C194 O191 1.252 . S
C194 O192 1.273 . S
O195 Mg182 2.010 1_455 S
O195 C187 1.249 . S
Mg196 O197 2.028 . S
Mg196 O203 1.986 . S
Mg196 O205 2.114 . S
Mg196 O206 2.251 . S
Mg196 O209 2.010 . S
O197 Mg196 2.028 . S
O197 C200 1.250 . S
O198 Mg199 2.028 . S
O198 C200 1.248 . S
Mg199 O198 2.028 . S
Mg199 O204 2.032 . S
Mg199 O206 2.079 . S
C200 O197 1.250 . S
C200 O198 1.248 . S
C201 O202 1.264 . S
C201 O209 1.249 . S
O202 C201 1.264 . S
O203 Mg196 1.986 . S
O203 C207 1.246 . S
O204 Mg199 2.032 . S
O204 C207 1.259 . S
O205 Mg196 2.114 . S
O205 C208 1.252 . S
O206 Mg196 2.251 . S
O206 Mg199 2.079 . S
O206 C208 1.273 . S
C207 O203 1.246 . S
C207 O204 1.259 . S
C208 O205 1.252 . S
C208 O206 1.273 . S
O209 Mg196 2.010 . S
O209 C201 1.249 . S
Mg210 O211 2.028 . S
Mg210 O217 1.986 . S
Mg210 O219 2.114 . S
Mg210 O220 2.251 . S
Mg210 O223 2.010 . S
O211 Mg210 2.028 . S
O211 C214 1.250 . S
O212 Mg213 2.028 . S
O212 C214 1.248 . S
Mg213 O212 2.028 . S
Mg213 O218 2.032 . S
Mg213 O220 2.079 . S
C214 O211 1.250 . S
C214 O212 1.248 . S
C215 O216 1.264 . S
C215 O223 1.249 . S
O216 C215 1.264 . S
O217 Mg210 1.986 . S
O217 C221 1.246 . S
O218 Mg213 2.032 . S
O218 C221 1.259 . S
O219 Mg210 2.114 . S
O219 C222 1.252 . S
O220 Mg210 2.251 . S
O220 Mg213 2.079 . S
O220 C222 1.273 . S
C221 O217 1.246 . S
C221 O218 1.259 . S
C222 O219 1.252 . S
C222 O220 1.273 . S
O223 Mg210 2.010 . S
O223 C215 1.249 . S
Mg224 O225 2.028 . S
Mg224 O231 1.986 1_545 S
Mg224 O233 2.114 . S
Mg224 O234 2.251 . S
Mg224 O237 2.010 . S
O225 Mg224 2.028 . S
O225 C228 1.250 . S
O226 Mg227 2.028 . S
O226 C228 1.248 . S
Mg227 O226 2.028 . S
Mg227 O232 2.032 1_545 S
Mg227 O234 2.079 . S
C228 O225 1.250 . S
C228 O226 1.248 . S
C229 O230 1.264 . S
C229 O237 1.249 . S
O230 C229 1.264 . S
O231 Mg224 1.986 1_565 S
O231 C235 1.246 . S
O232 Mg227 2.032 1_565 S
O232 C235 1.259 . S
O233 Mg224 2.114 . S
O233 C236 1.252 . S
O234 Mg224 2.251 . S
O234 Mg227 2.079 . S
O234 C236 1.273 . S
C235 O231 1.246 . S
C235 O232 1.259 . S
C236 O233 1.252 . S
C236 O234 1.273 . S
O237 Mg224 2.010 . S
O237 C229 1.249 . S
Mg238 O239 2.028 . S
Mg238 O245 1.986 . S
Mg238 O247 2.114 . S
Mg238 O248 2.251 . S
Mg238 O251 2.010 1_655 S
O239 Mg238 2.028 . S
O239 C242 1.250 . S
O240 Mg241 2.028 . S
O240 C242 1.248 . S
Mg241 O240 2.028 . S
Mg241 O246 2.032 . S
Mg241 O248 2.079 . S
C242 O239 1.250 . S
C242 O240 1.248 . S
C243 O244 1.264 . S
C243 O251 1.249 . S
O244 C243 1.264 . S
O245 Mg238 1.986 . S
O245 C249 1.246 . S
O246 Mg241 2.032 . S
O246 C249 1.259 . S
O247 Mg238 2.114 . S
O247 C250 1.252 . S
O248 Mg238 2.251 . S
O248 Mg241 2.079 . S
O248 C250 1.273 . S
C249 O245 1.246 . S
C249 O246 1.259 . S
C250 O247 1.252 . S
C250 O248 1.273 . S
O251 Mg238 2.010 1_455 S
O251 C243 1.249 . S
C252 C253 1.384 . S
C252 C254 1.384 . S
C252 H280 0.931 . S
C253 C252 1.384 . S
C253 C256 1.382 . S
C254 C252 1.384 . S
C254 C255 1.381 . S
C254 H281 0.930 . S
C255 C254 1.381 . S
C255 C257 1.381 . S
C255 C258 1.487 . S
C256 C253 1.382 . S
C256 C257 1.387 . S
C256 H282 0.930 . S
C257 C255 1.381 . S
C257 C256 1.387 . S
C257 H283 0.931 . S
C258 C255 1.487 . S
C258 C265 1.399 . S
C258 N296 1.343 . S
C259 C260 1.384 . S
C259 C261 1.384 . S
C259 H284 0.931 . S
C260 C259 1.384 . S
C260 C263 1.382 . S
C261 C259 1.384 . S
C261 C262 1.381 . S
C261 H285 0.930 . S
C262 C261 1.381 . S
C262 C264 1.381 . S
C262 C265 1.487 . S
C263 C260 1.382 . S
C263 C264 1.387 . S
C263 H286 0.930 . S
C264 C262 1.381 . S
C264 C263 1.387 . S
C264 H287 0.931 . S
C265 C258 1.399 . S
C265 C262 1.487 . S
C265 N297 1.343 . S
C266 C267 1.384 . S
C266 C268 1.384 . S
C266 H288 0.931 . S
C267 C266 1.384 . S
C267 C270 1.382 . S
C268 C266 1.384 . S
C268 C269 1.381 . S
C268 H289 0.930 . S
C269 C268 1.381 . S
C269 C271 1.381 . S
C269 C272 1.487 . S
C270 C267 1.382 . S
C270 C271 1.387 . S
C270 H290 0.930 . S
C271 C269 1.381 . S
C271 C270 1.387 . S
C271 H291 0.931 . S
C272 C269 1.487 . S
C272 C279 1.399 . S
C272 N297 1.343 . S
C273 C274 1.384 . S
C273 C275 1.384 . S
C273 H292 0.931 . S
C274 C273 1.384 . S
C274 C277 1.382 . S
C275 C273 1.384 . S
C275 C276 1.381 . S
C275 H293 0.930 . S
C276 C275 1.381 . S
C276 C278 1.381 . S
C276 C279 1.487 . S
C277 C274 1.382 . S
C277 C278 1.387 . S
C277 H294 0.930 . S
C278 C276 1.381 . S
C278 C277 1.387 . S
C278 H295 0.931 . S
C279 C272 1.399 . S
C279 C276 1.487 . S
C279 N296 1.343 . S
H280 C252 0.931 . S
H281 C254 0.930 . S
H282 C256 0.930 . S
H283 C257 0.931 . S
H284 C259 0.931 . S
H285 C261 0.930 . S
H286 C263 0.930 . S
H287 C264 0.931 . S
H288 C266 0.931 . S
H289 C268 0.930 . S
H290 C270 0.930 . S
H291 C271 0.931 . S
H292 C273 0.931 . S
H293 C275 0.930 . S
H294 C277 0.930 . S
H295 C278 0.931 . S
N296 C258 1.343 . S
N296 C279 1.343 . S
N297 C265 1.343 . S
N297 C272 1.343 . S
C298 C299 1.384 . S
C298 C300 1.384 . S
C298 H326 0.931 . S
C299 C298 1.384 . S
C299 C302 1.382 . S
C300 C298 1.384 . S
C300 C301 1.381 . S
C300 H327 0.930 . S
C301 C300 1.381 . S
C301 C303 1.381 . S
C301 C304 1.487 . S
C302 C299 1.382 . S
C302 C303 1.387 . S
C302 H328 0.930 . S
C303 C301 1.381 . S
C303 C302 1.387 . S
C303 H329 0.931 . S
C304 C301 1.487 . S
C304 C311 1.399 . S
C304 N342 1.343 . S
C305 C306 1.384 . S
C305 C307 1.384 . S
C305 H330 0.931 . S
C306 C305 1.384 . S
C306 C309 1.382 . S
C307 C305 1.384 . S
C307 C308 1.381 . S
C307 H331 0.930 . S
C308 C307 1.381 . S
C308 C310 1.381 . S
C308 C311 1.487 . S
C309 C306 1.382 . S
C309 C310 1.387 . S
C309 H332 0.930 . S
C310 C308 1.381 . S
C310 C309 1.387 . S
C310 H333 0.931 . S
C311 C304 1.399 . S
C311 C308 1.487 . S
C311 N343 1.343 . S
C312 C313 1.384 . S
C312 C314 1.384 . S
C312 H334 0.931 . S
C313 C312 1.384 . S
C313 C316 1.382 . S
C314 C312 1.384 . S
C314 C315 1.381 . S
C314 H335 0.930 . S
C315 C314 1.381 . S
C315 C317 1.381 . S
C315 C318 1.487 . S
C316 C313 1.382 . S
C316 C317 1.387 . S
C316 H336 0.930 . S
C317 C315 1.381 . S
C317 C316 1.387 . S
C317 H337 0.931 . S
C318 C315 1.487 . S
C318 C325 1.399 . S
C318 N343 1.343 . S
C319 C320 1.384 . S
C319 C321 1.384 . S
C319 H338 0.931 . S
C320 C319 1.384 . S
C320 C323 1.382 . S
C321 C319 1.384 . S
C321 C322 1.381 . S
C321 H339 0.930 . S
C322 C321 1.381 . S
C322 C324 1.381 . S
C322 C325 1.487 . S
C323 C320 1.382 . S
C323 C324 1.387 . S
C323 H340 0.930 . S
C324 C322 1.381 . S
C324 C323 1.387 . S
C324 H341 0.931 . S
C325 C318 1.399 . S
C325 C322 1.487 . S
C325 N342 1.343 . S
H326 C298 0.931 . S
H327 C300 0.930 . S
H328 C302 0.930 . S
H329 C303 0.931 . S
H330 C305 0.931 . S
H331 C307 0.930 . S
H332 C309 0.930 . S
H333 C310 0.931 . S
H334 C312 0.931 . S
H335 C314 0.930 . S
H336 C316 0.930 . S
H337 C317 0.931 . S
H338 C319 0.931 . S
H339 C321 0.930 . S
H340 C323 0.930 . S
H341 C324 0.931 . S
N342 C304 1.343 . S
N342 C325 1.343 . S
N343 C311 1.343 . S
N343 C318 1.343 . S
C344 C345 1.384 . S
C344 C346 1.384 . S
C344 H372 0.931 . S
C345 C344 1.384 . S
C345 C348 1.382 . S
C346 C344 1.384 . S
C346 C347 1.381 . S
C346 H373 0.930 . S
C347 C346 1.381 . S
C347 C349 1.381 . S
C347 C350 1.487 . S
C348 C345 1.382 . S
C348 C349 1.387 . S
C348 H374 0.930 . S
C349 C347 1.381 . S
C349 C348 1.387 . S
C349 H375 0.931 . S
C350 C347 1.487 . S
C350 C357 1.399 . S
C350 N388 1.343 . S
C351 C352 1.384 . S
C351 C353 1.384 . S
C351 H376 0.931 . S
C352 C351 1.384 . S
C352 C355 1.382 . S
C353 C351 1.384 . S
C353 C354 1.381 . S
C353 H377 0.930 . S
C354 C353 1.381 . S
C354 C356 1.381 . S
C354 C357 1.487 . S
C355 C352 1.382 . S
C355 C356 1.387 . S
C355 H378 0.930 . S
C356 C354 1.381 . S
C356 C355 1.387 . S
C356 H379 0.931 . S
C357 C350 1.399 . S
C357 C354 1.487 . S
C357 N389 1.343 . S
C358 C359 1.384 . S
C358 C360 1.384 . S
C358 H380 0.931 . S
C359 C358 1.384 . S
C359 C362 1.382 . S
C360 C358 1.384 . S
C360 C361 1.381 . S
C360 H381 0.930 . S
C361 C360 1.381 . S
C361 C363 1.381 . S
C361 C364 1.487 . S
C362 C359 1.382 . S
C362 C363 1.387 . S
C362 H382 0.930 . S
C363 C361 1.381 . S
C363 C362 1.387 . S
C363 H383 0.931 . S
C364 C361 1.487 . S
C364 C371 1.399 . S
C364 N389 1.343 . S
C365 C366 1.384 . S
C365 C367 1.384 . S
C365 H384 0.931 . S
C366 C365 1.384 . S
C366 C369 1.382 . S
C367 C365 1.384 . S
C367 C368 1.381 . S
C367 H385 0.930 . S
C368 C367 1.381 . S
C368 C370 1.381 . S
C368 C371 1.487 . S
C369 C366 1.382 . S
C369 C370 1.387 . S
C369 H386 0.930 . S
C370 C368 1.381 . S
C370 C369 1.387 . S
C370 H387 0.931 . S
C371 C364 1.399 . S
C371 C368 1.487 . S
C371 N388 1.343 . S
H372 C344 0.931 . S
H373 C346 0.930 . S
H374 C348 0.930 . S
H375 C349 0.931 . S
H376 C351 0.931 . S
H377 C353 0.930 . S
H378 C355 0.930 . S
H379 C356 0.931 . S
H380 C358 0.931 . S
H381 C360 0.930 . S
H382 C362 0.930 . S
H383 C363 0.931 . S
H384 C365 0.931 . S
H385 C367 0.930 . S
H386 C369 0.930 . S
H387 C370 0.931 . S
N388 C350 1.343 . S
N388 C371 1.343 . S
N389 C357 1.343 . S
N389 C364 1.343 . S
C390 C391 1.384 . S
C390 C392 1.384 . S
C390 H418 0.931 . S
C391 C390 1.384 . S
C391 C394 1.382 . S
C392 C390 1.384 . S
C392 C393 1.381 . S
C392 H419 0.930 . S
C393 C392 1.381 . S
C393 C395 1.381 . S
C393 C396 1.487 . S
C394 C391 1.382 . S
C394 C395 1.387 . S
C394 H420 0.930 . S
C395 C393 1.381 . S
C395 C394 1.387 . S
C395 H421 0.931 . S
C396 C393 1.487 . S
C396 C403 1.399 . S
C396 N434 1.343 . S
C397 C398 1.384 . S
C397 C399 1.384 . S
C397 H422 0.931 . S
C398 C397 1.384 . S
C398 C401 1.382 . S
C399 C397 1.384 . S
C399 C400 1.381 . S
C399 H423 0.930 . S
C400 C399 1.381 . S
C400 C402 1.381 . S
C400 C403 1.487 . S
C401 C398 1.382 . S
C401 C402 1.387 . S
C401 H424 0.930 . S
C402 C400 1.381 . S
C402 C401 1.387 . S
C402 H425 0.931 . S
C403 C396 1.399 . S
C403 C400 1.487 . S
C403 N435 1.343 . S
C404 C405 1.384 . S
C404 C406 1.384 . S
C404 H426 0.931 . S
C405 C404 1.384 . S
C405 C408 1.382 . S
C406 C404 1.384 . S
C406 C407 1.381 . S
C406 H427 0.930 . S
C407 C406 1.381 . S
C407 C409 1.381 . S
C407 C410 1.487 . S
C408 C405 1.382 . S
C408 C409 1.387 . S
C408 H428 0.930 . S
C409 C407 1.381 . S
C409 C408 1.387 . S
C409 H429 0.931 . S
C410 C407 1.487 . S
C410 C417 1.399 . S
C410 N435 1.343 . S
C411 C412 1.384 . S
C411 C413 1.384 . S
C411 H430 0.931 . S
C412 C411 1.384 . S
C412 C415 1.382 . S
C413 C411 1.384 . S
C413 C414 1.381 . S
C413 H431 0.930 . S
C414 C413 1.381 . S
C414 C416 1.381 . S
C414 C417 1.487 . S
C415 C412 1.382 . S
C415 C416 1.387 . S
C415 H432 0.930 . S
C416 C414 1.381 . S
C416 C415 1.387 . S
C416 H433 0.931 . S
C417 C410 1.399 . S
C417 C414 1.487 . S
C417 N434 1.343 . S
H418 C390 0.931 . S
H419 C392 0.930 . S
H420 C394 0.930 . S
H421 C395 0.931 . S
H422 C397 0.931 . S
H423 C399 0.930 . S
H424 C401 0.930 . S
H425 C402 0.931 . S
H426 C404 0.931 . S
H427 C406 0.930 . S
H428 C408 0.930 . S
H429 C409 0.931 . S
H430 C411 0.931 . S
H431 C413 0.930 . S
H432 C415 0.930 . S
H433 C416 0.931 . S
N434 C396 1.343 . S
N434 C417 1.343 . S
N435 C403 1.343 . S
N435 C410 1.343 . S
C436 C437 1.384 . S
C436 C438 1.384 . S
C436 H464 0.931 . S
C437 C436 1.384 . S
C437 C440 1.382 . S
C438 C436 1.384 . S
C438 C439 1.381 . S
C438 H465 0.930 . S
C439 C438 1.381 . S
C439 C441 1.381 . S
C439 C442 1.487 . S
C440 C437 1.382 . S
C440 C441 1.387 . S
C440 H466 0.930 . S
C441 C439 1.381 . S
C441 C440 1.387 . S
C441 H467 0.931 . S
C442 C439 1.487 . S
C442 C449 1.399 . S
C442 N480 1.343 . S
C443 C444 1.384 . S
C443 C445 1.384 . S
C443 H468 0.931 . S
C444 C443 1.384 . S
C444 C447 1.382 . S
C445 C443 1.384 . S
C445 C446 1.381 . S
C445 H469 0.930 . S
C446 C445 1.381 . S
C446 C448 1.381 . S
C446 C449 1.487 . S
C447 C444 1.382 . S
C447 C448 1.387 . S
C447 H470 0.930 . S
C448 C446 1.381 . S
C448 C447 1.387 . S
C448 H471 0.931 . S
C449 C442 1.399 . S
C449 C446 1.487 . S
C449 N481 1.343 . S
C450 C451 1.384 . S
C450 C452 1.384 . S
C450 H472 0.931 . S
C451 C450 1.384 . S
C451 C454 1.382 . S
C452 C450 1.384 . S
C452 C453 1.381 . S
C452 H473 0.930 . S
C453 C452 1.381 . S
C453 C455 1.381 . S
C453 C456 1.487 . S
C454 C451 1.382 . S
C454 C455 1.387 . S
C454 H474 0.930 . S
C455 C453 1.381 . S
C455 C454 1.387 . S
C455 H475 0.931 . S
C456 C453 1.487 . S
C456 C463 1.399 . S
C456 N481 1.343 . S
C457 C458 1.384 . S
C457 C459 1.384 . S
C457 H476 0.931 . S
C458 C457 1.384 . S
C458 C461 1.382 . S
C459 C457 1.384 . S
C459 C460 1.381 . S
C459 H477 0.930 . S
C460 C459 1.381 . S
C460 C462 1.381 . S
C460 C463 1.487 . S
C461 C458 1.382 . S
C461 C462 1.387 . S
C461 H478 0.930 . S
C462 C460 1.381 . S
C462 C461 1.387 . S
C462 H479 0.931 . S
C463 C456 1.399 . S
C463 C460 1.487 . S
C463 N480 1.343 . S
H464 C436 0.931 . S
H465 C438 0.930 . S
H466 C440 0.930 . S
H467 C441 0.931 . S
H468 C443 0.931 . S
H469 C445 0.930 . S
H470 C447 0.930 . S
H471 C448 0.931 . S
H472 C450 0.931 . S
H473 C452 0.930 . S
H474 C454 0.930 . S
H475 C455 0.931 . S
H476 C457 0.931 . S
H477 C459 0.930 . S
H478 C461 0.930 . S
H479 C462 0.931 . S
N480 C442 1.343 . S
N480 C463 1.343 . S
N481 C449 1.343 . S
N481 C456 1.343 . S
C482 C483 1.384 . S
C482 C484 1.384 . S
C482 H510 0.931 . S
C483 C482 1.384 . S
C483 C486 1.382 . S
C484 C482 1.384 . S
C484 C485 1.381 . S
C484 H511 0.930 . S
C485 C484 1.381 . S
C485 C487 1.381 . S
C485 C488 1.487 . S
C486 C483 1.382 . S
C486 C487 1.387 . S
C486 H512 0.930 . S
C487 C485 1.381 . S
C487 C486 1.387 . S
C487 H513 0.931 . S
C488 C485 1.487 . S
C488 C495 1.399 . S
C488 N526 1.343 . S
C489 C490 1.384 . S
C489 C491 1.384 . S
C489 H514 0.931 . S
C490 C489 1.384 . S
C490 C493 1.382 . S
C491 C489 1.384 . S
C491 C492 1.381 . S
C491 H515 0.930 . S
C492 C491 1.381 . S
C492 C494 1.381 . S
C492 C495 1.487 . S
C493 C490 1.382 . S
C493 C494 1.387 . S
C493 H516 0.930 . S
C494 C492 1.381 . S
C494 C493 1.387 . S
C494 H517 0.931 . S
C495 C488 1.399 . S
C495 C492 1.487 . S
C495 N527 1.343 . S
C496 C497 1.384 . S
C496 C498 1.384 . S
C496 H518 0.931 . S
C497 C496 1.384 . S
C497 C500 1.382 . S
C498 C496 1.384 . S
C498 C499 1.381 . S
C498 H519 0.930 . S
C499 C498 1.381 . S
C499 C501 1.381 . S
C499 C502 1.487 . S
C500 C497 1.382 . S
C500 C501 1.387 . S
C500 H520 0.930 . S
C501 C499 1.381 . S
C501 C500 1.387 . S
C501 H521 0.931 . S
C502 C499 1.487 . S
C502 C509 1.399 . S
C502 N527 1.343 . S
C503 C504 1.384 . S
C503 C505 1.384 . S
C503 H522 0.931 . S
C504 C503 1.384 . S
C504 C507 1.382 . S
C505 C503 1.384 . S
C505 C506 1.381 . S
C505 H523 0.930 . S
C506 C505 1.381 . S
C506 C508 1.381 . S
C506 C509 1.487 . S
C507 C504 1.382 . S
C507 C508 1.387 . S
C507 H524 0.930 . S
C508 C506 1.381 . S
C508 C507 1.387 . S
C508 H525 0.931 . S
C509 C502 1.399 . S
C509 C506 1.487 . S
C509 N526 1.343 . S
H510 C482 0.931 . S
H511 C484 0.930 . S
H512 C486 0.930 . S
H513 C487 0.931 . S
H514 C489 0.931 . S
H515 C491 0.930 . S
H516 C493 0.930 . S
H517 C494 0.931 . S
H518 C496 0.931 . S
H519 C498 0.930 . S
H520 C500 0.930 . S
H521 C501 0.931 . S
H522 C503 0.931 . S
H523 C505 0.930 . S
H524 C507 0.930 . S
H525 C508 0.931 . S
N526 C488 1.343 . S
N526 C509 1.343 . S
N527 C495 1.343 . S
N527 C502 1.343 . S
C528 C529 1.384 . S
C528 C530 1.384 . S
C528 H556 0.931 . S
C529 C528 1.384 . S
C529 C532 1.382 . S
C530 C528 1.384 . S
C530 C531 1.381 . S
C530 H557 0.930 . S
C531 C530 1.381 . S
C531 C533 1.381 . S
C531 C534 1.487 . S
C532 C529 1.382 . S
C532 C533 1.387 . S
C532 H558 0.930 . S
C533 C531 1.381 . S
C533 C532 1.387 . S
C533 H559 0.931 . S
C534 C531 1.487 . S
C534 C541 1.399 . S
C534 N572 1.343 . S
C535 C536 1.384 . S
C535 C537 1.384 . S
C535 H560 0.931 . S
C536 C535 1.384 . S
C536 C539 1.382 . S
C537 C535 1.384 . S
C537 C538 1.381 . S
C537 H561 0.930 . S
C538 C537 1.381 . S
C538 C540 1.381 . S
C538 C541 1.487 . S
C539 C536 1.382 . S
C539 C540 1.387 . S
C539 H562 0.930 . S
C540 C538 1.381 . S
C540 C539 1.387 . S
C540 H563 0.931 . S
C541 C534 1.399 . S
C541 C538 1.487 . S
C541 N573 1.343 . S
C542 C543 1.384 . S
C542 C544 1.384 . S
C542 H564 0.931 . S
C543 C542 1.384 . S
C543 C546 1.382 . S
C544 C542 1.384 . S
C544 C545 1.381 . S
C544 H565 0.930 . S
C545 C544 1.381 . S
C545 C547 1.381 . S
C545 C548 1.487 . S
C546 C543 1.382 . S
C546 C547 1.387 . S
C546 H566 0.930 . S
C547 C545 1.381 . S
C547 C546 1.387 . S
C547 H567 0.931 . S
C548 C545 1.487 . S
C548 C555 1.399 . S
C548 N573 1.343 . S
C549 C550 1.384 . S
C549 C551 1.384 . S
C549 H568 0.931 . S
C550 C549 1.384 . S
C550 C553 1.382 . S
C551 C549 1.384 . S
C551 C552 1.381 . S
C551 H569 0.930 . S
C552 C551 1.381 . S
C552 C554 1.381 . S
C552 C555 1.487 . S
C553 C550 1.382 . S
C553 C554 1.387 . S
C553 H570 0.930 . S
C554 C552 1.381 . S
C554 C553 1.387 . S
C554 H571 0.931 . S
C555 C548 1.399 . S
C555 C552 1.487 . S
C555 N572 1.343 . S
H556 C528 0.931 . S
H557 C530 0.930 . S
H558 C532 0.930 . S
H559 C533 0.931 . S
H560 C535 0.931 . S
H561 C537 0.930 . S
H562 C539 0.930 . S
H563 C540 0.931 . S
H564 C542 0.931 . S
H565 C544 0.930 . S
H566 C546 0.930 . S
H567 C547 0.931 . S
H568 C549 0.931 . S
H569 C551 0.930 . S
H570 C553 0.930 . S
H571 C554 0.931 . S
N572 C534 1.343 . S
N572 C555 1.343 . S
N573 C541 1.343 . S
N573 C548 1.343 . S
C574 C575 1.384 . S
C574 C576 1.384 . S
C574 H602 0.931 . S
C575 C574 1.384 . S
C575 C578 1.382 . S
C576 C574 1.384 . S
C576 C577 1.381 . S
C576 H603 0.930 . S
C577 C576 1.381 . S
C577 C579 1.381 . S
C577 C580 1.487 . S
C578 C575 1.382 . S
C578 C579 1.387 . S
C578 H604 0.930 . S
C579 C577 1.381 . S
C579 C578 1.387 . S
C579 H605 0.931 . S
C580 C577 1.487 . S
C580 C587 1.399 . S
C580 N618 1.343 . S
C581 C582 1.384 . S
C581 C583 1.384 . S
C581 H606 0.931 . S
C582 C581 1.384 . S
C582 C585 1.382 . S
C583 C581 1.384 . S
C583 C584 1.381 . S
C583 H607 0.930 . S
C584 C583 1.381 . S
C584 C586 1.381 . S
C584 C587 1.487 . S
C585 C582 1.382 . S
C585 C586 1.387 . S
C585 H608 0.930 . S
C586 C584 1.381 . S
C586 C585 1.387 . S
C586 H609 0.931 . S
C587 C580 1.399 . S
C587 C584 1.487 . S
C587 N619 1.343 . S
C588 C589 1.384 . S
C588 C590 1.384 . S
C588 H610 0.931 . S
C589 C588 1.384 . S
C589 C592 1.382 . S
C590 C588 1.384 . S
C590 C591 1.381 . S
C590 H611 0.930 . S
C591 C590 1.381 . S
C591 C593 1.381 . S
C591 C594 1.487 . S
C592 C589 1.382 . S
C592 C593 1.387 . S
C592 H612 0.930 . S
C593 C591 1.381 . S
C593 C592 1.387 . S
C593 H613 0.931 . S
C594 C591 1.487 . S
C594 C601 1.399 . S
C594 N619 1.343 . S
C595 C596 1.384 . S
C595 C597 1.384 . S
C595 H614 0.931 . S
C596 C595 1.384 . S
C596 C599 1.382 . S
C597 C595 1.384 . S
C597 C598 1.381 . S
C597 H615 0.930 . S
C598 C597 1.381 . S
C598 C600 1.381 . S
C598 C601 1.487 . S
C599 C596 1.382 . S
C599 C600 1.387 . S
C599 H616 0.930 . S
C600 C598 1.381 . S
C600 C599 1.387 . S
C600 H617 0.931 . S
C601 C594 1.399 . S
C601 C598 1.487 . S
C601 N618 1.343 . S
H602 C574 0.931 . S
H603 C576 0.930 . S
H604 C578 0.930 . S
H605 C579 0.931 . S
H606 C581 0.931 . S
H607 C583 0.930 . S
H608 C585 0.930 . S
H609 C586 0.931 . S
H610 C588 0.931 . S
H611 C590 0.930 . S
H612 C592 0.930 . S
H613 C593 0.931 . S
H614 C595 0.931 . S
H615 C597 0.930 . S
H616 C599 0.930 . S
H617 C600 0.931 . S
N618 C580 1.343 . S
N618 C601 1.343 . S
N619 C587 1.343 . S
N619 C594 1.343 . S
C620 C621 1.384 . S
C620 C622 1.384 . S
C620 H648 0.931 . S
C621 C620 1.384 . S
C621 C624 1.382 . S
C622 C620 1.384 . S
C622 C623 1.381 . S
C622 H649 0.930 . S
C623 C622 1.381 . S
C623 C625 1.381 . S
C623 C626 1.487 . S
C624 C621 1.382 . S
C624 C625 1.387 . S
C624 H650 0.930 . S
C625 C623 1.381 . S
C625 C624 1.387 . S
C625 H651 0.931 . S
C626 C623 1.487 . S
C626 C633 1.399 . S
C626 N664 1.343 . S
C627 C628 1.384 . S
C627 C629 1.384 . S
C627 H652 0.931 . S
C628 C627 1.384 . S
C628 C631 1.382 . S
C629 C627 1.384 . S
C629 C630 1.381 . S
C629 H653 0.930 . S
C630 C629 1.381 . S
C630 C632 1.381 . S
C630 C633 1.487 . S
C631 C628 1.382 . S
C631 C632 1.387 . S
C631 H654 0.930 . S
C632 C630 1.381 . S
C632 C631 1.387 . S
C632 H655 0.931 . S
C633 C626 1.399 . S
C633 C630 1.487 . S
C633 N665 1.343 . S
C634 C635 1.384 . S
C634 C636 1.384 . S
C634 H656 0.931 . S
C635 C634 1.384 . S
C635 C638 1.382 . S
C636 C634 1.384 . S
C636 C637 1.381 . S
C636 H657 0.930 . S
C637 C636 1.381 . S
C637 C639 1.381 . S
C637 C640 1.487 . S
C638 C635 1.382 . S
C638 C639 1.387 . S
C638 H658 0.930 . S
C639 C637 1.381 . S
C639 C638 1.387 . S
C639 H659 0.931 . S
C640 C637 1.487 . S
C640 C647 1.399 . S
C640 N665 1.343 . S
C641 C642 1.384 . S
C641 C643 1.384 . S
C641 H660 0.931 . S
C642 C641 1.384 . S
C642 C645 1.382 . S
C643 C641 1.384 . S
C643 C644 1.381 . S
C643 H661 0.930 . S
C644 C643 1.381 . S
C644 C646 1.381 . S
C644 C647 1.487 . S
C645 C642 1.382 . S
C645 C646 1.387 . S
C645 H662 0.930 . S
C646 C644 1.381 . S
C646 C645 1.387 . S
C646 H663 0.931 . S
C647 C640 1.399 . S
C647 C644 1.487 . S
C647 N664 1.343 . S
H648 C620 0.931 . S
H649 C622 0.930 . S
H650 C624 0.930 . S
H651 C625 0.931 . S
H652 C627 0.931 . S
H653 C629 0.930 . S
H654 C631 0.930 . S
H655 C632 0.931 . S
H656 C634 0.931 . S
H657 C636 0.930 . S
H658 C638 0.930 . S
H659 C639 0.931 . S
H660 C641 0.931 . S
H661 C643 0.930 . S
H662 C645 0.930 . S
H663 C646 0.931 . S
N664 C626 1.343 . S
N664 C647 1.343 . S
N665 C633 1.343 . S
N665 C640 1.343 . S
C666 C667 1.384 . S
C666 C668 1.384 . S
C666 H694 0.931 . S
C667 C666 1.384 . S
C667 C670 1.382 1_655 S
C668 C666 1.384 . S
C668 C669 1.390 . S
C668 H695 0.930 . S
C669 C668 1.390 . S
C669 C671 1.377 1_655 S
C669 C672 1.477 1_655 S
C670 C667 1.382 1_455 S
C670 C671 1.387 . S
C670 H696 0.930 . S
C671 C669 1.377 1_455 S
C671 C670 1.387 . S
C671 H697 0.931 . S
C672 C669 1.477 1_455 S
C672 C679 1.398 1_455 S
C672 N710 1.350 . S
C673 C674 1.384 . S
C673 C675 1.384 . S
C673 H698 0.931 . S
C674 C673 1.384 . S
C674 C677 1.382 1_455 S
C675 C673 1.384 . S
C675 C676 1.383 1_455 S
C675 H699 0.930 . S
C676 C675 1.383 1_655 S
C676 C678 1.377 . S
C676 C679 1.496 . S
C677 C674 1.382 1_655 S
C677 C678 1.387 . S
C677 H700 0.930 . S
C678 C676 1.377 . S
C678 C677 1.387 . S
C678 H701 0.931 . S
C679 C672 1.398 1_655 S
C679 C676 1.496 . S
C679 N711 1.363 . S
C680 C681 1.384 . S
C680 C682 1.384 . S
C680 H702 0.931 . S
C681 C680 1.384 . S
C681 C684 1.382 1_455 S
C682 C680 1.384 . S
C682 C683 1.407 . S
C682 H703 0.930 . S
C683 C682 1.407 . S
C683 C685 1.368 1_455 S
C683 C686 1.477 1_455 S
C684 C681 1.382 1_655 S
C684 C685 1.387 . S
C684 H704 0.930 . S
C685 C683 1.368 1_655 S
C685 C684 1.387 . S
C685 H705 0.931 . S
C686 C683 1.477 1_655 S
C686 C693 1.398 1_655 S
C686 N711 1.312 . S
C687 C688 1.384 . S
C687 C689 1.384 . S
C687 H706 0.931 . S
C688 C687 1.384 . S
C688 C691 1.382 1_655 S
C689 C687 1.384 . S
C689 C690 1.379 1_655 S
C689 H707 0.930 . S
C690 C689 1.379 1_455 S
C690 C692 1.387 . S
C690 C693 1.496 . S
C691 C688 1.382 1_455 S
C691 C692 1.387 . S
C691 H708 0.930 . S
C692 C690 1.387 . S
C692 C691 1.387 . S
C692 H709 0.931 . S
C693 C686 1.398 1_455 S
C693 C690 1.496 . S
C693 N710 1.330 . S
H694 C666 0.931 . S
H695 C668 0.930 . S
H696 C670 0.930 . S
H697 C671 0.931 . S
H698 C673 0.931 . S
H699 C675 0.930 . S
H700 C677 0.930 . S
H701 C678 0.931 . S
H702 C680 0.931 . S
H703 C682 0.930 . S
H704 C684 0.930 . S
H705 C685 0.931 . S
H706 C687 0.931 . S
H707 C689 0.930 . S
H708 C691 0.930 . S
H709 C692 0.931 . S
N710 C672 1.350 . S
N710 C693 1.330 . S
N711 C679 1.363 . S
N711 C686 1.312 . S
C712 C713 1.384 . S
C712 C714 1.384 . S
C712 H740 0.931 . S
C713 C712 1.384 . S
C713 C716 1.382 . S
C714 C712 1.384 . S
C714 C715 1.381 . S
C714 H741 0.930 . S
C715 C714 1.381 . S
C715 C717 1.381 . S
C715 C718 1.487 . S
C716 C713 1.382 . S
C716 C717 1.387 . S
C716 H742 0.930 . S
C717 C715 1.381 . S
C717 C716 1.387 . S
C717 H743 0.931 . S
C718 C715 1.487 . S
C718 C725 1.399 . S
C718 N756 1.343 . S
C719 C720 1.384 . S
C719 C721 1.384 . S
C719 H744 0.931 . S
C720 C719 1.384 . S
C720 C723 1.382 . S
C721 C719 1.384 . S
C721 C722 1.381 . S
C721 H745 0.930 . S
C722 C721 1.381 . S
C722 C724 1.381 . S
C722 C725 1.487 . S
C723 C720 1.382 . S
C723 C724 1.387 . S
C723 H746 0.930 . S
C724 C722 1.381 . S
C724 C723 1.387 . S
C724 H747 0.931 . S
C725 C718 1.399 . S
C725 C722 1.487 . S
C725 N757 1.343 . S
C726 C727 1.384 . S
C726 C728 1.384 . S
C726 H748 0.931 . S
C727 C726 1.384 . S
C727 C730 1.382 . S
C728 C726 1.384 . S
C728 C729 1.381 . S
C728 H749 0.930 . S
C729 C728 1.381 . S
C729 C731 1.381 . S
C729 C732 1.487 . S
C730 C727 1.382 . S
C730 C731 1.387 . S
C730 H750 0.930 . S
C731 C729 1.381 . S
C731 C730 1.387 . S
C731 H751 0.931 . S
C732 C729 1.487 . S
C732 C739 1.399 . S
C732 N757 1.343 . S
C733 C734 1.384 . S
C733 C735 1.384 . S
C733 H752 0.931 . S
C734 C733 1.384 . S
C734 C737 1.382 . S
C735 C733 1.384 . S
C735 C736 1.381 . S
C735 H753 0.930 . S
C736 C735 1.381 . S
C736 C738 1.381 . S
C736 C739 1.487 . S
C737 C734 1.382 . S
C737 C738 1.387 . S
C737 H754 0.930 . S
C738 C736 1.381 . S
C738 C737 1.387 . S
C738 H755 0.931 . S
C739 C732 1.399 . S
C739 C736 1.487 . S
C739 N756 1.343 . S
H740 C712 0.931 . S
H741 C714 0.930 . S
H742 C716 0.930 . S
H743 C717 0.931 . S
H744 C719 0.931 . S
H745 C721 0.930 . S
H746 C723 0.930 . S
H747 C724 0.931 . S
H748 C726 0.931 . S
H749 C728 0.930 . S
H750 C730 0.930 . S
H751 C731 0.931 . S
H752 C733 0.931 . S
H753 C735 0.930 . S
H754 C737 0.930 . S
H755 C738 0.931 . S
N756 C718 1.343 . S
N756 C739 1.343 . S
N757 C725 1.343 . S
N757 C732 1.343 . S
C758 C759 1.384 1_545 S
C758 C760 1.384 . S
C758 H786 0.931 . S
C759 C758 1.384 1_565 S
C759 C762 1.382 . S
C760 C758 1.384 . S
C760 C761 1.381 1_545 S
C760 H787 0.930 . S
C761 C760 1.381 1_565 S
C761 C763 1.381 . S
C761 C764 1.487 . S
C762 C759 1.382 . S
C762 C763 1.387 . S
C762 H788 0.930 . S
C763 C761 1.381 . S
C763 C762 1.387 . S
C763 H789 0.931 . S
C764 C761 1.487 . S
C764 C771 1.399 1_565 S
C764 N802 1.343 . S
C765 C766 1.384 1_565 S
C765 C767 1.384 . S
C765 H790 0.931 . S
C766 C765 1.384 1_545 S
C766 C769 1.382 . S
C767 C765 1.384 . S
C767 C768 1.381 1_565 S
C767 H791 0.930 . S
C768 C767 1.381 1_545 S
C768 C770 1.381 . S
C768 C771 1.487 . S
C769 C766 1.382 . S
C769 C770 1.387 . S
C769 H792 0.930 . S
C770 C768 1.381 . S
C770 C769 1.387 . S
C770 H793 0.931 . S
C771 C764 1.399 1_545 S
C771 C768 1.487 . S
C771 N803 1.343 . S
C772 C773 1.384 1_565 S
C772 C774 1.384 . S
C772 H794 0.931 . S
C773 C772 1.384 1_545 S
C773 C776 1.382 . S
C774 C772 1.384 . S
C774 C775 1.381 1_565 S
C774 H795 0.930 . S
C775 C774 1.381 1_545 S
C775 C777 1.381 . S
C775 C778 1.487 . S
C776 C773 1.382 . S
C776 C777 1.387 . S
C776 H796 0.930 . S
C777 C775 1.381 . S
C777 C776 1.387 . S
C777 H797 0.931 . S
C778 C775 1.487 . S
C778 C785 1.399 1_545 S
C778 N803 1.343 . S
C779 C780 1.384 1_545 S
C779 C781 1.384 . S
C779 H798 0.931 . S
C780 C779 1.384 1_565 S
C780 C783 1.382 . S
C781 C779 1.384 . S
C781 C782 1.381 1_545 S
C781 H799 0.930 . S
C782 C781 1.381 1_565 S
C782 C784 1.381 . S
C782 C785 1.487 . S
C783 C780 1.382 . S
C783 C784 1.387 . S
C783 H800 0.930 . S
C784 C782 1.381 . S
C784 C783 1.387 . S
C784 H801 0.931 . S
C785 C778 1.399 1_565 S
C785 C782 1.487 . S
C785 N802 1.343 . S
H786 C758 0.931 . S
H787 C760 0.930 . S
H788 C762 0.930 . S
H789 C763 0.931 . S
H790 C765 0.931 . S
H791 C767 0.930 . S
H792 C769 0.930 . S
H793 C770 0.931 . S
H794 C772 0.931 . S
H795 C774 0.930 . S
H796 C776 0.930 . S
H797 C777 0.931 . S
H798 C779 0.931 . S
H799 C781 0.930 . S
H800 C783 0.930 . S
H801 C784 0.931 . S
N802 C764 1.343 . S
N802 C785 1.343 . S
N803 C771 1.343 . S
N803 C778 1.343 . S
C804 C805 1.384 . S
C804 C806 1.384 . S
C804 H832 0.931 . S
C805 C804 1.384 . S
C805 C808 1.382 1_545 S
C806 C804 1.384 . S
C806 C807 1.385 . S
C806 H833 0.930 . S
C807 C806 1.385 . S
C807 C809 1.371 1_545 S
C807 C810 1.495 1_545 S
C808 C805 1.382 1_565 S
C808 C809 1.387 . S
C808 H834 0.930 . S
C809 C807 1.371 1_565 S
C809 C808 1.387 . S
C809 H835 0.931 . S
C810 C807 1.495 1_565 S
C810 C817 1.399 1_565 S
C810 N848 1.367 . S
C811 C812 1.384 . S
C811 C813 1.384 . S
C811 H836 0.931 . S
C812 C811 1.384 . S
C812 C815 1.382 1_565 S
C813 C811 1.384 . S
C813 C814 1.379 . S
C813 H837 0.930 . S
C814 C813 1.379 . S
C814 C816 1.383 1_565 S
C814 C817 1.479 1_565 S
C815 C812 1.382 1_545 S
C815 C816 1.387 . S
C815 H838 0.930 . S
C816 C814 1.383 1_545 S
C816 C815 1.387 . S
C816 H839 0.931 . S
C817 C810 1.399 1_545 S
C817 C814 1.479 1_545 S
C817 N849 1.320 . S
C818 C819 1.384 . S
C818 C820 1.384 . S
C818 H840 0.931 . S
C819 C818 1.384 . S
C819 C822 1.382 1_565 S
C820 C818 1.384 . S
C820 C821 1.382 . S
C820 H841 0.930 . S
C821 C820 1.382 . S
C821 C823 1.380 1_565 S
C821 C824 1.495 1_565 S
C822 C819 1.382 1_545 S
C822 C823 1.387 . S
C822 H842 0.930 . S
C823 C821 1.380 1_545 S
C823 C822 1.387 . S
C823 H843 0.931 . S
C824 C821 1.495 1_545 S
C824 C831 1.399 1_545 S
C824 N849 1.367 . S
C825 C826 1.384 . S
C825 C827 1.384 . S
C825 H844 0.931 . S
C826 C825 1.384 . S
C826 C829 1.382 1_545 S
C827 C825 1.384 . S
C827 C828 1.395 . S
C827 H845 0.930 . S
C828 C827 1.395 . S
C828 C830 1.374 1_545 S
C828 C831 1.479 1_545 S
C829 C826 1.382 1_565 S
C829 C830 1.387 . S
C829 H846 0.930 . S
C830 C828 1.374 1_565 S
C830 C829 1.387 . S
C830 H847 0.931 . S
C831 C824 1.399 1_565 S
C831 C828 1.479 1_565 S
C831 N848 1.320 . S
H832 C804 0.931 . S
H833 C806 0.930 . S
H834 C808 0.930 . S
H835 C809 0.931 . S
H836 C811 0.931 . S
H837 C813 0.930 . S
H838 C815 0.930 . S
H839 C816 0.931 . S
H840 C818 0.931 . S
H841 C820 0.930 . S
H842 C822 0.930 . S
H843 C823 0.931 . S
H844 C825 0.931 . S
H845 C827 0.930 . S
H846 C829 0.930 . S
H847 C830 0.931 . S
N848 C810 1.367 . S
N848 C831 1.320 . S
N849 C817 1.320 . S
N849 C824 1.367 . S
C850 C851 1.384 . S
C850 C852 1.384 . S
C850 H878 0.931 . S
C851 C850 1.384 . S
C851 C854 1.382 1_655 S
C852 C850 1.384 . S
C852 C853 1.424 . S
C852 H879 0.930 . S
C853 C852 1.424 . S
C853 C855 1.359 1_655 S
C853 C856 1.466 . S
C854 C851 1.382 1_455 S
C854 C855 1.387 . S
C854 H880 0.930 . S
C855 C853 1.359 1_455 S
C855 C854 1.387 . S
C855 H881 0.931 . S
C856 C853 1.466 . S
C856 C863 1.398 . S
C856 N894 1.324 1_655 S
C857 C858 1.384 . S
C857 C859 1.384 . S
C857 H882 0.931 . S
C858 C857 1.384 . S
C858 C861 1.382 1_455 S
C859 C857 1.384 . S
C859 C860 1.383 1_455 S
C859 H883 0.930 . S
C860 C859 1.383 1_655 S
C860 C862 1.377 . S
C860 C863 1.500 . S
C861 C858 1.382 1_655 S
C861 C862 1.387 . S
C861 H884 0.930 . S
C862 C860 1.377 . S
C862 C861 1.387 . S
C862 H885 0.931 . S
C863 C856 1.398 . S
C863 C860 1.500 . S
C863 N895 1.360 . S
C864 C865 1.384 . S
C864 C866 1.384 . S
C864 H886 0.931 . S
C865 C864 1.384 . S
C865 C868 1.382 1_455 S
C866 C864 1.384 . S
C866 C867 1.407 . S
C866 H887 0.930 . S
C867 C866 1.407 . S
C867 C869 1.368 1_455 S
C867 C870 1.473 1_455 S
C868 C865 1.382 1_655 S
C868 C869 1.387 . S
C868 H888 0.930 . S
C869 C867 1.368 1_655 S
C869 C868 1.387 . S
C869 H889 0.931 . S
C870 C867 1.473 1_655 S
C870 C877 1.399 1_655 S
C870 N895 1.316 . S
C871 C872 1.384 . S
C871 C873 1.384 . S
C871 H890 0.931 . S
C872 C871 1.384 . S
C872 C875 1.382 1_655 S
C873 C871 1.384 . S
C873 C874 1.383 . S
C873 H891 0.930 . S
C874 C873 1.383 . S
C874 C876 1.377 1_655 S
C874 C877 1.493 1_655 S
C875 C872 1.382 1_455 S
C875 C876 1.387 . S
C875 H892 0.930 . S
C876 C874 1.377 1_455 S
C876 C875 1.387 . S
C876 H893 0.931 . S
C877 C870 1.399 1_455 S
C877 C874 1.493 1_455 S
C877 N894 1.360 . S
H878 C850 0.931 . S
H879 C852 0.930 . S
H880 C854 0.930 . S
H881 C855 0.931 . S
H882 C857 0.931 . S
H883 C859 0.930 . S
H884 C861 0.930 . S
H885 C862 0.931 . S
H886 C864 0.931 . S
H887 C866 0.930 . S
H888 C868 0.930 . S
H889 C869 0.931 . S
H890 C871 0.931 . S
H891 C873 0.930 . S
H892 C875 0.930 . S
H893 C876 0.931 . S
N894 C856 1.324 1_455 S
N894 C877 1.360 . S
N895 C863 1.360 . S
N895 C870 1.316 . S
C896 C897 1.384 . S
C896 C898 1.384 . S
C896 H924 0.931 . S
C897 C896 1.384 . S
C897 C900 1.382 . S
C898 C896 1.384 . S
C898 C899 1.381 . S
C898 H925 0.930 . S
C899 C898 1.381 . S
C899 C901 1.381 . S
C899 C902 1.487 . S
C900 C897 1.382 . S
C900 C901 1.387 . S
C900 H926 0.930 . S
C901 C899 1.381 . S
C901 C900 1.387 . S
C901 H927 0.931 . S
C902 C899 1.487 . S
C902 C909 1.399 . S
C902 N940 1.343 . S
C903 C904 1.384 . S
C903 C905 1.384 . S
C903 H928 0.931 . S
C904 C903 1.384 . S
C904 C907 1.382 . S
C905 C903 1.384 . S
C905 C906 1.381 . S
C905 H929 0.930 . S
C906 C905 1.381 . S
C906 C908 1.381 . S
C906 C909 1.487 . S
C907 C904 1.382 . S
C907 C908 1.387 . S
C907 H930 0.930 . S
C908 C906 1.381 . S
C908 C907 1.387 . S
C908 H931 0.931 . S
C909 C902 1.399 . S
C909 C906 1.487 . S
C909 N941 1.343 . S
C910 C911 1.384 . S
C910 C912 1.384 . S
C910 H932 0.931 . S
C911 C910 1.384 . S
C911 C914 1.382 . S
C912 C910 1.384 . S
C912 C913 1.381 . S
C912 H933 0.930 . S
C913 C912 1.381 . S
C913 C915 1.381 . S
C913 C916 1.487 . S
C914 C911 1.382 . S
C914 C915 1.387 . S
C914 H934 0.930 . S
C915 C913 1.381 . S
C915 C914 1.387 . S
C915 H935 0.931 . S
C916 C913 1.487 . S
C916 C923 1.399 . S
C916 N941 1.343 . S
C917 C918 1.384 . S
C917 C919 1.384 . S
C917 H936 0.931 . S
C918 C917 1.384 . S
C918 C921 1.382 . S
C919 C917 1.384 . S
C919 C920 1.381 . S
C919 H937 0.930 . S
C920 C919 1.381 . S
C920 C922 1.381 . S
C920 C923 1.487 . S
C921 C918 1.382 . S
C921 C922 1.387 . S
C921 H938 0.930 . S
C922 C920 1.381 . S
C922 C921 1.387 . S
C922 H939 0.931 . S
C923 C916 1.399 . S
C923 C920 1.487 . S
C923 N940 1.343 . S
H924 C896 0.931 . S
H925 C898 0.930 . S
H926 C900 0.930 . S
H927 C901 0.931 . S
H928 C903 0.931 . S
H929 C905 0.930 . S
H930 C907 0.930 . S
H931 C908 0.931 . S
H932 C910 0.931 . S
H933 C912 0.930 . S
H934 C914 0.930 . S
H935 C915 0.931 . S
H936 C917 0.931 . S
H937 C919 0.930 . S
H938 C921 0.930 . S
H939 C922 0.931 . S
N940 C902 1.343 . S
N940 C923 1.343 . S
N941 C909 1.343 . S
N941 C916 1.343 . S
C942 C943 1.384 . S
C942 C944 1.384 . S
C942 H970 0.931 . S
C943 C942 1.384 . S
C943 C946 1.382 . S
C944 C942 1.384 . S
C944 C945 1.381 . S
C944 H971 0.930 . S
C945 C944 1.381 . S
C945 C947 1.381 . S
C945 C948 1.487 . S
C946 C943 1.382 . S
C946 C947 1.387 . S
C946 H972 0.930 . S
C947 C945 1.381 . S
C947 C946 1.387 . S
C947 H973 0.931 . S
C948 C945 1.487 . S
C948 C955 1.399 . S
C948 N986 1.343 . S
C949 C950 1.384 . S
C949 C951 1.384 . S
C949 H974 0.931 . S
C950 C949 1.384 . S
C950 C953 1.382 . S
C951 C949 1.384 . S
C951 C952 1.381 . S
C951 H975 0.930 . S
C952 C951 1.381 . S
C952 C954 1.381 . S
C952 C955 1.487 . S
C953 C950 1.382 . S
C953 C954 1.387 . S
C953 H976 0.930 . S
C954 C952 1.381 . S
C954 C953 1.387 . S
C954 H977 0.931 . S
C955 C948 1.399 . S
C955 C952 1.487 . S
C955 N987 1.343 . S
C956 C957 1.384 . S
C956 C958 1.384 . S
C956 H978 0.931 . S
C957 C956 1.384 . S
C957 C960 1.382 . S
C958 C956 1.384 . S
C958 C959 1.381 . S
C958 H979 0.930 . S
C959 C958 1.381 . S
C959 C961 1.381 . S
C959 C962 1.487 . S
C960 C957 1.382 . S
C960 C961 1.387 . S
C960 H980 0.930 . S
C961 C959 1.381 . S
C961 C960 1.387 . S
C961 H981 0.931 . S
C962 C959 1.487 . S
C962 C969 1.399 . S
C962 N987 1.343 . S
C963 C964 1.384 . S
C963 C965 1.384 . S
C963 H982 0.931 . S
C964 C963 1.384 . S
C964 C967 1.382 . S
C965 C963 1.384 . S
C965 C966 1.381 . S
C965 H983 0.930 . S
C966 C965 1.381 . S
C966 C968 1.381 . S
C966 C969 1.487 . S
C967 C964 1.382 . S
C967 C968 1.387 . S
C967 H984 0.930 . S
C968 C966 1.381 . S
C968 C967 1.387 . S
C968 H985 0.931 . S
C969 C962 1.399 . S
C969 C966 1.487 . S
C969 N986 1.343 . S
H970 C942 0.931 . S
H971 C944 0.930 . S
H972 C946 0.930 . S
H973 C947 0.931 . S
H974 C949 0.931 . S
H975 C951 0.930 . S
H976 C953 0.930 . S
H977 C954 0.931 . S
H978 C956 0.931 . S
H979 C958 0.930 . S
H980 C960 0.930 . S
H981 C961 0.931 . S
H982 C963 0.931 . S
H983 C965 0.930 . S
H984 C967 0.930 . S
H985 C968 0.931 . S
N986 C948 1.343 . S
N986 C969 1.343 . S
N987 C955 1.343 . S
N987 C962 1.343 . S
C988 C989 1.384 . S
C988 C990 1.384 . S
C988 H1016 0.931 . S
C989 C988 1.384 . S
C989 C992 1.382 . S
C990 C988 1.384 . S
C990 C991 1.381 . S
C990 H1017 0.930 . S
C991 C990 1.381 . S
C991 C993 1.381 . S
C991 C994 1.487 . S
C992 C989 1.382 . S
C992 C993 1.387 . S
C992 H1018 0.930 . S
C993 C991 1.381 . S
C993 C992 1.387 . S
C993 H1019 0.931 . S
C994 C991 1.487 . S
C994 C1001 1.399 . S
C994 N1032 1.343 . S
C995 C996 1.384 . S
C995 C997 1.384 . S
C995 H1020 0.931 . S
C996 C995 1.384 . S
C996 C999 1.382 . S
C997 C995 1.384 . S
C997 C998 1.381 . S
C997 H1021 0.930 . S
C998 C997 1.381 . S
C998 C1000 1.381 . S
C998 C1001 1.487 . S
C999 C996 1.382 . S
C999 C1000 1.387 . S
C999 H1022 0.930 . S
C1000 C998 1.381 . S
C1000 C999 1.387 . S
C1000 H1023 0.931 . S
C1001 C994 1.399 . S
C1001 C998 1.487 . S
C1001 N1033 1.343 . S
C1002 C1003 1.384 . S
C1002 C1004 1.384 . S
C1002 H1024 0.931 . S
C1003 C1002 1.384 . S
C1003 C1006 1.382 . S
C1004 C1002 1.384 . S
C1004 C1005 1.381 . S
C1004 H1025 0.930 . S
C1005 C1004 1.381 . S
C1005 C1007 1.381 . S
C1005 C1008 1.487 . S
C1006 C1003 1.382 . S
C1006 C1007 1.387 . S
C1006 H1026 0.930 . S
C1007 C1005 1.381 . S
C1007 C1006 1.387 . S
C1007 H1027 0.931 . S
C1008 C1005 1.487 . S
C1008 C1015 1.399 . S
C1008 N1033 1.343 . S
C1009 C1010 1.384 . S
C1009 C1011 1.384 . S
C1009 H1028 0.931 . S
C1010 C1009 1.384 . S
C1010 C1013 1.382 . S
C1011 C1009 1.384 . S
C1011 C1012 1.381 . S
C1011 H1029 0.930 . S
C1012 C1011 1.381 . S
C1012 C1014 1.381 . S
C1012 C1015 1.487 . S
C1013 C1010 1.382 . S
C1013 C1014 1.387 . S
C1013 H1030 0.930 . S
C1014 C1012 1.381 . S
C1014 C1013 1.387 . S
C1014 H1031 0.931 . S
C1015 C1008 1.399 . S
C1015 C1012 1.487 . S
C1015 N1032 1.343 . S
H1016 C988 0.931 . S
H1017 C990 0.930 . S
H1018 C992 0.930 . S
H1019 C993 0.931 . S
H1020 C995 0.931 . S
H1021 C997 0.930 . S
H1022 C999 0.930 . S
H1023 C1000 0.931 . S
H1024 C1002 0.931 . S
H1025 C1004 0.930 . S
H1026 C1006 0.930 . S
H1027 C1007 0.931 . S
H1028 C1009 0.931 . S
H1029 C1011 0.930 . S
H1030 C1013 0.930 . S
H1031 C1014 0.931 . S
N1032 C994 1.343 . S
N1032 C1015 1.343 . S
N1033 C1001 1.343 . S
N1033 C1008 1.343 . S
C1034 C1035 1.384 . S
C1034 C1036 1.384 . S
C1034 H1062 0.931 . S
C1035 C1034 1.384 . S
C1035 C1038 1.382 . S
C1036 C1034 1.384 . S
C1036 C1037 1.381 . S
C1036 H1063 0.930 . S
C1037 C1036 1.381 . S
C1037 C1039 1.381 . S
C1037 C1040 1.487 . S
C1038 C1035 1.382 . S
C1038 C1039 1.387 . S
C1038 H1064 0.930 . S
C1039 C1037 1.381 . S
C1039 C1038 1.387 . S
C1039 H1065 0.931 . S
C1040 C1037 1.487 . S
C1040 C1047 1.399 . S
C1040 N1078 1.343 . S
C1041 C1042 1.384 . S
C1041 C1043 1.384 . S
C1041 H1066 0.931 . S
C1042 C1041 1.384 . S
C1042 C1045 1.382 . S
C1043 C1041 1.384 . S
C1043 C1044 1.381 . S
C1043 H1067 0.930 . S
C1044 C1043 1.381 . S
C1044 C1046 1.381 . S
C1044 C1047 1.487 . S
C1045 C1042 1.382 . S
C1045 C1046 1.387 . S
C1045 H1068 0.930 . S
C1046 C1044 1.381 . S
C1046 C1045 1.387 . S
C1046 H1069 0.931 . S
C1047 C1040 1.399 . S
C1047 C1044 1.487 . S
C1047 N1079 1.343 . S
C1048 C1049 1.384 . S
C1048 C1050 1.384 . S
C1048 H1070 0.931 . S
C1049 C1048 1.384 . S
C1049 C1052 1.382 . S
C1050 C1048 1.384 . S
C1050 C1051 1.381 . S
C1050 H1071 0.930 . S
C1051 C1050 1.381 . S
C1051 C1053 1.381 . S
C1051 C1054 1.487 . S
C1052 C1049 1.382 . S
C1052 C1053 1.387 . S
C1052 H1072 0.930 . S
C1053 C1051 1.381 . S
C1053 C1052 1.387 . S
C1053 H1073 0.931 . S
C1054 C1051 1.487 . S
C1054 C1061 1.399 . S
C1054 N1079 1.343 . S
C1055 C1056 1.384 . S
C1055 C1057 1.384 . S
C1055 H1074 0.931 . S
C1056 C1055 1.384 . S
C1056 C1059 1.382 . S
C1057 C1055 1.384 . S
C1057 C1058 1.381 . S
C1057 H1075 0.930 . S
C1058 C1057 1.381 . S
C1058 C1060 1.381 . S
C1058 C1061 1.487 . S
C1059 C1056 1.382 . S
C1059 C1060 1.387 . S
C1059 H1076 0.930 . S
C1060 C1058 1.381 . S
C1060 C1059 1.387 . S
C1060 H1077 0.931 . S
C1061 C1054 1.399 . S
C1061 C1058 1.487 . S
C1061 N1078 1.343 . S
H1062 C1034 0.931 . S
H1063 C1036 0.930 . S
H1064 C1038 0.930 . S
H1065 C1039 0.931 . S
H1066 C1041 0.931 . S
H1067 C1043 0.930 . S
H1068 C1045 0.930 . S
H1069 C1046 0.931 . S
H1070 C1048 0.931 . S
H1071 C1050 0.930 . S
H1072 C1052 0.930 . S
H1073 C1053 0.931 . S
H1074 C1055 0.931 . S
H1075 C1057 0.930 . S
H1076 C1059 0.930 . S
H1077 C1060 0.931 . S
N1078 C1040 1.343 . S
N1078 C1061 1.343 . S
N1079 C1047 1.343 . S
N1079 C1054 1.343 . S
H1080 C1088 0.950 . S
H1081 C1093 0.950 . S
H1082 C1090 0.950 . S
H1083 C1092 0.950 . S
H1084 C1094 0.950 . S
H1085 C1096 0.950 . S
H1086 C1098 0.950 . S
H1087 C1099 0.950 . S
C1088 H1080 0.950 . S
C1088 C1089 1.386 . S
C1088 C1090 1.391 . S
C1089 C1088 1.386 . S
C1089 C1093 1.393 1_655 S
C1090 H1082 0.950 . S
C1090 C1088 1.391 . S
C1090 C1091 1.400 . S
C1091 C1090 1.400 . S
C1091 C1092 1.398 1_655 S
C1091 C1097 1.491 . S
C1092 H1083 0.950 . S
C1092 C1091 1.398 1_455 S
C1092 C1093 1.391 . S
C1093 H1081 0.950 . S
C1093 C1089 1.393 1_455 S
C1093 C1092 1.391 . S
C1094 H1084 0.950 . S
C1094 C1095 1.386 1_455 S
C1094 C1096 1.391 . S
C1095 C1094 1.386 1_655 S
C1095 C1099 1.393 . S
C1096 H1085 0.950 . S
C1096 C1094 1.391 . S
C1096 C1097 1.400 1_455 S
C1097 C1091 1.491 . S
C1097 C1096 1.400 1_655 S
C1097 C1098 1.398 . S
C1098 H1086 0.950 . S
C1098 C1097 1.398 . S
C1098 C1099 1.391 . S
C1099 H1087 0.950 . S
C1099 C1095 1.393 . S
C1099 C1098 1.391 . S
H1100 C1108 0.950 . S
H1101 C1113 0.950 . S
H1102 C1110 0.950 . S
H1103 C1112 0.950 . S
H1104 C1114 0.950 . S
H1105 C1116 0.950 . S
H1106 C1118 0.950 . S
H1107 C1119 0.950 . S
C1108 H1100 0.950 . S
C1108 C1109 1.386 . S
C1108 C1110 1.391 . S
C1109 C1108 1.386 . S
C1109 C1113 1.393 . S
C1110 H1102 0.950 . S
C1110 C1108 1.391 . S
C1110 C1111 1.400 . S
C1111 C1110 1.400 . S
C1111 C1112 1.398 . S
C1111 C1117 1.491 . S
C1112 H1103 0.950 . S
C1112 C1111 1.398 . S
C1112 C1113 1.391 . S
C1113 H1101 0.950 . S
C1113 C1109 1.393 . S
C1113 C1112 1.391 . S
C1114 H1104 0.950 . S
C1114 C1115 1.386 . S
C1114 C1116 1.391 . S
C1115 C1114 1.386 . S
C1115 C1119 1.393 . S
C1116 H1105 0.950 . S
C1116 C1114 1.391 . S
C1116 C1117 1.400 . S
C1117 C1111 1.491 . S
C1117 C1116 1.400 . S
C1117 C1118 1.398 . S
C1118 H1106 0.950 . S
C1118 C1117 1.398 . S
C1118 C1119 1.391 . S
C1119 H1107 0.950 . S
C1119 C1115 1.393 . S
C1119 C1118 1.391 . S
H1120 C1128 0.956 . S
H1121 C1133 0.950 . S
H1122 C1130 0.950 . S
H1123 C1132 0.950 . S
H1124 C1134 0.950 . S
H1125 C1136 0.950 . S
H1126 C1138 0.950 . S
H1127 C1139 0.950 . S
C1128 H1120 0.956 . S
C1128 C1129 1.352 1_565 S
C1128 C1130 1.423 . S
C1129 C1128 1.352 1_545 S
C1129 C1133 1.393 . S
C1130 H1122 0.950 . S
C1130 C1128 1.423 . S
C1130 C1131 1.400 1_565 S
C1131 C1130 1.400 1_545 S
C1131 C1132 1.398 . S
C1131 C1137 1.491 . S
C1132 H1123 0.950 . S
C1132 C1131 1.398 . S
C1132 C1133 1.391 . S
C1133 H1121 0.950 . S
C1133 C1129 1.393 . S
C1133 C1132 1.391 . S
C1134 H1124 0.950 . S
C1134 C1135 1.386 . S
C1134 C1136 1.391 . S
C1135 C1134 1.386 . S
C1135 C1139 1.393 1_545 S
C1136 H1125 0.950 . S
C1136 C1134 1.391 . S
C1136 C1137 1.400 . S
C1137 C1131 1.491 . S
C1137 C1136 1.400 . S
C1137 C1138 1.398 1_545 S
C1138 H1126 0.950 . S
C1138 C1137 1.398 1_565 S
C1138 C1139 1.391 . S
C1139 H1127 0.950 . S
C1139 C1135 1.393 1_565 S
C1139 C1138 1.391 . S
H1140 C1148 0.950 . S
H1141 C1153 0.909 1_545 S
H1142 C1150 0.950 . S
H1143 C1152 0.980 . S
H1144 C1154 0.950 . S
H1145 C1156 0.950 . S
H1146 C1158 0.950 . S
H1147 C1159 0.950 . S
C1148 H1140 0.950 . S
C1148 C1149 1.386 . S
C1148 C1150 1.391 . S
C1149 C1148 1.386 . S
C1149 C1153 1.419 . S
C1150 H1142 0.950 . S
C1150 C1148 1.391 . S
C1150 C1151 1.400 . S
C1151 C1150 1.400 . S
C1151 C1152 1.353 1_565 S
C1151 C1157 1.491 . S
C1152 H1143 0.980 . S
C1152 C1151 1.353 1_545 S
C1152 C1153 1.426 1_545 S
C1153 H1141 0.909 1_565 S
C1153 C1149 1.419 . S
C1153 C1152 1.426 1_565 S
C1154 H1144 0.950 . S
C1154 C1155 1.386 1_545 S
C1154 C1156 1.391 . S
C1155 C1154 1.386 1_565 S
C1155 C1159 1.393 . S
C1156 H1145 0.950 . S
C1156 C1154 1.391 . S
C1156 C1157 1.400 1_545 S
C1157 C1151 1.491 . S
C1157 C1156 1.400 1_565 S
C1157 C1158 1.398 . S
C1158 H1146 0.950 . S
C1158 C1157 1.398 . S
C1158 C1159 1.391 . S
C1159 H1147 0.950 . S
C1159 C1155 1.393 . S
C1159 C1158 1.391 . S
H1160 C1168 0.950 . S
H1161 C1173 0.973 . S
H1162 C1170 0.950 . S
H1163 C1172 0.950 . S
H1164 C1174 0.950 . S
H1165 C1176 0.950 . S
H1166 C1178 0.950 . S
H1167 C1179 0.950 . S
C1168 H1160 0.950 . S
C1168 C1169 1.386 . S
C1168 C1170 1.391 . S
C1169 C1168 1.386 . S
C1169 C1173 1.348 1_455 S
C1170 H1162 0.950 . S
C1170 C1168 1.391 . S
C1170 C1171 1.400 . S
C1171 C1170 1.400 . S
C1171 C1172 1.398 1_455 S
C1171 C1177 1.491 . S
C1172 H1163 0.950 . S
C1172 C1171 1.398 1_655 S
C1172 C1173 1.414 . S
C1173 H1161 0.973 . S
C1173 C1169 1.348 1_655 S
C1173 C1172 1.414 . S
C1174 H1164 0.950 . S
C1174 C1175 1.386 1_655 S
C1174 C1176 1.391 . S
C1175 C1174 1.386 1_455 S
C1175 C1179 1.393 . S
C1176 H1165 0.950 . S
C1176 C1174 1.391 . S
C1176 C1177 1.400 1_655 S
C1177 C1171 1.491 . S
C1177 C1176 1.400 1_455 S
C1177 C1178 1.398 . S
C1178 H1166 0.950 . S
C1178 C1177 1.398 . S
C1178 C1179 1.391 . S
C1179 H1167 0.950 . S
C1179 C1175 1.393 . S
C1179 C1178 1.391 . S
H1180 C1188 0.950 . S
H1181 C1193 0.950 . S
H1182 C1190 0.950 . S
H1183 C1192 0.950 . S
H1184 C1194 0.950 . S
H1185 C1196 0.950 . S
H1186 C1198 0.950 . S
H1187 C1199 0.950 . S
C1188 H1180 0.950 . S
C1188 C1189 1.386 . S
C1188 C1190 1.391 . S
C1189 C1188 1.386 . S
C1189 C1193 1.393 . S
C1190 H1182 0.950 . S
C1190 C1188 1.391 . S
C1190 C1191 1.400 . S
C1191 C1190 1.400 . S
C1191 C1192 1.398 . S
C1191 C1197 1.491 . S
C1192 H1183 0.950 . S
C1192 C1191 1.398 . S
C1192 C1193 1.391 . S
C1193 H1181 0.950 . S
C1193 C1189 1.393 . S
C1193 C1192 1.391 . S
C1194 H1184 0.950 . S
C1194 C1195 1.386 . S
C1194 C1196 1.391 . S
C1195 C1194 1.386 . S
C1195 C1199 1.393 . S
C1196 H1185 0.950 . S
C1196 C1194 1.391 . S
C1196 C1197 1.400 . S
C1197 C1191 1.491 . S
C1197 C1196 1.400 . S
C1197 C1198 1.398 . S
C1198 H1186 0.950 . S
C1198 C1197 1.398 . S
C1198 C1199 1.391 . S
C1199 H1187 0.950 . S
C1199 C1195 1.393 . S
C1199 C1198 1.391 . S
H1200 C1208 0.950 . S
H1201 C1213 0.950 . S
H1202 C1210 0.950 . S
H1203 C1212 0.950 . S
H1204 C1214 0.950 . S
H1205 C1216 0.950 . S
H1206 C1218 0.950 . S
H1207 C1219 0.950 . S
C1208 H1200 0.950 . S
C1208 C1209 1.386 1_655 S
C1208 C1210 1.391 . S
C1209 C1208 1.386 1_455 S
C1209 C1213 1.393 . S
C1210 H1202 0.950 . S
C1210 C1208 1.391 . S
C1210 C1211 1.400 1_655 S
C1211 C1210 1.400 1_455 S
C1211 C1212 1.398 . S
C1211 C1217 1.491 . S
C1212 H1203 0.950 . S
C1212 C1211 1.398 . S
C1212 C1213 1.391 . S
C1213 H1201 0.950 . S
C1213 C1209 1.393 . S
C1213 C1212 1.391 . S
C1214 H1204 0.950 . S
C1214 C1215 1.386 . S
C1214 C1216 1.391 . S
C1215 C1214 1.386 . S
C1215 C1219 1.393 1_455 S
C1216 H1205 0.950 . S
C1216 C1214 1.391 . S
C1216 C1217 1.400 . S
C1217 C1211 1.491 . S
C1217 C1216 1.400 . S
C1217 C1218 1.398 1_455 S
C1218 H1206 0.950 . S
C1218 C1217 1.398 1_655 S
C1218 C1219 1.391 . S
C1219 H1207 0.950 . S
C1219 C1215 1.393 1_655 S
C1219 C1218 1.391 . S
H1220 C1228 0.950 . S
H1221 C1233 0.950 . S
H1222 C1230 0.950 . S
H1223 C1232 0.950 . S
H1224 C1234 0.950 . S
H1225 C1236 0.950 . S
H1226 C1238 0.950 . S
H1227 C1239 0.950 . S
C1228 H1220 0.950 . S
C1228 C1229 1.386 . S
C1228 C1230 1.391 . S
C1229 C1228 1.386 . S
C1229 C1233 1.393 . S
C1230 H1222 0.950 . S
C1230 C1228 1.391 . S
C1230 C1231 1.400 . S
C1231 C1230 1.400 . S
C1231 C1232 1.398 . S
C1231 C1237 1.491 . S
C1232 H1223 0.950 . S
C1232 C1231 1.398 . S
C1232 C1233 1.391 . S
C1233 H1221 0.950 . S
C1233 C1229 1.393 . S
C1233 C1232 1.391 . S
C1234 H1224 0.950 . S
C1234 C1235 1.386 . S
C1234 C1236 1.391 . S
C1235 C1234 1.386 . S
C1235 C1239 1.393 . S
C1236 H1225 0.950 . S
C1236 C1234 1.391 . S
C1236 C1237 1.400 . S
C1237 C1231 1.491 . S
C1237 C1236 1.400 . S
C1237 C1238 1.398 . S
C1238 H1226 0.950 . S
C1238 C1237 1.398 . S
C1238 C1239 1.391 . S
C1239 H1227 0.950 . S
C1239 C1235 1.393 . S
C1239 C1238 1.391 . S
H1240 C1248 0.950 . S
H1241 C1253 0.950 . S
H1242 C1250 0.950 . S
H1243 C1252 0.950 . S
H1244 C1254 0.950 . S
H1245 C1256 0.950 . S
H1246 C1258 0.950 . S
H1247 C1259 0.950 . S
C1248 H1240 0.950 . S
C1248 C1249 1.386 1_545 S
C1248 C1250 1.391 . S
C1249 C1248 1.386 1_565 S
C1249 C1253 1.393 . S
C1250 H1242 0.950 . S
C1250 C1248 1.391 . S
C1250 C1251 1.400 1_545 S
C1251 C1250 1.400 1_565 S
C1251 C1252 1.398 . S
C1251 C1257 1.491 . S
C1252 H1243 0.950 . S
C1252 C1251 1.398 . S
C1252 C1253 1.391 . S
C1253 H1241 0.950 . S
C1253 C1249 1.393 . S
C1253 C1252 1.391 . S
C1254 H1244 0.950 . S
C1254 C1255 1.386 . S
C1254 C1256 1.391 . S
C1255 C1254 1.386 . S
C1255 C1259 1.393 1_565 S
C1256 H1245 0.950 . S
C1256 C1254 1.391 . S
C1256 C1257 1.400 . S
C1257 C1251 1.491 . S
C1257 C1256 1.400 . S
C1257 C1258 1.398 1_565 S
C1258 H1246 0.950 . S
C1258 C1257 1.398 1_545 S
C1258 C1259 1.391 . S
C1259 H1247 0.950 . S
C1259 C1255 1.393 1_545 S
C1259 C1258 1.391 . S
H1260 C1268 0.950 . S
H1261 C1273 0.950 . S
H1262 C1270 0.950 . S
H1263 C1272 0.950 . S
H1264 C1274 0.950 1_565 S
H1265 C1276 0.950 . S
H1266 C1278 0.950 . S
H1267 C1279 0.950 . S
C1268 H1260 0.950 . S
C1268 C1269 1.386 . S
C1268 C1270 1.391 . S
C1269 C1268 1.386 . S
C1269 C1273 1.393 . S
C1270 H1262 0.950 . S
C1270 C1268 1.391 . S
C1270 C1271 1.400 . S
C1271 C1270 1.400 . S
C1271 C1272 1.398 . S
C1271 C1277 1.491 . S
C1272 H1263 0.950 . S
C1272 C1271 1.398 . S
C1272 C1273 1.391 . S
C1273 H1261 0.950 . S
C1273 C1269 1.393 . S
C1273 C1272 1.391 . S
C1274 H1264 0.950 1_545 S
C1274 C1275 1.386 . S
C1274 C1276 1.391 . S
C1275 C1274 1.386 . S
C1275 C1279 1.393 . S
C1276 H1265 0.950 . S
C1276 C1274 1.391 . S
C1276 C1277 1.400 . S
C1277 C1271 1.491 . S
C1277 C1276 1.400 . S
C1277 C1278 1.398 . S
C1278 H1266 0.950 . S
C1278 C1277 1.398 . S
C1278 C1279 1.391 . S
C1279 H1267 0.950 . S
C1279 C1275 1.393 . S
C1279 C1278 1.391 . S
H1280 C1288 0.950 . S
H1281 C1293 0.950 . S
H1282 C1290 0.950 . S
H1283 C1292 0.950 . S
H1284 C1294 0.911 1_455 S
H1285 C1296 0.950 . S
H1286 C1298 0.950 . S
H1287 C1299 0.950 . S
C1288 H1280 0.950 . S
C1288 C1289 1.386 . S
C1288 C1290 1.391 . S
C1289 C1288 1.386 . S
C1289 C1293 1.393 . S
C1290 H1282 0.950 . S
C1290 C1288 1.391 . S
C1290 C1291 1.400 . S
C1291 C1290 1.400 . S
C1291 C1292 1.398 . S
C1291 C1297 1.491 . S
C1292 H1283 0.950 . S
C1292 C1291 1.398 . S
C1292 C1293 1.391 . S
C1293 H1281 0.950 . S
C1293 C1289 1.393 . S
C1293 C1292 1.391 . S
C1294 H1284 0.911 1_655 S
C1294 C1295 1.386 . S
C1294 C1296 1.391 . S
C1295 C1294 1.386 . S
C1295 C1299 1.393 . S
C1296 H1285 0.950 . S
C1296 C1294 1.391 . S
C1296 C1297 1.400 . S
C1297 C1291 1.491 . S
C1297 C1296 1.400 . S
C1297 C1298 1.398 . S
C1298 H1286 0.950 . S
C1298 C1297 1.398 . S
C1298 C1299 1.391 . S
C1299 H1287 0.950 . S
C1299 C1295 1.393 . S
C1299 C1298 1.391 . S
H1300 C1308 0.950 . S
H1301 C1313 0.950 . S
H1302 C1310 0.950 . S
H1303 C1312 0.950 . S
H1304 C1314 0.950 . S
H1305 C1316 0.950 . S
H1306 C1318 0.950 . S
H1307 C1319 0.950 . S
C1308 H1300 0.950 . S
C1308 C1309 1.386 . S
C1308 C1310 1.391 . S
C1309 C1308 1.386 . S
C1309 C1313 1.393 . S
C1310 H1302 0.950 . S
C1310 C1308 1.391 . S
C1310 C1311 1.400 . S
C1311 C1310 1.400 . S
C1311 C1312 1.398 . S
C1311 C1317 1.491 . S
C1312 H1303 0.950 . S
C1312 C1311 1.398 . S
C1312 C1313 1.391 . S
C1313 H1301 0.950 . S
C1313 C1309 1.393 . S
C1313 C1312 1.391 . S
C1314 H1304 0.950 . S
C1314 C1315 1.386 . S
C1314 C1316 1.391 . S
C1315 C1314 1.386 . S
C1315 C1319 1.393 . S
C1316 H1305 0.950 . S
C1316 C1314 1.391 . S
C1316 C1317 1.400 . S
C1317 C1311 1.491 . S
C1317 C1316 1.400 . S
C1317 C1318 1.398 . S
C1318 H1306 0.950 . S
C1318 C1317 1.398 . S
C1318 C1319 1.391 . S
C1319 H1307 0.950 . S
C1319 C1315 1.393 . S
C1319 C1318 1.391 . S
H1320 C1328 0.950 . S
H1321 C1333 0.950 . S
H1322 C1330 0.950 . S
H1323 C1332 0.950 . S
H1324 C1334 0.950 . S
H1325 C1336 0.950 . S
H1326 C1338 0.950 . S
H1327 C1339 0.950 . S
C1328 H1320 0.950 . S
C1328 C1329 1.386 . S
C1328 C1330 1.391 . S
C1329 C1328 1.386 . S
C1329 C1333 1.393 . S
C1330 H1322 0.950 . S
C1330 C1328 1.391 . S
C1330 C1331 1.400 . S
C1331 C1330 1.400 . S
C1331 C1332 1.398 . S
C1331 C1337 1.491 . S
C1332 H1323 0.950 . S
C1332 C1331 1.398 . S
C1332 C1333 1.391 . S
C1333 H1321 0.950 . S
C1333 C1329 1.393 . S
C1333 C1332 1.391 . S
C1334 H1324 0.950 . S
C1334 C1335 1.386 . S
C1334 C1336 1.391 . S
C1335 C1334 1.386 . S
C1335 C1339 1.393 . S
C1336 H1325 0.950 . S
C1336 C1334 1.391 . S
C1336 C1337 1.400 . S
C1337 C1331 1.491 . S
C1337 C1336 1.400 . S
C1337 C1338 1.398 . S
C1338 H1326 0.950 . S
C1338 C1337 1.398 . S
C1338 C1339 1.391 . S
C1339 H1327 0.950 . S
C1339 C1335 1.393 . S
C1339 C1338 1.391 . S
H1340 C1348 0.950 . S
H1341 C1353 0.950 . S
H1342 C1350 0.950 . S
H1343 C1352 0.950 . S
H1344 C1354 0.950 . S
H1345 C1356 0.950 . S
H1346 C1358 0.950 . S
H1347 C1359 0.950 . S
C1348 H1340 0.950 . S
C1348 C1349 1.386 . S
C1348 C1350 1.391 . S
C1349 C1348 1.386 . S
C1349 C1353 1.393 . S
C1350 H1342 0.950 . S
C1350 C1348 1.391 . S
C1350 C1351 1.400 . S
C1351 C1350 1.400 . S
C1351 C1352 1.398 . S
C1351 C1357 1.491 . S
C1352 H1343 0.950 . S
C1352 C1351 1.398 . S
C1352 C1353 1.391 . S
C1353 H1341 0.950 . S
C1353 C1349 1.393 . S
C1353 C1352 1.391 . S
C1354 H1344 0.950 . S
C1354 C1355 1.386 . S
C1354 C1356 1.391 . S
C1355 C1354 1.386 . S
C1355 C1359 1.393 . S
C1356 H1345 0.950 . S
C1356 C1354 1.391 . S
C1356 C1357 1.400 . S
C1357 C1351 1.491 . S
C1357 C1356 1.400 . S
C1357 C1358 1.398 . S
C1358 H1346 0.950 . S
C1358 C1357 1.398 . S
C1358 C1359 1.391 . S
C1359 H1347 0.950 . S
C1359 C1355 1.393 . S
C1359 C1358 1.391 . S
H1360 C1368 0.950 . S
H1361 C1373 0.950 . S
H1362 C1370 0.950 . S
H1363 C1372 0.950 . S
H1364 C1374 0.950 . S
H1365 C1376 0.950 . S
H1366 C1378 0.950 . S
H1367 C1379 0.950 . S
C1368 H1360 0.950 . S
C1368 C1369 1.386 . S
C1368 C1370 1.391 . S
C1369 C1368 1.386 . S
C1369 C1373 1.393 . S
C1370 H1362 0.950 . S
C1370 C1368 1.391 . S
C1370 C1371 1.400 . S
C1371 C1370 1.400 . S
C1371 C1372 1.398 . S
C1371 C1377 1.491 . S
C1372 H1363 0.950 . S
C1372 C1371 1.398 . S
C1372 C1373 1.391 . S
C1373 H1361 0.950 . S
C1373 C1369 1.393 . S
C1373 C1372 1.391 . S
C1374 H1364 0.950 . S
C1374 C1375 1.386 . S
C1374 C1376 1.391 . S
C1375 C1374 1.386 . S
C1375 C1379 1.393 . S
C1376 H1365 0.950 . S
C1376 C1374 1.391 . S
C1376 C1377 1.400 . S
C1377 C1371 1.491 . S
C1377 C1376 1.400 . S
C1377 C1378 1.398 . S
C1378 H1366 0.950 . S
C1378 C1377 1.398 . S
C1378 C1379 1.391 . S
C1379 H1367 0.950 . S
C1379 C1375 1.393 . S
C1379 C1378 1.391 . S
H1380 C1388 0.950 . S
H1381 C1393 0.950 . S
H1382 C1390 0.950 . S
H1383 C1392 0.950 . S
H1384 C1394 0.950 . S
H1385 C1396 0.950 . S
H1386 C1398 0.950 . S
H1387 C1399 0.950 . S
C1388 H1380 0.950 . S
C1388 C1389 1.386 . S
C1388 C1390 1.391 . S
C1389 C1388 1.386 . S
C1389 C1393 1.393 . S
C1390 H1382 0.950 . S
C1390 C1388 1.391 . S
C1390 C1391 1.400 . S
C1391 C1390 1.400 . S
C1391 C1392 1.398 . S
C1391 C1397 1.491 . S
C1392 H1383 0.950 . S
C1392 C1391 1.398 . S
C1392 C1393 1.391 . S
C1393 H1381 0.950 . S
C1393 C1389 1.393 . S
C1393 C1392 1.391 . S
C1394 H1384 0.950 . S
C1394 C1395 1.386 . S
C1394 C1396 1.391 . S
C1395 C1394 1.386 . S
C1395 C1399 1.393 . S
C1396 H1385 0.950 . S
C1396 C1394 1.391 . S
C1396 C1397 1.400 . S
C1397 C1391 1.491 . S
C1397 C1396 1.400 . S
C1397 C1398 1.398 . S
C1398 H1386 0.950 . S
C1398 C1397 1.398 . S
C1398 C1399 1.391 . S
C1399 H1387 0.950 . S
C1399 C1395 1.393 . S
C1399 C1398 1.391 . S
H1400 C1408 0.950 . S
H1401 C1413 0.950 . S
H1402 C1410 0.950 . S
H1403 C1412 0.950 . S
H1404 C1414 0.950 . S
H1405 C1416 0.950 . S
H1406 C1418 0.950 . S
H1407 C1419 0.950 . S
C1408 H1400 0.950 . S
C1408 C1409 1.386 . S
C1408 C1410 1.391 . S
C1409 C1408 1.386 . S
C1409 C1413 1.393 . S
C1410 H1402 0.950 . S
C1410 C1408 1.391 . S
C1410 C1411 1.400 . S
C1411 C1410 1.400 . S
C1411 C1412 1.398 . S
C1411 C1417 1.491 . S
C1412 H1403 0.950 . S
C1412 C1411 1.398 . S
C1412 C1413 1.391 . S
C1413 H1401 0.950 . S
C1413 C1409 1.393 . S
C1413 C1412 1.391 . S
C1414 H1404 0.950 . S
C1414 C1415 1.386 . S
C1414 C1416 1.391 . S
C1415 C1414 1.386 . S
C1415 C1419 1.393 . S
C1416 H1405 0.950 . S
C1416 C1414 1.391 . S
C1416 C1417 1.400 . S
C1417 C1411 1.491 . S
C1417 C1416 1.400 . S
C1417 C1418 1.398 . S
C1418 H1406 0.950 . S
C1418 C1417 1.398 . S
C1418 C1419 1.391 . S
C1419 H1407 0.950 . S
C1419 C1415 1.393 . S
C1419 C1418 1.391 . S
H1420 C1428 0.950 . S
H1421 C1433 0.950 . S
H1422 C1430 0.950 . S
H1423 C1432 0.950 . S
H1424 C1434 0.950 . S
H1425 C1436 0.950 . S
H1426 C1438 0.950 . S
H1427 C1439 0.950 . S
C1428 H1420 0.950 . S
C1428 C1429 1.386 . S
C1428 C1430 1.391 . S
C1429 C1428 1.386 . S
C1429 C1433 1.393 . S
C1430 H1422 0.950 . S
C1430 C1428 1.391 . S
C1430 C1431 1.400 . S
C1431 C1430 1.400 . S
C1431 C1432 1.398 . S
C1431 C1437 1.491 . S
C1432 H1423 0.950 . S
C1432 C1431 1.398 . S
C1432 C1433 1.391 . S
C1433 H1421 0.950 . S
C1433 C1429 1.393 . S
C1433 C1432 1.391 . S
C1434 H1424 0.950 . S
C1434 C1435 1.386 . S
C1434 C1436 1.391 . S
C1435 C1434 1.386 . S
C1435 C1439 1.393 . S
C1436 H1425 0.950 . S
C1436 C1434 1.391 . S
C1436 C1437 1.400 . S
C1437 C1431 1.491 . S
C1437 C1436 1.400 . S
C1437 C1438 1.398 . S
C1438 H1426 0.950 . S
C1438 C1437 1.398 . S
C1438 C1439 1.391 . S
C1439 H1427 0.950 . S
C1439 C1435 1.393 . S
C1439 C1438 1.391 . S
H1440 C1448 0.950 . S
H1441 C1453 0.950 . S
H1442 C1450 0.950 . S
H1443 C1452 0.950 . S
H1444 C1454 0.950 . S
H1445 C1456 0.950 . S
H1446 C1458 0.950 . S
H1447 C1459 0.950 . S
C1448 H1440 0.950 . S
C1448 C1449 1.386 . S
C1448 C1450 1.391 . S
C1449 C1448 1.386 . S
C1449 C1453 1.393 . S
C1450 H1442 0.950 . S
C1450 C1448 1.391 . S
C1450 C1451 1.400 . S
C1451 C1450 1.400 . S
C1451 C1452 1.398 . S
C1451 C1457 1.491 . S
C1452 H1443 0.950 . S
C1452 C1451 1.398 . S
C1452 C1453 1.391 . S
C1453 H1441 0.950 . S
C1453 C1449 1.393 . S
C1453 C1452 1.391 . S
C1454 H1444 0.950 . S
C1454 C1455 1.386 . S
C1454 C1456 1.391 . S
C1455 C1454 1.386 . S
C1455 C1459 1.393 . S
C1456 H1445 0.950 . S
C1456 C1454 1.391 . S
C1456 C1457 1.400 . S
C1457 C1451 1.491 . S
C1457 C1456 1.400 . S
C1457 C1458 1.398 . S
C1458 H1446 0.950 . S
C1458 C1457 1.398 . S
C1458 C1459 1.391 . S
C1459 H1447 0.950 . S
C1459 C1455 1.393 . S
C1459 C1458 1.391 . S
H1460 C1468 0.950 . S
H1461 C1473 0.950 . S
H1462 C1470 0.950 . S
H1463 C1472 0.950 . S
H1464 C1474 0.950 . S
H1465 C1476 0.950 . S
H1466 C1478 0.950 . S
H1467 C1479 0.950 . S
C1468 H1460 0.950 . S
C1468 C1469 1.386 . S
C1468 C1470 1.391 . S
C1469 C1468 1.386 . S
C1469 C1473 1.393 . S
C1470 H1462 0.950 . S
C1470 C1468 1.391 . S
C1470 C1471 1.400 . S
C1471 C1470 1.400 . S
C1471 C1472 1.398 . S
C1471 C1477 1.491 . S
C1472 H1463 0.950 . S
C1472 C1471 1.398 . S
C1472 C1473 1.391 . S
C1473 H1461 0.950 . S
C1473 C1469 1.393 . S
C1473 C1472 1.391 . S
C1474 H1464 0.950 . S
C1474 C1475 1.386 . S
C1474 C1476 1.391 . S
C1475 C1474 1.386 . S
C1475 C1479 1.393 . S
C1476 H1465 0.950 . S
C1476 C1474 1.391 . S
C1476 C1477 1.400 . S
C1477 C1471 1.491 . S
C1477 C1476 1.400 . S
C1477 C1478 1.398 . S
C1478 H1466 0.950 . S
C1478 C1477 1.398 . S
C1478 C1479 1.391 . S
C1479 H1467 0.950 . S
C1479 C1475 1.393 . S
C1479 C1478 1.391 . S
H1480 C1488 0.950 . S
H1481 C1493 0.950 . S
H1482 C1490 0.950 . S
H1483 C1492 0.950 . S
H1484 C1494 0.950 . S
H1485 C1496 0.950 . S
H1486 C1498 0.950 . S
H1487 C1499 0.950 . S
C1488 H1480 0.950 . S
C1488 C1489 1.386 . S
C1488 C1490 1.391 . S
C1489 C1488 1.386 . S
C1489 C1493 1.393 . S
C1490 H1482 0.950 . S
C1490 C1488 1.391 . S
C1490 C1491 1.400 . S
C1491 C1490 1.400 . S
C1491 C1492 1.398 . S
C1491 C1497 1.491 . S
C1492 H1483 0.950 . S
C1492 C1491 1.398 . S
C1492 C1493 1.391 . S
C1493 H1481 0.950 . S
C1493 C1489 1.393 . S
C1493 C1492 1.391 . S
C1494 H1484 0.950 . S
C1494 C1495 1.386 . S
C1494 C1496 1.391 . S
C1495 C1494 1.386 . S
C1495 C1499 1.393 . S
C1496 H1485 0.950 . S
C1496 C1494 1.391 . S
C1496 C1497 1.400 . S
C1497 C1491 1.491 . S
C1497 C1496 1.400 . S
C1497 C1498 1.398 . S
C1498 H1486 0.950 . S
C1498 C1497 1.398 . S
C1498 C1499 1.391 . S
C1499 H1487 0.950 . S
C1499 C1495 1.393 . S
C1499 C1498 1.391 . S
H1500 C1508 0.950 . S
H1501 C1513 0.950 . S
H1502 C1510 0.950 . S
H1503 C1512 0.950 . S
H1504 C1514 0.950 . S
H1505 C1516 0.950 . S
H1506 C1518 0.950 . S
H1507 C1519 0.950 . S
C1508 H1500 0.950 . S
C1508 C1509 1.386 . S
C1508 C1510 1.391 . S
C1509 C1508 1.386 . S
C1509 C1513 1.393 . S
C1510 H1502 0.950 . S
C1510 C1508 1.391 . S
C1510 C1511 1.400 . S
C1511 C1510 1.400 . S
C1511 C1512 1.398 . S
C1511 C1517 1.491 . S
C1512 H1503 0.950 . S
C1512 C1511 1.398 . S
C1512 C1513 1.391 . S
C1513 H1501 0.950 . S
C1513 C1509 1.393 . S
C1513 C1512 1.391 . S
C1514 H1504 0.950 . S
C1514 C1515 1.386 . S
C1514 C1516 1.391 . S
C1515 C1514 1.386 . S
C1515 C1519 1.393 . S
C1516 H1505 0.950 . S
C1516 C1514 1.391 . S
C1516 C1517 1.400 . S
C1517 C1511 1.491 . S
C1517 C1516 1.400 . S
C1517 C1518 1.398 . S
C1518 H1506 0.950 . S
C1518 C1517 1.398 . S
C1518 C1519 1.391 . S
C1519 H1507 0.950 . S
C1519 C1515 1.393 . S
C1519 C1518 1.391 . S
H1520 C1528 0.950 . S
H1521 C1533 0.950 . S
H1522 C1530 0.950 . S
H1523 C1532 0.950 . S
H1524 C1534 0.950 . S
H1525 C1536 0.950 . S
H1526 C1538 0.950 . S
H1527 C1539 0.950 . S
C1528 H1520 0.950 . S
C1528 C1529 1.386 . S
C1528 C1530 1.391 . S
C1529 C1528 1.386 . S
C1529 C1533 1.393 . S
C1530 H1522 0.950 . S
C1530 C1528 1.391 . S
C1530 C1531 1.400 . S
C1531 C1530 1.400 . S
C1531 C1532 1.398 . S
C1531 C1537 1.491 . S
C1532 H1523 0.950 . S
C1532 C1531 1.398 . S
C1532 C1533 1.391 . S
C1533 H1521 0.950 . S
C1533 C1529 1.393 . S
C1533 C1532 1.391 . S
C1534 H1524 0.950 . S
C1534 C1535 1.386 . S
C1534 C1536 1.391 . S
C1535 C1534 1.386 . S
C1535 C1539 1.393 . S
C1536 H1525 0.950 . S
C1536 C1534 1.391 . S
C1536 C1537 1.400 . S
C1537 C1531 1.491 . S
C1537 C1536 1.400 . S
C1537 C1538 1.398 . S
C1538 H1526 0.950 . S
C1538 C1537 1.398 . S
C1538 C1539 1.391 . S
C1539 H1527 0.950 . S
C1539 C1535 1.393 . S
C1539 C1538 1.391 . S
H1540 C1548 0.950 . S
H1541 C1553 0.950 . S
H1542 C1550 0.950 . S
H1543 C1552 0.950 . S
H1544 C1554 0.950 . S
H1545 C1556 0.950 . S
H1546 C1558 0.950 . S
H1547 C1559 0.950 . S
C1548 H1540 0.950 . S
C1548 C1549 1.386 . S
C1548 C1550 1.391 . S
C1549 C1548 1.386 . S
C1549 C1553 1.393 . S
C1550 H1542 0.950 . S
C1550 C1548 1.391 . S
C1550 C1551 1.400 . S
C1551 C1550 1.400 . S
C1551 C1552 1.398 . S
C1551 C1557 1.491 . S
C1552 H1543 0.950 . S
C1552 C1551 1.398 . S
C1552 C1553 1.391 . S
C1553 H1541 0.950 . S
C1553 C1549 1.393 . S
C1553 C1552 1.391 . S
C1554 H1544 0.950 . S
C1554 C1555 1.386 . S
C1554 C1556 1.391 . S
C1555 C1554 1.386 . S
C1555 C1559 1.393 . S
C1556 H1545 0.950 . S
C1556 C1554 1.391 . S
C1556 C1557 1.400 . S
C1557 C1551 1.491 . S
C1557 C1556 1.400 . S
C1557 C1558 1.398 . S
C1558 H1546 0.950 . S
C1558 C1557 1.398 . S
C1558 C1559 1.391 . S
C1559 H1547 0.950 . S
C1559 C1555 1.393 . S
C1559 C1558 1.391 . S
H1560 C1568 0.950 . S
H1561 C1573 0.950 . S
H1562 C1570 0.950 . S
H1563 C1572 0.950 . S
H1564 C1574 0.950 . S
H1565 C1576 0.950 . S
H1566 C1578 0.950 . S
H1567 C1579 0.950 . S
C1568 H1560 0.950 . S
C1568 C1569 1.386 . S
C1568 C1570 1.391 . S
C1569 C1568 1.386 . S
C1569 C1573 1.393 . S
C1570 H1562 0.950 . S
C1570 C1568 1.391 . S
C1570 C1571 1.400 . S
C1571 C1570 1.400 . S
C1571 C1572 1.398 . S
C1571 C1577 1.491 . S
C1572 H1563 0.950 . S
C1572 C1571 1.398 . S
C1572 C1573 1.391 . S
C1573 H1561 0.950 . S
C1573 C1569 1.393 . S
C1573 C1572 1.391 . S
C1574 H1564 0.950 . S
C1574 C1575 1.386 . S
C1574 C1576 1.391 . S
C1575 C1574 1.386 . S
C1575 C1579 1.393 . S
C1576 H1565 0.950 . S
C1576 C1574 1.391 . S
C1576 C1577 1.400 . S
C1577 C1571 1.491 . S
C1577 C1576 1.400 . S
C1577 C1578 1.398 . S
C1578 H1566 0.950 . S
C1578 C1577 1.398 . S
C1578 C1579 1.391 . S
C1579 H1567 0.950 . S
C1579 C1575 1.393 . S
C1579 C1578 1.391 . S
H1580 C1588 0.950 . S
H1581 C1593 0.950 . S
H1582 C1590 0.950 . S
H1583 C1592 0.950 . S
H1584 C1594 0.950 . S
H1585 C1596 0.950 . S
H1586 C1598 0.950 . S
H1587 C1599 0.950 . S
C1588 H1580 0.950 . S
C1588 C1589 1.386 . S
C1588 C1590 1.391 . S
C1589 C1588 1.386 . S
C1589 C1593 1.393 . S
C1590 H1582 0.950 . S
C1590 C1588 1.391 . S
C1590 C1591 1.400 . S
C1591 C1590 1.400 . S
C1591 C1592 1.398 . S
C1591 C1597 1.491 . S
C1592 H1583 0.950 . S
C1592 C1591 1.398 . S
C1592 C1593 1.391 . S
C1593 H1581 0.950 . S
C1593 C1589 1.393 . S
C1593 C1592 1.391 . S
C1594 H1584 0.950 . S
C1594 C1595 1.386 . S
C1594 C1596 1.391 . S
C1595 C1594 1.386 . S
C1595 C1599 1.393 . S
C1596 H1585 0.950 . S
C1596 C1594 1.391 . S
C1596 C1597 1.400 . S
C1597 C1591 1.491 . S
C1597 C1596 1.400 . S
C1597 C1598 1.398 . S
C1598 H1586 0.950 . S
C1598 C1597 1.398 . S
C1598 C1599 1.391 . S
C1599 H1587 0.950 . S
C1599 C1595 1.393 . S
C1599 C1598 1.391 . S
H1600 C1608 0.950 . S
H1601 C1613 0.950 . S
H1602 C1610 0.950 . S
H1603 C1612 0.950 . S
H1604 C1614 0.950 . S
H1605 C1616 0.950 . S
H1606 C1618 0.950 . S
H1607 C1619 0.950 . S
C1608 H1600 0.950 . S
C1608 C1609 1.386 . S
C1608 C1610 1.391 . S
C1609 C1608 1.386 . S
C1609 C1613 1.393 . S
C1610 H1602 0.950 . S
C1610 C1608 1.391 . S
C1610 C1611 1.400 . S
C1611 C1610 1.400 . S
C1611 C1612 1.398 . S
C1611 C1617 1.491 . S
C1612 H1603 0.950 . S
C1612 C1611 1.398 . S
C1612 C1613 1.391 . S
C1613 H1601 0.950 . S
C1613 C1609 1.393 . S
C1613 C1612 1.391 . S
C1614 H1604 0.950 . S
C1614 C1615 1.386 . S
C1614 C1616 1.391 . S
C1615 C1614 1.386 . S
C1615 C1619 1.393 . S
C1616 H1605 0.950 . S
C1616 C1614 1.391 . S
C1616 C1617 1.400 . S
C1617 C1611 1.491 . S
C1617 C1616 1.400 . S
C1617 C1618 1.398 . S
C1618 H1606 0.950 . S
C1618 C1617 1.398 . S
C1618 C1619 1.391 . S
C1619 H1607 0.950 . S
C1619 C1615 1.393 . S
C1619 C1618 1.391 . S
H1620 C1628 0.950 . S
H1621 C1633 0.950 . S
H1622 C1630 0.950 . S
H1623 C1632 0.950 . S
H1624 C1634 0.950 . S
H1625 C1636 0.950 . S
H1626 C1638 0.950 . S
H1627 C1639 0.950 . S
C1628 H1620 0.950 . S
C1628 C1629 1.386 . S
C1628 C1630 1.391 . S
C1629 C1628 1.386 . S
C1629 C1633 1.393 . S
C1630 H1622 0.950 . S
C1630 C1628 1.391 . S
C1630 C1631 1.400 . S
C1631 C1630 1.400 . S
C1631 C1632 1.398 . S
C1631 C1637 1.491 . S
C1632 H1623 0.950 . S
C1632 C1631 1.398 . S
C1632 C1633 1.391 . S
C1633 H1621 0.950 . S
C1633 C1629 1.393 . S
C1633 C1632 1.391 . S
C1634 H1624 0.950 . S
C1634 C1635 1.386 . S
C1634 C1636 1.391 . S
C1635 C1634 1.386 . S
C1635 C1639 1.393 . S
C1636 H1625 0.950 . S
C1636 C1634 1.391 . S
C1636 C1637 1.400 . S
C1637 C1631 1.491 . S
C1637 C1636 1.400 . S
C1637 C1638 1.398 . S
C1638 H1626 0.950 . S
C1638 C1637 1.398 . S
C1638 C1639 1.391 . S
C1639 H1627 0.950 . S
C1639 C1635 1.393 . S
C1639 C1638 1.391 . S
H1640 C1648 0.950 . S
H1641 C1653 0.950 . S
H1642 C1650 0.950 . S
H1643 C1652 0.950 . S
H1644 C1654 0.950 . S
H1645 C1656 0.950 . S
H1646 C1658 0.950 . S
H1647 C1659 0.950 . S
C1648 H1640 0.950 . S
C1648 C1649 1.386 . S
C1648 C1650 1.391 . S
C1649 C1648 1.386 . S
C1649 C1653 1.393 . S
C1650 H1642 0.950 . S
C1650 C1648 1.391 . S
C1650 C1651 1.400 . S
C1651 C1650 1.400 . S
C1651 C1652 1.398 . S
C1651 C1657 1.491 . S
C1652 H1643 0.950 . S
C1652 C1651 1.398 . S
C1652 C1653 1.391 . S
C1653 H1641 0.950 . S
C1653 C1649 1.393 . S
C1653 C1652 1.391 . S
C1654 H1644 0.950 . S
C1654 C1655 1.386 . S
C1654 C1656 1.391 . S
C1655 C1654 1.386 . S
C1655 C1659 1.393 . S
C1656 H1645 0.950 . S
C1656 C1654 1.391 . S
C1656 C1657 1.400 . S
C1657 C1651 1.491 . S
C1657 C1656 1.400 . S
C1657 C1658 1.398 . S
C1658 H1646 0.950 . S
C1658 C1657 1.398 . S
C1658 C1659 1.391 . S
C1659 H1647 0.950 . S
C1659 C1655 1.393 . S
C1659 C1658 1.391 . S
H1660 C1668 0.950 . S
H1661 C1673 0.950 . S
H1662 C1670 0.950 . S
H1663 C1672 0.950 . S
H1664 C1674 0.950 . S
H1665 C1676 0.950 . S
H1666 C1678 0.950 . S
H1667 C1679 0.950 . S
C1668 H1660 0.950 . S
C1668 C1669 1.386 . S
C1668 C1670 1.391 . S
C1669 C1668 1.386 . S
C1669 C1673 1.393 . S
C1670 H1662 0.950 . S
C1670 C1668 1.391 . S
C1670 C1671 1.400 . S
C1671 C1670 1.400 . S
C1671 C1672 1.398 . S
C1671 C1677 1.491 . S
C1672 H1663 0.950 . S
C1672 C1671 1.398 . S
C1672 C1673 1.391 . S
C1673 H1661 0.950 . S
C1673 C1669 1.393 . S
C1673 C1672 1.391 . S
C1674 H1664 0.950 . S
C1674 C1675 1.386 . S
C1674 C1676 1.391 . S
C1675 C1674 1.386 . S
C1675 C1679 1.393 . S
C1676 H1665 0.950 . S
C1676 C1674 1.391 . S
C1676 C1677 1.400 . S
C1677 C1671 1.491 . S
C1677 C1676 1.400 . S
C1677 C1678 1.398 . S
C1678 H1666 0.950 . S
C1678 C1677 1.398 . S
C1678 C1679 1.391 . S
C1679 H1667 0.950 . S
C1679 C1675 1.393 . S
C1679 C1678 1.391 . S
H1680 C1688 0.950 . S
H1681 C1693 0.950 . S
H1682 C1690 0.950 . S
H1683 C1692 0.950 . S
H1684 C1694 0.950 . S
H1685 C1696 0.950 . S
H1686 C1698 0.950 . S
H1687 C1699 0.950 . S
C1688 H1680 0.950 . S
C1688 C1689 1.386 . S
C1688 C1690 1.391 . S
C1689 C1688 1.386 . S
C1689 C1693 1.393 . S
C1690 H1682 0.950 . S
C1690 C1688 1.391 . S
C1690 C1691 1.400 . S
C1691 C1690 1.400 . S
C1691 C1692 1.398 . S
C1691 C1697 1.491 . S
C1692 H1683 0.950 . S
C1692 C1691 1.398 . S
C1692 C1693 1.391 . S
C1693 H1681 0.950 . S
C1693 C1689 1.393 . S
C1693 C1692 1.391 . S
C1694 H1684 0.950 . S
C1694 C1695 1.386 . S
C1694 C1696 1.391 . S
C1695 C1694 1.386 . S
C1695 C1699 1.393 . S
C1696 H1685 0.950 . S
C1696 C1694 1.391 . S
C1696 C1697 1.400 . S
C1697 C1691 1.491 . S
C1697 C1696 1.400 . S
C1697 C1698 1.398 . S
C1698 H1686 0.950 . S
C1698 C1697 1.398 . S
C1698 C1699 1.391 . S
C1699 H1687 0.950 . S
C1699 C1695 1.393 . S
C1699 C1698 1.391 . S
H1700 C1708 0.950 . S
H1701 C1713 0.950 . S
H1702 C1710 0.950 . S
H1703 C1712 0.950 . S
H1704 C1714 0.950 . S
H1705 C1716 0.950 . S
H1706 C1718 0.950 . S
H1707 C1719 0.950 . S
C1708 H1700 0.950 . S
C1708 C1709 1.386 . S
C1708 C1710 1.391 . S
C1709 C1708 1.386 . S
C1709 C1713 1.393 . S
C1710 H1702 0.950 . S
C1710 C1708 1.391 . S
C1710 C1711 1.400 . S
C1711 C1710 1.400 . S
C1711 C1712 1.398 . S
C1711 C1717 1.491 . S
C1712 H1703 0.950 . S
C1712 C1711 1.398 . S
C1712 C1713 1.391 . S
C1713 H1701 0.950 . S
C1713 C1709 1.393 . S
C1713 C1712 1.391 . S
C1714 H1704 0.950 . S
C1714 C1715 1.386 . S
C1714 C1716 1.391 . S
C1715 C1714 1.386 . S
C1715 C1719 1.393 . S
C1716 H1705 0.950 . S
C1716 C1714 1.391 . S
C1716 C1717 1.400 . S
C1717 C1711 1.491 . S
C1717 C1716 1.400 . S
C1717 C1718 1.398 . S
C1718 H1706 0.950 . S
C1718 C1717 1.398 . S
C1718 C1719 1.391 . S
C1719 H1707 0.950 . S
C1719 C1715 1.393 . S
C1719 C1718 1.391 . S
H1720 C1728 0.950 . S
H1721 C1733 0.950 . S
H1722 C1730 0.950 . S
H1723 C1732 0.950 . S
H1724 C1734 0.950 . S
H1725 C1736 0.950 . S
H1726 C1738 0.950 . S
H1727 C1739 0.950 . S
C1728 H1720 0.950 . S
C1728 C1729 1.386 . S
C1728 C1730 1.391 . S
C1729 C1728 1.386 . S
C1729 C1733 1.393 . S
C1730 H1722 0.950 . S
C1730 C1728 1.391 . S
C1730 C1731 1.400 . S
C1731 C1730 1.400 . S
C1731 C1732 1.398 . S
C1731 C1737 1.491 . S
C1732 H1723 0.950 . S
C1732 C1731 1.398 . S
C1732 C1733 1.391 . S
C1733 H1721 0.950 . S
C1733 C1729 1.393 . S
C1733 C1732 1.391 . S
C1734 H1724 0.950 . S
C1734 C1735 1.386 . S
C1734 C1736 1.391 . S
C1735 C1734 1.386 . S
C1735 C1739 1.393 . S
C1736 H1725 0.950 . S
C1736 C1734 1.391 . S
C1736 C1737 1.400 . S
C1737 C1731 1.491 . S
C1737 C1736 1.400 . S
C1737 C1738 1.398 . S
C1738 H1726 0.950 . S
C1738 C1737 1.398 . S
C1738 C1739 1.391 . S
C1739 H1727 0.950 . S
C1739 C1735 1.393 . S
C1739 C1738 1.391 . S
H1740 C1748 0.950 . S
H1741 C1753 0.950 . S
H1742 C1750 0.950 . S
H1743 C1752 0.950 . S
H1744 C1754 0.950 . S
H1745 C1756 0.950 . S
H1746 C1758 0.950 . S
H1747 C1759 0.950 . S
C1748 H1740 0.950 . S
C1748 C1749 1.386 . S
C1748 C1750 1.391 . S
C1749 C1748 1.386 . S
C1749 C1753 1.393 . S
C1750 H1742 0.950 . S
C1750 C1748 1.391 . S
C1750 C1751 1.400 . S
C1751 C1750 1.400 . S
C1751 C1752 1.398 . S
C1751 C1757 1.491 . S
C1752 H1743 0.950 . S
C1752 C1751 1.398 . S
C1752 C1753 1.391 . S
C1753 H1741 0.950 . S
C1753 C1749 1.393 . S
C1753 C1752 1.391 . S
C1754 H1744 0.950 . S
C1754 C1755 1.386 . S
C1754 C1756 1.391 . S
C1755 C1754 1.386 . S
C1755 C1759 1.393 . S
C1756 H1745 0.950 . S
C1756 C1754 1.391 . S
C1756 C1757 1.400 . S
C1757 C1751 1.491 . S
C1757 C1756 1.400 . S
C1757 C1758 1.398 . S
C1758 H1746 0.950 . S
C1758 C1757 1.398 . S
C1758 C1759 1.391 . S
C1759 H1747 0.950 . S
C1759 C1755 1.393 . S
C1759 C1758 1.391 . S
H1760 C1768 0.950 . S
H1761 C1773 0.950 . S
H1762 C1770 0.950 . S
H1763 C1772 0.950 . S
H1764 C1774 0.950 . S
H1765 C1776 0.950 . S
H1766 C1778 0.950 . S
H1767 C1779 0.950 . S
C1768 H1760 0.950 . S
C1768 C1769 1.386 . S
C1768 C1770 1.391 . S
C1769 C1768 1.386 . S
C1769 C1773 1.393 . S
C1770 H1762 0.950 . S
C1770 C1768 1.391 . S
C1770 C1771 1.400 . S
C1771 C1770 1.400 . S
C1771 C1772 1.398 . S
C1771 C1777 1.491 . S
C1772 H1763 0.950 . S
C1772 C1771 1.398 . S
C1772 C1773 1.391 . S
C1773 H1761 0.950 . S
C1773 C1769 1.393 . S
C1773 C1772 1.391 . S
C1774 H1764 0.950 . S
C1774 C1775 1.386 . S
C1774 C1776 1.391 . S
C1775 C1774 1.386 . S
C1775 C1779 1.393 . S
C1776 H1765 0.950 . S
C1776 C1774 1.391 . S
C1776 C1777 1.400 . S
C1777 C1771 1.491 . S
C1777 C1776 1.400 . S
C1777 C1778 1.398 . S
C1778 H1766 0.950 . S
C1778 C1777 1.398 . S
C1778 C1779 1.391 . S
C1779 H1767 0.950 . S
C1779 C1775 1.393 . S
C1779 C1778 1.391 . S
H1780 C1788 0.950 . S
H1781 C1793 0.950 . S
H1782 C1790 0.950 . S
H1783 C1792 0.950 . S
H1784 C1794 0.950 . S
H1785 C1796 0.950 . S
H1786 C1798 0.950 . S
H1787 C1799 0.950 . S
C1788 H1780 0.950 . S
C1788 C1789 1.386 . S
C1788 C1790 1.391 . S
C1789 C1788 1.386 . S
C1789 C1793 1.393 . S
C1790 H1782 0.950 . S
C1790 C1788 1.391 . S
C1790 C1791 1.400 . S
C1791 C1790 1.400 . S
C1791 C1792 1.398 . S
C1791 C1797 1.491 . S
C1792 H1783 0.950 . S
C1792 C1791 1.398 . S
C1792 C1793 1.391 . S
C1793 H1781 0.950 . S
C1793 C1789 1.393 . S
C1793 C1792 1.391 . S
C1794 H1784 0.950 . S
C1794 C1795 1.386 . S
C1794 C1796 1.391 . S
C1795 C1794 1.386 . S
C1795 C1799 1.393 . S
C1796 H1785 0.950 . S
C1796 C1794 1.391 . S
C1796 C1797 1.400 . S
C1797 C1791 1.491 . S
C1797 C1796 1.400 . S
C1797 C1798 1.398 . S
C1798 H1786 0.950 . S
C1798 C1797 1.398 . S
C1798 C1799 1.391 . S
C1799 H1787 0.950 . S
C1799 C1795 1.393 . S
C1799 C1798 1.391 . S
H1800 C1808 0.950 . S
H1801 C1813 0.950 . S
H1802 C1810 0.950 . S
H1803 C1812 0.950 . S
H1804 C1814 0.950 . S
H1805 C1816 0.950 . S
H1806 C1818 0.950 . S
H1807 C1819 0.950 . S
C1808 H1800 0.950 . S
C1808 C1809 1.386 . S
C1808 C1810 1.391 . S
C1809 C1808 1.386 . S
C1809 C1813 1.393 . S
C1810 H1802 0.950 . S
C1810 C1808 1.391 . S
C1810 C1811 1.400 . S
C1811 C1810 1.400 . S
C1811 C1812 1.398 . S
C1811 C1817 1.491 . S
C1812 H1803 0.950 . S
C1812 C1811 1.398 . S
C1812 C1813 1.391 . S
C1813 H1801 0.950 . S
C1813 C1809 1.393 . S
C1813 C1812 1.391 . S
C1814 H1804 0.950 . S
C1814 C1815 1.386 . S
C1814 C1816 1.391 . S
C1815 C1814 1.386 . S
C1815 C1819 1.393 . S
C1816 H1805 0.950 . S
C1816 C1814 1.391 . S
C1816 C1817 1.400 . S
C1817 C1811 1.491 . S
C1817 C1816 1.400 . S
C1817 C1818 1.398 . S
C1818 H1806 0.950 . S
C1818 C1817 1.398 . S
C1818 C1819 1.391 . S
C1819 H1807 0.950 . S
C1819 C1815 1.393 . S
C1819 C1818 1.391 . S
H1820 C1828 0.950 . S
H1821 C1833 0.950 . S
H1822 C1830 0.950 . S
H1823 C1832 0.950 . S
H1824 C1834 0.950 . S
H1825 C1836 0.950 . S
H1826 C1838 0.950 . S
H1827 C1839 0.950 . S
C1828 H1820 0.950 . S
C1828 C1829 1.386 . S
C1828 C1830 1.391 . S
C1829 C1828 1.386 . S
C1829 C1833 1.393 . S
C1830 H1822 0.950 . S
C1830 C1828 1.391 . S
C1830 C1831 1.400 . S
C1831 C1830 1.400 . S
C1831 C1832 1.398 . S
C1831 C1837 1.491 . S
C1832 H1823 0.950 . S
C1832 C1831 1.398 . S
C1832 C1833 1.391 . S
C1833 H1821 0.950 . S
C1833 C1829 1.393 . S
C1833 C1832 1.391 . S
C1834 H1824 0.950 . S
C1834 C1835 1.386 . S
C1834 C1836 1.391 . S
C1835 C1834 1.386 . S
C1835 C1839 1.393 . S
C1836 H1825 0.950 . S
C1836 C1834 1.391 . S
C1836 C1837 1.400 . S
C1837 C1831 1.491 . S
C1837 C1836 1.400 . S
C1837 C1838 1.398 . S
C1838 H1826 0.950 . S
C1838 C1837 1.398 . S
C1838 C1839 1.391 . S
C1839 H1827 0.950 . S
C1839 C1835 1.393 . S
C1839 C1838 1.391 . S
H1840 C1848 0.950 . S
H1841 C1853 0.950 . S
H1842 C1850 0.950 . S
H1843 C1852 0.950 . S
H1844 C1854 0.950 . S
H1845 C1856 0.950 . S
H1846 C1858 0.950 . S
H1847 C1859 0.950 . S
C1848 H1840 0.950 . S
C1848 C1849 1.386 . S
C1848 C1850 1.391 . S
C1849 C1848 1.386 . S
C1849 C1853 1.393 . S
C1850 H1842 0.950 . S
C1850 C1848 1.391 . S
C1850 C1851 1.400 . S
C1851 C1850 1.400 . S
C1851 C1852 1.398 . S
C1851 C1857 1.491 . S
C1852 H1843 0.950 . S
C1852 C1851 1.398 . S
C1852 C1853 1.391 . S
C1853 H1841 0.950 . S
C1853 C1849 1.393 . S
C1853 C1852 1.391 . S
C1854 H1844 0.950 . S
C1854 C1855 1.386 . S
C1854 C1856 1.391 . S
C1855 C1854 1.386 . S
C1855 C1859 1.393 . S
C1856 H1845 0.950 . S
C1856 C1854 1.391 . S
C1856 C1857 1.400 . S
C1857 C1851 1.491 . S
C1857 C1856 1.400 . S
C1857 C1858 1.398 . S
C1858 H1846 0.950 . S
C1858 C1857 1.398 . S
C1858 C1859 1.391 . S
C1859 H1847 0.950 . S
C1859 C1855 1.393 . S
C1859 C1858 1.391 . S
H1860 C1868 0.950 . S
H1861 C1873 0.950 1_554 S
H1862 C1870 0.950 . S
H1863 C1872 0.950 . S
H1864 C1874 0.950 . S
H1865 C1876 0.950 . S
H1866 C1878 0.950 . S
H1867 C1879 0.950 . S
C1868 H1860 0.950 . S
C1868 C1869 1.386 . S
C1868 C1870 1.391 . S
C1869 C1868 1.386 . S
C1869 C1873 1.393 . S
C1870 H1862 0.950 . S
C1870 C1868 1.391 . S
C1870 C1871 1.400 . S
C1871 C1870 1.400 . S
C1871 C1872 1.398 . S
C1871 C1877 1.491 . S
C1872 H1863 0.950 . S
C1872 C1871 1.398 . S
C1872 C1873 1.391 . S
C1873 H1861 0.950 1_556 S
C1873 C1869 1.393 . S
C1873 C1872 1.391 . S
C1874 H1864 0.950 . S
C1874 C1875 1.386 . S
C1874 C1876 1.391 . S
C1875 C1874 1.386 . S
C1875 C1879 1.393 . S
C1876 H1865 0.950 . S
C1876 C1874 1.391 . S
C1876 C1877 1.400 . S
C1877 C1871 1.491 . S
C1877 C1876 1.400 . S
C1877 C1878 1.398 . S
C1878 H1866 0.950 . S
C1878 C1877 1.398 . S
C1878 C1879 1.391 . S
C1879 H1867 0.950 . S
C1879 C1875 1.393 . S
C1879 C1878 1.391 . S
H1880 C1888 0.950 1_554 S
H1881 C1893 0.950 . S
H1882 C1890 0.950 . S
H1883 C1892 0.950 . S
H1884 C1894 0.950 . S
H1885 C1896 0.950 . S
H1886 C1898 0.950 . S
H1887 C1899 0.950 . S
C1888 H1880 0.950 1_556 S
C1888 C1889 1.386 . S
C1888 C1890 1.391 . S
C1889 C1888 1.386 . S
C1889 C1893 1.393 . S
C1890 H1882 0.950 . S
C1890 C1888 1.391 . S
C1890 C1891 1.400 . S
C1891 C1890 1.400 . S
C1891 C1892 1.398 . S
C1891 C1897 1.491 . S
C1892 H1883 0.950 . S
C1892 C1891 1.398 . S
C1892 C1893 1.391 . S
C1893 H1881 0.950 . S
C1893 C1889 1.393 . S
C1893 C1892 1.391 . S
C1894 H1884 0.950 . S
C1894 C1895 1.386 . S
C1894 C1896 1.391 . S
C1895 C1894 1.386 . S
C1895 C1899 1.393 . S
C1896 H1885 0.950 . S
C1896 C1894 1.391 . S
C1896 C1897 1.400 . S
C1897 C1891 1.491 . S
C1897 C1896 1.400 . S
C1897 C1898 1.398 . S
C1898 H1886 0.950 . S
C1898 C1897 1.398 . S
C1898 C1899 1.391 . S
C1899 H1887 0.950 . S
C1899 C1895 1.393 . S
C1899 C1898 1.391 . S
H1900 C1908 0.950 1_554 S
H1901 C1913 0.950 . S
H1902 C1910 0.950 . S
H1903 C1912 0.950 . S
H1904 C1914 0.950 . S
H1905 C1916 0.950 . S
H1906 C1918 0.950 . S
H1907 C1919 0.950 . S
C1908 H1900 0.950 1_556 S
C1908 C1909 1.386 . S
C1908 C1910 1.391 . S
C1909 C1908 1.386 . S
C1909 C1913 1.393 . S
C1910 H1902 0.950 . S
C1910 C1908 1.391 . S
C1910 C1911 1.400 . S
C1911 C1910 1.400 . S
C1911 C1912 1.398 . S
C1911 C1917 1.491 . S
C1912 H1903 0.950 . S
C1912 C1911 1.398 . S
C1912 C1913 1.391 . S
C1913 H1901 0.950 . S
C1913 C1909 1.393 . S
C1913 C1912 1.391 . S
C1914 H1904 0.950 . S
C1914 C1915 1.386 . S
C1914 C1916 1.391 . S
C1915 C1914 1.386 . S
C1915 C1919 1.393 . S
C1916 H1905 0.950 . S
C1916 C1914 1.391 . S
C1916 C1917 1.400 . S
C1917 C1911 1.491 . S
C1917 C1916 1.400 . S
C1917 C1918 1.398 . S
C1918 H1906 0.950 . S
C1918 C1917 1.398 . S
C1918 C1919 1.391 . S
C1919 H1907 0.950 . S
C1919 C1915 1.393 . S
C1919 C1918 1.391 . S
H1920 C1928 0.950 . S
H1921 C1933 0.950 . S
H1922 C1930 0.950 . S
H1923 C1932 0.950 . S
H1924 C1934 0.950 . S
H1925 C1936 0.950 . S
H1926 C1938 0.950 . S
H1927 C1939 0.950 . S
C1928 H1920 0.950 . S
C1928 C1929 1.386 . S
C1928 C1930 1.391 . S
C1929 C1928 1.386 . S
C1929 C1933 1.393 . S
C1930 H1922 0.950 . S
C1930 C1928 1.391 . S
C1930 C1931 1.400 . S
C1931 C1930 1.400 . S
C1931 C1932 1.398 . S
C1931 C1937 1.491 . S
C1932 H1923 0.950 . S
C1932 C1931 1.398 . S
C1932 C1933 1.391 . S
C1933 H1921 0.950 . S
C1933 C1929 1.393 . S
C1933 C1932 1.391 . S
C1934 H1924 0.950 . S
C1934 C1935 1.386 . S
C1934 C1936 1.391 . S
C1935 C1934 1.386 . S
C1935 C1939 1.393 . S
C1936 H1925 0.950 . S
C1936 C1934 1.391 . S
C1936 C1937 1.400 . S
C1937 C1931 1.491 . S
C1937 C1936 1.400 . S
C1937 C1938 1.398 . S
C1938 H1926 0.950 . S
C1938 C1937 1.398 . S
C1938 C1939 1.391 . S
C1939 H1927 0.950 . S
C1939 C1935 1.393 . S
C1939 C1938 1.391 . S
H1940 C1948 0.950 . S
H1941 C1953 0.950 . S
H1942 C1950 0.950 . S
H1943 C1952 0.950 . S
H1944 C1954 0.950 . S
H1945 C1956 0.950 . S
H1946 C1958 0.950 . S
H1947 C1959 0.950 . S
C1948 H1940 0.950 . S
C1948 C1949 1.386 . S
C1948 C1950 1.391 . S
C1949 C1948 1.386 . S
C1949 C1953 1.393 . S
C1950 H1942 0.950 . S
C1950 C1948 1.391 . S
C1950 C1951 1.400 . S
C1951 C1950 1.400 . S
C1951 C1952 1.398 . S
C1951 C1957 1.491 . S
C1952 H1943 0.950 . S
C1952 C1951 1.398 . S
C1952 C1953 1.391 . S
C1953 H1941 0.950 . S
C1953 C1949 1.393 . S
C1953 C1952 1.391 . S
C1954 H1944 0.950 . S
C1954 C1955 1.386 . S
C1954 C1956 1.391 . S
C1955 C1954 1.386 . S
C1955 C1959 1.393 . S
C1956 H1945 0.950 . S
C1956 C1954 1.391 . S
C1956 C1957 1.400 . S
C1957 C1951 1.491 . S
C1957 C1956 1.400 . S
C1957 C1958 1.398 . S
C1958 H1946 0.950 . S
C1958 C1957 1.398 . S
C1958 C1959 1.391 . S
C1959 H1947 0.950 . S
C1959 C1955 1.393 . S
C1959 C1958 1.391 . S
H1960 C1968 0.950 . S
H1961 C1973 0.950 . S
H1962 C1970 0.950 . S
H1963 C1972 0.950 . S
H1964 C1974 0.950 . S
H1965 C1976 0.950 . S
H1966 C1978 0.950 . S
H1967 C1979 0.950 . S
C1968 H1960 0.950 . S
C1968 C1969 1.386 . S
C1968 C1970 1.391 . S
C1969 C1968 1.386 . S
C1969 C1973 1.393 . S
C1970 H1962 0.950 . S
C1970 C1968 1.391 . S
C1970 C1971 1.400 . S
C1971 C1970 1.400 . S
C1971 C1972 1.398 . S
C1971 C1977 1.491 . S
C1972 H1963 0.950 . S
C1972 C1971 1.398 . S
C1972 C1973 1.391 . S
C1973 H1961 0.950 . S
C1973 C1969 1.393 . S
C1973 C1972 1.391 . S
C1974 H1964 0.950 . S
C1974 C1975 1.386 . S
C1974 C1976 1.391 . S
C1975 C1974 1.386 . S
C1975 C1979 1.393 . S
C1976 H1965 0.950 . S
C1976 C1974 1.391 . S
C1976 C1977 1.400 . S
C1977 C1971 1.491 . S
C1977 C1976 1.400 . S
C1977 C1978 1.398 . S
C1978 H1966 0.950 . S
C1978 C1977 1.398 . S
C1978 C1979 1.391 . S
C1979 H1967 0.950 . S
C1979 C1975 1.393 . S
C1979 C1978 1.391 . S
H1980 C1988 0.950 . S
H1981 C1993 0.950 . S
H1982 C1990 0.950 . S
H1983 C1992 0.950 . S
H1984 C1994 0.950 . S
H1985 C1996 0.950 . S
H1986 C1998 0.950 . S
H1987 C1999 0.950 . S
C1988 H1980 0.950 . S
C1988 C1989 1.386 . S
C1988 C1990 1.391 . S
C1989 C1988 1.386 . S
C1989 C1993 1.393 . S
C1990 H1982 0.950 . S
C1990 C1988 1.391 . S
C1990 C1991 1.400 . S
C1991 C1990 1.400 . S
C1991 C1992 1.398 . S
C1991 C1997 1.491 . S
C1992 H1983 0.950 . S
C1992 C1991 1.398 . S
C1992 C1993 1.391 . S
C1993 H1981 0.950 . S
C1993 C1989 1.393 . S
C1993 C1992 1.391 . S
C1994 H1984 0.950 . S
C1994 C1995 1.386 . S
C1994 C1996 1.391 . S
C1995 C1994 1.386 . S
C1995 C1999 1.393 . S
C1996 H1985 0.950 . S
C1996 C1994 1.391 . S
C1996 C1997 1.400 . S
C1997 C1991 1.491 . S
C1997 C1996 1.400 . S
C1997 C1998 1.398 . S
C1998 H1986 0.950 . S
C1998 C1997 1.398 . S
C1998 C1999 1.391 . S
C1999 H1987 0.950 . S
C1999 C1995 1.393 . S
C1999 C1998 1.391 . S
H2000 C2008 0.950 . S
H2001 C2013 0.950 . S
H2002 C2010 0.950 . S
H2003 C2012 0.950 . S
H2004 C2014 0.950 . S
H2005 C2016 0.950 . S
H2006 C2018 0.950 . S
H2007 C2019 0.950 . S
C2008 H2000 0.950 . S
C2008 C2009 1.386 . S
C2008 C2010 1.391 . S
C2009 C2008 1.386 . S
C2009 C2013 1.393 . S
C2010 H2002 0.950 . S
C2010 C2008 1.391 . S
C2010 C2011 1.400 . S
C2011 C2010 1.400 . S
C2011 C2012 1.398 . S
C2011 C2017 1.491 . S
C2012 H2003 0.950 . S
C2012 C2011 1.398 . S
C2012 C2013 1.391 . S
C2013 H2001 0.950 . S
C2013 C2009 1.393 . S
C2013 C2012 1.391 . S
C2014 H2004 0.950 . S
C2014 C2015 1.386 . S
C2014 C2016 1.391 . S
C2015 C2014 1.386 . S
C2015 C2019 1.393 . S
C2016 H2005 0.950 . S
C2016 C2014 1.391 . S
C2016 C2017 1.400 . S
C2017 C2011 1.491 . S
C2017 C2016 1.400 . S
C2017 C2018 1.398 . S
C2018 H2006 0.950 . S
C2018 C2017 1.398 . S
C2018 C2019 1.391 . S
C2019 H2007 0.950 . S
C2019 C2015 1.393 . S
C2019 C2018 1.391 . S
H2020 C2028 0.950 . S
H2021 C2033 0.950 . S
H2022 C2030 0.950 . S
H2023 C2032 0.950 . S
H2024 C2034 0.950 . S
H2025 C2036 0.950 . S
H2026 C2038 0.950 . S
H2027 C2039 0.950 . S
C2028 H2020 0.950 . S
C2028 C2029 1.386 . S
C2028 C2030 1.391 . S
C2029 C2028 1.386 . S
C2029 C2033 1.393 . S
C2030 H2022 0.950 . S
C2030 C2028 1.391 . S
C2030 C2031 1.400 . S
C2031 C2030 1.400 . S
C2031 C2032 1.398 . S
C2031 C2037 1.491 . S
C2032 H2023 0.950 . S
C2032 C2031 1.398 . S
C2032 C2033 1.391 . S
C2033 H2021 0.950 . S
C2033 C2029 1.393 . S
C2033 C2032 1.391 . S
C2034 H2024 0.950 . S
C2034 C2035 1.386 . S
C2034 C2036 1.391 . S
C2035 C2034 1.386 . S
C2035 C2039 1.393 . S
C2036 H2025 0.950 . S
C2036 C2034 1.391 . S
C2036 C2037 1.400 . S
C2037 C2031 1.491 . S
C2037 C2036 1.400 . S
C2037 C2038 1.398 . S
C2038 H2026 0.950 . S
C2038 C2037 1.398 . S
C2038 C2039 1.391 . S
C2039 H2027 0.950 . S
C2039 C2035 1.393 . S
C2039 C2038 1.391 . S
H2040 C2048 0.950 . S
H2041 C2053 0.950 . S
H2042 C2050 0.950 . S
H2043 C2052 0.950 . S
H2044 C2054 0.950 . S
H2045 C2056 0.950 . S
H2046 C2058 0.950 . S
H2047 C2059 0.950 . S
C2048 H2040 0.950 . S
C2048 C2049 1.386 . S
C2048 C2050 1.391 . S
C2049 C2048 1.386 . S
C2049 C2053 1.393 . S
C2050 H2042 0.950 . S
C2050 C2048 1.391 . S
C2050 C2051 1.400 . S
C2051 C2050 1.400 . S
C2051 C2052 1.398 . S
C2051 C2057 1.491 . S
C2052 H2043 0.950 . S
C2052 C2051 1.398 . S
C2052 C2053 1.391 . S
C2053 H2041 0.950 . S
C2053 C2049 1.393 . S
C2053 C2052 1.391 . S
C2054 H2044 0.950 . S
C2054 C2055 1.386 . S
C2054 C2056 1.391 . S
C2055 C2054 1.386 . S
C2055 C2059 1.393 . S
C2056 H2045 0.950 . S
C2056 C2054 1.391 . S
C2056 C2057 1.400 . S
C2057 C2051 1.491 . S
C2057 C2056 1.400 . S
C2057 C2058 1.398 . S
C2058 H2046 0.950 . S
C2058 C2057 1.398 . S
C2058 C2059 1.391 . S
C2059 H2047 0.950 . S
C2059 C2055 1.393 . S
C2059 C2058 1.391 . S
H2060 C2068 0.950 . S
H2061 C2073 0.950 . S
H2062 C2070 0.950 . S
H2063 C2072 0.950 . S
H2064 C2074 0.950 . S
H2065 C2076 0.950 . S
H2066 C2078 0.950 . S
H2067 C2079 0.950 . S
C2068 H2060 0.950 . S
C2068 C2069 1.386 . S
C2068 C2070 1.391 . S
C2069 C2068 1.386 . S
C2069 C2073 1.393 . S
C2070 H2062 0.950 . S
C2070 C2068 1.391 . S
C2070 C2071 1.400 . S
C2071 C2070 1.400 . S
C2071 C2072 1.398 . S
C2071 C2077 1.491 . S
C2072 H2063 0.950 . S
C2072 C2071 1.398 . S
C2072 C2073 1.391 . S
C2073 H2061 0.950 . S
C2073 C2069 1.393 . S
C2073 C2072 1.391 . S
C2074 H2064 0.950 . S
C2074 C2075 1.386 . S
C2074 C2076 1.391 . S
C2075 C2074 1.386 . S
C2075 C2079 1.393 . S
C2076 H2065 0.950 . S
C2076 C2074 1.391 . S
C2076 C2077 1.400 . S
C2077 C2071 1.491 . S
C2077 C2076 1.400 . S
C2077 C2078 1.398 . S
C2078 H2066 0.950 . S
C2078 C2077 1.398 . S
C2078 C2079 1.391 . S
C2079 H2067 0.950 . S
C2079 C2075 1.393 . S
C2079 C2078 1.391 . S
H2080 C2088 0.950 . S
H2081 C2093 0.950 . S
H2082 C2090 0.950 . S
H2083 C2092 0.950 . S
H2084 C2094 0.950 . S
H2085 C2096 0.950 . S
H2086 C2098 0.950 . S
H2087 C2099 0.950 . S
C2088 H2080 0.950 . S
C2088 C2089 1.386 . S
C2088 C2090 1.391 . S
C2089 C2088 1.386 . S
C2089 C2093 1.393 . S
C2090 H2082 0.950 . S
C2090 C2088 1.391 . S
C2090 C2091 1.400 . S
C2091 C2090 1.400 . S
C2091 C2092 1.398 . S
C2091 C2097 1.491 . S
C2092 H2083 0.950 . S
C2092 C2091 1.398 . S
C2092 C2093 1.391 . S
C2093 H2081 0.950 . S
C2093 C2089 1.393 . S
C2093 C2092 1.391 . S
C2094 H2084 0.950 . S
C2094 C2095 1.386 . S
C2094 C2096 1.391 . S
C2095 C2094 1.386 . S
C2095 C2099 1.393 . S
C2096 H2085 0.950 . S
C2096 C2094 1.391 . S
C2096 C2097 1.400 . S
C2097 C2091 1.491 . S
C2097 C2096 1.400 . S
C2097 C2098 1.398 . S
C2098 H2086 0.950 . S
C2098 C2097 1.398 . S
C2098 C2099 1.391 . S
C2099 H2087 0.950 . S
C2099 C2095 1.393 . S
C2099 C2098 1.391 . S
H2100 C2108 0.950 . S
H2101 C2113 0.950 1_655 S
H2102 C2110 0.950 . S
H2103 C2112 0.946 . S
H2104 C2114 0.950 . S
H2105 C2116 0.950 . S
H2106 C2118 0.950 . S
H2107 C2119 0.950 . S
C2108 H2100 0.950 . S
C2108 C2109 1.386 . S
C2108 C2110 1.391 . S
C2109 C2108 1.386 . S
C2109 C2113 1.393 . S
C2110 H2102 0.950 . S
C2110 C2108 1.391 . S
C2110 C2111 1.400 . S
C2111 C2110 1.400 . S
C2111 C2112 1.400 1_455 S
C2111 C2117 1.491 . S
C2112 H2103 0.946 . S
C2112 C2111 1.400 1_655 S
C2112 C2113 1.393 1_655 S
C2113 H2101 0.950 1_455 S
C2113 C2109 1.393 . S
C2113 C2112 1.393 1_455 S
C2114 H2104 0.950 . S
C2114 C2115 1.386 1_655 S
C2114 C2116 1.391 . S
C2115 C2114 1.386 1_455 S
C2115 C2119 1.393 . S
C2116 H2105 0.950 . S
C2116 C2114 1.391 . S
C2116 C2117 1.400 1_655 S
C2117 C2111 1.491 . S
C2117 C2116 1.400 1_455 S
C2117 C2118 1.398 . S
C2118 H2106 0.950 . S
C2118 C2117 1.398 . S
C2118 C2119 1.391 . S
C2119 H2107 0.950 . S
C2119 C2115 1.393 . S
C2119 C2118 1.391 . S
H2120 C2128 0.950 . S
H2121 C2133 0.950 . S
H2122 C2130 0.950 . S
H2123 C2132 0.950 . S
H2124 C2134 0.950 . S
H2125 C2136 0.950 . S
H2126 C2138 0.950 . S
H2127 C2139 0.950 . S
C2128 H2120 0.950 . S
C2128 C2129 1.386 . S
C2128 C2130 1.391 . S
C2129 C2128 1.386 . S
C2129 C2133 1.393 . S
C2130 H2122 0.950 . S
C2130 C2128 1.391 . S
C2130 C2131 1.400 . S
C2131 C2130 1.400 . S
C2131 C2132 1.398 . S
C2131 C2137 1.491 . S
C2132 H2123 0.950 . S
C2132 C2131 1.398 . S
C2132 C2133 1.391 . S
C2133 H2121 0.950 . S
C2133 C2129 1.393 . S
C2133 C2132 1.391 . S
C2134 H2124 0.950 . S
C2134 C2135 1.386 . S
C2134 C2136 1.391 . S
C2135 C2134 1.386 . S
C2135 C2139 1.393 . S
C2136 H2125 0.950 . S
C2136 C2134 1.391 . S
C2136 C2137 1.400 . S
C2137 C2131 1.491 . S
C2137 C2136 1.400 . S
C2137 C2138 1.398 . S
C2138 H2126 0.950 . S
C2138 C2137 1.398 . S
C2138 C2139 1.391 . S
C2139 H2127 0.950 . S
C2139 C2135 1.393 . S
C2139 C2138 1.391 . S
H2140 C2148 0.950 1_545 S
H2141 C2153 0.950 . S
H2142 C2150 0.951 . S
H2143 C2152 0.950 . S
H2144 C2154 0.950 . S
H2145 C2156 0.950 . S
H2146 C2158 0.950 . S
H2147 C2159 0.950 . S
C2148 H2140 0.950 1_565 S
C2148 C2149 1.386 . S
C2148 C2150 1.392 1_565 S
C2149 C2148 1.386 . S
C2149 C2153 1.393 . S
C2150 H2142 0.951 . S
C2150 C2148 1.392 1_545 S
C2150 C2151 1.398 1_545 S
C2151 C2150 1.398 1_565 S
C2151 C2152 1.398 . S
C2151 C2157 1.491 . S
C2152 H2143 0.950 . S
C2152 C2151 1.398 . S
C2152 C2153 1.391 . S
C2153 H2141 0.950 . S
C2153 C2149 1.393 . S
C2153 C2152 1.391 . S
C2154 H2144 0.950 . S
C2154 C2155 1.386 . S
C2154 C2156 1.391 . S
C2155 C2154 1.386 . S
C2155 C2159 1.393 1_565 S
C2156 H2145 0.950 . S
C2156 C2154 1.391 . S
C2156 C2157 1.400 . S
C2157 C2151 1.491 . S
C2157 C2156 1.400 . S
C2157 C2158 1.398 1_565 S
C2158 H2146 0.950 . S
C2158 C2157 1.398 1_545 S
C2158 C2159 1.391 . S
C2159 H2147 0.950 . S
C2159 C2155 1.393 1_545 S
C2159 C2158 1.391 . S
H2160 C2168 0.950 . S
H2161 C2173 0.950 . S
H2162 C2170 0.950 . S
H2163 C2172 0.950 . S
H2164 C2174 0.936 1_545 S
H2165 C2176 0.957 . S
H2166 C2178 0.950 . S
H2167 C2179 0.950 . S
C2168 H2160 0.950 . S
C2168 C2169 1.386 . S
C2168 C2170 1.391 . S
C2169 C2168 1.386 . S
C2169 C2173 1.393 . S
C2170 H2162 0.950 . S
C2170 C2168 1.391 . S
C2170 C2171 1.400 . S
C2171 C2170 1.400 . S
C2171 C2172 1.398 . S
C2171 C2177 1.491 . S
C2172 H2163 0.950 . S
C2172 C2171 1.398 . S
C2172 C2173 1.391 . S
C2173 H2161 0.950 . S
C2173 C2169 1.393 . S
C2173 C2172 1.391 . S
C2174 H2164 0.936 1_565 S
C2174 C2175 1.388 . S
C2174 C2176 1.402 . S
C2175 C2174 1.388 . S
C2175 C2179 1.393 . S
C2176 H2165 0.957 . S
C2176 C2174 1.402 . S
C2176 C2177 1.400 . S
C2177 C2171 1.491 . S
C2177 C2176 1.400 . S
C2177 C2178 1.398 . S
C2178 H2166 0.950 . S
C2178 C2177 1.398 . S
C2178 C2179 1.391 . S
C2179 H2167 0.950 . S
C2179 C2175 1.393 . S
C2179 C2178 1.391 . S
H2180 C2188 0.950 . S
H2181 C2193 0.950 1_655 S
H2182 C2190 0.950 . S
H2183 C2192 0.939 1_655 S
H2184 C2194 0.950 . S
H2185 C2196 0.950 . S
H2186 C2198 0.950 . S
H2187 C2199 0.950 . S
C2188 H2180 0.950 . S
C2188 C2189 1.386 . S
C2188 C2190 1.391 . S
C2189 C2188 1.386 . S
C2189 C2193 1.393 . S
C2190 H2182 0.950 . S
C2190 C2188 1.391 . S
C2190 C2191 1.400 . S
C2191 C2190 1.400 . S
C2191 C2192 1.415 . S
C2191 C2197 1.491 . S
C2192 H2183 0.939 1_455 S
C2192 C2191 1.415 . S
C2192 C2193 1.385 . S
C2193 H2181 0.950 1_455 S
C2193 C2189 1.393 . S
C2193 C2192 1.385 . S
C2194 H2184 0.950 . S
C2194 C2195 1.386 1_655 S
C2194 C2196 1.391 . S
C2195 C2194 1.386 1_455 S
C2195 C2199 1.393 . S
C2196 H2185 0.950 . S
C2196 C2194 1.391 . S
C2196 C2197 1.400 1_655 S
C2197 C2191 1.491 . S
C2197 C2196 1.400 1_455 S
C2197 C2198 1.398 . S
C2198 H2186 0.950 . S
C2198 C2197 1.398 . S
C2198 C2199 1.391 . S
C2199 H2187 0.950 . S
C2199 C2195 1.393 . S
C2199 C2198 1.391 . S
H2200 C2208 0.950 . S
H2201 C2213 0.950 . S
H2202 C2210 0.950 . S
H2203 C2212 0.950 . S
H2204 C2214 0.950 . S
H2205 C2216 0.950 . S
H2206 C2218 0.950 . S
H2207 C2219 0.950 . S
C2208 H2200 0.950 . S
C2208 C2209 1.386 . S
C2208 C2210 1.391 . S
C2209 C2208 1.386 . S
C2209 C2213 1.393 . S
C2210 H2202 0.950 . S
C2210 C2208 1.391 . S
C2210 C2211 1.400 . S
C2211 C2210 1.400 . S
C2211 C2212 1.398 . S
C2211 C2217 1.491 . S
C2212 H2203 0.950 . S
C2212 C2211 1.398 . S
C2212 C2213 1.391 . S
C2213 H2201 0.950 . S
C2213 C2209 1.393 . S
C2213 C2212 1.391 . S
C2214 H2204 0.950 . S
C2214 C2215 1.386 . S
C2214 C2216 1.391 . S
C2215 C2214 1.386 . S
C2215 C2219 1.393 . S
C2216 H2205 0.950 . S
C2216 C2214 1.391 . S
C2216 C2217 1.400 . S
C2217 C2211 1.491 . S
C2217 C2216 1.400 . S
C2217 C2218 1.398 . S
C2218 H2206 0.950 . S
C2218 C2217 1.398 . S
C2218 C2219 1.391 . S
C2219 H2207 0.950 . S
C2219 C2215 1.393 . S
C2219 C2218 1.391 . S
H2220 C2228 0.950 . S
H2221 C2233 0.950 . S
H2222 C2230 0.950 . S
H2223 C2232 0.950 . S
H2224 C2234 0.950 . S
H2225 C2236 0.950 . S
H2226 C2238 0.950 . S
H2227 C2239 0.950 . S
C2228 H2220 0.950 . S
C2228 C2229 1.386 . S
C2228 C2230 1.391 . S
C2229 C2228 1.386 . S
C2229 C2233 1.393 . S
C2230 H2222 0.950 . S
C2230 C2228 1.391 . S
C2230 C2231 1.400 . S
C2231 C2230 1.400 . S
C2231 C2232 1.398 . S
C2231 C2237 1.491 . S
C2232 H2223 0.950 . S
C2232 C2231 1.398 . S
C2232 C2233 1.391 . S
C2233 H2221 0.950 . S
C2233 C2229 1.393 . S
C2233 C2232 1.391 . S
C2234 H2224 0.950 . S
C2234 C2235 1.386 . S
C2234 C2236 1.391 . S
C2235 C2234 1.386 . S
C2235 C2239 1.393 . S
C2236 H2225 0.950 . S
C2236 C2234 1.391 . S
C2236 C2237 1.400 . S
C2237 C2231 1.491 . S
C2237 C2236 1.400 . S
C2237 C2238 1.398 . S
C2238 H2226 0.950 . S
C2238 C2237 1.398 . S
C2238 C2239 1.391 . S
C2239 H2227 0.950 . S
C2239 C2235 1.393 . S
C2239 C2238 1.391 . S
H2240 C2248 0.950 . S
H2241 C2253 0.950 . S
H2242 C2250 0.950 . S
H2243 C2252 0.950 . S
H2244 C2254 0.950 . S
H2245 C2256 0.950 . S
H2246 C2258 0.950 . S
H2247 C2259 0.950 . S
C2248 H2240 0.950 . S
C2248 C2249 1.386 . S
C2248 C2250 1.391 . S
C2249 C2248 1.386 . S
C2249 C2253 1.393 . S
C2250 H2242 0.950 . S
C2250 C2248 1.391 . S
C2250 C2251 1.400 . S
C2251 C2250 1.400 . S
C2251 C2252 1.398 . S
C2251 C2257 1.491 . S
C2252 H2243 0.950 . S
C2252 C2251 1.398 . S
C2252 C2253 1.391 . S
C2253 H2241 0.950 . S
C2253 C2249 1.393 . S
C2253 C2252 1.391 . S
C2254 H2244 0.950 . S
C2254 C2255 1.386 . S
C2254 C2256 1.391 . S
C2255 C2254 1.386 . S
C2255 C2259 1.393 . S
C2256 H2245 0.950 . S
C2256 C2254 1.391 . S
C2256 C2257 1.400 . S
C2257 C2251 1.491 . S
C2257 C2256 1.400 . S
C2257 C2258 1.398 . S
C2258 H2246 0.950 . S
C2258 C2257 1.398 . S
C2258 C2259 1.391 . S
C2259 H2247 0.950 . S
C2259 C2255 1.393 . S
C2259 C2258 1.391 . S
H2260 C2268 0.950 . S
H2261 C2273 0.950 . S
H2262 C2270 0.950 . S
H2263 C2272 0.950 . S
H2264 C2274 0.950 . S
H2265 C2276 0.950 . S
H2266 C2278 0.950 . S
H2267 C2279 0.950 . S
C2268 H2260 0.950 . S
C2268 C2269 1.386 . S
C2268 C2270 1.391 . S
C2269 C2268 1.386 . S
C2269 C2273 1.393 . S
C2270 H2262 0.950 . S
C2270 C2268 1.391 . S
C2270 C2271 1.400 . S
C2271 C2270 1.400 . S
C2271 C2272 1.398 . S
C2271 C2277 1.491 . S
C2272 H2263 0.950 . S
C2272 C2271 1.398 . S
C2272 C2273 1.391 . S
C2273 H2261 0.950 . S
C2273 C2269 1.393 . S
C2273 C2272 1.391 . S
C2274 H2264 0.950 . S
C2274 C2275 1.386 . S
C2274 C2276 1.391 . S
C2275 C2274 1.386 . S
C2275 C2279 1.393 . S
C2276 H2265 0.950 . S
C2276 C2274 1.391 . S
C2276 C2277 1.400 . S
C2277 C2271 1.491 . S
C2277 C2276 1.400 . S
C2277 C2278 1.398 . S
C2278 H2266 0.950 . S
C2278 C2277 1.398 . S
C2278 C2279 1.391 . S
C2279 H2267 0.950 . S
C2279 C2275 1.393 . S
C2279 C2278 1.391 . S
H2280 C2288 0.950 1_565 S
H2281 C2293 0.950 . S
H2282 C2290 0.954 1_565 S
H2283 C2292 0.950 . S
H2284 C2294 0.950 . S
H2285 C2296 0.950 . S
H2286 C2298 0.950 . S
H2287 C2299 0.950 . S
C2288 H2280 0.950 1_545 S
C2288 C2289 1.386 . S
C2288 C2290 1.389 . S
C2289 C2288 1.386 . S
C2289 C2293 1.393 . S
C2290 H2282 0.954 1_545 S
C2290 C2288 1.389 . S
C2290 C2291 1.399 . S
C2291 C2290 1.399 . S
C2291 C2292 1.398 . S
C2291 C2297 1.491 . S
C2292 H2283 0.950 . S
C2292 C2291 1.398 . S
C2292 C2293 1.391 . S
C2293 H2281 0.950 . S
C2293 C2289 1.393 . S
C2293 C2292 1.391 . S
C2294 H2284 0.950 . S
C2294 C2295 1.386 . S
C2294 C2296 1.391 . S
C2295 C2294 1.386 . S
C2295 C2299 1.393 1_545 S
C2296 H2285 0.950 . S
C2296 C2294 1.391 . S
C2296 C2297 1.400 . S
C2297 C2291 1.491 . S
C2297 C2296 1.400 . S
C2297 C2298 1.398 1_545 S
C2298 H2286 0.950 . S
C2298 C2297 1.398 1_565 S
C2298 C2299 1.391 . S
C2299 H2287 0.950 . S
C2299 C2295 1.393 1_565 S
C2299 C2298 1.391 . S
H2300 C2308 0.950 . S
H2301 C2313 0.950 . S
H2302 C2310 0.950 . S
H2303 C2312 0.950 . S
H2304 C2314 0.950 . S
H2305 C2316 0.950 . S
H2306 C2318 0.950 . S
H2307 C2319 0.950 . S
C2308 H2300 0.950 . S
C2308 C2309 1.386 . S
C2308 C2310 1.391 . S
C2309 C2308 1.386 . S
C2309 C2313 1.393 . S
C2310 H2302 0.950 . S
C2310 C2308 1.391 . S
C2310 C2311 1.400 . S
C2311 C2310 1.400 . S
C2311 C2312 1.398 . S
C2311 C2317 1.491 . S
C2312 H2303 0.950 . S
C2312 C2311 1.398 . S
C2312 C2313 1.391 . S
C2313 H2301 0.950 . S
C2313 C2309 1.393 . S
C2313 C2312 1.391 . S
C2314 H2304 0.950 . S
C2314 C2315 1.386 . S
C2314 C2316 1.391 . S
C2315 C2314 1.386 . S
C2315 C2319 1.393 . S
C2316 H2305 0.950 . S
C2316 C2314 1.391 . S
C2316 C2317 1.400 . S
C2317 C2311 1.491 . S
C2317 C2316 1.400 . S
C2317 C2318 1.398 . S
C2318 H2306 0.950 . S
C2318 C2317 1.398 . S
C2318 C2319 1.391 . S
C2319 H2307 0.950 . S
C2319 C2315 1.393 . S
C2319 C2318 1.391 . S
H2320 C2328 0.950 . S
H2321 C2333 0.950 . S
H2322 C2330 0.950 . S
H2323 C2332 0.950 . S
H2324 C2334 0.950 . S
H2325 C2336 0.950 . S
H2326 C2338 0.950 . S
H2327 C2339 0.950 . S
C2328 H2320 0.950 . S
C2328 C2329 1.386 . S
C2328 C2330 1.391 . S
C2329 C2328 1.386 . S
C2329 C2333 1.393 . S
C2330 H2322 0.950 . S
C2330 C2328 1.391 . S
C2330 C2331 1.400 . S
C2331 C2330 1.400 . S
C2331 C2332 1.398 . S
C2331 C2337 1.491 . S
C2332 H2323 0.950 . S
C2332 C2331 1.398 . S
C2332 C2333 1.391 . S
C2333 H2321 0.950 . S
C2333 C2329 1.393 . S
C2333 C2332 1.391 . S
C2334 H2324 0.950 . S
C2334 C2335 1.386 . S
C2334 C2336 1.391 . S
C2335 C2334 1.386 . S
C2335 C2339 1.393 . S
C2336 H2325 0.950 . S
C2336 C2334 1.391 . S
C2336 C2337 1.400 . S
C2337 C2331 1.491 . S
C2337 C2336 1.400 . S
C2337 C2338 1.398 . S
C2338 H2326 0.950 . S
C2338 C2337 1.398 . S
C2338 C2339 1.391 . S
C2339 H2327 0.950 . S
C2339 C2335 1.393 . S
C2339 C2338 1.391 . S
H2340 C2348 0.950 . S
H2341 C2353 0.950 . S
H2342 C2350 0.950 . S
H2343 C2352 0.950 . S
H2344 C2354 0.950 . S
H2345 C2356 0.950 . S
H2346 C2358 0.950 . S
H2347 C2359 0.950 . S
C2348 H2340 0.950 . S
C2348 C2349 1.386 . S
C2348 C2350 1.391 . S
C2349 C2348 1.386 . S
C2349 C2353 1.393 . S
C2350 H2342 0.950 . S
C2350 C2348 1.391 . S
C2350 C2351 1.400 . S
C2351 C2350 1.400 . S
C2351 C2352 1.398 . S
C2351 C2357 1.491 . S
C2352 H2343 0.950 . S
C2352 C2351 1.398 . S
C2352 C2353 1.391 . S
C2353 H2341 0.950 . S
C2353 C2349 1.393 . S
C2353 C2352 1.391 . S
C2354 H2344 0.950 . S
C2354 C2355 1.386 . S
C2354 C2356 1.391 . S
C2355 C2354 1.386 . S
C2355 C2359 1.393 . S
C2356 H2345 0.950 . S
C2356 C2354 1.391 . S
C2356 C2357 1.400 . S
C2357 C2351 1.491 . S
C2357 C2356 1.400 . S
C2357 C2358 1.398 . S
C2358 H2346 0.950 . S
C2358 C2357 1.398 . S
C2358 C2359 1.391 . S
C2359 H2347 0.950 . S
C2359 C2355 1.393 . S
C2359 C2358 1.391 . S
H2360 C2368 0.950 . S
H2361 C2373 0.950 . S
H2362 C2370 0.950 . S
H2363 C2372 0.950 . S
H2364 C2374 0.950 . S
H2365 C2376 0.950 . S
H2366 C2378 0.950 . S
H2367 C2379 0.950 . S
C2368 H2360 0.950 . S
C2368 C2369 1.386 . S
C2368 C2370 1.391 . S
C2369 C2368 1.386 . S
C2369 C2373 1.393 . S
C2370 H2362 0.950 . S
C2370 C2368 1.391 . S
C2370 C2371 1.400 . S
C2371 C2370 1.400 . S
C2371 C2372 1.398 . S
C2371 C2377 1.491 . S
C2372 H2363 0.950 . S
C2372 C2371 1.398 . S
C2372 C2373 1.391 . S
C2373 H2361 0.950 . S
C2373 C2369 1.393 . S
C2373 C2372 1.391 . S
C2374 H2364 0.950 . S
C2374 C2375 1.386 . S
C2374 C2376 1.391 . S
C2375 C2374 1.386 . S
C2375 C2379 1.393 . S
C2376 H2365 0.950 . S
C2376 C2374 1.391 . S
C2376 C2377 1.400 . S
C2377 C2371 1.491 . S
C2377 C2376 1.400 . S
C2377 C2378 1.398 . S
C2378 H2366 0.950 . S
C2378 C2377 1.398 . S
C2378 C2379 1.391 . S
C2379 H2367 0.950 . S
C2379 C2375 1.393 . S
C2379 C2378 1.391 . S
H2380 C2388 0.950 . S
H2381 C2393 0.950 . S
H2382 C2390 0.950 . S
H2383 C2392 0.950 . S
H2384 C2394 0.950 . S
H2385 C2396 0.950 . S
H2386 C2398 0.950 . S
H2387 C2399 0.950 . S
C2388 H2380 0.950 . S
C2388 C2389 1.386 . S
C2388 C2390 1.391 . S
C2389 C2388 1.386 . S
C2389 C2393 1.393 . S
C2390 H2382 0.950 . S
C2390 C2388 1.391 . S
C2390 C2391 1.400 . S
C2391 C2390 1.400 . S
C2391 C2392 1.398 . S
C2391 C2397 1.491 . S
C2392 H2383 0.950 . S
C2392 C2391 1.398 . S
C2392 C2393 1.391 . S
C2393 H2381 0.950 . S
C2393 C2389 1.393 . S
C2393 C2392 1.391 . S
C2394 H2384 0.950 . S
C2394 C2395 1.386 . S
C2394 C2396 1.391 . S
C2395 C2394 1.386 . S
C2395 C2399 1.393 . S
C2396 H2385 0.950 . S
C2396 C2394 1.391 . S
C2396 C2397 1.400 . S
C2397 C2391 1.491 . S
C2397 C2396 1.400 . S
C2397 C2398 1.398 . S
C2398 H2386 0.950 . S
C2398 C2397 1.398 . S
C2398 C2399 1.391 . S
C2399 H2387 0.950 . S
C2399 C2395 1.393 . S
C2399 C2398 1.391 . S
H2400 C2408 0.950 . S
H2401 C2413 0.950 . S
H2402 C2410 0.950 . S
H2403 C2412 0.950 . S
H2404 C2414 0.950 . S
H2405 C2416 0.950 . S
H2406 C2418 0.950 . S
H2407 C2419 0.950 . S
C2408 H2400 0.950 . S
C2408 C2409 1.386 . S
C2408 C2410 1.391 . S
C2409 C2408 1.386 . S
C2409 C2413 1.393 . S
C2410 H2402 0.950 . S
C2410 C2408 1.391 . S
C2410 C2411 1.400 . S
C2411 C2410 1.400 . S
C2411 C2412 1.398 . S
C2411 C2417 1.491 . S
C2412 H2403 0.950 . S
C2412 C2411 1.398 . S
C2412 C2413 1.391 . S
C2413 H2401 0.950 . S
C2413 C2409 1.393 . S
C2413 C2412 1.391 . S
C2414 H2404 0.950 . S
C2414 C2415 1.386 . S
C2414 C2416 1.391 . S
C2415 C2414 1.386 . S
C2415 C2419 1.393 . S
C2416 H2405 0.950 . S
C2416 C2414 1.391 . S
C2416 C2417 1.400 . S
C2417 C2411 1.491 . S
C2417 C2416 1.400 . S
C2417 C2418 1.398 . S
C2418 H2406 0.950 . S
C2418 C2417 1.398 . S
C2418 C2419 1.391 . S
C2419 H2407 0.950 . S
C2419 C2415 1.393 . S
C2419 C2418 1.391 . S
H2420 C2428 0.950 . S
H2421 C2433 0.950 . S
H2422 C2430 0.950 . S
H2423 C2432 0.950 . S
H2424 C2434 0.950 . S
H2425 C2436 0.950 . S
H2426 C2438 0.950 . S
H2427 C2439 0.950 . S
C2428 H2420 0.950 . S
C2428 C2429 1.386 . S
C2428 C2430 1.391 . S
C2429 C2428 1.386 . S
C2429 C2433 1.393 . S
C2430 H2422 0.950 . S
C2430 C2428 1.391 . S
C2430 C2431 1.400 . S
C2431 C2430 1.400 . S
C2431 C2432 1.398 . S
C2431 C2437 1.491 . S
C2432 H2423 0.950 . S
C2432 C2431 1.398 . S
C2432 C2433 1.391 . S
C2433 H2421 0.950 . S
C2433 C2429 1.393 . S
C2433 C2432 1.391 . S
C2434 H2424 0.950 . S
C2434 C2435 1.386 . S
C2434 C2436 1.391 . S
C2435 C2434 1.386 . S
C2435 C2439 1.393 . S
C2436 H2425 0.950 . S
C2436 C2434 1.391 . S
C2436 C2437 1.400 . S
C2437 C2431 1.491 . S
C2437 C2436 1.400 . S
C2437 C2438 1.398 . S
C2438 H2426 0.950 . S
C2438 C2437 1.398 . S
C2438 C2439 1.391 . S
C2439 H2427 0.950 . S
C2439 C2435 1.393 . S
C2439 C2438 1.391 . S
H2440 C2448 0.950 . S
H2441 C2453 0.950 . S
H2442 C2450 0.950 . S
H2443 C2452 0.950 . S
H2444 C2454 0.950 . S
H2445 C2456 0.950 . S
H2446 C2458 0.950 . S
H2447 C2459 0.950 . S
C2448 H2440 0.950 . S
C2448 C2449 1.386 . S
C2448 C2450 1.391 . S
C2449 C2448 1.386 . S
C2449 C2453 1.393 . S
C2450 H2442 0.950 . S
C2450 C2448 1.391 . S
C2450 C2451 1.400 . S
C2451 C2450 1.400 . S
C2451 C2452 1.398 . S
C2451 C2457 1.491 . S
C2452 H2443 0.950 . S
C2452 C2451 1.398 . S
C2452 C2453 1.391 . S
C2453 H2441 0.950 . S
C2453 C2449 1.393 . S
C2453 C2452 1.391 . S
C2454 H2444 0.950 . S
C2454 C2455 1.386 . S
C2454 C2456 1.391 . S
C2455 C2454 1.386 . S
C2455 C2459 1.393 . S
C2456 H2445 0.950 . S
C2456 C2454 1.391 . S
C2456 C2457 1.400 . S
C2457 C2451 1.491 . S
C2457 C2456 1.400 . S
C2457 C2458 1.398 . S
C2458 H2446 0.950 . S
C2458 C2457 1.398 . S
C2458 C2459 1.391 . S
C2459 H2447 0.950 . S
C2459 C2455 1.393 . S
C2459 C2458 1.391 . S
H2460 C2468 0.950 . S
H2461 C2473 0.950 . S
H2462 C2470 0.950 . S
H2463 C2472 0.950 . S
H2464 C2474 0.950 . S
H2465 C2476 0.950 . S
H2466 C2478 0.950 . S
H2467 C2479 0.950 . S
C2468 H2460 0.950 . S
C2468 C2469 1.386 1_455 S
C2468 C2470 1.391 . S
C2469 C2468 1.386 1_655 S
C2469 C2473 1.393 . S
C2470 H2462 0.950 . S
C2470 C2468 1.391 . S
C2470 C2471 1.400 1_455 S
C2471 C2470 1.400 1_655 S
C2471 C2472 1.398 . S
C2471 C2477 1.491 . S
C2472 H2463 0.950 . S
C2472 C2471 1.398 . S
C2472 C2473 1.391 . S
C2473 H2461 0.950 . S
C2473 C2469 1.393 . S
C2473 C2472 1.391 . S
C2474 H2464 0.950 . S
C2474 C2475 1.386 . S
C2474 C2476 1.391 . S
C2475 C2474 1.386 . S
C2475 C2479 1.393 1_655 S
C2476 H2465 0.950 . S
C2476 C2474 1.391 . S
C2476 C2477 1.400 . S
C2477 C2471 1.491 . S
C2477 C2476 1.400 . S
C2477 C2478 1.398 1_655 S
C2478 H2466 0.950 . S
C2478 C2477 1.398 1_455 S
C2478 C2479 1.391 . S
C2479 H2467 0.950 . S
C2479 C2475 1.393 1_455 S
C2479 C2478 1.391 . S
H2480 C2488 0.950 . S
H2481 C2493 0.950 . S
H2482 C2490 0.950 . S
H2483 C2492 0.950 . S
H2484 C2494 0.950 . S
H2485 C2496 0.950 . S
H2486 C2498 0.950 . S
H2487 C2499 0.950 . S
C2488 H2480 0.950 . S
C2488 C2489 1.386 . S
C2488 C2490 1.391 . S
C2489 C2488 1.386 . S
C2489 C2493 1.393 . S
C2490 H2482 0.950 . S
C2490 C2488 1.391 . S
C2490 C2491 1.400 . S
C2491 C2490 1.400 . S
C2491 C2492 1.398 . S
C2491 C2497 1.491 . S
C2492 H2483 0.950 . S
C2492 C2491 1.398 . S
C2492 C2493 1.391 . S
C2493 H2481 0.950 . S
C2493 C2489 1.393 . S
C2493 C2492 1.391 . S
C2494 H2484 0.950 . S
C2494 C2495 1.386 . S
C2494 C2496 1.391 . S
C2495 C2494 1.386 . S
C2495 C2499 1.393 . S
C2496 H2485 0.950 . S
C2496 C2494 1.391 . S
C2496 C2497 1.400 . S
C2497 C2491 1.491 . S
C2497 C2496 1.400 . S
C2497 C2498 1.398 . S
C2498 H2486 0.950 . S
C2498 C2497 1.398 . S
C2498 C2499 1.391 . S
C2499 H2487 0.950 . S
C2499 C2495 1.393 . S
C2499 C2498 1.391 . S
H2500 C2508 0.950 1_565 S
H2501 C2513 0.950 . S
H2502 C2510 0.965 . S
H2503 C2512 0.950 . S
H2504 C2514 0.950 . S
H2505 C2516 0.950 . S
H2506 C2518 0.950 . S
H2507 C2519 0.950 . S
C2508 H2500 0.950 1_545 S
C2508 C2509 1.386 . S
C2508 C2510 1.411 1_545 S
C2509 C2508 1.386 . S
C2509 C2513 1.393 . S
C2510 H2502 0.965 . S
C2510 C2508 1.411 1_565 S
C2510 C2511 1.370 1_565 S
C2511 C2510 1.370 1_545 S
C2511 C2512 1.398 . S
C2511 C2517 1.491 . S
C2512 H2503 0.950 . S
C2512 C2511 1.398 . S
C2512 C2513 1.391 . S
C2513 H2501 0.950 . S
C2513 C2509 1.393 . S
C2513 C2512 1.391 . S
C2514 H2504 0.950 . S
C2514 C2515 1.386 . S
C2514 C2516 1.391 . S
C2515 C2514 1.386 . S
C2515 C2519 1.393 1_545 S
C2516 H2505 0.950 . S
C2516 C2514 1.391 . S
C2516 C2517 1.400 . S
C2517 C2511 1.491 . S
C2517 C2516 1.400 . S
C2517 C2518 1.398 1_545 S
C2518 H2506 0.950 . S
C2518 C2517 1.398 1_565 S
C2518 C2519 1.391 . S
C2519 H2507 0.950 . S
C2519 C2515 1.393 1_565 S
C2519 C2518 1.391 . S
C1089 C4 1.431 . S
C1095 C688 1.463 . S
C1109 C26 1.547 . S
C1115 C734 1.529 . S
C1135 C766 1.412 . S
C1129 C32 1.359 . S
C1149 C40 1.397 . S
C1155 C819 1.414 . S
C1169 C12 1.445 . S
C1175 C865 1.473 . S
C1189 C18 1.475 . S
C1195 C904 1.506 . S
C1209 C46 1.417 . S
C1215 C858 1.446 . S
C1235 C911 1.540 . S
C1229 C68 1.534 . S
C1255 C812 1.427 . S
C1249 C74 1.393 . S
C1269 C82 1.389 . S
C1275 C773 1.408 . S
C1295 C667 1.475 . S
C1289 C54 1.460 . S
C1309 C60 1.468 . S
C1315 C713 1.492 . S
C1329 C88 1.609 . S
C1335 C943 1.637 . S
C1349 C110 1.619 . S
C1355 C1010 1.589 . S
C1375 C1056 1.574 . S
C1369 C116 1.538 . S
C1389 C124 1.472 . S
C1395 C267 1.455 . S
C1409 C96 1.549 . S
C1415 C313 1.537 . S
C1429 C102 1.524 . S
C1435 C359 1.544 . S
C1449 C130 1.520 . S
C1455 C306 1.533 . S
C1469 C152 1.607 . S
C1475 C352 1.590 . S
C1495 C260 1.586 . S
C1489 C158 1.562 . S
C1515 C1035 1.549 . S
C1509 C166 1.552 . S
C1535 C964 1.528 . S
C1529 C138 1.527 . S
C1555 C989 1.585 . S
C1549 C144 1.548 . S
C1569 C172 1.520 . S
C1575 C391 1.560 . S
C1589 C194 1.608 . S
C1595 C444 1.592 . S
C1609 C200 1.551 . S
C1615 C490 1.591 . S
C1629 C208 1.545 . S
C1635 C536 1.542 . S
C1655 C589 1.522 . S
C1649 C180 1.542 . S
C1675 C635 1.572 . S
C1669 C186 1.549 . S
C1695 C582 1.637 . S
C1689 C214 1.594 . S
C1715 C628 1.597 . S
C1709 C236 1.618 . S
C1729 C242 1.528 . S
C1735 C543 1.571 . S
C1755 C497 1.462 . S
C1749 C250 1.459 . S
C1769 C222 1.550 . S
C1775 C412 1.553 . S
C1795 C451 1.552 . S
C1789 C228 1.529 . S
C1815 C274 1.541 . S
C1809 C5 1.324 . S
C1829 C25 1.457 . S
C1835 C320 1.438 . S
C1855 C366 1.557 . S
C1849 C33 1.345 . S
C1875 C398 1.431 . S
C1869 C39 1.445 . S
C1895 C437 1.501 . S
C1889 C11 1.521 . S
C1915 C483 1.434 . S
C1909 C19 1.228 . S
C1929 C47 1.324 1_556 S
C1935 C504 1.542 . S
C1949 C67 1.462 . S
C1955 C405 1.412 . S
C1969 C75 1.388 1_556 S
C1975 C458 1.554 . S
C1989 C81 1.454 . S
C1995 C299 1.467 . S
C2015 C345 1.498 . S
C2009 C53 1.504 . S
C2029 C61 1.223 . S
C2035 C253 1.436 . S
C2055 C529 1.454 . S
C2049 C89 1.249 . S
C2069 C109 1.548 . S
C2075 C596 1.542 . S
C2089 C117 1.303 . S
C2095 C642 1.542 . S
C2115 C681 1.235 . S
C2109 C123 1.214 . S
C2129 C95 1.436 . S
C2135 C727 1.424 . S
C2149 C103 1.069 . S
C2155 C759 1.248 . S
C2169 C131 1.089 . S
C2175 C780 1.248 . S
C2189 C151 1.253 . S
C2195 C674 1.252 . S
C2215 C720 1.465 . S
C2209 C159 1.270 . S
C2229 C165 1.418 . S
C2235 C575 1.415 . S
C2249 C137 1.528 . S
C2255 C621 1.514 . S
C2275 C550 1.510 . S
C2269 C145 1.320 . S
C2295 C826 1.267 . S
C2289 C173 1.086 . S
C2309 C193 1.232 . S
C2315 C872 1.238 . S
C2329 C201 1.215 . S
C2335 C897 1.427 . S
C2355 C950 1.380 . S
C2349 C207 1.412 . S
C2375 C1003 1.525 . S
C2369 C179 1.549 . S
C2389 C187 1.315 . S
C2395 C1049 1.525 . S
C2409 C215 1.281 . S
C2415 C1042 1.503 . S
C2429 C235 1.549 . S
C2435 C957 1.514 . S
C2455 C996 1.542 . S
C2449 C243 1.340 . S
C2475 C851 1.219 . S
C2469 C249 1.189 . S
C2495 C918 1.421 . S
C2489 C221 1.436 . S
C2509 C229 1.114 . S
C2515 C805 1.261 . S
