# Generated by pormake.
# Topology pts, (4,4)-cn, num edge types: 1
# Building blocks:
#     Node 0, Type 0, BuildingBlock: NAHDIM_clean_linker_0, # of connection points: 4
#     Node 1, Type 0, BuildingBlock: NAHDIM_clean_linker_0, # of connection points: 4
#     Node 2, Type 1, BuildingBlock: QUQFOY_clean_sbu_1, # of connection points: 4
#     Node 3, Type 1, BuildingBlock: QUQFOY_clean_sbu_1, # of connection points: 4
#     Edge 4, Type (0, 1), BuildingBlock: AJUNOK_clean_linker_0, # of connection points: 2
#     Edge 5, Type (0, 1), BuildingBlock: AJUNOK_clean_linker_0, # of connection points: 2
#     Edge 6, Type (0, 1), BuildingBlock: AJUNOK_clean_linker_0, # of connection points: 2
#     Edge 7, Type (0, 1), BuildingBlock: AJUNOK_clean_linker_0, # of connection points: 2
#     Edge 8, Type (0, 1), BuildingBlock: AJUNOK_clean_linker_0, # of connection points: 2
#     Edge 9, Type (0, 1), BuildingBlock: AJUNOK_clean_linker_0, # of connection points: 2
#     Edge 10, Type (0, 1), BuildingBlock: AJUNOK_clean_linker_0, # of connection points: 2
#     Edge 11, Type (0, 1), BuildingBlock: AJUNOK_clean_linker_0, # of connection points: 2
# Relax obj value: 0.113
# Max RMSD: 0.243
# Mean RMSD: 0.150
data_MOF--net-pts--node1-QUQFOY_clean_sbu_1--node2-NAHDIM_clean_linker_0--edge1-AJUNOK_clean_linker_0
_symmetry_space_group_name_H-M    P1
_symmetry_Int_Tables_number       1
_symmetry_cell_setting            triclinic
loop_
_symmetry_equiv_pos_as_xyz
'x, y, z'
_cell_length_a     24.467635
_cell_length_b     27.345981
_cell_length_c     45.233514
_cell_angle_alpha  90.403755
_cell_angle_beta   89.180343
_cell_angle_gamma 90.047619
loop_
_atom_site_label
_atom_site_type_symbol
_atom_site_fract_x
_atom_site_fract_y
_atom_site_fract_z
_atom_type_partial_charge
C0 C 0.64584 0.14127 0.22015 0.0
C1 C 0.66725 0.10247 0.19841 0.0
C2 C 0.64721 0.10197 0.14582 0.0
C3 C 0.64705 0.05124 0.14096 0.0
C4 C 0.61916 0.03087 0.11692 0.0
C5 C 0.5905 0.06189 0.09758 0.0
C6 C 0.59308 0.11326 0.10162 0.0
C7 C 0.62239 0.13263 0.12546 0.0
C8 C 0.61847 0.97606 0.11289 0.0
C9 C 0.56259 0.14758 0.08174 0.0
C10 C 0.20311 0.90637 0.11031 0.0
C11 C 0.22873 0.93847 0.13428 0.0
C12 C 0.30286 0.98332 0.10835 0.0
C13 C 0.31693 0.02891 0.09685 0.0
C14 C 0.36785 0.03683 0.08318 0.0
C15 C 0.40589 0.99801 0.08115 0.0
C16 C 0.39192 0.95149 0.09248 0.0
C17 C 0.34031 0.94444 0.10585 0.0
C18 C 0.38125 0.08692 0.07126 0.0
C19 C 0.43176 0.90949 0.09062 0.0
C20 C 0.37983 0.93434 0.88977 0.0
C21 C 0.37793 0.98388 0.89792 0.0
C22 C 0.41947 0.00478 0.91491 0.0
C23 C 0.46353 0.97529 0.92406 0.0
C24 C 0.46702 0.92599 0.91446 0.0
C25 C 0.42521 0.90625 0.89709 0.0
C26 C 0.41545 0.05795 0.92384 0.0
C27 C 0.51387 0.89378 0.92345 0.0
C28 C 0.86782 0.15362 0.92156 0.0
C29 C 0.83572 0.10959 0.90991 0.0
C30 C 0.73666 0.10034 0.91493 0.0
C31 C 0.68964 0.12807 0.92025 0.0
C32 C 0.64217 0.10668 0.93217 0.0
C33 C 0.64181 0.0561 0.93858 0.0
C34 C 0.68848 0.02735 0.93204 0.0
C35 C 0.73541 0.04973 0.92012 0.0
C36 C 0.59266 0.13821 0.93833 0.0
C37 C 0.68887 0.97312 0.93796 0.0
C38 C 0.55197 0.04047 0.07595 0.0
C39 C 0.501 0.02553 0.08692 0.0
C40 C 0.46097 0.00713 0.0682 0.0
C41 C 0.47218 1.00224 0.03761 0.0
C42 C 0.43322 0.98273 0.01827 0.0
C43 C 0.44402 0.97936 0.98806 0.0
C44 C 0.4937 0.99644 0.97593 0.0
C45 C 0.50409 0.99514 0.94508 0.0
C46 C 0.55305 0.01396 0.93368 0.0
C47 C 0.59262 0.03356 0.95235 0.0
C48 C 0.58385 0.03366 0.98335 0.0
C49 C 0.62359 0.0516 0.00285 0.0
C50 C 0.61383 0.05281 0.03327 0.0
C51 C 0.56355 0.03712 0.04526 0.0
C52 C 0.52336 0.01799 0.02604 0.0
C53 C 0.53379 0.01574 0.9951 0.0
C54 C 0.26086 0.86714 0.89337 0.0
C55 C 0.28336 0.91736 0.88457 0.0
O56 O 0.66965 0.1223 0.17028 0.0
O57 O 0.78228 0.12366 0.90492 0.0
O58 O 0.33758 0.91257 0.87572 0.0
O59 O 0.25294 0.97919 0.12162 0.0
H60 H 0.63707 0.07199 0.19918 0.0
H61 H 0.60411 0.15274 0.21378 0.0
H62 H 0.67272 0.17405 0.2201 0.0
H63 H 0.64362 0.12621 0.2429 0.0
H64 H 0.66799 0.02754 0.15618 0.0
H65 H 0.62354 0.1718 0.12923 0.0
H66 H 0.57764 0.96176 0.11949 0.0
H67 H 0.6498 0.95779 0.12649 0.0
H68 H 0.62562 0.96625 0.08928 0.0
H69 H 0.56662 0.1864 0.08879 0.0
H70 H 0.51853 0.13783 0.08161 0.0
H71 H 0.57843 0.14396 0.05873 0.0
H72 H 0.25989 0.91697 0.14625 0.0
H73 H 0.18364 0.87363 0.12038 0.0
H74 H 0.23496 0.89372 0.09431 0.0
H75 H 0.17175 0.92719 0.0981 0.0
H76 H 0.28768 0.05855 0.09878 0.0
H77 H 0.32989 0.90871 0.11433 0.0
H78 H 0.39352 0.08406 0.04758 0.0
H79 H 0.41637 0.10253 0.08341 0.0
H80 H 0.3462 0.11257 0.07338 0.0
H81 H 0.4146 0.87533 0.10014 0.0
H82 H 0.46957 0.91923 0.10263 0.0
H83 H 0.44354 0.90254 0.06717 0.0
H84 H 0.27997 0.93999 0.90508 0.0
H85 H 0.34365 0.00598 0.89127 0.0
H86 H 0.42656 0.86819 0.89027 0.0
H87 H 0.40763 0.06073 0.94802 0.0
H88 H 0.38204 0.07713 0.91227 0.0
H89 H 0.45468 0.07692 0.91899 0.0
H90 H 0.51054 0.85617 0.9142 0.0
H91 H 0.51512 0.89159 0.94794 0.0
H92 H 0.55312 0.91006 0.91577 0.0
H93 H 0.83727 0.0822 0.92795 0.0
H94 H 0.9113 0.14355 0.92484 0.0
H95 H 0.85023 0.16562 0.9432 0.0
H96 H 0.86585 0.18491 0.9061 0.0
H97 H 0.69072 0.16693 0.91571 0.0
H98 H 0.77084 0.02756 0.91485 0.0
H99 H 0.58301 0.13816 0.96239 0.0
H100 H 0.5567 0.12291 0.92675 0.0
H101 H 0.59891 0.17661 0.93116 0.0
H102 H 0.72854 0.95585 0.93179 0.0
H103 H 0.65588 0.95503 0.9253 0.0
H104 H 0.68042 0.96655 0.96179 0.0
H105 H 0.49173 0.02963 0.11035 0.0
H106 H 0.39395 0.96977 0.02631 0.0
H107 H 0.41251 0.96385 0.97429 0.0
H108 H 0.56015 0.01396 0.90994 0.0
H109 H 0.66269 0.06493 0.99479 0.0
H110 H 0.64581 0.06694 0.04726 0.0
H111 H 0.21664 0.86979 0.89911 0.0
H112 H 0.28277 0.85371 0.91306 0.0
H113 H 0.2667 0.83989 0.87529 0.0
C114 C 0.15928 0.25663 0.62066 0.0
C115 C 0.1259 0.27937 0.64622 0.0
C116 C 0.06918 0.34202 0.62237 0.0
C117 C 0.01597 0.35403 0.61429 0.0
C118 C 0.00458 0.39787 0.59962 0.0
C119 C 0.04772 0.43051 0.59271 0.0
C120 C 0.10163 0.41907 0.60116 0.0
C121 C 0.11188 0.37503 0.61591 0.0
C122 C 0.94655 0.409 0.59107 0.0
C123 C 0.14856 0.45309 0.59409 0.0
C124 C 0.90172 0.78653 0.62291 0.0
C125 C 0.93557 0.76382 0.64758 0.0
C126 C 0.98912 0.69856 0.6227 0.0
C127 C 0.04156 0.68481 0.61327 0.0
C128 C 0.05097 0.64002 0.59871 0.0
C129 C 0.00658 0.60814 0.59336 0.0
C130 C 0.95347 0.62127 0.60326 0.0
C131 C 0.94519 0.66631 0.6178 0.0
C132 C 0.10818 0.62715 0.58851 0.0
C133 C 0.90526 0.5881 0.59784 0.0
C134 C 0.971 0.69391 0.40511 0.0
C135 C 0.02433 0.68514 0.41473 0.0
C136 C 0.03758 0.64106 0.42868 0.0
C137 C 0.99641 0.6054 0.43344 0.0
C138 C 0.94306 0.6136 0.42286 0.0
C139 C 0.93129 0.65757 0.40843 0.0
C140 C 0.09544 0.6328 0.43863 0.0
C141 C 0.89822 0.57637 0.42737 0.0
C142 C 0.12335 0.23615 0.4103 0.0
C143 C 0.07237 0.25374 0.39433 0.0
C144 C 0.06763 0.3424 0.40059 0.0
C145 C 0.10662 0.37952 0.40268 0.0
C146 C 0.09563 0.42255 0.41879 0.0
C147 C 0.04358 0.42911 0.43231 0.0
C148 C 0.00306 0.39246 0.42911 0.0
C149 C 0.0157 0.34925 0.41346 0.0
C150 C 0.13983 0.46076 0.4216 0.0
C151 C 0.94644 0.39896 0.4422 0.0
C152 C 0.0368 0.47548 0.57547 0.0
C153 C 0.02673 0.5192 0.59088 0.0
C154 C 0.01528 0.56249 0.57585 0.0
C155 C 0.0129 0.56217 0.54461 0.0
C156 C -6e-05 0.60467 0.52885 0.0
C157 C -0.00205 0.60413 0.49814 0.0
C158 C 0.00949 0.56122 0.4819 0.0
C159 C 0.00854 0.56062 0.45062 0.0
C160 C 0.01946 0.51711 0.43519 0.0
C161 C 0.03189 0.47396 0.45013 0.0
C162 C 0.03372 0.47409 0.48141 0.0
C163 C 0.04701 0.43168 0.49719 0.0
C164 C 0.04789 0.43198 0.52794 0.0
C165 C 0.03617 0.47487 0.54418 0.0
C166 C 0.02374 0.51828 0.52873 0.0
C167 C 0.02226 0.51785 0.49732 0.0
C168 C 0.9269 0.79837 0.42551 0.0
C169 C 0.96926 0.78304 0.402 0.0
O170 O 0.07717 0.29826 0.63594 0.0
O171 O 0.08051 0.30141 0.38491 0.0
O172 O 0.95696 0.73635 0.3918 0.0
O173 O 0.98308 0.74322 0.63595 0.0
H174 H 0.15037 0.30927 0.6562 0.0
H175 H 0.17071 0.28488 0.60421 0.0
H176 H 0.13541 0.22779 0.60919 0.0
H177 H 0.19752 0.2403 0.62913 0.0
H178 H 0.98323 0.32858 0.61935 0.0
H179 H 0.15342 0.3667 0.62189 0.0
H180 H 0.93446 0.44562 0.59968 0.0
H181 H 0.91711 0.38138 0.59962 0.0
H182 H 0.94374 0.41002 0.56661 0.0
H183 H 0.18823 0.43906 0.60213 0.0
H184 H 0.14072 0.48949 0.60433 0.0
H185 H 0.15179 0.45834 0.56981 0.0
H186 H 0.91052 0.73503 0.65841 0.0
H187 H 0.86467 0.80448 0.63242 0.0
H188 H 0.88826 0.7579 0.6071 0.0
H189 H 0.92603 0.81401 0.61041 0.0
H190 H 0.07526 0.7097 0.61713 0.0
H191 H 0.90419 0.67603 0.6248 0.0
H192 H 0.11984 0.59088 0.59731 0.0
H193 H 0.13874 0.6547 0.59568 0.0
H194 H 0.10958 0.62447 0.56401 0.0
H195 H 0.86671 0.60279 0.60765 0.0
H196 H 0.91316 0.55148 0.60734 0.0
H197 H 0.89977 0.58311 0.57368 0.0
H198 H 0.01024 0.78351 0.41226 0.0
H199 H 0.05586 0.71227 0.41097 0.0
H200 H 0.8905 0.6644 0.40041 0.0
H201 H 0.09657 0.63374 0.46315 0.0
H202 H 0.12404 0.66102 0.42998 0.0
H203 H 0.10998 0.59617 0.43125 0.0
H204 H 0.85828 0.58922 0.41901 0.0
H205 H 0.89362 0.56794 0.45126 0.0
H206 H 0.90934 0.54184 0.41573 0.0
H207 H 0.03739 0.252 0.41029 0.0
H208 H 0.11746 0.19811 0.41822 0.0
H209 H 0.13114 0.26003 0.42976 0.0
H210 H 0.15972 0.23735 0.39531 0.0
H211 H 0.14626 0.37415 0.39216 0.0
H212 H 0.9847 0.32135 0.41077 0.0
H213 H 0.14582 0.47026 0.44525 0.0
H214 H 0.12715 0.49458 0.41013 0.0
H215 H 0.17946 0.44832 0.41191 0.0
H216 H 0.91775 0.37014 0.43459 0.0
H217 H 0.92982 0.4353 0.43622 0.0
H218 H 0.94843 0.39753 0.46667 0.0
H219 H 0.02793 0.51957 0.61484 0.0
H220 H 0.99097 0.63888 0.54008 0.0
H221 H 0.98741 0.63794 0.48731 0.0
H222 H 0.01847 0.51688 0.41121 0.0
H223 H 0.05672 0.39764 0.48595 0.0
H224 H 0.05811 0.39813 0.53882 0.0
H225 H 0.88518 0.79822 0.41611 0.0
H226 H 0.92771 0.77253 0.44433 0.0
H227 H 0.9361 0.83559 0.43412 0.0
O228 O 0.89391 1.00091 0.24781 0.0
Cd229 Cd 0.96737 0.97323 0.26269 0.0
Cd230 Cd -0.00266 0.0691 0.25747 0.0
O231 O 0.9196 0.07751 0.24171 0.0
O232 O 0.94988 0.90704 0.27847 0.0
O233 O 0.98262 0.96697 0.30608 0.0
C234 C 0.96625 0.92217 0.3039 0.0
C235 C 0.02382 0.11995 0.29634 0.0
C236 C 0.88328 0.04442 0.23996 0.0
C237 C 0.06142 0.99578 0.22153 0.0
O238 O 0.05524 0.04044 0.22875 0.0
O239 O 0.03092 0.96293 0.23271 0.0
O240 O 0.02392 0.1352 0.26942 0.0
O241 O 0.00911 0.07528 0.30122 0.0
O242 O 0.99034 0.07824 0.79567 0.0
Cd243 Cd 0.05983 0.06844 0.77021 0.0
Cd244 Cd 0.02515 0.97111 0.76983 0.0
O245 O 0.96683 1.0004 0.7984 0.0
O246 O 0.08597 0.13628 0.76227 0.0
O247 O 0.0616 0.08541 0.72675 0.0
C248 C 0.07957 0.12797 0.73449 0.0
C249 C 0.9964 0.91385 0.73446 0.0
C250 C 0.95957 0.04482 0.80596 0.0
C251 C 0.13376 0.99213 0.79675 0.0
O252 O 0.10051 0.95953 0.78809 0.0
O253 O 0.12476 0.03712 0.7919 0.0
O254 O 0.99686 0.90382 0.76221 0.0
O255 O 0.01234 0.95691 0.72653 0.0
C256 C 0.17383 0.92535 0.1814 0.0
C257 C 0.18513 0.95462 0.15654 0.0
C258 C 0.1335 0.93868 0.20228 0.0
C259 C 0.10347 0.9821 0.19926 0.0
H260 H 0.1964 0.89181 0.18469 0.0
H261 H 0.12631 0.91519 0.22113 0.0
S262 S 0.11237 0.06886 0.13677 0.0
N263 N 0.15871 0.02678 0.12881 0.0
N264 N 0.08479 0.05268 0.16875 0.0
C265 C 0.11335 0.0112 0.1743 0.0
C266 C 0.15349 0.99715 0.15269 0.0
C267 C 0.0788 0.20137 0.66333 0.0
C268 C 0.11369 0.24104 0.66963 0.0
C269 C 0.06851 0.16462 0.68422 0.0
C270 C 0.09207 0.16644 0.7124 0.0
H271 H 0.05948 0.19864 0.64199 0.0
H272 H 0.04134 0.13492 0.67836 0.0
S273 S 0.1873 0.26182 0.73983 0.0
N274 N 0.17273 0.27913 0.70596 0.0
N275 N 0.15261 0.21083 0.74533 0.0
C276 C 0.12695 0.20589 0.71902 0.0
C277 C 0.13795 0.24294 0.69764 0.0
C278 C 0.7689 0.11597 0.20431 0.0
C279 C 0.72331 0.08501 0.20753 0.0
C280 C 0.82033 0.10231 0.21465 0.0
C281 C 0.82841 0.05702 0.2286 0.0
H282 H 0.76455 0.15144 0.1941 0.0
H283 H 0.85395 0.1277 0.21175 0.0
S284 S 0.72201 0.96253 0.24232 0.0
N285 N 0.68935 0.00704 0.22559 0.0
N286 N 0.78605 0.98098 0.24481 0.0
C287 C 0.78322 0.02539 0.23161 0.0
C288 C 0.73072 0.03951 0.2212 0.0
C289 C 0.98534 0.84161 0.66266 0.0
C290 C 0.95044 0.80254 0.67042 0.0
C291 C -0.00097 0.87811 0.68326 0.0
C292 C 0.97918 0.8765 0.71257 0.0
H293 H 0.00228 0.8439 0.64046 0.0
H294 H 0.02628 0.90722 0.67632 0.0
S295 S 0.88525 0.78303 0.74403 0.0
N296 N 0.89509 0.76553 0.70937 0.0
N297 N 0.92179 0.83332 0.74815 0.0
C298 C 0.94414 0.83782 0.72062 0.0
C299 C 0.92958 0.80108 0.69956 0.0
C300 C 0.24079 0.91441 0.83359 0.0
C301 C 0.25019 0.94023 0.86012 0.0
C302 C 0.20474 0.93237 0.81242 0.0
C303 C 0.17858 0.97772 0.81642 0.0
H304 H 0.25972 0.87916 0.82964 0.0
H305 H 0.19633 0.91011 0.7931 0.0
S306 S 0.19445 0.06252 0.88011 0.0
N307 N 0.23337 0.01525 0.88802 0.0
N308 N 0.16777 0.0499 0.84762 0.0
C309 C 0.19073 0.00557 0.84173 0.0
C310 C 0.22615 0.98669 0.86367 0.0
C311 C 0.026 0.17943 0.37241 0.0
C312 C 0.0605 0.22015 0.36826 0.0
C313 C 0.01526 0.14661 0.34923 0.0
C314 C 0.03834 0.15339 0.32091 0.0
H315 H 0.0071 0.17291 0.39383 0.0
H316 H 0.98783 0.11623 0.3534 0.0
S317 S 0.13628 0.25078 0.29909 0.0
N318 N 0.12174 0.2626 0.33416 0.0
N319 N 0.10012 0.20187 0.29042 0.0
C320 C 0.07401 0.19313 0.31658 0.0
C321 C 0.08564 0.22613 0.3403 0.0
C322 C 0.8669 0.11954 0.85652 0.0
C323 C 0.86156 0.08957 0.88161 0.0
C324 C 0.89658 0.10398 0.83144 0.0
C325 C 0.92051 0.05727 0.83012 0.0
H326 H 0.84979 0.15605 0.85672 0.0
H327 H 0.90201 0.12916 0.81324 0.0
S328 S 0.91363 0.96279 0.88857 0.0
N329 N 0.87978 0.00979 0.90274 0.0
N330 N 0.93364 0.97986 0.8552 0.0
C331 C 0.91238 0.02573 0.85423 0.0
C332 C 0.88333 0.04201 0.88005 0.0
C333 C 0.93678 0.8113 0.35164 0.0
C334 C 0.96934 0.81926 0.37666 0.0
C335 C 0.93608 0.84486 0.32838 0.0
C336 C 0.96674 0.88842 0.32945 0.0
H337 H 0.91171 0.77879 0.34988 0.0
H338 H 0.91091 0.83664 0.30947 0.0
S339 S 0.05548 0.92842 0.39095 0.0
N340 N 0.03107 0.875 0.40167 0.0
N341 N 0.02896 0.93858 0.3582 0.0
C342 C -0.00189 0.89765 0.3547 0.0
C343 C -0.00056 0.86308 0.37823 0.0
loop_
_geom_bond_atom_site_label_1
_geom_bond_atom_site_label_2
_geom_bond_distance
_geom_bond_site_symmetry_2
_ccdc_geom_bond_type
C0 C1 1.560 . S
C0 H61 0.959 . S
C0 H62 0.959 . S
C0 H63 0.960 . S
C1 C0 1.560 . S
C1 O56 1.426 . S
C1 H60 0.980 . S
C2 C3 1.407 1_545 S
C2 C7 1.418 . S
C2 O56 1.334 . S
C3 C2 1.407 1_565 S
C3 C4 1.360 . S
C3 H64 0.929 . S
C4 C3 1.360 . S
C4 C5 1.401 1_565 S
C4 C8 1.527 . S
C5 C4 1.401 1_545 S
C5 C6 1.405 . S
C5 C38 1.587 1_545 S
C6 C5 1.405 . S
C6 C7 1.332 . S
C6 C9 1.496 . S
C7 C2 1.418 . S
C7 C6 1.332 . S
C7 H65 0.929 . S
C8 C4 1.527 . S
C8 H66 0.959 . S
C8 H67 0.961 . S
C8 H68 0.961 . S
C9 C6 1.496 . S
C9 H69 0.960 . S
C9 H70 0.960 . S
C9 H71 0.961 . S
C10 C11 1.517 . S
C10 H73 0.961 1_565 S
C10 H74 0.960 . S
C10 H75 0.959 . S
C11 C10 1.517 . S
C11 O59 1.468 . S
C11 H72 0.980 1_565 S
C12 C13 1.349 1_565 S
C12 C17 1.367 . S
C12 O59 1.408 . S
C13 C12 1.349 1_545 S
C13 C14 1.407 . S
C13 H76 0.930 . S
C14 C13 1.407 . S
C14 C15 1.449 1_545 S
C14 C18 1.535 . S
C15 C14 1.449 1_565 S
C15 C16 1.384 . S
C15 C40 1.553 . S
C16 C15 1.384 . S
C16 C17 1.364 . S
C16 C19 1.450 . S
C17 C12 1.367 . S
C17 C16 1.364 . S
C17 H77 0.931 . S
C18 C14 1.535 . S
C18 H78 0.959 . S
C18 H79 0.961 . S
C18 H80 0.959 . S
C19 C16 1.450 . S
C19 H81 0.960 . S
C19 H82 0.960 . S
C19 H83 0.960 . S
C20 C21 1.309 1_565 S
C20 C25 1.304 . S
C20 O58 1.435 . S
C21 C20 1.309 1_545 S
C21 C22 1.476 . S
C21 H85 0.930 . S
C22 C21 1.476 . S
C22 C23 1.400 1_545 S
C22 C26 1.567 . S
C23 C22 1.400 1_565 S
C23 C24 1.373 . S
C23 C45 1.432 . S
C24 C23 1.373 . S
C24 C25 1.339 . S
C24 C27 1.530 . S
C25 C20 1.304 . S
C25 C24 1.339 . S
C25 H86 0.930 . S
C26 C22 1.567 . S
C26 H87 0.961 . S
C26 H88 0.960 . S
C26 H89 0.958 . S
C27 C24 1.530 . S
C27 H90 0.961 . S
C27 H91 0.960 . S
C27 H92 0.960 . S
C28 C29 1.530 . S
C28 H94 0.961 . S
C28 H95 0.961 . S
C28 H96 0.959 . S
C29 C28 1.530 . S
C29 O57 1.412 . S
C29 H93 0.980 . S
C30 C31 1.288 . S
C30 C35 1.377 1_545 S
C30 O57 1.393 . S
C31 C30 1.288 . S
C31 C32 1.369 . S
C31 H97 0.932 . S
C32 C31 1.369 . S
C32 C33 1.398 . S
C32 C36 1.527 . S
C33 C32 1.398 . S
C33 C34 1.380 1_545 S
C33 C47 1.497 . S
C34 C33 1.380 1_565 S
C34 C35 1.383 . S
C34 C37 1.603 . S
C35 C30 1.377 1_565 S
C35 C34 1.383 . S
C35 H98 0.929 . S
C36 C32 1.527 . S
C36 H99 0.961 . S
C36 H100 0.959 . S
C36 H101 0.959 . S
C37 C34 1.603 . S
C37 H102 0.960 . S
C37 H103 0.962 . S
C37 H104 0.961 . S
C38 C5 1.587 1_565 S
C38 C39 1.360 . S
C38 C51 1.412 . S
C39 C38 1.360 . S
C39 C40 1.365 . S
C39 H105 0.929 . S
C40 C15 1.553 . S
C40 C39 1.365 . S
C40 C41 1.404 . S
C41 C40 1.404 . S
C41 C42 1.395 . S
C41 C52 1.451 . S
C42 C41 1.395 . S
C42 C43 1.322 . S
C42 H106 0.930 . S
C43 C42 1.322 . S
C43 C44 1.459 1_554 S
C43 H107 0.929 1_554 S
C44 C43 1.459 1_556 S
C44 C45 1.445 . S
C44 C53 1.395 1_556 S
C45 C23 1.432 . S
C45 C44 1.445 . S
C45 C46 1.370 . S
C46 C45 1.370 . S
C46 C47 1.438 1_565 S
C46 H108 0.930 . S
C47 C33 1.497 . S
C47 C46 1.438 1_545 S
C47 C48 1.359 1_545 S
C48 C47 1.359 1_565 S
C48 C49 1.399 1_566 S
C48 C53 1.448 1_556 S
C49 C48 1.399 1_544 S
C49 C50 1.347 . S
C49 H109 0.929 1_554 S
C50 C49 1.347 . S
C50 C51 1.455 1_545 S
C50 H110 0.930 . S
C51 C38 1.412 . S
C51 C50 1.455 1_565 S
C51 C52 1.331 . S
C52 C41 1.451 . S
C52 C51 1.331 . S
C52 C53 1.497 . S
C53 C44 1.395 1_554 S
C53 C48 1.448 1_554 S
C53 C52 1.497 . S
C54 C55 1.582 1_565 S
C54 H111 0.962 . S
C54 H112 0.959 . S
C54 H113 0.958 . S
C55 C54 1.582 1_545 S
C55 O58 1.458 1_545 S
C55 H84 0.980 . S
O56 C1 1.426 . S
O56 C2 1.334 . S
O57 C29 1.412 . S
O57 C30 1.393 . S
O58 C20 1.435 . S
O58 C55 1.458 1_565 S
O59 C11 1.468 . S
O59 C12 1.408 . S
H60 C1 0.980 . S
H61 C0 0.959 . S
H62 C0 0.959 . S
H63 C0 0.960 . S
H64 C3 0.929 . S
H65 C7 0.929 . S
H66 C8 0.959 . S
H67 C8 0.961 . S
H68 C8 0.961 . S
H69 C9 0.960 . S
H70 C9 0.960 . S
H71 C9 0.961 . S
H72 C11 0.980 1_545 S
H73 C10 0.961 1_545 S
H74 C10 0.960 . S
H75 C10 0.959 . S
H76 C13 0.930 . S
H77 C17 0.931 . S
H78 C18 0.959 . S
H79 C18 0.961 . S
H80 C18 0.959 . S
H81 C19 0.960 . S
H82 C19 0.960 . S
H83 C19 0.960 . S
H84 C55 0.980 . S
H85 C21 0.930 . S
H86 C25 0.930 . S
H87 C26 0.961 . S
H88 C26 0.960 . S
H89 C26 0.958 . S
H90 C27 0.961 . S
H91 C27 0.960 . S
H92 C27 0.960 . S
H93 C29 0.980 . S
H94 C28 0.961 . S
H95 C28 0.961 . S
H96 C28 0.959 . S
H97 C31 0.932 . S
H98 C35 0.929 . S
H99 C36 0.961 . S
H100 C36 0.959 . S
H101 C36 0.959 . S
H102 C37 0.960 . S
H103 C37 0.962 . S
H104 C37 0.961 . S
H105 C39 0.929 . S
H106 C42 0.930 . S
H107 C43 0.929 1_556 S
H108 C46 0.930 . S
H109 C49 0.929 1_556 S
H110 C50 0.930 . S
H111 C54 0.962 . S
H112 C54 0.959 . S
H113 C54 0.958 . S
C114 C115 1.560 . S
C114 H175 0.959 . S
C114 H176 0.959 . S
C114 H177 0.960 . S
C115 C114 1.560 . S
C115 O170 1.426 . S
C115 H174 0.980 . S
C116 C117 1.407 . S
C116 C121 1.418 . S
C116 O170 1.334 . S
C117 C116 1.407 . S
C117 C118 1.360 1_455 S
C117 H178 0.929 1_455 S
C118 C117 1.360 1_655 S
C118 C119 1.401 1_655 S
C118 C122 1.527 . S
C119 C118 1.401 1_455 S
C119 C120 1.405 . S
C119 C152 1.587 . S
C120 C119 1.405 . S
C120 C121 1.332 . S
C120 C123 1.496 . S
C121 C116 1.418 . S
C121 C120 1.332 . S
C121 H179 0.929 . S
C122 C118 1.527 . S
C122 H180 0.959 . S
C122 H181 0.961 . S
C122 H182 0.961 . S
C123 C120 1.496 . S
C123 H183 0.960 . S
C123 H184 0.960 . S
C123 H185 0.961 . S
C124 C125 1.517 1_655 S
C124 H187 0.961 1_655 S
C124 H188 0.960 . S
C124 H189 0.959 . S
C125 C124 1.517 1_455 S
C125 O173 1.468 1_455 S
C125 H186 0.980 . S
C126 C127 1.349 1_655 S
C126 C131 1.367 . S
C126 O173 1.408 . S
C127 C126 1.349 1_455 S
C127 C128 1.407 . S
C127 H190 0.930 . S
C128 C127 1.407 . S
C128 C129 1.449 1_455 S
C128 C132 1.535 . S
C129 C128 1.449 1_655 S
C129 C130 1.384 . S
C129 C154 1.553 . S
C130 C129 1.384 . S
C130 C131 1.364 . S
C130 C133 1.450 . S
C131 C126 1.367 . S
C131 C130 1.364 . S
C131 H191 0.931 . S
C132 C128 1.535 . S
C132 H192 0.959 . S
C132 H193 0.961 . S
C132 H194 0.959 . S
C133 C130 1.450 . S
C133 H195 0.960 . S
C133 H196 0.960 . S
C133 H197 0.960 . S
C134 C135 1.309 1_655 S
C134 C139 1.304 . S
C134 O172 1.435 . S
C135 C134 1.309 1_455 S
C135 C136 1.476 . S
C135 H199 0.930 . S
C136 C135 1.476 . S
C136 C137 1.400 1_455 S
C136 C140 1.567 . S
C137 C136 1.400 1_655 S
C137 C138 1.373 . S
C137 C159 1.432 1_655 S
C138 C137 1.373 . S
C138 C139 1.339 . S
C138 C141 1.530 . S
C139 C134 1.304 . S
C139 C138 1.339 . S
C139 H200 0.930 . S
C140 C136 1.567 . S
C140 H201 0.961 . S
C140 H202 0.960 . S
C140 H203 0.958 . S
C141 C138 1.530 . S
C141 H204 0.961 . S
C141 H205 0.960 . S
C141 H206 0.960 . S
C142 C143 1.530 . S
C142 H208 0.961 . S
C142 H209 0.961 . S
C142 H210 0.959 . S
C143 C142 1.530 . S
C143 O171 1.412 . S
C143 H207 0.980 . S
C144 C145 1.288 . S
C144 C149 1.377 . S
C144 O171 1.393 . S
C145 C144 1.288 . S
C145 C146 1.369 . S
C145 H211 0.932 . S
C146 C145 1.369 . S
C146 C147 1.398 . S
C146 C150 1.527 . S
C147 C146 1.398 . S
C147 C148 1.380 1_455 S
C147 C161 1.497 . S
C148 C147 1.380 1_655 S
C148 C149 1.383 1_655 S
C148 C151 1.603 . S
C149 C144 1.377 . S
C149 C148 1.383 1_455 S
C149 H212 0.929 1_455 S
C150 C146 1.527 . S
C150 H213 0.961 . S
C150 H214 0.959 . S
C150 H215 0.959 . S
C151 C148 1.603 . S
C151 H216 0.960 . S
C151 H217 0.962 . S
C151 H218 0.961 . S
C152 C119 1.587 . S
C152 C153 1.360 1_455 S
C152 C165 1.412 . S
C153 C152 1.360 1_655 S
C153 C154 1.365 . S
C153 H219 0.929 . S
C154 C129 1.553 . S
C154 C153 1.365 . S
C154 C155 1.404 . S
C155 C154 1.404 . S
C155 C156 1.395 . S
C155 C166 1.449 1_655 S
C156 C155 1.395 . S
C156 C157 1.322 . S
C156 H220 0.930 . S
C157 C156 1.322 . S
C157 C158 1.459 . S
C157 H221 0.929 . S
C158 C157 1.459 . S
C158 C159 1.445 1_655 S
C158 C167 1.395 1_655 S
C159 C137 1.432 1_455 S
C159 C158 1.445 1_455 S
C159 C160 1.370 . S
C160 C159 1.370 . S
C160 C161 1.438 . S
C160 H222 0.930 . S
C161 C147 1.497 . S
C161 C160 1.438 . S
C161 C162 1.360 . S
C162 C161 1.360 . S
C162 C163 1.401 . S
C162 C167 1.446 . S
C163 C162 1.401 . S
C163 C164 1.347 . S
C163 H223 0.929 . S
C164 C163 1.347 . S
C164 C165 1.455 . S
C164 H224 0.930 . S
C165 C152 1.412 . S
C165 C164 1.455 . S
C165 C166 1.333 . S
C166 C155 1.449 1_455 S
C166 C165 1.333 . S
C166 C167 1.497 . S
C167 C158 1.395 1_455 S
C167 C162 1.446 . S
C167 C166 1.497 . S
C168 C169 1.582 1_655 S
C168 H225 0.962 1_655 S
C168 H226 0.959 . S
C168 H227 0.958 . S
C169 C168 1.582 1_455 S
C169 O172 1.458 1_455 S
C169 H198 0.980 . S
O170 C115 1.426 . S
O170 C116 1.334 . S
O171 C143 1.412 . S
O171 C144 1.393 . S
O172 C134 1.435 . S
O172 C169 1.458 1_655 S
O173 C125 1.468 1_655 S
O173 C126 1.408 . S
H174 C115 0.980 . S
H175 C114 0.959 . S
H176 C114 0.959 . S
H177 C114 0.960 . S
H178 C117 0.929 1_655 S
H179 C121 0.929 . S
H180 C122 0.959 . S
H181 C122 0.961 . S
H182 C122 0.961 . S
H183 C123 0.960 . S
H184 C123 0.960 . S
H185 C123 0.961 . S
H186 C125 0.980 . S
H187 C124 0.961 1_455 S
H188 C124 0.960 . S
H189 C124 0.959 . S
H190 C127 0.930 . S
H191 C131 0.931 . S
H192 C132 0.959 . S
H193 C132 0.961 . S
H194 C132 0.959 . S
H195 C133 0.960 . S
H196 C133 0.960 . S
H197 C133 0.960 . S
H198 C169 0.980 . S
H199 C135 0.930 . S
H200 C139 0.930 . S
H201 C140 0.961 . S
H202 C140 0.960 . S
H203 C140 0.958 . S
H204 C141 0.961 . S
H205 C141 0.960 . S
H206 C141 0.960 . S
H207 C143 0.980 . S
H208 C142 0.961 . S
H209 C142 0.961 . S
H210 C142 0.959 . S
H211 C145 0.932 . S
H212 C149 0.929 1_655 S
H213 C150 0.961 . S
H214 C150 0.959 . S
H215 C150 0.959 . S
H216 C151 0.960 . S
H217 C151 0.962 . S
H218 C151 0.961 . S
H219 C153 0.929 . S
H220 C156 0.930 . S
H221 C157 0.929 . S
H222 C160 0.930 . S
H223 C163 0.929 . S
H224 C164 0.930 . S
H225 C168 0.962 1_455 S
H226 C168 0.959 . S
H227 C168 0.958 . S
O228 Cd229 2.223 . S
O228 C236 1.315 1_455 S
Cd229 O228 2.223 . S
Cd229 O232 2.297 . S
Cd229 O233 2.439 . S
Cd229 O239 2.240 1_565 S
Cd230 O231 2.235 1_455 S
Cd230 O238 2.231 . S
Cd230 O240 2.304 . S
Cd230 O241 2.445 . S
O231 Cd230 2.235 1_655 S
O231 C236 1.279 1_545 S
O232 Cd229 2.297 . S
O232 C234 1.247 . S
O233 Cd229 2.439 . S
O233 C234 1.208 . S
C234 O232 1.247 . S
C234 O233 1.208 . S
C235 O240 1.247 . S
C235 O241 1.208 . S
C236 O228 1.315 1_655 S
C236 O231 1.279 1_565 S
C237 O238 1.315 . S
C237 O239 1.279 . S
O238 Cd230 2.231 . S
O238 C237 1.315 . S
O239 Cd229 2.240 1_545 S
O239 C237 1.279 . S
O240 Cd230 2.304 . S
O240 C235 1.247 . S
O241 Cd230 2.445 . S
O241 C235 1.208 . S
O242 Cd243 2.223 . S
O242 C250 1.315 1_455 S
Cd243 O242 2.223 . S
Cd243 O246 2.297 . S
Cd243 O247 2.439 . S
Cd243 O253 2.240 . S
Cd244 O245 2.237 1_465 S
Cd244 O252 2.228 . S
Cd244 O254 2.301 . S
Cd244 O255 2.442 . S
O245 Cd244 2.237 1_645 S
O245 C250 1.279 . S
O246 Cd243 2.297 . S
O246 C248 1.247 . S
O247 Cd243 2.439 . S
O247 C248 1.208 . S
C248 O246 1.247 . S
C248 O247 1.208 . S
C249 O254 1.247 . S
C249 O255 1.208 . S
C250 O242 1.315 1_655 S
C250 O245 1.279 . S
C251 O252 1.315 . S
C251 O253 1.279 1_565 S
O252 Cd244 2.228 . S
O252 C251 1.315 . S
O253 Cd243 2.240 . S
O253 C251 1.279 1_545 S
O254 Cd244 2.301 . S
O254 C249 1.247 . S
O255 Cd244 2.442 . S
O255 C249 1.208 . S
C256 C257 1.369 . S
C256 C258 1.419 . S
C256 H260 0.930 . S
C257 C256 1.369 . S
C257 C266 1.429 . S
C258 C256 1.419 . S
C258 C259 1.363 . S
C258 H261 0.929 . S
C259 C258 1.363 . S
C259 C265 1.428 . S
H260 C256 0.930 . S
H261 C258 0.929 . S
S262 N263 1.613 . S
S262 N264 1.610 . S
N263 S262 1.613 . S
N263 C266 1.350 . S
N264 S262 1.610 . S
N264 C265 1.351 . S
C265 C259 1.428 . S
C265 N264 1.351 . S
C265 C266 1.434 . S
C266 C257 1.429 . S
C266 N263 1.350 . S
C266 C265 1.434 . S
C267 C268 1.369 . S
C267 C269 1.419 . S
C267 H271 0.930 . S
C268 C267 1.369 . S
C268 C277 1.429 1_455 S
C269 C267 1.419 . S
C269 C270 1.363 . S
C269 H272 0.929 . S
C270 C269 1.363 . S
C270 C276 1.428 1_455 S
H271 C267 0.930 . S
H272 C269 0.929 . S
S273 N274 1.613 . S
S273 N275 1.610 . S
N274 S273 1.613 . S
N274 C277 1.350 . S
N275 S273 1.610 . S
N275 C276 1.351 . S
C276 C270 1.428 1_655 S
C276 N275 1.351 . S
C276 C277 1.434 . S
C277 C268 1.429 1_655 S
C277 N274 1.350 . S
C277 C276 1.434 . S
C278 C279 1.369 . S
C278 C280 1.419 . S
C278 H282 0.930 . S
C279 C278 1.369 . S
C279 C288 1.429 1_545 S
C280 C278 1.419 . S
C280 C281 1.363 . S
C280 H283 0.929 . S
C281 C280 1.363 . S
C281 C287 1.428 1_545 S
H282 C278 0.930 . S
H283 C280 0.929 . S
S284 N285 1.613 . S
S284 N286 1.610 . S
N285 S284 1.613 . S
N285 C288 1.350 . S
N286 S284 1.610 . S
N286 C287 1.351 . S
C287 C281 1.428 1_565 S
C287 N286 1.351 . S
C287 C288 1.434 . S
C288 C279 1.429 1_565 S
C288 N285 1.350 . S
C288 C287 1.434 . S
C289 C290 1.369 . S
C289 C291 1.419 . S
C289 H293 0.930 . S
C290 C289 1.369 . S
C290 C299 1.429 . S
C291 C289 1.419 . S
C291 C292 1.363 . S
C291 H294 0.929 . S
C292 C291 1.363 . S
C292 C298 1.428 . S
H293 C289 0.930 . S
H294 C291 0.929 . S
S295 N296 1.613 . S
S295 N297 1.610 . S
N296 S295 1.613 . S
N296 C299 1.350 . S
N297 S295 1.610 . S
N297 C298 1.351 . S
C298 C292 1.428 . S
C298 N297 1.351 . S
C298 C299 1.434 . S
C299 C290 1.429 . S
C299 N296 1.350 . S
C299 C298 1.434 . S
C300 C301 1.369 1_565 S
C300 C302 1.419 . S
C300 H304 0.930 . S
C301 C300 1.369 1_545 S
C301 C310 1.429 . S
C302 C300 1.419 . S
C302 C303 1.363 . S
C302 H305 0.929 . S
C303 C302 1.363 . S
C303 C309 1.428 1_565 S
H304 C300 0.930 . S
H305 C302 0.929 . S
S306 N307 1.613 . S
S306 N308 1.610 . S
N307 S306 1.613 . S
N307 C310 1.350 . S
N308 S306 1.610 . S
N308 C309 1.351 . S
C309 C303 1.428 1_545 S
C309 N308 1.351 . S
C309 C310 1.434 . S
C310 C301 1.429 . S
C310 N307 1.350 . S
C310 C309 1.434 . S
C311 C312 1.369 . S
C311 C313 1.419 . S
C311 H315 0.930 . S
C312 C311 1.369 . S
C312 C321 1.429 . S
C313 C311 1.419 . S
C313 C314 1.363 . S
C313 H316 0.929 . S
C314 C313 1.363 . S
C314 C320 1.428 . S
H315 C311 0.930 . S
H316 C313 0.929 . S
S317 N318 1.613 . S
S317 N319 1.610 . S
N318 S317 1.613 . S
N318 C321 1.350 . S
N319 S317 1.610 . S
N319 C320 1.351 . S
C320 C314 1.428 . S
C320 N319 1.351 . S
C320 C321 1.434 . S
C321 C312 1.429 . S
C321 N318 1.350 . S
C321 C320 1.434 . S
C322 C323 1.369 . S
C322 C324 1.419 . S
C322 H326 0.930 . S
C323 C322 1.369 . S
C323 C332 1.429 . S
C324 C322 1.419 . S
C324 C325 1.363 . S
C324 H327 0.929 . S
C325 C324 1.363 . S
C325 C331 1.428 . S
H326 C322 0.930 . S
H327 C324 0.929 . S
S328 N329 1.613 . S
S328 N330 1.610 . S
N329 S328 1.613 . S
N329 C332 1.350 . S
N330 S328 1.610 . S
N330 C331 1.351 . S
C331 C325 1.428 . S
C331 N330 1.351 . S
C331 C332 1.434 . S
C332 C323 1.429 . S
C332 N329 1.350 . S
C332 C331 1.434 . S
C333 C334 1.369 . S
C333 C335 1.419 . S
C333 H337 0.930 . S
C334 C333 1.369 . S
C334 C343 1.429 1_455 S
C335 C333 1.419 . S
C335 C336 1.363 . S
C335 H338 0.929 . S
C336 C335 1.363 . S
C336 C342 1.428 1_455 S
H337 C333 0.930 . S
H338 C335 0.929 . S
S339 N340 1.613 . S
S339 N341 1.610 . S
N340 S339 1.613 . S
N340 C343 1.350 . S
N341 S339 1.610 . S
N341 C342 1.351 . S
C342 C336 1.428 1_655 S
C342 N341 1.351 . S
C342 C343 1.434 . S
C343 C334 1.429 1_655 S
C343 N340 1.350 . S
C343 C342 1.434 . S
C259 C237 1.645 . S
C257 C11 1.072 1_545 S
C270 C248 1.422 . S
C268 C115 1.290 . S
C281 C236 1.470 1_545 S
C279 C1 1.193 . S
C292 C249 1.547 . S
C290 C125 1.085 . S
C303 C251 1.673 . S
C301 C55 1.182 . S
C314 C235 1.494 . S
C312 C143 1.172 . S
C325 C250 1.575 . S
C323 C29 1.158 . S
C334 C169 1.137 . S
C336 C234 1.626 . S
