# Generated by pormake.
# Topology llk, (3,12)-cn, num edge types: 1
# Building blocks:
#     Node 0, Type 0, BuildingBlock: QEWDON_clean_linker_0, # of connection points: 3
#     Node 1, Type 0, BuildingBlock: QEWDON_clean_linker_0, # of connection points: 3
#     Node 2, Type 0, BuildingBlock: QEWDON_clean_linker_0, # of connection points: 3
#     Node 3, Type 0, BuildingBlock: QEWDON_clean_linker_0, # of connection points: 3
#     Node 4, Type 0, BuildingBlock: QEWDON_clean_linker_0, # of connection points: 3
#     Node 5, Type 0, BuildingBlock: QEWDON_clean_linker_0, # of connection points: 3
#     Node 6, Type 0, BuildingBlock: QEWDON_clean_linker_0, # of connection points: 3
#     Node 7, Type 0, BuildingBlock: QEWDON_clean_linker_0, # of connection points: 3
#     Node 8, Type 0, BuildingBlock: QEWDON_clean_linker_0, # of connection points: 3
#     Node 9, Type 0, BuildingBlock: QEWDON_clean_linker_0, # of connection points: 3
#     Node 10, Type 0, BuildingBlock: QEWDON_clean_linker_0, # of connection points: 3
#     Node 11, Type 0, BuildingBlock: QEWDON_clean_linker_0, # of connection points: 3
#     Node 12, Type 0, BuildingBlock: QEWDON_clean_linker_0, # of connection points: 3
#     Node 13, Type 0, BuildingBlock: QEWDON_clean_linker_0, # of connection points: 3
#     Node 14, Type 0, BuildingBlock: QEWDON_clean_linker_0, # of connection points: 3
#     Node 15, Type 0, BuildingBlock: QEWDON_clean_linker_0, # of connection points: 3
#     Node 16, Type 0, BuildingBlock: QEWDON_clean_linker_0, # of connection points: 3
#     Node 17, Type 0, BuildingBlock: QEWDON_clean_linker_0, # of connection points: 3
#     Node 18, Type 0, BuildingBlock: QEWDON_clean_linker_0, # of connection points: 3
#     Node 19, Type 0, BuildingBlock: QEWDON_clean_linker_0, # of connection points: 3
#     Node 20, Type 0, BuildingBlock: QEWDON_clean_linker_0, # of connection points: 3
#     Node 21, Type 0, BuildingBlock: QEWDON_clean_linker_0, # of connection points: 3
#     Node 22, Type 0, BuildingBlock: QEWDON_clean_linker_0, # of connection points: 3
#     Node 23, Type 0, BuildingBlock: QEWDON_clean_linker_0, # of connection points: 3
#     Node 24, Type 1, BuildingBlock: EZIPEK_clean_sbu_0, # of connection points: 12
#     Node 25, Type 1, BuildingBlock: EZIPEK_clean_sbu_0, # of connection points: 12
#     Node 26, Type 1, BuildingBlock: EZIPEK_clean_sbu_0, # of connection points: 12
#     Node 27, Type 1, BuildingBlock: EZIPEK_clean_sbu_0, # of connection points: 12
#     Node 28, Type 1, BuildingBlock: EZIPEK_clean_sbu_0, # of connection points: 12
#     Node 29, Type 1, BuildingBlock: EZIPEK_clean_sbu_0, # of connection points: 12
#     Edge 30, Type (0, 1), BuildingBlock: XUDNAN_clean_linker_2, # of connection points: 2
#     Edge 31, Type (0, 1), BuildingBlock: XUDNAN_clean_linker_2, # of connection points: 2
#     Edge 32, Type (0, 1), BuildingBlock: XUDNAN_clean_linker_2, # of connection points: 2
#     Edge 33, Type (0, 1), BuildingBlock: XUDNAN_clean_linker_2, # of connection points: 2
#     Edge 34, Type (0, 1), BuildingBlock: XUDNAN_clean_linker_2, # of connection points: 2
#     Edge 35, Type (0, 1), BuildingBlock: XUDNAN_clean_linker_2, # of connection points: 2
#     Edge 36, Type (0, 1), BuildingBlock: XUDNAN_clean_linker_2, # of connection points: 2
#     Edge 37, Type (0, 1), BuildingBlock: XUDNAN_clean_linker_2, # of connection points: 2
#     Edge 38, Type (0, 1), BuildingBlock: XUDNAN_clean_linker_2, # of connection points: 2
#     Edge 39, Type (0, 1), BuildingBlock: XUDNAN_clean_linker_2, # of connection points: 2
#     Edge 40, Type (0, 1), BuildingBlock: XUDNAN_clean_linker_2, # of connection points: 2
#     Edge 41, Type (0, 1), BuildingBlock: XUDNAN_clean_linker_2, # of connection points: 2
#     Edge 42, Type (0, 1), BuildingBlock: XUDNAN_clean_linker_2, # of connection points: 2
#     Edge 43, Type (0, 1), BuildingBlock: XUDNAN_clean_linker_2, # of connection points: 2
#     Edge 44, Type (0, 1), BuildingBlock: XUDNAN_clean_linker_2, # of connection points: 2
#     Edge 45, Type (0, 1), BuildingBlock: XUDNAN_clean_linker_2, # of connection points: 2
#     Edge 46, Type (0, 1), BuildingBlock: XUDNAN_clean_linker_2, # of connection points: 2
#     Edge 47, Type (0, 1), BuildingBlock: XUDNAN_clean_linker_2, # of connection points: 2
#     Edge 48, Type (0, 1), BuildingBlock: XUDNAN_clean_linker_2, # of connection points: 2
#     Edge 49, Type (0, 1), BuildingBlock: XUDNAN_clean_linker_2, # of connection points: 2
#     Edge 50, Type (0, 1), BuildingBlock: XUDNAN_clean_linker_2, # of connection points: 2
#     Edge 51, Type (0, 1), BuildingBlock: XUDNAN_clean_linker_2, # of connection points: 2
#     Edge 52, Type (0, 1), BuildingBlock: XUDNAN_clean_linker_2, # of connection points: 2
#     Edge 53, Type (0, 1), BuildingBlock: XUDNAN_clean_linker_2, # of connection points: 2
#     Edge 54, Type (0, 1), BuildingBlock: XUDNAN_clean_linker_2, # of connection points: 2
#     Edge 55, Type (0, 1), BuildingBlock: XUDNAN_clean_linker_2, # of connection points: 2
#     Edge 56, Type (0, 1), BuildingBlock: XUDNAN_clean_linker_2, # of connection points: 2
#     Edge 57, Type (0, 1), BuildingBlock: XUDNAN_clean_linker_2, # of connection points: 2
#     Edge 58, Type (0, 1), BuildingBlock: XUDNAN_clean_linker_2, # of connection points: 2
#     Edge 59, Type (0, 1), BuildingBlock: XUDNAN_clean_linker_2, # of connection points: 2
#     Edge 60, Type (0, 1), BuildingBlock: XUDNAN_clean_linker_2, # of connection points: 2
#     Edge 61, Type (0, 1), BuildingBlock: XUDNAN_clean_linker_2, # of connection points: 2
#     Edge 62, Type (0, 1), BuildingBlock: XUDNAN_clean_linker_2, # of connection points: 2
#     Edge 63, Type (0, 1), BuildingBlock: XUDNAN_clean_linker_2, # of connection points: 2
#     Edge 64, Type (0, 1), BuildingBlock: XUDNAN_clean_linker_2, # of connection points: 2
#     Edge 65, Type (0, 1), BuildingBlock: XUDNAN_clean_linker_2, # of connection points: 2
#     Edge 66, Type (0, 1), BuildingBlock: XUDNAN_clean_linker_2, # of connection points: 2
#     Edge 67, Type (0, 1), BuildingBlock: XUDNAN_clean_linker_2, # of connection points: 2
#     Edge 68, Type (0, 1), BuildingBlock: XUDNAN_clean_linker_2, # of connection points: 2
#     Edge 69, Type (0, 1), BuildingBlock: XUDNAN_clean_linker_2, # of connection points: 2
#     Edge 70, Type (0, 1), BuildingBlock: XUDNAN_clean_linker_2, # of connection points: 2
#     Edge 71, Type (0, 1), BuildingBlock: XUDNAN_clean_linker_2, # of connection points: 2
#     Edge 72, Type (0, 1), BuildingBlock: XUDNAN_clean_linker_2, # of connection points: 2
#     Edge 73, Type (0, 1), BuildingBlock: XUDNAN_clean_linker_2, # of connection points: 2
#     Edge 74, Type (0, 1), BuildingBlock: XUDNAN_clean_linker_2, # of connection points: 2
#     Edge 75, Type (0, 1), BuildingBlock: XUDNAN_clean_linker_2, # of connection points: 2
#     Edge 76, Type (0, 1), BuildingBlock: XUDNAN_clean_linker_2, # of connection points: 2
#     Edge 77, Type (0, 1), BuildingBlock: XUDNAN_clean_linker_2, # of connection points: 2
#     Edge 78, Type (0, 1), BuildingBlock: XUDNAN_clean_linker_2, # of connection points: 2
#     Edge 79, Type (0, 1), BuildingBlock: XUDNAN_clean_linker_2, # of connection points: 2
#     Edge 80, Type (0, 1), BuildingBlock: XUDNAN_clean_linker_2, # of connection points: 2
#     Edge 81, Type (0, 1), BuildingBlock: XUDNAN_clean_linker_2, # of connection points: 2
#     Edge 82, Type (0, 1), BuildingBlock: XUDNAN_clean_linker_2, # of connection points: 2
#     Edge 83, Type (0, 1), BuildingBlock: XUDNAN_clean_linker_2, # of connection points: 2
#     Edge 84, Type (0, 1), BuildingBlock: XUDNAN_clean_linker_2, # of connection points: 2
#     Edge 85, Type (0, 1), BuildingBlock: XUDNAN_clean_linker_2, # of connection points: 2
#     Edge 86, Type (0, 1), BuildingBlock: XUDNAN_clean_linker_2, # of connection points: 2
#     Edge 87, Type (0, 1), BuildingBlock: XUDNAN_clean_linker_2, # of connection points: 2
#     Edge 88, Type (0, 1), BuildingBlock: XUDNAN_clean_linker_2, # of connection points: 2
#     Edge 89, Type (0, 1), BuildingBlock: XUDNAN_clean_linker_2, # of connection points: 2
#     Edge 90, Type (0, 1), BuildingBlock: XUDNAN_clean_linker_2, # of connection points: 2
#     Edge 91, Type (0, 1), BuildingBlock: XUDNAN_clean_linker_2, # of connection points: 2
#     Edge 92, Type (0, 1), BuildingBlock: XUDNAN_clean_linker_2, # of connection points: 2
#     Edge 93, Type (0, 1), BuildingBlock: XUDNAN_clean_linker_2, # of connection points: 2
#     Edge 94, Type (0, 1), BuildingBlock: XUDNAN_clean_linker_2, # of connection points: 2
#     Edge 95, Type (0, 1), BuildingBlock: XUDNAN_clean_linker_2, # of connection points: 2
#     Edge 96, Type (0, 1), BuildingBlock: XUDNAN_clean_linker_2, # of connection points: 2
#     Edge 97, Type (0, 1), BuildingBlock: XUDNAN_clean_linker_2, # of connection points: 2
#     Edge 98, Type (0, 1), BuildingBlock: XUDNAN_clean_linker_2, # of connection points: 2
#     Edge 99, Type (0, 1), BuildingBlock: XUDNAN_clean_linker_2, # of connection points: 2
#     Edge 100, Type (0, 1), BuildingBlock: XUDNAN_clean_linker_2, # of connection points: 2
#     Edge 101, Type (0, 1), BuildingBlock: XUDNAN_clean_linker_2, # of connection points: 2
# Relax obj value: 0.088
# Max RMSD: 0.249
# Mean RMSD: 0.190
data_MOF--net-llk--node1-EZIPEK_clean_sbu_0--node2-QEWDON_clean_linker_0--edge1-XUDNAN_clean_linker_2
_symmetry_space_group_name_H-M    P1
_symmetry_Int_Tables_number       1
_symmetry_cell_setting            triclinic
loop_
_symmetry_equiv_pos_as_xyz
'x, y, z'
_cell_length_a     49.269716
_cell_length_b     48.835213
_cell_length_c     48.427156
_cell_angle_alpha  89.996329
_cell_angle_beta   89.99659
_cell_angle_gamma 89.956332
loop_
_atom_site_label
_atom_site_type_symbol
_atom_site_fract_x
_atom_site_fract_y
_atom_site_fract_z
_atom_type_partial_charge
H0 H 0.99557 0.30449 0.28802 0.0
C1 C 0.99757 0.28394 0.29616 0.0
C2 C 1.00714 0.28043 0.3232 0.0
C3 C 0.99107 0.26117 0.27956 0.0
H4 H 0.01655 0.2513 0.35508 0.0
C5 C 0.00916 0.25393 0.33417 0.0
C6 C 1.00201 0.23086 0.3185 0.0
C7 C 0.99335 0.23467 0.29105 0.0
C8 C 0.98241 0.26503 0.25018 0.0
H9 H 0.98847 0.21692 0.27864 0.0
C10 C 0.99311 0.28656 0.234 0.0
C11 C 0.98539 0.2901 0.20615 0.0
C12 C 0.96352 0.24714 0.238 0.0
H13 H 0.95422 0.23083 0.2498 0.0
C14 C 0.9561 0.25019 0.21039 0.0
H15 H 1.00749 0.30061 0.24312 0.0
C16 C 0.967 0.27132 0.19451 0.0
H17 H 0.96111 0.27271 0.17303 0.0
H18 H 0.94176 0.23608 0.20122 0.0
H19 H 0.74495 0.9811 0.3044 0.0
C20 C 0.73564 0.98717 0.28509 0.0
C21 C 0.70822 0.9951 0.28506 0.0
C22 C 0.7511 0.98694 0.26066 0.0
H23 H 0.67465 0.008 0.25953 0.0
C24 C 0.69569 1.00146 0.25987 0.0
C25 C 0.71026 1.00022 0.23502 0.0
C26 C 0.73795 0.99314 0.23545 0.0
C27 C 0.78093 0.9809 0.26195 0.0
H28 H 0.74929 0.99348 0.21629 0.0
C29 C 0.79663 0.98881 0.28513 0.0
C30 C 0.82464 0.98274 0.28685 0.0
C31 C 0.79392 0.96695 0.24027 0.0
H32 H 0.78263 0.96006 0.2224 0.0
C33 C 0.82165 0.96123 0.24157 0.0
H34 H 0.78701 0.99961 0.302 0.0
C35 C 0.83691 0.96902 0.26456 0.0
H36 H 0.85842 0.96452 0.26465 0.0
H37 H 0.83139 0.95056 0.22466 0.0
H38 H 0.99823 0.73296 0.30678 0.0
C39 C 0.99984 0.72356 0.28658 0.0
C40 C 1.00644 0.69572 0.28474 0.0
C41 C 0.99412 0.73901 0.26286 0.0
H42 H 0.01076 0.66122 0.25772 0.0
C43 C 1.00655 0.68294 0.25882 0.0
C44 C 1.00105 0.69788 0.23459 0.0
C45 C 0.99522 0.7261 0.23687 0.0
C46 C 0.98556 0.76816 0.26572 0.0
H47 H 0.99166 0.73814 0.21846 0.0
C48 C 0.99714 0.78504 0.28622 0.0
C49 C 0.98672 0.81133 0.29141 0.0
C50 C 0.96424 0.77865 0.24954 0.0
H51 H 0.9546 0.76618 0.23387 0.0
C52 C 0.9543 0.80505 0.2542 0.0
H53 H 0.01375 0.77748 0.29877 0.0
C54 C 0.9652 0.8212 0.27524 0.0
H55 H 0.95691 0.84144 0.27884 0.0
H56 H 0.9377 0.81281 0.24182 0.0
H57 H 0.29151 0.97581 0.30735 0.0
C58 C 0.30221 0.97943 0.28822 0.0
C59 C 0.33071 0.98166 0.28861 0.0
C60 C 0.28742 0.9819 0.26347 0.0
H61 H 0.3664 0.98756 0.26355 0.0
C62 C 0.34449 0.98603 0.26356 0.0
C63 C 0.33035 0.9888 0.23854 0.0
C64 C 0.30182 0.98681 0.23878 0.0
C65 C 0.25705 0.97928 0.26337 0.0
H66 H 0.29082 0.98913 0.21959 0.0
C67 C 0.24122 0.98767 0.28625 0.0
C68 C 0.21264 0.98497 0.28623 0.0
C69 C 0.24362 0.96799 0.24038 0.0
H70 H 0.25483 0.96043 0.22274 0.0
C71 C 0.21541 0.96587 0.2399 0.0
H72 H 0.25115 0.99619 0.30419 0.0
C73 C 0.20001 0.97437 0.26247 0.0
H74 H 0.17815 0.97273 0.26114 0.0
H75 H 0.20539 0.95742 0.22192 0.0
H76 H 1.00093 0.71051 0.73614 0.0
C77 C 1.0029 0.73064 0.72694 0.0
C78 C 0.01041 0.73278 0.69911 0.0
C79 C 0.99677 0.75393 0.74266 0.0
H80 H 0.01551 0.76001 0.66475 0.0
C81 C 0.01073 0.75869 0.68651 0.0
C82 C 1.00476 0.78259 0.70172 0.0
C83 C 0.99832 0.77986 0.73004 0.0
C84 C 0.98729 0.7507 0.77174 0.0
H85 H 0.99461 0.79788 0.74248 0.0
C86 C 0.99835 0.73021 0.78897 0.0
C87 C 0.98721 0.72493 0.81518 0.0
C88 C 0.96562 0.76664 0.78175 0.0
H89 H 0.95635 0.78226 0.76899 0.0
C90 C 0.9549 0.76182 0.808 0.0
H91 H 0.01519 0.71784 0.78176 0.0
C92 C 0.96538 0.74092 0.82453 0.0
H93 H 0.95656 0.73734 0.8447 0.0
H94 H 0.93806 0.77405 0.81538 0.0
H95 H 0.29151 0.02376 0.71692 0.0
C96 C 0.3013 0.02064 0.73662 0.0
C97 C 0.32983 0.02152 0.73792 0.0
C98 C 0.28551 0.01599 0.76042 0.0
H99 H 0.36442 0.02157 0.76497 0.0
C100 C 0.34265 0.0189 0.76368 0.0
C101 C 0.32762 0.01393 0.78779 0.0
C102 C 0.29917 0.01164 0.78572 0.0
C103 C 0.25494 0.01667 0.75919 0.0
H104 H 0.2877 0.00639 0.804 0.0
C105 C 0.24051 0.01041 0.73465 0.0
C106 C 0.21184 0.01223 0.73345 0.0
C107 C 0.23986 0.0247 0.78258 0.0
H108 H 0.24973 0.03085 0.80153 0.0
C109 C 0.21161 0.02555 0.78186 0.0
H110 H 0.25148 1.00442 0.71632 0.0
C111 C 0.19769 0.01927 0.75766 0.0
H112 H 0.17573 0.01994 0.75805 0.0
H113 H 0.20041 0.03142 0.80016 0.0
H114 H 0.0077 0.28103 0.71807 0.0
C115 C 0.01485 0.2904 0.73699 0.0
C116 C 0.01664 0.31898 0.7382 0.0
C117 C 0.02078 0.27418 0.76037 0.0
H118 H 0.02592 0.35377 0.76375 0.0
C119 C 0.02463 0.33161 0.76281 0.0
C120 C 0.03066 0.31606 0.78632 0.0
C121 C 0.02864 0.28738 0.78513 0.0
C122 C 0.01757 0.24375 0.75895 0.0
H123 H 0.03367 0.2755 0.80331 0.0
C124 C 0.02251 0.2295 0.73408 0.0
C125 C 0.01661 0.20135 0.73152 0.0
C126 C 0.00804 0.22891 0.78189 0.0
H127 H 1.00351 0.23905 0.80122 0.0
C128 C 1.00322 0.20082 0.77988 0.0
H129 H 0.03085 0.24037 0.71655 0.0
C130 C 1.00716 0.18715 0.75488 0.0
H131 H 1.002 0.16564 0.75372 0.0
H132 H 0.99562 0.18971 0.79761 0.0
H133 H 0.72414 0.02598 0.73494 0.0
C134 C 0.7443 0.02517 0.72616 0.0
C135 C 0.74684 0.02013 0.69779 0.0
C136 C 0.76749 0.02839 0.74295 0.0
H137 H 0.77405 0.01846 0.66333 0.0
C138 C 0.77261 0.02059 0.68554 0.0
C139 C 0.79621 0.02369 0.70144 0.0
C140 C 0.79339 0.02687 0.73026 0.0
C141 C 0.76482 0.03289 0.77361 0.0
H142 H 0.8115 0.02755 0.74282 0.0
C143 C 0.74195 0.02342 0.78861 0.0
C144 C 0.73953 0.02777 0.8174 0.0
C145 C 0.78519 0.04705 0.78818 0.0
H146 H 0.80254 0.05576 0.7777 0.0
C147 C 0.78345 0.05058 0.81667 0.0
H148 H 0.7259 0.0128 0.77792 0.0
C149 C 0.76105 0.04087 0.83121 0.0
H150 H 0.76077 0.04369 0.85337 0.0
H151 H 0.79955 0.06109 0.82757 0.0
H152 H 0.29744 0.30357 0.99468 0.0
C153 C 0.30693 0.28413 0.99936 0.0
C154 C 0.33523 0.2819 0.99665 0.0
C155 C 0.29111 0.26116 0.00665 0.0
H156 H 0.36946 0.25468 0.99699 0.0
C157 C 0.34781 0.25638 1.00042 0.0
C158 C 0.33277 0.23321 0.00804 0.0
C159 C 0.30463 0.23619 0.0122 0.0
C160 C 0.26059 0.26248 0.00703 0.0
H161 H 0.29321 0.2188 0.01966 0.0
C162 C 0.24639 0.28721 0.01217 0.0
C163 C 0.21767 0.28814 0.01165 0.0
C164 C 0.24528 0.23878 1.00117 0.0
H165 H 0.25493 0.21963 0.99573 0.0
C166 C 0.21705 0.23935 0.00167 0.0
H167 H 0.25757 0.3058 0.01626 0.0
C168 C 0.20333 0.26366 0.00706 0.0
H169 H 0.18137 0.26316 0.00756 0.0
H170 H 0.20569 0.22082 0.99756 0.0
H171 H 0.29704 0.7069 0.99895 0.0
C172 C 0.3061 0.72698 1.00098 0.0
C173 C 0.33373 0.72877 0.00766 0.0
C174 C 0.29035 0.75081 0.99744 0.0
H175 H 0.36806 0.75517 0.01254 0.0
C176 C 0.34639 0.75446 0.00891 0.0
C177 C 0.33154 0.77875 0.00498 0.0
C178 C 0.3033 0.77655 1.00036 0.0
C179 C 0.2606 0.74907 0.99051 0.0
H180 H 0.29125 0.79503 0.99939 0.0
C181 C 0.2443 0.72665 0.99899 0.0
C182 C 0.21629 0.72534 0.99238 0.0
C183 C 0.24827 0.76997 0.97485 0.0
H184 H 0.25992 0.78697 0.96683 0.0
C185 C 0.22062 0.76923 0.96893 0.0
H186 H 0.25339 0.71017 0.01065 0.0
C187 C 0.20472 0.74737 0.97777 0.0
H188 H 0.18324 0.74796 0.97317 0.0
H189 H 0.21144 0.78574 0.95728 0.0
H190 H 0.72197 0.28657 0.01665 0.0
C191 C 0.74246 0.29458 0.01616 0.0
C192 C 0.74658 0.32208 0.00904 0.0
C193 C 0.76441 0.27765 0.0234 0.0
H194 H 0.77546 0.35463 0.00604 0.0
C195 C 0.77295 0.33292 0.00966 0.0
C196 C 0.79562 0.31654 0.01602 0.0
C197 C 0.791 0.28867 0.02263 0.0
C198 C 0.75913 0.24934 0.03403 0.0
H199 H 0.80801 0.27542 0.02724 0.0
C200 C 0.7381 0.23275 0.0231 0.0
C201 C 0.73135 0.2075 0.03557 0.0
C202 C 0.77378 0.23965 0.05699 0.0
H203 H 0.78964 0.2519 0.06629 0.0
C204 C 0.76742 0.21451 0.06903 0.0
H205 H 0.72664 0.23961 0.0053 0.0
C206 C 0.74624 0.19866 0.05862 0.0
H207 H 0.74163 0.17927 0.06844 0.0
H208 H 0.77874 0.20744 0.08682 0.0
H209 H 0.72127 0.72853 0.99684 0.0
C210 C 0.74121 0.71936 0.99824 0.0
C211 C 0.74301 0.6914 0.00444 0.0
C212 C 0.76477 0.73526 0.99442 0.0
H213 H 0.7692 0.65655 0.00822 0.0
C214 C 0.76842 0.67845 0.00484 0.0
C215 C 0.7924 0.69335 1.00021 0.0
C216 C 0.79029 0.72193 0.99608 0.0
C217 C 0.7628 0.76554 0.98867 0.0
H218 H 0.80872 0.73382 0.99458 0.0
C219 C 0.74031 0.78139 0.99771 0.0
C220 C 0.7385 0.8098 0.99207 0.0
C221 C 0.78339 0.77888 0.97365 0.0
H222 H 0.80044 0.76772 0.96521 0.0
C223 C 0.78224 0.80698 0.96883 0.0
H224 H 0.72409 0.77164 0.00899 0.0
C225 C 0.76023 0.82235 0.97809 0.0
H226 H 0.76044 0.84418 0.97426 0.0
H227 H 0.79851 0.81692 0.95764 0.0
H228 H 0.49846 0.79954 0.78256 0.0
C229 C 0.49805 0.78023 0.79337 0.0
C230 C 0.49489 0.78078 0.8222 0.0
C231 C 0.50049 0.75527 0.77877 0.0
H232 H 0.48894 0.75616 0.85858 0.0
C233 C 0.49253 0.75601 0.83649 0.0
C234 C 0.49429 0.73093 0.82262 0.0
C235 C 0.49929 0.7306 0.79408 0.0
C236 C 0.50325 0.75506 0.74775 0.0
H237 H 0.50158 0.71095 0.78406 0.0
C238 C 0.51285 0.77828 0.73318 0.0
C239 C 0.51345 0.77897 0.70406 0.0
C240 C 0.49514 0.73206 0.73218 0.0
H241 H 0.48664 0.71406 0.74184 0.0
C242 C 0.49712 0.73204 0.70345 0.0
H243 H 0.51935 0.79623 0.7443 0.0
C244 C 0.50614 0.75523 0.68946 0.0
H245 H 0.50715 0.75457 0.66714 0.0
H246 H 0.49105 0.71408 0.6919 0.0
H247 H 0.24954 0.5221 0.80506 0.0
C248 C 0.2397 0.51837 0.78546 0.0
C249 C 0.21149 0.5141 0.78509 0.0
C250 C 0.25505 0.51832 0.76099 0.0
H251 H 0.17625 0.51 0.75924 0.0
C252 C 0.19809 0.51217 0.75956 0.0
C253 C 0.21265 0.51305 0.73457 0.0
C254 C 0.24122 0.51497 0.73569 0.0
C255 C 0.28534 0.52206 0.76188 0.0
H256 H 0.25269 0.51362 0.71671 0.0
C257 C 0.30079 0.51383 0.78513 0.0
C258 C 0.32919 0.5179 0.78625 0.0
C259 C 0.29906 0.53443 0.73963 0.0
H260 H 0.28818 0.54199 0.72179 0.0
C261 C 0.32716 0.53774 0.74019 0.0
H262 H 0.29072 0.50446 0.80253 0.0
C263 C 0.34213 0.52947 0.76314 0.0
H264 H 0.36393 0.53214 0.76261 0.0
H265 H 0.33739 0.547 0.72275 0.0
H266 H 0.50838 0.23657 0.80714 0.0
C267 C 0.51069 0.22628 0.78749 0.0
C268 C 0.50999 0.19749 0.78644 0.0
C269 C 0.51371 0.2419 0.76335 0.0
H270 H 0.50979 0.16231 0.7597 0.0
C271 C 0.51209 0.18433 0.76071 0.0
C272 C 0.51584 0.19939 0.73626 0.0
C273 C 0.51728 0.22816 0.73801 0.0
C274 C 0.5114 0.27244 0.76424 0.0
H275 H 0.52107 0.24 0.71952 0.0
C276 C 0.52102 0.28787 0.78697 0.0
C277 C 0.51816 0.31656 0.78739 0.0
C278 C 0.49848 0.28637 0.74239 0.0
H279 H 0.48998 0.27532 0.72505 0.0
C280 C 0.49577 0.31477 0.74281 0.0
H281 H 0.53127 0.27783 0.80399 0.0
C282 C 0.50563 0.32981 0.76506 0.0
H283 H 0.50326 0.35188 0.765 0.0
H284 H 0.48583 0.32517 0.72585 0.0
H285 H 0.78977 0.49421 0.80484 0.0
C286 C 0.80028 0.4985 0.78573 0.0
C287 C 0.82878 0.49971 0.78586 0.0
C288 C 0.78536 0.50275 0.76128 0.0
H289 H 0.86448 0.50537 0.76097 0.0
C290 C 0.84253 0.5046 0.76097 0.0
C291 C 0.82836 0.50842 0.73611 0.0
C292 C 0.79977 0.50785 0.73658 0.0
C293 C 0.7549 0.50154 0.76151 0.0
H294 H 0.78876 0.51123 0.71757 0.0
C295 C 0.73982 0.50914 0.7852 0.0
C296 C 0.71117 0.50756 0.78561 0.0
C297 C 0.7406 0.49234 0.73811 0.0
H298 H 0.75114 0.48537 0.71982 0.0
C299 C 0.71232 0.49151 0.73804 0.0
H300 H 0.75035 0.51608 0.80346 0.0
C301 C 0.6977 0.49915 0.76144 0.0
H302 H 0.67576 0.49849 0.76046 0.0
H303 H 0.70165 0.48469 0.71976 0.0
H304 H 0.50188 0.21149 0.237 0.0
C305 C 0.50776 0.23073 0.22762 0.0
C306 C 0.50988 0.23202 0.19887 0.0
C307 C 0.51152 0.25432 0.24394 0.0
H308 H 0.5179 0.2574 0.16378 0.0
C309 C 0.51592 0.25694 0.18607 0.0
C310 C 0.51924 0.28099 0.20157 0.0
C311 C 0.51739 0.27939 0.23061 0.0
C312 C 0.50745 0.25283 0.27454 0.0
H313 H 0.52 0.29778 0.24278 0.0
C314 C 0.5135 0.22857 0.28917 0.0
C315 C 0.50662 0.22562 0.31726 0.0
C316 C 0.49581 0.27486 0.28908 0.0
H317 H 0.49025 0.29365 0.27868 0.0
C318 C 0.49013 0.27256 0.31723 0.0
H319 H 0.52337 0.21176 0.27861 0.0
C320 C 0.49518 0.24809 0.3312 0.0
H321 H 0.48927 0.24655 0.35268 0.0
H322 H 0.48094 0.28958 0.32809 0.0
H323 H 0.79525 0.48364 0.21114 0.0
C324 C 0.80472 0.48729 0.231 0.0
C325 C 0.83305 0.48563 0.23322 0.0
C326 C 0.78865 0.49181 0.25455 0.0
H327 H 0.86726 0.48618 0.26066 0.0
C328 C 0.84546 0.48856 0.25916 0.0
C329 C 0.83003 0.49389 0.28297 0.0
C330 C 0.80161 0.49603 0.28021 0.0
C331 C 0.75843 0.48995 0.25292 0.0
H332 H 0.78939 0.50083 0.29814 0.0
C333 C 0.74381 0.49982 0.2298 0.0
C334 C 0.71533 0.49757 0.22889 0.0
C335 C 0.74397 0.4773 0.27455 0.0
H336 H 0.75445 0.46868 0.29218 0.0
C337 C 0.71579 0.47508 0.27354 0.0
H338 H 0.75435 0.50979 0.21294 0.0
C339 C 0.70152 0.48526 0.25096 0.0
H340 H 0.6796 0.48341 0.25061 0.0
H341 H 0.70497 0.46535 0.29034 0.0
H342 H 0.49778 0.78318 0.21354 0.0
C343 C 0.49946 0.79151 0.23421 0.0
C344 C 0.51033 0.8178 0.23777 0.0
C345 C 0.49081 0.77595 0.25708 0.0
H346 H 0.5205 0.84911 0.26718 0.0
C347 C 0.51207 0.8288 0.26445 0.0
C348 C 0.50298 0.81404 0.28755 0.0
C349 C 0.49257 0.78747 0.2837 0.0
C350 C 0.47957 0.74793 0.25282 0.0
H351 H 0.48574 0.77581 0.30141 0.0
C352 C 0.49088 0.73047 0.23274 0.0
C353 C 0.47884 0.70508 0.22625 0.0
C354 C 0.45683 0.73889 0.26777 0.0
H355 H 0.44742 0.75184 0.28319 0.0
C356 C 0.44537 0.71331 0.26229 0.0
H357 H 0.5091 0.73684 0.22203 0.0
C358 C 0.45603 0.69663 0.2415 0.0
H359 H 0.44587 0.67752 0.23694 0.0
H360 H 0.42766 0.70669 0.2737 0.0
H361 H 0.22405 0.4856 0.23564 0.0
C362 C 0.24368 0.48968 0.22653 0.0
C363 C 0.24476 0.49773 0.19874 0.0
C364 C 0.26734 0.48675 0.24244 0.0
H365 H 0.27102 0.50736 0.16456 0.0
C366 C 0.27013 0.5008 0.18591 0.0
C367 C 0.29434 0.4966 0.20076 0.0
C368 C 0.29268 0.49011 0.22916 0.0
C369 C 0.26531 0.48075 0.27286 0.0
H370 H 0.31121 0.48776 0.24086 0.0
C371 C 0.24254 0.48945 0.28846 0.0
C372 C 0.24028 0.48388 0.31704 0.0
C373 C 0.28598 0.46626 0.2866 0.0
H374 H 0.30341 0.45839 0.27557 0.0
C375 C 0.28435 0.46131 0.31493 0.0
H376 H 0.22639 0.5005 0.27832 0.0
C377 C 0.26188 0.47012 0.33006 0.0
H378 H 0.26166 0.46619 0.35204 0.0
H379 H 0.30059 0.45043 0.32523 0.0
H380 H 0.79316 0.8001 0.49795 0.0
C381 C 0.8029 0.78096 0.50334 0.0
C382 C 0.83032 0.78128 0.51112 0.0
C383 C 0.78809 0.75639 0.50189 0.0
H384 H 0.86463 0.75644 0.52267 0.0
C385 C 0.84351 0.75637 0.51641 0.0
C386 C 0.8297 0.73129 0.51423 0.0
C387 C 0.80193 0.73137 0.50696 0.0
C388 C 0.75837 0.75748 0.49486 0.0
H389 H 0.79108 0.71211 0.50621 0.0
C390 C 0.74195 0.78 0.50305 0.0
C391 C 0.71448 0.78215 0.49482 0.0
C392 C 0.74642 0.73671 0.4789 0.0
H393 H 0.75824 0.71939 0.4718 0.0
C394 C 0.71917 0.73839 0.47114 0.0
H395 H 0.75063 0.79612 0.51558 0.0
C396 C 0.70336 0.76088 0.47887 0.0
H397 H 0.68227 0.76141 0.47258 0.0
H398 H 0.71028 0.72224 0.4588 0.0
H399 H 0.79292 0.21052 0.52164 0.0
C400 C 0.80224 0.23023 0.51812 0.0
C401 C 0.83037 0.23123 0.51337 0.0
C402 C 0.78632 0.25412 0.51876 0.0
H403 H 0.86511 0.25762 0.50977 0.0
C404 C 0.84331 0.25686 0.51214 0.0
C405 C 0.82831 0.28136 0.51404 0.0
C406 C 0.79973 0.2796 0.516 0.0
C407 C 0.75595 0.25241 0.52264 0.0
H408 H 0.78795 0.29825 0.51513 0.0
C409 C 0.741 0.22867 0.51511 0.0
C410 C 0.71258 0.22691 0.51932 0.0
C411 C 0.74161 0.27442 0.53451 0.0
H412 H 0.75193 0.29259 0.54173 0.0
C413 C 0.71353 0.27331 0.53775 0.0
H414 H 0.75145 0.21139 0.50617 0.0
C415 C 0.69911 0.24998 0.5301 0.0
H416 H 0.6773 0.25023 0.53265 0.0
H417 H 0.70284 0.29063 0.54651 0.0
H418 H 0.22387 0.77882 0.50026 0.0
C419 C 0.2432 0.78863 0.50391 0.0
C420 C 0.24361 0.81706 0.5084 0.0
C421 C 0.2672 0.77307 0.50361 0.0
H422 H 0.26901 0.85269 0.51207 0.0
C423 C 0.26874 0.83065 0.50993 0.0
C424 C 0.29333 0.81593 0.50869 0.0
C425 C 0.2921 0.78705 0.5069 0.0
C426 C 0.26625 0.74248 0.49941 0.0
H427 H 0.31071 0.77541 0.50829 0.0
C428 C 0.2431 0.7268 0.50676 0.0
C429 C 0.242 0.69818 0.5021 0.0
C430 C 0.28838 0.7287 0.48729 0.0
H431 H 0.30614 0.73966 0.48024 0.0
C432 C 0.28786 0.70041 0.48351 0.0
H433 H 0.22577 0.73683 0.5159 0.0
C434 C 0.26505 0.68525 0.49095 0.0
H435 H 0.26567 0.6633 0.48795 0.0
H436 H 0.30522 0.69016 0.47452 0.0
H437 H 0.22257 0.22841 0.51849 0.0
C438 C 0.24261 0.21945 0.51667 0.0
C439 C 0.24484 0.19161 0.50999 0.0
C440 C 0.26555 0.2354 0.52237 0.0
H441 H 0.27174 0.15732 0.50632 0.0
C442 C 0.27053 0.17907 0.51027 0.0
C443 C 0.29426 0.19428 0.51589 0.0
C444 C 0.29139 0.22272 0.52125 0.0
C445 C 0.26195 0.2646 0.53152 0.0
H446 H 0.30924 0.23516 0.52454 0.0
C447 C 0.24012 0.28097 0.52173 0.0
C448 C 0.23481 0.30709 0.53312 0.0
C449 C 0.279 0.27555 0.55204 0.0
H450 H 0.29555 0.26366 0.56057 0.0
C451 C 0.27428 0.30165 0.56278 0.0
H452 H 0.22682 0.27323 0.50574 0.0
C453 C 0.25227 0.31719 0.55364 0.0
H454 H 0.24902 0.33729 0.56252 0.0
H455 H 0.2875 0.30969 0.57867 0.0
C456 C 0.01644 0.94346 0.57938 0.0
C457 C 0.01978 0.93603 0.44553 0.0
C458 C 0.02172 0.07625 0.57191 0.0
C459 C 0.01664 0.0685 0.43819 0.0
C460 C 0.954 0.07288 0.50578 0.0
C461 C 0.95253 0.94056 0.51422 0.0
C462 C 0.08557 0.07104 0.5034 0.0
C463 C 0.08416 0.93889 0.51172 0.0
C464 C 0.08401 1.00457 0.441 0.0
C465 C 0.95197 1.00315 0.44312 0.0
C466 C 0.08632 0.00531 0.57469 0.0
C467 C 0.9548 0.01322 0.57714 0.0
Eu468 Eu 0.01847 0.9541 0.51166 0.0
O469 O 0.99407 0.98038 0.48588 0.0
O470 O 0.04318 0.98273 0.53434 0.0
Eu471 Eu 0.9678 0.00653 0.5099 0.0
Eu472 Eu 0.07033 0.0052 0.50806 0.0
O473 O 0.99546 0.9835 0.53518 0.0
O474 O 0.04258 0.97983 0.48514 0.0
Eu475 Eu 0.02024 0.00906 0.56127 0.0
Eu476 Eu 0.01822 1.00286 0.45641 0.0
O477 O 0.99577 0.0319 0.5325 0.0
O478 O 0.99503 0.02887 0.4835 0.0
O479 O 0.04278 0.02835 0.48264 0.0
O480 O 0.04415 0.03161 0.53178 0.0
Eu481 Eu 0.01957 0.05766 0.50591 0.0
O482 O 0.01784 0.93352 0.55371 0.0
O483 O 0.0188 0.92881 0.47212 0.0
O484 O 0.02068 0.08287 0.54516 0.0
O485 O 0.01724 0.07821 0.46397 0.0
O486 O 0.94562 0.04694 0.50698 0.0
O487 O 0.94469 0.96671 0.51345 0.0
O488 O 0.09359 0.04516 0.50688 0.0
O489 O 0.09271 0.9646 0.50826 0.0
O490 O 0.0582 1.00264 0.4327 0.0
O491 O 0.97752 1.00074 0.43414 0.0
O492 O 0.06082 0.00781 0.58379 0.0
O493 O 0.98081 0.01382 0.58483 0.0
O494 O 0.05987 0.07963 0.50189 0.0
O495 O 0.97981 0.0812 0.50583 0.0
O496 O 0.05831 0.93102 0.514 0.0
O497 O 0.97815 0.93168 0.51321 0.0
O498 O 0.01991 0.96148 0.43565 0.0
O499 O 0.01718 0.04205 0.43113 0.0
O500 O 0.01658 0.96993 0.58636 0.0
O501 O 0.02228 0.05077 0.58197 0.0
O502 O 0.94581 0.01001 0.55126 0.0
O503 O 0.94431 0.00593 0.46945 0.0
O504 O 0.09387 1.00393 0.54825 0.0
O505 O 0.09247 0.00591 0.46713 0.0
C506 C 0.52565 0.94157 0.08057 0.0
C507 C 0.51461 0.07366 0.07726 0.0
C508 C 0.51359 0.93866 0.94673 0.0
C509 C 0.51605 0.0711 0.94423 0.0
C510 C 0.58416 1.00351 0.94345 0.0
C511 C 0.5872 0.01112 0.0773 0.0
C512 C 0.45237 0.00695 0.94708 0.0
C513 C 0.45561 0.00619 0.08062 0.0
C514 C 0.45394 0.07212 0.01166 0.0
C515 C 0.58596 0.07233 0.00875 0.0
C516 C 0.45373 0.93944 0.01298 0.0
C517 C 0.58561 0.93915 0.01286 0.0
Eu518 Eu 0.52114 0.00732 0.06453 0.0
O519 O 0.54486 0.03099 0.03567 0.0
O520 O 0.4962 0.98174 0.03838 0.0
Eu521 Eu 0.57141 0.00585 0.01076 0.0
Eu522 Eu 0.46889 0.00582 0.0135 0.0
O523 O 0.54426 0.98239 0.03633 0.0
O524 O 0.49664 0.03071 0.03655 0.0
Eu525 Eu 0.51969 0.95375 0.01349 0.0
Eu526 Eu 0.52001 0.05784 0.0111 0.0
O527 O 0.54341 0.98076 0.9875 0.0
O528 O 0.54362 0.02994 0.98631 0.0
O529 O 0.49557 0.02961 0.98793 0.0
O530 O 0.4956 0.98122 0.9889 0.0
Eu531 Eu 0.51873 0.00498 0.95981 0.0
O532 O 0.5269 0.96782 0.08803 0.0
O533 O 0.51659 0.04811 0.08688 0.0
O534 O 0.51406 0.96455 0.93806 0.0
O535 O 0.51763 0.04506 0.93588 0.0
O536 O 0.5931 0.00554 0.9694 0.0
O537 O 0.59516 0.00777 0.05113 0.0
O538 O 0.44513 0.007 0.97362 0.0
O539 O 0.44706 0.00722 0.05451 0.0
O540 O 0.47968 0.0808 0.01092 0.0
O541 O 0.56026 0.08092 0.01081 0.0
O542 O 0.47941 0.9307 0.01473 0.0
O543 O 0.55981 0.93087 0.01409 0.0
O544 O 0.47787 0.00597 0.93766 0.0
O545 O 0.55819 1.0022 0.93565 0.0
O546 O 0.48151 1.00485 0.08877 0.0
O547 O 0.5616 0.01243 0.08622 0.0
O548 O 0.51623 0.08127 0.0509 0.0
O549 O 0.51679 0.07977 0.9703 0.0
O550 O 0.52156 0.93207 0.05504 0.0
O551 O 0.51659 0.93027 0.97287 0.0
O552 O 0.59406 0.96511 0.01098 0.0
O553 O 0.59414 0.04627 0.00777 0.0
O554 O 0.44594 0.96562 0.01211 0.0
O555 O 0.4461 0.046 0.01287 0.0
C556 C 0.02288 0.44099 0.07723 0.0
C557 C 0.02806 0.43979 0.94321 0.0
C558 C 0.01283 0.57337 0.07528 0.0
C559 C 0.02009 0.57222 0.94214 0.0
C560 C 0.95214 0.5703 0.00504 0.0
C561 C 0.95682 0.43706 0.0114 0.0
C562 C 0.08396 0.57482 0.01178 0.0
C563 C 0.08873 0.44257 0.0139 0.0
C564 C 0.08655 0.50708 0.94355 0.0
C565 C 0.95497 0.49989 0.94287 0.0
C566 C 0.08584 0.51107 0.07691 0.0
C567 C 0.95543 0.4976 0.07635 0.0
Eu568 Eu 0.02224 0.45417 0.00997 0.0
O569 O 0.99708 0.48065 0.98503 0.0
O570 O 0.04515 0.48282 0.03464 0.0
Eu571 Eu 0.96881 0.50425 0.00961 0.0
Eu572 Eu 0.0715 0.50809 0.01027 0.0
O573 O 0.99765 0.48177 0.03385 0.0
O574 O 0.04521 0.48281 0.98568 0.0
Eu575 Eu 0.02039 0.50702 0.06187 0.0
Eu576 Eu 0.02059 0.50594 0.9573 0.0
O577 O 0.99507 0.53014 0.03395 0.0
O578 O 0.99534 0.52941 0.98478 0.0
O579 O 0.04378 0.53126 0.98498 0.0
O580 O 0.04351 0.5321 0.03414 0.0
Eu581 Eu 0.01848 0.55815 0.00891 0.0
O582 O 0.02105 0.43215 0.05121 0.0
O583 O 0.02564 0.43096 0.96923 0.0
O584 O 0.01332 0.58131 0.04894 0.0
O585 O 0.02071 0.58079 0.96824 0.0
O586 O 0.94446 0.54418 0.0082 0.0
O587 O 0.94752 0.46277 0.01027 0.0
O588 O 0.09296 0.54905 0.01167 0.0
O589 O 0.09579 0.46892 0.01361 0.0
O590 O 0.06092 0.50791 0.93457 0.0
O591 O 0.9806 0.50226 0.93414 0.0
O592 O 0.06001 0.51118 0.0852 0.0
O593 O 0.98118 0.49955 0.08448 0.0
O594 O 0.05795 0.58262 0.01069 0.0
O595 O 0.97775 0.57921 0.00416 0.0
O596 O 0.0634 0.43291 0.01216 0.0
O597 O 0.98297 0.42972 0.01135 0.0
O598 O 0.02673 0.46579 0.93487 0.0
O599 O 0.01906 0.54622 0.93367 0.0
O600 O 0.02439 0.46705 0.0854 0.0
O601 O 0.01547 0.54765 0.08441 0.0
O602 O 0.94628 0.50041 0.05053 0.0
O603 O 0.94665 0.50023 0.96906 0.0
O604 O 0.09424 0.50943 0.0508 0.0
O605 O 0.09439 0.50674 0.96991 0.0
C606 C 0.52652 0.44011 0.07681 0.0
C607 C 0.5178 0.57265 0.07842 0.0
C608 C 0.5292 0.44295 0.9424 0.0
C609 C 0.50979 0.57421 0.94546 0.0
C610 C 0.58608 0.517 0.94411 0.0
C611 C 0.58628 0.51251 0.0776 0.0
C612 C 0.45482 0.50259 0.94406 0.0
C613 C 0.45495 0.50256 0.07837 0.0
C614 C 0.45111 0.5686 0.01642 0.0
C615 C 0.58181 0.57742 0.01544 0.0
C616 C 0.45998 0.43641 0.0042 0.0
C617 C 0.59088 0.44609 0.0049 0.0
Eu618 Eu 0.52068 0.50634 0.06306 0.0
O619 O 0.54278 0.53232 0.03543 0.0
O620 O 0.49803 0.48015 0.03533 0.0
Eu621 Eu 0.57183 0.51079 0.01079 0.0
Eu622 Eu 0.46914 0.50326 0.01115 0.0
O623 O 0.54667 0.48393 0.03508 0.0
O624 O 0.49519 0.52909 0.03545 0.0
Eu625 Eu 0.52443 0.4553 0.00983 0.0
Eu626 Eu 0.51735 0.5587 0.01152 0.0
O627 O 0.54591 0.48548 0.98604 0.0
O628 O 0.54359 0.5342 0.98609 0.0
O629 O 0.49472 0.53001 0.98695 0.0
O630 O 0.49861 0.48205 0.98607 0.0
Eu631 Eu 0.52058 0.50861 0.9584 0.0
O632 O 0.52574 0.46604 0.08546 0.0
O633 O 0.51782 0.5466 0.08697 0.0
O634 O 0.52677 0.46912 0.93483 0.0
O635 O 0.51435 0.54899 0.93592 0.0
O636 O 0.59424 0.51736 0.9704 0.0
O637 O 0.59501 0.5103 0.05156 0.0
O638 O 0.44656 0.50184 0.97032 0.0
O639 O 0.44648 0.50099 0.05217 0.0
O640 O 0.47635 0.57833 0.017 0.0
O641 O 0.55586 0.58467 0.01202 0.0
O642 O 0.48635 0.43018 0.00438 0.0
O643 O 0.56616 0.43532 0.00806 0.0
O644 O 0.48049 0.50488 0.93542 0.0
O645 O 0.56056 0.51353 0.93544 0.0
O646 O 0.48083 0.50446 0.0864 0.0
O647 O 0.5604 0.51218 0.08574 0.0
O648 O 0.518 0.58084 0.05218 0.0
O649 O 0.5101 0.58186 0.97187 0.0
O650 O 0.52522 0.43179 0.05051 0.0
O651 O 0.52815 0.43342 0.96828 0.0
O652 O 0.59697 0.47267 0.00497 0.0
O653 O 0.59141 0.55197 0.01621 0.0
O654 O 0.44934 0.4613 0.00787 0.0
O655 O 0.44387 0.54242 0.0132 0.0
C656 C 0.01364 0.44137 0.57947 0.0
C657 C 0.02096 0.43835 0.44581 0.0
C658 C 0.0235 0.57334 0.57652 0.0
C659 C 0.0202 0.57133 0.44312 0.0
C660 C 0.95454 0.5742 0.51338 0.0
C661 C 0.95197 0.44105 0.51368 0.0
C662 C 0.08619 0.57109 0.51101 0.0
C663 C 0.08409 0.43816 0.51085 0.0
C664 C 0.08343 0.50474 0.44225 0.0
C665 C 0.95157 0.50407 0.44499 0.0
C666 C 0.08663 0.50641 0.57618 0.0
C667 C 0.95464 0.51271 0.57851 0.0
Eu668 Eu 0.01828 0.45404 0.51234 0.0
O669 O 0.99415 0.48164 0.48736 0.0
O670 O 0.04391 0.48118 0.53592 0.0
Eu671 Eu 0.96775 0.50739 0.51158 0.0
Eu672 Eu 0.07055 0.50482 0.50956 0.0
O673 O 0.99513 0.48299 0.53617 0.0
O674 O 0.04178 0.48101 0.4865 0.0
Eu675 Eu 0.02035 0.50684 0.56322 0.0
Eu676 Eu 0.01777 0.50513 0.45832 0.0
O677 O 0.99625 0.53099 0.5353 0.0
O678 O 0.9946 0.53101 0.48581 0.0
O679 O 0.04303 0.52931 0.48532 0.0
O680 O 0.04404 0.52989 0.53415 0.0
Eu681 Eu 0.02007 0.55776 0.51006 0.0
O682 O 0.01531 0.4318 0.55367 0.0
O683 O 0.02095 0.43074 0.47224 0.0
O684 O 0.02142 0.58138 0.55028 0.0
O685 O 0.0216 0.5799 0.46923 0.0
O686 O 0.94539 0.54848 0.51166 0.0
O687 O 0.94453 0.46736 0.5151 0.0
O688 O 0.09418 0.54501 0.50874 0.0
O689 O 0.09274 0.464 0.50904 0.0
O690 O 0.05748 0.50621 0.43435 0.0
O691 O 0.97717 0.50414 0.43582 0.0
O692 O 0.0611 0.50528 0.58555 0.0
O693 O 0.98048 0.51098 0.58685 0.0
O694 O 0.06051 0.57976 0.51215 0.0
O695 O 0.98061 0.58168 0.51331 0.0
O696 O 0.05821 0.43018 0.51301 0.0
O697 O 0.97749 0.43195 0.51131 0.0
O698 O 0.0191 0.46396 0.43624 0.0
O699 O 0.01775 0.54536 0.43481 0.0
O700 O 0.0153 0.46755 0.58699 0.0
O701 O 0.02391 0.54746 0.58536 0.0
O702 O 0.94601 0.51158 0.55243 0.0
O703 O 0.94411 0.5052 0.47148 0.0
O704 O 0.09401 0.50662 0.54966 0.0
O705 O 0.09232 0.50331 0.46825 0.0
C706 C 0.52193 0.94069 0.58312 0.0
C707 C 0.51795 0.93444 0.44957 0.0
C708 C 0.52219 0.07382 0.57687 0.0
C709 C 0.51809 0.06729 0.44296 0.0
C710 C 0.45485 0.0714 0.51264 0.0
C711 C 0.4535 0.93843 0.51595 0.0
C712 C 0.587 0.06939 0.50816 0.0
C713 C 0.58517 0.93621 0.51454 0.0
C714 C 0.58459 1.00172 0.44473 0.0
C715 C 0.45298 0.99789 0.44831 0.0
C716 C 0.5881 1.00474 0.57794 0.0
C717 C 0.45634 0.01178 0.58132 0.0
Eu718 Eu 0.51966 0.95231 0.51566 0.0
O719 O 0.49562 0.97926 0.49062 0.0
O720 O 0.54456 0.98065 0.53824 0.0
Eu721 Eu 0.46891 1.0047 0.51448 0.0
Eu722 Eu 0.5714 1.00317 0.51174 0.0
O723 O 0.49633 0.98108 0.53999 0.0
O724 O 0.54355 0.97803 0.4889 0.0
Eu725 Eu 0.52186 0.00657 0.56581 0.0
Eu726 Eu 0.51903 1.00159 0.46077 0.0
O727 O 0.49755 0.02941 0.5369 0.0
O728 O 0.49564 0.02772 0.48783 0.0
O729 O 0.54388 0.02686 0.48687 0.0
O730 O 0.54538 0.02931 0.53601 0.0
Eu731 Eu 0.52084 0.05594 0.51064 0.0
O732 O 0.51984 0.93129 0.55733 0.0
O733 O 0.51874 0.92742 0.4762 0.0
O734 O 0.52126 0.08063 0.55018 0.0
O735 O 0.51953 0.07699 0.46874 0.0
O736 O 0.44621 0.04544 0.51186 0.0
O737 O 0.44533 0.96452 0.51735 0.0
O738 O 0.59481 0.04318 0.50844 0.0
O739 O 0.59381 0.96216 0.51348 0.0
O740 O 0.55869 1.00122 0.43651 0.0
O741 O 0.47841 0.99915 0.43889 0.0
O742 O 0.56284 0.00668 0.5878 0.0
O743 O 0.48213 0.00971 0.58967 0.0
O744 O 0.56137 0.07833 0.50936 0.0
O745 O 0.48086 0.07926 0.51276 0.0
O746 O 0.55926 0.92823 0.51532 0.0
O747 O 0.4793 0.93008 0.51504 0.0
O748 O 0.51798 0.96004 0.43982 0.0
O749 O 0.51755 0.04084 0.43598 0.0
O750 O 0.52321 0.96702 0.59055 0.0
O751 O 0.5231 0.04828 0.5868 0.0
O752 O 0.44761 0.01032 0.55531 0.0
O753 O 0.44537 0.99958 0.4747 0.0
O754 O 0.5951 1.0035 0.5514 0.0
O755 O 0.59307 1.00193 0.47086 0.0
H756 H 0.23081 0.1396 0.52728 0.0
H757 H 0.20224 0.20807 0.47795 0.0
H758 H 0.15885 0.18422 0.47025 0.0
H759 H 0.19874 0.08603 0.48476 0.0
H760 H 0.19081 0.06498 0.51425 0.0
H761 H 0.22018 0.08695 0.51492 0.0
H762 H 0.20236 0.10962 0.5598 0.0
H763 H 0.17284 0.08793 0.5591 0.0
H764 H 0.16891 0.12461 0.56016 0.0
H765 H 0.11749 0.15491 0.4708 0.0
H766 H 0.08174 0.12003 0.47653 0.0
H767 H 0.13769 0.06935 0.52339 0.0
C768 C 0.21566 0.14933 0.51439 0.0
C769 C 0.21987 0.17583 0.50341 0.0
C770 C 0.19932 0.18799 0.48697 0.0
C771 C 0.17465 0.17456 0.48234 0.0
C772 C 0.17093 0.1488 0.49397 0.0
C773 C 0.19094 0.13609 0.50934 0.0
C774 C 0.18146 0.10847 0.51984 0.0
C775 C 0.19883 0.08524 0.50771 0.0
C776 C 0.18139 0.10763 0.55161 0.0
C777 C 0.15286 0.10792 0.50836 0.0
C778 C 0.1472 0.13143 0.49358 0.0
C779 C 0.12174 0.13626 0.48206 0.0
C780 C 0.10153 0.11641 0.48559 0.0
C781 C 0.10697 0.09196 0.50032 0.0
C782 C 0.13303 0.0877 0.51175 0.0
H783 H 0.88298 0.21831 0.52978 0.0
H784 H 0.81308 0.18532 0.48622 0.0
H785 H 0.83723 0.14181 0.47974 0.0
H786 H 0.93319 0.1861 0.48439 0.0
H787 H 0.95696 0.18005 0.51202 0.0
H788 H 0.9341 0.20883 0.51372 0.0
H789 H 0.91648 0.19175 0.56115 0.0
H790 H 0.93919 0.16288 0.55946 0.0
H791 H 0.9033 0.15744 0.56412 0.0
H792 H 0.86748 0.10129 0.47975 0.0
H793 H 0.90371 0.06674 0.48349 0.0
H794 H 0.95586 0.1265 0.52335 0.0
C795 C 0.8728 0.20213 0.51858 0.0
C796 C 0.84581 0.20529 0.50898 0.0
C797 C 0.83337 0.18331 0.49458 0.0
C798 C 0.84702 0.15852 0.49051 0.0
C799 C 0.87337 0.15606 0.50046 0.0
C800 C 0.88634 0.17729 0.51387 0.0
C801 C 0.91498 0.16919 0.52205 0.0
C802 C 0.93605 0.18711 0.50715 0.0
C803 C 0.91869 0.17038 0.55357 0.0
C804 C 0.91577 0.13994 0.51158 0.0
C805 C 0.89147 0.13283 0.4993 0.0
C806 C 0.88672 0.10665 0.48905 0.0
C807 C 0.9074 0.08715 0.49137 0.0
C808 C 0.93263 0.09398 0.50356 0.0
C809 C 0.93689 0.12081 0.51363 0.0
H810 H 0.88333 0.79359 0.49719 0.0
H811 H 0.81042 0.82904 0.53291 0.0
H812 H 0.83383 0.87333 0.53757 0.0
H813 H 0.93034 0.82954 0.54233 0.0
H814 H 0.95563 0.83378 0.51578 0.0
H815 H 0.9331 0.80476 0.51488 0.0
H816 H 0.91794 0.81812 0.46535 0.0
H817 H 0.94057 0.84703 0.46629 0.0
H818 H 0.90504 0.85212 0.45902 0.0
H819 H 0.86444 0.914 0.53731 0.0
H820 H 0.901 0.94821 0.53362 0.0
H821 H 0.95489 0.886 0.50026 0.0
C822 C 0.87233 0.81055 0.50626 0.0
C823 C 0.84487 0.8078 0.5144 0.0
C824 C 0.83123 0.8307 0.52593 0.0
C825 C 0.84442 0.85592 0.52888 0.0
C826 C 0.87136 0.85792 0.5205 0.0
C827 C 0.88526 0.83585 0.50962 0.0
C828 C 0.91424 0.84351 0.5025 0.0
C829 C 0.93452 0.82691 0.51992 0.0
C830 C 0.91974 0.83999 0.47144 0.0
C831 C 0.91428 0.87344 0.51072 0.0
C832 C 0.88932 0.88131 0.52103 0.0
C833 C 0.88412 0.90808 0.52937 0.0
C834 C 0.905 0.92739 0.52707 0.0
C835 C 0.93082 0.9198 0.51665 0.0
C836 C 0.93547 0.89239 0.50853 0.0
H837 H 0.2294 0.86873 0.48928 0.0
H838 H 0.19871 0.79965 0.53644 0.0
H839 H 0.15483 0.82307 0.54176 0.0
H840 H 0.19622 0.9209 0.53104 0.0
H841 H 0.1893 0.94292 0.50201 0.0
H842 H 0.21842 0.92059 0.50144 0.0
H843 H 0.20155 0.89936 0.45549 0.0
H844 H 0.17232 0.92153 0.45601 0.0
H845 H 0.1679 0.88496 0.45376 0.0
H846 H 0.11392 0.85296 0.54104 0.0
H847 H 0.07908 0.88892 0.53648 0.0
H848 H 0.13659 0.93996 0.49207 0.0
C849 C 0.21358 0.85862 0.50097 0.0
C850 C 0.21751 0.8321 0.51209 0.0
C851 C 0.19608 0.81962 0.52709 0.0
C852 C 0.17109 0.83284 0.53043 0.0
C853 C 0.16782 0.85874 0.51897 0.0
C854 C 0.18849 0.87167 0.50477 0.0
C855 C 0.1796 0.89974 0.49485 0.0
C856 C 0.19691 0.92237 0.50813 0.0
C857 C 0.18039 0.90148 0.46315 0.0
C858 C 0.15068 0.90039 0.50556 0.0
C859 C 0.14431 0.87644 0.51927 0.0
C860 C 0.11867 0.87187 0.53045 0.0
C861 C 0.09897 0.89238 0.52762 0.0
C862 C 0.10509 0.91726 0.51393 0.0
C863 C 0.13135 0.92126 0.50283 0.0
H864 H 0.53628 0.18251 0.19802 0.0
H865 H 0.47012 0.22788 0.16069 0.0
H866 H 0.46111 0.18921 0.12917 0.0
H867 H 0.56158 0.15562 0.13614 0.0
H868 H 0.57107 0.12266 0.14985 0.0
H869 H 0.57011 0.1521 0.17217 0.0
H870 H 0.5369 0.12683 0.20491 0.0
H871 H 0.53781 0.09725 0.18264 0.0
H872 H 0.50578 0.11293 0.19126 0.0
H873 H 0.46185 0.1488 0.09934 0.0
H874 H 0.47325 0.1087 0.07072 0.0
H875 H 0.5392 0.0882 0.12633 0.0
C876 C 0.51955 0.18386 0.18358 0.0
C877 C 0.50367 0.20788 0.18174 0.0
C878 C 0.48235 0.2095 0.1623 0.0
C879 C 0.47702 0.18764 0.14448 0.0
C880 C 0.49327 0.16437 0.14641 0.0
C881 C 0.51414 0.16224 0.16537 0.0
C882 C 0.53003 0.1359 0.16119 0.0
C883 C 0.55996 0.14195 0.15443 0.0
C884 C 0.52747 0.11711 0.18651 0.0
C885 C 0.51527 0.12403 0.13645 0.0
C886 C 0.49392 0.14073 0.12862 0.0
C887 C 0.4783 0.13539 0.10534 0.0
C888 C 0.48498 0.11268 0.08922 0.0
C889 C 0.50696 0.09552 0.09652 0.0
C890 C 0.522 0.10085 0.12072 0.0
H891 H 0.83399 0.51302 0.18377 0.0
H892 H 0.87069 0.44526 0.22804 0.0
H893 H 0.90257 0.43791 0.18944 0.0
H894 H 0.84268 0.4839 0.11258 0.0
H895 H 0.85055 0.51691 0.09799 0.0
H896 H 0.82797 0.51445 0.12719 0.0
H897 H 0.85847 0.54816 0.15444 0.0
H898 H 0.88114 0.55059 0.12543 0.0
H899 H 0.89402 0.54046 0.15874 0.0
H900 H 0.9337 0.44145 0.15002 0.0
H901 H 0.96254 0.4552 0.11085 0.0
H902 H 0.90603 0.52028 0.09048 0.0
C903 C 0.84829 0.4962 0.18487 0.0
C904 C 0.84995 0.47961 0.20872 0.0
C905 C 0.86925 0.45818 0.20991 0.0
C906 C 0.88728 0.45377 0.18806 0.0
C907 C 0.88565 0.4709 0.16513 0.0
C908 C 0.8666 0.4916 0.16321 0.0
C909 C 0.87089 0.50852 0.13726 0.0
C910 C 0.84657 0.50577 0.11759 0.0
C911 C 0.87647 0.53871 0.14441 0.0
C912 C 0.89591 0.49468 0.12549 0.0
C913 C 0.9038 0.47283 0.14184 0.0
C914 C 0.92749 0.45815 0.13676 0.0
C915 C 0.94378 0.46621 0.11461 0.0
C916 C 0.93629 0.48864 0.09775 0.0
C917 C 0.91181 0.50274 0.10285 0.0
H918 H 0.4842 0.82592 0.18822 0.0
H919 H 0.55729 0.8471 0.23342 0.0
H920 H 0.57092 0.87819 0.19577 0.0
H921 H 0.51497 0.82873 0.11809 0.0
H922 H 0.48483 0.8434 0.103 0.0
H923 H 0.48207 0.82073 0.13224 0.0
H924 H 0.45541 0.85808 0.15896 0.0
H925 H 0.45825 0.8808 0.12987 0.0
H926 H 0.47026 0.89154 0.16331 0.0
H927 H 0.57401 0.9107 0.15662 0.0
H928 H 0.56739 0.9414 0.11662 0.0
H929 H 0.49376 0.89788 0.09489 0.0
C930 C 0.5034 0.83657 0.18982 0.0
C931 C 0.51968 0.83417 0.21376 0.0
C932 C 0.54439 0.84888 0.21539 0.0
C933 C 0.55239 0.86643 0.19405 0.0
C934 C 0.5356 0.86885 0.17106 0.0
C935 C 0.51175 0.85417 0.16861 0.0
C936 C 0.49668 0.86184 0.14239 0.0
C937 C 0.49452 0.83721 0.12277 0.0
C938 C 0.46849 0.87378 0.14905 0.0
C939 C 0.5155 0.88356 0.13088 0.0
C940 C 0.53785 0.88721 0.14778 0.0
C941 C 0.55693 0.90768 0.1429 0.0
C942 C 0.55297 0.92504 0.12027 0.0
C943 C 0.53032 0.92159 0.10269 0.0
C944 C 0.51158 0.90037 0.10776 0.0
H945 H 0.23114 0.48462 0.14498 0.0
H946 H 0.20042 0.52501 0.21854 0.0
H947 H 0.15685 0.53335 0.19513 0.0
H948 H 0.19833 0.53081 0.09576 0.0
H949 H 0.19132 0.5039 0.0713 0.0
H950 H 0.22045 0.50145 0.09366 0.0
H951 H 0.20344 0.45435 0.11125 0.0
H952 H 0.17422 0.45678 0.08906 0.0
H953 H 0.1698 0.45159 0.12563 0.0
H954 H 0.1159 0.53529 0.16496 0.0
H955 H 0.08077 0.53276 0.1287 0.0
H956 H 0.13852 0.49323 0.07387 0.0
C957 C 0.21538 0.49552 0.15603 0.0
C958 C 0.21913 0.50384 0.18374 0.0
C959 C 0.19786 0.51789 0.19752 0.0
C960 C 0.17308 0.52291 0.18435 0.0
C961 C 0.16991 0.51406 0.15726 0.0
C962 C 0.1905 0.50089 0.14311 0.0
C963 C 0.18161 0.49338 0.11412 0.0
C964 C 0.19896 0.50828 0.09243 0.0
C965 C 0.18231 0.46217 0.10978 0.0
C966 C 0.15276 0.50412 0.1144 0.0
C967 C 0.14641 0.5159 0.13951 0.0
C968 C 0.12066 0.52632 0.14511 0.0
C969 C 0.10082 0.52467 0.12445 0.0
C970 C 0.10694 0.51288 0.09847 0.0
C971 C 0.13332 0.50264 0.09342 0.0
H972 H 0.5181 0.79271 0.87239 0.0
H973 H 0.46939 0.82859 0.8069 0.0
H974 H 0.46913 0.87261 0.83182 0.0
H975 H 0.48351 0.82754 0.92867 0.0
H976 H 0.51406 0.83164 0.94872 0.0
H977 H 0.51065 0.80294 0.9256 0.0
H978 H 0.55531 0.81692 0.90107 0.0
H979 H 0.55879 0.84572 0.92402 0.0
H980 H 0.5586 0.85102 0.88719 0.0
H981 H 0.47518 0.91283 0.86287 0.0
H982 H 0.48551 0.94656 0.89907 0.0
H983 H 0.52814 0.88408 0.94599 0.0
C984 C 0.50705 0.80968 0.8634 0.0
C985 C 0.49392 0.80717 0.83752 0.0
C986 C 0.48007 0.83009 0.82638 0.0
C987 C 0.47962 0.85513 0.84049 0.0
C988 C 0.49286 0.85686 0.86584 0.0
C989 C 0.50612 0.83473 0.87734 0.0
C990 C 0.51863 0.84205 0.90498 0.0
C991 C 0.50595 0.82503 0.92837 0.0
C992 C 0.54967 0.83873 0.90425 0.0
C993 C 0.51053 0.87189 0.90708 0.0
C994 C 0.49576 0.87998 0.8842 0.0
C995 C 0.48663 0.90672 0.88092 0.0
C996 C 0.49276 0.92576 0.90157 0.0
C997 C 0.50774 0.91795 0.92532 0.0
C998 C 0.51654 0.89058 0.92816 0.0
H999 H 0.15974 0.53237 0.79832 0.0
H1000 H 0.22869 0.4877 0.83174 0.0
H1001 H 0.20435 0.48187 0.87563 0.0
H1002 H 0.14009 0.5668 0.86055 0.0
H1003 H 0.10417 0.56317 0.85457 0.0
H1004 H 0.12723 0.56482 0.82575 0.0
H1005 H 0.10867 0.51861 0.80743 0.0
H1006 H 0.0855 0.51687 0.83617 0.0
H1007 H 0.10874 0.48906 0.82976 0.0
H1008 H 0.17338 0.48124 0.91595 0.0
H1009 H 0.13645 0.48415 0.95007 0.0
H1010 H 0.08601 0.52643 0.89009 0.0
C1011 C 0.16969 0.52117 0.81474 0.0
C1012 C 0.19638 0.51083 0.81154 0.0
C1013 C 0.2086 0.49649 0.83378 0.0
C1014 C 0.19485 0.49283 0.85878 0.0
C1015 C 0.16871 0.5033 0.8612 0.0
C1016 C 0.1561 0.51698 0.83979 0.0
C1017 C 0.12757 0.52561 0.84777 0.0
C1018 C 0.12461 0.55696 0.84712 0.0
C1019 C 0.10637 0.5117 0.82918 0.0
C1020 C 0.12626 0.51473 0.87705 0.0
C1021 C 0.15031 0.50209 0.88436 0.0
C1022 C 0.1544 0.49099 0.91049 0.0
C1023 C 0.13333 0.49287 0.92975 0.0
C1024 C 0.10838 0.50553 0.92273 0.0
C1025 C 0.10479 0.51645 0.89595 0.0
H1026 H 0.53347 0.14796 0.79979 0.0
H1027 H 0.47806 0.20979 0.83137 0.0
H1028 H 0.47391 0.18401 0.87481 0.0
H1029 H 0.49706 0.08989 0.82954 0.0
H1030 H 0.5277 0.071 0.83675 0.0
H1031 H 0.52659 0.09446 0.80804 0.0
H1032 H 0.56851 0.11994 0.82761 0.0
H1033 H 0.56965 0.09669 0.85644 0.0
H1034 H 0.56753 0.13306 0.86239 0.0
H1035 H 0.47748 0.15319 0.91549 0.0
H1036 H 0.48584 0.11712 0.95005 0.0
H1037 H 0.53587 0.07305 0.8911 0.0
C1038 C 0.52014 0.15594 0.81563 0.0
C1039 C 0.50641 0.18119 0.81217 0.0
C1040 C 0.4894 0.19094 0.83367 0.0
C1041 C 0.48669 0.17631 0.85838 0.0
C1042 C 0.50074 0.15173 0.86114 0.0
C1043 C 0.51683 0.14138 0.84027 0.0
C1044 C 0.52947 0.11426 0.84853 0.0
C1045 C 0.51961 0.09103 0.82959 0.0
C1046 C 0.56064 0.11612 0.84876 0.0
C1047 C 0.51822 0.11122 0.87747 0.0
C1048 C 0.50184 0.13319 0.88433 0.0
C1049 C 0.49005 0.13575 0.9103 0.0
C1050 C 0.49506 0.11525 0.92981 0.0
C1051 C 0.51147 0.09235 0.92316 0.0
C1052 C 0.52303 0.09022 0.89658 0.0
H1053 H 0.87521 0.52647 0.80242 0.0
H1054 H 0.81794 0.46388 0.82838 0.0
H1055 H 0.84375 0.45769 0.87154 0.0
H1056 H 0.93477 0.49147 0.8275 0.0
H1057 H 0.9516 0.52261 0.83779 0.0
H1058 H 0.92787 0.52303 0.8095 0.0
H1059 H 0.90052 0.56122 0.83399 0.0
H1060 H 0.9238 0.56065 0.86265 0.0
H1061 H 0.88806 0.55559 0.86854 0.0
H1062 H 0.87509 0.45911 0.91233 0.0
H1063 H 0.9114 0.46616 0.94678 0.0
H1064 H 0.95052 0.52449 0.89224 0.0
C1065 C 0.86818 0.51118 0.81694 0.0
C1066 C 0.84435 0.49579 0.81193 0.0
C1067 C 0.83574 0.47639 0.83188 0.0
C1068 C 0.8504 0.47254 0.85639 0.0
C1069 C 0.87381 0.48797 0.86051 0.0
C1070 C 0.8828 0.50672 0.84124 0.0
C1071 C 0.90896 0.52023 0.85036 0.0
C1072 C 0.93217 0.51394 0.83008 0.0
C1073 C 0.90508 0.55126 0.8541 0.0
C1074 C 0.91332 0.50611 0.87781 0.0
C1075 C 0.89261 0.48782 0.88342 0.0
C1076 C 0.89152 0.47319 0.90806 0.0
C1077 C 0.91214 0.47738 0.9275 0.0
C1078 C 0.93374 0.49568 0.92195 0.0
C1079 C 0.93441 0.51008 0.89673 0.0
H1080 H 0.69643 0.68415 0.97395 0.0
H1081 H 0.73453 0.66347 0.05192 0.0
H1082 H 0.69392 0.63703 0.06544 0.0
H1083 H 0.62593 0.68885 0.9994 0.0
H1084 H 0.61186 0.67285 0.96907 0.0
H1085 H 0.64262 0.69267 0.96649 0.0
H1086 H 0.66748 0.65109 0.9448 0.0
H1087 H 0.63675 0.63132 0.94709 0.0
H1088 H 0.6675 0.61877 0.96281 0.0
H1089 H 0.65155 0.61056 0.06933 0.0
H1090 H 0.61093 0.58201 0.06186 0.0
H1091 H 0.59949 0.61859 0.98116 0.0
C1092 C 0.69592 0.67432 0.99399 0.0
C1093 C 0.71839 0.67585 0.01205 0.0
C1094 C 0.71744 0.6624 0.03788 0.0
C1095 C 0.69442 0.64757 0.04579 0.0
C1096 C 0.6726 0.64632 0.02756 0.0
C1097 C 0.67316 0.65907 0.00208 0.0
C1098 C 0.64791 0.65232 0.98546 0.0
C1099 C 0.63108 0.67822 0.97978 0.0
C1100 C 0.65536 0.63749 0.95845 0.0
C1101 C 0.63337 0.63336 0.00539 0.0
C1102 C 0.64787 0.63062 0.02971 0.0
C1103 C 0.63978 0.61285 0.0506 0.0
C1104 C 0.6167 0.59681 0.04624 0.0
C1105 C 0.60199 0.59868 0.02125 0.0
C1106 C 0.61001 0.61756 1.00078 0.0
H1107 H 0.34309 0.68302 0.97574 0.0
H1108 H 0.35989 0.71911 0.05572 0.0
H1109 H 0.38744 0.67876 0.06839 0.0
H1110 H 0.34069 0.61082 0.99832 0.0
H1111 H 0.35793 0.59841 0.96795 0.0
H1112 H 0.33713 0.62874 0.96597 0.0
H1113 H 0.37793 0.65611 0.94643 0.0
H1114 H 0.39871 0.62585 0.94822 0.0
H1115 H 0.4094 0.65673 0.96541 0.0
H1116 H 0.41568 0.6372 0.07125 0.0
H1117 H 0.44534 0.5972 0.06327 0.0
H1118 H 0.41122 0.58706 0.98145 0.0
C1119 C 0.35226 0.68206 0.99605 0.0
C1120 C 0.34934 0.70393 0.01492 0.0
C1121 C 0.36198 0.70246 0.04109 0.0
C1122 C 0.37749 0.67961 0.04849 0.0
C1123 C 0.38023 0.65844 0.02942 0.0
C1124 C 0.36817 0.65944 0.00366 0.0
C1125 C 0.37635 0.63488 0.98631 0.0
C1126 C 0.35154 0.61716 0.97922 0.0
C1127 C 0.3915 0.64394 0.96005 0.0
C1128 C 0.39516 0.6202 0.00623 0.0
C1129 C 0.3968 0.6341 0.03107 0.0
C1130 C 0.41424 0.62585 0.05212 0.0
C1131 C 0.43092 0.60315 0.04746 0.0
C1132 C 0.42993 0.58891 0.02208 0.0
C1133 C 0.41156 0.59719 1.00134 0.0
H1134 H 0.33641 0.33214 0.02206 0.0
H1135 H 0.37281 0.28525 0.95561 0.0
H1136 H 0.40615 0.32211 0.94796 0.0
H1137 H 0.348 0.4016 0.99046 0.0
H1138 H 0.35547 0.41685 0.0235 0.0
H1139 H 0.33204 0.38859 0.02128 0.0
H1140 H 0.36079 0.3618 0.05703 0.0
H1141 H 0.3844 0.38981 0.05908 0.0
H1142 H 0.39634 0.356 0.05035 0.0
H1143 H 0.43905 0.35983 0.95175 0.0
H1144 H 0.46824 0.39877 0.96444 0.0
H1145 H 0.41044 0.42326 0.02732 0.0
C1146 C 0.35088 0.33014 0.00535 0.0
C1147 C 0.3521 0.30593 0.98937 0.0
C1148 C 0.37167 0.30362 0.9681 0.0
C1149 C 0.3906 0.32446 0.96355 0.0
C1150 C 0.38953 0.34762 0.98028 0.0
C1151 C 0.37 0.35086 1.00052 0.0
C1152 C 0.37474 0.37699 0.01684 0.0
C1153 C 0.35116 0.39721 0.01276 0.0
C1154 C 0.37935 0.37076 0.04764 0.0
C1155 C 0.4005 0.38734 0.00321 0.0
C1156 C 0.40851 0.37005 0.9821 0.0
C1157 C 0.43275 0.37382 0.96786 0.0
C1158 C 0.44929 0.39582 0.97536 0.0
C1159 C 0.44149 0.41392 0.99676 0.0
C1160 C 0.41659 0.40989 0.01061 0.0
H1161 H 0.69675 0.32618 0.03467 0.0
H1162 H 0.74426 0.35887 0.96675 0.0
H1163 H 0.70768 0.39175 0.95638 0.0
H1164 H 0.62957 0.33361 1.00058 0.0
H1165 H 0.61292 0.34309 0.03232 0.0
H1166 H 0.64182 0.32044 0.03306 0.0
H1167 H 0.66607 0.35309 0.06725 0.0
H1168 H 0.63735 0.37586 0.06651 0.0
H1169 H 0.67066 0.38855 0.058 0.0
H1170 H 0.66897 0.42393 0.95635 0.0
H1171 H 0.62875 0.4527 0.96532 0.0
H1172 H 0.60443 0.39825 0.0316 0.0
C1173 C 0.69915 0.33981 0.01721 0.0
C1174 C 0.72339 0.34004 1.00155 0.0
C1175 C 0.726 0.35857 0.97921 0.0
C1176 C 0.70527 0.37719 0.97304 0.0
C1177 C 0.68192 0.37682 0.9892 0.0
C1178 C 0.67854 0.3585 0.01066 0.0
C1179 C 0.65192 0.36347 0.02561 0.0
C1180 C 0.63293 0.33868 0.02271 0.0
C1181 C 0.65681 0.37068 0.05614 0.0
C1182 C 0.64125 0.38791 0.00963 0.0
C1183 C 0.65893 0.39515 0.98867 0.0
C1184 C 0.65473 0.41822 0.97235 0.0
C1185 C 0.63196 0.43448 0.97769 0.0
C1186 C 0.61358 0.42746 0.99898 0.0
C1187 C 0.618 0.40366 0.01488 0.0
H1188 H 0.99556 0.71884 0.64597 0.0
H1189 H 0.04126 0.68977 0.71686 0.0
H1190 H 0.05046 0.64637 0.69264 0.0
H1191 H 0.96479 0.65596 0.62843 0.0
H1192 H 0.96753 0.6606 0.59161 0.0
H1193 H 0.96527 0.68997 0.61395 0.0
H1194 H 0.01007 0.70898 0.59344 0.0
H1195 H 0.01229 0.67967 0.57093 0.0
H1196 H 0.04011 0.68786 0.59365 0.0
H1197 H 0.05206 0.60515 0.66247 0.0
H1198 H 0.04837 0.5694 0.62666 0.0
H1199 H 1.00371 0.62581 0.57426 0.0
C1200 C 0.00793 0.70357 0.6562 0.0
C1201 C 0.01751 0.70764 0.68342 0.0
C1202 C 0.0333 0.68693 0.6962 0.0
C1203 C 0.03879 0.66228 0.68257 0.0
C1204 C 0.02863 0.65873 0.65602 0.0
C1205 C 0.01379 0.67886 0.64279 0.0
C1206 C 1.00492 0.66955 0.61434 0.0
C1207 C 0.97378 0.66899 0.61197 0.0
C1208 C 0.01761 0.68759 0.59175 0.0
C1209 C 0.01671 0.6409 0.6139 0.0
C1210 C 0.03025 0.63509 0.63818 0.0
C1211 C 0.04177 0.60952 0.64323 0.0
C1212 C 0.03943 0.58932 0.62285 0.0
C1213 C 0.02586 0.5949 0.59769 0.0
C1214 C 0.01451 0.6211 0.59316 0.0
H1215 H 0.37878 0.99741 0.7252 0.0
H1216 H 0.31856 0.05399 0.69275 0.0
H1217 H 0.34479 0.0578 0.64962 0.0
H1218 H 0.43735 0.03315 0.69597 0.0
H1219 H 0.45556 1.00184 0.68918 0.0
H1220 H 0.43205 1.0036 0.71763 0.0
H1221 H 0.4062 0.96165 0.69811 0.0
H1222 H 0.42951 0.95987 0.66953 0.0
H1223 H 0.39357 0.96265 0.66318 0.0
H1224 H 0.3759 0.05342 0.60916 0.0
H1225 H 0.41167 0.04362 0.57492 0.0
H1226 H 0.45375 0.9929 0.63481 0.0
C1227 C 0.37126 0.01101 0.70928 0.0
C1228 C 0.34636 0.02518 0.71241 0.0
C1229 C 0.33718 0.04238 0.69074 0.0
C1230 C 0.35207 0.04489 0.66621 0.0
C1231 C 0.37632 0.03042 0.66379 0.0
C1232 C 0.38607 0.0141 0.68484 0.0
C1233 C 0.41278 1.00079 0.67696 0.0
C1234 C 0.4358 0.01043 0.69607 0.0
C1235 C 0.41035 0.96938 0.67694 0.0
C1236 C 0.41631 0.01186 0.64798 0.0
C1237 C 0.39494 0.0288 0.64078 0.0
C1238 C 0.39288 0.04043 0.61464 0.0
C1239 C 0.4132 0.03461 0.59531 0.0
C1240 C 0.43544 0.01756 0.60231 0.0
C1241 C 0.43712 0.00625 0.62907 0.0
H1242 H 0.03909 0.31928 0.68624 0.0
H1243 H 0.97749 0.35781 0.73703 0.0
H1244 H 0.96681 0.38986 0.69914 0.0
H1245 H 0.06445 0.37992 0.65785 0.0
H1246 H 0.07099 0.36646 0.62383 0.0
H1247 H 0.07138 0.34395 0.65324 0.0
H1248 H 0.03523 0.31313 0.62995 0.0
H1249 H 0.0348 0.3356 0.6004 0.0
H1250 H 1.0037 0.32803 0.61846 0.0
H1251 H 0.96615 0.42035 0.6591 0.0
H1252 H 0.97532 0.4487 0.6181 0.0
H1253 H 0.03749 0.3915 0.59177 0.0
C1254 C 0.02292 0.33407 0.68895 0.0
C1255 C 0.00887 0.33609 0.71432 0.0
C1256 C 0.98832 0.35602 0.71764 0.0
C1257 C 0.98207 0.37417 0.69624 0.0
C1258 C 0.99661 0.37211 0.67166 0.0
C1259 C 0.01658 0.3526 0.66776 0.0
C1260 C 0.03065 0.35657 0.64011 0.0
C1261 C 0.06117 0.36206 0.64401 0.0
C1262 C 0.0258 0.33186 0.6211 0.0
C1263 C 0.01597 0.38183 0.62954 0.0
C1264 C 0.99623 0.39012 0.64806 0.0
C1265 C 0.98119 0.4139 0.64419 0.0
C1266 C 0.98666 0.42992 0.62098 0.0
C1267 C 1.00698 0.42217 0.60189 0.0
C1268 C 0.0215 0.39752 0.60587 0.0
H1269 H 0.69601 0.04459 0.69476 0.0
H1270 H 0.7441 0.97705 0.66289 0.0
H1271 H 0.7065 0.96379 0.63243 0.0
H1272 H 0.62936 0.00814 0.69188 0.0
H1273 H 0.61113 0.03838 0.68125 0.0
H1274 H 0.64082 0.04148 0.7028 0.0
H1275 H 0.66249 0.07431 0.66703 0.0
H1276 H 0.6329 0.07123 0.64547 0.0
H1277 H 0.66597 0.06333 0.63166 0.0
H1278 H 0.66769 0.96092 0.60193 0.0
H1279 H 0.62724 0.9673 0.57312 0.0
H1280 H 0.60076 0.03432 0.62522 0.0
C1281 C 0.69831 0.02675 0.68169 0.0
C1282 C 0.72306 0.01198 0.68095 0.0
C1283 C 0.72551 0.98891 0.66342 0.0
C1284 C 0.70419 0.98106 0.64623 0.0
C1285 C 0.68035 0.99628 0.64697 0.0
C1286 C 0.67702 0.01851 0.66428 0.0
C1287 C 0.64957 0.03201 0.65951 0.0
C1288 C 0.63166 0.02987 0.6854 0.0
C1289 C 0.65295 0.06199 0.65037 0.0
C1290 C 0.63856 0.01436 0.63623 0.0
C1291 C 0.65679 0.99382 0.62961 0.0
C1292 C 0.65287 0.97638 0.60733 0.0
C1293 C 0.62982 0.9801 0.59112 0.0
C1294 C 0.61064 1.0007 0.59743 0.0
C1295 C 0.61478 0.01788 0.62053 0.0
H1296 H 0.98049 0.32957 0.33045 0.0
H1297 H 0.05311 0.28499 0.35413 0.0
H1298 H 0.0662 0.32282 0.38502 0.0
H1299 H 0.01154 0.39883 0.33233 0.0
H1300 H 0.98133 0.41446 0.34622 0.0
H1301 H 0.97865 0.38493 0.32405 0.0
H1302 H 0.95122 0.35954 0.36188 0.0
H1303 H 0.95388 0.38894 0.38411 0.0
H1304 H 0.96548 0.35596 0.39598 0.0
H1305 H 0.06898 0.36215 0.41678 0.0
H1306 H 0.06215 0.40239 0.44678 0.0
H1307 H 0.98939 0.42377 0.40135 0.0
C1308 C 0.99943 0.32809 0.3417 0.0
C1309 C 0.01574 0.30429 0.34002 0.0
C1310 C 0.04014 0.30287 0.35541 0.0
C1311 C 0.04786 0.32433 0.37283 0.0
C1312 C 0.03111 0.34723 0.37443 0.0
C1313 C 1.00751 0.34945 0.35918 0.0
C1314 C 0.99251 0.37576 0.36601 0.0
C1315 C 0.99092 0.39461 0.34064 0.0
C1316 C 0.9641 0.36967 0.37769 0.0
C1317 C 0.01107 0.38758 0.38795 0.0
C1318 C 0.03324 0.37073 0.39236 0.0
C1319 C 0.05207 0.37584 0.41314 0.0
C1320 C 0.04804 0.39866 0.43006 0.0
C1321 C 0.02561 0.41623 0.42589 0.0
C1322 C 1.00708 0.41093 0.40435 0.0
H1323 H 0.65478 0.98177 0.29662 0.0
H1324 H 0.72767 0.01607 0.33344 0.0
H1325 H 0.70372 0.02116 0.37767 0.0
H1326 H 0.60772 0.02701 0.33206 0.0
H1327 H 0.58207 1.00106 0.33639 0.0
H1328 H 0.60493 0.99953 0.30738 0.0
H1329 H 0.61928 0.95045 0.32161 0.0
H1330 H 0.59646 0.95188 0.35064 0.0
H1331 H 0.63191 0.94441 0.35602 0.0
H1332 H 0.67297 0.022 0.41774 0.0
H1333 H 0.63632 0.01973 0.45193 0.0
H1334 H 0.58186 0.98685 0.38959 0.0
C1335 C 0.66565 0.99052 0.31393 0.0
C1336 C 0.69329 0.99817 0.31157 0.0
C1337 C 0.70676 0.00941 0.33482 0.0
C1338 C 0.69326 0.01261 0.36001 0.0
C1339 C 0.66618 1.00474 0.36164 0.0
C1340 C 0.65239 0.99407 0.33929 0.0
C1341 C 0.62319 0.98751 0.34681 0.0
C1342 C 0.6033 1.00482 0.32964 0.0
C1343 C 0.61738 0.95673 0.34358 0.0
C1344 C 0.62289 0.99603 0.37694 0.0
C1345 C 0.64799 0.00583 0.38494 0.0
C1346 C 0.65318 0.01444 0.41176 0.0
C1347 C 0.63218 0.01296 0.43107 0.0
C1348 C 0.60615 1.00306 0.4235 0.0
C1349 C 0.60146 0.99465 0.39596 0.0
H1350 H 0.98886 0.6442 0.29917 0.0
H1351 H 0.03851 0.71197 0.32767 0.0
H1352 H 0.04803 0.68698 0.37087 0.0
H1353 H 0.95965 0.6285 0.36391 0.0
H1354 H 0.95995 0.5919 0.35959 0.0
H1355 H 0.95745 0.61384 0.3298 0.0
H1356 H 0.99991 0.59171 0.30786 0.0
H1357 H 1.0022 0.56872 0.33687 0.0
H1358 H 0.03093 0.5896 0.3275 0.0
H1359 H 0.05051 0.65594 0.41148 0.0
H1360 H 0.04725 0.61971 0.44678 0.0
H1361 H 0.99753 0.57108 0.39135 0.0
C1362 C 1.00209 0.65359 0.3143 0.0
C1363 C 0.01291 0.68006 0.31011 0.0
C1364 C 0.02973 0.69186 0.33064 0.0
C1365 C 0.03538 0.67778 0.35514 0.0
C1366 C 0.0242 0.65186 0.35871 0.0
C1367 C 0.00805 0.63976 0.33884 0.0
C1368 C 0.99808 0.61193 0.3482 0.0
C1369 C 0.96694 0.61153 0.3505 0.0
C1370 C 0.00841 0.58915 0.32896 0.0
C1371 C 0.01127 0.61026 0.37638 0.0
C1372 C 0.02608 0.63362 0.38206 0.0
C1373 C 0.03916 0.63746 0.40722 0.0
C1374 C 0.03707 0.61684 0.42716 0.0
C1375 C 0.02221 0.59262 0.4217 0.0
C1376 C 0.0093 0.58925 0.3959 0.0
H1377 H 0.37764 0.00909 0.30334 0.0
H1378 H 0.31901 0.95012 0.33449 0.0
H1379 H 0.34301 0.94929 0.37901 0.0
H1380 H 0.43574 0.97563 0.33545 0.0
H1381 H 0.453 0.00754 0.34181 0.0
H1382 H 0.43043 1.00439 0.31272 0.0
H1383 H 0.4031 0.04637 0.33022 0.0
H1384 H 0.42543 0.04942 0.3595 0.0
H1385 H 0.38936 0.04606 0.36473 0.0
H1386 H 0.37223 0.95641 0.42093 0.0
H1387 H 0.40757 0.96705 0.45553 0.0
H1388 H 0.44991 0.01695 0.39521 0.0
C1389 C 0.36995 0.99555 0.31919 0.0
C1390 C 0.34602 0.97996 0.3152 0.0
C1391 C 0.33671 0.96297 0.33702 0.0
C1392 C 0.35038 0.96212 0.3624 0.0
C1393 C 0.37369 0.97789 0.36554 0.0
C1394 C 0.38372 0.99386 0.34436 0.0
C1395 C 0.40984 0.00798 0.35267 0.0
C1396 C 0.43366 0.9983 0.33459 0.0
C1397 C 0.40673 0.03931 0.35173 0.0
C1398 C 0.41268 0.99779 0.38203 0.0
C1399 C 0.39146 0.98068 0.38915 0.0
C1400 C 0.38909 0.96956 0.41552 0.0
C1401 C 0.40912 0.97586 0.43505 0.0
C1402 C 0.4314 0.99275 0.42793 0.0
C1403 C 0.43318 1.00379 0.40107 0.0
H1404 H 0.98979 0.21545 0.37174 0.0
H1405 H 0.01924 0.18298 0.29379 0.0
H1406 H 0.02433 0.13741 0.3153 0.0
H1407 H 0.03672 0.17911 0.41399 0.0
H1408 H 0.01294 0.17382 0.44176 0.0
H1409 H 0.00957 0.20324 0.41963 0.0
H1410 H 0.96011 0.18914 0.40814 0.0
H1411 H 0.96338 0.1597 0.4303 0.0
H1412 H 0.95347 0.15536 0.39474 0.0
H1413 H 0.02745 0.09544 0.34601 0.0
H1414 H 0.02937 0.06109 0.38345 0.0
H1415 H 1.00038 0.12215 0.44162 0.0
C1416 C 0.99742 0.19885 0.3591 0.0
C1417 C 1.00405 0.20295 0.33095 0.0
C1418 C 0.01355 0.1804 0.31522 0.0
C1419 C 0.01669 0.15443 0.32732 0.0
C1420 C 0.01035 0.15131 0.35521 0.0
C1421 C 1.00097 0.17296 0.3709 0.0
C1422 C 0.99665 0.16461 0.4007 0.0
C1423 C 0.01507 0.18118 0.42016 0.0
C1424 C 0.96662 0.16736 0.40894 0.0
C1425 C 1.00527 0.13489 0.39941 0.0
C1426 C 0.01287 0.1275 0.37297 0.0
C1427 C 0.02153 0.10102 0.36678 0.0
C1428 C 0.02251 0.08163 0.3882 0.0
C1429 C 0.01515 0.0889 0.41554 0.0
C1430 C 1.00639 0.11593 0.42103 0.0
H1431 H 0.86733 0.95452 0.31093 0.0
H1432 H 0.81944 0.02881 0.31958 0.0
H1433 H 0.84571 0.04104 0.36106 0.0
H1434 H 0.87401 0.94082 0.38262 0.0
H1435 H 0.90856 0.92913 0.38143 0.0
H1436 H 0.88687 0.92455 0.35184 0.0
H1437 H 0.91951 0.95066 0.31995 0.0
H1438 H 0.94285 0.95418 0.34834 0.0
H1439 H 0.93149 0.98413 0.32986 0.0
H1440 H 0.87667 0.04477 0.40257 0.0
H1441 H 0.9123 0.04142 0.43848 0.0
H1442 H 0.94275 0.96718 0.40046 0.0
C1443 C 0.8625 0.9736 0.32119 0.0
C1444 C 0.84098 0.99053 0.31179 0.0
C1445 C 0.83527 0.01503 0.32648 0.0
C1446 C 0.85026 0.02232 0.35003 0.0
C1447 C 0.87121 0.00513 0.35865 0.0
C1448 C 0.87752 0.98142 0.3445 0.0
C1449 C 0.90119 0.96662 0.35792 0.0
C1450 C 0.89211 0.93861 0.36908 0.0
C1451 C 0.92518 0.96374 0.33781 0.0
C1452 C 0.90777 0.98613 0.38135 0.0
C1453 C 0.8898 0.0079 0.38178 0.0
C1454 C 0.89097 0.02795 0.40225 0.0
C1455 C 0.91117 0.02584 0.42261 0.0
C1456 C 0.93029 1.00421 0.42203 0.0
C1457 C 0.92856 0.98413 0.4011 0.0
H1458 H 0.9584 0.83438 0.33396 0.0
H1459 H 0.03956 0.82566 0.30056 0.0
H1460 H 0.05764 0.85441 0.33852 0.0
H1461 H 0.9636 0.90343 0.35533 0.0
H1462 H 0.9447 0.89886 0.38685 0.0
H1463 H 0.93807 0.87707 0.35765 0.0
H1464 H 0.94719 0.83422 0.38788 0.0
H1465 H 0.95326 0.85618 0.41711 0.0
H1466 H 0.97862 0.83162 0.40677 0.0
H1467 H 0.06598 0.88734 0.37782 0.0
H1468 H 0.06424 0.92013 0.41689 0.0
H1469 H 0.97822 0.90473 0.42642 0.0
C1470 C 0.97998 0.83854 0.33473 0.0
C1471 C 0.99765 0.82805 0.31435 0.0
C1472 C 0.02579 0.83355 0.31608 0.0
C1473 C 0.03618 0.84981 0.33753 0.0
C1474 C 0.0182 0.85992 0.3573 0.0
C1475 C 0.99073 0.85426 0.35625 0.0
C1476 C 0.97571 0.86771 0.37993 0.0
C1477 C 0.95425 0.88797 0.36924 0.0
C1478 C 0.96295 0.84613 0.39905 0.0
C1479 C 0.99885 0.88246 0.39408 0.0
C1480 C 0.02323 0.87771 0.38071 0.0
C1481 C 0.04714 0.89072 0.3888 0.0
C1482 C 0.04601 0.90921 0.41095 0.0
C1483 C 0.02127 0.91418 0.42484 0.0
C1484 C 0.99749 0.90051 0.41651 0.0
H1485 H 0.16506 0.96125 0.30511 0.0
H1486 H 0.22201 0.02672 0.32365 0.0
H1487 H 0.19554 0.03828 0.36513 0.0
H1488 H 0.10504 0.99988 0.32491 0.0
H1489 H 0.08785 0.97028 0.33862 0.0
H1490 H 0.11184 0.9664 0.31081 0.0
H1491 H 0.13885 0.93115 0.33991 0.0
H1492 H 0.11498 0.93501 0.36781 0.0
H1493 H 0.15066 0.9406 0.37384 0.0
H1494 H 0.1641 0.04139 0.40593 0.0
H1495 H 0.12772 0.03832 0.44096 0.0
H1496 H 0.08849 0.97444 0.39329 0.0
C1497 C 0.1719 0.97834 0.3175 0.0
C1498 C 0.19603 0.9928 0.31094 0.0
C1499 C 0.20416 0.0147 0.32834 0.0
C1500 C 0.18907 0.02165 0.35191 0.0
C1501 C 0.16556 0.00689 0.35768 0.0
C1502 C 0.15678 0.98595 0.34077 0.0
C1503 C 0.13039 0.97376 0.35125 0.0
C1504 C 0.10742 0.97783 0.33014 0.0
C1505 C 0.13395 0.94333 0.35864 0.0
C1506 C 0.12582 0.99099 0.37685 0.0
C1507 C 0.14654 0.00978 0.38033 0.0
C1508 C 0.14761 0.02702 0.40323 0.0
C1509 C 0.12694 0.02506 0.42303 0.0
C1510 C 0.10526 0.00636 0.4196 0.0
C1511 C 0.10462 0.98924 0.39611 0.0
H1512 H 0.03508 0.80035 0.65659 0.0
H1513 H 0.97326 0.82776 0.71459 0.0
H1514 H 0.9724 0.87259 0.69174 0.0
H1515 H 0.06985 0.86429 0.64664 0.0
H1516 H 0.07429 0.85933 0.61004 0.0
H1517 H 0.07247 0.83015 0.63272 0.0
H1518 H 0.03272 0.81042 0.60387 0.0
H1519 H 0.03454 0.83948 0.58106 0.0
H1520 H 1.00299 0.83116 0.59794 0.0
H1521 H 0.9779 0.91476 0.66244 0.0
H1522 H 0.98594 0.94922 0.62592 0.0
H1523 H 0.03942 0.89242 0.58362 0.0
C1524 C 0.0211 0.81549 0.66456 0.0
C1525 C 1.00454 0.81014 0.68794 0.0
C1526 C 0.98694 0.83118 0.69747 0.0
C1527 C 0.98606 0.85682 0.68441 0.0
C1528 C 1.00246 0.86114 0.66143 0.0
C1529 C 0.01934 0.84093 0.65131 0.0
C1530 C 0.03336 0.85012 0.625 0.0
C1531 C 0.06433 0.85102 0.62885 0.0
C1532 C 0.02542 0.8317 0.60053 0.0
C1533 C 0.02165 0.87865 0.62191 0.0
C1534 C 1.00426 0.88479 0.64343 0.0
C1535 C 0.99138 0.91014 0.64542 0.0
C1536 C 0.99616 0.9296 0.62467 0.0
C1537 C 0.0132 0.9234 0.60197 0.0
C1538 C 0.02613 0.8976 0.60067 0.0
H1539 H 0.1645 0.03717 0.71558 0.0
H1540 H 0.22414 0.9761 0.69117 0.0
H1541 H 0.19931 0.96897 0.64762 0.0
H1542 H 0.10656 0.99983 0.68985 0.0
H1543 H 0.08874 0.0303 0.67917 0.0
H1544 H 0.11206 0.03171 0.70776 0.0
H1545 H 0.13837 0.07072 0.68339 0.0
H1546 H 0.1153 0.06921 0.65458 0.0
H1547 H 0.15126 0.0654 0.64895 0.0
H1548 H 0.16843 0.96918 0.60604 0.0
H1549 H 0.13198 0.97407 0.57132 0.0
H1550 H 0.09005 0.03135 0.62492 0.0
C1551 C 0.17231 0.02196 0.70141 0.0
C1552 C 0.19662 0.00737 0.70708 0.0
C1553 C 0.20607 0.98811 0.68733 0.0
C1554 C 0.19194 0.98372 0.66253 0.0
C1555 C 0.16812 0.99841 0.65779 0.0
C1556 C 0.15819 0.0169 0.67683 0.0
C1557 C 0.1316 0.02938 0.66718 0.0
C1558 C 0.10837 0.02237 0.68718 0.0
C1559 C 0.13431 0.06052 0.66329 0.0
C1560 C 0.12809 0.01495 0.63971 0.0
C1561 C 0.14959 0.99746 0.63451 0.0
C1562 C 0.15141 0.98263 0.61 0.0
C1563 C 0.13067 0.98563 0.59037 0.0
C1564 C 0.10815 1.00294 0.59554 0.0
C1565 C 0.10687 0.01771 0.62059 0.0
H1566 H 0.03177 0.14776 0.72034 0.0
H1567 H 1.00492 0.22281 0.68048 0.0
H1568 H 1.00598 0.19958 0.63548 0.0
H1569 H 0.07568 0.12311 0.66501 0.0
H1570 H 0.06583 0.08787 0.6696 0.0
H1571 H 0.0654 0.11099 0.69858 0.0
H1572 H 0.01481 0.09912 0.70734 0.0
H1573 H 0.01519 0.0761 0.6783 0.0
H1574 H 0.99055 0.10336 0.67979 0.0
H1575 H 0.00784 0.1681 0.59499 0.0
H1576 H 0.00962 0.13006 0.56172 0.0
H1577 H 0.03315 0.07455 0.62771 0.0
C1578 C 0.02615 0.1594 0.7022 0.0
C1579 C 0.0186 0.18735 0.70416 0.0
C1580 C 0.01151 0.20167 0.67969 0.0
C1581 C 0.01183 0.18858 0.65394 0.0
C1582 C 0.01911 0.16106 0.65286 0.0
C1583 C 0.0261 0.14657 0.6763 0.0
C1584 C 0.03182 0.11677 0.66949 0.0
C1585 C 0.06144 0.10926 0.67606 0.0
C1586 C 0.0119 0.09772 0.68463 0.0
C1587 C 0.02667 0.11681 0.63862 0.0
C1588 C 0.01958 0.14263 0.62946 0.0
C1589 C 0.01351 0.1478 0.60188 0.0
C1590 C 0.01464 0.126 0.58311 0.0
C1591 C 0.0216 0.09921 0.59199 0.0
C1592 C 0.02774 0.09471 0.62019 0.0
H1593 H 0.81258 0.99528 0.65457 0.0
H1594 H 0.84219 0.05235 0.71655 0.0
H1595 H 0.88631 0.05402 0.6927 0.0
H1596 H 0.87523 0.95934 0.6415 0.0
H1597 H 0.86951 0.95706 0.60481 0.0
H1598 H 0.84108 0.9582 0.62818 0.0
H1599 H 0.82183 1.00022 0.602 0.0
H1600 H 0.85022 0.9992 0.57859 0.0
H1601 H 0.84281 0.03012 0.59748 0.0
H1602 H 0.92718 0.05021 0.66153 0.0
H1603 H 0.96074 0.04299 0.62437 0.0
H1604 H 0.90294 0.99225 0.58021 0.0
C1605 C 0.82811 0.00839 0.66319 0.0
C1606 C 0.82355 0.02365 0.68773 0.0
C1607 C 0.84503 0.03995 0.69826 0.0
C1608 C 0.8702 0.04123 0.68468 0.0
C1609 C 0.87365 0.02637 0.66035 0.0
C1610 C 0.85312 0.0104 0.6496 0.0
C1611 C 0.8615 0.99762 0.62232 0.0
C1612 C 0.86185 0.96619 0.62434 0.0
C1613 C 0.84299 0.00738 0.59871 0.0
C1614 C 0.88996 0.00901 0.61932 0.0
C1615 C 0.8967 0.02524 0.64169 0.0
C1616 C 0.92208 0.0376 0.6439 0.0
C1617 C 0.94103 0.03332 0.6227 0.0
C1618 C 0.93442 0.01716 0.59933 0.0
C1619 C 0.90847 0.00494 0.59767 0.0
H1620 H 0.38032 0.96851 0.22204 0.0
H1621 H 0.31496 0.02232 0.19562 0.0
H1622 H 0.3398 0.03198 0.15262 0.0
H1623 H 0.43445 0.01163 0.19671 0.0
H1624 H 0.45564 0.98329 0.18646 0.0
H1625 H 0.4322 0.97942 0.21475 0.0
H1626 H 0.41042 0.93765 0.19034 0.0
H1627 H 0.4338 0.9414 0.162 0.0
H1628 H 0.39776 0.94131 0.1556 0.0
H1629 H 0.37112 0.0354 0.11222 0.0
H1630 H 0.40788 0.03384 0.07769 0.0
H1631 H 0.45487 0.98094 0.1316 0.0
C1632 C 0.37124 0.98254 0.20741 0.0
C1633 C 0.34541 0.99442 0.21233 0.0
C1634 C 0.33432 0.01236 0.19224 0.0
C1635 C 0.34841 0.01821 0.16779 0.0
C1636 C 0.37377 0.00626 0.16375 0.0
C1637 C 0.38522 0.98895 0.18305 0.0
C1638 C 0.41313 0.97936 0.17388 0.0
C1639 C 0.43515 0.98901 0.19416 0.0
C1640 C 0.4138 0.94808 0.17023 0.0
C1641 C 0.41551 0.99394 0.14633 0.0
C1642 C 0.39244 0.00915 0.14085 0.0
C1643 C 0.38934 0.0237 0.11634 0.0
C1644 C 0.4103 0.02261 0.09683 0.0
C1645 C 0.43424 0.00736 0.10203 0.0
C1646 C 0.43693 0.99303 0.12724 0.0
H1647 H 0.9596 0.3189 0.16453 0.0
H1648 H 0.03612 0.31423 0.20905 0.0
H1649 H 0.05324 0.35342 0.18229 0.0
H1650 H 0.99006 0.33259 0.0984 0.0
H1651 H 0.96317 0.3551 0.08733 0.0
H1652 H 0.95604 0.3278 0.11124 0.0
H1653 H 0.93597 0.36284 0.14583 0.0
H1654 H 0.94308 0.3903 0.12208 0.0
H1655 H 0.95627 0.39155 0.15677 0.0
H1656 H 0.06166 0.39435 0.15138 0.0
H1657 H 0.06208 0.43063 0.11544 0.0
H1658 H 0.98247 0.40483 0.08791 0.0
C1659 C 0.9801 0.32572 0.16856 0.0
C1660 C 0.99626 0.31338 0.18935 0.0
C1661 C 0.02287 0.32358 0.19393 0.0
C1662 C 0.03294 0.34578 0.17863 0.0
C1663 C 0.01641 0.35737 0.15844 0.0
C1664 C 0.9907 0.34744 0.15311 0.0
C1665 C 0.97744 0.36274 0.12945 0.0
C1666 C 0.97133 0.3434 0.10517 0.0
C1667 C 0.95167 0.37774 0.13912 0.0
C1668 C 0.99976 0.38278 0.12227 0.0
C1669 C 0.02191 0.3797 0.13953 0.0
C1670 C 0.04457 0.39673 0.13756 0.0
C1671 C 0.04464 0.41724 0.11723 0.0
C1672 C 0.02249 0.42002 0.09891 0.0
C1673 C 0.99982 0.40264 0.10148 0.0
H1674 H 0.69534 0.9669 0.19195 0.0
H1675 H 0.69237 0.05076 0.22092 0.0
H1676 H 0.66359 0.06342 0.18104 0.0
H1677 H 0.69474 0.98216 0.11664 0.0
H1678 H 0.67292 0.95357 0.10888 0.0
H1679 H 0.69595 0.95176 0.13775 0.0
H1680 H 0.65565 0.94061 0.17022 0.0
H1681 H 0.6325 0.94257 0.14153 0.0
H1682 H 0.62704 0.96361 0.1716 0.0
H1683 H 0.63137 0.066 0.14142 0.0
H1684 H 0.59853 0.05851 0.10346 0.0
H1685 H 0.6222 0.97317 0.09914 0.0
C1686 C 0.68923 0.98805 0.1893 0.0
C1687 C 0.69638 0.00806 0.20908 0.0
C1688 C 0.68735 0.03534 0.20567 0.0
C1689 C 0.67101 0.04266 0.18315 0.0
C1690 C 0.66379 0.02241 0.16424 0.0
C1691 C 0.67268 0.99567 0.16695 0.0
C1692 C 0.66023 0.97752 0.14484 0.0
C1693 C 0.68228 0.96555 0.1259 0.0
C1694 C 0.64283 0.95474 0.15783 0.0
C1695 C 0.64273 0.99815 0.12957 0.0
C1696 C 0.64517 0.02394 0.14112 0.0
C1697 C 0.62965 0.04603 0.13189 0.0
C1698 C 0.61107 0.04162 0.11042 0.0
C1699 C 0.60836 0.01547 0.09827 0.0
C1700 C 0.6245 0.9935 0.10777 0.0
H1701 H 0.03206 0.6537 0.21725 0.0
H1702 H 0.96846 0.70916 0.18966 0.0
H1703 H 0.96633 0.68459 0.14539 0.0
H1704 H 0.06481 0.64241 0.15177 0.0
H1705 H 0.0705 0.60648 0.15804 0.0
H1706 H 0.0691 0.63008 0.18659 0.0
H1707 H 0.03101 0.60111 0.20913 0.0
H1708 H 0.03229 0.57746 0.18063 0.0
H1709 H 1.00066 0.5937 0.18973 0.0
H1710 H 0.97066 0.65378 0.10418 0.0
H1711 H 0.97919 0.61712 0.07009 0.0
H1712 H 0.03588 0.57862 0.12661 0.0
C1713 C 0.01746 0.66072 0.20213 0.0
C1714 C 1.00057 0.68371 0.20721 0.0
C1715 C 0.9822 0.69219 0.1863 0.0
C1716 C 0.98062 0.67817 0.16108 0.0
C1717 C 0.99722 0.65542 0.15711 0.0
C1718 C 0.01511 0.64658 0.17714 0.0
C1719 C 0.02951 0.62055 0.16836 0.0
C1720 C 0.0603 0.62517 0.16605 0.0
C1721 C 0.02297 0.59681 0.18814 0.0
C1722 C 0.01682 0.61608 0.14025 0.0
C1723 C 0.99856 0.63668 0.134 0.0
C1724 C 0.9848 0.63747 0.10889 0.0
C1725 C 0.98982 0.61663 0.08967 0.0
C1726 C 0.00804 0.59505 0.09588 0.0
C1727 C 0.0216 0.59473 0.12154 0.0
H1728 H 0.37877 0.99327 0.80014 0.0
H1729 H 0.30869 0.03245 0.83786 0.0
H1730 H 0.33229 0.0327 0.88257 0.0
H1731 H 0.3993 0.95194 0.8589 0.0
H1732 H 0.43504 0.95738 0.85322 0.0
H1733 H 0.41186 0.95785 0.82445 0.0
H1734 H 0.42887 0.00622 0.81089 0.0
H1735 H 0.45208 0.00589 0.83962 0.0
H1736 H 0.4279 0.03338 0.83608 0.0
H1737 H 0.36365 0.0303 0.92289 0.0
H1738 H 0.40126 0.02648 0.95608 0.0
H1739 H 0.45261 0.99192 0.89198 0.0
C1740 C 0.36829 1.00197 0.81771 0.0
C1741 C 0.34157 0.0126 0.81523 0.0
C1742 C 0.32875 0.0235 0.83907 0.0
C1743 C 0.34211 0.02398 0.86462 0.0
C1744 C 0.36845 0.01373 0.86613 0.0
C1745 C 0.38149 1.00301 0.84334 0.0
C1746 C 0.41037 0.9946 0.85035 0.0
C1747 C 0.41437 0.9636 0.8465 0.0
C1748 C 0.43102 0.01101 0.83322 0.0
C1749 C 0.41154 1.00249 0.88062 0.0
C1750 C 0.38701 0.01321 0.8893 0.0
C1751 C 0.38294 0.02189 0.91635 0.0
C1752 C 0.40447 0.01956 0.93508 0.0
C1753 C 0.42995 0.00888 0.9267 0.0
C1754 C 0.43346 1.0003 0.89902 0.0
H1755 H 1.00424 0.31776 0.83626 0.0
H1756 H 0.07462 0.3486 0.79262 0.0
H1757 H 0.08437 0.38005 0.83127 0.0
H1758 H 0.98199 0.38015 0.86029 0.0
H1759 H 0.97047 0.36877 0.8937 0.0
H1760 H 0.97146 0.34514 0.86523 0.0
H1761 H 1.00199 0.31228 0.89349 0.0
H1762 H 1.00083 0.33572 0.92225 0.0
H1763 H 0.03308 0.32492 0.90841 0.0
H1764 H 0.08237 0.4128 0.86992 0.0
H1765 H 0.07042 0.44357 0.90845 0.0
H1766 H 1.00197 0.39172 0.92908 0.0
C1767 C 0.02227 0.3304 0.83549 0.0
C1768 C 0.03902 0.33055 0.81178 0.0
C1769 C 0.06186 0.34804 0.81083 0.0
C1770 C 0.06751 0.36593 0.83265 0.0
C1771 C 0.05014 0.36605 0.85536 0.0
C1772 C 0.02815 0.34856 0.85719 0.0
C1773 C 0.01137 0.35478 0.88279 0.0
C1774 C 0.9821 0.36268 0.87502 0.0
C1775 C 0.01186 0.33048 0.90293 0.0
C1776 C 0.0268 0.3791 0.89441 0.0
C1777 C 0.04921 0.38505 0.87827 0.0
C1778 C 0.06528 0.40799 0.8831 0.0
C1779 C 0.05827 0.42542 0.90489 0.0
C1780 C 0.03553 0.41974 0.92177 0.0
C1781 C 0.01981 0.39607 0.91678 0.0
H1782 H 0.71701 0.05198 0.86384 0.0
H1783 H 0.70487 0.98406 0.80704 0.0
H1784 H 0.66312 0.97165 0.83191 0.0
H1785 H 0.69699 0.01372 0.92448 0.0
H1786 H 0.68162 0.04305 0.94083 0.0
H1787 H 0.70964 0.04764 0.91741 0.0
H1788 H 0.68051 0.0811 0.88821 0.0
H1789 H 0.65241 0.0764 0.9115 0.0
H1790 H 0.6481 0.06993 0.87512 0.0
H1791 H 0.6212 0.96773 0.86229 0.0
H1792 H 0.58575 0.96967 0.89861 0.0
H1793 H 0.62897 0.03593 0.93868 0.0
C1794 C 0.70606 0.03416 0.85668 0.0
C1795 C 0.71454 0.0193 0.83301 0.0
C1796 C 0.69877 0.99647 0.82446 0.0
C1797 C 0.67502 0.98902 0.83866 0.0
C1798 C 0.66743 1.00418 0.86179 0.0
C1799 C 0.68277 0.02598 0.87101 0.0
C1800 C 0.67098 0.03817 0.89719 0.0
C1801 C 0.691 0.03547 0.92141 0.0
C1802 C 0.6625 0.06817 0.89272 0.0
C1803 C 0.64648 0.01992 0.90118 0.0
C1804 C 0.6445 1.0007 0.88031 0.0
C1805 C 0.62276 0.98246 0.87891 0.0
C1806 C 0.6027 0.98376 0.89951 0.0
C1807 C 0.60489 1.00273 0.92148 0.0
C1808 C 0.62709 0.02096 0.92229 0.0
H1809 H 0.95847 0.6836 0.83974 0.0
H1810 H 0.04002 0.71535 0.82961 0.0
H1811 H 0.05777 0.6783 0.85955 0.0
H1812 H 0.96392 0.66389 0.91027 0.0
H1813 H 0.9443 0.63299 0.90643 0.0
H1814 H 0.93824 0.66163 0.88384 0.0
H1815 H 0.94641 0.63043 0.84135 0.0
H1816 H 0.95274 0.60174 0.86385 0.0
H1817 H 0.97776 0.61155 0.83859 0.0
H1818 H 0.06603 0.63966 0.89314 0.0
H1819 H 0.06442 0.60076 0.92603 0.0
H1820 H 0.97796 0.59266 0.91213 0.0
C1821 C 0.98006 0.68271 0.84388 0.0
C1822 C 0.99793 0.70235 0.83255 0.0
C1823 C 0.02607 0.7004 0.83805 0.0
C1824 C 0.03629 0.67949 0.85504 0.0
C1825 C 0.01811 0.66048 0.86598 0.0
C1826 C 0.99062 0.66173 0.86042 0.0
C1827 C 0.97543 0.63871 0.87461 0.0
C1828 C 0.95423 0.64999 0.895 0.0
C1829 C 0.96231 0.61948 0.85332 0.0
C1830 C 0.99856 0.62467 0.88958 0.0
C1831 C 0.02303 0.63755 0.88434 0.0
C1832 C 0.04707 0.62915 0.897 0.0
C1833 C 0.04602 0.6071 0.91556 0.0
C1834 C 0.0212 0.59364 0.92095 0.0
C1835 C 0.99724 0.60238 0.90773 0.0
H1836 H 0.16956 0.30365 0.98697 0.0
H1837 H 0.23076 0.33252 0.04469 0.0
H1838 H 0.20505 0.37549 0.05053 0.0
H1839 H 0.15346 0.36777 0.95551 0.0
H1840 H 0.11761 0.36077 0.95336 0.0
H1841 H 0.14164 0.33297 0.95247 0.0
H1842 H 0.11741 0.31014 0.99402 0.0
H1843 H 0.09328 0.33785 0.995 0.0
H1844 H 0.11261 0.32936 0.02543 0.0
H1845 H 0.17264 0.41576 0.04962 0.0
H1846 H 0.13498 0.44879 0.04408 0.0
H1847 H 0.09303 0.39149 0.99063 0.0
C1848 C 0.17756 0.31871 1.00118 0.0
C1849 C 0.20242 0.31442 0.01532 0.0
C1850 C 0.21216 0.33527 0.03315 0.0
C1851 C 0.19755 0.35975 0.03679 0.0
C1852 C 0.17305 0.36302 0.02274 0.0
C1853 C 0.16303 0.34294 0.00548 0.0
C1854 C 0.13575 0.35101 0.99348 0.0
C1855 C 0.13722 0.35326 0.96183 0.0
C1856 C 0.11345 0.3309 0.00253 0.0
C1857 C 0.13192 0.37882 0.0067 0.0
C1858 C 0.15383 0.38553 0.02324 0.0
C1859 C 0.15533 0.41061 0.03687 0.0
C1860 C 0.1339 0.42926 0.03354 0.0
C1861 C 0.11106 0.42258 0.01707 0.0
C1862 C 0.11007 0.39696 0.00362 0.0
H1863 H 0.17153 0.70406 0.96498 0.0
H1864 H 0.22121 0.69149 0.03817 0.0
H1865 H 0.19303 0.65179 0.05063 0.0
H1866 H 0.10776 0.68932 0.99918 0.0
H1867 H 0.09317 0.67323 0.96915 0.0
H1868 H 0.11815 0.69985 0.9651 0.0
H1869 H 0.1477 0.66725 0.93544 0.0
H1870 H 0.12282 0.64056 0.93946 0.0
H1871 H 0.15759 0.63446 0.94929 0.0
H1872 H 0.16036 0.61201 0.05419 0.0
H1873 H 0.12371 0.57756 0.05032 0.0
H1874 H 0.09198 0.61954 0.97838 0.0
C1875 C 0.17644 0.69344 0.98394 0.0
C1876 C 0.19903 0.70123 1.00039 0.0
C1877 C 0.20465 0.68589 0.02465 0.0
C1878 C 0.18852 0.66335 0.03213 0.0
C1879 C 0.16644 0.65652 0.01549 0.0
C1880 C 0.16017 0.67135 0.99209 0.0
C1881 C 0.13481 0.66032 0.9782 0.0
C1882 C 0.11213 0.68197 0.9779 0.0
C1883 C 0.14112 0.65004 0.94886 0.0
C1884 C 0.12787 0.63679 0.99734 0.0
C1885 C 0.14659 0.63476 0.01855 0.0
C1886 C 0.14538 0.61369 0.03793 0.0
C1887 C 0.12456 0.59423 0.03557 0.0
C1888 C 0.1049 0.59627 0.01436 0.0
C1889 C 0.10646 0.61794 0.99513 0.0
H1890 H 0.38559 0.22056 0.02413 0.0
H1891 H 0.31088 0.18302 0.99486 0.0
H1892 H 0.33328 0.13811 0.9949 0.0
H1893 H 0.42868 0.18102 0.98002 0.0
H1894 H 0.45599 0.17857 0.00465 0.0
H1895 H 0.43353 0.20768 0.0053 0.0
H1896 H 0.42195 0.19796 0.05672 0.0
H1897 H 0.44494 0.16929 0.05596 0.0
H1898 H 0.41018 0.16437 0.06651 0.0
H1899 H 0.36378 0.0974 0.99643 0.0
H1900 H 0.40078 0.06364 0.99824 0.0
H1901 H 0.45709 0.12768 0.02263 0.0
C1902 C 0.3738 0.20303 0.01765 0.0
C1903 C 0.34615 0.20568 0.00982 0.0
C1904 C 0.33173 0.1818 0.00179 0.0
C1905 C 0.34438 0.15609 1.00144 0.0
C1906 C 0.37164 0.15442 0.00881 0.0
C1907 C 0.38626 0.17722 0.01662 0.0
C1908 C 0.41579 0.16997 0.02193 0.0
C1909 C 0.4346 0.18522 0.00177 0.0
C1910 C 0.42365 0.17574 0.05209 0.0
C1911 C 0.41539 0.13949 0.01596 0.0
C1912 C 0.38964 0.13098 0.00863 0.0
C1913 C 0.38403 0.1038 0.0022 0.0
C1914 C 0.40525 0.08475 0.00335 0.0
C1915 C 0.43194 0.0929 0.01065 0.0
C1916 C 0.43699 0.12075 0.01692 0.0
H1917 H 0.8153 0.36119 0.98625 0.0
H1918 H 0.84005 0.30146 0.04801 0.0
H1919 H 0.88465 0.32389 0.05101 0.0
H1920 H 0.87988 0.37226 0.95336 0.0
H1921 H 0.87488 0.40868 0.94996 0.0
H1922 H 0.84606 0.386 0.95001 0.0
H1923 H 0.82499 0.41316 0.99068 0.0
H1924 H 0.85373 0.43591 0.99067 0.0
H1925 H 0.84443 0.41803 0.02183 0.0
H1926 H 0.92693 0.35365 0.04782 0.0
H1927 H 0.96132 0.39003 0.04155 0.0
H1928 H 0.90639 0.43369 0.98717 0.0
C1929 C 0.82975 0.35272 1.00072 0.0
C1930 C 0.82358 0.32915 0.01681 0.0
C1931 C 0.84397 0.31888 0.03482 0.0
C1932 C 0.86947 0.3317 0.03691 0.0
C1933 C 0.87438 0.35515 0.02124 0.0
C1934 C 0.85494 0.36572 0.00373 0.0
C1935 C 0.86443 0.39235 0.99071 0.0
C1936 C 0.86643 0.38964 0.95914 0.0
C1937 C 0.84578 0.41627 0.99898 0.0
C1938 C 0.89229 0.39517 0.00369 0.0
C1939 C 0.89787 0.37323 0.02084 0.0
C1940 C 0.92266 0.37096 0.03456 0.0
C1941 C 0.94211 0.39169 0.03081 0.0
C1942 C 0.93649 0.41475 0.01398 0.0
C1943 C 0.91119 0.41643 1.00031 0.0
H1944 H 0.71686 0.85547 0.96596 0.0
H1945 H 0.70409 0.80239 0.03694 0.0
H1946 H 0.66333 0.82891 0.04907 0.0
H1947 H 0.69894 0.91792 0.00209 0.0
H1948 H 0.68349 0.93322 0.97208 0.0
H1949 H 0.71086 0.90907 0.96804 0.0
H1950 H 0.68057 0.87938 0.93616 0.0
H1951 H 0.65309 0.90337 0.94022 0.0
H1952 H 0.64804 0.86775 0.9485 0.0
H1953 H 0.62248 0.86037 0.05243 0.0
H1954 H 0.5876 0.89679 0.04918 0.0
H1955 H 0.63045 0.93265 0.9799 0.0
C1956 C 0.70598 0.84948 0.98439 0.0
C1957 C 0.71401 0.82636 1.00022 0.0
C1958 C 0.69834 0.81935 0.02381 0.0
C1959 C 0.67516 0.83452 0.03111 0.0
C1960 C 0.66804 0.85708 0.01502 0.0
C1961 C 0.68325 0.86479 0.99241 0.0
C1962 C 0.67188 0.8905 0.97911 0.0
C1963 C 0.69252 0.91407 0.98042 0.0
C1964 C 0.66286 0.8849 0.94923 0.0
C1965 C 0.64773 0.89597 0.99769 0.0
C1966 C 0.64563 0.87621 0.01805 0.0
C1967 C 0.62414 0.87611 0.03679 0.0
C1968 C 0.60441 0.89678 0.03475 0.0
C1969 C 0.60658 0.91757 0.0145 0.0
C1970 C 0.62861 0.9172 0.99585 0.0
H1971 H 0.80959 0.64651 0.02831 0.0
H1972 H 0.83666 0.70672 0.96813 0.0
H1973 H 0.88021 0.68252 0.96411 0.0
H1974 H 0.87411 0.63399 0.06111 0.0
H1975 H 0.86864 0.59767 0.06459 0.0
H1976 H 0.84011 0.62077 0.06444 0.0
H1977 H 0.8188 0.5938 0.02382 0.0
H1978 H 0.8473 0.57066 0.02383 0.0
H1979 H 0.83819 0.58866 0.99267 0.0
H1980 H 0.9209 0.65177 0.96604 0.0
H1981 H 0.95532 0.61571 0.97278 0.0
H1982 H 0.90088 0.57281 0.02836 0.0
C1983 C 0.82447 0.65467 0.01409 0.0
C1984 C 0.81937 0.67897 0.99877 0.0
C1985 C 0.83995 0.68875 0.98077 0.0
C1986 C 0.8648 0.67493 0.97808 0.0
C1987 C 0.86889 0.65102 0.99321 0.0
C1988 C 0.84926 0.64083 0.01074 0.0
C1989 C 0.85847 0.61406 0.02378 0.0
C1990 C 0.86045 0.6168 0.05535 0.0
C1991 C 0.83956 0.5904 0.01552 0.0
C1992 C 0.88635 0.61083 0.01081 0.0
C1993 C 0.892 0.63257 0.99344 0.0
C1994 C 0.91667 0.63464 0.97955 0.0
C1995 C 0.93613 0.61407 0.98358 0.0
C1996 C 0.93079 0.59142 1.00107 0.0
C1997 C 0.90543 0.58973 0.01468 0.0
H1998 H 0.37885 0.79485 0.03261 0.0
H1999 H 0.31707 0.82533 0.97613 0.0
H2000 H 0.34025 0.86969 0.97459 0.0
H2001 H 0.39257 0.85769 0.06911 0.0
H2002 H 0.42873 0.8522 0.07038 0.0
H2003 H 0.40599 0.82334 0.06949 0.0
H2004 H 0.43074 0.80467 0.02618 0.0
H2005 H 0.45354 0.83347 0.02702 0.0
H2006 H 0.43428 0.82629 0.99622 0.0
H2007 H 0.37002 0.91089 0.97853 0.0
H2008 H 0.40626 0.94504 0.98497 0.0
H2009 H 0.45183 0.88685 0.03444 0.0
C2010 C 0.37009 0.81059 0.01968 0.0
C2011 C 0.34556 0.80615 0.00483 0.0
C2012 C 0.33512 0.82797 0.98856 0.0
C2013 C 0.34836 0.85336 0.98726 0.0
C2014 C 0.37244 0.85677 0.0019 0.0
C2015 C 0.38343 0.83592 0.01755 0.0
C2016 C 0.41053 0.8445 0.02986 0.0
C2017 C 0.40937 0.84443 0.06159 0.0
C2018 C 0.43364 0.82614 0.01918 0.0
C2019 C 0.41298 0.87343 0.01864 0.0
C2020 C 0.39054 0.88015 0.00289 0.0
C2021 C 0.38773 0.90583 0.99074 0.0
C2022 C 0.40841 0.92515 0.99463 0.0
C2023 C 0.43191 0.91865 0.01019 0.0
C2024 C 0.4342 0.89236 0.02229 0.0
H2025 H 0.68791 0.18701 0.06427 0.0
H2026 H 0.72479 0.18786 0.98304 0.0
H2027 H 0.69054 0.15439 0.96668 0.0
H2028 H 0.67211 0.11672 0.06704 0.0
H2029 H 0.63992 0.121 0.0842 0.0
H2030 H 0.66638 0.14593 0.08906 0.0
H2031 H 0.63399 0.1845 0.07275 0.0
H2032 H 0.60734 0.15968 0.06805 0.0
H2033 H 0.61727 0.18149 0.03978 0.0
H2034 H 0.65523 0.11687 0.96092 0.0
H2035 H 0.6184 0.08248 0.96461 0.0
H2036 H 0.6022 0.10873 0.04843 0.0
C2037 C 0.6885 0.1804 0.04293 0.0
C2038 C 0.70898 0.18998 0.02486 0.0
C2039 C 0.70914 0.18093 0.9971 0.0
C2040 C 0.68985 0.16183 0.98771 0.0
C2041 C 0.67023 0.15237 0.00621 0.0
C2042 C 0.6691 0.16176 0.03311 0.0
C2043 C 0.64601 0.14837 0.04888 0.0
C2044 C 0.65676 0.13204 0.07376 0.0
C2045 C 0.6249 0.16979 0.05789 0.0
C2046 C 0.63464 0.12953 0.02685 0.0
C2047 C 0.64905 0.13196 0.00244 0.0
C2048 C 0.64351 0.11524 0.97974 0.0
C2049 C 0.62265 0.09574 0.98202 0.0
C2050 C 0.60732 0.09342 0.0066 0.0
C2051 C 0.61332 0.1106 0.02923 0.0
H2052 H 0.5271 0.68533 0.82626 0.0
H2053 H 0.45089 0.71958 0.85488 0.0
H2054 H 0.44454 0.68007 0.88588 0.0
H2055 H 0.50602 0.61142 0.83082 0.0
H2056 H 0.53903 0.60081 0.8428 0.0
H2057 H 0.5359 0.62976 0.8199 0.0
H2058 H 0.56187 0.65987 0.85513 0.0
H2059 H 0.56489 0.63113 0.87816 0.0
H2060 H 0.54947 0.66246 0.89006 0.0
H2061 H 0.44923 0.64141 0.91801 0.0
H2062 H 0.46385 0.60369 0.94849 0.0
H2063 H 0.53624 0.5923 0.89887 0.0
C2064 C 0.50876 0.68398 0.83851 0.0
C2065 C 0.48943 0.70537 0.83825 0.0
C2066 C 0.46593 0.70337 0.85494 0.0
C2067 C 0.46209 0.68099 0.87248 0.0
C2068 C 0.48185 0.66062 0.87295 0.0
C2069 C 0.50461 0.66165 0.85626 0.0
C2070 C 0.52368 0.63802 0.86256 0.0
C2071 C 0.52631 0.61886 0.83752 0.0
C2072 C 0.55162 0.64851 0.87204 0.0
C2073 C 0.50851 0.62424 0.88601 0.0
C2074 C 0.48432 0.63759 0.89145 0.0
C2075 C 0.46781 0.6304 0.91362 0.0
C2076 C 0.47632 0.60912 0.93087 0.0
C2077 C 0.50094 0.59515 0.9257 0.0
C2078 C 0.51705 0.60243 0.90277 0.0
H2079 H 0.37493 0.54365 0.80698 0.0
H2080 H 0.32039 0.47555 0.82329 0.0
H2081 H 0.34588 0.46509 0.86571 0.0
H2082 H 0.43575 0.50772 0.82838 0.0
H2083 H 0.45123 0.53796 0.84274 0.0
H2084 H 0.42787 0.54096 0.81429 0.0
H2085 H 0.39858 0.57479 0.84283 0.0
H2086 H 0.4218 0.57176 0.87139 0.0
H2087 H 0.38625 0.56457 0.87633 0.0
H2088 H 0.37635 0.46318 0.9077 0.0
H2089 H 0.41204 0.46739 0.94348 0.0
H2090 H 0.44957 0.53305 0.89691 0.0
C2091 C 0.36843 0.52621 0.81906 0.0
C2092 C 0.34524 0.51068 0.81156 0.0
C2093 C 0.33749 0.48838 0.82865 0.0
C2094 C 0.35203 0.48206 0.85278 0.0
C2095 C 0.37463 0.49787 0.85944 0.0
C2096 C 0.38303 0.51924 0.84286 0.0
C2097 C 0.40856 0.53249 0.85414 0.0
C2098 C 0.43225 0.5296 0.83367 0.0
C2099 C 0.40348 0.56269 0.86161 0.0
C2100 C 0.41315 0.5153 0.87975 0.0
C2101 C 0.39312 0.49569 0.88266 0.0
C2102 C 0.3923 0.47824 0.90545 0.0
C2103 C 0.41254 0.48082 0.92568 0.0
C2104 C 0.43359 0.50031 0.9227 0.0
C2105 C 0.43391 0.51767 0.89939 0.0
H2106 H 0.50114 0.31653 0.84148 0.0
H2107 H 0.55705 0.3555 0.78472 0.0
H2108 H 0.56966 0.38894 0.82075 0.0
H2109 H 0.47587 0.3765 0.86996 0.0
H2110 H 0.47259 0.36424 0.90491 0.0
H2111 H 0.47097 0.3405 0.87655 0.0
H2112 H 0.51021 0.3122 0.89782 0.0
H2113 H 0.51176 0.33578 0.92644 0.0
H2114 H 0.54176 0.32889 0.90628 0.0
H2115 H 0.57145 0.42152 0.85949 0.0
H2116 H 0.56372 0.45099 0.90001 0.0
H2117 H 0.50729 0.39154 0.93337 0.0
C2118 C 0.51671 0.33157 0.83712 0.0
C2119 C 0.52852 0.33332 0.81056 0.0
C2120 C 0.5481 0.35375 0.80508 0.0
C2121 C 0.55536 0.37277 0.8254 0.0
C2122 C 0.54284 0.37107 0.85114 0.0
C2123 C 0.52408 0.35091 0.85725 0.0
C2124 C 0.51197 0.35537 0.8858 0.0
C2125 C 0.48102 0.3594 0.88419 0.0
C2126 C 0.51938 0.33165 0.90524 0.0
C2127 C 0.5262 0.38164 0.8943 0.0
C2128 C 0.54406 0.39011 0.87399 0.0
C2129 C 0.55795 0.41485 0.87578 0.0
C2130 C 0.55331 0.43154 0.89877 0.0
C2131 C 0.53506 0.42347 0.91981 0.0
C2132 C 0.52171 0.39793 0.91781 0.0
H2133 H 0.66341 0.48387 0.80367 0.0
H2134 H 0.72268 0.54594 0.82609 0.0
H2135 H 0.69749 0.55478 0.86911 0.0
H2136 H 0.60496 0.52217 0.82798 0.0
H2137 H 0.58739 0.49191 0.83957 0.0
H2138 H 0.61067 0.48983 0.81098 0.0
H2139 H 0.63728 0.45164 0.83642 0.0
H2140 H 0.61429 0.45385 0.86524 0.0
H2141 H 0.65024 0.45804 0.87064 0.0
H2142 H 0.66676 0.55522 0.91115 0.0
H2143 H 0.63088 0.54989 0.94656 0.0
H2144 H 0.58926 0.49177 0.89385 0.0
C2145 C 0.67102 0.49972 0.81722 0.0
C2146 C 0.69538 0.51398 0.81126 0.0
C2147 C 0.70457 0.53412 0.83022 0.0
C2148 C 0.69023 0.53952 0.85471 0.0
C2149 C 0.66643 0.52498 0.85984 0.0
C2150 C 0.65669 0.50578 0.84142 0.0
C2151 C 0.63025 0.49341 0.85144 0.0
C2152 C 0.60694 0.49972 0.83129 0.0
C2153 C 0.63321 0.4624 0.85622 0.0
C2154 C 0.6267 0.50858 0.87845 0.0
C2155 C 0.64797 0.52643 0.88314 0.0
C2156 C 0.64986 0.54156 0.9075 0.0
C2157 C 0.62946 0.53834 0.92752 0.0
C2158 C 0.60725 0.52057 0.92279 0.0
C2159 C 0.60583 0.50573 0.89783 0.0
H2160 H 0.49777 0.29785 0.1518 0.0
H2161 H 0.55068 0.32488 0.21824 0.0
H2162 H 0.55784 0.36863 0.19377 0.0
H2163 H 0.53873 0.32564 0.09688 0.0
H2164 H 0.50986 0.33462 0.07588 0.0
H2165 H 0.50781 0.30606 0.09932 0.0
H2166 H 0.46549 0.32773 0.12245 0.0
H2167 H 0.46742 0.35636 0.0991 0.0
H2168 H 0.4675 0.36211 0.13586 0.0
H2169 H 0.55851 0.40987 0.16223 0.0
H2170 H 0.5544 0.44443 0.12518 0.0
H2171 H 0.50461 0.38844 0.07758 0.0
C2172 C 0.51124 0.31267 0.16119 0.0
C2173 C 0.52366 0.30766 0.18711 0.0
C2174 C 0.54052 0.3282 0.19871 0.0
C2175 C 0.5449 0.35308 0.18484 0.0
C2176 C 0.53255 0.35705 0.15924 0.0
C2177 C 0.51625 0.3373 0.14743 0.0
C2178 C 0.5059 0.34625 0.11937 0.0
C2179 C 0.5162 0.327 0.09652 0.0
C2180 C 0.47473 0.34823 0.1192 0.0
C2181 C 0.51884 0.37425 0.11722 0.0
C2182 C 0.53393 0.38022 0.14055 0.0
C2183 C 0.54694 0.40532 0.1438 0.0
C2184 C 0.54442 0.42483 0.1227 0.0
C2185 C 0.52934 0.419 0.09848 0.0
C2186 C 0.51658 0.39328 0.09569 0.0
H2187 H 0.71202 0.47784 0.17589 0.0
H2188 H 0.68096 0.54065 0.23058 0.0
H2189 H 0.64764 0.55449 0.19509 0.0
H2190 H 0.70084 0.51629 0.10921 0.0
H2191 H 0.69061 0.4857 0.09118 0.0
H2192 H 0.71491 0.4836 0.11894 0.0
H2193 H 0.68446 0.44799 0.14363 0.0
H2194 H 0.66 0.45018 0.11614 0.0
H2195 H 0.64965 0.45654 0.15126 0.0
H2196 H 0.61384 0.55698 0.15755 0.0
H2197 H 0.58247 0.54974 0.11856 0.0
H2198 H 0.63506 0.48599 0.08648 0.0
C2199 C 0.69883 0.49515 0.17981 0.0
C2200 C 0.69926 0.50863 0.20564 0.0
C2201 C 0.68111 0.53049 0.21069 0.0
C2202 C 0.66215 0.53842 0.19069 0.0
C2203 C 0.66161 0.52428 0.16571 0.0
C2204 C 0.67961 0.50328 0.15999 0.0
C2205 C 0.67297 0.48995 0.13243 0.0
C2206 C 0.69622 0.49415 0.11171 0.0
C2207 C 0.66638 0.45936 0.1361 0.0
C2208 C 0.64794 0.50613 0.12408 0.0
C2209 C 0.64194 0.52592 0.14358 0.0
C2210 C 0.61861 0.54195 0.14186 0.0
C2211 C 0.60084 0.53757 0.11976 0.0
C2212 C 0.60651 0.51749 0.09951 0.0
C2213 C 0.63059 0.50185 0.10144 0.0
H2214 H 0.47933 0.64838 0.21998 0.0
H2215 H 0.50052 0.72404 0.1777 0.0
H2216 H 0.51671 0.69756 0.13806 0.0
H2217 H 0.53412 0.60582 0.19261 0.0
H2218 H 0.51285 0.57612 0.18822 0.0
H2219 H 0.50543 0.60054 0.2151 0.0
H2220 H 0.45673 0.6066 0.19581 0.0
H2221 H 0.46399 0.58214 0.16898 0.0
H2222 H 0.45215 0.61595 0.16009 0.0
H2223 H 0.52863 0.66419 0.10224 0.0
H2224 H 0.53303 0.62551 0.07035 0.0
H2225 H 0.50149 0.57055 0.13327 0.0
C2226 C 0.4874 0.65946 0.20246 0.0
C2227 C 0.48911 0.68848 0.20251 0.0
C2228 C 0.49982 0.70192 0.17892 0.0
C2229 C 0.50891 0.68704 0.15606 0.0
C2230 C 0.50691 0.65866 0.15676 0.0
C2231 C 0.49622 0.64491 0.17914 0.0
C2232 C 0.49466 0.61432 0.17348 0.0
C2233 C 0.51285 0.59826 0.19355 0.0
C2234 C 0.46513 0.60417 0.17466 0.0
C2235 C 0.50577 0.61324 0.14426 0.0
C2236 C 0.513 0.6391 0.13531 0.0
C2237 C 0.52308 0.64382 0.10896 0.0
C2238 C 0.52537 0.62163 0.09095 0.0
C2239 C 0.51742 0.59493 0.09918 0.0
C2240 C 0.50793 0.59064 0.12643 0.0
H2241 H 0.30845 0.48146 0.1476 0.0
H2242 H 0.34138 0.51899 0.22171 0.0
H2243 H 0.38581 0.5234 0.1988 0.0
H2244 H 0.368 0.44391 0.12768 0.0
H2245 H 0.36366 0.45008 0.09124 0.0
H2246 H 0.33449 0.44905 0.11364 0.0
H2247 H 0.32023 0.49741 0.09704 0.0
H2248 H 0.34933 0.49853 0.07453 0.0
H2249 H 0.34405 0.5253 0.09959 0.0
H2250 H 0.42682 0.52367 0.16808 0.0
H2251 H 0.46113 0.52131 0.1312 0.0
H2252 H 0.40136 0.48571 0.07591 0.0
C2253 C 0.32489 0.49083 0.15902 0.0
C2254 C 0.32125 0.49962 0.1867 0.0
C2255 C 0.34358 0.51148 0.2008 0.0
C2256 C 0.36893 0.51429 0.18786 0.0
C2257 C 0.37173 0.50535 0.16068 0.0
C2258 C 0.3503 0.49401 0.14633 0.0
C2259 C 0.35864 0.48656 0.11708 0.0
C2260 C 0.35604 0.45556 0.11213 0.0
C2261 C 0.34208 0.50293 0.0958 0.0
C2262 C 0.38815 0.49545 0.11726 0.0
C2263 C 0.39528 0.50609 0.1427 0.0
C2264 C 0.42146 0.51538 0.14809 0.0
C2265 C 0.44087 0.51382 0.12696 0.0
C2266 C 0.43407 0.50323 0.10057 0.0
C2267 C 0.40724 0.494 0.09576 0.0
H2268 H 0.87705 0.48522 0.72022 0.0
H2269 H 0.81472 0.54181 0.69219 0.0
H2270 H 0.84024 0.54896 0.64899 0.0
H2271 H 0.93364 0.5247 0.69433 0.0
H2272 H 0.95315 0.49481 0.68516 0.0
H2273 H 0.92937 0.49328 0.71337 0.0
H2274 H 0.90557 0.45208 0.69011 0.0
H2275 H 0.9289 0.4537 0.66153 0.0
H2276 H 0.8929 0.45546 0.65534 0.0
H2277 H 0.87204 0.54891 0.60818 0.0
H2278 H 0.90876 0.54337 0.57385 0.0
H2279 H 0.95248 0.49077 0.63071 0.0
C2280 C 0.86881 0.49948 0.7053 0.0
C2281 C 0.84365 0.51286 0.70982 0.0
C2282 C 0.83357 0.53082 0.68919 0.0
C2283 C 0.84807 0.53523 0.66463 0.0
C2284 C 0.87283 0.52187 0.66109 0.0
C2285 C 0.88324 0.50456 0.68097 0.0
C2286 C 0.91056 0.49308 0.67237 0.0
C2287 C 0.933 0.50201 0.69251 0.0
C2288 C 0.90939 0.46172 0.66969 0.0
C2289 C 0.9139 0.5066 0.64445 0.0
C2290 C 0.89176 0.52289 0.6382 0.0
C2291 C 0.88957 0.53641 0.61297 0.0
C2292 C 0.91046 0.53307 0.5936 0.0
C2293 C 0.93344 0.51669 0.59971 0.0
C2294 C 0.93528 0.5036 0.62562 0.0
H2295 H 0.49124 0.79768 0.65536 0.0
H2296 H 0.55027 0.81945 0.71834 0.0
H2297 H 0.55756 0.86385 0.69529 0.0
H2298 H 0.52924 0.82714 0.59831 0.0
H2299 H 0.49901 0.83793 0.58039 0.0
H2300 H 0.4981 0.80819 0.60236 0.0
H2301 H 0.45834 0.82969 0.62994 0.0
H2302 H 0.45936 0.85963 0.60827 0.0
H2303 H 0.46249 0.86311 0.64518 0.0
H2304 H 0.55661 0.90717 0.66633 0.0
H2305 H 0.55143 0.94339 0.63088 0.0
H2306 H 0.49645 0.89109 0.58499 0.0
C2307 C 0.50616 0.8114 0.66417 0.0
C2308 C 0.51993 0.80489 0.68899 0.0
C2309 C 0.53887 0.82399 0.6998 0.0
C2310 C 0.54332 0.84928 0.68674 0.0
C2311 C 0.52905 0.85506 0.66259 0.0
C2312 C 0.51123 0.83643 0.65116 0.0
C2313 C 0.49895 0.84724 0.62464 0.0
C2314 C 0.50681 0.82904 0.59997 0.0
C2315 C 0.46795 0.85008 0.62718 0.0
C2316 C 0.51253 0.87496 0.623 0.0
C2317 C 0.52956 0.87929 0.64526 0.0
C2318 C 0.54354 0.90388 0.64868 0.0
C2319 C 0.54035 0.92438 0.62858 0.0
C2320 C 0.52367 0.91992 0.60521 0.0
C2321 C 0.50956 0.89492 0.60253 0.0
H2322 H 0.16397 0.48742 0.72051 0.0
H2323 H 0.22746 0.53948 0.68672 0.0
H2324 H 0.20316 0.54114 0.64252 0.0
H2325 H 0.14748 0.45029 0.65815 0.0
H2326 H 0.11146 0.45054 0.66462 0.0
H2327 H 0.13495 0.45111 0.69312 0.0
H2328 H 0.11227 0.49534 0.71166 0.0
H2329 H 0.08873 0.49489 0.68321 0.0
H2330 H 0.10933 0.52476 0.68936 0.0
H2331 H 0.17206 0.53808 0.60214 0.0
H2332 H 0.13473 0.53253 0.56881 0.0
H2333 H 0.08888 0.48634 0.62957 0.0
C2334 C 0.17286 0.49934 0.704 0.0
C2335 C 0.19807 0.51302 0.70739 0.0
C2336 C 0.20875 0.52805 0.68476 0.0
C2337 C 0.19493 0.52938 0.65951 0.0
C2338 C 0.17015 0.51595 0.6571 0.0
C2339 C 0.15904 0.5014 0.67876 0.0
C2340 C 0.13131 0.49013 0.67109 0.0
C2341 C 0.13131 0.45865 0.67179 0.0
C2342 C 0.1091 0.50199 0.68995 0.0
C2343 C 0.12857 0.50076 0.64178 0.0
C2344 C 0.15143 0.51529 0.63408 0.0
C2345 C 0.15405 0.52678 0.60793 0.0
C2346 C 0.13274 0.52342 0.58911 0.0
C2347 C 0.10889 0.50899 0.59657 0.0
C2348 C 0.10679 0.49761 0.62335 0.0
H2349 H 0.53665 0.14797 0.72364 0.0
H2350 H 0.49612 0.21804 0.68647 0.0
H2351 H 0.4963 0.19457 0.64165 0.0
H2352 H 0.57768 0.12816 0.66471 0.0
H2353 H 0.5728 0.09199 0.67019 0.0
H2354 H 0.57206 0.11521 0.6991 0.0
H2355 H 0.52437 0.09731 0.71265 0.0
H2356 H 0.525 0.07404 0.68381 0.0
H2357 H 0.4974 0.09801 0.6875 0.0
H2358 H 0.49974 0.16353 0.60097 0.0
H2359 H 0.50364 0.1257 0.56766 0.0
H2360 H 0.53815 0.07386 0.63158 0.0
C2361 C 0.52772 0.15848 0.70619 0.0
C2362 C 0.51675 0.18523 0.70885 0.0
C2363 C 0.50547 0.19802 0.68514 0.0
C2364 C 0.50523 0.18474 0.6595 0.0
C2365 C 0.516 0.15844 0.65777 0.0
C2366 C 0.52684 0.14531 0.68048 0.0
C2367 C 0.53556 0.11634 0.67327 0.0
C2368 C 0.56636 0.11272 0.67704 0.0
C2369 C 0.51963 0.09518 0.69032 0.0
C2370 C 0.5277 0.11525 0.64301 0.0
C2371 C 0.51682 0.13992 0.63446 0.0
C2372 C 0.5082 0.1441 0.60742 0.0
C2373 C 0.51056 0.12244 0.58862 0.0
C2374 C 0.5211 0.09671 0.59697 0.0
C2375 C 0.52985 0.09319 0.62458 0.0
H2376 H 0.88168 0.51306 0.29588 0.0
H2377 H 0.80956 0.47771 0.33346 0.0
H2378 H 0.83206 0.47877 0.3787 0.0
H2379 H 0.92827 0.47214 0.33521 0.0
H2380 H 0.95354 0.4987 0.33775 0.0
H2381 H 0.93099 0.49772 0.3085 0.0
H2382 H 0.91561 0.54755 0.31875 0.0
H2383 H 0.93846 0.54843 0.34774 0.0
H2384 H 0.90297 0.55602 0.35265 0.0
H2385 H 0.8625 0.48262 0.41993 0.0
H2386 H 0.89946 0.48707 0.45387 0.0
H2387 H 0.95337 0.51608 0.3892 0.0
C2388 C 0.87049 0.50537 0.31346 0.0
C2389 C 0.84348 0.49561 0.31073 0.0
C2390 C 0.82984 0.4861 0.33472 0.0
C2391 C 0.84258 0.48634 0.36063 0.0
C2392 C 0.86919 0.49576 0.36237 0.0
C2393 C 0.8831 0.5049 0.33942 0.0
C2394 C 0.91212 0.51244 0.34671 0.0
C2395 C 0.93242 0.49416 0.33112 0.0
C2396 C 0.91758 0.54294 0.34113 0.0
C2397 C 0.91228 0.50626 0.37741 0.0
C2398 C 0.88721 0.49686 0.38601 0.0
C2399 C 0.88222 0.48995 0.41343 0.0
C2400 C 0.90338 0.49264 0.43259 0.0
C2401 C 0.9294 0.50192 0.42429 0.0
C2402 C 0.9338 0.50878 0.39624 0.0
H2403 H 0.49247 0.86745 0.3018 0.0
H2404 H 0.51752 0.78945 0.33656 0.0
H2405 H 0.52267 0.81139 0.38226 0.0
H2406 H 0.54029 0.90787 0.33874 0.0
H2407 H 0.51762 0.93653 0.34308 0.0
H2408 H 0.51394 0.91425 0.31371 0.0
H2409 H 0.46372 0.90529 0.32701 0.0
H2410 H 0.46728 0.92762 0.35637 0.0
H2411 H 0.45578 0.89291 0.36114 0.0
H2412 H 0.52673 0.84247 0.42386 0.0
H2413 H 0.52926 0.87999 0.45792 0.0
H2414 H 0.50352 0.93778 0.39492 0.0
C2415 C 0.49911 0.8549 0.31895 0.0
C2416 C 0.50461 0.82666 0.3155 0.0
C2417 C 0.51281 0.811 0.3387 0.0
C2418 C 0.51597 0.82333 0.36471 0.0
C2419 C 0.51088 0.85132 0.36717 0.0
C2420 C 0.5026 0.86689 0.3449 0.0
C2421 C 0.49937 0.89674 0.35268 0.0
C2422 C 0.51898 0.91491 0.33607 0.0
C2423 C 0.46978 0.90618 0.34909 0.0
C2424 C 0.50729 0.8956 0.38283 0.0
C2425 C 0.51371 0.86923 0.39087 0.0
C2426 C 0.52167 0.86319 0.41779 0.0
C2427 C 0.52302 0.88466 0.437 0.0
C2428 C 0.51665 0.9119 0.42914 0.0
C2429 C 0.50872 0.91727 0.40162 0.0
H2430 H 0.21773 0.45834 0.36291 0.0
H2431 H 0.20584 0.52812 0.30833 0.0
H2432 H 0.16375 0.53948 0.33298 0.0
H2433 H 0.14878 0.43969 0.37264 0.0
H2434 H 0.15244 0.43217 0.40889 0.0
H2435 H 0.18103 0.42833 0.38603 0.0
H2436 H 0.20936 0.46109 0.41671 0.0
H2437 H 0.1809 0.46479 0.43976 0.0
H2438 H 0.19631 0.49469 0.42459 0.0
H2439 H 0.12137 0.54212 0.36243 0.0
H2440 H 0.08542 0.5392 0.39811 0.0
H2441 H 0.12817 0.47189 0.43707 0.0
C2442 C 0.20673 0.47632 0.35621 0.0
C2443 C 0.21534 0.49191 0.33305 0.0
C2444 C 0.1996 0.51505 0.3252 0.0
C2445 C 0.17564 0.52192 0.3393 0.0
C2446 C 0.1678 0.50594 0.36174 0.0
C2447 C 0.18317 0.48395 0.37051 0.0
C2448 C 0.17097 0.47091 0.3961 0.0
C2449 C 0.16282 0.44101 0.39057 0.0
C2450 C 0.19055 0.47301 0.42075 0.0
C2451 C 0.14622 0.48889 0.40022 0.0
C2452 C 0.1445 0.5087 0.3799 0.0
C2453 C 0.12271 0.52691 0.37863 0.0
C2454 C 0.10235 0.52504 0.39884 0.0
C2455 C 0.10425 0.50551 0.42034 0.0
C2456 C 0.12648 0.48724 0.421 0.0
H2457 H 0.52086 0.21523 0.37161 0.0
H2458 H 0.49805 0.17463 0.2952 0.0
H2459 H 0.50061 0.13001 0.3186 0.0
H2460 H 0.5669 0.1627 0.39699 0.0
H2461 H 0.55628 0.16651 0.4324 0.0
H2462 H 0.55469 0.19533 0.40923 0.0
H2463 H 0.50356 0.20132 0.42031 0.0
H2464 H 0.505 0.1725 0.44346 0.0
H2465 H 0.48082 0.17281 0.41554 0.0
H2466 H 0.50366 0.08995 0.35035 0.0
H2467 H 0.5068 0.05692 0.38855 0.0
H2468 H 0.52585 0.12329 0.44516 0.0
C2469 C 0.51642 0.197 0.35973 0.0
C2470 C 0.50956 0.19861 0.33137 0.0
C2471 C 0.50405 0.17408 0.3167 0.0
C2472 C 0.50522 0.14857 0.32987 0.0
C2473 C 0.51178 0.1478 0.35781 0.0
C2474 C 0.51728 0.17131 0.37262 0.0
C2475 C 0.52278 0.16477 0.40273 0.0
C2476 C 0.5519 0.1728 0.4108 0.0
C2477 C 0.50179 0.17868 0.42162 0.0
C2478 C 0.51923 0.13394 0.40253 0.0
C2479 C 0.51307 0.1246 0.37635 0.0
C2480 C 0.5086 0.09699 0.37093 0.0
C2481 C 0.51047 0.07836 0.39285 0.0
C2482 C 0.51663 0.08739 0.41999 0.0
C2483 C 0.52107 0.11563 0.42474 0.0
H2484 H 0.67566 0.80917 0.46354 0.0
H2485 H 0.71413 0.81018 0.54422 0.0
H2486 H 0.68578 0.84972 0.5575 0.0
H2487 H 0.66913 0.88231 0.4557 0.0
H2488 H 0.63643 0.88052 0.4391 0.0
H2489 H 0.66011 0.85259 0.43561 0.0
H2490 H 0.62394 0.81894 0.4544 0.0
H2491 H 0.60016 0.84677 0.45793 0.0
H2492 H 0.60822 0.82564 0.48734 0.0
H2493 H 0.65243 0.88875 0.56257 0.0
H2494 H 0.61694 0.92441 0.55863 0.0
H2495 H 0.59957 0.89826 0.4751 0.0
C2496 C 0.67805 0.81752 0.4841 0.0
C2497 C 0.69738 0.80638 0.50277 0.0
C2498 C 0.69993 0.81841 0.5293 0.0
C2499 C 0.68373 0.84083 0.53714 0.0
C2500 C 0.66492 0.85115 0.51829 0.0
C2501 C 0.66198 0.8399 0.4923 0.0
C2502 C 0.64013 0.85482 0.47598 0.0
C2503 C 0.65218 0.86836 0.45007 0.0
C2504 C 0.61673 0.83538 0.46848 0.0
C2505 C 0.63113 0.87616 0.49689 0.0
C2506 C 0.64577 0.8737 0.52115 0.0
C2507 C 0.64109 0.89099 0.54357 0.0
C2508 C 0.6211 0.91139 0.54109 0.0
C2509 C 0.60609 0.91448 0.51643 0.0
C2510 C 0.61098 0.89644 0.49413 0.0
H2511 H 0.66606 0.20728 0.54498 0.0
H2512 H 0.723 0.18745 0.47926 0.0
H2513 H 0.69805 0.14471 0.47046 0.0
H2514 H 0.65372 0.13999 0.56963 0.0
H2515 H 0.61792 0.14536 0.57509 0.0
H2516 H 0.64107 0.17378 0.57737 0.0
H2517 H 0.6133 0.20004 0.54042 0.0
H2518 H 0.58998 0.17175 0.53816 0.0
H2519 H 0.60675 0.1841 0.50752 0.0
H2520 H 0.66754 0.10277 0.46997 0.0
H2521 H 0.6315 0.06776 0.47478 0.0
H2522 H 0.59148 0.11789 0.53642 0.0
C2523 C 0.67326 0.19441 0.52835 0.0
C2524 C 0.69698 0.20112 0.51309 0.0
C2525 C 0.70552 0.18285 0.49196 0.0
C2526 C 0.69127 0.15849 0.48655 0.0
C2527 C 0.6681 0.15272 0.50201 0.0
C2528 C 0.65891 0.1704 0.52217 0.0
C2529 C 0.6328 0.16004 0.53512 0.0
C2530 C 0.63662 0.15446 0.56614 0.0
C2531 C 0.60932 0.18018 0.52999 0.0
C2532 C 0.62879 0.13364 0.51918 0.0
C2533 C 0.6496 0.12957 0.50047 0.0
C2534 C 0.651 0.10595 0.48432 0.0
C2535 C 0.63053 0.08613 0.48726 0.0
C2536 C 0.60865 0.09028 0.50576 0.0
C2537 C 0.60778 0.11441 0.52182 0.0
H2538 H 0.83743 0.68497 0.48188 0.0
H2539 H 0.85727 0.72042 0.56143 0.0
H2540 H 0.8888 0.68229 0.57072 0.0
H2541 H 0.84258 0.61154 0.5043 0.0
H2542 H 0.85762 0.6009 0.4721 0.0
H2543 H 0.83423 0.6293 0.47278 0.0
H2544 H 0.87035 0.65999 0.44938 0.0
H2545 H 0.89392 0.6318 0.44887 0.0
H2546 H 0.90329 0.66361 0.46516 0.0
H2547 H 0.92217 0.64431 0.56927 0.0
H2548 H 0.9533 0.60607 0.55863 0.0
H2549 H 0.91165 0.5925 0.48099 0.0
C2550 C 0.84781 0.68415 0.50157 0.0
C2551 C 0.84477 0.70562 0.52105 0.0
C2552 C 0.85924 0.70421 0.54629 0.0
C2553 C 0.8772 0.68261 0.55174 0.0
C2554 C 0.88047 0.66229 0.53185 0.0
C2555 C 0.86597 0.66254 0.5074 0.0
C2556 C 0.87461 0.63874 0.48903 0.0
C2557 C 0.85084 0.61895 0.48428 0.0
C2558 C 0.88623 0.64917 0.46148 0.0
C2559 C 0.89661 0.62558 0.50671 0.0
C2560 C 0.89956 0.63963 0.53132 0.0
C2561 C 0.91974 0.63285 0.55031 0.0
C2562 C 0.93738 0.61118 0.54407 0.0
C2563 C 0.93463 0.59621 0.51922 0.0
C2564 C 0.9138 0.60332 0.50038 0.0
H2565 H 0.30789 0.86595 0.53294 0.0
H2566 H 0.34028 0.79985 0.48241 0.0
H2567 H 0.38432 0.82303 0.48104 0.0
H2568 H 0.34165 0.91954 0.49455 0.0
H2569 H 0.34755 0.9407 0.52444 0.0
H2570 H 0.31873 0.91803 0.52353 0.0
H2571 H 0.3347 0.89549 0.56915 0.0
H2572 H 0.36362 0.91804 0.57014 0.0
H2573 H 0.3685 0.88147 0.57132 0.0
H2574 H 0.4251 0.85273 0.48493 0.0
H2575 H 0.45925 0.88893 0.49095 0.0
H2576 H 0.40022 0.93864 0.53488 0.0
C2577 C 0.32404 0.85627 0.52138 0.0
C2578 C 0.32026 0.83048 0.50827 0.0
C2579 C 0.34245 0.81891 0.49358 0.0
C2580 C 0.36766 0.83211 0.49238 0.0
C2581 C 0.37055 0.8573 0.50547 0.0
C2582 C 0.34932 0.8695 0.5194 0.0
C2583 C 0.35766 0.89742 0.53045 0.0
C2584 C 0.34036 0.92027 0.51746 0.0
C2585 C 0.35602 0.89813 0.56215 0.0
C2586 C 0.38691 0.89887 0.52059 0.0
C2587 C 0.39391 0.87529 0.5065 0.0
C2588 C 0.41984 0.87133 0.49584 0.0
C2589 C 0.43917 0.89203 0.49952 0.0
C2590 C 0.43252 0.91668 0.51345 0.0
C2591 C 0.40592 0.92012 0.52404 0.0
H2592 H 0.19794 0.33459 0.56564 0.0
H2593 H 0.21816 0.318 0.4801 0.0
H2594 H 0.18074 0.34845 0.46509 0.0
H2595 H 0.12432 0.33708 0.55589 0.0
H2596 H 0.11969 0.36416 0.58074 0.0
H2597 H 0.14736 0.34033 0.58462 0.0
H2598 H 0.18143 0.3807 0.58575 0.0
H2599 H 0.15388 0.40462 0.58182 0.0
H2600 H 0.18176 0.40499 0.55772 0.0
H2601 H 0.14333 0.38384 0.45954 0.0
H2602 H 0.10689 0.4186 0.46395 0.0
H2603 H 0.1094 0.41049 0.55295 0.0
C2604 C 0.19442 0.33727 0.54373 0.0
C2605 C 0.21109 0.32393 0.52401 0.0
C2606 C 0.20559 0.3278 0.49557 0.0
C2607 C 0.18444 0.34516 0.48687 0.0
C2608 C 0.16866 0.35828 0.50686 0.0
C2609 C 0.17318 0.35426 0.53472 0.0
C2610 C 0.1534 0.37085 0.55204 0.0
C2611 C 0.13511 0.35198 0.56934 0.0
C2612 C 0.16853 0.39151 0.57041 0.0
C2613 C 0.13732 0.38524 0.5296 0.0
C2614 C 0.1465 0.37777 0.50366 0.0
C2615 C 0.1357 0.38941 0.47973 0.0
C2616 C 0.11499 0.40906 0.48239 0.0
C2617 C 0.10505 0.41662 0.50869 0.0
C2618 C 0.11634 0.40456 0.53258 0.0
H2619 H 0.31181 0.14662 0.48891 0.0
H2620 H 0.33953 0.20901 0.54657 0.0
H2621 H 0.38359 0.18583 0.54962 0.0
H2622 H 0.34199 0.09076 0.52654 0.0
H2623 H 0.35012 0.07139 0.49596 0.0
H2624 H 0.32145 0.0943 0.49594 0.0
H2625 H 0.34111 0.11939 0.45327 0.0
H2626 H 0.36988 0.0966 0.45322 0.0
H2627 H 0.37504 0.13311 0.45473 0.0
H2628 H 0.42523 0.15585 0.54659 0.0
H2629 H 0.45953 0.11944 0.54074 0.0
H2630 H 0.40319 0.07329 0.49007 0.0
C2631 C 0.32679 0.15552 0.5025 0.0
C2632 C 0.32162 0.18026 0.51718 0.0
C2633 C 0.34265 0.19083 0.53423 0.0
C2634 C 0.36789 0.17756 0.53641 0.0
C2635 C 0.37197 0.15327 0.52191 0.0
C2636 C 0.35188 0.14212 0.50558 0.0
C2637 C 0.36092 0.11483 0.49352 0.0
C2638 C 0.34252 0.09144 0.5036 0.0
C2639 C 0.36179 0.11607 0.4618 0.0
C2640 C 0.38928 0.11241 0.5056 0.0
C2641 C 0.39537 0.13506 0.52157 0.0
C2642 C 0.42059 0.13798 0.53426 0.0
C2643 C 0.44001 0.11721 0.53072 0.0
C2644 C 0.43409 0.09345 0.51502 0.0
C2645 C 0.40827 0.09108 0.50237 0.0
H2646 H 0.87719 0.29715 0.48933 0.0
H2647 H 0.81236 0.32784 0.54194 0.0
H2648 H 0.83584 0.372 0.54539 0.0
H2649 H 0.93075 0.32784 0.52874 0.0
H2650 H 0.95165 0.33523 0.49911 0.0
H2651 H 0.92862 0.30661 0.49836 0.0
H2652 H 0.90624 0.32597 0.45405 0.0
H2653 H 0.92922 0.35464 0.45468 0.0
H2654 H 0.89309 0.36043 0.45412 0.0
H2655 H 0.86642 0.41291 0.54396 0.0
H2656 H 0.90326 0.4468 0.53977 0.0
H2657 H 0.95062 0.38864 0.49203 0.0
C2658 C 0.86782 0.31295 0.50174 0.0
C2659 C 0.84244 0.30865 0.51503 0.0
C2660 C 0.83119 0.33045 0.53074 0.0
C2661 C 0.84455 0.3557 0.53311 0.0
C2662 C 0.8695 0.35899 0.52003 0.0
C2663 C 0.88117 0.33818 0.50484 0.0
C2664 C 0.90893 0.34665 0.49411 0.0
C2665 C 0.9313 0.32797 0.50578 0.0
C2666 C 0.90939 0.34694 0.46235 0.0
C2667 C 0.91101 0.37544 0.50577 0.0
C2668 C 0.88785 0.38222 0.52035 0.0
C2669 C 0.88468 0.4078 0.53266 0.0
C2670 C 0.90572 0.42696 0.53008 0.0
C2671 C 0.9299 0.42041 0.51565 0.0
C2672 C 0.93251 0.3942 0.5034 0.0
H2673 H 0.22283 0.65181 0.47527 0.0
H2674 H 0.20366 0.70685 0.54318 0.0
H2675 H 0.16174 0.68093 0.5519 0.0
H2676 H 0.15588 0.63988 0.45126 0.0
H2677 H 0.16117 0.60401 0.44437 0.0
H2678 H 0.18928 0.62749 0.44255 0.0
H2679 H 0.21586 0.59817 0.47802 0.0
H2680 H 0.18787 0.57452 0.47982 0.0
H2681 H 0.20054 0.59032 0.51089 0.0
H2682 H 0.12064 0.65012 0.55203 0.0
H2683 H 0.08571 0.61425 0.54629 0.0
H2684 H 0.13417 0.57605 0.48222 0.0
C2685 C 0.21025 0.65834 0.49235 0.0
C2686 C 0.21686 0.68185 0.50828 0.0
C2687 C 0.19907 0.68957 0.53002 0.0
C2688 C 0.1752 0.67476 0.53537 0.0
C2689 C 0.16946 0.65186 0.51922 0.0
C2690 C 0.18669 0.64343 0.49843 0.0
C2691 C 0.17627 0.61755 0.48465 0.0
C2692 C 0.17029 0.62255 0.45389 0.0
C2693 C 0.19633 0.59373 0.48859 0.0
C2694 C 0.15033 0.61286 0.50082 0.0
C2695 C 0.14663 0.63312 0.52043 0.0
C2696 C 0.12351 0.634 0.53698 0.0
C2697 C 0.10374 0.61362 0.53349 0.0
C2698 C 0.10739 0.59233 0.51397 0.0
C2699 C 0.13109 0.59189 0.49756 0.0
loop_
_geom_bond_atom_site_label_1
_geom_bond_atom_site_label_2
_geom_bond_distance
_geom_bond_site_symmetry_2
_ccdc_geom_bond_type
H0 C1 0.949 . S
C1 H0 0.949 . S
C1 C2 1.395 . S
C1 C3 1.391 . S
C2 C1 1.395 . S
C2 C5 1.390 . S
C3 C1 1.391 . S
C3 C7 1.387 . S
C3 C8 1.491 1_455 S
H4 C5 0.950 . S
C5 C2 1.390 . S
C5 H4 0.950 . S
C5 C6 1.378 . S
C6 C5 1.378 . S
C6 C7 1.409 . S
C7 C3 1.387 . S
C7 C6 1.409 . S
C7 H9 0.951 . S
C8 C3 1.491 1_655 S
C8 C10 1.382 1_655 S
C8 C12 1.404 . S
H9 C7 0.951 . S
C10 C8 1.382 1_455 S
C10 C11 1.390 . S
C10 H15 0.949 . S
C11 C10 1.390 . S
C11 C16 1.399 1_455 S
C12 C8 1.404 . S
C12 H13 0.950 . S
C12 C14 1.375 . S
H13 C12 0.950 . S
C14 C12 1.375 . S
C14 C16 1.382 . S
C14 H18 0.950 . S
H15 C10 0.949 . S
C16 C11 1.399 1_655 S
C16 C14 1.382 . S
C16 H17 0.952 . S
H17 C16 0.952 . S
H18 C14 0.950 . S
H19 C20 0.949 . S
C20 H19 0.949 . S
C20 C21 1.395 . S
C20 C22 1.391 . S
C21 C20 1.395 . S
C21 C24 1.390 1_545 S
C22 C20 1.391 . S
C22 C26 1.387 . S
C22 C27 1.491 . S
H23 C24 0.950 . S
C24 C21 1.390 1_565 S
C24 H23 0.950 . S
C24 C25 1.377 1_565 S
C25 C24 1.377 1_545 S
C25 C26 1.413 . S
C26 C22 1.387 . S
C26 C25 1.413 . S
C26 H28 0.951 . S
C27 C22 1.491 . S
C27 C29 1.382 . S
C27 C31 1.404 . S
H28 C26 0.951 . S
C29 C27 1.382 . S
C29 C30 1.390 . S
C29 H34 0.949 1_545 S
C30 C29 1.390 . S
C30 C35 1.399 . S
C31 C27 1.404 . S
C31 H32 0.950 . S
C31 C33 1.375 . S
H32 C31 0.950 . S
C33 C31 1.375 . S
C33 C35 1.382 . S
C33 H37 0.950 . S
H34 C29 0.949 1_565 S
C35 C30 1.399 . S
C35 C33 1.382 . S
C35 H36 0.952 . S
H36 C35 0.952 . S
H37 C33 0.950 . S
H38 C39 0.949 . S
C39 H38 0.949 . S
C39 C40 1.395 . S
C39 C41 1.391 . S
C40 C39 1.395 . S
C40 C43 1.390 . S
C41 C39 1.391 . S
C41 C45 1.387 . S
C41 C46 1.484 1_455 S
H42 C43 0.950 . S
C43 C40 1.390 . S
C43 H42 0.950 . S
C43 C44 1.378 . S
C44 C43 1.378 . S
C44 C45 1.409 . S
C45 C41 1.387 . S
C45 C44 1.409 . S
C45 H47 0.951 . S
C46 C41 1.484 1_655 S
C46 C48 1.366 1_655 S
C46 C50 1.428 . S
H47 C45 0.951 . S
C48 C46 1.366 1_455 S
C48 C49 1.390 . S
C48 H53 0.949 . S
C49 C48 1.390 . S
C49 C54 1.399 1_455 S
C50 C46 1.428 . S
C50 H51 0.950 . S
C50 C52 1.375 . S
H51 C50 0.950 . S
C52 C50 1.375 . S
C52 C54 1.382 . S
C52 H56 0.950 . S
H53 C48 0.949 . S
C54 C49 1.399 1_655 S
C54 C52 1.382 . S
C54 H55 0.952 . S
H55 C54 0.952 . S
H56 C52 0.950 . S
H57 C58 0.949 . S
C58 H57 0.949 . S
C58 C59 1.394 . S
C58 C60 1.391 . S
C59 C58 1.394 . S
C59 C62 1.390 1_565 S
C60 C58 1.391 . S
C60 C64 1.387 . S
C60 C65 1.491 . S
H61 C62 0.950 . S
C62 C59 1.390 1_545 S
C62 H61 0.950 . S
C62 C63 1.377 1_545 S
C63 C62 1.377 1_565 S
C63 C64 1.411 . S
C64 C60 1.387 . S
C64 C63 1.411 . S
C64 H66 0.951 . S
C65 C60 1.491 . S
C65 C67 1.382 . S
C65 C69 1.404 . S
H66 C64 0.951 . S
C67 C65 1.382 . S
C67 C68 1.390 . S
C67 H72 0.949 1_565 S
C68 C67 1.390 . S
C68 C73 1.399 . S
C69 C65 1.404 . S
C69 H70 0.950 . S
C69 C71 1.375 . S
H70 C69 0.950 . S
C71 C69 1.375 . S
C71 C73 1.382 . S
C71 H75 0.950 . S
H72 C67 0.949 1_545 S
C73 C68 1.399 . S
C73 C71 1.382 . S
C73 H74 0.952 . S
H74 C73 0.952 . S
H75 C71 0.950 . S
H76 C77 0.949 . S
C77 H76 0.949 . S
C77 C78 1.395 . S
C77 C79 1.391 . S
C78 C77 1.395 . S
C78 C81 1.390 . S
C79 C77 1.391 . S
C79 C83 1.387 . S
C79 C84 1.491 1_455 S
H80 C81 0.950 . S
C81 C78 1.390 . S
C81 H80 0.950 . S
C81 C82 1.378 . S
C82 C81 1.378 . S
C82 C83 1.409 . S
C83 C79 1.387 . S
C83 C82 1.409 . S
C83 H85 0.951 . S
C84 C79 1.491 1_655 S
C84 C86 1.382 1_655 S
C84 C88 1.404 . S
H85 C83 0.951 . S
C86 C84 1.382 1_455 S
C86 C87 1.390 . S
C86 H91 0.949 . S
C87 C86 1.390 . S
C87 C92 1.399 1_455 S
C88 C84 1.404 . S
C88 H89 0.950 . S
C88 C90 1.375 . S
H89 C88 0.950 . S
C90 C88 1.375 . S
C90 C92 1.382 . S
C90 H94 0.950 . S
H91 C86 0.949 . S
C92 C87 1.399 1_655 S
C92 C90 1.382 . S
C92 H93 0.952 . S
H93 C92 0.952 . S
H94 C90 0.950 . S
H95 C96 0.949 . S
C96 H95 0.949 . S
C96 C97 1.395 . S
C96 C98 1.391 . S
C97 C96 1.395 . S
C97 C100 1.389 1_545 S
C98 C96 1.391 . S
C98 C102 1.387 . S
C98 C103 1.491 . S
H99 C100 0.954 . S
C100 C97 1.389 1_565 S
C100 H99 0.954 . S
C100 C101 1.376 1_565 S
C101 C100 1.376 1_545 S
C101 C102 1.409 . S
C102 C98 1.387 . S
C102 C101 1.409 . S
C102 H104 0.951 . S
C103 C98 1.491 . S
C103 C105 1.382 . S
C103 C107 1.404 . S
H104 C102 0.951 . S
C105 C103 1.382 . S
C105 C106 1.390 . S
C105 H110 0.949 1_545 S
C106 C105 1.390 . S
C106 C111 1.399 . S
C107 C103 1.404 . S
C107 H108 0.950 . S
C107 C109 1.375 . S
H108 C107 0.950 . S
C109 C107 1.375 . S
C109 C111 1.382 . S
C109 H113 0.950 . S
H110 C105 0.949 1_565 S
C111 C106 1.399 . S
C111 C109 1.382 . S
C111 H112 0.952 . S
H112 C111 0.952 . S
H113 C109 0.950 . S
H114 C115 0.949 . S
C115 H114 0.949 . S
C115 C116 1.395 . S
C115 C117 1.391 . S
C116 C115 1.395 . S
C116 C119 1.390 . S
C117 C115 1.391 . S
C117 C121 1.387 . S
C117 C122 1.489 1_455 S
H118 C119 0.950 . S
C119 C116 1.390 . S
C119 H118 0.950 . S
C119 C120 1.378 . S
C120 C119 1.378 . S
C120 C121 1.409 . S
C121 C117 1.387 . S
C121 C120 1.409 . S
C121 H123 0.951 . S
C122 C117 1.489 1_655 S
C122 C124 1.377 1_655 S
C122 C126 1.410 . S
H123 C121 0.951 . S
C124 C122 1.377 1_455 S
C124 C125 1.390 . S
C124 H129 0.949 . S
C125 C124 1.390 . S
C125 C130 1.399 1_455 S
C126 C122 1.410 . S
C126 H127 0.950 . S
C126 C128 1.375 . S
H127 C126 0.950 . S
C128 C126 1.375 . S
C128 C130 1.382 . S
C128 H132 0.950 . S
H129 C124 0.949 . S
C130 C125 1.399 1_655 S
C130 C128 1.382 . S
C130 H131 0.952 . S
H131 C130 0.952 . S
H132 C128 0.950 . S
H133 C134 0.949 . S
C134 H133 0.949 . S
C134 C135 1.395 . S
C134 C136 1.391 . S
C135 C134 1.395 . S
C135 C138 1.388 1_545 S
C136 C134 1.391 . S
C136 C140 1.387 . S
C136 C141 1.491 . S
H137 C138 0.955 . S
C138 C135 1.388 1_565 S
C138 H137 0.955 . S
C138 C139 1.376 1_565 S
C139 C138 1.376 1_545 S
C139 C140 1.409 . S
C140 C136 1.387 . S
C140 C139 1.409 . S
C140 H142 0.951 . S
C141 C136 1.491 . S
C141 C143 1.382 . S
C141 C145 1.404 . S
H142 C140 0.951 . S
C143 C141 1.382 . S
C143 C144 1.390 . S
C143 H148 0.949 1_545 S
C144 C143 1.390 . S
C144 C149 1.399 . S
C145 C141 1.404 . S
C145 H146 0.950 . S
C145 C147 1.375 . S
H146 C145 0.950 . S
C147 C145 1.375 . S
C147 C149 1.382 . S
C147 H151 0.950 . S
H148 C143 0.949 1_565 S
C149 C144 1.399 . S
C149 C147 1.382 . S
C149 H150 0.952 . S
H150 C149 0.952 . S
H151 C147 0.950 . S
H152 C153 0.949 . S
C153 H152 0.949 . S
C153 C154 1.395 . S
C153 C155 1.391 . S
C154 C153 1.395 . S
C154 C157 1.390 . S
C155 C153 1.391 . S
C155 C159 1.387 . S
C155 C160 1.491 . S
H156 C157 0.950 . S
C157 C154 1.390 . S
C157 H156 0.950 . S
C157 C158 1.378 . S
C158 C157 1.378 . S
C158 C159 1.409 . S
C159 C155 1.387 . S
C159 C158 1.409 . S
C159 H161 0.951 . S
C160 C155 1.491 . S
C160 C162 1.382 . S
C160 C164 1.404 . S
H161 C159 0.951 . S
C162 C160 1.382 . S
C162 C163 1.390 . S
C162 H167 0.949 1_554 S
C163 C162 1.390 . S
C163 C168 1.399 . S
C164 C160 1.404 . S
C164 H165 0.950 . S
C164 C166 1.375 . S
H165 C164 0.950 . S
C166 C164 1.375 . S
C166 C168 1.382 . S
C166 H170 0.950 . S
H167 C162 0.949 1_556 S
C168 C163 1.399 . S
C168 C166 1.382 . S
C168 H169 0.952 . S
H169 C168 0.952 . S
H170 C166 0.950 . S
H171 C172 0.949 . S
C172 H171 0.949 . S
C172 C173 1.395 . S
C172 C174 1.393 . S
C173 C172 1.395 . S
C173 C176 1.390 . S
C174 C172 1.393 . S
C174 C178 1.389 . S
C174 C179 1.488 1_554 S
H175 C176 0.950 . S
C176 C173 1.390 . S
C176 H175 0.950 . S
C176 C177 1.378 . S
C177 C176 1.378 . S
C177 C178 1.409 . S
C178 C174 1.389 . S
C178 C177 1.409 . S
C178 H180 0.951 . S
C179 C174 1.488 1_556 S
C179 C181 1.382 1_556 S
C179 C183 1.404 . S
H180 C178 0.951 . S
C181 C179 1.382 1_554 S
C181 C182 1.385 1_554 S
C181 H186 0.949 . S
C182 C181 1.385 1_556 S
C182 C187 1.413 . S
C183 C179 1.404 . S
C183 H184 0.950 . S
C183 C185 1.375 . S
H184 C183 0.950 . S
C185 C183 1.375 . S
C185 C187 1.382 . S
C185 H189 0.950 . S
H186 C181 0.949 . S
C187 C182 1.413 . S
C187 C185 1.382 . S
C187 H188 0.952 . S
H188 C187 0.952 . S
H189 C185 0.950 . S
H190 C191 0.949 . S
C191 H190 0.949 . S
C191 C192 1.395 . S
C191 C193 1.391 . S
C192 C191 1.395 . S
C192 C195 1.390 . S
C193 C191 1.391 . S
C193 C197 1.387 . S
C193 C198 1.491 . S
H194 C195 0.950 . S
C195 C192 1.390 . S
C195 H194 0.950 . S
C195 C196 1.378 . S
C196 C195 1.378 . S
C196 C197 1.409 . S
C197 C193 1.387 . S
C197 C196 1.409 . S
C197 H199 0.951 . S
C198 C193 1.491 . S
C198 C200 1.382 . S
C198 C202 1.404 . S
H199 C197 0.951 . S
C200 C198 1.382 . S
C200 C201 1.390 . S
C200 H205 0.949 1_554 S
C201 C200 1.390 . S
C201 C206 1.399 . S
C202 C198 1.404 . S
C202 H203 0.950 . S
C202 C204 1.375 . S
H203 C202 0.950 . S
C204 C202 1.375 . S
C204 C206 1.382 . S
C204 H208 0.950 . S
H205 C200 0.949 1_556 S
C206 C201 1.399 . S
C206 C204 1.382 . S
C206 H207 0.952 . S
H207 C206 0.952 . S
H208 C204 0.950 . S
H209 C210 0.949 . S
C210 H209 0.949 . S
C210 C211 1.395 . S
C210 C212 1.392 . S
C211 C210 1.395 . S
C211 C214 1.390 . S
C212 C210 1.392 . S
C212 C216 1.388 . S
C212 C217 1.490 1_554 S
H213 C214 0.950 . S
C214 C211 1.390 . S
C214 H213 0.950 . S
C214 C215 1.378 . S
C215 C214 1.378 . S
C215 C216 1.409 . S
C216 C212 1.388 . S
C216 C215 1.409 . S
C216 H218 0.952 . S
C217 C212 1.490 1_556 S
C217 C219 1.382 1_556 S
C217 C221 1.404 . S
H218 C216 0.952 . S
C219 C217 1.382 1_554 S
C219 C220 1.390 . S
C219 H224 0.949 . S
C220 C219 1.390 . S
C220 C225 1.399 1_554 S
C221 C217 1.404 . S
C221 H222 0.950 . S
C221 C223 1.375 . S
H222 C221 0.950 . S
C223 C221 1.375 . S
C223 C225 1.382 . S
C223 H227 0.950 . S
H224 C219 0.949 . S
C225 C220 1.399 1_556 S
C225 C223 1.382 . S
C225 H226 0.952 . S
H226 C225 0.952 . S
H227 C223 0.950 . S
H228 C229 0.949 . S
C229 H228 0.949 . S
C229 C230 1.395 . S
C229 C231 1.391 . S
C230 C229 1.395 . S
C230 C233 1.390 . S
C231 C229 1.391 . S
C231 C235 1.387 . S
C231 C236 1.491 . S
H232 C233 0.950 . S
C233 C230 1.390 . S
C233 H232 0.950 . S
C233 C234 1.378 . S
C234 C233 1.378 . S
C234 C235 1.409 . S
C235 C231 1.387 . S
C235 C234 1.409 . S
C235 H237 0.951 . S
C236 C231 1.491 . S
C236 C238 1.382 . S
C236 C240 1.404 . S
H237 C235 0.951 . S
C238 C236 1.382 . S
C238 C239 1.390 . S
C238 H243 0.949 . S
C239 C238 1.390 . S
C239 C244 1.399 . S
C240 C236 1.404 . S
C240 H241 0.950 . S
C240 C242 1.375 . S
H241 C240 0.950 . S
C242 C240 1.375 . S
C242 C244 1.382 . S
C242 H246 0.950 . S
H243 C238 0.949 . S
C244 C239 1.399 . S
C244 C242 1.382 . S
C244 H245 0.952 . S
H245 C244 0.952 . S
H246 C242 0.950 . S
H247 C248 0.949 . S
C248 H247 0.949 . S
C248 C249 1.395 . S
C248 C250 1.391 . S
C249 C248 1.395 . S
C249 C252 1.390 . S
C250 C248 1.391 . S
C250 C254 1.387 . S
C250 C255 1.491 . S
H251 C252 0.950 . S
C252 C249 1.390 . S
C252 H251 0.950 . S
C252 C253 1.378 . S
C253 C252 1.378 . S
C253 C254 1.409 . S
C254 C250 1.387 . S
C254 C253 1.409 . S
C254 H256 0.951 . S
C255 C250 1.491 . S
C255 C257 1.382 . S
C255 C259 1.404 . S
H256 C254 0.951 . S
C257 C255 1.382 . S
C257 C258 1.390 . S
C257 H262 0.949 . S
C258 C257 1.390 . S
C258 C263 1.399 . S
C259 C255 1.404 . S
C259 H260 0.950 . S
C259 C261 1.375 . S
H260 C259 0.950 . S
C261 C259 1.375 . S
C261 C263 1.382 . S
C261 H265 0.950 . S
H262 C257 0.949 . S
C263 C258 1.399 . S
C263 C261 1.382 . S
C263 H264 0.952 . S
H264 C263 0.952 . S
H265 C261 0.950 . S
H266 C267 0.949 . S
C267 H266 0.949 . S
C267 C268 1.395 . S
C267 C269 1.391 . S
C268 C267 1.395 . S
C268 C271 1.390 . S
C269 C267 1.391 . S
C269 C273 1.387 . S
C269 C274 1.491 . S
H270 C271 0.950 . S
C271 C268 1.390 . S
C271 H270 0.950 . S
C271 C272 1.378 . S
C272 C271 1.378 . S
C272 C273 1.409 . S
C273 C269 1.387 . S
C273 C272 1.409 . S
C273 H275 0.951 . S
C274 C269 1.491 . S
C274 C276 1.382 . S
C274 C278 1.404 . S
H275 C273 0.951 . S
C276 C274 1.382 . S
C276 C277 1.390 . S
C276 H281 0.949 . S
C277 C276 1.390 . S
C277 C282 1.399 . S
C278 C274 1.404 . S
C278 H279 0.950 . S
C278 C280 1.375 . S
H279 C278 0.950 . S
C280 C278 1.375 . S
C280 C282 1.382 . S
C280 H284 0.950 . S
H281 C276 0.949 . S
C282 C277 1.399 . S
C282 C280 1.382 . S
C282 H283 0.952 . S
H283 C282 0.952 . S
H284 C280 0.950 . S
H285 C286 0.949 . S
C286 H285 0.949 . S
C286 C287 1.395 . S
C286 C288 1.391 . S
C287 C286 1.395 . S
C287 C290 1.390 . S
C288 C286 1.391 . S
C288 C292 1.387 . S
C288 C293 1.491 . S
H289 C290 0.950 . S
C290 C287 1.390 . S
C290 H289 0.950 . S
C290 C291 1.378 . S
C291 C290 1.378 . S
C291 C292 1.409 . S
C292 C288 1.387 . S
C292 C291 1.409 . S
C292 H294 0.951 . S
C293 C288 1.491 . S
C293 C295 1.382 . S
C293 C297 1.404 . S
H294 C292 0.951 . S
C295 C293 1.382 . S
C295 C296 1.390 . S
C295 H300 0.949 . S
C296 C295 1.390 . S
C296 C301 1.399 . S
C297 C293 1.404 . S
C297 H298 0.950 . S
C297 C299 1.375 . S
H298 C297 0.950 . S
C299 C297 1.375 . S
C299 C301 1.382 . S
C299 H303 0.950 . S
H300 C295 0.949 . S
C301 C296 1.399 . S
C301 C299 1.382 . S
C301 H302 0.952 . S
H302 C301 0.952 . S
H303 C299 0.950 . S
H304 C305 0.949 . S
C305 H304 0.949 . S
C305 C306 1.395 . S
C305 C307 1.391 . S
C306 C305 1.395 . S
C306 C309 1.390 . S
C307 C305 1.391 . S
C307 C311 1.387 . S
C307 C312 1.491 . S
H308 C309 0.950 . S
C309 C306 1.390 . S
C309 H308 0.950 . S
C309 C310 1.378 . S
C310 C309 1.378 . S
C310 C311 1.409 . S
C311 C307 1.387 . S
C311 C310 1.409 . S
C311 H313 0.951 . S
C312 C307 1.491 . S
C312 C314 1.382 . S
C312 C316 1.404 . S
H313 C311 0.951 . S
C314 C312 1.382 . S
C314 C315 1.390 . S
C314 H319 0.949 . S
C315 C314 1.390 . S
C315 C320 1.399 . S
C316 C312 1.404 . S
C316 H317 0.950 . S
C316 C318 1.375 . S
H317 C316 0.950 . S
C318 C316 1.375 . S
C318 C320 1.382 . S
C318 H322 0.950 . S
H319 C314 0.949 . S
C320 C315 1.399 . S
C320 C318 1.382 . S
C320 H321 0.952 . S
H321 C320 0.952 . S
H322 C318 0.950 . S
H323 C324 0.949 . S
C324 H323 0.949 . S
C324 C325 1.395 . S
C324 C326 1.391 . S
C325 C324 1.395 . S
C325 C328 1.390 . S
C326 C324 1.391 . S
C326 C330 1.387 . S
C326 C331 1.491 . S
H327 C328 0.950 . S
C328 C325 1.390 . S
C328 H327 0.950 . S
C328 C329 1.378 . S
C329 C328 1.378 . S
C329 C330 1.409 . S
C330 C326 1.387 . S
C330 C329 1.409 . S
C330 H332 0.951 . S
C331 C326 1.491 . S
C331 C333 1.382 . S
C331 C335 1.404 . S
H332 C330 0.951 . S
C333 C331 1.382 . S
C333 C334 1.390 . S
C333 H338 0.949 . S
C334 C333 1.390 . S
C334 C339 1.399 . S
C335 C331 1.404 . S
C335 H336 0.950 . S
C335 C337 1.375 . S
H336 C335 0.950 . S
C337 C335 1.375 . S
C337 C339 1.382 . S
C337 H341 0.950 . S
H338 C333 0.949 . S
C339 C334 1.399 . S
C339 C337 1.382 . S
C339 H340 0.952 . S
H340 C339 0.952 . S
H341 C337 0.950 . S
H342 C343 0.949 . S
C343 H342 0.949 . S
C343 C344 1.395 . S
C343 C345 1.391 . S
C344 C343 1.395 . S
C344 C347 1.390 . S
C345 C343 1.391 . S
C345 C349 1.387 . S
C345 C350 1.491 . S
H346 C347 0.950 . S
C347 C344 1.390 . S
C347 H346 0.950 . S
C347 C348 1.378 . S
C348 C347 1.378 . S
C348 C349 1.409 . S
C349 C345 1.387 . S
C349 C348 1.409 . S
C349 H351 0.951 . S
C350 C345 1.491 . S
C350 C352 1.382 . S
C350 C354 1.404 . S
H351 C349 0.951 . S
C352 C350 1.382 . S
C352 C353 1.390 . S
C352 H357 0.949 . S
C353 C352 1.390 . S
C353 C358 1.399 . S
C354 C350 1.404 . S
C354 H355 0.950 . S
C354 C356 1.375 . S
H355 C354 0.950 . S
C356 C354 1.375 . S
C356 C358 1.382 . S
C356 H360 0.950 . S
H357 C352 0.949 . S
C358 C353 1.399 . S
C358 C356 1.382 . S
C358 H359 0.952 . S
H359 C358 0.952 . S
H360 C356 0.950 . S
H361 C362 0.949 . S
C362 H361 0.949 . S
C362 C363 1.395 . S
C362 C364 1.391 . S
C363 C362 1.395 . S
C363 C366 1.390 . S
C364 C362 1.391 . S
C364 C368 1.387 . S
C364 C369 1.491 . S
H365 C366 0.950 . S
C366 C363 1.390 . S
C366 H365 0.950 . S
C366 C367 1.378 . S
C367 C366 1.378 . S
C367 C368 1.409 . S
C368 C364 1.387 . S
C368 C367 1.409 . S
C368 H370 0.951 . S
C369 C364 1.491 . S
C369 C371 1.382 . S
C369 C373 1.404 . S
H370 C368 0.951 . S
C371 C369 1.382 . S
C371 C372 1.390 . S
C371 H376 0.949 . S
C372 C371 1.390 . S
C372 C377 1.399 . S
C373 C369 1.404 . S
C373 H374 0.950 . S
C373 C375 1.375 . S
H374 C373 0.950 . S
C375 C373 1.375 . S
C375 C377 1.382 . S
C375 H379 0.950 . S
H376 C371 0.949 . S
C377 C372 1.399 . S
C377 C375 1.382 . S
C377 H378 0.952 . S
H378 C377 0.952 . S
H379 C375 0.950 . S
H380 C381 0.949 . S
C381 H380 0.949 . S
C381 C382 1.395 . S
C381 C383 1.391 . S
C382 C381 1.395 . S
C382 C385 1.390 . S
C383 C381 1.391 . S
C383 C387 1.387 . S
C383 C388 1.491 . S
H384 C385 0.950 . S
C385 C382 1.390 . S
C385 H384 0.950 . S
C385 C386 1.378 . S
C386 C385 1.378 . S
C386 C387 1.409 . S
C387 C383 1.387 . S
C387 C386 1.409 . S
C387 H389 0.951 . S
C388 C383 1.491 . S
C388 C390 1.382 . S
C388 C392 1.404 . S
H389 C387 0.951 . S
C390 C388 1.382 . S
C390 C391 1.390 . S
C390 H395 0.949 . S
C391 C390 1.390 . S
C391 C396 1.399 . S
C392 C388 1.404 . S
C392 H393 0.950 . S
C392 C394 1.375 . S
H393 C392 0.950 . S
C394 C392 1.375 . S
C394 C396 1.382 . S
C394 H398 0.950 . S
H395 C390 0.949 . S
C396 C391 1.399 . S
C396 C394 1.382 . S
C396 H397 0.952 . S
H397 C396 0.952 . S
H398 C394 0.950 . S
H399 C400 0.949 . S
C400 H399 0.949 . S
C400 C401 1.395 . S
C400 C402 1.391 . S
C401 C400 1.395 . S
C401 C404 1.390 . S
C402 C400 1.391 . S
C402 C406 1.387 . S
C402 C407 1.491 . S
H403 C404 0.950 . S
C404 C401 1.390 . S
C404 H403 0.950 . S
C404 C405 1.378 . S
C405 C404 1.378 . S
C405 C406 1.409 . S
C406 C402 1.387 . S
C406 C405 1.409 . S
C406 H408 0.951 . S
C407 C402 1.491 . S
C407 C409 1.382 . S
C407 C411 1.404 . S
H408 C406 0.951 . S
C409 C407 1.382 . S
C409 C410 1.390 . S
C409 H414 0.949 . S
C410 C409 1.390 . S
C410 C415 1.399 . S
C411 C407 1.404 . S
C411 H412 0.950 . S
C411 C413 1.375 . S
H412 C411 0.950 . S
C413 C411 1.375 . S
C413 C415 1.382 . S
C413 H417 0.950 . S
H414 C409 0.949 . S
C415 C410 1.399 . S
C415 C413 1.382 . S
C415 H416 0.952 . S
H416 C415 0.952 . S
H417 C413 0.950 . S
H418 C419 0.949 . S
C419 H418 0.949 . S
C419 C420 1.395 . S
C419 C421 1.391 . S
C420 C419 1.395 . S
C420 C423 1.390 . S
C421 C419 1.391 . S
C421 C425 1.387 . S
C421 C426 1.491 . S
H422 C423 0.950 . S
C423 C420 1.390 . S
C423 H422 0.950 . S
C423 C424 1.378 . S
C424 C423 1.378 . S
C424 C425 1.409 . S
C425 C421 1.387 . S
C425 C424 1.409 . S
C425 H427 0.951 . S
C426 C421 1.491 . S
C426 C428 1.382 . S
C426 C430 1.404 . S
H427 C425 0.951 . S
C428 C426 1.382 . S
C428 C429 1.390 . S
C428 H433 0.949 . S
C429 C428 1.390 . S
C429 C434 1.399 . S
C430 C426 1.404 . S
C430 H431 0.950 . S
C430 C432 1.375 . S
H431 C430 0.950 . S
C432 C430 1.375 . S
C432 C434 1.382 . S
C432 H436 0.950 . S
H433 C428 0.949 . S
C434 C429 1.399 . S
C434 C432 1.382 . S
C434 H435 0.952 . S
H435 C434 0.952 . S
H436 C432 0.950 . S
H437 C438 0.949 . S
C438 H437 0.949 . S
C438 C439 1.395 . S
C438 C440 1.391 . S
C439 C438 1.395 . S
C439 C442 1.390 . S
C440 C438 1.391 . S
C440 C444 1.387 . S
C440 C445 1.491 . S
H441 C442 0.950 . S
C442 C439 1.390 . S
C442 H441 0.950 . S
C442 C443 1.378 . S
C443 C442 1.378 . S
C443 C444 1.409 . S
C444 C440 1.387 . S
C444 C443 1.409 . S
C444 H446 0.951 . S
C445 C440 1.491 . S
C445 C447 1.382 . S
C445 C449 1.404 . S
H446 C444 0.951 . S
C447 C445 1.382 . S
C447 C448 1.390 . S
C447 H452 0.949 . S
C448 C447 1.390 . S
C448 C453 1.399 . S
C449 C445 1.404 . S
C449 H450 0.950 . S
C449 C451 1.375 . S
H450 C449 0.950 . S
C451 C449 1.375 . S
C451 C453 1.382 . S
C451 H455 0.950 . S
H452 C447 0.949 . S
C453 C448 1.399 . S
C453 C451 1.382 . S
C453 H454 0.952 . S
H454 C453 0.952 . S
H455 C451 0.950 . S
C456 O482 1.283 . S
C456 O500 1.283 . S
C457 O483 1.283 . S
C457 O498 1.283 . S
C458 O484 1.283 . S
C458 O501 1.283 . S
C459 O485 1.283 . S
C459 O499 1.283 . S
C460 O486 1.283 . S
C460 O495 1.283 . S
C461 O487 1.283 . S
C461 O497 1.283 . S
C462 O488 1.283 . S
C462 O494 1.283 . S
C463 O489 1.283 . S
C463 O496 1.283 . S
C464 O490 1.283 . S
C464 O505 1.283 . S
C465 O491 1.283 . S
C465 O503 1.283 . S
C466 O492 1.283 . S
C466 O504 1.283 . S
C467 O493 1.283 . S
C467 O502 1.283 . S
Eu468 O469 2.370 1_455 S
Eu468 O470 2.370 . S
Eu468 O473 2.370 1_455 S
Eu468 O474 2.370 . S
Eu468 O482 2.363 . S
Eu468 O483 2.363 . S
Eu468 O496 2.363 . S
Eu468 O497 2.363 1_455 S
O469 Eu468 2.370 1_655 S
O469 Eu471 2.359 1_565 S
O469 Eu476 2.361 1_665 S
O470 Eu468 2.370 . S
O470 Eu472 2.359 1_565 S
O470 Eu475 2.358 1_565 S
Eu471 O469 2.359 1_545 S
Eu471 O473 2.359 1_545 S
Eu471 O477 2.381 . S
Eu471 O478 2.381 . S
Eu471 O486 2.381 . S
Eu471 O487 2.345 1_545 S
Eu471 O502 2.363 . S
Eu471 O503 2.363 . S
Eu472 O470 2.359 1_545 S
Eu472 O474 2.359 1_545 S
Eu472 O479 2.381 . S
Eu472 O480 2.381 . S
Eu472 O488 2.381 . S
Eu472 O489 2.345 1_545 S
Eu472 O504 2.363 . S
Eu472 O505 2.363 . S
O473 Eu468 2.370 1_655 S
O473 Eu471 2.359 1_565 S
O473 Eu475 2.358 1_665 S
O474 Eu468 2.370 . S
O474 Eu472 2.359 1_565 S
O474 Eu476 2.361 1_565 S
Eu475 O470 2.358 1_545 S
Eu475 O473 2.358 1_445 S
Eu475 O477 2.382 1_455 S
Eu475 O480 2.382 . S
Eu475 O492 2.363 . S
Eu475 O493 2.363 1_455 S
Eu475 O500 2.342 1_545 S
Eu475 O501 2.384 . S
Eu476 O469 2.361 1_445 S
Eu476 O474 2.361 1_545 S
Eu476 O478 2.380 1_455 S
Eu476 O479 2.380 . S
Eu476 O490 2.363 . S
Eu476 O491 2.363 1_455 S
Eu476 O498 2.347 1_545 S
Eu476 O499 2.379 . S
O477 Eu471 2.381 . S
O477 Eu475 2.382 1_655 S
O477 Eu481 2.370 1_655 S
O478 Eu471 2.381 . S
O478 Eu476 2.380 1_655 S
O478 Eu481 2.370 1_655 S
O479 Eu472 2.381 . S
O479 Eu476 2.380 . S
O479 Eu481 2.370 . S
O480 Eu472 2.381 . S
O480 Eu475 2.382 . S
O480 Eu481 2.370 . S
Eu481 O477 2.370 1_455 S
Eu481 O478 2.370 1_455 S
Eu481 O479 2.370 . S
Eu481 O480 2.370 . S
Eu481 O484 2.363 . S
Eu481 O485 2.363 . S
Eu481 O494 2.363 . S
Eu481 O495 2.363 1_455 S
O482 C456 1.283 . S
O482 Eu468 2.363 . S
O483 C457 1.283 . S
O483 Eu468 2.363 . S
O484 C458 1.283 . S
O484 Eu481 2.363 . S
O485 C459 1.283 . S
O485 Eu481 2.363 . S
O486 C460 1.283 . S
O486 Eu471 2.381 . S
O487 C461 1.283 . S
O487 Eu471 2.345 1_565 S
O488 C462 1.283 . S
O488 Eu472 2.381 . S
O489 C463 1.283 . S
O489 Eu472 2.345 1_565 S
O490 C464 1.283 . S
O490 Eu476 2.363 . S
O491 C465 1.283 . S
O491 Eu476 2.363 1_655 S
O492 C466 1.283 . S
O492 Eu475 2.363 . S
O493 C467 1.283 . S
O493 Eu475 2.363 1_655 S
O494 C462 1.283 . S
O494 Eu481 2.363 . S
O495 C460 1.283 . S
O495 Eu481 2.363 1_655 S
O496 C463 1.283 . S
O496 Eu468 2.363 . S
O497 C461 1.283 . S
O497 Eu468 2.363 1_655 S
O498 C457 1.283 . S
O498 Eu476 2.347 1_565 S
O499 C459 1.283 . S
O499 Eu476 2.379 . S
O500 C456 1.283 . S
O500 Eu475 2.342 1_565 S
O501 C458 1.283 . S
O501 Eu475 2.384 . S
O502 C467 1.283 . S
O502 Eu471 2.363 . S
O503 C465 1.283 . S
O503 Eu471 2.363 . S
O504 C466 1.283 . S
O504 Eu472 2.363 . S
O505 C464 1.283 . S
O505 Eu472 2.363 . S
C506 O532 1.283 . S
C506 O550 1.283 . S
C507 O533 1.283 . S
C507 O548 1.283 . S
C508 O534 1.283 . S
C508 O551 1.283 . S
C509 O535 1.283 . S
C509 O549 1.283 . S
C510 O536 1.283 . S
C510 O545 1.283 . S
C511 O537 1.283 . S
C511 O547 1.283 . S
C512 O538 1.283 . S
C512 O544 1.283 . S
C513 O539 1.283 . S
C513 O546 1.283 . S
C514 O540 1.283 . S
C514 O555 1.283 . S
C515 O541 1.283 . S
C515 O553 1.283 . S
C516 O542 1.283 . S
C516 O554 1.283 . S
C517 O543 1.283 . S
C517 O552 1.283 . S
Eu518 O519 2.379 . S
Eu518 O520 2.362 1_545 S
Eu518 O523 2.362 1_545 S
Eu518 O524 2.379 . S
Eu518 O532 2.348 1_545 S
Eu518 O533 2.377 . S
Eu518 O546 2.363 . S
Eu518 O547 2.363 . S
O519 Eu518 2.379 . S
O519 Eu521 2.380 . S
O519 Eu526 2.370 . S
O520 Eu518 2.362 1_565 S
O520 Eu522 2.360 1_565 S
O520 Eu525 2.370 . S
Eu521 O519 2.380 . S
Eu521 O523 2.360 1_545 S
Eu521 O527 2.360 1_544 S
Eu521 O528 2.380 1_554 S
Eu521 O536 2.363 1_554 S
Eu521 O537 2.363 . S
Eu521 O552 2.346 1_545 S
Eu521 O553 2.380 . S
Eu522 O520 2.360 1_545 S
Eu522 O524 2.381 . S
Eu522 O529 2.381 1_554 S
Eu522 O530 2.360 1_544 S
Eu522 O538 2.363 1_554 S
Eu522 O539 2.363 . S
Eu522 O554 2.345 1_545 S
Eu522 O555 2.381 . S
O523 Eu518 2.362 1_565 S
O523 Eu521 2.360 1_565 S
O523 Eu525 2.370 . S
O524 Eu518 2.379 . S
O524 Eu522 2.381 . S
O524 Eu526 2.370 . S
Eu525 O520 2.370 . S
Eu525 O523 2.370 . S
Eu525 O527 2.370 1_554 S
Eu525 O530 2.370 1_554 S
Eu525 O542 2.363 . S
Eu525 O543 2.363 . S
Eu525 O550 2.363 . S
Eu525 O551 2.363 1_554 S
Eu526 O519 2.370 . S
Eu526 O524 2.370 . S
Eu526 O528 2.370 1_554 S
Eu526 O529 2.370 1_554 S
Eu526 O540 2.363 . S
Eu526 O541 2.363 . S
Eu526 O548 2.363 . S
Eu526 O549 2.363 1_554 S
O527 Eu521 2.360 1_566 S
O527 Eu525 2.370 1_556 S
O527 Eu531 2.358 1_565 S
O528 Eu521 2.380 1_556 S
O528 Eu526 2.370 1_556 S
O528 Eu531 2.382 . S
O529 Eu522 2.381 1_556 S
O529 Eu526 2.370 1_556 S
O529 Eu531 2.382 . S
O530 Eu522 2.360 1_566 S
O530 Eu525 2.370 1_556 S
O530 Eu531 2.358 1_565 S
Eu531 O527 2.358 1_545 S
Eu531 O528 2.382 . S
Eu531 O529 2.382 . S
Eu531 O530 2.358 1_545 S
Eu531 O534 2.342 1_545 S
Eu531 O535 2.384 . S
Eu531 O544 2.363 . S
Eu531 O545 2.363 . S
O532 C506 1.283 . S
O532 Eu518 2.348 1_565 S
O533 C507 1.283 . S
O533 Eu518 2.377 . S
O534 C508 1.283 . S
O534 Eu531 2.342 1_565 S
O535 C509 1.283 . S
O535 Eu531 2.384 . S
O536 C510 1.283 . S
O536 Eu521 2.363 1_556 S
O537 C511 1.283 . S
O537 Eu521 2.363 . S
O538 C512 1.283 . S
O538 Eu522 2.363 1_556 S
O539 C513 1.283 . S
O539 Eu522 2.363 . S
O540 C514 1.283 . S
O540 Eu526 2.363 . S
O541 C515 1.283 . S
O541 Eu526 2.363 . S
O542 C516 1.283 . S
O542 Eu525 2.363 . S
O543 C517 1.283 . S
O543 Eu525 2.363 . S
O544 C512 1.283 . S
O544 Eu531 2.363 . S
O545 C510 1.283 . S
O545 Eu531 2.363 . S
O546 C513 1.283 . S
O546 Eu518 2.363 . S
O547 C511 1.283 . S
O547 Eu518 2.363 . S
O548 C507 1.283 . S
O548 Eu526 2.363 . S
O549 C509 1.283 . S
O549 Eu526 2.363 1_556 S
O550 C506 1.283 . S
O550 Eu525 2.363 . S
O551 C508 1.283 . S
O551 Eu525 2.363 1_556 S
O552 C517 1.283 . S
O552 Eu521 2.346 1_565 S
O553 C515 1.283 . S
O553 Eu521 2.380 . S
O554 C516 1.283 . S
O554 Eu522 2.345 1_565 S
O555 C514 1.283 . S
O555 Eu522 2.381 . S
C556 O582 1.283 . S
C556 O600 1.283 . S
C557 O583 1.283 . S
C557 O598 1.283 . S
C558 O584 1.283 . S
C558 O601 1.283 . S
C559 O585 1.283 . S
C559 O599 1.283 . S
C560 O586 1.283 . S
C560 O595 1.283 . S
C561 O587 1.283 . S
C561 O597 1.283 . S
C562 O588 1.283 . S
C562 O594 1.283 . S
C563 O589 1.283 . S
C563 O596 1.283 . S
C564 O590 1.283 . S
C564 O605 1.283 . S
C565 O591 1.283 . S
C565 O603 1.283 . S
C566 O592 1.283 . S
C566 O604 1.283 . S
C567 O593 1.283 . S
C567 O602 1.283 . S
Eu568 O569 2.370 1_454 S
Eu568 O570 2.370 . S
Eu568 O573 2.370 1_455 S
Eu568 O574 2.370 1_554 S
Eu568 O582 2.363 . S
Eu568 O583 2.363 1_554 S
Eu568 O596 2.363 . S
Eu568 O597 2.363 1_455 S
O569 Eu568 2.370 1_656 S
O569 Eu571 2.370 1_556 S
O569 Eu576 2.370 1_655 S
O570 Eu568 2.370 . S
O570 Eu572 2.370 . S
O570 Eu575 2.370 . S
Eu571 O569 2.370 1_554 S
Eu571 O573 2.370 . S
Eu571 O577 2.370 . S
Eu571 O578 2.370 1_554 S
Eu571 O586 2.363 . S
Eu571 O587 2.363 . S
Eu571 O602 2.363 . S
Eu571 O603 2.363 1_554 S
Eu572 O570 2.370 . S
Eu572 O574 2.370 1_554 S
Eu572 O579 2.370 1_554 S
Eu572 O580 2.370 . S
Eu572 O588 2.363 . S
Eu572 O589 2.363 . S
Eu572 O604 2.363 . S
Eu572 O605 2.363 1_554 S
O573 Eu568 2.370 1_655 S
O573 Eu571 2.370 . S
O573 Eu575 2.370 1_655 S
O574 Eu568 2.370 1_556 S
O574 Eu572 2.370 1_556 S
O574 Eu576 2.370 . S
Eu575 O570 2.370 . S
Eu575 O573 2.370 1_455 S
Eu575 O577 2.370 1_455 S
Eu575 O580 2.370 . S
Eu575 O592 2.363 . S
Eu575 O593 2.363 1_455 S
Eu575 O600 2.363 . S
Eu575 O601 2.363 . S
Eu576 O569 2.370 1_455 S
Eu576 O574 2.370 . S
Eu576 O578 2.370 1_455 S
Eu576 O579 2.370 . S
Eu576 O590 2.363 . S
Eu576 O591 2.363 1_455 S
Eu576 O598 2.363 . S
Eu576 O599 2.363 . S
O577 Eu571 2.370 . S
O577 Eu575 2.370 1_655 S
O577 Eu581 2.370 1_655 S
O578 Eu571 2.370 1_556 S
O578 Eu576 2.370 1_655 S
O578 Eu581 2.370 1_656 S
O579 Eu572 2.370 1_556 S
O579 Eu576 2.370 . S
O579 Eu581 2.370 1_556 S
O580 Eu572 2.370 . S
O580 Eu575 2.370 . S
O580 Eu581 2.370 . S
Eu581 O577 2.370 1_455 S
Eu581 O578 2.370 1_454 S
Eu581 O579 2.370 1_554 S
Eu581 O580 2.370 . S
Eu581 O584 2.363 . S
Eu581 O585 2.363 1_554 S
Eu581 O594 2.363 . S
Eu581 O595 2.363 1_455 S
O582 C556 1.283 . S
O582 Eu568 2.363 . S
O583 C557 1.283 . S
O583 Eu568 2.363 1_556 S
O584 C558 1.283 . S
O584 Eu581 2.363 . S
O585 C559 1.283 . S
O585 Eu581 2.363 1_556 S
O586 C560 1.283 . S
O586 Eu571 2.363 . S
O587 C561 1.283 . S
O587 Eu571 2.363 . S
O588 C562 1.283 . S
O588 Eu572 2.363 . S
O589 C563 1.283 . S
O589 Eu572 2.363 . S
O590 C564 1.283 . S
O590 Eu576 2.363 . S
O591 C565 1.283 . S
O591 Eu576 2.363 1_655 S
O592 C566 1.283 . S
O592 Eu575 2.363 . S
O593 C567 1.283 . S
O593 Eu575 2.363 1_655 S
O594 C562 1.283 . S
O594 Eu581 2.363 . S
O595 C560 1.283 . S
O595 Eu581 2.363 1_655 S
O596 C563 1.283 . S
O596 Eu568 2.363 . S
O597 C561 1.283 . S
O597 Eu568 2.363 1_655 S
O598 C557 1.283 . S
O598 Eu576 2.363 . S
O599 C559 1.283 . S
O599 Eu576 2.363 . S
O600 C556 1.283 . S
O600 Eu575 2.363 . S
O601 C558 1.283 . S
O601 Eu575 2.363 . S
O602 C567 1.283 . S
O602 Eu571 2.363 . S
O603 C565 1.283 . S
O603 Eu571 2.363 1_556 S
O604 C566 1.283 . S
O604 Eu572 2.363 . S
O605 C564 1.283 . S
O605 Eu572 2.363 1_556 S
C606 O632 1.283 . S
C606 O650 1.283 . S
C607 O633 1.283 . S
C607 O648 1.283 . S
C608 O634 1.283 . S
C608 O651 1.283 . S
C609 O635 1.283 . S
C609 O649 1.283 . S
C610 O636 1.283 . S
C610 O645 1.283 . S
C611 O637 1.283 . S
C611 O647 1.283 . S
C612 O638 1.283 . S
C612 O644 1.283 . S
C613 O639 1.283 . S
C613 O646 1.283 . S
C614 O640 1.283 . S
C614 O655 1.283 . S
C615 O641 1.283 . S
C615 O653 1.283 . S
C616 O642 1.283 . S
C616 O654 1.283 . S
C617 O643 1.283 . S
C617 O652 1.283 . S
Eu618 O619 2.370 . S
Eu618 O620 2.370 . S
Eu618 O623 2.370 . S
Eu618 O624 2.370 . S
Eu618 O632 2.363 . S
Eu618 O633 2.363 . S
Eu618 O646 2.363 . S
Eu618 O647 2.363 . S
O619 Eu618 2.370 . S
O619 Eu621 2.370 . S
O619 Eu626 2.370 . S
O620 Eu618 2.370 . S
O620 Eu622 2.370 . S
O620 Eu625 2.370 . S
Eu621 O619 2.370 . S
Eu621 O623 2.370 . S
Eu621 O627 2.370 1_554 S
Eu621 O628 2.370 1_554 S
Eu621 O636 2.363 1_554 S
Eu621 O637 2.363 . S
Eu621 O652 2.363 . S
Eu621 O653 2.363 . S
Eu622 O620 2.370 . S
Eu622 O624 2.370 . S
Eu622 O629 2.370 1_554 S
Eu622 O630 2.370 1_554 S
Eu622 O638 2.363 1_554 S
Eu622 O639 2.363 . S
Eu622 O654 2.363 . S
Eu622 O655 2.363 . S
O623 Eu618 2.370 . S
O623 Eu621 2.370 . S
O623 Eu625 2.370 . S
O624 Eu618 2.370 . S
O624 Eu622 2.370 . S
O624 Eu626 2.370 . S
Eu625 O620 2.370 . S
Eu625 O623 2.370 . S
Eu625 O627 2.370 1_554 S
Eu625 O630 2.370 1_554 S
Eu625 O642 2.363 . S
Eu625 O643 2.363 . S
Eu625 O650 2.363 . S
Eu625 O651 2.363 1_554 S
Eu626 O619 2.370 . S
Eu626 O624 2.370 . S
Eu626 O628 2.370 1_554 S
Eu626 O629 2.370 1_554 S
Eu626 O640 2.363 . S
Eu626 O641 2.363 . S
Eu626 O648 2.363 . S
Eu626 O649 2.363 1_554 S
O627 Eu621 2.370 1_556 S
O627 Eu625 2.370 1_556 S
O627 Eu631 2.370 . S
O628 Eu621 2.370 1_556 S
O628 Eu626 2.370 1_556 S
O628 Eu631 2.370 . S
O629 Eu622 2.370 1_556 S
O629 Eu626 2.370 1_556 S
O629 Eu631 2.370 . S
O630 Eu622 2.370 1_556 S
O630 Eu625 2.370 1_556 S
O630 Eu631 2.370 . S
Eu631 O627 2.370 . S
Eu631 O628 2.370 . S
Eu631 O629 2.370 . S
Eu631 O630 2.370 . S
Eu631 O634 2.363 . S
Eu631 O635 2.363 . S
Eu631 O644 2.363 . S
Eu631 O645 2.363 . S
O632 C606 1.283 . S
O632 Eu618 2.363 . S
O633 C607 1.283 . S
O633 Eu618 2.363 . S
O634 C608 1.283 . S
O634 Eu631 2.363 . S
O635 C609 1.283 . S
O635 Eu631 2.363 . S
O636 C610 1.283 . S
O636 Eu621 2.363 1_556 S
O637 C611 1.283 . S
O637 Eu621 2.363 . S
O638 C612 1.283 . S
O638 Eu622 2.363 1_556 S
O639 C613 1.283 . S
O639 Eu622 2.363 . S
O640 C614 1.283 . S
O640 Eu626 2.363 . S
O641 C615 1.283 . S
O641 Eu626 2.363 . S
O642 C616 1.283 . S
O642 Eu625 2.363 . S
O643 C617 1.283 . S
O643 Eu625 2.363 . S
O644 C612 1.283 . S
O644 Eu631 2.363 . S
O645 C610 1.283 . S
O645 Eu631 2.363 . S
O646 C613 1.283 . S
O646 Eu618 2.363 . S
O647 C611 1.283 . S
O647 Eu618 2.363 . S
O648 C607 1.283 . S
O648 Eu626 2.363 . S
O649 C609 1.283 . S
O649 Eu626 2.363 1_556 S
O650 C606 1.283 . S
O650 Eu625 2.363 . S
O651 C608 1.283 . S
O651 Eu625 2.363 1_556 S
O652 C617 1.283 . S
O652 Eu621 2.363 . S
O653 C615 1.283 . S
O653 Eu621 2.363 . S
O654 C616 1.283 . S
O654 Eu622 2.363 . S
O655 C614 1.283 . S
O655 Eu622 2.363 . S
C656 O682 1.283 . S
C656 O700 1.283 . S
C657 O683 1.283 . S
C657 O698 1.283 . S
C658 O684 1.283 . S
C658 O701 1.283 . S
C659 O685 1.283 . S
C659 O699 1.283 . S
C660 O686 1.283 . S
C660 O695 1.283 . S
C661 O687 1.283 . S
C661 O697 1.283 . S
C662 O688 1.283 . S
C662 O694 1.283 . S
C663 O689 1.283 . S
C663 O696 1.283 . S
C664 O690 1.283 . S
C664 O705 1.283 . S
C665 O691 1.283 . S
C665 O703 1.283 . S
C666 O692 1.283 . S
C666 O704 1.283 . S
C667 O693 1.283 . S
C667 O702 1.283 . S
Eu668 O669 2.370 1_455 S
Eu668 O670 2.370 . S
Eu668 O673 2.370 1_455 S
Eu668 O674 2.370 . S
Eu668 O682 2.363 . S
Eu668 O683 2.363 . S
Eu668 O696 2.363 . S
Eu668 O697 2.363 1_455 S
O669 Eu668 2.370 1_655 S
O669 Eu671 2.370 . S
O669 Eu676 2.370 1_655 S
O670 Eu668 2.370 . S
O670 Eu672 2.370 . S
O670 Eu675 2.370 . S
Eu671 O669 2.370 . S
Eu671 O673 2.370 . S
Eu671 O677 2.370 . S
Eu671 O678 2.370 . S
Eu671 O686 2.363 . S
Eu671 O687 2.363 . S
Eu671 O702 2.363 . S
Eu671 O703 2.363 . S
Eu672 O670 2.370 . S
Eu672 O674 2.370 . S
Eu672 O679 2.370 . S
Eu672 O680 2.370 . S
Eu672 O688 2.363 . S
Eu672 O689 2.363 . S
Eu672 O704 2.363 . S
Eu672 O705 2.363 . S
O673 Eu668 2.370 1_655 S
O673 Eu671 2.370 . S
O673 Eu675 2.370 1_655 S
O674 Eu668 2.370 . S
O674 Eu672 2.370 . S
O674 Eu676 2.370 . S
Eu675 O670 2.370 . S
Eu675 O673 2.370 1_455 S
Eu675 O677 2.370 1_455 S
Eu675 O680 2.370 . S
Eu675 O692 2.363 . S
Eu675 O693 2.363 1_455 S
Eu675 O700 2.363 . S
Eu675 O701 2.363 . S
Eu676 O669 2.370 1_455 S
Eu676 O674 2.370 . S
Eu676 O678 2.370 1_455 S
Eu676 O679 2.370 . S
Eu676 O690 2.363 . S
Eu676 O691 2.363 1_455 S
Eu676 O698 2.363 . S
Eu676 O699 2.363 . S
O677 Eu671 2.370 . S
O677 Eu675 2.370 1_655 S
O677 Eu681 2.370 1_655 S
O678 Eu671 2.370 . S
O678 Eu676 2.370 1_655 S
O678 Eu681 2.370 1_655 S
O679 Eu672 2.370 . S
O679 Eu676 2.370 . S
O679 Eu681 2.370 . S
O680 Eu672 2.370 . S
O680 Eu675 2.370 . S
O680 Eu681 2.370 . S
Eu681 O677 2.370 1_455 S
Eu681 O678 2.370 1_455 S
Eu681 O679 2.370 . S
Eu681 O680 2.370 . S
Eu681 O684 2.363 . S
Eu681 O685 2.363 . S
Eu681 O694 2.363 . S
Eu681 O695 2.363 1_455 S
O682 C656 1.283 . S
O682 Eu668 2.363 . S
O683 C657 1.283 . S
O683 Eu668 2.363 . S
O684 C658 1.283 . S
O684 Eu681 2.363 . S
O685 C659 1.283 . S
O685 Eu681 2.363 . S
O686 C660 1.283 . S
O686 Eu671 2.363 . S
O687 C661 1.283 . S
O687 Eu671 2.363 . S
O688 C662 1.283 . S
O688 Eu672 2.363 . S
O689 C663 1.283 . S
O689 Eu672 2.363 . S
O690 C664 1.283 . S
O690 Eu676 2.363 . S
O691 C665 1.283 . S
O691 Eu676 2.363 1_655 S
O692 C666 1.283 . S
O692 Eu675 2.363 . S
O693 C667 1.283 . S
O693 Eu675 2.363 1_655 S
O694 C662 1.283 . S
O694 Eu681 2.363 . S
O695 C660 1.283 . S
O695 Eu681 2.363 1_655 S
O696 C663 1.283 . S
O696 Eu668 2.363 . S
O697 C661 1.283 . S
O697 Eu668 2.363 1_655 S
O698 C657 1.283 . S
O698 Eu676 2.363 . S
O699 C659 1.283 . S
O699 Eu676 2.363 . S
O700 C656 1.283 . S
O700 Eu675 2.363 . S
O701 C658 1.283 . S
O701 Eu675 2.363 . S
O702 C667 1.283 . S
O702 Eu671 2.363 . S
O703 C665 1.283 . S
O703 Eu671 2.363 . S
O704 C666 1.283 . S
O704 Eu672 2.363 . S
O705 C664 1.283 . S
O705 Eu672 2.363 . S
C706 O732 1.283 . S
C706 O750 1.283 . S
C707 O733 1.283 . S
C707 O748 1.283 . S
C708 O734 1.283 . S
C708 O751 1.283 . S
C709 O735 1.283 . S
C709 O749 1.283 . S
C710 O736 1.283 . S
C710 O745 1.283 . S
C711 O737 1.283 . S
C711 O747 1.283 . S
C712 O738 1.283 . S
C712 O744 1.283 . S
C713 O739 1.283 . S
C713 O746 1.283 . S
C714 O740 1.283 . S
C714 O755 1.283 . S
C715 O741 1.283 . S
C715 O753 1.283 . S
C716 O742 1.283 . S
C716 O754 1.283 . S
C717 O743 1.283 . S
C717 O752 1.283 . S
Eu718 O719 2.370 . S
Eu718 O720 2.370 . S
Eu718 O723 2.370 . S
Eu718 O724 2.370 . S
Eu718 O732 2.363 . S
Eu718 O733 2.363 . S
Eu718 O746 2.363 . S
Eu718 O747 2.363 . S
O719 Eu718 2.370 . S
O719 Eu721 2.359 1_565 S
O719 Eu726 2.361 1_565 S
O720 Eu718 2.370 . S
O720 Eu722 2.359 1_565 S
O720 Eu725 2.358 1_565 S
Eu721 O719 2.359 1_545 S
Eu721 O723 2.359 1_545 S
Eu721 O727 2.381 . S
Eu721 O728 2.381 . S
Eu721 O736 2.382 . S
Eu721 O737 2.344 1_545 S
Eu721 O752 2.363 . S
Eu721 O753 2.363 . S
Eu722 O720 2.359 1_545 S
Eu722 O724 2.359 1_545 S
Eu722 O729 2.381 . S
Eu722 O730 2.381 . S
Eu722 O738 2.382 . S
Eu722 O739 2.344 1_545 S
Eu722 O754 2.363 . S
Eu722 O755 2.363 . S
O723 Eu718 2.370 . S
O723 Eu721 2.359 1_565 S
O723 Eu725 2.358 1_565 S
O724 Eu718 2.370 . S
O724 Eu722 2.359 1_565 S
O724 Eu726 2.361 1_565 S
Eu725 O720 2.358 1_545 S
Eu725 O723 2.358 1_545 S
Eu725 O727 2.383 . S
Eu725 O730 2.383 . S
Eu725 O742 2.363 . S
Eu725 O743 2.363 . S
Eu725 O750 2.342 1_545 S
Eu725 O751 2.384 . S
Eu726 O719 2.361 1_545 S
Eu726 O724 2.361 1_545 S
Eu726 O728 2.380 . S
Eu726 O729 2.380 . S
Eu726 O740 2.363 . S
Eu726 O741 2.363 . S
Eu726 O748 2.347 1_545 S
Eu726 O749 2.379 . S
O727 Eu721 2.381 . S
O727 Eu725 2.383 . S
O727 Eu731 2.370 . S
O728 Eu721 2.381 . S
O728 Eu726 2.380 . S
O728 Eu731 2.370 . S
O729 Eu722 2.381 . S
O729 Eu726 2.380 . S
O729 Eu731 2.370 . S
O730 Eu722 2.381 . S
O730 Eu725 2.383 . S
O730 Eu731 2.370 . S
Eu731 O727 2.370 . S
Eu731 O728 2.370 . S
Eu731 O729 2.370 . S
Eu731 O730 2.370 . S
Eu731 O734 2.363 . S
Eu731 O735 2.363 . S
Eu731 O744 2.363 . S
Eu731 O745 2.363 . S
O732 C706 1.283 . S
O732 Eu718 2.363 . S
O733 C707 1.283 . S
O733 Eu718 2.363 . S
O734 C708 1.283 . S
O734 Eu731 2.363 . S
O735 C709 1.283 . S
O735 Eu731 2.363 . S
O736 C710 1.283 . S
O736 Eu721 2.382 . S
O737 C711 1.283 . S
O737 Eu721 2.344 1_565 S
O738 C712 1.283 . S
O738 Eu722 2.382 . S
O739 C713 1.283 . S
O739 Eu722 2.344 1_565 S
O740 C714 1.283 . S
O740 Eu726 2.363 . S
O741 C715 1.283 . S
O741 Eu726 2.363 . S
O742 C716 1.283 . S
O742 Eu725 2.363 . S
O743 C717 1.283 . S
O743 Eu725 2.363 . S
O744 C712 1.283 . S
O744 Eu731 2.363 . S
O745 C710 1.283 . S
O745 Eu731 2.363 . S
O746 C713 1.283 . S
O746 Eu718 2.363 . S
O747 C711 1.283 . S
O747 Eu718 2.363 . S
O748 C707 1.283 . S
O748 Eu726 2.347 1_565 S
O749 C709 1.283 . S
O749 Eu726 2.379 . S
O750 C706 1.283 . S
O750 Eu725 2.342 1_565 S
O751 C708 1.283 . S
O751 Eu725 2.384 . S
O752 C717 1.283 . S
O752 Eu721 2.363 . S
O753 C715 1.283 . S
O753 Eu721 2.363 . S
O754 C716 1.283 . S
O754 Eu722 2.363 . S
O755 C714 1.283 . S
O755 Eu722 2.363 . S
H756 C768 0.930 . S
H757 C770 0.930 . S
H758 C771 0.930 . S
H759 C775 0.959 . S
H760 C775 0.959 . S
H761 C775 0.961 . S
H762 C776 0.960 . S
H763 C776 0.961 . S
H764 C776 0.959 . S
H765 C779 0.929 . S
H766 C780 0.931 . S
H767 C782 0.930 . S
C768 H756 0.930 . S
C768 C769 1.399 . S
C768 C773 1.399 . S
C769 C768 1.399 . S
C769 C770 1.376 . S
C770 H757 0.930 . S
C770 C769 1.376 . S
C770 C771 1.388 . S
C771 H758 0.930 . S
C771 C770 1.388 . S
C771 C772 1.390 . S
C772 C771 1.390 . S
C772 C773 1.394 . S
C772 C778 1.465 . S
C773 C768 1.399 . S
C773 C772 1.394 . S
C773 C774 1.516 . S
C774 C773 1.516 . S
C774 C775 1.502 . S
C774 C776 1.561 . S
C774 C777 1.526 . S
C775 H759 0.959 . S
C775 H760 0.959 . S
C775 H761 0.961 . S
C775 C774 1.502 . S
C776 H762 0.960 . S
C776 H763 0.961 . S
C776 H764 0.959 . S
C776 C774 1.561 . S
C777 C774 1.526 . S
C777 C778 1.396 . S
C777 C782 1.390 . S
C778 C772 1.465 . S
C778 C777 1.396 . S
C778 C779 1.399 . S
C779 H765 0.929 . S
C779 C778 1.399 . S
C779 C780 1.385 . S
C780 H766 0.931 . S
C780 C779 1.385 . S
C780 C781 1.389 . S
C781 C780 1.389 . S
C781 C782 1.387 . S
C782 H767 0.930 . S
C782 C777 1.390 . S
C782 C781 1.387 . S
H783 C795 0.930 . S
H784 C797 0.930 . S
H785 C798 0.930 . S
H786 C802 0.959 . S
H787 C802 0.959 . S
H788 C802 0.961 . S
H789 C803 0.960 . S
H790 C803 0.961 . S
H791 C803 0.959 . S
H792 C806 0.929 . S
H793 C807 0.931 . S
H794 C809 0.930 . S
C795 H783 0.930 . S
C795 C796 1.399 . S
C795 C800 1.399 . S
C796 C795 1.399 . S
C796 C797 1.376 . S
C797 H784 0.930 . S
C797 C796 1.376 . S
C797 C798 1.388 . S
C798 H785 0.930 . S
C798 C797 1.388 . S
C798 C799 1.390 . S
C799 C798 1.390 . S
C799 C800 1.394 . S
C799 C805 1.465 . S
C800 C795 1.399 . S
C800 C799 1.394 . S
C800 C801 1.516 . S
C801 C800 1.516 . S
C801 C802 1.502 . S
C801 C803 1.561 . S
C801 C804 1.526 . S
C802 H786 0.959 . S
C802 H787 0.959 . S
C802 H788 0.961 . S
C802 C801 1.502 . S
C803 H789 0.960 . S
C803 H790 0.961 . S
C803 H791 0.959 . S
C803 C801 1.561 . S
C804 C801 1.526 . S
C804 C805 1.396 . S
C804 C809 1.390 . S
C805 C799 1.465 . S
C805 C804 1.396 . S
C805 C806 1.399 . S
C806 H792 0.929 . S
C806 C805 1.399 . S
C806 C807 1.385 . S
C807 H793 0.931 . S
C807 C806 1.385 . S
C807 C808 1.389 . S
C808 C807 1.389 . S
C808 C809 1.387 . S
C809 H794 0.930 . S
C809 C804 1.390 . S
C809 C808 1.387 . S
H810 C822 0.930 . S
H811 C824 0.930 . S
H812 C825 0.930 . S
H813 C829 0.959 . S
H814 C829 0.959 . S
H815 C829 0.961 . S
H816 C830 0.960 . S
H817 C830 0.961 . S
H818 C830 0.959 . S
H819 C833 0.929 . S
H820 C834 0.931 . S
H821 C836 0.930 . S
C822 H810 0.930 . S
C822 C823 1.399 . S
C822 C827 1.399 . S
C823 C822 1.399 . S
C823 C824 1.376 . S
C824 H811 0.930 . S
C824 C823 1.376 . S
C824 C825 1.388 . S
C825 H812 0.930 . S
C825 C824 1.388 . S
C825 C826 1.390 . S
C826 C825 1.390 . S
C826 C827 1.394 . S
C826 C832 1.465 . S
C827 C822 1.399 . S
C827 C826 1.394 . S
C827 C828 1.516 . S
C828 C827 1.516 . S
C828 C829 1.502 . S
C828 C830 1.561 . S
C828 C831 1.526 . S
C829 H813 0.959 . S
C829 H814 0.959 . S
C829 H815 0.961 . S
C829 C828 1.502 . S
C830 H816 0.960 . S
C830 H817 0.961 . S
C830 H818 0.959 . S
C830 C828 1.561 . S
C831 C828 1.526 . S
C831 C832 1.396 . S
C831 C836 1.390 . S
C832 C826 1.465 . S
C832 C831 1.396 . S
C832 C833 1.399 . S
C833 H819 0.929 . S
C833 C832 1.399 . S
C833 C834 1.385 . S
C834 H820 0.931 . S
C834 C833 1.385 . S
C834 C835 1.389 . S
C835 C834 1.389 . S
C835 C836 1.387 . S
C836 H821 0.930 . S
C836 C831 1.390 . S
C836 C835 1.387 . S
H837 C849 0.930 . S
H838 C851 0.930 . S
H839 C852 0.930 . S
H840 C856 0.959 . S
H841 C856 0.959 . S
H842 C856 0.961 . S
H843 C857 0.960 . S
H844 C857 0.961 . S
H845 C857 0.959 . S
H846 C860 0.929 . S
H847 C861 0.931 . S
H848 C863 0.930 . S
C849 H837 0.930 . S
C849 C850 1.399 . S
C849 C854 1.399 . S
C850 C849 1.399 . S
C850 C851 1.376 . S
C851 H838 0.930 . S
C851 C850 1.376 . S
C851 C852 1.388 . S
C852 H839 0.930 . S
C852 C851 1.388 . S
C852 C853 1.390 . S
C853 C852 1.390 . S
C853 C854 1.394 . S
C853 C859 1.465 . S
C854 C849 1.399 . S
C854 C853 1.394 . S
C854 C855 1.516 . S
C855 C854 1.516 . S
C855 C856 1.502 . S
C855 C857 1.561 . S
C855 C858 1.526 . S
C856 H840 0.959 . S
C856 H841 0.959 . S
C856 H842 0.961 . S
C856 C855 1.502 . S
C857 H843 0.960 . S
C857 H844 0.961 . S
C857 H845 0.959 . S
C857 C855 1.561 . S
C858 C855 1.526 . S
C858 C859 1.396 . S
C858 C863 1.390 . S
C859 C853 1.465 . S
C859 C858 1.396 . S
C859 C860 1.399 . S
C860 H846 0.929 . S
C860 C859 1.399 . S
C860 C861 1.385 . S
C861 H847 0.931 . S
C861 C860 1.385 . S
C861 C862 1.389 . S
C862 C861 1.389 . S
C862 C863 1.387 . S
C863 H848 0.930 . S
C863 C858 1.390 . S
C863 C862 1.387 . S
H864 C876 0.930 . S
H865 C878 0.930 . S
H866 C879 0.930 . S
H867 C883 0.959 . S
H868 C883 0.959 . S
H869 C883 0.961 . S
H870 C884 0.960 . S
H871 C884 0.961 . S
H872 C884 0.959 . S
H873 C887 0.929 . S
H874 C888 0.931 . S
H875 C890 0.930 . S
C876 H864 0.930 . S
C876 C877 1.399 . S
C876 C881 1.399 . S
C877 C876 1.399 . S
C877 C878 1.376 . S
C878 H865 0.930 . S
C878 C877 1.376 . S
C878 C879 1.388 . S
C879 H866 0.930 . S
C879 C878 1.388 . S
C879 C880 1.390 . S
C880 C879 1.390 . S
C880 C881 1.394 . S
C880 C886 1.465 . S
C881 C876 1.399 . S
C881 C880 1.394 . S
C881 C882 1.516 . S
C882 C881 1.516 . S
C882 C883 1.502 . S
C882 C884 1.561 . S
C882 C885 1.526 . S
C883 H867 0.959 . S
C883 H868 0.959 . S
C883 H869 0.961 . S
C883 C882 1.502 . S
C884 H870 0.960 . S
C884 H871 0.961 . S
C884 H872 0.959 . S
C884 C882 1.561 . S
C885 C882 1.526 . S
C885 C886 1.396 . S
C885 C890 1.390 . S
C886 C880 1.465 . S
C886 C885 1.396 . S
C886 C887 1.399 . S
C887 H873 0.929 . S
C887 C886 1.399 . S
C887 C888 1.385 . S
C888 H874 0.931 . S
C888 C887 1.385 . S
C888 C889 1.389 . S
C889 C888 1.389 . S
C889 C890 1.387 . S
C890 H875 0.930 . S
C890 C885 1.390 . S
C890 C889 1.387 . S
H891 C903 0.930 . S
H892 C905 0.930 . S
H893 C906 0.930 . S
H894 C910 0.959 . S
H895 C910 0.959 . S
H896 C910 0.961 . S
H897 C911 0.960 . S
H898 C911 0.961 . S
H899 C911 0.959 . S
H900 C914 0.929 . S
H901 C915 0.931 . S
H902 C917 0.930 . S
C903 H891 0.930 . S
C903 C904 1.399 . S
C903 C908 1.399 . S
C904 C903 1.399 . S
C904 C905 1.376 . S
C905 H892 0.930 . S
C905 C904 1.376 . S
C905 C906 1.388 . S
C906 H893 0.930 . S
C906 C905 1.388 . S
C906 C907 1.390 . S
C907 C906 1.390 . S
C907 C908 1.394 . S
C907 C913 1.465 . S
C908 C903 1.399 . S
C908 C907 1.394 . S
C908 C909 1.516 . S
C909 C908 1.516 . S
C909 C910 1.502 . S
C909 C911 1.561 . S
C909 C912 1.526 . S
C910 H894 0.959 . S
C910 H895 0.959 . S
C910 H896 0.961 . S
C910 C909 1.502 . S
C911 H897 0.960 . S
C911 H898 0.961 . S
C911 H899 0.959 . S
C911 C909 1.561 . S
C912 C909 1.526 . S
C912 C913 1.396 . S
C912 C917 1.390 . S
C913 C907 1.465 . S
C913 C912 1.396 . S
C913 C914 1.399 . S
C914 H900 0.929 . S
C914 C913 1.399 . S
C914 C915 1.385 . S
C915 H901 0.931 . S
C915 C914 1.385 . S
C915 C916 1.389 . S
C916 C915 1.389 . S
C916 C917 1.387 . S
C917 H902 0.930 . S
C917 C912 1.390 . S
C917 C916 1.387 . S
H918 C930 0.930 . S
H919 C932 0.930 . S
H920 C933 0.930 . S
H921 C937 0.959 . S
H922 C937 0.959 . S
H923 C937 0.961 . S
H924 C938 0.960 . S
H925 C938 0.961 . S
H926 C938 0.959 . S
H927 C941 0.929 . S
H928 C942 0.931 . S
H929 C944 0.930 . S
C930 H918 0.930 . S
C930 C931 1.399 . S
C930 C935 1.399 . S
C931 C930 1.399 . S
C931 C932 1.376 . S
C932 H919 0.930 . S
C932 C931 1.376 . S
C932 C933 1.388 . S
C933 H920 0.930 . S
C933 C932 1.388 . S
C933 C934 1.390 . S
C934 C933 1.390 . S
C934 C935 1.394 . S
C934 C940 1.465 . S
C935 C930 1.399 . S
C935 C934 1.394 . S
C935 C936 1.516 . S
C936 C935 1.516 . S
C936 C937 1.502 . S
C936 C938 1.561 . S
C936 C939 1.526 . S
C937 H921 0.959 . S
C937 H922 0.959 . S
C937 H923 0.961 . S
C937 C936 1.502 . S
C938 H924 0.960 . S
C938 H925 0.961 . S
C938 H926 0.959 . S
C938 C936 1.561 . S
C939 C936 1.526 . S
C939 C940 1.396 . S
C939 C944 1.390 . S
C940 C934 1.465 . S
C940 C939 1.396 . S
C940 C941 1.399 . S
C941 H927 0.929 . S
C941 C940 1.399 . S
C941 C942 1.385 . S
C942 H928 0.931 . S
C942 C941 1.385 . S
C942 C943 1.389 . S
C943 C942 1.389 . S
C943 C944 1.387 . S
C944 H929 0.930 . S
C944 C939 1.390 . S
C944 C943 1.387 . S
H945 C957 0.930 . S
H946 C959 0.930 . S
H947 C960 0.930 . S
H948 C964 0.959 . S
H949 C964 0.959 . S
H950 C964 0.961 . S
H951 C965 0.960 . S
H952 C965 0.961 . S
H953 C965 0.959 . S
H954 C968 0.929 . S
H955 C969 0.931 . S
H956 C971 0.930 . S
C957 H945 0.930 . S
C957 C958 1.399 . S
C957 C962 1.399 . S
C958 C957 1.399 . S
C958 C959 1.376 . S
C959 H946 0.930 . S
C959 C958 1.376 . S
C959 C960 1.388 . S
C960 H947 0.930 . S
C960 C959 1.388 . S
C960 C961 1.390 . S
C961 C960 1.390 . S
C961 C962 1.394 . S
C961 C967 1.465 . S
C962 C957 1.399 . S
C962 C961 1.394 . S
C962 C963 1.516 . S
C963 C962 1.516 . S
C963 C964 1.502 . S
C963 C965 1.561 . S
C963 C966 1.526 . S
C964 H948 0.959 . S
C964 H949 0.959 . S
C964 H950 0.961 . S
C964 C963 1.502 . S
C965 H951 0.960 . S
C965 H952 0.961 . S
C965 H953 0.959 . S
C965 C963 1.561 . S
C966 C963 1.526 . S
C966 C967 1.396 . S
C966 C971 1.390 . S
C967 C961 1.465 . S
C967 C966 1.396 . S
C967 C968 1.399 . S
C968 H954 0.929 . S
C968 C967 1.399 . S
C968 C969 1.385 . S
C969 H955 0.931 . S
C969 C968 1.385 . S
C969 C970 1.389 . S
C970 C969 1.389 . S
C970 C971 1.387 . S
C971 H956 0.930 . S
C971 C966 1.390 . S
C971 C970 1.387 . S
H972 C984 0.930 . S
H973 C986 0.930 . S
H974 C987 0.930 . S
H975 C991 0.959 . S
H976 C991 0.959 . S
H977 C991 0.961 . S
H978 C992 0.960 . S
H979 C992 0.961 . S
H980 C992 0.959 . S
H981 C995 0.929 . S
H982 C996 0.931 . S
H983 C998 0.930 . S
C984 H972 0.930 . S
C984 C985 1.399 . S
C984 C989 1.399 . S
C985 C984 1.399 . S
C985 C986 1.376 . S
C986 H973 0.930 . S
C986 C985 1.376 . S
C986 C987 1.388 . S
C987 H974 0.930 . S
C987 C986 1.388 . S
C987 C988 1.390 . S
C988 C987 1.390 . S
C988 C989 1.394 . S
C988 C994 1.465 . S
C989 C984 1.399 . S
C989 C988 1.394 . S
C989 C990 1.516 . S
C990 C989 1.516 . S
C990 C991 1.502 . S
C990 C992 1.561 . S
C990 C993 1.526 . S
C991 H975 0.959 . S
C991 H976 0.959 . S
C991 H977 0.961 . S
C991 C990 1.502 . S
C992 H978 0.960 . S
C992 H979 0.961 . S
C992 H980 0.959 . S
C992 C990 1.561 . S
C993 C990 1.526 . S
C993 C994 1.396 . S
C993 C998 1.390 . S
C994 C988 1.465 . S
C994 C993 1.396 . S
C994 C995 1.399 . S
C995 H981 0.929 . S
C995 C994 1.399 . S
C995 C996 1.385 . S
C996 H982 0.931 . S
C996 C995 1.385 . S
C996 C997 1.389 . S
C997 C996 1.389 . S
C997 C998 1.387 . S
C998 H983 0.930 . S
C998 C993 1.390 . S
C998 C997 1.387 . S
H999 C1011 0.930 . S
H1000 C1013 0.930 . S
H1001 C1014 0.930 . S
H1002 C1018 0.959 . S
H1003 C1018 0.959 . S
H1004 C1018 0.961 . S
H1005 C1019 0.960 . S
H1006 C1019 0.961 . S
H1007 C1019 0.959 . S
H1008 C1022 0.929 . S
H1009 C1023 0.931 . S
H1010 C1025 0.930 . S
C1011 H999 0.930 . S
C1011 C1012 1.399 . S
C1011 C1016 1.399 . S
C1012 C1011 1.399 . S
C1012 C1013 1.376 . S
C1013 H1000 0.930 . S
C1013 C1012 1.376 . S
C1013 C1014 1.388 . S
C1014 H1001 0.930 . S
C1014 C1013 1.388 . S
C1014 C1015 1.390 . S
C1015 C1014 1.390 . S
C1015 C1016 1.394 . S
C1015 C1021 1.465 . S
C1016 C1011 1.399 . S
C1016 C1015 1.394 . S
C1016 C1017 1.516 . S
C1017 C1016 1.516 . S
C1017 C1018 1.502 . S
C1017 C1019 1.561 . S
C1017 C1020 1.526 . S
C1018 H1002 0.959 . S
C1018 H1003 0.959 . S
C1018 H1004 0.961 . S
C1018 C1017 1.502 . S
C1019 H1005 0.960 . S
C1019 H1006 0.961 . S
C1019 H1007 0.959 . S
C1019 C1017 1.561 . S
C1020 C1017 1.526 . S
C1020 C1021 1.396 . S
C1020 C1025 1.390 . S
C1021 C1015 1.465 . S
C1021 C1020 1.396 . S
C1021 C1022 1.399 . S
C1022 H1008 0.929 . S
C1022 C1021 1.399 . S
C1022 C1023 1.385 . S
C1023 H1009 0.931 . S
C1023 C1022 1.385 . S
C1023 C1024 1.389 . S
C1024 C1023 1.389 . S
C1024 C1025 1.387 . S
C1025 H1010 0.930 . S
C1025 C1020 1.390 . S
C1025 C1024 1.387 . S
H1026 C1038 0.930 . S
H1027 C1040 0.930 . S
H1028 C1041 0.930 . S
H1029 C1045 0.959 . S
H1030 C1045 0.959 . S
H1031 C1045 0.961 . S
H1032 C1046 0.960 . S
H1033 C1046 0.961 . S
H1034 C1046 0.959 . S
H1035 C1049 0.929 . S
H1036 C1050 0.931 . S
H1037 C1052 0.930 . S
C1038 H1026 0.930 . S
C1038 C1039 1.399 . S
C1038 C1043 1.399 . S
C1039 C1038 1.399 . S
C1039 C1040 1.376 . S
C1040 H1027 0.930 . S
C1040 C1039 1.376 . S
C1040 C1041 1.388 . S
C1041 H1028 0.930 . S
C1041 C1040 1.388 . S
C1041 C1042 1.390 . S
C1042 C1041 1.390 . S
C1042 C1043 1.394 . S
C1042 C1048 1.465 . S
C1043 C1038 1.399 . S
C1043 C1042 1.394 . S
C1043 C1044 1.516 . S
C1044 C1043 1.516 . S
C1044 C1045 1.502 . S
C1044 C1046 1.561 . S
C1044 C1047 1.526 . S
C1045 H1029 0.959 . S
C1045 H1030 0.959 . S
C1045 H1031 0.961 . S
C1045 C1044 1.502 . S
C1046 H1032 0.960 . S
C1046 H1033 0.961 . S
C1046 H1034 0.959 . S
C1046 C1044 1.561 . S
C1047 C1044 1.526 . S
C1047 C1048 1.396 . S
C1047 C1052 1.390 . S
C1048 C1042 1.465 . S
C1048 C1047 1.396 . S
C1048 C1049 1.399 . S
C1049 H1035 0.929 . S
C1049 C1048 1.399 . S
C1049 C1050 1.385 . S
C1050 H1036 0.931 . S
C1050 C1049 1.385 . S
C1050 C1051 1.389 . S
C1051 C1050 1.389 . S
C1051 C1052 1.387 . S
C1052 H1037 0.930 . S
C1052 C1047 1.390 . S
C1052 C1051 1.387 . S
H1053 C1065 0.930 . S
H1054 C1067 0.930 . S
H1055 C1068 0.930 . S
H1056 C1072 0.959 . S
H1057 C1072 0.959 . S
H1058 C1072 0.961 . S
H1059 C1073 0.960 . S
H1060 C1073 0.961 . S
H1061 C1073 0.959 . S
H1062 C1076 0.929 . S
H1063 C1077 0.931 . S
H1064 C1079 0.930 . S
C1065 H1053 0.930 . S
C1065 C1066 1.399 . S
C1065 C1070 1.399 . S
C1066 C1065 1.399 . S
C1066 C1067 1.376 . S
C1067 H1054 0.930 . S
C1067 C1066 1.376 . S
C1067 C1068 1.388 . S
C1068 H1055 0.930 . S
C1068 C1067 1.388 . S
C1068 C1069 1.390 . S
C1069 C1068 1.390 . S
C1069 C1070 1.394 . S
C1069 C1075 1.465 . S
C1070 C1065 1.399 . S
C1070 C1069 1.394 . S
C1070 C1071 1.516 . S
C1071 C1070 1.516 . S
C1071 C1072 1.502 . S
C1071 C1073 1.561 . S
C1071 C1074 1.526 . S
C1072 H1056 0.959 . S
C1072 H1057 0.959 . S
C1072 H1058 0.961 . S
C1072 C1071 1.502 . S
C1073 H1059 0.960 . S
C1073 H1060 0.961 . S
C1073 H1061 0.959 . S
C1073 C1071 1.561 . S
C1074 C1071 1.526 . S
C1074 C1075 1.396 . S
C1074 C1079 1.390 . S
C1075 C1069 1.465 . S
C1075 C1074 1.396 . S
C1075 C1076 1.399 . S
C1076 H1062 0.929 . S
C1076 C1075 1.399 . S
C1076 C1077 1.385 . S
C1077 H1063 0.931 . S
C1077 C1076 1.385 . S
C1077 C1078 1.389 . S
C1078 C1077 1.389 . S
C1078 C1079 1.387 . S
C1079 H1064 0.930 . S
C1079 C1074 1.390 . S
C1079 C1078 1.387 . S
H1080 C1092 0.930 . S
H1081 C1094 0.930 . S
H1082 C1095 0.930 . S
H1083 C1099 0.959 . S
H1084 C1099 0.959 . S
H1085 C1099 0.961 . S
H1086 C1100 0.960 . S
H1087 C1100 0.961 . S
H1088 C1100 0.959 . S
H1089 C1103 0.929 . S
H1090 C1104 0.931 . S
H1091 C1106 0.930 . S
C1092 H1080 0.930 . S
C1092 C1093 1.399 1_556 S
C1092 C1097 1.399 . S
C1093 C1092 1.399 1_554 S
C1093 C1094 1.376 . S
C1094 H1081 0.930 . S
C1094 C1093 1.376 . S
C1094 C1095 1.388 . S
C1095 H1082 0.930 . S
C1095 C1094 1.388 . S
C1095 C1096 1.390 . S
C1096 C1095 1.390 . S
C1096 C1097 1.394 1_554 S
C1096 C1102 1.465 . S
C1097 C1092 1.399 . S
C1097 C1096 1.394 1_556 S
C1097 C1098 1.516 . S
C1098 C1097 1.516 . S
C1098 C1099 1.502 . S
C1098 C1100 1.561 . S
C1098 C1101 1.526 . S
C1099 H1083 0.959 . S
C1099 H1084 0.959 . S
C1099 H1085 0.961 . S
C1099 C1098 1.502 . S
C1100 H1086 0.960 . S
C1100 H1087 0.961 . S
C1100 H1088 0.959 . S
C1100 C1098 1.561 . S
C1101 C1098 1.526 . S
C1101 C1102 1.396 1_556 S
C1101 C1106 1.390 . S
C1102 C1096 1.465 . S
C1102 C1101 1.396 1_554 S
C1102 C1103 1.399 . S
C1103 H1089 0.929 . S
C1103 C1102 1.399 . S
C1103 C1104 1.385 . S
C1104 H1090 0.931 . S
C1104 C1103 1.385 . S
C1104 C1105 1.389 . S
C1105 C1104 1.389 . S
C1105 C1106 1.387 1_554 S
C1106 H1091 0.930 . S
C1106 C1101 1.390 . S
C1106 C1105 1.387 1_556 S
H1107 C1119 0.932 . S
H1108 C1121 0.930 . S
H1109 C1122 0.930 . S
H1110 C1126 0.959 . S
H1111 C1126 0.959 1_556 S
H1112 C1126 0.963 . S
H1113 C1127 0.960 . S
H1114 C1127 0.961 . S
H1115 C1127 0.959 . S
H1116 C1130 0.929 . S
H1117 C1131 0.931 . S
H1118 C1133 0.931 . S
C1119 H1107 0.932 . S
C1119 C1120 1.397 1_556 S
C1119 C1124 1.398 1_556 S
C1120 C1119 1.397 1_554 S
C1120 C1121 1.376 . S
C1121 H1108 0.930 . S
C1121 C1120 1.376 . S
C1121 C1122 1.388 . S
C1122 H1109 0.930 . S
C1122 C1121 1.388 . S
C1122 C1123 1.390 . S
C1123 C1122 1.390 . S
C1123 C1124 1.404 . S
C1123 C1129 1.465 . S
C1124 C1119 1.398 1_554 S
C1124 C1123 1.404 . S
C1124 C1125 1.508 1_554 S
C1125 C1124 1.508 1_556 S
C1125 C1126 1.502 1_556 S
C1125 C1127 1.561 . S
C1125 C1128 1.515 1_556 S
C1126 H1110 0.959 . S
C1126 H1111 0.959 1_554 S
C1126 H1112 0.963 . S
C1126 C1125 1.502 1_554 S
C1127 H1113 0.960 . S
C1127 H1114 0.961 . S
C1127 H1115 0.959 . S
C1127 C1125 1.561 . S
C1128 C1125 1.515 1_554 S
C1128 C1129 1.411 . S
C1128 C1133 1.388 1_554 S
C1129 C1123 1.465 . S
C1129 C1128 1.411 . S
C1129 C1130 1.399 . S
C1130 H1116 0.929 . S
C1130 C1129 1.399 . S
C1130 C1131 1.385 . S
C1131 H1117 0.931 . S
C1131 C1130 1.385 . S
C1131 C1132 1.389 . S
C1132 C1131 1.389 . S
C1132 C1133 1.386 1_554 S
C1133 H1118 0.931 . S
C1133 C1128 1.388 1_556 S
C1133 C1132 1.386 1_556 S
H1134 C1146 0.930 . S
H1135 C1148 0.930 . S
H1136 C1149 0.930 . S
H1137 C1153 0.959 . S
H1138 C1153 0.959 . S
H1139 C1153 0.961 . S
H1140 C1154 0.960 . S
H1141 C1154 0.961 . S
H1142 C1154 0.959 . S
H1143 C1157 0.929 . S
H1144 C1158 0.931 . S
H1145 C1160 0.930 . S
C1146 H1134 0.930 . S
C1146 C1147 1.399 . S
C1146 C1151 1.399 . S
C1147 C1146 1.399 . S
C1147 C1148 1.376 1_554 S
C1148 H1135 0.930 . S
C1148 C1147 1.376 1_556 S
C1148 C1149 1.388 . S
C1149 H1136 0.930 . S
C1149 C1148 1.388 . S
C1149 C1150 1.390 . S
C1150 C1149 1.390 . S
C1150 C1151 1.394 1_556 S
C1150 C1156 1.465 . S
C1151 C1146 1.399 . S
C1151 C1150 1.394 1_554 S
C1151 C1152 1.516 . S
C1152 C1151 1.516 . S
C1152 C1153 1.502 . S
C1152 C1154 1.561 . S
C1152 C1155 1.526 . S
C1153 H1137 0.959 . S
C1153 H1138 0.959 . S
C1153 H1139 0.961 . S
C1153 C1152 1.502 . S
C1154 H1140 0.960 . S
C1154 H1141 0.961 . S
C1154 H1142 0.959 . S
C1154 C1152 1.561 . S
C1155 C1152 1.526 . S
C1155 C1156 1.396 1_554 S
C1155 C1160 1.390 . S
C1156 C1150 1.465 . S
C1156 C1155 1.396 1_556 S
C1156 C1157 1.399 . S
C1157 H1143 0.929 . S
C1157 C1156 1.399 . S
C1157 C1158 1.385 . S
C1158 H1144 0.931 . S
C1158 C1157 1.385 . S
C1158 C1159 1.389 1_556 S
C1159 C1158 1.389 1_554 S
C1159 C1160 1.387 . S
C1160 H1145 0.930 . S
C1160 C1155 1.390 . S
C1160 C1159 1.387 . S
H1161 C1173 0.930 . S
H1162 C1175 0.930 . S
H1163 C1176 0.930 . S
H1164 C1180 0.959 . S
H1165 C1180 0.959 . S
H1166 C1180 0.961 . S
H1167 C1181 0.960 . S
H1168 C1181 0.961 . S
H1169 C1181 0.959 . S
H1170 C1184 0.929 . S
H1171 C1185 0.931 . S
H1172 C1187 0.930 . S
C1173 H1161 0.930 . S
C1173 C1174 1.399 . S
C1173 C1178 1.399 . S
C1174 C1173 1.399 . S
C1174 C1175 1.376 1_554 S
C1175 H1162 0.930 . S
C1175 C1174 1.376 1_556 S
C1175 C1176 1.388 . S
C1176 H1163 0.930 . S
C1176 C1175 1.388 . S
C1176 C1177 1.384 1_556 S
C1177 C1176 1.384 1_554 S
C1177 C1178 1.401 . S
C1177 C1183 1.465 1_554 S
C1178 C1173 1.399 . S
C1178 C1177 1.401 . S
C1178 C1179 1.516 . S
C1179 C1178 1.516 . S
C1179 C1180 1.502 . S
C1179 C1181 1.561 . S
C1179 C1182 1.526 . S
C1180 H1164 0.959 . S
C1180 H1165 0.959 . S
C1180 H1166 0.961 . S
C1180 C1179 1.502 . S
C1181 H1167 0.960 . S
C1181 H1168 0.961 . S
C1181 H1169 0.959 . S
C1181 C1179 1.561 . S
C1182 C1179 1.526 . S
C1182 C1183 1.395 1_554 S
C1182 C1187 1.390 . S
C1183 C1177 1.465 1_556 S
C1183 C1182 1.395 1_556 S
C1183 C1184 1.400 . S
C1184 H1170 0.929 . S
C1184 C1183 1.400 . S
C1184 C1185 1.385 . S
C1185 H1171 0.931 . S
C1185 C1184 1.385 . S
C1185 C1186 1.389 1_556 S
C1186 C1185 1.389 1_554 S
C1186 C1187 1.387 . S
C1187 H1172 0.930 . S
C1187 C1182 1.390 . S
C1187 C1186 1.387 . S
H1188 C1200 0.930 . S
H1189 C1202 0.930 . S
H1190 C1203 0.930 . S
H1191 C1207 0.959 . S
H1192 C1207 0.959 . S
H1193 C1207 0.961 . S
H1194 C1208 0.960 . S
H1195 C1208 0.961 . S
H1196 C1208 0.959 . S
H1197 C1211 0.929 . S
H1198 C1212 0.931 . S
H1199 C1214 0.930 . S
C1200 H1188 0.930 . S
C1200 C1201 1.399 . S
C1200 C1205 1.399 . S
C1201 C1200 1.399 . S
C1201 C1202 1.376 . S
C1202 H1189 0.930 . S
C1202 C1201 1.376 . S
C1202 C1203 1.388 . S
C1203 H1190 0.930 . S
C1203 C1202 1.388 . S
C1203 C1204 1.390 . S
C1204 C1203 1.390 . S
C1204 C1205 1.394 . S
C1204 C1210 1.465 . S
C1205 C1200 1.399 . S
C1205 C1204 1.394 . S
C1205 C1206 1.516 . S
C1206 C1205 1.516 . S
C1206 C1207 1.502 1_455 S
C1206 C1208 1.561 . S
C1206 C1209 1.526 . S
C1207 H1191 0.959 . S
C1207 H1192 0.959 . S
C1207 H1193 0.961 . S
C1207 C1206 1.502 1_655 S
C1208 H1194 0.960 . S
C1208 H1195 0.961 . S
C1208 H1196 0.959 . S
C1208 C1206 1.561 . S
C1209 C1206 1.526 . S
C1209 C1210 1.396 . S
C1209 C1214 1.390 . S
C1210 C1204 1.465 . S
C1210 C1209 1.396 . S
C1210 C1211 1.399 . S
C1211 H1197 0.929 . S
C1211 C1210 1.399 . S
C1211 C1212 1.385 . S
C1212 H1198 0.931 . S
C1212 C1211 1.385 . S
C1212 C1213 1.389 . S
C1213 C1212 1.389 . S
C1213 C1214 1.387 . S
C1214 H1199 0.930 . S
C1214 C1209 1.390 . S
C1214 C1213 1.387 . S
H1215 C1227 0.930 . S
H1216 C1229 0.930 . S
H1217 C1230 0.930 . S
H1218 C1234 0.959 . S
H1219 C1234 0.959 . S
H1220 C1234 0.961 . S
H1221 C1235 0.960 . S
H1222 C1235 0.961 . S
H1223 C1235 0.959 . S
H1224 C1238 0.929 . S
H1225 C1239 0.931 . S
H1226 C1241 0.930 . S
C1227 H1215 0.930 . S
C1227 C1228 1.399 1_565 S
C1227 C1232 1.399 . S
C1228 C1227 1.399 1_545 S
C1228 C1229 1.376 . S
C1229 H1216 0.930 . S
C1229 C1228 1.376 . S
C1229 C1230 1.388 . S
C1230 H1217 0.930 . S
C1230 C1229 1.388 . S
C1230 C1231 1.390 . S
C1231 C1230 1.390 . S
C1231 C1232 1.394 1_545 S
C1231 C1237 1.465 . S
C1232 C1227 1.399 . S
C1232 C1231 1.394 1_565 S
C1232 C1233 1.516 . S
C1233 C1232 1.516 . S
C1233 C1234 1.502 . S
C1233 C1235 1.561 . S
C1233 C1236 1.526 . S
C1234 H1218 0.959 . S
C1234 H1219 0.959 . S
C1234 H1220 0.961 . S
C1234 C1233 1.502 . S
C1235 H1221 0.960 . S
C1235 H1222 0.961 . S
C1235 H1223 0.959 . S
C1235 C1233 1.561 . S
C1236 C1233 1.526 . S
C1236 C1237 1.396 1_565 S
C1236 C1241 1.390 . S
C1237 C1231 1.465 . S
C1237 C1236 1.396 1_545 S
C1237 C1238 1.399 . S
C1238 H1224 0.929 . S
C1238 C1237 1.399 . S
C1238 C1239 1.385 . S
C1239 H1225 0.931 . S
C1239 C1238 1.385 . S
C1239 C1240 1.389 . S
C1240 C1239 1.389 . S
C1240 C1241 1.387 1_545 S
C1241 H1226 0.930 . S
C1241 C1236 1.390 . S
C1241 C1240 1.387 1_565 S
H1242 C1254 0.930 . S
H1243 C1256 0.930 . S
H1244 C1257 0.930 . S
H1245 C1261 0.959 . S
H1246 C1261 0.959 . S
H1247 C1261 0.961 . S
H1248 C1262 0.960 . S
H1249 C1262 0.961 . S
H1250 C1262 0.959 . S
H1251 C1265 0.929 . S
H1252 C1266 0.931 . S
H1253 C1268 0.930 . S
C1254 H1242 0.930 . S
C1254 C1255 1.399 . S
C1254 C1259 1.399 . S
C1255 C1254 1.399 . S
C1255 C1256 1.376 1_455 S
C1256 H1243 0.930 . S
C1256 C1255 1.376 1_655 S
C1256 C1257 1.388 . S
C1257 H1244 0.930 . S
C1257 C1256 1.388 . S
C1257 C1258 1.378 1_655 S
C1258 C1257 1.378 1_455 S
C1258 C1259 1.409 . S
C1258 C1264 1.465 . S
C1259 C1254 1.399 . S
C1259 C1258 1.409 . S
C1259 C1260 1.516 . S
C1260 C1259 1.516 . S
C1260 C1261 1.502 . S
C1260 C1262 1.561 . S
C1260 C1263 1.526 . S
C1261 H1245 0.959 . S
C1261 H1246 0.959 . S
C1261 H1247 0.961 . S
C1261 C1260 1.502 . S
C1262 H1248 0.960 . S
C1262 H1249 0.961 . S
C1262 H1250 0.959 . S
C1262 C1260 1.561 . S
C1263 C1260 1.526 . S
C1263 C1264 1.420 . S
C1263 C1268 1.390 . S
C1264 C1258 1.465 . S
C1264 C1263 1.420 . S
C1264 C1265 1.380 1_455 S
C1265 H1251 0.929 . S
C1265 C1264 1.380 1_655 S
C1265 C1266 1.385 . S
C1266 H1252 0.931 . S
C1266 C1265 1.385 . S
C1266 C1267 1.389 1_655 S
C1267 C1266 1.389 1_455 S
C1267 C1268 1.387 . S
C1268 H1253 0.930 . S
C1268 C1263 1.390 . S
C1268 C1267 1.387 . S
H1269 C1281 0.930 . S
H1270 C1283 0.930 . S
H1271 C1284 0.930 . S
H1272 C1288 0.959 . S
H1273 C1288 0.959 . S
H1274 C1288 0.961 . S
H1275 C1289 0.960 . S
H1276 C1289 0.961 . S
H1277 C1289 0.959 . S
H1278 C1292 0.929 . S
H1279 C1293 0.931 . S
H1280 C1295 0.930 . S
C1281 H1269 0.930 . S
C1281 C1282 1.375 1_545 S
C1281 C1286 1.399 . S
C1282 C1281 1.375 1_565 S
C1282 C1283 1.407 . S
C1283 H1270 0.930 . S
C1283 C1282 1.407 . S
C1283 C1284 1.388 . S
C1284 H1271 0.930 . S
C1284 C1283 1.388 . S
C1284 C1285 1.390 . S
C1285 C1284 1.390 . S
C1285 C1286 1.394 1_565 S
C1285 C1291 1.465 . S
C1286 C1281 1.399 . S
C1286 C1285 1.394 1_545 S
C1286 C1287 1.516 . S
C1287 C1286 1.516 . S
C1287 C1288 1.502 . S
C1287 C1289 1.561 . S
C1287 C1290 1.526 . S
C1288 H1272 0.959 . S
C1288 H1273 0.959 . S
C1288 H1274 0.961 . S
C1288 C1287 1.502 . S
C1289 H1275 0.960 . S
C1289 H1276 0.961 . S
C1289 H1277 0.959 . S
C1289 C1287 1.561 . S
C1290 C1287 1.526 . S
C1290 C1291 1.396 1_545 S
C1290 C1295 1.390 . S
C1291 C1285 1.465 . S
C1291 C1290 1.396 1_565 S
C1291 C1292 1.399 . S
C1292 H1278 0.929 . S
C1292 C1291 1.399 . S
C1292 C1293 1.385 . S
C1293 H1279 0.931 . S
C1293 C1292 1.385 . S
C1293 C1294 1.389 . S
C1294 C1293 1.389 . S
C1294 C1295 1.387 1_565 S
C1295 H1280 0.930 . S
C1295 C1290 1.390 . S
C1295 C1294 1.387 1_545 S
H1296 C1308 0.930 . S
H1297 C1310 0.930 . S
H1298 C1311 0.930 . S
H1299 C1315 0.959 . S
H1300 C1315 0.959 . S
H1301 C1315 0.961 . S
H1302 C1316 0.960 . S
H1303 C1316 0.961 . S
H1304 C1316 0.959 . S
H1305 C1319 0.929 . S
H1306 C1320 0.931 . S
H1307 C1322 0.930 . S
C1308 H1296 0.930 . S
C1308 C1309 1.399 . S
C1308 C1313 1.399 . S
C1309 C1308 1.399 . S
C1309 C1310 1.376 . S
C1310 H1297 0.930 . S
C1310 C1309 1.376 . S
C1310 C1311 1.388 . S
C1311 H1298 0.930 . S
C1311 C1310 1.388 . S
C1311 C1312 1.390 . S
C1312 C1311 1.390 . S
C1312 C1313 1.394 . S
C1312 C1318 1.465 . S
C1313 C1308 1.399 . S
C1313 C1312 1.394 . S
C1313 C1314 1.516 . S
C1314 C1313 1.516 . S
C1314 C1315 1.502 . S
C1314 C1316 1.561 1_455 S
C1314 C1317 1.526 . S
C1315 H1299 0.959 . S
C1315 H1300 0.959 . S
C1315 H1301 0.961 . S
C1315 C1314 1.502 . S
C1316 H1302 0.960 . S
C1316 H1303 0.961 . S
C1316 H1304 0.959 . S
C1316 C1314 1.561 1_655 S
C1317 C1314 1.526 . S
C1317 C1318 1.396 . S
C1317 C1322 1.390 . S
C1318 C1312 1.465 . S
C1318 C1317 1.396 . S
C1318 C1319 1.399 . S
C1319 H1305 0.929 . S
C1319 C1318 1.399 . S
C1319 C1320 1.385 . S
C1320 H1306 0.931 . S
C1320 C1319 1.385 . S
C1320 C1321 1.389 . S
C1321 C1320 1.389 . S
C1321 C1322 1.387 . S
C1322 H1307 0.930 . S
C1322 C1317 1.390 . S
C1322 C1321 1.387 . S
H1323 C1335 0.930 . S
H1324 C1337 0.930 . S
H1325 C1338 0.930 . S
H1326 C1342 0.959 . S
H1327 C1342 0.959 . S
H1328 C1342 0.961 . S
H1329 C1343 0.960 . S
H1330 C1343 0.961 . S
H1331 C1343 0.959 . S
H1332 C1346 0.929 . S
H1333 C1347 0.931 . S
H1334 C1349 0.930 . S
C1335 H1323 0.930 . S
C1335 C1336 1.399 1_565 S
C1335 C1340 1.399 . S
C1336 C1335 1.399 1_545 S
C1336 C1337 1.376 . S
C1337 H1324 0.930 . S
C1337 C1336 1.376 . S
C1337 C1338 1.388 . S
C1338 H1325 0.930 . S
C1338 C1337 1.388 . S
C1338 C1339 1.390 . S
C1339 C1338 1.390 . S
C1339 C1340 1.394 1_545 S
C1339 C1345 1.465 . S
C1340 C1335 1.399 . S
C1340 C1339 1.394 1_565 S
C1340 C1341 1.516 . S
C1341 C1340 1.516 . S
C1341 C1342 1.502 . S
C1341 C1343 1.561 . S
C1341 C1344 1.526 . S
C1342 H1326 0.959 . S
C1342 H1327 0.959 . S
C1342 H1328 0.961 . S
C1342 C1341 1.502 . S
C1343 H1329 0.960 . S
C1343 H1330 0.961 . S
C1343 H1331 0.959 . S
C1343 C1341 1.561 . S
C1344 C1341 1.526 . S
C1344 C1345 1.396 1_565 S
C1344 C1349 1.390 . S
C1345 C1339 1.465 . S
C1345 C1344 1.396 1_545 S
C1345 C1346 1.399 . S
C1346 H1332 0.929 . S
C1346 C1345 1.399 . S
C1346 C1347 1.385 . S
C1347 H1333 0.931 . S
C1347 C1346 1.385 . S
C1347 C1348 1.389 . S
C1348 C1347 1.389 . S
C1348 C1349 1.387 1_545 S
C1349 H1334 0.930 . S
C1349 C1344 1.390 . S
C1349 C1348 1.387 1_565 S
H1350 C1362 0.928 1_655 S
H1351 C1364 0.930 . S
H1352 C1365 0.930 . S
H1353 C1369 0.959 . S
H1354 C1369 0.959 . S
H1355 C1369 0.961 . S
H1356 C1370 0.960 . S
H1357 C1370 0.961 . S
H1358 C1370 0.959 . S
H1359 C1373 0.929 . S
H1360 C1374 0.931 . S
H1361 C1376 0.930 . S
C1362 H1350 0.928 1_455 S
C1362 C1363 1.399 . S
C1362 C1367 1.399 . S
C1363 C1362 1.399 . S
C1363 C1364 1.376 . S
C1364 H1351 0.930 . S
C1364 C1363 1.376 . S
C1364 C1365 1.388 . S
C1365 H1352 0.930 . S
C1365 C1364 1.388 . S
C1365 C1366 1.390 . S
C1366 C1365 1.390 . S
C1366 C1367 1.394 . S
C1366 C1372 1.465 . S
C1367 C1362 1.399 . S
C1367 C1366 1.394 . S
C1367 C1368 1.516 . S
C1368 C1367 1.516 . S
C1368 C1369 1.502 1_455 S
C1368 C1370 1.561 . S
C1368 C1371 1.526 . S
C1369 H1353 0.959 . S
C1369 H1354 0.959 . S
C1369 H1355 0.961 . S
C1369 C1368 1.502 1_655 S
C1370 H1356 0.960 . S
C1370 H1357 0.961 . S
C1370 H1358 0.959 . S
C1370 C1368 1.561 . S
C1371 C1368 1.526 . S
C1371 C1372 1.396 . S
C1371 C1376 1.390 . S
C1372 C1366 1.465 . S
C1372 C1371 1.396 . S
C1372 C1373 1.399 . S
C1373 H1359 0.929 . S
C1373 C1372 1.399 . S
C1373 C1374 1.385 . S
C1374 H1360 0.931 . S
C1374 C1373 1.385 . S
C1374 C1375 1.389 . S
C1375 C1374 1.389 . S
C1375 C1376 1.387 . S
C1376 H1361 0.930 . S
C1376 C1371 1.390 . S
C1376 C1375 1.387 . S
H1377 C1389 0.930 . S
H1378 C1391 0.930 . S
H1379 C1392 0.930 . S
H1380 C1396 0.959 . S
H1381 C1396 0.959 . S
H1382 C1396 0.961 . S
H1383 C1397 0.960 . S
H1384 C1397 0.961 . S
H1385 C1397 0.959 . S
H1386 C1400 0.929 . S
H1387 C1401 0.931 . S
H1388 C1403 0.930 . S
C1389 H1377 0.930 . S
C1389 C1390 1.399 1_545 S
C1389 C1394 1.399 . S
C1390 C1389 1.399 1_565 S
C1390 C1391 1.376 . S
C1391 H1378 0.930 . S
C1391 C1390 1.376 . S
C1391 C1392 1.388 . S
C1392 H1379 0.930 . S
C1392 C1391 1.388 . S
C1392 C1393 1.390 . S
C1393 C1392 1.390 . S
C1393 C1394 1.394 1_565 S
C1393 C1399 1.465 . S
C1394 C1389 1.399 . S
C1394 C1393 1.394 1_545 S
C1394 C1395 1.516 . S
C1395 C1394 1.516 . S
C1395 C1396 1.502 . S
C1395 C1397 1.561 . S
C1395 C1398 1.526 . S
C1396 H1380 0.959 . S
C1396 H1381 0.959 . S
C1396 H1382 0.961 . S
C1396 C1395 1.502 . S
C1397 H1383 0.960 . S
C1397 H1384 0.961 . S
C1397 H1385 0.959 . S
C1397 C1395 1.561 . S
C1398 C1395 1.526 . S
C1398 C1399 1.396 1_545 S
C1398 C1403 1.390 . S
C1399 C1393 1.465 . S
C1399 C1398 1.396 1_565 S
C1399 C1400 1.399 . S
C1400 H1386 0.929 . S
C1400 C1399 1.399 . S
C1400 C1401 1.385 . S
C1401 H1387 0.931 . S
C1401 C1400 1.385 . S
C1401 C1402 1.389 . S
C1402 C1401 1.389 . S
C1402 C1403 1.387 1_565 S
C1403 H1388 0.930 . S
C1403 C1398 1.390 . S
C1403 C1402 1.387 1_545 S
H1404 C1416 0.930 1_655 S
H1405 C1418 0.930 . S
H1406 C1419 0.930 . S
H1407 C1423 0.959 . S
H1408 C1423 0.959 . S
H1409 C1423 0.961 . S
H1410 C1424 0.960 . S
H1411 C1424 0.961 . S
H1412 C1424 0.959 . S
H1413 C1427 0.929 . S
H1414 C1428 0.931 . S
H1415 C1430 0.930 1_655 S
C1416 H1404 0.930 1_455 S
C1416 C1417 1.399 . S
C1416 C1421 1.399 . S
C1417 C1416 1.399 . S
C1417 C1418 1.376 . S
C1418 H1405 0.930 . S
C1418 C1417 1.376 . S
C1418 C1419 1.388 . S
C1419 H1406 0.930 . S
C1419 C1418 1.388 . S
C1419 C1420 1.390 . S
C1420 C1419 1.390 . S
C1420 C1421 1.394 . S
C1420 C1426 1.465 . S
C1421 C1416 1.399 . S
C1421 C1420 1.394 . S
C1421 C1422 1.516 . S
C1422 C1421 1.516 . S
C1422 C1423 1.502 1_455 S
C1422 C1424 1.561 . S
C1422 C1425 1.526 . S
C1423 H1407 0.959 . S
C1423 H1408 0.959 . S
C1423 H1409 0.961 . S
C1423 C1422 1.502 1_655 S
C1424 H1410 0.960 . S
C1424 H1411 0.961 . S
C1424 H1412 0.959 . S
C1424 C1422 1.561 . S
C1425 C1422 1.526 . S
C1425 C1426 1.396 . S
C1425 C1430 1.390 . S
C1426 C1420 1.465 . S
C1426 C1425 1.396 . S
C1426 C1427 1.399 . S
C1427 H1413 0.929 . S
C1427 C1426 1.399 . S
C1427 C1428 1.385 . S
C1428 H1414 0.931 . S
C1428 C1427 1.385 . S
C1428 C1429 1.389 . S
C1429 C1428 1.389 . S
C1429 C1430 1.387 . S
C1430 H1415 0.930 1_455 S
C1430 C1425 1.390 . S
C1430 C1429 1.387 . S
H1431 C1443 0.930 . S
H1432 C1445 0.930 . S
H1433 C1446 0.930 . S
H1434 C1450 0.959 . S
H1435 C1450 0.959 . S
H1436 C1450 0.961 . S
H1437 C1451 0.960 . S
H1438 C1451 0.961 . S
H1439 C1451 0.959 . S
H1440 C1454 0.929 . S
H1441 C1455 0.931 . S
H1442 C1457 0.930 . S
C1443 H1431 0.930 . S
C1443 C1444 1.399 1_565 S
C1443 C1448 1.399 . S
C1444 C1443 1.399 1_545 S
C1444 C1445 1.376 . S
C1445 H1432 0.930 . S
C1445 C1444 1.376 . S
C1445 C1446 1.388 . S
C1446 H1433 0.930 . S
C1446 C1445 1.388 . S
C1446 C1447 1.390 . S
C1447 C1446 1.390 . S
C1447 C1448 1.394 1_545 S
C1447 C1453 1.465 . S
C1448 C1443 1.399 . S
C1448 C1447 1.394 1_565 S
C1448 C1449 1.516 . S
C1449 C1448 1.516 . S
C1449 C1450 1.502 . S
C1449 C1451 1.561 . S
C1449 C1452 1.526 . S
C1450 H1434 0.959 . S
C1450 H1435 0.959 . S
C1450 H1436 0.961 . S
C1450 C1449 1.502 . S
C1451 H1437 0.960 . S
C1451 H1438 0.961 . S
C1451 H1439 0.959 . S
C1451 C1449 1.561 . S
C1452 C1449 1.526 . S
C1452 C1453 1.396 1_565 S
C1452 C1457 1.390 . S
C1453 C1447 1.465 . S
C1453 C1452 1.396 1_545 S
C1453 C1454 1.399 . S
C1454 H1440 0.929 . S
C1454 C1453 1.399 . S
C1454 C1455 1.385 . S
C1455 H1441 0.931 . S
C1455 C1454 1.385 . S
C1455 C1456 1.389 . S
C1456 C1455 1.389 . S
C1456 C1457 1.387 1_545 S
C1457 H1442 0.930 . S
C1457 C1452 1.390 . S
C1457 C1456 1.387 1_565 S
H1458 C1470 0.930 1_655 S
H1459 C1472 0.930 . S
H1460 C1473 0.930 . S
H1461 C1477 0.959 . S
H1462 C1477 0.959 . S
H1463 C1477 0.961 . S
H1464 C1478 0.960 . S
H1465 C1478 0.961 . S
H1466 C1478 0.959 . S
H1467 C1481 0.929 . S
H1468 C1482 0.931 . S
H1469 C1484 0.930 1_655 S
C1470 H1458 0.930 1_455 S
C1470 C1471 1.399 . S
C1470 C1475 1.399 . S
C1471 C1470 1.399 . S
C1471 C1472 1.376 . S
C1472 H1459 0.930 . S
C1472 C1471 1.376 . S
C1472 C1473 1.388 . S
C1473 H1460 0.930 . S
C1473 C1472 1.388 . S
C1473 C1474 1.390 . S
C1474 C1473 1.390 . S
C1474 C1475 1.394 . S
C1474 C1480 1.465 . S
C1475 C1470 1.399 . S
C1475 C1474 1.394 . S
C1475 C1476 1.516 1_455 S
C1476 C1475 1.516 1_655 S
C1476 C1477 1.502 . S
C1476 C1478 1.561 1_655 S
C1476 C1479 1.526 1_655 S
C1477 H1461 0.959 . S
C1477 H1462 0.959 . S
C1477 H1463 0.961 . S
C1477 C1476 1.502 . S
C1478 H1464 0.960 . S
C1478 H1465 0.961 . S
C1478 H1466 0.959 . S
C1478 C1476 1.561 1_455 S
C1479 C1476 1.526 1_455 S
C1479 C1480 1.396 . S
C1479 C1484 1.390 . S
C1480 C1474 1.465 . S
C1480 C1479 1.396 . S
C1480 C1481 1.399 . S
C1481 H1467 0.929 . S
C1481 C1480 1.399 . S
C1481 C1482 1.385 . S
C1482 H1468 0.931 . S
C1482 C1481 1.385 . S
C1482 C1483 1.389 . S
C1483 C1482 1.389 . S
C1483 C1484 1.387 . S
C1484 H1469 0.930 1_455 S
C1484 C1479 1.390 . S
C1484 C1483 1.387 . S
H1485 C1497 0.930 . S
H1486 C1499 0.930 . S
H1487 C1500 0.930 . S
H1488 C1504 0.959 . S
H1489 C1504 0.959 . S
H1490 C1504 0.961 . S
H1491 C1505 0.960 . S
H1492 C1505 0.961 . S
H1493 C1505 0.959 . S
H1494 C1508 0.929 . S
H1495 C1509 0.931 . S
H1496 C1511 0.930 . S
C1497 H1485 0.930 . S
C1497 C1498 1.399 1_565 S
C1497 C1502 1.399 . S
C1498 C1497 1.399 1_545 S
C1498 C1499 1.376 . S
C1499 H1486 0.930 . S
C1499 C1498 1.376 . S
C1499 C1500 1.388 . S
C1500 H1487 0.930 . S
C1500 C1499 1.388 . S
C1500 C1501 1.390 . S
C1501 C1500 1.390 . S
C1501 C1502 1.394 1_545 S
C1501 C1507 1.465 . S
C1502 C1497 1.399 . S
C1502 C1501 1.394 1_565 S
C1502 C1503 1.516 . S
C1503 C1502 1.516 . S
C1503 C1504 1.502 . S
C1503 C1505 1.561 . S
C1503 C1506 1.526 . S
C1504 H1488 0.959 . S
C1504 H1489 0.959 . S
C1504 H1490 0.961 . S
C1504 C1503 1.502 . S
C1505 H1491 0.960 . S
C1505 H1492 0.961 . S
C1505 H1493 0.959 . S
C1505 C1503 1.561 . S
C1506 C1503 1.526 . S
C1506 C1507 1.396 1_565 S
C1506 C1511 1.390 . S
C1507 C1501 1.465 . S
C1507 C1506 1.396 1_545 S
C1507 C1508 1.399 . S
C1508 H1494 0.929 . S
C1508 C1507 1.399 . S
C1508 C1509 1.385 . S
C1509 H1495 0.931 . S
C1509 C1508 1.385 . S
C1509 C1510 1.389 . S
C1510 C1509 1.389 . S
C1510 C1511 1.387 1_545 S
C1511 H1496 0.930 . S
C1511 C1506 1.390 . S
C1511 C1510 1.387 1_565 S
H1512 C1524 0.930 . S
H1513 C1526 0.930 1_655 S
H1514 C1527 0.927 1_655 S
H1515 C1531 0.959 . S
H1516 C1531 0.959 . S
H1517 C1531 0.961 . S
H1518 C1532 0.960 1_455 S
H1519 C1532 0.961 1_455 S
H1520 C1532 0.959 . S
H1521 C1535 0.929 1_655 S
H1522 C1536 0.931 . S
H1523 C1538 0.930 . S
C1524 H1512 0.930 . S
C1524 C1525 1.399 . S
C1524 C1529 1.399 . S
C1525 C1524 1.399 . S
C1525 C1526 1.376 . S
C1526 H1513 0.930 1_455 S
C1526 C1525 1.376 . S
C1526 C1527 1.389 . S
C1527 H1514 0.927 1_455 S
C1527 C1526 1.389 . S
C1527 C1528 1.392 . S
C1528 C1527 1.392 . S
C1528 C1529 1.394 . S
C1528 C1534 1.465 . S
C1529 C1524 1.399 . S
C1529 C1528 1.394 . S
C1529 C1530 1.516 . S
C1530 C1529 1.516 . S
C1530 C1531 1.502 . S
C1530 C1532 1.561 1_455 S
C1530 C1533 1.526 . S
C1531 H1515 0.959 . S
C1531 H1516 0.959 . S
C1531 H1517 0.961 . S
C1531 C1530 1.502 . S
C1532 H1518 0.960 1_655 S
C1532 H1519 0.961 1_655 S
C1532 H1520 0.959 . S
C1532 C1530 1.561 1_655 S
C1533 C1530 1.526 . S
C1533 C1534 1.396 . S
C1533 C1538 1.390 . S
C1534 C1528 1.465 . S
C1534 C1533 1.396 . S
C1534 C1535 1.399 . S
C1535 H1521 0.929 1_455 S
C1535 C1534 1.399 . S
C1535 C1536 1.385 . S
C1536 H1522 0.931 . S
C1536 C1535 1.385 . S
C1536 C1537 1.389 . S
C1537 C1536 1.389 . S
C1537 C1538 1.387 . S
C1538 H1523 0.930 . S
C1538 C1533 1.390 . S
C1538 C1537 1.387 . S
H1539 C1551 0.930 . S
H1540 C1553 0.930 . S
H1541 C1554 0.930 . S
H1542 C1558 0.959 . S
H1543 C1558 0.959 . S
H1544 C1558 0.961 . S
H1545 C1559 0.960 . S
H1546 C1559 0.961 . S
H1547 C1559 0.959 . S
H1548 C1562 0.929 . S
H1549 C1563 0.931 . S
H1550 C1565 0.930 . S
C1551 H1539 0.930 . S
C1551 C1552 1.399 1_545 S
C1551 C1556 1.399 . S
C1552 C1551 1.399 1_565 S
C1552 C1553 1.376 . S
C1553 H1540 0.930 . S
C1553 C1552 1.376 . S
C1553 C1554 1.388 . S
C1554 H1541 0.930 . S
C1554 C1553 1.388 . S
C1554 C1555 1.390 . S
C1555 C1554 1.390 . S
C1555 C1556 1.394 1_565 S
C1555 C1561 1.465 . S
C1556 C1551 1.399 . S
C1556 C1555 1.394 1_545 S
C1556 C1557 1.516 . S
C1557 C1556 1.516 . S
C1557 C1558 1.502 . S
C1557 C1559 1.561 . S
C1557 C1560 1.526 . S
C1558 H1542 0.959 . S
C1558 H1543 0.959 . S
C1558 H1544 0.961 . S
C1558 C1557 1.502 . S
C1559 H1545 0.960 . S
C1559 H1546 0.961 . S
C1559 H1547 0.959 . S
C1559 C1557 1.561 . S
C1560 C1557 1.526 . S
C1560 C1561 1.396 1_545 S
C1560 C1565 1.390 . S
C1561 C1555 1.465 . S
C1561 C1560 1.396 1_565 S
C1561 C1562 1.399 . S
C1562 H1548 0.929 . S
C1562 C1561 1.399 . S
C1562 C1563 1.385 . S
C1563 H1549 0.931 . S
C1563 C1562 1.385 . S
C1563 C1564 1.389 . S
C1564 C1563 1.389 . S
C1564 C1565 1.387 1_565 S
C1565 H1550 0.930 . S
C1565 C1560 1.390 . S
C1565 C1564 1.387 1_545 S
H1566 C1578 0.930 . S
H1567 C1580 0.928 1_655 S
H1568 C1581 0.930 1_655 S
H1569 C1585 0.959 . S
H1570 C1585 0.959 . S
H1571 C1585 0.961 . S
H1572 C1586 0.960 . S
H1573 C1586 0.962 . S
H1574 C1586 0.959 . S
H1575 C1589 0.924 1_655 S
H1576 C1590 0.931 . S
H1577 C1592 0.930 . S
C1578 H1566 0.930 . S
C1578 C1579 1.399 . S
C1578 C1583 1.399 . S
C1579 C1578 1.399 . S
C1579 C1580 1.376 . S
C1580 H1567 0.928 1_455 S
C1580 C1579 1.376 . S
C1580 C1581 1.388 . S
C1581 H1568 0.930 1_455 S
C1581 C1580 1.388 . S
C1581 C1582 1.390 . S
C1582 C1581 1.390 . S
C1582 C1583 1.394 . S
C1582 C1588 1.465 . S
C1583 C1578 1.399 . S
C1583 C1582 1.394 . S
C1583 C1584 1.516 . S
C1584 C1583 1.516 . S
C1584 C1585 1.502 . S
C1584 C1586 1.561 1_455 S
C1584 C1587 1.526 . S
C1585 H1569 0.959 . S
C1585 H1570 0.959 . S
C1585 H1571 0.961 . S
C1585 C1584 1.502 . S
C1586 H1572 0.960 . S
C1586 H1573 0.962 . S
C1586 H1574 0.959 . S
C1586 C1584 1.561 1_655 S
C1587 C1584 1.526 . S
C1587 C1588 1.396 . S
C1587 C1592 1.390 . S
C1588 C1582 1.465 . S
C1588 C1587 1.396 . S
C1588 C1589 1.399 . S
C1589 H1575 0.924 1_455 S
C1589 C1588 1.399 . S
C1589 C1590 1.385 . S
C1590 H1576 0.931 . S
C1590 C1589 1.385 . S
C1590 C1591 1.389 . S
C1591 C1590 1.389 . S
C1591 C1592 1.387 . S
C1592 H1577 0.930 . S
C1592 C1587 1.390 . S
C1592 C1591 1.387 . S
H1593 C1605 0.930 . S
H1594 C1607 0.930 . S
H1595 C1608 0.930 . S
H1596 C1612 0.959 . S
H1597 C1612 0.959 . S
H1598 C1612 0.961 . S
H1599 C1613 0.960 . S
H1600 C1613 0.961 . S
H1601 C1613 0.959 . S
H1602 C1616 0.929 . S
H1603 C1617 0.931 . S
H1604 C1619 0.930 . S
C1605 H1593 0.930 . S
C1605 C1606 1.399 1_565 S
C1605 C1610 1.399 . S
C1606 C1605 1.399 1_545 S
C1606 C1607 1.376 . S
C1607 H1594 0.930 . S
C1607 C1606 1.376 . S
C1607 C1608 1.388 . S
C1608 H1595 0.930 . S
C1608 C1607 1.388 . S
C1608 C1609 1.390 . S
C1609 C1608 1.390 . S
C1609 C1610 1.394 1_545 S
C1609 C1615 1.465 . S
C1610 C1605 1.399 . S
C1610 C1609 1.394 1_565 S
C1610 C1611 1.516 . S
C1611 C1610 1.516 . S
C1611 C1612 1.502 . S
C1611 C1613 1.561 . S
C1611 C1614 1.526 . S
C1612 H1596 0.959 . S
C1612 H1597 0.959 . S
C1612 H1598 0.961 . S
C1612 C1611 1.502 . S
C1613 H1599 0.960 . S
C1613 H1600 0.961 . S
C1613 H1601 0.959 . S
C1613 C1611 1.561 . S
C1614 C1611 1.526 . S
C1614 C1615 1.396 1_565 S
C1614 C1619 1.390 . S
C1615 C1609 1.465 . S
C1615 C1614 1.396 1_545 S
C1615 C1616 1.399 . S
C1616 H1602 0.929 . S
C1616 C1615 1.399 . S
C1616 C1617 1.385 . S
C1617 H1603 0.931 . S
C1617 C1616 1.385 . S
C1617 C1618 1.389 . S
C1618 C1617 1.389 . S
C1618 C1619 1.387 1_545 S
C1619 H1604 0.930 . S
C1619 C1614 1.390 . S
C1619 C1618 1.387 1_565 S
H1620 C1632 0.930 . S
H1621 C1634 0.930 . S
H1622 C1635 0.930 . S
H1623 C1639 0.959 . S
H1624 C1639 0.959 . S
H1625 C1639 0.961 . S
H1626 C1640 0.960 . S
H1627 C1640 0.961 . S
H1628 C1640 0.959 . S
H1629 C1643 0.929 . S
H1630 C1644 0.931 . S
H1631 C1646 0.930 . S
C1632 H1620 0.930 . S
C1632 C1633 1.399 1_565 S
C1632 C1637 1.399 . S
C1633 C1632 1.399 1_545 S
C1633 C1634 1.376 . S
C1634 H1621 0.930 . S
C1634 C1633 1.376 . S
C1634 C1635 1.388 . S
C1635 H1622 0.930 . S
C1635 C1634 1.388 . S
C1635 C1636 1.390 . S
C1636 C1635 1.390 . S
C1636 C1637 1.394 1_545 S
C1636 C1642 1.465 . S
C1637 C1632 1.399 . S
C1637 C1636 1.394 1_565 S
C1637 C1638 1.516 . S
C1638 C1637 1.516 . S
C1638 C1639 1.502 . S
C1638 C1640 1.561 . S
C1638 C1641 1.526 . S
C1639 H1623 0.959 . S
C1639 H1624 0.959 . S
C1639 H1625 0.961 . S
C1639 C1638 1.502 . S
C1640 H1626 0.960 . S
C1640 H1627 0.961 . S
C1640 H1628 0.959 . S
C1640 C1638 1.561 . S
C1641 C1638 1.526 . S
C1641 C1642 1.396 1_565 S
C1641 C1646 1.390 . S
C1642 C1636 1.465 . S
C1642 C1641 1.396 1_545 S
C1642 C1643 1.399 . S
C1643 H1629 0.929 . S
C1643 C1642 1.399 . S
C1643 C1644 1.385 . S
C1644 H1630 0.931 . S
C1644 C1643 1.385 . S
C1644 C1645 1.389 . S
C1645 C1644 1.389 . S
C1645 C1646 1.387 1_545 S
C1646 H1631 0.930 . S
C1646 C1641 1.390 . S
C1646 C1645 1.387 1_565 S
H1647 C1659 0.930 . S
H1648 C1661 0.930 . S
H1649 C1662 0.930 . S
H1650 C1666 0.959 . S
H1651 C1666 0.959 . S
H1652 C1666 0.961 . S
H1653 C1667 0.960 . S
H1654 C1667 0.961 . S
H1655 C1667 0.959 . S
H1656 C1670 0.929 . S
H1657 C1671 0.931 . S
H1658 C1673 0.930 . S
C1659 H1647 0.930 . S
C1659 C1660 1.399 1_655 S
C1659 C1664 1.399 . S
C1660 C1659 1.399 1_455 S
C1660 C1661 1.376 . S
C1661 H1648 0.930 . S
C1661 C1660 1.376 . S
C1661 C1662 1.388 . S
C1662 H1649 0.930 . S
C1662 C1661 1.388 . S
C1662 C1663 1.390 . S
C1663 C1662 1.390 . S
C1663 C1664 1.394 1_455 S
C1663 C1669 1.465 . S
C1664 C1659 1.399 . S
C1664 C1663 1.394 1_655 S
C1664 C1665 1.516 . S
C1665 C1664 1.516 . S
C1665 C1666 1.502 . S
C1665 C1667 1.561 . S
C1665 C1668 1.526 . S
C1666 H1650 0.959 . S
C1666 H1651 0.959 . S
C1666 H1652 0.961 . S
C1666 C1665 1.502 . S
C1667 H1653 0.960 . S
C1667 H1654 0.961 . S
C1667 H1655 0.959 . S
C1667 C1665 1.561 . S
C1668 C1665 1.526 . S
C1668 C1669 1.396 1_655 S
C1668 C1673 1.390 . S
C1669 C1663 1.465 . S
C1669 C1668 1.396 1_455 S
C1669 C1670 1.399 . S
C1670 H1656 0.929 . S
C1670 C1669 1.399 . S
C1670 C1671 1.385 . S
C1671 H1657 0.931 . S
C1671 C1670 1.385 . S
C1671 C1672 1.389 . S
C1672 C1671 1.389 . S
C1672 C1673 1.387 1_455 S
C1673 H1658 0.930 . S
C1673 C1668 1.390 . S
C1673 C1672 1.387 1_655 S
H1674 C1686 0.930 . S
H1675 C1688 0.930 . S
H1676 C1689 0.930 . S
H1677 C1693 0.959 . S
H1678 C1693 0.959 . S
H1679 C1693 0.961 . S
H1680 C1694 0.960 . S
H1681 C1694 0.961 . S
H1682 C1694 0.959 . S
H1683 C1697 0.929 . S
H1684 C1698 0.931 . S
H1685 C1700 0.930 . S
C1686 H1674 0.930 . S
C1686 C1687 1.399 1_565 S
C1686 C1691 1.399 . S
C1687 C1686 1.399 1_545 S
C1687 C1688 1.376 . S
C1688 H1675 0.930 . S
C1688 C1687 1.376 . S
C1688 C1689 1.388 . S
C1689 H1676 0.930 . S
C1689 C1688 1.388 . S
C1689 C1690 1.390 . S
C1690 C1689 1.390 . S
C1690 C1691 1.394 1_545 S
C1690 C1696 1.465 . S
C1691 C1686 1.399 . S
C1691 C1690 1.394 1_565 S
C1691 C1692 1.516 . S
C1692 C1691 1.516 . S
C1692 C1693 1.502 . S
C1692 C1694 1.561 . S
C1692 C1695 1.526 . S
C1693 H1677 0.959 . S
C1693 H1678 0.959 . S
C1693 H1679 0.961 . S
C1693 C1692 1.502 . S
C1694 H1680 0.960 . S
C1694 H1681 0.961 . S
C1694 H1682 0.959 . S
C1694 C1692 1.561 . S
C1695 C1692 1.526 . S
C1695 C1696 1.396 1_565 S
C1695 C1700 1.390 . S
C1696 C1690 1.465 . S
C1696 C1695 1.396 1_545 S
C1696 C1697 1.399 . S
C1697 H1683 0.929 . S
C1697 C1696 1.399 . S
C1697 C1698 1.385 . S
C1698 H1684 0.931 . S
C1698 C1697 1.385 . S
C1698 C1699 1.389 . S
C1699 C1698 1.389 . S
C1699 C1700 1.387 1_545 S
C1700 H1685 0.930 . S
C1700 C1695 1.390 . S
C1700 C1699 1.387 1_565 S
H1701 C1713 0.930 . S
H1702 C1715 0.935 . S
H1703 C1716 0.930 . S
H1704 C1720 0.959 . S
H1705 C1720 0.959 . S
H1706 C1720 0.961 . S
H1707 C1721 0.960 . S
H1708 C1721 0.961 . S
H1709 C1721 0.959 . S
H1710 C1724 0.929 . S
H1711 C1725 0.931 . S
H1712 C1727 0.930 . S
C1713 H1701 0.930 . S
C1713 C1714 1.399 . S
C1713 C1718 1.399 . S
C1714 C1713 1.399 . S
C1714 C1715 1.370 1_455 S
C1715 H1702 0.935 . S
C1715 C1714 1.370 1_655 S
C1715 C1716 1.390 . S
C1716 H1703 0.930 . S
C1716 C1715 1.390 . S
C1716 C1717 1.390 1_655 S
C1717 C1716 1.390 1_455 S
C1717 C1718 1.394 . S
C1717 C1723 1.465 . S
C1718 C1713 1.399 . S
C1718 C1717 1.394 . S
C1718 C1719 1.516 . S
C1719 C1718 1.516 . S
C1719 C1720 1.502 . S
C1719 C1721 1.561 1_455 S
C1719 C1722 1.526 . S
C1720 H1704 0.959 . S
C1720 H1705 0.959 . S
C1720 H1706 0.961 . S
C1720 C1719 1.502 . S
C1721 H1707 0.960 . S
C1721 H1708 0.961 . S
C1721 H1709 0.959 . S
C1721 C1719 1.561 1_655 S
C1722 C1719 1.526 . S
C1722 C1723 1.396 . S
C1722 C1727 1.390 . S
C1723 C1717 1.465 . S
C1723 C1722 1.396 . S
C1723 C1724 1.399 1_455 S
C1724 H1710 0.929 . S
C1724 C1723 1.399 1_655 S
C1724 C1725 1.385 . S
C1725 H1711 0.931 . S
C1725 C1724 1.385 . S
C1725 C1726 1.389 1_655 S
C1726 C1725 1.389 1_455 S
C1726 C1727 1.387 . S
C1727 H1712 0.930 . S
C1727 C1722 1.390 . S
C1727 C1726 1.387 . S
H1728 C1740 0.930 . S
H1729 C1742 0.930 . S
H1730 C1743 0.930 . S
H1731 C1747 0.959 . S
H1732 C1747 0.959 . S
H1733 C1747 0.961 . S
H1734 C1748 0.960 . S
H1735 C1748 0.961 . S
H1736 C1748 0.959 . S
H1737 C1751 0.929 . S
H1738 C1752 0.931 . S
H1739 C1754 0.930 . S
C1740 H1728 0.930 . S
C1740 C1741 1.399 1_565 S
C1740 C1745 1.399 . S
C1741 C1740 1.399 1_545 S
C1741 C1742 1.376 . S
C1742 H1729 0.930 . S
C1742 C1741 1.376 . S
C1742 C1743 1.388 . S
C1743 H1730 0.930 . S
C1743 C1742 1.388 . S
C1743 C1744 1.390 . S
C1744 C1743 1.390 . S
C1744 C1745 1.394 1_545 S
C1744 C1750 1.465 . S
C1745 C1740 1.399 . S
C1745 C1744 1.394 1_565 S
C1745 C1746 1.516 . S
C1746 C1745 1.516 . S
C1746 C1747 1.502 . S
C1746 C1748 1.561 . S
C1746 C1749 1.526 . S
C1747 H1731 0.959 . S
C1747 H1732 0.959 . S
C1747 H1733 0.961 . S
C1747 C1746 1.502 . S
C1748 H1734 0.960 . S
C1748 H1735 0.961 . S
C1748 H1736 0.959 . S
C1748 C1746 1.561 . S
C1749 C1746 1.526 . S
C1749 C1750 1.396 1_565 S
C1749 C1754 1.390 . S
C1750 C1744 1.465 . S
C1750 C1749 1.396 1_545 S
C1750 C1751 1.399 . S
C1751 H1737 0.929 . S
C1751 C1750 1.399 . S
C1751 C1752 1.385 . S
C1752 H1738 0.931 . S
C1752 C1751 1.385 . S
C1752 C1753 1.389 . S
C1753 C1752 1.389 . S
C1753 C1754 1.387 1_545 S
C1754 H1739 0.930 . S
C1754 C1749 1.390 . S
C1754 C1753 1.387 1_565 S
H1755 C1767 0.930 . S
H1756 C1769 0.930 . S
H1757 C1770 0.930 . S
H1758 C1774 0.959 . S
H1759 C1774 0.959 . S
H1760 C1774 0.961 . S
H1761 C1775 0.960 . S
H1762 C1775 0.961 . S
H1763 C1775 0.959 . S
H1764 C1778 0.929 . S
H1765 C1779 0.931 . S
H1766 C1781 0.930 . S
C1767 H1755 0.930 . S
C1767 C1768 1.399 . S
C1767 C1772 1.399 . S
C1768 C1767 1.399 . S
C1768 C1769 1.376 . S
C1769 H1756 0.930 . S
C1769 C1768 1.376 . S
C1769 C1770 1.388 . S
C1770 H1757 0.930 . S
C1770 C1769 1.388 . S
C1770 C1771 1.390 . S
C1771 C1770 1.390 . S
C1771 C1772 1.394 . S
C1771 C1777 1.465 . S
C1772 C1767 1.399 . S
C1772 C1771 1.394 . S
C1772 C1773 1.516 . S
C1773 C1772 1.516 . S
C1773 C1774 1.502 1_455 S
C1773 C1775 1.561 . S
C1773 C1776 1.526 . S
C1774 H1758 0.959 . S
C1774 H1759 0.959 . S
C1774 H1760 0.961 . S
C1774 C1773 1.502 1_655 S
C1775 H1761 0.960 . S
C1775 H1762 0.961 . S
C1775 H1763 0.959 . S
C1775 C1773 1.561 . S
C1776 C1773 1.526 . S
C1776 C1777 1.396 . S
C1776 C1781 1.390 . S
C1777 C1771 1.465 . S
C1777 C1776 1.396 . S
C1777 C1778 1.399 . S
C1778 H1764 0.929 . S
C1778 C1777 1.399 . S
C1778 C1779 1.385 . S
C1779 H1765 0.931 . S
C1779 C1778 1.385 . S
C1779 C1780 1.389 . S
C1780 C1779 1.389 . S
C1780 C1781 1.387 . S
C1781 H1766 0.930 . S
C1781 C1776 1.390 . S
C1781 C1780 1.387 . S
H1782 C1794 0.930 . S
H1783 C1796 0.930 . S
H1784 C1797 0.930 . S
H1785 C1801 0.959 . S
H1786 C1801 0.959 . S
H1787 C1801 0.961 . S
H1788 C1802 0.960 . S
H1789 C1802 0.961 . S
H1790 C1802 0.959 . S
H1791 C1805 0.929 . S
H1792 C1806 0.931 . S
H1793 C1808 0.930 . S
C1794 H1782 0.930 . S
C1794 C1795 1.399 1_545 S
C1794 C1799 1.399 . S
C1795 C1794 1.399 1_565 S
C1795 C1796 1.376 . S
C1796 H1783 0.930 . S
C1796 C1795 1.376 . S
C1796 C1797 1.388 . S
C1797 H1784 0.930 . S
C1797 C1796 1.388 . S
C1797 C1798 1.390 . S
C1798 C1797 1.390 . S
C1798 C1799 1.394 1_565 S
C1798 C1804 1.465 . S
C1799 C1794 1.399 . S
C1799 C1798 1.394 1_545 S
C1799 C1800 1.516 . S
C1800 C1799 1.516 . S
C1800 C1801 1.502 . S
C1800 C1802 1.561 . S
C1800 C1803 1.526 . S
C1801 H1785 0.959 . S
C1801 H1786 0.959 . S
C1801 H1787 0.961 . S
C1801 C1800 1.502 . S
C1802 H1788 0.960 . S
C1802 H1789 0.961 . S
C1802 H1790 0.959 . S
C1802 C1800 1.561 . S
C1803 C1800 1.526 . S
C1803 C1804 1.396 1_545 S
C1803 C1808 1.390 . S
C1804 C1798 1.465 . S
C1804 C1803 1.396 1_565 S
C1804 C1805 1.399 . S
C1805 H1791 0.929 . S
C1805 C1804 1.399 . S
C1805 C1806 1.385 . S
C1806 H1792 0.931 . S
C1806 C1805 1.385 . S
C1806 C1807 1.389 . S
C1807 C1806 1.389 . S
C1807 C1808 1.387 1_565 S
C1808 H1793 0.930 . S
C1808 C1803 1.390 . S
C1808 C1807 1.387 1_545 S
H1809 C1821 0.914 1_655 S
H1810 C1823 0.930 . S
H1811 C1824 0.930 . S
H1812 C1828 0.959 . S
H1813 C1828 0.959 . S
H1814 C1828 0.961 . S
H1815 C1829 0.960 . S
H1816 C1829 0.961 . S
H1817 C1829 0.959 . S
H1818 C1832 0.929 . S
H1819 C1833 0.931 . S
H1820 C1835 0.930 . S
C1821 H1809 0.914 1_455 S
C1821 C1822 1.412 . S
C1821 C1826 1.403 . S
C1822 C1821 1.412 . S
C1822 C1823 1.376 . S
C1823 H1810 0.930 . S
C1823 C1822 1.376 . S
C1823 C1824 1.388 . S
C1824 H1811 0.930 . S
C1824 C1823 1.388 . S
C1824 C1825 1.390 . S
C1825 C1824 1.390 . S
C1825 C1826 1.394 . S
C1825 C1831 1.465 . S
C1826 C1821 1.403 . S
C1826 C1825 1.394 . S
C1826 C1827 1.516 1_455 S
C1827 C1826 1.516 1_655 S
C1827 C1828 1.502 . S
C1827 C1829 1.561 1_655 S
C1827 C1830 1.526 1_655 S
C1828 H1812 0.959 . S
C1828 H1813 0.959 . S
C1828 H1814 0.961 . S
C1828 C1827 1.502 . S
C1829 H1815 0.960 . S
C1829 H1816 0.961 . S
C1829 H1817 0.959 . S
C1829 C1827 1.561 1_455 S
C1830 C1827 1.526 1_455 S
C1830 C1831 1.396 . S
C1830 C1835 1.390 1_455 S
C1831 C1825 1.465 . S
C1831 C1830 1.396 . S
C1831 C1832 1.399 . S
C1832 H1818 0.929 . S
C1832 C1831 1.399 . S
C1832 C1833 1.385 . S
C1833 H1819 0.931 . S
C1833 C1832 1.385 . S
C1833 C1834 1.389 . S
C1834 C1833 1.389 . S
C1834 C1835 1.387 1_455 S
C1835 H1820 0.930 . S
C1835 C1830 1.390 1_655 S
C1835 C1834 1.387 1_655 S
H1836 C1848 0.930 . S
H1837 C1850 0.930 . S
H1838 C1851 0.930 . S
H1839 C1855 0.959 . S
H1840 C1855 0.959 . S
H1841 C1855 0.961 . S
H1842 C1856 0.960 . S
H1843 C1856 0.961 . S
H1844 C1856 0.959 . S
H1845 C1859 0.929 . S
H1846 C1860 0.931 . S
H1847 C1862 0.930 . S
C1848 H1836 0.930 . S
C1848 C1849 1.399 1_556 S
C1848 C1853 1.399 . S
C1849 C1848 1.399 1_554 S
C1849 C1850 1.376 . S
C1850 H1837 0.930 . S
C1850 C1849 1.376 . S
C1850 C1851 1.388 . S
C1851 H1838 0.930 . S
C1851 C1850 1.388 . S
C1851 C1852 1.390 . S
C1852 C1851 1.390 . S
C1852 C1853 1.394 1_554 S
C1852 C1858 1.465 . S
C1853 C1848 1.399 . S
C1853 C1852 1.394 1_556 S
C1853 C1854 1.516 . S
C1854 C1853 1.516 . S
C1854 C1855 1.502 . S
C1854 C1856 1.561 . S
C1854 C1857 1.526 . S
C1855 H1839 0.959 . S
C1855 H1840 0.959 . S
C1855 H1841 0.961 . S
C1855 C1854 1.502 . S
C1856 H1842 0.960 . S
C1856 H1843 0.961 . S
C1856 H1844 0.959 . S
C1856 C1854 1.561 . S
C1857 C1854 1.526 . S
C1857 C1858 1.396 1_556 S
C1857 C1862 1.390 . S
C1858 C1852 1.465 . S
C1858 C1857 1.396 1_554 S
C1858 C1859 1.399 . S
C1859 H1845 0.929 . S
C1859 C1858 1.399 . S
C1859 C1860 1.385 . S
C1860 H1846 0.931 . S
C1860 C1859 1.385 . S
C1860 C1861 1.389 . S
C1861 C1860 1.389 . S
C1861 C1862 1.387 1_554 S
C1862 H1847 0.930 . S
C1862 C1857 1.390 . S
C1862 C1861 1.387 1_556 S
H1863 C1875 0.930 . S
H1864 C1877 0.930 . S
H1865 C1878 0.930 . S
H1866 C1882 0.959 . S
H1867 C1882 0.959 . S
H1868 C1882 0.961 . S
H1869 C1883 0.960 . S
H1870 C1883 0.961 . S
H1871 C1883 0.959 . S
H1872 C1886 0.929 . S
H1873 C1887 0.931 . S
H1874 C1889 0.930 . S
C1875 H1863 0.930 . S
C1875 C1876 1.399 1_556 S
C1875 C1880 1.399 . S
C1876 C1875 1.399 1_554 S
C1876 C1877 1.376 . S
C1877 H1864 0.930 . S
C1877 C1876 1.376 . S
C1877 C1878 1.388 . S
C1878 H1865 0.930 . S
C1878 C1877 1.388 . S
C1878 C1879 1.390 . S
C1879 C1878 1.390 . S
C1879 C1880 1.394 1_554 S
C1879 C1885 1.465 . S
C1880 C1875 1.399 . S
C1880 C1879 1.394 1_556 S
C1880 C1881 1.516 . S
C1881 C1880 1.516 . S
C1881 C1882 1.502 . S
C1881 C1883 1.561 . S
C1881 C1884 1.526 . S
C1882 H1866 0.959 . S
C1882 H1867 0.959 . S
C1882 H1868 0.961 . S
C1882 C1881 1.502 . S
C1883 H1869 0.960 . S
C1883 H1870 0.961 . S
C1883 H1871 0.959 . S
C1883 C1881 1.561 . S
C1884 C1881 1.526 . S
C1884 C1885 1.396 1_556 S
C1884 C1889 1.390 . S
C1885 C1879 1.465 . S
C1885 C1884 1.396 1_554 S
C1885 C1886 1.399 . S
C1886 H1872 0.929 . S
C1886 C1885 1.399 . S
C1886 C1887 1.385 . S
C1887 H1873 0.931 . S
C1887 C1886 1.385 . S
C1887 C1888 1.389 . S
C1888 C1887 1.389 . S
C1888 C1889 1.387 1_554 S
C1889 H1874 0.930 . S
C1889 C1884 1.390 . S
C1889 C1888 1.387 1_556 S
H1890 C1902 0.930 . S
H1891 C1904 0.930 . S
H1892 C1905 0.930 . S
H1893 C1909 0.959 . S
H1894 C1909 0.959 . S
H1895 C1909 0.961 . S
H1896 C1910 0.960 . S
H1897 C1910 0.961 . S
H1898 C1910 0.959 . S
H1899 C1913 0.929 . S
H1900 C1914 0.931 . S
H1901 C1916 0.930 . S
C1902 H1890 0.930 . S
C1902 C1903 1.399 . S
C1902 C1907 1.399 . S
C1903 C1902 1.399 . S
C1903 C1904 1.376 1_554 S
C1904 H1891 0.930 . S
C1904 C1903 1.376 1_556 S
C1904 C1905 1.388 . S
C1905 H1892 0.930 . S
C1905 C1904 1.388 . S
C1905 C1906 1.390 . S
C1906 C1905 1.390 . S
C1906 C1907 1.394 1_556 S
C1906 C1912 1.466 . S
C1907 C1902 1.399 . S
C1907 C1906 1.394 1_554 S
C1907 C1908 1.516 . S
C1908 C1907 1.516 . S
C1908 C1909 1.502 . S
C1908 C1910 1.561 . S
C1908 C1911 1.526 . S
C1909 H1893 0.959 . S
C1909 H1894 0.959 . S
C1909 H1895 0.961 . S
C1909 C1908 1.502 . S
C1910 H1896 0.960 . S
C1910 H1897 0.961 . S
C1910 H1898 0.959 . S
C1910 C1908 1.561 . S
C1911 C1908 1.526 . S
C1911 C1912 1.366 1_554 S
C1911 C1916 1.390 . S
C1912 C1906 1.466 . S
C1912 C1911 1.366 1_556 S
C1912 C1913 1.423 . S
C1913 H1899 0.929 . S
C1913 C1912 1.423 . S
C1913 C1914 1.385 . S
C1914 H1900 0.931 . S
C1914 C1913 1.385 . S
C1914 C1915 1.389 1_556 S
C1915 C1914 1.389 1_554 S
C1915 C1916 1.387 . S
C1916 H1901 0.930 . S
C1916 C1911 1.390 . S
C1916 C1915 1.387 . S
H1917 C1929 0.930 . S
H1918 C1931 0.930 . S
H1919 C1932 0.930 . S
H1920 C1936 0.959 . S
H1921 C1936 0.959 . S
H1922 C1936 0.961 . S
H1923 C1937 0.960 . S
H1924 C1937 0.961 . S
H1925 C1937 0.959 . S
H1926 C1940 0.929 . S
H1927 C1941 0.931 . S
H1928 C1943 0.930 . S
C1929 H1917 0.930 . S
C1929 C1930 1.399 1_556 S
C1929 C1934 1.399 . S
C1930 C1929 1.399 1_554 S
C1930 C1931 1.376 . S
C1931 H1918 0.930 . S
C1931 C1930 1.376 . S
C1931 C1932 1.388 . S
C1932 H1919 0.930 . S
C1932 C1931 1.388 . S
C1932 C1933 1.390 . S
C1933 C1932 1.390 . S
C1933 C1934 1.394 1_554 S
C1933 C1939 1.465 . S
C1934 C1929 1.399 . S
C1934 C1933 1.394 1_556 S
C1934 C1935 1.516 . S
C1935 C1934 1.516 . S
C1935 C1936 1.502 . S
C1935 C1937 1.561 . S
C1935 C1938 1.526 . S
C1936 H1920 0.959 . S
C1936 H1921 0.959 . S
C1936 H1922 0.961 . S
C1936 C1935 1.502 . S
C1937 H1923 0.960 . S
C1937 H1924 0.961 . S
C1937 H1925 0.959 . S
C1937 C1935 1.561 . S
C1938 C1935 1.526 . S
C1938 C1939 1.396 1_556 S
C1938 C1943 1.390 . S
C1939 C1933 1.465 . S
C1939 C1938 1.396 1_554 S
C1939 C1940 1.399 . S
C1940 H1926 0.929 . S
C1940 C1939 1.399 . S
C1940 C1941 1.385 . S
C1941 H1927 0.931 . S
C1941 C1940 1.385 . S
C1941 C1942 1.389 . S
C1942 C1941 1.389 . S
C1942 C1943 1.387 1_554 S
C1943 H1928 0.930 . S
C1943 C1938 1.390 . S
C1943 C1942 1.387 1_556 S
H1944 C1956 0.930 . S
H1945 C1958 0.930 . S
H1946 C1959 0.930 . S
H1947 C1963 0.959 . S
H1948 C1963 0.959 . S
H1949 C1963 0.961 . S
H1950 C1964 0.960 . S
H1951 C1964 0.961 . S
H1952 C1964 0.959 . S
H1953 C1967 0.929 . S
H1954 C1968 0.931 . S
H1955 C1970 0.930 . S
C1956 H1944 0.930 . S
C1956 C1957 1.399 1_556 S
C1956 C1961 1.399 . S
C1957 C1956 1.399 1_554 S
C1957 C1958 1.376 . S
C1958 H1945 0.930 . S
C1958 C1957 1.376 . S
C1958 C1959 1.388 . S
C1959 H1946 0.930 . S
C1959 C1958 1.388 . S
C1959 C1960 1.390 . S
C1960 C1959 1.390 . S
C1960 C1961 1.394 1_554 S
C1960 C1966 1.465 . S
C1961 C1956 1.399 . S
C1961 C1960 1.394 1_556 S
C1961 C1962 1.516 . S
C1962 C1961 1.516 . S
C1962 C1963 1.502 . S
C1962 C1964 1.561 . S
C1962 C1965 1.526 1_556 S
C1963 H1947 0.959 . S
C1963 H1948 0.959 . S
C1963 H1949 0.961 . S
C1963 C1962 1.502 . S
C1964 H1950 0.960 . S
C1964 H1951 0.961 . S
C1964 H1952 0.959 . S
C1964 C1962 1.561 . S
C1965 C1962 1.526 1_554 S
C1965 C1966 1.395 . S
C1965 C1970 1.390 1_554 S
C1966 C1960 1.465 . S
C1966 C1965 1.395 . S
C1966 C1967 1.399 . S
C1967 H1953 0.929 . S
C1967 C1966 1.399 . S
C1967 C1968 1.385 . S
C1968 H1954 0.931 . S
C1968 C1967 1.385 . S
C1968 C1969 1.389 . S
C1969 C1968 1.389 . S
C1969 C1970 1.387 1_554 S
C1970 H1955 0.930 . S
C1970 C1965 1.390 1_556 S
C1970 C1969 1.387 1_556 S
H1971 C1983 0.930 . S
H1972 C1985 0.930 . S
H1973 C1986 0.930 . S
H1974 C1990 0.959 . S
H1975 C1990 0.959 . S
H1976 C1990 0.961 . S
H1977 C1991 0.960 . S
H1978 C1991 0.961 . S
H1979 C1991 0.959 . S
H1980 C1994 0.929 . S
H1981 C1995 0.931 . S
H1982 C1997 0.930 . S
C1983 H1971 0.930 . S
C1983 C1984 1.399 . S
C1983 C1988 1.399 . S
C1984 C1983 1.399 . S
C1984 C1985 1.376 1_554 S
C1985 H1972 0.930 . S
C1985 C1984 1.376 1_556 S
C1985 C1986 1.388 . S
C1986 H1973 0.930 . S
C1986 C1985 1.388 . S
C1986 C1987 1.390 . S
C1987 C1986 1.390 . S
C1987 C1988 1.394 1_556 S
C1987 C1993 1.465 . S
C1988 C1983 1.399 . S
C1988 C1987 1.394 1_554 S
C1988 C1989 1.516 . S
C1989 C1988 1.516 . S
C1989 C1990 1.502 . S
C1989 C1991 1.561 . S
C1989 C1992 1.526 . S
C1990 H1974 0.959 . S
C1990 H1975 0.959 . S
C1990 H1976 0.961 . S
C1990 C1989 1.502 . S
C1991 H1977 0.960 . S
C1991 H1978 0.961 . S
C1991 H1979 0.959 . S
C1991 C1989 1.561 . S
C1992 C1989 1.526 . S
C1992 C1993 1.396 1_554 S
C1992 C1997 1.390 . S
C1993 C1987 1.465 . S
C1993 C1992 1.396 1_556 S
C1993 C1994 1.399 . S
C1994 H1980 0.929 . S
C1994 C1993 1.399 . S
C1994 C1995 1.385 . S
C1995 H1981 0.931 . S
C1995 C1994 1.385 . S
C1995 C1996 1.386 1_556 S
C1996 C1995 1.386 1_554 S
C1996 C1997 1.389 . S
C1997 H1982 0.930 . S
C1997 C1992 1.390 . S
C1997 C1996 1.389 . S
H1998 C2010 0.930 . S
H1999 C2012 0.930 . S
H2000 C2013 0.930 . S
H2001 C2017 0.959 . S
H2002 C2017 0.959 . S
H2003 C2017 0.961 . S
H2004 C2018 0.960 . S
H2005 C2018 0.961 . S
H2006 C2018 0.959 . S
H2007 C2021 0.929 . S
H2008 C2022 0.931 . S
H2009 C2024 0.930 . S
C2010 H1998 0.930 . S
C2010 C2011 1.399 . S
C2010 C2015 1.399 . S
C2011 C2010 1.399 . S
C2011 C2012 1.376 1_554 S
C2012 H1999 0.930 . S
C2012 C2011 1.376 1_556 S
C2012 C2013 1.388 . S
C2013 H2000 0.930 . S
C2013 C2012 1.388 . S
C2013 C2014 1.390 . S
C2014 C2013 1.390 . S
C2014 C2015 1.394 1_556 S
C2014 C2020 1.465 . S
C2015 C2010 1.399 . S
C2015 C2014 1.394 1_554 S
C2015 C2016 1.516 . S
C2016 C2015 1.516 . S
C2016 C2017 1.502 . S
C2016 C2018 1.561 . S
C2016 C2019 1.526 . S
C2017 H2001 0.959 . S
C2017 H2002 0.959 . S
C2017 H2003 0.961 . S
C2017 C2016 1.502 . S
C2018 H2004 0.960 . S
C2018 H2005 0.961 . S
C2018 H2006 0.959 . S
C2018 C2016 1.561 . S
C2019 C2016 1.526 . S
C2019 C2020 1.396 1_554 S
C2019 C2024 1.390 . S
C2020 C2014 1.465 . S
C2020 C2019 1.396 1_556 S
C2020 C2021 1.399 . S
C2021 H2007 0.929 . S
C2021 C2020 1.399 . S
C2021 C2022 1.385 . S
C2022 H2008 0.931 . S
C2022 C2021 1.385 . S
C2022 C2023 1.389 1_556 S
C2023 C2022 1.389 1_554 S
C2023 C2024 1.387 . S
C2024 H2009 0.930 . S
C2024 C2019 1.390 . S
C2024 C2023 1.387 . S
H2025 C2037 0.930 . S
H2026 C2039 0.930 1_556 S
H2027 C2040 0.930 . S
H2028 C2044 0.959 . S
H2029 C2044 0.959 . S
H2030 C2044 0.961 . S
H2031 C2045 0.960 . S
H2032 C2045 0.961 . S
H2033 C2045 0.959 . S
H2034 C2048 0.929 1_556 S
H2035 C2049 0.931 . S
H2036 C2051 0.930 . S
C2037 H2025 0.930 . S
C2037 C2038 1.399 . S
C2037 C2042 1.399 . S
C2038 C2037 1.399 . S
C2038 C2039 1.376 . S
C2039 H2026 0.930 1_554 S
C2039 C2038 1.376 . S
C2039 C2040 1.388 1_554 S
C2040 H2027 0.930 . S
C2040 C2039 1.388 1_556 S
C2040 C2041 1.389 1_556 S
C2041 C2040 1.389 1_554 S
C2041 C2042 1.394 . S
C2041 C2047 1.465 . S
C2042 C2037 1.399 . S
C2042 C2041 1.394 . S
C2042 C2043 1.516 . S
C2043 C2042 1.516 . S
C2043 C2044 1.502 . S
C2043 C2045 1.561 1_554 S
C2043 C2046 1.526 . S
C2044 H2028 0.959 . S
C2044 H2029 0.959 . S
C2044 H2030 0.961 . S
C2044 C2043 1.502 . S
C2045 H2031 0.960 . S
C2045 H2032 0.961 . S
C2045 H2033 0.959 . S
C2045 C2043 1.561 1_556 S
C2046 C2043 1.526 . S
C2046 C2047 1.396 . S
C2046 C2051 1.390 . S
C2047 C2041 1.465 . S
C2047 C2046 1.396 . S
C2047 C2048 1.399 . S
C2048 H2034 0.929 1_554 S
C2048 C2047 1.399 . S
C2048 C2049 1.385 . S
C2049 H2035 0.931 . S
C2049 C2048 1.385 . S
C2049 C2050 1.389 . S
C2050 C2049 1.389 . S
C2050 C2051 1.387 . S
C2051 H2036 0.930 . S
C2051 C2046 1.390 . S
C2051 C2050 1.387 . S
H2052 C2064 0.930 . S
H2053 C2066 0.930 . S
H2054 C2067 0.930 . S
H2055 C2071 0.959 . S
H2056 C2071 0.959 . S
H2057 C2071 0.961 . S
H2058 C2072 0.960 . S
H2059 C2072 0.961 . S
H2060 C2072 0.959 . S
H2061 C2075 0.929 . S
H2062 C2076 0.931 . S
H2063 C2078 0.930 . S
C2064 H2052 0.930 . S
C2064 C2065 1.399 . S
C2064 C2069 1.399 . S
C2065 C2064 1.399 . S
C2065 C2066 1.376 . S
C2066 H2053 0.930 . S
C2066 C2065 1.376 . S
C2066 C2067 1.388 . S
C2067 H2054 0.930 . S
C2067 C2066 1.388 . S
C2067 C2068 1.390 . S
C2068 C2067 1.390 . S
C2068 C2069 1.394 . S
C2068 C2074 1.465 . S
C2069 C2064 1.399 . S
C2069 C2068 1.394 . S
C2069 C2070 1.516 . S
C2070 C2069 1.516 . S
C2070 C2071 1.502 . S
C2070 C2072 1.561 . S
C2070 C2073 1.526 . S
C2071 H2055 0.959 . S
C2071 H2056 0.959 . S
C2071 H2057 0.961 . S
C2071 C2070 1.502 . S
C2072 H2058 0.960 . S
C2072 H2059 0.961 . S
C2072 H2060 0.959 . S
C2072 C2070 1.561 . S
C2073 C2070 1.526 . S
C2073 C2074 1.396 . S
C2073 C2078 1.390 . S
C2074 C2068 1.465 . S
C2074 C2073 1.396 . S
C2074 C2075 1.399 . S
C2075 H2061 0.929 . S
C2075 C2074 1.399 . S
C2075 C2076 1.385 . S
C2076 H2062 0.931 . S
C2076 C2075 1.385 . S
C2076 C2077 1.389 . S
C2077 C2076 1.389 . S
C2077 C2078 1.387 . S
C2078 H2063 0.930 . S
C2078 C2073 1.390 . S
C2078 C2077 1.387 . S
H2079 C2091 0.930 . S
H2080 C2093 0.930 . S
H2081 C2094 0.930 . S
H2082 C2098 0.959 . S
H2083 C2098 0.959 . S
H2084 C2098 0.961 . S
H2085 C2099 0.960 . S
H2086 C2099 0.961 . S
H2087 C2099 0.959 . S
H2088 C2102 0.929 . S
H2089 C2103 0.931 . S
H2090 C2105 0.930 . S
C2091 H2079 0.930 . S
C2091 C2092 1.399 . S
C2091 C2096 1.399 . S
C2092 C2091 1.399 . S
C2092 C2093 1.376 . S
C2093 H2080 0.930 . S
C2093 C2092 1.376 . S
C2093 C2094 1.388 . S
C2094 H2081 0.930 . S
C2094 C2093 1.388 . S
C2094 C2095 1.390 . S
C2095 C2094 1.390 . S
C2095 C2096 1.394 . S
C2095 C2101 1.465 . S
C2096 C2091 1.399 . S
C2096 C2095 1.394 . S
C2096 C2097 1.516 . S
C2097 C2096 1.516 . S
C2097 C2098 1.502 . S
C2097 C2099 1.561 . S
C2097 C2100 1.526 . S
C2098 H2082 0.959 . S
C2098 H2083 0.959 . S
C2098 H2084 0.961 . S
C2098 C2097 1.502 . S
C2099 H2085 0.960 . S
C2099 H2086 0.961 . S
C2099 H2087 0.959 . S
C2099 C2097 1.561 . S
C2100 C2097 1.526 . S
C2100 C2101 1.396 . S
C2100 C2105 1.390 . S
C2101 C2095 1.465 . S
C2101 C2100 1.396 . S
C2101 C2102 1.399 . S
C2102 H2088 0.929 . S
C2102 C2101 1.399 . S
C2102 C2103 1.385 . S
C2103 H2089 0.931 . S
C2103 C2102 1.385 . S
C2103 C2104 1.389 . S
C2104 C2103 1.389 . S
C2104 C2105 1.387 . S
C2105 H2090 0.930 . S
C2105 C2100 1.390 . S
C2105 C2104 1.387 . S
H2106 C2118 0.930 . S
H2107 C2120 0.930 . S
H2108 C2121 0.930 . S
H2109 C2125 0.959 . S
H2110 C2125 0.959 . S
H2111 C2125 0.961 . S
H2112 C2126 0.960 . S
H2113 C2126 0.961 . S
H2114 C2126 0.959 . S
H2115 C2129 0.929 . S
H2116 C2130 0.931 . S
H2117 C2132 0.930 . S
C2118 H2106 0.930 . S
C2118 C2119 1.399 . S
C2118 C2123 1.399 . S
C2119 C2118 1.399 . S
C2119 C2120 1.376 . S
C2120 H2107 0.930 . S
C2120 C2119 1.376 . S
C2120 C2121 1.388 . S
C2121 H2108 0.930 . S
C2121 C2120 1.388 . S
C2121 C2122 1.390 . S
C2122 C2121 1.390 . S
C2122 C2123 1.394 . S
C2122 C2128 1.465 . S
C2123 C2118 1.399 . S
C2123 C2122 1.394 . S
C2123 C2124 1.516 . S
C2124 C2123 1.516 . S
C2124 C2125 1.502 . S
C2124 C2126 1.561 . S
C2124 C2127 1.526 . S
C2125 H2109 0.959 . S
C2125 H2110 0.959 . S
C2125 H2111 0.961 . S
C2125 C2124 1.502 . S
C2126 H2112 0.960 . S
C2126 H2113 0.961 . S
C2126 H2114 0.959 . S
C2126 C2124 1.561 . S
C2127 C2124 1.526 . S
C2127 C2128 1.396 . S
C2127 C2132 1.390 . S
C2128 C2122 1.465 . S
C2128 C2127 1.396 . S
C2128 C2129 1.399 . S
C2129 H2115 0.929 . S
C2129 C2128 1.399 . S
C2129 C2130 1.385 . S
C2130 H2116 0.931 . S
C2130 C2129 1.385 . S
C2130 C2131 1.389 . S
C2131 C2130 1.389 . S
C2131 C2132 1.387 . S
C2132 H2117 0.930 . S
C2132 C2127 1.390 . S
C2132 C2131 1.387 . S
H2133 C2145 0.930 . S
H2134 C2147 0.930 . S
H2135 C2148 0.930 . S
H2136 C2152 0.959 . S
H2137 C2152 0.959 . S
H2138 C2152 0.961 . S
H2139 C2153 0.960 . S
H2140 C2153 0.961 . S
H2141 C2153 0.959 . S
H2142 C2156 0.929 . S
H2143 C2157 0.931 . S
H2144 C2159 0.930 . S
C2145 H2133 0.930 . S
C2145 C2146 1.399 . S
C2145 C2150 1.399 . S
C2146 C2145 1.399 . S
C2146 C2147 1.376 . S
C2147 H2134 0.930 . S
C2147 C2146 1.376 . S
C2147 C2148 1.388 . S
C2148 H2135 0.930 . S
C2148 C2147 1.388 . S
C2148 C2149 1.390 . S
C2149 C2148 1.390 . S
C2149 C2150 1.394 . S
C2149 C2155 1.465 . S
C2150 C2145 1.399 . S
C2150 C2149 1.394 . S
C2150 C2151 1.516 . S
C2151 C2150 1.516 . S
C2151 C2152 1.502 . S
C2151 C2153 1.561 . S
C2151 C2154 1.526 . S
C2152 H2136 0.959 . S
C2152 H2137 0.959 . S
C2152 H2138 0.961 . S
C2152 C2151 1.502 . S
C2153 H2139 0.960 . S
C2153 H2140 0.961 . S
C2153 H2141 0.959 . S
C2153 C2151 1.561 . S
C2154 C2151 1.526 . S
C2154 C2155 1.396 . S
C2154 C2159 1.390 . S
C2155 C2149 1.465 . S
C2155 C2154 1.396 . S
C2155 C2156 1.399 . S
C2156 H2142 0.929 . S
C2156 C2155 1.399 . S
C2156 C2157 1.385 . S
C2157 H2143 0.931 . S
C2157 C2156 1.385 . S
C2157 C2158 1.389 . S
C2158 C2157 1.389 . S
C2158 C2159 1.387 . S
C2159 H2144 0.930 . S
C2159 C2154 1.390 . S
C2159 C2158 1.387 . S
H2160 C2172 0.930 . S
H2161 C2174 0.930 . S
H2162 C2175 0.930 . S
H2163 C2179 0.959 . S
H2164 C2179 0.959 . S
H2165 C2179 0.961 . S
H2166 C2180 0.960 . S
H2167 C2180 0.961 . S
H2168 C2180 0.959 . S
H2169 C2183 0.929 . S
H2170 C2184 0.931 . S
H2171 C2186 0.930 . S
C2172 H2160 0.930 . S
C2172 C2173 1.399 . S
C2172 C2177 1.399 . S
C2173 C2172 1.399 . S
C2173 C2174 1.376 . S
C2174 H2161 0.930 . S
C2174 C2173 1.376 . S
C2174 C2175 1.388 . S
C2175 H2162 0.930 . S
C2175 C2174 1.388 . S
C2175 C2176 1.390 . S
C2176 C2175 1.390 . S
C2176 C2177 1.394 . S
C2176 C2182 1.465 . S
C2177 C2172 1.399 . S
C2177 C2176 1.394 . S
C2177 C2178 1.516 . S
C2178 C2177 1.516 . S
C2178 C2179 1.502 . S
C2178 C2180 1.561 . S
C2178 C2181 1.526 . S
C2179 H2163 0.959 . S
C2179 H2164 0.959 . S
C2179 H2165 0.961 . S
C2179 C2178 1.502 . S
C2180 H2166 0.960 . S
C2180 H2167 0.961 . S
C2180 H2168 0.959 . S
C2180 C2178 1.561 . S
C2181 C2178 1.526 . S
C2181 C2182 1.396 . S
C2181 C2186 1.390 . S
C2182 C2176 1.465 . S
C2182 C2181 1.396 . S
C2182 C2183 1.399 . S
C2183 H2169 0.929 . S
C2183 C2182 1.399 . S
C2183 C2184 1.385 . S
C2184 H2170 0.931 . S
C2184 C2183 1.385 . S
C2184 C2185 1.389 . S
C2185 C2184 1.389 . S
C2185 C2186 1.387 . S
C2186 H2171 0.930 . S
C2186 C2181 1.390 . S
C2186 C2185 1.387 . S
H2187 C2199 0.930 . S
H2188 C2201 0.930 . S
H2189 C2202 0.930 . S
H2190 C2206 0.959 . S
H2191 C2206 0.959 . S
H2192 C2206 0.961 . S
H2193 C2207 0.960 . S
H2194 C2207 0.961 . S
H2195 C2207 0.959 . S
H2196 C2210 0.929 . S
H2197 C2211 0.931 . S
H2198 C2213 0.930 . S
C2199 H2187 0.930 . S
C2199 C2200 1.399 . S
C2199 C2204 1.399 . S
C2200 C2199 1.399 . S
C2200 C2201 1.376 . S
C2201 H2188 0.930 . S
C2201 C2200 1.376 . S
C2201 C2202 1.388 . S
C2202 H2189 0.930 . S
C2202 C2201 1.388 . S
C2202 C2203 1.390 . S
C2203 C2202 1.390 . S
C2203 C2204 1.394 . S
C2203 C2209 1.465 . S
C2204 C2199 1.399 . S
C2204 C2203 1.394 . S
C2204 C2205 1.516 . S
C2205 C2204 1.516 . S
C2205 C2206 1.502 . S
C2205 C2207 1.561 . S
C2205 C2208 1.526 . S
C2206 H2190 0.959 . S
C2206 H2191 0.959 . S
C2206 H2192 0.961 . S
C2206 C2205 1.502 . S
C2207 H2193 0.960 . S
C2207 H2194 0.961 . S
C2207 H2195 0.959 . S
C2207 C2205 1.561 . S
C2208 C2205 1.526 . S
C2208 C2209 1.396 . S
C2208 C2213 1.390 . S
C2209 C2203 1.465 . S
C2209 C2208 1.396 . S
C2209 C2210 1.399 . S
C2210 H2196 0.929 . S
C2210 C2209 1.399 . S
C2210 C2211 1.385 . S
C2211 H2197 0.931 . S
C2211 C2210 1.385 . S
C2211 C2212 1.389 . S
C2212 C2211 1.389 . S
C2212 C2213 1.387 . S
C2213 H2198 0.930 . S
C2213 C2208 1.390 . S
C2213 C2212 1.387 . S
H2214 C2226 0.930 . S
H2215 C2228 0.930 . S
H2216 C2229 0.930 . S
H2217 C2233 0.959 . S
H2218 C2233 0.959 . S
H2219 C2233 0.961 . S
H2220 C2234 0.960 . S
H2221 C2234 0.961 . S
H2222 C2234 0.959 . S
H2223 C2237 0.929 . S
H2224 C2238 0.931 . S
H2225 C2240 0.930 . S
C2226 H2214 0.930 . S
C2226 C2227 1.399 . S
C2226 C2231 1.399 . S
C2227 C2226 1.399 . S
C2227 C2228 1.376 . S
C2228 H2215 0.930 . S
C2228 C2227 1.376 . S
C2228 C2229 1.388 . S
C2229 H2216 0.930 . S
C2229 C2228 1.388 . S
C2229 C2230 1.390 . S
C2230 C2229 1.390 . S
C2230 C2231 1.394 . S
C2230 C2236 1.465 . S
C2231 C2226 1.399 . S
C2231 C2230 1.394 . S
C2231 C2232 1.516 . S
C2232 C2231 1.516 . S
C2232 C2233 1.502 . S
C2232 C2234 1.561 . S
C2232 C2235 1.526 . S
C2233 H2217 0.959 . S
C2233 H2218 0.959 . S
C2233 H2219 0.961 . S
C2233 C2232 1.502 . S
C2234 H2220 0.960 . S
C2234 H2221 0.961 . S
C2234 H2222 0.959 . S
C2234 C2232 1.561 . S
C2235 C2232 1.526 . S
C2235 C2236 1.396 . S
C2235 C2240 1.390 . S
C2236 C2230 1.465 . S
C2236 C2235 1.396 . S
C2236 C2237 1.399 . S
C2237 H2223 0.929 . S
C2237 C2236 1.399 . S
C2237 C2238 1.385 . S
C2238 H2224 0.931 . S
C2238 C2237 1.385 . S
C2238 C2239 1.389 . S
C2239 C2238 1.389 . S
C2239 C2240 1.387 . S
C2240 H2225 0.930 . S
C2240 C2235 1.390 . S
C2240 C2239 1.387 . S
H2241 C2253 0.930 . S
H2242 C2255 0.930 . S
H2243 C2256 0.930 . S
H2244 C2260 0.959 . S
H2245 C2260 0.959 . S
H2246 C2260 0.961 . S
H2247 C2261 0.960 . S
H2248 C2261 0.961 . S
H2249 C2261 0.959 . S
H2250 C2264 0.929 . S
H2251 C2265 0.931 . S
H2252 C2267 0.930 . S
C2253 H2241 0.930 . S
C2253 C2254 1.399 . S
C2253 C2258 1.399 . S
C2254 C2253 1.399 . S
C2254 C2255 1.376 . S
C2255 H2242 0.930 . S
C2255 C2254 1.376 . S
C2255 C2256 1.388 . S
C2256 H2243 0.930 . S
C2256 C2255 1.388 . S
C2256 C2257 1.390 . S
C2257 C2256 1.390 . S
C2257 C2258 1.394 . S
C2257 C2263 1.465 . S
C2258 C2253 1.399 . S
C2258 C2257 1.394 . S
C2258 C2259 1.516 . S
C2259 C2258 1.516 . S
C2259 C2260 1.502 . S
C2259 C2261 1.561 . S
C2259 C2262 1.526 . S
C2260 H2244 0.959 . S
C2260 H2245 0.959 . S
C2260 H2246 0.961 . S
C2260 C2259 1.502 . S
C2261 H2247 0.960 . S
C2261 H2248 0.961 . S
C2261 H2249 0.959 . S
C2261 C2259 1.561 . S
C2262 C2259 1.526 . S
C2262 C2263 1.396 . S
C2262 C2267 1.390 . S
C2263 C2257 1.465 . S
C2263 C2262 1.396 . S
C2263 C2264 1.399 . S
C2264 H2250 0.929 . S
C2264 C2263 1.399 . S
C2264 C2265 1.385 . S
C2265 H2251 0.931 . S
C2265 C2264 1.385 . S
C2265 C2266 1.389 . S
C2266 C2265 1.389 . S
C2266 C2267 1.387 . S
C2267 H2252 0.930 . S
C2267 C2262 1.390 . S
C2267 C2266 1.387 . S
H2268 C2280 0.930 . S
H2269 C2282 0.930 . S
H2270 C2283 0.930 . S
H2271 C2287 0.959 . S
H2272 C2287 0.959 . S
H2273 C2287 0.961 . S
H2274 C2288 0.960 . S
H2275 C2288 0.961 . S
H2276 C2288 0.959 . S
H2277 C2291 0.929 . S
H2278 C2292 0.931 . S
H2279 C2294 0.930 . S
C2280 H2268 0.930 . S
C2280 C2281 1.399 . S
C2280 C2285 1.399 . S
C2281 C2280 1.399 . S
C2281 C2282 1.376 . S
C2282 H2269 0.930 . S
C2282 C2281 1.376 . S
C2282 C2283 1.388 . S
C2283 H2270 0.930 . S
C2283 C2282 1.388 . S
C2283 C2284 1.390 . S
C2284 C2283 1.390 . S
C2284 C2285 1.394 . S
C2284 C2290 1.465 . S
C2285 C2280 1.399 . S
C2285 C2284 1.394 . S
C2285 C2286 1.516 . S
C2286 C2285 1.516 . S
C2286 C2287 1.502 . S
C2286 C2288 1.561 . S
C2286 C2289 1.526 . S
C2287 H2271 0.959 . S
C2287 H2272 0.959 . S
C2287 H2273 0.961 . S
C2287 C2286 1.502 . S
C2288 H2274 0.960 . S
C2288 H2275 0.961 . S
C2288 H2276 0.959 . S
C2288 C2286 1.561 . S
C2289 C2286 1.526 . S
C2289 C2290 1.396 . S
C2289 C2294 1.390 . S
C2290 C2284 1.465 . S
C2290 C2289 1.396 . S
C2290 C2291 1.399 . S
C2291 H2277 0.929 . S
C2291 C2290 1.399 . S
C2291 C2292 1.385 . S
C2292 H2278 0.931 . S
C2292 C2291 1.385 . S
C2292 C2293 1.389 . S
C2293 C2292 1.389 . S
C2293 C2294 1.387 . S
C2294 H2279 0.930 . S
C2294 C2289 1.390 . S
C2294 C2293 1.387 . S
H2295 C2307 0.930 . S
H2296 C2309 0.930 . S
H2297 C2310 0.930 . S
H2298 C2314 0.959 . S
H2299 C2314 0.959 . S
H2300 C2314 0.961 . S
H2301 C2315 0.960 . S
H2302 C2315 0.961 . S
H2303 C2315 0.959 . S
H2304 C2318 0.929 . S
H2305 C2319 0.931 . S
H2306 C2321 0.930 . S
C2307 H2295 0.930 . S
C2307 C2308 1.399 . S
C2307 C2312 1.399 . S
C2308 C2307 1.399 . S
C2308 C2309 1.376 . S
C2309 H2296 0.930 . S
C2309 C2308 1.376 . S
C2309 C2310 1.388 . S
C2310 H2297 0.930 . S
C2310 C2309 1.388 . S
C2310 C2311 1.390 . S
C2311 C2310 1.390 . S
C2311 C2312 1.394 . S
C2311 C2317 1.465 . S
C2312 C2307 1.399 . S
C2312 C2311 1.394 . S
C2312 C2313 1.516 . S
C2313 C2312 1.516 . S
C2313 C2314 1.502 . S
C2313 C2315 1.561 . S
C2313 C2316 1.526 . S
C2314 H2298 0.959 . S
C2314 H2299 0.959 . S
C2314 H2300 0.961 . S
C2314 C2313 1.502 . S
C2315 H2301 0.960 . S
C2315 H2302 0.961 . S
C2315 H2303 0.959 . S
C2315 C2313 1.561 . S
C2316 C2313 1.526 . S
C2316 C2317 1.396 . S
C2316 C2321 1.390 . S
C2317 C2311 1.465 . S
C2317 C2316 1.396 . S
C2317 C2318 1.399 . S
C2318 H2304 0.929 . S
C2318 C2317 1.399 . S
C2318 C2319 1.385 . S
C2319 H2305 0.931 . S
C2319 C2318 1.385 . S
C2319 C2320 1.389 . S
C2320 C2319 1.389 . S
C2320 C2321 1.387 . S
C2321 H2306 0.930 . S
C2321 C2316 1.390 . S
C2321 C2320 1.387 . S
H2322 C2334 0.930 . S
H2323 C2336 0.930 . S
H2324 C2337 0.930 . S
H2325 C2341 0.959 . S
H2326 C2341 0.959 . S
H2327 C2341 0.961 . S
H2328 C2342 0.960 . S
H2329 C2342 0.961 . S
H2330 C2342 0.959 . S
H2331 C2345 0.929 . S
H2332 C2346 0.931 . S
H2333 C2348 0.930 . S
C2334 H2322 0.930 . S
C2334 C2335 1.399 . S
C2334 C2339 1.399 . S
C2335 C2334 1.399 . S
C2335 C2336 1.376 . S
C2336 H2323 0.930 . S
C2336 C2335 1.376 . S
C2336 C2337 1.388 . S
C2337 H2324 0.930 . S
C2337 C2336 1.388 . S
C2337 C2338 1.390 . S
C2338 C2337 1.390 . S
C2338 C2339 1.394 . S
C2338 C2344 1.465 . S
C2339 C2334 1.399 . S
C2339 C2338 1.394 . S
C2339 C2340 1.516 . S
C2340 C2339 1.516 . S
C2340 C2341 1.502 . S
C2340 C2342 1.561 . S
C2340 C2343 1.526 . S
C2341 H2325 0.959 . S
C2341 H2326 0.959 . S
C2341 H2327 0.961 . S
C2341 C2340 1.502 . S
C2342 H2328 0.960 . S
C2342 H2329 0.961 . S
C2342 H2330 0.959 . S
C2342 C2340 1.561 . S
C2343 C2340 1.526 . S
C2343 C2344 1.396 . S
C2343 C2348 1.390 . S
C2344 C2338 1.465 . S
C2344 C2343 1.396 . S
C2344 C2345 1.399 . S
C2345 H2331 0.929 . S
C2345 C2344 1.399 . S
C2345 C2346 1.385 . S
C2346 H2332 0.931 . S
C2346 C2345 1.385 . S
C2346 C2347 1.389 . S
C2347 C2346 1.389 . S
C2347 C2348 1.387 . S
C2348 H2333 0.930 . S
C2348 C2343 1.390 . S
C2348 C2347 1.387 . S
H2349 C2361 0.930 . S
H2350 C2363 0.930 . S
H2351 C2364 0.930 . S
H2352 C2368 0.959 . S
H2353 C2368 0.959 . S
H2354 C2368 0.961 . S
H2355 C2369 0.960 . S
H2356 C2369 0.961 . S
H2357 C2369 0.959 . S
H2358 C2372 0.929 . S
H2359 C2373 0.931 . S
H2360 C2375 0.930 . S
C2361 H2349 0.930 . S
C2361 C2362 1.399 . S
C2361 C2366 1.399 . S
C2362 C2361 1.399 . S
C2362 C2363 1.376 . S
C2363 H2350 0.930 . S
C2363 C2362 1.376 . S
C2363 C2364 1.388 . S
C2364 H2351 0.930 . S
C2364 C2363 1.388 . S
C2364 C2365 1.390 . S
C2365 C2364 1.390 . S
C2365 C2366 1.394 . S
C2365 C2371 1.465 . S
C2366 C2361 1.399 . S
C2366 C2365 1.394 . S
C2366 C2367 1.516 . S
C2367 C2366 1.516 . S
C2367 C2368 1.502 . S
C2367 C2369 1.561 . S
C2367 C2370 1.526 . S
C2368 H2352 0.959 . S
C2368 H2353 0.959 . S
C2368 H2354 0.961 . S
C2368 C2367 1.502 . S
C2369 H2355 0.960 . S
C2369 H2356 0.961 . S
C2369 H2357 0.959 . S
C2369 C2367 1.561 . S
C2370 C2367 1.526 . S
C2370 C2371 1.396 . S
C2370 C2375 1.390 . S
C2371 C2365 1.465 . S
C2371 C2370 1.396 . S
C2371 C2372 1.399 . S
C2372 H2358 0.929 . S
C2372 C2371 1.399 . S
C2372 C2373 1.385 . S
C2373 H2359 0.931 . S
C2373 C2372 1.385 . S
C2373 C2374 1.389 . S
C2374 C2373 1.389 . S
C2374 C2375 1.387 . S
C2375 H2360 0.930 . S
C2375 C2370 1.390 . S
C2375 C2374 1.387 . S
H2376 C2388 0.930 . S
H2377 C2390 0.930 . S
H2378 C2391 0.930 . S
H2379 C2395 0.959 . S
H2380 C2395 0.959 . S
H2381 C2395 0.961 . S
H2382 C2396 0.960 . S
H2383 C2396 0.961 . S
H2384 C2396 0.959 . S
H2385 C2399 0.929 . S
H2386 C2400 0.931 . S
H2387 C2402 0.930 . S
C2388 H2376 0.930 . S
C2388 C2389 1.399 . S
C2388 C2393 1.399 . S
C2389 C2388 1.399 . S
C2389 C2390 1.376 . S
C2390 H2377 0.930 . S
C2390 C2389 1.376 . S
C2390 C2391 1.388 . S
C2391 H2378 0.930 . S
C2391 C2390 1.388 . S
C2391 C2392 1.390 . S
C2392 C2391 1.390 . S
C2392 C2393 1.394 . S
C2392 C2398 1.465 . S
C2393 C2388 1.399 . S
C2393 C2392 1.394 . S
C2393 C2394 1.516 . S
C2394 C2393 1.516 . S
C2394 C2395 1.502 . S
C2394 C2396 1.561 . S
C2394 C2397 1.526 . S
C2395 H2379 0.959 . S
C2395 H2380 0.959 . S
C2395 H2381 0.961 . S
C2395 C2394 1.502 . S
C2396 H2382 0.960 . S
C2396 H2383 0.961 . S
C2396 H2384 0.959 . S
C2396 C2394 1.561 . S
C2397 C2394 1.526 . S
C2397 C2398 1.396 . S
C2397 C2402 1.390 . S
C2398 C2392 1.465 . S
C2398 C2397 1.396 . S
C2398 C2399 1.399 . S
C2399 H2385 0.929 . S
C2399 C2398 1.399 . S
C2399 C2400 1.385 . S
C2400 H2386 0.931 . S
C2400 C2399 1.385 . S
C2400 C2401 1.389 . S
C2401 C2400 1.389 . S
C2401 C2402 1.387 . S
C2402 H2387 0.930 . S
C2402 C2397 1.390 . S
C2402 C2401 1.387 . S
H2403 C2415 0.930 . S
H2404 C2417 0.930 . S
H2405 C2418 0.930 . S
H2406 C2422 0.959 . S
H2407 C2422 0.959 . S
H2408 C2422 0.961 . S
H2409 C2423 0.960 . S
H2410 C2423 0.961 . S
H2411 C2423 0.959 . S
H2412 C2426 0.929 . S
H2413 C2427 0.931 . S
H2414 C2429 0.930 . S
C2415 H2403 0.930 . S
C2415 C2416 1.399 . S
C2415 C2420 1.399 . S
C2416 C2415 1.399 . S
C2416 C2417 1.376 . S
C2417 H2404 0.930 . S
C2417 C2416 1.376 . S
C2417 C2418 1.388 . S
C2418 H2405 0.930 . S
C2418 C2417 1.388 . S
C2418 C2419 1.390 . S
C2419 C2418 1.390 . S
C2419 C2420 1.394 . S
C2419 C2425 1.465 . S
C2420 C2415 1.399 . S
C2420 C2419 1.394 . S
C2420 C2421 1.516 . S
C2421 C2420 1.516 . S
C2421 C2422 1.502 . S
C2421 C2423 1.561 . S
C2421 C2424 1.526 . S
C2422 H2406 0.959 . S
C2422 H2407 0.959 . S
C2422 H2408 0.961 . S
C2422 C2421 1.502 . S
C2423 H2409 0.960 . S
C2423 H2410 0.961 . S
C2423 H2411 0.959 . S
C2423 C2421 1.561 . S
C2424 C2421 1.526 . S
C2424 C2425 1.396 . S
C2424 C2429 1.390 . S
C2425 C2419 1.465 . S
C2425 C2424 1.396 . S
C2425 C2426 1.399 . S
C2426 H2412 0.929 . S
C2426 C2425 1.399 . S
C2426 C2427 1.385 . S
C2427 H2413 0.931 . S
C2427 C2426 1.385 . S
C2427 C2428 1.389 . S
C2428 C2427 1.389 . S
C2428 C2429 1.387 . S
C2429 H2414 0.930 . S
C2429 C2424 1.390 . S
C2429 C2428 1.387 . S
H2430 C2442 0.930 . S
H2431 C2444 0.930 . S
H2432 C2445 0.930 . S
H2433 C2449 0.959 . S
H2434 C2449 0.959 . S
H2435 C2449 0.961 . S
H2436 C2450 0.960 . S
H2437 C2450 0.961 . S
H2438 C2450 0.959 . S
H2439 C2453 0.929 . S
H2440 C2454 0.931 . S
H2441 C2456 0.930 . S
C2442 H2430 0.930 . S
C2442 C2443 1.399 . S
C2442 C2447 1.399 . S
C2443 C2442 1.399 . S
C2443 C2444 1.376 . S
C2444 H2431 0.930 . S
C2444 C2443 1.376 . S
C2444 C2445 1.388 . S
C2445 H2432 0.930 . S
C2445 C2444 1.388 . S
C2445 C2446 1.390 . S
C2446 C2445 1.390 . S
C2446 C2447 1.394 . S
C2446 C2452 1.465 . S
C2447 C2442 1.399 . S
C2447 C2446 1.394 . S
C2447 C2448 1.516 . S
C2448 C2447 1.516 . S
C2448 C2449 1.502 . S
C2448 C2450 1.561 . S
C2448 C2451 1.526 . S
C2449 H2433 0.959 . S
C2449 H2434 0.959 . S
C2449 H2435 0.961 . S
C2449 C2448 1.502 . S
C2450 H2436 0.960 . S
C2450 H2437 0.961 . S
C2450 H2438 0.959 . S
C2450 C2448 1.561 . S
C2451 C2448 1.526 . S
C2451 C2452 1.396 . S
C2451 C2456 1.390 . S
C2452 C2446 1.465 . S
C2452 C2451 1.396 . S
C2452 C2453 1.399 . S
C2453 H2439 0.929 . S
C2453 C2452 1.399 . S
C2453 C2454 1.385 . S
C2454 H2440 0.931 . S
C2454 C2453 1.385 . S
C2454 C2455 1.389 . S
C2455 C2454 1.389 . S
C2455 C2456 1.387 . S
C2456 H2441 0.930 . S
C2456 C2451 1.390 . S
C2456 C2455 1.387 . S
H2457 C2469 0.930 . S
H2458 C2471 0.930 . S
H2459 C2472 0.930 . S
H2460 C2476 0.959 . S
H2461 C2476 0.959 . S
H2462 C2476 0.961 . S
H2463 C2477 0.960 . S
H2464 C2477 0.961 . S
H2465 C2477 0.959 . S
H2466 C2480 0.929 . S
H2467 C2481 0.931 . S
H2468 C2483 0.930 . S
C2469 H2457 0.930 . S
C2469 C2470 1.399 . S
C2469 C2474 1.399 . S
C2470 C2469 1.399 . S
C2470 C2471 1.376 . S
C2471 H2458 0.930 . S
C2471 C2470 1.376 . S
C2471 C2472 1.388 . S
C2472 H2459 0.930 . S
C2472 C2471 1.388 . S
C2472 C2473 1.390 . S
C2473 C2472 1.390 . S
C2473 C2474 1.394 . S
C2473 C2479 1.465 . S
C2474 C2469 1.399 . S
C2474 C2473 1.394 . S
C2474 C2475 1.516 . S
C2475 C2474 1.516 . S
C2475 C2476 1.502 . S
C2475 C2477 1.561 . S
C2475 C2478 1.526 . S
C2476 H2460 0.959 . S
C2476 H2461 0.959 . S
C2476 H2462 0.961 . S
C2476 C2475 1.502 . S
C2477 H2463 0.960 . S
C2477 H2464 0.961 . S
C2477 H2465 0.959 . S
C2477 C2475 1.561 . S
C2478 C2475 1.526 . S
C2478 C2479 1.396 . S
C2478 C2483 1.390 . S
C2479 C2473 1.465 . S
C2479 C2478 1.396 . S
C2479 C2480 1.399 . S
C2480 H2466 0.929 . S
C2480 C2479 1.399 . S
C2480 C2481 1.385 . S
C2481 H2467 0.931 . S
C2481 C2480 1.385 . S
C2481 C2482 1.389 . S
C2482 C2481 1.389 . S
C2482 C2483 1.387 . S
C2483 H2468 0.930 . S
C2483 C2478 1.390 . S
C2483 C2482 1.387 . S
H2484 C2496 0.930 . S
H2485 C2498 0.930 . S
H2486 C2499 0.930 . S
H2487 C2503 0.959 . S
H2488 C2503 0.959 . S
H2489 C2503 0.961 . S
H2490 C2504 0.960 . S
H2491 C2504 0.961 . S
H2492 C2504 0.959 . S
H2493 C2507 0.929 . S
H2494 C2508 0.931 . S
H2495 C2510 0.930 . S
C2496 H2484 0.930 . S
C2496 C2497 1.399 . S
C2496 C2501 1.399 . S
C2497 C2496 1.399 . S
C2497 C2498 1.376 . S
C2498 H2485 0.930 . S
C2498 C2497 1.376 . S
C2498 C2499 1.388 . S
C2499 H2486 0.930 . S
C2499 C2498 1.388 . S
C2499 C2500 1.390 . S
C2500 C2499 1.390 . S
C2500 C2501 1.394 . S
C2500 C2506 1.465 . S
C2501 C2496 1.399 . S
C2501 C2500 1.394 . S
C2501 C2502 1.516 . S
C2502 C2501 1.516 . S
C2502 C2503 1.502 . S
C2502 C2504 1.561 . S
C2502 C2505 1.526 . S
C2503 H2487 0.959 . S
C2503 H2488 0.959 . S
C2503 H2489 0.961 . S
C2503 C2502 1.502 . S
C2504 H2490 0.960 . S
C2504 H2491 0.961 . S
C2504 H2492 0.959 . S
C2504 C2502 1.561 . S
C2505 C2502 1.526 . S
C2505 C2506 1.396 . S
C2505 C2510 1.390 . S
C2506 C2500 1.465 . S
C2506 C2505 1.396 . S
C2506 C2507 1.399 . S
C2507 H2493 0.929 . S
C2507 C2506 1.399 . S
C2507 C2508 1.385 . S
C2508 H2494 0.931 . S
C2508 C2507 1.385 . S
C2508 C2509 1.389 . S
C2509 C2508 1.389 . S
C2509 C2510 1.387 . S
C2510 H2495 0.930 . S
C2510 C2505 1.390 . S
C2510 C2509 1.387 . S
H2511 C2523 0.930 . S
H2512 C2525 0.930 . S
H2513 C2526 0.930 . S
H2514 C2530 0.959 . S
H2515 C2530 0.959 . S
H2516 C2530 0.961 . S
H2517 C2531 0.960 . S
H2518 C2531 0.961 . S
H2519 C2531 0.959 . S
H2520 C2534 0.929 . S
H2521 C2535 0.931 . S
H2522 C2537 0.930 . S
C2523 H2511 0.930 . S
C2523 C2524 1.399 . S
C2523 C2528 1.399 . S
C2524 C2523 1.399 . S
C2524 C2525 1.376 . S
C2525 H2512 0.930 . S
C2525 C2524 1.376 . S
C2525 C2526 1.388 . S
C2526 H2513 0.930 . S
C2526 C2525 1.388 . S
C2526 C2527 1.390 . S
C2527 C2526 1.390 . S
C2527 C2528 1.394 . S
C2527 C2533 1.465 . S
C2528 C2523 1.399 . S
C2528 C2527 1.394 . S
C2528 C2529 1.516 . S
C2529 C2528 1.516 . S
C2529 C2530 1.502 . S
C2529 C2531 1.561 . S
C2529 C2532 1.526 . S
C2530 H2514 0.959 . S
C2530 H2515 0.959 . S
C2530 H2516 0.961 . S
C2530 C2529 1.502 . S
C2531 H2517 0.960 . S
C2531 H2518 0.961 . S
C2531 H2519 0.959 . S
C2531 C2529 1.561 . S
C2532 C2529 1.526 . S
C2532 C2533 1.396 . S
C2532 C2537 1.390 . S
C2533 C2527 1.465 . S
C2533 C2532 1.396 . S
C2533 C2534 1.399 . S
C2534 H2520 0.929 . S
C2534 C2533 1.399 . S
C2534 C2535 1.385 . S
C2535 H2521 0.931 . S
C2535 C2534 1.385 . S
C2535 C2536 1.389 . S
C2536 C2535 1.389 . S
C2536 C2537 1.387 . S
C2537 H2522 0.930 . S
C2537 C2532 1.390 . S
C2537 C2536 1.387 . S
H2538 C2550 0.930 . S
H2539 C2552 0.930 . S
H2540 C2553 0.930 . S
H2541 C2557 0.959 . S
H2542 C2557 0.959 . S
H2543 C2557 0.961 . S
H2544 C2558 0.960 . S
H2545 C2558 0.961 . S
H2546 C2558 0.959 . S
H2547 C2561 0.929 . S
H2548 C2562 0.931 . S
H2549 C2564 0.930 . S
C2550 H2538 0.930 . S
C2550 C2551 1.399 . S
C2550 C2555 1.399 . S
C2551 C2550 1.399 . S
C2551 C2552 1.376 . S
C2552 H2539 0.930 . S
C2552 C2551 1.376 . S
C2552 C2553 1.388 . S
C2553 H2540 0.930 . S
C2553 C2552 1.388 . S
C2553 C2554 1.390 . S
C2554 C2553 1.390 . S
C2554 C2555 1.394 . S
C2554 C2560 1.465 . S
C2555 C2550 1.399 . S
C2555 C2554 1.394 . S
C2555 C2556 1.516 . S
C2556 C2555 1.516 . S
C2556 C2557 1.502 . S
C2556 C2558 1.561 . S
C2556 C2559 1.526 . S
C2557 H2541 0.959 . S
C2557 H2542 0.959 . S
C2557 H2543 0.961 . S
C2557 C2556 1.502 . S
C2558 H2544 0.960 . S
C2558 H2545 0.961 . S
C2558 H2546 0.959 . S
C2558 C2556 1.561 . S
C2559 C2556 1.526 . S
C2559 C2560 1.396 . S
C2559 C2564 1.390 . S
C2560 C2554 1.465 . S
C2560 C2559 1.396 . S
C2560 C2561 1.399 . S
C2561 H2547 0.929 . S
C2561 C2560 1.399 . S
C2561 C2562 1.385 . S
C2562 H2548 0.931 . S
C2562 C2561 1.385 . S
C2562 C2563 1.389 . S
C2563 C2562 1.389 . S
C2563 C2564 1.387 . S
C2564 H2549 0.930 . S
C2564 C2559 1.390 . S
C2564 C2563 1.387 . S
H2565 C2577 0.930 . S
H2566 C2579 0.930 . S
H2567 C2580 0.930 . S
H2568 C2584 0.959 . S
H2569 C2584 0.959 . S
H2570 C2584 0.961 . S
H2571 C2585 0.960 . S
H2572 C2585 0.961 . S
H2573 C2585 0.959 . S
H2574 C2588 0.929 . S
H2575 C2589 0.931 . S
H2576 C2591 0.930 . S
C2577 H2565 0.930 . S
C2577 C2578 1.399 . S
C2577 C2582 1.399 . S
C2578 C2577 1.399 . S
C2578 C2579 1.376 . S
C2579 H2566 0.930 . S
C2579 C2578 1.376 . S
C2579 C2580 1.388 . S
C2580 H2567 0.930 . S
C2580 C2579 1.388 . S
C2580 C2581 1.390 . S
C2581 C2580 1.390 . S
C2581 C2582 1.394 . S
C2581 C2587 1.465 . S
C2582 C2577 1.399 . S
C2582 C2581 1.394 . S
C2582 C2583 1.516 . S
C2583 C2582 1.516 . S
C2583 C2584 1.502 . S
C2583 C2585 1.561 . S
C2583 C2586 1.526 . S
C2584 H2568 0.959 . S
C2584 H2569 0.959 . S
C2584 H2570 0.961 . S
C2584 C2583 1.502 . S
C2585 H2571 0.960 . S
C2585 H2572 0.961 . S
C2585 H2573 0.959 . S
C2585 C2583 1.561 . S
C2586 C2583 1.526 . S
C2586 C2587 1.396 . S
C2586 C2591 1.390 . S
C2587 C2581 1.465 . S
C2587 C2586 1.396 . S
C2587 C2588 1.399 . S
C2588 H2574 0.929 . S
C2588 C2587 1.399 . S
C2588 C2589 1.385 . S
C2589 H2575 0.931 . S
C2589 C2588 1.385 . S
C2589 C2590 1.389 . S
C2590 C2589 1.389 . S
C2590 C2591 1.387 . S
C2591 H2576 0.930 . S
C2591 C2586 1.390 . S
C2591 C2590 1.387 . S
H2592 C2604 0.930 . S
H2593 C2606 0.930 . S
H2594 C2607 0.930 . S
H2595 C2611 0.959 . S
H2596 C2611 0.959 . S
H2597 C2611 0.961 . S
H2598 C2612 0.960 . S
H2599 C2612 0.961 . S
H2600 C2612 0.959 . S
H2601 C2615 0.929 . S
H2602 C2616 0.931 . S
H2603 C2618 0.930 . S
C2604 H2592 0.930 . S
C2604 C2605 1.399 . S
C2604 C2609 1.399 . S
C2605 C2604 1.399 . S
C2605 C2606 1.376 . S
C2606 H2593 0.930 . S
C2606 C2605 1.376 . S
C2606 C2607 1.388 . S
C2607 H2594 0.930 . S
C2607 C2606 1.388 . S
C2607 C2608 1.390 . S
C2608 C2607 1.390 . S
C2608 C2609 1.394 . S
C2608 C2614 1.465 . S
C2609 C2604 1.399 . S
C2609 C2608 1.394 . S
C2609 C2610 1.516 . S
C2610 C2609 1.516 . S
C2610 C2611 1.502 . S
C2610 C2612 1.561 . S
C2610 C2613 1.526 . S
C2611 H2595 0.959 . S
C2611 H2596 0.959 . S
C2611 H2597 0.961 . S
C2611 C2610 1.502 . S
C2612 H2598 0.960 . S
C2612 H2599 0.961 . S
C2612 H2600 0.959 . S
C2612 C2610 1.561 . S
C2613 C2610 1.526 . S
C2613 C2614 1.396 . S
C2613 C2618 1.390 . S
C2614 C2608 1.465 . S
C2614 C2613 1.396 . S
C2614 C2615 1.399 . S
C2615 H2601 0.929 . S
C2615 C2614 1.399 . S
C2615 C2616 1.385 . S
C2616 H2602 0.931 . S
C2616 C2615 1.385 . S
C2616 C2617 1.389 . S
C2617 C2616 1.389 . S
C2617 C2618 1.387 . S
C2618 H2603 0.930 . S
C2618 C2613 1.390 . S
C2618 C2617 1.387 . S
H2619 C2631 0.930 . S
H2620 C2633 0.930 . S
H2621 C2634 0.930 . S
H2622 C2638 0.959 . S
H2623 C2638 0.959 . S
H2624 C2638 0.961 . S
H2625 C2639 0.960 . S
H2626 C2639 0.961 . S
H2627 C2639 0.959 . S
H2628 C2642 0.929 . S
H2629 C2643 0.931 . S
H2630 C2645 0.930 . S
C2631 H2619 0.930 . S
C2631 C2632 1.399 . S
C2631 C2636 1.399 . S
C2632 C2631 1.399 . S
C2632 C2633 1.376 . S
C2633 H2620 0.930 . S
C2633 C2632 1.376 . S
C2633 C2634 1.388 . S
C2634 H2621 0.930 . S
C2634 C2633 1.388 . S
C2634 C2635 1.390 . S
C2635 C2634 1.390 . S
C2635 C2636 1.394 . S
C2635 C2641 1.465 . S
C2636 C2631 1.399 . S
C2636 C2635 1.394 . S
C2636 C2637 1.516 . S
C2637 C2636 1.516 . S
C2637 C2638 1.502 . S
C2637 C2639 1.561 . S
C2637 C2640 1.526 . S
C2638 H2622 0.959 . S
C2638 H2623 0.959 . S
C2638 H2624 0.961 . S
C2638 C2637 1.502 . S
C2639 H2625 0.960 . S
C2639 H2626 0.961 . S
C2639 H2627 0.959 . S
C2639 C2637 1.561 . S
C2640 C2637 1.526 . S
C2640 C2641 1.396 . S
C2640 C2645 1.390 . S
C2641 C2635 1.465 . S
C2641 C2640 1.396 . S
C2641 C2642 1.399 . S
C2642 H2628 0.929 . S
C2642 C2641 1.399 . S
C2642 C2643 1.385 . S
C2643 H2629 0.931 . S
C2643 C2642 1.385 . S
C2643 C2644 1.389 . S
C2644 C2643 1.389 . S
C2644 C2645 1.387 . S
C2645 H2630 0.930 . S
C2645 C2640 1.390 . S
C2645 C2644 1.387 . S
H2646 C2658 0.930 . S
H2647 C2660 0.930 . S
H2648 C2661 0.930 . S
H2649 C2665 0.959 . S
H2650 C2665 0.959 . S
H2651 C2665 0.961 . S
H2652 C2666 0.960 . S
H2653 C2666 0.961 . S
H2654 C2666 0.959 . S
H2655 C2669 0.929 . S
H2656 C2670 0.931 . S
H2657 C2672 0.930 . S
C2658 H2646 0.930 . S
C2658 C2659 1.399 . S
C2658 C2663 1.399 . S
C2659 C2658 1.399 . S
C2659 C2660 1.376 . S
C2660 H2647 0.930 . S
C2660 C2659 1.376 . S
C2660 C2661 1.388 . S
C2661 H2648 0.930 . S
C2661 C2660 1.388 . S
C2661 C2662 1.390 . S
C2662 C2661 1.390 . S
C2662 C2663 1.394 . S
C2662 C2668 1.465 . S
C2663 C2658 1.399 . S
C2663 C2662 1.394 . S
C2663 C2664 1.516 . S
C2664 C2663 1.516 . S
C2664 C2665 1.502 . S
C2664 C2666 1.561 . S
C2664 C2667 1.526 . S
C2665 H2649 0.959 . S
C2665 H2650 0.959 . S
C2665 H2651 0.961 . S
C2665 C2664 1.502 . S
C2666 H2652 0.960 . S
C2666 H2653 0.961 . S
C2666 H2654 0.959 . S
C2666 C2664 1.561 . S
C2667 C2664 1.526 . S
C2667 C2668 1.396 . S
C2667 C2672 1.390 . S
C2668 C2662 1.465 . S
C2668 C2667 1.396 . S
C2668 C2669 1.399 . S
C2669 H2655 0.929 . S
C2669 C2668 1.399 . S
C2669 C2670 1.385 . S
C2670 H2656 0.931 . S
C2670 C2669 1.385 . S
C2670 C2671 1.389 . S
C2671 C2670 1.389 . S
C2671 C2672 1.387 . S
C2672 H2657 0.930 . S
C2672 C2667 1.390 . S
C2672 C2671 1.387 . S
H2673 C2685 0.930 . S
H2674 C2687 0.930 . S
H2675 C2688 0.930 . S
H2676 C2692 0.959 . S
H2677 C2692 0.959 . S
H2678 C2692 0.961 . S
H2679 C2693 0.960 . S
H2680 C2693 0.961 . S
H2681 C2693 0.959 . S
H2682 C2696 0.929 . S
H2683 C2697 0.931 . S
H2684 C2699 0.930 . S
C2685 H2673 0.930 . S
C2685 C2686 1.399 . S
C2685 C2690 1.399 . S
C2686 C2685 1.399 . S
C2686 C2687 1.376 . S
C2687 H2674 0.930 . S
C2687 C2686 1.376 . S
C2687 C2688 1.388 . S
C2688 H2675 0.930 . S
C2688 C2687 1.388 . S
C2688 C2689 1.390 . S
C2689 C2688 1.390 . S
C2689 C2690 1.394 . S
C2689 C2695 1.465 . S
C2690 C2685 1.399 . S
C2690 C2689 1.394 . S
C2690 C2691 1.516 . S
C2691 C2690 1.516 . S
C2691 C2692 1.502 . S
C2691 C2693 1.561 . S
C2691 C2694 1.526 . S
C2692 H2676 0.959 . S
C2692 H2677 0.959 . S
C2692 H2678 0.961 . S
C2692 C2691 1.502 . S
C2693 H2679 0.960 . S
C2693 H2680 0.961 . S
C2693 H2681 0.959 . S
C2693 C2691 1.561 . S
C2694 C2691 1.526 . S
C2694 C2695 1.396 . S
C2694 C2699 1.390 . S
C2695 C2689 1.465 . S
C2695 C2694 1.396 . S
C2695 C2696 1.399 . S
C2696 H2682 0.929 . S
C2696 C2695 1.399 . S
C2696 C2697 1.385 . S
C2697 H2683 0.931 . S
C2697 C2696 1.385 . S
C2697 C2698 1.389 . S
C2698 C2697 1.389 . S
C2698 C2699 1.387 . S
C2699 H2684 0.930 . S
C2699 C2694 1.390 . S
C2699 C2698 1.387 . S
C781 C462 1.658 . S
C769 C439 1.659 . S
C796 C401 1.792 . S
C808 C460 1.790 . S
C835 C461 1.790 . S
C823 C382 1.791 . S
C850 C420 1.658 . S
C862 C463 1.658 . S
C889 C507 1.606 . S
C877 C306 1.613 . S
C916 C567 1.703 . S
C904 C325 1.707 . S
C931 C344 1.584 . S
C943 C506 1.587 . S
C970 C566 1.846 . S
C958 C363 1.847 . S
C985 C230 1.738 . S
C997 C508 1.737 . S
C1024 C564 1.687 . S
C1012 C249 1.681 . S
C1039 C268 1.746 . S
C1051 C509 1.748 . S
C1066 C287 1.551 . S
C1078 C565 1.549 . S
C1105 C615 1.654 . S
C1093 C211 1.652 . S
C1120 C173 1.780 . S
C1132 C614 1.785 . S
C1147 C154 1.782 . S
C1159 C616 1.787 . S
C1186 C617 1.651 . S
C1174 C192 1.650 . S
C1201 C78 1.616 . S
C1213 C658 1.620 . S
C1228 C97 1.710 . S
C1240 C717 1.711 . S
C1255 C116 1.587 . S
C1267 C656 1.588 . S
C1282 C135 1.841 1_565 S
C1294 C716 1.839 1_565 S
C1321 C657 1.731 . S
C1309 C2 1.732 . S
C1348 C714 1.690 . S
C1336 C21 1.690 . S
C1363 C40 1.746 . S
C1375 C659 1.747 . S
C1402 C715 1.548 1_565 S
C1390 C59 1.550 . S
C1429 C459 1.655 . S
C1417 C6 1.624 . S
C1444 C30 1.327 . S
C1456 C465 1.388 . S
C1471 C49 1.277 . S
C1483 C457 1.265 . S
C1498 C68 1.198 1_545 S
C1510 C464 1.229 . S
C1525 C82 1.627 . S
C1537 C456 1.635 . S
C1564 C466 1.286 1_565 S
C1552 C106 1.285 1_565 S
C1579 C125 1.199 . S
C1591 C458 1.266 . S
C1618 C467 1.884 . S
C1606 C139 1.860 . S
C1645 C513 1.588 . S
C1633 C63 1.579 1_545 S
C1660 C11 1.298 . S
C1672 C556 1.290 . S
C1699 C511 1.560 . S
C1687 C25 1.504 . S
C1726 C558 1.685 . S
C1714 C44 1.675 . S
C1741 C101 1.670 . S
C1753 C512 1.710 . S
C1780 C557 1.509 . S
C1768 C120 1.460 . S
C1807 C510 1.297 1_565 S
C1795 C144 1.294 1_565 S
C1834 C559 1.159 . S
C1822 C87 1.190 . S
C1861 C563 1.393 . S
C1849 C163 1.328 . S
C1876 C182 1.385 1_554 S
C1888 C562 1.398 . S
C1915 C514 1.784 . S
C1903 C158 1.775 . S
C1942 C561 1.732 . S
C1930 C196 1.689 . S
C1957 C220 1.275 . S
C1969 C517 1.298 . S
C1984 C215 1.691 . S
C1996 C560 1.734 . S
C2023 C516 1.783 . S
C2011 C177 1.746 . S
C2050 C515 1.273 . S
C2038 C201 1.280 . S
C2077 C609 1.653 . S
C2065 C234 1.613 . S
C2104 C612 1.393 . S
C2092 C258 1.385 . S
C2119 C277 1.239 . S
C2131 C608 1.260 . S
C2158 C610 1.220 . S
C2146 C296 1.221 . S
C2185 C606 1.636 . S
C2173 C310 1.631 . S
C2200 C334 1.225 . S
C2212 C611 1.277 . S
C2227 C353 1.200 . S
C2239 C607 1.267 . S
C2266 C613 1.879 . S
C2254 C367 1.853 . S
C2293 C667 1.587 . S
C2281 C291 1.573 . S
C2308 C239 1.288 . S
C2320 C706 1.296 . S
C2347 C666 1.558 . S
C2335 C253 1.508 . S
C2374 C708 1.685 . S
C2362 C272 1.670 . S
C2401 C665 1.710 . S
C2389 C329 1.702 . S
C2416 C348 1.508 . S
C2428 C707 1.508 . S
C2455 C664 1.287 . S
C2443 C372 1.239 . S
C2482 C709 1.192 . S
C2470 C315 1.106 . S
C2509 C713 1.393 . S
C2497 C391 1.330 . S
C2524 C410 1.324 . S
C2536 C712 1.396 . S
C2563 C660 1.785 . S
C2551 C386 1.743 . S
C2578 C424 1.723 . S
C2590 C711 1.736 . S
C2617 C663 1.275 . S
C2605 C448 1.240 . S
C2644 C710 1.732 . S
C2632 C443 1.722 . S
C2671 C661 1.787 . S
C2659 C405 1.775 . S
C2686 C429 1.221 . S
C2698 C662 1.285 . S
