# Generated by pormake.
# Topology zzz, (3,6)-cn, num edge types: 1
# Building blocks:
#     Node 0, Type 0, BuildingBlock: BELTOD_clean_linker_0, # of connection points: 3
#     Node 1, Type 0, BuildingBlock: BELTOD_clean_linker_0, # of connection points: 3
#     Node 2, Type 0, BuildingBlock: BELTOD_clean_linker_0, # of connection points: 3
#     Node 3, Type 0, BuildingBlock: BELTOD_clean_linker_0, # of connection points: 3
#     Node 4, Type 0, BuildingBlock: BELTOD_clean_linker_0, # of connection points: 3
#     Node 5, Type 0, BuildingBlock: BELTOD_clean_linker_0, # of connection points: 3
#     Node 6, Type 0, BuildingBlock: BELTOD_clean_linker_0, # of connection points: 3
#     Node 7, Type 0, BuildingBlock: BELTOD_clean_linker_0, # of connection points: 3
#     Node 8, Type 1, BuildingBlock: GEDQOX_clean_sbu_0, # of connection points: 6
#     Node 9, Type 1, BuildingBlock: GEDQOX_clean_sbu_0, # of connection points: 6
#     Node 10, Type 1, BuildingBlock: GEDQOX_clean_sbu_0, # of connection points: 6
#     Node 11, Type 1, BuildingBlock: GEDQOX_clean_sbu_0, # of connection points: 6
#     Edge 12, Type (0, 1), BuildingBlock: CIFDUS_clean_linker_0, # of connection points: 2
#     Edge 13, Type (0, 1), BuildingBlock: CIFDUS_clean_linker_0, # of connection points: 2
#     Edge 14, Type (0, 1), BuildingBlock: CIFDUS_clean_linker_0, # of connection points: 2
#     Edge 15, Type (0, 1), BuildingBlock: CIFDUS_clean_linker_0, # of connection points: 2
#     Edge 16, Type (0, 1), BuildingBlock: CIFDUS_clean_linker_0, # of connection points: 2
#     Edge 17, Type (0, 1), BuildingBlock: CIFDUS_clean_linker_0, # of connection points: 2
#     Edge 18, Type (0, 1), BuildingBlock: CIFDUS_clean_linker_0, # of connection points: 2
#     Edge 19, Type (0, 1), BuildingBlock: CIFDUS_clean_linker_0, # of connection points: 2
#     Edge 20, Type (0, 1), BuildingBlock: CIFDUS_clean_linker_0, # of connection points: 2
#     Edge 21, Type (0, 1), BuildingBlock: CIFDUS_clean_linker_0, # of connection points: 2
#     Edge 22, Type (0, 1), BuildingBlock: CIFDUS_clean_linker_0, # of connection points: 2
#     Edge 23, Type (0, 1), BuildingBlock: CIFDUS_clean_linker_0, # of connection points: 2
#     Edge 24, Type (0, 1), BuildingBlock: CIFDUS_clean_linker_0, # of connection points: 2
#     Edge 25, Type (0, 1), BuildingBlock: CIFDUS_clean_linker_0, # of connection points: 2
#     Edge 26, Type (0, 1), BuildingBlock: CIFDUS_clean_linker_0, # of connection points: 2
#     Edge 27, Type (0, 1), BuildingBlock: CIFDUS_clean_linker_0, # of connection points: 2
#     Edge 28, Type (0, 1), BuildingBlock: CIFDUS_clean_linker_0, # of connection points: 2
#     Edge 29, Type (0, 1), BuildingBlock: CIFDUS_clean_linker_0, # of connection points: 2
#     Edge 30, Type (0, 1), BuildingBlock: CIFDUS_clean_linker_0, # of connection points: 2
#     Edge 31, Type (0, 1), BuildingBlock: CIFDUS_clean_linker_0, # of connection points: 2
#     Edge 32, Type (0, 1), BuildingBlock: CIFDUS_clean_linker_0, # of connection points: 2
#     Edge 33, Type (0, 1), BuildingBlock: CIFDUS_clean_linker_0, # of connection points: 2
#     Edge 34, Type (0, 1), BuildingBlock: CIFDUS_clean_linker_0, # of connection points: 2
#     Edge 35, Type (0, 1), BuildingBlock: CIFDUS_clean_linker_0, # of connection points: 2
# Relax obj value: 0.291
# Max RMSD: 0.299
# Mean RMSD: 0.186
data_MOF--net-zzz--node1-GEDQOX_clean_sbu_0--node2-BELTOD_clean_linker_0--edge1-CIFDUS_clean_linker_0
_symmetry_space_group_name_H-M    P1
_symmetry_Int_Tables_number       1
_symmetry_cell_setting            triclinic
loop_
_symmetry_equiv_pos_as_xyz
'x, y, z'
_cell_length_a     52.428852
_cell_length_b     49.417366
_cell_length_c     18.868149
_cell_angle_alpha  80.306896
_cell_angle_beta   90.628117
_cell_angle_gamma 103.77922
loop_
_atom_site_label
_atom_site_type_symbol
_atom_site_fract_x
_atom_site_fract_y
_atom_site_fract_z
_atom_type_partial_charge
P0 P 0.74304 0.46717 0.16037 0.0
H1 H 0.75175 0.47064 0.31267 0.0
H2 H 0.78691 0.49937 0.37284 0.0
H3 H 0.81771 0.54838 0.1668 0.0
H4 H 0.78298 0.51886 0.10695 0.0
H5 H 0.68817 0.43867 0.15017 0.0
H6 H 0.65021 0.45458 0.09945 0.0
H7 H 0.69894 0.53891 0.03533 0.0
H8 H 0.73707 0.52278 0.08638 0.0
H9 H 0.78753 0.44204 0.16977 0.0
H10 H 0.74244 0.47686 1.00119 0.0
O11 O 0.73218 0.43733 0.21898 0.0
H12 H 0.82032 0.4407 0.08125 0.0
H13 H 0.77473 0.47462 0.91147 0.0
C14 C 0.76488 0.49246 0.20534 0.0
C15 C 0.76577 0.4879 0.28054 0.0
C16 C 0.78585 0.5045 0.31495 0.0
C17 C 0.80536 0.52603 0.27462 0.0
C18 C 0.80331 0.53167 0.19942 0.0
C19 C 0.78328 0.51498 0.16514 0.0
C20 C 0.7153 0.47969 0.12372 0.0
C21 C 0.69071 0.46064 0.12584 0.0
C22 C 0.66902 0.46976 0.09675 0.0
C23 C 0.67157 0.49807 0.06415 0.0
C24 C 0.69643 0.51698 0.06014 0.0
C25 C 0.71815 0.50784 0.08988 0.0
C26 C 0.76268 0.45965 0.09219 0.0
C27 C 0.78426 0.44849 0.11329 0.0
C28 C 0.80294 0.44757 0.06233 0.0
C29 C 0.80031 0.45772 0.98898 0.0
C30 C 0.77759 0.46705 0.96758 0.0
C31 C 0.75899 0.4682 0.01889 0.0
P32 P 0.01349 0.72877 0.27891 0.0
H33 H 0.03739 0.75183 0.40157 0.0
H34 H 0.02216 0.77833 0.48238 0.0
H35 H 0.94356 0.75451 0.40462 0.0
H36 H 0.95913 0.72746 0.32342 0.0
H37 H 0.0115 0.66839 0.31477 0.0
H38 H 0.00017 0.63081 0.24202 0.0
H39 H 0.96672 0.6853 0.08438 0.0
H40 H 0.9775 0.72237 0.15707 0.0
H41 H 0.97793 0.76366 0.21955 0.0
H42 H 0.05916 0.76277 0.18836 0.0
O43 O 0.04299 0.7232 0.30084 0.0
H44 H 0.98372 0.80621 0.12966 0.0
H45 H 0.06508 0.80593 0.09788 0.0
C46 C -0.00059 0.73748 0.3565 0.0
C47 C 0.01661 0.75114 0.40394 0.0
C48 C 0.00785 0.76647 0.45029 0.0
C49 C 0.98167 0.76887 0.4496 0.0
C50 C 0.96393 0.75336 0.4059 0.0
C51 C 0.97273 0.73764 0.35998 0.0
C52 C 0.99597 0.69857 0.24103 0.0
C53 C 0.00086 0.67192 0.2659 0.0
C54 C 0.99444 0.65046 0.22415 0.0
C55 C 0.98313 0.65542 0.15671 0.0
C56 C 0.97591 0.68112 0.13546 0.0
C57 C 0.98206 0.70239 0.17751 0.0
C58 C 0.01816 0.76011 0.21137 0.0
C59 C 0.99708 0.77264 0.19371 0.0
C60 C 0.00029 0.7968 0.14155 0.0
C61 C 0.02478 0.80916 0.10659 0.0
C62 C 0.04599 0.79671 0.1242 0.0
C63 C 0.04262 0.77214 0.17589 0.0
P64 P 0.79515 0.0699 0.16207 0.0
H65 H 0.78289 0.07581 0.30867 0.0
H66 H 0.74821 0.04871 0.39444 0.0
H67 H 0.73001 0.98329 0.26292 0.0
H68 H 0.76416 0.01142 0.17531 0.0
H69 H 0.83784 0.1021 0.06548 0.0
H70 H 0.87432 0.09018 0.00903 0.0
H71 H 0.84967 0.00423 0.12261 0.0
H72 H 0.81333 0.01662 0.18039 0.0
H73 H 0.75086 0.09577 0.14872 0.0
H74 H 0.7877 0.04937 0.02348 0.0
O75 O 0.80578 0.10151 0.18657 0.0
H76 H 0.71501 0.09374 0.06504 0.0
H77 H 0.75257 0.04836 0.93763 0.0
C78 C 0.77631 0.04558 0.2357 0.0
C79 C 0.77202 0.05526 0.29917 0.0
C80 C 0.75208 0.03959 0.34857 0.0
C81 C 0.73598 0.01382 0.33556 0.0
C82 C 0.74165 0.00325 0.27422 0.0
C83 C 0.7615 0.0191 0.22453 0.0
C84 C 0.82309 0.06038 0.12774 0.0
C85 C 0.84045 0.08076 0.07893 0.0
C86 C 0.8611 0.0738 0.04592 0.0
C87 C 0.86477 0.04617 0.06071 0.0
C88 C 0.84745 0.02574 0.11037 0.0
C89 C 0.82665 0.03278 0.14342 0.0
C90 C 0.7721 0.07311 0.09189 0.0
C91 C 0.75165 0.08595 0.10186 0.0
C92 C 0.73121 0.08488 0.05362 0.0
C93 C 0.73089 0.07092 0.99433 0.0
C94 C 0.75205 0.05902 0.98306 0.0
C95 C 0.77234 0.05986 0.03184 0.0
P96 P 0.48457 0.78975 0.44802 0.0
H97 H 0.50538 0.78947 0.59285 0.0
H98 H 0.5265 0.75579 0.66554 0.0
H99 H 0.53891 0.72175 0.47564 0.0
H100 H 0.51918 0.75644 0.4032 0.0
H101 H 0.45569 0.83171 0.40045 0.0
H102 H 0.46526 0.87585 0.31585 0.0
H103 H 0.54365 0.8664 0.27892 0.0
H104 H 0.53352 0.82125 0.36422 0.0
H105 H 0.44456 0.73751 0.48953 0.0
H106 H 0.48775 0.78405 0.29623 0.0
O107 O 0.46377 0.79264 0.51114 0.0
H108 H 0.42665 0.69795 0.42702 0.0
H109 H 0.47052 0.74446 0.23395 0.0
C110 C 0.50999 0.77495 0.49292 0.0
C111 C 0.51363 0.77554 0.56638 0.0
C112 C 0.52543 0.75595 0.60813 0.0
C113 C 0.53352 0.73521 0.57715 0.0
C114 C 0.53282 0.73715 0.50184 0.0
C115 C 0.52136 0.75704 0.46006 0.0
C116 C 0.49413 0.82366 0.39026 0.0
C117 C 0.47513 0.83929 0.37528 0.0
C118 C 0.48066 0.86462 0.32672 0.0
C119 C 0.5054 0.87499 0.29139 0.0
C120 C 0.52444 0.85903 0.30545 0.0
C121 C 0.5188 0.83344 0.35462 0.0
C122 C 0.46708 0.76389 0.39718 0.0
C123 C 0.44964 0.7395 0.43309 0.0
C124 C 0.43965 0.71679 0.39752 0.0
C125 C 0.44723 0.718 0.32557 0.0
C126 C 0.46391 0.743 0.28896 0.0
C127 C 0.47383 0.76571 0.32458 0.0
P128 P 0.24402 0.49482 0.56831 0.0
H129 H 0.20343 0.45073 0.52326 0.0
H130 H 0.18076 0.44661 0.41123 0.0
H131 H 0.2321 0.52553 0.30998 0.0
H132 H 0.25429 0.52985 0.42412 0.0
H133 H 0.27533 0.52831 0.66529 0.0
H134 H 0.32265 0.54095 0.68281 0.0
H135 H 0.336 0.50887 0.49094 0.0
H136 H 0.28849 0.49589 0.47396 0.0
H137 H 0.20874 0.47958 0.69499 0.0
H138 H 0.23559 0.55184 0.52784 0.0
O139 O 0.24046 0.46284 0.61839 0.0
H140 H 0.17757 0.50255 0.73945 0.0
H141 H 0.20442 0.57543 0.57293 0.0
C142 C 0.23095 0.49023 0.48149 0.0
C143 C 0.21026 0.46683 0.47656 0.0
C144 C 0.19734 0.46446 0.41212 0.0
C145 C 0.20474 0.48559 0.35108 0.0
C146 C 0.22584 0.50891 0.35594 0.0
C147 C 0.23871 0.51129 0.42088 0.0
C148 C 0.27841 0.51171 0.56747 0.0
C149 C 0.28843 0.5249 0.62548 0.0
C150 C 0.31544 0.53193 0.63578 0.0
C151 C 0.33289 0.52581 0.58829 0.0
C152 C 0.32296 0.51412 0.52779 0.0
C153 C 0.29584 0.50679 0.51796 0.0
C154 C 0.22437 0.51397 0.60793 0.0
C155 C 0.20834 0.5007 0.66873 0.0
C156 C 0.1906 0.51403 0.69454 0.0
C157 C 0.1885 0.54092 0.65988 0.0
C158 C 0.20543 0.55466 0.60055 0.0
C159 C 0.22328 0.54127 0.57487 0.0
P160 P 0.09045 0.32123 0.43133 0.0
H161 H 0.11791 0.32954 0.29243 0.0
H162 H 0.11118 0.30043 0.19858 0.0
H163 H 0.03478 0.25632 0.29273 0.0
H164 H 0.04135 0.28596 0.38571 0.0
H165 H 0.11508 0.3716 0.48906 0.0
H166 H 0.09783 0.40383 0.54717 0.0
H167 H 0.01895 0.36278 0.49705 0.0
H168 H 0.03675 0.33125 0.43435 0.0
H169 H 0.12194 0.28298 0.49787 0.0
H170 H 0.0418 0.29007 0.51403 0.0
O171 O 0.12312 0.33303 0.4261 0.0
H172 H 0.11093 0.2382 0.58161 0.0
H173 H 0.03067 0.24496 0.59648 0.0
C174 C 0.08044 0.30947 0.34753 0.0
C175 C 0.09929 0.31432 0.29174 0.0
C176 C 0.09554 0.29746 0.23826 0.0
C177 C 0.07281 0.27546 0.23954 0.0
C178 C 0.0526 0.27294 0.29046 0.0
C179 C 0.05638 0.28991 0.34394 0.0
C180 C 0.07723 0.34875 0.45766 0.0
C181 C 0.09411 0.36982 0.48865 0.0
C182 C 0.08414 0.3881 0.52302 0.0
C183 C 0.05692 0.3854 0.52884 0.0
C184 C 0.04003 0.36538 0.49392 0.0
C185 C 0.05016 0.34724 0.45829 0.0
C186 C 0.08285 0.29024 0.50034 0.0
C187 C 0.1021 0.27524 0.52022 0.0
C188 C 0.09579 0.2496 0.56793 0.0
C189 C 0.06996 0.23822 0.59539 0.0
C190 C 0.0507 0.25329 0.57582 0.0
C191 C 0.05715 0.2792 0.52902 0.0
P192 P 0.30912 0.12462 0.56955 0.0
H193 H 0.3387 0.17196 0.46477 0.0
H194 H 0.36606 0.17364 0.36014 0.0
H195 H 0.33916 0.083 0.37705 0.0
H196 H 0.31169 0.08152 0.48186 0.0
H197 H 0.27395 0.12031 0.68859 0.0
H198 H 0.2268 0.102 0.70948 0.0
H199 H 0.22013 0.07941 0.49722 0.0
H200 H 0.26758 0.09876 0.4759 0.0
H201 H 0.35226 0.13755 0.66684 0.0
H202 H 0.30097 0.06306 0.60798 0.0
O203 O 0.3159 0.15698 0.59082 0.0
H204 H 0.37602 0.1079 0.7446 0.0
H205 H 0.32538 0.03321 0.68441 0.0
C206 C 0.3233 0.12656 0.48174 0.0
C207 C 0.33819 0.15249 0.44514 0.0
C208 C 0.35397 0.15343 0.38514 0.0
C209 C 0.35547 0.12837 0.36128 0.0
C210 C 0.33908 0.10264 0.39522 0.0
C211 C 0.32315 0.10176 0.4549 0.0
C212 C 0.2742 0.11092 0.58081 0.0
C213 C 0.26232 0.11148 0.64642 0.0
C214 C 0.23538 0.10076 0.65851 0.0
C215 C 0.21968 0.08896 0.6053 0.0
C216 C 0.23165 0.08851 0.53913 0.0
C217 C 0.25878 0.09942 0.52699 0.0
C218 C 0.32476 0.1025 0.6321 0.0
C219 C 0.34588 0.11481 0.67137 0.0
C220 C 0.3594 0.09783 0.7159 0.0
C221 C 0.35235 0.06827 0.72082 0.0
C222 C 0.33111 0.05593 0.68161 0.0
C223 C 0.31724 0.07296 0.63801 0.0
P224 P 0.43498 0.23324 0.30425 0.0
H225 H 0.40895 0.24103 0.16668 0.0
H226 H 0.41693 0.28202 0.07047 0.0
H227 H 0.49263 0.31408 0.15691 0.0
H228 H 0.48465 0.27296 0.25238 0.0
H229 H 0.41219 0.17491 0.3692 0.0
H230 H 0.43066 0.14 0.4445 0.0
H231 H 0.50868 0.19303 0.39267 0.0
H232 H 0.48988 0.22727 0.31312 0.0
H233 H 0.41639 0.28372 0.30747 0.0
H234 H 0.46877 0.2401 0.43126 0.0
O235 O 0.40244 0.22112 0.3034 0.0
H236 H 0.43264 0.32465 0.36614 0.0
H237 H 0.48601 0.28122 0.48671 0.0
C238 C 0.44612 0.25395 0.21725 0.0
C239 C 0.42777 0.25619 0.16324 0.0
C240 C 0.43222 0.27988 0.1086 0.0
C241 C 0.45511 0.30171 0.10708 0.0
C242 C 0.47479 0.29769 0.15629 0.0
C243 C 0.47033 0.27395 0.21085 0.0
C244 C 0.44955 0.20394 0.33606 0.0
C245 C 0.4333 0.17862 0.37141 0.0
C246 C 0.44394 0.15877 0.41556 0.0
C247 C 0.4711 0.16421 0.42698 0.0
C248 C 0.48765 0.18823 0.38557 0.0
C249 C 0.47691 0.20786 0.33982 0.0
C250 C 0.44162 0.25894 0.36369 0.0
C251 C 0.43102 0.2827 0.34821 0.0
C252 C 0.44061 0.30625 0.38106 0.0
C253 C 0.46111 0.30652 0.42985 0.0
C254 C 0.47025 0.28183 0.44935 0.0
C255 C 0.46051 0.25822 0.41678 0.0
Nd256 Nd 0.01921 0.01007 0.79244 0.0
Nd257 Nd 0.05233 0.03387 0.90681 0.0
C258 C 0.98488 0.97725 0.72012 0.0
C259 C 0.98294 0.94918 0.70061 0.0
C260 C 0.96008 0.93523 0.67025 0.0
C261 C 0.9585 0.90884 0.6501 0.0
C262 C 0.97983 0.89593 0.65983 0.0
C263 C 0.0026 0.91 0.69126 0.0
C264 C 0.00409 0.93626 0.7116 0.0
C265 C 0.07179 0.02756 0.75525 0.0
C266 C 0.04457 0.96832 0.91452 0.0
C267 C 0.08517 0.06623 0.98297 0.0
C268 C 0.08579 0.09288 0.00943 0.0
C269 C 0.10867 0.11479 0.9991 0.0
C270 C 0.10968 0.14014 0.02398 0.0
C271 C 0.08784 0.14407 0.06025 0.0
C272 C 0.06475 0.12219 0.06937 0.0
C273 C 0.0637 0.09693 0.04398 0.0
C274 C -0.00043 0.01665 0.94414 0.0
C275 C 0.03058 0.07659 0.77998 0.0
O276 O 0.98186 0.97774 0.78856 0.0
O277 O 0.00436 0.99747 0.68944 0.0
O278 O 0.05342 0.03079 0.71039 0.0
O279 O 0.06225 0.01424 0.81554 0.0
O280 O 0.02475 0.97084 0.872 0.0
O281 O 0.06188 0.99084 0.92766 0.0
O282 O 0.088 0.06816 0.9134 0.0
O283 O 0.0673 0.04388 0.01189 0.0
O284 O 0.01817 0.01229 0.98696 0.0
O285 O 0.00901 0.03025 0.8837 0.0
O286 O 0.04915 0.07295 0.82567 0.0
O287 O 0.01269 0.05479 0.7647 0.0
H288 H 0.94349 0.9448 0.66178 0.0
H289 H 0.94053 0.89854 0.62713 0.0
H290 H 0.01959 0.90106 0.69868 0.0
H291 H 0.02192 0.94669 0.7351 0.0
H292 H 0.12582 0.11228 0.97184 0.0
H293 H 0.12762 0.15667 0.01473 0.0
H294 H 0.04765 0.12427 0.09768 0.0
H295 H 0.04565 0.0805 0.05201 0.0
Nd296 Nd 0.53654 0.01517 0.79631 0.0
Nd297 Nd 0.52857 0.05746 0.88544 0.0
C298 C 0.54392 0.97404 0.73158 0.0
C299 C 0.56683 0.97113 0.69032 0.0
C300 C 0.58742 0.96112 0.72559 0.0
C301 C 0.61047 0.96196 0.68763 0.0
C302 C 0.61351 0.9728 0.61348 0.0
C303 C 0.59236 0.98144 0.5777 0.0
C304 C 0.56929 0.98047 0.61552 0.0
C305 C 0.53846 0.06803 0.71736 0.0
C306 C 0.58815 0.05697 0.84281 0.0
C307 C 0.52355 0.09948 0.9504 0.0
C308 C 0.50344 0.10212 1.00082 0.0
C309 C 0.50448 0.12793 0.02361 0.0
C310 C 0.48569 0.12993 0.07356 0.0
C311 C 0.46578 0.10604 0.10176 0.0
C312 C 0.4646 0.08038 0.07753 0.0
C313 C 0.48319 0.07847 0.02738 0.0
C314 C 0.52381 0.00413 0.96381 0.0
C315 C 0.47638 0.01783 0.83416 0.0
O316 O 0.54652 0.97367 0.80078 0.0
O317 O 0.53193 0.99327 0.70197 0.0
O318 O 0.55463 0.05276 0.70714 0.0
O319 O 0.52249 0.05536 0.76838 0.0
O320 O 0.57867 0.0314 0.82848 0.0
O321 O 0.57245 0.07318 0.85389 0.0
O322 O 0.51589 0.09726 0.88499 0.0
O323 O 0.53761 0.08156 0.97527 0.0
O324 O 0.50915 0.02093 0.97372 0.0
O325 O 0.54111 0.01596 0.91505 0.0
O326 O 0.48652 0.04203 0.85544 0.0
O327 O 0.49129 1.00173 0.816 0.0
H328 H 0.58608 0.95343 0.783 0.0
H329 H 0.62613 0.9546 0.71674 0.0
H330 H 0.59398 0.99017 0.52086 0.0
H331 H 0.55376 0.98811 0.58644 0.0
H332 H 0.51995 0.1464 0.00343 0.0
H333 H 0.48712 0.14993 0.09149 0.0
H334 H 0.44926 0.06174 0.09741 0.0
H335 H 0.4819 0.05844 0.00979 0.0
Nd336 Nd 0.48151 0.5234 0.91193 0.0
Nd337 Nd 0.52235 0.52127 0.80224 0.0
C338 C 0.44103 0.5325 0.97885 0.0
C339 C 0.43507 0.55602 0.00853 0.0
C340 C 0.44574 0.58412 0.9762 0.0
C341 C 0.44215 0.60639 0.00858 0.0
C342 C 0.42777 0.60093 0.07406 0.0
C343 C 0.4163 0.57271 0.10496 0.0
C344 C 0.41998 0.55045 0.07247 0.0
C345 C 0.52969 0.52335 0.96875 0.0
C346 C 0.51688 0.58286 0.81509 0.0
C347 C 0.55706 0.50727 0.72484 0.0
C348 C 0.55222 0.48437 0.68157 0.0
C349 C 0.56445 0.46182 0.69852 0.0
C350 C 0.55598 0.43737 0.66803 0.0
C351 C 0.53516 0.43511 0.61995 0.0
C352 C 0.52389 0.4583 0.60046 0.0
C353 C 0.53228 0.4826 0.63089 0.0
C354 C 0.47222 0.5175 0.75195 0.0
C355 C 0.49108 0.46244 0.9061 0.0
O356 O 0.44358 0.53584 0.90875 0.0
O357 O 0.45888 0.5211 0.01223 0.0
O358 O 0.50756 0.51153 0.00343 0.0
O359 O 0.52624 0.53702 0.90788 0.0
O360 O 0.49459 0.56953 0.8509 0.0
O361 O 0.53409 0.56896 0.79962 0.0
O362 O 0.55401 0.49888 0.79441 0.0
O363 O 0.54657 0.52857 0.70221 0.0
O364 O 0.4931 0.5314 0.71424 0.0
O365 O 0.47833 0.50529 0.81103 0.0
O366 O 0.51318 0.47663 0.87115 0.0
O367 O 0.47259 0.47534 0.91794 0.0
H368 H 0.45743 0.5888 0.92688 0.0
H369 H 0.45154 0.62782 0.98379 0.0
H370 H 0.40485 0.56782 0.1549 0.0
H371 H 0.41156 0.52886 0.09815 0.0
H372 H 0.5797 0.46258 0.73787 0.0
H373 H 0.56526 0.41996 0.68347 0.0
H374 H 0.50757 0.45717 0.5645 0.0
H375 H 0.52212 0.49938 0.61729 0.0
Nd376 Nd 0.99284 0.53666 0.77379 0.0
Nd377 Nd 0.00369 0.49069 0.88597 0.0
C378 C 0.98145 0.58012 0.68921 0.0
C379 C 0.96149 0.58119 0.63358 0.0
C380 C 0.944 0.59866 0.63474 0.0
C381 C 0.92294 0.59702 0.58799 0.0
C382 C 0.9191 0.57793 0.53906 0.0
C383 C 0.93716 0.56114 0.53661 0.0
C384 C 0.95804 0.56267 0.58342 0.0
C385 C 0.9954 0.48869 0.72087 0.0
C386 C 0.94454 0.48457 0.83904 0.0
C387 C 0.02204 0.45087 0.96778 0.0
C388 C 0.04773 0.44779 0.99508 0.0
C389 C 0.04869 0.42788 0.05672 0.0
C390 C 0.0724 0.42793 0.09129 0.0
C391 C 0.09551 0.44813 0.06511 0.0
C392 C 0.09472 0.46717 1.00115 0.0
C393 C 0.07101 0.46689 0.96621 0.0
C394 C 0.98364 0.52964 0.94135 0.0
C395 C 0.05348 0.5425 0.82071 0.0
O396 O 0.97222 0.57153 0.7555 0.0
O397 O 0.00083 0.56911 0.67519 0.0
O398 O 0.97846 0.50347 0.70053 0.0
O399 O 0.01043 0.49974 0.76611 0.0
O400 O 0.95184 0.51218 0.81773 0.0
O401 O 0.96215 0.46962 0.85607 0.0
O402 O 0.01849 0.45156 0.89881 0.0
O403 O 0.01283 0.46978 0.99292 0.0
O404 O 0.97618 0.50251 0.96231 0.0
O405 O 0.00118 0.53569 0.89179 0.0
O406 O 0.0449 0.51971 0.86939 0.0
O407 O 0.03747 0.5536 0.77691 0.0
H408 H 0.94617 0.61295 0.67331 0.0
H409 H 0.90943 0.61034 0.59088 0.0
H410 H 0.93454 0.54585 0.50058 0.0
H411 H 0.97093 0.54858 0.58184 0.0
H412 H 0.03088 0.41313 0.08006 0.0
H413 H 0.07231 0.4132 0.14085 0.0
H414 H 0.11226 0.48279 0.97937 0.0
H415 H 0.07071 0.48229 0.91835 0.0
H416 H 0.19528 0.05759 0.72883 0.0
H417 H 0.17951 0.09443 0.51374 0.0
H418 H 0.13226 0.07791 0.54036 0.0
H419 H 0.0954 0.05476 0.62684 0.0
H420 H 0.11171 0.01956 0.84289 0.0
H421 H 0.15881 0.03419 0.81422 0.0
C422 C 0.18153 0.0622 0.68783 0.0
C423 C 0.19097 0.07742 0.61955 0.0
C424 C 0.15448 0.05311 0.70389 0.0
C425 C 0.17283 0.08256 0.56655 0.0
C426 C 0.14579 0.07332 0.58193 0.0
C427 C 0.10931 0.05025 0.66746 0.0
C428 C 0.10016 0.03613 0.73683 0.0
C429 C 0.1364 0.05884 0.65067 0.0
C430 C 0.11831 0.0304 0.78908 0.0
C431 C 0.14523 0.03875 0.77274 0.0
H432 H 0.51699 0.14611 0.43257 0.0
H433 H 0.44854 0.14417 0.56046 0.0
H434 H 0.46426 0.1161 0.66212 0.0
H435 H 0.49659 0.09105 0.71467 0.0
H436 H 0.56509 0.09185 0.58919 0.0
H437 H 0.55065 0.12208 0.48774 0.0
C438 C 0.50561 0.13965 0.48278 0.0
C439 C 0.48134 0.14686 0.48803 0.0
C440 C 0.5149 0.12356 0.54193 0.0
C441 C 0.46689 0.13829 0.5538 0.0
C442 C 0.47599 0.12247 0.61249 0.0
C443 C 0.50855 0.09809 0.66542 0.0
C444 C 0.53185 0.0892 0.6594 0.0
C445 C 0.49985 0.11485 0.60708 0.0
C446 C 0.54708 0.09845 0.59517 0.0
C447 C 0.53874 0.1156 0.53702 0.0
H448 H 0.35071 0.50389 0.7137 0.0
H449 H 0.37712 0.55193 0.50426 0.0
H450 H 0.42299 0.55394 0.53637 0.0
H451 H 0.45544 0.54157 0.62483 0.0
H452 H 0.42785 0.49121 0.83144 0.0
H453 H 0.38256 0.49064 0.79988 0.0
C454 C 0.36656 0.51508 0.67542 0.0
C455 C 0.36071 0.5281 0.6072 0.0
C456 C 0.3926 0.51561 0.69375 0.0
C457 C 0.38128 0.54189 0.55726 0.0
C458 C 0.40743 0.54301 0.57562 0.0
C459 C 0.43946 0.53047 0.66271 0.0
C460 C 0.44494 0.51665 0.73056 0.0
C461 C 0.41332 0.52985 0.64373 0.0
C462 C 0.42412 0.50216 0.77908 0.0
C463 C 0.39821 0.50181 0.7611 0.0
H464 H 0.01555 0.41076 0.50446 0.0
H465 H 0.07478 0.39768 0.65867 0.0
H466 H 0.06049 0.42758 0.73216 0.0
H467 H 0.0325 0.45904 0.75096 0.0
H468 H 0.97222 0.47149 0.6003 0.0
H469 H 0.98523 0.43991 0.52809 0.0
C470 C 0.02512 0.41419 0.55451 0.0
C471 C 0.0466 0.40238 0.57495 0.0
C472 C 0.0166 0.4313 0.59739 0.0
C473 C 0.05873 0.40712 0.64022 0.0
C474 C 0.05044 0.42406 0.6828 0.0
C475 C 0.02204 0.45462 0.7027 0.0
C476 C 0.00154 0.46765 0.6808 0.0
C477 C 0.02964 0.43655 0.66151 0.0
C478 C 0.98812 0.4617 0.61823 0.0
C479 C 0.9956 0.44372 0.5768 0.0
H480 H 0.89794 0.01446 0.12092 0.0
H481 H 0.88147 0.06231 0.91981 0.0
H482 H 0.92068 0.05546 0.86379 0.0
H483 H 0.96157 0.039 0.87454 0.0
H484 H 0.9781 0.99153 0.07607 0.0
H485 H 0.93672 0.99451 0.12865 0.0
C486 C 0.90264 0.02293 0.06449 0.0
C487 C 0.88695 0.03917 0.02497 0.0
C488 C 0.92531 0.01903 0.03263 0.0
C489 C 0.8935 0.0502 0.95194 0.0
C490 C 0.91587 0.04619 0.91971 0.0
C491 C 0.9559 0.02898 0.92961 0.0
C492 C 0.97295 0.01532 0.97159 0.0
C493 C 0.93224 0.03116 0.95993 0.0
C494 C 0.96536 0.00236 0.04283 0.0
C495 C 0.94174 0.00411 0.07302 0.0
H496 H 0.53056 0.88841 0.15828 0.0
H497 H 0.49192 0.92323 0.30953 0.0
H498 H 0.49427 0.96584 0.2215 0.0
H499 H 0.50477 0.99216 0.10012 0.0
H500 H 0.54575 0.96006 0.94882 0.0
H501 H 0.54517 0.91752 0.03826 0.0
C502 C 0.52308 0.90554 0.1723 0.0
C503 C 0.51057 0.9023 0.24009 0.0
C504 C 0.52465 0.93033 0.1212 0.0
C505 C 0.50103 0.92478 0.25727 0.0
C506 C 0.50242 0.94924 0.20702 0.0
C507 C 0.51364 0.97589 0.08661 0.0
C508 C 0.52492 0.97897 0.01765 0.0
C509 C 0.51365 0.95197 0.13845 0.0
C510 C 0.53676 0.95799 1.00144 0.0
C511 C 0.53643 0.93372 0.0526 0.0
H512 H 0.62448 0.48737 0.13239 0.0
H513 H 0.66609 0.53041 0.9341 0.0
H514 H 0.62606 0.54353 0.88707 0.0
H515 H 0.57831 0.54051 0.901 0.0
H516 H 0.53776 0.49672 0.10071 0.0
H517 H 0.57819 0.48607 0.14827 0.0
C518 C 0.62477 0.49957 0.07878 0.0
C519 C 0.64805 0.50765 0.03647 0.0
C520 C 0.60182 0.50686 0.0523 0.0
C521 C 0.64834 0.52398 0.96771 0.0
C522 C 0.62546 0.53137 0.94075 0.0
C523 C 0.5785 0.5289 0.95509 0.0
C524 C 0.55509 0.51937 0.99721 0.0
C525 C 0.60196 0.52265 0.98233 0.0
C526 C 0.5555 0.50426 0.06713 0.0
C527 C 0.57861 0.4981 0.09447 0.0
H528 H 0.96332 0.59821 0.17997 0.0
H529 H 0.00105 0.66831 0.01769 0.0
H530 H 0.00355 0.63594 0.93486 0.0
H531 H 0.99754 0.58726 0.91103 0.0
H532 H 0.95843 0.51731 0.07203 0.0
H533 H 0.95383 0.54987 0.15221 0.0
C534 C 0.97188 0.60633 0.12626 0.0
C535 C 0.98201 0.63557 0.10506 0.0
C536 C 0.97315 0.58758 0.07864 0.0
C537 C 0.99288 0.64589 0.03508 0.0
C538 C 0.99448 0.62738 0.98779 0.0
C539 C 0.98782 0.57923 0.96342 0.0
C540 C 0.97865 0.54993 0.98583 0.0
C541 C 0.98503 0.59813 0.0093 0.0
C542 C 0.96582 0.53979 0.05356 0.0
C543 C 0.96322 0.55839 0.09965 0.0
H544 H 0.0303 0.19289 0.58057 0.0
H545 H 0.0948 0.2211 0.71534 0.0
H546 H 0.08652 0.1739 0.78808 0.0
H547 H 0.06322 0.12447 0.80799 0.0
H548 H -6e-05 0.09454 0.67086 0.0
H549 H 0.00518 0.14283 0.60485 0.0
C550 C 0.04224 0.18869 0.62654 0.0
C551 C 0.06319 0.21029 0.64266 0.0
C552 C 0.03767 0.16131 0.66723 0.0
C553 C 0.07874 0.20467 0.70176 0.0
C554 C 0.07399 0.17775 0.74329 0.0
C555 C 0.05038 0.12836 0.76392 0.0
C556 C 0.03136 0.10582 0.74394 0.0
C557 C 0.05387 0.15585 0.72561 0.0
C558 C 0.01479 0.11148 0.6872 0.0
C559 C 0.01785 0.13906 0.64933 0.0
H560 H 0.3752 0.02993 0.6761 0.0
H561 H 0.3662 0.0687 0.8597 0.0
H562 H 0.40084 0.04919 0.92058 0.0
H563 H 0.43901 0.0298 0.91062 0.0
H564 H 0.45102 0.99464 0.72319 0.0
H565 H 0.40928 0.00283 0.67592 0.0
C566 C 0.38031 0.03329 0.73034 0.0
C567 C 0.36855 0.05102 0.76317 0.0
C568 C 0.40086 0.02273 0.76403 0.0
C569 C 0.37533 0.05542 0.83323 0.0
C570 C 0.3951 0.04429 0.86795 0.0
C571 C 0.43199 0.02302 0.8606 0.0
C572 C 0.4481 0.01204 0.81984 0.0
C573 C 0.40882 0.02916 0.83235 0.0
C574 C 0.43885 0.00306 0.75554 0.0
C575 C 0.41519 0.00818 0.72802 0.0
H576 H 0.47964 0.31273 0.56373 0.0
H577 H 0.47314 0.36005 0.35269 0.0
H578 H 0.4963 0.40359 0.39197 0.0
H579 H 0.51874 0.42831 0.48547 0.0
H580 H 0.52544 0.38137 0.69664 0.0
H581 H 0.50296 0.33746 0.65696 0.0
C582 C 0.48342 0.33253 0.52618 0.0
C583 C 0.47437 0.33305 0.45555 0.0
C584 C 0.4972 0.35752 0.5487 0.0
C585 C 0.47928 0.35902 0.40787 0.0
C586 C 0.49282 0.38394 0.43 0.0
C587 C 0.51524 0.40848 0.5229 0.0
C588 C 0.52376 0.40817 0.5939 0.0
C589 C 0.50186 0.38343 0.50022 0.0
C590 C 0.51944 0.3822 0.64136 0.0
C591 C 0.50632 0.35711 0.61895 0.0
H592 H 0.17091 0.54078 0.7954 0.0
H593 H 0.15663 0.56705 0.57162 0.0
H594 H 0.11511 0.57637 0.60461 0.0
H595 H 0.07926 0.56791 0.69429 0.0
H596 H 0.09193 0.53733 0.91665 0.0
H597 H 0.13756 0.53905 0.88726 0.0
C598 C 0.15888 0.54894 0.75394 0.0
C599 C 0.16667 0.55269 0.6811 0.0
C600 C 0.13452 0.55319 0.77307 0.0
C601 C 0.15119 0.56397 0.62813 0.0
C602 C 0.12726 0.56907 0.64692 0.0
C603 C 0.09227 0.56262 0.73671 0.0
C604 C 0.08217 0.55218 0.80735 0.0
C605 C 0.11819 0.5625 0.71887 0.0
C606 C 0.09921 0.54519 0.8617 0.0
C607 C 0.12527 0.546 0.84485 0.0
H608 H 0.06238 0.85739 0.10547 0.0
H609 H 0.99415 0.82062 0.99351 0.0
H610 H 0.99559 0.86664 0.91946 0.0
H611 H 0.01372 0.9178 0.89487 0.0
H612 H 0.08105 0.95502 0.0101 0.0
H613 H 0.08265 0.90827 0.0741 0.0
C614 C 0.04821 0.85942 0.06378 0.0
C615 C 0.02813 0.83584 0.05495 0.0
C616 C 0.0488 0.88601 0.02271 0.0
C617 C 0.00964 0.83865 1.00145 0.0
C618 C 0.01043 0.86491 0.9593 0.0
C619 C 0.02888 0.91571 0.9336 0.0
C620 C 0.04702 0.9399 0.94837 0.0
C621 C 0.02949 0.88885 0.97088 0.0
C622 C 0.0667 0.93676 0.99812 0.0
C623 C 0.06764 0.91003 0.0348 0.0
H624 H 0.7006 0.10798 0.94801 0.0
H625 H 0.70785 0.02328 0.94014 0.0
H626 H 0.66585 0.01311 0.88184 0.0
H627 H 0.62461 0.02592 0.84829 0.0
H628 H 0.61549 0.1092 0.8652 0.0
H629 H 0.66057 0.12215 0.90495 0.0
C630 C 0.69305 0.08733 0.9333 0.0
C631 C 0.70733 0.06639 0.94922 0.0
C632 C 0.66837 0.08122 0.90209 0.0
C633 C 0.69751 0.03996 0.9281 0.0
C634 C 0.6733 0.03398 0.89534 0.0
C635 C 0.63257 0.04708 0.85949 0.0
C636 C 0.61656 0.06642 0.85473 0.0
C637 C 0.65821 0.05413 0.88423 0.0
C638 C 0.62729 0.09379 0.86913 0.0
C639 C 0.65306 0.1012 0.89205 0.0
H640 H 0.43233 0.715 0.18749 0.0
H641 H 0.44646 0.66363 0.38589 0.0
H642 H 0.43928 0.62237 0.32686 0.0
H643 H 0.43322 0.60192 0.21679 0.0
H644 H 0.42012 0.65311 0.01715 0.0
H645 H 0.42318 0.69352 0.07852 0.0
C646 C 0.43373 0.69474 0.21781 0.0
C647 C 0.43997 0.69248 0.29096 0.0
C648 C 0.4301 0.67114 0.18316 0.0
C649 C 0.44134 0.66596 0.3298 0.0
C650 C 0.43748 0.64236 0.29592 0.0
C651 C 0.43044 0.62171 0.18691 0.0
C652 C 0.42657 0.62451 0.11242 0.0
C653 C 0.43236 0.64484 0.22237 0.0
C654 C 0.42348 0.6505 0.07437 0.0
C655 C 0.42514 0.67359 0.10945 0.0
H656 H 0.83408 0.4236 0.98198 0.0
H657 H 0.81784 0.50272 0.88137 0.0
H658 H 0.85972 0.51557 0.81553 0.0
H659 H 0.9037 0.50827 0.8026 0.0
H660 H 0.92195 0.43125 0.91065 0.0
H661 H 0.87665 0.41374 0.95725 0.0
C662 C 0.83959 0.44353 0.94509 0.0
C663 C 0.8229 0.46229 0.93772 0.0
C664 C 0.86429 0.45142 0.90947 0.0
C665 C 0.83007 0.48769 0.88808 0.0
C666 C 0.85424 0.49528 0.85088 0.0
C667 C 0.89772 0.48744 0.83541 0.0
C668 C 0.91632 0.47136 0.85439 0.0
C669 C 0.87193 0.47788 0.86363 0.0
C670 C 0.90809 0.4442 0.89578 0.0
C671 C 0.88221 0.43423 0.92277 0.0
H672 H 0.11172 0.25004 0.21807 0.0
H673 H 0.0315 0.24964 0.16411 0.0
H674 H 0.02931 0.20958 0.10136 0.0
H675 H 0.0499 0.17366 0.06563 0.0
H676 H 0.12962 0.17348 0.1257 0.0
H677 H 0.13245 0.21525 0.18044 0.0
C678 C 0.09389 0.24161 0.19131 0.0
C679 C 0.07187 0.25301 0.19525 0.0
C680 C 0.09268 0.21842 0.15642 0.0
C681 C 0.04872 0.24125 0.16194 0.0
C682 C 0.04747 0.21836 0.12608 0.0
C683 C 0.06787 0.18266 0.09095 0.0
C684 C 0.08953 0.17032 0.09114 0.0
C685 C 0.06925 0.20652 0.12381 0.0
C686 C 0.11276 0.18266 0.1234 0.0
C687 C 0.11436 0.20648 0.15535 0.0
H688 H 0.38573 0.0909 0.36059 0.0
H689 H 0.37101 0.16729 0.23771 0.0
H690 H 0.40496 0.1682 0.14884 0.0
H691 H 0.43778 0.14607 0.10357 0.0
H692 H 0.45101 0.06892 0.22606 0.0
H693 H 0.41834 0.06925 0.31674 0.0
C694 C 0.38955 0.10749 0.31373 0.0
C695 C 0.37547 0.12872 0.30544 0.0
C696 C 0.40882 0.1077 0.26256 0.0
C697 C 0.38146 0.15062 0.24553 0.0
C698 C 0.40084 0.15112 0.19455 0.0
C699 C 0.4336 0.12948 0.15043 0.0
C700 C 0.44664 0.10737 0.15779 0.0
C701 C 0.41454 0.12965 0.20225 0.0
C702 C 0.44096 0.08593 0.21859 0.0
C703 C 0.42234 0.08615 0.27059 0.0
H704 H 0.49761 0.33728 0.0303 0.0
H705 H 0.41636 0.33019 0.08556 0.0
H706 H 0.41982 0.37866 0.02561 0.0
H707 H 0.44668 0.42433 0.96487 0.0
H708 H 0.52803 0.4316 0.90986 0.0
H709 H 0.52375 0.38213 0.96246 0.0
C710 C 0.48063 0.34629 0.02873 0.0
C711 C 0.45677 0.32999 0.06233 0.0
C712 C 0.4828 0.37442 0.99479 0.0
C713 C 0.43488 0.34198 0.0592 0.0
C714 C 0.43689 0.36987 0.02553 0.0
C715 C 0.46344 0.41507 0.96403 0.0
C716 C 0.48767 0.43182 0.93398 0.0
C717 C 0.46087 0.38647 0.99426 0.0
C718 C 0.50912 0.41932 0.9328 0.0
C719 C 0.50673 0.39096 0.96299 0.0
H720 H 0.1836 0.43901 0.29099 0.0
H721 H 0.18997 0.52892 0.26321 0.0
H722 H 0.15917 0.5256 0.1655 0.0
H723 H 0.12641 0.49644 0.09825 0.0
H724 H 0.1178 0.40616 0.13139 0.0
H725 H 0.15314 0.41028 0.21753 0.0
C726 C 0.17832 0.45791 0.26347 0.0
C727 C 0.18896 0.48412 0.28511 0.0
C728 C 0.15992 0.45573 0.20884 0.0
C729 C 0.18233 0.50849 0.24754 0.0
C730 C 0.16448 0.50658 0.192 0.0
C731 C 0.1327 0.47775 0.12304 0.0
C732 C 0.11946 0.45102 0.10868 0.0
C733 C 0.15263 0.48022 0.17355 0.0
C734 C 0.12755 0.42693 0.14209 0.0
C735 C 0.14774 0.42929 0.19129 0.0
H736 H 0.99499 0.78063 0.58371 0.0
H737 H 0.95233 0.80631 0.39764 0.0
H738 H 0.9464 0.84674 0.4484 0.0
H739 H 0.95741 0.87764 0.5392 0.0
H740 H -2e-05 0.85197 0.7257 0.0
H741 H 0.00234 0.80922 0.68031 0.0
C742 C 0.98416 0.79492 0.55459 0.0
C743 C 0.97424 0.7904 0.48673 0.0
C744 C 0.98124 0.81852 0.58348 0.0
C745 C 0.95994 0.80897 0.45028 0.0
C746 C 0.95679 0.83234 0.47893 0.0
C747 C 0.96675 0.86248 0.57082 0.0
C748 C 0.97884 0.86843 0.63544 0.0
C749 C 0.96791 0.83773 0.54463 0.0
C750 C 0.99107 0.84846 0.67496 0.0
C751 C 0.99227 0.82383 0.64928 0.0
H752 H 0.72937 0.00911 0.4815 0.0
H753 H 0.68765 0.98774 0.2922 0.0
H754 H 0.64675 0.97042 0.36302 0.0
H755 H 0.62195 0.96525 0.47601 0.0
H756 H 0.66302 0.99039 0.66285 0.0
H757 H 0.70479 0.00209 0.59587 0.0
C758 C 0.71137 1.00064 0.45561 0.0
C759 C 0.7118 0.99993 0.38127 0.0
C760 C 0.68761 0.99148 0.49625 0.0
C761 C 0.68822 0.98827 0.34933 0.0
C762 C 0.66465 0.9786 0.38971 0.0
C763 C 0.64001 0.9733 0.50218 0.0
C764 C 0.63915 0.97705 0.57444 0.0
C765 C 0.664 0.98074 0.46278 0.0
C766 C 0.66294 0.98693 0.60767 0.0
C767 C 0.6869 0.9939 0.56916 0.0
H768 H 0.50845 0.70725 0.70324 0.0
H769 H 0.56913 0.70417 0.55404 0.0
H770 H 0.57101 0.65743 0.61846 0.0
H771 H 0.55207 0.61543 0.71004 0.0
H772 H 0.49173 0.61978 0.85847 0.0
H773 H 0.49361 0.66827 0.80243 0.0
C774 C 0.52274 0.69691 0.68575 0.0
C775 C 0.5385 0.70936 0.62327 0.0
C776 C 0.52361 0.67002 0.72267 0.0
C777 C 0.55643 0.69504 0.60116 0.0
C778 C 0.55755 0.66828 0.6381 0.0
C779 C 0.53967 0.62715 0.73094 0.0
C780 C 0.5214 0.61367 0.78775 0.0
C781 C 0.54069 0.6552 0.69779 0.0
C782 C 0.50556 0.62929 0.81407 0.0
C783 C 0.50667 0.65714 0.78207 0.0
H784 H 0.80778 0.54469 0.40373 0.0
H785 H 0.8564 0.53933 0.2258 0.0
H786 H 0.89577 0.55796 0.28869 0.0
H787 H 0.9166 0.5716 0.39845 0.0
H788 H 0.86832 0.57449 0.57944 0.0
H789 H 0.82878 0.56131 0.51103 0.0
C790 C 0.82699 0.54769 0.37862 0.0
C791 C 0.82901 0.54048 0.31016 0.0
C792 C 0.84969 0.55789 0.4158 0.0
C793 C 0.85411 0.54499 0.27797 0.0
C794 C 0.87672 0.55543 0.3142 0.0
C795 C 0.89742 0.56947 0.42281 0.0
C796 C 0.89544 0.57379 0.49417 0.0
C797 C 0.87475 0.56132 0.38374 0.0
C798 C 0.87046 0.5715 0.52444 0.0
C799 C 0.84781 0.56371 0.48555 0.0
loop_
_geom_bond_atom_site_label_1
_geom_bond_atom_site_label_2
_geom_bond_distance
_geom_bond_site_symmetry_2
_ccdc_geom_bond_type
P0 O11 1.490 . S
P0 C14 1.812 . S
P0 C20 1.803 . S
P0 C26 1.819 1_554 S
H1 C15 0.941 . S
H2 C16 0.939 . S
H3 C18 0.940 . S
H4 C19 0.940 . S
H5 C21 0.939 1_556 S
H6 C22 0.942 . S
H7 C24 0.940 . S
H8 C25 0.939 . S
H9 C27 0.941 1_554 S
H10 C31 0.939 . S
O11 P0 1.490 . S
H12 C28 0.939 . S
H13 C30 0.940 . S
C14 P0 1.812 . S
C14 C15 1.389 . S
C14 C19 1.391 . S
C15 H1 0.941 . S
C15 C14 1.389 . S
C15 C16 1.397 . S
C16 H2 0.939 . S
C16 C15 1.397 . S
C16 C17 1.378 . S
C17 C16 1.378 . S
C17 C18 1.378 . S
C18 H3 0.940 . S
C18 C17 1.378 . S
C18 C19 1.396 . S
C19 H4 0.940 . S
C19 C14 1.391 . S
C19 C18 1.396 . S
C20 P0 1.803 . S
C20 C21 1.378 . S
C20 C25 1.400 . S
C21 H5 0.939 1_554 S
C21 C20 1.378 . S
C21 C22 1.361 1_554 S
C22 H6 0.942 . S
C22 C21 1.361 1_556 S
C22 C23 1.369 . S
C23 C22 1.369 . S
C23 C24 1.404 1_556 S
C24 H7 0.940 . S
C24 C23 1.404 1_554 S
C24 C25 1.389 . S
C25 H8 0.939 . S
C25 C20 1.400 . S
C25 C24 1.389 . S
C26 P0 1.819 1_556 S
C26 C27 1.391 . S
C26 C31 1.391 . S
C27 H9 0.941 1_556 S
C27 C26 1.391 . S
C27 C28 1.396 . S
C28 H12 0.939 . S
C28 C27 1.396 . S
C28 C29 1.397 . S
C29 C28 1.397 . S
C29 C30 1.385 . S
C30 H13 0.940 . S
C30 C29 1.385 . S
C30 C31 1.388 . S
C31 H10 0.939 . S
C31 C26 1.391 . S
C31 C30 1.388 . S
P32 O43 1.490 . S
P32 C46 1.812 . S
P32 C52 1.803 . S
P32 C58 1.819 1_554 S
H33 C47 0.941 . S
H34 C48 0.939 . S
H35 C50 0.940 . S
H36 C51 0.940 . S
H37 C53 0.939 1_556 S
H38 C54 0.942 . S
H39 C56 0.940 . S
H40 C57 0.939 . S
H41 C59 0.941 1_554 S
H42 C63 0.939 . S
O43 P32 1.490 . S
H44 C60 0.939 . S
H45 C62 0.940 . S
C46 P32 1.812 . S
C46 C47 1.389 . S
C46 C51 1.391 . S
C47 H33 0.941 . S
C47 C46 1.389 . S
C47 C48 1.397 . S
C48 H34 0.939 . S
C48 C47 1.397 . S
C48 C49 1.378 . S
C49 C48 1.378 . S
C49 C50 1.378 . S
C50 H35 0.940 . S
C50 C49 1.378 . S
C50 C51 1.396 . S
C51 H36 0.940 . S
C51 C46 1.391 . S
C51 C50 1.396 . S
C52 P32 1.803 . S
C52 C53 1.378 . S
C52 C57 1.400 . S
C53 H37 0.939 1_554 S
C53 C52 1.378 . S
C53 C54 1.361 1_554 S
C54 H38 0.942 . S
C54 C53 1.361 1_556 S
C54 C55 1.369 1_556 S
C55 C54 1.369 1_554 S
C55 C56 1.404 . S
C56 H39 0.940 . S
C56 C55 1.404 . S
C56 C57 1.389 . S
C57 H40 0.939 . S
C57 C52 1.400 . S
C57 C56 1.389 . S
C58 P32 1.819 1_556 S
C58 C59 1.391 . S
C58 C63 1.391 . S
C59 H41 0.941 1_556 S
C59 C58 1.391 . S
C59 C60 1.396 . S
C60 H44 0.939 . S
C60 C59 1.396 . S
C60 C61 1.397 . S
C61 C60 1.397 . S
C61 C62 1.385 . S
C62 H45 0.940 . S
C62 C61 1.385 . S
C62 C63 1.388 . S
C63 H42 0.939 . S
C63 C58 1.391 . S
C63 C62 1.388 . S
P64 O75 1.490 . S
P64 C78 1.812 1_556 S
P64 C84 1.803 . S
P64 C90 1.819 . S
H65 C79 0.941 . S
H66 C80 0.939 . S
H67 C82 0.940 . S
H68 C83 0.940 . S
H69 C85 0.939 . S
H70 C86 0.942 . S
H71 C88 0.940 1_554 S
H72 C89 0.939 . S
H73 C91 0.941 . S
H74 C95 0.939 . S
O75 P64 1.490 . S
H76 C92 0.939 . S
H77 C94 0.940 . S
C78 P64 1.812 1_554 S
C78 C79 1.389 . S
C78 C83 1.391 1_545 S
C79 H65 0.941 . S
C79 C78 1.389 . S
C79 C80 1.397 . S
C80 H66 0.939 . S
C80 C79 1.397 . S
C80 C81 1.378 1_545 S
C81 C80 1.378 1_565 S
C81 C82 1.378 . S
C82 H67 0.940 . S
C82 C81 1.378 . S
C82 C83 1.396 . S
C83 H68 0.940 . S
C83 C78 1.391 1_565 S
C83 C82 1.396 . S
C84 P64 1.803 . S
C84 C85 1.378 . S
C84 C89 1.400 1_546 S
C85 H69 0.939 . S
C85 C84 1.378 . S
C85 C86 1.361 . S
C86 H70 0.942 . S
C86 C85 1.361 . S
C86 C87 1.369 1_545 S
C87 C86 1.369 1_565 S
C87 C88 1.404 . S
C88 H71 0.940 1_556 S
C88 C87 1.404 . S
C88 C89 1.389 1_556 S
C89 H72 0.939 . S
C89 C84 1.400 1_564 S
C89 C88 1.389 1_554 S
C90 P64 1.819 . S
C90 C91 1.391 . S
C90 C95 1.391 1_545 S
C91 H73 0.941 . S
C91 C90 1.391 . S
C91 C92 1.396 . S
C92 H76 0.939 . S
C92 C91 1.396 . S
C92 C93 1.397 1_545 S
C93 C92 1.397 1_565 S
C93 C94 1.385 . S
C94 H77 0.940 . S
C94 C93 1.385 . S
C94 C95 1.388 . S
C95 H74 0.939 . S
C95 C90 1.391 1_565 S
C95 C94 1.388 . S
P96 O107 1.490 . S
P96 C110 1.812 . S
P96 C116 1.803 . S
P96 C122 1.819 . S
H97 C111 0.941 . S
H98 C112 0.939 . S
H99 C114 0.940 . S
H100 C115 0.940 . S
H101 C117 0.939 . S
H102 C118 0.942 . S
H103 C120 0.940 . S
H104 C121 0.939 . S
H105 C123 0.941 . S
H106 C127 0.939 . S
O107 P96 1.490 . S
H108 C124 0.939 . S
H109 C126 0.940 . S
C110 P96 1.812 . S
C110 C111 1.389 . S
C110 C115 1.391 . S
C111 H97 0.941 . S
C111 C110 1.389 . S
C111 C112 1.397 . S
C112 H98 0.939 . S
C112 C111 1.397 . S
C112 C113 1.378 . S
C113 C112 1.378 . S
C113 C114 1.378 . S
C114 H99 0.940 . S
C114 C113 1.378 . S
C114 C115 1.396 . S
C115 H100 0.940 . S
C115 C110 1.391 . S
C115 C114 1.396 . S
C116 P96 1.803 . S
C116 C117 1.378 . S
C116 C121 1.400 . S
C117 H101 0.939 . S
C117 C116 1.378 . S
C117 C118 1.361 . S
C118 H102 0.942 . S
C118 C117 1.361 . S
C118 C119 1.369 . S
C119 C118 1.369 . S
C119 C120 1.404 . S
C120 H103 0.940 . S
C120 C119 1.404 . S
C120 C121 1.389 . S
C121 H104 0.939 . S
C121 C116 1.400 . S
C121 C120 1.389 . S
C122 P96 1.819 . S
C122 C123 1.391 . S
C122 C127 1.391 . S
C123 H105 0.941 . S
C123 C122 1.391 . S
C123 C124 1.396 . S
C124 H108 0.939 . S
C124 C123 1.396 . S
C124 C125 1.397 . S
C125 C124 1.397 . S
C125 C126 1.385 . S
C126 H109 0.940 . S
C126 C125 1.385 . S
C126 C127 1.388 . S
C127 H106 0.939 . S
C127 C122 1.391 . S
C127 C126 1.388 . S
P128 O139 1.490 . S
P128 C142 1.812 . S
P128 C148 1.803 . S
P128 C154 1.819 . S
H129 C143 0.941 . S
H130 C144 0.939 . S
H131 C146 0.940 . S
H132 C147 0.940 . S
H133 C149 0.939 . S
H134 C150 0.942 . S
H135 C152 0.940 . S
H136 C153 0.939 . S
H137 C155 0.941 . S
H138 C159 0.939 . S
O139 P128 1.490 . S
H140 C156 0.939 . S
H141 C158 0.940 . S
C142 P128 1.812 . S
C142 C143 1.389 . S
C142 C147 1.391 . S
C143 H129 0.941 . S
C143 C142 1.389 . S
C143 C144 1.397 . S
C144 H130 0.939 . S
C144 C143 1.397 . S
C144 C145 1.378 . S
C145 C144 1.378 . S
C145 C146 1.378 . S
C146 H131 0.940 . S
C146 C145 1.378 . S
C146 C147 1.396 . S
C147 H132 0.940 . S
C147 C142 1.391 . S
C147 C146 1.396 . S
C148 P128 1.803 . S
C148 C149 1.378 . S
C148 C153 1.400 . S
C149 H133 0.939 . S
C149 C148 1.378 . S
C149 C150 1.361 . S
C150 H134 0.942 . S
C150 C149 1.361 . S
C150 C151 1.369 . S
C151 C150 1.369 . S
C151 C152 1.404 . S
C152 H135 0.940 . S
C152 C151 1.404 . S
C152 C153 1.389 . S
C153 H136 0.939 . S
C153 C148 1.400 . S
C153 C152 1.389 . S
C154 P128 1.819 . S
C154 C155 1.391 . S
C154 C159 1.391 . S
C155 H137 0.941 . S
C155 C154 1.391 . S
C155 C156 1.396 . S
C156 H140 0.939 . S
C156 C155 1.396 . S
C156 C157 1.397 . S
C157 C156 1.397 . S
C157 C158 1.385 . S
C158 H141 0.940 . S
C158 C157 1.385 . S
C158 C159 1.388 . S
C159 H138 0.939 . S
C159 C154 1.391 . S
C159 C158 1.388 . S
P160 O171 1.490 . S
P160 C174 1.812 . S
P160 C180 1.803 . S
P160 C186 1.819 . S
H161 C175 0.941 . S
H162 C176 0.939 . S
H163 C178 0.940 . S
H164 C179 0.940 . S
H165 C181 0.939 . S
H166 C182 0.942 . S
H167 C184 0.940 . S
H168 C185 0.939 . S
H169 C187 0.941 . S
H170 C191 0.939 . S
O171 P160 1.490 . S
H172 C188 0.939 . S
H173 C190 0.940 . S
C174 P160 1.812 . S
C174 C175 1.389 . S
C174 C179 1.391 . S
C175 H161 0.941 . S
C175 C174 1.389 . S
C175 C176 1.397 . S
C176 H162 0.939 . S
C176 C175 1.397 . S
C176 C177 1.378 . S
C177 C176 1.378 . S
C177 C178 1.378 . S
C178 H163 0.940 . S
C178 C177 1.378 . S
C178 C179 1.396 . S
C179 H164 0.940 . S
C179 C174 1.391 . S
C179 C178 1.396 . S
C180 P160 1.803 . S
C180 C181 1.378 . S
C180 C185 1.400 . S
C181 H165 0.939 . S
C181 C180 1.378 . S
C181 C182 1.361 . S
C182 H166 0.942 . S
C182 C181 1.361 . S
C182 C183 1.369 . S
C183 C182 1.369 . S
C183 C184 1.404 . S
C184 H167 0.940 . S
C184 C183 1.404 . S
C184 C185 1.389 . S
C185 H168 0.939 . S
C185 C180 1.400 . S
C185 C184 1.389 . S
C186 P160 1.819 . S
C186 C187 1.391 . S
C186 C191 1.391 . S
C187 H169 0.941 . S
C187 C186 1.391 . S
C187 C188 1.396 . S
C188 H172 0.939 . S
C188 C187 1.396 . S
C188 C189 1.397 . S
C189 C188 1.397 . S
C189 C190 1.385 . S
C190 H173 0.940 . S
C190 C189 1.385 . S
C190 C191 1.388 . S
C191 H170 0.939 . S
C191 C186 1.391 . S
C191 C190 1.388 . S
P192 O203 1.490 . S
P192 C206 1.812 . S
P192 C212 1.803 . S
P192 C218 1.819 . S
H193 C207 0.941 . S
H194 C208 0.939 . S
H195 C210 0.940 . S
H196 C211 0.940 . S
H197 C213 0.939 . S
H198 C214 0.942 . S
H199 C216 0.940 . S
H200 C217 0.939 . S
H201 C219 0.941 . S
H202 C223 0.939 . S
O203 P192 1.490 . S
H204 C220 0.939 . S
H205 C222 0.940 . S
C206 P192 1.812 . S
C206 C207 1.389 . S
C206 C211 1.391 . S
C207 H193 0.941 . S
C207 C206 1.389 . S
C207 C208 1.397 . S
C208 H194 0.939 . S
C208 C207 1.397 . S
C208 C209 1.378 . S
C209 C208 1.378 . S
C209 C210 1.378 . S
C210 H195 0.940 . S
C210 C209 1.378 . S
C210 C211 1.396 . S
C211 H196 0.940 . S
C211 C206 1.391 . S
C211 C210 1.396 . S
C212 P192 1.803 . S
C212 C213 1.378 . S
C212 C217 1.400 . S
C213 H197 0.939 . S
C213 C212 1.378 . S
C213 C214 1.361 . S
C214 H198 0.942 . S
C214 C213 1.361 . S
C214 C215 1.369 . S
C215 C214 1.369 . S
C215 C216 1.404 . S
C216 H199 0.940 . S
C216 C215 1.404 . S
C216 C217 1.389 . S
C217 H200 0.939 . S
C217 C212 1.400 . S
C217 C216 1.389 . S
C218 P192 1.819 . S
C218 C219 1.391 . S
C218 C223 1.391 . S
C219 H201 0.941 . S
C219 C218 1.391 . S
C219 C220 1.396 . S
C220 H204 0.939 . S
C220 C219 1.396 . S
C220 C221 1.397 . S
C221 C220 1.397 . S
C221 C222 1.385 . S
C222 H205 0.940 . S
C222 C221 1.385 . S
C222 C223 1.388 . S
C223 H202 0.939 . S
C223 C218 1.391 . S
C223 C222 1.388 . S
P224 O235 1.490 . S
P224 C238 1.812 . S
P224 C244 1.803 . S
P224 C250 1.819 . S
H225 C239 0.941 . S
H226 C240 0.939 . S
H227 C242 0.940 . S
H228 C243 0.940 . S
H229 C245 0.939 . S
H230 C246 0.942 . S
H231 C248 0.940 . S
H232 C249 0.939 . S
H233 C251 0.941 . S
H234 C255 0.939 . S
O235 P224 1.490 . S
H236 C252 0.939 . S
H237 C254 0.940 . S
C238 P224 1.812 . S
C238 C239 1.389 . S
C238 C243 1.391 . S
C239 H225 0.941 . S
C239 C238 1.389 . S
C239 C240 1.397 . S
C240 H226 0.939 . S
C240 C239 1.397 . S
C240 C241 1.378 . S
C241 C240 1.378 . S
C241 C242 1.378 . S
C242 H227 0.940 . S
C242 C241 1.378 . S
C242 C243 1.396 . S
C243 H228 0.940 . S
C243 C238 1.391 . S
C243 C242 1.396 . S
C244 P224 1.803 . S
C244 C245 1.378 . S
C244 C249 1.400 . S
C245 H229 0.939 . S
C245 C244 1.378 . S
C245 C246 1.361 . S
C246 H230 0.942 . S
C246 C245 1.361 . S
C246 C247 1.369 . S
C247 C246 1.369 . S
C247 C248 1.404 . S
C248 H231 0.940 . S
C248 C247 1.404 . S
C248 C249 1.389 . S
C249 H232 0.939 . S
C249 C244 1.400 . S
C249 C248 1.389 . S
C250 P224 1.819 . S
C250 C251 1.391 . S
C250 C255 1.391 . S
C251 H233 0.941 . S
C251 C250 1.391 . S
C251 C252 1.396 . S
C252 H236 0.939 . S
C252 C251 1.396 . S
C252 C253 1.397 . S
C253 C252 1.397 . S
C253 C254 1.385 . S
C254 H237 0.940 . S
C254 C253 1.385 . S
C254 C255 1.388 . S
C255 H234 0.939 . S
C255 C250 1.391 . S
C255 C254 1.388 . S
Nd256 C258 2.836 1_445 S
Nd256 O276 2.500 1_445 S
Nd256 O277 2.492 1_545 S
Nd256 O278 2.487 . S
Nd256 O279 2.682 . S
Nd256 O280 2.410 1_545 S
Nd256 O285 2.414 1_455 S
Nd256 O287 2.424 . S
Nd257 C267 2.836 1_556 S
Nd257 O279 2.414 . S
Nd257 O281 2.424 1_545 S
Nd257 O282 2.500 . S
Nd257 O283 2.492 1_556 S
Nd257 O284 2.487 1_455 S
Nd257 O285 2.682 1_455 S
Nd257 O286 2.410 . S
C258 Nd256 2.836 1_665 S
C258 C259 1.498 . S
C258 O276 1.258 . S
C258 O277 1.239 1_655 S
C259 C258 1.498 . S
C259 C260 1.366 . S
C259 C264 1.407 . S
C260 C259 1.366 . S
C260 C261 1.392 . S
C260 H288 0.930 . S
C261 C260 1.392 . S
C261 C262 1.398 . S
C261 H289 0.929 . S
C262 C261 1.398 . S
C262 C263 1.352 . S
C263 C262 1.352 . S
C263 C264 1.384 . S
C263 H290 0.930 . S
C264 C259 1.407 . S
C264 C263 1.384 . S
C264 H291 0.929 1_655 S
C265 O278 1.241 . S
C265 O279 1.273 . S
C266 O280 1.251 . S
C266 O281 1.268 . S
C267 Nd257 2.836 1_554 S
C267 C268 1.498 . S
C267 O282 1.258 1_554 S
C267 O283 1.239 . S
C268 C267 1.498 . S
C268 C269 1.366 . S
C268 C273 1.407 . S
C269 C268 1.366 . S
C269 C270 1.392 . S
C269 H292 0.930 . S
C270 C269 1.392 . S
C270 C271 1.398 . S
C270 H293 0.929 . S
C271 C270 1.398 . S
C271 C272 1.352 . S
C272 C271 1.352 . S
C272 C273 1.384 . S
C272 H294 0.930 . S
C273 C268 1.407 . S
C273 C272 1.384 . S
C273 H295 0.929 . S
C274 O284 1.241 . S
C274 O285 1.273 . S
C275 O286 1.251 . S
C275 O287 1.268 . S
O276 Nd256 2.500 1_665 S
O276 C258 1.258 . S
O277 Nd256 2.492 1_565 S
O277 C258 1.239 1_455 S
O278 Nd256 2.487 . S
O278 C265 1.241 . S
O279 Nd256 2.682 . S
O279 Nd257 2.414 . S
O279 C265 1.273 . S
O280 Nd256 2.410 1_565 S
O280 C266 1.251 . S
O281 Nd257 2.424 1_565 S
O281 C266 1.268 . S
O282 Nd257 2.500 . S
O282 C267 1.258 1_556 S
O283 Nd257 2.492 1_554 S
O283 C267 1.239 . S
O284 Nd257 2.487 1_655 S
O284 C274 1.241 . S
O285 Nd256 2.414 1_655 S
O285 Nd257 2.682 1_655 S
O285 C274 1.273 . S
O286 Nd257 2.410 . S
O286 C275 1.251 . S
O287 Nd256 2.424 . S
O287 C275 1.268 . S
H288 C260 0.930 . S
H289 C261 0.929 . S
H290 C263 0.930 . S
H291 C264 0.929 1_455 S
H292 C269 0.930 . S
H293 C270 0.929 . S
H294 C272 0.930 . S
H295 C273 0.929 . S
Nd296 C298 2.836 1_545 S
Nd296 O316 2.500 1_545 S
Nd296 O317 2.492 . S
Nd296 O318 2.487 . S
Nd296 O319 2.682 . S
Nd296 O320 2.410 . S
Nd296 O325 2.414 1_545 S
Nd296 O327 2.424 . S
Nd297 C307 2.836 1_556 S
Nd297 O319 2.414 . S
Nd297 O321 2.424 . S
Nd297 O322 2.500 . S
Nd297 O323 2.492 1_556 S
Nd297 O324 2.487 1_545 S
Nd297 O325 2.682 1_545 S
Nd297 O326 2.410 . S
C298 Nd296 2.836 1_565 S
C298 C299 1.498 . S
C298 O316 1.258 . S
C298 O317 1.239 1_565 S
C299 C298 1.498 . S
C299 C300 1.366 . S
C299 C304 1.406 1_565 S
C300 C299 1.366 . S
C300 C301 1.392 . S
C300 H328 0.930 . S
C301 C300 1.392 . S
C301 C302 1.398 . S
C301 H329 0.929 . S
C302 C301 1.398 . S
C302 C303 1.352 . S
C303 C302 1.352 . S
C303 C304 1.382 1_565 S
C303 H330 0.925 1_565 S
C304 C299 1.406 1_545 S
C304 C303 1.382 1_545 S
C304 H331 0.933 . S
C305 O318 1.241 . S
C305 O319 1.273 . S
C306 O320 1.251 . S
C306 O321 1.268 . S
C307 Nd297 2.836 1_554 S
C307 C308 1.498 . S
C307 O322 1.258 1_554 S
C307 O323 1.239 . S
C308 C307 1.498 . S
C308 C309 1.366 . S
C308 C313 1.407 . S
C309 C308 1.366 . S
C309 C310 1.392 . S
C309 H332 0.930 1_554 S
C310 C309 1.392 . S
C310 C311 1.398 . S
C310 H333 0.929 . S
C311 C310 1.398 . S
C311 C312 1.352 . S
C312 C311 1.352 . S
C312 C313 1.384 . S
C312 H334 0.930 . S
C313 C308 1.407 . S
C313 C312 1.384 . S
C313 H335 0.929 . S
C314 O324 1.241 . S
C314 O325 1.273 . S
C315 O326 1.251 . S
C315 O327 1.268 . S
O316 Nd296 2.500 1_565 S
O316 C298 1.258 . S
O317 Nd296 2.492 . S
O317 C298 1.239 1_545 S
O318 Nd296 2.487 . S
O318 C305 1.241 . S
O319 Nd296 2.682 . S
O319 Nd297 2.414 . S
O319 C305 1.273 . S
O320 Nd296 2.410 . S
O320 C306 1.251 . S
O321 Nd297 2.424 . S
O321 C306 1.268 . S
O322 Nd297 2.500 . S
O322 C307 1.258 1_556 S
O323 Nd297 2.492 1_554 S
O323 C307 1.239 . S
O324 Nd297 2.487 1_565 S
O324 C314 1.241 . S
O325 Nd296 2.414 1_565 S
O325 Nd297 2.682 1_565 S
O325 C314 1.273 . S
O326 Nd297 2.410 . S
O326 C315 1.251 . S
O327 Nd296 2.424 . S
O327 C315 1.268 . S
H328 C300 0.930 . S
H329 C301 0.929 . S
H330 C303 0.925 1_545 S
H331 C304 0.933 . S
H332 C309 0.930 1_556 S
H333 C310 0.929 . S
H334 C312 0.930 . S
H335 C313 0.929 . S
Nd336 C338 2.836 . S
Nd336 O356 2.500 . S
Nd336 O357 2.492 . S
Nd336 O358 2.487 . S
Nd336 O359 2.682 . S
Nd336 O360 2.410 . S
Nd336 O365 2.414 . S
Nd336 O367 2.424 . S
Nd337 C347 2.836 . S
Nd337 O359 2.414 . S
Nd337 O361 2.424 . S
Nd337 O362 2.500 . S
Nd337 O363 2.492 . S
Nd337 O364 2.487 . S
Nd337 O365 2.682 . S
Nd337 O366 2.410 . S
C338 Nd336 2.836 . S
C338 C339 1.498 . S
C338 O356 1.258 . S
C338 O357 1.239 . S
C339 C338 1.498 . S
C339 C340 1.366 . S
C339 C344 1.407 1_556 S
C340 C339 1.366 . S
C340 C341 1.392 . S
C340 H368 0.930 . S
C341 C340 1.392 . S
C341 C342 1.398 1_556 S
C341 H369 0.929 . S
C342 C341 1.398 1_554 S
C342 C343 1.352 . S
C343 C342 1.352 . S
C343 C344 1.384 . S
C343 H370 0.930 . S
C344 C339 1.407 1_554 S
C344 C343 1.384 . S
C344 H371 0.929 . S
C345 O358 1.241 . S
C345 O359 1.273 . S
C346 O360 1.251 . S
C346 O361 1.268 . S
C347 Nd337 2.836 . S
C347 C348 1.498 . S
C347 O362 1.258 . S
C347 O363 1.239 . S
C348 C347 1.498 . S
C348 C349 1.366 . S
C348 C353 1.407 . S
C349 C348 1.366 . S
C349 C350 1.392 . S
C349 H372 0.930 . S
C350 C349 1.392 . S
C350 C351 1.398 . S
C350 H373 0.929 . S
C351 C350 1.398 . S
C351 C352 1.352 . S
C352 C351 1.352 . S
C352 C353 1.384 . S
C352 H374 0.930 . S
C353 C348 1.407 . S
C353 C352 1.384 . S
C353 H375 0.929 . S
C354 O364 1.241 . S
C354 O365 1.273 . S
C355 O366 1.251 . S
C355 O367 1.268 . S
O356 Nd336 2.500 . S
O356 C338 1.258 . S
O357 Nd336 2.492 . S
O357 C338 1.239 . S
O358 Nd336 2.487 . S
O358 C345 1.241 . S
O359 Nd336 2.682 . S
O359 Nd337 2.414 . S
O359 C345 1.273 . S
O360 Nd336 2.410 . S
O360 C346 1.251 . S
O361 Nd337 2.424 . S
O361 C346 1.268 . S
O362 Nd337 2.500 . S
O362 C347 1.258 . S
O363 Nd337 2.492 . S
O363 C347 1.239 . S
O364 Nd337 2.487 . S
O364 C354 1.241 . S
O365 Nd336 2.414 . S
O365 Nd337 2.682 . S
O365 C354 1.273 . S
O366 Nd337 2.410 . S
O366 C355 1.251 . S
O367 Nd336 2.424 . S
O367 C355 1.268 . S
H368 C340 0.930 . S
H369 C341 0.929 . S
H370 C343 0.930 . S
H371 C344 0.929 . S
H372 C349 0.930 . S
H373 C350 0.929 . S
H374 C352 0.930 . S
H375 C353 0.929 . S
Nd376 C378 2.836 1_455 S
Nd376 O396 2.500 1_455 S
Nd376 O397 2.492 1_455 S
Nd376 O398 2.487 . S
Nd376 O399 2.682 . S
Nd376 O400 2.410 1_455 S
Nd376 O405 2.414 . S
Nd376 O407 2.424 . S
Nd377 C387 2.836 1_556 S
Nd377 O399 2.414 . S
Nd377 O401 2.424 1_455 S
Nd377 O402 2.500 . S
Nd377 O403 2.492 1_556 S
Nd377 O404 2.487 . S
Nd377 O405 2.682 . S
Nd377 O406 2.410 . S
C378 Nd376 2.836 1_655 S
C378 C379 1.498 . S
C378 O396 1.258 . S
C378 O397 1.239 . S
C379 C378 1.498 . S
C379 C380 1.366 . S
C379 C384 1.407 . S
C380 C379 1.366 . S
C380 C381 1.392 . S
C380 H408 0.930 . S
C381 C380 1.392 . S
C381 C382 1.398 . S
C381 H409 0.929 . S
C382 C381 1.398 . S
C382 C383 1.352 . S
C383 C382 1.352 . S
C383 C384 1.384 . S
C383 H410 0.930 . S
C384 C379 1.407 . S
C384 C383 1.384 . S
C384 H411 0.929 . S
C385 O398 1.241 . S
C385 O399 1.273 . S
C386 O400 1.251 . S
C386 O401 1.268 . S
C387 Nd377 2.836 1_554 S
C387 C388 1.498 . S
C387 O402 1.258 1_554 S
C387 O403 1.239 . S
C388 C387 1.498 . S
C388 C389 1.366 . S
C388 C393 1.407 . S
C389 C388 1.366 . S
C389 C390 1.392 . S
C389 H412 0.930 . S
C390 C389 1.392 . S
C390 C391 1.398 . S
C390 H413 0.929 . S
C391 C390 1.398 . S
C391 C392 1.352 . S
C392 C391 1.352 . S
C392 C393 1.384 . S
C392 H414 0.930 . S
C393 C388 1.407 . S
C393 C392 1.384 . S
C393 H415 0.929 . S
C394 O404 1.241 . S
C394 O405 1.273 . S
C395 O406 1.251 . S
C395 O407 1.268 . S
O396 Nd376 2.500 1_655 S
O396 C378 1.258 . S
O397 Nd376 2.492 1_655 S
O397 C378 1.239 . S
O398 Nd376 2.487 . S
O398 C385 1.241 . S
O399 Nd376 2.682 . S
O399 Nd377 2.414 . S
O399 C385 1.273 . S
O400 Nd376 2.410 1_655 S
O400 C386 1.251 . S
O401 Nd377 2.424 1_655 S
O401 C386 1.268 . S
O402 Nd377 2.500 . S
O402 C387 1.258 1_556 S
O403 Nd377 2.492 1_554 S
O403 C387 1.239 . S
O404 Nd377 2.487 . S
O404 C394 1.241 . S
O405 Nd376 2.414 . S
O405 Nd377 2.682 . S
O405 C394 1.273 . S
O406 Nd377 2.410 . S
O406 C395 1.251 . S
O407 Nd376 2.424 . S
O407 C395 1.268 . S
H408 C380 0.930 . S
H409 C381 0.929 . S
H410 C383 0.930 . S
H411 C384 0.929 . S
H412 C389 0.930 . S
H413 C390 0.929 . S
H414 C392 0.930 . S
H415 C393 0.929 . S
H416 C422 0.930 . S
H417 C425 0.930 . S
H418 C426 0.930 . S
H419 C427 0.930 . S
H420 C430 0.930 . S
H421 C431 0.930 . S
C422 H416 0.930 . S
C422 C423 1.355 . S
C422 C424 1.415 . S
C423 C422 1.355 . S
C423 C425 1.419 . S
C424 C422 1.415 . S
C424 C429 1.425 . S
C424 C431 1.409 . S
C425 H417 0.930 . S
C425 C423 1.419 . S
C425 C426 1.362 . S
C426 H418 0.930 . S
C426 C425 1.362 . S
C426 C429 1.409 . S
C427 H419 0.930 . S
C427 C428 1.355 . S
C427 C429 1.415 . S
C428 C427 1.355 . S
C428 C430 1.419 . S
C429 C424 1.425 . S
C429 C426 1.409 . S
C429 C427 1.415 . S
C430 H420 0.930 . S
C430 C428 1.419 . S
C430 C431 1.362 . S
C431 H421 0.930 . S
C431 C424 1.409 . S
C431 C430 1.362 . S
H432 C438 0.930 . S
H433 C441 0.930 . S
H434 C442 0.930 . S
H435 C443 0.930 . S
H436 C446 0.930 . S
H437 C447 0.930 . S
C438 H432 0.930 . S
C438 C439 1.355 . S
C438 C440 1.415 . S
C439 C438 1.355 . S
C439 C441 1.419 . S
C440 C438 1.415 . S
C440 C445 1.425 . S
C440 C447 1.409 . S
C441 H433 0.930 . S
C441 C439 1.419 . S
C441 C442 1.362 . S
C442 H434 0.930 . S
C442 C441 1.362 . S
C442 C445 1.409 . S
C443 H435 0.930 . S
C443 C444 1.355 . S
C443 C445 1.415 . S
C444 C443 1.355 . S
C444 C446 1.419 . S
C445 C440 1.425 . S
C445 C442 1.409 . S
C445 C443 1.415 . S
C446 H436 0.930 . S
C446 C444 1.419 . S
C446 C447 1.362 . S
C447 H437 0.930 . S
C447 C440 1.409 . S
C447 C446 1.362 . S
H448 C454 0.930 . S
H449 C457 0.930 . S
H450 C458 0.930 . S
H451 C459 0.930 . S
H452 C462 0.930 . S
H453 C463 0.930 . S
C454 H448 0.930 . S
C454 C455 1.355 . S
C454 C456 1.415 . S
C455 C454 1.355 . S
C455 C457 1.419 . S
C456 C454 1.415 . S
C456 C461 1.425 . S
C456 C463 1.409 . S
C457 H449 0.930 . S
C457 C455 1.419 . S
C457 C458 1.362 . S
C458 H450 0.930 . S
C458 C457 1.362 . S
C458 C461 1.409 . S
C459 H451 0.930 . S
C459 C460 1.355 . S
C459 C461 1.415 . S
C460 C459 1.355 . S
C460 C462 1.419 . S
C461 C456 1.425 . S
C461 C458 1.409 . S
C461 C459 1.415 . S
C462 H452 0.930 . S
C462 C460 1.419 . S
C462 C463 1.362 . S
C463 H453 0.930 . S
C463 C456 1.409 . S
C463 C462 1.362 . S
H464 C470 0.930 . S
H465 C473 0.930 . S
H466 C474 0.930 . S
H467 C475 0.930 . S
H468 C478 0.930 . S
H469 C479 0.930 . S
C470 H464 0.930 . S
C470 C471 1.355 . S
C470 C472 1.415 . S
C471 C470 1.355 . S
C471 C473 1.419 . S
C472 C470 1.415 . S
C472 C477 1.425 . S
C472 C479 1.409 . S
C473 H465 0.930 . S
C473 C471 1.419 . S
C473 C474 1.362 . S
C474 H466 0.930 . S
C474 C473 1.362 . S
C474 C477 1.409 . S
C475 H467 0.930 . S
C475 C476 1.355 . S
C475 C477 1.415 . S
C476 C475 1.355 . S
C476 C478 1.419 . S
C477 C472 1.425 . S
C477 C474 1.409 . S
C477 C475 1.415 . S
C478 H468 0.930 . S
C478 C476 1.419 . S
C478 C479 1.362 . S
C479 H469 0.930 . S
C479 C472 1.409 . S
C479 C478 1.362 . S
H480 C486 0.930 . S
H481 C489 0.930 . S
H482 C490 0.930 . S
H483 C491 0.930 . S
H484 C494 0.930 . S
H485 C495 0.930 . S
C486 H480 0.930 . S
C486 C487 1.355 . S
C486 C488 1.415 . S
C487 C486 1.355 . S
C487 C489 1.419 1_565 S
C488 C486 1.415 . S
C488 C493 1.425 1_565 S
C488 C495 1.409 . S
C489 H481 0.930 . S
C489 C487 1.419 1_545 S
C489 C490 1.362 . S
C490 H482 0.930 . S
C490 C489 1.362 . S
C490 C493 1.409 . S
C491 H483 0.930 . S
C491 C492 1.355 . S
C491 C493 1.415 . S
C492 C491 1.355 . S
C492 C494 1.419 1_545 S
C493 C488 1.425 1_545 S
C493 C490 1.409 . S
C493 C491 1.415 . S
C494 H484 0.930 . S
C494 C492 1.419 1_565 S
C494 C495 1.362 . S
C495 H485 0.930 . S
C495 C488 1.409 . S
C495 C494 1.362 . S
H496 C502 0.930 . S
H497 C505 0.930 . S
H498 C506 0.930 . S
H499 C507 0.930 . S
H500 C510 0.930 . S
H501 C511 0.930 . S
C502 H496 0.930 . S
C502 C503 1.355 . S
C502 C504 1.415 . S
C503 C502 1.355 . S
C503 C505 1.419 . S
C504 C502 1.415 . S
C504 C509 1.425 . S
C504 C511 1.409 . S
C505 H497 0.930 . S
C505 C503 1.419 . S
C505 C506 1.362 . S
C506 H498 0.930 . S
C506 C505 1.362 . S
C506 C509 1.409 . S
C507 H499 0.930 . S
C507 C508 1.355 . S
C507 C509 1.415 . S
C508 C507 1.355 . S
C508 C510 1.419 1_554 S
C509 C504 1.425 . S
C509 C506 1.409 . S
C509 C507 1.415 . S
C510 H500 0.930 . S
C510 C508 1.419 1_556 S
C510 C511 1.362 1_556 S
C511 H501 0.930 . S
C511 C504 1.409 . S
C511 C510 1.362 1_554 S
H512 C518 0.930 . S
H513 C521 0.930 . S
H514 C522 0.930 . S
H515 C523 0.930 . S
H516 C526 0.930 . S
H517 C527 0.930 . S
C518 H512 0.930 . S
C518 C519 1.355 . S
C518 C520 1.415 . S
C519 C518 1.355 . S
C519 C521 1.419 . S
C520 C518 1.415 . S
C520 C525 1.425 . S
C520 C527 1.409 . S
C521 H513 0.930 . S
C521 C519 1.419 . S
C521 C522 1.362 . S
C522 H514 0.930 . S
C522 C521 1.362 . S
C522 C525 1.409 . S
C523 H515 0.930 . S
C523 C524 1.355 . S
C523 C525 1.415 . S
C524 C523 1.355 . S
C524 C526 1.419 . S
C525 C520 1.425 . S
C525 C522 1.409 . S
C525 C523 1.415 . S
C526 H516 0.930 . S
C526 C524 1.419 . S
C526 C527 1.362 . S
C527 H517 0.930 . S
C527 C520 1.409 . S
C527 C526 1.362 . S
H528 C534 0.930 . S
H529 C537 0.930 . S
H530 C538 0.930 . S
H531 C539 0.930 . S
H532 C542 0.930 1_455 S
H533 C543 0.929 1_554 S
C534 H528 0.930 . S
C534 C535 1.355 1_554 S
C534 C536 1.415 1_554 S
C535 C534 1.355 1_556 S
C535 C537 1.419 . S
C536 C534 1.415 1_556 S
C536 C541 1.425 . S
C536 C543 1.410 . S
C537 H529 0.930 . S
C537 C535 1.419 . S
C537 C538 1.362 . S
C538 H530 0.930 . S
C538 C537 1.362 . S
C538 C541 1.409 . S
C539 H531 0.930 . S
C539 C540 1.355 . S
C539 C541 1.415 . S
C540 C539 1.355 . S
C540 C542 1.419 . S
C541 C536 1.425 . S
C541 C538 1.409 . S
C541 C539 1.415 . S
C542 H532 0.930 1_655 S
C542 C540 1.419 . S
C542 C543 1.363 . S
C543 H533 0.929 1_556 S
C543 C536 1.410 . S
C543 C542 1.363 . S
H544 C550 0.930 . S
H545 C553 0.930 . S
H546 C554 0.930 . S
H547 C555 0.930 . S
H548 C558 0.930 . S
H549 C559 0.930 . S
C550 H544 0.930 . S
C550 C551 1.355 . S
C550 C552 1.415 . S
C551 C550 1.355 . S
C551 C553 1.419 . S
C552 C550 1.415 . S
C552 C557 1.425 . S
C552 C559 1.409 . S
C553 H545 0.930 . S
C553 C551 1.419 . S
C553 C554 1.362 . S
C554 H546 0.930 . S
C554 C553 1.362 . S
C554 C557 1.409 . S
C555 H547 0.930 . S
C555 C556 1.355 . S
C555 C557 1.415 . S
C556 C555 1.355 . S
C556 C558 1.419 . S
C557 C552 1.425 . S
C557 C554 1.409 . S
C557 C555 1.415 . S
C558 H548 0.930 . S
C558 C556 1.419 . S
C558 C559 1.362 . S
C559 H549 0.930 . S
C559 C552 1.409 . S
C559 C558 1.362 . S
H560 C566 0.930 . S
H561 C569 0.930 . S
H562 C570 0.930 1_565 S
H563 C571 0.930 1_565 S
H564 C574 0.930 . S
H565 C575 0.930 . S
C566 H560 0.930 . S
C566 C567 1.355 . S
C566 C568 1.415 . S
C567 C566 1.355 . S
C567 C569 1.419 . S
C568 C566 1.415 . S
C568 C573 1.425 . S
C568 C575 1.409 . S
C569 H561 0.930 . S
C569 C567 1.419 . S
C569 C570 1.362 . S
C570 H562 0.930 1_545 S
C570 C569 1.362 . S
C570 C573 1.409 . S
C571 H563 0.930 1_545 S
C571 C572 1.355 . S
C571 C573 1.415 . S
C572 C571 1.355 . S
C572 C574 1.419 . S
C573 C568 1.425 . S
C573 C570 1.409 . S
C573 C571 1.415 . S
C574 H564 0.930 . S
C574 C572 1.419 . S
C574 C575 1.362 . S
C575 H565 0.930 . S
C575 C568 1.409 . S
C575 C574 1.362 . S
H576 C582 0.930 . S
H577 C585 0.930 . S
H578 C586 0.930 . S
H579 C587 0.930 . S
H580 C590 0.930 . S
H581 C591 0.930 . S
C582 H576 0.930 . S
C582 C583 1.355 . S
C582 C584 1.415 . S
C583 C582 1.355 . S
C583 C585 1.419 . S
C584 C582 1.415 . S
C584 C589 1.425 . S
C584 C591 1.409 . S
C585 H577 0.930 . S
C585 C583 1.419 . S
C585 C586 1.362 . S
C586 H578 0.930 . S
C586 C585 1.362 . S
C586 C589 1.409 . S
C587 H579 0.930 . S
C587 C588 1.355 . S
C587 C589 1.415 . S
C588 C587 1.355 . S
C588 C590 1.419 . S
C589 C584 1.425 . S
C589 C586 1.409 . S
C589 C587 1.415 . S
C590 H580 0.930 . S
C590 C588 1.419 . S
C590 C591 1.362 . S
C591 H581 0.930 . S
C591 C584 1.409 . S
C591 C590 1.362 . S
H592 C598 0.930 . S
H593 C601 0.930 . S
H594 C602 0.930 . S
H595 C603 0.930 . S
H596 C606 0.930 . S
H597 C607 0.930 . S
C598 H592 0.930 . S
C598 C599 1.355 . S
C598 C600 1.415 . S
C599 C598 1.355 . S
C599 C601 1.419 . S
C600 C598 1.415 . S
C600 C605 1.425 . S
C600 C607 1.409 . S
C601 H593 0.930 . S
C601 C599 1.419 . S
C601 C602 1.362 . S
C602 H594 0.930 . S
C602 C601 1.362 . S
C602 C605 1.409 . S
C603 H595 0.930 . S
C603 C604 1.355 . S
C603 C605 1.415 . S
C604 C603 1.355 . S
C604 C606 1.419 . S
C605 C600 1.425 . S
C605 C602 1.409 . S
C605 C603 1.415 . S
C606 H596 0.930 . S
C606 C604 1.419 . S
C606 C607 1.362 . S
C607 H597 0.930 . S
C607 C600 1.409 . S
C607 C606 1.362 . S
H608 C614 0.930 . S
H609 C617 0.930 . S
H610 C618 0.930 . S
H611 C619 0.930 . S
H612 C622 0.930 . S
H613 C623 0.930 . S
C614 H608 0.930 . S
C614 C615 1.355 . S
C614 C616 1.415 . S
C615 C614 1.355 . S
C615 C617 1.419 . S
C616 C614 1.415 . S
C616 C621 1.425 . S
C616 C623 1.409 . S
C617 H609 0.930 . S
C617 C615 1.419 . S
C617 C618 1.362 . S
C618 H610 0.930 . S
C618 C617 1.362 . S
C618 C621 1.409 . S
C619 H611 0.930 . S
C619 C620 1.355 . S
C619 C621 1.415 . S
C620 C619 1.355 . S
C620 C622 1.419 . S
C621 C616 1.425 . S
C621 C618 1.409 . S
C621 C619 1.415 . S
C622 H612 0.930 . S
C622 C620 1.419 . S
C622 C623 1.362 . S
C623 H613 0.930 . S
C623 C616 1.409 . S
C623 C622 1.362 . S
H624 C630 0.930 . S
H625 C633 0.930 . S
H626 C634 0.930 . S
H627 C635 0.930 . S
H628 C638 0.930 . S
H629 C639 0.930 . S
C630 H624 0.930 . S
C630 C631 1.355 . S
C630 C632 1.385 1_565 S
C631 C630 1.355 . S
C631 C633 1.419 1_565 S
C632 C630 1.385 1_545 S
C632 C637 1.457 . S
C632 C639 1.410 1_545 S
C633 H625 0.930 . S
C633 C631 1.419 1_545 S
C633 C634 1.362 . S
C634 H626 0.930 . S
C634 C633 1.362 . S
C634 C637 1.409 . S
C635 H627 0.930 . S
C635 C636 1.355 . S
C635 C637 1.415 . S
C636 C635 1.355 . S
C636 C638 1.419 . S
C637 C632 1.457 . S
C637 C634 1.409 . S
C637 C635 1.415 . S
C638 H628 0.930 . S
C638 C636 1.419 . S
C638 C639 1.362 1_545 S
C639 H629 0.930 . S
C639 C632 1.410 1_565 S
C639 C638 1.362 1_565 S
H640 C646 0.930 . S
H641 C649 0.930 . S
H642 C650 0.930 . S
H643 C651 0.930 . S
H644 C654 0.930 . S
H645 C655 0.930 . S
C646 H640 0.930 . S
C646 C647 1.355 . S
C646 C648 1.415 . S
C647 C646 1.355 . S
C647 C649 1.419 . S
C648 C646 1.415 . S
C648 C653 1.425 . S
C648 C655 1.409 . S
C649 H641 0.930 . S
C649 C647 1.419 . S
C649 C650 1.362 . S
C650 H642 0.930 . S
C650 C649 1.362 . S
C650 C653 1.409 . S
C651 H643 0.930 . S
C651 C652 1.355 . S
C651 C653 1.415 . S
C652 C651 1.355 . S
C652 C654 1.419 . S
C653 C648 1.425 . S
C653 C650 1.409 . S
C653 C651 1.415 . S
C654 H644 0.930 . S
C654 C652 1.419 . S
C654 C655 1.362 . S
C655 H645 0.930 . S
C655 C648 1.409 . S
C655 C654 1.362 . S
H656 C662 0.930 . S
H657 C665 0.930 . S
H658 C666 0.930 . S
H659 C667 0.930 . S
H660 C670 0.930 . S
H661 C671 0.930 . S
C662 H656 0.930 . S
C662 C663 1.355 . S
C662 C664 1.415 . S
C663 C662 1.355 . S
C663 C665 1.419 . S
C664 C662 1.415 . S
C664 C669 1.425 . S
C664 C671 1.409 . S
C665 H657 0.930 . S
C665 C663 1.419 . S
C665 C666 1.362 . S
C666 H658 0.930 . S
C666 C665 1.362 . S
C666 C669 1.409 . S
C667 H659 0.930 . S
C667 C668 1.355 . S
C667 C669 1.415 . S
C668 C667 1.355 . S
C668 C670 1.419 . S
C669 C664 1.425 . S
C669 C666 1.409 . S
C669 C667 1.415 . S
C670 H660 0.930 . S
C670 C668 1.419 . S
C670 C671 1.362 . S
C671 H661 0.930 . S
C671 C664 1.409 . S
C671 C670 1.362 . S
H672 C678 0.930 . S
H673 C681 0.930 . S
H674 C682 0.930 . S
H675 C683 0.930 . S
H676 C686 0.930 . S
H677 C687 0.930 . S
C678 H672 0.930 . S
C678 C679 1.355 . S
C678 C680 1.415 . S
C679 C678 1.355 . S
C679 C681 1.419 . S
C680 C678 1.415 . S
C680 C685 1.425 . S
C680 C687 1.409 . S
C681 H673 0.930 . S
C681 C679 1.419 . S
C681 C682 1.362 . S
C682 H674 0.930 . S
C682 C681 1.362 . S
C682 C685 1.409 . S
C683 H675 0.930 . S
C683 C684 1.355 . S
C683 C685 1.415 . S
C684 C683 1.355 . S
C684 C686 1.419 . S
C685 C680 1.425 . S
C685 C682 1.409 . S
C685 C683 1.415 . S
C686 H676 0.930 . S
C686 C684 1.419 . S
C686 C687 1.362 . S
C687 H677 0.930 . S
C687 C680 1.409 . S
C687 C686 1.362 . S
H688 C694 0.930 . S
H689 C697 0.930 . S
H690 C698 0.930 . S
H691 C699 0.930 . S
H692 C702 0.930 . S
H693 C703 0.930 . S
C694 H688 0.930 . S
C694 C695 1.355 . S
C694 C696 1.415 . S
C695 C694 1.355 . S
C695 C697 1.419 . S
C696 C694 1.415 . S
C696 C701 1.425 . S
C696 C703 1.409 . S
C697 H689 0.930 . S
C697 C695 1.419 . S
C697 C698 1.362 . S
C698 H690 0.930 . S
C698 C697 1.362 . S
C698 C701 1.409 . S
C699 H691 0.930 . S
C699 C700 1.355 . S
C699 C701 1.415 . S
C700 C699 1.355 . S
C700 C702 1.419 . S
C701 C696 1.425 . S
C701 C698 1.409 . S
C701 C699 1.415 . S
C702 H692 0.930 . S
C702 C700 1.419 . S
C702 C703 1.362 . S
C703 H693 0.930 . S
C703 C696 1.409 . S
C703 C702 1.362 . S
H704 C710 0.930 . S
H705 C713 0.930 . S
H706 C714 0.930 . S
H707 C715 0.930 . S
H708 C718 0.930 . S
H709 C719 0.930 . S
C710 H704 0.930 . S
C710 C711 1.355 1_556 S
C710 C712 1.415 . S
C711 C710 1.355 1_554 S
C711 C713 1.419 . S
C712 C710 1.415 . S
C712 C717 1.425 1_556 S
C712 C719 1.409 . S
C713 H705 0.930 . S
C713 C711 1.419 . S
C713 C714 1.362 . S
C714 H706 0.930 . S
C714 C713 1.362 . S
C714 C717 1.409 . S
C715 H707 0.930 . S
C715 C716 1.355 1_554 S
C715 C717 1.415 . S
C716 C715 1.355 1_556 S
C716 C718 1.419 . S
C717 C712 1.425 1_554 S
C717 C714 1.409 . S
C717 C715 1.415 . S
C718 H708 0.930 . S
C718 C716 1.419 . S
C718 C719 1.362 . S
C719 H709 0.930 . S
C719 C712 1.409 . S
C719 C718 1.362 . S
H720 C726 0.930 . S
H721 C729 0.930 . S
H722 C730 0.930 . S
H723 C731 0.930 . S
H724 C734 0.930 . S
H725 C735 0.930 . S
C726 H720 0.930 . S
C726 C727 1.355 . S
C726 C728 1.415 . S
C727 C726 1.355 . S
C727 C729 1.419 . S
C728 C726 1.415 . S
C728 C733 1.425 . S
C728 C735 1.409 . S
C729 H721 0.930 . S
C729 C727 1.419 . S
C729 C730 1.362 . S
C730 H722 0.930 . S
C730 C729 1.362 . S
C730 C733 1.409 . S
C731 H723 0.930 . S
C731 C732 1.355 . S
C731 C733 1.415 . S
C732 C731 1.355 . S
C732 C734 1.419 . S
C733 C728 1.425 . S
C733 C730 1.409 . S
C733 C731 1.415 . S
C734 H724 0.930 . S
C734 C732 1.419 . S
C734 C735 1.362 . S
C735 H725 0.930 . S
C735 C728 1.409 . S
C735 C734 1.362 . S
H736 C742 0.930 . S
H737 C745 0.930 . S
H738 C746 0.930 . S
H739 C747 0.930 . S
H740 C750 0.930 . S
H741 C751 0.930 . S
C742 H736 0.930 . S
C742 C743 1.355 . S
C742 C744 1.415 . S
C743 C742 1.355 . S
C743 C745 1.419 . S
C744 C742 1.415 . S
C744 C749 1.425 . S
C744 C751 1.409 . S
C745 H737 0.930 . S
C745 C743 1.419 . S
C745 C746 1.362 . S
C746 H738 0.930 . S
C746 C745 1.362 . S
C746 C749 1.409 . S
C747 H739 0.930 . S
C747 C748 1.355 . S
C747 C749 1.415 . S
C748 C747 1.355 . S
C748 C750 1.419 . S
C749 C744 1.425 . S
C749 C746 1.409 . S
C749 C747 1.415 . S
C750 H740 0.930 . S
C750 C748 1.419 . S
C750 C751 1.362 . S
C751 H741 0.930 . S
C751 C744 1.409 . S
C751 C750 1.362 . S
H752 C758 0.930 . S
H753 C761 0.930 . S
H754 C762 0.930 . S
H755 C763 0.930 . S
H756 C766 0.930 . S
H757 C767 0.930 . S
C758 H752 0.930 . S
C758 C759 1.355 . S
C758 C760 1.415 . S
C759 C758 1.355 . S
C759 C761 1.419 . S
C760 C758 1.415 . S
C760 C765 1.425 . S
C760 C767 1.409 . S
C761 H753 0.930 . S
C761 C759 1.419 . S
C761 C762 1.362 . S
C762 H754 0.930 . S
C762 C761 1.362 . S
C762 C765 1.409 . S
C763 H755 0.930 . S
C763 C764 1.355 . S
C763 C765 1.415 . S
C764 C763 1.355 . S
C764 C766 1.419 . S
C765 C760 1.425 . S
C765 C762 1.409 . S
C765 C763 1.415 . S
C766 H756 0.930 . S
C766 C764 1.419 . S
C766 C767 1.362 . S
C767 H757 0.930 . S
C767 C760 1.409 . S
C767 C766 1.362 . S
H768 C774 0.930 . S
H769 C777 0.930 . S
H770 C778 0.930 . S
H771 C779 0.930 . S
H772 C782 0.930 . S
H773 C783 0.930 . S
C774 H768 0.930 . S
C774 C775 1.355 . S
C774 C776 1.415 . S
C775 C774 1.355 . S
C775 C777 1.419 . S
C776 C774 1.415 . S
C776 C781 1.425 . S
C776 C783 1.409 . S
C777 H769 0.930 . S
C777 C775 1.419 . S
C777 C778 1.362 . S
C778 H770 0.930 . S
C778 C777 1.362 . S
C778 C781 1.409 . S
C779 H771 0.930 . S
C779 C780 1.355 . S
C779 C781 1.415 . S
C780 C779 1.355 . S
C780 C782 1.419 . S
C781 C776 1.425 . S
C781 C778 1.409 . S
C781 C779 1.415 . S
C782 H772 0.930 . S
C782 C780 1.419 . S
C782 C783 1.362 . S
C783 H773 0.930 . S
C783 C776 1.409 . S
C783 C782 1.362 . S
H784 C790 0.930 . S
H785 C793 0.930 . S
H786 C794 0.930 . S
H787 C795 0.930 . S
H788 C798 0.930 . S
H789 C799 0.930 . S
C790 H784 0.930 . S
C790 C791 1.355 . S
C790 C792 1.415 . S
C791 C790 1.355 . S
C791 C793 1.419 . S
C792 C790 1.415 . S
C792 C797 1.425 . S
C792 C799 1.409 . S
C793 H785 0.930 . S
C793 C791 1.419 . S
C793 C794 1.362 . S
C794 H786 0.930 . S
C794 C793 1.362 . S
C794 C797 1.409 . S
C795 H787 0.930 . S
C795 C796 1.355 . S
C795 C797 1.415 . S
C796 C795 1.355 . S
C796 C798 1.419 . S
C797 C792 1.425 . S
C797 C794 1.409 . S
C797 C795 1.415 . S
C798 H788 0.930 . S
C798 C796 1.419 . S
C798 C799 1.362 . S
C799 H789 0.930 . S
C799 C792 1.409 . S
C799 C798 1.362 . S
C423 C215 1.249 . S
C428 C265 1.222 . S
C444 C305 1.824 . S
C439 C247 1.969 . S
C460 C354 1.456 . S
C455 C151 1.419 . S
C476 C385 1.899 . S
C471 C183 2.039 . S
C492 C274 1.187 . S
C487 C87 1.134 . S
C503 C119 1.805 . S
C508 C314 1.862 1_554 S
C519 C23 1.497 . S
C524 C345 1.436 . S
C535 C55 1.842 1_556 S
C540 C394 1.897 1_655 S
C556 C275 1.387 . S
C551 C189 1.320 . S
C572 C315 1.212 . S
C567 C221 1.188 . S
C588 C351 0.783 . S
C583 C253 0.740 . S
C599 C157 1.167 . S
C604 C395 1.448 . S
C615 C61 0.968 . S
C620 C266 1.342 1_655 S
C636 C306 1.206 . S
C631 C93 0.968 . S
C652 C342 0.786 . S
C647 C125 0.825 . S
C663 C29 1.335 . S
C668 C386 1.448 . S
C679 C177 1.922 . S
C684 C271 1.965 . S
C695 C209 1.629 . S
C700 C311 1.631 . S
C716 C355 2.610 . S
C711 C241 2.378 . S
C732 C391 1.643 . S
C727 C145 1.526 . S
C743 C49 1.825 . S
C748 C262 1.959 . S
C764 C302 1.658 . S
C759 C81 1.633 . S
C780 C346 2.619 . S
C775 C113 2.307 . S
C791 C17 1.620 . S
C796 C382 1.631 . S
