# Generated by pormake.
# Topology eea, (3,6)-cn, num edge types: 1
# Building blocks:
#     Node 0, Type 0, BuildingBlock: ESEHIV_clean_linker_0, # of connection points: 3
#     Node 1, Type 0, BuildingBlock: ESEHIV_clean_linker_0, # of connection points: 3
#     Node 2, Type 0, BuildingBlock: ESEHIV_clean_linker_0, # of connection points: 3
#     Node 3, Type 0, BuildingBlock: ESEHIV_clean_linker_0, # of connection points: 3
#     Node 4, Type 0, BuildingBlock: ESEHIV_clean_linker_0, # of connection points: 3
#     Node 5, Type 0, BuildingBlock: ESEHIV_clean_linker_0, # of connection points: 3
#     Node 6, Type 0, BuildingBlock: ESEHIV_clean_linker_0, # of connection points: 3
#     Node 7, Type 0, BuildingBlock: ESEHIV_clean_linker_0, # of connection points: 3
#     Node 8, Type 0, BuildingBlock: ESEHIV_clean_linker_0, # of connection points: 3
#     Node 9, Type 0, BuildingBlock: ESEHIV_clean_linker_0, # of connection points: 3
#     Node 10, Type 0, BuildingBlock: ESEHIV_clean_linker_0, # of connection points: 3
#     Node 11, Type 0, BuildingBlock: ESEHIV_clean_linker_0, # of connection points: 3
#     Node 12, Type 0, BuildingBlock: ESEHIV_clean_linker_0, # of connection points: 3
#     Node 13, Type 0, BuildingBlock: ESEHIV_clean_linker_0, # of connection points: 3
#     Node 14, Type 0, BuildingBlock: ESEHIV_clean_linker_0, # of connection points: 3
#     Node 15, Type 0, BuildingBlock: ESEHIV_clean_linker_0, # of connection points: 3
#     Node 16, Type 0, BuildingBlock: ESEHIV_clean_linker_0, # of connection points: 3
#     Node 17, Type 0, BuildingBlock: ESEHIV_clean_linker_0, # of connection points: 3
#     Node 18, Type 1, BuildingBlock: KUMJIN_clean_sbu_0, # of connection points: 6
#     Node 19, Type 1, BuildingBlock: KUMJIN_clean_sbu_0, # of connection points: 6
#     Node 20, Type 1, BuildingBlock: KUMJIN_clean_sbu_0, # of connection points: 6
#     Node 21, Type 1, BuildingBlock: KUMJIN_clean_sbu_0, # of connection points: 6
#     Node 22, Type 1, BuildingBlock: KUMJIN_clean_sbu_0, # of connection points: 6
#     Node 23, Type 1, BuildingBlock: KUMJIN_clean_sbu_0, # of connection points: 6
#     Node 24, Type 1, BuildingBlock: KUMJIN_clean_sbu_0, # of connection points: 6
#     Node 25, Type 1, BuildingBlock: KUMJIN_clean_sbu_0, # of connection points: 6
#     Node 26, Type 1, BuildingBlock: KUMJIN_clean_sbu_0, # of connection points: 6
#     Edge 27, Type (0, 1), BuildingBlock: XUDNAN_clean_linker_2, # of connection points: 2
#     Edge 28, Type (0, 1), BuildingBlock: XUDNAN_clean_linker_2, # of connection points: 2
#     Edge 29, Type (0, 1), BuildingBlock: XUDNAN_clean_linker_2, # of connection points: 2
#     Edge 30, Type (0, 1), BuildingBlock: XUDNAN_clean_linker_2, # of connection points: 2
#     Edge 31, Type (0, 1), BuildingBlock: XUDNAN_clean_linker_2, # of connection points: 2
#     Edge 32, Type (0, 1), BuildingBlock: XUDNAN_clean_linker_2, # of connection points: 2
#     Edge 33, Type (0, 1), BuildingBlock: XUDNAN_clean_linker_2, # of connection points: 2
#     Edge 34, Type (0, 1), BuildingBlock: XUDNAN_clean_linker_2, # of connection points: 2
#     Edge 35, Type (0, 1), BuildingBlock: XUDNAN_clean_linker_2, # of connection points: 2
#     Edge 36, Type (0, 1), BuildingBlock: XUDNAN_clean_linker_2, # of connection points: 2
#     Edge 37, Type (0, 1), BuildingBlock: XUDNAN_clean_linker_2, # of connection points: 2
#     Edge 38, Type (0, 1), BuildingBlock: XUDNAN_clean_linker_2, # of connection points: 2
#     Edge 39, Type (0, 1), BuildingBlock: XUDNAN_clean_linker_2, # of connection points: 2
#     Edge 40, Type (0, 1), BuildingBlock: XUDNAN_clean_linker_2, # of connection points: 2
#     Edge 41, Type (0, 1), BuildingBlock: XUDNAN_clean_linker_2, # of connection points: 2
#     Edge 42, Type (0, 1), BuildingBlock: XUDNAN_clean_linker_2, # of connection points: 2
#     Edge 43, Type (0, 1), BuildingBlock: XUDNAN_clean_linker_2, # of connection points: 2
#     Edge 44, Type (0, 1), BuildingBlock: XUDNAN_clean_linker_2, # of connection points: 2
#     Edge 45, Type (0, 1), BuildingBlock: XUDNAN_clean_linker_2, # of connection points: 2
#     Edge 46, Type (0, 1), BuildingBlock: XUDNAN_clean_linker_2, # of connection points: 2
#     Edge 47, Type (0, 1), BuildingBlock: XUDNAN_clean_linker_2, # of connection points: 2
#     Edge 48, Type (0, 1), BuildingBlock: XUDNAN_clean_linker_2, # of connection points: 2
#     Edge 49, Type (0, 1), BuildingBlock: XUDNAN_clean_linker_2, # of connection points: 2
#     Edge 50, Type (0, 1), BuildingBlock: XUDNAN_clean_linker_2, # of connection points: 2
#     Edge 51, Type (0, 1), BuildingBlock: XUDNAN_clean_linker_2, # of connection points: 2
#     Edge 52, Type (0, 1), BuildingBlock: XUDNAN_clean_linker_2, # of connection points: 2
#     Edge 53, Type (0, 1), BuildingBlock: XUDNAN_clean_linker_2, # of connection points: 2
#     Edge 54, Type (0, 1), BuildingBlock: XUDNAN_clean_linker_2, # of connection points: 2
#     Edge 55, Type (0, 1), BuildingBlock: XUDNAN_clean_linker_2, # of connection points: 2
#     Edge 56, Type (0, 1), BuildingBlock: XUDNAN_clean_linker_2, # of connection points: 2
#     Edge 57, Type (0, 1), BuildingBlock: XUDNAN_clean_linker_2, # of connection points: 2
#     Edge 58, Type (0, 1), BuildingBlock: XUDNAN_clean_linker_2, # of connection points: 2
#     Edge 59, Type (0, 1), BuildingBlock: XUDNAN_clean_linker_2, # of connection points: 2
#     Edge 60, Type (0, 1), BuildingBlock: XUDNAN_clean_linker_2, # of connection points: 2
#     Edge 61, Type (0, 1), BuildingBlock: XUDNAN_clean_linker_2, # of connection points: 2
#     Edge 62, Type (0, 1), BuildingBlock: XUDNAN_clean_linker_2, # of connection points: 2
#     Edge 63, Type (0, 1), BuildingBlock: XUDNAN_clean_linker_2, # of connection points: 2
#     Edge 64, Type (0, 1), BuildingBlock: XUDNAN_clean_linker_2, # of connection points: 2
#     Edge 65, Type (0, 1), BuildingBlock: XUDNAN_clean_linker_2, # of connection points: 2
#     Edge 66, Type (0, 1), BuildingBlock: XUDNAN_clean_linker_2, # of connection points: 2
#     Edge 67, Type (0, 1), BuildingBlock: XUDNAN_clean_linker_2, # of connection points: 2
#     Edge 68, Type (0, 1), BuildingBlock: XUDNAN_clean_linker_2, # of connection points: 2
#     Edge 69, Type (0, 1), BuildingBlock: XUDNAN_clean_linker_2, # of connection points: 2
#     Edge 70, Type (0, 1), BuildingBlock: XUDNAN_clean_linker_2, # of connection points: 2
#     Edge 71, Type (0, 1), BuildingBlock: XUDNAN_clean_linker_2, # of connection points: 2
#     Edge 72, Type (0, 1), BuildingBlock: XUDNAN_clean_linker_2, # of connection points: 2
#     Edge 73, Type (0, 1), BuildingBlock: XUDNAN_clean_linker_2, # of connection points: 2
#     Edge 74, Type (0, 1), BuildingBlock: XUDNAN_clean_linker_2, # of connection points: 2
#     Edge 75, Type (0, 1), BuildingBlock: XUDNAN_clean_linker_2, # of connection points: 2
#     Edge 76, Type (0, 1), BuildingBlock: XUDNAN_clean_linker_2, # of connection points: 2
#     Edge 77, Type (0, 1), BuildingBlock: XUDNAN_clean_linker_2, # of connection points: 2
#     Edge 78, Type (0, 1), BuildingBlock: XUDNAN_clean_linker_2, # of connection points: 2
#     Edge 79, Type (0, 1), BuildingBlock: XUDNAN_clean_linker_2, # of connection points: 2
#     Edge 80, Type (0, 1), BuildingBlock: XUDNAN_clean_linker_2, # of connection points: 2
# Relax obj value: 0.008
# Max RMSD: 0.089
# Mean RMSD: 0.073
data_MOF--net-eea--node1-KUMJIN_clean_sbu_0--node2-ESEHIV_clean_linker_0--edge1-XUDNAN_clean_linker_2
_symmetry_space_group_name_H-M    P1
_symmetry_Int_Tables_number       1
_symmetry_cell_setting            triclinic
loop_
_symmetry_equiv_pos_as_xyz
'x, y, z'
_cell_length_a     47.601507
_cell_length_b     48.769534
_cell_length_c     71.043679
_cell_angle_alpha  90.162174
_cell_angle_beta   90.09277
_cell_angle_gamma 119.89673
loop_
_atom_site_label
_atom_site_type_symbol
_atom_site_fract_x
_atom_site_fract_y
_atom_site_fract_z
_atom_type_partial_charge
H0 H 0.26686 0.17968 0.43998 0.0
H1 H 0.26718 0.09331 0.45114 0.0
H2 H 0.21752 0.10048 0.40243 0.0
C3 C 0.2595 0.15549 0.43619 0.0
C4 C 0.242 0.14253 0.41947 0.0
C5 C 0.26804 0.13762 0.44792 0.0
C6 C 0.25922 0.10655 0.44262 0.0
C7 C 0.24145 0.09305 0.42599 0.0
C8 C 0.23239 0.11107 0.41481 0.0
H9 H 0.84673 0.08541 0.44402 0.0
H10 H 0.94185 0.16864 0.44516 0.0
H11 H 0.90797 0.11208 0.39519 0.0
C12 C 0.86932 0.10143 0.43713 0.0
C13 C 0.87391 0.09613 0.41818 0.0
C14 C 0.89394 0.12736 0.44716 0.0
C15 C 0.92295 0.14817 0.43786 0.0
C16 C 0.92801 0.14244 0.41921 0.0
C17 C 0.90365 0.11641 0.40959 0.0
H18 H 0.84195 0.76477 0.44351 0.0
H19 H 0.93399 0.76801 0.43996 0.0
H20 H 0.89405 0.78833 0.39121 0.0
C21 C 0.86323 0.76912 0.4356 0.0
C22 C 0.86535 0.77741 0.4165 0.0
C23 C 0.88814 0.76623 0.44444 0.0
C24 C 0.91518 0.77141 0.43369 0.0
C25 C 0.91755 0.77965 0.4146 0.0
C26 C 0.89278 0.78301 0.4061 0.0
H27 H 0.07202 0.22441 0.58926 0.0
H28 H 0.1684 0.23702 0.587 0.0
H29 H 0.11141 0.20127 0.63719 0.0
C30 C 0.09175 0.22272 0.5957 0.0
C31 C 0.08827 0.21159 0.61428 0.0
C32 C 0.12035 0.23146 0.58543 0.0
C33 C 0.14601 0.23004 0.59447 0.0
C34 C 0.14294 0.21915 0.61309 0.0
C35 C 0.11378 0.20939 0.62278 0.0
H36 H 0.75001 0.91378 0.5838 0.0
H37 H 0.73293 0.81869 0.59083 0.0
H38 H 0.7832 0.88862 0.63356 0.0
C39 C 0.75243 0.89631 0.59194 0.0
C40 C 0.76865 0.90494 0.60935 0.0
C41 C 0.73937 0.86508 0.5851 0.0
C42 C 0.74261 0.84269 0.59597 0.0
C43 C 0.75792 0.85095 0.61358 0.0
C44 C 0.77097 0.88207 0.62004 0.0
H45 H 0.07181 0.8215 0.58722 0.0
H46 H 0.16237 0.9067 0.57802 0.0
H47 H 0.10443 0.89872 0.6264 0.0
C48 C 0.09005 0.84501 0.5917 0.0
C49 C 0.08537 0.85761 0.60844 0.0
C50 C 0.11755 0.86269 0.58047 0.0
C51 C 0.1405 0.89351 0.5862 0.0
C52 C 0.13598 0.90705 0.60266 0.0
C53 C 0.10827 0.88876 0.61369 0.0
H54 H 0.91632 0.49543 0.77957 0.0
H55 H 0.93671 0.41894 0.7745 0.0
H56 H 0.89854 0.44471 0.7273 0.0
C57 C 0.91744 0.47748 0.77109 0.0
C58 C 0.90615 0.47232 0.75243 0.0
C59 C 0.92818 0.458 0.77918 0.0
C60 C 0.92837 0.43393 0.76831 0.0
C61 C 0.91807 0.42925 0.74949 0.0
C62 C 0.90724 0.44868 0.74171 0.0
H63 H 0.51805 0.41891 0.7818 0.0
H64 H 0.60578 0.50661 0.77228 0.0
H65 H 0.57139 0.43286 0.73047 0.0
C66 C 0.53841 0.43364 0.77284 0.0
C67 C 0.54168 0.42187 0.75535 0.0
C68 C 0.56159 0.46394 0.77917 0.0
C69 C 0.58779 0.48321 0.76747 0.0
C70 C 0.59136 0.4723 0.74981 0.0
C71 C 0.56829 0.44155 0.7439 0.0
H72 H 0.50754 0.10165 0.77566 0.0
H73 H 0.59926 0.104 0.77645 0.0
H74 H 0.56444 0.12317 0.72514 0.0
C75 C 0.52953 0.10583 0.76865 0.0
C76 C 0.53353 0.11355 0.74938 0.0
C77 C 0.55348 0.10302 0.77876 0.0
C78 C 0.58124 0.10745 0.76914 0.0
C79 C 0.58556 0.11503 0.74992 0.0
C80 C 0.56181 0.11847 0.74013 0.0
H81 H 0.74383 0.56494 0.9233 0.0
H82 H 0.84289 0.58461 0.92337 0.0
H83 H 0.78279 0.54285 0.97174 0.0
C84 C 0.76417 0.56498 0.93016 0.0
C85 C 0.7601 0.55339 0.94865 0.0
C86 C 0.79374 0.57593 0.92053 0.0
C87 C 0.81938 0.57502 0.92997 0.0
C88 C 0.81538 0.56251 0.94823 0.0
C89 C 0.78557 0.55143 0.95742 0.0
H90 H 0.43134 0.25762 0.91024 0.0
H91 H 0.41691 0.16413 0.91795 0.0
H92 H 0.45558 0.23247 0.96311 0.0
C93 C 0.43293 0.2404 0.91911 0.0
C94 C 0.44424 0.24853 0.93764 0.0
C95 C 0.42372 0.21032 0.91179 0.0
C96 C 0.42433 0.18747 0.92353 0.0
C97 C 0.43524 0.19507 0.94229 0.0
C98 C 0.44546 0.22579 0.94907 0.0
H99 H 0.74403 0.16074 0.92138 0.0
H100 H 0.83112 0.2502 0.91447 0.0
H101 H 0.77072 0.2349 0.96259 0.0
C102 C 0.76065 0.18439 0.92644 0.0
C103 C 0.75387 0.19522 0.94336 0.0
C104 C 0.78865 0.20405 0.91595 0.0
C105 C 0.80971 0.23488 0.92255 0.0
C106 C 0.80347 0.24647 0.93924 0.0
C107 C 0.77566 0.22627 0.94967 0.0
H108 H 0.58218 0.83747 0.11387 0.0
H109 H 0.58422 0.75003 0.11658 0.0
H110 H 0.54164 0.76977 0.06896 0.0
C111 C 0.57715 0.81521 0.10755 0.0
C112 C 0.56002 0.80557 0.09049 0.0
C113 C 0.58666 0.79565 0.1169 0.0
C114 C 0.57792 0.76568 0.10924 0.0
C115 C 0.56069 0.7558 0.09219 0.0
C116 C 0.55337 0.77659 0.08262 0.0
H117 H 0.19399 0.7485 0.11607 0.0
H118 H 0.27 0.8448 0.1102 0.0
H119 H 0.24691 0.77926 0.06406 0.0
C120 C 0.21325 0.76674 0.10773 0.0
C121 C 0.21846 0.7597 0.0893 0.0
C122 C 0.23206 0.79699 0.1156 0.0
C123 C 0.25549 0.82122 0.10437 0.0
C124 C 0.26096 0.815 0.08573 0.0
C125 C 0.24259 0.78411 0.07833 0.0
H126 H 0.17417 0.4308 0.10823 0.0
H127 H 0.2697 0.4414 0.10628 0.0
H128 H 0.23099 0.46416 0.05787 0.0
C129 C 0.19645 0.4372 0.1008 0.0
C130 C 0.19967 0.4476 0.08206 0.0
C131 C 0.22184 0.43548 0.10995 0.0
C132 C 0.25024 0.44342 0.09972 0.0
C133 C 0.25393 0.45412 0.08104 0.0
C134 C 0.22867 0.45659 0.0724 0.0
H135 H 0.41841 0.9173 0.25722 0.0
H136 H 0.50202 0.9051 0.25386 0.0
H137 H 0.44587 0.8819 0.30481 0.0
C138 C 0.4347 0.91041 0.26354 0.0
C139 C 0.42932 0.89948 0.28214 0.0
C140 C 0.46056 0.91212 0.25302 0.0
C141 C 0.48209 0.90408 0.26179 0.0
C142 C 0.47686 0.89296 0.28046 0.0
C143 C 0.45012 0.89037 0.29042 0.0
H144 H 0.08893 0.58322 0.24531 0.0
H145 H 0.09968 0.50169 0.25294 0.0
H146 H 0.12944 0.57185 0.29676 0.0
C147 C 0.0962 0.56964 0.25402 0.0
C148 C 0.10997 0.5813 0.27183 0.0
C149 C 0.0925 0.54103 0.24707 0.0
C150 C 0.10214 0.52356 0.25835 0.0
C151 C 0.11542 0.53437 0.27636 0.0
C152 C 0.11899 0.56318 0.28299 0.0
H153 H 0.40904 0.49978 0.25028 0.0
H154 H 0.49521 0.5918 0.2522 0.0
H155 H 0.43474 0.55536 0.30096 0.0
C156 C 0.42589 0.52077 0.25809 0.0
C157 C 0.4187 0.52499 0.27666 0.0
C158 C 0.45364 0.54486 0.24917 0.0
C159 C 0.47431 0.57284 0.25914 0.0
C160 C 0.46732 0.57702 0.27772 0.0
C161 C 0.44009 0.55254 0.28648 0.0
Eu162 Eu 0.49067 0.98549 0.99201 0.0
C163 C 0.56515 0.0969 0.04958 0.0
C164 C 0.62075 0.10985 0.04499 0.0
C165 C 0.60885 0.15073 0.05488 0.0
C166 C 0.58726 0.08778 0.04463 0.0
C167 C 0.57564 0.12828 0.05524 0.0
C168 C 0.63138 0.14153 0.04973 0.0
C169 C 0.52007 0.11216 0.0628 0.0
N170 N 0.53339 0.07456 0.0499 0.0
C171 C 0.51096 0.08134 0.05713 0.0
C172 C 0.55252 0.13587 0.06161 0.0
Eu173 Eu 0.51892 0.02335 0.03886 0.0
N174 N 0.57608 0.05695 0.0403 0.0
C175 C 0.59731 0.04613 0.0376 0.0
C176 C 0.64252 0.09923 0.04104 0.0
C177 C 0.63074 0.06713 0.0376 0.0
H178 H 0.48583 0.06307 0.05802 0.0
H179 H 0.64738 0.05854 0.03489 0.0
H180 H 0.65698 0.1589 0.0499 0.0
H181 H 0.50207 0.1176 0.06807 0.0
H182 H 0.58872 0.02147 0.03483 0.0
H183 H 0.36152 0.94672 0.989 0.0
H184 H 0.66843 0.11544 0.04107 0.0
H185 H 0.52867 0.9464 0.9787 0.0
H186 H 0.41993 0.9854 0.99085 0.0
H187 H 0.51503 0.89153 0.97121 0.0
H188 H 0.6174 0.17504 0.05899 0.0
H189 H 0.34292 0.88971 0.98532 0.0
H190 H 0.3571 0.84697 0.98032 0.0
H191 H 0.55958 0.15971 0.06608 0.0
H192 H 0.39885 0.83198 0.97521 0.0
N193 N 0.43433 0.95063 0.98873 0.0
C194 C 0.4122 0.96064 0.98912 0.0
C195 C 0.36862 0.90661 0.98608 0.0
C196 C 0.39156 0.89678 0.98441 0.0
C197 C 0.37902 0.93877 0.9881 0.0
C198 C 0.4247 0.91972 0.98563 0.0
H199 H 0.45778 0.84852 0.97144 0.0
N200 N 0.47969 0.93428 0.98323 0.0
C201 C 0.49598 0.89675 0.97447 0.0
C202 C 0.4481 0.91129 0.98268 0.0
C203 C 0.50362 0.92777 0.97862 0.0
C204 C 0.46364 0.87253 0.97466 0.0
C205 C 0.43918 0.87969 0.97856 0.0
O206 O 0.51591 0.99592 0.96505 0.0
O207 O 0.53006 0.02494 1.00833 0.0
O208 O 0.50875 0.05663 0.02171 0.0
O209 O 0.47727 0.02369 0.9968 0.0
O210 O 0.54453 0.0027 0.98927 0.0
O211 O 0.47482 0.00313 0.9684 0.0
O212 O 0.494 0.01098 0.066 0.0
O213 O 0.47816 0.98537 0.02228 0.0
O214 O 0.49226 0.95023 0.01177 0.0
O215 O 0.53182 0.98491 0.03254 0.0
O216 O 0.46605 0.00869 0.0422 0.0
O217 O 0.53406 0.00292 0.06131 0.0
C218 C 0.55465 0.02621 1.00083 0.0
C219 C 0.48624 0.99261 0.93767 0.0
C220 C 0.49049 0.00247 0.90368 0.0
C221 C 0.49963 0.0134 0.92235 0.0
C222 C 0.46755 0.97028 0.9008 0.0
C223 C 0.46339 0.96079 0.9344 0.0
C224 C 0.45408 0.94976 0.91603 0.0
C225 C 0.48947 0.05016 1.00685 0.0
C226 C 0.49681 0.00436 0.95693 0.0
C227 C 0.40622 0.85647 0.97815 0.0
C228 C 0.38245 0.865 0.98107 0.0
C229 C 0.45465 0.98657 0.02967 0.0
C230 C 0.5253 0.01398 0.09241 0.0
C231 C 0.51125 0.99437 0.10813 0.0
C232 C 0.52233 0.00579 0.12651 0.0
C233 C 0.54776 0.03719 0.12872 0.0
C234 C 0.55064 0.04506 0.09501 0.0
C235 C 0.56179 0.05654 0.11309 0.0
C236 C 0.51372 0.95631 0.02525 0.0
C237 C 0.51304 0.00193 0.07341 0.0
H238 H 0.517 0.03807 0.92506 0.0
H239 H 0.46039 0.96066 0.88673 0.0
H240 H 0.45291 0.94451 0.94603 0.0
H241 H 0.43657 0.9251 0.91357 0.0
H242 H 0.4919 0.97024 0.10597 0.0
H243 H 0.55649 0.04714 0.14258 0.0
H244 H 0.56171 0.06044 0.08307 0.0
H245 H 0.58125 0.08064 0.11502 0.0
Eu246 Eu 0.03351 0.51682 0.99215 0.0
C247 C 0.90757 0.46499 0.04008 0.0
C248 C 0.89692 0.50858 0.04089 0.0
C249 C 0.85227 0.45455 0.04324 0.0
C250 C 0.91873 0.49707 0.03924 0.0
C251 C 0.87429 0.44335 0.04245 0.0
C252 C 0.86358 0.48713 0.04256 0.0
C253 C 0.88747 0.40165 0.04515 0.0
N254 N 0.92956 0.45508 0.03977 0.0
C255 C 0.92025 0.4241 0.04301 0.0
C256 C 0.86432 0.41125 0.04462 0.0
Eu257 Eu 0.98431 0.4939 0.03485 0.0
N258 N 0.95112 0.5171 0.03807 0.0
C259 C 0.96352 0.54896 0.04001 0.0
C260 C 0.90938 0.54131 0.04147 0.0
C261 C 0.94287 0.56158 0.04134 0.0
H262 H 0.93807 0.41656 0.04336 0.0
H263 H 0.95282 0.58691 0.04223 0.0
H264 H 0.84643 0.49552 0.04369 0.0
H265 H 0.88012 0.37699 0.04721 0.0
H266 H 0.98933 0.56493 0.0399 0.0
H267 H 0.06966 0.42701 0.98595 0.0
H268 H 0.89343 0.55112 0.04257 0.0
H269 H 0.07775 0.59465 0.98367 0.0
H270 H 0.03139 0.44709 0.98742 0.0
H271 H 0.13528 0.63556 0.98027 0.0
H272 H 0.82656 0.4383 0.0449 0.0
H273 H 0.12874 0.46445 0.98622 0.0
H274 H 0.17439 0.52079 0.98544 0.0
H275 H 0.83895 0.39386 0.04641 0.0
H276 H 0.19228 0.57759 0.98391 0.0
N277 N 0.06831 0.49542 0.98926 0.0
C278 C 0.05707 0.46373 0.98752 0.0
C279 C 0.11202 0.47341 0.9869 0.0
C280 C 0.12332 0.50596 0.98729 0.0
C281 C 0.07871 0.45221 0.98668 0.0
C282 C 0.10054 0.51635 0.98837 0.0
H283 H 0.17786 0.62061 0.98173 0.0
N284 N 0.08779 0.55711 0.98745 0.0
C285 C 0.1287 0.61111 0.98238 0.0
C286 C 0.1106 0.54822 0.9874 0.0
C287 C 0.09615 0.58788 0.98425 0.0
C288 C 0.15266 0.60258 0.98325 0.0
C289 C 0.14372 0.57073 0.98544 0.0
O290 O 0.02661 0.53756 0.96669 0.0
O291 O 0.98996 0.51372 1.00608 0.0
O292 O 0.95249 0.45945 0.01214 0.0
O293 O 0.99216 0.46544 0.99059 0.0
O294 O 0.02058 0.55557 0.99256 0.0
O295 O 0.02201 0.49106 0.96548 0.0
O296 O 0.98801 0.47169 0.06062 0.0
O297 O 0.02744 0.49651 0.02087 0.0
O298 O 0.0658 0.55046 0.01475 0.0
O299 O 0.02674 0.54498 0.03662 0.0
O300 O 0.99686 0.4549 0.03458 0.0
O301 O 0.99954 0.52067 0.06109 0.0
C302 C 0.99368 0.54036 1.00157 0.0
C303 C 0.03699 0.52121 0.93766 0.0
C304 C 0.03115 0.516 0.90362 0.0
C305 C 0.01749 0.50858 0.92167 0.0
C306 C 0.06473 0.5365 0.90182 0.0
C307 C 0.07047 0.54133 0.93575 0.0
C308 C 0.08423 0.54898 0.91783 0.0
C309 C 0.96207 0.45026 0.9971 0.0
C310 C 0.02143 0.51368 0.95608 0.0
C311 C 0.16668 0.56064 0.98522 0.0
C312 C 0.15649 0.52831 0.98608 0.0
C313 C 0.02369 0.46988 0.02547 0.0
C314 C 0.98095 0.4919 0.08916 0.0
C315 C 0.99961 0.49685 0.10537 0.0
C316 C 0.98552 0.49196 0.12328 0.0
C317 C 0.95236 0.48235 0.12466 0.0
C318 C 0.94801 0.48239 0.09069 0.0
C319 C 0.93382 0.47769 0.10843 0.0
C320 C 0.05668 0.55987 0.02983 0.0
C321 C 0.99659 0.49683 0.07087 0.0
H322 H 0.99155 0.4933 0.92331 0.0
H323 H 0.07596 0.54245 0.88807 0.0
H324 H 0.08582 0.55121 0.94801 0.0
H325 H 0.11007 0.56458 0.91634 0.0
H326 H 0.02523 0.50481 0.10396 0.0
H327 H 0.94063 0.47799 0.13824 0.0
H328 H 0.93339 0.47862 0.07824 0.0
H329 H 0.90834 0.47024 0.10962 0.0
Eu330 Eu 0.51669 0.4938 0.03685 0.0
C331 C 0.45841 0.55108 0.98103 0.0
C332 C 0.40084 0.5134 0.98099 0.0
C333 C 0.41986 0.56903 0.97516 0.0
C334 C 0.43321 0.52039 0.98308 0.0
C335 C 0.45208 0.57569 0.97677 0.0
C336 C 0.39429 0.53794 0.97729 0.0
C337 C 0.50991 0.61131 0.97502 0.0
N338 N 0.48922 0.55673 0.98272 0.0
C339 C 0.51495 0.58609 0.9792 0.0
C340 C 0.47833 0.60616 0.97397 0.0
Eu341 Eu 0.4958 0.51333 0.99085 0.0
N342 N 0.44036 0.49725 0.98673 0.0
C343 C 0.41636 0.46632 0.98738 0.0
C344 C 0.37604 0.4819 0.9825 0.0
C345 C 0.38388 0.45823 0.98552 0.0
H346 H 0.5394 0.59018 0.98013 0.0
H347 H 0.36492 0.43375 0.98649 0.0
H348 H 0.36957 0.53307 0.97578 0.0
H349 H 0.53036 0.63468 0.97263 0.0
H350 H 0.42199 0.44777 0.98979 0.0
H351 H 0.64729 0.5746 0.04111 0.0
H352 H 0.35085 0.47556 0.98108 0.0
H353 H 0.47385 0.41695 0.04776 0.0
H354 H 0.58995 0.55986 0.03781 0.0
H355 H 0.48358 0.37289 0.0553 0.0
H356 H 0.41448 0.58766 0.97202 0.0
H357 H 0.66205 0.53328 0.04657 0.0
H358 H 0.64403 0.47593 0.05194 0.0
H359 H 0.47448 0.62573 0.9707 0.0
H360 H 0.59959 0.42112 0.05575 0.0
N361 N 0.57225 0.51051 0.04091 0.0
C362 C 0.59594 0.54155 0.04025 0.0
C363 C 0.63677 0.52664 0.04515 0.0
C364 C 0.61226 0.49502 0.04668 0.0
C365 C 0.62854 0.55004 0.0421 0.0
C366 C 0.57977 0.48763 0.04457 0.0
H367 H 0.53971 0.3825 0.05713 0.0
N368 N 0.52389 0.45073 0.04488 0.0
C369 C 0.50383 0.39634 0.05282 0.0
C370 C 0.55483 0.45678 0.04655 0.0
C371 C 0.49841 0.42131 0.0486 0.0
C372 C 0.53555 0.40186 0.0538 0.0
C373 C 0.56156 0.43245 0.05091 0.0
O374 O 0.48831 0.47856 0.06263 0.0
O375 O 0.48011 0.49949 0.02047 0.0
O376 O 0.50091 0.55058 0.01137 0.0
O377 O 0.53382 0.54699 0.03443 0.0
O378 O 0.46219 0.46073 0.03774 0.0
O379 O 0.53325 0.5235 0.06205 0.0
O380 O 0.52281 0.52804 0.96451 0.0
O381 O 0.53229 0.50769 1.00727 0.0
O382 O 0.51084 0.45572 0.01632 0.0
O383 O 0.47766 0.46062 0.99401 0.0
O384 O 0.55043 0.54602 0.98977 0.0
O385 O 0.4792 0.48214 0.96637 0.0
C386 C 0.45416 0.47658 0.02663 0.0
C387 C 0.5167 0.49698 0.09112 0.0
C388 C 0.51195 0.50022 0.12509 0.0
C389 C 0.50553 0.50631 0.10672 0.0
C390 C 0.52952 0.48428 0.12754 0.0
C391 C 0.53425 0.48124 0.09378 0.0
C392 C 0.54053 0.47486 0.11195 0.0
C393 C 0.51986 0.56173 0.02634 0.0
C394 C 0.509 0.50324 0.07225 0.0
C395 C 0.5939 0.43953 0.05255 0.0
C396 C 0.6192 0.47074 0.05041 0.0
C397 C 0.55832 0.53031 1.00107 0.0
C398 C 0.49251 0.50694 0.93677 0.0
C399 C 0.50745 0.50267 0.92093 0.0
C400 C 0.49862 0.50685 0.90272 0.0
C401 C 0.47453 0.51536 0.90067 0.0
C402 C 0.46859 0.51542 0.93448 0.0
C403 C 0.45966 0.51958 0.91647 0.0
C404 C 0.49156 0.44546 1.00145 0.0
C405 C 0.50226 0.50244 0.95552 0.0
H406 H 0.49152 0.51803 0.1045 0.0
H407 H 0.53526 0.4796 0.14149 0.0
H408 H 0.543 0.47387 0.08188 0.0
H409 H 0.55412 0.46272 0.11397 0.0
H410 H 0.52566 0.49573 0.92283 0.0
H411 H 0.46749 0.5192 0.88686 0.0
H412 H 0.45684 0.51875 0.94656 0.0
H413 H 0.44123 0.52621 0.91475 0.0
Eu414 Eu 0.1597 0.31692 0.32352 0.0
C415 C 0.22901 0.42388 0.38378 0.0
C416 C 0.28534 0.43811 0.38081 0.0
C417 C 0.27145 0.47775 0.39046 0.0
C418 C 0.25209 0.41554 0.37949 0.0
C419 C 0.23839 0.45489 0.3897 0.0
C420 C 0.29489 0.46939 0.38598 0.0
C421 C 0.18183 0.4378 0.39492 0.0
N422 N 0.19733 0.40127 0.38289 0.0
C423 C 0.17376 0.40736 0.38899 0.0
C424 C 0.21428 0.46178 0.39506 0.0
Eu425 Eu 0.18544 0.35092 0.37171 0.0
N426 N 0.24205 0.38511 0.37461 0.0
C427 C 0.26399 0.37514 0.37208 0.0
C428 C 0.30799 0.42841 0.37722 0.0
C429 C 0.29724 0.3967 0.37306 0.0
H430 H 0.14864 0.38887 0.38875 0.0
H431 H 0.31454 0.38885 0.37054 0.0
H432 H 0.32032 0.48712 0.38692 0.0
H433 H 0.16306 0.44275 0.39932 0.0
H434 H 0.25606 0.35077 0.36875 0.0
H435 H 0.03097 0.28093 0.32635 0.0
H436 H 0.33376 0.44506 0.37799 0.0
H437 H 0.19391 0.2792 0.3032 0.0
H438 H 0.08959 0.31825 0.32736 0.0
H439 H 0.17829 0.22556 0.29151 0.0
H440 H 0.27917 0.50179 0.39481 0.0
H441 H 0.01051 0.22448 0.31897 0.0
H442 H 0.02265 0.18185 0.30922 0.0
H443 H 0.22049 0.48534 0.39968 0.0
H444 H 0.06279 0.16669 0.29969 0.0
N445 N 0.10269 0.28329 0.32127 0.0
C446 C 0.08122 0.29378 0.32408 0.0
C447 C 0.03639 0.24079 0.31943 0.0
C448 C 0.05847 0.2306 0.31534 0.0
C449 C 0.04783 0.27264 0.32354 0.0
C450 C 0.09189 0.25276 0.31629 0.0
H451 H 0.1209 0.18297 0.29272 0.0
N452 N 0.14607 0.26661 0.31136 0.0
C453 C 0.16006 0.2304 0.29711 0.0
C454 C 0.11435 0.24413 0.31117 0.0
C455 C 0.16881 0.2607 0.30368 0.0
C456 C 0.12767 0.2064 0.29788 0.0
C457 C 0.10422 0.21326 0.30464 0.0
O458 O 0.18673 0.3317 0.29709 0.0
O459 O 0.19829 0.354 0.34137 0.0
O460 O 0.18054 0.38679 0.35439 0.0
O461 O 0.14661 0.35525 0.33006 0.0
O462 O 0.21325 0.33357 0.3213 0.0
O463 O 0.14464 0.33686 0.30071 0.0
O464 O 0.15783 0.33632 0.39794 0.0
O465 O 0.14732 0.31324 0.35394 0.0
O466 O 0.16894 0.28221 0.33967 0.0
O467 O 0.19866 0.31287 0.36571 0.0
O468 O 0.13185 0.33407 0.37349 0.0
O469 O 0.20112 0.33284 0.39522 0.0
C470 C 0.22305 0.3554 0.33401 0.0
C471 C 0.15682 0.32794 0.26981 0.0
C472 C 0.16161 0.33713 0.23574 0.0
C473 C 0.17084 0.34837 0.25437 0.0
C474 C 0.13827 0.30502 0.23302 0.0
C475 C 0.13339 0.29627 0.26664 0.0
C476 C 0.12425 0.28491 0.24834 0.0
C477 C 0.16127 0.38205 0.33985 0.0
C478 C 0.16715 0.33962 0.28916 0.0
C479 C 0.07106 0.19065 0.30446 0.0
C480 C 0.04821 0.1993 0.30985 0.0
C481 C 0.12246 0.31171 0.36115 0.0
C482 C 0.18682 0.3409 0.42582 0.0
C483 C 0.17296 0.32005 0.44112 0.0
C484 C 0.18099 0.33119 0.45987 0.0
C485 C 0.20297 0.36362 0.46282 0.0
C486 C 0.20884 0.3729 0.42925 0.0
C487 C 0.2168 0.38414 0.44765 0.0
C488 C 0.18711 0.28728 0.35489 0.0
C489 C 0.17775 0.32929 0.40634 0.0
H490 H 0.18864 0.37295 0.25694 0.0
H491 H 0.13112 0.29513 0.219 0.0
H492 H 0.12225 0.28028 0.2783 0.0
H493 H 0.10634 0.26032 0.24599 0.0
H494 H 0.1562 0.29524 0.43837 0.0
H495 H 0.20916 0.37341 0.47691 0.0
H496 H 0.21976 0.38922 0.41771 0.0
H497 H 0.23363 0.40897 0.45019 0.0
Eu498 Eu 0.69215 0.83822 0.32703 0.0
C499 C 0.57554 0.80594 0.3797 0.0
C500 C 0.56563 0.84938 0.37422 0.0
C501 C 0.52097 0.79764 0.38262 0.0
C502 C 0.58696 0.83719 0.37495 0.0
C503 C 0.54253 0.78594 0.38394 0.0
C504 C 0.53249 0.8293 0.37774 0.0
C505 C 0.55503 0.74494 0.39169 0.0
N506 N 0.59697 0.79541 0.38087 0.0
C507 C 0.58754 0.76574 0.38741 0.0
C508 C 0.53234 0.75497 0.38975 0.0
Eu509 Eu 0.65112 0.83106 0.37228 0.0
N510 N 0.61911 0.85593 0.37162 0.0
C511 C 0.63182 0.88762 0.36866 0.0
C512 C 0.57831 0.88149 0.37022 0.0
C513 C 0.61161 0.90075 0.36765 0.0
H514 H 0.60501 0.75785 0.38875 0.0
H515 H 0.62174 0.9257 0.36479 0.0
H516 H 0.51569 0.83817 0.37707 0.0
H517 H 0.5475 0.7212 0.39642 0.0
H518 H 0.65742 0.9029 0.36647 0.0
H519 H 0.72787 0.7478 0.3296 0.0
H520 H 0.5627 0.89172 0.3694 0.0
H521 H 0.73347 0.91025 0.3081 0.0
H522 H 0.68987 0.7682 0.32926 0.0
H523 H 0.79008 0.94946 0.29994 0.0
H524 H 0.49546 0.78257 0.38566 0.0
H525 H 0.78674 0.78464 0.32637 0.0
H526 H 0.83189 0.83982 0.31984 0.0
H527 H 0.50716 0.73883 0.3931 0.0
H528 H 0.84899 0.89504 0.31192 0.0
N529 N 0.72684 0.81642 0.32688 0.0
C530 C 0.71546 0.78463 0.32793 0.0
C531 C 0.77015 0.79379 0.32634 0.0
C532 C 0.78138 0.82602 0.32367 0.0
C533 C 0.73695 0.77291 0.32809 0.0
C534 C 0.75879 0.83672 0.32391 0.0
H535 H 0.83348 0.93607 0.30415 0.0
N536 N 0.74529 0.87603 0.31778 0.0
C537 C 0.78435 0.9266 0.30546 0.0
C538 C 0.76834 0.86759 0.31922 0.0
C539 C 0.7524 0.90441 0.31006 0.0
C540 C 0.80879 0.91899 0.30794 0.0
C541 C 0.80081 0.88888 0.31441 0.0
O542 O 0.68237 0.8499 0.299 0.0
O543 O 0.65165 0.83944 0.3416 0.0
O544 O 0.61647 0.79074 0.35376 0.0
O545 O 0.65165 0.78731 0.33231 0.0
O546 O 0.67434 0.87302 0.32122 0.0
O547 O 0.67512 0.8032 0.30438 0.0
O548 O 0.65704 0.8167 0.40043 0.0
O549 O 0.69186 0.82878 0.35794 0.0
O550 O 0.72628 0.88144 0.34412 0.0
O551 O 0.69233 0.8812 0.368 0.0
O552 O 0.66423 0.79315 0.37694 0.0
O553 O 0.6703 0.86541 0.3952 0.0
C554 C 0.65053 0.86138 0.3329 0.0
C555 C 0.69161 0.8241 0.27392 0.0
C556 C 0.69298 0.82766 0.23977 0.0
C557 C 0.67675 0.82412 0.25684 0.0
C558 C 0.72391 0.83072 0.23987 0.0
C559 C 0.72243 0.82694 0.27381 0.0
C560 C 0.73843 0.83013 0.25683 0.0
C561 C 0.62281 0.77581 0.34032 0.0
C562 C 0.6755 0.82272 0.29174 0.0
C563 C 0.82385 0.87895 0.31537 0.0
C564 C 0.81411 0.84751 0.31988 0.0
C565 C 0.68882 0.80421 0.36586 0.0
C566 C 0.64981 0.8446 0.42513 0.0
C567 C 0.66232 0.84264 0.44265 0.0
C568 C 0.64549 0.84092 0.4592 0.0
C569 C 0.61638 0.84158 0.45815 0.0
C570 C 0.62086 0.84556 0.42429 0.0
C571 C 0.60427 0.8441 0.44075 0.0
C572 C 0.71963 0.89478 0.35835 0.0
C573 C 0.66642 0.84444 0.40782 0.0
H574 H 0.65309 0.8223 0.25686 0.0
H575 H 0.73679 0.83358 0.22681 0.0
H576 H 0.73422 0.82694 0.28682 0.0
H577 H 0.76226 0.83247 0.25683 0.0
H578 H 0.68456 0.84165 0.44338 0.0
H579 H 0.60309 0.84022 0.47081 0.0
H580 H 0.61103 0.84734 0.41096 0.0
H581 H 0.58187 0.84471 0.44 0.0
Eu582 Eu 0.18344 0.82558 0.37168 0.0
C583 C 0.14081 0.89848 0.32113 0.0
C584 C 0.08206 0.87096 0.32185 0.0
C585 C 0.11244 0.92811 0.31815 0.0
C586 C 0.11144 0.87057 0.32283 0.0
C587 C 0.14159 0.92741 0.31824 0.0
C588 C 0.08275 0.89996 0.32002 0.0
C589 C 0.19967 0.95227 0.31416 0.0
N590 N 0.16862 0.89712 0.32157 0.0
C591 C 0.19773 0.92307 0.31732 0.0
C592 C 0.17157 0.95458 0.315 0.0
Eu593 Eu 0.1627 0.84677 0.32687 0.0
N594 N 0.11153 0.84288 0.32429 0.0
C595 C 0.08338 0.81465 0.32311 0.0
C596 C 0.0529 0.84209 0.32211 0.0
C597 C 0.05359 0.81379 0.3224 0.0
H598 H 0.21945 0.92122 0.31697 0.0
H599 H 0.03122 0.79133 0.32209 0.0
H600 H 0.06042 0.90076 0.31946 0.0
H601 H 0.22285 0.97302 0.31131 0.0
H602 H 0.08381 0.79272 0.32323 0.0
H603 H 0.31491 0.87995 0.37491 0.0
H604 H 0.0298 0.84136 0.32149 0.0
H605 H 0.12662 0.75143 0.38195 0.0
H606 H 0.2625 0.87899 0.37409 0.0
H607 H 0.12282 0.69941 0.38745 0.0
H608 H 0.11254 0.95018 0.31619 0.0
H609 H 0.31586 0.82968 0.37563 0.0
H610 H 0.28489 0.77032 0.37775 0.0
H611 H 0.17319 0.97727 0.31268 0.0
H612 H 0.23262 0.72118 0.38142 0.0
N613 N 0.23444 0.82885 0.37327 0.0
C614 C 0.26276 0.85697 0.37423 0.0
C615 C 0.29286 0.82915 0.37507 0.0
C616 C 0.26357 0.80041 0.37545 0.0
C617 C 0.29243 0.85758 0.37475 0.0
C618 C 0.23431 0.80104 0.37465 0.0
H619 H 0.17211 0.69459 0.38548 0.0
N620 N 0.17723 0.77502 0.37669 0.0
C621 C 0.14599 0.71998 0.38433 0.0
C622 C 0.20487 0.77333 0.37669 0.0
C623 C 0.14816 0.7493 0.38126 0.0
C624 C 0.17388 0.71735 0.38316 0.0
C625 C 0.20388 0.7443 0.37959 0.0
O626 O 0.15818 0.81141 0.3986 0.0
O627 O 0.1419 0.81972 0.35326 0.0
O628 O 0.17544 0.88662 0.34846 0.0
O629 O 0.20958 0.87867 0.36805 0.0
O630 O 0.14062 0.83007 0.38108 0.0
O631 O 0.20813 0.84986 0.39751 0.0
O632 O 0.19037 0.86188 0.30077 0.0
O633 O 0.20435 0.85307 0.34541 0.0
O634 O 0.17002 0.78557 0.35008 0.0
O635 O 0.13589 0.79362 0.33051 0.0
O636 O 0.20446 0.8402 0.31802 0.0
O637 O 0.13998 0.82379 0.30034 0.0
C638 C 0.12621 0.82569 0.36528 0.0
C639 C 0.19019 0.82079 0.4258 0.0
C640 C 0.18181 0.81183 0.45959 0.0
C641 C 0.17621 0.82328 0.44268 0.0
C642 C 0.20199 0.7984 0.45941 0.0
C643 C 0.21015 0.80726 0.4259 0.0
C644 C 0.21607 0.79621 0.44267 0.0
C645 C 0.19559 0.8951 0.36299 0.0
C646 C 0.18334 0.83205 0.40822 0.0
C647 C 0.23288 0.74332 0.37943 0.0
C648 C 0.26266 0.77131 0.37733 0.0
C649 C 0.21972 0.84628 0.33362 0.0
C650 C 0.16267 0.85044 0.27157 0.0
C651 C 0.17536 0.84161 0.2564 0.0
C652 C 0.17119 0.8486 0.23771 0.0
C653 C 0.15462 0.86544 0.23469 0.0
C654 C 0.14653 0.86733 0.26829 0.0
C655 C 0.14268 0.8749 0.24987 0.0
C656 C 0.14948 0.77689 0.33573 0.0
C657 C 0.16629 0.84101 0.29057 0.0
H658 H 0.1605 0.83347 0.44256 0.0
H659 H 0.20699 0.78969 0.47226 0.0
H660 H 0.22119 0.80528 0.41307 0.0
H661 H 0.23156 0.78584 0.44269 0.0
H662 H 0.18849 0.82922 0.2593 0.0
H663 H 0.15021 0.8708 0.22059 0.0
H664 H 0.13678 0.87442 0.27989 0.0
H665 H 0.12997 0.88776 0.24732 0.0
Eu666 Eu 0.82765 0.6487 0.65765 0.0
C667 C 0.9006 0.75754 0.71601 0.0
C668 C 0.9558 0.76892 0.7119 0.0
C669 C 0.94529 0.8111 0.72078 0.0
C670 C 0.92212 0.7474 0.71155 0.0
C671 C 0.91192 0.78932 0.72117 0.0
C672 C 0.9672 0.80092 0.71611 0.0
C673 C 0.85672 0.77508 0.72833 0.0
N674 N 0.86862 0.73593 0.71629 0.0
C675 C 0.84678 0.74387 0.72316 0.0
C676 C 0.88942 0.79805 0.72706 0.0
Eu677 Eu 0.85253 0.68405 0.70556 0.0
N678 N 0.91021 0.71629 0.70756 0.0
C679 C 0.93109 0.70486 0.70526 0.0
C680 C 0.97704 0.75754 0.70839 0.0
C681 C 0.96462 0.72529 0.70537 0.0
H682 H 0.82142 0.72612 0.72409 0.0
H683 H 0.98087 0.71611 0.70301 0.0
H684 H 0.99294 0.81782 0.71624 0.0
H685 H 0.83917 0.78139 0.73326 0.0
H686 H 0.92251 0.68019 0.7028 0.0
H687 H 0.69736 0.60606 0.65689 0.0
H688 H 1.00304 0.77331 0.70843 0.0
H689 H 0.86749 0.61266 0.6424 0.0
H690 H 0.75513 0.64567 0.65952 0.0
H691 H 0.85551 0.55926 0.63232 0.0
H692 H 0.95443 0.83569 0.72448 0.0
H693 H 0.68054 0.55037 0.64951 0.0
H694 H 0.69645 0.50982 0.6413 0.0
H695 H 0.89713 0.82223 0.73113 0.0
H696 H 0.73938 0.49706 0.6346 0.0
N697 N 0.7714 0.61283 0.65415 0.0
C698 C 0.74841 0.62159 0.65621 0.0
C699 C 0.70608 0.56772 0.65063 0.0
C700 C 0.72977 0.5592 0.64759 0.0
C701 C 0.71548 0.59913 0.65475 0.0
C702 C 0.76267 0.58264 0.64936 0.0
H703 H 0.79872 0.51539 0.63104 0.0
N704 N 0.81807 0.59875 0.64708 0.0
C705 C 0.83595 0.56344 0.63612 0.0
C706 C 0.78675 0.57538 0.64572 0.0
C707 C 0.84265 0.59361 0.64176 0.0
C708 C 0.80387 0.53873 0.63545 0.0
C709 C 0.77875 0.54461 0.64004 0.0
O710 O 0.85455 0.66194 0.63117 0.0
O711 O 0.86498 0.68851 0.67504 0.0
O712 O 0.83729 0.71463 0.68944 0.0
O713 O 0.81119 0.68435 0.66262 0.0
O714 O 0.8817 0.66781 0.65607 0.0
O715 O 0.81198 0.66673 0.63419 0.0
O716 O 0.83542 0.68153 0.73457 0.0
O717 O 0.8144 0.64631 0.68786 0.0
O718 O 0.83305 0.61392 0.67578 0.0
O719 O 0.86754 0.64714 0.69933 0.0
O720 O 0.7983 0.66488 0.70833 0.0
O721 O 0.85567 0.65262 0.72614 0.0
C722 C 0.89026 0.69065 0.66796 0.0
C723 C 0.82478 0.65732 0.60363 0.0
C724 C 0.82929 0.66665 0.56963 0.0
C725 C 0.83847 0.67786 0.58824 0.0
C726 C 0.80623 0.63449 0.56684 0.0
C727 C 0.80176 0.62551 0.60046 0.0
C728 C 0.79257 0.61421 0.58214 0.0
C729 C 0.81965 0.7088 0.67395 0.0
C730 C 0.83477 0.66932 0.6229 0.0
C731 C 0.74603 0.52093 0.63879 0.0
C732 C 0.72159 0.5282 0.64259 0.0
C733 C 0.78916 0.64347 0.6954 0.0
C734 C 0.8614 0.66757 0.75804 0.0
C735 C 0.8441 0.65388 0.77469 0.0
C736 C 0.8607 0.65767 0.79181 0.0
C737 C 0.89474 0.67557 0.79201 0.0
C738 C 0.89532 0.68568 0.75864 0.0
C739 C 0.91184 0.68959 0.77555 0.0
C740 C 0.85288 0.61975 0.69016 0.0
C741 C 0.84403 0.66134 0.73999 0.0
H742 H 0.85597 0.70254 0.59082 0.0
H743 H 0.79905 0.62476 0.5528 0.0
H744 H 0.79094 0.60944 0.61212 0.0
H745 H 0.77491 0.58955 0.57977 0.0
H746 H 0.81788 0.63975 0.77424 0.0
H747 H 0.90813 0.67916 0.80499 0.0
H748 H 0.90903 0.69643 0.74598 0.0
H749 H 0.93803 0.70347 0.77591 0.0
Eu750 Eu 0.36498 0.17802 0.6578 0.0
C751 C 0.23585 0.11886 0.70386 0.0
C752 C 0.22221 0.16046 0.70466 0.0
C753 C 0.17949 0.10545 0.70625 0.0
C754 C 0.2454 0.15061 0.70327 0.0
C755 C 0.20285 0.0959 0.70575 0.0
C756 C 0.18916 0.13769 0.70579 0.0
C757 C 0.21886 0.0562 0.70852 0.0
N758 N 0.25905 0.11054 0.70372 0.0
C759 C 0.25126 0.0799 0.70676 0.0
C760 C 0.19448 0.06417 0.70773 0.0
Eu761 Eu 0.31315 0.15136 0.69951 0.0
N762 N 0.27753 0.17192 0.70258 0.0
C763 C 0.28824 0.20345 0.7048 0.0
C764 C 0.23299 0.19287 0.70551 0.0
C765 C 0.26619 0.21444 0.7059 0.0
H766 H 0.27001 0.0736 0.70726 0.0
H767 H 0.27484 0.23954 0.70701 0.0
H768 H 0.17096 0.14479 0.70669 0.0
H769 H 0.21272 0.03183 0.71043 0.0
H770 H 0.31379 0.22046 0.70508 0.0
H771 H 0.40558 0.09151 0.6516 0.0
H772 H 0.21595 0.20143 0.70643 0.0
H773 H 0.40769 0.25586 0.64959 0.0
H774 H 0.36586 0.1099 0.65218 0.0
H775 H 0.46496 0.29822 0.64768 0.0
H776 H 0.15398 0.08816 0.70752 0.0
H777 H 0.46418 0.13013 0.65423 0.0
H778 H 0.50862 0.18703 0.65529 0.0
H779 H 0.16939 0.04579 0.70916 0.0
H780 H 0.52487 0.24348 0.65431 0.0
N781 N 0.40144 0.15837 0.65588 0.0
C782 C 0.39133 0.12704 0.65331 0.0
C783 C 0.44682 0.13834 0.65455 0.0
C784 C 0.45711 0.17064 0.65567 0.0
C785 C 0.41379 0.11649 0.65298 0.0
C786 C 0.4335 0.18003 0.65622 0.0
H787 H 0.50875 0.28521 0.65115 0.0
N788 N 0.4191 0.21952 0.65457 0.0
C789 C 0.45905 0.274 0.65 0.0
C790 C 0.44265 0.21168 0.65554 0.0
C791 C 0.42666 0.24997 0.65103 0.0
C792 C 0.48368 0.26657 0.65204 0.0
C793 C 0.47564 0.23499 0.65442 0.0
O794 O 0.36079 0.19948 0.63177 0.0
O795 O 0.31978 0.17247 0.67093 0.0
O796 O 0.28345 0.11761 0.67609 0.0
O797 O 0.32492 0.12628 0.65519 0.0
O798 O 0.34955 0.21496 0.65773 0.0
O799 O 0.35481 0.15251 0.63116 0.0
O800 O 0.31759 0.12882 0.72495 0.0
O801 O 0.3582 0.15686 0.68631 0.0
O802 O 0.39438 0.21202 0.68116 0.0
O803 O 0.35299 0.20319 0.70214 0.0
O804 O 0.32814 0.11402 0.69897 0.0
O805 O 0.32593 0.17675 0.72626 0.0
C806 C 0.32247 0.19874 0.66643 0.0
C807 C 0.37579 0.18366 0.60412 0.0
C808 C 0.37952 0.19011 0.57012 0.0
C809 C 0.361 0.18149 0.58666 0.0
C810 C 0.41283 0.20046 0.57124 0.0
C811 C 0.40898 0.19385 0.60501 0.0
C812 C 0.42739 0.20217 0.5886 0.0
C813 C 0.29449 0.10994 0.66107 0.0
C814 C 0.35643 0.17571 0.62128 0.0
C815 C 0.49936 0.22591 0.65495 0.0
C816 C 0.49011 0.19377 0.6555 0.0
C817 C 0.35552 0.13053 0.69062 0.0
C818 C 0.3099 0.14703 0.75418 0.0
C819 C 0.33026 0.15679 0.76994 0.0
C820 C 0.31743 0.15239 0.78819 0.0
C821 C 0.28355 0.13723 0.79034 0.0
C822 C 0.27626 0.1321 0.75646 0.0
C823 C 0.26317 0.12709 0.77454 0.0
C824 C 0.38332 0.21968 0.69616 0.0
C825 C 0.32477 0.15324 0.73559 0.0
H826 H 0.33535 0.17378 0.58601 0.0
H827 H 0.42756 0.20702 0.55865 0.0
H828 H 0.42062 0.1954 0.61834 0.0
H829 H 0.45303 0.21006 0.58935 0.0
H830 H 0.35623 0.16782 0.7679 0.0
H831 H 0.27277 0.13379 0.80416 0.0
H832 H 0.26028 0.12449 0.74434 0.0
H833 H 0.23718 0.11562 0.77633 0.0
Eu834 Eu 0.85151 0.15843 0.70765 0.0
C835 C 0.78515 0.20337 0.65152 0.0
C836 C 0.72842 0.1672 0.6576 0.0
C837 C 0.74587 0.22099 0.64775 0.0
C838 C 0.76089 0.17401 0.65712 0.0
C839 C 0.77783 0.22691 0.64615 0.0
C840 C 0.72118 0.19114 0.65345 0.0
C841 C 0.8331 0.25846 0.63549 0.0
N842 N 0.81555 0.20799 0.64981 0.0
C843 C 0.83901 0.2342 0.64084 0.0
C844 C 0.80253 0.25507 0.63851 0.0
Eu845 Eu 0.82462 0.16692 0.66036 0.0
N846 N 0.76872 0.15133 0.66059 0.0
C847 C 0.74487 0.12065 0.66312 0.0
C848 C 0.7041 0.13623 0.66145 0.0
C849 C 0.71233 0.11272 0.66383 0.0
H850 H 0.86268 0.23682 0.63856 0.0
H851 H 0.69367 0.08852 0.66635 0.0
H852 H 0.69643 0.18648 0.65396 0.0
H853 H 0.85209 0.27971 0.62905 0.0
H854 H 0.75063 0.10213 0.66514 0.0
H855 H 0.95517 0.27231 0.73159 0.0
H856 H 0.67887 0.13002 0.662 0.0
H857 H 0.85036 0.0895 0.7163 0.0
H858 H 0.89759 0.23146 0.73002 0.0
H859 H 0.88841 0.06899 0.71473 0.0
H860 H 0.73979 0.23891 0.64394 0.0
H861 H 0.99716 0.26024 0.72056 0.0
H862 H 0.01088 0.21874 0.71054 0.0
H863 H 0.79791 0.27377 0.63423 0.0
H864 H 0.99247 0.16208 0.70655 0.0
N865 N 0.90622 0.19776 0.7157 0.0
C866 C 0.91544 0.22617 0.7244 0.0
C867 C 0.97178 0.24244 0.71938 0.0
C868 C 0.96238 0.2117 0.71342 0.0
C869 C 0.94818 0.24933 0.72563 0.0
C870 C 0.92899 0.18949 0.71212 0.0
H871 H 0.94677 0.10573 0.7091 0.0
N872 N 0.88663 0.13712 0.7108 0.0
C873 C 0.8973 0.09405 0.71309 0.0
C874 C 0.91878 0.15785 0.70985 0.0
C875 C 0.87584 0.10578 0.71399 0.0
C876 C 0.93017 0.11483 0.70983 0.0
C877 C 0.94148 0.14733 0.70885 0.0
O878 O 0.81491 0.11768 0.72339 0.0
O879 O 0.80883 0.14969 0.68974 0.0
O880 O 0.83974 0.2133 0.67546 0.0
O881 O 0.86567 0.20964 0.7026 0.0
O882 O 0.81607 0.17499 0.71456 0.0
O883 O 0.85085 0.15994 0.73852 0.0
O884 O 0.8511 0.17265 0.63411 0.0
O885 O 0.86243 0.16313 0.67717 0.0
O886 O 0.84044 0.11588 0.68897 0.0
O887 O 0.80541 0.11491 0.66603 0.0
O888 O 0.87915 0.19911 0.65781 0.0
O889 O 0.80172 0.1353 0.63638 0.0
C890 C 0.79674 0.16195 0.70047 0.0
C891 C 0.81008 0.117 0.75764 0.0
C892 C 0.79856 0.12108 0.79083 0.0
C893 C 0.81605 0.13516 0.77423 0.0
C894 C 0.77566 0.08861 0.79071 0.0
C895 C 0.78713 0.0846 0.75799 0.0
C896 C 0.77019 0.07055 0.77444 0.0
C897 C 0.85773 0.22551 0.69071 0.0
C898 C 0.8251 0.13203 0.73955 0.0
C899 C 0.97467 0.16963 0.70792 0.0
C900 C 0.98514 0.20188 0.71014 0.0
C901 C 0.88789 0.18516 0.66995 0.0
C902 C 0.81977 0.15809 0.6065 0.0
C903 C 0.83427 0.15299 0.59071 0.0
C904 C 0.8284 0.16053 0.57255 0.0
C905 C 0.80789 0.17343 0.57051 0.0
C906 C 0.79935 0.17089 0.60416 0.0
C907 C 0.7935 0.17853 0.58623 0.0
C908 C 0.81935 0.10143 0.67518 0.0
C909 C 0.82643 0.15025 0.6253 0.0
H910 H 0.83331 0.16031 0.77406 0.0
H911 H 0.7622 0.07707 0.80331 0.0
H912 H 0.78191 0.07015 0.74545 0.0
H913 H 0.75251 0.04556 0.77455 0.0
H914 H 0.84979 0.14281 0.5926 0.0
H915 H 0.80329 0.17999 0.55678 0.0
H916 H 0.78788 0.17489 0.61616 0.0
H917 H 0.77783 0.18851 0.5845 0.0
H918 H 0.31617 0.82128 0.06881 0.0
H919 H 0.26045 0.86862 0.07678 0.0
H920 H 0.30087 0.91421 0.05849 0.0
H921 H 0.39273 0.88943 0.07546 0.0
H922 H 0.41369 0.87912 0.0582 0.0
H923 H 0.37838 0.8485 0.06975 0.0
H924 H 0.35185 0.82672 0.03718 0.0
H925 H 0.38697 0.85777 0.02559 0.0
H926 H 0.34736 0.8525 0.02084 0.0
H927 H 0.34815 0.95588 0.04202 0.0
H928 H 0.40298 0.9943 0.03109 0.0
H929 H 0.43062 0.92212 0.03363 0.0
C930 C 0.31229 0.84103 0.06629 0.0
C931 C 0.28495 0.84134 0.07391 0.0
C932 C 0.28105 0.86789 0.07089 0.0
C933 C 0.30378 0.89377 0.06044 0.0
C934 C 0.33048 0.8929 0.05313 0.0
C935 C 0.33516 0.86744 0.05603 0.0
C936 C 0.36779 0.87423 0.04821 0.0
C937 C 0.38942 0.87275 0.06384 0.0
C938 C 0.36321 0.85144 0.03199 0.0
C939 C 0.38104 0.90782 0.04103 0.0
C940 C 0.35863 0.91766 0.04368 0.0
C941 C 0.3657 0.94833 0.03958 0.0
C942 C 0.39685 0.96996 0.03331 0.0
C943 C 0.42063 0.96095 0.03106 0.0
C944 C 0.41245 0.92924 0.03453 0.0
H945 H 0.19172 0.49677 0.06901 0.0
H946 H 0.1442 0.39461 0.0727 0.0
H947 H 0.09684 0.39005 0.05554 0.0
H948 H 0.11961 0.50159 0.07728 0.0
H949 H 0.13048 0.53413 0.06141 0.0
H950 H 0.16167 0.52947 0.07279 0.0
H951 H 0.18599 0.52967 0.04031 0.0
H952 H 0.15445 0.53352 0.02867 0.0
H953 H 0.16107 0.50118 0.0227 0.0
H954 H 0.05447 0.39593 0.03914 0.0
H955 H 0.01619 0.41176 0.02697 0.0
H956 H 0.08886 0.51056 0.03416 0.0
C957 C 0.17133 0.47354 0.06603 0.0
C958 C 0.17151 0.44593 0.07201 0.0
C959 C 0.14439 0.41591 0.06818 0.0
C960 C 0.11753 0.41313 0.05837 0.0
C961 C 0.11799 0.44065 0.0526 0.0
C962 C 0.14389 0.47034 0.05648 0.0
C963 C 0.13688 0.49597 0.04972 0.0
C964 C 0.13717 0.51649 0.06629 0.0
C965 C 0.16103 0.5163 0.03443 0.0
C966 C 0.1029 0.47596 0.04162 0.0
C967 C 0.09287 0.44413 0.04326 0.0
C968 C 0.0621 0.42075 0.03765 0.0
C969 C 0.04054 0.42996 0.03071 0.0
C970 C 0.04967 0.46228 0.02934 0.0
C971 C 0.08152 0.48569 0.03459 0.0
H972 H 0.59158 0.72008 0.08953 0.0
H973 H 0.50096 0.71787 0.07739 0.0
H974 H 0.48191 0.66864 0.05957 0.0
H975 H 0.60078 0.69051 0.04646 0.0
H976 H 0.61475 0.66504 0.05577 0.0
H977 H 0.6217 0.69964 0.06877 0.0
H978 H 0.59268 0.66517 0.09781 0.0
H979 H 0.58613 0.63048 0.08501 0.0
H980 H 0.55227 0.63192 0.09526 0.0
H981 H 0.4756 0.62552 0.03946 0.0
H982 H 0.47658 0.58209 0.02284 0.0
H983 H 0.56749 0.60541 0.0504 0.0
C984 C 0.56749 0.7088 0.08347 0.0
C985 C 0.54818 0.72342 0.08437 0.0
C986 C 0.51667 0.70779 0.07634 0.0
C987 C 0.50549 0.67968 0.06626 0.0
C988 C 0.5256 0.66676 0.0648 0.0
C989 C 0.55545 0.68001 0.07362 0.0
C990 C 0.57163 0.66039 0.06974 0.0
C991 C 0.60414 0.68008 0.05958 0.0
C992 C 0.57592 0.64614 0.08805 0.0
C993 C 0.54657 0.63485 0.0569 0.0
C994 C 0.5205 0.63949 0.05417 0.0
C995 C 0.49537 0.62098 0.04186 0.0
C996 C 0.49629 0.59637 0.0324 0.0
C997 C 0.52178 0.58984 0.03558 0.0
C998 C 0.54741 0.6095 0.04796 0.0
H999 H 0.82399 0.27084 0.97536 0.0
H1000 H 0.83343 0.29862 0.91662 0.0
H1001 H 0.87371 0.35304 0.9254 0.0
H1002 H 0.83109 0.34508 0.99377 0.0
H1003 H 0.85334 0.34549 0.01442 0.0
H1004 H 0.8245 0.30838 1.00372 0.0
H1005 H 0.86918 0.29308 1.00072 0.0
H1006 H 0.89814 0.33017 0.01133 0.0
H1007 H 0.90623 0.31922 0.98857 0.0
H1008 H 0.91576 0.40331 0.93974 0.0
H1009 H 0.95432 0.44816 0.95943 0.0
H1010 H 0.91604 0.39055 1.00942 0.0
C1011 C 0.83412 0.28845 0.96438 0.0
C1012 C 0.82582 0.28 0.94519 0.0
C1013 C 0.83993 0.30398 0.93132 0.0
C1014 C 0.8627 0.33516 0.93618 0.0
C1015 C 0.87085 0.34247 0.95506 0.0
C1016 C 0.85672 0.32004 0.96902 0.0
C1017 C 0.87007 0.33457 0.98826 0.0
C1018 C 0.84314 0.3333 1.00078 0.0
C1019 C 0.88691 0.31829 0.99777 0.0
C1020 C 0.89436 0.36842 0.9828 0.0
C1021 C 0.89435 0.37227 0.96354 0.0
C1022 C 0.91569 0.40074 0.95487 0.0
C1023 C 0.93762 0.42603 0.96615 0.0
C1024 C 0.9379 0.42296 0.98593 0.0
C1025 C 0.91582 0.39379 0.99439 0.0
H1026 H 0.73026 0.58865 0.95317 0.0
H1027 H 0.72112 0.49817 0.96735 0.0
H1028 H 0.6695 0.48291 0.9838 0.0
H1029 H 0.69883 0.59966 0.99746 0.0
H1030 H 0.67822 0.61811 0.98661 0.0
H1031 H 0.71436 0.62189 0.97604 0.0
H1032 H 0.68331 0.59903 0.94469 0.0
H1033 H 0.64718 0.59538 0.95513 0.0
H1034 H 0.64642 0.56127 0.94473 0.0
H1035 H 0.6163 0.47604 0.9962 0.0
H1036 H 0.56825 0.47944 1.00534 0.0
H1037 H 0.61484 0.57651 0.98617 0.0
C1038 C 0.71736 0.56563 0.95976 0.0
C1039 C 0.72953 0.54445 0.95894 0.0
C1040 C 0.71221 0.51471 0.96789 0.0
C1041 C 0.68289 0.50587 0.97722 0.0
C1042 C 0.6715 0.52728 0.97775 0.0
C1043 C 0.6884 0.55669 0.96942 0.0
C1044 C 0.67109 0.57542 0.97211 0.0
C1045 C 0.69187 0.60556 0.98375 0.0
C1046 C 0.66143 0.58322 0.95303 0.0
C1047 C 0.64157 0.55183 0.98303 0.0
C1048 C 0.64209 0.5241 0.98601 0.0
C1049 C 0.61612 0.49798 0.9944 0.0
C1050 C 0.58894 0.50024 0.99978 0.0
C1051 C 0.58824 0.52873 0.99736 0.0
C1052 C 0.61507 0.55477 0.98885 0.0
H1053 H 0.45415 0.15163 0.93293 0.0
H1054 H 0.42208 0.18611 0.97999 0.0
H1055 H 0.43327 0.1534 1.00166 0.0
H1056 H 0.41868 0.06995 0.95077 0.0
H1057 H 0.4516 0.06543 0.9419 0.0
H1058 H 0.44009 0.09087 0.92992 0.0
H1059 H 0.49914 0.13726 0.93288 0.0
H1060 H 0.51065 0.11207 0.94513 0.0
H1061 H 0.51779 0.14857 0.95583 0.0
H1062 H 0.45241 0.12081 0.01861 0.0
H1063 H 0.47103 0.08418 0.02913 0.0
H1064 H 0.48678 0.06794 0.97107 0.0
C1065 C 0.44873 0.15178 0.94771 0.0
C1066 C 0.43773 0.17193 0.95476 0.0
C1067 C 0.4313 0.17154 0.97428 0.0
C1068 C 0.43741 0.15291 0.98672 0.0
C1069 C 0.4493 0.13423 0.9794 0.0
C1070 C 0.45419 0.1329 0.96032 0.0
C1071 C 0.46698 0.11062 0.95618 0.0
C1072 C 0.44289 0.08255 0.94397 0.0
C1073 C 0.50064 0.1282 0.94696 0.0
C1074 C 0.46896 0.10015 0.97593 0.0
C1075 C 0.45896 0.11427 0.98914 0.0
C1076 C 0.45996 0.1093 1.00839 0.0
C1077 C 0.47091 0.0888 0.01427 0.0
C1078 C 0.48031 0.07344 1.00091 0.0
C1079 C 0.47939 0.07926 0.98154 0.0
H1080 H 0.72495 0.13087 0.95016 0.0
H1081 H 0.71367 0.21256 0.96085 0.0
H1082 H 0.66398 0.17908 0.97888 0.0
H1083 H 0.64059 0.07576 0.94304 0.0
H1084 H 0.64192 0.04332 0.95426 0.0
H1085 H 0.67756 0.07403 0.94298 0.0
H1086 H 0.7098 0.08384 0.97413 0.0
H1087 H 0.67407 0.05334 0.98552 0.0
H1088 H 0.69506 0.09269 0.99536 0.0
H1089 H 0.61377 0.13624 0.99446 0.0
H1090 H 0.56625 0.08698 1.00535 0.0
H1091 H 0.61 0.03302 0.98509 0.0
C1092 C 0.71205 0.14176 0.95625 0.0
C1093 C 0.72364 0.17459 0.9542 0.0
C1094 C 0.70588 0.18773 0.96252 0.0
C1095 C 0.67746 0.16884 0.97274 0.0
C1096 C 0.6669 0.13672 0.97458 0.0
C1097 C 0.68356 0.12322 0.96652 0.0
C1098 C 0.66637 0.08787 0.97011 0.0
C1099 C 0.656 0.06915 0.95149 0.0
C1100 C 0.6876 0.07892 0.98199 0.0
C1101 C 0.63725 0.08356 0.98118 0.0
C1102 C 0.63811 0.11207 0.98372 0.0
C1103 C 0.61308 0.11386 0.99276 0.0
C1104 C 0.58624 0.08573 0.99904 0.0
C1105 C 0.58476 0.05621 0.99653 0.0
C1106 C 0.61079 0.05531 0.98758 0.0
H1107 H 0.82379 0.51341 0.9609 0.0
H1108 H 0.87076 0.61561 0.9578 0.0
H1109 H 0.91887 0.62018 0.974 0.0
H1110 H 0.85613 0.50886 1.0064 0.0
H1111 H 0.86311 0.47682 1.00016 0.0
H1112 H 0.83087 0.48012 0.98902 0.0
H1113 H 0.85371 0.48093 0.95611 0.0
H1114 H 0.88544 0.47628 0.96675 0.0
H1115 H 0.89554 0.50892 0.9511 0.0
H1116 H 0.96233 0.61432 0.98897 0.0
H1117 H 1.00124 0.59853 1.00007 0.0
H1118 H 0.92819 0.49971 0.99355 0.0
C1119 C 0.84416 0.53667 0.96387 0.0
C1120 C 0.8436 0.56427 0.95831 0.0
C1121 C 0.87079 0.5943 0.96205 0.0
C1122 C 0.89811 0.59708 0.97129 0.0
C1123 C 0.89807 0.56957 0.9766 0.0
C1124 C 0.87205 0.53988 0.97287 0.0
C1125 C 0.87946 0.51427 0.9791 0.0
C1126 C 0.856 0.49378 0.99461 0.0
C1127 C 0.87849 0.4939 0.96226 0.0
C1128 C 0.9138 0.53429 0.98672 0.0
C1129 C 0.92371 0.56611 0.98525 0.0
C1130 C 0.95479 0.58951 0.99036 0.0
C1131 C 0.97672 0.58032 0.99667 0.0
C1132 C 0.96763 0.54801 0.99798 0.0
C1133 C 0.93553 0.52459 0.99318 0.0
H1134 H 0.43538 0.26702 0.97282 0.0
H1135 H 0.48008 0.30396 0.91856 0.0
H1136 H 0.49858 0.35811 0.92979 0.0
H1137 H 0.40777 0.32126 0.98129 0.0
H1138 H 0.41661 0.32531 1.00615 0.0
H1139 H 0.40747 0.28926 0.9941 0.0
H1140 H 0.46175 0.29501 1.00578 0.0
H1141 H 0.47116 0.33119 0.01784 0.0
H1142 H 0.49916 0.33087 1.00091 0.0
H1143 H 0.51019 0.40755 0.94596 0.0
H1144 H 0.51477 0.45035 0.96661 0.0
H1145 H 0.46508 0.38272 0.01114 0.0
C1146 C 0.44945 0.28652 0.96339 0.0
C1147 C 0.45604 0.28116 0.94473 0.0
C1148 C 0.47415 0.30735 0.93276 0.0
C1149 C 0.48505 0.33824 0.93907 0.0
C1150 C 0.47799 0.34264 0.95745 0.0
C1151 C 0.46079 0.31762 0.96951 0.0
C1152 C 0.45605 0.32905 0.98849 0.0
C1153 C 0.41982 0.31541 0.99275 0.0
C1154 C 0.47305 0.32105 1.00418 0.0
C1155 C 0.4728 0.36439 0.98506 0.0
C1156 C 0.48534 0.37157 0.96704 0.0
C1157 C 0.5007 0.4023 0.96014 0.0
C1158 C 0.50303 0.42636 0.97189 0.0
C1159 C 0.49016 0.41956 0.99028 0.0
C1160 C 0.47531 0.38833 0.99713 0.0
H1161 H 0.19106 0.73939 0.05375 0.0
H1162 H 0.19983 0.7048 0.10847 0.0
H1163 H 0.16036 0.65054 0.0988 0.0
H1164 H 0.10766 0.68836 0.04699 0.0
H1165 H 0.10986 0.68124 0.02227 0.0
H1166 H 0.14022 0.71764 0.0329 0.0
H1167 H 0.18546 0.70687 0.02132 0.0
H1168 H 0.15515 0.67069 0.01041 0.0
H1169 H 0.18331 0.66989 0.02707 0.0
H1170 H 0.11593 0.60108 0.08488 0.0
H1171 H 0.07356 0.55769 0.06574 0.0
H1172 H 0.09585 0.62189 0.01885 0.0
C1173 C 0.18524 0.72033 0.06354 0.0
C1174 C 0.19823 0.72664 0.08204 0.0
C1175 C 0.18969 0.70087 0.09441 0.0
C1176 C 0.16738 0.66984 0.08902 0.0
C1177 C 0.15419 0.66457 0.071 0.0
C1178 C 0.16323 0.68889 0.05826 0.0
C1179 C 0.14504 0.67638 0.03976 0.0
C1180 C 0.12448 0.69183 0.03522 0.0
C1181 C 0.16865 0.68124 0.02369 0.0
C1182 C 0.12383 0.64148 0.04436 0.0
C1183 C 0.12949 0.63535 0.06253 0.0
C1184 C 0.11164 0.60544 0.07052 0.0
C1185 C 0.08753 0.58102 0.05963 0.0
C1186 C 0.08177 0.58649 0.04088 0.0
C1187 C 0.10024 0.61706 0.03308 0.0
H1188 H 0.28353 0.41847 0.07639 0.0
H1189 H 0.29241 0.50877 0.06198 0.0
H1190 H 0.34332 0.52358 0.04491 0.0
H1191 H 0.3677 0.4459 0.08379 0.0
H1192 H 0.36659 0.41163 0.07339 0.0
H1193 H 0.33082 0.40814 0.08425 0.0
H1194 H 0.29873 0.38478 0.05325 0.0
H1195 H 0.33452 0.38842 0.04226 0.0
H1196 H 0.31352 0.40669 0.03166 0.0
H1197 H 0.39557 0.53008 0.03167 0.0
H1198 H 0.44329 0.52659 0.02194 0.0
H1199 H 0.39817 0.43027 0.04214 0.0
C1200 C 0.29624 0.44133 0.06961 0.0
C1201 C 0.28414 0.46256 0.07051 0.0
C1202 C 0.30122 0.49215 0.06135 0.0
C1203 C 0.33014 0.50075 0.05167 0.0
C1204 C 0.34141 0.47928 0.05101 0.0
C1205 C 0.32484 0.45006 0.05959 0.0
C1206 C 0.34211 0.43131 0.0567 0.0
C1207 C 0.35241 0.42382 0.07566 0.0
C1208 C 0.32095 0.401 0.04529 0.0
C1209 C 0.37124 0.45474 0.04544 0.0
C1210 C 0.37048 0.48233 0.04238 0.0
C1211 C 0.39597 0.50827 0.03357 0.0
C1212 C 0.42299 0.50601 0.0279 0.0
C1213 C 0.42409 0.47779 0.03049 0.0
C1214 C 0.39766 0.45184 0.03936 0.0
H1215 H 0.58938 0.87076 0.08632 0.0
H1216 H 0.50094 0.78276 0.07374 0.0
H1217 H 0.48084 0.81184 0.05522 0.0
H1218 H 0.54845 0.9178 0.09152 0.0
H1219 H 0.5816 0.9527 0.0813 0.0
H1220 H 0.58935 0.92515 0.09393 0.0
H1221 H 0.61887 0.91987 0.06473 0.0
H1222 H 0.61081 0.94705 0.05192 0.0
H1223 H 0.59791 0.90823 0.04243 0.0
H1224 H 0.47145 0.84887 0.03638 0.0
H1225 H 0.47007 0.89354 0.02134 0.0
H1226 H 0.56242 0.95878 0.04749 0.0
C1227 C 0.56562 0.85769 0.0799 0.0
C1228 C 0.54717 0.82431 0.08109 0.0
C1229 C 0.51609 0.80817 0.07252 0.0
C1230 C 0.50428 0.82447 0.06205 0.0
C1231 C 0.52344 0.85709 0.0606 0.0
C1232 C 0.55311 0.87373 0.06957 0.0
C1233 C 0.56832 0.90893 0.06586 0.0
C1234 C 0.57215 0.92722 0.08425 0.0
C1235 C 0.60091 0.92176 0.05563 0.0
C1236 C 0.54278 0.90916 0.05316 0.0
C1237 C 0.51725 0.87892 0.05025 0.0
C1238 C 0.49112 0.87275 0.03867 0.0
C1239 C 0.49069 0.8983 0.03009 0.0
C1240 C 0.5161 0.92966 0.03325 0.0
C1241 C 0.54257 0.93508 0.04487 0.0
H1242 H 0.95677 0.20647 0.41444 0.0
H1243 H 0.96756 0.12521 0.40171 0.0
H1244 H 0.01659 0.15913 0.38304 0.0
H1245 H 0.98171 0.2431 0.36877 0.0
H1246 H 1.00296 0.28288 0.37797 0.0
H1247 H 0.96878 0.25247 0.39051 0.0
H1248 H 1.00413 0.26401 0.42055 0.0
H1249 H 0.03815 0.29482 0.40818 0.0
H1250 H 0.04161 0.26334 0.41914 0.0
H1251 H 0.06516 0.20198 0.3668 0.0
H1252 H 0.11157 0.2515 0.35536 0.0
H1253 H 0.06735 0.30435 0.37684 0.0
C1254 C 0.96973 0.19601 0.40785 0.0
C1255 C 0.95867 0.16338 0.40945 0.0
C1256 C 0.97582 0.15024 0.40052 0.0
C1257 C 1.00352 0.16924 0.38987 0.0
C1258 C 0.01346 0.20123 0.38819 0.0
C1259 C 0.99721 0.21458 0.39697 0.0
C1260 C 0.01314 0.24963 0.39298 0.0
C1261 C 0.99027 0.25746 0.3819 0.0
C1262 C 0.02496 0.26909 0.4113 0.0
C1263 C 0.04122 0.25397 0.38093 0.0
C1264 C 0.04086 0.22574 0.37823 0.0
C1265 C 0.06545 0.22416 0.36855 0.0
C1266 C 0.09159 0.25239 0.36195 0.0
C1267 C 0.09257 0.28161 0.36479 0.0
C1268 C 0.06676 0.2822 0.3741 0.0
H1269 H 0.85922 0.82664 0.40175 0.0
H1270 H 0.80751 0.7252 0.41026 0.0
H1271 H 0.75897 0.7213 0.39501 0.0
H1272 H 0.79155 0.83752 0.41234 0.0
H1273 H 0.80168 0.86811 0.39511 0.0
H1274 H 0.83315 0.86272 0.40546 0.0
H1275 H 0.85141 0.85722 0.37233 0.0
H1276 H 0.81926 0.86104 0.3615 0.0
H1277 H 0.82327 0.82675 0.35671 0.0
H1278 H 0.71567 0.72807 0.38091 0.0
H1279 H 0.67779 0.74529 0.37008 0.0
H1280 H 0.75566 0.84288 0.3702 0.0
C1281 C 0.83769 0.80367 0.40016 0.0
C1282 C 0.83698 0.77608 0.40697 0.0
C1283 C 0.8084 0.74646 0.40502 0.0
C1284 C 0.78083 0.74405 0.39634 0.0
C1285 C 0.78212 0.77155 0.38977 0.0
C1286 C 0.80959 0.80089 0.39172 0.0
C1287 C 0.80344 0.82679 0.38445 0.0
C1288 C 0.8077 0.85015 0.40029 0.0
C1289 C 0.82565 0.84398 0.36774 0.0
C1290 C 0.76814 0.80738 0.3783 0.0
C1291 C 0.75663 0.77555 0.38142 0.0
C1292 C 0.72444 0.75284 0.37816 0.0
C1293 C 0.70312 0.76283 0.37199 0.0
C1294 C 0.71393 0.79522 0.36888 0.0
C1295 C 0.74703 0.81786 0.37185 0.0
H1296 H 0.2389 0.07098 0.38988 0.0
H1297 H 0.22456 0.04113 0.44837 0.0
H1298 H 0.21137 0.98761 0.43832 0.0
H1299 H 0.17141 0.99809 0.37155 0.0
H1300 H 0.19222 0.99935 0.35012 0.0
H1301 H 0.20121 0.03559 0.36191 0.0
H1302 H 0.262 0.05191 0.36329 0.0
H1303 H 0.25312 0.01567 0.35155 0.0
H1304 H 0.27374 0.02561 0.37396 0.0
H1305 H 0.20143 0.93809 0.42218 0.0
H1306 H 0.19285 0.89469 0.40083 0.0
H1307 H 0.2095 0.95518 0.3527 0.0
C1308 C 0.23249 0.05316 0.40063 0.0
C1309 C 0.23291 0.0605 0.41998 0.0
C1310 C 0.22504 0.03644 0.4335 0.0
C1311 C 0.21723 0.00584 0.42793 0.0
C1312 C 0.21698 0.99954 0.40877 0.0
C1313 C 0.22409 0.02239 0.3953 0.0
C1314 C 0.22174 0.00928 0.37561 0.0
C1315 C 0.19505 0.01066 0.36413 0.0
C1316 C 0.25461 0.02665 0.36551 0.0
C1317 C 0.2125 0.9755 0.38014 0.0
C1318 C 0.2101 0.97053 0.39937 0.0
C1319 C 0.2031 0.94166 0.40711 0.0
C1320 C 0.19853 0.91724 0.39488 0.0
C1321 C 0.20066 0.92168 0.37515 0.0
C1322 C 0.2074 0.95108 0.36768 0.0
H1323 H 0.53392 0.61636 0.27892 0.0
H1324 H 0.44341 0.60753 0.29865 0.0
H1325 H 0.47369 0.65631 0.31716 0.0
H1326 H 0.57914 0.64681 0.32132 0.0
H1327 H 0.61639 0.67477 0.31001 0.0
H1328 H 0.58797 0.63907 0.29787 0.0
H1329 H 0.58573 0.67204 0.26999 0.0
H1330 H 0.61442 0.70787 0.28194 0.0
H1331 H 0.5759 0.70271 0.2744 0.0
H1332 H 0.51254 0.70408 0.3344 0.0
H1333 H 0.5586 0.75187 0.34764 0.0
H1334 H 0.62509 0.73237 0.31622 0.0
C1335 C 0.52054 0.62491 0.287 0.0
C1336 C 0.48629 0.60771 0.28768 0.0
C1337 C 0.46965 0.61973 0.29836 0.0
C1338 C 0.4866 0.64756 0.30884 0.0
C1339 C 0.52023 0.66345 0.30829 0.0
C1340 C 0.53715 0.65298 0.29748 0.0
C1341 C 0.57341 0.67514 0.29933 0.0
C1342 C 0.59021 0.65791 0.30763 0.0
C1343 C 0.58823 0.69034 0.28028 0.0
C1344 C 0.57403 0.69934 0.31306 0.0
C1345 C 0.543 0.69192 0.31803 0.0
C1346 C 0.537 0.71027 0.33061 0.0
C1347 C 0.56344 0.7373 0.33816 0.0
C1348 C 0.59557 0.74585 0.3331 0.0
C1349 C 0.60086 0.72646 0.32041 0.0
H1350 H 0.3752 0.8464 0.29451 0.0
H1351 H 0.42144 0.94857 0.29327 0.0
H1352 H 0.37522 0.94607 0.31077 0.0
H1353 H 0.29613 0.83251 0.28542 0.0
H1354 H 0.27612 0.79809 0.30021 0.0
H1355 H 0.31444 0.80842 0.28964 0.0
H1356 H 0.33761 0.80878 0.32266 0.0
H1357 H 0.29969 0.79949 0.33356 0.0
H1358 H 0.33666 0.83419 0.34081 0.0
H1359 H 0.32302 0.93231 0.32716 0.0
H1360 H 0.2657 0.9082 0.33715 0.0
H1361 H 0.25205 0.81498 0.32611 0.0
C1362 C 0.37569 0.86817 0.29826 0.0
C1363 C 0.40193 0.89774 0.29292 0.0
C1364 C 0.40158 0.9258 0.29748 0.0
C1365 C 0.37557 0.92457 0.30748 0.0
C1366 C 0.34999 0.89505 0.31265 0.0
C1367 C 0.34962 0.86731 0.30795 0.0
C1368 C 0.31782 0.83861 0.31349 0.0
C1369 C 0.30009 0.81823 0.29616 0.0
C1370 C 0.32327 0.81911 0.32852 0.0
C1371 C 0.30011 0.8545 0.32163 0.0
C1372 C 0.31939 0.88707 0.32148 0.0
C1373 C 0.30784 0.90685 0.32758 0.0
C1374 C 0.27542 0.89302 0.33338 0.0
C1375 C 0.25501 0.85983 0.33285 0.0
C1376 C 0.26761 0.84039 0.32714 0.0
H1377 H 0.08871 0.4694 0.27874 0.0
H1378 H 0.16832 0.55799 0.29996 0.0
H1379 H 0.18615 0.52834 0.31979 0.0
H1380 H 0.07181 0.42368 0.32059 0.0
H1381 H 0.06505 0.38819 0.3087 0.0
H1382 H 0.05696 0.41602 0.2967 0.0
H1383 H 0.09552 0.42045 0.26969 0.0
H1384 H 0.10344 0.39237 0.28151 0.0
H1385 H 0.1366 0.43063 0.27516 0.0
H1386 H 0.1954 0.48964 0.33752 0.0
H1387 H 0.19867 0.44419 0.3498 0.0
H1388 H 0.11588 0.38069 0.31529 0.0
C1389 C 0.11007 0.48272 0.28739 0.0
C1390 C 0.12661 0.51622 0.28798 0.0
C1391 C 0.1544 0.53242 0.29966 0.0
C1392 C 0.16498 0.51579 0.31089 0.0
C1393 C 0.14795 0.48292 0.31006 0.0
C1394 C 0.12143 0.46652 0.2984 0.0
C1395 C 0.10853 0.43118 0.29949 0.0
C1396 C 0.07351 0.41375 0.30681 0.0
C1397 C 0.11119 0.41789 0.28032 0.0
C1398 C 0.13182 0.4304 0.31372 0.0
C1399 C 0.15417 0.4605 0.31974 0.0
C1400 C 0.1781 0.46593 0.33289 0.0
C1401 C 0.17961 0.43989 0.33987 0.0
C1402 C 0.15747 0.40883 0.33355 0.0
C1403 C 0.13315 0.40412 0.32039 0.0
H1404 H 0.39045 0.46035 0.28137 0.0
H1405 H 0.37665 0.54047 0.29215 0.0
H1406 H 0.32772 0.50651 0.3106 0.0
H1407 H 0.30477 0.40236 0.27623 0.0
H1408 H 0.30837 0.37125 0.28758 0.0
H1409 H 0.34238 0.40192 0.27511 0.0
H1410 H 0.37751 0.41418 0.30529 0.0
H1411 H 0.34331 0.38398 0.31794 0.0
H1412 H 0.36438 0.42397 0.32681 0.0
H1413 H 0.28097 0.46486 0.32786 0.0
H1414 H 0.2349 0.41597 0.33977 0.0
H1415 H 0.27841 0.36215 0.31881 0.0
C1416 C 0.37683 0.4705 0.28747 0.0
C1417 C 0.38741 0.50302 0.28559 0.0
C1418 C 0.36908 0.51564 0.29371 0.0
C1419 C 0.34136 0.49662 0.30424 0.0
C1420 C 0.33218 0.46495 0.30647 0.0
C1421 C 0.34893 0.45175 0.29812 0.0
C1422 C 0.33306 0.41675 0.30244 0.0
C1423 C 0.32145 0.39691 0.28426 0.0
C1424 C 0.35595 0.40929 0.31379 0.0
C1425 C 0.30476 0.41248 0.31434 0.0
C1426 C 0.30498 0.4407 0.31663 0.0
C1427 C 0.28063 0.44262 0.32633 0.0
C1428 C 0.25463 0.41467 0.33325 0.0
C1429 C 0.25337 0.3853 0.33062 0.0
C1430 C 0.27915 0.38441 0.32138 0.0
H1431 H 0.54356 0.92599 0.28327 0.0
H1432 H 0.45865 0.83725 0.29828 0.0
H1433 H 0.49356 0.82032 0.31429 0.0
H1434 H 0.59694 0.89498 0.27449 0.0
H1435 H 0.63209 0.92839 0.28467 0.0
H1436 H 0.60048 0.93355 0.2743 0.0
H1437 H 0.59471 0.95777 0.3056 0.0
H1438 H 0.62621 0.95252 0.31607 0.0
H1439 H 0.58705 0.93564 0.32712 0.0
H1440 H 0.53761 0.81184 0.32721 0.0
H1441 H 0.58761 0.81306 0.33713 0.0
H1442 H 0.64454 0.90868 0.3161 0.0
C1443 C 0.53243 0.90295 0.28985 0.0
C1444 C 0.4984 0.88286 0.28953 0.0
C1445 C 0.48464 0.85302 0.29847 0.0
C1446 C 0.50427 0.84321 0.30757 0.0
C1447 C 0.53767 0.86363 0.30781 0.0
C1448 C 0.5517 0.89294 0.29929 0.0
C1449 C 0.58826 0.91037 0.30183 0.0
C1450 C 0.60545 0.91722 0.28268 0.0
C1451 C 0.59972 0.94089 0.31334 0.0
C1452 C 0.59257 0.88609 0.31285 0.0
C1453 C 0.56304 0.8593 0.31609 0.0
C1454 C 0.56082 0.83296 0.32507 0.0
C1455 C 0.5895 0.83398 0.33085 0.0
C1456 C 0.62008 0.86141 0.32816 0.0
C1457 C 0.62148 0.88771 0.31889 0.0
H1458 H 0.1073 0.60113 0.30813 0.0
H1459 H 0.12865 0.63432 0.25033 0.0
H1460 H 0.13958 0.6868 0.26063 0.0
H1461 H 0.07048 0.64606 0.32278 0.0
H1462 H 0.08897 0.65512 0.34581 0.0
H1463 H 0.08114 0.6193 0.33391 0.0
H1464 H 0.1417 0.63545 0.33727 0.0
H1465 H 0.14959 0.67124 0.34922 0.0
H1466 H 0.1724 0.67331 0.32852 0.0
H1467 H 0.14738 0.73524 0.27668 0.0
H1468 H 0.15474 0.77815 0.29805 0.0
H1469 H 0.13334 0.71603 0.3459 0.0
C1470 C 0.11455 0.61941 0.2976 0.0
C1471 C 0.11651 0.61311 0.27829 0.0
C1472 C 0.12585 0.63793 0.26509 0.0
C1473 C 0.13251 0.66805 0.27082 0.0
C1474 C 0.13036 0.67333 0.28988 0.0
C1475 C 0.12199 0.6499 0.30313 0.0
C1476 C 0.12254 0.66234 0.32282 0.0
C1477 C 0.08877 0.64465 0.33186 0.0
C1478 C 0.14808 0.66048 0.33518 0.0
C1479 C 0.13225 0.69636 0.31848 0.0
C1480 C 0.13636 0.70198 0.29935 0.0
C1481 C 0.14434 0.73118 0.29169 0.0
C1482 C 0.14822 0.75533 0.30392 0.0
C1483 C 0.14448 0.75033 0.32358 0.0
C1484 C 0.13666 0.72054 0.33098 0.0
H1485 H 0.83294 0.03426 0.42915 0.0
H1486 H 0.85694 0.09808 0.38173 0.0
H1487 H 0.82076 0.05338 0.36136 0.0
H1488 H 0.82817 0.96935 0.40458 0.0
H1489 H 0.79346 0.93937 0.41698 0.0
H1490 H 0.82034 0.97641 0.42841 0.0
H1491 H 0.77218 0.98561 0.43509 0.0
H1492 H 0.74503 0.94837 0.42392 0.0
H1493 H 0.74664 0.98416 0.4159 0.0
H1494 H 0.78626 0.00173 0.34538 0.0
H1495 H 0.74869 0.94647 0.33575 0.0
H1496 H 0.74343 0.91612 0.39354 0.0
C1497 C 0.83003 0.03891 0.41459 0.0
C1498 C 0.84831 0.06963 0.40697 0.0
C1499 C 0.84388 0.07465 0.3878 0.0
C1500 C 0.82327 0.04944 0.3761 0.0
C1501 C 0.80662 0.01934 0.38383 0.0
C1502 C 0.80908 0.01397 0.40271 0.0
C1503 C 0.78813 0.97917 0.40735 0.0
C1504 C 0.80877 0.96527 0.41477 0.0
C1505 C 0.7614 0.97403 0.42139 0.0
C1506 C 0.77411 0.96593 0.38807 0.0
C1507 C 0.78539 0.98952 0.37469 0.0
C1508 C 0.77701 0.98304 0.35573 0.0
C1509 C 0.75606 0.9516 0.35033 0.0
C1510 C 0.74365 0.92724 0.36387 0.0
C1511 C 0.7527 0.9345 0.38296 0.0
H1512 H 0.97501 0.83239 0.4054 0.0
H1513 H 0.92064 0.73056 0.39897 0.0
H1514 H 0.96634 0.7321 0.38141 0.0
H1515 H 0.01678 0.84987 0.35919 0.0
H1516 H 0.05426 0.88134 0.36859 0.0
H1517 H 0.01619 0.87293 0.37891 0.0
H1518 H 0.03571 0.86572 0.41166 0.0
H1519 H 0.07397 0.87472 0.40155 0.0
H1520 H 0.05041 0.83826 0.41418 0.0
H1521 H 0.01947 0.74424 0.36693 0.0
H1522 H 0.07725 0.76576 0.35863 0.0
H1523 H 0.09739 0.85963 0.37443 0.0
C1524 C 0.97266 0.8106 0.39991 0.0
C1525 C 0.94432 0.78137 0.40317 0.0
C1526 C 0.94213 0.75314 0.39631 0.0
C1527 C 0.96788 0.75384 0.3863 0.0
C1528 C 0.99563 0.78302 0.38326 0.0
C1529 C 0.99825 0.81091 0.38992 0.0
C1530 C 0.03165 0.83878 0.38602 0.0
C1531 C 0.02958 0.86211 0.37237 0.0
C1532 C 0.04895 0.85532 0.40445 0.0
C1533 C 0.04771 0.8221 0.37675 0.0
C1534 C 0.02634 0.79001 0.37494 0.0
C1535 C 0.03622 0.76941 0.3679 0.0
C1536 C 0.06895 0.78179 0.36307 0.0
C1537 C 0.09126 0.81444 0.36523 0.0
C1538 C 0.0804 0.83479 0.37197 0.0
H1539 H 0.22501 0.18745 0.42859 0.0
H1540 H 0.24275 0.14215 0.38091 0.0
H1541 H 0.22893 0.17294 0.35923 0.0
H1542 H 0.15879 0.19265 0.40892 0.0
H1543 H 0.17131 0.23131 0.41854 0.0
H1544 H 0.1817 0.2051 0.43057 0.0
H1545 H 0.24251 0.24798 0.42965 0.0
H1546 H 0.23221 0.27436 0.41775 0.0
H1547 H 0.26104 0.26509 0.40739 0.0
H1548 H 0.2122 0.20779 0.34263 0.0
H1549 H 0.19781 0.2476 0.3324 0.0
H1550 H 0.19405 0.27211 0.39069 0.0
C1551 C 0.22632 0.18416 0.41361 0.0
C1552 C 0.23449 0.16192 0.40651 0.0
C1553 C 0.23567 0.15833 0.38675 0.0
C1554 C 0.22811 0.1759 0.37429 0.0
C1555 C 0.21985 0.1973 0.38176 0.0
C1556 C 0.21929 0.20182 0.40094 0.0
C1557 C 0.21043 0.22697 0.40526 0.0
C1558 C 0.17867 0.21317 0.41648 0.0
C1559 C 0.23821 0.25527 0.41562 0.0
C1560 C 0.20606 0.23576 0.38551 0.0
C1561 C 0.2113 0.21819 0.37216 0.0
C1562 C 0.20812 0.22178 0.35295 0.0
C1563 C 0.19967 0.24423 0.34725 0.0
C1564 C 0.19482 0.26286 0.36071 0.0
C1565 C 0.19799 0.25842 0.38006 0.0
H1566 H 0.61814 0.53589 0.74277 0.0
H1567 H 0.62995 0.45497 0.73057 0.0
H1568 H 0.67916 0.48923 0.71222 0.0
H1569 H 0.64743 0.57572 0.69743 0.0
H1570 H 0.668 0.61463 0.7079 0.0
H1571 H 0.6322 0.58343 0.71885 0.0
H1572 H 0.66396 0.5921 0.75008 0.0
H1573 H 0.69964 0.62348 0.73927 0.0
H1574 H 0.70111 0.59071 0.74989 0.0
H1575 H 0.72993 0.53311 0.69801 0.0
H1576 H 0.77813 0.58309 0.68915 0.0
H1577 H 0.73251 0.63537 0.70925 0.0
C1578 C 0.63094 0.52532 0.73612 0.0
C1579 C 0.62001 0.49266 0.73797 0.0
C1580 C 0.63748 0.47978 0.72905 0.0
C1581 C 0.66553 0.49908 0.71866 0.0
C1582 C 0.67568 0.53118 0.71719 0.0
C1583 C 0.65889 0.54421 0.72564 0.0
C1584 C 0.6758 0.57965 0.72268 0.0
C1585 C 0.65458 0.58889 0.71102 0.0
C1586 C 0.68571 0.59752 0.7416 0.0
C1587 C 0.70512 0.58462 0.71163 0.0
C1588 C 0.70452 0.55635 0.70851 0.0
C1589 C 0.73028 0.55529 0.69997 0.0
C1590 C 0.75756 0.58389 0.6948 0.0
C1591 C 0.75867 0.61313 0.69784 0.0
C1592 C 0.73189 0.6133 0.7062 0.0
H1593 H 0.52249 0.16202 0.73861 0.0
H1594 H 0.48248 0.0605 0.73578 0.0
H1595 H 0.43533 0.05509 0.71794 0.0
H1596 H 0.44671 0.15998 0.74555 0.0
H1597 H 0.45696 0.19427 0.73135 0.0
H1598 H 0.48846 0.19047 0.74301 0.0
H1599 H 0.51694 0.19762 0.71115 0.0
H1600 H 0.48508 0.20016 0.69893 0.0
H1601 H 0.4957 0.17082 0.69205 0.0
H1602 H 0.39151 0.05975 0.70234 0.0
H1603 H 0.35171 0.07384 0.69043 0.0
H1604 H 0.4188 0.1728 0.70225 0.0
C1605 C 0.50384 0.13878 0.73403 0.0
C1606 C 0.50603 0.11157 0.73839 0.0
C1607 C 0.48116 0.0815 0.73245 0.0
C1608 C 0.45439 0.07826 0.72229 0.0
C1609 C 0.45278 0.10538 0.71817 0.0
C1610 C 0.47667 0.13509 0.72388 0.0
C1611 C 0.46794 0.16005 0.71817 0.0
C1612 C 0.46483 0.1772 0.73556 0.0
C1613 C 0.4929 0.18358 0.70424 0.0
C1614 C 0.43521 0.13958 0.70866 0.0
C1615 C 0.42725 0.10816 0.70877 0.0
C1616 C 0.39763 0.08429 0.70193 0.0
C1617 C 0.37518 0.09251 0.69518 0.0
C1618 C 0.38238 0.12436 0.69501 0.0
C1619 C 0.41304 0.14834 0.70166 0.0
H1620 H 0.89599 0.36789 0.76045 0.0
H1621 H 0.93523 0.43088 0.7126 0.0
H1622 H 0.92425 0.38553 0.69223 0.0
H1623 H 0.92794 0.31525 0.7464 0.0
H1624 H 0.8926 0.28047 0.75501 0.0
H1625 H 0.90579 0.31826 0.7661 0.0
H1626 H 0.84877 0.31144 0.76061 0.0
H1627 H 0.83557 0.2739 0.74926 0.0
H1628 H 0.83234 0.30458 0.73708 0.0
H1629 H 0.90462 0.33282 0.6765 0.0
H1630 H 0.88303 0.2768 0.66734 0.0
H1631 H 0.85763 0.2487 0.72546 0.0
C1632 C 0.90311 0.37228 0.74581 0.0
C1633 C 0.91627 0.40289 0.73808 0.0
C1634 C 0.9247 0.40754 0.71875 0.0
C1635 C 0.91866 0.38197 0.70708 0.0
C1636 C 0.90458 0.35195 0.71499 0.0
C1637 C 0.89747 0.34704 0.73398 0.0
C1638 C 0.88179 0.31229 0.73883 0.0
C1639 C 0.90332 0.30622 0.75239 0.0
C1640 C 0.84759 0.29984 0.74692 0.0
C1641 C 0.88051 0.29845 0.71955 0.0
C1642 C 0.89376 0.32167 0.70598 0.0
C1643 C 0.89441 0.31443 0.68703 0.0
C1644 C 0.88173 0.28259 0.6819 0.0
C1645 C 0.86871 0.25862 0.69569 0.0
C1646 C 0.8679 0.26671 0.71468 0.0
H1647 H 0.15585 0.93217 0.63854 0.0
H1648 H 0.17098 0.95773 0.57934 0.0
H1649 H 0.21259 0.01181 0.58806 0.0
H1650 H 0.16404 0.00738 0.65441 0.0
H1651 H 0.18381 0.0076 0.6761 0.0
H1652 H 0.15519 0.97057 0.66526 0.0
H1653 H 0.19869 0.95342 0.66506 0.0
H1654 H 0.22743 0.99045 0.67582 0.0
H1655 H 0.23717 0.97838 0.65392 0.0
H1656 H 0.2544 0.06232 0.60284 0.0
H1657 H 0.29133 0.1073 0.62303 0.0
H1658 H 0.24684 0.05084 0.6727 0.0
C1659 C 0.16746 0.94915 0.62736 0.0
C1660 C 0.1602 0.94024 0.60817 0.0
C1661 C 0.17652 0.96343 0.5941 0.0
C1662 C 0.20006 0.99442 0.59891 0.0
C1663 C 0.20676 0.00221 0.61788 0.0
C1664 C 0.19069 0.98042 0.63192 0.0
C1665 C 0.20236 0.9952 0.65125 0.0
C1666 C 0.1747 0.99519 0.66241 0.0
C1667 C 0.21731 0.97836 0.66215 0.0
C1668 C 0.22789 0.02852 0.64583 0.0
C1669 C 0.23005 0.03193 0.62649 0.0
C1670 C 0.25272 0.06004 0.61801 0.0
C1671 C 0.27371 0.08539 0.62958 0.0
C1672 C 0.27173 0.08265 0.64942 0.0
C1673 C 0.2484 0.05385 0.65762 0.0
H1674 H 0.06329 0.24902 0.62563 0.0
H1675 H 0.04475 0.1526 0.62651 0.0
H1676 H 0.99312 0.13573 0.64336 0.0
H1677 H 0.02963 0.24582 0.67305 0.0
H1678 H 0.01327 0.27078 0.66659 0.0
H1679 H 0.04927 0.27557 0.65519 0.0
H1680 H 0.02175 0.26775 0.62255 0.0
H1681 H 0.98591 0.26332 0.63383 0.0
H1682 H 0.98309 0.23282 0.61824 0.0
H1683 H 0.94156 0.12887 0.65794 0.0
H1684 H 0.89458 0.13266 0.66916 0.0
H1685 H 0.94774 0.23396 0.66086 0.0
C1686 C 0.04835 0.22441 0.62951 0.0
C1687 C 0.05781 0.20199 0.6248 0.0
C1688 C 0.03786 0.17004 0.6301 0.0
C1689 C 0.00858 0.16032 0.63967 0.0
C1690 C 0.99991 0.18298 0.6442 0.0
C1691 C 0.01934 0.21443 0.63944 0.0
C1692 C 1.00429 0.23395 0.64586 0.0
C1693 C 0.02538 0.25796 0.66107 0.0
C1694 C 0.99841 0.25042 0.62912 0.0
C1695 C 0.97267 0.20838 0.65414 0.0
C1696 C 0.9708 0.17919 0.65326 0.0
C1697 C 0.94312 0.15172 0.65904 0.0
C1698 C 0.91656 0.15409 0.66558 0.0
C1699 C 0.91785 0.18369 0.66655 0.0
C1700 C 0.94645 0.21115 0.66085 0.0
H1701 H 0.77579 0.80761 0.60275 0.0
H1702 H 0.74707 0.84197 0.65131 0.0
H1703 H 0.75915 0.80876 0.67209 0.0
H1704 H 0.7427 0.72569 0.62014 0.0
H1705 H 0.77562 0.72209 0.61033 0.0
H1706 H 0.76265 0.74701 0.59908 0.0
H1707 H 0.82136 0.79425 0.60122 0.0
H1708 H 0.83435 0.7696 0.61272 0.0
H1709 H 0.84125 0.80572 0.62383 0.0
H1710 H 0.77915 0.7761 0.68786 0.0
H1711 H 0.79998 0.74076 0.69727 0.0
H1712 H 0.81355 0.72598 0.63853 0.0
C1713 C 0.7713 0.80753 0.61769 0.0
C1714 C 0.76085 0.8276 0.62547 0.0
C1715 C 0.75563 0.82715 0.64512 0.0
C1716 C 0.76228 0.80831 0.65703 0.0
C1717 C 0.77367 0.78967 0.64902 0.0
C1718 C 0.77758 0.78861 0.62979 0.0
C1719 C 0.79083 0.76698 0.62492 0.0
C1720 C 0.76649 0.73877 0.61291 0.0
C1721 C 0.82391 0.78524 0.6151 0.0
C1722 C 0.79421 0.75657 0.64443 0.0
C1723 C 0.78435 0.77005 0.65814 0.0
C1724 C 0.7866 0.76507 0.67726 0.0
C1725 C 0.79879 0.7453 0.6825 0.0
C1726 C 0.80832 0.73075 0.66864 0.0
C1727 C 0.80602 0.73654 0.6494 0.0
H1728 H 0.05887 0.79483 0.61755 0.0
H1729 H 0.04613 0.87613 0.62603 0.0
H1730 H 0.99751 0.84341 0.64525 0.0
H1731 H 0.97572 0.73849 0.61187 0.0
H1732 H 0.97825 0.70729 0.62388 0.0
H1733 H 0.01323 0.73777 0.61203 0.0
H1734 H 0.04624 0.75025 0.64309 0.0
H1735 H 0.01112 0.72 0.65506 0.0
H1736 H 0.03152 0.75995 0.66401 0.0
H1737 H 0.94762 0.80055 0.66145 0.0
H1738 H 0.90028 0.75091 0.67241 0.0
H1739 H 0.94662 0.6983 0.65406 0.0
C1740 C 0.04591 0.80582 0.62347 0.0
C1741 C 0.05645 0.83815 0.62035 0.0
C1742 C 0.03886 0.85158 0.62847 0.0
C1743 C 0.01116 0.83315 0.63937 0.0
C1744 C 1.00144 0.80136 0.64214 0.0
C1745 C 0.01831 0.78782 0.63441 0.0
C1746 C 1.00206 0.75284 0.63875 0.0
C1747 C 0.9917 0.73294 0.62055 0.0
C1748 C 0.02406 0.74534 0.65096 0.0
C1749 C 0.97302 0.74865 0.64977 0.0
C1750 C 0.97315 0.77691 0.65172 0.0
C1751 C 0.94757 0.77839 0.66029 0.0
C1752 C 0.92089 0.75014 0.66659 0.0
C1753 C 0.92025 0.72095 0.66451 0.0
C1754 C 0.94688 0.72042 0.65623 0.0
H1755 H 0.15246 0.17014 0.62464 0.0
H1756 H 0.19755 0.2723 0.62338 0.0
H1757 H 0.24562 0.27709 0.63981 0.0
H1758 H 0.18378 0.16391 0.67013 0.0
H1759 H 0.19173 0.13272 0.6633 0.0
H1760 H 0.1595 0.136 0.65213 0.0
H1761 H 0.18387 0.13907 0.61935 0.0
H1762 H 0.21568 0.13462 0.63007 0.0
H1763 H 0.22569 0.16796 0.61503 0.0
H1764 H 0.2891 0.2715 0.65504 0.0
H1765 H 0.32843 0.25626 0.66612 0.0
H1766 H 0.2574 0.15731 0.65749 0.0
C1767 C 0.17245 0.19342 0.62801 0.0
C1768 C 0.17136 0.22096 0.62294 0.0
C1769 C 0.19801 0.25105 0.62725 0.0
C1770 C 0.22529 0.25395 0.63663 0.0
C1771 C 0.22575 0.22649 0.64149 0.0
C1772 C 0.2003 0.19676 0.63716 0.0
C1773 C 0.20821 0.17132 0.64302 0.0
C1774 C 0.18439 0.14969 0.65805 0.0
C1775 C 0.20838 0.15212 0.62584 0.0
C1776 C 0.24217 0.19146 0.65115 0.0
C1777 C 0.25144 0.2232 0.65025 0.0
C1778 C 0.28206 0.24675 0.65597 0.0
C1779 C 0.30423 0.23786 0.66227 0.0
C1780 C 0.29587 0.20568 0.66297 0.0
C1781 C 0.26417 0.18205 0.65759 0.0
H1782 H 0.74089 0.94274 0.61277 0.0
H1783 H 0.82921 0.94006 0.62375 0.0
H1784 H 0.8506 0.98916 0.64232 0.0
H1785 H 0.78147 0.03057 0.60873 0.0
H1786 H 0.74831 0.0322 0.61985 0.0
H1787 H 0.74071 0.99786 0.6063 0.0
H1788 H 0.71223 0.96251 0.63513 0.0
H1789 H 0.7204 0.99676 0.64892 0.0
H1790 H 0.73392 0.9703 0.65712 0.0
H1791 H 0.86002 0.03424 0.66234 0.0
H1792 H 0.86178 0.07953 0.67847 0.0
H1793 H 0.76911 0.05636 0.65362 0.0
C1794 C 0.76508 0.95307 0.61864 0.0
C1795 C 0.78332 0.9375 0.61701 0.0
C1796 C 0.81473 0.95146 0.62506 0.0
C1797 C 0.82706 0.97928 0.63564 0.0
C1798 C 0.80794 0.99322 0.63778 0.0
C1799 C 0.77802 0.98122 0.62915 0.0
C1800 C 0.76261 0.00114 0.63395 0.0
C1801 C 0.75801 0.01635 0.61614 0.0
C1802 C 0.73038 0.9815 0.6444 0.0
C1803 C 0.78838 0.02579 0.64682 0.0
C1804 C 0.81406 0.02039 0.64895 0.0
C1805 C 0.84026 0.03901 0.66063 0.0
C1806 C 0.84084 0.06455 0.66996 0.0
C1807 C 0.8156 0.07158 0.66743 0.0
C1808 C 0.78883 0.05165 0.65582 0.0
H1809 H 0.51883 0.39851 0.71946 0.0
H1810 H 0.51077 0.36941 0.77793 0.0
H1811 H 0.46963 0.31542 0.76894 0.0
H1812 H 0.43627 0.35049 0.70641 0.0
H1813 H 0.44453 0.34029 0.68347 0.0
H1814 H 0.47326 0.37717 0.69439 0.0
H1815 H 0.51837 0.36245 0.69099 0.0
H1816 H 0.48976 0.32567 0.67992 0.0
H1817 H 0.51196 0.32549 0.70043 0.0
H1818 H 0.42755 0.2652 0.75418 0.0
H1819 H 0.38997 0.22057 0.73397 0.0
H1820 H 0.42772 0.28014 0.6847 0.0
C1821 C 0.5088 0.38079 0.73039 0.0
C1822 C 0.51783 0.38873 0.74952 0.0
C1823 C 0.50371 0.36454 0.76328 0.0
C1824 C 0.48047 0.33356 0.7583 0.0
C1825 C 0.47191 0.32675 0.73943 0.0
C1826 C 0.48591 0.34948 0.72563 0.0
C1827 C 0.47273 0.33552 0.70631 0.0
C1828 C 0.45568 0.35184 0.69711 0.0
C1829 C 0.49982 0.33739 0.69367 0.0
C1830 C 0.4487 0.30154 0.71151 0.0
C1831 C 0.4486 0.29714 0.73073 0.0
C1832 C 0.42763 0.26825 0.7391 0.0
C1833 C 0.40625 0.24311 0.72753 0.0
C1834 C 0.4062 0.24686 0.7078 0.0
C1835 C 0.4278 0.27644 0.69968 0.0
H1836 H 0.63893 0.16631 0.73444 0.0
H1837 H 0.59506 0.0655 0.74381 0.0
H1838 H 0.64247 0.06592 0.72929 0.0
H1839 H 0.6785 0.16892 0.68958 0.0
H1840 H 0.71484 0.2057 0.69488 0.0
H1841 H 0.67653 0.19773 0.70459 0.0
H1842 H 0.7 0.20683 0.73832 0.0
H1843 H 0.73864 0.21557 0.72885 0.0
H1844 H 0.71913 0.18498 0.74625 0.0
H1845 H 0.6956 0.07754 0.71571 0.0
H1846 H 0.75232 0.10009 0.70512 0.0
H1847 H 0.76332 0.19377 0.70502 0.0
C1848 C 0.63919 0.14432 0.73304 0.0
C1849 C 0.61323 0.11572 0.73992 0.0
C1850 C 0.61462 0.0875 0.7384 0.0
C1851 C 0.64139 0.08754 0.73016 0.0
C1852 C 0.66676 0.11608 0.7236 0.0
C1853 C 0.66605 0.14402 0.72503 0.0
C1854 C 0.69758 0.17173 0.71804 0.0
C1855 C 0.69151 0.18692 0.70074 0.0
C1856 C 0.71485 0.19621 0.73381 0.0
C1857 C 0.71624 0.15506 0.71278 0.0
C1858 C 0.69777 0.12288 0.71589 0.0
C1859 C 0.71011 0.10261 0.71294 0.0
C1860 C 0.74225 0.11556 0.70686 0.0
C1861 C 0.76168 0.14843 0.70369 0.0
C1862 C 0.74853 0.16842 0.70677 0.0
H1863 H 0.92875 0.53671 0.75307 0.0
H1864 H 0.84971 0.44722 0.73279 0.0
H1865 H 0.82817 0.47551 0.71459 0.0
H1866 H 0.87912 0.57617 0.75713 0.0
H1867 H 0.91195 0.61393 0.74977 0.0
H1868 H 0.92043 0.58674 0.76226 0.0
H1869 H 0.95796 0.58943 0.73508 0.0
H1870 H 0.94917 0.61619 0.72238 0.0
H1871 H 0.94205 0.57987 0.71144 0.0
H1872 H 0.81808 0.51253 0.69623 0.0
H1873 H 0.81518 0.55695 0.68198 0.0
H1874 H 0.89873 0.62309 0.71512 0.0
C1875 C 0.90655 0.52315 0.74512 0.0
C1876 C 0.89123 0.48981 0.74402 0.0
C1877 C 0.86224 0.47282 0.73345 0.0
C1878 C 0.84973 0.48863 0.72312 0.0
C1879 C 0.86611 0.52145 0.72379 0.0
C1880 C 0.89341 0.53863 0.73482 0.0
C1881 C 0.9062 0.57386 0.7328 0.0
C1882 C 0.9043 0.58853 0.75161 0.0
C1883 C 0.9409 0.59082 0.72496 0.0
C1884 C 0.88225 0.57356 0.7186 0.0
C1885 C 0.85946 0.54306 0.71357 0.0
C1886 C 0.8355 0.53658 0.70021 0.0
C1887 C 0.83424 0.56201 0.69208 0.0
C1888 C 0.85669 0.59352 0.69745 0.0
C1889 C 0.88115 0.59928 0.71078 0.0
H1890 H 0.51639 0.95146 0.23334 0.0
H1891 H 0.41221 0.89274 0.22671 0.0
H1892 H 0.4168 0.90833 0.19339 0.0
H1893 H 0.52556 0.01462 0.20414 0.0
H1894 H 0.56359 0.02226 0.19419 0.0
H1895 H 0.55232 0.0057 0.21742 0.0
H1896 H 0.55947 0.95848 0.20718 0.0
H1897 H 0.57071 0.97489 0.18389 0.0
H1898 H 0.53758 0.93513 0.18695 0.0
H1899 H 0.4324 0.93177 0.16094 0.0
H1900 H 0.45786 0.96224 0.13216 0.0
H1901 H 0.55212 0.00385 0.15942 0.0
C1902 C 0.4946 0.94157 0.22483 0.0
C1903 C 0.46391 0.92099 0.23274 0.0
C1904 C 0.43595 0.90893 0.22111 0.0
C1905 C 0.43831 0.91745 0.20209 0.0
C1906 C 0.46884 0.93796 0.19479 0.0
C1907 C 0.4965 0.94985 0.20578 0.0
C1908 C 0.52626 0.97216 0.19456 0.0
C1909 C 0.5429 0.00567 0.20309 0.0
C1910 C 0.5499 0.95939 0.19306 0.0
C1911 C 0.51096 0.97119 0.17566 0.0
C1912 C 0.47783 0.95123 0.17605 0.0
C1913 C 0.45839 0.94728 0.16042 0.0
C1914 C 0.47314 0.96457 0.14406 0.0
C1915 C 0.50709 0.9856 0.1434 0.0
C1916 C 0.5261 0.98838 0.15942 0.0
H1917 H 0.04294 0.54424 0.22921 0.0
H1918 H 0.11362 0.51372 0.22096 0.0
H1919 H 0.09356 0.4972 0.18854 0.0
H1920 H 0.97847 0.48337 0.20193 0.0
H1921 H 0.96561 0.50946 0.19224 0.0
H1922 H 0.98463 0.51762 0.21509 0.0
H1923 H 0.0279 0.57353 0.20388 0.0
H1924 H 0.00906 0.5655 0.18099 0.0
H1925 H 0.05137 0.57742 0.18315 0.0
H1926 H 0.06611 0.48451 0.15689 0.0
H1927 H 0.03302 0.47629 0.12843 0.0
H1928 H 0.9831 0.5186 0.15688 0.0
C1929 C 0.05439 0.53426 0.22059 0.0
C1930 C 0.07979 0.53016 0.22773 0.0
C1931 C 0.09373 0.51657 0.21599 0.0
C1932 C 0.0827 0.50735 0.19748 0.0
C1933 C 0.05788 0.51208 0.19089 0.0
C1934 C 0.04395 0.52526 0.20207 0.0
C1935 C 0.01809 0.52838 0.19149 0.0
C1936 C 0.98473 0.50852 0.20074 0.0
C1937 C 0.02716 0.56328 0.18978 0.0
C1938 C 0.01952 0.51473 0.17263 0.0
C1939 C 0.04259 0.50543 0.17256 0.0
C1940 C 0.04805 0.49182 0.15675 0.0
C1941 C 0.02926 0.48744 0.14062 0.0
C1942 C 0.00541 0.4968 0.1404 0.0
C1943 C 1.00075 0.51076 0.15665 0.0
H1944 H 0.4532 0.49479 0.23098 0.0
H1945 H 0.46823 0.58913 0.22195 0.0
H1946 H 0.48177 0.58667 0.18873 0.0
H1947 H 0.51843 0.50376 0.20288 0.0
H1948 H 0.49775 0.4641 0.19348 0.0
H1949 H 0.48684 0.47205 0.21626 0.0
H1950 H 0.4271 0.44772 0.20531 0.0
H1951 H 0.43787 0.43965 0.18248 0.0
H1952 H 0.4179 0.46268 0.18441 0.0
H1953 H 0.49664 0.57551 0.15722 0.0
H1954 H 0.51262 0.55644 0.12931 0.0
H1955 H 0.48692 0.46878 0.15834 0.0
C1956 C 0.45886 0.51467 0.2219 0.0
C1957 C 0.45986 0.54222 0.22901 0.0
C1958 C 0.46775 0.56797 0.21681 0.0
C1959 C 0.47525 0.56672 0.19791 0.0
C1960 C 0.4746 0.53948 0.19139 0.0
C1961 C 0.46654 0.51386 0.20295 0.0
C1962 C 0.46922 0.48809 0.19256 0.0
C1963 C 0.49457 0.48164 0.20185 0.0
C1964 C 0.43605 0.45774 0.1911 0.0
C1965 C 0.48056 0.50351 0.17351 0.0
C1966 C 0.48323 0.53302 0.1731 0.0
C1967 C 0.49431 0.55228 0.15727 0.0
C1968 C 0.50319 0.54116 0.14145 0.0
C1969 C 0.50098 0.51107 0.1416 0.0
C1970 C 0.48917 0.49198 0.15783 0.0
H1971 H 0.97168 0.51202 0.79791 0.0
H1972 H 0.90616 0.41154 0.80549 0.0
H1973 H 0.92344 0.41608 0.8387 0.0
H1974 H 0.03593 0.51606 0.82539 0.0
H1975 H 0.04817 0.55445 0.83534 0.0
H1976 H 0.029 0.54401 0.81255 0.0
H1977 H 0.98502 0.55657 0.82416 0.0
H1978 H 1.0041 0.56708 0.847 0.0
H1979 H 0.96196 0.5373 0.84493 0.0
H1980 H 0.94906 0.43084 0.87045 0.0
H1981 H 0.98295 0.45471 0.8987 0.0
H1982 H 0.03241 0.54561 0.87058 0.0
C1983 C 0.96069 0.49114 0.80669 0.0
C1984 C 0.93759 0.46143 0.79925 0.0
C1985 C 0.92405 0.43445 0.81098 0.0
C1986 C 0.93356 0.43683 0.82984 0.0
C1987 C 0.95669 0.46635 0.83671 0.0
C1988 C 0.97017 0.49305 0.82553 0.0
C1989 C 0.99584 0.52155 0.83618 0.0
C1990 C 0.0292 0.53478 0.8268 0.0
C1991 C 0.98613 0.54713 0.83819 0.0
C1992 C 0.99492 0.50656 0.85497 0.0
C1993 C 0.97194 0.47479 0.85502 0.0
C1994 C 0.96702 0.45575 0.87064 0.0
C1995 C 0.9863 0.46953 0.88662 0.0
C1996 C 0.01034 0.50198 0.88679 0.0
C1997 C 0.01446 0.52068 0.87077 0.0
H1998 H 0.50693 0.456 0.79712 0.0
H1999 H 0.61057 0.49573 0.80487 0.0
H2000 H 0.60596 0.51093 0.83741 0.0
H2001 H 0.49881 0.51386 0.82449 0.0
H2002 H 0.4602 0.4853 0.83416 0.0
H2003 H 0.47206 0.4787 0.81129 0.0
H2004 H 0.46322 0.42435 0.82244 0.0
H2005 H 0.45156 0.43091 0.84538 0.0
H2006 H 0.48422 0.42248 0.84311 0.0
H2007 H 0.58961 0.52054 0.86951 0.0
H2008 H 0.56313 0.52606 0.89802 0.0
H2009 H 0.47006 0.47792 0.86939 0.0
C2010 C 0.52868 0.46781 0.80565 0.0
C2011 C 0.55912 0.47469 0.7984 0.0
C2012 C 0.58704 0.49061 0.80999 0.0
C2013 C 0.58464 0.4991 0.82856 0.0
C2014 C 0.55416 0.49147 0.83532 0.0
C2015 C 0.52671 0.47631 0.82419 0.0
C2016 C 0.49678 0.47057 0.83484 0.0
C2017 C 0.48105 0.48816 0.82565 0.0
C2018 C 0.47252 0.43496 0.83654 0.0
C2019 C 0.51167 0.48494 0.8537 0.0
C2020 C 0.54477 0.49681 0.85375 0.0
C2021 C 0.5637 0.51132 0.86963 0.0
C2022 C 0.5484 0.51417 0.88578 0.0
C2023 C 0.51453 0.50257 0.88591 0.0
C2024 C 0.49605 0.48749 0.86966 0.0
H2025 H 0.49812 0.05872 0.79706 0.0
H2026 H 0.59965 0.12707 0.8066 0.0
H2027 H 0.59422 0.11056 0.83981 0.0
H2028 H 0.46929 0.06878 0.84286 0.0
H2029 H 0.43962 0.02741 0.84494 0.0
H2030 H 0.45113 0.04531 0.82202 0.0
H2031 H 0.46639 0.00327 0.81196 0.0
H2032 H 0.45494 0.98527 0.83482 0.0
H2033 H 0.49503 0.99807 0.82594 0.0
H2034 H 0.57833 0.0848 0.8718 0.0
H2035 H 0.55332 0.05164 0.89975 0.0
H2036 H 0.46145 0.00205 0.86988 0.0
C2037 C 0.51908 0.07066 0.8062 0.0
C2038 C 0.54934 0.09427 0.79913 0.0
C2039 C 0.57629 0.10872 0.81156 0.0
C2040 C 0.57341 0.09963 0.83051 0.0
C2041 C 0.54336 0.07612 0.83696 0.0
C2042 C 0.51663 0.0619 0.8252 0.0
C2043 C 0.48733 0.03662 0.83554 0.0
C2044 C 0.46024 0.04504 0.83639 0.0
C2045 C 0.47522 0.00388 0.82652 0.0
C2046 C 0.50184 0.0386 0.85486 0.0
C2047 C 0.53416 0.06158 0.85542 0.0
C2048 C 0.55292 0.06695 0.87157 0.0
C2049 C 0.53837 0.04807 0.88747 0.0
C2050 C 0.50527 0.02403 0.88719 0.0
C2051 C 0.48686 0.0198 0.87063 0.0
H2052 H 0.17407 0.2784 0.56708 0.0
H2053 H 0.07325 0.20747 0.55789 0.0
H2054 H 0.0779 0.22368 0.52464 0.0
H2055 H 0.17516 0.33784 0.53733 0.0
H2056 H 0.21551 0.35121 0.5287 0.0
H2057 H 0.20418 0.33395 0.55176 0.0
H2058 H 0.22099 0.29263 0.54265 0.0
H2059 H 0.23227 0.30972 0.51953 0.0
H2060 H 0.20337 0.26822 0.52206 0.0
H2061 H 0.09367 0.24845 0.49202 0.0
H2062 H 0.11866 0.28075 0.46368 0.0
H2063 H 0.20981 0.33305 0.49394 0.0
C2064 C 0.15299 0.26597 0.55809 0.0
C2065 C 0.12323 0.24161 0.56529 0.0
C2066 C 0.0962 0.22651 0.55293 0.0
C2067 C 0.09867 0.23537 0.53392 0.0
C2068 C 0.12838 0.25933 0.52731 0.0
C2069 C 0.15505 0.27442 0.53906 0.0
C2070 C 0.18411 0.2997 0.52856 0.0
C2071 C 0.19539 0.33262 0.5371 0.0
C2072 C 0.21182 0.2921 0.52818 0.0
C2073 C 0.16961 0.29665 0.50914 0.0
C2074 C 0.13747 0.27322 0.50863 0.0
C2075 C 0.11891 0.26676 0.49227 0.0
C2076 C 0.13343 0.28512 0.47614 0.0
C2077 C 0.16628 0.30973 0.47643 0.0
C2078 C 0.18454 0.31491 0.49317 0.0
H2079 H 0.75536 0.89813 0.55171 0.0
H2080 H 0.68327 0.81019 0.57731 0.0
H2081 H 0.65423 0.79307 0.54706 0.0
H2082 H 0.69959 0.9092 0.52339 0.0
H2083 H 0.72668 0.92538 0.50365 0.0
H2084 H 0.74282 0.93008 0.52712 0.0
H2085 H 0.77636 0.90419 0.51655 0.0
H2086 H 0.76004 0.89913 0.49308 0.0
H2087 H 0.75605 0.86547 0.50583 0.0
H2088 H 0.63135 0.78633 0.515 0.0
H2089 H 0.61511 0.79109 0.48264 0.0
H2090 H 0.70164 0.88289 0.47726 0.0
C2091 C 0.73341 0.87533 0.55096 0.0
C2092 C 0.72176 0.85539 0.56686 0.0
C2093 C 0.69303 0.82563 0.56525 0.0
C2094 C 0.67628 0.81572 0.54814 0.0
C2095 C 0.6885 0.8358 0.53275 0.0
C2096 C 0.71632 0.86502 0.53394 0.0
C2097 C 0.72352 0.8824 0.51535 0.0
C2098 C 0.72311 0.9136 0.51751 0.0
C2099 C 0.75592 0.88812 0.50722 0.0
C2100 C 0.69509 0.85851 0.50365 0.0
C2101 C 0.67533 0.83176 0.514 0.0
C2102 C 0.64672 0.80699 0.50667 0.0
C2103 C 0.63767 0.80987 0.48837 0.0
C2104 C 0.65727 0.83719 0.47764 0.0
C2105 C 0.6866 0.86158 0.48521 0.0
H2106 H 0.14264 0.89218 0.54647 0.0
H2107 H 0.10423 0.8017 0.57478 0.0
H2108 H 0.11257 0.77844 0.54601 0.0
H2109 H 0.11005 0.86122 0.49989 0.0
H2110 H 0.14561 0.89058 0.48779 0.0
H2111 H 0.13464 0.89986 0.51021 0.0
H2112 H 0.19137 0.91552 0.52354 0.0
H2113 H 0.20257 0.9065 0.50115 0.0
H2114 H 0.20574 0.88766 0.5222 0.0
H2115 H 0.12719 0.76534 0.51515 0.0
H2116 H 0.1491 0.7635 0.48404 0.0
H2117 H 0.17955 0.8625 0.47545 0.0
C2118 C 0.13603 0.86748 0.54666 0.0
C2119 C 0.1225 0.84875 0.56294 0.0
C2120 C 0.11399 0.81645 0.56245 0.0
C2121 C 0.11877 0.80302 0.54618 0.0
C2122 C 0.13215 0.82213 0.53046 0.0
C2123 C 0.14077 0.85368 0.53053 0.0
C2124 C 0.15601 0.86923 0.51194 0.0
C2125 C 0.13534 0.8809 0.50186 0.0
C2126 C 0.191 0.89632 0.51489 0.0
C2127 C 0.15509 0.84153 0.50155 0.0
C2128 C 0.14094 0.81459 0.51251 0.0
C2129 C 0.13823 0.78623 0.5064 0.0
C2130 C 0.15086 0.78545 0.48877 0.0
C2131 C 0.16613 0.81284 0.47742 0.0
C2132 C 0.16771 0.84112 0.48377 0.0
H2133 H 0.5781 0.76169 0.14945 0.0
H2134 H 0.63751 0.8544 0.12467 0.0
H2135 H 0.66865 0.87333 0.15424 0.0
H2136 H 0.57567 0.78925 0.19659 0.0
H2137 H 0.57809 0.75754 0.20804 0.0
H2138 H 0.55956 0.75131 0.18512 0.0
H2139 H 0.59893 0.73375 0.17203 0.0
H2140 H 0.61736 0.73965 0.19494 0.0
H2141 H 0.642 0.75954 0.17477 0.0
H2142 H 0.69519 0.88159 0.18549 0.0
H2143 H 0.71575 0.87856 0.21697 0.0
H2144 H 0.63885 0.78115 0.2221 0.0
C2145 C 0.59775 0.78593 0.15023 0.0
C2146 C 0.60534 0.80661 0.13475 0.0
C2147 C 0.63101 0.83826 0.13641 0.0
C2148 C 0.64889 0.84921 0.15312 0.0
C2149 C 0.64075 0.82828 0.1681 0.0
C2150 C 0.61581 0.79732 0.16686 0.0
C2151 C 0.61256 0.7796 0.18498 0.0
C2152 C 0.5795 0.7688 0.19423 0.0
C2153 C 0.61805 0.75148 0.18146 0.0
C2154 C 0.63993 0.80536 0.19645 0.0
C2155 C 0.65578 0.83325 0.18641 0.0
C2156 C 0.68283 0.86002 0.19358 0.0
C2157 C 0.69434 0.85811 0.21139 0.0
C2158 C 0.67867 0.82976 0.22181 0.0
C2159 C 0.65086 0.8032 0.21441 0.0
H2160 H 0.22828 0.84707 0.13156 0.0
H2161 H 0.22459 0.75863 0.14522 0.0
H2162 H 0.21109 0.76349 0.17803 0.0
H2163 H 0.26382 0.88672 0.17705 0.0
H2164 H 0.24041 0.90651 0.17776 0.0
H2165 H 0.25183 0.89738 0.15544 0.0
H2166 H 0.19149 0.8671 0.14522 0.0
H2167 H 0.1799 0.87596 0.16753 0.0
H2168 H 0.16231 0.83549 0.15975 0.0
H2169 H 0.19324 0.77502 0.20847 0.0
H2170 H 0.17484 0.79398 0.23518 0.0
H2171 H 0.19381 0.87726 0.20305 0.0
C2172 C 0.22526 0.82909 0.14155 0.0
C2173 C 0.22721 0.80229 0.13573 0.0
C2174 C 0.22271 0.77909 0.14924 0.0
C2175 C 0.2152 0.78171 0.16796 0.0
C2176 C 0.21263 0.80789 0.17313 0.0
C2177 C 0.21785 0.8314 0.16044 0.0
C2178 C 0.21253 0.85655 0.1697 0.0
C2179 C 0.24403 0.88869 0.17 0.0
C2180 C 0.18492 0.8589 0.15996 0.0
C2181 C 0.20294 0.84311 0.18939 0.0
C2182 C 0.2032 0.81506 0.19103 0.0
C2183 C 0.19356 0.79732 0.20749 0.0
C2184 C 0.18335 0.80852 0.2227 0.0
C2185 C 0.18309 0.83747 0.22152 0.0
C2186 C 0.19336 0.85497 0.20456 0.0
H2187 H 0.16759 0.39011 0.12872 0.0
H2188 H 0.26944 0.45865 0.13721 0.0
H2189 H 0.26507 0.44234 0.17038 0.0
H2190 H 0.14075 0.40223 0.17422 0.0
H2191 H 0.11062 0.36113 0.17689 0.0
H2192 H 0.12177 0.37805 0.15373 0.0
H2193 H 0.13586 0.33498 0.14417 0.0
H2194 H 0.1247 0.3179 0.16728 0.0
H2195 H 0.16443 0.32971 0.15817 0.0
H2196 H 0.24969 0.41749 0.20283 0.0
H2197 H 0.22476 0.38561 0.23129 0.0
H2198 H 0.13225 0.33631 0.20206 0.0
C2199 C 0.18895 0.40206 0.13755 0.0
C2200 C 0.21893 0.42566 0.13015 0.0
C2201 C 0.2463 0.44012 0.1423 0.0
C2202 C 0.24402 0.43122 0.16127 0.0
C2203 C 0.21412 0.40796 0.16806 0.0
C2204 C 0.18705 0.39365 0.15657 0.0
C2205 C 0.15781 0.36913 0.16728 0.0
C2206 C 0.13117 0.37819 0.16808 0.0
C2207 C 0.14495 0.33597 0.15871 0.0
C2208 C 0.17271 0.37165 0.18653 0.0
C2209 C 0.20519 0.39418 0.18674 0.0
C2210 C 0.22418 0.39994 0.20284 0.0
C2211 C 0.20969 0.38182 0.21903 0.0
C2212 C 0.17644 0.3582 0.21907 0.0
C2213 C 0.15781 0.35369 0.20257 0.0
H2214 H 0.83368 0.57549 0.89216 0.0
H2215 H 0.76414 0.6065 0.90389 0.0
H2216 H 0.76992 0.62594 0.87149 0.0
H2217 H 0.88703 0.64505 0.86582 0.0
H2218 H 0.89887 0.62396 0.84977 0.0
H2219 H 0.88696 0.60978 0.87342 0.0
H2220 H 0.84346 0.55531 0.86021 0.0
H2221 H 0.85497 0.56947 0.83651 0.0
H2222 H 0.81348 0.5533 0.84386 0.0
H2223 H 0.78356 0.64266 0.83745 0.0
H2224 H 0.8089 0.66073 0.80614 0.0
H2225 H 0.87292 0.62345 0.8178 0.0
C2226 C 0.81977 0.58659 0.88816 0.0
C2227 C 0.79793 0.58869 0.90086 0.0
C2228 C 0.7802 0.60332 0.89454 0.0
C2229 C 0.7835 0.61479 0.87609 0.0
C2230 C 0.80509 0.61214 0.86406 0.0
C2231 C 0.82333 0.59889 0.86996 0.0
C2232 C 0.84656 0.60092 0.85473 0.0
C2233 C 0.88194 0.62113 0.86133 0.0
C2234 C 0.83916 0.56778 0.84846 0.0
C2235 C 0.8385 0.61737 0.83935 0.0
C2236 C 0.81417 0.62323 0.84488 0.0
C2237 C 0.80271 0.63827 0.833 0.0
C2238 C 0.81709 0.64829 0.81522 0.0
C2239 C 0.84297 0.64366 0.80961 0.0
C2240 C 0.85335 0.62754 0.82178 0.0
H2241 H 0.37075 0.15888 0.89578 0.0
H2242 H 0.45686 0.24779 0.88233 0.0
H2243 H 0.44033 0.24106 0.84899 0.0
H2244 H 0.36875 0.11761 0.85136 0.0
H2245 H 0.32515 0.09723 0.8499 0.0
H2246 H 0.34491 0.10745 0.87256 0.0
H2247 H 0.31429 0.13732 0.88102 0.0
H2248 H 0.29463 0.12738 0.85836 0.0
H2249 H 0.31756 0.16817 0.86568 0.0
H2250 H 0.41254 0.22776 0.8181 0.0
H2251 H 0.37601 0.20729 0.79077 0.0
H2252 H 0.30871 0.12536 0.82335 0.0
C2253 C 0.38641 0.1765 0.88571 0.0
C2254 C 0.41499 0.20394 0.8916 0.0
C2255 C 0.43468 0.22678 0.8781 0.0
C2256 C 0.4256 0.22311 0.85914 0.0
C2257 C 0.39689 0.1963 0.85384 0.0
C2258 C 0.37768 0.17319 0.86662 0.0
C2259 C 0.34727 0.14742 0.85722 0.0
C2260 C 0.34649 0.11554 0.8578 0.0
C2261 C 0.31664 0.14495 0.8661 0.0
C2262 C 0.35215 0.16013 0.83733 0.0
C2263 C 0.38101 0.18826 0.83572 0.0
C2264 C 0.39014 0.20541 0.81905 0.0
C2265 C 0.36923 0.19345 0.80356 0.0
C2266 C 0.33952 0.16446 0.80476 0.0
C2267 C 0.33109 0.14762 0.82193 0.0
H2268 H 0.7463 0.16759 0.88749 0.0
H2269 H 0.84805 0.21577 0.90332 0.0
H2270 H 0.86182 0.20312 0.87234 0.0
H2271 H 0.74788 0.10327 0.86228 0.0
H2272 H 0.71959 0.1007 0.84452 0.0
H2273 H 0.71776 0.11413 0.86788 0.0
H2274 H 0.72291 0.16539 0.85381 0.0
H2275 H 0.72537 0.15237 0.83042 0.0
H2276 H 0.75701 0.19003 0.83902 0.0
H2277 H 0.86512 0.18687 0.83913 0.0
H2278 H 0.85654 0.16169 0.80772 0.0
H2279 H 0.75278 0.12172 0.81396 0.0
C2280 C 0.77143 0.17513 0.88458 0.0
C2281 C 0.79612 0.19325 0.89786 0.0
C2282 C 0.82871 0.20266 0.8933 0.0
C2283 C 0.83683 0.19548 0.87572 0.0
C2284 C 0.81209 0.17844 0.8628 0.0
C2285 C 0.77999 0.16785 0.86711 0.0
C2286 C 0.75803 0.14904 0.85085 0.0
C2287 C 0.73443 0.11475 0.85674 0.0
C2288 C 0.73976 0.16518 0.84307 0.0
C2289 C 0.78281 0.15059 0.83685 0.0
C2290 C 0.81391 0.16807 0.8439 0.0
C2291 C 0.84085 0.17296 0.83349 0.0
C2292 C 0.8358 0.15878 0.81562 0.0
C2293 C 0.80404 0.1396 0.80848 0.0
C2294 C 0.77733 0.13604 0.81915 0.0
H2295 H 0.2601 0.10983 0.48266 0.0
H2296 H 0.31957 0.19746 0.45254 0.0
H2297 H 0.35165 0.22124 0.48132 0.0
H2298 H 0.26035 0.14565 0.52779 0.0
H2299 H 0.26287 0.11573 0.54133 0.0
H2300 H 0.24314 0.10596 0.51866 0.0
H2301 H 0.28115 0.08548 0.50743 0.0
H2302 H 0.30081 0.09499 0.53009 0.0
H2303 H 0.32443 0.11111 0.50903 0.0
H2304 H 0.37911 0.23473 0.51237 0.0
H2305 H 0.40111 0.23701 0.54418 0.0
H2306 H 0.32451 0.14081 0.55453 0.0
C2307 C 0.27989 0.13402 0.48212 0.0
C2308 C 0.28716 0.15186 0.46536 0.0
C2309 C 0.31313 0.1835 0.46528 0.0
C2310 C 0.33159 0.19719 0.48153 0.0
C2311 C 0.32379 0.17897 0.49777 0.0
C2312 C 0.29861 0.14809 0.49824 0.0
C2313 C 0.29613 0.13344 0.51741 0.0
C2314 C 0.2637 0.12469 0.52685 0.0
C2315 C 0.30093 0.10455 0.51589 0.0
C2316 C 0.32432 0.16079 0.52749 0.0
C2317 C 0.33975 0.18685 0.51589 0.0
C2318 C 0.36719 0.21458 0.52164 0.0
C2319 C 0.37958 0.21561 0.53966 0.0
C2320 C 0.36455 0.1891 0.55169 0.0
C2321 C 0.33623 0.16151 0.54563 0.0
H2322 H 0.83926 0.12046 0.46476 0.0
H2323 H 0.93939 0.1463 0.47532 0.0
H2324 H 0.93332 0.15652 0.50865 0.0
H2325 H 0.83725 0.17763 0.49509 0.0
H2326 H 0.79652 0.15168 0.50313 0.0
H2327 H 0.80865 0.14609 0.4801 0.0
H2328 H 0.79113 0.08801 0.48845 0.0
H2329 H 0.77898 0.09344 0.51153 0.0
H2330 H 0.80779 0.0799 0.5091 0.0
H2331 H 0.91667 0.16491 0.54077 0.0
H2332 H 0.89071 0.17157 0.56914 0.0
H2333 H 0.8009 0.13789 0.53788 0.0
C2334 C 0.85981 0.12786 0.47411 0.0
C2335 C 0.88983 0.13266 0.46735 0.0
C2336 C 0.91626 0.1429 0.48005 0.0
C2337 C 0.91301 0.14855 0.49906 0.0
C2338 C 0.88311 0.14364 0.50522 0.0
C2339 C 0.85696 0.13347 0.49314 0.0
C2340 C 0.82759 0.13037 0.50329 0.0
C2341 C 0.81689 0.15278 0.4949 0.0
C2342 C 0.79973 0.09588 0.50308 0.0
C2343 C 0.84143 0.14071 0.5229 0.0
C2344 C 0.87345 0.14816 0.52375 0.0
C2345 C 0.89152 0.15894 0.54031 0.0
C2346 C 0.8765 0.16247 0.55638 0.0
C2347 C 0.84375 0.1553 0.55576 0.0
C2348 C 0.82606 0.14396 0.53878 0.0
H2349 H 0.83382 0.72219 0.46348 0.0
H2350 H 0.93645 0.78843 0.47118 0.0
H2351 H 0.93242 0.77187 0.50435 0.0
H2352 H 0.80855 0.73419 0.5096 0.0
H2353 H 0.7779 0.69322 0.5121 0.0
H2354 H 0.78876 0.71061 0.48903 0.0
H2355 H 0.80149 0.667 0.47856 0.0
H2356 H 0.7906 0.64945 0.50157 0.0
H2357 H 0.82994 0.66074 0.49202 0.0
H2358 H 0.91725 0.74688 0.53673 0.0
H2359 H 0.89252 0.71452 0.56507 0.0
H2360 H 0.79939 0.66683 0.53646 0.0
C2361 C 0.8554 0.73364 0.47217 0.0
C2362 C 0.88548 0.75674 0.46463 0.0
C2363 C 0.9132 0.77047 0.4765 0.0
C2364 C 0.91111 0.76138 0.49543 0.0
C2365 C 0.88109 0.7386 0.50237 0.0
C2366 C 0.85373 0.72494 0.4911 0.0
C2367 C 0.8245 0.70053 0.50187 0.0
C2368 C 0.79839 0.71023 0.50323 0.0
C2369 C 0.81084 0.66748 0.49297 0.0
C2370 C 0.83974 0.70232 0.52089 0.0
C2371 C 0.87237 0.72449 0.52096 0.0
C2372 C 0.89165 0.7296 0.53685 0.0
C2373 C 0.8773 0.71122 0.55296 0.0
C2374 C 0.84395 0.68793 0.55309 0.0
C2375 C 0.82502 0.68401 0.53684 0.0
loop_
_geom_bond_atom_site_label_1
_geom_bond_atom_site_label_2
_geom_bond_distance
_geom_bond_site_symmetry_2
_ccdc_geom_bond_type
H0 C3 0.931 . S
H1 C6 0.928 . S
H2 C8 0.930 . S
C3 H0 0.931 . S
C3 C4 1.413 . S
C3 C5 1.360 . S
C4 C3 1.413 . S
C4 C8 1.429 . S
C5 C3 1.360 . S
C5 C6 1.372 . S
C6 H1 0.928 . S
C6 C5 1.372 . S
C6 C7 1.404 . S
C7 C6 1.404 . S
C7 C8 1.391 . S
C8 H2 0.930 . S
C8 C4 1.429 . S
C8 C7 1.391 . S
H9 C12 0.931 . S
H10 C15 0.928 . S
H11 C17 0.930 . S
C12 H9 0.931 . S
C12 C13 1.413 . S
C12 C14 1.360 . S
C13 C12 1.413 . S
C13 C17 1.429 . S
C14 C12 1.360 . S
C14 C15 1.372 . S
C15 H10 0.928 . S
C15 C14 1.372 . S
C15 C16 1.404 . S
C16 C15 1.404 . S
C16 C17 1.391 . S
C17 H11 0.930 . S
C17 C13 1.429 . S
C17 C16 1.391 . S
H18 C21 0.931 . S
H19 C24 0.928 . S
H20 C26 0.930 . S
C21 H18 0.931 . S
C21 C22 1.413 . S
C21 C23 1.360 . S
C22 C21 1.413 . S
C22 C26 1.429 . S
C23 C21 1.360 . S
C23 C24 1.372 . S
C24 H19 0.928 . S
C24 C23 1.372 . S
C24 C25 1.404 . S
C25 C24 1.404 . S
C25 C26 1.391 . S
C26 H20 0.930 . S
C26 C22 1.429 . S
C26 C25 1.391 . S
H27 C30 0.931 . S
H28 C33 0.928 . S
H29 C35 0.930 . S
C30 H27 0.931 . S
C30 C31 1.413 . S
C30 C32 1.360 . S
C31 C30 1.413 . S
C31 C35 1.429 . S
C32 C30 1.360 . S
C32 C33 1.372 . S
C33 H28 0.928 . S
C33 C32 1.372 . S
C33 C34 1.404 . S
C34 C33 1.404 . S
C34 C35 1.391 . S
C35 H29 0.930 . S
C35 C31 1.429 . S
C35 C34 1.391 . S
H36 C39 0.931 . S
H37 C42 0.928 . S
H38 C44 0.930 . S
C39 H36 0.931 . S
C39 C40 1.413 . S
C39 C41 1.360 . S
C40 C39 1.413 . S
C40 C44 1.429 . S
C41 C39 1.360 . S
C41 C42 1.372 . S
C42 H37 0.928 . S
C42 C41 1.372 . S
C42 C43 1.404 . S
C43 C42 1.404 . S
C43 C44 1.391 . S
C44 H38 0.930 . S
C44 C40 1.429 . S
C44 C43 1.391 . S
H45 C48 0.931 . S
H46 C51 0.928 . S
H47 C53 0.930 . S
C48 H45 0.931 . S
C48 C49 1.413 . S
C48 C50 1.360 . S
C49 C48 1.413 . S
C49 C53 1.429 . S
C50 C48 1.360 . S
C50 C51 1.372 . S
C51 H46 0.928 . S
C51 C50 1.372 . S
C51 C52 1.404 . S
C52 C51 1.404 . S
C52 C53 1.391 . S
C53 H47 0.930 . S
C53 C49 1.429 . S
C53 C52 1.391 . S
H54 C57 0.931 . S
H55 C60 0.928 . S
H56 C62 0.930 . S
C57 H54 0.931 . S
C57 C58 1.413 . S
C57 C59 1.360 . S
C58 C57 1.413 . S
C58 C62 1.429 . S
C59 C57 1.360 . S
C59 C60 1.372 . S
C60 H55 0.928 . S
C60 C59 1.372 . S
C60 C61 1.404 . S
C61 C60 1.404 . S
C61 C62 1.391 . S
C62 H56 0.930 . S
C62 C58 1.429 . S
C62 C61 1.391 . S
H63 C66 0.931 . S
H64 C69 0.928 . S
H65 C71 0.930 . S
C66 H63 0.931 . S
C66 C67 1.413 . S
C66 C68 1.360 . S
C67 C66 1.413 . S
C67 C71 1.429 . S
C68 C66 1.360 . S
C68 C69 1.372 . S
C69 H64 0.928 . S
C69 C68 1.372 . S
C69 C70 1.404 . S
C70 C69 1.404 . S
C70 C71 1.391 . S
C71 H65 0.930 . S
C71 C67 1.429 . S
C71 C70 1.391 . S
H72 C75 0.931 . S
H73 C78 0.928 . S
H74 C80 0.930 . S
C75 H72 0.931 . S
C75 C76 1.413 . S
C75 C77 1.360 . S
C76 C75 1.413 . S
C76 C80 1.429 . S
C77 C75 1.360 . S
C77 C78 1.372 . S
C78 H73 0.928 . S
C78 C77 1.372 . S
C78 C79 1.404 . S
C79 C78 1.404 . S
C79 C80 1.391 . S
C80 H74 0.930 . S
C80 C76 1.429 . S
C80 C79 1.391 . S
H81 C84 0.931 . S
H82 C87 0.928 . S
H83 C89 0.930 . S
C84 H81 0.931 . S
C84 C85 1.413 . S
C84 C86 1.360 . S
C85 C84 1.413 . S
C85 C89 1.429 . S
C86 C84 1.360 . S
C86 C87 1.372 . S
C87 H82 0.928 . S
C87 C86 1.372 . S
C87 C88 1.404 . S
C88 C87 1.404 . S
C88 C89 1.391 . S
C89 H83 0.930 . S
C89 C85 1.429 . S
C89 C88 1.391 . S
H90 C93 0.931 . S
H91 C96 0.928 . S
H92 C98 0.930 . S
C93 H90 0.931 . S
C93 C94 1.413 . S
C93 C95 1.360 . S
C94 C93 1.413 . S
C94 C98 1.429 . S
C95 C93 1.360 . S
C95 C96 1.372 . S
C96 H91 0.928 . S
C96 C95 1.372 . S
C96 C97 1.404 . S
C97 C96 1.404 . S
C97 C98 1.391 . S
C98 H92 0.930 . S
C98 C94 1.429 . S
C98 C97 1.391 . S
H99 C102 0.931 . S
H100 C105 0.928 . S
H101 C107 0.930 . S
C102 H99 0.931 . S
C102 C103 1.413 . S
C102 C104 1.360 . S
C103 C102 1.413 . S
C103 C107 1.429 . S
C104 C102 1.360 . S
C104 C105 1.372 . S
C105 H100 0.928 . S
C105 C104 1.372 . S
C105 C106 1.404 . S
C106 C105 1.404 . S
C106 C107 1.391 . S
C107 H101 0.930 . S
C107 C103 1.429 . S
C107 C106 1.391 . S
H108 C111 0.931 . S
H109 C114 0.928 . S
H110 C116 0.930 . S
C111 H108 0.931 . S
C111 C112 1.413 . S
C111 C113 1.360 . S
C112 C111 1.413 . S
C112 C116 1.429 . S
C113 C111 1.360 . S
C113 C114 1.372 . S
C114 H109 0.928 . S
C114 C113 1.372 . S
C114 C115 1.404 . S
C115 C114 1.404 . S
C115 C116 1.391 . S
C116 H110 0.930 . S
C116 C112 1.429 . S
C116 C115 1.391 . S
H117 C120 0.931 . S
H118 C123 0.928 . S
H119 C125 0.930 . S
C120 H117 0.931 . S
C120 C121 1.413 . S
C120 C122 1.360 . S
C121 C120 1.413 . S
C121 C125 1.429 . S
C122 C120 1.360 . S
C122 C123 1.372 . S
C123 H118 0.928 . S
C123 C122 1.372 . S
C123 C124 1.404 . S
C124 C123 1.404 . S
C124 C125 1.391 . S
C125 H119 0.930 . S
C125 C121 1.429 . S
C125 C124 1.391 . S
H126 C129 0.931 . S
H127 C132 0.928 . S
H128 C134 0.930 . S
C129 H126 0.931 . S
C129 C130 1.413 . S
C129 C131 1.360 . S
C130 C129 1.413 . S
C130 C134 1.429 . S
C131 C129 1.360 . S
C131 C132 1.372 . S
C132 H127 0.928 . S
C132 C131 1.372 . S
C132 C133 1.404 . S
C133 C132 1.404 . S
C133 C134 1.391 . S
C134 H128 0.930 . S
C134 C130 1.429 . S
C134 C133 1.391 . S
H135 C138 0.931 . S
H136 C141 0.928 . S
H137 C143 0.930 . S
C138 H135 0.931 . S
C138 C139 1.413 . S
C138 C140 1.360 . S
C139 C138 1.413 . S
C139 C143 1.429 . S
C140 C138 1.360 . S
C140 C141 1.372 . S
C141 H136 0.928 . S
C141 C140 1.372 . S
C141 C142 1.404 . S
C142 C141 1.404 . S
C142 C143 1.391 . S
C143 H137 0.930 . S
C143 C139 1.429 . S
C143 C142 1.391 . S
H144 C147 0.931 . S
H145 C150 0.928 . S
H146 C152 0.930 . S
C147 H144 0.931 . S
C147 C148 1.413 . S
C147 C149 1.360 . S
C148 C147 1.413 . S
C148 C152 1.429 . S
C149 C147 1.360 . S
C149 C150 1.372 . S
C150 H145 0.928 . S
C150 C149 1.372 . S
C150 C151 1.404 . S
C151 C150 1.404 . S
C151 C152 1.391 . S
C152 H146 0.930 . S
C152 C148 1.429 . S
C152 C151 1.391 . S
H153 C156 0.931 . S
H154 C159 0.928 . S
H155 C161 0.930 . S
C156 H153 0.931 . S
C156 C157 1.413 . S
C156 C158 1.360 . S
C157 C156 1.413 . S
C157 C161 1.429 . S
C158 C156 1.360 . S
C158 C159 1.372 . S
C159 H154 0.928 . S
C159 C158 1.372 . S
C159 C160 1.404 . S
C160 C159 1.404 . S
C160 C161 1.391 . S
C161 H155 0.930 . S
C161 C157 1.429 . S
C161 C160 1.391 . S
Eu162 N193 2.657 . S
Eu162 N200 2.609 . S
Eu162 O206 2.558 . S
Eu162 O207 2.640 1_565 S
Eu162 O209 2.339 1_565 S
Eu162 O210 2.563 1_565 S
Eu162 O211 2.419 . S
Eu162 O213 2.380 1_556 S
Eu162 O214 2.432 . S
Eu162 C226 2.848 . S
C163 C166 1.429 . S
C163 C167 1.411 . S
C163 N170 1.377 . S
C164 C166 1.420 . S
C164 C168 1.423 . S
C164 C176 1.392 . S
C165 C167 1.420 . S
C165 C168 1.351 . S
C165 H188 0.931 . S
C166 C163 1.429 . S
C166 C164 1.420 . S
C166 N174 1.362 . S
C167 C163 1.411 . S
C167 C165 1.420 . S
C167 C172 1.395 . S
C168 C164 1.423 . S
C168 C165 1.351 . S
C168 H180 0.930 . S
C169 C171 1.400 . S
C169 C172 1.386 . S
C169 H181 0.930 . S
N170 C163 1.377 . S
N170 C171 1.321 . S
N170 Eu173 2.609 . S
C171 C169 1.400 . S
C171 N170 1.321 . S
C171 H178 0.930 . S
C172 C167 1.395 . S
C172 C169 1.386 . S
C172 H191 0.930 . S
Eu173 N170 2.609 . S
Eu173 N174 2.657 . S
Eu173 O207 2.333 1_554 S
Eu173 O208 2.432 . S
Eu173 O212 2.558 . S
Eu173 O213 2.612 1_545 S
Eu173 O215 2.339 1_545 S
Eu173 O216 2.563 1_545 S
Eu173 O217 2.419 . S
Eu173 C237 2.848 . S
N174 C166 1.362 . S
N174 Eu173 2.657 . S
N174 C175 1.334 . S
C175 N174 1.334 . S
C175 C177 1.413 . S
C175 H182 0.929 . S
C176 C164 1.392 . S
C176 C177 1.367 . S
C176 H184 0.930 . S
C177 C175 1.413 . S
C177 C176 1.367 . S
C177 H179 0.930 . S
H178 C171 0.930 . S
H179 C177 0.930 . S
H180 C168 0.930 . S
H181 C169 0.930 . S
H182 C175 0.929 . S
H183 C197 0.930 . S
H184 C176 0.930 . S
H185 C203 0.930 . S
H186 C194 0.929 . S
H187 C201 0.930 . S
H188 C165 0.931 . S
H189 C195 0.930 . S
H190 C228 0.930 . S
H191 C172 0.930 . S
H192 C227 0.931 . S
N193 Eu162 2.657 . S
N193 C194 1.334 . S
N193 C198 1.362 . S
C194 H186 0.929 . S
C194 N193 1.334 . S
C194 C197 1.413 . S
C195 H189 0.930 . S
C195 C196 1.392 . S
C195 C197 1.367 . S
C196 C195 1.392 . S
C196 C198 1.420 . S
C196 C228 1.423 . S
C197 H183 0.930 . S
C197 C194 1.413 . S
C197 C195 1.367 . S
C198 N193 1.362 . S
C198 C196 1.420 . S
C198 C202 1.429 . S
H199 C204 0.930 . S
N200 Eu162 2.609 . S
N200 C202 1.377 . S
N200 C203 1.321 . S
C201 H187 0.930 . S
C201 C203 1.400 . S
C201 C204 1.386 . S
C202 C198 1.429 . S
C202 N200 1.377 . S
C202 C205 1.411 . S
C203 H185 0.930 . S
C203 N200 1.321 . S
C203 C201 1.400 . S
C204 H199 0.930 . S
C204 C201 1.386 . S
C204 C205 1.395 . S
C205 C202 1.411 . S
C205 C204 1.395 . S
C205 C227 1.420 . S
O206 Eu162 2.558 . S
O206 C226 1.257 . S
O207 Eu162 2.640 1_545 S
O207 Eu173 2.333 1_556 S
O207 C218 1.315 . S
O208 Eu173 2.432 . S
O208 C225 1.264 1_554 S
O209 Eu162 2.339 1_545 S
O209 C225 1.254 . S
O210 Eu162 2.563 1_545 S
O210 C218 1.235 . S
O211 Eu162 2.419 . S
O211 C226 1.249 . S
O212 Eu173 2.558 . S
O212 C237 1.257 . S
O213 Eu162 2.380 1_554 S
O213 Eu173 2.612 1_565 S
O213 C229 1.276 . S
O214 Eu162 2.432 . S
O214 C236 1.264 1_556 S
O215 Eu173 2.339 1_565 S
O215 C236 1.254 . S
O216 Eu173 2.563 1_565 S
O216 C229 1.235 . S
O217 Eu173 2.419 . S
O217 C237 1.249 . S
C218 O207 1.315 . S
C218 O210 1.235 . S
C219 C221 1.393 1_565 S
C219 C223 1.395 . S
C219 C226 1.492 . S
C220 C221 1.392 . S
C220 C222 1.386 1_545 S
C221 C219 1.393 1_545 S
C221 C220 1.392 . S
C221 H238 0.930 . S
C222 C220 1.386 1_565 S
C222 C224 1.395 . S
C222 H239 0.930 . S
C223 C219 1.395 . S
C223 C224 1.379 . S
C223 H240 0.930 . S
C224 C222 1.395 . S
C224 C223 1.379 . S
C224 H241 0.930 . S
C225 O208 1.264 1_556 S
C225 O209 1.254 . S
C226 Eu162 2.848 . S
C226 O206 1.257 . S
C226 O211 1.249 . S
C226 C219 1.492 . S
C227 H192 0.931 . S
C227 C205 1.420 . S
C227 C228 1.351 . S
C228 H190 0.930 . S
C228 C196 1.423 . S
C228 C227 1.351 . S
C229 O213 1.276 . S
C229 O216 1.235 . S
C230 C231 1.393 1_545 S
C230 C234 1.395 . S
C230 C237 1.492 . S
C231 C230 1.393 1_565 S
C231 C232 1.392 . S
C231 H242 0.930 . S
C232 C231 1.392 . S
C232 C233 1.386 1_565 S
C233 C232 1.386 1_545 S
C233 C235 1.395 . S
C233 H243 0.930 . S
C234 C230 1.395 . S
C234 C235 1.379 . S
C234 H244 0.930 . S
C235 C233 1.395 . S
C235 C234 1.379 . S
C235 H245 0.930 . S
C236 O214 1.264 1_554 S
C236 O215 1.254 . S
C237 Eu173 2.848 . S
C237 O212 1.257 . S
C237 O217 1.249 . S
C237 C230 1.492 . S
H238 C221 0.930 . S
H239 C222 0.930 . S
H240 C223 0.930 . S
H241 C224 0.930 . S
H242 C231 0.930 . S
H243 C233 0.930 . S
H244 C234 0.930 . S
H245 C235 0.930 . S
Eu246 N277 2.657 . S
Eu246 N284 2.609 . S
Eu246 O290 2.558 . S
Eu246 O291 2.612 1_455 S
Eu246 O293 2.339 1_455 S
Eu246 O294 2.563 1_455 S
Eu246 O295 2.419 . S
Eu246 O297 2.380 1_556 S
Eu246 O298 2.446 . S
Eu246 C310 2.848 . S
C247 C250 1.429 . S
C247 C251 1.411 . S
C247 N254 1.377 . S
C248 C250 1.420 . S
C248 C252 1.423 . S
C248 C260 1.392 . S
C249 C251 1.420 . S
C249 C252 1.351 . S
C249 H272 0.931 . S
C250 C247 1.429 . S
C250 C248 1.420 . S
C250 N258 1.362 . S
C251 C247 1.411 . S
C251 C249 1.420 . S
C251 C256 1.395 . S
C252 C248 1.423 . S
C252 C249 1.351 . S
C252 H264 0.930 . S
C253 C255 1.400 . S
C253 C256 1.386 . S
C253 H265 0.930 . S
N254 C247 1.377 . S
N254 C255 1.321 . S
N254 Eu257 2.609 . S
C255 C253 1.400 . S
C255 N254 1.321 . S
C255 H262 0.930 . S
C256 C251 1.395 . S
C256 C253 1.386 . S
C256 H275 0.930 . S
Eu257 N254 2.609 . S
Eu257 N258 2.657 . S
Eu257 O291 2.380 1_554 S
Eu257 O292 2.432 . S
Eu257 O296 2.558 . S
Eu257 O297 2.612 1_655 S
Eu257 O299 2.339 1_655 S
Eu257 O300 2.563 1_655 S
Eu257 O301 2.419 . S
Eu257 C321 2.848 . S
N258 C250 1.362 . S
N258 Eu257 2.657 . S
N258 C259 1.334 . S
C259 N258 1.334 . S
C259 C261 1.413 . S
C259 H266 0.929 . S
C260 C248 1.392 . S
C260 C261 1.367 . S
C260 H268 0.930 . S
C261 C259 1.413 . S
C261 C260 1.367 . S
C261 H263 0.930 . S
H262 C255 0.930 . S
H263 C261 0.930 . S
H264 C252 0.930 . S
H265 C253 0.930 . S
H266 C259 0.929 . S
H267 C281 0.930 . S
H268 C260 0.930 . S
H269 C287 0.930 . S
H270 C278 0.929 . S
H271 C285 0.930 . S
H272 C249 0.931 . S
H273 C279 0.930 . S
H274 C312 0.930 . S
H275 C256 0.930 . S
H276 C311 0.931 . S
N277 Eu246 2.657 . S
N277 C278 1.334 . S
N277 C282 1.362 . S
C278 H270 0.929 . S
C278 N277 1.334 . S
C278 C281 1.413 . S
C279 H273 0.930 . S
C279 C280 1.392 . S
C279 C281 1.367 . S
C280 C279 1.392 . S
C280 C282 1.420 . S
C280 C312 1.423 . S
C281 H267 0.930 . S
C281 C278 1.413 . S
C281 C279 1.367 . S
C282 N277 1.362 . S
C282 C280 1.420 . S
C282 C286 1.429 . S
H283 C288 0.930 . S
N284 Eu246 2.609 . S
N284 C286 1.377 . S
N284 C287 1.321 . S
C285 H271 0.930 . S
C285 C287 1.400 . S
C285 C288 1.386 . S
C286 C282 1.429 . S
C286 N284 1.377 . S
C286 C289 1.411 . S
C287 H269 0.930 . S
C287 N284 1.321 . S
C287 C285 1.400 . S
C288 H283 0.930 . S
C288 C285 1.386 . S
C288 C289 1.395 . S
C289 C286 1.411 . S
C289 C288 1.395 . S
C289 C311 1.420 . S
O290 Eu246 2.558 . S
O290 C310 1.257 . S
O291 Eu246 2.612 1_655 S
O291 Eu257 2.380 1_556 S
O291 C302 1.276 . S
O292 Eu257 2.432 . S
O292 C309 1.264 1_554 S
O293 Eu246 2.339 1_655 S
O293 C309 1.254 . S
O294 Eu246 2.563 1_655 S
O294 C302 1.235 . S
O295 Eu246 2.419 . S
O295 C310 1.249 . S
O296 Eu257 2.558 . S
O296 C321 1.257 . S
O297 Eu246 2.380 1_554 S
O297 Eu257 2.612 1_455 S
O297 C313 1.276 . S
O298 Eu246 2.446 . S
O298 C320 1.240 1_556 S
O299 Eu257 2.339 1_455 S
O299 C320 1.254 . S
O300 Eu257 2.563 1_455 S
O300 C313 1.235 . S
O301 Eu257 2.419 . S
O301 C321 1.249 . S
C302 O291 1.276 . S
C302 O294 1.235 . S
C303 C305 1.393 1_455 S
C303 C307 1.395 . S
C303 C310 1.492 . S
C304 C305 1.392 . S
C304 C306 1.386 1_655 S
C305 C303 1.393 1_655 S
C305 C304 1.392 . S
C305 H322 0.930 . S
C306 C304 1.386 1_455 S
C306 C308 1.395 . S
C306 H323 0.930 . S
C307 C303 1.395 . S
C307 C308 1.379 . S
C307 H324 0.930 . S
C308 C306 1.395 . S
C308 C307 1.379 . S
C308 H325 0.930 . S
C309 O292 1.264 1_556 S
C309 O293 1.254 . S
C310 Eu246 2.848 . S
C310 O290 1.257 . S
C310 O295 1.249 . S
C310 C303 1.492 . S
C311 H276 0.931 . S
C311 C289 1.420 . S
C311 C312 1.351 . S
C312 H274 0.930 . S
C312 C280 1.423 . S
C312 C311 1.351 . S
C313 O297 1.276 . S
C313 O300 1.235 . S
C314 C315 1.393 1_655 S
C314 C318 1.395 . S
C314 C321 1.492 . S
C315 C314 1.393 1_455 S
C315 C316 1.392 . S
C315 H326 0.930 . S
C316 C315 1.392 . S
C316 C317 1.386 1_455 S
C317 C316 1.386 1_655 S
C317 C319 1.395 . S
C317 H327 0.930 . S
C318 C314 1.395 . S
C318 C319 1.379 . S
C318 H328 0.930 . S
C319 C317 1.395 . S
C319 C318 1.379 . S
C319 H329 0.930 . S
C320 O298 1.240 1_554 S
C320 O299 1.254 . S
C321 Eu257 2.848 . S
C321 O296 1.257 . S
C321 O301 1.249 . S
C321 C314 1.492 . S
H322 C305 0.930 . S
H323 C306 0.930 . S
H324 C307 0.930 . S
H325 C308 0.930 . S
H326 C315 0.930 . S
H327 C317 0.930 . S
H328 C318 0.930 . S
H329 C319 0.930 . S
Eu330 N361 2.657 . S
Eu330 N368 2.609 . S
Eu330 O374 2.558 . S
Eu330 O375 2.612 . S
Eu330 O377 2.339 . S
Eu330 O378 2.563 . S
Eu330 O379 2.419 . S
Eu330 O381 2.380 1_554 S
Eu330 O382 2.432 . S
Eu330 C394 2.848 . S
C331 C334 1.429 . S
C331 C335 1.411 . S
C331 N338 1.377 . S
C332 C334 1.420 . S
C332 C336 1.423 . S
C332 C344 1.392 . S
C333 C335 1.420 . S
C333 C336 1.351 . S
C333 H356 0.931 . S
C334 C331 1.429 . S
C334 C332 1.420 . S
C334 N342 1.362 . S
C335 C331 1.411 . S
C335 C333 1.420 . S
C335 C340 1.395 . S
C336 C332 1.423 . S
C336 C333 1.351 . S
C336 H348 0.930 . S
C337 C339 1.400 . S
C337 C340 1.386 . S
C337 H349 0.930 . S
N338 C331 1.377 . S
N338 C339 1.321 . S
N338 Eu341 2.609 . S
C339 C337 1.400 . S
C339 N338 1.321 . S
C339 H346 0.930 . S
C340 C335 1.395 . S
C340 C337 1.386 . S
C340 H359 0.930 . S
Eu341 N338 2.609 . S
Eu341 N342 2.657 . S
Eu341 O375 2.380 1_556 S
Eu341 O376 2.432 . S
Eu341 O380 2.558 . S
Eu341 O381 2.612 . S
Eu341 O383 2.339 . S
Eu341 O384 2.563 . S
Eu341 O385 2.419 . S
Eu341 C405 2.848 . S
N342 C334 1.362 . S
N342 Eu341 2.657 . S
N342 C343 1.334 . S
C343 N342 1.334 . S
C343 C345 1.413 . S
C343 H350 0.929 . S
C344 C332 1.392 . S
C344 C345 1.367 . S
C344 H352 0.930 . S
C345 C343 1.413 . S
C345 C344 1.367 . S
C345 H347 0.930 . S
H346 C339 0.930 . S
H347 C345 0.930 . S
H348 C336 0.930 . S
H349 C337 0.930 . S
H350 C343 0.929 . S
H351 C365 0.930 . S
H352 C344 0.930 . S
H353 C371 0.930 . S
H354 C362 0.929 . S
H355 C369 0.930 . S
H356 C333 0.931 . S
H357 C363 0.930 . S
H358 C396 0.930 . S
H359 C340 0.930 . S
H360 C395 0.931 . S
N361 Eu330 2.657 . S
N361 C362 1.334 . S
N361 C366 1.362 . S
C362 H354 0.929 . S
C362 N361 1.334 . S
C362 C365 1.413 . S
C363 H357 0.930 . S
C363 C364 1.392 . S
C363 C365 1.367 . S
C364 C363 1.392 . S
C364 C366 1.420 . S
C364 C396 1.423 . S
C365 H351 0.930 . S
C365 C362 1.413 . S
C365 C363 1.367 . S
C366 N361 1.362 . S
C366 C364 1.420 . S
C366 C370 1.429 . S
H367 C372 0.930 . S
N368 Eu330 2.609 . S
N368 C370 1.377 . S
N368 C371 1.321 . S
C369 H355 0.930 . S
C369 C371 1.400 . S
C369 C372 1.386 . S
C370 C366 1.429 . S
C370 N368 1.377 . S
C370 C373 1.411 . S
C371 H353 0.930 . S
C371 N368 1.321 . S
C371 C369 1.400 . S
C372 H367 0.930 . S
C372 C369 1.386 . S
C372 C373 1.395 . S
C373 C370 1.411 . S
C373 C372 1.395 . S
C373 C395 1.420 . S
O374 Eu330 2.558 . S
O374 C394 1.257 . S
O375 Eu330 2.612 . S
O375 Eu341 2.380 1_554 S
O375 C386 1.276 . S
O376 Eu341 2.432 . S
O376 C393 1.264 1_556 S
O377 Eu330 2.339 . S
O377 C393 1.254 . S
O378 Eu330 2.563 . S
O378 C386 1.235 . S
O379 Eu330 2.419 . S
O379 C394 1.249 . S
O380 Eu341 2.558 . S
O380 C405 1.257 . S
O381 Eu330 2.380 1_556 S
O381 Eu341 2.612 . S
O381 C397 1.276 . S
O382 Eu330 2.432 . S
O382 C404 1.264 1_554 S
O383 Eu341 2.339 . S
O383 C404 1.254 . S
O384 Eu341 2.563 . S
O384 C397 1.235 . S
O385 Eu341 2.419 . S
O385 C405 1.249 . S
C386 O375 1.276 . S
C386 O378 1.235 . S
C387 C389 1.393 . S
C387 C391 1.395 . S
C387 C394 1.492 . S
C388 C389 1.392 . S
C388 C390 1.386 . S
C389 C387 1.393 . S
C389 C388 1.392 . S
C389 H406 0.930 . S
C390 C388 1.386 . S
C390 C392 1.395 . S
C390 H407 0.930 . S
C391 C387 1.395 . S
C391 C392 1.379 . S
C391 H408 0.930 . S
C392 C390 1.395 . S
C392 C391 1.379 . S
C392 H409 0.930 . S
C393 O376 1.264 1_554 S
C393 O377 1.254 . S
C394 Eu330 2.848 . S
C394 O374 1.257 . S
C394 O379 1.249 . S
C394 C387 1.492 . S
C395 H360 0.931 . S
C395 C373 1.420 . S
C395 C396 1.351 . S
C396 H358 0.930 . S
C396 C364 1.423 . S
C396 C395 1.351 . S
C397 O381 1.276 . S
C397 O384 1.235 . S
C398 C399 1.393 . S
C398 C402 1.395 . S
C398 C405 1.492 . S
C399 C398 1.393 . S
C399 C400 1.392 . S
C399 H410 0.930 . S
C400 C399 1.392 . S
C400 C401 1.386 . S
C401 C400 1.386 . S
C401 C403 1.395 . S
C401 H411 0.930 . S
C402 C398 1.395 . S
C402 C403 1.379 . S
C402 H412 0.930 . S
C403 C401 1.395 . S
C403 C402 1.379 . S
C403 H413 0.930 . S
C404 O382 1.264 1_556 S
C404 O383 1.254 . S
C405 Eu341 2.848 . S
C405 O380 1.257 . S
C405 O385 1.249 . S
C405 C398 1.492 . S
H406 C389 0.930 . S
H407 C390 0.930 . S
H408 C391 0.930 . S
H409 C392 0.930 . S
H410 C399 0.930 . S
H411 C401 0.930 . S
H412 C402 0.930 . S
H413 C403 0.930 . S
Eu414 N445 2.657 . S
Eu414 N452 2.609 . S
Eu414 O458 2.558 . S
Eu414 O459 2.612 . S
Eu414 O461 2.339 . S
Eu414 O462 2.563 . S
Eu414 O463 2.419 . S
Eu414 O465 2.380 . S
Eu414 O466 2.432 . S
Eu414 C478 2.848 . S
C415 C418 1.429 . S
C415 C419 1.411 . S
C415 N422 1.377 . S
C416 C418 1.420 . S
C416 C420 1.423 . S
C416 C428 1.392 . S
C417 C419 1.420 . S
C417 C420 1.351 . S
C417 H440 0.931 . S
C418 C415 1.429 . S
C418 C416 1.420 . S
C418 N426 1.362 . S
C419 C415 1.411 . S
C419 C417 1.420 . S
C419 C424 1.395 . S
C420 C416 1.423 . S
C420 C417 1.351 . S
C420 H432 0.930 . S
C421 C423 1.400 . S
C421 C424 1.386 . S
C421 H433 0.930 . S
N422 C415 1.377 . S
N422 C423 1.321 . S
N422 Eu425 2.609 . S
C423 C421 1.400 . S
C423 N422 1.321 . S
C423 H430 0.930 . S
C424 C419 1.395 . S
C424 C421 1.386 . S
C424 H443 0.930 . S
Eu425 N422 2.609 . S
Eu425 N426 2.657 . S
Eu425 O459 2.380 . S
Eu425 O460 2.432 . S
Eu425 O464 2.558 . S
Eu425 O465 2.612 . S
Eu425 O467 2.339 . S
Eu425 O468 2.563 . S
Eu425 O469 2.419 . S
Eu425 C489 2.848 . S
N426 C418 1.362 . S
N426 Eu425 2.657 . S
N426 C427 1.334 . S
C427 N426 1.334 . S
C427 C429 1.413 . S
C427 H434 0.929 . S
C428 C416 1.392 . S
C428 C429 1.367 . S
C428 H436 0.930 . S
C429 C427 1.413 . S
C429 C428 1.367 . S
C429 H431 0.930 . S
H430 C423 0.930 . S
H431 C429 0.930 . S
H432 C420 0.930 . S
H433 C421 0.930 . S
H434 C427 0.929 . S
H435 C449 0.930 . S
H436 C428 0.930 . S
H437 C455 0.930 . S
H438 C446 0.929 . S
H439 C453 0.930 . S
H440 C417 0.931 . S
H441 C447 0.930 . S
H442 C480 0.930 . S
H443 C424 0.930 . S
H444 C479 0.931 . S
N445 Eu414 2.657 . S
N445 C446 1.334 . S
N445 C450 1.362 . S
C446 H438 0.929 . S
C446 N445 1.334 . S
C446 C449 1.413 . S
C447 H441 0.930 . S
C447 C448 1.392 . S
C447 C449 1.367 . S
C448 C447 1.392 . S
C448 C450 1.420 . S
C448 C480 1.423 . S
C449 H435 0.930 . S
C449 C446 1.413 . S
C449 C447 1.367 . S
C450 N445 1.362 . S
C450 C448 1.420 . S
C450 C454 1.429 . S
H451 C456 0.930 . S
N452 Eu414 2.609 . S
N452 C454 1.377 . S
N452 C455 1.321 . S
C453 H439 0.930 . S
C453 C455 1.400 . S
C453 C456 1.386 . S
C454 C450 1.429 . S
C454 N452 1.377 . S
C454 C457 1.411 . S
C455 H437 0.930 . S
C455 N452 1.321 . S
C455 C453 1.400 . S
C456 H451 0.930 . S
C456 C453 1.386 . S
C456 C457 1.395 . S
C457 C454 1.411 . S
C457 C456 1.395 . S
C457 C479 1.420 . S
O458 Eu414 2.558 . S
O458 C478 1.257 . S
O459 Eu414 2.612 . S
O459 Eu425 2.380 . S
O459 C470 1.276 . S
O460 Eu425 2.432 . S
O460 C477 1.264 . S
O461 Eu414 2.339 . S
O461 C477 1.254 . S
O462 Eu414 2.563 . S
O462 C470 1.235 . S
O463 Eu414 2.419 . S
O463 C478 1.249 . S
O464 Eu425 2.558 . S
O464 C489 1.257 . S
O465 Eu414 2.380 . S
O465 Eu425 2.612 . S
O465 C481 1.276 . S
O466 Eu414 2.432 . S
O466 C488 1.264 . S
O467 Eu425 2.339 . S
O467 C488 1.254 . S
O468 Eu425 2.563 . S
O468 C481 1.235 . S
O469 Eu425 2.419 . S
O469 C489 1.249 . S
C470 O459 1.276 . S
C470 O462 1.235 . S
C471 C473 1.393 . S
C471 C475 1.395 . S
C471 C478 1.492 . S
C472 C473 1.392 . S
C472 C474 1.386 . S
C473 C471 1.393 . S
C473 C472 1.392 . S
C473 H490 0.930 . S
C474 C472 1.386 . S
C474 C476 1.395 . S
C474 H491 0.930 . S
C475 C471 1.395 . S
C475 C476 1.379 . S
C475 H492 0.930 . S
C476 C474 1.395 . S
C476 C475 1.379 . S
C476 H493 0.930 . S
C477 O460 1.264 . S
C477 O461 1.254 . S
C478 Eu414 2.848 . S
C478 O458 1.257 . S
C478 O463 1.249 . S
C478 C471 1.492 . S
C479 H444 0.931 . S
C479 C457 1.420 . S
C479 C480 1.351 . S
C480 H442 0.930 . S
C480 C448 1.423 . S
C480 C479 1.351 . S
C481 O465 1.276 . S
C481 O468 1.235 . S
C482 C483 1.393 . S
C482 C486 1.395 . S
C482 C489 1.492 . S
C483 C482 1.393 . S
C483 C484 1.392 . S
C483 H494 0.930 . S
C484 C483 1.392 . S
C484 C485 1.386 . S
C485 C484 1.386 . S
C485 C487 1.395 . S
C485 H495 0.930 . S
C486 C482 1.395 . S
C486 C487 1.379 . S
C486 H496 0.930 . S
C487 C485 1.395 . S
C487 C486 1.379 . S
C487 H497 0.930 . S
C488 O466 1.264 . S
C488 O467 1.254 . S
C489 Eu425 2.848 . S
C489 O464 1.257 . S
C489 O469 1.249 . S
C489 C482 1.492 . S
H490 C473 0.930 . S
H491 C474 0.930 . S
H492 C475 0.930 . S
H493 C476 0.930 . S
H494 C483 0.930 . S
H495 C485 0.930 . S
H496 C486 0.930 . S
H497 C487 0.930 . S
Eu498 N529 2.657 . S
Eu498 N536 2.609 . S
Eu498 O542 2.558 . S
Eu498 O543 2.612 . S
Eu498 O545 2.339 . S
Eu498 O546 2.563 . S
Eu498 O547 2.419 . S
Eu498 O549 2.380 . S
Eu498 O550 2.432 . S
Eu498 C562 2.848 . S
C499 C502 1.429 . S
C499 C503 1.411 . S
C499 N506 1.377 . S
C500 C502 1.420 . S
C500 C504 1.423 . S
C500 C512 1.392 . S
C501 C503 1.420 . S
C501 C504 1.351 . S
C501 H524 0.931 . S
C502 C499 1.429 . S
C502 C500 1.420 . S
C502 N510 1.362 . S
C503 C499 1.411 . S
C503 C501 1.420 . S
C503 C508 1.395 . S
C504 C500 1.423 . S
C504 C501 1.351 . S
C504 H516 0.930 . S
C505 C507 1.400 . S
C505 C508 1.386 . S
C505 H517 0.930 . S
N506 C499 1.377 . S
N506 C507 1.321 . S
N506 Eu509 2.609 . S
C507 C505 1.400 . S
C507 N506 1.321 . S
C507 H514 0.930 . S
C508 C503 1.395 . S
C508 C505 1.386 . S
C508 H527 0.930 . S
Eu509 N506 2.609 . S
Eu509 N510 2.657 . S
Eu509 O543 2.380 . S
Eu509 O544 2.432 . S
Eu509 O548 2.558 . S
Eu509 O549 2.612 . S
Eu509 O551 2.339 . S
Eu509 O552 2.563 . S
Eu509 O553 2.419 . S
Eu509 C573 2.848 . S
N510 C502 1.362 . S
N510 Eu509 2.657 . S
N510 C511 1.334 . S
C511 N510 1.334 . S
C511 C513 1.413 . S
C511 H518 0.929 . S
C512 C500 1.392 . S
C512 C513 1.367 . S
C512 H520 0.930 . S
C513 C511 1.413 . S
C513 C512 1.367 . S
C513 H515 0.930 . S
H514 C507 0.930 . S
H515 C513 0.930 . S
H516 C504 0.930 . S
H517 C505 0.930 . S
H518 C511 0.929 . S
H519 C533 0.930 . S
H520 C512 0.930 . S
H521 C539 0.930 . S
H522 C530 0.929 . S
H523 C537 0.930 . S
H524 C501 0.931 . S
H525 C531 0.930 . S
H526 C564 0.930 . S
H527 C508 0.930 . S
H528 C563 0.931 . S
N529 Eu498 2.657 . S
N529 C530 1.334 . S
N529 C534 1.362 . S
C530 H522 0.929 . S
C530 N529 1.334 . S
C530 C533 1.413 . S
C531 H525 0.930 . S
C531 C532 1.392 . S
C531 C533 1.367 . S
C532 C531 1.392 . S
C532 C534 1.420 . S
C532 C564 1.423 . S
C533 H519 0.930 . S
C533 C530 1.413 . S
C533 C531 1.367 . S
C534 N529 1.362 . S
C534 C532 1.420 . S
C534 C538 1.429 . S
H535 C540 0.930 . S
N536 Eu498 2.609 . S
N536 C538 1.377 . S
N536 C539 1.321 . S
C537 H523 0.930 . S
C537 C539 1.400 . S
C537 C540 1.386 . S
C538 C534 1.429 . S
C538 N536 1.377 . S
C538 C541 1.411 . S
C539 H521 0.930 . S
C539 N536 1.321 . S
C539 C537 1.400 . S
C540 H535 0.930 . S
C540 C537 1.386 . S
C540 C541 1.395 . S
C541 C538 1.411 . S
C541 C540 1.395 . S
C541 C563 1.420 . S
O542 Eu498 2.558 . S
O542 C562 1.257 . S
O543 Eu498 2.612 . S
O543 Eu509 2.380 . S
O543 C554 1.276 . S
O544 Eu509 2.432 . S
O544 C561 1.264 . S
O545 Eu498 2.339 . S
O545 C561 1.254 . S
O546 Eu498 2.563 . S
O546 C554 1.235 . S
O547 Eu498 2.419 . S
O547 C562 1.249 . S
O548 Eu509 2.558 . S
O548 C573 1.257 . S
O549 Eu498 2.380 . S
O549 Eu509 2.612 . S
O549 C565 1.276 . S
O550 Eu498 2.432 . S
O550 C572 1.264 . S
O551 Eu509 2.339 . S
O551 C572 1.254 . S
O552 Eu509 2.563 . S
O552 C565 1.235 . S
O553 Eu509 2.419 . S
O553 C573 1.249 . S
C554 O543 1.276 . S
C554 O546 1.235 . S
C555 C557 1.393 . S
C555 C559 1.395 . S
C555 C562 1.492 . S
C556 C557 1.392 . S
C556 C558 1.386 . S
C557 C555 1.393 . S
C557 C556 1.392 . S
C557 H574 0.930 . S
C558 C556 1.386 . S
C558 C560 1.395 . S
C558 H575 0.930 . S
C559 C555 1.395 . S
C559 C560 1.379 . S
C559 H576 0.930 . S
C560 C558 1.395 . S
C560 C559 1.379 . S
C560 H577 0.930 . S
C561 O544 1.264 . S
C561 O545 1.254 . S
C562 Eu498 2.848 . S
C562 O542 1.257 . S
C562 O547 1.249 . S
C562 C555 1.492 . S
C563 H528 0.931 . S
C563 C541 1.420 . S
C563 C564 1.351 . S
C564 H526 0.930 . S
C564 C532 1.423 . S
C564 C563 1.351 . S
C565 O549 1.276 . S
C565 O552 1.235 . S
C566 C567 1.393 . S
C566 C570 1.395 . S
C566 C573 1.492 . S
C567 C566 1.393 . S
C567 C568 1.392 . S
C567 H578 0.930 . S
C568 C567 1.392 . S
C568 C569 1.386 . S
C569 C568 1.386 . S
C569 C571 1.395 . S
C569 H579 0.930 . S
C570 C566 1.395 . S
C570 C571 1.379 . S
C570 H580 0.930 . S
C571 C569 1.395 . S
C571 C570 1.379 . S
C571 H581 0.930 . S
C572 O550 1.264 . S
C572 O551 1.254 . S
C573 Eu509 2.848 . S
C573 O548 1.257 . S
C573 O553 1.249 . S
C573 C566 1.492 . S
H574 C557 0.930 . S
H575 C558 0.930 . S
H576 C559 0.930 . S
H577 C560 0.930 . S
H578 C567 0.930 . S
H579 C569 0.930 . S
H580 C570 0.930 . S
H581 C571 0.930 . S
Eu582 N613 2.657 . S
Eu582 N620 2.609 . S
Eu582 O626 2.558 . S
Eu582 O627 2.612 . S
Eu582 O629 2.339 . S
Eu582 O630 2.563 . S
Eu582 O631 2.419 . S
Eu582 O633 2.380 . S
Eu582 O634 2.432 . S
Eu582 C646 2.848 . S
C583 C586 1.429 . S
C583 C587 1.411 . S
C583 N590 1.377 . S
C584 C586 1.420 . S
C584 C588 1.423 . S
C584 C596 1.392 . S
C585 C587 1.420 . S
C585 C588 1.351 . S
C585 H608 0.931 . S
C586 C583 1.429 . S
C586 C584 1.420 . S
C586 N594 1.362 . S
C587 C583 1.411 . S
C587 C585 1.420 . S
C587 C592 1.395 . S
C588 C584 1.423 . S
C588 C585 1.351 . S
C588 H600 0.930 . S
C589 C591 1.400 . S
C589 C592 1.386 . S
C589 H601 0.930 . S
N590 C583 1.377 . S
N590 C591 1.321 . S
N590 Eu593 2.609 . S
C591 C589 1.400 . S
C591 N590 1.321 . S
C591 H598 0.930 . S
C592 C587 1.395 . S
C592 C589 1.386 . S
C592 H611 0.930 . S
Eu593 N590 2.609 . S
Eu593 N594 2.657 . S
Eu593 O627 2.380 . S
Eu593 O628 2.432 . S
Eu593 O632 2.558 . S
Eu593 O633 2.612 . S
Eu593 O635 2.339 . S
Eu593 O636 2.563 . S
Eu593 O637 2.419 . S
Eu593 C657 2.848 . S
N594 C586 1.362 . S
N594 Eu593 2.657 . S
N594 C595 1.334 . S
C595 N594 1.334 . S
C595 C597 1.413 . S
C595 H602 0.929 . S
C596 C584 1.392 . S
C596 C597 1.367 . S
C596 H604 0.930 . S
C597 C595 1.413 . S
C597 C596 1.367 . S
C597 H599 0.930 . S
H598 C591 0.930 . S
H599 C597 0.930 . S
H600 C588 0.930 . S
H601 C589 0.930 . S
H602 C595 0.929 . S
H603 C617 0.930 . S
H604 C596 0.930 . S
H605 C623 0.930 . S
H606 C614 0.929 . S
H607 C621 0.930 . S
H608 C585 0.931 . S
H609 C615 0.930 . S
H610 C648 0.930 . S
H611 C592 0.930 . S
H612 C647 0.931 . S
N613 Eu582 2.657 . S
N613 C614 1.334 . S
N613 C618 1.362 . S
C614 H606 0.929 . S
C614 N613 1.334 . S
C614 C617 1.413 . S
C615 H609 0.930 . S
C615 C616 1.392 . S
C615 C617 1.367 . S
C616 C615 1.392 . S
C616 C618 1.420 . S
C616 C648 1.423 . S
C617 H603 0.930 . S
C617 C614 1.413 . S
C617 C615 1.367 . S
C618 N613 1.362 . S
C618 C616 1.420 . S
C618 C622 1.429 . S
H619 C624 0.930 . S
N620 Eu582 2.609 . S
N620 C622 1.377 . S
N620 C623 1.321 . S
C621 H607 0.930 . S
C621 C623 1.400 . S
C621 C624 1.386 . S
C622 C618 1.429 . S
C622 N620 1.377 . S
C622 C625 1.411 . S
C623 H605 0.930 . S
C623 N620 1.321 . S
C623 C621 1.400 . S
C624 H619 0.930 . S
C624 C621 1.386 . S
C624 C625 1.395 . S
C625 C622 1.411 . S
C625 C624 1.395 . S
C625 C647 1.420 . S
O626 Eu582 2.558 . S
O626 C646 1.257 . S
O627 Eu582 2.612 . S
O627 Eu593 2.380 . S
O627 C638 1.276 . S
O628 Eu593 2.432 . S
O628 C645 1.264 . S
O629 Eu582 2.339 . S
O629 C645 1.254 . S
O630 Eu582 2.563 . S
O630 C638 1.235 . S
O631 Eu582 2.419 . S
O631 C646 1.249 . S
O632 Eu593 2.558 . S
O632 C657 1.257 . S
O633 Eu582 2.380 . S
O633 Eu593 2.612 . S
O633 C649 1.276 . S
O634 Eu582 2.432 . S
O634 C656 1.264 . S
O635 Eu593 2.339 . S
O635 C656 1.254 . S
O636 Eu593 2.563 . S
O636 C649 1.235 . S
O637 Eu593 2.419 . S
O637 C657 1.249 . S
C638 O627 1.276 . S
C638 O630 1.235 . S
C639 C641 1.393 . S
C639 C643 1.395 . S
C639 C646 1.492 . S
C640 C641 1.392 . S
C640 C642 1.386 . S
C641 C639 1.393 . S
C641 C640 1.392 . S
C641 H658 0.930 . S
C642 C640 1.386 . S
C642 C644 1.395 . S
C642 H659 0.930 . S
C643 C639 1.395 . S
C643 C644 1.379 . S
C643 H660 0.930 . S
C644 C642 1.395 . S
C644 C643 1.379 . S
C644 H661 0.930 . S
C645 O628 1.264 . S
C645 O629 1.254 . S
C646 Eu582 2.848 . S
C646 O626 1.257 . S
C646 O631 1.249 . S
C646 C639 1.492 . S
C647 H612 0.931 . S
C647 C625 1.420 . S
C647 C648 1.351 . S
C648 H610 0.930 . S
C648 C616 1.423 . S
C648 C647 1.351 . S
C649 O633 1.276 . S
C649 O636 1.235 . S
C650 C651 1.393 . S
C650 C654 1.395 . S
C650 C657 1.492 . S
C651 C650 1.393 . S
C651 C652 1.392 . S
C651 H662 0.930 . S
C652 C651 1.392 . S
C652 C653 1.386 . S
C653 C652 1.386 . S
C653 C655 1.395 . S
C653 H663 0.930 . S
C654 C650 1.395 . S
C654 C655 1.379 . S
C654 H664 0.930 . S
C655 C653 1.395 . S
C655 C654 1.379 . S
C655 H665 0.930 . S
C656 O634 1.264 . S
C656 O635 1.254 . S
C657 Eu593 2.848 . S
C657 O632 1.257 . S
C657 O637 1.249 . S
C657 C650 1.492 . S
H658 C641 0.930 . S
H659 C642 0.930 . S
H660 C643 0.930 . S
H661 C644 0.930 . S
H662 C651 0.930 . S
H663 C653 0.930 . S
H664 C654 0.930 . S
H665 C655 0.930 . S
Eu666 N697 2.657 . S
Eu666 N704 2.609 . S
Eu666 O710 2.558 . S
Eu666 O711 2.612 . S
Eu666 O713 2.339 . S
Eu666 O714 2.563 . S
Eu666 O715 2.419 . S
Eu666 O717 2.380 . S
Eu666 O718 2.432 . S
Eu666 C730 2.848 . S
C667 C670 1.429 . S
C667 C671 1.411 . S
C667 N674 1.377 . S
C668 C670 1.420 . S
C668 C672 1.423 . S
C668 C680 1.392 . S
C669 C671 1.420 . S
C669 C672 1.351 . S
C669 H692 0.931 . S
C670 C667 1.429 . S
C670 C668 1.420 . S
C670 N678 1.362 . S
C671 C667 1.411 . S
C671 C669 1.420 . S
C671 C676 1.395 . S
C672 C668 1.423 . S
C672 C669 1.351 . S
C672 H684 0.930 . S
C673 C675 1.400 . S
C673 C676 1.386 . S
C673 H685 0.930 . S
N674 C667 1.377 . S
N674 C675 1.321 . S
N674 Eu677 2.609 . S
C675 C673 1.400 . S
C675 N674 1.321 . S
C675 H682 0.930 . S
C676 C671 1.395 . S
C676 C673 1.386 . S
C676 H695 0.930 . S
Eu677 N674 2.609 . S
Eu677 N678 2.657 . S
Eu677 O711 2.380 . S
Eu677 O712 2.432 . S
Eu677 O716 2.558 . S
Eu677 O717 2.612 . S
Eu677 O719 2.339 . S
Eu677 O720 2.563 . S
Eu677 O721 2.419 . S
Eu677 C741 2.848 . S
N678 C670 1.362 . S
N678 Eu677 2.657 . S
N678 C679 1.334 . S
C679 N678 1.334 . S
C679 C681 1.413 . S
C679 H686 0.929 . S
C680 C668 1.392 . S
C680 C681 1.367 . S
C680 H688 0.930 . S
C681 C679 1.413 . S
C681 C680 1.367 . S
C681 H683 0.930 . S
H682 C675 0.930 . S
H683 C681 0.930 . S
H684 C672 0.930 . S
H685 C673 0.930 . S
H686 C679 0.929 . S
H687 C701 0.930 . S
H688 C680 0.930 . S
H689 C707 0.930 . S
H690 C698 0.929 . S
H691 C705 0.930 . S
H692 C669 0.931 . S
H693 C699 0.930 . S
H694 C732 0.930 . S
H695 C676 0.930 . S
H696 C731 0.931 . S
N697 Eu666 2.657 . S
N697 C698 1.334 . S
N697 C702 1.362 . S
C698 H690 0.929 . S
C698 N697 1.334 . S
C698 C701 1.413 . S
C699 H693 0.930 . S
C699 C700 1.392 . S
C699 C701 1.367 . S
C700 C699 1.392 . S
C700 C702 1.420 . S
C700 C732 1.423 . S
C701 H687 0.930 . S
C701 C698 1.413 . S
C701 C699 1.367 . S
C702 N697 1.362 . S
C702 C700 1.420 . S
C702 C706 1.429 . S
H703 C708 0.930 . S
N704 Eu666 2.609 . S
N704 C706 1.377 . S
N704 C707 1.321 . S
C705 H691 0.930 . S
C705 C707 1.400 . S
C705 C708 1.386 . S
C706 C702 1.429 . S
C706 N704 1.377 . S
C706 C709 1.411 . S
C707 H689 0.930 . S
C707 N704 1.321 . S
C707 C705 1.400 . S
C708 H703 0.930 . S
C708 C705 1.386 . S
C708 C709 1.395 . S
C709 C706 1.411 . S
C709 C708 1.395 . S
C709 C731 1.420 . S
O710 Eu666 2.558 . S
O710 C730 1.257 . S
O711 Eu666 2.612 . S
O711 Eu677 2.380 . S
O711 C722 1.276 . S
O712 Eu677 2.432 . S
O712 C729 1.264 . S
O713 Eu666 2.339 . S
O713 C729 1.254 . S
O714 Eu666 2.563 . S
O714 C722 1.235 . S
O715 Eu666 2.419 . S
O715 C730 1.249 . S
O716 Eu677 2.558 . S
O716 C741 1.257 . S
O717 Eu666 2.380 . S
O717 Eu677 2.612 . S
O717 C733 1.276 . S
O718 Eu666 2.432 . S
O718 C740 1.264 . S
O719 Eu677 2.339 . S
O719 C740 1.254 . S
O720 Eu677 2.563 . S
O720 C733 1.235 . S
O721 Eu677 2.419 . S
O721 C741 1.249 . S
C722 O711 1.276 . S
C722 O714 1.235 . S
C723 C725 1.393 . S
C723 C727 1.395 . S
C723 C730 1.492 . S
C724 C725 1.392 . S
C724 C726 1.386 . S
C725 C723 1.393 . S
C725 C724 1.392 . S
C725 H742 0.930 . S
C726 C724 1.386 . S
C726 C728 1.395 . S
C726 H743 0.930 . S
C727 C723 1.395 . S
C727 C728 1.379 . S
C727 H744 0.930 . S
C728 C726 1.395 . S
C728 C727 1.379 . S
C728 H745 0.930 . S
C729 O712 1.264 . S
C729 O713 1.254 . S
C730 Eu666 2.848 . S
C730 O710 1.257 . S
C730 O715 1.249 . S
C730 C723 1.492 . S
C731 H696 0.931 . S
C731 C709 1.420 . S
C731 C732 1.351 . S
C732 H694 0.930 . S
C732 C700 1.423 . S
C732 C731 1.351 . S
C733 O717 1.276 . S
C733 O720 1.235 . S
C734 C735 1.393 . S
C734 C738 1.395 . S
C734 C741 1.492 . S
C735 C734 1.393 . S
C735 C736 1.392 . S
C735 H746 0.930 . S
C736 C735 1.392 . S
C736 C737 1.386 . S
C737 C736 1.386 . S
C737 C739 1.395 . S
C737 H747 0.930 . S
C738 C734 1.395 . S
C738 C739 1.379 . S
C738 H748 0.930 . S
C739 C737 1.395 . S
C739 C738 1.379 . S
C739 H749 0.930 . S
C740 O718 1.264 . S
C740 O719 1.254 . S
C741 Eu677 2.848 . S
C741 O716 1.257 . S
C741 O721 1.249 . S
C741 C734 1.492 . S
H742 C725 0.930 . S
H743 C726 0.930 . S
H744 C727 0.930 . S
H745 C728 0.930 . S
H746 C735 0.930 . S
H747 C737 0.930 . S
H748 C738 0.930 . S
H749 C739 0.930 . S
Eu750 N781 2.657 . S
Eu750 N788 2.609 . S
Eu750 O794 2.558 . S
Eu750 O795 2.612 . S
Eu750 O797 2.339 . S
Eu750 O798 2.563 . S
Eu750 O799 2.419 . S
Eu750 O801 2.380 . S
Eu750 O802 2.432 . S
Eu750 C814 2.848 . S
C751 C754 1.429 . S
C751 C755 1.411 . S
C751 N758 1.377 . S
C752 C754 1.420 . S
C752 C756 1.423 . S
C752 C764 1.392 . S
C753 C755 1.420 . S
C753 C756 1.351 . S
C753 H776 0.931 . S
C754 C751 1.429 . S
C754 C752 1.420 . S
C754 N762 1.362 . S
C755 C751 1.411 . S
C755 C753 1.420 . S
C755 C760 1.395 . S
C756 C752 1.423 . S
C756 C753 1.351 . S
C756 H768 0.930 . S
C757 C759 1.400 . S
C757 C760 1.386 . S
C757 H769 0.930 . S
N758 C751 1.377 . S
N758 C759 1.321 . S
N758 Eu761 2.609 . S
C759 C757 1.400 . S
C759 N758 1.321 . S
C759 H766 0.930 . S
C760 C755 1.395 . S
C760 C757 1.386 . S
C760 H779 0.930 . S
Eu761 N758 2.609 . S
Eu761 N762 2.657 . S
Eu761 O795 2.380 . S
Eu761 O796 2.432 . S
Eu761 O800 2.558 . S
Eu761 O801 2.612 . S
Eu761 O803 2.339 . S
Eu761 O804 2.563 . S
Eu761 O805 2.419 . S
Eu761 C825 2.848 . S
N762 C754 1.362 . S
N762 Eu761 2.657 . S
N762 C763 1.334 . S
C763 N762 1.334 . S
C763 C765 1.413 . S
C763 H770 0.929 . S
C764 C752 1.392 . S
C764 C765 1.367 . S
C764 H772 0.930 . S
C765 C763 1.413 . S
C765 C764 1.367 . S
C765 H767 0.930 . S
H766 C759 0.930 . S
H767 C765 0.930 . S
H768 C756 0.930 . S
H769 C757 0.930 . S
H770 C763 0.929 . S
H771 C785 0.930 . S
H772 C764 0.930 . S
H773 C791 0.930 . S
H774 C782 0.929 . S
H775 C789 0.930 . S
H776 C753 0.931 . S
H777 C783 0.930 . S
H778 C816 0.930 . S
H779 C760 0.930 . S
H780 C815 0.931 . S
N781 Eu750 2.657 . S
N781 C782 1.334 . S
N781 C786 1.362 . S
C782 H774 0.929 . S
C782 N781 1.334 . S
C782 C785 1.413 . S
C783 H777 0.930 . S
C783 C784 1.392 . S
C783 C785 1.367 . S
C784 C783 1.392 . S
C784 C786 1.420 . S
C784 C816 1.423 . S
C785 H771 0.930 . S
C785 C782 1.413 . S
C785 C783 1.367 . S
C786 N781 1.362 . S
C786 C784 1.420 . S
C786 C790 1.429 . S
H787 C792 0.930 . S
N788 Eu750 2.609 . S
N788 C790 1.377 . S
N788 C791 1.321 . S
C789 H775 0.930 . S
C789 C791 1.400 . S
C789 C792 1.386 . S
C790 C786 1.429 . S
C790 N788 1.377 . S
C790 C793 1.411 . S
C791 H773 0.930 . S
C791 N788 1.321 . S
C791 C789 1.400 . S
C792 H787 0.930 . S
C792 C789 1.386 . S
C792 C793 1.395 . S
C793 C790 1.411 . S
C793 C792 1.395 . S
C793 C815 1.420 . S
O794 Eu750 2.558 . S
O794 C814 1.257 . S
O795 Eu750 2.612 . S
O795 Eu761 2.380 . S
O795 C806 1.276 . S
O796 Eu761 2.432 . S
O796 C813 1.264 . S
O797 Eu750 2.339 . S
O797 C813 1.254 . S
O798 Eu750 2.563 . S
O798 C806 1.235 . S
O799 Eu750 2.419 . S
O799 C814 1.249 . S
O800 Eu761 2.558 . S
O800 C825 1.257 . S
O801 Eu750 2.380 . S
O801 Eu761 2.612 . S
O801 C817 1.276 . S
O802 Eu750 2.432 . S
O802 C824 1.264 . S
O803 Eu761 2.339 . S
O803 C824 1.254 . S
O804 Eu761 2.563 . S
O804 C817 1.235 . S
O805 Eu761 2.419 . S
O805 C825 1.249 . S
C806 O795 1.276 . S
C806 O798 1.235 . S
C807 C809 1.393 . S
C807 C811 1.395 . S
C807 C814 1.492 . S
C808 C809 1.392 . S
C808 C810 1.386 . S
C809 C807 1.393 . S
C809 C808 1.392 . S
C809 H826 0.930 . S
C810 C808 1.386 . S
C810 C812 1.395 . S
C810 H827 0.930 . S
C811 C807 1.395 . S
C811 C812 1.379 . S
C811 H828 0.930 . S
C812 C810 1.395 . S
C812 C811 1.379 . S
C812 H829 0.930 . S
C813 O796 1.264 . S
C813 O797 1.254 . S
C814 Eu750 2.848 . S
C814 O794 1.257 . S
C814 O799 1.249 . S
C814 C807 1.492 . S
C815 H780 0.931 . S
C815 C793 1.420 . S
C815 C816 1.351 . S
C816 H778 0.930 . S
C816 C784 1.423 . S
C816 C815 1.351 . S
C817 O801 1.276 . S
C817 O804 1.235 . S
C818 C819 1.393 . S
C818 C822 1.395 . S
C818 C825 1.492 . S
C819 C818 1.393 . S
C819 C820 1.392 . S
C819 H830 0.930 . S
C820 C819 1.392 . S
C820 C821 1.386 . S
C821 C820 1.386 . S
C821 C823 1.395 . S
C821 H831 0.930 . S
C822 C818 1.395 . S
C822 C823 1.379 . S
C822 H832 0.930 . S
C823 C821 1.395 . S
C823 C822 1.379 . S
C823 H833 0.930 . S
C824 O802 1.264 . S
C824 O803 1.254 . S
C825 Eu761 2.848 . S
C825 O800 1.257 . S
C825 O805 1.249 . S
C825 C818 1.492 . S
H826 C809 0.930 . S
H827 C810 0.930 . S
H828 C811 0.930 . S
H829 C812 0.930 . S
H830 C819 0.930 . S
H831 C821 0.930 . S
H832 C822 0.930 . S
H833 C823 0.930 . S
Eu834 N865 2.657 . S
Eu834 N872 2.609 . S
Eu834 O878 2.558 . S
Eu834 O879 2.612 . S
Eu834 O881 2.339 . S
Eu834 O882 2.563 . S
Eu834 O883 2.419 . S
Eu834 O885 2.380 . S
Eu834 O886 2.432 . S
Eu834 C898 2.848 . S
C835 C838 1.429 . S
C835 C839 1.411 . S
C835 N842 1.377 . S
C836 C838 1.420 . S
C836 C840 1.423 . S
C836 C848 1.392 . S
C837 C839 1.420 . S
C837 C840 1.351 . S
C837 H860 0.931 . S
C838 C835 1.429 . S
C838 C836 1.420 . S
C838 N846 1.362 . S
C839 C835 1.411 . S
C839 C837 1.420 . S
C839 C844 1.395 . S
C840 C836 1.423 . S
C840 C837 1.351 . S
C840 H852 0.930 . S
C841 C843 1.400 . S
C841 C844 1.386 . S
C841 H853 0.930 . S
N842 C835 1.377 . S
N842 C843 1.321 . S
N842 Eu845 2.609 . S
C843 C841 1.400 . S
C843 N842 1.321 . S
C843 H850 0.930 . S
C844 C839 1.395 . S
C844 C841 1.386 . S
C844 H863 0.930 . S
Eu845 N842 2.609 . S
Eu845 N846 2.657 . S
Eu845 O879 2.380 . S
Eu845 O880 2.432 . S
Eu845 O884 2.558 . S
Eu845 O885 2.612 . S
Eu845 O887 2.339 . S
Eu845 O888 2.563 . S
Eu845 O889 2.419 . S
Eu845 C909 2.848 . S
N846 C838 1.362 . S
N846 Eu845 2.657 . S
N846 C847 1.334 . S
C847 N846 1.334 . S
C847 C849 1.413 . S
C847 H854 0.929 . S
C848 C836 1.392 . S
C848 C849 1.367 . S
C848 H856 0.930 . S
C849 C847 1.413 . S
C849 C848 1.367 . S
C849 H851 0.930 . S
H850 C843 0.930 . S
H851 C849 0.930 . S
H852 C840 0.930 . S
H853 C841 0.930 . S
H854 C847 0.929 . S
H855 C869 0.930 . S
H856 C848 0.930 . S
H857 C875 0.930 . S
H858 C866 0.929 . S
H859 C873 0.930 . S
H860 C837 0.931 . S
H861 C867 0.930 . S
H862 C900 0.930 . S
H863 C844 0.930 . S
H864 C899 0.931 . S
N865 Eu834 2.657 . S
N865 C866 1.334 . S
N865 C870 1.362 . S
C866 H858 0.929 . S
C866 N865 1.334 . S
C866 C869 1.413 . S
C867 H861 0.930 . S
C867 C868 1.392 . S
C867 C869 1.367 . S
C868 C867 1.392 . S
C868 C870 1.420 . S
C868 C900 1.423 . S
C869 H855 0.930 . S
C869 C866 1.413 . S
C869 C867 1.367 . S
C870 N865 1.362 . S
C870 C868 1.420 . S
C870 C874 1.429 . S
H871 C876 0.930 . S
N872 Eu834 2.609 . S
N872 C874 1.377 . S
N872 C875 1.321 . S
C873 H859 0.930 . S
C873 C875 1.400 . S
C873 C876 1.386 . S
C874 C870 1.429 . S
C874 N872 1.377 . S
C874 C877 1.411 . S
C875 H857 0.930 . S
C875 N872 1.321 . S
C875 C873 1.400 . S
C876 H871 0.930 . S
C876 C873 1.386 . S
C876 C877 1.395 . S
C877 C874 1.411 . S
C877 C876 1.395 . S
C877 C899 1.420 . S
O878 Eu834 2.558 . S
O878 C898 1.257 . S
O879 Eu834 2.612 . S
O879 Eu845 2.380 . S
O879 C890 1.276 . S
O880 Eu845 2.432 . S
O880 C897 1.264 . S
O881 Eu834 2.339 . S
O881 C897 1.254 . S
O882 Eu834 2.563 . S
O882 C890 1.235 . S
O883 Eu834 2.419 . S
O883 C898 1.249 . S
O884 Eu845 2.558 . S
O884 C909 1.257 . S
O885 Eu834 2.380 . S
O885 Eu845 2.612 . S
O885 C901 1.276 . S
O886 Eu834 2.432 . S
O886 C908 1.264 . S
O887 Eu845 2.339 . S
O887 C908 1.254 . S
O888 Eu845 2.563 . S
O888 C901 1.235 . S
O889 Eu845 2.419 . S
O889 C909 1.249 . S
C890 O879 1.276 . S
C890 O882 1.235 . S
C891 C893 1.393 . S
C891 C895 1.395 . S
C891 C898 1.492 . S
C892 C893 1.392 . S
C892 C894 1.386 . S
C893 C891 1.393 . S
C893 C892 1.392 . S
C893 H910 0.930 . S
C894 C892 1.386 . S
C894 C896 1.395 . S
C894 H911 0.930 . S
C895 C891 1.395 . S
C895 C896 1.379 . S
C895 H912 0.930 . S
C896 C894 1.395 . S
C896 C895 1.379 . S
C896 H913 0.930 . S
C897 O880 1.264 . S
C897 O881 1.254 . S
C898 Eu834 2.848 . S
C898 O878 1.257 . S
C898 O883 1.249 . S
C898 C891 1.492 . S
C899 H864 0.931 . S
C899 C877 1.420 . S
C899 C900 1.351 . S
C900 H862 0.930 . S
C900 C868 1.423 . S
C900 C899 1.351 . S
C901 O885 1.276 . S
C901 O888 1.235 . S
C902 C903 1.393 . S
C902 C906 1.395 . S
C902 C909 1.492 . S
C903 C902 1.393 . S
C903 C904 1.392 . S
C903 H914 0.930 . S
C904 C903 1.392 . S
C904 C905 1.386 . S
C905 C904 1.386 . S
C905 C907 1.395 . S
C905 H915 0.930 . S
C906 C902 1.395 . S
C906 C907 1.379 . S
C906 H916 0.930 . S
C907 C905 1.395 . S
C907 C906 1.379 . S
C907 H917 0.930 . S
C908 O886 1.264 . S
C908 O887 1.254 . S
C909 Eu845 2.848 . S
C909 O884 1.257 . S
C909 O889 1.249 . S
C909 C902 1.492 . S
H910 C893 0.930 . S
H911 C894 0.930 . S
H912 C895 0.930 . S
H913 C896 0.930 . S
H914 C903 0.930 . S
H915 C905 0.930 . S
H916 C906 0.930 . S
H917 C907 0.930 . S
H918 C930 0.930 . S
H919 C932 0.930 . S
H920 C933 0.930 . S
H921 C937 0.959 . S
H922 C937 0.959 . S
H923 C937 0.961 . S
H924 C938 0.960 . S
H925 C938 0.961 . S
H926 C938 0.959 . S
H927 C941 0.929 . S
H928 C942 0.878 1_556 S
H929 C944 0.930 . S
C930 H918 0.930 . S
C930 C931 1.399 . S
C930 C935 1.399 . S
C931 C930 1.399 . S
C931 C932 1.376 . S
C932 H919 0.930 . S
C932 C931 1.376 . S
C932 C933 1.388 . S
C933 H920 0.930 . S
C933 C932 1.388 . S
C933 C934 1.390 . S
C934 C933 1.390 . S
C934 C935 1.394 . S
C934 C940 1.465 . S
C935 C930 1.399 . S
C935 C934 1.394 . S
C935 C936 1.516 . S
C936 C935 1.516 . S
C936 C937 1.502 . S
C936 C938 1.561 . S
C936 C939 1.526 . S
C937 H921 0.959 . S
C937 H922 0.959 . S
C937 H923 0.961 . S
C937 C936 1.502 . S
C938 H924 0.960 . S
C938 H925 0.961 . S
C938 H926 0.959 . S
C938 C936 1.561 . S
C939 C936 1.526 . S
C939 C940 1.396 . S
C939 C944 1.390 . S
C940 C934 1.465 . S
C940 C939 1.396 . S
C940 C941 1.399 . S
C941 H927 0.929 . S
C941 C940 1.399 . S
C941 C942 1.385 . S
C942 H928 0.878 1_554 S
C942 C941 1.385 . S
C942 C943 1.389 . S
C943 C942 1.389 . S
C943 C944 1.387 . S
C944 H929 0.930 . S
C944 C939 1.390 . S
C944 C943 1.387 . S
H945 C957 0.930 . S
H946 C959 0.930 . S
H947 C960 0.930 . S
H948 C964 0.959 . S
H949 C964 0.959 . S
H950 C964 0.961 . S
H951 C965 0.960 . S
H952 C965 0.961 . S
H953 C965 0.959 . S
H954 C968 0.929 . S
H955 C969 0.871 1_556 S
H956 C971 0.930 . S
C957 H945 0.930 . S
C957 C958 1.399 . S
C957 C962 1.399 . S
C958 C957 1.399 . S
C958 C959 1.376 . S
C959 H946 0.930 . S
C959 C958 1.376 . S
C959 C960 1.388 . S
C960 H947 0.930 . S
C960 C959 1.388 . S
C960 C961 1.390 . S
C961 C960 1.390 . S
C961 C962 1.394 . S
C961 C967 1.465 . S
C962 C957 1.399 . S
C962 C961 1.394 . S
C962 C963 1.516 . S
C963 C962 1.516 . S
C963 C964 1.502 . S
C963 C965 1.561 . S
C963 C966 1.526 . S
C964 H948 0.959 . S
C964 H949 0.959 . S
C964 H950 0.961 . S
C964 C963 1.502 . S
C965 H951 0.960 . S
C965 H952 0.961 . S
C965 H953 0.959 . S
C965 C963 1.561 . S
C966 C963 1.526 . S
C966 C967 1.396 . S
C966 C971 1.390 . S
C967 C961 1.465 . S
C967 C966 1.396 . S
C967 C968 1.399 . S
C968 H954 0.929 . S
C968 C967 1.399 . S
C968 C969 1.385 . S
C969 H955 0.871 1_554 S
C969 C968 1.385 . S
C969 C970 1.389 . S
C970 C969 1.389 . S
C970 C971 1.387 . S
C971 H956 0.930 . S
C971 C966 1.390 . S
C971 C970 1.387 . S
H972 C984 0.930 . S
H973 C986 0.930 . S
H974 C987 0.930 . S
H975 C991 0.959 . S
H976 C991 0.959 . S
H977 C991 0.961 . S
H978 C992 0.960 . S
H979 C992 0.961 . S
H980 C992 0.959 . S
H981 C995 0.929 . S
H982 C996 0.931 . S
H983 C998 0.930 . S
C984 H972 0.930 . S
C984 C985 1.399 . S
C984 C989 1.399 . S
C985 C984 1.399 . S
C985 C986 1.376 . S
C986 H973 0.930 . S
C986 C985 1.376 . S
C986 C987 1.388 . S
C987 H974 0.930 . S
C987 C986 1.388 . S
C987 C988 1.390 . S
C988 C987 1.390 . S
C988 C989 1.394 . S
C988 C994 1.465 . S
C989 C984 1.399 . S
C989 C988 1.394 . S
C989 C990 1.516 . S
C990 C989 1.516 . S
C990 C991 1.502 . S
C990 C992 1.561 . S
C990 C993 1.526 . S
C991 H975 0.959 . S
C991 H976 0.959 . S
C991 H977 0.961 . S
C991 C990 1.502 . S
C992 H978 0.960 . S
C992 H979 0.961 . S
C992 H980 0.959 . S
C992 C990 1.561 . S
C993 C990 1.526 . S
C993 C994 1.396 . S
C993 C998 1.390 . S
C994 C988 1.465 . S
C994 C993 1.396 . S
C994 C995 1.399 . S
C995 H981 0.929 . S
C995 C994 1.399 . S
C995 C996 1.385 . S
C996 H982 0.931 . S
C996 C995 1.385 . S
C996 C997 1.389 . S
C997 C996 1.389 . S
C997 C998 1.387 . S
C998 H983 0.930 . S
C998 C993 1.390 . S
C998 C997 1.387 . S
H999 C1011 0.930 . S
H1000 C1013 0.930 . S
H1001 C1014 0.930 . S
H1002 C1018 0.959 . S
H1003 C1018 0.959 1_554 S
H1004 C1018 0.961 . S
H1005 C1019 0.960 . S
H1006 C1019 0.961 1_554 S
H1007 C1019 0.959 . S
H1008 C1022 0.929 . S
H1009 C1023 0.931 . S
H1010 C1025 0.930 1_554 S
C1011 H999 0.930 . S
C1011 C1012 1.399 . S
C1011 C1016 1.399 . S
C1012 C1011 1.399 . S
C1012 C1013 1.376 . S
C1013 H1000 0.930 . S
C1013 C1012 1.376 . S
C1013 C1014 1.388 . S
C1014 H1001 0.930 . S
C1014 C1013 1.388 . S
C1014 C1015 1.390 . S
C1015 C1014 1.390 . S
C1015 C1016 1.394 . S
C1015 C1021 1.465 . S
C1016 C1011 1.399 . S
C1016 C1015 1.394 . S
C1016 C1017 1.516 . S
C1017 C1016 1.516 . S
C1017 C1018 1.502 . S
C1017 C1019 1.561 . S
C1017 C1020 1.526 . S
C1018 H1002 0.959 . S
C1018 H1003 0.959 1_556 S
C1018 H1004 0.961 . S
C1018 C1017 1.502 . S
C1019 H1005 0.960 . S
C1019 H1006 0.961 1_556 S
C1019 H1007 0.959 . S
C1019 C1017 1.561 . S
C1020 C1017 1.526 . S
C1020 C1021 1.396 . S
C1020 C1025 1.390 . S
C1021 C1015 1.465 . S
C1021 C1020 1.396 . S
C1021 C1022 1.399 . S
C1022 H1008 0.929 . S
C1022 C1021 1.399 . S
C1022 C1023 1.385 . S
C1023 H1009 0.931 . S
C1023 C1022 1.385 . S
C1023 C1024 1.389 . S
C1024 C1023 1.389 . S
C1024 C1025 1.387 . S
C1025 H1010 0.930 1_556 S
C1025 C1020 1.390 . S
C1025 C1024 1.387 . S
H1026 C1038 0.930 . S
H1027 C1040 0.930 . S
H1028 C1041 0.930 . S
H1029 C1045 0.959 . S
H1030 C1045 0.951 1_554 S
H1031 C1045 0.961 . S
H1032 C1046 0.960 . S
H1033 C1046 0.961 . S
H1034 C1046 0.959 . S
H1035 C1049 0.929 . S
H1036 C1050 0.931 . S
H1037 C1052 0.930 . S
C1038 H1026 0.930 . S
C1038 C1039 1.399 . S
C1038 C1043 1.399 . S
C1039 C1038 1.399 . S
C1039 C1040 1.376 . S
C1040 H1027 0.930 . S
C1040 C1039 1.376 . S
C1040 C1041 1.388 . S
C1041 H1028 0.930 . S
C1041 C1040 1.388 . S
C1041 C1042 1.390 . S
C1042 C1041 1.390 . S
C1042 C1043 1.394 . S
C1042 C1048 1.465 . S
C1043 C1038 1.399 . S
C1043 C1042 1.394 . S
C1043 C1044 1.516 . S
C1044 C1043 1.516 . S
C1044 C1045 1.502 . S
C1044 C1046 1.561 . S
C1044 C1047 1.526 . S
C1045 H1029 0.959 . S
C1045 H1030 0.951 1_556 S
C1045 H1031 0.961 . S
C1045 C1044 1.502 . S
C1046 H1032 0.960 . S
C1046 H1033 0.961 . S
C1046 H1034 0.959 . S
C1046 C1044 1.561 . S
C1047 C1044 1.526 . S
C1047 C1048 1.396 . S
C1047 C1052 1.390 . S
C1048 C1042 1.465 . S
C1048 C1047 1.396 . S
C1048 C1049 1.399 . S
C1049 H1035 0.929 . S
C1049 C1048 1.399 . S
C1049 C1050 1.385 . S
C1050 H1036 0.931 . S
C1050 C1049 1.385 . S
C1050 C1051 1.389 . S
C1051 C1050 1.389 . S
C1051 C1052 1.387 . S
C1052 H1037 0.930 . S
C1052 C1047 1.390 . S
C1052 C1051 1.387 . S
H1053 C1065 0.930 . S
H1054 C1067 0.930 . S
H1055 C1068 0.930 . S
H1056 C1072 0.959 . S
H1057 C1072 0.959 . S
H1058 C1072 0.961 . S
H1059 C1073 0.960 . S
H1060 C1073 0.961 . S
H1061 C1073 0.959 . S
H1062 C1076 0.929 1_554 S
H1063 C1077 0.930 . S
H1064 C1079 0.930 . S
C1065 H1053 0.930 . S
C1065 C1066 1.399 . S
C1065 C1070 1.399 . S
C1066 C1065 1.399 . S
C1066 C1067 1.376 . S
C1067 H1054 0.930 . S
C1067 C1066 1.376 . S
C1067 C1068 1.388 . S
C1068 H1055 0.930 . S
C1068 C1067 1.388 . S
C1068 C1069 1.390 . S
C1069 C1068 1.390 . S
C1069 C1070 1.394 . S
C1069 C1075 1.465 . S
C1070 C1065 1.399 . S
C1070 C1069 1.394 . S
C1070 C1071 1.516 . S
C1071 C1070 1.516 . S
C1071 C1072 1.502 . S
C1071 C1073 1.561 . S
C1071 C1074 1.526 . S
C1072 H1056 0.959 . S
C1072 H1057 0.959 . S
C1072 H1058 0.961 . S
C1072 C1071 1.502 . S
C1073 H1059 0.960 . S
C1073 H1060 0.961 . S
C1073 H1061 0.959 . S
C1073 C1071 1.561 . S
C1074 C1071 1.526 . S
C1074 C1075 1.396 . S
C1074 C1079 1.390 . S
C1075 C1069 1.465 . S
C1075 C1074 1.396 . S
C1075 C1076 1.399 . S
C1076 H1062 0.929 1_556 S
C1076 C1075 1.399 . S
C1076 C1077 1.385 1_556 S
C1077 H1063 0.930 . S
C1077 C1076 1.385 1_554 S
C1077 C1078 1.390 1_554 S
C1078 C1077 1.390 1_556 S
C1078 C1079 1.387 . S
C1079 H1064 0.930 . S
C1079 C1074 1.390 . S
C1079 C1078 1.387 . S
H1080 C1092 0.930 . S
H1081 C1094 0.930 . S
H1082 C1095 0.930 . S
H1083 C1099 0.959 . S
H1084 C1099 0.959 . S
H1085 C1099 0.961 . S
H1086 C1100 0.960 . S
H1087 C1100 0.961 . S
H1088 C1100 0.959 . S
H1089 C1103 0.929 1_554 S
H1090 C1104 0.931 1_554 S
H1091 C1106 0.930 . S
C1092 H1080 0.930 . S
C1092 C1093 1.399 . S
C1092 C1097 1.399 . S
C1093 C1092 1.399 . S
C1093 C1094 1.376 . S
C1094 H1081 0.930 . S
C1094 C1093 1.376 . S
C1094 C1095 1.388 . S
C1095 H1082 0.930 . S
C1095 C1094 1.388 . S
C1095 C1096 1.390 . S
C1096 C1095 1.390 . S
C1096 C1097 1.394 . S
C1096 C1102 1.465 . S
C1097 C1092 1.399 . S
C1097 C1096 1.394 . S
C1097 C1098 1.516 . S
C1098 C1097 1.516 . S
C1098 C1099 1.502 . S
C1098 C1100 1.561 . S
C1098 C1101 1.526 . S
C1099 H1083 0.959 . S
C1099 H1084 0.959 . S
C1099 H1085 0.961 . S
C1099 C1098 1.502 . S
C1100 H1086 0.960 . S
C1100 H1087 0.961 . S
C1100 H1088 0.959 . S
C1100 C1098 1.561 . S
C1101 C1098 1.526 . S
C1101 C1102 1.396 . S
C1101 C1106 1.390 . S
C1102 C1096 1.465 . S
C1102 C1101 1.396 . S
C1102 C1103 1.399 . S
C1103 H1089 0.929 1_556 S
C1103 C1102 1.399 . S
C1103 C1104 1.385 . S
C1104 H1090 0.931 1_556 S
C1104 C1103 1.385 . S
C1104 C1105 1.389 . S
C1105 C1104 1.389 . S
C1105 C1106 1.387 . S
C1106 H1091 0.930 . S
C1106 C1101 1.390 . S
C1106 C1105 1.387 . S
H1107 C1119 0.930 . S
H1108 C1121 0.930 . S
H1109 C1122 0.930 . S
H1110 C1126 0.959 . S
H1111 C1126 0.959 . S
H1112 C1126 0.961 . S
H1113 C1127 0.960 . S
H1114 C1127 0.961 . S
H1115 C1127 0.959 . S
H1116 C1130 0.929 . S
H1117 C1131 0.931 . S
H1118 C1133 0.930 . S
C1119 H1107 0.930 . S
C1119 C1120 1.399 . S
C1119 C1124 1.399 . S
C1120 C1119 1.399 . S
C1120 C1121 1.376 . S
C1121 H1108 0.930 . S
C1121 C1120 1.376 . S
C1121 C1122 1.388 . S
C1122 H1109 0.930 . S
C1122 C1121 1.388 . S
C1122 C1123 1.390 . S
C1123 C1122 1.390 . S
C1123 C1124 1.394 . S
C1123 C1129 1.465 . S
C1124 C1119 1.399 . S
C1124 C1123 1.394 . S
C1124 C1125 1.516 . S
C1125 C1124 1.516 . S
C1125 C1126 1.502 . S
C1125 C1127 1.561 . S
C1125 C1128 1.526 . S
C1126 H1110 0.959 . S
C1126 H1111 0.959 . S
C1126 H1112 0.961 . S
C1126 C1125 1.502 . S
C1127 H1113 0.960 . S
C1127 H1114 0.961 . S
C1127 H1115 0.959 . S
C1127 C1125 1.561 . S
C1128 C1125 1.526 . S
C1128 C1129 1.396 . S
C1128 C1133 1.390 . S
C1129 C1123 1.465 . S
C1129 C1128 1.396 . S
C1129 C1130 1.399 . S
C1130 H1116 0.929 . S
C1130 C1129 1.399 . S
C1130 C1131 1.385 . S
C1131 H1117 0.931 . S
C1131 C1130 1.385 . S
C1131 C1132 1.389 . S
C1132 C1131 1.389 . S
C1132 C1133 1.387 . S
C1133 H1118 0.930 . S
C1133 C1128 1.390 . S
C1133 C1132 1.387 . S
H1134 C1146 0.930 . S
H1135 C1148 0.930 . S
H1136 C1149 0.930 . S
H1137 C1153 0.959 . S
H1138 C1153 0.959 . S
H1139 C1153 0.961 . S
H1140 C1154 0.960 . S
H1141 C1154 0.961 . S
H1142 C1154 0.961 . S
H1143 C1157 0.929 . S
H1144 C1158 0.931 . S
H1145 C1160 0.930 . S
C1146 H1134 0.930 . S
C1146 C1147 1.399 . S
C1146 C1151 1.399 . S
C1147 C1146 1.399 . S
C1147 C1148 1.376 . S
C1148 H1135 0.930 . S
C1148 C1147 1.376 . S
C1148 C1149 1.388 . S
C1149 H1136 0.930 . S
C1149 C1148 1.388 . S
C1149 C1150 1.390 . S
C1150 C1149 1.390 . S
C1150 C1151 1.394 . S
C1150 C1156 1.465 . S
C1151 C1146 1.399 . S
C1151 C1150 1.394 . S
C1151 C1152 1.516 . S
C1152 C1151 1.516 . S
C1152 C1153 1.502 . S
C1152 C1154 1.561 1_556 S
C1152 C1155 1.526 . S
C1153 H1137 0.959 . S
C1153 H1138 0.959 . S
C1153 H1139 0.961 . S
C1153 C1152 1.502 . S
C1154 H1140 0.960 . S
C1154 H1141 0.961 . S
C1154 H1142 0.961 . S
C1154 C1152 1.561 1_554 S
C1155 C1152 1.526 . S
C1155 C1156 1.396 . S
C1155 C1160 1.390 . S
C1156 C1150 1.465 . S
C1156 C1155 1.396 . S
C1156 C1157 1.399 . S
C1157 H1143 0.929 . S
C1157 C1156 1.399 . S
C1157 C1158 1.385 . S
C1158 H1144 0.931 . S
C1158 C1157 1.385 . S
C1158 C1159 1.389 . S
C1159 C1158 1.389 . S
C1159 C1160 1.387 . S
C1160 H1145 0.930 . S
C1160 C1155 1.390 . S
C1160 C1159 1.387 . S
H1161 C1173 0.930 . S
H1162 C1175 0.930 . S
H1163 C1176 0.930 . S
H1164 C1180 0.959 . S
H1165 C1180 0.959 . S
H1166 C1180 0.961 . S
H1167 C1181 0.960 . S
H1168 C1181 0.961 1_556 S
H1169 C1181 0.959 . S
H1170 C1184 0.929 . S
H1171 C1185 0.931 . S
H1172 C1187 0.930 . S
C1173 H1161 0.930 . S
C1173 C1174 1.399 . S
C1173 C1178 1.399 . S
C1174 C1173 1.399 . S
C1174 C1175 1.376 . S
C1175 H1162 0.930 . S
C1175 C1174 1.376 . S
C1175 C1176 1.388 . S
C1176 H1163 0.930 . S
C1176 C1175 1.388 . S
C1176 C1177 1.390 . S
C1177 C1176 1.390 . S
C1177 C1178 1.394 . S
C1177 C1183 1.465 . S
C1178 C1173 1.399 . S
C1178 C1177 1.394 . S
C1178 C1179 1.516 . S
C1179 C1178 1.516 . S
C1179 C1180 1.502 . S
C1179 C1181 1.561 . S
C1179 C1182 1.526 . S
C1180 H1164 0.959 . S
C1180 H1165 0.959 . S
C1180 H1166 0.961 . S
C1180 C1179 1.502 . S
C1181 H1167 0.960 . S
C1181 H1168 0.961 1_554 S
C1181 H1169 0.959 . S
C1181 C1179 1.561 . S
C1182 C1179 1.526 . S
C1182 C1183 1.396 . S
C1182 C1187 1.390 . S
C1183 C1177 1.465 . S
C1183 C1182 1.396 . S
C1183 C1184 1.399 . S
C1184 H1170 0.929 . S
C1184 C1183 1.399 . S
C1184 C1185 1.385 . S
C1185 H1171 0.931 . S
C1185 C1184 1.385 . S
C1185 C1186 1.389 . S
C1186 C1185 1.389 . S
C1186 C1187 1.387 . S
C1187 H1172 0.930 . S
C1187 C1182 1.390 . S
C1187 C1186 1.387 . S
H1188 C1200 0.930 . S
H1189 C1202 0.930 . S
H1190 C1203 0.930 . S
H1191 C1207 0.959 . S
H1192 C1207 0.959 . S
H1193 C1207 0.961 . S
H1194 C1208 0.960 . S
H1195 C1208 0.961 . S
H1196 C1208 0.959 . S
H1197 C1211 0.929 . S
H1198 C1212 0.931 . S
H1199 C1214 0.930 . S
C1200 H1188 0.930 . S
C1200 C1201 1.399 . S
C1200 C1205 1.399 . S
C1201 C1200 1.399 . S
C1201 C1202 1.376 . S
C1202 H1189 0.930 . S
C1202 C1201 1.376 . S
C1202 C1203 1.388 . S
C1203 H1190 0.930 . S
C1203 C1202 1.388 . S
C1203 C1204 1.390 . S
C1204 C1203 1.390 . S
C1204 C1205 1.394 . S
C1204 C1210 1.465 . S
C1205 C1200 1.399 . S
C1205 C1204 1.394 . S
C1205 C1206 1.516 . S
C1206 C1205 1.516 . S
C1206 C1207 1.502 . S
C1206 C1208 1.561 . S
C1206 C1209 1.526 . S
C1207 H1191 0.959 . S
C1207 H1192 0.959 . S
C1207 H1193 0.961 . S
C1207 C1206 1.502 . S
C1208 H1194 0.960 . S
C1208 H1195 0.961 . S
C1208 H1196 0.959 . S
C1208 C1206 1.561 . S
C1209 C1206 1.526 . S
C1209 C1210 1.396 . S
C1209 C1214 1.390 . S
C1210 C1204 1.465 . S
C1210 C1209 1.396 . S
C1210 C1211 1.399 . S
C1211 H1197 0.929 . S
C1211 C1210 1.399 . S
C1211 C1212 1.385 . S
C1212 H1198 0.931 . S
C1212 C1211 1.385 . S
C1212 C1213 1.389 . S
C1213 C1212 1.389 . S
C1213 C1214 1.387 . S
C1214 H1199 0.930 . S
C1214 C1209 1.390 . S
C1214 C1213 1.387 . S
H1215 C1227 0.930 . S
H1216 C1229 0.930 . S
H1217 C1230 0.930 . S
H1218 C1234 0.959 . S
H1219 C1234 0.959 . S
H1220 C1234 0.961 . S
H1221 C1235 0.960 . S
H1222 C1235 0.961 . S
H1223 C1235 0.959 . S
H1224 C1238 0.929 . S
H1225 C1239 0.931 1_556 S
H1226 C1241 0.930 . S
C1227 H1215 0.930 . S
C1227 C1228 1.399 . S
C1227 C1232 1.399 . S
C1228 C1227 1.399 . S
C1228 C1229 1.376 . S
C1229 H1216 0.930 . S
C1229 C1228 1.376 . S
C1229 C1230 1.388 . S
C1230 H1217 0.930 . S
C1230 C1229 1.388 . S
C1230 C1231 1.390 . S
C1231 C1230 1.390 . S
C1231 C1232 1.394 . S
C1231 C1237 1.465 . S
C1232 C1227 1.399 . S
C1232 C1231 1.394 . S
C1232 C1233 1.516 . S
C1233 C1232 1.516 . S
C1233 C1234 1.502 . S
C1233 C1235 1.561 . S
C1233 C1236 1.526 . S
C1234 H1218 0.959 . S
C1234 H1219 0.959 . S
C1234 H1220 0.961 . S
C1234 C1233 1.502 . S
C1235 H1221 0.960 . S
C1235 H1222 0.961 . S
C1235 H1223 0.959 . S
C1235 C1233 1.561 . S
C1236 C1233 1.526 . S
C1236 C1237 1.396 . S
C1236 C1241 1.390 . S
C1237 C1231 1.465 . S
C1237 C1236 1.396 . S
C1237 C1238 1.399 . S
C1238 H1224 0.929 . S
C1238 C1237 1.399 . S
C1238 C1239 1.385 . S
C1239 H1225 0.931 1_554 S
C1239 C1238 1.385 . S
C1239 C1240 1.389 . S
C1240 C1239 1.389 . S
C1240 C1241 1.387 . S
C1241 H1226 0.930 . S
C1241 C1236 1.390 . S
C1241 C1240 1.387 . S
H1242 C1254 0.930 . S
H1243 C1256 0.930 . S
H1244 C1257 0.930 1_455 S
H1245 C1261 0.959 1_455 S
H1246 C1261 0.959 1_455 S
H1247 C1261 0.961 . S
H1248 C1262 0.960 . S
H1249 C1262 0.961 . S
H1250 C1262 0.959 . S
H1251 C1265 0.929 . S
H1252 C1266 0.931 . S
H1253 C1268 0.930 . S
C1254 H1242 0.930 . S
C1254 C1255 1.399 . S
C1254 C1259 1.399 . S
C1255 C1254 1.399 . S
C1255 C1256 1.376 . S
C1256 H1243 0.930 . S
C1256 C1255 1.376 . S
C1256 C1257 1.388 . S
C1257 H1244 0.930 1_655 S
C1257 C1256 1.388 . S
C1257 C1258 1.390 1_655 S
C1258 C1257 1.390 1_455 S
C1258 C1259 1.394 1_455 S
C1258 C1264 1.465 . S
C1259 C1254 1.399 . S
C1259 C1258 1.394 1_655 S
C1259 C1260 1.516 . S
C1260 C1259 1.516 . S
C1260 C1261 1.502 . S
C1260 C1262 1.561 . S
C1260 C1263 1.526 1_655 S
C1261 H1245 0.959 1_655 S
C1261 H1246 0.959 1_655 S
C1261 H1247 0.961 . S
C1261 C1260 1.502 . S
C1262 H1248 0.960 . S
C1262 H1249 0.961 . S
C1262 H1250 0.959 . S
C1262 C1260 1.561 . S
C1263 C1260 1.526 1_455 S
C1263 C1264 1.396 . S
C1263 C1268 1.390 . S
C1264 C1258 1.465 . S
C1264 C1263 1.396 . S
C1264 C1265 1.399 . S
C1265 H1251 0.929 . S
C1265 C1264 1.399 . S
C1265 C1266 1.385 . S
C1266 H1252 0.931 . S
C1266 C1265 1.385 . S
C1266 C1267 1.389 . S
C1267 C1266 1.389 . S
C1267 C1268 1.387 . S
C1268 H1253 0.930 . S
C1268 C1263 1.390 . S
C1268 C1267 1.387 . S
H1269 C1281 0.930 . S
H1270 C1283 0.930 . S
H1271 C1284 0.930 . S
H1272 C1288 0.959 . S
H1273 C1288 0.959 . S
H1274 C1288 0.961 . S
H1275 C1289 0.960 . S
H1276 C1289 0.961 . S
H1277 C1289 0.959 . S
H1278 C1292 0.929 . S
H1279 C1293 0.931 . S
H1280 C1295 0.930 . S
C1281 H1269 0.930 . S
C1281 C1282 1.399 . S
C1281 C1286 1.399 . S
C1282 C1281 1.399 . S
C1282 C1283 1.376 . S
C1283 H1270 0.930 . S
C1283 C1282 1.376 . S
C1283 C1284 1.388 . S
C1284 H1271 0.930 . S
C1284 C1283 1.388 . S
C1284 C1285 1.390 . S
C1285 C1284 1.390 . S
C1285 C1286 1.394 . S
C1285 C1291 1.465 . S
C1286 C1281 1.399 . S
C1286 C1285 1.394 . S
C1286 C1287 1.516 . S
C1287 C1286 1.516 . S
C1287 C1288 1.502 . S
C1287 C1289 1.561 . S
C1287 C1290 1.526 . S
C1288 H1272 0.959 . S
C1288 H1273 0.959 . S
C1288 H1274 0.961 . S
C1288 C1287 1.502 . S
C1289 H1275 0.960 . S
C1289 H1276 0.961 . S
C1289 H1277 0.959 . S
C1289 C1287 1.561 . S
C1290 C1287 1.526 . S
C1290 C1291 1.396 . S
C1290 C1295 1.390 . S
C1291 C1285 1.465 . S
C1291 C1290 1.396 . S
C1291 C1292 1.399 . S
C1292 H1278 0.929 . S
C1292 C1291 1.399 . S
C1292 C1293 1.385 . S
C1293 H1279 0.931 . S
C1293 C1292 1.385 . S
C1293 C1294 1.389 . S
C1294 C1293 1.389 . S
C1294 C1295 1.387 . S
C1295 H1280 0.930 . S
C1295 C1290 1.390 . S
C1295 C1294 1.387 . S
H1296 C1308 0.930 . S
H1297 C1310 0.930 . S
H1298 C1311 0.944 . S
H1299 C1315 0.959 . S
H1300 C1315 0.959 . S
H1301 C1315 0.961 . S
H1302 C1316 0.960 . S
H1303 C1316 0.961 . S
H1304 C1316 0.959 . S
H1305 C1319 0.929 . S
H1306 C1320 0.931 . S
H1307 C1322 0.930 . S
C1308 H1296 0.930 . S
C1308 C1309 1.399 . S
C1308 C1313 1.399 . S
C1309 C1308 1.399 . S
C1309 C1310 1.376 . S
C1310 H1297 0.930 . S
C1310 C1309 1.376 . S
C1310 C1311 1.388 . S
C1311 H1298 0.944 . S
C1311 C1310 1.388 . S
C1311 C1312 1.390 . S
C1312 C1311 1.390 . S
C1312 C1313 1.394 . S
C1312 C1318 1.465 1_545 S
C1313 C1308 1.399 . S
C1313 C1312 1.394 . S
C1313 C1314 1.516 . S
C1314 C1313 1.516 . S
C1314 C1315 1.502 . S
C1314 C1316 1.561 . S
C1314 C1317 1.526 1_545 S
C1315 H1299 0.959 . S
C1315 H1300 0.959 . S
C1315 H1301 0.961 . S
C1315 C1314 1.502 . S
C1316 H1302 0.960 . S
C1316 H1303 0.961 . S
C1316 H1304 0.959 . S
C1316 C1314 1.561 . S
C1317 C1314 1.526 1_565 S
C1317 C1318 1.396 . S
C1317 C1322 1.390 . S
C1318 C1312 1.465 1_565 S
C1318 C1317 1.396 . S
C1318 C1319 1.399 . S
C1319 H1305 0.929 . S
C1319 C1318 1.399 . S
C1319 C1320 1.385 . S
C1320 H1306 0.931 . S
C1320 C1319 1.385 . S
C1320 C1321 1.389 . S
C1321 C1320 1.389 . S
C1321 C1322 1.387 . S
C1322 H1307 0.930 . S
C1322 C1317 1.390 . S
C1322 C1321 1.387 . S
H1323 C1335 0.930 . S
H1324 C1337 0.930 . S
H1325 C1338 0.930 . S
H1326 C1342 0.959 . S
H1327 C1342 0.959 . S
H1328 C1342 0.961 . S
H1329 C1343 0.960 . S
H1330 C1343 0.961 . S
H1331 C1343 0.959 . S
H1332 C1346 0.929 . S
H1333 C1347 0.931 . S
H1334 C1349 0.930 . S
C1335 H1323 0.930 . S
C1335 C1336 1.399 . S
C1335 C1340 1.399 . S
C1336 C1335 1.399 . S
C1336 C1337 1.376 . S
C1337 H1324 0.930 . S
C1337 C1336 1.376 . S
C1337 C1338 1.388 . S
C1338 H1325 0.930 . S
C1338 C1337 1.388 . S
C1338 C1339 1.390 . S
C1339 C1338 1.390 . S
C1339 C1340 1.394 . S
C1339 C1345 1.465 . S
C1340 C1335 1.399 . S
C1340 C1339 1.394 . S
C1340 C1341 1.516 . S
C1341 C1340 1.516 . S
C1341 C1342 1.502 . S
C1341 C1343 1.561 . S
C1341 C1344 1.526 . S
C1342 H1326 0.959 . S
C1342 H1327 0.959 . S
C1342 H1328 0.961 . S
C1342 C1341 1.502 . S
C1343 H1329 0.960 . S
C1343 H1330 0.961 . S
C1343 H1331 0.959 . S
C1343 C1341 1.561 . S
C1344 C1341 1.526 . S
C1344 C1345 1.396 . S
C1344 C1349 1.390 . S
C1345 C1339 1.465 . S
C1345 C1344 1.396 . S
C1345 C1346 1.399 . S
C1346 H1332 0.929 . S
C1346 C1345 1.399 . S
C1346 C1347 1.385 . S
C1347 H1333 0.931 . S
C1347 C1346 1.385 . S
C1347 C1348 1.389 . S
C1348 C1347 1.389 . S
C1348 C1349 1.387 . S
C1349 H1334 0.930 . S
C1349 C1344 1.390 . S
C1349 C1348 1.387 . S
H1350 C1362 0.930 . S
H1351 C1364 0.930 . S
H1352 C1365 0.930 . S
H1353 C1369 0.959 . S
H1354 C1369 0.959 . S
H1355 C1369 0.961 . S
H1356 C1370 0.960 . S
H1357 C1370 0.961 . S
H1358 C1370 0.959 . S
H1359 C1373 0.929 . S
H1360 C1374 0.931 . S
H1361 C1376 0.930 . S
C1362 H1350 0.930 . S
C1362 C1363 1.399 . S
C1362 C1367 1.399 . S
C1363 C1362 1.399 . S
C1363 C1364 1.376 . S
C1364 H1351 0.930 . S
C1364 C1363 1.376 . S
C1364 C1365 1.388 . S
C1365 H1352 0.930 . S
C1365 C1364 1.388 . S
C1365 C1366 1.390 . S
C1366 C1365 1.390 . S
C1366 C1367 1.394 . S
C1366 C1372 1.465 . S
C1367 C1362 1.399 . S
C1367 C1366 1.394 . S
C1367 C1368 1.516 . S
C1368 C1367 1.516 . S
C1368 C1369 1.502 . S
C1368 C1370 1.561 . S
C1368 C1371 1.526 . S
C1369 H1353 0.959 . S
C1369 H1354 0.959 . S
C1369 H1355 0.961 . S
C1369 C1368 1.502 . S
C1370 H1356 0.960 . S
C1370 H1357 0.961 . S
C1370 H1358 0.959 . S
C1370 C1368 1.561 . S
C1371 C1368 1.526 . S
C1371 C1372 1.396 . S
C1371 C1376 1.390 . S
C1372 C1366 1.465 . S
C1372 C1371 1.396 . S
C1372 C1373 1.399 . S
C1373 H1359 0.929 . S
C1373 C1372 1.399 . S
C1373 C1374 1.385 . S
C1374 H1360 0.931 . S
C1374 C1373 1.385 . S
C1374 C1375 1.389 . S
C1375 C1374 1.389 . S
C1375 C1376 1.387 . S
C1376 H1361 0.930 . S
C1376 C1371 1.390 . S
C1376 C1375 1.387 . S
H1377 C1389 0.930 . S
H1378 C1391 0.930 . S
H1379 C1392 0.930 . S
H1380 C1396 0.959 . S
H1381 C1396 0.959 . S
H1382 C1396 0.961 . S
H1383 C1397 0.960 . S
H1384 C1397 0.961 . S
H1385 C1397 0.959 . S
H1386 C1400 0.929 . S
H1387 C1401 0.931 . S
H1388 C1403 0.930 . S
C1389 H1377 0.930 . S
C1389 C1390 1.399 . S
C1389 C1394 1.399 . S
C1390 C1389 1.399 . S
C1390 C1391 1.376 . S
C1391 H1378 0.930 . S
C1391 C1390 1.376 . S
C1391 C1392 1.388 . S
C1392 H1379 0.930 . S
C1392 C1391 1.388 . S
C1392 C1393 1.390 . S
C1393 C1392 1.390 . S
C1393 C1394 1.394 . S
C1393 C1399 1.465 . S
C1394 C1389 1.399 . S
C1394 C1393 1.394 . S
C1394 C1395 1.516 . S
C1395 C1394 1.516 . S
C1395 C1396 1.502 . S
C1395 C1397 1.561 . S
C1395 C1398 1.526 . S
C1396 H1380 0.959 . S
C1396 H1381 0.959 . S
C1396 H1382 0.961 . S
C1396 C1395 1.502 . S
C1397 H1383 0.960 . S
C1397 H1384 0.961 . S
C1397 H1385 0.959 . S
C1397 C1395 1.561 . S
C1398 C1395 1.526 . S
C1398 C1399 1.396 . S
C1398 C1403 1.390 . S
C1399 C1393 1.465 . S
C1399 C1398 1.396 . S
C1399 C1400 1.399 . S
C1400 H1386 0.929 . S
C1400 C1399 1.399 . S
C1400 C1401 1.385 . S
C1401 H1387 0.931 . S
C1401 C1400 1.385 . S
C1401 C1402 1.389 . S
C1402 C1401 1.389 . S
C1402 C1403 1.387 . S
C1403 H1388 0.930 . S
C1403 C1398 1.390 . S
C1403 C1402 1.387 . S
H1404 C1416 0.930 . S
H1405 C1418 0.930 . S
H1406 C1419 0.930 . S
H1407 C1423 0.959 . S
H1408 C1423 0.959 . S
H1409 C1423 0.961 . S
H1410 C1424 0.960 . S
H1411 C1424 0.961 . S
H1412 C1424 0.959 . S
H1413 C1427 0.929 . S
H1414 C1428 0.931 . S
H1415 C1430 0.930 . S
C1416 H1404 0.930 . S
C1416 C1417 1.399 . S
C1416 C1421 1.399 . S
C1417 C1416 1.399 . S
C1417 C1418 1.376 . S
C1418 H1405 0.930 . S
C1418 C1417 1.376 . S
C1418 C1419 1.388 . S
C1419 H1406 0.930 . S
C1419 C1418 1.388 . S
C1419 C1420 1.390 . S
C1420 C1419 1.390 . S
C1420 C1421 1.394 . S
C1420 C1426 1.465 . S
C1421 C1416 1.399 . S
C1421 C1420 1.394 . S
C1421 C1422 1.516 . S
C1422 C1421 1.516 . S
C1422 C1423 1.502 . S
C1422 C1424 1.561 . S
C1422 C1425 1.526 . S
C1423 H1407 0.959 . S
C1423 H1408 0.959 . S
C1423 H1409 0.961 . S
C1423 C1422 1.502 . S
C1424 H1410 0.960 . S
C1424 H1411 0.961 . S
C1424 H1412 0.959 . S
C1424 C1422 1.561 . S
C1425 C1422 1.526 . S
C1425 C1426 1.396 . S
C1425 C1430 1.390 . S
C1426 C1420 1.465 . S
C1426 C1425 1.396 . S
C1426 C1427 1.399 . S
C1427 H1413 0.929 . S
C1427 C1426 1.399 . S
C1427 C1428 1.385 . S
C1428 H1414 0.931 . S
C1428 C1427 1.385 . S
C1428 C1429 1.389 . S
C1429 C1428 1.389 . S
C1429 C1430 1.387 . S
C1430 H1415 0.930 . S
C1430 C1425 1.390 . S
C1430 C1429 1.387 . S
H1431 C1443 0.930 . S
H1432 C1445 0.930 . S
H1433 C1446 0.930 . S
H1434 C1450 0.959 . S
H1435 C1450 0.959 . S
H1436 C1450 0.961 . S
H1437 C1451 0.960 . S
H1438 C1451 0.961 . S
H1439 C1451 0.959 . S
H1440 C1454 0.929 . S
H1441 C1455 0.931 . S
H1442 C1457 0.930 . S
C1443 H1431 0.930 . S
C1443 C1444 1.399 . S
C1443 C1448 1.399 . S
C1444 C1443 1.399 . S
C1444 C1445 1.376 . S
C1445 H1432 0.930 . S
C1445 C1444 1.376 . S
C1445 C1446 1.388 . S
C1446 H1433 0.930 . S
C1446 C1445 1.388 . S
C1446 C1447 1.390 . S
C1447 C1446 1.390 . S
C1447 C1448 1.394 . S
C1447 C1453 1.465 . S
C1448 C1443 1.399 . S
C1448 C1447 1.394 . S
C1448 C1449 1.516 . S
C1449 C1448 1.516 . S
C1449 C1450 1.502 . S
C1449 C1451 1.561 . S
C1449 C1452 1.526 . S
C1450 H1434 0.959 . S
C1450 H1435 0.959 . S
C1450 H1436 0.961 . S
C1450 C1449 1.502 . S
C1451 H1437 0.960 . S
C1451 H1438 0.961 . S
C1451 H1439 0.959 . S
C1451 C1449 1.561 . S
C1452 C1449 1.526 . S
C1452 C1453 1.396 . S
C1452 C1457 1.390 . S
C1453 C1447 1.465 . S
C1453 C1452 1.396 . S
C1453 C1454 1.399 . S
C1454 H1440 0.929 . S
C1454 C1453 1.399 . S
C1454 C1455 1.385 . S
C1455 H1441 0.931 . S
C1455 C1454 1.385 . S
C1455 C1456 1.389 . S
C1456 C1455 1.389 . S
C1456 C1457 1.387 . S
C1457 H1442 0.930 . S
C1457 C1452 1.390 . S
C1457 C1456 1.387 . S
H1458 C1470 0.930 . S
H1459 C1472 0.930 . S
H1460 C1473 0.930 . S
H1461 C1477 0.959 . S
H1462 C1477 0.959 . S
H1463 C1477 0.961 . S
H1464 C1478 0.960 . S
H1465 C1478 0.961 . S
H1466 C1478 0.959 . S
H1467 C1481 0.929 . S
H1468 C1482 0.931 . S
H1469 C1484 0.930 . S
C1470 H1458 0.930 . S
C1470 C1471 1.399 . S
C1470 C1475 1.399 . S
C1471 C1470 1.399 . S
C1471 C1472 1.376 . S
C1472 H1459 0.930 . S
C1472 C1471 1.376 . S
C1472 C1473 1.388 . S
C1473 H1460 0.930 . S
C1473 C1472 1.388 . S
C1473 C1474 1.390 . S
C1474 C1473 1.390 . S
C1474 C1475 1.394 . S
C1474 C1480 1.465 . S
C1475 C1470 1.399 . S
C1475 C1474 1.394 . S
C1475 C1476 1.516 . S
C1476 C1475 1.516 . S
C1476 C1477 1.502 . S
C1476 C1478 1.561 . S
C1476 C1479 1.526 . S
C1477 H1461 0.959 . S
C1477 H1462 0.959 . S
C1477 H1463 0.961 . S
C1477 C1476 1.502 . S
C1478 H1464 0.960 . S
C1478 H1465 0.961 . S
C1478 H1466 0.959 . S
C1478 C1476 1.561 . S
C1479 C1476 1.526 . S
C1479 C1480 1.396 . S
C1479 C1484 1.390 . S
C1480 C1474 1.465 . S
C1480 C1479 1.396 . S
C1480 C1481 1.399 . S
C1481 H1467 0.929 . S
C1481 C1480 1.399 . S
C1481 C1482 1.385 . S
C1482 H1468 0.931 . S
C1482 C1481 1.385 . S
C1482 C1483 1.389 . S
C1483 C1482 1.389 . S
C1483 C1484 1.387 . S
C1484 H1469 0.930 . S
C1484 C1479 1.390 . S
C1484 C1483 1.387 . S
H1485 C1497 0.930 . S
H1486 C1499 0.930 . S
H1487 C1500 0.930 . S
H1488 C1504 0.959 . S
H1489 C1504 0.959 . S
H1490 C1504 0.961 . S
H1491 C1505 0.960 . S
H1492 C1505 0.961 . S
H1493 C1505 0.959 . S
H1494 C1508 0.929 . S
H1495 C1509 0.931 . S
H1496 C1511 0.930 . S
C1497 H1485 0.930 . S
C1497 C1498 1.399 . S
C1497 C1502 1.399 . S
C1498 C1497 1.399 . S
C1498 C1499 1.376 . S
C1499 H1486 0.930 . S
C1499 C1498 1.376 . S
C1499 C1500 1.388 . S
C1500 H1487 0.930 . S
C1500 C1499 1.388 . S
C1500 C1501 1.390 . S
C1501 C1500 1.390 . S
C1501 C1502 1.394 . S
C1501 C1507 1.465 1_545 S
C1502 C1497 1.399 . S
C1502 C1501 1.394 . S
C1502 C1503 1.516 1_545 S
C1503 C1502 1.516 1_565 S
C1503 C1504 1.502 . S
C1503 C1505 1.561 . S
C1503 C1506 1.526 . S
C1504 H1488 0.959 . S
C1504 H1489 0.959 . S
C1504 H1490 0.961 . S
C1504 C1503 1.502 . S
C1505 H1491 0.960 . S
C1505 H1492 0.961 . S
C1505 H1493 0.959 . S
C1505 C1503 1.561 . S
C1506 C1503 1.526 . S
C1506 C1507 1.396 . S
C1506 C1511 1.390 . S
C1507 C1501 1.465 1_565 S
C1507 C1506 1.396 . S
C1507 C1508 1.399 . S
C1508 H1494 0.929 . S
C1508 C1507 1.399 . S
C1508 C1509 1.385 . S
C1509 H1495 0.931 . S
C1509 C1508 1.385 . S
C1509 C1510 1.389 . S
C1510 C1509 1.389 . S
C1510 C1511 1.387 . S
C1511 H1496 0.930 . S
C1511 C1506 1.390 . S
C1511 C1510 1.387 . S
H1512 C1524 0.930 . S
H1513 C1526 0.930 . S
H1514 C1527 0.930 . S
H1515 C1531 0.959 . S
H1516 C1531 0.959 . S
H1517 C1531 0.961 1_655 S
H1518 C1532 0.960 . S
H1519 C1532 0.961 . S
H1520 C1532 0.959 . S
H1521 C1535 0.929 . S
H1522 C1536 0.931 . S
H1523 C1538 0.930 . S
C1524 H1512 0.930 . S
C1524 C1525 1.399 . S
C1524 C1529 1.399 . S
C1525 C1524 1.399 . S
C1525 C1526 1.376 . S
C1526 H1513 0.930 . S
C1526 C1525 1.376 . S
C1526 C1527 1.388 . S
C1527 H1514 0.930 . S
C1527 C1526 1.388 . S
C1527 C1528 1.391 1_655 S
C1528 C1527 1.391 1_455 S
C1528 C1529 1.397 1_455 S
C1528 C1534 1.461 . S
C1529 C1524 1.399 . S
C1529 C1528 1.397 1_655 S
C1529 C1530 1.516 1_655 S
C1530 C1529 1.516 1_455 S
C1530 C1531 1.502 . S
C1530 C1532 1.561 . S
C1530 C1533 1.526 . S
C1531 H1515 0.959 . S
C1531 H1516 0.959 . S
C1531 H1517 0.961 1_455 S
C1531 C1530 1.502 . S
C1532 H1518 0.960 . S
C1532 H1519 0.961 . S
C1532 H1520 0.959 . S
C1532 C1530 1.561 . S
C1533 C1530 1.526 . S
C1533 C1534 1.396 . S
C1533 C1538 1.390 . S
C1534 C1528 1.461 . S
C1534 C1533 1.396 . S
C1534 C1535 1.399 . S
C1535 H1521 0.929 . S
C1535 C1534 1.399 . S
C1535 C1536 1.385 . S
C1536 H1522 0.931 . S
C1536 C1535 1.385 . S
C1536 C1537 1.389 . S
C1537 C1536 1.389 . S
C1537 C1538 1.387 . S
C1538 H1523 0.930 . S
C1538 C1533 1.390 . S
C1538 C1537 1.387 . S
H1539 C1551 0.930 . S
H1540 C1553 0.930 . S
H1541 C1554 0.930 . S
H1542 C1558 0.959 . S
H1543 C1558 0.959 . S
H1544 C1558 0.961 . S
H1545 C1559 0.960 . S
H1546 C1559 0.961 . S
H1547 C1559 0.959 . S
H1548 C1562 0.929 . S
H1549 C1563 0.931 . S
H1550 C1565 0.930 . S
C1551 H1539 0.930 . S
C1551 C1552 1.399 . S
C1551 C1556 1.399 . S
C1552 C1551 1.399 . S
C1552 C1553 1.376 . S
C1553 H1540 0.930 . S
C1553 C1552 1.376 . S
C1553 C1554 1.388 . S
C1554 H1541 0.930 . S
C1554 C1553 1.388 . S
C1554 C1555 1.390 . S
C1555 C1554 1.390 . S
C1555 C1556 1.394 . S
C1555 C1561 1.465 . S
C1556 C1551 1.399 . S
C1556 C1555 1.394 . S
C1556 C1557 1.516 . S
C1557 C1556 1.516 . S
C1557 C1558 1.502 . S
C1557 C1559 1.561 . S
C1557 C1560 1.526 . S
C1558 H1542 0.959 . S
C1558 H1543 0.959 . S
C1558 H1544 0.961 . S
C1558 C1557 1.502 . S
C1559 H1545 0.960 . S
C1559 H1546 0.961 . S
C1559 H1547 0.959 . S
C1559 C1557 1.561 . S
C1560 C1557 1.526 . S
C1560 C1561 1.396 . S
C1560 C1565 1.390 . S
C1561 C1555 1.465 . S
C1561 C1560 1.396 . S
C1561 C1562 1.399 . S
C1562 H1548 0.929 . S
C1562 C1561 1.399 . S
C1562 C1563 1.385 . S
C1563 H1549 0.931 . S
C1563 C1562 1.385 . S
C1563 C1564 1.389 . S
C1564 C1563 1.389 . S
C1564 C1565 1.387 . S
C1565 H1550 0.930 . S
C1565 C1560 1.390 . S
C1565 C1564 1.387 . S
H1566 C1578 0.930 . S
H1567 C1580 0.930 . S
H1568 C1581 0.930 . S
H1569 C1585 0.959 . S
H1570 C1585 0.959 . S
H1571 C1585 0.961 . S
H1572 C1586 0.960 . S
H1573 C1586 0.961 . S
H1574 C1586 0.959 . S
H1575 C1589 0.929 . S
H1576 C1590 0.931 . S
H1577 C1592 0.930 . S
C1578 H1566 0.930 . S
C1578 C1579 1.399 . S
C1578 C1583 1.399 . S
C1579 C1578 1.399 . S
C1579 C1580 1.376 . S
C1580 H1567 0.930 . S
C1580 C1579 1.376 . S
C1580 C1581 1.388 . S
C1581 H1568 0.930 . S
C1581 C1580 1.388 . S
C1581 C1582 1.390 . S
C1582 C1581 1.390 . S
C1582 C1583 1.394 . S
C1582 C1588 1.465 . S
C1583 C1578 1.399 . S
C1583 C1582 1.394 . S
C1583 C1584 1.516 . S
C1584 C1583 1.516 . S
C1584 C1585 1.502 . S
C1584 C1586 1.561 . S
C1584 C1587 1.526 . S
C1585 H1569 0.959 . S
C1585 H1570 0.959 . S
C1585 H1571 0.961 . S
C1585 C1584 1.502 . S
C1586 H1572 0.960 . S
C1586 H1573 0.961 . S
C1586 H1574 0.959 . S
C1586 C1584 1.561 . S
C1587 C1584 1.526 . S
C1587 C1588 1.396 . S
C1587 C1592 1.390 . S
C1588 C1582 1.465 . S
C1588 C1587 1.396 . S
C1588 C1589 1.399 . S
C1589 H1575 0.929 . S
C1589 C1588 1.399 . S
C1589 C1590 1.385 . S
C1590 H1576 0.931 . S
C1590 C1589 1.385 . S
C1590 C1591 1.389 . S
C1591 C1590 1.389 . S
C1591 C1592 1.387 . S
C1592 H1577 0.930 . S
C1592 C1587 1.390 . S
C1592 C1591 1.387 . S
H1593 C1605 0.930 . S
H1594 C1607 0.930 . S
H1595 C1608 0.930 . S
H1596 C1612 0.959 . S
H1597 C1612 0.959 . S
H1598 C1612 0.961 . S
H1599 C1613 0.960 . S
H1600 C1613 0.961 . S
H1601 C1613 0.959 . S
H1602 C1616 0.929 . S
H1603 C1617 0.931 . S
H1604 C1619 0.930 . S
C1605 H1593 0.930 . S
C1605 C1606 1.399 . S
C1605 C1610 1.399 . S
C1606 C1605 1.399 . S
C1606 C1607 1.376 . S
C1607 H1594 0.930 . S
C1607 C1606 1.376 . S
C1607 C1608 1.388 . S
C1608 H1595 0.930 . S
C1608 C1607 1.388 . S
C1608 C1609 1.390 . S
C1609 C1608 1.390 . S
C1609 C1610 1.394 . S
C1609 C1615 1.465 . S
C1610 C1605 1.399 . S
C1610 C1609 1.394 . S
C1610 C1611 1.516 . S
C1611 C1610 1.516 . S
C1611 C1612 1.502 . S
C1611 C1613 1.561 . S
C1611 C1614 1.526 . S
C1612 H1596 0.959 . S
C1612 H1597 0.959 . S
C1612 H1598 0.961 . S
C1612 C1611 1.502 . S
C1613 H1599 0.960 . S
C1613 H1600 0.961 . S
C1613 H1601 0.959 . S
C1613 C1611 1.561 . S
C1614 C1611 1.526 . S
C1614 C1615 1.396 . S
C1614 C1619 1.390 . S
C1615 C1609 1.465 . S
C1615 C1614 1.396 . S
C1615 C1616 1.399 . S
C1616 H1602 0.929 . S
C1616 C1615 1.399 . S
C1616 C1617 1.385 . S
C1617 H1603 0.931 . S
C1617 C1616 1.385 . S
C1617 C1618 1.389 . S
C1618 C1617 1.389 . S
C1618 C1619 1.387 . S
C1619 H1604 0.930 . S
C1619 C1614 1.390 . S
C1619 C1618 1.387 . S
H1620 C1632 0.930 . S
H1621 C1634 0.930 . S
H1622 C1635 0.930 . S
H1623 C1639 0.959 . S
H1624 C1639 0.959 . S
H1625 C1639 0.961 . S
H1626 C1640 0.960 . S
H1627 C1640 0.961 . S
H1628 C1640 0.959 . S
H1629 C1643 0.929 . S
H1630 C1644 0.931 . S
H1631 C1646 0.930 . S
C1632 H1620 0.930 . S
C1632 C1633 1.399 . S
C1632 C1637 1.399 . S
C1633 C1632 1.399 . S
C1633 C1634 1.376 . S
C1634 H1621 0.930 . S
C1634 C1633 1.376 . S
C1634 C1635 1.388 . S
C1635 H1622 0.930 . S
C1635 C1634 1.388 . S
C1635 C1636 1.390 . S
C1636 C1635 1.390 . S
C1636 C1637 1.394 . S
C1636 C1642 1.465 . S
C1637 C1632 1.399 . S
C1637 C1636 1.394 . S
C1637 C1638 1.516 . S
C1638 C1637 1.516 . S
C1638 C1639 1.502 . S
C1638 C1640 1.561 . S
C1638 C1641 1.526 . S
C1639 H1623 0.959 . S
C1639 H1624 0.959 . S
C1639 H1625 0.961 . S
C1639 C1638 1.502 . S
C1640 H1626 0.960 . S
C1640 H1627 0.961 . S
C1640 H1628 0.959 . S
C1640 C1638 1.561 . S
C1641 C1638 1.526 . S
C1641 C1642 1.396 . S
C1641 C1646 1.390 . S
C1642 C1636 1.465 . S
C1642 C1641 1.396 . S
C1642 C1643 1.399 . S
C1643 H1629 0.929 . S
C1643 C1642 1.399 . S
C1643 C1644 1.385 . S
C1644 H1630 0.931 . S
C1644 C1643 1.385 . S
C1644 C1645 1.389 . S
C1645 C1644 1.389 . S
C1645 C1646 1.387 . S
C1646 H1631 0.930 . S
C1646 C1641 1.390 . S
C1646 C1645 1.387 . S
H1647 C1659 0.930 . S
H1648 C1661 0.930 . S
H1649 C1662 0.930 . S
H1650 C1666 0.962 . S
H1651 C1666 0.961 . S
H1652 C1666 0.959 1_565 S
H1653 C1667 0.960 . S
H1654 C1667 0.961 . S
H1655 C1667 0.959 . S
H1656 C1670 0.929 . S
H1657 C1671 0.931 . S
H1658 C1673 0.930 . S
C1659 H1647 0.930 . S
C1659 C1660 1.399 . S
C1659 C1664 1.399 . S
C1660 C1659 1.399 . S
C1660 C1661 1.376 . S
C1661 H1648 0.930 . S
C1661 C1660 1.376 . S
C1661 C1662 1.388 . S
C1662 H1649 0.930 . S
C1662 C1661 1.388 . S
C1662 C1663 1.390 . S
C1663 C1662 1.390 . S
C1663 C1664 1.394 . S
C1663 C1669 1.465 1_565 S
C1664 C1659 1.399 . S
C1664 C1663 1.394 . S
C1664 C1665 1.516 . S
C1665 C1664 1.516 . S
C1665 C1666 1.500 1_565 S
C1665 C1667 1.561 . S
C1665 C1668 1.526 1_565 S
C1666 H1650 0.962 . S
C1666 H1651 0.961 . S
C1666 H1652 0.959 1_545 S
C1666 C1665 1.500 1_545 S
C1667 H1653 0.960 . S
C1667 H1654 0.961 . S
C1667 H1655 0.959 . S
C1667 C1665 1.561 . S
C1668 C1665 1.526 1_545 S
C1668 C1669 1.396 . S
C1668 C1673 1.390 . S
C1669 C1663 1.465 1_545 S
C1669 C1668 1.396 . S
C1669 C1670 1.399 . S
C1670 H1656 0.929 . S
C1670 C1669 1.399 . S
C1670 C1671 1.385 . S
C1671 H1657 0.931 . S
C1671 C1670 1.385 . S
C1671 C1672 1.389 . S
C1672 C1671 1.389 . S
C1672 C1673 1.387 . S
C1673 H1658 0.930 . S
C1673 C1668 1.390 . S
C1673 C1672 1.387 . S
H1674 C1686 0.930 . S
H1675 C1688 0.930 . S
H1676 C1689 0.930 1_655 S
H1677 C1693 0.959 1_655 S
H1678 C1693 0.959 1_655 S
H1679 C1693 0.962 . S
H1680 C1694 0.960 . S
H1681 C1694 0.961 . S
H1682 C1694 0.959 . S
H1683 C1697 0.929 . S
H1684 C1698 0.931 . S
H1685 C1700 0.930 . S
C1686 H1674 0.930 . S
C1686 C1687 1.399 . S
C1686 C1691 1.399 . S
C1687 C1686 1.399 . S
C1687 C1688 1.376 . S
C1688 H1675 0.930 . S
C1688 C1687 1.376 . S
C1688 C1689 1.388 . S
C1689 H1676 0.930 1_455 S
C1689 C1688 1.388 . S
C1689 C1690 1.390 1_455 S
C1690 C1689 1.390 1_655 S
C1690 C1691 1.394 1_655 S
C1690 C1696 1.465 . S
C1691 C1686 1.399 . S
C1691 C1690 1.394 1_455 S
C1691 C1692 1.527 . S
C1692 C1691 1.527 . S
C1692 C1693 1.512 . S
C1692 C1694 1.563 . S
C1692 C1695 1.501 1_455 S
C1693 H1677 0.959 1_455 S
C1693 H1678 0.959 1_455 S
C1693 H1679 0.962 . S
C1693 C1692 1.512 . S
C1694 H1680 0.960 . S
C1694 H1681 0.961 . S
C1694 H1682 0.959 . S
C1694 C1692 1.563 . S
C1695 C1692 1.501 1_655 S
C1695 C1696 1.396 . S
C1695 C1700 1.390 . S
C1696 C1690 1.465 . S
C1696 C1695 1.396 . S
C1696 C1697 1.399 . S
C1697 H1683 0.929 . S
C1697 C1696 1.399 . S
C1697 C1698 1.385 . S
C1698 H1684 0.931 . S
C1698 C1697 1.385 . S
C1698 C1699 1.389 . S
C1699 C1698 1.389 . S
C1699 C1700 1.387 . S
C1700 H1685 0.930 . S
C1700 C1695 1.390 . S
C1700 C1699 1.387 . S
H1701 C1713 0.930 . S
H1702 C1715 0.930 . S
H1703 C1716 0.930 . S
H1704 C1720 0.959 . S
H1705 C1720 0.959 . S
H1706 C1720 0.961 . S
H1707 C1721 0.960 . S
H1708 C1721 0.961 . S
H1709 C1721 0.959 . S
H1710 C1724 0.929 . S
H1711 C1725 0.931 . S
H1712 C1727 0.930 . S
C1713 H1701 0.930 . S
C1713 C1714 1.399 . S
C1713 C1718 1.399 . S
C1714 C1713 1.399 . S
C1714 C1715 1.376 . S
C1715 H1702 0.930 . S
C1715 C1714 1.376 . S
C1715 C1716 1.388 . S
C1716 H1703 0.930 . S
C1716 C1715 1.388 . S
C1716 C1717 1.390 . S
C1717 C1716 1.390 . S
C1717 C1718 1.394 . S
C1717 C1723 1.465 . S
C1718 C1713 1.399 . S
C1718 C1717 1.394 . S
C1718 C1719 1.516 . S
C1719 C1718 1.516 . S
C1719 C1720 1.502 . S
C1719 C1721 1.561 . S
C1719 C1722 1.526 . S
C1720 H1704 0.959 . S
C1720 H1705 0.959 . S
C1720 H1706 0.961 . S
C1720 C1719 1.502 . S
C1721 H1707 0.960 . S
C1721 H1708 0.961 . S
C1721 H1709 0.959 . S
C1721 C1719 1.561 . S
C1722 C1719 1.526 . S
C1722 C1723 1.396 . S
C1722 C1727 1.390 . S
C1723 C1717 1.465 . S
C1723 C1722 1.396 . S
C1723 C1724 1.399 . S
C1724 H1710 0.929 . S
C1724 C1723 1.399 . S
C1724 C1725 1.385 . S
C1725 H1711 0.931 . S
C1725 C1724 1.385 . S
C1725 C1726 1.389 . S
C1726 C1725 1.389 . S
C1726 C1727 1.387 . S
C1727 H1712 0.930 . S
C1727 C1722 1.390 . S
C1727 C1726 1.387 . S
H1728 C1740 0.930 . S
H1729 C1742 0.930 . S
H1730 C1743 0.930 1_655 S
H1731 C1747 0.959 . S
H1732 C1747 0.959 . S
H1733 C1747 0.961 . S
H1734 C1748 0.960 . S
H1735 C1748 0.961 . S
H1736 C1748 0.959 . S
H1737 C1751 0.929 . S
H1738 C1752 0.931 . S
H1739 C1754 0.930 . S
C1740 H1728 0.930 . S
C1740 C1741 1.399 . S
C1740 C1745 1.399 . S
C1741 C1740 1.399 . S
C1741 C1742 1.376 . S
C1742 H1729 0.930 . S
C1742 C1741 1.376 . S
C1742 C1743 1.388 . S
C1743 H1730 0.930 1_455 S
C1743 C1742 1.388 . S
C1743 C1744 1.390 1_455 S
C1744 C1743 1.390 1_655 S
C1744 C1745 1.394 1_655 S
C1744 C1750 1.465 . S
C1745 C1740 1.399 . S
C1745 C1744 1.394 1_455 S
C1745 C1746 1.516 . S
C1746 C1745 1.516 . S
C1746 C1747 1.502 . S
C1746 C1748 1.561 . S
C1746 C1749 1.526 1_455 S
C1747 H1731 0.959 . S
C1747 H1732 0.959 . S
C1747 H1733 0.961 . S
C1747 C1746 1.502 . S
C1748 H1734 0.960 . S
C1748 H1735 0.961 . S
C1748 H1736 0.959 . S
C1748 C1746 1.561 . S
C1749 C1746 1.526 1_655 S
C1749 C1750 1.396 . S
C1749 C1754 1.390 . S
C1750 C1744 1.465 . S
C1750 C1749 1.396 . S
C1750 C1751 1.399 . S
C1751 H1737 0.929 . S
C1751 C1750 1.399 . S
C1751 C1752 1.385 . S
C1752 H1738 0.931 . S
C1752 C1751 1.385 . S
C1752 C1753 1.389 . S
C1753 C1752 1.389 . S
C1753 C1754 1.387 . S
C1754 H1739 0.930 . S
C1754 C1749 1.390 . S
C1754 C1753 1.387 . S
H1755 C1767 0.930 . S
H1756 C1769 0.930 . S
H1757 C1770 0.930 . S
H1758 C1774 0.959 . S
H1759 C1774 0.959 . S
H1760 C1774 0.961 . S
H1761 C1775 0.960 . S
H1762 C1775 0.961 . S
H1763 C1775 0.959 . S
H1764 C1778 0.929 . S
H1765 C1779 0.931 . S
H1766 C1781 0.930 . S
C1767 H1755 0.930 . S
C1767 C1768 1.399 . S
C1767 C1772 1.399 . S
C1768 C1767 1.399 . S
C1768 C1769 1.376 . S
C1769 H1756 0.930 . S
C1769 C1768 1.376 . S
C1769 C1770 1.388 . S
C1770 H1757 0.930 . S
C1770 C1769 1.388 . S
C1770 C1771 1.390 . S
C1771 C1770 1.390 . S
C1771 C1772 1.394 . S
C1771 C1777 1.465 . S
C1772 C1767 1.399 . S
C1772 C1771 1.394 . S
C1772 C1773 1.516 . S
C1773 C1772 1.516 . S
C1773 C1774 1.502 . S
C1773 C1775 1.561 . S
C1773 C1776 1.526 . S
C1774 H1758 0.959 . S
C1774 H1759 0.959 . S
C1774 H1760 0.961 . S
C1774 C1773 1.502 . S
C1775 H1761 0.960 . S
C1775 H1762 0.961 . S
C1775 H1763 0.959 . S
C1775 C1773 1.561 . S
C1776 C1773 1.526 . S
C1776 C1777 1.396 . S
C1776 C1781 1.390 . S
C1777 C1771 1.465 . S
C1777 C1776 1.396 . S
C1777 C1778 1.399 . S
C1778 H1764 0.929 . S
C1778 C1777 1.399 . S
C1778 C1779 1.385 . S
C1779 H1765 0.931 . S
C1779 C1778 1.385 . S
C1779 C1780 1.389 . S
C1780 C1779 1.389 . S
C1780 C1781 1.387 . S
C1781 H1766 0.930 . S
C1781 C1776 1.390 . S
C1781 C1780 1.387 . S
H1782 C1794 0.930 . S
H1783 C1796 0.930 . S
H1784 C1797 0.930 . S
H1785 C1801 0.959 1_545 S
H1786 C1801 0.959 1_545 S
H1787 C1801 0.961 . S
H1788 C1802 0.960 . S
H1789 C1802 0.961 . S
H1790 C1802 0.959 . S
H1791 C1805 0.929 . S
H1792 C1806 0.931 . S
H1793 C1808 0.930 . S
C1794 H1782 0.930 . S
C1794 C1795 1.399 . S
C1794 C1799 1.399 . S
C1795 C1794 1.399 . S
C1795 C1796 1.376 . S
C1796 H1783 0.930 . S
C1796 C1795 1.376 . S
C1796 C1797 1.388 . S
C1797 H1784 0.930 . S
C1797 C1796 1.388 . S
C1797 C1798 1.390 . S
C1798 C1797 1.390 . S
C1798 C1799 1.394 . S
C1798 C1804 1.465 1_565 S
C1799 C1794 1.399 . S
C1799 C1798 1.394 . S
C1799 C1800 1.516 . S
C1800 C1799 1.516 . S
C1800 C1801 1.502 . S
C1800 C1802 1.561 . S
C1800 C1803 1.526 1_565 S
C1801 H1785 0.959 1_565 S
C1801 H1786 0.959 1_565 S
C1801 H1787 0.961 . S
C1801 C1800 1.502 . S
C1802 H1788 0.960 . S
C1802 H1789 0.961 . S
C1802 H1790 0.959 . S
C1802 C1800 1.561 . S
C1803 C1800 1.526 1_545 S
C1803 C1804 1.396 . S
C1803 C1808 1.390 . S
C1804 C1798 1.465 1_545 S
C1804 C1803 1.396 . S
C1804 C1805 1.399 . S
C1805 H1791 0.929 . S
C1805 C1804 1.399 . S
C1805 C1806 1.385 . S
C1806 H1792 0.931 . S
C1806 C1805 1.385 . S
C1806 C1807 1.389 . S
C1807 C1806 1.389 . S
C1807 C1808 1.387 . S
C1808 H1793 0.930 . S
C1808 C1803 1.390 . S
C1808 C1807 1.387 . S
H1809 C1821 0.930 . S
H1810 C1823 0.930 . S
H1811 C1824 0.930 . S
H1812 C1828 0.959 . S
H1813 C1828 0.959 . S
H1814 C1828 0.961 . S
H1815 C1829 0.960 . S
H1816 C1829 0.961 . S
H1817 C1829 0.959 . S
H1818 C1832 0.929 . S
H1819 C1833 0.931 . S
H1820 C1835 0.930 . S
C1821 H1809 0.930 . S
C1821 C1822 1.399 . S
C1821 C1826 1.399 . S
C1822 C1821 1.399 . S
C1822 C1823 1.376 . S
C1823 H1810 0.930 . S
C1823 C1822 1.376 . S
C1823 C1824 1.388 . S
C1824 H1811 0.930 . S
C1824 C1823 1.388 . S
C1824 C1825 1.390 . S
C1825 C1824 1.390 . S
C1825 C1826 1.394 . S
C1825 C1831 1.465 . S
C1826 C1821 1.399 . S
C1826 C1825 1.394 . S
C1826 C1827 1.516 . S
C1827 C1826 1.516 . S
C1827 C1828 1.502 . S
C1827 C1829 1.561 . S
C1827 C1830 1.526 . S
C1828 H1812 0.959 . S
C1828 H1813 0.959 . S
C1828 H1814 0.961 . S
C1828 C1827 1.502 . S
C1829 H1815 0.960 . S
C1829 H1816 0.961 . S
C1829 H1817 0.959 . S
C1829 C1827 1.561 . S
C1830 C1827 1.526 . S
C1830 C1831 1.396 . S
C1830 C1835 1.390 . S
C1831 C1825 1.465 . S
C1831 C1830 1.396 . S
C1831 C1832 1.399 . S
C1832 H1818 0.929 . S
C1832 C1831 1.399 . S
C1832 C1833 1.385 . S
C1833 H1819 0.931 . S
C1833 C1832 1.385 . S
C1833 C1834 1.389 . S
C1834 C1833 1.389 . S
C1834 C1835 1.387 . S
C1835 H1820 0.930 . S
C1835 C1830 1.390 . S
C1835 C1834 1.387 . S
H1836 C1848 0.930 . S
H1837 C1850 0.930 . S
H1838 C1851 0.930 . S
H1839 C1855 0.959 . S
H1840 C1855 0.959 . S
H1841 C1855 0.961 . S
H1842 C1856 0.960 . S
H1843 C1856 0.961 . S
H1844 C1856 0.959 . S
H1845 C1859 0.929 . S
H1846 C1860 0.931 . S
H1847 C1862 0.930 . S
C1848 H1836 0.930 . S
C1848 C1849 1.399 . S
C1848 C1853 1.399 . S
C1849 C1848 1.399 . S
C1849 C1850 1.376 . S
C1850 H1837 0.930 . S
C1850 C1849 1.376 . S
C1850 C1851 1.388 . S
C1851 H1838 0.930 . S
C1851 C1850 1.388 . S
C1851 C1852 1.390 . S
C1852 C1851 1.390 . S
C1852 C1853 1.394 . S
C1852 C1858 1.465 . S
C1853 C1848 1.399 . S
C1853 C1852 1.394 . S
C1853 C1854 1.516 . S
C1854 C1853 1.516 . S
C1854 C1855 1.502 . S
C1854 C1856 1.561 . S
C1854 C1857 1.526 . S
C1855 H1839 0.959 . S
C1855 H1840 0.959 . S
C1855 H1841 0.961 . S
C1855 C1854 1.502 . S
C1856 H1842 0.960 . S
C1856 H1843 0.961 . S
C1856 H1844 0.959 . S
C1856 C1854 1.561 . S
C1857 C1854 1.526 . S
C1857 C1858 1.396 . S
C1857 C1862 1.390 . S
C1858 C1852 1.465 . S
C1858 C1857 1.396 . S
C1858 C1859 1.399 . S
C1859 H1845 0.929 . S
C1859 C1858 1.399 . S
C1859 C1860 1.385 . S
C1860 H1846 0.931 . S
C1860 C1859 1.385 . S
C1860 C1861 1.389 . S
C1861 C1860 1.389 . S
C1861 C1862 1.387 . S
C1862 H1847 0.930 . S
C1862 C1857 1.390 . S
C1862 C1861 1.387 . S
H1863 C1875 0.930 . S
H1864 C1877 0.930 . S
H1865 C1878 0.930 . S
H1866 C1882 0.959 . S
H1867 C1882 0.959 . S
H1868 C1882 0.961 . S
H1869 C1883 0.960 . S
H1870 C1883 0.961 . S
H1871 C1883 0.959 . S
H1872 C1886 0.929 . S
H1873 C1887 0.931 . S
H1874 C1889 0.930 . S
C1875 H1863 0.930 . S
C1875 C1876 1.399 . S
C1875 C1880 1.399 . S
C1876 C1875 1.399 . S
C1876 C1877 1.376 . S
C1877 H1864 0.930 . S
C1877 C1876 1.376 . S
C1877 C1878 1.388 . S
C1878 H1865 0.930 . S
C1878 C1877 1.388 . S
C1878 C1879 1.390 . S
C1879 C1878 1.390 . S
C1879 C1880 1.394 . S
C1879 C1885 1.465 . S
C1880 C1875 1.399 . S
C1880 C1879 1.394 . S
C1880 C1881 1.516 . S
C1881 C1880 1.516 . S
C1881 C1882 1.502 . S
C1881 C1883 1.561 . S
C1881 C1884 1.526 . S
C1882 H1866 0.959 . S
C1882 H1867 0.959 . S
C1882 H1868 0.961 . S
C1882 C1881 1.502 . S
C1883 H1869 0.960 . S
C1883 H1870 0.961 . S
C1883 H1871 0.959 . S
C1883 C1881 1.561 . S
C1884 C1881 1.526 . S
C1884 C1885 1.396 . S
C1884 C1889 1.390 . S
C1885 C1879 1.465 . S
C1885 C1884 1.396 . S
C1885 C1886 1.399 . S
C1886 H1872 0.929 . S
C1886 C1885 1.399 . S
C1886 C1887 1.385 . S
C1887 H1873 0.931 . S
C1887 C1886 1.385 . S
C1887 C1888 1.389 . S
C1888 C1887 1.389 . S
C1888 C1889 1.387 . S
C1889 H1874 0.930 . S
C1889 C1884 1.390 . S
C1889 C1888 1.387 . S
H1890 C1902 0.930 . S
H1891 C1904 0.930 . S
H1892 C1905 0.930 . S
H1893 C1909 0.959 1_565 S
H1894 C1909 0.959 . S
H1895 C1909 0.961 . S
H1896 C1910 0.960 . S
H1897 C1910 0.961 1_545 S
H1898 C1910 0.959 . S
H1899 C1913 0.929 . S
H1900 C1914 0.931 . S
H1901 C1916 0.930 1_545 S
C1902 H1890 0.930 . S
C1902 C1903 1.399 . S
C1902 C1907 1.399 . S
C1903 C1902 1.399 . S
C1903 C1904 1.376 . S
C1904 H1891 0.930 . S
C1904 C1903 1.376 . S
C1904 C1905 1.388 . S
C1905 H1892 0.930 . S
C1905 C1904 1.388 . S
C1905 C1906 1.390 . S
C1906 C1905 1.390 . S
C1906 C1907 1.394 . S
C1906 C1912 1.465 . S
C1907 C1902 1.399 . S
C1907 C1906 1.394 . S
C1907 C1908 1.516 . S
C1908 C1907 1.516 . S
C1908 C1909 1.502 1_565 S
C1908 C1910 1.561 . S
C1908 C1911 1.526 . S
C1909 H1893 0.959 1_545 S
C1909 H1894 0.959 . S
C1909 H1895 0.961 . S
C1909 C1908 1.502 1_545 S
C1910 H1896 0.960 . S
C1910 H1897 0.961 1_565 S
C1910 H1898 0.959 . S
C1910 C1908 1.561 . S
C1911 C1908 1.526 . S
C1911 C1912 1.396 . S
C1911 C1916 1.390 . S
C1912 C1906 1.465 . S
C1912 C1911 1.396 . S
C1912 C1913 1.399 . S
C1913 H1899 0.929 . S
C1913 C1912 1.399 . S
C1913 C1914 1.385 . S
C1914 H1900 0.931 . S
C1914 C1913 1.385 . S
C1914 C1915 1.389 . S
C1915 C1914 1.389 . S
C1915 C1916 1.387 . S
C1916 H1901 0.930 1_565 S
C1916 C1911 1.390 . S
C1916 C1915 1.387 . S
H1917 C1929 0.930 . S
H1918 C1931 0.930 . S
H1919 C1932 0.930 . S
H1920 C1936 0.959 . S
H1921 C1936 0.959 . S
H1922 C1936 0.961 . S
H1923 C1937 0.960 . S
H1924 C1937 0.961 . S
H1925 C1937 0.959 . S
H1926 C1940 0.929 . S
H1927 C1941 0.931 . S
H1928 C1943 0.930 . S
C1929 H1917 0.930 . S
C1929 C1930 1.399 . S
C1929 C1934 1.399 . S
C1930 C1929 1.399 . S
C1930 C1931 1.376 . S
C1931 H1918 0.930 . S
C1931 C1930 1.376 . S
C1931 C1932 1.388 . S
C1932 H1919 0.930 . S
C1932 C1931 1.388 . S
C1932 C1933 1.390 . S
C1933 C1932 1.390 . S
C1933 C1934 1.394 . S
C1933 C1939 1.465 . S
C1934 C1929 1.399 . S
C1934 C1933 1.394 . S
C1934 C1935 1.516 . S
C1935 C1934 1.516 . S
C1935 C1936 1.502 . S
C1935 C1937 1.561 . S
C1935 C1938 1.526 . S
C1936 H1920 0.959 . S
C1936 H1921 0.959 . S
C1936 H1922 0.961 . S
C1936 C1935 1.502 . S
C1937 H1923 0.960 . S
C1937 H1924 0.961 . S
C1937 H1925 0.959 . S
C1937 C1935 1.561 . S
C1938 C1935 1.526 . S
C1938 C1939 1.396 . S
C1938 C1943 1.390 . S
C1939 C1933 1.465 . S
C1939 C1938 1.396 . S
C1939 C1940 1.399 . S
C1940 H1926 0.929 . S
C1940 C1939 1.399 . S
C1940 C1941 1.385 . S
C1941 H1927 0.931 . S
C1941 C1940 1.385 . S
C1941 C1942 1.389 . S
C1942 C1941 1.389 . S
C1942 C1943 1.387 . S
C1943 H1928 0.930 . S
C1943 C1938 1.390 . S
C1943 C1942 1.387 . S
H1944 C1956 0.930 . S
H1945 C1958 0.930 . S
H1946 C1959 0.930 . S
H1947 C1963 0.959 . S
H1948 C1963 0.959 . S
H1949 C1963 0.961 . S
H1950 C1964 0.960 . S
H1951 C1964 0.961 . S
H1952 C1964 0.959 . S
H1953 C1967 0.929 . S
H1954 C1968 0.931 . S
H1955 C1970 0.930 . S
C1956 H1944 0.930 . S
C1956 C1957 1.399 . S
C1956 C1961 1.399 . S
C1957 C1956 1.399 . S
C1957 C1958 1.376 . S
C1958 H1945 0.930 . S
C1958 C1957 1.376 . S
C1958 C1959 1.388 . S
C1959 H1946 0.930 . S
C1959 C1958 1.388 . S
C1959 C1960 1.390 . S
C1960 C1959 1.390 . S
C1960 C1961 1.394 . S
C1960 C1966 1.465 . S
C1961 C1956 1.399 . S
C1961 C1960 1.394 . S
C1961 C1962 1.516 . S
C1962 C1961 1.516 . S
C1962 C1963 1.502 . S
C1962 C1964 1.561 . S
C1962 C1965 1.526 . S
C1963 H1947 0.959 . S
C1963 H1948 0.959 . S
C1963 H1949 0.961 . S
C1963 C1962 1.502 . S
C1964 H1950 0.960 . S
C1964 H1951 0.961 . S
C1964 H1952 0.959 . S
C1964 C1962 1.561 . S
C1965 C1962 1.526 . S
C1965 C1966 1.396 . S
C1965 C1970 1.390 . S
C1966 C1960 1.465 . S
C1966 C1965 1.396 . S
C1966 C1967 1.399 . S
C1967 H1953 0.929 . S
C1967 C1966 1.399 . S
C1967 C1968 1.385 . S
C1968 H1954 0.931 . S
C1968 C1967 1.385 . S
C1968 C1969 1.389 . S
C1969 C1968 1.389 . S
C1969 C1970 1.387 . S
C1970 H1955 0.930 . S
C1970 C1965 1.390 . S
C1970 C1969 1.387 . S
H1971 C1983 0.930 . S
H1972 C1985 0.930 . S
H1973 C1986 0.930 . S
H1974 C1990 0.959 . S
H1975 C1990 0.959 . S
H1976 C1990 0.961 . S
H1977 C1991 0.960 . S
H1978 C1991 0.961 . S
H1979 C1991 0.959 . S
H1980 C1994 0.929 . S
H1981 C1995 0.931 . S
H1982 C1997 0.930 1_455 S
C1983 H1971 0.930 . S
C1983 C1984 1.399 . S
C1983 C1988 1.399 . S
C1984 C1983 1.399 . S
C1984 C1985 1.376 . S
C1985 H1972 0.930 . S
C1985 C1984 1.376 . S
C1985 C1986 1.388 . S
C1986 H1973 0.930 . S
C1986 C1985 1.388 . S
C1986 C1987 1.390 . S
C1987 C1986 1.390 . S
C1987 C1988 1.394 . S
C1987 C1993 1.465 . S
C1988 C1983 1.399 . S
C1988 C1987 1.394 . S
C1988 C1989 1.516 . S
C1989 C1988 1.516 . S
C1989 C1990 1.502 1_655 S
C1989 C1991 1.561 . S
C1989 C1992 1.526 . S
C1990 H1974 0.959 . S
C1990 H1975 0.959 . S
C1990 H1976 0.961 . S
C1990 C1989 1.502 1_455 S
C1991 H1977 0.960 . S
C1991 H1978 0.961 . S
C1991 H1979 0.959 . S
C1991 C1989 1.561 . S
C1992 C1989 1.526 . S
C1992 C1993 1.396 . S
C1992 C1997 1.390 . S
C1993 C1987 1.465 . S
C1993 C1992 1.396 . S
C1993 C1994 1.399 . S
C1994 H1980 0.929 . S
C1994 C1993 1.399 . S
C1994 C1995 1.385 . S
C1995 H1981 0.931 . S
C1995 C1994 1.385 . S
C1995 C1996 1.389 . S
C1996 C1995 1.389 . S
C1996 C1997 1.387 . S
C1997 H1982 0.930 1_655 S
C1997 C1992 1.390 . S
C1997 C1996 1.387 . S
H1998 C2010 0.930 . S
H1999 C2012 0.930 . S
H2000 C2013 0.930 . S
H2001 C2017 0.959 . S
H2002 C2017 0.959 . S
H2003 C2017 0.961 . S
H2004 C2018 0.960 . S
H2005 C2018 0.961 . S
H2006 C2018 0.959 . S
H2007 C2021 0.929 . S
H2008 C2022 0.931 . S
H2009 C2024 0.930 . S
C2010 H1998 0.930 . S
C2010 C2011 1.399 . S
C2010 C2015 1.399 . S
C2011 C2010 1.399 . S
C2011 C2012 1.376 . S
C2012 H1999 0.930 . S
C2012 C2011 1.376 . S
C2012 C2013 1.388 . S
C2013 H2000 0.930 . S
C2013 C2012 1.388 . S
C2013 C2014 1.390 . S
C2014 C2013 1.390 . S
C2014 C2015 1.394 . S
C2014 C2020 1.465 . S
C2015 C2010 1.399 . S
C2015 C2014 1.394 . S
C2015 C2016 1.516 . S
C2016 C2015 1.516 . S
C2016 C2017 1.502 . S
C2016 C2018 1.561 . S
C2016 C2019 1.526 . S
C2017 H2001 0.959 . S
C2017 H2002 0.959 . S
C2017 H2003 0.961 . S
C2017 C2016 1.502 . S
C2018 H2004 0.960 . S
C2018 H2005 0.961 . S
C2018 H2006 0.959 . S
C2018 C2016 1.561 . S
C2019 C2016 1.526 . S
C2019 C2020 1.396 . S
C2019 C2024 1.390 . S
C2020 C2014 1.465 . S
C2020 C2019 1.396 . S
C2020 C2021 1.399 . S
C2021 H2007 0.929 . S
C2021 C2020 1.399 . S
C2021 C2022 1.385 . S
C2022 H2008 0.931 . S
C2022 C2021 1.385 . S
C2022 C2023 1.389 . S
C2023 C2022 1.389 . S
C2023 C2024 1.387 . S
C2024 H2009 0.930 . S
C2024 C2019 1.390 . S
C2024 C2023 1.387 . S
H2025 C2037 0.930 . S
H2026 C2039 0.930 . S
H2027 C2040 0.930 . S
H2028 C2044 0.959 . S
H2029 C2044 0.959 1_565 S
H2030 C2044 0.961 . S
H2031 C2045 0.960 . S
H2032 C2045 0.961 . S
H2033 C2045 0.959 1_545 S
H2034 C2048 0.929 . S
H2035 C2049 0.931 . S
H2036 C2051 0.930 1_565 S
C2037 H2025 0.930 . S
C2037 C2038 1.399 . S
C2037 C2042 1.399 . S
C2038 C2037 1.399 . S
C2038 C2039 1.376 . S
C2039 H2026 0.930 . S
C2039 C2038 1.376 . S
C2039 C2040 1.388 . S
C2040 H2027 0.930 . S
C2040 C2039 1.388 . S
C2040 C2041 1.390 . S
C2041 C2040 1.390 . S
C2041 C2042 1.394 . S
C2041 C2047 1.465 . S
C2042 C2037 1.399 . S
C2042 C2041 1.394 . S
C2042 C2043 1.516 . S
C2043 C2042 1.516 . S
C2043 C2044 1.502 . S
C2043 C2045 1.561 1_545 S
C2043 C2046 1.526 . S
C2044 H2028 0.959 . S
C2044 H2029 0.959 1_545 S
C2044 H2030 0.961 . S
C2044 C2043 1.502 . S
C2045 H2031 0.960 . S
C2045 H2032 0.961 . S
C2045 H2033 0.959 1_565 S
C2045 C2043 1.561 1_565 S
C2046 C2043 1.526 . S
C2046 C2047 1.396 . S
C2046 C2051 1.390 . S
C2047 C2041 1.465 . S
C2047 C2046 1.396 . S
C2047 C2048 1.399 . S
C2048 H2034 0.929 . S
C2048 C2047 1.399 . S
C2048 C2049 1.385 . S
C2049 H2035 0.931 . S
C2049 C2048 1.385 . S
C2049 C2050 1.389 . S
C2050 C2049 1.389 . S
C2050 C2051 1.387 . S
C2051 H2036 0.930 1_545 S
C2051 C2046 1.390 . S
C2051 C2050 1.387 . S
H2052 C2064 0.930 . S
H2053 C2066 0.930 . S
H2054 C2067 0.930 . S
H2055 C2071 0.959 . S
H2056 C2071 0.959 . S
H2057 C2071 0.961 . S
H2058 C2072 0.960 . S
H2059 C2072 0.961 . S
H2060 C2072 0.959 . S
H2061 C2075 0.929 . S
H2062 C2076 0.931 . S
H2063 C2078 0.930 . S
C2064 H2052 0.930 . S
C2064 C2065 1.399 . S
C2064 C2069 1.399 . S
C2065 C2064 1.399 . S
C2065 C2066 1.376 . S
C2066 H2053 0.930 . S
C2066 C2065 1.376 . S
C2066 C2067 1.388 . S
C2067 H2054 0.930 . S
C2067 C2066 1.388 . S
C2067 C2068 1.390 . S
C2068 C2067 1.390 . S
C2068 C2069 1.394 . S
C2068 C2074 1.465 . S
C2069 C2064 1.399 . S
C2069 C2068 1.394 . S
C2069 C2070 1.516 . S
C2070 C2069 1.516 . S
C2070 C2071 1.502 . S
C2070 C2072 1.561 . S
C2070 C2073 1.526 . S
C2071 H2055 0.959 . S
C2071 H2056 0.959 . S
C2071 H2057 0.961 . S
C2071 C2070 1.502 . S
C2072 H2058 0.960 . S
C2072 H2059 0.961 . S
C2072 H2060 0.959 . S
C2072 C2070 1.561 . S
C2073 C2070 1.526 . S
C2073 C2074 1.396 . S
C2073 C2078 1.390 . S
C2074 C2068 1.465 . S
C2074 C2073 1.396 . S
C2074 C2075 1.399 . S
C2075 H2061 0.929 . S
C2075 C2074 1.399 . S
C2075 C2076 1.385 . S
C2076 H2062 0.931 . S
C2076 C2075 1.385 . S
C2076 C2077 1.389 . S
C2077 C2076 1.389 . S
C2077 C2078 1.387 . S
C2078 H2063 0.930 . S
C2078 C2073 1.390 . S
C2078 C2077 1.387 . S
H2079 C2091 0.930 . S
H2080 C2093 0.930 . S
H2081 C2094 0.930 . S
H2082 C2098 0.959 . S
H2083 C2098 0.959 . S
H2084 C2098 0.961 . S
H2085 C2099 0.960 . S
H2086 C2099 0.961 . S
H2087 C2099 0.959 . S
H2088 C2102 0.929 . S
H2089 C2103 0.931 . S
H2090 C2105 0.930 . S
C2091 H2079 0.930 . S
C2091 C2092 1.399 . S
C2091 C2096 1.399 . S
C2092 C2091 1.399 . S
C2092 C2093 1.376 . S
C2093 H2080 0.930 . S
C2093 C2092 1.376 . S
C2093 C2094 1.388 . S
C2094 H2081 0.930 . S
C2094 C2093 1.388 . S
C2094 C2095 1.390 . S
C2095 C2094 1.390 . S
C2095 C2096 1.394 . S
C2095 C2101 1.465 . S
C2096 C2091 1.399 . S
C2096 C2095 1.394 . S
C2096 C2097 1.516 . S
C2097 C2096 1.516 . S
C2097 C2098 1.502 . S
C2097 C2099 1.561 . S
C2097 C2100 1.526 . S
C2098 H2082 0.959 . S
C2098 H2083 0.959 . S
C2098 H2084 0.961 . S
C2098 C2097 1.502 . S
C2099 H2085 0.960 . S
C2099 H2086 0.961 . S
C2099 H2087 0.959 . S
C2099 C2097 1.561 . S
C2100 C2097 1.526 . S
C2100 C2101 1.396 . S
C2100 C2105 1.390 . S
C2101 C2095 1.465 . S
C2101 C2100 1.396 . S
C2101 C2102 1.399 . S
C2102 H2088 0.929 . S
C2102 C2101 1.399 . S
C2102 C2103 1.385 . S
C2103 H2089 0.931 . S
C2103 C2102 1.385 . S
C2103 C2104 1.389 . S
C2104 C2103 1.389 . S
C2104 C2105 1.387 . S
C2105 H2090 0.930 . S
C2105 C2100 1.390 . S
C2105 C2104 1.387 . S
H2106 C2118 0.930 . S
H2107 C2120 0.930 . S
H2108 C2121 0.930 . S
H2109 C2125 0.959 . S
H2110 C2125 0.959 . S
H2111 C2125 0.961 . S
H2112 C2126 0.960 . S
H2113 C2126 0.961 . S
H2114 C2126 0.959 . S
H2115 C2129 0.929 . S
H2116 C2130 0.931 . S
H2117 C2132 0.930 . S
C2118 H2106 0.930 . S
C2118 C2119 1.399 . S
C2118 C2123 1.399 . S
C2119 C2118 1.399 . S
C2119 C2120 1.376 . S
C2120 H2107 0.930 . S
C2120 C2119 1.376 . S
C2120 C2121 1.388 . S
C2121 H2108 0.930 . S
C2121 C2120 1.388 . S
C2121 C2122 1.390 . S
C2122 C2121 1.390 . S
C2122 C2123 1.394 . S
C2122 C2128 1.465 . S
C2123 C2118 1.399 . S
C2123 C2122 1.394 . S
C2123 C2124 1.516 . S
C2124 C2123 1.516 . S
C2124 C2125 1.502 . S
C2124 C2126 1.561 . S
C2124 C2127 1.526 . S
C2125 H2109 0.959 . S
C2125 H2110 0.959 . S
C2125 H2111 0.961 . S
C2125 C2124 1.502 . S
C2126 H2112 0.960 . S
C2126 H2113 0.961 . S
C2126 H2114 0.959 . S
C2126 C2124 1.561 . S
C2127 C2124 1.526 . S
C2127 C2128 1.396 . S
C2127 C2132 1.390 . S
C2128 C2122 1.465 . S
C2128 C2127 1.396 . S
C2128 C2129 1.399 . S
C2129 H2115 0.929 . S
C2129 C2128 1.399 . S
C2129 C2130 1.385 . S
C2130 H2116 0.931 . S
C2130 C2129 1.385 . S
C2130 C2131 1.389 . S
C2131 C2130 1.389 . S
C2131 C2132 1.387 . S
C2132 H2117 0.930 . S
C2132 C2127 1.390 . S
C2132 C2131 1.387 . S
H2133 C2145 0.930 . S
H2134 C2147 0.930 . S
H2135 C2148 0.930 . S
H2136 C2152 0.959 . S
H2137 C2152 0.959 . S
H2138 C2152 0.961 . S
H2139 C2153 0.960 . S
H2140 C2153 0.961 . S
H2141 C2153 0.959 . S
H2142 C2156 0.929 . S
H2143 C2157 0.931 . S
H2144 C2159 0.930 . S
C2145 H2133 0.930 . S
C2145 C2146 1.399 . S
C2145 C2150 1.399 . S
C2146 C2145 1.399 . S
C2146 C2147 1.376 . S
C2147 H2134 0.930 . S
C2147 C2146 1.376 . S
C2147 C2148 1.388 . S
C2148 H2135 0.930 . S
C2148 C2147 1.388 . S
C2148 C2149 1.390 . S
C2149 C2148 1.390 . S
C2149 C2150 1.394 . S
C2149 C2155 1.465 . S
C2150 C2145 1.399 . S
C2150 C2149 1.394 . S
C2150 C2151 1.516 . S
C2151 C2150 1.516 . S
C2151 C2152 1.502 . S
C2151 C2153 1.561 . S
C2151 C2154 1.526 . S
C2152 H2136 0.959 . S
C2152 H2137 0.959 . S
C2152 H2138 0.961 . S
C2152 C2151 1.502 . S
C2153 H2139 0.960 . S
C2153 H2140 0.961 . S
C2153 H2141 0.959 . S
C2153 C2151 1.561 . S
C2154 C2151 1.526 . S
C2154 C2155 1.396 . S
C2154 C2159 1.390 . S
C2155 C2149 1.465 . S
C2155 C2154 1.396 . S
C2155 C2156 1.399 . S
C2156 H2142 0.929 . S
C2156 C2155 1.399 . S
C2156 C2157 1.385 . S
C2157 H2143 0.931 . S
C2157 C2156 1.385 . S
C2157 C2158 1.389 . S
C2158 C2157 1.389 . S
C2158 C2159 1.387 . S
C2159 H2144 0.930 . S
C2159 C2154 1.390 . S
C2159 C2158 1.387 . S
H2160 C2172 0.930 . S
H2161 C2174 0.930 . S
H2162 C2175 0.930 . S
H2163 C2179 0.959 . S
H2164 C2179 0.959 . S
H2165 C2179 0.961 . S
H2166 C2180 0.960 . S
H2167 C2180 0.961 . S
H2168 C2180 0.959 . S
H2169 C2183 0.929 . S
H2170 C2184 0.931 . S
H2171 C2186 0.930 . S
C2172 H2160 0.930 . S
C2172 C2173 1.399 . S
C2172 C2177 1.399 . S
C2173 C2172 1.399 . S
C2173 C2174 1.376 . S
C2174 H2161 0.930 . S
C2174 C2173 1.376 . S
C2174 C2175 1.388 . S
C2175 H2162 0.930 . S
C2175 C2174 1.388 . S
C2175 C2176 1.390 . S
C2176 C2175 1.390 . S
C2176 C2177 1.394 . S
C2176 C2182 1.465 . S
C2177 C2172 1.399 . S
C2177 C2176 1.394 . S
C2177 C2178 1.516 . S
C2178 C2177 1.516 . S
C2178 C2179 1.502 . S
C2178 C2180 1.561 . S
C2178 C2181 1.526 . S
C2179 H2163 0.959 . S
C2179 H2164 0.959 . S
C2179 H2165 0.961 . S
C2179 C2178 1.502 . S
C2180 H2166 0.960 . S
C2180 H2167 0.961 . S
C2180 H2168 0.959 . S
C2180 C2178 1.561 . S
C2181 C2178 1.526 . S
C2181 C2182 1.396 . S
C2181 C2186 1.390 . S
C2182 C2176 1.465 . S
C2182 C2181 1.396 . S
C2182 C2183 1.399 . S
C2183 H2169 0.929 . S
C2183 C2182 1.399 . S
C2183 C2184 1.385 . S
C2184 H2170 0.931 . S
C2184 C2183 1.385 . S
C2184 C2185 1.389 . S
C2185 C2184 1.389 . S
C2185 C2186 1.387 . S
C2186 H2171 0.930 . S
C2186 C2181 1.390 . S
C2186 C2185 1.387 . S
H2187 C2199 0.930 . S
H2188 C2201 0.930 . S
H2189 C2202 0.930 . S
H2190 C2206 0.959 . S
H2191 C2206 0.959 . S
H2192 C2206 0.961 . S
H2193 C2207 0.960 . S
H2194 C2207 0.961 . S
H2195 C2207 0.959 . S
H2196 C2210 0.929 . S
H2197 C2211 0.931 . S
H2198 C2213 0.930 . S
C2199 H2187 0.930 . S
C2199 C2200 1.399 . S
C2199 C2204 1.399 . S
C2200 C2199 1.399 . S
C2200 C2201 1.376 . S
C2201 H2188 0.930 . S
C2201 C2200 1.376 . S
C2201 C2202 1.388 . S
C2202 H2189 0.930 . S
C2202 C2201 1.388 . S
C2202 C2203 1.390 . S
C2203 C2202 1.390 . S
C2203 C2204 1.394 . S
C2203 C2209 1.465 . S
C2204 C2199 1.399 . S
C2204 C2203 1.394 . S
C2204 C2205 1.516 . S
C2205 C2204 1.516 . S
C2205 C2206 1.502 . S
C2205 C2207 1.561 . S
C2205 C2208 1.526 . S
C2206 H2190 0.959 . S
C2206 H2191 0.959 . S
C2206 H2192 0.961 . S
C2206 C2205 1.502 . S
C2207 H2193 0.960 . S
C2207 H2194 0.961 . S
C2207 H2195 0.959 . S
C2207 C2205 1.561 . S
C2208 C2205 1.526 . S
C2208 C2209 1.396 . S
C2208 C2213 1.390 . S
C2209 C2203 1.465 . S
C2209 C2208 1.396 . S
C2209 C2210 1.399 . S
C2210 H2196 0.929 . S
C2210 C2209 1.399 . S
C2210 C2211 1.385 . S
C2211 H2197 0.931 . S
C2211 C2210 1.385 . S
C2211 C2212 1.389 . S
C2212 C2211 1.389 . S
C2212 C2213 1.387 . S
C2213 H2198 0.930 . S
C2213 C2208 1.390 . S
C2213 C2212 1.387 . S
H2214 C2226 0.930 . S
H2215 C2228 0.930 . S
H2216 C2229 0.930 . S
H2217 C2233 0.959 . S
H2218 C2233 0.959 . S
H2219 C2233 0.961 . S
H2220 C2234 0.960 . S
H2221 C2234 0.961 . S
H2222 C2234 0.959 . S
H2223 C2237 0.929 . S
H2224 C2238 0.931 . S
H2225 C2240 0.930 . S
C2226 H2214 0.930 . S
C2226 C2227 1.399 . S
C2226 C2231 1.399 . S
C2227 C2226 1.399 . S
C2227 C2228 1.376 . S
C2228 H2215 0.930 . S
C2228 C2227 1.376 . S
C2228 C2229 1.388 . S
C2229 H2216 0.930 . S
C2229 C2228 1.388 . S
C2229 C2230 1.390 . S
C2230 C2229 1.390 . S
C2230 C2231 1.394 . S
C2230 C2236 1.465 . S
C2231 C2226 1.399 . S
C2231 C2230 1.394 . S
C2231 C2232 1.516 . S
C2232 C2231 1.516 . S
C2232 C2233 1.502 . S
C2232 C2234 1.561 . S
C2232 C2235 1.526 . S
C2233 H2217 0.959 . S
C2233 H2218 0.959 . S
C2233 H2219 0.961 . S
C2233 C2232 1.502 . S
C2234 H2220 0.960 . S
C2234 H2221 0.961 . S
C2234 H2222 0.959 . S
C2234 C2232 1.561 . S
C2235 C2232 1.526 . S
C2235 C2236 1.396 . S
C2235 C2240 1.390 . S
C2236 C2230 1.465 . S
C2236 C2235 1.396 . S
C2236 C2237 1.399 . S
C2237 H2223 0.929 . S
C2237 C2236 1.399 . S
C2237 C2238 1.385 . S
C2238 H2224 0.931 . S
C2238 C2237 1.385 . S
C2238 C2239 1.389 . S
C2239 C2238 1.389 . S
C2239 C2240 1.387 . S
C2240 H2225 0.930 . S
C2240 C2235 1.390 . S
C2240 C2239 1.387 . S
H2241 C2253 0.930 . S
H2242 C2255 0.930 . S
H2243 C2256 0.930 . S
H2244 C2260 0.959 . S
H2245 C2260 0.959 . S
H2246 C2260 0.961 . S
H2247 C2261 0.960 . S
H2248 C2261 0.961 . S
H2249 C2261 0.959 . S
H2250 C2264 0.929 . S
H2251 C2265 0.931 . S
H2252 C2267 0.930 . S
C2253 H2241 0.930 . S
C2253 C2254 1.399 . S
C2253 C2258 1.399 . S
C2254 C2253 1.399 . S
C2254 C2255 1.376 . S
C2255 H2242 0.930 . S
C2255 C2254 1.376 . S
C2255 C2256 1.388 . S
C2256 H2243 0.930 . S
C2256 C2255 1.388 . S
C2256 C2257 1.390 . S
C2257 C2256 1.390 . S
C2257 C2258 1.394 . S
C2257 C2263 1.465 . S
C2258 C2253 1.399 . S
C2258 C2257 1.394 . S
C2258 C2259 1.516 . S
C2259 C2258 1.516 . S
C2259 C2260 1.502 . S
C2259 C2261 1.561 . S
C2259 C2262 1.526 . S
C2260 H2244 0.959 . S
C2260 H2245 0.959 . S
C2260 H2246 0.961 . S
C2260 C2259 1.502 . S
C2261 H2247 0.960 . S
C2261 H2248 0.961 . S
C2261 H2249 0.959 . S
C2261 C2259 1.561 . S
C2262 C2259 1.526 . S
C2262 C2263 1.396 . S
C2262 C2267 1.390 . S
C2263 C2257 1.465 . S
C2263 C2262 1.396 . S
C2263 C2264 1.399 . S
C2264 H2250 0.929 . S
C2264 C2263 1.399 . S
C2264 C2265 1.385 . S
C2265 H2251 0.931 . S
C2265 C2264 1.385 . S
C2265 C2266 1.389 . S
C2266 C2265 1.389 . S
C2266 C2267 1.387 . S
C2267 H2252 0.930 . S
C2267 C2262 1.390 . S
C2267 C2266 1.387 . S
H2268 C2280 0.930 . S
H2269 C2282 0.930 . S
H2270 C2283 0.930 . S
H2271 C2287 0.959 . S
H2272 C2287 0.959 . S
H2273 C2287 0.961 . S
H2274 C2288 0.960 . S
H2275 C2288 0.961 . S
H2276 C2288 0.959 . S
H2277 C2291 0.929 . S
H2278 C2292 0.931 . S
H2279 C2294 0.930 . S
C2280 H2268 0.930 . S
C2280 C2281 1.399 . S
C2280 C2285 1.399 . S
C2281 C2280 1.399 . S
C2281 C2282 1.376 . S
C2282 H2269 0.930 . S
C2282 C2281 1.376 . S
C2282 C2283 1.388 . S
C2283 H2270 0.930 . S
C2283 C2282 1.388 . S
C2283 C2284 1.390 . S
C2284 C2283 1.390 . S
C2284 C2285 1.394 . S
C2284 C2290 1.465 . S
C2285 C2280 1.399 . S
C2285 C2284 1.394 . S
C2285 C2286 1.516 . S
C2286 C2285 1.516 . S
C2286 C2287 1.502 . S
C2286 C2288 1.561 . S
C2286 C2289 1.526 . S
C2287 H2271 0.959 . S
C2287 H2272 0.959 . S
C2287 H2273 0.961 . S
C2287 C2286 1.502 . S
C2288 H2274 0.960 . S
C2288 H2275 0.961 . S
C2288 H2276 0.959 . S
C2288 C2286 1.561 . S
C2289 C2286 1.526 . S
C2289 C2290 1.396 . S
C2289 C2294 1.390 . S
C2290 C2284 1.465 . S
C2290 C2289 1.396 . S
C2290 C2291 1.399 . S
C2291 H2277 0.929 . S
C2291 C2290 1.399 . S
C2291 C2292 1.385 . S
C2292 H2278 0.931 . S
C2292 C2291 1.385 . S
C2292 C2293 1.389 . S
C2293 C2292 1.389 . S
C2293 C2294 1.387 . S
C2294 H2279 0.930 . S
C2294 C2289 1.390 . S
C2294 C2293 1.387 . S
H2295 C2307 0.930 . S
H2296 C2309 0.930 . S
H2297 C2310 0.930 . S
H2298 C2314 0.959 . S
H2299 C2314 0.959 . S
H2300 C2314 0.961 . S
H2301 C2315 0.960 . S
H2302 C2315 0.961 . S
H2303 C2315 0.959 . S
H2304 C2318 0.929 . S
H2305 C2319 0.931 . S
H2306 C2321 0.930 . S
C2307 H2295 0.930 . S
C2307 C2308 1.399 . S
C2307 C2312 1.399 . S
C2308 C2307 1.399 . S
C2308 C2309 1.376 . S
C2309 H2296 0.930 . S
C2309 C2308 1.376 . S
C2309 C2310 1.388 . S
C2310 H2297 0.930 . S
C2310 C2309 1.388 . S
C2310 C2311 1.390 . S
C2311 C2310 1.390 . S
C2311 C2312 1.394 . S
C2311 C2317 1.465 . S
C2312 C2307 1.399 . S
C2312 C2311 1.394 . S
C2312 C2313 1.516 . S
C2313 C2312 1.516 . S
C2313 C2314 1.502 . S
C2313 C2315 1.561 . S
C2313 C2316 1.526 . S
C2314 H2298 0.959 . S
C2314 H2299 0.959 . S
C2314 H2300 0.961 . S
C2314 C2313 1.502 . S
C2315 H2301 0.960 . S
C2315 H2302 0.961 . S
C2315 H2303 0.959 . S
C2315 C2313 1.561 . S
C2316 C2313 1.526 . S
C2316 C2317 1.396 . S
C2316 C2321 1.390 . S
C2317 C2311 1.465 . S
C2317 C2316 1.396 . S
C2317 C2318 1.399 . S
C2318 H2304 0.929 . S
C2318 C2317 1.399 . S
C2318 C2319 1.385 . S
C2319 H2305 0.931 . S
C2319 C2318 1.385 . S
C2319 C2320 1.389 . S
C2320 C2319 1.389 . S
C2320 C2321 1.387 . S
C2321 H2306 0.930 . S
C2321 C2316 1.390 . S
C2321 C2320 1.387 . S
H2322 C2334 0.930 . S
H2323 C2336 0.930 . S
H2324 C2337 0.930 . S
H2325 C2341 0.959 . S
H2326 C2341 0.959 . S
H2327 C2341 0.961 . S
H2328 C2342 0.960 . S
H2329 C2342 0.961 . S
H2330 C2342 0.959 . S
H2331 C2345 0.929 . S
H2332 C2346 0.931 . S
H2333 C2348 0.930 . S
C2334 H2322 0.930 . S
C2334 C2335 1.399 . S
C2334 C2339 1.399 . S
C2335 C2334 1.399 . S
C2335 C2336 1.376 . S
C2336 H2323 0.930 . S
C2336 C2335 1.376 . S
C2336 C2337 1.388 . S
C2337 H2324 0.930 . S
C2337 C2336 1.388 . S
C2337 C2338 1.390 . S
C2338 C2337 1.390 . S
C2338 C2339 1.394 . S
C2338 C2344 1.465 . S
C2339 C2334 1.399 . S
C2339 C2338 1.394 . S
C2339 C2340 1.516 . S
C2340 C2339 1.516 . S
C2340 C2341 1.502 . S
C2340 C2342 1.561 . S
C2340 C2343 1.526 . S
C2341 H2325 0.959 . S
C2341 H2326 0.959 . S
C2341 H2327 0.961 . S
C2341 C2340 1.502 . S
C2342 H2328 0.960 . S
C2342 H2329 0.961 . S
C2342 H2330 0.959 . S
C2342 C2340 1.561 . S
C2343 C2340 1.526 . S
C2343 C2344 1.396 . S
C2343 C2348 1.390 . S
C2344 C2338 1.465 . S
C2344 C2343 1.396 . S
C2344 C2345 1.399 . S
C2345 H2331 0.929 . S
C2345 C2344 1.399 . S
C2345 C2346 1.385 . S
C2346 H2332 0.931 . S
C2346 C2345 1.385 . S
C2346 C2347 1.389 . S
C2347 C2346 1.389 . S
C2347 C2348 1.387 . S
C2348 H2333 0.930 . S
C2348 C2343 1.390 . S
C2348 C2347 1.387 . S
H2349 C2361 0.930 . S
H2350 C2363 0.930 . S
H2351 C2364 0.930 . S
H2352 C2368 0.959 . S
H2353 C2368 0.959 . S
H2354 C2368 0.961 . S
H2355 C2369 0.960 . S
H2356 C2369 0.961 . S
H2357 C2369 0.959 . S
H2358 C2372 0.929 . S
H2359 C2373 0.931 . S
H2360 C2375 0.930 . S
C2361 H2349 0.930 . S
C2361 C2362 1.399 . S
C2361 C2366 1.399 . S
C2362 C2361 1.399 . S
C2362 C2363 1.376 . S
C2363 H2350 0.930 . S
C2363 C2362 1.376 . S
C2363 C2364 1.388 . S
C2364 H2351 0.930 . S
C2364 C2363 1.388 . S
C2364 C2365 1.390 . S
C2365 C2364 1.390 . S
C2365 C2366 1.394 . S
C2365 C2371 1.465 . S
C2366 C2361 1.399 . S
C2366 C2365 1.394 . S
C2366 C2367 1.516 . S
C2367 C2366 1.516 . S
C2367 C2368 1.502 . S
C2367 C2369 1.561 . S
C2367 C2370 1.526 . S
C2368 H2352 0.959 . S
C2368 H2353 0.959 . S
C2368 H2354 0.961 . S
C2368 C2367 1.502 . S
C2369 H2355 0.960 . S
C2369 H2356 0.961 . S
C2369 H2357 0.959 . S
C2369 C2367 1.561 . S
C2370 C2367 1.526 . S
C2370 C2371 1.396 . S
C2370 C2375 1.390 . S
C2371 C2365 1.465 . S
C2371 C2370 1.396 . S
C2371 C2372 1.399 . S
C2372 H2358 0.929 . S
C2372 C2371 1.399 . S
C2372 C2373 1.385 . S
C2373 H2359 0.931 . S
C2373 C2372 1.385 . S
C2373 C2374 1.389 . S
C2374 C2373 1.389 . S
C2374 C2375 1.387 . S
C2375 H2360 0.930 . S
C2375 C2370 1.390 . S
C2375 C2374 1.387 . S
C931 C124 1.435 . S
C943 C229 1.383 . S
C958 C130 1.478 . S
C970 C313 1.445 . S
C985 C115 1.453 . S
C997 C393 1.436 . S
C1012 C106 1.430 . S
C1024 C309 1.397 . S
C1051 C397 1.344 . S
C1039 C85 1.418 . S
C1066 C97 1.395 . S
C1078 C225 1.358 . S
C1105 C218 1.417 . S
C1093 C103 1.457 . S
C1132 C302 1.373 . S
C1120 C88 1.460 . S
C1147 C94 1.443 . S
C1159 C404 1.452 . S
C1174 C121 1.420 . S
C1186 C320 1.422 . S
C1201 C133 1.390 . S
C1213 C386 1.298 . S
C1240 C236 1.380 . S
C1228 C112 1.424 . S
C1267 C481 1.308 . S
C1255 C16 1.426 . S
C1282 C22 1.484 . S
C1294 C565 1.415 . S
C1309 C7 1.451 . S
C1321 C645 1.433 . S
C1336 C160 1.427 . S
C1348 C561 1.418 . S
C1363 C139 1.431 . S
C1375 C649 1.303 . S
C1390 C151 1.389 . S
C1402 C477 1.376 . S
C1417 C157 1.441 . S
C1429 C470 1.381 . S
C1444 C142 1.446 . S
C1456 C554 1.407 . S
C1483 C656 1.443 . S
C1471 C148 1.443 . S
C1498 C13 1.439 . S
C1510 C572 1.372 . S
C1537 C638 1.284 . S
C1525 C25 1.401 . S
C1552 C4 1.430 . S
C1564 C488 1.354 . S
C1591 C733 1.308 . S
C1579 C70 1.425 . S
C1606 C76 1.480 . S
C1618 C817 1.438 . S
C1645 C897 1.402 . S
C1633 C61 1.466 . S
C1672 C813 1.393 . S
C1660 C52 1.432 . S
C1699 C901 1.304 . S
C1687 C31 1.427 . S
C1714 C43 1.407 . S
C1726 C729 1.325 . S
C1741 C49 1.441 . S
C1753 C722 1.366 . S
C1768 C34 1.462 . S
C1780 C806 1.404 . S
C1807 C908 1.453 . S
C1795 C40 1.446 . S
C1822 C67 1.420 . S
C1834 C824 1.428 . S
C1849 C79 1.407 . S
C1861 C890 1.305 . S
C1876 C58 1.405 . S
C1888 C740 1.417 . S
C1903 C140 1.474 . S
C1915 C232 1.412 . S
C1942 C316 1.352 . S
C1930 C149 1.497 . S
C1957 C158 1.498 . S
C1969 C388 1.427 . S
C1984 C59 1.516 . S
C1996 C304 1.439 . S
C2011 C68 1.480 . S
C2023 C400 1.367 . S
C2050 C220 1.399 . S
C2038 C77 1.471 . S
C2065 C32 1.474 . S
C2077 C484 1.416 . S
C2092 C41 1.497 . S
C2104 C568 1.332 . S
C2119 C50 1.496 . S
C2131 C640 1.310 . S
C2146 C113 1.519 . S
C2158 C556 1.327 . S
C2185 C652 1.392 . S
C2173 C122 1.480 . S
C2200 C131 1.471 . S
C2212 C472 1.386 . S
C2227 C86 1.474 . S
C2239 C736 1.319 . S
C2254 C95 1.502 . S
C2266 C820 1.394 . S
C2293 C892 1.314 . S
C2281 C104 1.496 . S
C2308 C5 1.519 . S
C2320 C808 1.322 . S
C2335 C14 1.479 . S
C2347 C904 1.332 . S
C2362 C23 1.471 . S
C2374 C724 1.381 . S
