# Generated by pormake.
# Topology zzz, (3,6)-cn, num edge types: 1
# Building blocks:
#     Node 0, Type 0, BuildingBlock: CUQRIR_clean_linker_1, # of connection points: 3
#     Node 1, Type 0, BuildingBlock: CUQRIR_clean_linker_1, # of connection points: 3
#     Node 2, Type 0, BuildingBlock: CUQRIR_clean_linker_1, # of connection points: 3
#     Node 3, Type 0, BuildingBlock: CUQRIR_clean_linker_1, # of connection points: 3
#     Node 4, Type 0, BuildingBlock: CUQRIR_clean_linker_1, # of connection points: 3
#     Node 5, Type 0, BuildingBlock: CUQRIR_clean_linker_1, # of connection points: 3
#     Node 6, Type 0, BuildingBlock: CUQRIR_clean_linker_1, # of connection points: 3
#     Node 7, Type 0, BuildingBlock: CUQRIR_clean_linker_1, # of connection points: 3
#     Node 8, Type 1, BuildingBlock: KUMBOL_clean_sbu_0, # of connection points: 6
#     Node 9, Type 1, BuildingBlock: KUMBOL_clean_sbu_0, # of connection points: 6
#     Node 10, Type 1, BuildingBlock: KUMBOL_clean_sbu_0, # of connection points: 6
#     Node 11, Type 1, BuildingBlock: KUMBOL_clean_sbu_0, # of connection points: 6
#     Edge 12, Type (0, 1), BuildingBlock: MIFKUJ_clean_linker_0, # of connection points: 2
#     Edge 13, Type (0, 1), BuildingBlock: MIFKUJ_clean_linker_0, # of connection points: 2
#     Edge 14, Type (0, 1), BuildingBlock: MIFKUJ_clean_linker_0, # of connection points: 2
#     Edge 15, Type (0, 1), BuildingBlock: MIFKUJ_clean_linker_0, # of connection points: 2
#     Edge 16, Type (0, 1), BuildingBlock: MIFKUJ_clean_linker_0, # of connection points: 2
#     Edge 17, Type (0, 1), BuildingBlock: MIFKUJ_clean_linker_0, # of connection points: 2
#     Edge 18, Type (0, 1), BuildingBlock: MIFKUJ_clean_linker_0, # of connection points: 2
#     Edge 19, Type (0, 1), BuildingBlock: MIFKUJ_clean_linker_0, # of connection points: 2
#     Edge 20, Type (0, 1), BuildingBlock: MIFKUJ_clean_linker_0, # of connection points: 2
#     Edge 21, Type (0, 1), BuildingBlock: MIFKUJ_clean_linker_0, # of connection points: 2
#     Edge 22, Type (0, 1), BuildingBlock: MIFKUJ_clean_linker_0, # of connection points: 2
#     Edge 23, Type (0, 1), BuildingBlock: MIFKUJ_clean_linker_0, # of connection points: 2
#     Edge 24, Type (0, 1), BuildingBlock: MIFKUJ_clean_linker_0, # of connection points: 2
#     Edge 25, Type (0, 1), BuildingBlock: MIFKUJ_clean_linker_0, # of connection points: 2
#     Edge 26, Type (0, 1), BuildingBlock: MIFKUJ_clean_linker_0, # of connection points: 2
#     Edge 27, Type (0, 1), BuildingBlock: MIFKUJ_clean_linker_0, # of connection points: 2
#     Edge 28, Type (0, 1), BuildingBlock: MIFKUJ_clean_linker_0, # of connection points: 2
#     Edge 29, Type (0, 1), BuildingBlock: MIFKUJ_clean_linker_0, # of connection points: 2
#     Edge 30, Type (0, 1), BuildingBlock: MIFKUJ_clean_linker_0, # of connection points: 2
#     Edge 31, Type (0, 1), BuildingBlock: MIFKUJ_clean_linker_0, # of connection points: 2
#     Edge 32, Type (0, 1), BuildingBlock: MIFKUJ_clean_linker_0, # of connection points: 2
#     Edge 33, Type (0, 1), BuildingBlock: MIFKUJ_clean_linker_0, # of connection points: 2
#     Edge 34, Type (0, 1), BuildingBlock: MIFKUJ_clean_linker_0, # of connection points: 2
#     Edge 35, Type (0, 1), BuildingBlock: MIFKUJ_clean_linker_0, # of connection points: 2
# Relax obj value: 0.164
# Max RMSD: 0.154
# Mean RMSD: 0.116
data_MOF--net-zzz--node1-KUMBOL_clean_sbu_0--node2-CUQRIR_clean_linker_1--edge1-MIFKUJ_clean_linker_0
_symmetry_space_group_name_H-M    P1
_symmetry_Int_Tables_number       1
_symmetry_cell_setting            triclinic
loop_
_symmetry_equiv_pos_as_xyz
'x, y, z'
_cell_length_a     62.866906
_cell_length_b     62.703158
_cell_length_c     17.56331
_cell_angle_alpha  90.767205
_cell_angle_beta   89.984506
_cell_angle_gamma 90.041565
loop_
_atom_site_label
_atom_site_type_symbol
_atom_site_fract_x
_atom_site_fract_y
_atom_site_fract_z
_atom_type_partial_charge
C0 C 0.75013 0.52529 0.19038 0.0
N1 N 0.76799 0.53645 0.21007 0.0
N2 N 0.73767 0.5367 0.14189 0.0
C3 C 0.74584 0.50275 0.21349 0.0
C4 C 0.74873 0.55509 0.1334 0.0
N5 N 0.76696 0.55498 0.17432 0.0
C6 C 0.74208 0.57319 0.0833 0.0
H7 H 0.75389 0.49178 0.17263 0.0
H8 H 0.72859 0.49915 0.21262 0.0
H9 H 0.75237 0.49981 0.27109 0.0
H10 H 0.72449 0.57432 0.08013 0.0
H11 H 0.7484 0.57038 0.02504 0.0
H12 H 0.74867 0.58852 0.10509 0.0
C13 C 0.01157 0.76115 0.17733 0.0
N14 N 1.00165 0.78061 0.17944 0.0
N15 N 1.00223 0.74766 0.12534 0.0
C16 C 0.03086 0.75565 0.22312 0.0
C17 C 0.98636 0.75955 0.09619 0.0
N18 N 0.98608 0.77941 0.12783 0.0
C19 C 0.97106 0.75148 0.03634 0.0
H20 H 0.04133 0.7698 0.22993 0.0
H21 H 0.03981 0.74233 0.19596 0.0
H22 H 0.02572 0.75062 0.28059 0.0
H23 H 0.96721 0.73444 0.04556 0.0
H24 H 0.97865 0.75267 0.9795 0.0
H25 H 0.95607 0.7608 0.03671 0.0
C26 C 0.77691 0.99101 0.24991 0.0
N27 N 0.75564 0.98682 0.24334 0.0
N28 N 0.78722 0.98717 0.18256 0.0
C29 C 0.78764 0.9986 0.32142 0.0
C30 C 0.77147 0.98082 0.13498 0.0
N31 N 0.75253 0.98049 0.17156 0.0
C32 C 0.77428 0.97676 0.05077 0.0
H33 H 0.78685 0.01627 0.32425 0.0
H34 H 0.80463 0.9938 0.32158 0.0
H35 H 0.77946 0.99219 0.37222 0.0
H36 H 0.77444 0.9593 0.03983 0.0
H37 H 0.78935 0.98359 0.02915 0.0
H38 H 0.76082 0.98364 0.01847 0.0
C39 C 0.53148 0.78776 0.25125 0.0
N40 N 0.5399 0.7677 0.24599 0.0
N41 N 0.53927 0.80046 0.19532 0.0
C42 C 0.51603 0.79519 0.31092 0.0
C43 C 0.55249 0.78745 0.15568 0.0
N44 N 0.55302 0.7678 0.18638 0.0
C45 C 0.56297 0.79313 0.08133 0.0
H46 H 0.49963 0.79159 0.29126 0.0
H47 H 0.51736 0.81268 0.3202 0.0
H48 H 0.51883 0.78685 0.36533 0.0
H49 H 0.58049 0.79303 0.08885 0.0
H50 H 0.55814 0.80904 0.0609 0.0
H51 H 0.55897 0.78101 0.03696 0.0
C52 C 0.28031 0.50379 0.07131 0.0
N53 N 0.26111 0.49381 0.06462 0.0
N54 N 0.29245 0.49455 0.1261 0.0
C55 C 0.28731 0.52234 0.02452 0.0
C56 C 0.27986 0.47882 0.15294 0.0
N57 N 0.26099 0.4783 0.11572 0.0
C58 C 0.28541 0.46497 0.21945 0.0
H59 H 0.28019 0.52141 0.96675 0.0
H60 H 0.30491 0.52287 0.02021 0.0
H61 H 0.28182 0.5373 0.05263 0.0
H62 H 0.2986 0.47184 0.25383 0.0
H63 H 0.29044 0.44907 0.19764 0.0
H64 H 0.27133 0.46271 0.2566 0.0
C65 C 0.03082 0.27655 0.06392 0.0
N66 N 0.04015 0.25691 0.05716 0.0
N67 N 0.03975 0.28827 0.12197 0.0
C68 C 0.01267 0.28403 0.01593 0.0
C69 C 0.05477 0.27499 0.14991 0.0
N70 N 0.05508 0.25622 0.11077 0.0
C71 C 0.06788 0.27968 0.21993 0.0
H72 H 0.01281 0.30166 0.01152 0.0
H73 H 0.99751 0.27921 0.04314 0.0
H74 H 0.0134 0.27662 0.95825 0.0
H75 H 0.06901 0.29707 0.2316 0.0
H76 H 0.08416 0.27316 0.21383 0.0
H77 H 0.06029 0.27193 0.26948 0.0
C78 C 0.25998 0.02223 0.07655 0.0
N79 N 0.27883 0.03257 0.06597 0.0
N80 N 0.24728 0.03325 0.12634 0.0
C81 C 0.2539 1.0016 0.03842 0.0
C82 C 0.2592 0.05048 0.14597 0.0
N83 N 0.27815 0.05012 0.10936 0.0
C84 C 0.2531 0.06685 0.20555 0.0
H85 H 0.26119 1.00036 0.98098 0.0
H86 H 0.23635 1.00015 0.03399 0.0
H87 H 0.25991 0.98822 0.0731 0.0
H88 H 0.26668 0.06994 0.24453 0.0
H89 H 0.23912 0.06178 0.23934 0.0
H90 H 0.24926 0.08205 0.17702 0.0
C91 C 0.48426 0.25157 0.02471 0.0
N92 N 0.47954 0.27273 0.03153 0.0
N93 N 0.47854 0.24094 0.08882 0.0
C94 C 0.49372 0.24119 0.95523 0.0
C95 C 0.47047 0.25641 0.13488 0.0
N96 N 0.47101 0.27552 0.10029 0.0
C97 C 0.46345 0.25304 0.21584 0.0
H98 H 0.48927 0.22407 0.95168 0.0
H99 H 0.51131 0.24233 0.95882 0.0
H100 H 0.48847 0.24946 0.90303 0.0
H101 H 0.47175 0.23923 0.24119 0.0
H102 H 0.4461 0.2498 0.21635 0.0
H103 H 0.46653 0.26744 0.25154 0.0
Gd104 Gd 0.99976 0.01836 0.57462 0.0
Gd105 Gd 0.03285 1.00883 0.73973 0.0
C106 C 0.06428 0.06409 0.86926 0.0
C107 C 0.10175 0.05742 0.84566 0.0
C108 C 0.07494 0.03307 0.79481 0.0
C109 C 0.05896 0.04593 0.82467 0.0
C110 C 0.09651 0.03832 0.8074 0.0
C111 C 0.08565 0.07025 0.87675 0.0
C112 C 0.04809 0.07486 0.90853 0.0
C113 C 0.02739 0.06693 0.90555 0.0
N114 N 0.03838 0.03951 0.81686 0.0
C115 C 0.02287 0.04894 0.86043 0.0
H116 H 1.00678 0.04317 0.85987 0.0
C117 C 0.08455 0.99919 0.74503 0.0
N118 N 0.06944 0.01435 0.76036 0.0
C119 C 0.10612 1.00383 0.75521 0.0
C120 C 0.11216 0.02368 0.78493 0.0
H121 H 0.08005 0.98374 0.72251 0.0
H122 H 0.08995 0.08439 0.90943 0.0
H123 H 0.02933 0.99339 0.43698 0.0
H124 H 0.05153 0.0888 0.94351 0.0
H125 H 0.01486 0.0747 0.93776 0.0
H126 H 0.11822 0.06186 0.85478 0.0
H127 H 0.94972 0.03189 0.61988 0.0
H128 H 0.99153 0.94445 0.33455 0.0
H129 H 0.02558 0.96395 0.34569 0.0
H130 H 0.92262 0.95579 0.44322 0.0
H131 H 0.11807 0.99207 0.74037 0.0
H132 H 0.12889 0.02714 0.79355 0.0
H133 H 0.95326 0.94117 0.37268 0.0
H134 H 0.91327 0.01784 0.60233 0.0
N135 N 0.99786 0.99053 0.48208 0.0
C136 C 0.99305 0.95744 0.37551 0.0
C137 C 0.01227 0.96843 0.38158 0.0
C138 C 0.97578 0.96393 0.42022 0.0
C139 C 0.97862 0.98095 0.47282 0.0
C140 C 0.01432 0.98519 0.43447 0.0
N141 N 0.96437 1.00667 0.55676 0.0
C142 C 0.96135 0.98923 0.51174 0.0
C143 C 0.92665 1.00956 0.57683 0.0
C144 C 0.92343 0.99084 0.53452 0.0
C145 C 0.94728 0.01749 0.58643 0.0
C146 C 0.94082 0.98068 0.49996 0.0
H147 H 0.90743 0.98476 0.52683 0.0
O148 O 0.98074 0.04091 0.51189 0.0
O149 O 0.01869 0.03462 0.66785 0.0
O150 O 0.99864 0.01572 0.77457 0.0
O151 O 0.97984 1.0037 0.66969 0.0
O152 O 0.98883 0.04662 0.64628 0.0
O153 O 0.01392 0.03667 0.48326 0.0
O154 O 0.01851 0.98129 0.79376 0.0
O155 O 0.01551 0.99343 0.64281 0.0
O156 O 0.0347 0.01697 0.53741 0.0
O157 O 0.0564 0.01614 0.64558 0.0
O158 O 0.04386 0.97936 0.67297 0.0
O159 O 0.04295 0.99907 0.85244 0.0
C160 C 1.00595 0.04972 0.68501 0.0
C161 C 0.93819 0.96281 0.45182 0.0
C162 C 0.95564 0.95447 0.41183 0.0
C163 C 0.99714 0.04871 0.47665 0.0
C164 C 1.00063 0.07191 0.48516 0.0
C165 C 0.98667 0.08454 0.52931 0.0
C166 C 0.01858 0.08144 0.45211 0.0
C167 C 0.02265 0.10333 0.46312 0.0
C168 C 0.99076 0.10614 0.5412 0.0
C169 C 1.00855 0.1155 0.50832 0.0
C170 C 0.98093 1.00829 0.74347 0.0
C171 C 0.02807 0.97817 0.62594 0.0
C172 C 0.02761 0.98532 0.85883 0.0
C173 C 0.01315 0.98799 0.92488 0.0
C174 C 0.01588 1.00463 0.97855 0.0
C175 C 0.99554 0.97444 0.93174 0.0
C176 C 0.98049 0.97752 0.9902 0.0
C177 C 1.00106 1.00773 0.03703 0.0
C178 C 0.98343 0.99426 0.04301 0.0
C179 C 0.05367 0.01751 0.57091 0.0
H180 H 0.97267 0.07776 0.55557 0.0
H181 H 0.02917 0.07187 0.41696 0.0
H182 H 0.98006 0.11568 0.57585 0.0
H183 H 0.0111 0.13235 0.51797 0.0
H184 H 0.02929 0.01542 0.97506 0.0
H185 H 0.99367 0.96131 0.89149 0.0
H186 H 1.00322 0.02065 0.07777 0.0
H187 H 0.97212 0.99694 0.08865 0.0
Gd188 Gd 0.50742 0.99647 0.53934 0.0
Gd189 Gd 0.51773 0.03581 0.68487 0.0
C190 C 0.48993 0.0342 0.92472 0.0
C191 C 0.45542 0.05079 0.90736 0.0
C192 C 0.47973 0.0469 0.79993 0.0
C193 C 0.49435 0.03685 0.84657 0.0
C194 C 0.46056 0.05489 0.83114 0.0
C195 C 0.47006 0.04039 0.95401 0.0
C196 C 0.50601 0.02646 0.97203 0.0
C197 C 0.52626 0.02276 0.94215 0.0
N198 N 0.51366 0.03156 0.81732 0.0
C199 C 0.52999 0.02594 0.86467 0.0
H200 H 0.54568 0.02298 0.84174 0.0
C201 C 0.47284 0.06385 0.68309 0.0
N202 N 0.48499 0.05045 0.72593 0.0
C203 C 0.454 0.07255 0.71229 0.0
C204 C 0.44756 0.06765 0.78598 0.0
H205 H 0.47726 0.06796 0.62609 0.0
H206 H 0.46625 0.03812 0.01354 0.0
H207 H 0.52669 0.03192 0.41423 0.0
H208 H 0.50323 0.02424 0.0323 0.0
H209 H 0.539 0.01759 0.97886 0.0
H210 H 0.44054 0.05636 0.9316 0.0
H211 H 0.50643 0.94439 0.58586 0.0
H212 H 0.5786 1.00374 0.29445 0.0
H213 H 0.55407 0.03398 0.31596 0.0
H214 H 0.58284 0.93371 0.39567 0.0
H215 H 0.44431 0.08284 0.67747 0.0
H216 H 0.43283 0.07422 0.80809 0.0
H217 H 0.58956 0.96668 0.32584 0.0
H218 H 0.52812 0.91211 0.56702 0.0
N219 N 0.53559 1.00102 0.45195 0.0
C220 C 0.5666 1.0028 0.33845 0.0
C221 C 0.55279 0.01986 0.35045 0.0
C222 C 0.5644 0.98447 0.38211 0.0
C223 C 0.54841 0.98393 0.43869 0.0
C224 C 0.53723 0.01863 0.40714 0.0
N225 N 0.52781 0.96475 0.52647 0.0
C226 C 0.54465 0.96538 0.47814 0.0
C227 C 0.53318 0.92704 0.5426 0.0
C228 C 0.55137 0.92782 0.49746 0.0
C229 C 0.52112 0.9455 0.55409 0.0
C230 C 0.55687 0.94692 0.46232 0.0
H231 H 0.56041 0.91337 0.48701 0.0
O232 O 0.48501 0.97232 0.49977 0.0
O233 O 0.4914 0.01897 0.62306 0.0
O234 O 0.51864 1.00367 0.7439 0.0
O235 O 0.51678 0.97835 0.6457 0.0
O236 O 0.48093 0.9874 0.61897 0.0
O237 O 0.49476 0.99752 0.42483 0.0
O238 O 0.53932 0.05985 0.64161 0.0
O239 O 0.53282 0.01772 0.5875 0.0
O240 O 0.49565 0.0283 0.49335 0.0
O241 O 0.50905 0.05356 0.57873 0.0
O242 O 0.54888 0.01795 0.69085 0.0
O243 O 0.52669 0.06338 0.75437 0.0
C244 C 0.4782 1.00575 0.65131 0.0
C245 C 0.57336 0.94772 0.40862 0.0
C246 C 0.57714 0.96647 0.36865 0.0
C247 C 0.48232 0.9812 0.43412 0.0
C248 C 0.46032 0.98314 0.40729 0.0
C249 C 0.44817 0.96457 0.39706 0.0
C250 C 0.45149 1.00307 0.38971 0.0
C251 C 0.43066 1.00444 0.36135 0.0
C252 C 0.42743 0.96582 0.36966 0.0
C253 C 0.41872 0.98557 0.35176 0.0
C254 C 0.51884 0.98371 0.71846 0.0
C255 C 0.54987 0.01172 0.62051 0.0
C256 C 0.53972 0.07096 0.70431 0.0
C257 C 0.56088 0.07673 0.73213 0.0
C258 C 0.56808 0.09785 0.72885 0.0
C259 C 0.57415 0.06098 0.7612 0.0
C260 C 0.59463 0.06598 0.78666 0.0
C261 C 0.58848 0.10306 0.75499 0.0
C262 C 0.60174 0.08721 0.78402 0.0
C263 C 0.5001 0.04825 0.51338 0.0
H264 H 0.45479 0.94908 0.40998 0.0
H265 H 0.46072 0.01748 0.39855 0.0
H266 H 0.41812 0.95144 0.36174 0.0
H267 H 0.4027 0.98596 0.32964 0.0
H268 H 0.55797 0.11023 0.70623 0.0
H269 H 0.56841 0.04481 0.76538 0.0
H270 H 0.59403 0.11938 0.75264 0.0
H271 H 0.61752 0.09146 0.8038 0.0
Gd272 Gd 0.49114 0.52772 0.72417 0.0
Gd273 Gd 0.53022 0.51441 0.57937 0.0
C274 C 0.60232 0.50723 0.61389 0.0
C275 C 0.61618 0.53501 0.53275 0.0
C276 C 0.57797 0.52926 0.54269 0.0
C277 C 0.5813 0.51277 0.59314 0.0
C278 C 0.5954 0.54027 0.51096 0.0
C279 C 0.61963 0.51855 0.58412 0.0
C280 C 0.60544 0.49051 0.66432 0.0
C281 C 0.58792 0.47971 0.6929 0.0
N282 N 0.56416 0.50231 0.6223 0.0
C283 C 0.56743 0.48573 0.67125 0.0
H284 H 0.55464 0.47734 0.69769 0.0
C285 C 0.55395 0.54873 0.46683 0.0
N286 N 0.55775 0.53413 0.52261 0.0
C287 C 0.57068 0.56006 0.43415 0.0
C288 C 0.5915 0.556 0.45699 0.0
H289 H 0.53788 0.55193 0.44853 0.0
H290 H 0.63578 0.51456 0.60003 0.0
H291 H 0.46344 0.562 0.61775 0.0
H292 H 0.62128 0.48588 0.68184 0.0
H293 H 0.59016 0.46687 0.73266 0.0
H294 H 0.62972 0.54341 0.50943 0.0
H295 H 0.48822 0.49101 0.86096 0.0
H296 H 0.39867 0.54144 0.60999 0.0
H297 H 0.42678 0.56715 0.57449 0.0
H298 H 0.39745 0.48212 0.77869 0.0
H299 H 0.56749 0.57191 0.39138 0.0
H300 H 0.60447 0.56478 0.43147 0.0
H301 H 0.38802 0.50935 0.68495 0.0
H302 H 0.46139 0.46701 0.91706 0.0
N303 N 0.45668 0.53332 0.67662 0.0
C304 C 0.41485 0.53905 0.62929 0.0
C305 C 0.43062 0.55358 0.60901 0.0
C306 C 0.41999 0.5221 0.67687 0.0
C307 C 0.44128 0.51981 0.70087 0.0
C308 C 0.45149 0.55061 0.634 0.0
N309 N 0.46692 0.50362 0.77879 0.0
C310 C 0.44655 0.50449 0.75359 0.0
C311 C 0.45703 0.47737 0.87081 0.0
C312 C 0.43631 0.47712 0.84214 0.0
C313 C 0.47216 0.49098 0.839 0.0
C314 C 0.43074 0.49104 0.78376 0.0
H315 H 0.42462 0.46657 0.86688 0.0
O316 O 0.48867 0.5343 0.84499 0.0
O317 O 0.52605 0.52641 0.69804 0.0
O318 O 0.52247 0.48518 0.65101 0.0
O319 O 0.48855 0.4923 0.69705 0.0
O320 O 0.51702 0.5162 0.80376 0.0
O321 O 0.48081 0.55898 0.76397 0.0
O322 O 0.54036 0.50514 0.46521 0.0
O323 O 0.49544 0.5179 0.60292 0.0
O324 O 0.49997 0.55821 0.66028 0.0
O325 O 0.53188 0.5504 0.59858 0.0
O326 O 0.5068 0.53256 0.50694 0.0
O327 O 0.5171 0.48612 0.52336 0.0
C328 C 0.53312 0.51925 0.76013 0.0
C329 C 0.40976 0.49248 0.75684 0.0
C330 C 0.4044 0.50798 0.70346 0.0
C331 C 0.4822 0.55379 0.83549 0.0
C332 C 0.49053 0.56968 0.88912 0.0
C333 C 0.47844 0.57433 0.95421 0.0
C334 C 0.51024 0.57972 0.87808 0.0
C335 C 0.51779 0.59451 0.93265 0.0
C336 C 0.4858 0.589 0.00816 0.0
C337 C 0.50529 0.59909 0.99751 0.0
C338 C 0.50427 0.47884 0.68203 0.0
C339 C 0.48976 0.52784 0.54392 0.0
C340 C 0.52543 0.49093 0.458 0.0
C341 C 0.51022 0.49368 0.39447 0.0
C342 C 0.51107 0.51168 0.34747 0.0
C343 C 0.49353 0.47908 0.38474 0.0
C344 C 0.47766 0.48231 0.32948 0.0
C345 C 0.49525 0.51514 0.29323 0.0
C346 C 0.47858 0.5006 0.2843 0.0
C347 C 0.51713 0.56416 0.62172 0.0
H348 H 0.46325 0.56657 0.96333 0.0
H349 H 0.51963 0.57592 0.82791 0.0
H350 H 0.47633 0.59266 0.05814 0.0
H351 H 0.51037 0.61083 0.03954 0.0
H352 H 0.52365 0.52337 0.35362 0.0
H353 H 0.4932 0.46496 0.41963 0.0
H354 H 0.49588 0.52917 0.25809 0.0
H355 H 0.46655 0.50355 0.2416 0.0
Gd356 Gd 1.00449 0.49931 0.71726 0.0
Gd357 Gd 0.02342 0.53087 0.56319 0.0
C358 C 0.02464 0.60358 0.59382 0.0
C359 C 0.99701 0.6146 0.50616 0.0
C360 C 1.00637 0.57709 0.51659 0.0
C361 C 0.0212 0.58206 0.57215 0.0
C362 C 0.9947 0.59339 0.48089 0.0
C363 C 0.01192 0.61967 0.56274 0.0
C364 C 0.04139 0.60842 0.64333 0.0
C365 C 0.05495 0.5922 0.66642 0.0
N366 N 0.03348 0.56612 0.60009 0.0
C367 C 0.051 0.57114 0.64319 0.0
H368 H 0.06198 0.55923 0.66203 0.0
C369 C 0.9931 0.5514 0.42909 0.0
N370 N 1.00468 0.55653 0.49283 0.0
C371 C 0.98143 0.56702 0.39142 0.0
C372 C 0.98181 0.58803 0.41855 0.0
H373 H 0.99245 0.53508 0.40861 0.0
H374 H 0.01413 0.63621 0.57972 0.0
H375 H 0.97599 0.46553 0.60207 0.0
H376 H 0.04451 0.62471 0.6615 0.0
H377 H 0.06845 0.59587 0.70253 0.0
H378 H 0.98795 0.62728 0.4803 0.0
H379 H 0.02861 0.50311 0.88914 0.0
H380 H 0.99413 0.40188 0.65239 0.0
H381 H 0.97317 0.42727 0.57688 0.0
H382 H 0.03809 0.40979 0.8723 0.0
H383 H 0.9721 0.56284 0.3417 0.0
H384 H 0.97271 0.6001 0.38933 0.0
H385 H 0.01764 0.39558 0.76438 0.0
H386 H 0.04636 0.47969 0.97972 0.0
N387 N 1.00016 0.46272 0.6868 0.0
C388 C 0.99592 0.41886 0.66274 0.0
C389 C 0.98401 0.43313 0.62023 0.0
C390 C 0.00908 0.42661 0.72093 0.0
C391 C 0.01098 0.44892 0.73185 0.0
C392 C 0.98585 0.45503 0.63461 0.0
N393 N 0.02208 0.4783 0.8079 0.0
C394 C 0.02224 0.45693 0.79411 0.0
C395 C 0.03987 0.4731 0.9274 0.0
C396 C 0.0412 0.45129 0.9122 0.0
C397 C 0.02989 0.48639 0.87515 0.0
C398 C 0.03188 0.44286 0.84603 0.0
H399 H 0.04867 0.44098 0.95339 0.0
O400 O 0.98391 0.48615 0.80432 0.0
O401 O 0.00987 0.533 0.67991 0.0
O402 O 0.05106 0.52485 0.64533 0.0
O403 O 0.04048 0.49774 0.72676 0.0
O404 O 0.01918 0.52573 0.78895 0.0
O405 O 0.97711 0.51717 0.7587 0.0
O406 O 0.03587 0.53736 0.45026 0.0
O407 O 0.01848 0.49706 0.59948 0.0
O408 O 0.97767 0.5018 0.63053 0.0
O409 O 0.98694 0.53207 0.56357 0.0
O410 O 1.00787 0.5049 0.49237 0.0
O411 O 0.05412 0.51828 0.52768 0.0
C412 C 0.01788 0.54091 0.74061 0.0
C413 C 0.03084 0.42079 0.83292 0.0
C414 C 0.01931 0.41269 0.77102 0.0
C415 C 0.97294 0.50361 0.81195 0.0
C416 C 0.97042 0.51261 0.8895 0.0
C417 C 0.97981 0.50298 0.95307 0.0
C418 C 0.95815 0.53109 0.9001 0.0
C419 C 0.95488 0.53979 0.97329 0.0
C420 C 0.97696 0.51178 0.02578 0.0
C421 C 0.96443 0.52996 0.0361 0.0
C422 C 0.05528 0.51039 0.69802 0.0
C423 C 0.01057 0.48928 0.53823 0.0
C424 C 0.05133 0.52378 0.4573 0.0
C425 C 0.05262 0.50626 0.40026 0.0
C426 C 0.03659 0.50319 0.34538 0.0
C427 C 0.06944 0.49159 0.4038 0.0
C428 C 0.07078 0.47429 0.35187 0.0
C429 C 0.03741 0.48577 0.29526 0.0
C430 C 0.05438 0.47149 0.29796 0.0
C431 C 0.97268 0.51768 0.5848 0.0
H432 H 0.98919 0.4886 0.94695 0.0
H433 H 0.95085 0.53852 0.85123 0.0
H434 H 0.98415 0.50424 0.07451 0.0
H435 H 0.96178 0.53598 0.09342 0.0
H436 H 0.02326 0.51404 0.34164 0.0
H437 H 0.08143 0.4937 0.44754 0.0
H438 H 0.02496 0.4835 0.25333 0.0
H439 H 0.05492 0.45871 0.25602 0.0
H440 H 0.20973 0.0514 0.09154 0.0
H441 H 0.17574 0.04721 0.15874 0.0
H442 H 0.20453 1.00045 0.30427 0.0
H443 H 0.23828 1.00422 0.2344 0.0
H444 H 0.16526 0.98895 0.28196 0.0
H445 H 0.19751 0.0553 0.35381 0.0
H446 H 0.21322 0.09089 0.33538 0.0
H447 H 0.1546 0.11294 0.23883 0.0
H448 H 0.13867 0.07733 0.25508 0.0
H449 H 0.09288 0.99938 0.59322 0.0
H450 H 0.12446 1.00115 0.51241 0.0
H451 H 0.09005 0.03964 0.35258 0.0
H452 H 0.05832 0.03801 0.43418 0.0
H453 H 0.13113 0.05515 0.37988 0.0
H454 H 0.09879 0.98829 0.31361 0.0
H455 H 0.08301 0.95331 0.34242 0.0
H456 H 0.14224 0.93271 0.43824 0.0
H457 H 0.15827 0.96776 0.41145 0.0
C458 C 0.20854 0.03983 0.13653 0.0
C459 C 0.22653 0.02791 0.157 0.0
C460 C 0.18918 0.03762 0.17588 0.0
C461 C 0.1874 0.02384 0.23843 0.0
C462 C 0.20524 0.01125 0.25671 0.0
C463 C 0.22455 0.01329 0.21657 0.0
C464 C 0.1674 0.02325 0.28641 0.0
C465 C 0.15802 1.00348 0.30382 0.0
C466 C 0.15741 0.04211 0.31484 0.0
C467 C 0.16698 0.06354 0.30479 0.0
C468 C 0.18803 0.06767 0.32797 0.0
C469 C 0.19697 0.08786 0.31795 0.0
C470 C 0.18494 0.10415 0.28573 0.0
C471 C 0.16392 0.10029 0.26355 0.0
C472 C 0.15494 0.08009 0.27307 0.0
C473 C 0.09206 1.00852 0.54168 0.0
C474 C 0.07302 0.01877 0.52116 0.0
C475 C 0.11014 1.00932 0.49474 0.0
C476 C 0.1098 0.02044 0.42569 0.0
C477 C 0.09086 0.03092 0.40533 0.0
C478 C 0.07265 0.02989 0.45198 0.0
C479 C 0.12913 0.02095 0.37496 0.0
C480 C 0.13838 0.04069 0.3574 0.0
C481 C 0.13907 1.00209 0.34709 0.0
C482 C 0.1297 0.98074 0.36106 0.0
C483 C 0.10843 0.97635 0.34121 0.0
C484 C 0.09944 0.95651 0.35719 0.0
C485 C 0.11161 0.94081 0.39225 0.0
C486 C 0.13283 0.9449 0.41113 0.0
C487 C 0.14189 0.96476 0.39553 0.0
H488 H 0.1046 0.92547 0.40465 0.0
H489 H 0.19188 0.11978 0.27815 0.0
H490 H 0.51467 0.2184 0.11083 0.0
H491 H 0.5174 0.18311 0.16965 0.0
H492 H 0.44892 0.17821 0.17147 0.0
H493 H 0.44644 0.21367 0.11479 0.0
H494 H 0.46224 0.16822 0.30337 0.0
H495 H 0.48291 0.14578 0.05356 0.0
H496 H 0.50331 0.14581 0.93364 0.0
H497 H 0.56096 0.13401 0.05711 0.0
H498 H 0.54094 0.13419 0.17796 0.0
H499 H 0.46384 0.05824 0.43202 0.0
H500 H 0.45867 0.08912 0.34797 0.0
H501 H 0.52374 0.10814 0.38589 0.0
H502 H 0.52862 0.07808 0.47171 0.0
H503 H 0.51043 0.10909 0.22782 0.0
H504 H 0.48872 0.13208 0.47787 0.0
H505 H 0.46768 0.13211 0.59618 0.0
H506 H 0.41068 0.14337 0.46838 0.0
H507 H 0.43122 0.1424 0.34879 0.0
C508 C 0.50031 0.20941 0.12176 0.0
C509 C 0.48036 0.21857 0.10732 0.0
C510 C 0.50181 0.18923 0.15565 0.0
C511 C 0.48335 0.17768 0.17515 0.0
C512 C 0.46344 0.18661 0.15756 0.0
C513 C 0.46199 0.20679 0.12436 0.0
C514 C 0.48464 0.15718 0.21875 0.0
C515 C 0.47246 0.15514 0.28562 0.0
C516 C 0.4983 0.1401 0.19738 0.0
C517 C 0.51044 0.14021 0.12493 0.0
C518 C 0.49996 0.14338 0.05524 0.0
C519 C 0.51145 0.14332 0.98707 0.0
C520 C 0.53342 0.13997 0.98777 0.0
C521 C 0.54394 0.13664 0.05666 0.0
C522 C 0.53253 0.1367 0.12501 0.0
C523 C 0.47702 0.06895 0.42174 0.0
C524 C 0.49664 0.06577 0.45836 0.0
C525 C 0.47407 0.08659 0.37387 0.0
C526 C 0.49086 0.10097 0.36015 0.0
C527 C 0.51058 0.09732 0.39511 0.0
C528 C 0.51332 0.08016 0.44444 0.0
C529 C 0.48796 0.12024 0.31166 0.0
C530 C 0.49995 0.12208 0.24445 0.0
C531 C 0.47398 0.13706 0.3323 0.0
C532 C 0.46149 0.13679 0.40405 0.0
C533 C 0.47164 0.13409 0.47469 0.0
C534 C 0.4598 0.13432 0.54208 0.0
C535 C 0.43785 0.13766 0.53979 0.0
C536 C 0.42768 0.14071 0.47005 0.0
C537 C 0.43939 0.14018 0.4024 0.0
H538 H 0.42872 0.13793 0.59204 0.0
H539 H 0.54229 0.1399 0.93492 0.0
H540 H 0.3301 0.47573 0.095 0.0
H541 H 0.36418 0.48196 0.16044 0.0
H542 H 0.33483 0.53168 0.29644 0.0
H543 H 0.30115 0.52586 0.22817 0.0
H544 H 0.37215 0.54389 0.27039 0.0
H545 H 0.34455 0.4778 0.35621 0.0
H546 H 0.33107 0.44094 0.34721 0.0
H547 H 0.39083 0.42002 0.2548 0.0
H548 H 0.40455 0.45687 0.26129 0.0
H549 H 0.45724 0.49868 0.56742 0.0
H550 H 0.42392 0.49494 0.49629 0.0
H551 H 0.44497 0.54377 0.34238 0.0
H552 H 0.47659 0.54938 0.41961 0.0
H553 H 0.41117 0.4825 0.37714 0.0
H554 H 0.41146 0.56359 0.23416 0.0
H555 H 0.42056 0.60136 0.25893 0.0
H556 H 0.40802 0.59333 0.49708 0.0
H557 H 0.39908 0.55537 0.47355 0.0
C558 C 0.33122 0.48834 0.13751 0.0
C559 C 0.31316 0.50061 0.15554 0.0
C560 C 0.3506 0.49171 0.17595 0.0
C561 C 0.35228 0.50706 0.23513 0.0
C562 C 0.33425 0.51974 0.25134 0.0
C563 C 0.31497 0.51654 0.2121 0.0
C564 C 0.3725 0.50976 0.28092 0.0
C565 C 0.38059 0.53039 0.29381 0.0
C566 C 0.3837 0.49236 0.31305 0.0
C567 C 0.37547 0.47019 0.30819 0.0
C568 C 0.35475 0.4654 0.33309 0.0
C569 C 0.34708 0.44449 0.32848 0.0
C570 C 0.36008 0.42816 0.3001 0.0
C571 C 0.38078 0.43271 0.27637 0.0
C572 C 0.3885 0.45361 0.28037 0.0
C573 C 0.45427 0.50922 0.5203 0.0
C574 C 0.46916 0.52509 0.50183 0.0
C575 C 0.43528 0.50684 0.47828 0.0
C576 C 0.43099 0.51962 0.41432 0.0
C577 C 0.44666 0.53456 0.39357 0.0
C578 C 0.46513 0.53753 0.43737 0.0
C579 C 0.4107 0.51677 0.36827 0.0
C580 C 0.40269 0.49606 0.35445 0.0
C581 C 0.39909 0.53415 0.33749 0.0
C582 C 0.40498 0.55666 0.35243 0.0
C583 C 0.41078 0.56989 0.29185 0.0
C584 C 0.41595 0.59128 0.30566 0.0
C585 C 0.41506 0.59967 0.37969 0.0
C586 C 0.40897 0.5867 0.43999 0.0
C587 C 0.40398 0.56523 0.42656 0.0
H588 H 0.41897 0.61626 0.39026 0.0
H589 H 0.35413 0.41197 0.29675 0.0
H590 H 0.02121 0.29624 0.25809 0.0
H591 H 0.01735 0.33088 0.32356 0.0
H592 H 0.04328 0.36225 0.12724 0.0
H593 H 0.04685 0.32741 0.06175 0.0
H594 H 0.04659 0.35828 0.36943 0.0
H595 H 0.02793 0.41603 0.13083 0.0
H596 H 0.01163 0.4165 1.00306 0.0
H597 H 0.97132 0.36398 0.06265 0.0
H598 H 0.98719 0.36338 0.19109 0.0
H599 H 0.04682 0.46407 0.54161 0.0
H600 H 0.0542 0.43218 0.46416 0.0
H601 H 0.98974 0.43317 0.37945 0.0
H602 H 0.98345 0.46632 0.44995 0.0
H603 H 0.00955 0.42179 0.2702 0.0
H604 H 0.01897 0.38872 0.53313 0.0
H605 H 0.03751 0.38654 0.65669 0.0
H606 H 0.09789 0.3903 0.54392 0.0
H607 H 0.07975 0.39158 0.41936 0.0
C608 C 0.02553 0.31061 0.22824 0.0
C609 C 0.0339 0.30906 0.15404 0.0
C610 C 0.02356 0.33048 0.26604 0.0
C611 C 0.0299 0.34958 0.23105 0.0
C612 C 0.03787 0.34806 0.1559 0.0
C613 C 0.03983 0.32809 0.11801 0.0
C614 C 0.02889 0.37063 0.27492 0.0
C615 C 0.0383 0.37208 0.34754 0.0
C616 C 0.01881 0.38921 0.24681 0.0
C617 C 0.00892 0.38952 0.17024 0.0
C618 C 0.01554 0.40462 0.1167 0.0
C619 C 1.00639 0.40491 0.04417 0.0
C620 C 0.99052 0.39022 0.02465 0.0
C621 C 0.98369 0.37528 0.07775 0.0
C622 C 0.99277 0.37495 0.15041 0.0
C623 C 0.03411 0.45713 0.50782 0.0
C624 C 0.01427 0.46745 0.50426 0.0
C625 C 0.03827 0.43858 0.46335 0.0
C626 C 0.02243 0.42919 0.41616 0.0
C627 C 1.00252 0.43958 0.41415 0.0
C628 C 0.99873 0.45852 0.45577 0.0
C629 C 0.02618 0.40916 0.36723 0.0
C630 C 0.01759 0.40796 0.29284 0.0
C631 C 0.03731 0.39088 0.39302 0.0
C632 C 0.04804 0.39045 0.46755 0.0
C633 C 0.03618 0.38915 0.53495 0.0
C634 C 0.04662 0.38806 0.60504 0.0
C635 C 0.06882 0.38862 0.6084 0.0
C636 C 0.0807 0.38995 0.54138 0.0
C637 C 0.07038 0.39065 0.471 0.0
H638 H 0.07682 0.38787 0.66286 0.0
H639 H 0.98347 0.39045 0.96843 0.0
H640 H 0.81654 0.95657 0.15697 0.0
H641 H 0.85079 0.96065 0.091 0.0
H642 H 0.84109 0.0286 0.08393 0.0
H643 H 0.80684 0.02438 0.15045 0.0
H644 H 0.85208 0.01315 0.9446 0.0
H645 H 0.87922 1.00538 0.19953 0.0
H646 H 0.88448 0.98783 0.32299 0.0
H647 H 0.91131 0.93317 0.20891 0.0
H648 H 0.90571 0.95022 0.08473 0.0
H649 H 0.97483 0.02295 0.89021 0.0
H650 H 0.94341 0.01951 0.971 0.0
H651 H 0.91127 0.98482 0.79156 0.0
H652 H 0.94295 0.98775 0.71085 0.0
H653 H 0.92194 0.98512 0.02768 0.0
H654 H 0.85782 0.99798 0.80011 0.0
H655 H 0.85402 0.01528 0.67546 0.0
H656 H 0.90246 0.06063 0.73704 0.0
H657 H 0.90631 0.04382 0.86243 0.0
C658 C 0.82217 0.97243 0.14385 0.0
C659 C 0.80931 0.99022 0.16099 0.0
C660 C 0.84168 0.97476 0.10549 0.0
C661 C 0.84882 0.99495 0.08228 0.0
C662 C 0.83616 0.01283 0.10109 0.0
C663 C 0.81671 0.01049 0.14016 0.0
C664 C 0.86872 0.99724 0.0348 0.0
C665 C 0.86731 1.00698 0.96313 0.0
C666 C 0.88881 0.98923 0.05786 0.0
C667 C 0.89185 0.97896 0.1327 0.0
C668 C 0.88601 0.98952 0.20069 0.0
C669 C 0.88907 0.97967 0.27083 0.0
C670 C 0.89811 0.95934 0.27373 0.0
C671 C 0.90421 0.94886 0.20657 0.0
C672 C 0.9011 0.9586 0.13635 0.0
C673 C 0.96115 0.01455 0.86753 0.0
C674 C 0.96153 1.00593 0.79294 0.0
C675 C 0.94309 0.01256 0.91422 0.0
C676 C 0.92469 1.00209 0.88771 0.0
C677 C 0.92504 0.99327 0.81348 0.0
C678 C 0.94321 0.99508 0.76694 0.0
C679 C 0.90517 1.00071 0.93739 0.0
C680 C 0.90666 0.99116 0.00924 0.0
C681 C 0.88514 1.0088 0.91449 0.0
C682 C 0.88245 0.01952 0.84038 0.0
C683 C 0.86755 0.01173 0.78722 0.0
C684 C 0.86541 0.02144 0.71642 0.0
C685 C 0.87802 0.03902 0.69831 0.0
C686 C 0.89273 0.04699 0.75109 0.0
C687 C 0.8949 0.03738 0.82201 0.0
H688 H 0.87639 0.04646 0.64337 0.0
H689 H 0.90039 0.95172 0.32797 0.0
H690 H 0.50377 0.81177 0.12004 0.0
H691 H 0.4986 0.84503 0.04956 0.0
H692 H 0.55729 0.86971 0.14236 0.0
H693 H 0.56228 0.8364 0.21258 0.0
H694 H 0.5273 0.90181 0.12736 0.0
H695 H 0.55706 0.84566 0.96938 0.0
H696 H 0.55824 0.80996 0.90862 0.0
H697 H 0.49823 0.82165 0.8004 0.0
H698 H 0.4966 0.85735 0.86097 0.0
H699 H 0.54542 0.98101 0.8425 0.0
H700 H 0.54816 0.95177 0.93335 0.0
H701 H 0.4978 0.91828 0.81473 0.0
H702 H 0.496 0.9469 0.72204 0.0
H703 H 0.5241 0.89086 0.84753 0.0
H704 H 0.49445 0.9478 0.99991 0.0
H705 H 0.49294 0.98354 0.05989 0.0
H706 H 0.55073 0.97082 0.18138 0.0
H707 H 0.55292 0.93523 0.12046 0.0
C708 C 0.51504 0.82469 0.12766 0.0
C709 C 0.53318 0.82173 0.17294 0.0
C710 C 0.51229 0.84358 0.08655 0.0
C711 C 0.52771 0.85991 0.08947 0.0
C712 C 0.54512 0.85749 0.13892 0.0
C713 C 0.5479 0.83855 0.17965 0.0
C714 C 0.52668 0.87851 0.03644 0.0
C715 C 0.52674 0.89946 0.06609 0.0
C716 C 0.52567 0.87559 0.95636 0.0
C717 C 0.52661 0.85409 0.92027 0.0
C718 C 0.54404 0.84055 0.93308 0.0
C719 C 0.54481 0.82033 0.8986 0.0
C720 C 0.52829 0.81353 0.85091 0.0
C721 C 0.51099 0.82694 0.83747 0.0
C722 C 0.51015 0.84717 0.87176 0.0
C723 C 0.53493 0.9674 0.83611 0.0
C724 C 0.52056 0.96623 0.77479 0.0
C725 C 0.53638 0.95067 0.88855 0.0
C726 C 0.52294 0.93267 0.8826 0.0
C727 C 0.5085 0.93173 0.82127 0.0
C728 C 0.50746 0.94815 0.76792 0.0
C729 C 0.52416 0.91447 0.93794 0.0
C730 C 0.52439 0.89344 0.90871 0.0
C731 C 0.52523 0.91742 0.01837 0.0
C732 C 0.52397 0.9389 0.05486 0.0
C733 C 0.50696 0.95269 0.03879 0.0
C734 C 0.506 0.97295 0.07291 0.0
C735 C 0.5218 0.9795 0.12407 0.0
C736 C 0.53856 0.96577 0.14142 0.0
C737 C 0.53969 0.94557 0.10698 0.0
H738 H 0.52102 0.99518 0.15047 0.0
H739 H 0.52893 0.79792 0.82406 0.0
H740 H 0.69926 0.52528 0.20058 0.0
H741 H 0.66574 0.5199 0.12987 0.0
H742 H 0.69877 0.53084 0.91897 0.0
H743 H 0.73227 0.53523 0.98919 0.0
H744 H 0.66102 0.55594 0.93745 0.0
H745 H 0.68325 0.48271 0.9521 0.0
H746 H 0.6948 0.45026 0.01819 0.0
H747 H 0.63661 0.44991 0.14628 0.0
H748 H 0.62484 0.48256 0.08171 0.0
H749 H 0.56864 0.541 0.70691 0.0
H750 H 0.60487 0.53995 0.7574 0.0
H751 H 0.58262 0.50252 0.94634 0.0
H752 H 0.54769 0.5003 0.88757 0.0
H753 H 0.61754 0.48999 0.9328 0.0
H754 H 0.59632 0.56443 0.93417 0.0
H755 H 0.58273 0.59571 0.86807 0.0
H756 H 0.63749 0.59592 0.72222 0.0
H757 H 0.65112 0.5638 0.78585 0.0
C758 C 0.69943 0.52589 0.13902 0.0
C759 C 0.71849 0.53054 0.10055 0.0
C760 C 0.68023 0.52303 0.09855 0.0
C761 C 0.67956 0.52508 0.01871 0.0
C762 C 0.6987 0.5293 0.98032 0.0
C763 C 0.71788 0.53176 0.02054 0.0
C764 C 0.65893 0.52355 0.97535 0.0
C765 C 0.65156 0.54146 0.93604 0.0
C766 C 0.64626 0.50488 0.97407 0.0
C767 C 0.65326 0.4852 0.01261 0.0
C768 C 0.673 0.47582 0.99483 0.0
C769 C 0.67957 0.45737 0.03193 0.0
C770 C 0.66647 0.44806 0.08654 0.0
C771 C 0.64675 0.45716 0.10403 0.0
C772 C 0.64012 0.47562 0.06716 0.0
C773 C 0.57176 0.53189 0.75759 0.0
C774 C 0.55539 0.51995 0.79094 0.0
C775 C 0.59249 0.53187 0.78851 0.0
C776 C 0.59704 0.52167 0.85816 0.0
C777 C 0.58025 0.51039 0.89253 0.0
C778 C 0.55998 0.50931 0.85907 0.0
C779 C 0.6188 0.52276 0.8965 0.0
C780 C 0.62665 0.50467 0.93456 0.0
C781 C 0.63172 0.54147 0.89819 0.0
C782 C 0.6246 0.56166 0.86423 0.0
C783 C 0.60551 0.5712 0.88821 0.0
C784 C 0.59774 0.58903 0.85081 0.0
C785 C 0.60917 0.59793 0.79085 0.0
C786 C 0.62858 0.58899 0.76845 0.0
C787 C 0.63633 0.57091 0.80503 0.0
H788 H 0.60303 0.61178 0.76205 0.0
H789 H 0.67159 0.43378 0.11519 0.0
H790 H 0.02943 0.73809 0.01059 0.0
H791 H 0.0333 0.70353 0.94405 0.0
H792 H 0.99014 0.67509 0.10437 0.0
H793 H 0.9868 0.70964 0.17136 0.0
H794 H 0.0183 0.64672 0.07118 0.0
H795 H 0.97539 0.69167 0.91913 0.0
H796 H 0.96622 0.72394 0.84761 0.0
H797 H 0.01835 0.71226 0.69468 0.0
H798 H 0.02811 0.68011 0.76624 0.0
H799 H 0.98933 0.57386 0.71154 0.0
H800 H 0.9875 0.60889 0.77686 0.0
H801 H 0.0453 0.59439 0.89781 0.0
H802 H 0.04629 0.55926 0.83648 0.0
H803 H 1.00733 0.64409 0.79158 0.0
H804 H 0.049 0.61811 0.06979 0.0
H805 H 0.05425 0.58569 0.14554 0.0
H806 H 0.99724 0.55859 0.05144 0.0
H807 H 0.99127 0.59099 0.97644 0.0
C808 C 0.02137 0.72425 0.03295 0.0
C809 C 1.00828 0.72651 0.09758 0.0
C810 C 0.02325 0.70449 0.99403 0.0
C811 C 0.01172 0.68639 0.01758 0.0
C812 C 0.99929 0.68852 0.08422 0.0
C813 C 0.9975 0.70828 0.12324 0.0
C814 C 0.01213 0.66554 0.9722 0.0
C815 C 0.01598 0.64627 0.00999 0.0
C816 C 1.00855 0.66441 0.8922 0.0
C817 C 1.00262 0.6836 0.84856 0.0
C818 C 0.985 0.69606 0.87058 0.0
C819 C 0.97969 0.71433 0.83002 0.0
C820 C 0.99172 0.72017 0.76673 0.0
C821 C 0.00907 0.70773 0.7438 0.0
C822 C 0.0145 0.68948 0.78435 0.0
C823 C 1.00174 0.57831 0.75149 0.0
C824 C 0.01805 0.56372 0.76826 0.0
C825 C 1.00068 0.5984 0.78929 0.0
C826 C 0.01592 0.60448 0.84487 0.0
C827 C 0.03279 0.5902 0.85802 0.0
C828 C 0.03353 0.57007 0.8219 0.0
C829 C 0.01405 0.62528 0.89035 0.0
C830 C 0.0098 0.64453 0.85268 0.0
C831 C 0.01676 0.62636 0.97092 0.0
C832 C 0.01983 0.60692 0.01691 0.0
C833 C 0.03749 0.60528 0.06564 0.0
C834 C 0.04057 0.58691 0.10846 0.0
C835 C 0.02607 0.57007 0.10321 0.0
C836 C 1.0084 0.57163 0.05541 0.0
C837 C 1.00515 0.59 0.01276 0.0
H838 H 0.0285 0.55582 0.1362 0.0
H839 H 0.98758 0.73432 0.73537 0.0
H840 H 0.09764 0.24928 0.11588 0.0
H841 H 0.1155 0.21623 0.15679 0.0
H842 H 0.05424 0.18703 0.19162 0.0
H843 H 0.0366 0.22007 0.15506 0.0
H844 H 0.10716 0.19675 0.30671 0.0
H845 H 0.05942 0.1353 0.10761 0.0
H846 H 0.05273 0.1305 0.97082 0.0
H847 H 0.10355 0.17368 0.91954 0.0
H848 H 0.11143 0.178 0.05608 0.0
H849 H 0.02266 0.14178 0.39401 0.0
H850 H 0.05192 0.15943 0.33044 0.0
H851 H 0.09299 0.106 0.37532 0.0
H852 H 0.06366 0.08834 0.44338 0.0
H853 H 0.08323 0.12691 0.20273 0.0
H854 H 0.12238 0.13666 0.42097 0.0
H855 H 0.13188 0.14132 0.55635 0.0
H856 H 0.09879 0.20117 0.56431 0.0
H857 H 0.08899 0.19688 0.42919 0.0
C858 C 0.08816 0.23575 0.13302 0.0
C859 C 0.06584 0.23709 0.13352 0.0
C860 C 0.09829 0.21691 0.15508 0.0
C861 C 0.0861 0.19911 0.17528 0.0
C862 C 0.06384 0.20044 0.17414 0.0
C863 C 0.05381 0.21928 0.15407 0.0
C864 C 0.0957 0.17979 0.20775 0.0
C865 C 0.10251 0.18133 0.28354 0.0
C866 C 0.091 0.15952 0.17563 0.0
C867 C 0.08613 0.15694 0.09297 0.0
C868 C 0.06951 0.14352 0.06759 0.0
C869 C 0.06545 0.1409 0.98981 0.0
C870 C 0.07769 0.15179 0.93663 0.0
C871 C 0.09408 0.16526 0.96094 0.0
C872 C 0.09838 0.16777 0.03859 0.0
C873 C 0.03798 0.13389 0.39224 0.0
C874 C 0.04086 0.11377 0.42469 0.0
C875 C 0.0547 0.14399 0.35569 0.0
C876 C 0.07465 0.13414 0.34947 0.0
C877 C 0.07775 0.11393 0.38069 0.0
C878 C 0.06095 0.10384 0.41871 0.0
C879 C 0.09088 0.14499 0.30344 0.0
C880 C 0.08905 0.14207 0.22453 0.0
C881 C 0.10008 0.16397 0.33236 0.0
C882 C 0.10508 0.16648 0.41457 0.0
C883 C 0.11704 0.15078 0.45163 0.0
C884 C 0.12258 0.15341 0.52826 0.0
C885 C 0.11609 0.17161 0.56873 0.0
C886 C 0.10397 0.18717 0.53271 0.0
C887 C 0.09849 0.18469 0.45595 0.0
H888 H 0.1203 0.17356 0.62816 0.0
H889 H 0.07449 0.14981 0.8766 0.0
H890 H 0.28427 0.09279 0.0935 0.0
H891 H 0.31728 0.11276 0.12513 0.0
H892 H 0.34572 0.05459 0.20358 0.0
H893 H 0.31327 0.03493 0.17272 0.0
H894 H 0.34285 0.10606 0.29384 0.0
H895 H 0.39225 0.0598 0.04704 0.0
H896 H 0.39024 0.05743 0.90807 0.0
H897 H 0.34836 0.11134 0.90436 0.0
H898 H 0.35085 0.11495 0.04355 0.0
H899 H 0.39005 0.01756 0.38454 0.0
H900 H 0.37334 0.05014 0.34318 0.0
H901 H 0.4332 0.07191 0.252 0.0
H902 H 0.45002 0.03861 0.29213 0.0
H903 H 0.40432 0.07663 0.15125 0.0
H904 H 0.40895 0.09991 0.39513 0.0
H905 H 0.41026 0.09936 0.53511 0.0
H906 H 0.34297 0.08845 0.54403 0.0
H907 H 0.34128 0.0874 0.40456 0.0
C908 C 0.29772 0.08448 0.11756 0.0
C909 C 0.2966 0.0624 0.13015 0.0
C910 C 0.31648 0.09577 0.1349 0.0
C911 C 0.3341 0.08485 0.16411 0.0
C912 C 0.33253 0.06298 0.17836 0.0
C913 C 0.31403 0.05186 0.16153 0.0
C914 C 0.35434 0.0953 0.18513 0.0
C915 C 0.35656 0.10005 0.26297 0.0
C916 C 0.37261 0.08963 0.14229 0.0
C917 C 0.37157 0.08758 0.05736 0.0
C918 C 0.38278 0.07145 0.01743 0.0
C919 C 0.38153 0.06981 0.9381 0.0
C920 C 0.36904 0.08408 0.89744 0.0
C921 C 0.35794 0.10019 0.93598 0.0
C922 C 0.35928 0.10205 0.01527 0.0
C923 C 0.39976 0.02935 0.3568 0.0
C924 C 0.4213 0.02541 0.34177 0.0
C925 C 0.39028 0.04823 0.3341 0.0
C926 C 0.40214 0.06386 0.29626 0.0
C927 C 0.42385 0.06029 0.28248 0.0
C928 C 0.4334 0.04125 0.30547 0.0
C929 C 0.39057 0.08194 0.26171 0.0
C930 C 0.3909 0.08324 0.18204 0.0
C931 C 0.37443 0.09277 0.30311 0.0
C932 C 0.37496 0.09394 0.38817 0.0
C933 C 0.39438 0.09733 0.42661 0.0
C934 C 0.39522 0.09716 0.50616 0.0
C935 C 0.37669 0.09409 0.54841 0.0
C936 C 0.3573 0.091 0.51119 0.0
C937 C 0.35641 0.0907 0.43165 0.0
H938 H 0.37738 0.09399 0.60998 0.0
H939 H 0.36802 0.08268 0.83605 0.0
H940 H 0.43347 0.28761 0.16174 0.0
H941 H 0.42474 0.32296 0.21588 0.0
H942 H 0.48841 0.34438 0.16553 0.0
H943 H 0.49729 0.30893 0.1155 0.0
H944 H 0.47827 0.35801 0.2972 0.0
H945 H 0.44358 0.35534 0.05088 0.0
H946 H 0.41836 0.3416 0.9542 0.0
H947 H 0.36617 0.35363 0.10629 0.0
H948 H 0.39104 0.3673 0.20411 0.0
H949 H 0.4644 0.46763 0.19051 0.0
H950 H 0.45015 0.43228 0.16418 0.0
H951 H 0.44194 0.42212 0.40473 0.0
H952 H 0.45565 0.45793 0.43173 0.0
H953 H 0.41933 0.40147 0.19365 0.0
H954 H 0.47645 0.37773 0.439 0.0
H955 H 0.50595 0.39346 0.51394 0.0
H956 H 0.5199 0.4363 0.33214 0.0
H957 H 0.49112 0.42033 0.25517 0.0
C958 C 0.44555 0.29991 0.16353 0.0
C959 C 0.46598 0.29582 0.13458 0.0
C960 C 0.44055 0.32006 0.19358 0.0
C961 C 0.45589 0.33637 0.19394 0.0
C962 C 0.47637 0.33204 0.16588 0.0
C963 C 0.48141 0.31192 0.13698 0.0
C964 C 0.45101 0.35811 0.22281 0.0
C965 C 0.4651 0.36734 0.2757 0.0
C966 C 0.43404 0.37043 0.19385 0.0
C967 C 0.41918 0.36205 0.13519 0.0
C968 C 0.42675 0.35487 0.06395 0.0
C969 C 0.41253 0.34714 0.00892 0.0
C970 C 0.39073 0.34664 0.02427 0.0
C971 C 0.38307 0.35395 0.09458 0.0
C972 C 0.3972 0.36171 0.14981 0.0
C973 C 0.45852 0.45841 0.23777 0.0
C974 C 0.46198 0.46517 0.31341 0.0
C975 C 0.4503 0.43814 0.22251 0.0
C976 C 0.44571 0.42441 0.28268 0.0
C977 C 0.44582 0.43241 0.35765 0.0
C978 C 0.45387 0.45277 0.37297 0.0
C979 C 0.44649 0.40117 0.26814 0.0
C980 C 0.43184 0.39177 0.21777 0.0
C981 C 0.46351 0.38884 0.2968 0.0
C982 C 0.4811 0.39834 0.34245 0.0
C983 C 0.48576 0.39057 0.41522 0.0
C984 C 0.50239 0.39948 0.45797 0.0
C985 C 0.51453 0.41611 0.42841 0.0
C986 C 0.51033 0.42359 0.3554 0.0
C987 C 0.49385 0.41462 0.31221 0.0
H988 H 0.52731 0.42305 0.46178 0.0
H989 H 0.37976 0.34065 0.98156 0.0
H990 H 0.25744 0.43535 0.12737 0.0
H991 H 0.22546 0.41537 0.16701 0.0
H992 H 0.19108 0.47446 0.19 0.0
H993 H 0.22296 0.49439 0.15447 0.0
H994 H 0.20029 0.42654 0.31622 0.0
H995 H 0.14365 0.46283 0.08818 0.0
H996 H 0.14364 0.47031 0.95102 0.0
H997 H 0.19264 0.42365 0.91472 0.0
H998 H 0.19248 0.41528 0.05143 0.0
H999 H 0.11187 0.48565 0.38564 0.0
H1000 H 0.14389 0.46579 0.35853 0.0
H1001 H 0.10668 0.41231 0.27825 0.0
H1002 H 0.07395 0.43157 0.31082 0.0
H1003 H 0.1335 0.43296 0.16827 0.0
H1004 H 0.13953 0.39993 0.40201 0.0
H1005 H 0.13855 0.39492 0.54077 0.0
H1006 H 0.19006 0.43923 0.56955 0.0
H1007 H 0.19099 0.44512 0.43142 0.0
C1008 C 0.243 0.44394 0.14134 0.0
C1009 C 0.24246 0.46632 0.13746 0.0
C1010 C 0.22483 0.43258 0.16327 0.0
C1011 C 0.20592 0.44357 0.17978 0.0
C1012 C 0.20547 0.46584 0.17575 0.0
C1013 C 0.22359 0.47714 0.15548 0.0
C1014 C 0.1866 0.43264 0.2066 0.0
C1015 C 0.18562 0.42744 0.28393 0.0
C1016 C 0.16771 0.43326 0.16307 0.0
C1017 C 0.16802 0.43836 0.0805 0.0
C1018 C 0.15428 0.45395 0.05102 0.0
C1019 C 0.15432 0.45839 0.97324 0.0
C1020 C 0.16811 0.44746 0.92416 0.0
C1021 C 0.18193 0.43209 0.95282 0.0
C1022 C 0.18189 0.4275 0.03053 0.0
C1023 C 0.11017 0.46932 0.3659 0.0
C1024 C 0.09009 0.46048 0.34919 0.0
C1025 C 0.12868 0.45792 0.35033 0.0
C1026 C 0.12765 0.43758 0.3166 0.0
C1027 C 0.10776 0.42799 0.3046 0.0
C1028 C 0.0891 0.43921 0.32207 0.0
C1029 C 0.14708 0.4292 0.27963 0.0
C1030 C 0.14811 0.43096 0.20022 0.0
C1031 C 0.16596 0.42603 0.32173 0.0
C1032 C 0.16539 0.42288 0.40563 0.0
C1033 C 0.15056 0.40877 0.43779 0.0
C1034 C 0.15 0.40578 0.51651 0.0
C1035 C 0.16427 0.41669 0.5639 0.0
C1036 C 0.17911 0.43066 0.53269 0.0
C1037 C 0.17964 0.43385 0.45407 0.0
H1038 H 0.16379 0.41438 0.62483 0.0
H1039 H 0.16812 0.45093 0.86396 0.0
H1040 H 0.98169 0.79229 0.98324 0.0
H1041 H 0.96339 0.82406 0.93932 0.0
H1042 H 0.94548 0.8394 0.17037 0.0
H1043 H 0.96179 0.80617 0.2136 0.0
H1044 H 0.9172 0.85618 0.08011 0.0
H1045 H 0.99519 0.85892 0.08721 0.0
H1046 H 0.03165 0.84719 0.0542 0.0
H1047 H 0.01676 0.85159 0.81631 0.0
H1048 H 0.98033 0.86346 0.84832 0.0
H1049 H 0.96638 0.9587 0.12017 0.0
H1050 H 0.94723 0.92495 0.1254 0.0
H1051 H 0.93607 0.9272 0.88358 0.0
H1052 H 0.95506 0.96105 0.87788 0.0
H1053 H 0.97102 0.90032 0.94876 0.0
H1054 H 0.89845 0.91318 0.95383 0.0
H1055 H 0.86406 0.92868 0.99207 0.0
H1056 H 0.86839 0.89806 0.20859 0.0
H1057 H 0.90291 0.88261 0.17206 0.0
C1058 C 0.9731 0.80201 0.02427 0.0
C1059 C 0.97334 0.79697 0.10192 0.0
C1060 C 0.96287 0.82032 0.99932 0.0
C1061 C 0.95377 0.83462 0.05211 0.0
C1062 C 0.95263 0.82881 0.12894 0.0
C1063 C 0.96215 0.80998 0.15366 0.0
C1064 C 0.94845 0.85673 0.02943 0.0
C1065 C 0.92891 0.86594 0.05159 0.0
C1066 C 0.96343 0.86927 0.9897 0.0
C1067 C 0.98506 0.86166 0.97017 0.0
C1068 C 0.99973 0.85717 0.02801 0.0
C1069 C 0.02036 0.85058 0.00947 0.0
C1070 C 0.02646 0.84848 0.93321 0.0
C1071 C 0.01199 0.85312 0.87535 0.0
C1072 C 0.99138 0.85982 0.89365 0.0
C1073 C 0.95884 0.95265 0.06881 0.0
C1074 C 0.96281 0.96209 0.99812 0.0
C1075 C 0.94771 0.93341 0.07202 0.0
C1076 C 0.9404 0.92355 1.00474 0.0
C1077 C 0.94146 0.93466 0.93614 0.0
C1078 C 0.9526 0.95384 0.93285 0.0
C1079 C 0.94017 0.90008 1.00186 0.0
C1080 C 0.95888 0.89053 0.97518 0.0
C1081 C 0.92451 0.88763 0.03799 0.0
C1082 C 0.90364 0.89696 0.06069 0.0
C1083 C 0.89227 0.90994 0.01005 0.0
C1084 C 0.87263 0.91864 0.03122 0.0
C1085 C 0.86406 0.91439 0.10278 0.0
C1086 C 0.87506 0.90137 0.15317 0.0
C1087 C 0.89468 0.89262 0.1322 0.0
H1088 H 0.84885 0.92112 0.11913 0.0
H1089 H 0.04242 0.84335 0.91897 0.0
H1090 H 0.73773 0.94732 0.08676 0.0
H1091 H 0.70405 0.94634 0.01455 0.0
H1092 H 0.68807 1.00859 0.10514 0.0
H1093 H 0.72175 1.00992 0.1738 0.0
H1094 H 0.6529 0.97956 0.0979 0.0
H1095 H 0.71489 1.00475 0.94394 0.0
H1096 H 0.74916 0.99795 0.8795 0.0
H1097 H 0.72129 0.9456 0.75472 0.0
H1098 H 0.68691 0.95199 0.81916 0.0
H1099 H 0.6163 0.06674 0.92036 0.0
H1100 H 0.63601 0.03748 0.97752 0.0
H1101 H 0.62201 0.99719 0.78264 0.0
H1102 H 0.60247 0.02674 0.72459 0.0
H1103 H 0.66421 0.99601 0.82522 0.0
H1104 H 0.59903 0.98091 0.94607 0.0
H1105 H 0.5647 0.9889 0.00795 0.0
H1106 H 0.5972 0.02161 0.19024 0.0
H1107 H 0.63173 0.01339 0.13034 0.0
C1108 C 0.7268 0.96061 0.09131 0.0
C1109 C 0.73211 0.9787 0.13537 0.0
C1110 C 0.70762 0.95996 0.05095 0.0
C1111 C 0.6936 0.97733 0.05537 0.0
C1112 C 0.69856 0.99491 0.10221 0.0
C1113 C 0.71776 0.9957 0.14116 0.0
C1114 C 0.67511 0.97916 1.00452 0.0
C1115 C 0.65512 0.98265 0.03778 0.0
C1116 C 0.67788 0.98237 0.92561 0.0
C1117 C 0.69849 0.97862 0.88711 0.0
C1118 C 0.71615 0.99169 0.90321 0.0
C1119 C 0.73556 0.98793 0.86663 0.0
C1120 C 0.73743 0.97128 0.81333 0.0
C1121 C 0.71985 0.95842 0.79626 0.0
C1122 C 0.70041 0.96209 0.83281 0.0
C1123 C 0.6176 0.05171 0.88952 0.0
C1124 C 0.60793 0.0489 0.81829 0.0
C1125 C 0.62851 0.03491 0.92261 0.0
C1126 C 0.62991 0.01502 0.88509 0.0
C1127 C 0.62074 0.01229 0.81296 0.0
C1128 C 0.60969 0.02912 0.77997 0.0
C1129 C 0.64253 0.99796 0.92016 0.0
C1130 C 0.66139 0.9916 0.8839 0.0
C1131 C 0.63864 0.9919 0.99608 0.0
C1132 C 0.61797 0.99649 0.03373 0.0
C1133 C 0.59884 0.98977 0.99947 0.0
C1134 C 0.57934 0.9943 0.0343 0.0
C1135 C 0.57874 1.00579 0.103 0.0
C1136 C 0.59767 0.01258 0.13734 0.0
C1137 C 0.61723 1.00785 0.10325 0.0
H1138 H 0.56363 1.00946 0.12961 0.0
H1139 H 0.75248 0.9684 0.78506 0.0
H1140 H 0.59369 0.75897 0.14714 0.0
H1141 H 0.60544 0.73021 0.05958 0.0
H1142 H 0.5409 0.70684 0.04836 0.0
H1143 H 0.52938 0.73544 0.13421 0.0
H1144 H 0.60577 0.68801 0.05728 0.0
H1145 H 0.52558 0.69371 0.88288 0.0
H1146 H 0.50261 0.72216 0.83382 0.0
H1147 H 0.5543 0.76677 0.85093 0.0
H1148 H 0.57781 0.73845 0.898 0.0
H1149 H 0.54811 0.60306 0.03885 0.0
H1150 H 0.57418 0.63104 0.03402 0.0
H1151 H 0.56114 0.63943 0.79431 0.0
H1152 H 0.53318 0.61247 0.80171 0.0
H1153 H 0.55629 0.67357 0.84326 0.0
H1154 H 0.61696 0.63733 0.87954 0.0
H1155 H 0.64323 0.61002 0.91484 0.0
H1156 H 0.63682 0.62791 0.15031 0.0
H1157 H 0.61054 0.65521 0.11696 0.0
C1158 C 0.58224 0.74738 0.12635 0.0
C1159 C 0.5607 0.74918 0.14676 0.0
C1160 C 0.58889 0.7311 0.0765 0.0
C1161 C 0.57395 0.7167 0.0462 0.0
C1162 C 0.55264 0.718 0.07 0.0
C1163 C 0.54607 0.73411 0.11965 0.0
C1164 C 0.57997 0.7 0.98998 0.0
C1165 C 0.59517 0.68471 0.00997 0.0
C1166 C 0.56764 0.6968 0.92353 0.0
C1167 C 0.55357 0.71383 0.89356 0.0
C1168 C 0.5322 0.70948 0.87506 0.0
C1169 C 0.51903 0.72563 0.84783 0.0
C1170 C 0.52698 0.74626 0.83917 0.0
C1171 C 0.54814 0.75078 0.85759 0.0
C1172 C 0.56141 0.73467 0.88447 0.0
C1173 C 0.55103 0.61063 0.98473 0.0
C1174 C 0.53799 0.60624 0.92167 0.0
C1175 C 0.56646 0.62647 0.98128 0.0
C1176 C 0.56964 0.63799 0.91395 0.0
C1177 C 0.55869 0.63134 0.8477 0.0
C1178 C 0.54278 0.61576 0.85171 0.0
C1179 C 0.57924 0.65972 0.91972 0.0
C1180 C 0.56746 0.67659 0.88899 0.0
C1181 C 0.59535 0.66454 0.97384 0.0
C1182 C 0.61152 0.64834 0.99544 0.0
C1183 C 0.621 0.63536 0.93895 0.0
C1184 C 0.63596 0.61988 0.95862 0.0
C1185 C 0.64159 0.61715 0.03473 0.0
C1186 C 0.63242 0.63002 0.09131 0.0
C1187 C 0.61754 0.6456 0.07194 0.0
H1188 H 0.65312 0.60511 0.04983 0.0
H1189 H 0.51673 0.75874 0.81827 0.0
H1190 H 0.78501 0.58553 0.26466 0.0
H1191 H 0.8191 0.60379 0.24074 0.0
H1192 H 0.82277 0.57249 0.02063 0.0
H1193 H 0.78963 0.55371 0.04659 0.0
H1194 H 0.85661 0.58392 0.22108 0.0
H1195 H 0.84596 0.5999 0.89313 0.0
H1196 H 0.81909 0.6162 0.8102 0.0
H1197 H 0.79358 0.65118 1.0011 0.0
H1198 H 0.82052 0.6354 0.08518 0.0
H1199 H 0.91643 0.54474 0.90523 0.0
H1200 H 0.88819 0.56882 0.94353 0.0
H1201 H 0.93 0.59919 0.107 0.0
H1202 H 0.95866 0.57477 0.06877 0.0
H1203 H 0.87722 0.6106 0.96695 0.0
H1204 H 0.89891 0.60116 0.27715 0.0
H1205 H 0.92482 0.58204 0.35698 0.0
H1206 H 0.92485 0.52948 0.19772 0.0
H1207 H 0.8992 0.54833 0.1171 0.0
C1208 C 0.79326 0.58269 0.21145 0.0
C1209 C 0.7852 0.56797 0.15789 0.0
C1210 C 0.81249 0.59328 0.1974 0.0
C1211 C 0.82337 0.58975 0.12851 0.0
C1212 C 0.81449 0.5759 0.07351 0.0
C1213 C 0.79569 0.56504 0.08832 0.0
C1214 C 0.84538 0.59758 0.11665 0.0
C1215 C 0.86116 0.59037 0.16649 0.0
C1216 C 0.85141 0.60666 0.04657 0.0
C1217 C 0.83539 0.6165 0.9956 0.0
C1218 C 0.83482 0.61126 0.91743 0.0
C1219 C 0.8195 0.62036 0.87019 0.0
C1220 C 0.80465 0.63473 0.90034 0.0
C1221 C 0.80509 0.64004 0.97782 0.0
C1222 C 0.82037 0.631 0.02532 0.0
C1223 C 0.91999 0.55705 0.94722 0.0
C1224 C 0.93967 0.55758 0.98504 0.0
C1225 C 0.90379 0.57095 0.96885 0.0
C1226 C 0.90689 0.5856 0.02891 0.0
C1227 C 0.92725 0.58786 0.06095 0.0
C1228 C 0.94351 0.57376 0.03962 0.0
C1229 C 0.88776 0.59436 0.06715 0.0
C1230 C 0.87268 0.60504 0.02284 0.0
C1231 C 0.88223 0.58799 0.14171 0.0
C1232 C 0.89722 0.57622 0.19097 0.0
C1233 C 0.90441 0.5855 0.25945 0.0
C1234 C 0.91911 0.57473 0.30468 0.0
C1235 C 0.9265 0.55458 0.28232 0.0
C1236 C 0.91918 0.54511 0.21488 0.0
C1237 C 0.90454 0.55582 0.16951 0.0
H1238 H 0.9378 0.5462 0.31739 0.0
H1239 H 0.7928 0.64174 0.86367 0.0
H1240 H 1.00183 0.2373 0.02984 0.0
H1241 H 0.99595 0.20334 0.96111 0.0
H1242 H 0.06276 0.20053 0.90581 0.0
H1243 H 0.06815 0.23494 0.96983 0.0
H1244 H 0.04452 0.18472 0.7936 0.0
H1245 H 0.03438 0.17261 0.06028 0.0
H1246 H 0.01817 0.17569 0.18794 0.0
H1247 H 0.95816 0.15497 0.09738 0.0
H1248 H 0.9739 0.15177 0.96917 0.0
H1249 H 0.04483 0.071 0.69748 0.0
H1250 H 0.05175 0.10572 0.75791 0.0
H1251 H 0.9846 0.1141 0.79742 0.0
H1252 H 0.97802 0.07845 0.74456 0.0
H1253 H 1.00422 0.12692 0.91788 0.0
H1254 H 0.01787 0.16442 0.6498 0.0
H1255 H 0.03586 0.16361 0.52471 0.0
H1256 H 0.09035 0.13384 0.625 0.0
H1257 H 0.07352 0.13631 0.75122 0.0
C1258 C 0.01508 0.22976 1.00082 0.0
C1259 C 0.03546 0.23905 1.00512 0.0
C1260 C 0.01185 0.20997 0.96273 0.0
C1261 C 0.02898 0.19861 0.92917 0.0
C1262 C 0.04912 0.20849 0.93086 0.0
C1263 C 0.05225 0.22833 0.96762 0.0
C1264 C 0.0263 0.17654 0.89295 0.0
C1265 C 0.03581 0.17214 0.82174 0.0
C1266 C 0.01485 0.15967 0.9278 0.0
C1267 C 1.00533 0.16203 1.00484 0.0
C1268 C 0.01773 0.16875 0.06743 0.0
C1269 C 1.00863 0.17052 0.13991 0.0
C1270 C 0.98718 0.16558 0.15065 0.0
C1271 C 0.97477 0.15882 0.08897 0.0
C1272 C 0.98378 0.15698 0.0164 0.0
C1273 C 0.03158 0.08018 0.71972 0.0
C1274 C 0.01094 0.07146 0.71831 0.0
C1275 C 0.03546 0.1006 0.75223 0.0
C1276 C 0.01871 0.11349 0.78075 0.0
C1277 C 0.99801 0.1049 0.77653 0.0
C1278 C 0.99421 0.08436 0.74596 0.0
C1279 C 0.02237 0.1352 0.81869 0.0
C1280 C 0.01288 0.13959 0.89005 0.0
C1281 C 0.03414 0.15197 0.78493 0.0
C1282 C 0.04408 0.14969 0.70919 0.0
C1283 C 0.03365 0.15761 0.64486 0.0
C1284 C 0.04379 0.15718 0.57401 0.0
C1285 C 0.06407 0.14832 0.56667 0.0
C1286 C 0.07458 0.14056 0.63054 0.0
C1287 C 0.06487 0.14177 0.70194 0.0
H1288 H 0.07174 0.14767 0.51171 0.0
H1289 H 0.98019 0.16697 0.20682 0.0
H1290 H 0.30161 0.99533 0.06098 0.0
H1291 H 0.33525 0.98888 0.99197 0.0
H1292 H 0.33142 0.0518 0.89684 0.0
H1293 H 0.29772 0.0578 0.96333 0.0
H1294 H 0.34362 0.0237 0.79096 0.0
H1295 H 0.36164 0.03426 0.06195 0.0
H1296 H 0.36284 0.0232 0.19636 0.0
H1297 H 0.3937 0.9649 0.13153 0.0
H1298 H 0.39295 0.97542 0.99697 0.0
H1299 H 0.44522 0.03329 0.62211 0.0
H1300 H 0.41216 0.03794 0.69354 0.0
H1301 H 0.43143 0.98769 0.84482 0.0
H1302 H 0.46562 0.98552 0.77939 0.0
H1303 H 0.41061 1.00772 0.92646 0.0
H1304 H 0.3898 0.98705 0.67736 0.0
H1305 H 0.38353 0.98599 0.53867 0.0
H1306 H 0.35305 0.04712 0.55193 0.0
H1307 H 0.35971 0.04894 0.69024 0.0
C1308 C 0.30771 1.0075 0.02369 0.0
C1309 C 0.29681 0.02701 0.01698 0.0
C1310 C 0.32719 1.00399 0.9852 0.0
C1311 C 0.33636 0.01999 0.93977 0.0
C1312 C 0.325 0.03915 0.93144 0.0
C1313 C 0.30562 0.04258 0.96932 0.0
C1314 C 0.3575 0.01716 0.89968 0.0
C1315 C 0.35836 0.0204 0.82072 0.0
C1316 C 0.37668 0.01155 0.93717 0.0
C1317 C 0.37722 1.00567 0.01887 0.0
C1318 C 0.36878 0.01913 0.07607 0.0
C1319 C 0.36934 0.01297 0.1523 0.0
C1320 C 0.37818 0.99342 0.17212 0.0
C1321 C 0.3868 0.98005 0.11603 0.0
C1322 C 0.38639 0.98613 0.03981 0.0
C1323 C 0.44273 0.02399 0.67287 0.0
C1324 C 0.45867 1.01004 0.69784 0.0
C1325 C 0.4233 0.02601 0.71251 0.0
C1326 C 0.41839 0.0129 0.77511 0.0
C1327 C 0.43432 0.99846 0.79834 0.0
C1328 C 0.45405 0.99712 0.76055 0.0
C1329 C 0.39699 0.01406 0.81614 0.0
C1330 C 0.39603 0.01079 0.89561 0.0
C1331 C 0.37738 0.01814 0.77832 0.0
C1332 C 0.37538 0.01817 0.69417 0.0
C1333 C 0.38214 1.00047 0.65049 0.0
C1334 C 0.37849 0.99973 0.57197 0.0
C1335 C 0.36785 0.01648 0.53672 0.0
C1336 C 0.36135 0.03424 0.57942 0.0
C1337 C 0.3651 0.03515 0.65778 0.0
H1338 H 0.36434 0.0156 0.47656 0.0
H1339 H 0.3782 0.98859 0.23094 0.0
H1340 H 0.51552 0.28465 0.95618 0.0
H1341 H 0.52051 0.31728 0.882 0.0
H1342 H 0.45437 0.33307 0.91515 0.0
H1343 H 0.44921 0.29993 0.98435 0.0
H1344 H 0.46339 0.34615 0.78647 0.0
H1345 H 0.49956 0.35483 0.02667 0.0
H1346 H 0.52558 0.34618 0.12705 0.0
H1347 H 0.57677 0.35329 0.96773 0.0
H1348 H 0.5511 0.36175 0.86625 0.0
H1349 H 0.46788 0.45826 0.72824 0.0
H1350 H 0.46433 0.42257 0.77969 0.0
H1351 H 0.53025 0.41005 0.72787 0.0
H1352 H 0.53427 0.44648 0.68234 0.0
H1353 H 0.52259 0.39446 0.8595 0.0
H1354 H 0.48367 0.39079 0.62317 0.0
H1355 H 0.45602 0.40227 0.53266 0.0
H1356 H 0.40744 0.38718 0.69487 0.0
H1357 H 0.43477 0.37638 0.78729 0.0
C1358 C 0.50195 0.29479 0.94542 0.0
C1359 C 0.48197 0.28969 0.97627 0.0
C1360 C 0.50486 0.31374 0.90424 0.0
C1361 C 0.48796 0.32829 0.89434 0.0
C1362 C 0.46778 0.32247 0.92186 0.0
C1363 C 0.46482 0.30344 0.96162 0.0
C1364 C 0.49108 0.34977 0.85769 0.0
C1365 C 0.47628 0.35673 0.80316 0.0
C1366 C 0.50799 0.3638 0.87778 0.0
C1367 C 0.5234 0.35867 0.93872 0.0
C1368 C 0.51635 0.35439 0.01298 0.0
C1369 C 0.53102 0.34955 0.07004 0.0
C1370 C 0.55277 0.34912 0.05368 0.0
C1371 C 0.55991 0.35359 0.98027 0.0
C1372 C 0.54532 0.35841 0.92298 0.0
C1373 C 0.4818 0.44816 0.72935 0.0
C1374 C 0.50159 0.45586 0.7039 0.0
C1375 C 0.47963 0.4274 0.75745 0.0
C1376 C 0.49695 0.41317 0.75764 0.0
C1377 C 0.51657 0.42054 0.72935 0.0
C1378 C 0.51885 0.44152 0.70286 0.0
C1379 C 0.49483 0.39089 0.78868 0.0
C1380 C 0.50981 0.38381 0.8423 0.0
C1381 C 0.4778 0.37694 0.76882 0.0
C1382 C 0.46133 0.38289 0.71228 0.0
C1383 C 0.46711 0.38999 0.63953 0.0
C1384 C 0.4515 0.3964 0.58795 0.0
C1385 C 0.43002 0.39536 0.60785 0.0
C1386 C 0.42409 0.38796 0.67947 0.0
C1387 C 0.43964 0.38175 0.73155 0.0
H1388 H 0.41797 0.40031 0.56779 0.0
H1389 H 0.56409 0.34537 0.09795 0.0
H1390 H 0.24047 0.53153 0.04246 0.0
H1391 H 0.20717 0.53677 0.97159 0.0
H1392 H 0.20777 0.47042 0.9036 0.0
H1393 H 0.24129 0.46555 0.97172 0.0
H1394 H 0.19214 0.49067 0.79255 0.0
H1395 H 0.17802 0.49466 0.06615 0.0
H1396 H 0.18069 0.51011 0.1962 0.0
H1397 H 0.15807 0.57018 0.11541 0.0
H1398 H 0.15537 0.55528 0.98512 0.0
H1399 H 0.07017 0.48612 0.81665 0.0
H1400 H 0.10565 0.48572 0.87309 0.0
H1401 H 0.12733 0.53039 0.70594 0.0
H1402 H 0.09149 0.53161 0.65088 0.0
H1403 H 0.13121 0.52242 0.933 0.0
H1404 H 0.17851 0.51035 0.6586 0.0
H1405 H 0.17239 0.49621 0.52849 0.0
H1406 H 0.12678 0.45162 0.61467 0.0
H1407 H 0.1329 0.46523 0.74532 0.0
C1408 C 0.23375 0.51826 0.01057 0.0
C1409 C 0.24358 0.49812 0.01269 0.0
C1410 C 0.21444 0.52112 0.97104 0.0
C1411 C 0.20426 0.50384 0.9336 0.0
C1412 C 0.21482 0.48404 0.93242 0.0
C1413 C 0.23411 0.48124 0.97131 0.0
C1414 C 0.18245 0.50589 0.89797 0.0
C1415 C 0.17896 0.49774 0.82366 0.0
C1416 C 0.16481 0.51504 0.93733 0.0
C1417 C 0.16665 0.52389 0.01577 0.0
C1418 C 0.1737 0.51118 0.07609 0.0
C1419 C 0.17521 0.51981 0.14977 0.0
C1420 C 0.16961 0.54105 0.16387 0.0
C1421 C 0.16243 0.55373 0.1044 0.0
C1422 C 0.16089 0.54521 0.03068 0.0
C1423 C 0.08224 0.49619 0.79239 0.0
C1424 C 0.0775 0.50927 0.72991 0.0
C1425 C 0.10268 0.49588 0.82482 0.0
C1426 C 0.11926 0.50815 0.79448 0.0
C1427 C 0.11485 0.52084 0.73091 0.0
C1428 C 0.09424 0.52151 0.69939 0.0
C1429 C 0.14119 0.5073 0.82854 0.0
C1430 C 0.14458 0.51559 0.90219 0.0
C1431 C 0.15868 0.49828 0.78891 0.0
C1432 C 0.15598 0.48901 0.71147 0.0
C1433 C 0.16731 0.49742 0.64979 0.0
C1434 C 0.16379 0.48954 0.57598 0.0
C1435 C 0.14902 0.47321 0.56331 0.0
C1436 C 0.13804 0.46443 0.62453 0.0
C1437 C 0.14155 0.4722 0.69843 0.0
H1438 H 0.14622 0.46723 0.50615 0.0
H1439 H 0.1708 0.54767 0.22093 0.0
H1440 H 1.00536 0.78388 0.3344 0.0
H1441 H 0.01017 0.81665 0.41204 0.0
H1442 H 0.01334 0.85371 0.20802 0.0
H1443 H 0.00969 0.82086 0.13059 0.0
H1444 H 0.04469 0.851 0.40526 0.0
H1445 H 0.97513 0.89821 0.26507 0.0
H1446 H 0.93796 0.89332 0.22373 0.0
H1447 H 0.93359 0.83595 0.35382 0.0
H1448 H 0.9706 0.84065 0.39661 0.0
H1449 H 0.05656 0.95898 0.53066 0.0
H1450 H 0.05273 0.92611 0.4554 0.0
H1451 H 0.98861 0.91898 0.53913 0.0
H1452 H 0.99212 0.95284 0.61033 0.0
H1453 H 0.98706 0.90496 0.40813 0.0
H1454 H 0.03747 0.88815 0.60241 0.0
H1455 H 0.07011 0.89292 0.67877 0.0
H1456 H 0.10823 0.88566 0.47718 0.0
H1457 H 0.0758 0.88103 0.39954 0.0
C1458 C 1.00754 0.79894 0.30601 0.0
C1459 C 1.00692 0.79962 0.22576 0.0
C1460 C 0.01011 0.81778 0.35058 0.0
C1461 C 0.01173 0.83799 0.31644 0.0
C1462 C 0.01173 0.83857 0.23634 0.0
C1463 C 0.00967 0.81972 0.19192 0.0
C1464 C 0.01345 0.85842 0.36365 0.0
C1465 C 0.03209 0.86281 0.40543 0.0
C1466 C 0.99698 0.87391 0.36642 0.0
C1467 C 0.97576 0.86961 0.33308 0.0
C1468 C 0.96631 0.88441 0.28406 0.0
C1469 C 0.94519 0.88176 0.26091 0.0
C1470 C 0.93334 0.86443 0.28686 0.0
C1471 C 0.94275 0.84942 0.3342 0.0
C1472 C 0.96385 0.85198 0.35742 0.0
C1473 C 0.04153 0.95052 0.53229 0.0
C1474 C 0.02451 0.9589 0.57544 0.0
C1475 C 0.03942 0.93137 0.48987 0.0
C1476 C 0.02053 0.91919 0.49202 0.0
C1477 C 1.00346 0.92766 0.53551 0.0
C1478 C 1.0054 0.94718 0.5764 0.0
C1479 C 0.01851 0.89792 0.44901 0.0
C1480 C 0.99983 0.89334 0.40753 0.0
C1481 C 0.0347 0.88198 0.44857 0.0
C1482 C 0.05422 0.88439 0.49517 0.0
C1483 C 0.05282 0.88763 0.57439 0.0
C1484 C 0.07128 0.89031 0.61788 0.0
C1485 C 0.09123 0.88963 0.58283 0.0
C1486 C 0.09277 0.88618 0.50425 0.0
C1487 C 0.07436 0.88349 0.46049 0.0
H1488 H 0.1055 0.89175 0.61657 0.0
H1489 H 0.91694 0.86242 0.26983 0.0
H1490 H 0.72634 0.95678 0.27516 0.0
H1491 H 0.69313 0.96141 0.3453 0.0
H1492 H 0.71285 0.02477 0.4135 0.0
H1493 H 0.74547 0.02057 0.33745 0.0
H1494 H 0.67865 0.96568 0.47275 0.0
H1495 H 0.67161 0.05728 0.45165 0.0
H1496 H 0.6824 0.08635 0.36643 0.0
H1497 H 0.68503 0.04224 0.17768 0.0
H1498 H 0.67409 0.01291 0.26155 0.0
H1499 H 0.58216 0.987 0.67356 0.0
H1500 H 0.6186 0.9845 0.62835 0.0
H1501 H 0.60251 0.0246 0.43857 0.0
H1502 H 0.56805 0.03123 0.49682 0.0
H1503 H 0.637 0.03201 0.44474 0.0
H1504 H 0.61541 0.95671 0.45586 0.0
H1505 H 0.60193 0.92442 0.51977 0.0
H1506 H 0.65152 0.92996 0.68687 0.0
H1507 H 0.66506 0.96227 0.62425 0.0
C1508 C 0.72368 0.97165 0.30573 0.0
C1509 C 0.73864 0.9883 0.30009 0.0
C1510 C 0.70456 0.97433 0.34627 0.0
C1511 C 0.69975 0.99369 0.38419 0.0
C1512 C 0.71547 1.00987 0.38321 0.0
C1513 C 0.7345 1.00731 0.341 0.0
C1514 C 0.6782 0.99677 0.42244 0.0
C1515 C 0.66949 0.98018 0.46586 0.0
C1516 C 0.66567 0.01543 0.414 0.0
C1517 C 0.67229 0.03289 0.36313 0.0
C1518 C 0.67448 0.0538 0.39194 0.0
C1519 C 0.68062 0.0703 0.34388 0.0
C1520 C 0.68449 0.0661 0.26677 0.0
C1521 C 0.68214 0.04541 0.23748 0.0
C1522 C 0.67599 0.02884 0.28526 0.0
C1523 C 0.58639 0.99498 0.62134 0.0
C1524 C 0.57126 1.00774 0.58447 0.0
C1525 C 0.60744 0.99318 0.59395 0.0
C1526 C 0.61395 1.00296 0.52549 0.0
C1527 C 0.59872 0.01623 0.49027 0.0
C1528 C 0.57825 0.01932 0.52136 0.0
C1529 C 0.63643 1.00033 0.49211 0.0
C1530 C 0.64564 0.01721 0.45059 0.0
C1531 C 0.64894 0.98141 0.49874 0.0
C1532 C 0.64096 0.96198 0.53603 0.0
C1533 C 0.62325 0.95104 0.50649 0.0
C1534 C 0.61565 0.93277 0.54238 0.0
C1535 C 0.62579 0.92522 0.60748 0.0
C1536 C 0.64364 0.93585 0.63657 0.0
C1537 C 0.65129 0.95411 0.60084 0.0
H1538 H 0.61988 0.9111 0.63521 0.0
H1539 H 0.68924 0.07889 0.22967 0.0
H1540 H 0.56951 0.74047 0.29945 0.0
H1541 H 0.56376 0.70698 0.36666 0.0
H1542 H 0.49634 0.71909 0.37117 0.0
H1543 H 0.50195 0.75212 0.29951 0.0
H1544 H 0.5144 0.7037 0.51595 0.0
H1545 H 0.50921 0.68388 0.25566 0.0
H1546 H 0.51868 0.68096 0.11989 0.0
H1547 H 0.57692 0.64941 0.17782 0.0
H1548 H 0.56788 0.6523 0.31426 0.0
H1549 H 0.48626 0.59555 0.61867 0.0
H1550 H 0.48872 0.63117 0.56346 0.0
H1551 H 0.55483 0.62017 0.51115 0.0
H1552 H 0.55253 0.58476 0.56695 0.0
H1553 H 0.53498 0.63561 0.38944 0.0
H1554 H 0.537 0.65472 0.65671 0.0
H1555 H 0.52374 0.65668 0.78888 0.0
H1556 H 0.46768 0.68918 0.7142 0.0
H1557 H 0.48025 0.68703 0.58131 0.0
C1558 C 0.55343 0.73602 0.31454 0.0
C1559 C 0.53624 0.74916 0.29395 0.0
C1560 C 0.55016 0.71684 0.35328 0.0
C1561 C 0.5296 0.71032 0.37418 0.0
C1562 C 0.51239 0.72373 0.35622 0.0
C1563 C 0.51563 0.74278 0.31579 0.0
C1564 C 0.52631 0.68925 0.41277 0.0
C1565 C 0.51863 0.68877 0.48796 0.0
C1566 C 0.53199 0.66968 0.37698 0.0
C1567 C 0.53802 0.66862 0.29533 0.0
C1568 C 0.52421 0.67663 0.23959 0.0
C1569 C 0.52947 0.6749 0.16245 0.0
C1570 C 0.54853 0.66524 0.1402 0.0
C1571 C 0.56229 0.65712 0.19511 0.0
C1572 C 0.55707 0.65873 0.2724 0.0
C1573 C 0.50143 0.60077 0.59641 0.0
C1574 C 0.5191 0.58692 0.59645 0.0
C1575 C 0.50283 0.62128 0.56471 0.0
C1576 C 0.52198 0.62863 0.53254 0.0
C1577 C 0.53978 0.61503 0.53469 0.0
C1578 C 0.53841 0.59462 0.56656 0.0
C1579 C 0.5234 0.64992 0.49358 0.0
C1580 C 0.53078 0.65047 0.4179 0.0
C1581 C 0.5171 0.66948 0.52878 0.0
C1582 C 0.50947 0.67049 0.60875 0.0
C1583 C 0.52173 0.66207 0.66824 0.0
C1584 C 0.51437 0.66324 0.74332 0.0
C1585 C 0.49492 0.67299 0.75985 0.0
C1586 C 0.48274 0.68159 0.70131 0.0
C1587 C 0.48995 0.68038 0.62607 0.0
H1588 H 0.48931 0.67394 0.81807 0.0
H1589 H 0.55257 0.66399 0.08042 0.0
H1590 H 0.78144 0.55506 0.34039 0.0
H1591 H 0.81543 0.54965 0.405 0.0
H1592 H 0.82869 0.4963 0.25461 0.0
H1593 H 0.79536 0.50326 0.18555 0.0
H1594 H 0.83451 0.52333 0.48467 0.0
H1595 H 0.88559 0.49025 0.23453 0.0
H1596 H 0.88573 0.4891 0.09421 0.0
H1597 H 0.8477 0.54581 0.08909 0.0
H1598 H 0.84754 0.54753 0.22942 0.0
H1599 H 0.94102 0.48708 0.58856 0.0
H1600 H 0.9056 0.48809 0.52987 0.0
H1601 H 0.91837 0.55109 0.44739 0.0
H1602 H 0.95359 0.55044 0.50672 0.0
H1603 H 0.90069 0.51761 0.33246 0.0
H1604 H 0.88814 0.55273 0.57409 0.0
H1605 H 0.88934 0.5556 0.71419 0.0
H1606 H 0.8513 0.49897 0.73163 0.0
H1607 H 0.85018 0.49558 0.59145 0.0
C1608 C 0.79172 0.54227 0.32095 0.0
C1609 C 0.78592 0.52994 0.25686 0.0
C1610 C 0.81115 0.53899 0.35846 0.0
C1611 C 0.82531 0.52287 0.33417 0.0
C1612 C 0.81864 0.50933 0.27367 0.0
C1613 C 0.79937 0.51305 0.2347 0.0
C1614 C 0.84713 0.52112 0.37054 0.0
C1615 C 0.84886 0.52204 0.45069 0.0
C1616 C 0.86631 0.51951 0.32749 0.0
C1617 C 0.86638 0.5189 0.24283 0.0
C1618 C 0.87729 0.50254 0.20357 0.0
C1619 C 0.87734 0.50177 0.12398 0.0
C1620 C 0.86654 0.51728 0.0828 0.0
C1621 C 0.85582 0.5337 0.12115 0.0
C1622 C 0.85584 0.53463 0.20074 0.0
C1623 C 0.9364 0.50119 0.55786 0.0
C1624 C 0.95062 0.51851 0.55128 0.0
C1625 C 0.91606 0.50171 0.52403 0.0
C1626 C 0.90937 0.51949 0.48232 0.0
C1627 C 0.92333 0.53692 0.47695 0.0
C1628 C 0.94357 0.5365 0.51114 0.0
C1629 C 0.88776 0.52008 0.44527 0.0
C1630 C 0.88618 0.51889 0.3655 0.0
C1631 C 0.86877 0.52172 0.48817 0.0
C1632 C 0.86932 0.52375 0.57234 0.0
C1633 C 0.88023 0.54076 0.6078 0.0
C1634 C 0.88085 0.54252 0.68721 0.0
C1635 C 0.87047 0.52744 0.7318 0.0
C1636 C 0.85938 0.51061 0.69701 0.0
C1637 C 0.85874 0.50877 0.61759 0.0
H1638 H 0.87096 0.52883 0.79327 0.0
H1639 H 0.86662 0.51668 0.02118 0.0
loop_
_geom_bond_atom_site_label_1
_geom_bond_atom_site_label_2
_geom_bond_distance
_geom_bond_site_symmetry_2
_ccdc_geom_bond_type
C0 N1 1.317 . S
C0 N2 1.348 . S
C0 C3 1.485 . S
N1 C0 1.317 . S
N1 N5 1.370 . S
N2 C0 1.348 . S
N2 C4 1.346 . S
C3 C0 1.485 . S
C3 H7 0.960 . S
C3 H8 0.961 . S
C3 H9 0.960 . S
C4 N2 1.346 . S
C4 N5 1.307 . S
C4 C6 1.486 . S
N5 N1 1.370 . S
N5 C4 1.307 . S
C6 C4 1.486 . S
C6 H10 0.960 . S
C6 H11 0.960 . S
C6 H12 0.959 . S
H7 C3 0.960 . S
H8 C3 0.961 . S
H9 C3 0.960 . S
H10 C6 0.960 . S
H11 C6 0.960 . S
H12 C6 0.959 . S
C13 N14 1.317 . S
C13 N15 1.348 . S
C13 C16 1.485 . S
N14 C13 1.317 . S
N14 N18 1.370 . S
N15 C13 1.348 . S
N15 C17 1.346 . S
C16 C13 1.485 . S
C16 H20 0.960 . S
C16 H21 0.961 . S
C16 H22 0.960 . S
C17 N15 1.346 . S
C17 N18 1.307 . S
C17 C19 1.486 . S
N18 N14 1.370 . S
N18 C17 1.307 . S
C19 C17 1.486 . S
C19 H23 0.960 . S
C19 H24 0.960 . S
C19 H25 0.959 . S
H20 C16 0.960 . S
H21 C16 0.961 . S
H22 C16 0.960 . S
H23 C19 0.960 . S
H24 C19 0.960 . S
H25 C19 0.959 . S
C26 N27 1.317 . S
C26 N28 1.348 . S
C26 C29 1.485 . S
N27 C26 1.317 . S
N27 N31 1.370 . S
N28 C26 1.348 . S
N28 C30 1.346 . S
C29 C26 1.485 . S
C29 H33 0.960 . S
C29 H34 0.961 . S
C29 H35 0.960 . S
C30 N28 1.346 . S
C30 N31 1.307 . S
C30 C32 1.486 . S
N31 N27 1.370 . S
N31 C30 1.307 . S
C32 C30 1.486 . S
C32 H36 0.960 . S
C32 H37 0.960 . S
C32 H38 0.959 . S
H33 C29 0.960 . S
H34 C29 0.961 . S
H35 C29 0.960 . S
H36 C32 0.960 . S
H37 C32 0.960 . S
H38 C32 0.959 . S
C39 N40 1.317 . S
C39 N41 1.348 . S
C39 C42 1.485 . S
N40 C39 1.317 . S
N40 N44 1.370 . S
N41 C39 1.348 . S
N41 C43 1.346 . S
C42 C39 1.485 . S
C42 H46 0.960 . S
C42 H47 0.961 . S
C42 H48 0.960 . S
C43 N41 1.346 . S
C43 N44 1.307 . S
C43 C45 1.486 . S
N44 N40 1.370 . S
N44 C43 1.307 . S
C45 C43 1.486 . S
C45 H49 0.960 . S
C45 H50 0.960 . S
C45 H51 0.959 . S
H46 C42 0.960 . S
H47 C42 0.961 . S
H48 C42 0.960 . S
H49 C45 0.960 . S
H50 C45 0.960 . S
H51 C45 0.959 . S
C52 N53 1.317 . S
C52 N54 1.348 1_556 S
C52 C55 1.485 . S
N53 C52 1.317 . S
N53 N57 1.370 1_556 S
N54 C52 1.348 1_554 S
N54 C56 1.346 . S
C55 C52 1.485 . S
C55 H59 0.960 . S
C55 H60 0.961 . S
C55 H61 0.960 . S
C56 N54 1.346 . S
C56 N57 1.307 . S
C56 C58 1.486 . S
N57 N53 1.370 1_554 S
N57 C56 1.307 . S
C58 C56 1.486 . S
C58 H62 0.960 . S
C58 H63 0.960 . S
C58 H64 0.959 . S
H59 C55 0.960 . S
H60 C55 0.961 . S
H61 C55 0.960 . S
H62 C58 0.960 . S
H63 C58 0.960 . S
H64 C58 0.959 . S
C65 N66 1.317 . S
C65 N67 1.348 1_556 S
C65 C68 1.485 . S
N66 C65 1.317 . S
N66 N70 1.370 1_556 S
N67 C65 1.348 1_554 S
N67 C69 1.346 . S
C68 C65 1.485 . S
C68 H72 0.960 . S
C68 H73 0.961 . S
C68 H74 0.960 . S
C69 N67 1.346 . S
C69 N70 1.307 . S
C69 C71 1.486 . S
N70 N66 1.370 1_554 S
N70 C69 1.307 . S
C71 C69 1.486 . S
C71 H75 0.960 . S
C71 H76 0.960 . S
C71 H77 0.959 . S
H72 C68 0.960 . S
H73 C68 0.961 . S
H74 C68 0.960 . S
H75 C71 0.960 . S
H76 C71 0.960 . S
H77 C71 0.959 . S
C78 N79 1.317 . S
C78 N80 1.348 1_556 S
C78 C81 1.485 . S
N79 C78 1.317 . S
N79 N83 1.370 1_556 S
N80 C78 1.348 1_554 S
N80 C82 1.346 . S
C81 C78 1.485 . S
C81 H85 0.960 . S
C81 H86 0.961 . S
C81 H87 0.960 . S
C82 N80 1.346 . S
C82 N83 1.307 . S
C82 C84 1.486 . S
N83 N79 1.370 1_554 S
N83 C82 1.307 . S
C84 C82 1.486 . S
C84 H88 0.960 . S
C84 H89 0.960 . S
C84 H90 0.959 . S
H85 C81 0.960 . S
H86 C81 0.961 . S
H87 C81 0.960 . S
H88 C84 0.960 . S
H89 C84 0.960 . S
H90 C84 0.959 . S
C91 N92 1.317 . S
C91 N93 1.348 1_556 S
C91 C94 1.485 . S
N92 C91 1.317 . S
N92 N96 1.370 1_556 S
N93 C91 1.348 1_554 S
N93 C95 1.346 . S
C94 C91 1.485 . S
C94 H98 0.960 . S
C94 H99 0.961 . S
C94 H100 0.960 . S
C95 N93 1.346 . S
C95 N96 1.307 . S
C95 C97 1.486 . S
N96 N92 1.370 1_554 S
N96 C95 1.307 . S
C97 C95 1.486 . S
C97 H101 0.960 . S
C97 H102 0.960 . S
C97 H103 0.959 . S
H98 C94 0.960 . S
H99 C94 0.961 . S
H100 C94 0.960 . S
H101 C97 0.960 . S
H102 C97 0.960 . S
H103 C97 0.959 . S
Gd104 N135 2.661 . S
Gd104 N141 2.601 . S
Gd104 O148 2.545 . S
Gd104 O149 2.606 1_655 S
Gd104 O151 2.429 . S
Gd104 O152 2.545 1_655 S
Gd104 O153 2.412 . S
Gd104 O155 2.362 1_545 S
Gd104 O156 2.324 1_655 S
Gd104 C163 2.828 . S
Gd105 N114 2.661 1_565 S
Gd105 N118 2.590 1_565 S
Gd105 O149 2.362 1_565 S
Gd105 O150 2.324 1_455 S
Gd105 O154 2.545 . S
Gd105 O155 2.606 1_455 S
Gd105 O157 2.429 . S
Gd105 O158 2.545 . S
Gd105 O159 2.412 . S
Gd105 C172 2.828 . S
C106 C109 1.417 . S
C106 C111 1.431 . S
C106 C112 1.412 . S
C107 C110 1.437 . S
C107 C111 1.317 . S
C107 H126 0.929 . S
C108 C109 1.426 . S
C108 C110 1.413 . S
C108 N118 1.385 . S
C109 C106 1.417 . S
C109 C108 1.426 . S
C109 N114 1.350 . S
C110 C107 1.437 . S
C110 C108 1.413 . S
C110 C120 1.391 . S
C111 C106 1.431 . S
C111 C107 1.317 . S
C111 H122 0.930 1_556 S
C112 C106 1.412 . S
C112 C113 1.355 . S
C112 H124 0.930 1_556 S
C113 C112 1.355 . S
C113 C115 1.402 . S
C113 H125 0.930 1_455 S
N114 Gd105 2.661 1_545 S
N114 C109 1.350 . S
N114 C115 1.307 . S
C115 C113 1.402 . S
C115 N114 1.307 . S
C115 H116 0.930 1_455 S
H116 C115 0.930 1_655 S
C117 N118 1.316 1_565 S
C117 C119 1.394 . S
C117 H121 0.930 . S
N118 Gd105 2.590 1_545 S
N118 C108 1.385 . S
N118 C117 1.316 1_545 S
C119 C117 1.394 . S
C119 C120 1.359 1_565 S
C119 H131 0.930 . S
C120 C110 1.391 . S
C120 C119 1.359 1_545 S
C120 H132 0.929 . S
H121 C117 0.930 . S
H122 C111 0.930 1_554 S
H123 C140 0.930 . S
H124 C112 0.930 1_554 S
H125 C113 0.930 1_655 S
H126 C107 0.929 . S
H127 C145 0.930 . S
H128 C136 0.930 . S
H129 C137 0.930 . S
H130 C161 0.929 . S
H131 C119 0.930 . S
H132 C120 0.929 . S
H133 C162 0.930 . S
H134 C143 0.930 . S
N135 Gd104 2.661 . S
N135 C139 1.350 1_545 S
N135 C140 1.307 1_645 S
C136 H128 0.930 . S
C136 C137 1.355 1_655 S
C136 C138 1.412 . S
C137 H129 0.930 . S
C137 C136 1.355 1_455 S
C137 C140 1.402 . S
C138 C136 1.412 . S
C138 C139 1.417 . S
C138 C162 1.431 . S
C139 N135 1.350 1_565 S
C139 C138 1.417 . S
C139 C142 1.426 1_565 S
C140 H123 0.930 . S
C140 N135 1.307 1_465 S
C140 C137 1.402 . S
N141 Gd104 2.601 . S
N141 C142 1.359 . S
N141 C145 1.334 . S
C142 C139 1.426 1_545 S
C142 N141 1.359 . S
C142 C146 1.413 . S
C143 H134 0.930 . S
C143 C144 1.359 . S
C143 C145 1.394 . S
C144 C143 1.359 . S
C144 C146 1.391 . S
C144 H147 0.929 . S
C145 H127 0.930 . S
C145 N141 1.334 . S
C145 C143 1.394 . S
C146 C142 1.413 . S
C146 C144 1.391 . S
C146 C161 1.437 1_545 S
H147 C144 0.929 . S
O148 Gd104 2.545 . S
O148 C163 1.258 . S
O149 Gd104 2.606 1_455 S
O149 Gd105 2.362 1_545 S
O149 C160 1.284 . S
O150 Gd105 2.324 1_655 S
O150 C170 1.254 1_565 S
O151 Gd104 2.429 . S
O151 C170 1.268 . S
O152 Gd104 2.545 1_455 S
O152 C160 1.250 . S
O153 Gd104 2.412 . S
O153 C163 1.252 . S
O154 Gd105 2.545 . S
O154 C172 1.258 . S
O155 Gd104 2.362 1_565 S
O155 Gd105 2.606 1_655 S
O155 C171 1.284 . S
O156 Gd104 2.324 1_455 S
O156 C179 1.254 . S
O157 Gd105 2.429 . S
O157 C179 1.268 1_565 S
O158 Gd105 2.545 . S
O158 C171 1.250 1_455 S
O159 Gd105 2.412 . S
O159 C172 1.252 . S
C160 O149 1.284 . S
C160 O152 1.250 . S
C161 H130 0.929 . S
C161 C146 1.437 1_565 S
C161 C162 1.317 . S
C162 H133 0.930 . S
C162 C138 1.431 . S
C162 C161 1.317 . S
C163 Gd104 2.828 . S
C163 O148 1.258 . S
C163 O153 1.252 . S
C163 C164 1.497 . S
C164 C163 1.497 . S
C164 C165 1.395 . S
C164 C166 1.380 . S
C165 C164 1.395 . S
C165 C168 1.398 . S
C165 H180 0.930 . S
C166 C164 1.380 . S
C166 C167 1.391 . S
C166 H181 0.930 1_655 S
C167 C166 1.391 . S
C167 C169 1.387 . S
C168 C165 1.398 . S
C168 C169 1.380 . S
C168 H182 0.930 . S
C169 C167 1.387 . S
C169 C168 1.380 . S
C169 H183 0.930 . S
C170 O150 1.254 1_545 S
C170 O151 1.268 . S
C171 O155 1.284 . S
C171 O158 1.250 1_655 S
C172 Gd105 2.828 . S
C172 O154 1.258 . S
C172 O159 1.252 . S
C172 C173 1.497 . S
C173 C172 1.497 . S
C173 C174 1.395 . S
C173 C175 1.380 . S
C174 C173 1.395 . S
C174 C177 1.398 . S
C174 H184 0.930 . S
C175 C173 1.380 . S
C175 C176 1.391 . S
C175 H185 0.886 1_455 S
C176 C175 1.391 . S
C176 C178 1.387 . S
C177 C174 1.398 . S
C177 C178 1.380 . S
C177 H186 0.930 . S
C178 C176 1.387 . S
C178 C177 1.380 . S
C178 H187 0.930 . S
C179 O156 1.254 . S
C179 O157 1.268 1_545 S
H180 C165 0.930 . S
H181 C166 0.930 1_455 S
H182 C168 0.930 . S
H183 C169 0.930 . S
H184 C174 0.930 . S
H185 C175 0.886 1_655 S
H186 C177 0.930 . S
H187 C178 0.930 . S
Gd188 N219 2.661 . S
Gd188 N225 2.601 . S
Gd188 O232 2.545 . S
Gd188 O233 2.606 1_565 S
Gd188 O235 2.429 . S
Gd188 O236 2.545 1_565 S
Gd188 O237 2.412 1_565 S
Gd188 O239 2.367 . S
Gd188 O240 2.324 1_565 S
Gd188 C247 2.828 . S
Gd189 N198 2.661 . S
Gd189 N202 2.601 . S
Gd189 O233 2.362 . S
Gd189 O234 2.324 1_545 S
Gd189 O238 2.545 . S
Gd189 O239 2.589 1_545 S
Gd189 O241 2.429 . S
Gd189 O242 2.545 . S
Gd189 O243 2.412 . S
Gd189 C256 2.828 . S
C190 C193 1.417 . S
C190 C195 1.431 . S
C190 C196 1.412 . S
C191 C194 1.437 . S
C191 C195 1.317 . S
C191 H210 0.929 . S
C192 C193 1.426 . S
C192 C194 1.413 . S
C192 N202 1.359 . S
C193 C190 1.417 . S
C193 C192 1.426 . S
C193 N198 1.350 . S
C194 C191 1.437 . S
C194 C192 1.413 . S
C194 C204 1.391 . S
C195 C190 1.431 . S
C195 C191 1.317 . S
C195 H206 0.930 1_556 S
C196 C190 1.412 . S
C196 C197 1.355 . S
C196 H208 0.930 1_556 S
C197 C196 1.355 . S
C197 C199 1.402 . S
C197 H209 0.930 1_545 S
N198 Gd189 2.661 . S
N198 C193 1.350 . S
N198 C199 1.307 . S
C199 C197 1.402 . S
C199 N198 1.307 . S
C199 H200 0.930 1_545 S
H200 C199 0.930 1_565 S
C201 N202 1.334 . S
C201 C203 1.394 . S
C201 H205 0.930 . S
N202 Gd189 2.601 . S
N202 C192 1.359 . S
N202 C201 1.334 . S
C203 C201 1.394 . S
C203 C204 1.359 . S
C203 H215 0.930 . S
C204 C194 1.391 . S
C204 C203 1.359 . S
C204 H216 0.929 . S
H205 C201 0.930 . S
H206 C195 0.930 1_554 S
H207 C224 0.930 . S
H208 C196 0.930 1_554 S
H209 C197 0.930 1_565 S
H210 C191 0.929 . S
H211 C229 0.930 . S
H212 C220 0.930 . S
H213 C221 0.930 . S
H214 C245 0.929 . S
H215 C203 0.930 . S
H216 C204 0.929 . S
H217 C246 0.930 . S
H218 C227 0.930 . S
N219 Gd188 2.661 . S
N219 C223 1.350 . S
N219 C224 1.307 1_565 S
C220 H212 0.930 . S
C220 C221 1.355 1_565 S
C220 C222 1.412 . S
C221 H213 0.930 . S
C221 C220 1.355 1_545 S
C221 C224 1.402 . S
C222 C220 1.412 . S
C222 C223 1.417 . S
C222 C246 1.431 . S
C223 N219 1.350 . S
C223 C222 1.417 . S
C223 C226 1.426 . S
C224 H207 0.930 . S
C224 N219 1.307 1_545 S
C224 C221 1.402 . S
N225 Gd188 2.601 . S
N225 C226 1.359 . S
N225 C229 1.334 . S
C226 C223 1.426 . S
C226 N225 1.359 . S
C226 C230 1.413 . S
C227 H218 0.930 . S
C227 C228 1.359 . S
C227 C229 1.394 . S
C228 C227 1.359 . S
C228 C230 1.391 . S
C228 H231 0.929 . S
C229 H211 0.930 . S
C229 N225 1.334 . S
C229 C227 1.394 . S
C230 C226 1.413 . S
C230 C228 1.391 . S
C230 C245 1.437 . S
H231 C228 0.929 . S
O232 Gd188 2.545 . S
O232 C247 1.258 . S
O233 Gd188 2.606 1_545 S
O233 Gd189 2.362 . S
O233 C244 1.284 . S
O234 Gd189 2.324 1_565 S
O234 C254 1.254 . S
O235 Gd188 2.429 . S
O235 C254 1.268 . S
O236 Gd188 2.545 1_545 S
O236 C244 1.250 . S
O237 Gd188 2.412 1_545 S
O237 C247 1.252 1_545 S
O238 Gd189 2.545 . S
O238 C256 1.258 . S
O239 Gd188 2.367 . S
O239 Gd189 2.589 1_565 S
O239 C255 1.284 . S
O240 Gd188 2.324 1_545 S
O240 C263 1.254 . S
O241 Gd189 2.429 . S
O241 C263 1.268 . S
O242 Gd189 2.545 . S
O242 C255 1.254 1_545 S
O243 Gd189 2.412 . S
O243 C256 1.252 . S
C244 O233 1.284 . S
C244 O236 1.250 . S
C245 H214 0.929 . S
C245 C230 1.437 . S
C245 C246 1.317 . S
C246 H217 0.930 . S
C246 C222 1.431 . S
C246 C245 1.317 . S
C247 Gd188 2.828 . S
C247 O232 1.258 . S
C247 O237 1.252 1_565 S
C247 C248 1.497 . S
C248 C247 1.497 . S
C248 C249 1.395 . S
C248 C250 1.343 1_565 S
C249 C248 1.395 . S
C249 C252 1.398 . S
C249 H264 0.930 . S
C250 C248 1.343 1_545 S
C250 C251 1.387 1_545 S
C250 H265 0.971 . S
C251 C250 1.387 1_565 S
C251 C253 1.430 . S
C252 C249 1.398 . S
C252 C253 1.380 . S
C252 H266 0.930 . S
C253 C251 1.430 . S
C253 C252 1.380 . S
C253 H267 0.930 . S
C254 O234 1.254 . S
C254 O235 1.268 . S
C255 O239 1.284 . S
C255 O242 1.254 1_565 S
C256 Gd189 2.828 . S
C256 O238 1.258 . S
C256 O243 1.252 . S
C256 C257 1.497 . S
C257 C256 1.497 . S
C257 C258 1.395 . S
C257 C259 1.380 . S
C258 C257 1.395 . S
C258 C261 1.398 . S
C258 H268 0.930 . S
C259 C257 1.380 . S
C259 C260 1.391 . S
C259 H269 0.930 . S
C260 C259 1.391 . S
C260 C262 1.387 . S
C261 C258 1.398 . S
C261 C262 1.380 . S
C261 H270 0.930 . S
C262 C260 1.387 . S
C262 C261 1.380 . S
C262 H271 0.930 . S
C263 O240 1.254 . S
C263 O241 1.268 . S
H264 C249 0.930 . S
H265 C250 0.971 . S
H266 C252 0.930 . S
H267 C253 0.930 . S
H268 C258 0.930 . S
H269 C259 0.930 . S
H270 C261 0.930 . S
H271 C262 0.930 . S
Gd272 N303 2.661 . S
Gd272 N309 2.601 . S
Gd272 O316 2.545 . S
Gd272 O317 2.606 . S
Gd272 O319 2.429 . S
Gd272 O320 2.545 . S
Gd272 O321 2.412 . S
Gd272 O323 2.362 . S
Gd272 O324 2.324 . S
Gd272 C331 2.828 . S
Gd273 N282 2.661 . S
Gd273 N286 2.601 . S
Gd273 O317 2.362 . S
Gd273 O318 2.324 . S
Gd273 O322 2.545 . S
Gd273 O323 2.606 . S
Gd273 O325 2.429 . S
Gd273 O326 2.545 . S
Gd273 O327 2.412 . S
Gd273 C340 2.828 . S
C274 C277 1.417 . S
C274 C279 1.431 . S
C274 C280 1.412 . S
C275 C278 1.437 . S
C275 C279 1.317 . S
C275 H294 0.929 . S
C276 C277 1.426 . S
C276 C278 1.413 . S
C276 N286 1.359 . S
C277 C274 1.417 . S
C277 C276 1.426 . S
C277 N282 1.350 . S
C278 C275 1.437 . S
C278 C276 1.413 . S
C278 C288 1.391 . S
C279 C274 1.431 . S
C279 C275 1.317 . S
C279 H290 0.930 . S
C280 C274 1.412 . S
C280 C281 1.355 . S
C280 H292 0.930 . S
C281 C280 1.355 . S
C281 C283 1.402 . S
C281 H293 0.930 . S
N282 Gd273 2.661 . S
N282 C277 1.350 . S
N282 C283 1.307 . S
C283 C281 1.402 . S
C283 N282 1.307 . S
C283 H284 0.930 . S
H284 C283 0.930 . S
C285 N286 1.334 . S
C285 C287 1.394 . S
C285 H289 0.930 . S
N286 Gd273 2.601 . S
N286 C276 1.359 . S
N286 C285 1.334 . S
C287 C285 1.394 . S
C287 C288 1.359 . S
C287 H299 0.930 . S
C288 C278 1.391 . S
C288 C287 1.359 . S
C288 H300 0.929 . S
H289 C285 0.930 . S
H290 C279 0.930 . S
H291 C308 0.930 . S
H292 C280 0.930 . S
H293 C281 0.930 . S
H294 C275 0.929 . S
H295 C313 0.930 . S
H296 C304 0.930 . S
H297 C305 0.930 . S
H298 C329 0.929 . S
H299 C287 0.930 . S
H300 C288 0.929 . S
H301 C330 0.930 . S
H302 C311 0.930 . S
N303 Gd272 2.661 . S
N303 C307 1.350 . S
N303 C308 1.307 . S
C304 H296 0.930 . S
C304 C305 1.355 . S
C304 C306 1.412 . S
C305 H297 0.930 . S
C305 C304 1.355 . S
C305 C308 1.402 . S
C306 C304 1.412 . S
C306 C307 1.417 . S
C306 C330 1.431 . S
C307 N303 1.350 . S
C307 C306 1.417 . S
C307 C310 1.426 . S
C308 H291 0.930 . S
C308 N303 1.307 . S
C308 C305 1.402 . S
N309 Gd272 2.601 . S
N309 C310 1.359 . S
N309 C313 1.334 . S
C310 C307 1.426 . S
C310 N309 1.359 . S
C310 C314 1.413 . S
C311 H302 0.930 . S
C311 C312 1.359 . S
C311 C313 1.394 . S
C312 C311 1.359 . S
C312 C314 1.391 . S
C312 H315 0.929 . S
C313 H295 0.930 . S
C313 N309 1.334 . S
C313 C311 1.394 . S
C314 C310 1.413 . S
C314 C312 1.391 . S
C314 C329 1.437 . S
H315 C312 0.929 . S
O316 Gd272 2.545 . S
O316 C331 1.258 . S
O317 Gd272 2.606 . S
O317 Gd273 2.362 . S
O317 C328 1.284 . S
O318 Gd273 2.324 . S
O318 C338 1.254 . S
O319 Gd272 2.429 . S
O319 C338 1.268 . S
O320 Gd272 2.545 . S
O320 C328 1.250 . S
O321 Gd272 2.412 . S
O321 C331 1.252 . S
O322 Gd273 2.545 . S
O322 C340 1.258 . S
O323 Gd272 2.362 . S
O323 Gd273 2.606 . S
O323 C339 1.284 . S
O324 Gd272 2.324 . S
O324 C347 1.254 . S
O325 Gd273 2.429 . S
O325 C347 1.268 . S
O326 Gd273 2.545 . S
O326 C339 1.250 . S
O327 Gd273 2.412 . S
O327 C340 1.252 . S
C328 O317 1.284 . S
C328 O320 1.250 . S
C329 H298 0.929 . S
C329 C314 1.437 . S
C329 C330 1.317 . S
C330 H301 0.930 . S
C330 C306 1.431 . S
C330 C329 1.317 . S
C331 Gd272 2.828 . S
C331 O316 1.258 . S
C331 O321 1.252 . S
C331 C332 1.497 . S
C332 C331 1.497 . S
C332 C333 1.395 . S
C332 C334 1.380 . S
C333 C332 1.395 . S
C333 C336 1.398 1_556 S
C333 H348 0.930 . S
C334 C332 1.380 . S
C334 C335 1.391 . S
C334 H349 0.930 . S
C335 C334 1.391 . S
C335 C337 1.387 1_556 S
C336 C333 1.398 1_554 S
C336 C337 1.380 . S
C336 H350 0.930 . S
C337 C335 1.387 1_554 S
C337 C336 1.380 . S
C337 H351 0.930 . S
C338 O318 1.254 . S
C338 O319 1.268 . S
C339 O323 1.284 . S
C339 O326 1.250 . S
C340 Gd273 2.828 . S
C340 O322 1.258 . S
C340 O327 1.252 . S
C340 C341 1.497 . S
C341 C340 1.497 . S
C341 C342 1.395 . S
C341 C343 1.380 . S
C342 C341 1.395 . S
C342 C345 1.398 . S
C342 H352 0.930 . S
C343 C341 1.380 . S
C343 C344 1.391 . S
C343 H353 0.930 . S
C344 C343 1.391 . S
C344 C346 1.387 . S
C345 C342 1.398 . S
C345 C346 1.380 . S
C345 H354 0.930 . S
C346 C344 1.387 . S
C346 C345 1.380 . S
C346 H355 0.930 . S
C347 O324 1.254 . S
C347 O325 1.268 . S
H348 C333 0.930 . S
H349 C334 0.930 . S
H350 C336 0.930 . S
H351 C337 0.930 . S
H352 C342 0.930 . S
H353 C343 0.930 . S
H354 C345 0.930 . S
H355 C346 0.930 . S
Gd356 N387 2.661 . S
Gd356 N393 2.601 . S
Gd356 O400 2.545 . S
Gd356 O401 2.606 1_655 S
Gd356 O403 2.429 1_655 S
Gd356 O404 2.545 . S
Gd356 O405 2.412 . S
Gd356 O407 2.362 1_655 S
Gd356 O408 2.324 . S
Gd356 C415 2.828 . S
Gd357 N366 2.661 . S
Gd357 N370 2.601 . S
Gd357 O401 2.362 . S
Gd357 O402 2.324 . S
Gd357 O406 2.545 . S
Gd357 O407 2.606 . S
Gd357 O409 2.429 1_455 S
Gd357 O410 2.545 . S
Gd357 O411 2.412 . S
Gd357 C424 2.828 . S
C358 C361 1.417 . S
C358 C363 1.431 . S
C358 C364 1.412 . S
C359 C362 1.437 . S
C359 C363 1.317 . S
C359 H378 0.929 . S
C360 C361 1.426 . S
C360 C362 1.413 . S
C360 N370 1.359 . S
C361 C358 1.417 . S
C361 C360 1.426 . S
C361 N366 1.350 . S
C362 C359 1.437 . S
C362 C360 1.413 . S
C362 C372 1.391 . S
C363 C358 1.431 . S
C363 C359 1.317 . S
C363 H374 0.930 . S
C364 C358 1.412 . S
C364 C365 1.355 . S
C364 H376 0.930 . S
C365 C364 1.355 . S
C365 C367 1.402 . S
C365 H377 0.930 . S
N366 Gd357 2.661 . S
N366 C361 1.350 . S
N366 C367 1.307 . S
C367 C365 1.402 . S
C367 N366 1.307 . S
C367 H368 0.930 . S
H368 C367 0.930 . S
C369 N370 1.334 . S
C369 C371 1.394 1_455 S
C369 H373 0.930 1_455 S
N370 Gd357 2.601 . S
N370 C360 1.359 . S
N370 C369 1.334 . S
C371 C369 1.394 1_655 S
C371 C372 1.358 1_655 S
C371 H383 0.931 . S
C372 C362 1.391 . S
C372 C371 1.358 1_455 S
C372 H384 0.929 . S
H373 C369 0.930 1_655 S
H374 C363 0.930 . S
H375 C392 0.930 . S
H376 C364 0.930 . S
H377 C365 0.930 . S
H378 C359 0.929 . S
H379 C397 0.930 . S
H380 C388 0.930 . S
H381 C389 0.930 . S
H382 C413 0.929 . S
H383 C371 0.931 . S
H384 C372 0.929 . S
H385 C414 0.930 . S
H386 C395 0.930 . S
N387 Gd356 2.661 . S
N387 C391 1.350 . S
N387 C392 1.307 . S
C388 H380 0.930 . S
C388 C389 1.355 . S
C388 C390 1.412 . S
C389 H381 0.930 . S
C389 C388 1.355 . S
C389 C392 1.402 . S
C390 C388 1.412 . S
C390 C391 1.417 . S
C390 C414 1.431 . S
C391 N387 1.350 . S
C391 C390 1.417 . S
C391 C394 1.426 . S
C392 H375 0.930 . S
C392 N387 1.307 . S
C392 C389 1.402 . S
N393 Gd356 2.601 . S
N393 C394 1.359 . S
N393 C397 1.334 1_655 S
C394 C391 1.426 . S
C394 N393 1.359 . S
C394 C398 1.413 . S
C395 H386 0.930 . S
C395 C396 1.359 . S
C395 C397 1.394 . S
C396 C395 1.359 . S
C396 C398 1.391 1_455 S
C396 H399 0.929 . S
C397 H379 0.930 . S
C397 N393 1.334 1_455 S
C397 C395 1.394 . S
C398 C394 1.413 . S
C398 C396 1.391 1_655 S
C398 C413 1.437 . S
H399 C396 0.929 . S
O400 Gd356 2.545 . S
O400 C415 1.258 . S
O401 Gd356 2.606 1_455 S
O401 Gd357 2.362 . S
O401 C412 1.284 1_455 S
O402 Gd357 2.324 . S
O402 C422 1.254 . S
O403 Gd356 2.429 1_455 S
O403 C422 1.268 . S
O404 Gd356 2.545 . S
O404 C412 1.250 . S
O405 Gd356 2.412 . S
O405 C415 1.252 . S
O406 Gd357 2.545 . S
O406 C424 1.258 . S
O407 Gd356 2.362 1_455 S
O407 Gd357 2.606 . S
O407 C423 1.284 . S
O408 Gd356 2.324 . S
O408 C431 1.254 . S
O409 Gd357 2.429 1_655 S
O409 C431 1.268 . S
O410 Gd357 2.545 . S
O410 C423 1.250 . S
O411 Gd357 2.412 . S
O411 C424 1.252 . S
C412 O401 1.284 1_655 S
C412 O404 1.250 . S
C413 H382 0.929 . S
C413 C398 1.437 . S
C413 C414 1.317 . S
C414 H385 0.930 . S
C414 C390 1.431 . S
C414 C413 1.317 . S
C415 Gd356 2.828 . S
C415 O400 1.258 . S
C415 O405 1.252 . S
C415 C416 1.497 . S
C416 C415 1.497 . S
C416 C417 1.395 . S
C416 C418 1.380 . S
C417 C416 1.395 . S
C417 C420 1.398 1_556 S
C417 H432 0.930 . S
C418 C416 1.380 . S
C418 C419 1.391 . S
C418 H433 0.930 . S
C419 C418 1.391 . S
C419 C421 1.387 1_556 S
C420 C417 1.398 1_554 S
C420 C421 1.380 . S
C420 H434 0.930 . S
C421 C419 1.387 1_554 S
C421 C420 1.380 . S
C421 H435 0.930 . S
C422 O402 1.254 . S
C422 O403 1.268 . S
C423 O407 1.284 . S
C423 O410 1.250 . S
C424 Gd357 2.828 . S
C424 O406 1.258 . S
C424 O411 1.252 . S
C424 C425 1.497 . S
C425 C424 1.497 . S
C425 C426 1.395 . S
C425 C427 1.380 . S
C426 C425 1.395 . S
C426 C429 1.398 . S
C426 H436 0.930 . S
C427 C425 1.380 . S
C427 C428 1.391 . S
C427 H437 0.930 . S
C428 C427 1.391 . S
C428 C430 1.387 . S
C429 C426 1.398 . S
C429 C430 1.380 . S
C429 H438 0.930 . S
C430 C428 1.387 . S
C430 C429 1.380 . S
C430 H439 0.930 . S
C431 O408 1.254 . S
C431 O409 1.268 . S
H432 C417 0.930 . S
H433 C418 0.930 . S
H434 C420 0.930 . S
H435 C421 0.930 . S
H436 C426 0.930 . S
H437 C427 0.930 . S
H438 C429 0.930 . S
H439 C430 0.930 . S
H440 C458 0.951 . S
H441 C460 0.951 . S
H442 C462 0.950 . S
H443 C463 0.950 . S
H444 C465 0.950 . S
H445 C468 0.950 . S
H446 C469 0.950 . S
H447 C471 0.950 . S
H448 C472 0.950 . S
H449 C473 0.951 1_565 S
H450 C475 0.951 . S
H451 C477 0.950 . S
H452 C478 0.950 . S
H453 C480 0.950 . S
H454 C483 0.965 . S
H455 C484 0.950 . S
H456 C486 0.950 . S
H457 C487 0.950 . S
C458 H440 0.951 . S
C458 C459 1.366 . S
C458 C460 1.388 . S
C459 C458 1.366 . S
C459 C463 1.385 . S
C460 H441 0.951 . S
C460 C458 1.388 . S
C460 C461 1.366 . S
C461 C460 1.366 . S
C461 C462 1.414 . S
C461 C464 1.499 . S
C462 H442 0.950 . S
C462 C461 1.414 . S
C462 C463 1.374 . S
C463 H443 0.950 . S
C463 C459 1.385 . S
C463 C462 1.374 . S
C464 C461 1.499 . S
C464 C465 1.373 . S
C464 C466 1.389 . S
C465 H444 0.950 . S
C465 C464 1.373 . S
C465 C481 1.377 . S
C466 C464 1.389 . S
C466 C467 1.524 . S
C466 C480 1.377 . S
C467 C466 1.524 . S
C467 C468 1.397 . S
C467 C472 1.363 . S
C468 H445 0.950 . S
C468 C467 1.397 . S
C468 C469 1.334 . S
C469 H446 0.950 . S
C469 C468 1.334 . S
C469 C470 1.287 . S
C470 C469 1.287 . S
C470 C471 1.524 . S
C470 H489 0.913 . S
C471 H447 0.950 . S
C471 C470 1.524 . S
C471 C472 1.415 . S
C472 H448 0.950 . S
C472 C467 1.363 . S
C472 C471 1.415 . S
C473 H449 0.951 1_545 S
C473 C474 1.366 . S
C473 C475 1.388 . S
C474 C473 1.366 . S
C474 C478 1.385 . S
C475 H450 0.951 . S
C475 C473 1.388 . S
C475 C476 1.366 . S
C476 C475 1.366 . S
C476 C477 1.414 . S
C476 C479 1.499 . S
C477 H451 0.950 . S
C477 C476 1.414 . S
C477 C478 1.374 . S
C478 H452 0.950 . S
C478 C474 1.385 . S
C478 C477 1.374 . S
C479 C476 1.499 . S
C479 C480 1.373 . S
C479 C481 1.389 . S
C480 H453 0.950 . S
C480 C466 1.377 . S
C480 C479 1.373 . S
C481 C465 1.377 . S
C481 C479 1.389 . S
C481 C482 1.483 1_545 S
C482 C481 1.483 1_565 S
C482 C483 1.395 1_565 S
C482 C487 1.405 . S
C483 H454 0.965 . S
C483 C482 1.395 1_545 S
C483 C484 1.320 1_545 S
C484 H455 0.950 . S
C484 C483 1.320 1_565 S
C484 C485 1.287 . S
C485 C484 1.287 . S
C485 C486 1.524 . S
C485 H488 0.999 . S
C486 H456 0.950 . S
C486 C485 1.524 . S
C486 C487 1.415 . S
C487 H457 0.950 . S
C487 C482 1.405 . S
C487 C486 1.415 . S
H488 C485 0.999 . S
H489 C470 0.913 . S
H490 C508 0.951 . S
H491 C510 0.951 . S
H492 C512 0.950 . S
H493 C513 0.950 . S
H494 C515 0.950 . S
H495 C518 0.950 . S
H496 C519 0.950 1_556 S
H497 C521 0.950 . S
H498 C522 0.950 . S
H499 C523 0.951 . S
H500 C525 0.951 . S
H501 C527 0.950 . S
H502 C528 0.950 . S
H503 C530 0.950 . S
H504 C533 0.950 . S
H505 C534 0.950 . S
H506 C536 0.950 . S
H507 C537 0.950 . S
C508 H490 0.951 . S
C508 C509 1.366 . S
C508 C510 1.388 . S
C509 C508 1.366 . S
C509 C513 1.385 . S
C510 H491 0.951 . S
C510 C508 1.388 . S
C510 C511 1.366 . S
C511 C510 1.366 . S
C511 C512 1.414 . S
C511 C514 1.499 . S
C512 H492 0.950 . S
C512 C511 1.414 . S
C512 C513 1.374 . S
C513 H493 0.950 . S
C513 C509 1.385 . S
C513 C512 1.374 . S
C514 C511 1.499 . S
C514 C515 1.373 . S
C514 C516 1.389 . S
C515 H494 0.950 . S
C515 C514 1.373 . S
C515 C531 1.377 . S
C516 C514 1.389 . S
C516 C517 1.524 . S
C516 C530 1.377 . S
C517 C516 1.524 . S
C517 C518 1.397 . S
C517 C522 1.363 . S
C518 H495 0.950 . S
C518 C517 1.397 . S
C518 C519 1.334 . S
C519 H496 0.950 1_554 S
C519 C518 1.334 . S
C519 C520 1.287 . S
C520 C519 1.287 . S
C520 C521 1.524 . S
C520 H539 0.913 1_554 S
C521 H497 0.950 . S
C521 C520 1.524 . S
C521 C522 1.415 . S
C522 H498 0.950 . S
C522 C517 1.363 . S
C522 C521 1.415 . S
C523 H499 0.951 . S
C523 C524 1.366 . S
C523 C525 1.388 . S
C524 C523 1.366 . S
C524 C528 1.385 . S
C525 H500 0.951 . S
C525 C523 1.388 . S
C525 C526 1.366 . S
C526 C525 1.366 . S
C526 C527 1.414 . S
C526 C529 1.499 . S
C527 H501 0.950 . S
C527 C526 1.414 . S
C527 C528 1.374 . S
C528 H502 0.950 . S
C528 C524 1.385 . S
C528 C527 1.374 . S
C529 C526 1.499 . S
C529 C530 1.373 . S
C529 C531 1.389 . S
C530 H503 0.950 . S
C530 C516 1.377 . S
C530 C529 1.373 . S
C531 C515 1.377 . S
C531 C529 1.389 . S
C531 C532 1.524 . S
C532 C531 1.524 . S
C532 C533 1.397 . S
C532 C537 1.363 . S
C533 H504 0.950 . S
C533 C532 1.397 . S
C533 C534 1.334 . S
C534 H505 0.950 . S
C534 C533 1.334 . S
C534 C535 1.287 . S
C535 C534 1.287 . S
C535 C536 1.524 . S
C535 H538 0.999 . S
C536 H506 0.950 . S
C536 C535 1.524 . S
C536 C537 1.415 . S
C537 H507 0.950 . S
C537 C532 1.363 . S
C537 C536 1.415 . S
H538 C535 0.999 . S
H539 C520 0.913 1_556 S
H540 C558 0.951 . S
H541 C560 0.951 . S
H542 C562 0.950 . S
H543 C563 0.950 . S
H544 C565 0.950 . S
H545 C568 0.950 . S
H546 C569 0.950 . S
H547 C571 0.950 . S
H548 C572 0.950 . S
H549 C573 0.951 . S
H550 C575 0.951 . S
H551 C577 0.950 . S
H552 C578 0.950 . S
H553 C580 0.950 . S
H554 C583 0.950 . S
H555 C584 0.950 . S
H556 C586 0.950 . S
H557 C587 0.950 . S
C558 H540 0.951 . S
C558 C559 1.366 . S
C558 C560 1.388 . S
C559 C558 1.366 . S
C559 C563 1.385 . S
C560 H541 0.951 . S
C560 C558 1.388 . S
C560 C561 1.366 . S
C561 C560 1.366 . S
C561 C562 1.414 . S
C561 C564 1.499 . S
C562 H542 0.950 . S
C562 C561 1.414 . S
C562 C563 1.374 . S
C563 H543 0.950 . S
C563 C559 1.385 . S
C563 C562 1.374 . S
C564 C561 1.499 . S
C564 C565 1.373 . S
C564 C566 1.389 . S
C565 H544 0.950 . S
C565 C564 1.373 . S
C565 C581 1.377 . S
C566 C564 1.389 . S
C566 C567 1.524 . S
C566 C580 1.377 . S
C567 C566 1.524 . S
C567 C568 1.397 . S
C567 C572 1.363 . S
C568 H545 0.950 . S
C568 C567 1.397 . S
C568 C569 1.334 . S
C569 H546 0.950 . S
C569 C568 1.334 . S
C569 C570 1.287 . S
C570 C569 1.287 . S
C570 C571 1.524 . S
C570 H589 0.913 . S
C571 H547 0.950 . S
C571 C570 1.524 . S
C571 C572 1.415 . S
C572 H548 0.950 . S
C572 C567 1.363 . S
C572 C571 1.415 . S
C573 H549 0.951 . S
C573 C574 1.366 . S
C573 C575 1.388 . S
C574 C573 1.366 . S
C574 C578 1.385 . S
C575 H550 0.951 . S
C575 C573 1.388 . S
C575 C576 1.366 . S
C576 C575 1.366 . S
C576 C577 1.414 . S
C576 C579 1.499 . S
C577 H551 0.950 . S
C577 C576 1.414 . S
C577 C578 1.374 . S
C578 H552 0.950 . S
C578 C574 1.385 . S
C578 C577 1.374 . S
C579 C576 1.499 . S
C579 C580 1.373 . S
C579 C581 1.389 . S
C580 H553 0.950 . S
C580 C566 1.377 . S
C580 C579 1.373 . S
C581 C565 1.377 . S
C581 C579 1.389 . S
C581 C582 1.524 . S
C582 C581 1.524 . S
C582 C583 1.397 . S
C582 C587 1.363 . S
C583 H554 0.950 . S
C583 C582 1.397 . S
C583 C584 1.334 . S
C584 H555 0.950 . S
C584 C583 1.334 . S
C584 C585 1.287 . S
C585 C584 1.287 . S
C585 C586 1.524 . S
C585 H588 0.999 . S
C586 H556 0.950 . S
C586 C585 1.524 . S
C586 C587 1.415 . S
C587 H557 0.950 . S
C587 C582 1.363 . S
C587 C586 1.415 . S
H588 C585 0.999 . S
H589 C570 0.913 . S
H590 C608 0.951 . S
H591 C610 0.951 . S
H592 C612 0.950 . S
H593 C613 0.950 . S
H594 C615 0.950 . S
H595 C618 0.950 . S
H596 C619 0.950 . S
H597 C621 0.950 . S
H598 C622 0.950 . S
H599 C623 0.951 . S
H600 C625 0.951 . S
H601 C627 0.950 . S
H602 C628 0.950 1_655 S
H603 C630 0.950 . S
H604 C633 0.950 . S
H605 C634 0.918 1_655 S
H606 C636 0.950 . S
H607 C637 0.950 . S
C608 H590 0.951 . S
C608 C609 1.366 . S
C608 C610 1.388 . S
C609 C608 1.366 . S
C609 C613 1.385 . S
C610 H591 0.951 . S
C610 C608 1.388 . S
C610 C611 1.366 . S
C611 C610 1.366 . S
C611 C612 1.414 . S
C611 C614 1.499 . S
C612 H592 0.950 . S
C612 C611 1.414 . S
C612 C613 1.374 . S
C613 H593 0.950 . S
C613 C609 1.385 . S
C613 C612 1.374 . S
C614 C611 1.499 . S
C614 C615 1.373 . S
C614 C616 1.389 . S
C615 H594 0.950 . S
C615 C614 1.373 . S
C615 C631 1.377 . S
C616 C614 1.389 . S
C616 C617 1.524 . S
C616 C630 1.377 . S
C617 C616 1.524 . S
C617 C618 1.397 . S
C617 C622 1.363 . S
C618 H595 0.950 . S
C618 C617 1.397 . S
C618 C619 1.334 . S
C619 H596 0.950 . S
C619 C618 1.334 . S
C619 C620 1.288 . S
C620 C619 1.288 . S
C620 C621 1.525 . S
C620 H639 0.910 1_554 S
C621 H597 0.950 . S
C621 C620 1.525 . S
C621 C622 1.415 . S
C622 H598 0.950 . S
C622 C617 1.363 . S
C622 C621 1.415 . S
C623 H599 0.951 . S
C623 C624 1.366 . S
C623 C625 1.388 . S
C624 C623 1.366 . S
C624 C628 1.385 . S
C625 H600 0.951 . S
C625 C623 1.388 . S
C625 C626 1.366 . S
C626 C625 1.366 . S
C626 C627 1.414 . S
C626 C629 1.499 . S
C627 H601 0.950 . S
C627 C626 1.414 . S
C627 C628 1.374 . S
C628 H602 0.950 1_455 S
C628 C624 1.385 . S
C628 C627 1.374 . S
C629 C626 1.499 . S
C629 C630 1.373 . S
C629 C631 1.389 . S
C630 H603 0.950 . S
C630 C616 1.377 . S
C630 C629 1.373 . S
C631 C615 1.377 . S
C631 C629 1.389 . S
C631 C632 1.524 . S
C632 C631 1.524 . S
C632 C633 1.397 . S
C632 C637 1.363 . S
C633 H604 0.950 . S
C633 C632 1.397 . S
C633 C634 1.334 . S
C634 H605 0.918 1_455 S
C634 C633 1.334 . S
C634 C635 1.287 . S
C635 C634 1.287 . S
C635 C636 1.524 . S
C635 H638 0.999 . S
C636 H606 0.950 . S
C636 C635 1.524 . S
C636 C637 1.415 . S
C637 H607 0.950 . S
C637 C632 1.363 . S
C637 C636 1.415 . S
H638 C635 0.999 . S
H639 C620 0.910 1_556 S
H640 C658 0.951 . S
H641 C660 0.951 . S
H642 C662 0.950 . S
H643 C663 0.950 . S
H644 C665 0.950 1_545 S
H645 C668 0.950 . S
H646 C669 0.950 . S
H647 C671 0.950 . S
H648 C672 0.950 . S
H649 C673 0.951 1_545 S
H650 C675 0.951 . S
H651 C677 0.950 . S
H652 C678 0.950 . S
H653 C680 0.950 . S
H654 C683 0.950 . S
H655 C684 0.950 . S
H656 C686 0.950 . S
H657 C687 0.950 . S
C658 H640 0.951 . S
C658 C659 1.366 . S
C658 C660 1.388 . S
C659 C658 1.366 . S
C659 C663 1.385 . S
C660 H641 0.951 . S
C660 C658 1.388 . S
C660 C661 1.366 . S
C661 C660 1.366 . S
C661 C662 1.414 . S
C661 C664 1.499 . S
C662 H642 0.950 . S
C662 C661 1.414 . S
C662 C663 1.374 . S
C663 H643 0.950 . S
C663 C659 1.385 . S
C663 C662 1.374 . S
C664 C661 1.499 . S
C664 C665 1.373 . S
C664 C666 1.389 1_554 S
C665 H644 0.950 1_565 S
C665 C664 1.373 . S
C665 C681 1.377 1_554 S
C666 C664 1.389 1_556 S
C666 C667 1.524 . S
C666 C680 1.377 . S
C667 C666 1.524 . S
C667 C668 1.397 1_556 S
C667 C672 1.363 . S
C668 H645 0.950 . S
C668 C667 1.397 1_554 S
C668 C669 1.334 . S
C669 H646 0.950 . S
C669 C668 1.334 . S
C669 C670 1.287 1_554 S
C670 C669 1.287 1_556 S
C670 C671 1.524 . S
C670 H689 0.913 . S
C671 H647 0.950 . S
C671 C670 1.524 . S
C671 C672 1.415 . S
C672 H648 0.950 . S
C672 C667 1.363 . S
C672 C671 1.415 . S
C673 H649 0.951 1_565 S
C673 C674 1.366 . S
C673 C675 1.388 . S
C674 C673 1.366 . S
C674 C678 1.385 . S
C675 H650 0.951 . S
C675 C673 1.388 . S
C675 C676 1.366 . S
C676 C675 1.366 . S
C676 C677 1.414 . S
C676 C679 1.499 . S
C677 H651 0.950 . S
C677 C676 1.414 . S
C677 C678 1.374 . S
C678 H652 0.950 . S
C678 C674 1.385 . S
C678 C677 1.374 . S
C679 C676 1.499 . S
C679 C680 1.373 . S
C679 C681 1.389 . S
C680 H653 0.950 . S
C680 C666 1.377 . S
C680 C679 1.373 . S
C681 C665 1.377 1_556 S
C681 C679 1.389 . S
C681 C682 1.524 1_565 S
C682 C681 1.524 1_545 S
C682 C683 1.397 . S
C682 C687 1.363 1_556 S
C683 H654 0.950 . S
C683 C682 1.397 . S
C683 C684 1.334 . S
C684 H655 0.950 . S
C684 C683 1.334 . S
C684 C685 1.287 . S
C685 C684 1.287 . S
C685 C686 1.524 1_556 S
C685 H688 0.999 . S
C686 H656 0.950 . S
C686 C685 1.524 1_554 S
C686 C687 1.415 . S
C687 H657 0.950 . S
C687 C682 1.363 1_554 S
C687 C686 1.415 . S
H688 C685 0.999 . S
H689 C670 0.913 . S
H690 C708 0.951 . S
H691 C710 0.951 . S
H692 C712 0.950 . S
H693 C713 0.950 . S
H694 C715 0.950 . S
H695 C718 0.950 . S
H696 C719 0.950 . S
H697 C721 0.950 . S
H698 C722 0.950 . S
H699 C723 0.951 . S
H700 C725 0.951 . S
H701 C727 0.950 . S
H702 C728 0.950 . S
H703 C730 0.950 . S
H704 C733 0.950 1_556 S
H705 C734 0.950 . S
H706 C736 0.950 . S
H707 C737 0.950 . S
C708 H690 0.951 . S
C708 C709 1.366 . S
C708 C710 1.388 . S
C709 C708 1.366 . S
C709 C713 1.385 . S
C710 H691 0.951 . S
C710 C708 1.388 . S
C710 C711 1.366 . S
C711 C710 1.366 . S
C711 C712 1.414 . S
C711 C714 1.499 . S
C712 H692 0.950 . S
C712 C711 1.414 . S
C712 C713 1.374 . S
C713 H693 0.950 . S
C713 C709 1.385 . S
C713 C712 1.374 . S
C714 C711 1.499 . S
C714 C715 1.373 . S
C714 C716 1.389 1_554 S
C715 H694 0.950 . S
C715 C714 1.373 . S
C715 C731 1.377 1_554 S
C716 C714 1.389 1_556 S
C716 C717 1.524 . S
C716 C730 1.377 . S
C717 C716 1.524 . S
C717 C718 1.397 . S
C717 C722 1.363 . S
C718 H695 0.950 . S
C718 C717 1.397 . S
C718 C719 1.334 . S
C719 H696 0.950 . S
C719 C718 1.334 . S
C719 C720 1.287 . S
C720 C719 1.287 . S
C720 C721 1.524 . S
C720 H739 0.913 . S
C721 H697 0.950 . S
C721 C720 1.524 . S
C721 C722 1.415 . S
C722 H698 0.950 . S
C722 C717 1.363 . S
C722 C721 1.415 . S
C723 H699 0.951 . S
C723 C724 1.366 . S
C723 C725 1.388 . S
C724 C723 1.366 . S
C724 C728 1.385 . S
C725 H700 0.951 . S
C725 C723 1.388 . S
C725 C726 1.366 . S
C726 C725 1.366 . S
C726 C727 1.414 . S
C726 C729 1.499 . S
C727 H701 0.950 . S
C727 C726 1.414 . S
C727 C728 1.374 . S
C728 H702 0.950 . S
C728 C724 1.385 . S
C728 C727 1.374 . S
C729 C726 1.499 . S
C729 C730 1.373 . S
C729 C731 1.389 . S
C730 H703 0.950 . S
C730 C716 1.377 . S
C730 C729 1.373 . S
C731 C715 1.377 1_556 S
C731 C729 1.389 . S
C731 C732 1.524 1_556 S
C732 C731 1.524 1_554 S
C732 C733 1.397 . S
C732 C737 1.363 . S
C733 H704 0.950 1_554 S
C733 C732 1.397 . S
C733 C734 1.334 . S
C734 H705 0.950 . S
C734 C733 1.334 . S
C734 C735 1.287 . S
C735 C734 1.287 . S
C735 C736 1.524 . S
C735 H738 0.999 . S
C736 H706 0.950 . S
C736 C735 1.524 . S
C736 C737 1.415 . S
C737 H707 0.950 . S
C737 C732 1.363 . S
C737 C736 1.415 . S
H738 C735 0.999 . S
H739 C720 0.913 . S
H740 C758 0.951 . S
H741 C760 0.951 . S
H742 C762 0.952 . S
H743 C763 0.950 . S
H744 C765 0.950 . S
H745 C768 0.950 . S
H746 C769 0.950 . S
H747 C771 0.950 . S
H748 C772 0.950 . S
H749 C773 0.951 . S
H750 C775 0.951 . S
H751 C777 0.950 . S
H752 C778 0.950 . S
H753 C780 0.946 1_554 S
H754 C783 0.950 . S
H755 C784 0.950 . S
H756 C786 0.950 . S
H757 C787 0.950 . S
C758 H740 0.951 . S
C758 C759 1.366 . S
C758 C760 1.388 . S
C759 C758 1.366 . S
C759 C763 1.385 . S
C760 H741 0.951 . S
C760 C758 1.388 . S
C760 C761 1.366 . S
C761 C760 1.366 . S
C761 C762 1.414 . S
C761 C764 1.499 . S
C762 H742 0.952 . S
C762 C761 1.414 . S
C762 C763 1.374 . S
C763 H743 0.950 . S
C763 C759 1.385 . S
C763 C762 1.374 . S
C764 C761 1.499 . S
C764 C765 1.373 1_554 S
C764 C766 1.389 . S
C765 H744 0.950 . S
C765 C764 1.373 1_556 S
C765 C781 1.377 . S
C766 C764 1.389 . S
C766 C767 1.524 . S
C766 C780 1.377 1_554 S
C767 C766 1.524 . S
C767 C768 1.397 . S
C767 C772 1.363 . S
C768 H745 0.950 . S
C768 C767 1.397 . S
C768 C769 1.334 . S
C769 H746 0.950 . S
C769 C768 1.334 . S
C769 C770 1.287 . S
C770 C769 1.287 . S
C770 C771 1.524 . S
C770 H789 0.913 . S
C771 H747 0.950 . S
C771 C770 1.524 . S
C771 C772 1.415 . S
C772 H748 0.950 . S
C772 C767 1.363 . S
C772 C771 1.415 . S
C773 H749 0.951 . S
C773 C774 1.366 . S
C773 C775 1.388 . S
C774 C773 1.366 . S
C774 C778 1.385 . S
C775 H750 0.951 . S
C775 C773 1.388 . S
C775 C776 1.366 . S
C776 C775 1.366 . S
C776 C777 1.414 . S
C776 C779 1.499 . S
C777 H751 0.950 . S
C777 C776 1.414 . S
C777 C778 1.374 . S
C778 H752 0.950 . S
C778 C774 1.385 . S
C778 C777 1.374 . S
C779 C776 1.499 . S
C779 C780 1.373 . S
C779 C781 1.389 . S
C780 H753 0.946 1_556 S
C780 C766 1.377 1_556 S
C780 C779 1.373 . S
C781 C765 1.377 . S
C781 C779 1.389 . S
C781 C782 1.524 . S
C782 C781 1.524 . S
C782 C783 1.397 . S
C782 C787 1.363 . S
C783 H754 0.950 . S
C783 C782 1.397 . S
C783 C784 1.334 . S
C784 H755 0.950 . S
C784 C783 1.334 . S
C784 C785 1.287 . S
C785 C784 1.287 . S
C785 C786 1.524 . S
C785 H788 0.999 . S
C786 H756 0.950 . S
C786 C785 1.524 . S
C786 C787 1.415 . S
C787 H757 0.950 . S
C787 C782 1.363 . S
C787 C786 1.415 . S
H788 C785 0.999 . S
H789 C770 0.913 . S
H790 C808 0.951 . S
H791 C810 0.951 . S
H792 C812 0.950 . S
H793 C813 0.950 . S
H794 C815 0.950 . S
H795 C818 0.950 . S
H796 C819 0.950 . S
H797 C821 0.950 . S
H798 C822 0.950 . S
H799 C823 0.951 . S
H800 C825 0.951 . S
H801 C827 0.950 . S
H802 C828 0.950 . S
H803 C830 0.947 . S
H804 C833 0.950 . S
H805 C834 0.950 . S
H806 C836 0.950 . S
H807 C837 0.950 . S
C808 H790 0.951 . S
C808 C809 1.366 . S
C808 C810 1.388 . S
C809 C808 1.366 . S
C809 C813 1.385 . S
C810 H791 0.951 . S
C810 C808 1.388 . S
C810 C811 1.366 . S
C811 C810 1.366 . S
C811 C812 1.414 . S
C811 C814 1.499 . S
C812 H792 0.950 . S
C812 C811 1.414 . S
C812 C813 1.374 . S
C813 H793 0.950 . S
C813 C809 1.385 . S
C813 C812 1.374 . S
C814 C811 1.499 . S
C814 C815 1.373 . S
C814 C816 1.389 1_554 S
C815 H794 0.950 . S
C815 C814 1.373 . S
C815 C831 1.377 1_554 S
C816 C814 1.389 1_556 S
C816 C817 1.524 . S
C816 C830 1.377 . S
C817 C816 1.524 . S
C817 C818 1.397 . S
C817 C822 1.363 1_655 S
C818 H795 0.950 . S
C818 C817 1.397 . S
C818 C819 1.334 . S
C819 H796 0.950 . S
C819 C818 1.334 . S
C819 C820 1.287 1_655 S
C820 C819 1.287 1_455 S
C820 C821 1.524 . S
C820 H839 0.913 . S
C821 H797 0.950 . S
C821 C820 1.524 . S
C821 C822 1.415 . S
C822 H798 0.950 . S
C822 C817 1.363 1_455 S
C822 C821 1.415 . S
C823 H799 0.951 . S
C823 C824 1.366 . S
C823 C825 1.388 . S
C824 C823 1.366 . S
C824 C828 1.385 1_655 S
C825 H800 0.951 . S
C825 C823 1.388 . S
C825 C826 1.366 . S
C826 C825 1.366 . S
C826 C827 1.414 1_655 S
C826 C829 1.499 . S
C827 H801 0.950 . S
C827 C826 1.414 1_455 S
C827 C828 1.374 . S
C828 H802 0.950 . S
C828 C824 1.385 1_455 S
C828 C827 1.374 . S
C829 C826 1.499 . S
C829 C830 1.373 . S
C829 C831 1.389 . S
C830 H803 0.947 . S
C830 C816 1.377 . S
C830 C829 1.373 . S
C831 C815 1.377 1_556 S
C831 C829 1.389 . S
C831 C832 1.524 . S
C832 C831 1.524 . S
C832 C833 1.397 1_556 S
C832 C837 1.363 . S
C833 H804 0.950 . S
C833 C832 1.397 1_554 S
C833 C834 1.334 . S
C834 H805 0.950 . S
C834 C833 1.334 . S
C834 C835 1.287 . S
C835 C834 1.287 . S
C835 C836 1.524 . S
C835 H838 0.999 . S
C836 H806 0.950 . S
C836 C835 1.524 . S
C836 C837 1.415 1_554 S
C837 H807 0.950 . S
C837 C832 1.363 . S
C837 C836 1.415 1_556 S
H838 C835 0.999 . S
H839 C820 0.913 . S
H840 C858 0.951 . S
H841 C860 0.951 . S
H842 C862 0.950 . S
H843 C863 0.950 . S
H844 C865 0.950 . S
H845 C868 0.950 . S
H846 C869 0.950 . S
H847 C871 0.950 . S
H848 C872 0.950 . S
H849 C873 0.951 . S
H850 C875 0.951 . S
H851 C877 0.950 . S
H852 C878 0.950 . S
H853 C880 0.950 . S
H854 C883 0.950 . S
H855 C884 0.950 . S
H856 C886 0.950 . S
H857 C887 0.950 . S
C858 H840 0.951 . S
C858 C859 1.366 . S
C858 C860 1.388 . S
C859 C858 1.366 . S
C859 C863 1.385 . S
C860 H841 0.951 . S
C860 C858 1.388 . S
C860 C861 1.366 . S
C861 C860 1.366 . S
C861 C862 1.414 . S
C861 C864 1.499 . S
C862 H842 0.950 . S
C862 C861 1.414 . S
C862 C863 1.374 . S
C863 H843 0.950 . S
C863 C859 1.385 . S
C863 C862 1.374 . S
C864 C861 1.499 . S
C864 C865 1.373 . S
C864 C866 1.389 . S
C865 H844 0.950 . S
C865 C864 1.373 . S
C865 C881 1.377 . S
C866 C864 1.389 . S
C866 C867 1.524 . S
C866 C880 1.377 . S
C867 C866 1.524 . S
C867 C868 1.397 . S
C867 C872 1.363 . S
C868 H845 0.950 . S
C868 C867 1.397 . S
C868 C869 1.334 1_554 S
C869 H846 0.950 . S
C869 C868 1.334 1_556 S
C869 C870 1.287 . S
C870 C869 1.287 . S
C870 C871 1.524 1_556 S
C870 H889 0.913 . S
C871 H847 0.950 . S
C871 C870 1.524 1_554 S
C871 C872 1.415 . S
C872 H848 0.950 . S
C872 C867 1.363 . S
C872 C871 1.415 . S
C873 H849 0.951 . S
C873 C874 1.366 1_655 S
C873 C875 1.388 . S
C874 C873 1.366 1_455 S
C874 C878 1.385 . S
C875 H850 0.951 . S
C875 C873 1.388 . S
C875 C876 1.366 1_655 S
C876 C875 1.366 1_455 S
C876 C877 1.414 . S
C876 C879 1.499 . S
C877 H851 0.950 . S
C877 C876 1.414 . S
C877 C878 1.374 . S
C878 H852 0.950 . S
C878 C874 1.385 . S
C878 C877 1.374 . S
C879 C876 1.499 . S
C879 C880 1.373 . S
C879 C881 1.389 . S
C880 H853 0.950 . S
C880 C866 1.377 . S
C880 C879 1.373 . S
C881 C865 1.377 . S
C881 C879 1.389 . S
C881 C882 1.524 . S
C882 C881 1.524 . S
C882 C883 1.397 . S
C882 C887 1.363 1_455 S
C883 H854 0.950 . S
C883 C882 1.397 . S
C883 C884 1.334 1_455 S
C884 H855 0.950 . S
C884 C883 1.334 1_655 S
C884 C885 1.287 . S
C885 C884 1.287 . S
C885 C886 1.524 . S
C885 H888 0.999 . S
C886 H856 0.950 . S
C886 C885 1.524 . S
C886 C887 1.415 . S
C887 H857 0.950 . S
C887 C882 1.363 1_655 S
C887 C886 1.415 . S
H888 C885 0.999 . S
H889 C870 0.913 . S
H890 C908 0.951 . S
H891 C910 0.951 . S
H892 C912 0.950 . S
H893 C913 0.950 . S
H894 C915 0.950 . S
H895 C918 0.950 1_554 S
H896 C919 0.950 . S
H897 C921 0.950 . S
H898 C922 0.950 . S
H899 C923 0.951 . S
H900 C925 0.951 1_565 S
H901 C927 0.950 . S
H902 C928 0.950 . S
H903 C930 0.950 . S
H904 C933 0.950 . S
H905 C934 0.950 . S
H906 C936 0.950 . S
H907 C937 0.950 . S
C908 H890 0.951 . S
C908 C909 1.366 . S
C908 C910 1.388 . S
C909 C908 1.366 . S
C909 C913 1.385 . S
C910 H891 0.951 . S
C910 C908 1.388 . S
C910 C911 1.366 . S
C911 C910 1.366 . S
C911 C912 1.414 . S
C911 C914 1.499 . S
C912 H892 0.950 . S
C912 C911 1.414 . S
C912 C913 1.374 . S
C913 H893 0.950 . S
C913 C909 1.385 . S
C913 C912 1.374 . S
C914 C911 1.499 . S
C914 C915 1.373 . S
C914 C916 1.389 . S
C915 H894 0.950 . S
C915 C914 1.373 . S
C915 C931 1.377 . S
C916 C914 1.389 . S
C916 C917 1.524 . S
C916 C930 1.377 . S
C917 C916 1.524 . S
C917 C918 1.397 1_554 S
C917 C922 1.363 . S
C918 H895 0.950 1_556 S
C918 C917 1.397 1_556 S
C918 C919 1.334 . S
C919 H896 0.950 . S
C919 C918 1.334 . S
C919 C920 1.287 . S
C920 C919 1.287 . S
C920 C921 1.524 . S
C920 H939 0.913 . S
C921 H897 0.950 . S
C921 C920 1.524 . S
C921 C922 1.415 1_556 S
C922 H898 0.950 . S
C922 C917 1.363 . S
C922 C921 1.415 1_554 S
C923 H899 0.951 . S
C923 C924 1.366 1_565 S
C923 C925 1.388 1_565 S
C924 C923 1.366 1_545 S
C924 C928 1.385 . S
C925 H900 0.951 1_545 S
C925 C923 1.388 1_545 S
C925 C926 1.366 . S
C926 C925 1.366 . S
C926 C927 1.414 . S
C926 C929 1.499 . S
C927 H901 0.950 . S
C927 C926 1.414 . S
C927 C928 1.374 . S
C928 H902 0.950 . S
C928 C924 1.385 . S
C928 C927 1.374 . S
C929 C926 1.499 . S
C929 C930 1.373 . S
C929 C931 1.389 . S
C930 H903 0.950 . S
C930 C916 1.377 . S
C930 C929 1.373 . S
C931 C915 1.377 . S
C931 C929 1.389 . S
C931 C932 1.524 . S
C932 C931 1.524 . S
C932 C933 1.397 . S
C932 C937 1.363 . S
C933 H904 0.950 . S
C933 C932 1.397 . S
C933 C934 1.334 . S
C934 H905 0.950 . S
C934 C933 1.334 . S
C934 C935 1.287 . S
C935 C934 1.287 . S
C935 C936 1.524 . S
C935 H938 0.999 . S
C936 H906 0.950 . S
C936 C935 1.524 . S
C936 C937 1.415 . S
C937 H907 0.950 . S
C937 C932 1.363 . S
C937 C936 1.415 . S
H938 C935 0.999 . S
H939 C920 0.913 . S
H940 C958 0.951 . S
H941 C960 0.951 . S
H942 C962 0.950 . S
H943 C963 0.950 . S
H944 C965 0.950 . S
H945 C968 0.950 . S
H946 C969 0.950 . S
H947 C971 0.950 . S
H948 C972 0.950 . S
H949 C973 0.951 . S
H950 C975 0.951 . S
H951 C977 0.950 . S
H952 C978 0.950 . S
H953 C980 0.950 . S
H954 C983 0.950 . S
H955 C984 0.950 . S
H956 C986 0.950 . S
H957 C987 0.950 . S
C958 H940 0.951 . S
C958 C959 1.366 . S
C958 C960 1.388 . S
C959 C958 1.366 . S
C959 C963 1.385 . S
C960 H941 0.951 . S
C960 C958 1.388 . S
C960 C961 1.366 . S
C961 C960 1.366 . S
C961 C962 1.414 . S
C961 C964 1.499 . S
C962 H942 0.950 . S
C962 C961 1.414 . S
C962 C963 1.374 . S
C963 H943 0.950 . S
C963 C959 1.385 . S
C963 C962 1.374 . S
C964 C961 1.499 . S
C964 C965 1.373 . S
C964 C966 1.389 . S
C965 H944 0.950 . S
C965 C964 1.373 . S
C965 C981 1.377 . S
C966 C964 1.389 . S
C966 C967 1.524 . S
C966 C980 1.377 . S
C967 C966 1.524 . S
C967 C968 1.397 . S
C967 C972 1.363 . S
C968 H945 0.950 . S
C968 C967 1.397 . S
C968 C969 1.334 1_554 S
C969 H946 0.950 . S
C969 C968 1.334 1_556 S
C969 C970 1.287 . S
C970 C969 1.287 . S
C970 C971 1.524 1_556 S
C970 H989 0.913 . S
C971 H947 0.950 . S
C971 C970 1.524 1_554 S
C971 C972 1.415 . S
C972 H948 0.950 . S
C972 C967 1.363 . S
C972 C971 1.415 . S
C973 H949 0.951 . S
C973 C974 1.366 . S
C973 C975 1.388 . S
C974 C973 1.366 . S
C974 C978 1.385 . S
C975 H950 0.951 . S
C975 C973 1.388 . S
C975 C976 1.366 . S
C976 C975 1.366 . S
C976 C977 1.414 . S
C976 C979 1.499 . S
C977 H951 0.950 . S
C977 C976 1.414 . S
C977 C978 1.374 . S
C978 H952 0.950 . S
C978 C974 1.385 . S
C978 C977 1.374 . S
C979 C976 1.499 . S
C979 C980 1.373 . S
C979 C981 1.389 . S
C980 H953 0.950 . S
C980 C966 1.377 . S
C980 C979 1.373 . S
C981 C965 1.377 . S
C981 C979 1.389 . S
C981 C982 1.524 . S
C982 C981 1.524 . S
C982 C983 1.397 . S
C982 C987 1.363 . S
C983 H954 0.950 . S
C983 C982 1.397 . S
C983 C984 1.334 . S
C984 H955 0.950 . S
C984 C983 1.334 . S
C984 C985 1.287 . S
C985 C984 1.287 . S
C985 C986 1.524 . S
C985 H988 0.999 . S
C986 H956 0.950 . S
C986 C985 1.524 . S
C986 C987 1.415 . S
C987 H957 0.950 . S
C987 C982 1.363 . S
C987 C986 1.415 . S
H988 C985 0.999 . S
H989 C970 0.913 . S
H990 C1008 0.951 1_556 S
H991 C1010 0.951 . S
H992 C1012 0.950 . S
H993 C1013 0.950 . S
H994 C1015 0.950 . S
H995 C1018 0.950 . S
H996 C1019 0.950 . S
H997 C1021 0.950 . S
H998 C1022 0.950 1_554 S
H999 C1023 0.951 . S
H1000 C1025 0.951 . S
H1001 C1027 0.950 . S
H1002 C1028 0.950 . S
H1003 C1030 0.950 . S
H1004 C1033 0.950 . S
H1005 C1034 0.950 . S
H1006 C1036 0.950 . S
H1007 C1037 0.950 . S
C1008 H990 0.951 1_554 S
C1008 C1009 1.366 . S
C1008 C1010 1.388 . S
C1009 C1008 1.366 . S
C1009 C1013 1.385 . S
C1010 H991 0.951 . S
C1010 C1008 1.388 . S
C1010 C1011 1.366 . S
C1011 C1010 1.366 . S
C1011 C1012 1.414 . S
C1011 C1014 1.499 . S
C1012 H992 0.950 . S
C1012 C1011 1.414 . S
C1012 C1013 1.374 . S
C1013 H993 0.950 . S
C1013 C1009 1.385 . S
C1013 C1012 1.374 . S
C1014 C1011 1.499 . S
C1014 C1015 1.373 . S
C1014 C1016 1.389 . S
C1015 H994 0.950 . S
C1015 C1014 1.373 . S
C1015 C1031 1.377 . S
C1016 C1014 1.389 . S
C1016 C1017 1.524 . S
C1016 C1030 1.377 . S
C1017 C1016 1.524 . S
C1017 C1018 1.397 . S
C1017 C1022 1.363 1_554 S
C1018 H995 0.950 . S
C1018 C1017 1.397 . S
C1018 C1019 1.334 1_554 S
C1019 H996 0.950 . S
C1019 C1018 1.334 1_556 S
C1019 C1020 1.287 . S
C1020 C1019 1.287 . S
C1020 C1021 1.524 . S
C1020 H1039 0.913 . S
C1021 H997 0.950 . S
C1021 C1020 1.524 . S
C1021 C1022 1.415 . S
C1022 H998 0.950 1_556 S
C1022 C1017 1.363 1_556 S
C1022 C1021 1.415 . S
C1023 H999 0.951 . S
C1023 C1024 1.366 . S
C1023 C1025 1.388 . S
C1024 C1023 1.366 . S
C1024 C1028 1.385 . S
C1025 H1000 0.951 . S
C1025 C1023 1.388 . S
C1025 C1026 1.366 . S
C1026 C1025 1.366 . S
C1026 C1027 1.414 . S
C1026 C1029 1.499 . S
C1027 H1001 0.950 . S
C1027 C1026 1.414 . S
C1027 C1028 1.374 . S
C1028 H1002 0.950 . S
C1028 C1024 1.385 . S
C1028 C1027 1.374 . S
C1029 C1026 1.499 . S
C1029 C1030 1.373 . S
C1029 C1031 1.389 . S
C1030 H1003 0.950 . S
C1030 C1016 1.377 . S
C1030 C1029 1.373 . S
C1031 C1015 1.377 . S
C1031 C1029 1.389 . S
C1031 C1032 1.524 . S
C1032 C1031 1.524 . S
C1032 C1033 1.397 . S
C1032 C1037 1.363 . S
C1033 H1004 0.950 . S
C1033 C1032 1.397 . S
C1033 C1034 1.334 . S
C1034 H1005 0.950 . S
C1034 C1033 1.334 . S
C1034 C1035 1.287 . S
C1035 C1034 1.287 . S
C1035 C1036 1.524 . S
C1035 H1038 0.999 . S
C1036 H1006 0.950 . S
C1036 C1035 1.524 . S
C1036 C1037 1.415 . S
C1037 H1007 0.950 . S
C1037 C1032 1.363 . S
C1037 C1036 1.415 . S
H1038 C1035 0.999 . S
H1039 C1020 0.913 . S
H1040 C1058 0.951 . S
H1041 C1060 0.951 . S
H1042 C1062 0.950 . S
H1043 C1063 0.950 . S
H1044 C1065 0.950 . S
H1045 C1068 0.950 . S
H1046 C1069 0.950 . S
H1047 C1071 0.950 . S
H1048 C1072 0.950 1_556 S
H1049 C1073 0.951 . S
H1050 C1075 0.951 . S
H1051 C1077 0.950 . S
H1052 C1078 0.950 . S
H1053 C1080 0.950 1_455 S
H1054 C1083 0.950 . S
H1055 C1084 0.950 . S
H1056 C1086 0.950 . S
H1057 C1087 0.950 . S
C1058 H1040 0.951 . S
C1058 C1059 1.366 . S
C1058 C1060 1.388 . S
C1059 C1058 1.366 . S
C1059 C1063 1.385 . S
C1060 H1041 0.951 . S
C1060 C1058 1.388 . S
C1060 C1061 1.366 . S
C1061 C1060 1.366 . S
C1061 C1062 1.414 . S
C1061 C1064 1.499 . S
C1062 H1042 0.950 . S
C1062 C1061 1.414 . S
C1062 C1063 1.374 . S
C1063 H1043 0.950 . S
C1063 C1059 1.385 . S
C1063 C1062 1.374 . S
C1064 C1061 1.499 . S
C1064 C1065 1.373 . S
C1064 C1066 1.389 . S
C1065 H1044 0.950 . S
C1065 C1064 1.373 . S
C1065 C1081 1.377 . S
C1066 C1064 1.389 . S
C1066 C1067 1.524 1_655 S
C1066 C1080 1.377 . S
C1067 C1066 1.524 1_455 S
C1067 C1068 1.397 . S
C1067 C1072 1.363 . S
C1068 H1045 0.950 . S
C1068 C1067 1.397 . S
C1068 C1069 1.334 . S
C1069 H1046 0.950 . S
C1069 C1068 1.334 . S
C1069 C1070 1.287 . S
C1070 C1069 1.287 . S
C1070 C1071 1.524 . S
C1070 H1089 0.913 . S
C1071 H1047 0.950 . S
C1071 C1070 1.524 . S
C1071 C1072 1.415 . S
C1072 H1048 0.950 1_554 S
C1072 C1067 1.363 . S
C1072 C1071 1.415 . S
C1073 H1049 0.951 . S
C1073 C1074 1.366 1_655 S
C1073 C1075 1.388 1_556 S
C1074 C1073 1.366 1_455 S
C1074 C1078 1.385 . S
C1075 H1050 0.951 . S
C1075 C1073 1.388 1_554 S
C1075 C1076 1.366 1_554 S
C1076 C1075 1.366 1_556 S
C1076 C1077 1.414 1_655 S
C1076 C1079 1.499 1_556 S
C1077 H1051 0.950 . S
C1077 C1076 1.414 1_455 S
C1077 C1078 1.374 . S
C1078 H1052 0.950 . S
C1078 C1074 1.385 . S
C1078 C1077 1.374 . S
C1079 C1076 1.499 1_554 S
C1079 C1080 1.373 . S
C1079 C1081 1.389 . S
C1080 H1053 0.950 1_655 S
C1080 C1066 1.377 . S
C1080 C1079 1.373 . S
C1081 C1065 1.377 . S
C1081 C1079 1.389 . S
C1081 C1082 1.524 . S
C1082 C1081 1.524 . S
C1082 C1083 1.397 1_554 S
C1082 C1087 1.363 . S
C1083 H1054 0.950 . S
C1083 C1082 1.397 1_556 S
C1083 C1084 1.334 . S
C1084 H1055 0.950 . S
C1084 C1083 1.334 . S
C1084 C1085 1.287 . S
C1085 C1084 1.287 . S
C1085 C1086 1.524 1_556 S
C1085 H1088 0.999 . S
C1086 H1056 0.950 . S
C1086 C1085 1.524 1_554 S
C1086 C1087 1.415 . S
C1087 H1057 0.950 . S
C1087 C1082 1.363 . S
C1087 C1086 1.415 . S
H1088 C1085 0.999 . S
H1089 C1070 0.913 . S
H1090 C1108 0.951 . S
H1091 C1110 0.951 . S
H1092 C1112 0.950 . S
H1093 C1113 0.950 . S
H1094 C1115 0.950 . S
H1095 C1118 0.950 . S
H1096 C1119 0.950 . S
H1097 C1121 0.950 . S
H1098 C1122 0.950 . S
H1099 C1123 0.951 . S
H1100 C1125 0.951 1_554 S
H1101 C1127 0.950 . S
H1102 C1128 0.950 . S
H1103 C1130 0.950 . S
H1104 C1133 0.950 . S
H1105 C1134 0.932 1_565 S
H1106 C1136 0.950 . S
H1107 C1137 0.950 . S
C1108 H1090 0.951 . S
C1108 C1109 1.366 . S
C1108 C1110 1.388 . S
C1109 C1108 1.366 . S
C1109 C1113 1.385 . S
C1110 H1091 0.951 . S
C1110 C1108 1.388 . S
C1110 C1111 1.366 . S
C1111 C1110 1.366 . S
C1111 C1112 1.414 . S
C1111 C1114 1.499 . S
C1112 H1092 0.950 . S
C1112 C1111 1.414 . S
C1112 C1113 1.374 . S
C1113 H1093 0.950 . S
C1113 C1109 1.385 . S
C1113 C1112 1.374 . S
C1114 C1111 1.499 . S
C1114 C1115 1.373 . S
C1114 C1116 1.389 . S
C1115 H1094 0.950 . S
C1115 C1114 1.373 . S
C1115 C1131 1.377 . S
C1116 C1114 1.389 . S
C1116 C1117 1.524 1_554 S
C1116 C1130 1.377 1_554 S
C1117 C1116 1.524 1_556 S
C1117 C1118 1.397 . S
C1117 C1122 1.363 . S
C1118 H1095 0.950 . S
C1118 C1117 1.397 . S
C1118 C1119 1.334 . S
C1119 H1096 0.950 . S
C1119 C1118 1.334 . S
C1119 C1120 1.287 . S
C1120 C1119 1.287 . S
C1120 C1121 1.524 . S
C1120 H1139 0.913 . S
C1121 H1097 0.950 . S
C1121 C1120 1.524 . S
C1121 C1122 1.415 . S
C1122 H1098 0.950 . S
C1122 C1117 1.363 . S
C1122 C1121 1.415 . S
C1123 H1099 0.951 . S
C1123 C1124 1.366 . S
C1123 C1125 1.388 . S
C1124 C1123 1.366 . S
C1124 C1128 1.385 1_545 S
C1125 H1100 0.951 1_556 S
C1125 C1123 1.388 . S
C1125 C1126 1.366 1_545 S
C1126 C1125 1.366 1_565 S
C1126 C1127 1.414 . S
C1126 C1129 1.499 1_556 S
C1127 H1101 0.950 . S
C1127 C1126 1.414 . S
C1127 C1128 1.374 . S
C1128 H1102 0.950 . S
C1128 C1124 1.385 1_565 S
C1128 C1127 1.374 . S
C1129 C1126 1.499 1_554 S
C1129 C1130 1.373 1_554 S
C1129 C1131 1.389 . S
C1130 H1103 0.950 . S
C1130 C1116 1.377 1_556 S
C1130 C1129 1.373 1_556 S
C1131 C1115 1.377 . S
C1131 C1129 1.389 . S
C1131 C1132 1.524 1_565 S
C1132 C1131 1.524 1_545 S
C1132 C1133 1.397 1_545 S
C1132 C1137 1.363 . S
C1133 H1104 0.950 . S
C1133 C1132 1.397 1_565 S
C1133 C1134 1.334 1_565 S
C1134 H1105 0.932 1_545 S
C1134 C1133 1.334 1_545 S
C1134 C1135 1.287 . S
C1135 C1134 1.287 . S
C1135 C1136 1.524 . S
C1135 H1138 0.999 . S
C1136 H1106 0.950 . S
C1136 C1135 1.524 . S
C1136 C1137 1.415 . S
C1137 H1107 0.950 . S
C1137 C1132 1.363 . S
C1137 C1136 1.415 . S
H1138 C1135 0.999 . S
H1139 C1120 0.913 . S
H1140 C1158 0.951 . S
H1141 C1160 0.951 . S
H1142 C1162 0.950 . S
H1143 C1163 0.950 . S
H1144 C1165 0.950 . S
H1145 C1168 0.950 . S
H1146 C1169 0.950 . S
H1147 C1171 0.950 . S
H1148 C1172 0.950 . S
H1149 C1173 0.951 1_554 S
H1150 C1175 0.951 . S
H1151 C1177 0.950 . S
H1152 C1178 0.950 . S
H1153 C1180 0.950 . S
H1154 C1183 0.950 . S
H1155 C1184 0.950 . S
H1156 C1186 0.950 . S
H1157 C1187 0.950 . S
C1158 H1140 0.951 . S
C1158 C1159 1.366 . S
C1158 C1160 1.388 . S
C1159 C1158 1.366 . S
C1159 C1163 1.385 . S
C1160 H1141 0.951 . S
C1160 C1158 1.388 . S
C1160 C1161 1.366 . S
C1161 C1160 1.366 . S
C1161 C1162 1.414 . S
C1161 C1164 1.499 . S
C1162 H1142 0.950 . S
C1162 C1161 1.414 . S
C1162 C1163 1.374 . S
C1163 H1143 0.950 . S
C1163 C1159 1.385 . S
C1163 C1162 1.374 . S
C1164 C1161 1.499 . S
C1164 C1165 1.373 . S
C1164 C1166 1.389 . S
C1165 H1144 0.950 . S
C1165 C1164 1.373 . S
C1165 C1181 1.377 . S
C1166 C1164 1.389 . S
C1166 C1167 1.524 . S
C1166 C1180 1.377 1_554 S
C1167 C1166 1.524 . S
C1167 C1168 1.397 . S
C1167 C1172 1.363 1_554 S
C1168 H1145 0.950 . S
C1168 C1167 1.397 . S
C1168 C1169 1.334 . S
C1169 H1146 0.950 . S
C1169 C1168 1.334 . S
C1169 C1170 1.287 1_554 S
C1170 C1169 1.287 1_556 S
C1170 C1171 1.524 . S
C1170 H1189 0.913 . S
C1171 H1147 0.950 . S
C1171 C1170 1.524 . S
C1171 C1172 1.415 . S
C1172 H1148 0.950 . S
C1172 C1167 1.363 1_556 S
C1172 C1171 1.415 . S
C1173 H1149 0.951 1_556 S
C1173 C1174 1.366 . S
C1173 C1175 1.388 1_556 S
C1174 C1173 1.366 . S
C1174 C1178 1.385 . S
C1175 H1150 0.951 . S
C1175 C1173 1.388 1_554 S
C1175 C1176 1.366 1_554 S
C1176 C1175 1.366 1_556 S
C1176 C1177 1.414 . S
C1176 C1179 1.499 1_556 S
C1177 H1151 0.950 . S
C1177 C1176 1.414 . S
C1177 C1178 1.374 . S
C1178 H1152 0.950 . S
C1178 C1174 1.385 . S
C1178 C1177 1.374 . S
C1179 C1176 1.499 1_554 S
C1179 C1180 1.373 1_554 S
C1179 C1181 1.389 . S
C1180 H1153 0.950 . S
C1180 C1166 1.377 1_556 S
C1180 C1179 1.373 1_556 S
C1181 C1165 1.377 . S
C1181 C1179 1.389 . S
C1181 C1182 1.524 . S
C1182 C1181 1.524 . S
C1182 C1183 1.397 . S
C1182 C1187 1.363 . S
C1183 H1154 0.950 . S
C1183 C1182 1.397 . S
C1183 C1184 1.334 . S
C1184 H1155 0.950 . S
C1184 C1183 1.334 . S
C1184 C1185 1.287 . S
C1185 C1184 1.287 . S
C1185 C1186 1.524 . S
C1185 H1188 0.999 . S
C1186 H1156 0.950 . S
C1186 C1185 1.524 . S
C1186 C1187 1.415 . S
C1187 H1157 0.950 . S
C1187 C1182 1.363 . S
C1187 C1186 1.415 . S
H1188 C1185 0.999 . S
H1189 C1170 0.913 . S
H1190 C1208 0.951 . S
H1191 C1210 0.951 . S
H1192 C1212 0.950 . S
H1193 C1213 0.950 . S
H1194 C1215 0.950 . S
H1195 C1218 0.950 . S
H1196 C1219 0.950 . S
H1197 C1221 0.950 . S
H1198 C1222 0.950 . S
H1199 C1223 0.951 . S
H1200 C1225 0.951 . S
H1201 C1227 0.950 . S
H1202 C1228 0.950 1_554 S
H1203 C1230 0.950 . S
H1204 C1233 0.950 . S
H1205 C1234 0.950 . S
H1206 C1236 0.950 . S
H1207 C1237 0.950 . S
C1208 H1190 0.951 . S
C1208 C1209 1.366 . S
C1208 C1210 1.388 . S
C1209 C1208 1.366 . S
C1209 C1213 1.385 . S
C1210 H1191 0.951 . S
C1210 C1208 1.388 . S
C1210 C1211 1.366 . S
C1211 C1210 1.366 . S
C1211 C1212 1.414 . S
C1211 C1214 1.499 . S
C1212 H1192 0.950 . S
C1212 C1211 1.414 . S
C1212 C1213 1.374 . S
C1213 H1193 0.950 . S
C1213 C1209 1.385 . S
C1213 C1212 1.374 . S
C1214 C1211 1.499 . S
C1214 C1215 1.373 . S
C1214 C1216 1.389 . S
C1215 H1194 0.950 . S
C1215 C1214 1.373 . S
C1215 C1231 1.377 . S
C1216 C1214 1.389 . S
C1216 C1217 1.524 . S
C1216 C1230 1.377 . S
C1217 C1216 1.524 . S
C1217 C1218 1.397 . S
C1217 C1222 1.363 . S
C1218 H1195 0.950 . S
C1218 C1217 1.397 . S
C1218 C1219 1.334 . S
C1219 H1196 0.950 . S
C1219 C1218 1.334 . S
C1219 C1220 1.287 . S
C1220 C1219 1.287 . S
C1220 C1221 1.524 . S
C1220 H1239 0.913 . S
C1221 H1197 0.950 . S
C1221 C1220 1.524 . S
C1221 C1222 1.415 . S
C1222 H1198 0.950 . S
C1222 C1217 1.363 . S
C1222 C1221 1.415 . S
C1223 H1199 0.951 . S
C1223 C1224 1.366 . S
C1223 C1225 1.388 . S
C1224 C1223 1.366 . S
C1224 C1228 1.385 . S
C1225 H1200 0.951 . S
C1225 C1223 1.388 . S
C1225 C1226 1.366 . S
C1226 C1225 1.366 . S
C1226 C1227 1.414 1_556 S
C1226 C1229 1.499 1_556 S
C1227 H1201 0.950 . S
C1227 C1226 1.414 1_554 S
C1227 C1228 1.374 1_554 S
C1228 H1202 0.950 1_556 S
C1228 C1224 1.385 . S
C1228 C1227 1.374 1_556 S
C1229 C1226 1.499 1_554 S
C1229 C1230 1.373 . S
C1229 C1231 1.389 . S
C1230 H1203 0.950 . S
C1230 C1216 1.377 . S
C1230 C1229 1.373 . S
C1231 C1215 1.377 . S
C1231 C1229 1.389 . S
C1231 C1232 1.524 . S
C1232 C1231 1.524 . S
C1232 C1233 1.397 . S
C1232 C1237 1.363 1_554 S
C1233 H1204 0.950 . S
C1233 C1232 1.397 . S
C1233 C1234 1.334 . S
C1234 H1205 0.950 . S
C1234 C1233 1.334 . S
C1234 C1235 1.287 1_554 S
C1235 C1234 1.287 1_556 S
C1235 C1236 1.524 . S
C1235 H1238 0.999 . S
C1236 H1206 0.950 . S
C1236 C1235 1.524 . S
C1236 C1237 1.415 . S
C1237 H1207 0.950 . S
C1237 C1232 1.363 1_556 S
C1237 C1236 1.415 . S
H1238 C1235 0.999 . S
H1239 C1220 0.913 . S
H1240 C1258 0.951 . S
H1241 C1260 0.951 . S
H1242 C1262 0.950 . S
H1243 C1263 0.950 . S
H1244 C1265 0.950 . S
H1245 C1268 0.948 1_556 S
H1246 C1269 0.950 . S
H1247 C1271 0.950 1_655 S
H1248 C1272 0.950 1_655 S
H1249 C1273 0.951 . S
H1250 C1275 0.951 . S
H1251 C1277 0.950 . S
H1252 C1278 0.950 1_655 S
H1253 C1280 0.950 . S
H1254 C1283 0.950 . S
H1255 C1284 0.950 . S
H1256 C1286 0.950 . S
H1257 C1287 0.950 . S
C1258 H1240 0.951 . S
C1258 C1259 1.366 . S
C1258 C1260 1.388 . S
C1259 C1258 1.366 . S
C1259 C1263 1.385 . S
C1260 H1241 0.951 . S
C1260 C1258 1.388 . S
C1260 C1261 1.366 . S
C1261 C1260 1.366 . S
C1261 C1262 1.414 . S
C1261 C1264 1.499 . S
C1262 H1242 0.950 . S
C1262 C1261 1.414 . S
C1262 C1263 1.374 . S
C1263 H1243 0.950 . S
C1263 C1259 1.385 . S
C1263 C1262 1.374 . S
C1264 C1261 1.499 . S
C1264 C1265 1.373 . S
C1264 C1266 1.389 . S
C1265 H1244 0.950 . S
C1265 C1264 1.373 . S
C1265 C1281 1.377 . S
C1266 C1264 1.389 . S
C1266 C1267 1.524 . S
C1266 C1280 1.377 . S
C1267 C1266 1.524 . S
C1267 C1268 1.397 1_556 S
C1267 C1272 1.363 . S
C1268 H1245 0.948 1_554 S
C1268 C1267 1.397 1_554 S
C1268 C1269 1.334 . S
C1269 H1246 0.950 . S
C1269 C1268 1.334 . S
C1269 C1270 1.287 . S
C1270 C1269 1.287 . S
C1270 C1271 1.524 . S
C1270 H1289 0.913 . S
C1271 H1247 0.950 1_455 S
C1271 C1270 1.524 . S
C1271 C1272 1.415 1_554 S
C1272 H1248 0.950 1_455 S
C1272 C1267 1.363 . S
C1272 C1271 1.415 1_556 S
C1273 H1249 0.951 . S
C1273 C1274 1.366 . S
C1273 C1275 1.388 . S
C1274 C1273 1.366 . S
C1274 C1278 1.385 . S
C1275 H1250 0.951 . S
C1275 C1273 1.388 . S
C1275 C1276 1.366 . S
C1276 C1275 1.366 . S
C1276 C1277 1.414 . S
C1276 C1279 1.499 . S
C1277 H1251 0.950 . S
C1277 C1276 1.414 . S
C1277 C1278 1.374 . S
C1278 H1252 0.950 1_455 S
C1278 C1274 1.385 . S
C1278 C1277 1.374 . S
C1279 C1276 1.499 . S
C1279 C1280 1.373 . S
C1279 C1281 1.389 . S
C1280 H1253 0.950 . S
C1280 C1266 1.377 . S
C1280 C1279 1.373 . S
C1281 C1265 1.377 . S
C1281 C1279 1.389 . S
C1281 C1282 1.524 . S
C1282 C1281 1.524 . S
C1282 C1283 1.397 . S
C1282 C1287 1.363 . S
C1283 H1254 0.950 . S
C1283 C1282 1.397 . S
C1283 C1284 1.334 . S
C1284 H1255 0.950 . S
C1284 C1283 1.334 . S
C1284 C1285 1.287 . S
C1285 C1284 1.287 . S
C1285 C1286 1.524 . S
C1285 H1288 0.999 . S
C1286 H1256 0.950 . S
C1286 C1285 1.524 . S
C1286 C1287 1.415 . S
C1287 H1257 0.950 . S
C1287 C1282 1.363 . S
C1287 C1286 1.415 . S
H1288 C1285 0.999 . S
H1289 C1270 0.913 . S
H1290 C1308 0.951 . S
H1291 C1310 0.951 . S
H1292 C1312 0.950 . S
H1293 C1313 0.950 1_554 S
H1294 C1315 0.950 . S
H1295 C1318 0.950 1_545 S
H1296 C1319 0.950 . S
H1297 C1321 0.950 . S
H1298 C1322 0.950 1_545 S
H1299 C1323 0.951 . S
H1300 C1325 0.951 . S
H1301 C1327 0.950 . S
H1302 C1328 0.950 . S
H1303 C1330 0.950 . S
H1304 C1333 0.950 . S
H1305 C1334 0.950 . S
H1306 C1336 0.950 . S
H1307 C1337 0.950 . S
C1308 H1290 0.951 . S
C1308 C1309 1.366 . S
C1308 C1310 1.388 . S
C1309 C1308 1.366 . S
C1309 C1313 1.385 . S
C1310 H1291 0.951 . S
C1310 C1308 1.388 . S
C1310 C1311 1.366 . S
C1311 C1310 1.366 . S
C1311 C1312 1.414 . S
C1311 C1314 1.499 . S
C1312 H1292 0.950 . S
C1312 C1311 1.414 . S
C1312 C1313 1.374 . S
C1313 H1293 0.950 1_556 S
C1313 C1309 1.385 . S
C1313 C1312 1.374 . S
C1314 C1311 1.499 . S
C1314 C1315 1.373 . S
C1314 C1316 1.389 . S
C1315 H1294 0.950 . S
C1315 C1314 1.373 . S
C1315 C1331 1.377 . S
C1316 C1314 1.389 . S
C1316 C1317 1.524 . S
C1316 C1330 1.377 . S
C1317 C1316 1.524 . S
C1317 C1318 1.397 1_545 S
C1317 C1322 1.363 1_545 S
C1318 H1295 0.950 1_565 S
C1318 C1317 1.397 1_565 S
C1318 C1319 1.334 . S
C1319 H1296 0.950 . S
C1319 C1318 1.334 . S
C1319 C1320 1.287 . S
C1320 C1319 1.287 . S
C1320 C1321 1.524 . S
C1320 H1339 0.913 . S
C1321 H1297 0.950 . S
C1321 C1320 1.524 . S
C1321 C1322 1.415 . S
C1322 H1298 0.950 1_565 S
C1322 C1317 1.363 1_565 S
C1322 C1321 1.415 . S
C1323 H1299 0.951 . S
C1323 C1324 1.366 . S
C1323 C1325 1.388 . S
C1324 C1323 1.366 . S
C1324 C1328 1.385 . S
C1325 H1300 0.951 . S
C1325 C1323 1.388 . S
C1325 C1326 1.366 . S
C1326 C1325 1.366 . S
C1326 C1327 1.414 . S
C1326 C1329 1.499 . S
C1327 H1301 0.950 . S
C1327 C1326 1.414 . S
C1327 C1328 1.374 . S
C1328 H1302 0.950 . S
C1328 C1324 1.385 . S
C1328 C1327 1.374 . S
C1329 C1326 1.499 . S
C1329 C1330 1.373 . S
C1329 C1331 1.389 . S
C1330 H1303 0.950 . S
C1330 C1316 1.377 . S
C1330 C1329 1.373 . S
C1331 C1315 1.377 . S
C1331 C1329 1.389 . S
C1331 C1332 1.524 . S
C1332 C1331 1.524 . S
C1332 C1333 1.397 . S
C1332 C1337 1.363 . S
C1333 H1304 0.950 . S
C1333 C1332 1.397 . S
C1333 C1334 1.334 . S
C1334 H1305 0.950 . S
C1334 C1333 1.334 . S
C1334 C1335 1.287 . S
C1335 C1334 1.287 . S
C1335 C1336 1.524 . S
C1335 H1338 0.999 . S
C1336 H1306 0.950 . S
C1336 C1335 1.524 . S
C1336 C1337 1.415 . S
C1337 H1307 0.950 . S
C1337 C1332 1.363 . S
C1337 C1336 1.415 . S
H1338 C1335 0.999 . S
H1339 C1320 0.913 . S
H1340 C1358 0.951 . S
H1341 C1360 0.951 . S
H1342 C1362 0.950 . S
H1343 C1363 0.950 . S
H1344 C1365 0.950 . S
H1345 C1368 0.950 1_554 S
H1346 C1369 0.950 . S
H1347 C1371 0.950 . S
H1348 C1372 0.950 . S
H1349 C1373 0.951 . S
H1350 C1375 0.951 . S
H1351 C1377 0.950 . S
H1352 C1378 0.950 . S
H1353 C1380 0.950 . S
H1354 C1383 0.950 . S
H1355 C1384 0.950 . S
H1356 C1386 0.950 . S
H1357 C1387 0.950 . S
C1358 H1340 0.951 . S
C1358 C1359 1.366 . S
C1358 C1360 1.388 . S
C1359 C1358 1.366 . S
C1359 C1363 1.385 . S
C1360 H1341 0.951 . S
C1360 C1358 1.388 . S
C1360 C1361 1.366 . S
C1361 C1360 1.366 . S
C1361 C1362 1.414 . S
C1361 C1364 1.499 . S
C1362 H1342 0.950 . S
C1362 C1361 1.414 . S
C1362 C1363 1.374 . S
C1363 H1343 0.950 . S
C1363 C1359 1.385 . S
C1363 C1362 1.374 . S
C1364 C1361 1.499 . S
C1364 C1365 1.373 . S
C1364 C1366 1.389 . S
C1365 H1344 0.950 . S
C1365 C1364 1.373 . S
C1365 C1381 1.377 . S
C1366 C1364 1.389 . S
C1366 C1367 1.524 . S
C1366 C1380 1.377 . S
C1367 C1366 1.524 . S
C1367 C1368 1.397 . S
C1367 C1372 1.363 . S
C1368 H1345 0.950 1_556 S
C1368 C1367 1.397 . S
C1368 C1369 1.334 1_556 S
C1369 H1346 0.950 . S
C1369 C1368 1.334 1_554 S
C1369 C1370 1.287 . S
C1370 C1369 1.287 . S
C1370 C1371 1.524 1_554 S
C1370 H1389 0.913 . S
C1371 H1347 0.950 . S
C1371 C1370 1.524 1_556 S
C1371 C1372 1.415 . S
C1372 H1348 0.950 . S
C1372 C1367 1.363 . S
C1372 C1371 1.415 . S
C1373 H1349 0.951 . S
C1373 C1374 1.366 . S
C1373 C1375 1.388 . S
C1374 C1373 1.366 . S
C1374 C1378 1.385 . S
C1375 H1350 0.951 . S
C1375 C1373 1.388 . S
C1375 C1376 1.366 . S
C1376 C1375 1.366 . S
C1376 C1377 1.414 . S
C1376 C1379 1.499 . S
C1377 H1351 0.950 . S
C1377 C1376 1.414 . S
C1377 C1378 1.374 . S
C1378 H1352 0.950 . S
C1378 C1374 1.385 . S
C1378 C1377 1.374 . S
C1379 C1376 1.499 . S
C1379 C1380 1.373 . S
C1379 C1381 1.389 . S
C1380 H1353 0.950 . S
C1380 C1366 1.377 . S
C1380 C1379 1.373 . S
C1381 C1365 1.377 . S
C1381 C1379 1.389 . S
C1381 C1382 1.524 . S
C1382 C1381 1.524 . S
C1382 C1383 1.397 . S
C1382 C1387 1.363 . S
C1383 H1354 0.950 . S
C1383 C1382 1.397 . S
C1383 C1384 1.334 . S
C1384 H1355 0.950 . S
C1384 C1383 1.334 . S
C1384 C1385 1.287 . S
C1385 C1384 1.287 . S
C1385 C1386 1.524 . S
C1385 H1388 0.999 . S
C1386 H1356 0.950 . S
C1386 C1385 1.524 . S
C1386 C1387 1.415 . S
C1387 H1357 0.950 . S
C1387 C1382 1.363 . S
C1387 C1386 1.415 . S
H1388 C1385 0.999 . S
H1389 C1370 0.913 . S
H1390 C1408 0.951 . S
H1391 C1410 0.951 . S
H1392 C1412 0.950 . S
H1393 C1413 0.950 1_554 S
H1394 C1415 0.950 . S
H1395 C1418 0.950 . S
H1396 C1419 0.950 . S
H1397 C1421 0.950 . S
H1398 C1422 0.950 . S
H1399 C1423 0.951 . S
H1400 C1425 0.951 . S
H1401 C1427 0.950 . S
H1402 C1428 0.950 . S
H1403 C1430 0.950 . S
H1404 C1433 0.950 . S
H1405 C1434 0.950 . S
H1406 C1436 0.950 . S
H1407 C1437 0.950 . S
C1408 H1390 0.951 . S
C1408 C1409 1.366 . S
C1408 C1410 1.388 . S
C1409 C1408 1.366 . S
C1409 C1413 1.385 . S
C1410 H1391 0.951 . S
C1410 C1408 1.388 . S
C1410 C1411 1.366 . S
C1411 C1410 1.366 . S
C1411 C1412 1.414 . S
C1411 C1414 1.499 . S
C1412 H1392 0.950 . S
C1412 C1411 1.414 . S
C1412 C1413 1.374 . S
C1413 H1393 0.950 1_556 S
C1413 C1409 1.385 . S
C1413 C1412 1.374 . S
C1414 C1411 1.499 . S
C1414 C1415 1.373 . S
C1414 C1416 1.389 . S
C1415 H1394 0.950 . S
C1415 C1414 1.373 . S
C1415 C1431 1.377 . S
C1416 C1414 1.389 . S
C1416 C1417 1.524 . S
C1416 C1430 1.377 . S
C1417 C1416 1.524 . S
C1417 C1418 1.397 . S
C1417 C1422 1.363 . S
C1418 H1395 0.950 . S
C1418 C1417 1.397 . S
C1418 C1419 1.334 . S
C1419 H1396 0.950 . S
C1419 C1418 1.334 . S
C1419 C1420 1.287 . S
C1420 C1419 1.287 . S
C1420 C1421 1.524 . S
C1420 H1439 0.913 . S
C1421 H1397 0.950 . S
C1421 C1420 1.524 . S
C1421 C1422 1.415 . S
C1422 H1398 0.950 . S
C1422 C1417 1.363 . S
C1422 C1421 1.415 . S
C1423 H1399 0.951 . S
C1423 C1424 1.366 . S
C1423 C1425 1.388 . S
C1424 C1423 1.366 . S
C1424 C1428 1.385 . S
C1425 H1400 0.951 . S
C1425 C1423 1.388 . S
C1425 C1426 1.366 . S
C1426 C1425 1.366 . S
C1426 C1427 1.414 . S
C1426 C1429 1.499 . S
C1427 H1401 0.950 . S
C1427 C1426 1.414 . S
C1427 C1428 1.374 . S
C1428 H1402 0.950 . S
C1428 C1424 1.385 . S
C1428 C1427 1.374 . S
C1429 C1426 1.499 . S
C1429 C1430 1.373 . S
C1429 C1431 1.389 . S
C1430 H1403 0.950 . S
C1430 C1416 1.377 . S
C1430 C1429 1.373 . S
C1431 C1415 1.377 . S
C1431 C1429 1.389 . S
C1431 C1432 1.524 . S
C1432 C1431 1.524 . S
C1432 C1433 1.397 . S
C1432 C1437 1.363 . S
C1433 H1404 0.950 . S
C1433 C1432 1.397 . S
C1433 C1434 1.334 . S
C1434 H1405 0.950 . S
C1434 C1433 1.334 . S
C1434 C1435 1.287 . S
C1435 C1434 1.287 . S
C1435 C1436 1.524 . S
C1435 H1438 0.999 . S
C1436 H1406 0.950 . S
C1436 C1435 1.524 . S
C1436 C1437 1.415 . S
C1437 H1407 0.950 . S
C1437 C1432 1.363 . S
C1437 C1436 1.415 . S
H1438 C1435 0.999 . S
H1439 C1420 0.913 . S
H1440 C1458 0.951 . S
H1441 C1460 0.951 . S
H1442 C1462 0.950 . S
H1443 C1463 0.950 . S
H1444 C1465 0.950 . S
H1445 C1468 0.950 . S
H1446 C1469 0.950 . S
H1447 C1471 0.950 . S
H1448 C1472 0.950 . S
H1449 C1473 0.951 . S
H1450 C1475 0.951 1_455 S
H1451 C1477 0.950 . S
H1452 C1478 0.950 . S
H1453 C1480 0.950 . S
H1454 C1483 0.950 . S
H1455 C1484 0.950 . S
H1456 C1486 0.950 . S
H1457 C1487 0.950 . S
C1458 H1440 0.951 . S
C1458 C1459 1.366 . S
C1458 C1460 1.388 . S
C1459 C1458 1.366 . S
C1459 C1463 1.385 . S
C1460 H1441 0.951 . S
C1460 C1458 1.388 . S
C1460 C1461 1.366 . S
C1461 C1460 1.366 . S
C1461 C1462 1.414 . S
C1461 C1464 1.499 . S
C1462 H1442 0.950 . S
C1462 C1461 1.414 . S
C1462 C1463 1.374 . S
C1463 H1443 0.950 . S
C1463 C1459 1.385 . S
C1463 C1462 1.374 . S
C1464 C1461 1.499 . S
C1464 C1465 1.373 . S
C1464 C1466 1.389 . S
C1465 H1444 0.950 . S
C1465 C1464 1.373 . S
C1465 C1481 1.377 . S
C1466 C1464 1.389 . S
C1466 C1467 1.524 . S
C1466 C1480 1.377 . S
C1467 C1466 1.524 . S
C1467 C1468 1.397 . S
C1467 C1472 1.363 . S
C1468 H1445 0.950 . S
C1468 C1467 1.397 . S
C1468 C1469 1.334 . S
C1469 H1446 0.950 . S
C1469 C1468 1.334 . S
C1469 C1470 1.287 . S
C1470 C1469 1.287 . S
C1470 C1471 1.524 . S
C1470 H1489 0.913 . S
C1471 H1447 0.950 . S
C1471 C1470 1.524 . S
C1471 C1472 1.415 . S
C1472 H1448 0.950 . S
C1472 C1467 1.363 . S
C1472 C1471 1.415 . S
C1473 H1449 0.951 . S
C1473 C1474 1.366 1_455 S
C1473 C1475 1.388 1_455 S
C1474 C1473 1.366 1_655 S
C1474 C1478 1.385 . S
C1475 H1450 0.951 1_655 S
C1475 C1473 1.388 1_655 S
C1475 C1476 1.366 . S
C1476 C1475 1.366 . S
C1476 C1477 1.414 . S
C1476 C1479 1.499 . S
C1477 H1451 0.950 . S
C1477 C1476 1.414 . S
C1477 C1478 1.374 . S
C1478 H1452 0.950 . S
C1478 C1474 1.385 . S
C1478 C1477 1.374 . S
C1479 C1476 1.499 . S
C1479 C1480 1.373 . S
C1479 C1481 1.389 . S
C1480 H1453 0.950 . S
C1480 C1466 1.377 . S
C1480 C1479 1.373 . S
C1481 C1465 1.377 . S
C1481 C1479 1.389 . S
C1481 C1482 1.524 . S
C1482 C1481 1.524 . S
C1482 C1483 1.397 . S
C1482 C1487 1.363 1_655 S
C1483 H1454 0.950 . S
C1483 C1482 1.397 . S
C1483 C1484 1.334 . S
C1484 H1455 0.950 . S
C1484 C1483 1.334 . S
C1484 C1485 1.287 1_655 S
C1485 C1484 1.287 1_455 S
C1485 C1486 1.524 . S
C1485 H1488 0.999 . S
C1486 H1456 0.950 . S
C1486 C1485 1.524 . S
C1486 C1487 1.415 . S
C1487 H1457 0.950 . S
C1487 C1482 1.363 1_455 S
C1487 C1486 1.415 . S
H1488 C1485 0.999 . S
H1489 C1470 0.913 . S
H1490 C1508 0.951 . S
H1491 C1510 0.951 . S
H1492 C1512 0.950 . S
H1493 C1513 0.950 . S
H1494 C1515 0.950 . S
H1495 C1518 0.950 . S
H1496 C1519 0.950 . S
H1497 C1521 0.950 . S
H1498 C1522 0.950 . S
H1499 C1523 0.951 . S
H1500 C1525 0.951 . S
H1501 C1527 0.950 . S
H1502 C1528 0.950 . S
H1503 C1530 0.950 1_545 S
H1504 C1533 0.950 . S
H1505 C1534 0.950 . S
H1506 C1536 0.950 . S
H1507 C1537 0.950 . S
C1508 H1490 0.951 . S
C1508 C1509 1.366 . S
C1508 C1510 1.388 . S
C1509 C1508 1.366 . S
C1509 C1513 1.385 . S
C1510 H1491 0.951 . S
C1510 C1508 1.388 . S
C1510 C1511 1.366 . S
C1511 C1510 1.366 . S
C1511 C1512 1.414 . S
C1511 C1514 1.499 . S
C1512 H1492 0.950 . S
C1512 C1511 1.414 . S
C1512 C1513 1.374 . S
C1513 H1493 0.950 . S
C1513 C1509 1.385 . S
C1513 C1512 1.374 . S
C1514 C1511 1.499 . S
C1514 C1515 1.373 . S
C1514 C1516 1.389 . S
C1515 H1494 0.950 . S
C1515 C1514 1.373 . S
C1515 C1531 1.377 . S
C1516 C1514 1.389 . S
C1516 C1517 1.524 1_565 S
C1516 C1530 1.377 . S
C1517 C1516 1.524 1_545 S
C1517 C1518 1.397 . S
C1517 C1522 1.363 . S
C1518 H1495 0.950 . S
C1518 C1517 1.397 . S
C1518 C1519 1.334 . S
C1519 H1496 0.950 . S
C1519 C1518 1.334 . S
C1519 C1520 1.287 . S
C1520 C1519 1.287 . S
C1520 C1521 1.524 . S
C1520 H1539 0.913 . S
C1521 H1497 0.950 . S
C1521 C1520 1.524 . S
C1521 C1522 1.415 . S
C1522 H1498 0.950 . S
C1522 C1517 1.363 . S
C1522 C1521 1.415 . S
C1523 H1499 0.951 . S
C1523 C1524 1.366 . S
C1523 C1525 1.388 . S
C1524 C1523 1.366 . S
C1524 C1528 1.385 . S
C1525 H1500 0.951 . S
C1525 C1523 1.388 . S
C1525 C1526 1.366 . S
C1526 C1525 1.366 . S
C1526 C1527 1.414 . S
C1526 C1529 1.499 . S
C1527 H1501 0.950 . S
C1527 C1526 1.414 . S
C1527 C1528 1.374 . S
C1528 H1502 0.950 . S
C1528 C1524 1.385 . S
C1528 C1527 1.374 . S
C1529 C1526 1.499 . S
C1529 C1530 1.373 . S
C1529 C1531 1.389 . S
C1530 H1503 0.950 1_565 S
C1530 C1516 1.377 . S
C1530 C1529 1.373 . S
C1531 C1515 1.377 . S
C1531 C1529 1.389 . S
C1531 C1532 1.524 . S
C1532 C1531 1.524 . S
C1532 C1533 1.397 . S
C1532 C1537 1.363 . S
C1533 H1504 0.950 . S
C1533 C1532 1.397 . S
C1533 C1534 1.334 . S
C1534 H1505 0.950 . S
C1534 C1533 1.334 . S
C1534 C1535 1.287 . S
C1535 C1534 1.287 . S
C1535 C1536 1.524 . S
C1535 H1538 0.999 . S
C1536 H1506 0.950 . S
C1536 C1535 1.524 . S
C1536 C1537 1.415 . S
C1537 H1507 0.950 . S
C1537 C1532 1.363 . S
C1537 C1536 1.415 . S
H1538 C1535 0.999 . S
H1539 C1520 0.913 . S
H1540 C1558 0.951 . S
H1541 C1560 0.951 . S
H1542 C1562 0.950 . S
H1543 C1563 0.950 . S
H1544 C1565 0.950 . S
H1545 C1568 0.950 . S
H1546 C1569 0.950 . S
H1547 C1571 0.950 . S
H1548 C1572 0.950 . S
H1549 C1573 0.951 . S
H1550 C1575 0.951 . S
H1551 C1577 0.950 . S
H1552 C1578 0.950 . S
H1553 C1580 0.950 . S
H1554 C1583 0.950 . S
H1555 C1584 0.950 . S
H1556 C1586 0.950 . S
H1557 C1587 0.950 . S
C1558 H1540 0.951 . S
C1558 C1559 1.366 . S
C1558 C1560 1.388 . S
C1559 C1558 1.366 . S
C1559 C1563 1.385 . S
C1560 H1541 0.951 . S
C1560 C1558 1.388 . S
C1560 C1561 1.366 . S
C1561 C1560 1.366 . S
C1561 C1562 1.414 . S
C1561 C1564 1.499 . S
C1562 H1542 0.950 . S
C1562 C1561 1.414 . S
C1562 C1563 1.374 . S
C1563 H1543 0.950 . S
C1563 C1559 1.385 . S
C1563 C1562 1.374 . S
C1564 C1561 1.499 . S
C1564 C1565 1.373 . S
C1564 C1566 1.389 . S
C1565 H1544 0.950 . S
C1565 C1564 1.373 . S
C1565 C1581 1.377 . S
C1566 C1564 1.389 . S
C1566 C1567 1.524 . S
C1566 C1580 1.377 . S
C1567 C1566 1.524 . S
C1567 C1568 1.397 . S
C1567 C1572 1.363 . S
C1568 H1545 0.950 . S
C1568 C1567 1.397 . S
C1568 C1569 1.334 . S
C1569 H1546 0.950 . S
C1569 C1568 1.334 . S
C1569 C1570 1.287 . S
C1570 C1569 1.287 . S
C1570 C1571 1.524 . S
C1570 H1589 0.913 . S
C1571 H1547 0.950 . S
C1571 C1570 1.524 . S
C1571 C1572 1.415 . S
C1572 H1548 0.950 . S
C1572 C1567 1.363 . S
C1572 C1571 1.415 . S
C1573 H1549 0.951 . S
C1573 C1574 1.366 . S
C1573 C1575 1.388 . S
C1574 C1573 1.366 . S
C1574 C1578 1.385 . S
C1575 H1550 0.951 . S
C1575 C1573 1.388 . S
C1575 C1576 1.366 . S
C1576 C1575 1.366 . S
C1576 C1577 1.414 . S
C1576 C1579 1.499 . S
C1577 H1551 0.950 . S
C1577 C1576 1.414 . S
C1577 C1578 1.374 . S
C1578 H1552 0.950 . S
C1578 C1574 1.385 . S
C1578 C1577 1.374 . S
C1579 C1576 1.499 . S
C1579 C1580 1.373 . S
C1579 C1581 1.389 . S
C1580 H1553 0.950 . S
C1580 C1566 1.377 . S
C1580 C1579 1.373 . S
C1581 C1565 1.377 . S
C1581 C1579 1.389 . S
C1581 C1582 1.524 . S
C1582 C1581 1.524 . S
C1582 C1583 1.397 . S
C1582 C1587 1.363 . S
C1583 H1554 0.950 . S
C1583 C1582 1.397 . S
C1583 C1584 1.334 . S
C1584 H1555 0.950 . S
C1584 C1583 1.334 . S
C1584 C1585 1.287 . S
C1585 C1584 1.287 . S
C1585 C1586 1.524 . S
C1585 H1588 0.999 . S
C1586 H1556 0.950 . S
C1586 C1585 1.524 . S
C1586 C1587 1.415 . S
C1587 H1557 0.950 . S
C1587 C1582 1.363 . S
C1587 C1586 1.415 . S
H1588 C1585 0.999 . S
H1589 C1570 0.913 . S
H1590 C1608 0.951 . S
H1591 C1610 0.951 . S
H1592 C1612 0.950 . S
H1593 C1613 0.950 . S
H1594 C1615 0.950 . S
H1595 C1618 0.950 . S
H1596 C1619 0.950 . S
H1597 C1621 0.950 . S
H1598 C1622 0.950 . S
H1599 C1623 0.951 . S
H1600 C1625 0.951 . S
H1601 C1627 0.950 . S
H1602 C1628 0.950 . S
H1603 C1630 0.950 . S
H1604 C1633 0.950 . S
H1605 C1634 0.950 . S
H1606 C1636 0.950 . S
H1607 C1637 0.950 . S
C1608 H1590 0.951 . S
C1608 C1609 1.366 . S
C1608 C1610 1.388 . S
C1609 C1608 1.366 . S
C1609 C1613 1.385 . S
C1610 H1591 0.951 . S
C1610 C1608 1.388 . S
C1610 C1611 1.366 . S
C1611 C1610 1.366 . S
C1611 C1612 1.414 . S
C1611 C1614 1.499 . S
C1612 H1592 0.950 . S
C1612 C1611 1.414 . S
C1612 C1613 1.374 . S
C1613 H1593 0.950 . S
C1613 C1609 1.385 . S
C1613 C1612 1.374 . S
C1614 C1611 1.499 . S
C1614 C1615 1.373 . S
C1614 C1616 1.389 . S
C1615 H1594 0.950 . S
C1615 C1614 1.373 . S
C1615 C1631 1.377 . S
C1616 C1614 1.389 . S
C1616 C1617 1.524 . S
C1616 C1630 1.377 . S
C1617 C1616 1.524 . S
C1617 C1618 1.397 . S
C1617 C1622 1.363 . S
C1618 H1595 0.950 . S
C1618 C1617 1.397 . S
C1618 C1619 1.334 . S
C1619 H1596 0.950 . S
C1619 C1618 1.334 . S
C1619 C1620 1.287 . S
C1620 C1619 1.287 . S
C1620 C1621 1.524 . S
C1620 H1639 0.913 . S
C1621 H1597 0.950 . S
C1621 C1620 1.524 . S
C1621 C1622 1.415 . S
C1622 H1598 0.950 . S
C1622 C1617 1.363 . S
C1622 C1621 1.415 . S
C1623 H1599 0.951 . S
C1623 C1624 1.366 . S
C1623 C1625 1.388 . S
C1624 C1623 1.366 . S
C1624 C1628 1.385 . S
C1625 H1600 0.951 . S
C1625 C1623 1.388 . S
C1625 C1626 1.366 . S
C1626 C1625 1.366 . S
C1626 C1627 1.414 . S
C1626 C1629 1.499 . S
C1627 H1601 0.950 . S
C1627 C1626 1.414 . S
C1627 C1628 1.374 . S
C1628 H1602 0.950 . S
C1628 C1624 1.385 . S
C1628 C1627 1.374 . S
C1629 C1626 1.499 . S
C1629 C1630 1.373 . S
C1629 C1631 1.389 . S
C1630 H1603 0.950 . S
C1630 C1616 1.377 . S
C1630 C1629 1.373 . S
C1631 C1615 1.377 . S
C1631 C1629 1.389 . S
C1631 C1632 1.524 . S
C1632 C1631 1.524 . S
C1632 C1633 1.397 . S
C1632 C1637 1.363 . S
C1633 H1604 0.950 . S
C1633 C1632 1.397 . S
C1633 C1634 1.334 . S
C1634 H1605 0.950 . S
C1634 C1633 1.334 . S
C1634 C1635 1.287 . S
C1635 C1634 1.287 . S
C1635 C1636 1.524 . S
C1635 H1638 0.999 . S
C1636 H1606 0.950 . S
C1636 C1635 1.524 . S
C1636 C1637 1.415 . S
C1637 H1607 0.950 . S
C1637 C1632 1.363 . S
C1637 C1636 1.415 . S
H1638 C1635 0.999 . S
H1639 C1620 0.913 . S
C459 N80 1.844 . S
C474 C179 1.852 . S
C524 C263 1.876 . S
C509 N93 1.867 . S
C574 C339 1.899 . S
C559 N54 1.977 . S
C624 C423 1.875 . S
C609 N67 1.955 . S
C674 C170 1.852 1_565 S
C659 N28 1.853 . S
C709 N41 1.878 . S
C724 C254 1.878 . S
C759 N2 1.988 . S
C774 C328 1.899 . S
C809 N15 1.966 . S
C824 C412 1.877 . S
C874 C167 0.504 1_455 S
C859 N70 0.410 . S
C924 C251 0.446 1_545 S
C909 N83 0.380 . S
C974 C344 0.482 . S
C959 N96 0.345 . S
C1009 N57 0.377 . S
C1024 C428 0.488 . S
C1059 N18 0.404 . S
C1074 C176 0.501 . S
C1124 C260 0.494 . S
C1109 N31 0.372 . S
C1174 C335 0.483 . S
C1159 N44 0.337 . S
C1209 N5 0.365 . S
C1224 C419 0.491 . S
C1259 N66 2.006 . S
C1274 C160 1.952 . S
C1309 N79 1.974 . S
C1324 C244 1.919 . S
C1374 C338 1.903 . S
C1359 N92 1.869 . S
C1424 C422 1.933 . S
C1409 N53 1.898 . S
C1459 N14 2.023 . S
C1474 C171 1.952 . S
C1524 C255 1.917 . S
C1509 N27 1.989 . S
C1574 C347 1.903 . S
C1559 N40 1.886 . S
C1609 N1 1.915 . S
C1624 C431 1.933 . S
