# Generated by pormake.
# Topology hwx, (6,3)-cn, num edge types: 1
# Building blocks:
#     Node 0, Type 0, BuildingBlock: OJICUG_clean_sbu_0, # of connection points: 6
#     Node 1, Type 0, BuildingBlock: OJICUG_clean_sbu_0, # of connection points: 6
#     Node 2, Type 0, BuildingBlock: OJICUG_clean_sbu_0, # of connection points: 6
#     Node 3, Type 0, BuildingBlock: OJICUG_clean_sbu_0, # of connection points: 6
#     Node 4, Type 1, BuildingBlock: INOVEN_clean_linker_0, # of connection points: 3
#     Node 5, Type 1, BuildingBlock: INOVEN_clean_linker_0, # of connection points: 3
#     Node 6, Type 1, BuildingBlock: INOVEN_clean_linker_0, # of connection points: 3
#     Node 7, Type 1, BuildingBlock: INOVEN_clean_linker_0, # of connection points: 3
#     Node 8, Type 1, BuildingBlock: INOVEN_clean_linker_0, # of connection points: 3
#     Node 9, Type 1, BuildingBlock: INOVEN_clean_linker_0, # of connection points: 3
#     Node 10, Type 1, BuildingBlock: INOVEN_clean_linker_0, # of connection points: 3
#     Node 11, Type 1, BuildingBlock: INOVEN_clean_linker_0, # of connection points: 3
#     Edge 12, Type (0, 1), BuildingBlock: EZIPEK_clean_linker_0, # of connection points: 2
#     Edge 13, Type (0, 1), BuildingBlock: EZIPEK_clean_linker_0, # of connection points: 2
#     Edge 14, Type (0, 1), BuildingBlock: EZIPEK_clean_linker_0, # of connection points: 2
#     Edge 15, Type (0, 1), BuildingBlock: EZIPEK_clean_linker_0, # of connection points: 2
#     Edge 16, Type (0, 1), BuildingBlock: EZIPEK_clean_linker_0, # of connection points: 2
#     Edge 17, Type (0, 1), BuildingBlock: EZIPEK_clean_linker_0, # of connection points: 2
#     Edge 18, Type (0, 1), BuildingBlock: EZIPEK_clean_linker_0, # of connection points: 2
#     Edge 19, Type (0, 1), BuildingBlock: EZIPEK_clean_linker_0, # of connection points: 2
#     Edge 20, Type (0, 1), BuildingBlock: EZIPEK_clean_linker_0, # of connection points: 2
#     Edge 21, Type (0, 1), BuildingBlock: EZIPEK_clean_linker_0, # of connection points: 2
#     Edge 22, Type (0, 1), BuildingBlock: EZIPEK_clean_linker_0, # of connection points: 2
#     Edge 23, Type (0, 1), BuildingBlock: EZIPEK_clean_linker_0, # of connection points: 2
#     Edge 24, Type (0, 1), BuildingBlock: EZIPEK_clean_linker_0, # of connection points: 2
#     Edge 25, Type (0, 1), BuildingBlock: EZIPEK_clean_linker_0, # of connection points: 2
#     Edge 26, Type (0, 1), BuildingBlock: EZIPEK_clean_linker_0, # of connection points: 2
#     Edge 27, Type (0, 1), BuildingBlock: EZIPEK_clean_linker_0, # of connection points: 2
#     Edge 28, Type (0, 1), BuildingBlock: EZIPEK_clean_linker_0, # of connection points: 2
#     Edge 29, Type (0, 1), BuildingBlock: EZIPEK_clean_linker_0, # of connection points: 2
#     Edge 30, Type (0, 1), BuildingBlock: EZIPEK_clean_linker_0, # of connection points: 2
#     Edge 31, Type (0, 1), BuildingBlock: EZIPEK_clean_linker_0, # of connection points: 2
#     Edge 32, Type (0, 1), BuildingBlock: EZIPEK_clean_linker_0, # of connection points: 2
#     Edge 33, Type (0, 1), BuildingBlock: EZIPEK_clean_linker_0, # of connection points: 2
#     Edge 34, Type (0, 1), BuildingBlock: EZIPEK_clean_linker_0, # of connection points: 2
#     Edge 35, Type (0, 1), BuildingBlock: EZIPEK_clean_linker_0, # of connection points: 2
# Relax obj value: 0.009
# Max RMSD: 0.040
# Mean RMSD: 0.039
data_MOF--net-hwx--node1-OJICUG_clean_sbu_0--node2-INOVEN_clean_linker_0--edge1-EZIPEK_clean_linker_0
_symmetry_space_group_name_H-M    P1
_symmetry_Int_Tables_number       1
_symmetry_cell_setting            triclinic
loop_
_symmetry_equiv_pos_as_xyz
'x, y, z'
_cell_length_a     38.738759
_cell_length_b     38.815619
_cell_length_c     15.065355
_cell_angle_alpha  92.612596
_cell_angle_beta   92.461752
_cell_angle_gamma 90.050835
loop_
_atom_site_label
_atom_site_type_symbol
_atom_site_fract_x
_atom_site_fract_y
_atom_site_fract_z
_atom_type_partial_charge
Sc0 Sc 0.23363 0.22887 0.14316 0.0
Sc1 Sc 0.16981 0.17206 0.04809 0.0
Sc2 Sc 0.22017 0.22207 0.911 0.0
O3 O 0.20784 0.20772 0.03402 0.0
C4 C 0.22398 0.29386 0.02299 0.0
C5 C 0.15613 0.22465 0.20886 0.0
C6 C 0.13774 0.21649 0.89275 0.0
C7 C 0.227 0.15045 0.19399 0.0
C8 C 0.29479 0.22091 0.00836 0.0
C9 C 0.20866 0.14074 0.88081 0.0
O10 O 0.22836 0.28054 0.09822 0.0
O11 O 0.14611 0.20169 0.15116 0.0
O12 O 0.16672 0.22728 0.86876 0.0
O13 O 0.24283 0.17913 0.196 0.0
O14 O 0.27531 0.21954 0.9382 0.0
O15 O 0.18918 0.13765 0.94569 0.0
O16 O 0.2833 0.22393 0.08595 0.0
O17 O 0.19975 0.14445 0.14559 0.0
O18 O 0.22177 0.16923 0.86045 0.0
O19 O 0.18679 0.23657 0.2156 0.0
O20 O 0.22011 0.27626 0.9499 0.0
O21 O 0.13466 0.19659 0.95646 0.0
Sc22 Sc 0.2773 0.7303 0.3663 0.0
Sc23 Sc 0.3311 0.66922 0.47075 0.0
Sc24 Sc 0.27563 0.72154 0.59475 0.0
O25 O 0.29493 0.70739 0.47683 0.0
C26 C 0.28353 0.79385 0.50949 0.0
C27 C 0.35617 0.71939 0.32474 0.0
C28 C 0.35683 0.71255 0.64002 0.0
C29 C 0.28076 0.64955 0.30584 0.0
C30 C 0.20779 0.72576 0.46875 0.0
C31 C 0.28116 0.64158 0.6147 0.0
O32 O 0.28017 0.78164 0.42953 0.0
O33 O 0.3596 0.69327 0.37177 0.0
O34 O 0.32626 0.7201 0.66189 0.0
O35 O 0.27153 0.68077 0.29701 0.0
O36 O 0.22304 0.72565 0.54487 0.0
O37 O 0.30898 0.63947 0.57311 0.0
O38 O 0.22378 0.7258 0.39702 0.0
O39 O 0.30134 0.64022 0.36848 0.0
O40 O 0.26345 0.66891 0.61636 0.0
O41 O 0.32878 0.73735 0.32052 0.0
O42 O 0.28439 0.77529 0.57696 0.0
O43 O 0.36371 0.69609 0.56839 0.0
Sc44 Sc 0.78281 0.78048 0.89704 0.0
Sc45 Sc 0.82923 0.83434 0.05191 0.0
Sc46 Sc 0.77499 0.77061 0.12456 0.0
O47 O 0.79555 0.79517 0.0241 0.0
C48 C 0.71048 0.77733 -0.00626 0.0
C49 C 0.78599 0.8611 0.88351 0.0
C50 C 0.77659 0.84974 0.19763 0.0
C51 C 0.86459 0.79479 0.89426 0.0
C52 C 0.78527 0.70809 0.98145 0.0
C53 C 0.85084 0.78003 0.19823 0.0
O54 O 0.72863 0.77446 0.92506 0.0
O55 O 0.80956 0.86487 0.94453 0.0
O56 O 0.77158 0.81775 0.2086 0.0
O57 O 0.83577 0.78492 0.85746 0.0
O58 O 0.7755 0.7202 0.05615 0.0
O59 O 0.85302 0.80957 0.1653 0.0
O60 O 0.7931 0.72707 0.91889 0.0
O61 O 0.86733 0.81052 0.97006 0.0
O62 O 0.8257 0.75963 0.1791 0.0
O63 O 0.77129 0.83243 0.86288 0.0
O64 O 0.72334 0.7796 0.07297 0.0
O65 O 0.79337 0.86067 0.13417 0.0
Sc66 Sc 0.72613 0.27729 0.58327 0.0
Sc67 Sc 0.67028 0.32801 0.45372 0.0
Sc68 Sc 0.72888 0.27211 0.34916 0.0
O69 O 0.70854 0.29238 0.46232 0.0
C70 C 0.79596 0.28087 0.479 0.0
C71 C 0.71508 0.35862 0.61957 0.0
C72 C 0.72237 0.35229 0.31071 0.0
C73 C 0.64542 0.28252 0.61 0.0
C74 C 0.72544 0.20612 0.46742 0.0
C75 C 0.6476 0.2728 0.29934 0.0
O76 O 0.77954 0.28308 0.55043 0.0
O77 O 0.69564 0.36263 0.5509 0.0
O78 O 0.73606 0.32278 0.29791 0.0
O79 O 0.67478 0.26936 0.62766 0.0
O80 O 0.72511 0.21979 0.3921 0.0
O81 O 0.6412 0.29649 0.35691 0.0
O82 O 0.72638 0.22351 0.54104 0.0
O83 O 0.64023 0.30478 0.55178 0.0
O84 O 0.67849 0.26428 0.28316 0.0
O85 O 0.72725 0.32945 0.64036 0.0
O86 O 0.78135 0.27647 0.40217 0.0
O87 O 0.69586 0.35618 0.35645 0.0
H88 H 0.24024 0.4897 0.80823 0.0
H89 H 0.26324 0.58753 0.93688 0.0
H90 H 0.24014 0.50147 0.09267 0.0
N91 N 0.23666 0.45542 0.95435 0.0
N92 N 0.23159 0.44088 0.02472 0.0
C93 C 0.24299 0.50595 0.86856 0.0
C94 C 0.25085 0.54086 0.864 0.0
C95 C 0.23989 0.49172 0.95153 0.0
C96 C 0.24094 0.51341 0.02973 0.0
C97 C 0.2446 0.54955 0.02512 0.0
C98 C 0.25417 0.5614 0.94258 0.0
H99 H 0.0136 0.75062 0.69036 0.0
H100 H 0.91515 0.77302 0.56455 0.0
H101 H 0.99852 0.73762 0.40529 0.0
N102 N 0.04666 0.73778 0.54197 0.0
N103 N 0.06058 0.73419 0.46899 0.0
C104 C 0.99714 0.75182 0.63059 0.0
C105 C 0.96252 0.76182 0.63662 0.0
C106 C 0.01068 0.74407 0.54709 0.0
C107 C 0.98873 0.74463 0.46993 0.0
C108 C 0.95429 0.75546 0.47574 0.0
C109 C 0.94172 0.76459 0.5593 0.0
H110 H 0.76953 0.50037 0.13549 0.0
H111 H 0.74044 0.4108 0.97054 0.0
H112 H 0.76376 0.5055 0.84955 0.0
N113 N 0.77504 0.54332 0.00446 0.0
N114 N 0.78066 0.56086 0.93915 0.0
C115 C 0.76483 0.4881 0.07002 0.0
C116 C 0.75507 0.45314 0.06155 0.0
C117 C 0.76781 0.5074 -0.00597 0.0
C118 C 0.7617 0.49116 0.90914 0.0
C119 C 0.75171 0.45642 0.90113 0.0
C120 C 0.74829 0.43768 0.97714 0.0
H121 H 0.01258 0.26803 0.38334 0.0
H122 H 0.09603 0.25574 0.57627 0.0
H123 H 0.99324 0.27329 0.66328 0.0
N124 N 0.96323 0.27618 0.49721 0.0
N125 N 0.94137 0.28269 0.55393 0.0
C126 C 0.02214 0.26844 0.45208 0.0
C127 C 0.05729 0.26253 0.47202 0.0
C128 C 0.99896 0.27342 0.52049 0.0
C129 C 0.01107 0.27162 0.6098 0.0
C130 C 0.04598 0.26445 0.62938 0.0
C131 C 0.0691 0.26161 0.56082 0.0
H132 H 0.73496 0.00833 0.68501 0.0
H133 H 0.74707 0.90849 0.55567 0.0
H134 H 0.73027 0.99678 0.39849 0.0
N135 N 0.72771 0.04327 0.53922 0.0
N136 N 0.72635 0.05848 0.46793 0.0
C137 C 0.73429 0.99199 0.62469 0.0
C138 C 0.7405 0.95653 0.62959 0.0
C139 C 0.72987 0.00678 0.54159 0.0
C140 C 0.73164 0.98561 0.46314 0.0
C141 C 0.73753 0.95007 0.46862 0.0
C142 C 0.74097 0.93569 0.55171 0.0
H143 H 0.49624 0.2358 0.79084 0.0
H144 H 0.59307 0.24989 0.93829 0.0
H145 H 0.50208 0.22534 0.07514 0.0
N146 N 0.4582 0.22576 0.92949 0.0
N147 N 0.44232 0.2216 -0.00152 0.0
C148 C 0.51123 0.23525 0.85317 0.0
C149 C 0.54676 0.24239 0.85552 0.0
C150 C 0.49476 0.22908 0.93209 0.0
C151 C 0.51438 0.22952 0.01328 0.0
C152 C 0.54978 0.23736 0.01549 0.0
C153 C 0.56579 0.24335 0.93646 0.0
H154 H 0.28001 0.00472 0.38684 0.0
H155 H 0.23614 0.0892 0.53864 0.0
H156 H 0.25695 0.99387 0.66204 0.0
N157 N 0.27694 0.95927 0.51178 0.0
N158 N 0.27436 0.93955 0.57422 0.0
C159 C 0.27057 0.01555 0.44877 0.0
C160 C 0.25795 0.04947 0.45342 0.0
C161 C 0.26927 0.9949 0.52267 0.0
C162 C 0.25775 0.00923 0.60391 0.0
C163 C 0.2468 0.04357 0.60985 0.0
C164 C 0.24591 0.063 0.53415 0.0
H165 H 0.50431 0.76416 0.14396 0.0
H166 H 0.41064 0.74663 0.98525 0.0
H167 H 0.50535 0.76445 0.85754 0.0
N168 N 0.54541 0.77116 0.01041 0.0
N169 N 0.56349 0.77175 0.94397 0.0
C170 C 0.49067 0.76311 0.07956 0.0
C171 C 0.45511 0.75599 0.07341 0.0
C172 C 0.50901 0.76687 0.00216 0.0
C173 C 0.49144 0.76323 0.91818 0.0
C174 C 0.45596 0.75587 0.91264 0.0
C175 C 0.43791 0.75329 -0.00992 0.0
C176 C 0.11164 0.26569 0.26725 0.0
C177 C 0.13132 0.23522 0.27628 0.0
C178 C 0.09727 0.21979 0.40119 0.0
C179 C 0.08139 0.2528 0.40108 0.0
N180 N 0.07765 0.30956 0.34188 0.0
N181 N 0.14642 0.18526 0.35917 0.0
C182 C 0.08971 0.27651 0.33625 0.0
C183 C 0.12527 0.21289 0.34569 0.0
N184 N 0.11265 0.28336 0.19114 0.0
N185 N 0.08462 0.19453 0.45133 0.0
H186 H 0.16709 0.17914 0.31917 0.0
H187 H 0.14532 0.17026 0.41462 0.0
H188 H 0.06294 0.19795 0.48948 0.0
H189 H 0.09324 0.16912 0.44749 0.0
H190 H 0.09651 0.30412 0.17772 0.0
H191 H 0.12693 0.27477 0.13744 0.0
H192 H 0.08579 0.3287 0.30112 0.0
H193 H 0.06195 0.31865 0.39232 0.0
C194 C 0.24377 0.61668 0.7315 0.0
C195 C 0.26941 0.61186 0.6665 0.0
C196 C 0.27933 0.5537 0.72007 0.0
C197 C 0.25206 0.5586 0.77883 0.0
N198 N 0.19873 0.58812 0.8061 0.0
N199 N 0.29959 0.56833 0.5774 0.0
C200 C 0.23039 0.58744 0.76989 0.0
C201 C 0.28357 0.57802 0.65346 0.0
N202 N 0.23506 0.6485 0.76616 0.0
N203 N 0.30185 0.52698 0.72909 0.0
H204 H 0.29944 0.58335 0.52189 0.0
H205 H 0.30838 0.54326 0.56493 0.0
H206 H 0.29948 0.50864 0.77688 0.0
H207 H 0.32408 0.52467 0.69263 0.0
H208 H 0.21735 0.65167 0.81615 0.0
H209 H 0.24951 0.67071 0.75895 0.0
H210 H 0.18159 0.60857 0.79779 0.0
H211 H 0.18885 0.56674 0.83633 0.0
C212 C 0.91342 0.77901 0.25105 0.0
C213 C 0.87851 0.7696 0.26322 0.0
C214 C 0.89772 0.74046 0.39693 0.0
C215 C 0.93035 0.75699 0.39591 0.0
N216 N 0.96683 0.79776 0.32628 0.0
N217 N 0.83701 0.74749 0.36323 0.0
C218 C 0.93778 0.77772 0.32384 0.0
C219 C 0.87041 0.75164 0.33994 0.0
N220 N 0.92367 0.78822 0.16982 0.0
N221 N 0.89269 0.71434 0.45275 0.0
H222 H 0.81593 0.75847 0.33 0.0
H223 H 0.83067 0.73693 0.42286 0.0
H224 H 0.9126 0.70472 0.49341 0.0
H225 H 0.86993 0.6999 0.45082 0.0
H226 H 0.94946 0.79281 0.15693 0.0
H227 H 0.90724 0.78691 0.11309 0.0
H228 H 0.97132 0.81555 0.27824 0.0
H229 H 0.98454 0.79936 0.38031 0.0
C230 C 0.76058 0.39468 0.70204 0.0
C231 C 0.72509 0.38934 0.67753 0.0
C232 C 0.70995 0.43817 0.7776 0.0
C233 C 0.74428 0.43864 0.81359 0.0
N234 N 0.80286 0.41807 0.81186 0.0
N235 N 0.66525 0.4061 0.69304 0.0
C236 C 0.76991 0.41741 0.7755 0.0
C237 C 0.69956 0.41159 0.71404 0.0
N238 N 0.78532 0.3786 0.6534 0.0
N239 N 0.68726 0.46298 0.80513 0.0
H240 H 0.65601 0.38788 0.64519 0.0
H241 H 0.6455 0.41825 0.72709 0.0
H242 H 0.69402 0.48234 0.85305 0.0
H243 H 0.66288 0.46637 0.77497 0.0
H244 H 0.81165 0.38372 0.66266 0.0
H245 H 0.77914 0.36264 0.59753 0.0
H246 H 0.82165 0.40009 0.79473 0.0
H247 H 0.81096 0.43574 0.86284 0.0
C248 C 0.58516 0.2727 0.24065 0.0
C249 C 0.618 0.25638 0.24426 0.0
C250 C 0.59796 0.21796 0.11779 0.0
C251 C 0.57053 0.24122 0.10044 0.0
N252 N 0.53948 0.29303 0.14313 0.0
N253 N 0.65077 0.20556 0.20241 0.0
C254 C 0.56429 0.26909 0.16152 0.0
C255 C 0.62295 0.22642 0.18772 0.0
N256 N 0.57254 0.28937 0.3141 0.0
N257 N 0.59939 0.1875 0.06873 0.0
H258 H 0.66528 0.20647 0.26225 0.0
H259 H 0.65902 0.18678 0.15664 0.0
H260 H 0.58092 0.1805 0.01868 0.0
H261 H 0.617 0.16794 0.08152 0.0
H262 H 0.54779 0.2999 0.31461 0.0
H263 H 0.58392 0.28724 0.37755 0.0
H264 H 0.53668 0.31559 0.18247 0.0
H265 H 0.52388 0.29205 0.08495 0.0
C266 C 0.24924 0.09466 0.83096 0.0
C267 C 0.21606 0.10977 0.82437 0.0
C268 C 0.20019 0.06996 0.69878 0.0
C269 C 0.23531 0.06021 0.69402 0.0
N270 N 0.29415 0.06395 0.75358 0.0
N271 N 0.15958 0.11279 0.7515 0.0
C272 C 0.26006 0.07219 0.76055 0.0
C273 C 0.19114 0.09728 0.75907 0.0
N274 N 0.27018 0.1016 0.90487 0.0
N275 N 0.17573 0.05322 0.64473 0.0
H276 H 0.15215 0.13278 0.79496 0.0
H277 H 0.14175 0.1075 0.69895 0.0
H278 H 0.18192 0.03294 0.60034 0.0
H279 H 0.14929 0.0571 0.64987 0.0
H280 H 0.29346 0.08892 0.91733 0.0
H281 H 0.26259 0.11774 0.95781 0.0
H282 H 0.31382 0.07541 0.79407 0.0
H283 H 0.3031 0.04722 0.70365 0.0
C284 C 0.39598 0.7032 0.20331 0.0
C285 C 0.38497 0.72792 0.26836 0.0
C286 C 0.42441 0.77082 0.21421 0.0
C287 C 0.43596 0.74575 0.15101 0.0
N288 N 0.4407 0.68589 0.10336 0.0
N289 N 0.39598 0.78122 0.35309 0.0
C290 C 0.42444 0.71112 0.15201 0.0
C291 C 0.40141 0.7606 0.2792 0.0
N292 N 0.37809 0.67304 0.1866 0.0
N293 N 0.43427 0.80447 0.21011 0.0
H294 H 0.38077 0.77337 0.40399 0.0
H295 H 0.4094 0.80415 0.3683 0.0
H296 H 0.45166 0.81268 0.16445 0.0
H297 H 0.42353 0.82447 0.24823 0.0
H298 H 0.38279 0.65599 0.13308 0.0
H299 H 0.3564 0.6664 0.22078 0.0
H300 H 0.43541 0.65971 0.1077 0.0
H301 H 0.46198 0.69093 0.06569 0.0
C302 C 0.74052 0.90242 0.83229 0.0
C303 C 0.77543 0.89129 0.83239 0.0
C304 C 0.78829 0.9349 0.72635 0.0
C305 C 0.75243 0.94096 0.71334 0.0
N306 N 0.69384 0.93121 0.75271 0.0
N307 N 0.83233 0.89482 0.77364 0.0
C308 C 0.72834 0.9253 0.76697 0.0
C309 C 0.79952 0.90742 0.77919 0.0
N310 N 0.71932 0.89145 0.89549 0.0
N311 N 0.81146 0.95498 0.68615 0.0
H312 H 0.84123 0.87384 0.80862 0.0
H313 H 0.84979 0.9031 0.72842 0.0
H314 H 0.80379 0.97517 0.64642 0.0
H315 H 0.83804 0.95387 0.6992 0.0
H316 H 0.69439 0.90073 0.90363 0.0
H317 H 0.72799 0.87541 0.94543 0.0
H318 H 0.67464 0.91741 0.78205 0.0
H319 H 0.68443 0.94902 0.70787 0.0
C320 C 0.91748 0.81239 0.8154 0.0
C321 C 0.8964 0.78601 0.84711 0.0
C322 C 0.927 0.74215 0.75921 0.0
C323 C 0.9464 0.76869 0.723 0.0
N324 N 0.9674 0.82702 0.73183 0.0
N325 N 0.8881 0.7258 0.87229 0.0
C326 C 0.94418 0.80318 0.75691 0.0
C327 C 0.90353 0.7508 0.82648 0.0
N328 N 0.91068 0.84624 0.83675 0.0
N329 N 0.9298 0.70898 0.72583 0.0
H330 H 0.8713 0.73156 0.92322 0.0
H331 H 0.89433 0.69975 0.86599 0.0
H332 H 0.94798 0.70159 0.67954 0.0
H333 H 0.91324 0.68913 0.74085 0.0
H334 H 0.92205 0.8668 0.80684 0.0
H335 H 0.89232 0.85404 0.88192 0.0
H336 H 0.96932 0.85204 0.75951 0.0
H337 H 0.98693 0.82073 0.68837 0.0
C338 C 0.76845 0.3812 0.22318 0.0
C339 C 0.73657 0.38313 0.26657 0.0
C340 C 0.72252 0.43687 0.19408 0.0
C341 C 0.75135 0.43197 0.1402 0.0
N342 N 0.80349 0.40118 0.1058 0.0
N343 N 0.69863 0.42536 0.33459 0.0
C344 C 0.7751 0.40483 0.15626 0.0
C345 C 0.71791 0.41468 0.26472 0.0
N346 N 0.79367 0.35933 0.25248 0.0
N347 N 0.69851 0.4616 0.17559 0.0
H348 H 0.69997 0.41351 0.39531 0.0
H349 H 0.68644 0.44927 0.33835 0.0
H350 H 0.7007 0.47858 0.12447 0.0
H351 H 0.67497 0.46328 0.20655 0.0
H352 H 0.81839 0.35821 0.22816 0.0
H353 H 0.7916 0.34577 0.31015 0.0
H354 H 0.81919 0.37944 0.10503 0.0
H355 H 0.81057 0.41947 0.06123 0.0
C356 C 0.1018 0.26541 0.84019 0.0
C357 C 0.10625 0.22926 0.84568 0.0
C358 C 0.05767 0.21925 0.73814 0.0
C359 C 0.05875 0.2546 0.71868 0.0
N360 N 0.07918 0.31226 0.75356 0.0
N361 N 0.0871 0.17118 0.8045 0.0
C362 C 0.07956 0.27811 0.77181 0.0
C363 C 0.08318 0.20597 0.79783 0.0
N364 N 0.11874 0.28735 0.90093 0.0
N365 N 0.03272 0.19831 0.69768 0.0
H366 H 0.10409 0.16025 0.85047 0.0
H367 H 0.07461 0.15289 0.7618 0.0
H368 H 0.01415 0.20716 0.65214 0.0
H369 H 0.02835 0.17307 0.71494 0.0
H370 H 0.1147 0.31387 0.90507 0.0
H371 H 0.13454 0.2785 0.95292 0.0
H372 H 0.09671 0.3303 0.7822 0.0
H373 H 0.06177 0.32226 0.70662 0.0
C374 C 0.26221 0.633 0.14846 0.0
C375 C 0.2668 0.62344 0.23803 0.0
C376 C 0.24039 0.56686 0.19384 0.0
C377 C 0.24195 0.57556 0.10359 0.0
N378 N 0.22399 0.62438 0.02005 0.0
N379 N 0.254 0.58262 0.34945 0.0
C380 C 0.24321 0.61111 0.08819 0.0
C381 C 0.25415 0.59062 0.26213 0.0
N382 N 0.27747 0.66171 0.11829 0.0
N383 N 0.21986 0.54009 0.21461 0.0
H384 H 0.258 0.60086 0.40173 0.0
H385 H 0.2501 0.55773 0.37011 0.0
H386 H 0.20236 0.52871 0.16745 0.0
H387 H 0.21578 0.53303 0.27912 0.0
H388 H 0.27554 0.66767 0.05137 0.0
H389 H 0.29536 0.67679 0.15633 0.0
H390 H 0.22262 0.65081 0.01038 0.0
H391 H 0.20668 0.60898 0.98078 0.0
C392 C 0.4059 0.69899 0.74583 0.0
C393 C 0.38595 0.72386 0.70057 0.0
C394 C 0.41782 0.77076 0.78179 0.0
C395 C 0.43751 0.74587 0.82743 0.0
N396 N 0.45666 0.68719 0.83928 0.0
N397 N 0.37802 0.78261 0.65814 0.0
C398 C 0.43375 0.71022 0.80426 0.0
C399 C 0.39353 0.75959 0.7131 0.0
N400 N 0.39694 0.66486 0.73702 0.0
N401 N 0.42144 0.80491 0.80674 0.0
H402 H 0.36029 0.77518 0.6067 0.0
H403 H 0.38478 0.80858 0.6584 0.0
H404 H 0.44024 0.8139 0.85392 0.0
H405 H 0.40496 0.82406 0.78393 0.0
H406 H 0.40794 0.64596 0.77603 0.0
H407 H 0.37652 0.65558 0.69521 0.0
H408 H 0.45739 0.66123 0.81885 0.0
H409 H 0.47712 0.69468 0.88326 0.0
C410 C 0.79213 0.8956 0.3143 0.0
C411 C 0.76604 0.87564 0.26652 0.0
C412 C 0.72082 0.90943 0.33977 0.0
C413 C 0.74689 0.92819 0.39009 0.0
N414 N 0.80688 0.94029 0.42787 0.0
N415 N 0.706 0.86141 0.23562 0.0
C416 C 0.78246 0.92187 0.37711 0.0
C417 C 0.73044 0.88198 0.27971 0.0
N418 N 0.82624 0.889 0.30016 0.0
N419 N 0.68697 0.91828 0.34934 0.0
H420 H 0.71214 0.84165 0.18998 0.0
H421 H 0.67971 0.86248 0.24665 0.0
H422 H 0.67943 0.93821 0.3931 0.0
H423 H 0.66638 0.9077 0.3108 0.0
H424 H 0.8466 0.90486 0.32342 0.0
H425 H 0.83462 0.86749 0.26323 0.0
H426 H 0.83312 0.93473 0.43075 0.0
H427 H 0.80082 0.96125 0.47011 0.0
C428 C 0.60033 0.2977 0.71904 0.0
C429 C 0.61605 0.27255 0.66273 0.0
C430 C 0.58041 0.22728 0.72083 0.0
C431 C 0.56456 0.25264 0.776 0.0
N432 N 0.55215 0.31234 0.81075 0.0
N433 N 0.61583 0.21519 0.59408 0.0
C434 C 0.57194 0.28805 0.76863 0.0
C435 C 0.60438 0.23782 0.65846 0.0
N436 N 0.61414 0.33009 0.73041 0.0
N437 N 0.57365 0.19316 0.73089 0.0
H438 H 0.63323 0.22227 0.54713 0.0
H439 H 0.60593 0.19037 0.58234 0.0
H440 H 0.55518 0.1848 0.77358 0.0
H441 H 0.58744 0.17322 0.70046 0.0
H442 H 0.606 0.3484 0.77764 0.0
H443 H 0.63613 0.33758 0.69887 0.0
H444 H 0.55427 0.33867 0.80138 0.0
H445 H 0.53126 0.30584 0.84824 0.0
C446 C 0.23522 0.08778 0.22881 0.0
C447 C 0.23999 0.12332 0.25388 0.0
C448 C 0.2704 0.10599 0.38981 0.0
C449 C 0.25709 0.07212 0.3761 0.0
N450 N 0.22126 0.03229 0.28363 0.0
N451 N 0.25502 0.16527 0.37486 0.0
C452 C 0.23822 0.06311 0.29542 0.0
C453 C 0.2561 0.1324 0.33851 0.0
N454 N 0.22864 0.07735 0.14196 0.0
N455 N 0.29555 0.1132 0.45422 0.0
H456 H 0.24028 0.18487 0.34758 0.0
H457 H 0.26465 0.17166 0.43923 0.0
H458 H 0.30695 0.094 0.49193 0.0
H459 H 0.30736 0.13737 0.46263 0.0
H460 H 0.22733 0.05139 0.1209 0.0
H461 H 0.22908 0.09425 0.09017 0.0
H462 H 0.20472 0.02649 0.22852 0.0
H463 H 0.22083 0.01407 0.33214 0.0
C464 C 0.25415 0.34791 0.98447 0.0
C465 C 0.2252 0.33191 0.0205 0.0
C466 C 0.20052 0.3887 0.05796 0.0
C467 C 0.23009 0.40437 0.02569 0.0
N468 N 0.28861 0.3999 0.97967 0.0
N469 N 0.17202 0.33624 0.09761 0.0
C470 C 0.25787 0.38427 -0.00569 0.0
C471 C 0.19874 0.35213 0.05942 0.0
N472 N 0.27816 0.32845 0.9411 0.0
N473 N 0.17375 0.40908 0.08438 0.0
H474 H 0.16895 0.30958 0.09447 0.0
H475 H 0.15376 0.3491 0.13538 0.0
H476 H 0.17502 0.43597 0.0854 0.0
H477 H 0.14978 0.3997 0.10066 0.0
H478 H 0.2975 0.33899 0.90473 0.0
H479 H 0.27753 0.3016 0.9359 0.0
H480 H 0.31109 0.38647 0.96531 0.0
H481 H 0.29267 0.42632 -0.00869 0.0
C482 C 0.1521 0.75491 0.42649 0.0
C483 C 0.16954 0.72649 0.464 0.0
C484 C 0.11406 0.70193 0.50345 0.0
C485 C 0.09688 0.72999 0.46406 0.0
N486 N 0.09771 0.77866 0.37186 0.0
N487 N 0.1675 0.6699 0.52359 0.0
C488 C 0.11545 0.75488 0.41987 0.0
C489 C 0.15062 0.69913 0.49884 0.0
N490 N 0.17045 0.78282 0.40206 0.0
N491 N 0.09525 0.67778 0.54365 0.0
H492 H 0.19409 0.66661 0.51872 0.0
H493 H 0.15512 0.64776 0.54242 0.0
H494 H 0.06831 0.67722 0.53953 0.0
H495 H 0.1061 0.65896 0.58312 0.0
H496 H 0.15901 0.80582 0.38353 0.0
H497 H 0.19733 0.7843 0.40744 0.0
H498 H 0.10945 0.79548 0.33041 0.0
H499 H 0.07075 0.7796 0.36796 0.0
C500 C 0.8084 0.65023 0.02377 0.0
C501 C 0.78702 0.67002 0.96634 0.0
C502 C 0.76879 0.61715 0.88168 0.0
C503 C 0.78577 0.59728 0.94639 0.0
N504 N 0.82569 0.59368 0.07264 0.0
N505 N 0.74472 0.6723 0.84378 0.0
C506 C 0.80664 0.61346 0.01614 0.0
C507 C 0.76699 0.65353 0.89529 0.0
N508 N 0.83169 0.6667 0.08204 0.0
N509 N 0.75423 0.60087 0.80685 0.0
H510 H 0.74246 0.699 0.85047 0.0
H511 H 0.7264 0.66123 0.79855 0.0
H512 H 0.75461 0.5741 0.7963 0.0
H513 H 0.74455 0.6138 0.75212 0.0
H514 H 0.85002 0.65417 0.12129 0.0
H515 H 0.83466 0.69344 0.08648 0.0
H516 H 0.83768 0.60312 0.13194 0.0
H517 H 0.82959 0.56738 0.05996 0.0
C518 C 0.85131 0.31381 0.50703 0.0
C519 C 0.83418 0.28198 0.48652 0.0
C520 C 0.8889 0.2509 0.50412 0.0
C521 C 0.90563 0.28254 0.52901 0.0
N522 N 0.90383 0.34341 0.5625 0.0
N523 N 0.83735 0.22157 0.44263 0.0
C524 C 0.88709 0.31386 0.53257 0.0
C525 C 0.85321 0.25086 0.47802 0.0
N526 N 0.83369 0.34392 0.49654 0.0
N527 N 0.90681 0.22075 0.5113 0.0
H528 H 0.81137 0.22073 0.42168 0.0
H529 H 0.85037 0.19884 0.42667 0.0
H530 H 0.93279 0.22003 0.53239 0.0
H531 H 0.89553 0.1964 0.50362 0.0
H532 H 0.845 0.36827 0.50339 0.0
H533 H 0.80801 0.34437 0.47272 0.0
H534 H 0.89147 0.36677 0.57553 0.0
H535 H 0.93026 0.34393 0.57938 0.0
C536 C 0.75491 0.15078 0.50679 0.0
C537 C 0.72554 0.16792 0.4699 0.0
C538 C 0.69844 0.11215 0.42658 0.0
C539 C 0.72664 0.09514 0.46776 0.0
N540 N 0.78241 0.0967 0.54426 0.0
N541 N 0.66681 0.16554 0.41017 0.0
C542 C 0.75504 0.11408 0.5076 0.0
C543 C 0.69664 0.14876 0.43347 0.0
N544 N 0.78315 0.16961 0.53789 0.0
N545 N 0.67346 0.09299 0.38044 0.0
H546 H 0.66423 0.19226 0.41731 0.0
H547 H 0.64372 0.15302 0.39114 0.0
H548 H 0.67392 0.06607 0.37665 0.0
H549 H 0.65387 0.10359 0.34091 0.0
H550 H 0.8068 0.15906 0.55713 0.0
H551 H 0.78366 0.19646 0.54139 0.0
H552 H 0.80217 0.10824 0.58402 0.0
H553 H 0.78524 0.07005 0.53599 0.0
C554 C 0.34989 0.19343 0.95586 0.0
C555 C 0.33286 0.22129 0.00032 0.0
C556 C 0.38884 0.24716 0.04706 0.0
C557 C 0.40566 0.22091 -0.00233 0.0
N558 N 0.40359 0.1697 0.90167 0.0
N559 N 0.33586 0.27825 0.07237 0.0
C560 C 0.38655 0.19436 0.95023 0.0
C561 C 0.35228 0.24914 0.04175 0.0
N562 N 0.33127 0.1653 0.9236 0.0
N563 N 0.40813 0.27012 0.09983 0.0
H564 H 0.30912 0.28125 0.06805 0.0
H565 H 0.3488 0.30077 0.09439 0.0
H566 H 0.4351 0.26982 0.10288 0.0
H567 H 0.39753 0.28763 0.14544 0.0
H568 H 0.34226 0.14264 0.89849 0.0
H569 H 0.30456 0.16356 0.92745 0.0
H570 H 0.39133 0.15193 0.85708 0.0
H571 H 0.43045 0.16789 0.90335 0.0
C572 C 0.25356 0.84602 0.57063 0.0
C573 C 0.28224 0.83168 0.52634 0.0
C574 C 0.30807 0.88931 0.52 0.0
C575 C 0.27894 0.90337 0.56234 0.0
N576 N 0.22851 0.89597 0.64609 0.0
N577 N 0.33594 0.83876 0.4542 0.0
C578 C 0.25321 0.88183 0.59353 0.0
C579 C 0.30931 0.85311 0.49952 0.0
N580 N 0.22562 0.82577 0.58549 0.0
N581 N 0.33546 0.91031 0.50598 0.0
H582 H 0.33825 0.81226 0.44223 0.0
H583 H 0.35491 0.8528 0.42495 0.0
H584 H 0.33616 0.93624 0.52741 0.0
H585 H 0.35866 0.90187 0.48058 0.0
H586 H 0.20238 0.83535 0.60838 0.0
H587 H 0.22426 0.79954 0.56758 0.0
H588 H 0.211 0.88151 0.67953 0.0
H589 H 0.22737 0.92237 0.66225 0.0
C590 C 0.65264 0.80638 0.00165 0.0
C591 C 0.67239 0.77649 0.98068 0.0
C592 C 0.61996 0.74594 0.92495 0.0
C593 C 0.60001 0.77439 0.95367 0.0
N594 N 0.59579 0.83157 0.02028 0.0
N595 N 0.6746 0.71595 0.93752 0.0
C596 C 0.61592 0.8046 -0.00722 0.0
C597 C 0.65602 0.74576 0.94584 0.0
N598 N 0.6691 0.83669 0.02641 0.0
N599 N 0.60413 0.71902 0.87783 0.0
H600 H 0.70073 0.71452 0.95652 0.0
H601 H 0.66357 0.69198 0.92015 0.0
H602 H 0.57751 0.71831 0.86372 0.0
H603 H 0.61753 0.69889 0.84695 0.0
H604 H 0.6566 0.86026 0.0346 0.0
H605 H 0.69591 0.83879 0.0332 0.0
H606 H 0.60513 0.85285 0.05849 0.0
H607 H 0.56912 0.83201 0.00742 0.0
loop_
_geom_bond_atom_site_label_1
_geom_bond_atom_site_label_2
_geom_bond_distance
_geom_bond_site_symmetry_2
_ccdc_geom_bond_type
Sc0 O3 2.025 . S
Sc0 O10 2.105 . S
Sc0 O13 2.105 . S
Sc0 O16 2.105 . S
Sc0 O19 2.105 . S
Sc1 O3 2.025 . S
Sc1 O11 2.114 . S
Sc1 O15 2.096 1_554 S
Sc1 O17 2.114 . S
Sc1 O21 2.096 1_554 S
Sc2 O3 2.025 1_556 S
Sc2 O12 2.105 . S
Sc2 O14 2.105 . S
Sc2 O18 2.105 . S
Sc2 O20 2.105 . S
O3 Sc0 2.025 . S
O3 Sc1 2.025 . S
O3 Sc2 2.025 1_554 S
C4 O10 1.268 . S
C4 O20 1.268 1_554 S
C5 O11 1.268 . S
C5 O19 1.268 . S
C6 O12 1.268 . S
C6 O21 1.268 . S
C7 O13 1.268 . S
C7 O17 1.268 . S
C8 O14 1.268 1_554 S
C8 O16 1.268 . S
C9 O15 1.268 . S
C9 O18 1.268 . S
O10 Sc0 2.105 . S
O10 C4 1.268 . S
O11 Sc1 2.114 . S
O11 C5 1.268 . S
O12 Sc2 2.105 . S
O12 C6 1.268 . S
O13 Sc0 2.105 . S
O13 C7 1.268 . S
O14 Sc2 2.105 . S
O14 C8 1.268 1_556 S
O15 Sc1 2.096 1_556 S
O15 C9 1.268 . S
O16 Sc0 2.105 . S
O16 C8 1.268 . S
O17 Sc1 2.114 . S
O17 C7 1.268 . S
O18 Sc2 2.105 . S
O18 C9 1.268 . S
O19 Sc0 2.105 . S
O19 C5 1.268 . S
O20 Sc2 2.105 . S
O20 C4 1.268 1_556 S
O21 Sc1 2.096 1_556 S
O21 C6 1.268 . S
Sc22 O25 2.025 . S
Sc22 O32 2.105 . S
Sc22 O35 2.105 . S
Sc22 O38 2.105 . S
Sc22 O41 2.105 . S
Sc23 O25 2.025 . S
Sc23 O33 2.105 . S
Sc23 O37 2.105 . S
Sc23 O39 2.105 . S
Sc23 O43 2.105 . S
Sc24 O25 2.025 . S
Sc24 O34 2.105 . S
Sc24 O36 2.105 . S
Sc24 O40 2.105 . S
Sc24 O42 2.105 . S
O25 Sc22 2.025 . S
O25 Sc23 2.025 . S
O25 Sc24 2.025 . S
C26 O32 1.268 . S
C26 O42 1.268 . S
C27 O33 1.268 . S
C27 O41 1.268 . S
C28 O34 1.268 . S
C28 O43 1.268 . S
C29 O35 1.268 . S
C29 O39 1.268 . S
C30 O36 1.268 . S
C30 O38 1.268 . S
C31 O37 1.268 . S
C31 O40 1.268 . S
O32 Sc22 2.105 . S
O32 C26 1.268 . S
O33 Sc23 2.105 . S
O33 C27 1.268 . S
O34 Sc24 2.105 . S
O34 C28 1.268 . S
O35 Sc22 2.105 . S
O35 C29 1.268 . S
O36 Sc24 2.105 . S
O36 C30 1.268 . S
O37 Sc23 2.105 . S
O37 C31 1.268 . S
O38 Sc22 2.105 . S
O38 C30 1.268 . S
O39 Sc23 2.105 . S
O39 C29 1.268 . S
O40 Sc24 2.105 . S
O40 C31 1.268 . S
O41 Sc22 2.105 . S
O41 C27 1.268 . S
O42 Sc24 2.105 . S
O42 C26 1.268 . S
O43 Sc23 2.105 . S
O43 C28 1.268 . S
Sc44 O47 2.025 1_556 S
Sc44 O54 2.105 . S
Sc44 O57 2.105 . S
Sc44 O60 2.105 . S
Sc44 O63 2.105 . S
Sc45 O47 2.025 . S
Sc45 O55 2.105 1_554 S
Sc45 O59 2.105 . S
Sc45 O61 2.105 1_554 S
Sc45 O65 2.105 . S
Sc46 O47 2.025 . S
Sc46 O56 2.105 . S
Sc46 O58 2.105 . S
Sc46 O62 2.105 . S
Sc46 O64 2.105 . S
O47 Sc44 2.025 1_554 S
O47 Sc45 2.025 . S
O47 Sc46 2.025 . S
C48 O54 1.268 1_554 S
C48 O64 1.268 . S
C49 O55 1.268 . S
C49 O63 1.268 . S
C50 O56 1.268 . S
C50 O65 1.268 . S
C51 O57 1.268 . S
C51 O61 1.268 . S
C52 O58 1.268 . S
C52 O60 1.268 1_554 S
C53 O59 1.268 . S
C53 O62 1.268 . S
O54 Sc44 2.105 . S
O54 C48 1.268 1_556 S
O55 Sc45 2.105 1_556 S
O55 C49 1.268 . S
O56 Sc46 2.105 . S
O56 C50 1.268 . S
O57 Sc44 2.105 . S
O57 C51 1.268 . S
O58 Sc46 2.105 . S
O58 C52 1.268 . S
O59 Sc45 2.105 . S
O59 C53 1.268 . S
O60 Sc44 2.105 . S
O60 C52 1.268 1_556 S
O61 Sc45 2.105 1_556 S
O61 C51 1.268 . S
O62 Sc46 2.105 . S
O62 C53 1.268 . S
O63 Sc44 2.105 . S
O63 C49 1.268 . S
O64 Sc46 2.105 . S
O64 C48 1.268 . S
O65 Sc45 2.105 . S
O65 C50 1.268 . S
Sc66 O69 2.025 . S
Sc66 O76 2.105 . S
Sc66 O79 2.105 . S
Sc66 O82 2.105 . S
Sc66 O85 2.105 . S
Sc67 O69 2.025 . S
Sc67 O77 2.105 . S
Sc67 O81 2.105 . S
Sc67 O83 2.105 . S
Sc67 O87 2.105 . S
Sc68 O69 2.025 . S
Sc68 O78 2.105 . S
Sc68 O80 2.105 . S
Sc68 O84 2.105 . S
Sc68 O86 2.105 . S
O69 Sc66 2.025 . S
O69 Sc67 2.025 . S
O69 Sc68 2.025 . S
C70 O76 1.268 . S
C70 O86 1.268 . S
C71 O77 1.268 . S
C71 O85 1.268 . S
C72 O78 1.268 . S
C72 O87 1.268 . S
C73 O79 1.268 . S
C73 O83 1.268 . S
C74 O80 1.268 . S
C74 O82 1.268 . S
C75 O81 1.268 . S
C75 O84 1.268 . S
O76 Sc66 2.105 . S
O76 C70 1.268 . S
O77 Sc67 2.105 . S
O77 C71 1.268 . S
O78 Sc68 2.105 . S
O78 C72 1.268 . S
O79 Sc66 2.105 . S
O79 C73 1.268 . S
O80 Sc68 2.105 . S
O80 C74 1.268 . S
O81 Sc67 2.105 . S
O81 C75 1.268 . S
O82 Sc66 2.105 . S
O82 C74 1.268 . S
O83 Sc67 2.105 . S
O83 C73 1.268 . S
O84 Sc68 2.105 . S
O84 C75 1.268 . S
O85 Sc66 2.105 . S
O85 C71 1.268 . S
O86 Sc68 2.105 . S
O86 C70 1.268 . S
O87 Sc67 2.105 . S
O87 C72 1.268 . S
H88 C93 0.929 . S
H89 C98 0.931 . S
H90 C96 0.930 . S
N91 N92 1.234 1_556 S
N91 C95 1.453 . S
N92 N91 1.234 1_554 S
C93 H88 0.929 . S
C93 C94 1.373 . S
C93 C95 1.368 . S
C94 C93 1.373 . S
C94 C98 1.397 1_556 S
C95 N91 1.453 . S
C95 C93 1.368 . S
C95 C96 1.373 1_556 S
C96 H90 0.930 . S
C96 C95 1.373 1_554 S
C96 C97 1.371 . S
C97 C96 1.371 . S
C97 C98 1.383 . S
C98 H89 0.931 . S
C98 C94 1.397 1_554 S
C98 C97 1.383 . S
H99 C104 0.929 . S
H100 C109 0.931 . S
H101 C107 0.932 . S
N102 N103 1.234 . S
N102 C106 1.487 . S
N103 N102 1.234 . S
C104 H99 0.929 . S
C104 C105 1.373 . S
C104 C106 1.348 1_655 S
C105 C104 1.373 . S
C105 C109 1.397 . S
C106 N102 1.487 . S
C106 C104 1.348 1_455 S
C106 C107 1.360 1_455 S
C107 H101 0.932 . S
C107 C106 1.360 1_655 S
C107 C108 1.371 . S
C108 C107 1.371 . S
C108 C109 1.383 . S
C109 H100 0.931 . S
C109 C105 1.397 . S
C109 C108 1.383 . S
H110 C115 0.929 . S
H111 C120 0.931 . S
H112 C118 0.930 . S
N113 N114 1.234 . S
N113 C117 1.453 . S
N114 N113 1.234 . S
C115 H110 0.929 . S
C115 C116 1.373 . S
C115 C117 1.368 . S
C116 C115 1.373 . S
C116 C120 1.397 . S
C117 N113 1.453 . S
C117 C115 1.368 . S
C117 C118 1.373 1_554 S
C118 H112 0.930 . S
C118 C117 1.373 1_556 S
C118 C119 1.371 . S
C119 C118 1.371 . S
C119 C120 1.383 1_556 S
C120 H111 0.931 . S
C120 C116 1.397 . S
C120 C119 1.383 1_554 S
H121 C126 0.929 . S
H122 C131 0.931 . S
H123 C129 0.930 . S
N124 N125 1.234 . S
N124 C128 1.453 1_655 S
N125 N124 1.234 . S
C126 H121 0.929 . S
C126 C127 1.373 . S
C126 C128 1.368 . S
C127 C126 1.373 . S
C127 C131 1.397 . S
C128 N124 1.453 1_455 S
C128 C126 1.368 . S
C128 C129 1.373 . S
C129 H123 0.930 . S
C129 C128 1.373 . S
C129 C130 1.371 . S
C130 C129 1.371 . S
C130 C131 1.383 . S
C131 H122 0.931 . S
C131 C127 1.397 . S
C131 C130 1.383 . S
H132 C137 0.929 . S
H133 C142 0.931 . S
H134 C140 0.930 . S
N135 N136 1.234 . S
N135 C139 1.421 1_545 S
N136 N135 1.234 . S
C137 H132 0.929 . S
C137 C138 1.373 . S
C137 C139 1.388 . S
C138 C137 1.373 . S
C138 C142 1.397 . S
C139 N135 1.421 1_565 S
C139 C137 1.388 . S
C139 C140 1.386 . S
C140 H134 0.930 . S
C140 C139 1.386 . S
C140 C141 1.371 . S
C141 C140 1.371 . S
C141 C142 1.383 . S
C142 H133 0.931 . S
C142 C138 1.397 . S
C142 C141 1.383 . S
H143 C148 0.929 . S
H144 C153 0.931 . S
H145 C151 0.930 . S
N146 N147 1.234 1_556 S
N146 C150 1.453 . S
N147 N146 1.234 1_554 S
C148 H143 0.929 . S
C148 C149 1.373 . S
C148 C150 1.368 . S
C149 C148 1.373 . S
C149 C153 1.397 1_556 S
C150 N146 1.453 . S
C150 C148 1.368 . S
C150 C151 1.373 1_556 S
C151 H145 0.930 . S
C151 C150 1.373 1_554 S
C151 C152 1.371 . S
C152 C151 1.371 . S
C152 C153 1.383 . S
C153 H144 0.931 . S
C153 C149 1.397 1_554 S
C153 C152 1.383 . S
H154 C159 0.929 . S
H155 C164 0.931 . S
H156 C162 0.939 . S
N157 N158 1.234 . S
N157 C161 1.475 . S
N158 N157 1.234 . S
C159 H154 0.929 . S
C159 C160 1.373 . S
C159 C161 1.355 1_545 S
C160 C159 1.373 . S
C160 C164 1.397 . S
C161 N157 1.475 . S
C161 C159 1.355 1_565 S
C161 C162 1.364 1_565 S
C162 H156 0.939 . S
C162 C161 1.364 1_545 S
C162 C163 1.371 . S
C163 C162 1.371 . S
C163 C164 1.383 . S
C164 H155 0.931 . S
C164 C160 1.397 . S
C164 C163 1.383 . S
H165 C170 0.929 . S
H166 C175 0.931 . S
H167 C173 0.930 . S
N168 N169 1.234 . S
N168 C172 1.453 . S
N169 N168 1.234 . S
C170 H165 0.929 . S
C170 C171 1.373 . S
C170 C172 1.368 . S
C171 C170 1.373 . S
C171 C175 1.397 . S
C172 N168 1.453 . S
C172 C170 1.368 . S
C172 C173 1.373 1_554 S
C173 H167 0.930 . S
C173 C172 1.373 1_556 S
C173 C174 1.371 . S
C174 C173 1.371 . S
C174 C175 1.383 1_556 S
C175 H166 0.931 . S
C175 C171 1.397 . S
C175 C174 1.383 1_554 S
C176 C177 1.363 . S
C176 C182 1.379 . S
C176 N184 1.356 . S
C177 C176 1.363 . S
C177 C183 1.363 . S
C178 C179 1.363 . S
C178 C183 1.379 . S
C178 N185 1.356 . S
C179 C178 1.363 . S
C179 C182 1.363 . S
N180 C182 1.356 . S
N180 H192 0.984 . S
N180 H193 0.985 . S
N181 C183 1.356 . S
N181 H186 0.984 . S
N181 H187 0.985 . S
C182 C176 1.379 . S
C182 C179 1.363 . S
C182 N180 1.356 . S
C183 C177 1.363 . S
C183 C178 1.379 . S
C183 N181 1.356 . S
N184 C176 1.356 . S
N184 H190 0.984 . S
N184 H191 0.984 . S
N185 C178 1.356 . S
N185 H188 0.984 . S
N185 H189 0.985 . S
H186 N181 0.984 . S
H187 N181 0.985 . S
H188 N185 0.984 . S
H189 N185 0.985 . S
H190 N184 0.984 . S
H191 N184 0.984 . S
H192 N180 0.984 . S
H193 N180 0.985 . S
C194 C195 1.363 . S
C194 C200 1.379 . S
C194 N202 1.356 . S
C195 C194 1.363 . S
C195 C201 1.363 . S
C196 C197 1.363 . S
C196 C201 1.379 . S
C196 N203 1.356 . S
C197 C196 1.363 . S
C197 C200 1.363 . S
N198 C200 1.356 . S
N198 H210 0.984 . S
N198 H211 0.985 . S
N199 C201 1.356 . S
N199 H204 0.984 . S
N199 H205 0.985 . S
C200 C194 1.379 . S
C200 C197 1.363 . S
C200 N198 1.356 . S
C201 C195 1.363 . S
C201 C196 1.379 . S
C201 N199 1.356 . S
N202 C194 1.356 . S
N202 H208 0.984 . S
N202 H209 0.984 . S
N203 C196 1.356 . S
N203 H206 0.984 . S
N203 H207 0.985 . S
H204 N199 0.984 . S
H205 N199 0.985 . S
H206 N203 0.984 . S
H207 N203 0.985 . S
H208 N202 0.984 . S
H209 N202 0.984 . S
H210 N198 0.984 . S
H211 N198 0.985 . S
C212 C213 1.363 . S
C212 C218 1.379 . S
C212 N220 1.356 . S
C213 C212 1.363 . S
C213 C219 1.363 . S
C214 C215 1.363 . S
C214 C219 1.379 . S
C214 N221 1.356 . S
C215 C214 1.363 . S
C215 C218 1.363 . S
N216 C218 1.356 . S
N216 H228 0.984 . S
N216 H229 0.985 . S
N217 C219 1.356 . S
N217 H222 0.984 . S
N217 H223 0.985 . S
C218 C212 1.379 . S
C218 C215 1.363 . S
C218 N216 1.356 . S
C219 C213 1.363 . S
C219 C214 1.379 . S
C219 N217 1.356 . S
N220 C212 1.356 . S
N220 H226 0.984 . S
N220 H227 0.984 . S
N221 C214 1.356 . S
N221 H224 0.984 . S
N221 H225 0.985 . S
H222 N217 0.984 . S
H223 N217 0.985 . S
H224 N221 0.984 . S
H225 N221 0.985 . S
H226 N220 0.984 . S
H227 N220 0.984 . S
H228 N216 0.984 . S
H229 N216 0.985 . S
C230 C231 1.363 . S
C230 C236 1.379 . S
C230 N238 1.356 . S
C231 C230 1.363 . S
C231 C237 1.363 . S
C232 C233 1.363 . S
C232 C237 1.379 . S
C232 N239 1.356 . S
C233 C232 1.363 . S
C233 C236 1.363 . S
N234 C236 1.356 . S
N234 H246 0.984 . S
N234 H247 0.985 . S
N235 C237 1.356 . S
N235 H240 0.984 . S
N235 H241 0.985 . S
C236 C230 1.379 . S
C236 C233 1.363 . S
C236 N234 1.356 . S
C237 C231 1.363 . S
C237 C232 1.379 . S
C237 N235 1.356 . S
N238 C230 1.356 . S
N238 H244 0.984 . S
N238 H245 0.984 . S
N239 C232 1.356 . S
N239 H242 0.984 . S
N239 H243 0.985 . S
H240 N235 0.984 . S
H241 N235 0.985 . S
H242 N239 0.984 . S
H243 N239 0.985 . S
H244 N238 0.984 . S
H245 N238 0.984 . S
H246 N234 0.984 . S
H247 N234 0.985 . S
C248 C249 1.363 . S
C248 C254 1.379 . S
C248 N256 1.356 . S
C249 C248 1.363 . S
C249 C255 1.363 . S
C250 C251 1.363 . S
C250 C255 1.379 . S
C250 N257 1.356 . S
C251 C250 1.363 . S
C251 C254 1.363 . S
N252 C254 1.356 . S
N252 H264 0.984 . S
N252 H265 0.985 . S
N253 C255 1.356 . S
N253 H258 0.984 . S
N253 H259 0.985 . S
C254 C248 1.379 . S
C254 C251 1.363 . S
C254 N252 1.356 . S
C255 C249 1.363 . S
C255 C250 1.379 . S
C255 N253 1.356 . S
N256 C248 1.356 . S
N256 H262 0.984 . S
N256 H263 0.984 . S
N257 C250 1.356 . S
N257 H260 0.984 . S
N257 H261 0.985 . S
H258 N253 0.984 . S
H259 N253 0.985 . S
H260 N257 0.984 . S
H261 N257 0.985 . S
H262 N256 0.984 . S
H263 N256 0.984 . S
H264 N252 0.984 . S
H265 N252 0.985 . S
C266 C267 1.363 . S
C266 C272 1.379 . S
C266 N274 1.356 . S
C267 C266 1.363 . S
C267 C273 1.363 . S
C268 C269 1.363 . S
C268 C273 1.379 . S
C268 N275 1.356 . S
C269 C268 1.363 . S
C269 C272 1.363 . S
N270 C272 1.356 . S
N270 H282 0.984 . S
N270 H283 0.985 . S
N271 C273 1.356 . S
N271 H276 0.984 . S
N271 H277 0.985 . S
C272 C266 1.379 . S
C272 C269 1.363 . S
C272 N270 1.356 . S
C273 C267 1.363 . S
C273 C268 1.379 . S
C273 N271 1.356 . S
N274 C266 1.356 . S
N274 H280 0.984 . S
N274 H281 0.984 . S
N275 C268 1.356 . S
N275 H278 0.984 . S
N275 H279 0.985 . S
H276 N271 0.984 . S
H277 N271 0.985 . S
H278 N275 0.984 . S
H279 N275 0.985 . S
H280 N274 0.984 . S
H281 N274 0.984 . S
H282 N270 0.984 . S
H283 N270 0.985 . S
C284 C285 1.363 . S
C284 C290 1.379 . S
C284 N292 1.356 . S
C285 C284 1.363 . S
C285 C291 1.363 . S
C286 C287 1.363 . S
C286 C291 1.379 . S
C286 N293 1.356 . S
C287 C286 1.363 . S
C287 C290 1.363 . S
N288 C290 1.356 . S
N288 H300 0.984 . S
N288 H301 0.985 . S
N289 C291 1.356 . S
N289 H294 0.984 . S
N289 H295 0.985 . S
C290 C284 1.379 . S
C290 C287 1.363 . S
C290 N288 1.356 . S
C291 C285 1.363 . S
C291 C286 1.379 . S
C291 N289 1.356 . S
N292 C284 1.356 . S
N292 H298 0.984 . S
N292 H299 0.984 . S
N293 C286 1.356 . S
N293 H296 0.984 . S
N293 H297 0.985 . S
H294 N289 0.984 . S
H295 N289 0.985 . S
H296 N293 0.984 . S
H297 N293 0.985 . S
H298 N292 0.984 . S
H299 N292 0.984 . S
H300 N288 0.984 . S
H301 N288 0.985 . S
C302 C303 1.363 . S
C302 C308 1.379 . S
C302 N310 1.356 . S
C303 C302 1.363 . S
C303 C309 1.363 . S
C304 C305 1.363 . S
C304 C309 1.379 . S
C304 N311 1.356 . S
C305 C304 1.363 . S
C305 C308 1.363 . S
N306 C308 1.356 . S
N306 H318 0.984 . S
N306 H319 0.985 . S
N307 C309 1.356 . S
N307 H312 0.984 . S
N307 H313 0.985 . S
C308 C302 1.379 . S
C308 C305 1.363 . S
C308 N306 1.356 . S
C309 C303 1.363 . S
C309 C304 1.379 . S
C309 N307 1.356 . S
N310 C302 1.356 . S
N310 H316 0.984 . S
N310 H317 0.984 . S
N311 C304 1.356 . S
N311 H314 0.984 . S
N311 H315 0.985 . S
H312 N307 0.984 . S
H313 N307 0.985 . S
H314 N311 0.984 . S
H315 N311 0.985 . S
H316 N310 0.984 . S
H317 N310 0.984 . S
H318 N306 0.984 . S
H319 N306 0.985 . S
C320 C321 1.363 . S
C320 C326 1.379 . S
C320 N328 1.356 . S
C321 C320 1.363 . S
C321 C327 1.363 . S
C322 C323 1.363 . S
C322 C327 1.379 . S
C322 N329 1.356 . S
C323 C322 1.363 . S
C323 C326 1.363 . S
N324 C326 1.356 . S
N324 H336 0.984 . S
N324 H337 0.985 . S
N325 C327 1.356 . S
N325 H330 0.984 . S
N325 H331 0.985 . S
C326 C320 1.379 . S
C326 C323 1.363 . S
C326 N324 1.356 . S
C327 C321 1.363 . S
C327 C322 1.379 . S
C327 N325 1.356 . S
N328 C320 1.356 . S
N328 H334 0.984 . S
N328 H335 0.984 . S
N329 C322 1.356 . S
N329 H332 0.984 . S
N329 H333 0.985 . S
H330 N325 0.984 . S
H331 N325 0.985 . S
H332 N329 0.984 . S
H333 N329 0.985 . S
H334 N328 0.984 . S
H335 N328 0.984 . S
H336 N324 0.984 . S
H337 N324 0.985 . S
C338 C339 1.363 . S
C338 C344 1.379 . S
C338 N346 1.356 . S
C339 C338 1.363 . S
C339 C345 1.363 . S
C340 C341 1.363 . S
C340 C345 1.379 . S
C340 N347 1.356 . S
C341 C340 1.363 . S
C341 C344 1.363 . S
N342 C344 1.356 . S
N342 H354 0.984 . S
N342 H355 0.985 . S
N343 C345 1.356 . S
N343 H348 0.984 . S
N343 H349 0.985 . S
C344 C338 1.379 . S
C344 C341 1.363 . S
C344 N342 1.356 . S
C345 C339 1.363 . S
C345 C340 1.379 . S
C345 N343 1.356 . S
N346 C338 1.356 . S
N346 H352 0.984 . S
N346 H353 0.984 . S
N347 C340 1.356 . S
N347 H350 0.984 . S
N347 H351 0.985 . S
H348 N343 0.984 . S
H349 N343 0.985 . S
H350 N347 0.984 . S
H351 N347 0.985 . S
H352 N346 0.984 . S
H353 N346 0.984 . S
H354 N342 0.984 . S
H355 N342 0.985 . S
C356 C357 1.363 . S
C356 C362 1.379 . S
C356 N364 1.356 . S
C357 C356 1.363 . S
C357 C363 1.363 . S
C358 C359 1.363 . S
C358 C363 1.379 . S
C358 N365 1.356 . S
C359 C358 1.363 . S
C359 C362 1.363 . S
N360 C362 1.356 . S
N360 H372 0.984 . S
N360 H373 0.985 . S
N361 C363 1.356 . S
N361 H366 0.984 . S
N361 H367 0.985 . S
C362 C356 1.379 . S
C362 C359 1.363 . S
C362 N360 1.356 . S
C363 C357 1.363 . S
C363 C358 1.379 . S
C363 N361 1.356 . S
N364 C356 1.356 . S
N364 H370 0.984 . S
N364 H371 0.984 . S
N365 C358 1.356 . S
N365 H368 0.984 . S
N365 H369 0.985 . S
H366 N361 0.984 . S
H367 N361 0.985 . S
H368 N365 0.984 . S
H369 N365 0.985 . S
H370 N364 0.984 . S
H371 N364 0.984 . S
H372 N360 0.984 . S
H373 N360 0.985 . S
C374 C375 1.363 . S
C374 C380 1.379 . S
C374 N382 1.356 . S
C375 C374 1.363 . S
C375 C381 1.363 . S
C376 C377 1.363 . S
C376 C381 1.379 . S
C376 N383 1.356 . S
C377 C376 1.363 . S
C377 C380 1.363 . S
N378 C380 1.356 . S
N378 H390 0.984 . S
N378 H391 0.985 . S
N379 C381 1.356 . S
N379 H384 0.984 . S
N379 H385 0.985 . S
C380 C374 1.379 . S
C380 C377 1.363 . S
C380 N378 1.356 . S
C381 C375 1.363 . S
C381 C376 1.379 . S
C381 N379 1.356 . S
N382 C374 1.356 . S
N382 H388 0.984 . S
N382 H389 0.984 . S
N383 C376 1.356 . S
N383 H386 0.984 . S
N383 H387 0.985 . S
H384 N379 0.984 . S
H385 N379 0.985 . S
H386 N383 0.984 . S
H387 N383 0.985 . S
H388 N382 0.984 . S
H389 N382 0.984 . S
H390 N378 0.984 . S
H391 N378 0.985 . S
C392 C393 1.363 . S
C392 C398 1.379 . S
C392 N400 1.356 . S
C393 C392 1.363 . S
C393 C399 1.363 . S
C394 C395 1.363 . S
C394 C399 1.379 . S
C394 N401 1.356 . S
C395 C394 1.363 . S
C395 C398 1.363 . S
N396 C398 1.356 . S
N396 H408 0.984 . S
N396 H409 0.985 . S
N397 C399 1.356 . S
N397 H402 0.984 . S
N397 H403 0.985 . S
C398 C392 1.379 . S
C398 C395 1.363 . S
C398 N396 1.356 . S
C399 C393 1.363 . S
C399 C394 1.379 . S
C399 N397 1.356 . S
N400 C392 1.356 . S
N400 H406 0.984 . S
N400 H407 0.984 . S
N401 C394 1.356 . S
N401 H404 0.984 . S
N401 H405 0.985 . S
H402 N397 0.984 . S
H403 N397 0.985 . S
H404 N401 0.984 . S
H405 N401 0.985 . S
H406 N400 0.984 . S
H407 N400 0.984 . S
H408 N396 0.984 . S
H409 N396 0.985 . S
C410 C411 1.363 . S
C410 C416 1.379 . S
C410 N418 1.356 . S
C411 C410 1.363 . S
C411 C417 1.363 . S
C412 C413 1.363 . S
C412 C417 1.379 . S
C412 N419 1.356 . S
C413 C412 1.363 . S
C413 C416 1.363 . S
N414 C416 1.356 . S
N414 H426 0.984 . S
N414 H427 0.985 . S
N415 C417 1.356 . S
N415 H420 0.984 . S
N415 H421 0.985 . S
C416 C410 1.379 . S
C416 C413 1.363 . S
C416 N414 1.356 . S
C417 C411 1.363 . S
C417 C412 1.379 . S
C417 N415 1.356 . S
N418 C410 1.356 . S
N418 H424 0.984 . S
N418 H425 0.984 . S
N419 C412 1.356 . S
N419 H422 0.984 . S
N419 H423 0.985 . S
H420 N415 0.984 . S
H421 N415 0.985 . S
H422 N419 0.984 . S
H423 N419 0.985 . S
H424 N418 0.984 . S
H425 N418 0.984 . S
H426 N414 0.984 . S
H427 N414 0.985 . S
C428 C429 1.363 . S
C428 C434 1.379 . S
C428 N436 1.356 . S
C429 C428 1.363 . S
C429 C435 1.363 . S
C430 C431 1.363 . S
C430 C435 1.379 . S
C430 N437 1.356 . S
C431 C430 1.363 . S
C431 C434 1.363 . S
N432 C434 1.356 . S
N432 H444 0.984 . S
N432 H445 0.985 . S
N433 C435 1.356 . S
N433 H438 0.984 . S
N433 H439 0.985 . S
C434 C428 1.379 . S
C434 C431 1.363 . S
C434 N432 1.356 . S
C435 C429 1.363 . S
C435 C430 1.379 . S
C435 N433 1.356 . S
N436 C428 1.356 . S
N436 H442 0.984 . S
N436 H443 0.984 . S
N437 C430 1.356 . S
N437 H440 0.984 . S
N437 H441 0.985 . S
H438 N433 0.984 . S
H439 N433 0.985 . S
H440 N437 0.984 . S
H441 N437 0.985 . S
H442 N436 0.984 . S
H443 N436 0.984 . S
H444 N432 0.984 . S
H445 N432 0.985 . S
C446 C447 1.363 . S
C446 C452 1.379 . S
C446 N454 1.356 . S
C447 C446 1.363 . S
C447 C453 1.363 . S
C448 C449 1.363 . S
C448 C453 1.379 . S
C448 N455 1.356 . S
C449 C448 1.363 . S
C449 C452 1.363 . S
N450 C452 1.356 . S
N450 H462 0.984 . S
N450 H463 0.985 . S
N451 C453 1.356 . S
N451 H456 0.984 . S
N451 H457 0.985 . S
C452 C446 1.379 . S
C452 C449 1.363 . S
C452 N450 1.356 . S
C453 C447 1.363 . S
C453 C448 1.379 . S
C453 N451 1.356 . S
N454 C446 1.356 . S
N454 H460 0.984 . S
N454 H461 0.984 . S
N455 C448 1.356 . S
N455 H458 0.984 . S
N455 H459 0.985 . S
H456 N451 0.984 . S
H457 N451 0.985 . S
H458 N455 0.984 . S
H459 N455 0.985 . S
H460 N454 0.984 . S
H461 N454 0.984 . S
H462 N450 0.984 . S
H463 N450 0.985 . S
C464 C465 1.363 1_556 S
C464 C470 1.379 . S
C464 N472 1.356 . S
C465 C464 1.363 1_554 S
C465 C471 1.363 . S
C466 C467 1.363 . S
C466 C471 1.379 . S
C466 N473 1.356 . S
C467 C466 1.363 . S
C467 C470 1.363 1_554 S
N468 C470 1.356 . S
N468 H480 0.984 . S
N468 H481 0.985 . S
N469 C471 1.356 . S
N469 H474 0.984 . S
N469 H475 0.985 . S
C470 C464 1.379 . S
C470 C467 1.363 1_556 S
C470 N468 1.356 . S
C471 C465 1.363 . S
C471 C466 1.379 . S
C471 N469 1.356 . S
N472 C464 1.356 . S
N472 H478 0.984 . S
N472 H479 0.984 . S
N473 C466 1.356 . S
N473 H476 0.984 . S
N473 H477 0.985 . S
H474 N469 0.984 . S
H475 N469 0.985 . S
H476 N473 0.984 . S
H477 N473 0.985 . S
H478 N472 0.984 . S
H479 N472 0.984 . S
H480 N468 0.984 . S
H481 N468 0.985 . S
C482 C483 1.363 . S
C482 C488 1.379 . S
C482 N490 1.356 . S
C483 C482 1.363 . S
C483 C489 1.363 . S
C484 C485 1.363 . S
C484 C489 1.379 . S
C484 N491 1.356 . S
C485 C484 1.363 . S
C485 C488 1.363 . S
N486 C488 1.356 . S
N486 H498 0.984 . S
N486 H499 0.985 . S
N487 C489 1.356 . S
N487 H492 0.984 . S
N487 H493 0.985 . S
C488 C482 1.379 . S
C488 C485 1.363 . S
C488 N486 1.356 . S
C489 C483 1.363 . S
C489 C484 1.379 . S
C489 N487 1.356 . S
N490 C482 1.356 . S
N490 H496 0.984 . S
N490 H497 0.984 . S
N491 C484 1.356 . S
N491 H494 0.984 . S
N491 H495 0.985 . S
H492 N487 0.984 . S
H493 N487 0.985 . S
H494 N491 0.984 . S
H495 N491 0.985 . S
H496 N490 0.984 . S
H497 N490 0.984 . S
H498 N486 0.984 . S
H499 N486 0.985 . S
C500 C501 1.363 . S
C500 C506 1.379 . S
C500 N508 1.356 . S
C501 C500 1.363 . S
C501 C507 1.363 1_554 S
C502 C503 1.363 1_556 S
C502 C507 1.379 . S
C502 N509 1.356 . S
C503 C502 1.363 1_554 S
C503 C506 1.363 . S
N504 C506 1.356 . S
N504 H516 0.984 . S
N504 H517 0.985 . S
N505 C507 1.356 . S
N505 H510 0.984 . S
N505 H511 0.985 . S
C506 C500 1.379 . S
C506 C503 1.363 . S
C506 N504 1.356 . S
C507 C501 1.363 1_556 S
C507 C502 1.379 . S
C507 N505 1.356 . S
N508 C500 1.356 . S
N508 H514 0.984 . S
N508 H515 0.984 . S
N509 C502 1.356 . S
N509 H512 0.984 . S
N509 H513 0.985 . S
H510 N505 0.984 . S
H511 N505 0.985 . S
H512 N509 0.984 . S
H513 N509 0.985 . S
H514 N508 0.984 . S
H515 N508 0.984 . S
H516 N504 0.984 . S
H517 N504 0.985 . S
C518 C519 1.363 . S
C518 C524 1.379 . S
C518 N526 1.356 . S
C519 C518 1.363 . S
C519 C525 1.363 . S
C520 C521 1.363 . S
C520 C525 1.379 . S
C520 N527 1.356 . S
C521 C520 1.363 . S
C521 C524 1.363 . S
N522 C524 1.356 . S
N522 H534 0.984 . S
N522 H535 0.985 . S
N523 C525 1.356 . S
N523 H528 0.984 . S
N523 H529 0.985 . S
C524 C518 1.379 . S
C524 C521 1.363 . S
C524 N522 1.356 . S
C525 C519 1.363 . S
C525 C520 1.379 . S
C525 N523 1.356 . S
N526 C518 1.356 . S
N526 H532 0.984 . S
N526 H533 0.984 . S
N527 C520 1.356 . S
N527 H530 0.984 . S
N527 H531 0.985 . S
H528 N523 0.984 . S
H529 N523 0.985 . S
H530 N527 0.984 . S
H531 N527 0.985 . S
H532 N526 0.984 . S
H533 N526 0.984 . S
H534 N522 0.984 . S
H535 N522 0.985 . S
C536 C537 1.363 . S
C536 C542 1.379 . S
C536 N544 1.356 . S
C537 C536 1.363 . S
C537 C543 1.363 . S
C538 C539 1.363 . S
C538 C543 1.379 . S
C538 N545 1.356 . S
C539 C538 1.363 . S
C539 C542 1.363 . S
N540 C542 1.356 . S
N540 H552 0.984 . S
N540 H553 0.985 . S
N541 C543 1.356 . S
N541 H546 0.984 . S
N541 H547 0.985 . S
C542 C536 1.379 . S
C542 C539 1.363 . S
C542 N540 1.356 . S
C543 C537 1.363 . S
C543 C538 1.379 . S
C543 N541 1.356 . S
N544 C536 1.356 . S
N544 H550 0.984 . S
N544 H551 0.984 . S
N545 C538 1.356 . S
N545 H548 0.984 . S
N545 H549 0.985 . S
H546 N541 0.984 . S
H547 N541 0.985 . S
H548 N545 0.984 . S
H549 N545 0.985 . S
H550 N544 0.984 . S
H551 N544 0.984 . S
H552 N540 0.984 . S
H553 N540 0.985 . S
C554 C555 1.363 1_556 S
C554 C560 1.379 . S
C554 N562 1.356 . S
C555 C554 1.363 1_554 S
C555 C561 1.363 . S
C556 C557 1.363 . S
C556 C561 1.379 . S
C556 N563 1.356 . S
C557 C556 1.363 . S
C557 C560 1.363 1_554 S
N558 C560 1.356 . S
N558 H570 0.984 . S
N558 H571 0.985 . S
N559 C561 1.356 . S
N559 H564 0.984 . S
N559 H565 0.985 . S
C560 C554 1.379 . S
C560 C557 1.363 1_556 S
C560 N558 1.356 . S
C561 C555 1.363 . S
C561 C556 1.379 . S
C561 N559 1.356 . S
N562 C554 1.356 . S
N562 H568 0.984 . S
N562 H569 0.984 . S
N563 C556 1.356 . S
N563 H566 0.984 . S
N563 H567 0.985 . S
H564 N559 0.984 . S
H565 N559 0.985 . S
H566 N563 0.984 . S
H567 N563 0.985 . S
H568 N562 0.984 . S
H569 N562 0.984 . S
H570 N558 0.984 . S
H571 N558 0.985 . S
C572 C573 1.363 . S
C572 C578 1.379 . S
C572 N580 1.356 . S
C573 C572 1.363 . S
C573 C579 1.363 . S
C574 C575 1.363 . S
C574 C579 1.379 . S
C574 N581 1.356 . S
C575 C574 1.363 . S
C575 C578 1.363 . S
N576 C578 1.356 . S
N576 H588 0.984 . S
N576 H589 0.985 . S
N577 C579 1.356 . S
N577 H582 0.984 . S
N577 H583 0.985 . S
C578 C572 1.379 . S
C578 C575 1.363 . S
C578 N576 1.356 . S
C579 C573 1.363 . S
C579 C574 1.379 . S
C579 N577 1.356 . S
N580 C572 1.356 . S
N580 H586 0.984 . S
N580 H587 0.984 . S
N581 C574 1.356 . S
N581 H584 0.984 . S
N581 H585 0.985 . S
H582 N577 0.984 . S
H583 N577 0.985 . S
H584 N581 0.984 . S
H585 N581 0.985 . S
H586 N580 0.984 . S
H587 N580 0.984 . S
H588 N576 0.984 . S
H589 N576 0.985 . S
C590 C591 1.363 . S
C590 C596 1.379 . S
C590 N598 1.356 . S
C591 C590 1.363 . S
C591 C597 1.363 1_554 S
C592 C593 1.363 1_556 S
C592 C597 1.379 . S
C592 N599 1.356 . S
C593 C592 1.363 1_554 S
C593 C596 1.363 . S
N594 C596 1.356 . S
N594 H606 0.984 . S
N594 H607 0.985 . S
N595 C597 1.356 . S
N595 H600 0.984 . S
N595 H601 0.985 . S
C596 C590 1.379 . S
C596 C593 1.363 . S
C596 N594 1.356 . S
C597 C591 1.363 1_556 S
C597 C592 1.379 . S
C597 N595 1.356 . S
N598 C590 1.356 . S
N598 H604 0.984 . S
N598 H605 0.984 . S
N599 C592 1.356 . S
N599 H602 0.984 . S
N599 H603 0.985 . S
H600 N595 0.984 . S
H601 N595 0.985 . S
H602 N599 0.984 . S
H603 N599 0.985 . S
H604 N598 0.984 . S
H605 N598 0.984 . S
H606 N594 0.984 . S
H607 N594 0.985 . S
C177 C5 1.451 . S
C179 C127 1.467 . S
C195 C31 1.472 . S
C197 C94 1.481 . S
C215 C108 1.476 . S
C213 C53 1.500 . S
C231 C71 1.479 . S
C233 C119 1.462 . S
C251 C152 1.462 . S
C249 C75 1.479 . S
C269 C163 1.476 . S
C267 C9 1.500 . S
C287 C171 1.481 . S
C285 C27 1.472 . S
C305 C138 1.466 . S
C303 C49 1.451 . S
C321 C51 1.451 . S
C323 C105 1.458 . S
C339 C72 1.472 . S
C341 C116 1.471 . S
C357 C6 1.500 . S
C359 C130 1.482 . S
C377 C97 1.467 . S
C375 C29 1.479 . S
C393 C28 1.479 . S
C395 C174 1.467 . S
C413 C141 1.482 . S
C411 C50 1.500 . S
C431 C149 1.471 . S
C429 C73 1.472 . S
C447 C7 1.451 . S
C449 C160 1.458 . S
C467 N92 1.506 . S
C465 C4 1.508 . S
C485 N103 1.510 . S
C483 C30 1.507 . S
C501 C52 1.508 . S
C503 N114 1.511 . S
C519 C70 1.507 . S
C521 N125 1.505 . S
C539 N136 1.505 . S
C537 C74 1.507 . S
C555 C8 1.508 . S
C557 N147 1.511 . S
C573 C26 1.507 . S
C575 N158 1.510 . S
C591 C48 1.508 . S
C593 N169 1.506 . S
