# Generated by pormake.
# Topology anh, (6,3)-cn, num edge types: 1
# Building blocks:
#     Node 0, Type 0, BuildingBlock: INOVEN_clean_sbu_0, # of connection points: 6
#     Node 1, Type 0, BuildingBlock: INOVEN_clean_sbu_0, # of connection points: 6
#     Node 2, Type 0, BuildingBlock: INOVEN_clean_sbu_0, # of connection points: 6
#     Node 3, Type 1, BuildingBlock: BETDAH_clean_linker_0, # of connection points: 3
#     Node 4, Type 1, BuildingBlock: BETDAH_clean_linker_0, # of connection points: 3
#     Node 5, Type 1, BuildingBlock: BETDAH_clean_linker_0, # of connection points: 3
#     Node 6, Type 1, BuildingBlock: BETDAH_clean_linker_0, # of connection points: 3
#     Node 7, Type 1, BuildingBlock: BETDAH_clean_linker_0, # of connection points: 3
#     Node 8, Type 1, BuildingBlock: BETDAH_clean_linker_0, # of connection points: 3
#     Edge 9, Type (0, 1), BuildingBlock: AJUNOK_clean_linker_0, # of connection points: 2
#     Edge 10, Type (0, 1), BuildingBlock: AJUNOK_clean_linker_0, # of connection points: 2
#     Edge 11, Type (0, 1), BuildingBlock: AJUNOK_clean_linker_0, # of connection points: 2
#     Edge 12, Type (0, 1), BuildingBlock: AJUNOK_clean_linker_0, # of connection points: 2
#     Edge 13, Type (0, 1), BuildingBlock: AJUNOK_clean_linker_0, # of connection points: 2
#     Edge 14, Type (0, 1), BuildingBlock: AJUNOK_clean_linker_0, # of connection points: 2
#     Edge 15, Type (0, 1), BuildingBlock: AJUNOK_clean_linker_0, # of connection points: 2
#     Edge 16, Type (0, 1), BuildingBlock: AJUNOK_clean_linker_0, # of connection points: 2
#     Edge 17, Type (0, 1), BuildingBlock: AJUNOK_clean_linker_0, # of connection points: 2
#     Edge 18, Type (0, 1), BuildingBlock: AJUNOK_clean_linker_0, # of connection points: 2
#     Edge 19, Type (0, 1), BuildingBlock: AJUNOK_clean_linker_0, # of connection points: 2
#     Edge 20, Type (0, 1), BuildingBlock: AJUNOK_clean_linker_0, # of connection points: 2
#     Edge 21, Type (0, 1), BuildingBlock: AJUNOK_clean_linker_0, # of connection points: 2
#     Edge 22, Type (0, 1), BuildingBlock: AJUNOK_clean_linker_0, # of connection points: 2
#     Edge 23, Type (0, 1), BuildingBlock: AJUNOK_clean_linker_0, # of connection points: 2
#     Edge 24, Type (0, 1), BuildingBlock: AJUNOK_clean_linker_0, # of connection points: 2
#     Edge 25, Type (0, 1), BuildingBlock: AJUNOK_clean_linker_0, # of connection points: 2
#     Edge 26, Type (0, 1), BuildingBlock: AJUNOK_clean_linker_0, # of connection points: 2
# Relax obj value: 0.203
# Max RMSD: 0.216
# Mean RMSD: 0.119
data_MOF--net-anh--node1-INOVEN_clean_sbu_0--node2-BETDAH_clean_linker_0--edge1-AJUNOK_clean_linker_0
_symmetry_space_group_name_H-M    P1
_symmetry_Int_Tables_number       1
_symmetry_cell_setting            triclinic
loop_
_symmetry_equiv_pos_as_xyz
'x, y, z'
_cell_length_a     24.304721
_cell_length_b     29.799967
_cell_length_c     36.243898
_cell_angle_alpha  94.937714
_cell_angle_beta   90.65201
_cell_angle_gamma 132.29064
loop_
_atom_site_label
_atom_site_type_symbol
_atom_site_fract_x
_atom_site_fract_y
_atom_site_fract_z
_atom_type_partial_charge
Gd0 Gd 0.17917 0.58046 0.16543 0.0
Gd1 Gd 0.08972 0.6062 0.16949 0.0
C2 C 0.26472 0.7234 0.16961 0.0
C3 C 0.274 0.57194 0.15302 0.0
C4 C 0.32798 0.5671 0.14586 0.0
C5 C 0.35376 0.55499 0.17455 0.0
C6 C 0.34205 0.56251 0.10911 0.0
C7 C 0.38772 0.5166 0.12829 0.0
C8 C 0.37283 0.53774 0.10033 0.0
C9 C 0.38333 0.52913 0.16566 0.0
C10 C 0.13726 0.5758 0.23475 0.0
C11 C 1.00571 0.46411 0.16565 0.0
C12 C 1.01363 0.63442 0.18563 0.0
C13 C 0.93431 0.59641 0.17542 0.0
C14 C 0.90558 0.56945 0.13843 0.0
C15 C 0.8858 0.57565 0.20359 0.0
C16 C 0.78213 0.49716 0.15851 0.0
C17 C 0.80951 0.52604 0.19511 0.0
C18 C 0.82991 0.52045 0.13005 0.0
C19 C 0.08836 0.56777 0.09794 0.0
O20 O 0.27161 0.68307 0.16657 0.0
O21 O 0.19824 0.70477 0.17195 0.0
O22 O 0.27754 0.59876 0.18463 0.0
O23 O 0.21755 0.54786 0.1286 0.0
O24 O 0.1368 0.53563 0.21775 0.0
O25 O 0.16009 0.61667 0.21437 0.0
O26 O 1.00407 0.50586 0.17909 0.0
O27 O 1.06743 0.48261 0.15208 0.0
O28 O 1.05628 0.65523 0.15815 0.0
O29 O 1.02777 0.61122 0.20873 0.0
O30 O 1.02936 0.54869 0.11358 0.0
O31 O 0.14505 0.60571 0.12108 0.0
H32 H 0.3431 0.55867 0.2031 0.0
H33 H 0.32255 0.57227 0.08687 0.0
H34 H 0.37564 0.52778 0.07129 0.0
H35 H 0.39453 0.51258 0.18728 0.0
H36 H 0.94165 0.58371 0.11616 0.0
H37 H 0.9075 0.59528 0.23235 0.0
H38 H 0.77252 0.50889 0.21711 0.0
H39 H 0.80882 0.49961 0.10138 0.0
Gd40 Gd 0.68823 0.0719 0.47982 0.0
Gd41 Gd 0.59089 0.09416 0.47102 0.0
C42 C 0.50783 0.95483 0.46824 0.0
C43 C 0.75606 0.03869 0.50176 0.0
C44 C 0.73968 0.98492 0.5126 0.0
C45 C 0.68509 0.92673 0.49225 0.0
C46 C 0.78347 0.99323 0.5427 0.0
C47 C 0.72474 0.88751 0.52963 0.0
C48 C 0.77618 0.94489 0.55117 0.0
C49 C 0.67765 0.87821 0.5008 0.0
C50 C 0.66923 0.08364 0.40895 0.0
C51 C 0.77189 0.21246 0.47854 0.0
C52 C 0.527 0.13306 0.45457 0.0
C53 C 0.54364 0.18993 0.4668 0.0
C54 C 0.50923 0.19198 0.49689 0.0
C55 C 0.59599 0.24316 0.4499 0.0
C56 C 0.58263 0.30017 0.49472 0.0
C57 C 0.615 0.29774 0.46364 0.0
C58 C 0.52879 0.24654 0.51081 0.0
C59 C 0.61382 0.08494 0.54219 0.0
O60 O 0.57298 0.97683 0.48324 0.0
O61 O 0.50371 0.99229 0.45461 0.0
O62 O 0.74086 0.03716 0.46672 0.0
O63 O 0.73931 0.06351 0.52459 0.0
O64 O 0.73163 0.1042 0.42486 0.0
O65 O 0.61771 0.05391 0.43032 0.0
O66 O 0.70408 0.19068 0.46994 0.0
O67 O 0.78055 0.17518 0.48723 0.0
O68 O 0.50555 0.09683 0.47995 0.0
O69 O 0.57397 0.13779 0.4338 0.0
O70 O 0.55026 0.06218 0.52666 0.0
O71 O 0.66347 0.11418 0.51998 0.0
H72 H 0.6499 0.91922 0.46919 0.0
H73 H 0.82538 0.03783 0.55879 0.0
H74 H 0.81318 0.95316 0.57348 0.0
H75 H 0.63657 0.83391 0.4843 0.0
H76 H 0.46831 0.15167 0.51033 0.0
H77 H 0.62305 0.24296 0.42642 0.0
H78 H 0.65527 0.33805 0.45008 0.0
H79 H 0.50305 0.24705 0.53485 0.0
Gd80 Gd 0.69314 0.62128 0.85474 0.0
Gd81 Gd 0.58121 0.48875 0.84585 0.0
C82 C 0.50784 0.55202 0.8543 0.0
C83 C 0.7701 0.73316 0.84283 0.0
C84 C 0.75718 0.7728 0.83378 0.0
C85 C 0.70566 0.77241 0.85133 0.0
C86 C 0.79654 0.81095 0.80613 0.0
C87 C 0.7366 0.85068 0.81497 0.0
C88 C 0.78636 0.84953 0.79677 0.0
C89 C 0.69551 0.81116 0.84198 0.0
C90 C 0.65423 0.57091 0.9183 0.0
C91 C 0.76774 0.55912 0.85492 0.0
C92 C 0.50953 0.37561 0.8508 0.0
C93 C 0.52497 0.33624 0.8397 0.0
C94 C 0.50257 0.30533 0.8034 0.0
C95 C 0.5638 0.33036 0.86483 0.0
C96 C 0.55698 0.26336 0.81752 0.0
C97 C 0.57976 0.29431 0.85379 0.0
C98 C 0.51896 0.26977 0.79236 0.0
C99 C 0.61296 0.53434 0.7806 0.0
O100 O 0.57982 0.60292 0.85102 0.0
O101 O 0.495 0.50063 0.85606 0.0
O102 O 0.75844 0.71651 0.87627 0.0
O103 O 0.74587 0.68898 0.81668 0.0
O104 O 0.7236 0.61601 0.91268 0.0
O105 O 0.61162 0.55641 0.89064 0.0
O106 O 0.69447 0.50757 0.85308 0.0
O107 O 0.78228 0.61137 0.8544 0.0
O108 O 0.49465 0.3934 0.82375 0.0
O109 O 0.55319 0.41918 0.87847 0.0
O110 O 0.54656 0.48718 0.788 0.0
O111 O 0.66033 0.55358 0.80756 0.0
H112 H 0.67351 0.74244 0.87224 0.0
H113 H 0.83576 0.81124 0.79194 0.0
H114 H 0.81877 0.87957 0.77592 0.0
H115 H 0.65568 0.81033 0.8559 0.0
H116 H 0.47305 0.30911 0.78323 0.0
H117 H 0.58214 0.35378 0.89296 0.0
H118 H 0.60959 0.29041 0.87366 0.0
H119 H 0.50289 0.24808 0.76386 0.0
H120 H 0.52587 0.96407 0.2511 0.0
H121 H 0.7044 0.15398 0.2385 0.0
H122 H 0.55562 0.02273 0.14299 0.0
C123 C 0.55629 1.0001 0.23327 0.0
C124 C 0.53314 0.98548 0.19526 0.0
C125 C 0.617 0.06031 0.249 0.0
C126 C 0.65696 0.10767 0.22625 0.0
C127 C 0.63584 0.09467 0.18766 0.0
C128 C 0.57285 0.03327 0.1725 0.0
N129 N 0.67568 0.14128 0.16327 0.0
C130 C 0.74141 0.20356 0.17185 0.0
H131 H 0.62045 0.47849 0.61861 0.0
H132 H 0.72974 0.66809 0.62616 0.0
H133 H 0.724 0.57756 0.52512 0.0
C134 C 0.6499 0.52017 0.6059 0.0
C135 C 0.66803 0.52159 0.56924 0.0
C136 C 0.67308 0.57307 0.62689 0.0
C137 C 0.71175 0.62701 0.61026 0.0
C138 C 0.7295 0.62815 0.57335 0.0
C139 C 0.70888 0.57593 0.55334 0.0
N140 N 0.77221 0.68224 0.55637 0.0
C141 C 0.75412 0.71735 0.55565 0.0
H142 H 0.9983 0.55632 0.93447 0.0
H143 H 0.17357 0.55365 0.92747 0.0
H144 H 1.07657 0.55737 0.82775 0.0
C145 C 1.03387 0.55559 0.9172 0.0
C146 C 1.02594 0.5562 0.87872 0.0
C147 C 1.0866 0.55561 0.93476 0.0
C148 C 0.13535 0.55524 0.91356 0.0
C149 C 0.13522 0.55606 0.8748 0.0
C150 C 1.07915 0.55688 0.85751 0.0
N151 N 0.18874 0.55591 0.85365 0.0
C152 C 0.24869 0.55519 0.86185 0.0
H153 H 0.25158 0.7078 0.39152 0.0
H154 H 1.06594 0.52133 0.40877 0.0
H155 H 0.21402 0.65843 0.50232 0.0
C156 C 0.21817 0.67359 0.41024 0.0
C157 C 0.24009 0.69115 0.44841 0.0
C158 C 0.15539 0.61305 0.39567 0.0
C159 C 0.11406 0.5681 0.41997 0.0
C160 C 0.13457 0.58368 0.45863 0.0
C161 C 0.19803 0.64569 0.47265 0.0
N162 N 0.09299 0.53893 0.48409 0.0
C163 C 1.03017 0.47561 0.47577 0.0
H164 H 0.60259 0.12873 0.70278 0.0
H165 H 0.70572 0.05537 0.70913 0.0
H166 H 0.68617 0.13171 0.80877 0.0
C167 C 0.62808 0.11698 0.71914 0.0
C168 C 0.64013 0.13197 0.75783 0.0
C169 C 0.65164 0.08959 0.70116 0.0
C170 C 0.68613 0.07566 0.72263 0.0
C171 C 0.69801 0.09074 0.76165 0.0
C172 C 0.67588 0.11948 0.77882 0.0
N173 N 0.73886 0.08371 0.78428 0.0
C174 C 0.72805 0.0316 0.78221 0.0
H175 H 0.62067 0.4188 0.04136 0.0
H176 H 0.40645 0.32098 0.98194 0.0
H177 H 0.42116 0.27652 0.08858 0.0
C178 C 0.56079 0.38015 0.03739 0.0
C179 C 0.52545 0.34401 0.06622 0.0
C180 C 0.51874 0.37248 0.00657 0.0
C181 C 0.44048 0.32537 0.0042 0.0
C182 C 0.40517 0.29119 0.03391 0.0
C183 C 0.44803 0.29929 0.06437 0.0
N184 N 0.33406 0.26925 0.03984 0.0
C185 C 0.3348 0.31103 0.06037 0.0
C186 C 0.31647 0.40674 0.12133 0.0
C187 C 0.38316 0.46622 0.11717 0.0
C188 C 0.3016 0.35584 0.10331 0.0
C189 C 0.35315 0.36353 0.08089 0.0
H190 H 0.27382 0.39967 0.13686 0.0
H191 H 0.24873 0.31052 0.10596 0.0
S192 S 0.53861 0.5105 0.06433 0.0
N193 N 0.50216 0.53064 0.09113 0.0
N194 N 0.4761 0.43487 0.05801 0.0
C195 C 0.42169 0.42289 0.07812 0.0
C196 C 0.43627 0.47454 0.09613 0.0
C197 C 0.83013 0.31978 0.46765 0.0
C198 C 0.83902 0.27988 0.47763 0.0
C199 C 0.89211 0.38284 0.4662 0.0
C200 C 0.96603 0.40905 0.47443 0.0
H201 H 0.77467 0.30236 0.46102 0.0
H202 H 0.88191 0.41137 0.45896 0.0
S203 S 1.0216 0.32654 0.50237 0.0
N204 N 0.92954 0.27312 0.49604 0.0
N205 N 1.04448 0.39041 0.49326 0.0
C206 C 0.97589 0.37007 0.48434 0.0
C207 C 0.91304 0.30603 0.48592 0.0
C208 C 0.72075 0.90113 0.76955 0.0
C209 C 0.73019 0.89492 0.80668 0.0
C210 C 0.71812 0.9449 0.7613 0.0
C211 C 0.72506 0.98353 0.78999 0.0
H212 H 0.71567 0.87215 0.74679 0.0
H213 H 0.71171 0.94907 0.7325 0.0
S214 S 0.75449 0.98834 0.8912 0.0
N215 N 0.74927 0.93313 0.87201 0.0
N216 N 0.74326 1.01454 0.85636 0.0
C217 C 0.73442 0.97794 0.82698 0.0
C218 C 0.73721 0.93373 0.83541 0.0
C219 C 0.6838 0.39261 0.12703 0.0
C220 C 0.7033 0.44391 0.14842 0.0
C221 C 0.61806 0.35327 0.10338 0.0
C222 C 0.57042 0.3641 0.10125 0.0
H223 H 0.72365 0.38725 0.12525 0.0
H224 H 0.6088 0.31875 0.08373 0.0
S225 S 0.58999 0.48476 0.15751 0.0
N226 N 0.66581 0.49832 0.1705 0.0
N227 N 0.54003 0.42268 0.12674 0.0
C228 C 0.58421 0.40994 0.12644 0.0
C229 C 0.65163 0.45047 0.15012 0.0
C230 C 0.44252 0.84377 0.4734 0.0
C231 C 0.43843 0.88768 0.46689 0.0
C232 C 0.37774 0.78035 0.47025 0.0
C233 C 0.30587 0.75807 0.46097 0.0
H234 H 0.49642 0.85817 0.47977 0.0
H235 H 0.38433 0.74835 0.47346 0.0
S236 S 0.26274 0.85309 0.44419 0.0
N237 N 0.35447 0.90314 0.45295 0.0
N238 N 0.23464 0.78548 0.44718 0.0
C239 C 0.30091 0.8016 0.45591 0.0
C240 C 0.3664 0.86574 0.45885 0.0
C241 C 0.64835 0.25048 0.81273 0.0
C242 C 0.57526 0.22634 0.80524 0.0
C243 C 0.66869 0.21871 0.79843 0.0
C244 C 0.61662 0.16209 0.77603 0.0
H245 H 0.69079 0.29518 0.82858 0.0
H246 H 0.72605 0.23954 0.80374 0.0
S247 S 0.41649 0.07529 0.75238 0.0
N248 N 0.44912 0.1394 0.77705 0.0
N249 N 0.4882 0.08032 0.75004 0.0
C250 C 0.54289 0.13619 0.76983 0.0
C251 C 0.52197 0.1682 0.78441 0.0
C252 C 0.72424 0.82517 0.57176 0.0
C253 C 0.7249 0.83929 0.53558 0.0
C254 C 0.73148 0.78361 0.57831 0.0
C255 C 0.73976 0.75548 0.54883 0.0
H256 H 0.71923 0.84708 0.59516 0.0
H257 H 0.73222 0.77451 0.60653 0.0
S258 S 0.74623 0.77724 0.44947 0.0
N259 N 0.73551 0.82219 0.47019 0.0
N260 N 0.74794 0.74342 0.48265 0.0
C261 C 0.73928 0.76823 0.51264 0.0
C262 C 0.73207 0.8104 0.50592 0.0
C263 C 0.82319 0.50628 0.86621 0.0
C264 C 0.83423 0.55806 0.85792 0.0
C265 C 0.88261 0.50538 0.87041 0.0
C266 C 0.9603 0.55519 0.86548 0.0
H267 H 0.76718 0.46529 0.87064 0.0
H268 H 0.86691 0.46424 0.87857 0.0
S269 S 1.02547 0.70432 0.84396 0.0
N270 N 0.93483 0.66248 0.84559 0.0
N271 N 1.04166 0.66026 0.8524 0.0
C272 C 0.97208 0.60721 0.85692 0.0
C273 C 0.91166 0.60857 0.85331 0.0
C274 C 0.40458 0.81162 0.18085 0.0
C275 C 0.33334 0.79055 0.17166 0.0
C276 C 0.4695 0.87451 0.18591 0.0
C277 C 0.46685 0.91956 0.18123 0.0
H278 H 0.41016 0.77942 0.18567 0.0
H279 H 0.52211 0.88822 0.19494 0.0
S280 S 0.29613 0.88964 0.15443 0.0
N281 N 0.26538 0.8208 0.15617 0.0
N282 N 0.38743 0.93838 0.16513 0.0
C283 C 0.39678 0.89923 0.17038 0.0
C284 C 0.33023 0.83511 0.16578 0.0
C285 C 0.55135 0.35985 0.522 0.0
C286 C 0.60577 0.35848 0.51129 0.0
C287 C 0.57184 0.41313 0.54039 0.0
C288 C 0.64734 0.46689 0.54822 0.0
H289 H 0.49246 0.31927 0.51645 0.0
H290 H 0.52847 0.41227 0.54868 0.0
S291 S 0.81134 0.4874 0.52739 0.0
N292 N 0.7386 0.41546 0.5111 0.0
N293 N 0.77664 0.51616 0.54454 0.0
C294 C 0.70226 0.46667 0.53722 0.0
C295 C 0.6816 0.41231 0.51897 0.0
C296 C 0.45105 0.60585 0.85515 0.0
C297 C 0.44117 0.55271 0.85687 0.0
C298 C 0.39122 0.60658 0.85725 0.0
C299 C 0.3142 0.55437 0.86154 0.0
H300 H 0.50663 0.64847 0.85191 0.0
H301 H 0.40626 0.64963 0.85518 0.0
S302 S 0.25242 0.40154 0.86751 0.0
N303 N 0.34264 0.44506 0.86328 0.0
N304 N 0.23496 0.44637 0.86697 0.0
C305 C 0.30363 0.50101 0.86327 0.0
C306 C 0.36449 0.50025 0.86111 0.0
C307 C 0.87105 0.37733 0.17899 0.0
C308 C 0.93902 0.3968 0.16755 0.0
C309 C 0.80781 0.31496 0.18132 0.0
C310 C 0.80951 0.26892 0.1727 0.0
H311 H 0.86614 0.41054 0.18589 0.0
H312 H 0.75683 0.30269 0.18948 0.0
S313 S 0.9718 0.29326 0.14168 0.0
N314 N 1.00254 0.36275 0.14772 0.0
N315 N 0.88439 0.24678 0.15224 0.0
C316 C 0.87663 0.28731 0.1615 0.0
C317 C 0.94102 0.35069 0.15892 0.0
C318 C 1.02334 0.52044 0.03308 0.0
C319 C 0.09042 0.56166 0.05656 0.0
C320 C 1.02294 0.51759 -0.00596 0.0
C321 C 0.08963 0.556 0.97645 0.0
H322 H 0.97029 0.49067 0.04495 0.0
H323 H 0.96955 0.48532 0.97745 0.0
S324 S 0.28088 0.67089 0.02529 0.0
N325 N 0.22579 0.63997 0.05922 0.0
N326 N 0.2251 0.63616 0.98625 0.0
C327 C 0.15732 0.59631 -0.00033 0.0
C328 C 0.15769 0.59875 0.03949 0.0
C329 C 0.63463 0.10622 0.35266 0.0
C330 C 0.65639 0.07803 0.36829 0.0
C331 C 0.62568 0.10327 0.31381 0.0
C332 C 0.63755 0.07152 0.28957 0.0
H333 H 0.62509 0.13103 0.37051 0.0
H334 H 0.60737 0.12439 0.30267 0.0
S335 S 0.69398 0.98948 0.31681 0.0
N336 N 0.68982 0.0179 0.35674 0.0
N337 N 0.67144 1.01116 0.28397 0.0
C338 C 0.65943 0.0434 0.30502 0.0
C339 C 0.66935 0.04703 0.34434 0.0
C340 C 0.57202 0.51965 0.71383 0.0
C341 C 0.63076 0.55076 0.74234 0.0
C342 C 0.58624 0.52939 0.67667 0.0
C343 C 0.65967 0.57135 0.66666 0.0
H344 H 0.51441 0.48598 0.72005 0.0
H345 H 0.53951 0.5027 0.65542 0.0
S346 S 0.83322 0.66607 0.73046 0.0
N347 N 0.76529 0.62625 0.7579 0.0
N348 N 0.79187 0.64551 0.68797 0.0
C349 C 0.71893 0.60455 0.69488 0.0
C350 C 0.70451 0.59403 0.73276 0.0
C351 C 0.56366 0.04545 0.60254 0.0
C352 C 0.6259 0.08182 0.58185 0.0
C353 C 0.57228 0.04504 0.6408 0.0
C354 C 0.64346 0.08027 0.65986 0.0
H355 H 0.50766 0.01839 0.58933 0.0
H356 H 0.523 0.0187 0.65591 0.0
S357 S 0.82432 0.18108 0.61867 0.0
N358 N 0.76123 0.15238 0.58328 0.0
N359 N 0.77715 0.15091 0.65522 0.0
C360 C 0.706 0.1147 0.63935 0.0
C361 C 0.69732 0.11562 0.60034 0.0
C362 C 0.55624 0.49577 0.9562 0.0
C363 C 0.6279 0.52722 0.9449 0.0
C364 C 0.5205 0.4446 0.9748 0.0
C365 C 0.55487 0.42248 0.98278 0.0
H366 H 0.52669 0.51006 0.94979 0.0
H367 H 0.46581 0.42302 0.98339 0.0
S368 S 0.73986 0.48552 0.95554 0.0
N369 N 0.73112 0.53171 0.94109 0.0
N370 N 0.66301 0.43393 0.97539 0.0
C371 C 0.62643 0.45321 0.97106 0.0
C372 C 0.66336 0.50614 0.95247 0.0
C373 C 0.12355 0.54042 0.29697 0.0
C374 C 0.13114 0.58103 0.27524 0.0
C375 C 0.12672 0.54867 0.33593 0.0
C376 C 0.137 0.59757 0.35456 0.0
H377 H 0.11826 0.50342 0.28396 0.0
H378 H 0.12506 0.51847 0.35159 0.0
S379 S 0.14629 0.71 0.31008 0.0
N380 N 0.14078 0.66761 0.27496 0.0
N381 N 0.1441 0.68189 0.34793 0.0
C382 C 0.1387 0.63552 0.3329 0.0
C383 C 0.13643 0.62757 0.29333 0.0
loop_
_geom_bond_atom_site_label_1
_geom_bond_atom_site_label_2
_geom_bond_distance
_geom_bond_site_symmetry_2
_ccdc_geom_bond_type
Gd0 C3 2.818 . S
Gd0 O20 2.377 . S
Gd0 O22 2.448 . S
Gd0 O23 2.506 . S
Gd0 O24 2.435 . S
Gd0 O25 2.717 . S
Gd0 O27 2.395 1_455 S
Gd0 O31 2.327 . S
Gd1 C12 2.818 1_455 S
Gd1 O21 2.395 . S
Gd1 O25 2.327 . S
Gd1 O26 2.377 1_455 S
Gd1 O28 2.448 1_455 S
Gd1 O29 2.506 1_455 S
Gd1 O30 2.435 . S
Gd1 O31 2.717 . S
C2 O20 1.240 . S
C2 O21 1.240 . S
C3 Gd0 2.818 . S
C3 C4 1.510 . S
C3 O22 1.249 . S
C3 O23 1.252 . S
C4 C3 1.510 . S
C4 C5 1.404 . S
C4 C6 1.352 . S
C5 C4 1.404 . S
C5 C9 1.389 . S
C5 H32 0.930 . S
C6 C4 1.352 . S
C6 C8 1.374 . S
C6 H33 0.931 . S
C7 C8 1.359 . S
C7 C9 1.364 . S
C8 C6 1.374 . S
C8 C7 1.359 . S
C8 H34 0.931 . S
C9 C5 1.389 . S
C9 C7 1.364 . S
C9 H35 0.931 . S
C10 O24 1.256 . S
C10 O25 1.257 . S
C11 O26 1.240 . S
C11 O27 1.240 . S
C12 Gd1 2.818 1_655 S
C12 C13 1.510 . S
C12 O28 1.249 . S
C12 O29 1.252 . S
C13 C12 1.510 . S
C13 C14 1.404 . S
C13 C15 1.352 . S
C14 C13 1.404 . S
C14 C18 1.389 . S
C14 H36 0.930 . S
C15 C13 1.352 . S
C15 C17 1.374 . S
C15 H37 0.931 . S
C16 C17 1.359 . S
C16 C18 1.364 . S
C17 C15 1.374 . S
C17 C16 1.359 . S
C17 H38 0.931 . S
C18 C14 1.389 . S
C18 C16 1.364 . S
C18 H39 0.931 . S
C19 O30 1.256 . S
C19 O31 1.257 . S
O20 Gd0 2.377 . S
O20 C2 1.240 . S
O21 Gd1 2.395 . S
O21 C2 1.240 . S
O22 Gd0 2.448 . S
O22 C3 1.249 . S
O23 Gd0 2.506 . S
O23 C3 1.252 . S
O24 Gd0 2.435 . S
O24 C10 1.256 . S
O25 Gd0 2.717 . S
O25 Gd1 2.327 . S
O25 C10 1.257 . S
O26 Gd1 2.377 1_655 S
O26 C11 1.240 . S
O27 Gd0 2.395 1_655 S
O27 C11 1.240 . S
O28 Gd1 2.448 1_655 S
O28 C12 1.249 . S
O29 Gd1 2.506 1_655 S
O29 C12 1.252 . S
O30 Gd1 2.435 . S
O30 C19 1.256 . S
O31 Gd0 2.327 . S
O31 Gd1 2.717 . S
O31 C19 1.257 . S
H32 C5 0.930 . S
H33 C6 0.931 . S
H34 C8 0.931 . S
H35 C9 0.931 . S
H36 C14 0.930 . S
H37 C15 0.931 . S
H38 C17 0.931 . S
H39 C18 0.931 . S
Gd40 C43 2.818 1_545 S
Gd40 O60 2.377 1_545 S
Gd40 O62 2.448 1_545 S
Gd40 O63 2.506 1_545 S
Gd40 O64 2.435 . S
Gd40 O65 2.717 . S
Gd40 O67 2.395 . S
Gd40 O71 2.327 . S
Gd41 C52 2.818 . S
Gd41 O61 2.395 1_545 S
Gd41 O65 2.327 . S
Gd41 O66 2.377 . S
Gd41 O68 2.448 . S
Gd41 O69 2.506 . S
Gd41 O70 2.435 . S
Gd41 O71 2.717 . S
C42 O60 1.240 . S
C42 O61 1.240 . S
C43 Gd40 2.818 1_565 S
C43 C44 1.510 . S
C43 O62 1.249 . S
C43 O63 1.252 . S
C44 C43 1.510 . S
C44 C45 1.404 . S
C44 C46 1.352 . S
C45 C44 1.404 . S
C45 C49 1.389 . S
C45 H72 0.930 . S
C46 C44 1.352 . S
C46 C48 1.374 . S
C46 H73 0.931 . S
C47 C48 1.359 . S
C47 C49 1.364 . S
C48 C46 1.374 . S
C48 C47 1.359 . S
C48 H74 0.931 . S
C49 C45 1.389 . S
C49 C47 1.364 . S
C49 H75 0.931 . S
C50 O64 1.256 . S
C50 O65 1.257 . S
C51 O66 1.240 . S
C51 O67 1.240 . S
C52 Gd41 2.818 . S
C52 C53 1.510 . S
C52 O68 1.249 . S
C52 O69 1.252 . S
C53 C52 1.510 . S
C53 C54 1.404 . S
C53 C55 1.352 . S
C54 C53 1.404 . S
C54 C58 1.389 . S
C54 H76 0.930 . S
C55 C53 1.352 . S
C55 C57 1.374 . S
C55 H77 0.931 . S
C56 C57 1.359 . S
C56 C58 1.364 . S
C57 C55 1.374 . S
C57 C56 1.359 . S
C57 H78 0.931 . S
C58 C54 1.389 . S
C58 C56 1.364 . S
C58 H79 0.931 . S
C59 O70 1.256 . S
C59 O71 1.257 . S
O60 Gd40 2.377 1_565 S
O60 C42 1.240 . S
O61 Gd41 2.395 1_565 S
O61 C42 1.240 . S
O62 Gd40 2.448 1_565 S
O62 C43 1.249 . S
O63 Gd40 2.506 1_565 S
O63 C43 1.252 . S
O64 Gd40 2.435 . S
O64 C50 1.256 . S
O65 Gd40 2.717 . S
O65 Gd41 2.327 . S
O65 C50 1.257 . S
O66 Gd41 2.377 . S
O66 C51 1.240 . S
O67 Gd40 2.395 . S
O67 C51 1.240 . S
O68 Gd41 2.448 . S
O68 C52 1.249 . S
O69 Gd41 2.506 . S
O69 C52 1.252 . S
O70 Gd41 2.435 . S
O70 C59 1.256 . S
O71 Gd40 2.327 . S
O71 Gd41 2.717 . S
O71 C59 1.257 . S
H72 C45 0.930 . S
H73 C46 0.931 . S
H74 C48 0.931 . S
H75 C49 0.931 . S
H76 C54 0.930 . S
H77 C55 0.931 . S
H78 C57 0.931 . S
H79 C58 0.931 . S
Gd80 C83 2.818 . S
Gd80 O100 2.377 . S
Gd80 O102 2.448 . S
Gd80 O103 2.506 . S
Gd80 O104 2.435 . S
Gd80 O105 2.717 . S
Gd80 O107 2.395 . S
Gd80 O111 2.327 . S
Gd81 C92 2.818 . S
Gd81 O101 2.395 . S
Gd81 O105 2.327 . S
Gd81 O106 2.377 . S
Gd81 O108 2.448 . S
Gd81 O109 2.506 . S
Gd81 O110 2.435 . S
Gd81 O111 2.717 . S
C82 O100 1.240 . S
C82 O101 1.240 . S
C83 Gd80 2.818 . S
C83 C84 1.510 . S
C83 O102 1.249 . S
C83 O103 1.252 . S
C84 C83 1.510 . S
C84 C85 1.404 . S
C84 C86 1.352 . S
C85 C84 1.404 . S
C85 C89 1.389 . S
C85 H112 0.930 . S
C86 C84 1.352 . S
C86 C88 1.374 . S
C86 H113 0.931 . S
C87 C88 1.359 . S
C87 C89 1.364 . S
C88 C86 1.374 . S
C88 C87 1.359 . S
C88 H114 0.931 . S
C89 C85 1.389 . S
C89 C87 1.364 . S
C89 H115 0.931 . S
C90 O104 1.256 . S
C90 O105 1.257 . S
C91 O106 1.240 . S
C91 O107 1.240 . S
C92 Gd81 2.818 . S
C92 C93 1.510 . S
C92 O108 1.249 . S
C92 O109 1.252 . S
C93 C92 1.510 . S
C93 C94 1.404 . S
C93 C95 1.352 . S
C94 C93 1.404 . S
C94 C98 1.389 . S
C94 H116 0.930 . S
C95 C93 1.352 . S
C95 C97 1.374 . S
C95 H117 0.931 . S
C96 C97 1.359 . S
C96 C98 1.364 . S
C97 C95 1.374 . S
C97 C96 1.359 . S
C97 H118 0.931 . S
C98 C94 1.389 . S
C98 C96 1.364 . S
C98 H119 0.931 . S
C99 O110 1.256 . S
C99 O111 1.257 . S
O100 Gd80 2.377 . S
O100 C82 1.240 . S
O101 Gd81 2.395 . S
O101 C82 1.240 . S
O102 Gd80 2.448 . S
O102 C83 1.249 . S
O103 Gd80 2.506 . S
O103 C83 1.252 . S
O104 Gd80 2.435 . S
O104 C90 1.256 . S
O105 Gd80 2.717 . S
O105 Gd81 2.327 . S
O105 C90 1.257 . S
O106 Gd81 2.377 . S
O106 C91 1.240 . S
O107 Gd80 2.395 . S
O107 C91 1.240 . S
O108 Gd81 2.448 . S
O108 C92 1.249 . S
O109 Gd81 2.506 . S
O109 C92 1.252 . S
O110 Gd81 2.435 . S
O110 C99 1.256 . S
O111 Gd80 2.327 . S
O111 Gd81 2.717 . S
O111 C99 1.257 . S
H112 C85 0.930 . S
H113 C86 0.931 . S
H114 C88 0.931 . S
H115 C89 0.931 . S
H116 C94 0.930 . S
H117 C95 0.931 . S
H118 C97 0.931 . S
H119 C98 0.931 . S
H120 C123 0.929 . S
H121 C126 0.929 . S
H122 C128 0.930 . S
C123 H120 0.929 . S
C123 C124 1.398 . S
C123 C125 1.396 1_565 S
C124 C123 1.398 . S
C124 C128 1.407 1_565 S
C125 C123 1.396 1_545 S
C125 C126 1.394 . S
C126 H121 0.929 . S
C126 C125 1.394 . S
C126 C127 1.382 . S
C127 C126 1.382 . S
C127 C128 1.392 . S
C127 N129 1.420 . S
C128 H122 0.930 . S
C128 C124 1.407 1_545 S
C128 C127 1.392 . S
N129 C127 1.420 . S
N129 C130 1.244 . S
C130 N129 1.244 . S
H131 C134 0.929 . S
H132 C137 0.929 . S
H133 C139 0.930 . S
C134 H131 0.929 . S
C134 C135 1.398 . S
C134 C136 1.396 . S
C135 C134 1.398 . S
C135 C139 1.407 . S
C136 C134 1.396 . S
C136 C137 1.394 . S
C137 H132 0.929 . S
C137 C136 1.394 . S
C137 C138 1.382 . S
C138 C137 1.382 . S
C138 C139 1.392 . S
C138 N140 1.420 . S
C139 H133 0.930 . S
C139 C135 1.407 . S
C139 C138 1.392 . S
N140 C138 1.420 . S
N140 C141 1.244 . S
C141 N140 1.244 . S
H142 C145 0.929 1_655 S
H143 C148 0.929 . S
H144 C150 0.930 . S
C145 H142 0.929 1_455 S
C145 C146 1.398 . S
C145 C147 1.396 . S
C146 C145 1.398 . S
C146 C150 1.407 . S
C147 C145 1.396 . S
C147 C148 1.394 . S
C148 H143 0.929 . S
C148 C147 1.394 . S
C148 C149 1.382 . S
C149 C148 1.382 . S
C149 C150 1.392 . S
C149 N151 1.420 . S
C150 H144 0.930 . S
C150 C146 1.407 . S
C150 C149 1.392 . S
N151 C149 1.420 . S
N151 C152 1.244 . S
C152 N151 1.244 . S
H153 C156 0.929 . S
H154 C159 0.929 . S
H155 C161 0.930 . S
C156 H153 0.929 . S
C156 C157 1.398 . S
C156 C158 1.396 . S
C157 C156 1.398 . S
C157 C161 1.407 . S
C158 C156 1.396 . S
C158 C159 1.394 1_455 S
C159 H154 0.929 . S
C159 C158 1.394 1_655 S
C159 C160 1.382 . S
C160 C159 1.382 . S
C160 C161 1.392 1_655 S
C160 N162 1.420 . S
C161 H155 0.930 . S
C161 C157 1.407 . S
C161 C160 1.392 1_455 S
N162 C160 1.420 . S
N162 C163 1.244 . S
C163 N162 1.244 . S
H164 C167 0.929 . S
H165 C170 0.929 1_565 S
H166 C172 0.930 . S
C167 H164 0.929 . S
C167 C168 1.398 . S
C167 C169 1.396 . S
C168 C167 1.398 . S
C168 C172 1.407 . S
C169 C167 1.396 . S
C169 C170 1.394 . S
C170 H165 0.929 1_545 S
C170 C169 1.394 . S
C170 C171 1.382 . S
C171 C170 1.382 . S
C171 C172 1.392 . S
C171 N173 1.420 . S
C172 H166 0.930 . S
C172 C168 1.407 . S
C172 C171 1.392 . S
N173 C171 1.420 . S
N173 C174 1.244 1_545 S
C174 N173 1.244 1_565 S
H175 C178 0.929 . S
H176 C181 0.929 . S
H177 C183 0.930 . S
C178 H175 0.929 . S
C178 C179 1.398 . S
C178 C180 1.396 . S
C179 C178 1.398 . S
C179 C183 1.407 . S
C180 C178 1.396 . S
C180 C181 1.394 . S
C181 H176 0.929 . S
C181 C180 1.394 . S
C181 C182 1.382 . S
C182 C181 1.382 . S
C182 C183 1.392 . S
C182 N184 1.420 . S
C183 H177 0.930 . S
C183 C179 1.407 . S
C183 C182 1.392 . S
N184 C182 1.420 . S
N184 C185 1.244 . S
C185 N184 1.244 . S
C186 C187 1.369 . S
C186 C188 1.419 . S
C186 H190 0.930 . S
C187 C186 1.369 . S
C187 C196 1.429 . S
C188 C186 1.419 . S
C188 C189 1.363 . S
C188 H191 0.929 . S
C189 C188 1.363 . S
C189 C195 1.428 . S
H190 C186 0.930 . S
H191 C188 0.929 . S
S192 N193 1.613 . S
S192 N194 1.610 . S
N193 S192 1.613 . S
N193 C196 1.350 . S
N194 S192 1.610 . S
N194 C195 1.351 . S
C195 C189 1.428 . S
C195 N194 1.351 . S
C195 C196 1.434 . S
C196 C187 1.429 . S
C196 N193 1.350 . S
C196 C195 1.434 . S
C197 C198 1.369 . S
C197 C199 1.419 . S
C197 H201 0.930 . S
C198 C197 1.369 . S
C198 C207 1.429 . S
C199 C197 1.419 . S
C199 C200 1.363 . S
C199 H202 0.929 . S
C200 C199 1.363 . S
C200 C206 1.428 . S
H201 C197 0.930 . S
H202 C199 0.929 . S
S203 N204 1.613 . S
S203 N205 1.610 . S
N204 S203 1.613 . S
N204 C207 1.350 . S
N205 S203 1.610 . S
N205 C206 1.351 . S
C206 C200 1.428 . S
C206 N205 1.351 . S
C206 C207 1.434 . S
C207 C198 1.429 . S
C207 N204 1.350 . S
C207 C206 1.434 . S
C208 C209 1.369 . S
C208 C210 1.419 . S
C208 H212 0.930 . S
C209 C208 1.369 . S
C209 C218 1.429 . S
C210 C208 1.419 . S
C210 C211 1.363 . S
C210 H213 0.929 . S
C211 C210 1.363 . S
C211 C217 1.428 . S
H212 C208 0.930 . S
H213 C210 0.929 . S
S214 N215 1.613 1_545 S
S214 N216 1.610 . S
N215 S214 1.613 1_565 S
N215 C218 1.350 . S
N216 S214 1.610 . S
N216 C217 1.351 1_545 S
C217 C211 1.428 . S
C217 N216 1.351 1_565 S
C217 C218 1.434 . S
C218 C209 1.429 . S
C218 N215 1.350 . S
C218 C217 1.434 . S
C219 C220 1.369 . S
C219 C221 1.419 . S
C219 H223 0.930 . S
C220 C219 1.369 . S
C220 C229 1.429 . S
C221 C219 1.419 . S
C221 C222 1.363 . S
C221 H224 0.929 . S
C222 C221 1.363 . S
C222 C228 1.428 . S
H223 C219 0.930 . S
H224 C221 0.929 . S
S225 N226 1.613 . S
S225 N227 1.610 . S
N226 S225 1.613 . S
N226 C229 1.350 . S
N227 S225 1.610 . S
N227 C228 1.351 . S
C228 C222 1.428 . S
C228 N227 1.351 . S
C228 C229 1.434 . S
C229 C220 1.429 . S
C229 N226 1.350 . S
C229 C228 1.434 . S
C230 C231 1.369 . S
C230 C232 1.419 . S
C230 H234 0.930 . S
C231 C230 1.369 . S
C231 C240 1.429 . S
C232 C230 1.419 . S
C232 C233 1.363 . S
C232 H235 0.929 . S
C233 C232 1.363 . S
C233 C239 1.428 . S
H234 C230 0.930 . S
H235 C232 0.929 . S
S236 N237 1.613 . S
S236 N238 1.610 . S
N237 S236 1.613 . S
N237 C240 1.350 . S
N238 S236 1.610 . S
N238 C239 1.351 . S
C239 C233 1.428 . S
C239 N238 1.351 . S
C239 C240 1.434 . S
C240 C231 1.429 . S
C240 N237 1.350 . S
C240 C239 1.434 . S
C241 C242 1.369 . S
C241 C243 1.419 . S
C241 H245 0.930 . S
C242 C241 1.369 . S
C242 C251 1.429 . S
C243 C241 1.419 . S
C243 C244 1.363 . S
C243 H246 0.929 . S
C244 C243 1.363 . S
C244 C250 1.428 . S
H245 C241 0.930 . S
H246 C243 0.929 . S
S247 N248 1.613 . S
S247 N249 1.610 . S
N248 S247 1.613 . S
N248 C251 1.350 . S
N249 S247 1.610 . S
N249 C250 1.351 . S
C250 C244 1.428 . S
C250 N249 1.351 . S
C250 C251 1.434 . S
C251 C242 1.429 . S
C251 N248 1.350 . S
C251 C250 1.434 . S
C252 C253 1.369 . S
C252 C254 1.419 . S
C252 H256 0.930 . S
C253 C252 1.369 . S
C253 C262 1.429 . S
C254 C252 1.419 . S
C254 C255 1.363 . S
C254 H257 0.929 . S
C255 C254 1.363 . S
C255 C261 1.428 . S
H256 C252 0.930 . S
H257 C254 0.929 . S
S258 N259 1.613 . S
S258 N260 1.610 . S
N259 S258 1.613 . S
N259 C262 1.350 . S
N260 S258 1.610 . S
N260 C261 1.351 . S
C261 C255 1.428 . S
C261 N260 1.351 . S
C261 C262 1.434 . S
C262 C253 1.429 . S
C262 N259 1.350 . S
C262 C261 1.434 . S
C263 C264 1.369 . S
C263 C265 1.419 . S
C263 H267 0.930 . S
C264 C263 1.369 . S
C264 C273 1.429 . S
C265 C263 1.419 . S
C265 C266 1.363 . S
C265 H268 0.929 . S
C266 C265 1.363 . S
C266 C272 1.428 . S
H267 C263 0.930 . S
H268 C265 0.929 . S
S269 N270 1.613 . S
S269 N271 1.610 . S
N270 S269 1.613 . S
N270 C273 1.350 . S
N271 S269 1.610 . S
N271 C272 1.351 . S
C272 C266 1.428 . S
C272 N271 1.351 . S
C272 C273 1.434 . S
C273 C264 1.429 . S
C273 N270 1.350 . S
C273 C272 1.434 . S
C274 C275 1.369 . S
C274 C276 1.419 . S
C274 H278 0.930 . S
C275 C274 1.369 . S
C275 C284 1.429 . S
C276 C274 1.419 . S
C276 C277 1.363 . S
C276 H279 0.929 . S
C277 C276 1.363 . S
C277 C283 1.428 . S
H278 C274 0.930 . S
H279 C276 0.929 . S
S280 N281 1.613 . S
S280 N282 1.610 . S
N281 S280 1.613 . S
N281 C284 1.350 . S
N282 S280 1.610 . S
N282 C283 1.351 . S
C283 C277 1.428 . S
C283 N282 1.351 . S
C283 C284 1.434 . S
C284 C275 1.429 . S
C284 N281 1.350 . S
C284 C283 1.434 . S
C285 C286 1.369 . S
C285 C287 1.419 . S
C285 H289 0.930 . S
C286 C285 1.369 . S
C286 C295 1.429 . S
C287 C285 1.419 . S
C287 C288 1.363 . S
C287 H290 0.929 . S
C288 C287 1.363 . S
C288 C294 1.428 . S
H289 C285 0.930 . S
H290 C287 0.929 . S
S291 N292 1.613 . S
S291 N293 1.610 . S
N292 S291 1.613 . S
N292 C295 1.350 . S
N293 S291 1.610 . S
N293 C294 1.351 . S
C294 C288 1.428 . S
C294 N293 1.351 . S
C294 C295 1.434 . S
C295 C286 1.429 . S
C295 N292 1.350 . S
C295 C294 1.434 . S
C296 C297 1.369 . S
C296 C298 1.419 . S
C296 H300 0.930 . S
C297 C296 1.369 . S
C297 C306 1.429 . S
C298 C296 1.419 . S
C298 C299 1.363 . S
C298 H301 0.929 . S
C299 C298 1.363 . S
C299 C305 1.428 . S
H300 C296 0.930 . S
H301 C298 0.929 . S
S302 N303 1.613 . S
S302 N304 1.610 . S
N303 S302 1.613 . S
N303 C306 1.350 . S
N304 S302 1.610 . S
N304 C305 1.351 . S
C305 C299 1.428 . S
C305 N304 1.351 . S
C305 C306 1.434 . S
C306 C297 1.429 . S
C306 N303 1.350 . S
C306 C305 1.434 . S
C307 C308 1.369 . S
C307 C309 1.419 . S
C307 H311 0.930 . S
C308 C307 1.369 . S
C308 C317 1.429 . S
C309 C307 1.419 . S
C309 C310 1.363 . S
C309 H312 0.929 . S
C310 C309 1.363 . S
C310 C316 1.428 . S
H311 C307 0.930 . S
H312 C309 0.929 . S
S313 N314 1.613 . S
S313 N315 1.610 . S
N314 S313 1.613 . S
N314 C317 1.350 . S
N315 S313 1.610 . S
N315 C316 1.351 . S
C316 C310 1.428 . S
C316 N315 1.351 . S
C316 C317 1.434 . S
C317 C308 1.429 . S
C317 N314 1.350 . S
C317 C316 1.434 . S
C318 C319 1.369 . S
C318 C320 1.419 1_554 S
C318 H322 0.930 1_455 S
C319 C318 1.369 . S
C319 C328 1.429 . S
C320 C318 1.419 1_556 S
C320 C321 1.363 . S
C320 H323 0.929 1_455 S
C321 C320 1.363 . S
C321 C327 1.428 1_556 S
H322 C318 0.930 1_655 S
H323 C320 0.929 1_655 S
S324 N325 1.613 . S
S324 N326 1.610 1_554 S
N325 S324 1.613 . S
N325 C328 1.350 . S
N326 S324 1.610 1_556 S
N326 C327 1.351 1_556 S
C327 C321 1.428 1_554 S
C327 N326 1.351 1_554 S
C327 C328 1.434 . S
C328 C319 1.429 . S
C328 N325 1.350 . S
C328 C327 1.434 . S
C329 C330 1.369 . S
C329 C331 1.419 . S
C329 H333 0.930 . S
C330 C329 1.369 . S
C330 C339 1.429 1_545 S
C331 C329 1.419 . S
C331 C332 1.363 . S
C331 H334 0.929 . S
C332 C331 1.363 . S
C332 C338 1.428 1_545 S
H333 C329 0.930 . S
H334 C331 0.929 . S
S335 N336 1.613 . S
S335 N337 1.610 . S
N336 S335 1.613 . S
N336 C339 1.350 . S
N337 S335 1.610 . S
N337 C338 1.351 . S
C338 C332 1.428 1_565 S
C338 N337 1.351 . S
C338 C339 1.434 . S
C339 C330 1.429 1_565 S
C339 N336 1.350 . S
C339 C338 1.434 . S
C340 C341 1.369 . S
C340 C342 1.419 . S
C340 H344 0.930 . S
C341 C340 1.369 . S
C341 C350 1.429 . S
C342 C340 1.419 . S
C342 C343 1.363 . S
C342 H345 0.929 . S
C343 C342 1.363 . S
C343 C349 1.428 . S
H344 C340 0.930 . S
H345 C342 0.929 . S
S346 N347 1.613 . S
S346 N348 1.610 . S
N347 S346 1.613 . S
N347 C350 1.350 . S
N348 S346 1.610 . S
N348 C349 1.351 . S
C349 C343 1.428 . S
C349 N348 1.351 . S
C349 C350 1.434 . S
C350 C341 1.429 . S
C350 N347 1.350 . S
C350 C349 1.434 . S
C351 C352 1.369 1_565 S
C351 C353 1.419 . S
C351 H355 0.930 . S
C352 C351 1.369 1_545 S
C352 C361 1.429 . S
C353 C351 1.419 . S
C353 C354 1.363 1_565 S
C353 H356 0.929 . S
C354 C353 1.363 1_545 S
C354 C360 1.428 . S
H355 C351 0.930 . S
H356 C353 0.929 . S
S357 N358 1.613 . S
S357 N359 1.610 . S
N358 S357 1.613 . S
N358 C361 1.350 . S
N359 S357 1.610 . S
N359 C360 1.351 . S
C360 C354 1.428 . S
C360 N359 1.351 . S
C360 C361 1.434 . S
C361 C352 1.429 . S
C361 N358 1.350 . S
C361 C360 1.434 . S
C362 C363 1.369 . S
C362 C364 1.419 1_556 S
C362 H366 0.930 . S
C363 C362 1.369 . S
C363 C372 1.429 . S
C364 C362 1.419 1_554 S
C364 C365 1.363 . S
C364 H367 0.929 . S
C365 C364 1.363 . S
C365 C371 1.428 1_554 S
H366 C362 0.930 . S
H367 C364 0.929 . S
S368 N369 1.613 . S
S368 N370 1.610 . S
N369 S368 1.613 . S
N369 C372 1.350 . S
N370 S368 1.610 . S
N370 C371 1.351 . S
C371 C365 1.428 1_556 S
C371 N370 1.351 . S
C371 C372 1.434 . S
C372 C363 1.429 . S
C372 N369 1.350 . S
C372 C371 1.434 . S
C373 C374 1.368 . S
C373 C375 1.417 1_455 S
C373 H377 0.933 1_455 S
C374 C373 1.368 . S
C374 C383 1.429 . S
C375 C373 1.417 1_655 S
C375 C376 1.363 1_655 S
C375 H378 0.929 . S
C376 C375 1.363 1_455 S
C376 C382 1.428 . S
H377 C373 0.933 1_655 S
H378 C375 0.929 . S
S379 N380 1.613 . S
S379 N381 1.610 . S
N380 S379 1.613 . S
N380 C383 1.350 . S
N381 S379 1.610 . S
N381 C382 1.351 . S
C382 C376 1.428 . S
C382 N381 1.351 . S
C382 C383 1.434 . S
C383 C374 1.429 . S
C383 N380 1.350 . S
C383 C382 1.434 . S
C187 C7 1.157 . S
C189 C185 1.275 . S
C198 C51 1.959 . S
C200 C163 1.900 . S
C209 C87 1.414 . S
C211 C174 1.474 . S
C220 C16 0.701 . S
C222 C179 0.649 . S
C233 C157 1.877 . S
C231 C42 1.931 . S
C244 C168 1.274 . S
C242 C96 1.259 . S
C253 C47 1.361 . S
C255 C141 1.403 . S
C264 C91 3.085 . S
C266 C146 3.034 1_655 S
C275 C2 1.964 . S
C277 C124 1.932 . S
C288 C135 1.301 . S
C286 C56 1.268 . S
C299 C152 3.022 . S
C297 C82 3.077 . S
C308 C11 1.971 . S
C310 C130 1.930 . S
C321 C147 1.753 . S
C319 C19 1.716 . S
C330 C50 1.384 . S
C332 C125 1.448 . S
C341 C99 1.505 . S
C343 C136 1.536 . S
C354 C169 1.493 . S
C352 C59 1.489 . S
C365 C180 1.221 . S
C363 C90 1.227 . S
C374 C10 1.368 . S
C376 C158 1.402 . S
