# Generated by pormake.
# Topology pto, (3,4)-cn, num edge types: 1
# Building blocks:
#     Node 0, Type 0, BuildingBlock: PAMTOO_clean_linker_0, # of connection points: 3
#     Node 1, Type 0, BuildingBlock: PAMTOO_clean_linker_0, # of connection points: 3
#     Node 2, Type 0, BuildingBlock: PAMTOO_clean_linker_0, # of connection points: 3
#     Node 3, Type 0, BuildingBlock: PAMTOO_clean_linker_0, # of connection points: 3
#     Node 4, Type 0, BuildingBlock: PAMTOO_clean_linker_0, # of connection points: 3
#     Node 5, Type 0, BuildingBlock: PAMTOO_clean_linker_0, # of connection points: 3
#     Node 6, Type 0, BuildingBlock: PAMTOO_clean_linker_0, # of connection points: 3
#     Node 7, Type 0, BuildingBlock: PAMTOO_clean_linker_0, # of connection points: 3
#     Node 8, Type 1, BuildingBlock: KOZSID_clean_sbu_0, # of connection points: 4
#     Node 9, Type 1, BuildingBlock: KOZSID_clean_sbu_0, # of connection points: 4
#     Node 10, Type 1, BuildingBlock: KOZSID_clean_sbu_0, # of connection points: 4
#     Node 11, Type 1, BuildingBlock: KOZSID_clean_sbu_0, # of connection points: 4
#     Node 12, Type 1, BuildingBlock: KOZSID_clean_sbu_0, # of connection points: 4
#     Node 13, Type 1, BuildingBlock: KOZSID_clean_sbu_0, # of connection points: 4
#     Edge 14, Type (0, 1), BuildingBlock: XUDNAN_clean_linker_2, # of connection points: 2
#     Edge 15, Type (0, 1), BuildingBlock: XUDNAN_clean_linker_2, # of connection points: 2
#     Edge 16, Type (0, 1), BuildingBlock: XUDNAN_clean_linker_2, # of connection points: 2
#     Edge 17, Type (0, 1), BuildingBlock: XUDNAN_clean_linker_2, # of connection points: 2
#     Edge 18, Type (0, 1), BuildingBlock: XUDNAN_clean_linker_2, # of connection points: 2
#     Edge 19, Type (0, 1), BuildingBlock: XUDNAN_clean_linker_2, # of connection points: 2
#     Edge 20, Type (0, 1), BuildingBlock: XUDNAN_clean_linker_2, # of connection points: 2
#     Edge 21, Type (0, 1), BuildingBlock: XUDNAN_clean_linker_2, # of connection points: 2
#     Edge 22, Type (0, 1), BuildingBlock: XUDNAN_clean_linker_2, # of connection points: 2
#     Edge 23, Type (0, 1), BuildingBlock: XUDNAN_clean_linker_2, # of connection points: 2
#     Edge 24, Type (0, 1), BuildingBlock: XUDNAN_clean_linker_2, # of connection points: 2
#     Edge 25, Type (0, 1), BuildingBlock: XUDNAN_clean_linker_2, # of connection points: 2
#     Edge 26, Type (0, 1), BuildingBlock: XUDNAN_clean_linker_2, # of connection points: 2
#     Edge 27, Type (0, 1), BuildingBlock: XUDNAN_clean_linker_2, # of connection points: 2
#     Edge 28, Type (0, 1), BuildingBlock: XUDNAN_clean_linker_2, # of connection points: 2
#     Edge 29, Type (0, 1), BuildingBlock: XUDNAN_clean_linker_2, # of connection points: 2
#     Edge 30, Type (0, 1), BuildingBlock: XUDNAN_clean_linker_2, # of connection points: 2
#     Edge 31, Type (0, 1), BuildingBlock: XUDNAN_clean_linker_2, # of connection points: 2
#     Edge 32, Type (0, 1), BuildingBlock: XUDNAN_clean_linker_2, # of connection points: 2
#     Edge 33, Type (0, 1), BuildingBlock: XUDNAN_clean_linker_2, # of connection points: 2
#     Edge 34, Type (0, 1), BuildingBlock: XUDNAN_clean_linker_2, # of connection points: 2
#     Edge 35, Type (0, 1), BuildingBlock: XUDNAN_clean_linker_2, # of connection points: 2
#     Edge 36, Type (0, 1), BuildingBlock: XUDNAN_clean_linker_2, # of connection points: 2
#     Edge 37, Type (0, 1), BuildingBlock: XUDNAN_clean_linker_2, # of connection points: 2
# Relax obj value: 0.025
# Max RMSD: 0.173
# Mean RMSD: 0.074
data_MOF--net-pto--node1-KOZSID_clean_sbu_0--node2-PAMTOO_clean_linker_0--edge1-XUDNAN_clean_linker_2
_symmetry_space_group_name_H-M    P1
_symmetry_Int_Tables_number       1
_symmetry_cell_setting            triclinic
loop_
_symmetry_equiv_pos_as_xyz
'x, y, z'
_cell_length_a     39.053231
_cell_length_b     49.790147
_cell_length_c     45.372323
_cell_angle_alpha  81.915198
_cell_angle_beta   80.486483
_cell_angle_gamma 102.99952
loop_
_atom_site_label
_atom_site_type_symbol
_atom_site_fract_x
_atom_site_fract_y
_atom_site_fract_z
_atom_type_partial_charge
H0 H 0.18407 0.2702 0.38298 0.0
H1 H 0.26773 0.25847 0.31526 0.0
H2 H 0.23395 0.33444 0.30328 0.0
H3 H 0.26017 0.31835 0.24279 0.0
C4 C 0.27179 0.30175 0.25306 0.0
O5 O 0.27867 0.30728 0.2808 0.0
H6 H 0.25205 0.28111 0.25592 0.0
C7 C 0.20333 0.27803 0.36169 0.0
C8 C 0.206 0.30479 0.34478 0.0
C9 C 0.22491 0.2609 0.35092 0.0
C10 C 0.25045 0.27116 0.32368 0.0
C11 C 0.25382 0.29772 0.30694 0.0
C12 C 0.23155 0.31433 0.31725 0.0
H13 H 0.23447 0.78793 0.72032 0.0
H14 H 0.282 0.76565 0.79643 0.0
H15 H 0.29866 0.85215 0.75706 0.0
H16 H 0.36125 0.84627 0.78621 0.0
C17 C 0.35025 0.82313 0.79165 0.0
O18 O 0.31323 0.81714 0.79899 0.0
H19 H 0.35951 0.81493 0.77091 0.0
C20 C 0.25047 0.79401 0.73679 0.0
C21 C 0.26573 0.82263 0.73586 0.0
C22 C 0.25599 0.77314 0.75851 0.0
C23 C 0.27733 0.78126 0.77944 0.0
C24 C 0.29242 0.80966 0.77893 0.0
C25 C 0.2863 0.83028 0.75746 0.0
H26 H 0.73436 0.82125 0.30516 0.0
H27 H 0.76777 0.75562 0.26413 0.0
H28 H 0.79249 0.77 0.34995 0.0
H29 H 0.84928 0.76364 0.29678 0.0
C30 C 0.83305 0.74256 0.29531 0.0
O31 O 0.79741 0.73891 0.30841 0.0
H32 H 0.83537 0.74135 0.2708 0.0
C33 C 0.74813 0.80464 0.30516 0.0
C34 C 0.76384 0.7979 0.33001 0.0
C35 C 0.74902 0.78957 0.28105 0.0
C36 C 0.76592 0.76734 0.28245 0.0
C37 C 0.78139 0.76035 0.30727 0.0
C38 C 0.7802 0.7755 0.331 0.0
H39 H 0.77808 0.30807 0.7847 0.0
H40 H 0.71949 0.23236 0.76152 0.0
H41 H 0.81945 0.27946 0.70407 0.0
H42 H 0.75236 0.26196 0.67779 0.0
C43 C 0.74485 0.23951 0.68919 0.0
O44 O 0.76497 0.23601 0.71111 0.0
H45 H 0.7159 0.23362 0.70019 0.0
C46 C 0.77579 0.29272 0.76993 0.0
C47 C 0.80287 0.29634 0.74398 0.0
C48 C 0.74541 0.26979 0.77652 0.0
C49 C 0.74265 0.25019 0.75698 0.0
C50 C 0.76922 0.25383 0.7309 0.0
C51 C 0.79936 0.27668 0.72458 0.0
H52 H 0.73973 0.8171 0.76297 0.0
H53 H 0.78455 0.74899 0.79331 0.0
H54 H 0.80071 0.78126 0.69816 0.0
H55 H 0.77977 0.71858 0.71914 0.0
C56 C 0.79748 0.71763 0.73594 0.0
O57 O 0.81389 0.74445 0.73889 0.0
H58 H 0.78041 0.70593 0.75815 0.0
C59 C 0.75508 0.80207 0.75804 0.0
C60 C 0.76937 0.80155 0.7276 0.0
C61 C 0.76026 0.78321 0.78211 0.0
C62 C 0.7805 0.76397 0.7753 0.0
C63 C 0.79477 0.76323 0.74512 0.0
C64 C 0.78921 0.78193 0.7214 0.0
H65 H 0.80144 0.26709 0.35575 0.0
H66 H 0.74025 0.22756 0.2954 0.0
H67 H 0.7628 0.31651 0.2889 0.0
H68 H 0.69093 0.29167 0.27846 0.0
C69 C 0.69596 0.27234 0.27089 0.0
O70 O 0.73227 0.27406 0.26647 0.0
H71 H 0.68081 0.25399 0.28889 0.0
C72 C 0.78689 0.26847 0.33744 0.0
C73 C 0.78383 0.29484 0.32381 0.0
C74 C 0.77129 0.24391 0.32736 0.0
C75 C 0.75272 0.24612 0.30342 0.0
C76 C 0.74956 0.2722 0.28984 0.0
C77 C 0.76505 0.29641 0.29999 0.0
H78 H 0.18983 0.28859 0.71246 0.0
H79 H 0.26356 0.31984 0.7685 0.0
H80 H 0.27571 0.25012 0.72662 0.0
H81 H 0.29727 0.2424 0.78556 0.0
C82 C 0.29109 0.26208 0.79106 0.0
O83 O 0.29833 0.28145 0.76439 0.0
H84 H 0.2621 0.25672 0.80213 0.0
C85 C 0.21328 0.28803 0.72215 0.0
C86 C 0.23203 0.26753 0.71643 0.0
C87 C 0.22435 0.30729 0.74092 0.0
C88 C 0.25422 0.30544 0.75402 0.0
C89 C 0.27225 0.28476 0.74905 0.0
C90 C 0.26177 0.26635 0.72978 0.0
H91 H 0.19587 0.79426 0.39098 0.0
H92 H 0.25108 0.75727 0.32327 0.0
H93 H 0.29672 0.84105 0.33256 0.0
H94 H 0.30312 0.83479 0.27072 0.0
C95 C 0.3029 0.81223 0.27276 0.0
O96 O 0.304 0.80146 0.30226 0.0
H97 H 0.27769 0.80074 0.26694 0.0
C98 C 0.21853 0.79557 0.37301 0.0
C99 C 0.24568 0.82092 0.36333 0.0
C100 C 0.22038 0.77208 0.35909 0.0
C101 C 0.24955 0.77448 0.33519 0.0
C102 C 0.27663 0.79932 0.32572 0.0
C103 C 0.27505 0.82215 0.34007 0.0
C104 C 0.0508 0.56129 0.40403 0.0
C105 C 0.05308 0.56593 0.43315 0.0
C106 C 0.0284 0.54419 0.4527 0.0
C107 C 0.01263 0.52758 0.43444 0.0
N108 N 0.02632 0.53708 0.40443 0.0
Co109 Co 0.01001 0.52056 0.36975 0.0
N110 N 0.96817 0.49253 0.39792 0.0
C111 C 0.95952 0.48954 0.42856 0.0
C112 C 0.92948 0.46843 0.44179 0.0
C113 C 0.91824 0.45719 0.41824 0.0
C114 C 0.9422 0.47217 0.39186 0.0
N115 N 0.99413 0.50377 0.33504 0.0
C116 C 0.96629 0.48183 0.33501 0.0
C117 C 0.96556 0.47645 0.30587 0.0
C118 C 0.99417 0.49544 0.28688 0.0
C119 C 0.01065 0.51129 0.30537 0.0
N120 N 0.05125 0.54926 0.34161 0.0
C121 C 0.06074 0.55191 0.31108 0.0
C122 C 0.08819 0.57505 0.29767 0.0
C123 C 0.0961 0.58844 0.32089 0.0
C124 C 0.07301 0.57252 0.34725 0.0
N125 N 0.04037 0.49338 0.37401 0.0
C126 C 0.075 0.44925 0.37763 0.0
C127 C 0.08147 0.46874 0.35076 0.0
C128 C 0.06407 0.49043 0.34947 0.0
C129 C 0.05272 0.45324 0.40316 0.0
C130 C 0.03624 0.47544 0.40097 0.0
N131 N 0.97979 0.54742 0.36541 0.0
C132 C 0.96085 0.58238 0.33392 0.0
C133 C 0.94194 0.5893 0.35953 0.0
C134 C 0.94136 0.5741 0.38808 0.0
C135 C 0.96029 0.55344 0.39048 0.0
C136 C 0.97923 0.56145 0.33734 0.0
H137 H 0.95926 0.54288 0.41288 0.0
H138 H 0.99346 0.55735 0.31699 0.0
H139 H 0.0696 0.504 0.32807 0.0
H140 H 0.01969 0.47717 0.42131 0.0
C141 C 0.98131 0.50589 0.44437 0.0
C142 C 0.07071 0.58132 0.3767 0.0
C143 C 0.93996 0.46548 0.36183 0.0
C144 C 0.04117 0.53373 0.29547 0.0
H145 H 0.06984 0.58376 0.43948 0.0
H146 H 0.02127 0.54174 0.47719 0.0
H147 H 0.91759 0.46165 0.46576 0.0
H148 H 0.89538 0.43958 0.42031 0.0
H149 H 0.94638 0.46042 0.29905 0.0
H150 H 0.002 0.49745 0.26249 0.0
H151 H 0.09987 0.58207 0.27368 0.0
H152 H 0.1157 0.60822 0.31848 0.0
H153 H 0.09872 0.46663 0.33037 0.0
H154 H 0.04764 0.43907 0.42474 0.0
H155 H 0.96245 0.59359 0.31128 0.0
H156 H 0.92648 0.57814 0.40861 0.0
C157 C 0.08509 0.57145 0.7703 0.0
C158 C 0.08538 0.57619 0.79969 0.0
C159 C 0.05612 0.55742 0.81805 0.0
C160 C 0.03972 0.54235 0.79891 0.0
N161 N 0.05683 0.55022 0.76941 0.0
Co162 Co 0.04187 0.53423 0.73392 0.0
N163 N 0.99862 0.50672 0.76101 0.0
C164 C 0.98787 0.50427 0.79142 0.0
C165 C 0.95844 0.48247 0.80405 0.0
C166 C 0.95016 0.46989 0.78043 0.0
C167 C 0.97503 0.48496 0.75455 0.0
N168 N 0.02698 0.51819 0.69851 0.0
C169 C 1.00059 0.49543 0.69802 0.0
C170 C 0.99978 0.49093 0.66862 0.0
C171 C 0.02724 0.51119 0.64988 0.0
C172 C 0.04306 0.52689 0.66883 0.0
N173 N 0.08518 0.56165 0.70685 0.0
C174 C 0.09529 0.56469 0.67631 0.0
C175 C 0.12599 0.58546 0.66397 0.0
C176 C 0.13606 0.5965 0.68802 0.0
C177 C 0.11076 0.58176 0.71372 0.0
N178 N 0.07036 0.50616 0.73962 0.0
C179 C 0.1063 0.46304 0.74739 0.0
C180 C 0.11074 0.47986 0.71888 0.0
C181 C 0.09256 0.50101 0.71551 0.0
C182 C 0.08389 0.46867 0.77194 0.0
C183 C 0.06683 0.4903 0.76768 0.0
N184 N 0.01299 0.56221 0.72814 0.0
C185 C 0.99463 0.59682 0.69542 0.0
C186 C 0.97005 0.60046 0.71976 0.0
C187 C 0.968 0.58496 0.74848 0.0
C188 C 0.98966 0.56638 0.75214 0.0
C189 C 0.01546 0.57773 0.70005 0.0
H190 H 0.98672 0.55551 0.77464 0.0
H191 H 0.03329 0.5759 0.68046 0.0
H192 H 0.09662 0.51276 0.69313 0.0
H193 H 0.05044 0.4935 0.78739 0.0
C194 C 0.00792 0.52111 0.8079 0.0
C195 C 0.11177 0.58814 0.74398 0.0
C196 C 0.9768 0.47676 0.72479 0.0
C197 C 0.07478 0.54824 0.65977 0.0
H198 H 0.10458 0.59182 0.80704 0.0
H199 H 0.0476 0.55521 0.8424 0.0
H200 H 0.94551 0.47576 0.82781 0.0
H201 H 0.92893 0.45117 0.78244 0.0
H202 H 0.98175 0.47426 0.66159 0.0
H203 H 0.03548 0.51357 0.62548 0.0
H204 H 0.13922 0.59202 0.64027 0.0
H205 H 0.15919 0.61367 0.68676 0.0
H206 H 0.12828 0.47693 0.69913 0.0
H207 H 0.07878 0.45615 0.79448 0.0
H208 H 0.99801 0.60868 0.67277 0.0
H209 H 0.94922 0.5866 0.76815 0.0
C210 C 0.26157 0.00658 0.58913 0.0
C211 C 0.29571 0.00658 0.59405 0.0
C212 C 0.31883 0.02896 0.57425 0.0
C213 C 0.29754 0.04117 0.55842 0.0
N214 N 0.26213 0.02841 0.56739 0.0
Co215 Co 0.22215 0.03752 0.54852 0.0
N216 N 0.25642 0.06876 0.51746 0.0
C217 C 0.29212 0.07817 0.51578 0.0
C218 C 0.30841 0.1009 0.4931 0.0
C219 C 0.28142 0.10668 0.47974 0.0
C220 C 0.2501 0.08703 0.49514 0.0
N221 N 0.18243 0.04539 0.52849 0.0
C222 C 0.18335 0.06488 0.50406 0.0
C223 C 0.14952 0.06283 0.49741 0.0
C224 C 0.12638 0.0414 0.5185 0.0
C225 C 0.14729 0.03156 0.53672 0.0
N226 N 0.18777 0.00733 0.58065 0.0
C227 C 0.15156 1.00067 0.58525 0.0
C228 C 0.13522 0.97874 0.60893 0.0
C229 C 0.16269 0.97074 0.61983 0.0
C230 C 0.19426 0.98827 0.60204 0.0
N231 N 0.21596 0.06542 0.57527 0.0
C232 C 0.20782 0.10807 0.60924 0.0
C233 C 0.17878 0.0923 0.59955 0.0
C234 C 0.18326 0.07111 0.58323 0.0
C235 C 0.2409 0.10151 0.60213 0.0
C236 C 0.24439 0.08049 0.58517 0.0
N237 N 0.22815 0.00983 0.52174 0.0
C238 C 0.20346 0.96816 0.5026 0.0
C239 C 0.23584 0.97148 0.4824 0.0
C240 C 0.26457 0.99394 0.4827 0.0
C241 C 0.26031 0.01254 0.50263 0.0
C242 C 0.2001 0.98756 0.52173 0.0
H243 H 0.28333 0.02908 0.50206 0.0
H244 H 0.17439 0.98427 0.53605 0.0
H245 H 0.15976 0.05993 0.57703 0.0
H246 H 0.27051 0.07704 0.58023 0.0
C247 C 0.30984 0.06442 0.53489 0.0
C248 C 0.22968 0.98472 0.60469 0.0
C249 C 0.21507 0.08669 0.48773 0.0
C250 C 0.13429 0.01185 0.56373 0.0
H251 H 0.30311 0.99162 0.60992 0.0
H252 H 0.34776 0.03523 0.5713 0.0
H253 H 0.33657 0.1119 0.48695 0.0
H254 H 0.28446 0.12351 0.46083 0.0
H255 H 0.14217 0.076 0.4797 0.0
H256 H 0.09754 0.03454 0.52098 0.0
H257 H 0.10684 0.96868 0.6162 0.0
H258 H 0.15992 0.95329 0.63799 0.0
H259 H 0.15257 0.09649 0.60394 0.0
H260 H 0.26421 0.11241 0.60964 0.0
H261 H 0.18041 0.95118 0.50296 0.0
H262 H 0.2903 0.99713 0.46761 0.0
C263 C 0.50261 0.8255 0.07603 0.0
C264 C 0.50024 0.85234 0.07937 0.0
C265 C 0.52543 0.87041 0.05643 0.0
C266 C 0.54165 0.85363 0.04049 0.0
N267 N 0.52791 0.82588 0.05148 0.0
Co268 Co 0.54547 0.79425 0.03681 0.0
N269 N 0.584 0.82092 0.0041 0.0
C270 C 0.59008 0.84918 0.99765 0.0
C271 C 0.61756 0.86181 0.9733 0.0
C272 C 0.62955 0.84034 0.96332 0.0
C273 C 0.60857 0.81574 0.98226 0.0
N274 N 0.5639 0.76267 0.02292 0.0
C275 C 0.59128 0.76309 1.00001 0.0
C276 C 0.59528 0.73631 0.99831 0.0
C277 C 0.56951 0.71833 0.0209 0.0
C278 C 0.5513 0.73506 0.03506 0.0
N279 N 0.50602 0.76753 0.06868 0.0
C280 C 0.49817 0.73918 0.07364 0.0
C281 C 0.46987 0.72653 0.09735 0.0
C282 C 0.45923 0.74808 0.10846 0.0
C283 C 0.48182 0.77271 0.09081 0.0
N284 N 0.5128 0.79178 0.00737 0.0
C285 C 0.47005 0.78847 0.96269 0.0
C286 C 0.47329 0.76425 0.98063 0.0
C287 C 0.49471 0.76636 0.00248 0.0
C288 C 0.4879 0.81437 0.96824 0.0
C289 C 0.50858 0.81552 0.99061 0.0
N290 N 0.57809 0.79677 0.06626 0.0
C291 C 0.5958 0.77674 0.11141 0.0
C292 C 0.62037 0.80209 0.11122 0.0
C293 C 0.62424 0.82429 0.08724 0.0
C294 C 0.6028 0.82135 0.06555 0.0
C295 C 0.5756 0.77444 0.08868 0.0
H296 H 0.60651 0.83945 0.04863 0.0
H297 H 0.55768 0.75448 0.09007 0.0
H298 H 0.49649 0.74711 0.01491 0.0
H299 H 0.52136 0.83592 0.99356 0.0
C300 C 0.5702 0.86329 0.0155 0.0
C301 C 0.481 0.8004 0.09731 0.0
C302 C 0.61316 0.78806 0.97859 0.0
C303 C 0.52054 0.72527 0.05806 0.0
H304 H 0.4825 0.85821 0.09689 0.0
H305 H 0.53163 0.89309 0.0522 0.0
H306 H 0.6277 0.88399 0.96397 0.0
H307 H 0.6513 0.84253 0.94424 0.0
H308 H 0.6144 0.73032 0.98203 0.0
H309 H 0.56407 0.69569 0.02588 0.0
H310 H 0.45929 0.70432 0.10634 0.0
H311 H 0.43806 0.74591 0.12799 0.0
H312 H 0.45946 0.7436 0.9779 0.0
H313 H 0.48681 0.83386 0.95489 0.0
H314 H 0.59134 0.75877 0.12934 0.0
H315 H 0.64364 0.84414 0.08507 0.0
C316 C 0.78767 0.97794 0.56388 0.0
C317 C 0.8197 0.97381 0.57069 0.0
C318 C 0.84666 0.99297 0.55018 0.0
C319 C 0.82964 0.00752 0.532 0.0
N320 N 0.79342 0.99929 0.54003 0.0
Co321 Co 0.75837 0.01295 0.51787 0.0
N322 N 0.79808 0.03989 0.4865 0.0
C323 C 0.83371 0.0446 0.48583 0.0
C324 C 0.85443 0.06572 0.46287 0.0
C325 C 0.8306 0.07552 0.44828 0.0
C326 C 0.79658 0.05963 0.46321 0.0
N327 N 0.72332 0.02558 0.49492 0.0
C328 C 0.72898 0.04599 0.47015 0.0
C329 C 0.69707 0.04803 0.46149 0.0
C330 C 0.67022 0.02852 0.48183 0.0
C331 C 0.68719 0.01563 0.50159 0.0
N332 N 0.71865 0.98705 0.55007 0.0
C333 C 0.68301 0.98437 0.55247 0.0
C334 C 0.66229 0.96461 0.57679 0.0
C335 C 0.6861 0.95378 0.5905 0.0
C336 C 0.72006 0.96752 0.57357 0.0
N337 N 0.75751 0.04333 0.54193 0.0
C338 C 0.75764 0.0903 0.56995 0.0
C339 C 0.72654 0.07576 0.56222 0.0
C340 C 0.7269 0.05228 0.5488 0.0
C341 C 0.78832 0.08032 0.56481 0.0
C342 C 0.78776 0.05703 0.55065 0.0
N343 N 0.75913 0.98257 0.49377 0.0
C344 C 0.72828 0.93979 0.47993 0.0
C345 C 0.76029 0.93713 0.4633 0.0
C346 C 0.79165 0.95791 0.46137 0.0
C347 C 0.79055 0.98019 0.47694 0.0
C348 C 0.7282 0.96268 0.49447 0.0
H349 H 0.81552 0.99498 0.47538 0.0
H350 H 0.70275 0.9636 0.5064 0.0
H351 H 0.70218 0.0421 0.54366 0.0
H352 H 0.8123 0.0509 0.54642 0.0
C353 C 0.84683 0.02877 0.50706 0.0
C354 C 0.75259 0.96005 0.57951 0.0
C355 C 0.76372 0.06476 0.45508 0.0
C356 C 0.66987 0.9973 0.52893 0.0
H357 H 0.82328 0.95815 0.58821 0.0
H358 H 0.87525 0.99555 0.5483 0.0
H359 H 0.88338 0.07337 0.45765 0.0
H360 H 0.83745 0.09275 0.42915 0.0
H361 H 0.69353 0.06271 0.44295 0.0
H362 H 0.64163 0.02508 0.48294 0.0
H363 H 0.63329 0.95781 0.58285 0.0
H364 H 0.67928 0.93695 0.61005 0.0
H365 H 0.70203 0.08263 0.56633 0.0
H366 H 0.81295 0.09105 0.57065 0.0
H367 H 0.70329 0.92427 0.48161 0.0
H368 H 0.81704 0.95656 0.44863 0.0
C369 C 0.47976 0.3181 0.06143 0.0
C370 C 0.4799 0.3454 0.06484 0.0
C371 C 0.5014 0.36257 0.03901 0.0
C372 C 0.51329 0.34489 0.02144 0.0
N373 N 0.50067 0.31768 0.03461 0.0
Co374 Co 0.51197 0.28523 0.0177 0.0
N375 N 0.55471 0.30976 0.988 0.0
C376 C 0.56192 0.33791 0.9803 0.0
C377 C 0.59249 0.34935 0.95843 0.0
C378 C 0.60506 0.32702 0.95143 0.0
C379 C 0.58133 0.30304 0.96951 0.0
N380 N 0.52292 0.25258 1.00093 0.0
C381 C 0.55266 0.2506 0.98208 0.0
C382 C 0.54907 0.22343 0.9766 0.0
C383 C 0.51544 0.20824 0.99151 0.0
C384 C 0.50052 0.22677 0.00552 0.0
N385 N 0.46926 0.26089 0.04725 0.0
C386 C 0.4518 0.23469 0.04575 0.0
C387 C 0.42302 0.22321 0.06944 0.0
C388 C 0.42233 0.24346 0.08693 0.0
C389 C 0.45095 0.26618 0.07288 0.0
N390 N 0.48185 0.2902 0.98787 0.0
C391 C 0.43779 0.29462 0.94545 0.0
C392 C 0.42632 0.29711 0.97568 0.0
C393 C 0.44874 0.29485 0.99649 0.0
C394 C 0.47212 0.29061 0.93684 0.0
C395 C 0.49357 0.28846 0.95827 0.0
N396 N 0.54188 0.28021 0.04758 0.0
C397 C 0.55853 0.25006 0.08598 0.0
C398 C 0.5826 0.27303 0.09213 0.0
C399 C 0.58604 0.29968 0.07527 0.0
C400 C 0.56555 0.3028 0.05308 0.0
C401 C 0.53849 0.25409 0.06371 0.0
H402 H 0.5687 0.32354 0.04057 0.0
H403 H 0.51989 0.23603 0.05987 0.0
H404 H 0.43902 0.29646 0.01968 0.0
H405 H 0.51953 0.28511 0.9508 0.0
C406 C 0.54117 0.35302 0.99585 0.0
C407 C 0.4586 0.29299 0.08335 0.0
C408 C 0.58177 0.2745 0.96475 0.0
C409 C 0.46724 0.21996 0.02554 0.0
H410 H 0.46624 0.35225 0.08401 0.0
H411 H 0.50892 0.38528 0.03435 0.0
H412 H 0.60429 0.3713 0.94873 0.0
H413 H 0.62829 0.32827 0.93411 0.0
H414 H 0.56823 0.21574 0.96218 0.0
H415 H 0.50343 0.18628 0.99221 0.0
H416 H 0.40563 0.20219 0.07423 0.0
H417 H 0.40302 0.24171 0.10763 0.0
H418 H 0.39989 0.30004 0.98343 0.0
H419 H 0.48247 0.28911 0.91362 0.0
H420 H 0.55456 0.22912 0.0987 0.0
H421 H 0.60459 0.31801 0.079 0.0
H422 H 0.22028 0.36272 0.33706 0.0
H423 H 0.13533 0.28685 0.37532 0.0
H424 H 0.0944 0.31559 0.39099 0.0
H425 H 0.19618 0.40506 0.39185 0.0
H426 H 0.20615 0.43661 0.36367 0.0
H427 H 0.23002 0.41012 0.35791 0.0
H428 H 0.21084 0.40738 0.30618 0.0
H429 H 0.18699 0.43388 0.31174 0.0
H430 H 0.16386 0.40048 0.30476 0.0
H431 H 0.06175 0.35255 0.4011 0.0
H432 H 0.03907 0.39496 0.40228 0.0
H433 H 0.14375 0.44668 0.35435 0.0
C434 C 0.19308 0.35199 0.34863 0.0
C435 C 0.18144 0.32229 0.35514 0.0
C436 C 0.14553 0.30943 0.37068 0.0
C437 C 0.12185 0.32562 0.37951 0.0
C438 C 0.1342 0.35472 0.37244 0.0
C439 C 0.16889 0.36781 0.35717 0.0
C440 C 0.17483 0.39942 0.35074 0.0
C441 C 0.2035 0.41363 0.36702 0.0
C442 C 0.1847 0.41096 0.31631 0.0
C443 C 0.13792 0.40205 0.36454 0.0
C444 C 0.11503 0.37602 0.3773 0.0
C445 C 0.07948 0.37304 0.39128 0.0
C446 C 0.06689 0.39725 0.39199 0.0
C447 C 0.08966 0.42412 0.37851 0.0
C448 C 0.1257 0.42643 0.36474 0.0
H449 H 0.18844 0.7491 0.7504 0.0
H450 H 0.28683 0.72894 0.76726 0.0
H451 H 0.26033 0.67914 0.76638 0.0
H452 H 0.12702 0.68593 0.79513 0.0
H453 H 0.09705 0.68344 0.76882 0.0
H454 H 0.12339 0.71724 0.77186 0.0
H455 H 0.14989 0.72739 0.71396 0.0
H456 H 0.12365 0.6936 0.71075 0.0
H457 H 0.17169 0.70302 0.69767 0.0
H458 H 0.2234 0.63154 0.76225 0.0
H459 H 0.17835 0.58993 0.75578 0.0
H460 H 0.10517 0.64165 0.74063 0.0
C461 C 0.20455 0.73428 0.75377 0.0
C462 C 0.23977 0.74299 0.75892 0.0
C463 C 0.25964 0.72276 0.76369 0.0
C464 C 0.2449 0.69444 0.76303 0.0
C465 C 0.21025 0.68668 0.75761 0.0
C466 C 0.19032 0.70602 0.75311 0.0
C467 C 0.1539 0.69241 0.7473 0.0
C468 C 0.12355 0.69491 0.77227 0.0
C469 C 0.14955 0.70485 0.71553 0.0
C470 C 0.15645 0.66238 0.7491 0.0
C471 C 0.18915 0.65945 0.7551 0.0
C472 C 0.19772 0.63359 0.7576 0.0
C473 C 0.17216 0.61017 0.7539 0.0
C474 C 0.13869 0.61292 0.74776 0.0
C475 C 0.13073 0.63926 0.74534 0.0
H476 H 0.84353 0.69388 0.27725 0.0
H477 H 0.85495 0.74145 0.34958 0.0
H478 H 0.88155 0.7063 0.37531 0.0
H479 H 0.82115 0.62424 0.32528 0.0
H480 H 0.84594 0.60984 0.29708 0.0
H481 H 0.82611 0.6379 0.28542 0.0
H482 H 0.88824 0.66753 0.25446 0.0
H483 H 0.90826 0.63962 0.26611 0.0
H484 H 0.9257 0.67429 0.27323 0.0
H485 H 0.91033 0.66762 0.39121 0.0
H486 H 0.93796 0.62779 0.39697 0.0
H487 H 0.90602 0.60451 0.31489 0.0
C488 C 0.85145 0.69672 0.2986 0.0
C489 C 0.84769 0.72044 0.31139 0.0
C490 C 0.85802 0.72347 0.33943 0.0
C491 C 0.87304 0.70363 0.35415 0.0
C492 C 0.87714 0.68076 0.34064 0.0
C493 C 0.86643 0.67709 0.3136 0.0
C494 C 0.87462 0.65106 0.30351 0.0
C495 C 0.83988 0.62948 0.30279 0.0
C496 C 0.90076 0.65859 0.27249 0.0
C497 C 0.8922 0.64093 0.32879 0.0
C498 C 0.89323 0.65826 0.35005 0.0
C499 C 0.90924 0.65369 0.37491 0.0
C500 C 0.92469 0.63085 0.37809 0.0
C501 C 0.92403 0.61276 0.35654 0.0
C502 C 0.90728 0.61794 0.3317 0.0
H503 H 0.80274 0.3511 0.74569 0.0
H504 H 0.87372 0.29739 0.72602 0.0
H505 H 0.92614 0.33849 0.71548 0.0
H506 H 0.85364 0.41195 0.68819 0.0
H507 H 0.84448 0.43662 0.71202 0.0
H508 H 0.81259 0.40323 0.71642 0.0
H509 H 0.81496 0.39268 0.77357 0.0
H510 H 0.84677 0.42602 0.76934 0.0
H511 H 0.85769 0.39423 0.78435 0.0
H512 H 0.9709 0.38491 0.71078 0.0
H513 H 0.00441 0.43337 0.71155 0.0
H514 H 0.90407 0.45678 0.73254 0.0
C515 C 0.82932 0.34799 0.73915 0.0
C516 C 0.83425 0.32107 0.73675 0.0
C517 C 0.86939 0.31789 0.72776 0.0
C518 C 0.89928 0.34108 0.7218 0.0
C519 C 0.89348 0.3673 0.72462 0.0
C520 C 0.85935 0.37089 0.73291 0.0
C521 C 0.8604 0.40112 0.73508 0.0
C522 C 0.84167 0.41398 0.71152 0.0
C523 C 0.84399 0.40365 0.76751 0.0
C524 C 0.9005 0.41389 0.72733 0.0
C525 C 0.91915 0.39408 0.72129 0.0
C526 C 0.95657 0.40065 0.71513 0.0
C527 C 0.97535 0.4281 0.71559 0.0
C528 C 0.95661 0.44846 0.72215 0.0
C529 C 0.91882 0.44143 0.72743 0.0
H530 H 0.22171 0.24314 0.41183 0.0
H531 H 0.21766 0.21329 0.32684 0.0
H532 H 0.21148 0.165 0.35318 0.0
H533 H 0.27477 0.19928 0.43894 0.0
H534 H 0.25228 0.19324 0.4782 0.0
H535 H 0.25419 0.22519 0.45309 0.0
H536 H 0.18479 0.21489 0.46637 0.0
H537 H 0.18271 0.18288 0.49151 0.0
H538 H 0.15797 0.18196 0.46131 0.0
H539 H 0.20756 0.12022 0.38827 0.0
H540 H 0.20836 0.08228 0.42975 0.0
H541 H 0.21591 0.14104 0.4917 0.0
C542 C 0.21906 0.22634 0.39892 0.0
C543 C 0.2201 0.23189 0.36732 0.0
C544 C 0.21716 0.20948 0.35103 0.0
C545 C 0.21345 0.18199 0.36581 0.0
C546 C 0.21283 0.17722 0.39691 0.0
C547 C 0.21567 0.19876 0.41329 0.0
C548 C 0.21598 0.18813 0.44622 0.0
C549 C 0.25141 0.2023 0.45459 0.0
C550 C 0.18342 0.19221 0.46761 0.0
C551 C 0.21308 0.15734 0.44571 0.0
C552 C 0.21101 0.15144 0.41708 0.0
C553 C 0.20895 0.12454 0.41081 0.0
C554 C 0.20935 0.10317 0.43438 0.0
C555 C 0.21192 0.10893 0.46365 0.0
C556 C 0.21359 0.13625 0.46944 0.0
H557 H 0.36209 0.84504 0.84249 0.0
H558 H 0.37043 0.77367 0.79962 0.0
H559 H 0.39862 0.75534 0.8405 0.0
H560 H 0.44522 0.85586 0.86487 0.0
H561 H 0.4298 0.86512 0.90082 0.0
H562 H 0.40763 0.87137 0.86973 0.0
H563 H 0.3468 0.84207 0.90336 0.0
H564 H 0.36878 0.83588 0.93466 0.0
H565 H 0.34291 0.80668 0.92178 0.0
H566 H 0.43122 0.74748 0.8831 0.0
H567 H 0.46312 0.74916 0.92553 0.0
H568 H 0.43056 0.82442 0.94257 0.0
C569 C 0.36948 0.82538 0.84204 0.0
C570 C 0.36462 0.81087 0.81784 0.0
C571 C 0.37434 0.78515 0.81789 0.0
C572 C 0.39027 0.7746 0.841 0.0
C573 C 0.39572 0.78982 0.86412 0.0
C574 C 0.38523 0.81448 0.86503 0.0
C575 C 0.39518 0.82724 0.89185 0.0
C576 C 0.42099 0.85664 0.88116 0.0
C577 C 0.3614 0.828 0.91424 0.0
C578 C 0.41377 0.80633 0.90538 0.0
C579 C 0.41365 0.78485 0.88915 0.0
C580 C 0.43088 0.7639 0.89635 0.0
C581 C 0.44878 0.76497 0.92071 0.0
C582 C 0.44929 0.78679 0.93782 0.0
C583 C 0.43109 0.80753 0.93002 0.0
H584 H 0.78245 0.85504 0.32502 0.0
H585 H 0.74293 0.77756 0.39116 0.0
H586 H 0.73934 0.80479 0.43272 0.0
H587 H 0.83742 0.8932 0.37059 0.0
H588 H 0.82781 0.9261 0.35763 0.0
H589 H 0.82767 0.90048 0.33324 0.0
H590 H 0.76278 0.90116 0.32797 0.0
H591 H 0.76273 0.92677 0.35231 0.0
H592 H 0.72817 0.89432 0.36172 0.0
H593 H 0.73642 0.84051 0.46661 0.0
H594 H 0.73804 0.88225 0.49082 0.0
H595 H 0.7826 0.93648 0.40294 0.0
C596 C 0.77307 0.84386 0.34828 0.0
C597 C 0.76283 0.81422 0.35497 0.0
C598 C 0.75107 0.80026 0.38564 0.0
C599 C 0.74885 0.81554 0.40933 0.0
C600 C 0.75896 0.84475 0.40195 0.0
C601 C 0.77119 0.85878 0.3722 0.0
C602 C 0.78058 0.89029 0.37043 0.0
C603 C 0.82076 0.90327 0.35719 0.0
C604 C 0.75716 0.90393 0.35202 0.0
C605 C 0.77123 0.89183 0.4038 0.0
C606 C 0.75861 0.86532 0.42159 0.0
C607 C 0.74666 0.86136 0.45296 0.0
C608 C 0.74758 0.8851 0.46648 0.0
C609 C 0.76075 0.91241 0.44871 0.0
C610 C 0.77297 0.91578 0.41702 0.0
H611 H 0.75004 0.27844 0.83466 0.0
H612 H 0.67348 0.25627 0.7772 0.0
H613 H 0.62378 0.25397 0.81954 0.0
H614 H 0.69555 0.23431 0.90481 0.0
H615 H 0.70959 0.25945 0.92819 0.0
H616 H 0.73935 0.25854 0.89367 0.0
H617 H 0.74471 0.31117 0.87459 0.0
H618 H 0.71492 0.31222 0.90901 0.0
H619 H 0.70456 0.3229 0.87259 0.0
H620 H 0.58275 0.25629 0.86665 0.0
H621 H 0.5522 0.26124 0.91694 0.0
H622 H 0.65447 0.28121 0.94494 0.0
C623 C 0.7228 0.27307 0.83102 0.0
C624 C 0.71564 0.26734 0.80264 0.0
C625 C 0.67961 0.26025 0.79886 0.0
C626 C 0.65121 0.25908 0.8227 0.0
C627 C 0.6592 0.26498 0.85026 0.0
C628 C 0.69404 0.27171 0.85467 0.0
C629 C 0.69512 0.2774 0.88655 0.0
C630 C 0.71083 0.25615 0.90435 0.0
C631 C 0.71607 0.30772 0.88561 0.0
C632 C 0.65543 0.27295 0.89928 0.0
C633 C 0.63529 0.26589 0.87784 0.0
C634 C 0.59816 0.26153 0.88372 0.0
C635 C 0.58107 0.26438 0.91231 0.0
C636 C 0.60103 0.27127 0.93478 0.0
C637 C 0.63869 0.27563 0.92818 0.0
H638 H 0.25211 0.87396 0.74137 0.0
H639 H 0.26893 0.82035 0.67557 0.0
H640 H 0.25977 0.85535 0.63549 0.0
H641 H 0.18347 0.90006 0.71179 0.0
H642 H 0.1993 0.9351 0.71856 0.0
H643 H 0.2068 0.90574 0.7424 0.0
H644 H 0.27518 0.92899 0.72989 0.0
H645 H 0.26786 0.95849 0.70615 0.0
H646 H 0.29852 0.93941 0.69072 0.0
H647 H 0.24929 0.89612 0.60232 0.0
H648 H 0.23928 0.94081 0.57819 0.0
H649 H 0.23001 0.96837 0.66487 0.0
C650 C 0.2541 0.86967 0.71849 0.0
C651 C 0.26093 0.84424 0.71173 0.0
C652 C 0.26305 0.83939 0.68149 0.0
C653 C 0.25808 0.85922 0.6585 0.0
C654 C 0.25109 0.88389 0.666 0.0
C655 C 0.24921 0.88927 0.69521 0.0
C656 C 0.24163 0.91762 0.69707 0.0
C657 C 0.20566 0.91443 0.71874 0.0
C658 C 0.27265 0.93729 0.70651 0.0
C659 C 0.23965 0.92733 0.66434 0.0
C660 C 0.24512 0.9075 0.64682 0.0
C661 C 0.24488 0.91176 0.61582 0.0
C662 C 0.23914 0.93705 0.60233 0.0
C663 C 0.2337 0.95759 0.61986 0.0
C664 C 0.23384 0.9527 0.65122 0.0
H665 H 0.71509 0.75435 0.24652 0.0
H666 H 0.74527 0.84203 0.25509 0.0
H667 H 0.71503 0.85426 0.21363 0.0
H668 H 0.73119 0.76867 0.1637 0.0
H669 H 0.69442 0.73995 0.16213 0.0
H670 H 0.71765 0.73784 0.1932 0.0
H671 H 0.65727 0.72826 0.2315 0.0
H672 H 0.63391 0.73058 0.20055 0.0
H673 H 0.62975 0.75274 0.22844 0.0
H674 H 0.67872 0.85678 0.17324 0.0
H675 H 0.64362 0.85028 0.13351 0.0
H676 H 0.64368 0.76202 0.14633 0.0
C677 C 0.71593 0.77621 0.23951 0.0
C678 C 0.73227 0.79708 0.25471 0.0
C679 C 0.73213 0.82539 0.24469 0.0
C680 C 0.71526 0.83265 0.22088 0.0
C681 C 0.69914 0.81153 0.20678 0.0
C682 C 0.69981 0.78397 0.21535 0.0
C683 C 0.68122 0.76547 0.19582 0.0
C684 C 0.70771 0.75221 0.17763 0.0
C685 C 0.64861 0.74294 0.21525 0.0
C686 C 0.66969 0.78695 0.17516 0.0
C687 C 0.68004 0.81331 0.18209 0.0
C688 C 0.67111 0.83633 0.16714 0.0
C689 C 0.65137 0.8324 0.14427 0.0
C690 C 0.64117 0.8057 0.13596 0.0
C691 C 0.65063 0.78272 0.15188 0.0
H692 H 0.76358 0.18841 0.69499 0.0
H693 H 0.73572 0.24913 0.63097 0.0
H694 H 0.73889 0.21862 0.59264 0.0
H695 H 0.82686 0.16732 0.63873 0.0
H696 H 0.81334 0.13108 0.65747 0.0
H697 H 0.81079 0.15836 0.67935 0.0
H698 H 0.74337 0.13475 0.70115 0.0
H699 H 0.74566 0.10748 0.67927 0.0
H700 H 0.71327 0.12777 0.6754 0.0
H701 H 0.74058 0.18038 0.56282 0.0
H702 H 0.74293 0.13713 0.54247 0.0
H703 H 0.77242 0.10184 0.6246 0.0
C704 C 0.75896 0.19556 0.67268 0.0
C705 C 0.75033 0.22152 0.66559 0.0
C706 C 0.7432 0.22964 0.63652 0.0
C707 C 0.74485 0.21244 0.61468 0.0
C708 C 0.75367 0.18712 0.62226 0.0
C709 C 0.76087 0.17874 0.65045 0.0
C710 C 0.76861 0.15007 0.653 0.0
C711 C 0.8072 0.15182 0.65739 0.0
C712 C 0.74108 0.12877 0.67873 0.0
C713 C 0.76402 0.14348 0.62204 0.0
C714 C 0.75533 0.16516 0.60472 0.0
C715 C 0.74782 0.16342 0.57598 0.0
C716 C 0.74911 0.13883 0.56466 0.0
C717 C 0.75813 0.11645 0.58193 0.0
C718 C 0.76602 0.11892 0.61084 0.0
H719 H 0.29258 0.32094 0.19146 0.0
H720 H 0.32594 0.27852 0.26768 0.0
H721 H 0.37976 0.27449 0.23294 0.0
H722 H 0.3178 0.27865 0.13948 0.0
H723 H 0.33252 0.30679 0.10694 0.0
H724 H 0.29833 0.30827 0.13813 0.0
H725 H 0.3365 0.35647 0.14357 0.0
H726 H 0.37087 0.35509 0.11241 0.0
H727 H 0.38198 0.35979 0.14867 0.0
H728 H 0.42857 0.27328 0.18938 0.0
H729 H 0.46738 0.27368 0.14002 0.0
H730 H 0.40122 0.31582 0.09245 0.0
C731 C 0.31163 0.3113 0.20086 0.0
C732 C 0.30579 0.30085 0.23234 0.0
C733 C 0.33052 0.28739 0.24373 0.0
C734 C 0.36107 0.28495 0.22418 0.0
C735 C 0.36625 0.29577 0.19326 0.0
C736 C 0.34212 0.30858 0.18165 0.0
C737 C 0.35274 0.31699 0.14735 0.0
C738 C 0.32362 0.30176 0.13209 0.0
C739 C 0.36102 0.34899 0.13743 0.0
C740 C 0.38643 0.30671 0.14143 0.0
C741 C 0.39396 0.29471 0.1682 0.0
C742 C 0.42316 0.28291 0.16832 0.0
C743 C 0.44504 0.28326 0.14033 0.0
C744 C 0.43757 0.29535 0.1128 0.0
C745 C 0.40792 0.30716 0.11338 0.0
H746 H 0.84441 0.70038 0.76862 0.0
H747 H 0.8127 0.70012 0.68151 0.0
H748 H 0.85549 0.6721 0.66686 0.0
H749 H 0.93995 0.70522 0.74033 0.0
H750 H 0.94343 0.68256 0.77377 0.0
H751 H 0.9119 0.70399 0.77654 0.0
H752 H 0.86029 0.65967 0.80057 0.0
H753 H 0.89159 0.63811 0.79771 0.0
H754 H 0.85282 0.63071 0.7806 0.0
H755 H 0.89827 0.6412 0.66337 0.0
H756 H 0.93931 0.61093 0.67036 0.0
H757 H 0.94561 0.63306 0.75897 0.0
C758 C 0.84693 0.69467 0.74634 0.0
C759 C 0.82533 0.70229 0.72617 0.0
C760 C 0.82904 0.69443 0.69725 0.0
C761 C 0.85326 0.67855 0.68876 0.0
C762 C 0.87378 0.67094 0.70936 0.0
C763 C 0.87111 0.67893 0.73745 0.0
C764 C 0.89552 0.66734 0.75567 0.0
C765 C 0.92442 0.6912 0.76193 0.0
C766 C 0.87375 0.6478 0.78539 0.0
C767 C 0.91176 0.65112 0.73368 0.0
C768 C 0.89896 0.65355 0.70708 0.0
C769 C 0.90892 0.6395 0.68391 0.0
C770 C 0.93252 0.62246 0.68805 0.0
C771 C 0.94614 0.61961 0.71514 0.0
C772 C 0.93564 0.63445 0.73807 0.0
H773 H 0.85304 0.31266 0.3319 0.0
H774 H 0.75224 0.33641 0.33738 0.0
H775 H 0.78072 0.38196 0.34953 0.0
H776 H 0.88312 0.34715 0.39303 0.0
H777 H 0.92941 0.35811 0.37336 0.0
H778 H 0.9004 0.32653 0.3674 0.0
H779 H 0.91588 0.34572 0.30938 0.0
H780 H 0.94469 0.37742 0.31519 0.0
H781 H 0.90873 0.37932 0.29533 0.0
H782 H 0.82066 0.42578 0.35857 0.0
H783 H 0.86975 0.46488 0.36421 0.0
H784 H 0.94485 0.4133 0.35217 0.0
C785 C 0.83686 0.32725 0.33628 0.0
C786 C 0.8004 0.321 0.33384 0.0
C787 C 0.78024 0.34085 0.33906 0.0
C788 C 0.79615 0.36672 0.34605 0.0
C789 C 0.83231 0.3725 0.34769 0.0
C790 C 0.85244 0.35333 0.34304 0.0
C791 C 0.89123 0.36535 0.34471 0.0
C792 C 0.90164 0.34827 0.37121 0.0
C793 C 0.91662 0.36705 0.31434 0.0
C794 C 0.8898 0.39432 0.3507 0.0
C795 C 0.85549 0.39794 0.35251 0.0
C796 C 0.84758 0.42314 0.35736 0.0
C797 C 0.87548 0.44519 0.36048 0.0
C798 C 0.91072 0.44187 0.3586 0.0
C799 C 0.91797 0.41615 0.3537 0.0
H800 H 0.19307 0.33851 0.70273 0.0
H801 H 0.21018 0.3247 0.79531 0.0
H802 H 0.18311 0.36315 0.8062 0.0
H803 H 0.21051 0.41269 0.6912 0.0
H804 H 0.17526 0.41509 0.67062 0.0
H805 H 0.19574 0.38614 0.66958 0.0
H806 H 0.13341 0.35094 0.689 0.0
H807 H 0.11269 0.37979 0.68975 0.0
H808 H 0.10528 0.35373 0.7236 0.0
H809 H 0.15858 0.40504 0.80636 0.0
H810 H 0.13151 0.44466 0.79769 0.0
H811 H 0.12379 0.42888 0.70683 0.0
C812 C 0.19065 0.34326 0.72542 0.0
C813 C 0.2046 0.32882 0.74792 0.0
C814 C 0.20086 0.3359 0.77731 0.0
C815 C 0.18524 0.35763 0.78386 0.0
C816 C 0.17274 0.37188 0.76101 0.0
C817 C 0.17458 0.36474 0.73256 0.0
C818 C 0.15847 0.38335 0.71236 0.0
C819 C 0.18668 0.40032 0.68428 0.0
C820 C 0.1255 0.36591 0.70314 0.0
C821 C 0.14782 0.40222 0.73386 0.0
C822 C 0.15659 0.3953 0.76168 0.0
C823 C 0.15085 0.41031 0.78488 0.0
C824 C 0.13513 0.43274 0.77974 0.0
C825 C 0.12465 0.43985 0.75175 0.0
C826 C 0.13145 0.42431 0.72847 0.0
H827 H 0.22828 0.71826 0.36375 0.0
H828 H 0.14714 0.7651 0.37404 0.0
H829 H 0.09969 0.72081 0.38342 0.0
H830 H 0.18546 0.67201 0.3217 0.0
H831 H 0.19893 0.64205 0.33849 0.0
H832 H 0.22624 0.67688 0.33627 0.0
H833 H 0.22232 0.66711 0.39453 0.0
H834 H 0.19513 0.63214 0.39691 0.0
H835 H 0.17891 0.65527 0.41976 0.0
H836 H 0.06109 0.67146 0.38732 0.0
H837 H 0.03508 0.62141 0.38605 0.0
H838 H 0.14161 0.6075 0.37164 0.0
C839 C 0.20054 0.71928 0.36818 0.0
C840 C 0.19155 0.7453 0.36814 0.0
C841 C 0.15483 0.7455 0.37439 0.0
C842 C 0.12766 0.72042 0.37956 0.0
C843 C 0.13759 0.69528 0.37854 0.0
C844 C 0.1732 0.69456 0.37317 0.0
C845 C 0.17699 0.66515 0.3715 0.0
C846 C 0.19815 0.66397 0.34012 0.0
C847 C 0.19436 0.65428 0.39721 0.0
C848 C 0.13797 0.64944 0.37617 0.0
C849 C 0.11557 0.66711 0.38045 0.0
C850 C 0.0784 0.65746 0.38424 0.0
C851 C 0.06386 0.62912 0.38346 0.0
C852 C 0.08648 0.61093 0.3787 0.0
C853 C 0.12389 0.62114 0.37534 0.0
H854 H 0.77507 0.85807 0.7235 0.0
H855 H 0.75025 0.78969 0.67452 0.0
H856 H 0.74091 0.82249 0.63218 0.0
H857 H 0.71041 0.89457 0.70019 0.0
H858 H 0.73978 0.92891 0.69683 0.0
H859 H 0.74344 0.89989 0.72368 0.0
H860 H 0.81084 0.90909 0.6992 0.0
H861 H 0.80738 0.93813 0.67232 0.0
H862 H 0.82385 0.91006 0.65896 0.0
H863 H 0.73524 0.86292 0.59475 0.0
H864 H 0.73587 0.90857 0.56429 0.0
H865 H 0.76431 0.95049 0.6375 0.0
C866 C 0.76727 0.84994 0.70402 0.0
C867 C 0.76334 0.82129 0.70233 0.0
C868 C 0.75373 0.81159 0.67618 0.0
C869 C 0.74814 0.83002 0.65212 0.0
C870 C 0.7523 0.85813 0.65449 0.0
C871 C 0.76175 0.86808 0.67973 0.0
C872 C 0.76564 0.89942 0.67619 0.0
C873 C 0.73818 0.90608 0.70068 0.0
C874 C 0.80422 0.91509 0.67669 0.0
C875 C 0.75713 0.90557 0.64494 0.0
C876 C 0.74928 0.88143 0.63288 0.0
C877 C 0.74121 0.88192 0.60401 0.0
C878 C 0.74155 0.9078 0.58693 0.0
C879 C 0.75007 0.93271 0.59875 0.0
C880 C 0.75759 0.93156 0.62818 0.0
H881 H 0.6625 0.30597 0.23828 0.0
H882 H 0.69954 0.23016 0.23884 0.0
H883 H 0.67664 0.22285 0.19201 0.0
H884 H 0.58097 0.2801 0.21406 0.0
H885 H 0.58256 0.31292 0.19062 0.0
H886 H 0.60332 0.31277 0.22321 0.0
H887 H 0.66377 0.34196 0.18886 0.0
H888 H 0.64317 0.34217 0.15614 0.0
H889 H 0.68274 0.32926 0.15624 0.0
H890 H 0.64818 0.22325 0.1461 0.0
H891 H 0.6158 0.23093 0.10457 0.0
H892 H 0.5964 0.30619 0.13459 0.0
C893 C 0.66603 0.28799 0.22834 0.0
C894 C 0.68303 0.2687 0.24187 0.0
C895 C 0.68682 0.24522 0.22853 0.0
C896 C 0.67392 0.24094 0.20202 0.0
C897 C 0.65723 0.26033 0.18923 0.0
C898 C 0.65324 0.28339 0.20194 0.0
C899 C 0.63334 0.3006 0.18423 0.0
C900 C 0.59795 0.30164 0.20422 0.0
C901 C 0.65719 0.33026 0.17055 0.0
C902 C 0.62654 0.28354 0.1597 0.0
C903 C 0.64063 0.26045 0.16293 0.0
C904 C 0.63708 0.24128 0.14333 0.0
C905 C 0.61845 0.24573 0.11992 0.0
C906 C 0.60351 0.26915 0.1163 0.0
C907 C 0.60792 0.28833 0.13644 0.0
H908 H 0.27185 0.25056 0.67042 0.0
H909 H 0.16409 0.23418 0.72393 0.0
H910 H 0.14521 0.19259 0.70068 0.0
H911 H 0.24468 0.22744 0.60145 0.0
H912 H 0.28248 0.21256 0.59354 0.0
H913 H 0.28622 0.24237 0.61229 0.0
H914 H 0.30588 0.21478 0.65653 0.0
H915 H 0.30166 0.18476 0.6382 0.0
H916 H 0.27729 0.18129 0.67648 0.0
H917 H 0.14052 0.14954 0.67659 0.0
H918 H 0.14805 0.11117 0.64949 0.0
H919 H 0.25806 0.15743 0.60871 0.0
C920 C 0.2441 0.23852 0.67673 0.0
C921 C 0.21933 0.2456 0.69886 0.0
C922 C 0.1833 0.22933 0.7067 0.0
C923 C 0.17245 0.20558 0.69377 0.0
C924 C 0.19783 0.19867 0.67271 0.0
C925 C 0.23274 0.21499 0.66378 0.0
C926 C 0.25503 0.20259 0.64138 0.0
C927 C 0.26785 0.22242 0.61032 0.0
C928 C 0.28684 0.19543 0.65391 0.0
C929 C 0.2275 0.1763 0.63975 0.0
C930 C 0.19472 0.1744 0.65802 0.0
C931 C 0.16582 0.15116 0.66163 0.0
C932 C 0.17038 0.12945 0.6459 0.0
C933 C 0.20354 0.13113 0.62639 0.0
C934 C 0.23237 0.15508 0.62344 0.0
H935 H 0.30551 0.80236 0.21463 0.0
H936 H 0.37283 0.81862 0.28043 0.0
H937 H 0.42569 0.81694 0.24287 0.0
H938 H 0.34924 0.75455 0.17993 0.0
H939 H 0.34481 0.76796 0.1421 0.0
H940 H 0.31232 0.7696 0.17452 0.0
H941 H 0.32454 0.82329 0.15662 0.0
H942 H 0.35717 0.82182 0.12422 0.0
H943 H 0.36978 0.84494 0.14998 0.0
H944 H 0.47128 0.81388 0.19776 0.0
H945 H 0.5061 0.81004 0.14822 0.0
H946 H 0.40915 0.79659 0.11186 0.0
C947 C 0.33132 0.80516 0.22123 0.0
C948 C 0.33495 0.80974 0.2507 0.0
C949 C 0.36933 0.8143 0.25823 0.0
C950 C 0.39948 0.81351 0.23702 0.0
C951 C 0.39487 0.8086 0.20824 0.0
C952 C 0.36166 0.80458 0.2003 0.0
C953 C 0.36405 0.80047 0.16764 0.0
C954 C 0.34126 0.77141 0.16597 0.0
C955 C 0.35325 0.82404 0.14849 0.0
C956 C 0.40375 0.80258 0.15848 0.0
C957 C 0.42111 0.80732 0.18219 0.0
C958 C 0.45795 0.81016 0.17907 0.0
C959 C 0.47749 0.808 0.151 0.0
C960 C 0.46006 0.80303 0.12664 0.0
C961 C 0.42284 0.80036 0.13036 0.0
H962 H 0.76086 0.22169 0.38833 0.0
H963 H 0.78764 0.20256 0.29826 0.0
H964 H 0.78833 0.15475 0.32115 0.0
H965 H 0.81583 0.18189 0.42407 0.0
H966 H 0.78359 0.17015 0.45952 0.0
H967 H 0.78637 0.20322 0.43603 0.0
H968 H 0.71865 0.18699 0.43544 0.0
H969 H 0.7158 0.15381 0.4587 0.0
H970 H 0.70192 0.15477 0.42268 0.0
H971 H 0.78483 0.10868 0.35355 0.0
H972 H 0.77871 0.06767 0.39385 0.0
H973 H 0.75409 0.11621 0.46287 0.0
C974 C 0.76739 0.20755 0.37346 0.0
C975 C 0.77413 0.21585 0.34148 0.0
C976 C 0.78203 0.19658 0.3228 0.0
C977 C 0.7826 0.16941 0.33559 0.0
C978 C 0.77523 0.16173 0.36714 0.0
C979 C 0.76792 0.18023 0.38588 0.0
C980 C 0.76026 0.16642 0.41911 0.0
C981 C 0.78819 0.1813 0.43565 0.0
C982 C 0.72187 0.16544 0.4349 0.0
C983 C 0.76433 0.13729 0.41607 0.0
C984 C 0.77301 0.13506 0.38587 0.0
C985 C 0.77809 0.11019 0.37727 0.0
C986 C 0.7745 0.08705 0.40016 0.0
C987 C 0.76588 0.08902 0.43113 0.0
C988 C 0.76058 0.11436 0.43921 0.0
H989 H 0.34545 0.24351 0.81196 0.0
H990 H 0.28443 0.30573 0.82023 0.0
H991 H 0.31656 0.32229 0.85973 0.0
H992 H 0.34448 0.22507 0.89014 0.0
H993 H 0.38937 0.22034 0.88467 0.0
H994 H 0.36347 0.21494 0.85571 0.0
H995 H 0.41409 0.25122 0.81597 0.0
H996 H 0.44025 0.25663 0.8448 0.0
H997 H 0.42993 0.28604 0.82335 0.0
H998 H 0.35329 0.32999 0.90042 0.0
H999 H 0.3929 0.32933 0.9377 0.0
H1000 H 0.42856 0.26125 0.90282 0.0
C1001 C 0.33926 0.26087 0.82182 0.0
C1002 C 0.31267 0.27351 0.81313 0.0
C1003 C 0.30495 0.29599 0.82662 0.0
C1004 C 0.32297 0.30544 0.84903 0.0
C1005 C 0.34867 0.29218 0.85752 0.0
C1006 C 0.35693 0.27049 0.84418 0.0
C1007 C 0.38468 0.25912 0.85799 0.0
C1008 C 0.36958 0.22803 0.87302 0.0
C1009 C 0.41929 0.26353 0.8341 0.0
C1010 C 0.39047 0.27755 0.88145 0.0
C1011 C 0.36959 0.29655 0.88083 0.0
C1012 C 0.36989 0.31528 0.90099 0.0
C1013 C 0.39226 0.31462 0.92222 0.0
C1014 C 0.41399 0.29535 0.92311 0.0
C1015 C 0.41284 0.27661 0.9024 0.0
H1016 H 0.22268 0.82534 0.42342 0.0
H1017 H 0.2632 0.87497 0.33241 0.0
H1018 H 0.26499 0.91817 0.35313 0.0
H1019 H 0.1652 0.87018 0.44942 0.0
H1020 H 0.17372 0.86563 0.48742 0.0
H1021 H 0.17495 0.83821 0.46553 0.0
H1022 H 0.23937 0.8391 0.47337 0.0
H1023 H 0.23844 0.86665 0.49507 0.0
H1024 H 0.2738 0.87162 0.46225 0.0
H1025 H 0.2663 0.9562 0.38338 0.0
H1026 H 0.26179 0.98687 0.42139 0.0
H1027 H 0.21707 0.91358 0.49288 0.0
C1028 C 0.23142 0.84526 0.40781 0.0
C1029 C 0.24343 0.84662 0.37626 0.0
C1030 C 0.25479 0.87324 0.35671 0.0
C1031 C 0.25569 0.89798 0.36823 0.0
C1032 C 0.24462 0.89595 0.39938 0.0
C1033 C 0.23218 0.87033 0.41893 0.0
C1034 C 0.2218 0.87431 0.45151 0.0
C1035 C 0.18152 0.86131 0.46422 0.0
C1036 C 0.24473 0.8622 0.47174 0.0
C1037 C 0.23079 0.90611 0.44715 0.0
C1038 C 0.24412 0.91811 0.41687 0.0
C1039 C 0.2556 0.94708 0.40714 0.0
C1040 C 0.25317 0.96433 0.42889 0.0
C1041 C 0.23906 0.95262 0.46001 0.0
C1042 C 0.22764 0.92309 0.46918 0.0
H1043 H 0.69324 0.7896 0.80466 0.0
H1044 H 0.79048 0.77678 0.83238 0.0
H1045 H 0.76302 0.77558 0.88578 0.0
H1046 H 0.67515 0.83567 0.85672 0.0
H1047 H 0.62718 0.82177 0.86372 0.0
H1048 H 0.65442 0.82126 0.82777 0.0
H1049 H 0.62794 0.76755 0.83524 0.0
H1050 H 0.60077 0.76789 0.87129 0.0
H1051 H 0.63084 0.74525 0.86918 0.0
H1052 H 0.72484 0.77582 0.93636 0.0
H1053 H 0.67895 0.77853 0.98003 0.0
H1054 H 0.60754 0.79214 0.91912 0.0
C1055 C 0.70898 0.78685 0.82186 0.0
C1056 C 0.74407 0.78323 0.81423 0.0
C1057 C 0.7634 0.77921 0.83764 0.0
C1058 C 0.7481 0.77864 0.86804 0.0
C1059 C 0.71344 0.78217 0.87473 0.0
C1060 C 0.69417 0.78631 0.85229 0.0
C1061 C 0.65747 0.78971 0.86546 0.0
C1062 C 0.65333 0.81884 0.85265 0.0
C1063 C 0.62749 0.7662 0.85997 0.0
C1064 C 0.65909 0.78686 0.89883 0.0
C1065 C 0.69158 0.78246 0.90374 0.0
C1066 C 0.69932 0.77925 0.93278 0.0
C1067 C 0.67324 0.78075 0.95737 0.0
C1068 C 0.64002 0.78541 0.95265 0.0
C1069 C 0.63284 0.78844 0.9231 0.0
loop_
_geom_bond_atom_site_label_1
_geom_bond_atom_site_label_2
_geom_bond_distance
_geom_bond_site_symmetry_2
_ccdc_geom_bond_type
H0 C7 0.929 . S
H1 C10 0.930 . S
H2 C12 0.929 . S
H3 C4 0.969 . S
C4 H3 0.969 . S
C4 O5 1.550 . S
C4 H6 0.973 . S
O5 C4 1.550 . S
O5 C11 1.412 . S
H6 C4 0.973 . S
C7 H0 0.929 . S
C7 C8 1.400 . S
C7 C9 1.364 . S
C8 C7 1.400 . S
C8 C12 1.377 . S
C9 C7 1.364 . S
C9 C10 1.374 . S
C10 H1 0.930 . S
C10 C9 1.374 . S
C10 C11 1.383 . S
C11 O5 1.412 . S
C11 C10 1.383 . S
C11 C12 1.394 . S
C12 H2 0.929 . S
C12 C8 1.377 . S
C12 C11 1.394 . S
H13 C20 0.929 . S
H14 C23 0.930 . S
H15 C25 0.929 . S
H16 C17 0.969 . S
C17 H16 0.969 . S
C17 O18 1.550 . S
C17 H19 0.973 . S
O18 C17 1.550 . S
O18 C24 1.412 . S
H19 C17 0.973 . S
C20 H13 0.929 . S
C20 C21 1.400 . S
C20 C22 1.364 . S
C21 C20 1.400 . S
C21 C25 1.377 . S
C22 C20 1.364 . S
C22 C23 1.374 . S
C23 H14 0.930 . S
C23 C22 1.374 . S
C23 C24 1.383 . S
C24 O18 1.412 . S
C24 C23 1.383 . S
C24 C25 1.394 . S
C25 H15 0.929 . S
C25 C21 1.377 . S
C25 C24 1.394 . S
H26 C33 0.929 . S
H27 C36 0.930 . S
H28 C38 0.929 . S
H29 C30 0.969 . S
C30 H29 0.969 . S
C30 O31 1.550 . S
C30 H32 0.973 . S
O31 C30 1.550 . S
O31 C37 1.412 . S
H32 C30 0.973 . S
C33 H26 0.929 . S
C33 C34 1.400 . S
C33 C35 1.364 . S
C34 C33 1.400 . S
C34 C38 1.377 . S
C35 C33 1.364 . S
C35 C36 1.374 . S
C36 H27 0.930 . S
C36 C35 1.374 . S
C36 C37 1.383 . S
C37 O31 1.412 . S
C37 C36 1.383 . S
C37 C38 1.394 . S
C38 H28 0.929 . S
C38 C34 1.377 . S
C38 C37 1.394 . S
H39 C46 0.929 . S
H40 C49 0.930 . S
H41 C51 0.929 . S
H42 C43 0.969 . S
C43 H42 0.969 . S
C43 O44 1.550 . S
C43 H45 0.973 . S
O44 C43 1.550 . S
O44 C50 1.412 . S
H45 C43 0.973 . S
C46 H39 0.929 . S
C46 C47 1.400 . S
C46 C48 1.364 . S
C47 C46 1.400 . S
C47 C51 1.377 . S
C48 C46 1.364 . S
C48 C49 1.374 . S
C49 H40 0.930 . S
C49 C48 1.374 . S
C49 C50 1.383 . S
C50 O44 1.412 . S
C50 C49 1.383 . S
C50 C51 1.394 . S
C51 H41 0.929 . S
C51 C47 1.377 . S
C51 C50 1.394 . S
H52 C59 0.929 . S
H53 C62 0.930 . S
H54 C64 0.929 . S
H55 C56 0.969 . S
C56 H55 0.969 . S
C56 O57 1.550 . S
C56 H58 0.973 . S
O57 C56 1.550 . S
O57 C63 1.412 . S
H58 C56 0.973 . S
C59 H52 0.929 . S
C59 C60 1.400 . S
C59 C61 1.364 . S
C60 C59 1.400 . S
C60 C64 1.377 . S
C61 C59 1.364 . S
C61 C62 1.374 . S
C62 H53 0.930 . S
C62 C61 1.374 . S
C62 C63 1.383 . S
C63 O57 1.412 . S
C63 C62 1.383 . S
C63 C64 1.394 . S
C64 H54 0.929 . S
C64 C60 1.377 . S
C64 C63 1.394 . S
H65 C72 0.929 . S
H66 C75 0.930 . S
H67 C77 0.929 . S
H68 C69 0.969 . S
C69 H68 0.969 . S
C69 O70 1.550 . S
C69 H71 0.973 . S
O70 C69 1.550 . S
O70 C76 1.412 . S
H71 C69 0.973 . S
C72 H65 0.929 . S
C72 C73 1.400 . S
C72 C74 1.364 . S
C73 C72 1.400 . S
C73 C77 1.377 . S
C74 C72 1.364 . S
C74 C75 1.374 . S
C75 H66 0.930 . S
C75 C74 1.374 . S
C75 C76 1.383 . S
C76 O70 1.412 . S
C76 C75 1.383 . S
C76 C77 1.394 . S
C77 H67 0.929 . S
C77 C73 1.377 . S
C77 C76 1.394 . S
H78 C85 0.929 . S
H79 C88 0.930 . S
H80 C90 0.929 . S
H81 C82 0.969 . S
C82 H81 0.969 . S
C82 O83 1.550 . S
C82 H84 0.973 . S
O83 C82 1.550 . S
O83 C89 1.412 . S
H84 C82 0.973 . S
C85 H78 0.929 . S
C85 C86 1.400 . S
C85 C87 1.364 . S
C86 C85 1.400 . S
C86 C90 1.377 . S
C87 C85 1.364 . S
C87 C88 1.374 . S
C88 H79 0.930 . S
C88 C87 1.374 . S
C88 C89 1.383 . S
C89 O83 1.412 . S
C89 C88 1.383 . S
C89 C90 1.394 . S
C90 H80 0.929 . S
C90 C86 1.377 . S
C90 C89 1.394 . S
H91 C98 0.929 . S
H92 C101 0.930 . S
H93 C103 0.929 . S
H94 C95 0.969 . S
C95 H94 0.969 . S
C95 O96 1.550 . S
C95 H97 0.973 . S
O96 C95 1.550 . S
O96 C102 1.412 . S
H97 C95 0.973 . S
C98 H91 0.929 . S
C98 C99 1.400 . S
C98 C100 1.364 . S
C99 C98 1.400 . S
C99 C103 1.377 . S
C100 C98 1.364 . S
C100 C101 1.374 . S
C101 H92 0.930 . S
C101 C100 1.374 . S
C101 C102 1.383 . S
C102 O96 1.412 . S
C102 C101 1.383 . S
C102 C103 1.394 . S
C103 H93 0.929 . S
C103 C99 1.377 . S
C103 C102 1.394 . S
C104 C105 1.443 . S
C104 N108 1.376 . S
C104 C142 1.389 . S
C105 C104 1.443 . S
C105 C106 1.340 . S
C105 H145 0.951 . S
C106 C105 1.340 . S
C106 C107 1.439 1_455 S
C106 H146 0.950 . S
C107 C106 1.439 1_655 S
C107 N108 1.374 1_655 S
C107 C141 1.395 . S
N108 C104 1.376 . S
N108 C107 1.374 1_455 S
N108 Co109 2.008 . S
Co109 N108 2.008 . S
Co109 N110 1.995 1_455 S
Co109 N115 2.008 1_455 S
Co109 N120 1.995 . S
Co109 N125 2.282 . S
Co109 N131 2.282 1_455 S
N110 Co109 1.995 1_655 S
N110 C111 1.376 . S
N110 C114 1.383 . S
C111 N110 1.376 . S
C111 C112 1.446 . S
C111 C141 1.391 . S
C112 C111 1.446 . S
C112 C113 1.339 . S
C112 H147 0.949 . S
C113 C112 1.339 . S
C113 C114 1.439 . S
C113 H148 0.950 . S
C114 N110 1.383 . S
C114 C113 1.439 . S
C114 C143 1.392 . S
N115 Co109 2.008 1_655 S
N115 C116 1.376 . S
N115 C119 1.374 1_655 S
C116 N115 1.376 . S
C116 C117 1.443 . S
C116 C143 1.389 . S
C117 C116 1.443 . S
C117 C118 1.340 . S
C117 H149 0.951 . S
C118 C117 1.340 . S
C118 C119 1.439 1_655 S
C118 H150 0.950 . S
C119 N115 1.374 1_455 S
C119 C118 1.439 1_455 S
C119 C144 1.395 . S
N120 Co109 1.995 . S
N120 C121 1.376 . S
N120 C124 1.383 . S
C121 N120 1.376 . S
C121 C122 1.446 . S
C121 C144 1.391 . S
C122 C121 1.446 . S
C122 C123 1.339 . S
C122 H151 0.949 . S
C123 C122 1.339 . S
C123 C124 1.439 . S
C123 H152 0.950 . S
C124 N120 1.383 . S
C124 C123 1.439 . S
C124 C142 1.392 . S
N125 Co109 2.282 . S
N125 C128 1.332 . S
N125 C130 1.332 . S
C126 C127 1.386 . S
C126 C129 1.388 . S
C127 C126 1.386 . S
C127 C128 1.382 . S
C127 H153 0.950 . S
C128 N125 1.332 . S
C128 C127 1.382 . S
C128 H139 0.952 . S
C129 C126 1.388 . S
C129 C130 1.382 . S
C129 H154 0.950 . S
C130 N125 1.332 . S
C130 C129 1.382 . S
C130 H140 0.948 . S
N131 Co109 2.282 1_655 S
N131 C135 1.332 . S
N131 C136 1.332 . S
C132 C133 1.388 . S
C132 C136 1.382 . S
C132 H155 0.950 . S
C133 C132 1.388 . S
C133 C134 1.386 . S
C134 C133 1.386 . S
C134 C135 1.382 . S
C134 H156 0.950 . S
C135 N131 1.332 . S
C135 C134 1.382 . S
C135 H137 0.952 . S
C136 N131 1.332 . S
C136 C132 1.382 . S
C136 H138 0.948 . S
H137 C135 0.952 . S
H138 C136 0.948 . S
H139 C128 0.952 . S
H140 C130 0.948 . S
C141 C107 1.395 . S
C141 C111 1.391 . S
C142 C104 1.389 . S
C142 C124 1.392 . S
C143 C114 1.392 . S
C143 C116 1.389 . S
C144 C119 1.395 . S
C144 C121 1.391 . S
H145 C105 0.951 . S
H146 C106 0.950 . S
H147 C112 0.949 . S
H148 C113 0.950 . S
H149 C117 0.951 . S
H150 C118 0.950 . S
H151 C122 0.949 . S
H152 C123 0.950 . S
H153 C127 0.950 . S
H154 C129 0.950 . S
H155 C132 0.950 . S
H156 C134 0.950 . S
C157 C158 1.443 . S
C157 N161 1.376 . S
C157 C195 1.389 . S
C158 C157 1.443 . S
C158 C159 1.340 . S
C158 H198 0.951 . S
C159 C158 1.340 . S
C159 C160 1.439 . S
C159 H199 0.950 . S
C160 C159 1.439 . S
C160 N161 1.374 . S
C160 C194 1.395 . S
N161 C157 1.376 . S
N161 C160 1.374 . S
N161 Co162 2.008 . S
Co162 N161 2.008 . S
Co162 N163 1.995 . S
Co162 N168 2.008 . S
Co162 N173 1.995 . S
Co162 N178 2.282 . S
Co162 N184 2.282 . S
N163 Co162 1.995 . S
N163 C164 1.376 . S
N163 C167 1.383 1_455 S
C164 N163 1.376 . S
C164 C165 1.446 1_455 S
C164 C194 1.391 . S
C165 C164 1.446 1_655 S
C165 C166 1.339 . S
C165 H200 0.949 . S
C166 C165 1.339 . S
C166 C167 1.439 . S
C166 H201 0.950 . S
C167 N163 1.383 1_655 S
C167 C166 1.439 . S
C167 C196 1.392 . S
N168 Co162 2.008 . S
N168 C169 1.376 . S
N168 C172 1.374 . S
C169 N168 1.376 . S
C169 C170 1.443 . S
C169 C196 1.389 1_455 S
C170 C169 1.443 . S
C170 C171 1.340 . S
C170 H202 0.951 . S
C171 C170 1.340 . S
C171 C172 1.439 . S
C171 H203 0.950 . S
C172 N168 1.374 . S
C172 C171 1.439 . S
C172 C197 1.395 . S
N173 Co162 1.995 . S
N173 C174 1.376 . S
N173 C177 1.383 . S
C174 N173 1.376 . S
C174 C175 1.446 . S
C174 C197 1.391 . S
C175 C174 1.446 . S
C175 C176 1.339 . S
C175 H204 0.949 . S
C176 C175 1.339 . S
C176 C177 1.439 . S
C176 H205 0.950 . S
C177 N173 1.383 . S
C177 C176 1.439 . S
C177 C195 1.392 . S
N178 Co162 2.282 . S
N178 C181 1.332 . S
N178 C183 1.332 . S
C179 C180 1.386 . S
C179 C182 1.388 . S
C180 C179 1.386 . S
C180 C181 1.382 . S
C180 H206 0.950 . S
C181 N178 1.332 . S
C181 C180 1.382 . S
C181 H192 0.952 . S
C182 C179 1.388 . S
C182 C183 1.382 . S
C182 H207 0.950 . S
C183 N178 1.332 . S
C183 C182 1.382 . S
C183 H193 0.948 . S
N184 Co162 2.282 . S
N184 C188 1.332 1_455 S
N184 C189 1.332 . S
C185 C186 1.388 1_455 S
C185 C189 1.382 . S
C185 H208 0.950 . S
C186 C185 1.388 1_655 S
C186 C187 1.386 . S
C187 C186 1.386 . S
C187 C188 1.382 . S
C187 H209 0.950 . S
C188 N184 1.332 1_655 S
C188 C187 1.382 . S
C188 H190 0.952 . S
C189 N184 1.332 . S
C189 C185 1.382 . S
C189 H191 0.948 . S
H190 C188 0.952 . S
H191 C189 0.948 . S
H192 C181 0.952 . S
H193 C183 0.948 . S
C194 C160 1.395 . S
C194 C164 1.391 . S
C195 C157 1.389 . S
C195 C177 1.392 . S
C196 C167 1.392 . S
C196 C169 1.389 1_655 S
C197 C172 1.395 . S
C197 C174 1.391 . S
H198 C158 0.951 . S
H199 C159 0.950 . S
H200 C165 0.949 . S
H201 C166 0.950 . S
H202 C170 0.951 . S
H203 C171 0.950 . S
H204 C175 0.949 . S
H205 C176 0.950 . S
H206 C180 0.950 . S
H207 C182 0.950 . S
H208 C185 0.950 . S
H209 C187 0.950 . S
C210 C211 1.443 . S
C210 N214 1.348 1_565 S
C210 C248 1.389 . S
C211 C210 1.443 . S
C211 C212 1.340 . S
C211 H251 0.951 . S
C212 C211 1.340 . S
C212 C213 1.439 1_565 S
C212 H252 0.950 . S
C213 C212 1.439 1_545 S
C213 N214 1.375 . S
C213 C247 1.395 . S
N214 C210 1.348 1_545 S
N214 C213 1.375 . S
N214 Co215 2.028 . S
Co215 N214 2.028 . S
Co215 N216 1.995 . S
Co215 N221 2.008 . S
Co215 N226 1.995 1_545 S
Co215 N231 2.282 . S
Co215 N237 2.282 1_545 S
N216 Co215 1.995 . S
N216 C217 1.376 . S
N216 C220 1.383 . S
C217 N216 1.376 . S
C217 C218 1.446 . S
C217 C247 1.391 . S
C218 C217 1.446 . S
C218 C219 1.339 . S
C218 H253 0.949 . S
C219 C218 1.339 . S
C219 C220 1.439 . S
C219 H254 0.950 . S
C220 N216 1.383 . S
C220 C219 1.439 . S
C220 C249 1.392 . S
N221 Co215 2.008 . S
N221 C222 1.376 . S
N221 C225 1.374 . S
C222 N221 1.376 . S
C222 C223 1.443 . S
C222 C249 1.389 . S
C223 C222 1.443 . S
C223 C224 1.340 . S
C223 H255 0.951 . S
C224 C223 1.340 . S
C224 C225 1.439 . S
C224 H256 0.950 . S
C225 N221 1.374 . S
C225 C224 1.439 . S
C225 C250 1.422 . S
N226 Co215 1.995 1_565 S
N226 C227 1.376 . S
N226 C230 1.383 . S
C227 N226 1.376 . S
C227 C228 1.446 . S
C227 C250 1.363 1_565 S
C228 C227 1.446 . S
C228 C229 1.339 . S
C228 H257 0.949 . S
C229 C228 1.339 . S
C229 C230 1.439 . S
C229 H258 0.950 . S
C230 N226 1.383 . S
C230 C229 1.439 . S
C230 C248 1.392 . S
N231 Co215 2.282 . S
N231 C234 1.332 . S
N231 C236 1.332 . S
C232 C233 1.386 . S
C232 C235 1.388 . S
C233 C232 1.386 . S
C233 C234 1.382 . S
C233 H259 0.950 . S
C234 N231 1.332 . S
C234 C233 1.382 . S
C234 H245 0.952 . S
C235 C232 1.388 . S
C235 C236 1.382 . S
C235 H260 0.950 . S
C236 N231 1.332 . S
C236 C235 1.382 . S
C236 H246 0.948 . S
N237 Co215 2.282 1_565 S
N237 C241 1.332 . S
N237 C242 1.332 . S
C238 C239 1.388 . S
C238 C242 1.382 . S
C238 H261 0.950 . S
C239 C238 1.388 . S
C239 C240 1.386 . S
C240 C239 1.386 . S
C240 C241 1.382 . S
C240 H262 0.950 . S
C241 N237 1.332 . S
C241 C240 1.382 . S
C241 H243 0.952 . S
C242 N237 1.332 . S
C242 C238 1.382 . S
C242 H244 0.948 . S
H243 C241 0.952 . S
H244 C242 0.948 . S
H245 C234 0.952 . S
H246 C236 0.948 . S
C247 C213 1.395 . S
C247 C217 1.391 . S
C248 C210 1.389 . S
C248 C230 1.392 . S
C249 C220 1.392 . S
C249 C222 1.389 . S
C250 C225 1.422 . S
C250 C227 1.363 1_545 S
H251 C211 0.951 . S
H252 C212 0.950 . S
H253 C218 0.949 . S
H254 C219 0.950 . S
H255 C223 0.951 . S
H256 C224 0.950 . S
H257 C228 0.949 . S
H258 C229 0.950 . S
H259 C233 0.950 . S
H260 C235 0.950 . S
H261 C238 0.950 . S
H262 C240 0.950 . S
C263 C264 1.443 . S
C263 N267 1.376 . S
C263 C301 1.389 . S
C264 C263 1.443 . S
C264 C265 1.340 . S
C264 H304 0.951 . S
C265 C264 1.340 . S
C265 C266 1.439 . S
C265 H305 0.950 . S
C266 C265 1.439 . S
C266 N267 1.374 . S
C266 C300 1.395 . S
N267 C263 1.376 . S
N267 C266 1.374 . S
N267 Co268 2.008 . S
Co268 N267 2.008 . S
Co268 N269 1.995 . S
Co268 N274 2.008 . S
Co268 N279 1.995 . S
Co268 N284 2.257 1_554 S
Co268 N290 2.282 . S
N269 Co268 1.995 . S
N269 C270 1.376 . S
N269 C273 1.383 1_554 S
C270 N269 1.376 . S
C270 C271 1.446 1_554 S
C270 C300 1.391 . S
C271 C270 1.446 1_556 S
C271 C272 1.339 . S
C271 H306 0.949 . S
C272 C271 1.339 . S
C272 C273 1.439 . S
C272 H307 0.950 . S
C273 N269 1.383 1_556 S
C273 C272 1.439 . S
C273 C302 1.392 . S
N274 Co268 2.008 . S
N274 C275 1.376 1_554 S
N274 C278 1.374 . S
C275 N274 1.376 1_556 S
C275 C276 1.443 . S
C275 C302 1.389 . S
C276 C275 1.443 . S
C276 C277 1.340 . S
C276 H308 0.951 . S
C277 C276 1.340 . S
C277 C278 1.439 1_556 S
C277 H309 0.950 . S
C278 N274 1.374 . S
C278 C277 1.439 1_554 S
C278 C303 1.395 . S
N279 Co268 1.995 . S
N279 C280 1.376 . S
N279 C283 1.383 . S
C280 N279 1.376 . S
C280 C281 1.446 . S
C280 C303 1.391 . S
C281 C280 1.446 . S
C281 C282 1.339 . S
C281 H310 0.949 . S
C282 C281 1.339 . S
C282 C283 1.439 . S
C282 H311 0.950 . S
C283 N279 1.383 . S
C283 C282 1.439 . S
C283 C301 1.392 . S
N284 Co268 2.257 1_556 S
N284 C287 1.344 . S
N284 C289 1.351 . S
C285 C286 1.386 . S
C285 C288 1.388 . S
C286 C285 1.386 . S
C286 C287 1.382 . S
C286 H312 0.950 . S
C287 N284 1.344 . S
C287 C286 1.382 . S
C287 H298 0.952 1_556 S
C288 C285 1.388 . S
C288 C289 1.382 . S
C288 H313 0.950 . S
C289 N284 1.351 . S
C289 C288 1.382 . S
C289 H299 0.948 . S
N290 Co268 2.282 . S
N290 C294 1.332 . S
N290 C295 1.332 . S
C291 C292 1.388 . S
C291 C295 1.382 . S
C291 H314 0.950 . S
C292 C291 1.388 . S
C292 C293 1.386 . S
C293 C292 1.386 . S
C293 C294 1.382 . S
C293 H315 0.950 . S
C294 N290 1.332 . S
C294 C293 1.382 . S
C294 H296 0.952 . S
C295 N290 1.332 . S
C295 C291 1.382 . S
C295 H297 0.948 . S
H296 C294 0.952 . S
H297 C295 0.948 . S
H298 C287 0.952 1_554 S
H299 C289 0.948 . S
C300 C266 1.395 . S
C300 C270 1.391 . S
C301 C263 1.389 . S
C301 C283 1.392 . S
C302 C273 1.392 . S
C302 C275 1.389 . S
C303 C278 1.395 . S
C303 C280 1.391 . S
H304 C264 0.951 . S
H305 C265 0.950 . S
H306 C271 0.949 . S
H307 C272 0.950 . S
H308 C276 0.951 . S
H309 C277 0.950 . S
H310 C281 0.949 . S
H311 C282 0.950 . S
H312 C286 0.950 . S
H313 C288 0.950 . S
H314 C291 0.950 . S
H315 C293 0.950 . S
C316 C317 1.443 . S
C316 N320 1.376 . S
C316 C354 1.389 . S
C317 C316 1.443 . S
C317 C318 1.340 . S
C317 H357 0.951 . S
C318 C317 1.340 . S
C318 C319 1.439 . S
C318 H358 0.950 . S
C319 C318 1.439 . S
C319 N320 1.374 . S
C319 C353 1.395 1_565 S
N320 C316 1.376 . S
N320 C319 1.374 . S
N320 Co321 2.008 1_565 S
Co321 N320 2.008 1_545 S
Co321 N322 1.995 . S
Co321 N327 2.008 . S
Co321 N332 1.995 1_545 S
Co321 N337 2.282 . S
Co321 N343 2.282 1_545 S
N322 Co321 1.995 . S
N322 C323 1.376 . S
N322 C326 1.383 . S
C323 N322 1.376 . S
C323 C324 1.446 . S
C323 C353 1.391 . S
C324 C323 1.446 . S
C324 C325 1.339 . S
C324 H359 0.949 . S
C325 C324 1.339 . S
C325 C326 1.439 . S
C325 H360 0.950 . S
C326 N322 1.383 . S
C326 C325 1.439 . S
C326 C355 1.392 . S
N327 Co321 2.008 . S
N327 C328 1.376 . S
N327 C331 1.374 . S
C328 N327 1.376 . S
C328 C329 1.443 . S
C328 C355 1.389 . S
C329 C328 1.443 . S
C329 C330 1.340 . S
C329 H361 0.951 . S
C330 C329 1.340 . S
C330 C331 1.439 . S
C330 H362 0.950 . S
C331 N327 1.374 . S
C331 C330 1.439 . S
C331 C356 1.395 1_545 S
N332 Co321 1.995 1_565 S
N332 C333 1.376 . S
N332 C336 1.383 . S
C333 N332 1.376 . S
C333 C334 1.446 . S
C333 C356 1.391 . S
C334 C333 1.446 . S
C334 C335 1.339 . S
C334 H363 0.949 . S
C335 C334 1.339 . S
C335 C336 1.439 . S
C335 H364 0.950 . S
C336 N332 1.383 . S
C336 C335 1.439 . S
C336 C354 1.392 . S
N337 Co321 2.282 . S
N337 C340 1.332 . S
N337 C342 1.332 . S
C338 C339 1.386 . S
C338 C341 1.388 . S
C339 C338 1.386 . S
C339 C340 1.382 . S
C339 H365 0.950 . S
C340 N337 1.332 . S
C340 C339 1.382 . S
C340 H351 0.952 . S
C341 C338 1.388 . S
C341 C342 1.382 . S
C341 H366 0.950 . S
C342 N337 1.332 . S
C342 C341 1.382 . S
C342 H352 0.948 . S
N343 Co321 2.282 1_565 S
N343 C347 1.332 . S
N343 C348 1.332 . S
C344 C345 1.388 . S
C344 C348 1.382 . S
C344 H367 0.950 . S
C345 C344 1.388 . S
C345 C346 1.386 . S
C346 C345 1.386 . S
C346 C347 1.382 . S
C346 H368 0.950 . S
C347 N343 1.332 . S
C347 C346 1.382 . S
C347 H349 0.952 . S
C348 N343 1.332 . S
C348 C344 1.382 . S
C348 H350 0.948 . S
H349 C347 0.952 . S
H350 C348 0.948 . S
H351 C340 0.952 . S
H352 C342 0.948 . S
C353 C319 1.395 1_545 S
C353 C323 1.391 . S
C354 C316 1.389 . S
C354 C336 1.392 . S
C355 C326 1.392 . S
C355 C328 1.389 . S
C356 C331 1.395 1_565 S
C356 C333 1.391 . S
H357 C317 0.951 . S
H358 C318 0.950 . S
H359 C324 0.949 . S
H360 C325 0.950 . S
H361 C329 0.951 . S
H362 C330 0.950 . S
H363 C334 0.949 . S
H364 C335 0.950 . S
H365 C339 0.950 . S
H366 C341 0.950 . S
H367 C344 0.950 . S
H368 C346 0.950 . S
C369 C370 1.443 . S
C369 N373 1.376 . S
C369 C407 1.389 . S
C370 C369 1.443 . S
C370 C371 1.340 . S
C370 H410 0.951 . S
C371 C370 1.340 . S
C371 C372 1.439 . S
C371 H411 0.950 . S
C372 C371 1.439 . S
C372 N373 1.374 . S
C372 C406 1.395 1_554 S
N373 C369 1.376 . S
N373 C372 1.374 . S
N373 Co374 2.019 . S
Co374 N373 2.019 . S
Co374 N375 1.986 1_554 S
Co374 N380 1.998 1_554 S
Co374 N385 2.003 . S
Co374 N390 2.269 1_554 S
Co374 N396 2.296 . S
N375 Co374 1.986 1_556 S
N375 C376 1.376 . S
N375 C379 1.383 . S
C376 N375 1.376 . S
C376 C377 1.446 . S
C376 C406 1.391 . S
C377 C376 1.446 . S
C377 C378 1.339 . S
C377 H412 0.949 . S
C378 C377 1.339 . S
C378 C379 1.439 . S
C378 H413 0.950 . S
C379 N375 1.383 . S
C379 C378 1.439 . S
C379 C408 1.392 . S
N380 Co374 1.998 1_556 S
N380 C381 1.376 . S
N380 C384 1.374 . S
C381 N380 1.376 . S
C381 C382 1.443 . S
C381 C408 1.389 . S
C382 C381 1.443 . S
C382 C383 1.340 . S
C382 H414 0.951 . S
C383 C382 1.340 . S
C383 C384 1.439 . S
C383 H415 0.950 . S
C384 N380 1.374 . S
C384 C383 1.439 . S
C384 C409 1.395 1_556 S
N385 Co374 2.003 . S
N385 C386 1.376 . S
N385 C389 1.383 . S
C386 N385 1.376 . S
C386 C387 1.446 . S
C386 C409 1.391 . S
C387 C386 1.446 . S
C387 C388 1.339 . S
C387 H416 0.949 . S
C388 C387 1.339 . S
C388 C389 1.439 . S
C388 H417 0.950 . S
C389 N385 1.383 . S
C389 C388 1.439 . S
C389 C407 1.392 . S
N390 Co374 2.269 1_556 S
N390 C393 1.332 . S
N390 C395 1.332 . S
C391 C392 1.386 . S
C391 C394 1.388 . S
C392 C391 1.386 . S
C392 C393 1.382 . S
C392 H418 0.950 . S
C393 N390 1.332 . S
C393 C392 1.382 . S
C393 H404 0.952 . S
C394 C391 1.388 . S
C394 C395 1.382 . S
C394 H419 0.950 . S
C395 N390 1.332 . S
C395 C394 1.382 . S
C395 H405 0.948 . S
N396 Co374 2.296 . S
N396 C400 1.332 . S
N396 C401 1.332 . S
C397 C398 1.388 . S
C397 C401 1.382 . S
C397 H420 0.950 . S
C398 C397 1.388 . S
C398 C399 1.386 . S
C399 C398 1.386 . S
C399 C400 1.382 . S
C399 H421 0.950 . S
C400 N396 1.332 . S
C400 C399 1.382 . S
C400 H402 0.952 . S
C401 N396 1.332 . S
C401 C397 1.382 . S
C401 H403 0.948 . S
H402 C400 0.952 . S
H403 C401 0.948 . S
H404 C393 0.952 . S
H405 C395 0.948 . S
C406 C372 1.395 1_556 S
C406 C376 1.391 . S
C407 C369 1.389 . S
C407 C389 1.392 . S
C408 C379 1.392 . S
C408 C381 1.389 . S
C409 C384 1.395 1_554 S
C409 C386 1.391 . S
H410 C370 0.951 . S
H411 C371 0.950 . S
H412 C377 0.949 . S
H413 C378 0.950 . S
H414 C382 0.951 . S
H415 C383 0.950 . S
H416 C387 0.949 . S
H417 C388 0.950 . S
H418 C392 0.950 . S
H419 C394 0.950 . S
H420 C397 0.950 . S
H421 C399 0.950 . S
H422 C434 0.930 . S
H423 C436 0.930 . S
H424 C437 0.930 . S
H425 C441 0.959 . S
H426 C441 0.959 . S
H427 C441 0.961 . S
H428 C442 0.960 . S
H429 C442 0.961 . S
H430 C442 0.959 . S
H431 C445 0.929 . S
H432 C446 0.931 . S
H433 C448 0.930 . S
C434 H422 0.930 . S
C434 C435 1.399 . S
C434 C439 1.399 . S
C435 C434 1.399 . S
C435 C436 1.376 . S
C436 H423 0.930 . S
C436 C435 1.376 . S
C436 C437 1.388 . S
C437 H424 0.930 . S
C437 C436 1.388 . S
C437 C438 1.390 . S
C438 C437 1.390 . S
C438 C439 1.394 . S
C438 C444 1.465 . S
C439 C434 1.399 . S
C439 C438 1.394 . S
C439 C440 1.516 . S
C440 C439 1.516 . S
C440 C441 1.502 . S
C440 C442 1.561 . S
C440 C443 1.526 . S
C441 H425 0.959 . S
C441 H426 0.959 . S
C441 H427 0.961 . S
C441 C440 1.502 . S
C442 H428 0.960 . S
C442 H429 0.961 . S
C442 H430 0.959 . S
C442 C440 1.561 . S
C443 C440 1.526 . S
C443 C444 1.396 . S
C443 C448 1.390 . S
C444 C438 1.465 . S
C444 C443 1.396 . S
C444 C445 1.399 . S
C445 H431 0.929 . S
C445 C444 1.399 . S
C445 C446 1.385 . S
C446 H432 0.931 . S
C446 C445 1.385 . S
C446 C447 1.389 . S
C447 C446 1.389 . S
C447 C448 1.387 . S
C448 H433 0.930 . S
C448 C443 1.390 . S
C448 C447 1.387 . S
H449 C461 0.930 . S
H450 C463 0.930 . S
H451 C464 0.930 . S
H452 C468 0.959 . S
H453 C468 0.959 . S
H454 C468 0.961 . S
H455 C469 0.960 . S
H456 C469 0.961 . S
H457 C469 0.959 . S
H458 C472 0.929 . S
H459 C473 0.931 . S
H460 C475 0.930 . S
C461 H449 0.930 . S
C461 C462 1.399 . S
C461 C466 1.399 . S
C462 C461 1.399 . S
C462 C463 1.376 . S
C463 H450 0.930 . S
C463 C462 1.376 . S
C463 C464 1.388 . S
C464 H451 0.930 . S
C464 C463 1.388 . S
C464 C465 1.390 . S
C465 C464 1.390 . S
C465 C466 1.394 . S
C465 C471 1.465 . S
C466 C461 1.399 . S
C466 C465 1.394 . S
C466 C467 1.516 . S
C467 C466 1.516 . S
C467 C468 1.502 . S
C467 C469 1.561 . S
C467 C470 1.526 . S
C468 H452 0.959 . S
C468 H453 0.959 . S
C468 H454 0.961 . S
C468 C467 1.502 . S
C469 H455 0.960 . S
C469 H456 0.961 . S
C469 H457 0.959 . S
C469 C467 1.561 . S
C470 C467 1.526 . S
C470 C471 1.396 . S
C470 C475 1.390 . S
C471 C465 1.465 . S
C471 C470 1.396 . S
C471 C472 1.399 . S
C472 H458 0.929 . S
C472 C471 1.399 . S
C472 C473 1.385 . S
C473 H459 0.931 . S
C473 C472 1.385 . S
C473 C474 1.389 . S
C474 C473 1.389 . S
C474 C475 1.387 . S
C475 H460 0.930 . S
C475 C470 1.390 . S
C475 C474 1.387 . S
H476 C488 0.930 . S
H477 C490 0.930 . S
H478 C491 0.930 . S
H479 C495 0.959 . S
H480 C495 0.959 . S
H481 C495 0.961 . S
H482 C496 0.960 . S
H483 C496 0.961 . S
H484 C496 0.959 . S
H485 C499 0.929 . S
H486 C500 0.931 . S
H487 C502 0.930 . S
C488 H476 0.930 . S
C488 C489 1.399 . S
C488 C493 1.399 . S
C489 C488 1.399 . S
C489 C490 1.376 . S
C490 H477 0.930 . S
C490 C489 1.376 . S
C490 C491 1.388 . S
C491 H478 0.930 . S
C491 C490 1.388 . S
C491 C492 1.390 . S
C492 C491 1.390 . S
C492 C493 1.394 . S
C492 C498 1.465 . S
C493 C488 1.399 . S
C493 C492 1.394 . S
C493 C494 1.516 . S
C494 C493 1.516 . S
C494 C495 1.502 . S
C494 C496 1.561 . S
C494 C497 1.526 . S
C495 H479 0.959 . S
C495 H480 0.959 . S
C495 H481 0.961 . S
C495 C494 1.502 . S
C496 H482 0.960 . S
C496 H483 0.961 . S
C496 H484 0.959 . S
C496 C494 1.561 . S
C497 C494 1.526 . S
C497 C498 1.396 . S
C497 C502 1.390 . S
C498 C492 1.465 . S
C498 C497 1.396 . S
C498 C499 1.399 . S
C499 H485 0.929 . S
C499 C498 1.399 . S
C499 C500 1.385 . S
C500 H486 0.931 . S
C500 C499 1.385 . S
C500 C501 1.389 . S
C501 C500 1.389 . S
C501 C502 1.387 . S
C502 H487 0.930 . S
C502 C497 1.390 . S
C502 C501 1.387 . S
H503 C515 0.930 . S
H504 C517 0.930 . S
H505 C518 0.930 . S
H506 C522 0.959 . S
H507 C522 0.959 . S
H508 C522 0.961 . S
H509 C523 0.960 . S
H510 C523 0.961 . S
H511 C523 0.959 . S
H512 C526 0.929 . S
H513 C527 0.931 . S
H514 C529 0.930 . S
C515 H503 0.930 . S
C515 C516 1.399 . S
C515 C520 1.399 . S
C516 C515 1.399 . S
C516 C517 1.376 . S
C517 H504 0.930 . S
C517 C516 1.376 . S
C517 C518 1.388 . S
C518 H505 0.930 . S
C518 C517 1.388 . S
C518 C519 1.390 . S
C519 C518 1.390 . S
C519 C520 1.394 . S
C519 C525 1.465 . S
C520 C515 1.399 . S
C520 C519 1.394 . S
C520 C521 1.516 . S
C521 C520 1.516 . S
C521 C522 1.502 . S
C521 C523 1.561 . S
C521 C524 1.526 . S
C522 H506 0.959 . S
C522 H507 0.959 . S
C522 H508 0.961 . S
C522 C521 1.502 . S
C523 H509 0.960 . S
C523 H510 0.961 . S
C523 H511 0.959 . S
C523 C521 1.561 . S
C524 C521 1.526 . S
C524 C525 1.396 . S
C524 C529 1.390 . S
C525 C519 1.465 . S
C525 C524 1.396 . S
C525 C526 1.399 . S
C526 H512 0.929 . S
C526 C525 1.399 . S
C526 C527 1.385 . S
C527 H513 0.931 . S
C527 C526 1.385 . S
C527 C528 1.389 . S
C528 C527 1.389 . S
C528 C529 1.387 . S
C529 H514 0.930 . S
C529 C524 1.390 . S
C529 C528 1.387 . S
H530 C542 0.930 . S
H531 C544 0.930 . S
H532 C545 0.930 . S
H533 C549 0.959 . S
H534 C549 0.959 . S
H535 C549 0.961 . S
H536 C550 0.960 . S
H537 C550 0.961 . S
H538 C550 0.959 . S
H539 C553 0.929 . S
H540 C554 0.931 . S
H541 C556 0.930 . S
C542 H530 0.930 . S
C542 C543 1.399 . S
C542 C547 1.399 . S
C543 C542 1.399 . S
C543 C544 1.376 . S
C544 H531 0.930 . S
C544 C543 1.376 . S
C544 C545 1.388 . S
C545 H532 0.930 . S
C545 C544 1.388 . S
C545 C546 1.390 . S
C546 C545 1.390 . S
C546 C547 1.394 . S
C546 C552 1.465 . S
C547 C542 1.399 . S
C547 C546 1.394 . S
C547 C548 1.516 . S
C548 C547 1.516 . S
C548 C549 1.502 . S
C548 C550 1.561 . S
C548 C551 1.526 . S
C549 H533 0.959 . S
C549 H534 0.959 . S
C549 H535 0.961 . S
C549 C548 1.502 . S
C550 H536 0.960 . S
C550 H537 0.961 . S
C550 H538 0.959 . S
C550 C548 1.561 . S
C551 C548 1.526 . S
C551 C552 1.396 . S
C551 C556 1.390 . S
C552 C546 1.465 . S
C552 C551 1.396 . S
C552 C553 1.399 . S
C553 H539 0.929 . S
C553 C552 1.399 . S
C553 C554 1.385 . S
C554 H540 0.931 . S
C554 C553 1.385 . S
C554 C555 1.389 . S
C555 C554 1.389 . S
C555 C556 1.387 . S
C556 H541 0.930 . S
C556 C551 1.390 . S
C556 C555 1.387 . S
H557 C569 0.930 . S
H558 C571 0.930 . S
H559 C572 0.930 . S
H560 C576 0.959 . S
H561 C576 0.959 . S
H562 C576 0.961 . S
H563 C577 0.960 . S
H564 C577 0.961 . S
H565 C577 0.959 . S
H566 C580 0.929 . S
H567 C581 0.931 . S
H568 C583 0.930 . S
C569 H557 0.930 . S
C569 C570 1.399 . S
C569 C574 1.399 . S
C570 C569 1.399 . S
C570 C571 1.376 . S
C571 H558 0.930 . S
C571 C570 1.376 . S
C571 C572 1.388 . S
C572 H559 0.930 . S
C572 C571 1.388 . S
C572 C573 1.390 . S
C573 C572 1.390 . S
C573 C574 1.394 . S
C573 C579 1.465 . S
C574 C569 1.399 . S
C574 C573 1.394 . S
C574 C575 1.516 . S
C575 C574 1.516 . S
C575 C576 1.502 . S
C575 C577 1.561 . S
C575 C578 1.526 . S
C576 H560 0.959 . S
C576 H561 0.959 . S
C576 H562 0.961 . S
C576 C575 1.502 . S
C577 H563 0.960 . S
C577 H564 0.961 . S
C577 H565 0.959 . S
C577 C575 1.561 . S
C578 C575 1.526 . S
C578 C579 1.396 . S
C578 C583 1.390 . S
C579 C573 1.465 . S
C579 C578 1.396 . S
C579 C580 1.399 . S
C580 H566 0.929 . S
C580 C579 1.399 . S
C580 C581 1.385 . S
C581 H567 0.931 . S
C581 C580 1.385 . S
C581 C582 1.389 . S
C582 C581 1.389 . S
C582 C583 1.387 . S
C583 H568 0.930 . S
C583 C578 1.390 . S
C583 C582 1.387 . S
H584 C596 0.930 . S
H585 C598 0.930 . S
H586 C599 0.930 . S
H587 C603 0.959 . S
H588 C603 0.959 . S
H589 C603 0.961 . S
H590 C604 0.960 . S
H591 C604 0.961 . S
H592 C604 0.959 . S
H593 C607 0.929 . S
H594 C608 0.931 . S
H595 C610 0.930 . S
C596 H584 0.930 . S
C596 C597 1.399 . S
C596 C601 1.399 . S
C597 C596 1.399 . S
C597 C598 1.376 . S
C598 H585 0.930 . S
C598 C597 1.376 . S
C598 C599 1.388 . S
C599 H586 0.930 . S
C599 C598 1.388 . S
C599 C600 1.390 . S
C600 C599 1.390 . S
C600 C601 1.394 . S
C600 C606 1.465 . S
C601 C596 1.399 . S
C601 C600 1.394 . S
C601 C602 1.516 . S
C602 C601 1.516 . S
C602 C603 1.502 . S
C602 C604 1.561 . S
C602 C605 1.526 . S
C603 H587 0.959 . S
C603 H588 0.959 . S
C603 H589 0.961 . S
C603 C602 1.502 . S
C604 H590 0.960 . S
C604 H591 0.961 . S
C604 H592 0.959 . S
C604 C602 1.561 . S
C605 C602 1.526 . S
C605 C606 1.396 . S
C605 C610 1.390 . S
C606 C600 1.465 . S
C606 C605 1.396 . S
C606 C607 1.399 . S
C607 H593 0.929 . S
C607 C606 1.399 . S
C607 C608 1.385 . S
C608 H594 0.931 . S
C608 C607 1.385 . S
C608 C609 1.389 . S
C609 C608 1.389 . S
C609 C610 1.387 . S
C610 H595 0.930 . S
C610 C605 1.390 . S
C610 C609 1.387 . S
H611 C623 0.930 . S
H612 C625 0.930 . S
H613 C626 0.930 . S
H614 C630 0.959 . S
H615 C630 0.959 . S
H616 C630 0.961 . S
H617 C631 0.960 . S
H618 C631 0.961 . S
H619 C631 0.959 . S
H620 C634 0.929 . S
H621 C635 0.931 . S
H622 C637 0.930 . S
C623 H611 0.930 . S
C623 C624 1.399 . S
C623 C628 1.399 . S
C624 C623 1.399 . S
C624 C625 1.376 . S
C625 H612 0.930 . S
C625 C624 1.376 . S
C625 C626 1.388 . S
C626 H613 0.930 . S
C626 C625 1.388 . S
C626 C627 1.390 . S
C627 C626 1.390 . S
C627 C628 1.394 . S
C627 C633 1.465 . S
C628 C623 1.399 . S
C628 C627 1.394 . S
C628 C629 1.516 . S
C629 C628 1.516 . S
C629 C630 1.502 . S
C629 C631 1.561 . S
C629 C632 1.526 . S
C630 H614 0.959 . S
C630 H615 0.959 . S
C630 H616 0.961 . S
C630 C629 1.502 . S
C631 H617 0.960 . S
C631 H618 0.961 . S
C631 H619 0.959 . S
C631 C629 1.561 . S
C632 C629 1.526 . S
C632 C633 1.396 . S
C632 C637 1.390 . S
C633 C627 1.465 . S
C633 C632 1.396 . S
C633 C634 1.399 . S
C634 H620 0.929 . S
C634 C633 1.399 . S
C634 C635 1.385 . S
C635 H621 0.931 . S
C635 C634 1.385 . S
C635 C636 1.389 . S
C636 C635 1.389 . S
C636 C637 1.387 . S
C637 H622 0.930 . S
C637 C632 1.390 . S
C637 C636 1.387 . S
H638 C650 0.930 . S
H639 C652 0.930 . S
H640 C653 0.930 . S
H641 C657 0.959 . S
H642 C657 0.959 . S
H643 C657 0.961 . S
H644 C658 0.960 . S
H645 C658 0.961 . S
H646 C658 0.959 . S
H647 C661 0.929 . S
H648 C662 0.931 . S
H649 C664 0.930 . S
C650 H638 0.930 . S
C650 C651 1.399 . S
C650 C655 1.399 . S
C651 C650 1.399 . S
C651 C652 1.376 . S
C652 H639 0.930 . S
C652 C651 1.376 . S
C652 C653 1.388 . S
C653 H640 0.930 . S
C653 C652 1.388 . S
C653 C654 1.390 . S
C654 C653 1.390 . S
C654 C655 1.394 . S
C654 C660 1.465 . S
C655 C650 1.399 . S
C655 C654 1.394 . S
C655 C656 1.516 . S
C656 C655 1.516 . S
C656 C657 1.502 . S
C656 C658 1.561 . S
C656 C659 1.526 . S
C657 H641 0.959 . S
C657 H642 0.959 . S
C657 H643 0.961 . S
C657 C656 1.502 . S
C658 H644 0.960 . S
C658 H645 0.961 . S
C658 H646 0.959 . S
C658 C656 1.561 . S
C659 C656 1.526 . S
C659 C660 1.396 . S
C659 C664 1.390 . S
C660 C654 1.465 . S
C660 C659 1.396 . S
C660 C661 1.399 . S
C661 H647 0.929 . S
C661 C660 1.399 . S
C661 C662 1.385 . S
C662 H648 0.931 . S
C662 C661 1.385 . S
C662 C663 1.389 . S
C663 C662 1.389 . S
C663 C664 1.387 . S
C664 H649 0.930 . S
C664 C659 1.390 . S
C664 C663 1.387 . S
H665 C677 0.930 . S
H666 C679 0.930 . S
H667 C680 0.930 . S
H668 C684 0.959 . S
H669 C684 0.959 . S
H670 C684 0.961 . S
H671 C685 0.960 . S
H672 C685 0.961 . S
H673 C685 0.959 . S
H674 C688 0.929 . S
H675 C689 0.931 . S
H676 C691 0.930 . S
C677 H665 0.930 . S
C677 C678 1.399 . S
C677 C682 1.399 . S
C678 C677 1.399 . S
C678 C679 1.376 . S
C679 H666 0.930 . S
C679 C678 1.376 . S
C679 C680 1.388 . S
C680 H667 0.930 . S
C680 C679 1.388 . S
C680 C681 1.390 . S
C681 C680 1.390 . S
C681 C682 1.394 . S
C681 C687 1.465 . S
C682 C677 1.399 . S
C682 C681 1.394 . S
C682 C683 1.516 . S
C683 C682 1.516 . S
C683 C684 1.502 . S
C683 C685 1.561 . S
C683 C686 1.526 . S
C684 H668 0.959 . S
C684 H669 0.959 . S
C684 H670 0.961 . S
C684 C683 1.502 . S
C685 H671 0.960 . S
C685 H672 0.961 . S
C685 H673 0.959 . S
C685 C683 1.561 . S
C686 C683 1.526 . S
C686 C687 1.396 . S
C686 C691 1.390 . S
C687 C681 1.465 . S
C687 C686 1.396 . S
C687 C688 1.399 . S
C688 H674 0.929 . S
C688 C687 1.399 . S
C688 C689 1.385 . S
C689 H675 0.931 . S
C689 C688 1.385 . S
C689 C690 1.389 . S
C690 C689 1.389 . S
C690 C691 1.387 . S
C691 H676 0.930 . S
C691 C686 1.390 . S
C691 C690 1.387 . S
H692 C704 0.930 . S
H693 C706 0.930 . S
H694 C707 0.930 . S
H695 C711 0.959 . S
H696 C711 0.959 . S
H697 C711 0.961 . S
H698 C712 0.960 . S
H699 C712 0.961 . S
H700 C712 0.959 . S
H701 C715 0.929 . S
H702 C716 0.931 . S
H703 C718 0.930 . S
C704 H692 0.930 . S
C704 C705 1.399 . S
C704 C709 1.399 . S
C705 C704 1.399 . S
C705 C706 1.376 . S
C706 H693 0.930 . S
C706 C705 1.376 . S
C706 C707 1.388 . S
C707 H694 0.930 . S
C707 C706 1.388 . S
C707 C708 1.390 . S
C708 C707 1.390 . S
C708 C709 1.394 . S
C708 C714 1.465 . S
C709 C704 1.399 . S
C709 C708 1.394 . S
C709 C710 1.516 . S
C710 C709 1.516 . S
C710 C711 1.502 . S
C710 C712 1.561 . S
C710 C713 1.526 . S
C711 H695 0.959 . S
C711 H696 0.959 . S
C711 H697 0.961 . S
C711 C710 1.502 . S
C712 H698 0.960 . S
C712 H699 0.961 . S
C712 H700 0.959 . S
C712 C710 1.561 . S
C713 C710 1.526 . S
C713 C714 1.396 . S
C713 C718 1.390 . S
C714 C708 1.465 . S
C714 C713 1.396 . S
C714 C715 1.399 . S
C715 H701 0.929 . S
C715 C714 1.399 . S
C715 C716 1.385 . S
C716 H702 0.931 . S
C716 C715 1.385 . S
C716 C717 1.389 . S
C717 C716 1.389 . S
C717 C718 1.387 . S
C718 H703 0.930 . S
C718 C713 1.390 . S
C718 C717 1.387 . S
H719 C731 0.930 . S
H720 C733 0.930 . S
H721 C734 0.930 . S
H722 C738 0.959 . S
H723 C738 0.959 . S
H724 C738 0.961 . S
H725 C739 0.960 . S
H726 C739 0.961 . S
H727 C739 0.959 . S
H728 C742 0.929 . S
H729 C743 0.931 . S
H730 C745 0.930 . S
C731 H719 0.930 . S
C731 C732 1.399 . S
C731 C736 1.399 . S
C732 C731 1.399 . S
C732 C733 1.376 . S
C733 H720 0.930 . S
C733 C732 1.376 . S
C733 C734 1.388 . S
C734 H721 0.930 . S
C734 C733 1.388 . S
C734 C735 1.390 . S
C735 C734 1.390 . S
C735 C736 1.394 . S
C735 C741 1.465 . S
C736 C731 1.399 . S
C736 C735 1.394 . S
C736 C737 1.516 . S
C737 C736 1.516 . S
C737 C738 1.502 . S
C737 C739 1.561 . S
C737 C740 1.526 . S
C738 H722 0.959 . S
C738 H723 0.959 . S
C738 H724 0.961 . S
C738 C737 1.502 . S
C739 H725 0.960 . S
C739 H726 0.961 . S
C739 H727 0.959 . S
C739 C737 1.561 . S
C740 C737 1.526 . S
C740 C741 1.396 . S
C740 C745 1.390 . S
C741 C735 1.465 . S
C741 C740 1.396 . S
C741 C742 1.399 . S
C742 H728 0.929 . S
C742 C741 1.399 . S
C742 C743 1.385 . S
C743 H729 0.931 . S
C743 C742 1.385 . S
C743 C744 1.389 . S
C744 C743 1.389 . S
C744 C745 1.387 . S
C745 H730 0.930 . S
C745 C740 1.390 . S
C745 C744 1.387 . S
H746 C758 0.930 . S
H747 C760 0.930 . S
H748 C761 0.930 . S
H749 C765 0.959 . S
H750 C765 0.959 . S
H751 C765 0.961 . S
H752 C766 0.960 . S
H753 C766 0.961 . S
H754 C766 0.959 . S
H755 C769 0.929 . S
H756 C770 0.931 . S
H757 C772 0.930 . S
C758 H746 0.930 . S
C758 C759 1.399 . S
C758 C763 1.399 . S
C759 C758 1.399 . S
C759 C760 1.376 . S
C760 H747 0.930 . S
C760 C759 1.376 . S
C760 C761 1.388 . S
C761 H748 0.930 . S
C761 C760 1.388 . S
C761 C762 1.390 . S
C762 C761 1.390 . S
C762 C763 1.394 . S
C762 C768 1.465 . S
C763 C758 1.399 . S
C763 C762 1.394 . S
C763 C764 1.516 . S
C764 C763 1.516 . S
C764 C765 1.502 . S
C764 C766 1.561 . S
C764 C767 1.526 . S
C765 H749 0.959 . S
C765 H750 0.959 . S
C765 H751 0.961 . S
C765 C764 1.502 . S
C766 H752 0.960 . S
C766 H753 0.961 . S
C766 H754 0.959 . S
C766 C764 1.561 . S
C767 C764 1.526 . S
C767 C768 1.396 . S
C767 C772 1.390 . S
C768 C762 1.465 . S
C768 C767 1.396 . S
C768 C769 1.399 . S
C769 H755 0.929 . S
C769 C768 1.399 . S
C769 C770 1.385 . S
C770 H756 0.931 . S
C770 C769 1.385 . S
C770 C771 1.389 . S
C771 C770 1.389 . S
C771 C772 1.387 . S
C772 H757 0.930 . S
C772 C767 1.390 . S
C772 C771 1.387 . S
H773 C785 0.930 . S
H774 C787 0.930 . S
H775 C788 0.930 . S
H776 C792 0.959 . S
H777 C792 0.959 . S
H778 C792 0.961 . S
H779 C793 0.960 . S
H780 C793 0.961 . S
H781 C793 0.959 . S
H782 C796 0.929 . S
H783 C797 0.931 . S
H784 C799 0.930 . S
C785 H773 0.930 . S
C785 C786 1.399 . S
C785 C790 1.399 . S
C786 C785 1.399 . S
C786 C787 1.376 . S
C787 H774 0.930 . S
C787 C786 1.376 . S
C787 C788 1.388 . S
C788 H775 0.930 . S
C788 C787 1.388 . S
C788 C789 1.390 . S
C789 C788 1.390 . S
C789 C790 1.394 . S
C789 C795 1.465 . S
C790 C785 1.399 . S
C790 C789 1.394 . S
C790 C791 1.516 . S
C791 C790 1.516 . S
C791 C792 1.502 . S
C791 C793 1.561 . S
C791 C794 1.526 . S
C792 H776 0.959 . S
C792 H777 0.959 . S
C792 H778 0.961 . S
C792 C791 1.502 . S
C793 H779 0.960 . S
C793 H780 0.961 . S
C793 H781 0.959 . S
C793 C791 1.561 . S
C794 C791 1.526 . S
C794 C795 1.396 . S
C794 C799 1.390 . S
C795 C789 1.465 . S
C795 C794 1.396 . S
C795 C796 1.399 . S
C796 H782 0.929 . S
C796 C795 1.399 . S
C796 C797 1.385 . S
C797 H783 0.931 . S
C797 C796 1.385 . S
C797 C798 1.389 . S
C798 C797 1.389 . S
C798 C799 1.387 . S
C799 H784 0.930 . S
C799 C794 1.390 . S
C799 C798 1.387 . S
H800 C812 0.930 . S
H801 C814 0.930 . S
H802 C815 0.930 . S
H803 C819 0.959 . S
H804 C819 0.959 . S
H805 C819 0.961 . S
H806 C820 0.960 . S
H807 C820 0.961 . S
H808 C820 0.959 . S
H809 C823 0.929 . S
H810 C824 0.931 . S
H811 C826 0.930 . S
C812 H800 0.930 . S
C812 C813 1.399 . S
C812 C817 1.399 . S
C813 C812 1.399 . S
C813 C814 1.376 . S
C814 H801 0.930 . S
C814 C813 1.376 . S
C814 C815 1.388 . S
C815 H802 0.930 . S
C815 C814 1.388 . S
C815 C816 1.390 . S
C816 C815 1.390 . S
C816 C817 1.394 . S
C816 C822 1.465 . S
C817 C812 1.399 . S
C817 C816 1.394 . S
C817 C818 1.516 . S
C818 C817 1.516 . S
C818 C819 1.502 . S
C818 C820 1.561 . S
C818 C821 1.526 . S
C819 H803 0.959 . S
C819 H804 0.959 . S
C819 H805 0.961 . S
C819 C818 1.502 . S
C820 H806 0.960 . S
C820 H807 0.961 . S
C820 H808 0.959 . S
C820 C818 1.561 . S
C821 C818 1.526 . S
C821 C822 1.396 . S
C821 C826 1.390 . S
C822 C816 1.465 . S
C822 C821 1.396 . S
C822 C823 1.399 . S
C823 H809 0.929 . S
C823 C822 1.399 . S
C823 C824 1.385 . S
C824 H810 0.931 . S
C824 C823 1.385 . S
C824 C825 1.389 . S
C825 C824 1.389 . S
C825 C826 1.387 . S
C826 H811 0.930 . S
C826 C821 1.390 . S
C826 C825 1.387 . S
H827 C839 0.930 . S
H828 C841 0.930 . S
H829 C842 0.930 . S
H830 C846 0.959 . S
H831 C846 0.959 . S
H832 C846 0.961 . S
H833 C847 0.960 . S
H834 C847 0.961 . S
H835 C847 0.959 . S
H836 C850 0.929 . S
H837 C851 0.931 . S
H838 C853 0.930 . S
C839 H827 0.930 . S
C839 C840 1.399 . S
C839 C844 1.399 . S
C840 C839 1.399 . S
C840 C841 1.376 . S
C841 H828 0.930 . S
C841 C840 1.376 . S
C841 C842 1.388 . S
C842 H829 0.930 . S
C842 C841 1.388 . S
C842 C843 1.390 . S
C843 C842 1.390 . S
C843 C844 1.394 . S
C843 C849 1.465 . S
C844 C839 1.399 . S
C844 C843 1.394 . S
C844 C845 1.516 . S
C845 C844 1.516 . S
C845 C846 1.502 . S
C845 C847 1.561 . S
C845 C848 1.526 . S
C846 H830 0.959 . S
C846 H831 0.959 . S
C846 H832 0.961 . S
C846 C845 1.502 . S
C847 H833 0.960 . S
C847 H834 0.961 . S
C847 H835 0.959 . S
C847 C845 1.561 . S
C848 C845 1.526 . S
C848 C849 1.396 . S
C848 C853 1.390 . S
C849 C843 1.465 . S
C849 C848 1.396 . S
C849 C850 1.399 . S
C850 H836 0.929 . S
C850 C849 1.399 . S
C850 C851 1.385 . S
C851 H837 0.931 . S
C851 C850 1.385 . S
C851 C852 1.389 . S
C852 C851 1.389 . S
C852 C853 1.387 . S
C853 H838 0.930 . S
C853 C848 1.390 . S
C853 C852 1.387 . S
H854 C866 0.930 . S
H855 C868 0.930 . S
H856 C869 0.930 . S
H857 C873 0.959 . S
H858 C873 0.959 . S
H859 C873 0.961 . S
H860 C874 0.960 . S
H861 C874 0.961 . S
H862 C874 0.959 . S
H863 C877 0.929 . S
H864 C878 0.931 . S
H865 C880 0.930 . S
C866 H854 0.930 . S
C866 C867 1.399 . S
C866 C871 1.399 . S
C867 C866 1.399 . S
C867 C868 1.376 . S
C868 H855 0.930 . S
C868 C867 1.376 . S
C868 C869 1.388 . S
C869 H856 0.930 . S
C869 C868 1.388 . S
C869 C870 1.390 . S
C870 C869 1.390 . S
C870 C871 1.394 . S
C870 C876 1.465 . S
C871 C866 1.399 . S
C871 C870 1.394 . S
C871 C872 1.516 . S
C872 C871 1.516 . S
C872 C873 1.502 . S
C872 C874 1.561 . S
C872 C875 1.526 . S
C873 H857 0.959 . S
C873 H858 0.959 . S
C873 H859 0.961 . S
C873 C872 1.502 . S
C874 H860 0.960 . S
C874 H861 0.961 . S
C874 H862 0.959 . S
C874 C872 1.561 . S
C875 C872 1.526 . S
C875 C876 1.396 . S
C875 C880 1.390 . S
C876 C870 1.465 . S
C876 C875 1.396 . S
C876 C877 1.399 . S
C877 H863 0.929 . S
C877 C876 1.399 . S
C877 C878 1.385 . S
C878 H864 0.931 . S
C878 C877 1.385 . S
C878 C879 1.389 . S
C879 C878 1.389 . S
C879 C880 1.387 . S
C880 H865 0.930 . S
C880 C875 1.390 . S
C880 C879 1.387 . S
H881 C893 0.930 . S
H882 C895 0.930 . S
H883 C896 0.930 . S
H884 C900 0.959 . S
H885 C900 0.959 . S
H886 C900 0.961 . S
H887 C901 0.960 . S
H888 C901 0.961 . S
H889 C901 0.959 . S
H890 C904 0.929 . S
H891 C905 0.931 . S
H892 C907 0.930 . S
C893 H881 0.930 . S
C893 C894 1.399 . S
C893 C898 1.399 . S
C894 C893 1.399 . S
C894 C895 1.376 . S
C895 H882 0.930 . S
C895 C894 1.376 . S
C895 C896 1.388 . S
C896 H883 0.930 . S
C896 C895 1.388 . S
C896 C897 1.390 . S
C897 C896 1.390 . S
C897 C898 1.394 . S
C897 C903 1.465 . S
C898 C893 1.399 . S
C898 C897 1.394 . S
C898 C899 1.516 . S
C899 C898 1.516 . S
C899 C900 1.502 . S
C899 C901 1.561 . S
C899 C902 1.526 . S
C900 H884 0.959 . S
C900 H885 0.959 . S
C900 H886 0.961 . S
C900 C899 1.502 . S
C901 H887 0.960 . S
C901 H888 0.961 . S
C901 H889 0.959 . S
C901 C899 1.561 . S
C902 C899 1.526 . S
C902 C903 1.396 . S
C902 C907 1.390 . S
C903 C897 1.465 . S
C903 C902 1.396 . S
C903 C904 1.399 . S
C904 H890 0.929 . S
C904 C903 1.399 . S
C904 C905 1.385 . S
C905 H891 0.931 . S
C905 C904 1.385 . S
C905 C906 1.389 . S
C906 C905 1.389 . S
C906 C907 1.387 . S
C907 H892 0.930 . S
C907 C902 1.390 . S
C907 C906 1.387 . S
H908 C920 0.930 . S
H909 C922 0.930 . S
H910 C923 0.930 . S
H911 C927 0.959 . S
H912 C927 0.959 . S
H913 C927 0.961 . S
H914 C928 0.960 . S
H915 C928 0.961 . S
H916 C928 0.959 . S
H917 C931 0.929 . S
H918 C932 0.931 . S
H919 C934 0.930 . S
C920 H908 0.930 . S
C920 C921 1.399 . S
C920 C925 1.399 . S
C921 C920 1.399 . S
C921 C922 1.376 . S
C922 H909 0.930 . S
C922 C921 1.376 . S
C922 C923 1.388 . S
C923 H910 0.930 . S
C923 C922 1.388 . S
C923 C924 1.390 . S
C924 C923 1.390 . S
C924 C925 1.394 . S
C924 C930 1.465 . S
C925 C920 1.399 . S
C925 C924 1.394 . S
C925 C926 1.516 . S
C926 C925 1.516 . S
C926 C927 1.502 . S
C926 C928 1.561 . S
C926 C929 1.526 . S
C927 H911 0.959 . S
C927 H912 0.959 . S
C927 H913 0.961 . S
C927 C926 1.502 . S
C928 H914 0.960 . S
C928 H915 0.961 . S
C928 H916 0.959 . S
C928 C926 1.561 . S
C929 C926 1.526 . S
C929 C930 1.396 . S
C929 C934 1.390 . S
C930 C924 1.465 . S
C930 C929 1.396 . S
C930 C931 1.399 . S
C931 H917 0.929 . S
C931 C930 1.399 . S
C931 C932 1.385 . S
C932 H918 0.931 . S
C932 C931 1.385 . S
C932 C933 1.389 . S
C933 C932 1.389 . S
C933 C934 1.387 . S
C934 H919 0.930 . S
C934 C929 1.390 . S
C934 C933 1.387 . S
H935 C947 0.930 . S
H936 C949 0.930 . S
H937 C950 0.930 . S
H938 C954 0.959 . S
H939 C954 0.959 . S
H940 C954 0.961 . S
H941 C955 0.960 . S
H942 C955 0.961 . S
H943 C955 0.959 . S
H944 C958 0.929 . S
H945 C959 0.931 . S
H946 C961 0.930 . S
C947 H935 0.930 . S
C947 C948 1.399 . S
C947 C952 1.399 . S
C948 C947 1.399 . S
C948 C949 1.376 . S
C949 H936 0.930 . S
C949 C948 1.376 . S
C949 C950 1.388 . S
C950 H937 0.930 . S
C950 C949 1.388 . S
C950 C951 1.390 . S
C951 C950 1.390 . S
C951 C952 1.394 . S
C951 C957 1.465 . S
C952 C947 1.399 . S
C952 C951 1.394 . S
C952 C953 1.516 . S
C953 C952 1.516 . S
C953 C954 1.502 . S
C953 C955 1.561 . S
C953 C956 1.526 . S
C954 H938 0.959 . S
C954 H939 0.959 . S
C954 H940 0.961 . S
C954 C953 1.502 . S
C955 H941 0.960 . S
C955 H942 0.961 . S
C955 H943 0.959 . S
C955 C953 1.561 . S
C956 C953 1.526 . S
C956 C957 1.396 . S
C956 C961 1.390 . S
C957 C951 1.465 . S
C957 C956 1.396 . S
C957 C958 1.399 . S
C958 H944 0.929 . S
C958 C957 1.399 . S
C958 C959 1.385 . S
C959 H945 0.931 . S
C959 C958 1.385 . S
C959 C960 1.389 . S
C960 C959 1.389 . S
C960 C961 1.387 . S
C961 H946 0.930 . S
C961 C956 1.390 . S
C961 C960 1.387 . S
H962 C974 0.930 . S
H963 C976 0.930 . S
H964 C977 0.930 . S
H965 C981 0.959 . S
H966 C981 0.959 . S
H967 C981 0.961 . S
H968 C982 0.960 . S
H969 C982 0.961 . S
H970 C982 0.959 . S
H971 C985 0.929 . S
H972 C986 0.931 . S
H973 C988 0.930 . S
C974 H962 0.930 . S
C974 C975 1.399 . S
C974 C979 1.399 . S
C975 C974 1.399 . S
C975 C976 1.376 . S
C976 H963 0.930 . S
C976 C975 1.376 . S
C976 C977 1.388 . S
C977 H964 0.930 . S
C977 C976 1.388 . S
C977 C978 1.390 . S
C978 C977 1.390 . S
C978 C979 1.394 . S
C978 C984 1.465 . S
C979 C974 1.399 . S
C979 C978 1.394 . S
C979 C980 1.516 . S
C980 C979 1.516 . S
C980 C981 1.502 . S
C980 C982 1.561 . S
C980 C983 1.526 . S
C981 H965 0.959 . S
C981 H966 0.959 . S
C981 H967 0.961 . S
C981 C980 1.502 . S
C982 H968 0.960 . S
C982 H969 0.961 . S
C982 H970 0.959 . S
C982 C980 1.561 . S
C983 C980 1.526 . S
C983 C984 1.396 . S
C983 C988 1.390 . S
C984 C978 1.465 . S
C984 C983 1.396 . S
C984 C985 1.399 . S
C985 H971 0.929 . S
C985 C984 1.399 . S
C985 C986 1.385 . S
C986 H972 0.931 . S
C986 C985 1.385 . S
C986 C987 1.389 . S
C987 C986 1.389 . S
C987 C988 1.387 . S
C988 H973 0.930 . S
C988 C983 1.390 . S
C988 C987 1.387 . S
H989 C1001 0.930 . S
H990 C1003 0.930 . S
H991 C1004 0.930 . S
H992 C1008 0.959 . S
H993 C1008 0.959 . S
H994 C1008 0.961 . S
H995 C1009 0.960 . S
H996 C1009 0.961 . S
H997 C1009 0.959 . S
H998 C1012 0.929 . S
H999 C1013 0.931 . S
H1000 C1015 0.930 . S
C1001 H989 0.930 . S
C1001 C1002 1.399 . S
C1001 C1006 1.399 . S
C1002 C1001 1.399 . S
C1002 C1003 1.376 . S
C1003 H990 0.930 . S
C1003 C1002 1.376 . S
C1003 C1004 1.388 . S
C1004 H991 0.930 . S
C1004 C1003 1.388 . S
C1004 C1005 1.390 . S
C1005 C1004 1.390 . S
C1005 C1006 1.394 . S
C1005 C1011 1.465 . S
C1006 C1001 1.399 . S
C1006 C1005 1.394 . S
C1006 C1007 1.516 . S
C1007 C1006 1.516 . S
C1007 C1008 1.502 . S
C1007 C1009 1.561 . S
C1007 C1010 1.526 . S
C1008 H992 0.959 . S
C1008 H993 0.959 . S
C1008 H994 0.961 . S
C1008 C1007 1.502 . S
C1009 H995 0.960 . S
C1009 H996 0.961 . S
C1009 H997 0.959 . S
C1009 C1007 1.561 . S
C1010 C1007 1.526 . S
C1010 C1011 1.396 . S
C1010 C1015 1.390 . S
C1011 C1005 1.465 . S
C1011 C1010 1.396 . S
C1011 C1012 1.399 . S
C1012 H998 0.929 . S
C1012 C1011 1.399 . S
C1012 C1013 1.385 . S
C1013 H999 0.931 . S
C1013 C1012 1.385 . S
C1013 C1014 1.389 . S
C1014 C1013 1.389 . S
C1014 C1015 1.387 . S
C1015 H1000 0.930 . S
C1015 C1010 1.390 . S
C1015 C1014 1.387 . S
H1016 C1028 0.930 . S
H1017 C1030 0.930 . S
H1018 C1031 0.930 . S
H1019 C1035 0.959 . S
H1020 C1035 0.959 . S
H1021 C1035 0.961 . S
H1022 C1036 0.960 . S
H1023 C1036 0.961 . S
H1024 C1036 0.959 . S
H1025 C1039 0.929 . S
H1026 C1040 0.931 . S
H1027 C1042 0.930 . S
C1028 H1016 0.930 . S
C1028 C1029 1.399 . S
C1028 C1033 1.399 . S
C1029 C1028 1.399 . S
C1029 C1030 1.376 . S
C1030 H1017 0.930 . S
C1030 C1029 1.376 . S
C1030 C1031 1.388 . S
C1031 H1018 0.930 . S
C1031 C1030 1.388 . S
C1031 C1032 1.390 . S
C1032 C1031 1.390 . S
C1032 C1033 1.394 . S
C1032 C1038 1.465 . S
C1033 C1028 1.399 . S
C1033 C1032 1.394 . S
C1033 C1034 1.516 . S
C1034 C1033 1.516 . S
C1034 C1035 1.502 . S
C1034 C1036 1.561 . S
C1034 C1037 1.526 . S
C1035 H1019 0.959 . S
C1035 H1020 0.959 . S
C1035 H1021 0.961 . S
C1035 C1034 1.502 . S
C1036 H1022 0.960 . S
C1036 H1023 0.961 . S
C1036 H1024 0.959 . S
C1036 C1034 1.561 . S
C1037 C1034 1.526 . S
C1037 C1038 1.396 . S
C1037 C1042 1.390 . S
C1038 C1032 1.465 . S
C1038 C1037 1.396 . S
C1038 C1039 1.399 . S
C1039 H1025 0.929 . S
C1039 C1038 1.399 . S
C1039 C1040 1.385 . S
C1040 H1026 0.931 . S
C1040 C1039 1.385 . S
C1040 C1041 1.389 . S
C1041 C1040 1.389 . S
C1041 C1042 1.387 . S
C1042 H1027 0.930 . S
C1042 C1037 1.390 . S
C1042 C1041 1.387 . S
H1043 C1055 0.930 . S
H1044 C1057 0.930 . S
H1045 C1058 0.930 . S
H1046 C1062 0.959 . S
H1047 C1062 0.959 . S
H1048 C1062 0.961 . S
H1049 C1063 0.960 . S
H1050 C1063 0.961 . S
H1051 C1063 0.959 . S
H1052 C1066 0.929 . S
H1053 C1067 0.931 . S
H1054 C1069 0.930 . S
C1055 H1043 0.930 . S
C1055 C1056 1.399 . S
C1055 C1060 1.399 . S
C1056 C1055 1.399 . S
C1056 C1057 1.376 . S
C1057 H1044 0.930 . S
C1057 C1056 1.376 . S
C1057 C1058 1.388 . S
C1058 H1045 0.930 . S
C1058 C1057 1.388 . S
C1058 C1059 1.390 . S
C1059 C1058 1.390 . S
C1059 C1060 1.394 . S
C1059 C1065 1.465 . S
C1060 C1055 1.399 . S
C1060 C1059 1.394 . S
C1060 C1061 1.516 . S
C1061 C1060 1.516 . S
C1061 C1062 1.502 . S
C1061 C1063 1.561 . S
C1061 C1064 1.526 . S
C1062 H1046 0.959 . S
C1062 H1047 0.959 . S
C1062 H1048 0.961 . S
C1062 C1061 1.502 . S
C1063 H1049 0.960 . S
C1063 H1050 0.961 . S
C1063 H1051 0.959 . S
C1063 C1061 1.561 . S
C1064 C1061 1.526 . S
C1064 C1065 1.396 . S
C1064 C1069 1.390 . S
C1065 C1059 1.465 . S
C1065 C1064 1.396 . S
C1065 C1066 1.399 . S
C1066 H1052 0.929 . S
C1066 C1065 1.399 . S
C1066 C1067 1.385 . S
C1067 H1053 0.931 . S
C1067 C1066 1.385 . S
C1067 C1068 1.389 . S
C1068 C1067 1.389 . S
C1068 C1069 1.387 . S
C1069 H1054 0.930 . S
C1069 C1064 1.390 . S
C1069 C1068 1.387 . S
C447 C126 1.859 . S
C435 C8 1.853 . S
C474 C195 1.694 . S
C462 C22 1.714 . S
C501 C133 1.743 . S
C489 C30 1.772 . S
C528 C196 1.373 . S
C516 C47 1.367 . S
C555 C249 1.825 . S
C543 C9 1.809 . S
C582 C285 1.721 . S
C570 C17 1.687 . S
C597 C34 1.596 . S
C609 C345 1.599 . S
C636 C408 1.505 . S
C624 C48 1.452 . S
C663 C248 1.854 . S
C651 C21 1.925 . S
C678 C35 1.802 . S
C690 C292 1.842 . S
C717 C338 1.340 . S
C705 C43 1.218 . S
C744 C407 1.568 . S
C732 C4 1.517 . S
C759 C56 1.489 . S
C771 C186 1.529 . S
C798 C143 1.704 . S
C786 C73 1.788 . S
C813 C87 1.730 . S
C825 C179 1.701 . S
C840 C100 1.975 . S
C852 C142 1.969 . S
C879 C354 1.649 . S
C867 C60 1.659 . S
C906 C398 1.386 . S
C894 C69 1.372 . S
C933 C232 1.886 . S
C921 C86 1.920 . S
C948 C95 1.502 . S
C960 C301 1.546 . S
C987 C355 1.603 . S
C975 C74 1.658 . S
C1014 C391 1.409 . S
C1002 C82 1.347 . S
C1041 C239 1.957 . S
C1029 C99 2.015 . S
C1056 C61 1.660 . S
C1068 C302 1.689 . S
