# Generated by pormake.
# Topology ptr, (4,4)-cn, num edge types: 1
# Building blocks:
#     Node 0, Type 0, BuildingBlock: GALJAG_clean_sbu_0, # of connection points: 4
#     Node 1, Type 0, BuildingBlock: GALJAG_clean_sbu_0, # of connection points: 4
#     Node 2, Type 0, BuildingBlock: GALJAG_clean_sbu_0, # of connection points: 4
#     Node 3, Type 0, BuildingBlock: GALJAG_clean_sbu_0, # of connection points: 4
#     Node 4, Type 0, BuildingBlock: GALJAG_clean_sbu_0, # of connection points: 4
#     Node 5, Type 0, BuildingBlock: GALJAG_clean_sbu_0, # of connection points: 4
#     Node 6, Type 0, BuildingBlock: GALJAG_clean_sbu_0, # of connection points: 4
#     Node 7, Type 0, BuildingBlock: GALJAG_clean_sbu_0, # of connection points: 4
#     Node 8, Type 0, BuildingBlock: GALJAG_clean_sbu_0, # of connection points: 4
#     Node 9, Type 0, BuildingBlock: GALJAG_clean_sbu_0, # of connection points: 4
#     Node 10, Type 0, BuildingBlock: GALJAG_clean_sbu_0, # of connection points: 4
#     Node 11, Type 0, BuildingBlock: GALJAG_clean_sbu_0, # of connection points: 4
#     Node 12, Type 0, BuildingBlock: GALJAG_clean_sbu_0, # of connection points: 4
#     Node 13, Type 0, BuildingBlock: GALJAG_clean_sbu_0, # of connection points: 4
#     Node 14, Type 0, BuildingBlock: GALJAG_clean_sbu_0, # of connection points: 4
#     Node 15, Type 0, BuildingBlock: GALJAG_clean_sbu_0, # of connection points: 4
#     Node 16, Type 0, BuildingBlock: GALJAG_clean_sbu_0, # of connection points: 4
#     Node 17, Type 0, BuildingBlock: GALJAG_clean_sbu_0, # of connection points: 4
#     Node 18, Type 1, BuildingBlock: NAWXER_clean_linker_0, # of connection points: 4
#     Node 19, Type 1, BuildingBlock: NAWXER_clean_linker_0, # of connection points: 4
#     Node 20, Type 1, BuildingBlock: NAWXER_clean_linker_0, # of connection points: 4
#     Node 21, Type 1, BuildingBlock: NAWXER_clean_linker_0, # of connection points: 4
#     Node 22, Type 1, BuildingBlock: NAWXER_clean_linker_0, # of connection points: 4
#     Node 23, Type 1, BuildingBlock: NAWXER_clean_linker_0, # of connection points: 4
#     Node 24, Type 1, BuildingBlock: NAWXER_clean_linker_0, # of connection points: 4
#     Node 25, Type 1, BuildingBlock: NAWXER_clean_linker_0, # of connection points: 4
#     Node 26, Type 1, BuildingBlock: NAWXER_clean_linker_0, # of connection points: 4
#     Node 27, Type 1, BuildingBlock: NAWXER_clean_linker_0, # of connection points: 4
#     Node 28, Type 1, BuildingBlock: NAWXER_clean_linker_0, # of connection points: 4
#     Node 29, Type 1, BuildingBlock: NAWXER_clean_linker_0, # of connection points: 4
#     Node 30, Type 1, BuildingBlock: NAWXER_clean_linker_0, # of connection points: 4
#     Node 31, Type 1, BuildingBlock: NAWXER_clean_linker_0, # of connection points: 4
#     Node 32, Type 1, BuildingBlock: NAWXER_clean_linker_0, # of connection points: 4
#     Node 33, Type 1, BuildingBlock: NAWXER_clean_linker_0, # of connection points: 4
#     Node 34, Type 1, BuildingBlock: NAWXER_clean_linker_0, # of connection points: 4
#     Node 35, Type 1, BuildingBlock: NAWXER_clean_linker_0, # of connection points: 4
#     Edge 36, Type (0, 1), BuildingBlock: AJUNOK_clean_linker_0, # of connection points: 2
#     Edge 37, Type (0, 1), BuildingBlock: AJUNOK_clean_linker_0, # of connection points: 2
#     Edge 38, Type (0, 1), BuildingBlock: AJUNOK_clean_linker_0, # of connection points: 2
#     Edge 39, Type (0, 1), BuildingBlock: AJUNOK_clean_linker_0, # of connection points: 2
#     Edge 40, Type (0, 1), BuildingBlock: AJUNOK_clean_linker_0, # of connection points: 2
#     Edge 41, Type (0, 1), BuildingBlock: AJUNOK_clean_linker_0, # of connection points: 2
#     Edge 42, Type (0, 1), BuildingBlock: AJUNOK_clean_linker_0, # of connection points: 2
#     Edge 43, Type (0, 1), BuildingBlock: AJUNOK_clean_linker_0, # of connection points: 2
#     Edge 44, Type (0, 1), BuildingBlock: AJUNOK_clean_linker_0, # of connection points: 2
#     Edge 45, Type (0, 1), BuildingBlock: AJUNOK_clean_linker_0, # of connection points: 2
#     Edge 46, Type (0, 1), BuildingBlock: AJUNOK_clean_linker_0, # of connection points: 2
#     Edge 47, Type (0, 1), BuildingBlock: AJUNOK_clean_linker_0, # of connection points: 2
#     Edge 48, Type (0, 1), BuildingBlock: AJUNOK_clean_linker_0, # of connection points: 2
#     Edge 49, Type (0, 1), BuildingBlock: AJUNOK_clean_linker_0, # of connection points: 2
#     Edge 50, Type (0, 1), BuildingBlock: AJUNOK_clean_linker_0, # of connection points: 2
#     Edge 51, Type (0, 1), BuildingBlock: AJUNOK_clean_linker_0, # of connection points: 2
#     Edge 52, Type (0, 1), BuildingBlock: AJUNOK_clean_linker_0, # of connection points: 2
#     Edge 53, Type (0, 1), BuildingBlock: AJUNOK_clean_linker_0, # of connection points: 2
#     Edge 54, Type (0, 1), BuildingBlock: AJUNOK_clean_linker_0, # of connection points: 2
#     Edge 55, Type (0, 1), BuildingBlock: AJUNOK_clean_linker_0, # of connection points: 2
#     Edge 56, Type (0, 1), BuildingBlock: AJUNOK_clean_linker_0, # of connection points: 2
#     Edge 57, Type (0, 1), BuildingBlock: AJUNOK_clean_linker_0, # of connection points: 2
#     Edge 58, Type (0, 1), BuildingBlock: AJUNOK_clean_linker_0, # of connection points: 2
#     Edge 59, Type (0, 1), BuildingBlock: AJUNOK_clean_linker_0, # of connection points: 2
#     Edge 60, Type (0, 1), BuildingBlock: AJUNOK_clean_linker_0, # of connection points: 2
#     Edge 61, Type (0, 1), BuildingBlock: AJUNOK_clean_linker_0, # of connection points: 2
#     Edge 62, Type (0, 1), BuildingBlock: AJUNOK_clean_linker_0, # of connection points: 2
#     Edge 63, Type (0, 1), BuildingBlock: AJUNOK_clean_linker_0, # of connection points: 2
#     Edge 64, Type (0, 1), BuildingBlock: AJUNOK_clean_linker_0, # of connection points: 2
#     Edge 65, Type (0, 1), BuildingBlock: AJUNOK_clean_linker_0, # of connection points: 2
#     Edge 66, Type (0, 1), BuildingBlock: AJUNOK_clean_linker_0, # of connection points: 2
#     Edge 67, Type (0, 1), BuildingBlock: AJUNOK_clean_linker_0, # of connection points: 2
#     Edge 68, Type (0, 1), BuildingBlock: AJUNOK_clean_linker_0, # of connection points: 2
#     Edge 69, Type (0, 1), BuildingBlock: AJUNOK_clean_linker_0, # of connection points: 2
#     Edge 70, Type (0, 1), BuildingBlock: AJUNOK_clean_linker_0, # of connection points: 2
#     Edge 71, Type (0, 1), BuildingBlock: AJUNOK_clean_linker_0, # of connection points: 2
#     Edge 72, Type (0, 1), BuildingBlock: AJUNOK_clean_linker_0, # of connection points: 2
#     Edge 73, Type (0, 1), BuildingBlock: AJUNOK_clean_linker_0, # of connection points: 2
#     Edge 74, Type (0, 1), BuildingBlock: AJUNOK_clean_linker_0, # of connection points: 2
#     Edge 75, Type (0, 1), BuildingBlock: AJUNOK_clean_linker_0, # of connection points: 2
#     Edge 76, Type (0, 1), BuildingBlock: AJUNOK_clean_linker_0, # of connection points: 2
#     Edge 77, Type (0, 1), BuildingBlock: AJUNOK_clean_linker_0, # of connection points: 2
#     Edge 78, Type (0, 1), BuildingBlock: AJUNOK_clean_linker_0, # of connection points: 2
#     Edge 79, Type (0, 1), BuildingBlock: AJUNOK_clean_linker_0, # of connection points: 2
#     Edge 80, Type (0, 1), BuildingBlock: AJUNOK_clean_linker_0, # of connection points: 2
#     Edge 81, Type (0, 1), BuildingBlock: AJUNOK_clean_linker_0, # of connection points: 2
#     Edge 82, Type (0, 1), BuildingBlock: AJUNOK_clean_linker_0, # of connection points: 2
#     Edge 83, Type (0, 1), BuildingBlock: AJUNOK_clean_linker_0, # of connection points: 2
#     Edge 84, Type (0, 1), BuildingBlock: AJUNOK_clean_linker_0, # of connection points: 2
#     Edge 85, Type (0, 1), BuildingBlock: AJUNOK_clean_linker_0, # of connection points: 2
#     Edge 86, Type (0, 1), BuildingBlock: AJUNOK_clean_linker_0, # of connection points: 2
#     Edge 87, Type (0, 1), BuildingBlock: AJUNOK_clean_linker_0, # of connection points: 2
#     Edge 88, Type (0, 1), BuildingBlock: AJUNOK_clean_linker_0, # of connection points: 2
#     Edge 89, Type (0, 1), BuildingBlock: AJUNOK_clean_linker_0, # of connection points: 2
#     Edge 90, Type (0, 1), BuildingBlock: AJUNOK_clean_linker_0, # of connection points: 2
#     Edge 91, Type (0, 1), BuildingBlock: AJUNOK_clean_linker_0, # of connection points: 2
#     Edge 92, Type (0, 1), BuildingBlock: AJUNOK_clean_linker_0, # of connection points: 2
#     Edge 93, Type (0, 1), BuildingBlock: AJUNOK_clean_linker_0, # of connection points: 2
#     Edge 94, Type (0, 1), BuildingBlock: AJUNOK_clean_linker_0, # of connection points: 2
#     Edge 95, Type (0, 1), BuildingBlock: AJUNOK_clean_linker_0, # of connection points: 2
#     Edge 96, Type (0, 1), BuildingBlock: AJUNOK_clean_linker_0, # of connection points: 2
#     Edge 97, Type (0, 1), BuildingBlock: AJUNOK_clean_linker_0, # of connection points: 2
#     Edge 98, Type (0, 1), BuildingBlock: AJUNOK_clean_linker_0, # of connection points: 2
#     Edge 99, Type (0, 1), BuildingBlock: AJUNOK_clean_linker_0, # of connection points: 2
#     Edge 100, Type (0, 1), BuildingBlock: AJUNOK_clean_linker_0, # of connection points: 2
#     Edge 101, Type (0, 1), BuildingBlock: AJUNOK_clean_linker_0, # of connection points: 2
#     Edge 102, Type (0, 1), BuildingBlock: AJUNOK_clean_linker_0, # of connection points: 2
#     Edge 103, Type (0, 1), BuildingBlock: AJUNOK_clean_linker_0, # of connection points: 2
#     Edge 104, Type (0, 1), BuildingBlock: AJUNOK_clean_linker_0, # of connection points: 2
#     Edge 105, Type (0, 1), BuildingBlock: AJUNOK_clean_linker_0, # of connection points: 2
#     Edge 106, Type (0, 1), BuildingBlock: AJUNOK_clean_linker_0, # of connection points: 2
#     Edge 107, Type (0, 1), BuildingBlock: AJUNOK_clean_linker_0, # of connection points: 2
# Relax obj value: 0.045
# Max RMSD: 0.081
# Mean RMSD: 0.066
data_MOF--net-ptr--node1-GALJAG_clean_sbu_0--node2-NAWXER_clean_linker_0--edge1-AJUNOK_clean_linker_0
_symmetry_space_group_name_H-M    P1
_symmetry_Int_Tables_number       1
_symmetry_cell_setting            triclinic
loop_
_symmetry_equiv_pos_as_xyz
'x, y, z'
_cell_length_a     67.238237
_cell_length_b     67.290438
_cell_length_c     52.321069
_cell_angle_alpha  90.013129
_cell_angle_beta   90.031444
_cell_angle_gamma 120.02844
loop_
_atom_site_label
_atom_site_type_symbol
_atom_site_fract_x
_atom_site_fract_y
_atom_site_fract_z
_atom_type_partial_charge
In0 In 0.0033 0.35228 0.01432 0.0
O1 O 0.98299 0.35572 0.04771 0.0
O2 O 0.01354 0.38545 0.03516 0.0
C3 C 0.97548 0.31248 0.99031 0.0
C4 C 0.03232 0.34309 0.04046 0.0
C5 C 0.00777 0.37883 0.97387 0.0
O6 O 0.96828 0.32002 0.0081 0.0
O7 O 0.99667 0.32451 0.98565 0.0
O8 O 0.02487 0.37835 0.98341 0.0
O9 O 0.98886 0.36618 0.98498 0.0
C10 C 0.9969 0.37696 0.05057 0.0
O11 O 0.03856 0.35526 0.02042 0.0
O12 O 0.01161 0.33534 0.04655 0.0
In13 In 0.65091 0.65133 0.01522 0.0
O14 O 0.6498 0.62977 0.05 0.0
O15 O 0.61869 0.6274 0.0371 0.0
C16 C 0.69031 0.66137 0.99133 0.0
C17 C 0.65936 0.69072 0.0384 0.0
C18 C 0.62366 0.62915 0.97508 0.0
O19 O 0.68281 0.64789 0.01025 0.0
O20 O 0.67817 0.67002 0.98496 0.0
O21 O 0.62704 0.64854 0.98242 0.0
O22 O 0.63398 0.62125 0.98806 0.0
C23 C 0.62835 0.62081 0.05286 0.0
O24 O 0.64277 0.68007 0.02313 0.0
O25 O 0.67165 0.68166 0.04152 0.0
In26 In 0.3521 0.0009 0.01646 0.0
O27 O 0.36247 0.03794 1.00584 0.0
O28 O 0.33034 0.01106 0.99253 0.0
C29 C 0.37831 0.00799 0.05836 0.0
C30 C 0.37472 0.99286 0.97881 0.0
C31 C 0.31246 0.96949 0.03847 0.0
O32 O 0.37403 0.02313 0.05004 0.0
O33 O 0.36925 0.98959 0.04563 0.0
O34 O 0.32318 0.96404 0.02271 0.0
O35 O 0.32149 0.99077 0.04253 0.0
C36 C 0.34445 0.0323 0.99309 0.0
O37 O 0.35304 0.98255 0.97953 0.0
O38 O 0.38453 0.0069 0.99673 0.0
In39 In 0.00193 0.65221 0.01574 0.0
O40 O 0.02092 0.6517 0.97921 0.0
O41 O 0.99309 0.62036 0.99321 0.0
C42 C 0.03296 0.6918 0.03824 0.0
C43 C 0.96911 0.65817 0.99339 0.0
C44 C 0.99788 0.6245 0.05494 0.0
O45 O 0.03854 0.68197 0.02144 0.0
O46 O 0.01173 0.68196 0.04303 0.0
O47 O 0.98408 0.63199 0.05231 0.0
O48 O 0.01349 0.63132 0.03831 0.0
C49 C 0.00856 0.63017 0.97661 0.0
O50 O 0.96433 0.64133 0.00784 0.0
O51 O 0.99026 0.67227 0.991 0.0
In52 In 0.35107 0.35368 0.01418 0.0
O53 O 0.35373 0.37744 0.98137 0.0
O54 O 0.38301 0.37447 0.98986 0.0
C55 C 0.31058 0.34379 0.03549 0.0
C56 C 0.34151 0.31401 0.99103 0.0
C57 C 0.37806 0.37462 0.05516 0.0
O58 O 0.32142 0.36049 0.02045 0.0
O59 O 0.31975 0.33159 0.03891 0.0
O60 O 0.37735 0.35733 0.04471 0.0
O61 O 0.36552 0.38126 0.04469 0.0
C62 C 0.37423 0.38331 0.97583 0.0
O63 O 0.35303 0.32076 0.01148 0.0
O64 O 0.33461 0.3271 0.98265 0.0
In65 In 0.65315 0.0035 0.01618 0.0
O66 O 0.64934 0.02372 0.04923 0.0
O67 O 0.62007 0.99238 0.03804 0.0
C68 C 0.69388 0.03447 0.996 0.0
C69 C 0.66185 0.97335 0.0406 0.0
C70 C 0.62825 0.99874 0.97376 0.0
O71 O 0.68195 0.04016 0.00949 0.0
O72 O 0.68591 0.01312 0.99392 0.0
O73 O 0.62787 0.98161 0.98428 0.0
O74 O 0.64057 0.01756 0.98498 0.0
C75 C 0.62837 0.00935 0.05301 0.0
O76 O 0.65128 0.96864 0.01947 0.0
O77 O 0.66831 0.99329 0.0489 0.0
In78 In 0.66493 0.68368 0.34943 0.0
O79 O 0.64189 0.68634 0.37984 0.0
O80 O 0.67515 0.71517 0.37385 0.0
C81 C 0.63816 0.64257 0.32727 0.0
C82 C 0.69501 0.67615 0.37566 0.0
C83 C 0.66845 0.70948 0.30843 0.0
O84 O 0.63099 0.64994 0.34523 0.0
O85 O 0.65889 0.65566 0.32116 0.0
O86 O 0.68588 0.70983 0.31814 0.0
O87 O 0.64979 0.69673 0.31985 0.0
C88 C 0.65666 0.70653 0.38641 0.0
O89 O 0.70082 0.68828 0.35561 0.0
O90 O 0.67415 0.66746 0.38166 0.0
In91 In 0.31894 0.98318 0.35009 0.0
O92 O 0.31748 0.96254 0.38562 0.0
O93 O 0.28604 0.95734 0.37 0.0
C94 C 0.3602 0.99417 0.33038 0.0
C95 C 0.32551 0.02139 0.37424 0.0
C96 C 0.2932 0.9636 0.30805 0.0
O97 O 0.3477 0.97547 0.34187 0.0
O98 O 0.35224 0.0076 0.32959 0.0
O99 O 0.29261 0.97975 0.31978 0.0
O100 O 0.30659 0.9576 0.31763 0.0
C101 C 0.29586 0.95238 0.38734 0.0
O102 O 0.31596 0.01563 0.35255 0.0
O103 O 0.33185 0.00808 0.38326 0.0
In104 In 0.0172 0.33364 0.3496 0.0
O105 O 0.0256 0.37055 0.34178 0.0
O106 O 0.99711 0.34338 0.32254 0.0
C107 C 0.04493 0.3396 0.38955 0.0
C108 C 0.04004 0.32729 0.31116 0.0
C109 C 0.97785 0.30247 0.37243 0.0
O110 O 0.0369 0.35283 0.38588 0.0
O111 O 0.03895 0.3238 0.37327 0.0
O112 O 0.98844 0.29675 0.35679 0.0
O113 O 0.9868 0.3238 0.37585 0.0
C114 C 0.0094 0.36473 0.32594 0.0
O115 O 0.0186 0.31433 0.31389 0.0
O116 O 0.04946 0.34323 0.32736 0.0
In117 In 0.66794 0.98551 0.35001 0.0
O118 O 0.69105 0.97993 0.3219 0.0
O119 O 0.65514 0.95629 0.32183 0.0
C120 C 0.69733 0.02531 0.37315 0.0
C121 C 0.6412 0.9982 0.32449 0.0
C122 C 0.65849 0.95562 0.38881 0.0
O123 O 0.70331 0.01748 0.35452 0.0
O124 O 0.67651 0.01327 0.37962 0.0
O125 O 0.6428 0.95594 0.37582 0.0
O126 O 0.67865 0.97019 0.38225 0.0
C127 C 0.67442 0.96227 0.312 0.0
O128 O 0.63462 0.98667 0.34495 0.0
O129 O 0.6614 0.00399 0.31783 0.0
In130 In 0.0179 0.68493 0.35012 0.0
O131 O 0.02093 0.70759 0.31581 0.0
O132 O 0.0513 0.70915 0.33017 0.0
C133 C 0.9769 0.67328 0.37109 0.0
C134 C 0.01057 0.64633 0.32603 0.0
C135 C 0.04386 0.7067 0.3912 0.0
O136 O 0.98573 0.68817 0.35361 0.0
O137 O 0.98845 0.66395 0.37729 0.0
O138 O 0.04389 0.68958 0.3812 0.0
O139 O 0.0309 0.71269 0.38034 0.0
C140 C 0.04243 0.71617 0.31385 0.0
O141 O 0.0213 0.6527 0.347 0.0
O142 O 0.00341 0.6592 0.31772 0.0
In143 In 0.31979 0.33533 0.35014 0.0
O144 O 0.31972 0.30141 0.35425 0.0
O145 O 0.33797 0.32777 0.38174 0.0
C146 C 0.29267 0.32952 0.30942 0.0
C147 C 0.29454 0.3376 0.38888 0.0
C148 C 0.36012 0.36654 0.32932 0.0
O149 O 0.29497 0.31324 0.31815 0.0
O150 O 0.3037 0.34817 0.32142 0.0
O151 O 0.34945 0.37202 0.34512 0.0
O152 O 0.35081 0.34529 0.32487 0.0
C153 C 0.3315 0.30751 0.37461 0.0
O154 O 0.31331 0.35487 0.38211 0.0
O155 O 0.2884 0.31984 0.37556 0.0
In156 In 0.33484 0.01777 0.68356 0.0
O157 O 0.36993 0.0202 0.68858 0.0
O158 O 0.34346 0.00069 0.71542 0.0
C159 C 0.33823 0.04337 0.64247 0.0
C160 C 0.32964 0.04293 0.72037 0.0
C161 C 0.30615 0.97698 0.66182 0.0
O162 O 0.35561 0.04322 0.65159 0.0
O163 O 0.31976 0.03124 0.6545 0.0
O164 O 0.29998 0.98483 0.68028 0.0
O165 O 0.32683 0.98939 0.6551 0.0
C166 C 0.36401 0.00819 0.70874 0.0
O167 O 0.31376 0.02293 0.71463 0.0
O168 O 0.34767 0.05008 0.70723 0.0
In169 In 0.98282 0.31611 0.68527 0.0
O170 O 0.96978 0.34049 0.69626 0.0
O171 O 0.0048 0.35127 0.70347 0.0
C172 C 0.94867 0.29577 0.65022 0.0
C173 C 0.96973 0.28731 0.72583 0.0
C174 C 0.02126 0.32299 0.66065 0.0
O175 O 0.96489 0.31616 0.64787 0.0
O176 O 0.94923 0.28613 0.67061 0.0
O177 O 0.01634 0.31466 0.68288 0.0
O178 O 0.007 0.32785 0.65128 0.0
C179 C 0.98877 0.35579 0.70525 0.0
O180 O 0.97246 0.28136 0.70379 0.0
O181 O 0.97417 0.30782 0.72743 0.0
In182 In 0.6863 0.66835 0.67972 0.0
O183 O 0.69766 0.70537 0.66888 0.0
O184 O 0.66359 0.67957 0.6593 0.0
C185 C 0.718 0.67655 0.71642 0.0
C186 C 0.70235 0.65583 0.639 0.0
C187 C 0.64659 0.64006 0.70414 0.0
O188 O 0.71111 0.69055 0.71178 0.0
O189 O 0.70938 0.65914 0.70217 0.0
O190 O 0.65119 0.63559 0.6822 0.0
O191 O 0.66181 0.65892 0.71337 0.0
C192 C 0.67887 0.7005 0.65822 0.0
O193 O 0.69048 0.64178 0.65626 0.0
O194 O 0.70572 0.67583 0.64206 0.0
In195 In 0.33493 0.31693 0.68386 0.0
O196 O 0.35462 0.31567 0.64871 0.0
O197 O 0.32727 0.28426 0.66311 0.0
C198 C 0.36537 0.3574 0.70539 0.0
C199 C 0.30458 0.32398 0.65741 0.0
C200 C 0.32679 0.2894 0.72473 0.0
O201 O 0.37146 0.34491 0.69372 0.0
O202 O 0.34401 0.3498 0.7056 0.0
O203 O 0.31126 0.29247 0.71508 0.0
O204 O 0.346 0.30016 0.7137 0.0
C205 C 0.34259 0.29414 0.64632 0.0
O206 O 0.2994 0.31345 0.67857 0.0
O207 O 0.32501 0.33136 0.65035 0.0
In208 In 0.68657 0.01811 0.68361 0.0
O209 O 0.68907 0.04247 0.65127 0.0
O210 O 0.71429 0.03231 0.65345 0.0
C211 C 0.64758 0.01079 0.70642 0.0
C212 C 0.67564 0.97772 0.66162 0.0
C213 C 0.71622 0.03969 0.72259 0.0
O214 O 0.65775 0.02615 0.68966 0.0
O215 O 0.65683 0.99885 0.71115 0.0
O216 O 0.70851 0.01873 0.71763 0.0
O217 O 0.70916 0.0496 0.70776 0.0
C218 C 0.70676 0.04346 0.64157 0.0
O219 O 0.69365 0.98906 0.67477 0.0
O220 O 0.66278 0.98636 0.66031 0.0
In221 In 0.98156 0.66607 0.67967 0.0
O222 O 0.98073 0.63184 0.68386 0.0
O223 O 0.99884 0.65772 0.71179 0.0
C224 C 0.95307 0.65777 0.63958 0.0
C225 C 0.95771 0.67122 0.71807 0.0
C226 C 0.02176 0.69703 0.65805 0.0
O227 O 0.95702 0.6426 0.64844 0.0
O228 O 0.9634 0.67679 0.65104 0.0
O229 O 0.01055 0.70286 0.67258 0.0
O230 O 0.01286 0.67568 0.6549 0.0
C231 C 0.99243 0.6376 0.70423 0.0
O232 O 0.97773 0.68683 0.71206 0.0
O233 O 0.94985 0.65338 0.70447 0.0
C234 C 0.23935 0.34599 0.12009 0.0
C235 C 0.23466 0.33009 0.10034 0.0
C236 C 0.22193 0.34333 0.13672 0.0
C237 C 0.19954 0.32469 0.13391 0.0
C238 C 0.21236 0.31124 0.0978 0.0
C239 C 0.19487 0.30872 0.11427 0.0
C240 C 0.18057 0.32302 0.14975 0.0
C241 C 0.22511 0.31076 0.20592 0.0
C242 C 0.23274 0.3257 0.22707 0.0
C243 C 0.20893 0.31064 0.18889 0.0
C244 C 0.20034 0.32568 0.19258 0.0
C245 C 0.22428 0.34085 0.23044 0.0
C246 C 0.2083 0.34081 0.21346 0.0
C247 C 0.1815 0.32454 0.17671 0.0
C248 C 0.09 0.30661 0.21164 0.0
C249 C 0.0972 0.32431 0.22982 0.0
C250 C 0.10548 0.30706 0.19336 0.0
C251 C 0.12832 0.32519 0.19314 0.0
C252 C 0.11969 0.34309 0.22835 0.0
C253 C 0.13517 0.34331 0.21051 0.0
C254 C 0.14593 0.32444 0.17699 0.0
C255 C 0.10521 0.34342 0.12492 0.0
C256 C 0.09604 0.32967 0.1031 0.0
C257 C 0.12097 0.34124 0.14031 0.0
C258 C 0.12742 0.32482 0.13458 0.0
C259 C 0.10294 0.31375 0.09682 0.0
C260 C 0.11848 0.31132 0.11247 0.0
C261 C 0.14504 0.32315 0.15005 0.0
H262 H 0.25648 0.36056 0.12253 0.0
H263 H 0.22584 0.35617 0.15135 0.0
H264 H 0.20837 0.29879 0.08268 0.0
H265 H 0.17764 0.29437 0.11158 0.0
H266 H 0.23153 0.29908 0.20264 0.0
H267 H 0.20269 0.29838 0.17334 0.0
H268 H 0.22963 0.35242 0.24665 0.0
H269 H 0.20185 0.35246 0.21691 0.0
H270 H 0.07273 0.292 0.21222 0.0
H271 H 0.09993 0.29282 0.18019 0.0
H272 H 0.12553 0.3574 0.24145 0.0
H273 H 0.15269 0.35753 0.21052 0.0
H274 H 0.10048 0.35616 0.12978 0.0
H275 H 0.12851 0.35287 0.15629 0.0
H276 H 0.09613 0.30306 0.07997 0.0
H277 H 0.12352 0.29888 0.10729 0.0
N278 N 0.16234 0.3223 0.13752 0.0
N279 N 0.16412 0.32518 0.18913 0.0
C280 C 0.65963 0.89922 0.12446 0.0
C281 C 0.67332 0.90794 0.10252 0.0
C282 C 0.66136 0.88323 0.13995 0.0
C283 C 0.67734 0.87619 0.13426 0.0
C284 C 0.68903 0.90068 0.09653 0.0
C285 C 0.69101 0.88494 0.11226 0.0
C286 C 0.67841 0.85817 0.14958 0.0
C287 C 0.69366 0.91405 0.20861 0.0
C288 C 0.67818 0.90659 0.22926 0.0
C289 C 0.69315 0.89819 0.19083 0.0
C290 C 0.67699 0.8747 0.19335 0.0
C291 C 0.66202 0.88312 0.23152 0.0
C292 C 0.66147 0.86741 0.21383 0.0
C293 C 0.67719 0.85707 0.17659 0.0
C294 C 0.68816 0.77664 0.2053 0.0
C295 C 0.67181 0.76806 0.22507 0.0
C296 C 0.68907 0.79324 0.18836 0.0
C297 C 0.67369 0.80152 0.19108 0.0
C298 C 0.65641 0.77631 0.22754 0.0
C299 C 0.65737 0.79284 0.21078 0.0
C300 C 0.67574 0.82086 0.17557 0.0
C301 C 0.65481 0.7631 0.11944 0.0
C302 C 0.67118 0.76766 0.1003 0.0
C303 C 0.65696 0.78067 0.13549 0.0
C304 C 0.67552 0.80311 0.13265 0.0
C305 C 0.68959 0.79015 0.09728 0.0
C306 C 0.69163 0.80776 0.1132 0.0
C307 C 0.67731 0.82203 0.14867 0.0
H308 H 0.64717 0.90436 0.12925 0.0
H309 H 0.64977 0.87602 0.15602 0.0
H310 H 0.69985 0.90728 0.07976 0.0
H311 H 0.7032 0.87954 0.10717 0.0
H312 H 0.70613 0.93208 0.20623 0.0
H313 H 0.70565 0.9042 0.17552 0.0
H314 H 0.65002 0.87681 0.24733 0.0
H315 H 0.64897 0.84938 0.21635 0.0
H316 H 0.70033 0.77067 0.20312 0.0
H317 H 0.70221 0.80008 0.17372 0.0
H318 H 0.644 0.77044 0.24296 0.0
H319 H 0.64553 0.79917 0.21349 0.0
H320 H 0.64043 0.74589 0.12207 0.0
H321 H 0.64393 0.77678 0.14986 0.0
H322 H 0.70223 0.79414 0.0824 0.0
H323 H 0.70586 0.82503 0.11041 0.0
N324 N 0.67868 0.84067 0.13676 0.0
N325 N 0.67578 0.83843 0.18831 0.0
C326 C 0.10817 0.76405 0.12088 0.0
C327 C 0.0963 0.76843 0.10165 0.0
C328 C 0.12324 0.78163 0.13715 0.0
C329 C 0.1267 0.80392 0.13446 0.0
C330 C 0.09939 0.79058 0.09927 0.0
C331 C 0.11472 0.80828 0.11535 0.0
C332 C 0.14456 0.82305 0.14969 0.0
C333 C 0.0914 0.78547 0.21351 0.0
C334 C 0.09858 0.77394 0.23031 0.0
C335 C 0.10631 0.80012 0.19463 0.0
C336 C 0.1286 0.8035 0.19244 0.0
C337 C 0.12034 0.77619 0.22671 0.0
C338 C 0.13533 0.79113 0.20827 0.0
C339 C 0.14603 0.82212 0.17648 0.0
C340 C 0.22461 0.91502 0.20533 0.0
C341 C 0.23315 0.90789 0.22577 0.0
C342 C 0.20833 0.89884 0.18849 0.0
C343 C 0.20048 0.87531 0.19176 0.0
C344 C 0.22552 0.8844 0.22866 0.0
C345 C 0.20933 0.86832 0.21194 0.0
C346 C 0.18155 0.85755 0.1761 0.0
C347 C 0.2393 0.89367 0.11991 0.0
C348 C 0.23508 0.90553 0.10054 0.0
C349 C 0.22162 0.87879 0.13617 0.0
C350 C 0.1994 0.87555 0.13338 0.0
C351 C 0.21294 0.9025 0.0979 0.0
C352 C 0.19516 0.88739 0.11401 0.0
C353 C 0.18029 0.85841 0.1492 0.0
H354 H 0.10591 0.74703 0.12317 0.0
H355 H 0.13275 0.77796 0.15126 0.0
H356 H 0.0904 0.79432 0.08454 0.0
H357 H 0.11739 0.82541 0.11274 0.0
H358 H 0.0747 0.78399 0.21572 0.0
H359 H 0.10092 0.80973 0.18271 0.0
H360 H 0.12606 0.76687 0.23865 0.0
H361 H 0.15245 0.79347 0.20678 0.0
H362 H 0.23038 0.93304 0.2025 0.0
H363 H 0.20142 0.90467 0.17345 0.0
H364 H 0.23165 0.87837 0.24434 0.0
H365 H 0.20344 0.85029 0.215 0.0
H366 H 0.25629 0.89591 0.12244 0.0
H367 H 0.22519 0.86944 0.15057 0.0
H368 H 0.20932 0.91147 0.08307 0.0
H369 H 0.17808 0.8849 0.11134 0.0
N370 N 0.16174 0.8412 0.13704 0.0
N371 N 0.1644 0.83938 0.18859 0.0
C372 C 0.33806 0.10657 0.82225 0.0
C373 C 0.32097 0.09593 0.80342 0.0
C374 C 0.33665 0.12102 0.84047 0.0
C375 C 0.31791 0.12481 0.84046 0.0
C376 C 0.30193 0.0992 0.8039 0.0
C377 C 0.3005 0.11364 0.82212 0.0
C378 C 0.31764 0.14239 0.85729 0.0
C379 C 0.31497 0.08845 0.91064 0.0
C380 C 0.33131 0.09644 0.93048 0.0
C381 C 0.31203 0.10386 0.89536 0.0
C382 C 0.326 0.12767 0.89891 0.0
C383 C 0.3451 0.12024 0.93415 0.0
C384 C 0.34249 0.13563 0.91855 0.0
C385 C 0.32268 0.14449 0.88377 0.0
C386 C 0.30832 0.22238 0.91649 0.0
C387 C 0.3277 0.23451 0.93227 0.0
C388 C 0.30611 0.20447 0.90094 0.0
C389 C 0.3233 0.19842 0.90084 0.0
C390 C 0.34485 0.22838 0.93208 0.0
C391 C 0.34253 0.21034 0.91674 0.0
C392 C 0.32116 0.17927 0.8849 0.0
C393 C 0.33213 0.2342 0.8277 0.0
C394 C 0.31538 0.22745 0.80845 0.0
C395 C 0.33187 0.21808 0.84475 0.0
C396 C 0.31462 0.19489 0.84315 0.0
C397 C 0.29785 0.20435 0.8072 0.0
C398 C 0.29753 0.18824 0.82434 0.0
C399 C 0.31601 0.17709 0.85853 0.0
H400 H 0.3528 0.10411 0.82251 0.0
H401 H 0.35059 0.12983 0.85398 0.0
H402 H 0.28857 0.09131 0.78955 0.0
H403 H 0.28602 0.11651 0.82154 0.0
H404 H 0.3044 0.07026 0.90685 0.0
H405 H 0.29859 0.09704 0.88107 0.0
H406 H 0.35772 0.12701 0.94936 0.0
H407 H 0.35335 0.15387 0.92198 0.0
H408 H 0.29477 0.22663 0.91633 0.0
H409 H 0.2909 0.19521 0.8892 0.0
H410 H 0.36027 0.23775 0.94346 0.0
H411 H 0.356 0.20596 0.91695 0.0
H412 H 0.34592 0.25186 0.82904 0.0
H413 H 0.34577 0.22363 0.85838 0.0
H414 H 0.28503 0.1985 0.79221 0.0
H415 H 0.28428 0.17041 0.82241 0.0
N416 N 0.31437 0.15869 0.84588 0.0
N417 N 0.32431 0.16294 0.89639 0.0
C418 C 0.91952 0.22111 0.91389 0.0
C419 C 0.91239 0.23403 0.92842 0.0
C420 C 0.9038 0.2028 0.89878 0.0
C421 C 0.88063 0.19693 0.89816 0.0
C422 C 0.88912 0.22793 0.9279 0.0
C423 C 0.87338 0.20946 0.91306 0.0
C424 C 0.86356 0.17704 0.88319 0.0
C425 C 0.90564 0.22953 0.82314 0.0
C426 C 0.91823 0.22314 0.80699 0.0
C427 C 0.88945 0.21374 0.84017 0.0
C428 C 0.88535 0.19115 0.84131 0.0
C429 C 0.9143 0.20057 0.80844 0.0
C430 C 0.89788 0.18469 0.8253 0.0
C431 C 0.86635 0.17374 0.8571 0.0
C432 C 0.77316 0.10303 0.82326 0.0
C433 C 0.77879 0.09082 0.80569 0.0
C434 C 0.78947 0.11803 0.84081 0.0
C435 C 0.8117 0.12103 0.84117 0.0
C436 C 0.80089 0.09351 0.80638 0.0
C437 C 0.81723 0.10857 0.82386 0.0
C438 C 0.82997 0.13906 0.8572 0.0
C439 C 0.77855 0.08769 0.9127 0.0
C440 C 0.77034 0.09677 0.93147 0.0
C441 C 0.79695 0.10224 0.89693 0.0
C442 C 0.80718 0.12621 0.89918 0.0
C443 C 0.78111 0.12071 0.93424 0.0
C444 C 0.79915 0.13522 0.91819 0.0
C445 C 0.8273 0.14223 0.88348 0.0
H446 H 0.93719 0.22493 0.91447 0.0
H447 H 0.90966 0.19296 0.88798 0.0
H448 H 0.88311 0.23759 0.93879 0.0
H449 H 0.85552 0.20509 0.91301 0.0
H450 H 0.90756 0.24646 0.8219 0.0
H451 H 0.87946 0.21894 0.8517 0.0
H452 H 0.92367 0.19509 0.79624 0.0
H453 H 0.89476 0.16726 0.82563 0.0
H454 H 0.75628 0.10136 0.82302 0.0
H455 H 0.78495 0.12792 0.85343 0.0
H456 H 0.80585 0.08469 0.7927 0.0
H457 H 0.83438 0.11091 0.82349 0.0
H458 H 0.77075 0.0693 0.9102 0.0
H459 H 0.80334 0.09467 0.8833 0.0
H460 H 0.77582 0.12831 0.94907 0.0
H461 H 0.80696 0.15361 0.92078 0.0
N462 N 0.84422 0.16118 0.89528 0.0
N463 N 0.84947 0.15486 0.84517 0.0
C464 C 0.7799 0.69423 0.9136 0.0
C465 C 0.76775 0.67466 0.92908 0.0
C466 C 0.79768 0.69651 0.89775 0.0
C467 C 0.80363 0.67928 0.89716 0.0
C468 C 0.7735 0.65726 0.92798 0.0
C469 C 0.79144 0.6597 0.91244 0.0
C470 C 0.82337 0.68199 0.882 0.0
C471 C 0.77075 0.6701 0.82091 0.0
C472 C 0.77801 0.68725 0.8021 0.0
C473 C 0.78611 0.67092 0.83947 0.0
C474 C 0.80898 0.68903 0.83969 0.0
C475 C 0.80053 0.70593 0.80308 0.0
C476 C 0.81594 0.7067 0.82157 0.0
C477 C 0.82643 0.68774 0.85581 0.0
C478 C 0.89615 0.66439 0.82142 0.0
C479 C 0.90719 0.68142 0.80266 0.0
C480 C 0.88191 0.66627 0.83956 0.0
C481 C 0.87879 0.68541 0.83953 0.0
C482 C 0.90468 0.70092 0.80322 0.0
C483 C 0.89048 0.7028 0.82137 0.0
C484 C 0.86108 0.68596 0.85583 0.0
C485 C 0.91314 0.6864 0.91051 0.0
C486 C 0.90438 0.66976 0.93001 0.0
C487 C 0.89836 0.69005 0.89491 0.0
C488 C 0.87442 0.67665 0.89793 0.0
C489 C 0.88048 0.65697 0.93357 0.0
C490 C 0.86571 0.66025 0.91761 0.0
C491 C 0.85819 0.6805 0.88221 0.0
H492 H 0.7759 0.70795 0.91407 0.0
H493 H 0.80712 0.71195 0.88644 0.0
H494 H 0.76403 0.64166 0.93901 0.0
H495 H 0.79573 0.64617 0.91221 0.0
H496 H 0.75341 0.65558 0.82062 0.0
H497 H 0.7804 0.65672 0.85268 0.0
H498 H 0.80655 0.71929 0.78871 0.0
H499 H 0.83356 0.72068 0.82116 0.0
H500 H 0.89803 0.64932 0.82161 0.0
H501 H 0.87265 0.65232 0.85292 0.0
H502 H 0.91292 0.71424 0.78892 0.0
H503 H 0.88811 0.71758 0.82078 0.0
H504 H 0.93148 0.69668 0.90732 0.0
H505 H 0.90577 0.7036 0.8808 0.0
H506 H 0.87311 0.64466 0.94898 0.0
H507 H 0.84737 0.64997 0.92082 0.0
N508 N 0.83936 0.67867 0.89408 0.0
N509 N 0.84519 0.68953 0.84387 0.0
C510 C 0.75214 0.64281 0.45162 0.0
C511 C 0.7597 0.66292 0.43712 0.0
C512 C 0.76767 0.63948 0.46613 0.0
C513 C 0.79109 0.65613 0.4663 0.0
C514 C 0.7832 0.67944 0.43707 0.0
C515 C 0.79877 0.676 0.45142 0.0
C516 C 0.80785 0.65228 0.48056 0.0
C517 C 0.7701 0.66442 0.54515 0.0
C518 C 0.75459 0.64406 0.55796 0.0
C519 C 0.78576 0.66457 0.52751 0.0
C520 C 0.78645 0.64447 0.52253 0.0
C521 C 0.7547 0.62371 0.55199 0.0
C522 C 0.77079 0.62402 0.53479 0.0
C523 C 0.80486 0.64538 0.50638 0.0
C524 C 0.89728 0.66242 0.53696 0.0
C525 C 0.89079 0.64538 0.55579 0.0
C526 C 0.88112 0.66179 0.51971 0.0
C527 C 0.85814 0.64392 0.52068 0.0
C528 C 0.86796 0.6272 0.55636 0.0
C529 C 0.85179 0.62652 0.53901 0.0
C530 C 0.84017 0.64503 0.50532 0.0
C531 C 0.88526 0.63887 0.44576 0.0
C532 C 0.89797 0.6589 0.43114 0.0
C533 C 0.86759 0.63654 0.46179 0.0
C534 C 0.86225 0.65417 0.46341 0.0
C535 C 0.89269 0.6766 0.43307 0.0
C536 C 0.87479 0.67411 0.44877 0.0
C537 C 0.84292 0.65153 0.47929 0.0
H538 H 0.73425 0.62944 0.45141 0.0
H539 H 0.76144 0.62364 0.47674 0.0
H540 H 0.78953 0.69509 0.42608 0.0
H541 H 0.81682 0.68895 0.45105 0.0
H542 H 0.7707 0.68046 0.54939 0.0
H543 H 0.79793 0.6806 0.51848 0.0
H544 H 0.74254 0.60757 0.56078 0.0
H545 H 0.77109 0.60832 0.53113 0.0
H546 H 0.91474 0.6767 0.53616 0.0
H547 H 0.88641 0.67594 0.5065 0.0
H548 H 0.86232 0.61411 0.571 0.0
H549 H 0.83411 0.61278 0.54046 0.0
H550 H 0.88883 0.62488 0.44461 0.0
H551 H 0.85785 0.62083 0.47259 0.0
H552 H 0.90258 0.69254 0.42272 0.0
H553 H 0.87095 0.68792 0.44978 0.0
N554 N 0.82675 0.65506 0.468 0.0
N555 N 0.82113 0.64207 0.51778 0.0
C556 C 0.32741 0.23247 0.45764 0.0
C557 C 0.3419 0.24154 0.43635 0.0
C558 C 0.32806 0.21573 0.47278 0.0
C559 C 0.34364 0.20813 0.46732 0.0
C560 C 0.35695 0.23348 0.43031 0.0
C561 C 0.35785 0.21693 0.4457 0.0
C562 C 0.344 0.1898 0.48275 0.0
C563 C 0.36188 0.24496 0.54458 0.0
C564 C 0.34394 0.23831 0.56237 0.0
C565 C 0.36104 0.22931 0.52632 0.0
C566 C 0.34238 0.20677 0.52582 0.0
C567 C 0.32487 0.216 0.56093 0.0
C568 C 0.32424 0.20035 0.54307 0.0
C569 C 0.34264 0.18894 0.50969 0.0
C570 C 0.35636 0.11048 0.53963 0.0
C571 C 0.34027 0.10174 0.55965 0.0
C572 C 0.35658 0.12671 0.52262 0.0
C573 C 0.34074 0.13441 0.52549 0.0
C574 C 0.32455 0.10955 0.56242 0.0
C575 C 0.32481 0.1257 0.54557 0.0
C576 C 0.34174 0.15304 0.50948 0.0
C577 C 0.32184 0.09376 0.45632 0.0
C578 C 0.33589 0.09845 0.43476 0.0
C579 C 0.32405 0.1116 0.47191 0.0
C580 C 0.34085 0.13445 0.46665 0.0
C581 C 0.35231 0.12128 0.42908 0.0
C582 C 0.35474 0.13913 0.44489 0.0
C583 C 0.34285 0.15365 0.48248 0.0
H584 H 0.31526 0.23805 0.46228 0.0
H585 H 0.31596 0.2084 0.48839 0.0
H586 H 0.36816 0.24014 0.41384 0.0
H587 H 0.36969 0.21105 0.44076 0.0
H588 H 0.37699 0.26187 0.54546 0.0
H589 H 0.37538 0.23444 0.5134 0.0
H590 H 0.31062 0.21045 0.57409 0.0
H591 H 0.30972 0.183 0.543 0.0
H592 H 0.36877 0.10485 0.53724 0.0
H593 H 0.36942 0.13361 0.50767 0.0
H594 H 0.31233 0.10354 0.57803 0.0
H595 H 0.31265 0.13161 0.54841 0.0
H596 H 0.30887 0.07628 0.46087 0.0
H597 H 0.31232 0.1075 0.48779 0.0
H598 H 0.36342 0.12526 0.4126 0.0
H599 H 0.36757 0.15661 0.44018 0.0
N600 N 0.34416 0.17213 0.47023 0.0
N601 N 0.34153 0.17064 0.52186 0.0
C602 C 0.77088 0.09746 0.45632 0.0
C603 C 0.76197 0.10263 0.43471 0.0
C604 C 0.78669 0.11501 0.47211 0.0
C605 C 0.79325 0.13804 0.4671 0.0
C606 C 0.76896 0.1256 0.42917 0.0
C607 C 0.78446 0.14316 0.44527 0.0
C608 C 0.81054 0.15694 0.48327 0.0
C609 C 0.7537 0.11252 0.53967 0.0
C610 C 0.76109 0.1032 0.55902 0.0
C611 C 0.76969 0.12935 0.52317 0.0
C612 C 0.79326 0.13706 0.52591 0.0
C613 C 0.78466 0.11108 0.5617 0.0
C614 C 0.80053 0.12782 0.54536 0.0
C615 C 0.81088 0.15598 0.51026 0.0
C616 C 0.88383 0.2478 0.54563 0.0
C617 C 0.89196 0.24021 0.56605 0.0
C618 C 0.87002 0.23238 0.52656 0.0
C619 C 0.8643 0.20925 0.52766 0.0
C620 C 0.88733 0.21741 0.56611 0.0
C621 C 0.87348 0.20207 0.54728 0.0
C622 C 0.84623 0.19163 0.51113 0.0
C623 C 0.90552 0.2293 0.45684 0.0
C624 C 0.90123 0.24021 0.43646 0.0
C625 C 0.88771 0.21454 0.47305 0.0
C626 C 0.86529 0.21045 0.46916 0.0
C627 C 0.87893 0.23651 0.43288 0.0
C628 C 0.86104 0.22152 0.44892 0.0
C629 C 0.84593 0.19277 0.48424 0.0
H630 H 0.76594 0.07984 0.46067 0.0
H631 H 0.79403 0.11052 0.48796 0.0
H632 H 0.76228 0.12991 0.41253 0.0
H633 H 0.78956 0.16078 0.44069 0.0
H634 H 0.73562 0.10685 0.5374 0.0
H635 H 0.76373 0.13664 0.50867 0.0
H636 H 0.7909 0.10465 0.57685 0.0
H637 H 0.81863 0.13371 0.54807 0.0
H638 H 0.88729 0.26534 0.54506 0.0
H639 H 0.86286 0.23823 0.51179 0.0
H640 H 0.89396 0.21127 0.58116 0.0
H641 H 0.86934 0.18432 0.54847 0.0
H642 H 0.92264 0.23206 0.46008 0.0
H643 H 0.89133 0.20574 0.48809 0.0
H644 H 0.87525 0.24476 0.41726 0.0
H645 H 0.84382 0.21836 0.44537 0.0
N646 N 0.82804 0.17544 0.47137 0.0
N647 N 0.82872 0.17331 0.52296 0.0
C648 C 0.98041 0.55504 0.15457 0.0
C649 C 0.99846 0.56658 0.137 0.0
C650 C 0.98125 0.54013 0.1727 0.0
C651 C 1.00011 0.53655 0.17337 0.0
C652 C 0.01795 0.56407 0.13902 0.0
C653 C 0.01856 0.5489 0.1567 0.0
C654 C 0.99967 0.51811 0.18906 0.0
C655 C 0.01556 0.57592 0.24287 0.0
C656 C 0.00125 0.57037 0.26432 0.0
C657 C 0.01431 0.55863 0.22704 0.0
C658 C 0.99819 0.53546 0.23189 0.0
C659 C 0.98549 0.54727 0.2696 0.0
C660 C 0.98397 0.52995 0.2535 0.0
C661 C 0.99743 0.51684 0.21595 0.0
C662 C 0.01629 0.44162 0.24343 0.0
C663 C 0.99976 0.43034 0.26257 0.0
C664 C 0.01504 0.45763 0.22751 0.0
C665 C 0.99728 0.46268 0.23052 0.0
C666 C 0.98197 0.43534 0.26555 0.0
C667 C 0.98086 0.45153 0.24978 0.0
C668 C 0.99703 0.48109 0.21533 0.0
C669 C 0.97949 0.42757 0.15157 0.0
C670 C 0.99782 0.43416 0.13436 0.0
C671 C 0.98057 0.44279 0.17054 0.0
C672 C 0.99994 0.46482 0.17245 0.0
C673 C 0.01779 0.45564 0.13764 0.0
C674 C 0.01866 0.47096 0.15618 0.0
C675 C 0.99954 0.48262 0.18855 0.0
H676 H 0.96523 0.55672 0.15355 0.0
H677 H 0.96674 0.53057 0.18531 0.0
H678 H 0.03249 0.57336 0.12639 0.0
H679 H 0.03331 0.54644 0.15703 0.0
H680 H 0.02807 0.59364 0.23868 0.0
H681 H 0.0264 0.56346 0.21143 0.0
H682 H 0.97424 0.54264 0.28604 0.0
H683 H 0.97167 0.51223 0.25794 0.0
H684 H 0.0302 0.43808 0.24084 0.0
H685 H 0.02834 0.46652 0.21334 0.0
H686 H 0.96921 0.42707 0.28041 0.0
H687 H 0.96723 0.45545 0.25271 0.0
H688 H 0.96393 0.41109 0.14962 0.0
H689 H 0.96583 0.43785 0.18278 0.0
H690 H 0.03257 0.46091 0.12537 0.0
H691 H 0.03377 0.48787 0.15741 0.0
N692 N 0.00078 0.50105 0.1765 0.0
N693 N 0.99602 0.49824 0.228 0.0
C694 C 0.4451 0.42114 0.15938 0.0
C695 C 0.43738 0.42897 0.1388 0.0
C696 C 0.46139 0.43679 0.17663 0.0
C697 C 0.47 0.46049 0.17368 0.0
C698 C 0.44571 0.45262 0.1363 0.0
C699 C 0.46184 0.46816 0.15347 0.0
C700 C 0.48926 0.47774 0.18943 0.0
C701 C 0.43203 0.44174 0.24661 0.0
C702 C 0.43653 0.42997 0.26585 0.0
C703 C 0.44945 0.45646 0.22996 0.0
C704 C 0.47166 0.45961 0.23225 0.0
C705 C 0.45865 0.43289 0.26794 0.0
C706 C 0.47616 0.44782 0.25146 0.0
C707 C 0.49065 0.47672 0.21628 0.0
C708 C 0.56888 0.57068 0.24221 0.0
C709 C 0.57706 0.565 0.26406 0.0
C710 C 0.55288 0.55347 0.22624 0.0
C711 C 0.54531 0.53023 0.23134 0.0
C712 C 0.56938 0.54186 0.26948 0.0
C713 C 0.55367 0.52463 0.25321 0.0
C714 C 0.52692 0.51165 0.21581 0.0
C715 C 0.5805 0.54957 0.1524 0.0
C716 C 0.57324 0.5608 0.13528 0.0
C717 C 0.56541 0.53468 0.17104 0.0
C718 C 0.54292 0.53087 0.17268 0.0
C719 C 0.5512 0.55799 0.13822 0.0
C720 C 0.53609 0.5429 0.15643 0.0
C721 C 0.52544 0.51256 0.18894 0.0
H722 H 0.43876 0.40298 0.16198 0.0
H723 H 0.46776 0.43041 0.19168 0.0
H724 H 0.44024 0.45921 0.12055 0.0
H725 H 0.46831 0.48634 0.15064 0.0
H726 H 0.41502 0.43958 0.24449 0.0
H727 H 0.44569 0.46579 0.2157 0.0
H728 H 0.46249 0.42398 0.28265 0.0
H729 H 0.49325 0.45023 0.25375 0.0
H730 H 0.57433 0.58845 0.23797 0.0
H731 H 0.54587 0.55845 0.21051 0.0
H732 H 0.57547 0.53716 0.28631 0.0
H733 H 0.54784 0.50686 0.25788 0.0
H734 H 0.59744 0.55153 0.15066 0.0
H735 H 0.57091 0.52538 0.18332 0.0
H736 H 0.54538 0.56703 0.12595 0.0
H737 H 0.51884 0.54027 0.15751 0.0
N738 N 0.50671 0.49565 0.17696 0.0
N739 N 0.50947 0.49364 0.22837 0.0
C740 C 0.44544 0.02614 0.24737 0.0
C741 C 0.43777 0.00979 0.26716 0.0
C742 C 0.46312 0.02894 0.23104 0.0
C743 C 0.47289 0.01481 0.2335 0.0
C744 C 0.44792 0.99605 0.2699 0.0
C745 C 0.46519 0.99848 0.25325 0.0
C746 C 0.49211 0.01765 0.21701 0.0
C747 C 0.43567 0.0026 0.15975 0.0
C748 C 0.44128 0.01965 0.1411 0.0
C749 C 0.45246 0.00375 0.17646 0.0
C750 C 0.47516 0.02211 0.17503 0.0
C751 C 0.46393 0.03815 0.13992 0.0
C752 C 0.4807 0.03931 0.15665 0.0
C753 C 0.4937 0.02219 0.19044 0.0
C754 C 0.56573 0.00275 0.15441 0.0
C755 C 0.57628 0.01979 0.1356 0.0
C756 C 0.55137 0.00423 0.17268 0.0
C757 C 0.54741 0.02284 0.17253 0.0
C758 C 0.57302 0.03883 0.13603 0.0
C759 C 0.5585 0.04021 0.15419 0.0
C760 C 0.52952 0.02271 0.18912 0.0
C761 C 0.58475 0.03062 0.24438 0.0
C762 C 0.57779 0.01178 0.26093 0.0
C763 C 0.56868 0.0325 0.22912 0.0
C764 C 0.54534 0.01569 0.2303 0.0
C765 C 0.55438 0.99506 0.26209 0.0
C766 C 0.53832 0.99709 0.24707 0.0
C767 C 0.52785 0.01806 0.21557 0.0
H768 H 0.43769 0.03669 0.24433 0.0
H769 H 0.46922 0.04228 0.21668 0.0
H770 H 0.44261 0.98345 0.28506 0.0
H771 H 0.47257 0.98753 0.25586 0.0
H772 H 0.41839 0.98806 0.16099 0.0
H773 H 0.44785 0.98988 0.18991 0.0
H774 H 0.46892 0.05123 0.12535 0.0
H775 H 0.49817 0.05342 0.15487 0.0
H776 H 0.5681 0.98797 0.15452 0.0
H777 H 0.54258 0.99029 0.18616 0.0
H778 H 0.58091 0.05212 0.12164 0.0
H779 H 0.55547 0.05457 0.15354 0.0
H780 H 0.60256 0.04412 0.24356 0.0
H781 H 0.57442 0.04735 0.21687 0.0
H782 H 0.54849 0.9803 0.27453 0.0
H783 H 0.52036 0.98402 0.24845 0.0
N784 N 0.50925 0.01572 0.22837 0.0
N785 N 0.51244 0.02468 0.17767 0.0
C786 C 0.57461 0.01519 0.78691 0.0
C787 C 0.57043 0.99891 0.76778 0.0
C788 C 0.55685 0.01263 0.80288 0.0
C789 C 0.53461 0.99373 0.79999 0.0
C790 C 0.54824 0.9799 0.76503 0.0
C791 C 0.53039 0.97749 0.78082 0.0
C792 C 0.51549 0.99178 0.81574 0.0
C793 C 0.55971 0.979 0.87171 0.0
C794 C 0.56904 0.99541 0.89137 0.0
C795 C 0.54311 0.97861 0.85514 0.0
C796 C 0.53553 0.99452 0.85816 0.0
C797 C 0.56147 0.01131 0.89421 0.0
C798 C 0.54486 0.01082 0.87785 0.0
C799 C 0.5165 0.99325 0.84266 0.0
C800 C 0.42444 0.97395 0.8776 0.0
C801 C 0.43159 0.99098 0.89659 0.0
C802 C 0.44007 0.97492 0.8592 0.0
C803 C 0.46297 0.99294 0.85961 0.0
C804 C 0.45415 0.00966 0.89585 0.0
C805 C 0.46975 0.01045 0.87781 0.0
C806 C 0.48071 0.99263 0.84328 0.0
C807 C 0.43866 0.0103 0.79176 0.0
C808 C 0.42944 0.99637 0.77007 0.0
C809 C 0.45487 0.00865 0.80689 0.0
C810 C 0.46175 0.99258 0.80101 0.0
C811 C 0.43678 0.98083 0.76363 0.0
C812 C 0.45278 0.97892 0.77901 0.0
C813 C 0.47969 0.99133 0.81631 0.0
H814 H 0.59164 0.02988 0.78949 0.0
H815 H 0.56039 0.02564 0.81717 0.0
H816 H 0.54467 0.96717 0.75037 0.0
H817 H 0.51329 0.96293 0.77812 0.0
H818 H 0.56516 0.96646 0.86928 0.0
H819 H 0.53576 0.9655 0.8405 0.0
H820 H 0.568 0.02382 0.90953 0.0
H821 H 0.53908 0.02307 0.88077 0.0
H822 H 0.4071 0.95944 0.87765 0.0
H823 H 0.43456 0.96114 0.84541 0.0
H824 H 0.45994 0.02342 0.90971 0.0
H825 H 0.48731 0.02456 0.87835 0.0
H826 H 0.43359 0.02277 0.79674 0.0
H827 H 0.46237 0.02036 0.82281 0.0
H828 H 0.42995 0.97001 0.74688 0.0
H829 H 0.45814 0.96673 0.77374 0.0
N830 N 0.49709 0.99078 0.80361 0.0
N831 N 0.4991 0.99365 0.85527 0.0
C832 C 0.99285 0.5662 0.78897 0.0
C833 C 0.00657 0.57461 0.76704 0.0
C834 C 0.99442 0.55029 0.80472 0.0
C835 C 0.01026 0.54301 0.79925 0.0
C836 C 0.02217 0.56717 0.76128 0.0
C837 C 0.02399 0.55149 0.77726 0.0
C838 C 0.01109 0.52502 0.81482 0.0
C839 C 0.02881 0.58053 0.87629 0.0
C840 C 0.01108 0.57363 0.89438 0.0
C841 C 0.02807 0.56488 0.85805 0.0
C842 C 0.00961 0.54221 0.85779 0.0
C843 C 0.99199 0.55135 0.89283 0.0
C844 C 0.99145 0.53571 0.87502 0.0
C845 C 0.00998 0.52436 0.84176 0.0
C846 C 0.02407 0.44575 0.8708 0.0
C847 C 0.00935 0.43809 0.89212 0.0
C848 C 0.0237 0.46165 0.85377 0.0
C849 C 0.00844 0.46994 0.85767 0.0
C850 C 0.99395 0.44621 0.8957 0.0
C851 C 0.99356 0.46198 0.87875 0.0
C852 C 0.00915 0.48846 0.84169 0.0
C853 C 0.9865 0.42913 0.78741 0.0
C854 C 0.00113 0.43335 0.76643 0.0
C855 C 0.98961 0.44708 0.80343 0.0
C856 C 0.00761 0.46955 0.79898 0.0
C857 C 0.01917 0.45581 0.76203 0.0
C858 C 0.02224 0.47378 0.77804 0.0
C859 C 0.01004 0.48893 0.8147 0.0
H860 H 0.98045 0.57146 0.79353 0.0
H861 H 0.9827 0.54321 0.82067 0.0
H862 H 0.03296 0.57351 0.74446 0.0
H863 H 0.03607 0.54589 0.77237 0.0
H864 H 0.04366 0.59764 0.87698 0.0
H865 H 0.04232 0.57014 0.84498 0.0
H866 H 0.97771 0.54578 0.90594 0.0
H867 H 0.977 0.51834 0.87499 0.0
H868 H 0.03593 0.43958 0.8674 0.0
H869 H 0.03575 0.4679 0.83802 0.0
H870 H 0.98254 0.44079 0.91205 0.0
H871 H 0.98177 0.46823 0.88232 0.0
H872 H 0.97265 0.41192 0.79144 0.0
H873 H 0.97767 0.44343 0.819 0.0
H874 H 0.03064 0.45951 0.74596 0.0
H875 H 0.03604 0.49102 0.77403 0.0
N876 N 0.01117 0.50729 0.80237 0.0
N877 N 0.00903 0.50614 0.85402 0.0
C878 C 0.557 0.58401 0.7823 0.0
C879 C 0.56782 0.57632 0.76515 0.0
C880 C 0.5392 0.56846 0.79809 0.0
C881 C 0.53203 0.54495 0.79715 0.0
C882 C 0.56062 0.55279 0.76433 0.0
C883 C 0.54276 0.53727 0.77998 0.0
C884 C 0.51274 0.52803 0.81302 0.0
C885 C 0.56835 0.56891 0.87103 0.0
C886 C 0.56209 0.57874 0.89092 0.0
C887 C 0.55194 0.55407 0.85349 0.0
C888 C 0.52905 0.54913 0.85519 0.0
C889 C 0.53944 0.57451 0.89203 0.0
C890 C 0.52304 0.55972 0.87442 0.0
C891 C 0.51079 0.53066 0.83952 0.0
C892 C 0.43852 0.43858 0.87491 0.0
C893 C 0.42724 0.44499 0.89292 0.0
C894 C 0.45356 0.45449 0.85706 0.0
C895 C 0.45754 0.47707 0.85689 0.0
C896 C 0.43102 0.46749 0.89249 0.0
C897 C 0.44612 0.4834 0.87474 0.0
C898 C 0.47546 0.49484 0.84034 0.0
C899 C 0.42108 0.44423 0.78676 0.0
C900 C 0.42899 0.43585 0.7669 0.0
C901 C 0.4366 0.46253 0.80206 0.0
C902 C 0.4604 0.47226 0.79848 0.0
C903 C 0.45279 0.44589 0.76309 0.0
C904 C 0.46827 0.46381 0.77871 0.0
C905 C 0.4774 0.49218 0.81378 0.0
H906 H 0.56213 0.60203 0.78326 0.0
H907 H 0.53085 0.57475 0.81076 0.0
H908 H 0.56899 0.5464 0.75182 0.0
H909 H 0.53752 0.51921 0.77891 0.0
H910 H 0.58578 0.57211 0.86957 0.0
H911 H 0.55698 0.54566 0.83938 0.0
H912 H 0.53414 0.58179 0.90723 0.0
H913 H 0.50545 0.55597 0.87632 0.0
H914 H 0.436 0.42137 0.87493 0.0
H915 H 0.46264 0.44935 0.84397 0.0
H916 H 0.42296 0.47304 0.9065 0.0
H917 H 0.44924 0.50083 0.87525 0.0
H918 H 0.40289 0.4366 0.79062 0.0
H919 H 0.42987 0.46916 0.81643 0.0
H920 H 0.45949 0.44004 0.74784 0.0
H921 H 0.4865 0.47113 0.77524 0.0
N922 N 0.49602 0.50891 0.80131 0.0
N923 N 0.49216 0.51402 0.85201 0.0
C924 C 0.66493 0.76952 0.48786 0.0
C925 C 0.64687 0.75791 0.4703 0.0
C926 C 0.66423 0.78456 0.50579 0.0
C927 C 0.64539 0.78816 0.50659 0.0
C928 C 0.62783 0.76117 0.47148 0.0
C929 C 0.62717 0.77625 0.48937 0.0
C930 C 0.64594 0.80648 0.52273 0.0
C931 C 0.64598 0.7545 0.57741 0.0
C932 C 0.66355 0.76347 0.59591 0.0
C933 C 0.64183 0.76914 0.56212 0.0
C934 C 0.65555 0.7931 0.5646 0.0
C935 C 0.67663 0.78739 0.59899 0.0
C936 C 0.67278 0.80199 0.58343 0.0
C937 C 0.65151 0.80928 0.54907 0.0
C938 C 0.64446 0.89331 0.57703 0.0
C939 C 0.66073 0.90109 0.59693 0.0
C940 C 0.64133 0.87519 0.56124 0.0
C941 C 0.65505 0.865 0.56432 0.0
C942 C 0.67428 0.89077 0.60011 0.0
C943 C 0.67154 0.87305 0.58397 0.0
C944 C 0.65137 0.84484 0.54894 0.0
C945 C 0.66774 0.89489 0.4817 0.0
C946 C 0.64742 0.89174 0.47013 0.0
C947 C 0.66704 0.8793 0.49983 0.0
C948 C 0.64608 0.86002 0.50648 0.0
C949 C 0.62632 0.87285 0.47781 0.0
C950 C 0.62573 0.85686 0.49535 0.0
C951 C 0.64585 0.84196 0.52265 0.0
H952 H 0.67985 0.76738 0.48727 0.0
H953 H 0.67882 0.79404 0.51835 0.0
H954 H 0.61391 0.75284 0.45785 0.0
H955 H 0.61266 0.7791 0.48934 0.0
H956 H 0.63544 0.73613 0.57469 0.0
H957 H 0.62774 0.76165 0.54863 0.0
H958 H 0.68971 0.79491 0.61366 0.0
H959 H 0.68336 0.82035 0.5862 0.0
H960 H 0.63406 0.90118 0.57362 0.0
H961 H 0.62775 0.86886 0.54717 0.0
H962 H 0.68684 0.89616 0.61535 0.0
H963 H 0.68224 0.86545 0.58707 0.0
H964 H 0.68434 0.90904 0.47618 0.0
H965 H 0.68297 0.88179 0.50792 0.0
H966 H 0.61024 0.87025 0.47015 0.0
H967 H 0.60938 0.84199 0.50023 0.0
N968 N 0.64327 0.8229 0.51069 0.0
N969 N 0.65393 0.82834 0.56095 0.0
C970 C 0.11066 0.75609 0.49471 0.0
C971 C 0.10281 0.76347 0.47383 0.0
C972 C 0.12673 0.77208 0.51183 0.0
C973 C 0.13498 0.79568 0.50854 0.0
C974 C 0.11081 0.78703 0.4709 0.0
C975 C 0.12674 0.80292 0.48799 0.0
C976 C 0.15385 0.81324 0.52445 0.0
C977 C 0.09553 0.77522 0.57943 0.0
C978 C 0.0999 0.76317 0.59844 0.0
C979 C 0.1133 0.79099 0.56384 0.0
C980 C 0.13575 0.79498 0.56702 0.0
C981 C 0.1224 0.76736 0.60181 0.0
C982 C 0.14022 0.78328 0.58634 0.0
C983 C 0.15482 0.81236 0.55135 0.0
C984 C 0.23405 0.9061 0.57735 0.0
C985 C 0.24186 0.90025 0.59939 0.0
C986 C 0.21779 0.88899 0.56147 0.0
C987 C 0.20957 0.86567 0.56686 0.0
C988 C 0.23348 0.87704 0.60512 0.0
C989 C 0.21751 0.8599 0.58896 0.0
C990 C 0.19113 0.84722 0.55121 0.0
C991 C 0.24596 0.88365 0.48882 0.0
C992 C 0.23964 0.89542 0.47131 0.0
C993 C 0.23028 0.86911 0.50723 0.0
C994 C 0.20802 0.86594 0.50813 0.0
C995 C 0.21761 0.89286 0.47314 0.0
C996 C 0.20191 0.87808 0.49113 0.0
C997 C 0.19004 0.84801 0.52428 0.0
H998 H 0.10457 0.73801 0.49763 0.0
H999 H 0.1332 0.76604 0.52713 0.0
H1000 H 0.10523 0.79326 0.45491 0.0
H1001 H 0.13296 0.82102 0.48488 0.0
H1002 H 0.07832 0.77232 0.57654 0.0
H1003 H 0.10954 0.80029 0.54954 0.0
H1004 H 0.12624 0.75852 0.61661 0.0
H1005 H 0.15749 0.78638 0.58937 0.0
H1006 H 0.24006 0.92393 0.57283 0.0
H1007 H 0.21116 0.89412 0.5455 0.0
H1008 H 0.23932 0.8722 0.62206 0.0
H1009 H 0.21121 0.84209 0.59384 0.0
H1010 H 0.26261 0.88488 0.48762 0.0
H1011 H 0.23515 0.85954 0.51991 0.0
H1012 H 0.21231 0.90192 0.46021 0.0
H1013 H 0.18476 0.87577 0.49148 0.0
N1014 N 0.17147 0.83107 0.5121 0.0
N1015 N 0.17347 0.8293 0.56364 0.0
C1016 C 0.24395 0.35335 0.49156 0.0
C1017 C 0.23635 0.33794 0.47084 0.0
C1018 C 0.22813 0.35343 0.50896 0.0
C1019 C 0.20448 0.33802 0.50592 0.0
C1020 C 0.21269 0.32279 0.46778 0.0
C1021 C 0.19698 0.32283 0.4851 0.0
C1022 C 0.18702 0.33866 0.52266 0.0
C1023 C 0.22809 0.31911 0.57393 0.0
C1024 C 0.23791 0.3333 0.59535 0.0
C1025 C 0.2119 0.32102 0.55899 0.0
C1026 C 0.20563 0.33754 0.56483 0.0
C1027 C 0.23113 0.3493 0.60172 0.0
C1028 C 0.21514 0.35141 0.58657 0.0
C1029 C 0.18791 0.33929 0.54969 0.0
C1030 C 0.09306 0.32008 0.57751 0.0
C1031 C 0.09821 0.33396 0.59931 0.0
C1032 C 0.1106 0.32197 0.56165 0.0
C1033 C 0.13365 0.33824 0.56687 0.0
C1034 C 0.12124 0.34991 0.60491 0.0
C1035 C 0.13881 0.35198 0.58884 0.0
C1036 C 0.15248 0.33966 0.5508 0.0
C1037 C 0.11481 0.35877 0.49023 0.0
C1038 C 0.10251 0.34052 0.47303 0.0
C1039 C 0.12994 0.35783 0.508 0.0
C1040 C 0.1332 0.3388 0.50852 0.0
C1041 C 0.10507 0.32105 0.47467 0.0
C1042 C 0.12049 0.32036 0.49194 0.0
C1043 C 0.1517 0.33898 0.52386 0.0
H1044 H 0.2621 0.36534 0.49423 0.0
H1045 H 0.23432 0.36579 0.52442 0.0
H1046 H 0.20625 0.31117 0.45163 0.0
H1047 H 0.17883 0.31103 0.48208 0.0
H1048 H 0.23269 0.30629 0.56899 0.0
H1049 H 0.20406 0.30932 0.54311 0.0
H1050 H 0.23841 0.36034 0.61823 0.0
H1051 H 0.21026 0.36397 0.59179 0.0
H1052 H 0.07543 0.30743 0.57302 0.0
H1053 H 0.10608 0.31027 0.54568 0.0
H1054 H 0.1256 0.3609 0.62155 0.0
H1055 H 0.15647 0.36439 0.59354 0.0
H1056 H 0.1136 0.3742 0.48918 0.0
H1057 H 0.13991 0.37239 0.52042 0.0
H1058 H 0.0956 0.30654 0.46202 0.0
H1059 H 0.12283 0.30555 0.49205 0.0
N1060 N 0.16889 0.33844 0.51096 0.0
N1061 N 0.17066 0.33995 0.56264 0.0
C1062 C 0.98666 0.38159 0.09538 0.0
C1063 C 0.99486 0.39096 0.07103 0.0
C1064 C 0.98729 0.39553 0.11576 0.0
C1065 C 0.99592 0.41924 0.11236 0.0
H1066 H 0.9806 0.3636 0.09896 0.0
H1067 H 0.98162 0.38783 0.13445 0.0
S1068 S 0.0159 0.4511 0.05109 0.0
N1069 N 0.00981 0.42473 0.044 0.0
N1070 N 0.01013 0.4507 0.0818 0.0
C1071 C 0.00292 0.42842 0.08765 0.0
C1072 C 0.00261 0.41435 0.06712 0.0
C1073 C 0.62461 0.6058 0.09753 0.0
C1074 C 0.61517 0.60404 0.07308 0.0
C1075 C 0.61118 0.59139 0.11756 0.0
C1076 C 0.58798 0.57466 0.11363 0.0
H1077 H 0.64217 0.61897 0.10147 0.0
H1078 H 0.61876 0.59387 0.1364 0.0
S1079 S 0.5566 0.56073 0.05185 0.0
N1080 N 0.58215 0.58285 0.04534 0.0
N1081 N 0.55722 0.55532 0.08252 0.0
C1082 C 0.57889 0.5719 0.0888 0.0
C1083 C 0.59241 0.58672 0.06864 0.0
C1084 C 0.39687 0.99328 0.08828 0.0
C1085 C 0.39341 0.01138 0.0806 0.0
C1086 C 0.41189 0.996 0.10825 0.0
C1087 C 0.42416 0.01695 0.12139 0.0
H1088 H 0.38819 0.97688 0.07852 0.0
H1089 H 0.4144 0.98172 0.11294 0.0
S1090 S 0.42018 0.06928 0.1101 0.0
N1091 N 0.40276 0.05075 0.0886 0.0
N1092 N 0.43096 0.05578 0.12631 0.0
C1093 C 0.42049 0.03506 0.1144 0.0
C1094 C 0.4051 0.03228 0.09402 0.0
C1095 C 0.37974 0.98474 0.93317 0.0
C1096 C 0.38802 0.98962 0.95842 0.0
C1097 C 0.39363 0.98453 0.91319 0.0
C1098 C 0.41614 0.98902 0.91794 0.0
H1099 H 0.36283 0.98204 0.92866 0.0
H1100 H 0.38703 0.98164 0.89384 0.0
S1101 S 0.44418 0.99881 0.98146 0.0
N1102 N 0.41906 0.9966 0.98747 0.0
N1103 N 0.4448 0.99551 0.95026 0.0
C1104 C 0.42395 0.99248 0.94339 0.0
C1105 C 0.40998 0.99296 0.96354 0.0
C1106 C 0.98892 0.38909 0.93945 0.0
C1107 C 0.00928 0.39317 0.95165 0.0
C1108 C 0.98927 0.40317 0.91958 0.0
C1109 C 0.00999 0.42199 0.91111 0.0
H1110 H 0.97243 0.37505 0.94551 0.0
H1111 H 0.97309 0.39949 0.91105 0.0
S1112 S 0.06818 0.43993 0.93631 0.0
N1113 N 0.05087 0.41703 0.95334 0.0
N1114 N 0.0515 0.44382 0.91619 0.0
C1115 C 0.03058 0.42594 0.92262 0.0
C1116 C 0.03024 0.41147 0.94286 0.0
C1117 C 0.59676 0.62546 0.93973 0.0
C1118 C 0.60858 0.61641 0.95319 0.0
C1119 C 0.58195 0.61336 0.9194 0.0
C1120 C 0.5786 0.59187 0.91165 0.0
H1121 H 0.59878 0.64193 0.94504 0.0
H1122 H 0.57307 0.62087 0.90965 0.0
S1123 S 0.60491 0.56026 0.94093 0.0
N1124 N 0.61562 0.5844 0.95737 0.0
N1125 N 0.58775 0.56174 0.91941 0.0
C1126 C 0.59033 0.58266 0.92488 0.0
C1127 C 0.60532 0.5949 0.94558 0.0
C1128 C 0.0179 0.62561 0.93126 0.0
C1129 C 0.01176 0.61688 0.95621 0.0
C1130 C 0.01828 0.61179 0.91128 0.0
C1131 C 0.01275 0.58894 0.91577 0.0
H1132 H 0.02148 0.64284 0.92696 0.0
H1133 H 0.02216 0.61875 0.89209 0.0
S1134 S 0.99955 0.55961 0.97872 0.0
N1135 N 0.00248 0.585 0.98484 0.0
N1136 N 0.00398 0.55941 0.94773 0.0
C1137 C 0.00805 0.58065 0.94101 0.0
C1138 C 0.00734 0.59452 0.96112 0.0
C1139 C 0.40922 0.40309 0.94833 0.0
C1140 C 0.38704 0.39891 0.95436 0.0
C1141 C 0.42186 0.41765 0.92817 0.0
C1142 C 0.4129 0.42876 0.9133 0.0
H1143 H 0.41698 0.39508 0.95931 0.0
H1144 H 0.43898 0.42058 0.9245 0.0
S1145 S 0.35539 0.42306 0.92037 0.0
N1146 N 0.35643 0.4067 0.94325 0.0
N1147 N 0.38028 0.4341 0.90535 0.0
C1148 C 0.3907 0.42463 0.9189 0.0
C1149 C 0.37775 0.40968 0.93939 0.0
C1150 C 0.59513 0.97652 0.94383 0.0
C1151 C 0.61485 0.99725 0.95065 0.0
C1152 C 0.58086 0.97573 0.92373 0.0
C1153 C 0.58592 0.99561 0.90979 0.0
H1154 H 0.59016 0.96106 0.95475 0.0
H1155 H 0.56524 0.9597 0.91983 0.0
S1156 S 0.63748 0.0532 0.91737 0.0
N1157 N 0.64005 0.0375 0.93995 0.0
N1158 N 0.61335 0.03587 0.90222 0.0
C1159 C 0.60632 0.01605 0.91542 0.0
C1160 C 0.62076 0.0169 0.93584 0.0
C1161 C 0.62462 0.03152 0.08943 0.0
C1162 C 0.61473 0.01186 0.07374 0.0
C1163 C 0.61211 0.03408 0.10939 0.0
C1164 C 0.58937 0.01693 0.11455 0.0
H1165 H 0.64216 0.04506 0.08632 0.0
H1166 H 0.62034 0.04944 0.12104 0.0
S1167 S 0.5551 0.9627 0.07858 0.0
N1168 N 0.58042 0.97528 0.06439 0.0
N1169 N 0.55712 0.98014 0.10191 0.0
C1170 C 0.57921 0.99732 0.09894 0.0
C1171 C 0.59182 0.99477 0.07853 0.0
C1172 C 0.98905 0.61019 0.10018 0.0
C1173 C 0.99605 0.60851 0.07535 0.0
C1174 C 0.98946 0.59634 0.12009 0.0
C1175 C 0.99667 0.58023 0.11567 0.0
H1176 H 0.98402 0.62282 0.10444 0.0
H1177 H 0.98474 0.59868 0.13917 0.0
S1178 S 0.01294 0.56676 0.05292 0.0
N1179 N 0.0082 0.5881 0.04686 0.0
N1180 N 0.00813 0.56156 0.08379 0.0
C1181 C 0.00243 0.5776 0.09053 0.0
C1182 C 0.00234 0.59187 0.0705 0.0
C1183 C 0.38851 0.40256 0.09092 0.0
C1184 C 0.39241 0.38659 0.07774 0.0
C1185 C 0.40255 0.41541 0.1113 0.0
C1186 C 0.42118 0.41296 0.1193 0.0
H1187 H 0.37465 0.40542 0.08526 0.0
H1188 H 0.39903 0.42772 0.12059 0.0
S1189 S 0.43854 0.37316 0.09153 0.0
N1190 N 0.41583 0.36848 0.07465 0.0
N1191 N 0.44259 0.39306 0.1127 0.0
C1192 C 0.42492 0.39659 0.10679 0.0
C1193 C 0.41048 0.38334 0.08605 0.0
C1194 C 0.67095 0.74136 0.4139 0.0
C1195 C 0.65329 0.71904 0.40777 0.0
C1196 C 0.66879 0.75358 0.43432 0.0
C1197 C 0.64884 0.74404 0.44944 0.0
H1198 H 0.68667 0.74954 0.40284 0.0
H1199 H 0.68274 0.77081 0.43807 0.0
S1200 S 0.59787 0.68598 0.44215 0.0
N1201 N 0.61529 0.68771 0.41893 0.0
N1202 N 0.6113 0.71078 0.45742 0.0
C1203 C 0.63105 0.72174 0.44367 0.0
C1204 C 0.63327 0.70921 0.42285 0.0
C1205 C 0.25947 0.92062 0.40506 0.0
C1206 C 0.2828 0.93683 0.4086 0.0
C1207 C 0.24596 0.90697 0.42529 0.0
C1208 C 0.2551 0.90922 0.45004 0.0
H1209 H 0.2515 0.91856 0.38651 0.0
H1210 H 0.22809 0.89464 0.4215 0.0
S1211 S 0.31531 0.9495 0.46942 0.0
N1212 N 0.3147 0.95428 0.43854 0.0
N1213 N 0.28907 0.92909 0.47691 0.0
C1214 C 0.27856 0.92514 0.45378 0.0
C1215 C 0.29245 0.93885 0.43299 0.0
C1216 C 0.07633 0.33458 0.40725 0.0
C1217 C 0.06044 0.34208 0.41084 0.0
C1218 C 0.09017 0.33481 0.4273 0.0
C1219 C 0.08842 0.34211 0.452 0.0
H1220 H 0.07805 0.32836 0.38874 0.0
H1221 H 0.10226 0.32901 0.4234 0.0
S1222 S 0.04924 0.36336 0.47139 0.0
N1223 N 0.04391 0.35751 0.44064 0.0
N1224 N 0.06942 0.35718 0.47882 0.0
C1225 C 0.07284 0.35008 0.45578 0.0
C1226 C 0.05895 0.35021 0.43509 0.0
C1227 C 0.04503 0.31785 0.26604 0.0
C1228 C 0.05362 0.32421 0.29102 0.0
C1229 C 0.059 0.31738 0.2463 0.0
C1230 C 0.08187 0.32301 0.25105 0.0
H1231 H 0.02777 0.31412 0.26153 0.0
H1232 H 0.05209 0.3133 0.22708 0.0
S1233 S 0.11087 0.33686 0.31429 0.0
N1234 N 0.0854 0.33391 0.32002 0.0
N1235 N 0.11126 0.33216 0.28338 0.0
C1236 C 0.09004 0.328 0.27635 0.0
C1237 C 0.07602 0.32883 0.29622 0.0
C1238 C 0.69046 0.74205 0.27787 0.0
C1239 C 0.66953 0.72302 0.2856 0.0
C1240 C 0.69131 0.75605 0.25749 0.0
C1241 C 0.67127 0.75142 0.24409 0.0
H1242 H 0.70615 0.74661 0.28817 0.0
H1243 H 0.70758 0.77111 0.25286 0.0
S1244 S 0.61284 0.70175 0.25427 0.0
N1245 N 0.62872 0.69901 0.27653 0.0
N1246 N 0.63045 0.72513 0.23816 0.0
C1247 C 0.65051 0.73175 0.25074 0.0
C1248 C 0.6496 0.7176 0.2715 0.0
C1249 C 0.28335 0.93638 0.27166 0.0
C1250 C 0.27888 0.9517 0.28543 0.0
C1251 C 0.26902 0.92307 0.25169 0.0
C1252 C 0.24959 0.92448 0.24465 0.0
H1253 H 0.29781 0.93425 0.27667 0.0
H1254 H 0.27293 0.91119 0.24203 0.0
S1255 S 0.23064 0.96248 0.2739 0.0
N1256 N 0.2541 0.96819 0.28991 0.0
N1257 N 0.2269 0.94285 0.2525 0.0
C1258 C 0.24532 0.9403 0.25759 0.0
C1259 C 0.26001 0.95397 0.27796 0.0
C1260 C 0.6567 0.93411 0.27659 0.0
C1261 C 0.67664 0.94965 0.29001 0.0
C1262 C 0.65761 0.92104 0.25636 0.0
C1263 C 0.67848 0.92279 0.24875 0.0
H1264 H 0.6401 0.93185 0.28185 0.0
H1265 H 0.64172 0.90916 0.24681 0.0
S1266 S 0.73575 0.96123 0.27727 0.0
N1267 N 0.71804 0.96661 0.29379 0.0
N1268 N 0.7197 0.94155 0.25596 0.0
C1269 C 0.69869 0.93868 0.26153 0.0
C1270 C 0.69778 0.95219 0.28214 0.0
C1271 C 0.04671 0.73106 0.26912 0.0
C1272 C 0.05626 0.73234 0.2934 0.0
C1273 C 0.06037 0.74478 0.24882 0.0
C1274 C 0.08397 0.76038 0.25222 0.0
H1275 H 0.02878 0.71882 0.26553 0.0
H1276 H 0.05253 0.7427 0.23019 0.0
S1277 S 0.11623 0.77261 0.31331 0.0
N1278 N 0.09011 0.75176 0.32037 0.0
N1279 N 0.11554 0.77811 0.28268 0.0
C1280 C 0.09335 0.7626 0.27685 0.0
C1281 C 0.07956 0.74844 0.29731 0.0
C1282 C 0.28171 0.34754 0.27477 0.0
C1283 C 0.2783 0.32744 0.28698 0.0
C1284 C 0.26753 0.34665 0.25471 0.0
C1285 C 0.24916 0.32563 0.24611 0.0
H1286 H 0.29533 0.36422 0.28096 0.0
H1287 H 0.27072 0.36265 0.24617 0.0
S1288 S 0.23311 0.26795 0.27131 0.0
N1289 N 0.25568 0.28579 0.2885 0.0
N1290 N 0.22855 0.28412 0.2511 0.0
C1291 C 0.24592 0.3053 0.25763 0.0
C1292 C 0.26057 0.30621 0.278 0.0
C1293 C 0.28301 0.35842 0.42001 0.0
C1294 C 0.28085 0.33774 0.41096 0.0
C1295 C 0.26911 0.35852 0.44002 0.0
C1296 C 0.25272 0.33794 0.45177 0.0
H1297 H 0.29502 0.37457 0.41108 0.0
H1298 H 0.27067 0.37471 0.44575 0.0
S1299 S 0.24284 0.27964 0.43774 0.0
N1300 N 0.26261 0.29642 0.41696 0.0
N1301 N 0.23695 0.2967 0.45477 0.0
C1302 C 0.25128 0.31732 0.44375 0.0
C1303 C 0.26522 0.31719 0.42331 0.0
C1304 C 0.66737 0.94689 0.43217 0.0
C1305 C 0.65393 0.93933 0.40991 0.0
C1306 C 0.66453 0.93155 0.45185 0.0
C1307 C 0.64858 0.90788 0.44975 0.0
H1308 H 0.68021 0.96484 0.43441 0.0
H1309 H 0.67512 0.93833 0.46877 0.0
S1310 S 0.61019 0.87945 0.39412 0.0
N1311 N 0.62423 0.90695 0.38652 0.0
N1312 N 0.61974 0.8777 0.42264 0.0
C1313 C 0.63502 0.90016 0.42737 0.0
C1314 C 0.63752 0.91598 0.40766 0.0
C1315 C 0.05389 0.73538 0.42614 0.0
C1316 C 0.05813 0.71937 0.41356 0.0
C1317 C 0.06791 0.74888 0.44621 0.0
C1318 C 0.08681 0.74703 0.45451 0.0
H1319 H 0.03978 0.73776 0.42022 0.0
H1320 H 0.06411 0.76116 0.45507 0.0
S1321 S 0.10525 0.70758 0.42819 0.0
N1322 N 0.08229 0.70203 0.41126 0.0
N1323 N 0.10895 0.72779 0.44875 0.0
C1324 C 0.09095 0.73071 0.44256 0.0
C1325 C 0.07655 0.71681 0.42213 0.0
C1326 C 0.30747 0.04781 0.75604 0.0
C1327 C 0.32766 0.05675 0.74131 0.0
C1328 C 0.30543 0.0605 0.77616 0.0
C1329 C 0.32356 0.08251 0.78244 0.0
H1330 H 0.29312 0.03087 0.75205 0.0
H1331 H 0.2896 0.05295 0.78704 0.0
S1332 S 0.37964 0.11424 0.74916 0.0
N1333 N 0.36594 0.08938 0.73409 0.0
N1334 N 0.36196 0.1131 0.77172 0.0
C1335 C 0.34375 0.09172 0.76778 0.0
C1336 C 0.34583 0.07889 0.74726 0.0
C1337 C 0.94547 0.24736 0.74231 0.0
C1338 C 0.95946 0.27094 0.7473 0.0
C1339 C 0.93286 0.2319 0.76189 0.0
C1340 C 0.93394 0.2394 0.78727 0.0
H1341 H 0.94337 0.24091 0.72294 0.0
H1342 H 0.92142 0.2141 0.75685 0.0
S1343 S 0.9709 0.29891 0.81095 0.0
N1344 N 0.97542 0.30076 0.7798 0.0
N1345 N 0.95234 0.27162 0.81672 0.0
C1346 C 0.94898 0.26275 0.79273 0.0
C1347 C 0.96159 0.27852 0.77274 0.0
C1348 C 0.74349 0.69932 0.75306 0.0
C1349 C 0.73389 0.67946 0.73769 0.0
C1350 C 0.75786 0.70188 0.77384 0.0
C1351 C 0.76284 0.68452 0.78018 0.0
H1352 H 0.73981 0.71296 0.74911 0.0
H1353 H 0.76487 0.71738 0.78525 0.0
S1354 S 0.7432 0.62979 0.74538 0.0
N1355 N 0.73129 0.64253 0.72985 0.0
N1356 N 0.75807 0.64739 0.76885 0.0
C1357 C 0.75364 0.66477 0.76481 0.0
C1358 C 0.73924 0.66223 0.74359 0.0
C1359 C 0.71618 0.66102 0.59404 0.0
C1360 C 0.7131 0.65014 0.61779 0.0
C1361 C 0.72868 0.65806 0.57445 0.0
C1362 C 0.7391 0.64458 0.57806 0.0
H1363 H 0.70913 0.67216 0.59067 0.0
H1364 H 0.73057 0.66683 0.55648 0.0
S1365 S 0.73656 0.61303 0.63743 0.0
N1366 N 0.72103 0.62516 0.64398 0.0
N1367 N 0.74559 0.62049 0.60776 0.0
C1368 C 0.73579 0.63331 0.60174 0.0
C1369 C 0.72256 0.63591 0.62147 0.0
C1370 C 0.35985 0.07604 0.6119 0.0
C1371 C 0.3391 0.05679 0.61964 0.0
C1372 C 0.36037 0.09004 0.59167 0.0
C1373 C 0.34017 0.08516 0.57846 0.0
H1374 H 0.37563 0.0808 0.62212 0.0
H1375 H 0.37649 0.10528 0.58703 0.0
S1376 S 0.28219 0.03478 0.58863 0.0
N1377 N 0.29835 0.03227 0.61069 0.0
N1378 N 0.29945 0.05836 0.57261 0.0
C1379 C 0.31962 0.06524 0.58507 0.0
C1380 C 0.31905 0.05111 0.60567 0.0
C1381 C 0.93736 0.29095 0.60401 0.0
C1382 C 0.93217 0.2831 0.62942 0.0
C1383 C 0.92381 0.2774 0.58355 0.0
C1384 C 0.90461 0.25556 0.58783 0.0
H1385 H 0.95259 0.30721 0.59977 0.0
H1386 H 0.92896 0.28363 0.56422 0.0
S1387 S 0.88159 0.22878 0.65098 0.0
N1388 N 0.90509 0.2532 0.65783 0.0
N1389 N 0.87946 0.228 0.61952 0.0
C1390 C 0.89843 0.24821 0.61324 0.0
C1391 C 0.91224 0.2619 0.63399 0.0
C1392 C 0.3389 0.25817 0.6287 0.0
C1393 C 0.34521 0.28126 0.62501 0.0
C1394 C 0.33921 0.24476 0.60847 0.0
C1395 C 0.34542 0.25374 0.58357 0.0
H1396 H 0.33352 0.25034 0.64738 0.0
H1397 H 0.33431 0.22708 0.61236 0.0
S1398 S 0.3628 0.3132 0.56378 0.0
N1399 N 0.35799 0.31273 0.59479 0.0
N1400 N 0.35784 0.28724 0.5564 0.0
C1401 C 0.35207 0.27694 0.57968 0.0
C1402 C 0.35211 0.29076 0.60048 0.0
C1403 C 0.71643 0.07611 0.61155 0.0
C1404 C 0.71834 0.05694 0.61846 0.0
C1405 C 0.72947 0.0905 0.59135 0.0
C1406 C 0.74469 0.08603 0.57736 0.0
H1407 H 0.70557 0.08061 0.6225 0.0
H1408 H 0.72844 0.10576 0.58744 0.0
S1409 S 0.75287 0.03579 0.58506 0.0
N1410 N 0.73457 0.03278 0.60782 0.0
N1411 N 0.75871 0.05955 0.56973 0.0
C1412 C 0.74554 0.06606 0.58303 0.0
C1413 C 0.73246 0.05158 0.60362 0.0
C1414 C 0.93424 0.67198 0.60946 0.0
C1415 C 0.9375 0.65391 0.61771 0.0
C1416 C 0.91943 0.66909 0.5892 0.0
C1417 C 0.9072 0.64799 0.57633 0.0
H1418 H 0.94305 0.68855 0.61884 0.0
H1419 H 0.91718 0.68341 0.58394 0.0
S1420 S 0.91032 0.59546 0.58954 0.0
N1421 N 0.9277 0.61425 0.61087 0.0
N1422 N 0.8999 0.60889 0.57259 0.0
C1423 C 0.91045 0.6298 0.5841 0.0
C1424 C 0.92561 0.63276 0.60479 0.0
C1425 C 0.95434 0.69354 0.75455 0.0
C1426 C 0.94461 0.67342 0.73963 0.0
C1427 C 0.94226 0.69595 0.77506 0.0
C1428 C 0.92009 0.67827 0.78153 0.0
H1429 H 0.97141 0.70758 0.75035 0.0
H1430 H 0.95037 0.71174 0.78601 0.0
S1431 S 0.88649 0.6225 0.74805 0.0
N1432 N 0.91117 0.63564 0.73257 0.0
N1433 N 0.88855 0.64033 0.77093 0.0
C1434 C 0.91013 0.65811 0.76676 0.0
C1435 C 0.92236 0.65566 0.74586 0.0
C1436 C 0.34169 0.27188 0.75577 0.0
C1437 C 0.32315 0.27411 0.74681 0.0
C1438 C 0.33902 0.25714 0.77597 0.0
C1439 C 0.3177 0.24393 0.78813 0.0
H1440 H 0.35845 0.28141 0.74692 0.0
H1441 H 0.35372 0.25567 0.7817 0.0
S1442 S 0.26395 0.24428 0.77308 0.0
N1443 N 0.28282 0.26239 0.75233 0.0
N1444 N 0.27787 0.23472 0.79055 0.0
C1445 C 0.29906 0.24623 0.77973 0.0
C1446 C 0.30178 0.26132 0.75907 0.0
C1447 C 0.73744 0.07454 0.74993 0.0
C1448 C 0.73195 0.05191 0.74419 0.0
C1449 C 0.75225 0.08675 0.7701 0.0
C1450 C 0.76231 0.07691 0.78528 0.0
H1451 H 0.73029 0.083 0.73871 0.0
H1452 H 0.75619 0.10423 0.77354 0.0
S1453 S 0.75311 0.018 0.77892 0.0
N1454 N 0.73742 0.01994 0.75582 0.0
N1455 N 0.76536 0.04303 0.79376 0.0
C1456 C 0.7569 0.05426 0.77995 0.0
C1457 C 0.74167 0.04172 0.75945 0.0
C1458 C 0.06892 0.3422 0.04619 0.0
C1459 C 0.04809 0.33889 0.05633 0.0
C1460 C 0.08417 0.33863 0.06123 0.0
C1461 C 0.07927 0.33207 0.087 0.0
H1462 H 0.07346 0.34754 0.02651 0.0
H1463 H 0.10012 0.34148 0.05283 0.0
S1464 S 0.02716 0.321 0.12272 0.0
N1465 N 0.02334 0.3283 0.09379 0.0
N1466 N 0.05221 0.32203 0.12194 0.0
C1467 C 0.05854 0.32861 0.09733 0.0
C1468 C 0.04289 0.3319 0.08201 0.0
C1469 C 0.64573 0.71678 0.05485 0.0
C1470 C 0.66334 0.71134 0.05282 0.0
C1471 C 0.64844 0.73512 0.07012 0.0
C1472 C 0.66897 0.74888 0.08357 0.0
H1473 H 0.62951 0.70645 0.0451 0.0
H1474 H 0.63434 0.73853 0.07148 0.0
S1475 S 0.72055 0.74238 0.08413 0.0
N1476 N 0.70224 0.7216 0.0652 0.0
N1477 N 0.70728 0.75612 0.09368 0.0
C1478 C 0.68688 0.74398 0.08127 0.0
C1479 C 0.68407 0.72519 0.06597 0.0
C1480 C 0.27857 0.95969 0.06631 0.0
C1481 C 0.29173 0.95241 0.05244 0.0
C1482 C 0.25986 0.94429 0.08127 0.0
C1483 C 0.25386 0.92112 0.08321 0.0
H1484 H 0.28291 0.97752 0.06588 0.0
H1485 H 0.25043 0.95068 0.09198 0.0
S1486 S 0.28184 0.89301 0.04981 0.0
N1487 N 0.29669 0.92013 0.0408 0.0
N1488 N 0.26168 0.8913 0.0692 0.0
C1489 C 0.26649 0.91347 0.06905 0.0
C1490 C 0.28537 0.92908 0.05356 0.0
C1491 C 0.35952 0.06932 0.96937 0.0
C1492 C 0.34068 0.04898 0.97856 0.0
C1493 C 0.35633 0.08452 0.95389 0.0
C1494 C 0.33416 0.08015 0.94731 0.0
H1495 H 0.37689 0.07319 0.97353 0.0
H1496 H 0.3714 0.09961 0.94662 0.0
S1497 S 0.27914 0.03049 0.9692 0.0
N1498 N 0.29912 0.02586 0.98138 0.0
N1499 N 0.29305 0.05485 0.95324 0.0
C1500 C 0.31517 0.06022 0.95721 0.0
C1501 C 0.31844 0.04457 0.97261 0.0
C1502 C 0.93857 0.27551 0.98428 0.0
C1503 C 0.96008 0.29214 0.97474 0.0
C1504 C 0.9234 0.25662 0.96933 0.0
C1505 C 0.92907 0.25381 0.94418 0.0
H1506 H 0.93342 0.27706 1.00345 0.0
H1507 H 0.9071 0.24409 0.97757 0.0
S1508 S 0.98262 0.29359 0.90957 0.0
N1509 N 0.98601 0.30504 0.93828 0.0
N1510 N 0.95724 0.26998 0.90999 0.0
C1511 C 0.95046 0.27047 0.93435 0.0
C1512 C 0.96601 0.28953 0.94966 0.0
C1513 C 0.71378 0.67422 0.95149 0.0
C1514 C 0.71086 0.66567 0.97658 0.0
C1515 C 0.73233 0.67731 0.93642 0.0
C1516 C 0.74882 0.67217 0.94592 0.0
H1517 H 0.70132 0.67804 0.94314 0.0
H1518 H 0.73346 0.68329 0.91697 0.0
S1519 S 0.75032 0.65164 0.01139 0.0
N1520 N 0.72667 0.65337 0.01082 0.0
N1521 N 0.76198 0.65985 0.98279 0.0
C1522 C 0.7465 0.66432 0.9713 0.0
C1523 C 0.72744 0.66092 0.98656 0.0
C1524 C 0.95598 0.68254 0.97157 0.0
C1525 C 0.95161 0.66061 0.97884 0.0
C1526 C 0.94049 0.68532 0.95614 0.0
C1527 C 0.92021 0.66625 0.94695 0.0
H1528 H 0.97152 0.69771 0.97784 0.0
H1529 H 0.94447 0.70259 0.9514 0.0
S1530 S 0.90172 0.60501 0.95918 0.0
N1531 N 0.92591 0.61946 0.97539 0.0
N1532 N 0.89725 0.62453 0.94546 0.0
C1533 C 0.91575 0.64417 0.95401 0.0
C1534 C 0.93133 0.64139 0.97016 0.0
C1535 C 0.32934 0.28975 0.95168 0.0
C1536 C 0.33722 0.29305 0.97711 0.0
C1537 C 0.32606 0.27067 0.9375 0.0
C1538 C 0.33039 0.25403 0.94821 0.0
H1539 H 0.3261 0.30225 0.94241 0.0
H1540 H 0.32056 0.26923 0.91779 0.0
S1541 S 0.34922 0.25352 0.01481 0.0
N1542 N 0.34814 0.27746 0.01287 0.0
N1543 N 0.34144 0.24129 0.98641 0.0
C1544 C 0.33767 0.25678 0.97386 0.0
C1545 C 0.34119 0.27634 0.98826 0.0
C1546 C 0.7317 0.04683 0.97509 0.0
C1547 C 0.71391 0.05125 0.98107 0.0
C1548 C 0.74998 0.06172 0.95926 0.0
C1549 C 0.75089 0.08134 0.94843 0.0
H1550 H 0.7315 0.03176 0.9827 0.0
H1551 H 0.76352 0.05785 0.95552 0.0
S1552 S 0.70704 0.09906 0.95618 0.0
N1553 N 0.69764 0.07592 0.97414 0.0
N1554 N 0.73139 0.10336 0.94357 0.0
C1555 C 0.73291 0.08567 0.95399 0.0
C1556 C 0.71457 0.07075 0.9705 0.0
C1557 C 0.67135 0.96086 0.08151 0.0
C1558 C 0.66546 0.95664 0.05544 0.0
C1559 C 0.67391 0.94505 0.09653 0.0
C1560 C 0.67107 0.92459 0.08598 0.0
H1561 H 0.67361 0.97634 0.09057 0.0
H1562 H 0.6782 0.94887 0.11657 0.0
S1563 S 0.65595 0.9054 0.01878 0.0
N1564 N 0.65698 0.93043 0.01973 0.0
N1565 N 0.66217 0.90088 0.04798 0.0
C1566 C 0.66552 0.92026 0.05991 0.0
C1567 C 0.66259 0.93622 0.04464 0.0
C1568 C 0.04229 0.725 0.06702 0.0
C1569 C 0.04986 0.7124 0.05252 0.0
C1570 C 0.05754 0.74352 0.08233 0.0
C1571 C 0.08082 0.74985 0.08403 0.0
H1572 H 0.02436 0.72036 0.06678 0.0
H1573 H 0.05095 0.75254 0.09348 0.0
S1574 S 0.10964 0.7233 0.04918 0.0
N1575 N 0.0825 0.7083 0.04013 0.0
N1576 N 0.11104 0.74291 0.06924 0.0
C1577 C 0.08875 0.73777 0.0693 0.0
C1578 C 0.07331 0.71911 0.05342 0.0
C1579 C 0.27703 0.31933 0.06364 0.0
C1580 C 0.28998 0.33991 0.04993 0.0
C1581 C 0.25875 0.31603 0.0794 0.0
C1582 C 0.25301 0.33331 0.08232 0.0
H1583 H 0.28125 0.30579 0.06252 0.0
H1584 H 0.24946 0.3001 0.08995 0.0
S1585 S 0.28055 0.38976 0.04969 0.0
N1586 N 0.29497 0.37739 0.03948 0.0
N1587 N 0.26079 0.37118 0.06936 0.0
C1588 C 0.2654 0.3537 0.0683 0.0
C1589 C 0.28382 0.35699 0.05201 0.0
C1590 C 0.73251 0.67715 0.38142 0.0
C1591 C 0.71136 0.67286 0.39155 0.0
C1592 C 0.74809 0.67397 0.39627 0.0
C1593 C 0.74315 0.66655 0.42184 0.0
H1594 H 0.73695 0.68273 0.36178 0.0
H1595 H 0.764 0.67705 0.38755 0.0
S1596 S 0.69112 0.65519 0.45816 0.0
N1597 N 0.68685 0.66202 0.42918 0.0
N1598 N 0.71633 0.65661 0.45714 0.0
C1599 C 0.7223 0.66275 0.43235 0.0
C1600 C 0.70637 0.66577 0.41721 0.0
C1601 C 0.33335 0.04308 0.4151 0.0
C1602 C 0.32844 0.04156 0.38877 0.0
C1603 C 0.33571 0.06154 0.42976 0.0
C1604 C 0.33361 0.07937 0.41859 0.0
H1605 H 0.33509 0.02973 0.42461 0.0
H1606 H 0.33933 0.06193 0.45 0.0
S1607 S 0.32106 0.08385 0.35052 0.0
N1608 N 0.32159 0.0596 0.35214 0.0
N1609 N 0.32639 0.09455 0.37977 0.0
C1610 C 0.32896 0.07828 0.39228 0.0
C1611 C 0.32625 0.05929 0.37736 0.0
C1612 C 0.94399 0.29323 0.4 0.0
C1613 C 0.95738 0.28573 0.38698 0.0
C1614 C 0.92552 0.27826 0.41551 0.0
C1615 C 0.92 0.25536 0.41888 0.0
H1616 H 0.94795 0.31089 0.39843 0.0
H1617 H 0.91585 0.2848 0.42545 0.0
S1618 S 0.94887 0.22682 0.38832 0.0
N1619 N 0.96317 0.25353 0.3778 0.0
N1620 N 0.9286 0.22551 0.40725 0.0
C1621 C 0.93291 0.24748 0.40566 0.0
C1622 C 0.95154 0.26263 0.38959 0.0
C1623 C 0.02392 0.40438 0.30897 0.0
C1624 C 0.00594 0.38153 0.31117 0.0
C1625 C 0.02175 0.42011 0.2933 0.0
C1626 C 0.00139 0.41363 0.27962 0.0
H1627 H 0.04003 0.41004 0.31889 0.0
H1628 H 0.03612 0.43746 0.29184 0.0
S1629 S 0.94896 0.35618 0.27946 0.0
N1630 N 0.96687 0.3534 0.29873 0.0
N1631 N 0.96281 0.38308 0.26956 0.0
C1632 C 0.9831 0.39104 0.28211 0.0
C1633 C 0.98537 0.37495 0.2978 0.0
C1634 C 0.62945 0.6189 0.28779 0.0
C1635 C 0.62304 0.62147 0.31266 0.0
C1636 C 0.61463 0.6003 0.27235 0.0
C1637 C 0.5931 0.58337 0.28142 0.0
H1638 H 0.64573 0.63175 0.27981 0.0
H1639 H 0.61992 0.59929 0.25306 0.0
S1640 S 0.56853 0.58132 0.34538 0.0
N1641 N 0.59388 0.60505 0.34585 0.0
N1642 N 0.56624 0.56977 0.31689 0.0
C1643 C 0.58674 0.58525 0.30647 0.0
C1644 C 0.60166 0.6044 0.32208 0.0
C1645 C 0.38301 0.98034 0.30661 0.0
C1646 C 0.38109 0.99878 0.31628 0.0
C1647 C 0.40141 0.98411 0.29088 0.0
C1648 C 0.41883 0.00648 0.28454 0.0
H1649 H 0.36975 0.96281 0.31043 0.0
H1650 H 0.40166 0.9693 0.28313 0.0
S1651 S 0.42305 0.06065 0.30765 0.0
N1652 N 0.3987 0.0402 0.31983 0.0
N1653 N 0.43392 0.04738 0.29119 0.0
C1654 C 0.41755 0.02511 0.29498 0.0
C1655 C 0.39855 0.02123 0.31064 0.0
C1656 C 0.60519 1.00002 0.31837 0.0
C1657 C 0.62597 0.00308 0.30845 0.0
C1658 C 0.58991 0.00324 0.30301 0.0
C1659 C 0.59474 0.00947 0.27708 0.0
H1660 H 0.60061 0.99498 0.33812 0.0
H1661 H 0.57415 0.00078 0.31151 0.0
S1662 S 0.64635 0.01851 0.24151 0.0
N1663 N 0.65043 0.01238 0.27091 0.0
N1664 N 0.62147 0.01781 0.242 0.0
C1665 C 0.61548 0.01259 0.26694 0.0
C1666 C 0.63113 0.00954 0.28262 0.0
C1667 C 0.00153 0.62434 0.28527 0.0
C1668 C 0.00751 0.6262 0.31132 0.0
C1669 C 0.99941 0.60614 0.27031 0.0
C1670 C 0.00279 0.58889 0.28091 0.0
H1671 H 0.99889 0.6373 0.27617 0.0
H1672 H 0.99511 0.60554 0.25025 0.0
S1673 S 0.01816 0.58531 0.34811 0.0
N1674 N 0.01654 0.609 0.34711 0.0
N1675 N 0.01212 0.57449 0.31893 0.0
C1676 C 0.00835 0.59022 0.30698 0.0
C1677 C 0.01085 0.60898 0.32219 0.0
C1678 C 0.39377 0.37618 0.30119 0.0
C1679 C 0.38083 0.38357 0.31531 0.0
C1680 C 0.41218 0.39144 0.28578 0.0
C1681 C 0.41808 0.41456 0.28363 0.0
H1682 H 0.38944 0.35836 0.30171 0.0
H1683 H 0.42142 0.38495 0.27488 0.0
S1684 S 0.39064 0.44295 0.31759 0.0
N1685 N 0.37601 0.41593 0.32699 0.0
N1686 N 0.41047 0.44449 0.29776 0.0
C1687 C 0.40571 0.42234 0.29807 0.0
C1688 C 0.38715 0.40689 0.31402 0.0
C1689 C 0.33262 0.271 0.37945 0.0
C1690 C 0.33592 0.29167 0.39007 0.0
C1691 C 0.33531 0.25513 0.39432 0.0
C1692 C 0.34098 0.25922 0.4204 0.0
H1693 H 0.32771 0.26695 0.35958 0.0
H1694 H 0.33228 0.23926 0.38557 0.0
S1695 S 0.35214 0.31079 0.45731 0.0
N1696 N 0.34591 0.31555 0.42823 0.0
N1697 N 0.35056 0.28552 0.45606 0.0
C1698 C 0.34469 0.2799 0.43115 0.0
C1699 C 0.34228 0.29618 0.416 0.0
C1700 C 0.70847 0.04864 0.41311 0.0
C1701 C 0.71366 0.04596 0.38771 0.0
C1702 C 0.72415 0.06714 0.42811 0.0
C1703 C 0.74535 0.08389 0.41808 0.0
H1704 H 0.69242 0.03601 0.42173 0.0
H1705 H 0.71971 0.06833 0.44773 0.0
S1706 S 0.76694 0.08547 0.35256 0.0
N1707 N 0.74143 0.06196 0.3531 0.0
N1708 N 0.77066 0.09709 0.38124 0.0
C1709 C 0.75057 0.08181 0.3926 0.0
C1710 C 0.73478 0.06274 0.37742 0.0
C1711 C 0.95176 0.65864 0.4095 0.0
C1712 C 0.95582 0.6685 0.38499 0.0
C1713 C 0.93291 0.65537 0.42409 0.0
C1714 C 0.9172 0.66161 0.41464 0.0
H1715 H 0.96361 0.65398 0.41786 0.0
H1716 H 0.93097 0.64843 0.44318 0.0
S1717 S 0.91875 0.68581 0.3504 0.0
N1718 N 0.94192 0.68325 0.35125 0.0
N1719 N 0.90597 0.67639 0.37829 0.0
C1720 C 0.92062 0.67076 0.38976 0.0
C1721 C 0.94003 0.67436 0.37503 0.0
C1722 C 0.40089 0.00771 0.71368 0.0
C1723 C 0.38008 0.00411 0.72422 0.0
C1724 C 0.41658 0.00458 0.72842 0.0
C1725 C 0.41216 0.99819 0.75428 0.0
H1726 H 0.4051 0.013 0.69394 0.0
H1727 H 0.43251 0.0077 0.71972 0.0
S1728 S 0.36027 0.98635 0.79096 0.0
N1729 N 0.35583 0.99333 0.76212 0.0
N1730 N 0.38553 0.98789 0.7897 0.0
C1731 C 0.39143 0.99438 0.76498 0.0
C1732 C 0.37533 0.99721 0.74997 0.0
C1733 C 0.01333 0.39223 0.72915 0.0
C1734 C 0.99171 0.37641 0.7189 0.0
C1735 C 0.01632 0.41085 0.74404 0.0
C1736 C 0.99778 0.41429 0.74938 0.0
H1737 H 0.02803 0.38999 0.72611 0.0
H1738 H 0.03315 0.42228 0.752 0.0
S1739 S 0.93811 0.37906 0.72547 0.0
N1740 N 0.95172 0.36627 0.71401 0.0
N1741 N 0.95743 0.40134 0.74194 0.0
C1742 C 0.97624 0.39905 0.73866 0.0
C1743 C 0.97319 0.38013 0.7234 0.0
C1744 C 0.62396 0.62837 0.74469 0.0
C1745 C 0.62567 0.62411 0.71866 0.0
C1746 C 0.60504 0.61305 0.75942 0.0
C1747 C 0.58704 0.59286 0.7487 0.0
H1748 H 0.63757 0.64345 0.75397 0.0
H1749 H 0.6048 0.61677 0.77952 0.0
S1750 S 0.58212 0.57473 0.68089 0.0
N1751 N 0.60706 0.59883 0.68244 0.0
N1752 N 0.5713 0.57023 0.71003 0.0
C1753 C 0.58818 0.58871 0.72252 0.0
C1754 C 0.60752 0.60428 0.70753 0.0
C1755 C 0.65318 0.71312 0.6383 0.0
C1756 C 0.67552 0.71746 0.64362 0.0
C1757 C 0.64948 0.72812 0.62307 0.0
C1758 C 0.66796 0.74793 0.61226 0.0
H1759 H 0.6384 0.69797 0.64596 0.0
H1760 H 0.63197 0.7242 0.61982 0.0
S1761 S 0.72979 0.76616 0.61892 0.0
N1762 N 0.71638 0.74264 0.63635 0.0
N1763 N 0.70946 0.77038 0.60701 0.0
C1764 C 0.69041 0.75234 0.61728 0.0
C1765 C 0.69417 0.73724 0.63312 0.0
C1766 C 0.29566 0.95334 0.62215 0.0
C1767 C 0.29005 0.95617 0.64732 0.0
C1768 C 0.28008 0.93499 0.60692 0.0
C1769 C 0.25852 0.91855 0.61645 0.0
H1770 H 0.31195 0.96579 0.61383 0.0
H1771 H 0.28484 0.93375 0.58744 0.0
S1772 S 0.23577 0.91739 0.68125 0.0
N1773 N 0.26154 0.94057 0.68123 0.0
N1774 N 0.23244 0.90574 0.65264 0.0
C1775 C 0.2529 0.92071 0.64175 0.0
C1776 C 0.26862 0.93963 0.65718 0.0
C1777 C 0.04283 0.33116 0.61968 0.0
C1778 C 0.04153 0.32626 0.64599 0.0
C1779 C 0.0613 0.33376 0.60486 0.0
C1780 C 0.07935 0.33187 0.6158 0.0
H1781 H 0.02931 0.33271 0.61029 0.0
H1782 H 0.06148 0.33733 0.58463 0.0
S1783 S 0.08448 0.31948 0.68376 0.0
N1784 N 0.06007 0.31974 0.6824 0.0
N1785 N 0.09498 0.32489 0.65443 0.0
C1786 C 0.07851 0.32729 0.64211 0.0
C1787 C 0.05953 0.32438 0.65722 0.0
C1788 C 0.2677 0.32439 0.65233 0.0
C1789 C 0.28794 0.32681 0.64149 0.0
C1790 C 0.25171 0.32687 0.63738 0.0
C1791 C 0.25523 0.33138 0.61102 0.0
H1792 H 0.26423 0.3207 0.67251 0.0
H1793 H 0.23631 0.32487 0.6464 0.0
S1794 S 0.30529 0.33918 0.57333 0.0
N1795 N 0.31059 0.33411 0.60271 0.0
N1796 N 0.28039 0.33842 0.57474 0.0
C1797 C 0.27533 0.3338 0.59996 0.0
C1798 C 0.29173 0.33161 0.61517 0.0
C1799 C 0.68975 0.95542 0.6373 0.0
C1800 C 0.67119 0.95729 0.64669 0.0
C1801 C 0.68618 0.93726 0.62123 0.0
C1802 C 0.66387 0.92003 0.61427 0.0
H1803 H 0.70724 0.96849 0.64171 0.0
H1804 H 0.70108 0.937 0.61382 0.0
S1805 S 0.60939 0.91591 0.63625 0.0
N1806 N 0.62973 0.93997 0.64911 0.0
N1807 N 0.62285 0.90517 0.61992 0.0
C1808 C 0.64511 0.92135 0.62431 0.0
C1809 C 0.64881 0.94012 0.64028 0.0
C1810 C 0.04821 0.73694 0.64262 0.0
C1811 C 0.04275 0.71388 0.64433 0.0
C1812 C 0.06686 0.75283 0.62793 0.0
C1813 C 0.08091 0.74632 0.61472 0.0
H1814 H 0.03767 0.74267 0.65216 0.0
H1815 H 0.07027 0.77034 0.6268 0.0
S1816 S 0.07451 0.68833 0.61356 0.0
N1817 N 0.05332 0.6855 0.63199 0.0
N1818 N 0.08844 0.71548 0.60456 0.0
C1819 C 0.07602 0.7235 0.61675 0.0
C1820 C 0.05691 0.70725 0.63149 0.0
C1821 C 0.00397 0.62683 0.7449 0.0
C1822 C 0.99716 0.62174 0.71916 0.0
C1823 C 0.00723 0.6116 0.76016 0.0
C1824 C 0.0042 0.59091 0.75012 0.0
H1825 H 0.00629 0.64248 0.75357 0.0
H1826 H 0.01206 0.61598 0.78 0.0
S1827 S 0.98717 0.56972 0.68382 0.0
N1828 N 0.9879 0.59462 0.68422 0.0
N1829 N 0.99442 0.56615 0.71292 0.0
C1830 C 0.99793 0.58579 0.72432 0.0
C1831 C 0.99428 0.60116 0.70883 0.0
C1832 C 0.40228 0.38015 0.72891 0.0
C1833 C 0.38175 0.37819 0.71966 0.0
C1834 C 0.41735 0.3988 0.74414 0.0
C1835 C 0.41268 0.41642 0.75041 0.0
H1836 H 0.40645 0.36684 0.72499 0.0
H1837 H 0.4326 0.39915 0.75146 0.0
S1838 S 0.36224 0.42043 0.72854 0.0
N1839 N 0.35797 0.39587 0.71663 0.0
N1840 N 0.38677 0.43147 0.74435 0.0
C1841 C 0.3925 0.41498 0.74055 0.0
C1842 C 0.37695 0.39576 0.72538 0.0
C1843 C 0.61393 0.98748 0.73484 0.0
C1844 C 0.62707 0.0076 0.72046 0.0
C1845 C 0.59525 0.98454 0.7496 0.0
C1846 C 0.58929 0.00176 0.75083 0.0
H1847 H 0.61821 0.97395 0.73488 0.0
H1848 H 0.58576 0.96893 0.76065 0.0
S1849 S 0.61744 0.05721 0.71615 0.0
N1850 N 0.63219 0.04467 0.70774 0.0
N1851 N 0.59725 0.03918 0.73581 0.0
C1852 C 0.60198 0.02176 0.73627 0.0
C1853 C 0.62081 0.02466 0.72097 0.0
loop_
_geom_bond_atom_site_label_1
_geom_bond_atom_site_label_2
_geom_bond_distance
_geom_bond_site_symmetry_2
_ccdc_geom_bond_type
In0 O1 2.294 1_455 S
In0 O2 2.326 . S
In0 O6 2.266 1_455 S
In0 O7 2.326 1_454 S
In0 O8 2.266 1_554 S
In0 O9 2.326 1_454 S
In0 O11 2.294 . S
In0 O12 2.326 . S
O1 In0 2.294 1_655 S
O1 C10 1.241 . S
O2 In0 2.326 . S
O2 C10 1.249 1_455 S
C3 O6 1.252 1_556 S
C3 O7 1.260 . S
C4 O11 1.240 . S
C4 O12 1.252 . S
C5 O8 1.252 . S
C5 O9 1.260 1_455 S
O6 In0 2.266 1_655 S
O6 C3 1.252 1_554 S
O7 In0 2.326 1_656 S
O7 C3 1.260 . S
O8 In0 2.266 1_556 S
O8 C5 1.252 . S
O9 In0 2.326 1_656 S
O9 C5 1.260 1_655 S
C10 O1 1.241 . S
C10 O2 1.249 1_655 S
O11 In0 2.294 . S
O11 C4 1.240 . S
O12 In0 2.326 . S
O12 C4 1.252 . S
In13 O14 2.294 . S
In13 O15 2.326 . S
In13 O19 2.267 . S
In13 O20 2.326 1_554 S
In13 O21 2.266 1_554 S
In13 O22 2.326 1_554 S
In13 O24 2.294 . S
In13 O25 2.326 . S
O14 In13 2.294 . S
O14 C23 1.240 . S
O15 In13 2.326 . S
O15 C23 1.252 . S
C16 O19 1.248 1_556 S
C16 O20 1.260 . S
C17 O24 1.240 . S
C17 O25 1.252 . S
C18 O21 1.252 . S
C18 O22 1.260 . S
O19 In13 2.267 . S
O19 C16 1.248 1_554 S
O20 In13 2.326 1_556 S
O20 C16 1.260 . S
O21 In13 2.266 1_556 S
O21 C18 1.252 . S
O22 In13 2.326 1_556 S
O22 C18 1.260 . S
C23 O14 1.240 . S
C23 O15 1.252 . S
O24 In13 2.294 . S
O24 C17 1.240 . S
O25 In13 2.326 . S
O25 C17 1.252 . S
In26 O27 2.294 . S
In26 O28 2.326 1_554 S
In26 O32 2.266 . S
In26 O33 2.326 1_545 S
In26 O34 2.266 1_545 S
In26 O35 2.326 1_545 S
In26 O37 2.294 1_544 S
In26 O38 2.326 1_554 S
O27 In26 2.294 . S
O27 C36 1.240 1_554 S
O28 In26 2.326 1_556 S
O28 C36 1.252 . S
C29 O32 1.252 . S
C29 O33 1.260 1_545 S
C30 O37 1.242 1_545 S
C30 O38 1.249 . S
C31 O34 1.252 . S
C31 O35 1.260 . S
O32 In26 2.266 . S
O32 C29 1.252 . S
O33 In26 2.326 1_565 S
O33 C29 1.260 1_565 S
O34 In26 2.266 1_565 S
O34 C31 1.252 . S
O35 In26 2.326 1_565 S
O35 C31 1.260 . S
C36 O27 1.240 1_556 S
C36 O28 1.252 . S
O37 In26 2.294 1_566 S
O37 C30 1.242 1_565 S
O38 In26 2.326 1_556 S
O38 C30 1.249 . S
In39 O40 2.293 1_554 S
In39 O41 2.326 1_454 S
In39 O45 2.265 . S
In39 O46 2.326 . S
In39 O47 2.267 1_455 S
In39 O48 2.324 . S
In39 O50 2.296 1_455 S
In39 O51 2.327 1_454 S
O40 In39 2.293 1_556 S
O40 C49 1.240 . S
O41 In39 2.326 1_656 S
O41 C49 1.252 1_655 S
C42 O45 1.252 . S
C42 O46 1.260 . S
C43 O50 1.240 1_556 S
C43 O51 1.252 . S
C44 O47 1.290 . S
C44 O48 1.232 1_655 S
O45 In39 2.265 . S
O45 C42 1.252 . S
O46 In39 2.326 . S
O46 C42 1.260 . S
O47 In39 2.267 1_655 S
O47 C44 1.290 . S
O48 In39 2.324 . S
O48 C44 1.232 1_455 S
C49 O40 1.240 . S
C49 O41 1.252 1_455 S
O50 In39 2.296 1_655 S
O50 C43 1.240 1_554 S
O51 In39 2.327 1_656 S
O51 C43 1.252 . S
In52 O53 2.294 1_554 S
In52 O54 2.326 1_554 S
In52 O58 2.266 . S
In52 O59 2.326 . S
In52 O60 2.266 . S
In52 O61 2.326 . S
In52 O63 2.295 . S
In52 O64 2.326 1_554 S
O53 In52 2.294 1_556 S
O53 C62 1.240 . S
O54 In52 2.326 1_556 S
O54 C62 1.252 . S
C55 O58 1.252 . S
C55 O59 1.260 . S
C56 O63 1.235 1_556 S
C56 O64 1.252 . S
C57 O60 1.252 . S
C57 O61 1.260 . S
O58 In52 2.266 . S
O58 C55 1.252 . S
O59 In52 2.326 . S
O59 C55 1.260 . S
O60 In52 2.266 . S
O60 C57 1.252 . S
O61 In52 2.326 . S
O61 C57 1.260 . S
C62 O53 1.240 . S
C62 O54 1.252 . S
O63 In52 2.295 . S
O63 C56 1.235 1_554 S
O64 In52 2.326 1_556 S
O64 C56 1.252 . S
In65 O66 2.293 . S
In65 O67 2.326 1_545 S
In65 O71 2.265 . S
In65 O72 2.326 1_554 S
In65 O73 2.267 1_544 S
In65 O74 2.324 1_554 S
In65 O76 2.296 1_545 S
In65 O77 2.327 1_545 S
O66 In65 2.293 . S
O66 C75 1.240 . S
O67 In65 2.326 1_565 S
O67 C75 1.252 1_565 S
C68 O71 1.252 1_556 S
C68 O72 1.260 . S
C69 O76 1.240 . S
C69 O77 1.252 . S
C70 O73 1.293 . S
C70 O74 1.231 1_565 S
O71 In65 2.265 . S
O71 C68 1.252 1_554 S
O72 In65 2.326 1_556 S
O72 C68 1.260 . S
O73 In65 2.267 1_566 S
O73 C70 1.293 . S
O74 In65 2.324 1_556 S
O74 C70 1.231 1_545 S
C75 O66 1.240 . S
C75 O67 1.252 1_545 S
O76 In65 2.296 1_565 S
O76 C69 1.240 . S
O77 In65 2.327 1_565 S
O77 C69 1.252 . S
In78 O79 2.294 . S
In78 O80 2.326 . S
In78 O84 2.266 . S
In78 O85 2.326 . S
In78 O86 2.266 . S
In78 O87 2.326 . S
In78 O89 2.294 . S
In78 O90 2.326 . S
O79 In78 2.294 . S
O79 C88 1.240 . S
O80 In78 2.326 . S
O80 C88 1.252 . S
C81 O84 1.252 . S
C81 O85 1.260 . S
C82 O89 1.240 . S
C82 O90 1.252 . S
C83 O86 1.252 . S
C83 O87 1.260 . S
O84 In78 2.266 . S
O84 C81 1.252 . S
O85 In78 2.326 . S
O85 C81 1.260 . S
O86 In78 2.266 . S
O86 C83 1.252 . S
O87 In78 2.326 . S
O87 C83 1.260 . S
C88 O79 1.240 . S
C88 O80 1.252 . S
O89 In78 2.294 . S
O89 C82 1.240 . S
O90 In78 2.326 . S
O90 C82 1.252 . S
In91 O92 2.294 . S
In91 O93 2.326 . S
In91 O97 2.266 . S
In91 O98 2.321 1_565 S
In91 O99 2.266 . S
In91 O100 2.326 . S
In91 O102 2.294 1_565 S
In91 O103 2.326 1_565 S
O92 In91 2.294 . S
O92 C101 1.240 . S
O93 In91 2.326 . S
O93 C101 1.252 . S
C94 O97 1.252 . S
C94 O98 1.235 1_565 S
C95 O102 1.240 . S
C95 O103 1.252 . S
C96 O99 1.252 . S
C96 O100 1.260 . S
O97 In91 2.266 . S
O97 C94 1.252 . S
O98 In91 2.321 1_545 S
O98 C94 1.235 1_545 S
O99 In91 2.266 . S
O99 C96 1.252 . S
O100 In91 2.326 . S
O100 C96 1.260 . S
C101 O92 1.240 . S
C101 O93 1.252 . S
O102 In91 2.294 1_545 S
O102 C95 1.240 . S
O103 In91 2.326 1_545 S
O103 C95 1.252 . S
In104 O105 2.294 . S
In104 O106 2.326 . S
In104 O110 2.266 . S
In104 O111 2.326 . S
In104 O112 2.266 1_455 S
In104 O113 2.326 1_455 S
In104 O115 2.294 . S
In104 O116 2.326 . S
O105 In104 2.294 . S
O105 C114 1.240 . S
O106 In104 2.326 . S
O106 C114 1.252 . S
C107 O110 1.252 . S
C107 O111 1.260 . S
C108 O115 1.240 . S
C108 O116 1.252 . S
C109 O112 1.252 . S
C109 O113 1.260 . S
O110 In104 2.266 . S
O110 C107 1.252 . S
O111 In104 2.326 . S
O111 C107 1.260 . S
O112 In104 2.266 1_655 S
O112 C109 1.252 . S
O113 In104 2.326 1_655 S
O113 C109 1.260 . S
C114 O105 1.240 . S
C114 O106 1.252 . S
O115 In104 2.294 . S
O115 C108 1.240 . S
O116 In104 2.326 . S
O116 C108 1.252 . S
In117 O118 2.294 . S
In117 O119 2.326 . S
In117 O123 2.266 1_565 S
In117 O124 2.326 1_565 S
In117 O125 2.266 . S
In117 O126 2.326 . S
In117 O128 2.294 . S
In117 O129 2.358 . S
O118 In117 2.294 . S
O118 C127 1.240 . S
O119 In117 2.326 . S
O119 C127 1.252 . S
C120 O123 1.252 . S
C120 O124 1.260 . S
C121 O128 1.240 . S
C121 O129 1.252 . S
C122 O125 1.252 . S
C122 O126 1.260 . S
O123 In117 2.266 1_545 S
O123 C120 1.252 . S
O124 In117 2.326 1_545 S
O124 C120 1.260 . S
O125 In117 2.266 . S
O125 C122 1.252 . S
O126 In117 2.326 . S
O126 C122 1.260 . S
C127 O118 1.240 . S
C127 O119 1.252 . S
O128 In117 2.294 . S
O128 C121 1.240 . S
O129 In117 2.358 . S
O129 C121 1.252 . S
In130 O131 2.294 . S
In130 O132 2.326 . S
In130 O136 2.266 1_455 S
In130 O137 2.326 1_455 S
In130 O138 2.266 . S
In130 O139 2.326 . S
In130 O141 2.294 . S
In130 O142 2.326 . S
O131 In130 2.294 . S
O131 C140 1.240 . S
O132 In130 2.326 . S
O132 C140 1.252 . S
C133 O136 1.252 . S
C133 O137 1.260 . S
C134 O141 1.240 . S
C134 O142 1.252 . S
C135 O138 1.252 . S
C135 O139 1.260 . S
O136 In130 2.266 1_655 S
O136 C133 1.252 . S
O137 In130 2.326 1_655 S
O137 C133 1.260 . S
O138 In130 2.266 . S
O138 C135 1.252 . S
O139 In130 2.326 . S
O139 C135 1.260 . S
C140 O131 1.240 . S
C140 O132 1.252 . S
O141 In130 2.294 . S
O141 C134 1.240 . S
O142 In130 2.326 . S
O142 C134 1.252 . S
In143 O144 2.294 . S
In143 O145 2.326 . S
In143 O149 2.266 . S
In143 O150 2.326 . S
In143 O151 2.266 . S
In143 O152 2.326 . S
In143 O154 2.294 . S
In143 O155 2.326 . S
O144 In143 2.294 . S
O144 C153 1.240 . S
O145 In143 2.326 . S
O145 C153 1.252 . S
C146 O149 1.252 . S
C146 O150 1.260 . S
C147 O154 1.240 . S
C147 O155 1.252 . S
C148 O151 1.252 . S
C148 O152 1.260 . S
O149 In143 2.266 . S
O149 C146 1.252 . S
O150 In143 2.326 . S
O150 C146 1.260 . S
O151 In143 2.266 . S
O151 C148 1.252 . S
O152 In143 2.326 . S
O152 C148 1.260 . S
C153 O144 1.240 . S
C153 O145 1.252 . S
O154 In143 2.294 . S
O154 C147 1.240 . S
O155 In143 2.326 . S
O155 C147 1.252 . S
In156 O157 2.294 . S
In156 O158 2.326 . S
In156 O162 2.266 . S
In156 O163 2.326 . S
In156 O164 2.266 1_545 S
In156 O165 2.326 1_545 S
In156 O167 2.294 . S
In156 O168 2.326 . S
O157 In156 2.294 . S
O157 C166 1.240 . S
O158 In156 2.326 . S
O158 C166 1.252 . S
C159 O162 1.252 . S
C159 O163 1.260 . S
C160 O167 1.240 . S
C160 O168 1.252 . S
C161 O164 1.252 . S
C161 O165 1.260 . S
O162 In156 2.266 . S
O162 C159 1.252 . S
O163 In156 2.326 . S
O163 C159 1.260 . S
O164 In156 2.266 1_565 S
O164 C161 1.252 . S
O165 In156 2.326 1_565 S
O165 C161 1.260 . S
C166 O157 1.240 . S
C166 O158 1.252 . S
O167 In156 2.294 . S
O167 C160 1.240 . S
O168 In156 2.326 . S
O168 C160 1.252 . S
In169 O170 2.294 . S
In169 O171 2.332 . S
In169 O175 2.266 . S
In169 O176 2.326 . S
In169 O177 2.266 1_655 S
In169 O178 2.326 1_655 S
In169 O180 2.294 . S
In169 O181 2.326 . S
O170 In169 2.294 . S
O170 C179 1.240 . S
O171 In169 2.332 . S
O171 C179 1.287 . S
C172 O175 1.252 . S
C172 O176 1.260 . S
C173 O180 1.240 . S
C173 O181 1.252 . S
C174 O177 1.252 . S
C174 O178 1.260 . S
O175 In169 2.266 . S
O175 C172 1.252 . S
O176 In169 2.326 . S
O176 C172 1.260 . S
O177 In169 2.266 1_455 S
O177 C174 1.252 . S
O178 In169 2.326 1_455 S
O178 C174 1.260 . S
C179 O170 1.240 . S
C179 O171 1.287 . S
O180 In169 2.294 . S
O180 C173 1.240 . S
O181 In169 2.326 . S
O181 C173 1.252 . S
In182 O183 2.294 . S
In182 O184 2.326 . S
In182 O188 2.266 . S
In182 O189 2.326 . S
In182 O190 2.266 . S
In182 O191 2.326 . S
In182 O193 2.294 . S
In182 O194 2.326 . S
O183 In182 2.294 . S
O183 C192 1.240 . S
O184 In182 2.326 . S
O184 C192 1.252 . S
C185 O188 1.252 . S
C185 O189 1.260 . S
C186 O193 1.240 . S
C186 O194 1.252 . S
C187 O190 1.252 . S
C187 O191 1.260 . S
O188 In182 2.266 . S
O188 C185 1.252 . S
O189 In182 2.326 . S
O189 C185 1.260 . S
O190 In182 2.266 . S
O190 C187 1.252 . S
O191 In182 2.326 . S
O191 C187 1.260 . S
C192 O183 1.240 . S
C192 O184 1.252 . S
O193 In182 2.294 . S
O193 C186 1.240 . S
O194 In182 2.326 . S
O194 C186 1.252 . S
In195 O196 2.294 . S
In195 O197 2.326 . S
In195 O201 2.266 . S
In195 O202 2.326 . S
In195 O203 2.266 . S
In195 O204 2.326 . S
In195 O206 2.294 . S
In195 O207 2.326 . S
O196 In195 2.294 . S
O196 C205 1.240 . S
O197 In195 2.326 . S
O197 C205 1.252 . S
C198 O201 1.252 . S
C198 O202 1.260 . S
C199 O206 1.240 . S
C199 O207 1.252 . S
C200 O203 1.252 . S
C200 O204 1.260 . S
O201 In195 2.266 . S
O201 C198 1.252 . S
O202 In195 2.326 . S
O202 C198 1.260 . S
O203 In195 2.266 . S
O203 C200 1.252 . S
O204 In195 2.326 . S
O204 C200 1.260 . S
C205 O196 1.240 . S
C205 O197 1.252 . S
O206 In195 2.294 . S
O206 C199 1.240 . S
O207 In195 2.326 . S
O207 C199 1.252 . S
In208 O209 2.294 . S
In208 O210 2.326 . S
In208 O214 2.266 . S
In208 O215 2.327 . S
In208 O216 2.266 . S
In208 O217 2.326 . S
In208 O219 2.294 1_545 S
In208 O220 2.326 1_545 S
O209 In208 2.294 . S
O209 C218 1.240 . S
O210 In208 2.326 . S
O210 C218 1.252 . S
C211 O214 1.252 . S
C211 O215 1.265 . S
C212 O219 1.240 . S
C212 O220 1.252 . S
C213 O216 1.252 . S
C213 O217 1.260 . S
O214 In208 2.266 . S
O214 C211 1.252 . S
O215 In208 2.327 . S
O215 C211 1.265 . S
O216 In208 2.266 . S
O216 C213 1.252 . S
O217 In208 2.326 . S
O217 C213 1.260 . S
C218 O209 1.240 . S
C218 O210 1.252 . S
O219 In208 2.294 1_565 S
O219 C212 1.240 . S
O220 In208 2.326 1_565 S
O220 C212 1.252 . S
In221 O222 2.294 . S
In221 O223 2.360 . S
In221 O227 2.266 . S
In221 O228 2.326 . S
In221 O229 2.266 1_655 S
In221 O230 2.326 1_655 S
In221 O232 2.294 . S
In221 O233 2.326 . S
O222 In221 2.294 . S
O222 C231 1.240 . S
O223 In221 2.360 . S
O223 C231 1.252 . S
C224 O227 1.252 . S
C224 O228 1.260 . S
C225 O232 1.240 . S
C225 O233 1.252 . S
C226 O229 1.252 . S
C226 O230 1.260 . S
O227 In221 2.266 . S
O227 C224 1.252 . S
O228 In221 2.326 . S
O228 C224 1.260 . S
O229 In221 2.266 1_455 S
O229 C226 1.252 . S
O230 In221 2.326 1_455 S
O230 C226 1.260 . S
C231 O222 1.240 . S
C231 O223 1.252 . S
O232 In221 2.294 . S
O232 C225 1.240 . S
O233 In221 2.326 . S
O233 C225 1.252 . S
C234 C235 1.384 . S
C234 C236 1.384 . S
C234 H262 0.931 . S
C235 C234 1.384 . S
C235 C238 1.382 . S
C236 C234 1.384 . S
C236 C237 1.381 . S
C236 H263 0.930 . S
C237 C236 1.381 . S
C237 C239 1.381 . S
C237 C240 1.487 . S
C238 C235 1.382 . S
C238 C239 1.387 . S
C238 H264 0.930 . S
C239 C237 1.381 . S
C239 C238 1.387 . S
C239 H265 0.931 . S
C240 C237 1.487 . S
C240 C247 1.399 . S
C240 N278 1.343 . S
C241 C242 1.384 . S
C241 C243 1.384 . S
C241 H266 0.931 . S
C242 C241 1.384 . S
C242 C245 1.382 . S
C243 C241 1.384 . S
C243 C244 1.381 . S
C243 H267 0.930 . S
C244 C243 1.381 . S
C244 C246 1.381 . S
C244 C247 1.487 . S
C245 C242 1.382 . S
C245 C246 1.387 . S
C245 H268 0.930 . S
C246 C244 1.381 . S
C246 C245 1.387 . S
C246 H269 0.931 . S
C247 C240 1.399 . S
C247 C244 1.487 . S
C247 N279 1.343 . S
C248 C249 1.384 . S
C248 C250 1.384 . S
C248 H270 0.931 . S
C249 C248 1.384 . S
C249 C252 1.382 . S
C250 C248 1.384 . S
C250 C251 1.381 . S
C250 H271 0.930 . S
C251 C250 1.381 . S
C251 C253 1.381 . S
C251 C254 1.487 . S
C252 C249 1.382 . S
C252 C253 1.387 . S
C252 H272 0.930 . S
C253 C251 1.381 . S
C253 C252 1.387 . S
C253 H273 0.931 . S
C254 C251 1.487 . S
C254 C261 1.399 . S
C254 N279 1.343 . S
C255 C256 1.384 . S
C255 C257 1.384 . S
C255 H274 0.931 . S
C256 C255 1.384 . S
C256 C259 1.382 . S
C257 C255 1.384 . S
C257 C258 1.381 . S
C257 H275 0.930 . S
C258 C257 1.381 . S
C258 C260 1.381 . S
C258 C261 1.487 . S
C259 C256 1.382 . S
C259 C260 1.387 . S
C259 H276 0.930 . S
C260 C258 1.381 . S
C260 C259 1.387 . S
C260 H277 0.931 . S
C261 C254 1.399 . S
C261 C258 1.487 . S
C261 N278 1.343 . S
H262 C234 0.931 . S
H263 C236 0.930 . S
H264 C238 0.930 . S
H265 C239 0.931 . S
H266 C241 0.931 . S
H267 C243 0.930 . S
H268 C245 0.930 . S
H269 C246 0.931 . S
H270 C248 0.931 . S
H271 C250 0.930 . S
H272 C252 0.930 . S
H273 C253 0.931 . S
H274 C255 0.931 . S
H275 C257 0.930 . S
H276 C259 0.930 . S
H277 C260 0.931 . S
N278 C240 1.343 . S
N278 C261 1.343 . S
N279 C247 1.343 . S
N279 C254 1.343 . S
C280 C281 1.384 . S
C280 C282 1.384 . S
C280 H308 0.931 . S
C281 C280 1.384 . S
C281 C284 1.382 . S
C282 C280 1.384 . S
C282 C283 1.381 . S
C282 H309 0.930 . S
C283 C282 1.381 . S
C283 C285 1.381 . S
C283 C286 1.487 . S
C284 C281 1.382 . S
C284 C285 1.387 . S
C284 H310 0.930 . S
C285 C283 1.381 . S
C285 C284 1.387 . S
C285 H311 0.931 . S
C286 C283 1.487 . S
C286 C293 1.399 . S
C286 N324 1.343 . S
C287 C288 1.384 . S
C287 C289 1.384 . S
C287 H312 0.931 . S
C288 C287 1.384 . S
C288 C291 1.382 . S
C289 C287 1.384 . S
C289 C290 1.381 . S
C289 H313 0.930 . S
C290 C289 1.381 . S
C290 C292 1.381 . S
C290 C293 1.487 . S
C291 C288 1.382 . S
C291 C292 1.387 . S
C291 H314 0.930 . S
C292 C290 1.381 . S
C292 C291 1.387 . S
C292 H315 0.931 . S
C293 C286 1.399 . S
C293 C290 1.487 . S
C293 N325 1.343 . S
C294 C295 1.384 . S
C294 C296 1.384 . S
C294 H316 0.931 . S
C295 C294 1.384 . S
C295 C298 1.382 . S
C296 C294 1.384 . S
C296 C297 1.381 . S
C296 H317 0.930 . S
C297 C296 1.381 . S
C297 C299 1.381 . S
C297 C300 1.487 . S
C298 C295 1.382 . S
C298 C299 1.387 . S
C298 H318 0.930 . S
C299 C297 1.381 . S
C299 C298 1.387 . S
C299 H319 0.931 . S
C300 C297 1.487 . S
C300 C307 1.399 . S
C300 N325 1.343 . S
C301 C302 1.384 . S
C301 C303 1.384 . S
C301 H320 0.931 . S
C302 C301 1.384 . S
C302 C305 1.382 . S
C303 C301 1.384 . S
C303 C304 1.381 . S
C303 H321 0.930 . S
C304 C303 1.381 . S
C304 C306 1.381 . S
C304 C307 1.487 . S
C305 C302 1.382 . S
C305 C306 1.387 . S
C305 H322 0.930 . S
C306 C304 1.381 . S
C306 C305 1.387 . S
C306 H323 0.931 . S
C307 C300 1.399 . S
C307 C304 1.487 . S
C307 N324 1.343 . S
H308 C280 0.931 . S
H309 C282 0.930 . S
H310 C284 0.930 . S
H311 C285 0.931 . S
H312 C287 0.931 . S
H313 C289 0.930 . S
H314 C291 0.930 . S
H315 C292 0.931 . S
H316 C294 0.931 . S
H317 C296 0.930 . S
H318 C298 0.930 . S
H319 C299 0.931 . S
H320 C301 0.931 . S
H321 C303 0.930 . S
H322 C305 0.930 . S
H323 C306 0.931 . S
N324 C286 1.343 . S
N324 C307 1.343 . S
N325 C293 1.343 . S
N325 C300 1.343 . S
C326 C327 1.384 . S
C326 C328 1.384 . S
C326 H354 0.931 . S
C327 C326 1.384 . S
C327 C330 1.382 . S
C328 C326 1.384 . S
C328 C329 1.381 . S
C328 H355 0.930 . S
C329 C328 1.381 . S
C329 C331 1.381 . S
C329 C332 1.487 . S
C330 C327 1.382 . S
C330 C331 1.387 . S
C330 H356 0.930 . S
C331 C329 1.381 . S
C331 C330 1.387 . S
C331 H357 0.931 . S
C332 C329 1.487 . S
C332 C339 1.399 . S
C332 N370 1.343 . S
C333 C334 1.384 . S
C333 C335 1.384 . S
C333 H358 0.931 . S
C334 C333 1.384 . S
C334 C337 1.382 . S
C335 C333 1.384 . S
C335 C336 1.381 . S
C335 H359 0.930 . S
C336 C335 1.381 . S
C336 C338 1.381 . S
C336 C339 1.487 . S
C337 C334 1.382 . S
C337 C338 1.387 . S
C337 H360 0.930 . S
C338 C336 1.381 . S
C338 C337 1.387 . S
C338 H361 0.931 . S
C339 C332 1.399 . S
C339 C336 1.487 . S
C339 N371 1.343 . S
C340 C341 1.384 . S
C340 C342 1.384 . S
C340 H362 0.931 . S
C341 C340 1.384 . S
C341 C344 1.382 . S
C342 C340 1.384 . S
C342 C343 1.381 . S
C342 H363 0.930 . S
C343 C342 1.381 . S
C343 C345 1.381 . S
C343 C346 1.487 . S
C344 C341 1.382 . S
C344 C345 1.387 . S
C344 H364 0.930 . S
C345 C343 1.381 . S
C345 C344 1.387 . S
C345 H365 0.931 . S
C346 C343 1.487 . S
C346 C353 1.399 . S
C346 N371 1.343 . S
C347 C348 1.384 . S
C347 C349 1.384 . S
C347 H366 0.931 . S
C348 C347 1.384 . S
C348 C351 1.382 . S
C349 C347 1.384 . S
C349 C350 1.381 . S
C349 H367 0.930 . S
C350 C349 1.381 . S
C350 C352 1.381 . S
C350 C353 1.487 . S
C351 C348 1.382 . S
C351 C352 1.387 . S
C351 H368 0.930 . S
C352 C350 1.381 . S
C352 C351 1.387 . S
C352 H369 0.931 . S
C353 C346 1.399 . S
C353 C350 1.487 . S
C353 N370 1.343 . S
H354 C326 0.931 . S
H355 C328 0.930 . S
H356 C330 0.930 . S
H357 C331 0.931 . S
H358 C333 0.931 . S
H359 C335 0.930 . S
H360 C337 0.930 . S
H361 C338 0.931 . S
H362 C340 0.931 . S
H363 C342 0.930 . S
H364 C344 0.930 . S
H365 C345 0.931 . S
H366 C347 0.931 . S
H367 C349 0.930 . S
H368 C351 0.930 . S
H369 C352 0.931 . S
N370 C332 1.343 . S
N370 C353 1.343 . S
N371 C339 1.343 . S
N371 C346 1.343 . S
C372 C373 1.384 . S
C372 C374 1.384 . S
C372 H400 0.931 . S
C373 C372 1.384 . S
C373 C376 1.382 . S
C374 C372 1.384 . S
C374 C375 1.381 . S
C374 H401 0.930 . S
C375 C374 1.381 . S
C375 C377 1.381 . S
C375 C378 1.487 . S
C376 C373 1.382 . S
C376 C377 1.387 . S
C376 H402 0.930 . S
C377 C375 1.381 . S
C377 C376 1.387 . S
C377 H403 0.931 . S
C378 C375 1.487 . S
C378 C385 1.399 . S
C378 N416 1.343 . S
C379 C380 1.384 . S
C379 C381 1.384 . S
C379 H404 0.931 . S
C380 C379 1.384 . S
C380 C383 1.382 . S
C381 C379 1.384 . S
C381 C382 1.381 . S
C381 H405 0.930 . S
C382 C381 1.381 . S
C382 C384 1.381 . S
C382 C385 1.487 . S
C383 C380 1.382 . S
C383 C384 1.387 . S
C383 H406 0.930 . S
C384 C382 1.381 . S
C384 C383 1.387 . S
C384 H407 0.931 . S
C385 C378 1.399 . S
C385 C382 1.487 . S
C385 N417 1.343 . S
C386 C387 1.384 . S
C386 C388 1.384 . S
C386 H408 0.931 . S
C387 C386 1.384 . S
C387 C390 1.382 . S
C388 C386 1.384 . S
C388 C389 1.381 . S
C388 H409 0.930 . S
C389 C388 1.381 . S
C389 C391 1.381 . S
C389 C392 1.487 . S
C390 C387 1.382 . S
C390 C391 1.387 . S
C390 H410 0.930 . S
C391 C389 1.381 . S
C391 C390 1.387 . S
C391 H411 0.931 . S
C392 C389 1.487 . S
C392 C399 1.399 . S
C392 N417 1.343 . S
C393 C394 1.384 . S
C393 C395 1.384 . S
C393 H412 0.931 . S
C394 C393 1.384 . S
C394 C397 1.382 . S
C395 C393 1.384 . S
C395 C396 1.381 . S
C395 H413 0.930 . S
C396 C395 1.381 . S
C396 C398 1.381 . S
C396 C399 1.487 . S
C397 C394 1.382 . S
C397 C398 1.387 . S
C397 H414 0.930 . S
C398 C396 1.381 . S
C398 C397 1.387 . S
C398 H415 0.931 . S
C399 C392 1.399 . S
C399 C396 1.487 . S
C399 N416 1.343 . S
H400 C372 0.931 . S
H401 C374 0.930 . S
H402 C376 0.930 . S
H403 C377 0.931 . S
H404 C379 0.931 . S
H405 C381 0.930 . S
H406 C383 0.930 . S
H407 C384 0.931 . S
H408 C386 0.931 . S
H409 C388 0.930 . S
H410 C390 0.930 . S
H411 C391 0.931 . S
H412 C393 0.931 . S
H413 C395 0.930 . S
H414 C397 0.930 . S
H415 C398 0.931 . S
N416 C378 1.343 . S
N416 C399 1.343 . S
N417 C385 1.343 . S
N417 C392 1.343 . S
C418 C419 1.384 . S
C418 C420 1.384 . S
C418 H446 0.931 . S
C419 C418 1.384 . S
C419 C422 1.382 . S
C420 C418 1.384 . S
C420 C421 1.381 . S
C420 H447 0.930 . S
C421 C420 1.381 . S
C421 C423 1.381 . S
C421 C424 1.487 . S
C422 C419 1.382 . S
C422 C423 1.387 . S
C422 H448 0.930 . S
C423 C421 1.381 . S
C423 C422 1.387 . S
C423 H449 0.931 . S
C424 C421 1.487 . S
C424 C431 1.399 . S
C424 N462 1.343 . S
C425 C426 1.384 . S
C425 C427 1.384 . S
C425 H450 0.931 . S
C426 C425 1.384 . S
C426 C429 1.382 . S
C427 C425 1.384 . S
C427 C428 1.381 . S
C427 H451 0.930 . S
C428 C427 1.381 . S
C428 C430 1.381 . S
C428 C431 1.487 . S
C429 C426 1.382 . S
C429 C430 1.387 . S
C429 H452 0.930 . S
C430 C428 1.381 . S
C430 C429 1.387 . S
C430 H453 0.931 . S
C431 C424 1.399 . S
C431 C428 1.487 . S
C431 N463 1.343 . S
C432 C433 1.384 . S
C432 C434 1.384 . S
C432 H454 0.931 . S
C433 C432 1.384 . S
C433 C436 1.382 . S
C434 C432 1.384 . S
C434 C435 1.381 . S
C434 H455 0.930 . S
C435 C434 1.381 . S
C435 C437 1.381 . S
C435 C438 1.487 . S
C436 C433 1.382 . S
C436 C437 1.387 . S
C436 H456 0.930 . S
C437 C435 1.381 . S
C437 C436 1.387 . S
C437 H457 0.931 . S
C438 C435 1.487 . S
C438 C445 1.399 . S
C438 N463 1.343 . S
C439 C440 1.384 . S
C439 C441 1.384 . S
C439 H458 0.931 . S
C440 C439 1.384 . S
C440 C443 1.382 . S
C441 C439 1.384 . S
C441 C442 1.381 . S
C441 H459 0.930 . S
C442 C441 1.381 . S
C442 C444 1.381 . S
C442 C445 1.487 . S
C443 C440 1.382 . S
C443 C444 1.387 . S
C443 H460 0.930 . S
C444 C442 1.381 . S
C444 C443 1.387 . S
C444 H461 0.931 . S
C445 C438 1.399 . S
C445 C442 1.487 . S
C445 N462 1.343 . S
H446 C418 0.931 . S
H447 C420 0.930 . S
H448 C422 0.930 . S
H449 C423 0.931 . S
H450 C425 0.931 . S
H451 C427 0.930 . S
H452 C429 0.930 . S
H453 C430 0.931 . S
H454 C432 0.931 . S
H455 C434 0.930 . S
H456 C436 0.930 . S
H457 C437 0.931 . S
H458 C439 0.931 . S
H459 C441 0.930 . S
H460 C443 0.930 . S
H461 C444 0.931 . S
N462 C424 1.343 . S
N462 C445 1.343 . S
N463 C431 1.343 . S
N463 C438 1.343 . S
C464 C465 1.384 . S
C464 C466 1.384 . S
C464 H492 0.931 . S
C465 C464 1.384 . S
C465 C468 1.382 . S
C466 C464 1.384 . S
C466 C467 1.381 . S
C466 H493 0.930 . S
C467 C466 1.381 . S
C467 C469 1.381 . S
C467 C470 1.487 . S
C468 C465 1.382 . S
C468 C469 1.387 . S
C468 H494 0.930 . S
C469 C467 1.381 . S
C469 C468 1.387 . S
C469 H495 0.931 . S
C470 C467 1.487 . S
C470 C477 1.399 . S
C470 N508 1.343 . S
C471 C472 1.384 . S
C471 C473 1.384 . S
C471 H496 0.931 . S
C472 C471 1.384 . S
C472 C475 1.382 . S
C473 C471 1.384 . S
C473 C474 1.381 . S
C473 H497 0.930 . S
C474 C473 1.381 . S
C474 C476 1.381 . S
C474 C477 1.487 . S
C475 C472 1.382 . S
C475 C476 1.387 . S
C475 H498 0.930 . S
C476 C474 1.381 . S
C476 C475 1.387 . S
C476 H499 0.931 . S
C477 C470 1.399 . S
C477 C474 1.487 . S
C477 N509 1.343 . S
C478 C479 1.384 . S
C478 C480 1.384 . S
C478 H500 0.931 . S
C479 C478 1.384 . S
C479 C482 1.382 . S
C480 C478 1.384 . S
C480 C481 1.381 . S
C480 H501 0.930 . S
C481 C480 1.381 . S
C481 C483 1.381 . S
C481 C484 1.487 . S
C482 C479 1.382 . S
C482 C483 1.387 . S
C482 H502 0.930 . S
C483 C481 1.381 . S
C483 C482 1.387 . S
C483 H503 0.931 . S
C484 C481 1.487 . S
C484 C491 1.399 . S
C484 N509 1.343 . S
C485 C486 1.384 . S
C485 C487 1.384 . S
C485 H504 0.931 . S
C486 C485 1.384 . S
C486 C489 1.382 . S
C487 C485 1.384 . S
C487 C488 1.381 . S
C487 H505 0.930 . S
C488 C487 1.381 . S
C488 C490 1.381 . S
C488 C491 1.487 . S
C489 C486 1.382 . S
C489 C490 1.387 . S
C489 H506 0.930 . S
C490 C488 1.381 . S
C490 C489 1.387 . S
C490 H507 0.931 . S
C491 C484 1.399 . S
C491 C488 1.487 . S
C491 N508 1.343 . S
H492 C464 0.931 . S
H493 C466 0.930 . S
H494 C468 0.930 . S
H495 C469 0.931 . S
H496 C471 0.931 . S
H497 C473 0.930 . S
H498 C475 0.930 . S
H499 C476 0.931 . S
H500 C478 0.931 . S
H501 C480 0.930 . S
H502 C482 0.930 . S
H503 C483 0.931 . S
H504 C485 0.931 . S
H505 C487 0.930 . S
H506 C489 0.930 . S
H507 C490 0.931 . S
N508 C470 1.343 . S
N508 C491 1.343 . S
N509 C477 1.343 . S
N509 C484 1.343 . S
C510 C511 1.384 . S
C510 C512 1.384 . S
C510 H538 0.931 . S
C511 C510 1.384 . S
C511 C514 1.382 . S
C512 C510 1.384 . S
C512 C513 1.381 . S
C512 H539 0.930 . S
C513 C512 1.381 . S
C513 C515 1.381 . S
C513 C516 1.487 . S
C514 C511 1.382 . S
C514 C515 1.387 . S
C514 H540 0.930 . S
C515 C513 1.381 . S
C515 C514 1.387 . S
C515 H541 0.931 . S
C516 C513 1.487 . S
C516 C523 1.399 . S
C516 N554 1.343 . S
C517 C518 1.384 . S
C517 C519 1.384 . S
C517 H542 0.931 . S
C518 C517 1.384 . S
C518 C521 1.382 . S
C519 C517 1.384 . S
C519 C520 1.381 . S
C519 H543 0.930 . S
C520 C519 1.381 . S
C520 C522 1.381 . S
C520 C523 1.487 . S
C521 C518 1.382 . S
C521 C522 1.387 . S
C521 H544 0.930 . S
C522 C520 1.381 . S
C522 C521 1.387 . S
C522 H545 0.931 . S
C523 C516 1.399 . S
C523 C520 1.487 . S
C523 N555 1.343 . S
C524 C525 1.384 . S
C524 C526 1.384 . S
C524 H546 0.931 . S
C525 C524 1.384 . S
C525 C528 1.382 . S
C526 C524 1.384 . S
C526 C527 1.381 . S
C526 H547 0.930 . S
C527 C526 1.381 . S
C527 C529 1.381 . S
C527 C530 1.487 . S
C528 C525 1.382 . S
C528 C529 1.387 . S
C528 H548 0.930 . S
C529 C527 1.381 . S
C529 C528 1.387 . S
C529 H549 0.931 . S
C530 C527 1.487 . S
C530 C537 1.399 . S
C530 N555 1.343 . S
C531 C532 1.384 . S
C531 C533 1.384 . S
C531 H550 0.931 . S
C532 C531 1.384 . S
C532 C535 1.382 . S
C533 C531 1.384 . S
C533 C534 1.381 . S
C533 H551 0.930 . S
C534 C533 1.381 . S
C534 C536 1.381 . S
C534 C537 1.487 . S
C535 C532 1.382 . S
C535 C536 1.387 . S
C535 H552 0.930 . S
C536 C534 1.381 . S
C536 C535 1.387 . S
C536 H553 0.931 . S
C537 C530 1.399 . S
C537 C534 1.487 . S
C537 N554 1.343 . S
H538 C510 0.931 . S
H539 C512 0.930 . S
H540 C514 0.930 . S
H541 C515 0.931 . S
H542 C517 0.931 . S
H543 C519 0.930 . S
H544 C521 0.930 . S
H545 C522 0.931 . S
H546 C524 0.931 . S
H547 C526 0.930 . S
H548 C528 0.930 . S
H549 C529 0.931 . S
H550 C531 0.931 . S
H551 C533 0.930 . S
H552 C535 0.930 . S
H553 C536 0.931 . S
N554 C516 1.343 . S
N554 C537 1.343 . S
N555 C523 1.343 . S
N555 C530 1.343 . S
C556 C557 1.384 . S
C556 C558 1.384 . S
C556 H584 0.931 . S
C557 C556 1.384 . S
C557 C560 1.382 . S
C558 C556 1.384 . S
C558 C559 1.381 . S
C558 H585 0.930 . S
C559 C558 1.381 . S
C559 C561 1.381 . S
C559 C562 1.487 . S
C560 C557 1.382 . S
C560 C561 1.387 . S
C560 H586 0.930 . S
C561 C559 1.381 . S
C561 C560 1.387 . S
C561 H587 0.931 . S
C562 C559 1.487 . S
C562 C569 1.399 . S
C562 N600 1.343 . S
C563 C564 1.384 . S
C563 C565 1.384 . S
C563 H588 0.931 . S
C564 C563 1.384 . S
C564 C567 1.382 . S
C565 C563 1.384 . S
C565 C566 1.381 . S
C565 H589 0.930 . S
C566 C565 1.381 . S
C566 C568 1.381 . S
C566 C569 1.487 . S
C567 C564 1.382 . S
C567 C568 1.387 . S
C567 H590 0.930 . S
C568 C566 1.381 . S
C568 C567 1.387 . S
C568 H591 0.931 . S
C569 C562 1.399 . S
C569 C566 1.487 . S
C569 N601 1.343 . S
C570 C571 1.384 . S
C570 C572 1.384 . S
C570 H592 0.931 . S
C571 C570 1.384 . S
C571 C574 1.382 . S
C572 C570 1.384 . S
C572 C573 1.381 . S
C572 H593 0.930 . S
C573 C572 1.381 . S
C573 C575 1.381 . S
C573 C576 1.487 . S
C574 C571 1.382 . S
C574 C575 1.387 . S
C574 H594 0.930 . S
C575 C573 1.381 . S
C575 C574 1.387 . S
C575 H595 0.931 . S
C576 C573 1.487 . S
C576 C583 1.399 . S
C576 N601 1.343 . S
C577 C578 1.384 . S
C577 C579 1.384 . S
C577 H596 0.931 . S
C578 C577 1.384 . S
C578 C581 1.382 . S
C579 C577 1.384 . S
C579 C580 1.381 . S
C579 H597 0.930 . S
C580 C579 1.381 . S
C580 C582 1.381 . S
C580 C583 1.487 . S
C581 C578 1.382 . S
C581 C582 1.387 . S
C581 H598 0.930 . S
C582 C580 1.381 . S
C582 C581 1.387 . S
C582 H599 0.931 . S
C583 C576 1.399 . S
C583 C580 1.487 . S
C583 N600 1.343 . S
H584 C556 0.931 . S
H585 C558 0.930 . S
H586 C560 0.930 . S
H587 C561 0.931 . S
H588 C563 0.931 . S
H589 C565 0.930 . S
H590 C567 0.930 . S
H591 C568 0.931 . S
H592 C570 0.931 . S
H593 C572 0.930 . S
H594 C574 0.930 . S
H595 C575 0.931 . S
H596 C577 0.931 . S
H597 C579 0.930 . S
H598 C581 0.930 . S
H599 C582 0.931 . S
N600 C562 1.343 . S
N600 C583 1.343 . S
N601 C569 1.343 . S
N601 C576 1.343 . S
C602 C603 1.384 . S
C602 C604 1.384 . S
C602 H630 0.931 . S
C603 C602 1.384 . S
C603 C606 1.382 . S
C604 C602 1.384 . S
C604 C605 1.381 . S
C604 H631 0.930 . S
C605 C604 1.381 . S
C605 C607 1.381 . S
C605 C608 1.487 . S
C606 C603 1.382 . S
C606 C607 1.387 . S
C606 H632 0.930 . S
C607 C605 1.381 . S
C607 C606 1.387 . S
C607 H633 0.931 . S
C608 C605 1.487 . S
C608 C615 1.399 . S
C608 N646 1.343 . S
C609 C610 1.384 . S
C609 C611 1.384 . S
C609 H634 0.931 . S
C610 C609 1.384 . S
C610 C613 1.382 . S
C611 C609 1.384 . S
C611 C612 1.381 . S
C611 H635 0.930 . S
C612 C611 1.381 . S
C612 C614 1.381 . S
C612 C615 1.487 . S
C613 C610 1.382 . S
C613 C614 1.387 . S
C613 H636 0.930 . S
C614 C612 1.381 . S
C614 C613 1.387 . S
C614 H637 0.931 . S
C615 C608 1.399 . S
C615 C612 1.487 . S
C615 N647 1.343 . S
C616 C617 1.384 . S
C616 C618 1.384 . S
C616 H638 0.931 . S
C617 C616 1.384 . S
C617 C620 1.382 . S
C618 C616 1.384 . S
C618 C619 1.381 . S
C618 H639 0.930 . S
C619 C618 1.381 . S
C619 C621 1.381 . S
C619 C622 1.487 . S
C620 C617 1.382 . S
C620 C621 1.387 . S
C620 H640 0.930 . S
C621 C619 1.381 . S
C621 C620 1.387 . S
C621 H641 0.931 . S
C622 C619 1.487 . S
C622 C629 1.399 . S
C622 N647 1.343 . S
C623 C624 1.384 . S
C623 C625 1.384 . S
C623 H642 0.931 . S
C624 C623 1.384 . S
C624 C627 1.382 . S
C625 C623 1.384 . S
C625 C626 1.381 . S
C625 H643 0.930 . S
C626 C625 1.381 . S
C626 C628 1.381 . S
C626 C629 1.487 . S
C627 C624 1.382 . S
C627 C628 1.387 . S
C627 H644 0.930 . S
C628 C626 1.381 . S
C628 C627 1.387 . S
C628 H645 0.931 . S
C629 C622 1.399 . S
C629 C626 1.487 . S
C629 N646 1.343 . S
H630 C602 0.931 . S
H631 C604 0.930 . S
H632 C606 0.930 . S
H633 C607 0.931 . S
H634 C609 0.931 . S
H635 C611 0.930 . S
H636 C613 0.930 . S
H637 C614 0.931 . S
H638 C616 0.931 . S
H639 C618 0.930 . S
H640 C620 0.930 . S
H641 C621 0.931 . S
H642 C623 0.931 . S
H643 C625 0.930 . S
H644 C627 0.930 . S
H645 C628 0.931 . S
N646 C608 1.343 . S
N646 C629 1.343 . S
N647 C615 1.343 . S
N647 C622 1.343 . S
C648 C649 1.384 . S
C648 C650 1.384 . S
C648 H676 0.931 . S
C649 C648 1.384 . S
C649 C652 1.382 1_655 S
C650 C648 1.384 . S
C650 C651 1.391 . S
C650 H677 0.930 . S
C651 C650 1.391 . S
C651 C653 1.376 1_655 S
C651 C654 1.476 1_655 S
C652 C649 1.382 1_455 S
C652 C653 1.387 . S
C652 H678 0.930 . S
C653 C651 1.376 1_455 S
C653 C652 1.387 . S
C653 H679 0.931 . S
C654 C651 1.476 1_455 S
C654 C661 1.399 1_455 S
C654 N692 1.351 . S
C655 C656 1.384 . S
C655 C657 1.384 . S
C655 H680 0.931 . S
C656 C655 1.384 . S
C656 C659 1.382 1_455 S
C657 C655 1.384 . S
C657 C658 1.384 . S
C657 H681 0.930 . S
C658 C657 1.384 . S
C658 C660 1.373 1_455 S
C658 C661 1.496 1_455 S
C659 C656 1.382 1_655 S
C659 C660 1.387 . S
C659 H682 0.930 . S
C660 C658 1.373 1_655 S
C660 C659 1.387 . S
C660 H683 0.931 . S
C661 C654 1.399 1_655 S
C661 C658 1.496 1_655 S
C661 N693 1.364 . S
C662 C663 1.384 . S
C662 C664 1.384 . S
C662 H684 0.931 . S
C663 C662 1.384 . S
C663 C666 1.382 1_455 S
C664 C662 1.384 . S
C664 C665 1.403 . S
C664 H685 0.930 . S
C665 C664 1.403 . S
C665 C667 1.370 1_455 S
C665 C668 1.476 1_455 S
C666 C663 1.382 1_655 S
C666 C667 1.387 . S
C666 H686 0.930 . S
C667 C665 1.370 1_655 S
C667 C666 1.387 . S
C667 H687 0.931 . S
C668 C665 1.476 1_655 S
C668 C675 1.399 1_655 S
C668 N693 1.318 . S
C669 C670 1.384 . S
C669 C671 1.384 . S
C669 H688 0.931 . S
C670 C669 1.384 . S
C670 C673 1.382 1_655 S
C671 C669 1.384 . S
C671 C672 1.382 . S
C671 H689 0.930 . S
C672 C671 1.382 . S
C672 C674 1.380 1_655 S
C672 C675 1.496 1_655 S
C673 C670 1.382 1_455 S
C673 C674 1.387 . S
C673 H690 0.930 . S
C674 C672 1.380 1_455 S
C674 C673 1.387 . S
C674 H691 0.931 . S
C675 C668 1.399 1_455 S
C675 C672 1.496 1_455 S
C675 N692 1.335 . S
H676 C648 0.931 . S
H677 C650 0.930 . S
H678 C652 0.930 . S
H679 C653 0.931 . S
H680 C655 0.931 . S
H681 C657 0.930 . S
H682 C659 0.930 . S
H683 C660 0.931 . S
H684 C662 0.931 . S
H685 C664 0.930 . S
H686 C666 0.930 . S
H687 C667 0.931 . S
H688 C669 0.931 . S
H689 C671 0.930 . S
H690 C673 0.930 . S
H691 C674 0.931 . S
N692 C654 1.351 . S
N692 C675 1.335 . S
N693 C661 1.364 . S
N693 C668 1.318 . S
C694 C695 1.384 . S
C694 C696 1.384 . S
C694 H722 0.931 . S
C695 C694 1.384 . S
C695 C698 1.382 . S
C696 C694 1.384 . S
C696 C697 1.381 . S
C696 H723 0.930 . S
C697 C696 1.381 . S
C697 C699 1.381 . S
C697 C700 1.487 . S
C698 C695 1.382 . S
C698 C699 1.387 . S
C698 H724 0.930 . S
C699 C697 1.381 . S
C699 C698 1.387 . S
C699 H725 0.931 . S
C700 C697 1.487 . S
C700 C707 1.399 . S
C700 N738 1.343 . S
C701 C702 1.384 . S
C701 C703 1.384 . S
C701 H726 0.931 . S
C702 C701 1.384 . S
C702 C705 1.382 . S
C703 C701 1.384 . S
C703 C704 1.381 . S
C703 H727 0.930 . S
C704 C703 1.381 . S
C704 C706 1.381 . S
C704 C707 1.487 . S
C705 C702 1.382 . S
C705 C706 1.387 . S
C705 H728 0.930 . S
C706 C704 1.381 . S
C706 C705 1.387 . S
C706 H729 0.931 . S
C707 C700 1.399 . S
C707 C704 1.487 . S
C707 N739 1.343 . S
C708 C709 1.384 . S
C708 C710 1.384 . S
C708 H730 0.931 . S
C709 C708 1.384 . S
C709 C712 1.382 . S
C710 C708 1.384 . S
C710 C711 1.381 . S
C710 H731 0.930 . S
C711 C710 1.381 . S
C711 C713 1.381 . S
C711 C714 1.487 . S
C712 C709 1.382 . S
C712 C713 1.387 . S
C712 H732 0.930 . S
C713 C711 1.381 . S
C713 C712 1.387 . S
C713 H733 0.931 . S
C714 C711 1.487 . S
C714 C721 1.399 . S
C714 N739 1.343 . S
C715 C716 1.384 . S
C715 C717 1.384 . S
C715 H734 0.931 . S
C716 C715 1.384 . S
C716 C719 1.382 . S
C717 C715 1.384 . S
C717 C718 1.381 . S
C717 H735 0.930 . S
C718 C717 1.381 . S
C718 C720 1.381 . S
C718 C721 1.487 . S
C719 C716 1.382 . S
C719 C720 1.387 . S
C719 H736 0.930 . S
C720 C718 1.381 . S
C720 C719 1.387 . S
C720 H737 0.931 . S
C721 C714 1.399 . S
C721 C718 1.487 . S
C721 N738 1.343 . S
H722 C694 0.931 . S
H723 C696 0.930 . S
H724 C698 0.930 . S
H725 C699 0.931 . S
H726 C701 0.931 . S
H727 C703 0.930 . S
H728 C705 0.930 . S
H729 C706 0.931 . S
H730 C708 0.931 . S
H731 C710 0.930 . S
H732 C712 0.930 . S
H733 C713 0.931 . S
H734 C715 0.931 . S
H735 C717 0.930 . S
H736 C719 0.930 . S
H737 C720 0.931 . S
N738 C700 1.343 . S
N738 C721 1.343 . S
N739 C707 1.343 . S
N739 C714 1.343 . S
C740 C741 1.384 1_545 S
C740 C742 1.384 . S
C740 H768 0.931 . S
C741 C740 1.384 1_565 S
C741 C744 1.382 . S
C742 C740 1.384 . S
C742 C743 1.381 1_545 S
C742 H769 0.930 . S
C743 C742 1.381 1_565 S
C743 C745 1.381 . S
C743 C746 1.487 . S
C744 C741 1.382 . S
C744 C745 1.387 . S
C744 H770 0.930 . S
C745 C743 1.381 . S
C745 C744 1.387 . S
C745 H771 0.931 . S
C746 C743 1.487 . S
C746 C753 1.399 1_565 S
C746 N784 1.343 . S
C747 C748 1.384 1_565 S
C747 C749 1.384 . S
C747 H772 0.931 . S
C748 C747 1.384 1_545 S
C748 C751 1.382 . S
C749 C747 1.384 . S
C749 C750 1.381 1_565 S
C749 H773 0.930 . S
C750 C749 1.381 1_545 S
C750 C752 1.381 . S
C750 C753 1.487 . S
C751 C748 1.382 . S
C751 C752 1.387 . S
C751 H774 0.930 . S
C752 C750 1.381 . S
C752 C751 1.387 . S
C752 H775 0.931 . S
C753 C746 1.399 1_545 S
C753 C750 1.487 . S
C753 N785 1.343 . S
C754 C755 1.384 1_565 S
C754 C756 1.384 . S
C754 H776 0.931 . S
C755 C754 1.384 1_545 S
C755 C758 1.382 . S
C756 C754 1.384 . S
C756 C757 1.381 1_565 S
C756 H777 0.930 . S
C757 C756 1.381 1_545 S
C757 C759 1.381 . S
C757 C760 1.487 . S
C758 C755 1.382 . S
C758 C759 1.387 . S
C758 H778 0.930 . S
C759 C757 1.381 . S
C759 C758 1.387 . S
C759 H779 0.931 . S
C760 C757 1.487 . S
C760 C767 1.399 1_545 S
C760 N785 1.343 . S
C761 C762 1.384 1_545 S
C761 C763 1.384 . S
C761 H780 0.931 . S
C762 C761 1.384 1_565 S
C762 C765 1.382 . S
C763 C761 1.384 . S
C763 C764 1.381 1_545 S
C763 H781 0.930 . S
C764 C763 1.381 1_565 S
C764 C766 1.381 . S
C764 C767 1.487 . S
C765 C762 1.382 . S
C765 C766 1.387 . S
C765 H782 0.930 . S
C766 C764 1.381 . S
C766 C765 1.387 . S
C766 H783 0.931 . S
C767 C760 1.399 1_565 S
C767 C764 1.487 . S
C767 N784 1.343 . S
H768 C740 0.931 . S
H769 C742 0.930 . S
H770 C744 0.930 . S
H771 C745 0.931 . S
H772 C747 0.931 . S
H773 C749 0.930 . S
H774 C751 0.930 . S
H775 C752 0.931 . S
H776 C754 0.931 . S
H777 C756 0.930 . S
H778 C758 0.930 . S
H779 C759 0.931 . S
H780 C761 0.931 . S
H781 C763 0.930 . S
H782 C765 0.930 . S
H783 C766 0.931 . S
N784 C746 1.343 . S
N784 C767 1.343 . S
N785 C753 1.343 . S
N785 C760 1.343 . S
C786 C787 1.384 . S
C786 C788 1.384 . S
C786 H814 0.931 . S
C787 C786 1.384 . S
C787 C790 1.382 1_545 S
C788 C786 1.384 . S
C788 C789 1.384 . S
C788 H815 0.930 . S
C789 C788 1.384 . S
C789 C791 1.374 1_545 S
C789 C792 1.496 1_545 S
C790 C787 1.382 1_565 S
C790 C791 1.387 . S
C790 H816 0.930 . S
C791 C789 1.374 1_565 S
C791 C790 1.387 . S
C791 H817 0.931 . S
C792 C789 1.496 1_565 S
C792 C799 1.399 1_565 S
C792 N830 1.364 . S
C793 C794 1.384 . S
C793 C795 1.384 . S
C793 H818 0.931 . S
C794 C793 1.384 . S
C794 C797 1.382 1_565 S
C795 C793 1.384 . S
C795 C796 1.392 . S
C795 H819 0.930 . S
C796 C795 1.392 . S
C796 C798 1.376 1_565 S
C796 C799 1.476 1_565 S
C797 C794 1.382 1_545 S
C797 C798 1.387 . S
C797 H820 0.930 . S
C798 C796 1.376 1_545 S
C798 C797 1.387 . S
C798 H821 0.931 . S
C799 C792 1.399 1_545 S
C799 C796 1.476 1_545 S
C799 N831 1.351 . S
C800 C801 1.384 . S
C800 C802 1.384 . S
C800 H822 0.931 . S
C801 C800 1.384 . S
C801 C804 1.382 1_565 S
C802 C800 1.384 . S
C802 C803 1.381 . S
C802 H823 0.930 . S
C803 C802 1.381 . S
C803 C805 1.381 1_565 S
C803 C806 1.496 1_565 S
C804 C801 1.382 1_545 S
C804 C805 1.387 . S
C804 H824 0.930 . S
C805 C803 1.381 1_545 S
C805 C804 1.387 . S
C805 H825 0.931 . S
C806 C803 1.496 1_545 S
C806 C813 1.399 1_545 S
C806 N831 1.335 . S
C807 C808 1.384 . S
C807 C809 1.384 . S
C807 H826 0.931 . S
C808 C807 1.384 . S
C808 C811 1.382 1_545 S
C809 C807 1.384 . S
C809 C810 1.404 . S
C809 H827 0.930 . S
C810 C809 1.404 . S
C810 C812 1.369 1_545 S
C810 C813 1.476 1_545 S
C811 C808 1.382 1_565 S
C811 C812 1.387 . S
C811 H828 0.930 . S
C812 C810 1.369 1_565 S
C812 C811 1.387 . S
C812 H829 0.931 . S
C813 C806 1.399 1_565 S
C813 C810 1.476 1_565 S
C813 N830 1.318 . S
H814 C786 0.931 . S
H815 C788 0.930 . S
H816 C790 0.930 . S
H817 C791 0.931 . S
H818 C793 0.931 . S
H819 C795 0.930 . S
H820 C797 0.930 . S
H821 C798 0.931 . S
H822 C800 0.931 . S
H823 C802 0.930 . S
H824 C804 0.930 . S
H825 C805 0.931 . S
H826 C807 0.931 . S
H827 C809 0.930 . S
H828 C811 0.930 . S
H829 C812 0.931 . S
N830 C792 1.364 . S
N830 C813 1.318 . S
N831 C799 1.351 . S
N831 C806 1.335 . S
C832 C833 1.384 . S
C832 C834 1.384 . S
C832 H860 0.931 . S
C833 C832 1.384 . S
C833 C836 1.382 1_655 S
C834 C832 1.384 . S
C834 C835 1.406 . S
C834 H861 0.930 . S
C835 C834 1.406 . S
C835 C837 1.369 1_655 S
C835 C838 1.475 1_655 S
C836 C833 1.382 1_455 S
C836 C837 1.387 . S
C836 H862 0.930 . S
C837 C835 1.369 1_455 S
C837 C836 1.387 . S
C837 H863 0.931 . S
C838 C835 1.475 1_455 S
C838 C845 1.399 1_455 S
C838 N876 1.319 . S
C839 C840 1.384 . S
C839 C841 1.384 . S
C839 H864 0.931 . S
C840 C839 1.384 . S
C840 C843 1.382 1_455 S
C841 C839 1.384 . S
C841 C842 1.382 . S
C841 H865 0.930 . S
C842 C841 1.382 . S
C842 C844 1.379 1_455 S
C842 C845 1.496 1_455 S
C843 C840 1.382 1_655 S
C843 C844 1.387 . S
C843 H866 0.930 . S
C844 C842 1.379 1_655 S
C844 C843 1.387 . S
C844 H867 0.931 . S
C845 C838 1.399 1_655 S
C845 C842 1.496 1_655 S
C845 N877 1.335 . S
C846 C847 1.384 . S
C846 C848 1.384 . S
C846 H868 0.931 . S
C847 C846 1.384 . S
C847 C850 1.382 1_455 S
C848 C846 1.384 . S
C848 C849 1.393 . S
C848 H869 0.930 . S
C849 C848 1.393 . S
C849 C851 1.375 1_455 S
C849 C852 1.475 1_455 S
C850 C847 1.382 1_655 S
C850 C851 1.387 . S
C850 H870 0.930 . S
C851 C849 1.375 1_655 S
C851 C850 1.387 . S
C851 H871 0.931 . S
C852 C849 1.475 1_655 S
C852 C859 1.399 1_655 S
C852 N877 1.350 . S
C853 C854 1.384 . S
C853 C855 1.384 . S
C853 H872 0.931 . S
C854 C853 1.384 . S
C854 C857 1.382 1_655 S
C855 C853 1.384 . S
C855 C856 1.385 . S
C855 H873 0.930 . S
C856 C855 1.385 . S
C856 C858 1.371 1_655 S
C856 C859 1.496 1_655 S
C857 C854 1.382 1_455 S
C857 C858 1.387 . S
C857 H874 0.930 . S
C858 C856 1.371 1_455 S
C858 C857 1.387 . S
C858 H875 0.931 . S
C859 C852 1.399 1_455 S
C859 C856 1.496 1_455 S
C859 N876 1.364 . S
H860 C832 0.931 . S
H861 C834 0.930 . S
H862 C836 0.930 . S
H863 C837 0.931 . S
H864 C839 0.931 . S
H865 C841 0.930 . S
H866 C843 0.930 . S
H867 C844 0.931 . S
H868 C846 0.931 . S
H869 C848 0.930 . S
H870 C850 0.930 . S
H871 C851 0.931 . S
H872 C853 0.931 . S
H873 C855 0.930 . S
H874 C857 0.930 . S
H875 C858 0.931 . S
N876 C838 1.319 . S
N876 C859 1.364 . S
N877 C845 1.335 . S
N877 C852 1.350 . S
C878 C879 1.384 . S
C878 C880 1.384 . S
C878 H906 0.931 . S
C879 C878 1.384 . S
C879 C882 1.382 . S
C880 C878 1.384 . S
C880 C881 1.381 . S
C880 H907 0.930 . S
C881 C880 1.381 . S
C881 C883 1.381 . S
C881 C884 1.487 . S
C882 C879 1.382 . S
C882 C883 1.387 . S
C882 H908 0.930 . S
C883 C881 1.381 . S
C883 C882 1.387 . S
C883 H909 0.931 . S
C884 C881 1.487 . S
C884 C891 1.399 . S
C884 N922 1.343 . S
C885 C886 1.384 . S
C885 C887 1.384 . S
C885 H910 0.931 . S
C886 C885 1.384 . S
C886 C889 1.382 . S
C887 C885 1.384 . S
C887 C888 1.381 . S
C887 H911 0.930 . S
C888 C887 1.381 . S
C888 C890 1.381 . S
C888 C891 1.487 . S
C889 C886 1.382 . S
C889 C890 1.387 . S
C889 H912 0.930 . S
C890 C888 1.381 . S
C890 C889 1.387 . S
C890 H913 0.931 . S
C891 C884 1.399 . S
C891 C888 1.487 . S
C891 N923 1.343 . S
C892 C893 1.384 . S
C892 C894 1.384 . S
C892 H914 0.931 . S
C893 C892 1.384 . S
C893 C896 1.382 . S
C894 C892 1.384 . S
C894 C895 1.381 . S
C894 H915 0.930 . S
C895 C894 1.381 . S
C895 C897 1.381 . S
C895 C898 1.487 . S
C896 C893 1.382 . S
C896 C897 1.387 . S
C896 H916 0.930 . S
C897 C895 1.381 . S
C897 C896 1.387 . S
C897 H917 0.931 . S
C898 C895 1.487 . S
C898 C905 1.399 . S
C898 N923 1.343 . S
C899 C900 1.384 . S
C899 C901 1.384 . S
C899 H918 0.931 . S
C900 C899 1.384 . S
C900 C903 1.382 . S
C901 C899 1.384 . S
C901 C902 1.381 . S
C901 H919 0.930 . S
C902 C901 1.381 . S
C902 C904 1.381 . S
C902 C905 1.487 . S
C903 C900 1.382 . S
C903 C904 1.387 . S
C903 H920 0.930 . S
C904 C902 1.381 . S
C904 C903 1.387 . S
C904 H921 0.931 . S
C905 C898 1.399 . S
C905 C902 1.487 . S
C905 N922 1.343 . S
H906 C878 0.931 . S
H907 C880 0.930 . S
H908 C882 0.930 . S
H909 C883 0.931 . S
H910 C885 0.931 . S
H911 C887 0.930 . S
H912 C889 0.930 . S
H913 C890 0.931 . S
H914 C892 0.931 . S
H915 C894 0.930 . S
H916 C896 0.930 . S
H917 C897 0.931 . S
H918 C899 0.931 . S
H919 C901 0.930 . S
H920 C903 0.930 . S
H921 C904 0.931 . S
N922 C884 1.343 . S
N922 C905 1.343 . S
N923 C891 1.343 . S
N923 C898 1.343 . S
C924 C925 1.384 . S
C924 C926 1.384 . S
C924 H952 0.931 . S
C925 C924 1.384 . S
C925 C928 1.382 . S
C926 C924 1.384 . S
C926 C927 1.381 . S
C926 H953 0.930 . S
C927 C926 1.381 . S
C927 C929 1.381 . S
C927 C930 1.487 . S
C928 C925 1.382 . S
C928 C929 1.387 . S
C928 H954 0.930 . S
C929 C927 1.381 . S
C929 C928 1.387 . S
C929 H955 0.931 . S
C930 C927 1.487 . S
C930 C937 1.399 . S
C930 N968 1.343 . S
C931 C932 1.384 . S
C931 C933 1.384 . S
C931 H956 0.931 . S
C932 C931 1.384 . S
C932 C935 1.382 . S
C933 C931 1.384 . S
C933 C934 1.381 . S
C933 H957 0.930 . S
C934 C933 1.381 . S
C934 C936 1.381 . S
C934 C937 1.487 . S
C935 C932 1.382 . S
C935 C936 1.387 . S
C935 H958 0.930 . S
C936 C934 1.381 . S
C936 C935 1.387 . S
C936 H959 0.931 . S
C937 C930 1.399 . S
C937 C934 1.487 . S
C937 N969 1.343 . S
C938 C939 1.384 . S
C938 C940 1.384 . S
C938 H960 0.931 . S
C939 C938 1.384 . S
C939 C942 1.382 . S
C940 C938 1.384 . S
C940 C941 1.381 . S
C940 H961 0.930 . S
C941 C940 1.381 . S
C941 C943 1.381 . S
C941 C944 1.487 . S
C942 C939 1.382 . S
C942 C943 1.387 . S
C942 H962 0.930 . S
C943 C941 1.381 . S
C943 C942 1.387 . S
C943 H963 0.931 . S
C944 C941 1.487 . S
C944 C951 1.399 . S
C944 N969 1.343 . S
C945 C946 1.384 . S
C945 C947 1.384 . S
C945 H964 0.931 . S
C946 C945 1.384 . S
C946 C949 1.382 . S
C947 C945 1.384 . S
C947 C948 1.381 . S
C947 H965 0.930 . S
C948 C947 1.381 . S
C948 C950 1.381 . S
C948 C951 1.487 . S
C949 C946 1.382 . S
C949 C950 1.387 . S
C949 H966 0.930 . S
C950 C948 1.381 . S
C950 C949 1.387 . S
C950 H967 0.931 . S
C951 C944 1.399 . S
C951 C948 1.487 . S
C951 N968 1.343 . S
H952 C924 0.931 . S
H953 C926 0.930 . S
H954 C928 0.930 . S
H955 C929 0.931 . S
H956 C931 0.931 . S
H957 C933 0.930 . S
H958 C935 0.930 . S
H959 C936 0.931 . S
H960 C938 0.931 . S
H961 C940 0.930 . S
H962 C942 0.930 . S
H963 C943 0.931 . S
H964 C945 0.931 . S
H965 C947 0.930 . S
H966 C949 0.930 . S
H967 C950 0.931 . S
N968 C930 1.343 . S
N968 C951 1.343 . S
N969 C937 1.343 . S
N969 C944 1.343 . S
C970 C971 1.384 . S
C970 C972 1.384 . S
C970 H998 0.931 . S
C971 C970 1.384 . S
C971 C974 1.382 . S
C972 C970 1.384 . S
C972 C973 1.381 . S
C972 H999 0.930 . S
C973 C972 1.381 . S
C973 C975 1.381 . S
C973 C976 1.487 . S
C974 C971 1.382 . S
C974 C975 1.387 . S
C974 H1000 0.930 . S
C975 C973 1.381 . S
C975 C974 1.387 . S
C975 H1001 0.931 . S
C976 C973 1.487 . S
C976 C983 1.399 . S
C976 N1014 1.343 . S
C977 C978 1.384 . S
C977 C979 1.384 . S
C977 H1002 0.931 . S
C978 C977 1.384 . S
C978 C981 1.382 . S
C979 C977 1.384 . S
C979 C980 1.381 . S
C979 H1003 0.930 . S
C980 C979 1.381 . S
C980 C982 1.381 . S
C980 C983 1.487 . S
C981 C978 1.382 . S
C981 C982 1.387 . S
C981 H1004 0.930 . S
C982 C980 1.381 . S
C982 C981 1.387 . S
C982 H1005 0.931 . S
C983 C976 1.399 . S
C983 C980 1.487 . S
C983 N1015 1.343 . S
C984 C985 1.384 . S
C984 C986 1.384 . S
C984 H1006 0.931 . S
C985 C984 1.384 . S
C985 C988 1.382 . S
C986 C984 1.384 . S
C986 C987 1.381 . S
C986 H1007 0.930 . S
C987 C986 1.381 . S
C987 C989 1.381 . S
C987 C990 1.487 . S
C988 C985 1.382 . S
C988 C989 1.387 . S
C988 H1008 0.930 . S
C989 C987 1.381 . S
C989 C988 1.387 . S
C989 H1009 0.931 . S
C990 C987 1.487 . S
C990 C997 1.399 . S
C990 N1015 1.343 . S
C991 C992 1.384 . S
C991 C993 1.384 . S
C991 H1010 0.931 . S
C992 C991 1.384 . S
C992 C995 1.382 . S
C993 C991 1.384 . S
C993 C994 1.381 . S
C993 H1011 0.930 . S
C994 C993 1.381 . S
C994 C996 1.381 . S
C994 C997 1.487 . S
C995 C992 1.382 . S
C995 C996 1.387 . S
C995 H1012 0.930 . S
C996 C994 1.381 . S
C996 C995 1.387 . S
C996 H1013 0.931 . S
C997 C990 1.399 . S
C997 C994 1.487 . S
C997 N1014 1.343 . S
H998 C970 0.931 . S
H999 C972 0.930 . S
H1000 C974 0.930 . S
H1001 C975 0.931 . S
H1002 C977 0.931 . S
H1003 C979 0.930 . S
H1004 C981 0.930 . S
H1005 C982 0.931 . S
H1006 C984 0.931 . S
H1007 C986 0.930 . S
H1008 C988 0.930 . S
H1009 C989 0.931 . S
H1010 C991 0.931 . S
H1011 C993 0.930 . S
H1012 C995 0.930 . S
H1013 C996 0.931 . S
N1014 C976 1.343 . S
N1014 C997 1.343 . S
N1015 C983 1.343 . S
N1015 C990 1.343 . S
C1016 C1017 1.384 . S
C1016 C1018 1.384 . S
C1016 H1044 0.931 . S
C1017 C1016 1.384 . S
C1017 C1020 1.382 . S
C1018 C1016 1.384 . S
C1018 C1019 1.381 . S
C1018 H1045 0.930 . S
C1019 C1018 1.381 . S
C1019 C1021 1.381 . S
C1019 C1022 1.487 . S
C1020 C1017 1.382 . S
C1020 C1021 1.387 . S
C1020 H1046 0.930 . S
C1021 C1019 1.381 . S
C1021 C1020 1.387 . S
C1021 H1047 0.931 . S
C1022 C1019 1.487 . S
C1022 C1029 1.399 . S
C1022 N1060 1.343 . S
C1023 C1024 1.384 . S
C1023 C1025 1.384 . S
C1023 H1048 0.931 . S
C1024 C1023 1.384 . S
C1024 C1027 1.382 . S
C1025 C1023 1.384 . S
C1025 C1026 1.381 . S
C1025 H1049 0.930 . S
C1026 C1025 1.381 . S
C1026 C1028 1.381 . S
C1026 C1029 1.487 . S
C1027 C1024 1.382 . S
C1027 C1028 1.387 . S
C1027 H1050 0.930 . S
C1028 C1026 1.381 . S
C1028 C1027 1.387 . S
C1028 H1051 0.931 . S
C1029 C1022 1.399 . S
C1029 C1026 1.487 . S
C1029 N1061 1.343 . S
C1030 C1031 1.384 . S
C1030 C1032 1.384 . S
C1030 H1052 0.931 . S
C1031 C1030 1.384 . S
C1031 C1034 1.382 . S
C1032 C1030 1.384 . S
C1032 C1033 1.381 . S
C1032 H1053 0.930 . S
C1033 C1032 1.381 . S
C1033 C1035 1.381 . S
C1033 C1036 1.487 . S
C1034 C1031 1.382 . S
C1034 C1035 1.387 . S
C1034 H1054 0.930 . S
C1035 C1033 1.381 . S
C1035 C1034 1.387 . S
C1035 H1055 0.931 . S
C1036 C1033 1.487 . S
C1036 C1043 1.399 . S
C1036 N1061 1.343 . S
C1037 C1038 1.384 . S
C1037 C1039 1.384 . S
C1037 H1056 0.931 . S
C1038 C1037 1.384 . S
C1038 C1041 1.382 . S
C1039 C1037 1.384 . S
C1039 C1040 1.381 . S
C1039 H1057 0.930 . S
C1040 C1039 1.381 . S
C1040 C1042 1.381 . S
C1040 C1043 1.487 . S
C1041 C1038 1.382 . S
C1041 C1042 1.387 . S
C1041 H1058 0.930 . S
C1042 C1040 1.381 . S
C1042 C1041 1.387 . S
C1042 H1059 0.931 . S
C1043 C1036 1.399 . S
C1043 C1040 1.487 . S
C1043 N1060 1.343 . S
H1044 C1016 0.931 . S
H1045 C1018 0.930 . S
H1046 C1020 0.930 . S
H1047 C1021 0.931 . S
H1048 C1023 0.931 . S
H1049 C1025 0.930 . S
H1050 C1027 0.930 . S
H1051 C1028 0.931 . S
H1052 C1030 0.931 . S
H1053 C1032 0.930 . S
H1054 C1034 0.930 . S
H1055 C1035 0.931 . S
H1056 C1037 0.931 . S
H1057 C1039 0.930 . S
H1058 C1041 0.930 . S
H1059 C1042 0.931 . S
N1060 C1022 1.343 . S
N1060 C1043 1.343 . S
N1061 C1029 1.343 . S
N1061 C1036 1.343 . S
C1062 C1063 1.369 . S
C1062 C1064 1.419 . S
C1062 H1066 0.930 . S
C1063 C1062 1.369 . S
C1063 C1072 1.429 1_655 S
C1064 C1062 1.419 . S
C1064 C1065 1.363 . S
C1064 H1067 0.929 . S
C1065 C1064 1.363 . S
C1065 C1071 1.428 1_655 S
H1066 C1062 0.930 . S
H1067 C1064 0.929 . S
S1068 N1069 1.613 . S
S1068 N1070 1.610 . S
N1069 S1068 1.613 . S
N1069 C1072 1.350 . S
N1070 S1068 1.610 . S
N1070 C1071 1.351 . S
C1071 C1065 1.428 1_455 S
C1071 N1070 1.351 . S
C1071 C1072 1.434 . S
C1072 C1063 1.429 1_455 S
C1072 N1069 1.350 . S
C1072 C1071 1.434 . S
C1073 C1074 1.369 . S
C1073 C1075 1.419 . S
C1073 H1077 0.930 . S
C1074 C1073 1.369 . S
C1074 C1083 1.429 . S
C1075 C1073 1.419 . S
C1075 C1076 1.363 . S
C1075 H1078 0.929 . S
C1076 C1075 1.363 . S
C1076 C1082 1.428 . S
H1077 C1073 0.930 . S
H1078 C1075 0.929 . S
S1079 N1080 1.613 . S
S1079 N1081 1.610 . S
N1080 S1079 1.613 . S
N1080 C1083 1.350 . S
N1081 S1079 1.610 . S
N1081 C1082 1.351 . S
C1082 C1076 1.428 . S
C1082 N1081 1.351 . S
C1082 C1083 1.434 . S
C1083 C1074 1.429 . S
C1083 N1080 1.350 . S
C1083 C1082 1.434 . S
C1084 C1085 1.369 . S
C1084 C1086 1.419 . S
C1084 H1088 0.917 1_545 S
C1085 C1084 1.369 . S
C1085 C1094 1.429 . S
C1086 C1084 1.419 . S
C1086 C1087 1.363 . S
C1086 H1089 0.939 . S
C1087 C1086 1.363 . S
C1087 C1093 1.428 . S
H1088 C1084 0.917 1_565 S
H1089 C1086 0.939 . S
S1090 N1091 1.613 . S
S1090 N1092 1.610 . S
N1091 S1090 1.613 . S
N1091 C1094 1.350 . S
N1092 S1090 1.610 . S
N1092 C1093 1.351 . S
C1093 C1087 1.428 . S
C1093 N1092 1.351 . S
C1093 C1094 1.434 . S
C1094 C1085 1.429 . S
C1094 N1091 1.350 . S
C1094 C1093 1.434 . S
C1095 C1096 1.369 . S
C1095 C1097 1.419 . S
C1095 H1099 0.930 . S
C1096 C1095 1.369 . S
C1096 C1105 1.429 1_565 S
C1097 C1095 1.419 . S
C1097 C1098 1.363 . S
C1097 H1100 0.929 . S
C1098 C1097 1.363 . S
C1098 C1104 1.428 1_565 S
H1099 C1095 0.930 . S
H1100 C1097 0.929 . S
S1101 N1102 1.613 . S
S1101 N1103 1.610 . S
N1102 S1101 1.613 . S
N1102 C1105 1.350 . S
N1103 S1101 1.610 . S
N1103 C1104 1.351 . S
C1104 C1098 1.428 1_545 S
C1104 N1103 1.351 . S
C1104 C1105 1.434 . S
C1105 C1096 1.429 1_545 S
C1105 N1102 1.350 . S
C1105 C1104 1.434 . S
C1106 C1107 1.369 1_655 S
C1106 C1108 1.419 . S
C1106 H1110 0.930 . S
C1107 C1106 1.369 1_455 S
C1107 C1116 1.429 . S
C1108 C1106 1.419 . S
C1108 C1109 1.363 1_655 S
C1108 H1111 0.929 . S
C1109 C1108 1.363 1_455 S
C1109 C1115 1.428 . S
H1110 C1106 0.930 . S
H1111 C1108 0.929 . S
S1112 N1113 1.613 . S
S1112 N1114 1.610 . S
N1113 S1112 1.613 . S
N1113 C1116 1.350 . S
N1114 S1112 1.610 . S
N1114 C1115 1.351 . S
C1115 C1109 1.428 . S
C1115 N1114 1.351 . S
C1115 C1116 1.434 . S
C1116 C1107 1.429 . S
C1116 N1113 1.350 . S
C1116 C1115 1.434 . S
C1117 C1118 1.369 . S
C1117 C1119 1.419 . S
C1117 H1121 0.930 . S
C1118 C1117 1.369 . S
C1118 C1127 1.429 . S
C1119 C1117 1.419 . S
C1119 C1120 1.363 . S
C1119 H1122 0.929 . S
C1120 C1119 1.363 . S
C1120 C1126 1.428 . S
H1121 C1117 0.930 . S
H1122 C1119 0.929 . S
S1123 N1124 1.613 . S
S1123 N1125 1.610 . S
N1124 S1123 1.613 . S
N1124 C1127 1.350 . S
N1125 S1123 1.610 . S
N1125 C1126 1.351 . S
C1126 C1120 1.428 . S
C1126 N1125 1.351 . S
C1126 C1127 1.434 . S
C1127 C1118 1.429 . S
C1127 N1124 1.350 . S
C1127 C1126 1.434 . S
C1128 C1129 1.369 . S
C1128 C1130 1.419 . S
C1128 H1132 0.930 . S
C1129 C1128 1.369 . S
C1129 C1138 1.450 1_455 S
C1130 C1128 1.419 . S
C1130 C1131 1.363 . S
C1130 H1133 0.929 . S
C1131 C1130 1.363 . S
C1131 C1137 1.429 1_455 S
H1132 C1128 0.930 . S
H1133 C1130 0.929 . S
S1134 N1135 1.613 . S
S1134 N1136 1.610 . S
N1135 S1134 1.613 . S
N1135 C1138 1.345 . S
N1136 S1134 1.610 . S
N1136 C1137 1.342 . S
C1137 C1131 1.429 1_655 S
C1137 N1136 1.342 . S
C1137 C1138 1.423 . S
C1138 C1129 1.450 1_655 S
C1138 N1135 1.345 . S
C1138 C1137 1.423 . S
C1139 C1140 1.369 . S
C1139 C1141 1.419 . S
C1139 H1143 0.930 . S
C1140 C1139 1.369 . S
C1140 C1149 1.429 . S
C1141 C1139 1.419 . S
C1141 C1142 1.363 . S
C1141 H1144 0.929 . S
C1142 C1141 1.363 . S
C1142 C1148 1.428 . S
H1143 C1139 0.930 . S
H1144 C1141 0.929 . S
S1145 N1146 1.613 . S
S1145 N1147 1.610 . S
N1146 S1145 1.613 . S
N1146 C1149 1.350 . S
N1147 S1145 1.610 . S
N1147 C1148 1.351 . S
C1148 C1142 1.428 . S
C1148 N1147 1.351 . S
C1148 C1149 1.434 . S
C1149 C1140 1.429 . S
C1149 N1146 1.350 . S
C1149 C1148 1.434 . S
C1150 C1151 1.369 . S
C1150 C1152 1.419 . S
C1150 H1154 0.930 . S
C1151 C1150 1.369 . S
C1151 C1160 1.429 1_565 S
C1152 C1150 1.419 . S
C1152 C1153 1.363 . S
C1152 H1155 0.929 . S
C1153 C1152 1.363 . S
C1153 C1159 1.428 1_565 S
H1154 C1150 0.930 . S
H1155 C1152 0.929 . S
S1156 N1157 1.613 . S
S1156 N1158 1.610 . S
N1157 S1156 1.613 . S
N1157 C1160 1.350 . S
N1158 S1156 1.610 . S
N1158 C1159 1.351 . S
C1159 C1153 1.428 1_545 S
C1159 N1158 1.351 . S
C1159 C1160 1.434 . S
C1160 C1151 1.429 1_545 S
C1160 N1157 1.350 . S
C1160 C1159 1.434 . S
C1161 C1162 1.369 1_565 S
C1161 C1163 1.419 . S
C1161 H1165 0.930 . S
C1162 C1161 1.369 1_545 S
C1162 C1171 1.429 . S
C1163 C1161 1.419 . S
C1163 C1164 1.363 1_565 S
C1163 H1166 0.929 . S
C1164 C1163 1.363 1_545 S
C1164 C1170 1.428 . S
H1165 C1161 0.930 . S
H1166 C1163 0.929 . S
S1167 N1168 1.613 . S
S1167 N1169 1.610 . S
N1168 S1167 1.613 . S
N1168 C1171 1.350 . S
N1169 S1167 1.610 . S
N1169 C1170 1.351 . S
C1170 C1164 1.428 . S
C1170 N1169 1.351 . S
C1170 C1171 1.434 . S
C1171 C1162 1.429 . S
C1171 N1168 1.350 . S
C1171 C1170 1.434 . S
C1172 C1173 1.369 . S
C1172 C1174 1.419 . S
C1172 H1176 0.930 . S
C1173 C1172 1.369 . S
C1173 C1182 1.429 . S
C1174 C1172 1.419 . S
C1174 C1175 1.363 . S
C1174 H1177 0.929 . S
C1175 C1174 1.363 . S
C1175 C1181 1.428 . S
H1176 C1172 0.930 . S
H1177 C1174 0.929 . S
S1178 N1179 1.589 . S
S1178 N1180 1.610 . S
N1179 S1178 1.589 . S
N1179 C1182 1.363 . S
N1180 S1178 1.610 . S
N1180 C1181 1.351 . S
C1181 C1175 1.428 . S
C1181 N1180 1.351 . S
C1181 C1182 1.434 . S
C1182 C1173 1.429 . S
C1182 N1179 1.363 . S
C1182 C1181 1.434 . S
C1183 C1184 1.369 . S
C1183 C1185 1.419 . S
C1183 H1187 0.930 . S
C1184 C1183 1.369 . S
C1184 C1193 1.429 . S
C1185 C1183 1.419 . S
C1185 C1186 1.363 . S
C1185 H1188 0.929 . S
C1186 C1185 1.363 . S
C1186 C1192 1.428 . S
H1187 C1183 0.930 . S
H1188 C1185 0.929 . S
S1189 N1190 1.613 . S
S1189 N1191 1.610 . S
N1190 S1189 1.613 . S
N1190 C1193 1.350 . S
N1191 S1189 1.610 . S
N1191 C1192 1.351 . S
C1192 C1186 1.428 . S
C1192 N1191 1.351 . S
C1192 C1193 1.434 . S
C1193 C1184 1.429 . S
C1193 N1190 1.350 . S
C1193 C1192 1.434 . S
C1194 C1195 1.369 . S
C1194 C1196 1.419 . S
C1194 H1198 0.930 . S
C1195 C1194 1.369 . S
C1195 C1204 1.429 . S
C1196 C1194 1.419 . S
C1196 C1197 1.363 . S
C1196 H1199 0.929 . S
C1197 C1196 1.363 . S
C1197 C1203 1.428 . S
H1198 C1194 0.930 . S
H1199 C1196 0.929 . S
S1200 N1201 1.613 . S
S1200 N1202 1.610 . S
N1201 S1200 1.613 . S
N1201 C1204 1.350 . S
N1202 S1200 1.610 . S
N1202 C1203 1.351 . S
C1203 C1197 1.428 . S
C1203 N1202 1.351 . S
C1203 C1204 1.434 . S
C1204 C1195 1.429 . S
C1204 N1201 1.350 . S
C1204 C1203 1.434 . S
C1205 C1206 1.369 . S
C1205 C1207 1.419 . S
C1205 H1209 0.930 . S
C1206 C1205 1.369 . S
C1206 C1215 1.429 . S
C1207 C1205 1.419 . S
C1207 C1208 1.363 . S
C1207 H1210 0.929 . S
C1208 C1207 1.363 . S
C1208 C1214 1.428 . S
H1209 C1205 0.930 . S
H1210 C1207 0.929 . S
S1211 N1212 1.613 . S
S1211 N1213 1.610 . S
N1212 S1211 1.613 . S
N1212 C1215 1.350 . S
N1213 S1211 1.610 . S
N1213 C1214 1.351 . S
C1214 C1208 1.428 . S
C1214 N1213 1.351 . S
C1214 C1215 1.434 . S
C1215 C1206 1.429 . S
C1215 N1212 1.350 . S
C1215 C1214 1.434 . S
C1216 C1217 1.369 . S
C1216 C1218 1.419 . S
C1216 H1220 0.930 . S
C1217 C1216 1.369 . S
C1217 C1226 1.429 . S
C1218 C1216 1.419 . S
C1218 C1219 1.363 . S
C1218 H1221 0.929 . S
C1219 C1218 1.363 . S
C1219 C1225 1.428 . S
H1220 C1216 0.930 . S
H1221 C1218 0.929 . S
S1222 N1223 1.613 . S
S1222 N1224 1.610 . S
N1223 S1222 1.613 . S
N1223 C1226 1.350 . S
N1224 S1222 1.610 . S
N1224 C1225 1.351 . S
C1225 C1219 1.428 . S
C1225 N1224 1.351 . S
C1225 C1226 1.434 . S
C1226 C1217 1.429 . S
C1226 N1223 1.350 . S
C1226 C1225 1.434 . S
C1227 C1228 1.369 . S
C1227 C1229 1.419 . S
C1227 H1231 0.930 . S
C1228 C1227 1.369 . S
C1228 C1237 1.429 . S
C1229 C1227 1.419 . S
C1229 C1230 1.363 . S
C1229 H1232 0.929 . S
C1230 C1229 1.363 . S
C1230 C1236 1.428 . S
H1231 C1227 0.930 . S
H1232 C1229 0.929 . S
S1233 N1234 1.613 . S
S1233 N1235 1.610 . S
N1234 S1233 1.613 . S
N1234 C1237 1.350 . S
N1235 S1233 1.610 . S
N1235 C1236 1.351 . S
C1236 C1230 1.428 . S
C1236 N1235 1.351 . S
C1236 C1237 1.434 . S
C1237 C1228 1.429 . S
C1237 N1234 1.350 . S
C1237 C1236 1.434 . S
C1238 C1239 1.369 . S
C1238 C1240 1.419 . S
C1238 H1242 0.930 . S
C1239 C1238 1.369 . S
C1239 C1248 1.429 . S
C1240 C1238 1.419 . S
C1240 C1241 1.363 . S
C1240 H1243 0.929 . S
C1241 C1240 1.363 . S
C1241 C1247 1.428 . S
H1242 C1238 0.930 . S
H1243 C1240 0.929 . S
S1244 N1245 1.613 . S
S1244 N1246 1.610 . S
N1245 S1244 1.613 . S
N1245 C1248 1.350 . S
N1246 S1244 1.610 . S
N1246 C1247 1.351 . S
C1247 C1241 1.428 . S
C1247 N1246 1.351 . S
C1247 C1248 1.434 . S
C1248 C1239 1.429 . S
C1248 N1245 1.350 . S
C1248 C1247 1.434 . S
C1249 C1250 1.369 . S
C1249 C1251 1.419 . S
C1249 H1253 0.930 . S
C1250 C1249 1.369 . S
C1250 C1259 1.429 . S
C1251 C1249 1.419 . S
C1251 C1252 1.363 . S
C1251 H1254 0.929 . S
C1252 C1251 1.363 . S
C1252 C1258 1.428 . S
H1253 C1249 0.930 . S
H1254 C1251 0.929 . S
S1255 N1256 1.613 . S
S1255 N1257 1.610 . S
N1256 S1255 1.613 . S
N1256 C1259 1.350 . S
N1257 S1255 1.610 . S
N1257 C1258 1.351 . S
C1258 C1252 1.428 . S
C1258 N1257 1.351 . S
C1258 C1259 1.434 . S
C1259 C1250 1.429 . S
C1259 N1256 1.350 . S
C1259 C1258 1.434 . S
C1260 C1261 1.369 . S
C1260 C1262 1.419 . S
C1260 H1264 0.930 . S
C1261 C1260 1.369 . S
C1261 C1270 1.429 . S
C1262 C1260 1.419 . S
C1262 C1263 1.363 . S
C1262 H1265 0.929 . S
C1263 C1262 1.363 . S
C1263 C1269 1.428 . S
H1264 C1260 0.930 . S
H1265 C1262 0.929 . S
S1266 N1267 1.613 . S
S1266 N1268 1.610 . S
N1267 S1266 1.613 . S
N1267 C1270 1.350 . S
N1268 S1266 1.610 . S
N1268 C1269 1.351 . S
C1269 C1263 1.428 . S
C1269 N1268 1.351 . S
C1269 C1270 1.434 . S
C1270 C1261 1.429 . S
C1270 N1267 1.350 . S
C1270 C1269 1.434 . S
C1271 C1272 1.369 . S
C1271 C1273 1.419 . S
C1271 H1275 0.930 . S
C1272 C1271 1.369 . S
C1272 C1281 1.429 . S
C1273 C1271 1.419 . S
C1273 C1274 1.363 . S
C1273 H1276 0.929 . S
C1274 C1273 1.363 . S
C1274 C1280 1.428 . S
H1275 C1271 0.930 . S
H1276 C1273 0.929 . S
S1277 N1278 1.613 . S
S1277 N1279 1.610 . S
N1278 S1277 1.613 . S
N1278 C1281 1.350 . S
N1279 S1277 1.610 . S
N1279 C1280 1.351 . S
C1280 C1274 1.428 . S
C1280 N1279 1.351 . S
C1280 C1281 1.434 . S
C1281 C1272 1.429 . S
C1281 N1278 1.350 . S
C1281 C1280 1.434 . S
C1282 C1283 1.369 . S
C1282 C1284 1.419 . S
C1282 H1286 0.930 . S
C1283 C1282 1.369 . S
C1283 C1292 1.429 . S
C1284 C1282 1.419 . S
C1284 C1285 1.363 . S
C1284 H1287 0.929 . S
C1285 C1284 1.363 . S
C1285 C1291 1.428 . S
H1286 C1282 0.930 . S
H1287 C1284 0.929 . S
S1288 N1289 1.613 . S
S1288 N1290 1.610 . S
N1289 S1288 1.613 . S
N1289 C1292 1.350 . S
N1290 S1288 1.610 . S
N1290 C1291 1.351 . S
C1291 C1285 1.428 . S
C1291 N1290 1.351 . S
C1291 C1292 1.434 . S
C1292 C1283 1.429 . S
C1292 N1289 1.350 . S
C1292 C1291 1.434 . S
C1293 C1294 1.369 . S
C1293 C1295 1.419 . S
C1293 H1297 0.930 . S
C1294 C1293 1.369 . S
C1294 C1303 1.429 . S
C1295 C1293 1.419 . S
C1295 C1296 1.363 . S
C1295 H1298 0.929 . S
C1296 C1295 1.363 . S
C1296 C1302 1.428 . S
H1297 C1293 0.930 . S
H1298 C1295 0.929 . S
S1299 N1300 1.613 . S
S1299 N1301 1.610 . S
N1300 S1299 1.613 . S
N1300 C1303 1.350 . S
N1301 S1299 1.610 . S
N1301 C1302 1.351 . S
C1302 C1296 1.428 . S
C1302 N1301 1.351 . S
C1302 C1303 1.434 . S
C1303 C1294 1.429 . S
C1303 N1300 1.350 . S
C1303 C1302 1.434 . S
C1304 C1305 1.369 . S
C1304 C1306 1.419 . S
C1304 H1308 0.930 . S
C1305 C1304 1.369 . S
C1305 C1314 1.429 . S
C1306 C1304 1.419 . S
C1306 C1307 1.363 . S
C1306 H1309 0.929 . S
C1307 C1306 1.363 . S
C1307 C1313 1.428 . S
H1308 C1304 0.930 . S
H1309 C1306 0.929 . S
S1310 N1311 1.613 . S
S1310 N1312 1.610 . S
N1311 S1310 1.613 . S
N1311 C1314 1.350 . S
N1312 S1310 1.610 . S
N1312 C1313 1.351 . S
C1313 C1307 1.428 . S
C1313 N1312 1.351 . S
C1313 C1314 1.434 . S
C1314 C1305 1.429 . S
C1314 N1311 1.350 . S
C1314 C1313 1.434 . S
C1315 C1316 1.369 . S
C1315 C1317 1.419 . S
C1315 H1319 0.930 . S
C1316 C1315 1.369 . S
C1316 C1325 1.429 . S
C1317 C1315 1.419 . S
C1317 C1318 1.363 . S
C1317 H1320 0.929 . S
C1318 C1317 1.363 . S
C1318 C1324 1.428 . S
H1319 C1315 0.930 . S
H1320 C1317 0.929 . S
S1321 N1322 1.613 . S
S1321 N1323 1.610 . S
N1322 S1321 1.613 . S
N1322 C1325 1.350 . S
N1323 S1321 1.610 . S
N1323 C1324 1.351 . S
C1324 C1318 1.428 . S
C1324 N1323 1.351 . S
C1324 C1325 1.434 . S
C1325 C1316 1.429 . S
C1325 N1322 1.350 . S
C1325 C1324 1.434 . S
C1326 C1327 1.369 . S
C1326 C1328 1.419 . S
C1326 H1330 0.930 . S
C1327 C1326 1.369 . S
C1327 C1336 1.429 . S
C1328 C1326 1.419 . S
C1328 C1329 1.363 . S
C1328 H1331 0.929 . S
C1329 C1328 1.363 . S
C1329 C1335 1.428 . S
H1330 C1326 0.930 . S
H1331 C1328 0.929 . S
S1332 N1333 1.613 . S
S1332 N1334 1.610 . S
N1333 S1332 1.613 . S
N1333 C1336 1.350 . S
N1334 S1332 1.610 . S
N1334 C1335 1.351 . S
C1335 C1329 1.428 . S
C1335 N1334 1.351 . S
C1335 C1336 1.434 . S
C1336 C1327 1.429 . S
C1336 N1333 1.350 . S
C1336 C1335 1.434 . S
C1337 C1338 1.369 . S
C1337 C1339 1.419 . S
C1337 H1341 0.930 . S
C1338 C1337 1.369 . S
C1338 C1347 1.429 . S
C1339 C1337 1.419 . S
C1339 C1340 1.363 . S
C1339 H1342 0.929 . S
C1340 C1339 1.363 . S
C1340 C1346 1.428 . S
H1341 C1337 0.930 . S
H1342 C1339 0.929 . S
S1343 N1344 1.613 . S
S1343 N1345 1.610 . S
N1344 S1343 1.613 . S
N1344 C1347 1.350 . S
N1345 S1343 1.610 . S
N1345 C1346 1.351 . S
C1346 C1340 1.428 . S
C1346 N1345 1.351 . S
C1346 C1347 1.434 . S
C1347 C1338 1.429 . S
C1347 N1344 1.350 . S
C1347 C1346 1.434 . S
C1348 C1349 1.369 . S
C1348 C1350 1.419 . S
C1348 H1352 0.930 . S
C1349 C1348 1.369 . S
C1349 C1358 1.429 . S
C1350 C1348 1.419 . S
C1350 C1351 1.363 . S
C1350 H1353 0.929 . S
C1351 C1350 1.363 . S
C1351 C1357 1.428 . S
H1352 C1348 0.930 . S
H1353 C1350 0.929 . S
S1354 N1355 1.613 . S
S1354 N1356 1.610 . S
N1355 S1354 1.613 . S
N1355 C1358 1.350 . S
N1356 S1354 1.610 . S
N1356 C1357 1.351 . S
C1357 C1351 1.428 . S
C1357 N1356 1.351 . S
C1357 C1358 1.434 . S
C1358 C1349 1.429 . S
C1358 N1355 1.350 . S
C1358 C1357 1.434 . S
C1359 C1360 1.369 . S
C1359 C1361 1.419 . S
C1359 H1363 0.930 . S
C1360 C1359 1.369 . S
C1360 C1369 1.429 . S
C1361 C1359 1.419 . S
C1361 C1362 1.363 . S
C1361 H1364 0.929 . S
C1362 C1361 1.363 . S
C1362 C1368 1.428 . S
H1363 C1359 0.930 . S
H1364 C1361 0.929 . S
S1365 N1366 1.613 . S
S1365 N1367 1.610 . S
N1366 S1365 1.613 . S
N1366 C1369 1.350 . S
N1367 S1365 1.610 . S
N1367 C1368 1.351 . S
C1368 C1362 1.428 . S
C1368 N1367 1.351 . S
C1368 C1369 1.434 . S
C1369 C1360 1.429 . S
C1369 N1366 1.350 . S
C1369 C1368 1.434 . S
C1370 C1371 1.369 . S
C1370 C1372 1.419 . S
C1370 H1374 0.930 . S
C1371 C1370 1.369 . S
C1371 C1380 1.429 . S
C1372 C1370 1.419 . S
C1372 C1373 1.363 . S
C1372 H1375 0.929 . S
C1373 C1372 1.363 . S
C1373 C1379 1.428 . S
H1374 C1370 0.930 . S
H1375 C1372 0.929 . S
S1376 N1377 1.613 . S
S1376 N1378 1.610 . S
N1377 S1376 1.613 . S
N1377 C1380 1.350 . S
N1378 S1376 1.610 . S
N1378 C1379 1.351 . S
C1379 C1373 1.428 . S
C1379 N1378 1.351 . S
C1379 C1380 1.434 . S
C1380 C1371 1.429 . S
C1380 N1377 1.350 . S
C1380 C1379 1.434 . S
C1381 C1382 1.369 . S
C1381 C1383 1.419 . S
C1381 H1385 0.930 . S
C1382 C1381 1.369 . S
C1382 C1391 1.429 . S
C1383 C1381 1.419 . S
C1383 C1384 1.363 . S
C1383 H1386 0.929 . S
C1384 C1383 1.363 . S
C1384 C1390 1.428 . S
H1385 C1381 0.930 . S
H1386 C1383 0.929 . S
S1387 N1388 1.613 . S
S1387 N1389 1.610 . S
N1388 S1387 1.613 . S
N1388 C1391 1.350 . S
N1389 S1387 1.610 . S
N1389 C1390 1.351 . S
C1390 C1384 1.428 . S
C1390 N1389 1.351 . S
C1390 C1391 1.434 . S
C1391 C1382 1.429 . S
C1391 N1388 1.350 . S
C1391 C1390 1.434 . S
C1392 C1393 1.369 . S
C1392 C1394 1.419 . S
C1392 H1396 0.930 . S
C1393 C1392 1.369 . S
C1393 C1402 1.429 . S
C1394 C1392 1.419 . S
C1394 C1395 1.363 . S
C1394 H1397 0.929 . S
C1395 C1394 1.363 . S
C1395 C1401 1.428 . S
H1396 C1392 0.930 . S
H1397 C1394 0.929 . S
S1398 N1399 1.613 . S
S1398 N1400 1.610 . S
N1399 S1398 1.613 . S
N1399 C1402 1.350 . S
N1400 S1398 1.610 . S
N1400 C1401 1.351 . S
C1401 C1395 1.428 . S
C1401 N1400 1.351 . S
C1401 C1402 1.434 . S
C1402 C1393 1.429 . S
C1402 N1399 1.350 . S
C1402 C1401 1.434 . S
C1403 C1404 1.369 . S
C1403 C1405 1.419 . S
C1403 H1407 0.930 . S
C1404 C1403 1.369 . S
C1404 C1413 1.429 . S
C1405 C1403 1.419 . S
C1405 C1406 1.363 . S
C1405 H1408 0.929 . S
C1406 C1405 1.363 . S
C1406 C1412 1.428 . S
H1407 C1403 0.930 . S
H1408 C1405 0.929 . S
S1409 N1410 1.613 . S
S1409 N1411 1.610 . S
N1410 S1409 1.613 . S
N1410 C1413 1.350 . S
N1411 S1409 1.610 . S
N1411 C1412 1.351 . S
C1412 C1406 1.428 . S
C1412 N1411 1.351 . S
C1412 C1413 1.434 . S
C1413 C1404 1.429 . S
C1413 N1410 1.350 . S
C1413 C1412 1.434 . S
C1414 C1415 1.369 . S
C1414 C1416 1.419 . S
C1414 H1418 0.930 . S
C1415 C1414 1.369 . S
C1415 C1424 1.429 . S
C1416 C1414 1.419 . S
C1416 C1417 1.363 . S
C1416 H1419 0.929 . S
C1417 C1416 1.363 . S
C1417 C1423 1.428 . S
H1418 C1414 0.930 . S
H1419 C1416 0.929 . S
S1420 N1421 1.613 . S
S1420 N1422 1.610 . S
N1421 S1420 1.613 . S
N1421 C1424 1.350 . S
N1422 S1420 1.610 . S
N1422 C1423 1.351 . S
C1423 C1417 1.428 . S
C1423 N1422 1.351 . S
C1423 C1424 1.434 . S
C1424 C1415 1.429 . S
C1424 N1421 1.350 . S
C1424 C1423 1.434 . S
C1425 C1426 1.369 . S
C1425 C1427 1.419 . S
C1425 H1429 0.930 . S
C1426 C1425 1.369 . S
C1426 C1435 1.429 . S
C1427 C1425 1.419 . S
C1427 C1428 1.363 . S
C1427 H1430 0.929 . S
C1428 C1427 1.363 . S
C1428 C1434 1.428 . S
H1429 C1425 0.930 . S
H1430 C1427 0.929 . S
S1431 N1432 1.613 . S
S1431 N1433 1.610 . S
N1432 S1431 1.613 . S
N1432 C1435 1.350 . S
N1433 S1431 1.610 . S
N1433 C1434 1.351 . S
C1434 C1428 1.428 . S
C1434 N1433 1.351 . S
C1434 C1435 1.434 . S
C1435 C1426 1.429 . S
C1435 N1432 1.350 . S
C1435 C1434 1.434 . S
C1436 C1437 1.369 . S
C1436 C1438 1.419 . S
C1436 H1440 0.930 . S
C1437 C1436 1.369 . S
C1437 C1446 1.429 . S
C1438 C1436 1.419 . S
C1438 C1439 1.363 . S
C1438 H1441 0.929 . S
C1439 C1438 1.363 . S
C1439 C1445 1.428 . S
H1440 C1436 0.930 . S
H1441 C1438 0.929 . S
S1442 N1443 1.613 . S
S1442 N1444 1.610 . S
N1443 S1442 1.613 . S
N1443 C1446 1.350 . S
N1444 S1442 1.610 . S
N1444 C1445 1.351 . S
C1445 C1439 1.428 . S
C1445 N1444 1.351 . S
C1445 C1446 1.434 . S
C1446 C1437 1.429 . S
C1446 N1443 1.350 . S
C1446 C1445 1.434 . S
C1447 C1448 1.369 . S
C1447 C1449 1.419 . S
C1447 H1451 0.930 . S
C1448 C1447 1.369 . S
C1448 C1457 1.429 . S
C1449 C1447 1.419 . S
C1449 C1450 1.363 . S
C1449 H1452 0.929 . S
C1450 C1449 1.363 . S
C1450 C1456 1.428 . S
H1451 C1447 0.930 . S
H1452 C1449 0.929 . S
S1453 N1454 1.613 . S
S1453 N1455 1.610 . S
N1454 S1453 1.613 . S
N1454 C1457 1.350 . S
N1455 S1453 1.610 . S
N1455 C1456 1.351 . S
C1456 C1450 1.428 . S
C1456 N1455 1.351 . S
C1456 C1457 1.434 . S
C1457 C1448 1.429 . S
C1457 N1454 1.350 . S
C1457 C1456 1.434 . S
C1458 C1459 1.369 . S
C1458 C1460 1.419 . S
C1458 H1462 0.930 . S
C1459 C1458 1.369 . S
C1459 C1468 1.429 . S
C1460 C1458 1.419 . S
C1460 C1461 1.363 . S
C1460 H1463 0.929 . S
C1461 C1460 1.363 . S
C1461 C1467 1.428 . S
H1462 C1458 0.930 . S
H1463 C1460 0.929 . S
S1464 N1465 1.613 . S
S1464 N1466 1.610 . S
N1465 S1464 1.613 . S
N1465 C1468 1.350 . S
N1466 S1464 1.610 . S
N1466 C1467 1.351 . S
C1467 C1461 1.428 . S
C1467 N1466 1.351 . S
C1467 C1468 1.434 . S
C1468 C1459 1.429 . S
C1468 N1465 1.350 . S
C1468 C1467 1.434 . S
C1469 C1470 1.369 . S
C1469 C1471 1.419 . S
C1469 H1473 0.930 . S
C1470 C1469 1.369 . S
C1470 C1479 1.429 . S
C1471 C1469 1.419 . S
C1471 C1472 1.363 . S
C1471 H1474 0.929 . S
C1472 C1471 1.363 . S
C1472 C1478 1.428 . S
H1473 C1469 0.930 . S
H1474 C1471 0.929 . S
S1475 N1476 1.613 . S
S1475 N1477 1.610 . S
N1476 S1475 1.613 . S
N1476 C1479 1.350 . S
N1477 S1475 1.610 . S
N1477 C1478 1.351 . S
C1478 C1472 1.428 . S
C1478 N1477 1.351 . S
C1478 C1479 1.434 . S
C1479 C1470 1.429 . S
C1479 N1476 1.350 . S
C1479 C1478 1.434 . S
C1480 C1481 1.369 . S
C1480 C1482 1.419 . S
C1480 H1484 0.930 . S
C1481 C1480 1.369 . S
C1481 C1490 1.429 . S
C1482 C1480 1.419 . S
C1482 C1483 1.363 . S
C1482 H1485 0.929 . S
C1483 C1482 1.363 . S
C1483 C1489 1.428 . S
H1484 C1480 0.930 . S
H1485 C1482 0.929 . S
S1486 N1487 1.613 . S
S1486 N1488 1.610 . S
N1487 S1486 1.613 . S
N1487 C1490 1.350 . S
N1488 S1486 1.610 . S
N1488 C1489 1.351 . S
C1489 C1483 1.428 . S
C1489 N1488 1.351 . S
C1489 C1490 1.434 . S
C1490 C1481 1.429 . S
C1490 N1487 1.350 . S
C1490 C1489 1.434 . S
C1491 C1492 1.369 . S
C1491 C1493 1.419 . S
C1491 H1495 0.930 . S
C1492 C1491 1.369 . S
C1492 C1501 1.429 . S
C1493 C1491 1.419 . S
C1493 C1494 1.363 . S
C1493 H1496 0.929 . S
C1494 C1493 1.363 . S
C1494 C1500 1.428 . S
H1495 C1491 0.930 . S
H1496 C1493 0.929 . S
S1497 N1498 1.613 . S
S1497 N1499 1.610 . S
N1498 S1497 1.613 . S
N1498 C1501 1.350 . S
N1499 S1497 1.610 . S
N1499 C1500 1.351 . S
C1500 C1494 1.428 . S
C1500 N1499 1.351 . S
C1500 C1501 1.434 . S
C1501 C1492 1.429 . S
C1501 N1498 1.350 . S
C1501 C1500 1.434 . S
C1502 C1503 1.369 . S
C1502 C1504 1.419 . S
C1502 H1506 0.967 . S
C1503 C1502 1.369 . S
C1503 C1512 1.429 . S
C1504 C1502 1.419 . S
C1504 C1505 1.363 . S
C1504 H1507 0.929 . S
C1505 C1504 1.363 . S
C1505 C1511 1.428 . S
H1506 C1502 0.967 . S
H1507 C1504 0.929 . S
S1508 N1509 1.613 . S
S1508 N1510 1.610 . S
N1509 S1508 1.613 . S
N1509 C1512 1.350 . S
N1510 S1508 1.610 . S
N1510 C1511 1.351 . S
C1511 C1505 1.428 . S
C1511 N1510 1.351 . S
C1511 C1512 1.434 . S
C1512 C1503 1.429 . S
C1512 N1509 1.350 . S
C1512 C1511 1.434 . S
C1513 C1514 1.369 . S
C1513 C1515 1.419 . S
C1513 H1517 0.930 . S
C1514 C1513 1.369 . S
C1514 C1523 1.429 . S
C1515 C1513 1.419 . S
C1515 C1516 1.363 . S
C1515 H1518 0.929 . S
C1516 C1515 1.363 . S
C1516 C1522 1.428 . S
H1517 C1513 0.930 . S
H1518 C1515 0.929 . S
S1519 N1520 1.613 . S
S1519 N1521 1.610 . S
N1520 S1519 1.613 . S
N1520 C1523 1.350 . S
N1521 S1519 1.610 . S
N1521 C1522 1.351 . S
C1522 C1516 1.428 . S
C1522 N1521 1.351 . S
C1522 C1523 1.434 . S
C1523 C1514 1.429 . S
C1523 N1520 1.350 . S
C1523 C1522 1.434 . S
C1524 C1525 1.369 . S
C1524 C1526 1.419 . S
C1524 H1528 0.930 . S
C1525 C1524 1.369 . S
C1525 C1534 1.429 . S
C1526 C1524 1.419 . S
C1526 C1527 1.363 . S
C1526 H1529 0.929 . S
C1527 C1526 1.363 . S
C1527 C1533 1.428 . S
H1528 C1524 0.930 . S
H1529 C1526 0.929 . S
S1530 N1531 1.613 . S
S1530 N1532 1.610 . S
N1531 S1530 1.613 . S
N1531 C1534 1.350 . S
N1532 S1530 1.610 . S
N1532 C1533 1.351 . S
C1533 C1527 1.428 . S
C1533 N1532 1.351 . S
C1533 C1534 1.434 . S
C1534 C1525 1.429 . S
C1534 N1531 1.350 . S
C1534 C1533 1.434 . S
C1535 C1536 1.369 . S
C1535 C1537 1.419 . S
C1535 H1539 0.930 . S
C1536 C1535 1.369 . S
C1536 C1545 1.429 . S
C1537 C1535 1.419 . S
C1537 C1538 1.363 . S
C1537 H1540 0.929 . S
C1538 C1537 1.363 . S
C1538 C1544 1.428 . S
H1539 C1535 0.930 . S
H1540 C1537 0.929 . S
S1541 N1542 1.613 . S
S1541 N1543 1.610 1_554 S
N1542 S1541 1.613 . S
N1542 C1545 1.350 1_554 S
N1543 S1541 1.610 1_556 S
N1543 C1544 1.351 . S
C1544 C1538 1.428 . S
C1544 N1543 1.351 . S
C1544 C1545 1.434 . S
C1545 C1536 1.429 . S
C1545 N1542 1.350 1_556 S
C1545 C1544 1.434 . S
C1546 C1547 1.369 . S
C1546 C1548 1.419 . S
C1546 H1550 0.930 . S
C1547 C1546 1.369 . S
C1547 C1556 1.429 . S
C1548 C1546 1.419 . S
C1548 C1549 1.363 . S
C1548 H1551 0.929 . S
C1549 C1548 1.363 . S
C1549 C1555 1.428 . S
H1550 C1546 0.930 . S
H1551 C1548 0.929 . S
S1552 N1553 1.613 . S
S1552 N1554 1.610 . S
N1553 S1552 1.613 . S
N1553 C1556 1.350 . S
N1554 S1552 1.610 . S
N1554 C1555 1.351 . S
C1555 C1549 1.428 . S
C1555 N1554 1.351 . S
C1555 C1556 1.434 . S
C1556 C1547 1.429 . S
C1556 N1553 1.350 . S
C1556 C1555 1.434 . S
C1557 C1558 1.369 . S
C1557 C1559 1.419 . S
C1557 H1561 0.930 . S
C1558 C1557 1.369 . S
C1558 C1567 1.429 . S
C1559 C1557 1.419 . S
C1559 C1560 1.363 . S
C1559 H1562 0.929 . S
C1560 C1559 1.363 . S
C1560 C1566 1.428 . S
H1561 C1557 0.930 . S
H1562 C1559 0.929 . S
S1563 N1564 1.613 . S
S1563 N1565 1.610 . S
N1564 S1563 1.613 . S
N1564 C1567 1.350 . S
N1565 S1563 1.610 . S
N1565 C1566 1.351 . S
C1566 C1560 1.428 . S
C1566 N1565 1.351 . S
C1566 C1567 1.434 . S
C1567 C1558 1.429 . S
C1567 N1564 1.350 . S
C1567 C1566 1.434 . S
C1568 C1569 1.369 . S
C1568 C1570 1.419 . S
C1568 H1572 0.930 . S
C1569 C1568 1.369 . S
C1569 C1578 1.429 . S
C1570 C1568 1.419 . S
C1570 C1571 1.363 . S
C1570 H1573 0.929 . S
C1571 C1570 1.363 . S
C1571 C1577 1.428 . S
H1572 C1568 0.930 . S
H1573 C1570 0.929 . S
S1574 N1575 1.613 . S
S1574 N1576 1.610 . S
N1575 S1574 1.613 . S
N1575 C1578 1.350 . S
N1576 S1574 1.610 . S
N1576 C1577 1.351 . S
C1577 C1571 1.428 . S
C1577 N1576 1.351 . S
C1577 C1578 1.434 . S
C1578 C1569 1.429 . S
C1578 N1575 1.350 . S
C1578 C1577 1.434 . S
C1579 C1580 1.369 . S
C1579 C1581 1.419 . S
C1579 H1583 0.930 . S
C1580 C1579 1.369 . S
C1580 C1589 1.429 . S
C1581 C1579 1.419 . S
C1581 C1582 1.363 . S
C1581 H1584 0.929 . S
C1582 C1581 1.363 . S
C1582 C1588 1.428 . S
H1583 C1579 0.930 . S
H1584 C1581 0.929 . S
S1585 N1586 1.613 . S
S1585 N1587 1.610 . S
N1586 S1585 1.613 . S
N1586 C1589 1.350 . S
N1587 S1585 1.610 . S
N1587 C1588 1.351 . S
C1588 C1582 1.428 . S
C1588 N1587 1.351 . S
C1588 C1589 1.434 . S
C1589 C1580 1.429 . S
C1589 N1586 1.350 . S
C1589 C1588 1.434 . S
C1590 C1591 1.369 . S
C1590 C1592 1.419 . S
C1590 H1594 0.930 . S
C1591 C1590 1.369 . S
C1591 C1600 1.429 . S
C1592 C1590 1.419 . S
C1592 C1593 1.363 . S
C1592 H1595 0.929 . S
C1593 C1592 1.363 . S
C1593 C1599 1.428 . S
H1594 C1590 0.930 . S
H1595 C1592 0.929 . S
S1596 N1597 1.613 . S
S1596 N1598 1.610 . S
N1597 S1596 1.613 . S
N1597 C1600 1.350 . S
N1598 S1596 1.610 . S
N1598 C1599 1.351 . S
C1599 C1593 1.428 . S
C1599 N1598 1.351 . S
C1599 C1600 1.434 . S
C1600 C1591 1.429 . S
C1600 N1597 1.350 . S
C1600 C1599 1.434 . S
C1601 C1602 1.369 . S
C1601 C1603 1.419 . S
C1601 H1605 0.930 . S
C1602 C1601 1.369 . S
C1602 C1611 1.429 . S
C1603 C1601 1.419 . S
C1603 C1604 1.363 . S
C1603 H1606 0.929 . S
C1604 C1603 1.363 . S
C1604 C1610 1.428 . S
H1605 C1601 0.930 . S
H1606 C1603 0.929 . S
S1607 N1608 1.613 . S
S1607 N1609 1.610 . S
N1608 S1607 1.613 . S
N1608 C1611 1.350 . S
N1609 S1607 1.610 . S
N1609 C1610 1.351 . S
C1610 C1604 1.428 . S
C1610 N1609 1.351 . S
C1610 C1611 1.434 . S
C1611 C1602 1.429 . S
C1611 N1608 1.350 . S
C1611 C1610 1.434 . S
C1612 C1613 1.369 . S
C1612 C1614 1.419 . S
C1612 H1616 0.930 . S
C1613 C1612 1.369 . S
C1613 C1622 1.429 . S
C1614 C1612 1.419 . S
C1614 C1615 1.363 . S
C1614 H1617 0.929 . S
C1615 C1614 1.363 . S
C1615 C1621 1.428 . S
H1616 C1612 0.930 . S
H1617 C1614 0.929 . S
S1618 N1619 1.613 . S
S1618 N1620 1.610 . S
N1619 S1618 1.613 . S
N1619 C1622 1.350 . S
N1620 S1618 1.610 . S
N1620 C1621 1.351 . S
C1621 C1615 1.428 . S
C1621 N1620 1.351 . S
C1621 C1622 1.434 . S
C1622 C1613 1.429 . S
C1622 N1619 1.350 . S
C1622 C1621 1.434 . S
C1623 C1624 1.369 . S
C1623 C1625 1.419 . S
C1623 H1627 0.930 . S
C1624 C1623 1.369 . S
C1624 C1633 1.429 1_455 S
C1625 C1623 1.419 . S
C1625 C1626 1.363 . S
C1625 H1628 0.929 . S
C1626 C1625 1.363 . S
C1626 C1632 1.428 1_455 S
H1627 C1623 0.930 . S
H1628 C1625 0.929 . S
S1629 N1630 1.613 . S
S1629 N1631 1.610 . S
N1630 S1629 1.613 . S
N1630 C1633 1.350 . S
N1631 S1629 1.610 . S
N1631 C1632 1.351 . S
C1632 C1626 1.428 1_655 S
C1632 N1631 1.351 . S
C1632 C1633 1.434 . S
C1633 C1624 1.429 1_655 S
C1633 N1630 1.350 . S
C1633 C1632 1.434 . S
C1634 C1635 1.369 . S
C1634 C1636 1.419 . S
C1634 H1638 0.930 . S
C1635 C1634 1.369 . S
C1635 C1644 1.429 . S
C1636 C1634 1.419 . S
C1636 C1637 1.363 . S
C1636 H1639 0.929 . S
C1637 C1636 1.363 . S
C1637 C1643 1.428 . S
H1638 C1634 0.930 . S
H1639 C1636 0.929 . S
S1640 N1641 1.613 . S
S1640 N1642 1.610 . S
N1641 S1640 1.613 . S
N1641 C1644 1.350 . S
N1642 S1640 1.610 . S
N1642 C1643 1.351 . S
C1643 C1637 1.428 . S
C1643 N1642 1.351 . S
C1643 C1644 1.434 . S
C1644 C1635 1.429 . S
C1644 N1641 1.350 . S
C1644 C1643 1.434 . S
C1645 C1646 1.369 . S
C1645 C1647 1.419 . S
C1645 H1649 0.930 . S
C1646 C1645 1.369 . S
C1646 C1655 1.429 1_565 S
C1647 C1645 1.419 . S
C1647 C1648 1.363 . S
C1647 H1650 0.929 . S
C1648 C1647 1.363 . S
C1648 C1654 1.428 1_565 S
H1649 C1645 0.930 . S
H1650 C1647 0.929 . S
S1651 N1652 1.613 . S
S1651 N1653 1.610 . S
N1652 S1651 1.613 . S
N1652 C1655 1.350 . S
N1653 S1651 1.610 . S
N1653 C1654 1.351 . S
C1654 C1648 1.428 1_545 S
C1654 N1653 1.351 . S
C1654 C1655 1.434 . S
C1655 C1646 1.429 1_545 S
C1655 N1652 1.350 . S
C1655 C1654 1.434 . S
C1656 C1657 1.369 . S
C1656 C1658 1.419 . S
C1656 H1660 0.930 . S
C1657 C1656 1.369 . S
C1657 C1666 1.429 . S
C1658 C1656 1.419 . S
C1658 C1659 1.363 . S
C1658 H1661 0.929 . S
C1659 C1658 1.363 . S
C1659 C1665 1.429 . S
H1660 C1656 0.930 . S
H1661 C1658 0.929 . S
S1662 N1663 1.613 . S
S1662 N1664 1.610 . S
N1663 S1662 1.613 . S
N1663 C1666 1.350 1_545 S
N1664 S1662 1.610 . S
N1664 C1665 1.352 1_545 S
C1665 C1659 1.429 . S
C1665 N1664 1.352 1_565 S
C1665 C1666 1.432 . S
C1666 C1657 1.429 . S
C1666 N1663 1.350 1_565 S
C1666 C1665 1.432 . S
C1667 C1668 1.369 1_655 S
C1667 C1669 1.418 . S
C1667 H1671 0.931 . S
C1668 C1667 1.369 1_455 S
C1668 C1677 1.429 . S
C1669 C1667 1.418 . S
C1669 C1670 1.363 1_655 S
C1669 H1672 0.929 . S
C1670 C1669 1.363 1_455 S
C1670 C1676 1.428 . S
H1671 C1667 0.931 . S
H1672 C1669 0.929 . S
S1673 N1674 1.613 . S
S1673 N1675 1.610 . S
N1674 S1673 1.613 . S
N1674 C1677 1.350 . S
N1675 S1673 1.610 . S
N1675 C1676 1.351 . S
C1676 C1670 1.428 . S
C1676 N1675 1.351 . S
C1676 C1677 1.434 . S
C1677 C1668 1.429 . S
C1677 N1674 1.350 . S
C1677 C1676 1.434 . S
C1678 C1679 1.369 . S
C1678 C1680 1.419 . S
C1678 H1682 0.930 . S
C1679 C1678 1.369 . S
C1679 C1688 1.429 . S
C1680 C1678 1.419 . S
C1680 C1681 1.363 . S
C1680 H1683 0.929 . S
C1681 C1680 1.363 . S
C1681 C1687 1.428 . S
H1682 C1678 0.930 . S
H1683 C1680 0.929 . S
S1684 N1685 1.613 . S
S1684 N1686 1.610 . S
N1685 S1684 1.613 . S
N1685 C1688 1.350 . S
N1686 S1684 1.610 . S
N1686 C1687 1.351 . S
C1687 C1681 1.428 . S
C1687 N1686 1.351 . S
C1687 C1688 1.434 . S
C1688 C1679 1.429 . S
C1688 N1685 1.350 . S
C1688 C1687 1.434 . S
C1689 C1690 1.369 . S
C1689 C1691 1.419 . S
C1689 H1693 0.930 . S
C1690 C1689 1.369 . S
C1690 C1699 1.429 . S
C1691 C1689 1.419 . S
C1691 C1692 1.363 . S
C1691 H1694 0.929 . S
C1692 C1691 1.363 . S
C1692 C1698 1.428 . S
H1693 C1689 0.930 . S
H1694 C1691 0.929 . S
S1695 N1696 1.613 . S
S1695 N1697 1.610 . S
N1696 S1695 1.613 . S
N1696 C1699 1.350 . S
N1697 S1695 1.610 . S
N1697 C1698 1.351 . S
C1698 C1692 1.428 . S
C1698 N1697 1.351 . S
C1698 C1699 1.434 . S
C1699 C1690 1.429 . S
C1699 N1696 1.350 . S
C1699 C1698 1.434 . S
C1700 C1701 1.369 . S
C1700 C1702 1.419 . S
C1700 H1704 0.930 . S
C1701 C1700 1.369 . S
C1701 C1710 1.429 . S
C1702 C1700 1.419 . S
C1702 C1703 1.363 . S
C1702 H1705 0.929 . S
C1703 C1702 1.363 . S
C1703 C1709 1.428 . S
H1704 C1700 0.930 . S
H1705 C1702 0.929 . S
S1706 N1707 1.613 . S
S1706 N1708 1.610 . S
N1707 S1706 1.613 . S
N1707 C1710 1.350 . S
N1708 S1706 1.610 . S
N1708 C1709 1.351 . S
C1709 C1703 1.428 . S
C1709 N1708 1.351 . S
C1709 C1710 1.434 . S
C1710 C1701 1.429 . S
C1710 N1707 1.350 . S
C1710 C1709 1.434 . S
C1711 C1712 1.369 . S
C1711 C1713 1.419 . S
C1711 H1715 0.930 . S
C1712 C1711 1.369 . S
C1712 C1721 1.429 . S
C1713 C1711 1.419 . S
C1713 C1714 1.363 . S
C1713 H1716 0.929 . S
C1714 C1713 1.363 . S
C1714 C1720 1.428 . S
H1715 C1711 0.930 . S
H1716 C1713 0.929 . S
S1717 N1718 1.613 . S
S1717 N1719 1.610 . S
N1718 S1717 1.613 . S
N1718 C1721 1.350 . S
N1719 S1717 1.610 . S
N1719 C1720 1.351 . S
C1720 C1714 1.428 . S
C1720 N1719 1.351 . S
C1720 C1721 1.434 . S
C1721 C1712 1.429 . S
C1721 N1718 1.350 . S
C1721 C1720 1.434 . S
C1722 C1723 1.369 1_565 S
C1722 C1724 1.419 . S
C1722 H1726 0.930 . S
C1723 C1722 1.369 1_545 S
C1723 C1732 1.429 . S
C1724 C1722 1.419 . S
C1724 C1725 1.363 1_565 S
C1724 H1727 0.929 . S
C1725 C1724 1.363 1_545 S
C1725 C1731 1.428 . S
H1726 C1722 0.930 . S
H1727 C1724 0.929 . S
S1728 N1729 1.613 . S
S1728 N1730 1.610 . S
N1729 S1728 1.613 . S
N1729 C1732 1.350 . S
N1730 S1728 1.610 . S
N1730 C1731 1.351 . S
C1731 C1725 1.428 . S
C1731 N1730 1.351 . S
C1731 C1732 1.434 . S
C1732 C1723 1.429 . S
C1732 N1729 1.350 . S
C1732 C1731 1.434 . S
C1733 C1734 1.369 1_455 S
C1733 C1735 1.419 . S
C1733 H1737 0.930 . S
C1734 C1733 1.369 1_655 S
C1734 C1743 1.429 . S
C1735 C1733 1.419 . S
C1735 C1736 1.363 1_455 S
C1735 H1738 0.929 . S
C1736 C1735 1.363 1_655 S
C1736 C1742 1.428 . S
H1737 C1733 0.930 . S
H1738 C1735 0.929 . S
S1739 N1740 1.613 . S
S1739 N1741 1.610 . S
N1740 S1739 1.613 . S
N1740 C1743 1.350 . S
N1741 S1739 1.610 . S
N1741 C1742 1.351 . S
C1742 C1736 1.428 . S
C1742 N1741 1.351 . S
C1742 C1743 1.434 . S
C1743 C1734 1.429 . S
C1743 N1740 1.350 . S
C1743 C1742 1.434 . S
C1744 C1745 1.369 . S
C1744 C1746 1.419 . S
C1744 H1748 0.930 . S
C1745 C1744 1.369 . S
C1745 C1754 1.429 . S
C1746 C1744 1.419 . S
C1746 C1747 1.363 . S
C1746 H1749 0.929 . S
C1747 C1746 1.363 . S
C1747 C1753 1.428 . S
H1748 C1744 0.930 . S
H1749 C1746 0.929 . S
S1750 N1751 1.613 . S
S1750 N1752 1.610 . S
N1751 S1750 1.613 . S
N1751 C1754 1.350 . S
N1752 S1750 1.610 . S
N1752 C1753 1.351 . S
C1753 C1747 1.428 . S
C1753 N1752 1.351 . S
C1753 C1754 1.434 . S
C1754 C1745 1.429 . S
C1754 N1751 1.350 . S
C1754 C1753 1.434 . S
C1755 C1756 1.369 . S
C1755 C1757 1.419 . S
C1755 H1759 0.930 . S
C1756 C1755 1.369 . S
C1756 C1765 1.429 . S
C1757 C1755 1.419 . S
C1757 C1758 1.363 . S
C1757 H1760 0.929 . S
C1758 C1757 1.363 . S
C1758 C1764 1.428 . S
H1759 C1755 0.930 . S
H1760 C1757 0.929 . S
S1761 N1762 1.613 . S
S1761 N1763 1.610 . S
N1762 S1761 1.613 . S
N1762 C1765 1.350 . S
N1763 S1761 1.610 . S
N1763 C1764 1.351 . S
C1764 C1758 1.428 . S
C1764 N1763 1.351 . S
C1764 C1765 1.434 . S
C1765 C1756 1.429 . S
C1765 N1762 1.350 . S
C1765 C1764 1.434 . S
C1766 C1767 1.369 . S
C1766 C1768 1.419 . S
C1766 H1770 0.930 . S
C1767 C1766 1.369 . S
C1767 C1776 1.429 . S
C1768 C1766 1.419 . S
C1768 C1769 1.363 . S
C1768 H1771 0.929 . S
C1769 C1768 1.363 . S
C1769 C1775 1.428 . S
H1770 C1766 0.930 . S
H1771 C1768 0.929 . S
S1772 N1773 1.613 . S
S1772 N1774 1.610 . S
N1773 S1772 1.613 . S
N1773 C1776 1.350 . S
N1774 S1772 1.610 . S
N1774 C1775 1.351 . S
C1775 C1769 1.428 . S
C1775 N1774 1.351 . S
C1775 C1776 1.434 . S
C1776 C1767 1.429 . S
C1776 N1773 1.350 . S
C1776 C1775 1.434 . S
C1777 C1778 1.369 . S
C1777 C1779 1.419 . S
C1777 H1781 0.930 . S
C1778 C1777 1.369 . S
C1778 C1787 1.429 . S
C1779 C1777 1.419 . S
C1779 C1780 1.363 . S
C1779 H1782 0.929 . S
C1780 C1779 1.363 . S
C1780 C1786 1.428 . S
H1781 C1777 0.930 . S
H1782 C1779 0.929 . S
S1783 N1784 1.613 . S
S1783 N1785 1.610 . S
N1784 S1783 1.613 . S
N1784 C1787 1.350 . S
N1785 S1783 1.610 . S
N1785 C1786 1.351 . S
C1786 C1780 1.428 . S
C1786 N1785 1.351 . S
C1786 C1787 1.434 . S
C1787 C1778 1.429 . S
C1787 N1784 1.350 . S
C1787 C1786 1.434 . S
C1788 C1789 1.369 . S
C1788 C1790 1.419 . S
C1788 H1792 0.930 . S
C1789 C1788 1.369 . S
C1789 C1798 1.429 . S
C1790 C1788 1.419 . S
C1790 C1791 1.363 . S
C1790 H1793 0.929 . S
C1791 C1790 1.363 . S
C1791 C1797 1.428 . S
H1792 C1788 0.930 . S
H1793 C1790 0.929 . S
S1794 N1795 1.613 . S
S1794 N1796 1.610 . S
N1795 S1794 1.613 . S
N1795 C1798 1.350 . S
N1796 S1794 1.610 . S
N1796 C1797 1.351 . S
C1797 C1791 1.428 . S
C1797 N1796 1.351 . S
C1797 C1798 1.434 . S
C1798 C1789 1.429 . S
C1798 N1795 1.350 . S
C1798 C1797 1.434 . S
C1799 C1800 1.369 . S
C1799 C1801 1.419 . S
C1799 H1803 0.930 . S
C1800 C1799 1.369 . S
C1800 C1809 1.429 . S
C1801 C1799 1.419 . S
C1801 C1802 1.363 . S
C1801 H1804 0.929 . S
C1802 C1801 1.363 . S
C1802 C1808 1.428 . S
H1803 C1799 0.930 . S
H1804 C1801 0.929 . S
S1805 N1806 1.613 . S
S1805 N1807 1.610 . S
N1806 S1805 1.613 . S
N1806 C1809 1.350 . S
N1807 S1805 1.610 . S
N1807 C1808 1.351 . S
C1808 C1802 1.428 . S
C1808 N1807 1.351 . S
C1808 C1809 1.434 . S
C1809 C1800 1.429 . S
C1809 N1806 1.350 . S
C1809 C1808 1.434 . S
C1810 C1811 1.369 . S
C1810 C1812 1.419 . S
C1810 H1814 0.930 . S
C1811 C1810 1.369 . S
C1811 C1820 1.429 . S
C1812 C1810 1.419 . S
C1812 C1813 1.363 . S
C1812 H1815 0.929 . S
C1813 C1812 1.363 . S
C1813 C1819 1.428 . S
H1814 C1810 0.930 . S
H1815 C1812 0.929 . S
S1816 N1817 1.613 . S
S1816 N1818 1.610 . S
N1817 S1816 1.613 . S
N1817 C1820 1.350 . S
N1818 S1816 1.610 . S
N1818 C1819 1.351 . S
C1819 C1813 1.428 . S
C1819 N1818 1.351 . S
C1819 C1820 1.434 . S
C1820 C1811 1.429 . S
C1820 N1817 1.350 . S
C1820 C1819 1.434 . S
C1821 C1822 1.369 . S
C1821 C1823 1.419 . S
C1821 H1825 0.930 . S
C1822 C1821 1.369 . S
C1822 C1831 1.429 1_655 S
C1823 C1821 1.419 . S
C1823 C1824 1.363 . S
C1823 H1826 0.929 . S
C1824 C1823 1.363 . S
C1824 C1830 1.428 1_655 S
H1825 C1821 0.930 . S
H1826 C1823 0.929 . S
S1827 N1828 1.613 . S
S1827 N1829 1.610 . S
N1828 S1827 1.613 . S
N1828 C1831 1.350 . S
N1829 S1827 1.610 . S
N1829 C1830 1.351 . S
C1830 C1824 1.428 1_455 S
C1830 N1829 1.351 . S
C1830 C1831 1.434 . S
C1831 C1822 1.429 1_455 S
C1831 N1828 1.350 . S
C1831 C1830 1.434 . S
C1832 C1833 1.369 . S
C1832 C1834 1.419 . S
C1832 H1836 0.930 . S
C1833 C1832 1.369 . S
C1833 C1842 1.429 . S
C1834 C1832 1.419 . S
C1834 C1835 1.363 . S
C1834 H1837 0.929 . S
C1835 C1834 1.363 . S
C1835 C1841 1.428 . S
H1836 C1832 0.930 . S
H1837 C1834 0.929 . S
S1838 N1839 1.613 . S
S1838 N1840 1.610 . S
N1839 S1838 1.613 . S
N1839 C1842 1.350 . S
N1840 S1838 1.610 . S
N1840 C1841 1.351 . S
C1841 C1835 1.428 . S
C1841 N1840 1.351 . S
C1841 C1842 1.434 . S
C1842 C1833 1.429 . S
C1842 N1839 1.350 . S
C1842 C1841 1.434 . S
C1843 C1844 1.369 1_565 S
C1843 C1845 1.419 . S
C1843 H1847 0.930 . S
C1844 C1843 1.369 1_545 S
C1844 C1853 1.429 . S
C1845 C1843 1.419 . S
C1845 C1846 1.363 1_565 S
C1845 H1848 0.929 . S
C1846 C1845 1.363 1_545 S
C1846 C1852 1.428 . S
H1847 C1843 0.930 . S
H1848 C1845 0.929 . S
S1849 N1850 1.613 . S
S1849 N1851 1.610 . S
N1850 S1849 1.613 . S
N1850 C1853 1.350 . S
N1851 S1849 1.610 . S
N1851 C1852 1.351 . S
C1852 C1846 1.428 . S
C1852 N1851 1.351 . S
C1852 C1853 1.434 . S
C1853 C1844 1.429 . S
C1853 N1850 1.350 . S
C1853 C1852 1.434 . S
C1063 C10 1.566 . S
C1065 C670 1.554 . S
C1074 C23 1.620 . S
C1076 C716 1.598 . S
C1087 C748 1.565 . S
C1085 C29 1.570 . S
C1096 C30 1.565 1_565 S
C1098 C801 1.554 . S
C1107 C5 1.572 . S
C1109 C847 1.570 . S
C1118 C18 1.626 . S
C1120 C886 1.613 . S
C1129 C49 1.561 . S
C1131 C840 1.550 . S
C1142 C893 1.609 . S
C1140 C62 1.620 . S
C1153 C794 1.564 . S
C1151 C70 1.560 . S
C1162 C75 1.560 . S
C1164 C755 1.551 . S
C1175 C649 1.569 . S
C1173 C44 1.565 . S
C1184 C57 1.625 . S
C1186 C695 1.606 . S
C1195 C88 1.657 . S
C1197 C925 1.645 . S
C1206 C101 1.659 . S
C1208 C992 1.637 . S
C1219 C1038 1.624 . S
C1217 C107 1.644 . S
C1228 C108 1.623 . S
C1230 C249 1.599 . S
C1239 C83 1.646 . S
C1241 C295 1.621 . S
C1250 C96 1.646 . S
C1252 C341 1.621 . S
C1261 C127 1.623 . S
C1263 C288 1.603 . S
C1272 C140 1.642 . S
C1274 C334 1.614 . S
C1285 C242 1.617 . S
C1283 C146 1.638 . S
C1296 C1017 1.633 . S
C1294 C147 1.657 . S
C1307 C946 1.638 . S
C1305 C122 1.649 . S
C1318 C971 1.642 . S
C1316 C135 1.665 . S
C1327 C160 1.625 . S
C1329 C373 1.610 . S
C1338 C173 1.641 . S
C1340 C426 1.626 . S
C1349 C185 1.639 . S
C1351 C472 1.625 . S
C1360 C186 1.655 . S
C1362 C518 1.642 . S
C1373 C571 1.629 . S
C1371 C159 1.652 . S
C1384 C617 1.639 . S
C1382 C172 1.666 . S
C1395 C564 1.636 . S
C1393 C205 1.658 . S
C1406 C610 1.635 . S
C1404 C218 1.662 . S
C1415 C224 1.643 . S
C1417 C525 1.632 . S
C1428 C479 1.607 . S
C1426 C225 1.622 . S
C1437 C200 1.645 . S
C1439 C394 1.634 . S
C1450 C433 1.634 . S
C1448 C213 1.647 . S
C1461 C256 1.536 . S
C1459 C4 1.548 . S
C1470 C17 1.519 . S
C1472 C302 1.507 . S
C1483 C348 1.538 . S
C1481 C31 1.550 . S
C1494 C380 1.528 . S
C1492 C36 1.547 . S
C1505 C419 1.532 . S
C1503 C3 1.554 . S
C1516 C465 1.502 . S
C1514 C16 1.523 . S
C1525 C43 1.551 . S
C1527 C486 1.535 . S
C1536 C56 1.518 . S
C1538 C387 1.496 . S
C1547 C68 1.546 . S
C1549 C440 1.521 . S
C1558 C69 1.552 . S
C1560 C281 1.547 . S
C1571 C327 1.539 . S
C1569 C42 1.550 . S
C1580 C55 1.523 . S
C1582 C235 1.509 . S
C1593 C511 1.520 . S
C1591 C82 1.543 . S
C1602 C95 1.565 . S
C1604 C578 1.554 . S
C1613 C109 1.576 . S
C1615 C624 1.561 . S
C1626 C663 1.482 . S
C1624 C114 1.483 . S
C1635 C81 1.549 . S
C1637 C709 1.539 . S
C1646 C94 1.488 . S
C1648 C741 1.485 . S
C1657 C121 1.485 . S
C1659 C762 1.477 . S
C1668 C134 1.480 . S
C1670 C656 1.482 . S
C1681 C702 1.534 . S
C1679 C148 1.546 . S
C1690 C153 1.546 . S
C1692 C557 1.531 . S
C1701 C120 1.578 . S
C1703 C603 1.565 . S
C1714 C532 1.548 . S
C1712 C133 1.569 . S
C1725 C808 1.483 . S
C1723 C166 1.482 . S
C1734 C179 1.479 . S
C1736 C854 1.481 . S
C1745 C187 1.545 . S
C1747 C879 1.526 . S
C1758 C932 1.521 . S
C1756 C192 1.543 . S
C1769 C985 1.567 . S
C1767 C161 1.579 . S
C1778 C174 1.569 . S
C1780 C1031 1.559 . S
C1789 C199 1.546 . S
C1791 C1024 1.531 . S
C1800 C212 1.564 . S
C1802 C939 1.545 . S
C1813 C978 1.562 . S
C1811 C226 1.573 . S
C1824 C833 1.481 . S
C1822 C231 1.479 . S
C1835 C900 1.532 . S
C1833 C198 1.550 . S
C1844 C211 1.488 . S
C1846 C787 1.487 . S
