# Generated by pormake.
# Topology ssa, (4,4)-cn, num edge types: 1
# Building blocks:
#     Node 0, Type 0, BuildingBlock: ESEHIV_clean_sbu_0, # of connection points: 4
#     Node 1, Type 0, BuildingBlock: ESEHIV_clean_sbu_0, # of connection points: 4
#     Node 2, Type 0, BuildingBlock: ESEHIV_clean_sbu_0, # of connection points: 4
#     Node 3, Type 0, BuildingBlock: ESEHIV_clean_sbu_0, # of connection points: 4
#     Node 4, Type 0, BuildingBlock: ESEHIV_clean_sbu_0, # of connection points: 4
#     Node 5, Type 0, BuildingBlock: ESEHIV_clean_sbu_0, # of connection points: 4
#     Node 6, Type 1, BuildingBlock: NAHDIM_clean_linker_0, # of connection points: 4
#     Node 7, Type 1, BuildingBlock: NAHDIM_clean_linker_0, # of connection points: 4
#     Node 8, Type 1, BuildingBlock: NAHDIM_clean_linker_0, # of connection points: 4
#     Node 9, Type 1, BuildingBlock: NAHDIM_clean_linker_0, # of connection points: 4
#     Node 10, Type 1, BuildingBlock: NAHDIM_clean_linker_0, # of connection points: 4
#     Node 11, Type 1, BuildingBlock: NAHDIM_clean_linker_0, # of connection points: 4
#     Edge 12, Type (0, 1), BuildingBlock: MIFKUJ_clean_linker_0, # of connection points: 2
#     Edge 13, Type (0, 1), BuildingBlock: MIFKUJ_clean_linker_0, # of connection points: 2
#     Edge 14, Type (0, 1), BuildingBlock: MIFKUJ_clean_linker_0, # of connection points: 2
#     Edge 15, Type (0, 1), BuildingBlock: MIFKUJ_clean_linker_0, # of connection points: 2
#     Edge 16, Type (0, 1), BuildingBlock: MIFKUJ_clean_linker_0, # of connection points: 2
#     Edge 17, Type (0, 1), BuildingBlock: MIFKUJ_clean_linker_0, # of connection points: 2
#     Edge 18, Type (0, 1), BuildingBlock: MIFKUJ_clean_linker_0, # of connection points: 2
#     Edge 19, Type (0, 1), BuildingBlock: MIFKUJ_clean_linker_0, # of connection points: 2
#     Edge 20, Type (0, 1), BuildingBlock: MIFKUJ_clean_linker_0, # of connection points: 2
#     Edge 21, Type (0, 1), BuildingBlock: MIFKUJ_clean_linker_0, # of connection points: 2
#     Edge 22, Type (0, 1), BuildingBlock: MIFKUJ_clean_linker_0, # of connection points: 2
#     Edge 23, Type (0, 1), BuildingBlock: MIFKUJ_clean_linker_0, # of connection points: 2
#     Edge 24, Type (0, 1), BuildingBlock: MIFKUJ_clean_linker_0, # of connection points: 2
#     Edge 25, Type (0, 1), BuildingBlock: MIFKUJ_clean_linker_0, # of connection points: 2
#     Edge 26, Type (0, 1), BuildingBlock: MIFKUJ_clean_linker_0, # of connection points: 2
#     Edge 27, Type (0, 1), BuildingBlock: MIFKUJ_clean_linker_0, # of connection points: 2
#     Edge 28, Type (0, 1), BuildingBlock: MIFKUJ_clean_linker_0, # of connection points: 2
#     Edge 29, Type (0, 1), BuildingBlock: MIFKUJ_clean_linker_0, # of connection points: 2
#     Edge 30, Type (0, 1), BuildingBlock: MIFKUJ_clean_linker_0, # of connection points: 2
#     Edge 31, Type (0, 1), BuildingBlock: MIFKUJ_clean_linker_0, # of connection points: 2
#     Edge 32, Type (0, 1), BuildingBlock: MIFKUJ_clean_linker_0, # of connection points: 2
#     Edge 33, Type (0, 1), BuildingBlock: MIFKUJ_clean_linker_0, # of connection points: 2
#     Edge 34, Type (0, 1), BuildingBlock: MIFKUJ_clean_linker_0, # of connection points: 2
#     Edge 35, Type (0, 1), BuildingBlock: MIFKUJ_clean_linker_0, # of connection points: 2
# Relax obj value: 0.016
# Max RMSD: 0.105
# Mean RMSD: 0.070
data_MOF--net-ssa--node1-ESEHIV_clean_sbu_0--node2-NAHDIM_clean_linker_0--edge1-MIFKUJ_clean_linker_0
_symmetry_space_group_name_H-M    P1
_symmetry_Int_Tables_number       1
_symmetry_cell_setting            triclinic
loop_
_symmetry_equiv_pos_as_xyz
'x, y, z'
_cell_length_a     75.100808
_cell_length_b     78.558673
_cell_length_c     66.350254
_cell_angle_alpha  88.718737
_cell_angle_beta   90.905569
_cell_angle_gamma 121.56055
loop_
_atom_site_label
_atom_site_type_symbol
_atom_site_fract_x
_atom_site_fract_y
_atom_site_fract_z
_atom_type_partial_charge
Cu0 Cu 0.03901 0.51231 0.99567 0.0
N1 N 0.04161 0.49796 0.97504 0.0
N2 N 0.03181 0.47332 0.95329 0.0
C3 C 0.02591 0.48022 0.9686 0.0
C4 C 0.05197 0.4874 0.94968 0.0
C5 C 0.05804 0.50261 0.96325 0.0
O6 O 0.01503 0.51484 0.98924 0.0
C7 C 0.03944 0.48456 0.02397 0.0
O8 O 0.04097 0.47598 0.00792 0.0
H9 H 0.01038 0.47259 0.975 0.0
H10 H 0.07328 0.51608 0.9644 0.0
N11 N 0.06217 0.53811 0.99715 0.0
N12 N 0.08397 0.56767 0.01098 0.0
C13 C 0.06911 0.54835 0.01435 0.0
C14 C 0.07303 0.55133 0.98228 0.0
C15 C 0.08653 0.56964 0.99079 0.0
C16 C 0.01326 0.51887 0.97087 0.0
O17 O 0.02727 0.52092 0.95784 0.0
H18 H 0.06234 0.54202 0.02894 0.0
H19 H 0.0706 0.54813 0.96636 0.0
O20 O 0.03717 0.4995 0.02187 0.0
H21 H 0.06165 0.48659 0.93828 0.0
H22 H 0.09692 0.58343 0.98272 0.0
Cu23 Cu 0.52294 0.00945 0.51606 0.0
N24 N 0.54147 0.01195 0.49601 0.0
N25 N 0.55629 0.00232 0.47355 0.0
C26 C 0.54044 0.99644 0.48665 0.0
C27 C 0.56771 0.02246 0.47471 0.0
C28 C 0.55852 0.02835 0.48858 0.0
O29 O 0.49523 0.98742 0.50915 0.0
C30 C 0.54571 1.00041 0.54466 0.0
O31 O 0.54966 0.99252 0.52944 0.0
H32 H 0.52865 0.98108 0.49013 0.0
H33 H 0.56409 0.04346 0.49319 0.0
N34 N 0.52104 0.03209 0.51761 0.0
N35 N 0.51241 0.05288 0.53044 0.0
C36 C 0.51332 0.03631 0.5336 0.0
C37 C 0.52521 0.04643 0.50373 0.0
C38 C 0.51997 0.05935 0.51165 0.0
C39 C 0.48976 0.98772 0.49096 0.0
O40 O 0.50279 0.00231 0.47886 0.0
H41 H 0.50837 0.02724 0.54725 0.0
H42 H 0.53114 0.04717 0.48879 0.0
O43 O 0.5332 0.00663 0.54221 0.0
H44 H 0.58181 0.03231 0.46634 0.0
H45 H 0.52105 0.07213 0.50391 0.0
Cu46 Cu 0.52331 0.50154 0.03095 0.0
N47 N 0.52193 0.47724 0.02875 0.0
N48 N 0.51599 0.44923 0.01449 0.0
C49 C 0.51798 0.46718 0.01147 0.0
C50 C 0.51889 0.44797 0.03447 0.0
C51 C 0.52263 0.46533 0.04323 0.0
O52 O 0.5326 0.51454 0.00468 0.0
C53 C 0.49019 0.4886 0.05635 0.0
O54 O 0.50312 0.4859 0.06754 0.0
H55 H 0.51567 0.47257 0.9971 0.0
H56 H 0.52516 0.46876 0.05909 0.0
N57 N 0.54216 0.51726 0.05109 0.0
N58 N 0.5573 0.54072 0.07451 0.0
C59 C 0.54278 0.53289 0.05977 0.0
C60 C 0.55674 0.51505 0.06077 0.0
C61 C 0.56607 0.52949 0.07534 0.0
C62 C 0.54641 0.53291 0.00198 0.0
O63 O 0.5527 0.54499 0.01735 0.0
H64 H 0.53254 0.53824 0.05553 0.0
H65 H 0.56023 0.50366 0.05756 0.0
O66 O 0.49579 0.49581 0.0386 0.0
H67 H 0.51809 0.43531 0.04222 0.0
H68 H 0.57847 0.53173 0.08556 0.0
Cu69 Cu 0.98446 0.48805 0.50549 0.0
N70 N 0.97909 0.47178 0.48332 0.0
N71 N 0.98686 0.45757 0.45886 0.0
C72 C 0.99369 0.4739 0.47028 0.0
C73 C 0.96703 0.44473 0.46486 0.0
C74 C 0.96236 0.45345 0.48003 0.0
O75 O 0.007 0.51488 0.49843 0.0
C76 C 0.98702 0.47659 0.54628 0.0
O77 O 0.9829 0.49018 0.55151 0.0
H78 H 0.00964 0.48639 0.4705 0.0
H79 H 0.94843 0.44616 0.48915 0.0
N80 N 0.96148 0.49006 0.51203 0.0
N81 N 0.94363 0.50119 0.52808 0.0
C82 C 0.96267 0.50455 0.52349 0.0
C83 C 0.94093 0.47728 0.50881 0.0
C84 C 0.92989 0.48412 0.51867 0.0
C85 C 0.02629 0.52103 0.49651 0.0
O86 O 0.03304 0.50904 0.50127 0.0
H87 H 0.97731 0.51693 0.52897 0.0
H88 H 0.93429 0.46354 0.50062 0.0
O89 O 0.99016 0.47503 0.5278 0.0
H90 H 0.95701 0.42963 0.4596 0.0
H91 H 0.91305 0.4765 0.51974 0.0
Cu92 Cu 0.5247 0.01658 0.03047 0.0
N93 N 0.51795 0.03624 0.02754 0.0
N94 N 0.508 0.05594 0.01299 0.0
C95 C 0.51606 0.04431 0.01015 0.0
C96 C 0.50506 0.05537 0.0331 0.0
C97 C 0.51119 0.0432 0.042 0.0
O98 O 0.54122 0.01764 0.00774 0.0
C99 C 0.48112 0.98676 0.03191 0.0
O100 O 0.47851 0.99915 0.02046 0.0
H101 H 0.51997 0.04122 0.99565 0.0
H102 H 0.50988 0.03893 0.05777 0.0
N103 N 0.54159 0.02161 0.05301 0.0
N104 N 0.55747 0.01528 0.07817 0.0
C105 C 0.54204 0.0074 0.06427 0.0
C106 C 0.55722 0.03915 0.05998 0.0
C107 C 0.56711 0.03528 0.07555 0.0
C108 C 0.53587 0.0146 0.98927 0.0
O109 O 0.51648 0.00836 0.98403 0.0
H110 H 0.53191 0.99158 0.06156 0.0
H111 H 0.56156 0.05364 0.05372 0.0
O112 O 0.49956 0.9908 0.03589 0.0
H113 H 0.49794 0.06232 0.04078 0.0
H114 H 0.58056 0.04628 0.084 0.0
Cu115 Cu 0.51322 0.49649 0.51085 0.0
N116 N 0.52623 0.50849 0.48651 0.0
N117 N 0.5423 0.53321 0.46369 0.0
C118 C 0.53866 0.52831 0.48346 0.0
C119 C 0.532 0.51567 0.45394 0.0
C120 C 0.52195 0.50045 0.46807 0.0
O121 O 0.48509 0.49157 0.50929 0.0
C122 C 0.52553 0.51188 0.55076 0.0
O123 O 0.50627 0.49863 0.5561 0.0
H124 H 0.54382 0.53897 0.49551 0.0
H125 H 0.51112 0.48482 0.46502 0.0
N126 N 0.51113 0.47195 0.51479 0.0
N127 N 0.50284 0.44295 0.52961 0.0
C128 C 0.50252 0.45988 0.531 0.0
C129 C 0.51717 0.46237 0.5027 0.0
C130 C 0.51195 0.44436 0.51178 0.0
C131 C 0.48137 0.50421 0.50112 0.0
O132 O 0.49709 0.52231 0.49702 0.0
H133 H 0.49567 0.4632 0.54335 0.0
H134 H 0.52478 0.46802 0.48831 0.0
O135 O 0.53058 0.51385 0.53228 0.0
H136 H 0.53051 0.51405 0.43774 0.0
H137 H 0.51477 0.43326 0.50583 0.0
C138 C 0.15441 0.4263 0.39959 0.0
C139 C 0.14794 0.43372 0.38098 0.0
C140 C 0.15896 0.42289 0.352 0.0
C141 C 0.17491 0.44144 0.34439 0.0
C142 C 0.19035 0.44272 0.33172 0.0
C143 C 0.18966 0.42506 0.32633 0.0
C144 C 0.17313 0.40629 0.33329 0.0
C145 C 0.15787 0.40545 0.34594 0.0
C146 C 0.2075 0.46295 0.32416 0.0
C147 C 0.17176 0.38717 0.32753 0.0
C148 C 0.3267 0.43795 0.39104 0.0
C149 C 0.31013 0.42934 0.37521 0.0
C150 C 0.29146 0.43968 0.35213 0.0
C151 C 0.27736 0.42051 0.34466 0.0
C152 C 0.26125 0.41737 0.33126 0.0
C153 C 0.25943 0.43372 0.32495 0.0
C154 C 0.27422 0.45314 0.3317 0.0
C155 C 0.28997 0.45582 0.34527 0.0
C156 C 0.24578 0.39649 0.32429 0.0
C157 C 0.27297 0.471 0.32512 0.0
C158 C 0.28787 0.43727 0.19017 0.0
C159 C 0.26971 0.41862 0.19425 0.0
C160 C 0.25396 0.4171 0.20666 0.0
C161 C 0.25619 0.43457 0.21492 0.0
C162 C 0.27427 0.45337 0.21063 0.0
C163 C 0.28993 0.45443 0.19841 0.0
C164 C 0.23487 0.3968 0.21094 0.0
C165 C 0.27701 0.47234 0.21891 0.0
C166 C 0.11135 0.42509 0.20963 0.0
C167 C 0.12818 0.43977 0.19492 0.0
C168 C 0.15557 0.43184 0.19721 0.0
C169 C 0.15627 0.41442 0.19788 0.0
C170 C 0.17252 0.41383 0.20797 0.0
C171 C 0.18873 0.4313 0.21716 0.0
C172 C 0.18861 0.44925 0.21571 0.0
C173 C 0.17199 0.44932 0.20579 0.0
C174 C 0.17225 0.39449 0.20902 0.0
C175 C 0.20603 0.46835 0.22468 0.0
C176 C 0.20654 0.42634 0.31381 0.0
C177 C 0.22393 0.42806 0.32374 0.0
C178 C 0.24097 0.43038 0.31302 0.0
C179 C 0.24055 0.43065 0.29168 0.0
C180 C 0.25723 0.43264 0.28035 0.0
C181 C 0.25673 0.43315 0.25934 0.0
C182 C 0.23975 0.43211 0.24888 0.0
C183 C 0.2393 0.43315 0.22756 0.0
C184 C 0.22244 0.43268 0.21772 0.0
C185 C 0.20568 0.43081 0.22854 0.0
C186 C 0.20552 0.42911 0.24982 0.0
C187 C 0.18859 0.42657 0.26114 0.0
C188 C 0.18879 0.42543 0.28208 0.0
C189 C 0.20595 0.42686 0.29252 0.0
C190 C 0.22303 0.42906 0.28142 0.0
C191 C 0.22274 0.43004 0.26002 0.0
C192 C 0.31092 0.41336 0.18473 0.0
C193 C 0.30519 0.42457 0.16927 0.0
O194 O 0.14425 0.42125 0.36492 0.0
O195 O 0.13916 0.43142 0.18776 0.0
O196 O 0.30376 0.43946 0.17857 0.0
O197 O 0.3064 0.44327 0.36615 0.0
H198 H 0.16102 0.44916 0.37766 0.0
H199 H 0.16933 0.42708 0.3966 0.0
H200 H 0.14235 0.41056 0.40341 0.0
H201 H 0.1568 0.43582 0.41273 0.0
H202 H 0.17526 0.45496 0.34804 0.0
H203 H 0.14527 0.39117 0.35157 0.0
H204 H 0.2229 0.46564 0.32923 0.0
H205 H 0.20575 0.47527 0.3296 0.0
H206 H 0.2075 0.46334 0.30743 0.0
H207 H 0.15755 0.37371 0.33364 0.0
H208 H 0.18576 0.38722 0.33328 0.0
H209 H 0.17166 0.38617 0.31086 0.0
H210 H 0.29562 0.41521 0.37986 0.0
H211 H 0.31853 0.43028 0.40552 0.0
H212 H 0.32886 0.45279 0.39495 0.0
H213 H 0.35068 0.43521 0.37907 0.0
H214 H 0.27858 0.40791 0.34946 0.0
H215 H 0.30102 0.47056 0.35093 0.0
H216 H 0.2299 0.3919 0.32957 0.0
H217 H 0.2497 0.38543 0.32998 0.0
H218 H 0.24528 0.39621 0.30756 0.0
H219 H 0.28701 0.48532 0.32972 0.0
H220 H 0.25901 0.4699 0.33197 0.0
H221 H 0.27118 0.47121 0.30849 0.0
H222 H 0.28997 0.41388 0.16202 0.0
H223 H 0.26766 0.40515 0.18791 0.0
H224 H 0.30391 0.46876 0.19516 0.0
H225 H 0.23236 0.39432 0.22746 0.0
H226 H 0.23616 0.3845 0.20465 0.0
H227 H 0.22087 0.39614 0.20428 0.0
H228 H 0.29151 0.48588 0.21338 0.0
H229 H 0.2776 0.47184 0.23562 0.0
H230 H 0.2634 0.47362 0.21458 0.0
H231 H 0.13875 0.45371 0.2032 0.0
H232 H 0.10233 0.43151 0.2154 0.0
H233 H 0.11877 0.42203 0.22268 0.0
H234 H 0.10046 0.41073 0.20213 0.0
H235 H 0.14371 0.4011 0.19087 0.0
H236 H 0.17211 0.46313 0.20448 0.0
H237 H 0.17357 0.39062 0.22495 0.0
H238 H 0.18594 0.39634 0.2008 0.0
H239 H 0.1578 0.38189 0.20233 0.0
H240 H 0.20476 0.48145 0.22049 0.0
H241 H 0.22141 0.47124 0.21962 0.0
H242 H 0.20562 0.46683 0.24137 0.0
H243 H 0.22442 0.42804 0.3401 0.0
H244 H 0.2708 0.43377 0.28763 0.0
H245 H 0.26996 0.43462 0.2514 0.0
H246 H 0.2224 0.43384 0.20139 0.0
H247 H 0.175 0.42547 0.25394 0.0
H248 H 0.17536 0.42355 0.29 0.0
H249 H 0.32597 0.42384 0.19233 0.0
H250 H 0.31239 0.40167 0.17717 0.0
H251 H 0.29871 0.4059 0.19645 0.0
C252 C 0.84872 0.29237 0.87921 0.0
C253 C 0.86721 0.29264 0.86935 0.0
C254 C 0.8521 0.27572 0.83789 0.0
C255 C 0.85432 0.25909 0.83882 0.0
C256 C 0.84131 0.24213 0.82732 0.0
C257 C 0.82561 0.24177 0.8149 0.0
C258 C 0.82328 0.25855 0.81413 0.0
C259 C 0.83692 0.2755 0.82532 0.0
C260 C 0.84444 0.22466 0.82832 0.0
C261 C 0.80638 0.25861 0.80155 0.0
C262 C 0.7094 0.0941 0.83905 0.0
C263 C 0.71127 0.10977 0.85375 0.0
C264 C 0.72941 0.14121 0.83375 0.0
C265 C 0.72692 0.15575 0.82392 0.0
C266 C 0.74355 0.17194 0.81358 0.0
C267 C 0.76318 0.17351 0.81289 0.0
C268 C 0.76591 0.15894 0.8229 0.0
C269 C 0.74906 0.14299 0.83329 0.0
C270 C 0.7401 0.18732 0.80329 0.0
C271 C 0.78664 0.16017 0.82246 0.0
C272 C 0.74152 0.13715 0.68742 0.0
C273 C 0.73748 0.15211 0.69214 0.0
C274 C 0.75312 0.1701 0.7006 0.0
C275 C 0.7731 0.17299 0.7046 0.0
C276 C 0.77753 0.15838 0.69871 0.0
C277 C 0.76166 0.14068 0.68993 0.0
C278 C 0.74806 0.18565 0.706 0.0
C279 C 0.79871 0.1611 0.7025 0.0
C280 C 0.91599 0.30401 0.6898 0.0
C281 C 0.90155 0.29942 0.67145 0.0
C282 C 0.86676 0.2767 0.68637 0.0
C283 C 0.84834 0.27531 0.69256 0.0
C284 C 0.8325 0.25806 0.70237 0.0
C285 C 0.83529 0.24181 0.70632 0.0
C286 C 0.85369 0.2429 0.69974 0.0
C287 C 0.86917 0.26025 0.6897 0.0
C288 C 0.81291 0.25732 0.70877 0.0
C289 C 0.85713 0.22582 0.70359 0.0
C290 C 0.81167 0.22394 0.80266 0.0
C291 C 0.79503 0.20735 0.81237 0.0
C292 C 0.78081 0.19036 0.80164 0.0
C293 C 0.78311 0.18989 0.78057 0.0
C294 C 0.76919 0.17304 0.76931 0.0
C295 C 0.77113 0.17298 0.74851 0.0
C296 C 0.78699 0.18983 0.73809 0.0
C297 C 0.78851 0.19021 0.71683 0.0
C298 C 0.80445 0.20721 0.70694 0.0
C299 C 0.81917 0.22393 0.71777 0.0
C300 C 0.81798 0.22371 0.73908 0.0
C301 C 0.83272 0.24005 0.75052 0.0
C302 C 0.83094 0.24001 0.77137 0.0
C303 C 0.81425 0.2237 0.7816 0.0
C304 C 0.79972 0.20674 0.77049 0.0
C305 C 0.80162 0.20673 0.74921 0.0
C306 C 0.71 0.09284 0.70534 0.0
C307 C 0.70751 0.10693 0.6909 0.0
O308 O 0.86474 0.29234 0.84859 0.0
O309 O 0.88168 0.29418 0.67752 0.0
O310 O 0.72613 0.11911 0.68074 0.0
O311 O 0.71246 0.12581 0.84325 0.0
H312 H 0.86748 0.27925 0.87472 0.0
H313 H 0.83382 0.27881 0.87466 0.0
H314 H 0.84823 0.30577 0.87444 0.0
H315 H 0.84989 0.29203 0.89591 0.0
H316 H 0.86649 0.25955 0.84822 0.0
H317 H 0.83549 0.28854 0.82467 0.0
H318 H 0.83076 0.21172 0.83574 0.0
H319 H 0.85874 0.22812 0.83692 0.0
H320 H 0.84554 0.22013 0.81288 0.0
H321 H 0.80442 0.27125 0.80529 0.0
H322 H 0.7912 0.24439 0.80377 0.0
H323 H 0.81046 0.25995 0.78536 0.0
H324 H 0.72558 0.11508 0.86313 0.0
H325 H 0.70801 0.08109 0.84752 0.0
H326 H 0.72344 0.10046 0.82935 0.0
H327 H 0.69548 0.08883 0.82913 0.0
H328 H 0.71179 0.15435 0.82436 0.0
H329 H 0.75143 0.13199 0.84085 0.0
H330 H 0.74191 0.18698 0.78676 0.0
H331 H 0.75206 0.20251 0.80843 0.0
H332 H 0.72433 0.18468 0.80632 0.0
H333 H 0.78604 0.14719 0.8302 0.0
H334 H 0.79875 0.17406 0.8299 0.0
H335 H 0.79157 0.16093 0.80661 0.0
H336 H 0.70343 0.11606 0.70014 0.0
H337 H 0.72202 0.1496 0.68944 0.0
H338 H 0.76466 0.12912 0.68587 0.0
H339 H 0.74674 0.18584 0.72262 0.0
H340 H 0.73312 0.1826 0.69908 0.0
H341 H 0.7608 0.20073 0.70104 0.0
H342 H 0.79969 0.14837 0.69695 0.0
H343 H 0.80221 0.16266 0.71892 0.0
H344 H 0.81092 0.17504 0.69492 0.0
H345 H 0.9006 0.2869 0.66298 0.0
H346 H 0.93201 0.3087 0.68482 0.0
H347 H 0.91027 0.29061 0.69972 0.0
H348 H 0.91677 0.31614 0.69882 0.0
H349 H 0.84648 0.28794 0.68982 0.0
H350 H 0.88313 0.26084 0.68473 0.0
H351 H 0.81239 0.25743 0.72547 0.0
H352 H 0.79887 0.24326 0.70364 0.0
H353 H 0.81213 0.2702 0.70265 0.0
H354 H 0.87275 0.22936 0.6985 0.0
H355 H 0.84497 0.21241 0.69554 0.0
H356 H 0.85557 0.222 0.71994 0.0
H357 H 0.79299 0.20775 0.82847 0.0
H358 H 0.75654 0.15973 0.77645 0.0
H359 H 0.75987 0.15957 0.74069 0.0
H360 H 0.80531 0.20749 0.69062 0.0
H361 H 0.84574 0.25312 0.74346 0.0
H362 H 0.8427 0.25304 0.77935 0.0
H363 H 0.69515 0.08288 0.71349 0.0
H364 H 0.72236 0.10167 0.71666 0.0
H365 H 0.7145 0.08355 0.69701 0.0
C366 C 0.6517 0.74504 0.39731 0.0
C367 C 0.63047 0.73367 0.38669 0.0
C368 C 0.62827 0.74836 0.35495 0.0
C369 C 0.60788 0.74463 0.35493 0.0
C370 C 0.60265 0.75656 0.34327 0.0
C371 C 0.61832 0.77277 0.33172 0.0
C372 C 0.63897 0.77657 0.33187 0.0
C373 C 0.64353 0.76398 0.34314 0.0
C374 C 0.58042 0.75182 0.3433 0.0
C375 C 0.6563 0.79402 0.3203 0.0
C376 C 0.58246 0.87964 0.38982 0.0
C377 C 0.58451 0.86303 0.38227 0.0
C378 C 0.59817 0.85426 0.35388 0.0
C379 C 0.61763 0.86051 0.34545 0.0
C380 C 0.6209 0.84732 0.33442 0.0
C381 C 0.60405 0.82755 0.33128 0.0
C382 C 0.58416 0.82131 0.33931 0.0
C383 C 0.58143 0.83471 0.35054 0.0
C384 C 0.64232 0.85448 0.3261 0.0
C385 C 0.56573 0.80051 0.33586 0.0
C386 C 0.60168 0.85982 0.20297 0.0
C387 C 0.6207 0.86209 0.20952 0.0
C388 C 0.62122 0.84619 0.21895 0.0
C389 C 0.60236 0.82769 0.22205 0.0
C390 C 0.5833 0.8251 0.21478 0.0
C391 C 0.58326 0.84119 0.20519 0.0
C392 C 0.64191 0.84933 0.22607 0.0
C393 C 0.56294 0.80553 0.21775 0.0
C394 C 0.63121 0.713 0.20955 0.0
C395 C 0.60957 0.70693 0.20121 0.0
C396 C 0.60899 0.73737 0.20152 0.0
C397 C 0.62601 0.75699 0.2017 0.0
C398 C 0.62522 0.77178 0.21243 0.0
C399 C 0.60663 0.76686 0.22261 0.0
C400 C 0.58902 0.74714 0.22166 0.0
C401 C 0.59051 0.73253 0.21131 0.0
C402 C 0.64433 0.79258 0.21308 0.0
C403 C 0.56866 0.74146 0.2316 0.0
C404 C 0.61321 0.78587 0.31966 0.0
C405 C 0.61112 0.80014 0.32983 0.0
C406 C 0.60705 0.81342 0.31938 0.0
C407 C 0.60547 0.8128 0.2981 0.0
C408 C 0.60199 0.82629 0.28706 0.0
C409 C 0.60101 0.82592 0.26611 0.0
C410 C 0.60305 0.81178 0.25538 0.0
C411 C 0.60255 0.8116 0.23407 0.0
C412 C 0.60351 0.79671 0.22388 0.0
C413 C 0.60568 0.78226 0.23442 0.0
C414 C 0.60731 0.78286 0.25573 0.0
C415 C 0.61054 0.76921 0.2668 0.0
C416 C 0.61223 0.77001 0.28773 0.0
C417 C 0.61096 0.7846 0.29842 0.0
C418 C 0.60739 0.79831 0.2876 0.0
C419 C 0.60582 0.79759 0.26623 0.0
C420 C 0.61727 0.90269 0.21752 0.0
C421 C 0.61514 0.89543 0.19582 0.0
O422 O 0.6335 0.73694 0.36608 0.0
O423 O 0.61057 0.72329 0.19167 0.0
O424 O 0.6003 0.87515 0.19481 0.0
O425 O 0.59592 0.86756 0.3646 0.0
H426 H 0.62084 0.73956 0.39231 0.0
H427 H 0.65946 0.76124 0.39362 0.0
H428 H 0.66195 0.73966 0.39235 0.0
H429 H 0.64973 0.74305 0.41393 0.0
H430 H 0.59604 0.73223 0.36386 0.0
H431 H 0.65922 0.76661 0.34324 0.0
H432 H 0.57972 0.76355 0.35163 0.0
H433 H 0.56958 0.73712 0.3506 0.0
H434 H 0.57496 0.7518 0.32764 0.0
H435 H 0.67195 0.79684 0.32468 0.0
H436 H 0.656 0.8078 0.32283 0.0
H437 H 0.65404 0.79093 0.30393 0.0
H438 H 0.56969 0.84819 0.3824 0.0
H439 H 0.5992 0.88723 0.41699 0.0
H440 H 0.56525 0.87395 0.38904 0.0
H441 H 0.58672 0.89053 0.37682 0.0
H442 H 0.63039 0.8757 0.34787 0.0
H443 H 0.56606 0.82996 0.35622 0.0
H444 H 0.64162 0.85433 0.30937 0.0
H445 H 0.64757 0.84421 0.33107 0.0
H446 H 0.65409 0.86985 0.33096 0.0
H447 H 0.55105 0.79824 0.34227 0.0
H448 H 0.5689 0.7894 0.34288 0.0
H449 H 0.56343 0.79754 0.31944 0.0
H450 H 0.63047 0.89826 0.19059 0.0
H451 H 0.63518 0.87624 0.20758 0.0
H452 H 0.56869 0.83949 0.19991 0.0
H453 H 0.64237 0.84923 0.2428 0.0
H454 H 0.65537 0.86373 0.2205 0.0
H455 H 0.64373 0.83696 0.22096 0.0
H456 H 0.54944 0.8059 0.21119 0.0
H457 H 0.56017 0.80191 0.2341 0.0
H458 H 0.56384 0.79334 0.21064 0.0
H459 H 0.59842 0.70171 0.21405 0.0
H460 H 0.63072 0.70015 0.21747 0.0
H461 H 0.63642 0.72521 0.22053 0.0
H462 H 0.64281 0.71834 0.19715 0.0
H463 H 0.64014 0.76053 0.19387 0.0
H464 H 0.57723 0.71735 0.21069 0.0
H465 H 0.64803 0.79774 0.22889 0.0
H466 H 0.64116 0.80305 0.20456 0.0
H467 H 0.65822 0.79336 0.20641 0.0
H468 H 0.55566 0.72656 0.22683 0.0
H469 H 0.56439 0.75276 0.22797 0.0
H470 H 0.57043 0.74107 0.24821 0.0
H471 H 0.61269 0.80094 0.34612 0.0
H472 H 0.60024 0.83746 0.29447 0.0
H473 H 0.59853 0.83682 0.25843 0.0
H474 H 0.60287 0.79656 0.20754 0.0
H475 H 0.61191 0.75781 0.25941 0.0
H476 H 0.61462 0.75906 0.29542 0.0
H477 H 0.62884 0.91899 0.21823 0.0
H478 H 0.62278 0.895 0.22774 0.0
H479 H 0.60198 0.89965 0.22308 0.0
C480 C 0.72963 0.57464 0.89751 0.0
C481 C 0.71796 0.57826 0.88039 0.0
C482 C 0.73156 0.56926 0.85172 0.0
C483 C 0.75005 0.58788 0.84873 0.0
C484 C 0.7659 0.58981 0.83618 0.0
C485 C 0.76344 0.57273 0.82673 0.0
C486 C 0.74486 0.55396 0.82971 0.0
C487 C 0.729 0.55257 0.84188 0.0
C488 C 0.78533 0.61015 0.83306 0.0
C489 C 0.74181 0.53535 0.82016 0.0
C490 C 0.91166 0.60579 0.85673 0.0
C491 C 0.89372 0.58903 0.86916 0.0
C492 C 0.86333 0.57649 0.84616 0.0
C493 C 0.84902 0.56016 0.83473 0.0
C494 C 0.83306 0.56042 0.82367 0.0
C495 C 0.83172 0.57774 0.82365 0.0
C496 C 0.84626 0.59443 0.83507 0.0
C497 C 0.86173 0.59355 0.84641 0.0
C498 C 0.81753 0.54208 0.81219 0.0
C499 C 0.84539 0.61318 0.83547 0.0
C500 C 0.86628 0.59712 0.69106 0.0
C501 C 0.85198 0.57786 0.69843 0.0
C502 C 0.83479 0.57424 0.71 0.0
C503 C 0.83215 0.59032 0.71455 0.0
C504 C 0.8464 0.60969 0.70677 0.0
C505 C 0.86313 0.61275 0.69483 0.0
C506 C 0.81945 0.55323 0.71731 0.0
C507 C 0.84408 0.62719 0.71121 0.0
C508 C 0.68628 0.57321 0.71513 0.0
C509 C 0.69515 0.57901 0.6937 0.0
C510 C 0.72461 0.57383 0.69824 0.0
C511 C 0.72899 0.55861 0.69852 0.0
C512 C 0.74688 0.56102 0.70826 0.0
C513 C 0.7611 0.57943 0.71744 0.0
C514 C 0.75733 0.5953 0.71629 0.0
C515 C 0.73897 0.59226 0.70697 0.0
C516 C 0.75036 0.54376 0.70907 0.0
C517 C 0.77258 0.61542 0.72512 0.0
C518 C 0.78043 0.57462 0.81387 0.0
C519 C 0.79743 0.57512 0.82341 0.0
C520 C 0.81457 0.57804 0.81239 0.0
C521 C 0.81493 0.5808 0.7912 0.0
C522 C 0.83231 0.58478 0.7797 0.0
C523 C 0.83231 0.58704 0.75882 0.0
C524 C 0.81485 0.58523 0.74859 0.0
C525 C 0.81443 0.5869 0.72732 0.0
C526 C 0.79685 0.58516 0.7177 0.0
C527 C 0.77954 0.58179 0.72871 0.0
C528 C 0.7797 0.58012 0.75 0.0
C529 C 0.76261 0.57681 0.76159 0.0
C530 C 0.76298 0.57538 0.7825 0.0
C531 C 0.78014 0.57651 0.79264 0.0
C532 C 0.79747 0.57966 0.78128 0.0
C533 C 0.79736 0.58172 0.75994 0.0
C534 C 0.91675 0.61412 0.69374 0.0
C535 C 0.89725 0.59547 0.68542 0.0
O536 O 0.71593 0.56672 0.86395 0.0
O537 O 0.7064 0.57005 0.68948 0.0
O538 O 0.88298 0.6009 0.67989 0.0
O539 O 0.87831 0.57506 0.85654 0.0
H540 H 0.72675 0.59434 0.87601 0.0
H541 H 0.74548 0.57886 0.8925 0.0
H542 H 0.72097 0.55862 0.90218 0.0
H543 H 0.73148 0.58385 0.91076 0.0
H544 H 0.75224 0.60105 0.85591 0.0
H545 H 0.71467 0.53828 0.84421 0.0
H546 H 0.79885 0.61032 0.84026 0.0
H547 H 0.7839 0.62227 0.83963 0.0
H548 H 0.78873 0.61336 0.81672 0.0
H549 H 0.72739 0.52164 0.82552 0.0
H550 H 0.75544 0.53382 0.82352 0.0
H551 H 0.74078 0.53656 0.80354 0.0
H552 H 0.88695 0.59554 0.87893 0.0
H553 H 0.92414 0.61674 0.8669 0.0
H554 H 0.9061 0.61391 0.84727 0.0
H555 H 0.91847 0.59959 0.84661 0.0
H556 H 0.85028 0.54703 0.83466 0.0
H557 H 0.87246 0.60628 0.85534 0.0
H558 H 0.81988 0.54532 0.79576 0.0
H559 H 0.80132 0.53794 0.81572 0.0
H560 H 0.81919 0.52908 0.81573 0.0
H561 H 0.85986 0.62596 0.8419 0.0
H562 H 0.83199 0.61037 0.84487 0.0
H563 H 0.84293 0.61739 0.82005 0.0
H564 H 0.89095 0.58393 0.69769 0.0
H565 H 0.85409 0.56564 0.69487 0.0
H566 H 0.87415 0.62751 0.68879 0.0
H567 H 0.82079 0.55232 0.73393 0.0
H568 H 0.82224 0.54208 0.71042 0.0
H569 H 0.8032 0.54922 0.7138 0.0
H570 H 0.85752 0.64158 0.70559 0.0
H571 H 0.84262 0.62819 0.72771 0.0
H572 H 0.82958 0.62492 0.70398 0.0
H573 H 0.70548 0.59552 0.69239 0.0
H574 H 0.67726 0.58031 0.71874 0.0
H575 H 0.69915 0.57836 0.72635 0.0
H576 H 0.6759 0.55673 0.71668 0.0
H577 H 0.71795 0.54453 0.69156 0.0
H578 H 0.73606 0.60436 0.7065 0.0
H579 H 0.75291 0.54061 0.7249 0.0
H580 H 0.76462 0.54776 0.70044 0.0
H581 H 0.73697 0.52994 0.70266 0.0
H582 H 0.76913 0.62702 0.72024 0.0
H583 H 0.7888 0.62037 0.72064 0.0
H584 H 0.77184 0.61423 0.74182 0.0
H585 H 0.79735 0.57328 0.83967 0.0
H586 H 0.84612 0.58619 0.78673 0.0
H587 H 0.84613 0.59009 0.75078 0.0
H588 H 0.79659 0.58634 0.70138 0.0
H589 H 0.74878 0.57541 0.75465 0.0
H590 H 0.74948 0.5731 0.7906 0.0
H591 H 0.92555 0.625 0.68138 0.0
H592 H 0.9271 0.61011 0.70188 0.0
H593 H 0.91205 0.62148 0.70477 0.0
C594 C 0.15355 0.71993 0.39648 0.0
C595 C 0.14307 0.70384 0.38032 0.0
C596 C 0.16928 0.72004 0.35333 0.0
C597 C 0.16465 0.73473 0.34783 0.0
C598 C 0.17774 0.7506 0.33469 0.0
C599 C 0.19577 0.7518 0.32681 0.0
C600 C 0.19998 0.7366 0.33163 0.0
C601 C 0.18658 0.72086 0.34473 0.0
C602 C 0.17264 0.7664 0.32963 0.0
C603 C 0.21901 0.73735 0.32345 0.0
C604 C 0.30276 0.89641 0.36332 0.0
C605 C 0.30135 0.87949 0.3766 0.0
C606 C 0.28754 0.85093 0.35359 0.0
C607 C 0.29242 0.83824 0.34402 0.0
C608 C 0.27769 0.82258 0.33199 0.0
C609 C 0.25771 0.81995 0.32897 0.0
C610 C 0.25261 0.83274 0.33861 0.0
C611 C 0.26747 0.84794 0.35104 0.0
C612 C 0.2835 0.80882 0.3226 0.0
C613 C 0.23143 0.83033 0.33579 0.0
C614 C 0.29558 0.853 0.19525 0.0
C615 C 0.2985 0.83899 0.20591 0.0
C616 C 0.28246 0.82392 0.21785 0.0
C617 C 0.26314 0.82294 0.21932 0.0
C618 C 0.26017 0.83705 0.20857 0.0
C619 C 0.27636 0.85172 0.19645 0.0
C620 C 0.28598 0.80872 0.22848 0.0
C621 C 0.23982 0.83648 0.20965 0.0
C622 C 0.1189 0.70157 0.18108 0.0
C623 C 0.13877 0.70929 0.16858 0.0
C624 C 0.16845 0.72587 0.19229 0.0
C625 C 0.1851 0.725 0.20078 0.0
C626 C 0.20005 0.74037 0.21296 0.0
C627 C 0.19802 0.75686 0.21704 0.0
C628 C 0.18109 0.75779 0.20869 0.0
C629 C 0.16652 0.74233 0.19632 0.0
C630 C 0.21806 0.73902 0.22142 0.0
C631 C 0.17842 0.77513 0.21286 0.0
C632 C 0.21121 0.76983 0.3151 0.0
C633 C 0.22643 0.78614 0.32598 0.0
C634 C 0.24194 0.80347 0.31623 0.0
C635 C 0.24254 0.80461 0.29492 0.0
C636 C 0.25797 0.82178 0.28457 0.0
C637 C 0.25896 0.82242 0.2636 0.0
C638 C 0.24436 0.80604 0.25216 0.0
C639 C 0.24558 0.80629 0.23087 0.0
C640 C 0.23024 0.79003 0.21999 0.0
C641 C 0.2138 0.77335 0.22973 0.0
C642 C 0.21271 0.77252 0.25102 0.0
C643 C 0.19668 0.75572 0.26133 0.0
C644 C 0.19612 0.7548 0.28231 0.0
C645 C 0.21138 0.77076 0.29377 0.0
C646 C 0.22729 0.78812 0.28367 0.0
C647 C 0.22809 0.78892 0.26227 0.0
C648 C 0.33588 0.89683 0.19991 0.0
C649 C 0.33173 0.87894 0.18744 0.0
O650 O 0.15786 0.70514 0.36704 0.0
O651 O 0.15469 0.71047 0.18051 0.0
O652 O 0.31054 0.86732 0.18302 0.0
O653 O 0.30273 0.86582 0.36491 0.0
H654 H 0.13142 0.70589 0.37182 0.0
H655 H 0.16569 0.7185 0.40477 0.0
H656 H 0.16108 0.73511 0.38957 0.0
H657 H 0.14173 0.71847 0.40739 0.0
H658 H 0.15108 0.73416 0.35394 0.0
H659 H 0.18995 0.70939 0.34883 0.0
H660 H 0.18468 0.78078 0.33635 0.0
H661 H 0.15707 0.7624 0.33538 0.0
H662 H 0.17296 0.76877 0.31305 0.0
H663 H 0.21983 0.72413 0.32823 0.0
H664 H 0.23335 0.75106 0.32873 0.0
H665 H 0.21886 0.73813 0.30673 0.0
H666 H 0.28629 0.87185 0.38492 0.0
H667 H 0.30209 0.90753 0.37282 0.0
H668 H 0.28959 0.89055 0.35242 0.0
H669 H 0.31759 0.90407 0.35466 0.0
H670 H 0.30788 0.84058 0.34618 0.0
H671 H 0.26328 0.85742 0.35854 0.0
H672 H 0.28501 0.81145 0.30605 0.0
H673 H 0.27105 0.79297 0.32534 0.0
H674 H 0.29852 0.81121 0.3286 0.0
H675 H 0.23078 0.84294 0.34221 0.0
H676 H 0.21941 0.81627 0.34334 0.0
H677 H 0.22734 0.82923 0.31952 0.0
H678 H 0.33693 0.87023 0.19647 0.0
H679 H 0.31297 0.83927 0.20441 0.0
H680 H 0.27413 0.86241 0.18796 0.0
H681 H 0.28559 0.81021 0.24503 0.0
H682 H 0.30122 0.81056 0.22452 0.0
H683 H 0.27328 0.79337 0.22457 0.0
H684 H 0.24104 0.85012 0.2029 0.0
H685 H 0.23472 0.83488 0.22556 0.0
H686 H 0.22755 0.82331 0.20139 0.0
H687 H 0.14358 0.72431 0.16218 0.0
H688 H 0.10607 0.70032 0.1714 0.0
H689 H 0.11385 0.68668 0.18791 0.0
H690 H 0.12169 0.71199 0.19343 0.0
H691 H 0.18645 0.71224 0.19763 0.0
H692 H 0.15367 0.74324 0.19003 0.0
H693 H 0.21728 0.73826 0.23813 0.0
H694 H 0.2331 0.75265 0.21714 0.0
H695 H 0.21798 0.72571 0.21599 0.0
H696 H 0.16371 0.77305 0.20632 0.0
H697 H 0.1918 0.78907 0.2064 0.0
H698 H 0.17844 0.77715 0.22937 0.0
H699 H 0.22629 0.78529 0.34233 0.0
H700 H 0.26963 0.83484 0.29259 0.0
H701 H 0.27132 0.83592 0.25645 0.0
H702 H 0.23119 0.7903 0.20367 0.0
H703 H 0.18453 0.74298 0.25329 0.0
H704 H 0.18359 0.74141 0.28946 0.0
H705 H 0.35278 0.90631 0.20361 0.0
H706 H 0.32704 0.89153 0.21426 0.0
H707 H 0.33087 0.90603 0.19149 0.0
C708 C 0.40528 0.13111 0.64777 0.0
C709 C 0.42692 0.13869 0.65703 0.0
C710 C 0.42604 0.14679 0.6915 0.0
C711 C 0.44539 0.16289 0.69753 0.0
C712 C 0.44656 0.1772 0.71069 0.0
C713 C 0.42791 0.17539 0.71769 0.0
C714 C 0.40832 0.15871 0.71206 0.0
C715 C 0.40765 0.14443 0.69918 0.0
C716 C 0.46771 0.19462 0.71656 0.0
C717 C 0.38812 0.15643 0.71896 0.0
C718 C 0.43687 0.30181 0.64456 0.0
C719 C 0.42925 0.28356 0.65743 0.0
C720 C 0.4396 0.2714 0.68672 0.0
C721 C 0.41984 0.25417 0.69 0.0
C722 C 0.41732 0.23919 0.70369 0.0
C723 C 0.43497 0.24129 0.71404 0.0
C724 C 0.45487 0.25871 0.71089 0.0
C725 C 0.45682 0.2737 0.69751 0.0
C726 C 0.39581 0.22098 0.70687 0.0
C727 C 0.47414 0.26128 0.72127 0.0
C728 C 0.43971 0.27693 0.84502 0.0
C729 C 0.41946 0.26036 0.84181 0.0
C730 C 0.41633 0.24382 0.83102 0.0
C731 C 0.43377 0.24362 0.82358 0.0
C732 C 0.45416 0.26017 0.82692 0.0
C733 C 0.45681 0.27667 0.83744 0.0
C734 C 0.39435 0.22652 0.82761 0.0
C735 C 0.47317 0.26043 0.81941 0.0
C736 C 0.39066 0.09065 0.85631 0.0
C737 C 0.41106 0.11079 0.85863 0.0
C738 C 0.41119 0.14135 0.85133 0.0
C739 C 0.39584 0.14588 0.84728 0.0
C740 C 0.40006 0.16231 0.83497 0.0
C741 C 0.42046 0.17498 0.82724 0.0
C742 C 0.43635 0.17091 0.83205 0.0
C743 C 0.43145 0.15393 0.84385 0.0
C744 C 0.38268 0.16608 0.83029 0.0
C745 C 0.45847 0.1845 0.8248 0.0
C746 C 0.42892 0.19198 0.72905 0.0
C747 C 0.43138 0.20834 0.71785 0.0
C748 C 0.43274 0.22474 0.72721 0.0
C749 C 0.43185 0.22503 0.74846 0.0
C750 C 0.43316 0.24128 0.7584 0.0
C751 C 0.43283 0.24166 0.77935 0.0
C752 C 0.43085 0.22567 0.79116 0.0
C753 C 0.43074 0.22603 0.81247 0.0
C754 C 0.42779 0.20949 0.82371 0.0
C755 C 0.42506 0.19251 0.8143 0.0
C756 C 0.42585 0.19216 0.79301 0.0
C757 C 0.42364 0.17554 0.783 0.0
C758 C 0.42489 0.17553 0.76208 0.0
C759 C 0.42775 0.19187 0.75032 0.0
C760 C 0.42945 0.20857 0.76006 0.0
C761 C 0.42876 0.20881 0.78143 0.0
C762 C 0.41789 0.30268 0.85044 0.0
C763 C 0.42928 0.29626 0.86526 0.0
O764 O 0.42504 0.13405 0.67748 0.0
O765 O 0.40614 0.12504 0.86293 0.0
O766 O 0.44354 0.29344 0.85513 0.0
O767 O 0.44268 0.28593 0.67318 0.0
H768 H 0.43634 0.15524 0.65475 0.0
H769 H 0.39803 0.13878 0.65467 0.0
H770 H 0.39489 0.11475 0.6504 0.0
H771 H 0.40659 0.13432 0.63129 0.0
H772 H 0.45952 0.16445 0.69152 0.0
H773 H 0.39278 0.13182 0.6944 0.0
H774 H 0.47009 0.20847 0.70916 0.0
H775 H 0.48061 0.19253 0.71204 0.0
H776 H 0.46852 0.19676 0.73311 0.0
H777 H 0.37419 0.14269 0.71311 0.0
H778 H 0.38736 0.16958 0.71382 0.0
H779 H 0.38754 0.1559 0.73568 0.0
H780 H 0.42366 0.26947 0.64903 0.0
H781 H 0.41457 0.3097 0.64895 0.0
H782 H 0.43982 0.29763 0.6294 0.0
H783 H 0.45394 0.31208 0.64825 0.0
H784 H 0.40631 0.25232 0.68194 0.0
H785 H 0.47198 0.28707 0.69495 0.0
H786 H 0.3951 0.20783 0.70012 0.0
H787 H 0.38337 0.22281 0.69986 0.0
H788 H 0.39257 0.21775 0.72323 0.0
H789 H 0.48868 0.27479 0.71575 0.0
H790 H 0.47533 0.24797 0.71885 0.0
H791 H 0.47298 0.2626 0.73774 0.0
H792 H 0.41753 0.28208 0.87292 0.0
H793 H 0.40597 0.26019 0.84752 0.0
H794 H 0.47237 0.28947 0.83994 0.0
H795 H 0.39196 0.22221 0.81152 0.0
H796 H 0.38241 0.23003 0.83197 0.0
H797 H 0.39187 0.21344 0.83672 0.0
H798 H 0.48798 0.27372 0.8246 0.0
H799 H 0.47303 0.26049 0.80268 0.0
H800 H 0.4728 0.24673 0.82467 0.0
H801 H 0.41955 0.11438 0.84404 0.0
H802 H 0.39384 0.0789 0.85201 0.0
H803 H 0.38089 0.09183 0.84427 0.0
H804 H 0.38171 0.08607 0.87063 0.0
H805 H 0.38033 0.13617 0.85341 0.0
H806 H 0.44346 0.15064 0.84754 0.0
H807 H 0.38227 0.16918 0.81392 0.0
H808 H 0.38556 0.17942 0.83855 0.0
H809 H 0.36714 0.15324 0.83481 0.0
H810 H 0.46948 0.1808 0.83206 0.0
H811 H 0.46383 0.20032 0.82793 0.0
H812 H 0.45904 0.18314 0.80825 0.0
H813 H 0.43222 0.20831 0.70153 0.0
H814 H 0.43465 0.25397 0.75009 0.0
H815 H 0.43409 0.25464 0.78617 0.0
H816 H 0.42741 0.20975 0.84004 0.0
H817 H 0.42115 0.16242 0.79123 0.0
H818 H 0.42342 0.16247 0.75521 0.0
H819 H 0.40693 0.30547 0.85869 0.0
H820 H 0.42919 0.31649 0.84201 0.0
H821 H 0.4087 0.29082 0.83932 0.0
H822 H 0.03947 0.45075 0.03368 0.0
H823 H 0.05155 0.44314 0.06493 0.0
H824 H 0.06134 0.49726 0.09091 0.0
H825 H 0.04942 0.50516 0.0594 0.0
H826 H 0.09549 0.49408 0.09503 0.0
H827 H 0.02239 0.45177 0.10817 0.0
H828 H 0.98581 0.42597 0.10064 0.0
H829 H 0.00341 0.38248 0.09387 0.0
H830 H 0.04017 0.4081 0.10109 0.0
H831 H 0.12382 0.47216 0.19055 0.0
H832 H 0.10633 0.47961 0.16342 0.0
H833 H 0.09182 0.42557 0.1335 0.0
H834 H 0.10893 0.41786 0.16086 0.0
H835 H 0.05879 0.42972 0.13312 0.0
H836 H 0.13152 0.47165 0.11695 0.0
H837 H 0.16854 0.49702 0.12331 0.0
H838 H 0.15207 0.5407 0.13451 0.0
H839 H 0.11489 0.51549 0.12848 0.0
C840 C 0.04384 0.4609 0.04614 0.0
C841 C 0.04352 0.4786 0.04403 0.0
C842 C 0.05067 0.45647 0.06405 0.0
C843 C 0.05726 0.46957 0.08032 0.0
C844 C 0.05629 0.48693 0.07855 0.0
C845 C 0.04935 0.49135 0.06059 0.0
C846 C 0.06663 0.46579 0.09845 0.0
C847 C 0.0873 0.48018 0.10364 0.0
C848 C 0.05619 0.44739 0.10927 0.0
C849 C 0.03407 0.43191 0.10503 0.0
C850 C 0.01849 0.43675 0.10493 0.0
C851 C 0.99772 0.42214 0.10075 0.0
C852 C 0.9923 0.40261 0.09675 0.0
C853 C 0.00764 0.39762 0.09697 0.0
C854 C 0.02844 0.41217 0.10113 0.0
C855 C 0.11708 0.46199 0.17806 0.0
C856 C 0.11821 0.4447 0.17756 0.0
C857 C 0.10709 0.46625 0.16258 0.0
C858 C 0.09804 0.45332 0.14625 0.0
C859 C 0.09879 0.43583 0.14589 0.0
C860 C 0.10871 0.43152 0.16142 0.0
C861 C 0.08769 0.45796 0.1296 0.0
C862 C 0.06688 0.44371 0.12466 0.0
C863 C 0.09805 0.47643 0.11888 0.0
C864 C 0.1204 0.49162 0.12248 0.0
C865 C 0.13577 0.48662 0.12093 0.0
C866 C 0.15678 0.50098 0.12444 0.0
C867 C 0.16264 0.52045 0.12937 0.0
C868 C 0.1475 0.5256 0.13073 0.0
C869 C 0.12646 0.51129 0.12725 0.0
H870 H 0.17892 0.53154 0.13208 0.0
H871 H 0.9762 0.39132 0.0935 0.0
H872 H 0.58086 0.9988 0.55079 0.0
H873 H 0.60638 0.01416 0.57791 0.0
H874 H 0.56647 0.03029 0.60716 0.0
H875 H 0.54111 0.0155 0.57966 0.0
H876 H 0.60393 0.06145 0.60399 0.0
H877 H 0.57653 0.99418 0.62721 0.0
H878 H 0.56543 0.9587 0.6245 0.0
H879 H 0.62783 0.97561 0.60847 0.0
H880 H 0.63926 0.01121 0.61082 0.0
H881 H 0.66761 0.0996 0.69144 0.0
H882 H 0.63865 0.07917 0.66843 0.0
H883 H 0.67865 0.06636 0.63442 0.0
H884 H 0.70767 0.08667 0.65758 0.0
H885 H 0.64037 0.0329 0.64128 0.0
H886 H 0.6671 0.10001 0.61665 0.0
H887 H 0.67817 0.13549 0.6193 0.0
H888 H 0.6165 0.1185 0.63816 0.0
H889 H 0.60513 0.0829 0.63589 0.0
C890 C 0.57726 0.00521 0.5632 0.0
C891 C 0.55899 0.00604 0.56298 0.0
C892 C 0.59188 0.01396 0.57878 0.0
C893 C 0.58836 0.02335 0.59466 0.0
C894 C 0.56958 0.0232 0.59503 0.0
C895 C 0.55505 0.01466 0.57934 0.0
C896 C 0.60504 0.0349 0.60978 0.0
C897 C 0.61159 0.05505 0.61244 0.0
C898 C 0.61551 0.02678 0.62037 0.0
C899 C 0.60871 0.00538 0.61904 0.0
C900 C 0.58785 0.99034 0.62297 0.0
C901 C 0.58151 0.97021 0.62152 0.0
C902 C 0.5959 0.96491 0.61627 0.0
C903 C 0.61669 0.97974 0.61252 0.0
C904 C 0.62312 0.9999 0.61394 0.0
C905 C 0.67027 0.09258 0.67894 0.0
C906 C 0.68999 0.09505 0.67604 0.0
C907 C 0.65373 0.08091 0.66583 0.0
C908 C 0.65657 0.07144 0.64958 0.0
C909 C 0.67615 0.07359 0.64683 0.0
C910 C 0.69273 0.0853 0.65994 0.0
C911 C 0.6391 0.05932 0.63545 0.0
C912 C 0.63251 0.03916 0.63294 0.0
C913 C 0.62853 0.06738 0.62501 0.0
C914 C 0.63532 0.08879 0.6263 0.0
C915 C 0.65594 0.10384 0.62152 0.0
C916 C 0.66226 0.12397 0.62292 0.0
C917 C 0.64806 0.12924 0.62895 0.0
C918 C 0.62749 0.11439 0.63353 0.0
C919 C 0.62109 0.09424 0.63217 0.0
H920 H 0.65299 0.14484 0.63002 0.0
H921 H 0.59095 0.94931 0.61515 0.0
H922 H 0.56577 0.54472 0.11443 0.0
H923 H 0.57354 0.57343 0.13514 0.0
H924 H 0.56862 0.60382 0.08241 0.0
H925 H 0.56028 0.57494 0.0618 0.0
H926 H 0.60694 0.62627 0.11045 0.0
H927 H 0.53143 0.58845 0.10781 0.0
H928 H 0.49673 0.55783 0.11146 0.0
H929 H 0.50905 0.5535 0.17418 0.0
H930 H 0.54407 0.58392 0.17079 0.0
H931 H 0.61225 0.70788 0.15935 0.0
H932 H 0.60204 0.6799 0.13699 0.0
H933 H 0.58205 0.63951 0.18837 0.0
H934 H 0.59121 0.66734 0.21067 0.0
H935 H 0.55569 0.622 0.15975 0.0
H936 H 0.63049 0.65807 0.1637 0.0
H937 H 0.66628 0.68745 0.16127 0.0
H938 H 0.65697 0.69391 0.09821 0.0
H939 H 0.621 0.66471 0.10032 0.0
C940 C 0.56643 0.55758 0.10732 0.0
C941 C 0.5624 0.55767 0.08659 0.0
C942 C 0.57078 0.57388 0.11911 0.0
C943 C 0.5716 0.59066 0.11025 0.0
C944 C 0.56802 0.59097 0.08948 0.0
C945 C 0.56318 0.57449 0.07779 0.0
C946 C 0.57609 0.60786 0.12272 0.0
C947 C 0.59569 0.62551 0.12106 0.0
C948 C 0.56155 0.60654 0.13688 0.0
C949 C 0.54048 0.58831 0.13898 0.0
C950 C 0.52685 0.58084 0.12232 0.0
C951 C 0.50709 0.56355 0.12436 0.0
C952 C 0.50069 0.55369 0.14303 0.0
C953 C 0.51404 0.56113 0.15971 0.0
C954 C 0.53385 0.5784 0.15774 0.0
C955 C 0.60531 0.69299 0.16585 0.0
C956 C 0.60218 0.68975 0.18679 0.0
C957 C 0.59971 0.67701 0.15306 0.0
C958 C 0.59154 0.65756 0.16097 0.0
C959 C 0.58824 0.65431 0.18184 0.0
C960 C 0.59349 0.67022 0.19458 0.0
C961 C 0.58672 0.64064 0.14765 0.0
C962 C 0.56703 0.62293 0.14914 0.0
C963 C 0.60135 0.6418 0.13355 0.0
C964 C 0.62298 0.65934 0.13222 0.0
C965 C 0.63602 0.66584 0.14935 0.0
C966 C 0.65635 0.68245 0.14802 0.0
C967 C 0.66388 0.69257 0.12961 0.0
C968 C 0.65111 0.68607 0.11247 0.0
C969 C 0.63075 0.66949 0.11372 0.0
H970 H 0.67962 0.70542 0.12861 0.0
H971 H 0.48538 0.54031 0.14457 0.0
H972 H 0.90866 0.50323 0.52946 0.0
H973 H 0.89986 0.51958 0.55508 0.0
H974 H 0.95914 0.53993 0.5845 0.0
H975 H 0.96774 0.52321 0.55945 0.0
H976 H 0.9277 0.52334 0.61104 0.0
H977 H 0.95024 0.572 0.55687 0.0
H978 H 0.94999 0.58375 0.52216 0.0
H979 H 0.88577 0.56627 0.52864 0.0
H980 H 0.88556 0.55416 0.56333 0.0
H981 H 0.93186 0.59209 0.67917 0.0
H982 H 0.93863 0.57679 0.65139 0.0
H983 H 0.8793 0.56073 0.62452 0.0
H984 H 0.8726 0.57677 0.65199 0.0
H985 H 0.90867 0.57404 0.59615 0.0
H986 H 0.88628 0.52626 0.65058 0.0
H987 H 0.88637 0.51435 0.68526 0.0
H988 H 0.94982 0.52959 0.67818 0.0
H989 H 0.95021 0.54185 0.64354 0.0
C990 C 0.91982 0.5112 0.54138 0.0
C991 C 0.93893 0.51192 0.54232 0.0
C992 C 0.91483 0.52067 0.55592 0.0
C993 C 0.9289 0.53109 0.57164 0.0
C994 C 0.94806 0.53201 0.57249 0.0
C995 C 0.95305 0.52259 0.55799 0.0
C996 C 0.92346 0.54043 0.58771 0.0
C997 C 0.92378 0.5346 0.6078 0.0
C998 C 0.91771 0.55466 0.58344 0.0
C999 C 0.91783 0.56198 0.56262 0.0
C1000 C 0.93602 0.57051 0.55084 0.0
C1001 C 0.93596 0.57727 0.53118 0.0
C1002 C 0.91785 0.57571 0.52318 0.0
C1003 C 0.89977 0.56744 0.53485 0.0
C1004 C 0.89974 0.56064 0.55451 0.0
C1005 C 0.92036 0.58581 0.66722 0.0
C1006 C 0.90202 0.58656 0.66759 0.0
C1007 C 0.92418 0.57675 0.65139 0.0
C1008 C 0.90944 0.56749 0.63589 0.0
C1009 C 0.891 0.56793 0.63623 0.0
C1010 C 0.88724 0.57719 0.65198 0.0
C1011 C 0.91322 0.55716 0.61952 0.0
C1012 C 0.91251 0.56272 0.59939 0.0
C1013 C 0.91856 0.54261 0.62372 0.0
C1014 C 0.91832 0.53512 0.64451 0.0
C1015 C 0.9003 0.52719 0.65646 0.0
C1016 C 0.90025 0.52036 0.67611 0.0
C1017 C 0.9181 0.52125 0.68394 0.0
C1018 C 0.93601 0.52893 0.67211 0.0
C1019 C 0.93615 0.53579 0.65246 0.0
H1020 H 0.91804 0.51597 0.69916 0.0
H1021 H 0.91785 0.58095 0.50795 0.0
H1022 H 0.48226 0.96396 0.0631 0.0
H1023 H 0.45387 0.94181 0.08575 0.0
H1024 H 0.41096 0.9508 0.04986 0.0
H1025 H 0.43953 0.97354 0.0274 0.0
H1026 H 0.40694 0.9562 0.08764 0.0
H1027 H 0.40875 0.9047 0.05241 0.0
H1028 H 0.42493 0.88737 0.03792 0.0
H1029 H 0.44549 0.88101 0.09682 0.0
H1030 H 0.42967 0.89853 0.11164 0.0
H1031 H 0.32193 0.88977 0.15077 0.0
H1032 H 0.34408 0.90393 0.1209 0.0
H1033 H 0.39313 0.90035 0.1516 0.0
H1034 H 0.3708 0.88563 0.18121 0.0
H1035 H 0.39092 0.88995 0.11355 0.0
H1036 H 0.39251 0.94429 0.14801 0.0
H1037 H 0.37704 0.96213 0.16284 0.0
H1038 H 0.35072 0.96351 0.10535 0.0
H1039 H 0.3658 0.94542 0.09024 0.0
C1040 C 0.46671 0.96093 0.05973 0.0
C1041 C 0.46322 0.9706 0.04342 0.0
C1042 C 0.45042 0.94815 0.07271 0.0
C1043 C 0.43016 0.94446 0.0695 0.0
C1044 C 0.42644 0.95341 0.0527 0.0
C1045 C 0.44279 0.96635 0.0398 0.0
C1046 C 0.41338 0.93267 0.08458 0.0
C1047 C 0.40313 0.94151 0.09296 0.0
C1048 C 0.40871 0.91371 0.09197 0.0
C1049 C 0.41813 0.90305 0.08311 0.0
C1050 C 0.41683 0.89972 0.06225 0.0
C1051 C 0.42593 0.88984 0.05398 0.0
C1052 C 0.43626 0.88312 0.06643 0.0
C1053 C 0.43748 0.88622 0.08719 0.0
C1054 C 0.42842 0.89609 0.09554 0.0
C1055 C 0.33728 0.89165 0.15098 0.0
C1056 C 0.34448 0.88622 0.16821 0.0
C1057 C 0.35001 0.89991 0.13397 0.0
C1058 C 0.37038 0.90339 0.13402 0.0
C1059 C 0.37746 0.89773 0.15111 0.0
C1060 C 0.36469 0.88933 0.16804 0.0
C1061 C 0.38471 0.91359 0.11668 0.0
C1062 C 0.39453 0.9045 0.10796 0.0
C1063 C 0.38906 0.93236 0.109 0.0
C1064 C 0.38008 0.94331 0.11806 0.0
C1065 C 0.38329 0.94827 0.13857 0.0
C1066 C 0.37461 0.95844 0.14702 0.0
C1067 C 0.36285 0.9639 0.13506 0.0
C1068 C 0.3598 0.95924 0.1146 0.0
C1069 C 0.36841 0.94904 0.10609 0.0
H1070 H 0.35615 0.97178 0.14162 0.0
H1071 H 0.4433 0.87549 0.06 0.0
H1072 H 0.50253 0.44537 0.57016 0.0
H1073 H 0.48661 0.41751 0.59455 0.0
H1074 H 0.46824 0.37575 0.54607 0.0
H1075 H 0.48413 0.40361 0.52161 0.0
H1076 H 0.43572 0.3673 0.5734 0.0
H1077 H 0.50766 0.38412 0.57511 0.0
H1078 H 0.54561 0.4072 0.5794 0.0
H1079 H 0.53603 0.41859 0.64005 0.0
H1080 H 0.49797 0.39588 0.63599 0.0
H1081 H 0.39079 0.26849 0.63184 0.0
H1082 H 0.40962 0.30239 0.60453 0.0
H1083 H 0.453 0.34808 0.66039 0.0
H1084 H 0.43533 0.31508 0.68921 0.0
H1085 H 0.47468 0.35661 0.62823 0.0
H1086 H 0.4056 0.34326 0.62889 0.0
H1087 H 0.36713 0.32381 0.62681 0.0
H1088 H 0.3702 0.31007 0.56516 0.0
H1089 H 0.40871 0.32922 0.56694 0.0
C1090 C 0.4951 0.43024 0.56474 0.0
C1091 C 0.49449 0.42662 0.544 0.0
C1092 C 0.48615 0.41437 0.57867 0.0
C1093 C 0.47632 0.3946 0.57209 0.0
C1094 C 0.4758 0.39093 0.55142 0.0
C1095 C 0.48498 0.40682 0.5375 0.0
C1096 C 0.46594 0.37769 0.58671 0.0
C1097 C 0.44424 0.36469 0.58519 0.0
C1098 C 0.477 0.37499 0.60265 0.0
C1099 C 0.49993 0.38844 0.60517 0.0
C1100 C 0.51362 0.39167 0.5893 0.0
C1101 C 0.53516 0.40468 0.5917 0.0
C1102 C 0.54322 0.4144 0.60997 0.0
C1103 C 0.52976 0.41105 0.62591 0.0
C1104 C 0.50821 0.39813 0.62356 0.0
C1105 C 0.4014 0.28338 0.63736 0.0
C1106 C 0.41386 0.28767 0.66269 0.0
C1107 C 0.4139 0.30452 0.6203 0.0
C1108 C 0.43407 0.32883 0.62917 0.0
C1109 C 0.44151 0.33319 0.65549 0.0
C1110 C 0.42994 0.31297 0.67373 0.0
C1111 C 0.44439 0.34589 0.61477 0.0
C1112 C 0.46607 0.35905 0.61642 0.0
C1113 C 0.43323 0.34909 0.59927 0.0
C1114 C 0.41006 0.33747 0.59814 0.0
C1115 C 0.39808 0.33595 0.61494 0.0
C1116 C 0.37626 0.325 0.6138 0.0
C1117 C 0.36623 0.31565 0.59589 0.0
C1118 C 0.37799 0.31728 0.57904 0.0
C1119 C 0.39982 0.3282 0.5801 0.0
H1120 H 0.34933 0.30718 0.59504 0.0
H1121 H 0.55989 0.42449 0.61179 0.0
H1122 H 0.52931 0.96339 0.46414 0.0
H1123 H 0.53781 0.94067 0.4488 0.0
H1124 H 0.60157 0.9889 0.44086 0.0
H1125 H 0.5935 0.01177 0.45695 0.0
H1126 H 0.58227 0.96102 0.40653 0.0
H1127 H 0.59491 0.9619 0.47798 0.0
H1128 H 0.58583 0.96003 0.51384 0.0
H1129 H 0.5335 0.90038 0.50602 0.0
H1130 H 0.54206 0.90203 0.47 0.0
H1131 H 0.63141 0.89787 0.38523 0.0
H1132 H 0.62151 0.92735 0.39689 0.0
H1133 H 0.55714 0.87501 0.43299 0.0
H1134 H 0.56527 0.84425 0.42237 0.0
H1135 H 0.5768 0.90742 0.45188 0.0
H1136 H 0.5615 0.90621 0.38119 0.0
H1137 H 0.56806 0.90731 0.34473 0.0
H1138 H 0.62267 0.96598 0.35034 0.0
H1139 H 0.61653 0.9651 0.3869 0.0
C1140 C 0.5452 0.96929 0.45928 0.0
C1141 C 0.56079 0.98946 0.46227 0.0
C1142 C 0.54996 0.95626 0.4503 0.0
C1143 C 0.57034 0.96309 0.44387 0.0
C1144 C 0.58572 0.98337 0.44572 0.0
C1145 C 0.58104 0.99643 0.45494 0.0
C1146 C 0.57576 0.94864 0.43667 0.0
C1147 C 0.58141 0.94946 0.41646 0.0
C1148 C 0.57408 0.93328 0.44954 0.0
C1149 C 0.569 0.93217 0.47124 0.0
C1150 C 0.58135 0.94845 0.48386 0.0
C1151 C 0.57632 0.94742 0.50423 0.0
C1152 C 0.55906 0.93012 0.51219 0.0
C1153 C 0.54684 0.91379 0.49982 0.0
C1154 C 0.55178 0.91476 0.47943 0.0
C1155 C 0.61805 0.89381 0.3946 0.0
C1156 C 0.59712 0.86722 0.39949 0.0
C1157 C 0.61111 0.9118 0.40096 0.0
C1158 C 0.58741 0.90418 0.41479 0.0
C1159 C 0.57061 0.87881 0.42393 0.0
C1160 C 0.57614 0.85974 0.41837 0.0
C1161 C 0.58307 0.91948 0.42154 0.0
C1162 C 0.57767 0.91889 0.4418 0.0
C1163 C 0.58484 0.93491 0.40866 0.0
C1164 C 0.58875 0.93544 0.38679 0.0
C1165 C 0.57501 0.91927 0.37466 0.0
C1166 C 0.57862 0.91987 0.35398 0.0
C1167 C 0.59583 0.93667 0.34523 0.0
C1168 C 0.6094 0.95294 0.35715 0.0
C1169 C 0.60586 0.9524 0.37784 0.0
H1170 H 0.5986 0.93711 0.32922 0.0
H1171 H 0.5552 0.92934 0.52797 0.0
H1172 H 0.53798 0.51216 0.96689 0.0
H1173 H 0.56207 0.51987 0.93896 0.0
H1174 H 0.60715 0.57527 0.96705 0.0
H1175 H 0.58296 0.56806 0.99454 0.0
H1176 H 0.60939 0.57965 0.92706 0.0
H1177 H 0.60596 0.53012 0.97599 0.0
H1178 H 0.58664 0.49776 0.99426 0.0
H1179 H 0.5685 0.46689 0.93803 0.0
H1180 H 0.58755 0.4991 0.91944 0.0
H1181 H 0.70963 0.60069 0.90456 0.0
H1182 H 0.67641 0.59264 0.919 0.0
H1183 H 0.64502 0.53693 0.88714 0.0
H1184 H 0.67852 0.54438 0.87368 0.0
H1185 H 0.63103 0.53003 0.92271 0.0
H1186 H 0.63999 0.57899 0.87374 0.0
H1187 H 0.65839 0.61107 0.85497 0.0
H1188 H 0.66492 0.64261 0.90928 0.0
H1189 H 0.6468 0.61075 0.92844 0.0
C1190 C 0.5528 0.52624 0.96684 0.0
C1191 C 0.55868 0.53935 0.98312 0.0
C1192 C 0.5666 0.53057 0.95092 0.0
C1193 C 0.58665 0.54788 0.9512 0.0
C1194 C 0.59183 0.56174 0.96656 0.0
C1195 C 0.57796 0.55757 0.98233 0.0
C1196 C 0.60308 0.55074 0.93693 0.0
C1197 C 0.61417 0.56884 0.92607 0.0
C1198 C 0.60887 0.53634 0.93513 0.0
C1199 C 0.59801 0.517 0.94634 0.0
C1200 C 0.59782 0.51643 0.96754 0.0
C1201 C 0.58691 0.49812 0.97794 0.0
C1202 C 0.57632 0.48029 0.96731 0.0
C1203 C 0.5767 0.48072 0.94625 0.0
C1204 C 0.58756 0.49898 0.93577 0.0
C1205 C 0.6956 0.58681 0.90049 0.0
C1206 C 0.69672 0.57338 0.88772 0.0
C1207 C 0.67655 0.58228 0.9086 0.0
C1208 C 0.658 0.5644 0.90376 0.0
C1209 C 0.65904 0.55092 0.89096 0.0
C1210 C 0.67822 0.55527 0.88316 0.0
C1211 C 0.63789 0.5593 0.9132 0.0
C1212 C 0.62608 0.54075 0.92321 0.0
C1213 C 0.63136 0.57324 0.91406 0.0
C1214 C 0.6421 0.59246 0.90254 0.0
C1215 C 0.64543 0.59277 0.8817 0.0
C1216 C 0.65581 0.61092 0.87099 0.0
C1217 C 0.66284 0.62887 0.88093 0.0
C1218 C 0.65945 0.6287 0.90159 0.0
C1219 C 0.64909 0.61059 0.91238 0.0
H1220 H 0.67088 0.6429 0.87261 0.0
H1221 H 0.56785 0.46613 0.97539 0.0
H1222 H 0.06798 0.53867 0.48733 0.0
H1223 H 0.08959 0.56949 0.46763 0.0
H1224 H 0.03763 0.57831 0.46277 0.0
H1225 H 0.01602 0.54772 0.48234 0.0
H1226 H 0.05555 0.5817 0.42626 0.0
H1227 H 0.07813 0.60692 0.49335 0.0
H1228 H 0.09267 0.60819 0.52724 0.0
H1229 H 0.14954 0.61866 0.50101 0.0
H1230 H 0.13521 0.61718 0.46692 0.0
H1231 H 0.10167 0.68114 0.39031 0.0
H1232 H 0.08364 0.64971 0.40955 0.0
H1233 H 0.14092 0.64951 0.41372 0.0
H1234 H 0.15914 0.68126 0.39477 0.0
H1235 H 0.12216 0.64054 0.44932 0.0
H1236 H 0.10075 0.61724 0.38236 0.0
H1237 H 0.08655 0.61604 0.34831 0.0
H1238 H 0.02793 0.60154 0.3738 0.0
H1239 H 0.04188 0.60292 0.40803 0.0
C1240 C 0.06124 0.5473 0.48228 0.0
C1241 C 0.04023 0.54066 0.4864 0.0
C1242 C 0.07362 0.56492 0.47103 0.0
C1243 C 0.06521 0.57619 0.46369 0.0
C1244 C 0.04442 0.56981 0.46818 0.0
C1245 C 0.0321 0.55232 0.47947 0.0
C1246 C 0.07768 0.59425 0.45071 0.0
C1247 C 0.07002 0.59465 0.43138 0.0
C1248 C 0.0969 0.61088 0.45712 0.0
C1249 C 0.10549 0.61169 0.47759 0.0
C1250 C 0.09365 0.60929 0.4948 0.0
C1251 C 0.10188 0.6101 0.51405 0.0
C1252 C 0.12199 0.61344 0.51628 0.0
C1253 C 0.13395 0.61603 0.49926 0.0
C1254 C 0.12578 0.61522 0.47997 0.0
C1255 C 0.11032 0.67421 0.39502 0.0
C1256 C 0.13168 0.6834 0.39056 0.0
C1257 C 0.10001 0.65624 0.40603 0.0
C1258 C 0.11082 0.64702 0.41282 0.0
C1259 C 0.13221 0.65624 0.40852 0.0
C1260 C 0.14256 0.67428 0.39754 0.0
C1261 C 0.09985 0.62814 0.42497 0.0
C1262 C 0.1078 0.62755 0.44412 0.0
C1263 C 0.08092 0.61126 0.41836 0.0
C1264 C 0.07243 0.61035 0.39778 0.0
C1265 C 0.08488 0.61394 0.38072 0.0
C1266 C 0.07687 0.6132 0.36138 0.0
C1267 C 0.05636 0.60876 0.3589 0.0
C1268 C 0.04381 0.60499 0.37575 0.0
C1269 C 0.05176 0.60573 0.39512 0.0
H1270 H 0.05018 0.6082 0.34391 0.0
H1271 H 0.12834 0.61407 0.53119 0.0
H1272 H 0.50058 0.08606 0.01753 0.0
H1273 H 0.487 0.09937 0.99204 0.0
H1274 H 0.48719 0.05993 0.94803 0.0
H1275 H 0.50023 0.04621 0.97332 0.0
H1276 H 0.50249 0.09836 0.93285 0.0
H1277 H 0.44281 0.04756 0.97086 0.0
H1278 H 0.42274 0.03218 0.002 0.0
H1279 H 0.42207 0.08542 0.01346 0.0
H1280 H 0.44239 0.10122 0.9825 0.0
H1281 H 0.4336 0.09284 0.8566 0.0
H1282 H 0.45266 0.08719 0.88339 0.0
H1283 H 0.43813 0.11999 0.92454 0.0
H1284 H 0.41791 0.12453 0.89812 0.0
H1285 H 0.43248 0.08883 0.94282 0.0
H1286 H 0.48919 0.13898 0.90359 0.0
H1287 H 0.50955 0.15503 0.87275 0.0
H1288 H 0.51701 0.1051 0.86407 0.0
H1289 H 0.49644 0.08862 0.89471 0.0
C1290 C 0.4977 0.08014 0.00247 0.0
C1291 C 0.50145 0.06492 0.99764 0.0
C1292 C 0.49002 0.08785 0.98789 0.0
C1293 C 0.48596 0.08052 0.96819 0.0
C1294 C 0.4903 0.06584 0.96313 0.0
C1295 C 0.49786 0.05806 0.97769 0.0
C1296 C 0.4764 0.08749 0.95296 0.0
C1297 C 0.48714 0.09621 0.93493 0.0
C1298 C 0.45666 0.0852 0.95598 0.0
C1299 C 0.44431 0.07564 0.9745 0.0
C1300 C 0.43852 0.05604 0.9801 0.0
C1301 C 0.42707 0.04724 0.99771 0.0
C1302 C 0.42118 0.05784 0.00974 0.0
C1303 C 0.42667 0.07724 0.00415 0.0
C1304 C 0.43814 0.08612 0.98657 0.0
C1305 C 0.43467 0.099 0.87132 0.0
C1306 C 0.42448 0.10935 0.8751 0.0
C1307 C 0.4457 0.09591 0.88661 0.0
C1308 C 0.4473 0.10355 0.90595 0.0
C1309 C 0.43727 0.11405 0.90974 0.0
C1310 C 0.42583 0.11677 0.89454 0.0
C1311 C 0.45844 0.0996 0.92242 0.0
C1312 C 0.44798 0.09135 0.94073 0.0
C1313 C 0.47856 0.10254 0.91972 0.0
C1314 C 0.49116 0.11251 0.9014 0.0
C1315 C 0.49508 0.13138 0.89505 0.0
C1316 C 0.50667 0.14055 0.87761 0.0
C1317 C 0.51454 0.13108 0.86644 0.0
C1318 C 0.5109 0.11243 0.87273 0.0
C1319 C 0.4993 0.10317 0.89015 0.0
H1320 H 0.5235 0.1382 0.85293 0.0
H1321 H 0.41233 0.051 0.02336 0.0
H1322 H 0.4451 0.46804 0.50667 0.0
H1323 H 0.41344 0.4541 0.48598 0.0
H1324 H 0.4394 0.51001 0.45305 0.0
H1325 H 0.47078 0.52423 0.47402 0.0
H1326 H 0.39825 0.49308 0.45599 0.0
H1327 H 0.44511 0.47204 0.43656 0.0
H1328 H 0.46664 0.45708 0.44208 0.0
H1329 H 0.41189 0.40102 0.45837 0.0
H1330 H 0.39006 0.41577 0.45327 0.0
H1331 H 0.34744 0.46393 0.35111 0.0
H1332 H 0.37482 0.4791 0.38598 0.0
H1333 H 0.34233 0.41031 0.41641 0.0
H1334 H 0.31398 0.39326 0.38251 0.0
H1335 H 0.38405 0.43286 0.41922 0.0
H1336 H 0.33725 0.45432 0.43764 0.0
H1337 H 0.31627 0.46984 0.43182 0.0
H1338 H 0.37175 0.52549 0.41598 0.0
H1339 H 0.39302 0.51022 0.42156 0.0
C1340 C 0.44387 0.47753 0.49535 0.0
C1341 C 0.46062 0.49716 0.4918 0.0
C1342 C 0.42579 0.4695 0.48346 0.0
C1343 C 0.42427 0.48083 0.46758 0.0
C1344 C 0.44025 0.50092 0.4651 0.0
C1345 C 0.45824 0.50903 0.47713 0.0
C1346 C 0.40715 0.47132 0.4524 0.0
C1347 C 0.39525 0.47999 0.44787 0.0
C1348 C 0.40296 0.45405 0.44195 0.0
C1349 C 0.41599 0.44507 0.44476 0.0
C1350 C 0.43768 0.45656 0.44145 0.0
C1351 C 0.44993 0.44812 0.44449 0.0
C1352 C 0.44064 0.42813 0.45062 0.0
C1353 C 0.41906 0.41652 0.45366 0.0
C1354 C 0.40674 0.42491 0.4507 0.0
C1355 C 0.34696 0.45396 0.3629 0.0
C1356 C 0.32513 0.42735 0.36499 0.0
C1357 C 0.36311 0.46336 0.38514 0.0
C1358 C 0.36041 0.44664 0.40567 0.0
C1359 C 0.34269 0.41991 0.40428 0.0
C1360 C 0.3258 0.40901 0.38275 0.0
C1361 C 0.37524 0.45466 0.42277 0.0
C1362 C 0.38681 0.44575 0.42756 0.0
C1363 C 0.37931 0.47183 0.43322 0.0
C1364 C 0.36665 0.48107 0.42976 0.0
C1365 C 0.34494 0.46984 0.4328 0.0
C1366 C 0.33301 0.4786 0.42958 0.0
C1367 C 0.34266 0.49862 0.42346 0.0
C1368 C 0.36429 0.50996 0.42065 0.0
C1369 C 0.37629 0.50127 0.42387 0.0
H1370 H 0.3334 0.50537 0.42095 0.0
H1371 H 0.45015 0.42162 0.45298 0.0
H1372 H 0.03146 0.46625 0.91351 0.0
H1373 H 0.00713 0.43498 0.89621 0.0
H1374 H 0.97896 0.40721 0.95324 0.0
H1375 H 0.00307 0.43833 0.97045 0.0
H1376 H 0.98585 0.38258 0.92718 0.0
H1377 H 0.95626 0.42494 0.92623 0.0
H1378 H 0.95716 0.45617 0.9181 0.0
H1379 H 0.96465 0.44935 0.85533 0.0
H1380 H 0.96412 0.41821 0.86314 0.0
H1381 H 0.88561 0.30042 0.90646 0.0
H1382 H 0.91674 0.33077 0.91819 0.0
H1383 H 0.92669 0.3564 0.85816 0.0
H1384 H 0.89473 0.32674 0.84674 0.0
H1385 H 0.93267 0.383 0.88222 0.0
H1386 H 0.95837 0.33893 0.8816 0.0
H1387 H 0.95872 0.30818 0.88885 0.0
H1388 H 0.96054 0.31826 0.95238 0.0
H1389 H 0.95992 0.34893 0.94554 0.0
C1390 C 0.02026 0.45335 0.9223 0.0
C1391 C 0.01896 0.45468 0.94325 0.0
C1392 C 0.00637 0.43558 0.91245 0.0
C1393 C 0.99123 0.41887 0.92348 0.0
C1394 C 0.99055 0.41994 0.94449 0.0
C1395 C 0.00418 0.43773 0.95426 0.0
C1396 C 0.97513 0.4006 0.9132 0.0
C1397 C 0.97415 0.38256 0.91736 0.0
C1398 C 0.96031 0.40081 0.89999 0.0
C1399 C 0.9604 0.41939 0.89529 0.0
C1400 C 0.95827 0.43019 0.91072 0.0
C1401 C 0.95869 0.44786 0.90617 0.0
C1402 C 0.96102 0.45477 0.88622 0.0
C1403 C 0.96288 0.444 0.87078 0.0
C1404 C 0.96252 0.42634 0.87525 0.0
C1405 C 0.8945 0.31252 0.89577 0.0
C1406 C 0.88764 0.31105 0.87569 0.0
C1407 C 0.91246 0.32981 0.90242 0.0
C1408 C 0.92443 0.34582 0.88899 0.0
C1409 C 0.91781 0.34427 0.86883 0.0
C1410 C 0.89953 0.32718 0.86228 0.0
C1411 C 0.94305 0.3646 0.89628 0.0
C1412 C 0.94451 0.38285 0.89166 0.0
C1413 C 0.95849 0.36458 0.90885 0.0
C1414 C 0.95896 0.34617 0.91304 0.0
C1415 C 0.95871 0.33452 0.89712 0.0
C1416 C 0.95898 0.31711 0.90116 0.0
C1417 C 0.95961 0.31125 0.92106 0.0
C1418 C 0.96004 0.32281 0.93697 0.0
C1419 C 0.95976 0.34023 0.93302 0.0
H1420 H 0.95981 0.29776 0.92416 0.0
H1421 H 0.96134 0.46845 0.88273 0.0
H1422 H 0.99269 0.53318 0.99203 0.0
H1423 H 0.96921 0.54348 0.97791 0.0
H1424 H 0.97272 0.522 0.91968 0.0
H1425 H 0.99648 0.51237 0.93349 0.0
H1426 H 0.98107 0.55843 0.91599 0.0
H1427 H 0.92768 0.49856 0.95006 0.0
H1428 H 0.91082 0.47614 0.97939 0.0
H1429 H 0.90637 0.52201 0.00859 0.0
H1430 H 0.92346 0.5448 0.97953 0.0
H1431 H 0.90442 0.56197 0.8583 0.0
H1432 H 0.92165 0.54843 0.87887 0.0
H1433 H 0.92034 0.58039 0.93027 0.0
H1434 H 0.90302 0.59399 0.90971 0.0
H1435 H 0.91127 0.54115 0.94011 0.0
H1436 H 0.96331 0.60032 0.9055 0.0
H1437 H 0.97971 0.62259 0.87599 0.0
H1438 H 0.98678 0.57776 0.84793 0.0
H1439 H 0.97009 0.55507 0.87714 0.0
C1440 C 0.98808 0.53035 0.97633 0.0
C1441 C 0.99652 0.52216 0.9638 0.0
C1442 C 0.97466 0.53622 0.96826 0.0
C1443 C 0.96923 0.5336 0.94767 0.0
C1444 C 0.97682 0.52439 0.93553 0.0
C1445 C 0.99038 0.51884 0.94346 0.0
C1446 C 0.95706 0.54171 0.93812 0.0
C1447 C 0.96569 0.5544 0.92118 0.0
C1448 C 0.93733 0.53714 0.94527 0.0
C1449 C 0.92706 0.52345 0.96272 0.0
C1450 C 0.92327 0.50392 0.96281 0.0
C1451 C 0.91364 0.49113 0.97937 0.0
C1452 C 0.90759 0.49766 0.99587 0.0
C1453 C 0.9111 0.51698 0.99581 0.0
C1454 C 0.92075 0.52983 0.9793 0.0
C1455 C 0.90746 0.56581 0.87408 0.0
C1456 C 0.90219 0.57889 0.88245 0.0
C1457 C 0.91735 0.55814 0.88579 0.0
C1458 C 0.92237 0.5635 0.90606 0.0
C1459 C 0.91652 0.57599 0.91469 0.0
C1460 C 0.90667 0.58376 0.90294 0.0
C1461 C 0.93505 0.55717 0.91768 0.0
C1462 C 0.92665 0.54509 0.93503 0.0
C1463 C 0.95504 0.56225 0.91095 0.0
C1464 C 0.96528 0.57593 0.89344 0.0
C1465 C 0.96821 0.59515 0.89297 0.0
C1466 C 0.97758 0.60786 0.8763 0.0
C1467 C 0.98424 0.60158 0.86007 0.0
C1468 C 0.98159 0.58259 0.8605 0.0
C1469 C 0.97219 0.56981 0.87711 0.0
H1470 H 0.9915 0.61144 0.84719 0.0
H1471 H 0.90013 0.48774 0.00867 0.0
H1472 H 0.45213 0.96822 0.51072 0.0
H1473 H 0.41742 0.94749 0.49519 0.0
H1474 H 0.4466 0.95232 0.43806 0.0
H1475 H 0.48091 0.97349 0.45325 0.0
H1476 H 0.41887 0.96224 0.43342 0.0
H1477 H 0.42052 0.9079 0.46811 0.0
H1478 H 0.42302 0.89 0.49798 0.0
H1479 H 0.36939 0.88715 0.5237 0.0
H1480 H 0.36673 0.90526 0.49407 0.0
H1481 H 0.34244 0.8921 0.36999 0.0
H1482 H 0.37183 0.90827 0.39348 0.0
H1483 H 0.3303 0.9036 0.44037 0.0
H1484 H 0.30061 0.88715 0.41683 0.0
H1485 H 0.36083 0.89484 0.45398 0.0
H1486 H 0.35748 0.94643 0.41784 0.0
H1487 H 0.35459 0.96371 0.38764 0.0
H1488 H 0.4117 0.97175 0.36471 0.0
H1489 H 0.41476 0.95423 0.39463 0.0
C1490 C 0.45102 0.96447 0.49495 0.0
C1491 C 0.46909 0.97252 0.4831 0.0
C1492 C 0.43123 0.95263 0.48609 0.0
C1493 C 0.42938 0.94841 0.4654 0.0
C1494 C 0.44758 0.95555 0.45397 0.0
C1495 C 0.46719 0.9676 0.46267 0.0
C1496 C 0.40878 0.93798 0.45497 0.0
C1497 C 0.4063 0.94741 0.43786 0.0
C1498 C 0.39196 0.91902 0.46121 0.0
C1499 C 0.39358 0.90813 0.47899 0.0
C1500 C 0.40937 0.9036 0.48021 0.0
C1501 C 0.41079 0.89339 0.49708 0.0
C1502 C 0.39642 0.88749 0.51276 0.0
C1503 C 0.38054 0.89175 0.51157 0.0
C1504 C 0.37906 0.90198 0.49473 0.0
C1505 C 0.33951 0.89425 0.38538 0.0
C1506 C 0.3192 0.88818 0.39165 0.0
C1507 C 0.35631 0.90354 0.39876 0.0
C1508 C 0.35323 0.90723 0.41861 0.0
C1509 C 0.33294 0.90081 0.42512 0.0
C1510 C 0.31606 0.89148 0.41169 0.0
C1511 C 0.37152 0.91877 0.43201 0.0
C1512 C 0.37343 0.9097 0.44971 0.0
C1513 C 0.38792 0.93811 0.42635 0.0
C1514 C 0.38627 0.9489 0.40844 0.0
C1515 C 0.36935 0.95177 0.4063 0.0
C1516 C 0.36769 0.96162 0.38924 0.0
C1517 C 0.38293 0.9688 0.37425 0.0
C1518 C 0.3999 0.96618 0.37633 0.0
C1519 C 0.40162 0.95631 0.39335 0.0
H1520 H 0.38161 0.97642 0.36105 0.0
H1521 H 0.39754 0.87958 0.52581 0.0
H1522 H 0.49175 0.40924 0.02033 0.0
H1523 H 0.47958 0.38355 0.99473 0.0
H1524 H 0.51468 0.42899 0.94946 0.0
H1525 H 0.52638 0.45477 0.97503 0.0
H1526 H 0.4778 0.40433 0.93543 0.0
H1527 H 0.5298 0.396 0.9683 0.0
H1528 H 0.54819 0.39124 0.99692 0.0
H1529 H 0.49284 0.33509 0.01171 0.0
H1530 H 0.47403 0.33965 0.98333 0.0
H1531 H 0.46342 0.33437 0.86041 0.0
H1532 H 0.48037 0.36062 0.88564 0.0
H1533 H 0.4379 0.32007 0.93095 0.0
H1534 H 0.42069 0.29388 0.90574 0.0
H1535 H 0.48027 0.34268 0.94393 0.0
H1536 H 0.42841 0.35253 0.91118 0.0
H1537 H 0.41099 0.3576 0.88188 0.0
H1538 H 0.46813 0.41172 0.86605 0.0
H1539 H 0.48599 0.40679 0.8951 0.0
C1540 C 0.4971 0.4137 0.00498 0.0
C1541 C 0.51005 0.434 0.99968 0.0
C1542 C 0.49017 0.399 0.99033 0.0
C1543 C 0.4964 0.40425 0.97015 0.0
C1544 C 0.50961 0.42453 0.9649 0.0
C1545 C 0.5163 0.43925 0.9795 0.0
C1546 C 0.48839 0.38867 0.9544 0.0
C1547 C 0.47872 0.39104 0.93717 0.0
C1548 C 0.48917 0.37109 0.95674 0.0
C1549 C 0.50045 0.36825 0.97378 0.0
C1550 C 0.52151 0.38271 0.97774 0.0
C1551 C 0.53201 0.38003 0.99391 0.0
C1552 C 0.52168 0.36289 0.00615 0.0
C1553 C 0.50082 0.34837 0.00222 0.0
C1554 C 0.49024 0.35098 0.98609 0.0
C1555 C 0.45777 0.33106 0.87577 0.0
C1556 C 0.44069 0.31209 0.88109 0.0
C1557 C 0.46744 0.34604 0.89014 0.0
C1558 C 0.4603 0.34229 0.91012 0.0
C1559 C 0.44366 0.32323 0.91561 0.0
C1560 C 0.43383 0.30831 0.9012 0.0
C1561 C 0.46975 0.35842 0.92517 0.0
C1562 C 0.47959 0.3561 0.94222 0.0
C1563 C 0.46933 0.37613 0.92258 0.0
C1564 C 0.45859 0.37917 0.90518 0.0
C1565 C 0.43731 0.36541 0.90135 0.0
C1566 C 0.42735 0.36828 0.88481 0.0
C1567 C 0.43846 0.38494 0.87208 0.0
C1568 C 0.45955 0.3988 0.8759 0.0
C1569 C 0.4696 0.39598 0.89241 0.0
H1570 H 0.43072 0.38714 0.85928 0.0
H1571 H 0.52984 0.36085 0.01866 0.0
H1572 H 0.98111 0.42119 0.45081 0.0
H1573 H 0.00513 0.41467 0.4332 0.0
H1574 H 0.04623 0.47781 0.42164 0.0
H1575 H 0.02187 0.48443 0.43861 0.0
H1576 H 0.04488 0.45638 0.38975 0.0
H1577 H 0.05469 0.45521 0.46157 0.0
H1578 H 0.04372 0.44404 0.49666 0.0
H1579 H 0.02423 0.38393 0.4811 0.0
H1580 H 0.03482 0.39471 0.44583 0.0
H1581 H 0.14426 0.46657 0.38337 0.0
H1582 H 0.11348 0.46778 0.39228 0.0
H1583 H 0.07715 0.40347 0.39747 0.0
H1584 H 0.10796 0.40216 0.38833 0.0
H1585 H 0.0735 0.42232 0.43058 0.0
H1586 H 0.06773 0.425 0.359 0.0
H1587 H 0.08003 0.43724 0.32444 0.0
H1588 H 0.09334 0.49556 0.33995 0.0
H1589 H 0.0814 0.48375 0.37472 0.0
C1590 C 0.99497 0.43369 0.44413 0.0
C1591 C 0.99964 0.4534 0.44635 0.0
C1592 C 0.00881 0.42993 0.43421 0.0
C1593 C 0.02766 0.44578 0.42645 0.0
C1594 C 0.03183 0.46535 0.42763 0.0
C1595 C 0.01797 0.46913 0.43749 0.0
C1596 C 0.04365 0.44216 0.41826 0.0
C1597 C 0.05124 0.44905 0.39871 0.0
C1598 C 0.05164 0.43223 0.42981 0.0
C1599 C 0.04531 0.42572 0.45102 0.0
C1600 C 0.0479 0.43958 0.4656 0.0
C1601 C 0.04178 0.43333 0.48552 0.0
C1602 C 0.03322 0.41328 0.49109 0.0
C1603 C 0.03082 0.39945 0.47675 0.0
C1604 C 0.03688 0.40562 0.4568 0.0
C1605 C 0.12965 0.45267 0.38618 0.0
C1606 C 0.12851 0.43427 0.3852 0.0
C1607 C 0.11207 0.45338 0.3912 0.0
C1608 C 0.09301 0.43571 0.3954 0.0
C1609 C 0.09172 0.41727 0.39424 0.0
C1610 C 0.10928 0.41654 0.38903 0.0
C1611 C 0.07485 0.43668 0.40214 0.0
C1612 C 0.06692 0.42938 0.42149 0.0
C1613 C 0.06669 0.44636 0.39045 0.0
C1614 C 0.07382 0.45352 0.36953 0.0
C1615 C 0.07344 0.44048 0.3551 0.0
C1616 C 0.08032 0.44734 0.33546 0.0
C1617 C 0.0875 0.46718 0.33001 0.0
C1618 C 0.08778 0.4802 0.3442 0.0
C1619 C 0.08093 0.47343 0.36387 0.0
H1620 H 0.09282 0.47245 0.3148 0.0
H1621 H 0.0285 0.40846 0.50653 0.0
H1622 H 0.5761 0.02421 0.99515 0.0
H1623 H 0.60458 0.03912 0.97088 0.0
H1624 H 0.56197 0.03513 0.92424 0.0
H1625 H 0.53314 0.01983 0.94848 0.0
H1626 H 0.59032 0.02666 0.90985 0.0
H1627 H 0.59237 0.07862 0.94808 0.0
H1628 H 0.59279 0.09569 0.97898 0.0
H1629 H 0.65034 0.10064 0.99753 0.0
H1630 H 0.6501 0.08332 0.96687 0.0
H1631 H 0.67069 0.0988 0.84474 0.0
H1632 H 0.63996 0.08173 0.86666 0.0
H1633 H 0.67863 0.08198 0.91554 0.0
H1634 H 0.70934 0.09898 0.89371 0.0
H1635 H 0.65135 0.09291 0.92777 0.0
H1636 H 0.64876 0.04029 0.88971 0.0
H1637 H 0.64828 0.02332 0.85871 0.0
H1638 H 0.5917 0.02004 0.83954 0.0
H1639 H 0.59202 0.03728 0.87031 0.0
C1640 C 0.57267 0.02625 0.97968 0.0
C1641 C 0.55235 0.021 0.97381 0.0
C1642 C 0.58902 0.03487 0.96583 0.0
C1643 C 0.58552 0.03866 0.94584 0.0
C1644 C 0.56505 0.03245 0.93962 0.0
C1645 C 0.5486 0.0237 0.95349 0.0
C1646 C 0.60342 0.04996 0.93185 0.0
C1647 C 0.60352 0.04127 0.91362 0.0
C1648 C 0.62082 0.06892 0.93689 0.0
C1649 C 0.62112 0.07952 0.95526 0.0
C1650 C 0.60504 0.08323 0.95882 0.0
C1651 C 0.60525 0.09296 0.97628 0.0
C1652 C 0.62155 0.09921 0.99024 0.0
C1653 C 0.63771 0.09578 0.98672 0.0
C1654 C 0.63755 0.08602 0.96929 0.0
C1655 C 0.67262 0.09534 0.86022 0.0
C1656 C 0.69245 0.10039 0.86757 0.0
C1657 C 0.65506 0.0855 0.87267 0.0
C1658 C 0.65698 0.08046 0.8927 0.0
C1659 C 0.6768 0.08576 0.90016 0.0
C1660 C 0.69432 0.09548 0.88768 0.0
C1661 C 0.63835 0.06953 0.90589 0.0
C1662 C 0.63811 0.07833 0.92396 0.0
C1663 C 0.62083 0.05073 0.90066 0.0
C1664 C 0.62054 0.04026 0.88221 0.0
C1665 C 0.63631 0.0361 0.87881 0.0
C1666 C 0.63605 0.02641 0.86129 0.0
C1667 C 0.62 0.02066 0.84714 0.0
C1668 C 0.60414 0.02454 0.8505 0.0
C1669 C 0.60435 0.03426 0.86798 0.0
H1670 H 0.61983 0.01315 0.83358 0.0
H1671 H 0.62169 0.10674 0.00375 0.0
H1672 H 0.56131 0.54549 0.4273 0.0
H1673 H 0.57596 0.57873 0.41162 0.0
H1674 H 0.55968 0.59889 0.46424 0.0
H1675 H 0.54463 0.5658 0.47968 0.0
H1676 H 0.54802 0.60962 0.42974 0.0
H1677 H 0.60984 0.61217 0.45589 0.0
H1678 H 0.63449 0.6005 0.45967 0.0
H1679 H 0.64595 0.60793 0.39594 0.0
H1680 H 0.62114 0.61941 0.39175 0.0
H1681 H 0.60607 0.71436 0.41932 0.0
H1682 H 0.59078 0.6795 0.42999 0.0
H1683 H 0.61567 0.66846 0.37705 0.0
H1684 H 0.63178 0.70361 0.36679 0.0
H1685 H 0.62195 0.65163 0.40827 0.0
H1686 H 0.56215 0.65127 0.38209 0.0
H1687 H 0.53737 0.66275 0.37794 0.0
H1688 H 0.52149 0.65063 0.44066 0.0
H1689 H 0.54639 0.63933 0.44525 0.0
C1690 C 0.56086 0.55702 0.43549 0.0
C1691 C 0.55191 0.55299 0.4548 0.0
C1692 C 0.56935 0.57602 0.42658 0.0
C1693 C 0.56902 0.59131 0.43682 0.0
C1694 C 0.56013 0.58732 0.45608 0.0
C1695 C 0.55173 0.56841 0.46499 0.0
C1696 C 0.57753 0.61143 0.42747 0.0
C1697 C 0.56423 0.61889 0.42519 0.0
C1698 C 0.59849 0.62324 0.42095 0.0
C1699 C 0.61347 0.61644 0.42348 0.0
C1700 C 0.61749 0.61116 0.44266 0.0
C1701 C 0.63151 0.60461 0.44488 0.0
C1702 C 0.64173 0.60342 0.42805 0.0
C1703 C 0.63799 0.60883 0.40896 0.0
C1704 C 0.62397 0.61537 0.40666 0.0
C1705 C 0.60801 0.7044 0.40982 0.0
C1706 C 0.61963 0.7116 0.39196 0.0
C1707 C 0.59922 0.68447 0.41589 0.0
C1708 C 0.60164 0.67118 0.4041 0.0
C1709 C 0.61341 0.67836 0.38631 0.0
C1710 C 0.62245 0.69841 0.38036 0.0
C1711 C 0.59252 0.65003 0.41082 0.0
C1712 C 0.60568 0.64233 0.41259 0.0
C1713 C 0.57136 0.63793 0.41678 0.0
C1714 C 0.55625 0.64459 0.41404 0.0
C1715 C 0.55347 0.65117 0.39503 0.0
C1716 C 0.53939 0.65763 0.39259 0.0
C1717 C 0.52789 0.65746 0.40903 0.0
C1718 C 0.53041 0.65077 0.42794 0.0
C1719 C 0.54449 0.64431 0.43046 0.0
H1720 H 0.51701 0.66247 0.40712 0.0
H1721 H 0.65258 0.59834 0.4298 0.0
H1722 H 0.48419 0.03349 0.56042 0.0
H1723 H 0.47068 0.04768 0.58355 0.0
H1724 H 0.50777 0.1053 0.55429 0.0
H1725 H 0.52198 0.09134 0.53145 0.0
H1726 H 0.5098 0.10858 0.59482 0.0
H1727 H 0.4553 0.0757 0.54512 0.0
H1728 H 0.42972 0.04739 0.52456 0.0
H1729 H 0.39912 0.0138 0.57827 0.0
H1730 H 0.42471 0.04183 0.59918 0.0
H1731 H 0.45799 0.15628 0.62885 0.0
H1732 H 0.47329 0.14104 0.60942 0.0
H1733 H 0.43467 0.08506 0.64116 0.0
H1734 H 0.41916 0.10031 0.6606 0.0
H1735 H 0.43347 0.07987 0.60103 0.0
H1736 H 0.4867 0.11295 0.6508 0.0
H1737 H 0.51209 0.14111 0.67163 0.0
H1738 H 0.54494 0.17399 0.61838 0.0
H1739 H 0.51956 0.14613 0.59719 0.0
C1740 C 0.48971 0.04923 0.55898 0.0
C1741 C 0.50424 0.06126 0.54401 0.0
C1742 C 0.48177 0.05728 0.57213 0.0
C1743 C 0.48802 0.07751 0.57052 0.0
C1744 C 0.50267 0.08963 0.55576 0.0
C1745 C 0.51065 0.08158 0.54259 0.0
C1746 C 0.47929 0.08601 0.58426 0.0
C1747 C 0.49312 0.10246 0.59599 0.0
C1748 C 0.45749 0.07764 0.58626 0.0
C1749 C 0.44205 0.06079 0.57371 0.0
C1750 C 0.44322 0.06222 0.55255 0.0
C1751 C 0.4287 0.04623 0.54083 0.0
C1752 C 0.41284 0.02878 0.5501 0.0
C1753 C 0.41143 0.02731 0.57111 0.0
C1754 C 0.42593 0.04325 0.5829 0.0
C1755 C 0.45302 0.14082 0.63192 0.0
C1756 C 0.43764 0.12957 0.64647 0.0
C1757 C 0.46177 0.13212 0.62082 0.0
C1758 C 0.45532 0.11196 0.624 0.0
C1759 C 0.43997 0.10067 0.63854 0.0
C1760 C 0.43122 0.10939 0.6497 0.0
C1761 C 0.46398 0.10256 0.61146 0.0
C1762 C 0.45014 0.08593 0.59994 0.0
C1763 C 0.48576 0.11074 0.6097 0.0
C1764 C 0.50111 0.12751 0.62239 0.0
C1765 C 0.49924 0.12625 0.64351 0.0
C1766 C 0.51365 0.14214 0.65539 0.0
C1767 C 0.53009 0.15934 0.64634 0.0
C1768 C 0.53219 0.16066 0.62538 0.0
C1769 C 0.5178 0.14481 0.61342 0.0
H1770 H 0.54123 0.17163 0.65556 0.0
H1771 H 0.40161 0.01642 0.54101 0.0
H1772 H 0.45853 0.49152 0.03818 0.0
H1773 H 0.4244 0.48149 0.05274 0.0
H1774 H 0.44164 0.46333 0.1078 0.0
H1775 H 0.47526 0.473 0.09351 0.0
H1776 H 0.40325 0.43545 0.09616 0.0
H1777 H 0.44329 0.50743 0.10402 0.0
H1778 H 0.4636 0.54234 0.09163 0.0
H1779 H 0.41138 0.53298 0.0555 0.0
H1780 H 0.39083 0.4979 0.06747 0.0
H1781 H 0.344 0.45907 0.1709 0.0
H1782 H 0.37258 0.47112 0.14673 0.0
H1783 H 0.33277 0.42238 0.10746 0.0
H1784 H 0.3042 0.41012 0.13173 0.0
H1785 H 0.37976 0.48299 0.10688 0.0
H1786 H 0.36217 0.40423 0.08979 0.0
H1787 H 0.3437 0.37027 0.10488 0.0
H1788 H 0.35446 0.39499 0.16406 0.0
H1789 H 0.37326 0.42906 0.14933 0.0
C1790 C 0.45499 0.48539 0.05338 0.0
C1791 C 0.4696 0.48303 0.06466 0.0
C1792 C 0.43553 0.47971 0.06168 0.0
C1793 C 0.43049 0.47165 0.08136 0.0
C1794 C 0.44511 0.46937 0.09255 0.0
C1795 C 0.46441 0.475 0.08434 0.0
C1796 C 0.41009 0.46543 0.09068 0.0
C1797 C 0.398 0.44579 0.09826 0.0
C1798 C 0.40329 0.47894 0.09357 0.0
C1799 C 0.41562 0.5 0.08644 0.0
C1800 C 0.4362 0.51277 0.0933 0.0
C1801 C 0.44774 0.5326 0.08639 0.0
C1802 C 0.43882 0.53986 0.07275 0.0
C1803 C 0.41829 0.52732 0.06603 0.0
C1804 C 0.40669 0.50748 0.07288 0.0
C1805 C 0.34121 0.45122 0.15689 0.0
C1806 C 0.32181 0.43376 0.1531 0.0
C1807 C 0.35752 0.45813 0.14307 0.0
C1808 C 0.35483 0.4476 0.12535 0.0
C1809 C 0.3352 0.43068 0.12109 0.0
C1810 C 0.31889 0.42373 0.13492 0.0
C1811 C 0.37315 0.45312 0.11253 0.0
C1812 C 0.38479 0.47255 0.10433 0.0
C1813 C 0.37982 0.43955 0.10936 0.0
C1814 C 0.36886 0.41915 0.11843 0.0
C1815 C 0.36064 0.40239 0.10602 0.0
C1816 C 0.35012 0.38313 0.11451 0.0
C1817 C 0.34784 0.38047 0.13541 0.0
C1818 C 0.35617 0.39707 0.14787 0.0
C1819 C 0.36674 0.41635 0.13946 0.0
H1820 H 0.33967 0.36555 0.14196 0.0
H1821 H 0.44778 0.55521 0.06742 0.0
H1822 H 0.9931 0.44554 0.54048 0.0
H1823 H 0.98169 0.41622 0.56237 0.0
H1824 H 0.96106 0.44154 0.6066 0.0
H1825 H 0.97285 0.4711 0.58504 0.0
H1826 H 0.97732 0.42197 0.62479 0.0
H1827 H 0.92705 0.40811 0.57186 0.0
H1828 H 0.91564 0.40626 0.5365 0.0
H1829 H 0.93452 0.36458 0.52403 0.0
H1830 H 0.94634 0.36641 0.55928 0.0
H1831 H 0.90152 0.33412 0.67652 0.0
H1832 H 0.91846 0.36462 0.65559 0.0
H1833 H 0.93973 0.33687 0.61499 0.0
H1834 H 0.92274 0.30631 0.63586 0.0
H1835 H 0.92454 0.35732 0.59464 0.0
H1836 H 0.97296 0.36985 0.64846 0.0
H1837 H 0.98414 0.37185 0.68391 0.0
H1838 H 0.96828 0.41599 0.69491 0.0
H1839 H 0.9567 0.41403 0.65957 0.0
C1840 C 0.98651 0.44507 0.55503 0.0
C1841 C 0.98367 0.4606 0.56088 0.0
C1842 C 0.97987 0.42822 0.56749 0.0
C1843 C 0.97004 0.42645 0.58593 0.0
C1844 C 0.96846 0.4425 0.59239 0.0
C1845 C 0.97522 0.45942 0.58001 0.0
C1846 C 0.96016 0.40742 0.59786 0.0
C1847 C 0.96565 0.40787 0.61824 0.0
C1848 C 0.94518 0.38892 0.58925 0.0
C1849 C 0.93777 0.38755 0.56814 0.0
C1850 C 0.92888 0.39864 0.56154 0.0
C1851 C 0.92233 0.39759 0.54153 0.0
C1852 C 0.9244 0.38535 0.52801 0.0
C1853 C 0.93296 0.37408 0.53451 0.0
C1854 C 0.93957 0.3751 0.55451 0.0
C1855 C 0.90961 0.33447 0.663 0.0
C1856 C 0.91058 0.31774 0.65769 0.0
C1857 C 0.91941 0.35193 0.65114 0.0
C1858 C 0.93053 0.35309 0.63381 0.0
C1859 C 0.93122 0.3363 0.62827 0.0
C1860 C 0.92149 0.31885 0.64018 0.0
C1861 C 0.94161 0.37188 0.6216 0.0
C1862 C 0.93631 0.37139 0.60116 0.0
C1863 C 0.95669 0.39033 0.63019 0.0
C1864 C 0.96378 0.39165 0.65141 0.0
C1865 C 0.97171 0.37987 0.65847 0.0
C1866 C 0.97814 0.38102 0.67854 0.0
C1867 C 0.97688 0.39401 0.69166 0.0
C1868 C 0.96923 0.40592 0.68473 0.0
C1869 C 0.96274 0.40481 0.66468 0.0
H1870 H 0.98187 0.39487 0.70719 0.0
H1871 H 0.91934 0.38457 0.51252 0.0
H1872 H 0.53195 0.97874 0.09484 0.0
H1873 H 0.54224 0.95895 0.11523 0.0
H1874 H 0.60672 0.00699 0.11197 0.0
H1875 H 0.59652 0.02678 0.09128 0.0
H1876 H 0.60102 0.97007 0.10316 0.0
H1877 H 0.58079 0.9985 0.15486 0.0
H1878 H 0.55718 0.00666 0.17164 0.0
H1879 H 0.51104 0.94419 0.17832 0.0
H1880 H 0.53427 0.93565 0.16132 0.0
H1881 H 0.64079 0.93079 0.17606 0.0
H1882 H 0.63126 0.9515 0.15625 0.0
H1883 H 0.56595 0.90763 0.1656 0.0
H1884 H 0.57546 0.88729 0.18609 0.0
H1885 H 0.57246 0.94298 0.1712 0.0
H1886 H 0.59114 0.91388 0.11932 0.0
H1887 H 0.61344 0.90468 0.10156 0.0
H1888 H 0.66074 0.96669 0.09395 0.0
H1889 H 0.63884 0.97627 0.1119 0.0
C1890 C 0.54831 0.9851 0.0985 0.0
C1891 C 0.56343 0.00431 0.09144 0.0
C1892 C 0.55416 0.97383 0.11025 0.0
C1893 C 0.57523 0.98155 0.11519 0.0
C1894 C 0.59036 0.00079 0.10834 0.0
C1895 C 0.5845 0.01214 0.09669 0.0
C1896 C 0.58147 0.96925 0.12701 0.0
C1897 C 0.59506 0.96438 0.11817 0.0
C1898 C 0.57314 0.96135 0.14631 0.0
C1899 C 0.5592 0.96645 0.15666 0.0
C1900 C 0.56555 0.9865 0.15977 0.0
C1901 C 0.55224 0.9912 0.16935 0.0
C1902 C 0.5326 0.97596 0.176 0.0
C1903 C 0.52625 0.95598 0.17314 0.0
C1904 C 0.53949 0.95121 0.16356 0.0
C1905 C 0.62441 0.92546 0.17361 0.0
C1906 C 0.60889 0.90716 0.18214 0.0
C1907 C 0.61896 0.93727 0.16227 0.0
C1908 C 0.59786 0.93096 0.15908 0.0
C1909 C 0.58233 0.91275 0.16772 0.0
C1910 C 0.58777 0.90104 0.17926 0.0
C1911 C 0.59201 0.94368 0.14736 0.0
C1912 C 0.57849 0.94865 0.1562 0.0
C1913 C 0.60022 0.95149 0.12795 0.0
C1914 C 0.61343 0.94578 0.11714 0.0
C1915 C 0.60637 0.92555 0.114 0.0
C1916 C 0.61892 0.92027 0.10387 0.0
C1917 C 0.63851 0.93509 0.09668 0.0
C1918 C 0.64557 0.95523 0.09955 0.0
C1919 C 0.63309 0.96059 0.10969 0.0
H1920 H 0.64821 0.93097 0.08884 0.0
H1921 H 0.52232 0.97962 0.18341 0.0
H1922 H 0.56728 0.53755 0.54447 0.0
H1923 H 0.5953 0.55014 0.56941 0.0
H1924 H 0.54986 0.52223 0.61698 0.0
H1925 H 0.52162 0.50902 0.59197 0.0
H1926 H 0.60802 0.57362 0.60006 0.0
H1927 H 0.56841 0.504 0.65316 0.0
H1928 H 0.54163 0.46807 0.6512 0.0
H1929 H 0.55518 0.46859 0.58849 0.0
H1930 H 0.58225 0.50443 0.59015 0.0
H1931 H 0.67234 0.59645 0.68647 0.0
H1932 H 0.64275 0.58609 0.66353 0.0
H1933 H 0.64858 0.53728 0.64367 0.0
H1934 H 0.67714 0.54673 0.66755 0.0
H1935 H 0.61016 0.5243 0.64644 0.0
H1936 H 0.66662 0.58301 0.61528 0.0
H1937 H 0.69563 0.61814 0.61299 0.0
H1938 H 0.65322 0.63782 0.62478 0.0
H1939 H 0.62399 0.60279 0.62737 0.0
C1940 C 0.56316 0.53425 0.56025 0.0
C1941 C 0.54217 0.52206 0.56619 0.0
C1942 C 0.57926 0.54152 0.57452 0.0
C1943 C 0.57475 0.53685 0.59506 0.0
C1944 C 0.55375 0.5257 0.60118 0.0
C1945 C 0.5376 0.51826 0.58686 0.0
C1946 C 0.59208 0.54279 0.60979 0.0
C1947 C 0.60844 0.56286 0.61028 0.0
C1948 C 0.59297 0.52867 0.62274 0.0
C1949 C 0.57716 0.50696 0.62174 0.0
C1950 C 0.56574 0.49642 0.63899 0.0
C1951 C 0.55051 0.47608 0.63792 0.0
C1952 C 0.54663 0.46609 0.6197 0.0
C1953 C 0.55813 0.47637 0.60256 0.0
C1954 C 0.57341 0.4967 0.60356 0.0
C1955 C 0.66729 0.58352 0.67717 0.0
C1956 C 0.67739 0.57269 0.67862 0.0
C1957 C 0.65045 0.57766 0.66396 0.0
C1958 C 0.64363 0.56113 0.65146 0.0
C1959 C 0.65354 0.55014 0.65305 0.0
C1960 C 0.67007 0.55571 0.66661 0.0
C1961 C 0.62617 0.55522 0.63681 0.0
C1962 C 0.60974 0.53513 0.63634 0.0
C1963 C 0.62563 0.5692 0.6233 0.0
C1964 C 0.64316 0.59028 0.62171 0.0
C1965 C 0.66351 0.59483 0.61751 0.0
C1966 C 0.67999 0.61472 0.61614 0.0
C1967 C 0.67628 0.6302 0.61879 0.0
C1968 C 0.65607 0.62582 0.62276 0.0
C1969 C 0.63954 0.60595 0.62416 0.0
H1970 H 0.68906 0.64559 0.61772 0.0
H1971 H 0.53471 0.4504 0.61886 0.0
H1972 H 0.09612 0.60661 0.00547 0.0
H1973 H 0.10752 0.63182 0.03156 0.0
H1974 H 0.10297 0.58897 0.07624 0.0
H1975 H 0.09145 0.56372 0.05024 0.0
H1976 H 0.08372 0.60691 0.08874 0.0
H1977 H 0.15063 0.62839 0.0598 0.0
H1978 H 0.17641 0.63904 0.03249 0.0
H1979 H 0.17039 0.68956 0.01921 0.0
H1980 H 0.14436 0.67905 0.04629 0.0
H1981 H 0.13345 0.67192 0.1703 0.0
H1982 H 0.12568 0.6489 0.14263 0.0
H1983 H 0.12629 0.69187 0.10056 0.0
H1984 H 0.13415 0.71502 0.12822 0.0
H1985 H 0.14755 0.67467 0.08626 0.0
H1986 H 0.08089 0.65325 0.11536 0.0
H1987 H 0.05538 0.64277 0.1429 0.0
H1988 H 0.0611 0.59204 0.15588 0.0
H1989 H 0.0869 0.60239 0.12859 0.0
C1990 C 0.09795 0.60268 0.02077 0.0
C1991 C 0.09281 0.58315 0.02581 0.0
C1992 C 0.10444 0.6171 0.03569 0.0
C1993 C 0.10617 0.61231 0.05587 0.0
C1994 C 0.10164 0.59298 0.0608 0.0
C1995 C 0.09504 0.57856 0.04594 0.0
C1996 C 0.11162 0.62705 0.07203 0.0
C1997 C 0.09785 0.62161 0.08832 0.0
C1998 C 0.12972 0.64646 0.07121 0.0
C1999 C 0.14539 0.65282 0.05494 0.0
C2000 C 0.15468 0.64168 0.05095 0.0
C2001 C 0.16936 0.64771 0.03553 0.0
C2002 C 0.175 0.66493 0.02408 0.0
C2003 C 0.16599 0.6762 0.02807 0.0
C2004 C 0.15129 0.67023 0.04346 0.0
C2005 C 0.13202 0.67647 0.15513 0.0
C2006 C 0.13454 0.6953 0.15138 0.0
C2007 C 0.12752 0.66332 0.13936 0.0
C2008 C 0.12529 0.66865 0.11957 0.0
C2009 C 0.12801 0.68751 0.11572 0.0
C2010 C 0.13245 0.70067 0.13151 0.0
C2011 C 0.11978 0.65438 0.10298 0.0
C2012 C 0.13346 0.65993 0.08663 0.0
C2013 C 0.1016 0.63505 0.10372 0.0
C2014 C 0.08598 0.6287 0.12005 0.0
C2015 C 0.07683 0.63995 0.12419 0.0
C2016 C 0.0623 0.63402 0.13974 0.0
C2017 C 0.05666 0.61678 0.15116 0.0
C2018 C 0.0655 0.6054 0.14703 0.0
C2019 C 0.08007 0.61128 0.13151 0.0
H2020 H 0.04541 0.61221 0.16319 0.0
H2021 H 0.18637 0.66958 0.01216 0.0
loop_
_geom_bond_atom_site_label_1
_geom_bond_atom_site_label_2
_geom_bond_distance
_geom_bond_site_symmetry_2
_ccdc_geom_bond_type
Cu0 N1 1.999 1_554 S
Cu0 O6 1.974 1_554 S
Cu0 N11 1.985 . S
Cu0 O20 1.959 . S
N1 Cu0 1.999 1_556 S
N1 C3 1.263 . S
N1 C5 1.389 1_556 S
N2 C3 1.358 1_655 S
N2 C4 1.400 . S
C3 N1 1.263 . S
C3 N2 1.358 1_455 S
C3 H9 0.930 . S
C4 N2 1.400 . S
C4 C5 1.351 1_656 S
C4 H21 0.930 . S
C5 N1 1.389 1_554 S
C5 C4 1.351 1_454 S
C5 H10 0.930 . S
O6 Cu0 1.974 1_556 S
O6 C16 1.282 . S
C7 O8 1.261 . S
C7 O20 1.251 . S
O8 C7 1.261 . S
H9 C3 0.930 . S
H10 C5 0.930 . S
N11 Cu0 1.985 . S
N11 C13 1.335 . S
N11 C14 1.390 . S
N12 C13 1.345 . S
N12 C15 1.336 . S
C13 N11 1.335 . S
C13 N12 1.345 . S
C13 H18 0.930 . S
C14 N11 1.390 . S
C14 C15 1.346 . S
C14 H19 0.949 . S
C15 N12 1.336 . S
C15 C14 1.346 . S
C15 H22 0.929 . S
C16 O6 1.282 . S
C16 O17 1.216 . S
O17 C16 1.216 . S
H18 C13 0.930 . S
H19 C14 0.949 . S
O20 Cu0 1.959 . S
O20 C7 1.251 . S
H21 C4 0.930 . S
H22 C15 0.929 . S
Cu23 N24 1.999 . S
Cu23 O29 1.974 . S
Cu23 N34 1.985 1_565 S
Cu23 O43 1.959 1_565 S
N24 Cu23 1.999 . S
N24 C26 1.263 . S
N24 C28 1.389 . S
N25 C26 1.358 . S
N25 C27 1.400 . S
C26 N24 1.263 . S
C26 N25 1.358 . S
C26 H32 0.930 . S
C27 N25 1.400 . S
C27 C28 1.351 . S
C27 H44 0.930 . S
C28 N24 1.389 . S
C28 C27 1.351 . S
C28 H33 0.930 . S
O29 Cu23 1.974 . S
O29 C39 1.282 . S
C30 O31 1.261 . S
C30 O43 1.251 . S
O31 C30 1.261 . S
H32 C26 0.930 . S
H33 C28 0.930 . S
N34 Cu23 1.985 1_545 S
N34 C36 1.335 . S
N34 C37 1.390 . S
N35 C36 1.345 . S
N35 C38 1.336 . S
C36 N34 1.335 . S
C36 N35 1.345 . S
C36 H41 0.930 . S
C37 N34 1.390 . S
C37 C38 1.346 . S
C37 H42 0.930 . S
C38 N35 1.336 . S
C38 C37 1.346 . S
C38 H45 0.929 . S
C39 O29 1.282 . S
C39 O40 1.216 1_565 S
O40 C39 1.216 1_545 S
H41 C36 0.930 . S
H42 C37 0.930 . S
O43 Cu23 1.959 1_545 S
O43 C30 1.251 . S
H44 C27 0.930 . S
H45 C38 0.929 . S
Cu46 N47 1.999 . S
Cu46 O52 1.974 . S
Cu46 N57 1.985 . S
Cu46 O66 1.959 . S
N47 Cu46 1.999 . S
N47 C49 1.263 1_554 S
N47 C51 1.389 1_554 S
N48 C49 1.358 . S
N48 C50 1.400 . S
C49 N47 1.263 1_556 S
C49 N48 1.358 . S
C49 H55 0.930 . S
C50 N48 1.400 . S
C50 C51 1.351 . S
C50 H67 0.930 . S
C51 N47 1.389 1_556 S
C51 C50 1.351 . S
C51 H56 0.930 1_556 S
O52 Cu46 1.974 . S
O52 C62 1.282 . S
C53 O54 1.261 . S
C53 O66 1.251 . S
O54 C53 1.261 . S
H55 C49 0.930 . S
H56 C51 0.930 1_554 S
N57 Cu46 1.985 . S
N57 C59 1.335 . S
N57 C60 1.390 . S
N58 C59 1.345 . S
N58 C61 1.336 . S
C59 N57 1.335 . S
C59 N58 1.345 . S
C59 H64 0.930 . S
C60 N57 1.390 . S
C60 C61 1.346 . S
C60 H65 0.930 . S
C61 N58 1.336 . S
C61 C60 1.346 . S
C61 H68 0.929 . S
C62 O52 1.282 . S
C62 O63 1.216 . S
O63 C62 1.216 . S
H64 C59 0.930 . S
H65 C60 0.930 . S
O66 Cu46 1.959 . S
O66 C53 1.251 . S
H67 C50 0.930 . S
H68 C61 0.929 . S
Cu69 N70 1.999 1_655 S
Cu69 O75 1.974 1_655 S
Cu69 N80 1.985 . S
Cu69 O89 1.959 . S
N70 Cu69 1.999 1_455 S
N70 C72 1.263 . S
N70 C74 1.389 1_455 S
N71 C72 1.358 . S
N71 C73 1.400 . S
C72 N70 1.263 . S
C72 N71 1.358 . S
C72 H78 0.930 . S
C73 N71 1.400 . S
C73 C74 1.351 1_455 S
C73 H90 0.947 1_455 S
C74 N70 1.389 1_655 S
C74 C73 1.351 1_655 S
C74 H79 0.930 . S
O75 Cu69 1.974 1_455 S
O75 C85 1.282 . S
C76 O77 1.261 1_655 S
C76 O89 1.251 . S
O77 C76 1.261 1_455 S
H78 C72 0.930 . S
H79 C74 0.930 . S
N80 Cu69 1.985 . S
N80 C82 1.335 . S
N80 C83 1.390 . S
N81 C82 1.345 . S
N81 C84 1.336 . S
C82 N80 1.335 . S
C82 N81 1.345 . S
C82 H87 0.930 . S
C83 N80 1.390 . S
C83 C84 1.346 . S
C83 H88 0.930 1_655 S
C84 N81 1.336 . S
C84 C83 1.346 . S
C84 H91 0.929 . S
C85 O75 1.282 . S
C85 O86 1.216 . S
O86 C85 1.216 . S
H87 C82 0.930 . S
H88 C83 0.930 1_455 S
O89 Cu69 1.959 . S
O89 C76 1.251 . S
H90 C73 0.947 1_655 S
H91 C84 0.929 . S
Cu92 N93 1.999 . S
Cu92 O98 1.974 . S
Cu92 N103 1.995 . S
Cu92 O112 1.959 . S
N93 Cu92 1.999 . S
N93 C95 1.207 1_554 S
N93 C97 1.389 . S
N94 C95 1.370 . S
N94 C96 1.400 1_556 S
C95 N93 1.207 1_556 S
C95 N94 1.370 . S
C95 H101 0.971 . S
C96 N94 1.400 1_554 S
C96 C97 1.351 . S
C96 H113 0.930 . S
C97 N93 1.389 . S
C97 C96 1.351 . S
C97 H102 0.930 . S
O98 Cu92 1.974 . S
O98 C108 1.282 1_554 S
C99 O100 1.261 . S
C99 O112 1.251 1_565 S
O100 C99 1.261 . S
H101 C95 0.971 . S
H102 C97 0.930 . S
N103 Cu92 1.995 . S
N103 C105 1.331 1_545 S
N103 C106 1.383 1_545 S
N104 C105 1.345 . S
N104 C107 1.336 . S
C105 N103 1.331 1_565 S
C105 N104 1.345 . S
C105 H110 0.930 . S
C106 N103 1.383 1_565 S
C106 C107 1.346 . S
C106 H111 0.930 1_565 S
C107 N104 1.336 . S
C107 C106 1.346 . S
C107 H114 0.929 . S
C108 O98 1.282 1_556 S
C108 O109 1.216 . S
O109 C108 1.216 . S
H110 C105 0.930 . S
H111 C106 0.930 1_545 S
O112 Cu92 1.959 . S
O112 C99 1.251 1_545 S
H113 C96 0.930 . S
H114 C107 0.929 . S
Cu115 N116 1.999 . S
Cu115 O121 1.974 . S
Cu115 N126 1.985 . S
Cu115 O135 1.959 . S
N116 Cu115 1.999 . S
N116 C118 1.263 . S
N116 C120 1.389 . S
N117 C118 1.358 . S
N117 C119 1.400 . S
C118 N116 1.263 . S
C118 N117 1.358 . S
C118 H124 0.930 . S
C119 N117 1.400 . S
C119 C120 1.351 . S
C119 H136 0.930 . S
C120 N116 1.389 . S
C120 C119 1.351 . S
C120 H125 0.930 . S
O121 Cu115 1.974 . S
O121 C131 1.282 . S
C122 O123 1.261 . S
C122 O135 1.251 . S
O123 C122 1.261 . S
H124 C118 0.930 . S
H125 C120 0.930 . S
N126 Cu115 1.985 . S
N126 C128 1.335 . S
N126 C129 1.390 . S
N127 C128 1.345 . S
N127 C130 1.336 . S
C128 N126 1.335 . S
C128 N127 1.345 . S
C128 H133 0.930 . S
C129 N126 1.390 . S
C129 C130 1.346 . S
C129 H134 0.930 . S
C130 N127 1.336 . S
C130 C129 1.346 . S
C130 H137 0.929 . S
C131 O121 1.282 . S
C131 O132 1.216 . S
O132 C131 1.216 . S
H133 C128 0.930 . S
H134 C129 0.930 . S
O135 Cu115 1.959 . S
O135 C122 1.251 . S
H136 C119 0.930 . S
H137 C130 0.929 . S
C138 C139 1.560 . S
C138 H199 0.959 . S
C138 H200 0.959 . S
C138 H201 0.960 . S
C139 C138 1.560 . S
C139 O194 1.426 . S
C139 H198 0.980 . S
C140 C141 1.407 . S
C140 C145 1.418 . S
C140 O194 1.334 . S
C141 C140 1.407 . S
C141 C142 1.360 . S
C141 H202 0.929 . S
C142 C141 1.360 . S
C142 C143 1.401 . S
C142 C146 1.527 . S
C143 C142 1.401 . S
C143 C144 1.405 . S
C143 C176 1.587 . S
C144 C143 1.405 . S
C144 C145 1.332 . S
C144 C147 1.496 . S
C145 C140 1.418 . S
C145 C144 1.332 . S
C145 H203 0.929 . S
C146 C142 1.527 . S
C146 H204 0.959 . S
C146 H205 0.961 . S
C146 H206 0.961 . S
C147 C144 1.496 . S
C147 H207 0.960 . S
C147 H208 0.960 . S
C147 H209 0.961 . S
C148 C149 1.517 . S
C148 H211 0.961 . S
C148 H212 0.960 . S
C148 H213 0.959 . S
C149 C148 1.517 . S
C149 O197 1.468 . S
C149 H210 0.980 . S
C150 C151 1.349 . S
C150 C155 1.367 . S
C150 O197 1.408 . S
C151 C150 1.349 . S
C151 C152 1.407 . S
C151 H214 0.930 . S
C152 C151 1.407 . S
C152 C153 1.449 . S
C152 C156 1.535 . S
C153 C152 1.449 . S
C153 C154 1.384 . S
C153 C178 1.553 . S
C154 C153 1.384 . S
C154 C155 1.364 . S
C154 C157 1.450 . S
C155 C150 1.367 . S
C155 C154 1.364 . S
C155 H215 0.931 . S
C156 C152 1.535 . S
C156 H216 0.959 . S
C156 H217 0.961 . S
C156 H218 0.959 . S
C157 C154 1.450 . S
C157 H219 0.960 . S
C157 H220 0.960 . S
C157 H221 0.960 . S
C158 C159 1.309 . S
C158 C163 1.304 . S
C158 O196 1.435 . S
C159 C158 1.309 . S
C159 C160 1.476 . S
C159 H223 0.930 . S
C160 C159 1.476 . S
C160 C161 1.400 . S
C160 C164 1.567 . S
C161 C160 1.400 . S
C161 C162 1.373 . S
C161 C183 1.432 . S
C162 C161 1.373 . S
C162 C163 1.339 . S
C162 C165 1.530 . S
C163 C158 1.304 . S
C163 C162 1.339 . S
C163 H224 0.930 . S
C164 C160 1.567 . S
C164 H225 0.961 . S
C164 H226 0.960 . S
C164 H227 0.958 . S
C165 C162 1.530 . S
C165 H228 0.961 . S
C165 H229 0.960 . S
C165 H230 0.960 . S
C166 C167 1.530 . S
C166 H232 0.961 . S
C166 H233 0.961 . S
C166 H234 0.959 . S
C167 C166 1.530 . S
C167 O195 1.412 . S
C167 H231 0.980 . S
C168 C169 1.288 . S
C168 C173 1.377 . S
C168 O195 1.393 . S
C169 C168 1.288 . S
C169 C170 1.369 . S
C169 H235 0.932 . S
C170 C169 1.369 . S
C170 C171 1.398 . S
C170 C174 1.527 . S
C171 C170 1.398 . S
C171 C172 1.380 . S
C171 C185 1.497 . S
C172 C171 1.380 . S
C172 C173 1.383 . S
C172 C175 1.603 . S
C173 C168 1.377 . S
C173 C172 1.383 . S
C173 H236 0.929 . S
C174 C170 1.527 . S
C174 H237 0.961 . S
C174 H238 0.959 . S
C174 H239 0.959 . S
C175 C172 1.603 . S
C175 H240 0.960 . S
C175 H241 0.962 . S
C175 H242 0.961 . S
C176 C143 1.587 . S
C176 C177 1.360 . S
C176 C189 1.412 . S
C177 C176 1.360 . S
C177 C178 1.365 . S
C177 H243 0.929 . S
C178 C153 1.553 . S
C178 C177 1.365 . S
C178 C179 1.404 . S
C179 C178 1.404 . S
C179 C180 1.395 . S
C179 C190 1.451 . S
C180 C179 1.395 . S
C180 C181 1.322 . S
C180 H244 0.930 . S
C181 C180 1.322 . S
C181 C182 1.459 . S
C181 H245 0.929 . S
C182 C181 1.459 . S
C182 C183 1.445 . S
C182 C191 1.395 . S
C183 C161 1.432 . S
C183 C182 1.445 . S
C183 C184 1.370 . S
C184 C183 1.370 . S
C184 C185 1.438 . S
C184 H246 0.930 . S
C185 C171 1.497 . S
C185 C184 1.438 . S
C185 C186 1.360 . S
C186 C185 1.360 . S
C186 C187 1.401 . S
C186 C191 1.446 . S
C187 C186 1.401 . S
C187 C188 1.347 . S
C187 H247 0.929 . S
C188 C187 1.347 . S
C188 C189 1.455 . S
C188 H248 0.930 . S
C189 C176 1.412 . S
C189 C188 1.455 . S
C189 C190 1.331 . S
C190 C179 1.451 . S
C190 C189 1.331 . S
C190 C191 1.497 . S
C191 C182 1.395 . S
C191 C186 1.446 . S
C191 C190 1.497 . S
C192 C193 1.582 . S
C192 H249 0.962 . S
C192 H250 0.959 . S
C192 H251 0.958 . S
C193 C192 1.582 . S
C193 O196 1.458 . S
C193 H222 0.980 . S
O194 C139 1.426 . S
O194 C140 1.334 . S
O195 C167 1.412 . S
O195 C168 1.393 . S
O196 C158 1.435 . S
O196 C193 1.458 . S
O197 C149 1.468 . S
O197 C150 1.408 . S
H198 C139 0.980 . S
H199 C138 0.959 . S
H200 C138 0.959 . S
H201 C138 0.960 . S
H202 C141 0.929 . S
H203 C145 0.929 . S
H204 C146 0.959 . S
H205 C146 0.961 . S
H206 C146 0.961 . S
H207 C147 0.960 . S
H208 C147 0.960 . S
H209 C147 0.961 . S
H210 C149 0.980 . S
H211 C148 0.961 . S
H212 C148 0.960 . S
H213 C148 0.959 . S
H214 C151 0.930 . S
H215 C155 0.931 . S
H216 C156 0.959 . S
H217 C156 0.961 . S
H218 C156 0.959 . S
H219 C157 0.960 . S
H220 C157 0.960 . S
H221 C157 0.960 . S
H222 C193 0.980 . S
H223 C159 0.930 . S
H224 C163 0.930 . S
H225 C164 0.961 . S
H226 C164 0.960 . S
H227 C164 0.958 . S
H228 C165 0.961 . S
H229 C165 0.960 . S
H230 C165 0.960 . S
H231 C167 0.980 . S
H232 C166 0.961 . S
H233 C166 0.961 . S
H234 C166 0.959 . S
H235 C169 0.932 . S
H236 C173 0.929 . S
H237 C174 0.961 . S
H238 C174 0.959 . S
H239 C174 0.959 . S
H240 C175 0.960 . S
H241 C175 0.962 . S
H242 C175 0.961 . S
H243 C177 0.929 . S
H244 C180 0.930 . S
H245 C181 0.929 . S
H246 C184 0.930 . S
H247 C187 0.929 . S
H248 C188 0.930 . S
H249 C192 0.962 . S
H250 C192 0.959 . S
H251 C192 0.958 . S
C252 C253 1.560 . S
C252 H313 0.959 . S
C252 H314 0.959 . S
C252 H315 0.960 . S
C253 C252 1.560 . S
C253 O308 1.426 . S
C253 H312 0.980 . S
C254 C255 1.407 . S
C254 C259 1.418 . S
C254 O308 1.334 . S
C255 C254 1.407 . S
C255 C256 1.360 . S
C255 H316 0.929 . S
C256 C255 1.360 . S
C256 C257 1.401 . S
C256 C260 1.527 . S
C257 C256 1.401 . S
C257 C258 1.405 . S
C257 C290 1.587 . S
C258 C257 1.405 . S
C258 C259 1.332 . S
C258 C261 1.496 . S
C259 C254 1.418 . S
C259 C258 1.332 . S
C259 H317 0.929 . S
C260 C256 1.527 . S
C260 H318 0.959 . S
C260 H319 0.961 . S
C260 H320 0.961 . S
C261 C258 1.496 . S
C261 H321 0.960 . S
C261 H322 0.960 . S
C261 H323 0.961 . S
C262 C263 1.517 . S
C262 H325 0.961 . S
C262 H326 0.960 . S
C262 H327 0.959 . S
C263 C262 1.517 . S
C263 O311 1.468 . S
C263 H324 0.980 . S
C264 C265 1.349 . S
C264 C269 1.367 . S
C264 O311 1.408 . S
C265 C264 1.349 . S
C265 C266 1.407 . S
C265 H328 0.930 . S
C266 C265 1.407 . S
C266 C267 1.449 . S
C266 C270 1.535 . S
C267 C266 1.449 . S
C267 C268 1.384 . S
C267 C292 1.553 . S
C268 C267 1.384 . S
C268 C269 1.364 . S
C268 C271 1.450 . S
C269 C264 1.367 . S
C269 C268 1.364 . S
C269 H329 0.931 . S
C270 C266 1.535 . S
C270 H330 0.959 . S
C270 H331 0.961 . S
C270 H332 0.959 . S
C271 C268 1.450 . S
C271 H333 0.960 . S
C271 H334 0.960 . S
C271 H335 0.960 . S
C272 C273 1.309 . S
C272 C277 1.304 . S
C272 O310 1.435 . S
C273 C272 1.309 . S
C273 C274 1.476 . S
C273 H337 0.930 . S
C274 C273 1.476 . S
C274 C275 1.400 . S
C274 C278 1.567 . S
C275 C274 1.400 . S
C275 C276 1.373 . S
C275 C297 1.432 . S
C276 C275 1.373 . S
C276 C277 1.339 . S
C276 C279 1.530 . S
C277 C272 1.304 . S
C277 C276 1.339 . S
C277 H338 0.930 . S
C278 C274 1.567 . S
C278 H339 0.961 . S
C278 H340 0.960 . S
C278 H341 0.958 . S
C279 C276 1.530 . S
C279 H342 0.961 . S
C279 H343 0.960 . S
C279 H344 0.960 . S
C280 C281 1.530 . S
C280 H346 0.961 . S
C280 H347 0.961 . S
C280 H348 0.959 . S
C281 C280 1.530 . S
C281 O309 1.412 . S
C281 H345 0.980 . S
C282 C283 1.288 . S
C282 C287 1.377 . S
C282 O309 1.393 . S
C283 C282 1.288 . S
C283 C284 1.369 . S
C283 H349 0.932 . S
C284 C283 1.369 . S
C284 C285 1.398 . S
C284 C288 1.527 . S
C285 C284 1.398 . S
C285 C286 1.380 . S
C285 C299 1.497 . S
C286 C285 1.380 . S
C286 C287 1.383 . S
C286 C289 1.603 . S
C287 C282 1.377 . S
C287 C286 1.383 . S
C287 H350 0.929 . S
C288 C284 1.527 . S
C288 H351 0.961 . S
C288 H352 0.959 . S
C288 H353 0.959 . S
C289 C286 1.603 . S
C289 H354 0.960 . S
C289 H355 0.962 . S
C289 H356 0.961 . S
C290 C257 1.587 . S
C290 C291 1.360 . S
C290 C303 1.412 . S
C291 C290 1.360 . S
C291 C292 1.365 . S
C291 H357 0.929 . S
C292 C267 1.553 . S
C292 C291 1.365 . S
C292 C293 1.404 . S
C293 C292 1.404 . S
C293 C294 1.395 . S
C293 C304 1.451 . S
C294 C293 1.395 . S
C294 C295 1.322 . S
C294 H358 0.930 . S
C295 C294 1.322 . S
C295 C296 1.459 . S
C295 H359 0.929 . S
C296 C295 1.459 . S
C296 C297 1.445 . S
C296 C305 1.395 . S
C297 C275 1.432 . S
C297 C296 1.445 . S
C297 C298 1.370 . S
C298 C297 1.370 . S
C298 C299 1.438 . S
C298 H360 0.930 . S
C299 C285 1.497 . S
C299 C298 1.438 . S
C299 C300 1.360 . S
C300 C299 1.360 . S
C300 C301 1.401 . S
C300 C305 1.446 . S
C301 C300 1.401 . S
C301 C302 1.347 . S
C301 H361 0.929 . S
C302 C301 1.347 . S
C302 C303 1.455 . S
C302 H362 0.930 . S
C303 C290 1.412 . S
C303 C302 1.455 . S
C303 C304 1.331 . S
C304 C293 1.451 . S
C304 C303 1.331 . S
C304 C305 1.497 . S
C305 C296 1.395 . S
C305 C300 1.446 . S
C305 C304 1.497 . S
C306 C307 1.582 . S
C306 H363 0.962 . S
C306 H364 0.959 . S
C306 H365 0.958 . S
C307 C306 1.582 . S
C307 O310 1.458 . S
C307 H336 0.980 . S
O308 C253 1.426 . S
O308 C254 1.334 . S
O309 C281 1.412 . S
O309 C282 1.393 . S
O310 C272 1.435 . S
O310 C307 1.458 . S
O311 C263 1.468 . S
O311 C264 1.408 . S
H312 C253 0.980 . S
H313 C252 0.959 . S
H314 C252 0.959 . S
H315 C252 0.960 . S
H316 C255 0.929 . S
H317 C259 0.929 . S
H318 C260 0.959 . S
H319 C260 0.961 . S
H320 C260 0.961 . S
H321 C261 0.960 . S
H322 C261 0.960 . S
H323 C261 0.961 . S
H324 C263 0.980 . S
H325 C262 0.961 . S
H326 C262 0.960 . S
H327 C262 0.959 . S
H328 C265 0.930 . S
H329 C269 0.931 . S
H330 C270 0.959 . S
H331 C270 0.961 . S
H332 C270 0.959 . S
H333 C271 0.960 . S
H334 C271 0.960 . S
H335 C271 0.960 . S
H336 C307 0.980 . S
H337 C273 0.930 . S
H338 C277 0.930 . S
H339 C278 0.961 . S
H340 C278 0.960 . S
H341 C278 0.958 . S
H342 C279 0.961 . S
H343 C279 0.960 . S
H344 C279 0.960 . S
H345 C281 0.980 . S
H346 C280 0.961 . S
H347 C280 0.961 . S
H348 C280 0.959 . S
H349 C283 0.932 . S
H350 C287 0.929 . S
H351 C288 0.961 . S
H352 C288 0.959 . S
H353 C288 0.959 . S
H354 C289 0.960 . S
H355 C289 0.962 . S
H356 C289 0.961 . S
H357 C291 0.929 . S
H358 C294 0.930 . S
H359 C295 0.929 . S
H360 C298 0.930 . S
H361 C301 0.929 . S
H362 C302 0.930 . S
H363 C306 0.962 . S
H364 C306 0.959 . S
H365 C306 0.958 . S
C366 C367 1.560 . S
C366 H427 0.959 . S
C366 H428 0.959 . S
C366 H429 0.960 . S
C367 C366 1.560 . S
C367 O422 1.426 . S
C367 H426 0.980 . S
C368 C369 1.407 . S
C368 C373 1.418 . S
C368 O422 1.334 . S
C369 C368 1.407 . S
C369 C370 1.360 . S
C369 H430 0.929 . S
C370 C369 1.360 . S
C370 C371 1.401 . S
C370 C374 1.527 . S
C371 C370 1.401 . S
C371 C372 1.405 . S
C371 C404 1.587 . S
C372 C371 1.405 . S
C372 C373 1.332 . S
C372 C375 1.496 . S
C373 C368 1.418 . S
C373 C372 1.332 . S
C373 H431 0.929 . S
C374 C370 1.527 . S
C374 H432 0.959 . S
C374 H433 0.961 . S
C374 H434 0.961 . S
C375 C372 1.496 . S
C375 H435 0.960 . S
C375 H436 0.960 . S
C375 H437 0.961 . S
C376 C377 1.517 . S
C376 H439 0.961 . S
C376 H440 0.960 . S
C376 H441 0.959 . S
C377 C376 1.517 . S
C377 O425 1.468 . S
C377 H438 0.980 . S
C378 C379 1.349 . S
C378 C383 1.367 . S
C378 O425 1.408 . S
C379 C378 1.349 . S
C379 C380 1.407 . S
C379 H442 0.930 . S
C380 C379 1.407 . S
C380 C381 1.449 . S
C380 C384 1.535 . S
C381 C380 1.449 . S
C381 C382 1.384 . S
C381 C406 1.553 . S
C382 C381 1.384 . S
C382 C383 1.364 . S
C382 C385 1.450 . S
C383 C378 1.367 . S
C383 C382 1.364 . S
C383 H443 0.931 . S
C384 C380 1.535 . S
C384 H444 0.959 . S
C384 H445 0.961 . S
C384 H446 0.959 . S
C385 C382 1.450 . S
C385 H447 0.960 . S
C385 H448 0.960 . S
C385 H449 0.960 . S
C386 C387 1.309 . S
C386 C391 1.304 . S
C386 O424 1.435 . S
C387 C386 1.309 . S
C387 C388 1.476 . S
C387 H451 0.930 . S
C388 C387 1.476 . S
C388 C389 1.400 . S
C388 C392 1.567 . S
C389 C388 1.400 . S
C389 C390 1.373 . S
C389 C411 1.432 . S
C390 C389 1.373 . S
C390 C391 1.339 . S
C390 C393 1.530 . S
C391 C386 1.304 . S
C391 C390 1.339 . S
C391 H452 0.930 . S
C392 C388 1.567 . S
C392 H453 0.961 . S
C392 H454 0.960 . S
C392 H455 0.958 . S
C393 C390 1.530 . S
C393 H456 0.961 . S
C393 H457 0.960 . S
C393 H458 0.960 . S
C394 C395 1.530 . S
C394 H460 0.961 . S
C394 H461 0.961 . S
C394 H462 0.959 . S
C395 C394 1.530 . S
C395 O423 1.412 . S
C395 H459 0.980 . S
C396 C397 1.288 . S
C396 C401 1.377 . S
C396 O423 1.393 . S
C397 C396 1.288 . S
C397 C398 1.369 . S
C397 H463 0.932 . S
C398 C397 1.369 . S
C398 C399 1.398 . S
C398 C402 1.527 . S
C399 C398 1.398 . S
C399 C400 1.380 . S
C399 C413 1.497 . S
C400 C399 1.380 . S
C400 C401 1.383 . S
C400 C403 1.603 . S
C401 C396 1.377 . S
C401 C400 1.383 . S
C401 H464 0.929 . S
C402 C398 1.527 . S
C402 H465 0.961 . S
C402 H466 0.959 . S
C402 H467 0.959 . S
C403 C400 1.603 . S
C403 H468 0.960 . S
C403 H469 0.962 . S
C403 H470 0.961 . S
C404 C371 1.587 . S
C404 C405 1.360 . S
C404 C417 1.412 . S
C405 C404 1.360 . S
C405 C406 1.365 . S
C405 H471 0.929 . S
C406 C381 1.553 . S
C406 C405 1.365 . S
C406 C407 1.404 . S
C407 C406 1.404 . S
C407 C408 1.395 . S
C407 C418 1.451 . S
C408 C407 1.395 . S
C408 C409 1.322 . S
C408 H472 0.930 . S
C409 C408 1.322 . S
C409 C410 1.459 . S
C409 H473 0.929 . S
C410 C409 1.459 . S
C410 C411 1.445 . S
C410 C419 1.395 . S
C411 C389 1.432 . S
C411 C410 1.445 . S
C411 C412 1.370 . S
C412 C411 1.370 . S
C412 C413 1.438 . S
C412 H474 0.930 . S
C413 C399 1.497 . S
C413 C412 1.438 . S
C413 C414 1.360 . S
C414 C413 1.360 . S
C414 C415 1.401 . S
C414 C419 1.446 . S
C415 C414 1.401 . S
C415 C416 1.347 . S
C415 H475 0.929 . S
C416 C415 1.347 . S
C416 C417 1.455 . S
C416 H476 0.930 . S
C417 C404 1.412 . S
C417 C416 1.455 . S
C417 C418 1.331 . S
C418 C407 1.451 . S
C418 C417 1.331 . S
C418 C419 1.497 . S
C419 C410 1.395 . S
C419 C414 1.446 . S
C419 C418 1.497 . S
C420 C421 1.582 . S
C420 H477 0.962 . S
C420 H478 0.959 . S
C420 H479 0.958 . S
C421 C420 1.582 . S
C421 O424 1.458 . S
C421 H450 0.980 . S
O422 C367 1.426 . S
O422 C368 1.334 . S
O423 C395 1.412 . S
O423 C396 1.393 . S
O424 C386 1.435 . S
O424 C421 1.458 . S
O425 C377 1.468 . S
O425 C378 1.408 . S
H426 C367 0.980 . S
H427 C366 0.959 . S
H428 C366 0.959 . S
H429 C366 0.960 . S
H430 C369 0.929 . S
H431 C373 0.929 . S
H432 C374 0.959 . S
H433 C374 0.961 . S
H434 C374 0.961 . S
H435 C375 0.960 . S
H436 C375 0.960 . S
H437 C375 0.961 . S
H438 C377 0.980 . S
H439 C376 0.961 . S
H440 C376 0.960 . S
H441 C376 0.959 . S
H442 C379 0.930 . S
H443 C383 0.931 . S
H444 C384 0.959 . S
H445 C384 0.961 . S
H446 C384 0.959 . S
H447 C385 0.960 . S
H448 C385 0.960 . S
H449 C385 0.960 . S
H450 C421 0.980 . S
H451 C387 0.930 . S
H452 C391 0.930 . S
H453 C392 0.961 . S
H454 C392 0.960 . S
H455 C392 0.958 . S
H456 C393 0.961 . S
H457 C393 0.960 . S
H458 C393 0.960 . S
H459 C395 0.980 . S
H460 C394 0.961 . S
H461 C394 0.961 . S
H462 C394 0.959 . S
H463 C397 0.932 . S
H464 C401 0.929 . S
H465 C402 0.961 . S
H466 C402 0.959 . S
H467 C402 0.959 . S
H468 C403 0.960 . S
H469 C403 0.962 . S
H470 C403 0.961 . S
H471 C405 0.929 . S
H472 C408 0.930 . S
H473 C409 0.929 . S
H474 C412 0.930 . S
H475 C415 0.929 . S
H476 C416 0.930 . S
H477 C420 0.962 . S
H478 C420 0.959 . S
H479 C420 0.958 . S
C480 C481 1.560 . S
C480 H541 0.959 . S
C480 H542 0.959 . S
C480 H543 0.960 . S
C481 C480 1.560 . S
C481 O536 1.426 . S
C481 H540 0.980 . S
C482 C483 1.407 . S
C482 C487 1.418 . S
C482 O536 1.334 . S
C483 C482 1.407 . S
C483 C484 1.360 . S
C483 H544 0.929 . S
C484 C483 1.360 . S
C484 C485 1.401 . S
C484 C488 1.527 . S
C485 C484 1.401 . S
C485 C486 1.405 . S
C485 C518 1.587 . S
C486 C485 1.405 . S
C486 C487 1.332 . S
C486 C489 1.496 . S
C487 C482 1.418 . S
C487 C486 1.332 . S
C487 H545 0.929 . S
C488 C484 1.527 . S
C488 H546 0.959 . S
C488 H547 0.961 . S
C488 H548 0.961 . S
C489 C486 1.496 . S
C489 H549 0.960 . S
C489 H550 0.960 . S
C489 H551 0.961 . S
C490 C491 1.517 . S
C490 H553 0.961 . S
C490 H554 0.960 . S
C490 H555 0.959 . S
C491 C490 1.517 . S
C491 O539 1.468 . S
C491 H552 0.980 . S
C492 C493 1.349 . S
C492 C497 1.367 . S
C492 O539 1.408 . S
C493 C492 1.349 . S
C493 C494 1.407 . S
C493 H556 0.930 . S
C494 C493 1.407 . S
C494 C495 1.449 . S
C494 C498 1.535 . S
C495 C494 1.449 . S
C495 C496 1.384 . S
C495 C520 1.553 . S
C496 C495 1.384 . S
C496 C497 1.364 . S
C496 C499 1.450 . S
C497 C492 1.367 . S
C497 C496 1.364 . S
C497 H557 0.931 . S
C498 C494 1.535 . S
C498 H558 0.959 . S
C498 H559 0.961 . S
C498 H560 0.959 . S
C499 C496 1.450 . S
C499 H561 0.960 . S
C499 H562 0.960 . S
C499 H563 0.960 . S
C500 C501 1.309 . S
C500 C505 1.304 . S
C500 O538 1.435 . S
C501 C500 1.309 . S
C501 C502 1.476 . S
C501 H565 0.930 . S
C502 C501 1.476 . S
C502 C503 1.400 . S
C502 C506 1.567 . S
C503 C502 1.400 . S
C503 C504 1.373 . S
C503 C525 1.432 . S
C504 C503 1.373 . S
C504 C505 1.339 . S
C504 C507 1.530 . S
C505 C500 1.304 . S
C505 C504 1.339 . S
C505 H566 0.930 . S
C506 C502 1.567 . S
C506 H567 0.961 . S
C506 H568 0.960 . S
C506 H569 0.958 . S
C507 C504 1.530 . S
C507 H570 0.961 . S
C507 H571 0.960 . S
C507 H572 0.960 . S
C508 C509 1.530 . S
C508 H574 0.961 . S
C508 H575 0.961 . S
C508 H576 0.959 . S
C509 C508 1.530 . S
C509 O537 1.412 . S
C509 H573 0.980 . S
C510 C511 1.288 . S
C510 C515 1.377 . S
C510 O537 1.393 . S
C511 C510 1.288 . S
C511 C512 1.369 . S
C511 H577 0.932 . S
C512 C511 1.369 . S
C512 C513 1.398 . S
C512 C516 1.527 . S
C513 C512 1.398 . S
C513 C514 1.380 . S
C513 C527 1.497 . S
C514 C513 1.380 . S
C514 C515 1.383 . S
C514 C517 1.603 . S
C515 C510 1.377 . S
C515 C514 1.383 . S
C515 H578 0.929 . S
C516 C512 1.527 . S
C516 H579 0.961 . S
C516 H580 0.959 . S
C516 H581 0.959 . S
C517 C514 1.603 . S
C517 H582 0.960 . S
C517 H583 0.962 . S
C517 H584 0.961 . S
C518 C485 1.587 . S
C518 C519 1.360 . S
C518 C531 1.412 . S
C519 C518 1.360 . S
C519 C520 1.365 . S
C519 H585 0.929 . S
C520 C495 1.553 . S
C520 C519 1.365 . S
C520 C521 1.404 . S
C521 C520 1.404 . S
C521 C522 1.395 . S
C521 C532 1.451 . S
C522 C521 1.395 . S
C522 C523 1.322 . S
C522 H586 0.930 . S
C523 C522 1.322 . S
C523 C524 1.459 . S
C523 H587 0.929 . S
C524 C523 1.459 . S
C524 C525 1.445 . S
C524 C533 1.395 . S
C525 C503 1.432 . S
C525 C524 1.445 . S
C525 C526 1.370 . S
C526 C525 1.370 . S
C526 C527 1.438 . S
C526 H588 0.930 . S
C527 C513 1.497 . S
C527 C526 1.438 . S
C527 C528 1.360 . S
C528 C527 1.360 . S
C528 C529 1.401 . S
C528 C533 1.446 . S
C529 C528 1.401 . S
C529 C530 1.347 . S
C529 H589 0.929 . S
C530 C529 1.347 . S
C530 C531 1.455 . S
C530 H590 0.930 . S
C531 C518 1.412 . S
C531 C530 1.455 . S
C531 C532 1.331 . S
C532 C521 1.451 . S
C532 C531 1.331 . S
C532 C533 1.497 . S
C533 C524 1.395 . S
C533 C528 1.446 . S
C533 C532 1.497 . S
C534 C535 1.582 . S
C534 H591 0.962 . S
C534 H592 0.959 . S
C534 H593 0.958 . S
C535 C534 1.582 . S
C535 O538 1.458 . S
C535 H564 0.980 . S
O536 C481 1.426 . S
O536 C482 1.334 . S
O537 C509 1.412 . S
O537 C510 1.393 . S
O538 C500 1.435 . S
O538 C535 1.458 . S
O539 C491 1.468 . S
O539 C492 1.408 . S
H540 C481 0.980 . S
H541 C480 0.959 . S
H542 C480 0.959 . S
H543 C480 0.960 . S
H544 C483 0.929 . S
H545 C487 0.929 . S
H546 C488 0.959 . S
H547 C488 0.961 . S
H548 C488 0.961 . S
H549 C489 0.960 . S
H550 C489 0.960 . S
H551 C489 0.961 . S
H552 C491 0.980 . S
H553 C490 0.961 . S
H554 C490 0.960 . S
H555 C490 0.959 . S
H556 C493 0.930 . S
H557 C497 0.931 . S
H558 C498 0.959 . S
H559 C498 0.961 . S
H560 C498 0.959 . S
H561 C499 0.960 . S
H562 C499 0.960 . S
H563 C499 0.960 . S
H564 C535 0.980 . S
H565 C501 0.930 . S
H566 C505 0.930 . S
H567 C506 0.961 . S
H568 C506 0.960 . S
H569 C506 0.958 . S
H570 C507 0.961 . S
H571 C507 0.960 . S
H572 C507 0.960 . S
H573 C509 0.980 . S
H574 C508 0.961 . S
H575 C508 0.961 . S
H576 C508 0.959 . S
H577 C511 0.932 . S
H578 C515 0.929 . S
H579 C516 0.961 . S
H580 C516 0.959 . S
H581 C516 0.959 . S
H582 C517 0.960 . S
H583 C517 0.962 . S
H584 C517 0.961 . S
H585 C519 0.929 . S
H586 C522 0.930 . S
H587 C523 0.929 . S
H588 C526 0.930 . S
H589 C529 0.929 . S
H590 C530 0.930 . S
H591 C534 0.962 . S
H592 C534 0.959 . S
H593 C534 0.958 . S
C594 C595 1.560 . S
C594 H655 0.959 . S
C594 H656 0.959 . S
C594 H657 0.960 . S
C595 C594 1.560 . S
C595 O650 1.426 . S
C595 H654 0.980 . S
C596 C597 1.407 . S
C596 C601 1.418 . S
C596 O650 1.334 . S
C597 C596 1.407 . S
C597 C598 1.360 . S
C597 H658 0.929 . S
C598 C597 1.360 . S
C598 C599 1.401 . S
C598 C602 1.527 . S
C599 C598 1.401 . S
C599 C600 1.405 . S
C599 C632 1.587 . S
C600 C599 1.405 . S
C600 C601 1.332 . S
C600 C603 1.496 . S
C601 C596 1.418 . S
C601 C600 1.332 . S
C601 H659 0.929 . S
C602 C598 1.527 . S
C602 H660 0.959 . S
C602 H661 0.961 . S
C602 H662 0.961 . S
C603 C600 1.496 . S
C603 H663 0.960 . S
C603 H664 0.960 . S
C603 H665 0.961 . S
C604 C605 1.517 . S
C604 H667 0.961 . S
C604 H668 0.960 . S
C604 H669 0.959 . S
C605 C604 1.517 . S
C605 O653 1.468 . S
C605 H666 0.980 . S
C606 C607 1.349 . S
C606 C611 1.367 . S
C606 O653 1.408 . S
C607 C606 1.349 . S
C607 C608 1.407 . S
C607 H670 0.930 . S
C608 C607 1.407 . S
C608 C609 1.449 . S
C608 C612 1.535 . S
C609 C608 1.449 . S
C609 C610 1.384 . S
C609 C634 1.553 . S
C610 C609 1.384 . S
C610 C611 1.364 . S
C610 C613 1.450 . S
C611 C606 1.367 . S
C611 C610 1.364 . S
C611 H671 0.931 . S
C612 C608 1.535 . S
C612 H672 0.959 . S
C612 H673 0.961 . S
C612 H674 0.959 . S
C613 C610 1.450 . S
C613 H675 0.960 . S
C613 H676 0.960 . S
C613 H677 0.960 . S
C614 C615 1.309 . S
C614 C619 1.304 . S
C614 O652 1.435 . S
C615 C614 1.309 . S
C615 C616 1.476 . S
C615 H679 0.930 . S
C616 C615 1.476 . S
C616 C617 1.400 . S
C616 C620 1.567 . S
C617 C616 1.400 . S
C617 C618 1.373 . S
C617 C639 1.432 . S
C618 C617 1.373 . S
C618 C619 1.339 . S
C618 C621 1.530 . S
C619 C614 1.304 . S
C619 C618 1.339 . S
C619 H680 0.930 . S
C620 C616 1.567 . S
C620 H681 0.961 . S
C620 H682 0.960 . S
C620 H683 0.958 . S
C621 C618 1.530 . S
C621 H684 0.961 . S
C621 H685 0.960 . S
C621 H686 0.960 . S
C622 C623 1.530 . S
C622 H688 0.961 . S
C622 H689 0.961 . S
C622 H690 0.959 . S
C623 C622 1.530 . S
C623 O651 1.412 . S
C623 H687 0.980 . S
C624 C625 1.288 . S
C624 C629 1.377 . S
C624 O651 1.393 . S
C625 C624 1.288 . S
C625 C626 1.369 . S
C625 H691 0.932 . S
C626 C625 1.369 . S
C626 C627 1.398 . S
C626 C630 1.527 . S
C627 C626 1.398 . S
C627 C628 1.380 . S
C627 C641 1.497 . S
C628 C627 1.380 . S
C628 C629 1.383 . S
C628 C631 1.603 . S
C629 C624 1.377 . S
C629 C628 1.383 . S
C629 H692 0.929 . S
C630 C626 1.527 . S
C630 H693 0.961 . S
C630 H694 0.959 . S
C630 H695 0.959 . S
C631 C628 1.603 . S
C631 H696 0.960 . S
C631 H697 0.962 . S
C631 H698 0.961 . S
C632 C599 1.587 . S
C632 C633 1.360 . S
C632 C645 1.412 . S
C633 C632 1.360 . S
C633 C634 1.365 . S
C633 H699 0.929 . S
C634 C609 1.553 . S
C634 C633 1.365 . S
C634 C635 1.404 . S
C635 C634 1.404 . S
C635 C636 1.395 . S
C635 C646 1.451 . S
C636 C635 1.395 . S
C636 C637 1.322 . S
C636 H700 0.930 . S
C637 C636 1.322 . S
C637 C638 1.459 . S
C637 H701 0.929 . S
C638 C637 1.459 . S
C638 C639 1.445 . S
C638 C647 1.395 . S
C639 C617 1.432 . S
C639 C638 1.445 . S
C639 C640 1.370 . S
C640 C639 1.370 . S
C640 C641 1.438 . S
C640 H702 0.930 . S
C641 C627 1.497 . S
C641 C640 1.438 . S
C641 C642 1.360 . S
C642 C641 1.360 . S
C642 C643 1.401 . S
C642 C647 1.446 . S
C643 C642 1.401 . S
C643 C644 1.347 . S
C643 H703 0.929 . S
C644 C643 1.347 . S
C644 C645 1.455 . S
C644 H704 0.930 . S
C645 C632 1.412 . S
C645 C644 1.455 . S
C645 C646 1.331 . S
C646 C635 1.451 . S
C646 C645 1.331 . S
C646 C647 1.497 . S
C647 C638 1.395 . S
C647 C642 1.446 . S
C647 C646 1.497 . S
C648 C649 1.582 . S
C648 H705 0.962 . S
C648 H706 0.959 . S
C648 H707 0.958 . S
C649 C648 1.582 . S
C649 O652 1.458 . S
C649 H678 0.980 . S
O650 C595 1.426 . S
O650 C596 1.334 . S
O651 C623 1.412 . S
O651 C624 1.393 . S
O652 C614 1.435 . S
O652 C649 1.458 . S
O653 C605 1.468 . S
O653 C606 1.408 . S
H654 C595 0.980 . S
H655 C594 0.959 . S
H656 C594 0.959 . S
H657 C594 0.960 . S
H658 C597 0.929 . S
H659 C601 0.929 . S
H660 C602 0.959 . S
H661 C602 0.961 . S
H662 C602 0.961 . S
H663 C603 0.960 . S
H664 C603 0.960 . S
H665 C603 0.961 . S
H666 C605 0.980 . S
H667 C604 0.961 . S
H668 C604 0.960 . S
H669 C604 0.959 . S
H670 C607 0.930 . S
H671 C611 0.931 . S
H672 C612 0.959 . S
H673 C612 0.961 . S
H674 C612 0.959 . S
H675 C613 0.960 . S
H676 C613 0.960 . S
H677 C613 0.960 . S
H678 C649 0.980 . S
H679 C615 0.930 . S
H680 C619 0.930 . S
H681 C620 0.961 . S
H682 C620 0.960 . S
H683 C620 0.958 . S
H684 C621 0.961 . S
H685 C621 0.960 . S
H686 C621 0.960 . S
H687 C623 0.980 . S
H688 C622 0.961 . S
H689 C622 0.961 . S
H690 C622 0.959 . S
H691 C625 0.932 . S
H692 C629 0.929 . S
H693 C630 0.961 . S
H694 C630 0.959 . S
H695 C630 0.959 . S
H696 C631 0.960 . S
H697 C631 0.962 . S
H698 C631 0.961 . S
H699 C633 0.929 . S
H700 C636 0.930 . S
H701 C637 0.929 . S
H702 C640 0.930 . S
H703 C643 0.929 . S
H704 C644 0.930 . S
H705 C648 0.962 . S
H706 C648 0.959 . S
H707 C648 0.958 . S
C708 C709 1.560 . S
C708 H769 0.959 . S
C708 H770 0.959 . S
C708 H771 0.960 . S
C709 C708 1.560 . S
C709 O764 1.426 . S
C709 H768 0.980 . S
C710 C711 1.407 . S
C710 C715 1.418 . S
C710 O764 1.334 . S
C711 C710 1.407 . S
C711 C712 1.360 . S
C711 H772 0.929 . S
C712 C711 1.360 . S
C712 C713 1.401 . S
C712 C716 1.527 . S
C713 C712 1.401 . S
C713 C714 1.405 . S
C713 C746 1.587 . S
C714 C713 1.405 . S
C714 C715 1.332 . S
C714 C717 1.496 . S
C715 C710 1.418 . S
C715 C714 1.332 . S
C715 H773 0.929 . S
C716 C712 1.527 . S
C716 H774 0.959 . S
C716 H775 0.961 . S
C716 H776 0.961 . S
C717 C714 1.496 . S
C717 H777 0.960 . S
C717 H778 0.960 . S
C717 H779 0.961 . S
C718 C719 1.517 . S
C718 H781 0.961 . S
C718 H782 0.960 . S
C718 H783 0.959 . S
C719 C718 1.517 . S
C719 O767 1.468 . S
C719 H780 0.980 . S
C720 C721 1.349 . S
C720 C725 1.367 . S
C720 O767 1.408 . S
C721 C720 1.349 . S
C721 C722 1.407 . S
C721 H784 0.930 . S
C722 C721 1.407 . S
C722 C723 1.449 . S
C722 C726 1.535 . S
C723 C722 1.449 . S
C723 C724 1.384 . S
C723 C748 1.553 . S
C724 C723 1.384 . S
C724 C725 1.364 . S
C724 C727 1.450 . S
C725 C720 1.367 . S
C725 C724 1.364 . S
C725 H785 0.931 . S
C726 C722 1.535 . S
C726 H786 0.959 . S
C726 H787 0.961 . S
C726 H788 0.959 . S
C727 C724 1.450 . S
C727 H789 0.960 . S
C727 H790 0.960 . S
C727 H791 0.960 . S
C728 C729 1.309 . S
C728 C733 1.304 . S
C728 O766 1.435 . S
C729 C728 1.309 . S
C729 C730 1.476 . S
C729 H793 0.930 . S
C730 C729 1.476 . S
C730 C731 1.400 . S
C730 C734 1.567 . S
C731 C730 1.400 . S
C731 C732 1.373 . S
C731 C753 1.432 . S
C732 C731 1.373 . S
C732 C733 1.339 . S
C732 C735 1.530 . S
C733 C728 1.304 . S
C733 C732 1.339 . S
C733 H794 0.930 . S
C734 C730 1.567 . S
C734 H795 0.961 . S
C734 H796 0.960 . S
C734 H797 0.958 . S
C735 C732 1.530 . S
C735 H798 0.961 . S
C735 H799 0.960 . S
C735 H800 0.960 . S
C736 C737 1.530 . S
C736 H802 0.961 . S
C736 H803 0.961 . S
C736 H804 0.959 . S
C737 C736 1.530 . S
C737 O765 1.412 . S
C737 H801 0.980 . S
C738 C739 1.288 . S
C738 C743 1.377 . S
C738 O765 1.393 . S
C739 C738 1.288 . S
C739 C740 1.369 . S
C739 H805 0.932 . S
C740 C739 1.369 . S
C740 C741 1.398 . S
C740 C744 1.527 . S
C741 C740 1.398 . S
C741 C742 1.380 . S
C741 C755 1.497 . S
C742 C741 1.380 . S
C742 C743 1.383 . S
C742 C745 1.603 . S
C743 C738 1.377 . S
C743 C742 1.383 . S
C743 H806 0.929 . S
C744 C740 1.527 . S
C744 H807 0.961 . S
C744 H808 0.959 . S
C744 H809 0.959 . S
C745 C742 1.603 . S
C745 H810 0.960 . S
C745 H811 0.962 . S
C745 H812 0.961 . S
C746 C713 1.587 . S
C746 C747 1.360 . S
C746 C759 1.412 . S
C747 C746 1.360 . S
C747 C748 1.365 . S
C747 H813 0.929 . S
C748 C723 1.553 . S
C748 C747 1.365 . S
C748 C749 1.404 . S
C749 C748 1.404 . S
C749 C750 1.395 . S
C749 C760 1.451 . S
C750 C749 1.395 . S
C750 C751 1.322 . S
C750 H814 0.930 . S
C751 C750 1.322 . S
C751 C752 1.459 . S
C751 H815 0.929 . S
C752 C751 1.459 . S
C752 C753 1.445 . S
C752 C761 1.395 . S
C753 C731 1.432 . S
C753 C752 1.445 . S
C753 C754 1.370 . S
C754 C753 1.370 . S
C754 C755 1.438 . S
C754 H816 0.930 . S
C755 C741 1.497 . S
C755 C754 1.438 . S
C755 C756 1.360 . S
C756 C755 1.360 . S
C756 C757 1.401 . S
C756 C761 1.446 . S
C757 C756 1.401 . S
C757 C758 1.347 . S
C757 H817 0.929 . S
C758 C757 1.347 . S
C758 C759 1.455 . S
C758 H818 0.930 . S
C759 C746 1.412 . S
C759 C758 1.455 . S
C759 C760 1.331 . S
C760 C749 1.451 . S
C760 C759 1.331 . S
C760 C761 1.497 . S
C761 C752 1.395 . S
C761 C756 1.446 . S
C761 C760 1.497 . S
C762 C763 1.582 . S
C762 H819 0.962 . S
C762 H820 0.959 . S
C762 H821 0.958 . S
C763 C762 1.582 . S
C763 O766 1.458 . S
C763 H792 0.980 . S
O764 C709 1.426 . S
O764 C710 1.334 . S
O765 C737 1.412 . S
O765 C738 1.393 . S
O766 C728 1.435 . S
O766 C763 1.458 . S
O767 C719 1.468 . S
O767 C720 1.408 . S
H768 C709 0.980 . S
H769 C708 0.959 . S
H770 C708 0.959 . S
H771 C708 0.960 . S
H772 C711 0.929 . S
H773 C715 0.929 . S
H774 C716 0.959 . S
H775 C716 0.961 . S
H776 C716 0.961 . S
H777 C717 0.960 . S
H778 C717 0.960 . S
H779 C717 0.961 . S
H780 C719 0.980 . S
H781 C718 0.961 . S
H782 C718 0.960 . S
H783 C718 0.959 . S
H784 C721 0.930 . S
H785 C725 0.931 . S
H786 C726 0.959 . S
H787 C726 0.961 . S
H788 C726 0.959 . S
H789 C727 0.960 . S
H790 C727 0.960 . S
H791 C727 0.960 . S
H792 C763 0.980 . S
H793 C729 0.930 . S
H794 C733 0.930 . S
H795 C734 0.961 . S
H796 C734 0.960 . S
H797 C734 0.958 . S
H798 C735 0.961 . S
H799 C735 0.960 . S
H800 C735 0.960 . S
H801 C737 0.980 . S
H802 C736 0.961 . S
H803 C736 0.961 . S
H804 C736 0.959 . S
H805 C739 0.932 . S
H806 C743 0.929 . S
H807 C744 0.961 . S
H808 C744 0.959 . S
H809 C744 0.959 . S
H810 C745 0.960 . S
H811 C745 0.962 . S
H812 C745 0.961 . S
H813 C747 0.929 . S
H814 C750 0.930 . S
H815 C751 0.929 . S
H816 C754 0.930 . S
H817 C757 0.929 . S
H818 C758 0.930 . S
H819 C762 0.962 . S
H820 C762 0.959 . S
H821 C762 0.958 . S
H822 C840 0.951 . S
H823 C842 0.951 . S
H824 C844 0.950 . S
H825 C845 0.950 . S
H826 C847 0.950 . S
H827 C850 0.950 . S
H828 C851 0.950 . S
H829 C853 0.950 . S
H830 C854 0.950 . S
H831 C855 0.951 . S
H832 C857 0.951 . S
H833 C859 0.950 . S
H834 C860 0.950 . S
H835 C862 0.950 . S
H836 C865 0.950 . S
H837 C866 0.950 . S
H838 C868 0.950 . S
H839 C869 0.950 . S
C840 H822 0.951 . S
C840 C841 1.366 . S
C840 C842 1.388 . S
C841 C840 1.366 . S
C841 C845 1.385 . S
C842 H823 0.951 . S
C842 C840 1.388 . S
C842 C843 1.366 . S
C843 C842 1.366 . S
C843 C844 1.414 . S
C843 C846 1.499 . S
C844 H824 0.950 . S
C844 C843 1.414 . S
C844 C845 1.374 . S
C845 H825 0.950 . S
C845 C841 1.385 . S
C845 C844 1.374 . S
C846 C843 1.499 . S
C846 C847 1.373 . S
C846 C848 1.389 . S
C847 H826 0.950 . S
C847 C846 1.373 . S
C847 C863 1.377 . S
C848 C846 1.389 . S
C848 C849 1.524 . S
C848 C862 1.377 . S
C849 C848 1.524 . S
C849 C850 1.397 . S
C849 C854 1.363 . S
C850 H827 0.950 . S
C850 C849 1.397 . S
C850 C851 1.334 . S
C851 H828 0.950 . S
C851 C850 1.334 . S
C851 C852 1.287 . S
C852 C851 1.287 . S
C852 C853 1.524 . S
C852 H871 0.913 1_455 S
C853 H829 0.950 . S
C853 C852 1.524 . S
C853 C854 1.415 . S
C854 H830 0.950 . S
C854 C849 1.363 . S
C854 C853 1.415 . S
C855 H831 0.951 . S
C855 C856 1.366 . S
C855 C857 1.388 . S
C856 C855 1.366 . S
C856 C860 1.385 . S
C857 H832 0.951 . S
C857 C855 1.388 . S
C857 C858 1.366 . S
C858 C857 1.366 . S
C858 C859 1.414 . S
C858 C861 1.499 . S
C859 H833 0.950 . S
C859 C858 1.414 . S
C859 C860 1.374 . S
C860 H834 0.950 . S
C860 C856 1.385 . S
C860 C859 1.374 . S
C861 C858 1.499 . S
C861 C862 1.373 . S
C861 C863 1.389 . S
C862 H835 0.950 . S
C862 C848 1.377 . S
C862 C861 1.373 . S
C863 C847 1.377 . S
C863 C861 1.389 . S
C863 C864 1.524 . S
C864 C863 1.524 . S
C864 C865 1.397 . S
C864 C869 1.363 . S
C865 H836 0.950 . S
C865 C864 1.397 . S
C865 C866 1.334 . S
C866 H837 0.950 . S
C866 C865 1.334 . S
C866 C867 1.287 . S
C867 C866 1.287 . S
C867 C868 1.524 . S
C867 H870 0.999 . S
C868 H838 0.950 . S
C868 C867 1.524 . S
C868 C869 1.415 . S
C869 H839 0.950 . S
C869 C864 1.363 . S
C869 C868 1.415 . S
H870 C867 0.999 . S
H871 C852 0.913 1_655 S
H872 C890 0.951 . S
H873 C892 0.951 . S
H874 C894 0.950 . S
H875 C895 0.950 . S
H876 C897 0.950 . S
H877 C900 0.950 . S
H878 C901 0.950 . S
H879 C903 0.950 1_565 S
H880 C904 0.950 . S
H881 C905 0.951 . S
H882 C907 0.951 . S
H883 C909 0.950 . S
H884 C910 0.950 . S
H885 C912 0.950 . S
H886 C915 0.950 . S
H887 C916 0.950 . S
H888 C918 0.950 . S
H889 C919 0.950 . S
C890 H872 0.951 . S
C890 C891 1.366 . S
C890 C892 1.388 . S
C891 C890 1.366 . S
C891 C895 1.385 . S
C892 H873 0.951 . S
C892 C890 1.388 . S
C892 C893 1.366 . S
C893 C892 1.366 . S
C893 C894 1.414 . S
C893 C896 1.499 . S
C894 H874 0.950 . S
C894 C893 1.414 . S
C894 C895 1.374 . S
C895 H875 0.950 . S
C895 C891 1.385 . S
C895 C894 1.374 . S
C896 C893 1.499 . S
C896 C897 1.373 . S
C896 C898 1.389 . S
C897 H876 0.950 . S
C897 C896 1.373 . S
C897 C913 1.377 . S
C898 C896 1.389 . S
C898 C899 1.524 . S
C898 C912 1.377 . S
C899 C898 1.524 . S
C899 C900 1.397 . S
C899 C904 1.363 . S
C900 H877 0.950 . S
C900 C899 1.397 . S
C900 C901 1.334 1_545 S
C901 H878 0.950 . S
C901 C900 1.334 1_565 S
C901 C902 1.287 . S
C902 C901 1.287 . S
C902 C903 1.524 1_565 S
C902 H921 0.913 . S
C903 H879 0.950 1_545 S
C903 C902 1.524 1_545 S
C903 C904 1.415 . S
C904 H880 0.950 . S
C904 C899 1.363 . S
C904 C903 1.415 . S
C905 H881 0.951 . S
C905 C906 1.366 . S
C905 C907 1.388 . S
C906 C905 1.366 . S
C906 C910 1.385 . S
C907 H882 0.951 . S
C907 C905 1.388 . S
C907 C908 1.366 . S
C908 C907 1.366 . S
C908 C909 1.414 . S
C908 C911 1.499 . S
C909 H883 0.950 . S
C909 C908 1.414 . S
C909 C910 1.374 . S
C910 H884 0.950 . S
C910 C906 1.385 . S
C910 C909 1.374 . S
C911 C908 1.499 . S
C911 C912 1.373 . S
C911 C913 1.389 . S
C912 H885 0.950 . S
C912 C898 1.377 . S
C912 C911 1.373 . S
C913 C897 1.377 . S
C913 C911 1.389 . S
C913 C914 1.524 . S
C914 C913 1.524 . S
C914 C915 1.397 . S
C914 C919 1.363 . S
C915 H886 0.950 . S
C915 C914 1.397 . S
C915 C916 1.334 . S
C916 H887 0.950 . S
C916 C915 1.334 . S
C916 C917 1.287 . S
C917 C916 1.287 . S
C917 C918 1.524 . S
C917 H920 0.999 . S
C918 H888 0.950 . S
C918 C917 1.524 . S
C918 C919 1.415 . S
C919 H889 0.950 . S
C919 C914 1.363 . S
C919 C918 1.415 . S
H920 C917 0.999 . S
H921 C902 0.913 . S
H922 C940 0.951 . S
H923 C942 0.951 . S
H924 C944 0.950 . S
H925 C945 0.950 . S
H926 C947 0.950 . S
H927 C950 0.950 . S
H928 C951 0.950 . S
H929 C953 0.950 . S
H930 C954 0.950 . S
H931 C955 0.951 . S
H932 C957 0.951 . S
H933 C959 0.950 . S
H934 C960 0.950 . S
H935 C962 0.950 . S
H936 C965 0.950 . S
H937 C966 0.950 . S
H938 C968 0.950 . S
H939 C969 0.950 . S
C940 H922 0.951 . S
C940 C941 1.366 . S
C940 C942 1.388 . S
C941 C940 1.366 . S
C941 C945 1.385 . S
C942 H923 0.951 . S
C942 C940 1.388 . S
C942 C943 1.366 . S
C943 C942 1.366 . S
C943 C944 1.414 . S
C943 C946 1.499 . S
C944 H924 0.950 . S
C944 C943 1.414 . S
C944 C945 1.374 . S
C945 H925 0.950 . S
C945 C941 1.385 . S
C945 C944 1.374 . S
C946 C943 1.499 . S
C946 C947 1.373 . S
C946 C948 1.389 . S
C947 H926 0.950 . S
C947 C946 1.373 . S
C947 C963 1.377 . S
C948 C946 1.389 . S
C948 C949 1.524 . S
C948 C962 1.377 . S
C949 C948 1.524 . S
C949 C950 1.397 . S
C949 C954 1.363 . S
C950 H927 0.950 . S
C950 C949 1.397 . S
C950 C951 1.334 . S
C951 H928 0.950 . S
C951 C950 1.334 . S
C951 C952 1.287 . S
C952 C951 1.287 . S
C952 C953 1.524 . S
C952 H971 0.913 . S
C953 H929 0.950 . S
C953 C952 1.524 . S
C953 C954 1.415 . S
C954 H930 0.950 . S
C954 C949 1.363 . S
C954 C953 1.415 . S
C955 H931 0.951 . S
C955 C956 1.366 . S
C955 C957 1.388 . S
C956 C955 1.366 . S
C956 C960 1.385 . S
C957 H932 0.951 . S
C957 C955 1.388 . S
C957 C958 1.366 . S
C958 C957 1.366 . S
C958 C959 1.414 . S
C958 C961 1.499 . S
C959 H933 0.950 . S
C959 C958 1.414 . S
C959 C960 1.374 . S
C960 H934 0.950 . S
C960 C956 1.385 . S
C960 C959 1.374 . S
C961 C958 1.499 . S
C961 C962 1.373 . S
C961 C963 1.389 . S
C962 H935 0.950 . S
C962 C948 1.377 . S
C962 C961 1.373 . S
C963 C947 1.377 . S
C963 C961 1.389 . S
C963 C964 1.524 . S
C964 C963 1.524 . S
C964 C965 1.397 . S
C964 C969 1.363 . S
C965 H936 0.950 . S
C965 C964 1.397 . S
C965 C966 1.334 . S
C966 H937 0.950 . S
C966 C965 1.334 . S
C966 C967 1.287 . S
C967 C966 1.287 . S
C967 C968 1.524 . S
C967 H970 0.999 . S
C968 H938 0.950 . S
C968 C967 1.524 . S
C968 C969 1.415 . S
C969 H939 0.950 . S
C969 C964 1.363 . S
C969 C968 1.415 . S
H970 C967 0.999 . S
H971 C952 0.913 . S
H972 C990 0.951 . S
H973 C992 0.951 . S
H974 C994 0.950 . S
H975 C995 0.950 . S
H976 C997 0.950 . S
H977 C1000 0.950 . S
H978 C1001 0.950 . S
H979 C1003 0.950 . S
H980 C1004 0.950 . S
H981 C1005 0.951 . S
H982 C1007 0.951 . S
H983 C1009 0.950 . S
H984 C1010 0.950 . S
H985 C1012 0.950 . S
H986 C1015 0.950 . S
H987 C1016 0.950 . S
H988 C1018 0.950 . S
H989 C1019 0.950 . S
C990 H972 0.951 . S
C990 C991 1.366 . S
C990 C992 1.388 . S
C991 C990 1.366 . S
C991 C995 1.385 . S
C992 H973 0.951 . S
C992 C990 1.388 . S
C992 C993 1.366 . S
C993 C992 1.366 . S
C993 C994 1.414 . S
C993 C996 1.499 . S
C994 H974 0.950 . S
C994 C993 1.414 . S
C994 C995 1.374 . S
C995 H975 0.950 . S
C995 C991 1.385 . S
C995 C994 1.374 . S
C996 C993 1.499 . S
C996 C997 1.373 . S
C996 C998 1.389 . S
C997 H976 0.950 . S
C997 C996 1.373 . S
C997 C1013 1.377 . S
C998 C996 1.389 . S
C998 C999 1.524 . S
C998 C1012 1.377 . S
C999 C998 1.524 . S
C999 C1000 1.397 . S
C999 C1004 1.363 . S
C1000 H977 0.950 . S
C1000 C999 1.397 . S
C1000 C1001 1.334 . S
C1001 H978 0.950 . S
C1001 C1000 1.334 . S
C1001 C1002 1.287 . S
C1002 C1001 1.287 . S
C1002 C1003 1.524 . S
C1002 H1021 0.913 . S
C1003 H979 0.950 . S
C1003 C1002 1.524 . S
C1003 C1004 1.415 . S
C1004 H980 0.950 . S
C1004 C999 1.363 . S
C1004 C1003 1.415 . S
C1005 H981 0.951 . S
C1005 C1006 1.366 . S
C1005 C1007 1.388 . S
C1006 C1005 1.366 . S
C1006 C1010 1.385 . S
C1007 H982 0.951 . S
C1007 C1005 1.388 . S
C1007 C1008 1.366 . S
C1008 C1007 1.366 . S
C1008 C1009 1.414 . S
C1008 C1011 1.499 . S
C1009 H983 0.950 . S
C1009 C1008 1.414 . S
C1009 C1010 1.374 . S
C1010 H984 0.950 . S
C1010 C1006 1.385 . S
C1010 C1009 1.374 . S
C1011 C1008 1.499 . S
C1011 C1012 1.373 . S
C1011 C1013 1.389 . S
C1012 H985 0.950 . S
C1012 C998 1.377 . S
C1012 C1011 1.373 . S
C1013 C997 1.377 . S
C1013 C1011 1.389 . S
C1013 C1014 1.524 . S
C1014 C1013 1.524 . S
C1014 C1015 1.397 . S
C1014 C1019 1.363 . S
C1015 H986 0.950 . S
C1015 C1014 1.397 . S
C1015 C1016 1.334 . S
C1016 H987 0.950 . S
C1016 C1015 1.334 . S
C1016 C1017 1.287 . S
C1017 C1016 1.287 . S
C1017 C1018 1.524 . S
C1017 H1020 0.999 . S
C1018 H988 0.950 . S
C1018 C1017 1.524 . S
C1018 C1019 1.415 . S
C1019 H989 0.950 . S
C1019 C1014 1.363 . S
C1019 C1018 1.415 . S
H1020 C1017 0.999 . S
H1021 C1002 0.913 . S
H1022 C1040 0.951 . S
H1023 C1042 0.951 . S
H1024 C1044 0.950 . S
H1025 C1045 0.950 . S
H1026 C1047 0.950 . S
H1027 C1050 0.950 . S
H1028 C1051 0.950 . S
H1029 C1053 0.950 . S
H1030 C1054 0.950 . S
H1031 C1055 0.951 . S
H1032 C1057 0.951 . S
H1033 C1059 0.950 . S
H1034 C1060 0.950 . S
H1035 C1062 0.950 . S
H1036 C1065 0.950 . S
H1037 C1066 0.950 . S
H1038 C1068 0.950 . S
H1039 C1069 0.950 . S
C1040 H1022 0.951 . S
C1040 C1041 1.366 . S
C1040 C1042 1.388 . S
C1041 C1040 1.366 . S
C1041 C1045 1.385 . S
C1042 H1023 0.951 . S
C1042 C1040 1.388 . S
C1042 C1043 1.366 . S
C1043 C1042 1.366 . S
C1043 C1044 1.414 . S
C1043 C1046 1.499 . S
C1044 H1024 0.950 . S
C1044 C1043 1.414 . S
C1044 C1045 1.374 . S
C1045 H1025 0.950 . S
C1045 C1041 1.385 . S
C1045 C1044 1.374 . S
C1046 C1043 1.499 . S
C1046 C1047 1.373 . S
C1046 C1048 1.389 . S
C1047 H1026 0.950 . S
C1047 C1046 1.373 . S
C1047 C1063 1.377 . S
C1048 C1046 1.389 . S
C1048 C1049 1.524 . S
C1048 C1062 1.377 . S
C1049 C1048 1.524 . S
C1049 C1050 1.397 . S
C1049 C1054 1.363 . S
C1050 H1027 0.950 . S
C1050 C1049 1.397 . S
C1050 C1051 1.334 . S
C1051 H1028 0.950 . S
C1051 C1050 1.334 . S
C1051 C1052 1.287 . S
C1052 C1051 1.287 . S
C1052 C1053 1.524 . S
C1052 H1071 0.913 . S
C1053 H1029 0.950 . S
C1053 C1052 1.524 . S
C1053 C1054 1.415 . S
C1054 H1030 0.950 . S
C1054 C1049 1.363 . S
C1054 C1053 1.415 . S
C1055 H1031 0.951 . S
C1055 C1056 1.366 . S
C1055 C1057 1.388 . S
C1056 C1055 1.366 . S
C1056 C1060 1.385 . S
C1057 H1032 0.951 . S
C1057 C1055 1.388 . S
C1057 C1058 1.366 . S
C1058 C1057 1.366 . S
C1058 C1059 1.414 . S
C1058 C1061 1.499 . S
C1059 H1033 0.950 . S
C1059 C1058 1.414 . S
C1059 C1060 1.374 . S
C1060 H1034 0.950 . S
C1060 C1056 1.385 . S
C1060 C1059 1.374 . S
C1061 C1058 1.499 . S
C1061 C1062 1.373 . S
C1061 C1063 1.389 . S
C1062 H1035 0.950 . S
C1062 C1048 1.377 . S
C1062 C1061 1.373 . S
C1063 C1047 1.377 . S
C1063 C1061 1.389 . S
C1063 C1064 1.524 . S
C1064 C1063 1.524 . S
C1064 C1065 1.397 . S
C1064 C1069 1.363 . S
C1065 H1036 0.950 . S
C1065 C1064 1.397 . S
C1065 C1066 1.334 . S
C1066 H1037 0.950 . S
C1066 C1065 1.334 . S
C1066 C1067 1.287 . S
C1067 C1066 1.287 . S
C1067 C1068 1.524 . S
C1067 H1070 0.999 . S
C1068 H1038 0.950 . S
C1068 C1067 1.524 . S
C1068 C1069 1.415 . S
C1069 H1039 0.950 . S
C1069 C1064 1.363 . S
C1069 C1068 1.415 . S
H1070 C1067 0.999 . S
H1071 C1052 0.913 . S
H1072 C1090 0.951 . S
H1073 C1092 0.951 . S
H1074 C1094 0.950 . S
H1075 C1095 0.950 . S
H1076 C1097 0.950 . S
H1077 C1100 0.950 . S
H1078 C1101 0.950 . S
H1079 C1103 0.950 . S
H1080 C1104 0.950 . S
H1081 C1105 0.951 . S
H1082 C1107 0.951 . S
H1083 C1109 0.950 . S
H1084 C1110 0.950 . S
H1085 C1112 0.950 . S
H1086 C1115 0.950 . S
H1087 C1116 0.950 . S
H1088 C1118 0.950 . S
H1089 C1119 0.950 . S
C1090 H1072 0.951 . S
C1090 C1091 1.366 . S
C1090 C1092 1.388 . S
C1091 C1090 1.366 . S
C1091 C1095 1.385 . S
C1092 H1073 0.951 . S
C1092 C1090 1.388 . S
C1092 C1093 1.366 . S
C1093 C1092 1.366 . S
C1093 C1094 1.414 . S
C1093 C1096 1.499 . S
C1094 H1074 0.950 . S
C1094 C1093 1.414 . S
C1094 C1095 1.374 . S
C1095 H1075 0.950 . S
C1095 C1091 1.385 . S
C1095 C1094 1.374 . S
C1096 C1093 1.499 . S
C1096 C1097 1.373 . S
C1096 C1098 1.389 . S
C1097 H1076 0.950 . S
C1097 C1096 1.373 . S
C1097 C1113 1.377 . S
C1098 C1096 1.389 . S
C1098 C1099 1.524 . S
C1098 C1112 1.377 . S
C1099 C1098 1.524 . S
C1099 C1100 1.397 . S
C1099 C1104 1.363 . S
C1100 H1077 0.950 . S
C1100 C1099 1.397 . S
C1100 C1101 1.334 . S
C1101 H1078 0.950 . S
C1101 C1100 1.334 . S
C1101 C1102 1.287 . S
C1102 C1101 1.287 . S
C1102 C1103 1.524 . S
C1102 H1121 0.913 . S
C1103 H1079 0.950 . S
C1103 C1102 1.524 . S
C1103 C1104 1.415 . S
C1104 H1080 0.950 . S
C1104 C1099 1.363 . S
C1104 C1103 1.415 . S
C1105 H1081 0.951 . S
C1105 C1106 1.366 . S
C1105 C1107 1.388 . S
C1106 C1105 1.366 . S
C1106 C1110 1.385 . S
C1107 H1082 0.951 . S
C1107 C1105 1.388 . S
C1107 C1108 1.366 . S
C1108 C1107 1.366 . S
C1108 C1109 1.414 . S
C1108 C1111 1.499 . S
C1109 H1083 0.950 . S
C1109 C1108 1.414 . S
C1109 C1110 1.374 . S
C1110 H1084 0.950 . S
C1110 C1106 1.385 . S
C1110 C1109 1.374 . S
C1111 C1108 1.499 . S
C1111 C1112 1.373 . S
C1111 C1113 1.389 . S
C1112 H1085 0.950 . S
C1112 C1098 1.377 . S
C1112 C1111 1.373 . S
C1113 C1097 1.377 . S
C1113 C1111 1.389 . S
C1113 C1114 1.524 . S
C1114 C1113 1.524 . S
C1114 C1115 1.397 . S
C1114 C1119 1.363 . S
C1115 H1086 0.950 . S
C1115 C1114 1.397 . S
C1115 C1116 1.334 . S
C1116 H1087 0.950 . S
C1116 C1115 1.334 . S
C1116 C1117 1.287 . S
C1117 C1116 1.287 . S
C1117 C1118 1.524 . S
C1117 H1120 0.999 . S
C1118 H1088 0.950 . S
C1118 C1117 1.524 . S
C1118 C1119 1.415 . S
C1119 H1089 0.950 . S
C1119 C1114 1.363 . S
C1119 C1118 1.415 . S
H1120 C1117 0.999 . S
H1121 C1102 0.913 . S
H1122 C1140 0.951 . S
H1123 C1142 0.951 . S
H1124 C1144 0.950 . S
H1125 C1145 0.950 . S
H1126 C1147 0.950 . S
H1127 C1150 0.950 . S
H1128 C1151 0.950 . S
H1129 C1153 0.950 . S
H1130 C1154 0.950 . S
H1131 C1155 0.951 . S
H1132 C1157 0.951 . S
H1133 C1159 0.950 . S
H1134 C1160 0.950 . S
H1135 C1162 0.950 . S
H1136 C1165 0.950 . S
H1137 C1166 0.950 . S
H1138 C1168 0.950 . S
H1139 C1169 0.950 . S
C1140 H1122 0.951 . S
C1140 C1141 1.366 . S
C1140 C1142 1.388 . S
C1141 C1140 1.366 . S
C1141 C1145 1.385 . S
C1142 H1123 0.951 . S
C1142 C1140 1.388 . S
C1142 C1143 1.366 . S
C1143 C1142 1.366 . S
C1143 C1144 1.414 . S
C1143 C1146 1.499 . S
C1144 H1124 0.950 . S
C1144 C1143 1.414 . S
C1144 C1145 1.374 . S
C1145 H1125 0.950 . S
C1145 C1141 1.385 . S
C1145 C1144 1.374 . S
C1146 C1143 1.499 . S
C1146 C1147 1.373 . S
C1146 C1148 1.389 . S
C1147 H1126 0.950 . S
C1147 C1146 1.373 . S
C1147 C1163 1.377 . S
C1148 C1146 1.389 . S
C1148 C1149 1.524 . S
C1148 C1162 1.377 . S
C1149 C1148 1.524 . S
C1149 C1150 1.397 . S
C1149 C1154 1.363 . S
C1150 H1127 0.950 . S
C1150 C1149 1.397 . S
C1150 C1151 1.334 . S
C1151 H1128 0.950 . S
C1151 C1150 1.334 . S
C1151 C1152 1.287 . S
C1152 C1151 1.287 . S
C1152 C1153 1.524 . S
C1152 H1171 0.913 . S
C1153 H1129 0.950 . S
C1153 C1152 1.524 . S
C1153 C1154 1.415 . S
C1154 H1130 0.950 . S
C1154 C1149 1.363 . S
C1154 C1153 1.415 . S
C1155 H1131 0.951 . S
C1155 C1156 1.366 . S
C1155 C1157 1.388 . S
C1156 C1155 1.366 . S
C1156 C1160 1.385 . S
C1157 H1132 0.951 . S
C1157 C1155 1.388 . S
C1157 C1158 1.366 . S
C1158 C1157 1.366 . S
C1158 C1159 1.414 . S
C1158 C1161 1.499 . S
C1159 H1133 0.950 . S
C1159 C1158 1.414 . S
C1159 C1160 1.374 . S
C1160 H1134 0.950 . S
C1160 C1156 1.385 . S
C1160 C1159 1.374 . S
C1161 C1158 1.499 . S
C1161 C1162 1.373 . S
C1161 C1163 1.389 . S
C1162 H1135 0.950 . S
C1162 C1148 1.377 . S
C1162 C1161 1.373 . S
C1163 C1147 1.377 . S
C1163 C1161 1.389 . S
C1163 C1164 1.524 . S
C1164 C1163 1.524 . S
C1164 C1165 1.397 . S
C1164 C1169 1.363 . S
C1165 H1136 0.950 . S
C1165 C1164 1.397 . S
C1165 C1166 1.334 . S
C1166 H1137 0.950 . S
C1166 C1165 1.334 . S
C1166 C1167 1.287 . S
C1167 C1166 1.287 . S
C1167 C1168 1.524 . S
C1167 H1170 0.999 . S
C1168 H1138 0.950 . S
C1168 C1167 1.524 . S
C1168 C1169 1.415 . S
C1169 H1139 0.950 . S
C1169 C1164 1.363 . S
C1169 C1168 1.415 . S
H1170 C1167 0.999 . S
H1171 C1152 0.913 . S
H1172 C1190 0.951 . S
H1173 C1192 0.951 . S
H1174 C1194 0.950 . S
H1175 C1195 0.950 1_554 S
H1176 C1197 0.950 . S
H1177 C1200 0.950 . S
H1178 C1201 0.950 . S
H1179 C1203 0.950 . S
H1180 C1204 0.950 . S
H1181 C1205 0.951 . S
H1182 C1207 0.951 . S
H1183 C1209 0.950 . S
H1184 C1210 0.950 . S
H1185 C1212 0.950 . S
H1186 C1215 0.950 . S
H1187 C1216 0.950 . S
H1188 C1218 0.950 . S
H1189 C1219 0.950 . S
C1190 H1172 0.951 . S
C1190 C1191 1.366 . S
C1190 C1192 1.388 . S
C1191 C1190 1.366 . S
C1191 C1195 1.385 . S
C1192 H1173 0.951 . S
C1192 C1190 1.388 . S
C1192 C1193 1.366 . S
C1193 C1192 1.366 . S
C1193 C1194 1.414 . S
C1193 C1196 1.499 . S
C1194 H1174 0.950 . S
C1194 C1193 1.414 . S
C1194 C1195 1.374 . S
C1195 H1175 0.950 1_556 S
C1195 C1191 1.385 . S
C1195 C1194 1.374 . S
C1196 C1193 1.499 . S
C1196 C1197 1.373 . S
C1196 C1198 1.389 . S
C1197 H1176 0.950 . S
C1197 C1196 1.373 . S
C1197 C1213 1.377 . S
C1198 C1196 1.389 . S
C1198 C1199 1.524 . S
C1198 C1212 1.377 . S
C1199 C1198 1.524 . S
C1199 C1200 1.397 . S
C1199 C1204 1.363 . S
C1200 H1177 0.950 . S
C1200 C1199 1.397 . S
C1200 C1201 1.334 . S
C1201 H1178 0.950 . S
C1201 C1200 1.334 . S
C1201 C1202 1.287 . S
C1202 C1201 1.287 . S
C1202 C1203 1.524 . S
C1202 H1221 0.913 . S
C1203 H1179 0.950 . S
C1203 C1202 1.524 . S
C1203 C1204 1.415 . S
C1204 H1180 0.950 . S
C1204 C1199 1.363 . S
C1204 C1203 1.415 . S
C1205 H1181 0.951 . S
C1205 C1206 1.366 . S
C1205 C1207 1.388 . S
C1206 C1205 1.366 . S
C1206 C1210 1.385 . S
C1207 H1182 0.951 . S
C1207 C1205 1.388 . S
C1207 C1208 1.366 . S
C1208 C1207 1.366 . S
C1208 C1209 1.414 . S
C1208 C1211 1.499 . S
C1209 H1183 0.950 . S
C1209 C1208 1.414 . S
C1209 C1210 1.374 . S
C1210 H1184 0.950 . S
C1210 C1206 1.385 . S
C1210 C1209 1.374 . S
C1211 C1208 1.499 . S
C1211 C1212 1.373 . S
C1211 C1213 1.389 . S
C1212 H1185 0.950 . S
C1212 C1198 1.377 . S
C1212 C1211 1.373 . S
C1213 C1197 1.377 . S
C1213 C1211 1.389 . S
C1213 C1214 1.524 . S
C1214 C1213 1.524 . S
C1214 C1215 1.397 . S
C1214 C1219 1.363 . S
C1215 H1186 0.950 . S
C1215 C1214 1.397 . S
C1215 C1216 1.334 . S
C1216 H1187 0.950 . S
C1216 C1215 1.334 . S
C1216 C1217 1.287 . S
C1217 C1216 1.287 . S
C1217 C1218 1.524 . S
C1217 H1220 0.999 . S
C1218 H1188 0.950 . S
C1218 C1217 1.524 . S
C1218 C1219 1.415 . S
C1219 H1189 0.950 . S
C1219 C1214 1.363 . S
C1219 C1218 1.415 . S
H1220 C1217 0.999 . S
H1221 C1202 0.913 . S
H1222 C1240 0.951 . S
H1223 C1242 0.951 . S
H1224 C1244 0.950 . S
H1225 C1245 0.950 . S
H1226 C1247 0.950 . S
H1227 C1250 0.950 . S
H1228 C1251 0.950 . S
H1229 C1253 0.950 . S
H1230 C1254 0.950 . S
H1231 C1255 0.951 . S
H1232 C1257 0.951 . S
H1233 C1259 0.950 . S
H1234 C1260 0.950 . S
H1235 C1262 0.950 . S
H1236 C1265 0.950 . S
H1237 C1266 0.950 . S
H1238 C1268 0.950 . S
H1239 C1269 0.950 . S
C1240 H1222 0.951 . S
C1240 C1241 1.366 . S
C1240 C1242 1.388 . S
C1241 C1240 1.366 . S
C1241 C1245 1.385 . S
C1242 H1223 0.951 . S
C1242 C1240 1.388 . S
C1242 C1243 1.366 . S
C1243 C1242 1.366 . S
C1243 C1244 1.414 . S
C1243 C1246 1.499 . S
C1244 H1224 0.950 . S
C1244 C1243 1.414 . S
C1244 C1245 1.374 . S
C1245 H1225 0.950 . S
C1245 C1241 1.385 . S
C1245 C1244 1.374 . S
C1246 C1243 1.499 . S
C1246 C1247 1.373 . S
C1246 C1248 1.389 . S
C1247 H1226 0.950 . S
C1247 C1246 1.373 . S
C1247 C1263 1.377 . S
C1248 C1246 1.389 . S
C1248 C1249 1.524 . S
C1248 C1262 1.377 . S
C1249 C1248 1.524 . S
C1249 C1250 1.397 . S
C1249 C1254 1.363 . S
C1250 H1227 0.950 . S
C1250 C1249 1.397 . S
C1250 C1251 1.334 . S
C1251 H1228 0.950 . S
C1251 C1250 1.334 . S
C1251 C1252 1.287 . S
C1252 C1251 1.287 . S
C1252 C1253 1.524 . S
C1252 H1271 0.913 . S
C1253 H1229 0.950 . S
C1253 C1252 1.524 . S
C1253 C1254 1.415 . S
C1254 H1230 0.950 . S
C1254 C1249 1.363 . S
C1254 C1253 1.415 . S
C1255 H1231 0.951 . S
C1255 C1256 1.366 . S
C1255 C1257 1.388 . S
C1256 C1255 1.366 . S
C1256 C1260 1.385 . S
C1257 H1232 0.951 . S
C1257 C1255 1.388 . S
C1257 C1258 1.366 . S
C1258 C1257 1.366 . S
C1258 C1259 1.414 . S
C1258 C1261 1.499 . S
C1259 H1233 0.950 . S
C1259 C1258 1.414 . S
C1259 C1260 1.374 . S
C1260 H1234 0.950 . S
C1260 C1256 1.385 . S
C1260 C1259 1.374 . S
C1261 C1258 1.499 . S
C1261 C1262 1.373 . S
C1261 C1263 1.389 . S
C1262 H1235 0.950 . S
C1262 C1248 1.377 . S
C1262 C1261 1.373 . S
C1263 C1247 1.377 . S
C1263 C1261 1.389 . S
C1263 C1264 1.524 . S
C1264 C1263 1.524 . S
C1264 C1265 1.397 . S
C1264 C1269 1.363 . S
C1265 H1236 0.950 . S
C1265 C1264 1.397 . S
C1265 C1266 1.334 . S
C1266 H1237 0.950 . S
C1266 C1265 1.334 . S
C1266 C1267 1.287 . S
C1267 C1266 1.287 . S
C1267 C1268 1.524 . S
C1267 H1270 0.999 . S
C1268 H1238 0.950 . S
C1268 C1267 1.524 . S
C1268 C1269 1.415 . S
C1269 H1239 0.950 . S
C1269 C1264 1.363 . S
C1269 C1268 1.415 . S
H1270 C1267 0.999 . S
H1271 C1252 0.913 . S
H1272 C1290 0.951 . S
H1273 C1292 0.951 . S
H1274 C1294 0.950 . S
H1275 C1295 0.950 . S
H1276 C1297 0.950 . S
H1277 C1300 0.950 . S
H1278 C1301 0.950 1_554 S
H1279 C1303 0.950 . S
H1280 C1304 0.950 . S
H1281 C1305 0.951 . S
H1282 C1307 0.951 . S
H1283 C1309 0.950 . S
H1284 C1310 0.950 . S
H1285 C1312 0.950 . S
H1286 C1315 0.950 . S
H1287 C1316 0.950 . S
H1288 C1318 0.950 . S
H1289 C1319 0.950 . S
C1290 H1272 0.951 . S
C1290 C1291 1.366 . S
C1290 C1292 1.388 . S
C1291 C1290 1.366 . S
C1291 C1295 1.385 . S
C1292 H1273 0.951 . S
C1292 C1290 1.388 . S
C1292 C1293 1.366 . S
C1293 C1292 1.366 . S
C1293 C1294 1.414 . S
C1293 C1296 1.499 . S
C1294 H1274 0.950 . S
C1294 C1293 1.414 . S
C1294 C1295 1.374 . S
C1295 H1275 0.950 . S
C1295 C1291 1.385 . S
C1295 C1294 1.374 . S
C1296 C1293 1.499 . S
C1296 C1297 1.373 . S
C1296 C1298 1.389 . S
C1297 H1276 0.950 . S
C1297 C1296 1.373 . S
C1297 C1313 1.377 . S
C1298 C1296 1.389 . S
C1298 C1299 1.524 . S
C1298 C1312 1.377 . S
C1299 C1298 1.524 . S
C1299 C1300 1.397 . S
C1299 C1304 1.363 . S
C1300 H1277 0.950 . S
C1300 C1299 1.397 . S
C1300 C1301 1.334 . S
C1301 H1278 0.950 1_556 S
C1301 C1300 1.334 . S
C1301 C1302 1.287 1_556 S
C1302 C1301 1.287 1_554 S
C1302 C1303 1.524 . S
C1302 H1321 0.913 . S
C1303 H1279 0.950 . S
C1303 C1302 1.524 . S
C1303 C1304 1.415 1_554 S
C1304 H1280 0.950 . S
C1304 C1299 1.363 . S
C1304 C1303 1.415 1_556 S
C1305 H1281 0.951 . S
C1305 C1306 1.366 . S
C1305 C1307 1.388 . S
C1306 C1305 1.366 . S
C1306 C1310 1.385 . S
C1307 H1282 0.951 . S
C1307 C1305 1.388 . S
C1307 C1308 1.366 . S
C1308 C1307 1.366 . S
C1308 C1309 1.414 . S
C1308 C1311 1.499 . S
C1309 H1283 0.950 . S
C1309 C1308 1.414 . S
C1309 C1310 1.374 . S
C1310 H1284 0.950 . S
C1310 C1306 1.385 . S
C1310 C1309 1.374 . S
C1311 C1308 1.499 . S
C1311 C1312 1.373 . S
C1311 C1313 1.389 . S
C1312 H1285 0.950 . S
C1312 C1298 1.377 . S
C1312 C1311 1.373 . S
C1313 C1297 1.377 . S
C1313 C1311 1.389 . S
C1313 C1314 1.524 . S
C1314 C1313 1.524 . S
C1314 C1315 1.397 . S
C1314 C1319 1.363 . S
C1315 H1286 0.950 . S
C1315 C1314 1.397 . S
C1315 C1316 1.334 . S
C1316 H1287 0.950 . S
C1316 C1315 1.334 . S
C1316 C1317 1.287 . S
C1317 C1316 1.287 . S
C1317 C1318 1.524 . S
C1317 H1320 0.999 . S
C1318 H1288 0.950 . S
C1318 C1317 1.524 . S
C1318 C1319 1.415 . S
C1319 H1289 0.950 . S
C1319 C1314 1.363 . S
C1319 C1318 1.415 . S
H1320 C1317 0.999 . S
H1321 C1302 0.913 . S
H1322 C1340 0.951 . S
H1323 C1342 0.951 . S
H1324 C1344 0.950 . S
H1325 C1345 0.950 . S
H1326 C1347 0.950 . S
H1327 C1350 0.950 . S
H1328 C1351 0.950 . S
H1329 C1353 0.950 . S
H1330 C1354 0.950 . S
H1331 C1355 0.951 . S
H1332 C1357 0.951 . S
H1333 C1359 0.950 . S
H1334 C1360 0.950 . S
H1335 C1362 0.950 . S
H1336 C1365 0.950 . S
H1337 C1366 0.950 . S
H1338 C1368 0.950 . S
H1339 C1369 0.950 . S
C1340 H1322 0.951 . S
C1340 C1341 1.366 . S
C1340 C1342 1.388 . S
C1341 C1340 1.366 . S
C1341 C1345 1.385 . S
C1342 H1323 0.951 . S
C1342 C1340 1.388 . S
C1342 C1343 1.366 . S
C1343 C1342 1.366 . S
C1343 C1344 1.414 . S
C1343 C1346 1.499 . S
C1344 H1324 0.950 . S
C1344 C1343 1.414 . S
C1344 C1345 1.374 . S
C1345 H1325 0.950 . S
C1345 C1341 1.385 . S
C1345 C1344 1.374 . S
C1346 C1343 1.499 . S
C1346 C1347 1.373 . S
C1346 C1348 1.389 . S
C1347 H1326 0.950 . S
C1347 C1346 1.373 . S
C1347 C1363 1.377 . S
C1348 C1346 1.389 . S
C1348 C1349 1.524 . S
C1348 C1362 1.377 . S
C1349 C1348 1.524 . S
C1349 C1350 1.397 . S
C1349 C1354 1.363 . S
C1350 H1327 0.950 . S
C1350 C1349 1.397 . S
C1350 C1351 1.334 . S
C1351 H1328 0.950 . S
C1351 C1350 1.334 . S
C1351 C1352 1.287 . S
C1352 C1351 1.287 . S
C1352 C1353 1.524 . S
C1352 H1371 0.913 . S
C1353 H1329 0.950 . S
C1353 C1352 1.524 . S
C1353 C1354 1.415 . S
C1354 H1330 0.950 . S
C1354 C1349 1.363 . S
C1354 C1353 1.415 . S
C1355 H1331 0.951 . S
C1355 C1356 1.366 . S
C1355 C1357 1.388 . S
C1356 C1355 1.366 . S
C1356 C1360 1.385 . S
C1357 H1332 0.951 . S
C1357 C1355 1.388 . S
C1357 C1358 1.366 . S
C1358 C1357 1.366 . S
C1358 C1359 1.414 . S
C1358 C1361 1.499 . S
C1359 H1333 0.950 . S
C1359 C1358 1.414 . S
C1359 C1360 1.374 . S
C1360 H1334 0.950 . S
C1360 C1356 1.385 . S
C1360 C1359 1.374 . S
C1361 C1358 1.499 . S
C1361 C1362 1.373 . S
C1361 C1363 1.389 . S
C1362 H1335 0.950 . S
C1362 C1348 1.377 . S
C1362 C1361 1.373 . S
C1363 C1347 1.377 . S
C1363 C1361 1.389 . S
C1363 C1364 1.524 . S
C1364 C1363 1.524 . S
C1364 C1365 1.397 . S
C1364 C1369 1.363 . S
C1365 H1336 0.950 . S
C1365 C1364 1.397 . S
C1365 C1366 1.334 . S
C1366 H1337 0.950 . S
C1366 C1365 1.334 . S
C1366 C1367 1.287 . S
C1367 C1366 1.287 . S
C1367 C1368 1.524 . S
C1367 H1370 0.999 . S
C1368 H1338 0.950 . S
C1368 C1367 1.524 . S
C1368 C1369 1.415 . S
C1369 H1339 0.950 . S
C1369 C1364 1.363 . S
C1369 C1368 1.415 . S
H1370 C1367 0.999 . S
H1371 C1352 0.913 . S
H1372 C1390 0.951 1_455 S
H1373 C1392 0.951 . S
H1374 C1394 0.950 . S
H1375 C1395 0.950 . S
H1376 C1397 0.950 . S
H1377 C1400 0.950 . S
H1378 C1401 0.950 . S
H1379 C1403 0.950 . S
H1380 C1404 0.950 . S
H1381 C1405 0.951 . S
H1382 C1407 0.951 . S
H1383 C1409 0.950 . S
H1384 C1410 0.950 . S
H1385 C1412 0.950 . S
H1386 C1415 0.950 . S
H1387 C1416 0.950 . S
H1388 C1418 0.950 . S
H1389 C1419 0.950 . S
C1390 H1372 0.951 1_655 S
C1390 C1391 1.366 . S
C1390 C1392 1.388 . S
C1391 C1390 1.366 . S
C1391 C1395 1.385 . S
C1392 H1373 0.951 . S
C1392 C1390 1.388 . S
C1392 C1393 1.366 . S
C1393 C1392 1.366 . S
C1393 C1394 1.414 . S
C1393 C1396 1.499 . S
C1394 H1374 0.950 . S
C1394 C1393 1.414 . S
C1394 C1395 1.374 . S
C1395 H1375 0.950 . S
C1395 C1391 1.385 . S
C1395 C1394 1.374 . S
C1396 C1393 1.499 . S
C1396 C1397 1.373 . S
C1396 C1398 1.389 . S
C1397 H1376 0.950 . S
C1397 C1396 1.373 . S
C1397 C1413 1.377 . S
C1398 C1396 1.389 . S
C1398 C1399 1.524 . S
C1398 C1412 1.377 . S
C1399 C1398 1.524 . S
C1399 C1400 1.397 . S
C1399 C1404 1.363 . S
C1400 H1377 0.950 . S
C1400 C1399 1.397 . S
C1400 C1401 1.334 . S
C1401 H1378 0.950 . S
C1401 C1400 1.334 . S
C1401 C1402 1.287 . S
C1402 C1401 1.287 . S
C1402 C1403 1.524 . S
C1402 H1421 0.913 . S
C1403 H1379 0.950 . S
C1403 C1402 1.524 . S
C1403 C1404 1.415 . S
C1404 H1380 0.950 . S
C1404 C1399 1.363 . S
C1404 C1403 1.415 . S
C1405 H1381 0.951 . S
C1405 C1406 1.366 . S
C1405 C1407 1.388 . S
C1406 C1405 1.366 . S
C1406 C1410 1.385 . S
C1407 H1382 0.951 . S
C1407 C1405 1.388 . S
C1407 C1408 1.366 . S
C1408 C1407 1.366 . S
C1408 C1409 1.414 . S
C1408 C1411 1.499 . S
C1409 H1383 0.950 . S
C1409 C1408 1.414 . S
C1409 C1410 1.374 . S
C1410 H1384 0.950 . S
C1410 C1406 1.385 . S
C1410 C1409 1.374 . S
C1411 C1408 1.499 . S
C1411 C1412 1.373 . S
C1411 C1413 1.389 . S
C1412 H1385 0.950 . S
C1412 C1398 1.377 . S
C1412 C1411 1.373 . S
C1413 C1397 1.377 . S
C1413 C1411 1.389 . S
C1413 C1414 1.524 . S
C1414 C1413 1.524 . S
C1414 C1415 1.397 . S
C1414 C1419 1.363 . S
C1415 H1386 0.950 . S
C1415 C1414 1.397 . S
C1415 C1416 1.334 . S
C1416 H1387 0.950 . S
C1416 C1415 1.334 . S
C1416 C1417 1.287 . S
C1417 C1416 1.287 . S
C1417 C1418 1.524 . S
C1417 H1420 0.999 . S
C1418 H1388 0.950 . S
C1418 C1417 1.524 . S
C1418 C1419 1.415 . S
C1419 H1389 0.950 . S
C1419 C1414 1.363 . S
C1419 C1418 1.415 . S
H1420 C1417 0.999 . S
H1421 C1402 0.913 . S
H1422 C1440 0.951 . S
H1423 C1442 0.951 . S
H1424 C1444 0.950 . S
H1425 C1445 0.930 1_455 S
H1426 C1447 0.950 . S
H1427 C1450 0.950 . S
H1428 C1451 0.950 . S
H1429 C1453 0.950 . S
H1430 C1454 0.950 . S
H1431 C1455 0.951 . S
H1432 C1457 0.951 . S
H1433 C1459 0.950 . S
H1434 C1460 0.950 . S
H1435 C1462 0.950 . S
H1436 C1465 0.950 . S
H1437 C1466 0.937 . S
H1438 C1468 0.950 1_455 S
H1439 C1469 0.950 . S
C1440 H1422 0.951 . S
C1440 C1441 1.324 1_655 S
C1440 C1442 1.388 . S
C1441 C1440 1.324 1_455 S
C1441 C1445 1.381 1_455 S
C1442 H1423 0.951 . S
C1442 C1440 1.388 . S
C1442 C1443 1.366 . S
C1443 C1442 1.366 . S
C1443 C1444 1.414 . S
C1443 C1446 1.499 . S
C1444 H1424 0.950 . S
C1444 C1443 1.414 . S
C1444 C1445 1.374 . S
C1445 H1425 0.930 1_655 S
C1445 C1441 1.381 1_655 S
C1445 C1444 1.374 . S
C1446 C1443 1.499 . S
C1446 C1447 1.373 . S
C1446 C1448 1.389 . S
C1447 H1426 0.950 . S
C1447 C1446 1.373 . S
C1447 C1463 1.377 . S
C1448 C1446 1.389 . S
C1448 C1449 1.524 . S
C1448 C1462 1.377 . S
C1449 C1448 1.524 . S
C1449 C1450 1.397 . S
C1449 C1454 1.363 . S
C1450 H1427 0.950 . S
C1450 C1449 1.397 . S
C1450 C1451 1.334 . S
C1451 H1428 0.950 . S
C1451 C1450 1.334 . S
C1451 C1452 1.287 . S
C1452 C1451 1.287 . S
C1452 C1453 1.524 . S
C1452 H1471 0.913 . S
C1453 H1429 0.950 . S
C1453 C1452 1.524 . S
C1453 C1454 1.415 . S
C1454 H1430 0.950 . S
C1454 C1449 1.363 . S
C1454 C1453 1.415 . S
C1455 H1431 0.951 . S
C1455 C1456 1.366 . S
C1455 C1457 1.388 . S
C1456 C1455 1.366 . S
C1456 C1460 1.385 . S
C1457 H1432 0.951 . S
C1457 C1455 1.388 . S
C1457 C1458 1.366 . S
C1458 C1457 1.366 . S
C1458 C1459 1.414 . S
C1458 C1461 1.499 . S
C1459 H1433 0.950 . S
C1459 C1458 1.414 . S
C1459 C1460 1.374 . S
C1460 H1434 0.950 . S
C1460 C1456 1.385 . S
C1460 C1459 1.374 . S
C1461 C1458 1.499 . S
C1461 C1462 1.373 . S
C1461 C1463 1.389 . S
C1462 H1435 0.950 . S
C1462 C1448 1.377 . S
C1462 C1461 1.373 . S
C1463 C1447 1.377 . S
C1463 C1461 1.389 . S
C1463 C1464 1.524 . S
C1464 C1463 1.524 . S
C1464 C1465 1.397 . S
C1464 C1469 1.363 . S
C1465 H1436 0.950 . S
C1465 C1464 1.397 . S
C1465 C1466 1.334 . S
C1466 H1437 0.937 . S
C1466 C1465 1.334 . S
C1466 C1467 1.287 1_655 S
C1467 C1466 1.287 1_455 S
C1467 C1468 1.524 1_455 S
C1467 H1470 0.999 . S
C1468 H1438 0.950 1_655 S
C1468 C1467 1.524 1_655 S
C1468 C1469 1.415 . S
C1469 H1439 0.950 . S
C1469 C1464 1.363 . S
C1469 C1468 1.415 . S
H1470 C1467 0.999 . S
H1471 C1452 0.913 . S
H1472 C1490 0.951 . S
H1473 C1492 0.951 . S
H1474 C1494 0.950 . S
H1475 C1495 0.950 . S
H1476 C1497 0.950 . S
H1477 C1500 0.950 . S
H1478 C1501 0.950 . S
H1479 C1503 0.950 . S
H1480 C1504 0.950 . S
H1481 C1505 0.951 . S
H1482 C1507 0.951 . S
H1483 C1509 0.950 . S
H1484 C1510 0.950 . S
H1485 C1512 0.950 . S
H1486 C1515 0.950 . S
H1487 C1516 0.950 . S
H1488 C1518 0.950 . S
H1489 C1519 0.950 . S
C1490 H1472 0.951 . S
C1490 C1491 1.366 . S
C1490 C1492 1.388 . S
C1491 C1490 1.366 . S
C1491 C1495 1.385 . S
C1492 H1473 0.951 . S
C1492 C1490 1.388 . S
C1492 C1493 1.366 . S
C1493 C1492 1.366 . S
C1493 C1494 1.414 . S
C1493 C1496 1.499 . S
C1494 H1474 0.950 . S
C1494 C1493 1.414 . S
C1494 C1495 1.374 . S
C1495 H1475 0.950 . S
C1495 C1491 1.385 . S
C1495 C1494 1.374 . S
C1496 C1493 1.499 . S
C1496 C1497 1.373 . S
C1496 C1498 1.389 . S
C1497 H1476 0.950 . S
C1497 C1496 1.373 . S
C1497 C1513 1.377 . S
C1498 C1496 1.389 . S
C1498 C1499 1.524 . S
C1498 C1512 1.377 . S
C1499 C1498 1.524 . S
C1499 C1500 1.397 . S
C1499 C1504 1.363 . S
C1500 H1477 0.950 . S
C1500 C1499 1.397 . S
C1500 C1501 1.334 . S
C1501 H1478 0.950 . S
C1501 C1500 1.334 . S
C1501 C1502 1.287 . S
C1502 C1501 1.287 . S
C1502 C1503 1.524 . S
C1502 H1521 0.913 . S
C1503 H1479 0.950 . S
C1503 C1502 1.524 . S
C1503 C1504 1.415 . S
C1504 H1480 0.950 . S
C1504 C1499 1.363 . S
C1504 C1503 1.415 . S
C1505 H1481 0.951 . S
C1505 C1506 1.366 . S
C1505 C1507 1.388 . S
C1506 C1505 1.366 . S
C1506 C1510 1.385 . S
C1507 H1482 0.951 . S
C1507 C1505 1.388 . S
C1507 C1508 1.366 . S
C1508 C1507 1.366 . S
C1508 C1509 1.414 . S
C1508 C1511 1.499 . S
C1509 H1483 0.950 . S
C1509 C1508 1.414 . S
C1509 C1510 1.374 . S
C1510 H1484 0.950 . S
C1510 C1506 1.385 . S
C1510 C1509 1.374 . S
C1511 C1508 1.499 . S
C1511 C1512 1.373 . S
C1511 C1513 1.389 . S
C1512 H1485 0.950 . S
C1512 C1498 1.377 . S
C1512 C1511 1.373 . S
C1513 C1497 1.377 . S
C1513 C1511 1.389 . S
C1513 C1514 1.524 . S
C1514 C1513 1.524 . S
C1514 C1515 1.397 . S
C1514 C1519 1.363 . S
C1515 H1486 0.950 . S
C1515 C1514 1.397 . S
C1515 C1516 1.334 . S
C1516 H1487 0.950 . S
C1516 C1515 1.334 . S
C1516 C1517 1.287 . S
C1517 C1516 1.287 . S
C1517 C1518 1.524 . S
C1517 H1520 0.999 . S
C1518 H1488 0.950 . S
C1518 C1517 1.524 . S
C1518 C1519 1.415 . S
C1519 H1489 0.950 . S
C1519 C1514 1.363 . S
C1519 C1518 1.415 . S
H1520 C1517 0.999 . S
H1521 C1502 0.913 . S
H1522 C1540 0.951 . S
H1523 C1542 0.951 . S
H1524 C1544 0.950 . S
H1525 C1545 0.950 . S
H1526 C1547 0.950 . S
H1527 C1550 0.950 . S
H1528 C1551 0.950 . S
H1529 C1553 0.950 . S
H1530 C1554 0.950 . S
H1531 C1555 0.951 . S
H1532 C1557 0.951 . S
H1533 C1559 0.950 . S
H1534 C1560 0.950 . S
H1535 C1562 0.950 . S
H1536 C1565 0.950 . S
H1537 C1566 0.950 . S
H1538 C1568 0.950 . S
H1539 C1569 0.950 . S
C1540 H1522 0.951 . S
C1540 C1541 1.366 . S
C1540 C1542 1.388 . S
C1541 C1540 1.366 . S
C1541 C1545 1.385 . S
C1542 H1523 0.951 . S
C1542 C1540 1.388 . S
C1542 C1543 1.366 . S
C1543 C1542 1.366 . S
C1543 C1544 1.414 . S
C1543 C1546 1.499 . S
C1544 H1524 0.950 . S
C1544 C1543 1.414 . S
C1544 C1545 1.374 . S
C1545 H1525 0.950 . S
C1545 C1541 1.385 . S
C1545 C1544 1.374 . S
C1546 C1543 1.499 . S
C1546 C1547 1.373 . S
C1546 C1548 1.389 . S
C1547 H1526 0.950 . S
C1547 C1546 1.373 . S
C1547 C1563 1.377 . S
C1548 C1546 1.389 . S
C1548 C1549 1.524 . S
C1548 C1562 1.377 . S
C1549 C1548 1.524 . S
C1549 C1550 1.397 . S
C1549 C1554 1.363 . S
C1550 H1527 0.950 . S
C1550 C1549 1.397 . S
C1550 C1551 1.334 . S
C1551 H1528 0.950 . S
C1551 C1550 1.334 . S
C1551 C1552 1.287 . S
C1552 C1551 1.287 . S
C1552 C1553 1.524 . S
C1552 H1571 0.913 . S
C1553 H1529 0.950 . S
C1553 C1552 1.524 . S
C1553 C1554 1.415 . S
C1554 H1530 0.950 . S
C1554 C1549 1.363 . S
C1554 C1553 1.415 . S
C1555 H1531 0.951 . S
C1555 C1556 1.366 . S
C1555 C1557 1.388 . S
C1556 C1555 1.366 . S
C1556 C1560 1.385 . S
C1557 H1532 0.951 . S
C1557 C1555 1.388 . S
C1557 C1558 1.366 . S
C1558 C1557 1.366 . S
C1558 C1559 1.414 . S
C1558 C1561 1.499 . S
C1559 H1533 0.950 . S
C1559 C1558 1.414 . S
C1559 C1560 1.374 . S
C1560 H1534 0.950 . S
C1560 C1556 1.385 . S
C1560 C1559 1.374 . S
C1561 C1558 1.499 . S
C1561 C1562 1.373 . S
C1561 C1563 1.389 . S
C1562 H1535 0.950 . S
C1562 C1548 1.377 . S
C1562 C1561 1.373 . S
C1563 C1547 1.377 . S
C1563 C1561 1.389 . S
C1563 C1564 1.524 . S
C1564 C1563 1.524 . S
C1564 C1565 1.397 . S
C1564 C1569 1.363 . S
C1565 H1536 0.950 . S
C1565 C1564 1.397 . S
C1565 C1566 1.334 . S
C1566 H1537 0.950 . S
C1566 C1565 1.334 . S
C1566 C1567 1.287 . S
C1567 C1566 1.287 . S
C1567 C1568 1.524 . S
C1567 H1570 0.999 . S
C1568 H1538 0.950 . S
C1568 C1567 1.524 . S
C1568 C1569 1.415 . S
C1569 H1539 0.950 . S
C1569 C1564 1.363 . S
C1569 C1568 1.415 . S
H1570 C1567 0.999 . S
H1571 C1552 0.913 . S
H1572 C1590 0.951 . S
H1573 C1592 0.951 . S
H1574 C1594 0.950 . S
H1575 C1595 0.950 . S
H1576 C1597 0.950 . S
H1577 C1600 0.950 . S
H1578 C1601 0.950 . S
H1579 C1603 0.950 . S
H1580 C1604 0.950 . S
H1581 C1605 0.951 . S
H1582 C1607 0.951 . S
H1583 C1609 0.950 . S
H1584 C1610 0.950 . S
H1585 C1612 0.950 . S
H1586 C1615 0.950 . S
H1587 C1616 0.950 . S
H1588 C1618 0.950 . S
H1589 C1619 0.950 . S
C1590 H1572 0.951 . S
C1590 C1591 1.366 . S
C1590 C1592 1.388 . S
C1591 C1590 1.366 . S
C1591 C1595 1.385 . S
C1592 H1573 0.951 . S
C1592 C1590 1.388 . S
C1592 C1593 1.366 . S
C1593 C1592 1.366 . S
C1593 C1594 1.414 . S
C1593 C1596 1.499 . S
C1594 H1574 0.950 . S
C1594 C1593 1.414 . S
C1594 C1595 1.374 . S
C1595 H1575 0.950 . S
C1595 C1591 1.385 . S
C1595 C1594 1.374 . S
C1596 C1593 1.499 . S
C1596 C1597 1.373 . S
C1596 C1598 1.389 . S
C1597 H1576 0.950 . S
C1597 C1596 1.373 . S
C1597 C1613 1.377 . S
C1598 C1596 1.389 . S
C1598 C1599 1.524 . S
C1598 C1612 1.377 . S
C1599 C1598 1.524 . S
C1599 C1600 1.397 . S
C1599 C1604 1.363 . S
C1600 H1577 0.950 . S
C1600 C1599 1.397 . S
C1600 C1601 1.334 . S
C1601 H1578 0.950 . S
C1601 C1600 1.334 . S
C1601 C1602 1.287 . S
C1602 C1601 1.287 . S
C1602 C1603 1.524 . S
C1602 H1621 0.913 . S
C1603 H1579 0.950 . S
C1603 C1602 1.524 . S
C1603 C1604 1.415 . S
C1604 H1580 0.950 . S
C1604 C1599 1.363 . S
C1604 C1603 1.415 . S
C1605 H1581 0.951 . S
C1605 C1606 1.366 . S
C1605 C1607 1.388 . S
C1606 C1605 1.366 . S
C1606 C1610 1.385 . S
C1607 H1582 0.951 . S
C1607 C1605 1.388 . S
C1607 C1608 1.366 . S
C1608 C1607 1.366 . S
C1608 C1609 1.414 . S
C1608 C1611 1.499 . S
C1609 H1583 0.950 . S
C1609 C1608 1.414 . S
C1609 C1610 1.374 . S
C1610 H1584 0.950 . S
C1610 C1606 1.385 . S
C1610 C1609 1.374 . S
C1611 C1608 1.499 . S
C1611 C1612 1.373 . S
C1611 C1613 1.389 . S
C1612 H1585 0.950 . S
C1612 C1598 1.377 . S
C1612 C1611 1.373 . S
C1613 C1597 1.377 . S
C1613 C1611 1.389 . S
C1613 C1614 1.524 . S
C1614 C1613 1.524 . S
C1614 C1615 1.397 . S
C1614 C1619 1.363 . S
C1615 H1586 0.950 . S
C1615 C1614 1.397 . S
C1615 C1616 1.334 . S
C1616 H1587 0.950 . S
C1616 C1615 1.334 . S
C1616 C1617 1.287 . S
C1617 C1616 1.287 . S
C1617 C1618 1.524 . S
C1617 H1620 0.999 . S
C1618 H1588 0.950 . S
C1618 C1617 1.524 . S
C1618 C1619 1.415 . S
C1619 H1589 0.950 . S
C1619 C1614 1.363 . S
C1619 C1618 1.415 . S
H1620 C1617 0.999 . S
H1621 C1602 0.913 . S
H1622 C1640 0.951 . S
H1623 C1642 0.951 . S
H1624 C1644 0.950 . S
H1625 C1645 0.950 . S
H1626 C1647 0.950 . S
H1627 C1650 0.950 . S
H1628 C1651 0.950 . S
H1629 C1653 0.950 . S
H1630 C1654 0.950 . S
H1631 C1655 0.951 . S
H1632 C1657 0.951 . S
H1633 C1659 0.950 . S
H1634 C1660 0.950 . S
H1635 C1662 0.950 . S
H1636 C1665 0.950 . S
H1637 C1666 0.950 . S
H1638 C1668 0.950 . S
H1639 C1669 0.950 . S
C1640 H1622 0.951 . S
C1640 C1641 1.366 . S
C1640 C1642 1.388 . S
C1641 C1640 1.366 . S
C1641 C1645 1.385 . S
C1642 H1623 0.951 . S
C1642 C1640 1.388 . S
C1642 C1643 1.366 . S
C1643 C1642 1.366 . S
C1643 C1644 1.414 . S
C1643 C1646 1.499 . S
C1644 H1624 0.950 . S
C1644 C1643 1.414 . S
C1644 C1645 1.374 . S
C1645 H1625 0.950 . S
C1645 C1641 1.385 . S
C1645 C1644 1.374 . S
C1646 C1643 1.499 . S
C1646 C1647 1.373 . S
C1646 C1648 1.389 . S
C1647 H1626 0.950 . S
C1647 C1646 1.373 . S
C1647 C1663 1.377 . S
C1648 C1646 1.389 . S
C1648 C1649 1.524 . S
C1648 C1662 1.377 . S
C1649 C1648 1.524 . S
C1649 C1650 1.397 . S
C1649 C1654 1.363 . S
C1650 H1627 0.950 . S
C1650 C1649 1.397 . S
C1650 C1651 1.334 . S
C1651 H1628 0.950 . S
C1651 C1650 1.334 . S
C1651 C1652 1.287 . S
C1652 C1651 1.287 . S
C1652 C1653 1.524 . S
C1652 H1671 0.913 . S
C1653 H1629 0.950 . S
C1653 C1652 1.524 . S
C1653 C1654 1.415 . S
C1654 H1630 0.950 . S
C1654 C1649 1.363 . S
C1654 C1653 1.415 . S
C1655 H1631 0.951 . S
C1655 C1656 1.366 . S
C1655 C1657 1.388 . S
C1656 C1655 1.366 . S
C1656 C1660 1.385 . S
C1657 H1632 0.951 . S
C1657 C1655 1.388 . S
C1657 C1658 1.366 . S
C1658 C1657 1.366 . S
C1658 C1659 1.414 . S
C1658 C1661 1.499 . S
C1659 H1633 0.950 . S
C1659 C1658 1.414 . S
C1659 C1660 1.374 . S
C1660 H1634 0.950 . S
C1660 C1656 1.385 . S
C1660 C1659 1.374 . S
C1661 C1658 1.499 . S
C1661 C1662 1.373 . S
C1661 C1663 1.389 . S
C1662 H1635 0.950 . S
C1662 C1648 1.377 . S
C1662 C1661 1.373 . S
C1663 C1647 1.377 . S
C1663 C1661 1.389 . S
C1663 C1664 1.524 . S
C1664 C1663 1.524 . S
C1664 C1665 1.397 . S
C1664 C1669 1.363 . S
C1665 H1636 0.950 . S
C1665 C1664 1.397 . S
C1665 C1666 1.334 . S
C1666 H1637 0.950 . S
C1666 C1665 1.334 . S
C1666 C1667 1.287 . S
C1667 C1666 1.287 . S
C1667 C1668 1.524 . S
C1667 H1670 0.999 . S
C1668 H1638 0.950 . S
C1668 C1667 1.524 . S
C1668 C1669 1.415 . S
C1669 H1639 0.950 . S
C1669 C1664 1.363 . S
C1669 C1668 1.415 . S
H1670 C1667 0.999 . S
H1671 C1652 0.913 . S
H1672 C1690 0.951 . S
H1673 C1692 0.951 . S
H1674 C1694 0.950 . S
H1675 C1695 0.950 . S
H1676 C1697 0.950 . S
H1677 C1700 0.950 . S
H1678 C1701 0.950 . S
H1679 C1703 0.950 . S
H1680 C1704 0.950 . S
H1681 C1705 0.951 . S
H1682 C1707 0.951 . S
H1683 C1709 0.950 . S
H1684 C1710 0.950 . S
H1685 C1712 0.950 . S
H1686 C1715 0.950 . S
H1687 C1716 0.950 . S
H1688 C1718 0.950 . S
H1689 C1719 0.950 . S
C1690 H1672 0.951 . S
C1690 C1691 1.366 . S
C1690 C1692 1.388 . S
C1691 C1690 1.366 . S
C1691 C1695 1.385 . S
C1692 H1673 0.951 . S
C1692 C1690 1.388 . S
C1692 C1693 1.366 . S
C1693 C1692 1.366 . S
C1693 C1694 1.414 . S
C1693 C1696 1.499 . S
C1694 H1674 0.950 . S
C1694 C1693 1.414 . S
C1694 C1695 1.374 . S
C1695 H1675 0.950 . S
C1695 C1691 1.385 . S
C1695 C1694 1.374 . S
C1696 C1693 1.499 . S
C1696 C1697 1.373 . S
C1696 C1698 1.389 . S
C1697 H1676 0.950 . S
C1697 C1696 1.373 . S
C1697 C1713 1.377 . S
C1698 C1696 1.389 . S
C1698 C1699 1.524 . S
C1698 C1712 1.377 . S
C1699 C1698 1.524 . S
C1699 C1700 1.397 . S
C1699 C1704 1.363 . S
C1700 H1677 0.950 . S
C1700 C1699 1.397 . S
C1700 C1701 1.334 . S
C1701 H1678 0.950 . S
C1701 C1700 1.334 . S
C1701 C1702 1.287 . S
C1702 C1701 1.287 . S
C1702 C1703 1.524 . S
C1702 H1721 0.913 . S
C1703 H1679 0.950 . S
C1703 C1702 1.524 . S
C1703 C1704 1.415 . S
C1704 H1680 0.950 . S
C1704 C1699 1.363 . S
C1704 C1703 1.415 . S
C1705 H1681 0.951 . S
C1705 C1706 1.366 . S
C1705 C1707 1.388 . S
C1706 C1705 1.366 . S
C1706 C1710 1.385 . S
C1707 H1682 0.951 . S
C1707 C1705 1.388 . S
C1707 C1708 1.366 . S
C1708 C1707 1.366 . S
C1708 C1709 1.414 . S
C1708 C1711 1.499 . S
C1709 H1683 0.950 . S
C1709 C1708 1.414 . S
C1709 C1710 1.374 . S
C1710 H1684 0.950 . S
C1710 C1706 1.385 . S
C1710 C1709 1.374 . S
C1711 C1708 1.499 . S
C1711 C1712 1.373 . S
C1711 C1713 1.389 . S
C1712 H1685 0.950 . S
C1712 C1698 1.377 . S
C1712 C1711 1.373 . S
C1713 C1697 1.377 . S
C1713 C1711 1.389 . S
C1713 C1714 1.524 . S
C1714 C1713 1.524 . S
C1714 C1715 1.397 . S
C1714 C1719 1.363 . S
C1715 H1686 0.950 . S
C1715 C1714 1.397 . S
C1715 C1716 1.334 . S
C1716 H1687 0.950 . S
C1716 C1715 1.334 . S
C1716 C1717 1.287 . S
C1717 C1716 1.287 . S
C1717 C1718 1.524 . S
C1717 H1720 0.999 . S
C1718 H1688 0.950 . S
C1718 C1717 1.524 . S
C1718 C1719 1.415 . S
C1719 H1689 0.950 . S
C1719 C1714 1.363 . S
C1719 C1718 1.415 . S
H1720 C1717 0.999 . S
H1721 C1702 0.913 . S
H1722 C1740 0.951 . S
H1723 C1742 0.951 . S
H1724 C1744 0.950 . S
H1725 C1745 0.950 . S
H1726 C1747 0.950 . S
H1727 C1750 0.950 . S
H1728 C1751 0.950 . S
H1729 C1753 0.950 1_565 S
H1730 C1754 0.950 . S
H1731 C1755 0.951 . S
H1732 C1757 0.951 . S
H1733 C1759 0.950 . S
H1734 C1760 0.950 . S
H1735 C1762 0.950 . S
H1736 C1765 0.950 . S
H1737 C1766 0.950 . S
H1738 C1768 0.950 . S
H1739 C1769 0.950 . S
C1740 H1722 0.951 . S
C1740 C1741 1.366 . S
C1740 C1742 1.388 . S
C1741 C1740 1.366 . S
C1741 C1745 1.385 . S
C1742 H1723 0.951 . S
C1742 C1740 1.388 . S
C1742 C1743 1.366 . S
C1743 C1742 1.366 . S
C1743 C1744 1.414 . S
C1743 C1746 1.499 . S
C1744 H1724 0.950 . S
C1744 C1743 1.414 . S
C1744 C1745 1.374 . S
C1745 H1725 0.950 . S
C1745 C1741 1.385 . S
C1745 C1744 1.374 . S
C1746 C1743 1.499 . S
C1746 C1747 1.373 . S
C1746 C1748 1.389 . S
C1747 H1726 0.950 . S
C1747 C1746 1.373 . S
C1747 C1763 1.377 . S
C1748 C1746 1.389 . S
C1748 C1749 1.524 . S
C1748 C1762 1.377 . S
C1749 C1748 1.524 . S
C1749 C1750 1.397 . S
C1749 C1754 1.363 . S
C1750 H1727 0.950 . S
C1750 C1749 1.397 . S
C1750 C1751 1.334 . S
C1751 H1728 0.950 . S
C1751 C1750 1.334 . S
C1751 C1752 1.287 . S
C1752 C1751 1.287 . S
C1752 C1753 1.524 . S
C1752 H1771 0.913 . S
C1753 H1729 0.950 1_545 S
C1753 C1752 1.524 . S
C1753 C1754 1.415 . S
C1754 H1730 0.950 . S
C1754 C1749 1.363 . S
C1754 C1753 1.415 . S
C1755 H1731 0.951 . S
C1755 C1756 1.366 . S
C1755 C1757 1.388 . S
C1756 C1755 1.366 . S
C1756 C1760 1.385 . S
C1757 H1732 0.951 . S
C1757 C1755 1.388 . S
C1757 C1758 1.366 . S
C1758 C1757 1.366 . S
C1758 C1759 1.414 . S
C1758 C1761 1.499 . S
C1759 H1733 0.950 . S
C1759 C1758 1.414 . S
C1759 C1760 1.374 . S
C1760 H1734 0.950 . S
C1760 C1756 1.385 . S
C1760 C1759 1.374 . S
C1761 C1758 1.499 . S
C1761 C1762 1.373 . S
C1761 C1763 1.389 . S
C1762 H1735 0.950 . S
C1762 C1748 1.377 . S
C1762 C1761 1.373 . S
C1763 C1747 1.377 . S
C1763 C1761 1.389 . S
C1763 C1764 1.524 . S
C1764 C1763 1.524 . S
C1764 C1765 1.397 . S
C1764 C1769 1.363 . S
C1765 H1736 0.950 . S
C1765 C1764 1.397 . S
C1765 C1766 1.334 . S
C1766 H1737 0.950 . S
C1766 C1765 1.334 . S
C1766 C1767 1.287 . S
C1767 C1766 1.287 . S
C1767 C1768 1.524 . S
C1767 H1770 0.999 . S
C1768 H1738 0.950 . S
C1768 C1767 1.524 . S
C1768 C1769 1.415 . S
C1769 H1739 0.950 . S
C1769 C1764 1.363 . S
C1769 C1768 1.415 . S
H1770 C1767 0.999 . S
H1771 C1752 0.913 . S
H1772 C1790 0.951 . S
H1773 C1792 0.951 . S
H1774 C1794 0.950 . S
H1775 C1795 0.950 . S
H1776 C1797 0.950 . S
H1777 C1800 0.950 . S
H1778 C1801 0.950 . S
H1779 C1803 0.950 . S
H1780 C1804 0.950 . S
H1781 C1805 0.951 . S
H1782 C1807 0.951 . S
H1783 C1809 0.950 . S
H1784 C1810 0.950 . S
H1785 C1812 0.950 . S
H1786 C1815 0.950 . S
H1787 C1816 0.950 . S
H1788 C1818 0.950 . S
H1789 C1819 0.950 . S
C1790 H1772 0.951 . S
C1790 C1791 1.366 . S
C1790 C1792 1.388 . S
C1791 C1790 1.366 . S
C1791 C1795 1.385 . S
C1792 H1773 0.951 . S
C1792 C1790 1.388 . S
C1792 C1793 1.366 . S
C1793 C1792 1.366 . S
C1793 C1794 1.414 . S
C1793 C1796 1.499 . S
C1794 H1774 0.950 . S
C1794 C1793 1.414 . S
C1794 C1795 1.374 . S
C1795 H1775 0.950 . S
C1795 C1791 1.385 . S
C1795 C1794 1.374 . S
C1796 C1793 1.499 . S
C1796 C1797 1.373 . S
C1796 C1798 1.389 . S
C1797 H1776 0.950 . S
C1797 C1796 1.373 . S
C1797 C1813 1.377 . S
C1798 C1796 1.389 . S
C1798 C1799 1.524 . S
C1798 C1812 1.377 . S
C1799 C1798 1.524 . S
C1799 C1800 1.397 . S
C1799 C1804 1.363 . S
C1800 H1777 0.950 . S
C1800 C1799 1.397 . S
C1800 C1801 1.334 . S
C1801 H1778 0.950 . S
C1801 C1800 1.334 . S
C1801 C1802 1.287 . S
C1802 C1801 1.287 . S
C1802 C1803 1.524 . S
C1802 H1821 0.913 . S
C1803 H1779 0.950 . S
C1803 C1802 1.524 . S
C1803 C1804 1.415 . S
C1804 H1780 0.950 . S
C1804 C1799 1.363 . S
C1804 C1803 1.415 . S
C1805 H1781 0.951 . S
C1805 C1806 1.366 . S
C1805 C1807 1.388 . S
C1806 C1805 1.366 . S
C1806 C1810 1.385 . S
C1807 H1782 0.951 . S
C1807 C1805 1.388 . S
C1807 C1808 1.366 . S
C1808 C1807 1.366 . S
C1808 C1809 1.414 . S
C1808 C1811 1.499 . S
C1809 H1783 0.950 . S
C1809 C1808 1.414 . S
C1809 C1810 1.374 . S
C1810 H1784 0.950 . S
C1810 C1806 1.385 . S
C1810 C1809 1.374 . S
C1811 C1808 1.499 . S
C1811 C1812 1.373 . S
C1811 C1813 1.389 . S
C1812 H1785 0.950 . S
C1812 C1798 1.377 . S
C1812 C1811 1.373 . S
C1813 C1797 1.377 . S
C1813 C1811 1.389 . S
C1813 C1814 1.524 . S
C1814 C1813 1.524 . S
C1814 C1815 1.397 . S
C1814 C1819 1.363 . S
C1815 H1786 0.950 . S
C1815 C1814 1.397 . S
C1815 C1816 1.334 . S
C1816 H1787 0.950 . S
C1816 C1815 1.334 . S
C1816 C1817 1.287 . S
C1817 C1816 1.287 . S
C1817 C1818 1.524 . S
C1817 H1820 0.999 . S
C1818 H1788 0.950 . S
C1818 C1817 1.524 . S
C1818 C1819 1.415 . S
C1819 H1789 0.950 . S
C1819 C1814 1.363 . S
C1819 C1818 1.415 . S
H1820 C1817 0.999 . S
H1821 C1802 0.913 . S
H1822 C1840 0.951 . S
H1823 C1842 0.951 . S
H1824 C1844 0.950 . S
H1825 C1845 0.950 . S
H1826 C1847 0.950 . S
H1827 C1850 0.950 . S
H1828 C1851 0.950 . S
H1829 C1853 0.950 . S
H1830 C1854 0.950 . S
H1831 C1855 0.951 . S
H1832 C1857 0.951 . S
H1833 C1859 0.950 . S
H1834 C1860 0.950 . S
H1835 C1862 0.950 . S
H1836 C1865 0.950 . S
H1837 C1866 0.950 . S
H1838 C1868 0.950 . S
H1839 C1869 0.950 . S
C1840 H1822 0.951 . S
C1840 C1841 1.366 . S
C1840 C1842 1.388 . S
C1841 C1840 1.366 . S
C1841 C1845 1.385 . S
C1842 H1823 0.951 . S
C1842 C1840 1.388 . S
C1842 C1843 1.366 . S
C1843 C1842 1.366 . S
C1843 C1844 1.414 . S
C1843 C1846 1.499 . S
C1844 H1824 0.950 . S
C1844 C1843 1.414 . S
C1844 C1845 1.374 . S
C1845 H1825 0.950 . S
C1845 C1841 1.385 . S
C1845 C1844 1.374 . S
C1846 C1843 1.499 . S
C1846 C1847 1.373 . S
C1846 C1848 1.389 . S
C1847 H1826 0.950 . S
C1847 C1846 1.373 . S
C1847 C1863 1.377 . S
C1848 C1846 1.389 . S
C1848 C1849 1.524 . S
C1848 C1862 1.377 . S
C1849 C1848 1.524 . S
C1849 C1850 1.397 . S
C1849 C1854 1.363 . S
C1850 H1827 0.950 . S
C1850 C1849 1.397 . S
C1850 C1851 1.334 . S
C1851 H1828 0.950 . S
C1851 C1850 1.334 . S
C1851 C1852 1.287 . S
C1852 C1851 1.287 . S
C1852 C1853 1.524 . S
C1852 H1871 0.913 . S
C1853 H1829 0.950 . S
C1853 C1852 1.524 . S
C1853 C1854 1.415 . S
C1854 H1830 0.950 . S
C1854 C1849 1.363 . S
C1854 C1853 1.415 . S
C1855 H1831 0.951 . S
C1855 C1856 1.366 . S
C1855 C1857 1.388 . S
C1856 C1855 1.366 . S
C1856 C1860 1.385 . S
C1857 H1832 0.951 . S
C1857 C1855 1.388 . S
C1857 C1858 1.366 . S
C1858 C1857 1.366 . S
C1858 C1859 1.414 . S
C1858 C1861 1.499 . S
C1859 H1833 0.950 . S
C1859 C1858 1.414 . S
C1859 C1860 1.374 . S
C1860 H1834 0.950 . S
C1860 C1856 1.385 . S
C1860 C1859 1.374 . S
C1861 C1858 1.499 . S
C1861 C1862 1.373 . S
C1861 C1863 1.389 . S
C1862 H1835 0.950 . S
C1862 C1848 1.377 . S
C1862 C1861 1.373 . S
C1863 C1847 1.377 . S
C1863 C1861 1.389 . S
C1863 C1864 1.524 . S
C1864 C1863 1.524 . S
C1864 C1865 1.397 . S
C1864 C1869 1.363 . S
C1865 H1836 0.950 . S
C1865 C1864 1.397 . S
C1865 C1866 1.334 . S
C1866 H1837 0.950 . S
C1866 C1865 1.334 . S
C1866 C1867 1.287 . S
C1867 C1866 1.287 . S
C1867 C1868 1.524 . S
C1867 H1870 0.999 . S
C1868 H1838 0.950 . S
C1868 C1867 1.524 . S
C1868 C1869 1.415 . S
C1869 H1839 0.950 . S
C1869 C1864 1.363 . S
C1869 C1868 1.415 . S
H1870 C1867 0.999 . S
H1871 C1852 0.913 . S
H1872 C1890 0.951 . S
H1873 C1892 0.951 . S
H1874 C1894 0.950 . S
H1875 C1895 0.950 . S
H1876 C1897 0.950 . S
H1877 C1900 0.950 . S
H1878 C1901 0.950 . S
H1879 C1903 0.950 . S
H1880 C1904 0.950 . S
H1881 C1905 0.951 . S
H1882 C1907 0.951 . S
H1883 C1909 0.950 . S
H1884 C1910 0.950 . S
H1885 C1912 0.950 . S
H1886 C1915 0.950 . S
H1887 C1916 0.950 . S
H1888 C1918 0.950 . S
H1889 C1919 0.950 . S
C1890 H1872 0.951 . S
C1890 C1891 1.366 . S
C1890 C1892 1.388 . S
C1891 C1890 1.366 . S
C1891 C1895 1.385 . S
C1892 H1873 0.951 . S
C1892 C1890 1.388 . S
C1892 C1893 1.366 . S
C1893 C1892 1.366 . S
C1893 C1894 1.414 . S
C1893 C1896 1.499 . S
C1894 H1874 0.950 . S
C1894 C1893 1.414 . S
C1894 C1895 1.374 . S
C1895 H1875 0.950 . S
C1895 C1891 1.385 . S
C1895 C1894 1.374 . S
C1896 C1893 1.499 . S
C1896 C1897 1.373 . S
C1896 C1898 1.389 . S
C1897 H1876 0.950 . S
C1897 C1896 1.373 . S
C1897 C1913 1.377 . S
C1898 C1896 1.389 . S
C1898 C1899 1.524 . S
C1898 C1912 1.377 . S
C1899 C1898 1.524 . S
C1899 C1900 1.397 . S
C1899 C1904 1.363 . S
C1900 H1877 0.950 . S
C1900 C1899 1.397 . S
C1900 C1901 1.334 . S
C1901 H1878 0.950 . S
C1901 C1900 1.334 . S
C1901 C1902 1.287 . S
C1902 C1901 1.287 . S
C1902 C1903 1.524 . S
C1902 H1921 0.913 . S
C1903 H1879 0.950 . S
C1903 C1902 1.524 . S
C1903 C1904 1.415 . S
C1904 H1880 0.950 . S
C1904 C1899 1.363 . S
C1904 C1903 1.415 . S
C1905 H1881 0.951 . S
C1905 C1906 1.366 . S
C1905 C1907 1.388 . S
C1906 C1905 1.366 . S
C1906 C1910 1.385 . S
C1907 H1882 0.951 . S
C1907 C1905 1.388 . S
C1907 C1908 1.366 . S
C1908 C1907 1.366 . S
C1908 C1909 1.414 . S
C1908 C1911 1.499 . S
C1909 H1883 0.950 . S
C1909 C1908 1.414 . S
C1909 C1910 1.374 . S
C1910 H1884 0.950 . S
C1910 C1906 1.385 . S
C1910 C1909 1.374 . S
C1911 C1908 1.499 . S
C1911 C1912 1.373 . S
C1911 C1913 1.389 . S
C1912 H1885 0.950 . S
C1912 C1898 1.377 . S
C1912 C1911 1.373 . S
C1913 C1897 1.377 . S
C1913 C1911 1.389 . S
C1913 C1914 1.524 . S
C1914 C1913 1.524 . S
C1914 C1915 1.397 . S
C1914 C1919 1.363 . S
C1915 H1886 0.950 . S
C1915 C1914 1.397 . S
C1915 C1916 1.334 . S
C1916 H1887 0.950 . S
C1916 C1915 1.334 . S
C1916 C1917 1.287 . S
C1917 C1916 1.287 . S
C1917 C1918 1.524 . S
C1917 H1920 0.999 . S
C1918 H1888 0.950 . S
C1918 C1917 1.524 . S
C1918 C1919 1.415 . S
C1919 H1889 0.950 . S
C1919 C1914 1.363 . S
C1919 C1918 1.415 . S
H1920 C1917 0.999 . S
H1921 C1902 0.913 . S
H1922 C1940 0.951 . S
H1923 C1942 0.951 . S
H1924 C1944 0.950 . S
H1925 C1945 0.950 . S
H1926 C1947 0.950 . S
H1927 C1950 0.950 . S
H1928 C1951 0.950 . S
H1929 C1953 0.950 . S
H1930 C1954 0.950 . S
H1931 C1955 0.951 . S
H1932 C1957 0.951 . S
H1933 C1959 0.950 . S
H1934 C1960 0.950 . S
H1935 C1962 0.950 . S
H1936 C1965 0.950 . S
H1937 C1966 0.950 . S
H1938 C1968 0.950 . S
H1939 C1969 0.950 . S
C1940 H1922 0.951 . S
C1940 C1941 1.366 . S
C1940 C1942 1.388 . S
C1941 C1940 1.366 . S
C1941 C1945 1.385 . S
C1942 H1923 0.951 . S
C1942 C1940 1.388 . S
C1942 C1943 1.366 . S
C1943 C1942 1.366 . S
C1943 C1944 1.414 . S
C1943 C1946 1.499 . S
C1944 H1924 0.950 . S
C1944 C1943 1.414 . S
C1944 C1945 1.374 . S
C1945 H1925 0.950 . S
C1945 C1941 1.385 . S
C1945 C1944 1.374 . S
C1946 C1943 1.499 . S
C1946 C1947 1.373 . S
C1946 C1948 1.389 . S
C1947 H1926 0.950 . S
C1947 C1946 1.373 . S
C1947 C1963 1.377 . S
C1948 C1946 1.389 . S
C1948 C1949 1.524 . S
C1948 C1962 1.377 . S
C1949 C1948 1.524 . S
C1949 C1950 1.397 . S
C1949 C1954 1.363 . S
C1950 H1927 0.950 . S
C1950 C1949 1.397 . S
C1950 C1951 1.334 . S
C1951 H1928 0.950 . S
C1951 C1950 1.334 . S
C1951 C1952 1.287 . S
C1952 C1951 1.287 . S
C1952 C1953 1.524 . S
C1952 H1971 0.913 . S
C1953 H1929 0.950 . S
C1953 C1952 1.524 . S
C1953 C1954 1.415 . S
C1954 H1930 0.950 . S
C1954 C1949 1.363 . S
C1954 C1953 1.415 . S
C1955 H1931 0.951 . S
C1955 C1956 1.366 . S
C1955 C1957 1.388 . S
C1956 C1955 1.366 . S
C1956 C1960 1.385 . S
C1957 H1932 0.951 . S
C1957 C1955 1.388 . S
C1957 C1958 1.366 . S
C1958 C1957 1.366 . S
C1958 C1959 1.414 . S
C1958 C1961 1.499 . S
C1959 H1933 0.950 . S
C1959 C1958 1.414 . S
C1959 C1960 1.374 . S
C1960 H1934 0.950 . S
C1960 C1956 1.385 . S
C1960 C1959 1.374 . S
C1961 C1958 1.499 . S
C1961 C1962 1.373 . S
C1961 C1963 1.389 . S
C1962 H1935 0.950 . S
C1962 C1948 1.377 . S
C1962 C1961 1.373 . S
C1963 C1947 1.377 . S
C1963 C1961 1.389 . S
C1963 C1964 1.524 . S
C1964 C1963 1.524 . S
C1964 C1965 1.397 . S
C1964 C1969 1.363 . S
C1965 H1936 0.950 . S
C1965 C1964 1.397 . S
C1965 C1966 1.334 . S
C1966 H1937 0.950 . S
C1966 C1965 1.334 . S
C1966 C1967 1.287 . S
C1967 C1966 1.287 . S
C1967 C1968 1.524 . S
C1967 H1970 0.999 . S
C1968 H1938 0.950 . S
C1968 C1967 1.524 . S
C1968 C1969 1.415 . S
C1969 H1939 0.950 . S
C1969 C1964 1.363 . S
C1969 C1968 1.415 . S
H1970 C1967 0.999 . S
H1971 C1952 0.913 . S
H1972 C1990 0.951 . S
H1973 C1992 0.951 . S
H1974 C1994 0.950 . S
H1975 C1995 0.950 . S
H1976 C1997 0.950 . S
H1977 C2000 0.950 . S
H1978 C2001 0.950 . S
H1979 C2003 0.950 . S
H1980 C2004 0.950 . S
H1981 C2005 0.951 . S
H1982 C2007 0.951 . S
H1983 C2009 0.950 . S
H1984 C2010 0.950 . S
H1985 C2012 0.950 . S
H1986 C2015 0.950 . S
H1987 C2016 0.950 . S
H1988 C2018 0.950 . S
H1989 C2019 0.950 . S
C1990 H1972 0.951 . S
C1990 C1991 1.366 . S
C1990 C1992 1.388 . S
C1991 C1990 1.366 . S
C1991 C1995 1.385 . S
C1992 H1973 0.951 . S
C1992 C1990 1.388 . S
C1992 C1993 1.366 . S
C1993 C1992 1.366 . S
C1993 C1994 1.414 . S
C1993 C1996 1.499 . S
C1994 H1974 0.950 . S
C1994 C1993 1.414 . S
C1994 C1995 1.374 . S
C1995 H1975 0.950 . S
C1995 C1991 1.385 . S
C1995 C1994 1.374 . S
C1996 C1993 1.499 . S
C1996 C1997 1.373 . S
C1996 C1998 1.389 . S
C1997 H1976 0.950 . S
C1997 C1996 1.373 . S
C1997 C2013 1.377 . S
C1998 C1996 1.389 . S
C1998 C1999 1.524 . S
C1998 C2012 1.377 . S
C1999 C1998 1.524 . S
C1999 C2000 1.397 . S
C1999 C2004 1.363 . S
C2000 H1977 0.950 . S
C2000 C1999 1.397 . S
C2000 C2001 1.334 . S
C2001 H1978 0.950 . S
C2001 C2000 1.334 . S
C2001 C2002 1.287 . S
C2002 C2001 1.287 . S
C2002 C2003 1.524 . S
C2002 H2021 0.913 . S
C2003 H1979 0.950 . S
C2003 C2002 1.524 . S
C2003 C2004 1.415 . S
C2004 H1980 0.950 . S
C2004 C1999 1.363 . S
C2004 C2003 1.415 . S
C2005 H1981 0.951 . S
C2005 C2006 1.366 . S
C2005 C2007 1.388 . S
C2006 C2005 1.366 . S
C2006 C2010 1.385 . S
C2007 H1982 0.951 . S
C2007 C2005 1.388 . S
C2007 C2008 1.366 . S
C2008 C2007 1.366 . S
C2008 C2009 1.414 . S
C2008 C2011 1.499 . S
C2009 H1983 0.950 . S
C2009 C2008 1.414 . S
C2009 C2010 1.374 . S
C2010 H1984 0.950 . S
C2010 C2006 1.385 . S
C2010 C2009 1.374 . S
C2011 C2008 1.499 . S
C2011 C2012 1.373 . S
C2011 C2013 1.389 . S
C2012 H1985 0.950 . S
C2012 C1998 1.377 . S
C2012 C2011 1.373 . S
C2013 C1997 1.377 . S
C2013 C2011 1.389 . S
C2013 C2014 1.524 . S
C2014 C2013 1.524 . S
C2014 C2015 1.397 . S
C2014 C2019 1.363 . S
C2015 H1986 0.950 . S
C2015 C2014 1.397 . S
C2015 C2016 1.334 . S
C2016 H1987 0.950 . S
C2016 C2015 1.334 . S
C2016 C2017 1.287 . S
C2017 C2016 1.287 . S
C2017 C2018 1.524 . S
C2017 H2020 0.999 . S
C2018 H1988 0.950 . S
C2018 C2017 1.524 . S
C2018 C2019 1.415 . S
C2019 H1989 0.950 . S
C2019 C2014 1.363 . S
C2019 C2018 1.415 . S
H2020 C2017 0.999 . S
H2021 C2002 0.913 . S
C841 C7 1.992 . S
C856 C167 1.802 . S
C891 C30 1.823 . S
C906 C307 1.561 . S
C956 C395 1.615 . S
C941 N58 1.753 . S
C1006 C535 1.419 . S
C991 N81 1.605 . S
C1056 C649 1.650 . S
C1041 C99 1.927 . S
C1106 C719 0.853 . S
C1091 N127 1.612 . S
C1141 N25 1.834 . S
C1156 C377 1.016 . S
C1191 C62 1.628 1_556 S
C1206 C481 1.146 . S
C1256 C595 1.354 . S
C1241 C85 1.846 . S
C1306 C737 1.440 . S
C1291 N94 1.564 . S
C1341 C131 2.073 . S
C1356 C149 1.134 . S
C1406 C253 1.061 . S
C1391 N2 1.428 . S
C1456 C491 1.541 . S
C1441 C16 2.080 . S
C1491 C39 1.821 . S
C1506 C605 1.362 . S
C1556 C763 1.315 . S
C1541 N48 1.987 . S
C1591 N71 1.559 . S
C1606 C139 1.366 . S
C1641 C108 2.144 . S
C1656 C263 1.603 . S
C1691 N117 1.529 . S
C1706 C367 1.381 . S
C1741 N35 1.814 . S
C1756 C709 1.622 . S
C1806 C193 1.211 . S
C1791 C53 1.886 . S
C1841 C76 1.990 . S
C1856 C281 1.433 . S
C1891 N104 1.711 . S
C1906 C421 1.064 . S
C1941 C122 1.886 . S
C1956 C509 1.395 . S
C1991 N12 1.601 . S
C2006 C623 1.195 . S
