# Generated by pormake.
# Topology tbo, (3,4)-cn, num edge types: 1
# Building blocks:
#     Node 0, Type 0, BuildingBlock: BETDIP_clean_linker_0, # of connection points: 3
#     Node 1, Type 0, BuildingBlock: BETDIP_clean_linker_0, # of connection points: 3
#     Node 2, Type 0, BuildingBlock: BETDIP_clean_linker_0, # of connection points: 3
#     Node 3, Type 0, BuildingBlock: BETDIP_clean_linker_0, # of connection points: 3
#     Node 4, Type 0, BuildingBlock: BETDIP_clean_linker_0, # of connection points: 3
#     Node 5, Type 0, BuildingBlock: BETDIP_clean_linker_0, # of connection points: 3
#     Node 6, Type 0, BuildingBlock: BETDIP_clean_linker_0, # of connection points: 3
#     Node 7, Type 0, BuildingBlock: BETDIP_clean_linker_0, # of connection points: 3
#     Node 8, Type 0, BuildingBlock: BETDIP_clean_linker_0, # of connection points: 3
#     Node 9, Type 0, BuildingBlock: BETDIP_clean_linker_0, # of connection points: 3
#     Node 10, Type 0, BuildingBlock: BETDIP_clean_linker_0, # of connection points: 3
#     Node 11, Type 0, BuildingBlock: BETDIP_clean_linker_0, # of connection points: 3
#     Node 12, Type 0, BuildingBlock: BETDIP_clean_linker_0, # of connection points: 3
#     Node 13, Type 0, BuildingBlock: BETDIP_clean_linker_0, # of connection points: 3
#     Node 14, Type 0, BuildingBlock: BETDIP_clean_linker_0, # of connection points: 3
#     Node 15, Type 0, BuildingBlock: BETDIP_clean_linker_0, # of connection points: 3
#     Node 16, Type 0, BuildingBlock: BETDIP_clean_linker_0, # of connection points: 3
#     Node 17, Type 0, BuildingBlock: BETDIP_clean_linker_0, # of connection points: 3
#     Node 18, Type 0, BuildingBlock: BETDIP_clean_linker_0, # of connection points: 3
#     Node 19, Type 0, BuildingBlock: BETDIP_clean_linker_0, # of connection points: 3
#     Node 20, Type 0, BuildingBlock: BETDIP_clean_linker_0, # of connection points: 3
#     Node 21, Type 0, BuildingBlock: BETDIP_clean_linker_0, # of connection points: 3
#     Node 22, Type 0, BuildingBlock: BETDIP_clean_linker_0, # of connection points: 3
#     Node 23, Type 0, BuildingBlock: BETDIP_clean_linker_0, # of connection points: 3
#     Node 24, Type 0, BuildingBlock: BETDIP_clean_linker_0, # of connection points: 3
#     Node 25, Type 0, BuildingBlock: BETDIP_clean_linker_0, # of connection points: 3
#     Node 26, Type 0, BuildingBlock: BETDIP_clean_linker_0, # of connection points: 3
#     Node 27, Type 0, BuildingBlock: BETDIP_clean_linker_0, # of connection points: 3
#     Node 28, Type 0, BuildingBlock: BETDIP_clean_linker_0, # of connection points: 3
#     Node 29, Type 0, BuildingBlock: BETDIP_clean_linker_0, # of connection points: 3
#     Node 30, Type 0, BuildingBlock: BETDIP_clean_linker_0, # of connection points: 3
#     Node 31, Type 0, BuildingBlock: BETDIP_clean_linker_0, # of connection points: 3
#     Node 32, Type 1, BuildingBlock: ESEHIV_clean_sbu_0, # of connection points: 4
#     Node 33, Type 1, BuildingBlock: ESEHIV_clean_sbu_0, # of connection points: 4
#     Node 34, Type 1, BuildingBlock: ESEHIV_clean_sbu_0, # of connection points: 4
#     Node 35, Type 1, BuildingBlock: ESEHIV_clean_sbu_0, # of connection points: 4
#     Node 36, Type 1, BuildingBlock: ESEHIV_clean_sbu_0, # of connection points: 4
#     Node 37, Type 1, BuildingBlock: ESEHIV_clean_sbu_0, # of connection points: 4
#     Node 38, Type 1, BuildingBlock: ESEHIV_clean_sbu_0, # of connection points: 4
#     Node 39, Type 1, BuildingBlock: ESEHIV_clean_sbu_0, # of connection points: 4
#     Node 40, Type 1, BuildingBlock: ESEHIV_clean_sbu_0, # of connection points: 4
#     Node 41, Type 1, BuildingBlock: ESEHIV_clean_sbu_0, # of connection points: 4
#     Node 42, Type 1, BuildingBlock: ESEHIV_clean_sbu_0, # of connection points: 4
#     Node 43, Type 1, BuildingBlock: ESEHIV_clean_sbu_0, # of connection points: 4
#     Node 44, Type 1, BuildingBlock: ESEHIV_clean_sbu_0, # of connection points: 4
#     Node 45, Type 1, BuildingBlock: ESEHIV_clean_sbu_0, # of connection points: 4
#     Node 46, Type 1, BuildingBlock: ESEHIV_clean_sbu_0, # of connection points: 4
#     Node 47, Type 1, BuildingBlock: ESEHIV_clean_sbu_0, # of connection points: 4
#     Node 48, Type 1, BuildingBlock: ESEHIV_clean_sbu_0, # of connection points: 4
#     Node 49, Type 1, BuildingBlock: ESEHIV_clean_sbu_0, # of connection points: 4
#     Node 50, Type 1, BuildingBlock: ESEHIV_clean_sbu_0, # of connection points: 4
#     Node 51, Type 1, BuildingBlock: ESEHIV_clean_sbu_0, # of connection points: 4
#     Node 52, Type 1, BuildingBlock: ESEHIV_clean_sbu_0, # of connection points: 4
#     Node 53, Type 1, BuildingBlock: ESEHIV_clean_sbu_0, # of connection points: 4
#     Node 54, Type 1, BuildingBlock: ESEHIV_clean_sbu_0, # of connection points: 4
#     Node 55, Type 1, BuildingBlock: ESEHIV_clean_sbu_0, # of connection points: 4
#     Edge 56, Type (0, 1), BuildingBlock: OJICUG_clean_linker_0, # of connection points: 2
#     Edge 57, Type (0, 1), BuildingBlock: OJICUG_clean_linker_0, # of connection points: 2
#     Edge 58, Type (0, 1), BuildingBlock: OJICUG_clean_linker_0, # of connection points: 2
#     Edge 59, Type (0, 1), BuildingBlock: OJICUG_clean_linker_0, # of connection points: 2
#     Edge 60, Type (0, 1), BuildingBlock: OJICUG_clean_linker_0, # of connection points: 2
#     Edge 61, Type (0, 1), BuildingBlock: OJICUG_clean_linker_0, # of connection points: 2
#     Edge 62, Type (0, 1), BuildingBlock: OJICUG_clean_linker_0, # of connection points: 2
#     Edge 63, Type (0, 1), BuildingBlock: OJICUG_clean_linker_0, # of connection points: 2
#     Edge 64, Type (0, 1), BuildingBlock: OJICUG_clean_linker_0, # of connection points: 2
#     Edge 65, Type (0, 1), BuildingBlock: OJICUG_clean_linker_0, # of connection points: 2
#     Edge 66, Type (0, 1), BuildingBlock: OJICUG_clean_linker_0, # of connection points: 2
#     Edge 67, Type (0, 1), BuildingBlock: OJICUG_clean_linker_0, # of connection points: 2
#     Edge 68, Type (0, 1), BuildingBlock: OJICUG_clean_linker_0, # of connection points: 2
#     Edge 69, Type (0, 1), BuildingBlock: OJICUG_clean_linker_0, # of connection points: 2
#     Edge 70, Type (0, 1), BuildingBlock: OJICUG_clean_linker_0, # of connection points: 2
#     Edge 71, Type (0, 1), BuildingBlock: OJICUG_clean_linker_0, # of connection points: 2
#     Edge 72, Type (0, 1), BuildingBlock: OJICUG_clean_linker_0, # of connection points: 2
#     Edge 73, Type (0, 1), BuildingBlock: OJICUG_clean_linker_0, # of connection points: 2
#     Edge 74, Type (0, 1), BuildingBlock: OJICUG_clean_linker_0, # of connection points: 2
#     Edge 75, Type (0, 1), BuildingBlock: OJICUG_clean_linker_0, # of connection points: 2
#     Edge 76, Type (0, 1), BuildingBlock: OJICUG_clean_linker_0, # of connection points: 2
#     Edge 77, Type (0, 1), BuildingBlock: OJICUG_clean_linker_0, # of connection points: 2
#     Edge 78, Type (0, 1), BuildingBlock: OJICUG_clean_linker_0, # of connection points: 2
#     Edge 79, Type (0, 1), BuildingBlock: OJICUG_clean_linker_0, # of connection points: 2
#     Edge 80, Type (0, 1), BuildingBlock: OJICUG_clean_linker_0, # of connection points: 2
#     Edge 81, Type (0, 1), BuildingBlock: OJICUG_clean_linker_0, # of connection points: 2
#     Edge 82, Type (0, 1), BuildingBlock: OJICUG_clean_linker_0, # of connection points: 2
#     Edge 83, Type (0, 1), BuildingBlock: OJICUG_clean_linker_0, # of connection points: 2
#     Edge 84, Type (0, 1), BuildingBlock: OJICUG_clean_linker_0, # of connection points: 2
#     Edge 85, Type (0, 1), BuildingBlock: OJICUG_clean_linker_0, # of connection points: 2
#     Edge 86, Type (0, 1), BuildingBlock: OJICUG_clean_linker_0, # of connection points: 2
#     Edge 87, Type (0, 1), BuildingBlock: OJICUG_clean_linker_0, # of connection points: 2
#     Edge 88, Type (0, 1), BuildingBlock: OJICUG_clean_linker_0, # of connection points: 2
#     Edge 89, Type (0, 1), BuildingBlock: OJICUG_clean_linker_0, # of connection points: 2
#     Edge 90, Type (0, 1), BuildingBlock: OJICUG_clean_linker_0, # of connection points: 2
#     Edge 91, Type (0, 1), BuildingBlock: OJICUG_clean_linker_0, # of connection points: 2
#     Edge 92, Type (0, 1), BuildingBlock: OJICUG_clean_linker_0, # of connection points: 2
#     Edge 93, Type (0, 1), BuildingBlock: OJICUG_clean_linker_0, # of connection points: 2
#     Edge 94, Type (0, 1), BuildingBlock: OJICUG_clean_linker_0, # of connection points: 2
#     Edge 95, Type (0, 1), BuildingBlock: OJICUG_clean_linker_0, # of connection points: 2
#     Edge 96, Type (0, 1), BuildingBlock: OJICUG_clean_linker_0, # of connection points: 2
#     Edge 97, Type (0, 1), BuildingBlock: OJICUG_clean_linker_0, # of connection points: 2
#     Edge 98, Type (0, 1), BuildingBlock: OJICUG_clean_linker_0, # of connection points: 2
#     Edge 99, Type (0, 1), BuildingBlock: OJICUG_clean_linker_0, # of connection points: 2
#     Edge 100, Type (0, 1), BuildingBlock: OJICUG_clean_linker_0, # of connection points: 2
#     Edge 101, Type (0, 1), BuildingBlock: OJICUG_clean_linker_0, # of connection points: 2
#     Edge 102, Type (0, 1), BuildingBlock: OJICUG_clean_linker_0, # of connection points: 2
#     Edge 103, Type (0, 1), BuildingBlock: OJICUG_clean_linker_0, # of connection points: 2
#     Edge 104, Type (0, 1), BuildingBlock: OJICUG_clean_linker_0, # of connection points: 2
#     Edge 105, Type (0, 1), BuildingBlock: OJICUG_clean_linker_0, # of connection points: 2
#     Edge 106, Type (0, 1), BuildingBlock: OJICUG_clean_linker_0, # of connection points: 2
#     Edge 107, Type (0, 1), BuildingBlock: OJICUG_clean_linker_0, # of connection points: 2
#     Edge 108, Type (0, 1), BuildingBlock: OJICUG_clean_linker_0, # of connection points: 2
#     Edge 109, Type (0, 1), BuildingBlock: OJICUG_clean_linker_0, # of connection points: 2
#     Edge 110, Type (0, 1), BuildingBlock: OJICUG_clean_linker_0, # of connection points: 2
#     Edge 111, Type (0, 1), BuildingBlock: OJICUG_clean_linker_0, # of connection points: 2
#     Edge 112, Type (0, 1), BuildingBlock: OJICUG_clean_linker_0, # of connection points: 2
#     Edge 113, Type (0, 1), BuildingBlock: OJICUG_clean_linker_0, # of connection points: 2
#     Edge 114, Type (0, 1), BuildingBlock: OJICUG_clean_linker_0, # of connection points: 2
#     Edge 115, Type (0, 1), BuildingBlock: OJICUG_clean_linker_0, # of connection points: 2
#     Edge 116, Type (0, 1), BuildingBlock: OJICUG_clean_linker_0, # of connection points: 2
#     Edge 117, Type (0, 1), BuildingBlock: OJICUG_clean_linker_0, # of connection points: 2
#     Edge 118, Type (0, 1), BuildingBlock: OJICUG_clean_linker_0, # of connection points: 2
#     Edge 119, Type (0, 1), BuildingBlock: OJICUG_clean_linker_0, # of connection points: 2
#     Edge 120, Type (0, 1), BuildingBlock: OJICUG_clean_linker_0, # of connection points: 2
#     Edge 121, Type (0, 1), BuildingBlock: OJICUG_clean_linker_0, # of connection points: 2
#     Edge 122, Type (0, 1), BuildingBlock: OJICUG_clean_linker_0, # of connection points: 2
#     Edge 123, Type (0, 1), BuildingBlock: OJICUG_clean_linker_0, # of connection points: 2
#     Edge 124, Type (0, 1), BuildingBlock: OJICUG_clean_linker_0, # of connection points: 2
#     Edge 125, Type (0, 1), BuildingBlock: OJICUG_clean_linker_0, # of connection points: 2
#     Edge 126, Type (0, 1), BuildingBlock: OJICUG_clean_linker_0, # of connection points: 2
#     Edge 127, Type (0, 1), BuildingBlock: OJICUG_clean_linker_0, # of connection points: 2
#     Edge 128, Type (0, 1), BuildingBlock: OJICUG_clean_linker_0, # of connection points: 2
#     Edge 129, Type (0, 1), BuildingBlock: OJICUG_clean_linker_0, # of connection points: 2
#     Edge 130, Type (0, 1), BuildingBlock: OJICUG_clean_linker_0, # of connection points: 2
#     Edge 131, Type (0, 1), BuildingBlock: OJICUG_clean_linker_0, # of connection points: 2
#     Edge 132, Type (0, 1), BuildingBlock: OJICUG_clean_linker_0, # of connection points: 2
#     Edge 133, Type (0, 1), BuildingBlock: OJICUG_clean_linker_0, # of connection points: 2
#     Edge 134, Type (0, 1), BuildingBlock: OJICUG_clean_linker_0, # of connection points: 2
#     Edge 135, Type (0, 1), BuildingBlock: OJICUG_clean_linker_0, # of connection points: 2
#     Edge 136, Type (0, 1), BuildingBlock: OJICUG_clean_linker_0, # of connection points: 2
#     Edge 137, Type (0, 1), BuildingBlock: OJICUG_clean_linker_0, # of connection points: 2
#     Edge 138, Type (0, 1), BuildingBlock: OJICUG_clean_linker_0, # of connection points: 2
#     Edge 139, Type (0, 1), BuildingBlock: OJICUG_clean_linker_0, # of connection points: 2
#     Edge 140, Type (0, 1), BuildingBlock: OJICUG_clean_linker_0, # of connection points: 2
#     Edge 141, Type (0, 1), BuildingBlock: OJICUG_clean_linker_0, # of connection points: 2
#     Edge 142, Type (0, 1), BuildingBlock: OJICUG_clean_linker_0, # of connection points: 2
#     Edge 143, Type (0, 1), BuildingBlock: OJICUG_clean_linker_0, # of connection points: 2
#     Edge 144, Type (0, 1), BuildingBlock: OJICUG_clean_linker_0, # of connection points: 2
#     Edge 145, Type (0, 1), BuildingBlock: OJICUG_clean_linker_0, # of connection points: 2
#     Edge 146, Type (0, 1), BuildingBlock: OJICUG_clean_linker_0, # of connection points: 2
#     Edge 147, Type (0, 1), BuildingBlock: OJICUG_clean_linker_0, # of connection points: 2
#     Edge 148, Type (0, 1), BuildingBlock: OJICUG_clean_linker_0, # of connection points: 2
#     Edge 149, Type (0, 1), BuildingBlock: OJICUG_clean_linker_0, # of connection points: 2
#     Edge 150, Type (0, 1), BuildingBlock: OJICUG_clean_linker_0, # of connection points: 2
#     Edge 151, Type (0, 1), BuildingBlock: OJICUG_clean_linker_0, # of connection points: 2
# Relax obj value: 0.052
# Max RMSD: 0.179
# Mean RMSD: 0.121
data_MOF--net-tbo--node1-ESEHIV_clean_sbu_0--node2-BETDIP_clean_linker_0--edge1-OJICUG_clean_linker_0
_symmetry_space_group_name_H-M    P1
_symmetry_Int_Tables_number       1
_symmetry_cell_setting            triclinic
loop_
_symmetry_equiv_pos_as_xyz
'x, y, z'
_cell_length_a     51.771407
_cell_length_b     50.73297
_cell_length_c     54.95803
_cell_angle_alpha  95.913838
_cell_angle_beta   86.851154
_cell_angle_gamma 101.04929
loop_
_atom_site_label
_atom_site_type_symbol
_atom_site_fract_x
_atom_site_fract_y
_atom_site_fract_z
_atom_type_partial_charge
H0 H 0.14378 0.16908 0.24022 0.0
H1 H 0.20558 0.18367 0.18527 0.0
H2 H 0.15638 0.2422 0.20382 0.0
H3 H 0.21466 0.14523 0.19183 0.0
C4 C 0.20329 0.13679 0.20728 0.0
C5 C 0.15455 0.18219 0.22726 0.0
C6 C 0.14712 0.20691 0.22407 0.0
C7 C 0.17574 0.1737 0.21379 0.0
C8 C 0.18948 0.18994 0.1962 0.0
C9 C 0.18217 0.21441 0.19218 0.0
C10 C 0.1612 0.22284 0.20634 0.0
N11 N 0.18262 0.14895 0.21889 0.0
H12 H 0.91466 0.27429 0.16905 0.0
H13 H 0.8584 0.19942 0.1664 0.0
H14 H 0.91228 0.22125 0.22533 0.0
H15 H 0.83457 0.22876 0.14504 0.0
C16 C 0.85096 0.23794 0.13364 0.0
C17 C 0.90591 0.25581 0.177 0.0
C18 C 0.91535 0.25003 0.19884 0.0
C19 C 0.88482 0.23816 0.16555 0.0
C20 C 0.87388 0.21371 0.17564 0.0
C21 C 0.88438 0.20714 0.19695 0.0
C22 C 0.90451 0.22583 0.20864 0.0
N23 N 0.8767 0.24495 0.14304 0.0
H24 H 0.88357 0.85677 0.18071 0.0
H25 H 0.87599 0.91794 0.23951 0.0
H26 H 0.82731 0.90845 0.17705 0.0
H27 H 0.92253 0.85791 0.19611 0.0
C28 C 0.92116 0.86341 0.21568 0.0
C29 C 0.87451 0.87327 0.18874 0.0
C30 C 0.85494 0.88126 0.17582 0.0
C31 C 0.88229 0.88657 0.21177 0.0
C32 C 0.86977 0.90766 0.22195 0.0
C33 C 0.85009 0.91609 0.20947 0.0
C34 C 0.84289 0.90265 0.18646 0.0
N35 N 0.90225 0.87922 0.22539 0.0
H36 H 0.15545 0.77948 0.14714 0.0
H37 H 0.2302 0.83363 0.14189 0.0
H38 H 0.16963 0.85419 0.19289 0.0
H39 H 0.16624 0.76595 0.10797 0.0
C40 C 0.1874 0.76707 0.10782 0.0
C41 C 0.16829 0.79839 0.15258 0.0
C42 C 0.15946 0.81634 0.17079 0.0
C43 C 0.19372 0.80481 0.14183 0.0
C44 C 0.21045 0.82896 0.14992 0.0
C45 C 0.20188 0.84686 0.16842 0.0
C46 C 0.17632 0.84045 0.17855 0.0
N47 N 0.20335 0.78719 0.12329 0.0
H48 H 0.17782 0.85269 0.87668 0.0
H49 H 0.23997 0.92203 0.87352 0.0
H50 H 0.17625 0.91048 0.82476 0.0
H51 H 0.25908 0.90526 0.90047 0.0
C52 C 0.24795 0.88619 0.90563 0.0
C53 C 0.18645 0.87109 0.86857 0.0
C54 C 0.1737 0.8797 0.84959 0.0
C55 C 0.21052 0.88578 0.87723 0.0
C56 C 0.22167 0.91 0.86711 0.0
C57 C 0.20901 0.91919 0.84855 0.0
C58 C 0.18522 0.90391 0.83985 0.0
N59 N 0.22294 0.87508 0.89558 0.0
H60 H 0.24479 0.23733 0.94293 0.0
H61 H 0.25399 0.20232 0.8694 0.0
H62 H 0.30212 0.18621 0.92573 0.0
H63 H 0.23771 0.23771 0.85966 0.0
C64 C 0.2236 0.24145 0.87436 0.0
C65 C 0.25469 0.22495 0.92967 0.0
C66 C 0.27425 0.21215 0.93729 0.0
C67 C 0.24786 0.22234 0.90516 0.0
C68 C 0.26031 0.20581 0.88807 0.0
C69 C 0.28007 0.19264 0.89509 0.0
C70 C 0.28706 0.19611 0.91991 0.0
N71 N 0.2278 0.23584 0.89858 0.0
H72 H 0.88139 0.20271 0.88139 0.0
H73 H 0.95388 0.25534 0.86437 0.0
H74 H 0.94125 0.17244 0.83483 0.0
H75 H 0.94478 0.27818 0.90012 0.0
C76 C 0.92347 0.27524 0.90203 0.0
C77 C 0.90079 0.20557 0.87247 0.0
C78 C 0.9092 0.18414 0.85788 0.0
C79 C 0.91698 0.23099 0.87551 0.0
C80 C 0.94153 0.23549 0.86302 0.0
C81 C 0.95022 0.21441 0.84829 0.0
C82 C 0.93429 0.18867 0.84609 0.0
N83 N 0.90755 0.2516 0.89088 0.0
H84 H 0.82986 0.87757 0.88703 0.0
H85 H 0.89081 0.86723 0.83288 0.0
H86 H 0.88507 0.82746 0.89932 0.0
H87 H 0.88078 0.90722 0.82027 0.0
C88 C 0.85993 0.90588 0.82487 0.0
C89 C 0.84709 0.86898 0.88125 0.0
C90 C 0.85646 0.85251 0.89637 0.0
C91 C 0.85936 0.87452 0.85858 0.0
C92 C 0.88137 0.86302 0.85047 0.0
C93 C 0.89085 0.8457 0.86501 0.0
C94 C 0.87816 0.8407 0.88795 0.0
N95 N 0.8479 0.89082 0.84431 0.0
H96 H 0.18056 0.68405 0.71783 0.0
H97 H 0.24457 0.70461 0.66633 0.0
H98 H 0.18246 0.75039 0.67397 0.0
H99 H 0.25384 0.66539 0.67113 0.0
C100 C 0.24658 0.66024 0.68925 0.0
C101 C 0.18962 0.69634 0.70353 0.0
C102 C 0.17807 0.7175 0.69708 0.0
C103 C 0.21332 0.69123 0.69242 0.0
C104 C 0.22594 0.70783 0.67472 0.0
C105 C 0.21507 0.7293 0.66799 0.0
C106 C 0.1909 0.73386 0.67903 0.0
N107 N 0.22458 0.67031 0.7006 0.0
H108 H 0.90939 0.76599 0.67129 0.0
H109 H 0.84005 0.70343 0.67006 0.0
H110 H 0.90379 0.70009 0.71572 0.0
H111 H 0.83123 0.71967 0.63601 0.0
C112 C 0.84186 0.74026 0.63575 0.0
C113 C 0.89849 0.74737 0.67764 0.0
C114 C 0.90962 0.73431 0.69452 0.0
C115 C 0.87373 0.73613 0.6682 0.0
C116 C 0.85953 0.7119 0.67647 0.0
C117 C 0.87017 0.69892 0.69388 0.0
C118 C 0.89528 0.71019 0.70258 0.0
N119 N 0.86388 0.75013 0.65071 0.0
H120 H 0.91573 0.3566 0.70437 0.0
H121 H 0.91441 0.4267 0.75518 0.0
H122 H 0.85774 0.4057 0.69853 0.0
H123 H 0.94784 0.41537 0.77221 0.0
C124 C 0.95355 0.39749 0.76263 0.0
C125 C 0.90703 0.37398 0.71075 0.0
C126 C 0.88561 0.37923 0.69862 0.0
C127 C 0.91748 0.39061 0.73122 0.0
C128 C 0.90624 0.41328 0.73982 0.0
C129 C 0.88466 0.41914 0.72808 0.0
C130 C 0.87438 0.40167 0.70766 0.0
N131 N 0.93945 0.38368 0.74207 0.0
H132 H 0.22502 0.30881 0.69616 0.0
H133 H 0.28958 0.37615 0.69966 0.0
H134 H 0.21179 0.38789 0.72341 0.0
H135 H 0.31662 0.3199 0.67929 0.0
C136 C 0.30139 0.33074 0.67539 0.0
C137 C 0.23228 0.33023 0.70023 0.0
C138 C 0.21505 0.34715 0.71014 0.0
C139 C 0.25895 0.34072 0.69563 0.0
C140 C 0.2687 0.3683 0.70175 0.0
C141 C 0.2518 0.38551 0.71181 0.0
C142 C 0.22492 0.37481 0.71545 0.0
N143 N 0.27588 0.32277 0.68628 0.0
H144 H 0.16415 0.36926 0.38988 0.0
H145 H 0.23109 0.43057 0.37525 0.0
H146 H 0.16486 0.41596 0.32859 0.0
H147 H 0.23265 0.43312 0.41725 0.0
C148 C 0.22857 0.41204 0.42088 0.0
C149 C 0.17367 0.38514 0.37887 0.0
C150 C 0.16105 0.39106 0.35857 0.0
C151 C 0.19853 0.39965 0.3854 0.0
C152 C 0.21161 0.41967 0.37072 0.0
C153 C 0.19965 0.42558 0.35002 0.0
C154 C 0.17429 0.41131 0.34431 0.0
N155 N 0.20998 0.39332 0.40659 0.0
H156 H 0.23664 0.74121 0.40257 0.0
H157 H 0.23474 0.68982 0.33544 0.0
H158 H 0.29241 0.68795 0.38848 0.0
H159 H 0.20502 0.71097 0.32423 0.0
C160 C 0.19934 0.72509 0.33877 0.0
C161 C 0.24474 0.72614 0.39074 0.0
C162 C 0.26583 0.71558 0.39852 0.0
C163 C 0.23356 0.71745 0.36798 0.0
C164 C 0.2436 0.69735 0.35272 0.0
C165 C 0.26495 0.68641 0.35984 0.0
C166 C 0.27574 0.69563 0.38293 0.0
N167 N 0.2124 0.72961 0.36146 0.0
H168 H 0.85551 0.67644 0.3735 0.0
H169 H 0.93303 0.72492 0.37427 0.0
H170 H 0.91734 0.6532 0.32476 0.0
H171 H 0.9104 0.75813 0.38614 0.0
C172 C 0.89575 0.74859 0.399 0.0
C173 C 0.87578 0.67971 0.36665 0.0
C174 C 0.88418 0.66156 0.34808 0.0
C175 C 0.8931 0.7028 0.37589 0.0
C176 C 0.91931 0.70737 0.36704 0.0
C177 C 0.92799 0.6897 0.34844 0.0
C178 C 0.91041 0.66689 0.33897 0.0
N179 N 0.88371 0.72099 0.39414 0.0
H180 H 0.81111 0.37445 0.43288 0.0
H181 H 0.86352 0.36254 0.37095 0.0
H182 H 0.87403 0.33146 0.43891 0.0
H183 H 0.83589 0.37862 0.35006 0.0
C184 C 0.82435 0.39012 0.36257 0.0
C185 C 0.82768 0.36611 0.42467 0.0
C186 C 0.84148 0.35229 0.43871 0.0
C187 C 0.83543 0.37009 0.40034 0.0
C188 C 0.85727 0.35967 0.38972 0.0
C189 C 0.87125 0.34536 0.4034 0.0
C190 C 0.86324 0.34199 0.42799 0.0
N191 N 0.82135 0.38572 0.38778 0.0
H192 H 0.67601 0.17224 0.73335 0.0
H193 H 0.73523 0.18001 0.67588 0.0
H194 H 0.6737 0.22665 0.6784 0.0
H195 H 0.74462 0.1413 0.68877 0.0
C196 C 0.73927 0.14236 0.70817 0.0
C197 C 0.68412 0.18169 0.71711 0.0
C198 C 0.67188 0.20081 0.70772 0.0
C199 C 0.70678 0.17409 0.70587 0.0
C200 C 0.7173 0.18526 0.68434 0.0
C201 C 0.70521 0.204 0.67404 0.0
C202 C 0.6827 0.2119 0.68603 0.0
N203 N 0.71889 0.15619 0.71774 0.0
H204 H 0.41436 0.28315 0.66298 0.0
H205 H 0.34236 0.22433 0.66525 0.0
H206 H 0.40148 0.22772 0.71821 0.0
H207 H 0.32656 0.25538 0.64433 0.0
C208 C 0.34338 0.26313 0.63272 0.0
C209 C 0.40178 0.26682 0.6716 0.0
C210 C 0.41032 0.2572 0.69219 0.0
C211 C 0.37696 0.25566 0.66216 0.0
C212 C 0.36107 0.23377 0.67292 0.0
C213 C 0.36976 0.22351 0.69328 0.0
C214 C 0.39421 0.23576 0.70294 0.0
N215 N 0.36945 0.26608 0.64107 0.0
H216 H 0.40822 0.87037 0.7085 0.0
H217 H 0.40944 0.93758 0.76308 0.0
H218 H 0.36704 0.93375 0.6971 0.0
H219 H 0.43355 0.91651 0.78434 0.0
C220 C 0.43796 0.89845 0.77394 0.0
C221 C 0.40242 0.88948 0.71455 0.0
C222 C 0.38688 0.90058 0.69966 0.0
C223 C 0.41063 0.90237 0.73735 0.0
C224 C 0.40293 0.92711 0.74574 0.0
C225 C 0.38716 0.93879 0.73128 0.0
C226 C 0.37917 0.92512 0.70836 0.0
N227 N 0.42698 0.88963 0.75063 0.0
H228 H 0.64497 0.8482 0.67448 0.0
H229 H 0.69045 0.92737 0.69224 0.0
H230 H 0.63118 0.89221 0.74346 0.0
H231 H 0.69418 0.92703 0.64944 0.0
C232 C 0.69847 0.9068 0.64597 0.0
C233 C 0.64898 0.86654 0.68675 0.0
C234 C 0.63567 0.86808 0.70956 0.0
C235 C 0.66817 0.88827 0.68004 0.0
C236 C 0.67431 0.91142 0.69663 0.0
C237 C 0.6612 0.91308 0.71971 0.0
C238 C 0.64149 0.89142 0.72576 0.0
N239 N 0.68288 0.88517 0.6577 0.0
H240 H 0.65323 0.85942 0.38499 0.0
H241 H 0.72795 0.91188 0.39411 0.0
H242 H 0.67768 0.92219 0.33693 0.0
H243 H 0.73512 0.86341 0.39838 0.0
C244 C 0.72039 0.86137 0.41331 0.0
C245 C 0.66756 0.87639 0.37926 0.0
C246 C 0.66264 0.88978 0.35934 0.0
C247 C 0.69122 0.88385 0.39131 0.0
C248 C 0.70996 0.90575 0.38415 0.0
C249 C 0.70521 0.9202 0.36482 0.0
C250 C 0.68132 0.91202 0.35245 0.0
N251 N 0.6958 0.86901 0.41065 0.0
H252 H 0.71048 0.2352 0.40543 0.0
H253 H 0.70857 0.18746 0.3359 0.0
H254 H 0.75905 0.17468 0.3912 0.0
H255 H 0.70462 0.23099 0.32516 0.0
C256 C 0.68836 0.2344 0.33772 0.0
C257 C 0.71706 0.21914 0.39366 0.0
C258 C 0.73633 0.20593 0.40159 0.0
C259 C 0.70716 0.2129 0.36998 0.0
C260 C 0.71606 0.19247 0.35415 0.0
C261 C 0.73509 0.1789 0.3616 0.0
C262 C 0.74479 0.18559 0.38536 0.0
N263 N 0.68872 0.22777 0.36227 0.0
H264 H 0.34451 0.18906 0.37114 0.0
H265 H 0.4177 0.24099 0.35404 0.0
H266 H 0.39127 0.16925 0.30696 0.0
H267 H 0.41591 0.25675 0.39276 0.0
C268 C 0.39511 0.25533 0.39759 0.0
C269 C 0.36209 0.19342 0.3595 0.0
C270 C 0.36554 0.17626 0.33829 0.0
C271 C 0.38092 0.21662 0.36558 0.0
C272 C 0.40326 0.22285 0.35002 0.0
C273 C 0.40711 0.20579 0.32889 0.0
C274 C 0.38831 0.18245 0.32326 0.0
N275 N 0.37614 0.2339 0.38672 0.0
H276 H 0.30802 0.89458 0.41757 0.0
H277 H 0.36106 0.87878 0.35716 0.0
H278 H 0.37222 0.85464 0.42796 0.0
H279 H 0.35308 0.91832 0.34688 0.0
C280 C 0.33204 0.91663 0.35061 0.0
C281 C 0.32495 0.88628 0.41025 0.0
C282 C 0.33893 0.87391 0.42555 0.0
C283 C 0.33351 0.88921 0.38583 0.0
C284 C 0.35533 0.87811 0.37634 0.0
C285 C 0.36949 0.86548 0.39129 0.0
C286 C 0.36123 0.86376 0.416 0.0
N287 N 0.32006 0.90356 0.37125 0.0
H288 H 0.64293 0.68821 0.23617 0.0
H289 H 0.70099 0.69605 0.17753 0.0
H290 H 0.65024 0.75429 0.19121 0.0
H291 H 0.72042 0.66977 0.19849 0.0
C292 C 0.70549 0.65841 0.20996 0.0
C293 C 0.65251 0.69945 0.22139 0.0
C294 C 0.64408 0.72281 0.21585 0.0
C295 C 0.67339 0.69018 0.20833 0.0
C296 C 0.68549 0.70368 0.18841 0.0
C297 C 0.67683 0.72656 0.18179 0.0
C298 C 0.65625 0.73612 0.19573 0.0
N299 N 0.68118 0.66702 0.21591 0.0
H300 H 0.4188 0.77972 0.16208 0.0
H301 H 0.35344 0.71408 0.14794 0.0
H302 H 0.39797 0.71926 0.21264 0.0
H303 H 0.33955 0.75552 0.13241 0.0
C304 C 0.35718 0.75915 0.12062 0.0
C305 C 0.40605 0.76162 0.16762 0.0
C306 C 0.41063 0.7512 0.18934 0.0
C307 C 0.38526 0.74857 0.15277 0.0
C308 C 0.36908 0.72455 0.15964 0.0
C309 C 0.37354 0.71378 0.18136 0.0
C310 C 0.39421 0.72747 0.19602 0.0
N311 N 0.38208 0.75908 0.13031 0.0
H312 H 0.414 0.36206 0.18831 0.0
H313 H 0.42523 0.42952 0.24346 0.0
H314 H 0.36185 0.41904 0.19365 0.0
H315 H 0.45249 0.40254 0.26073 0.0
C316 C 0.45858 0.38957 0.2454 0.0
C317 C 0.40743 0.37976 0.19732 0.0
C318 C 0.38594 0.38847 0.18838 0.0
C319 C 0.42139 0.39385 0.21735 0.0
C320 C 0.41399 0.41785 0.22866 0.0
C321 C 0.39277 0.42747 0.21958 0.0
C322 C 0.37866 0.41216 0.19998 0.0
N323 N 0.44371 0.38368 0.22378 0.0
H324 H 0.75626 0.30184 0.20993 0.0
H325 H 0.81942 0.37052 0.21435 0.0
H326 H 0.73906 0.38189 0.21724 0.0
H327 H 0.84723 0.31457 0.19007 0.0
C328 C 0.82945 0.32223 0.18759 0.0
C329 C 0.76274 0.32353 0.21166 0.0
C330 C 0.74426 0.34068 0.21449 0.0
C331 C 0.78976 0.33439 0.21044 0.0
C332 C 0.79849 0.36248 0.21389 0.0
C333 C 0.78026 0.37987 0.21738 0.0
C334 C 0.7533 0.36867 0.21625 0.0
N335 N 0.80806 0.31689 0.20491 0.0
H336 H 0.66456 0.34035 0.89208 0.0
H337 H 0.7272 0.40901 0.88673 0.0
H338 H 0.66765 0.39096 0.83322 0.0
H339 H 0.72455 0.40738 0.92844 0.0
C340 C 0.72344 0.386 0.92991 0.0
C341 C 0.67394 0.35759 0.88265 0.0
C342 C 0.66278 0.36382 0.86158 0.0
C343 C 0.69692 0.37391 0.89213 0.0
C344 C 0.70917 0.39652 0.88003 0.0
C345 C 0.69825 0.40304 0.85909 0.0
C346 C 0.6753 0.3865 0.84999 0.0
N347 N 0.70759 0.36687 0.91346 0.0
H348 H 0.7205 0.71244 0.93179 0.0
H349 H 0.72685 0.67181 0.86 0.0
H350 H 0.78333 0.66838 0.91405 0.0
H351 H 0.70254 0.70122 0.84926 0.0
C352 C 0.69053 0.70626 0.86524 0.0
C353 C 0.73069 0.70016 0.91869 0.0
C354 C 0.75292 0.69113 0.92575 0.0
C355 C 0.7216 0.69411 0.89491 0.0
C356 C 0.7346 0.6778 0.87801 0.0
C357 C 0.75695 0.66816 0.88462 0.0
C358 C 0.76614 0.67528 0.90862 0.0
N359 N 0.69895 0.70422 0.88914 0.0
H360 H 0.31845 0.69031 0.79929 0.0
H361 H 0.3938 0.74197 0.80021 0.0
H362 H 0.38902 0.65657 0.80099 0.0
H363 H 0.34795 0.78284 0.81302 0.0
C364 C 0.34698 0.76265 0.81836 0.0
C365 C 0.33963 0.69216 0.79876 0.0
C366 C 0.35142 0.66954 0.80025 0.0
C367 C 0.35479 0.7181 0.79915 0.0
C368 C 0.38217 0.72174 0.79974 0.0
C369 C 0.39456 0.69953 0.80012 0.0
C370 C 0.37919 0.67351 0.80051 0.0
N371 N 0.34213 0.74061 0.79997 0.0
H372 H 0.35563 0.39345 0.91571 0.0
H373 H 0.41246 0.37542 0.8599 0.0
H374 H 0.39517 0.32678 0.92049 0.0
H375 H 0.41562 0.42033 0.85424 0.0
C376 C 0.39562 0.42374 0.85775 0.0
C377 C 0.36992 0.38124 0.9087 0.0
C378 C 0.37383 0.35963 0.92124 0.0
C379 C 0.38413 0.38749 0.88703 0.0
C380 C 0.40212 0.37138 0.87716 0.0
C381 C 0.40588 0.34912 0.88896 0.0
C382 C 0.39174 0.34344 0.91104 0.0
N383 N 0.37882 0.40946 0.87529 0.0
Cu384 Cu 0.30074 0.29523 0.06994 0.0
N385 N 0.30323 0.32079 0.0473 0.0
N386 N 0.31708 0.33995 1.01288 0.0
C387 C 0.31778 0.31935 0.02631 0.0
C388 C 0.30146 0.35511 0.02597 0.0
C389 C 0.2928 0.34314 0.04717 0.0
O390 O 0.30525 0.26291 0.04819 0.0
C391 C 0.32536 0.33203 0.10595 0.0
O392 O 0.30638 0.34381 0.10016 0.0
H393 H 0.32919 0.30373 1.02126 0.0
H394 H 0.27999 0.35038 0.06146 0.0
N395 N 0.26799 0.28972 0.08695 0.0
N396 N 0.23667 0.27453 0.1147 0.0
C397 C 0.26172 0.27475 0.10607 0.0
C398 C 0.24624 0.29939 0.08327 0.0
C399 C 0.22695 0.29012 0.10031 0.0
C400 C 0.28493 0.24719 0.03935 0.0
O401 O 0.26179 0.24874 0.0498 0.0
H402 H 0.2753 0.26392 0.11313 0.0
H403 H 0.24442 0.31214 0.06911 0.0
O404 O 0.3274 0.30915 0.09466 0.0
H405 H 0.29651 0.37339 1.02054 0.0
H406 H 0.20736 0.29476 0.10194 0.0
Cu407 Cu 0.81699 0.33395 0.03066 0.0
N408 N 0.81906 0.35914 0.0579 0.0
N409 N 0.8226 0.36893 0.09824 0.0
C410 C 0.83204 0.35653 0.07778 0.0
C411 C 0.80339 0.38055 0.09083 0.0
C412 C 0.80126 0.3745 0.0659 0.0
O413 O 0.81518 0.29958 0.04509 0.0
C414 C 0.78959 0.35965 1.00218 0.0
O415 O 0.80991 0.3786 1.00826 0.0
H416 H 0.84509 0.34225 0.07792 0.0
H417 H 0.78552 0.37788 0.05516 0.0
N418 N 0.84722 0.34115 1.01073 0.0
N419 N 0.8759 0.33549 0.97975 0.0
C420 C 0.85214 0.32607 0.9901 0.0
C421 C 0.86843 0.36104 1.01359 0.0
C422 C 0.88628 0.35752 0.99448 0.0
C423 C 0.8367 0.29227 0.04925 0.0
O424 O 0.8588 0.30516 0.03982 0.0
H425 H 0.83887 0.3079 0.98344 0.0
H426 H 0.87085 0.37669 0.02866 0.0
O427 O 0.78758 0.33683 1.01069 0.0
H428 H 0.78972 0.38974 0.10294 0.0
H429 H 0.90541 0.37009 0.99177 0.0
Cu430 Cu 0.78782 0.79113 0.04868 0.0
N431 N 0.79046 0.81584 0.02518 0.0
N432 N 0.80379 0.83416 0.99019 0.0
C433 C 0.80607 0.81497 1.0048 0.0
C434 C 0.78599 0.84772 1.00194 0.0
C435 C 0.77769 0.83629 0.02346 0.0
O436 O 0.79237 0.75792 0.02843 0.0
C437 C 0.81229 0.82913 0.08377 0.0
O438 O 0.79551 0.84197 0.07523 0.0
H439 H 0.81892 0.80046 1.00084 0.0
H440 H 0.76323 0.84233 0.03674 0.0
N441 N 0.75506 0.78639 0.06556 0.0
N442 N 0.72506 0.77457 0.09546 0.0
C443 C 0.75031 0.77565 0.08714 0.0
C444 C 0.7321 0.79243 0.05984 0.0
C445 C 0.7136 0.78521 0.07822 0.0
C446 C 0.77301 0.73856 0.0239 0.0
O447 O 0.75157 0.7374 0.03796 0.0
H448 H 0.76521 0.76838 0.0962 0.0
H449 H 0.72896 0.80128 0.04343 0.0
O450 O 0.8136 0.80541 0.07401 0.0
H451 H 0.77899 0.86432 0.99524 0.0
H452 H 0.69331 0.78776 0.07869 0.0
Cu453 Cu 0.30324 0.77609 0.98534 0.0
N454 N 0.27524 0.75078 0.99588 0.0
N455 N 0.24363 0.73474 1.02261 0.0
C456 C 0.26735 0.75059 1.01948 0.0
C457 C 0.23629 0.72431 0.99987 0.0
C458 C 0.256 0.73422 0.98333 0.0
O459 O 0.32358 0.78815 1.01479 0.0
C460 C 0.29965 0.82593 0.96588 0.0
O461 O 0.32513 0.83293 0.96896 0.0
H462 H 0.27757 0.76412 0.03383 0.0
H463 H 0.25542 0.73122 0.96358 0.0
N464 N 0.32166 0.76004 0.95969 0.0
N465 N 0.33692 0.75137 0.92151 0.0
C466 C 0.32859 0.76985 0.93795 0.0
C467 C 0.32576 0.73449 0.95695 0.0
C468 C 0.33523 0.72908 0.93339 0.0
C469 C 0.34196 0.77668 1.02055 0.0
O470 O 0.35166 0.76031 1.00401 0.0
H471 H 0.32553 0.78932 0.93363 0.0
H472 H 0.32071 0.72031 0.97065 0.0
O473 O 0.28741 0.80358 0.97277 0.0
H474 H 0.21741 0.71188 0.99539 0.0
H475 H 0.33934 0.70988 0.92529 0.0
Cu476 Cu 0.01801 0.2973 0.30777 0.0
N477 N 0.03273 0.26642 0.29954 0.0
N478 N 0.06085 0.24083 0.28252 0.0
C479 C 0.05446 0.26554 0.285 0.0
C480 C 0.04257 0.22551 0.29611 0.0
C481 C 0.02509 0.2413 0.30645 0.0
O482 O 0.0475 0.3268 0.31487 0.0
C483 C 1.0021 0.29763 0.25827 0.0
O484 O 0.02556 0.2931 0.25096 0.0
H485 H 0.06559 0.28281 0.27662 0.0
H486 H 1.00797 0.23484 0.31804 0.0
N487 N 0.99435 0.29416 0.33498 0.0
N488 N 0.96051 0.30166 0.36035 0.0
C489 C 0.97464 0.30813 0.33965 0.0
C490 C 0.99269 0.27826 0.35336 0.0
C491 C 0.97189 0.28282 0.369 0.0
C492 C 0.05803 0.3283 0.33552 0.0
O493 O 0.04749 0.31133 0.3514 0.0
H494 H 0.97059 0.32251 0.32781 0.0
H495 H 1.00586 0.26456 0.35547 0.0
O496 O 0.99681 0.30203 0.28104 0.0
H497 H 0.04164 0.20432 0.29804 0.0
H498 H 0.96594 0.2733 0.38567 0.0
Cu499 Cu 0.80146 0.05606 0.2794 0.0
N500 N 0.8319 0.08004 0.27031 0.0
N501 N 0.85531 0.11362 0.25035 0.0
C502 C 0.83164 0.09752 0.25348 0.0
C503 C 0.87114 0.10583 0.26591 0.0
C504 C 0.85663 0.08517 0.27825 0.0
O505 O 0.77526 0.07967 0.28739 0.0
C506 C 0.81766 1.01281 0.25467 0.0
O507 O 0.83687 0.02349 0.26931 0.0
H508 H 0.81421 0.09839 0.24381 0.0
H509 H 0.86355 0.07499 0.29222 0.0
N510 N 0.80141 0.03937 0.30819 0.0
N511 N 0.78299 1.00894 0.33377 0.0
C512 C 0.77914 0.02344 0.31557 0.0
C513 C 0.82028 0.03514 0.32243 0.0
C514 C 0.80893 0.01622 0.33824 0.0
C515 C 0.78402 0.09759 0.3047 0.0
O516 O 0.80681 0.09659 0.31361 0.0
H517 H 0.76078 0.02107 0.30632 0.0
H518 H 0.84097 0.04382 0.32053 0.0
O519 O 0.79801 0.02481 0.25435 0.0
H520 H 0.89157 0.11489 0.26874 0.0
H521 H 0.81914 1.00778 0.35132 0.0
Cu522 Cu 0.05078 0.78345 0.28217 0.0
N523 N 0.0292 0.80985 0.28471 0.0
N524 N 0.99836 0.83188 0.27385 0.0
C525 C 1.01243 0.81215 0.26738 0.0
C526 C 1.00651 0.84219 0.29641 0.0
C527 C 0.02539 0.82855 0.30307 0.0
O528 O 0.02806 0.75021 0.28972 0.0
C529 C 0.07324 0.8021 0.23918 0.0
O530 O 0.07034 0.82512 0.25129 0.0
H531 H 1.0104 0.79915 0.25044 0.0
H532 H 0.03534 0.83187 0.32021 0.0
N533 N 0.08034 0.78985 0.30211 0.0
N534 N 0.1163 0.78104 0.31855 0.0
C535 C 0.09689 0.77229 0.30248 0.0
C536 C 0.08971 0.81069 0.3184 0.0
C537 C 0.11177 0.80527 0.32861 0.0
C538 C 0.02607 0.74373 0.31159 0.0
O539 O 0.04112 0.75872 0.32817 0.0
H540 H 0.09427 0.75311 0.29143 0.0
H541 H 0.08119 0.82855 0.32259 0.0
O542 O 0.06495 0.78032 0.24904 0.0
H543 H 0.99951 0.85854 0.30737 0.0
H544 H 0.1237 0.81838 0.34218 0.0
Cu545 Cu 0.27349 0.01462 0.25769 0.0
N546 N 0.27736 0.04129 0.28604 0.0
N547 N 0.2934 0.07878 0.30935 0.0
C548 C 0.29489 0.06453 0.28737 0.0
C549 C 0.27417 0.06378 0.32236 0.0
C550 C 0.26418 0.04059 0.30783 0.0
O551 O 0.25753 0.04023 0.23932 0.0
C552 C 0.27704 0.97406 0.29087 0.0
O553 O 0.2515 0.97293 0.29366 0.0
H554 H 0.30882 0.07053 0.27263 0.0
H555 H 0.24853 0.02445 0.31278 0.0
N556 N 0.27072 0.98842 0.22894 0.0
N557 N 0.25963 0.95047 0.20441 0.0
C558 C 0.25526 0.96386 0.22639 0.0
C559 C 0.28538 0.99082 0.20807 0.0
C560 C 0.27854 0.96745 0.19284 0.0
C561 C 0.2355 0.04667 0.24622 0.0
O562 O 0.22211 0.03521 0.26458 0.0
H563 H 0.24114 0.9561 0.24038 0.0
H564 H 0.30028 1.00818 0.20439 0.0
O565 O 0.29024 0.98976 0.27613 0.0
H566 H 0.26768 0.06925 0.34093 0.0
H567 H 0.28727 0.96314 0.17488 0.0
Cu568 Cu 0.03783 0.78766 0.78279 0.0
N569 N 0.0561 0.75916 0.77485 0.0
N570 N 0.08674 0.73801 0.75568 0.0
C571 C 0.07635 0.76063 0.75828 0.0
C572 C 0.07233 0.72159 0.77132 0.0
C573 C 0.05348 0.73474 0.78321 0.0
O574 O 0.06527 0.81825 0.79321 0.0
C575 C 1.00351 0.76631 0.74794 0.0
O576 O 1.00507 0.74595 0.76037 0.0
H577 H 0.08317 0.77804 0.74822 0.0
H578 H 0.03902 0.72711 0.79697 0.0
N579 N 1.01243 0.78345 0.8084 0.0
N580 N 0.97783 0.79313 0.83145 0.0
C581 C 0.99184 0.79633 0.81019 0.0
C582 C 1.01137 0.7714 0.82923 0.0
C583 C 0.99006 0.77744 0.84356 0.0
C584 C 0.07884 0.81258 0.81002 0.0
O585 O 0.07189 0.78898 0.8187 0.0
H586 H 0.988 0.80895 0.79659 0.0
H587 H 0.02551 0.75983 0.83406 0.0
O588 O 0.01754 0.78933 0.75424 0.0
H589 H 0.07548 0.70172 0.77434 0.0
H590 H 0.98426 0.77114 0.8616 0.0
Cu591 Cu 0.31616 0.07256 0.78586 0.0
N592 N 0.31517 0.09132 0.75821 0.0
N593 N 0.32222 0.12436 0.7332 0.0
C594 C 0.32906 0.11588 0.75408 0.0
C595 C 0.30344 0.10425 0.72378 0.0
C596 C 0.29905 0.08403 0.73928 0.0
O597 O 0.32063 0.09893 0.81506 0.0
C598 C 0.34415 0.03594 0.75886 0.0
O599 O 0.33111 0.04214 0.74114 0.0
H600 H 0.34368 0.12738 0.76632 0.0
H601 H 0.28485 0.06539 0.73702 0.0
N602 N 0.28372 0.05026 0.79071 0.0
N603 N 0.25419 0.01606 0.80385 0.0
C604 C 0.27993 0.0275 0.80201 0.0
C605 C 0.25962 0.05358 0.78524 0.0
C606 C 0.24135 0.03245 0.79324 0.0
C607 C 0.30643 0.1171 0.81636 0.0
O608 O 0.29075 0.11723 0.79841 0.0
H609 H 0.29582 0.01997 0.80928 0.0
H610 H 0.25558 0.07032 0.77634 0.0
O611 O 0.34183 0.04795 0.7803 0.0
H612 H 0.29312 0.10441 0.70722 0.0
H613 H 0.22028 0.02946 0.79129 0.0
Cu614 Cu 0.0869 0.30327 0.80088 0.0
N615 N 0.07202 0.33443 0.80282 0.0
N616 N 0.04329 0.3609 0.79663 0.0
C617 C 0.049 0.33582 0.79307 0.0
C618 C 0.0636 0.37581 0.8093 0.0
C619 C 0.08126 0.35946 0.81305 0.0
O620 O 0.05714 0.27371 0.79898 0.0
C621 C 0.11252 0.31674 0.75513 0.0
O622 O 0.0948 0.33187 0.75386 0.0
H623 H 0.03671 0.31862 0.78353 0.0
H624 H 0.09966 0.36545 0.82232 0.0
N625 N 0.10664 0.30179 0.82817 0.0
N626 N 0.13721 0.29019 0.85029 0.0
C627 C 0.12762 0.28954 0.82776 0.0
C628 C 0.10275 0.31066 0.85174 0.0
C629 C 0.12154 0.30354 0.86542 0.0
C630 C 0.05411 0.25302 0.81083 0.0
O631 O 0.07395 0.24834 0.82255 0.0
H632 H 0.13509 0.27956 0.81126 0.0
H633 H 0.08714 0.32121 0.85854 0.0
O634 O 0.11103 0.302 0.77272 0.0
H635 H 0.0659 0.39716 0.81503 0.0
H636 H 0.12347 0.30794 0.885 0.0
Cu637 Cu 0.78911 0.0336 0.79278 0.0
N638 N 0.80387 0.05473 0.82003 0.0
N639 N 0.83235 0.08684 0.84055 0.0
C640 C 0.82242 0.07701 0.81856 0.0
C641 C 0.81934 0.07 0.85655 0.0
C642 C 0.80188 0.05006 0.84377 0.0
O643 O 0.78929 0.05724 0.76675 0.0
C644 C 0.80177 0.98501 0.80095 0.0
O645 O 0.78238 0.98678 0.81707 0.0
H646 H 0.82867 0.08554 0.80148 0.0
H647 H 0.7894 0.03288 0.85113 0.0
N648 N 0.75351 0.0193 0.79767 0.0
N649 N 0.71432 0.9958 0.78675 0.0
C650 C 0.73868 1.00695 0.77907 0.0
C651 C 0.73787 0.01634 0.818 0.0
C652 C 0.71364 1.00137 0.8113 0.0
C653 C 0.77646 0.07608 0.77333 0.0
O654 O 0.76692 0.07795 0.79598 0.0
H655 H 0.74625 1.00469 0.76035 0.0
H656 H 0.74398 0.02336 0.83641 0.0
O657 O 0.80849 1.0037 0.78668 0.0
H658 H 0.8228 0.07137 0.87591 0.0
H659 H 0.69721 0.99428 0.82349 0.0
Cu660 Cu 0.30333 0.80991 0.55396 0.0
N661 N 0.33295 0.82313 0.57325 0.0
N662 N 0.35719 0.84383 0.60495 0.0
C663 C 0.3329 0.83736 0.59544 0.0
C664 C 0.37301 0.83312 0.58779 0.0
C665 C 0.35806 0.82037 0.56844 0.0
O666 O 0.27403 0.79747 0.5767 0.0
C667 C 0.31699 0.85533 0.52693 0.0
O668 O 0.33749 0.86132 0.54085 0.0
H669 H 0.31517 0.84242 0.60445 0.0
H670 H 0.36502 0.80994 0.55195 0.0
N671 N 0.30796 0.78092 0.53102 0.0
N672 N 0.30372 0.75507 0.4952 0.0
C673 C 0.2978 0.77716 0.50858 0.0
C674 C 0.32085 0.76043 0.53203 0.0
C675 C 0.31818 0.74439 0.50998 0.0
C676 C 0.27975 0.78234 0.59197 0.0
O677 O 0.30314 0.7757 0.59001 0.0
H678 H 0.28586 0.79029 0.50235 0.0
H679 H 0.33148 0.75739 0.54759 0.0
O680 O 0.29785 0.8369 0.53268 0.0
H681 H 0.394 0.8344 0.58886 0.0
H682 H 0.32655 0.72649 0.50516 0.0
Cu683 Cu 0.79909 0.82616 0.52571 0.0
N684 N 0.83059 0.82889 0.50754 0.0
N685 N 0.85895 0.81493 0.47936 0.0
C686 C 0.83504 0.80914 0.49058 0.0
C687 C 0.87003 0.83957 0.48968 0.0
C688 C 0.85243 0.84814 0.50721 0.0
O689 O 0.77237 0.81691 0.50125 0.0
C690 C 0.81799 0.80708 0.56394 0.0
O691 O 0.83331 0.83078 0.56255 0.0
H692 H 0.82058 0.79103 0.4863 0.0
H693 H 0.85536 0.86693 0.51883 0.0
N694 N 0.7949 0.85818 0.5439 0.0
N695 N 0.77643 0.88388 0.57261 0.0
C696 C 0.77941 0.85865 0.56426 0.0
C697 C 0.80237 0.88404 0.53906 0.0
C698 C 0.79101 0.90001 0.55683 0.0
C699 C 0.75152 0.82682 0.5019 0.0
O700 O 0.74371 0.83888 0.52252 0.0
H701 H 0.76906 0.84045 0.57168 0.0
H702 H 0.81422 0.89067 0.52322 0.0
O703 O 0.79974 0.79963 0.54867 0.0
H704 H 0.88947 0.85049 0.48508 0.0
H705 H 0.79274 0.92167 0.55755 0.0
Cu706 Cu 0.79285 0.28283 0.56056 0.0
N707 N 0.79345 0.25627 0.53388 0.0
N708 N 0.7834 0.23506 0.49665 0.0
C709 C 0.77803 0.25398 0.51439 0.0
C710 C 0.80297 0.22493 0.50541 0.0
C711 C 0.80906 0.23796 0.52833 0.0
O712 O 0.79221 0.31448 0.54336 0.0
C713 C 0.76129 0.24726 0.58866 0.0
O714 O 0.77863 0.23305 0.57898 0.0
H715 H 0.76373 0.26671 0.51292 0.0
H716 H 0.82396 0.23438 0.53994 0.0
N717 N 0.82206 0.2898 0.581 0.0
N718 N 0.84752 0.30964 0.61221 0.0
C719 C 0.82375 0.30641 0.60199 0.0
C720 C 0.84554 0.28204 0.57786 0.0
C721 C 0.86118 0.29413 0.59701 0.0
C722 C 0.81389 0.33022 0.53871 0.0
O723 O 0.83389 0.33112 0.55262 0.0
H724 H 0.80807 0.31676 0.609 0.0
H725 H 0.8513 0.26923 0.5624 0.0
O726 O 0.76256 0.27095 0.58223 0.0
H727 H 0.81224 0.20921 0.49595 0.0
H728 H 0.8812 0.29177 0.59929 0.0
Cu729 Cu 0.31397 0.35436 0.5231 0.0
N730 N 0.32202 0.38082 0.54903 0.0
N731 N 0.32301 0.38769 0.58986 0.0
C732 C 0.30858 0.37691 0.57036 0.0
C733 C 0.34623 0.40006 0.58028 0.0
C734 C 0.34562 0.39567 0.55507 0.0
O735 O 0.30964 0.32153 0.54003 0.0
C736 C 0.28689 0.38391 0.49833 0.0
O737 O 0.30751 0.40197 0.50538 0.0
H738 H 0.29052 0.36217 0.57153 0.0
H739 H 0.36247 0.3995 0.54258 0.0
N740 N 0.34126 0.35328 0.49973 0.0
N741 N 0.36417 0.33505 0.46912 0.0
C742 C 0.34393 0.3307 0.48557 0.0
C743 C 0.36037 0.37282 0.49191 0.0
C744 C 0.37475 0.36153 0.47307 0.0
C745 C 0.33121 0.31815 0.54842 0.0
O746 O 0.35311 0.33428 0.54235 0.0
H747 H 0.33112 0.31141 0.48739 0.0
H748 H 0.36325 0.39385 0.4989 0.0
O749 O 0.28416 0.36036 0.5055 0.0
H750 H 0.36348 0.40881 0.59066 0.0
H751 H 0.39111 0.37211 0.46262 0.0
Cu752 Cu 0.80564 0.54747 0.78297 0.0
N753 N 0.80658 0.56584 0.75482 0.0
N754 N 0.8175 0.59911 0.73019 0.0
C755 C 0.8221 0.5898 0.75143 0.0
C756 C 0.79844 0.58002 0.71973 0.0
C757 C 0.79171 0.5596 0.73496 0.0
O758 O 0.80719 0.57497 0.81135 0.0
C759 C 0.83036 0.5083 0.75864 0.0
O760 O 0.81148 0.50927 0.74394 0.0
H761 H 0.83634 0.60022 0.76451 0.0
H762 H 0.77681 0.54163 0.73185 0.0
N763 N 0.77366 0.52402 0.78719 0.0
N764 N 0.74442 0.49147 0.80333 0.0
C765 C 0.76988 0.50397 0.80198 0.0
C766 C 0.74981 0.5244 0.77886 0.0
C767 C 0.73175 0.50427 0.78868 0.0
C768 C 0.7911 0.59113 0.81057 0.0
O769 O 0.77605 0.58808 0.79163 0.0
H770 H 0.78546 0.49941 0.81223 0.0
H771 H 0.74568 0.53873 0.76704 0.0
O772 O 0.83252 0.52427 0.77835 0.0
H773 H 0.78946 0.58098 0.7026 0.0
H774 H 0.71089 0.49962 0.78538 0.0
Cu775 Cu 0.30518 0.53857 0.78484 0.0
N776 N 0.33605 0.53204 0.79704 0.0
N777 N 0.36212 0.50901 0.81377 0.0
C778 C 0.338 0.50854 0.80542 0.0
C779 C 0.37596 0.53386 0.81049 0.0
C780 C 0.35976 0.54811 0.80027 0.0
O781 O 0.28778 0.50498 0.76843 0.0
C782 C 0.2817 0.57112 0.82257 0.0
O783 O 0.26382 0.57443 0.8399 0.0
H784 H 0.32193 0.49139 0.80532 0.0
H785 H 0.36481 0.56884 0.79603 0.0
N786 N 0.31087 0.56479 0.76263 0.0
N787 N 0.30191 0.59396 0.73792 0.0
C788 C 0.29188 0.57498 0.75313 0.0
C789 C 0.33369 0.5773 0.75268 0.0
C790 C 0.32823 0.59537 0.73747 0.0
C791 C 0.29698 0.49469 0.74854 0.0
O792 O 0.31847 0.50775 0.73818 0.0
H793 H 0.27112 0.56875 0.75756 0.0
H794 H 0.35295 0.5736 0.75615 0.0
O795 O 0.28185 0.54766 0.81196 0.0
H796 H 0.39608 0.54144 0.81572 0.0
H797 H 0.34256 0.60888 0.72731 0.0
Cu798 Cu 0.31537 0.55877 0.26654 0.0
N799 N 0.28336 0.53479 0.26951 0.0
N800 N 0.25239 0.50398 0.28598 0.0
C801 C 0.27785 0.51659 0.28615 0.0
C802 C 0.24151 0.51464 0.26843 0.0
C803 C 0.26065 0.53366 0.25832 0.0
O804 O 0.34313 0.53638 0.26533 0.0
C805 C 0.29716 0.60181 0.29185 0.0
O806 O 0.28235 0.59646 0.27265 0.0
H807 H 0.29203 0.51358 0.29886 0.0
H808 H 0.25794 0.54637 0.24441 0.0
N809 N 0.31776 0.57634 0.23757 0.0
N810 N 0.32671 0.60991 0.213 0.0
C811 C 0.32986 0.60204 0.23527 0.0
C812 C 0.3066 0.5676 0.21592 0.0
C813 C 0.31223 0.58817 0.2007 0.0
C814 C 0.34299 0.51925 0.24648 0.0
O815 O 0.32544 0.51854 0.22996 0.0
H816 H 0.34052 0.61483 0.24985 0.0
H817 H 0.29467 0.54788 0.21162 0.0
O818 O 0.31443 0.58721 0.29391 0.0
H819 H 0.22111 0.50935 0.26344 0.0
H820 H 0.30548 0.58741 0.18231 0.0
Cu821 Cu 0.78306 0.52872 0.27786 0.0
N822 N 0.77525 0.50519 0.30246 0.0
N823 N 0.77907 0.47213 0.32521 0.0
C824 C 0.78945 0.48658 0.30657 0.0
C825 C 0.75755 0.48223 0.33336 0.0
C826 C 0.7552 0.5026 0.31924 0.0
O827 O 0.79019 0.50677 0.24843 0.0
C828 C 0.80894 0.56948 0.30913 0.0
O829 O 0.78738 0.56171 0.32228 0.0
H830 H 0.80732 0.48396 0.29633 0.0
H831 H 0.74002 0.51471 0.32117 0.0
N832 N 0.75421 0.54371 0.27184 0.0
N833 N 0.73105 0.57099 0.25699 0.0
C834 C 0.75526 0.56703 0.26183 0.0
C835 C 0.72854 0.53239 0.27332 0.0
C836 C 0.71418 0.54926 0.26433 0.0
C837 C 0.80941 0.49438 0.24517 0.0
O838 O 0.83084 0.50336 0.25751 0.0
H839 H 0.77351 0.58048 0.25775 0.0
H840 H 0.72089 0.51276 0.27954 0.0
O841 O 0.81177 0.55745 0.28794 0.0
H842 H 0.7443 0.47525 0.34826 0.0
H843 H 0.69306 0.54521 0.26238 0.0
Cu844 Cu 0.53058 0.27637 0.7862 0.0
N845 N 0.50508 0.27043 0.81151 0.0
N846 N 0.47456 0.28211 0.83903 0.0
C847 C 0.49596 0.29081 0.82469 0.0
C848 C 0.47024 0.25491 0.83461 0.0
C849 C 0.48888 0.24782 0.8175 0.0
O850 O 0.51154 0.28752 0.7605 0.0
C851 C 0.57116 0.29607 0.81672 0.0
O852 O 0.56335 0.27157 0.82335 0.0
H853 H 0.50404 0.31171 0.82236 0.0
H854 H 0.4894 0.22775 0.80899 0.0
N855 N 0.54595 0.24637 0.77522 0.0
N856 N 0.57711 0.22453 0.75825 0.0
C857 C 0.56657 0.24693 0.75899 0.0
C858 C 0.54363 0.22281 0.78518 0.0
C859 C 0.56287 0.20934 0.77478 0.0
C860 C 0.50903 0.27599 0.73881 0.0
O861 O 0.52383 0.25837 0.73089 0.0
H862 H 0.57486 0.26427 0.74924 0.0
H863 H 0.53033 0.2167 0.80026 0.0
O864 O 0.559 0.30369 0.79992 0.0
H865 H 0.45414 0.24097 0.84226 0.0
H866 H 0.5669 0.19047 0.77978 0.0
Cu867 Cu 0.54843 0.77798 0.80835 0.0
N868 N 0.56844 0.76925 0.8329 0.0
N869 N 0.59985 0.75376 0.85089 0.0
C870 C 0.58858 0.75563 0.82957 0.0
C871 C 0.58606 0.7668 0.86821 0.0
C872 C 0.56684 0.77628 0.85711 0.0
O873 O 0.57168 0.78628 0.78044 0.0
C874 C 0.50474 0.73633 0.81506 0.0
O875 O 0.51177 0.73982 0.83795 0.0
H876 H 0.59478 0.74738 0.81175 0.0
H877 H 0.55291 0.78786 0.86602 0.0
N878 N 0.5338 0.80887 0.81737 0.0
N879 N 0.50931 0.84024 0.81363 0.0
C880 C 0.51298 0.81478 0.80675 0.0
C881 C 0.54363 0.83128 0.83168 0.0
C882 C 0.52852 0.85057 0.82953 0.0
C883 C 0.56324 0.79201 0.76071 0.0
O884 O 0.53774 0.78925 0.75824 0.0
H885 H 0.50132 0.80084 0.79354 0.0
H886 H 0.56134 0.8339 0.84194 0.0
O887 O 0.51924 0.74932 0.79918 0.0
H888 H 0.58987 0.76995 0.88755 0.0
H889 H 0.53236 0.87109 0.83799 0.0
Cu890 Cu 0.51771 0.81514 0.29947 0.0
N891 N 0.49408 0.81407 0.32676 0.0
N892 N 0.46017 0.82248 0.35155 0.0
C893 C 0.47323 0.8266 0.32986 0.0
C894 C 0.47339 0.80676 0.36251 0.0
C895 C 0.49429 0.80171 0.34728 0.0
O896 O 0.49796 0.81508 0.2702 0.0
C897 C 0.56203 0.83976 0.32244 0.0
O898 O 0.5537 0.81838 0.3343 0.0
H899 H 0.46771 0.8384 0.31635 0.0
H900 H 0.50883 0.79022 0.35122 0.0
N901 N 0.53286 0.78426 0.29359 0.0
N902 N 0.56055 0.75846 0.27635 0.0
C903 C 0.55163 0.78167 0.27603 0.0
C904 C 0.52952 0.76169 0.30524 0.0
C905 C 0.5468 0.74581 0.29473 0.0
C906 C 0.48182 0.79286 0.26613 0.0
O907 O 0.47924 0.77505 0.28227 0.0
H908 H 0.5592 0.79697 0.26378 0.0
H909 H 0.51572 0.75708 0.32035 0.0
O910 O 0.54791 0.84447 0.30566 0.0
H911 H 0.46874 0.79995 0.38053 0.0
H912 H 0.54911 0.7265 0.30016 0.0
Cu913 Cu 0.56927 0.29176 0.27025 0.0
N914 N 0.54283 0.26131 0.26678 0.0
N915 N 0.50371 0.23574 0.27423 0.0
C916 C 0.51962 0.25979 0.27913 0.0
C917 C 0.51752 0.22137 0.25814 0.0
C918 C 0.54171 0.23735 0.25342 0.0
O919 O 0.55074 0.32265 0.27265 0.0
C920 C 0.60293 0.2675 0.29303 0.0
O921 O 0.59765 0.25153 0.27286 0.0
H922 H 0.51483 0.27591 0.29203 0.0
H923 H 0.5574 0.23175 0.24138 0.0
N924 N 0.59272 0.29395 0.24322 0.0
N925 N 0.63244 0.30254 0.22453 0.0
C926 C 0.61789 0.30646 0.24522 0.0
C927 C 0.59099 0.28157 0.22033 0.0
C928 C 0.61557 0.28689 0.2087 0.0
C929 C 0.53801 0.32378 0.25358 0.0
O930 O 0.53993 0.30586 0.23485 0.0
H931 H 0.62562 0.31695 0.26219 0.0
H932 H 0.57344 0.26887 0.21292 0.0
O933 O 0.59128 0.28767 0.29737 0.0
H934 H 0.51065 0.20089 0.25039 0.0
H935 H 0.62065 0.27946 0.19023 0.0
C936 C 0.22393 0.23542 0.17033 0.0
C937 C 0.19631 0.23092 0.17288 0.0
H938 H 0.25839 0.25316 0.15048 0.0
C939 C 0.18222 0.24158 0.15635 0.0
H940 H 0.23539 0.22779 0.18297 0.0
C941 C 0.19539 0.25592 0.13744 0.0
C942 C 0.22306 0.26022 0.13464 0.0
H943 H 0.16091 0.23821 0.15764 0.0
H944 H 0.18368 0.26312 0.12478 0.0
C945 C 0.23713 0.24995 0.15156 0.0
C946 C 0.82092 0.25367 0.1059 0.0
C947 C 0.84587 0.24842 0.1104 0.0
H948 H 0.79818 0.27173 0.08292 0.0
C949 C 0.86653 0.25477 0.09314 0.0
H950 H 0.80463 0.24892 0.11893 0.0
C951 C 0.86279 0.26728 0.07248 0.0
C952 C 0.83835 0.27416 0.06858 0.0
H953 H 0.88588 0.25064 0.09586 0.0
H954 H 0.87951 0.27258 0.06003 0.0
C955 C 0.81721 0.26659 0.08523 0.0
C956 C 0.84111 0.88275 0.13287 0.0
C957 C 0.84692 0.86755 0.15116 0.0
H958 H 0.8261 0.88255 0.09739 0.0
C959 C 0.84398 0.83932 0.14585 0.0
H960 H 0.84379 0.90452 0.13589 0.0
C961 C 0.83421 0.82663 0.12332 0.0
C962 C 0.82703 0.84191 0.10574 0.0
H963 H 0.84816 0.82689 0.15948 0.0
H964 H 0.83102 0.80484 0.1202 0.0
C965 C 0.83118 0.87012 0.11063 0.0
C966 C 0.18688 0.74456 0.06526 0.0
C967 C 0.20007 0.75285 0.08718 0.0
H968 H 0.19064 0.73212 0.02699 0.0
C969 C 0.22634 0.74995 0.08841 0.0
H970 H 0.16651 0.74643 0.06402 0.0
C971 C 0.23993 0.74124 0.06747 0.0
C972 C 0.22766 0.73578 0.04483 0.0
H973 H 0.23678 0.75562 0.10527 0.0
H974 H 0.26058 0.7405 0.06864 0.0
C975 C 0.20063 0.73618 0.04413 0.0
C976 C 0.24699 0.84682 0.93042 0.0
C977 C 0.26036 0.87127 0.9222 0.0
H978 H 0.24876 0.81353 0.95086 0.0
C979 C 0.28627 0.88137 0.92947 0.0
H980 H 0.22697 0.83853 0.92525 0.0
C981 C 0.29885 0.86702 0.94411 0.0
C982 C 0.28572 0.84227 0.95197 0.0
H983 H 0.29702 0.90021 0.92344 0.0
H984 H 0.31901 0.87514 0.94896 0.0
C985 C 0.2595 0.83253 0.94519 0.0
C986 C 0.26029 0.2066 0.9809 0.0
C987 C 0.28025 0.21564 0.96373 0.0
H988 H 0.24658 0.2087 1.01831 0.0
C989 C 0.30386 0.23171 0.9722 0.0
H990 H 0.24188 0.19427 0.97484 0.0
C991 C 0.30659 0.24024 0.9973 0.0
C992 C 0.2857 0.23285 1.01428 0.0
H993 H 0.31943 0.23921 0.95928 0.0
H994 H 0.32426 0.25411 1.00308 0.0
C995 C 0.26303 0.21495 1.00583 0.0
C996 C 0.88399 0.29104 0.9222 0.0
C997 C 0.91143 0.29305 0.92033 0.0
H998 H 0.85125 0.30362 0.94217 0.0
C999 C 0.92723 0.31113 0.93696 0.0
H1000 H 0.87131 0.27761 0.90937 0.0
C1001 C 0.91568 0.32589 0.95603 0.0
C1002 C 0.88811 0.32288 0.95864 0.0
H1003 H 0.94846 0.31307 0.93579 0.0
H1004 H 0.92829 0.33874 0.96924 0.0
C1005 C 0.87248 0.30587 0.94109 0.0
C1006 C 0.83476 0.86894 0.93567 0.0
C1007 C 0.84334 0.84774 0.92082 0.0
H1008 H 0.81573 0.88134 0.96931 0.0
C1009 C 0.83885 0.822 0.92937 0.0
H1010 H 0.83827 0.88913 0.92988 0.0
C1011 C 0.82596 0.81757 0.95208 0.0
C1012 C 0.81721 0.83875 0.96681 0.0
H1013 H 0.8448 0.80511 0.9183 0.0
H1014 H 0.8224 0.79739 0.95784 0.0
C1015 C 0.82181 0.86449 0.95831 0.0
C1016 C 0.11907 0.20847 0.26333 0.0
C1017 C 0.12484 0.21596 0.2393 0.0
H1018 H 0.09395 0.2102 0.29567 0.0
C1019 C 0.10897 0.23205 0.23001 0.0
H1020 H 0.13105 0.19679 0.27161 0.0
C1021 C 0.08828 0.2405 0.24432 0.0
C1022 C 0.08243 0.23252 0.26801 0.0
H1023 H 0.11215 0.23786 0.21153 0.0
H1024 H 0.0764 0.25279 0.23667 0.0
C1025 C 0.09791 0.21632 0.27732 0.0
C1026 C 0.84937 0.17125 0.21389 0.0
C1027 C 0.87582 0.18069 0.2072 0.0
H1028 H 0.82208 0.14278 0.23331 0.0
C1029 C 0.89498 0.16638 0.21321 0.0
H1030 H 0.83426 0.18201 0.20969 0.0
C1031 C 0.88814 0.14407 0.22674 0.0
C1032 C 0.86192 0.13534 0.23463 0.0
H1033 H 0.91552 0.17303 0.20806 0.0
H1034 H 0.90352 0.13389 0.23133 0.0
C1035 C 0.84248 0.14881 0.22751 0.0
C1036 C 0.95982 0.84153 0.22008 0.0
C1037 C 0.94081 0.85571 0.23121 0.0
H1038 H 0.99302 0.82333 0.22449 0.0
C1039 C 0.94104 0.86209 0.25673 0.0
H1040 H 0.96025 0.83639 0.20044 0.0
C1041 C 0.95986 0.85438 0.27072 0.0
C1042 C 0.97891 0.84006 0.25954 0.0
H1043 H 0.92665 0.87294 0.26594 0.0
H1044 H 0.9592 0.85937 0.29032 0.0
C1045 C 0.97857 0.83387 0.23397 0.0
C1046 C 0.22093 0.87978 0.20277 0.0
C1047 C 0.21916 0.87239 0.17748 0.0
H1048 H 0.23551 0.91005 0.23115 0.0
C1049 C 0.23224 0.89043 0.16113 0.0
H1050 H 0.21134 0.86607 0.21579 0.0
C1051 C 0.24589 0.91588 0.16994 0.0
C1052 C 0.24685 0.92371 0.19528 0.0
H1053 H 0.23101 0.8853 0.14155 0.0
H1054 H 0.25491 0.9297 0.15683 0.0
C1055 C 0.23464 0.90509 0.21156 0.0
C1056 C 0.14568 0.83461 0.83731 0.0
C1057 C 0.14917 0.86288 0.83912 0.0
H1058 H 0.12096 0.79693 0.82667 0.0
C1059 C 0.1294 0.8747 0.8302 0.0
H1060 H 0.16064 0.82463 0.84318 0.0
C1061 C 0.10674 0.85859 0.81993 0.0
C1062 C 0.10321 0.83041 0.81885 0.0
H1063 H 0.13118 0.89641 0.83148 0.0
H1064 H 0.09172 0.86814 0.81353 0.0
C1065 C 0.12296 0.81866 0.82755 0.0
C1066 C 0.29635 0.14908 0.881 0.0
C1067 C 0.29226 0.17475 0.8762 0.0
H1068 H 0.30459 0.11052 0.86574 0.0
C1069 C 0.29733 0.18224 0.85219 0.0
H1070 H 0.29261 0.14257 0.89922 0.0
C1071 C 0.30379 0.16388 0.83317 0.0
C1072 C 0.30602 0.13766 0.83759 0.0
H1073 H 0.29514 0.20201 0.84782 0.0
H1074 H 0.30595 0.16987 0.81469 0.0
C1075 C 0.30327 0.13071 0.86185 0.0
C1076 C 0.98012 0.23935 0.81806 0.0
C1077 C 0.97586 0.21995 0.83497 0.0
H1078 H 1.00816 0.26439 0.79646 0.0
C1079 C 0.99692 0.20843 0.84106 0.0
H1080 H 0.96403 0.24834 0.81306 0.0
C1081 C 0.0224 0.21782 0.83182 0.0
C1082 C 0.02702 0.23867 0.8162 0.0
H1083 H 0.99393 0.19343 0.85413 0.0
H1084 H 0.0386 0.2098 0.83796 0.0
C1085 C 1.00541 0.24845 0.80857 0.0
C1086 C 0.85777 0.94653 0.80268 0.0
C1087 C 0.84491 0.92409 0.81458 0.0
H1088 H 0.85414 0.98374 0.78863 0.0
C1089 C 0.81746 0.92022 0.81838 0.0
H1090 H 0.87892 0.9499 0.7994 0.0
C1091 C 0.80345 0.93928 0.81219 0.0
C1092 C 0.81641 0.96276 0.80197 0.0
H1093 H 0.8068 0.9029 0.82702 0.0
H1094 H 0.78245 0.93615 0.81643 0.0
C1095 C 0.84361 0.9658 0.7964 0.0
C1096 C 0.23255 0.10282 0.20632 0.0
C1097 C 0.21052 0.11285 0.21662 0.0
H1098 H 0.25773 0.07405 0.20748 0.0
C1099 C 0.19608 0.10023 0.23601 0.0
H1100 H 0.244 0.11215 0.19133 0.0
C1101 C 0.20383 0.07831 0.24519 0.0
C1102 C 0.22625 0.06862 0.23527 0.0
H1103 H 0.17893 0.10739 0.2443 0.0
H1104 H 0.19248 0.06931 0.26039 0.0
C1105 C 0.24039 0.08099 0.21557 0.0
C1106 C 0.20528 0.96342 0.83392 0.0
C1107 C 0.22086 0.94447 0.83763 0.0
H1108 H 0.20365 1.00119 0.82077 0.0
C1109 C 0.24757 0.94945 0.8302 0.0
H1110 H 0.18465 0.96019 0.83969 0.0
C1111 C 0.25845 0.9728 0.81906 0.0
C1112 C 0.2429 0.99185 0.81527 0.0
H1113 H 0.25994 0.93497 0.83252 0.0
H1114 H 0.27896 0.9756 0.81307 0.0
C1115 C 0.21618 0.98688 0.82296 0.0
C1116 C 0.1992 0.26095 0.84487 0.0
C1117 C 0.20134 0.25429 0.86875 0.0
H1118 H 0.1777 0.27792 0.82035 0.0
C1119 C 0.18219 0.25991 0.88667 0.0
H1120 H 0.21372 0.25696 0.83069 0.0
C1121 C 0.16129 0.27182 0.88071 0.0
C1122 C 0.15903 0.27838 0.85669 0.0
H1123 H 0.18321 0.25497 0.90525 0.0
H1124 H 0.1467 0.27545 0.89487 0.0
C1125 C 0.1784 0.27285 0.83891 0.0
C1126 C 0.8744 0.14726 0.87326 0.0
C1127 C 0.89107 0.15768 0.85404 0.0
H1128 H 0.84245 0.11682 0.88403 0.0
C1129 C 0.88912 0.14347 0.83071 0.0
H1130 H 0.87568 0.15747 0.89158 0.0
C1131 C 0.87039 0.11992 0.82649 0.0
C1132 C 0.85293 0.11007 0.84545 0.0
H1133 H 0.90147 0.15099 0.81543 0.0
H1134 H 0.86951 0.10964 0.80824 0.0
C1135 C 0.8555 0.12377 0.869 0.0
C1136 C 0.91702 0.82354 0.83134 0.0
C1137 C 0.91357 0.83237 0.85625 0.0
H1138 H 0.93999 0.80398 0.80403 0.0
C1139 C 0.9317 0.82773 0.87283 0.0
H1140 H 0.90329 0.82618 0.81803 0.0
C1141 C 0.9524 0.81443 0.8648 0.0
C1142 C 0.95585 0.80581 0.83993 0.0
H1143 H 0.93017 0.83467 0.89205 0.0
H1144 H 0.96611 0.81147 0.87799 0.0
C1145 C 0.93797 0.81061 0.82329 0.0
C1146 C 0.83179 0.94252 0.24567 0.0
C1147 C 0.83741 0.93915 0.22033 0.0
H1148 H 0.82025 0.96821 0.27609 0.0
C1149 C 0.83194 0.95873 0.2058 0.0
H1150 H 0.83513 0.92775 0.25745 0.0
C1151 C 0.82279 0.98183 0.21657 0.0
C1152 C 0.81878 0.98575 0.24206 0.0
H1153 H 0.83614 0.957 0.18625 0.0
H1154 H 0.82065 0.99744 0.2052 0.0
C1155 C 0.82278 0.96552 0.25634 0.0
C1156 C 0.11779 0.82952 0.18803 0.0
C1157 C 0.13335 0.80964 0.18322 0.0
H1158 H 0.08603 0.84242 0.20944 0.0
C1159 C 0.12569 0.78497 0.19349 0.0
H1160 H 0.12304 0.84851 0.17994 0.0
C1161 C 0.10435 0.78138 0.21029 0.0
C1162 C 0.09059 0.80249 0.21705 0.0
H1163 H 0.13741 0.76934 0.19005 0.0
H1164 H 0.10003 0.76299 0.21939 0.0
C1165 C 0.09662 0.82601 0.20486 0.0
C1166 C 0.93287 0.27939 0.23555 0.0
C1167 C 0.9372 0.26833 0.21157 0.0
H1168 H 0.95002 0.29814 0.26894 0.0
C1169 C 0.96304 0.27083 0.20173 0.0
H1170 H 0.91305 0.27755 0.24348 0.0
C1171 C 0.9844 0.2823 0.21639 0.0
C1172 C 0.98014 0.29151 0.24107 0.0
H1173 H 0.96677 0.26218 0.18331 0.0
H1174 H 1.00418 0.2824 0.20883 0.0
C1175 C 0.9541 0.29109 0.2501 0.0
C1176 C 0.25736 0.75592 0.65265 0.0
C1177 C 0.23014 0.74715 0.65008 0.0
H1178 H 0.29401 0.77392 0.63641 0.0
C1179 C 0.21853 0.75328 0.62927 0.0
H1180 H 0.26683 0.75213 0.6687 0.0
C1181 C 0.23428 0.76623 0.61063 0.0
C1182 C 0.26179 0.77299 0.61258 0.0
H1183 H 0.19758 0.74679 0.62682 0.0
H1184 H 0.22517 0.76955 0.59422 0.0
C1185 C 0.27294 0.76845 0.63413 0.0
C1186 C 0.81486 0.74722 0.6012 0.0
C1187 C 0.8348 0.75745 0.61789 0.0
H1188 H 0.7937 0.75485 0.57087 0.0
C1189 C 0.84833 0.78412 0.61712 0.0
H1190 H 0.8041 0.72671 0.60147 0.0
C1191 C 0.84245 0.80007 0.59979 0.0
C1192 C 0.82286 0.78984 0.58274 0.0
H1193 H 0.8637 0.79275 0.62977 0.0
H1194 H 0.85352 0.82047 0.5997 0.0
C1195 C 0.80891 0.76329 0.58373 0.0
C1196 C 0.89319 0.35205 0.65858 0.0
C1197 C 0.87552 0.3615 0.67624 0.0
H1198 H 0.89845 0.32886 0.62459 0.0
C1199 C 0.84836 0.35366 0.67233 0.0
H1200 H 0.91424 0.35801 0.66064 0.0
C1201 C 0.83918 0.33668 0.6515 0.0
C1202 C 0.85689 0.32711 0.63387 0.0
H1203 H 0.83413 0.36025 0.68561 0.0
H1204 H 0.81815 0.33079 0.64945 0.0
C1205 C 0.88405 0.3352 0.63777 0.0
C1206 C 0.33288 0.35761 0.64731 0.0
C1207 C 0.30674 0.34878 0.65534 0.0
H1208 H 0.35877 0.37728 0.6203 0.0
C1209 C 0.28629 0.35575 0.64302 0.0
H1210 H 0.349 0.35237 0.65639 0.0
C1211 C 0.2919 0.37054 0.62269 0.0
C1212 C 0.31798 0.3782 0.61384 0.0
H1213 H 0.26587 0.34884 0.64825 0.0
H1214 H 0.27571 0.37483 0.61307 0.0
C1215 C 0.33849 0.37219 0.6268 0.0
C1216 C 0.23795 0.3773 0.4476 0.0
C1217 C 0.24159 0.40416 0.44171 0.0
H1218 H 0.24923 0.34967 0.47041 0.0
C1219 C 0.25861 0.42415 0.45566 0.0
H1220 H 0.22487 0.36142 0.4372 0.0
C1221 C 0.27236 0.4175 0.47459 0.0
C1222 C 0.26951 0.39061 0.48013 0.0
H1223 H 0.26169 0.44502 0.45164 0.0
H1224 H 0.28572 0.43352 0.48456 0.0
C1225 C 0.25179 0.37058 0.4667 0.0
C1226 C 0.2842 0.7081 0.43855 0.0
C1227 C 0.27739 0.72578 0.42289 0.0
H1228 H 0.29761 0.7034 0.47385 0.0
C1229 C 0.28076 0.7534 0.43109 0.0
H1230 H 0.28171 0.68669 0.43295 0.0
C1231 C 0.28981 0.76295 0.45449 0.0
C1232 C 0.29583 0.74521 0.47049 0.0
H1233 H 0.27635 0.76776 0.41938 0.0
H1234 H 0.29212 0.78435 0.46 0.0
C1235 C 0.2933 0.71769 0.46205 0.0
C1236 C 0.86895 0.7539 0.43792 0.0
C1237 C 0.88702 0.7654 0.42026 0.0
H1238 H 0.84649 0.76052 0.47092 0.0
C1239 C 0.89681 0.79331 0.42294 0.0
H1240 H 0.86132 0.73239 0.43656 0.0
C1241 C 0.88812 0.80958 0.44262 0.0
C1242 C 0.86949 0.79819 0.46 0.0
H1243 H 0.91089 0.80261 0.40958 0.0
H1244 H 0.89544 0.83112 0.44384 0.0
C1245 C 0.86036 0.77009 0.4576 0.0
C1246 C 0.85222 0.3564 0.4829 0.0
C1247 C 0.83349 0.34914 0.46475 0.0
H1248 H 0.86046 0.35724 0.52061 0.0
C1249 C 0.80727 0.33856 0.47162 0.0
H1250 H 0.87245 0.36505 0.47816 0.0
C1251 C 0.80029 0.33387 0.49602 0.0
C1252 C 0.81936 0.34003 0.51406 0.0
H1253 H 0.79242 0.33288 0.45793 0.0
H1254 H 0.78027 0.32438 0.50053 0.0
C1255 C 0.84521 0.35214 0.50728 0.0
C1256 C 0.13342 0.70159 0.71677 0.0
C1257 C 0.15343 0.72301 0.7104 0.0
H1258 H 0.09659 0.68952 0.73599 0.0
C1259 C 0.15053 0.74954 0.71843 0.0
H1260 H 0.13475 0.68091 0.71058 0.0
C1261 C 0.12857 0.75445 0.733 0.0
C1262 C 0.10894 0.73296 0.73995 0.0
H1263 H 0.16569 0.7665 0.71422 0.0
H1264 H 0.12742 0.77509 0.73944 0.0
C1265 C 0.11153 0.70649 0.73141 0.0
C1266 C 0.84272 0.65229 0.68714 0.0
C1267 C 0.85534 0.67362 0.70321 0.0
H1268 H 0.82128 0.61169 0.68297 0.0
C1269 C 0.85456 0.67032 0.72834 0.0
H1270 H 0.84317 0.65414 0.66765 0.0
C1271 C 0.84195 0.6461 0.73715 0.0
C1272 C 0.82985 0.62443 0.72107 0.0
H1273 H 0.8637 0.68656 0.74125 0.0
H1274 H 0.84161 0.64451 0.75664 0.0
C1275 C 0.83018 0.62794 0.69595 0.0
C1276 C 0.99049 0.40187 0.79134 0.0
C1277 C 0.97654 0.38777 0.77129 0.0
H1278 H 0.02234 0.40437 0.81528 0.0
C1279 C 0.98484 0.3646 0.75976 0.0
H1280 H 0.98453 0.41975 0.80064 0.0
C1281 C 1.00659 0.3558 0.76808 0.0
C1282 C 0.02068 0.36992 0.78814 0.0
H1283 H 0.97463 0.35325 0.74422 0.0
H1284 H 1.01256 0.33811 0.75849 0.0
C1285 C 1.01228 0.3931 0.79965 0.0
C1286 C 0.25338 0.42565 0.74273 0.0
C1287 C 0.26252 0.41408 0.72033 0.0
H1288 H 0.2569 0.46004 0.76904 0.0
C1289 C 0.28257 0.42968 0.70679 0.0
H1290 H 0.23836 0.41409 0.75391 0.0
C1291 C 0.29352 0.45607 0.7157 0.0
C1292 C 0.28456 0.46741 0.73826 0.0
H1293 H 0.28985 0.42146 0.68935 0.0
H1294 H 0.30915 0.46747 0.705 0.0
C1295 C 0.26417 0.452 0.75152 0.0
C1296 C 0.12665 0.36968 0.32787 0.0
C1297 C 0.13402 0.37626 0.35241 0.0
H1298 H 0.09666 0.34978 0.30325 0.0
C1299 C 0.11532 0.36845 0.37111 0.0
H1300 H 0.14055 0.37499 0.31292 0.0
C1301 C 0.09039 0.35362 0.36549 0.0
C1302 C 0.08329 0.34662 0.34105 0.0
H1303 H 0.1199 0.3737 0.39019 0.0
H1304 H 0.07671 0.34741 0.38037 0.0
C1305 C 0.10148 0.3552 0.32227 0.0
C1306 C 0.28525 0.64407 0.3516 0.0
C1307 C 0.27603 0.66573 0.34286 0.0
H1308 H 0.29966 0.60693 0.34244 0.0
C1309 C 0.27684 0.66719 0.31739 0.0
H1310 H 0.28491 0.64209 0.37104 0.0
C1311 C 0.28495 0.64699 0.3012 0.0
C1312 C 0.29304 0.62482 0.30982 0.0
H1313 H 0.27084 0.68385 0.30979 0.0
H1314 H 0.28439 0.64849 0.28172 0.0
C1315 C 0.29379 0.62389 0.33524 0.0
C1316 C 0.97622 0.70516 0.35332 0.0
C1317 C 0.95493 0.69676 0.33784 0.0
H1318 H 1.01587 0.72618 0.35691 0.0
C1319 C 0.95886 0.69934 0.31266 0.0
H1320 H 0.97369 0.70298 0.37276 0.0
C1321 C 0.98301 0.71273 0.30352 0.0
C1322 C 1.00346 0.72365 0.3195 0.0
H1323 H 0.94269 0.69299 0.30038 0.0
H1324 H 0.98492 0.71622 0.28434 0.0
C1325 C 1.00033 0.71842 0.34421 0.0
C1326 C 0.79625 0.42579 0.36834 0.0
C1327 C 0.81163 0.4105 0.35296 0.0
H1328 H 0.77391 0.4575 0.37156 0.0
C1329 C 0.81533 0.41516 0.32818 0.0
H1330 H 0.79298 0.42269 0.38755 0.0
C1331 C 0.80433 0.43506 0.31901 0.0
C1332 C 0.78935 0.45076 0.33446 0.0
H1333 H 0.82697 0.40354 0.31591 0.0
H1334 H 0.80752 0.43811 0.29979 0.0
C1335 C 0.78518 0.44567 0.35916 0.0
C1336 C 0.25038 0.63285 0.72411 0.0
C1337 C 0.26026 0.64269 0.70181 0.0
H1338 H 0.25592 0.60956 0.75308 0.0
C1339 C 0.2838 0.63597 0.69143 0.0
H1340 H 0.23227 0.63768 0.73259 0.0
C1341 C 0.29743 0.61999 0.70324 0.0
C1342 C 0.28764 0.61012 0.72557 0.0
H1343 H 0.29182 0.64329 0.67422 0.0
H1344 H 0.31551 0.61512 0.69476 0.0
C1345 C 0.26387 0.61661 0.7358 0.0
C1346 C 0.24059 0.44851 0.32805 0.0
C1347 C 0.21355 0.44641 0.33411 0.0
H1348 H 0.27402 0.46818 0.30776 0.0
C1349 C 0.19967 0.46387 0.32423 0.0
H1350 H 0.25183 0.43516 0.33501 0.0
C1351 C 0.21235 0.48259 0.30843 0.0
C1352 C 0.2393 0.48454 0.30222 0.0
H1353 H 0.17897 0.46322 0.32884 0.0
H1354 H 0.20108 0.49583 0.30136 0.0
C1355 C 0.25331 0.46739 0.31235 0.0
C1356 C 0.17 0.75928 0.35141 0.0
C1357 C 0.17799 0.73979 0.33404 0.0
H1358 H 0.14412 0.78753 0.36024 0.0
C1359 C 0.16544 0.73425 0.31155 0.0
H1360 H 0.1792 0.76407 0.36894 0.0
C1361 C 0.14537 0.74773 0.30651 0.0
C1362 C 0.13724 0.76726 0.32381 0.0
H1363 H 0.1712 0.71943 0.29774 0.0
H1364 H 0.13647 0.74303 0.28885 0.0
C1365 C 0.14993 0.77288 0.34634 0.0
C1366 C 0.84661 0.62301 0.35351 0.0
C1367 C 0.8655 0.63737 0.33802 0.0
H1368 H 0.81406 0.59039 0.3565 0.0
C1369 C 0.86618 0.62856 0.31287 0.0
H1370 H 0.84586 0.62882 0.37302 0.0
C1371 C 0.84821 0.60611 0.30345 0.0
C1372 C 0.829 0.59225 0.31894 0.0
H1373 H 0.88021 0.63934 0.30032 0.0
H1374 H 0.84895 0.60002 0.28398 0.0
C1375 C 0.82849 0.60084 0.34405 0.0
C1376 C 0.89807 0.30843 0.3971 0.0
C1377 C 0.89426 0.33406 0.39214 0.0
H1378 H 0.92169 0.27794 0.39072 0.0
C1379 C 0.91264 0.34876 0.3764 0.0
H1380 H 0.88412 0.29632 0.40879 0.0
C1381 C 0.93424 0.33817 0.36597 0.0
C1382 C 0.9381 0.31257 0.371 0.0
H1383 H 0.91062 0.36873 0.37244 0.0
H1384 H 0.94816 0.3503 0.3543 0.0
C1385 C 0.91968 0.29786 0.3867 0.0
C1386 C 0.86399 0.45818 0.7193 0.0
C1387 C 0.8731 0.44375 0.73653 0.0
H1388 H 0.84388 0.48971 0.71283 0.0
C1389 C 0.87038 0.45276 0.76159 0.0
H1390 H 0.8664 0.45265 0.69986 0.0
C1391 C 0.85782 0.47477 0.7691 0.0
C1392 C 0.84755 0.48806 0.75171 0.0
H1393 H 0.87704 0.44221 0.77548 0.0
H1394 H 0.85506 0.4805 0.78846 0.0
C1395 C 0.85128 0.47975 0.72676 0.0
C1396 C 0.16698 0.34946 0.71327 0.0
C1397 C 0.1874 0.33594 0.71739 0.0
H1398 H 0.12703 0.35366 0.7216 0.0
C1399 C 0.18178 0.31351 0.73111 0.0
H1400 H 0.17068 0.36659 0.70248 0.0
C1401 C 0.15679 0.30607 0.74207 0.0
C1402 C 0.1369 0.32088 0.73948 0.0
H1403 H 0.19714 0.30277 0.73471 0.0
H1404 H 0.15353 0.28963 0.75365 0.0
C1405 C 0.14194 0.34195 0.72414 0.0
C1406 C 0.95441 0.72789 0.70377 0.0
C1407 C 0.93633 0.74522 0.70377 0.0
H1408 H 0.99041 0.72158 0.71726 0.0
C1409 C 0.94308 0.77183 0.71475 0.0
H1410 H 0.94994 0.70746 0.69506 0.0
C1411 C 0.96656 0.78008 0.72745 0.0
C1412 C 0.98343 0.76176 0.72917 0.0
H1413 H 0.92943 0.78559 0.71496 0.0
H1414 H 0.97042 0.79988 0.73746 0.0
C1415 C 0.97766 0.73605 0.71633 0.0
C1416 C 0.71949 0.24287 0.64777 0.0
C1417 C 0.71648 0.21518 0.65083 0.0
H1418 H 0.73589 0.27494 0.6255 0.0
C1419 C 0.72564 0.19813 0.63189 0.0
H1420 H 0.7127 0.25658 0.66203 0.0
C1421 C 0.73887 0.2086 0.61118 0.0
C1422 C 0.74322 0.23641 0.60867 0.0
H1423 H 0.72309 0.17664 0.63331 0.0
H1424 H 0.74641 0.19488 0.5974 0.0
C1425 C 0.73273 0.2534 0.62684 0.0
C1426 C 0.3142 0.27975 0.60483 0.0
C1427 C 0.33902 0.27441 0.60971 0.0
H1428 H 0.29194 0.29775 0.58132 0.0
C1429 C 0.36002 0.28081 0.5928 0.0
H1430 H 0.29766 0.27498 0.6176 0.0
C1431 C 0.35669 0.29338 0.5721 0.0
C1432 C 0.33231 0.30003 0.56771 0.0
H1433 H 0.37929 0.27663 0.59578 0.0
H1434 H 0.37362 0.29877 0.55989 0.0
C1435 C 0.31086 0.29254 0.584 0.0
C1436 C 0.3541 0.88573 0.66594 0.0
C1437 C 0.3792 0.88656 0.67497 0.0
H1438 H 0.32746 0.87201 0.63696 0.0
C1439 C 0.39697 0.87347 0.66028 0.0
H1440 H 0.33974 0.89533 0.67672 0.0
C1441 C 0.38981 0.85963 0.63754 0.0
C1442 C 0.36463 0.85852 0.62849 0.0
H1443 H 0.41666 0.87399 0.66627 0.0
H1444 H 0.40416 0.84965 0.62727 0.0
C1445 C 0.34694 0.87198 0.64307 0.0
C1446 C 0.72968 0.87789 0.62725 0.0
C1447 C 0.71946 0.90163 0.62784 0.0
H1448 H 0.75662 0.85428 0.61011 0.0
C1449 C 0.72956 0.92048 0.61113 0.0
H1450 H 0.72271 0.86326 0.64029 0.0
C1451 C 0.74879 0.91511 0.59336 0.0
C1452 C 0.75851 0.89091 0.59223 0.0
H1453 H 0.72209 0.93906 0.61142 0.0
H1454 H 0.75538 0.92958 0.58014 0.0
C1455 C 0.74913 0.87273 0.60983 0.0
C1456 C 0.71054 0.85147 0.45711 0.0
C1457 C 0.72595 0.84937 0.4354 0.0
H1458 H 0.70642 0.84566 0.49532 0.0
C1459 C 0.74788 0.83685 0.4351 0.0
H1460 H 0.69346 0.86099 0.45784 0.0
C1461 C 0.75503 0.82762 0.45638 0.0
C1462 C 0.74064 0.83119 0.47856 0.0
H1463 H 0.75995 0.83484 0.41851 0.0
H1464 H 0.77269 0.81901 0.45567 0.0
C1465 C 0.71792 0.8426 0.47856 0.0
C1466 C 0.73369 0.22257 0.44686 0.0
C1467 C 0.74841 0.2138 0.42627 0.0
H1468 H 0.73315 0.23608 0.48523 0.0
C1469 C 0.77502 0.21262 0.42949 0.0
H1470 H 0.71312 0.22351 0.44543 0.0
C1471 C 0.78631 0.21937 0.45245 0.0
C1472 C 0.77157 0.228 0.47295 0.0
H1473 H 0.78742 0.20682 0.41415 0.0
H1474 H 0.80682 0.21831 0.45404 0.0
C1475 C 0.74515 0.22971 0.46981 0.0
C1476 C 0.36055 0.27399 0.42392 0.0
C1477 C 0.38698 0.27585 0.41591 0.0
H1478 H 0.33256 0.29165 0.44687 0.0
C1479 C 0.40581 0.29774 0.4253 0.0
H1480 H 0.34554 0.25745 0.41691 0.0
C1481 C 0.39833 0.31743 0.44253 0.0
C1482 C 0.37193 0.31541 0.45078 0.0
H1483 H 0.42632 0.29962 0.41933 0.0
H1484 H 0.41325 0.33394 0.44972 0.0
C1485 C 0.35312 0.29354 0.44119 0.0
C1486 C 0.30677 0.85743 0.45918 0.0
C1487 C 0.33116 0.8724 0.45182 0.0
H1488 H 0.28287 0.84028 0.48889 0.0
C1489 C 0.34914 0.88448 0.4697 0.0
H1490 H 0.29261 0.84789 0.44565 0.0
C1491 C 0.34347 0.88062 0.49437 0.0
C1492 C 0.31984 0.86413 0.50175 0.0
H1493 H 0.36799 0.8963 0.46447 0.0
H1494 H 0.3583 0.88949 0.50748 0.0
C1495 C 0.3012 0.85318 0.48393 0.0
C1496 C 0.64461 0.20872 0.74641 0.0
C1497 C 0.64786 0.20873 0.72074 0.0
H1498 H 0.61932 0.21318 0.77823 0.0
C1499 C 0.62753 0.21537 0.70784 0.0
H1500 H 0.66 0.20477 0.7573 0.0
C1501 C 0.60454 0.22121 0.72021 0.0
C1502 C 0.60111 0.21986 0.74559 0.0
H1503 H 0.62898 0.21539 0.68813 0.0
H1504 H 0.58906 0.22595 0.70991 0.0
C1505 C 0.62139 0.21376 0.75857 0.0
C1506 C 0.3533 0.19708 0.72911 0.0
C1507 C 0.35468 0.19888 0.70367 0.0
H1508 H 0.34182 0.17212 0.75842 0.0
C1509 C 0.3438 0.17609 0.68822 0.0
H1510 H 0.36111 0.21439 0.74157 0.0
C1511 C 0.33275 0.15181 0.69792 0.0
C1512 C 0.33238 0.14974 0.72329 0.0
H1513 H 0.34484 0.17665 0.66854 0.0
H1514 H 0.32534 0.1344 0.68546 0.0
C1515 C 0.34237 0.17281 0.73878 0.0
C1516 C 0.46672 0.89172 0.80727 0.0
C1517 C 0.45585 0.88299 0.7843 0.0
H1518 H 0.49183 0.88489 0.83479 0.0
C1519 C 0.46244 0.85966 0.77136 0.0
H1520 H 0.46196 0.90957 0.81771 0.0
C1521 C 0.47965 0.84555 0.78105 0.0
C1522 C 0.49078 0.85434 0.804 0.0
H1523 H 0.45452 0.85234 0.75357 0.0
H1524 H 0.4846 0.82806 0.77022 0.0
C1525 C 0.48396 0.8776 0.817 0.0
C1526 C 0.67933 0.9621 0.73127 0.0
C1527 C 0.67023 0.93597 0.73833 0.0
H1528 H 0.70047 1.00195 0.74161 0.0
C1529 C 0.67232 0.93133 0.76293 0.0
H1530 H 0.67749 0.96656 0.71266 0.0
C1531 C 0.68487 0.95183 0.77958 0.0
C1532 C 0.69589 0.97717 0.77185 0.0
H1533 H 0.66585 0.91143 0.76903 0.0
H1534 H 0.68779 0.94727 0.79794 0.0
C1535 C 0.69222 0.98242 0.74783 0.0
C1536 C 0.63302 0.85105 0.33784 0.0
C1537 C 0.63865 0.8788 0.3452 0.0
H1538 H 0.60441 0.81731 0.32446 0.0
C1539 C 0.62005 0.89472 0.34122 0.0
H1540 H 0.64715 0.83838 0.34027 0.0
C1541 C 0.59535 0.88254 0.33186 0.0
C1542 C 0.58918 0.85441 0.32647 0.0
H1543 H 0.62397 0.91618 0.34673 0.0
H1544 H 0.58059 0.89476 0.33043 0.0
C1545 C 0.60859 0.83902 0.32871 0.0
C1546 C 0.73102 0.13715 0.33082 0.0
C1547 C 0.74665 0.15912 0.34429 0.0
H1548 H 0.73037 0.10005 0.30743 0.0
C1549 C 0.7741 0.16182 0.34202 0.0
H1550 H 0.70975 0.13462 0.33211 0.0
C1551 C 0.7857 0.14249 0.32791 0.0
C1552 C 0.77032 0.11959 0.3156 0.0
H1553 H 0.78675 0.17877 0.35161 0.0
H1554 H 0.807 0.14519 0.32728 0.0
C1555 C 0.74278 0.11744 0.31661 0.0
C1556 C 0.44582 0.19314 0.30402 0.0
C1557 C 0.43074 0.21268 0.31269 0.0
H1558 H 0.48118 0.18526 0.28489 0.0
C1559 C 0.43891 0.23925 0.30656 0.0
H1560 H 0.43998 0.1725 0.30854 0.0
C1561 C 0.46232 0.24647 0.29308 0.0
C1562 C 0.4781 0.2273 0.28541 0.0
H1563 H 0.42735 0.25458 0.31248 0.0
H1564 H 0.46829 0.26722 0.28895 0.0
C1565 C 0.46932 0.20039 0.29046 0.0
C1566 C 0.33095 0.94514 0.31662 0.0
C1567 C 0.3173 0.93054 0.33523 0.0
H1568 H 0.32906 0.97022 0.28804 0.0
C1569 C 0.29009 0.92967 0.33881 0.0
H1570 H 0.35194 0.94607 0.31344 0.0
C1571 C 0.27687 0.94344 0.32415 0.0
C1572 C 0.29064 0.95841 0.30572 0.0
H1573 H 0.27902 0.91849 0.35297 0.0
H1574 H 0.25593 0.94262 0.32747 0.0
C1575 C 0.31782 0.95896 0.30206 0.0
C1576 C 0.74727 0.13103 0.74995 0.0
C1577 C 0.75093 0.12654 0.7245 0.0
H1578 H 0.75289 0.11917 0.78502 0.0
C1579 C 0.76507 0.10646 0.71497 0.0
H1580 H 0.73687 0.14659 0.75799 0.0
C1581 C 0.77434 0.09037 0.73068 0.0
C1582 C 0.76975 0.09433 0.75615 0.0
H1583 H 0.76829 0.1027 0.69538 0.0
H1584 H 0.78439 0.07444 0.72288 0.0
C1585 C 0.7566 0.11525 0.76551 0.0
C1586 C 0.75249 0.94264 0.35736 0.0
C1587 C 0.72542 0.94347 0.35749 0.0
H1588 H 0.79202 0.9628 0.34983 0.0
C1589 C 0.71786 0.96682 0.35081 0.0
H1590 H 0.75906 0.92485 0.36207 0.0
C1591 C 0.73681 0.98853 0.34378 0.0
C1592 C 0.76381 0.98751 0.34326 0.0
H1593 H 0.69728 0.96842 0.35115 0.0
H1594 H 0.73029 1.00618 0.33867 0.0
C1595 C 0.77145 0.96443 0.35041 0.0
C1596 C 0.64432 0.25037 0.34231 0.0
C1597 C 0.66711 0.24629 0.3283 0.0
H1598 H 0.60585 0.26103 0.34225 0.0
C1599 C 0.66945 0.25254 0.3039 0.0
H1600 H 0.64196 0.24577 0.3612 0.0
C1601 C 0.64908 0.26124 0.29326 0.0
C1602 C 0.62581 0.26421 0.30674 0.0
H1603 H 0.68677 0.24979 0.29266 0.0
H1604 H 0.65114 0.26471 0.27405 0.0
C1605 C 0.62378 0.25934 0.33158 0.0
C1606 C 0.3381 0.14586 0.30693 0.0
C1607 C 0.34533 0.15208 0.33141 0.0
H1608 H 0.31551 0.11795 0.28086 0.0
C1609 C 0.33381 0.13462 0.34891 0.0
H1610 H 0.34616 0.15925 0.29313 0.0
C1611 C 0.31615 0.11087 0.34185 0.0
C1612 C 0.30976 0.10419 0.31716 0.0
H1613 H 0.33911 0.13885 0.3679 0.0
H1614 H 0.30826 0.09731 0.35553 0.0
C1615 C 0.32054 0.1222 0.2999 0.0
C1616 C 0.39783 0.82987 0.388 0.0
C1617 C 0.39296 0.85436 0.38108 0.0
H1618 H 0.42271 0.80039 0.38383 0.0
C1619 C 0.41065 0.86809 0.36417 0.0
H1620 H 0.38445 0.8185 0.40066 0.0
C1621 C 0.4325 0.85758 0.35437 0.0
C1622 C 0.43737 0.83314 0.36134 0.0
H1623 H 0.40785 0.88724 0.35872 0.0
H1624 H 0.44585 0.86889 0.34169 0.0
C1625 C 0.41977 0.81944 0.3783 0.0
C1626 C 0.37801 0.9839 0.72253 0.0
C1627 C 0.37914 0.96534 0.73961 0.0
H1628 H 0.36652 0.02057 0.71534 0.0
C1629 C 0.37142 0.97201 0.76418 0.0
H1630 H 0.38448 0.98008 0.70364 0.0
C1631 C 0.3615 0.99583 0.77106 0.0
C1632 C 0.35897 1.0134 0.7535 0.0
H1633 H 0.37194 0.95826 0.77789 0.0
H1634 H 0.35455 0.99974 0.7898 0.0
C1635 C 0.36793 1.00738 0.72932 0.0
C1636 C 0.62688 0.8286 0.73372 0.0
C1637 C 0.61762 0.84454 0.71806 0.0
H1638 H 0.61683 0.79885 0.75921 0.0
C1639 C 0.59066 0.84045 0.71382 0.0
H1640 H 0.64769 0.83169 0.73727 0.0
C1641 C 0.57289 0.82168 0.72635 0.0
C1642 C 0.58195 0.80704 0.74346 0.0
H1643 H 0.58324 0.85283 0.70192 0.0
H1644 H 0.55202 0.81994 0.72379 0.0
C1645 C 0.60921 0.80993 0.74628 0.0
C1646 C 0.45932 0.26238 0.68888 0.0
C1647 C 0.43668 0.26796 0.70204 0.0
H1648 H 0.50029 0.26073 0.69025 0.0
C1649 C 0.43893 0.27992 0.7262 0.0
H1650 H 0.45793 0.2529 0.67029 0.0
C1651 C 0.46316 0.2848 0.73753 0.0
C1652 C 0.48545 0.27718 0.72507 0.0
H1653 H 0.42164 0.28419 0.73671 0.0
H1654 H 0.4639 0.29271 0.75661 0.0
C1655 C 0.48348 0.26678 0.70035 0.0
C1656 C 0.71673 0.74552 0.15656 0.0
C1657 C 0.68924 0.74021 0.16017 0.0
H1658 H 0.74967 0.76111 0.13392 0.0
C1659 C 0.67369 0.74722 0.1426 0.0
H1660 H 0.72928 0.74071 0.16995 0.0
C1661 C 0.68535 0.75865 0.12157 0.0
C1662 C 0.71293 0.76363 0.11764 0.0
H1663 H 0.65241 0.74317 0.14478 0.0
H1664 H 0.67255 0.76302 0.10824 0.0
C1665 C 0.72842 0.7572 0.13571 0.0
C1666 C 0.33259 0.77603 0.08943 0.0
C1667 C 0.35502 0.76666 0.0955 0.0
H1668 H 0.31143 0.78783 0.06125 0.0
C1669 C 0.37447 0.76336 0.07718 0.0
H1670 H 0.31735 0.77885 0.10324 0.0
C1671 C 0.37083 0.76793 0.05297 0.0
C1672 C 0.34798 0.77651 0.04669 0.0
H1673 H 0.39195 0.75612 0.08131 0.0
H1674 H 0.38557 0.76397 0.03902 0.0
C1675 C 0.32928 0.7813 0.06538 0.0
C1676 C 0.36149 0.38772 0.1497 0.0
C1677 C 0.37175 0.37353 0.16642 0.0
H1678 H 0.33917 0.38578 0.11776 0.0
C1679 C 0.36823 0.34515 0.16183 0.0
H1680 H 0.3644 0.40953 0.15189 0.0
C1681 C 0.35426 0.33146 0.14156 0.0
C1682 C 0.34316 0.3458 0.12563 0.0
H1683 H 0.3756 0.33336 0.17427 0.0
H1684 H 0.35125 0.30965 0.13894 0.0
C1685 C 0.34723 0.37407 0.12984 0.0
C1686 C 0.80295 0.33524 0.15523 0.0
C1687 C 0.82748 0.33584 0.16528 0.0
H1688 H 0.78226 0.3464 0.12647 0.0
C1689 C 0.85044 0.34855 0.15328 0.0
H1690 H 0.78496 0.32421 0.16295 0.0
C1691 C 0.84885 0.3606 0.13173 0.0
C1692 C 0.82426 0.36045 0.12212 0.0
H1693 H 0.86961 0.34883 0.16039 0.0
H1694 H 0.86677 0.36958 0.12226 0.0
C1695 C 0.80135 0.34785 0.13417 0.0
C1696 C 0.75468 0.39857 0.96364 0.0
C1697 C 0.73862 0.37811 0.94927 0.0
H1698 H 0.78294 0.40877 0.99152 0.0
C1699 C 0.73804 0.35104 0.95338 0.0
H1700 H 0.75546 0.41958 0.96099 0.0
C1701 C 0.75381 0.34471 0.97122 0.0
C1702 C 0.77055 0.36535 0.98502 0.0
H1703 H 0.72576 0.33481 0.94262 0.0
H1704 H 0.75351 0.32375 0.97369 0.0
C1705 C 0.77046 0.39231 0.98117 0.0
C1706 C 0.74418 0.6905 0.97081 0.0
C1707 C 0.76157 0.69856 0.95131 0.0
H1708 H 0.73464 0.69607 1.00908 0.0
C1709 C 0.78503 0.71698 0.95644 0.0
H1710 H 0.72594 0.67637 0.96732 0.0
C1711 C 0.79 0.72863 0.98049 0.0
C1712 C 0.77159 0.72195 0.9998 0.0
H1713 H 0.79862 0.72372 0.94167 0.0
H1714 H 0.80737 0.7441 0.98362 0.0
C1715 C 0.74921 0.70188 0.99475 0.0
C1716 C 0.3555 0.78087 0.86172 0.0
C1717 C 0.34609 0.75885 0.84486 0.0
H1718 H 0.36018 0.79565 0.89956 0.0
C1719 C 0.33438 0.73415 0.85372 0.0
H1720 H 0.36433 0.80023 0.85542 0.0
C1721 C 0.33242 0.73143 0.87879 0.0
C1722 C 0.34145 0.75353 0.89566 0.0
H1723 H 0.32561 0.71713 0.84157 0.0
H1724 H 0.32267 0.71234 0.88503 0.0
C1725 C 0.35312 0.77828 0.8869 0.0
C1726 C 0.34974 0.32787 0.951 0.0
C1727 C 0.35925 0.35436 0.94498 0.0
H1728 H 0.32856 0.30254 0.97719 0.0
C1729 C 0.35441 0.37598 0.96175 0.0
H1730 H 0.35267 0.31072 0.93844 0.0
C1731 C 0.34025 0.37126 0.98377 0.0
C1732 C 0.33089 0.34482 0.98979 0.0
H1733 H 0.36187 0.39667 0.95804 0.0
H1734 H 0.33715 0.38832 0.99636 0.0
C1735 C 0.33581 0.32316 0.97318 0.0
C1736 C 0.62076 0.73002 0.25676 0.0
C1737 C 0.62287 0.73304 0.23146 0.0
H1738 H 0.59904 0.73534 0.29067 0.0
C1739 C 0.60421 0.74525 0.22137 0.0
H1740 H 0.63513 0.72156 0.26548 0.0
C1741 C 0.58389 0.75383 0.23614 0.0
C1742 C 0.58151 0.74993 0.26116 0.0
H1743 H 0.60492 0.7477 0.20199 0.0
H1744 H 0.56965 0.76296 0.22792 0.0
C1745 C 0.60015 0.73801 0.27132 0.0
C1746 C 0.35063 0.68474 0.21345 0.0
C1747 C 0.35803 0.68763 0.18868 0.0
H1748 H 0.33485 0.658 0.24051 0.0
C1749 C 0.35306 0.66469 0.17172 0.0
H1750 H 0.35369 0.70205 0.22696 0.0
C1751 C 0.34219 0.63928 0.17956 0.0
C1752 C 0.33614 0.63626 0.20454 0.0
H1753 H 0.35872 0.66613 0.15256 0.0
H1754 H 0.33951 0.62186 0.16619 0.0
C1755 C 0.33995 0.65943 0.22127 0.0
C1756 C 0.48994 0.36012 0.22722 0.0
C1757 C 0.48057 0.37476 0.24782 0.0
H1758 H 0.51531 0.33333 0.21292 0.0
C1759 C 0.49175 0.37419 0.27054 0.0
H1760 H 0.48219 0.36024 0.20933 0.0
C1761 C 0.51113 0.35844 0.27268 0.0
C1762 C 0.51972 0.34305 0.25207 0.0
H1763 H 0.48502 0.38533 0.28676 0.0
H1764 H 0.51878 0.35771 0.29049 0.0
C1765 C 0.50913 0.34461 0.22931 0.0
C1766 C 0.81238 0.42427 0.21465 0.0
C1767 C 0.78866 0.40941 0.22392 0.0
H1768 H 0.83792 0.46321 0.2143 0.0
C1769 C 0.77262 0.42298 0.24023 0.0
H1770 H 0.82525 0.41453 0.20206 0.0
C1771 C 0.77932 0.45057 0.24628 0.0
C1772 C 0.80276 0.46544 0.23696 0.0
H1773 H 0.75486 0.41228 0.24874 0.0
H1774 H 0.76634 0.46019 0.25889 0.0
C1775 C 0.81956 0.4521 0.22143 0.0
C1776 C 0.63404 0.3184 0.85138 0.0
C1777 C 0.63851 0.34657 0.85107 0.0
H1778 H 0.60938 0.28053 0.84078 0.0
C1779 C 0.62015 0.35805 0.8396 0.0
H1780 H 0.64784 0.30871 0.85961 0.0
C1781 C 0.59841 0.34177 0.82817 0.0
C1782 C 0.59417 0.31367 0.82842 0.0
H1783 H 0.62252 0.3797 0.83944 0.0
H1784 H 0.58476 0.35119 0.8194 0.0
C1785 C 0.61205 0.30219 0.84036 0.0
C1786 C 0.77879 0.62741 0.87315 0.0
C1787 C 0.76996 0.65023 0.86639 0.0
H1788 H 0.7929 0.59076 0.86082 0.0
C1789 C 0.77196 0.65486 0.8415 0.0
H1790 H 0.77752 0.6231 0.89211 0.0
C1791 C 0.78051 0.63633 0.82377 0.0
C1792 C 0.78775 0.61274 0.83029 0.0
H1793 H 0.76615 0.6725 0.83555 0.0
H1794 H 0.78057 0.64005 0.8047 0.0
C1795 C 0.78769 0.60887 0.85525 0.0
C1796 C 0.43515 0.69716 0.82182 0.0
C1797 C 0.42354 0.70425 0.80156 0.0
H1798 H 0.47025 0.70181 0.84204 0.0
C1799 C 0.43949 0.71891 0.78421 0.0
H1800 H 0.42314 0.68599 0.8355 0.0
C1801 C 0.4664 0.72764 0.78771 0.0
C1802 C 0.47777 0.72232 0.80892 0.0
H1803 H 0.4309 0.72456 0.76843 0.0
H1804 H 0.47791 0.73997 0.77454 0.0
C1805 C 0.46204 0.7063 0.82557 0.0
C1806 C 0.36056 0.44883 0.84856 0.0
C1807 C 0.38696 0.44561 0.84629 0.0
H1808 H 0.33206 0.47164 0.84016 0.0
C1809 C 0.40514 0.46356 0.83312 0.0
H1810 H 0.34602 0.43531 0.85856 0.0
C1811 C 0.3971 0.48455 0.82261 0.0
C1812 C 0.37065 0.4877 0.8248 0.0
H1813 H 0.4256 0.46147 0.8311 0.0
H1814 H 0.41148 0.49806 0.81247 0.0
C1815 C 0.3525 0.46957 0.83787 0.0
C1816 C 0.73674 0.62859 0.2178 0.0
C1817 C 0.71181 0.63557 0.22175 0.0
H1818 H 0.76242 0.60244 0.22571 0.0
C1819 C 0.69328 0.62095 0.23738 0.0
H1820 H 0.75135 0.63952 0.20581 0.0
C1821 C 0.69963 0.59986 0.24892 0.0
C1822 C 0.72463 0.59289 0.24513 0.0
H1823 H 0.67387 0.62582 0.24088 0.0
H1824 H 0.68502 0.58927 0.2611 0.0
C1825 C 0.74312 0.60749 0.22938 0.0
C1826 C 0.69504 0.444 0.83846 0.0
C1827 C 0.71067 0.42686 0.84617 0.0
H1828 H 0.69342 0.47808 0.81922 0.0
C1829 C 0.73778 0.43176 0.8402 0.0
H1830 H 0.67412 0.44091 0.84306 0.0
C1831 C 0.74886 0.45297 0.82624 0.0
C1832 C 0.73312 0.46985 0.81809 0.0
H1833 H 0.75025 0.41869 0.84566 0.0
H1834 H 0.76967 0.45566 0.82139 0.0
C1835 C 0.7061 0.46524 0.82464 0.0
C1836 C 0.66111 0.72339 0.83827 0.0
C1837 C 0.66684 0.718 0.86175 0.0
H1838 H 0.63591 0.7392 0.81633 0.0
C1839 C 0.64996 0.72413 0.88155 0.0
H1840 H 0.67377 0.71892 0.82264 0.0
C1841 C 0.62798 0.73553 0.87795 0.0
C1842 C 0.62229 0.74131 0.85446 0.0
H1843 H 0.65366 0.72009 0.89988 0.0
H1844 H 0.61541 0.73963 0.8937 0.0
C1845 C 0.63922 0.73494 0.83466 0.0
C1846 C 0.34313 0.62405 0.81734 0.0
C1847 C 0.33454 0.6426 0.80363 0.0
H1848 H 0.33307 0.58658 0.83372 0.0
C1849 C 0.30867 0.63609 0.79508 0.0
H1850 H 0.36253 0.62828 0.82484 0.0
C1851 C 0.2915 0.61291 0.80146 0.0
C1852 C 0.30025 0.59472 0.81503 0.0
H1853 H 0.30132 0.64905 0.78375 0.0
H1854 H 0.27139 0.60901 0.79556 0.0
C1855 C 0.32621 0.60021 0.82272 0.0
C1856 C 0.41648 0.30344 0.87509 0.0
C1857 C 0.42428 0.33163 0.87784 0.0
H1858 H 0.42586 0.26565 0.86056 0.0
C1859 C 0.44942 0.34313 0.86899 0.0
H1860 H 0.39714 0.294 0.88165 0.0
C1861 C 0.46616 0.32689 0.85711 0.0
C1862 C 0.45807 0.29865 0.85331 0.0
H1863 H 0.45616 0.36478 0.87121 0.0
H1864 H 0.48534 0.33676 0.85074 0.0
C1865 C 0.43308 0.28716 0.8629 0.0
C1866 C 0.37817 0.46076 0.25324 0.0
C1867 C 0.38561 0.4542 0.22861 0.0
H1868 H 0.35898 0.487 0.27863 0.0
C1869 C 0.38271 0.47197 0.21135 0.0
H1870 H 0.38001 0.44743 0.26696 0.0
C1871 C 0.37072 0.49425 0.21793 0.0
C1872 C 0.36147 0.49984 0.24207 0.0
H1873 H 0.38846 0.46777 0.1923 0.0
H1874 H 0.36747 0.50643 0.20372 0.0
C1875 C 0.3662 0.48346 0.25994 0.0
C1876 C 0.70311 0.30756 0.20184 0.0
C1877 C 0.71551 0.33005 0.21686 0.0
H1878 H 0.66678 0.28109 0.19243 0.0
C1879 C 0.70009 0.34315 0.23415 0.0
H1880 H 0.71445 0.29712 0.18825 0.0
C1881 C 0.67299 0.33444 0.23616 0.0
C1882 C 0.66041 0.31199 0.22127 0.0
H1883 H 0.709 0.36026 0.24632 0.0
H1884 H 0.6619 0.34553 0.24941 0.0
C1885 C 0.67577 0.29862 0.20401 0.0
C1886 C 0.44859 0.74794 0.21407 0.0
C1887 C 0.43274 0.76416 0.20527 0.0
H1888 H 0.47665 0.74466 0.2401 0.0
C1889 C 0.43625 0.79164 0.21411 0.0
H1890 H 0.44674 0.72687 0.20727 0.0
C1891 C 0.45384 0.80204 0.23291 0.0
C1892 C 0.46787 0.78495 0.24305 0.0
H1893 H 0.42426 0.80458 0.20761 0.0
H1894 H 0.4551 0.82276 0.24059 0.0
C1895 C 0.46577 0.75815 0.23283 0.0
loop_
_geom_bond_atom_site_label_1
_geom_bond_atom_site_label_2
_geom_bond_distance
_geom_bond_site_symmetry_2
_ccdc_geom_bond_type
H0 C5 0.930 . S
H1 C8 0.930 . S
H2 C10 0.930 . S
H3 C4 1.016 . S
C4 H3 1.016 . S
C4 N11 1.286 . S
C5 H0 0.930 . S
C5 C6 1.397 . S
C5 C7 1.361 . S
C6 C5 1.397 . S
C6 C10 1.390 . S
C7 C5 1.361 . S
C7 C8 1.393 . S
C7 N11 1.413 . S
C8 H1 0.930 . S
C8 C7 1.393 . S
C8 C9 1.399 . S
C9 C8 1.399 . S
C9 C10 1.381 . S
C10 H2 0.930 . S
C10 C6 1.390 . S
C10 C9 1.381 . S
N11 C4 1.286 . S
N11 C7 1.413 . S
H12 C17 0.930 . S
H13 C20 0.930 . S
H14 C22 0.930 . S
H15 C16 1.016 . S
C16 H15 1.016 . S
C16 N23 1.286 . S
C17 H12 0.930 . S
C17 C18 1.397 . S
C17 C19 1.361 . S
C18 C17 1.397 . S
C18 C22 1.390 . S
C19 C17 1.361 . S
C19 C20 1.393 . S
C19 N23 1.413 . S
C20 H13 0.930 . S
C20 C19 1.393 . S
C20 C21 1.399 . S
C21 C20 1.399 . S
C21 C22 1.381 . S
C22 H14 0.930 . S
C22 C18 1.390 . S
C22 C21 1.381 . S
N23 C16 1.286 . S
N23 C19 1.413 . S
H24 C29 0.930 . S
H25 C32 0.930 . S
H26 C34 0.930 . S
H27 C28 1.016 . S
C28 H27 1.016 . S
C28 N35 1.286 . S
C29 H24 0.930 . S
C29 C30 1.397 . S
C29 C31 1.361 . S
C30 C29 1.397 . S
C30 C34 1.390 . S
C31 C29 1.361 . S
C31 C32 1.393 . S
C31 N35 1.413 . S
C32 H25 0.930 . S
C32 C31 1.393 . S
C32 C33 1.399 . S
C33 C32 1.399 . S
C33 C34 1.381 . S
C34 H26 0.930 . S
C34 C30 1.390 . S
C34 C33 1.381 . S
N35 C28 1.286 . S
N35 C31 1.413 . S
H36 C41 0.930 . S
H37 C44 0.930 . S
H38 C46 0.930 . S
H39 C40 1.016 . S
C40 H39 1.016 . S
C40 N47 1.286 . S
C41 H36 0.930 . S
C41 C42 1.397 . S
C41 C43 1.361 . S
C42 C41 1.397 . S
C42 C46 1.390 . S
C43 C41 1.361 . S
C43 C44 1.393 . S
C43 N47 1.413 . S
C44 H37 0.930 . S
C44 C43 1.393 . S
C44 C45 1.399 . S
C45 C44 1.399 . S
C45 C46 1.381 . S
C46 H38 0.930 . S
C46 C42 1.390 . S
C46 C45 1.381 . S
N47 C40 1.286 . S
N47 C43 1.413 . S
H48 C53 0.930 . S
H49 C56 0.930 . S
H50 C58 0.930 . S
H51 C52 1.016 . S
C52 H51 1.016 . S
C52 N59 1.286 . S
C53 H48 0.930 . S
C53 C54 1.397 . S
C53 C55 1.361 . S
C54 C53 1.397 . S
C54 C58 1.390 . S
C55 C53 1.361 . S
C55 C56 1.393 . S
C55 N59 1.413 . S
C56 H49 0.930 . S
C56 C55 1.393 . S
C56 C57 1.399 . S
C57 C56 1.399 . S
C57 C58 1.381 . S
C58 H50 0.930 . S
C58 C54 1.390 . S
C58 C57 1.381 . S
N59 C52 1.286 . S
N59 C55 1.413 . S
H60 C65 0.930 . S
H61 C68 0.930 . S
H62 C70 0.930 . S
H63 C64 1.016 . S
C64 H63 1.016 . S
C64 N71 1.286 . S
C65 H60 0.930 . S
C65 C66 1.397 . S
C65 C67 1.361 . S
C66 C65 1.397 . S
C66 C70 1.390 . S
C67 C65 1.361 . S
C67 C68 1.393 . S
C67 N71 1.413 . S
C68 H61 0.930 . S
C68 C67 1.393 . S
C68 C69 1.399 . S
C69 C68 1.399 . S
C69 C70 1.381 . S
C70 H62 0.930 . S
C70 C66 1.390 . S
C70 C69 1.381 . S
N71 C64 1.286 . S
N71 C67 1.413 . S
H72 C77 0.930 . S
H73 C80 0.930 . S
H74 C82 0.930 . S
H75 C76 1.016 . S
C76 H75 1.016 . S
C76 N83 1.286 . S
C77 H72 0.930 . S
C77 C78 1.397 . S
C77 C79 1.361 . S
C78 C77 1.397 . S
C78 C82 1.390 . S
C79 C77 1.361 . S
C79 C80 1.393 . S
C79 N83 1.413 . S
C80 H73 0.930 . S
C80 C79 1.393 . S
C80 C81 1.399 . S
C81 C80 1.399 . S
C81 C82 1.381 . S
C82 H74 0.930 . S
C82 C78 1.390 . S
C82 C81 1.381 . S
N83 C76 1.286 . S
N83 C79 1.413 . S
H84 C89 0.930 . S
H85 C92 0.930 . S
H86 C94 0.930 . S
H87 C88 1.016 . S
C88 H87 1.016 . S
C88 N95 1.286 . S
C89 H84 0.930 . S
C89 C90 1.397 . S
C89 C91 1.361 . S
C90 C89 1.397 . S
C90 C94 1.390 . S
C91 C89 1.361 . S
C91 C92 1.393 . S
C91 N95 1.413 . S
C92 H85 0.930 . S
C92 C91 1.393 . S
C92 C93 1.399 . S
C93 C92 1.399 . S
C93 C94 1.381 . S
C94 H86 0.930 . S
C94 C90 1.390 . S
C94 C93 1.381 . S
N95 C88 1.286 . S
N95 C91 1.413 . S
H96 C101 0.930 . S
H97 C104 0.930 . S
H98 C106 0.930 . S
H99 C100 1.016 . S
C100 H99 1.016 . S
C100 N107 1.286 . S
C101 H96 0.930 . S
C101 C102 1.397 . S
C101 C103 1.361 . S
C102 C101 1.397 . S
C102 C106 1.390 . S
C103 C101 1.361 . S
C103 C104 1.393 . S
C103 N107 1.413 . S
C104 H97 0.930 . S
C104 C103 1.393 . S
C104 C105 1.399 . S
C105 C104 1.399 . S
C105 C106 1.381 . S
C106 H98 0.930 . S
C106 C102 1.390 . S
C106 C105 1.381 . S
N107 C100 1.286 . S
N107 C103 1.413 . S
H108 C113 0.930 . S
H109 C116 0.930 . S
H110 C118 0.930 . S
H111 C112 1.016 . S
C112 H111 1.016 . S
C112 N119 1.286 . S
C113 H108 0.930 . S
C113 C114 1.397 . S
C113 C115 1.361 . S
C114 C113 1.397 . S
C114 C118 1.390 . S
C115 C113 1.361 . S
C115 C116 1.393 . S
C115 N119 1.413 . S
C116 H109 0.930 . S
C116 C115 1.393 . S
C116 C117 1.399 . S
C117 C116 1.399 . S
C117 C118 1.381 . S
C118 H110 0.930 . S
C118 C114 1.390 . S
C118 C117 1.381 . S
N119 C112 1.286 . S
N119 C115 1.413 . S
H120 C125 0.930 . S
H121 C128 0.930 . S
H122 C130 0.930 . S
H123 C124 1.016 . S
C124 H123 1.016 . S
C124 N131 1.286 . S
C125 H120 0.930 . S
C125 C126 1.397 . S
C125 C127 1.361 . S
C126 C125 1.397 . S
C126 C130 1.390 . S
C127 C125 1.361 . S
C127 C128 1.393 . S
C127 N131 1.413 . S
C128 H121 0.930 . S
C128 C127 1.393 . S
C128 C129 1.399 . S
C129 C128 1.399 . S
C129 C130 1.381 . S
C130 H122 0.930 . S
C130 C126 1.390 . S
C130 C129 1.381 . S
N131 C124 1.286 . S
N131 C127 1.413 . S
H132 C137 0.930 . S
H133 C140 0.930 . S
H134 C142 0.930 . S
H135 C136 1.016 . S
C136 H135 1.016 . S
C136 N143 1.286 . S
C137 H132 0.930 . S
C137 C138 1.397 . S
C137 C139 1.361 . S
C138 C137 1.397 . S
C138 C142 1.390 . S
C139 C137 1.361 . S
C139 C140 1.393 . S
C139 N143 1.413 . S
C140 H133 0.930 . S
C140 C139 1.393 . S
C140 C141 1.399 . S
C141 C140 1.399 . S
C141 C142 1.381 . S
C142 H134 0.930 . S
C142 C138 1.390 . S
C142 C141 1.381 . S
N143 C136 1.286 . S
N143 C139 1.413 . S
H144 C149 0.930 . S
H145 C152 0.930 . S
H146 C154 0.930 . S
H147 C148 1.016 . S
C148 H147 1.016 . S
C148 N155 1.286 . S
C149 H144 0.930 . S
C149 C150 1.397 . S
C149 C151 1.361 . S
C150 C149 1.397 . S
C150 C154 1.390 . S
C151 C149 1.361 . S
C151 C152 1.393 . S
C151 N155 1.413 . S
C152 H145 0.930 . S
C152 C151 1.393 . S
C152 C153 1.399 . S
C153 C152 1.399 . S
C153 C154 1.381 . S
C154 H146 0.930 . S
C154 C150 1.390 . S
C154 C153 1.381 . S
N155 C148 1.286 . S
N155 C151 1.413 . S
H156 C161 0.930 . S
H157 C164 0.930 . S
H158 C166 0.930 . S
H159 C160 1.016 . S
C160 H159 1.016 . S
C160 N167 1.286 . S
C161 H156 0.930 . S
C161 C162 1.397 . S
C161 C163 1.361 . S
C162 C161 1.397 . S
C162 C166 1.390 . S
C163 C161 1.361 . S
C163 C164 1.393 . S
C163 N167 1.413 . S
C164 H157 0.930 . S
C164 C163 1.393 . S
C164 C165 1.399 . S
C165 C164 1.399 . S
C165 C166 1.381 . S
C166 H158 0.930 . S
C166 C162 1.390 . S
C166 C165 1.381 . S
N167 C160 1.286 . S
N167 C163 1.413 . S
H168 C173 0.930 . S
H169 C176 0.930 . S
H170 C178 0.930 . S
H171 C172 1.016 . S
C172 H171 1.016 . S
C172 N179 1.286 . S
C173 H168 0.930 . S
C173 C174 1.397 . S
C173 C175 1.361 . S
C174 C173 1.397 . S
C174 C178 1.390 . S
C175 C173 1.361 . S
C175 C176 1.393 . S
C175 N179 1.413 . S
C176 H169 0.930 . S
C176 C175 1.393 . S
C176 C177 1.399 . S
C177 C176 1.399 . S
C177 C178 1.381 . S
C178 H170 0.930 . S
C178 C174 1.390 . S
C178 C177 1.381 . S
N179 C172 1.286 . S
N179 C175 1.413 . S
H180 C185 0.930 . S
H181 C188 0.930 . S
H182 C190 0.930 . S
H183 C184 1.016 . S
C184 H183 1.016 . S
C184 N191 1.286 . S
C185 H180 0.930 . S
C185 C186 1.397 . S
C185 C187 1.361 . S
C186 C185 1.397 . S
C186 C190 1.390 . S
C187 C185 1.361 . S
C187 C188 1.393 . S
C187 N191 1.413 . S
C188 H181 0.930 . S
C188 C187 1.393 . S
C188 C189 1.399 . S
C189 C188 1.399 . S
C189 C190 1.381 . S
C190 H182 0.930 . S
C190 C186 1.390 . S
C190 C189 1.381 . S
N191 C184 1.286 . S
N191 C187 1.413 . S
H192 C197 0.930 . S
H193 C200 0.930 . S
H194 C202 0.930 . S
H195 C196 1.016 . S
C196 H195 1.016 . S
C196 N203 1.286 . S
C197 H192 0.930 . S
C197 C198 1.397 . S
C197 C199 1.361 . S
C198 C197 1.397 . S
C198 C202 1.390 . S
C199 C197 1.361 . S
C199 C200 1.393 . S
C199 N203 1.413 . S
C200 H193 0.930 . S
C200 C199 1.393 . S
C200 C201 1.399 . S
C201 C200 1.399 . S
C201 C202 1.381 . S
C202 H194 0.930 . S
C202 C198 1.390 . S
C202 C201 1.381 . S
N203 C196 1.286 . S
N203 C199 1.413 . S
H204 C209 0.930 . S
H205 C212 0.930 . S
H206 C214 0.930 . S
H207 C208 1.016 . S
C208 H207 1.016 . S
C208 N215 1.286 . S
C209 H204 0.930 . S
C209 C210 1.397 . S
C209 C211 1.361 . S
C210 C209 1.397 . S
C210 C214 1.390 . S
C211 C209 1.361 . S
C211 C212 1.393 . S
C211 N215 1.413 . S
C212 H205 0.930 . S
C212 C211 1.393 . S
C212 C213 1.399 . S
C213 C212 1.399 . S
C213 C214 1.381 . S
C214 H206 0.930 . S
C214 C210 1.390 . S
C214 C213 1.381 . S
N215 C208 1.286 . S
N215 C211 1.413 . S
H216 C221 0.930 . S
H217 C224 0.930 . S
H218 C226 0.930 . S
H219 C220 1.016 . S
C220 H219 1.016 . S
C220 N227 1.286 . S
C221 H216 0.930 . S
C221 C222 1.397 . S
C221 C223 1.361 . S
C222 C221 1.397 . S
C222 C226 1.390 . S
C223 C221 1.361 . S
C223 C224 1.393 . S
C223 N227 1.413 . S
C224 H217 0.930 . S
C224 C223 1.393 . S
C224 C225 1.399 . S
C225 C224 1.399 . S
C225 C226 1.381 . S
C226 H218 0.930 . S
C226 C222 1.390 . S
C226 C225 1.381 . S
N227 C220 1.286 . S
N227 C223 1.413 . S
H228 C233 0.930 . S
H229 C236 0.930 . S
H230 C238 0.930 . S
H231 C232 1.016 . S
C232 H231 1.016 . S
C232 N239 1.286 . S
C233 H228 0.930 . S
C233 C234 1.397 . S
C233 C235 1.361 . S
C234 C233 1.397 . S
C234 C238 1.390 . S
C235 C233 1.361 . S
C235 C236 1.393 . S
C235 N239 1.413 . S
C236 H229 0.930 . S
C236 C235 1.393 . S
C236 C237 1.399 . S
C237 C236 1.399 . S
C237 C238 1.381 . S
C238 H230 0.930 . S
C238 C234 1.390 . S
C238 C237 1.381 . S
N239 C232 1.286 . S
N239 C235 1.413 . S
H240 C245 0.930 . S
H241 C248 0.930 . S
H242 C250 0.930 . S
H243 C244 1.016 . S
C244 H243 1.016 . S
C244 N251 1.286 . S
C245 H240 0.930 . S
C245 C246 1.397 . S
C245 C247 1.361 . S
C246 C245 1.397 . S
C246 C250 1.390 . S
C247 C245 1.361 . S
C247 C248 1.393 . S
C247 N251 1.413 . S
C248 H241 0.930 . S
C248 C247 1.393 . S
C248 C249 1.399 . S
C249 C248 1.399 . S
C249 C250 1.381 . S
C250 H242 0.930 . S
C250 C246 1.390 . S
C250 C249 1.381 . S
N251 C244 1.286 . S
N251 C247 1.413 . S
H252 C257 0.930 . S
H253 C260 0.930 . S
H254 C262 0.930 . S
H255 C256 1.016 . S
C256 H255 1.016 . S
C256 N263 1.286 . S
C257 H252 0.930 . S
C257 C258 1.397 . S
C257 C259 1.361 . S
C258 C257 1.397 . S
C258 C262 1.390 . S
C259 C257 1.361 . S
C259 C260 1.393 . S
C259 N263 1.413 . S
C260 H253 0.930 . S
C260 C259 1.393 . S
C260 C261 1.399 . S
C261 C260 1.399 . S
C261 C262 1.381 . S
C262 H254 0.930 . S
C262 C258 1.390 . S
C262 C261 1.381 . S
N263 C256 1.286 . S
N263 C259 1.413 . S
H264 C269 0.930 . S
H265 C272 0.930 . S
H266 C274 0.930 . S
H267 C268 1.016 . S
C268 H267 1.016 . S
C268 N275 1.286 . S
C269 H264 0.930 . S
C269 C270 1.397 . S
C269 C271 1.361 . S
C270 C269 1.397 . S
C270 C274 1.390 . S
C271 C269 1.361 . S
C271 C272 1.393 . S
C271 N275 1.413 . S
C272 H265 0.930 . S
C272 C271 1.393 . S
C272 C273 1.399 . S
C273 C272 1.399 . S
C273 C274 1.381 . S
C274 H266 0.930 . S
C274 C270 1.390 . S
C274 C273 1.381 . S
N275 C268 1.286 . S
N275 C271 1.413 . S
H276 C281 0.930 . S
H277 C284 0.930 . S
H278 C286 0.930 . S
H279 C280 1.016 . S
C280 H279 1.016 . S
C280 N287 1.286 . S
C281 H276 0.930 . S
C281 C282 1.397 . S
C281 C283 1.361 . S
C282 C281 1.397 . S
C282 C286 1.390 . S
C283 C281 1.361 . S
C283 C284 1.393 . S
C283 N287 1.413 . S
C284 H277 0.930 . S
C284 C283 1.393 . S
C284 C285 1.399 . S
C285 C284 1.399 . S
C285 C286 1.381 . S
C286 H278 0.930 . S
C286 C282 1.390 . S
C286 C285 1.381 . S
N287 C280 1.286 . S
N287 C283 1.413 . S
H288 C293 0.930 . S
H289 C296 0.930 . S
H290 C298 0.930 . S
H291 C292 1.016 . S
C292 H291 1.016 . S
C292 N299 1.286 . S
C293 H288 0.930 . S
C293 C294 1.397 . S
C293 C295 1.361 . S
C294 C293 1.397 . S
C294 C298 1.390 . S
C295 C293 1.361 . S
C295 C296 1.393 . S
C295 N299 1.413 . S
C296 H289 0.930 . S
C296 C295 1.393 . S
C296 C297 1.399 . S
C297 C296 1.399 . S
C297 C298 1.381 . S
C298 H290 0.930 . S
C298 C294 1.390 . S
C298 C297 1.381 . S
N299 C292 1.286 . S
N299 C295 1.413 . S
H300 C305 0.930 . S
H301 C308 0.930 . S
H302 C310 0.930 . S
H303 C304 1.016 . S
C304 H303 1.016 . S
C304 N311 1.286 . S
C305 H300 0.930 . S
C305 C306 1.397 . S
C305 C307 1.361 . S
C306 C305 1.397 . S
C306 C310 1.390 . S
C307 C305 1.361 . S
C307 C308 1.393 . S
C307 N311 1.413 . S
C308 H301 0.930 . S
C308 C307 1.393 . S
C308 C309 1.399 . S
C309 C308 1.399 . S
C309 C310 1.381 . S
C310 H302 0.930 . S
C310 C306 1.390 . S
C310 C309 1.381 . S
N311 C304 1.286 . S
N311 C307 1.413 . S
H312 C317 0.930 . S
H313 C320 0.930 . S
H314 C322 0.930 . S
H315 C316 1.016 . S
C316 H315 1.016 . S
C316 N323 1.286 . S
C317 H312 0.930 . S
C317 C318 1.397 . S
C317 C319 1.361 . S
C318 C317 1.397 . S
C318 C322 1.390 . S
C319 C317 1.361 . S
C319 C320 1.393 . S
C319 N323 1.413 . S
C320 H313 0.930 . S
C320 C319 1.393 . S
C320 C321 1.399 . S
C321 C320 1.399 . S
C321 C322 1.381 . S
C322 H314 0.930 . S
C322 C318 1.390 . S
C322 C321 1.381 . S
N323 C316 1.286 . S
N323 C319 1.413 . S
H324 C329 0.930 . S
H325 C332 0.930 . S
H326 C334 0.930 . S
H327 C328 1.016 . S
C328 H327 1.016 . S
C328 N335 1.286 . S
C329 H324 0.930 . S
C329 C330 1.397 . S
C329 C331 1.361 . S
C330 C329 1.397 . S
C330 C334 1.390 . S
C331 C329 1.361 . S
C331 C332 1.393 . S
C331 N335 1.413 . S
C332 H325 0.930 . S
C332 C331 1.393 . S
C332 C333 1.399 . S
C333 C332 1.399 . S
C333 C334 1.381 . S
C334 H326 0.930 . S
C334 C330 1.390 . S
C334 C333 1.381 . S
N335 C328 1.286 . S
N335 C331 1.413 . S
H336 C341 0.930 . S
H337 C344 0.930 . S
H338 C346 0.930 . S
H339 C340 1.016 . S
C340 H339 1.016 . S
C340 N347 1.286 . S
C341 H336 0.930 . S
C341 C342 1.397 . S
C341 C343 1.361 . S
C342 C341 1.397 . S
C342 C346 1.390 . S
C343 C341 1.361 . S
C343 C344 1.393 . S
C343 N347 1.413 . S
C344 H337 0.930 . S
C344 C343 1.393 . S
C344 C345 1.399 . S
C345 C344 1.399 . S
C345 C346 1.381 . S
C346 H338 0.930 . S
C346 C342 1.390 . S
C346 C345 1.381 . S
N347 C340 1.286 . S
N347 C343 1.413 . S
H348 C353 0.930 . S
H349 C356 0.930 . S
H350 C358 0.930 . S
H351 C352 1.016 . S
C352 H351 1.016 . S
C352 N359 1.286 . S
C353 H348 0.930 . S
C353 C354 1.397 . S
C353 C355 1.361 . S
C354 C353 1.397 . S
C354 C358 1.390 . S
C355 C353 1.361 . S
C355 C356 1.393 . S
C355 N359 1.413 . S
C356 H349 0.930 . S
C356 C355 1.393 . S
C356 C357 1.399 . S
C357 C356 1.399 . S
C357 C358 1.381 . S
C358 H350 0.930 . S
C358 C354 1.390 . S
C358 C357 1.381 . S
N359 C352 1.286 . S
N359 C355 1.413 . S
H360 C365 0.930 . S
H361 C368 0.930 . S
H362 C370 0.930 . S
H363 C364 1.016 . S
C364 H363 1.016 . S
C364 N371 1.286 . S
C365 H360 0.930 . S
C365 C366 1.397 . S
C365 C367 1.361 . S
C366 C365 1.397 . S
C366 C370 1.390 . S
C367 C365 1.361 . S
C367 C368 1.393 . S
C367 N371 1.413 . S
C368 H361 0.930 . S
C368 C367 1.393 . S
C368 C369 1.399 . S
C369 C368 1.399 . S
C369 C370 1.381 . S
C370 H362 0.930 . S
C370 C366 1.390 . S
C370 C369 1.381 . S
N371 C364 1.286 . S
N371 C367 1.413 . S
H372 C377 0.930 . S
H373 C380 0.930 . S
H374 C382 0.930 . S
H375 C376 1.016 . S
C376 H375 1.016 . S
C376 N383 1.286 . S
C377 H372 0.930 . S
C377 C378 1.397 . S
C377 C379 1.361 . S
C378 C377 1.397 . S
C378 C382 1.390 . S
C379 C377 1.361 . S
C379 C380 1.393 . S
C379 N383 1.413 . S
C380 H373 0.930 . S
C380 C379 1.393 . S
C380 C381 1.399 . S
C381 C380 1.399 . S
C381 C382 1.381 . S
C382 H374 0.930 . S
C382 C378 1.390 . S
C382 C381 1.381 . S
N383 C376 1.286 . S
N383 C379 1.413 . S
Cu384 N385 1.999 . S
Cu384 O390 1.974 1_554 S
Cu384 N395 1.985 . S
Cu384 O404 1.959 . S
N385 Cu384 1.999 . S
N385 C387 1.263 1_554 S
N385 C389 1.389 . S
N386 C387 1.358 . S
N386 C388 1.400 . S
C387 N385 1.263 1_556 S
C387 N386 1.358 . S
C387 H393 0.930 . S
C388 N386 1.400 . S
C388 C389 1.351 1_556 S
C388 H405 0.930 . S
C389 N385 1.389 . S
C389 C388 1.351 1_554 S
C389 H394 0.930 . S
O390 Cu384 1.974 1_556 S
O390 C400 1.282 . S
C391 O392 1.261 . S
C391 O404 1.251 . S
O392 C391 1.261 . S
H393 C387 0.930 . S
H394 C389 0.930 . S
N395 Cu384 1.985 . S
N395 C397 1.335 . S
N395 C398 1.390 . S
N396 C397 1.345 . S
N396 C399 1.336 . S
C397 N395 1.335 . S
C397 N396 1.345 . S
C397 H402 0.930 . S
C398 N395 1.390 . S
C398 C399 1.346 . S
C398 H403 0.930 . S
C399 N396 1.336 . S
C399 C398 1.346 . S
C399 H406 0.929 . S
C400 O390 1.282 . S
C400 O401 1.230 . S
O401 C400 1.230 . S
H402 C397 0.930 . S
H403 C398 0.930 . S
O404 Cu384 1.959 . S
O404 C391 1.251 . S
H405 C388 0.930 . S
H406 C399 0.929 . S
Cu407 N408 1.999 . S
Cu407 O413 1.974 . S
Cu407 N418 1.985 1_554 S
Cu407 O427 1.959 1_554 S
N408 Cu407 1.999 . S
N408 C410 1.263 . S
N408 C412 1.389 . S
N409 C410 1.358 . S
N409 C411 1.400 . S
C410 N408 1.263 . S
C410 N409 1.358 . S
C410 H416 0.930 . S
C411 N409 1.400 . S
C411 C412 1.351 . S
C411 H428 0.930 . S
C412 N408 1.389 . S
C412 C411 1.351 . S
C412 H417 0.930 . S
O413 Cu407 1.974 . S
O413 C423 1.282 . S
C414 O415 1.282 . S
C414 O427 1.251 . S
O415 C414 1.282 . S
H416 C410 0.930 . S
H417 C412 0.930 . S
N418 Cu407 1.985 1_556 S
N418 C420 1.335 . S
N418 C421 1.390 . S
N419 C420 1.345 . S
N419 C422 1.336 . S
C420 N418 1.335 . S
C420 N419 1.345 . S
C420 H425 0.930 . S
C421 N418 1.390 . S
C421 C422 1.346 . S
C421 H426 0.930 1_556 S
C422 N419 1.336 . S
C422 C421 1.346 . S
C422 H429 0.929 . S
C423 O413 1.282 . S
C423 O424 1.216 . S
O424 C423 1.216 . S
H425 C420 0.930 . S
H426 C421 0.930 1_554 S
O427 Cu407 1.959 1_556 S
O427 C414 1.251 . S
H428 C411 0.930 . S
H429 C422 0.929 . S
Cu430 N431 1.999 1_554 S
Cu430 O436 1.974 1_554 S
Cu430 N441 1.985 . S
Cu430 O450 1.959 . S
N431 Cu430 1.999 1_556 S
N431 C433 1.263 . S
N431 C435 1.389 . S
N432 C433 1.358 . S
N432 C434 1.400 . S
C433 N431 1.263 . S
C433 N432 1.358 . S
C433 H439 0.930 . S
C434 N432 1.400 . S
C434 C435 1.351 . S
C434 H451 0.930 . S
C435 N431 1.389 . S
C435 C434 1.351 . S
C435 H440 0.930 1_556 S
O436 Cu430 1.974 1_556 S
O436 C446 1.282 . S
C437 O438 1.261 . S
C437 O450 1.251 . S
O438 C437 1.261 . S
H439 C433 0.930 . S
H440 C435 0.930 1_554 S
N441 Cu430 1.985 . S
N441 C443 1.335 . S
N441 C444 1.390 . S
N442 C443 1.345 . S
N442 C445 1.336 . S
C443 N441 1.335 . S
C443 N442 1.345 . S
C443 H448 0.930 . S
C444 N441 1.390 . S
C444 C445 1.346 . S
C444 H449 0.930 . S
C445 N442 1.336 . S
C445 C444 1.346 . S
C445 H452 0.929 . S
C446 O436 1.282 . S
C446 O447 1.216 . S
O447 C446 1.216 . S
H448 C443 0.930 . S
H449 C444 0.930 . S
O450 Cu430 1.959 . S
O450 C437 1.251 . S
H451 C434 0.930 . S
H452 C445 0.929 . S
Cu453 N454 1.999 1_556 S
Cu453 O459 1.974 1_556 S
Cu453 N464 1.985 . S
Cu453 O473 1.959 . S
N454 Cu453 1.999 1_554 S
N454 C456 1.263 . S
N454 C458 1.389 . S
N455 C456 1.358 . S
N455 C457 1.400 . S
C456 N454 1.263 . S
C456 N455 1.358 . S
C456 H462 0.930 . S
C457 N455 1.400 . S
C457 C458 1.351 . S
C457 H474 0.930 . S
C458 N454 1.389 . S
C458 C457 1.351 . S
C458 H463 0.930 . S
O459 Cu453 1.974 1_554 S
O459 C469 1.282 . S
C460 O461 1.261 . S
C460 O473 1.251 . S
O461 C460 1.261 . S
H462 C456 0.930 . S
H463 C458 0.930 . S
N464 Cu453 1.985 . S
N464 C466 1.335 . S
N464 C467 1.390 . S
N465 C466 1.345 . S
N465 C468 1.336 . S
C466 N464 1.335 . S
C466 N465 1.345 . S
C466 H471 0.930 . S
C467 N464 1.390 . S
C467 C468 1.346 . S
C467 H472 0.930 . S
C468 N465 1.336 . S
C468 C467 1.346 . S
C468 H475 0.929 . S
C469 O459 1.282 . S
C469 O470 1.216 . S
O470 C469 1.216 . S
H471 C466 0.930 . S
H472 C467 0.930 . S
O473 Cu453 1.959 . S
O473 C460 1.251 . S
H474 C457 0.930 . S
H475 C468 0.929 . S
Cu476 N477 1.999 . S
Cu476 O482 1.974 . S
Cu476 N487 1.985 . S
Cu476 O496 1.959 . S
N477 Cu476 1.999 . S
N477 C479 1.263 . S
N477 C481 1.389 . S
N478 C479 1.358 . S
N478 C480 1.400 . S
C479 N477 1.263 . S
C479 N478 1.358 . S
C479 H485 0.930 . S
C480 N478 1.400 . S
C480 C481 1.351 . S
C480 H497 0.930 . S
C481 N477 1.389 . S
C481 C480 1.351 . S
C481 H486 0.930 . S
O482 Cu476 1.974 . S
O482 C492 1.282 . S
C483 O484 1.261 . S
C483 O496 1.251 1_655 S
O484 C483 1.261 . S
H485 C479 0.930 . S
H486 C481 0.930 . S
N487 Cu476 1.985 . S
N487 C489 1.335 1_455 S
N487 C490 1.390 . S
N488 C489 1.345 . S
N488 C491 1.336 . S
C489 N487 1.335 1_655 S
C489 N488 1.345 . S
C489 H494 0.930 . S
C490 N487 1.390 . S
C490 C491 1.346 1_455 S
C490 H495 0.930 . S
C491 N488 1.336 . S
C491 C490 1.346 1_655 S
C491 H498 0.929 . S
C492 O482 1.282 . S
C492 O493 1.216 . S
O493 C492 1.216 . S
H494 C489 0.930 . S
H495 C490 0.930 . S
O496 Cu476 1.959 . S
O496 C483 1.251 1_455 S
H497 C480 0.930 . S
H498 C491 0.929 . S
Cu499 N500 1.999 . S
Cu499 O505 1.974 . S
Cu499 N510 1.985 . S
Cu499 O519 1.948 1_545 S
N500 Cu499 1.999 . S
N500 C502 1.263 . S
N500 C504 1.389 . S
N501 C502 1.358 . S
N501 C503 1.400 . S
C502 N500 1.263 . S
C502 N501 1.358 . S
C502 H508 0.930 . S
C503 N501 1.400 . S
C503 C504 1.351 . S
C503 H520 0.930 . S
C504 N500 1.389 . S
C504 C503 1.351 . S
C504 H509 0.930 . S
O505 Cu499 1.974 . S
O505 C515 1.282 . S
C506 O507 1.261 1_565 S
C506 O519 1.256 . S
O507 C506 1.261 1_545 S
H508 C502 0.930 . S
H509 C504 0.930 . S
N510 Cu499 1.985 . S
N510 C512 1.335 1_545 S
N510 C513 1.390 . S
N511 C512 1.345 . S
N511 C514 1.336 . S
C512 N510 1.335 1_565 S
C512 N511 1.345 . S
C512 H517 0.930 . S
C513 N510 1.390 . S
C513 C514 1.346 1_545 S
C513 H518 0.930 . S
C514 N511 1.336 . S
C514 C513 1.346 1_565 S
C514 H521 0.929 . S
C515 O505 1.282 . S
C515 O516 1.216 . S
O516 C515 1.216 . S
H517 C512 0.930 . S
H518 C513 0.930 . S
O519 Cu499 1.948 1_565 S
O519 C506 1.256 . S
H520 C503 0.930 . S
H521 C514 0.929 . S
Cu522 N523 1.999 . S
Cu522 O528 1.974 . S
Cu522 N533 1.985 1_655 S
Cu522 O542 1.959 1_655 S
N523 Cu522 1.999 . S
N523 C525 1.263 . S
N523 C527 1.389 . S
N524 C525 1.358 . S
N524 C526 1.400 . S
C525 N523 1.263 . S
C525 N524 1.358 . S
C525 H531 0.930 . S
C526 N524 1.400 . S
C526 C527 1.351 . S
C526 H543 0.930 . S
C527 N523 1.389 . S
C527 C526 1.351 . S
C527 H532 0.930 1_655 S
O528 Cu522 1.974 . S
O528 C538 1.282 . S
C529 O530 1.261 . S
C529 O542 1.251 . S
O530 C529 1.261 . S
H531 C525 0.930 . S
H532 C527 0.930 1_455 S
N533 Cu522 1.985 1_455 S
N533 C535 1.335 . S
N533 C536 1.390 . S
N534 C535 1.345 . S
N534 C537 1.336 . S
C535 N533 1.335 . S
C535 N534 1.345 . S
C535 H540 0.930 . S
C536 N533 1.390 . S
C536 C537 1.346 . S
C536 H541 0.930 1_455 S
C537 N534 1.336 . S
C537 C536 1.346 . S
C537 H544 0.929 . S
C538 O528 1.282 . S
C538 O539 1.216 . S
O539 C538 1.216 . S
H540 C535 0.930 . S
H541 C536 0.930 1_655 S
O542 Cu522 1.959 1_455 S
O542 C529 1.251 . S
H543 C526 0.930 . S
H544 C537 0.929 . S
Cu545 N546 2.029 . S
Cu545 O551 2.009 . S
Cu545 N556 1.957 1_545 S
Cu545 O565 1.924 1_545 S
N546 Cu545 2.029 . S
N546 C548 1.263 . S
N546 C550 1.389 . S
N547 C548 1.358 . S
N547 C549 1.400 . S
C548 N546 1.263 . S
C548 N547 1.358 . S
C548 H554 0.930 . S
C549 N547 1.400 . S
C549 C550 1.351 . S
C549 H566 0.930 . S
C550 N546 1.389 . S
C550 C549 1.351 . S
C550 H555 0.930 . S
O551 Cu545 2.009 . S
O551 C561 1.282 . S
C552 O553 1.261 . S
C552 O565 1.251 . S
O553 C552 1.261 . S
H554 C548 0.930 . S
H555 C550 0.930 . S
N556 Cu545 1.957 1_565 S
N556 C558 1.335 . S
N556 C559 1.390 . S
N557 C558 1.345 . S
N557 C560 1.336 . S
C558 N556 1.335 . S
C558 N557 1.345 . S
C558 H563 0.930 . S
C559 N556 1.390 . S
C559 C560 1.346 . S
C559 H564 0.930 . S
C560 N557 1.336 . S
C560 C559 1.346 . S
C560 H567 0.929 . S
C561 O551 1.282 . S
C561 O562 1.216 . S
O562 C561 1.216 . S
H563 C558 0.930 . S
H564 C559 0.930 . S
O565 Cu545 1.924 1_565 S
O565 C552 1.251 . S
H566 C549 0.930 . S
H567 C560 0.929 . S
Cu568 N569 1.999 . S
Cu568 O574 1.974 . S
Cu568 N579 1.985 . S
Cu568 O588 1.959 . S
N569 Cu568 1.999 . S
N569 C571 1.263 . S
N569 C573 1.389 . S
N570 C571 1.358 . S
N570 C572 1.400 . S
C571 N569 1.263 . S
C571 N570 1.358 . S
C571 H577 0.930 . S
C572 N570 1.400 . S
C572 C573 1.351 . S
C572 H589 0.930 . S
C573 N569 1.389 . S
C573 C572 1.351 . S
C573 H578 0.930 . S
O574 Cu568 1.974 . S
O574 C584 1.282 . S
C575 O576 1.261 . S
C575 O588 1.251 1_655 S
O576 C575 1.261 . S
H577 C571 0.930 . S
H578 C573 0.930 . S
N579 Cu568 1.985 . S
N579 C581 1.335 1_455 S
N579 C582 1.390 . S
N580 C581 1.345 . S
N580 C583 1.336 . S
C581 N579 1.335 1_655 S
C581 N580 1.345 . S
C581 H586 0.930 . S
C582 N579 1.390 . S
C582 C583 1.346 1_455 S
C582 H587 0.930 . S
C583 N580 1.336 . S
C583 C582 1.346 1_655 S
C583 H590 0.929 . S
C584 O574 1.282 . S
C584 O585 1.216 . S
O585 C584 1.216 . S
H586 C581 0.930 . S
H587 C582 0.930 . S
O588 Cu568 1.959 . S
O588 C575 1.251 1_455 S
H589 C572 0.930 . S
H590 C583 0.929 . S
Cu591 N592 1.999 . S
Cu591 O597 1.974 . S
Cu591 N602 1.985 . S
Cu591 O611 1.959 . S
N592 Cu591 1.999 . S
N592 C594 1.263 . S
N592 C596 1.389 . S
N593 C594 1.358 . S
N593 C595 1.400 . S
C594 N592 1.263 . S
C594 N593 1.358 . S
C594 H600 0.930 . S
C595 N593 1.400 . S
C595 C596 1.351 . S
C595 H612 0.930 . S
C596 N592 1.389 . S
C596 C595 1.351 . S
C596 H601 0.930 . S
O597 Cu591 1.974 . S
O597 C607 1.282 . S
C598 O599 1.261 . S
C598 O611 1.251 . S
O599 C598 1.261 . S
H600 C594 0.930 . S
H601 C596 0.930 . S
N602 Cu591 1.985 . S
N602 C604 1.335 1_545 S
N602 C605 1.390 . S
N603 C604 1.345 . S
N603 C606 1.336 . S
C604 N602 1.335 1_565 S
C604 N603 1.345 . S
C604 H609 0.930 . S
C605 N602 1.390 . S
C605 C606 1.346 1_545 S
C605 H610 0.930 . S
C606 N603 1.336 . S
C606 C605 1.346 1_565 S
C606 H613 0.929 . S
C607 O597 1.282 . S
C607 O608 1.216 . S
O608 C607 1.216 . S
H609 C604 0.930 . S
H610 C605 0.930 . S
O611 Cu591 1.959 . S
O611 C598 1.251 . S
H612 C595 0.930 . S
H613 C606 0.929 . S
Cu614 N615 1.999 . S
Cu614 O620 1.974 . S
Cu614 N625 1.985 . S
Cu614 O634 1.959 . S
N615 Cu614 1.999 . S
N615 C617 1.263 . S
N615 C619 1.389 . S
N616 C617 1.358 . S
N616 C618 1.400 . S
C617 N615 1.263 . S
C617 N616 1.358 . S
C617 H623 0.930 . S
C618 N616 1.400 . S
C618 C619 1.351 . S
C618 H635 0.930 . S
C619 N615 1.389 . S
C619 C618 1.351 . S
C619 H624 0.930 . S
O620 Cu614 1.974 . S
O620 C630 1.282 . S
C621 O622 1.261 . S
C621 O634 1.251 . S
O622 C621 1.261 . S
H623 C617 0.930 . S
H624 C619 0.930 . S
N625 Cu614 1.985 . S
N625 C627 1.335 . S
N625 C628 1.390 . S
N626 C627 1.345 . S
N626 C629 1.336 . S
C627 N625 1.335 . S
C627 N626 1.345 . S
C627 H632 0.930 . S
C628 N625 1.390 . S
C628 C629 1.346 . S
C628 H633 0.930 . S
C629 N626 1.336 . S
C629 C628 1.346 . S
C629 H636 0.929 . S
C630 O620 1.282 . S
C630 O631 1.216 . S
O631 C630 1.216 . S
H632 C627 0.930 . S
H633 C628 0.930 . S
O634 Cu614 1.959 . S
O634 C621 1.251 . S
H635 C618 0.930 . S
H636 C629 0.929 . S
Cu637 N638 1.999 . S
Cu637 O643 1.974 . S
Cu637 N648 1.985 . S
Cu637 O657 1.959 . S
N638 Cu637 1.999 . S
N638 C640 1.263 . S
N638 C642 1.389 . S
N639 C640 1.358 . S
N639 C641 1.400 . S
C640 N638 1.263 . S
C640 N639 1.358 . S
C640 H646 0.930 . S
C641 N639 1.400 . S
C641 C642 1.351 . S
C641 H658 0.930 . S
C642 N638 1.389 . S
C642 C641 1.351 . S
C642 H647 0.930 . S
O643 Cu637 1.974 . S
O643 C653 1.282 . S
C644 O645 1.261 . S
C644 O657 1.251 . S
O645 C644 1.261 . S
H646 C640 0.930 . S
H647 C642 0.930 . S
N648 Cu637 1.985 . S
N648 C650 1.335 1_545 S
N648 C651 1.390 . S
N649 C650 1.345 . S
N649 C652 1.336 . S
C650 N648 1.335 1_565 S
C650 N649 1.345 . S
C650 H655 0.930 . S
C651 N648 1.390 . S
C651 C652 1.346 1_545 S
C651 H656 0.930 . S
C652 N649 1.336 . S
C652 C651 1.346 1_565 S
C652 H659 0.929 . S
C653 O643 1.282 . S
C653 O654 1.216 . S
O654 C653 1.216 . S
H655 C650 0.930 . S
H656 C651 0.930 . S
O657 Cu637 1.959 . S
O657 C644 1.251 . S
H658 C641 0.930 . S
H659 C652 0.929 . S
Cu660 N661 1.999 . S
Cu660 O666 1.974 . S
Cu660 N671 1.985 . S
Cu660 O680 1.959 . S
N661 Cu660 1.999 . S
N661 C663 1.263 . S
N661 C665 1.389 . S
N662 C663 1.358 . S
N662 C664 1.400 . S
C663 N661 1.263 . S
C663 N662 1.358 . S
C663 H669 0.930 . S
C664 N662 1.400 . S
C664 C665 1.351 . S
C664 H681 0.930 . S
C665 N661 1.389 . S
C665 C664 1.351 . S
C665 H670 0.930 . S
O666 Cu660 1.974 . S
O666 C676 1.282 . S
C667 O668 1.261 . S
C667 O680 1.251 . S
O668 C667 1.261 . S
H669 C663 0.930 . S
H670 C665 0.930 . S
N671 Cu660 1.985 . S
N671 C673 1.335 . S
N671 C674 1.390 . S
N672 C673 1.345 . S
N672 C675 1.336 . S
C673 N671 1.335 . S
C673 N672 1.345 . S
C673 H678 0.930 . S
C674 N671 1.390 . S
C674 C675 1.346 . S
C674 H679 0.930 . S
C675 N672 1.336 . S
C675 C674 1.346 . S
C675 H682 0.929 . S
C676 O666 1.282 . S
C676 O677 1.216 . S
O677 C676 1.216 . S
H678 C673 0.930 . S
H679 C674 0.930 . S
O680 Cu660 1.959 . S
O680 C667 1.251 . S
H681 C664 0.930 . S
H682 C675 0.929 . S
Cu683 N684 1.999 . S
Cu683 O689 1.974 . S
Cu683 N694 1.985 . S
Cu683 O703 1.959 . S
N684 Cu683 1.999 . S
N684 C686 1.263 . S
N684 C688 1.389 . S
N685 C686 1.358 . S
N685 C687 1.400 . S
C686 N684 1.263 . S
C686 N685 1.358 . S
C686 H692 0.930 . S
C687 N685 1.400 . S
C687 C688 1.351 . S
C687 H704 0.930 . S
C688 N684 1.389 . S
C688 C687 1.351 . S
C688 H693 0.930 . S
O689 Cu683 1.974 . S
O689 C699 1.282 . S
C690 O691 1.261 . S
C690 O703 1.251 . S
O691 C690 1.261 . S
H692 C686 0.930 . S
H693 C688 0.930 . S
N694 Cu683 1.985 . S
N694 C696 1.335 . S
N694 C697 1.390 . S
N695 C696 1.345 . S
N695 C698 1.336 . S
C696 N694 1.335 . S
C696 N695 1.345 . S
C696 H701 0.930 . S
C697 N694 1.390 . S
C697 C698 1.346 . S
C697 H702 0.930 . S
C698 N695 1.336 . S
C698 C697 1.346 . S
C698 H705 0.929 . S
C699 O689 1.282 . S
C699 O700 1.216 . S
O700 C699 1.216 . S
H701 C696 0.930 . S
H702 C697 0.930 . S
O703 Cu683 1.959 . S
O703 C690 1.251 . S
H704 C687 0.930 . S
H705 C698 0.929 . S
Cu706 N707 1.999 . S
Cu706 O712 1.974 . S
Cu706 N717 1.985 . S
Cu706 O726 1.959 . S
N707 Cu706 1.999 . S
N707 C709 1.263 . S
N707 C711 1.389 . S
N708 C709 1.358 . S
N708 C710 1.400 . S
C709 N707 1.263 . S
C709 N708 1.358 . S
C709 H715 0.930 . S
C710 N708 1.400 . S
C710 C711 1.351 . S
C710 H727 0.930 . S
C711 N707 1.389 . S
C711 C710 1.351 . S
C711 H716 0.930 . S
O712 Cu706 1.974 . S
O712 C722 1.282 . S
C713 O714 1.261 . S
C713 O726 1.251 . S
O714 C713 1.261 . S
H715 C709 0.930 . S
H716 C711 0.930 . S
N717 Cu706 1.985 . S
N717 C719 1.335 . S
N717 C720 1.390 . S
N718 C719 1.345 . S
N718 C721 1.336 . S
C719 N717 1.335 . S
C719 N718 1.345 . S
C719 H724 0.930 . S
C720 N717 1.390 . S
C720 C721 1.346 . S
C720 H725 0.930 . S
C721 N718 1.336 . S
C721 C720 1.346 . S
C721 H728 0.929 . S
C722 O712 1.282 . S
C722 O723 1.216 . S
O723 C722 1.216 . S
H724 C719 0.930 . S
H725 C720 0.930 . S
O726 Cu706 1.959 . S
O726 C713 1.251 . S
H727 C710 0.930 . S
H728 C721 0.929 . S
Cu729 N730 1.999 . S
Cu729 O735 1.974 . S
Cu729 N740 1.985 . S
Cu729 O749 1.959 . S
N730 Cu729 1.999 . S
N730 C732 1.263 . S
N730 C734 1.389 . S
N731 C732 1.358 . S
N731 C733 1.400 . S
C732 N730 1.263 . S
C732 N731 1.358 . S
C732 H738 0.930 . S
C733 N731 1.400 . S
C733 C734 1.351 . S
C733 H750 0.930 . S
C734 N730 1.389 . S
C734 C733 1.351 . S
C734 H739 0.930 . S
O735 Cu729 1.974 . S
O735 C745 1.282 . S
C736 O737 1.261 . S
C736 O749 1.251 . S
O737 C736 1.261 . S
H738 C732 0.930 . S
H739 C734 0.930 . S
N740 Cu729 1.985 . S
N740 C742 1.335 . S
N740 C743 1.390 . S
N741 C742 1.345 . S
N741 C744 1.336 . S
C742 N740 1.335 . S
C742 N741 1.345 . S
C742 H747 0.930 . S
C743 N740 1.390 . S
C743 C744 1.346 . S
C743 H748 0.930 . S
C744 N741 1.336 . S
C744 C743 1.346 . S
C744 H751 0.929 . S
C745 O735 1.282 . S
C745 O746 1.216 . S
O746 C745 1.216 . S
H747 C742 0.930 . S
H748 C743 0.930 . S
O749 Cu729 1.959 . S
O749 C736 1.251 . S
H750 C733 0.930 . S
H751 C744 0.929 . S
Cu752 N753 1.999 . S
Cu752 O758 1.974 . S
Cu752 N763 1.985 . S
Cu752 O772 1.959 . S
N753 Cu752 1.999 . S
N753 C755 1.263 . S
N753 C757 1.389 . S
N754 C755 1.358 . S
N754 C756 1.400 . S
C755 N753 1.263 . S
C755 N754 1.358 . S
C755 H761 0.930 . S
C756 N754 1.400 . S
C756 C757 1.351 . S
C756 H773 0.930 . S
C757 N753 1.389 . S
C757 C756 1.351 . S
C757 H762 0.930 . S
O758 Cu752 1.974 . S
O758 C768 1.282 . S
C759 O760 1.261 . S
C759 O772 1.251 . S
O760 C759 1.261 . S
H761 C755 0.930 . S
H762 C757 0.930 . S
N763 Cu752 1.985 . S
N763 C765 1.335 . S
N763 C766 1.390 . S
N764 C765 1.345 . S
N764 C767 1.336 . S
C765 N763 1.335 . S
C765 N764 1.345 . S
C765 H770 0.930 . S
C766 N763 1.390 . S
C766 C767 1.346 . S
C766 H771 0.930 . S
C767 N764 1.336 . S
C767 C766 1.346 . S
C767 H774 0.929 . S
C768 O758 1.282 . S
C768 O769 1.216 . S
O769 C768 1.216 . S
H770 C765 0.930 . S
H771 C766 0.930 . S
O772 Cu752 1.959 . S
O772 C759 1.251 . S
H773 C756 0.930 . S
H774 C767 0.929 . S
Cu775 N776 1.999 . S
Cu775 O781 1.974 . S
Cu775 N786 1.985 . S
Cu775 O795 1.959 . S
N776 Cu775 1.999 . S
N776 C778 1.263 . S
N776 C780 1.389 . S
N777 C778 1.358 . S
N777 C779 1.400 . S
C778 N776 1.263 . S
C778 N777 1.358 . S
C778 H784 0.930 . S
C779 N777 1.400 . S
C779 C780 1.351 . S
C779 H796 0.930 . S
C780 N776 1.389 . S
C780 C779 1.351 . S
C780 H785 0.930 . S
O781 Cu775 1.974 . S
O781 C791 1.282 . S
C782 O783 1.261 . S
C782 O795 1.251 . S
O783 C782 1.261 . S
H784 C778 0.930 . S
H785 C780 0.930 . S
N786 Cu775 1.985 . S
N786 C788 1.335 . S
N786 C789 1.390 . S
N787 C788 1.345 . S
N787 C790 1.336 . S
C788 N786 1.335 . S
C788 N787 1.345 . S
C788 H793 0.930 . S
C789 N786 1.390 . S
C789 C790 1.346 . S
C789 H794 0.930 . S
C790 N787 1.336 . S
C790 C789 1.346 . S
C790 H797 0.929 . S
C791 O781 1.282 . S
C791 O792 1.216 . S
O792 C791 1.216 . S
H793 C788 0.930 . S
H794 C789 0.930 . S
O795 Cu775 1.959 . S
O795 C782 1.251 . S
H796 C779 0.930 . S
H797 C790 0.929 . S
Cu798 N799 1.999 . S
Cu798 O804 1.974 . S
Cu798 N809 1.985 . S
Cu798 O818 1.959 . S
N799 Cu798 1.999 . S
N799 C801 1.263 . S
N799 C803 1.389 . S
N800 C801 1.358 . S
N800 C802 1.400 . S
C801 N799 1.263 . S
C801 N800 1.358 . S
C801 H807 0.930 . S
C802 N800 1.400 . S
C802 C803 1.351 . S
C802 H819 0.930 . S
C803 N799 1.389 . S
C803 C802 1.351 . S
C803 H808 0.930 . S
O804 Cu798 1.974 . S
O804 C814 1.282 . S
C805 O806 1.261 . S
C805 O818 1.251 . S
O806 C805 1.261 . S
H807 C801 0.930 . S
H808 C803 0.930 . S
N809 Cu798 1.985 . S
N809 C811 1.335 . S
N809 C812 1.390 . S
N810 C811 1.345 . S
N810 C813 1.336 . S
C811 N809 1.335 . S
C811 N810 1.345 . S
C811 H816 0.930 . S
C812 N809 1.390 . S
C812 C813 1.346 . S
C812 H817 0.930 . S
C813 N810 1.336 . S
C813 C812 1.346 . S
C813 H820 0.929 . S
C814 O804 1.282 . S
C814 O815 1.216 . S
O815 C814 1.216 . S
H816 C811 0.930 . S
H817 C812 0.930 . S
O818 Cu798 1.959 . S
O818 C805 1.251 . S
H819 C802 0.930 . S
H820 C813 0.929 . S
Cu821 N822 1.999 . S
Cu821 O827 1.974 . S
Cu821 N832 1.985 . S
Cu821 O841 1.959 . S
N822 Cu821 1.999 . S
N822 C824 1.263 . S
N822 C826 1.389 . S
N823 C824 1.358 . S
N823 C825 1.400 . S
C824 N822 1.263 . S
C824 N823 1.358 . S
C824 H830 0.930 . S
C825 N823 1.400 . S
C825 C826 1.351 . S
C825 H842 0.930 . S
C826 N822 1.389 . S
C826 C825 1.351 . S
C826 H831 0.930 . S
O827 Cu821 1.974 . S
O827 C837 1.282 . S
C828 O829 1.261 . S
C828 O841 1.251 . S
O829 C828 1.261 . S
H830 C824 0.930 . S
H831 C826 0.930 . S
N832 Cu821 1.985 . S
N832 C834 1.335 . S
N832 C835 1.390 . S
N833 C834 1.345 . S
N833 C836 1.336 . S
C834 N832 1.335 . S
C834 N833 1.345 . S
C834 H839 0.930 . S
C835 N832 1.390 . S
C835 C836 1.346 . S
C835 H840 0.930 . S
C836 N833 1.336 . S
C836 C835 1.346 . S
C836 H843 0.929 . S
C837 O827 1.282 . S
C837 O838 1.216 . S
O838 C837 1.216 . S
H839 C834 0.930 . S
H840 C835 0.930 . S
O841 Cu821 1.959 . S
O841 C828 1.251 . S
H842 C825 0.930 . S
H843 C836 0.929 . S
Cu844 N845 1.999 . S
Cu844 O850 1.974 . S
Cu844 N855 1.985 . S
Cu844 O864 1.959 . S
N845 Cu844 1.999 . S
N845 C847 1.263 . S
N845 C849 1.389 . S
N846 C847 1.358 . S
N846 C848 1.400 . S
C847 N845 1.263 . S
C847 N846 1.358 . S
C847 H853 0.930 . S
C848 N846 1.400 . S
C848 C849 1.351 . S
C848 H865 0.930 . S
C849 N845 1.389 . S
C849 C848 1.351 . S
C849 H854 0.930 . S
O850 Cu844 1.974 . S
O850 C860 1.282 . S
C851 O852 1.261 . S
C851 O864 1.251 . S
O852 C851 1.261 . S
H853 C847 0.930 . S
H854 C849 0.930 . S
N855 Cu844 1.985 . S
N855 C857 1.335 . S
N855 C858 1.390 . S
N856 C857 1.345 . S
N856 C859 1.336 . S
C857 N855 1.335 . S
C857 N856 1.345 . S
C857 H862 0.930 . S
C858 N855 1.390 . S
C858 C859 1.346 . S
C858 H863 0.930 . S
C859 N856 1.336 . S
C859 C858 1.346 . S
C859 H866 0.929 . S
C860 O850 1.282 . S
C860 O861 1.216 . S
O861 C860 1.216 . S
H862 C857 0.930 . S
H863 C858 0.930 . S
O864 Cu844 1.959 . S
O864 C851 1.251 . S
H865 C848 0.930 . S
H866 C859 0.929 . S
Cu867 N868 1.999 . S
Cu867 O873 1.974 . S
Cu867 N878 1.985 . S
Cu867 O887 1.959 . S
N868 Cu867 1.999 . S
N868 C870 1.263 . S
N868 C872 1.389 . S
N869 C870 1.358 . S
N869 C871 1.400 . S
C870 N868 1.263 . S
C870 N869 1.358 . S
C870 H876 0.930 . S
C871 N869 1.400 . S
C871 C872 1.351 . S
C871 H888 0.930 . S
C872 N868 1.389 . S
C872 C871 1.351 . S
C872 H877 0.930 . S
O873 Cu867 1.974 . S
O873 C883 1.282 . S
C874 O875 1.261 . S
C874 O887 1.251 . S
O875 C874 1.261 . S
H876 C870 0.930 . S
H877 C872 0.930 . S
N878 Cu867 1.985 . S
N878 C880 1.335 . S
N878 C881 1.390 . S
N879 C880 1.345 . S
N879 C882 1.336 . S
C880 N878 1.335 . S
C880 N879 1.345 . S
C880 H885 0.930 . S
C881 N878 1.390 . S
C881 C882 1.346 . S
C881 H886 0.930 . S
C882 N879 1.336 . S
C882 C881 1.346 . S
C882 H889 0.929 . S
C883 O873 1.282 . S
C883 O884 1.216 . S
O884 C883 1.216 . S
H885 C880 0.930 . S
H886 C881 0.930 . S
O887 Cu867 1.959 . S
O887 C874 1.251 . S
H888 C871 0.930 . S
H889 C882 0.929 . S
Cu890 N891 1.999 . S
Cu890 O896 1.974 . S
Cu890 N901 1.985 . S
Cu890 O910 1.959 . S
N891 Cu890 1.999 . S
N891 C893 1.263 . S
N891 C895 1.389 . S
N892 C893 1.358 . S
N892 C894 1.400 . S
C893 N891 1.263 . S
C893 N892 1.358 . S
C893 H899 0.930 . S
C894 N892 1.400 . S
C894 C895 1.351 . S
C894 H911 0.930 . S
C895 N891 1.389 . S
C895 C894 1.351 . S
C895 H900 0.930 . S
O896 Cu890 1.974 . S
O896 C906 1.282 . S
C897 O898 1.261 . S
C897 O910 1.251 . S
O898 C897 1.261 . S
H899 C893 0.930 . S
H900 C895 0.930 . S
N901 Cu890 1.985 . S
N901 C903 1.335 . S
N901 C904 1.390 . S
N902 C903 1.345 . S
N902 C905 1.336 . S
C903 N901 1.335 . S
C903 N902 1.345 . S
C903 H908 0.930 . S
C904 N901 1.390 . S
C904 C905 1.346 . S
C904 H909 0.930 . S
C905 N902 1.336 . S
C905 C904 1.346 . S
C905 H912 0.929 . S
C906 O896 1.282 . S
C906 O907 1.216 . S
O907 C906 1.216 . S
H908 C903 0.930 . S
H909 C904 0.930 . S
O910 Cu890 1.959 . S
O910 C897 1.251 . S
H911 C894 0.930 . S
H912 C905 0.929 . S
Cu913 N914 1.999 . S
Cu913 O919 1.974 . S
Cu913 N924 1.985 . S
Cu913 O933 1.959 . S
N914 Cu913 1.999 . S
N914 C916 1.263 . S
N914 C918 1.389 . S
N915 C916 1.358 . S
N915 C917 1.400 . S
C916 N914 1.263 . S
C916 N915 1.358 . S
C916 H922 0.930 . S
C917 N915 1.400 . S
C917 C918 1.351 . S
C917 H934 0.930 . S
C918 N914 1.389 . S
C918 C917 1.351 . S
C918 H923 0.930 . S
O919 Cu913 1.974 . S
O919 C929 1.282 . S
C920 O921 1.261 . S
C920 O933 1.251 . S
O921 C920 1.261 . S
H922 C916 0.930 . S
H923 C918 0.930 . S
N924 Cu913 1.985 . S
N924 C926 1.335 . S
N924 C927 1.390 . S
N925 C926 1.345 . S
N925 C928 1.336 . S
C926 N924 1.335 . S
C926 N925 1.345 . S
C926 H931 0.930 . S
C927 N924 1.390 . S
C927 C928 1.346 . S
C927 H932 0.930 . S
C928 N925 1.336 . S
C928 C927 1.346 . S
C928 H935 0.929 . S
C929 O919 1.282 . S
C929 O930 1.216 . S
O930 C929 1.216 . S
H931 C926 0.930 . S
H932 C927 0.930 . S
O933 Cu913 1.959 . S
O933 C920 1.251 . S
H934 C917 0.930 . S
H935 C928 0.929 . S
C936 C937 1.387 . S
C936 H940 0.950 . S
C936 C945 1.390 . S
C937 C936 1.387 . S
C937 C939 1.387 . S
H938 C945 0.950 . S
C939 C937 1.387 . S
C939 C941 1.390 . S
C939 H943 0.950 . S
H940 C936 0.950 . S
C941 C939 1.390 . S
C941 C942 1.387 . S
C941 H944 0.950 . S
C942 C941 1.387 . S
C942 C945 1.387 . S
H943 C939 0.950 . S
H944 C941 0.950 . S
C945 C936 1.390 . S
C945 H938 0.950 . S
C945 C942 1.387 . S
C946 C947 1.387 . S
C946 H950 0.950 . S
C946 C955 1.390 . S
C947 C946 1.387 . S
C947 C949 1.387 . S
H948 C955 0.950 . S
C949 C947 1.387 . S
C949 C951 1.390 . S
C949 H953 0.950 . S
H950 C946 0.950 . S
C951 C949 1.390 . S
C951 C952 1.387 . S
C951 H954 0.950 . S
C952 C951 1.387 . S
C952 C955 1.387 . S
H953 C949 0.950 . S
H954 C951 0.950 . S
C955 C946 1.390 . S
C955 H948 0.950 . S
C955 C952 1.387 . S
C956 C957 1.387 . S
C956 H960 0.950 . S
C956 C965 1.390 . S
C957 C956 1.387 . S
C957 C959 1.387 . S
H958 C965 0.950 . S
C959 C957 1.387 . S
C959 C961 1.390 . S
C959 H963 0.950 . S
H960 C956 0.950 . S
C961 C959 1.390 . S
C961 C962 1.387 . S
C961 H964 0.950 . S
C962 C961 1.387 . S
C962 C965 1.387 . S
H963 C959 0.950 . S
H964 C961 0.950 . S
C965 C956 1.390 . S
C965 H958 0.950 . S
C965 C962 1.387 . S
C966 C967 1.387 . S
C966 H970 0.950 . S
C966 C975 1.390 . S
C967 C966 1.387 . S
C967 C969 1.387 . S
H968 C975 0.950 . S
C969 C967 1.387 . S
C969 C971 1.390 . S
C969 H973 0.950 . S
H970 C966 0.950 . S
C971 C969 1.390 . S
C971 C972 1.387 . S
C971 H974 0.950 . S
C972 C971 1.387 . S
C972 C975 1.387 . S
H973 C969 0.950 . S
H974 C971 0.950 . S
C975 C966 1.390 . S
C975 H968 0.950 . S
C975 C972 1.387 . S
C976 C977 1.387 . S
C976 H980 0.950 . S
C976 C985 1.390 . S
C977 C976 1.387 . S
C977 C979 1.387 . S
H978 C985 0.950 . S
C979 C977 1.387 . S
C979 C981 1.390 . S
C979 H983 0.950 . S
H980 C976 0.950 . S
C981 C979 1.390 . S
C981 C982 1.387 . S
C981 H984 0.950 . S
C982 C981 1.387 . S
C982 C985 1.387 . S
H983 C979 0.950 . S
H984 C981 0.950 . S
C985 C976 1.390 . S
C985 H978 0.950 . S
C985 C982 1.387 . S
C986 C987 1.387 . S
C986 H990 0.950 . S
C986 C995 1.390 . S
C987 C986 1.387 . S
C987 C989 1.387 . S
H988 C995 0.950 . S
C989 C987 1.387 . S
C989 C991 1.390 . S
C989 H993 0.950 . S
H990 C986 0.950 . S
C991 C989 1.390 . S
C991 C992 1.387 . S
C991 H994 0.950 . S
C992 C991 1.387 . S
C992 C995 1.387 . S
H993 C989 0.950 . S
H994 C991 0.950 . S
C995 C986 1.390 . S
C995 H988 0.950 . S
C995 C992 1.387 . S
C996 C997 1.387 . S
C996 H1000 0.950 . S
C996 C1005 1.390 . S
C997 C996 1.387 . S
C997 C999 1.387 . S
H998 C1005 0.950 . S
C999 C997 1.387 . S
C999 C1001 1.390 . S
C999 H1003 0.950 . S
H1000 C996 0.950 . S
C1001 C999 1.390 . S
C1001 C1002 1.387 . S
C1001 H1004 0.950 . S
C1002 C1001 1.387 . S
C1002 C1005 1.387 . S
H1003 C999 0.950 . S
H1004 C1001 0.950 . S
C1005 C996 1.390 . S
C1005 H998 0.950 . S
C1005 C1002 1.387 . S
C1006 C1007 1.387 . S
C1006 H1010 0.950 . S
C1006 C1015 1.390 . S
C1007 C1006 1.387 . S
C1007 C1009 1.387 . S
H1008 C1015 0.950 . S
C1009 C1007 1.387 . S
C1009 C1011 1.390 . S
C1009 H1013 0.950 . S
H1010 C1006 0.950 . S
C1011 C1009 1.390 . S
C1011 C1012 1.387 . S
C1011 H1014 0.950 . S
C1012 C1011 1.387 . S
C1012 C1015 1.387 . S
H1013 C1009 0.950 . S
H1014 C1011 0.950 . S
C1015 C1006 1.390 . S
C1015 H1008 0.950 . S
C1015 C1012 1.387 . S
C1016 C1017 1.387 . S
C1016 H1020 0.950 . S
C1016 C1025 1.390 . S
C1017 C1016 1.387 . S
C1017 C1019 1.387 . S
H1018 C1025 0.950 . S
C1019 C1017 1.387 . S
C1019 C1021 1.390 . S
C1019 H1023 0.950 . S
H1020 C1016 0.950 . S
C1021 C1019 1.390 . S
C1021 C1022 1.387 . S
C1021 H1024 0.950 . S
C1022 C1021 1.387 . S
C1022 C1025 1.387 . S
H1023 C1019 0.950 . S
H1024 C1021 0.950 . S
C1025 C1016 1.390 . S
C1025 H1018 0.950 . S
C1025 C1022 1.387 . S
C1026 C1027 1.387 . S
C1026 H1030 0.950 . S
C1026 C1035 1.390 . S
C1027 C1026 1.387 . S
C1027 C1029 1.387 . S
H1028 C1035 0.950 . S
C1029 C1027 1.387 . S
C1029 C1031 1.390 . S
C1029 H1033 0.950 . S
H1030 C1026 0.950 . S
C1031 C1029 1.390 . S
C1031 C1032 1.387 . S
C1031 H1034 0.950 . S
C1032 C1031 1.387 . S
C1032 C1035 1.387 . S
H1033 C1029 0.950 . S
H1034 C1031 0.950 . S
C1035 C1026 1.390 . S
C1035 H1028 0.950 . S
C1035 C1032 1.387 . S
C1036 C1037 1.387 . S
C1036 H1040 0.950 . S
C1036 C1045 1.390 . S
C1037 C1036 1.387 . S
C1037 C1039 1.387 . S
H1038 C1045 0.950 . S
C1039 C1037 1.387 . S
C1039 C1041 1.390 . S
C1039 H1043 0.950 . S
H1040 C1036 0.950 . S
C1041 C1039 1.390 . S
C1041 C1042 1.387 . S
C1041 H1044 0.950 . S
C1042 C1041 1.387 . S
C1042 C1045 1.387 . S
H1043 C1039 0.950 . S
H1044 C1041 0.950 . S
C1045 C1036 1.390 . S
C1045 H1038 0.950 . S
C1045 C1042 1.387 . S
C1046 C1047 1.387 . S
C1046 H1050 0.950 . S
C1046 C1055 1.390 . S
C1047 C1046 1.387 . S
C1047 C1049 1.387 . S
H1048 C1055 0.950 . S
C1049 C1047 1.387 . S
C1049 C1051 1.390 . S
C1049 H1053 0.950 . S
H1050 C1046 0.950 . S
C1051 C1049 1.390 . S
C1051 C1052 1.387 . S
C1051 H1054 0.950 . S
C1052 C1051 1.387 . S
C1052 C1055 1.387 . S
H1053 C1049 0.950 . S
H1054 C1051 0.950 . S
C1055 C1046 1.390 . S
C1055 H1048 0.950 . S
C1055 C1052 1.387 . S
C1056 C1057 1.387 . S
C1056 H1060 0.950 . S
C1056 C1065 1.390 . S
C1057 C1056 1.387 . S
C1057 C1059 1.387 . S
H1058 C1065 0.950 . S
C1059 C1057 1.387 . S
C1059 C1061 1.390 . S
C1059 H1063 0.950 . S
H1060 C1056 0.950 . S
C1061 C1059 1.390 . S
C1061 C1062 1.387 . S
C1061 H1064 0.950 . S
C1062 C1061 1.387 . S
C1062 C1065 1.387 . S
H1063 C1059 0.950 . S
H1064 C1061 0.950 . S
C1065 C1056 1.390 . S
C1065 H1058 0.950 . S
C1065 C1062 1.387 . S
C1066 C1067 1.387 . S
C1066 H1070 0.950 . S
C1066 C1075 1.390 . S
C1067 C1066 1.387 . S
C1067 C1069 1.387 . S
H1068 C1075 0.950 . S
C1069 C1067 1.387 . S
C1069 C1071 1.390 . S
C1069 H1073 0.950 . S
H1070 C1066 0.950 . S
C1071 C1069 1.390 . S
C1071 C1072 1.387 . S
C1071 H1074 0.950 . S
C1072 C1071 1.387 . S
C1072 C1075 1.387 . S
H1073 C1069 0.950 . S
H1074 C1071 0.950 . S
C1075 C1066 1.390 . S
C1075 H1068 0.950 . S
C1075 C1072 1.387 . S
C1076 C1077 1.387 . S
C1076 H1080 0.950 . S
C1076 C1085 1.390 . S
C1077 C1076 1.387 . S
C1077 C1079 1.387 . S
H1078 C1085 0.950 . S
C1079 C1077 1.387 . S
C1079 C1081 1.390 . S
C1079 H1083 0.950 . S
H1080 C1076 0.950 . S
C1081 C1079 1.390 . S
C1081 C1082 1.387 . S
C1081 H1084 0.950 . S
C1082 C1081 1.387 . S
C1082 C1085 1.387 . S
H1083 C1079 0.950 . S
H1084 C1081 0.950 . S
C1085 C1076 1.390 . S
C1085 H1078 0.950 . S
C1085 C1082 1.387 . S
C1086 C1087 1.387 . S
C1086 H1090 0.950 . S
C1086 C1095 1.390 . S
C1087 C1086 1.387 . S
C1087 C1089 1.387 . S
H1088 C1095 0.955 . S
C1089 C1087 1.387 . S
C1089 C1091 1.390 . S
C1089 H1093 0.950 . S
H1090 C1086 0.950 . S
C1091 C1089 1.390 . S
C1091 C1092 1.387 1_565 S
C1091 H1094 0.950 1_565 S
C1092 C1091 1.387 1_545 S
C1092 C1095 1.387 1_545 S
H1093 C1089 0.950 . S
H1094 C1091 0.950 1_545 S
C1095 C1086 1.390 . S
C1095 H1088 0.955 . S
C1095 C1092 1.387 1_565 S
C1096 C1097 1.387 . S
C1096 H1100 0.950 . S
C1096 C1105 1.390 . S
C1097 C1096 1.387 . S
C1097 C1099 1.387 . S
H1098 C1105 0.950 . S
C1099 C1097 1.387 . S
C1099 C1101 1.390 . S
C1099 H1103 0.950 . S
H1100 C1096 0.950 . S
C1101 C1099 1.390 . S
C1101 C1102 1.387 . S
C1101 H1104 0.950 . S
C1102 C1101 1.387 . S
C1102 C1105 1.387 . S
H1103 C1099 0.950 . S
H1104 C1101 0.950 . S
C1105 C1096 1.390 . S
C1105 H1098 0.950 . S
C1105 C1102 1.387 . S
C1106 C1107 1.387 . S
C1106 H1110 0.950 . S
C1106 C1115 1.390 . S
C1107 C1106 1.387 . S
C1107 C1109 1.387 . S
H1108 C1115 0.950 . S
C1109 C1107 1.387 . S
C1109 C1111 1.390 . S
C1109 H1113 0.950 . S
H1110 C1106 0.950 . S
C1111 C1109 1.390 . S
C1111 C1112 1.387 . S
C1111 H1114 0.950 . S
C1112 C1111 1.387 . S
C1112 C1115 1.387 . S
H1113 C1109 0.950 . S
H1114 C1111 0.950 . S
C1115 C1106 1.390 . S
C1115 H1108 0.950 . S
C1115 C1112 1.387 . S
C1116 C1117 1.387 . S
C1116 H1120 0.950 . S
C1116 C1125 1.390 . S
C1117 C1116 1.387 . S
C1117 C1119 1.387 . S
H1118 C1125 0.950 . S
C1119 C1117 1.387 . S
C1119 C1121 1.390 . S
C1119 H1123 0.950 . S
H1120 C1116 0.950 . S
C1121 C1119 1.390 . S
C1121 C1122 1.387 . S
C1121 H1124 0.950 . S
C1122 C1121 1.387 . S
C1122 C1125 1.387 . S
H1123 C1119 0.950 . S
H1124 C1121 0.950 . S
C1125 C1116 1.390 . S
C1125 H1118 0.950 . S
C1125 C1122 1.387 . S
C1126 C1127 1.387 . S
C1126 H1130 0.950 . S
C1126 C1135 1.390 . S
C1127 C1126 1.387 . S
C1127 C1129 1.387 . S
H1128 C1135 0.950 . S
C1129 C1127 1.387 . S
C1129 C1131 1.390 . S
C1129 H1133 0.950 . S
H1130 C1126 0.950 . S
C1131 C1129 1.390 . S
C1131 C1132 1.387 . S
C1131 H1134 0.950 . S
C1132 C1131 1.387 . S
C1132 C1135 1.387 . S
H1133 C1129 0.950 . S
H1134 C1131 0.950 . S
C1135 C1126 1.390 . S
C1135 H1128 0.950 . S
C1135 C1132 1.387 . S
C1136 C1137 1.387 . S
C1136 H1140 0.950 . S
C1136 C1145 1.390 . S
C1137 C1136 1.387 . S
C1137 C1139 1.387 . S
H1138 C1145 0.950 . S
C1139 C1137 1.387 . S
C1139 C1141 1.390 . S
C1139 H1143 0.950 . S
H1140 C1136 0.950 . S
C1141 C1139 1.390 . S
C1141 C1142 1.387 . S
C1141 H1144 0.950 . S
C1142 C1141 1.387 . S
C1142 C1145 1.387 . S
H1143 C1139 0.950 . S
H1144 C1141 0.950 . S
C1145 C1136 1.390 . S
C1145 H1138 0.950 . S
C1145 C1142 1.387 . S
C1146 C1147 1.387 . S
C1146 H1150 0.950 . S
C1146 C1155 1.390 . S
C1147 C1146 1.387 . S
C1147 C1149 1.387 . S
H1148 C1155 0.950 . S
C1149 C1147 1.387 . S
C1149 C1151 1.390 . S
C1149 H1153 0.950 . S
H1150 C1146 0.950 . S
C1151 C1149 1.390 . S
C1151 C1152 1.387 . S
C1151 H1154 0.950 . S
C1152 C1151 1.387 . S
C1152 C1155 1.387 . S
H1153 C1149 0.950 . S
H1154 C1151 0.950 . S
C1155 C1146 1.390 . S
C1155 H1148 0.950 . S
C1155 C1152 1.387 . S
C1156 C1157 1.387 . S
C1156 H1160 0.950 . S
C1156 C1165 1.390 . S
C1157 C1156 1.387 . S
C1157 C1159 1.387 . S
H1158 C1165 0.950 . S
C1159 C1157 1.387 . S
C1159 C1161 1.390 . S
C1159 H1163 0.950 . S
H1160 C1156 0.950 . S
C1161 C1159 1.390 . S
C1161 C1162 1.387 . S
C1161 H1164 0.950 . S
C1162 C1161 1.387 . S
C1162 C1165 1.387 . S
H1163 C1159 0.950 . S
H1164 C1161 0.950 . S
C1165 C1156 1.390 . S
C1165 H1158 0.950 . S
C1165 C1162 1.387 . S
C1166 C1167 1.387 . S
C1166 H1170 0.950 . S
C1166 C1175 1.390 . S
C1167 C1166 1.387 . S
C1167 C1169 1.387 . S
H1168 C1175 0.950 . S
C1169 C1167 1.387 . S
C1169 C1171 1.390 . S
C1169 H1173 0.950 . S
H1170 C1166 0.950 . S
C1171 C1169 1.390 . S
C1171 C1172 1.387 . S
C1171 H1174 0.950 . S
C1172 C1171 1.387 . S
C1172 C1175 1.387 . S
H1173 C1169 0.950 . S
H1174 C1171 0.950 . S
C1175 C1166 1.390 . S
C1175 H1168 0.950 . S
C1175 C1172 1.387 . S
C1176 C1177 1.387 . S
C1176 H1180 0.950 . S
C1176 C1185 1.390 . S
C1177 C1176 1.387 . S
C1177 C1179 1.387 . S
H1178 C1185 0.950 . S
C1179 C1177 1.387 . S
C1179 C1181 1.390 . S
C1179 H1183 0.950 . S
H1180 C1176 0.950 . S
C1181 C1179 1.390 . S
C1181 C1182 1.387 . S
C1181 H1184 0.950 . S
C1182 C1181 1.387 . S
C1182 C1185 1.387 . S
H1183 C1179 0.950 . S
H1184 C1181 0.950 . S
C1185 C1176 1.390 . S
C1185 H1178 0.950 . S
C1185 C1182 1.387 . S
C1186 C1187 1.387 . S
C1186 H1190 0.950 . S
C1186 C1195 1.390 . S
C1187 C1186 1.387 . S
C1187 C1189 1.387 . S
H1188 C1195 0.950 . S
C1189 C1187 1.387 . S
C1189 C1191 1.390 . S
C1189 H1193 0.950 . S
H1190 C1186 0.950 . S
C1191 C1189 1.390 . S
C1191 C1192 1.387 . S
C1191 H1194 0.950 . S
C1192 C1191 1.387 . S
C1192 C1195 1.387 . S
H1193 C1189 0.950 . S
H1194 C1191 0.950 . S
C1195 C1186 1.390 . S
C1195 H1188 0.950 . S
C1195 C1192 1.387 . S
C1196 C1197 1.387 . S
C1196 H1200 0.950 . S
C1196 C1205 1.390 . S
C1197 C1196 1.387 . S
C1197 C1199 1.387 . S
H1198 C1205 0.950 . S
C1199 C1197 1.387 . S
C1199 C1201 1.390 . S
C1199 H1203 0.950 . S
H1200 C1196 0.950 . S
C1201 C1199 1.390 . S
C1201 C1202 1.387 . S
C1201 H1204 0.950 . S
C1202 C1201 1.387 . S
C1202 C1205 1.387 . S
H1203 C1199 0.950 . S
H1204 C1201 0.950 . S
C1205 C1196 1.390 . S
C1205 H1198 0.950 . S
C1205 C1202 1.387 . S
C1206 C1207 1.387 . S
C1206 H1210 0.950 . S
C1206 C1215 1.390 . S
C1207 C1206 1.387 . S
C1207 C1209 1.387 . S
H1208 C1215 0.950 . S
C1209 C1207 1.387 . S
C1209 C1211 1.390 . S
C1209 H1213 0.950 . S
H1210 C1206 0.950 . S
C1211 C1209 1.390 . S
C1211 C1212 1.387 . S
C1211 H1214 0.950 . S
C1212 C1211 1.387 . S
C1212 C1215 1.387 . S
H1213 C1209 0.950 . S
H1214 C1211 0.950 . S
C1215 C1206 1.390 . S
C1215 H1208 0.950 . S
C1215 C1212 1.387 . S
C1216 C1217 1.387 . S
C1216 H1220 0.950 . S
C1216 C1225 1.390 . S
C1217 C1216 1.387 . S
C1217 C1219 1.387 . S
H1218 C1225 0.950 . S
C1219 C1217 1.387 . S
C1219 C1221 1.390 . S
C1219 H1223 0.950 . S
H1220 C1216 0.950 . S
C1221 C1219 1.390 . S
C1221 C1222 1.387 . S
C1221 H1224 0.950 . S
C1222 C1221 1.387 . S
C1222 C1225 1.387 . S
H1223 C1219 0.950 . S
H1224 C1221 0.950 . S
C1225 C1216 1.390 . S
C1225 H1218 0.950 . S
C1225 C1222 1.387 . S
C1226 C1227 1.387 . S
C1226 H1230 0.950 . S
C1226 C1235 1.390 . S
C1227 C1226 1.387 . S
C1227 C1229 1.387 . S
H1228 C1235 0.950 . S
C1229 C1227 1.387 . S
C1229 C1231 1.390 . S
C1229 H1233 0.950 . S
H1230 C1226 0.950 . S
C1231 C1229 1.390 . S
C1231 C1232 1.387 . S
C1231 H1234 0.950 . S
C1232 C1231 1.387 . S
C1232 C1235 1.387 . S
H1233 C1229 0.950 . S
H1234 C1231 0.950 . S
C1235 C1226 1.390 . S
C1235 H1228 0.950 . S
C1235 C1232 1.387 . S
C1236 C1237 1.387 . S
C1236 H1240 0.950 . S
C1236 C1245 1.390 . S
C1237 C1236 1.387 . S
C1237 C1239 1.387 . S
H1238 C1245 0.950 . S
C1239 C1237 1.387 . S
C1239 C1241 1.390 . S
C1239 H1243 0.950 . S
H1240 C1236 0.950 . S
C1241 C1239 1.390 . S
C1241 C1242 1.387 . S
C1241 H1244 0.950 . S
C1242 C1241 1.387 . S
C1242 C1245 1.387 . S
H1243 C1239 0.950 . S
H1244 C1241 0.950 . S
C1245 C1236 1.390 . S
C1245 H1238 0.950 . S
C1245 C1242 1.387 . S
C1246 C1247 1.387 . S
C1246 H1250 0.950 . S
C1246 C1255 1.390 . S
C1247 C1246 1.387 . S
C1247 C1249 1.387 . S
H1248 C1255 0.950 . S
C1249 C1247 1.387 . S
C1249 C1251 1.390 . S
C1249 H1253 0.950 . S
H1250 C1246 0.950 . S
C1251 C1249 1.390 . S
C1251 C1252 1.387 . S
C1251 H1254 0.950 . S
C1252 C1251 1.387 . S
C1252 C1255 1.387 . S
H1253 C1249 0.950 . S
H1254 C1251 0.950 . S
C1255 C1246 1.390 . S
C1255 H1248 0.950 . S
C1255 C1252 1.387 . S
C1256 C1257 1.387 . S
C1256 H1260 0.950 . S
C1256 C1265 1.390 . S
C1257 C1256 1.387 . S
C1257 C1259 1.387 . S
H1258 C1265 0.950 . S
C1259 C1257 1.387 . S
C1259 C1261 1.390 . S
C1259 H1263 0.950 . S
H1260 C1256 0.950 . S
C1261 C1259 1.390 . S
C1261 C1262 1.387 . S
C1261 H1264 0.950 . S
C1262 C1261 1.387 . S
C1262 C1265 1.387 . S
H1263 C1259 0.950 . S
H1264 C1261 0.950 . S
C1265 C1256 1.390 . S
C1265 H1258 0.950 . S
C1265 C1262 1.387 . S
C1266 C1267 1.387 . S
C1266 H1270 0.950 . S
C1266 C1275 1.390 . S
C1267 C1266 1.387 . S
C1267 C1269 1.387 . S
H1268 C1275 0.950 . S
C1269 C1267 1.387 . S
C1269 C1271 1.390 . S
C1269 H1273 0.950 . S
H1270 C1266 0.950 . S
C1271 C1269 1.390 . S
C1271 C1272 1.387 . S
C1271 H1274 0.950 . S
C1272 C1271 1.387 . S
C1272 C1275 1.387 . S
H1273 C1269 0.950 . S
H1274 C1271 0.950 . S
C1275 C1266 1.390 . S
C1275 H1268 0.950 . S
C1275 C1272 1.387 . S
C1276 C1277 1.387 . S
C1276 H1280 0.950 . S
C1276 C1285 1.390 . S
C1277 C1276 1.387 . S
C1277 C1279 1.387 . S
H1278 C1285 0.950 1_455 S
C1279 C1277 1.387 . S
C1279 C1281 1.390 . S
C1279 H1283 0.950 . S
H1280 C1276 0.950 . S
C1281 C1279 1.390 . S
C1281 C1282 1.387 . S
C1281 H1284 0.950 . S
C1282 C1281 1.387 . S
C1282 C1285 1.387 . S
H1283 C1279 0.950 . S
H1284 C1281 0.950 . S
C1285 C1276 1.390 . S
C1285 H1278 0.950 1_655 S
C1285 C1282 1.387 . S
C1286 C1287 1.387 . S
C1286 H1290 0.950 . S
C1286 C1295 1.390 . S
C1287 C1286 1.387 . S
C1287 C1289 1.387 . S
H1288 C1295 0.950 . S
C1289 C1287 1.387 . S
C1289 C1291 1.390 . S
C1289 H1293 0.950 . S
H1290 C1286 0.950 . S
C1291 C1289 1.390 . S
C1291 C1292 1.387 . S
C1291 H1294 0.950 . S
C1292 C1291 1.387 . S
C1292 C1295 1.387 . S
H1293 C1289 0.950 . S
H1294 C1291 0.950 . S
C1295 C1286 1.390 . S
C1295 H1288 0.950 . S
C1295 C1292 1.387 . S
C1296 C1297 1.387 . S
C1296 H1300 0.950 . S
C1296 C1305 1.390 . S
C1297 C1296 1.387 . S
C1297 C1299 1.387 . S
H1298 C1305 0.950 . S
C1299 C1297 1.387 . S
C1299 C1301 1.390 . S
C1299 H1303 0.950 . S
H1300 C1296 0.950 . S
C1301 C1299 1.390 . S
C1301 C1302 1.387 . S
C1301 H1304 0.950 . S
C1302 C1301 1.387 . S
C1302 C1305 1.387 . S
H1303 C1299 0.950 . S
H1304 C1301 0.950 . S
C1305 C1296 1.390 . S
C1305 H1298 0.950 . S
C1305 C1302 1.387 . S
C1306 C1307 1.387 . S
C1306 H1310 0.950 . S
C1306 C1315 1.390 . S
C1307 C1306 1.387 . S
C1307 C1309 1.387 . S
H1308 C1315 0.950 . S
C1309 C1307 1.387 . S
C1309 C1311 1.390 . S
C1309 H1313 0.950 . S
H1310 C1306 0.950 . S
C1311 C1309 1.390 . S
C1311 C1312 1.387 . S
C1311 H1314 0.950 . S
C1312 C1311 1.387 . S
C1312 C1315 1.387 . S
H1313 C1309 0.950 . S
H1314 C1311 0.950 . S
C1315 C1306 1.390 . S
C1315 H1308 0.950 . S
C1315 C1312 1.387 . S
C1316 C1317 1.387 . S
C1316 H1320 0.950 . S
C1316 C1325 1.390 . S
C1317 C1316 1.387 . S
C1317 C1319 1.387 . S
H1318 C1325 0.950 . S
C1319 C1317 1.387 . S
C1319 C1321 1.390 . S
C1319 H1323 0.950 . S
H1320 C1316 0.950 . S
C1321 C1319 1.390 . S
C1321 C1322 1.387 . S
C1321 H1324 0.950 . S
C1322 C1321 1.387 . S
C1322 C1325 1.387 . S
H1323 C1319 0.950 . S
H1324 C1321 0.950 . S
C1325 C1316 1.390 . S
C1325 H1318 0.950 . S
C1325 C1322 1.387 . S
C1326 C1327 1.387 . S
C1326 H1330 0.950 . S
C1326 C1335 1.390 . S
C1327 C1326 1.387 . S
C1327 C1329 1.387 . S
H1328 C1335 0.950 . S
C1329 C1327 1.387 . S
C1329 C1331 1.390 . S
C1329 H1333 0.950 . S
H1330 C1326 0.950 . S
C1331 C1329 1.390 . S
C1331 C1332 1.387 . S
C1331 H1334 0.950 . S
C1332 C1331 1.387 . S
C1332 C1335 1.387 . S
H1333 C1329 0.950 . S
H1334 C1331 0.950 . S
C1335 C1326 1.390 . S
C1335 H1328 0.950 . S
C1335 C1332 1.387 . S
C1336 C1337 1.387 . S
C1336 H1340 0.950 . S
C1336 C1345 1.390 . S
C1337 C1336 1.387 . S
C1337 C1339 1.387 . S
H1338 C1345 0.950 . S
C1339 C1337 1.387 . S
C1339 C1341 1.390 . S
C1339 H1343 0.950 . S
H1340 C1336 0.950 . S
C1341 C1339 1.390 . S
C1341 C1342 1.387 . S
C1341 H1344 0.950 . S
C1342 C1341 1.387 . S
C1342 C1345 1.387 . S
H1343 C1339 0.950 . S
H1344 C1341 0.950 . S
C1345 C1336 1.390 . S
C1345 H1338 0.950 . S
C1345 C1342 1.387 . S
C1346 C1347 1.387 . S
C1346 H1350 0.950 . S
C1346 C1355 1.390 . S
C1347 C1346 1.387 . S
C1347 C1349 1.387 . S
H1348 C1355 0.950 . S
C1349 C1347 1.387 . S
C1349 C1351 1.390 . S
C1349 H1353 0.950 . S
H1350 C1346 0.950 . S
C1351 C1349 1.390 . S
C1351 C1352 1.387 . S
C1351 H1354 0.950 . S
C1352 C1351 1.387 . S
C1352 C1355 1.387 . S
H1353 C1349 0.950 . S
H1354 C1351 0.950 . S
C1355 C1346 1.390 . S
C1355 H1348 0.950 . S
C1355 C1352 1.387 . S
C1356 C1357 1.387 . S
C1356 H1360 0.950 . S
C1356 C1365 1.390 . S
C1357 C1356 1.387 . S
C1357 C1359 1.387 . S
H1358 C1365 0.950 . S
C1359 C1357 1.387 . S
C1359 C1361 1.390 . S
C1359 H1363 0.950 . S
H1360 C1356 0.950 . S
C1361 C1359 1.390 . S
C1361 C1362 1.387 . S
C1361 H1364 0.950 . S
C1362 C1361 1.387 . S
C1362 C1365 1.387 . S
H1363 C1359 0.950 . S
H1364 C1361 0.950 . S
C1365 C1356 1.390 . S
C1365 H1358 0.950 . S
C1365 C1362 1.387 . S
C1366 C1367 1.387 . S
C1366 H1370 0.950 . S
C1366 C1375 1.390 . S
C1367 C1366 1.387 . S
C1367 C1369 1.387 . S
H1368 C1375 0.950 . S
C1369 C1367 1.387 . S
C1369 C1371 1.390 . S
C1369 H1373 0.950 . S
H1370 C1366 0.950 . S
C1371 C1369 1.390 . S
C1371 C1372 1.387 . S
C1371 H1374 0.950 . S
C1372 C1371 1.387 . S
C1372 C1375 1.387 . S
H1373 C1369 0.950 . S
H1374 C1371 0.950 . S
C1375 C1366 1.390 . S
C1375 H1368 0.950 . S
C1375 C1372 1.387 . S
C1376 C1377 1.387 . S
C1376 H1380 0.950 . S
C1376 C1385 1.390 . S
C1377 C1376 1.387 . S
C1377 C1379 1.387 . S
H1378 C1385 0.950 . S
C1379 C1377 1.387 . S
C1379 C1381 1.390 . S
C1379 H1383 0.950 . S
H1380 C1376 0.950 . S
C1381 C1379 1.390 . S
C1381 C1382 1.387 . S
C1381 H1384 0.950 . S
C1382 C1381 1.387 . S
C1382 C1385 1.387 . S
H1383 C1379 0.950 . S
H1384 C1381 0.950 . S
C1385 C1376 1.390 . S
C1385 H1378 0.950 . S
C1385 C1382 1.387 . S
C1386 C1387 1.387 . S
C1386 H1390 0.950 . S
C1386 C1395 1.390 . S
C1387 C1386 1.387 . S
C1387 C1389 1.387 . S
H1388 C1395 0.950 . S
C1389 C1387 1.387 . S
C1389 C1391 1.390 . S
C1389 H1393 0.950 . S
H1390 C1386 0.950 . S
C1391 C1389 1.390 . S
C1391 C1392 1.387 . S
C1391 H1394 0.950 . S
C1392 C1391 1.387 . S
C1392 C1395 1.387 . S
H1393 C1389 0.950 . S
H1394 C1391 0.950 . S
C1395 C1386 1.390 . S
C1395 H1388 0.950 . S
C1395 C1392 1.387 . S
C1396 C1397 1.387 . S
C1396 H1400 0.950 . S
C1396 C1405 1.390 . S
C1397 C1396 1.387 . S
C1397 C1399 1.387 . S
H1398 C1405 0.950 . S
C1399 C1397 1.387 . S
C1399 C1401 1.390 . S
C1399 H1403 0.950 . S
H1400 C1396 0.950 . S
C1401 C1399 1.390 . S
C1401 C1402 1.387 . S
C1401 H1404 0.950 . S
C1402 C1401 1.387 . S
C1402 C1405 1.387 . S
H1403 C1399 0.950 . S
H1404 C1401 0.950 . S
C1405 C1396 1.390 . S
C1405 H1398 0.950 . S
C1405 C1402 1.387 . S
C1406 C1407 1.387 . S
C1406 H1410 0.950 . S
C1406 C1415 1.390 . S
C1407 C1406 1.387 . S
C1407 C1409 1.387 . S
H1408 C1415 0.950 . S
C1409 C1407 1.387 . S
C1409 C1411 1.390 . S
C1409 H1413 0.950 . S
H1410 C1406 0.950 . S
C1411 C1409 1.390 . S
C1411 C1412 1.387 . S
C1411 H1414 0.950 . S
C1412 C1411 1.387 . S
C1412 C1415 1.387 . S
H1413 C1409 0.950 . S
H1414 C1411 0.950 . S
C1415 C1406 1.390 . S
C1415 H1408 0.950 . S
C1415 C1412 1.387 . S
C1416 C1417 1.387 . S
C1416 H1420 0.950 . S
C1416 C1425 1.390 . S
C1417 C1416 1.387 . S
C1417 C1419 1.387 . S
H1418 C1425 0.950 . S
C1419 C1417 1.387 . S
C1419 C1421 1.390 . S
C1419 H1423 0.950 . S
H1420 C1416 0.950 . S
C1421 C1419 1.390 . S
C1421 C1422 1.387 . S
C1421 H1424 0.950 . S
C1422 C1421 1.387 . S
C1422 C1425 1.387 . S
H1423 C1419 0.950 . S
H1424 C1421 0.950 . S
C1425 C1416 1.390 . S
C1425 H1418 0.950 . S
C1425 C1422 1.387 . S
C1426 C1427 1.387 . S
C1426 H1430 0.950 . S
C1426 C1435 1.390 . S
C1427 C1426 1.387 . S
C1427 C1429 1.387 . S
H1428 C1435 0.950 . S
C1429 C1427 1.387 . S
C1429 C1431 1.390 . S
C1429 H1433 0.950 . S
H1430 C1426 0.950 . S
C1431 C1429 1.390 . S
C1431 C1432 1.387 . S
C1431 H1434 0.950 . S
C1432 C1431 1.387 . S
C1432 C1435 1.387 . S
H1433 C1429 0.950 . S
H1434 C1431 0.950 . S
C1435 C1426 1.390 . S
C1435 H1428 0.950 . S
C1435 C1432 1.387 . S
C1436 C1437 1.387 . S
C1436 H1440 0.950 . S
C1436 C1445 1.390 . S
C1437 C1436 1.387 . S
C1437 C1439 1.387 . S
H1438 C1445 0.950 . S
C1439 C1437 1.387 . S
C1439 C1441 1.390 . S
C1439 H1443 0.950 . S
H1440 C1436 0.950 . S
C1441 C1439 1.390 . S
C1441 C1442 1.387 . S
C1441 H1444 0.950 . S
C1442 C1441 1.387 . S
C1442 C1445 1.387 . S
H1443 C1439 0.950 . S
H1444 C1441 0.950 . S
C1445 C1436 1.390 . S
C1445 H1438 0.950 . S
C1445 C1442 1.387 . S
C1446 C1447 1.387 . S
C1446 H1450 0.950 . S
C1446 C1455 1.390 . S
C1447 C1446 1.387 . S
C1447 C1449 1.387 . S
H1448 C1455 0.950 . S
C1449 C1447 1.387 . S
C1449 C1451 1.390 . S
C1449 H1453 0.950 . S
H1450 C1446 0.950 . S
C1451 C1449 1.390 . S
C1451 C1452 1.387 . S
C1451 H1454 0.950 . S
C1452 C1451 1.387 . S
C1452 C1455 1.387 . S
H1453 C1449 0.950 . S
H1454 C1451 0.950 . S
C1455 C1446 1.390 . S
C1455 H1448 0.950 . S
C1455 C1452 1.387 . S
C1456 C1457 1.387 . S
C1456 H1460 0.950 . S
C1456 C1465 1.390 . S
C1457 C1456 1.387 . S
C1457 C1459 1.387 . S
H1458 C1465 0.950 . S
C1459 C1457 1.387 . S
C1459 C1461 1.390 . S
C1459 H1463 0.950 . S
H1460 C1456 0.950 . S
C1461 C1459 1.390 . S
C1461 C1462 1.387 . S
C1461 H1464 0.950 . S
C1462 C1461 1.387 . S
C1462 C1465 1.387 . S
H1463 C1459 0.950 . S
H1464 C1461 0.950 . S
C1465 C1456 1.390 . S
C1465 H1458 0.950 . S
C1465 C1462 1.387 . S
C1466 C1467 1.387 . S
C1466 H1470 0.950 . S
C1466 C1475 1.390 . S
C1467 C1466 1.387 . S
C1467 C1469 1.387 . S
H1468 C1475 0.950 . S
C1469 C1467 1.387 . S
C1469 C1471 1.390 . S
C1469 H1473 0.950 . S
H1470 C1466 0.950 . S
C1471 C1469 1.390 . S
C1471 C1472 1.387 . S
C1471 H1474 0.950 . S
C1472 C1471 1.387 . S
C1472 C1475 1.387 . S
H1473 C1469 0.950 . S
H1474 C1471 0.950 . S
C1475 C1466 1.390 . S
C1475 H1468 0.950 . S
C1475 C1472 1.387 . S
C1476 C1477 1.387 . S
C1476 H1480 0.950 . S
C1476 C1485 1.390 . S
C1477 C1476 1.387 . S
C1477 C1479 1.387 . S
H1478 C1485 0.950 . S
C1479 C1477 1.387 . S
C1479 C1481 1.390 . S
C1479 H1483 0.950 . S
H1480 C1476 0.950 . S
C1481 C1479 1.390 . S
C1481 C1482 1.387 . S
C1481 H1484 0.950 . S
C1482 C1481 1.387 . S
C1482 C1485 1.387 . S
H1483 C1479 0.950 . S
H1484 C1481 0.950 . S
C1485 C1476 1.390 . S
C1485 H1478 0.950 . S
C1485 C1482 1.387 . S
C1486 C1487 1.387 . S
C1486 H1490 0.950 . S
C1486 C1495 1.390 . S
C1487 C1486 1.387 . S
C1487 C1489 1.387 . S
H1488 C1495 0.950 . S
C1489 C1487 1.387 . S
C1489 C1491 1.390 . S
C1489 H1493 0.950 . S
H1490 C1486 0.950 . S
C1491 C1489 1.390 . S
C1491 C1492 1.387 . S
C1491 H1494 0.950 . S
C1492 C1491 1.387 . S
C1492 C1495 1.387 . S
H1493 C1489 0.950 . S
H1494 C1491 0.950 . S
C1495 C1486 1.390 . S
C1495 H1488 0.950 . S
C1495 C1492 1.387 . S
C1496 C1497 1.387 . S
C1496 H1500 0.950 . S
C1496 C1505 1.390 . S
C1497 C1496 1.387 . S
C1497 C1499 1.387 . S
H1498 C1505 0.950 . S
C1499 C1497 1.387 . S
C1499 C1501 1.390 . S
C1499 H1503 0.950 . S
H1500 C1496 0.950 . S
C1501 C1499 1.390 . S
C1501 C1502 1.387 . S
C1501 H1504 0.950 . S
C1502 C1501 1.387 . S
C1502 C1505 1.387 . S
H1503 C1499 0.950 . S
H1504 C1501 0.950 . S
C1505 C1496 1.390 . S
C1505 H1498 0.950 . S
C1505 C1502 1.387 . S
C1506 C1507 1.387 . S
C1506 H1510 0.950 . S
C1506 C1515 1.390 . S
C1507 C1506 1.387 . S
C1507 C1509 1.387 . S
H1508 C1515 0.950 . S
C1509 C1507 1.387 . S
C1509 C1511 1.390 . S
C1509 H1513 0.950 . S
H1510 C1506 0.950 . S
C1511 C1509 1.390 . S
C1511 C1512 1.387 . S
C1511 H1514 0.950 . S
C1512 C1511 1.387 . S
C1512 C1515 1.387 . S
H1513 C1509 0.950 . S
H1514 C1511 0.950 . S
C1515 C1506 1.390 . S
C1515 H1508 0.950 . S
C1515 C1512 1.387 . S
C1516 C1517 1.387 . S
C1516 H1520 0.950 . S
C1516 C1525 1.390 . S
C1517 C1516 1.387 . S
C1517 C1519 1.387 . S
H1518 C1525 0.950 . S
C1519 C1517 1.387 . S
C1519 C1521 1.390 . S
C1519 H1523 0.950 . S
H1520 C1516 0.950 . S
C1521 C1519 1.390 . S
C1521 C1522 1.387 . S
C1521 H1524 0.950 . S
C1522 C1521 1.387 . S
C1522 C1525 1.387 . S
H1523 C1519 0.950 . S
H1524 C1521 0.950 . S
C1525 C1516 1.390 . S
C1525 H1518 0.950 . S
C1525 C1522 1.387 . S
C1526 C1527 1.387 . S
C1526 H1530 0.950 . S
C1526 C1535 1.390 . S
C1527 C1526 1.387 . S
C1527 C1529 1.387 . S
H1528 C1535 0.950 . S
C1529 C1527 1.387 . S
C1529 C1531 1.390 . S
C1529 H1533 0.950 . S
H1530 C1526 0.950 . S
C1531 C1529 1.390 . S
C1531 C1532 1.387 . S
C1531 H1534 0.950 . S
C1532 C1531 1.387 . S
C1532 C1535 1.387 . S
H1533 C1529 0.950 . S
H1534 C1531 0.950 . S
C1535 C1526 1.390 . S
C1535 H1528 0.950 . S
C1535 C1532 1.387 . S
C1536 C1537 1.387 . S
C1536 H1540 0.950 . S
C1536 C1545 1.390 . S
C1537 C1536 1.387 . S
C1537 C1539 1.387 . S
H1538 C1545 0.950 . S
C1539 C1537 1.387 . S
C1539 C1541 1.390 . S
C1539 H1543 0.950 . S
H1540 C1536 0.950 . S
C1541 C1539 1.390 . S
C1541 C1542 1.387 . S
C1541 H1544 0.950 . S
C1542 C1541 1.387 . S
C1542 C1545 1.387 . S
H1543 C1539 0.950 . S
H1544 C1541 0.950 . S
C1545 C1536 1.390 . S
C1545 H1538 0.950 . S
C1545 C1542 1.387 . S
C1546 C1547 1.387 . S
C1546 H1550 0.950 . S
C1546 C1555 1.390 . S
C1547 C1546 1.387 . S
C1547 C1549 1.387 . S
H1548 C1555 0.950 . S
C1549 C1547 1.387 . S
C1549 C1551 1.390 . S
C1549 H1553 0.950 . S
H1550 C1546 0.950 . S
C1551 C1549 1.390 . S
C1551 C1552 1.387 . S
C1551 H1554 0.950 . S
C1552 C1551 1.387 . S
C1552 C1555 1.387 . S
H1553 C1549 0.950 . S
H1554 C1551 0.950 . S
C1555 C1546 1.390 . S
C1555 H1548 0.950 . S
C1555 C1552 1.387 . S
C1556 C1557 1.387 . S
C1556 H1560 0.950 . S
C1556 C1565 1.390 . S
C1557 C1556 1.387 . S
C1557 C1559 1.387 . S
H1558 C1565 0.950 . S
C1559 C1557 1.387 . S
C1559 C1561 1.390 . S
C1559 H1563 0.950 . S
H1560 C1556 0.950 . S
C1561 C1559 1.390 . S
C1561 C1562 1.387 . S
C1561 H1564 0.950 . S
C1562 C1561 1.387 . S
C1562 C1565 1.387 . S
H1563 C1559 0.950 . S
H1564 C1561 0.950 . S
C1565 C1556 1.390 . S
C1565 H1558 0.950 . S
C1565 C1562 1.387 . S
C1566 C1567 1.387 . S
C1566 H1570 0.950 . S
C1566 C1575 1.390 . S
C1567 C1566 1.387 . S
C1567 C1569 1.387 . S
H1568 C1575 0.950 . S
C1569 C1567 1.387 . S
C1569 C1571 1.390 . S
C1569 H1573 0.950 . S
H1570 C1566 0.950 . S
C1571 C1569 1.390 . S
C1571 C1572 1.387 . S
C1571 H1574 0.950 . S
C1572 C1571 1.387 . S
C1572 C1575 1.387 . S
H1573 C1569 0.950 . S
H1574 C1571 0.950 . S
C1575 C1566 1.390 . S
C1575 H1568 0.950 . S
C1575 C1572 1.387 . S
C1576 C1577 1.387 . S
C1576 H1580 0.950 . S
C1576 C1585 1.390 . S
C1577 C1576 1.387 . S
C1577 C1579 1.387 . S
H1578 C1585 0.950 . S
C1579 C1577 1.387 . S
C1579 C1581 1.390 . S
C1579 H1583 0.950 . S
H1580 C1576 0.950 . S
C1581 C1579 1.390 . S
C1581 C1582 1.387 . S
C1581 H1584 0.950 . S
C1582 C1581 1.387 . S
C1582 C1585 1.387 . S
H1583 C1579 0.950 . S
H1584 C1581 0.950 . S
C1585 C1576 1.390 . S
C1585 H1578 0.950 . S
C1585 C1582 1.387 . S
C1586 C1587 1.387 . S
C1586 H1590 0.950 . S
C1586 C1595 1.390 . S
C1587 C1586 1.387 . S
C1587 C1589 1.387 . S
H1588 C1595 0.950 . S
C1589 C1587 1.387 . S
C1589 C1591 1.390 . S
C1589 H1593 0.950 . S
H1590 C1586 0.950 . S
C1591 C1589 1.390 . S
C1591 C1592 1.387 . S
C1591 H1594 0.950 . S
C1592 C1591 1.387 . S
C1592 C1595 1.387 . S
H1593 C1589 0.950 . S
H1594 C1591 0.950 . S
C1595 C1586 1.390 . S
C1595 H1588 0.950 . S
C1595 C1592 1.387 . S
C1596 C1597 1.387 . S
C1596 H1600 0.950 . S
C1596 C1605 1.390 . S
C1597 C1596 1.387 . S
C1597 C1599 1.387 . S
H1598 C1605 0.950 . S
C1599 C1597 1.387 . S
C1599 C1601 1.390 . S
C1599 H1603 0.950 . S
H1600 C1596 0.950 . S
C1601 C1599 1.390 . S
C1601 C1602 1.387 . S
C1601 H1604 0.950 . S
C1602 C1601 1.387 . S
C1602 C1605 1.387 . S
H1603 C1599 0.950 . S
H1604 C1601 0.950 . S
C1605 C1596 1.390 . S
C1605 H1598 0.950 . S
C1605 C1602 1.387 . S
C1606 C1607 1.387 . S
C1606 H1610 0.950 . S
C1606 C1615 1.390 . S
C1607 C1606 1.387 . S
C1607 C1609 1.387 . S
H1608 C1615 0.950 . S
C1609 C1607 1.387 . S
C1609 C1611 1.390 . S
C1609 H1613 0.950 . S
H1610 C1606 0.950 . S
C1611 C1609 1.390 . S
C1611 C1612 1.387 . S
C1611 H1614 0.950 . S
C1612 C1611 1.387 . S
C1612 C1615 1.387 . S
H1613 C1609 0.950 . S
H1614 C1611 0.950 . S
C1615 C1606 1.390 . S
C1615 H1608 0.950 . S
C1615 C1612 1.387 . S
C1616 C1617 1.387 . S
C1616 H1620 0.950 . S
C1616 C1625 1.390 . S
C1617 C1616 1.387 . S
C1617 C1619 1.387 . S
H1618 C1625 0.950 . S
C1619 C1617 1.387 . S
C1619 C1621 1.390 . S
C1619 H1623 0.950 . S
H1620 C1616 0.950 . S
C1621 C1619 1.390 . S
C1621 C1622 1.387 . S
C1621 H1624 0.950 . S
C1622 C1621 1.387 . S
C1622 C1625 1.387 . S
H1623 C1619 0.950 . S
H1624 C1621 0.950 . S
C1625 C1616 1.390 . S
C1625 H1618 0.950 . S
C1625 C1622 1.387 . S
C1626 C1627 1.387 . S
C1626 H1630 0.950 . S
C1626 C1635 1.390 . S
C1627 C1626 1.387 . S
C1627 C1629 1.387 . S
H1628 C1635 0.950 1_545 S
C1629 C1627 1.387 . S
C1629 C1631 1.390 . S
C1629 H1633 0.950 . S
H1630 C1626 0.950 . S
C1631 C1629 1.390 . S
C1631 C1632 1.387 . S
C1631 H1634 0.950 . S
C1632 C1631 1.387 . S
C1632 C1635 1.387 . S
H1633 C1629 0.950 . S
H1634 C1631 0.950 . S
C1635 C1626 1.390 . S
C1635 H1628 0.950 1_565 S
C1635 C1632 1.387 . S
C1636 C1637 1.387 . S
C1636 H1640 0.950 . S
C1636 C1645 1.390 . S
C1637 C1636 1.387 . S
C1637 C1639 1.387 . S
H1638 C1645 0.950 . S
C1639 C1637 1.387 . S
C1639 C1641 1.390 . S
C1639 H1643 0.950 . S
H1640 C1636 0.950 . S
C1641 C1639 1.390 . S
C1641 C1642 1.387 . S
C1641 H1644 0.950 . S
C1642 C1641 1.387 . S
C1642 C1645 1.387 . S
H1643 C1639 0.950 . S
H1644 C1641 0.950 . S
C1645 C1636 1.390 . S
C1645 H1638 0.950 . S
C1645 C1642 1.387 . S
C1646 C1647 1.387 . S
C1646 H1650 0.950 . S
C1646 C1655 1.390 . S
C1647 C1646 1.387 . S
C1647 C1649 1.387 . S
H1648 C1655 0.950 . S
C1649 C1647 1.387 . S
C1649 C1651 1.390 . S
C1649 H1653 0.950 . S
H1650 C1646 0.950 . S
C1651 C1649 1.390 . S
C1651 C1652 1.387 . S
C1651 H1654 0.950 . S
C1652 C1651 1.387 . S
C1652 C1655 1.387 . S
H1653 C1649 0.950 . S
H1654 C1651 0.950 . S
C1655 C1646 1.390 . S
C1655 H1648 0.950 . S
C1655 C1652 1.387 . S
C1656 C1657 1.387 . S
C1656 H1660 0.950 . S
C1656 C1665 1.390 . S
C1657 C1656 1.387 . S
C1657 C1659 1.387 . S
H1658 C1665 0.950 . S
C1659 C1657 1.387 . S
C1659 C1661 1.390 . S
C1659 H1663 0.950 . S
H1660 C1656 0.950 . S
C1661 C1659 1.390 . S
C1661 C1662 1.387 . S
C1661 H1664 0.950 . S
C1662 C1661 1.387 . S
C1662 C1665 1.387 . S
H1663 C1659 0.950 . S
H1664 C1661 0.950 . S
C1665 C1656 1.390 . S
C1665 H1658 0.950 . S
C1665 C1662 1.387 . S
C1666 C1667 1.387 . S
C1666 H1670 0.950 . S
C1666 C1675 1.390 . S
C1667 C1666 1.387 . S
C1667 C1669 1.387 . S
H1668 C1675 0.950 . S
C1669 C1667 1.387 . S
C1669 C1671 1.390 . S
C1669 H1673 0.950 . S
H1670 C1666 0.950 . S
C1671 C1669 1.390 . S
C1671 C1672 1.387 . S
C1671 H1674 0.950 . S
C1672 C1671 1.387 . S
C1672 C1675 1.387 . S
H1673 C1669 0.950 . S
H1674 C1671 0.950 . S
C1675 C1666 1.390 . S
C1675 H1668 0.950 . S
C1675 C1672 1.387 . S
C1676 C1677 1.387 . S
C1676 H1680 0.950 . S
C1676 C1685 1.390 . S
C1677 C1676 1.387 . S
C1677 C1679 1.387 . S
H1678 C1685 0.950 . S
C1679 C1677 1.387 . S
C1679 C1681 1.390 . S
C1679 H1683 0.950 . S
H1680 C1676 0.950 . S
C1681 C1679 1.390 . S
C1681 C1682 1.387 . S
C1681 H1684 0.950 . S
C1682 C1681 1.387 . S
C1682 C1685 1.387 . S
H1683 C1679 0.950 . S
H1684 C1681 0.950 . S
C1685 C1676 1.390 . S
C1685 H1678 0.950 . S
C1685 C1682 1.387 . S
C1686 C1687 1.387 . S
C1686 H1690 0.950 . S
C1686 C1695 1.390 . S
C1687 C1686 1.387 . S
C1687 C1689 1.387 . S
H1688 C1695 0.950 . S
C1689 C1687 1.387 . S
C1689 C1691 1.390 . S
C1689 H1693 0.950 . S
H1690 C1686 0.950 . S
C1691 C1689 1.390 . S
C1691 C1692 1.387 . S
C1691 H1694 0.950 . S
C1692 C1691 1.387 . S
C1692 C1695 1.387 . S
H1693 C1689 0.950 . S
H1694 C1691 0.950 . S
C1695 C1686 1.390 . S
C1695 H1688 0.950 . S
C1695 C1692 1.387 . S
C1696 C1697 1.387 . S
C1696 H1700 0.950 . S
C1696 C1705 1.390 . S
C1697 C1696 1.387 . S
C1697 C1699 1.387 . S
H1698 C1705 0.950 . S
C1699 C1697 1.387 . S
C1699 C1701 1.390 . S
C1699 H1703 0.950 . S
H1700 C1696 0.950 . S
C1701 C1699 1.390 . S
C1701 C1702 1.387 . S
C1701 H1704 0.950 . S
C1702 C1701 1.387 . S
C1702 C1705 1.387 . S
H1703 C1699 0.950 . S
H1704 C1701 0.950 . S
C1705 C1696 1.390 . S
C1705 H1698 0.950 . S
C1705 C1702 1.387 . S
C1706 C1707 1.387 . S
C1706 H1710 0.950 . S
C1706 C1715 1.390 . S
C1707 C1706 1.387 . S
C1707 C1709 1.387 . S
H1708 C1715 0.950 . S
C1709 C1707 1.387 . S
C1709 C1711 1.390 . S
C1709 H1713 0.950 . S
H1710 C1706 0.950 . S
C1711 C1709 1.390 . S
C1711 C1712 1.387 . S
C1711 H1714 0.950 . S
C1712 C1711 1.387 . S
C1712 C1715 1.387 . S
H1713 C1709 0.950 . S
H1714 C1711 0.950 . S
C1715 C1706 1.390 . S
C1715 H1708 0.950 . S
C1715 C1712 1.387 . S
C1716 C1717 1.387 . S
C1716 H1720 0.950 . S
C1716 C1725 1.390 . S
C1717 C1716 1.387 . S
C1717 C1719 1.387 . S
H1718 C1725 0.950 . S
C1719 C1717 1.387 . S
C1719 C1721 1.390 . S
C1719 H1723 0.950 . S
H1720 C1716 0.950 . S
C1721 C1719 1.390 . S
C1721 C1722 1.387 . S
C1721 H1724 0.950 . S
C1722 C1721 1.387 . S
C1722 C1725 1.387 . S
H1723 C1719 0.950 . S
H1724 C1721 0.950 . S
C1725 C1716 1.390 . S
C1725 H1718 0.950 . S
C1725 C1722 1.387 . S
C1726 C1727 1.387 . S
C1726 H1730 0.950 . S
C1726 C1735 1.390 . S
C1727 C1726 1.387 . S
C1727 C1729 1.387 . S
H1728 C1735 0.950 . S
C1729 C1727 1.387 . S
C1729 C1731 1.390 . S
C1729 H1733 0.950 . S
H1730 C1726 0.950 . S
C1731 C1729 1.390 . S
C1731 C1732 1.387 . S
C1731 H1734 0.950 . S
C1732 C1731 1.387 . S
C1732 C1735 1.387 . S
H1733 C1729 0.950 . S
H1734 C1731 0.950 . S
C1735 C1726 1.390 . S
C1735 H1728 0.950 . S
C1735 C1732 1.387 . S
C1736 C1737 1.387 . S
C1736 H1740 0.950 . S
C1736 C1745 1.390 . S
C1737 C1736 1.387 . S
C1737 C1739 1.387 . S
H1738 C1745 0.950 . S
C1739 C1737 1.387 . S
C1739 C1741 1.390 . S
C1739 H1743 0.950 . S
H1740 C1736 0.950 . S
C1741 C1739 1.390 . S
C1741 C1742 1.387 . S
C1741 H1744 0.950 . S
C1742 C1741 1.387 . S
C1742 C1745 1.387 . S
H1743 C1739 0.950 . S
H1744 C1741 0.950 . S
C1745 C1736 1.390 . S
C1745 H1738 0.950 . S
C1745 C1742 1.387 . S
C1746 C1747 1.387 . S
C1746 H1750 0.950 . S
C1746 C1755 1.390 . S
C1747 C1746 1.387 . S
C1747 C1749 1.387 . S
H1748 C1755 0.950 . S
C1749 C1747 1.387 . S
C1749 C1751 1.390 . S
C1749 H1753 0.950 . S
H1750 C1746 0.950 . S
C1751 C1749 1.390 . S
C1751 C1752 1.387 . S
C1751 H1754 0.950 . S
C1752 C1751 1.387 . S
C1752 C1755 1.387 . S
H1753 C1749 0.950 . S
H1754 C1751 0.950 . S
C1755 C1746 1.390 . S
C1755 H1748 0.950 . S
C1755 C1752 1.387 . S
C1756 C1757 1.387 . S
C1756 H1760 0.950 . S
C1756 C1765 1.390 . S
C1757 C1756 1.387 . S
C1757 C1759 1.387 . S
H1758 C1765 0.950 . S
C1759 C1757 1.387 . S
C1759 C1761 1.390 . S
C1759 H1763 0.950 . S
H1760 C1756 0.950 . S
C1761 C1759 1.390 . S
C1761 C1762 1.387 . S
C1761 H1764 0.950 . S
C1762 C1761 1.387 . S
C1762 C1765 1.387 . S
H1763 C1759 0.950 . S
H1764 C1761 0.950 . S
C1765 C1756 1.390 . S
C1765 H1758 0.950 . S
C1765 C1762 1.387 . S
C1766 C1767 1.387 . S
C1766 H1770 0.950 . S
C1766 C1775 1.390 . S
C1767 C1766 1.387 . S
C1767 C1769 1.387 . S
H1768 C1775 0.950 . S
C1769 C1767 1.387 . S
C1769 C1771 1.390 . S
C1769 H1773 0.950 . S
H1770 C1766 0.950 . S
C1771 C1769 1.390 . S
C1771 C1772 1.387 . S
C1771 H1774 0.950 . S
C1772 C1771 1.387 . S
C1772 C1775 1.387 . S
H1773 C1769 0.950 . S
H1774 C1771 0.950 . S
C1775 C1766 1.390 . S
C1775 H1768 0.950 . S
C1775 C1772 1.387 . S
C1776 C1777 1.387 . S
C1776 H1780 0.950 . S
C1776 C1785 1.390 . S
C1777 C1776 1.387 . S
C1777 C1779 1.387 . S
H1778 C1785 0.950 . S
C1779 C1777 1.387 . S
C1779 C1781 1.390 . S
C1779 H1783 0.950 . S
H1780 C1776 0.950 . S
C1781 C1779 1.390 . S
C1781 C1782 1.387 . S
C1781 H1784 0.950 . S
C1782 C1781 1.387 . S
C1782 C1785 1.387 . S
H1783 C1779 0.950 . S
H1784 C1781 0.950 . S
C1785 C1776 1.390 . S
C1785 H1778 0.950 . S
C1785 C1782 1.387 . S
C1786 C1787 1.387 . S
C1786 H1790 0.950 . S
C1786 C1795 1.390 . S
C1787 C1786 1.387 . S
C1787 C1789 1.387 . S
H1788 C1795 0.950 . S
C1789 C1787 1.387 . S
C1789 C1791 1.390 . S
C1789 H1793 0.950 . S
H1790 C1786 0.950 . S
C1791 C1789 1.390 . S
C1791 C1792 1.387 . S
C1791 H1794 0.950 . S
C1792 C1791 1.387 . S
C1792 C1795 1.387 . S
H1793 C1789 0.950 . S
H1794 C1791 0.950 . S
C1795 C1786 1.390 . S
C1795 H1788 0.950 . S
C1795 C1792 1.387 . S
C1796 C1797 1.387 . S
C1796 H1800 0.950 . S
C1796 C1805 1.390 . S
C1797 C1796 1.387 . S
C1797 C1799 1.387 . S
H1798 C1805 0.950 . S
C1799 C1797 1.387 . S
C1799 C1801 1.390 . S
C1799 H1803 0.950 . S
H1800 C1796 0.950 . S
C1801 C1799 1.390 . S
C1801 C1802 1.387 . S
C1801 H1804 0.950 . S
C1802 C1801 1.387 . S
C1802 C1805 1.387 . S
H1803 C1799 0.950 . S
H1804 C1801 0.950 . S
C1805 C1796 1.390 . S
C1805 H1798 0.950 . S
C1805 C1802 1.387 . S
C1806 C1807 1.387 . S
C1806 H1810 0.950 . S
C1806 C1815 1.390 . S
C1807 C1806 1.387 . S
C1807 C1809 1.387 . S
H1808 C1815 0.950 . S
C1809 C1807 1.387 . S
C1809 C1811 1.390 . S
C1809 H1813 0.950 . S
H1810 C1806 0.950 . S
C1811 C1809 1.390 . S
C1811 C1812 1.387 . S
C1811 H1814 0.950 . S
C1812 C1811 1.387 . S
C1812 C1815 1.387 . S
H1813 C1809 0.950 . S
H1814 C1811 0.950 . S
C1815 C1806 1.390 . S
C1815 H1808 0.950 . S
C1815 C1812 1.387 . S
C1816 C1817 1.387 . S
C1816 H1820 0.950 . S
C1816 C1825 1.390 . S
C1817 C1816 1.387 . S
C1817 C1819 1.387 . S
H1818 C1825 0.950 . S
C1819 C1817 1.387 . S
C1819 C1821 1.390 . S
C1819 H1823 0.950 . S
H1820 C1816 0.950 . S
C1821 C1819 1.390 . S
C1821 C1822 1.387 . S
C1821 H1824 0.950 . S
C1822 C1821 1.387 . S
C1822 C1825 1.387 . S
H1823 C1819 0.950 . S
H1824 C1821 0.950 . S
C1825 C1816 1.390 . S
C1825 H1818 0.950 . S
C1825 C1822 1.387 . S
C1826 C1827 1.387 . S
C1826 H1830 0.950 . S
C1826 C1835 1.390 . S
C1827 C1826 1.387 . S
C1827 C1829 1.387 . S
H1828 C1835 0.950 . S
C1829 C1827 1.387 . S
C1829 C1831 1.390 . S
C1829 H1833 0.950 . S
H1830 C1826 0.950 . S
C1831 C1829 1.390 . S
C1831 C1832 1.387 . S
C1831 H1834 0.950 . S
C1832 C1831 1.387 . S
C1832 C1835 1.387 . S
H1833 C1829 0.950 . S
H1834 C1831 0.950 . S
C1835 C1826 1.390 . S
C1835 H1828 0.950 . S
C1835 C1832 1.387 . S
C1836 C1837 1.387 . S
C1836 H1840 0.950 . S
C1836 C1845 1.390 . S
C1837 C1836 1.387 . S
C1837 C1839 1.387 . S
H1838 C1845 0.950 . S
C1839 C1837 1.387 . S
C1839 C1841 1.390 . S
C1839 H1843 0.950 . S
H1840 C1836 0.950 . S
C1841 C1839 1.390 . S
C1841 C1842 1.387 . S
C1841 H1844 0.950 . S
C1842 C1841 1.387 . S
C1842 C1845 1.387 . S
H1843 C1839 0.950 . S
H1844 C1841 0.950 . S
C1845 C1836 1.390 . S
C1845 H1838 0.950 . S
C1845 C1842 1.387 . S
C1846 C1847 1.387 . S
C1846 H1850 0.950 . S
C1846 C1855 1.390 . S
C1847 C1846 1.387 . S
C1847 C1849 1.387 . S
H1848 C1855 0.950 . S
C1849 C1847 1.387 . S
C1849 C1851 1.390 . S
C1849 H1853 0.950 . S
H1850 C1846 0.950 . S
C1851 C1849 1.390 . S
C1851 C1852 1.387 . S
C1851 H1854 0.950 . S
C1852 C1851 1.387 . S
C1852 C1855 1.387 . S
H1853 C1849 0.950 . S
H1854 C1851 0.950 . S
C1855 C1846 1.390 . S
C1855 H1848 0.950 . S
C1855 C1852 1.387 . S
C1856 C1857 1.387 . S
C1856 H1860 0.950 . S
C1856 C1865 1.390 . S
C1857 C1856 1.387 . S
C1857 C1859 1.387 . S
H1858 C1865 0.950 . S
C1859 C1857 1.387 . S
C1859 C1861 1.390 . S
C1859 H1863 0.950 . S
H1860 C1856 0.950 . S
C1861 C1859 1.390 . S
C1861 C1862 1.387 . S
C1861 H1864 0.950 . S
C1862 C1861 1.387 . S
C1862 C1865 1.387 . S
H1863 C1859 0.950 . S
H1864 C1861 0.950 . S
C1865 C1856 1.390 . S
C1865 H1858 0.950 . S
C1865 C1862 1.387 . S
C1866 C1867 1.387 . S
C1866 H1870 0.950 . S
C1866 C1875 1.390 . S
C1867 C1866 1.387 . S
C1867 C1869 1.387 . S
H1868 C1875 0.950 . S
C1869 C1867 1.387 . S
C1869 C1871 1.390 . S
C1869 H1873 0.950 . S
H1870 C1866 0.950 . S
C1871 C1869 1.390 . S
C1871 C1872 1.387 . S
C1871 H1874 0.950 . S
C1872 C1871 1.387 . S
C1872 C1875 1.387 . S
H1873 C1869 0.950 . S
H1874 C1871 0.950 . S
C1875 C1866 1.390 . S
C1875 H1868 0.950 . S
C1875 C1872 1.387 . S
C1876 C1877 1.387 . S
C1876 H1880 0.950 . S
C1876 C1885 1.390 . S
C1877 C1876 1.387 . S
C1877 C1879 1.387 . S
H1878 C1885 0.950 . S
C1879 C1877 1.387 . S
C1879 C1881 1.390 . S
C1879 H1883 0.950 . S
H1880 C1876 0.950 . S
C1881 C1879 1.390 . S
C1881 C1882 1.387 . S
C1881 H1884 0.950 . S
C1882 C1881 1.387 . S
C1882 C1885 1.387 . S
H1883 C1879 0.950 . S
H1884 C1881 0.950 . S
C1885 C1876 1.390 . S
C1885 H1878 0.950 . S
C1885 C1882 1.387 . S
C1886 C1887 1.387 . S
C1886 H1890 0.950 . S
C1886 C1895 1.390 . S
C1887 C1886 1.387 . S
C1887 C1889 1.387 . S
H1888 C1895 0.950 . S
C1889 C1887 1.387 . S
C1889 C1891 1.390 . S
C1889 H1893 0.950 . S
H1890 C1886 0.950 . S
C1891 C1889 1.390 . S
C1891 C1892 1.387 . S
C1891 H1894 0.950 . S
C1892 C1891 1.387 . S
C1892 C1895 1.387 . S
H1893 C1889 0.950 . S
H1894 C1891 0.950 . S
C1895 C1886 1.390 . S
C1895 H1888 0.950 . S
C1895 C1892 1.387 . S
C942 N396 1.696 . S
C937 C9 1.742 . S
C952 C423 1.675 . S
C947 C16 1.682 . S
C957 C30 1.765 . S
C962 C437 1.781 . S
C972 N455 1.001 . S
C967 C40 0.991 . S
C977 C52 1.559 . S
C982 C460 1.563 . S
C987 C66 1.775 . S
C992 C400 1.788 . S
C997 C76 0.921 . S
C1002 N419 0.940 . S
C1012 N432 1.709 . S
C1007 C90 1.733 . S
C1022 N478 1.676 . S
C1017 C6 1.726 . S
C1027 C21 1.675 . S
C1032 N501 1.642 . S
C1037 C28 1.695 . S
C1042 N524 1.672 . S
C1052 N557 1.252 . S
C1047 C45 1.294 . S
C1057 C54 1.574 . S
C1062 C584 1.563 . S
C1072 C607 1.955 . S
C1067 C69 1.964 . S
C1077 C81 1.152 . S
C1082 C630 1.157 1_655 S
C1092 C644 1.560 . S
C1087 C88 1.547 . S
C1097 C4 1.531 . S
C1102 C561 1.527 . S
C1107 C57 1.588 . S
C1112 N603 1.564 . S
C1122 N626 1.551 . S
C1117 C64 1.596 . S
C1127 C78 1.324 . S
C1132 N639 1.321 . S
C1142 N580 1.664 . S
C1137 C93 1.736 . S
C1152 C506 2.046 . S
C1147 C33 2.049 . S
C1157 C42 1.060 . S
C1162 C529 1.059 . S
C1172 C483 1.634 . S
C1167 C18 1.625 . S
C1182 C676 1.697 . S
C1177 C105 1.692 . S
C1187 C112 1.563 . S
C1192 C690 1.577 . S
C1197 C126 1.727 . S
C1202 N718 1.691 . S
C1212 N731 0.913 . S
C1207 C136 0.907 . S
C1217 C148 1.551 . S
C1222 C736 1.573 . S
C1227 C162 1.717 . S
C1232 N672 1.665 . S
C1237 C172 1.034 . S
C1242 N685 1.046 . S
C1247 C186 1.654 . S
C1252 C722 1.650 . S
C1262 N570 1.681 . S
C1257 C102 1.721 . S
C1267 C117 1.573 . S
C1272 N754 1.532 . S
C1282 N616 1.556 1_655 S
C1277 C124 1.587 . S
C1287 C141 1.378 . S
C1292 C791 1.377 . S
C1297 C150 1.693 . S
C1302 C492 1.688 . S
C1312 C805 2.017 . S
C1307 C165 2.006 . S
C1317 C177 1.211 . S
C1322 C538 1.221 . S
C1332 N823 1.448 . S
C1327 C184 1.482 . S
C1337 C100 1.520 . S
C1342 N787 1.487 . S
C1352 N800 1.511 . S
C1347 C153 1.546 . S
C1357 C160 1.599 . S
C1362 N534 1.572 . S
C1372 C828 1.096 . S
C1367 C174 1.092 . S
C1377 C189 1.732 . S
C1382 N488 1.672 . S
C1387 C129 1.951 . S
C1392 C759 1.957 . S
C1397 C138 1.208 . S
C1402 C621 1.210 . S
C1407 C114 1.663 . S
C1412 C575 1.681 . S
C1417 C201 1.752 . S
C1422 C713 1.757 . S
C1432 C745 1.537 . S
C1427 C208 1.532 . S
C1437 C222 1.738 . S
C1442 N662 1.703 . S
C1447 C232 0.971 . S
C1452 N695 0.975 . S
C1457 C244 1.561 . S
C1462 C699 1.561 . S
C1467 C258 1.823 . S
C1472 N708 1.805 . S
C1482 N741 0.863 . S
C1477 C268 0.852 . S
C1487 C282 1.720 . S
C1492 C667 1.728 . S
C1502 N856 1.713 . S
C1497 C198 1.758 . S
C1507 C213 1.553 . S
C1512 N593 1.514 . S
C1522 N879 1.476 . S
C1517 C220 1.504 . S
C1527 C237 1.425 . S
C1532 N649 1.343 . S
C1537 C246 1.629 . S
C1542 C897 1.630 . S
C1547 C261 2.044 . S
C1552 C515 2.043 . S
C1562 N915 1.103 . S
C1557 C273 1.118 . S
C1567 C280 1.568 . S
C1572 C552 1.559 . S
C1582 C653 1.530 . S
C1577 C196 1.550 . S
C1592 N511 1.551 . S
C1587 C249 1.588 . S
C1597 C256 1.725 . S
C1602 C920 1.738 . S
C1607 C270 1.105 . S
C1612 N547 1.088 . S
C1622 N892 1.776 . S
C1617 C285 1.807 . S
C1632 C598 1.936 1_565 S
C1627 C225 1.936 . S
C1642 C883 1.259 . S
C1637 C234 1.254 . S
C1652 C860 1.677 . S
C1647 C210 1.657 . S
C1657 C297 1.695 . S
C1662 N442 1.645 . S
C1667 C304 1.539 . S
C1672 C469 1.532 . S
C1682 C391 1.793 . S
C1677 C318 1.783 . S
C1692 N409 0.864 . S
C1687 C328 0.863 . S
C1702 C414 1.647 . S
C1697 C340 1.631 . S
C1712 C446 1.732 . S
C1707 C354 1.711 . S
C1722 N465 1.094 . S
C1717 C364 1.114 . S
C1727 C378 1.729 . S
C1732 N386 1.706 . S
C1737 C294 1.696 . S
C1742 N902 1.641 . S
C1752 N810 1.554 . S
C1747 C309 1.589 . S
C1762 C929 1.796 . S
C1757 C316 1.796 . S
C1772 C837 1.034 . S
C1767 C333 1.027 . S
C1777 C342 1.693 . S
C1782 C851 1.679 . S
C1792 C768 1.955 . S
C1787 C357 1.968 . S
C1802 C874 1.391 . S
C1797 C369 1.434 . S
C1807 C376 1.555 . S
C1812 N777 1.501 . S
C1822 N833 1.425 . S
C1817 C292 1.459 . S
C1832 N764 1.529 . S
C1827 C345 1.556 . S
C1842 N869 1.453 . S
C1837 C352 1.527 . S
C1847 C366 1.237 . S
C1852 C782 1.231 . S
C1857 C381 1.698 . S
C1862 N846 1.649 . S
C1867 C321 2.077 . S
C1872 C814 2.077 . S
C1877 C330 1.162 . S
C1882 N925 1.162 . S
C1892 C906 1.587 . S
C1887 C306 1.589 . S
