# Generated by pormake.
# Topology llk, (3,12)-cn, num edge types: 1
# Building blocks:
#     Node 0, Type 0, BuildingBlock: BETDIP_clean_linker_0, # of connection points: 3
#     Node 1, Type 0, BuildingBlock: BETDIP_clean_linker_0, # of connection points: 3
#     Node 2, Type 0, BuildingBlock: BETDIP_clean_linker_0, # of connection points: 3
#     Node 3, Type 0, BuildingBlock: BETDIP_clean_linker_0, # of connection points: 3
#     Node 4, Type 0, BuildingBlock: BETDIP_clean_linker_0, # of connection points: 3
#     Node 5, Type 0, BuildingBlock: BETDIP_clean_linker_0, # of connection points: 3
#     Node 6, Type 0, BuildingBlock: BETDIP_clean_linker_0, # of connection points: 3
#     Node 7, Type 0, BuildingBlock: BETDIP_clean_linker_0, # of connection points: 3
#     Node 8, Type 0, BuildingBlock: BETDIP_clean_linker_0, # of connection points: 3
#     Node 9, Type 0, BuildingBlock: BETDIP_clean_linker_0, # of connection points: 3
#     Node 10, Type 0, BuildingBlock: BETDIP_clean_linker_0, # of connection points: 3
#     Node 11, Type 0, BuildingBlock: BETDIP_clean_linker_0, # of connection points: 3
#     Node 12, Type 0, BuildingBlock: BETDIP_clean_linker_0, # of connection points: 3
#     Node 13, Type 0, BuildingBlock: BETDIP_clean_linker_0, # of connection points: 3
#     Node 14, Type 0, BuildingBlock: BETDIP_clean_linker_0, # of connection points: 3
#     Node 15, Type 0, BuildingBlock: BETDIP_clean_linker_0, # of connection points: 3
#     Node 16, Type 0, BuildingBlock: BETDIP_clean_linker_0, # of connection points: 3
#     Node 17, Type 0, BuildingBlock: BETDIP_clean_linker_0, # of connection points: 3
#     Node 18, Type 0, BuildingBlock: BETDIP_clean_linker_0, # of connection points: 3
#     Node 19, Type 0, BuildingBlock: BETDIP_clean_linker_0, # of connection points: 3
#     Node 20, Type 0, BuildingBlock: BETDIP_clean_linker_0, # of connection points: 3
#     Node 21, Type 0, BuildingBlock: BETDIP_clean_linker_0, # of connection points: 3
#     Node 22, Type 0, BuildingBlock: BETDIP_clean_linker_0, # of connection points: 3
#     Node 23, Type 0, BuildingBlock: BETDIP_clean_linker_0, # of connection points: 3
#     Node 24, Type 1, BuildingBlock: QEWDON_clean_sbu_0, # of connection points: 12
#     Node 25, Type 1, BuildingBlock: QEWDON_clean_sbu_0, # of connection points: 12
#     Node 26, Type 1, BuildingBlock: QEWDON_clean_sbu_0, # of connection points: 12
#     Node 27, Type 1, BuildingBlock: QEWDON_clean_sbu_0, # of connection points: 12
#     Node 28, Type 1, BuildingBlock: QEWDON_clean_sbu_0, # of connection points: 12
#     Node 29, Type 1, BuildingBlock: QEWDON_clean_sbu_0, # of connection points: 12
#     Edge 30, Type (0, 1), BuildingBlock: CIFDUS_clean_linker_0, # of connection points: 2
#     Edge 31, Type (0, 1), BuildingBlock: CIFDUS_clean_linker_0, # of connection points: 2
#     Edge 32, Type (0, 1), BuildingBlock: CIFDUS_clean_linker_0, # of connection points: 2
#     Edge 33, Type (0, 1), BuildingBlock: CIFDUS_clean_linker_0, # of connection points: 2
#     Edge 34, Type (0, 1), BuildingBlock: CIFDUS_clean_linker_0, # of connection points: 2
#     Edge 35, Type (0, 1), BuildingBlock: CIFDUS_clean_linker_0, # of connection points: 2
#     Edge 36, Type (0, 1), BuildingBlock: CIFDUS_clean_linker_0, # of connection points: 2
#     Edge 37, Type (0, 1), BuildingBlock: CIFDUS_clean_linker_0, # of connection points: 2
#     Edge 38, Type (0, 1), BuildingBlock: CIFDUS_clean_linker_0, # of connection points: 2
#     Edge 39, Type (0, 1), BuildingBlock: CIFDUS_clean_linker_0, # of connection points: 2
#     Edge 40, Type (0, 1), BuildingBlock: CIFDUS_clean_linker_0, # of connection points: 2
#     Edge 41, Type (0, 1), BuildingBlock: CIFDUS_clean_linker_0, # of connection points: 2
#     Edge 42, Type (0, 1), BuildingBlock: CIFDUS_clean_linker_0, # of connection points: 2
#     Edge 43, Type (0, 1), BuildingBlock: CIFDUS_clean_linker_0, # of connection points: 2
#     Edge 44, Type (0, 1), BuildingBlock: CIFDUS_clean_linker_0, # of connection points: 2
#     Edge 45, Type (0, 1), BuildingBlock: CIFDUS_clean_linker_0, # of connection points: 2
#     Edge 46, Type (0, 1), BuildingBlock: CIFDUS_clean_linker_0, # of connection points: 2
#     Edge 47, Type (0, 1), BuildingBlock: CIFDUS_clean_linker_0, # of connection points: 2
#     Edge 48, Type (0, 1), BuildingBlock: CIFDUS_clean_linker_0, # of connection points: 2
#     Edge 49, Type (0, 1), BuildingBlock: CIFDUS_clean_linker_0, # of connection points: 2
#     Edge 50, Type (0, 1), BuildingBlock: CIFDUS_clean_linker_0, # of connection points: 2
#     Edge 51, Type (0, 1), BuildingBlock: CIFDUS_clean_linker_0, # of connection points: 2
#     Edge 52, Type (0, 1), BuildingBlock: CIFDUS_clean_linker_0, # of connection points: 2
#     Edge 53, Type (0, 1), BuildingBlock: CIFDUS_clean_linker_0, # of connection points: 2
#     Edge 54, Type (0, 1), BuildingBlock: CIFDUS_clean_linker_0, # of connection points: 2
#     Edge 55, Type (0, 1), BuildingBlock: CIFDUS_clean_linker_0, # of connection points: 2
#     Edge 56, Type (0, 1), BuildingBlock: CIFDUS_clean_linker_0, # of connection points: 2
#     Edge 57, Type (0, 1), BuildingBlock: CIFDUS_clean_linker_0, # of connection points: 2
#     Edge 58, Type (0, 1), BuildingBlock: CIFDUS_clean_linker_0, # of connection points: 2
#     Edge 59, Type (0, 1), BuildingBlock: CIFDUS_clean_linker_0, # of connection points: 2
#     Edge 60, Type (0, 1), BuildingBlock: CIFDUS_clean_linker_0, # of connection points: 2
#     Edge 61, Type (0, 1), BuildingBlock: CIFDUS_clean_linker_0, # of connection points: 2
#     Edge 62, Type (0, 1), BuildingBlock: CIFDUS_clean_linker_0, # of connection points: 2
#     Edge 63, Type (0, 1), BuildingBlock: CIFDUS_clean_linker_0, # of connection points: 2
#     Edge 64, Type (0, 1), BuildingBlock: CIFDUS_clean_linker_0, # of connection points: 2
#     Edge 65, Type (0, 1), BuildingBlock: CIFDUS_clean_linker_0, # of connection points: 2
#     Edge 66, Type (0, 1), BuildingBlock: CIFDUS_clean_linker_0, # of connection points: 2
#     Edge 67, Type (0, 1), BuildingBlock: CIFDUS_clean_linker_0, # of connection points: 2
#     Edge 68, Type (0, 1), BuildingBlock: CIFDUS_clean_linker_0, # of connection points: 2
#     Edge 69, Type (0, 1), BuildingBlock: CIFDUS_clean_linker_0, # of connection points: 2
#     Edge 70, Type (0, 1), BuildingBlock: CIFDUS_clean_linker_0, # of connection points: 2
#     Edge 71, Type (0, 1), BuildingBlock: CIFDUS_clean_linker_0, # of connection points: 2
#     Edge 72, Type (0, 1), BuildingBlock: CIFDUS_clean_linker_0, # of connection points: 2
#     Edge 73, Type (0, 1), BuildingBlock: CIFDUS_clean_linker_0, # of connection points: 2
#     Edge 74, Type (0, 1), BuildingBlock: CIFDUS_clean_linker_0, # of connection points: 2
#     Edge 75, Type (0, 1), BuildingBlock: CIFDUS_clean_linker_0, # of connection points: 2
#     Edge 76, Type (0, 1), BuildingBlock: CIFDUS_clean_linker_0, # of connection points: 2
#     Edge 77, Type (0, 1), BuildingBlock: CIFDUS_clean_linker_0, # of connection points: 2
#     Edge 78, Type (0, 1), BuildingBlock: CIFDUS_clean_linker_0, # of connection points: 2
#     Edge 79, Type (0, 1), BuildingBlock: CIFDUS_clean_linker_0, # of connection points: 2
#     Edge 80, Type (0, 1), BuildingBlock: CIFDUS_clean_linker_0, # of connection points: 2
#     Edge 81, Type (0, 1), BuildingBlock: CIFDUS_clean_linker_0, # of connection points: 2
#     Edge 82, Type (0, 1), BuildingBlock: CIFDUS_clean_linker_0, # of connection points: 2
#     Edge 83, Type (0, 1), BuildingBlock: CIFDUS_clean_linker_0, # of connection points: 2
#     Edge 84, Type (0, 1), BuildingBlock: CIFDUS_clean_linker_0, # of connection points: 2
#     Edge 85, Type (0, 1), BuildingBlock: CIFDUS_clean_linker_0, # of connection points: 2
#     Edge 86, Type (0, 1), BuildingBlock: CIFDUS_clean_linker_0, # of connection points: 2
#     Edge 87, Type (0, 1), BuildingBlock: CIFDUS_clean_linker_0, # of connection points: 2
#     Edge 88, Type (0, 1), BuildingBlock: CIFDUS_clean_linker_0, # of connection points: 2
#     Edge 89, Type (0, 1), BuildingBlock: CIFDUS_clean_linker_0, # of connection points: 2
#     Edge 90, Type (0, 1), BuildingBlock: CIFDUS_clean_linker_0, # of connection points: 2
#     Edge 91, Type (0, 1), BuildingBlock: CIFDUS_clean_linker_0, # of connection points: 2
#     Edge 92, Type (0, 1), BuildingBlock: CIFDUS_clean_linker_0, # of connection points: 2
#     Edge 93, Type (0, 1), BuildingBlock: CIFDUS_clean_linker_0, # of connection points: 2
#     Edge 94, Type (0, 1), BuildingBlock: CIFDUS_clean_linker_0, # of connection points: 2
#     Edge 95, Type (0, 1), BuildingBlock: CIFDUS_clean_linker_0, # of connection points: 2
#     Edge 96, Type (0, 1), BuildingBlock: CIFDUS_clean_linker_0, # of connection points: 2
#     Edge 97, Type (0, 1), BuildingBlock: CIFDUS_clean_linker_0, # of connection points: 2
#     Edge 98, Type (0, 1), BuildingBlock: CIFDUS_clean_linker_0, # of connection points: 2
#     Edge 99, Type (0, 1), BuildingBlock: CIFDUS_clean_linker_0, # of connection points: 2
#     Edge 100, Type (0, 1), BuildingBlock: CIFDUS_clean_linker_0, # of connection points: 2
#     Edge 101, Type (0, 1), BuildingBlock: CIFDUS_clean_linker_0, # of connection points: 2
# Relax obj value: 0.100
# Max RMSD: 0.183
# Mean RMSD: 0.146
data_MOF--net-llk--node1-QEWDON_clean_sbu_0--node2-BETDIP_clean_linker_0--edge1-CIFDUS_clean_linker_0
_symmetry_space_group_name_H-M    P1
_symmetry_Int_Tables_number       1
_symmetry_cell_setting            triclinic
loop_
_symmetry_equiv_pos_as_xyz
'x, y, z'
_cell_length_a     40.704856
_cell_length_b     42.590228
_cell_length_c     42.34976
_cell_angle_alpha  90.097066
_cell_angle_beta   90.01565
_cell_angle_gamma 89.633695
loop_
_atom_site_label
_atom_site_type_symbol
_atom_site_fract_x
_atom_site_fract_y
_atom_site_fract_z
_atom_type_partial_charge
H0 H 0.04934 0.26928 0.22542 0.0
H1 H 0.03453 0.26693 0.32616 0.0
H2 H 0.03117 0.35482 0.27732 0.0
H3 H 0.08743 0.22474 0.30646 0.0
C4 C 0.06403 0.21505 0.29899 0.0
C5 C 0.04423 0.28149 0.24735 0.0
C6 C 0.04145 0.31451 0.24782 0.0
C7 C 0.04224 0.2643 0.27566 0.0
C8 C 0.0363 0.28006 0.30433 0.0
C9 C 0.03265 0.31271 0.30485 0.0
C10 C 0.03476 0.32958 0.27666 0.0
N11 N 0.04579 0.23113 0.27529 0.0
H12 H 0.80735 0.05742 0.23394 0.0
H13 H 0.70531 0.07545 0.21565 0.0
H14 H 0.74165 0.08015 0.31051 0.0
H15 H 0.74925 0.00891 0.19954 0.0
C16 C 0.7481 0.02733 0.18178 0.0
C17 C 0.78347 0.06497 0.24248 0.0
C18 C 0.77799 0.0692 0.27498 0.0
C19 C 0.75741 0.06763 0.22112 0.0
C20 C 0.72582 0.07531 0.23198 0.0
C21 C 0.72041 0.08083 0.2641 0.0
C22 C 0.74659 0.07815 0.28541 0.0
N23 N 0.76145 0.05685 0.18984 0.0
H24 H 0.00339 0.79885 0.25579 0.0
H25 H 0.02788 0.70145 0.26677 0.0
H26 H 0.0421 0.76573 0.34418 0.0
H27 H 0.04773 0.7624 0.20159 0.0
C28 C 0.02775 0.74562 0.20022 0.0
C29 C 0.01392 0.78018 0.26997 0.0
C30 C 0.02248 0.78574 0.30166 0.0
C31 C 0.01705 0.74978 0.25731 0.0
C32 C 0.02801 0.72504 0.27639 0.0
C33 C 0.03669 0.73027 0.30805 0.0
C34 C 0.03527 0.76108 0.31988 0.0
N35 N 0.00625 0.74285 0.22632 0.0
H36 H 0.21432 0.99535 0.23242 0.0
H37 H 0.3106 0.97743 0.2713 0.0
H38 H 0.22685 0.97947 0.33217 0.0
H39 H 0.31971 0.01936 0.23741 0.0
C40 C 0.30943 0.00859 0.21634 0.0
C41 C 0.22995 0.98935 0.25226 0.0
C42 C 0.21638 0.98595 0.28256 0.0
C43 C 0.2641 0.98673 0.24806 0.0
C44 C 0.28424 0.97961 0.27416 0.0
C45 C 0.27088 0.97738 0.30442 0.0
C46 C 0.23703 0.98025 0.30849 0.0
N47 N 0.27834 0.99367 0.21826 0.0
H48 H 0.97128 0.75999 0.80921 0.0
H49 H 0.99291 0.7667 0.71026 0.0
H50 H 0.00408 0.67814 0.75821 0.0
H51 H 0.01974 0.82014 0.77066 0.0
C52 C 0.99718 0.82241 0.75707 0.0
C53 C 0.97979 0.74906 0.78754 0.0
C54 C 0.98859 0.71717 0.78713 0.0
C55 C 0.98217 0.76695 0.75999 0.0
C56 C 0.9923 0.75285 0.73171 0.0
C57 C -0.00042 0.72066 0.73071 0.0
C58 C -0.00157 0.70306 0.75871 0.0
N59 N 0.97297 0.79895 0.76015 0.0
H60 H 0.24311 0.97235 0.77968 0.0
H61 H 0.34611 0.98762 0.79582 0.0
H62 H 0.30007 0.02725 0.71438 0.0
H63 H 0.33144 0.92431 0.80686 0.0
C64 C 0.31989 0.93793 0.82559 0.0
C65 C 0.26595 0.98332 0.77279 0.0
C66 C 0.26771 1.0011 0.74481 0.0
C67 C 0.29419 0.97781 0.79093 0.0
C68 C 0.32408 0.99171 0.78211 0.0
C69 C 0.3259 0.01044 0.75509 0.0
C70 C 0.29773 0.01497 0.73665 0.0
N71 N 0.29261 0.95703 0.81708 0.0
H72 H -0.00105 0.2304 0.74882 0.0
H73 H 0.0008 0.33117 0.75053 0.0
H74 H 0.00114 0.2824 0.66168 0.0
H75 H 0.04999 0.30246 0.78986 0.0
C76 C 0.02663 0.29942 0.80192 0.0
C77 C -0.00146 0.25253 0.73624 0.0
C78 C -0.00054 0.25293 0.70294 0.0
C79 C -0.00022 0.28083 0.75332 0.0
C80 C 0.00037 0.3095 0.7371 0.0
C81 C 0.00091 0.31039 0.70403 0.0
C82 C -1e-05 0.282 0.68724 0.0
N83 N 0.00236 0.28077 0.78677 0.0
H84 H 0.7592 0.03088 0.82768 0.0
H85 H 0.7963 0.05675 0.73629 0.0
H86 H 0.69268 0.06103 0.75453 0.0
H87 H 0.84335 0.07906 0.79515 0.0
C88 C 0.84126 0.05544 0.78567 0.0
C89 C 0.7548 0.03971 0.80405 0.0
C90 C 0.72256 0.0459 0.79378 0.0
C91 C 0.78154 0.04439 0.78381 0.0
C92 C 0.77597 0.0544 0.75258 0.0
C93 C 0.7439 0.0603 0.74199 0.0
C94 C 0.71748 0.05662 0.76285 0.0
N95 N 0.81369 0.03742 0.79478 0.0
H96 H 0.18925 0.27129 0.01955 0.0
H97 H 0.29391 0.26234 0.03165 0.0
H98 H 0.2526 0.34821 0.99572 0.0
H99 H 0.23584 0.20984 0.98829 0.0
C100 C 0.24742 0.20875 0.01139 0.0
C101 C 0.21351 0.28158 0.01874 0.0
C102 C 0.21767 0.3121 0.00704 0.0
C103 C 0.24108 0.26352 0.02717 0.0
C104 C 0.27266 0.27646 0.02536 0.0
C105 C 0.27686 0.30704 0.01412 0.0
C106 C 0.24934 0.32463 0.00483 0.0
N107 N 0.23754 0.23131 0.03418 0.0
H108 H 0.17698 0.78959 0.03345 0.0
H109 H 0.28192 0.78155 0.04387 0.0
H110 H 0.22227 0.69908 0.0476 0.0
H111 H 0.2541 0.83474 0.0793 0.0
C112 C 0.25193 0.84117 0.05454 0.0
C113 C 0.19858 0.77521 0.0377 0.0
C114 C 0.19556 0.74258 0.04174 0.0
C115 C 0.22958 0.78941 0.03951 0.0
C116 C 0.25788 0.77075 0.04405 0.0
C117 C 0.25525 0.73801 0.04632 0.0
C118 C 0.22409 0.72442 0.04599 0.0
N119 N 0.23254 0.82216 0.03438 0.0
H120 H 0.82004 0.20896 0.00313 0.0
H121 H 0.81763 0.31014 0.00621 0.0
H122 H 0.7308 0.25757 0.02796 0.0
H123 H 0.8596 0.28673 0.95307 0.0
C124 C 0.87024 0.28322 0.97635 0.0
C125 C 0.80683 0.23072 0.00746 0.0
C126 C 0.77355 0.23009 0.01571 0.0
C127 C 0.82285 0.25946 0.00378 0.0
C128 C 0.80542 0.28776 0.00881 0.0
C129 C 0.77241 0.28713 0.01826 0.0
C130 C 0.75662 0.2582 0.02162 0.0
N131 N 0.85663 0.25948 0.9956 0.0
H132 H 0.78577 0.8132 0.97668 0.0
H133 H 0.78889 0.7137 0.9939 0.0
H134 H 0.70783 0.76873 0.02805 0.0
H135 H 0.86122 0.77329 0.99681 0.0
C136 C 0.8519 0.75564 0.98062 0.0
C137 C 0.77577 0.79268 0.98822 0.0
C138 C 0.74538 0.79458 0.00384 0.0
C139 C 0.79219 0.76363 0.98576 0.0
C140 C 0.77773 0.73646 0.99822 0.0
C141 C 0.74714 0.73835 0.01321 0.0
C142 C 0.73201 0.76757 0.01727 0.0
N143 N 0.82067 0.76074 0.9668 0.0
H144 H 0.54007 0.76212 0.70388 0.0
H145 H 0.5271 0.77784 0.80365 0.0
H146 H 0.53608 0.8564 0.74097 0.0
H147 H 0.58144 0.72821 0.78006 0.0
C148 C 0.55658 0.71902 0.78005 0.0
C149 C 0.53737 0.77811 0.72365 0.0
C150 C 0.53825 0.81082 0.71871 0.0
C151 C 0.53352 0.76619 0.75445 0.0
C152 C 0.53023 0.78699 0.77997 0.0
C153 C 0.53104 0.81945 0.77507 0.0
C154 C 0.53511 0.8312 0.74457 0.0
N155 N 0.53276 0.73338 0.76013 0.0
H156 H 0.35252 0.54635 0.75653 0.0
H157 H 0.24865 0.54531 0.73868 0.0
H158 H 0.28393 0.54339 0.8342 0.0
H159 H 0.30799 0.49701 0.70196 0.0
C160 C 0.30011 0.51972 0.69291 0.0
C161 C 0.32759 0.54634 0.76549 0.0
C162 C 0.32169 0.54489 0.79823 0.0
C163 C 0.30125 0.5466 0.74413 0.0
C164 C 0.2689 0.54565 0.75532 0.0
C165 C 0.26263 0.54533 0.78779 0.0
C166 C 0.289 0.54513 0.80913 0.0
N167 N 0.30707 0.54676 0.7112 0.0
H168 H 0.48116 0.30048 0.74664 0.0
H169 H 0.4549 0.205 0.76784 0.0
H170 H 0.48268 0.26722 0.8428 0.0
H171 H 0.50836 0.257 0.70199 0.0
C172 C 0.48707 0.24196 0.6993 0.0
C173 C 0.47682 0.28211 0.76377 0.0
C174 C 0.48184 0.28787 0.79631 0.0
C175 C 0.46621 0.25214 0.75366 0.0
C176 C 0.46149 0.22833 0.77585 0.0
C177 C 0.46746 0.23367 0.80788 0.0
C178 C 0.47703 0.26348 0.81803 0.0
N179 N 0.46098 0.24455 0.7214 0.0
H180 H 0.67886 0.50754 0.75235 0.0
H181 H 0.78224 0.50417 0.77339 0.0
H182 H 0.71221 0.49076 0.84756 0.0
H183 H 0.76121 0.55994 0.73456 0.0
C184 C 0.76252 0.53802 0.72142 0.0
C185 C 0.6986 0.50375 0.76912 0.0
C186 C 0.69149 0.49791 0.80103 0.0
C187 C 0.73132 0.5064 0.75924 0.0
C188 C 0.75693 0.50211 0.78103 0.0
C189 C 0.75004 0.49628 0.8128 0.0
C190 C 0.7174 0.49422 0.82268 0.0
N191 N 0.73856 0.51482 0.72771 0.0
H192 H 0.48114 0.27268 0.30395 0.0
H193 H 0.51332 0.27224 0.2076 0.0
H194 H 0.52233 0.18818 0.26343 0.0
H195 H 0.53547 0.32615 0.26917 0.0
C196 C 0.5153 0.33058 0.25289 0.0
C197 C 0.49172 0.26013 0.28411 0.0
C198 C 0.50128 0.22835 0.28731 0.0
C199 C 0.49684 0.27595 0.2554 0.0
C200 C 0.51038 0.25985 0.22975 0.0
C201 C 0.51947 0.22813 0.23223 0.0
C202 C 0.51516 0.21264 0.26122 0.0
N203 N 0.48945 0.30837 0.25196 0.0
H204 H 0.68817 0.48675 0.25945 0.0
H205 H 0.78477 0.52247 0.27831 0.0
H206 H 0.75658 0.50179 0.18311 0.0
H207 H 0.73961 0.4639 0.326 0.0
C208 C 0.7424 0.48919 0.328 0.0
C209 C 0.71207 0.49373 0.25081 0.0
C210 C 0.71963 0.49149 0.21835 0.0
C211 C 0.73563 0.50469 0.2724 0.0
C212 C 0.76677 0.51365 0.26172 0.0
C213 C 0.77409 0.51276 0.22951 0.0
C214 C 0.75066 0.50169 0.20807 0.0
N215 N 0.72756 0.50843 0.3047 0.0
H216 H 0.55159 0.71676 0.26145 0.0
H217 H 0.55864 0.81708 0.25334 0.0
H218 H 0.55254 0.76033 0.16976 0.0
H219 H 0.5924 0.80496 0.30209 0.0
C220 C 0.56969 0.79527 0.3113 0.0
C221 C 0.55373 0.73751 0.24684 0.0
C222 C 0.55337 0.73474 0.21363 0.0
C223 C 0.55662 0.76709 0.2613 0.0
C224 C 0.55794 0.7941 0.24237 0.0
C225 C 0.55628 0.79188 0.20939 0.0
C226 C 0.55495 0.7621 0.1952 0.0
N227 N 0.55503 0.76982 0.29478 0.0
H228 H 0.29197 0.57454 0.29407 0.0
H229 H 0.31187 0.58356 0.19474 0.0
H230 H 0.21819 0.54933 0.22592 0.0
H231 H 0.36137 0.55289 0.27773 0.0
C232 C 0.36244 0.56707 0.25645 0.0
C233 C 0.2839 0.57233 0.26978 0.0
C234 C 0.25215 0.56153 0.26292 0.0
C235 C 0.30527 0.58053 0.2452 0.0
C236 C 0.29516 0.5776 0.2137 0.0
C237 C 0.26394 0.56588 0.20677 0.0
C238 C 0.24247 0.5582 0.23138 0.0
N239 N 0.33767 0.59009 0.25198 0.0
H240 H 0.72346 0.77395 0.47006 0.0
H241 H 0.82024 0.79661 0.50436 0.0
H242 H 0.74511 0.86782 0.50053 0.0
H243 H 0.83023 0.75703 0.45958 0.0
C244 C 0.81524 0.74064 0.47286 0.0
C245 C 0.74072 0.79093 0.47927 0.0
C246 C 0.73055 0.82206 0.48471 0.0
C247 C 0.77331 0.78172 0.48579 0.0
C248 C 0.79552 0.80386 0.49814 0.0
C249 C 0.7853 0.83484 0.5042 0.0
C250 C 0.75297 0.84369 0.49691 0.0
N251 N 0.78288 0.74976 0.48188 0.0
H252 H 0.72028 0.26471 0.47277 0.0
H253 H 0.82501 0.26495 0.46617 0.0
H254 H 0.77787 0.18887 0.51315 0.0
H255 H 0.75083 0.32542 0.49434 0.0
C256 C 0.76877 0.32566 0.47532 0.0
C257 C 0.74329 0.2533 0.47851 0.0
C258 C 0.74427 0.2236 0.4935 0.0
C259 C 0.77248 0.26843 0.46976 0.0
C260 C 0.80279 0.25365 0.47432 0.0
C261 C 0.8044 0.22433 0.48892 0.0
C262 C 0.77545 0.21039 0.49988 0.0
N263 N 0.7719 0.29863 0.45602 0.0
H264 H 0.26531 0.72108 0.55124 0.0
H265 H 0.26071 0.82155 0.54251 0.0
H266 H 0.17156 0.76817 0.54821 0.0
H267 H 0.31127 0.78782 0.49807 0.0
C268 C 0.31858 0.79061 0.52259 0.0
C269 C 0.25094 0.74255 0.5501 0.0
C270 C 0.21635 0.74131 0.55097 0.0
C271 C 0.2669 0.77158 0.54674 0.0
C272 C 0.24822 0.79926 0.54458 0.0
C273 C 0.21378 0.79837 0.54561 0.0
C274 C 0.19816 0.7693 0.54899 0.0
N275 N 0.30174 0.77325 0.54621 0.0
H276 H 0.27289 0.30781 0.52679 0.0
H277 H 0.24659 0.21036 0.52546 0.0
H278 H 0.17098 0.28122 0.52763 0.0
H279 H 0.29226 0.21919 0.48345 0.0
C280 C 0.30781 0.22564 0.50329 0.0
C281 C 0.25418 0.28983 0.52772 0.0
C282 C 0.22077 0.2983 0.52796 0.0
C283 C 0.26349 0.25817 0.52666 0.0
C284 C 0.2393 0.23484 0.52687 0.0
C285 C 0.20585 0.24295 0.52739 0.0
C286 C 0.19678 0.27475 0.52832 0.0
N287 N 0.29717 0.24992 0.52401 0.0
Zn288 Zn 0.95728 0.98964 0.43048 0.0
Zn289 Zn 0.95581 0.06 0.45898 0.0
O290 O 0.98222 0.01967 0.45835 0.0
H291 H -0.0023 0.01306 0.47429 0.0
C292 C 0.91809 0.96003 0.56115 0.0
O293 O 0.90381 0.98197 0.57827 0.0
Zn294 Zn 0.0903 0.0631 0.56723 0.0
Zn295 Zn 0.07817 0.99068 0.58452 0.0
O296 O 0.05459 0.03184 0.57672 0.0
H297 H 0.0345 0.03599 0.58812 0.0
Zn298 Zn 0.97182 0.99981 0.57709 0.0
O299 O 0.9851 0.03518 0.54807 0.0
Zn300 Zn 0.98095 0.07528 0.57221 0.0
H301 H 0.99642 0.03256 0.52823 0.0
Zn302 Zn 0.05663 0.97863 0.46762 0.0
O303 O 0.05924 0.02062 0.48889 0.0
H304 H 0.05031 0.02488 0.50958 0.0
Zn305 Zn 0.06788 0.05171 0.4549 0.0
C306 C 0.11584 0.94781 0.48301 0.0
O307 O 0.12552 0.97066 0.46445 0.0
O308 O 0.9166 0.00974 0.41102 0.0
O309 O 0.9112 0.05459 0.43768 0.0
O310 O 0.12504 0.9988 0.59952 0.0
O311 O 0.13151 0.04986 0.59109 0.0
O312 O 0.95387 0.01549 0.62009 0.0
O313 O 0.96057 0.06715 0.61506 0.0
C314 C 0.00878 0.09001 0.4281 0.0
O315 O 0.06652 0.98095 0.4201 0.0
O316 O 0.08401 0.03012 0.41482 0.0
O317 O 0.05826 0.96273 0.61925 0.0
C318 C 0.90086 0.03494 0.41717 0.0
O319 O 0.97825 0.95123 0.40724 0.0
C320 C 0.04718 0.11202 0.58714 0.0
O321 O 0.94881 0.96163 0.55641 0.0
C322 C 0.14165 0.02383 0.60249 0.0
O323 O 0.08547 0.94534 0.48934 0.0
C324 C 0.94468 0.09981 0.51865 0.0
O325 O 0.97783 0.09145 0.43082 0.0
O326 O 0.02384 0.07048 0.44563 0.0
C327 C 0.95127 0.04334 0.63095 0.0
O328 O 0.07749 0.1058 0.58378 0.0
O329 O 0.02673 0.09161 0.5779 0.0
C330 C 0.10532 0.08626 0.5013 0.0
O331 O 0.95222 0.10486 0.54738 0.0
O332 O 0.95685 0.07608 0.50446 0.0
C333 C 0.07954 0.00256 0.40363 0.0
O334 O 0.09903 0.08449 0.47192 0.0
O335 O 0.09413 0.0653 0.51965 0.0
C336 C 0.03277 0.94581 0.62094 0.0
O337 O 0.01294 0.94373 0.59656 0.0
C338 C 0.99569 0.95373 0.38244 0.0
O339 O 0.00293 0.98182 0.37185 0.0
Zn340 Zn 0.46832 0.08668 0.03645 0.0
Zn341 Zn 0.46968 0.07777 0.96184 0.0
O342 O 0.47905 0.05556 0.00239 0.0
H343 H 0.48615 0.03433 0.00657 0.0
C344 C 0.56873 0.12075 0.08478 0.0
O345 O 0.5836 0.13741 0.06301 0.0
Zn346 Zn 0.55254 0.95939 0.95297 0.0
Zn347 Zn 0.56999 0.97621 0.02336 0.0
O348 O 0.54006 0.98906 0.9875 0.0
H349 H 0.52939 0.00912 0.98455 0.0
Zn350 Zn 0.58352 0.07555 0.03775 0.0
O351 O 0.55144 0.07581 0.00144 0.0
Zn352 Zn 0.58055 0.07124 0.96367 0.0
H353 H 0.53203 0.08889 0.00257 0.0
Zn354 Zn 0.47503 0.95723 0.04456 0.0
O355 O 0.49163 0.94848 0.00032 0.0
H356 H 0.50775 0.93264 0.99489 0.0
Zn357 Zn 0.45478 0.96134 0.9726 0.0
C358 C 0.52602 0.91827 0.07473 0.0
O359 O 0.5386 0.91926 0.04623 0.0
O360 O 0.43224 0.11675 0.02118 0.0
O361 O 0.43431 0.11138 0.96892 0.0
O362 O 0.59975 0.93812 0.01509 0.0
O363 O 0.58128 0.92328 0.96809 0.0
O364 O 0.6276 0.09489 0.02461 0.0
O365 O 0.62507 0.08965 0.97253 0.0
C366 C 0.45042 0.01847 0.93534 0.0
O367 O 0.42447 0.9535 0.04583 0.0
O368 O 0.41125 0.95253 0.9948 0.0
O369 O 0.59263 0.00812 0.05179 0.0
C370 C 0.42136 0.1233 0.99377 0.0
O371 O 0.45587 0.06637 0.07858 0.0
C372 C 0.59057 0.01032 0.92692 0.0
O373 O 0.56498 0.09153 0.08022 0.0
C374 C 0.59985 0.91911 0.99198 0.0
O375 O 0.49964 0.9334 0.08042 0.0
C376 C 0.53252 0.10324 0.92568 0.0
O377 O 0.45237 0.04768 0.93011 0.0
O378 O 0.45962 0.00724 0.96164 0.0
C379 C 0.64002 0.09866 0.9973 0.0
O380 O 0.58118 0.98229 0.92207 0.0
O381 O 0.57917 0.02536 0.9505 0.0
C382 C 0.4859 0.93014 0.9204 0.0
O383 O 0.56305 0.09807 0.92881 0.0
O384 O 0.5134 0.09025 0.94524 0.0
C385 C 0.40317 0.95066 0.02391 0.0
O386 O 0.45814 0.93526 0.93323 0.0
O387 O 0.51167 0.94141 0.93293 0.0
C388 C 0.61989 0.01884 0.04219 0.0
O389 O 0.62877 0.0138 0.01277 0.0
C390 C 0.43227 0.04706 0.0769 0.0
O391 O 0.41988 0.0403 0.04905 0.0
Zn392 Zn 0.95576 0.48302 0.9563 0.0
Zn393 Zn 0.94552 0.55809 0.96795 0.0
O394 O 0.97967 0.52353 0.96582 0.0
H395 H 0.00061 0.52427 0.97644 0.0
C396 C 0.94436 0.44589 0.033 0.0
O397 O 0.93959 0.47324 0.01944 0.0
Zn398 Zn 0.08155 0.55554 0.05788 0.0
Zn399 Zn 0.08299 0.47881 0.06243 0.0
O400 O 0.05303 0.51731 0.05857 0.0
H401 H 0.03092 0.51658 0.05043 0.0
Zn402 Zn 0.96922 0.48798 0.08054 0.0
O403 O 0.96654 0.52509 0.05077 0.0
Zn404 Zn 0.96765 0.56155 0.07991 0.0
H405 H 0.97609 0.52467 0.02991 0.0
Zn406 Zn 0.07099 0.49747 0.93316 0.0
O407 O 0.06379 0.52908 0.96818 0.0
H408 H 0.05779 0.52396 0.98961 0.0
Zn409 Zn 0.05928 0.57009 0.94557 0.0
C410 C 0.08169 0.44117 0.97335 0.0
O411 O 0.06144 0.45551 0.99285 0.0
O412 O 0.90969 0.49235 0.94025 0.0
O413 O 0.90091 0.54274 0.95182 0.0
O414 O 0.13116 0.49133 0.07134 0.0
O415 O 0.12806 0.54346 0.07006 0.0
O416 O 0.94774 0.49851 0.12333 0.0
O417 O 0.94332 0.55064 0.12055 0.0
C418 C 0.98852 0.5963 0.93009 0.0
O419 O 0.09546 0.51754 0.8958 0.0
O420 O 0.08612 0.56832 0.90473 0.0
O421 O 0.06794 0.44293 0.09256 0.0
C422 C 0.89127 0.51658 0.94032 0.0
O423 O 0.97794 0.44395 0.93506 0.0
C424 C 0.03522 0.59105 0.09544 0.0
O425 O 0.95736 0.44502 0.06028 0.0
C426 C 0.1444 0.5182 0.07452 0.0
O427 O 0.08837 0.45386 0.94698 0.0
C428 C 0.94183 0.59921 0.02879 0.0
O429 O 0.95889 0.59222 0.93841 0.0
O430 O 0.01043 0.57874 0.94242 0.0
C431 C 0.93805 0.52469 0.13478 0.0
O432 O 0.06545 0.58824 0.08872 0.0
O433 O 0.01575 0.57029 0.08493 0.0
C434 C 0.08435 0.60086 0.00147 0.0
O435 O 0.94784 0.59898 0.05828 0.0
O436 O 0.94491 0.57373 0.01327 0.0
C437 C 0.09937 0.5463 0.88851 0.0
O438 O 0.07825 0.60436 0.97227 0.0
O439 O 0.07884 0.5742 0.01396 0.0
C440 C 0.07475 0.44969 0.12103 0.0
O441 O 0.08747 0.47736 0.12703 0.0
C442 C 0.00221 0.44626 0.91641 0.0
O443 O 0.0152 0.47399 0.9116 0.0
Zn444 Zn 0.46708 0.46338 0.98546 0.0
Zn445 Zn 0.47511 0.46293 0.06159 0.0
O446 O 0.48273 0.48904 0.02291 0.0
H447 H 0.48831 0.51102 0.02216 0.0
C448 C 0.52542 0.41898 0.92118 0.0
O449 O 0.50841 0.44278 0.93249 0.0
Zn450 Zn 0.56835 0.56584 0.05342 0.0
Zn451 Zn 0.55651 0.5675 0.98037 0.0
O452 O 0.55623 0.53786 0.01762 0.0
H453 H 0.54558 0.51772 0.01877 0.0
Zn454 Zn 0.57428 0.43441 0.97358 0.0
O455 O 0.54945 0.44373 0.01453 0.0
Zn456 Zn 0.58322 0.44936 0.04955 0.0
H457 H 0.52623 0.43992 0.01694 0.0
Zn458 Zn 0.4498 0.58959 0.97665 0.0
O459 O 0.48253 0.58174 0.01257 0.0
H460 H 0.5061 0.58245 0.01024 0.0
Zn461 Zn 0.45706 0.58037 0.05371 0.0
C462 C 0.49117 0.61187 0.92123 0.0
O463 O 0.51514 0.59589 0.93448 0.0
O464 O 0.44113 0.42432 0.99936 0.0
O465 O 0.44509 0.42635 0.05174 0.0
O466 O 0.58738 0.60477 0.98849 0.0
O467 O 0.60068 0.59885 0.03914 0.0
O468 O 0.62227 0.42213 0.98344 0.0
O469 O 0.62722 0.43017 0.03537 0.0
C470 C 0.44779 0.51926 0.09359 0.0
O471 O 0.40592 0.60532 0.99467 0.0
O472 O 0.4121 0.6011 0.04688 0.0
O473 O 0.56348 0.54705 0.93663 0.0
C474 C 0.43422 0.4135 0.0266 0.0
O475 O 0.4482 0.48689 0.94622 0.0
C476 C 0.59186 0.5101 0.08628 0.0
O477 O 0.55232 0.41122 0.93452 0.0
C478 C 0.60412 0.61266 0.01265 0.0
O479 O 0.46306 0.61226 0.93435 0.0
C480 C 0.53714 0.43098 0.09566 0.0
O481 O 0.45383 0.48988 0.09478 0.0
O482 O 0.45575 0.53446 0.06875 0.0
C483 C 0.63906 0.421 0.00886 0.0
O484 O 0.58741 0.53965 0.08784 0.0
O485 O 0.58589 0.49573 0.06046 0.0
C486 C 0.51189 0.60355 0.08809 0.0
O487 O 0.56748 0.42811 0.08915 0.0
O488 O 0.51925 0.44608 0.07613 0.0
C489 C 0.39536 0.6093 0.0227 0.0
O490 O 0.48087 0.60597 0.08658 0.0
O491 O 0.52593 0.58512 0.06857 0.0
C492 C 0.56327 0.51748 0.93285 0.0
O493 O 0.55622 0.49941 0.95699 0.0
C494 C 0.432 0.51227 0.94977 0.0
O495 O 0.42882 0.5241 0.9783 0.0
Zn496 Zn 0.95842 0.48333 0.4655 0.0
Zn497 Zn 0.95143 0.55813 0.45898 0.0
O498 O 0.98447 0.52335 0.46269 0.0
H499 H 0.00611 0.5253 0.47179 0.0
C500 C 0.90957 0.44546 0.52362 0.0
O501 O 0.93738 0.43948 0.50901 0.0
Zn502 Zn 0.08239 0.57475 0.55471 0.0
Zn503 Zn 0.08444 0.50047 0.56808 0.0
O504 O 0.05529 0.53601 0.55443 0.0
H505 H 0.0351 0.53348 0.54277 0.0
Zn506 Zn 0.94656 0.49033 0.56715 0.0
O507 O 0.9665 0.52688 0.54334 0.0
Zn508 Zn 0.9634 0.56574 0.57022 0.0
H509 H 0.97992 0.52455 0.52471 0.0
Zn510 Zn 0.09581 0.49552 0.44654 0.0
O511 O 0.07586 0.53062 0.47205 0.0
H512 H 0.06527 0.5281 0.49226 0.0
Zn513 Zn 0.07037 0.56698 0.44275 0.0
C514 C 0.11882 0.45384 0.49803 0.0
O515 O 0.09554 0.46766 0.51453 0.0
O516 O 0.91045 0.49053 0.45251 0.0
O517 O 0.90744 0.54158 0.44132 0.0
O518 O 0.13023 0.51494 0.58185 0.0
O519 O 0.12793 0.56665 0.57424 0.0
O520 O 0.93031 0.50345 0.61089 0.0
O521 O 0.93925 0.55487 0.61098 0.0
C522 C 0.00248 0.59476 0.42864 0.0
O523 O 0.11488 0.51091 0.40486 0.0
O524 O 0.09228 0.55844 0.40014 0.0
O525 O 0.06297 0.46565 0.59467 0.0
C526 C 0.89454 0.51422 0.44211 0.0
O527 O 0.97943 0.44387 0.44483 0.0
C528 C 0.02722 0.60462 0.58695 0.0
O529 O 0.90903 0.46497 0.54631 0.0
C530 C 0.14331 0.542 0.58344 0.0
O531 O 0.12304 0.46154 0.46937 0.0
C532 C 0.93022 0.59608 0.5185 0.0
O533 O 0.97155 0.59226 0.43226 0.0
O534 O 0.02129 0.57362 0.43969 0.0
C535 C 0.92762 0.53028 0.6239 0.0
O536 O 0.05782 0.60657 0.58101 0.0
O537 O 0.01065 0.58273 0.57396 0.0
C538 C 0.10133 0.60505 0.49075 0.0
O539 O 0.93421 0.59762 0.5482 0.0
O540 O 0.94544 0.57455 0.50347 0.0
C541 C 0.11047 0.53626 0.38952 0.0
O542 O 0.09594 0.60308 0.46125 0.0
O543 O 0.08504 0.58735 0.50902 0.0
C544 C 0.06704 0.46678 0.62438 0.0
O545 O 0.08434 0.48977 0.63653 0.0
C546 C 0.00874 0.4445 0.43459 0.0
O547 O 0.02632 0.46988 0.43907 0.0
Zn548 Zn 0.47022 0.98629 0.4531 0.0
Zn549 Zn 0.45411 0.06102 0.46187 0.0
O550 O 0.49048 0.02955 0.45388 0.0
H551 H 0.50763 0.03226 0.43842 0.0
C552 C 0.45405 0.92571 0.53282 0.0
O553 O 0.48066 0.9296 0.51574 0.0
Zn554 Zn 0.59485 0.06408 0.55461 0.0
Zn555 Zn 0.60382 0.98938 0.56495 0.0
O556 O 0.56951 0.02433 0.56091 0.0
H557 H 0.54661 0.02255 0.5665 0.0
Zn558 Zn 0.47727 0.98227 0.57063 0.0
O559 O 0.48392 0.02206 0.54462 0.0
Zn560 Zn 0.48073 0.0592 0.57447 0.0
H561 H 0.49464 0.02237 0.52426 0.0
Zn562 Zn 0.56395 0.99706 0.43349 0.0
O563 O 0.56251 0.03164 0.46703 0.0
H564 H 0.55506 0.0284 0.48844 0.0
Zn565 Zn 0.56159 0.07269 0.44349 0.0
C566 C 0.58371 0.94122 0.472 0.0
O567 O 0.56524 0.95443 0.49379 0.0
O568 O 0.42255 0.99042 0.43777 0.0
O569 O 0.41194 0.04148 0.44439 0.0
O570 O 0.64797 0.00762 0.58037 0.0
O571 O 0.64125 0.05894 0.57211 0.0
O572 O 0.46993 0.99258 0.61732 0.0
O573 O 0.46603 0.0448 0.61816 0.0
C574 C 0.4934 0.10685 0.43091 0.0
O575 O 0.57583 0.01411 0.38922 0.0
O576 O 0.57727 0.06542 0.39892 0.0
O577 O 0.58916 0.94743 0.5865 0.0
C578 C 0.40325 0.01403 0.43547 0.0
O579 O 0.49899 0.95125 0.43172 0.0
C580 C 0.54404 0.10225 0.58518 0.0
O581 O 0.44789 0.9448 0.55522 0.0
C582 C 0.65849 0.03574 0.58196 0.0
O583 O 0.58665 0.95458 0.44534 0.0
C584 C 0.44116 0.09096 0.52734 0.0
O585 O 0.4635 0.10135 0.4374 0.0
O586 O 0.51464 0.08816 0.44259 0.0
C587 C 0.46434 0.01819 0.632 0.0
O588 O 0.57444 0.09995 0.57869 0.0
O589 O 0.52562 0.0794 0.57738 0.0
C590 C 0.60199 0.09877 0.49292 0.0
O591 O 0.44861 0.09044 0.55653 0.0
O592 O 0.45368 0.07015 0.50919 0.0
C593 C 0.58108 0.04219 0.38023 0.0
O594 O 0.59245 0.10294 0.46465 0.0
O595 O 0.59054 0.07589 0.50859 0.0
C596 C 0.55912 0.93941 0.5869 0.0
O597 O 0.53738 0.95731 0.5726 0.0
C598 C 0.48713 0.92542 0.42195 0.0
O599 O 0.4557 0.91995 0.42608 0.0
H600 H 0.20142 0.18694 0.55792 0.0
H601 H 0.15439 0.24361 0.48642 0.0
H602 H 0.11733 0.20062 0.47376 0.0
H603 H 0.1018 0.14548 0.47952 0.0
H604 H 0.1495 0.088 0.54961 0.0
H605 H 0.18264 0.13269 0.56662 0.0
C606 C 0.18282 0.18988 0.5398 0.0
C607 C 0.18073 0.2183 0.52304 0.0
C608 C 0.16186 0.16491 0.53233 0.0
C609 C 0.1563 0.22206 0.49986 0.0
C610 C 0.13528 0.19741 0.49241 0.0
C611 C 0.11927 0.14288 0.49871 0.0
C612 C 0.1232 0.11364 0.51351 0.0
C613 C 0.1384 0.16853 0.50795 0.0
C614 C 0.14565 0.11049 0.53844 0.0
C615 C 0.16482 0.13595 0.54788 0.0
H616 H 0.81563 0.16434 0.4721 0.0
H617 H 0.86361 0.24578 0.51073 0.0
H618 H 0.91388 0.21486 0.51926 0.0
H619 H 0.94155 0.16309 0.52119 0.0
H620 H 0.89129 0.08153 0.48614 0.0
H621 H 0.84448 0.11402 0.47035 0.0
C622 C 0.83718 0.17531 0.48229 0.0
C623 C 0.83588 0.20701 0.49139 0.0
C624 C 0.86557 0.15739 0.48743 0.0
C625 C 0.86409 0.22129 0.50378 0.0
C626 C 0.89271 0.20362 0.50871 0.0
C627 C 0.92067 0.15274 0.50922 0.0
C628 C 0.92014 0.12022 0.50363 0.0
C629 C 0.89341 0.17146 0.50135 0.0
C630 C 0.89286 0.10672 0.48887 0.0
C631 C 0.86586 0.1252 0.48053 0.0
H632 H 0.85012 0.84618 0.49108 0.0
H633 H 0.7701 0.87566 0.55138 0.0
H634 H 0.80395 0.91697 0.57367 0.0
H635 H 0.85545 0.94549 0.57554 0.0
H636 H 0.93684 0.91605 0.5171 0.0
H637 H 0.90342 0.87379 0.49485 0.0
C638 C 0.8403 0.86142 0.50937 0.0
C639 C 0.80746 0.85809 0.5192 0.0
C640 C 0.86007 0.88517 0.52238 0.0
C641 C 0.79505 0.87811 0.54287 0.0
C642 C 0.81442 0.90168 0.55577 0.0
C643 C 0.86597 0.92985 0.55794 0.0
C644 C 0.8985 0.934 0.54791 0.0
C645 C 0.84679 0.90562 0.5455 0.0
C646 C 0.9118 0.91335 0.52525 0.0
C647 C 0.8927 0.8892 0.5125 0.0
H648 H 0.22599 0.84637 0.50513 0.0
H649 H 0.15658 0.8153 0.57537 0.0
H650 H 0.12056 0.85963 0.56299 0.0
H651 H 0.10728 0.90525 0.52988 0.0
H652 H 0.17775 0.93715 0.46105 0.0
H653 H 0.21529 0.89481 0.47589 0.0
C654 C 0.20338 0.84963 0.5183 0.0
C655 C 0.19388 0.82732 0.5409 0.0
C656 C 0.18291 0.87524 0.51125 0.0
C657 C 0.16419 0.83177 0.55739 0.0
C658 C 0.14363 0.85718 0.55043 0.0
C659 C 0.13094 0.90302 0.51828 0.0
C660 C 0.13956 0.924 0.49414 0.0
C661 C 0.15244 0.87868 0.52695 0.0
C662 C 0.17048 0.92119 0.47964 0.0
C663 C 0.19194 0.89694 0.48803 0.0
H664 H 0.50551 0.16873 0.21228 0.0
H665 H 0.56357 0.25002 0.18911 0.0
H666 H 0.58303 0.22422 0.14121 0.0
H667 H 0.58348 0.17893 0.1058 0.0
H668 H 0.52737 0.0966 0.12941 0.0
H669 H 0.50759 0.12233 0.17754 0.0
C670 C 0.52282 0.18061 0.19702 0.0
C671 C 0.53291 0.21135 0.20425 0.0
C672 C 0.53424 0.16549 0.1696 0.0
C673 C 0.55497 0.22656 0.1839 0.0
C674 C 0.56625 0.21178 0.15656 0.0
C675 C 0.56692 0.16658 0.12145 0.0
C676 C 0.55689 0.13594 0.11404 0.0
C677 C 0.55592 0.18135 0.14911 0.0
C678 C 0.53556 0.12019 0.13466 0.0
C679 C 0.52421 0.1349 0.16215 0.0
H680 H 0.83334 0.48432 0.2344 0.0
H681 H 0.78475 0.5662 0.19683 0.0
H682 H 0.8348 0.58089 0.16853 0.0
H683 H 0.88903 0.56584 0.14822 0.0
H684 H 0.93565 0.48095 0.18164 0.0
H685 H 0.89032 0.47234 0.21838 0.0
C686 C 0.83419 0.50574 0.2206 0.0
C687 C 0.80576 0.52424 0.2175 0.0
C688 C 0.86263 0.51332 0.20352 0.0
C689 C 0.8066 0.55176 0.19938 0.0
C690 C 0.8351 0.56005 0.18318 0.0
C691 C 0.88974 0.54597 0.16422 0.0
C692 C 0.9155 0.52395 0.1621 0.0
C693 C 0.86287 0.5404 0.18417 0.0
C694 C 0.91594 0.49812 0.18273 0.0
C695 C 0.88994 0.49309 0.2036 0.0
H696 H 0.58605 0.80663 0.15371 0.0
H697 H 0.51521 0.84112 0.22138 0.0
H698 H 0.502 0.88522 0.18698 0.0
H699 H 0.50654 0.91104 0.13562 0.0
H700 H 0.57654 0.87633 0.06718 0.0
H701 H 0.59416 0.83547 0.10394 0.0
C702 C 0.56794 0.82398 0.16096 0.0
C703 C 0.55159 0.82054 0.18998 0.0
C704 C 0.56009 0.84912 0.14084 0.0
C705 C 0.52843 0.84338 0.19931 0.0
C706 C 0.52064 0.86849 0.17954 0.0
C707 C 0.52591 0.89478 0.12885 0.0
C708 C 0.5398 0.89646 0.09853 0.0
C709 C 0.53574 0.87118 0.14996 0.0
C710 C 0.56518 0.87542 0.09029 0.0
C711 C 0.57524 0.85196 0.11126 0.0
H712 H 0.25148 0.51096 0.17812 0.0
H713 H 0.25057 0.61094 0.16331 0.0
H714 H 0.2179 0.60417 0.11515 0.0
H715 H 0.18097 0.57066 0.08427 0.0
H716 H 0.1805 0.47057 0.10077 0.0
H717 H 0.22322 0.47635 0.14054 0.0
C718 C 0.24494 0.53106 0.16366 0.0
C719 C 0.25288 0.56136 0.17404 0.0
C720 C 0.22569 0.52697 0.13656 0.0
C721 C 0.24457 0.58743 0.15547 0.0
C722 C 0.22574 0.58355 0.12816 0.0
C723 C 0.19085 0.54997 0.0959 0.0
C724 C 0.17684 0.52036 0.09017 0.0
C725 C 0.21481 0.55355 0.11943 0.0
C726 C 0.19044 0.49374 0.10499 0.0
C727 C 0.21474 0.49702 0.12797 0.0
H728 H 0.47728 0.82986 0.81084 0.0
H729 H 0.57767 0.85839 0.79784 0.0
H730 H 0.57249 0.8959 0.84156 0.0
H731 H 0.53946 0.91998 0.88359 0.0
H732 H 0.43792 0.89347 0.89484 0.0
H733 H 0.44326 0.85603 0.85139 0.0
C734 C 0.49793 0.84427 0.81784 0.0
C735 C 0.52789 0.84137 0.80175 0.0
C736 C 0.49449 0.86617 0.84241 0.0
C737 C 0.5545 0.86032 0.81031 0.0
C738 C 0.5515 0.88171 0.83515 0.0
C739 C 0.51847 0.90607 0.87649 0.0
C740 C 0.48847 0.90924 0.89265 0.0
C741 C 0.52162 0.88479 0.85138 0.0
C742 C 0.46136 0.89136 0.88289 0.0
C743 C 0.4644 0.86987 0.85812 0.0
H744 H 0.2281 0.58932 0.82019 0.0
H745 H 0.22158 0.49592 0.78167 0.0
H746 H 0.1676 0.48916 0.8063 0.0
H747 H 0.12535 0.50793 0.84336 0.0
H748 H 0.13122 0.60205 0.88087 0.0
H749 H 0.18178 0.61081 0.85133 0.0
C750 C 0.21451 0.56772 0.81694 0.0
C751 C 0.22863 0.54298 0.7996 0.0
C752 C 0.18342 0.56419 0.83088 0.0
C753 C 0.21098 0.51515 0.79511 0.0
C754 C 0.18023 0.5113 0.80918 0.0
C755 C 0.1373 0.5306 0.84456 0.0
C756 C 0.12471 0.55411 0.86468 0.0
C757 C 0.16658 0.5354 0.82775 0.0
C758 C 0.14031 0.58348 0.86564 0.0
C759 C 0.16946 0.58844 0.84897 0.0
H760 H 0.51976 0.19689 0.81271 0.0
H761 H 0.42313 0.21139 0.85123 0.0
H762 H 0.43275 0.16908 0.88994 0.0
H763 H 0.47172 0.13117 0.91563 0.0
H764 H 0.5683 0.11872 0.87484 0.0
H765 H 0.55569 0.15678 0.83434 0.0
C766 C 0.50072 0.19039 0.82937 0.0
C767 C 0.47095 0.20687 0.82948 0.0
C768 C 0.50661 0.16662 0.85136 0.0
C769 C 0.44632 0.19877 0.85109 0.0
C770 C 0.45187 0.1747 0.87312 0.0
C771 C 0.48967 0.13647 0.89754 0.0
C772 C 0.52117 0.12255 0.89875 0.0
C773 C 0.48233 0.15885 0.87394 0.0
C774 C 0.5441 0.12945 0.87495 0.0
C775 C 0.53697 0.15126 0.85163 0.0
H776 H 0.75934 0.53361 0.86364 0.0
H777 H 0.80093 0.45497 0.81306 0.0
H778 H 0.84676 0.45258 0.85045 0.0
H779 H 0.87589 0.47432 0.89548 0.0
H780 H 0.83766 0.55609 0.94377 0.0
H781 H 0.7891 0.55567 0.90945 0.0
C782 C 0.77837 0.51583 0.86115 0.0
C783 C 0.77694 0.49432 0.83598 0.0
C784 C 0.80498 0.51519 0.88221 0.0
C785 C 0.80176 0.47166 0.83238 0.0
C786 C 0.82782 0.4703 0.85371 0.0
C787 C 0.85675 0.49183 0.89893 0.0
C788 C 0.86021 0.51506 0.92235 0.0
C789 C 0.82977 0.49211 0.8785 0.0
C790 C 0.83546 0.53789 0.926 0.0
C791 C 0.80781 0.53771 0.90634 0.0
H792 H 0.69704 0.72405 0.97632 0.0
H793 H 0.75033 0.69155 0.05788 0.0
H794 H 0.70984 0.64945 0.0656 0.0
H795 H 0.65792 0.62357 0.04961 0.0
H796 H 0.60574 0.65763 0.96752 0.0
H797 H 0.64698 0.69795 0.95974 0.0
C798 C 0.69989 0.70743 0.99556 0.0
C799 C 0.72635 0.71046 0.01647 0.0
C800 C 0.67652 0.68404 -6e-05 0.0
C801 C 0.73011 0.6892 0.04144 0.0
C802 C 0.70688 0.66544 0.04591 0.0
C803 C 0.65556 0.63994 0.03015 0.0
C804 C 0.62874 0.63769 0.00923 0.0
C805 C 0.6797 0.66294 0.02551 0.0
C806 C 0.62615 0.65881 0.9839 0.0
C807 C 0.64973 0.68185 0.97937 0.0
H808 H 0.26545 0.68766 0.00901 0.0
H809 H 0.31061 0.74171 0.08323 0.0
H810 H 0.35687 0.70439 0.08479 0.0
H811 H 0.38439 0.65645 0.06439 0.0
H812 H 0.33951 0.60454 0.98842 0.0
H813 H 0.29232 0.64034 0.98899 0.0
C814 C 0.2853 0.69114 0.02574 0.0
C815 C 0.28453 0.71713 0.04626 0.0
C816 C 0.31143 0.66967 0.02653 0.0
C817 C 0.31078 0.72186 0.0672 0.0
C818 C 0.337 0.70042 0.06825 0.0
C819 C 0.36387 0.65269 0.0485 0.0
C820 C 0.36497 0.6277 0.02674 0.0
C821 C 0.33747 0.67412 0.04813 0.0
C822 C 0.33886 0.62345 0.00557 0.0
C823 C 0.31209 0.64402 0.00572 0.0
H824 H 0.32073 0.31954 0.06057 0.0
H825 H 0.30586 0.32577 0.96005 0.0
H826 H 0.35641 0.35598 0.95452 0.0
H827 H 0.40063 0.38573 0.97892 0.0
H828 H 0.41395 0.38291 0.08006 0.0
H829 H 0.36855 0.34595 0.08472 0.0
C830 C 0.32908 0.32705 0.03748 0.0
C831 C 0.30983 0.32073 0.01073 0.0
C832 C 0.35761 0.34526 0.03466 0.0
C833 C 0.32044 0.33063 0.98088 0.0
C834 C 0.34921 0.34792 0.97776 0.0
C835 C 0.39399 0.37673 0.00199 0.0
C836 C 0.41039 0.38748 0.02912 0.0
C837 C 0.36738 0.3562 0.0046 0.0
C838 C 0.40153 0.37532 0.05877 0.0
C839 C 0.3755 0.35421 0.06149 0.0
H840 H 0.75744 0.33205 0.97546 0.0
H841 H 0.74425 0.30653 0.07297 0.0
H842 H 0.70551 0.35018 0.08028 0.0
H843 H 0.6699 0.39066 0.05697 0.0
H844 H 0.6794 0.41291 0.95804 0.0
H845 H 0.72532 0.37605 0.95329 0.0
C846 C 0.74659 0.33664 0.99842 0.0
C847 C 0.75353 0.31637 0.02369 0.0
C848 C 0.72344 0.36101 0.00207 0.0
C849 C 0.7391 0.32201 0.05327 0.0
C850 C 0.71693 0.34684 0.05739 0.0
C851 C 0.68257 0.38805 0.03458 0.0
C852 C 0.67109 0.40434 0.00787 0.0
C853 C 0.7081 0.36586 0.0317 0.0
C854 C 0.68762 0.40049 0.97893 0.0
C855 C 0.7138 0.3793 0.97614 0.0
H856 H 0.96973 0.66896 0.70822 0.0
H857 H 0.04302 0.73768 0.68471 0.0
H858 H 0.05512 0.7097 0.63537 0.0
H859 H 0.04797 0.66316 0.60155 0.0
H860 H 0.97675 0.5936 0.62702 0.0
H861 H 0.95973 0.6248 0.67247 0.0
C862 C 0.98836 0.67775 0.69225 0.0
C863 C 0.00596 0.70488 0.70021 0.0
C864 C 0.99509 0.66162 0.66413 0.0
C865 C 0.02941 0.71663 0.67906 0.0
C866 C 0.03629 0.70067 0.65093 0.0
C867 C 0.02826 0.65518 0.61673 0.0
C868 C 0.01295 0.62626 0.61057 0.0
C869 C 0.01969 0.67281 0.64354 0.0
C870 C 0.98771 0.61617 0.63049 0.0
C871 C 0.97858 0.63377 0.65689 0.0
H872 H 0.38023 0.9751 0.74569 0.0
H873 H 0.34216 0.06915 0.73518 0.0
H874 H 0.38773 0.08231 0.70009 0.0
H875 H 0.43072 0.06344 0.66413 0.0
H876 H 0.4657 0.96781 0.67168 0.0
H877 H 0.42963 0.95911 0.71667 0.0
C878 C 0.38267 0.9988 0.73666 0.0
C879 C 0.35783 0.02105 0.74257 0.0
C880 C 0.40807 0.00572 0.71549 0.0
C881 C 0.36098 0.05163 0.73059 0.0
C882 C 0.38688 0.05906 0.71041 0.0
C883 C 0.43121 0.04101 0.67621 0.0
C884 C 0.45026 0.01612 0.66409 0.0
C885 C 0.40947 0.03576 0.70134 0.0
C886 C 0.4508 0.98723 0.68019 0.0
C887 C 0.43008 0.98217 0.70587 0.0
H888 H 0.03921 0.35944 0.72194 0.0
H889 H 0.97405 0.32911 0.64751 0.0
H890 H 0.98811 0.37541 0.61657 0.0
H891 H 0.02152 0.42277 0.60939 0.0
H892 H 0.08437 0.45405 0.68516 0.0
H893 H 0.06765 0.40946 0.71729 0.0
C894 C 0.02731 0.36323 0.69935 0.0
C895 C 0.00584 0.34053 0.68702 0.0
C896 C 0.03515 0.39005 0.68186 0.0
C897 C 0.99122 0.3458 0.65735 0.0
C898 C -0.00089 0.37236 0.63968 0.0
C899 C 0.03139 0.41991 0.63301 0.0
C900 C 0.05451 0.44141 0.6447 0.0
C901 C 0.02157 0.39429 0.65144 0.0
C902 C 0.06669 0.43773 0.67552 0.0
C903 C 0.05721 0.41219 0.6939 0.0
H904 H 0.75791 0.02299 0.69224 0.0
H905 H 0.71229 0.11105 0.71739 0.0
H906 H 0.68757 0.11483 0.66484 0.0
H907 H 0.67021 0.08787 0.61668 0.0
H908 H 0.71031 0.99649 0.59438 0.0
H909 H 0.74673 0.99955 0.64017 0.0
C910 C 0.74351 0.04349 0.68568 0.0
C911 C 0.73681 0.06672 0.7084 0.0
C912 C 0.72809 0.04466 0.65601 0.0
C913 C 0.7177 0.09297 0.70008 0.0
C914 C 0.70345 0.095 0.67016 0.0
C915 C 0.68775 0.06911 0.62115 0.0
C916 C 0.6873 0.04183 0.60236 0.0
C917 C 0.70717 0.07024 0.64853 0.0
C918 C 0.71002 0.01764 0.60864 0.0
C919 C 0.73066 0.01927 0.63498 0.0
H920 H 0.06967 0.35933 0.32823 0.0
H921 H 0.98303 0.30503 0.34739 0.0
H922 H 0.96927 0.33979 0.39181 0.0
H923 H 0.97913 0.38881 0.4212 0.0
H924 H 0.06608 0.44297 0.40133 0.0
H925 H 0.08271 0.40485 0.36133 0.0
C926 C 0.04806 0.35492 0.34252 0.0
C927 C 0.02717 0.33002 0.33463 0.0
C928 C 0.04029 0.37506 0.36763 0.0
C929 C -0.00059 0.32412 0.35326 0.0
C930 C 0.99149 0.34408 0.37844 0.0
C931 C 0.00195 0.39206 0.40842 0.0
C932 C 0.02107 0.41898 0.41393 0.0
C933 C 0.01131 0.37013 0.38527 0.0
C934 C 0.05075 0.42263 0.39742 0.0
C935 C 0.06026 0.40088 0.37446 0.0
H936 H 0.67493 0.0356 0.26432 0.0
H937 H 0.69273 0.13066 0.29423 0.0
H938 H 0.64465 0.12895 0.32892 0.0
H939 H 0.60553 0.09699 0.35806 0.0
H940 H 0.59229 0.99957 0.33281 0.0
H941 H 0.62999 0.00571 0.28848 0.0
C942 C 0.66739 0.05623 0.27761 0.0
C943 C 0.68692 0.08325 0.27689 0.0
C944 C 0.64097 0.05438 0.29874 0.0
C945 C 0.67767 0.10977 0.29448 0.0
C946 C 0.65045 0.10865 0.31445 0.0
C947 C 0.61025 0.07723 0.34248 0.0
C948 C 0.59676 0.04765 0.34924 0.0
C949 C 0.63306 0.08053 0.31797 0.0
C950 C 0.6028 0.02247 0.32848 0.0
C951 C 0.62446 0.02592 0.30317 0.0
H952 H 0.01606 0.72613 0.36872 0.0
H953 H 0.06719 0.67313 0.29666 0.0
H954 H 0.06495 0.62621 0.32984 0.0
H955 H 0.0417 0.59905 0.37673 0.0
H956 H 0.99161 0.65393 0.44771 0.0
H957 H 0.00147 0.70177 0.41799 0.0
C958 C 0.02798 0.70481 0.36048 0.0
C959 C 0.04154 0.70331 0.32997 0.0
C960 C 0.02662 0.67814 0.37954 0.0
C961 C 0.05596 0.6749 0.31977 0.0
C962 C 0.05482 0.64806 0.3388 0.0
C963 C 0.03384 0.62166 0.38591 0.0
C964 C 0.01541 0.62317 0.41391 0.0
C965 C 0.03918 0.64917 0.36832 0.0
C966 C 0.00513 0.65234 0.42578 0.0
C967 C 0.01083 0.67967 0.40885 0.0
H968 H 0.28148 0.02493 0.34463 0.0
H969 H 0.30981 0.92935 0.32469 0.0
H970 H 0.35056 0.93099 0.36738 0.0
H971 H 0.38128 0.96128 0.40641 0.0
H972 H 0.35595 0.05855 0.42338 0.0
H973 H 0.31043 0.05453 0.38605 0.0
C974 C 0.29628 0.00438 0.35015 0.0
C975 C 0.29281 0.97698 0.33202 0.0
C976 C 0.32017 0.00591 0.37395 0.0
C977 C 0.31224 0.95055 0.33865 0.0
C978 C 0.33546 0.95156 0.36292 0.0
C979 C 0.36551 0.98152 0.40245 0.0
C980 C 0.37221 0.01023 0.41763 0.0
C981 C 0.3401 0.97935 0.38022 0.0
C982 C 0.35143 0.03615 0.41207 0.0
C983 C 0.32548 0.03394 0.39058 0.0
H984 H 0.09512 0.17781 0.34117 0.0
H985 H -3e-05 0.19565 0.29977 0.0
H986 H 0.97511 0.15774 0.3356 0.0
H987 H 0.9798 0.12209 0.38055 0.0
H988 H 0.07485 0.10195 0.42087 0.0
H989 H 0.10049 0.13808 0.38354 0.0
C990 C 0.069 0.17306 0.33982 0.0
C991 C 0.04939 0.18957 0.31799 0.0
C992 C 0.05487 0.15109 0.36045 0.0
C993 C 0.01563 0.18322 0.31629 0.0
C994 C 0.00137 0.16164 0.33688 0.0
C995 C 0.00618 0.12548 0.38123 0.0
C996 C 0.02532 0.10983 0.40413 0.0
C997 C 0.02067 0.14587 0.35938 0.0
C998 C 0.05949 0.11406 0.40403 0.0
C999 C 0.07414 0.13469 0.38257 0.0
H1000 H 0.79415 0.09854 0.33007 0.0
H1001 H 0.81697 0.01706 0.27313 0.0
H1002 H 0.85456 0.99801 0.3136 0.0
H1003 H 0.88096 0.00438 0.3646 0.0
H1004 H 0.85971 0.08606 0.42174 0.0
H1005 H 0.82023 0.10443 0.38226 0.0
C1006 C 0.8074 0.07664 0.32655 0.0
C1007 C 0.80307 0.05949 0.29844 0.0
C1008 C 0.82863 0.06551 0.35017 0.0
C1009 C 0.82046 0.03118 0.29415 0.0
C1010 C 0.84161 0.02 0.31748 0.0
C1011 C 0.86744 0.02603 0.36877 0.0
C1012 C 0.87325 0.04378 0.39623 0.0
C1013 C 0.84577 0.03693 0.34557 0.0
C1014 C 0.85556 0.07184 0.40096 0.0
C1015 C 0.83324 0.08251 0.37823 0.0
H1016 H 0.04368 0.84556 0.28963 0.0
H1017 H 0.98102 0.79154 0.3507 0.0
H1018 H 0.96801 0.83833 0.38161 0.0
H1019 H 0.97493 0.89415 0.39198 0.0
H1020 H 0.03688 0.94948 0.33131 0.0
H1021 H 0.05015 0.90275 0.29999 0.0
C1022 C 0.02697 0.84431 0.30952 0.0
C1023 C 0.01331 0.81529 0.31797 0.0
C1024 C 0.01982 0.8714 0.32753 0.0
C1025 C 0.99187 0.8137 0.34391 0.0
C1026 C 0.98449 0.84039 0.36163 0.0
C1027 C 0.99147 0.89606 0.372 0.0
C1028 C 0.00502 0.92529 0.36417 0.0
C1029 C -0.00148 0.86928 0.35385 0.0
C1030 C 0.02619 0.92725 0.33799 0.0
C1031 C 0.03368 0.90054 0.31996 0.0
H1032 H 0.17114 0.94459 0.30199 0.0
H1033 H 0.18536 0.04229 0.2806 0.0
H1034 H 0.13804 0.05653 0.31339 0.0
H1035 H 0.1022 0.04176 0.35774 0.0
H1036 H 0.08991 0.94366 0.38028 0.0
H1037 H 0.12621 0.92893 0.33712 0.0
C1038 C 0.16275 0.96879 0.30335 0.0
C1039 C 0.18153 0.99244 0.28927 0.0
C1040 C 0.13646 0.97678 0.32321 0.0
C1041 C 0.17094 0.02379 0.29119 0.0
C1042 C 0.14425 0.03192 0.31034 0.0
C1043 C 0.10686 0.01715 0.35271 0.0
C1044 C 0.09422 0.99395 0.37284 0.0
C1045 C 0.12829 0.00877 0.32807 0.0
C1046 C 0.0998 0.9621 0.36557 0.0
C1047 C 0.12067 0.95358 0.34088 0.0
H1048 H 0.03743 0.8711 0.74896 0.0
H1049 H 0.95402 0.82507 0.70712 0.0
H1050 H 0.95649 0.8604 0.66171 0.0
H1051 H 0.98489 0.90233 0.63231 0.0
H1052 H 0.0683 0.94797 0.67521 0.0
H1053 H 0.06302 0.91516 0.72173 0.0
C1054 C 0.01958 0.86912 0.73003 0.0
C1055 C 0.99574 0.84561 0.73127 0.0
C1056 C 0.02122 0.88936 0.70405 0.0
C1057 C 0.97261 0.84314 0.70674 0.0
C1058 C 0.97409 0.86324 0.68069 0.0
C1059 C 0.00171 0.90524 0.65194 0.0
C1060 C 0.02718 0.92733 0.64999 0.0
C1061 C -0.00133 0.88613 0.67884 0.0
C1062 C 0.04865 0.93095 0.6758 0.0
C1063 C 0.0457 0.91219 0.70252 0.0
H1064 H 0.24901 0.04947 0.70619 0.0
H1065 H 0.22491 0.95379 0.73042 0.0
H1066 H 0.18545 0.95203 0.68734 0.0
H1067 H 0.15961 0.97648 0.64163 0.0
H1068 H 0.18473 0.07141 0.61567 0.0
H1069 H 0.2237 0.07376 0.65956 0.0
C1070 C 0.23531 0.02811 0.70199 0.0
C1071 C 0.2402 0.00178 0.72163 0.0
C1072 C 0.21363 0.02673 0.67629 0.0
C1073 C 0.22145 0.97466 0.71621 0.0
C1074 C 0.19923 0.9734 0.69117 0.0
C1075 C 0.17392 0.9976 0.64514 0.0
C1076 C 0.16933 0.02369 0.62517 0.0
C1077 C 0.1956 0.99907 0.67076 0.0
C1078 C 0.18791 0.0509 0.63048 0.0
C1079 C 0.20994 0.05238 0.65578 0.0
H1080 H 0.04147 0.24266 0.65467 0.0
H1081 H 0.96602 0.19712 0.70902 0.0
H1082 H 0.97155 0.14999 0.67594 0.0
H1083 H -0.00076 0.12134 0.63168 0.0
H1084 H 0.07525 0.16826 0.57919 0.0
H1085 H 0.06718 0.21568 0.61056 0.0
C1086 C 0.0258 0.22262 0.65905 0.0
C1087 C 0.00306 0.22358 0.68404 0.0
C1088 C 0.02895 0.19596 0.63989 0.0
C1089 C 0.98378 0.19696 0.68998 0.0
C1090 C 0.98678 0.17011 0.67089 0.0
C1091 C 0.01338 0.14225 0.62677 0.0
C1092 C 0.03753 0.14154 0.60296 0.0
C1093 C 0.00929 0.16933 0.64569 0.0
C1094 C 0.05638 0.16842 0.59726 0.0
C1095 C 0.05195 0.19544 0.61532 0.0
H1096 H 0.88708 0.09074 0.75777 0.0
H1097 H 0.84204 0.9995 0.75307 0.0
H1098 H 0.87401 0.98685 0.70573 0.0
H1099 H 0.9123 0.00316 0.66388 0.0
H1100 H 0.9555 0.09536 0.66794 0.0
H1101 H 0.92693 0.10615 0.7174 0.0
C1102 C 0.88454 0.06798 0.74649 0.0
C1103 C 0.86222 0.04618 0.75868 0.0
C1104 C 0.90256 0.06112 0.71912 0.0
C1105 C 0.85904 0.01674 0.744 0.0
C1106 C 0.87726 0.00952 0.71692 0.0
C1107 C 0.91572 0.02547 0.67578 0.0
C1108 C 0.93586 0.04852 0.66215 0.0
C1109 C 0.89874 0.03173 0.704 0.0
C1110 C 0.93991 0.07736 0.67779 0.0
C1111 C 0.92361 0.08354 0.70609 0.0
H1112 H 0.37066 0.02945 0.21129 0.0
H1113 H 0.29171 0.99059 0.15606 0.0
H1114 H 0.32466 0.99613 0.10791 0.0
H1115 H 0.37442 0.01574 0.0815 0.0
H1116 H 0.4527 0.05523 0.13756 0.0
H1117 H 0.42165 0.04518 0.18563 0.0
C1118 C 0.36075 0.02208 0.18868 0.0
C1119 C 0.32883 0.01002 0.18701 0.0
C1120 C 0.37971 0.02539 0.16138 0.0
C1121 C 0.31623 1.00017 0.1578 0.0
C1122 C 0.33505 0.00332 0.13034 0.0
C1123 C 0.38488 0.02175 0.10426 0.0
C1124 C 0.41565 0.03657 0.10594 0.0
C1125 C 0.36663 0.01639 0.13182 0.0
C1126 C 0.42895 0.04407 0.1356 0.0
C1127 C 0.41117 0.03843 0.1631 0.0
H1128 H 0.07497 0.36883 0.24491 0.0
H1129 H 0.02083 0.30441 0.1863 0.0
H1130 H 0.0268 0.34016 0.14118 0.0
H1131 H 0.04552 0.39144 0.11935 0.0
H1132 H 0.09593 0.45606 0.18119 0.0
H1133 H 0.09215 0.41894 0.22431 0.0
C1134 C 0.06401 0.36263 0.22241 0.0
C1135 C 0.04697 0.33418 0.21922 0.0
C1136 C 0.06653 0.3836 0.19719 0.0
C1137 C 0.03411 0.32613 0.18947 0.0
C1138 C 0.03728 0.34672 0.16375 0.0
C1139 C 0.0556 0.39734 0.14229 0.0
C1140 C 0.07098 0.42661 0.14692 0.0
C1141 C 0.05308 0.37579 0.16747 0.0
C1142 C 0.08387 0.43387 0.17683 0.0
C1143 C 0.08187 0.41258 0.20158 0.0
H1144 H 0.74544 0.05083 0.12243 0.0
H1145 H 0.68893 0.00186 0.19265 0.0
H1146 H 0.64177 1.00002 0.15695 0.0
H1147 H 0.61838 0.00872 0.10492 0.0
H1148 H 0.6773 0.05024 0.03149 0.0
H1149 H 0.72148 0.05965 0.06943 0.0
C1150 C 0.7227 0.03985 0.1297 0.0
C1151 C 0.7204 0.02622 0.15972 0.0
C1152 C 0.69617 0.0379 0.10864 0.0
C1153 C 0.6911 0.012 0.16929 0.0
C1154 C 0.66418 0.01116 0.14904 0.0
C1155 C 0.64063 0.02034 0.09726 0.0
C1156 C 0.6444 0.02917 0.06554 0.0
C1157 C 0.66664 0.02358 0.11853 0.0
C1158 C 0.67364 0.04367 0.05591 0.0
C1159 C 0.69904 0.04871 0.0775 0.0
H1160 H 0.98734 0.69452 0.1922 0.0
H1161 H 0.07041 0.74243 0.15177 0.0
H1162 H 0.07781 0.69997 0.11357 0.0
H1163 H 0.06419 0.64746 0.09516 0.0
H1164 H 0.98204 0.59816 0.13519 0.0
H1165 H 0.97025 0.64323 0.16976 0.0
C1166 C 0.00677 0.69584 0.17476 0.0
C1167 C 0.02858 0.72146 0.17496 0.0
C1168 C 0.01108 0.67109 0.15297 0.0
C1169 C 0.05348 0.7229 0.15213 0.0
C1170 C 0.05776 0.69861 0.13036 0.0
C1171 C 0.04349 0.64662 0.11126 0.0
C1172 C 0.02424 0.61934 0.11297 0.0
C1173 C 0.03726 0.6723 0.13112 0.0
C1174 C 0.99715 0.61888 0.13345 0.0
C1175 C 0.99061 0.64457 0.15335 0.0
H1176 H 0.3854 0.94482 0.82365 0.0
H1177 H 0.30141 0.95512 0.88484 0.0
H1178 H 0.33626 0.97792 0.92602 0.0
H1179 H 0.3894 0.99894 0.9425 0.0
H1180 H 0.47151 0.99626 0.87848 0.0
H1181 H 0.43885 0.96632 0.84009 0.0
C1182 C 0.37499 0.95162 0.84625 0.0
C1183 C 0.34117 0.9482 0.8516 0.0
C1184 C 0.39476 0.96629 0.86889 0.0
C1185 C 0.3275 0.95756 0.88052 0.0
C1186 C 0.34733 0.97065 0.90388 0.0
C1187 C 0.40004 0.99137 0.92022 0.0
C1188 C 0.43251 0.99902 0.9131 0.0
C1189 C 0.38076 0.97572 0.89802 0.0
C1190 C 0.44639 0.99014 0.88414 0.0
C1191 C 0.42778 0.97316 0.86236 0.0
H1192 H 0.06353 0.34744 0.82197 0.0
H1193 H 0.97103 0.30176 0.83898 0.0
H1194 H 0.95664 0.34192 0.87826 0.0
H1195 H 0.96895 0.39202 0.90502 0.0
H1196 H 0.06022 0.43909 0.88508 0.0
H1197 H 0.07667 0.39628 0.84995 0.0
C1198 C 0.04036 0.34613 0.83455 0.0
C1199 C 0.01835 0.32177 0.82761 0.0
C1200 C 0.03202 0.36964 0.85647 0.0
C1201 C 0.98834 0.32035 0.84387 0.0
C1202 C 0.98011 0.34333 0.86629 0.0
C1203 C 0.99262 0.39272 0.89328 0.0
C1204 C 0.01332 0.41878 0.89762 0.0
C1205 C 0.00155 0.36837 0.8724 0.0
C1206 C 0.04378 0.41941 0.88206 0.0
C1207 C 0.05319 0.39495 0.86192 0.0
H1208 H 0.71509 0.06095 0.85602 0.0
H1209 H 0.66594 0.01607 0.77787 0.0
H1210 H 0.61911 0.00424 0.81154 0.0
H1211 H 0.59342 0.00378 0.86381 0.0
H1212 H 0.6442 0.04402 0.943 0.0
H1213 H 0.6886 0.06146 0.90843 0.0
C1214 C 0.69411 0.04857 0.84643 0.0
C1215 C 0.69399 0.03948 0.81449 0.0
C1216 C 0.66731 0.04154 0.86603 0.0
C1217 C 0.66649 0.02371 0.80228 0.0
C1218 C 0.63974 0.0168 0.82153 0.0
C1219 C 0.61396 0.01692 0.87327 0.0
C1220 C 0.61493 0.02413 0.90556 0.0
C1221 C 0.64002 0.02533 0.85346 0.0
C1222 C 0.64196 0.04032 0.91787 0.0
C1223 C 0.66775 0.04943 0.89821 0.0
H1224 H 0.03599 0.68705 0.82108 0.0
H1225 H 0.93154 0.70356 0.81584 0.0
H1226 H 0.92273 0.66834 0.86051 0.0
H1227 H 0.94422 0.63182 0.89917 0.0
H1228 H 0.04863 0.61592 0.90724 0.0
H1229 H 0.05823 0.65233 0.86343 0.0
C1230 C 0.01143 0.68301 0.83007 0.0
C1231 C 0.98435 0.69772 0.81552 0.0
C1232 C 0.00664 0.66296 0.856 0.0
C1233 C 0.9526 0.69257 0.82705 0.0
C1234 C 0.9476 0.67243 0.85243 0.0
C1235 C 0.96921 0.63634 0.89162 0.0
C1236 C 0.99571 0.62049 0.906 0.0
C1237 C 0.97438 0.65737 0.86686 0.0
C1238 C 0.02781 0.62709 0.89602 0.0
C1239 C 0.03326 0.64805 0.87108 0.0
H1240 H 0.16499 0.33461 0.03975 0.0
H1241 H 0.20886 0.33167 0.94719 0.0
H1242 H 0.16794 0.36904 0.92758 0.0
H1243 H 0.12369 0.40634 0.93806 0.0
H1244 H 0.08102 0.41222 0.03119 0.0
H1245 H 0.11703 0.36966 0.04923 0.0
C1246 C 0.16499 0.34177 0.01519 0.0
C1247 C 0.18972 0.33064 0.99484 0.0
C1248 C 0.14186 0.36396 0.00431 0.0
C1249 C 0.18995 0.34014 0.96314 0.0
C1250 C 0.16668 0.36152 0.95199 0.0
C1251 C 0.12196 0.39814 0.96224 0.0
C1252 C 0.1 0.41273 0.98333 0.0
C1253 C 0.14313 0.37422 0.97257 0.0
C1254 C 0.09786 0.40153 0.01448 0.0
C1255 C 0.11853 0.37724 0.02485 0.0
H1256 H 0.17289 0.69424 0.07696 0.0
H1257 H 0.14722 0.75312 0.9978 0.0
H1258 H 0.10494 0.71579 0.98196 0.0
H1259 H 0.08403 0.66197 0.98423 0.0
H1260 H 0.118 0.59974 0.05764 0.0
H1261 H 0.14824 0.64239 0.08205 0.0
C1262 C 0.15767 0.69913 0.05649 0.0
C1263 C 0.16379 0.72598 0.0381 0.0
C1264 C 0.13531 0.6765 0.04616 0.0
C1265 C 0.14318 0.73259 0.01231 0.0
C1266 C 0.11932 0.71099 0.00296 0.0
C1267 C 0.09765 0.65781 0.00586 0.0
C1268 C 0.09857 0.62751 0.0192 0.0
C1269 C 0.11659 0.6821 0.01866 0.0
C1270 C 0.11621 0.62271 0.04724 0.0
C1271 C 0.13386 0.64715 0.06102 0.0
H1272 H 0.28357 0.18529 0.96356 0.0
H1273 H 0.2839 0.19792 0.06459 0.0
H1274 H 0.33859 0.17393 0.06776 0.0
H1275 H 0.38592 0.14921 0.04179 0.0
H1276 H 0.38599 0.13712 0.94046 0.0
H1277 H 0.33165 0.16153 0.93739 0.0
C1278 C 0.29565 0.18262 0.98625 0.0
C1279 C 0.27984 0.19317 0.0138 0.0
C1280 C 0.32723 0.16929 0.98778 0.0
C1281 C 0.29567 0.18991 0.04307 0.0
C1282 C 0.32693 0.17629 0.04486 0.0
C1283 C 0.37433 0.15223 0.01892 0.0
C1284 C 0.39028 0.14152 0.99135 0.0
C1285 C 0.34297 0.16602 0.01734 0.0
C1286 C 0.37455 0.14541 0.96204 0.0
C1287 C 0.34334 0.15917 0.96027 0.0
H1288 H 0.88278 0.33881 0.94977 0.0
H1289 H 0.89996 0.28537 0.0346 0.0
H1290 H 0.92671 0.33066 0.05903 0.0
H1291 H 0.94182 0.38661 0.0573 0.0
H1292 H 0.9209 0.44026 0.97322 0.0
H1293 H 0.89941 0.39377 0.94736 0.0
C1294 C 0.89275 0.33703 0.97348 0.0
C1295 C 0.88936 0.30902 0.99042 0.0
C1296 C 0.90732 0.36326 0.98753 0.0
C1297 C 0.9022 0.30685 0.02115 0.0
C1298 C 0.91742 0.33273 0.03513 0.0
C1299 C 0.9328 0.38804 0.03325 0.0
C1300 C 0.93309 0.41693 0.01719 0.0
C1301 C 0.91957 0.36125 0.01873 0.0
C1302 C 0.92115 0.41839 0.98609 0.0
C1303 C 0.90872 0.39179 0.97127 0.0
H1304 H 0.68662 0.79753 0.97595 0.0
H1305 H 0.75618 0.85364 0.02748 0.0
H1306 H 0.71632 0.89731 0.02941 0.0
H1307 H 0.66076 0.91827 0.01787 0.0
H1308 H 0.59237 0.86176 0.96496 0.0
H1309 H 0.63254 0.81891 0.96268 0.0
C1310 C 0.69308 0.8195 0.98735 0.0
C1311 C 0.72404 0.82262 0.00162 0.0
C1312 C 0.67011 0.844 0.98854 0.0
C1313 C 0.73247 0.85102 0.01619 0.0
C1314 C 0.70961 0.87573 0.01752 0.0
C1315 C 0.65466 0.89645 0.00604 0.0
C1316 C 0.62362 0.89292 0.99181 0.0
C1317 C 0.67818 0.87226 0.00415 0.0
C1318 C 0.61611 0.86488 0.97607 0.0
C1319 C 0.63905 0.84048 0.9747 0.0
H1320 H 0.90977 0.74052 0.00661 0.0
H1321 H 0.83101 0.70116 0.95159 0.0
H1322 H 0.85492 0.6486 0.95752 0.0
H1323 H 0.89459 0.61305 0.98471 0.0
H1324 H 0.97197 0.6537 0.04072 0.0
H1325 H 0.95296 0.70633 0.02735 0.0
C1326 C 0.89816 0.72047 0.9955 0.0
C1327 C 0.86839 0.72456 0.97938 0.0
C1328 C 0.91188 0.69043 0.9992 0.0
C1329 C 0.85373 0.69853 0.96466 0.0
C1330 C 0.8674 0.66844 0.96802 0.0
C1331 C 0.90768 0.63351 0.99316 0.0
C1332 C 0.93436 0.62966 0.01389 0.0
C1333 C 0.89595 0.66394 0.98613 0.0
C1334 C 0.95115 0.65623 0.02494 0.0
C1335 C 0.94023 0.68633 0.01744 0.0
H1336 H 0.28472 0.88387 0.08855 0.0
H1337 H 0.26703 0.85442 0.99264 0.0
H1338 H 0.30945 0.89031 0.97383 0.0
H1339 H 0.35671 0.92429 0.98574 0.0
H1340 H 0.37482 0.95234 0.08222 0.0
H1341 H 0.32655 0.92363 0.09952 0.0
C1342 C 0.28979 0.88579 0.06348 0.0
C1343 C 0.27318 0.86632 0.0421 0.0
C1344 C 0.31438 0.90618 0.05293 0.0
C1345 C 0.27964 0.86909 0.00962 0.0
C1346 C 0.30398 0.88953 0.99886 0.0
C1347 C 0.34966 0.92476 0.01044 0.0
C1348 C 0.36979 0.93999 0.03271 0.0
C1349 C 0.32228 0.9074 0.02044 0.0
C1350 C 0.3601 0.94048 0.0646 0.0
C1351 C 0.33255 0.92391 0.07458 0.0
H1352 H 0.74586 0.20068 0.96638 0.0
H1353 H 0.75992 0.19459 0.06695 0.0
H1354 H 0.72247 0.14978 0.06947 0.0
H1355 H 0.68137 0.11678 0.04393 0.0
H1356 H 0.66539 0.12422 0.94338 0.0
H1357 H 0.70829 0.16382 0.9398 0.0
C1358 C 0.74114 0.18895 0.98863 0.0
C1359 C 0.75545 0.20041 0.01645 0.0
C1360 C 0.71913 0.16378 0.98989 0.0
C1361 C 0.74912 0.18572 0.04535 0.0
C1362 C 0.72768 0.16032 0.04676 0.0
C1363 C 0.68766 0.12662 0.02113 0.0
C1364 C 0.67 0.11775 0.99408 0.0
C1365 C 0.71189 0.14975 0.01932 0.0
C1366 C 0.6786 0.13061 0.96464 0.0
C1367 C 0.703 0.15342 0.96257 0.0
H1368 H 0.49602 0.70427 0.80413 0.0
H1369 H 0.59868 0.67928 0.80888 0.0
H1370 H 0.58741 0.6422 0.85149 0.0
H1371 H 0.54911 0.61965 0.88991 0.0
H1372 H 0.44672 0.64649 0.88714 0.0
H1373 H 0.45711 0.67993 0.84146 0.0
C1374 C 0.51578 0.69032 0.81418 0.0
C1375 C 0.54815 0.69434 0.8033 0.0
C1376 C 0.50923 0.66964 0.83935 0.0
C1377 C 0.57358 0.6765 0.81687 0.0
C1378 C 0.56717 0.65538 0.8413 0.0
C1379 C 0.52899 0.63264 0.87923 0.0
C1380 C 0.49721 0.63066 0.89221 0.0
C1381 C 0.5352 0.6522 0.85317 0.0
C1382 C 0.47148 0.64765 0.87786 0.0
C1383 C 0.47738 0.66682 0.85167 0.0
H1384 H 0.33056 0.57333 0.85531 0.0
H1385 H 0.37412 0.50493 0.79253 0.0
H1386 H 0.41439 0.49088 0.83295 0.0
H1387 H 0.43338 0.49401 0.88799 0.0
H1388 H 0.38868 0.56145 0.9512 0.0
H1389 H 0.35296 0.57991 0.90882 0.0
C1390 C 0.34906 0.55554 0.8504 0.0
C1391 C 0.3491 0.54003 0.82103 0.0
C1392 C 0.37181 0.54719 0.87395 0.0
C1393 C 0.37361 0.51741 0.81484 0.0
C1394 C 0.3965 0.50915 0.83806 0.0
C1395 C 0.41609 0.513 0.89242 0.0
C1396 C 0.41351 0.52605 0.9229 0.0
C1397 C 0.39526 0.52328 0.86799 0.0
C1398 C 0.39118 0.55086 0.92807 0.0
C1399 C 0.3706 0.56138 0.90384 0.0
H1400 H 0.44758 0.33569 0.82321 0.0
H1401 H 0.54566 0.30491 0.8004 0.0
H1402 H 0.56851 0.34432 0.8363 0.0
H1403 H 0.56005 0.38257 0.87955 0.0
H1404 H 0.46179 0.41414 0.90159 0.0
H1405 H 0.43957 0.37975 0.86065 0.0
C1406 C 0.47396 0.33854 0.82523 0.0
C1407 C 0.49497 0.31779 0.80889 0.0
C1408 C 0.48684 0.36088 0.84642 0.0
C1409 C 0.5291 0.3211 0.81224 0.0
C1410 C 0.54211 0.34331 0.83314 0.0
C1411 C 0.5338 0.38208 0.87521 0.0
C1412 C 0.51257 0.40039 0.89413 0.0
C1413 C 0.52117 0.36248 0.85129 0.0
C1414 C 0.47868 0.40005 0.88767 0.0
C1415 C 0.46592 0.38036 0.86423 0.0
H1416 H 0.66139 0.45599 0.83882 0.0
H1417 H 0.64665 0.54467 0.7919 0.0
H1418 H 0.59957 0.55617 0.82595 0.0
H1419 H 0.57119 0.54595 0.8761 0.0
H1420 H 0.59019 0.45935 0.92562 0.0
H1421 H 0.62624 0.44167 0.88335 0.0
C1422 C 0.64712 0.47735 0.83547 0.0
C1423 C 0.65762 0.49971 0.8134 0.0
C1424 C 0.62112 0.48434 0.85598 0.0
C1425 C 0.63894 0.52715 0.80882 0.0
C1426 C 0.6123 0.53389 0.82855 0.0
C1427 C 0.5826 0.52288 0.8772 0.0
C1428 C 0.5782 0.50403 0.90408 0.0
C1429 C 0.60446 0.51346 0.85335 0.0
C1430 C 0.59281 0.4741 0.90509 0.0
C1431 C 0.61382 0.46414 0.88105 0.0
H1432 H 0.47452 0.34689 0.2029 0.0
H1433 H 0.56831 0.3669 0.24576 0.0
H1434 H 0.58206 0.40171 0.2022 0.0
H1435 H 0.56974 0.42312 0.15016 0.0
H1436 H 0.47616 0.40512 0.10642 0.0
H1437 H 0.45973 0.37338 0.15218 0.0
C1438 C 0.49777 0.35917 0.20281 0.0
C1439 C 0.52057 0.35405 0.22744 0.0
C1440 C 0.50558 0.37943 0.17749 0.0
C1441 C 0.55046 0.3703 0.22706 0.0
C1442 C 0.55839 0.39019 0.20213 0.0
C1443 C 0.54557 0.41251 0.15075 0.0
C1444 C 0.52434 0.4161 0.12479 0.0
C1445 C 0.53648 0.39441 0.17695 0.0
C1446 C 0.49292 0.4027 0.12612 0.0
C1447 C 0.48366 0.38437 0.15221 0.0
H1448 H 0.65335 0.5028 0.21773 0.0
H1449 H 0.73017 0.45616 0.16495 0.0
H1450 H 0.69361 0.45107 0.11965 0.0
H1451 H 0.64391 0.47013 0.09182 0.0
H1452 H 0.56775 0.51675 0.14507 0.0
H1453 H 0.59915 0.51003 0.19365 0.0
C1454 C 0.66187 0.49054 0.1968 0.0
C1455 C 0.69495 0.48107 0.19445 0.0
C1456 C 0.6407 0.48766 0.17072 0.0
C1457 C 0.70524 0.46496 0.16703 0.0
C1458 C 0.68427 0.46182 0.14109 0.0
C1459 C 0.63364 0.47744 0.11431 0.0
C1460 C 0.60389 0.49426 0.11495 0.0
C1461 C 0.6525 0.47461 0.14208 0.0
C1462 C 0.5908 0.5039 0.14413 0.0
C1463 C 0.60892 0.5004 0.17186 0.0
H1464 H 0.58554 0.70949 0.16286 0.0
H1465 H 0.50659 0.69177 0.22825 0.0
H1466 H 0.48933 0.64672 0.19676 0.0
H1467 H 0.4922 0.61687 0.14723 0.0
H1468 H 0.57061 0.63408 0.08133 0.0
H1469 H 0.59294 0.67448 0.11652 0.0
C1470 C 0.56492 0.69538 0.17045 0.0
C1471 C 0.54721 0.70412 0.19776 0.0
C1472 C 0.55495 0.66957 0.15202 0.0
C1473 C 0.52075 0.68547 0.20751 0.0
C1474 C 0.5107 0.65985 0.18935 0.0
C1475 C 0.51461 0.62902 0.14091 0.0
C1476 C 0.52974 0.62261 0.1117 0.0
C1477 C 0.52697 0.65233 0.16109 0.0
C1478 C 0.5588 0.63832 0.10382 0.0
C1479 C 0.57131 0.66168 0.12381 0.0
H1480 H 0.37802 0.59762 0.20208 0.0
H1481 H 0.38651 0.50822 0.24916 0.0
H1482 H 0.41368 0.48577 0.20276 0.0
H1483 H 0.43437 0.49145 0.14928 0.0
H1484 H 0.42588 0.58041 0.10136 0.0
H1485 H 0.39976 0.60342 0.14791 0.0
C1486 C 0.38598 0.57327 0.20213 0.0
C1487 C 0.38038 0.55449 0.22886 0.0
C1488 C 0.4017 0.5606 0.17542 0.0
C1489 C 0.39085 0.52307 0.22885 0.0
C1490 C 0.40624 0.51025 0.20234 0.0
C1491 C 0.42697 0.51596 0.14883 0.0
C1492 C 0.43249 0.53428 0.12167 0.0
C1493 C 0.41173 0.52881 0.17554 0.0
C1494 C 0.42248 0.56588 0.12184 0.0
C1495 C 0.40732 0.57898 0.14849 0.0
H1496 H 0.81428 0.5759 0.71311 0.0
H1497 H 0.78009 0.48221 0.69343 0.0
H1498 H 0.83159 0.46995 0.66637 0.0
H1499 H 0.88391 0.48722 0.64462 0.0
H1500 H 0.91689 0.58204 0.66112 0.0
H1501 H 0.86876 0.59214 0.69417 0.0
C1502 C 0.81822 0.55281 0.70289 0.0
C1503 C 0.79338 0.53017 0.70483 0.0
C1504 C 0.84777 0.54602 0.6872 0.0
C1505 C 0.79872 0.50019 0.69188 0.0
C1506 C 0.82822 0.49311 0.67657 0.0
C1507 C 0.88109 0.50992 0.65599 0.0
C1508 C 0.90394 0.53393 0.65018 0.0
C1509 C 0.85268 0.516 0.67369 0.0
C1510 C 0.89969 0.56317 0.66514 0.0
C1511 C 0.87199 0.56906 0.68376 0.0
H1512 H 0.49633 0.84717 0.68536 0.0
H1513 H 0.59396 0.80775 0.68343 0.0
H1514 H 0.60883 0.84295 0.63999 0.0
H1515 H 0.59595 0.88983 0.6078 0.0
H1516 H 0.49771 0.92853 0.60965 0.0
H1517 H 0.48106 0.88869 0.64763 0.0
C1518 C 0.5205 0.84567 0.67465 0.0
C1519 C 0.54403 0.82493 0.68731 0.0
C1520 C 0.52892 0.86628 0.65013 0.0
C1521 C 0.5754 0.82328 0.67366 0.0
C1522 C 0.58398 0.84368 0.64914 0.0
C1523 C 0.57081 0.88926 0.61624 0.0
C1524 C 0.54829 0.9125 0.60637 0.0
C1525 C 0.56129 0.86608 0.63801 0.0
C1526 C 0.51563 0.91112 0.61704 0.0
C1527 C 0.50607 0.88835 0.63883 0.0
H1528 H 0.2662 0.57051 0.66934 0.0
H1529 H 0.27796 0.47019 0.65976 0.0
H1530 H 0.23235 0.46865 0.62233 0.0
H1531 H 0.18628 0.49488 0.59631 0.0
H1532 H 0.17322 0.59508 0.60618 0.0
H1533 H 0.22254 0.59767 0.63913 0.0
C1534 C 0.25904 0.5484 0.65873 0.0
C1535 C 0.2752 0.5204 0.66746 0.0
C1536 C 0.2325 0.54765 0.63743 0.0
C1537 C 0.26575 0.49198 0.65345 0.0
C1538 C 0.23965 0.49108 0.63213 0.0
C1539 C 0.19435 0.51739 0.60535 0.0
C1540 C 0.17578 0.54468 0.59909 0.0
C1541 C 0.22239 0.51864 0.62455 0.0
C1542 C 0.18695 0.57368 0.61068 0.0
C1543 C 0.21507 0.57515 0.62968 0.0
H1544 H 0.53114 0.23358 0.65266 0.0
H1545 H 0.44722 0.18974 0.69554 0.0
H1546 H 0.45509 0.14323 0.66216 0.0
H1547 H 0.48932 0.11288 0.62342 0.0
H1548 H 0.57292 0.15867 0.58136 0.0
H1549 H 0.56141 0.20609 0.61113 0.0
C1550 C 0.51432 0.21399 0.65441 0.0
C1551 C 0.48886 0.21512 0.67669 0.0
C1552 C 0.51904 0.18733 0.63523 0.0
C1553 C 0.46713 0.18958 0.67859 0.0
C1554 C 0.47169 0.16284 0.65954 0.0
C1555 C 0.5046 0.13342 0.62045 0.0
C1556 C 0.53229 0.13184 0.60046 0.0
C1557 C 0.49803 0.16111 0.63812 0.0
C1558 C 0.55178 0.15884 0.59691 0.0
C1559 C 0.54526 0.18615 0.61396 0.0
H1560 H 0.76972 0.45798 0.3763 0.0
H1561 H 0.76897 0.54856 0.33109 0.0
H1562 H 0.81431 0.56573 0.36481 0.0
H1563 H 0.85795 0.55283 0.40359 0.0
H1564 H 0.85713 0.46203 0.44891 0.0
H1565 H 0.80847 0.44748 0.41927 0.0
C1566 C 0.77923 0.48163 0.37417 0.0
C1567 C 0.76645 0.50174 0.35097 0.0
C1568 C 0.80517 0.49132 0.39363 0.0
C1569 C 0.77862 0.53247 0.3486 0.0
C1570 C 0.80461 0.5423 0.36786 0.0
C1571 C 0.84677 0.53011 0.40739 0.0
C1572 C 0.86168 0.5084 0.42806 0.0
C1573 C 0.81866 0.52163 0.38995 0.0
C1574 C 0.84664 0.47908 0.4328 0.0
C1575 C 0.81873 0.47065 0.41581 0.0
H1576 H 0.58848 0.84958 0.33794 0.0
H1577 H 0.50984 0.78225 0.33849 0.0
H1578 H 0.47821 0.81586 0.37444 0.0
H1579 H 0.4715 0.86604 0.40299 0.0
H1580 H 0.54944 0.93418 0.40007 0.0
H1581 H 0.58288 0.89851 0.3683 0.0
C1582 C 0.56454 0.84215 0.34623 0.0
C1583 C 0.55146 0.8136 0.33548 0.0
C1584 C 0.54633 0.86181 0.36645 0.0
C1585 C 0.52043 0.80418 0.34632 0.0
C1586 C 0.5023 0.82344 0.36683 0.0
C1587 C 0.49587 0.87303 0.39554 0.0
C1588 C 0.50797 0.90277 0.40413 0.0
C1589 C 0.51475 0.85258 0.37659 0.0
C1590 C 0.53966 0.91133 0.3943 0.0
C1591 C 0.55873 0.89101 0.37586 0.0
H1592 H 0.18988 0.5829 0.2708 0.0
H1593 H 0.26267 0.52114 0.31156 0.0
H1594 H 0.22369 0.50559 0.35259 0.0
H1595 H 0.16982 0.51072 0.37746 0.0
H1596 H 0.09806 0.57546 0.33963 0.0
H1597 H 0.13558 0.58847 0.29634 0.0
C1598 C 0.19706 0.56602 0.28872 0.0
C1599 C 0.22899 0.55316 0.28837 0.0
C1600 C 0.17471 0.55763 0.31243 0.0
C1601 C 0.23829 0.53151 0.31168 0.0
C1602 C 0.21599 0.52251 0.33494 0.0
C1603 C 0.16213 0.52732 0.35947 0.0
C1604 C 0.13109 0.54188 0.36146 0.0
C1605 C 0.18422 0.53548 0.33556 0.0
C1606 C 0.12179 0.56386 0.33842 0.0
C1607 C 0.14327 0.57137 0.31381 0.0
H1608 H 0.54576 0.19315 0.32031 0.0
H1609 H 0.4446 0.22374 0.32111 0.0
H1610 H 0.4337 0.19007 0.36667 0.0
H1611 H 0.45196 0.14929 0.4038 0.0
H1612 H 0.55369 0.12044 0.40506 0.0
H1613 H 0.56539 0.15596 0.36122 0.0
C1614 C 0.52142 0.19261 0.3307 0.0
C1615 C 0.49594 0.21079 0.31726 0.0
C1616 C 0.51539 0.17328 0.35703 0.0
C1617 C 0.46462 0.21014 0.33113 0.0
C1618 C 0.45836 0.19074 0.35705 0.0
C1619 C 0.4768 0.15089 0.39471 0.0
C1620 C 0.50175 0.13138 0.4072 0.0
C1621 C 0.48341 0.17182 0.36986 0.0
C1622 C 0.53384 0.13438 0.39541 0.0
C1623 C 0.54056 0.15488 0.3704 0.0
H1624 H 0.68568 0.84416 0.52606 0.0
H1625 H 0.70175 0.82748 0.42694 0.0
H1626 H 0.65439 0.86096 0.41392 0.0
H1627 H 0.61443 0.90149 0.43079 0.0
H1628 H 0.59897 0.91818 0.5302 0.0
H1629 H 0.63977 0.87802 0.54317 0.0
C1630 C 0.67803 0.84708 0.50168 0.0
C1631 C 0.69699 0.83351 0.47744 0.0
C1632 C 0.65138 0.86689 0.49447 0.0
C1633 C 0.68722 0.8375 0.44592 0.0
C1634 C 0.66044 0.85696 0.43851 0.0
C1635 C 0.61968 0.89601 0.45529 0.0
C1636 C 0.60424 0.91335 0.47952 0.0
C1637 C 0.64329 0.87286 0.46256 0.0
C1638 C 0.61076 0.9055 0.51113 0.0
C1639 C 0.63417 0.88255 0.51856 0.0
H1640 H 0.73771 0.15954 0.50293 0.0
H1641 H 0.67967 0.24523 0.50013 0.0
H1642 H 0.62992 0.21424 0.50276 0.0
H1643 H 0.60289 0.16215 0.49981 0.0
H1644 H 0.66176 0.07842 0.51048 0.0
H1645 H 0.71153 0.11002 0.51317 0.0
C1646 C 0.71474 0.17229 0.50426 0.0
C1647 C 0.71346 0.2053 0.50043 0.0
C1648 C 0.68608 0.15456 0.50761 0.0
C1649 C 0.68227 0.22001 0.50148 0.0
C1650 C 0.65348 0.20227 0.50349 0.0
C1651 C 0.62657 0.15107 0.50392 0.0
C1652 C 0.6289 0.11814 0.505 0.0
C1653 C 0.65511 0.16945 0.50562 0.0
C1654 C 0.6595 0.10378 0.51009 0.0
C1655 C 0.68796 0.12182 0.51114 0.0
H1656 H 0.86936 0.71307 0.44855 0.0
H1657 H 0.7938 0.69989 0.5185 0.0
H1658 H 0.82169 0.65243 0.53742 0.0
H1659 H 0.87009 0.61698 0.53669 0.0
H1660 H 0.94495 0.63012 0.46664 0.0
H1661 H 0.91483 0.67478 0.44456 0.0
C1662 C 0.85882 0.69952 0.46766 0.0
C1663 C 0.82971 0.71001 0.4822 0.0
C1664 C 0.87488 0.67217 0.47824 0.0
C1665 C 0.81616 0.69227 0.50686 0.0
C1666 C 0.83218 0.66518 0.51777 0.0
C1667 C 0.87938 0.62933 0.5162 0.0
C1668 C 0.90947 0.61993 0.50267 0.0
C1669 C 0.86187 0.65523 0.50401 0.0
C1670 C 0.92141 0.6362 0.47644 0.0
C1671 C 0.90436 0.66207 0.46426 0.0
H1672 H 0.36738 0.8119 0.48523 0.0
H1673 H 0.32454 0.82396 0.57755 0.0
H1674 H 0.36211 0.86729 0.58851 0.0
H1675 H 0.40632 0.90259 0.57134 0.0
H1676 H 0.45211 0.88793 0.48061 0.0
H1677 H 0.41446 0.84481 0.46955 0.0
C1678 C 0.36659 0.82387 0.50786 0.0
C1679 C 0.34337 0.81472 0.53059 0.0
C1680 C 0.38867 0.84841 0.51417 0.0
C1681 C 0.34248 0.83031 0.55982 0.0
C1682 C 0.36382 0.85523 0.56601 0.0
C1683 C 0.40804 0.89001 0.54911 0.0
C1684 C 0.43166 0.89895 0.52656 0.0
C1685 C 0.38687 0.86464 0.54328 0.0
C1686 C 0.43391 0.88193 0.49817 0.0
C1687 C 0.41242 0.85716 0.49187 0.0
H1688 H 0.1767 0.33233 0.56227 0.0
H1689 H 0.24087 0.33717 0.48145 0.0
H1690 H 0.21657 0.38751 0.46639 0.0
H1691 H 0.17326 0.42691 0.47299 0.0
H1692 H 0.10873 0.42276 0.55373 0.0
H1693 H 0.13734 0.37562 0.57238 0.0
C1694 C 0.1857 0.34483 0.54175 0.0
C1695 C 0.21043 0.33121 0.52293 0.0
C1696 C 0.17138 0.37363 0.53308 0.0
C1697 C 0.2221 0.34746 0.49644 0.0
C1698 C 0.20801 0.37606 0.48767 0.0
C1699 C 0.16559 0.41588 0.49482 0.0
C1700 C 0.13846 0.42788 0.51158 0.0
C1701 C 0.18203 0.38886 0.50531 0.0
C1702 C 0.12928 0.41371 0.54017 0.0
C1703 C 0.14559 0.38674 0.55081 0.0
H1704 H 0.33133 0.17794 0.46825 0.0
H1705 H 0.34941 0.22958 0.55417 0.0
H1706 H 0.39397 0.19335 0.56778 0.0
H1707 H 0.42494 0.14506 0.55711 0.0
H1708 H 0.40617 0.09268 0.47189 0.0
H1709 H 0.36511 0.13137 0.45581 0.0
C1710 C 0.34534 0.18141 0.48976 0.0
C1711 C 0.33704 0.20617 0.51026 0.0
C1712 C 0.3707 0.16035 0.49755 0.0
C1713 C 0.35529 0.21061 0.53804 0.0
C1714 C 0.38071 0.18986 0.54587 0.0
C1715 C 0.41203 0.14214 0.53489 0.0
C1716 C 0.41857 0.11577 0.51574 0.0
C1717 C 0.38816 0.16432 0.5261 0.0
C1718 C 0.40186 0.11267 0.48693 0.0
C1719 C 0.37817 0.13477 0.47785 0.0
H1720 H 0.77538 0.37258 0.51739 0.0
H1721 H 0.82283 0.33021 0.43672 0.0
H1722 H 0.87002 0.36476 0.44352 0.0
H1723 H 0.89949 0.40459 0.47475 0.0
H1724 H 0.85156 0.44651 0.5556 0.0
H1725 H 0.80308 0.41472 0.54629 0.0
C1726 C 0.79591 0.37122 0.50109 0.0
C1727 C 0.79572 0.3488 0.4768 0.0
C1728 C 0.82308 0.39092 0.50532 0.0
C1729 C 0.82241 0.34721 0.45577 0.0
C1730 C 0.84948 0.36691 0.45968 0.0
C1731 C 0.87836 0.4069 0.49019 0.0
C1732 C 0.87938 0.42773 0.51599 0.0
C1733 C 0.85037 0.38844 0.48476 0.0
C1734 C 0.85161 0.43063 0.5356 0.0
C1735 C 0.82379 0.41241 0.53035 0.0
H1736 H 0.22119 0.69607 0.50668 0.0
H1737 H 0.16909 0.72081 0.59167 0.0
H1738 H 0.13016 0.67799 0.58269 0.0
H1739 H 0.10691 0.63772 0.54668 0.0
H1740 H 0.15725 0.61721 0.45936 0.0
H1741 H 0.20073 0.65365 0.47318 0.0
C1742 C 0.20194 0.69137 0.52372 0.0
C1743 C 0.19819 0.71123 0.54992 0.0
C1744 C 0.17884 0.66774 0.5176 0.0
C1745 C 0.1726 0.70552 0.57146 0.0
C1746 C 0.15018 0.68124 0.56617 0.0
C1747 C 0.12765 0.64097 0.53101 0.0
C1748 C 0.12861 0.6251 0.50187 0.0
C1749 C 0.15236 0.66284 0.53871 0.0
C1750 C 0.15563 0.62957 0.4817 0.0
C1751 C 0.18063 0.65033 0.48961 0.0
loop_
_geom_bond_atom_site_label_1
_geom_bond_atom_site_label_2
_geom_bond_distance
_geom_bond_site_symmetry_2
_ccdc_geom_bond_type
H0 C5 0.930 . S
H1 C8 0.930 . S
H2 C10 0.930 . S
H3 C4 1.016 . S
C4 H3 1.016 . S
C4 N11 1.286 . S
C5 H0 0.930 . S
C5 C6 1.397 . S
C5 C7 1.361 . S
C6 C5 1.397 . S
C6 C10 1.390 . S
C7 C5 1.361 . S
C7 C8 1.393 . S
C7 N11 1.413 . S
C8 H1 0.930 . S
C8 C7 1.393 . S
C8 C9 1.399 . S
C9 C8 1.399 . S
C9 C10 1.381 . S
C10 H2 0.930 . S
C10 C6 1.390 . S
C10 C9 1.381 . S
N11 C4 1.286 . S
N11 C7 1.413 . S
H12 C17 0.930 . S
H13 C20 0.930 . S
H14 C22 0.930 . S
H15 C16 1.016 . S
C16 H15 1.016 . S
C16 N23 1.286 . S
C17 H12 0.930 . S
C17 C18 1.397 . S
C17 C19 1.361 . S
C18 C17 1.397 . S
C18 C22 1.390 . S
C19 C17 1.361 . S
C19 C20 1.393 . S
C19 N23 1.413 . S
C20 H13 0.930 . S
C20 C19 1.393 . S
C20 C21 1.399 . S
C21 C20 1.399 . S
C21 C22 1.381 . S
C22 H14 0.930 . S
C22 C18 1.390 . S
C22 C21 1.381 . S
N23 C16 1.286 . S
N23 C19 1.413 . S
H24 C29 0.930 . S
H25 C32 0.930 . S
H26 C34 0.930 . S
H27 C28 1.016 . S
C28 H27 1.016 . S
C28 N35 1.286 . S
C29 H24 0.930 . S
C29 C30 1.397 . S
C29 C31 1.361 . S
C30 C29 1.397 . S
C30 C34 1.390 . S
C31 C29 1.361 . S
C31 C32 1.393 . S
C31 N35 1.413 . S
C32 H25 0.930 . S
C32 C31 1.393 . S
C32 C33 1.399 . S
C33 C32 1.399 . S
C33 C34 1.381 . S
C34 H26 0.930 . S
C34 C30 1.390 . S
C34 C33 1.381 . S
N35 C28 1.286 . S
N35 C31 1.413 . S
H36 C41 0.930 . S
H37 C44 0.930 . S
H38 C46 0.930 . S
H39 C40 1.016 . S
C40 H39 1.016 . S
C40 N47 1.286 1_545 S
C41 H36 0.930 . S
C41 C42 1.397 1_565 S
C41 C43 1.361 . S
C42 C41 1.397 1_545 S
C42 C46 1.390 . S
C43 C41 1.361 . S
C43 C44 1.393 . S
C43 N47 1.413 . S
C44 H37 0.930 . S
C44 C43 1.393 . S
C44 C45 1.399 1_565 S
C45 C44 1.399 1_545 S
C45 C46 1.381 . S
C46 H38 0.930 . S
C46 C42 1.390 . S
C46 C45 1.381 . S
N47 C40 1.286 1_565 S
N47 C43 1.413 . S
H48 C53 0.930 . S
H49 C56 0.930 . S
H50 C58 0.930 . S
H51 C52 1.022 . S
C52 H51 1.022 . S
C52 N59 1.278 1_455 S
C53 H48 0.930 . S
C53 C54 1.403 . S
C53 C55 1.361 . S
C54 C53 1.403 . S
C54 C58 1.387 1_655 S
C55 C53 1.361 . S
C55 C56 1.393 . S
C55 N59 1.413 . S
C56 H49 0.930 . S
C56 C55 1.393 . S
C56 C57 1.402 . S
C57 C56 1.402 . S
C57 C58 1.379 1_655 S
C58 H50 0.930 . S
C58 C54 1.387 1_455 S
C58 C57 1.379 1_455 S
N59 C52 1.278 1_655 S
N59 C55 1.413 . S
H60 C65 0.930 . S
H61 C68 0.930 . S
H62 C70 0.931 . S
H63 C64 1.007 1_565 S
C64 H63 1.007 1_545 S
C64 N71 1.286 . S
C65 H60 0.930 . S
C65 C66 1.397 . S
C65 C67 1.361 . S
C66 C65 1.397 . S
C66 C70 1.390 . S
C67 C65 1.361 . S
C67 C68 1.393 . S
C67 N71 1.413 . S
C68 H61 0.930 . S
C68 C67 1.393 . S
C68 C69 1.399 . S
C69 C68 1.399 . S
C69 C70 1.381 . S
C70 H62 0.931 . S
C70 C66 1.390 . S
C70 C69 1.381 . S
N71 C64 1.286 . S
N71 C67 1.413 . S
H72 C77 0.930 . S
H73 C80 0.930 . S
H74 C82 0.930 . S
H75 C76 1.016 . S
C76 H75 1.016 . S
C76 N83 1.286 . S
C77 H72 0.930 . S
C77 C78 1.397 . S
C77 C79 1.361 . S
C78 C77 1.397 . S
C78 C82 1.390 . S
C79 C77 1.361 . S
C79 C80 1.393 . S
C79 N83 1.413 . S
C80 H73 0.930 . S
C80 C79 1.393 . S
C80 C81 1.399 . S
C81 C80 1.399 . S
C81 C82 1.381 . S
C82 H74 0.930 . S
C82 C78 1.390 . S
C82 C81 1.381 . S
N83 C76 1.286 . S
N83 C79 1.413 . S
H84 C89 0.930 . S
H85 C92 0.930 . S
H86 C94 0.930 . S
H87 C88 1.016 . S
C88 H87 1.016 . S
C88 N95 1.286 . S
C89 H84 0.930 . S
C89 C90 1.397 . S
C89 C91 1.361 . S
C90 C89 1.397 . S
C90 C94 1.390 . S
C91 C89 1.361 . S
C91 C92 1.393 . S
C91 N95 1.413 . S
C92 H85 0.930 . S
C92 C91 1.393 . S
C92 C93 1.399 . S
C93 C92 1.399 . S
C93 C94 1.381 . S
C94 H86 0.930 . S
C94 C90 1.390 . S
C94 C93 1.381 . S
N95 C88 1.286 . S
N95 C91 1.413 . S
H96 C101 0.930 . S
H97 C104 0.930 . S
H98 C106 0.930 . S
H99 C100 1.016 . S
C100 H99 1.016 . S
C100 N107 1.286 . S
C101 H96 0.930 . S
C101 C102 1.397 . S
C101 C103 1.361 . S
C102 C101 1.397 . S
C102 C106 1.390 . S
C103 C101 1.361 . S
C103 C104 1.393 . S
C103 N107 1.413 . S
C104 H97 0.930 . S
C104 C103 1.393 . S
C104 C105 1.399 . S
C105 C104 1.399 . S
C105 C106 1.381 . S
C106 H98 0.930 . S
C106 C102 1.390 . S
C106 C105 1.381 . S
N107 C100 1.286 . S
N107 C103 1.413 . S
H108 C113 0.930 . S
H109 C116 0.930 . S
H110 C118 0.930 . S
H111 C112 1.016 . S
C112 H111 1.016 . S
C112 N119 1.286 . S
C113 H108 0.930 . S
C113 C114 1.397 . S
C113 C115 1.361 . S
C114 C113 1.397 . S
C114 C118 1.390 . S
C115 C113 1.361 . S
C115 C116 1.393 . S
C115 N119 1.413 . S
C116 H109 0.930 . S
C116 C115 1.393 . S
C116 C117 1.399 . S
C117 C116 1.399 . S
C117 C118 1.381 . S
C118 H110 0.930 . S
C118 C114 1.390 . S
C118 C117 1.381 . S
N119 C112 1.286 . S
N119 C115 1.413 . S
H120 C125 0.930 . S
H121 C128 0.930 . S
H122 C130 0.930 . S
H123 C124 1.016 1_556 S
C124 H123 1.016 1_554 S
C124 N131 1.286 . S
C125 H120 0.930 . S
C125 C126 1.397 . S
C125 C127 1.361 . S
C126 C125 1.397 . S
C126 C130 1.390 1_554 S
C127 C125 1.361 . S
C127 C128 1.393 . S
C127 N131 1.413 . S
C128 H121 0.930 . S
C128 C127 1.393 . S
C128 C129 1.399 . S
C129 C128 1.399 . S
C129 C130 1.381 1_554 S
C130 H122 0.930 . S
C130 C126 1.390 1_556 S
C130 C129 1.381 1_556 S
N131 C124 1.286 . S
N131 C127 1.413 . S
H132 C137 0.930 . S
H133 C140 0.933 . S
H134 C142 0.930 . S
H135 C136 1.016 . S
C136 H135 1.016 . S
C136 N143 1.286 1_554 S
C137 H132 0.930 . S
C137 C138 1.397 1_556 S
C137 C139 1.361 . S
C138 C137 1.397 1_554 S
C138 C142 1.390 . S
C139 C137 1.361 . S
C139 C140 1.396 . S
C139 N143 1.413 . S
C140 H133 0.933 . S
C140 C139 1.396 . S
C140 C141 1.394 1_556 S
C141 C140 1.394 1_554 S
C141 C142 1.381 . S
C142 H134 0.930 . S
C142 C138 1.390 . S
C142 C141 1.381 . S
N143 C136 1.286 1_556 S
N143 C139 1.413 . S
H144 C149 0.930 . S
H145 C152 0.930 . S
H146 C154 0.930 . S
H147 C148 1.016 . S
C148 H147 1.016 . S
C148 N155 1.286 . S
C149 H144 0.930 . S
C149 C150 1.397 . S
C149 C151 1.361 . S
C150 C149 1.397 . S
C150 C154 1.390 . S
C151 C149 1.361 . S
C151 C152 1.393 . S
C151 N155 1.413 . S
C152 H145 0.930 . S
C152 C151 1.393 . S
C152 C153 1.399 . S
C153 C152 1.399 . S
C153 C154 1.381 . S
C154 H146 0.930 . S
C154 C150 1.390 . S
C154 C153 1.381 . S
N155 C148 1.286 . S
N155 C151 1.413 . S
H156 C161 0.930 . S
H157 C164 0.930 . S
H158 C166 0.930 . S
H159 C160 1.016 . S
C160 H159 1.016 . S
C160 N167 1.286 . S
C161 H156 0.930 . S
C161 C162 1.397 . S
C161 C163 1.361 . S
C162 C161 1.397 . S
C162 C166 1.390 . S
C163 C161 1.361 . S
C163 C164 1.393 . S
C163 N167 1.413 . S
C164 H157 0.930 . S
C164 C163 1.393 . S
C164 C165 1.399 . S
C165 C164 1.399 . S
C165 C166 1.381 . S
C166 H158 0.930 . S
C166 C162 1.390 . S
C166 C165 1.381 . S
N167 C160 1.286 . S
N167 C163 1.413 . S
H168 C173 0.930 . S
H169 C176 0.930 . S
H170 C178 0.930 . S
H171 C172 1.016 . S
C172 H171 1.016 . S
C172 N179 1.286 . S
C173 H168 0.930 . S
C173 C174 1.397 . S
C173 C175 1.361 . S
C174 C173 1.397 . S
C174 C178 1.390 . S
C175 C173 1.361 . S
C175 C176 1.393 . S
C175 N179 1.413 . S
C176 H169 0.930 . S
C176 C175 1.393 . S
C176 C177 1.399 . S
C177 C176 1.399 . S
C177 C178 1.381 . S
C178 H170 0.930 . S
C178 C174 1.390 . S
C178 C177 1.381 . S
N179 C172 1.286 . S
N179 C175 1.413 . S
H180 C185 0.930 . S
H181 C188 0.930 . S
H182 C190 0.930 . S
H183 C184 1.016 . S
C184 H183 1.016 . S
C184 N191 1.286 . S
C185 H180 0.930 . S
C185 C186 1.397 . S
C185 C187 1.361 . S
C186 C185 1.397 . S
C186 C190 1.390 . S
C187 C185 1.361 . S
C187 C188 1.393 . S
C187 N191 1.413 . S
C188 H181 0.930 . S
C188 C187 1.393 . S
C188 C189 1.399 . S
C189 C188 1.399 . S
C189 C190 1.381 . S
C190 H182 0.930 . S
C190 C186 1.390 . S
C190 C189 1.381 . S
N191 C184 1.286 . S
N191 C187 1.413 . S
H192 C197 0.930 . S
H193 C200 0.930 . S
H194 C202 0.930 . S
H195 C196 1.016 . S
C196 H195 1.016 . S
C196 N203 1.286 . S
C197 H192 0.930 . S
C197 C198 1.397 . S
C197 C199 1.361 . S
C198 C197 1.397 . S
C198 C202 1.390 . S
C199 C197 1.361 . S
C199 C200 1.393 . S
C199 N203 1.413 . S
C200 H193 0.930 . S
C200 C199 1.393 . S
C200 C201 1.399 . S
C201 C200 1.399 . S
C201 C202 1.381 . S
C202 H194 0.930 . S
C202 C198 1.390 . S
C202 C201 1.381 . S
N203 C196 1.286 . S
N203 C199 1.413 . S
H204 C209 0.930 . S
H205 C212 0.930 . S
H206 C214 0.930 . S
H207 C208 1.016 . S
C208 H207 1.016 . S
C208 N215 1.286 . S
C209 H204 0.930 . S
C209 C210 1.397 . S
C209 C211 1.361 . S
C210 C209 1.397 . S
C210 C214 1.390 . S
C211 C209 1.361 . S
C211 C212 1.393 . S
C211 N215 1.413 . S
C212 H205 0.930 . S
C212 C211 1.393 . S
C212 C213 1.399 . S
C213 C212 1.399 . S
C213 C214 1.381 . S
C214 H206 0.930 . S
C214 C210 1.390 . S
C214 C213 1.381 . S
N215 C208 1.286 . S
N215 C211 1.413 . S
H216 C221 0.930 . S
H217 C224 0.930 . S
H218 C226 0.930 . S
H219 C220 1.016 . S
C220 H219 1.016 . S
C220 N227 1.286 . S
C221 H216 0.930 . S
C221 C222 1.397 . S
C221 C223 1.361 . S
C222 C221 1.397 . S
C222 C226 1.390 . S
C223 C221 1.361 . S
C223 C224 1.393 . S
C223 N227 1.413 . S
C224 H217 0.930 . S
C224 C223 1.393 . S
C224 C225 1.399 . S
C225 C224 1.399 . S
C225 C226 1.381 . S
C226 H218 0.930 . S
C226 C222 1.390 . S
C226 C225 1.381 . S
N227 C220 1.286 . S
N227 C223 1.413 . S
H228 C233 0.930 . S
H229 C236 0.930 . S
H230 C238 0.930 . S
H231 C232 1.016 . S
C232 H231 1.016 . S
C232 N239 1.286 . S
C233 H228 0.930 . S
C233 C234 1.397 . S
C233 C235 1.361 . S
C234 C233 1.397 . S
C234 C238 1.390 . S
C235 C233 1.361 . S
C235 C236 1.393 . S
C235 N239 1.413 . S
C236 H229 0.930 . S
C236 C235 1.393 . S
C236 C237 1.399 . S
C237 C236 1.399 . S
C237 C238 1.381 . S
C238 H230 0.930 . S
C238 C234 1.390 . S
C238 C237 1.381 . S
N239 C232 1.286 . S
N239 C235 1.413 . S
H240 C245 0.930 . S
H241 C248 0.930 . S
H242 C250 0.930 . S
H243 C244 1.016 . S
C244 H243 1.016 . S
C244 N251 1.286 . S
C245 H240 0.930 . S
C245 C246 1.397 . S
C245 C247 1.361 . S
C246 C245 1.397 . S
C246 C250 1.390 . S
C247 C245 1.361 . S
C247 C248 1.393 . S
C247 N251 1.413 . S
C248 H241 0.930 . S
C248 C247 1.393 . S
C248 C249 1.399 . S
C249 C248 1.399 . S
C249 C250 1.381 . S
C250 H242 0.930 . S
C250 C246 1.390 . S
C250 C249 1.381 . S
N251 C244 1.286 . S
N251 C247 1.413 . S
H252 C257 0.930 . S
H253 C260 0.930 . S
H254 C262 0.930 . S
H255 C256 1.016 . S
C256 H255 1.016 . S
C256 N263 1.286 . S
C257 H252 0.930 . S
C257 C258 1.397 . S
C257 C259 1.361 . S
C258 C257 1.397 . S
C258 C262 1.390 . S
C259 C257 1.361 . S
C259 C260 1.393 . S
C259 N263 1.413 . S
C260 H253 0.930 . S
C260 C259 1.393 . S
C260 C261 1.399 . S
C261 C260 1.399 . S
C261 C262 1.381 . S
C262 H254 0.930 . S
C262 C258 1.390 . S
C262 C261 1.381 . S
N263 C256 1.286 . S
N263 C259 1.413 . S
H264 C269 0.930 . S
H265 C272 0.930 . S
H266 C274 0.930 . S
H267 C268 1.016 . S
C268 H267 1.016 . S
C268 N275 1.286 . S
C269 H264 0.930 . S
C269 C270 1.397 . S
C269 C271 1.361 . S
C270 C269 1.397 . S
C270 C274 1.390 . S
C271 C269 1.361 . S
C271 C272 1.393 . S
C271 N275 1.413 . S
C272 H265 0.930 . S
C272 C271 1.393 . S
C272 C273 1.399 . S
C273 C272 1.399 . S
C273 C274 1.381 . S
C274 H266 0.930 . S
C274 C270 1.390 . S
C274 C273 1.381 . S
N275 C268 1.286 . S
N275 C271 1.413 . S
H276 C281 0.930 . S
H277 C284 0.930 . S
H278 C286 0.930 . S
H279 C280 1.016 . S
C280 H279 1.016 . S
C280 N287 1.286 . S
C281 H276 0.930 . S
C281 C282 1.397 . S
C281 C283 1.361 . S
C282 C281 1.397 . S
C282 C286 1.390 . S
C283 C281 1.361 . S
C283 C284 1.393 . S
C283 N287 1.413 . S
C284 H277 0.930 . S
C284 C283 1.393 . S
C284 C285 1.399 . S
C285 C284 1.399 . S
C285 C286 1.381 . S
C286 H278 0.930 . S
C286 C282 1.390 . S
C286 C285 1.381 . S
N287 C280 1.286 . S
N287 C283 1.413 . S
Zn288 O290 1.933 1_565 S
Zn288 O308 1.985 . S
Zn288 O319 1.955 . S
Zn289 O290 1.911 . S
Zn289 O309 1.970 . S
Zn289 O325 1.945 . S
Zn289 O332 1.981 . S
O290 Zn288 1.933 1_545 S
O290 Zn289 1.911 . S
O290 H291 0.841 1_655 S
H291 O290 0.841 1_455 S
C292 O293 1.246 . S
C292 O321 1.276 . S
O293 C292 1.246 . S
Zn294 O296 1.911 . S
Zn294 O311 1.970 . S
Zn294 O328 1.945 . S
Zn294 O335 1.981 . S
Zn295 O296 1.933 1_565 S
Zn295 O310 1.985 . S
Zn295 O317 1.955 . S
O296 Zn294 1.911 . S
O296 Zn295 1.933 1_545 S
O296 H297 0.841 . S
H297 O296 0.841 . S
Zn298 O299 1.933 1_565 S
Zn298 O312 1.985 . S
Zn298 O321 1.955 . S
O299 Zn298 1.933 1_545 S
O299 Zn300 1.911 . S
O299 H301 0.841 . S
Zn300 O299 1.911 . S
Zn300 O313 1.970 . S
Zn300 O329 1.981 1_655 S
Zn300 O331 1.945 . S
H301 O299 0.841 . S
Zn302 O303 1.933 1_565 S
Zn302 O315 1.985 . S
Zn302 O323 1.955 . S
O303 Zn302 1.933 1_545 S
O303 H304 0.841 . S
O303 Zn305 1.911 . S
H304 O303 0.841 . S
Zn305 O303 1.911 . S
Zn305 O316 1.970 . S
Zn305 O326 1.981 . S
Zn305 O334 1.945 . S
C306 O307 1.246 . S
C306 O323 1.276 . S
O307 C306 1.246 . S
O308 Zn288 1.985 . S
O308 C318 1.245 1_565 S
O309 Zn289 1.970 . S
O309 C318 1.263 . S
O310 Zn295 1.985 . S
O310 C322 1.245 1_565 S
O311 Zn294 1.970 . S
O311 C322 1.263 . S
O312 Zn298 1.985 . S
O312 C327 1.245 1_565 S
O313 Zn300 1.970 . S
O313 C327 1.263 . S
C314 O325 1.262 1_455 S
C314 O326 1.245 . S
O315 Zn302 1.985 . S
O315 C333 1.245 1_565 S
O316 Zn305 1.970 . S
O316 C333 1.263 . S
O317 Zn295 1.955 . S
O317 C336 1.276 . S
C318 O308 1.245 1_545 S
C318 O309 1.263 . S
O319 Zn288 1.955 . S
O319 C338 1.276 1_655 S
C320 O328 1.262 . S
C320 O329 1.245 . S
O321 C292 1.276 . S
O321 Zn298 1.955 . S
C322 O310 1.245 1_545 S
C322 O311 1.263 . S
O323 Zn302 1.955 . S
O323 C306 1.276 . S
C324 O331 1.262 . S
C324 O332 1.245 . S
O325 Zn289 1.945 . S
O325 C314 1.262 1_655 S
O326 Zn305 1.981 . S
O326 C314 1.245 . S
C327 O312 1.245 1_545 S
C327 O313 1.263 . S
O328 Zn294 1.945 . S
O328 C320 1.262 . S
O329 Zn300 1.981 1_455 S
O329 C320 1.245 . S
C330 O334 1.262 . S
C330 O335 1.245 . S
O331 Zn300 1.945 . S
O331 C324 1.262 . S
O332 Zn289 1.981 . S
O332 C324 1.245 . S
C333 O315 1.245 1_545 S
C333 O316 1.263 . S
O334 Zn305 1.945 . S
O334 C330 1.262 . S
O335 Zn294 1.981 . S
O335 C330 1.245 . S
C336 O317 1.276 . S
C336 O337 1.246 1_455 S
O337 C336 1.246 1_655 S
C338 O319 1.276 1_455 S
C338 O339 1.246 . S
O339 C338 1.246 . S
Zn340 O342 1.933 . S
Zn340 O360 1.985 . S
Zn340 O371 1.955 . S
Zn341 O342 1.911 1_556 S
Zn341 O361 1.970 . S
Zn341 O377 1.945 . S
Zn341 O384 1.981 . S
O342 Zn340 1.933 . S
O342 Zn341 1.911 1_554 S
O342 H343 0.841 . S
H343 O342 0.841 . S
C344 O345 1.246 . S
C344 O373 1.276 . S
O345 C344 1.246 . S
Zn346 O348 1.911 1_556 S
Zn346 O363 1.970 . S
Zn346 O380 1.945 . S
Zn346 O387 1.981 . S
Zn347 O348 1.933 . S
Zn347 O362 1.985 . S
Zn347 O369 1.955 . S
O348 Zn346 1.911 1_554 S
O348 Zn347 1.933 . S
O348 H349 0.841 1_565 S
H349 O348 0.841 1_545 S
Zn350 O351 1.933 . S
Zn350 O364 1.985 . S
Zn350 O373 1.955 . S
O351 Zn350 1.933 . S
O351 Zn352 1.911 1_554 S
O351 H353 0.841 . S
Zn352 O351 1.911 1_556 S
Zn352 O365 1.970 . S
Zn352 O381 1.981 . S
Zn352 O383 1.945 . S
H353 O351 0.841 . S
Zn354 O355 1.933 . S
Zn354 O367 1.985 . S
Zn354 O375 1.955 . S
O355 Zn354 1.933 . S
O355 H356 0.841 . S
O355 Zn357 1.911 1_554 S
H356 O355 0.841 . S
Zn357 O355 1.911 1_556 S
Zn357 O368 1.970 . S
Zn357 O378 1.981 1_565 S
Zn357 O386 1.945 . S
C358 O359 1.246 . S
C358 O375 1.276 . S
O359 C358 1.246 . S
O360 Zn340 1.985 . S
O360 C370 1.245 . S
O361 Zn341 1.970 . S
O361 C370 1.263 1_556 S
O362 Zn347 1.985 . S
O362 C374 1.245 . S
O363 Zn346 1.970 . S
O363 C374 1.263 1_556 S
O364 Zn350 1.985 . S
O364 C379 1.245 . S
O365 Zn352 1.970 . S
O365 C379 1.263 1_556 S
C366 O377 1.262 . S
C366 O378 1.245 . S
O367 Zn354 1.985 . S
O367 C385 1.245 . S
O368 Zn357 1.970 . S
O368 C385 1.263 1_556 S
O369 Zn347 1.955 . S
O369 C388 1.276 1_565 S
C370 O360 1.245 . S
C370 O361 1.263 1_554 S
O371 Zn340 1.955 . S
O371 C390 1.276 . S
C372 O380 1.262 1_545 S
C372 O381 1.245 . S
O373 C344 1.276 . S
O373 Zn350 1.955 . S
C374 O362 1.245 . S
C374 O363 1.263 1_554 S
O375 Zn354 1.955 . S
O375 C358 1.276 . S
C376 O383 1.262 . S
C376 O384 1.245 . S
O377 Zn341 1.945 . S
O377 C366 1.262 . S
O378 Zn357 1.981 1_545 S
O378 C366 1.245 . S
C379 O364 1.245 . S
C379 O365 1.263 1_554 S
O380 Zn346 1.945 . S
O380 C372 1.262 1_565 S
O381 Zn352 1.981 . S
O381 C372 1.245 . S
C382 O386 1.262 . S
C382 O387 1.245 . S
O383 Zn352 1.945 . S
O383 C376 1.262 . S
O384 Zn341 1.981 . S
O384 C376 1.245 . S
C385 O367 1.245 . S
C385 O368 1.263 1_554 S
O386 Zn357 1.945 . S
O386 C382 1.262 . S
O387 Zn346 1.981 . S
O387 C382 1.245 . S
C388 O369 1.276 1_545 S
C388 O389 1.246 . S
O389 C388 1.246 . S
C390 O371 1.276 . S
C390 O391 1.246 . S
O391 C390 1.246 . S
Zn392 O394 1.933 . S
Zn392 O412 1.985 . S
Zn392 O423 1.954 . S
Zn393 O394 1.911 . S
Zn393 O413 1.970 . S
Zn393 O429 1.945 . S
Zn393 O436 1.981 . S
O394 Zn392 1.933 . S
O394 Zn393 1.911 . S
O394 H395 0.841 1_655 S
H395 O394 0.841 1_455 S
C396 O397 1.246 1_554 S
C396 O425 1.276 . S
O397 C396 1.246 1_556 S
Zn398 O400 1.911 . S
Zn398 O415 1.970 . S
Zn398 O432 1.945 . S
Zn398 O439 1.981 . S
Zn399 O400 1.933 . S
Zn399 O414 1.985 . S
Zn399 O421 1.955 . S
O400 Zn398 1.911 . S
O400 Zn399 1.933 . S
O400 H401 0.841 . S
H401 O400 0.841 . S
Zn402 O403 1.933 . S
Zn402 O416 1.985 . S
Zn402 O425 1.955 . S
O403 Zn402 1.933 . S
O403 Zn404 1.911 . S
O403 H405 0.841 . S
Zn404 O403 1.911 . S
Zn404 O417 1.970 . S
Zn404 O433 1.981 1_655 S
Zn404 O435 1.945 . S
H405 O403 0.841 . S
Zn406 O407 1.933 . S
Zn406 O419 1.985 . S
Zn406 O427 1.955 . S
O407 Zn406 1.933 . S
O407 H408 0.841 1_556 S
O407 Zn409 1.911 . S
H408 O407 0.841 1_554 S
Zn409 O407 1.911 . S
Zn409 O420 1.970 . S
Zn409 O430 1.981 . S
Zn409 O438 1.945 . S
C410 O411 1.246 . S
C410 O427 1.276 1_554 S
O411 C410 1.246 . S
O412 Zn392 1.985 . S
O412 C422 1.245 . S
O413 Zn393 1.970 . S
O413 C422 1.263 . S
O414 Zn399 1.985 . S
O414 C426 1.245 . S
O415 Zn398 1.970 . S
O415 C426 1.263 . S
O416 Zn402 1.985 . S
O416 C431 1.245 . S
O417 Zn404 1.970 . S
O417 C431 1.263 . S
C418 O429 1.262 1_455 S
C418 O430 1.245 . S
O419 Zn406 1.985 . S
O419 C437 1.245 . S
O420 Zn409 1.970 . S
O420 C437 1.263 . S
O421 Zn399 1.955 . S
O421 C440 1.276 . S
C422 O412 1.245 . S
C422 O413 1.263 . S
O423 Zn392 1.954 . S
O423 C442 1.279 1_655 S
C424 O432 1.262 . S
C424 O433 1.245 . S
O425 C396 1.276 . S
O425 Zn402 1.955 . S
C426 O414 1.245 . S
C426 O415 1.263 . S
O427 Zn406 1.955 . S
O427 C410 1.276 1_556 S
C428 O435 1.262 . S
C428 O436 1.245 1_554 S
O429 Zn393 1.945 . S
O429 C418 1.262 1_655 S
O430 Zn409 1.981 . S
O430 C418 1.245 . S
C431 O416 1.245 . S
C431 O417 1.263 . S
O432 Zn398 1.945 . S
O432 C424 1.262 . S
O433 Zn404 1.981 1_455 S
O433 C424 1.245 . S
C434 O438 1.262 1_554 S
C434 O439 1.245 . S
O435 Zn404 1.945 . S
O435 C428 1.262 . S
O436 Zn393 1.981 . S
O436 C428 1.245 1_556 S
C437 O419 1.245 . S
C437 O420 1.263 . S
O438 Zn409 1.945 . S
O438 C434 1.262 1_556 S
O439 Zn398 1.981 . S
O439 C434 1.245 . S
C440 O421 1.276 . S
C440 O441 1.246 . S
O441 C440 1.246 . S
C442 O423 1.279 1_455 S
C442 O443 1.246 . S
O443 C442 1.246 . S
Zn444 O446 1.933 1_556 S
Zn444 O464 1.985 . S
Zn444 O475 1.955 . S
Zn445 O446 1.911 . S
Zn445 O465 1.970 . S
Zn445 O481 1.945 . S
Zn445 O488 1.981 . S
O446 Zn444 1.933 1_554 S
O446 Zn445 1.911 . S
O446 H447 0.841 . S
H447 O446 0.841 . S
C448 O449 1.246 . S
C448 O477 1.276 . S
O449 C448 1.246 . S
Zn450 O452 1.911 . S
Zn450 O467 1.970 . S
Zn450 O484 1.945 . S
Zn450 O491 1.981 . S
Zn451 O452 1.933 1_556 S
Zn451 O466 1.985 . S
Zn451 O473 1.955 . S
O452 Zn450 1.911 . S
O452 Zn451 1.933 1_554 S
O452 H453 0.841 . S
H453 O452 0.841 . S
Zn454 O455 1.933 1_556 S
Zn454 O468 1.985 . S
Zn454 O477 1.955 . S
O455 Zn454 1.933 1_554 S
O455 Zn456 1.911 . S
O455 H457 0.841 . S
Zn456 O455 1.911 . S
Zn456 O469 1.970 . S
Zn456 O485 1.981 . S
Zn456 O487 1.945 . S
H457 O455 0.841 . S
Zn458 O459 1.933 1_556 S
Zn458 O471 1.985 . S
Zn458 O479 1.955 . S
O459 Zn458 1.933 1_554 S
O459 H460 0.841 . S
O459 Zn461 1.911 . S
H460 O459 0.841 . S
Zn461 O459 1.911 . S
Zn461 O472 1.970 . S
Zn461 O482 1.981 . S
Zn461 O490 1.945 . S
C462 O463 1.246 . S
C462 O479 1.276 . S
O463 C462 1.246 . S
O464 Zn444 1.985 . S
O464 C474 1.245 1_556 S
O465 Zn445 1.970 . S
O465 C474 1.263 . S
O466 Zn451 1.985 . S
O466 C478 1.245 1_556 S
O467 Zn450 1.970 . S
O467 C478 1.263 . S
O468 Zn454 1.985 . S
O468 C483 1.245 1_556 S
O469 Zn456 1.970 . S
O469 C483 1.263 . S
C470 O481 1.262 . S
C470 O482 1.245 . S
O471 Zn458 1.985 . S
O471 C489 1.245 1_556 S
O472 Zn461 1.970 . S
O472 C489 1.263 . S
O473 Zn451 1.955 . S
O473 C492 1.276 . S
C474 O464 1.245 1_554 S
C474 O465 1.263 . S
O475 Zn444 1.955 . S
O475 C494 1.276 . S
C476 O484 1.262 . S
C476 O485 1.245 . S
O477 C448 1.276 . S
O477 Zn454 1.955 . S
C478 O466 1.245 1_554 S
C478 O467 1.263 . S
O479 Zn458 1.955 . S
O479 C462 1.276 . S
C480 O487 1.262 . S
C480 O488 1.245 . S
O481 Zn445 1.945 . S
O481 C470 1.262 . S
O482 Zn461 1.981 . S
O482 C470 1.245 . S
C483 O468 1.245 1_554 S
C483 O469 1.263 . S
O484 Zn450 1.945 . S
O484 C476 1.262 . S
O485 Zn456 1.981 . S
O485 C476 1.245 . S
C486 O490 1.262 . S
C486 O491 1.245 . S
O487 Zn456 1.945 . S
O487 C480 1.262 . S
O488 Zn445 1.981 . S
O488 C480 1.245 . S
C489 O471 1.245 1_554 S
C489 O472 1.263 . S
O490 Zn461 1.945 . S
O490 C486 1.262 . S
O491 Zn450 1.981 . S
O491 C486 1.245 . S
C492 O473 1.276 . S
C492 O493 1.246 . S
O493 C492 1.246 . S
C494 O475 1.276 . S
C494 O495 1.246 . S
O495 C494 1.246 . S
Zn496 O498 1.933 . S
Zn496 O516 1.985 . S
Zn496 O527 1.955 . S
Zn497 O498 1.911 . S
Zn497 O517 1.970 . S
Zn497 O533 1.945 . S
Zn497 O540 1.981 . S
O498 Zn496 1.933 . S
O498 Zn497 1.911 . S
O498 H499 0.841 1_655 S
H499 O498 0.841 1_455 S
C500 O501 1.246 . S
C500 O529 1.276 . S
O501 C500 1.246 . S
Zn502 O504 1.911 . S
Zn502 O519 1.970 . S
Zn502 O536 1.945 . S
Zn502 O543 1.981 . S
Zn503 O504 1.933 . S
Zn503 O518 1.985 . S
Zn503 O525 1.955 . S
O504 Zn502 1.911 . S
O504 Zn503 1.933 . S
O504 H505 0.841 . S
H505 O504 0.841 . S
Zn506 O507 1.933 . S
Zn506 O520 1.985 . S
Zn506 O529 1.955 . S
O507 Zn506 1.933 . S
O507 Zn508 1.911 . S
O507 H509 0.841 . S
Zn508 O507 1.911 . S
Zn508 O521 1.970 . S
Zn508 O537 1.981 1_655 S
Zn508 O539 1.945 . S
H509 O507 0.841 . S
Zn510 O511 1.933 . S
Zn510 O523 1.985 . S
Zn510 O531 1.955 . S
O511 Zn510 1.933 . S
O511 H512 0.841 . S
O511 Zn513 1.911 . S
H512 O511 0.841 . S
Zn513 O511 1.911 . S
Zn513 O524 1.970 . S
Zn513 O534 1.981 . S
Zn513 O542 1.945 . S
C514 O515 1.246 . S
C514 O531 1.276 . S
O515 C514 1.246 . S
O516 Zn496 1.985 . S
O516 C526 1.245 . S
O517 Zn497 1.970 . S
O517 C526 1.263 . S
O518 Zn503 1.985 . S
O518 C530 1.245 . S
O519 Zn502 1.970 . S
O519 C530 1.263 . S
O520 Zn506 1.985 . S
O520 C535 1.245 . S
O521 Zn508 1.970 . S
O521 C535 1.263 . S
C522 O533 1.262 1_455 S
C522 O534 1.245 . S
O523 Zn510 1.985 . S
O523 C541 1.245 . S
O524 Zn513 1.970 . S
O524 C541 1.263 . S
O525 Zn503 1.955 . S
O525 C544 1.276 . S
C526 O516 1.245 . S
C526 O517 1.263 . S
O527 Zn496 1.955 . S
O527 C546 1.276 1_655 S
C528 O536 1.262 . S
C528 O537 1.245 . S
O529 C500 1.276 . S
O529 Zn506 1.955 . S
C530 O518 1.245 . S
C530 O519 1.263 . S
O531 Zn510 1.955 . S
O531 C514 1.276 . S
C532 O539 1.262 . S
C532 O540 1.245 . S
O533 Zn497 1.945 . S
O533 C522 1.262 1_655 S
O534 Zn513 1.981 . S
O534 C522 1.245 . S
C535 O520 1.245 . S
C535 O521 1.263 . S
O536 Zn502 1.945 . S
O536 C528 1.262 . S
O537 Zn508 1.981 1_455 S
O537 C528 1.245 . S
C538 O542 1.262 . S
C538 O543 1.245 . S
O539 Zn508 1.945 . S
O539 C532 1.262 . S
O540 Zn497 1.981 . S
O540 C532 1.245 . S
C541 O523 1.245 . S
C541 O524 1.263 . S
O542 Zn513 1.945 . S
O542 C538 1.262 . S
O543 Zn502 1.981 . S
O543 C538 1.245 . S
C544 O525 1.276 . S
C544 O545 1.246 . S
O545 C544 1.246 . S
C546 O527 1.276 1_455 S
C546 O547 1.246 . S
O547 C546 1.246 . S
Zn548 O550 1.933 1_565 S
Zn548 O568 1.985 . S
Zn548 O579 1.955 . S
Zn549 O550 1.911 . S
Zn549 O569 1.970 . S
Zn549 O585 1.945 . S
Zn549 O592 1.981 . S
O550 Zn548 1.933 1_545 S
O550 Zn549 1.911 . S
O550 H551 0.841 . S
H551 O550 0.841 . S
C552 O553 1.246 . S
C552 O581 1.276 . S
O553 C552 1.246 . S
Zn554 O556 1.911 . S
Zn554 O571 1.970 . S
Zn554 O588 1.945 . S
Zn554 O595 1.981 . S
Zn555 O556 1.933 1_565 S
Zn555 O570 1.985 . S
Zn555 O577 1.955 . S
O556 Zn554 1.911 . S
O556 Zn555 1.933 1_545 S
O556 H557 0.841 . S
H557 O556 0.841 . S
Zn558 O559 1.933 1_565 S
Zn558 O572 1.985 . S
Zn558 O581 1.955 . S
O559 Zn558 1.933 1_545 S
O559 Zn560 1.911 . S
O559 H561 0.841 . S
Zn560 O559 1.911 . S
Zn560 O573 1.970 . S
Zn560 O589 1.981 . S
Zn560 O591 1.945 . S
H561 O559 0.841 . S
Zn562 O563 1.933 1_565 S
Zn562 O575 1.985 . S
Zn562 O583 1.955 . S
O563 Zn562 1.933 1_545 S
O563 H564 0.841 . S
O563 Zn565 1.911 . S
H564 O563 0.841 . S
Zn565 O563 1.911 . S
Zn565 O576 1.970 . S
Zn565 O586 1.981 . S
Zn565 O594 1.945 . S
C566 O567 1.246 . S
C566 O583 1.276 . S
O567 C566 1.246 . S
O568 Zn548 1.985 . S
O568 C578 1.245 1_565 S
O569 Zn549 1.970 . S
O569 C578 1.263 . S
O570 Zn555 1.985 . S
O570 C582 1.245 1_565 S
O571 Zn554 1.970 . S
O571 C582 1.263 . S
O572 Zn558 1.985 . S
O572 C587 1.245 1_565 S
O573 Zn560 1.970 . S
O573 C587 1.263 . S
C574 O585 1.262 . S
C574 O586 1.245 . S
O575 Zn562 1.985 . S
O575 C593 1.245 1_565 S
O576 Zn565 1.970 . S
O576 C593 1.263 . S
O577 Zn555 1.955 . S
O577 C596 1.276 . S
C578 O568 1.245 1_545 S
C578 O569 1.263 . S
O579 Zn548 1.955 . S
O579 C598 1.276 . S
C580 O588 1.262 . S
C580 O589 1.245 . S
O581 C552 1.276 . S
O581 Zn558 1.955 . S
C582 O570 1.245 1_545 S
C582 O571 1.263 . S
O583 Zn562 1.955 . S
O583 C566 1.276 . S
C584 O591 1.262 . S
C584 O592 1.245 . S
O585 Zn549 1.945 . S
O585 C574 1.262 . S
O586 Zn565 1.981 . S
O586 C574 1.245 . S
C587 O572 1.245 1_545 S
C587 O573 1.263 . S
O588 Zn554 1.945 . S
O588 C580 1.262 . S
O589 Zn560 1.981 . S
O589 C580 1.245 . S
C590 O594 1.262 . S
C590 O595 1.245 . S
O591 Zn560 1.945 . S
O591 C584 1.262 . S
O592 Zn549 1.981 . S
O592 C584 1.245 . S
C593 O575 1.245 1_545 S
C593 O576 1.263 . S
O594 Zn565 1.945 . S
O594 C590 1.262 . S
O595 Zn554 1.981 . S
O595 C590 1.245 . S
C596 O577 1.276 . S
C596 O597 1.246 . S
O597 C596 1.246 . S
C598 O579 1.276 . S
C598 O599 1.246 . S
O599 C598 1.246 . S
H600 C606 0.930 . S
H601 C609 0.930 . S
H602 C610 0.930 . S
H603 C611 0.930 . S
H604 C614 0.930 . S
H605 C615 0.930 . S
C606 H600 0.930 . S
C606 C607 1.355 . S
C606 C608 1.415 . S
C607 C606 1.355 . S
C607 C609 1.419 . S
C608 C606 1.415 . S
C608 C613 1.425 . S
C608 C615 1.409 . S
C609 H601 0.930 . S
C609 C607 1.419 . S
C609 C610 1.362 . S
C610 H602 0.930 . S
C610 C609 1.362 . S
C610 C613 1.409 . S
C611 H603 0.930 . S
C611 C612 1.355 . S
C611 C613 1.415 . S
C612 C611 1.355 . S
C612 C614 1.419 . S
C613 C608 1.425 . S
C613 C610 1.409 . S
C613 C611 1.415 . S
C614 H604 0.930 . S
C614 C612 1.419 . S
C614 C615 1.362 . S
C615 H605 0.930 . S
C615 C608 1.409 . S
C615 C614 1.362 . S
H616 C622 0.930 . S
H617 C625 0.930 . S
H618 C626 0.930 . S
H619 C627 0.930 . S
H620 C630 0.930 . S
H621 C631 0.930 . S
C622 H616 0.930 . S
C622 C623 1.355 . S
C622 C624 1.415 . S
C623 C622 1.355 . S
C623 C625 1.419 . S
C624 C622 1.415 . S
C624 C629 1.425 . S
C624 C631 1.409 . S
C625 H617 0.930 . S
C625 C623 1.419 . S
C625 C626 1.362 . S
C626 H618 0.930 . S
C626 C625 1.362 . S
C626 C629 1.409 . S
C627 H619 0.930 . S
C627 C628 1.355 . S
C627 C629 1.415 . S
C628 C627 1.355 . S
C628 C630 1.419 . S
C629 C624 1.425 . S
C629 C626 1.409 . S
C629 C627 1.415 . S
C630 H620 0.930 . S
C630 C628 1.419 . S
C630 C631 1.362 . S
C631 H621 0.930 . S
C631 C624 1.409 . S
C631 C630 1.362 . S
H632 C638 0.930 . S
H633 C641 0.930 . S
H634 C642 0.930 . S
H635 C643 0.930 . S
H636 C646 0.930 . S
H637 C647 0.930 . S
C638 H632 0.930 . S
C638 C639 1.355 . S
C638 C640 1.415 . S
C639 C638 1.355 . S
C639 C641 1.419 . S
C640 C638 1.415 . S
C640 C645 1.425 . S
C640 C647 1.409 . S
C641 H633 0.930 . S
C641 C639 1.419 . S
C641 C642 1.362 . S
C642 H634 0.930 . S
C642 C641 1.362 . S
C642 C645 1.409 . S
C643 H635 0.930 . S
C643 C644 1.355 . S
C643 C645 1.415 . S
C644 C643 1.355 . S
C644 C646 1.419 . S
C645 C640 1.425 . S
C645 C642 1.409 . S
C645 C643 1.415 . S
C646 H636 0.930 . S
C646 C644 1.419 . S
C646 C647 1.362 . S
C647 H637 0.930 . S
C647 C640 1.409 . S
C647 C646 1.362 . S
H648 C654 0.930 . S
H649 C657 0.930 . S
H650 C658 0.930 . S
H651 C659 0.930 . S
H652 C662 0.930 . S
H653 C663 0.930 . S
C654 H648 0.930 . S
C654 C655 1.355 . S
C654 C656 1.415 . S
C655 C654 1.355 . S
C655 C657 1.419 . S
C656 C654 1.415 . S
C656 C661 1.425 . S
C656 C663 1.409 . S
C657 H649 0.930 . S
C657 C655 1.419 . S
C657 C658 1.362 . S
C658 H650 0.930 . S
C658 C657 1.362 . S
C658 C661 1.409 . S
C659 H651 0.930 . S
C659 C660 1.355 . S
C659 C661 1.415 . S
C660 C659 1.355 . S
C660 C662 1.419 . S
C661 C656 1.425 . S
C661 C658 1.409 . S
C661 C659 1.415 . S
C662 H652 0.930 . S
C662 C660 1.419 . S
C662 C663 1.362 . S
C663 H653 0.930 . S
C663 C656 1.409 . S
C663 C662 1.362 . S
H664 C670 0.930 . S
H665 C673 0.930 . S
H666 C674 0.930 . S
H667 C675 0.930 . S
H668 C678 0.930 . S
H669 C679 0.930 . S
C670 H664 0.930 . S
C670 C671 1.355 . S
C670 C672 1.415 . S
C671 C670 1.355 . S
C671 C673 1.419 . S
C672 C670 1.415 . S
C672 C677 1.425 . S
C672 C679 1.409 . S
C673 H665 0.930 . S
C673 C671 1.419 . S
C673 C674 1.362 . S
C674 H666 0.930 . S
C674 C673 1.362 . S
C674 C677 1.409 . S
C675 H667 0.930 . S
C675 C676 1.355 . S
C675 C677 1.415 . S
C676 C675 1.355 . S
C676 C678 1.419 . S
C677 C672 1.425 . S
C677 C674 1.409 . S
C677 C675 1.415 . S
C678 H668 0.930 . S
C678 C676 1.419 . S
C678 C679 1.362 . S
C679 H669 0.930 . S
C679 C672 1.409 . S
C679 C678 1.362 . S
H680 C686 0.930 . S
H681 C689 0.930 . S
H682 C690 0.930 . S
H683 C691 0.930 . S
H684 C694 0.930 . S
H685 C695 0.930 . S
C686 H680 0.930 . S
C686 C687 1.355 . S
C686 C688 1.415 . S
C687 C686 1.355 . S
C687 C689 1.419 . S
C688 C686 1.415 . S
C688 C693 1.425 . S
C688 C695 1.409 . S
C689 H681 0.930 . S
C689 C687 1.419 . S
C689 C690 1.362 . S
C690 H682 0.930 . S
C690 C689 1.362 . S
C690 C693 1.409 . S
C691 H683 0.930 . S
C691 C692 1.355 . S
C691 C693 1.415 . S
C692 C691 1.355 . S
C692 C694 1.419 . S
C693 C688 1.425 . S
C693 C690 1.409 . S
C693 C691 1.415 . S
C694 H684 0.930 . S
C694 C692 1.419 . S
C694 C695 1.362 . S
C695 H685 0.930 . S
C695 C688 1.409 . S
C695 C694 1.362 . S
H696 C702 0.930 . S
H697 C705 0.930 . S
H698 C706 0.930 . S
H699 C707 0.930 . S
H700 C710 0.930 . S
H701 C711 0.930 . S
C702 H696 0.930 . S
C702 C703 1.355 . S
C702 C704 1.415 . S
C703 C702 1.355 . S
C703 C705 1.419 . S
C704 C702 1.415 . S
C704 C709 1.425 . S
C704 C711 1.409 . S
C705 H697 0.930 . S
C705 C703 1.419 . S
C705 C706 1.362 . S
C706 H698 0.930 . S
C706 C705 1.362 . S
C706 C709 1.409 . S
C707 H699 0.930 . S
C707 C708 1.355 . S
C707 C709 1.415 . S
C708 C707 1.355 . S
C708 C710 1.419 . S
C709 C704 1.425 . S
C709 C706 1.409 . S
C709 C707 1.415 . S
C710 H700 0.930 . S
C710 C708 1.419 . S
C710 C711 1.362 . S
C711 H701 0.930 . S
C711 C704 1.409 . S
C711 C710 1.362 . S
H712 C718 0.930 . S
H713 C721 0.930 . S
H714 C722 0.930 . S
H715 C723 0.930 . S
H716 C726 0.930 . S
H717 C727 0.930 . S
C718 H712 0.930 . S
C718 C719 1.355 . S
C718 C720 1.415 . S
C719 C718 1.355 . S
C719 C721 1.419 . S
C720 C718 1.415 . S
C720 C725 1.425 . S
C720 C727 1.409 . S
C721 H713 0.930 . S
C721 C719 1.419 . S
C721 C722 1.362 . S
C722 H714 0.930 . S
C722 C721 1.362 . S
C722 C725 1.409 . S
C723 H715 0.930 . S
C723 C724 1.355 . S
C723 C725 1.415 . S
C724 C723 1.355 . S
C724 C726 1.419 . S
C725 C720 1.425 . S
C725 C722 1.409 . S
C725 C723 1.415 . S
C726 H716 0.930 . S
C726 C724 1.419 . S
C726 C727 1.362 . S
C727 H717 0.930 . S
C727 C720 1.409 . S
C727 C726 1.362 . S
H728 C734 0.930 . S
H729 C737 0.930 . S
H730 C738 0.930 . S
H731 C739 0.930 . S
H732 C742 0.930 . S
H733 C743 0.930 . S
C734 H728 0.930 . S
C734 C735 1.355 . S
C734 C736 1.415 . S
C735 C734 1.355 . S
C735 C737 1.419 . S
C736 C734 1.415 . S
C736 C741 1.425 . S
C736 C743 1.409 . S
C737 H729 0.930 . S
C737 C735 1.419 . S
C737 C738 1.362 . S
C738 H730 0.930 . S
C738 C737 1.362 . S
C738 C741 1.409 . S
C739 H731 0.930 . S
C739 C740 1.355 . S
C739 C741 1.415 . S
C740 C739 1.355 . S
C740 C742 1.419 . S
C741 C736 1.425 . S
C741 C738 1.409 . S
C741 C739 1.415 . S
C742 H732 0.930 . S
C742 C740 1.419 . S
C742 C743 1.362 . S
C743 H733 0.930 . S
C743 C736 1.409 . S
C743 C742 1.362 . S
H744 C750 0.930 . S
H745 C753 0.930 . S
H746 C754 0.930 . S
H747 C755 0.930 . S
H748 C758 0.930 . S
H749 C759 0.930 . S
C750 H744 0.930 . S
C750 C751 1.355 . S
C750 C752 1.415 . S
C751 C750 1.355 . S
C751 C753 1.419 . S
C752 C750 1.415 . S
C752 C757 1.425 . S
C752 C759 1.409 . S
C753 H745 0.930 . S
C753 C751 1.419 . S
C753 C754 1.362 . S
C754 H746 0.930 . S
C754 C753 1.362 . S
C754 C757 1.409 . S
C755 H747 0.930 . S
C755 C756 1.355 . S
C755 C757 1.415 . S
C756 C755 1.355 . S
C756 C758 1.419 . S
C757 C752 1.425 . S
C757 C754 1.409 . S
C757 C755 1.415 . S
C758 H748 0.930 . S
C758 C756 1.419 . S
C758 C759 1.362 . S
C759 H749 0.930 . S
C759 C752 1.409 . S
C759 C758 1.362 . S
H760 C766 0.930 . S
H761 C769 0.930 . S
H762 C770 0.930 . S
H763 C771 0.930 . S
H764 C774 0.930 . S
H765 C775 0.930 . S
C766 H760 0.930 . S
C766 C767 1.355 . S
C766 C768 1.415 . S
C767 C766 1.355 . S
C767 C769 1.419 . S
C768 C766 1.415 . S
C768 C773 1.425 . S
C768 C775 1.409 . S
C769 H761 0.930 . S
C769 C767 1.419 . S
C769 C770 1.362 . S
C770 H762 0.930 . S
C770 C769 1.362 . S
C770 C773 1.409 . S
C771 H763 0.930 . S
C771 C772 1.355 . S
C771 C773 1.415 . S
C772 C771 1.355 . S
C772 C774 1.419 . S
C773 C768 1.425 . S
C773 C770 1.409 . S
C773 C771 1.415 . S
C774 H764 0.930 . S
C774 C772 1.419 . S
C774 C775 1.362 . S
C775 H765 0.930 . S
C775 C768 1.409 . S
C775 C774 1.362 . S
H776 C782 0.930 . S
H777 C785 0.930 . S
H778 C786 0.930 . S
H779 C787 0.930 . S
H780 C790 0.930 . S
H781 C791 0.930 . S
C782 H776 0.930 . S
C782 C783 1.355 . S
C782 C784 1.415 . S
C783 C782 1.355 . S
C783 C785 1.419 . S
C784 C782 1.415 . S
C784 C789 1.425 . S
C784 C791 1.409 . S
C785 H777 0.930 . S
C785 C783 1.419 . S
C785 C786 1.362 . S
C786 H778 0.930 . S
C786 C785 1.362 . S
C786 C789 1.409 . S
C787 H779 0.930 . S
C787 C788 1.355 . S
C787 C789 1.415 . S
C788 C787 1.355 . S
C788 C790 1.419 . S
C789 C784 1.425 . S
C789 C786 1.409 . S
C789 C787 1.415 . S
C790 H780 0.930 . S
C790 C788 1.419 . S
C790 C791 1.362 . S
C791 H781 0.930 . S
C791 C784 1.409 . S
C791 C790 1.362 . S
H792 C798 0.930 . S
H793 C801 0.930 . S
H794 C802 0.930 . S
H795 C803 0.930 . S
H796 C806 0.930 . S
H797 C807 0.930 . S
C798 H792 0.930 . S
C798 C799 1.355 1_556 S
C798 C800 1.415 . S
C799 C798 1.355 1_554 S
C799 C801 1.419 . S
C800 C798 1.415 . S
C800 C805 1.425 1_556 S
C800 C807 1.409 . S
C801 H793 0.930 . S
C801 C799 1.419 . S
C801 C802 1.362 . S
C802 H794 0.930 . S
C802 C801 1.362 . S
C802 C805 1.409 . S
C803 H795 0.930 . S
C803 C804 1.355 . S
C803 C805 1.415 . S
C804 C803 1.355 . S
C804 C806 1.419 1_554 S
C805 C800 1.425 1_554 S
C805 C802 1.409 . S
C805 C803 1.415 . S
C806 H796 0.930 . S
C806 C804 1.419 1_556 S
C806 C807 1.362 . S
C807 H797 0.930 . S
C807 C800 1.409 . S
C807 C806 1.362 . S
H808 C814 0.930 . S
H809 C817 0.930 . S
H810 C818 0.930 . S
H811 C819 0.930 . S
H812 C822 0.930 . S
H813 C823 0.930 . S
C814 H808 0.930 . S
C814 C815 1.355 1_556 S
C814 C816 1.415 . S
C815 C814 1.355 1_554 S
C815 C817 1.419 . S
C816 C814 1.415 . S
C816 C821 1.425 1_556 S
C816 C823 1.409 . S
C817 H809 0.930 . S
C817 C815 1.419 . S
C817 C818 1.362 . S
C818 H810 0.930 . S
C818 C817 1.362 . S
C818 C821 1.409 . S
C819 H811 0.930 . S
C819 C820 1.355 . S
C819 C821 1.415 . S
C820 C819 1.355 . S
C820 C822 1.419 1_554 S
C821 C816 1.425 1_554 S
C821 C818 1.409 . S
C821 C819 1.415 . S
C822 H812 0.930 . S
C822 C820 1.419 1_556 S
C822 C823 1.362 . S
C823 H813 0.930 . S
C823 C816 1.409 . S
C823 C822 1.362 . S
H824 C830 0.930 . S
H825 C833 0.930 . S
H826 C834 0.930 . S
H827 C835 0.930 . S
H828 C838 0.930 . S
H829 C839 0.930 . S
C830 H824 0.930 . S
C830 C831 1.355 . S
C830 C832 1.415 . S
C831 C830 1.355 . S
C831 C833 1.419 1_554 S
C832 C830 1.415 . S
C832 C837 1.425 . S
C832 C839 1.409 . S
C833 H825 0.930 . S
C833 C831 1.419 1_556 S
C833 C834 1.362 . S
C834 H826 0.930 . S
C834 C833 1.362 . S
C834 C837 1.409 1_556 S
C835 H827 0.930 . S
C835 C836 1.355 1_556 S
C835 C837 1.415 1_556 S
C836 C835 1.355 1_554 S
C836 C838 1.419 . S
C837 C832 1.425 . S
C837 C834 1.409 1_554 S
C837 C835 1.415 1_554 S
C838 H828 0.930 . S
C838 C836 1.419 . S
C838 C839 1.362 . S
C839 H829 0.930 . S
C839 C832 1.409 . S
C839 C838 1.362 . S
H840 C846 0.930 . S
H841 C849 0.930 . S
H842 C850 0.930 . S
H843 C851 0.930 . S
H844 C854 0.930 . S
H845 C855 0.930 . S
C846 H840 0.930 . S
C846 C847 1.355 1_556 S
C846 C848 1.415 . S
C847 C846 1.355 1_554 S
C847 C849 1.419 . S
C848 C846 1.415 . S
C848 C853 1.425 1_556 S
C848 C855 1.409 . S
C849 H841 0.930 . S
C849 C847 1.419 . S
C849 C850 1.362 . S
C850 H842 0.930 . S
C850 C849 1.362 . S
C850 C853 1.409 . S
C851 H843 0.930 . S
C851 C852 1.355 . S
C851 C853 1.415 . S
C852 C851 1.355 . S
C852 C854 1.419 1_554 S
C853 C848 1.425 1_554 S
C853 C850 1.409 . S
C853 C851 1.415 . S
C854 H844 0.930 . S
C854 C852 1.419 1_556 S
C854 C855 1.362 . S
C855 H845 0.930 . S
C855 C848 1.409 . S
C855 C854 1.362 . S
H856 C862 0.930 . S
H857 C865 0.930 . S
H858 C866 0.930 . S
H859 C867 0.930 . S
H860 C870 0.930 . S
H861 C871 0.930 . S
C862 H856 0.930 . S
C862 C863 1.355 1_655 S
C862 C864 1.415 . S
C863 C862 1.355 1_455 S
C863 C865 1.419 . S
C864 C862 1.415 . S
C864 C869 1.425 1_655 S
C864 C871 1.409 . S
C865 H857 0.930 . S
C865 C863 1.419 . S
C865 C866 1.362 . S
C866 H858 0.930 . S
C866 C865 1.362 . S
C866 C869 1.409 . S
C867 H859 0.930 . S
C867 C868 1.355 . S
C867 C869 1.415 . S
C868 C867 1.355 . S
C868 C870 1.419 1_455 S
C869 C864 1.425 1_455 S
C869 C866 1.409 . S
C869 C867 1.415 . S
C870 H860 0.930 . S
C870 C868 1.419 1_655 S
C870 C871 1.362 . S
C871 H861 0.930 . S
C871 C864 1.409 . S
C871 C870 1.362 . S
H872 C878 0.937 . S
H873 C881 0.930 . S
H874 C882 0.930 . S
H875 C883 0.930 . S
H876 C886 0.930 1_565 S
H877 C887 0.930 . S
C878 H872 0.937 . S
C878 C879 1.350 1_565 S
C878 C880 1.412 1_565 S
C879 C878 1.350 1_545 S
C879 C881 1.419 . S
C880 C878 1.412 1_545 S
C880 C885 1.425 . S
C880 C887 1.409 1_545 S
C881 H873 0.930 . S
C881 C879 1.419 . S
C881 C882 1.362 . S
C882 H874 0.930 . S
C882 C881 1.362 . S
C882 C885 1.409 . S
C883 H875 0.930 . S
C883 C884 1.355 . S
C883 C885 1.415 . S
C884 C883 1.355 . S
C884 C886 1.419 . S
C885 C880 1.425 . S
C885 C882 1.409 . S
C885 C883 1.415 . S
C886 H876 0.930 1_545 S
C886 C884 1.419 . S
C886 C887 1.362 1_545 S
C887 H877 0.930 . S
C887 C880 1.409 1_565 S
C887 C886 1.362 1_565 S
H888 C894 0.930 . S
H889 C897 0.930 . S
H890 C898 0.930 . S
H891 C899 0.930 . S
H892 C902 0.930 . S
H893 C903 0.930 . S
C894 H888 0.930 . S
C894 C895 1.355 . S
C894 C896 1.415 . S
C895 C894 1.355 . S
C895 C897 1.419 . S
C896 C894 1.415 . S
C896 C901 1.425 . S
C896 C903 1.409 . S
C897 H889 0.930 . S
C897 C895 1.419 . S
C897 C898 1.362 . S
C898 H890 0.930 . S
C898 C897 1.362 . S
C898 C901 1.409 . S
C899 H891 0.930 . S
C899 C900 1.355 . S
C899 C901 1.415 . S
C900 C899 1.355 . S
C900 C902 1.419 . S
C901 C896 1.425 . S
C901 C898 1.409 . S
C901 C899 1.415 . S
C902 H892 0.930 . S
C902 C900 1.419 . S
C902 C903 1.362 . S
C903 H893 0.930 . S
C903 C896 1.409 . S
C903 C902 1.362 . S
H904 C910 0.930 . S
H905 C913 0.930 . S
H906 C914 0.930 . S
H907 C915 0.930 . S
H908 C918 0.930 . S
H909 C919 0.930 . S
C910 H904 0.930 . S
C910 C911 1.355 . S
C910 C912 1.415 . S
C911 C910 1.355 . S
C911 C913 1.419 . S
C912 C910 1.415 . S
C912 C917 1.425 . S
C912 C919 1.409 . S
C913 H905 0.930 . S
C913 C911 1.419 . S
C913 C914 1.362 . S
C914 H906 0.930 . S
C914 C913 1.362 . S
C914 C917 1.409 . S
C915 H907 0.930 . S
C915 C916 1.355 . S
C915 C917 1.415 . S
C916 C915 1.355 . S
C916 C918 1.419 . S
C917 C912 1.425 . S
C917 C914 1.409 . S
C917 C915 1.415 . S
C918 H908 0.930 . S
C918 C916 1.419 . S
C918 C919 1.362 . S
C919 H909 0.930 . S
C919 C912 1.409 . S
C919 C918 1.362 . S
H920 C926 0.930 . S
H921 C929 0.930 1_655 S
H922 C930 0.930 . S
H923 C931 0.930 1_655 S
H924 C934 0.930 . S
H925 C935 0.930 . S
C926 H920 0.930 . S
C926 C927 1.355 . S
C926 C928 1.415 . S
C927 C926 1.355 . S
C927 C929 1.419 . S
C928 C926 1.415 . S
C928 C933 1.425 . S
C928 C935 1.409 . S
C929 H921 0.930 1_455 S
C929 C927 1.419 . S
C929 C930 1.362 1_455 S
C930 H922 0.930 . S
C930 C929 1.362 1_655 S
C930 C933 1.409 1_655 S
C931 H923 0.930 1_455 S
C931 C932 1.355 . S
C931 C933 1.415 . S
C932 C931 1.355 . S
C932 C934 1.419 . S
C933 C928 1.425 . S
C933 C930 1.409 1_455 S
C933 C931 1.415 . S
C934 H924 0.930 . S
C934 C932 1.419 . S
C934 C935 1.362 . S
C935 H925 0.930 . S
C935 C928 1.409 . S
C935 C934 1.362 . S
H936 C942 0.930 . S
H937 C945 0.930 . S
H938 C946 0.930 . S
H939 C947 0.930 . S
H940 C950 0.930 1_565 S
H941 C951 0.930 1_565 S
C942 H936 0.930 . S
C942 C943 1.355 . S
C942 C944 1.415 . S
C943 C942 1.355 . S
C943 C945 1.419 . S
C944 C942 1.415 . S
C944 C949 1.425 . S
C944 C951 1.409 . S
C945 H937 0.930 . S
C945 C943 1.419 . S
C945 C946 1.362 . S
C946 H938 0.930 . S
C946 C945 1.362 . S
C946 C949 1.409 . S
C947 H939 0.930 . S
C947 C948 1.355 . S
C947 C949 1.415 . S
C948 C947 1.355 . S
C948 C950 1.419 . S
C949 C944 1.425 . S
C949 C946 1.409 . S
C949 C947 1.415 . S
C950 H940 0.930 1_545 S
C950 C948 1.419 . S
C950 C951 1.362 . S
C951 H941 0.930 1_545 S
C951 C944 1.409 . S
C951 C950 1.362 . S
H952 C958 0.930 . S
H953 C961 0.930 . S
H954 C962 0.930 . S
H955 C963 0.930 . S
H956 C966 0.940 . S
H957 C967 0.930 1_655 S
C958 H952 0.930 . S
C958 C959 1.355 . S
C958 C960 1.415 . S
C959 C958 1.355 . S
C959 C961 1.419 . S
C960 C958 1.415 . S
C960 C965 1.425 . S
C960 C967 1.409 . S
C961 H953 0.930 . S
C961 C959 1.419 . S
C961 C962 1.362 . S
C962 H954 0.930 . S
C962 C961 1.362 . S
C962 C965 1.409 . S
C963 H955 0.930 . S
C963 C964 1.355 . S
C963 C965 1.415 . S
C964 C963 1.355 . S
C964 C966 1.419 . S
C965 C960 1.425 . S
C965 C962 1.409 . S
C965 C963 1.415 . S
C966 H956 0.940 . S
C966 C964 1.419 . S
C966 C967 1.362 . S
C967 H957 0.930 1_455 S
C967 C960 1.409 . S
C967 C966 1.362 . S
H968 C974 0.930 . S
H969 C977 0.930 . S
H970 C978 0.930 . S
H971 C979 0.930 . S
H972 C982 0.930 . S
H973 C983 0.930 . S
C974 H968 0.930 . S
C974 C975 1.355 . S
C974 C976 1.415 . S
C975 C974 1.355 . S
C975 C977 1.419 1_545 S
C976 C974 1.415 . S
C976 C981 1.425 . S
C976 C983 1.409 . S
C977 H969 0.930 . S
C977 C975 1.419 1_565 S
C977 C978 1.362 . S
C978 H970 0.930 . S
C978 C977 1.362 . S
C978 C981 1.409 1_565 S
C979 H971 0.930 . S
C979 C980 1.355 . S
C979 C981 1.415 . S
C980 C979 1.355 . S
C980 C982 1.419 . S
C981 C976 1.425 . S
C981 C978 1.409 1_545 S
C981 C979 1.415 . S
C982 H972 0.930 . S
C982 C980 1.419 . S
C982 C983 1.362 . S
C983 H973 0.930 . S
C983 C976 1.409 . S
C983 C982 1.362 . S
H984 C990 0.930 . S
H985 C993 0.930 1_655 S
H986 C994 0.930 1_655 S
H987 C995 0.912 1_655 S
H988 C998 0.930 . S
H989 C999 0.930 . S
C990 H984 0.930 . S
C990 C991 1.355 . S
C990 C992 1.415 . S
C991 C990 1.355 . S
C991 C993 1.419 . S
C992 C990 1.415 . S
C992 C997 1.425 . S
C992 C999 1.409 . S
C993 H985 0.930 1_455 S
C993 C991 1.419 . S
C993 C994 1.362 . S
C994 H986 0.930 1_455 S
C994 C993 1.362 . S
C994 C997 1.409 . S
C995 H987 0.912 1_455 S
C995 C996 1.355 . S
C995 C997 1.415 . S
C996 C995 1.355 . S
C996 C998 1.419 . S
C997 C992 1.425 . S
C997 C994 1.409 . S
C997 C995 1.415 . S
C998 H988 0.930 . S
C998 C996 1.419 . S
C998 C999 1.362 . S
C999 H989 0.930 . S
C999 C992 1.409 . S
C999 C998 1.362 . S
H1000 C1006 0.930 . S
H1001 C1009 0.930 . S
H1002 C1010 0.930 . S
H1003 C1011 0.930 . S
H1004 C1014 0.930 . S
H1005 C1015 0.930 . S
C1006 H1000 0.930 . S
C1006 C1007 1.355 . S
C1006 C1008 1.415 . S
C1007 C1006 1.355 . S
C1007 C1009 1.419 . S
C1008 C1006 1.415 . S
C1008 C1013 1.425 . S
C1008 C1015 1.409 . S
C1009 H1001 0.930 . S
C1009 C1007 1.419 . S
C1009 C1010 1.362 . S
C1010 H1002 0.930 . S
C1010 C1009 1.362 . S
C1010 C1013 1.409 . S
C1011 H1003 0.930 . S
C1011 C1012 1.355 . S
C1011 C1013 1.415 . S
C1012 C1011 1.355 . S
C1012 C1014 1.419 . S
C1013 C1008 1.425 . S
C1013 C1010 1.409 . S
C1013 C1011 1.415 . S
C1014 H1004 0.930 . S
C1014 C1012 1.419 . S
C1014 C1015 1.362 . S
C1015 H1005 0.930 . S
C1015 C1008 1.409 . S
C1015 C1014 1.362 . S
H1016 C1022 0.930 . S
H1017 C1025 0.930 1_655 S
H1018 C1026 0.930 1_655 S
H1019 C1027 0.930 . S
H1020 C1030 0.930 . S
H1021 C1031 0.930 . S
C1022 H1016 0.930 . S
C1022 C1023 1.355 . S
C1022 C1024 1.415 . S
C1023 C1022 1.355 . S
C1023 C1025 1.419 . S
C1024 C1022 1.415 . S
C1024 C1029 1.425 . S
C1024 C1031 1.409 . S
C1025 H1017 0.930 1_455 S
C1025 C1023 1.419 . S
C1025 C1026 1.362 . S
C1026 H1018 0.930 1_455 S
C1026 C1025 1.362 . S
C1026 C1029 1.409 . S
C1027 H1019 0.930 . S
C1027 C1028 1.355 . S
C1027 C1029 1.415 . S
C1028 C1027 1.355 . S
C1028 C1030 1.419 . S
C1029 C1024 1.425 . S
C1029 C1026 1.409 . S
C1029 C1027 1.415 . S
C1030 H1020 0.930 . S
C1030 C1028 1.419 . S
C1030 C1031 1.362 . S
C1031 H1021 0.930 . S
C1031 C1024 1.409 . S
C1031 C1030 1.362 . S
H1032 C1038 0.930 . S
H1033 C1041 0.932 . S
H1034 C1042 0.930 . S
H1035 C1043 0.930 . S
H1036 C1046 0.930 . S
H1037 C1047 0.930 . S
C1038 H1032 0.930 . S
C1038 C1039 1.355 . S
C1038 C1040 1.415 . S
C1039 C1038 1.355 . S
C1039 C1041 1.419 . S
C1040 C1038 1.415 . S
C1040 C1045 1.425 . S
C1040 C1047 1.409 . S
C1041 H1033 0.932 . S
C1041 C1039 1.419 . S
C1041 C1042 1.362 . S
C1042 H1034 0.930 . S
C1042 C1041 1.362 . S
C1042 C1045 1.409 . S
C1043 H1035 0.930 . S
C1043 C1044 1.355 . S
C1043 C1045 1.415 . S
C1044 C1043 1.355 . S
C1044 C1046 1.419 . S
C1045 C1040 1.425 . S
C1045 C1042 1.409 . S
C1045 C1043 1.415 . S
C1046 H1036 0.930 . S
C1046 C1044 1.419 . S
C1046 C1047 1.362 . S
C1047 H1037 0.930 . S
C1047 C1040 1.409 . S
C1047 C1046 1.362 . S
H1048 C1054 0.930 . S
H1049 C1057 0.930 . S
H1050 C1058 0.930 . S
H1051 C1059 0.930 . S
H1052 C1062 0.930 . S
H1053 C1063 0.930 . S
C1054 H1048 0.930 . S
C1054 C1055 1.355 1_455 S
C1054 C1056 1.415 . S
C1055 C1054 1.355 1_655 S
C1055 C1057 1.419 . S
C1056 C1054 1.415 . S
C1056 C1061 1.425 1_455 S
C1056 C1063 1.409 . S
C1057 H1049 0.930 . S
C1057 C1055 1.419 . S
C1057 C1058 1.362 . S
C1058 H1050 0.930 . S
C1058 C1057 1.362 . S
C1058 C1061 1.409 . S
C1059 H1051 0.930 . S
C1059 C1060 1.355 1_655 S
C1059 C1061 1.415 . S
C1060 C1059 1.355 1_455 S
C1060 C1062 1.419 . S
C1061 C1056 1.425 1_655 S
C1061 C1058 1.409 . S
C1061 C1059 1.415 . S
C1062 H1052 0.930 . S
C1062 C1060 1.419 . S
C1062 C1063 1.362 . S
C1063 H1053 0.930 . S
C1063 C1056 1.409 . S
C1063 C1062 1.362 . S
H1064 C1070 0.930 . S
H1065 C1073 0.930 . S
H1066 C1074 0.930 . S
H1067 C1075 0.930 . S
H1068 C1078 0.930 . S
H1069 C1079 0.930 . S
C1070 H1064 0.930 . S
C1070 C1071 1.355 . S
C1070 C1072 1.415 . S
C1071 C1070 1.355 . S
C1071 C1073 1.419 1_545 S
C1072 C1070 1.415 . S
C1072 C1077 1.425 1_545 S
C1072 C1079 1.409 . S
C1073 H1065 0.930 . S
C1073 C1071 1.419 1_565 S
C1073 C1074 1.362 . S
C1074 H1066 0.930 . S
C1074 C1073 1.362 . S
C1074 C1077 1.409 . S
C1075 H1067 0.930 . S
C1075 C1076 1.355 1_565 S
C1075 C1077 1.415 . S
C1076 C1075 1.355 1_545 S
C1076 C1078 1.419 . S
C1077 C1072 1.425 1_565 S
C1077 C1074 1.409 . S
C1077 C1075 1.415 . S
C1078 H1068 0.930 . S
C1078 C1076 1.419 . S
C1078 C1079 1.362 . S
C1079 H1069 0.930 . S
C1079 C1072 1.409 . S
C1079 C1078 1.362 . S
H1080 C1086 0.930 . S
H1081 C1089 0.930 . S
H1082 C1090 0.930 . S
H1083 C1091 0.932 . S
H1084 C1094 0.930 . S
H1085 C1095 0.930 . S
C1086 H1080 0.930 . S
C1086 C1087 1.355 . S
C1086 C1088 1.415 . S
C1087 C1086 1.355 . S
C1087 C1089 1.419 1_455 S
C1088 C1086 1.415 . S
C1088 C1093 1.425 . S
C1088 C1095 1.409 . S
C1089 H1081 0.930 . S
C1089 C1087 1.419 1_655 S
C1089 C1090 1.362 . S
C1090 H1082 0.930 . S
C1090 C1089 1.362 . S
C1090 C1093 1.409 1_655 S
C1091 H1083 0.932 . S
C1091 C1092 1.353 1_655 S
C1091 C1093 1.414 1_655 S
C1092 C1091 1.353 1_455 S
C1092 C1094 1.419 . S
C1093 C1088 1.425 . S
C1093 C1090 1.409 1_455 S
C1093 C1091 1.414 1_455 S
C1094 H1084 0.930 . S
C1094 C1092 1.419 . S
C1094 C1095 1.362 . S
C1095 H1085 0.930 . S
C1095 C1088 1.409 . S
C1095 C1094 1.362 . S
H1096 C1102 0.930 . S
H1097 C1105 0.930 1_565 S
H1098 C1106 0.930 1_565 S
H1099 C1107 0.930 1_565 S
H1100 C1110 0.930 . S
H1101 C1111 0.930 . S
C1102 H1096 0.930 . S
C1102 C1103 1.355 . S
C1102 C1104 1.415 . S
C1103 C1102 1.355 . S
C1103 C1105 1.419 . S
C1104 C1102 1.415 . S
C1104 C1109 1.425 . S
C1104 C1111 1.409 . S
C1105 H1097 0.930 1_545 S
C1105 C1103 1.419 . S
C1105 C1106 1.362 . S
C1106 H1098 0.930 1_545 S
C1106 C1105 1.362 . S
C1106 C1109 1.409 . S
C1107 H1099 0.930 1_545 S
C1107 C1108 1.355 . S
C1107 C1109 1.415 . S
C1108 C1107 1.355 . S
C1108 C1110 1.419 . S
C1109 C1104 1.425 . S
C1109 C1106 1.409 . S
C1109 C1107 1.415 . S
C1110 H1100 0.930 . S
C1110 C1108 1.419 . S
C1110 C1111 1.362 . S
C1111 H1101 0.930 . S
C1111 C1104 1.409 . S
C1111 C1110 1.362 . S
H1112 C1118 0.930 . S
H1113 C1121 0.930 . S
H1114 C1122 0.930 . S
H1115 C1123 0.931 . S
H1116 C1126 0.930 . S
H1117 C1127 0.930 . S
C1118 H1112 0.930 . S
C1118 C1119 1.355 . S
C1118 C1120 1.415 . S
C1119 C1118 1.355 . S
C1119 C1121 1.419 1_545 S
C1120 C1118 1.415 . S
C1120 C1125 1.425 . S
C1120 C1127 1.409 . S
C1121 H1113 0.930 . S
C1121 C1119 1.419 1_565 S
C1121 C1122 1.362 . S
C1122 H1114 0.930 . S
C1122 C1121 1.362 . S
C1122 C1125 1.409 1_565 S
C1123 H1115 0.931 . S
C1123 C1124 1.353 1_565 S
C1123 C1125 1.414 1_565 S
C1124 C1123 1.353 1_545 S
C1124 C1126 1.419 . S
C1125 C1120 1.425 . S
C1125 C1122 1.409 1_545 S
C1125 C1123 1.414 1_545 S
C1126 H1116 0.930 . S
C1126 C1124 1.419 . S
C1126 C1127 1.362 . S
C1127 H1117 0.930 . S
C1127 C1120 1.409 . S
C1127 C1126 1.362 . S
H1128 C1134 0.930 . S
H1129 C1137 0.930 . S
H1130 C1138 0.930 1_655 S
H1131 C1139 0.930 . S
H1132 C1142 0.930 . S
H1133 C1143 0.930 . S
C1134 H1128 0.930 . S
C1134 C1135 1.355 . S
C1134 C1136 1.415 . S
C1135 C1134 1.355 . S
C1135 C1137 1.419 . S
C1136 C1134 1.415 . S
C1136 C1141 1.425 . S
C1136 C1143 1.409 . S
C1137 H1129 0.930 . S
C1137 C1135 1.419 . S
C1137 C1138 1.362 . S
C1138 H1130 0.930 1_455 S
C1138 C1137 1.362 . S
C1138 C1141 1.409 . S
C1139 H1131 0.930 . S
C1139 C1140 1.355 . S
C1139 C1141 1.415 . S
C1140 C1139 1.355 . S
C1140 C1142 1.419 . S
C1141 C1136 1.425 . S
C1141 C1138 1.409 . S
C1141 C1139 1.415 . S
C1142 H1132 0.930 . S
C1142 C1140 1.419 . S
C1142 C1143 1.362 . S
C1143 H1133 0.930 . S
C1143 C1136 1.409 . S
C1143 C1142 1.362 . S
H1144 C1150 0.930 . S
H1145 C1153 0.930 . S
H1146 C1154 0.930 . S
H1147 C1155 0.930 . S
H1148 C1158 0.930 . S
H1149 C1159 0.930 . S
C1150 H1144 0.930 . S
C1150 C1151 1.355 . S
C1150 C1152 1.415 . S
C1151 C1150 1.355 . S
C1151 C1153 1.419 . S
C1152 C1150 1.415 . S
C1152 C1157 1.425 . S
C1152 C1159 1.409 . S
C1153 H1145 0.930 . S
C1153 C1151 1.419 . S
C1153 C1154 1.362 . S
C1154 H1146 0.930 . S
C1154 C1153 1.362 . S
C1154 C1157 1.409 . S
C1155 H1147 0.930 . S
C1155 C1156 1.355 . S
C1155 C1157 1.415 . S
C1156 C1155 1.355 . S
C1156 C1158 1.419 . S
C1157 C1152 1.425 . S
C1157 C1154 1.409 . S
C1157 C1155 1.415 . S
C1158 H1148 0.930 . S
C1158 C1156 1.419 . S
C1158 C1159 1.362 . S
C1159 H1149 0.930 . S
C1159 C1152 1.409 . S
C1159 C1158 1.362 . S
H1160 C1166 0.930 1_655 S
H1161 C1169 0.930 . S
H1162 C1170 0.930 . S
H1163 C1171 0.930 . S
H1164 C1174 0.930 . S
H1165 C1175 0.930 . S
C1166 H1160 0.930 1_455 S
C1166 C1167 1.355 . S
C1166 C1168 1.415 . S
C1167 C1166 1.355 . S
C1167 C1169 1.419 . S
C1168 C1166 1.415 . S
C1168 C1173 1.425 . S
C1168 C1175 1.409 1_455 S
C1169 H1161 0.930 . S
C1169 C1167 1.419 . S
C1169 C1170 1.362 . S
C1170 H1162 0.930 . S
C1170 C1169 1.362 . S
C1170 C1173 1.409 . S
C1171 H1163 0.930 . S
C1171 C1172 1.355 . S
C1171 C1173 1.415 . S
C1172 C1171 1.355 . S
C1172 C1174 1.419 1_455 S
C1173 C1168 1.425 . S
C1173 C1170 1.409 . S
C1173 C1171 1.415 . S
C1174 H1164 0.930 . S
C1174 C1172 1.419 1_655 S
C1174 C1175 1.362 . S
C1175 H1165 0.930 . S
C1175 C1168 1.409 1_655 S
C1175 C1174 1.362 . S
H1176 C1182 0.930 . S
H1177 C1185 0.930 . S
H1178 C1186 0.930 . S
H1179 C1187 0.924 1_565 S
H1180 C1190 0.930 . S
H1181 C1191 0.930 . S
C1182 H1176 0.930 . S
C1182 C1183 1.355 . S
C1182 C1184 1.415 . S
C1183 C1182 1.355 . S
C1183 C1185 1.419 1_545 S
C1184 C1182 1.415 . S
C1184 C1189 1.425 . S
C1184 C1191 1.409 . S
C1185 H1177 0.930 . S
C1185 C1183 1.419 1_565 S
C1185 C1186 1.362 . S
C1186 H1178 0.930 . S
C1186 C1185 1.362 . S
C1186 C1189 1.409 1_565 S
C1187 H1179 0.924 1_545 S
C1187 C1188 1.360 . S
C1187 C1189 1.415 . S
C1188 C1187 1.360 . S
C1188 C1190 1.419 . S
C1189 C1184 1.425 . S
C1189 C1186 1.409 1_545 S
C1189 C1187 1.415 . S
C1190 H1180 0.930 . S
C1190 C1188 1.419 . S
C1190 C1191 1.362 . S
C1191 H1181 0.930 . S
C1191 C1184 1.409 . S
C1191 C1190 1.362 . S
H1192 C1198 0.930 . S
H1193 C1201 0.930 1_655 S
H1194 C1202 0.930 1_655 S
H1195 C1203 0.930 . S
H1196 C1206 0.930 . S
H1197 C1207 0.930 . S
C1198 H1192 0.930 . S
C1198 C1199 1.355 . S
C1198 C1200 1.415 . S
C1199 C1198 1.355 . S
C1199 C1201 1.419 . S
C1200 C1198 1.415 . S
C1200 C1205 1.425 . S
C1200 C1207 1.409 . S
C1201 H1193 0.930 1_455 S
C1201 C1199 1.419 . S
C1201 C1202 1.362 . S
C1202 H1194 0.930 1_455 S
C1202 C1201 1.362 . S
C1202 C1205 1.409 . S
C1203 H1195 0.930 . S
C1203 C1204 1.355 . S
C1203 C1205 1.415 . S
C1204 C1203 1.355 . S
C1204 C1206 1.419 . S
C1205 C1200 1.425 . S
C1205 C1202 1.409 . S
C1205 C1203 1.415 . S
C1206 H1196 0.930 . S
C1206 C1204 1.419 . S
C1206 C1207 1.362 . S
C1207 H1197 0.930 . S
C1207 C1200 1.409 . S
C1207 C1206 1.362 . S
H1208 C1214 0.930 . S
H1209 C1217 0.930 . S
H1210 C1218 0.930 . S
H1211 C1219 0.930 . S
H1212 C1222 0.930 . S
H1213 C1223 0.930 . S
C1214 H1208 0.930 . S
C1214 C1215 1.355 . S
C1214 C1216 1.415 . S
C1215 C1214 1.355 . S
C1215 C1217 1.419 . S
C1216 C1214 1.415 . S
C1216 C1221 1.425 . S
C1216 C1223 1.409 . S
C1217 H1209 0.930 . S
C1217 C1215 1.419 . S
C1217 C1218 1.362 . S
C1218 H1210 0.930 . S
C1218 C1217 1.362 . S
C1218 C1221 1.409 . S
C1219 H1211 0.930 . S
C1219 C1220 1.355 . S
C1219 C1221 1.415 . S
C1220 C1219 1.355 . S
C1220 C1222 1.419 . S
C1221 C1216 1.425 . S
C1221 C1218 1.409 . S
C1221 C1219 1.415 . S
C1222 H1212 0.930 . S
C1222 C1220 1.419 . S
C1222 C1223 1.362 . S
C1223 H1213 0.930 . S
C1223 C1216 1.409 . S
C1223 C1222 1.362 . S
H1224 C1230 0.930 . S
H1225 C1233 0.930 . S
H1226 C1234 0.930 1_655 S
H1227 C1235 0.930 . S
H1228 C1238 0.930 . S
H1229 C1239 0.930 . S
C1230 H1224 0.930 . S
C1230 C1231 1.355 . S
C1230 C1232 1.415 . S
C1231 C1230 1.355 . S
C1231 C1233 1.419 1_455 S
C1232 C1230 1.415 . S
C1232 C1237 1.425 . S
C1232 C1239 1.409 . S
C1233 H1225 0.930 . S
C1233 C1231 1.419 1_655 S
C1233 C1234 1.362 1_655 S
C1234 H1226 0.930 1_455 S
C1234 C1233 1.362 1_455 S
C1234 C1237 1.409 . S
C1235 H1227 0.930 . S
C1235 C1236 1.355 . S
C1235 C1237 1.415 . S
C1236 C1235 1.355 . S
C1236 C1238 1.419 . S
C1237 C1232 1.425 . S
C1237 C1234 1.409 . S
C1237 C1235 1.415 . S
C1238 H1228 0.930 . S
C1238 C1236 1.419 . S
C1238 C1239 1.362 . S
C1239 H1229 0.930 . S
C1239 C1232 1.409 . S
C1239 C1238 1.362 . S
H1240 C1246 0.930 . S
H1241 C1249 0.930 . S
H1242 C1250 0.930 . S
H1243 C1251 0.930 . S
H1244 C1254 0.930 . S
H1245 C1255 0.930 . S
C1246 H1240 0.930 . S
C1246 C1247 1.355 . S
C1246 C1248 1.415 . S
C1247 C1246 1.355 . S
C1247 C1249 1.419 . S
C1248 C1246 1.415 . S
C1248 C1253 1.425 . S
C1248 C1255 1.409 . S
C1249 H1241 0.930 . S
C1249 C1247 1.419 . S
C1249 C1250 1.362 . S
C1250 H1242 0.930 . S
C1250 C1249 1.362 . S
C1250 C1253 1.409 . S
C1251 H1243 0.930 . S
C1251 C1252 1.355 . S
C1251 C1253 1.415 . S
C1252 C1251 1.355 . S
C1252 C1254 1.419 . S
C1253 C1248 1.425 . S
C1253 C1250 1.409 . S
C1253 C1251 1.415 . S
C1254 H1244 0.930 . S
C1254 C1252 1.419 . S
C1254 C1255 1.362 . S
C1255 H1245 0.930 . S
C1255 C1248 1.409 . S
C1255 C1254 1.362 . S
H1256 C1262 0.930 . S
H1257 C1265 0.930 1_556 S
H1258 C1266 0.930 1_556 S
H1259 C1267 0.930 . S
H1260 C1270 0.930 . S
H1261 C1271 0.930 . S
C1262 H1256 0.930 . S
C1262 C1263 1.355 . S
C1262 C1264 1.415 . S
C1263 C1262 1.355 . S
C1263 C1265 1.419 . S
C1264 C1262 1.415 . S
C1264 C1269 1.425 . S
C1264 C1271 1.409 . S
C1265 H1257 0.930 1_554 S
C1265 C1263 1.419 . S
C1265 C1266 1.362 . S
C1266 H1258 0.930 1_554 S
C1266 C1265 1.362 . S
C1266 C1269 1.409 . S
C1267 H1259 0.930 . S
C1267 C1268 1.355 . S
C1267 C1269 1.415 . S
C1268 C1267 1.355 . S
C1268 C1270 1.419 . S
C1269 C1264 1.425 . S
C1269 C1266 1.409 . S
C1269 C1267 1.415 . S
C1270 H1260 0.930 . S
C1270 C1268 1.419 . S
C1270 C1271 1.362 . S
C1271 H1261 0.930 . S
C1271 C1264 1.409 . S
C1271 C1270 1.362 . S
H1272 C1278 0.930 . S
H1273 C1281 0.930 . S
H1274 C1282 0.930 . S
H1275 C1283 0.930 . S
H1276 C1286 0.930 . S
H1277 C1287 0.930 . S
C1278 H1272 0.930 . S
C1278 C1279 1.355 1_556 S
C1278 C1280 1.415 . S
C1279 C1278 1.355 1_554 S
C1279 C1281 1.419 . S
C1280 C1278 1.415 . S
C1280 C1285 1.425 1_556 S
C1280 C1287 1.409 . S
C1281 H1273 0.930 . S
C1281 C1279 1.419 . S
C1281 C1282 1.362 . S
C1282 H1274 0.930 . S
C1282 C1281 1.362 . S
C1282 C1285 1.409 . S
C1283 H1275 0.930 . S
C1283 C1284 1.355 . S
C1283 C1285 1.415 . S
C1284 C1283 1.355 . S
C1284 C1286 1.419 1_554 S
C1285 C1280 1.425 1_554 S
C1285 C1282 1.409 . S
C1285 C1283 1.415 . S
C1286 H1276 0.930 . S
C1286 C1284 1.419 1_556 S
C1286 C1287 1.362 . S
C1287 H1277 0.930 . S
C1287 C1280 1.409 . S
C1287 C1286 1.362 . S
H1288 C1294 0.930 . S
H1289 C1297 0.930 . S
H1290 C1298 0.930 . S
H1291 C1299 0.930 . S
H1292 C1302 0.934 . S
H1293 C1303 0.930 . S
C1294 H1288 0.930 . S
C1294 C1295 1.355 1_556 S
C1294 C1296 1.413 1_556 S
C1295 C1294 1.355 1_554 S
C1295 C1297 1.419 . S
C1296 C1294 1.413 1_554 S
C1296 C1301 1.429 . S
C1296 C1303 1.408 1_554 S
C1297 H1289 0.930 . S
C1297 C1295 1.419 . S
C1297 C1298 1.362 . S
C1298 H1290 0.930 . S
C1298 C1297 1.362 . S
C1298 C1301 1.409 . S
C1299 H1291 0.930 . S
C1299 C1300 1.355 . S
C1299 C1301 1.415 . S
C1300 C1299 1.355 . S
C1300 C1302 1.415 1_554 S
C1301 C1296 1.429 . S
C1301 C1298 1.409 . S
C1301 C1299 1.415 . S
C1302 H1292 0.934 . S
C1302 C1300 1.415 1_556 S
C1302 C1303 1.364 . S
C1303 H1293 0.930 . S
C1303 C1296 1.408 1_556 S
C1303 C1302 1.364 . S
H1304 C1310 0.930 . S
H1305 C1313 0.930 . S
H1306 C1314 0.930 . S
H1307 C1315 0.928 1_556 S
H1308 C1318 0.930 . S
H1309 C1319 0.930 . S
C1310 H1304 0.930 . S
C1310 C1311 1.355 . S
C1310 C1312 1.415 . S
C1311 C1310 1.355 . S
C1311 C1313 1.419 1_554 S
C1312 C1310 1.415 . S
C1312 C1317 1.425 . S
C1312 C1319 1.409 . S
C1313 H1305 0.930 . S
C1313 C1311 1.419 1_556 S
C1313 C1314 1.362 . S
C1314 H1306 0.930 . S
C1314 C1313 1.362 . S
C1314 C1317 1.409 1_556 S
C1315 H1307 0.928 1_554 S
C1315 C1316 1.355 . S
C1315 C1317 1.415 . S
C1316 C1315 1.355 . S
C1316 C1318 1.419 . S
C1317 C1312 1.425 . S
C1317 C1314 1.409 1_554 S
C1317 C1315 1.415 . S
C1318 H1308 0.930 . S
C1318 C1316 1.419 . S
C1318 C1319 1.362 . S
C1319 H1309 0.930 . S
C1319 C1312 1.409 . S
C1319 C1318 1.362 . S
H1320 C1326 0.930 . S
H1321 C1329 0.930 . S
H1322 C1330 0.930 . S
H1323 C1331 0.930 . S
H1324 C1334 0.930 . S
H1325 C1335 0.930 . S
C1326 H1320 0.930 . S
C1326 C1327 1.355 . S
C1326 C1328 1.415 . S
C1327 C1326 1.355 . S
C1327 C1329 1.419 1_554 S
C1328 C1326 1.415 . S
C1328 C1333 1.425 1_554 S
C1328 C1335 1.409 . S
C1329 H1321 0.930 . S
C1329 C1327 1.419 1_556 S
C1329 C1330 1.362 . S
C1330 H1322 0.930 . S
C1330 C1329 1.362 . S
C1330 C1333 1.409 . S
C1331 H1323 0.930 . S
C1331 C1332 1.355 1_556 S
C1331 C1333 1.415 . S
C1332 C1331 1.355 1_554 S
C1332 C1334 1.419 . S
C1333 C1328 1.425 1_556 S
C1333 C1330 1.409 . S
C1333 C1331 1.415 . S
C1334 H1324 0.930 . S
C1334 C1332 1.419 . S
C1334 C1335 1.362 . S
C1335 H1325 0.930 . S
C1335 C1328 1.409 . S
C1335 C1334 1.362 . S
H1336 C1342 0.930 . S
H1337 C1345 0.930 . S
H1338 C1346 0.930 . S
H1339 C1347 0.930 . S
H1340 C1350 0.930 . S
H1341 C1351 0.930 . S
C1342 H1336 0.930 . S
C1342 C1343 1.355 . S
C1342 C1344 1.415 . S
C1343 C1342 1.355 . S
C1343 C1345 1.419 1_554 S
C1344 C1342 1.415 . S
C1344 C1349 1.425 1_554 S
C1344 C1351 1.409 . S
C1345 H1337 0.930 . S
C1345 C1343 1.419 1_556 S
C1345 C1346 1.362 . S
C1346 H1338 0.930 . S
C1346 C1345 1.362 . S
C1346 C1349 1.409 . S
C1347 H1339 0.930 . S
C1347 C1348 1.355 1_556 S
C1347 C1349 1.415 . S
C1348 C1347 1.355 1_554 S
C1348 C1350 1.419 . S
C1349 C1344 1.425 1_556 S
C1349 C1346 1.409 . S
C1349 C1347 1.415 . S
C1350 H1340 0.930 . S
C1350 C1348 1.419 . S
C1350 C1351 1.362 . S
C1351 H1341 0.930 . S
C1351 C1344 1.409 . S
C1351 C1350 1.362 . S
H1352 C1358 0.930 . S
H1353 C1361 0.930 . S
H1354 C1362 0.930 . S
H1355 C1363 0.930 . S
H1356 C1366 0.930 . S
H1357 C1367 0.930 . S
C1358 H1352 0.930 . S
C1358 C1359 1.355 1_556 S
C1358 C1360 1.415 . S
C1359 C1358 1.355 1_554 S
C1359 C1361 1.419 . S
C1360 C1358 1.415 . S
C1360 C1365 1.425 1_556 S
C1360 C1367 1.409 . S
C1361 H1353 0.930 . S
C1361 C1359 1.419 . S
C1361 C1362 1.362 . S
C1362 H1354 0.930 . S
C1362 C1361 1.362 . S
C1362 C1365 1.409 . S
C1363 H1355 0.930 . S
C1363 C1364 1.355 . S
C1363 C1365 1.415 . S
C1364 C1363 1.355 . S
C1364 C1366 1.419 1_554 S
C1365 C1360 1.425 1_554 S
C1365 C1362 1.409 . S
C1365 C1363 1.415 . S
C1366 H1356 0.930 . S
C1366 C1364 1.419 1_556 S
C1366 C1367 1.362 . S
C1367 H1357 0.930 . S
C1367 C1360 1.409 . S
C1367 C1366 1.362 . S
H1368 C1374 0.930 . S
H1369 C1377 0.930 . S
H1370 C1378 0.930 . S
H1371 C1379 0.930 . S
H1372 C1382 0.930 . S
H1373 C1383 0.930 . S
C1374 H1368 0.930 . S
C1374 C1375 1.355 . S
C1374 C1376 1.415 . S
C1375 C1374 1.355 . S
C1375 C1377 1.419 . S
C1376 C1374 1.415 . S
C1376 C1381 1.425 . S
C1376 C1383 1.409 . S
C1377 H1369 0.930 . S
C1377 C1375 1.419 . S
C1377 C1378 1.362 . S
C1378 H1370 0.930 . S
C1378 C1377 1.362 . S
C1378 C1381 1.409 . S
C1379 H1371 0.930 . S
C1379 C1380 1.355 . S
C1379 C1381 1.415 . S
C1380 C1379 1.355 . S
C1380 C1382 1.419 . S
C1381 C1376 1.425 . S
C1381 C1378 1.409 . S
C1381 C1379 1.415 . S
C1382 H1372 0.930 . S
C1382 C1380 1.419 . S
C1382 C1383 1.362 . S
C1383 H1373 0.930 . S
C1383 C1376 1.409 . S
C1383 C1382 1.362 . S
H1384 C1390 0.930 . S
H1385 C1393 0.930 . S
H1386 C1394 0.930 . S
H1387 C1395 0.930 . S
H1388 C1398 0.930 . S
H1389 C1399 0.930 . S
C1390 H1384 0.930 . S
C1390 C1391 1.355 . S
C1390 C1392 1.415 . S
C1391 C1390 1.355 . S
C1391 C1393 1.419 . S
C1392 C1390 1.415 . S
C1392 C1397 1.425 . S
C1392 C1399 1.409 . S
C1393 H1385 0.930 . S
C1393 C1391 1.419 . S
C1393 C1394 1.362 . S
C1394 H1386 0.930 . S
C1394 C1393 1.362 . S
C1394 C1397 1.409 . S
C1395 H1387 0.930 . S
C1395 C1396 1.355 . S
C1395 C1397 1.415 . S
C1396 C1395 1.355 . S
C1396 C1398 1.419 . S
C1397 C1392 1.425 . S
C1397 C1394 1.409 . S
C1397 C1395 1.415 . S
C1398 H1388 0.930 . S
C1398 C1396 1.419 . S
C1398 C1399 1.362 . S
C1399 H1389 0.930 . S
C1399 C1392 1.409 . S
C1399 C1398 1.362 . S
H1400 C1406 0.930 . S
H1401 C1409 0.930 . S
H1402 C1410 0.930 . S
H1403 C1411 0.930 . S
H1404 C1414 0.930 . S
H1405 C1415 0.930 . S
C1406 H1400 0.930 . S
C1406 C1407 1.355 . S
C1406 C1408 1.415 . S
C1407 C1406 1.355 . S
C1407 C1409 1.419 . S
C1408 C1406 1.415 . S
C1408 C1413 1.425 . S
C1408 C1415 1.409 . S
C1409 H1401 0.930 . S
C1409 C1407 1.419 . S
C1409 C1410 1.362 . S
C1410 H1402 0.930 . S
C1410 C1409 1.362 . S
C1410 C1413 1.409 . S
C1411 H1403 0.930 . S
C1411 C1412 1.355 . S
C1411 C1413 1.415 . S
C1412 C1411 1.355 . S
C1412 C1414 1.419 . S
C1413 C1408 1.425 . S
C1413 C1410 1.409 . S
C1413 C1411 1.415 . S
C1414 H1404 0.930 . S
C1414 C1412 1.419 . S
C1414 C1415 1.362 . S
C1415 H1405 0.930 . S
C1415 C1408 1.409 . S
C1415 C1414 1.362 . S
H1416 C1422 0.930 . S
H1417 C1425 0.930 . S
H1418 C1426 0.930 . S
H1419 C1427 0.930 . S
H1420 C1430 0.930 . S
H1421 C1431 0.930 . S
C1422 H1416 0.930 . S
C1422 C1423 1.355 . S
C1422 C1424 1.415 . S
C1423 C1422 1.355 . S
C1423 C1425 1.419 . S
C1424 C1422 1.415 . S
C1424 C1429 1.425 . S
C1424 C1431 1.409 . S
C1425 H1417 0.930 . S
C1425 C1423 1.419 . S
C1425 C1426 1.362 . S
C1426 H1418 0.930 . S
C1426 C1425 1.362 . S
C1426 C1429 1.409 . S
C1427 H1419 0.930 . S
C1427 C1428 1.355 . S
C1427 C1429 1.415 . S
C1428 C1427 1.355 . S
C1428 C1430 1.419 . S
C1429 C1424 1.425 . S
C1429 C1426 1.409 . S
C1429 C1427 1.415 . S
C1430 H1420 0.930 . S
C1430 C1428 1.419 . S
C1430 C1431 1.362 . S
C1431 H1421 0.930 . S
C1431 C1424 1.409 . S
C1431 C1430 1.362 . S
H1432 C1438 0.930 . S
H1433 C1441 0.930 . S
H1434 C1442 0.930 . S
H1435 C1443 0.930 . S
H1436 C1446 0.930 . S
H1437 C1447 0.930 . S
C1438 H1432 0.930 . S
C1438 C1439 1.355 . S
C1438 C1440 1.415 . S
C1439 C1438 1.355 . S
C1439 C1441 1.419 . S
C1440 C1438 1.415 . S
C1440 C1445 1.425 . S
C1440 C1447 1.409 . S
C1441 H1433 0.930 . S
C1441 C1439 1.419 . S
C1441 C1442 1.362 . S
C1442 H1434 0.930 . S
C1442 C1441 1.362 . S
C1442 C1445 1.409 . S
C1443 H1435 0.930 . S
C1443 C1444 1.355 . S
C1443 C1445 1.415 . S
C1444 C1443 1.355 . S
C1444 C1446 1.419 . S
C1445 C1440 1.425 . S
C1445 C1442 1.409 . S
C1445 C1443 1.415 . S
C1446 H1436 0.930 . S
C1446 C1444 1.419 . S
C1446 C1447 1.362 . S
C1447 H1437 0.930 . S
C1447 C1440 1.409 . S
C1447 C1446 1.362 . S
H1448 C1454 0.930 . S
H1449 C1457 0.930 . S
H1450 C1458 0.930 . S
H1451 C1459 0.930 . S
H1452 C1462 0.930 . S
H1453 C1463 0.930 . S
C1454 H1448 0.930 . S
C1454 C1455 1.355 . S
C1454 C1456 1.415 . S
C1455 C1454 1.355 . S
C1455 C1457 1.419 . S
C1456 C1454 1.415 . S
C1456 C1461 1.425 . S
C1456 C1463 1.409 . S
C1457 H1449 0.930 . S
C1457 C1455 1.419 . S
C1457 C1458 1.362 . S
C1458 H1450 0.930 . S
C1458 C1457 1.362 . S
C1458 C1461 1.409 . S
C1459 H1451 0.930 . S
C1459 C1460 1.355 . S
C1459 C1461 1.415 . S
C1460 C1459 1.355 . S
C1460 C1462 1.419 . S
C1461 C1456 1.425 . S
C1461 C1458 1.409 . S
C1461 C1459 1.415 . S
C1462 H1452 0.930 . S
C1462 C1460 1.419 . S
C1462 C1463 1.362 . S
C1463 H1453 0.930 . S
C1463 C1456 1.409 . S
C1463 C1462 1.362 . S
H1464 C1470 0.930 . S
H1465 C1473 0.930 . S
H1466 C1474 0.930 . S
H1467 C1475 0.930 . S
H1468 C1478 0.930 . S
H1469 C1479 0.930 . S
C1470 H1464 0.930 . S
C1470 C1471 1.355 . S
C1470 C1472 1.415 . S
C1471 C1470 1.355 . S
C1471 C1473 1.419 . S
C1472 C1470 1.415 . S
C1472 C1477 1.425 . S
C1472 C1479 1.409 . S
C1473 H1465 0.930 . S
C1473 C1471 1.419 . S
C1473 C1474 1.362 . S
C1474 H1466 0.930 . S
C1474 C1473 1.362 . S
C1474 C1477 1.409 . S
C1475 H1467 0.930 . S
C1475 C1476 1.355 . S
C1475 C1477 1.415 . S
C1476 C1475 1.355 . S
C1476 C1478 1.419 . S
C1477 C1472 1.425 . S
C1477 C1474 1.409 . S
C1477 C1475 1.415 . S
C1478 H1468 0.930 . S
C1478 C1476 1.419 . S
C1478 C1479 1.362 . S
C1479 H1469 0.930 . S
C1479 C1472 1.409 . S
C1479 C1478 1.362 . S
H1480 C1486 0.930 . S
H1481 C1489 0.930 . S
H1482 C1490 0.930 . S
H1483 C1491 0.930 . S
H1484 C1494 0.930 . S
H1485 C1495 0.930 . S
C1486 H1480 0.930 . S
C1486 C1487 1.355 . S
C1486 C1488 1.415 . S
C1487 C1486 1.355 . S
C1487 C1489 1.419 . S
C1488 C1486 1.415 . S
C1488 C1493 1.425 . S
C1488 C1495 1.409 . S
C1489 H1481 0.930 . S
C1489 C1487 1.419 . S
C1489 C1490 1.362 . S
C1490 H1482 0.930 . S
C1490 C1489 1.362 . S
C1490 C1493 1.409 . S
C1491 H1483 0.930 . S
C1491 C1492 1.355 . S
C1491 C1493 1.415 . S
C1492 C1491 1.355 . S
C1492 C1494 1.419 . S
C1493 C1488 1.425 . S
C1493 C1490 1.409 . S
C1493 C1491 1.415 . S
C1494 H1484 0.930 . S
C1494 C1492 1.419 . S
C1494 C1495 1.362 . S
C1495 H1485 0.930 . S
C1495 C1488 1.409 . S
C1495 C1494 1.362 . S
H1496 C1502 0.930 . S
H1497 C1505 0.930 . S
H1498 C1506 0.930 . S
H1499 C1507 0.930 . S
H1500 C1510 0.930 . S
H1501 C1511 0.930 . S
C1502 H1496 0.930 . S
C1502 C1503 1.355 . S
C1502 C1504 1.415 . S
C1503 C1502 1.355 . S
C1503 C1505 1.419 . S
C1504 C1502 1.415 . S
C1504 C1509 1.425 . S
C1504 C1511 1.409 . S
C1505 H1497 0.930 . S
C1505 C1503 1.419 . S
C1505 C1506 1.362 . S
C1506 H1498 0.930 . S
C1506 C1505 1.362 . S
C1506 C1509 1.409 . S
C1507 H1499 0.930 . S
C1507 C1508 1.355 . S
C1507 C1509 1.415 . S
C1508 C1507 1.355 . S
C1508 C1510 1.419 . S
C1509 C1504 1.425 . S
C1509 C1506 1.409 . S
C1509 C1507 1.415 . S
C1510 H1500 0.930 . S
C1510 C1508 1.419 . S
C1510 C1511 1.362 . S
C1511 H1501 0.930 . S
C1511 C1504 1.409 . S
C1511 C1510 1.362 . S
H1512 C1518 0.930 . S
H1513 C1521 0.930 . S
H1514 C1522 0.930 . S
H1515 C1523 0.930 . S
H1516 C1526 0.930 . S
H1517 C1527 0.930 . S
C1518 H1512 0.930 . S
C1518 C1519 1.355 . S
C1518 C1520 1.415 . S
C1519 C1518 1.355 . S
C1519 C1521 1.419 . S
C1520 C1518 1.415 . S
C1520 C1525 1.425 . S
C1520 C1527 1.409 . S
C1521 H1513 0.930 . S
C1521 C1519 1.419 . S
C1521 C1522 1.362 . S
C1522 H1514 0.930 . S
C1522 C1521 1.362 . S
C1522 C1525 1.409 . S
C1523 H1515 0.930 . S
C1523 C1524 1.355 . S
C1523 C1525 1.415 . S
C1524 C1523 1.355 . S
C1524 C1526 1.419 . S
C1525 C1520 1.425 . S
C1525 C1522 1.409 . S
C1525 C1523 1.415 . S
C1526 H1516 0.930 . S
C1526 C1524 1.419 . S
C1526 C1527 1.362 . S
C1527 H1517 0.930 . S
C1527 C1520 1.409 . S
C1527 C1526 1.362 . S
H1528 C1534 0.930 . S
H1529 C1537 0.930 . S
H1530 C1538 0.930 . S
H1531 C1539 0.930 . S
H1532 C1542 0.930 . S
H1533 C1543 0.930 . S
C1534 H1528 0.930 . S
C1534 C1535 1.355 . S
C1534 C1536 1.415 . S
C1535 C1534 1.355 . S
C1535 C1537 1.419 . S
C1536 C1534 1.415 . S
C1536 C1541 1.425 . S
C1536 C1543 1.409 . S
C1537 H1529 0.930 . S
C1537 C1535 1.419 . S
C1537 C1538 1.362 . S
C1538 H1530 0.930 . S
C1538 C1537 1.362 . S
C1538 C1541 1.409 . S
C1539 H1531 0.930 . S
C1539 C1540 1.355 . S
C1539 C1541 1.415 . S
C1540 C1539 1.355 . S
C1540 C1542 1.419 . S
C1541 C1536 1.425 . S
C1541 C1538 1.409 . S
C1541 C1539 1.415 . S
C1542 H1532 0.930 . S
C1542 C1540 1.419 . S
C1542 C1543 1.362 . S
C1543 H1533 0.930 . S
C1543 C1536 1.409 . S
C1543 C1542 1.362 . S
H1544 C1550 0.930 . S
H1545 C1553 0.930 . S
H1546 C1554 0.930 . S
H1547 C1555 0.930 . S
H1548 C1558 0.930 . S
H1549 C1559 0.930 . S
C1550 H1544 0.930 . S
C1550 C1551 1.355 . S
C1550 C1552 1.415 . S
C1551 C1550 1.355 . S
C1551 C1553 1.419 . S
C1552 C1550 1.415 . S
C1552 C1557 1.425 . S
C1552 C1559 1.409 . S
C1553 H1545 0.930 . S
C1553 C1551 1.419 . S
C1553 C1554 1.362 . S
C1554 H1546 0.930 . S
C1554 C1553 1.362 . S
C1554 C1557 1.409 . S
C1555 H1547 0.930 . S
C1555 C1556 1.355 . S
C1555 C1557 1.415 . S
C1556 C1555 1.355 . S
C1556 C1558 1.419 . S
C1557 C1552 1.425 . S
C1557 C1554 1.409 . S
C1557 C1555 1.415 . S
C1558 H1548 0.930 . S
C1558 C1556 1.419 . S
C1558 C1559 1.362 . S
C1559 H1549 0.930 . S
C1559 C1552 1.409 . S
C1559 C1558 1.362 . S
H1560 C1566 0.930 . S
H1561 C1569 0.930 . S
H1562 C1570 0.930 . S
H1563 C1571 0.930 . S
H1564 C1574 0.930 . S
H1565 C1575 0.930 . S
C1566 H1560 0.930 . S
C1566 C1567 1.355 . S
C1566 C1568 1.415 . S
C1567 C1566 1.355 . S
C1567 C1569 1.419 . S
C1568 C1566 1.415 . S
C1568 C1573 1.425 . S
C1568 C1575 1.409 . S
C1569 H1561 0.930 . S
C1569 C1567 1.419 . S
C1569 C1570 1.362 . S
C1570 H1562 0.930 . S
C1570 C1569 1.362 . S
C1570 C1573 1.409 . S
C1571 H1563 0.930 . S
C1571 C1572 1.355 . S
C1571 C1573 1.415 . S
C1572 C1571 1.355 . S
C1572 C1574 1.419 . S
C1573 C1568 1.425 . S
C1573 C1570 1.409 . S
C1573 C1571 1.415 . S
C1574 H1564 0.930 . S
C1574 C1572 1.419 . S
C1574 C1575 1.362 . S
C1575 H1565 0.930 . S
C1575 C1568 1.409 . S
C1575 C1574 1.362 . S
H1576 C1582 0.930 . S
H1577 C1585 0.930 . S
H1578 C1586 0.930 . S
H1579 C1587 0.930 . S
H1580 C1590 0.930 . S
H1581 C1591 0.930 . S
C1582 H1576 0.930 . S
C1582 C1583 1.355 . S
C1582 C1584 1.415 . S
C1583 C1582 1.355 . S
C1583 C1585 1.419 . S
C1584 C1582 1.415 . S
C1584 C1589 1.425 . S
C1584 C1591 1.409 . S
C1585 H1577 0.930 . S
C1585 C1583 1.419 . S
C1585 C1586 1.362 . S
C1586 H1578 0.930 . S
C1586 C1585 1.362 . S
C1586 C1589 1.409 . S
C1587 H1579 0.930 . S
C1587 C1588 1.355 . S
C1587 C1589 1.415 . S
C1588 C1587 1.355 . S
C1588 C1590 1.419 . S
C1589 C1584 1.425 . S
C1589 C1586 1.409 . S
C1589 C1587 1.415 . S
C1590 H1580 0.930 . S
C1590 C1588 1.419 . S
C1590 C1591 1.362 . S
C1591 H1581 0.930 . S
C1591 C1584 1.409 . S
C1591 C1590 1.362 . S
H1592 C1598 0.930 . S
H1593 C1601 0.930 . S
H1594 C1602 0.930 . S
H1595 C1603 0.930 . S
H1596 C1606 0.930 . S
H1597 C1607 0.930 . S
C1598 H1592 0.930 . S
C1598 C1599 1.355 . S
C1598 C1600 1.415 . S
C1599 C1598 1.355 . S
C1599 C1601 1.419 . S
C1600 C1598 1.415 . S
C1600 C1605 1.425 . S
C1600 C1607 1.409 . S
C1601 H1593 0.930 . S
C1601 C1599 1.419 . S
C1601 C1602 1.362 . S
C1602 H1594 0.930 . S
C1602 C1601 1.362 . S
C1602 C1605 1.409 . S
C1603 H1595 0.930 . S
C1603 C1604 1.355 . S
C1603 C1605 1.415 . S
C1604 C1603 1.355 . S
C1604 C1606 1.419 . S
C1605 C1600 1.425 . S
C1605 C1602 1.409 . S
C1605 C1603 1.415 . S
C1606 H1596 0.930 . S
C1606 C1604 1.419 . S
C1606 C1607 1.362 . S
C1607 H1597 0.930 . S
C1607 C1600 1.409 . S
C1607 C1606 1.362 . S
H1608 C1614 0.930 . S
H1609 C1617 0.930 . S
H1610 C1618 0.930 . S
H1611 C1619 0.930 . S
H1612 C1622 0.930 . S
H1613 C1623 0.930 . S
C1614 H1608 0.930 . S
C1614 C1615 1.355 . S
C1614 C1616 1.415 . S
C1615 C1614 1.355 . S
C1615 C1617 1.419 . S
C1616 C1614 1.415 . S
C1616 C1621 1.425 . S
C1616 C1623 1.409 . S
C1617 H1609 0.930 . S
C1617 C1615 1.419 . S
C1617 C1618 1.362 . S
C1618 H1610 0.930 . S
C1618 C1617 1.362 . S
C1618 C1621 1.409 . S
C1619 H1611 0.930 . S
C1619 C1620 1.355 . S
C1619 C1621 1.415 . S
C1620 C1619 1.355 . S
C1620 C1622 1.419 . S
C1621 C1616 1.425 . S
C1621 C1618 1.409 . S
C1621 C1619 1.415 . S
C1622 H1612 0.930 . S
C1622 C1620 1.419 . S
C1622 C1623 1.362 . S
C1623 H1613 0.930 . S
C1623 C1616 1.409 . S
C1623 C1622 1.362 . S
H1624 C1630 0.930 . S
H1625 C1633 0.930 . S
H1626 C1634 0.930 . S
H1627 C1635 0.930 . S
H1628 C1638 0.930 . S
H1629 C1639 0.930 . S
C1630 H1624 0.930 . S
C1630 C1631 1.355 . S
C1630 C1632 1.415 . S
C1631 C1630 1.355 . S
C1631 C1633 1.419 . S
C1632 C1630 1.415 . S
C1632 C1637 1.425 . S
C1632 C1639 1.409 . S
C1633 H1625 0.930 . S
C1633 C1631 1.419 . S
C1633 C1634 1.362 . S
C1634 H1626 0.930 . S
C1634 C1633 1.362 . S
C1634 C1637 1.409 . S
C1635 H1627 0.930 . S
C1635 C1636 1.355 . S
C1635 C1637 1.415 . S
C1636 C1635 1.355 . S
C1636 C1638 1.419 . S
C1637 C1632 1.425 . S
C1637 C1634 1.409 . S
C1637 C1635 1.415 . S
C1638 H1628 0.930 . S
C1638 C1636 1.419 . S
C1638 C1639 1.362 . S
C1639 H1629 0.930 . S
C1639 C1632 1.409 . S
C1639 C1638 1.362 . S
H1640 C1646 0.930 . S
H1641 C1649 0.930 . S
H1642 C1650 0.930 . S
H1643 C1651 0.930 . S
H1644 C1654 0.930 . S
H1645 C1655 0.930 . S
C1646 H1640 0.930 . S
C1646 C1647 1.355 . S
C1646 C1648 1.415 . S
C1647 C1646 1.355 . S
C1647 C1649 1.419 . S
C1648 C1646 1.415 . S
C1648 C1653 1.425 . S
C1648 C1655 1.409 . S
C1649 H1641 0.930 . S
C1649 C1647 1.419 . S
C1649 C1650 1.362 . S
C1650 H1642 0.930 . S
C1650 C1649 1.362 . S
C1650 C1653 1.409 . S
C1651 H1643 0.930 . S
C1651 C1652 1.355 . S
C1651 C1653 1.415 . S
C1652 C1651 1.355 . S
C1652 C1654 1.419 . S
C1653 C1648 1.425 . S
C1653 C1650 1.409 . S
C1653 C1651 1.415 . S
C1654 H1644 0.930 . S
C1654 C1652 1.419 . S
C1654 C1655 1.362 . S
C1655 H1645 0.930 . S
C1655 C1648 1.409 . S
C1655 C1654 1.362 . S
H1656 C1662 0.930 . S
H1657 C1665 0.930 . S
H1658 C1666 0.930 . S
H1659 C1667 0.930 . S
H1660 C1670 0.930 . S
H1661 C1671 0.930 . S
C1662 H1656 0.930 . S
C1662 C1663 1.355 . S
C1662 C1664 1.415 . S
C1663 C1662 1.355 . S
C1663 C1665 1.419 . S
C1664 C1662 1.415 . S
C1664 C1669 1.425 . S
C1664 C1671 1.409 . S
C1665 H1657 0.930 . S
C1665 C1663 1.419 . S
C1665 C1666 1.362 . S
C1666 H1658 0.930 . S
C1666 C1665 1.362 . S
C1666 C1669 1.409 . S
C1667 H1659 0.930 . S
C1667 C1668 1.355 . S
C1667 C1669 1.415 . S
C1668 C1667 1.355 . S
C1668 C1670 1.419 . S
C1669 C1664 1.425 . S
C1669 C1666 1.409 . S
C1669 C1667 1.415 . S
C1670 H1660 0.930 . S
C1670 C1668 1.419 . S
C1670 C1671 1.362 . S
C1671 H1661 0.930 . S
C1671 C1664 1.409 . S
C1671 C1670 1.362 . S
H1672 C1678 0.930 . S
H1673 C1681 0.930 . S
H1674 C1682 0.930 . S
H1675 C1683 0.930 . S
H1676 C1686 0.930 . S
H1677 C1687 0.930 . S
C1678 H1672 0.930 . S
C1678 C1679 1.355 . S
C1678 C1680 1.415 . S
C1679 C1678 1.355 . S
C1679 C1681 1.419 . S
C1680 C1678 1.415 . S
C1680 C1685 1.425 . S
C1680 C1687 1.409 . S
C1681 H1673 0.930 . S
C1681 C1679 1.419 . S
C1681 C1682 1.362 . S
C1682 H1674 0.930 . S
C1682 C1681 1.362 . S
C1682 C1685 1.409 . S
C1683 H1675 0.930 . S
C1683 C1684 1.355 . S
C1683 C1685 1.415 . S
C1684 C1683 1.355 . S
C1684 C1686 1.419 . S
C1685 C1680 1.425 . S
C1685 C1682 1.409 . S
C1685 C1683 1.415 . S
C1686 H1676 0.930 . S
C1686 C1684 1.419 . S
C1686 C1687 1.362 . S
C1687 H1677 0.930 . S
C1687 C1680 1.409 . S
C1687 C1686 1.362 . S
H1688 C1694 0.930 . S
H1689 C1697 0.930 . S
H1690 C1698 0.930 . S
H1691 C1699 0.930 . S
H1692 C1702 0.930 . S
H1693 C1703 0.930 . S
C1694 H1688 0.930 . S
C1694 C1695 1.355 . S
C1694 C1696 1.415 . S
C1695 C1694 1.355 . S
C1695 C1697 1.419 . S
C1696 C1694 1.415 . S
C1696 C1701 1.425 . S
C1696 C1703 1.409 . S
C1697 H1689 0.930 . S
C1697 C1695 1.419 . S
C1697 C1698 1.362 . S
C1698 H1690 0.930 . S
C1698 C1697 1.362 . S
C1698 C1701 1.409 . S
C1699 H1691 0.930 . S
C1699 C1700 1.355 . S
C1699 C1701 1.415 . S
C1700 C1699 1.355 . S
C1700 C1702 1.419 . S
C1701 C1696 1.425 . S
C1701 C1698 1.409 . S
C1701 C1699 1.415 . S
C1702 H1692 0.930 . S
C1702 C1700 1.419 . S
C1702 C1703 1.362 . S
C1703 H1693 0.930 . S
C1703 C1696 1.409 . S
C1703 C1702 1.362 . S
H1704 C1710 0.930 . S
H1705 C1713 0.930 . S
H1706 C1714 0.930 . S
H1707 C1715 0.930 . S
H1708 C1718 0.930 . S
H1709 C1719 0.930 . S
C1710 H1704 0.930 . S
C1710 C1711 1.355 . S
C1710 C1712 1.415 . S
C1711 C1710 1.355 . S
C1711 C1713 1.419 . S
C1712 C1710 1.415 . S
C1712 C1717 1.425 . S
C1712 C1719 1.409 . S
C1713 H1705 0.930 . S
C1713 C1711 1.419 . S
C1713 C1714 1.362 . S
C1714 H1706 0.930 . S
C1714 C1713 1.362 . S
C1714 C1717 1.409 . S
C1715 H1707 0.930 . S
C1715 C1716 1.355 . S
C1715 C1717 1.415 . S
C1716 C1715 1.355 . S
C1716 C1718 1.419 . S
C1717 C1712 1.425 . S
C1717 C1714 1.409 . S
C1717 C1715 1.415 . S
C1718 H1708 0.930 . S
C1718 C1716 1.419 . S
C1718 C1719 1.362 . S
C1719 H1709 0.930 . S
C1719 C1712 1.409 . S
C1719 C1718 1.362 . S
H1720 C1726 0.930 . S
H1721 C1729 0.930 . S
H1722 C1730 0.930 . S
H1723 C1731 0.930 . S
H1724 C1734 0.930 . S
H1725 C1735 0.930 . S
C1726 H1720 0.930 . S
C1726 C1727 1.355 . S
C1726 C1728 1.415 . S
C1727 C1726 1.355 . S
C1727 C1729 1.419 . S
C1728 C1726 1.415 . S
C1728 C1733 1.425 . S
C1728 C1735 1.409 . S
C1729 H1721 0.930 . S
C1729 C1727 1.419 . S
C1729 C1730 1.362 . S
C1730 H1722 0.930 . S
C1730 C1729 1.362 . S
C1730 C1733 1.409 . S
C1731 H1723 0.930 . S
C1731 C1732 1.355 . S
C1731 C1733 1.415 . S
C1732 C1731 1.355 . S
C1732 C1734 1.419 . S
C1733 C1728 1.425 . S
C1733 C1730 1.409 . S
C1733 C1731 1.415 . S
C1734 H1724 0.930 . S
C1734 C1732 1.419 . S
C1734 C1735 1.362 . S
C1735 H1725 0.930 . S
C1735 C1728 1.409 . S
C1735 C1734 1.362 . S
H1736 C1742 0.930 . S
H1737 C1745 0.930 . S
H1738 C1746 0.930 . S
H1739 C1747 0.930 . S
H1740 C1750 0.930 . S
H1741 C1751 0.930 . S
C1742 H1736 0.930 . S
C1742 C1743 1.355 . S
C1742 C1744 1.415 . S
C1743 C1742 1.355 . S
C1743 C1745 1.419 . S
C1744 C1742 1.415 . S
C1744 C1749 1.425 . S
C1744 C1751 1.409 . S
C1745 H1737 0.930 . S
C1745 C1743 1.419 . S
C1745 C1746 1.362 . S
C1746 H1738 0.930 . S
C1746 C1745 1.362 . S
C1746 C1749 1.409 . S
C1747 H1739 0.930 . S
C1747 C1748 1.355 . S
C1747 C1749 1.415 . S
C1748 C1747 1.355 . S
C1748 C1750 1.419 . S
C1749 C1744 1.425 . S
C1749 C1746 1.409 . S
C1749 C1747 1.415 . S
C1750 H1740 0.930 . S
C1750 C1748 1.419 . S
C1750 C1751 1.362 . S
C1751 H1741 0.930 . S
C1751 C1744 1.409 . S
C1751 C1750 1.362 . S
C612 C330 1.495 . S
C607 C285 1.520 . S
C623 C261 1.435 . S
C628 C324 1.335 . S
C644 C292 1.508 . S
C639 C249 1.560 . S
C655 C273 1.684 . S
C660 C306 1.550 . S
C676 C344 1.961 . S
C671 C201 2.033 . S
C692 C431 1.499 . S
C687 C213 1.545 . S
C703 C225 2.079 . S
C708 C358 1.948 . S
C724 C426 1.072 . S
C719 C237 1.151 . S
C735 C153 1.981 . S
C740 C382 1.876 . S
C756 C437 1.472 . S
C751 C165 1.553 . S
C767 C177 1.961 . S
C772 C376 1.818 . S
C783 C189 1.321 . S
C788 C422 1.323 . S
C804 C478 1.285 . S
C799 C141 1.293 . S
C815 C117 1.491 . S
C820 C489 1.466 . S
C831 C105 1.242 . S
C836 C474 1.242 . S
C852 C483 1.596 . S
C847 C129 1.659 . S
C863 C57 1.668 1_455 S
C868 C528 1.572 . S
C879 C69 0.886 . S
C884 C587 0.815 . S
C895 C81 1.782 . S
C900 C544 1.644 . S
C911 C93 1.192 . S
C916 C582 1.175 . S
C932 C546 1.628 . S
C927 C9 1.715 . S
C948 C593 0.876 . S
C943 C21 0.851 . S
C959 C33 1.558 . S
C964 C522 1.488 . S
C980 C578 1.168 . S
C975 C45 1.219 . S
C996 C314 1.463 . S
C991 C4 1.394 . S
C1007 C18 1.399 . S
C1012 C318 1.404 . S
C1023 C30 1.689 . S
C1028 C338 1.628 . S
C1039 C42 1.288 . S
C1044 C333 1.229 . S
C1055 C52 1.427 1_655 S
C1060 C336 1.440 . S
C1076 C322 1.399 . S
C1071 C66 1.396 . S
C1087 C78 1.693 . S
C1092 C320 1.623 . S
C1108 C327 0.911 . S
C1103 C88 0.760 . S
C1124 C390 1.464 . S
C1119 C40 1.456 . S
C1135 C6 1.925 . S
C1140 C440 1.793 . S
C1156 C388 1.159 . S
C1151 C16 1.158 . S
C1172 C424 1.608 . S
C1167 C28 1.539 . S
C1183 C64 1.117 . S
C1188 C366 1.101 . S
C1204 C442 1.713 . S
C1199 C76 1.751 . S
C1220 C372 1.541 . S
C1215 C90 1.571 . S
C1236 C418 1.903 . S
C1231 C54 1.967 1_455 S
C1252 C410 1.533 . S
C1247 C102 1.494 . S
C1263 C114 1.386 . S
C1268 C434 1.364 . S
C1284 C370 1.107 . S
C1279 C100 1.051 . S
C1300 C396 1.270 . S
C1295 C124 1.263 . S
C1311 C138 1.325 . S
C1316 C374 1.335 . S
C1327 C136 1.201 . S
C1332 C428 1.319 . S
C1348 C385 1.276 . S
C1343 C112 1.232 . S
C1364 C379 1.564 . S
C1359 C126 1.573 . S
C1380 C462 1.716 . S
C1375 C148 1.682 . S
C1396 C494 1.476 . S
C1391 C162 1.541 . S
C1407 C174 1.934 . S
C1412 C448 1.919 . S
C1428 C492 1.429 . S
C1423 C186 1.437 . S
C1444 C480 1.722 . S
C1439 C196 1.648 . S
C1455 C210 1.514 . S
C1460 C476 1.536 . S
C1471 C222 1.978 . S
C1476 C486 1.948 . S
C1492 C470 1.054 . S
C1487 C232 0.881 . S
C1508 C535 1.321 . S
C1503 C184 1.232 . S
C1519 C150 1.680 . S
C1524 C596 1.680 . S
C1540 C530 1.148 . S
C1535 C160 1.128 . S
C1556 C580 1.482 . S
C1551 C172 1.409 . S
C1572 C526 1.047 . S
C1567 C208 0.932 . S
C1583 C220 1.517 . S
C1588 C598 1.519 . S
C1604 C541 1.493 . S
C1599 C234 1.486 . S
C1620 C574 1.661 . S
C1615 C198 1.690 . S
C1636 C566 1.666 . S
C1631 C246 1.711 . S
C1647 C258 1.792 . S
C1652 C590 1.648 . S
C1668 C532 1.327 . S
C1663 C244 1.304 . S
C1679 C268 1.523 . S
C1684 C552 1.623 . S
C1700 C514 1.598 . S
C1695 C282 1.616 . S
C1716 C584 1.470 . S
C1711 C280 1.330 . S
C1732 C500 1.240 . S
C1727 C256 1.255 . S
C1743 C270 1.548 . S
C1748 C538 1.513 . S
