# Generated by pormake.
# Topology tsx, (6,3)-cn, num edge types: 1
# Building blocks:
#     Node 0, Type 0, BuildingBlock: VOLQOD_clean_sbu_1, # of connection points: 6
#     Node 1, Type 0, BuildingBlock: VOLQOD_clean_sbu_1, # of connection points: 6
#     Node 2, Type 1, BuildingBlock: BETDIP_clean_linker_0, # of connection points: 3
#     Node 3, Type 1, BuildingBlock: BETDIP_clean_linker_0, # of connection points: 3
#     Node 4, Type 1, BuildingBlock: BETDIP_clean_linker_0, # of connection points: 3
#     Node 5, Type 1, BuildingBlock: BETDIP_clean_linker_0, # of connection points: 3
#     Edge 6, Type (0, 1), BuildingBlock: ZUJKAS_clean_linker_0, # of connection points: 2
#     Edge 7, Type (0, 1), BuildingBlock: ZUJKAS_clean_linker_0, # of connection points: 2
#     Edge 8, Type (0, 1), BuildingBlock: ZUJKAS_clean_linker_0, # of connection points: 2
#     Edge 9, Type (0, 1), BuildingBlock: ZUJKAS_clean_linker_0, # of connection points: 2
#     Edge 10, Type (0, 1), BuildingBlock: ZUJKAS_clean_linker_0, # of connection points: 2
#     Edge 11, Type (0, 1), BuildingBlock: ZUJKAS_clean_linker_0, # of connection points: 2
#     Edge 12, Type (0, 1), BuildingBlock: ZUJKAS_clean_linker_0, # of connection points: 2
#     Edge 13, Type (0, 1), BuildingBlock: ZUJKAS_clean_linker_0, # of connection points: 2
#     Edge 14, Type (0, 1), BuildingBlock: ZUJKAS_clean_linker_0, # of connection points: 2
#     Edge 15, Type (0, 1), BuildingBlock: ZUJKAS_clean_linker_0, # of connection points: 2
#     Edge 16, Type (0, 1), BuildingBlock: ZUJKAS_clean_linker_0, # of connection points: 2
#     Edge 17, Type (0, 1), BuildingBlock: ZUJKAS_clean_linker_0, # of connection points: 2
# Relax obj value: 0.057
# Max RMSD: 0.120
# Mean RMSD: 0.106
data_MOF--net-tsx--node1-VOLQOD_clean_sbu_1--node2-BETDIP_clean_linker_0--edge1-ZUJKAS_clean_linker_0
_symmetry_space_group_name_H-M    P1
_symmetry_Int_Tables_number       1
_symmetry_cell_setting            triclinic
loop_
_symmetry_equiv_pos_as_xyz
'x, y, z'
_cell_length_a     27.270809
_cell_length_b     28.296697
_cell_length_c     48.713759
_cell_angle_alpha  90.133672
_cell_angle_beta   98.675325
_cell_angle_gamma 90.248241
loop_
_atom_site_label
_atom_site_type_symbol
_atom_site_fract_x
_atom_site_fract_y
_atom_site_fract_z
_atom_type_partial_charge
O0 O 0.05002 -0.00394 0.07288 0.0
Zn1 Zn 0.06506 -0.00414 0.03351 0.0
O2 O 0.00461 0.00272 0.00637 0.0
Zn3 Zn 0.99488 0.94707 0.982 0.0
Zn4 Zn 0.94789 0.00993 0.02605 0.0
Zn5 Zn 0.01022 0.05886 0.9839 0.0
O6 O 0.98963 0.96542 0.94145 0.0
O7 O 0.00383 0.04269 0.94347 0.0
O8 O 0.10092 0.93589 0.02654 0.0
O9 O 0.05374 0.90371 0.99005 0.0
O10 O 0.93303 0.91059 0.9876 0.0
O11 O 0.90057 0.9556 0.01759 0.0
O12 O 0.91076 0.07015 0.01573 0.0
O13 O 0.11288 0.04964 0.03037 0.0
O14 O 0.9571 0.10612 0.98831 0.0
O15 O 0.07587 0.0909 0.99447 0.0
C16 C 0.01043 0.00411 0.08302 0.0
C17 C 0.99516 0.00471 0.92952 0.0
C18 C 0.89915 0.91885 0.00234 0.0
C19 C 0.09254 0.90337 0.00827 0.0
C20 C 0.91967 0.10545 0.00108 0.0
C21 C 0.11253 0.08396 0.01347 0.0
O22 O 0.96933 0.01117 0.0674 0.0
O23 O 0.54679 0.49256 0.572 0.0
Zn24 Zn 0.56071 0.49371 0.53236 0.0
O25 O 0.49951 0.49973 0.50576 0.0
Zn26 Zn 0.49025 0.44418 0.48126 0.0
Zn27 Zn 0.44346 0.5055 0.52608 0.0
Zn28 Zn 0.50318 0.55638 0.48339 0.0
O29 O 0.48767 0.46274 0.44086 0.0
O30 O 0.50084 0.54018 0.44321 0.0
O31 O 0.59777 0.43488 0.52471 0.0
O32 O 0.54822 0.39999 0.49009 0.0
O33 O 0.42755 0.40829 0.48574 0.0
O34 O 0.3958 0.45178 0.51668 0.0
O35 O 0.40608 0.56599 0.51718 0.0
O36 O 0.60661 0.54878 0.52935 0.0
O37 O 0.44674 0.60054 0.48648 0.0
O38 O 0.56645 0.59209 0.49534 0.0
C39 C 0.5072 0.49825 0.58256 0.0
C40 C 0.49381 0.50214 0.42916 0.0
C41 C 0.3938 0.41599 0.50065 0.0
C42 C 0.58821 0.40104 0.50741 0.0
C43 C 0.41149 0.60007 0.50089 0.0
C44 C 0.60404 0.58495 0.51372 0.0
O45 O 0.46556 0.50421 0.56727 0.0
H46 H 0.04341 -0.00262 0.46074 0.0
H47 H 0.98791 0.06769 0.38444 0.0
H48 H 0.08659 0.94984 0.38392 0.0
H49 H 0.99555 0.13272 0.41628 0.0
C50 C 0.97661 0.11573 0.43174 0.0
C51 C 0.04232 0.00077 0.4385 0.0
C52 C 0.06813 0.9687 0.424 0.0
C53 C 0.01482 0.03739 0.42451 0.0
C54 C 0.0114 0.041 0.39547 0.0
C55 C 0.03631 0.00876 0.38052 0.0
C56 C 0.06541 0.97346 0.39511 0.0
N57 N 0.98877 0.06861 0.43995 0.0
H58 H 0.97635 0.98037 0.55407 0.0
H59 H 0.02239 0.06403 0.62726 0.0
H60 H 0.93699 0.93734 0.63258 0.0
H61 H 0.01542 0.12318 0.59405 0.0
C62 C 0.0329 0.10636 0.57796 0.0
C63 C 0.977 0.98617 0.57612 0.0
C64 C 0.95345 0.95403 0.59179 0.0
C65 C 0.0011 0.02622 0.58859 0.0
C66 C 0.00298 0.03363 0.61733 0.0
C67 C 0.97989 0.0016 0.63338 0.0
C68 C 0.95518 0.96201 0.62038 0.0
N69 N 0.02408 0.05775 0.57176 0.0
H70 H 0.55217 0.50559 0.9606 0.0
H71 H 0.49217 0.572 0.88338 0.0
H72 H 0.58429 0.4495 0.88319 0.0
H73 H 0.49047 0.63571 0.91107 0.0
C74 C 0.47849 0.62096 0.92954 0.0
C75 C 0.5484 0.50723 0.93815 0.0
C76 C 0.57142 0.4732 0.92351 0.0
C77 C 0.52012 0.54328 0.92395 0.0
C78 C 0.51464 0.54497 0.89471 0.0
C79 C 0.53822 0.51153 0.87988 0.0
C80 C 0.56624 0.47567 0.89448 0.0
N81 N 0.49619 0.57614 0.93957 0.0
H82 H 0.47287 0.48573 0.05341 0.0
H83 H 0.52806 0.56386 0.12756 0.0
H84 H 0.43845 0.43989 0.13249 0.0
H85 H 0.51922 0.62464 0.095 0.0
C86 C 0.53617 0.60816 0.07859 0.0
C87 C 0.47608 0.48997 0.07573 0.0
C88 C 0.45157 0.45853 0.09137 0.0
C89 C 0.50297 0.5284 0.0885 0.0
C90 C 0.50677 0.53462 0.11745 0.0
C91 C 0.48303 0.50306 0.13344 0.0
C92 C 0.45585 0.46504 0.1202 0.0
N93 N 0.52619 0.55992 0.07175 0.0
H94 H 0.13618 0.14607 0.97472 0.0
H95 H 0.20216 0.20547 0.9804 0.0
H96 H 0.24869 0.15857 0.06448 0.0
H97 H 0.18389 0.09796 0.05862 0.0
H98 H 0.20938 0.27717 0.0144 0.0
H99 H 0.38057 0.17228 0.03885 0.0
H100 H 0.32166 0.14573 0.02502 0.0
H101 H 0.3372 0.15736 0.06171 0.0
C102 C 0.16095 0.14793 0.99429 0.0
C103 C 0.15476 0.11741 0.01627 0.0
C104 C 0.19871 0.18183 0.99747 0.0
C105 C 0.23086 0.1861 0.02272 0.0
C106 C 0.22531 0.1551 0.04453 0.0
H107 H 0.36064 0.43104 0.10217 0.0
H108 H 0.30967 0.36542 0.08169 0.0
C109 C 0.18794 0.12071 0.04124 0.0
C110 C 0.26661 0.22599 0.02722 0.0
H111 H 0.38624 0.25419 0.05374 0.0
C112 C 0.24825 0.27202 0.02253 0.0
C113 C 0.31755 0.21942 0.03733 0.0
C114 C 0.34047 0.17096 0.04071 0.0
C115 C 0.27874 0.31163 0.02915 0.0
C116 C 0.32855 0.30505 0.04149 0.0
C117 C 0.34778 0.25913 0.04467 0.0
C118 C 0.35984 0.34515 0.05332 0.0
C119 C 0.25701 0.36016 0.02322 0.0
C120 C 0.40567 0.35476 0.04466 0.0
C121 C 0.43545 0.39198 0.05672 0.0
C122 C 0.41996 0.41977 0.07777 0.0
C123 C 0.37394 0.40996 0.08625 0.0
C124 C 0.34443 0.37284 0.0743 0.0
H125 H 0.22571 0.35918 0.00574 0.0
H126 H 0.24235 0.37332 0.04185 0.0
H127 H 0.28537 0.3856 0.01809 0.0
H128 H 0.41838 0.33345 0.02865 0.0
H129 H 0.47094 0.39842 0.04995 0.0
H130 H 0.17598 0.88566 0.04576 0.0
H131 H 0.24358 0.83166 0.04009 0.0
H132 H 0.16408 0.78562 0.96121 0.0
H133 H 0.09587 0.83838 0.96699 0.0
H134 H 0.21058 0.71238 0.99102 0.0
H135 H 0.3403 0.8636 0.98718 0.0
H136 H 0.31328 0.85955 0.0185 0.0
H137 H 0.27447 0.87155 0.98607 0.0
C138 C 0.1726 0.86363 0.02735 0.0
C139 C 0.13074 0.8668 0.00666 0.0
C140 C 0.2114 0.83298 0.02409 0.0
C141 C 0.20935 0.80547 -7e-05 0.0
C142 C 0.16655 0.80675 0.97996 0.0
H143 H 0.43171 0.70121 0.91128 0.0
H144 H 0.36832 0.74409 0.93169 0.0
C145 C 0.12757 0.83702 0.98329 0.0
C146 C 0.25256 0.77727 0.99448 0.0
H147 H 0.37199 0.78757 0.98195 0.0
C148 C 0.24607 0.72866 0.98927 0.0
C149 C 0.29861 0.7988 0.99194 0.0
C150 C 0.30718 0.85128 0.99596 0.0
C151 C 0.28395 0.70117 0.98087 0.0
C152 C 0.32988 0.72279 0.9782 0.0
C153 C 0.33682 0.77109 0.98418 0.0
C154 C 0.36961 0.6971 0.96681 0.0
C155 C 0.27362 0.64981 0.97368 0.0
C156 C 0.39199 0.6569 0.98003 0.0
C157 C 0.42798 0.63212 0.96824 0.0
C158 C 0.44243 0.64758 0.94322 0.0
C159 C 0.42109 0.68856 0.93053 0.0
C160 C 0.38497 0.71306 0.94219 0.0
H161 H 0.23333 0.64143 0.97104 0.0
H162 H 0.28795 0.64018 0.95427 0.0
H163 H 0.2926 0.62742 0.99068 0.0
H164 H 0.38151 0.64461 -0.00063 0.0
H165 H 0.44419 0.60085 0.97863 0.0
H166 H 0.82021 0.92651 0.03046 0.0
H167 H 0.75529 0.86836 0.03374 0.0
H168 H 0.81857 0.77561 0.97823 0.0
H169 H 0.88455 0.83357 0.97504 0.0
H170 H 0.68452 0.82616 0.99232 0.0
H171 H 0.81442 0.69439 0.04795 0.0
H172 H 0.83227 0.75514 0.0438 0.0
H173 H 0.82797 0.71489 0.01499 0.0
C174 C 0.82043 0.89388 0.01881 0.0
C175 C 0.85799 0.88456 0.00269 0.0
C176 C 0.7831 0.86072 0.02066 0.0
C177 C 0.78249 0.81749 0.00651 0.0
C178 C 0.81888 0.80851 0.98966 0.0
H179 H 0.58906 0.57999 0.03755 0.0
H180 H 0.64553 0.62858 0.01464 0.0
C181 C 0.85641 0.84175 0.98779 0.0
C182 C 0.74455 0.78162 0.01052 0.0
H183 H 0.7295 0.67644 0.04247 0.0
C184 C 0.69431 0.79311 0.00295 0.0
C185 C 0.75749 0.73846 0.02428 0.0
C186 C 0.8109 0.72486 0.03344 0.0
C187 C 0.65663 0.76333 0.00967 0.0
C188 C 0.66965 0.72143 0.0247 0.0
C189 C 0.71974 0.70869 0.03098 0.0
C190 C 0.63245 0.69281 0.03656 0.0
C191 C 0.60323 0.77738 0.00109 0.0
C192 C 0.60661 0.71286 0.0565 0.0
C193 C 0.57466 0.68524 0.06968 0.0
C194 C 0.56808 0.63709 0.06322 0.0
C195 C 0.59335 0.61709 0.04292 0.0
C196 C 0.62555 0.64475 0.0298 0.0
H197 H 0.59902 0.80144 0.9829 0.0
H198 H 0.57915 0.74588 0.99588 0.0
H199 H 0.59005 0.79637 0.01854 0.0
H200 H 0.61224 0.74962 0.06245 0.0
H201 H 0.55575 0.70138 0.08532 0.0
H202 H 0.93535 0.19308 0.98059 0.0
H203 H 0.87726 0.25892 0.97387 0.0
H204 H 0.76791 0.17531 0.00754 0.0
H205 H 0.82632 0.10972 0.01511 0.0
H206 H 0.79116 0.25927 0.94057 0.0
H207 H 0.7579 0.29881 0.0476 0.0
H208 H 0.80831 0.2619 0.0404 0.0
H209 H 0.74661 0.23792 0.03831 0.0
C210 C 0.89915 0.18885 0.98688 0.0
C211 C 0.88542 0.14612 0.99834 0.0
C212 C 0.86603 0.22657 0.98308 0.0
C213 C 0.81848 0.2223 0.99055 0.0
C214 C 0.80484 0.17989 0.0023 0.0
H215 H 0.56509 0.37885 0.91298 0.0
H216 H 0.62386 0.31786 0.93195 0.0
C217 C 0.83815 0.14227 0.0064 0.0
C218 C 0.78186 0.26064 0.98371 0.0
H219 H 0.70049 0.33234 0.0107 0.0
C220 C 0.77168 0.27547 0.95598 0.0
C221 C 0.75682 0.28214 0.00387 0.0
C222 C 0.7683 0.26974 0.03425 0.0
C223 C 0.73646 0.31048 0.94771 0.0
C224 C 0.70963 0.33029 0.96758 0.0
C225 C 0.72059 0.31646 0.99547 0.0
C226 C 0.67025 0.36552 0.95949 0.0
C227 C 0.72873 0.32626 0.91778 0.0
C228 C 0.67535 0.41185 0.96994 0.0
C229 C 0.64144 0.44665 0.95935 0.0
C230 C 0.60222 0.43546 0.93814 0.0
C231 C 0.5955 0.38842 0.92904 0.0
C232 C 0.62904 0.35368 0.93978 0.0
H233 H 0.76107 0.31749 0.90734 0.0
H234 H 0.69574 0.3079 0.90638 0.0
H235 H 0.72226 0.36494 0.91616 0.0
H236 H 0.70681 0.42154 0.98529 0.0
H237 H 0.64738 0.48272 0.96665 0.0
H238 H 0.61216 0.66528 0.48357 0.0
H239 H 0.67761 0.72514 0.49106 0.0
H240 H 0.75333 0.64472 0.55963 0.0
H241 H 0.68844 0.58426 0.55215 0.0
H242 H 0.70164 0.77703 0.53947 0.0
H243 H 0.86526 0.67802 0.5156 0.0
H244 H 0.80238 0.65759 0.50503 0.0
H245 H 0.83241 0.649 0.54012 0.0
C246 C 0.64298 0.65997 0.50007 0.0
C247 C 0.64498 0.61998 0.51731 0.0
C248 C 0.68037 0.6942 0.50427 0.0
C249 C 0.72058 0.68899 0.52563 0.0
C250 C 0.72315 0.64886 0.54263 0.0
H251 H 0.9525 0.86312 0.61065 0.0
H252 H 0.89744 0.79876 0.59157 0.0
C253 C 0.68579 0.61453 0.53845 0.0
C254 C 0.75756 0.72741 0.53164 0.0
H255 H 0.88151 0.75206 0.53902 0.0
C256 C 0.74091 0.77181 0.53903 0.0
C257 C 0.8087 0.72026 0.53114 0.0
C258 C 0.82831 0.67376 0.5223 0.0
C259 C 0.77424 0.80895 0.54688 0.0
C260 C 0.82548 0.80164 0.54678 0.0
C261 C 0.84214 0.75747 0.53895 0.0
C262 C 0.86237 0.83883 0.55627 0.0
C263 C 0.75451 0.85511 0.55623 0.0
C264 C 0.86185 0.88207 0.5422 0.0
C265 C 0.89287 0.91905 0.55319 0.0
C266 C 0.92508 0.91321 0.57835 0.0
C267 C 0.9274 0.86893 0.59152 0.0
C268 C 0.8963 0.83205 0.58055 0.0
H269 H 0.71597 0.85149 0.56081 0.0
H270 H 0.7784 0.86875 0.57509 0.0
H271 H 0.75438 0.88172 0.53953 0.0
H272 H 0.83637 0.88765 0.52319 0.0
H273 H 0.8901 0.95278 0.54261 0.0
H274 H 0.57623 0.31609 0.48029 0.0
H275 H 0.64088 0.26002 0.47289 0.0
H276 H 0.75072 0.34789 0.52194 0.0
H277 H 0.68618 0.40328 0.53018 0.0
H278 H 0.71471 0.27895 0.44555 0.0
H279 H 0.79397 0.21992 0.55102 0.0
H280 H 0.7357 0.25086 0.54401 0.0
H281 H 0.79346 0.2831 0.54831 0.0
C282 C 0.61401 0.323 0.48997 0.0
C283 C 0.62606 0.36422 0.50577 0.0
C284 C 0.65092 0.29091 0.48573 0.0
C285 C 0.70063 0.29945 0.49707 0.0
C286 C 0.71253 0.33985 0.51355 0.0
H287 H 0.95343 0.20798 0.424 0.0
H288 H 0.88701 0.25171 0.4413 0.0
C289 C 0.67555 0.3717 0.51809 0.0
C290 C 0.74043 0.26899 0.48919 0.0
H291 H 0.84419 0.20689 0.51514 0.0
C292 C 0.74267 0.26277 0.4608 0.0
C293 C 0.77668 0.24747 0.50905 0.0
C294 C 0.77458 0.25025 0.53978 0.0
C295 C 0.78076 0.23671 0.45172 0.0
C296 C 0.81855 0.21747 0.47158 0.0
C297 C 0.81562 0.22238 0.49997 0.0
C298 C 0.86129 0.1921 0.46311 0.0
C299 C 0.77981 0.22972 0.42091 0.0
C300 C 0.87027 0.14477 0.47072 0.0
C301 C 0.90862 0.11995 0.46117 0.0
C302 C 0.9385 0.1422 0.44386 0.0
C303 C 0.93057 0.18999 0.4371 0.0
C304 C 0.89253 0.21486 0.44683 0.0
H305 H 0.74185 0.23427 0.40925 0.0
H306 H 0.80425 0.25645 0.41317 0.0
H307 H 0.79333 0.19404 0.41629 0.0
H308 H 0.84678 0.12667 0.48343 0.0
H309 H 0.91398 0.08313 0.46679 0.0
H310 H 0.31367 0.42402 0.52774 0.0
H311 H 0.24857 0.36586 0.53053 0.0
H312 H 0.31343 0.27302 0.47571 0.0
H313 H 0.37959 0.33103 0.473 0.0
H314 H 0.17861 0.32231 0.48869 0.0
H315 H 0.30952 0.1933 0.54628 0.0
H316 H 0.32655 0.25419 0.54186 0.0
H317 H 0.32338 0.21349 0.51332 0.0
C318 C 0.31416 0.3914 0.51611 0.0
C319 C 0.35225 0.38201 0.50037 0.0
C320 C 0.27672 0.35826 0.51766 0.0
C321 C 0.27657 0.31498 0.50361 0.0
C322 C 0.31338 0.306 0.48704 0.0
H323 H 0.0863 0.07718 0.53743 0.0
H324 H 0.14188 0.1254 0.51376 0.0
C325 C 0.351 0.33925 0.48544 0.0
C326 C 0.23897 0.27888 0.50769 0.0
H327 H 0.22479 0.17488 0.54102 0.0
C328 C 0.18865 0.28971 0.49977 0.0
C329 C 0.25227 0.23634 0.52205 0.0
C330 C 0.30579 0.2235 0.53159 0.0
C331 C 0.1512 0.25993 0.50676 0.0
C332 C 0.16457 0.21876 0.52244 0.0
C333 C 0.21478 0.2066 0.52904 0.0
C334 C 0.12761 0.19038 0.53461 0.0
C335 C 0.09768 0.27322 0.49781 0.0
C336 C 0.10138 0.211 0.5542 0.0
C337 C 0.06992 0.18358 0.56783 0.0
C338 C 0.06425 0.13509 0.56217 0.0
C339 C 0.08987 0.11454 0.54219 0.0
C340 C 0.12156 0.142 0.52863 0.0
H341 H 0.09339 0.2965 0.47927 0.0
H342 H 0.07403 0.24133 0.49298 0.0
H343 H 0.08407 0.29279 0.51491 0.0
H344 H 0.10639 0.24806 0.55956 0.0
H345 H 0.0507 0.20014 0.58321 0.0
H346 H 0.39999 0.66954 0.46167 0.0
H347 H 0.34013 0.73383 0.45697 0.0
H348 H 0.28335 0.68563 0.53009 0.0
H349 H 0.34229 0.62014 0.5345 0.0
H350 H 0.20977 0.70488 0.48961 0.0
H351 H 0.34143 0.85486 0.50004 0.0
H352 H 0.35371 0.81534 0.47313 0.0
H353 H 0.36084 0.79509 0.50856 0.0
C354 C 0.37507 0.67276 0.4769 0.0
C355 C 0.37603 0.63979 0.49851 0.0
C356 C 0.3411 0.7098 0.47431 0.0
C357 C 0.30804 0.7152 0.49355 0.0
C358 C 0.30883 0.68234 0.51515 0.0
H359 H 0.12897 0.97307 0.47426 0.0
H360 H 0.18282 0.9108 0.49659 0.0
C361 C 0.34249 0.64493 0.51761 0.0
C362 C 0.27088 0.7536 0.49004 0.0
H363 H 0.25838 0.8717 0.47726 0.0
C364 C 0.2204 0.7415 0.48738 0.0
C365 C 0.28468 0.80154 0.48782 0.0
C366 C 0.33816 0.81752 0.49286 0.0
C367 C 0.18336 0.77562 0.48085 0.0
C368 C 0.19725 0.8228 0.4761 0.0
C369 C 0.24768 0.8354 0.48047 0.0
C370 C 0.16062 0.85874 0.46443 0.0
C371 C 0.12979 0.76059 0.47885 0.0
C372 C 0.13003 0.85006 0.43908 0.0
C373 C 0.09881 0.88522 0.42651 0.0
C374 C 0.0982 0.93024 0.43875 0.0
C375 C 0.12817 0.93865 0.46444 0.0
C376 C 0.15917 0.90321 0.47714 0.0
H377 H 0.12578 0.73012 0.4927 0.0
H378 H 0.10617 0.78992 0.4844 0.0
H379 H 0.11593 0.74916 0.45726 0.0
H380 H 0.13136 0.81649 0.42851 0.0
H381 H 0.07569 0.87733 0.40694 0.0
H382 H 0.08547 0.97516 0.12322 0.0
H383 H 0.0875 0.97775 0.17357 0.0
H384 H 0.94255 0.04164 0.16226 0.0
H385 H 0.93952 0.03787 0.11196 0.0
H386 H 0.08396 0.05115 0.20841 0.0
H387 H 0.92236 0.9334 0.21282 0.0
H388 H 0.9507 0.9398 0.18189 0.0
H389 H 0.90774 0.98346 0.19063 0.0
C390 C 0.05391 0.98955 0.13144 0.0
C391 C 0.01214 0.0059 0.11355 0.0
C392 C 0.05516 0.99107 0.16022 0.0
C393 C 0.01481 0.00911 0.17168 0.0
C394 C 0.97354 0.02638 0.15389 0.0
H395 H 0.03302 0.0874 0.34715 0.0
H396 H 0.02583 0.08968 0.29646 0.0
C397 C 0.972 0.02441 0.12512 0.0
C398 C 0.01629 0.01043 0.20225 0.0
H399 H 0.95477 0.97367 0.25448 0.0
C400 C 0.05579 0.03413 0.21851 0.0
C401 C 0.97977 0.98776 0.21541 0.0
C402 C 0.93803 0.95927 0.19933 0.0
C403 C 0.05978 0.03585 0.24757 0.0
C404 C 0.0225 0.01432 0.26067 0.0
C405 C 0.98302 0.99061 0.24439 0.0
C406 C 0.02503 0.01365 0.29131 0.0
C407 C 0.10466 0.05946 0.26397 0.0
C408 C 0.02499 0.97026 0.30515 0.0
C409 C 0.02797 0.96885 0.33397 0.0
C410 C 0.03136 0.01086 0.34969 0.0
C411 C 0.03037 0.05439 0.33572 0.0
C412 C 0.02694 0.05576 0.30677 0.0
H413 H 0.13557 0.0628 0.25161 0.0
H414 H 0.09453 0.09555 0.27 0.0
H415 H 0.11812 0.03945 0.2832 0.0
H416 H 0.02307 0.93732 0.29364 0.0
H417 H 0.02741 0.93471 0.34393 0.0
H418 H 0.97397 0.93239 0.89185 0.0
H419 H 0.97244 0.93576 0.84154 0.0
H420 H 0.01058 0.08385 0.84771 0.0
H421 H 0.01132 0.08118 0.89781 0.0
H422 H 0.93561 0.06538 0.80514 0.0
H423 H 0.09268 0.94292 0.80121 0.0
H424 H 0.04394 0.91817 0.81774 0.0
H425 H 0.07894 0.96796 0.83328 0.0
C426 C 0.98203 0.96569 0.88253 0.0
C427 C 0.99297 0.00645 0.89894 0.0
C428 C 0.98146 0.96747 0.85378 0.0
C429 C 0.99228 0.00987 0.84097 0.0
C430 C 0.0024 0.05072 0.85721 0.0
H431 H 0.05938 0.02835 0.67167 0.0
H432 H 0.06278 0.03518 0.72209 0.0
C433 C 0.0028 0.04906 0.88588 0.0
C434 C 0.9923 0.012 0.81057 0.0
H435 H 0.04567 0.96436 0.75787 0.0
C436 C 0.95983 0.04346 0.7948 0.0
C437 C 0.02458 0.98402 0.79721 0.0
C438 C 0.06238 0.9517 0.81323 0.0
C439 C 0.95786 0.04683 0.76592 0.0
C440 C 0.98854 0.0173 0.75241 0.0
C441 C 0.0219 0.98671 0.76825 0.0
C442 C 0.98566 0.01649 0.72179 0.0
C443 C 0.92332 0.08234 0.7502 0.0
C444 C 0.94117 0.00392 0.70493 0.0
C445 C 0.93902 0.00041 0.67619 0.0
C446 C 0.98151 0.00888 0.66372 0.0
C447 C 0.0259 0.02213 0.68061 0.0
C448 C 0.02798 0.02572 0.70941 0.0
H449 H 0.91417 0.1113 0.76399 0.0
H450 H 0.93977 0.09803 0.73279 0.0
H451 H 0.88814 0.06439 0.74147 0.0
H452 H 0.9083 -0.0042 0.71406 0.0
H453 H 0.90413 0.99061 0.66374 0.0
H454 H 0.43056 0.51089 0.61216 0.0
H455 H 0.43454 0.51444 0.66252 0.0
H456 H 0.59248 0.49179 0.67283 0.0
H457 H 0.58898 0.48772 0.62238 0.0
H458 H 0.54128 0.43491 0.70724 0.0
H459 H 0.49134 0.62445 0.7132 0.0
H460 H 0.44894 0.58951 0.68952 0.0
H461 H 0.51126 0.59872 0.68279 0.0
C462 C 0.46624 0.50667 0.62507 0.0
C463 C 0.50953 0.49921 0.61316 0.0
C464 C 0.46842 0.50902 0.65387 0.0
C465 C 0.5139 0.50419 0.67134 0.0
C466 C 0.55706 0.49593 0.65964 0.0
H467 H 0.61241 0.50166 0.84855 0.0
H468 H 0.60533 0.50009 0.79795 0.0
C469 C 0.55496 0.49361 0.63081 0.0
C470 C 0.51629 0.5068 0.70187 0.0
H471 H 0.49652 0.58027 0.75481 0.0
C472 C 0.53168 0.46671 0.71768 0.0
C473 C 0.50343 0.5483 0.71535 0.0
C474 C 0.4882 0.59288 0.69943 0.0
C475 C 0.53411 0.46681 0.74665 0.0
C476 C 0.52173 0.50845 0.76017 0.0
C477 C 0.50596 0.54844 0.74435 0.0
C478 C 0.52602 0.51136 0.79079 0.0
C479 C 0.5491 0.42209 0.76249 0.0
C480 C 0.48402 0.51997 0.80352 0.0
C481 C 0.48797 0.52102 0.83249 0.0
C482 C 0.53405 0.51359 0.84916 0.0
C483 C 0.57624 0.50652 0.83626 0.0
C484 C 0.57227 0.50556 0.80737 0.0
H485 H 0.54429 0.39045 0.74878 0.0
H486 H 0.58884 0.42458 0.77162 0.0
H487 H 0.52709 0.41696 0.77968 0.0
H488 H 0.44804 0.52485 0.79103 0.0
H489 H 0.4548 0.52634 0.84183 0.0
H490 H 0.47349 0.43049 0.39096 0.0
H491 H 0.47493 0.4344 0.3409 0.0
H492 H 0.5171 0.58145 0.34866 0.0
H493 H 0.51477 0.57826 0.39846 0.0
H494 H 0.4436 0.56635 0.30564 0.0
H495 H 0.59573 0.43849 0.30135 0.0
H496 H 0.54558 0.4147 0.31709 0.0
H497 H 0.58201 0.46292 0.33358 0.0
C498 C 0.48316 0.46364 0.38203 0.0
C499 C 0.49411 0.50401 0.39878 0.0
C500 C 0.48432 0.46572 0.35344 0.0
C501 C 0.497 0.50801 0.34114 0.0
C502 C 0.50748 0.5484 0.35775 0.0
H503 H 0.56458 0.52585 0.17147 0.0
H504 H 0.56936 0.53181 0.22205 0.0
C505 C 0.50609 0.54646 0.38624 0.0
C506 C 0.49788 0.51073 0.31083 0.0
H507 H 0.54968 0.46167 0.25794 0.0
C508 C 0.46702 0.54366 0.29523 0.0
C509 C 0.52914 0.48174 0.29736 0.0
C510 C 0.56538 0.4478 0.31322 0.0
C511 C 0.46552 0.54747 0.26641 0.0
C512 C 0.49491 0.51683 0.25275 0.0
C513 C 0.52685 0.48485 0.26843 0.0
C514 C 0.49164 0.51608 0.22211 0.0
C515 C 0.43272 0.58451 0.2509 0.0
C516 C 0.44642 0.50534 0.20545 0.0
C517 C 0.44351 0.50234 0.17666 0.0
C518 C 0.48593 0.50944 0.16393 0.0
C519 C 0.53116 0.5207 0.18063 0.0
C520 C 0.53401 0.52379 0.20951 0.0
H521 H 0.42514 0.61385 0.26485 0.0
H522 H 0.44979 0.59946 0.2335 0.0
H523 H 0.39663 0.56818 0.24219 0.0
H524 H 0.41346 0.49839 0.21475 0.0
H525 H 0.408 0.49409 0.16436 0.0
loop_
_geom_bond_atom_site_label_1
_geom_bond_atom_site_label_2
_geom_bond_distance
_geom_bond_site_symmetry_2
_ccdc_geom_bond_type
O0 Zn1 1.953 1_565 S
O0 C16 1.225 1_565 S
Zn1 O0 1.953 1_545 S
Zn1 O2 1.949 . S
Zn1 O8 1.919 1_545 S
Zn1 O13 1.924 . S
O2 Zn1 1.949 . S
O2 Zn3 1.923 1_444 S
O2 Zn4 1.950 1_455 S
O2 Zn5 1.945 1_554 S
Zn3 O2 1.923 1_666 S
Zn3 O6 1.933 . S
Zn3 O9 1.941 1_655 S
Zn3 O10 1.965 . S
Zn4 O2 1.950 1_655 S
Zn4 O11 1.938 1_545 S
Zn4 O12 1.906 . S
Zn4 O22 1.953 . S
Zn5 O2 1.945 1_556 S
Zn5 O7 1.932 . S
Zn5 O14 1.977 1_455 S
Zn5 O15 1.920 . S
O6 Zn3 1.933 . S
O6 C17 1.226 1_665 S
O7 Zn5 1.932 . S
O7 C17 1.307 . S
O8 Zn1 1.919 1_565 S
O8 C19 1.253 . S
O9 Zn3 1.941 1_455 S
O9 C19 1.283 1_556 S
O10 Zn3 1.965 . S
O10 C18 1.303 1_556 S
O11 Zn4 1.938 1_565 S
O11 C18 1.247 . S
O12 Zn4 1.906 . S
O12 C20 1.304 1_554 S
O13 Zn1 1.924 . S
O13 C21 1.311 . S
O14 Zn5 1.977 1_655 S
O14 C20 1.272 . S
O15 Zn5 1.920 . S
O15 C21 1.204 1_556 S
C16 O0 1.225 1_545 S
C16 O22 1.298 1_455 S
C17 O6 1.226 1_445 S
C17 O7 1.307 . S
C18 O10 1.303 1_554 S
C18 O11 1.247 . S
C19 O8 1.253 . S
C19 O9 1.283 1_554 S
C20 O12 1.304 1_556 S
C20 O14 1.272 . S
C21 O13 1.311 . S
C21 O15 1.204 1_554 S
O22 Zn4 1.953 . S
O22 C16 1.298 1_655 S
O23 Zn24 1.953 . S
O23 C39 1.225 . S
Zn24 O23 1.953 . S
Zn24 O25 1.949 . S
Zn24 O31 1.919 . S
Zn24 O36 1.924 . S
O25 Zn24 1.949 . S
O25 Zn26 1.923 . S
O25 Zn27 1.950 . S
O25 Zn28 1.945 . S
Zn26 O25 1.923 . S
Zn26 O29 1.933 . S
Zn26 O32 1.941 . S
Zn26 O33 1.965 . S
Zn27 O25 1.950 . S
Zn27 O34 1.938 . S
Zn27 O35 1.906 . S
Zn27 O45 1.953 . S
Zn28 O25 1.945 . S
Zn28 O30 1.932 . S
Zn28 O37 1.977 . S
Zn28 O38 1.910 . S
O29 Zn26 1.933 . S
O29 C40 1.226 . S
O30 Zn28 1.932 . S
O30 C40 1.307 . S
O31 Zn24 1.919 . S
O31 C42 1.253 . S
O32 Zn26 1.941 . S
O32 C42 1.283 . S
O33 Zn26 1.965 . S
O33 C41 1.303 . S
O34 Zn27 1.938 . S
O34 C41 1.247 . S
O35 Zn27 1.906 . S
O35 C43 1.304 . S
O36 Zn24 1.924 . S
O36 C44 1.311 . S
O37 Zn28 1.977 . S
O37 C43 1.272 . S
O38 Zn28 1.910 . S
O38 C44 1.231 . S
C39 O23 1.225 . S
C39 O45 1.298 . S
C40 O29 1.226 . S
C40 O30 1.307 . S
C41 O33 1.303 . S
C41 O34 1.247 . S
C42 O31 1.253 . S
C42 O32 1.283 . S
C43 O35 1.304 . S
C43 O37 1.272 . S
C44 O36 1.311 . S
C44 O38 1.231 . S
O45 Zn27 1.953 . S
O45 C39 1.298 . S
H46 C51 0.930 . S
H47 C54 0.930 . S
H48 C56 0.930 . S
H49 C50 1.016 . S
C50 H49 1.016 . S
C50 N57 1.286 . S
C51 H46 0.930 . S
C51 C52 1.397 . S
C51 C53 1.361 1_465 S
C52 C51 1.397 . S
C52 C56 1.390 . S
C53 C51 1.361 1_645 S
C53 C54 1.393 . S
C53 N57 1.413 . S
C54 H47 0.930 . S
C54 C53 1.393 . S
C54 C55 1.399 1_655 S
C55 C54 1.399 1_455 S
C55 C56 1.381 1_545 S
C56 H48 0.930 . S
C56 C52 1.390 . S
C56 C55 1.381 1_565 S
N57 C50 1.286 . S
N57 C53 1.413 . S
H58 C63 0.930 . S
H59 C66 0.930 . S
H60 C68 0.930 . S
H61 C62 1.016 . S
C62 H61 1.016 . S
C62 N69 1.286 . S
C63 H58 0.930 . S
C63 C64 1.397 1_455 S
C63 C65 1.361 1_565 S
C64 C63 1.397 1_655 S
C64 C68 1.390 . S
C65 C63 1.361 1_545 S
C65 C66 1.393 . S
C65 N69 1.413 . S
C66 H59 0.930 . S
C66 C65 1.393 . S
C66 C67 1.399 . S
C67 C66 1.399 . S
C67 C68 1.381 1_445 S
C68 H60 0.930 . S
C68 C64 1.390 . S
C68 C67 1.381 1_665 S
N69 C62 1.286 . S
N69 C65 1.413 . S
H70 C75 0.930 . S
H71 C78 0.930 . S
H72 C80 0.930 . S
H73 C74 1.016 . S
C74 H73 1.016 . S
C74 N81 1.286 . S
C75 H70 0.930 . S
C75 C76 1.397 . S
C75 C77 1.361 . S
C76 C75 1.397 . S
C76 C80 1.390 . S
C77 C75 1.361 . S
C77 C78 1.393 . S
C77 N81 1.413 . S
C78 H71 0.930 . S
C78 C77 1.393 . S
C78 C79 1.399 . S
C79 C78 1.399 . S
C79 C80 1.381 . S
C80 H72 0.930 . S
C80 C76 1.390 . S
C80 C79 1.381 . S
N81 C74 1.286 . S
N81 C77 1.413 . S
H82 C87 0.930 . S
H83 C90 0.930 . S
H84 C92 0.930 . S
H85 C86 1.016 . S
C86 H85 1.016 . S
C86 N93 1.286 . S
C87 H82 0.930 . S
C87 C88 1.397 . S
C87 C89 1.361 . S
C88 C87 1.397 . S
C88 C92 1.390 . S
C89 C87 1.361 . S
C89 C90 1.393 . S
C89 N93 1.413 . S
C90 H83 0.930 . S
C90 C89 1.393 . S
C90 C91 1.399 . S
C91 C90 1.399 . S
C91 C92 1.381 . S
C92 H84 0.930 . S
C92 C88 1.390 . S
C92 C91 1.381 . S
N93 C86 1.286 . S
N93 C89 1.413 . S
H94 C102 0.929 1_556 S
H95 C104 0.930 . S
H96 C106 0.930 . S
H97 C109 0.929 . S
H98 C112 0.930 . S
H99 C114 0.960 . S
H100 C114 0.960 . S
H101 C114 0.960 . S
C102 H94 0.929 1_554 S
C102 C103 1.377 . S
C102 C104 1.384 . S
C103 C102 1.377 . S
C103 C109 1.390 . S
C104 H95 0.930 . S
C104 C102 1.384 . S
C104 C105 1.372 . S
C105 C104 1.372 . S
C105 C106 1.400 . S
C105 C110 1.490 . S
C106 H96 0.930 . S
C106 C105 1.400 . S
C106 C109 1.386 . S
H107 C123 0.930 . S
H108 C124 0.931 . S
C109 H97 0.929 . S
C109 C103 1.390 . S
C109 C106 1.386 . S
C110 C105 1.490 . S
C110 C112 1.395 . S
C110 C113 1.403 . S
H111 C117 0.930 . S
C112 H98 0.930 . S
C112 C110 1.395 . S
C112 C115 1.403 . S
C113 C110 1.403 . S
C113 C114 1.524 . S
C113 C117 1.400 . S
C114 H99 0.960 . S
C114 H100 0.960 . S
C114 H101 0.960 . S
C114 C113 1.524 . S
C115 C112 1.403 . S
C115 C116 1.392 . S
C115 C119 1.495 . S
C116 C115 1.392 . S
C116 C117 1.385 . S
C116 C118 1.478 . S
C117 H111 0.930 . S
C117 C113 1.400 . S
C117 C116 1.385 . S
C118 C116 1.478 . S
C118 C120 1.381 . S
C118 C124 1.383 . S
C119 C115 1.495 . S
C119 H125 0.959 . S
C119 H126 0.961 . S
C119 H127 0.960 . S
C120 C118 1.381 . S
C120 C121 1.394 . S
C120 H128 0.930 . S
C121 C120 1.394 . S
C121 C122 1.383 . S
C121 H129 0.929 . S
C122 C121 1.383 . S
C122 C123 1.377 . S
C123 H107 0.930 . S
C123 C122 1.377 . S
C123 C124 1.379 . S
C124 H108 0.931 . S
C124 C118 1.383 . S
C124 C123 1.379 . S
H125 C119 0.959 . S
H126 C119 0.961 . S
H127 C119 0.960 . S
H128 C120 0.930 . S
H129 C121 0.929 . S
H130 C138 0.929 . S
H131 C140 0.930 . S
H132 C142 0.930 . S
H133 C145 0.929 . S
H134 C148 0.930 . S
H135 C150 0.960 . S
H136 C150 0.960 1_554 S
H137 C150 0.960 . S
C138 H130 0.929 . S
C138 C139 1.377 1_554 S
C138 C140 1.384 . S
C139 C138 1.377 1_556 S
C139 C145 1.390 . S
C140 H131 0.930 . S
C140 C138 1.384 . S
C140 C141 1.372 1_554 S
C141 C140 1.372 1_556 S
C141 C142 1.400 . S
C141 C146 1.490 . S
C142 H132 0.930 . S
C142 C141 1.400 . S
C142 C145 1.386 . S
H143 C159 0.930 . S
H144 C160 0.931 . S
C145 H133 0.929 . S
C145 C139 1.390 . S
C145 C142 1.386 . S
C146 C141 1.490 . S
C146 C148 1.395 . S
C146 C149 1.403 . S
H147 C153 0.930 . S
C148 H134 0.930 . S
C148 C146 1.395 . S
C148 C151 1.403 . S
C149 C146 1.403 . S
C149 C150 1.524 . S
C149 C153 1.400 . S
C150 H135 0.960 . S
C150 H136 0.960 1_556 S
C150 H137 0.960 . S
C150 C149 1.524 . S
C151 C148 1.403 . S
C151 C152 1.392 . S
C151 C155 1.495 . S
C152 C151 1.392 . S
C152 C153 1.385 . S
C152 C154 1.478 . S
C153 H147 0.930 . S
C153 C149 1.400 . S
C153 C152 1.385 . S
C154 C152 1.478 . S
C154 C156 1.381 . S
C154 C160 1.383 . S
C155 C151 1.495 . S
C155 H161 0.959 . S
C155 H162 0.961 . S
C155 H163 0.960 . S
C156 C154 1.381 . S
C156 C157 1.394 . S
C156 H164 0.930 . S
C157 C156 1.394 . S
C157 C158 1.383 . S
C157 H165 0.929 . S
C158 C157 1.383 . S
C158 C159 1.377 . S
C159 H143 0.930 . S
C159 C158 1.377 . S
C159 C160 1.379 . S
C160 H144 0.931 . S
C160 C154 1.383 . S
C160 C159 1.379 . S
H161 C155 0.959 . S
H162 C155 0.961 . S
H163 C155 0.960 . S
H164 C156 0.930 . S
H165 C157 0.929 . S
H166 C174 0.929 . S
H167 C176 0.930 . S
H168 C178 0.930 . S
H169 C181 0.906 1_556 S
H170 C184 0.930 . S
H171 C186 0.960 . S
H172 C186 0.960 . S
H173 C186 0.960 . S
C174 H166 0.929 . S
C174 C175 1.377 . S
C174 C176 1.384 . S
C175 C174 1.377 . S
C175 C181 1.390 . S
C176 H167 0.930 . S
C176 C174 1.384 . S
C176 C177 1.372 . S
C177 C176 1.372 . S
C177 C178 1.400 . S
C177 C182 1.490 . S
C178 H168 0.930 . S
C178 C177 1.400 . S
C178 C181 1.386 . S
H179 C195 0.930 . S
H180 C196 0.931 . S
C181 H169 0.906 1_554 S
C181 C175 1.390 . S
C181 C178 1.386 . S
C182 C177 1.490 . S
C182 C184 1.395 . S
C182 C185 1.403 . S
H183 C189 0.930 . S
C184 H170 0.930 . S
C184 C182 1.395 . S
C184 C187 1.403 . S
C185 C182 1.403 . S
C185 C186 1.524 . S
C185 C189 1.400 . S
C186 H171 0.960 . S
C186 H172 0.960 . S
C186 H173 0.960 . S
C186 C185 1.524 . S
C187 C184 1.403 . S
C187 C188 1.392 . S
C187 C191 1.495 . S
C188 C187 1.392 . S
C188 C189 1.385 . S
C188 C190 1.478 . S
C189 H183 0.930 . S
C189 C185 1.400 . S
C189 C188 1.385 . S
C190 C188 1.478 . S
C190 C192 1.381 . S
C190 C196 1.383 . S
C191 C187 1.495 . S
C191 H197 0.959 . S
C191 H198 0.961 . S
C191 H199 0.960 . S
C192 C190 1.381 . S
C192 C193 1.394 . S
C192 H200 0.930 . S
C193 C192 1.394 . S
C193 C194 1.383 . S
C193 H201 0.929 . S
C194 C193 1.383 . S
C194 C195 1.377 . S
C195 H179 0.930 . S
C195 C194 1.377 . S
C195 C196 1.379 . S
C196 H180 0.931 . S
C196 C190 1.383 . S
C196 C195 1.379 . S
H197 C191 0.959 . S
H198 C191 0.961 . S
H199 C191 0.960 . S
H200 C192 0.930 . S
H201 C193 0.929 . S
H202 C210 0.925 1_554 S
H203 C212 0.930 . S
H204 C214 0.930 . S
H205 C217 0.929 . S
H206 C220 0.930 . S
H207 C222 0.960 . S
H208 C222 0.960 1_554 S
H209 C222 0.960 . S
C210 H202 0.925 1_556 S
C210 C211 1.377 . S
C210 C212 1.384 . S
C211 C210 1.377 . S
C211 C217 1.390 . S
C212 H203 0.930 . S
C212 C210 1.384 . S
C212 C213 1.372 . S
C213 C212 1.372 . S
C213 C214 1.400 . S
C213 C218 1.490 . S
C214 H204 0.930 . S
C214 C213 1.400 . S
C214 C217 1.386 . S
H215 C231 0.930 . S
H216 C232 0.931 . S
C217 H205 0.929 . S
C217 C211 1.390 . S
C217 C214 1.386 . S
C218 C213 1.490 . S
C218 C220 1.395 . S
C218 C221 1.403 . S
H219 C225 0.930 . S
C220 H206 0.930 . S
C220 C218 1.395 . S
C220 C223 1.403 . S
C221 C218 1.403 . S
C221 C222 1.524 . S
C221 C225 1.400 . S
C222 H207 0.960 . S
C222 H208 0.960 1_556 S
C222 H209 0.960 . S
C222 C221 1.524 . S
C223 C220 1.403 . S
C223 C224 1.392 . S
C223 C227 1.495 . S
C224 C223 1.392 . S
C224 C225 1.385 . S
C224 C226 1.478 . S
C225 H219 0.930 . S
C225 C221 1.400 . S
C225 C224 1.385 . S
C226 C224 1.478 . S
C226 C228 1.381 . S
C226 C232 1.383 . S
C227 C223 1.495 . S
C227 H233 0.959 . S
C227 H234 0.961 . S
C227 H235 0.960 . S
C228 C226 1.381 . S
C228 C229 1.394 . S
C228 H236 0.930 . S
C229 C228 1.394 . S
C229 C230 1.383 . S
C229 H237 0.929 . S
C230 C229 1.383 . S
C230 C231 1.377 . S
C231 H215 0.930 . S
C231 C230 1.377 . S
C231 C232 1.379 . S
C232 H216 0.931 . S
C232 C226 1.383 . S
C232 C231 1.379 . S
H233 C227 0.959 . S
H234 C227 0.961 . S
H235 C227 0.960 . S
H236 C228 0.930 . S
H237 C229 0.929 . S
H238 C246 0.929 . S
H239 C248 0.930 . S
H240 C250 0.930 . S
H241 C253 0.929 . S
H242 C256 0.930 . S
H243 C258 0.960 . S
H244 C258 0.960 . S
H245 C258 0.960 . S
C246 H238 0.929 . S
C246 C247 1.377 . S
C246 C248 1.384 . S
C247 C246 1.377 . S
C247 C253 1.390 . S
C248 H239 0.930 . S
C248 C246 1.384 . S
C248 C249 1.372 . S
C249 C248 1.372 . S
C249 C250 1.400 . S
C249 C254 1.490 . S
C250 H240 0.930 . S
C250 C249 1.400 . S
C250 C253 1.386 . S
H251 C267 0.930 . S
H252 C268 0.931 . S
C253 H241 0.929 . S
C253 C247 1.390 . S
C253 C250 1.386 . S
C254 C249 1.490 . S
C254 C256 1.395 . S
C254 C257 1.403 . S
H255 C261 0.930 . S
C256 H242 0.930 . S
C256 C254 1.395 . S
C256 C259 1.403 . S
C257 C254 1.403 . S
C257 C258 1.524 . S
C257 C261 1.400 . S
C258 H243 0.960 . S
C258 H244 0.960 . S
C258 H245 0.960 . S
C258 C257 1.524 . S
C259 C256 1.403 . S
C259 C260 1.392 . S
C259 C263 1.495 . S
C260 C259 1.392 . S
C260 C261 1.385 . S
C260 C262 1.478 . S
C261 H255 0.930 . S
C261 C257 1.400 . S
C261 C260 1.385 . S
C262 C260 1.478 . S
C262 C264 1.381 . S
C262 C268 1.383 . S
C263 C259 1.495 . S
C263 H269 0.959 . S
C263 H270 0.961 . S
C263 H271 0.960 . S
C264 C262 1.381 . S
C264 C265 1.394 . S
C264 H272 0.930 . S
C265 C264 1.394 . S
C265 C266 1.383 . S
C265 H273 0.929 . S
C266 C265 1.383 . S
C266 C267 1.377 . S
C267 H251 0.930 . S
C267 C266 1.377 . S
C267 C268 1.379 . S
C268 H252 0.931 . S
C268 C262 1.383 . S
C268 C267 1.379 . S
H269 C263 0.959 . S
H270 C263 0.961 . S
H271 C263 0.960 . S
H272 C264 0.930 . S
H273 C265 0.929 . S
H274 C282 0.929 . S
H275 C284 0.930 . S
H276 C286 0.930 . S
H277 C289 0.929 . S
H278 C292 0.930 . S
H279 C294 0.960 . S
H280 C294 0.960 . S
H281 C294 0.960 . S
C282 H274 0.929 . S
C282 C283 1.377 . S
C282 C284 1.384 . S
C283 C282 1.377 . S
C283 C289 1.390 . S
C284 H275 0.930 . S
C284 C282 1.384 . S
C284 C285 1.372 . S
C285 C284 1.372 . S
C285 C286 1.400 . S
C285 C290 1.490 . S
C286 H276 0.930 . S
C286 C285 1.400 . S
C286 C289 1.386 . S
H287 C303 0.930 . S
H288 C304 0.931 . S
C289 H277 0.929 . S
C289 C283 1.390 . S
C289 C286 1.386 . S
C290 C285 1.490 . S
C290 C292 1.395 . S
C290 C293 1.403 . S
H291 C297 0.930 . S
C292 H278 0.930 . S
C292 C290 1.395 . S
C292 C295 1.403 . S
C293 C290 1.403 . S
C293 C294 1.524 . S
C293 C297 1.400 . S
C294 H279 0.960 . S
C294 H280 0.960 . S
C294 H281 0.960 . S
C294 C293 1.524 . S
C295 C292 1.403 . S
C295 C296 1.392 . S
C295 C299 1.495 . S
C296 C295 1.392 . S
C296 C297 1.385 . S
C296 C298 1.478 . S
C297 H291 0.930 . S
C297 C293 1.400 . S
C297 C296 1.385 . S
C298 C296 1.478 . S
C298 C300 1.381 . S
C298 C304 1.383 . S
C299 C295 1.495 . S
C299 H305 0.959 . S
C299 H306 0.961 . S
C299 H307 0.960 . S
C300 C298 1.381 . S
C300 C301 1.394 . S
C300 H308 0.930 . S
C301 C300 1.394 . S
C301 C302 1.383 . S
C301 H309 0.929 . S
C302 C301 1.383 . S
C302 C303 1.377 . S
C303 H287 0.930 . S
C303 C302 1.377 . S
C303 C304 1.379 . S
C304 H288 0.931 . S
C304 C298 1.383 . S
C304 C303 1.379 . S
H305 C299 0.959 . S
H306 C299 0.961 . S
H307 C299 0.960 . S
H308 C300 0.930 . S
H309 C301 0.929 . S
H310 C318 0.929 . S
H311 C320 0.930 . S
H312 C322 0.930 . S
H313 C325 0.929 . S
H314 C328 0.930 . S
H315 C330 0.960 . S
H316 C330 0.960 . S
H317 C330 0.960 . S
C318 H310 0.929 . S
C318 C319 1.377 . S
C318 C320 1.384 . S
C319 C318 1.377 . S
C319 C325 1.390 . S
C320 H311 0.930 . S
C320 C318 1.384 . S
C320 C321 1.372 . S
C321 C320 1.372 . S
C321 C322 1.400 . S
C321 C326 1.490 . S
C322 H312 0.930 . S
C322 C321 1.400 . S
C322 C325 1.386 . S
H323 C339 0.930 . S
H324 C340 0.931 . S
C325 H313 0.929 . S
C325 C319 1.390 . S
C325 C322 1.386 . S
C326 C321 1.490 . S
C326 C328 1.395 . S
C326 C329 1.403 . S
H327 C333 0.930 . S
C328 H314 0.930 . S
C328 C326 1.395 . S
C328 C331 1.403 . S
C329 C326 1.403 . S
C329 C330 1.524 . S
C329 C333 1.400 . S
C330 H315 0.960 . S
C330 H316 0.960 . S
C330 H317 0.960 . S
C330 C329 1.524 . S
C331 C328 1.403 . S
C331 C332 1.392 . S
C331 C335 1.495 . S
C332 C331 1.392 . S
C332 C333 1.385 . S
C332 C334 1.478 . S
C333 H327 0.930 . S
C333 C329 1.400 . S
C333 C332 1.385 . S
C334 C332 1.478 . S
C334 C336 1.381 . S
C334 C340 1.383 . S
C335 C331 1.495 . S
C335 H341 0.959 . S
C335 H342 0.961 . S
C335 H343 0.960 . S
C336 C334 1.381 . S
C336 C337 1.394 . S
C336 H344 0.930 . S
C337 C336 1.394 . S
C337 C338 1.383 . S
C337 H345 0.929 . S
C338 C337 1.383 . S
C338 C339 1.377 . S
C339 H323 0.930 . S
C339 C338 1.377 . S
C339 C340 1.379 . S
C340 H324 0.931 . S
C340 C334 1.383 . S
C340 C339 1.379 . S
H341 C335 0.959 . S
H342 C335 0.961 . S
H343 C335 0.960 . S
H344 C336 0.930 . S
H345 C337 0.929 . S
H346 C354 0.929 . S
H347 C356 0.930 . S
H348 C358 0.930 . S
H349 C361 0.929 . S
H350 C364 0.930 . S
H351 C366 0.960 . S
H352 C366 0.960 . S
H353 C366 0.960 . S
C354 H346 0.929 . S
C354 C355 1.377 . S
C354 C356 1.384 . S
C355 C354 1.377 . S
C355 C361 1.390 . S
C356 H347 0.930 . S
C356 C354 1.384 . S
C356 C357 1.372 . S
C357 C356 1.372 . S
C357 C358 1.400 . S
C357 C362 1.490 . S
C358 H348 0.930 . S
C358 C357 1.400 . S
C358 C361 1.386 . S
H359 C375 0.930 . S
H360 C376 0.931 . S
C361 H349 0.929 . S
C361 C355 1.390 . S
C361 C358 1.386 . S
C362 C357 1.490 . S
C362 C364 1.395 . S
C362 C365 1.403 . S
H363 C369 0.930 . S
C364 H350 0.930 . S
C364 C362 1.395 . S
C364 C367 1.403 . S
C365 C362 1.403 . S
C365 C366 1.524 . S
C365 C369 1.400 . S
C366 H351 0.960 . S
C366 H352 0.960 . S
C366 H353 0.960 . S
C366 C365 1.524 . S
C367 C364 1.403 . S
C367 C368 1.392 . S
C367 C371 1.495 . S
C368 C367 1.392 . S
C368 C369 1.385 . S
C368 C370 1.478 . S
C369 H363 0.930 . S
C369 C365 1.400 . S
C369 C368 1.385 . S
C370 C368 1.478 . S
C370 C372 1.381 . S
C370 C376 1.383 . S
C371 C367 1.495 . S
C371 H377 0.959 . S
C371 H378 0.961 . S
C371 H379 0.960 . S
C372 C370 1.381 . S
C372 C373 1.394 . S
C372 H380 0.930 . S
C373 C372 1.394 . S
C373 C374 1.383 . S
C373 H381 0.929 . S
C374 C373 1.383 . S
C374 C375 1.377 . S
C375 H359 0.930 . S
C375 C374 1.377 . S
C375 C376 1.379 . S
C376 H360 0.931 . S
C376 C370 1.383 . S
C376 C375 1.379 . S
H377 C371 0.959 . S
H378 C371 0.961 . S
H379 C371 0.960 . S
H380 C372 0.930 . S
H381 C373 0.929 . S
H382 C390 0.929 . S
H383 C392 0.930 . S
H384 C394 0.930 . S
H385 C397 0.929 . S
H386 C400 0.930 . S
H387 C402 0.960 . S
H388 C402 0.960 . S
H389 C402 0.960 . S
C390 H382 0.929 . S
C390 C391 1.377 1_565 S
C390 C392 1.384 . S
C391 C390 1.377 1_545 S
C391 C397 1.390 . S
C392 H383 0.930 . S
C392 C390 1.384 . S
C392 C393 1.372 1_565 S
C393 C392 1.372 1_545 S
C393 C394 1.400 . S
C393 C398 1.490 . S
C394 H384 0.930 . S
C394 C393 1.400 . S
C394 C397 1.386 . S
H395 C411 0.930 . S
H396 C412 0.931 . S
C397 H385 0.929 . S
C397 C391 1.390 . S
C397 C394 1.386 . S
C398 C393 1.490 . S
C398 C400 1.395 1_545 S
C398 C401 1.403 1_455 S
H399 C405 0.930 . S
C400 H386 0.930 . S
C400 C398 1.395 1_565 S
C400 C403 1.403 . S
C401 C398 1.403 1_655 S
C401 C402 1.524 . S
C401 C405 1.400 . S
C402 H387 0.960 . S
C402 H388 0.960 . S
C402 H389 0.960 . S
C402 C401 1.524 . S
C403 C400 1.403 . S
C403 C404 1.392 1_565 S
C403 C407 1.495 . S
C404 C403 1.392 1_545 S
C404 C405 1.385 1_455 S
C404 C406 1.478 . S
C405 H399 0.930 . S
C405 C401 1.400 . S
C405 C404 1.385 1_655 S
C406 C404 1.478 . S
C406 C408 1.381 1_545 S
C406 C412 1.383 . S
C407 C403 1.495 . S
C407 H413 0.959 . S
C407 H414 0.961 1_565 S
C407 H415 0.960 . S
C408 C406 1.381 1_565 S
C408 C409 1.394 . S
C408 H416 0.930 . S
C409 C408 1.394 . S
C409 C410 1.383 1_565 S
C409 H417 0.929 . S
C410 C409 1.383 1_545 S
C410 C411 1.377 . S
C411 H395 0.930 . S
C411 C410 1.377 . S
C411 C412 1.379 . S
C412 H396 0.931 . S
C412 C406 1.383 . S
C412 C411 1.379 . S
H413 C407 0.959 . S
H414 C407 0.961 1_545 S
H415 C407 0.960 . S
H416 C408 0.930 . S
H417 C409 0.929 . S
H418 C426 0.929 . S
H419 C428 0.930 . S
H420 C430 0.930 . S
H421 C433 0.929 . S
H422 C436 0.930 . S
H423 C438 0.960 . S
H424 C438 0.960 . S
H425 C438 0.960 . S
C426 H418 0.929 . S
C426 C427 1.377 1_665 S
C426 C428 1.384 . S
C427 C426 1.377 1_445 S
C427 C433 1.390 . S
C428 H419 0.930 . S
C428 C426 1.384 . S
C428 C429 1.372 1_665 S
C429 C428 1.372 1_445 S
C429 C430 1.400 . S
C429 C434 1.488 . S
C430 H420 0.930 . S
C430 C429 1.400 . S
C430 C433 1.386 . S
H431 C447 0.930 . S
H432 C448 0.931 . S
C433 H421 0.929 . S
C433 C427 1.390 . S
C433 C430 1.386 . S
C434 C429 1.488 . S
C434 C436 1.387 1_455 S
C434 C437 1.412 1_545 S
H435 C441 0.930 . S
C436 H422 0.930 . S
C436 C434 1.387 1_655 S
C436 C439 1.403 . S
C437 C434 1.412 1_565 S
C437 C438 1.524 . S
C437 C441 1.400 . S
C438 H423 0.960 . S
C438 H424 0.960 . S
C438 H425 0.960 . S
C438 C437 1.524 . S
C439 C436 1.403 . S
C439 C440 1.392 . S
C439 C443 1.495 . S
C440 C439 1.392 . S
C440 C441 1.385 1_645 S
C440 C442 1.478 . S
C441 H435 0.930 . S
C441 C437 1.400 . S
C441 C440 1.385 1_465 S
C442 C440 1.478 . S
C442 C444 1.381 . S
C442 C448 1.383 1_655 S
C443 C439 1.495 . S
C443 H449 0.959 . S
C443 H450 0.961 . S
C443 H451 0.960 . S
C444 C442 1.381 . S
C444 C445 1.394 1_545 S
C444 H452 0.930 1_545 S
C445 C444 1.394 1_565 S
C445 C446 1.383 1_665 S
C445 H453 0.930 . S
C446 C445 1.383 1_445 S
C446 C447 1.377 . S
C447 H431 0.930 . S
C447 C446 1.377 . S
C447 C448 1.379 . S
C448 H432 0.931 . S
C448 C442 1.383 1_455 S
C448 C447 1.379 . S
H449 C443 0.959 . S
H450 C443 0.961 . S
H451 C443 0.960 . S
H452 C444 0.930 1_565 S
H453 C445 0.930 . S
H454 C462 0.929 . S
H455 C464 0.930 . S
H456 C466 0.930 . S
H457 C469 0.929 . S
H458 C472 0.930 . S
H459 C474 0.960 . S
H460 C474 0.960 . S
H461 C474 0.960 . S
C462 H454 0.929 . S
C462 C463 1.377 . S
C462 C464 1.384 . S
C463 C462 1.377 . S
C463 C469 1.390 . S
C464 H455 0.930 . S
C464 C462 1.384 . S
C464 C465 1.372 . S
C465 C464 1.372 . S
C465 C466 1.400 . S
C465 C470 1.490 . S
C466 H456 0.930 . S
C466 C465 1.400 . S
C466 C469 1.386 . S
H467 C483 0.930 . S
H468 C484 0.931 . S
C469 H457 0.929 . S
C469 C463 1.390 . S
C469 C466 1.386 . S
C470 C465 1.490 . S
C470 C472 1.395 . S
C470 C473 1.403 . S
H471 C477 0.930 . S
C472 H458 0.930 . S
C472 C470 1.395 . S
C472 C475 1.403 . S
C473 C470 1.403 . S
C473 C474 1.524 . S
C473 C477 1.400 . S
C474 H459 0.960 . S
C474 H460 0.960 . S
C474 H461 0.960 . S
C474 C473 1.524 . S
C475 C472 1.403 . S
C475 C476 1.392 . S
C475 C479 1.495 . S
C476 C475 1.392 . S
C476 C477 1.385 . S
C476 C478 1.478 . S
C477 H471 0.930 . S
C477 C473 1.400 . S
C477 C476 1.385 . S
C478 C476 1.478 . S
C478 C480 1.381 . S
C478 C484 1.383 . S
C479 C475 1.495 . S
C479 H485 0.959 . S
C479 H486 0.961 . S
C479 H487 0.960 . S
C480 C478 1.381 . S
C480 C481 1.394 . S
C480 H488 0.930 . S
C481 C480 1.394 . S
C481 C482 1.383 . S
C481 H489 0.929 . S
C482 C481 1.383 . S
C482 C483 1.377 . S
C483 H467 0.930 . S
C483 C482 1.377 . S
C483 C484 1.379 . S
C484 H468 0.931 . S
C484 C478 1.383 . S
C484 C483 1.379 . S
H485 C479 0.959 . S
H486 C479 0.961 . S
H487 C479 0.960 . S
H488 C480 0.930 . S
H489 C481 0.929 . S
H490 C498 0.929 . S
H491 C500 0.930 . S
H492 C502 0.930 . S
H493 C505 0.929 . S
H494 C508 0.930 . S
H495 C510 0.960 . S
H496 C510 0.960 . S
H497 C510 0.960 . S
C498 H490 0.929 . S
C498 C499 1.377 . S
C498 C500 1.384 . S
C499 C498 1.377 . S
C499 C505 1.390 . S
C500 H491 0.930 . S
C500 C498 1.384 . S
C500 C501 1.372 . S
C501 C500 1.372 . S
C501 C502 1.400 . S
C501 C506 1.490 . S
C502 H492 0.930 . S
C502 C501 1.400 . S
C502 C505 1.386 . S
H503 C519 0.930 . S
H504 C520 0.931 . S
C505 H493 0.929 . S
C505 C499 1.390 . S
C505 C502 1.386 . S
C506 C501 1.490 . S
C506 C508 1.395 . S
C506 C509 1.403 . S
H507 C513 0.930 . S
C508 H494 0.930 . S
C508 C506 1.395 . S
C508 C511 1.403 . S
C509 C506 1.403 . S
C509 C510 1.524 . S
C509 C513 1.400 . S
C510 H495 0.960 . S
C510 H496 0.960 . S
C510 H497 0.960 . S
C510 C509 1.524 . S
C511 C508 1.403 . S
C511 C512 1.392 . S
C511 C515 1.495 . S
C512 C511 1.392 . S
C512 C513 1.385 . S
C512 C514 1.478 . S
C513 H507 0.930 . S
C513 C509 1.400 . S
C513 C512 1.385 . S
C514 C512 1.478 . S
C514 C516 1.381 . S
C514 C520 1.383 . S
C515 C511 1.495 . S
C515 H521 0.959 . S
C515 H522 0.961 . S
C515 H523 0.960 . S
C516 C514 1.381 . S
C516 C517 1.394 . S
C516 H524 0.930 . S
C517 C516 1.394 . S
C517 C518 1.383 . S
C517 H525 0.929 . S
C518 C517 1.383 . S
C518 C519 1.377 . S
C519 H503 0.930 . S
C519 C518 1.377 . S
C519 C520 1.379 . S
C520 H504 0.931 . S
C520 C514 1.383 . S
C520 C519 1.379 . S
H521 C515 0.959 . S
H522 C515 0.961 . S
H523 C515 0.960 . S
H524 C516 0.930 . S
H525 C517 0.929 . S
C122 C88 1.535 . S
C103 C21 1.524 . S
C139 C19 1.370 1_556 S
C158 C74 1.343 . S
C175 C18 1.338 . S
C194 C86 1.333 . S
C211 C20 1.504 . S
C230 C76 1.503 . S
C247 C44 1.523 . S
C266 C64 1.526 . S
C283 C42 1.369 . S
C302 C50 1.325 . S
C338 C62 1.344 . S
C319 C41 1.336 . S
C374 C52 1.501 . S
C355 C43 1.507 . S
C391 C16 1.531 . S
C410 C55 1.518 . S
C427 C17 1.489 . S
C446 C67 1.484 . S
C482 C79 1.515 . S
C463 C39 1.530 . S
C499 C40 1.489 . S
C518 C91 1.488 . S
