# Generated by pormake.
# Topology pyr, (3,6)-cn, num edge types: 1
# Building blocks:
#     Node 0, Type 0, BuildingBlock: BELTOD_clean_linker_0, # of connection points: 3
#     Node 1, Type 0, BuildingBlock: BELTOD_clean_linker_0, # of connection points: 3
#     Node 2, Type 0, BuildingBlock: BELTOD_clean_linker_0, # of connection points: 3
#     Node 3, Type 0, BuildingBlock: BELTOD_clean_linker_0, # of connection points: 3
#     Node 4, Type 0, BuildingBlock: BELTOD_clean_linker_0, # of connection points: 3
#     Node 5, Type 0, BuildingBlock: BELTOD_clean_linker_0, # of connection points: 3
#     Node 6, Type 0, BuildingBlock: BELTOD_clean_linker_0, # of connection points: 3
#     Node 7, Type 0, BuildingBlock: BELTOD_clean_linker_0, # of connection points: 3
#     Node 8, Type 1, BuildingBlock: BETDAH_clean_sbu_0, # of connection points: 6
#     Node 9, Type 1, BuildingBlock: BETDAH_clean_sbu_0, # of connection points: 6
#     Node 10, Type 1, BuildingBlock: BETDAH_clean_sbu_0, # of connection points: 6
#     Node 11, Type 1, BuildingBlock: BETDAH_clean_sbu_0, # of connection points: 6
#     Edge 12, Type (0, 1), BuildingBlock: EZIPEK_clean_linker_0, # of connection points: 2
#     Edge 13, Type (0, 1), BuildingBlock: EZIPEK_clean_linker_0, # of connection points: 2
#     Edge 14, Type (0, 1), BuildingBlock: EZIPEK_clean_linker_0, # of connection points: 2
#     Edge 15, Type (0, 1), BuildingBlock: EZIPEK_clean_linker_0, # of connection points: 2
#     Edge 16, Type (0, 1), BuildingBlock: EZIPEK_clean_linker_0, # of connection points: 2
#     Edge 17, Type (0, 1), BuildingBlock: EZIPEK_clean_linker_0, # of connection points: 2
#     Edge 18, Type (0, 1), BuildingBlock: EZIPEK_clean_linker_0, # of connection points: 2
#     Edge 19, Type (0, 1), BuildingBlock: EZIPEK_clean_linker_0, # of connection points: 2
#     Edge 20, Type (0, 1), BuildingBlock: EZIPEK_clean_linker_0, # of connection points: 2
#     Edge 21, Type (0, 1), BuildingBlock: EZIPEK_clean_linker_0, # of connection points: 2
#     Edge 22, Type (0, 1), BuildingBlock: EZIPEK_clean_linker_0, # of connection points: 2
#     Edge 23, Type (0, 1), BuildingBlock: EZIPEK_clean_linker_0, # of connection points: 2
#     Edge 24, Type (0, 1), BuildingBlock: EZIPEK_clean_linker_0, # of connection points: 2
#     Edge 25, Type (0, 1), BuildingBlock: EZIPEK_clean_linker_0, # of connection points: 2
#     Edge 26, Type (0, 1), BuildingBlock: EZIPEK_clean_linker_0, # of connection points: 2
#     Edge 27, Type (0, 1), BuildingBlock: EZIPEK_clean_linker_0, # of connection points: 2
#     Edge 28, Type (0, 1), BuildingBlock: EZIPEK_clean_linker_0, # of connection points: 2
#     Edge 29, Type (0, 1), BuildingBlock: EZIPEK_clean_linker_0, # of connection points: 2
#     Edge 30, Type (0, 1), BuildingBlock: EZIPEK_clean_linker_0, # of connection points: 2
#     Edge 31, Type (0, 1), BuildingBlock: EZIPEK_clean_linker_0, # of connection points: 2
#     Edge 32, Type (0, 1), BuildingBlock: EZIPEK_clean_linker_0, # of connection points: 2
#     Edge 33, Type (0, 1), BuildingBlock: EZIPEK_clean_linker_0, # of connection points: 2
#     Edge 34, Type (0, 1), BuildingBlock: EZIPEK_clean_linker_0, # of connection points: 2
#     Edge 35, Type (0, 1), BuildingBlock: EZIPEK_clean_linker_0, # of connection points: 2
# Relax obj value: 0.154
# Max RMSD: 0.138
# Mean RMSD: 0.067
data_MOF--net-pyr--node1-BETDAH_clean_sbu_0--node2-BELTOD_clean_linker_0--edge1-EZIPEK_clean_linker_0
_symmetry_space_group_name_H-M    P1
_symmetry_Int_Tables_number       1
_symmetry_cell_setting            triclinic
loop_
_symmetry_equiv_pos_as_xyz
'x, y, z'
_cell_length_a     33.021101
_cell_length_b     36.098298
_cell_length_c     32.631588
_cell_angle_alpha  91.402424
_cell_angle_beta   88.447401
_cell_angle_gamma 102.00363
loop_
_atom_site_label
_atom_site_type_symbol
_atom_site_fract_x
_atom_site_fract_y
_atom_site_fract_z
_atom_type_partial_charge
P0 P 0.41008 0.32463 0.25798 0.0
H1 H 0.49027 0.3166 0.22023 0.0
H2 H 0.51325 0.26289 0.18549 0.0
H3 H 0.39023 0.19474 0.19997 0.0
H4 H 0.36727 0.24798 0.23453 0.0
H5 H 0.39844 0.40297 0.25856 0.0
H6 H 0.34387 0.43167 0.23094 0.0
H7 H 0.29346 0.32674 0.16759 0.0
H8 H 0.34778 0.29813 0.19498 0.0
H9 H 0.41821 0.26432 0.31419 0.0
H10 H 0.33466 0.34038 0.2993 0.0
O11 O 0.45121 0.35588 0.2746 0.0
H12 H 0.36691 0.22552 0.35994 0.0
H13 H 0.28415 0.30181 0.34459 0.0
C14 C 0.42694 0.28643 0.2298 0.0
C15 C 0.46822 0.29014 0.2159 0.0
C16 C 0.48147 0.25945 0.19649 0.0
C17 C 0.45356 0.22468 0.19082 0.0
C18 C 0.41234 0.22115 0.20455 0.0
C19 C 0.39916 0.25171 0.22382 0.0
C20 C 0.37786 0.3485 0.2283 0.0
C21 C 0.37652 0.38648 0.23763 0.0
C22 C 0.34512 0.40276 0.22226 0.0
C23 C 0.31436 0.38123 0.19749 0.0
C24 C 0.31677 0.34382 0.18674 0.0
C25 C 0.34809 0.32757 0.20216 0.0
C26 C 0.37953 0.30423 0.30168 0.0
C27 C 0.38951 0.27331 0.32154 0.0
C28 C 0.36048 0.25133 0.34786 0.0
C29 C 0.32167 0.26066 0.35494 0.0
C30 C 0.31391 0.29417 0.33916 0.0
C31 C 0.34276 0.31597 0.31287 0.0
P32 P 0.2936 0.90818 0.57572 0.0
H33 H 0.37418 0.91858 0.61359 0.0
H34 H 0.39516 0.92666 0.68562 0.0
H35 H 0.26717 0.91563 0.72406 0.0
H36 H 0.2461 0.90358 0.65376 0.0
H37 H 0.33953 0.88031 0.50795 0.0
H38 H 0.35703 0.81801 0.4968 0.0
H39 H 0.27306 0.77299 0.59562 0.0
H40 H 0.25735 0.8353 0.6083 0.0
H41 H 0.25301 0.96796 0.60115 0.0
H42 H 0.21759 0.85514 0.5482 0.0
O43 O 0.32316 0.94159 0.5473 0.0
H44 H 0.18067 0.97251 0.60425 0.0
H45 H 0.14533 0.85881 0.55406 0.0
C46 C 0.30891 0.91291 0.62809 0.0
C47 C 0.35076 0.91768 0.63764 0.0
C48 C 0.36262 0.92197 0.67849 0.0
C49 C 0.33267 0.92264 0.70977 0.0
C50 C 0.29071 0.91581 0.70022 0.0
C51 C 0.27884 0.90986 0.65978 0.0
C52 C 0.29807 0.86209 0.55943 0.0
C53 C 0.32401 0.85673 0.52628 0.0
C54 C 0.33325 0.82122 0.51936 0.0
C55 C 0.31629 0.79157 0.54563 0.0
C56 C 0.28594 0.79578 0.57503 0.0
C57 C 0.27772 0.83136 0.58269 0.0
C58 C 0.24079 0.91155 0.57418 0.0
C59 C 0.22971 0.94408 0.59073 0.0
C60 C 0.18839 0.94598 0.59399 0.0
C61 C 0.15778 0.9158 0.57926 0.0
C62 C 0.16859 0.88217 0.56562 0.0
C63 C 0.21009 0.88045 0.56186 0.0
P64 P 0.68266 0.35235 0.82995 0.0
H65 H 0.75712 0.33116 0.86093 0.0
H66 H 0.81611 0.36347 0.90143 0.0
H67 H 0.76091 0.46119 0.91527 0.0
H68 H 0.70161 0.4288 0.87386 0.0
H69 H 0.66869 0.26931 0.81289 0.0
H70 H 0.63617 0.21285 0.85056 0.0
H71 H 0.59511 0.28293 0.94483 0.0
H72 H 0.62919 0.34025 0.90733 0.0
H73 H 0.71479 0.41988 0.77998 0.0
H74 H 0.59452 0.35034 0.80429 0.0
O75 O 0.70926 0.33353 0.79366 0.0
H76 H 0.68567 0.45315 0.72687 0.0
H77 H 0.56501 0.3842 0.75134 0.0
C78 C 0.72441 0.37728 0.86371 0.0
C79 C 0.75727 0.3595 0.8727 0.0
C80 C 0.79125 0.37802 0.89603 0.0
C81 C 0.79357 0.41501 0.91183 0.0
C82 C 0.76026 0.43271 0.90372 0.0
C83 C 0.72619 0.41412 0.87998 0.0
C84 C 0.65155 0.31007 0.85645 0.0
C85 C 0.65251 0.27315 0.84143 0.0
C86 C 0.63379 0.24034 0.86326 0.0
C87 C 0.6126 0.24263 0.90106 0.0
C88 C 0.61093 0.27958 0.91591 0.0
C89 C 0.63025 0.31264 0.89417 0.0
C90 C 0.65711 0.38285 0.79788 0.0
C91 C 0.68179 0.41234 0.77497 0.0
C92 C 0.66507 0.43129 0.74393 0.0
C93 C 0.62271 0.42169 0.73408 0.0
C94 C 0.59769 0.39271 0.75763 0.0
C95 C 0.6146 0.37343 0.78852 0.0
P96 P 0.85333 0.70657 0.33287 0.0
H97 H 0.84504 0.78621 0.33262 0.0
H98 H 0.87513 0.84346 0.37089 0.0
H99 H 0.95191 0.78214 0.43495 0.0
H100 H 0.92057 0.72354 0.39655 0.0
H101 H 0.82451 0.6356 0.28678 0.0
H102 H 0.85551 0.60073 0.23321 0.0
H103 H 0.97378 0.67534 0.25107 0.0
H104 H 0.94228 0.71094 0.30457 0.0
H105 H 0.77364 0.72313 0.36005 0.0
H106 H 0.8394 0.63406 0.37983 0.0
O107 O 0.82814 0.7234 0.29626 0.0
H108 H 0.71478 0.68964 0.4013 0.0
H109 H 0.78025 0.60061 0.42209 0.0
C110 C 0.88094 0.74988 0.36029 0.0
C111 C 0.86869 0.78455 0.35438 0.0
C112 C 0.88589 0.81775 0.3767 0.0
C113 C 0.91637 0.81813 0.40616 0.0
C114 C 0.92868 0.78335 0.41252 0.0
C115 C 0.91097 0.74969 0.3902 0.0
C116 C 0.88094 0.67555 0.30141 0.0
C117 C 0.85745 0.64403 0.28031 0.0
C118 C 0.87517 0.62417 0.24907 0.0
C119 C 0.91733 0.63492 0.23739 0.0
C120 C 0.94129 0.66599 0.25906 0.0
C121 C 0.9233 0.68622 0.2902 0.0
C122 C 0.81118 0.68113 0.36609 0.0
C123 C 0.77557 0.69632 0.37322 0.0
C124 C 0.7417 0.67711 0.39684 0.0
C125 C 0.74244 0.6422 0.41466 0.0
C126 C 0.77849 0.62727 0.40848 0.0
C127 C 0.81243 0.64647 0.38441 0.0
P128 P 0.68013 0.80161 0.85403 0.0
H129 H 0.65603 0.82058 0.93688 0.0
H130 H 0.61229 0.86471 0.95888 0.0
H131 H 0.55866 0.85616 0.83921 0.0
H132 H 0.60266 0.81219 0.81687 0.0
H133 H 0.73987 0.76814 0.8094 0.0
H134 H 0.77425 0.71796 0.82748 0.0
H135 H 0.68088 0.6814 0.92111 0.0
H136 H 0.64682 0.73364 0.90407 0.0
H137 H 0.72577 0.87166 0.81986 0.0
H138 H 0.64906 0.76789 0.77486 0.0
O139 O 0.71852 0.82775 0.88092 0.0
H140 H 0.74726 0.88954 0.7506 0.0
H141 H 0.66656 0.78792 0.70413 0.0
C142 C 0.63347 0.81376 0.87495 0.0
C143 C 0.63369 0.82682 0.91578 0.0
C144 C 0.60915 0.85242 0.92821 0.0
C145 C 0.58353 0.86464 0.90014 0.0
C146 C 0.57901 0.8476 0.86097 0.0
C147 C 0.60389 0.82218 0.84842 0.0
C148 C 0.6905 0.75464 0.85524 0.0
C149 C 0.72527 0.74841 0.83253 0.0
C150 C 0.7452 0.71971 0.8429 0.0
C151 C 0.7306 0.69647 0.87606 0.0
C152 C 0.69266 0.69928 0.89546 0.0
C153 C 0.67317 0.72897 0.88572 0.0
C154 C 0.68751 0.81771 0.80234 0.0
C155 C 0.71304 0.85291 0.79488 0.0
C156 C 0.72489 0.86329 0.75503 0.0
C157 C 0.71036 0.83919 0.72161 0.0
C158 C 0.68075 0.80582 0.72904 0.0
C159 C 0.66999 0.79475 0.76938 0.0
P160 P 0.84941 0.26294 0.3955 0.0
H161 H 0.85315 0.32275 0.45789 0.0
H162 H 0.79868 0.34485 0.49894 0.0
H163 H 0.706 0.25869 0.4417 0.0
H164 H 0.75864 0.2372 0.40112 0.0
H165 H 0.9275 0.23848 0.38528 0.0
H166 H 0.95275 0.18932 0.42198 0.0
H167 H 0.85566 0.18708 0.51365 0.0
H168 H 0.8319 0.23649 0.47906 0.0
H169 H 0.81863 0.26369 0.31284 0.0
H170 H 0.81927 0.18156 0.4069 0.0
O171 O 0.87968 0.29785 0.36965 0.0
H172 H 0.76473 0.21804 0.27737 0.0
H173 H 0.76435 0.13737 0.37274 0.0
C174 C 0.81004 0.27958 0.42501 0.0
C175 C 0.82108 0.30869 0.45438 0.0
C176 C 0.7904 0.32041 0.47864 0.0
C177 C 0.74871 0.30311 0.47309 0.0
C178 C 0.73818 0.27198 0.44644 0.0
C179 C 0.76854 0.26042 0.42239 0.0
C180 C 0.8783 0.24151 0.42962 0.0
C181 C 0.91316 0.22879 0.41441 0.0
C182 C 0.92704 0.2005 0.4348 0.0
C183 C 0.9053 0.18455 0.46977 0.0
C184 C 0.87243 0.19919 0.48648 0.0
C185 C 0.85935 0.22792 0.46685 0.0
C186 C 0.82373 0.22592 0.36197 0.0
C187 C 0.80849 0.23554 0.32499 0.0
C188 C 0.77734 0.20985 0.30527 0.0
C189 C 0.7608 0.17469 0.32281 0.0
C190 C 0.77709 0.1644 0.35886 0.0
C191 C 0.80895 0.1896 0.37794 0.0
P192 P 0.3832 0.70521 0.20374 0.0
H193 H 0.35514 0.64598 0.13999 0.0
H194 H 0.28897 0.62003 0.10805 0.0
H195 H 0.22897 0.68894 0.18899 0.0
H196 H 0.29561 0.71435 0.22224 0.0
H197 H 0.4621 0.76215 0.20615 0.0
H198 H 0.4843 0.82641 0.17919 0.0
H199 H 0.3579 0.82876 0.15321 0.0
H200 H 0.33578 0.76445 0.17913 0.0
H201 H 0.41751 0.63742 0.2193 0.0
H202 H 0.37926 0.72313 0.29602 0.0
O203 O 0.41583 0.69163 0.16935 0.0
H204 H 0.43928 0.6083 0.27954 0.0
H205 H 0.40011 0.69288 0.35725 0.0
C206 C 0.33143 0.68303 0.18359 0.0
C207 C 0.32804 0.65571 0.15143 0.0
C208 C 0.28986 0.64075 0.13277 0.0
C209 C 0.25331 0.65256 0.14527 0.0
C210 C 0.25635 0.67926 0.17815 0.0
C211 C 0.29463 0.69384 0.19733 0.0
C212 C 0.39677 0.75757 0.19626 0.0
C213 C 0.43868 0.77673 0.19614 0.0
C214 C 0.45156 0.81372 0.18029 0.0
C215 C 0.42303 0.83347 0.16415 0.0
C216 C 0.38089 0.81503 0.16573 0.0
C217 C 0.3681 0.7778 0.18111 0.0
C218 C 0.39697 0.68342 0.25192 0.0
C219 C 0.41363 0.65031 0.24905 0.0
C220 C 0.42619 0.63327 0.28397 0.0
C221 C 0.42208 0.64789 0.32406 0.0
C222 C 0.40434 0.68058 0.32725 0.0
C223 C 0.39216 0.69804 0.29194 0.0
P224 P 0.18564 0.36789 0.72852 0.0
H225 H 0.21488 0.31328 0.67395 0.0
H226 H 0.18179 0.25338 0.64062 0.0
H227 H 0.06244 0.26986 0.68418 0.0
H228 H 0.09589 0.32998 0.71842 0.0
H229 H 0.26792 0.41361 0.74653 0.0
H230 H 0.32609 0.44578 0.70347 0.0
H231 H 0.2501 0.42245 0.59695 0.0
H232 H 0.19169 0.38947 0.64014 0.0
H233 H 0.15424 0.35223 0.81291 0.0
H234 H 0.15159 0.4393 0.72579 0.0
O235 O 0.21391 0.34769 0.75938 0.0
H236 H 0.12403 0.38801 0.86588 0.0
H237 H 0.11941 0.47476 0.77888 0.0
C238 C 0.15809 0.32687 0.69849 0.0
C239 C 0.18148 0.3045 0.67599 0.0
C240 C 0.16258 0.26995 0.6571 0.0
C241 C 0.11948 0.2565 0.65992 0.0
C242 C 0.09574 0.27925 0.68158 0.0
C243 C 0.11484 0.31386 0.70093 0.0
C244 C 0.22503 0.39881 0.69689 0.0
C245 C 0.26325 0.41586 0.71405 0.0
C246 C 0.2967 0.43424 0.68938 0.0
C247 C 0.29286 0.43664 0.64677 0.0
C248 C 0.25406 0.42112 0.62968 0.0
C249 C 0.22055 0.40238 0.65445 0.0
C250 C 0.15576 0.39277 0.76482 0.0
C251 C 0.14663 0.37881 0.80474 0.0
C252 C 0.12923 0.39943 0.83535 0.0
C253 C 0.11934 0.43462 0.82721 0.0
C254 C 0.12677 0.44795 0.78663 0.0
C255 C 0.14499 0.42748 0.756 0.0
Ho256 Ho 0.02665 0.05626 0.49603 0.0
Ho257 Ho 0.99546 1.01905 0.57959 0.0
C258 C 0.04554 0.1081 0.58101 0.0
C259 C 0.04726 0.09941 0.43465 0.0
C260 C 0.08911 0.12218 0.42563 0.0
C261 C 0.09524 0.16152 0.42102 0.0
C262 C 0.13515 0.18311 0.41402 0.0
C263 C 0.16937 0.16561 0.41163 0.0
C264 C 0.16354 0.12653 0.41719 0.0
C265 C 0.12383 0.10501 0.42432 0.0
C266 C 0.08224 1.02492 0.53293 0.0
C267 C 0.98062 0.96675 0.4933 0.0
C268 C 0.97492 0.97429 0.6399 0.0
C269 C 0.93421 0.94914 0.64414 0.0
C270 C 0.92104 0.93003 0.6805 0.0
C271 C 0.88043 0.90897 0.6842 0.0
C272 C 0.85307 0.90697 0.6515 0.0
C273 C 0.86681 0.92515 0.61487 0.0
C274 C 0.90689 0.94644 0.61141 0.0
C275 C 0.9419 0.05314 0.54319 0.0
O276 O 0.04588 0.10597 0.54034 0.0
O277 O 0.03088 0.07722 0.6032 0.0
O278 O 0.04379 0.06267 0.43201 0.0
O279 O 0.0278 0.11002 0.467 0.0
O280 O 0.08094 1.02944 0.49384 0.0
O281 O 0.05604 0.04069 0.55075 0.0
O282 O 0.97951 0.96904 0.53404 0.0
O283 O 0.9948 0.99792 0.4719 0.0
O284 O 0.97397 1.01034 0.64247 0.0
O285 O 0.99723 0.96613 0.60848 0.0
O286 O 0.93923 0.0451 0.58162 0.0
O287 O 0.96707 0.03594 0.52585 0.0
H288 H 0.06918 0.17546 0.42263 0.0
H289 H 0.13927 0.21329 0.40941 0.0
H290 H 0.18962 0.11261 0.41509 0.0
H291 H 0.12046 0.07486 0.42854 0.0
H292 H 0.9417 0.93204 0.70606 0.0
H293 H 0.8701 0.89477 0.71264 0.0
H294 H 0.84605 0.9238 0.58947 0.0
H295 H 0.91624 0.96162 0.58339 0.0
Ho296 Ho 0.54769 0.04483 0.05348 0.0
Ho297 Ho 0.47317 0.04298 1.02215 0.0
C298 C 0.4869 0.09355 0.09887 0.0
C299 C 0.61635 0.06612 0.09033 0.0
C300 C 0.62219 0.08232 0.13185 0.0
C301 C 0.64696 0.11845 0.13753 0.0
C302 C 0.65585 0.13262 0.17699 0.0
C303 C 0.64045 0.11048 0.21089 0.0
C304 C 0.61157 0.07653 0.20552 0.0
C305 C 0.60243 0.06242 0.16599 0.0
C306 C 0.49562 0.97939 0.07988 0.0
C307 C 0.53048 0.99225 0.9762 0.0
C308 C 0.40078 1.02705 0.98998 0.0
C309 C 0.38559 1.00627 0.95261 0.0
C310 C 0.39757 0.97215 0.94174 0.0
C311 C 0.38857 0.95556 0.90331 0.0
C312 C 0.36685 0.97264 0.87567 0.0
C313 C 0.35316 1.00578 0.88706 0.0
C314 C 0.36267 1.02264 0.92539 0.0
C315 C 0.53069 0.10574 0.99494 0.0
O316 O 0.5255 0.09137 0.09052 0.0
O317 O 0.45746 0.06956 0.08089 0.0
O318 O 0.59733 1.03081 0.08763 0.0
O319 O 0.60348 0.08721 0.06388 0.0
O320 O 0.53425 0.98378 0.06969 0.0
O321 O 0.48598 1.01213 0.07788 0.0
O322 O 0.49287 0.9984 0.98142 0.0
O323 O 0.56103 1.0127 0.99713 0.0
O324 O 0.42713 0.05877 0.98405 0.0
O325 O 0.4122 1.0072 1.01868 0.0
O326 O 0.49396 0.10583 1.00943 0.0
O327 O 0.53589 0.07172 0.99589 0.0
H328 H 0.66111 0.13481 0.11155 0.0
H329 H 0.67803 0.15909 0.18101 0.0
H330 H 0.59951 0.0593 0.23159 0.0
H331 H 0.58169 0.0351 0.16237 0.0
H332 H 0.41498 0.95895 0.96237 0.0
H333 H 0.3994 0.93003 0.89472 0.0
H334 H 0.33649 1.01925 0.86569 0.0
H335 H 0.3535 0.04911 0.9332 0.0
Ho336 Ho 0.51297 0.49915 0.50521 0.0
Ho337 Ho 0.51927 0.56592 0.55808 0.0
C338 C 0.55629 0.49904 0.59674 0.0
C339 C 0.52425 0.43905 0.46707 0.0
C340 C 0.55302 0.41549 0.47802 0.0
C341 C 0.59134 0.43272 0.49446 0.0
C342 C 0.61925 0.41088 0.50481 0.0
C343 C 0.60931 0.37164 0.49854 0.0
C344 C 0.56983 0.3539 0.48523 0.0
C345 C 0.5416 0.37592 0.47502 0.0
C346 C 0.44166 0.50132 0.54789 0.0
C347 C 0.48301 0.56981 0.46507 0.0
C348 C 0.49288 0.61108 0.60889 0.0
C349 C 0.46692 0.63798 0.6004 0.0
C350 C 0.42485 0.62916 0.61224 0.0
C351 C 0.39802 0.65097 0.59883 0.0
C352 C 0.41328 0.68209 0.57419 0.0
C353 C 0.45511 0.69126 0.56239 0.0
C354 C 0.48189 0.66919 0.5753 0.0
C355 C 0.59136 0.57968 0.51221 0.0
O356 O 0.5467 0.48131 0.5608 0.0
O357 O 0.54957 0.53363 0.60284 0.0
O358 O 0.49419 0.4389 0.49372 0.0
O359 O 0.54124 0.47312 0.45483 0.0
O360 O 0.44349 0.49252 0.50926 0.0
O361 O 0.47827 0.50928 0.56112 0.0
O362 O 0.48429 0.58333 0.50354 0.0
O363 O 0.49631 0.53807 0.45699 0.0
O364 O 0.53058 0.61833 0.59344 0.0
O365 O 0.47429 0.57578 0.60357 0.0
O366 O 0.58071 0.6022 0.54008 0.0
O367 O 0.56251 0.55013 0.5097 0.0
H368 H 0.60039 0.46323 0.49782 0.0
H369 H 0.65002 0.42481 0.5141 0.0
H370 H 0.56225 0.32357 0.47962 0.0
H371 H 0.51161 0.36227 0.46346 0.0
H372 H 0.41259 0.60489 0.63108 0.0
H373 H 0.36573 0.64435 0.60861 0.0
H374 H 0.46705 0.71588 0.54395 0.0
H375 H 0.51402 0.67631 0.56517 0.0
Ho376 Ho 0.02373 0.50156 0.05907 0.0
Ho377 Ho 0.01463 0.57059 1.00936 0.0
C378 C 0.09712 0.58069 0.06303 0.0
C379 C 0.05411 0.44778 0.09038 0.0
C380 C 0.09304 0.44279 0.1091 0.0
C381 C 0.13084 0.46858 0.10272 0.0
C382 C 0.16755 0.46187 0.11907 0.0
C383 C 0.1672 0.42902 0.14161 0.0
C384 C 0.12919 0.40385 0.14875 0.0
C385 C 0.09252 0.41076 0.13279 0.0
C386 C 0.97847 0.54762 0.09942 0.0
C387 C 0.94345 0.49186 1.00155 0.0
C388 C 0.98076 0.62488 0.98665 0.0
C389 C 0.94191 0.62543 0.96478 0.0
C390 C 0.90304 0.60816 0.98174 0.0
C391 C 0.86637 0.61297 0.96433 0.0
C392 C 0.86767 0.63461 0.92915 0.0
C393 C 0.90613 0.64948 0.91014 0.0
C394 C 0.94302 0.64501 0.92793 0.0
C395 C 0.05053 0.52328 0.95835 0.0
O396 O 0.08349 0.54462 0.07316 0.0
O397 O 0.07562 0.59814 0.03865 0.0
O398 O 0.03175 0.46779 0.11131 0.0
O399 O 0.0558 0.45514 0.05127 0.0
O400 O 0.97076 0.5108 0.10079 0.0
O401 O 1.01076 0.558 0.07656 0.0
O402 O 0.95414 0.52897 0.99667 0.0
O403 O 0.96645 0.47362 1.02327 0.0
O404 O 1.01106 0.61454 0.96569 0.0
O405 O 0.97618 0.61082 1.02341 0.0
O406 O 0.04381 0.55603 0.94842 0.0
O407 O 0.03884 0.51883 0.99577 0.0
H408 H 0.13213 0.49352 0.08458 0.0
H409 H 0.19643 0.48178 0.11326 0.0
H410 H 0.12802 0.37845 0.16614 0.0
H411 H 0.06376 0.39059 0.13832 0.0
H412 H 0.9007 0.59209 1.00942 0.0
H413 H 0.83704 0.60154 0.97959 0.0
H414 H 0.90767 0.66648 0.88303 0.0
H415 H 0.97239 0.65818 0.91383 0.0
C416 C 0.25997 0.20945 0.34236 0.0
C417 C 0.28621 0.23225 0.37103 0.0
C418 C 0.23926 0.206 0.42745 0.0
C419 C 0.21055 0.18731 0.39819 0.0
N420 N 0.19171 0.17256 0.32782 0.0
N421 N 0.30188 0.25343 0.44037 0.0
C422 C 0.22054 0.18915 0.35565 0.0
C423 C 0.27636 0.23062 0.41358 0.0
N424 N 0.27307 0.20692 0.30242 0.0
N425 N 0.23115 0.1998 0.46829 0.0
H426 H 0.32992 0.27063 0.43109 0.0
H427 H 0.29456 0.25676 0.47127 0.0
H428 H 0.20389 0.18247 0.47926 0.0
H429 H 0.2524 0.20953 0.4911 0.0
H430 H 0.25749 0.18759 0.28107 0.0
H431 H 0.30152 0.22185 0.29121 0.0
H432 H 0.19503 0.177 0.2964 0.0
H433 H 0.16289 0.15622 0.33616 0.0
C434 C 0.36937 0.96991 0.7606 0.0
C435 C 0.3449 0.93344 0.75223 0.0
C436 C 0.33351 0.9226 0.82564 0.0
C437 C 0.36108 0.95754 0.83354 0.0
N438 N 0.41448 1.00886 0.80876 0.0
N439 N 0.31103 0.87172 0.77645 0.0
C440 C 0.3821 0.97937 0.80105 0.0
C441 C 0.32926 0.90863 0.78471 0.0
N442 N 0.37813 0.99653 0.73075 0.0
N443 N 0.31025 0.9036 0.85683 0.0
H444 H 0.30842 0.8603 0.74672 0.0
H445 H 0.30224 0.85164 0.79914 0.0
H446 H 0.31235 0.91315 0.88728 0.0
H447 H 0.28642 0.88012 0.85202 0.0
H448 H 0.39246 1.02461 0.73681 0.0
H449 H 0.36716 0.99195 0.70102 0.0
H450 H 0.43319 1.02327 0.78553 0.0
H451 H 0.42529 1.01625 0.83822 0.0
C452 C 0.61836 0.43711 0.65718 0.0
C453 C 0.60524 0.44131 0.69882 0.0
C454 C 0.557 0.47997 0.67312 0.0
C455 C 0.57343 0.47917 0.63205 0.0
N456 N 0.62862 0.46426 0.58932 0.0
N457 N 0.56763 0.47451 0.74618 0.0
C458 C 0.60643 0.45956 0.62534 0.0
C459 C 0.57616 0.46502 0.7066 0.0
N460 N 0.6414 0.4107 0.64744 0.0
N461 N 0.52159 0.49329 0.68028 0.0
H462 H 0.58094 0.46455 0.7712 0.0
H463 H 0.55063 0.49507 0.75393 0.0
H464 H 0.50515 0.50235 0.65704 0.0
H465 H 0.50599 0.49137 0.70858 0.0
H466 H 0.64808 0.40339 0.61727 0.0
H467 H 0.65023 0.39347 0.66928 0.0
H468 H 0.6557 0.45413 0.58428 0.0
H469 H 0.62284 0.48217 0.56661 0.0
C470 C 0.92333 0.61777 0.16072 0.0
C471 C 0.93538 0.61418 0.20184 0.0
C472 C 0.97917 0.56985 0.17533 0.0
C473 C 0.96464 0.57149 0.13465 0.0
N474 N 0.91349 0.58914 0.09258 0.0
N475 N 0.97022 0.58166 0.24869 0.0
C476 C 0.93426 0.59345 0.12849 0.0
C477 C 0.96228 0.58892 0.20913 0.0
N478 N 0.90196 0.64508 0.15204 0.0
N479 N 1.00929 0.54998 0.18185 0.0
H480 H 0.95878 0.59498 0.27386 0.0
H481 H 0.9853 0.56042 0.25684 0.0
H482 H 0.02111 0.53453 0.15872 0.0
H483 H 0.02487 0.55102 0.20929 0.0
H484 H 0.89608 0.65187 0.12223 0.0
H485 H 0.89359 0.6634 0.17442 0.0
H486 H 0.88812 0.60127 0.08743 0.0
H487 H 0.91876 0.56985 0.06977 0.0
C488 C 0.48558 0.16664 0.18637 0.0
C489 C 0.46577 0.19272 0.16709 0.0
C490 C 0.45574 0.15207 0.1054 0.0
C491 C 0.47747 0.12645 0.1235 0.0
N492 N 0.51507 0.1102 0.18046 0.0
N493 N 0.4416 0.21533 0.10553 0.0
C494 C 0.49332 0.13423 0.16371 0.0
C495 C 0.45378 0.18687 0.12582 0.0
N496 N 0.49591 0.17245 0.22666 0.0
N497 N 0.43584 0.14323 0.06914 0.0
H498 H 0.43952 0.24121 0.11946 0.0
H499 H 0.43766 0.21493 0.07395 0.0
H500 H 0.43604 0.11886 0.05181 0.0
H501 H 0.41535 0.15862 0.05775 0.0
H502 H 0.50698 0.15315 0.24415 0.0
H503 H 0.49171 0.19637 0.24347 0.0
H504 H 0.53157 0.11603 0.20737 0.0
H505 H 0.5177 0.0844 0.16671 0.0
C506 C 0.12678 0.94104 0.52511 0.0
C507 C 0.12022 0.92589 0.56458 0.0
C508 C 0.09069 0.97931 0.588 0.0
C509 C 0.10218 0.99602 0.54939 0.0
N510 N 0.15037 1.00043 0.49197 0.0
N511 N 0.08497 0.92307 0.62946 0.0
C512 C 0.12598 0.97918 0.52092 0.0
C513 C 0.09747 0.94235 0.59442 0.0
N514 N 0.13774 0.92021 0.49287 0.0
N515 N 0.0786 1.0003 0.61953 0.0
H516 H 0.09145 0.89631 0.63375 0.0
H517 H 0.06595 0.93196 0.65197 0.0
H518 H 0.07839 1.02885 0.61665 0.0
H519 H 0.07295 0.99066 0.64937 0.0
H520 H 0.14204 0.93063 0.46318 0.0
H521 H 0.13755 0.89144 0.49522 0.0
H522 H 0.17081 0.98949 0.47256 0.0
H523 H 0.15417 1.02988 0.4915 0.0
C524 C 0.83322 0.4323 0.97887 0.0
C525 C 0.8316 0.43517 0.93543 0.0
C526 C 0.90461 0.47084 0.93537 0.0
C527 C 0.9053 0.47046 0.9791 0.0
N528 N 0.86785 0.4548 0.04267 0.0
N529 N 0.8645 0.46158 0.87299 0.0
C530 C 0.86894 0.45205 1.00084 0.0
C531 C 0.86702 0.45572 0.91399 0.0
N532 N 0.80072 0.41004 0.99919 0.0
N533 N 0.94058 0.48434 0.91393 0.0
H534 H 0.83821 0.4503 0.85617 0.0
H535 H 0.88704 0.47994 0.85622 0.0
H536 H 0.96848 0.49549 0.92811 0.0
H537 H 0.94382 0.48149 0.88227 0.0
H538 H 0.80135 0.40299 0.02986 0.0
H539 H 0.77381 0.39644 0.98455 0.0
H540 H 0.84116 0.446 0.06055 0.0
H541 H 0.89318 0.46855 0.05955 0.0
C542 C 0.67431 0.5936 0.42291 0.0
C543 C 0.70567 0.62223 0.44044 0.0
C544 C 0.66693 0.6135 0.50651 0.0
C545 C 0.63208 0.58979 0.48753 0.0
N546 N 0.60244 0.56044 0.42467 0.0
N547 N 0.72909 0.66253 0.49865 0.0
C548 C 0.63591 0.58025 0.445 0.0
C549 C 0.70105 0.63309 0.48213 0.0
N550 N 0.68112 0.57903 0.38493 0.0
N551 N 0.66869 0.61576 0.54832 0.0
H552 H 0.75547 0.67641 0.48267 0.0
H553 H 0.72448 0.67493 0.52711 0.0
H554 H 0.64668 0.59918 0.5674 0.0
H555 H 0.69458 0.63012 0.56394 0.0
H556 H 0.66193 0.55509 0.37238 0.0
H557 H 0.70794 0.58887 0.36744 0.0
H558 H 0.60191 0.5567 0.39293 0.0
H559 H 0.57395 0.5502 0.43882 0.0
C560 C 0.27494 0.4046 0.14194 0.0
C561 C 0.2785 0.39696 0.18395 0.0
C562 C 0.21292 0.41731 0.19903 0.0
C563 C 0.20663 0.41985 0.15634 0.0
N564 N 0.22883 0.40898 0.08671 0.0
N565 N 0.24778 0.39077 0.25206 0.0
C566 C 0.23701 0.41184 0.12763 0.0
C567 C 0.24671 0.40203 0.21248 0.0
N568 N 0.30812 0.40561 0.11574 0.0
N569 N 0.18724 0.4304 0.22679 0.0
H570 H 0.27176 0.3793 0.26313 0.0
H571 H 0.22322 0.38979 0.27299 0.0
H572 H 0.16269 0.44235 0.21807 0.0
H573 H 0.19266 0.43277 0.25814 0.0
H574 H 0.30882 0.41495 0.08572 0.0
H575 H 0.33643 0.40067 0.12522 0.0
H576 H 0.24798 0.3992 0.06495 0.0
H577 H 0.20102 0.41277 0.07484 0.0
C578 C 0.60607 0.20022 0.96486 0.0
C579 C 0.59289 0.20651 0.92476 0.0
C580 C 0.54593 0.1426 0.92781 0.0
C581 C 0.55541 0.13856 0.9696 0.0
N582 N 0.59005 0.16797 1.02974 0.0
N583 N 0.54431 0.18488 0.87112 0.0
C584 C 0.58429 0.16866 0.98853 0.0
C585 C 0.56138 0.17779 0.90701 0.0
N586 N 0.6406 0.22356 0.98001 0.0
N587 N 0.52206 0.11258 0.90768 0.0
H588 H 0.55335 0.21038 0.85579 0.0
H589 H 0.51844 0.16715 0.85863 0.0
H590 H 0.50983 0.08696 0.92189 0.0
H591 H 0.51751 0.11185 0.87619 0.0
H592 H 0.65446 0.21826 1.00695 0.0
H593 H 0.65789 0.24613 0.9636 0.0
H594 H 0.6071 0.19072 0.04629 0.0
H595 H 0.57471 0.14592 0.048 0.0
C596 C 0.95154 0.88874 0.40721 0.0
C597 C 0.93497 0.85522 0.42916 0.0
C598 C 0.95579 0.89262 0.49274 0.0
C599 C 0.9647 0.92793 0.4712 0.0
N600 N 0.95485 0.95591 0.40587 0.0
N601 N 0.91198 0.82963 0.49541 0.0
C602 C 0.95818 0.92502 0.4278 0.0
C603 C 0.93411 0.85851 0.47271 0.0
N604 N 0.9615 0.88632 0.36654 0.0
N605 N 0.97011 0.89014 0.53122 0.0
H606 H 0.89488 0.80489 0.48218 0.0
H607 H 0.90714 0.83226 0.52698 0.0
H608 H 0.99245 0.91113 0.54466 0.0
H609 H 0.96539 0.86465 0.54678 0.0
H610 H 0.97693 0.90972 0.35013 0.0
H611 H 0.95878 0.86045 0.35077 0.0
H612 H 0.94829 0.95407 0.37471 0.0
H613 H 0.95114 0.98141 0.41936 0.0
C614 C 0.33539 0.73013 0.52654 0.0
C615 C 0.34005 0.76261 0.5524 0.0
C616 C 0.38856 0.73955 0.59485 0.0
C617 C 0.38713 0.70895 0.56669 0.0
N618 N 0.36429 0.67664 0.50322 0.0
N619 N 0.37646 0.80246 0.60644 0.0
C620 C 0.36194 0.70454 0.53172 0.0
C621 C 0.36809 0.76855 0.58532 0.0
N622 N 0.30518 0.72351 0.49787 0.0
N623 N 0.40905 0.74064 0.63093 0.0
H624 H 0.3626 0.82514 0.60055 0.0
H625 H 0.40012 0.8096 0.62747 0.0
H626 H 0.42594 0.72053 0.6387 0.0
H627 H 0.40654 0.75979 0.65479 0.0
H628 H 0.29761 0.69839 0.4808 0.0
H629 H 0.28552 0.74218 0.49333 0.0
H630 H 0.3499 0.67455 0.475 0.0
H631 H 0.38313 0.65706 0.5066 0.0
C632 C 0.73663 0.88691 0.66999 0.0
C633 C 0.73065 0.84861 0.68082 0.0
C634 C 0.80036 0.84626 0.6558 0.0
C635 C 0.80955 0.88646 0.65577 0.0
N636 N 0.78644 0.94582 0.66147 0.0
N637 N 0.74739 0.78877 0.66217 0.0
C638 C 0.7774 0.9071 0.66103 0.0
C639 C 0.75953 0.8271 0.6665 0.0
N640 N 0.70354 0.90406 0.67219 0.0
N641 N 0.83103 0.82677 0.64733 0.0
H642 H 0.71678 0.77488 0.66682 0.0
H643 H 0.76601 0.77136 0.64932 0.0
H644 H 0.86066 0.83998 0.63727 0.0
H645 H 0.82773 0.7978 0.65154 0.0
H646 H 0.7046 0.93157 0.66266 0.0
H647 H 0.67407 0.88882 0.68045 0.0
H648 H 0.76496 0.96229 0.66951 0.0
H649 H 0.81624 0.96177 0.65647 0.0
C650 C 0.68567 0.1597 0.30699 0.0
C651 C 0.72501 0.14971 0.30381 0.0
C652 C 0.70137 0.10342 0.24971 0.0
C653 C 0.66422 0.11738 0.24866 0.0
N654 N 0.61742 0.15414 0.27786 0.0
N655 N 0.76672 0.10503 0.28228 0.0
C656 C 0.65484 0.14358 0.2785 0.0
C657 C 0.73152 0.11896 0.27871 0.0
N658 N 0.67838 0.18455 0.33724 0.0
N659 N 0.70926 0.07779 0.22051 0.0
H660 H 0.79056 0.11694 0.30183 0.0
H661 H 0.77117 0.0799 0.26835 0.0
H662 H 0.68742 0.06431 0.19964 0.0
H663 H 0.73806 0.0709 0.2154 0.0
H664 H 0.65015 0.19242 0.34267 0.0
H665 H 0.7005 0.19584 0.35891 0.0
H666 H 0.6091 0.17514 0.29663 0.0
H667 H 0.59423 0.14155 0.25777 0.0
C668 C 0.46929 0.64786 0.38691 0.0
C669 C 0.43629 0.62867 0.36181 0.0
C670 C 0.4346 0.57072 0.40333 0.0
C671 C 0.46606 0.59049 0.43002 0.0
N672 N 0.50982 0.65048 0.44866 0.0
N673 N 0.38282 0.57302 0.35191 0.0
C674 C 0.48191 0.62987 0.42235 0.0
C675 C 0.41797 0.59034 0.37158 0.0
N676 N 0.49076 0.68275 0.37536 0.0
N677 N 0.41992 0.5328 0.40835 0.0
H678 H 0.36909 0.5864 0.32976 0.0
H679 H 0.36491 0.54687 0.36004 0.0
H680 H 0.42667 0.51818 0.43352 0.0
H681 H 0.40242 0.51536 0.38658 0.0
H682 H 0.51807 0.69675 0.38883 0.0
H683 H 0.48343 0.69649 0.34972 0.0
H684 H 0.51766 0.67995 0.44905 0.0
H685 H 0.52376 0.63843 0.47168 0.0
C686 C 0.06449 0.44176 0.88285 0.0
C687 C 0.1023 0.45732 0.86162 0.0
C688 C 0.10791 0.51505 0.90621 0.0
C689 C 0.0714 0.49843 0.9292 0.0
N690 N 0.02107 0.4416 0.94414 0.0
N691 N 0.16414 0.50637 0.85951 0.0
C692 C 0.05177 0.4604 0.91903 0.0
C693 C 0.12501 0.49341 0.87501 0.0
N694 N 0.03936 0.4099 0.86726 0.0
N695 N 0.12686 0.55177 0.9144 0.0
H696 H 0.17821 0.49131 0.8377 0.0
H697 H 0.18424 0.5303 0.87089 0.0
H698 H 0.11916 0.56705 0.93989 0.0
H699 H 0.14925 0.56753 0.89509 0.0
H700 H 1.00943 0.39937 0.87841 0.0
H701 H 0.04669 0.39618 0.84043 0.0
H702 H 1.00818 0.41283 0.9409 0.0
H703 H 1.01178 0.45385 0.97089 0.0
C704 C 0.58607 0.93469 0.90223 0.0
C705 C 0.56439 0.89744 0.91135 0.0
C706 C 0.51289 0.92314 0.95223 0.0
C707 C 0.53829 0.96032 0.94892 0.0
N708 N 0.59503 1.00252 0.91547 0.0
N709 N 0.50719 0.85527 0.94353 0.0
C710 C 0.57356 0.96636 0.92198 0.0
C711 C 0.52727 0.8915 0.93506 0.0
N712 N 0.61855 0.93954 0.87456 0.0
N713 N 0.47545 0.91739 0.97255 0.0
H714 H 0.51555 0.83148 0.92976 0.0
H715 H 0.48369 0.84853 0.96569 0.0
H716 H 0.46634 0.93673 0.99296 0.0
H717 H 0.45277 0.89281 0.96907 0.0
H718 H 0.63409 0.96562 0.86371 0.0
H719 H 0.62884 0.91696 0.86021 0.0
H720 H 0.62374 1.00934 0.90054 0.0
H721 H 0.58391 1.02634 0.92529 0.0
C722 C 0.90505 0.11557 0.46731 0.0
C723 C 0.91492 0.15099 0.4883 0.0
C724 C 0.93473 0.12124 0.54874 0.0
C725 C 0.92967 0.0863 0.52595 0.0
N726 N 0.91054 0.0499 0.46354 0.0
N727 N 0.94167 0.18933 0.5468 0.0
C728 C 0.91515 0.08344 0.48515 0.0
C729 C 0.92987 0.15421 0.52861 0.0
N730 N 0.88364 0.1122 0.43158 0.0
N731 N 0.9455 0.12383 0.58908 0.0
H732 H 0.94065 0.21448 0.53219 0.0
H733 H 0.95595 0.19434 0.575 0.0
H734 H 0.95853 0.10442 0.60417 0.0
H735 H 0.94097 0.14594 0.60859 0.0
H736 H 0.87131 0.08638 0.41729 0.0
H737 H 0.87481 0.13496 0.4178 0.0
H738 H 0.90663 0.04766 0.43195 0.0
H739 H 0.91192 1.02421 0.47677 0.0
C740 C 0.20777 0.64147 0.08128 0.0
C741 C 0.21229 0.63648 0.12414 0.0
C742 C 0.1388 0.60285 0.12703 0.0
C743 C 0.13622 0.60258 0.08352 0.0
N744 N 0.17109 0.61903 1.0187 0.0
N745 N 0.18249 0.60576 0.18603 0.0
C746 C 0.17148 0.6214 0.06051 0.0
C747 C 0.17781 0.61541 0.14649 0.0
N748 N 0.23751 0.66652 0.06054 0.0
N749 N 0.10336 0.59281 0.15019 0.0
H750 H 0.2105 0.61319 0.20116 0.0
H751 H 0.15971 0.58715 0.20233 0.0
H752 H 0.07425 0.58612 0.1371 0.0
H753 H 0.10244 0.59578 0.18202 0.0
H754 H 0.23427 0.67439 0.0305 0.0
H755 H 0.26365 0.68235 0.07468 0.0
H756 H 0.19722 0.6284 1.00017 0.0
H757 H 0.14541 0.60489 1.0026 0.0
C758 C 0.35935 0.43064 0.60845 0.0
C759 C 0.33033 0.45327 0.62024 0.0
C760 C 0.37321 0.50694 0.58264 0.0
C761 C 0.40396 0.4853 0.57406 0.0
N762 N 0.42849 0.42763 0.58302 0.0
N763 N 0.31172 0.51431 0.62232 0.0
C764 C 0.3976 0.44745 0.58822 0.0
C765 C 0.33786 0.49182 0.60826 0.0
N766 N 0.34972 0.39259 0.61546 0.0
N767 N 0.37739 0.54178 0.56555 0.0
H768 H 0.28519 0.50402 0.64006 0.0
H769 H 0.31766 0.54354 0.61884 0.0
H770 H 0.40322 0.55408 0.54778 0.0
H771 H 0.35427 0.55748 0.56665 0.0
H772 H 0.36691 0.37356 0.60348 0.0
H773 H 0.32243 0.37935 0.63046 0.0
H774 H 0.42797 0.40176 0.59663 0.0
H775 H 0.45636 0.43832 0.56764 0.0
C776 C 0.7844 0.69316 0.9275 0.0
C777 C 0.75988 0.6756 0.89446 0.0
C778 C 0.80267 0.62738 0.88779 0.0
C779 C 0.82983 0.64774 0.91738 0.0
N780 N 0.84927 0.70187 0.96287 0.0
N781 N 0.74558 0.62691 0.842 0.0
C782 C 0.82118 0.6809 0.93682 0.0
C783 C 0.76883 0.64271 0.87445 0.0
N784 N 0.77282 0.7219 0.94996 0.0
N785 N 0.80912 0.59332 0.87285 0.0
H786 H 0.71934 0.63629 0.83313 0.0
H787 H 0.75307 0.60572 0.82287 0.0
H788 H 0.83417 0.58197 0.88142 0.0
H789 H 0.78846 0.57517 0.85419 0.0
H790 H 0.78603 0.73208 0.97771 0.0
H791 H 0.74792 0.73395 0.94294 0.0
H792 H 0.84777 0.72899 0.97347 0.0
H793 H 0.87613 0.6936 0.9717 0.0
C794 C 0.43222 0.90659 0.15851 0.0
C795 C 0.43791 0.87111 0.1417 0.0
C796 C 0.47988 0.90616 0.08529 0.0
C797 C 0.47228 0.94217 0.10014 0.0
N798 N 0.43427 0.97379 0.14949 0.0
N799 N 0.45736 0.83765 0.08237 0.0
C800 C 0.44605 0.94142 0.13609 0.0
C801 C 0.4588 0.87123 0.10319 0.0
N802 N 0.41506 0.90736 0.19699 0.0
N803 N 0.50829 0.90447 0.05443 0.0
H804 H 0.44226 0.81159 0.09394 0.0
H805 H 0.46721 0.83602 0.05188 0.0
H806 H 0.52251 0.9272 0.03683 0.0
H807 H 0.51958 0.88011 0.04741 0.0
H808 H 0.41444 0.93224 0.2136 0.0
H809 H 0.40432 0.88287 0.21372 0.0
H810 H 0.41151 0.9742 0.1721 0.0
H811 H 0.4447 0.99999 0.13621 0.0
C812 C 0.10204 0.18401 0.65885 0.0
C813 C 0.09973 0.21865 0.64013 0.0
C814 C 0.05977 0.18158 0.58421 0.0
C815 C 0.06435 0.14645 0.60152 0.0
N816 N 0.10298 0.11751 0.64879 0.0
N817 N 0.08427 0.24995 0.58016 0.0
C818 C 0.08889 0.14857 0.63724 0.0
C819 C 0.08099 0.2172 0.60134 0.0
N820 N 0.11687 0.18479 0.6976 0.0
N821 N 0.03395 0.1815 0.55221 0.0
H822 H 0.09838 0.27644 0.59204 0.0
H823 H 0.07651 0.25063 0.54951 0.0
H824 H 0.01579 0.15717 0.5397 0.0
H825 H 0.02702 0.20594 0.5405 0.0
H826 H 0.11523 0.16047 0.71465 0.0
H827 H 0.12748 0.20995 0.71402 0.0
H828 H 0.12415 0.11825 0.67205 0.0
H829 H 0.09822 0.09241 0.63162 0.0
C830 C 0.70608 0.34763 0.45376 0.0
C831 C 0.71591 0.32353 0.48389 0.0
C832 C 0.65546 0.33113 0.52553 0.0
C833 C 0.64388 0.35219 0.49339 0.0
N834 N 0.65286 0.37384 0.42349 0.0
N835 N 0.6988 0.28833 0.54599 0.0
C836 C 0.66766 0.35851 0.45651 0.0
C837 C 0.69031 0.3141 0.51926 0.0
N838 N 0.73346 0.36014 0.42234 0.0
N839 N 0.63361 0.32801 0.56187 0.0
H840 H 0.72505 0.27654 0.5427 0.0
H841 H 0.67891 0.27722 0.57 0.0
H842 H 0.60728 0.33945 0.56666 0.0
H843 H 0.64286 0.31613 0.58788 0.0
H844 H 0.72993 0.3815 0.40269 0.0
H845 H 0.76163 0.35182 0.41772 0.0
H846 H 0.6666 0.37466 0.39433 0.0
H847 H 0.62467 0.38255 0.42386 0.0
loop_
_geom_bond_atom_site_label_1
_geom_bond_atom_site_label_2
_geom_bond_distance
_geom_bond_site_symmetry_2
_ccdc_geom_bond_type
P0 O11 1.490 . S
P0 C14 1.812 . S
P0 C20 1.803 . S
P0 C26 1.819 . S
H1 C15 0.941 . S
H2 C16 0.939 . S
H3 C18 0.940 . S
H4 C19 0.940 . S
H5 C21 0.939 . S
H6 C22 0.942 . S
H7 C24 0.940 . S
H8 C25 0.939 . S
H9 C27 0.941 . S
H10 C31 0.939 . S
O11 P0 1.490 . S
H12 C28 0.939 . S
H13 C30 0.940 . S
C14 P0 1.812 . S
C14 C15 1.389 . S
C14 C19 1.391 . S
C15 H1 0.941 . S
C15 C14 1.389 . S
C15 C16 1.397 . S
C16 H2 0.939 . S
C16 C15 1.397 . S
C16 C17 1.378 . S
C17 C16 1.378 . S
C17 C18 1.378 . S
C18 H3 0.940 . S
C18 C17 1.378 . S
C18 C19 1.396 . S
C19 H4 0.940 . S
C19 C14 1.391 . S
C19 C18 1.396 . S
C20 P0 1.803 . S
C20 C21 1.378 . S
C20 C25 1.400 . S
C21 H5 0.939 . S
C21 C20 1.378 . S
C21 C22 1.361 . S
C22 H6 0.942 . S
C22 C21 1.361 . S
C22 C23 1.369 . S
C23 C22 1.369 . S
C23 C24 1.404 . S
C24 H7 0.940 . S
C24 C23 1.404 . S
C24 C25 1.389 . S
C25 H8 0.939 . S
C25 C20 1.400 . S
C25 C24 1.389 . S
C26 P0 1.819 . S
C26 C27 1.391 . S
C26 C31 1.391 . S
C27 H9 0.941 . S
C27 C26 1.391 . S
C27 C28 1.396 . S
C28 H12 0.939 . S
C28 C27 1.396 . S
C28 C29 1.397 . S
C29 C28 1.397 . S
C29 C30 1.385 . S
C30 H13 0.940 . S
C30 C29 1.385 . S
C30 C31 1.388 . S
C31 H10 0.939 . S
C31 C26 1.391 . S
C31 C30 1.388 . S
P32 O43 1.490 . S
P32 C46 1.812 . S
P32 C52 1.803 . S
P32 C58 1.819 . S
H33 C47 0.941 . S
H34 C48 0.939 . S
H35 C50 0.940 . S
H36 C51 0.940 . S
H37 C53 0.939 . S
H38 C54 0.942 . S
H39 C56 0.940 . S
H40 C57 0.939 . S
H41 C59 0.941 . S
H42 C63 0.939 . S
O43 P32 1.490 . S
H44 C60 0.939 . S
H45 C62 0.940 . S
C46 P32 1.812 . S
C46 C47 1.389 . S
C46 C51 1.391 . S
C47 H33 0.941 . S
C47 C46 1.389 . S
C47 C48 1.397 . S
C48 H34 0.939 . S
C48 C47 1.397 . S
C48 C49 1.378 . S
C49 C48 1.378 . S
C49 C50 1.378 . S
C50 H35 0.940 . S
C50 C49 1.378 . S
C50 C51 1.396 . S
C51 H36 0.940 . S
C51 C46 1.391 . S
C51 C50 1.396 . S
C52 P32 1.803 . S
C52 C53 1.378 . S
C52 C57 1.400 . S
C53 H37 0.939 . S
C53 C52 1.378 . S
C53 C54 1.361 . S
C54 H38 0.942 . S
C54 C53 1.361 . S
C54 C55 1.369 . S
C55 C54 1.369 . S
C55 C56 1.404 . S
C56 H39 0.940 . S
C56 C55 1.404 . S
C56 C57 1.389 . S
C57 H40 0.939 . S
C57 C52 1.400 . S
C57 C56 1.389 . S
C58 P32 1.819 . S
C58 C59 1.391 . S
C58 C63 1.391 . S
C59 H41 0.941 . S
C59 C58 1.391 . S
C59 C60 1.396 . S
C60 H44 0.939 . S
C60 C59 1.396 . S
C60 C61 1.397 . S
C61 C60 1.397 . S
C61 C62 1.385 . S
C62 H45 0.940 . S
C62 C61 1.385 . S
C62 C63 1.388 . S
C63 H42 0.939 . S
C63 C58 1.391 . S
C63 C62 1.388 . S
P64 O75 1.490 . S
P64 C78 1.812 . S
P64 C84 1.803 . S
P64 C90 1.819 . S
H65 C79 0.941 . S
H66 C80 0.939 . S
H67 C82 0.940 . S
H68 C83 0.940 . S
H69 C85 0.939 . S
H70 C86 0.942 . S
H71 C88 0.940 . S
H72 C89 0.939 . S
H73 C91 0.941 . S
H74 C95 0.939 . S
O75 P64 1.490 . S
H76 C92 0.939 . S
H77 C94 0.940 . S
C78 P64 1.812 . S
C78 C79 1.389 . S
C78 C83 1.391 . S
C79 H65 0.941 . S
C79 C78 1.389 . S
C79 C80 1.397 . S
C80 H66 0.939 . S
C80 C79 1.397 . S
C80 C81 1.378 . S
C81 C80 1.378 . S
C81 C82 1.378 . S
C82 H67 0.940 . S
C82 C81 1.378 . S
C82 C83 1.396 . S
C83 H68 0.940 . S
C83 C78 1.391 . S
C83 C82 1.396 . S
C84 P64 1.803 . S
C84 C85 1.378 . S
C84 C89 1.400 . S
C85 H69 0.939 . S
C85 C84 1.378 . S
C85 C86 1.361 . S
C86 H70 0.942 . S
C86 C85 1.361 . S
C86 C87 1.369 . S
C87 C86 1.369 . S
C87 C88 1.404 . S
C88 H71 0.940 . S
C88 C87 1.404 . S
C88 C89 1.389 . S
C89 H72 0.939 . S
C89 C84 1.400 . S
C89 C88 1.389 . S
C90 P64 1.819 . S
C90 C91 1.391 . S
C90 C95 1.391 . S
C91 H73 0.941 . S
C91 C90 1.391 . S
C91 C92 1.396 . S
C92 H76 0.939 . S
C92 C91 1.396 . S
C92 C93 1.397 . S
C93 C92 1.397 . S
C93 C94 1.385 . S
C94 H77 0.940 . S
C94 C93 1.385 . S
C94 C95 1.388 . S
C95 H74 0.939 . S
C95 C90 1.391 . S
C95 C94 1.388 . S
P96 O107 1.490 . S
P96 C110 1.812 . S
P96 C116 1.803 . S
P96 C122 1.819 . S
H97 C111 0.941 . S
H98 C112 0.939 . S
H99 C114 0.940 . S
H100 C115 0.940 . S
H101 C117 0.939 . S
H102 C118 0.942 . S
H103 C120 0.940 . S
H104 C121 0.939 . S
H105 C123 0.941 . S
H106 C127 0.939 . S
O107 P96 1.490 . S
H108 C124 0.939 . S
H109 C126 0.940 . S
C110 P96 1.812 . S
C110 C111 1.389 . S
C110 C115 1.391 . S
C111 H97 0.941 . S
C111 C110 1.389 . S
C111 C112 1.397 . S
C112 H98 0.939 . S
C112 C111 1.397 . S
C112 C113 1.378 . S
C113 C112 1.378 . S
C113 C114 1.378 . S
C114 H99 0.940 . S
C114 C113 1.378 . S
C114 C115 1.396 . S
C115 H100 0.940 . S
C115 C110 1.391 . S
C115 C114 1.396 . S
C116 P96 1.803 . S
C116 C117 1.378 . S
C116 C121 1.400 . S
C117 H101 0.939 . S
C117 C116 1.378 . S
C117 C118 1.361 . S
C118 H102 0.942 . S
C118 C117 1.361 . S
C118 C119 1.369 . S
C119 C118 1.369 . S
C119 C120 1.404 . S
C120 H103 0.940 . S
C120 C119 1.404 . S
C120 C121 1.389 . S
C121 H104 0.939 . S
C121 C116 1.400 . S
C121 C120 1.389 . S
C122 P96 1.819 . S
C122 C123 1.391 . S
C122 C127 1.391 . S
C123 H105 0.941 . S
C123 C122 1.391 . S
C123 C124 1.396 . S
C124 H108 0.939 . S
C124 C123 1.396 . S
C124 C125 1.397 . S
C125 C124 1.397 . S
C125 C126 1.385 . S
C126 H109 0.940 . S
C126 C125 1.385 . S
C126 C127 1.388 . S
C127 H106 0.939 . S
C127 C122 1.391 . S
C127 C126 1.388 . S
P128 O139 1.490 . S
P128 C142 1.812 . S
P128 C148 1.803 . S
P128 C154 1.819 . S
H129 C143 0.941 . S
H130 C144 0.939 . S
H131 C146 0.940 . S
H132 C147 0.940 . S
H133 C149 0.939 . S
H134 C150 0.942 . S
H135 C152 0.940 . S
H136 C153 0.939 . S
H137 C155 0.941 . S
H138 C159 0.939 . S
O139 P128 1.490 . S
H140 C156 0.939 . S
H141 C158 0.940 . S
C142 P128 1.812 . S
C142 C143 1.389 . S
C142 C147 1.391 . S
C143 H129 0.941 . S
C143 C142 1.389 . S
C143 C144 1.397 . S
C144 H130 0.939 . S
C144 C143 1.397 . S
C144 C145 1.378 . S
C145 C144 1.378 . S
C145 C146 1.378 . S
C146 H131 0.940 . S
C146 C145 1.378 . S
C146 C147 1.396 . S
C147 H132 0.940 . S
C147 C142 1.391 . S
C147 C146 1.396 . S
C148 P128 1.803 . S
C148 C149 1.378 . S
C148 C153 1.400 . S
C149 H133 0.939 . S
C149 C148 1.378 . S
C149 C150 1.361 . S
C150 H134 0.942 . S
C150 C149 1.361 . S
C150 C151 1.369 . S
C151 C150 1.369 . S
C151 C152 1.404 . S
C152 H135 0.940 . S
C152 C151 1.404 . S
C152 C153 1.389 . S
C153 H136 0.939 . S
C153 C148 1.400 . S
C153 C152 1.389 . S
C154 P128 1.819 . S
C154 C155 1.391 . S
C154 C159 1.391 . S
C155 H137 0.941 . S
C155 C154 1.391 . S
C155 C156 1.396 . S
C156 H140 0.939 . S
C156 C155 1.396 . S
C156 C157 1.397 . S
C157 C156 1.397 . S
C157 C158 1.385 . S
C158 H141 0.940 . S
C158 C157 1.385 . S
C158 C159 1.388 . S
C159 H138 0.939 . S
C159 C154 1.391 . S
C159 C158 1.388 . S
P160 O171 1.490 . S
P160 C174 1.812 . S
P160 C180 1.803 . S
P160 C186 1.819 . S
H161 C175 0.941 . S
H162 C176 0.939 . S
H163 C178 0.940 . S
H164 C179 0.940 . S
H165 C181 0.939 . S
H166 C182 0.942 . S
H167 C184 0.940 . S
H168 C185 0.939 . S
H169 C187 0.941 . S
H170 C191 0.939 . S
O171 P160 1.490 . S
H172 C188 0.939 . S
H173 C190 0.940 . S
C174 P160 1.812 . S
C174 C175 1.389 . S
C174 C179 1.391 . S
C175 H161 0.941 . S
C175 C174 1.389 . S
C175 C176 1.397 . S
C176 H162 0.939 . S
C176 C175 1.397 . S
C176 C177 1.378 . S
C177 C176 1.378 . S
C177 C178 1.378 . S
C178 H163 0.940 . S
C178 C177 1.378 . S
C178 C179 1.396 . S
C179 H164 0.940 . S
C179 C174 1.391 . S
C179 C178 1.396 . S
C180 P160 1.803 . S
C180 C181 1.378 . S
C180 C185 1.400 . S
C181 H165 0.939 . S
C181 C180 1.378 . S
C181 C182 1.361 . S
C182 H166 0.942 . S
C182 C181 1.361 . S
C182 C183 1.369 . S
C183 C182 1.369 . S
C183 C184 1.404 . S
C184 H167 0.940 . S
C184 C183 1.404 . S
C184 C185 1.389 . S
C185 H168 0.939 . S
C185 C180 1.400 . S
C185 C184 1.389 . S
C186 P160 1.819 . S
C186 C187 1.391 . S
C186 C191 1.391 . S
C187 H169 0.941 . S
C187 C186 1.391 . S
C187 C188 1.396 . S
C188 H172 0.939 . S
C188 C187 1.396 . S
C188 C189 1.397 . S
C189 C188 1.397 . S
C189 C190 1.385 . S
C190 H173 0.940 . S
C190 C189 1.385 . S
C190 C191 1.388 . S
C191 H170 0.939 . S
C191 C186 1.391 . S
C191 C190 1.388 . S
P192 O203 1.490 . S
P192 C206 1.812 . S
P192 C212 1.803 . S
P192 C218 1.819 . S
H193 C207 0.941 . S
H194 C208 0.939 . S
H195 C210 0.940 . S
H196 C211 0.940 . S
H197 C213 0.939 . S
H198 C214 0.942 . S
H199 C216 0.940 . S
H200 C217 0.939 . S
H201 C219 0.941 . S
H202 C223 0.939 . S
O203 P192 1.490 . S
H204 C220 0.939 . S
H205 C222 0.940 . S
C206 P192 1.812 . S
C206 C207 1.389 . S
C206 C211 1.391 . S
C207 H193 0.941 . S
C207 C206 1.389 . S
C207 C208 1.397 . S
C208 H194 0.939 . S
C208 C207 1.397 . S
C208 C209 1.378 . S
C209 C208 1.378 . S
C209 C210 1.378 . S
C210 H195 0.940 . S
C210 C209 1.378 . S
C210 C211 1.396 . S
C211 H196 0.940 . S
C211 C206 1.391 . S
C211 C210 1.396 . S
C212 P192 1.803 . S
C212 C213 1.378 . S
C212 C217 1.400 . S
C213 H197 0.939 . S
C213 C212 1.378 . S
C213 C214 1.361 . S
C214 H198 0.942 . S
C214 C213 1.361 . S
C214 C215 1.369 . S
C215 C214 1.369 . S
C215 C216 1.404 . S
C216 H199 0.940 . S
C216 C215 1.404 . S
C216 C217 1.389 . S
C217 H200 0.939 . S
C217 C212 1.400 . S
C217 C216 1.389 . S
C218 P192 1.819 . S
C218 C219 1.391 . S
C218 C223 1.391 . S
C219 H201 0.941 . S
C219 C218 1.391 . S
C219 C220 1.396 . S
C220 H204 0.939 . S
C220 C219 1.396 . S
C220 C221 1.397 . S
C221 C220 1.397 . S
C221 C222 1.385 . S
C222 H205 0.940 . S
C222 C221 1.385 . S
C222 C223 1.388 . S
C223 H202 0.939 . S
C223 C218 1.391 . S
C223 C222 1.388 . S
P224 O235 1.490 . S
P224 C238 1.812 . S
P224 C244 1.803 . S
P224 C250 1.819 . S
H225 C239 0.941 . S
H226 C240 0.939 . S
H227 C242 0.940 . S
H228 C243 0.940 . S
H229 C245 0.939 . S
H230 C246 0.942 . S
H231 C248 0.940 . S
H232 C249 0.939 . S
H233 C251 0.941 . S
H234 C255 0.939 . S
O235 P224 1.490 . S
H236 C252 0.939 . S
H237 C254 0.940 . S
C238 P224 1.812 . S
C238 C239 1.389 . S
C238 C243 1.391 . S
C239 H225 0.941 . S
C239 C238 1.389 . S
C239 C240 1.397 . S
C240 H226 0.939 . S
C240 C239 1.397 . S
C240 C241 1.378 . S
C241 C240 1.378 . S
C241 C242 1.378 . S
C242 H227 0.940 . S
C242 C241 1.378 . S
C242 C243 1.396 . S
C243 H228 0.940 . S
C243 C238 1.391 . S
C243 C242 1.396 . S
C244 P224 1.803 . S
C244 C245 1.378 . S
C244 C249 1.400 . S
C245 H229 0.939 . S
C245 C244 1.378 . S
C245 C246 1.361 . S
C246 H230 0.942 . S
C246 C245 1.361 . S
C246 C247 1.369 . S
C247 C246 1.369 . S
C247 C248 1.404 . S
C248 H231 0.940 . S
C248 C247 1.404 . S
C248 C249 1.389 . S
C249 H232 0.939 . S
C249 C244 1.400 . S
C249 C248 1.389 . S
C250 P224 1.819 . S
C250 C251 1.391 . S
C250 C255 1.391 . S
C251 H233 0.941 . S
C251 C250 1.391 . S
C251 C252 1.396 . S
C252 H236 0.939 . S
C252 C251 1.396 . S
C252 C253 1.397 . S
C253 C252 1.397 . S
C253 C254 1.385 . S
C254 H237 0.940 . S
C254 C253 1.385 . S
C254 C255 1.388 . S
C255 H234 0.939 . S
C255 C250 1.391 . S
C255 C254 1.388 . S
Ho256 C259 2.811 . S
Ho256 O276 2.322 . S
Ho256 O278 2.378 . S
Ho256 O279 2.524 . S
Ho256 O280 2.381 1_545 S
Ho256 O281 2.669 1_545 S
Ho256 O283 2.346 1_445 S
Ho256 O287 2.305 1_455 S
Ho257 C268 2.830 . S
Ho257 O277 2.324 1_665 S
Ho257 O281 2.317 1_655 S
Ho257 O282 2.338 . S
Ho257 O284 2.387 . S
Ho257 O285 2.549 . S
Ho257 O286 2.365 1_565 S
Ho257 O287 2.657 1_565 S
C258 O276 1.259 . S
C258 O277 1.268 . S
C259 Ho256 2.811 . S
C259 C260 1.488 . S
C259 O278 1.215 . S
C259 O279 1.289 . S
C260 C259 1.488 . S
C260 C261 1.348 . S
C260 C265 1.413 . S
C261 C260 1.348 . S
C261 C262 1.442 . S
C261 H288 0.930 . S
C262 C261 1.442 . S
C262 C263 1.381 . S
C262 H289 0.931 . S
C263 C262 1.381 . S
C263 C264 1.321 . S
C264 C263 1.321 . S
C264 C265 1.403 . S
C264 H290 0.934 . S
C265 C260 1.413 . S
C265 C264 1.403 . S
C265 H291 0.930 . S
C266 O280 1.275 . S
C266 O281 1.256 . S
C267 O282 1.259 . S
C267 O283 1.268 . S
C268 Ho257 2.830 . S
C268 C269 1.488 . S
C268 O284 1.215 . S
C268 O285 1.289 . S
C269 C268 1.488 . S
C269 C270 1.348 . S
C269 C274 1.413 . S
C270 C269 1.348 . S
C270 C271 1.442 . S
C270 H292 0.930 . S
C271 C270 1.442 . S
C271 C272 1.381 . S
C271 H293 0.931 . S
C272 C271 1.381 . S
C272 C273 1.321 . S
C273 C272 1.321 . S
C273 C274 1.403 . S
C273 H294 0.934 . S
C274 C269 1.413 . S
C274 C273 1.403 . S
C274 H295 0.930 . S
C275 O286 1.275 . S
C275 O287 1.256 . S
O276 Ho256 2.322 . S
O276 C258 1.259 . S
O277 Ho257 2.324 1_445 S
O277 C258 1.268 . S
O278 Ho256 2.378 . S
O278 C259 1.215 . S
O279 Ho256 2.524 . S
O279 C259 1.289 . S
O280 Ho256 2.381 1_565 S
O280 C266 1.275 . S
O281 Ho256 2.669 1_565 S
O281 Ho257 2.317 1_455 S
O281 C266 1.256 . S
O282 Ho257 2.338 . S
O282 C267 1.259 . S
O283 Ho256 2.346 1_665 S
O283 C267 1.268 . S
O284 Ho257 2.387 . S
O284 C268 1.215 . S
O285 Ho257 2.549 . S
O285 C268 1.289 . S
O286 Ho257 2.365 1_545 S
O286 C275 1.275 . S
O287 Ho256 2.305 1_655 S
O287 Ho257 2.657 1_545 S
O287 C275 1.256 . S
H288 C261 0.930 . S
H289 C262 0.931 . S
H290 C264 0.934 . S
H291 C265 0.930 . S
H292 C270 0.930 . S
H293 C271 0.931 . S
H294 C273 0.934 . S
H295 C274 0.930 . S
Ho296 C299 2.811 . S
Ho296 O316 2.322 . S
Ho296 O318 2.378 . S
Ho296 O319 2.524 . S
Ho296 O320 2.381 1_545 S
Ho296 O321 2.669 1_545 S
Ho296 O323 2.346 1_544 S
Ho296 O327 2.305 1_554 S
Ho297 C308 2.811 1_545 S
Ho297 O317 2.346 1_556 S
Ho297 O321 2.305 1_546 S
Ho297 O322 2.322 1_545 S
Ho297 O324 2.378 . S
Ho297 O325 2.524 1_545 S
Ho297 O326 2.381 . S
Ho297 O327 2.669 . S
C298 O316 1.259 . S
C298 O317 1.268 . S
C299 Ho296 2.811 . S
C299 C300 1.488 . S
C299 O318 1.215 . S
C299 O319 1.289 . S
C300 C299 1.488 . S
C300 C301 1.348 . S
C300 C305 1.413 . S
C301 C300 1.348 . S
C301 C302 1.442 . S
C301 H328 0.930 . S
C302 C301 1.442 . S
C302 C303 1.381 . S
C302 H329 0.931 . S
C303 C302 1.381 . S
C303 C304 1.321 . S
C304 C303 1.321 . S
C304 C305 1.403 . S
C304 H330 0.934 . S
C305 C300 1.413 . S
C305 C304 1.403 . S
C305 H331 0.930 . S
C306 O320 1.275 . S
C306 O321 1.256 . S
C307 O322 1.259 . S
C307 O323 1.268 . S
C308 Ho297 2.811 1_565 S
C308 C309 1.488 . S
C308 O324 1.215 1_565 S
C308 O325 1.289 . S
C309 C308 1.488 . S
C309 C310 1.348 . S
C309 C314 1.413 . S
C310 C309 1.348 . S
C310 C311 1.442 . S
C310 H332 0.930 . S
C311 C310 1.442 . S
C311 C312 1.381 . S
C311 H333 0.931 . S
C312 C311 1.381 . S
C312 C313 1.321 . S
C313 C312 1.321 . S
C313 C314 1.403 . S
C313 H334 0.934 . S
C314 C309 1.413 . S
C314 C313 1.403 . S
C314 H335 0.930 . S
C315 O326 1.275 . S
C315 O327 1.256 . S
O316 Ho296 2.322 . S
O316 C298 1.259 . S
O317 Ho297 2.346 1_554 S
O317 C298 1.268 . S
O318 Ho296 2.378 . S
O318 C299 1.215 . S
O319 Ho296 2.524 . S
O319 C299 1.289 . S
O320 Ho296 2.381 1_565 S
O320 C306 1.275 . S
O321 Ho296 2.669 1_565 S
O321 Ho297 2.305 1_564 S
O321 C306 1.256 . S
O322 Ho297 2.322 1_565 S
O322 C307 1.259 . S
O323 Ho296 2.346 1_566 S
O323 C307 1.268 . S
O324 Ho297 2.378 . S
O324 C308 1.215 1_545 S
O325 Ho297 2.524 1_565 S
O325 C308 1.289 . S
O326 Ho297 2.381 . S
O326 C315 1.275 . S
O327 Ho296 2.305 1_556 S
O327 Ho297 2.669 . S
O327 C315 1.256 . S
H328 C301 0.930 . S
H329 C302 0.931 . S
H330 C304 0.934 . S
H331 C305 0.930 . S
H332 C310 0.930 . S
H333 C311 0.931 . S
H334 C313 0.934 . S
H335 C314 0.930 . S
Ho336 C339 2.811 . S
Ho336 O356 2.322 . S
Ho336 O358 2.378 . S
Ho336 O359 2.524 . S
Ho336 O360 2.381 . S
Ho336 O361 2.669 . S
Ho336 O363 2.346 . S
Ho336 O367 2.305 . S
Ho337 C348 2.811 . S
Ho337 O357 2.346 . S
Ho337 O361 2.305 . S
Ho337 O362 2.322 . S
Ho337 O364 2.378 . S
Ho337 O365 2.524 . S
Ho337 O366 2.381 . S
Ho337 O367 2.669 . S
C338 O356 1.259 . S
C338 O357 1.268 . S
C339 Ho336 2.811 . S
C339 C340 1.488 . S
C339 O358 1.215 . S
C339 O359 1.289 . S
C340 C339 1.488 . S
C340 C341 1.348 . S
C340 C345 1.413 . S
C341 C340 1.348 . S
C341 C342 1.442 . S
C341 H368 0.930 . S
C342 C341 1.442 . S
C342 C343 1.381 . S
C342 H369 0.931 . S
C343 C342 1.381 . S
C343 C344 1.321 . S
C344 C343 1.321 . S
C344 C345 1.403 . S
C344 H370 0.934 . S
C345 C340 1.413 . S
C345 C344 1.403 . S
C345 H371 0.930 . S
C346 O360 1.275 . S
C346 O361 1.256 . S
C347 O362 1.259 . S
C347 O363 1.268 . S
C348 Ho337 2.811 . S
C348 C349 1.488 . S
C348 O364 1.215 . S
C348 O365 1.289 . S
C349 C348 1.488 . S
C349 C350 1.348 . S
C349 C354 1.413 . S
C350 C349 1.348 . S
C350 C351 1.442 . S
C350 H372 0.930 . S
C351 C350 1.442 . S
C351 C352 1.381 . S
C351 H373 0.931 . S
C352 C351 1.381 . S
C352 C353 1.321 . S
C353 C352 1.321 . S
C353 C354 1.403 . S
C353 H374 0.934 . S
C354 C349 1.413 . S
C354 C353 1.403 . S
C354 H375 0.930 . S
C355 O366 1.275 . S
C355 O367 1.256 . S
O356 Ho336 2.322 . S
O356 C338 1.259 . S
O357 Ho337 2.346 . S
O357 C338 1.268 . S
O358 Ho336 2.378 . S
O358 C339 1.215 . S
O359 Ho336 2.524 . S
O359 C339 1.289 . S
O360 Ho336 2.381 . S
O360 C346 1.275 . S
O361 Ho336 2.669 . S
O361 Ho337 2.305 . S
O361 C346 1.256 . S
O362 Ho337 2.322 . S
O362 C347 1.259 . S
O363 Ho336 2.346 . S
O363 C347 1.268 . S
O364 Ho337 2.378 . S
O364 C348 1.215 . S
O365 Ho337 2.524 . S
O365 C348 1.289 . S
O366 Ho337 2.381 . S
O366 C355 1.275 . S
O367 Ho336 2.305 . S
O367 Ho337 2.669 . S
O367 C355 1.256 . S
H368 C341 0.930 . S
H369 C342 0.931 . S
H370 C344 0.934 . S
H371 C345 0.930 . S
H372 C350 0.930 . S
H373 C351 0.931 . S
H374 C353 0.934 . S
H375 C354 0.930 . S
Ho376 C379 2.811 . S
Ho376 O396 2.322 . S
Ho376 O398 2.378 . S
Ho376 O399 2.524 . S
Ho376 O400 2.381 1_455 S
Ho376 O401 2.669 1_455 S
Ho376 O403 2.346 1_454 S
Ho376 O407 2.305 1_554 S
Ho377 C388 2.811 . S
Ho377 O397 2.346 1_656 S
Ho377 O401 2.305 1_556 S
Ho377 O402 2.322 . S
Ho377 O404 2.378 . S
Ho377 O405 2.524 . S
Ho377 O406 2.381 1_655 S
Ho377 O407 2.669 1_655 S
C378 O396 1.259 . S
C378 O397 1.268 . S
C379 Ho376 2.811 . S
C379 C380 1.488 . S
C379 O398 1.215 . S
C379 O399 1.289 . S
C380 C379 1.488 . S
C380 C381 1.348 . S
C380 C385 1.413 . S
C381 C380 1.348 . S
C381 C382 1.442 . S
C381 H408 0.930 . S
C382 C381 1.442 . S
C382 C383 1.381 . S
C382 H409 0.931 . S
C383 C382 1.381 . S
C383 C384 1.321 . S
C384 C383 1.321 . S
C384 C385 1.403 . S
C384 H410 0.934 . S
C385 C380 1.413 . S
C385 C384 1.403 . S
C385 H411 0.930 . S
C386 O400 1.275 . S
C386 O401 1.256 . S
C387 O402 1.259 . S
C387 O403 1.268 . S
C388 Ho377 2.811 . S
C388 C389 1.488 . S
C388 O404 1.215 . S
C388 O405 1.289 . S
C389 C388 1.488 . S
C389 C390 1.348 . S
C389 C394 1.413 . S
C390 C389 1.348 . S
C390 C391 1.442 . S
C390 H412 0.930 . S
C391 C390 1.442 . S
C391 C392 1.381 . S
C391 H413 0.931 . S
C392 C391 1.381 . S
C392 C393 1.321 . S
C393 C392 1.321 . S
C393 C394 1.403 . S
C393 H414 0.934 . S
C394 C389 1.413 . S
C394 C393 1.403 . S
C394 H415 0.930 . S
C395 O406 1.275 . S
C395 O407 1.256 . S
O396 Ho376 2.322 . S
O396 C378 1.259 . S
O397 Ho377 2.346 1_454 S
O397 C378 1.268 . S
O398 Ho376 2.378 . S
O398 C379 1.215 . S
O399 Ho376 2.524 . S
O399 C379 1.289 . S
O400 Ho376 2.381 1_655 S
O400 C386 1.275 . S
O401 Ho376 2.669 1_655 S
O401 Ho377 2.305 1_554 S
O401 C386 1.256 . S
O402 Ho377 2.322 . S
O402 C387 1.259 . S
O403 Ho376 2.346 1_656 S
O403 C387 1.268 . S
O404 Ho377 2.378 . S
O404 C388 1.215 . S
O405 Ho377 2.524 . S
O405 C388 1.289 . S
O406 Ho377 2.381 1_455 S
O406 C395 1.275 . S
O407 Ho376 2.305 1_556 S
O407 Ho377 2.669 1_455 S
O407 C395 1.256 . S
H408 C381 0.930 . S
H409 C382 0.931 . S
H410 C384 0.934 . S
H411 C385 0.930 . S
H412 C390 0.930 . S
H413 C391 0.931 . S
H414 C393 0.934 . S
H415 C394 0.930 . S
C416 C417 1.363 . S
C416 C422 1.379 . S
C416 N424 1.356 . S
C417 C416 1.363 . S
C417 C423 1.363 . S
C418 C419 1.363 . S
C418 C423 1.379 . S
C418 N425 1.356 . S
C419 C418 1.363 . S
C419 C422 1.363 . S
N420 C422 1.356 . S
N420 H432 0.984 . S
N420 H433 0.985 . S
N421 C423 1.356 . S
N421 H426 0.984 . S
N421 H427 0.985 . S
C422 C416 1.379 . S
C422 C419 1.363 . S
C422 N420 1.356 . S
C423 C417 1.363 . S
C423 C418 1.379 . S
C423 N421 1.356 . S
N424 C416 1.356 . S
N424 H430 0.984 . S
N424 H431 0.984 . S
N425 C418 1.356 . S
N425 H428 0.984 . S
N425 H429 0.985 . S
H426 N421 0.984 . S
H427 N421 0.985 . S
H428 N425 0.984 . S
H429 N425 0.985 . S
H430 N424 0.984 . S
H431 N424 0.984 . S
H432 N420 0.984 . S
H433 N420 0.985 . S
C434 C435 1.363 . S
C434 C440 1.379 . S
C434 N442 1.356 . S
C435 C434 1.363 . S
C435 C441 1.363 . S
C436 C437 1.363 . S
C436 C441 1.379 . S
C436 N443 1.356 . S
C437 C436 1.363 . S
C437 C440 1.363 . S
N438 C440 1.356 . S
N438 H450 0.984 . S
N438 H451 0.985 . S
N439 C441 1.356 . S
N439 H444 0.984 . S
N439 H445 0.985 . S
C440 C434 1.379 . S
C440 C437 1.363 . S
C440 N438 1.356 . S
C441 C435 1.363 . S
C441 C436 1.379 . S
C441 N439 1.356 . S
N442 C434 1.356 . S
N442 H448 0.984 . S
N442 H449 0.984 . S
N443 C436 1.356 . S
N443 H446 0.984 . S
N443 H447 0.985 . S
H444 N439 0.984 . S
H445 N439 0.985 . S
H446 N443 0.984 . S
H447 N443 0.985 . S
H448 N442 0.984 . S
H449 N442 0.984 . S
H450 N438 0.984 . S
H451 N438 0.985 . S
C452 C453 1.363 . S
C452 C458 1.379 . S
C452 N460 1.356 . S
C453 C452 1.363 . S
C453 C459 1.363 . S
C454 C455 1.363 . S
C454 C459 1.379 . S
C454 N461 1.356 . S
C455 C454 1.363 . S
C455 C458 1.363 . S
N456 C458 1.356 . S
N456 H468 0.984 . S
N456 H469 0.985 . S
N457 C459 1.356 . S
N457 H462 0.984 . S
N457 H463 0.985 . S
C458 C452 1.379 . S
C458 C455 1.363 . S
C458 N456 1.356 . S
C459 C453 1.363 . S
C459 C454 1.379 . S
C459 N457 1.356 . S
N460 C452 1.356 . S
N460 H466 0.984 . S
N460 H467 0.984 . S
N461 C454 1.356 . S
N461 H464 0.984 . S
N461 H465 0.985 . S
H462 N457 0.984 . S
H463 N457 0.985 . S
H464 N461 0.984 . S
H465 N461 0.985 . S
H466 N460 0.984 . S
H467 N460 0.984 . S
H468 N456 0.984 . S
H469 N456 0.985 . S
C470 C471 1.363 . S
C470 C476 1.379 . S
C470 N478 1.356 . S
C471 C470 1.363 . S
C471 C477 1.363 . S
C472 C473 1.363 . S
C472 C477 1.379 . S
C472 N479 1.356 . S
C473 C472 1.363 . S
C473 C476 1.363 . S
N474 C476 1.356 . S
N474 H486 0.984 . S
N474 H487 0.985 . S
N475 C477 1.356 . S
N475 H480 0.984 . S
N475 H481 0.985 . S
C476 C470 1.379 . S
C476 C473 1.363 . S
C476 N474 1.356 . S
C477 C471 1.363 . S
C477 C472 1.379 . S
C477 N475 1.356 . S
N478 C470 1.356 . S
N478 H484 0.984 . S
N478 H485 0.984 . S
N479 C472 1.356 . S
N479 H482 0.984 . S
N479 H483 0.985 1_655 S
H480 N475 0.984 . S
H481 N475 0.985 . S
H482 N479 0.984 . S
H483 N479 0.985 1_455 S
H484 N478 0.984 . S
H485 N478 0.984 . S
H486 N474 0.984 . S
H487 N474 0.985 . S
C488 C489 1.363 . S
C488 C494 1.379 . S
C488 N496 1.356 . S
C489 C488 1.363 . S
C489 C495 1.363 . S
C490 C491 1.363 . S
C490 C495 1.379 . S
C490 N497 1.356 . S
C491 C490 1.363 . S
C491 C494 1.363 . S
N492 C494 1.356 . S
N492 H504 0.984 . S
N492 H505 0.985 . S
N493 C495 1.356 . S
N493 H498 0.984 . S
N493 H499 0.985 . S
C494 C488 1.379 . S
C494 C491 1.363 . S
C494 N492 1.356 . S
C495 C489 1.363 . S
C495 C490 1.379 . S
C495 N493 1.356 . S
N496 C488 1.356 . S
N496 H502 0.984 . S
N496 H503 0.984 . S
N497 C490 1.356 . S
N497 H500 0.984 . S
N497 H501 0.985 . S
H498 N493 0.984 . S
H499 N493 0.985 . S
H500 N497 0.984 . S
H501 N497 0.985 . S
H502 N496 0.984 . S
H503 N496 0.984 . S
H504 N492 0.984 . S
H505 N492 0.985 . S
C506 C507 1.363 . S
C506 C512 1.379 . S
C506 N514 1.356 . S
C507 C506 1.363 . S
C507 C513 1.363 . S
C508 C509 1.363 . S
C508 C513 1.379 . S
C508 N515 1.356 . S
C509 C508 1.363 . S
C509 C512 1.363 . S
N510 C512 1.356 . S
N510 H522 0.984 . S
N510 H523 0.992 . S
N511 C513 1.356 . S
N511 H516 0.984 . S
N511 H517 0.985 . S
C512 C506 1.379 . S
C512 C509 1.363 . S
C512 N510 1.356 . S
C513 C507 1.363 . S
C513 C508 1.379 . S
C513 N511 1.356 . S
N514 C506 1.356 . S
N514 H520 0.984 . S
N514 H521 0.984 . S
N515 C508 1.356 . S
N515 H518 0.984 . S
N515 H519 0.985 . S
H516 N511 0.984 . S
H517 N511 0.985 . S
H518 N515 0.984 . S
H519 N515 0.985 . S
H520 N514 0.984 . S
H521 N514 0.984 . S
H522 N510 0.984 . S
H523 N510 0.992 . S
C524 C525 1.363 . S
C524 C530 1.379 . S
C524 N532 1.356 . S
C525 C524 1.363 . S
C525 C531 1.363 . S
C526 C527 1.363 . S
C526 C531 1.379 . S
C526 N533 1.356 . S
C527 C526 1.363 . S
C527 C530 1.363 . S
N528 C530 1.356 1_554 S
N528 H540 0.984 . S
N528 H541 0.985 . S
N529 C531 1.356 . S
N529 H534 0.984 . S
N529 H535 0.985 . S
C530 C524 1.379 . S
C530 C527 1.363 . S
C530 N528 1.356 1_556 S
C531 C525 1.363 . S
C531 C526 1.379 . S
C531 N529 1.356 . S
N532 C524 1.356 . S
N532 H538 0.984 . S
N532 H539 0.984 . S
N533 C526 1.356 . S
N533 H536 0.984 . S
N533 H537 0.985 . S
H534 N529 0.984 . S
H535 N529 0.985 . S
H536 N533 0.984 . S
H537 N533 0.985 . S
H538 N532 0.984 . S
H539 N532 0.984 . S
H540 N528 0.984 . S
H541 N528 0.985 . S
C542 C543 1.363 . S
C542 C548 1.379 . S
C542 N550 1.356 . S
C543 C542 1.363 . S
C543 C549 1.363 . S
C544 C545 1.363 . S
C544 C549 1.379 . S
C544 N551 1.356 . S
C545 C544 1.363 . S
C545 C548 1.363 . S
N546 C548 1.356 . S
N546 H558 0.984 . S
N546 H559 0.985 . S
N547 C549 1.356 . S
N547 H552 0.984 . S
N547 H553 0.985 . S
C548 C542 1.379 . S
C548 C545 1.363 . S
C548 N546 1.356 . S
C549 C543 1.363 . S
C549 C544 1.379 . S
C549 N547 1.356 . S
N550 C542 1.356 . S
N550 H556 0.984 . S
N550 H557 0.984 . S
N551 C544 1.356 . S
N551 H554 0.984 . S
N551 H555 0.985 . S
H552 N547 0.984 . S
H553 N547 0.985 . S
H554 N551 0.984 . S
H555 N551 0.985 . S
H556 N550 0.984 . S
H557 N550 0.984 . S
H558 N546 0.984 . S
H559 N546 0.985 . S
C560 C561 1.363 . S
C560 C566 1.379 . S
C560 N568 1.356 . S
C561 C560 1.363 . S
C561 C567 1.363 . S
C562 C563 1.363 . S
C562 C567 1.379 . S
C562 N569 1.356 . S
C563 C562 1.363 . S
C563 C566 1.363 . S
N564 C566 1.356 . S
N564 H576 0.984 . S
N564 H577 0.985 . S
N565 C567 1.356 . S
N565 H570 0.984 . S
N565 H571 0.985 . S
C566 C560 1.379 . S
C566 C563 1.363 . S
C566 N564 1.356 . S
C567 C561 1.363 . S
C567 C562 1.379 . S
C567 N565 1.356 . S
N568 C560 1.356 . S
N568 H574 0.984 . S
N568 H575 0.984 . S
N569 C562 1.356 . S
N569 H572 0.984 . S
N569 H573 0.985 . S
H570 N565 0.984 . S
H571 N565 0.985 . S
H572 N569 0.984 . S
H573 N569 0.985 . S
H574 N568 0.984 . S
H575 N568 0.984 . S
H576 N564 0.984 . S
H577 N564 0.985 . S
C578 C579 1.363 . S
C578 C584 1.379 . S
C578 N586 1.356 . S
C579 C578 1.363 . S
C579 C585 1.363 . S
C580 C581 1.363 . S
C580 C585 1.379 . S
C580 N587 1.356 . S
C581 C580 1.363 . S
C581 C584 1.363 . S
N582 C584 1.356 . S
N582 H594 0.984 1_556 S
N582 H595 0.985 . S
N583 C585 1.356 . S
N583 H588 0.984 . S
N583 H589 0.985 . S
C584 C578 1.379 . S
C584 C581 1.363 . S
C584 N582 1.356 . S
C585 C579 1.363 . S
C585 C580 1.379 . S
C585 N583 1.356 . S
N586 C578 1.356 . S
N586 H592 0.984 . S
N586 H593 0.984 . S
N587 C580 1.356 . S
N587 H590 0.984 . S
N587 H591 0.985 . S
H588 N583 0.984 . S
H589 N583 0.985 . S
H590 N587 0.984 . S
H591 N587 0.985 . S
H592 N586 0.984 . S
H593 N586 0.984 . S
H594 N582 0.984 1_554 S
H595 N582 0.985 . S
C596 C597 1.363 . S
C596 C602 1.379 . S
C596 N604 1.356 . S
C597 C596 1.363 . S
C597 C603 1.363 . S
C598 C599 1.363 . S
C598 C603 1.379 . S
C598 N605 1.356 . S
C599 C598 1.363 . S
C599 C602 1.363 . S
N600 C602 1.356 . S
N600 H612 0.984 . S
N600 H613 0.985 . S
N601 C603 1.356 . S
N601 H606 0.984 . S
N601 H607 0.985 . S
C602 C596 1.379 . S
C602 C599 1.363 . S
C602 N600 1.356 . S
C603 C597 1.363 . S
C603 C598 1.379 . S
C603 N601 1.356 . S
N604 C596 1.356 . S
N604 H610 0.984 . S
N604 H611 0.984 . S
N605 C598 1.356 . S
N605 H608 0.984 . S
N605 H609 0.985 . S
H606 N601 0.984 . S
H607 N601 0.985 . S
H608 N605 0.984 . S
H609 N605 0.985 . S
H610 N604 0.984 . S
H611 N604 0.984 . S
H612 N600 0.984 . S
H613 N600 0.985 . S
C614 C615 1.363 . S
C614 C620 1.379 . S
C614 N622 1.356 . S
C615 C614 1.363 . S
C615 C621 1.363 . S
C616 C617 1.363 . S
C616 C621 1.379 . S
C616 N623 1.356 . S
C617 C616 1.363 . S
C617 C620 1.363 . S
N618 C620 1.356 . S
N618 H630 0.984 . S
N618 H631 0.985 . S
N619 C621 1.356 . S
N619 H624 0.984 . S
N619 H625 0.985 . S
C620 C614 1.379 . S
C620 C617 1.363 . S
C620 N618 1.356 . S
C621 C615 1.363 . S
C621 C616 1.379 . S
C621 N619 1.356 . S
N622 C614 1.356 . S
N622 H628 0.984 . S
N622 H629 0.984 . S
N623 C616 1.356 . S
N623 H626 0.984 . S
N623 H627 0.985 . S
H624 N619 0.984 . S
H625 N619 0.985 . S
H626 N623 0.984 . S
H627 N623 0.985 . S
H628 N622 0.984 . S
H629 N622 0.984 . S
H630 N618 0.984 . S
H631 N618 0.985 . S
C632 C633 1.363 . S
C632 C638 1.379 . S
C632 N640 1.356 . S
C633 C632 1.363 . S
C633 C639 1.363 . S
C634 C635 1.363 . S
C634 C639 1.379 . S
C634 N641 1.356 . S
C635 C634 1.363 . S
C635 C638 1.363 . S
N636 C638 1.356 . S
N636 H648 0.984 . S
N636 H649 0.985 . S
N637 C639 1.356 . S
N637 H642 0.984 . S
N637 H643 0.985 . S
C638 C632 1.379 . S
C638 C635 1.363 . S
C638 N636 1.356 . S
C639 C633 1.363 . S
C639 C634 1.379 . S
C639 N637 1.356 . S
N640 C632 1.356 . S
N640 H646 0.984 . S
N640 H647 0.984 . S
N641 C634 1.356 . S
N641 H644 0.984 . S
N641 H645 0.985 . S
H642 N637 0.984 . S
H643 N637 0.985 . S
H644 N641 0.984 . S
H645 N641 0.985 . S
H646 N640 0.984 . S
H647 N640 0.984 . S
H648 N636 0.984 . S
H649 N636 0.985 . S
C650 C651 1.363 . S
C650 C656 1.379 . S
C650 N658 1.356 . S
C651 C650 1.363 . S
C651 C657 1.363 . S
C652 C653 1.363 . S
C652 C657 1.379 . S
C652 N659 1.356 . S
C653 C652 1.363 . S
C653 C656 1.363 . S
N654 C656 1.356 . S
N654 H666 0.984 . S
N654 H667 0.985 . S
N655 C657 1.356 . S
N655 H660 0.984 . S
N655 H661 0.985 . S
C656 C650 1.379 . S
C656 C653 1.363 . S
C656 N654 1.356 . S
C657 C651 1.363 . S
C657 C652 1.379 . S
C657 N655 1.356 . S
N658 C650 1.356 . S
N658 H664 0.984 . S
N658 H665 0.984 . S
N659 C652 1.356 . S
N659 H662 0.984 . S
N659 H663 0.985 . S
H660 N655 0.984 . S
H661 N655 0.985 . S
H662 N659 0.984 . S
H663 N659 0.985 . S
H664 N658 0.984 . S
H665 N658 0.984 . S
H666 N654 0.984 . S
H667 N654 0.985 . S
C668 C669 1.363 . S
C668 C674 1.379 . S
C668 N676 1.356 . S
C669 C668 1.363 . S
C669 C675 1.363 . S
C670 C671 1.363 . S
C670 C675 1.379 . S
C670 N677 1.356 . S
C671 C670 1.363 . S
C671 C674 1.363 . S
N672 C674 1.356 . S
N672 H684 0.984 . S
N672 H685 0.985 . S
N673 C675 1.356 . S
N673 H678 0.984 . S
N673 H679 0.985 . S
C674 C668 1.379 . S
C674 C671 1.363 . S
C674 N672 1.356 . S
C675 C669 1.363 . S
C675 C670 1.379 . S
C675 N673 1.356 . S
N676 C668 1.356 . S
N676 H682 0.984 . S
N676 H683 0.984 . S
N677 C670 1.356 . S
N677 H680 0.984 . S
N677 H681 0.985 . S
H678 N673 0.984 . S
H679 N673 0.985 . S
H680 N677 0.984 . S
H681 N677 0.985 . S
H682 N676 0.984 . S
H683 N676 0.984 . S
H684 N672 0.984 . S
H685 N672 0.985 . S
C686 C687 1.363 . S
C686 C692 1.379 . S
C686 N694 1.356 . S
C687 C686 1.363 . S
C687 C693 1.363 . S
C688 C689 1.363 . S
C688 C693 1.379 . S
C688 N695 1.356 . S
C689 C688 1.363 . S
C689 C692 1.363 . S
N690 C692 1.356 . S
N690 H702 0.984 . S
N690 H703 0.985 . S
N691 C693 1.356 . S
N691 H696 0.984 . S
N691 H697 0.985 . S
C692 C686 1.379 . S
C692 C689 1.363 . S
C692 N690 1.356 . S
C693 C687 1.363 . S
C693 C688 1.379 . S
C693 N691 1.356 . S
N694 C686 1.356 . S
N694 H700 0.984 . S
N694 H701 0.984 . S
N695 C688 1.356 . S
N695 H698 0.984 . S
N695 H699 0.985 . S
H696 N691 0.984 . S
H697 N691 0.985 . S
H698 N695 0.984 . S
H699 N695 0.985 . S
H700 N694 0.984 . S
H701 N694 0.984 . S
H702 N690 0.984 . S
H703 N690 0.985 . S
C704 C705 1.363 . S
C704 C710 1.379 . S
C704 N712 1.356 . S
C705 C704 1.363 . S
C705 C711 1.363 . S
C706 C707 1.363 . S
C706 C711 1.379 . S
C706 N713 1.356 . S
C707 C706 1.363 . S
C707 C710 1.363 . S
N708 C710 1.356 . S
N708 H720 0.984 . S
N708 H721 0.985 . S
N709 C711 1.356 . S
N709 H714 0.984 . S
N709 H715 0.985 . S
C710 C704 1.379 . S
C710 C707 1.363 . S
C710 N708 1.356 . S
C711 C705 1.363 . S
C711 C706 1.379 . S
C711 N709 1.356 . S
N712 C704 1.356 . S
N712 H718 0.984 . S
N712 H719 0.984 . S
N713 C706 1.356 . S
N713 H716 0.984 . S
N713 H717 0.985 . S
H714 N709 0.984 . S
H715 N709 0.985 . S
H716 N713 0.984 . S
H717 N713 0.985 . S
H718 N712 0.984 . S
H719 N712 0.984 . S
H720 N708 0.984 . S
H721 N708 0.985 . S
C722 C723 1.363 . S
C722 C728 1.379 . S
C722 N730 1.356 . S
C723 C722 1.363 . S
C723 C729 1.363 . S
C724 C725 1.363 . S
C724 C729 1.379 . S
C724 N731 1.356 . S
C725 C724 1.363 . S
C725 C728 1.363 . S
N726 C728 1.356 . S
N726 H738 0.984 . S
N726 H739 0.985 . S
N727 C729 1.356 . S
N727 H732 0.984 . S
N727 H733 0.985 . S
C728 C722 1.379 . S
C728 C725 1.363 . S
C728 N726 1.356 . S
C729 C723 1.363 . S
C729 C724 1.379 . S
C729 N727 1.356 . S
N730 C722 1.356 . S
N730 H736 0.984 . S
N730 H737 0.984 . S
N731 C724 1.356 . S
N731 H734 0.984 . S
N731 H735 0.985 . S
H732 N727 0.984 . S
H733 N727 0.985 . S
H734 N731 0.984 . S
H735 N731 0.985 . S
H736 N730 0.984 . S
H737 N730 0.984 . S
H738 N726 0.984 . S
H739 N726 0.985 . S
C740 C741 1.363 . S
C740 C746 1.379 . S
C740 N748 1.356 . S
C741 C740 1.363 . S
C741 C747 1.363 . S
C742 C743 1.363 . S
C742 C747 1.379 . S
C742 N749 1.356 . S
C743 C742 1.363 . S
C743 C746 1.363 . S
N744 C746 1.369 . S
N744 H756 0.975 1_554 S
N744 H757 0.980 1_554 S
N745 C747 1.356 . S
N745 H750 0.984 . S
N745 H751 0.985 . S
C746 C740 1.379 . S
C746 C743 1.363 . S
C746 N744 1.369 . S
C747 C741 1.363 . S
C747 C742 1.379 . S
C747 N745 1.356 . S
N748 C740 1.356 . S
N748 H754 0.984 . S
N748 H755 0.984 . S
N749 C742 1.356 . S
N749 H752 0.984 . S
N749 H753 0.985 . S
H750 N745 0.984 . S
H751 N745 0.985 . S
H752 N749 0.984 . S
H753 N749 0.985 . S
H754 N748 0.984 . S
H755 N748 0.984 . S
H756 N744 0.975 1_556 S
H757 N744 0.980 1_556 S
C758 C759 1.363 . S
C758 C764 1.379 . S
C758 N766 1.356 . S
C759 C758 1.363 . S
C759 C765 1.363 . S
C760 C761 1.363 . S
C760 C765 1.379 . S
C760 N767 1.356 . S
C761 C760 1.363 . S
C761 C764 1.363 . S
N762 C764 1.356 . S
N762 H774 0.984 . S
N762 H775 0.985 . S
N763 C765 1.356 . S
N763 H768 0.984 . S
N763 H769 0.985 . S
C764 C758 1.379 . S
C764 C761 1.363 . S
C764 N762 1.356 . S
C765 C759 1.363 . S
C765 C760 1.379 . S
C765 N763 1.356 . S
N766 C758 1.356 . S
N766 H772 0.984 . S
N766 H773 0.984 . S
N767 C760 1.356 . S
N767 H770 0.984 . S
N767 H771 0.985 . S
H768 N763 0.984 . S
H769 N763 0.985 . S
H770 N767 0.984 . S
H771 N767 0.985 . S
H772 N766 0.984 . S
H773 N766 0.984 . S
H774 N762 0.984 . S
H775 N762 0.985 . S
C776 C777 1.363 . S
C776 C782 1.379 . S
C776 N784 1.356 . S
C777 C776 1.363 . S
C777 C783 1.363 . S
C778 C779 1.363 . S
C778 C783 1.379 . S
C778 N785 1.356 . S
C779 C778 1.363 . S
C779 C782 1.363 . S
N780 C782 1.356 . S
N780 H792 0.984 . S
N780 H793 0.985 . S
N781 C783 1.356 . S
N781 H786 0.984 . S
N781 H787 0.985 . S
C782 C776 1.379 . S
C782 C779 1.363 . S
C782 N780 1.356 . S
C783 C777 1.363 . S
C783 C778 1.379 . S
C783 N781 1.356 . S
N784 C776 1.356 . S
N784 H790 0.984 . S
N784 H791 0.984 . S
N785 C778 1.356 . S
N785 H788 0.984 . S
N785 H789 0.985 . S
H786 N781 0.984 . S
H787 N781 0.985 . S
H788 N785 0.984 . S
H789 N785 0.985 . S
H790 N784 0.984 . S
H791 N784 0.984 . S
H792 N780 0.984 . S
H793 N780 0.985 . S
C794 C795 1.363 . S
C794 C800 1.379 . S
C794 N802 1.356 . S
C795 C794 1.363 . S
C795 C801 1.363 . S
C796 C797 1.363 . S
C796 C801 1.379 . S
C796 N803 1.356 . S
C797 C796 1.363 . S
C797 C800 1.363 . S
N798 C800 1.356 . S
N798 H810 0.984 . S
N798 H811 0.985 . S
N799 C801 1.356 . S
N799 H804 0.984 . S
N799 H805 0.985 . S
C800 C794 1.379 . S
C800 C797 1.363 . S
C800 N798 1.356 . S
C801 C795 1.363 . S
C801 C796 1.379 . S
C801 N799 1.356 . S
N802 C794 1.356 . S
N802 H808 0.984 . S
N802 H809 0.984 . S
N803 C796 1.356 . S
N803 H806 0.984 . S
N803 H807 0.985 . S
H804 N799 0.984 . S
H805 N799 0.985 . S
H806 N803 0.984 . S
H807 N803 0.985 . S
H808 N802 0.984 . S
H809 N802 0.984 . S
H810 N798 0.984 . S
H811 N798 0.985 . S
C812 C813 1.363 . S
C812 C818 1.379 . S
C812 N820 1.356 . S
C813 C812 1.363 . S
C813 C819 1.363 . S
C814 C815 1.363 . S
C814 C819 1.379 . S
C814 N821 1.356 . S
C815 C814 1.363 . S
C815 C818 1.363 . S
N816 C818 1.356 . S
N816 H828 0.984 . S
N816 H829 0.985 . S
N817 C819 1.356 . S
N817 H822 0.984 . S
N817 H823 0.985 . S
C818 C812 1.379 . S
C818 C815 1.363 . S
C818 N816 1.356 . S
C819 C813 1.363 . S
C819 C814 1.379 . S
C819 N817 1.356 . S
N820 C812 1.356 . S
N820 H826 0.984 . S
N820 H827 0.984 . S
N821 C814 1.356 . S
N821 H824 0.984 . S
N821 H825 0.985 . S
H822 N817 0.984 . S
H823 N817 0.985 . S
H824 N821 0.984 . S
H825 N821 0.985 . S
H826 N820 0.984 . S
H827 N820 0.984 . S
H828 N816 0.984 . S
H829 N816 0.985 . S
C830 C831 1.363 . S
C830 C836 1.379 . S
C830 N838 1.356 . S
C831 C830 1.363 . S
C831 C837 1.363 . S
C832 C833 1.363 . S
C832 C837 1.379 . S
C832 N839 1.356 . S
C833 C832 1.363 . S
C833 C836 1.363 . S
N834 C836 1.356 . S
N834 H846 0.984 . S
N834 H847 0.985 . S
N835 C837 1.356 . S
N835 H840 0.984 . S
N835 H841 0.985 . S
C836 C830 1.379 . S
C836 C833 1.363 . S
C836 N834 1.356 . S
C837 C831 1.363 . S
C837 C832 1.379 . S
C837 N835 1.356 . S
N838 C830 1.356 . S
N838 H844 0.984 . S
N838 H845 0.984 . S
N839 C832 1.356 . S
N839 H842 0.984 . S
N839 H843 0.985 . S
H840 N835 0.984 . S
H841 N835 0.985 . S
H842 N839 0.984 . S
H843 N839 0.985 . S
H844 N838 0.984 . S
H845 N838 0.984 . S
H846 N834 0.984 . S
H847 N834 0.985 . S
C417 C29 1.282 . S
C419 C263 1.294 . S
C435 C49 1.029 . S
C437 C312 1.058 . S
C455 C338 2.532 . S
C453 C93 2.542 . S
C471 C119 2.372 . S
C473 C386 2.372 . S
C491 C298 2.401 . S
C489 C17 2.331 . S
C509 C266 0.846 . S
C507 C61 0.853 . S
C527 C387 1.930 . S
C525 C81 1.970 . S
C545 C355 1.752 . S
C543 C125 1.732 . S
C561 C23 1.651 . S
C563 C383 1.671 . S
C581 C315 2.323 . S
C579 C87 2.366 . S
C597 C113 2.336 . S
C599 C267 2.372 . S
C615 C55 1.031 . S
C617 C352 1.143 . S
C635 C272 1.301 . S
C633 C157 1.092 . S
C651 C189 1.081 . S
C653 C303 1.086 . S
C669 C221 2.512 . S
C671 C347 2.493 . S
C687 C253 2.438 . S
C689 C395 2.458 . S
C705 C145 2.104 . S
C707 C307 2.471 . S
C725 C275 0.814 . S
C723 C183 0.822 . S
C743 C378 1.961 . S
C741 C209 1.956 . S
C761 C346 1.722 . S
C759 C247 1.691 . S
C777 C151 1.480 . S
C779 C392 1.693 . S
C797 C306 2.321 . S
C795 C215 2.368 . S
C815 C258 2.349 . S
C813 C241 2.295 . S
C831 C177 1.116 . S
C833 C343 1.113 . S
