# Generated by pormake.
# Topology pth, (4,4)-cn, num edge types: 1
# Building blocks:
#     Node 0, Type 0, BuildingBlock: QUQFOY_clean_sbu_3, # of connection points: 4
#     Node 1, Type 0, BuildingBlock: QUQFOY_clean_sbu_3, # of connection points: 4
#     Node 2, Type 0, BuildingBlock: QUQFOY_clean_sbu_3, # of connection points: 4
#     Node 3, Type 1, BuildingBlock: MUDLON_clean_linker_0, # of connection points: 4
#     Node 4, Type 1, BuildingBlock: MUDLON_clean_linker_0, # of connection points: 4
#     Node 5, Type 1, BuildingBlock: MUDLON_clean_linker_0, # of connection points: 4
#     Edge 6, Type (0, 1), BuildingBlock: XUDNAN_clean_linker_2, # of connection points: 2
#     Edge 7, Type (0, 1), BuildingBlock: XUDNAN_clean_linker_2, # of connection points: 2
#     Edge 8, Type (0, 1), BuildingBlock: XUDNAN_clean_linker_2, # of connection points: 2
#     Edge 9, Type (0, 1), BuildingBlock: XUDNAN_clean_linker_2, # of connection points: 2
#     Edge 10, Type (0, 1), BuildingBlock: XUDNAN_clean_linker_2, # of connection points: 2
#     Edge 11, Type (0, 1), BuildingBlock: XUDNAN_clean_linker_2, # of connection points: 2
#     Edge 12, Type (0, 1), BuildingBlock: XUDNAN_clean_linker_2, # of connection points: 2
#     Edge 13, Type (0, 1), BuildingBlock: XUDNAN_clean_linker_2, # of connection points: 2
#     Edge 14, Type (0, 1), BuildingBlock: XUDNAN_clean_linker_2, # of connection points: 2
#     Edge 15, Type (0, 1), BuildingBlock: XUDNAN_clean_linker_2, # of connection points: 2
#     Edge 16, Type (0, 1), BuildingBlock: XUDNAN_clean_linker_2, # of connection points: 2
#     Edge 17, Type (0, 1), BuildingBlock: XUDNAN_clean_linker_2, # of connection points: 2
# Relax obj value: 0.038
# Max RMSD: 0.098
# Mean RMSD: 0.090
data_MOF--net-pth--node1-QUQFOY_clean_sbu_3--node2-MUDLON_clean_linker_0--edge1-XUDNAN_clean_linker_2
_symmetry_space_group_name_H-M    P1
_symmetry_Int_Tables_number       1
_symmetry_cell_setting            triclinic
loop_
_symmetry_equiv_pos_as_xyz
'x, y, z'
_cell_length_a     34.266155
_cell_length_b     34.078446
_cell_length_c     70.525495
_cell_angle_alpha  90.109351
_cell_angle_beta   90.643882
_cell_angle_gamma 121.0665
loop_
_atom_site_label
_atom_site_type_symbol
_atom_site_fract_x
_atom_site_fract_y
_atom_site_fract_z
_atom_type_partial_charge
C0 C 0.94024 0.07674 0.05527 0.0
O1 O 0.9197 0.06944 0.0394 0.0
Cd2 Cd 0.93134 0.02921 0.01426 0.0
O3 O 0.96383 0.05844 0.05892 0.0
Cd4 Cd 0.98278 0.00352 0.04453 0.0
C5 C 0.04969 0.08783 0.01469 0.0
O6 O 0.91493 0.95559 0.02465 0.0
O7 O 0.97515 0.95283 0.01861 0.0
O8 O 0.95344 0.95961 0.07313 0.0
C9 C 0.9332 0.9374 0.01536 0.0
O10 O 0.01186 0.07819 0.00704 0.0
C11 C 0.9871 0.9548 0.07668 0.0
O12 O 0.05067 0.0671 0.02958 0.0
O13 O 0.02065 0.97435 0.06549 0.0
C14 C 0.09422 0.03538 0.39506 0.0
O15 O 0.12051 0.06192 0.38237 0.0
Cd16 Cd 0.09171 0.07723 0.35402 0.0
O17 O 0.05161 0.02052 0.39438 0.0
Cd18 Cd -0.00422 0.03107 0.37538 0.0
C19 C 0.0063 0.96588 0.34223 0.0
O20 O 0.04638 0.10778 0.36335 0.0
O21 O 0.98063 0.07008 0.3494 0.0
O22 O 0.97719 0.05639 0.40397 0.0
C23 C 0.01871 0.10721 0.35112 0.0
O24 O 0.04489 0.00181 0.33936 0.0
C25 C 0.93467 0.02768 0.40351 0.0
O26 O 0.98029 0.96522 0.35519 0.0
O27 O 0.91968 -0.00164 0.39003 0.0
C28 C 0.94338 0.07045 0.69065 0.0
O29 O 0.94656 0.08931 0.70658 0.0
Cd30 Cd 0.98184 0.07701 0.73336 0.0
O31 O 0.96472 0.04951 0.68773 0.0
Cd32 Cd 0.0226 0.03791 0.70486 0.0
C33 C 0.93654 0.95955 0.73091 0.0
O34 O 0.05973 0.10393 0.72671 0.0
O35 O 0.0679 0.04655 0.73313 0.0
O36 O 0.07886 0.07866 0.68089 0.0
C37 C 0.07894 0.08753 0.73671 0.0
O38 O 0.9379 -0.00556 0.73822 0.0
C39 C 0.08519 0.04638 0.67632 0.0
O40 O 0.96377 0.96389 0.71779 0.0
O41 O 0.06029 0.00804 0.68435 0.0
H42 H 0.95003 0.65279 0.22437 0.0
N43 N 0.03551 0.68021 0.21175 0.0
H44 H 0.93226 0.68722 0.25083 0.0
H45 H 0.093 0.73508 0.2384 0.0
H46 H 0.07561 0.76871 0.26528 0.0
H47 H 0.0958 0.75842 0.19566 0.0
H48 H 0.08073 0.80037 0.17134 0.0
H49 H 0.95702 0.64618 0.19064 0.0
H50 H 0.94172 0.68741 0.16627 0.0
H51 H 0.96032 0.5934 0.21055 0.0
H52 H 0.10698 0.67042 0.21023 0.0
H53 H 0.96047 0.52197 0.20723 0.0
H54 H 0.10786 0.59946 0.20794 0.0
H55 H 0.98118 0.3096 0.21505 0.0
H56 H 0.98498 0.27024 0.24285 0.0
H57 H 0.11203 0.39159 0.25969 0.0
H58 H 0.10999 0.42906 0.2306 0.0
H59 H 0.09557 0.37064 0.18044 0.0
H60 H 0.06738 0.3177 0.15335 0.0
H61 H 0.93303 0.29716 0.16091 0.0
H62 H 0.96211 0.35115 0.18772 0.0
H63 H 0.98246 0.40133 0.22081 0.0
H64 H 0.97712 0.47024 0.22304 0.0
H65 H 0.09319 0.54108 0.18628 0.0
N66 N 0.04857 0.39407 0.20253 0.0
H67 H 0.09945 0.47297 0.18506 0.0
C68 C 0.02303 0.69186 0.22935 0.0
C69 C 0.9775 0.67731 0.23346 0.0
C70 C 0.96737 0.69696 0.24865 0.0
C71 C 0.0026 0.73134 0.25994 0.0
C72 C 0.04776 0.74307 0.2566 0.0
C73 C 0.05779 0.72361 0.24141 0.0
C74 C 0.02767 0.69936 0.195 0.0
C75 C 0.06246 0.74235 0.1889 0.0
C76 C 0.05377 0.76619 0.17501 0.0
C77 C 0.00987 0.74742 0.16704 0.0
C78 C 0.97571 0.70308 0.17238 0.0
C79 C 0.9845 0.67926 0.18624 0.0
C80 C 0.03382 0.63728 0.2103 0.0
C81 C -0.00743 0.59496 0.20973 0.0
C82 C -0.00724 0.55404 0.20805 0.0
C83 C 0.03419 0.55475 0.2071 0.0
C84 C 0.07526 0.59737 0.2081 0.0
C85 C 0.07494 0.63804 0.20958 0.0
C86 C 0.04618 0.37211 0.22036 0.0
C87 C 0.01006 0.32782 0.22459 0.0
C88 C 0.012 0.30536 0.24082 0.0
C89 C 0.04928 0.32714 0.25359 0.0
C90 C 0.08356 0.37278 0.24996 0.0
C91 C 0.08225 0.39465 0.23344 0.0
C92 C 0.03108 0.36485 0.18598 0.0
C93 C 0.06018 0.35496 0.17608 0.0
C94 C 0.04385 0.3244 0.16074 0.0
C95 C -0.0022 0.30282 0.15504 0.0
C96 C 0.96876 0.31348 0.1648 0.0
C97 C 0.98525 0.34427 0.18013 0.0
C98 C 0.04199 0.43254 0.20303 0.0
C99 C 0.00671 0.43183 0.2133 0.0
C100 C 0.00353 0.47118 0.21442 0.0
C101 C 0.03517 0.51165 0.20507 0.0
C102 C 0.06903 0.51117 0.19413 0.0
C103 C 0.07248 0.47218 0.19324 0.0
H104 H 0.6957 0.05123 0.54998 0.0
N105 N 0.62268 0.96417 0.54385 0.0
H106 H 0.74979 0.07709 0.5764 0.0
H107 H 0.62237 0.91534 0.57344 0.0
H108 H 0.67751 0.94127 0.60004 0.0
H109 H 0.64697 0.9096 0.52766 0.0
H110 H 0.69794 0.92736 0.50077 0.0
H111 H 0.65106 0.0371 0.5199 0.0
H112 H 0.70147 0.05484 0.49296 0.0
H113 H 0.62321 0.04099 0.55745 0.0
H114 H 0.53833 0.90878 0.53072 0.0
H115 H 0.56022 0.05354 0.55742 0.0
H116 H 0.47493 0.92255 0.52961 0.0
H117 H 0.36443 0.10317 0.54629 0.0
H118 H 0.32572 0.11589 0.57223 0.0
H119 H 0.29318 0.9861 0.59648 0.0
H120 H 0.3304 0.973 0.56986 0.0
H121 H 0.27871 0.96018 0.53809 0.0
H122 H 0.22511 0.94493 0.51225 0.0
H123 H 0.33655 0.04068 0.47712 0.0
H124 H 0.38908 0.05881 0.50385 0.0
H125 H 0.45654 0.08763 0.53615 0.0
H126 H 0.5181 0.07152 0.53713 0.0
H127 H 0.41978 0.92848 0.54718 0.0
N128 N 0.36809 0.02884 0.53925 0.0
H129 H 0.35819 0.9451 0.54499 0.0
C130 C 0.65425 0.98119 0.55981 0.0
C131 C 0.69092 0.02689 0.56085 0.0
C132 C 0.72194 0.04177 0.57601 0.0
C133 C 0.71772 0.01122 0.59027 0.0
C134 C 0.68156 0.96547 0.58917 0.0
C135 C 0.64996 0.95073 0.57411 0.0
C136 C 0.64533 0.97191 0.52589 0.0
C137 C 0.65786 0.94078 0.51981 0.0
C138 C 0.68687 0.95095 0.50443 0.0
C139 C 0.70411 0.99274 0.49488 0.0
C140 C 0.68925 0.02266 0.50023 0.0
C141 C 0.66014 0.01239 0.51557 0.0
C142 C 0.58579 0.97332 0.54421 0.0
C143 C 0.59121 0.01441 0.5515 0.0
C144 C 0.55482 0.02194 0.55129 0.0
C145 C 0.51224 0.98926 0.54341 0.0
C146 C 0.50688 0.94827 0.53608 0.0
C147 C 0.5432 0.94045 0.53656 0.0
C148 C 0.35083 0.03761 0.55625 0.0
C149 C 0.34964 0.07795 0.55742 0.0
C150 C 0.32753 0.0851 0.57232 0.0
C151 C 0.30632 0.05209 0.58659 0.0
C152 C 0.30865 0.01204 0.58567 0.0
C153 C 0.33053 0.00476 0.57058 0.0
C154 C 0.33779 0.01164 0.52303 0.0
C155 C 0.29161 0.97768 0.52479 0.0
C156 C 0.26092 0.96866 0.50982 0.0
C157 C 0.27601 0.99234 0.49256 0.0
C158 C 0.32311 0.02302 0.49035 0.0
C159 C 0.35347 0.03297 0.50551 0.0
C160 C 0.4032 0.01779 0.54078 0.0
C161 C 0.44851 0.0529 0.53864 0.0
C162 C 0.48362 0.04354 0.53935 0.0
C163 C 0.47423 -0.00131 0.54248 0.0
C164 C 0.42843 0.96336 0.5446 0.0
C165 C 0.39316 0.97279 0.54362 0.0
H166 H 0.65173 0.75105 0.88831 0.0
N167 N 0.63883 0.68235 0.86619 0.0
H168 H 0.70552 0.78557 0.91481 0.0
H169 H 0.69136 0.65102 0.88097 0.0
H170 H 0.74349 0.68333 0.90822 0.0
H171 H 0.67026 0.63856 0.84399 0.0
H172 H 0.71493 0.66835 0.81533 0.0
H173 H 0.66131 0.75962 0.84876 0.0
H174 H 0.70913 0.79176 0.82118 0.0
H175 H 0.55892 0.67606 0.86934 0.0
H176 H 0.62148 0.59436 0.86693 0.0
H177 H 0.48457 0.607 0.87371 0.0
H178 H 0.54721 0.52484 0.86998 0.0
H179 H 0.28597 0.41202 0.90929 0.0
H180 H 0.25354 0.36649 0.93794 0.0
H181 H 0.31786 0.28925 0.92488 0.0
H182 H 0.35035 0.33508 0.89645 0.0
H183 H 0.37152 0.35926 0.86312 0.0
H184 H 0.33636 0.30318 0.83723 0.0
H185 H 0.21566 0.31281 0.84062 0.0
H186 H 0.25157 0.36945 0.86622 0.0
H187 H 0.35168 0.47443 0.86397 0.0
H188 H 0.42636 0.54214 0.8586 0.0
H189 H 0.48904 0.48141 0.89133 0.0
N190 N 0.33224 0.39926 0.88255 0.0
H191 H 0.41461 0.41291 0.89553 0.0
C192 C 0.66739 0.69846 0.88286 0.0
C193 C 0.67141 0.73596 0.89279 0.0
C194 C 0.70198 0.75536 0.90802 0.0
C195 C 0.72894 0.73724 0.91379 0.0
C196 C 0.72381 0.69863 0.90406 0.0
C197 C 0.69357 0.67965 0.88861 0.0
C198 C 0.66158 0.69656 0.8483 0.0
C199 C 0.67733 0.6713 0.83874 0.0
C200 C 0.70369 0.68889 0.82244 0.0
C201 C 0.71597 0.73268 0.8157 0.0
C202 C 0.69963 0.75747 0.82538 0.0
C203 C 0.67246 0.73936 0.84132 0.0
C204 C 0.59553 0.64042 0.86746 0.0
C205 C 0.55634 0.64301 0.86936 0.0
C206 C 0.51385 0.60338 0.87174 0.0
C207 C 0.50952 0.55997 0.87206 0.0
C208 C 0.54908 0.55753 0.87003 0.0
C209 C 0.59172 0.59739 0.86795 0.0
C210 C 0.32043 0.37704 0.90074 0.0
C211 C 0.2939 0.386 0.9129 0.0
C212 C 0.27521 0.35978 0.92915 0.0
C213 C 0.28282 0.32401 0.93356 0.0
C214 C 0.31167 0.31679 0.92195 0.0
C215 C 0.33018 0.34293 0.90563 0.0
C216 C 0.314 0.36851 0.86651 0.0
C217 C 0.3377 0.34958 0.85813 0.0
C218 C 0.31744 0.31735 0.84342 0.0
C219 C 0.27316 0.30347 0.83687 0.0
C220 C 0.25002 0.3232 0.84511 0.0
C221 C 0.27031 0.35536 0.85977 0.0
C222 C 0.37722 0.43887 0.88035 0.0
C223 C 0.38165 0.47588 0.86996 0.0
C224 C 0.42443 0.5147 0.86704 0.0
C225 C 0.46402 0.51773 0.87469 0.0
C226 C 0.45954 0.48028 0.88502 0.0
C227 C 0.41666 0.44106 0.88766 0.0
H228 H 0.98556 0.10556 0.08952 0.0
H229 H 0.89223 0.12075 0.05243 0.0
H230 H 0.89403 0.17782 0.0746 0.0
H231 H 0.9403 0.11831 0.1343 0.0
H232 H -0.00412 0.14998 0.14543 0.0
H233 H 0.98476 0.10815 0.12723 0.0
H234 H 0.05294 0.17 0.10812 0.0
H235 H 0.06408 0.21207 0.12617 0.0
H236 H 0.05481 0.22224 0.10193 0.0
H237 H 0.90952 0.23663 0.1 0.0
H238 H 0.93701 0.29189 0.12675 0.0
H239 H 0.01913 0.23708 0.1473 0.0
C240 C 0.96498 0.12037 0.08614 0.0
C241 C 0.93865 0.10849 0.06922 0.0
C242 C 0.9126 0.12913 0.06531 0.0
C243 C 0.91337 0.16161 0.07783 0.0
C244 C 0.94024 0.173 0.09422 0.0
C245 C 0.96539 0.15284 0.09845 0.0
C246 C -0.00723 0.17226 0.11663 0.0
C247 C 0.97749 0.13495 0.13179 0.0
C248 C 0.04419 0.19552 0.11298 0.0
C249 C 0.97964 0.207 0.12183 0.0
C250 C 0.94912 0.20678 0.1088 0.0
C251 C 0.93307 0.2368 0.11039 0.0
C252 C 0.94874 0.26794 0.12568 0.0
C253 C 0.98025 0.26892 0.13915 0.0
C254 C -0.00453 0.23767 0.13716 0.0
H255 H 0.84625 0.96169 0.41257 0.0
H256 H 0.95521 0.10008 0.42641 0.0
H257 H 0.9063 0.10702 0.44978 0.0
H258 H 0.75204 0.98121 0.41779 0.0
H259 H 0.71511 0.92667 0.42871 0.0
H260 H 0.75767 0.93271 0.41225 0.0
H261 H 0.79107 0.9027 0.43756 0.0
H262 H 0.74851 0.89641 0.45407 0.0
H263 H 0.80807 0.93058 0.46046 0.0
H264 H 0.84697 0.0997 0.47163 0.0
H265 H 0.78194 0.07624 0.49274 0.0
H266 H 0.71094 0.94169 0.46598 0.0
C267 C 0.85961 0.99347 0.42047 0.0
C268 C 0.90451 0.03041 0.41762 0.0
C269 C 0.921 0.07127 0.42837 0.0
C270 C 0.89342 0.07568 0.44163 0.0
C271 C 0.84944 0.03879 0.44412 0.0
C272 C 0.83263 -0.00172 0.43403 0.0
C273 C 0.78475 0.96326 0.44025 0.0
C274 C 0.75036 0.95021 0.42376 0.0
C275 C 0.78302 0.92073 0.44858 0.0
C276 C 0.77758 0.99048 0.45543 0.0
C277 C 0.81521 0.03413 0.45722 0.0
C278 C 0.81716 0.06568 0.47033 0.0
C279 C 0.77987 0.05213 0.48216 0.0
C280 C 0.74117 0.00728 0.48092 0.0
C281 C 0.74004 0.97619 0.46726 0.0
H282 H 0.84981 0.92949 0.74137 0.0
H283 H 0.95017 0.88864 0.73846 0.0
H284 H 0.89946 0.81896 0.75692 0.0
H285 H 0.81813 0.90001 0.7869 0.0
H286 H 0.75819 0.8784 0.7834 0.0
H287 H 0.7988 0.92062 0.76758 0.0
H288 H 0.75716 0.86719 0.73878 0.0
H289 H 0.71587 0.82486 0.75452 0.0
H290 H 0.74689 0.80971 0.73859 0.0
H291 H 0.8443 0.76276 0.78081 0.0
H292 H 0.7871 0.72117 0.80531 0.0
H293 H 0.71859 0.79403 0.78948 0.0
C294 C 0.86044 0.9051 0.74415 0.0
C295 C 0.90367 0.91412 0.73854 0.0
C296 C 0.91684 0.88187 0.74249 0.0
C297 C 0.88833 0.84236 0.75299 0.0
C298 C 0.84638 0.83522 0.7589 0.0
C299 C 0.83203 0.86518 0.75418 0.0
C300 C 0.78683 0.85144 0.76311 0.0
C301 C 0.79077 0.8899 0.77601 0.0
C302 C 0.74948 0.83746 0.74784 0.0
C303 C 0.77914 0.81055 0.77449 0.0
C304 C 0.81363 0.80148 0.77184 0.0
C305 C 0.81633 0.76859 0.78253 0.0
C306 C 0.78334 0.74487 0.79641 0.0
C307 C 0.74774 0.75384 0.79946 0.0
C308 C 0.74529 0.78632 0.78783 0.0
H309 H 0.04878 0.9283 0.08582 0.0
H310 H 0.92075 0.91393 0.10305 0.0
H311 H 0.91315 0.85967 0.12778 0.0
H312 H 0.0155 0.81142 0.09195 0.0
H313 H 0.0699 0.82337 0.10114 0.0
H314 H 0.06697 0.863 0.08518 0.0
H315 H 0.1099 0.92858 0.10982 0.0
H316 H 0.11331 0.88922 0.12579 0.0
H317 H 0.08814 0.9216 0.13351 0.0
H318 H 0.91702 0.80467 0.14958 0.0
H319 H 0.9347 0.75525 0.16871 0.0
H320 H 0.06021 0.80429 0.13777 0.0
C321 C 0.01948 0.91418 0.09496 0.0
C322 C 0.98538 0.92544 0.09249 0.0
C323 C 0.94734 0.9059 0.10465 0.0
C324 C 0.94264 0.87495 0.11874 0.0
C325 C 0.9763 0.8639 0.12058 0.0
C326 C 0.01421 0.88311 0.10918 0.0
C327 C 0.04499 0.86467 0.11408 0.0
C328 C 0.04959 0.83909 0.09707 0.0
C329 C 0.09186 0.90333 0.12123 0.0
C330 C 0.01821 0.83194 0.1299 0.0
C331 C 0.97865 0.83203 0.13334 0.0
C332 C 0.94791 0.8043 0.14705 0.0
C333 C 0.95806 0.77601 0.15772 0.0
C334 C -0.00134 0.7756 0.15466 0.0
C335 C 0.02903 0.80399 0.1405 0.0
H336 H 0.17942 0.0834 0.41106 0.0
H337 H 0.05173 0.95344 0.4135 0.0
H338 H 0.08512 0.9265 0.4378 0.0
H339 H 0.25505 0.04141 0.41743 0.0
H340 H 0.29462 0.08841 0.43247 0.0
H341 H 0.26109 0.09693 0.41495 0.0
H342 H 0.22959 0.12652 0.44103 0.0
H343 H 0.26347 0.11864 0.45856 0.0
H344 H 0.20277 0.09156 0.46148 0.0
H345 H 0.13446 0.91279 0.46069 0.0
H346 H 0.19185 0.91654 0.48321 0.0
H347 H 0.28389 0.05872 0.46791 0.0
C348 C 0.15853 0.04927 0.41672 0.0
C349 C 0.11316 0.02031 0.41036 0.0
C350 C 0.08658 0.97614 0.41826 0.0
C351 C 0.10532 0.96049 0.43195 0.0
C352 C 0.15039 0.98976 0.43779 0.0
C353 C 0.17632 0.03353 0.43068 0.0
C354 C 0.22305 0.05909 0.43998 0.0
C355 C 0.26066 0.07221 0.42533 0.0
C356 C 0.23011 0.10145 0.45091 0.0
C357 C 0.21957 0.02272 0.45331 0.0
C358 C 0.17769 0.98278 0.45168 0.0
C359 C 0.16715 0.94416 0.46229 0.0
C360 C 0.2 0.94677 0.47516 0.0
C361 C 0.24269 0.98803 0.47761 0.0
C362 C 0.25227 0.02625 0.46633 0.0
H363 H 0.10463 0.17403 0.74925 0.0
H364 H 0.12746 0.0616 0.75896 0.0
H365 H 0.18216 0.10597 0.78473 0.0
H366 H 0.22096 0.26593 0.75832 0.0
H367 H 0.20419 0.30189 0.77005 0.0
H368 H 0.1679 0.26189 0.75193 0.0
H369 H 0.10081 0.22548 0.77542 0.0
H370 H 0.13686 0.26538 0.79359 0.0
H371 H 0.10804 0.20466 0.79788 0.0
H372 H 0.23292 0.1617 0.80994 0.0
H373 H 0.27449 0.22404 0.83341 0.0
H374 H 0.21926 0.30047 0.80704 0.0
C375 C 0.12128 0.15882 0.75673 0.0
C376 C 0.11182 0.11437 0.75208 0.0
C377 C 0.13416 0.09559 0.76228 0.0
C378 C 0.16537 0.12056 0.77692 0.0
C379 C 0.17388 0.16425 0.78116 0.0
C380 C 0.15246 0.18322 0.77141 0.0
C381 C 0.16678 0.23035 0.77912 0.0
C382 C 0.19143 0.26719 0.76395 0.0
C383 C 0.12568 0.23151 0.78697 0.0
C384 C 0.19924 0.23469 0.79485 0.0
C385 C 0.20309 0.19633 0.79572 0.0
C386 C 0.23045 0.19207 0.80932 0.0
C387 C 0.25417 0.22781 0.82252 0.0
C388 C 0.25029 0.26724 0.82205 0.0
C389 C 0.2227 0.27067 0.80788 0.0
H390 H 0.90068 0.00942 0.66121 0.0
H391 H 0.91617 0.13251 0.68701 0.0
H392 H 0.86114 0.13131 0.66379 0.0
H393 H 0.88691 0.03514 0.61225 0.0
H394 H 0.84441 0.97657 0.60656 0.0
H395 H 0.88741 0.98888 0.62439 0.0
H396 H 0.82432 0.94072 0.6486 0.0
H397 H 0.78114 0.92858 0.63091 0.0
H398 H 0.78103 0.95444 0.65321 0.0
H399 H 0.80373 0.11628 0.63825 0.0
H400 H 0.74623 0.08733 0.6123 0.0
H401 H 0.76504 0.97204 0.60391 0.0
C402 C 0.89302 0.03651 0.66176 0.0
C403 C 0.91298 0.0713 0.67581 0.0
C404 C 0.90136 0.1056 0.67634 0.0
C405 C 0.87018 0.10524 0.66321 0.0
C406 C 0.85056 0.07009 0.64974 0.0
C407 C 0.86139 0.03627 0.64892 0.0
C408 C 0.83375 0.00121 0.63358 0.0
C409 C 0.86499 0.00043 0.61829 0.0
C410 C 0.80326 0.95342 0.64209 0.0
C411 C 0.80567 0.02058 0.62595 0.0
C412 C 0.81621 0.06053 0.63538 0.0
C413 C 0.79518 0.08504 0.63075 0.0
C414 C 0.76266 0.06841 0.616 0.0
C415 C 0.75118 0.02746 0.60619 0.0
C416 C 0.77284 0.00317 0.61134 0.0
H417 H 0.84335 0.89885 0.00458 0.0
H418 H 0.96646 0.89746 0.99217 0.0
H419 H 0.92601 0.84196 0.96618 0.0
H420 H 0.76319 0.77712 -0.0057 0.0
H421 H 0.72126 0.78766 0.98383 0.0
H422 H 0.75911 0.82518 0.00224 0.0
H423 H 0.78531 0.89488 0.98015 0.0
H424 H 0.74766 0.85761 0.96169 0.0
H425 H 0.80755 0.89454 0.95715 0.0
H426 H 0.87415 0.79132 0.94011 0.0
H427 H 0.81431 0.74849 0.91595 0.0
H428 H 0.72353 0.77951 0.94624 0.0
C429 C 0.86165 0.8865 -0.00347 0.0
C430 C 0.90807 0.9025 0.0004 0.0
C431 C 0.93088 0.88568 0.98948 0.0
C432 C 0.90819 0.85407 0.9747 0.0
C433 C 0.86259 0.83934 0.97112 0.0
C434 C 0.83946 0.85476 0.98177 0.0
C435 C 0.79098 0.83471 0.97455 0.0
C436 C 0.75661 0.80436 0.98963 0.0
C437 C 0.7824 0.8727 0.96799 0.0
C438 C 0.79082 0.80639 0.95794 0.0
C439 C 0.83237 0.80936 0.95626 0.0
C440 C 0.84118 0.78809 0.94144 0.0
C441 C 0.80675 0.76349 0.92784 0.0
C442 C 0.76386 0.76018 0.92916 0.0
C443 C 0.75589 0.78149 0.94465 0.0
H444 H 0.05179 0.95926 0.31211 0.0
H445 H 0.93304 0.87792 0.34683 0.0
H446 H 0.91719 0.80811 0.32914 0.0
H447 H 0.00396 0.89642 0.26806 0.0
H448 H 0.0574 0.90293 0.26104 0.0
H449 H 0.05694 0.94594 0.27575 0.0
H450 H 0.10754 0.93648 0.30074 0.0
H451 H 0.10776 0.89312 0.28622 0.0
H452 H 0.08872 0.8806 0.31037 0.0
H453 H 0.91724 0.74636 0.30807 0.0
H454 H 0.9324 0.69988 0.28556 0.0
H455 H 0.05105 0.82384 0.26542 0.0
C456 C 0.0221 0.92694 0.31596 0.0
C457 C -0.00635 0.92414 0.33089 0.0
C458 C 0.95524 0.88098 0.33539 0.0
C459 C 0.94604 0.84114 0.32545 0.0
C460 C 0.97547 0.84518 0.31103 0.0
C461 C 0.01254 0.88718 0.30627 0.0
C462 C 0.03987 0.88277 0.29064 0.0
C463 C 0.03949 0.90853 0.27282 0.0
C464 C 0.08885 0.89921 0.29741 0.0
C465 C 0.01288 0.83158 0.28746 0.0
C466 C 0.97569 0.81027 0.29922 0.0
C467 C 0.94619 0.76283 0.29876 0.0
C468 C 0.95501 0.73672 0.28593 0.0
C469 C -0.00682 0.75815 0.27387 0.0
C470 C 0.02213 0.80623 0.2747 0.0
H471 H 0.09619 0.9835 0.65577 0.0
H472 H 0.15875 0.12892 0.66782 0.0
H473 H 0.2235 0.14512 0.64768 0.0
H474 H 0.1999 0.9801 0.65417 0.0
H475 H 0.1813 0.94047 0.63445 0.0
H476 H 0.14006 0.93934 0.65042 0.0
H477 H 0.0975 0.95001 0.62217 0.0
H478 H 0.13835 0.95072 0.60611 0.0
H479 H 0.1284 -0.00225 0.60646 0.0
H480 H 0.28236 0.14605 0.62721 0.0
H481 H 0.32834 0.13264 0.60451 0.0
H482 H 0.22578 0.98741 0.60329 0.0
C483 C 0.12358 0.01868 0.65415 0.0
C484 C 0.1225 0.05494 0.66342 0.0
C485 C 0.15873 0.10059 0.66081 0.0
C486 C 0.19585 0.11017 0.64949 0.0
C487 C 0.19609 0.0738 0.64065 0.0
C488 C 0.16071 0.02903 0.64256 0.0
C489 C 0.16872 -0.00323 0.63063 0.0
C490 C 0.17274 0.96212 0.64317 0.0
C491 C 0.131 0.97238 0.61544 0.0
C492 C 0.21408 0.0305 0.6218 0.0
C493 C 0.22941 0.07461 0.62801 0.0
C494 C 0.27051 0.11171 0.62205 0.0
C495 C 0.29627 0.10373 0.60904 0.0
C496 C 0.2806 0.05906 0.60182 0.0
C497 C 0.23912 0.02193 0.60858 0.0
H498 H 0.05775 0.14762 0.98725 0.0
H499 H 0.13813 0.1099 0.02225 0.0
H500 H 0.20816 0.1689 0.0063 0.0
H501 H 0.11822 0.16557 0.94486 0.0
H502 H 0.11296 0.21332 0.93758 0.0
H503 H 0.07024 0.16957 0.95234 0.0
H504 H 0.08266 0.23128 0.97722 0.0
H505 H 0.12554 0.27526 0.96254 0.0
H506 H 0.13907 0.26938 0.98674 0.0
H507 H 0.269 0.23 0.98475 0.0
H508 H 0.31441 0.28825 0.96056 0.0
H509 H 0.19243 0.2849 0.94079 0.0
C510 C 0.09001 0.1517 0.9917 0.0
C511 C 0.0924 0.12396 0.00598 0.0
C512 C 0.13546 0.13079 0.01136 0.0
C513 C 0.17538 0.16419 0.00238 0.0
C514 C 0.17158 0.19066 0.98821 0.0
C515 C 0.12989 0.18483 0.98304 0.0
C516 C 0.13432 0.21676 0.96726 0.0
C517 C 0.10735 0.18968 0.94946 0.0
C518 C 0.11953 0.25015 0.97384 0.0
C519 C 0.18504 0.24129 0.96412 0.0
C520 C 0.20616 0.22593 0.97628 0.0
C521 C 0.2528 0.24253 0.97531 0.0
C522 C 0.27828 0.27546 0.96151 0.0
C523 C 0.25705 0.29153 0.94898 0.0
C524 C 0.20989 0.27421 0.95047 0.0
H525 H 0.96278 0.12542 0.32954 0.0
H526 H 0.10484 0.17697 0.34369 0.0
H527 H 0.12795 0.24059 0.32128 0.0
H528 H 0.97664 0.15059 0.28046 0.0
H529 H 0.93535 0.16825 0.27915 0.0
H530 H 0.92975 0.1274 0.29669 0.0
H531 H 0.9287 0.17939 0.3233 0.0
H532 H 0.93416 0.22036 0.30582 0.0
H533 H 0.9747 0.23817 0.32519 0.0
H534 H 0.13574 0.29443 0.29552 0.0
H535 H 0.12812 0.3381 0.26964 0.0
H536 H 0.98058 0.25659 0.27442 0.0
C537 C -0.00128 0.15026 0.32797 0.0
C538 C 0.03207 0.14623 0.33828 0.0
C539 C 0.07874 0.17951 0.33597 0.0
C540 C 0.0922 0.21571 0.32325 0.0
C541 C 0.05853 0.21856 0.31321 0.0
C542 C 0.01274 0.18712 0.31559 0.0
C543 C 0.98352 0.1982 0.30305 0.0
C544 C 0.95462 0.15876 0.28901 0.0
C545 C 0.9535 0.20972 0.31506 0.0
C546 C 0.0201 0.24016 0.29296 0.0
C547 C 0.06308 0.25118 0.29899 0.0
C548 C 0.10226 0.2868 0.29096 0.0
C549 C 0.09745 0.3118 0.27632 0.0
C550 C 0.05369 0.30167 0.26994 0.0
C551 C 0.01462 0.26545 0.27867 0.0
loop_
_geom_bond_atom_site_label_1
_geom_bond_atom_site_label_2
_geom_bond_distance
_geom_bond_site_symmetry_2
_ccdc_geom_bond_type
C0 O1 1.306 1_455 S
C0 O3 1.160 . S
O1 C0 1.306 1_655 S
O1 Cd2 2.228 . S
Cd2 O1 2.228 . S
Cd2 O6 2.301 . S
Cd2 O10 2.277 1_655 S
O3 C0 1.160 . S
O3 Cd4 2.203 . S
Cd4 O3 2.203 . S
Cd4 O6 2.404 1_455 S
Cd4 O7 2.333 1_445 S
Cd4 O8 2.352 1_445 S
Cd4 O12 2.277 . S
Cd4 O13 2.356 1_545 S
C5 O10 1.209 . S
C5 O12 1.226 . S
O6 Cd2 2.301 . S
O6 Cd4 2.404 1_655 S
O6 C9 1.296 1_545 S
O7 Cd4 2.333 1_665 S
O7 C9 1.214 . S
O8 Cd4 2.352 1_665 S
O8 C11 1.258 1_655 S
C9 O6 1.296 1_565 S
C9 O7 1.214 . S
O10 Cd2 2.277 1_455 S
O10 C5 1.209 . S
C11 O8 1.258 1_455 S
C11 O13 1.282 . S
O12 Cd4 2.277 . S
O12 C5 1.226 . S
O13 Cd4 2.356 1_565 S
O13 C11 1.282 . S
C14 O15 1.306 . S
C14 O17 1.160 . S
O15 C14 1.306 . S
O15 Cd16 2.228 . S
Cd16 O15 2.228 . S
Cd16 O20 2.273 . S
Cd16 O24 2.277 1_545 S
O17 C14 1.160 . S
O17 Cd18 2.203 1_455 S
Cd18 O17 2.203 1_655 S
Cd18 O20 2.411 1_655 S
Cd18 O21 2.333 . S
Cd18 O22 2.352 . S
Cd18 O26 2.277 1_545 S
Cd18 O27 2.356 1_545 S
C19 O24 1.209 . S
C19 O26 1.226 1_455 S
O20 Cd16 2.273 . S
O20 Cd18 2.411 1_455 S
O20 C23 1.320 . S
O21 Cd18 2.333 . S
O21 C23 1.214 1_655 S
O22 Cd18 2.352 . S
O22 C25 1.258 . S
C23 O20 1.320 . S
C23 O21 1.214 1_455 S
O24 Cd16 2.277 1_565 S
O24 C19 1.209 . S
C25 O22 1.258 . S
C25 O27 1.282 1_545 S
O26 Cd18 2.277 1_565 S
O26 C19 1.226 1_655 S
O27 Cd18 2.356 1_565 S
O27 C25 1.282 1_565 S
C28 O29 1.306 . S
C28 O31 1.160 . S
O29 C28 1.306 . S
O29 Cd30 2.228 . S
Cd30 O29 2.228 . S
Cd30 O34 2.273 1_655 S
Cd30 O38 2.277 . S
O31 C28 1.160 . S
O31 Cd32 2.203 1_655 S
Cd32 O31 2.203 1_455 S
Cd32 O34 2.411 . S
Cd32 O35 2.333 . S
Cd32 O36 2.352 . S
Cd32 O40 2.277 1_445 S
Cd32 O41 2.356 1_545 S
C33 O38 1.209 1_565 S
C33 O40 1.226 . S
O34 Cd30 2.273 1_455 S
O34 Cd32 2.411 . S
O34 C37 1.320 . S
O35 Cd32 2.333 . S
O35 C37 1.214 . S
O36 Cd32 2.352 . S
O36 C39 1.258 . S
C37 O34 1.320 . S
C37 O35 1.214 . S
O38 Cd30 2.277 . S
O38 C33 1.209 1_545 S
C39 O36 1.258 . S
C39 O41 1.282 1_545 S
O40 Cd32 2.277 1_665 S
O40 C33 1.226 . S
O41 Cd32 2.356 1_565 S
O41 C39 1.282 1_565 S
H42 C69 0.929 . S
N43 C68 1.433 . S
N43 C74 1.435 . S
N43 C80 1.423 . S
H44 C70 0.930 1_655 S
H45 C73 0.931 . S
H46 C72 0.929 . S
H47 C75 0.930 . S
H48 C76 0.932 . S
H49 C79 0.929 . S
H50 C78 0.924 1_655 S
H51 C81 0.929 . S
H52 C85 0.932 . S
H53 C82 0.931 . S
H54 C84 0.929 . S
H55 C87 0.929 . S
H56 C88 0.930 1_655 S
H57 C90 0.929 . S
H58 C91 0.931 . S
H59 C93 0.930 . S
H60 C94 0.932 . S
H61 C96 0.922 1_655 S
H62 C97 0.929 . S
H63 C99 0.929 . S
H64 C100 0.931 . S
H65 C102 0.929 . S
N66 C86 1.433 . S
N66 C92 1.435 . S
N66 C98 1.423 . S
H67 C103 0.932 . S
C68 N43 1.433 . S
C68 C69 1.363 1_455 S
C68 C73 1.370 . S
C69 H42 0.929 . S
C69 C68 1.363 1_655 S
C69 C70 1.385 1_655 S
C70 H44 0.930 1_455 S
C70 C69 1.385 1_455 S
C70 C71 1.357 . S
C71 C70 1.357 . S
C71 C72 1.406 . S
C72 H46 0.929 . S
C72 C71 1.406 . S
C72 C73 1.391 . S
C73 H45 0.931 . S
C73 C68 1.370 . S
C73 C72 1.391 . S
C74 N43 1.435 . S
C74 C75 1.358 . S
C74 C79 1.371 1_455 S
C75 H47 0.930 . S
C75 C74 1.358 . S
C75 C76 1.405 . S
C76 H48 0.932 . S
C76 C75 1.405 . S
C76 C77 1.383 . S
C77 C76 1.383 . S
C77 C78 1.397 . S
C78 H50 0.924 1_455 S
C78 C77 1.397 . S
C78 C79 1.386 1_455 S
C79 H49 0.929 . S
C79 C74 1.371 1_655 S
C79 C78 1.386 1_655 S
C80 N43 1.423 . S
C80 C81 1.362 1_455 S
C80 C85 1.388 . S
C81 H51 0.929 . S
C81 C80 1.362 1_655 S
C81 C82 1.376 . S
C82 H53 0.931 . S
C82 C81 1.376 . S
C82 C83 1.387 1_655 S
C83 C82 1.387 1_455 S
C83 C84 1.350 . S
C83 C101 1.472 . S
C84 H54 0.929 . S
C84 C83 1.350 . S
C84 C85 1.443 . S
C85 H52 0.932 . S
C85 C80 1.388 . S
C85 C84 1.443 . S
C86 N66 1.433 . S
C86 C87 1.363 1_455 S
C86 C91 1.370 . S
C87 H55 0.929 . S
C87 C86 1.363 1_655 S
C87 C88 1.385 1_655 S
C88 H56 0.930 1_455 S
C88 C87 1.385 1_455 S
C88 C89 1.357 . S
C89 C88 1.357 . S
C89 C90 1.406 . S
C90 H57 0.929 . S
C90 C89 1.406 . S
C90 C91 1.391 . S
C91 H58 0.931 . S
C91 C86 1.370 . S
C91 C90 1.391 . S
C92 N66 1.435 . S
C92 C93 1.358 . S
C92 C97 1.371 1_455 S
C93 H59 0.930 . S
C93 C92 1.358 . S
C93 C94 1.405 . S
C94 H60 0.932 . S
C94 C93 1.405 . S
C94 C95 1.383 . S
C95 C94 1.383 . S
C95 C96 1.410 . S
C96 H61 0.922 1_455 S
C96 C95 1.410 . S
C96 C97 1.374 1_455 S
C97 H62 0.929 . S
C97 C92 1.371 1_655 S
C97 C96 1.374 1_655 S
C98 N66 1.423 . S
C98 C99 1.362 1_455 S
C98 C103 1.388 . S
C99 H63 0.929 . S
C99 C98 1.362 1_655 S
C99 C100 1.376 . S
C100 H64 0.931 . S
C100 C99 1.376 . S
C100 C101 1.393 1_655 S
C101 C83 1.472 . S
C101 C100 1.393 1_455 S
C101 C102 1.357 . S
C102 H65 0.929 . S
C102 C101 1.357 . S
C102 C103 1.443 . S
C103 H67 0.932 . S
C103 C98 1.388 . S
C103 C102 1.443 . S
H104 C131 0.929 . S
N105 C130 1.433 . S
N105 C136 1.435 . S
N105 C142 1.423 . S
H106 C132 0.930 . S
H107 C135 0.931 1_565 S
H108 C134 0.929 1_565 S
H109 C137 0.930 1_565 S
H110 C138 0.932 . S
H111 C141 0.929 . S
H112 C140 0.931 . S
H113 C143 0.929 . S
H114 C147 0.932 . S
H115 C144 0.931 . S
H116 C146 0.929 . S
H117 C149 0.929 . S
H118 C150 0.930 . S
H119 C152 0.929 1_565 S
H120 C153 0.931 1_565 S
H121 C155 0.930 1_565 S
H122 C156 0.932 . S
H123 C158 0.931 . S
H124 C159 0.929 . S
H125 C161 0.929 . S
H126 C162 0.931 . S
H127 C164 0.929 . S
N128 C148 1.433 . S
N128 C154 1.435 . S
N128 C160 1.423 . S
H129 C165 0.932 . S
C130 N105 1.433 . S
C130 C131 1.363 . S
C130 C135 1.370 . S
C131 H104 0.929 . S
C131 C130 1.363 . S
C131 C132 1.385 . S
C132 H106 0.930 . S
C132 C131 1.385 . S
C132 C133 1.357 . S
C133 C132 1.357 . S
C133 C134 1.406 . S
C134 H108 0.929 1_545 S
C134 C133 1.406 . S
C134 C135 1.391 . S
C135 H107 0.931 1_545 S
C135 C130 1.370 . S
C135 C134 1.391 . S
C136 N105 1.435 . S
C136 C137 1.358 . S
C136 C141 1.371 . S
C137 H109 0.930 1_545 S
C137 C136 1.358 . S
C137 C138 1.405 1_545 S
C138 H110 0.932 . S
C138 C137 1.405 1_565 S
C138 C139 1.383 1_565 S
C139 C138 1.383 1_545 S
C139 C140 1.393 . S
C140 H112 0.931 . S
C140 C139 1.393 . S
C140 C141 1.382 . S
C141 H111 0.929 . S
C141 C136 1.371 . S
C141 C140 1.382 . S
C142 N105 1.423 . S
C142 C143 1.362 . S
C142 C147 1.388 . S
C143 H113 0.929 . S
C143 C142 1.362 . S
C143 C144 1.376 . S
C144 H115 0.931 . S
C144 C143 1.376 . S
C144 C145 1.396 . S
C145 C144 1.396 . S
C145 C146 1.348 . S
C145 C163 1.472 . S
C146 H116 0.929 . S
C146 C145 1.348 . S
C146 C147 1.443 . S
C147 H114 0.932 . S
C147 C142 1.388 . S
C147 C146 1.443 . S
C148 N128 1.433 . S
C148 C149 1.363 . S
C148 C153 1.370 . S
C149 H117 0.929 . S
C149 C148 1.363 . S
C149 C150 1.385 . S
C150 H118 0.930 . S
C150 C149 1.385 . S
C150 C151 1.357 . S
C151 C150 1.357 . S
C151 C152 1.406 . S
C152 H119 0.929 1_545 S
C152 C151 1.406 . S
C152 C153 1.391 . S
C153 H120 0.931 1_545 S
C153 C148 1.370 . S
C153 C152 1.391 . S
C154 N128 1.435 . S
C154 C155 1.358 . S
C154 C159 1.371 . S
C155 H121 0.930 1_545 S
C155 C154 1.358 . S
C155 C156 1.405 1_545 S
C156 H122 0.932 . S
C156 C155 1.405 1_565 S
C156 C157 1.383 1_565 S
C157 C156 1.383 1_545 S
C157 C158 1.393 . S
C158 H123 0.931 . S
C158 C157 1.393 . S
C158 C159 1.382 . S
C159 H124 0.929 . S
C159 C154 1.371 . S
C159 C158 1.382 . S
C160 N128 1.423 . S
C160 C161 1.362 . S
C160 C165 1.388 . S
C161 H125 0.929 . S
C161 C160 1.362 . S
C161 C162 1.376 . S
C162 H126 0.931 . S
C162 C161 1.376 . S
C162 C163 1.396 . S
C163 C145 1.472 . S
C163 C162 1.396 . S
C163 C164 1.348 . S
C164 H127 0.929 . S
C164 C163 1.348 . S
C164 C165 1.443 . S
C165 H129 0.932 . S
C165 C160 1.388 . S
C165 C164 1.443 . S
H166 C193 0.929 . S
N167 C192 1.433 . S
N167 C198 1.435 . S
N167 C204 1.423 . S
H168 C194 0.930 . S
H169 C197 0.931 . S
H170 C196 0.929 . S
H171 C199 0.930 . S
H172 C200 0.932 . S
H173 C203 0.929 . S
H174 C202 0.931 . S
H175 C205 0.929 . S
H176 C209 0.932 . S
H177 C206 0.931 . S
H178 C208 0.929 . S
H179 C211 0.929 . S
H180 C212 0.930 . S
H181 C214 0.929 . S
H182 C215 0.931 . S
H183 C217 0.930 . S
H184 C218 0.932 . S
H185 C220 0.931 . S
H186 C221 0.929 . S
H187 C223 0.929 . S
H188 C224 0.931 . S
H189 C226 0.929 . S
N190 C210 1.433 . S
N190 C216 1.435 . S
N190 C222 1.423 . S
H191 C227 0.932 . S
C192 N167 1.433 . S
C192 C193 1.363 . S
C192 C197 1.370 . S
C193 H166 0.929 . S
C193 C192 1.363 . S
C193 C194 1.385 . S
C194 H168 0.930 . S
C194 C193 1.385 . S
C194 C195 1.357 . S
C195 C194 1.357 . S
C195 C196 1.406 . S
C196 H170 0.929 . S
C196 C195 1.406 . S
C196 C197 1.391 . S
C197 H169 0.931 . S
C197 C192 1.370 . S
C197 C196 1.391 . S
C198 N167 1.435 . S
C198 C199 1.358 . S
C198 C203 1.371 . S
C199 H171 0.930 . S
C199 C198 1.358 . S
C199 C200 1.405 . S
C200 H172 0.932 . S
C200 C199 1.405 . S
C200 C201 1.383 . S
C201 C200 1.383 . S
C201 C202 1.393 . S
C202 H174 0.931 . S
C202 C201 1.393 . S
C202 C203 1.382 . S
C203 H173 0.929 . S
C203 C198 1.371 . S
C203 C202 1.382 . S
C204 N167 1.423 . S
C204 C205 1.362 . S
C204 C209 1.388 . S
C205 H175 0.929 . S
C205 C204 1.362 . S
C205 C206 1.376 . S
C206 H177 0.931 . S
C206 C205 1.376 . S
C206 C207 1.396 . S
C207 C206 1.396 . S
C207 C208 1.348 . S
C207 C225 1.472 . S
C208 H178 0.929 . S
C208 C207 1.348 . S
C208 C209 1.443 . S
C209 H176 0.932 . S
C209 C204 1.388 . S
C209 C208 1.443 . S
C210 N190 1.433 . S
C210 C211 1.363 . S
C210 C215 1.370 . S
C211 H179 0.929 . S
C211 C210 1.363 . S
C211 C212 1.385 . S
C212 H180 0.930 . S
C212 C211 1.385 . S
C212 C213 1.357 . S
C213 C212 1.357 . S
C213 C214 1.406 . S
C214 H181 0.929 . S
C214 C213 1.406 . S
C214 C215 1.391 . S
C215 H182 0.931 . S
C215 C210 1.370 . S
C215 C214 1.391 . S
C216 N190 1.435 . S
C216 C217 1.358 . S
C216 C221 1.371 . S
C217 H183 0.930 . S
C217 C216 1.358 . S
C217 C218 1.405 . S
C218 H184 0.932 . S
C218 C217 1.405 . S
C218 C219 1.383 . S
C219 C218 1.383 . S
C219 C220 1.393 . S
C220 H185 0.931 . S
C220 C219 1.393 . S
C220 C221 1.382 . S
C221 H186 0.929 . S
C221 C216 1.371 . S
C221 C220 1.382 . S
C222 N190 1.423 . S
C222 C223 1.362 . S
C222 C227 1.388 . S
C223 H187 0.929 . S
C223 C222 1.362 . S
C223 C224 1.376 . S
C224 H188 0.931 . S
C224 C223 1.376 . S
C224 C225 1.396 . S
C225 C207 1.472 . S
C225 C224 1.396 . S
C225 C226 1.348 . S
C226 H189 0.929 . S
C226 C225 1.348 . S
C226 C227 1.443 . S
C227 H191 0.932 . S
C227 C222 1.388 . S
C227 C226 1.443 . S
H228 C240 0.930 . S
H229 C242 0.930 . S
H230 C243 0.930 . S
H231 C247 0.959 . S
H232 C247 0.959 . S
H233 C247 0.961 . S
H234 C248 0.960 . S
H235 C248 0.961 . S
H236 C248 0.959 . S
H237 C251 0.929 . S
H238 C252 0.931 . S
H239 C254 0.930 . S
C240 H228 0.930 . S
C240 C241 1.399 . S
C240 C245 1.399 . S
C241 C240 1.399 . S
C241 C242 1.376 1_455 S
C242 H229 0.930 . S
C242 C241 1.376 1_655 S
C242 C243 1.388 . S
C243 H230 0.930 . S
C243 C242 1.388 . S
C243 C244 1.390 1_655 S
C244 C243 1.390 1_455 S
C244 C245 1.394 . S
C244 C250 1.465 . S
C245 C240 1.399 . S
C245 C244 1.394 . S
C245 C246 1.516 . S
C246 C245 1.516 . S
C246 C247 1.502 . S
C246 C248 1.561 . S
C246 C249 1.526 . S
C247 H231 0.959 . S
C247 H232 0.959 . S
C247 H233 0.961 . S
C247 C246 1.502 . S
C248 H234 0.960 . S
C248 H235 0.961 . S
C248 H236 0.959 . S
C248 C246 1.561 . S
C249 C246 1.526 . S
C249 C250 1.396 . S
C249 C254 1.390 . S
C250 C244 1.465 . S
C250 C249 1.396 . S
C250 C251 1.399 1_455 S
C251 H237 0.929 . S
C251 C250 1.399 1_655 S
C251 C252 1.385 . S
C252 H238 0.931 . S
C252 C251 1.385 . S
C252 C253 1.389 1_655 S
C253 C252 1.389 1_455 S
C253 C254 1.387 . S
C254 H239 0.930 . S
C254 C249 1.390 . S
C254 C253 1.387 . S
H255 C267 0.930 . S
H256 C269 0.930 . S
H257 C270 0.930 . S
H258 C274 0.959 . S
H259 C274 0.959 . S
H260 C274 0.961 . S
H261 C275 0.960 . S
H262 C275 0.961 . S
H263 C275 0.959 . S
H264 C278 0.929 . S
H265 C279 0.931 . S
H266 C281 0.930 . S
C267 H255 0.930 . S
C267 C268 1.399 1_565 S
C267 C272 1.399 . S
C268 C267 1.399 1_545 S
C268 C269 1.376 . S
C269 H256 0.930 . S
C269 C268 1.376 . S
C269 C270 1.388 . S
C270 H257 0.930 . S
C270 C269 1.388 . S
C270 C271 1.390 . S
C271 C270 1.390 . S
C271 C272 1.394 1_545 S
C271 C277 1.465 . S
C272 C267 1.399 . S
C272 C271 1.394 1_565 S
C272 C273 1.516 . S
C273 C272 1.516 . S
C273 C274 1.502 . S
C273 C275 1.561 . S
C273 C276 1.526 . S
C274 H258 0.959 . S
C274 H259 0.959 . S
C274 H260 0.961 . S
C274 C273 1.502 . S
C275 H261 0.960 . S
C275 H262 0.961 . S
C275 H263 0.959 . S
C275 C273 1.561 . S
C276 C273 1.526 . S
C276 C277 1.396 1_565 S
C276 C281 1.390 . S
C277 C271 1.465 . S
C277 C276 1.396 1_545 S
C277 C278 1.399 . S
C278 H264 0.929 . S
C278 C277 1.399 . S
C278 C279 1.385 . S
C279 H265 0.931 . S
C279 C278 1.385 . S
C279 C280 1.389 . S
C280 C279 1.389 . S
C280 C281 1.387 1_545 S
C281 H266 0.930 . S
C281 C276 1.390 . S
C281 C280 1.387 1_565 S
H282 C294 0.930 . S
H283 C296 0.930 . S
H284 C297 0.930 . S
H285 C301 0.959 . S
H286 C301 0.959 . S
H287 C301 0.961 . S
H288 C302 0.960 . S
H289 C302 0.961 . S
H290 C302 0.959 . S
H291 C305 0.929 . S
H292 C306 0.931 . S
H293 C308 0.930 . S
C294 H282 0.930 . S
C294 C295 1.399 . S
C294 C299 1.399 . S
C295 C294 1.399 . S
C295 C296 1.376 . S
C296 H283 0.930 . S
C296 C295 1.376 . S
C296 C297 1.388 . S
C297 H284 0.930 . S
C297 C296 1.388 . S
C297 C298 1.390 . S
C298 C297 1.390 . S
C298 C299 1.394 . S
C298 C304 1.465 . S
C299 C294 1.399 . S
C299 C298 1.394 . S
C299 C300 1.516 . S
C300 C299 1.516 . S
C300 C301 1.502 . S
C300 C302 1.561 . S
C300 C303 1.526 . S
C301 H285 0.959 . S
C301 H286 0.959 . S
C301 H287 0.961 . S
C301 C300 1.502 . S
C302 H288 0.960 . S
C302 H289 0.961 . S
C302 H290 0.959 . S
C302 C300 1.561 . S
C303 C300 1.526 . S
C303 C304 1.396 . S
C303 C308 1.390 . S
C304 C298 1.465 . S
C304 C303 1.396 . S
C304 C305 1.399 . S
C305 H291 0.929 . S
C305 C304 1.399 . S
C305 C306 1.385 . S
C306 H292 0.931 . S
C306 C305 1.385 . S
C306 C307 1.389 . S
C307 C306 1.389 . S
C307 C308 1.387 . S
C308 H293 0.930 . S
C308 C303 1.390 . S
C308 C307 1.387 . S
H309 C321 0.930 . S
H310 C323 0.930 . S
H311 C324 0.930 . S
H312 C328 0.959 . S
H313 C328 0.959 . S
H314 C328 0.961 . S
H315 C329 0.960 . S
H316 C329 0.961 . S
H317 C329 0.959 . S
H318 C332 0.929 . S
H319 C333 0.931 . S
H320 C335 0.930 . S
C321 H309 0.930 . S
C321 C322 1.399 . S
C321 C326 1.399 . S
C322 C321 1.399 . S
C322 C323 1.376 1_455 S
C323 H310 0.930 . S
C323 C322 1.376 1_655 S
C323 C324 1.388 . S
C324 H311 0.930 . S
C324 C323 1.388 . S
C324 C325 1.390 1_655 S
C325 C324 1.390 1_455 S
C325 C326 1.394 . S
C325 C331 1.465 . S
C326 C321 1.399 . S
C326 C325 1.394 . S
C326 C327 1.516 . S
C327 C326 1.516 . S
C327 C328 1.502 . S
C327 C329 1.561 . S
C327 C330 1.526 . S
C328 H312 0.959 . S
C328 H313 0.959 . S
C328 H314 0.961 . S
C328 C327 1.502 . S
C329 H315 0.960 . S
C329 H316 0.961 . S
C329 H317 0.959 . S
C329 C327 1.561 . S
C330 C327 1.526 . S
C330 C331 1.396 . S
C330 C335 1.390 . S
C331 C325 1.465 . S
C331 C330 1.396 . S
C331 C332 1.399 1_455 S
C332 H318 0.929 . S
C332 C331 1.399 1_655 S
C332 C333 1.385 . S
C333 H319 0.931 . S
C333 C332 1.385 . S
C333 C334 1.389 1_655 S
C334 C333 1.389 1_455 S
C334 C335 1.387 . S
C335 H320 0.930 . S
C335 C330 1.390 . S
C335 C334 1.387 . S
H336 C348 0.930 . S
H337 C350 0.930 . S
H338 C351 0.930 . S
H339 C355 0.959 . S
H340 C355 0.959 . S
H341 C355 0.961 . S
H342 C356 0.960 . S
H343 C356 0.961 . S
H344 C356 0.959 . S
H345 C359 0.929 . S
H346 C360 0.931 . S
H347 C362 0.930 . S
C348 H336 0.930 . S
C348 C349 1.399 . S
C348 C353 1.399 . S
C349 C348 1.399 . S
C349 C350 1.376 1_545 S
C350 H337 0.930 . S
C350 C349 1.376 1_565 S
C350 C351 1.388 . S
C351 H338 0.930 . S
C351 C350 1.388 . S
C351 C352 1.390 1_565 S
C352 C351 1.390 1_545 S
C352 C353 1.394 . S
C352 C358 1.474 . S
C353 C348 1.399 . S
C353 C352 1.394 . S
C353 C354 1.516 . S
C354 C353 1.516 . S
C354 C355 1.502 . S
C354 C356 1.561 . S
C354 C357 1.526 . S
C355 H339 0.959 . S
C355 H340 0.959 . S
C355 H341 0.961 . S
C355 C354 1.502 . S
C356 H342 0.960 . S
C356 H343 0.961 . S
C356 H344 0.959 . S
C356 C354 1.561 . S
C357 C354 1.526 . S
C357 C358 1.407 . S
C357 C362 1.390 . S
C358 C352 1.474 . S
C358 C357 1.407 . S
C358 C359 1.382 1_545 S
C359 H345 0.929 . S
C359 C358 1.382 1_565 S
C359 C360 1.385 . S
C360 H346 0.931 . S
C360 C359 1.385 . S
C360 C361 1.389 1_565 S
C361 C360 1.389 1_545 S
C361 C362 1.387 . S
C362 H347 0.930 . S
C362 C357 1.390 . S
C362 C361 1.387 . S
H363 C375 0.930 . S
H364 C377 0.930 . S
H365 C378 0.930 . S
H366 C382 0.959 . S
H367 C382 0.959 . S
H368 C382 0.961 . S
H369 C383 0.960 . S
H370 C383 0.961 . S
H371 C383 0.959 . S
H372 C386 0.929 . S
H373 C387 0.931 . S
H374 C389 0.930 . S
C375 H363 0.930 . S
C375 C376 1.399 . S
C375 C380 1.399 . S
C376 C375 1.399 . S
C376 C377 1.376 . S
C377 H364 0.930 . S
C377 C376 1.376 . S
C377 C378 1.388 . S
C378 H365 0.930 . S
C378 C377 1.388 . S
C378 C379 1.390 . S
C379 C378 1.390 . S
C379 C380 1.394 . S
C379 C385 1.465 . S
C380 C375 1.399 . S
C380 C379 1.394 . S
C380 C381 1.516 . S
C381 C380 1.516 . S
C381 C382 1.502 . S
C381 C383 1.561 . S
C381 C384 1.526 . S
C382 H366 0.959 . S
C382 H367 0.959 . S
C382 H368 0.961 . S
C382 C381 1.502 . S
C383 H369 0.960 . S
C383 H370 0.961 . S
C383 H371 0.959 . S
C383 C381 1.561 . S
C384 C381 1.526 . S
C384 C385 1.396 . S
C384 C389 1.390 . S
C385 C379 1.465 . S
C385 C384 1.396 . S
C385 C386 1.399 . S
C386 H372 0.929 . S
C386 C385 1.399 . S
C386 C387 1.385 . S
C387 H373 0.931 . S
C387 C386 1.385 . S
C387 C388 1.389 . S
C388 C387 1.389 . S
C388 C389 1.387 . S
C389 H374 0.930 . S
C389 C384 1.390 . S
C389 C388 1.387 . S
H390 C402 0.930 . S
H391 C404 0.930 . S
H392 C405 0.930 . S
H393 C409 0.959 . S
H394 C409 0.959 . S
H395 C409 0.961 . S
H396 C410 0.960 . S
H397 C410 0.961 . S
H398 C410 0.959 . S
H399 C413 0.929 . S
H400 C414 0.931 . S
H401 C416 0.930 . S
C402 H390 0.930 . S
C402 C403 1.399 1_565 S
C402 C407 1.399 1_565 S
C403 C402 1.399 1_545 S
C403 C404 1.376 . S
C404 H391 0.930 . S
C404 C403 1.376 . S
C404 C405 1.388 . S
C405 H392 0.930 . S
C405 C404 1.388 . S
C405 C406 1.390 . S
C406 C405 1.390 . S
C406 C407 1.394 . S
C406 C412 1.465 . S
C407 C402 1.399 1_545 S
C407 C406 1.394 . S
C407 C408 1.516 1_545 S
C408 C407 1.516 1_565 S
C408 C409 1.502 . S
C408 C410 1.561 . S
C408 C411 1.526 1_565 S
C409 H393 0.959 . S
C409 H394 0.959 . S
C409 H395 0.961 . S
C409 C408 1.502 . S
C410 H396 0.960 . S
C410 H397 0.961 . S
C410 H398 0.959 . S
C410 C408 1.561 . S
C411 C408 1.526 1_545 S
C411 C412 1.396 . S
C411 C416 1.390 1_545 S
C412 C406 1.465 . S
C412 C411 1.396 . S
C412 C413 1.399 . S
C413 H399 0.929 . S
C413 C412 1.399 . S
C413 C414 1.385 . S
C414 H400 0.931 . S
C414 C413 1.385 . S
C414 C415 1.389 . S
C415 C414 1.389 . S
C415 C416 1.387 1_545 S
C416 H401 0.930 . S
C416 C411 1.390 1_565 S
C416 C415 1.387 1_565 S
H417 C429 0.930 . S
H418 C431 0.930 . S
H419 C432 0.930 . S
H420 C436 0.959 1_556 S
H421 C436 0.959 . S
H422 C436 0.961 . S
H423 C437 0.960 . S
H424 C437 0.961 . S
H425 C437 0.959 . S
H426 C440 0.929 . S
H427 C441 0.931 . S
H428 C443 0.930 . S
C429 H417 0.930 . S
C429 C430 1.399 . S
C429 C434 1.399 1_554 S
C430 C429 1.399 . S
C430 C431 1.376 1_554 S
C431 H418 0.930 . S
C431 C430 1.376 1_556 S
C431 C432 1.388 . S
C432 H419 0.930 . S
C432 C431 1.388 . S
C432 C433 1.390 . S
C433 C432 1.390 . S
C433 C434 1.394 . S
C433 C439 1.465 . S
C434 C429 1.399 1_556 S
C434 C433 1.394 . S
C434 C435 1.516 . S
C435 C434 1.516 . S
C435 C436 1.502 1_556 S
C435 C437 1.561 1_556 S
C435 C438 1.526 . S
C436 H420 0.959 1_554 S
C436 H421 0.959 . S
C436 H422 0.961 . S
C436 C435 1.502 1_554 S
C437 H423 0.960 . S
C437 H424 0.961 . S
C437 H425 0.959 . S
C437 C435 1.561 1_554 S
C438 C435 1.526 . S
C438 C439 1.396 . S
C438 C443 1.390 . S
C439 C433 1.465 . S
C439 C438 1.396 . S
C439 C440 1.399 . S
C440 H426 0.929 . S
C440 C439 1.399 . S
C440 C441 1.385 . S
C441 H427 0.931 . S
C441 C440 1.385 . S
C441 C442 1.389 . S
C442 C441 1.389 . S
C442 C443 1.387 . S
C443 H428 0.930 . S
C443 C438 1.390 . S
C443 C442 1.387 . S
H444 C456 0.930 . S
H445 C458 0.930 . S
H446 C459 0.930 . S
H447 C463 0.959 . S
H448 C463 0.959 . S
H449 C463 0.961 . S
H450 C464 0.960 . S
H451 C464 0.961 . S
H452 C464 0.959 . S
H453 C467 0.929 . S
H454 C468 0.931 . S
H455 C470 0.930 . S
C456 H444 0.930 . S
C456 C457 1.399 . S
C456 C461 1.399 . S
C457 C456 1.399 . S
C457 C458 1.376 . S
C458 H445 0.930 . S
C458 C457 1.376 . S
C458 C459 1.388 . S
C459 H446 0.930 . S
C459 C458 1.388 . S
C459 C460 1.390 . S
C460 C459 1.390 . S
C460 C461 1.394 . S
C460 C466 1.465 . S
C461 C456 1.399 . S
C461 C460 1.394 . S
C461 C462 1.516 . S
C462 C461 1.516 . S
C462 C463 1.502 1_455 S
C462 C464 1.561 . S
C462 C465 1.526 . S
C463 H447 0.959 . S
C463 H448 0.959 . S
C463 H449 0.961 . S
C463 C462 1.502 1_655 S
C464 H450 0.960 . S
C464 H451 0.961 . S
C464 H452 0.959 . S
C464 C462 1.561 . S
C465 C462 1.526 . S
C465 C466 1.396 . S
C465 C470 1.390 . S
C466 C460 1.465 . S
C466 C465 1.396 . S
C466 C467 1.399 . S
C467 H453 0.929 . S
C467 C466 1.399 . S
C467 C468 1.385 . S
C468 H454 0.931 . S
C468 C467 1.385 . S
C468 C469 1.389 . S
C469 C468 1.389 . S
C469 C470 1.387 . S
C470 H455 0.930 . S
C470 C465 1.390 . S
C470 C469 1.387 . S
H471 C483 0.930 . S
H472 C485 0.930 . S
H473 C486 0.930 . S
H474 C490 0.959 . S
H475 C490 0.959 . S
H476 C490 0.961 . S
H477 C491 0.960 . S
H478 C491 0.961 . S
H479 C491 0.959 . S
H480 C494 0.929 . S
H481 C495 0.931 . S
H482 C497 0.930 . S
C483 H471 0.930 . S
C483 C484 1.399 1_565 S
C483 C488 1.399 . S
C484 C483 1.399 1_545 S
C484 C485 1.376 . S
C485 H472 0.930 . S
C485 C484 1.376 . S
C485 C486 1.388 . S
C486 H473 0.930 . S
C486 C485 1.388 . S
C486 C487 1.390 . S
C487 C486 1.390 . S
C487 C488 1.394 1_545 S
C487 C493 1.465 . S
C488 C483 1.399 . S
C488 C487 1.394 1_565 S
C488 C489 1.516 . S
C489 C488 1.516 . S
C489 C490 1.502 . S
C489 C491 1.561 . S
C489 C492 1.528 . S
C490 H474 0.959 . S
C490 H475 0.959 . S
C490 H476 0.961 . S
C490 C489 1.502 . S
C491 H477 0.960 . S
C491 H478 0.961 . S
C491 H479 0.959 . S
C491 C489 1.561 . S
C492 C489 1.528 . S
C492 C493 1.387 1_565 S
C492 C497 1.395 . S
C493 C487 1.465 . S
C493 C492 1.387 1_545 S
C493 C494 1.399 . S
C494 H480 0.929 . S
C494 C493 1.399 . S
C494 C495 1.385 . S
C495 H481 0.931 . S
C495 C494 1.385 . S
C495 C496 1.389 . S
C496 C495 1.389 . S
C496 C497 1.387 1_545 S
C497 H482 0.930 . S
C497 C492 1.395 . S
C497 C496 1.387 1_565 S
H498 C510 0.930 . S
H499 C512 0.930 . S
H500 C513 0.930 . S
H501 C517 0.959 . S
H502 C517 0.959 . S
H503 C517 0.961 . S
H504 C518 0.960 . S
H505 C518 0.961 . S
H506 C518 0.959 . S
H507 C521 0.943 . S
H508 C522 0.931 . S
H509 C524 0.930 . S
C510 H498 0.930 . S
C510 C511 1.399 1_556 S
C510 C515 1.399 . S
C511 C510 1.399 1_554 S
C511 C512 1.376 . S
C512 H499 0.930 . S
C512 C511 1.376 . S
C512 C513 1.388 . S
C513 H500 0.930 . S
C513 C512 1.388 . S
C513 C514 1.390 1_554 S
C514 C513 1.390 1_556 S
C514 C515 1.394 . S
C514 C520 1.465 . S
C515 C510 1.399 . S
C515 C514 1.394 . S
C515 C516 1.516 . S
C516 C515 1.516 . S
C516 C517 1.502 . S
C516 C518 1.561 . S
C516 C519 1.526 . S
C517 H501 0.959 . S
C517 H502 0.959 . S
C517 H503 0.961 . S
C517 C516 1.502 . S
C518 H504 0.960 . S
C518 H505 0.961 . S
C518 H506 0.959 . S
C518 C516 1.561 . S
C519 C516 1.526 . S
C519 C520 1.396 . S
C519 C524 1.390 . S
C520 C514 1.465 . S
C520 C519 1.396 . S
C520 C521 1.399 . S
C521 H507 0.943 . S
C521 C520 1.399 . S
C521 C522 1.385 . S
C522 H508 0.931 . S
C522 C521 1.385 . S
C522 C523 1.389 . S
C523 C522 1.389 . S
C523 C524 1.387 . S
C524 H509 0.930 . S
C524 C519 1.390 . S
C524 C523 1.387 . S
H525 C537 0.937 . S
H526 C539 0.930 . S
H527 C540 0.930 . S
H528 C544 0.959 1_455 S
H529 C544 0.959 . S
H530 C544 0.961 . S
H531 C545 0.960 . S
H532 C545 0.961 . S
H533 C545 0.959 . S
H534 C548 0.929 . S
H535 C549 0.931 . S
H536 C551 0.930 1_655 S
C537 H525 0.937 . S
C537 C538 1.384 1_655 S
C537 C542 1.407 1_655 S
C538 C537 1.384 1_455 S
C538 C539 1.376 . S
C539 H526 0.930 . S
C539 C538 1.376 . S
C539 C540 1.388 . S
C540 H527 0.930 . S
C540 C539 1.388 . S
C540 C541 1.390 . S
C541 C540 1.390 . S
C541 C542 1.394 . S
C541 C547 1.465 . S
C542 C537 1.407 1_455 S
C542 C541 1.394 . S
C542 C543 1.516 1_455 S
C543 C542 1.516 1_655 S
C543 C544 1.502 . S
C543 C545 1.561 . S
C543 C546 1.526 1_655 S
C544 H528 0.959 1_655 S
C544 H529 0.959 . S
C544 H530 0.961 . S
C544 C543 1.502 . S
C545 H531 0.960 . S
C545 H532 0.961 . S
C545 H533 0.959 . S
C545 C543 1.561 . S
C546 C543 1.526 1_455 S
C546 C547 1.396 . S
C546 C551 1.390 . S
C547 C541 1.465 . S
C547 C546 1.396 . S
C547 C548 1.399 . S
C548 H534 0.929 . S
C548 C547 1.399 . S
C548 C549 1.385 . S
C549 H535 0.931 . S
C549 C548 1.385 . S
C549 C550 1.389 . S
C550 C549 1.389 . S
C550 C551 1.387 . S
C551 H536 0.930 1_455 S
C551 C546 1.390 . S
C551 C550 1.387 . S
C253 C95 1.349 . S
C241 C0 1.347 . S
C268 C25 1.401 . S
C280 C139 1.378 . S
C295 C33 1.438 . S
C307 C201 1.415 . S
C322 C11 1.363 . S
C334 C77 1.347 . S
C361 C157 1.377 . S
C349 C14 1.387 . S
C376 C37 1.445 . S
C388 C219 1.421 . S
C415 C133 1.597 . S
C403 C28 1.672 . S
C430 C9 1.744 . S
C442 C195 1.604 . S
C469 C71 1.700 . S
C457 C19 1.756 . S
C496 C151 1.586 . S
C484 C39 1.712 . S
C523 C213 1.671 . S
C511 C5 1.716 . S
C538 C23 1.761 . S
C550 C89 1.710 . S
