# Generated by pormake.
# Topology zzz, (3,6)-cn, num edge types: 1
# Building blocks:
#     Node 0, Type 0, BuildingBlock: QEWDON_clean_linker_0, # of connection points: 3
#     Node 1, Type 0, BuildingBlock: QEWDON_clean_linker_0, # of connection points: 3
#     Node 2, Type 0, BuildingBlock: QEWDON_clean_linker_0, # of connection points: 3
#     Node 3, Type 0, BuildingBlock: QEWDON_clean_linker_0, # of connection points: 3
#     Node 4, Type 0, BuildingBlock: QEWDON_clean_linker_0, # of connection points: 3
#     Node 5, Type 0, BuildingBlock: QEWDON_clean_linker_0, # of connection points: 3
#     Node 6, Type 0, BuildingBlock: QEWDON_clean_linker_0, # of connection points: 3
#     Node 7, Type 0, BuildingBlock: QEWDON_clean_linker_0, # of connection points: 3
#     Node 8, Type 1, BuildingBlock: KUMBUR_clean_sbu_0, # of connection points: 6
#     Node 9, Type 1, BuildingBlock: KUMBUR_clean_sbu_0, # of connection points: 6
#     Node 10, Type 1, BuildingBlock: KUMBUR_clean_sbu_0, # of connection points: 6
#     Node 11, Type 1, BuildingBlock: KUMBUR_clean_sbu_0, # of connection points: 6
#     Edge 12, Type (0, 1), BuildingBlock: ZUJKAS_clean_linker_0, # of connection points: 2
#     Edge 13, Type (0, 1), BuildingBlock: ZUJKAS_clean_linker_0, # of connection points: 2
#     Edge 14, Type (0, 1), BuildingBlock: ZUJKAS_clean_linker_0, # of connection points: 2
#     Edge 15, Type (0, 1), BuildingBlock: ZUJKAS_clean_linker_0, # of connection points: 2
#     Edge 16, Type (0, 1), BuildingBlock: ZUJKAS_clean_linker_0, # of connection points: 2
#     Edge 17, Type (0, 1), BuildingBlock: ZUJKAS_clean_linker_0, # of connection points: 2
#     Edge 18, Type (0, 1), BuildingBlock: ZUJKAS_clean_linker_0, # of connection points: 2
#     Edge 19, Type (0, 1), BuildingBlock: ZUJKAS_clean_linker_0, # of connection points: 2
#     Edge 20, Type (0, 1), BuildingBlock: ZUJKAS_clean_linker_0, # of connection points: 2
#     Edge 21, Type (0, 1), BuildingBlock: ZUJKAS_clean_linker_0, # of connection points: 2
#     Edge 22, Type (0, 1), BuildingBlock: ZUJKAS_clean_linker_0, # of connection points: 2
#     Edge 23, Type (0, 1), BuildingBlock: ZUJKAS_clean_linker_0, # of connection points: 2
#     Edge 24, Type (0, 1), BuildingBlock: ZUJKAS_clean_linker_0, # of connection points: 2
#     Edge 25, Type (0, 1), BuildingBlock: ZUJKAS_clean_linker_0, # of connection points: 2
#     Edge 26, Type (0, 1), BuildingBlock: ZUJKAS_clean_linker_0, # of connection points: 2
#     Edge 27, Type (0, 1), BuildingBlock: ZUJKAS_clean_linker_0, # of connection points: 2
#     Edge 28, Type (0, 1), BuildingBlock: ZUJKAS_clean_linker_0, # of connection points: 2
#     Edge 29, Type (0, 1), BuildingBlock: ZUJKAS_clean_linker_0, # of connection points: 2
#     Edge 30, Type (0, 1), BuildingBlock: ZUJKAS_clean_linker_0, # of connection points: 2
#     Edge 31, Type (0, 1), BuildingBlock: ZUJKAS_clean_linker_0, # of connection points: 2
#     Edge 32, Type (0, 1), BuildingBlock: ZUJKAS_clean_linker_0, # of connection points: 2
#     Edge 33, Type (0, 1), BuildingBlock: ZUJKAS_clean_linker_0, # of connection points: 2
#     Edge 34, Type (0, 1), BuildingBlock: ZUJKAS_clean_linker_0, # of connection points: 2
#     Edge 35, Type (0, 1), BuildingBlock: ZUJKAS_clean_linker_0, # of connection points: 2
# Relax obj value: 0.092
# Max RMSD: 0.140
# Mean RMSD: 0.071
data_MOF--net-zzz--node1-KUMBUR_clean_sbu_0--node2-QEWDON_clean_linker_0--edge1-ZUJKAS_clean_linker_0
_symmetry_space_group_name_H-M    P1
_symmetry_Int_Tables_number       1
_symmetry_cell_setting            triclinic
loop_
_symmetry_equiv_pos_as_xyz
'x, y, z'
_cell_length_a     70.163811
_cell_length_b     70.050029
_cell_length_c     18.424775
_cell_angle_alpha  90.698598
_cell_angle_beta   90.039174
_cell_angle_gamma 89.966786
loop_
_atom_site_label
_atom_site_type_symbol
_atom_site_fract_x
_atom_site_fract_y
_atom_site_fract_z
_atom_type_partial_charge
H0 H 0.7623 0.5367 0.02366 0.0
C1 C 0.77242 0.53448 0.06701 0.0
C2 C 0.7918 0.53362 0.0493 0.0
C3 C 0.76622 0.53273 0.13942 0.0
H4 H 0.82033 0.53256 0.09047 0.0
C5 C 0.80537 0.53191 0.10469 0.0
C6 C 0.80012 0.52984 0.17761 0.0
C7 C 0.78038 0.53019 0.19461 0.0
C8 C 0.74513 0.53429 0.15662 0.0
H9 H 0.77621 0.52815 0.25045 0.0
C10 C 0.73058 0.53011 0.10419 0.0
C11 C 0.71097 0.53259 0.12082 0.0
C12 C 0.73931 0.54095 0.22555 0.0
H13 H 0.74957 0.54504 0.26665 0.0
C14 C 0.72005 0.5431 0.2424 0.0
H15 H 0.73427 0.52462 0.05091 0.0
C16 C 0.70606 0.53901 0.19087 0.0
H17 H 0.69127 0.54129 0.20555 0.0
H18 H 0.71594 0.54831 0.2957 0.0
H19 H 0.98509 0.76767 0.05997 0.0
C20 C 0.98902 0.77817 0.10079 0.0
C21 C 0.98181 0.7967 0.09388 0.0
C22 C 1.00077 0.77322 0.1597 0.0
H23 H 0.98041 0.82497 0.14021 0.0
C24 C 0.98582 0.81059 0.14701 0.0
C25 C 0.9977 0.80667 0.20603 0.0
C26 C 1.00549 0.78799 0.21147 0.0
C27 C 1.00706 0.75257 0.16822 0.0
H28 H 0.015 0.78511 0.25623 0.0
C29 C 1.00818 0.7392 0.10858 0.0
C30 C 0.01291 0.71965 0.11958 0.0
C31 C 0.01087 0.74568 0.2382 0.0
H32 H 1.0096 0.75479 0.28572 0.0
C33 C 0.01569 0.72663 0.24907 0.0
H34 H 1.00573 0.74385 0.05363 0.0
C35 C 0.01664 0.71379 0.1909 0.0
H36 H 0.01994 0.69902 0.20229 0.0
H37 H 0.0184 0.72167 0.30354 0.0
H38 H 0.76679 0.99342 0.05671 0.0
C39 C 0.75653 0.9972 0.09834 0.0
C40 C 0.7375 0.99957 0.07799 0.0
C41 C 0.76227 0.9996 0.1711 0.0
H42 H 0.70893 1.0052 0.11396 0.0
C43 C 0.7237 1.0038 0.13056 0.0
C44 C 0.72849 1.00559 0.20417 0.0
C45 C 0.7479 1.00354 0.22434 0.0
C46 C 0.78308 0.99722 0.19022 0.0
H47 H 0.75171 1.00544 0.28089 0.0
C48 C 0.79798 1.0012 0.13971 0.0
C49 C 0.81739 0.99766 0.1567 0.0
C50 C 0.78822 0.98995 0.25828 0.0
H51 H 0.77751 0.9862 0.29785 0.0
C52 C 0.80728 0.98669 0.27571 0.0
H53 H 0.79461 1.00727 0.08754 0.0
C54 C 0.82167 0.99037 0.22564 0.0
H55 H 0.83621 0.98706 0.24068 0.0
H56 H 0.81091 0.98091 0.32815 0.0
H57 H 0.54153 0.7727 0.05491 0.0
C58 C 0.53896 0.76273 0.09808 0.0
C59 C 0.53788 0.74328 0.0801 0.0
C60 C 0.53663 0.76914 0.17052 0.0
H61 H 0.53644 0.71487 0.12112 0.0
C62 C 0.5358 0.72991 0.13543 0.0
C63 C 0.53279 0.73547 0.20789 0.0
C64 C 0.53309 0.75522 0.22491 0.0
C65 C 0.53831 0.79018 0.18909 0.0
H66 H 0.53016 0.75964 0.28021 0.0
C67 C 0.53509 0.80472 0.13689 0.0
C68 C 0.53817 0.82426 0.15409 0.0
C69 C 0.54417 0.7959 0.25921 0.0
H70 H 0.54752 0.78559 0.30047 0.0
C71 C 0.54636 0.81514 0.2773 0.0
H72 H 0.5305 0.80101 0.08255 0.0
C73 C 0.54342 0.82917 0.22558 0.0
H74 H 0.54533 0.84395 0.24182 0.0
H75 H 0.55071 0.81921 0.33171 0.0
H76 H 0.26829 0.49784 0.19674 0.0
C77 C 0.2584 0.50016 0.15277 0.0
C78 C 0.23892 0.50093 0.16913 0.0
C79 C 0.26498 0.50234 0.08098 0.0
H80 H 0.21063 0.50191 0.12576 0.0
C81 C 0.22566 0.50276 0.11273 0.0
C82 C 0.23128 0.50568 0.04066 0.0
C83 C 0.2511 0.5055 0.02521 0.0
C84 C 0.28612 0.50054 0.06478 0.0
H85 H 0.25557 0.50817 0.97014 0.0
C86 C 0.30057 0.50368 0.11867 0.0
C87 C 0.32011 0.50003 0.10364 0.0
C88 C 0.29204 0.49437 0.99533 0.0
H89 H 0.28187 0.49112 0.95288 0.0
C90 C 0.31127 0.49161 0.97949 0.0
H91 H 0.2968 0.50861 0.17258 0.0
C92 C 0.32511 0.49433 0.03277 0.0
H93 H 0.33988 0.49191 0.01822 0.0
H94 H 0.31546 0.48695 0.92556 0.0
H95 H 0.04576 0.27354 0.16087 0.0
C96 C 0.04226 0.26334 0.11857 0.0
C97 C 0.04899 0.24465 0.12669 0.0
C98 C 0.03152 0.26866 0.05724 0.0
H99 H 0.05087 0.21648 0.07929 0.0
C100 C 0.04574 0.23096 0.0721 0.0
C101 C 0.03493 0.23521 0.01064 0.0
C102 C 0.02744 0.25397 0.00413 0.0
C103 C 0.02535 0.28946 0.04837 0.0
H104 H 0.0186 0.25681 0.95752 0.0
C105 C 0.02567 0.30337 0.10663 0.0
C106 C 0.02142 0.32299 0.09457 0.0
C107 C 0.02002 0.29598 0.97914 0.0
H108 H 0.02006 0.28668 0.93201 0.0
C109 C 0.01496 0.31494 0.96799 0.0
H110 H 0.02947 0.29934 0.16107 0.0
C111 C 0.01565 0.32825 0.02457 0.0
H112 H 0.01166 0.34284 0.01312 0.0
H113 H 0.01076 0.31947 0.91431 0.0
H114 H 0.2675 0.04499 0.15661 0.0
C115 C 0.27732 0.04281 0.11213 0.0
C116 C 0.29683 0.04459 0.12701 0.0
C117 C 0.2707 0.0388 0.04116 0.0
H118 H 0.32523 0.04425 0.08283 0.0
C119 C 0.31015 0.04288 0.07079 0.0
C120 C 0.30438 0.03861 0.99986 0.0
C121 C 0.28472 0.0362 0.98536 0.0
C122 C 0.24942 0.03824 0.02546 0.0
H123 H 0.28062 0.03231 0.9306 0.0
C124 C 0.23533 0.03566 0.08083 0.0
C125 C 0.21552 0.0369 0.06518 0.0
C126 C 0.24286 0.04148 0.95429 0.0
H127 H 0.25257 0.0443 0.91025 0.0
C128 C 0.22348 0.04176 0.93819 0.0
H129 H 0.2395 0.03302 0.13623 0.0
C130 C 0.20998 0.03953 0.99267 0.0
H131 H 0.19505 0.03995 0.97773 0.0
H132 H 0.21885 0.04411 0.88294 0.0
H133 H 0.47915 0.26277 0.14488 0.0
C134 C 0.48258 0.27338 0.10482 0.0
C135 C 0.48139 0.29259 0.1257 0.0
C136 C 0.48758 0.26802 0.03333 0.0
H137 H 0.48345 0.32163 0.09151 0.0
C138 C 0.48472 0.30682 0.07455 0.0
C139 C 0.49015 0.30231 1.00305 0.0
C140 C 0.49157 0.28278 0.98277 0.0
C141 C 0.48789 0.24712 0.01193 0.0
H142 H 0.49619 0.27923 0.92828 0.0
C143 C 0.49076 0.23244 0.06382 0.0
C144 C 0.48888 0.21291 0.04447 0.0
C145 C 0.48402 0.24157 0.93969 0.0
H146 H 0.48121 0.25201 0.89829 0.0
C147 C 0.48303 0.22233 0.91973 0.0
H148 H 0.49403 0.23603 0.11967 0.0
C149 C 0.48529 0.20815 0.97143 0.0
H150 H 0.48419 0.19336 0.95408 0.0
H151 H 0.48007 0.21837 0.86387 0.0
Tb152 Tb 0.03324 0.01209 0.70186 0.0
C153 C 0.96955 1.00317 0.48437 0.0
C154 C 0.9813 0.97942 0.39909 0.0
C155 C 0.94734 0.98178 0.42272 0.0
C156 C 0.98473 0.99438 0.44964 0.0
C157 C 0.95066 0.9974 0.4694 0.0
C158 C 0.96265 0.97278 0.38774 0.0
C159 C 0.93957 0.02431 0.54085 0.0
N160 N 0.9732 0.01831 0.52868 0.0
C161 C 0.9585 0.02944 0.55438 0.0
C162 C 0.93562 1.00798 0.49943 0.0
Tb163 Tb 1.00473 0.02476 0.55116 0.0
N164 N 1.00261 1.00133 0.46145 0.0
C165 C 0.01729 0.99501 0.41797 0.0
C166 C 0.9966 0.97201 0.35935 0.0
C167 C 0.01456 0.98012 0.36778 0.0
H168 H 0.96136 0.04203 0.58691 0.0
H169 H 0.02641 0.97486 0.3357 0.0
H170 H 0.95984 0.96113 0.34997 0.0
H171 H 0.92805 0.03288 0.56278 0.0
H172 H 0.03149 1.00064 0.42163 0.0
H173 H 1.00835 0.06134 0.9144 0.0
H174 H 0.99457 0.96049 0.32035 0.0
H175 H 0.07735 0.99629 0.67551 0.0
H176 H 1.0047 0.0365 0.82431 0.0
H177 H 0.11021 1.00725 0.69914 0.0
H178 H 0.93296 0.97697 0.41139 0.0
H179 H 0.03966 0.07613 0.93651 0.0
H180 H 0.07437 0.07784 0.90686 0.0
H181 H 0.92094 1.00403 0.48902 0.0
H182 H 0.10219 0.06354 0.84614 0.0
N183 N 0.03398 0.03625 0.78968 0.0
C184 C 0.01874 0.04215 0.83113 0.0
C185 C 0.03825 0.06514 0.895 0.0
C186 C 0.05397 0.05881 0.85515 0.0
C187 C 0.02061 0.05668 0.88323 0.0
C188 C 0.05144 0.04397 0.80329 0.0
H189 H 0.11575 0.037 0.76968 0.0
N190 N 0.06431 0.02031 0.72699 0.0
C191 C 0.09824 0.01558 0.71881 0.0
C192 C 0.06711 0.03586 0.76999 0.0
C193 C 0.07961 1.00945 0.70529 0.0
C194 C 0.1013 0.03239 0.75836 0.0
C195 C 0.08567 0.04243 0.78649 0.0
O196 O 0.04773 0.99577 0.78017 0.0
O197 O 0.01733 1.00119 0.60888 0.0
O198 O 0.98545 0.01193 0.63174 0.0
O199 O 1.00325 0.01388 0.73798 0.0
O200 O 0.04341 0.98934 0.62822 0.0
O201 O 0.01892 0.98939 0.7521 0.0
O202 O 0.99035 0.04172 0.47479 0.0
O203 O 0.02086 0.03577 0.6437 0.0
O204 O 0.05305 0.02137 0.61548 0.0
O205 O 0.0342 0.02238 0.51121 0.0
O206 O 0.99445 0.0469 0.62698 0.0
O207 O 0.01937 0.04747 0.50288 0.0
C208 C 0.02861 0.98811 0.58717 0.0
C209 C 0.03933 0.96317 0.76431 0.0
C210 C 0.02868 0.93069 0.73639 0.0
C211 C 0.02504 0.94915 0.76398 0.0
C212 C 0.04692 0.92646 0.70884 0.0
C213 C 0.05766 0.95835 0.73927 0.0
C214 C 0.06134 0.94015 0.71119 0.0
C215 C 0.98684 0.01126 0.70337 0.0
C216 C 0.03427 0.98313 0.78279 0.0
C217 C 0.08808 0.05814 0.83356 0.0
C218 C 0.07225 0.06626 0.86815 0.0
C219 C 1.00946 0.04859 0.66645 0.0
C220 C 0.99922 0.0742 0.49047 0.0
C221 C 0.01373 0.08725 0.50883 0.0
C222 C 1.00967 0.10672 0.52176 0.0
C223 C 0.9904 0.11254 0.52058 0.0
C224 C 0.98022 0.08048 0.48956 0.0
C225 C 0.97588 0.09947 0.50561 0.0
C226 C 0.051 0.02303 0.54419 0.0
C227 C 1.00406 0.05411 0.47287 0.0
H228 H 0.01107 0.95274 0.78516 0.0
H229 H 0.05011 0.91256 0.68553 0.0
H230 H 0.06906 0.96872 0.73954 0.0
H231 H 0.07537 0.93669 0.69051 0.0
H232 H 0.02824 0.08213 0.51186 0.0
H233 H 0.98636 0.12732 0.52805 0.0
H234 H 0.96871 0.07075 0.4763 0.0
H235 H 0.9612 0.10422 0.50436 0.0
Tb236 Tb 0.52393 0.03429 0.67413 0.0
C237 C 0.54447 0.99443 0.4292 0.0
C238 C 0.54513 0.01621 0.3282 0.0
C239 C 0.5704 0.99292 0.34103 0.0
C240 C 0.53656 1.00955 0.39266 0.0
C241 C 0.56125 0.98559 0.40235 0.0
C242 C 0.56239 1.00826 0.30415 0.0
C243 C 0.55844 0.96235 0.49648 0.0
N244 N 0.53556 0.98808 0.48985 0.0
C245 C 0.54193 0.97152 0.52113 0.0
C246 C 0.56833 0.96957 0.4376 0.0
Tb247 Tb 0.5087 1.0051 0.52703 0.0
N248 N 0.51977 0.0168 0.41708 0.0
C249 C 0.50939 0.02823 0.37146 0.0
C250 C 0.53566 0.03003 0.28781 0.0
C251 C 0.51743 0.03564 0.30847 0.0
H252 H 0.53441 0.96456 0.56399 0.0
H253 H 0.50934 0.04533 0.27502 0.0
H254 H 0.56928 0.01342 0.25558 0.0
H255 H 0.56339 0.94951 0.52263 0.0
H256 H 0.4947 0.03175 0.38246 0.0
H257 H 0.48059 1.00414 0.8919 0.0
H258 H 0.54178 0.03554 0.23831 0.0
H259 H 0.53436 0.08016 0.64552 0.0
H260 H 0.50411 1.00301 0.79759 0.0
H261 H 0.52098 0.11171 0.67623 0.0
H262 H 0.58347 0.98655 0.32078 0.0
H263 H 0.46413 0.03417 0.92268 0.0
H264 H 0.46011 0.06906 0.90229 0.0
H265 H 0.58115 0.96244 0.41878 0.0
H266 H 0.47032 0.09819 0.84104 0.0
N267 N 0.50148 0.03252 0.76699 0.0
C268 C 0.49742 0.01653 0.80686 0.0
C269 C 0.47446 0.0339 0.879 0.0
C270 C 0.47904 0.0504 0.84125 0.0
C271 C 0.4838 0.01696 0.86205 0.0
C272 C 0.49286 0.04933 0.78541 0.0
H273 H 0.49303 0.11425 0.75728 0.0
N274 N 0.51321 0.06459 0.70323 0.0
C275 C 0.51441 0.09894 0.69723 0.0
C276 C 0.49872 0.06582 0.75164 0.0
C277 C 0.52187 0.08099 0.67969 0.0
C278 C 0.49863 0.1003 0.74276 0.0
C279 C 0.49096 0.08371 0.77238 0.0
O280 O 0.53916 0.05012 0.75297 0.0
O281 O 0.5335 0.017 0.58167 0.0
O282 O 0.51398 0.98533 0.61525 0.0
O283 O 0.52595 1.00442 0.70936 0.0
O284 O 0.54351 0.04461 0.59163 0.0
O285 O 0.55 0.02349 0.71362 0.0
O286 O 0.49994 0.97849 0.48442 0.0
O287 O 0.49912 0.02295 0.61823 0.0
O288 O 0.51663 0.05377 0.58589 0.0
O289 O 0.49903 0.03475 0.50681 0.0
O290 O 0.48649 0.99701 0.60413 0.0
O291 O 0.48431 1.00405 0.46111 0.0
C292 C 0.54511 0.02896 0.55441 0.0
C293 C 0.57217 0.04854 0.72691 0.0
C294 C 0.60535 0.0456 0.68728 0.0
C295 C 0.58859 0.03742 0.71544 0.0
C296 C 0.60526 0.06513 0.66991 0.0
C297 C 0.57287 0.06821 0.71269 0.0
C298 C 0.58922 0.07634 0.68351 0.0
C299 C 0.52127 0.98758 0.6809 0.0
C300 C 0.55407 0.03926 0.74781 0.0
C301 C 0.47651 0.08462 0.82482 0.0
C302 C 0.47068 0.06802 0.8596 0.0
C303 C 0.48595 0.01239 0.64254 0.0
C304 C 0.46623 0.97654 0.4881 0.0
C305 C 0.44952 0.98748 0.49557 0.0
C306 C 0.4333 0.98008 0.53003 0.0
C307 C 0.4338 0.96131 0.55592 0.0
C308 C 0.46635 0.95772 0.51378 0.0
C309 C 0.45022 0.95021 0.54748 0.0
C310 C 0.50595 0.05157 0.52751 0.0
C311 C 0.48394 0.98547 0.46055 0.0
H312 H 0.58823 0.02244 0.72919 0.0
H313 H 0.61762 0.07185 0.64617 0.0
H314 H 0.56072 0.07732 0.72296 0.0
H315 H 0.58945 0.0914 0.67115 0.0
H316 H 0.44913 1.00184 0.47442 0.0
H317 H 0.42152 0.95523 0.58271 0.0
H318 H 0.47902 0.94895 0.50922 0.0
H319 H 0.4505 0.93577 0.56767 0.0
Tb320 Tb 0.52935 0.5152 0.55347 0.0
C321 C 0.45724 0.51082 0.73951 0.0
C322 C 0.43307 0.52772 0.6723 0.0
C323 C 0.42383 0.50257 0.75484 0.0
C324 C 0.4524 0.52432 0.68908 0.0
C325 C 0.44302 0.50008 0.77444 0.0
C326 C 0.41886 0.51641 0.70389 0.0
C327 C 0.46753 0.48689 0.85109 0.0
N328 N 0.47586 0.50908 0.7577 0.0
C329 C 0.48109 0.49789 0.81492 0.0
C330 C 0.44844 0.48774 0.82995 0.0
Tb331 Tb 0.49708 0.52797 0.69684 0.0
N332 N 0.46654 0.53504 0.66036 0.0
C333 C 0.46206 0.55033 0.61793 0.0
C334 C 0.42857 0.54287 0.62669 0.0
C335 C 0.44313 0.55428 0.59976 0.0
H336 H 0.49584 0.497 0.83134 0.0
H337 H 0.43979 0.5662 0.56514 0.0
H338 H 0.40397 0.51863 0.69091 0.0
H339 H 0.47183 0.47771 0.895 0.0
H340 H 0.47295 0.55943 0.59626 0.0
H341 H 0.5876 0.4783 0.68551 0.0
H342 H 0.4139 0.54618 0.61349 0.0
H343 H 0.52997 0.54502 0.41486 0.0
H344 H 0.55434 0.48394 0.65266 0.0
H345 H 0.5535 0.5642 0.34869 0.0
H346 H 0.4127 0.49433 0.78048 0.0
H347 H 0.61306 0.49888 0.63686 0.0
H348 H 0.62247 0.52553 0.55407 0.0
H349 H 0.43794 0.47926 0.85818 0.0
H350 H 0.6132 0.54893 0.46179 0.0
N351 N 0.56022 0.50813 0.58666 0.0
C352 C 0.56503 0.49314 0.63017 0.0
C353 C 0.59836 0.5015 0.62201 0.0
C354 C 0.59356 0.51601 0.5739 0.0
C355 C 0.58404 0.48983 0.64934 0.0
C356 C 0.57417 0.51883 0.55661 0.0
H357 H 0.58753 0.56317 0.38369 0.0
N358 N 0.55034 0.53329 0.48787 0.0
C359 C 0.55807 0.55523 0.39284 0.0
C360 C 0.56903 0.5319 0.5052 0.0
C361 C 0.54477 0.54425 0.43048 0.0
C362 C 0.57725 0.55467 0.41291 0.0
C363 C 0.583 0.54267 0.46899 0.0
O364 O 0.52446 0.50723 0.44474 0.0
O365 O 0.49981 0.518 0.58665 0.0
O366 O 0.49316 0.49725 0.67558 0.0
O367 O 0.52256 0.49045 0.62311 0.0
O368 O 0.50656 0.52712 0.48574 0.0
O369 O 0.53436 0.48668 0.52211 0.0
O370 O 0.50039 0.53488 0.80735 0.0
O371 O 0.52659 0.52541 0.66366 0.0
O372 O 0.53328 0.54596 0.57204 0.0
O373 O 0.50459 0.55312 0.63012 0.0
O374 O 0.52002 0.51677 0.76557 0.0
O375 O 0.49073 0.55598 0.73125 0.0
C376 C 0.49261 0.52481 0.52965 0.0
C377 C 0.51022 0.47665 0.44026 0.0
C378 C 0.49307 0.44645 0.45568 0.0
C379 C 0.50874 0.45843 0.47101 0.0
C380 C 0.47872 0.45332 0.40894 0.0
C381 C 0.49564 0.48305 0.3942 0.0
C382 C 0.47997 0.47148 0.3792 0.0
C383 C 0.50665 0.48495 0.65594 0.0
C384 C 0.52654 0.48919 0.45875 0.0
C385 C 0.60226 0.54065 0.4884 0.0
C386 C 0.60753 0.52733 0.5409 0.0
C387 C 0.53388 0.51897 0.72115 0.0
C388 C 0.5099 0.56658 0.83055 0.0
C389 C 0.51767 0.58181 0.79112 0.0
C390 C 0.52927 0.59563 0.82565 0.0
C391 C 0.53339 0.59346 0.90012 0.0
C392 C 0.51442 0.56475 0.90426 0.0
C393 C 0.52622 0.57803 0.93855 0.0
C394 C 0.52002 0.55833 0.59328 0.0
C395 C 0.49651 0.55281 0.7973 0.0
H396 H 0.5199 0.45373 0.50699 0.0
H397 H 0.46672 0.44455 0.39296 0.0
H398 H 0.49626 0.49704 0.36993 0.0
H399 H 0.46884 0.47652 0.34348 0.0
H400 H 0.51448 0.58299 0.73401 0.0
H401 H 0.54165 0.60396 0.92994 0.0
H402 H 0.5086 0.55313 0.93562 0.0
H403 H 0.52946 0.57662 0.9957 0.0
Tb404 Tb 0.024 0.53718 0.52735 0.0
C405 C 0.02552 0.46776 0.72912 0.0
C406 C 1.00919 0.44289 0.66194 0.0
C407 C 0.03345 0.43448 0.75011 0.0
C408 C 0.01242 0.46241 0.67741 0.0
C409 C 0.03589 0.45389 0.76757 0.0
C410 C 0.02012 0.42898 0.69723 0.0
C411 C 0.04899 0.47931 0.84172 0.0
N412 N 0.02733 0.4866 0.7445 0.0
C413 C 0.03842 0.4925 0.80186 0.0
C414 C 0.04795 0.45993 0.82379 0.0
Tb415 Tb 1.01014 0.50748 0.67463 0.0
N416 N 1.00212 0.47633 0.64513 0.0
C417 C 0.98714 0.47137 0.60095 0.0
C418 C 0.99473 0.43792 0.61318 0.0
C419 C 0.98345 0.45222 0.58351 0.0
H420 H 0.03961 0.50746 0.81573 0.0
H421 H 0.97195 0.44854 0.54676 0.0
H422 H 0.01799 0.41393 0.68548 0.0
H423 H 0.05803 0.48414 0.88585 0.0
H424 H 0.9782 0.48192 0.57629 0.0
H425 H 0.06053 0.59735 0.65139 0.0
H426 H 0.99184 0.42311 0.59955 0.0
H427 H 0.99485 0.53581 0.38523 0.0
H428 H 0.05487 0.56356 0.62413 0.0
H429 H 0.97604 0.55843 0.31303 0.0
H430 H 0.04142 0.42361 0.77845 0.0
H431 H 0.03966 0.62207 0.59859 0.0
H432 H 0.01285 0.63021 0.51409 0.0
H433 H 0.05615 0.44974 0.85468 0.0
H434 H 0.98981 0.61959 0.42121 0.0
N435 N 0.03045 0.56848 0.55764 0.0
C436 C 0.04554 0.57395 0.60024 0.0
C437 C 0.03701 0.60713 0.58657 0.0
C438 C 0.0224 0.6016 0.53924 0.0
C439 C 0.04884 0.59324 0.61619 0.0
C440 C 0.01963 0.58195 0.52507 0.0
H441 H 0.97636 0.59287 0.34439 0.0
N442 N 1.00564 0.55713 0.45801 0.0
C443 C 0.98454 0.56359 0.35821 0.0
C444 C 1.00677 0.57606 0.47314 0.0
C445 C 0.99529 0.55081 0.39928 0.0
C446 C 0.98469 0.583 0.37627 0.0
C447 C 0.99616 0.58951 0.43354 0.0
O448 O 0.03189 0.53197 0.41903 0.0
O449 O 0.02109 0.50808 0.56548 0.0
O450 O 0.04103 0.50316 0.66066 0.0
O451 O 0.0488 0.53091 0.59894 0.0
O452 O 0.01301 0.51324 0.46162 0.0
O453 O 0.05229 0.54285 0.49661 0.0
O454 O 1.0025 0.51221 0.78357 0.0
O455 O 0.01362 0.53665 0.63742 0.0
O456 O 0.99305 0.5414 0.5414 0.0
O457 O 0.98578 0.51328 0.60109 0.0
O458 O 0.02281 0.53074 0.73929 0.0
O459 O 0.98105 0.50647 0.70304 0.0
C460 C 0.01481 0.49999 0.50845 0.0
C461 C 0.06363 0.52205 0.40289 0.0
C462 C 0.09262 0.50286 0.41577 0.0
C463 C 0.07856 0.51497 0.44601 0.0
C464 C 0.09094 0.49752 0.34187 0.0
C465 C 0.06229 0.51631 0.32992 0.0
C466 C 0.07578 0.50399 0.2999 0.0
C467 C 0.05367 0.51602 0.6393 0.0
C468 C 0.04968 0.536 0.43128 0.0
C469 C 0.99798 0.60903 0.4504 0.0
C470 C 0.01109 0.61507 0.50328 0.0
C471 C 0.02068 0.54431 0.69403 0.0
C472 C 0.9747 0.53125 0.78828 0.0
C473 C 0.95603 0.53482 0.76408 0.0
C474 C 0.94711 0.55242 0.77934 0.0
C475 C 0.95724 0.56662 0.81773 0.0
C476 C 0.98428 0.5455 0.8287 0.0
C477 C 0.97567 0.56311 0.84242 0.0
C478 C 0.98058 0.52835 0.56263 0.0
C479 C 0.98446 0.5132 0.76798 0.0
H480 H 0.07933 0.51912 0.50258 0.0
H481 H 0.10164 0.48885 0.31503 0.0
H482 H 0.05091 0.52159 0.29577 0.0
H483 H 0.07476 0.49982 0.24326 0.0
H484 H 0.94834 0.52376 0.73463 0.0
H485 H 0.95081 0.58037 0.82944 0.0
H486 H 0.9986 0.54325 0.84879 0.0
H487 H 0.98331 0.57408 0.87239 0.0
H488 H 0.21282 0.01332 0.18534 0.0
H489 H 0.18593 1.01066 0.2707 0.0
H490 H 0.1567 0.05593 0.16031 0.0
H491 H 0.18335 0.05893 0.07654 0.0
H492 H 0.16722 0.03918 0.36551 0.0
H493 H 0.11806 1.01113 0.15394 0.0
H494 H 0.14362 0.01125 0.1425 0.0
H495 H 0.13013 0.03279 0.13025 0.0
C496 C 0.20078 0.02287 0.1798 0.0
C497 C 0.20025 0.0361 0.12276 0.0
C498 C 0.18533 0.02127 0.2285 0.0
C499 C 0.16898 0.03279 0.22112 0.0
C500 C 0.16884 0.04652 0.16632 0.0
H501 H 0.05572 0.0434 0.41892 0.0
H502 H 0.08443 0.04596 0.34329 0.0
C503 C 0.18419 0.04818 0.11816 0.0
C504 C 0.15191 0.03054 0.26954 0.0
H505 H 0.10418 0.02014 0.26653 0.0
C506 C 0.15348 0.03485 0.344 0.0
C507 C 0.13384 0.02506 0.24174 0.0
C508 C 0.13125 0.01962 0.16287 0.0
C509 C 0.13749 0.03434 0.39068 0.0
C510 C 0.11937 0.02888 0.36284 0.0
C511 C 0.1179 0.02441 0.28839 0.0
C512 C 0.10184 0.02756 0.40978 0.0
C513 C 0.14011 0.04036 0.46896 0.0
C514 C 0.10167 0.01609 0.47191 0.0
C515 C 0.08529 0.01474 0.51534 0.0
C516 C 0.06849 0.02468 0.498 0.0
C517 C 0.06844 0.03571 0.43462 0.0
C518 C 0.0849 0.03718 0.39125 0.0
H519 H 0.15286 0.04959 0.47619 0.0
H520 H 0.12744 0.0482 0.48973 0.0
H521 H 0.14221 0.02747 0.50249 0.0
H522 H 0.11413 1.00784 0.4863 0.0
H523 H 0.08566 1.00532 0.56105 0.0
H524 H 0.46577 0.1816 0.0557 0.0
H525 H 0.4679 0.1553 0.14098 0.0
H526 H 0.51628 0.1822 0.24395 0.0
H527 H 0.51415 0.20875 0.15857 0.0
H528 H 0.49603 0.12987 0.16142 0.0
H529 H 0.4841 0.16996 0.41865 0.0
H530 H 0.47979 0.18033 0.33098 0.0
H531 H 0.50365 0.17889 0.3663 0.0
C532 C 0.47691 0.18198 0.0964 0.0
C533 C 0.48985 0.19736 0.09977 0.0
C534 C 0.47806 0.16689 0.14547 0.0
C535 C 0.49211 0.16671 0.19978 0.0
C536 C 0.50501 0.1821 0.20379 0.0
H537 H 0.52791 0.08356 0.5186 0.0
H538 H 0.52364 0.11117 0.44092 0.0
C539 C 0.50381 0.19731 0.15473 0.0
C540 C 0.49353 0.15006 0.24998 0.0
H541 H 0.49363 0.13753 0.42914 0.0
C542 C 0.49538 0.13158 0.21995 0.0
C543 C 0.49269 0.15214 0.32657 0.0
C544 C 0.48977 0.17137 0.36266 0.0
C545 C 0.49677 0.11531 0.26395 0.0
C546 C 0.496 0.11741 0.34044 0.0
C547 C 0.49415 0.13586 0.37058 0.0
C548 C 0.49783 0.10074 0.39005 0.0
C549 C 0.49958 0.09602 0.22817 0.0
C550 C 0.48454 0.08568 0.38887 0.0
C551 C 0.48682 0.06985 0.43434 0.0
C552 C 0.50246 0.06873 0.48201 0.0
C553 C 0.5155 0.08401 0.48384 0.0
C554 C 0.51316 0.09981 0.43883 0.0
H555 H 0.50425 0.09728 0.17081 0.0
H556 H 0.51031 0.08748 0.25802 0.0
H557 H 0.4859 0.08808 0.2287 0.0
H558 H 0.47237 0.08617 0.35277 0.0
H559 H 0.47636 0.0585 0.43209 0.0
H560 H 0.32563 0.52778 0.21094 0.0
H561 H 0.35314 0.53131 0.29326 0.0
H562 H 0.3772 0.47923 0.20689 0.0
H563 H 0.34992 0.47549 0.12586 0.0
H564 H 0.37053 0.50602 0.40179 0.0
H565 H 0.41907 0.51967 0.17064 0.0
H566 H 0.39348 0.52101 0.16223 0.0
H567 H 0.40521 0.4982 0.16225 0.0
C568 C 0.33663 0.51693 0.21022 0.0
C569 C 0.33558 0.50152 0.16041 0.0
C570 C 0.35243 0.519 0.25724 0.0
C571 C 0.36755 0.50575 0.25551 0.0
C572 C 0.36603 0.48991 0.20845 0.0
H573 H 0.46588 0.4967 0.55937 0.0
H574 H 0.43516 0.49144 0.49763 0.0
C575 C 0.35034 0.48782 0.16182 0.0
C576 C 0.38529 0.50867 0.30022 0.0
H577 H 0.43342 0.5156 0.28534 0.0
C578 C 0.38428 0.50822 0.37641 0.0
C579 C 0.40332 0.51154 0.26753 0.0
C580 C 0.40542 0.51281 0.18621 0.0
C581 C 0.40071 0.51046 0.42043 0.0
C582 C 0.41884 0.51317 0.38766 0.0
C583 C 0.41971 0.51359 0.3113 0.0
C584 C 0.43698 0.51655 0.43023 0.0
C585 C 0.3983 0.51027 0.50165 0.0
C586 C 0.44869 0.53216 0.41304 0.0
C587 C 0.46634 0.53492 0.44729 0.0
C588 C 0.47279 0.52243 0.50116 0.0
C589 C 0.46109 0.50691 0.51964 0.0
C590 C 0.44344 0.50394 0.48428 0.0
H591 H 0.38347 0.51386 0.51799 0.0
H592 H 0.40156 0.49577 0.52181 0.0
H593 H 0.40812 0.52051 0.52832 0.0
H594 H 0.4443 0.54218 0.37191 0.0
H595 H 0.47511 0.54687 0.43115 0.0
H596 H 0.0112 0.32258 0.24113 0.0
H597 H 0.01168 0.34941 0.32868 0.0
H598 H 0.03571 0.38571 0.16526 0.0
H599 H 0.03609 0.35902 0.07964 0.0
H600 H 0.05195 0.39402 0.28892 0.0
H601 H 0.97405 0.39216 0.33919 0.0
H602 H 0.98628 0.37061 0.36282 0.0
H603 H 0.98518 0.37776 0.26943 0.0
C604 C 0.01682 0.3362 0.22414 0.0
C605 C 0.02327 0.33851 0.15228 0.0
C606 C 0.01684 0.35172 0.27415 0.0
C607 C 0.02324 0.37002 0.25373 0.0
C608 C 0.03047 0.372 0.18309 0.0
H609 H 0.99333 0.48285 0.40558 0.0
H610 H 0.99611 0.45077 0.35342 0.0
C611 C 0.03053 0.3566 0.13356 0.0
C612 C 0.02231 0.38729 0.30408 0.0
H613 H 0.99157 0.4157 0.40223 0.0
C614 C 0.03873 0.39863 0.31406 0.0
C615 C 1.0051 0.3937 0.33693 0.0
C616 C 0.9866 0.38306 0.32621 0.0
C617 C 0.03837 0.41609 0.35368 0.0
C618 C 0.02116 0.42248 0.38645 0.0
C619 C 1.00485 0.41093 0.378 0.0
C620 C 0.01923 0.44187 0.42303 0.0
C621 C 0.05629 0.42798 0.35689 0.0
C622 C 0.03104 0.4479 0.48115 0.0
C623 C 0.02948 0.46653 0.51124 0.0
C624 C 0.01581 0.47944 0.48484 0.0
C625 C 1.00387 0.47324 0.42785 0.0
C626 C 1.00544 0.45479 0.39791 0.0
H627 H 0.06683 0.42339 0.31522 0.0
H628 H 0.05302 0.44332 0.34887 0.0
H629 H 0.06302 0.42642 0.41099 0.0
H630 H 0.04158 0.43827 0.5031 0.0
H631 H 0.03915 0.47092 0.55411 0.0
H632 H 0.85334 0.0118 0.18368 0.0
H633 H 0.88051 0.01342 0.10137 0.0
H634 H 0.84543 0.99255 0.92564 0.0
H635 H 0.81808 0.99056 0.00835 0.0
H636 H 0.89717 0.98281 0.02468 0.0
H637 H 0.87248 0.03853 0.83435 0.0
H638 H 0.86149 0.03498 0.92176 0.0
H639 H 0.85636 0.01894 0.84754 0.0
C640 C 0.85128 1.00754 0.12754 0.0
C641 C 0.83336 1.00087 0.10331 0.0
C642 C 0.86691 1.00855 0.08027 0.0
C643 C 0.86518 1.00318 0.00686 0.0
C644 C 0.8472 0.99706 0.98165 0.0
H645 H 0.95105 1.00024 0.65627 0.0
H646 H 0.92166 0.99765 0.72702 0.0
C647 C 0.83149 0.99597 0.02916 0.0
C648 C 0.88245 1.00318 0.95849 0.0
H649 H 0.90186 0.02356 0.8073 0.0
C650 C 0.89816 0.99174 0.97716 0.0
C651 C 0.88384 0.01466 0.89588 0.0
C652 C 0.86774 0.02761 0.87367 0.0
C653 C 0.91502 0.99142 0.93542 0.0
C654 C 0.91665 1.0033 0.87386 0.0
C655 C 0.90081 0.01449 0.85439 0.0
C656 C 0.93477 1.00466 0.83029 0.0
C657 C 0.93079 0.97799 0.95714 0.0
C658 C 0.95216 1.00947 0.86385 0.0
C659 C 0.96903 1.01103 0.82325 0.0
C660 C 0.96902 1.00829 0.74731 0.0
C661 C 0.95164 1.00315 0.71395 0.0
C662 C 0.93475 1.00152 0.75467 0.0
H663 H 0.92519 0.96577 0.98854 0.0
H664 H 0.93853 0.9723 0.90898 0.0
H665 H 0.94109 0.98577 0.99233 0.0
H666 H 0.95271 0.0123 0.92171 0.0
H667 H 0.98202 0.0146 0.8518 0.0
H668 H 0.5119 0.82814 0.04253 0.0
H669 H 0.50926 0.85433 0.95561 0.0
H670 H 0.5577 0.88202 0.05495 0.0
H671 H 0.56103 0.85569 0.13872 0.0
H672 H 0.50228 0.89175 0.9768 0.0
H673 H 0.57296 0.885 0.84705 0.0
H674 H 0.56346 0.8668 0.90523 0.0
H675 H 0.57508 0.88753 0.9436 0.0
C676 C 0.52221 0.83962 0.04499 0.0
C677 C 0.53664 0.83969 0.09826 0.0
C678 C 0.5206 0.8547 0.9955 0.0
C679 C 0.53346 0.87014 0.99759 0.0
C680 C 0.54785 0.87017 0.05059 0.0
H681 H 0.54154 0.98327 0.80787 0.0
H682 H 0.5441 0.95463 0.88287 0.0
C683 C 0.54953 0.85514 0.09954 0.0
C684 C 0.53152 0.88662 0.94678 0.0
H685 H 0.55663 0.9147 0.82951 0.0
C686 C 0.51412 0.89659 0.94402 0.0
C687 C 0.54691 0.89308 0.90351 0.0
C688 C 0.56557 0.88241 0.89934 0.0
C689 C 0.51192 0.91304 0.90134 0.0
C690 C 0.52748 0.91977 0.86007 0.0
C691 C 0.54476 0.90969 0.86182 0.0
C692 C 0.526 0.93715 0.8142 0.0
C693 C 0.49309 0.92343 0.90181 0.0
C694 C 0.51515 0.93683 0.75017 0.0
C695 C 0.5138 0.95311 0.70683 0.0
C696 C 0.52319 0.97019 0.72664 0.0
C697 C 0.53409 0.97044 0.79088 0.0
C698 C 0.53558 0.95406 0.83383 0.0
H699 H 0.48339 0.91817 0.9448 0.0
H700 H 0.49536 0.939 0.91009 0.0
H701 H 0.48599 0.92136 0.84845 0.0
H702 H 0.50774 0.92394 0.73353 0.0
H703 H 0.50519 0.95231 0.65805 0.0
H704 H 0.67766 0.51297 0.14009 0.0
H705 H 0.65 0.51119 0.05981 0.0
H706 H 0.68026 0.54349 0.89898 0.0
H707 H 0.70825 0.54499 0.97924 0.0
H708 H 0.62845 0.53973 0.01494 0.0
H709 H 0.65726 0.50289 0.77038 0.0
H710 H 0.67006 0.50377 0.85536 0.0
H711 H 0.67012 0.52404 0.79637 0.0
C712 C 0.67859 0.51946 0.08715 0.0
C713 C 0.69529 0.52913 0.0664 0.0
C714 C 0.66266 0.51847 0.04112 0.0
C715 C 0.66282 0.52711 0.97259 0.0
C716 C 0.67971 0.53632 0.95063 0.0
H717 H 0.56253 0.54428 0.68158 0.0
H718 H 0.59457 0.5473 0.73631 0.0
C719 C 0.69578 0.53719 0.99672 0.0
C720 C 0.64487 0.52741 0.92742 0.0
H721 H 0.62563 0.51467 0.76227 0.0
C722 C 0.62796 0.53426 0.95966 0.0
C723 C 0.64396 0.52042 0.85476 0.0
C724 C 0.66126 0.5122 0.81722 0.0
C725 C 0.6104 0.53407 0.92235 0.0
C726 C 0.60943 0.52676 0.85049 0.0
C727 C 0.62633 0.52036 0.81719 0.0
C728 C 0.59068 0.5243 0.81229 0.0
C729 C 0.59284 0.54155 0.96039 0.0
C730 C 0.5779 0.51027 0.83577 0.0
C731 C 0.55979 0.50843 0.80427 0.0
C732 C 0.55395 0.52044 0.74775 0.0
C733 C 0.56675 0.53449 0.7237 0.0
C734 C 0.58503 0.53628 0.75523 0.0
H735 H 0.59645 0.55016 0.00954 0.0
H736 H 0.58422 0.55046 0.92321 0.0
H737 H 0.58388 0.52933 0.9773 0.0
H738 H 0.58183 0.50086 0.87954 0.0
H739 H 0.55022 0.49763 0.82466 0.0
H740 H 0.98813 0.71371 1.00339 0.0
H741 H 0.98787 0.68681 0.91609 0.0
H742 H 0.03891 0.66448 0.01388 0.0
H743 H 0.03961 0.69145 0.09861 0.0
H744 H 0.04134 0.66049 0.87207 0.0
H745 H 0.97031 0.63324 0.95287 0.0
H746 H 0.97021 0.65729 0.92027 0.0
H747 H 0.98242 0.65184 1.00335 0.0
C748 C 0.99946 0.70324 0.00554 0.0
C749 C 0.01376 0.70482 0.05913 0.0
C750 C 0.99914 0.68759 0.95616 0.0
C751 C 0.01307 0.67305 0.959 0.0
C752 C 0.0278 0.67518 0.01032 0.0
H753 H 0.04292 0.56092 0.79573 0.0
H754 H 0.04032 0.59256 0.85185 0.0
C755 C 0.02814 0.69071 0.0593 0.0
C756 C 0.01271 0.65564 0.90932 0.0
H757 H 0.98627 0.61624 0.85982 0.0
C758 C 0.0292 0.65094 0.8694 0.0
C759 C 0.99694 0.64292 0.9047 0.0
C760 C 0.97901 0.64641 0.94798 0.0
C761 C 0.0305 0.63407 0.82673 0.0
C762 C 0.01497 0.6211 0.82364 0.0
C763 C 0.99822 0.62605 0.86151 0.0
C764 C 0.01648 0.60177 0.78653 0.0
C765 C 0.04867 0.63035 0.78529 0.0
C766 C 1.00369 0.59581 0.73147 0.0
C767 C 1.00519 0.57746 0.69883 0.0
C768 C 0.0195 0.56462 0.72072 0.0
C769 C 0.032 0.57055 0.77635 0.0
C770 C 0.03057 0.58877 0.80846 0.0
H771 H 0.05636 0.64384 0.77371 0.0
H772 H 0.05823 0.62128 0.81829 0.0
H773 H 0.04577 0.62283 0.73325 0.0
H774 H 0.9925 0.60534 0.71383 0.0
H775 H 0.99494 0.57318 0.65777 0.0
H776 H 0.08317 0.22688 0.14836 0.0
H777 H 0.09127 0.20737 0.25354 0.0
H778 H 0.04087 0.22769 0.36384 0.0
H779 H 0.03316 0.2477 0.26024 0.0
H780 H 0.07105 0.21463 0.46089 0.0
H781 H 0.05231 0.16352 0.23734 0.0
H782 H 0.07292 0.17814 0.223 0.0
H783 H 0.04969 0.18892 0.22764 0.0
C784 C 0.07438 0.22785 0.19658 0.0
C785 C 0.05738 0.23843 0.19606 0.0
C786 C 0.07902 0.21676 0.2566 0.0
C787 C 0.06638 0.21574 0.31549 0.0
C788 C 0.05078 0.22825 0.31884 0.0
H789 H 1.00933 0.14277 0.5868 0.0
H790 H 0.02986 0.16909 0.55428 0.0
C791 C 0.04634 0.23963 0.25947 0.0
C792 C 0.06619 0.19867 0.36192 0.0
H793 H 0.05356 0.15184 0.3534 0.0
C794 C 0.06767 0.20074 0.43767 0.0
C795 C 0.06161 0.18062 0.33136 0.0
C796 C 0.05888 0.17757 0.25055 0.0
C797 C 0.06407 0.18527 0.48383 0.0
C798 C 0.05851 0.16751 0.45316 0.0
C799 C 0.05805 0.16534 0.3773 0.0
C800 C 0.0504 0.15162 0.49601 0.0
C801 C 0.06591 0.18826 0.56468 0.0
C802 C 0.05548 0.13278 0.47795 0.0
C803 C 0.04298 0.11781 0.49165 0.0
C804 C 0.02538 0.12121 0.52655 0.0
C805 C 0.02207 0.13961 0.55594 0.0
C806 C 0.03421 0.15475 0.5393 0.0
H807 H 0.07742 0.19866 0.57746 0.0
H808 H 0.05239 0.19429 0.58622 0.0
H809 H 0.06897 0.17468 0.59295 0.0
H810 H 0.06805 0.12994 0.44542 0.0
H811 H 0.04655 0.10407 0.46814 0.0
H812 H 0.29225 0.01953 0.23595 0.0
H813 H 0.31083 0.01824 0.3476 0.0
H814 H 0.33569 0.07303 0.29949 0.0
H815 H 0.31784 0.07368 0.18519 0.0
H816 H 0.36185 0.04887 0.31157 0.0
H817 H 0.31616 0.03734 0.54849 0.0
H818 H 0.30927 0.02064 0.4791 0.0
H819 H 0.30662 0.04592 0.46384 0.0
C820 C 0.30115 0.0316 0.25077 0.0
C821 C 0.30377 0.04664 0.20229 0.0
C822 C 0.31166 0.03098 0.3151 0.0
C823 C 0.32461 0.04563 0.33279 0.0
C824 C 0.32579 0.06157 0.28729 0.0
H825 H 0.42985 0.01809 0.56506 0.0
H826 H 0.40211 0.03843 0.54275 0.0
C827 C 0.31562 0.06196 0.22209 0.0
C828 C 0.33965 0.04218 0.388 0.0
H829 H 0.34743 0.02063 0.55078 0.0
C830 C 0.35869 0.04337 0.36499 0.0
C831 C 0.33566 0.03498 0.45788 0.0
C832 C 0.31578 0.03487 0.48882 0.0
C833 C 0.37359 0.03592 0.40645 0.0
C834 C 0.36937 0.02714 0.47327 0.0
C835 C 0.35058 0.02726 0.49926 0.0
C836 C 0.38381 0.01511 0.50911 0.0
C837 C 0.39352 0.03604 0.37534 0.0
C838 C 0.38224 0.99521 0.50233 0.0
C839 C 0.39803 0.98358 0.5148 0.0
C840 C 0.41564 0.99171 0.53414 0.0
C841 C 0.41658 0.01148 0.54838 0.0
C842 C 0.40073 0.0231 0.53624 0.0
H843 H 0.39392 0.04152 0.31903 0.0
H844 H 0.4028 0.04528 0.40958 0.0
H845 H 0.39963 0.02141 0.37512 0.0
H846 H 0.36928 0.98879 0.48131 0.0
H847 H 0.39682 0.96842 0.50338 0.0
H848 H 0.45548 0.31796 0.18022 0.0
H849 H 0.45779 0.33462 0.29719 0.0
H850 H 0.5035 0.29721 0.36064 0.0
H851 H 0.50125 0.28044 0.2434 0.0
H852 H 0.46422 0.3258 0.46556 0.0
H853 H 0.52553 0.35221 0.30156 0.0
H854 H 0.5062 0.33941 0.25873 0.0
H855 H 0.5227 0.32701 0.31573 0.0
C856 C 0.46547 0.31279 0.22036 0.0
C857 C 0.47844 0.29821 0.20255 0.0
C858 C 0.46666 0.32219 0.28737 0.0
C859 C 0.48092 0.31721 0.33706 0.0
C860 C 0.49235 0.30115 0.32299 0.0
H861 H 0.52314 0.42279 0.49418 0.0
H862 H 0.52227 0.38866 0.50868 0.0
C863 C 0.49108 0.29164 0.25597 0.0
C864 C 0.48696 0.33178 0.39081 0.0
H865 H 0.51505 0.37122 0.39672 0.0
C866 C 0.47566 0.33553 0.45211 0.0
C867 C 0.50214 0.34418 0.37387 0.0
C868 C 0.51489 0.34065 0.30895 0.0
C869 C 0.47839 0.35223 0.49408 0.0
C870 C 0.49207 0.36581 0.47168 0.0
C871 C 0.50444 0.36102 0.41429 0.0
C872 C 0.49171 0.38618 0.49583 0.0
C873 C 0.46642 0.35525 0.56105 0.0
C874 C 0.47464 0.39658 0.49154 0.0
C875 C 0.47496 0.41646 0.48696 0.0
C876 C 0.4924 0.42635 0.48266 0.0
C877 C 0.50931 0.41606 0.49598 0.0
C878 C 0.50889 0.39627 0.50403 0.0
H879 H 0.46376 0.34146 0.5884 0.0
H880 H 0.47347 0.36516 0.60007 0.0
H881 H 0.45235 0.36118 0.54552 0.0
H882 H 0.46111 0.38939 0.48462 0.0
H883 H 0.46149 0.42382 0.48139 0.0
H884 H 0.21168 0.52359 0.22801 0.0
H885 H 0.19664 0.52104 0.34477 0.0
H886 H 0.23601 0.47641 0.40415 0.0
H887 H 0.25037 0.47796 0.28261 0.0
H888 H 0.20462 0.4653 0.4469 0.0
H889 H 0.20353 0.53797 0.54352 0.0
H890 H 0.19622 0.54098 0.45158 0.0
H891 H 0.21955 0.53111 0.47101 0.0
C892 C 0.21726 0.51324 0.26578 0.0
C893 C 0.23198 0.50073 0.24536 0.0
C894 C 0.20893 0.51211 0.33386 0.0
C895 C 0.21546 0.49891 0.38509 0.0
C896 C 0.23081 0.48689 0.36622 0.0
H897 H 0.11037 0.52216 0.52916 0.0
H898 H 0.14126 0.51575 0.58123 0.0
C899 C 0.23905 0.48783 0.29685 0.0
C900 C 0.204 0.49616 0.45219 0.0
H901 H 0.16984 0.52244 0.53571 0.0
C902 C 0.19735 0.47779 0.46849 0.0
C903 C 0.19551 0.51193 0.48826 0.0
C904 C 0.20438 0.53153 0.48823 0.0
C905 C 0.18006 0.47541 0.50572 0.0
C906 C 0.16849 0.49166 0.51971 0.0
C907 C 0.17746 0.50967 0.51934 0.0
C908 C 0.14717 0.49091 0.51313 0.0
C909 C 0.17408 0.45556 0.52658 0.0
C910 C 0.13868 0.47793 0.46377 0.0
C911 C 0.12013 0.48064 0.43888 0.0
C912 C 0.10987 0.49716 0.45823 0.0
C913 C 0.11757 0.50921 0.51252 0.0
C914 C 0.1357 0.50576 0.54129 0.0
H915 H 0.18578 0.44869 0.55738 0.0
H916 H 0.16103 0.45562 0.56067 0.0
H917 H 0.17175 0.44669 0.47702 0.0
H918 H 0.14672 0.4665 0.4386 0.0
H919 H 0.11448 0.4704 0.40005 0.0
H920 H 0.94671 0.81323 0.07958 0.0
H921 H 0.93605 0.83196 0.97576 0.0
H922 H 0.98618 0.81403 0.85701 0.0
H923 H 0.99593 0.79453 0.9581 0.0
H924 H 0.95438 0.86077 0.95015 0.0
H925 H 0.95465 0.8241 0.6884 0.0
H926 H 0.95248 0.81082 0.77145 0.0
H927 H 0.97565 0.81569 0.73257 0.0
C928 C 0.95481 0.81256 0.02956 0.0
C929 C 0.97218 0.80264 0.02658 0.0
C930 C 0.94875 0.82326 0.97025 0.0
C931 C 0.96028 0.8246 0.90805 0.0
C932 C 0.97662 0.813 0.90285 0.0
H933 H 0.03354 0.89288 0.76522 0.0
H934 H 1.00915 0.86879 0.78172 0.0
C935 C 0.98238 0.80193 0.96129 0.0
C936 C 0.95863 0.84136 0.85956 0.0
H937 H 0.97466 0.85493 0.69335 0.0
C938 C 0.95783 0.85951 0.89296 0.0
C939 C 0.96268 0.84008 0.78439 0.0
C940 C 0.96116 0.82155 0.7424 0.0
C941 C 0.96415 0.87579 0.85683 0.0
C942 C 0.97145 0.87379 0.78576 0.0
C943 C 0.96947 0.8563 0.74863 0.0
C944 C 0.98553 0.88766 0.75908 0.0
C945 C 0.96531 0.89451 0.89811 0.0
C946 C 0.9803 0.90617 0.73901 0.0
C947 C 0.99433 0.92009 0.72896 0.0
C948 C 0.01375 0.91567 0.73932 0.0
C949 C 0.01883 0.89681 0.75588 0.0
C950 C 1.00487 0.88296 0.76526 0.0
H951 H 0.95864 0.89371 0.95266 0.0
H952 H 0.98046 0.89876 0.90493 0.0
H953 H 0.95802 0.90586 0.86707 0.0
H954 H 0.96541 0.91001 0.73386 0.0
H955 H 0.98994 0.93435 0.71418 0.0
H956 H 0.72043 0.0265 0.99722 0.0
H957 H 0.70626 0.02245 0.87691 0.0
H958 H 0.72681 0.96442 0.86631 0.0
H959 H 0.74133 0.96857 0.98743 0.0
H960 H 0.721 1.00654 0.72829 0.0
H961 H 0.66585 0.9637 0.87108 0.0
H962 H 0.68137 0.9789 0.92421 0.0
H963 H 0.69088 0.95822 0.87868 0.0
C964 C 0.72229 0.01304 0.96843 0.0
C965 C 0.73173 0.99779 1.00128 0.0
C966 C 0.71437 1.01078 0.89965 0.0
C967 C 0.71554 0.99315 0.86295 0.0
C968 C 0.7259 0.97815 0.89379 0.0
H969 H 0.60924 1.0073 0.65293 0.0
H970 H 0.63828 0.98819 0.65577 0.0
C971 C 0.7341 0.98051 0.96268 0.0
C972 C 0.70308 0.99021 0.79934 0.0
H973 H 0.65569 0.9827 0.77453 0.0
C974 C 0.70689 1.00061 0.73641 0.0
C975 C 0.6849 0.98196 0.80882 0.0
C976 C 0.68037 0.96998 0.8741 0.0
C977 C 0.69215 1.00533 0.68837 0.0
C978 C 0.67323 1.00018 0.70592 0.0
C979 C 0.67011 0.9871 0.76182 0.0
C980 C 0.65677 0.01194 0.68292 0.0
C981 C 0.69671 0.01718 0.62291 0.0
C982 C 0.65746 0.03174 0.69554 0.0
C983 C 0.64093 0.0427 0.69369 0.0
C984 C 0.62316 0.03415 0.67972 0.0
C985 C 0.62261 0.01445 0.66359 0.0
C986 C 0.63925 1.00347 0.66476 0.0
H987 H 0.71013 0.01208 0.5972 0.0
H988 H 0.68509 0.01667 0.58198 0.0
H989 H 0.69906 0.03224 0.64019 0.0
H990 H 0.67056 0.0386 0.71271 0.0
H991 H 0.64203 0.05767 0.70823 0.0
H992 H 0.56136 0.75369 0.96636 0.0
H993 H 0.56244 0.73901 0.84431 0.0
H994 H 0.5158 0.70206 0.90341 0.0
H995 H 0.51389 0.71737 0.02074 0.0
H996 H 0.57212 0.70675 0.80234 0.0
H997 H 0.5 0.70899 0.7044 0.0
H998 H 0.50736 0.725 0.77675 0.0
H999 H 0.49626 0.70227 0.79641 0.0
C1000 C 0.55099 0.74285 0.95188 0.0
C1001 C 0.53772 0.73647 1.00341 0.0
C1002 C 0.55164 0.73444 0.88225 0.0
C1003 C 0.53893 0.71964 0.86324 0.0
C1004 C 0.5253 0.71392 0.91444 0.0
H1005 H 0.56183 0.61668 0.84916 0.0
H1006 H 0.56732 0.64892 0.8135 0.0
C1007 C 0.5245 0.7224 0.98279 0.0
C1008 C 0.54135 0.70776 0.79624 0.0
H1009 H 0.51374 0.67446 0.71333 0.0
C1010 C 0.55939 0.70004 0.78057 0.0
C1011 C 0.52534 0.69988 0.76018 0.0
C1012 C 0.50625 0.70977 0.75977 0.0
C1013 C 0.56103 0.68238 0.74404 0.0
C1014 C 0.54428 0.67164 0.72978 0.0
C1015 C 0.52679 0.68153 0.72968 0.0
C1016 C 0.54393 0.6503 0.73589 0.0
C1017 C 0.58061 0.67514 0.72452 0.0
C1018 C 0.52896 0.63947 0.70535 0.0
C1019 C 0.52462 0.62135 0.73192 0.0
C1020 C 0.53581 0.61306 0.78665 0.0
C1021 C 0.55231 0.62278 0.80943 0.0
C1022 C 0.55595 0.64129 0.78639 0.0
H1023 H 0.5884 0.68631 0.69426 0.0
H1024 H 0.58892 0.67244 0.77468 0.0
H1025 H 0.58005 0.66197 0.69042 0.0
H1026 H 0.51962 0.64552 0.66489 0.0
H1027 H 0.51167 0.61458 0.71308 0.0
H1028 H 0.78034 0.55836 0.94251 0.0
H1029 H 0.79601 0.56343 0.82537 0.0
H1030 H 0.83474 0.51711 0.87125 0.0
H1031 H 0.81839 0.51128 0.98397 0.0
H1032 H 0.82802 0.57664 0.81144 0.0
H1033 H 0.83484 0.51 0.66269 0.0
H1034 H 0.81687 0.51262 0.7323 0.0
H1035 H 0.84021 0.50308 0.75334 0.0
C1036 C 0.79169 0.54879 0.92578 0.0
C1037 C 0.79842 0.53466 0.97293 0.0
C1038 C 0.80068 0.55172 0.85888 0.0
C1039 C 0.81656 0.54059 0.83835 0.0
C1040 C 0.82223 0.52559 0.88357 0.0
H1041 H 0.91981 0.56747 0.86657 0.0
H1042 H 0.88588 0.56904 0.84475 0.0
C1043 C 0.81312 0.52251 0.94935 0.0
C1044 C 0.82982 0.54682 0.78021 0.0
H1045 H 0.86716 0.52697 0.6889 0.0
C1046 C 0.83609 0.56588 0.78192 0.0
C1047 C 0.83999 0.53342 0.73697 0.0
C1048 C 0.83235 0.51372 0.7207 0.0
C1049 C 0.85402 0.57079 0.75445 0.0
C1050 C 0.86617 0.55614 0.7282 0.0
C1051 C 0.85836 0.53808 0.71297 0.0
C1052 C 0.88721 0.55784 0.7345 0.0
C1053 C 0.86039 0.59131 0.75987 0.0
C1054 C 0.89951 0.55053 0.68074 0.0
C1055 C 0.91916 0.54941 0.6938 0.0
C1056 C 0.92676 0.55541 0.76098 0.0
C1057 C 0.91449 0.56314 0.81367 0.0
C1058 C 0.89499 0.56421 0.80082 0.0
H1059 H 0.84856 0.60094 0.74403 0.0
H1060 H 0.8641 0.59485 0.81705 0.0
H1061 H 0.8729 0.59414 0.72471 0.0
H1062 H 0.89385 0.54515 0.62976 0.0
H1063 H 0.92836 0.54354 0.65209 0.0
H1064 H 0.06147 0.21691 0.92685 0.0
H1065 H 0.058 0.18717 0.85683 0.0
H1066 H 0.9981 0.18607 0.90875 0.0
H1067 H 1.00153 0.21632 0.97644 0.0
H1068 H 0.05043 0.15369 0.899 0.0
H1069 H 0.99365 0.17022 0.70287 0.0
H1070 H 1.00511 0.18856 0.75672 0.0
H1071 H 0.98574 0.17487 0.79385 0.0
C1072 C 0.04741 0.21067 0.92117 0.0
C1073 C 0.0317 0.21935 0.95595 0.0
C1074 C 0.04545 0.19345 0.88159 0.0
C1075 C 0.02772 0.18409 0.87592 0.0
C1076 C 0.01188 0.19299 0.90962 0.0
H1077 H 0.98542 0.07264 0.73687 0.0
H1078 H 0.99117 0.10493 0.78366 0.0
C1079 C 0.01382 0.21041 0.94858 0.0
C1080 C 0.02629 0.16447 0.8401 0.0
H1081 H 0.99986 0.13699 0.72168 0.0
C1082 C 0.03945 0.15019 0.85961 0.0
C1083 C 0.01217 0.15953 0.78779 0.0
C1084 C 0.99851 0.17417 0.75846 0.0
C1085 C 0.03847 0.13132 0.83129 0.0
C1086 C 0.02385 0.12615 0.78136 0.0
C1087 C 0.01097 0.14055 0.76046 0.0
C1088 C 0.02093 0.10587 0.75312 0.0
C1089 C 0.05286 0.11701 0.85751 0.0
C1090 C 0.03562 0.09509 0.71953 0.0
C1091 C 0.03236 0.07625 0.69363 0.0
C1092 C 0.01427 0.06771 0.69992 0.0
C1093 C 0.99961 0.07859 0.73219 0.0
C1094 C 1.00288 0.09722 0.75864 0.0
H1095 H 0.05935 0.12145 0.91009 0.0
H1096 H 0.04623 0.10285 0.86418 0.0
H1097 H 0.06449 0.11564 0.81698 0.0
H1098 H 0.04955 0.10135 0.71194 0.0
H1099 H 0.04385 0.06857 0.66704 0.0
H1100 H 0.32282 0.06706 0.92888 0.0
H1101 H 0.3519 0.06456 0.85535 0.0
H1102 H 0.35081 1.00334 0.87736 0.0
H1103 H 0.32141 1.00592 0.94897 0.0
H1104 H 0.38535 0.05312 0.89578 0.0
H1105 H 0.36465 1.0056 0.66812 0.0
H1106 H 0.34725 0.01655 0.72752 0.0
H1107 H 0.3593 0.99496 0.75368 0.0
C1108 C 0.32843 0.05304 0.91562 0.0
C1109 C 0.31951 0.03666 0.94299 0.0
C1110 C 0.3452 0.05159 0.87412 0.0
C1111 C 0.35367 0.03372 0.85922 0.0
C1112 C 0.34447 0.01729 0.88554 0.0
H1113 H 0.46192 0.98904 0.71249 0.0
H1114 H 0.43025 0.99577 0.76137 0.0
C1115 C 0.32759 0.01874 0.92667 0.0
C1116 C 0.37287 0.03246 0.82249 0.0
H1117 H 0.39822 1.00846 0.69105 0.0
C1118 C 0.38801 0.04359 0.85007 0.0
C1119 C 0.37666 0.02009 0.76259 0.0
C1120 C 0.36104 1.00879 0.72574 0.0
C1121 C 0.40669 0.04215 0.82188 0.0
C1122 C 0.41063 0.02924 0.76397 0.0
C1123 C 0.39542 0.0184 0.73531 0.0
C1124 C 0.43052 0.02579 0.7356 0.0
C1125 C 0.42229 0.05375 0.85705 0.0
C1126 C 0.44159 0.04038 0.70425 0.0
C1127 C 0.45995 0.03651 0.67603 0.0
C1128 C 0.46771 0.018 0.67926 0.0
C1129 C 0.45657 1.00354 0.71043 0.0
C1130 C 0.43834 1.00735 0.73814 0.0
H1131 H 0.41768 0.06046 0.9091 0.0
H1132 H 0.43479 0.04455 0.86762 0.0
H1133 H 0.42677 0.06527 0.81995 0.0
H1134 H 0.43585 0.05466 0.6997 0.0
H1135 H 0.46784 0.04784 0.65018 0.0
H1136 H 0.48138 0.30559 0.85655 0.0
H1137 H 0.48568 0.33365 0.77924 0.0
H1138 H 0.51129 0.36409 0.95921 0.0
H1139 H 0.50858 0.336 0.03365 0.0
H1140 H 0.4714 0.36744 0.78204 0.0
H1141 H 0.54845 0.3783 0.81223 0.0
H1142 H 0.537 0.35692 0.84354 0.0
H1143 H 0.53813 0.378 0.9009 0.0
C1144 C 0.48843 0.31808 0.87892 0.0
C1145 C 0.49445 0.3184 0.95195 0.0
C1146 C 0.49071 0.33426 0.83481 0.0
C1147 C 0.4991 0.35115 0.86249 0.0
C1148 C 0.50529 0.35128 0.93503 0.0
H1149 H 0.47616 0.46707 0.72056 0.0
H1150 H 0.4745 0.43466 0.76555 0.0
C1151 C 0.50337 0.33514 0.97838 0.0
C1152 C 0.50059 0.36899 0.81799 0.0
H1153 H 0.53016 0.40664 0.78433 0.0
C1154 C 0.48437 0.37585 0.78153 0.0
C1155 C 0.51757 0.37995 0.81478 0.0
C1156 C 0.53629 0.37275 0.84427 0.0
C1157 C 0.48439 0.39359 0.74577 0.0
C1158 C 0.50086 0.40541 0.74891 0.0
C1159 C 0.51731 0.39806 0.78238 0.0
C1160 C 0.50148 0.42544 0.71952 0.0
C1161 C 0.46674 0.39923 0.70434 0.0
C1162 C 0.51757 0.43194 0.68128 0.0
C1163 C 0.51917 0.45109 0.66042 0.0
C1164 C 0.50449 0.4643 0.67502 0.0
C1165 C 0.48804 0.45762 0.71016 0.0
C1166 C 0.4868 0.43869 0.73403 0.0
H1167 H 0.45865 0.38648 0.68548 0.0
H1168 H 0.45711 0.40747 0.74075 0.0
H1169 H 0.4703 0.40803 0.65654 0.0
H1170 H 0.52915 0.42225 0.66844 0.0
H1171 H 0.53207 0.45551 0.6332 0.0
H1172 H 0.22952 0.49383 0.89533 0.0
H1173 H 0.20259 0.49701 0.81065 0.0
H1174 H 0.17049 0.52654 0.97695 0.0
H1175 H 0.19758 0.5253 0.05749 0.0
H1176 H 0.16928 0.48384 0.80281 0.0
H1177 H 0.1574 0.56097 0.82292 0.0
H1178 H 0.17824 0.55011 0.86179 0.0
H1179 H 0.1563 0.55186 0.91298 0.0
C1180 C 0.21694 0.50153 0.91303 0.0
C1181 C 0.21592 0.50908 0.98428 0.0
C1182 C 0.20135 0.50315 0.86465 0.0
C1183 C 0.18427 0.51235 0.88607 0.0
C1184 C 0.18344 0.51996 0.95693 0.0
H1185 H 0.07082 0.48652 0.71319 0.0
H1186 H 0.10248 0.48569 0.76747 0.0
C1187 C 0.19903 0.51881 0.00417 0.0
C1188 C 0.16695 0.51327 0.83702 0.0
H1189 H 0.12943 0.54214 0.79215 0.0
C1190 C 0.16077 0.49672 0.79968 0.0
C1191 C 0.15583 0.53012 0.82967 0.0
C1192 C 0.16247 0.54927 0.8583 0.0
C1193 C 0.1436 0.49631 0.75914 0.0
C1194 C 0.13145 0.51259 0.75876 0.0
C1195 C 0.13815 0.52936 0.79315 0.0
C1196 C 0.11185 0.51274 0.72399 0.0
C1197 C 0.13909 0.47842 0.71608 0.0
C1198 C 0.10566 0.52851 0.68333 0.0
C1199 C 0.08704 0.52942 0.65509 0.0
C1200 C 0.07392 0.51449 0.66576 0.0
C1201 C 0.08023 0.4985 0.70481 0.0
C1202 C 0.09869 0.49782 0.73468 0.0
H1203 H 0.15237 0.47135 0.69683 0.0
H1204 H 0.13157 0.46818 0.75153 0.0
H1205 H 0.13003 0.48139 0.66817 0.0
H1206 H 0.11526 0.54028 0.6732 0.0
H1207 H 0.08295 0.54195 0.625 0.0
H1208 H 0.97192 0.82841 0.28124 0.0
H1209 H 0.97732 0.85829 0.3486 0.0
H1210 H 0.0378 0.8524 0.31511 0.0
H1211 H 0.03239 0.8223 0.24735 0.0
H1212 H 0.9987 0.86822 0.47353 0.0
H1213 H 0.02645 0.90566 0.23187 0.0
H1214 H 0.01415 0.88307 0.22517 0.0
H1215 H 0.0386 0.8839 0.25405 0.0
C1216 C 0.98643 0.83326 0.28938 0.0
C1217 C 1.00172 0.82278 0.25903 0.0
C1218 C 0.9895 0.85048 0.32777 0.0
C1219 C 1.00795 0.85802 0.33625 0.0
C1220 C 0.02337 0.8472 0.30855 0.0
H1221 H 0.05335 0.96526 0.51461 0.0
H1222 H 0.04779 0.93421 0.45616 0.0
C1223 C 0.0203 0.82979 0.27061 0.0
C1224 C 0.01078 0.87732 0.37249 0.0
H1225 H 0.02664 0.92293 0.34273 0.0
C1226 C 1.00478 0.88017 0.44472 0.0
C1227 C 0.01867 0.89313 0.33555 0.0
C1228 C 0.02471 0.89145 0.25719 0.0
C1229 C 1.00686 0.89798 0.48109 0.0
C1230 C 0.01467 0.91386 0.44413 0.0
C1231 C 0.02059 0.911 0.37171 0.0
C1232 C 0.01764 0.93322 0.48016 0.0
C1233 C 1.00144 0.89939 0.56 0.0
C1234 C 1.0026 0.94352 0.5135 0.0
C1235 C 1.00581 0.9615 0.54717 0.0
C1236 C 0.02408 0.96981 0.5474 0.0
C1237 C 0.03903 0.95948 0.51441 0.0
C1238 C 0.03585 0.94163 0.48082 0.0
H1239 H 1.00049 0.88512 0.58547 0.0
H1240 H 0.01203 0.9081 0.59032 0.0
H1241 H 0.9873 0.90638 0.56511 0.0
H1242 H 0.9883 0.93774 0.51313 0.0
H1243 H 0.99404 0.9688 0.5735 0.0
H1244 H 0.71886 0.98535 0.32675 0.0
H1245 H 0.68927 0.9881 0.39824 0.0
H1246 H 0.6721 0.03628 0.27046 0.0
H1247 H 0.70151 0.03366 0.19981 0.0
H1248 H 0.66418 0.04133 0.41924 0.0
H1249 H 0.63679 0.97138 0.31882 0.0
H1250 H 0.65972 0.97102 0.36245 0.0
H1251 H 0.65692 0.98307 0.27766 0.0
C1252 C 0.70897 0.99679 0.31511 0.0
C1253 C 0.71263 1.00928 0.25743 0.0
C1254 C 0.69188 0.9982 0.35534 0.0
C1255 C 0.6781 0.01217 0.339 0.0
C1256 C 0.68229 0.02527 0.28412 0.0
H1257 H 0.5635 0.04971 0.45317 0.0
H1258 H 0.59576 0.04516 0.40482 0.0
C1259 C 0.69921 0.02379 0.24377 0.0
C1260 C 0.65907 0.01304 0.37681 0.0
H1261 H 0.61682 0.98903 0.39722 0.0
C1262 C 0.65389 0.02982 0.41462 0.0
C1263 C 0.6455 0.99808 0.37144 0.0
C1264 C 0.64985 0.97989 0.33003 0.0
C1265 C 0.63569 0.0321 0.44629 0.0
C1266 C 0.62187 0.01741 0.43877 0.0
C1267 C 0.62722 1.0004 0.40282 0.0
C1268 C 0.60174 0.01966 0.46606 0.0
C1269 C 0.63158 0.05032 0.48789 0.0
C1270 C 0.5938 1.00656 0.51491 0.0
C1271 C 0.57532 1.00927 0.5432 0.0
C1272 C 0.56395 0.02463 0.52039 0.0
C1273 C 0.57177 0.03754 0.47072 0.0
C1274 C 0.59031 0.03501 0.44348 0.0
H1275 H 0.6448 0.05636 0.51221 0.0
H1276 H 0.6257 0.06104 0.45009 0.0
H1277 H 0.62108 0.04804 0.53181 0.0
H1278 H 0.60211 0.99445 0.53269 0.0
H1279 H 0.56998 0.99946 0.5833 0.0
H1280 H 0.51338 0.70168 0.18928 0.0
H1281 H 0.51155 0.67489 0.26991 0.0
H1282 H 0.53977 0.70768 0.4379 0.0
H1283 H 0.54372 0.73421 0.35323 0.0
H1284 H 0.55291 0.67454 0.44619 0.0
H1285 H 0.47606 0.66272 0.42225 0.0
H1286 H 0.48559 0.66131 0.33246 0.0
H1287 H 0.48715 0.68344 0.38381 0.0
C1288 C 0.51952 0.70332 0.24292 0.0
C1289 C 0.52912 0.72024 0.26347 0.0
C1290 C 0.51798 0.68794 0.29016 0.0
C1291 C 0.52502 0.68912 0.36146 0.0
C1292 C 0.53407 0.70624 0.38348 0.0
H1293 H 0.49406 0.58743 0.6116 0.0
H1294 H 0.496 0.6201 0.56885 0.0
C1295 C 0.53613 0.72158 0.3351 0.0
C1296 C 0.52374 0.67207 0.41035 0.0
H1297 H 0.49474 0.63452 0.45155 0.0
C1298 C 0.54004 0.666 0.44834 0.0
C1299 C 0.50688 0.661 0.41641 0.0
C1300 C 0.48792 0.66765 0.38723 0.0
C1301 C 0.54023 0.64887 0.48807 0.0
C1302 C 0.52403 0.63668 0.48652 0.0
C1303 C 0.50746 0.64331 0.45186 0.0
C1304 C 0.52382 0.61699 0.51896 0.0
C1305 C 0.55777 0.6444 0.53212 0.0
C1306 C 0.53886 0.60398 0.50704 0.0
C1307 C 0.53803 0.58532 0.53395 0.0
C1308 C 0.52178 0.57875 0.57078 0.0
C1309 C 0.50677 0.59175 0.58292 0.0
C1310 C 0.50783 0.61057 0.55788 0.0
H1311 H 0.5645 0.65772 0.55311 0.0
H1312 H 0.55451 0.63515 0.57894 0.0
H1313 H 0.56839 0.6371 0.49683 0.0
H1314 H 0.55116 0.60803 0.4754 0.0
H1315 H 0.55007 0.57597 0.52478 0.0
H1316 H 0.8335 0.50964 0.16363 0.0
H1317 H 0.86128 0.51018 0.24137 0.0
H1318 H 0.83063 0.54388 0.40015 0.0
H1319 H 0.80293 0.5449 0.31816 0.0
H1320 H 0.86419 0.55741 0.39555 0.0
H1321 H 0.87565 0.48009 0.40777 0.0
H1322 H 0.87588 0.4867 0.31438 0.0
H1323 H 0.85445 0.48992 0.36764 0.0
C1324 C 0.8325 0.5173 0.21488 0.0
C1325 C 0.81579 0.52749 0.23341 0.0
C1326 C 0.8485 0.51727 0.26047 0.0
C1327 C 0.84829 0.52669 0.32827 0.0
C1328 C 0.83138 0.53637 0.3485 0.0
H1329 H 0.95084 0.50383 0.59129 0.0
H1330 H 0.91827 0.50476 0.54581 0.0
C1331 C 0.81536 0.53676 0.30179 0.0
C1332 C 0.86605 0.52713 0.37509 0.0
H1333 H 0.90365 0.49953 0.42929 0.0
C1334 C 0.87263 0.54465 0.40386 0.0
C1335 C 0.87713 0.51056 0.38867 0.0
C1336 C 0.87025 0.49077 0.36867 0.0
C1337 C 0.89008 0.54618 0.44227 0.0
C1338 C 0.90205 0.52989 0.44953 0.0
C1339 C 0.89502 0.51226 0.42331 0.0
C1340 C 0.92179 0.53054 0.48325 0.0
C1341 C 0.89507 0.56532 0.47556 0.0
C1342 C 0.93508 0.54489 0.46586 0.0
C1343 C 0.95368 0.54478 0.49466 0.0
C1344 C 0.9601 0.52974 0.53843 0.0
C1345 C 0.94678 0.5155 0.55661 0.0
C1346 C 0.92798 0.51598 0.53003 0.0
H1347 H 0.88201 0.57317 0.4924 0.0
H1348 H 0.90445 0.56394 0.52368 0.0
H1349 H 0.90241 0.57411 0.43442 0.0
H1350 H 0.93129 0.5561 0.42869 0.0
H1351 H 0.96308 0.55642 0.48164 0.0
loop_
_geom_bond_atom_site_label_1
_geom_bond_atom_site_label_2
_geom_bond_distance
_geom_bond_site_symmetry_2
_ccdc_geom_bond_type
H0 C1 0.949 . S
C1 H0 0.949 . S
C1 C2 1.395 . S
C1 C3 1.391 . S
C2 C1 1.395 . S
C2 C5 1.390 . S
C3 C1 1.391 . S
C3 C7 1.387 . S
C3 C8 1.491 . S
H4 C5 0.950 . S
C5 C2 1.390 . S
C5 H4 0.950 . S
C5 C6 1.378 . S
C6 C5 1.378 . S
C6 C7 1.409 . S
C7 C3 1.387 . S
C7 C6 1.409 . S
C7 H9 0.951 . S
C8 C3 1.491 . S
C8 C10 1.382 . S
C8 C12 1.404 . S
H9 C7 0.951 . S
C10 C8 1.382 . S
C10 C11 1.390 . S
C10 H15 0.949 . S
C11 C10 1.390 . S
C11 C16 1.399 . S
C12 C8 1.404 . S
C12 H13 0.950 . S
C12 C14 1.375 . S
H13 C12 0.950 . S
C14 C12 1.375 . S
C14 C16 1.382 . S
C14 H18 0.950 . S
H15 C10 0.949 . S
C16 C11 1.399 . S
C16 C14 1.382 . S
C16 H17 0.952 . S
H17 C16 0.952 . S
H18 C14 0.950 . S
H19 C20 0.949 . S
C20 H19 0.949 . S
C20 C21 1.395 . S
C20 C22 1.391 . S
C21 C20 1.395 . S
C21 C24 1.390 . S
C22 C20 1.391 . S
C22 C26 1.387 . S
C22 C27 1.491 . S
H23 C24 0.950 . S
C24 C21 1.390 . S
C24 H23 0.950 . S
C24 C25 1.378 . S
C25 C24 1.378 . S
C25 C26 1.409 . S
C26 C22 1.387 . S
C26 C25 1.409 . S
C26 H28 0.951 . S
C27 C22 1.491 . S
C27 C29 1.382 . S
C27 C31 1.404 . S
H28 C26 0.951 . S
C29 C27 1.382 . S
C29 C30 1.390 . S
C29 H34 0.949 . S
C30 C29 1.390 . S
C30 C35 1.399 . S
C31 C27 1.404 . S
C31 H32 0.950 . S
C31 C33 1.375 . S
H32 C31 0.950 . S
C33 C31 1.375 . S
C33 C35 1.382 . S
C33 H37 0.950 . S
H34 C29 0.949 . S
C35 C30 1.399 . S
C35 C33 1.382 . S
C35 H36 0.952 . S
H36 C35 0.952 . S
H37 C33 0.950 . S
H38 C39 0.949 . S
C39 H38 0.949 . S
C39 C40 1.395 . S
C39 C41 1.391 . S
C40 C39 1.395 . S
C40 C43 1.390 . S
C41 C39 1.391 . S
C41 C45 1.387 . S
C41 C46 1.491 . S
H42 C43 0.950 . S
C43 C40 1.390 . S
C43 H42 0.950 . S
C43 C44 1.378 . S
C44 C43 1.378 . S
C44 C45 1.409 . S
C45 C41 1.387 . S
C45 C44 1.409 . S
C45 H47 0.951 . S
C46 C41 1.491 . S
C46 C48 1.382 . S
C46 C50 1.404 . S
H47 C45 0.951 . S
C48 C46 1.382 . S
C48 C49 1.390 . S
C48 H53 0.949 . S
C49 C48 1.390 . S
C49 C54 1.399 . S
C50 C46 1.404 . S
C50 H51 0.950 . S
C50 C52 1.375 . S
H51 C50 0.950 . S
C52 C50 1.375 . S
C52 C54 1.382 . S
C52 H56 0.950 . S
H53 C48 0.949 . S
C54 C49 1.399 . S
C54 C52 1.382 . S
C54 H55 0.952 . S
H55 C54 0.952 . S
H56 C52 0.950 . S
H57 C58 0.949 . S
C58 H57 0.949 . S
C58 C59 1.395 . S
C58 C60 1.391 . S
C59 C58 1.395 . S
C59 C62 1.390 . S
C60 C58 1.391 . S
C60 C64 1.387 . S
C60 C65 1.491 . S
H61 C62 0.950 . S
C62 C59 1.390 . S
C62 H61 0.950 . S
C62 C63 1.378 . S
C63 C62 1.378 . S
C63 C64 1.409 . S
C64 C60 1.387 . S
C64 C63 1.409 . S
C64 H66 0.951 . S
C65 C60 1.491 . S
C65 C67 1.382 . S
C65 C69 1.404 . S
H66 C64 0.951 . S
C67 C65 1.382 . S
C67 C68 1.390 . S
C67 H72 0.949 . S
C68 C67 1.390 . S
C68 C73 1.399 . S
C69 C65 1.404 . S
C69 H70 0.950 . S
C69 C71 1.375 . S
H70 C69 0.950 . S
C71 C69 1.375 . S
C71 C73 1.382 . S
C71 H75 0.950 . S
H72 C67 0.949 . S
C73 C68 1.399 . S
C73 C71 1.382 . S
C73 H74 0.952 . S
H74 C73 0.952 . S
H75 C71 0.950 . S
H76 C77 0.949 . S
C77 H76 0.949 . S
C77 C78 1.395 . S
C77 C79 1.391 1_554 S
C78 C77 1.395 . S
C78 C81 1.390 1_554 S
C79 C77 1.391 1_556 S
C79 C83 1.387 . S
C79 C84 1.491 . S
H80 C81 0.950 . S
C81 C78 1.390 1_556 S
C81 H80 0.950 . S
C81 C82 1.378 . S
C82 C81 1.378 . S
C82 C83 1.409 . S
C83 C79 1.387 . S
C83 C82 1.409 . S
C83 H85 0.951 . S
C84 C79 1.491 . S
C84 C86 1.382 1_556 S
C84 C88 1.404 . S
H85 C83 0.951 . S
C86 C84 1.382 1_554 S
C86 C87 1.390 . S
C86 H91 0.949 . S
C87 C86 1.390 . S
C87 C92 1.399 1_554 S
C88 C84 1.404 . S
C88 H89 0.950 . S
C88 C90 1.375 . S
H89 C88 0.950 . S
C90 C88 1.375 . S
C90 C92 1.382 . S
C90 H94 0.950 . S
H91 C86 0.949 . S
C92 C87 1.399 1_556 S
C92 C90 1.382 . S
C92 H93 0.951 1_556 S
H93 C92 0.951 1_554 S
H94 C90 0.950 . S
H95 C96 0.949 . S
C96 H95 0.949 . S
C96 C97 1.395 . S
C96 C98 1.391 1_554 S
C97 C96 1.395 . S
C97 C100 1.390 1_554 S
C98 C96 1.391 1_556 S
C98 C102 1.387 . S
C98 C103 1.491 . S
H99 C100 0.950 . S
C100 C97 1.390 1_556 S
C100 H99 0.950 . S
C100 C101 1.378 . S
C101 C100 1.378 . S
C101 C102 1.409 . S
C102 C98 1.387 . S
C102 C101 1.409 . S
C102 H104 0.951 . S
C103 C98 1.491 . S
C103 C105 1.382 1_556 S
C103 C107 1.404 . S
H104 C102 0.951 . S
C105 C103 1.382 1_554 S
C105 C106 1.390 . S
C105 H110 0.949 . S
C106 C105 1.390 . S
C106 C111 1.399 1_554 S
C107 C103 1.404 . S
C107 H108 0.950 . S
C107 C109 1.375 . S
H108 C107 0.950 . S
C109 C107 1.375 . S
C109 C111 1.382 . S
C109 H113 0.950 . S
H110 C105 0.949 . S
C111 C106 1.399 1_556 S
C111 C109 1.382 . S
C111 H112 0.952 . S
H112 C111 0.952 . S
H113 C109 0.950 . S
H114 C115 0.949 . S
C115 H114 0.949 . S
C115 C116 1.395 . S
C115 C117 1.391 1_554 S
C116 C115 1.395 . S
C116 C119 1.390 1_554 S
C117 C115 1.391 1_556 S
C117 C121 1.387 . S
C117 C122 1.491 . S
H118 C119 0.950 . S
C119 C116 1.390 1_556 S
C119 H118 0.950 . S
C119 C120 1.378 . S
C120 C119 1.378 . S
C120 C121 1.409 . S
C121 C117 1.387 . S
C121 C120 1.409 . S
C121 H123 0.951 . S
C122 C117 1.491 . S
C122 C124 1.382 1_556 S
C122 C126 1.404 . S
H123 C121 0.951 . S
C124 C122 1.382 1_554 S
C124 C125 1.390 . S
C124 H129 0.949 . S
C125 C124 1.390 . S
C125 C130 1.399 1_554 S
C126 C122 1.404 . S
C126 H127 0.950 . S
C126 C128 1.375 . S
H127 C126 0.950 . S
C128 C126 1.375 . S
C128 C130 1.382 . S
C128 H132 0.950 . S
H129 C124 0.949 . S
C130 C125 1.399 1_556 S
C130 C128 1.382 . S
C130 H131 0.952 . S
H131 C130 0.952 . S
H132 C128 0.950 . S
H133 C134 0.949 . S
C134 H133 0.949 . S
C134 C135 1.395 . S
C134 C136 1.391 1_554 S
C135 C134 1.395 . S
C135 C138 1.390 1_554 S
C136 C134 1.391 1_556 S
C136 C140 1.387 . S
C136 C141 1.491 . S
H137 C138 0.950 . S
C138 C135 1.390 1_556 S
C138 H137 0.950 . S
C138 C139 1.378 . S
C139 C138 1.378 . S
C139 C140 1.409 . S
C140 C136 1.387 . S
C140 C139 1.409 . S
C140 H142 0.951 . S
C141 C136 1.491 . S
C141 C143 1.382 1_556 S
C141 C145 1.404 . S
H142 C140 0.951 . S
C143 C141 1.382 1_554 S
C143 C144 1.390 . S
C143 H148 0.949 . S
C144 C143 1.390 . S
C144 C149 1.396 1_554 S
C145 C141 1.404 . S
C145 H146 0.950 . S
C145 C147 1.375 . S
H146 C145 0.950 . S
C147 C145 1.375 . S
C147 C149 1.385 . S
C147 H151 0.950 . S
H148 C143 0.949 . S
C149 C144 1.396 1_556 S
C149 C147 1.385 . S
C149 H150 0.951 1_556 S
H150 C149 0.951 1_554 S
H151 C147 0.950 . S
Tb152 N183 2.660 1_565 S
Tb152 N190 2.600 1_565 S
Tb152 O196 2.546 . S
Tb152 O197 2.610 1_455 S
Tb152 O199 2.320 1_465 S
Tb152 O200 2.552 . S
Tb152 O201 2.413 . S
Tb152 O203 2.362 1_565 S
Tb152 O204 2.420 . S
Tb152 C216 2.833 . S
C153 C156 1.431 . S
C153 C157 1.414 . S
C153 N160 1.359 . S
C154 C156 1.418 1_565 S
C154 C158 1.432 . S
C154 C166 1.410 . S
C155 C157 1.444 1_565 S
C155 C158 1.317 . S
C155 H178 0.929 . S
C156 C153 1.431 . S
C156 C154 1.418 1_545 S
C156 N164 1.359 . S
C157 C153 1.414 . S
C157 C155 1.444 1_545 S
C157 C162 1.385 . S
C158 C154 1.432 . S
C158 C155 1.317 . S
C158 H170 0.930 . S
C159 C161 1.392 . S
C159 C162 1.370 . S
C159 H171 0.931 . S
N160 C153 1.359 . S
N160 C161 1.327 . S
N160 Tb163 2.600 . S
C161 C159 1.392 . S
C161 N160 1.327 . S
C161 H168 0.930 . S
C162 C157 1.385 . S
C162 C159 1.370 . S
C162 H181 0.930 . S
Tb163 N160 2.600 . S
Tb163 N164 2.660 . S
Tb163 O197 2.362 1_545 S
Tb163 O198 2.421 . S
Tb163 O202 2.546 . S
Tb163 O203 2.610 1_655 S
Tb163 O205 2.320 1_655 S
Tb163 O206 2.552 1_655 S
Tb163 O207 2.413 1_655 S
Tb163 C227 2.833 . S
N164 C156 1.359 . S
N164 Tb163 2.660 . S
N164 C165 1.305 1_645 S
C165 N164 1.305 1_465 S
C165 C167 1.407 . S
C165 H172 0.930 . S
C166 C154 1.410 . S
C166 C167 1.345 1_655 S
C166 H174 0.930 . S
C167 C165 1.407 . S
C167 C166 1.345 1_455 S
C167 H169 0.930 . S
H168 C161 0.930 . S
H169 C167 0.930 . S
H170 C158 0.930 . S
H171 C159 0.931 . S
H172 C165 0.930 . S
H173 C187 0.887 1_655 S
H174 C166 0.930 . S
H175 C193 0.930 . S
H176 C184 0.930 1_655 S
H177 C191 0.931 . S
H178 C155 0.929 . S
H179 C185 0.930 . S
H180 C218 0.930 . S
H181 C162 0.930 . S
H182 C217 0.929 . S
N183 Tb152 2.660 1_545 S
N183 C184 1.305 . S
N183 C188 1.360 . S
C184 H176 0.930 1_455 S
C184 N183 1.305 . S
C184 C187 1.411 . S
C185 H179 0.930 . S
C185 C186 1.410 . S
C185 C187 1.386 . S
C186 C185 1.410 . S
C186 C188 1.417 . S
C186 C218 1.432 . S
C187 H173 0.887 1_455 S
C187 C184 1.411 . S
C187 C185 1.386 . S
C188 N183 1.360 . S
C188 C186 1.417 . S
C188 C192 1.432 . S
H189 C194 0.930 . S
N190 Tb152 2.600 1_545 S
N190 C192 1.359 . S
N190 C193 1.327 1_545 S
C191 H177 0.931 . S
C191 C193 1.392 . S
C191 C194 1.370 1_565 S
C192 C188 1.432 . S
C192 N190 1.359 . S
C192 C195 1.414 . S
C193 H175 0.930 . S
C193 N190 1.327 1_565 S
C193 C191 1.392 . S
C194 H189 0.930 . S
C194 C191 1.370 1_545 S
C194 C195 1.385 . S
C195 C192 1.414 . S
C195 C194 1.385 . S
C195 C217 1.444 . S
O196 Tb152 2.546 . S
O196 C216 1.251 . S
O197 Tb152 2.610 1_655 S
O197 Tb163 2.362 1_565 S
O197 C208 1.283 . S
O198 Tb163 2.421 . S
O198 C215 1.262 . S
O199 Tb152 2.320 1_645 S
O199 C215 1.260 . S
O200 Tb152 2.552 . S
O200 C208 1.243 1_455 S
O201 Tb152 2.413 . S
O201 C216 1.256 . S
O202 Tb163 2.546 . S
O202 C227 1.251 . S
O203 Tb152 2.362 1_545 S
O203 Tb163 2.610 1_455 S
O203 C219 1.283 . S
O204 Tb152 2.420 . S
O204 C226 1.267 1_565 S
O205 Tb163 2.320 1_455 S
O205 C226 1.260 . S
O206 Tb163 2.552 1_455 S
O206 C219 1.243 . S
O207 Tb163 2.413 1_455 S
O207 C227 1.256 1_455 S
C208 O197 1.283 . S
C208 O200 1.243 1_655 S
C209 C211 1.382 . S
C209 C213 1.393 . S
C209 C216 1.500 . S
C210 C211 1.400 . S
C210 C212 1.384 . S
C211 C209 1.382 . S
C211 C210 1.400 . S
C211 H228 0.930 1_455 S
C212 C210 1.384 . S
C212 C214 1.392 . S
C212 H229 0.931 . S
C213 C209 1.393 . S
C213 C214 1.401 . S
C213 H230 0.930 . S
C214 C212 1.392 . S
C214 C213 1.401 . S
C214 H231 0.930 . S
C215 O198 1.262 . S
C215 O199 1.260 . S
C216 Tb152 2.833 . S
C216 O196 1.251 . S
C216 O201 1.256 . S
C216 C209 1.500 . S
C217 H182 0.929 . S
C217 C195 1.444 . S
C217 C218 1.317 . S
C218 H180 0.930 . S
C218 C186 1.432 . S
C218 C217 1.317 . S
C219 O203 1.283 . S
C219 O206 1.243 . S
C220 C221 1.382 1_655 S
C220 C224 1.393 . S
C220 C227 1.500 . S
C221 C220 1.382 1_455 S
C221 C222 1.400 . S
C221 H232 0.930 . S
C222 C221 1.400 . S
C222 C223 1.384 1_455 S
C223 C222 1.384 1_655 S
C223 C225 1.392 . S
C223 H233 0.931 . S
C224 C220 1.393 . S
C224 C225 1.401 . S
C224 H234 0.930 . S
C225 C223 1.392 . S
C225 C224 1.401 . S
C225 H235 0.930 . S
C226 O204 1.267 1_545 S
C226 O205 1.260 . S
C227 Tb163 2.833 . S
C227 O202 1.251 . S
C227 O207 1.256 1_655 S
C227 C220 1.500 . S
H228 C211 0.930 1_655 S
H229 C212 0.931 . S
H230 C213 0.930 . S
H231 C214 0.930 . S
H232 C221 0.930 . S
H233 C223 0.931 . S
H234 C224 0.930 . S
H235 C225 0.930 . S
Tb236 N267 2.660 . S
Tb236 N274 2.600 . S
Tb236 O280 2.546 . S
Tb236 O281 2.610 . S
Tb236 O283 2.320 1_545 S
Tb236 O284 2.552 . S
Tb236 O285 2.413 . S
Tb236 O287 2.362 . S
Tb236 O288 2.421 . S
Tb236 C300 2.833 . S
C237 C240 1.432 . S
C237 C241 1.414 . S
C237 N244 1.359 . S
C238 C240 1.417 . S
C238 C242 1.432 . S
C238 C250 1.432 . S
C239 C241 1.444 . S
C239 C242 1.317 . S
C239 H262 0.929 . S
C240 C237 1.432 . S
C240 C238 1.417 . S
C240 N248 1.360 . S
C241 C237 1.414 . S
C241 C239 1.444 . S
C241 C246 1.385 . S
C242 C238 1.432 . S
C242 C239 1.317 . S
C242 H254 0.930 . S
C243 C245 1.392 . S
C243 C246 1.370 . S
C243 H255 0.931 . S
N244 C237 1.359 . S
N244 C245 1.327 . S
N244 Tb247 2.600 . S
C245 C243 1.392 . S
C245 N244 1.327 . S
C245 H252 0.930 . S
C246 C241 1.385 . S
C246 C243 1.370 . S
C246 H265 0.930 . S
Tb247 N244 2.600 . S
Tb247 N248 2.660 . S
Tb247 O281 2.362 1_565 S
Tb247 O282 2.421 . S
Tb247 O286 2.546 . S
Tb247 O287 2.610 1_565 S
Tb247 O289 2.320 1_565 S
Tb247 O290 2.552 1_565 S
Tb247 O291 2.413 1_565 S
Tb247 C311 2.833 . S
N248 C240 1.360 . S
N248 Tb247 2.660 . S
N248 C249 1.305 1_565 S
C249 N248 1.305 1_545 S
C249 C251 1.407 . S
C249 H256 0.930 . S
C250 C238 1.432 . S
C250 C251 1.324 1_565 S
C250 H258 0.929 1_565 S
C251 C249 1.407 . S
C251 C250 1.324 1_545 S
C251 H253 0.930 . S
H252 C245 0.930 . S
H253 C251 0.930 . S
H254 C242 0.930 . S
H255 C243 0.931 . S
H256 C249 0.930 . S
H257 C271 0.930 1_565 S
H258 C250 0.929 1_545 S
H259 C277 0.930 . S
H260 C268 0.930 1_565 S
H261 C275 0.931 . S
H262 C239 0.929 . S
H263 C269 0.930 . S
H264 C302 0.930 . S
H265 C246 0.930 . S
H266 C301 0.929 . S
N267 Tb236 2.660 . S
N267 C268 1.305 . S
N267 C272 1.360 . S
C268 H260 0.930 1_545 S
C268 N267 1.305 . S
C268 C271 1.407 . S
C269 H263 0.930 . S
C269 C270 1.410 . S
C269 C271 1.345 . S
C270 C269 1.410 . S
C270 C272 1.417 . S
C270 C302 1.432 . S
C271 H257 0.930 1_545 S
C271 C268 1.407 . S
C271 C269 1.345 . S
C272 N267 1.360 . S
C272 C270 1.417 . S
C272 C276 1.432 . S
H273 C278 0.930 . S
N274 Tb236 2.600 . S
N274 C276 1.359 . S
N274 C277 1.327 . S
C275 H261 0.931 . S
C275 C277 1.392 . S
C275 C278 1.370 . S
C276 C272 1.432 . S
C276 N274 1.359 . S
C276 C279 1.414 . S
C277 H259 0.930 . S
C277 N274 1.327 . S
C277 C275 1.392 . S
C278 H273 0.930 . S
C278 C275 1.370 . S
C278 C279 1.385 . S
C279 C276 1.414 . S
C279 C278 1.385 . S
C279 C301 1.444 . S
O280 Tb236 2.546 . S
O280 C300 1.251 . S
O281 Tb236 2.610 . S
O281 Tb247 2.362 1_545 S
O281 C292 1.283 . S
O282 Tb247 2.421 . S
O282 C299 1.262 . S
O283 Tb236 2.320 1_565 S
O283 C299 1.260 . S
O284 Tb236 2.552 . S
O284 C292 1.243 . S
O285 Tb236 2.413 . S
O285 C300 1.256 . S
O286 Tb247 2.546 . S
O286 C311 1.251 . S
O287 Tb236 2.362 . S
O287 Tb247 2.610 1_545 S
O287 C303 1.283 . S
O288 Tb236 2.421 . S
O288 C310 1.262 . S
O289 Tb247 2.320 1_545 S
O289 C310 1.260 . S
O290 Tb247 2.552 1_545 S
O290 C303 1.243 . S
O291 Tb247 2.413 1_545 S
O291 C311 1.256 1_545 S
C292 O281 1.283 . S
C292 O284 1.243 . S
C293 C295 1.382 . S
C293 C297 1.393 . S
C293 C300 1.500 . S
C294 C295 1.400 . S
C294 C296 1.384 . S
C295 C293 1.382 . S
C295 C294 1.400 . S
C295 H312 0.930 . S
C296 C294 1.384 . S
C296 C298 1.392 . S
C296 H313 0.931 . S
C297 C293 1.393 . S
C297 C298 1.401 . S
C297 H314 0.930 . S
C298 C296 1.392 . S
C298 C297 1.401 . S
C298 H315 0.930 . S
C299 O282 1.262 . S
C299 O283 1.260 . S
C300 Tb236 2.833 . S
C300 O280 1.251 . S
C300 O285 1.256 . S
C300 C293 1.500 . S
C301 H266 0.929 . S
C301 C279 1.444 . S
C301 C302 1.317 . S
C302 H264 0.930 . S
C302 C270 1.432 . S
C302 C301 1.317 . S
C303 O287 1.283 . S
C303 O290 1.243 . S
C304 C305 1.382 1_565 S
C304 C308 1.393 . S
C304 C311 1.500 . S
C305 C304 1.382 1_545 S
C305 C306 1.400 . S
C305 H316 0.930 . S
C306 C305 1.400 . S
C306 C307 1.384 1_545 S
C307 C306 1.384 1_565 S
C307 C309 1.392 . S
C307 H317 0.931 . S
C308 C304 1.393 . S
C308 C309 1.401 . S
C308 H318 0.930 . S
C309 C307 1.392 . S
C309 C308 1.401 . S
C309 H319 0.930 . S
C310 O288 1.262 . S
C310 O289 1.260 . S
C311 Tb247 2.833 . S
C311 O286 1.251 . S
C311 O291 1.256 1_565 S
C311 C304 1.500 . S
H312 C295 0.930 . S
H313 C296 0.931 . S
H314 C297 0.930 . S
H315 C298 0.930 . S
H316 C305 0.930 . S
H317 C307 0.931 . S
H318 C308 0.930 . S
H319 C309 0.930 . S
Tb320 N351 2.660 . S
Tb320 N358 2.600 . S
Tb320 O364 2.546 . S
Tb320 O365 2.610 . S
Tb320 O367 2.320 . S
Tb320 O368 2.552 . S
Tb320 O369 2.413 . S
Tb320 O371 2.362 . S
Tb320 O372 2.421 . S
Tb320 C384 2.833 . S
C321 C324 1.432 . S
C321 C325 1.414 . S
C321 N328 1.359 . S
C322 C324 1.417 . S
C322 C326 1.432 . S
C322 C334 1.410 . S
C323 C325 1.444 . S
C323 C326 1.317 . S
C323 H346 0.929 . S
C324 C321 1.432 . S
C324 C322 1.417 . S
C324 N332 1.360 . S
C325 C321 1.414 . S
C325 C323 1.444 . S
C325 C330 1.385 . S
C326 C322 1.432 . S
C326 C323 1.317 . S
C326 H338 0.930 . S
C327 C329 1.392 . S
C327 C330 1.370 . S
C327 H339 0.931 . S
N328 C321 1.359 . S
N328 C329 1.327 . S
N328 Tb331 2.600 . S
C329 C327 1.392 . S
C329 N328 1.327 . S
C329 H336 0.930 . S
C330 C325 1.385 . S
C330 C327 1.370 . S
C330 H349 0.930 . S
Tb331 N328 2.600 . S
Tb331 N332 2.660 . S
Tb331 O365 2.362 . S
Tb331 O366 2.421 . S
Tb331 O370 2.546 . S
Tb331 O371 2.610 . S
Tb331 O373 2.320 . S
Tb331 O374 2.552 . S
Tb331 O375 2.413 . S
Tb331 C395 2.833 . S
N332 C324 1.360 . S
N332 Tb331 2.660 . S
N332 C333 1.305 . S
C333 N332 1.305 . S
C333 C335 1.407 . S
C333 H340 0.930 . S
C334 C322 1.410 . S
C334 C335 1.345 . S
C334 H342 0.930 . S
C335 C333 1.407 . S
C335 C334 1.345 . S
C335 H337 0.930 . S
H336 C329 0.930 . S
H337 C335 0.930 . S
H338 C326 0.930 . S
H339 C327 0.931 . S
H340 C333 0.930 . S
H341 C355 0.930 . S
H342 C334 0.930 . S
H343 C361 0.930 . S
H344 C352 0.930 . S
H345 C359 0.931 . S
H346 C323 0.929 . S
H347 C353 0.930 . S
H348 C386 0.930 . S
H349 C330 0.930 . S
H350 C385 0.929 . S
N351 Tb320 2.660 . S
N351 C352 1.305 . S
N351 C356 1.360 . S
C352 H344 0.930 . S
C352 N351 1.305 . S
C352 C355 1.407 . S
C353 H347 0.930 . S
C353 C354 1.410 . S
C353 C355 1.345 . S
C354 C353 1.410 . S
C354 C356 1.417 . S
C354 C386 1.432 . S
C355 H341 0.930 . S
C355 C352 1.407 . S
C355 C353 1.345 . S
C356 N351 1.360 . S
C356 C354 1.417 . S
C356 C360 1.432 . S
H357 C362 0.930 . S
N358 Tb320 2.600 . S
N358 C360 1.359 . S
N358 C361 1.327 . S
C359 H345 0.931 . S
C359 C361 1.392 . S
C359 C362 1.370 . S
C360 C356 1.432 . S
C360 N358 1.359 . S
C360 C363 1.414 . S
C361 H343 0.930 . S
C361 N358 1.327 . S
C361 C359 1.392 . S
C362 H357 0.930 . S
C362 C359 1.370 . S
C362 C363 1.385 . S
C363 C360 1.414 . S
C363 C362 1.385 . S
C363 C385 1.444 . S
O364 Tb320 2.546 . S
O364 C384 1.251 . S
O365 Tb320 2.610 . S
O365 Tb331 2.362 . S
O365 C376 1.283 . S
O366 Tb331 2.421 . S
O366 C383 1.262 . S
O367 Tb320 2.320 . S
O367 C383 1.260 . S
O368 Tb320 2.552 . S
O368 C376 1.243 . S
O369 Tb320 2.413 . S
O369 C384 1.256 . S
O370 Tb331 2.546 . S
O370 C395 1.251 . S
O371 Tb320 2.362 . S
O371 Tb331 2.610 . S
O371 C387 1.283 . S
O372 Tb320 2.421 . S
O372 C394 1.262 . S
O373 Tb331 2.320 . S
O373 C394 1.260 . S
O374 Tb331 2.552 . S
O374 C387 1.243 . S
O375 Tb331 2.413 . S
O375 C395 1.256 . S
C376 O365 1.283 . S
C376 O368 1.243 . S
C377 C379 1.382 . S
C377 C381 1.393 . S
C377 C384 1.500 . S
C378 C379 1.400 . S
C378 C380 1.384 . S
C379 C377 1.382 . S
C379 C378 1.400 . S
C379 H396 0.930 . S
C380 C378 1.384 . S
C380 C382 1.392 . S
C380 H397 0.931 . S
C381 C377 1.393 . S
C381 C382 1.401 . S
C381 H398 0.930 . S
C382 C380 1.392 . S
C382 C381 1.401 . S
C382 H399 0.930 . S
C383 O366 1.262 . S
C383 O367 1.260 . S
C384 Tb320 2.833 . S
C384 O364 1.251 . S
C384 O369 1.256 . S
C384 C377 1.500 . S
C385 H350 0.929 . S
C385 C363 1.444 . S
C385 C386 1.317 . S
C386 H348 0.930 . S
C386 C354 1.432 . S
C386 C385 1.317 . S
C387 O371 1.283 . S
C387 O374 1.243 . S
C388 C389 1.382 . S
C388 C392 1.393 . S
C388 C395 1.500 . S
C389 C388 1.382 . S
C389 C390 1.400 . S
C389 H400 0.930 . S
C390 C389 1.400 . S
C390 C391 1.384 . S
C391 C390 1.384 . S
C391 C393 1.392 . S
C391 H401 0.931 . S
C392 C388 1.393 . S
C392 C393 1.401 . S
C392 H402 0.930 . S
C393 C391 1.392 . S
C393 C392 1.401 . S
C393 H403 0.930 1_556 S
C394 O372 1.262 . S
C394 O373 1.260 . S
C395 Tb331 2.833 . S
C395 O370 1.251 . S
C395 O375 1.256 . S
C395 C388 1.500 . S
H396 C379 0.930 . S
H397 C380 0.931 . S
H398 C381 0.930 . S
H399 C382 0.930 . S
H400 C389 0.930 . S
H401 C391 0.931 . S
H402 C392 0.930 . S
H403 C393 0.930 1_554 S
Tb404 N435 2.660 . S
Tb404 N442 2.600 . S
Tb404 O448 2.546 . S
Tb404 O449 2.610 . S
Tb404 O451 2.320 . S
Tb404 O452 2.552 . S
Tb404 O453 2.413 . S
Tb404 O455 2.362 . S
Tb404 O456 2.421 1_455 S
Tb404 C468 2.833 . S
C405 C408 1.432 . S
C405 C409 1.414 . S
C405 N412 1.359 . S
C406 C408 1.417 . S
C406 C410 1.432 . S
C406 C418 1.410 . S
C407 C409 1.444 . S
C407 C410 1.317 . S
C407 H430 0.929 . S
C408 C405 1.432 . S
C408 C406 1.417 . S
C408 N416 1.360 . S
C409 C405 1.414 . S
C409 C407 1.444 . S
C409 C414 1.385 1_655 S
C410 C406 1.432 . S
C410 C407 1.317 . S
C410 H422 0.930 . S
C411 C413 1.392 . S
C411 C414 1.370 . S
C411 H423 0.931 . S
N412 C405 1.359 . S
N412 C413 1.327 1_655 S
N412 Tb415 2.600 . S
C413 C411 1.392 . S
C413 N412 1.327 1_455 S
C413 H420 0.930 . S
C414 C409 1.385 1_455 S
C414 C411 1.370 . S
C414 H433 0.930 . S
Tb415 N412 2.600 . S
Tb415 N416 2.660 . S
Tb415 O449 2.362 1_655 S
Tb415 O450 2.421 1_655 S
Tb415 O454 2.546 . S
Tb415 O455 2.610 1_655 S
Tb415 O457 2.320 . S
Tb415 O458 2.552 . S
Tb415 O459 2.413 . S
Tb415 C479 2.833 . S
N416 C408 1.360 . S
N416 Tb415 2.660 . S
N416 C417 1.305 . S
C417 N416 1.305 . S
C417 C419 1.407 . S
C417 H424 0.930 . S
C418 C406 1.410 . S
C418 C419 1.345 . S
C418 H426 0.930 . S
C419 C417 1.407 . S
C419 C418 1.345 . S
C419 H421 0.930 . S
H420 C413 0.930 . S
H421 C419 0.930 . S
H422 C410 0.930 . S
H423 C411 0.931 . S
H424 C417 0.930 . S
H425 C439 0.930 . S
H426 C418 0.930 . S
H427 C445 0.930 1_655 S
H428 C436 0.930 . S
H429 C443 0.931 1_655 S
H430 C407 0.929 . S
H431 C437 0.930 . S
H432 C470 0.930 . S
H433 C414 0.930 . S
H434 C469 0.929 . S
N435 Tb404 2.660 . S
N435 C436 1.305 . S
N435 C440 1.360 . S
C436 H428 0.930 . S
C436 N435 1.305 . S
C436 C439 1.407 . S
C437 H431 0.930 . S
C437 C438 1.410 . S
C437 C439 1.345 . S
C438 C437 1.410 . S
C438 C440 1.417 . S
C438 C470 1.432 . S
C439 H425 0.930 . S
C439 C436 1.407 . S
C439 C437 1.345 . S
C440 N435 1.360 . S
C440 C438 1.417 . S
C440 C444 1.432 . S
H441 C446 0.930 . S
N442 Tb404 2.600 . S
N442 C444 1.359 . S
N442 C445 1.327 . S
C443 H429 0.931 1_455 S
C443 C445 1.392 . S
C443 C446 1.370 . S
C444 C440 1.432 . S
C444 N442 1.359 . S
C444 C447 1.414 . S
C445 H427 0.930 1_455 S
C445 N442 1.327 . S
C445 C443 1.392 . S
C446 H441 0.930 . S
C446 C443 1.370 . S
C446 C447 1.385 . S
C447 C444 1.414 . S
C447 C446 1.385 . S
C447 C469 1.444 . S
O448 Tb404 2.546 . S
O448 C468 1.251 . S
O449 Tb404 2.610 . S
O449 Tb415 2.362 1_455 S
O449 C460 1.283 . S
O450 Tb415 2.421 1_455 S
O450 C467 1.262 . S
O451 Tb404 2.320 . S
O451 C467 1.260 . S
O452 Tb404 2.552 . S
O452 C460 1.243 . S
O453 Tb404 2.413 . S
O453 C468 1.256 . S
O454 Tb415 2.546 . S
O454 C479 1.251 . S
O455 Tb404 2.362 . S
O455 Tb415 2.610 1_455 S
O455 C471 1.283 1_455 S
O456 Tb404 2.421 1_655 S
O456 C478 1.262 . S
O457 Tb415 2.320 . S
O457 C478 1.260 . S
O458 Tb415 2.552 . S
O458 C471 1.243 . S
O459 Tb415 2.413 . S
O459 C479 1.256 . S
C460 O449 1.283 . S
C460 O452 1.243 . S
C461 C463 1.382 . S
C461 C465 1.393 . S
C461 C468 1.500 . S
C462 C463 1.400 . S
C462 C464 1.384 . S
C463 C461 1.382 . S
C463 C462 1.400 . S
C463 H480 0.930 . S
C464 C462 1.384 . S
C464 C466 1.392 . S
C464 H481 0.931 . S
C465 C461 1.393 . S
C465 C466 1.401 . S
C465 H482 0.930 . S
C466 C464 1.392 . S
C466 C465 1.401 . S
C466 H483 0.930 . S
C467 O450 1.262 . S
C467 O451 1.260 . S
C468 Tb404 2.833 . S
C468 O448 1.251 . S
C468 O453 1.256 . S
C468 C461 1.500 . S
C469 H434 0.929 . S
C469 C447 1.444 . S
C469 C470 1.317 . S
C470 H432 0.930 . S
C470 C438 1.432 . S
C470 C469 1.317 . S
C471 O455 1.283 1_655 S
C471 O458 1.243 . S
C472 C473 1.382 . S
C472 C476 1.393 . S
C472 C479 1.500 . S
C473 C472 1.382 . S
C473 C474 1.400 . S
C473 H484 0.930 . S
C474 C473 1.400 . S
C474 C475 1.384 . S
C475 C474 1.384 . S
C475 C477 1.392 . S
C475 H485 0.931 . S
C476 C472 1.393 . S
C476 C477 1.401 . S
C476 H486 0.930 . S
C477 C475 1.392 . S
C477 C476 1.401 . S
C477 H487 0.930 1_556 S
C478 O456 1.262 . S
C478 O457 1.260 . S
C479 Tb415 2.833 . S
C479 O454 1.251 . S
C479 O459 1.256 . S
C479 C472 1.500 . S
H480 C463 0.930 . S
H481 C464 0.931 . S
H482 C465 0.930 . S
H483 C466 0.930 . S
H484 C473 0.930 . S
H485 C475 0.931 . S
H486 C476 0.930 . S
H487 C477 0.930 1_554 S
H488 C496 0.929 . S
H489 C498 0.930 . S
H490 C500 0.930 . S
H491 C503 0.929 . S
H492 C506 0.930 . S
H493 C508 0.960 . S
H494 C508 0.960 . S
H495 C508 0.960 . S
C496 H488 0.929 . S
C496 C497 1.377 . S
C496 C498 1.384 . S
C497 C496 1.377 . S
C497 C503 1.390 . S
C498 H489 0.930 . S
C498 C496 1.384 . S
C498 C499 1.372 . S
C499 C498 1.372 . S
C499 C500 1.400 . S
C499 C504 1.490 . S
C500 H490 0.930 . S
C500 C499 1.400 . S
C500 C503 1.386 . S
H501 C517 0.930 . S
H502 C518 0.931 . S
C503 H491 0.929 . S
C503 C497 1.390 . S
C503 C500 1.386 . S
C504 C499 1.490 . S
C504 C506 1.395 . S
C504 C507 1.403 . S
H505 C511 0.930 . S
C506 H492 0.930 . S
C506 C504 1.395 . S
C506 C509 1.403 . S
C507 C504 1.403 . S
C507 C508 1.524 . S
C507 C511 1.400 . S
C508 H493 0.960 . S
C508 H494 0.960 . S
C508 H495 0.960 . S
C508 C507 1.524 . S
C509 C506 1.403 . S
C509 C510 1.392 . S
C509 C513 1.495 . S
C510 C509 1.392 . S
C510 C511 1.385 . S
C510 C512 1.478 . S
C511 H505 0.930 . S
C511 C507 1.400 . S
C511 C510 1.385 . S
C512 C510 1.478 . S
C512 C514 1.381 . S
C512 C518 1.383 . S
C513 C509 1.495 . S
C513 H519 0.959 . S
C513 H520 0.961 . S
C513 H521 0.960 . S
C514 C512 1.381 . S
C514 C515 1.394 . S
C514 H522 0.930 . S
C515 C514 1.394 . S
C515 C516 1.383 . S
C515 H523 0.970 . S
C516 C515 1.383 . S
C516 C517 1.377 . S
C517 H501 0.930 . S
C517 C516 1.377 . S
C517 C518 1.379 . S
C518 H502 0.931 . S
C518 C512 1.383 . S
C518 C517 1.379 . S
H519 C513 0.959 . S
H520 C513 0.961 . S
H521 C513 0.960 . S
H522 C514 0.930 . S
H523 C515 0.970 . S
H524 C532 0.929 . S
H525 C534 0.930 . S
H526 C536 0.930 . S
H527 C539 0.929 . S
H528 C542 0.930 . S
H529 C544 0.960 . S
H530 C544 0.960 . S
H531 C544 0.960 . S
C532 H524 0.929 . S
C532 C533 1.377 . S
C532 C534 1.384 . S
C533 C532 1.377 . S
C533 C539 1.390 . S
C534 H525 0.930 . S
C534 C532 1.384 . S
C534 C535 1.372 . S
C535 C534 1.372 . S
C535 C536 1.400 . S
C535 C540 1.490 . S
C536 H526 0.930 . S
C536 C535 1.400 . S
C536 C539 1.386 . S
H537 C553 0.930 . S
H538 C554 0.931 . S
C539 H527 0.929 . S
C539 C533 1.390 . S
C539 C536 1.386 . S
C540 C535 1.490 . S
C540 C542 1.395 . S
C540 C543 1.403 . S
H541 C547 0.930 . S
C542 H528 0.930 . S
C542 C540 1.395 . S
C542 C545 1.403 . S
C543 C540 1.403 . S
C543 C544 1.524 . S
C543 C547 1.400 . S
C544 H529 0.960 . S
C544 H530 0.960 . S
C544 H531 0.960 . S
C544 C543 1.524 . S
C545 C542 1.403 . S
C545 C546 1.392 . S
C545 C549 1.495 . S
C546 C545 1.392 . S
C546 C547 1.385 . S
C546 C548 1.478 . S
C547 H541 0.930 . S
C547 C543 1.400 . S
C547 C546 1.385 . S
C548 C546 1.478 . S
C548 C550 1.381 . S
C548 C554 1.383 . S
C549 C545 1.495 . S
C549 H555 0.959 . S
C549 H556 0.961 . S
C549 H557 0.960 . S
C550 C548 1.381 . S
C550 C551 1.394 . S
C550 H558 0.930 . S
C551 C550 1.394 . S
C551 C552 1.383 . S
C551 H559 0.929 . S
C552 C551 1.383 . S
C552 C553 1.377 . S
C553 H537 0.930 . S
C553 C552 1.377 . S
C553 C554 1.379 . S
C554 H538 0.931 . S
C554 C548 1.383 . S
C554 C553 1.379 . S
H555 C549 0.959 . S
H556 C549 0.961 . S
H557 C549 0.960 . S
H558 C550 0.930 . S
H559 C551 0.929 . S
H560 C568 0.929 . S
H561 C570 0.930 . S
H562 C572 0.930 . S
H563 C575 0.929 . S
H564 C578 0.930 . S
H565 C580 0.960 . S
H566 C580 0.960 . S
H567 C580 0.960 . S
C568 H560 0.929 . S
C568 C569 1.377 . S
C568 C570 1.384 . S
C569 C568 1.377 . S
C569 C575 1.390 . S
C570 H561 0.930 . S
C570 C568 1.384 . S
C570 C571 1.372 . S
C571 C570 1.372 . S
C571 C572 1.400 . S
C571 C576 1.490 . S
C572 H562 0.930 . S
C572 C571 1.400 . S
C572 C575 1.386 . S
H573 C589 0.930 . S
H574 C590 0.931 . S
C575 H563 0.929 . S
C575 C569 1.390 . S
C575 C572 1.386 . S
C576 C571 1.490 . S
C576 C578 1.395 . S
C576 C579 1.403 . S
H577 C583 0.930 . S
C578 H564 0.930 . S
C578 C576 1.395 . S
C578 C581 1.403 . S
C579 C576 1.403 . S
C579 C580 1.524 . S
C579 C583 1.400 . S
C580 H565 0.960 . S
C580 H566 0.960 . S
C580 H567 0.960 . S
C580 C579 1.524 . S
C581 C578 1.403 . S
C581 C582 1.392 . S
C581 C585 1.495 . S
C582 C581 1.392 . S
C582 C583 1.385 . S
C582 C584 1.478 . S
C583 H577 0.930 . S
C583 C579 1.400 . S
C583 C582 1.385 . S
C584 C582 1.478 . S
C584 C586 1.381 . S
C584 C590 1.383 . S
C585 C581 1.495 . S
C585 H591 0.959 . S
C585 H592 0.961 . S
C585 H593 0.960 . S
C586 C584 1.381 . S
C586 C587 1.394 . S
C586 H594 0.930 . S
C587 C586 1.394 . S
C587 C588 1.383 . S
C587 H595 0.929 . S
C588 C587 1.383 . S
C588 C589 1.377 . S
C589 H573 0.930 . S
C589 C588 1.377 . S
C589 C590 1.379 . S
C590 H574 0.931 . S
C590 C584 1.383 . S
C590 C589 1.379 . S
H591 C585 0.959 . S
H592 C585 0.961 . S
H593 C585 0.960 . S
H594 C586 0.930 . S
H595 C587 0.929 . S
H596 C604 0.929 . S
H597 C606 0.930 . S
H598 C608 0.930 . S
H599 C611 0.929 . S
H600 C614 0.930 . S
H601 C616 0.960 . S
H602 C616 0.960 . S
H603 C616 0.960 . S
C604 H596 0.929 . S
C604 C605 1.377 . S
C604 C606 1.384 . S
C605 C604 1.377 . S
C605 C611 1.390 . S
C606 H597 0.930 . S
C606 C604 1.384 . S
C606 C607 1.372 . S
C607 C606 1.372 . S
C607 C608 1.400 . S
C607 C612 1.490 . S
C608 H598 0.930 . S
C608 C607 1.400 . S
C608 C611 1.386 . S
H609 C625 0.930 . S
H610 C626 0.931 . S
C611 H599 0.929 . S
C611 C605 1.390 . S
C611 C608 1.386 . S
C612 C607 1.490 . S
C612 C614 1.395 . S
C612 C615 1.403 . S
H613 C619 0.930 . S
C614 H600 0.930 . S
C614 C612 1.395 . S
C614 C617 1.403 . S
C615 C612 1.403 . S
C615 C616 1.524 . S
C615 C619 1.400 . S
C616 H601 0.960 . S
C616 H602 0.960 . S
C616 H603 0.960 . S
C616 C615 1.524 . S
C617 C614 1.403 . S
C617 C618 1.392 . S
C617 C621 1.495 . S
C618 C617 1.392 . S
C618 C619 1.385 . S
C618 C620 1.478 . S
C619 H613 0.930 . S
C619 C615 1.400 . S
C619 C618 1.385 . S
C620 C618 1.478 . S
C620 C622 1.381 . S
C620 C626 1.383 . S
C621 C617 1.495 . S
C621 H627 0.959 . S
C621 H628 0.961 . S
C621 H629 0.960 . S
C622 C620 1.381 . S
C622 C623 1.394 . S
C622 H630 0.930 . S
C623 C622 1.394 . S
C623 C624 1.383 . S
C623 H631 0.929 . S
C624 C623 1.383 . S
C624 C625 1.377 . S
C625 H609 0.930 . S
C625 C624 1.377 . S
C625 C626 1.379 . S
C626 H610 0.931 . S
C626 C620 1.383 . S
C626 C625 1.379 . S
H627 C621 0.959 . S
H628 C621 0.961 . S
H629 C621 0.960 . S
H630 C622 0.930 . S
H631 C623 0.929 . S
H632 C640 0.929 . S
H633 C642 0.930 . S
H634 C644 0.930 . S
H635 C647 0.929 . S
H636 C650 0.930 1_554 S
H637 C652 0.960 1_545 S
H638 C652 0.960 1_545 S
H639 C652 0.960 . S
C640 H632 0.929 . S
C640 C641 1.377 . S
C640 C642 1.384 . S
C641 C640 1.377 . S
C641 C647 1.390 . S
C642 H633 0.930 . S
C642 C640 1.384 . S
C642 C643 1.372 . S
C643 C642 1.372 . S
C643 C644 1.400 1_554 S
C643 C648 1.490 1_554 S
C644 H634 0.930 . S
C644 C643 1.400 1_556 S
C644 C647 1.386 1_556 S
H645 C661 0.930 . S
H646 C662 0.931 . S
C647 H635 0.929 . S
C647 C641 1.390 . S
C647 C644 1.386 1_554 S
C648 C643 1.490 1_556 S
C648 C650 1.395 . S
C648 C651 1.403 . S
H649 C655 0.930 . S
C650 H636 0.930 1_556 S
C650 C648 1.395 . S
C650 C653 1.403 . S
C651 C648 1.403 . S
C651 C652 1.524 . S
C651 C655 1.400 . S
C652 H637 0.960 1_565 S
C652 H638 0.960 1_565 S
C652 H639 0.960 . S
C652 C651 1.524 . S
C653 C650 1.403 . S
C653 C654 1.392 . S
C653 C657 1.495 . S
C654 C653 1.392 . S
C654 C655 1.385 . S
C654 C656 1.478 . S
C655 H649 0.930 . S
C655 C651 1.400 . S
C655 C654 1.385 . S
C656 C654 1.478 . S
C656 C658 1.381 . S
C656 C662 1.383 . S
C657 C653 1.495 . S
C657 H663 0.959 . S
C657 H664 0.961 . S
C657 H665 0.960 . S
C658 C656 1.381 . S
C658 C659 1.394 1_565 S
C658 H666 0.925 1_565 S
C659 C658 1.394 1_545 S
C659 C660 1.383 1_545 S
C659 H667 0.929 . S
C660 C659 1.383 1_565 S
C660 C661 1.377 . S
C661 H645 0.930 . S
C661 C660 1.377 . S
C661 C662 1.379 . S
C662 H646 0.931 . S
C662 C656 1.383 . S
C662 C661 1.379 . S
H663 C657 0.959 . S
H664 C657 0.961 . S
H665 C657 0.960 . S
H666 C658 0.925 1_545 S
H667 C659 0.929 . S
H668 C676 0.929 . S
H669 C678 0.930 . S
H670 C680 0.930 1_556 S
H671 C683 0.929 . S
H672 C686 0.930 1_554 S
H673 C688 0.960 . S
H674 C688 0.960 . S
H675 C688 0.960 . S
C676 H668 0.929 . S
C676 C677 1.377 . S
C676 C678 1.384 . S
C677 C676 1.377 . S
C677 C683 1.390 . S
C678 H669 0.930 . S
C678 C676 1.384 . S
C678 C679 1.372 . S
C679 C678 1.372 . S
C679 C680 1.400 . S
C679 C684 1.490 1_554 S
C680 H670 0.930 1_554 S
C680 C679 1.400 . S
C680 C683 1.386 . S
H681 C697 0.930 . S
H682 C698 0.931 . S
C683 H671 0.929 . S
C683 C677 1.390 . S
C683 C680 1.386 . S
C684 C679 1.490 1_556 S
C684 C686 1.395 . S
C684 C687 1.403 . S
H685 C691 0.930 . S
C686 H672 0.930 1_556 S
C686 C684 1.395 . S
C686 C689 1.403 . S
C687 C684 1.403 . S
C687 C688 1.524 . S
C687 C691 1.400 . S
C688 H673 0.960 . S
C688 H674 0.960 . S
C688 H675 0.960 . S
C688 C687 1.524 . S
C689 C686 1.403 . S
C689 C690 1.392 . S
C689 C693 1.495 . S
C690 C689 1.392 . S
C690 C691 1.385 . S
C690 C692 1.478 . S
C691 H685 0.930 . S
C691 C687 1.400 . S
C691 C690 1.385 . S
C692 C690 1.478 . S
C692 C694 1.381 . S
C692 C698 1.383 . S
C693 C689 1.495 . S
C693 H699 0.959 1_556 S
C693 H700 0.961 . S
C693 H701 0.960 . S
C694 C692 1.381 . S
C694 C695 1.394 . S
C694 H702 0.930 . S
C695 C694 1.394 . S
C695 C696 1.383 . S
C695 H703 0.929 . S
C696 C695 1.383 . S
C696 C697 1.377 . S
C697 H681 0.930 . S
C697 C696 1.377 . S
C697 C698 1.379 . S
C698 H682 0.931 . S
C698 C692 1.383 . S
C698 C697 1.379 . S
H699 C693 0.959 1_554 S
H700 C693 0.961 . S
H701 C693 0.960 . S
H702 C694 0.930 . S
H703 C695 0.929 . S
H704 C712 0.929 . S
H705 C714 0.930 . S
H706 C716 0.930 . S
H707 C719 0.929 . S
H708 C722 0.930 1_554 S
H709 C724 0.960 . S
H710 C724 0.960 . S
H711 C724 0.960 . S
C712 H704 0.929 . S
C712 C713 1.377 . S
C712 C714 1.384 . S
C713 C712 1.377 . S
C713 C719 1.390 . S
C714 H705 0.930 . S
C714 C712 1.384 . S
C714 C715 1.372 . S
C715 C714 1.372 . S
C715 C716 1.400 1_554 S
C715 C720 1.490 1_554 S
C716 H706 0.930 . S
C716 C715 1.400 1_556 S
C716 C719 1.386 1_556 S
H717 C733 0.930 . S
H718 C734 0.931 . S
C719 H707 0.929 . S
C719 C713 1.390 . S
C719 C716 1.386 1_554 S
C720 C715 1.490 1_556 S
C720 C722 1.395 . S
C720 C723 1.403 . S
H721 C727 0.930 . S
C722 H708 0.930 1_556 S
C722 C720 1.395 . S
C722 C725 1.403 . S
C723 C720 1.403 . S
C723 C724 1.524 . S
C723 C727 1.400 . S
C724 H709 0.960 . S
C724 H710 0.960 . S
C724 H711 0.960 . S
C724 C723 1.524 . S
C725 C722 1.403 . S
C725 C726 1.392 . S
C725 C729 1.495 . S
C726 C725 1.392 . S
C726 C727 1.385 . S
C726 C728 1.478 . S
C727 H721 0.930 . S
C727 C723 1.400 . S
C727 C726 1.385 . S
C728 C726 1.478 . S
C728 C730 1.381 . S
C728 C734 1.383 . S
C729 C725 1.495 . S
C729 H735 0.958 1_556 S
C729 H736 0.961 . S
C729 H737 0.960 . S
C730 C728 1.381 . S
C730 C731 1.394 . S
C730 H738 0.930 . S
C731 C730 1.394 . S
C731 C732 1.383 . S
C731 H739 0.929 . S
C732 C731 1.383 . S
C732 C733 1.377 . S
C733 H717 0.930 . S
C733 C732 1.377 . S
C733 C734 1.379 . S
C734 H718 0.931 . S
C734 C728 1.383 . S
C734 C733 1.379 . S
H735 C729 0.958 1_554 S
H736 C729 0.961 . S
H737 C729 0.960 . S
H738 C730 0.930 . S
H739 C731 0.929 . S
H740 C748 0.929 . S
H741 C750 0.930 . S
H742 C752 0.930 . S
H743 C755 0.929 . S
H744 C758 0.930 . S
H745 C760 0.960 . S
H746 C760 0.960 . S
H747 C760 0.960 1_554 S
C748 H740 0.929 . S
C748 C749 1.377 . S
C748 C750 1.384 1_554 S
C749 C748 1.377 . S
C749 C755 1.390 . S
C750 H741 0.930 . S
C750 C748 1.384 1_556 S
C750 C751 1.372 1_556 S
C751 C750 1.372 1_554 S
C751 C752 1.400 . S
C751 C756 1.490 1_554 S
C752 H742 0.930 . S
C752 C751 1.400 . S
C752 C755 1.386 . S
H753 C769 0.930 . S
H754 C770 0.931 . S
C755 H743 0.929 . S
C755 C749 1.390 . S
C755 C752 1.386 . S
C756 C751 1.490 1_556 S
C756 C758 1.395 . S
C756 C759 1.403 . S
H757 C763 0.930 . S
C758 H744 0.930 . S
C758 C756 1.395 . S
C758 C761 1.403 . S
C759 C756 1.403 . S
C759 C760 1.524 . S
C759 C763 1.400 . S
C760 H745 0.960 . S
C760 H746 0.960 . S
C760 H747 0.960 1_556 S
C760 C759 1.524 . S
C761 C758 1.403 . S
C761 C762 1.392 . S
C761 C765 1.495 1_655 S
C762 C761 1.392 . S
C762 C763 1.385 . S
C762 C764 1.478 . S
C763 H757 0.930 . S
C763 C759 1.400 . S
C763 C762 1.385 . S
C764 C762 1.478 . S
C764 C766 1.381 . S
C764 C770 1.383 . S
C765 C761 1.495 1_455 S
C765 H771 0.959 . S
C765 H772 0.961 . S
C765 H773 0.960 . S
C766 C764 1.381 . S
C766 C767 1.394 . S
C766 H774 0.930 . S
C767 C766 1.394 . S
C767 C768 1.383 . S
C767 H775 0.929 . S
C768 C767 1.383 . S
C768 C769 1.377 . S
C769 H753 0.930 . S
C769 C768 1.377 . S
C769 C770 1.379 . S
C770 H754 0.931 . S
C770 C764 1.383 . S
C770 C769 1.379 . S
H771 C765 0.959 . S
H772 C765 0.961 . S
H773 C765 0.960 . S
H774 C766 0.930 . S
H775 C767 0.929 . S
H776 C784 0.929 1_556 S
H777 C786 0.930 . S
H778 C788 0.930 . S
H779 C791 0.929 . S
H780 C794 0.930 . S
H781 C796 0.960 1_655 S
H782 C796 0.960 . S
H783 C796 0.960 . S
C784 H776 0.929 1_554 S
C784 C785 1.377 . S
C784 C786 1.384 . S
C785 C784 1.377 . S
C785 C791 1.390 . S
C786 H777 0.930 . S
C786 C784 1.384 . S
C786 C787 1.372 . S
C787 C786 1.372 . S
C787 C788 1.400 . S
C787 C792 1.490 . S
C788 H778 0.930 . S
C788 C787 1.400 . S
C788 C791 1.386 . S
H789 C805 0.930 . S
H790 C806 0.931 . S
C791 H779 0.929 . S
C791 C785 1.390 . S
C791 C788 1.386 . S
C792 C787 1.490 . S
C792 C794 1.395 . S
C792 C795 1.403 . S
H793 C799 0.930 . S
C794 H780 0.930 . S
C794 C792 1.395 . S
C794 C797 1.403 . S
C795 C792 1.403 . S
C795 C796 1.524 . S
C795 C799 1.400 . S
C796 H781 0.960 1_455 S
C796 H782 0.960 . S
C796 H783 0.960 . S
C796 C795 1.524 . S
C797 C794 1.403 . S
C797 C798 1.392 . S
C797 C801 1.495 . S
C798 C797 1.392 . S
C798 C799 1.385 . S
C798 C800 1.478 . S
C799 H793 0.930 . S
C799 C795 1.400 . S
C799 C798 1.385 . S
C800 C798 1.478 . S
C800 C802 1.381 . S
C800 C806 1.383 . S
C801 C797 1.495 . S
C801 H807 0.959 . S
C801 H808 0.961 . S
C801 H809 0.960 . S
C802 C800 1.381 . S
C802 C803 1.394 . S
C802 H810 0.930 . S
C803 C802 1.394 . S
C803 C804 1.383 . S
C803 H811 0.929 . S
C804 C803 1.383 . S
C804 C805 1.377 . S
C805 H789 0.930 . S
C805 C804 1.377 . S
C805 C806 1.379 . S
C806 H790 0.931 . S
C806 C800 1.383 . S
C806 C805 1.379 . S
H807 C801 0.959 . S
H808 C801 0.961 . S
H809 C801 0.960 . S
H810 C802 0.930 . S
H811 C803 0.929 . S
H812 C820 0.929 1_556 S
H813 C822 0.930 . S
H814 C824 0.930 . S
H815 C827 0.929 . S
H816 C830 0.930 . S
H817 C832 0.960 . S
H818 C832 0.960 . S
H819 C832 0.960 . S
C820 H812 0.929 1_554 S
C820 C821 1.377 . S
C820 C822 1.384 . S
C821 C820 1.377 . S
C821 C827 1.390 . S
C822 H813 0.930 . S
C822 C820 1.384 . S
C822 C823 1.372 . S
C823 C822 1.372 . S
C823 C824 1.400 . S
C823 C828 1.490 . S
C824 H814 0.930 . S
C824 C823 1.400 . S
C824 C827 1.386 . S
H825 C841 0.930 . S
H826 C842 0.931 . S
C827 H815 0.929 . S
C827 C821 1.390 . S
C827 C824 1.386 . S
C828 C823 1.490 . S
C828 C830 1.395 . S
C828 C831 1.403 . S
H829 C835 0.930 . S
C830 H816 0.930 . S
C830 C828 1.395 . S
C830 C833 1.403 . S
C831 C828 1.403 . S
C831 C832 1.524 . S
C831 C835 1.400 . S
C832 H817 0.960 . S
C832 H818 0.960 . S
C832 H819 0.960 . S
C832 C831 1.524 . S
C833 C830 1.403 . S
C833 C834 1.392 . S
C833 C837 1.495 . S
C834 C833 1.392 . S
C834 C835 1.385 . S
C834 C836 1.478 . S
C835 H829 0.930 . S
C835 C831 1.400 . S
C835 C834 1.385 . S
C836 C834 1.478 . S
C836 C838 1.381 . S
C836 C842 1.383 . S
C837 C833 1.495 . S
C837 H843 0.959 . S
C837 H844 0.961 . S
C837 H845 0.960 . S
C838 C836 1.381 . S
C838 C839 1.394 . S
C838 H846 0.930 . S
C839 C838 1.394 . S
C839 C840 1.383 . S
C839 H847 0.929 1_545 S
C840 C839 1.383 . S
C840 C841 1.377 . S
C841 H825 0.930 . S
C841 C840 1.377 . S
C841 C842 1.379 . S
C842 H826 0.931 . S
C842 C836 1.383 . S
C842 C841 1.379 . S
H843 C837 0.959 . S
H844 C837 0.961 . S
H845 C837 0.960 . S
H846 C838 0.930 . S
H847 C839 0.929 1_565 S
H848 C856 0.929 . S
H849 C858 0.930 . S
H850 C860 0.930 . S
H851 C863 0.929 . S
H852 C866 0.930 . S
H853 C868 0.960 . S
H854 C868 0.960 . S
H855 C868 0.960 . S
C856 H848 0.929 . S
C856 C857 1.377 . S
C856 C858 1.384 . S
C857 C856 1.377 . S
C857 C863 1.390 . S
C858 H849 0.930 . S
C858 C856 1.384 . S
C858 C859 1.372 . S
C859 C858 1.372 . S
C859 C860 1.400 . S
C859 C864 1.490 . S
C860 H850 0.930 . S
C860 C859 1.400 . S
C860 C863 1.386 . S
H861 C877 0.930 . S
H862 C878 0.931 . S
C863 H851 0.929 . S
C863 C857 1.390 . S
C863 C860 1.386 . S
C864 C859 1.490 . S
C864 C866 1.395 . S
C864 C867 1.403 . S
H865 C871 0.930 . S
C866 H852 0.930 . S
C866 C864 1.395 . S
C866 C869 1.403 . S
C867 C864 1.403 . S
C867 C868 1.524 . S
C867 C871 1.400 . S
C868 H853 0.960 . S
C868 H854 0.960 . S
C868 H855 0.960 . S
C868 C867 1.524 . S
C869 C866 1.403 . S
C869 C870 1.392 . S
C869 C873 1.495 . S
C870 C869 1.392 . S
C870 C871 1.385 . S
C870 C872 1.478 . S
C871 H865 0.930 . S
C871 C867 1.400 . S
C871 C870 1.385 . S
C872 C870 1.478 . S
C872 C874 1.381 . S
C872 C878 1.383 . S
C873 C869 1.495 . S
C873 H879 0.959 . S
C873 H880 0.961 . S
C873 H881 0.960 . S
C874 C872 1.381 . S
C874 C875 1.394 . S
C874 H882 0.930 . S
C875 C874 1.394 . S
C875 C876 1.383 . S
C875 H883 0.929 . S
C876 C875 1.383 . S
C876 C877 1.377 . S
C877 H861 0.930 . S
C877 C876 1.377 . S
C877 C878 1.379 . S
C878 H862 0.931 . S
C878 C872 1.383 . S
C878 C877 1.379 . S
H879 C873 0.959 . S
H880 C873 0.961 . S
H881 C873 0.960 . S
H882 C874 0.930 . S
H883 C875 0.929 . S
H884 C892 0.929 1_556 S
H885 C894 0.930 . S
H886 C896 0.930 . S
H887 C899 0.929 . S
H888 C902 0.930 . S
H889 C904 0.960 . S
H890 C904 0.960 . S
H891 C904 0.960 . S
C892 H884 0.929 1_554 S
C892 C893 1.377 . S
C892 C894 1.384 . S
C893 C892 1.377 . S
C893 C899 1.390 . S
C894 H885 0.930 . S
C894 C892 1.384 . S
C894 C895 1.372 . S
C895 C894 1.372 . S
C895 C896 1.400 . S
C895 C900 1.490 . S
C896 H886 0.930 . S
C896 C895 1.400 . S
C896 C899 1.386 . S
H897 C913 0.930 . S
H898 C914 0.931 . S
C899 H887 0.929 . S
C899 C893 1.390 . S
C899 C896 1.386 . S
C900 C895 1.490 . S
C900 C902 1.395 . S
C900 C903 1.403 . S
H901 C907 0.930 . S
C902 H888 0.930 . S
C902 C900 1.395 . S
C902 C905 1.403 . S
C903 C900 1.403 . S
C903 C904 1.524 . S
C903 C907 1.400 . S
C904 H889 0.960 . S
C904 H890 0.960 . S
C904 H891 0.960 . S
C904 C903 1.524 . S
C905 C902 1.403 . S
C905 C906 1.392 . S
C905 C909 1.495 . S
C906 C905 1.392 . S
C906 C907 1.385 . S
C906 C908 1.478 . S
C907 H901 0.930 . S
C907 C903 1.400 . S
C907 C906 1.385 . S
C908 C906 1.478 . S
C908 C910 1.381 . S
C908 C914 1.383 . S
C909 C905 1.495 . S
C909 H915 0.959 . S
C909 H916 0.961 . S
C909 H917 0.960 . S
C910 C908 1.381 . S
C910 C911 1.394 . S
C910 H918 0.930 . S
C911 C910 1.394 . S
C911 C912 1.383 . S
C911 H919 0.929 . S
C912 C911 1.383 . S
C912 C913 1.377 . S
C913 H897 0.930 . S
C913 C912 1.377 . S
C913 C914 1.379 . S
C914 H898 0.931 . S
C914 C908 1.383 . S
C914 C913 1.379 . S
H915 C909 0.959 . S
H916 C909 0.961 . S
H917 C909 0.960 . S
H918 C910 0.930 . S
H919 C911 0.929 . S
H920 C928 0.929 . S
H921 C930 0.930 . S
H922 C932 0.930 . S
H923 C935 0.929 . S
H924 C938 0.930 . S
H925 C940 0.960 . S
H926 C940 0.960 . S
H927 C940 0.960 . S
C928 H920 0.929 . S
C928 C929 1.377 . S
C928 C930 1.384 . S
C929 C928 1.377 . S
C929 C935 1.390 . S
C930 H921 0.930 . S
C930 C928 1.384 . S
C930 C931 1.372 . S
C931 C930 1.372 . S
C931 C932 1.400 . S
C931 C936 1.490 . S
C932 H922 0.930 . S
C932 C931 1.400 . S
C932 C935 1.386 . S
H933 C949 0.930 . S
H934 C950 0.931 . S
C935 H923 0.929 . S
C935 C929 1.390 . S
C935 C932 1.386 . S
C936 C931 1.490 . S
C936 C938 1.395 . S
C936 C939 1.403 1_554 S
H937 C943 0.930 . S
C938 H924 0.930 . S
C938 C936 1.395 . S
C938 C941 1.403 . S
C939 C936 1.403 1_556 S
C939 C940 1.524 . S
C939 C943 1.400 . S
C940 H925 0.960 . S
C940 H926 0.960 . S
C940 H927 0.960 . S
C940 C939 1.524 . S
C941 C938 1.403 . S
C941 C942 1.392 1_554 S
C941 C945 1.495 . S
C942 C941 1.392 1_556 S
C942 C943 1.385 . S
C942 C944 1.478 . S
C943 H937 0.930 . S
C943 C939 1.400 . S
C943 C942 1.385 . S
C944 C942 1.478 . S
C944 C946 1.381 . S
C944 C950 1.383 1_655 S
C945 C941 1.495 . S
C945 H951 0.959 . S
C945 H952 0.961 . S
C945 H953 0.960 . S
C946 C944 1.381 . S
C946 C947 1.394 . S
C946 H954 0.930 . S
C947 C946 1.394 . S
C947 C948 1.383 1_655 S
C947 H955 0.929 . S
C948 C947 1.383 1_455 S
C948 C949 1.377 . S
C949 H933 0.930 . S
C949 C948 1.377 . S
C949 C950 1.379 . S
C950 H934 0.931 . S
C950 C944 1.383 1_455 S
C950 C949 1.379 . S
H951 C945 0.959 . S
H952 C945 0.961 . S
H953 C945 0.960 . S
H954 C946 0.930 . S
H955 C947 0.929 . S
H956 C964 0.929 . S
H957 C966 0.930 . S
H958 C968 0.930 . S
H959 C971 0.929 . S
H960 C974 0.930 1_545 S
H961 C976 0.960 . S
H962 C976 0.960 . S
H963 C976 0.960 . S
C964 H956 0.929 . S
C964 C965 1.377 . S
C964 C966 1.384 . S
C965 C964 1.377 . S
C965 C971 1.390 . S
C966 H957 0.930 . S
C966 C964 1.384 . S
C966 C967 1.372 . S
C967 C966 1.372 . S
C967 C968 1.400 . S
C967 C972 1.490 . S
C968 H958 0.930 . S
C968 C967 1.400 . S
C968 C971 1.386 . S
H969 C985 0.930 . S
H970 C986 0.931 . S
C971 H959 0.929 . S
C971 C965 1.390 . S
C971 C968 1.386 . S
C972 C967 1.490 . S
C972 C974 1.395 . S
C972 C975 1.403 . S
H973 C979 0.930 . S
C974 H960 0.930 1_565 S
C974 C972 1.395 . S
C974 C977 1.403 1_564 S
C975 C972 1.403 . S
C975 C976 1.524 . S
C975 C979 1.400 1_554 S
C976 H961 0.960 . S
C976 H962 0.960 . S
C976 H963 0.960 . S
C976 C975 1.524 . S
C977 C974 1.403 1_546 S
C977 C978 1.392 1_545 S
C977 C981 1.495 . S
C978 C977 1.392 1_565 S
C978 C979 1.385 . S
C978 C980 1.478 . S
C979 H973 0.930 . S
C979 C975 1.400 1_556 S
C979 C978 1.385 . S
C980 C978 1.478 . S
C980 C982 1.381 1_565 S
C980 C986 1.383 . S
C981 C977 1.495 . S
C981 H987 0.959 . S
C981 H988 0.961 . S
C981 H989 0.960 . S
C982 C980 1.381 1_545 S
C982 C983 1.394 . S
C982 H990 0.944 . S
C983 C982 1.394 . S
C983 C984 1.383 . S
C983 H991 0.929 . S
C984 C983 1.383 . S
C984 C985 1.377 1_545 S
C985 H969 0.930 . S
C985 C984 1.377 1_565 S
C985 C986 1.379 . S
C986 H970 0.931 . S
C986 C980 1.383 . S
C986 C985 1.379 . S
H987 C981 0.959 . S
H988 C981 0.961 . S
H989 C981 0.960 . S
H990 C982 0.944 . S
H991 C983 0.929 . S
H992 C1000 0.929 . S
H993 C1002 0.930 1_556 S
H994 C1004 0.930 . S
H995 C1007 0.929 . S
H996 C1010 0.930 . S
H997 C1012 0.960 . S
H998 C1012 0.960 . S
H999 C1012 0.960 . S
C1000 H992 0.929 . S
C1000 C1001 1.377 . S
C1000 C1002 1.384 . S
C1001 C1000 1.377 . S
C1001 C1007 1.390 . S
C1002 H993 0.930 1_554 S
C1002 C1000 1.384 . S
C1002 C1003 1.372 . S
C1003 C1002 1.372 . S
C1003 C1004 1.400 . S
C1003 C1008 1.490 . S
C1004 H994 0.930 . S
C1004 C1003 1.400 . S
C1004 C1007 1.386 . S
H1005 C1021 0.930 . S
H1006 C1022 0.931 1_554 S
C1007 H995 0.929 . S
C1007 C1001 1.390 . S
C1007 C1004 1.386 . S
C1008 C1003 1.490 . S
C1008 C1010 1.395 . S
C1008 C1011 1.403 . S
H1009 C1015 0.930 . S
C1010 H996 0.930 . S
C1010 C1008 1.395 . S
C1010 C1013 1.403 1_554 S
C1011 C1008 1.403 . S
C1011 C1012 1.524 . S
C1011 C1015 1.400 1_554 S
C1012 H997 0.960 . S
C1012 H998 0.960 . S
C1012 H999 0.960 . S
C1012 C1011 1.524 . S
C1013 C1010 1.403 1_556 S
C1013 C1014 1.392 . S
C1013 C1017 1.495 . S
C1014 C1013 1.392 . S
C1014 C1015 1.385 . S
C1014 C1016 1.478 . S
C1015 H1009 0.930 . S
C1015 C1011 1.400 1_556 S
C1015 C1014 1.385 . S
C1016 C1014 1.478 . S
C1016 C1018 1.381 . S
C1016 C1022 1.383 . S
C1017 C1013 1.495 . S
C1017 H1023 0.959 . S
C1017 H1024 0.961 . S
C1017 H1025 0.960 . S
C1018 C1016 1.381 . S
C1018 C1019 1.394 . S
C1018 H1026 0.930 . S
C1019 C1018 1.394 . S
C1019 C1020 1.383 . S
C1019 H1027 0.929 . S
C1020 C1019 1.383 . S
C1020 C1021 1.377 . S
C1021 H1005 0.930 . S
C1021 C1020 1.377 . S
C1021 C1022 1.379 . S
C1022 H1006 0.931 1_556 S
C1022 C1016 1.383 . S
C1022 C1021 1.379 . S
H1023 C1017 0.959 . S
H1024 C1017 0.961 . S
H1025 C1017 0.960 . S
H1026 C1018 0.930 . S
H1027 C1019 0.929 . S
H1028 C1036 0.929 . S
H1029 C1038 0.930 . S
H1030 C1040 0.930 . S
H1031 C1043 0.929 . S
H1032 C1046 0.930 . S
H1033 C1048 0.960 . S
H1034 C1048 0.960 . S
H1035 C1048 0.960 . S
C1036 H1028 0.929 . S
C1036 C1037 1.377 . S
C1036 C1038 1.384 . S
C1037 C1036 1.377 . S
C1037 C1043 1.390 . S
C1038 H1029 0.930 . S
C1038 C1036 1.384 . S
C1038 C1039 1.372 . S
C1039 C1038 1.372 . S
C1039 C1040 1.400 . S
C1039 C1044 1.490 . S
C1040 H1030 0.930 . S
C1040 C1039 1.400 . S
C1040 C1043 1.386 . S
H1041 C1057 0.930 . S
H1042 C1058 0.931 . S
C1043 H1031 0.929 . S
C1043 C1037 1.390 . S
C1043 C1040 1.386 . S
C1044 C1039 1.490 . S
C1044 C1046 1.395 . S
C1044 C1047 1.403 1_554 S
H1045 C1051 0.930 . S
C1046 H1032 0.930 . S
C1046 C1044 1.395 . S
C1046 C1049 1.403 . S
C1047 C1044 1.403 1_556 S
C1047 C1048 1.524 . S
C1047 C1051 1.400 . S
C1048 H1033 0.960 . S
C1048 H1034 0.960 . S
C1048 H1035 0.960 . S
C1048 C1047 1.524 . S
C1049 C1046 1.403 . S
C1049 C1050 1.392 1_554 S
C1049 C1053 1.495 . S
C1050 C1049 1.392 1_556 S
C1050 C1051 1.385 . S
C1050 C1052 1.478 . S
C1051 H1045 0.930 . S
C1051 C1047 1.400 . S
C1051 C1050 1.385 . S
C1052 C1050 1.478 . S
C1052 C1054 1.381 . S
C1052 C1058 1.383 . S
C1053 C1049 1.495 . S
C1053 H1059 0.959 . S
C1053 H1060 0.961 . S
C1053 H1061 0.960 . S
C1054 C1052 1.381 . S
C1054 C1055 1.394 . S
C1054 H1062 0.930 . S
C1055 C1054 1.394 . S
C1055 C1056 1.383 . S
C1055 H1063 0.929 . S
C1056 C1055 1.383 . S
C1056 C1057 1.377 . S
C1057 H1041 0.930 . S
C1057 C1056 1.377 . S
C1057 C1058 1.379 . S
C1058 H1042 0.931 . S
C1058 C1052 1.383 . S
C1058 C1057 1.379 . S
H1059 C1053 0.959 . S
H1060 C1053 0.961 . S
H1061 C1053 0.960 . S
H1062 C1054 0.930 . S
H1063 C1055 0.929 . S
H1064 C1072 0.929 . S
H1065 C1074 0.930 . S
H1066 C1076 0.930 . S
H1067 C1079 0.929 . S
H1068 C1082 0.930 . S
H1069 C1084 0.960 . S
H1070 C1084 0.960 . S
H1071 C1084 0.960 . S
C1072 H1064 0.929 . S
C1072 C1073 1.377 . S
C1072 C1074 1.384 . S
C1073 C1072 1.377 . S
C1073 C1079 1.390 . S
C1074 H1065 0.930 . S
C1074 C1072 1.384 . S
C1074 C1075 1.372 . S
C1075 C1074 1.372 . S
C1075 C1076 1.400 . S
C1075 C1080 1.490 . S
C1076 H1066 0.930 . S
C1076 C1075 1.400 . S
C1076 C1079 1.386 . S
H1077 C1093 0.930 . S
H1078 C1094 0.931 . S
C1079 H1067 0.929 . S
C1079 C1073 1.390 . S
C1079 C1076 1.386 . S
C1080 C1075 1.490 . S
C1080 C1082 1.395 . S
C1080 C1083 1.403 . S
H1081 C1087 0.930 . S
C1082 H1068 0.930 . S
C1082 C1080 1.395 . S
C1082 C1085 1.403 . S
C1083 C1080 1.403 . S
C1083 C1084 1.524 . S
C1083 C1087 1.400 . S
C1084 H1069 0.960 . S
C1084 H1070 0.960 . S
C1084 H1071 0.960 . S
C1084 C1083 1.524 . S
C1085 C1082 1.403 . S
C1085 C1086 1.392 . S
C1085 C1089 1.495 . S
C1086 C1085 1.392 . S
C1086 C1087 1.385 . S
C1086 C1088 1.478 . S
C1087 H1081 0.930 . S
C1087 C1083 1.400 . S
C1087 C1086 1.385 . S
C1088 C1086 1.478 . S
C1088 C1090 1.381 . S
C1088 C1094 1.383 . S
C1089 C1085 1.495 . S
C1089 H1095 0.959 . S
C1089 H1096 0.961 . S
C1089 H1097 0.960 . S
C1090 C1088 1.381 . S
C1090 C1091 1.394 . S
C1090 H1098 0.930 . S
C1091 C1090 1.394 . S
C1091 C1092 1.383 . S
C1091 H1099 0.929 . S
C1092 C1091 1.383 . S
C1092 C1093 1.377 . S
C1093 H1077 0.930 . S
C1093 C1092 1.377 . S
C1093 C1094 1.379 . S
C1094 H1078 0.931 . S
C1094 C1088 1.383 . S
C1094 C1093 1.379 . S
H1095 C1089 0.959 . S
H1096 C1089 0.961 . S
H1097 C1089 0.960 . S
H1098 C1090 0.930 . S
H1099 C1091 0.929 . S
H1100 C1108 0.929 . S
H1101 C1110 0.930 . S
H1102 C1112 0.930 . S
H1103 C1115 0.929 . S
H1104 C1118 0.930 . S
H1105 C1120 0.960 . S
H1106 C1120 0.960 . S
H1107 C1120 0.960 . S
C1108 H1100 0.929 . S
C1108 C1109 1.377 . S
C1108 C1110 1.384 . S
C1109 C1108 1.377 . S
C1109 C1115 1.390 . S
C1110 H1101 0.930 . S
C1110 C1108 1.384 . S
C1110 C1111 1.372 . S
C1111 C1110 1.372 . S
C1111 C1112 1.400 . S
C1111 C1116 1.490 . S
C1112 H1102 0.930 . S
C1112 C1111 1.400 . S
C1112 C1115 1.386 . S
H1113 C1129 0.933 1_565 S
H1114 C1130 0.931 . S
C1115 H1103 0.929 . S
C1115 C1109 1.390 . S
C1115 C1112 1.386 . S
C1116 C1111 1.490 . S
C1116 C1118 1.395 . S
C1116 C1119 1.403 . S
H1117 C1123 0.930 . S
C1118 H1104 0.930 . S
C1118 C1116 1.395 . S
C1118 C1121 1.403 . S
C1119 C1116 1.403 . S
C1119 C1120 1.524 . S
C1119 C1123 1.400 . S
C1120 H1105 0.960 . S
C1120 H1106 0.960 . S
C1120 H1107 0.960 . S
C1120 C1119 1.524 . S
C1121 C1118 1.403 . S
C1121 C1122 1.392 . S
C1121 C1125 1.495 . S
C1122 C1121 1.392 . S
C1122 C1123 1.385 . S
C1122 C1124 1.478 . S
C1123 H1117 0.930 . S
C1123 C1119 1.400 . S
C1123 C1122 1.385 . S
C1124 C1122 1.478 . S
C1124 C1126 1.381 . S
C1124 C1130 1.383 . S
C1125 C1121 1.495 . S
C1125 H1131 0.959 . S
C1125 H1132 0.961 . S
C1125 H1133 0.960 . S
C1126 C1124 1.381 . S
C1126 C1127 1.394 . S
C1126 H1134 0.930 . S
C1127 C1126 1.394 . S
C1127 C1128 1.383 . S
C1127 H1135 0.929 . S
C1128 C1127 1.383 . S
C1128 C1129 1.377 . S
C1129 H1113 0.933 1_545 S
C1129 C1128 1.377 . S
C1129 C1130 1.379 . S
C1130 H1114 0.931 . S
C1130 C1124 1.383 . S
C1130 C1129 1.379 . S
H1131 C1125 0.959 . S
H1132 C1125 0.961 . S
H1133 C1125 0.960 . S
H1134 C1126 0.930 . S
H1135 C1127 0.929 . S
H1136 C1144 0.929 . S
H1137 C1146 0.930 . S
H1138 C1148 0.930 . S
H1139 C1151 0.929 . S
H1140 C1154 0.930 . S
H1141 C1156 0.960 . S
H1142 C1156 0.960 . S
H1143 C1156 0.960 . S
C1144 H1136 0.929 . S
C1144 C1145 1.377 . S
C1144 C1146 1.384 . S
C1145 C1144 1.377 . S
C1145 C1151 1.390 . S
C1146 H1137 0.930 . S
C1146 C1144 1.384 . S
C1146 C1147 1.372 . S
C1147 C1146 1.372 . S
C1147 C1148 1.400 . S
C1147 C1152 1.490 . S
C1148 H1138 0.930 . S
C1148 C1147 1.400 . S
C1148 C1151 1.386 . S
H1149 C1165 0.930 . S
H1150 C1166 0.931 . S
C1151 H1139 0.929 . S
C1151 C1145 1.390 . S
C1151 C1148 1.386 . S
C1152 C1147 1.490 . S
C1152 C1154 1.395 . S
C1152 C1155 1.403 . S
H1153 C1159 0.930 . S
C1154 H1140 0.930 . S
C1154 C1152 1.395 . S
C1154 C1157 1.403 . S
C1155 C1152 1.403 . S
C1155 C1156 1.524 . S
C1155 C1159 1.400 . S
C1156 H1141 0.960 . S
C1156 H1142 0.960 . S
C1156 H1143 0.960 . S
C1156 C1155 1.524 . S
C1157 C1154 1.403 . S
C1157 C1158 1.392 . S
C1157 C1161 1.495 . S
C1158 C1157 1.392 . S
C1158 C1159 1.385 . S
C1158 C1160 1.478 . S
C1159 H1153 0.930 . S
C1159 C1155 1.400 . S
C1159 C1158 1.385 . S
C1160 C1158 1.478 . S
C1160 C1162 1.381 . S
C1160 C1166 1.383 . S
C1161 C1157 1.495 . S
C1161 H1167 0.959 . S
C1161 H1168 0.961 . S
C1161 H1169 0.960 . S
C1162 C1160 1.381 . S
C1162 C1163 1.394 . S
C1162 H1170 0.930 . S
C1163 C1162 1.394 . S
C1163 C1164 1.383 . S
C1163 H1171 0.929 . S
C1164 C1163 1.383 . S
C1164 C1165 1.377 . S
C1165 H1149 0.930 . S
C1165 C1164 1.377 . S
C1165 C1166 1.379 . S
C1166 H1150 0.931 . S
C1166 C1160 1.383 . S
C1166 C1165 1.379 . S
H1167 C1161 0.959 . S
H1168 C1161 0.961 . S
H1169 C1161 0.960 . S
H1170 C1162 0.930 . S
H1171 C1163 0.929 . S
H1172 C1180 0.929 . S
H1173 C1182 0.930 . S
H1174 C1184 0.930 . S
H1175 C1187 0.929 . S
H1176 C1190 0.930 . S
H1177 C1192 0.960 . S
H1178 C1192 0.960 . S
H1179 C1192 0.960 . S
C1180 H1172 0.929 . S
C1180 C1181 1.377 . S
C1180 C1182 1.384 . S
C1181 C1180 1.377 . S
C1181 C1187 1.390 . S
C1182 H1173 0.930 . S
C1182 C1180 1.384 . S
C1182 C1183 1.372 . S
C1183 C1182 1.372 . S
C1183 C1184 1.400 . S
C1183 C1188 1.490 . S
C1184 H1174 0.930 . S
C1184 C1183 1.400 . S
C1184 C1187 1.386 . S
H1185 C1201 0.930 . S
H1186 C1202 0.931 . S
C1187 H1175 0.929 . S
C1187 C1181 1.390 . S
C1187 C1184 1.386 . S
C1188 C1183 1.490 . S
C1188 C1190 1.395 . S
C1188 C1191 1.403 . S
H1189 C1195 0.930 . S
C1190 H1176 0.930 . S
C1190 C1188 1.395 . S
C1190 C1193 1.403 . S
C1191 C1188 1.403 . S
C1191 C1192 1.524 . S
C1191 C1195 1.400 . S
C1192 H1177 0.960 . S
C1192 H1178 0.960 . S
C1192 H1179 0.960 . S
C1192 C1191 1.524 . S
C1193 C1190 1.403 . S
C1193 C1194 1.392 . S
C1193 C1197 1.495 . S
C1194 C1193 1.392 . S
C1194 C1195 1.385 . S
C1194 C1196 1.478 . S
C1195 H1189 0.930 . S
C1195 C1191 1.400 . S
C1195 C1194 1.385 . S
C1196 C1194 1.478 . S
C1196 C1198 1.381 . S
C1196 C1202 1.383 . S
C1197 C1193 1.495 . S
C1197 H1203 0.959 . S
C1197 H1204 0.961 . S
C1197 H1205 0.960 . S
C1198 C1196 1.381 . S
C1198 C1199 1.394 . S
C1198 H1206 0.930 . S
C1199 C1198 1.394 . S
C1199 C1200 1.383 . S
C1199 H1207 0.929 . S
C1200 C1199 1.383 . S
C1200 C1201 1.377 . S
C1201 H1185 0.930 . S
C1201 C1200 1.377 . S
C1201 C1202 1.379 . S
C1202 H1186 0.931 . S
C1202 C1196 1.383 . S
C1202 C1201 1.379 . S
H1203 C1197 0.959 . S
H1204 C1197 0.961 . S
H1205 C1197 0.960 . S
H1206 C1198 0.930 . S
H1207 C1199 0.929 . S
H1208 C1216 0.929 . S
H1209 C1218 0.930 . S
H1210 C1220 0.930 . S
H1211 C1223 0.929 . S
H1212 C1226 0.930 . S
H1213 C1228 0.960 1_455 S
H1214 C1228 0.960 . S
H1215 C1228 0.940 1_455 S
C1216 H1208 0.929 . S
C1216 C1217 1.377 . S
C1216 C1218 1.384 . S
C1217 C1216 1.377 . S
C1217 C1223 1.390 . S
C1218 H1209 0.930 . S
C1218 C1216 1.384 . S
C1218 C1219 1.372 . S
C1219 C1218 1.372 . S
C1219 C1220 1.400 . S
C1219 C1224 1.490 . S
C1220 H1210 0.930 . S
C1220 C1219 1.400 . S
C1220 C1223 1.386 . S
H1221 C1237 0.930 1_455 S
H1222 C1238 0.945 . S
C1223 H1211 0.929 . S
C1223 C1217 1.390 . S
C1223 C1220 1.386 . S
C1224 C1219 1.490 . S
C1224 C1226 1.395 . S
C1224 C1227 1.403 . S
H1225 C1231 0.930 . S
C1226 H1212 0.930 . S
C1226 C1224 1.395 . S
C1226 C1229 1.403 . S
C1227 C1224 1.403 . S
C1227 C1228 1.524 . S
C1227 C1231 1.400 . S
C1228 H1213 0.960 1_655 S
C1228 H1214 0.960 . S
C1228 H1215 0.940 1_655 S
C1228 C1227 1.524 . S
C1229 C1226 1.403 . S
C1229 C1230 1.392 . S
C1229 C1233 1.495 . S
C1230 C1229 1.392 . S
C1230 C1231 1.385 . S
C1230 C1232 1.478 . S
C1231 H1225 0.930 . S
C1231 C1227 1.400 . S
C1231 C1230 1.385 . S
C1232 C1230 1.478 . S
C1232 C1234 1.381 . S
C1232 C1238 1.383 . S
C1233 C1229 1.495 . S
C1233 H1239 0.959 . S
C1233 H1240 0.961 . S
C1233 H1241 0.960 . S
C1234 C1232 1.381 . S
C1234 C1235 1.394 . S
C1234 H1242 0.930 . S
C1235 C1234 1.394 . S
C1235 C1236 1.383 . S
C1235 H1243 0.929 . S
C1236 C1235 1.383 . S
C1236 C1237 1.377 . S
C1237 H1221 0.930 1_655 S
C1237 C1236 1.377 . S
C1237 C1238 1.379 . S
C1238 H1222 0.945 . S
C1238 C1232 1.383 . S
C1238 C1237 1.379 . S
H1239 C1233 0.959 . S
H1240 C1233 0.961 . S
H1241 C1233 0.960 . S
H1242 C1234 0.930 . S
H1243 C1235 0.929 . S
H1244 C1252 0.929 . S
H1245 C1254 0.930 . S
H1246 C1256 0.930 . S
H1247 C1259 0.929 . S
H1248 C1262 0.930 . S
H1249 C1264 0.960 . S
H1250 C1264 0.960 . S
H1251 C1264 0.960 . S
C1252 H1244 0.929 . S
C1252 C1253 1.377 . S
C1252 C1254 1.384 . S
C1253 C1252 1.377 . S
C1253 C1259 1.390 . S
C1254 H1245 0.930 . S
C1254 C1252 1.384 . S
C1254 C1255 1.372 . S
C1255 C1254 1.372 . S
C1255 C1256 1.400 . S
C1255 C1260 1.490 . S
C1256 H1246 0.930 . S
C1256 C1255 1.400 . S
C1256 C1259 1.386 . S
H1257 C1273 0.930 . S
H1258 C1274 0.931 . S
C1259 H1247 0.929 . S
C1259 C1253 1.390 . S
C1259 C1256 1.386 . S
C1260 C1255 1.490 . S
C1260 C1262 1.395 . S
C1260 C1263 1.403 . S
H1261 C1267 0.930 . S
C1262 H1248 0.930 . S
C1262 C1260 1.395 . S
C1262 C1265 1.403 . S
C1263 C1260 1.403 . S
C1263 C1264 1.524 . S
C1263 C1267 1.400 . S
C1264 H1249 0.960 . S
C1264 H1250 0.960 . S
C1264 H1251 0.960 . S
C1264 C1263 1.524 . S
C1265 C1262 1.403 . S
C1265 C1266 1.392 . S
C1265 C1269 1.495 1_565 S
C1266 C1265 1.392 . S
C1266 C1267 1.385 . S
C1266 C1268 1.478 . S
C1267 H1261 0.930 . S
C1267 C1263 1.400 . S
C1267 C1266 1.385 . S
C1268 C1266 1.478 . S
C1268 C1270 1.381 . S
C1268 C1274 1.383 . S
C1269 C1265 1.495 1_545 S
C1269 H1275 0.959 . S
C1269 H1276 0.961 . S
C1269 H1277 0.960 . S
C1270 C1268 1.381 . S
C1270 C1271 1.394 . S
C1270 H1278 0.930 . S
C1271 C1270 1.394 . S
C1271 C1272 1.383 . S
C1271 H1279 0.929 . S
C1272 C1271 1.383 . S
C1272 C1273 1.377 . S
C1273 H1257 0.930 . S
C1273 C1272 1.377 . S
C1273 C1274 1.379 . S
C1274 H1258 0.931 . S
C1274 C1268 1.383 . S
C1274 C1273 1.379 . S
H1275 C1269 0.959 . S
H1276 C1269 0.961 . S
H1277 C1269 0.960 . S
H1278 C1270 0.930 . S
H1279 C1271 0.929 . S
H1280 C1288 0.929 . S
H1281 C1290 0.930 . S
H1282 C1292 0.930 . S
H1283 C1295 0.929 . S
H1284 C1298 0.930 . S
H1285 C1300 0.960 . S
H1286 C1300 0.960 . S
H1287 C1300 0.960 . S
C1288 H1280 0.929 . S
C1288 C1289 1.377 . S
C1288 C1290 1.384 . S
C1289 C1288 1.377 . S
C1289 C1295 1.390 . S
C1290 H1281 0.930 . S
C1290 C1288 1.384 . S
C1290 C1291 1.372 . S
C1291 C1290 1.372 . S
C1291 C1292 1.400 . S
C1291 C1296 1.490 . S
C1292 H1282 0.930 . S
C1292 C1291 1.400 . S
C1292 C1295 1.386 . S
H1293 C1309 0.930 . S
H1294 C1310 0.931 . S
C1295 H1283 0.929 . S
C1295 C1289 1.390 . S
C1295 C1292 1.386 . S
C1296 C1291 1.490 . S
C1296 C1298 1.395 . S
C1296 C1299 1.403 . S
H1297 C1303 0.930 . S
C1298 H1284 0.930 . S
C1298 C1296 1.395 . S
C1298 C1301 1.403 . S
C1299 C1296 1.403 . S
C1299 C1300 1.524 . S
C1299 C1303 1.400 . S
C1300 H1285 0.960 . S
C1300 H1286 0.960 . S
C1300 H1287 0.960 . S
C1300 C1299 1.524 . S
C1301 C1298 1.403 . S
C1301 C1302 1.392 . S
C1301 C1305 1.495 . S
C1302 C1301 1.392 . S
C1302 C1303 1.385 . S
C1302 C1304 1.478 . S
C1303 H1297 0.930 . S
C1303 C1299 1.400 . S
C1303 C1302 1.385 . S
C1304 C1302 1.478 . S
C1304 C1306 1.381 . S
C1304 C1310 1.383 . S
C1305 C1301 1.495 . S
C1305 H1311 0.959 . S
C1305 H1312 0.961 . S
C1305 H1313 0.960 . S
C1306 C1304 1.381 . S
C1306 C1307 1.394 . S
C1306 H1314 0.930 . S
C1307 C1306 1.394 . S
C1307 C1308 1.383 . S
C1307 H1315 0.929 . S
C1308 C1307 1.383 . S
C1308 C1309 1.377 . S
C1309 H1293 0.930 . S
C1309 C1308 1.377 . S
C1309 C1310 1.379 . S
C1310 H1294 0.931 . S
C1310 C1304 1.383 . S
C1310 C1309 1.379 . S
H1311 C1305 0.959 . S
H1312 C1305 0.961 . S
H1313 C1305 0.960 . S
H1314 C1306 0.930 . S
H1315 C1307 0.929 . S
H1316 C1324 0.929 . S
H1317 C1326 0.930 . S
H1318 C1328 0.930 . S
H1319 C1331 0.929 . S
H1320 C1334 0.930 . S
H1321 C1336 0.960 . S
H1322 C1336 0.960 . S
H1323 C1336 0.960 . S
C1324 H1316 0.929 . S
C1324 C1325 1.377 . S
C1324 C1326 1.384 . S
C1325 C1324 1.377 . S
C1325 C1331 1.390 . S
C1326 H1317 0.930 . S
C1326 C1324 1.384 . S
C1326 C1327 1.372 . S
C1327 C1326 1.372 . S
C1327 C1328 1.400 . S
C1327 C1332 1.490 . S
C1328 H1318 0.930 . S
C1328 C1327 1.400 . S
C1328 C1331 1.386 . S
H1329 C1345 0.930 . S
H1330 C1346 0.931 . S
C1331 H1319 0.929 . S
C1331 C1325 1.390 . S
C1331 C1328 1.386 . S
C1332 C1327 1.490 . S
C1332 C1334 1.395 . S
C1332 C1335 1.403 . S
H1333 C1339 0.930 . S
C1334 H1320 0.930 . S
C1334 C1332 1.395 . S
C1334 C1337 1.403 . S
C1335 C1332 1.403 . S
C1335 C1336 1.524 . S
C1335 C1339 1.400 . S
C1336 H1321 0.960 . S
C1336 H1322 0.960 . S
C1336 H1323 0.960 . S
C1336 C1335 1.524 . S
C1337 C1334 1.403 . S
C1337 C1338 1.392 . S
C1337 C1341 1.495 . S
C1338 C1337 1.392 . S
C1338 C1339 1.385 . S
C1338 C1340 1.478 . S
C1339 H1333 0.930 . S
C1339 C1335 1.400 . S
C1339 C1338 1.385 . S
C1340 C1338 1.478 . S
C1340 C1342 1.381 . S
C1340 C1346 1.383 . S
C1341 C1337 1.495 . S
C1341 H1347 0.959 . S
C1341 H1348 0.961 . S
C1341 H1349 0.960 . S
C1342 C1340 1.381 . S
C1342 C1343 1.394 . S
C1342 H1350 0.930 . S
C1343 C1342 1.394 . S
C1343 C1344 1.383 . S
C1343 H1351 0.929 . S
C1344 C1343 1.383 . S
C1344 C1345 1.377 . S
C1345 H1329 0.930 . S
C1345 C1344 1.377 . S
C1345 C1346 1.379 . S
C1346 H1330 0.931 . S
C1346 C1340 1.383 . S
C1346 C1345 1.379 . S
H1347 C1341 0.959 . S
H1348 C1341 0.961 . S
H1349 C1341 0.960 . S
H1350 C1342 0.930 . S
H1351 C1343 0.929 . S
C497 C125 1.814 . S
C516 C226 1.890 . S
C552 C310 1.891 . S
C533 C144 1.849 . S
C588 C376 1.958 . S
C569 C87 1.952 . S
C624 C460 1.922 . S
C605 C106 1.931 . S
C660 C215 1.871 1_565 S
C641 C49 1.916 . S
C677 C68 1.949 . S
C696 C299 1.889 . S
C713 C11 2.072 . S
C732 C387 1.905 . S
C749 C30 2.041 . S
C768 C471 1.919 . S
C804 C222 0.659 . S
C785 C97 0.552 . S
C840 C306 0.603 . S
C821 C116 0.529 . S
C876 C378 0.623 . S
C857 C135 0.510 . S
C893 C78 0.534 . S
C912 C462 0.582 . S
C929 C21 0.582 . S
C948 C210 0.624 . S
C984 C294 0.494 . S
C965 C40 0.522 . S
C1020 C390 0.581 . S
C1001 C59 0.534 . S
C1037 C2 0.565 . S
C1056 C474 0.524 . S
C1073 C101 1.994 . S
C1092 C219 2.034 . S
C1109 C120 1.954 . S
C1128 C303 1.992 . S
C1164 C383 1.982 . S
C1145 C139 1.849 . S
C1200 C467 2.019 . S
C1181 C82 1.883 . S
C1217 C25 1.988 . S
C1236 C208 2.010 . S
C1272 C292 1.944 1_565 S
C1253 C44 1.958 . S
C1308 C394 1.973 . S
C1289 C63 1.849 . S
C1325 C6 1.886 . S
C1344 C478 2.010 . S
