# Generated by pormake.
# Topology ctn, (3,4)-cn, num edge types: 1
# Building blocks:
#     Node 0, Type 0, BuildingBlock: KAKCAD_clean_linker_0, # of connection points: 3
#     Node 1, Type 0, BuildingBlock: KAKCAD_clean_linker_0, # of connection points: 3
#     Node 2, Type 0, BuildingBlock: KAKCAD_clean_linker_0, # of connection points: 3
#     Node 3, Type 0, BuildingBlock: KAKCAD_clean_linker_0, # of connection points: 3
#     Node 4, Type 0, BuildingBlock: KAKCAD_clean_linker_0, # of connection points: 3
#     Node 5, Type 0, BuildingBlock: KAKCAD_clean_linker_0, # of connection points: 3
#     Node 6, Type 0, BuildingBlock: KAKCAD_clean_linker_0, # of connection points: 3
#     Node 7, Type 0, BuildingBlock: KAKCAD_clean_linker_0, # of connection points: 3
#     Node 8, Type 0, BuildingBlock: KAKCAD_clean_linker_0, # of connection points: 3
#     Node 9, Type 0, BuildingBlock: KAKCAD_clean_linker_0, # of connection points: 3
#     Node 10, Type 0, BuildingBlock: KAKCAD_clean_linker_0, # of connection points: 3
#     Node 11, Type 0, BuildingBlock: KAKCAD_clean_linker_0, # of connection points: 3
#     Node 12, Type 0, BuildingBlock: KAKCAD_clean_linker_0, # of connection points: 3
#     Node 13, Type 0, BuildingBlock: KAKCAD_clean_linker_0, # of connection points: 3
#     Node 14, Type 0, BuildingBlock: KAKCAD_clean_linker_0, # of connection points: 3
#     Node 15, Type 0, BuildingBlock: KAKCAD_clean_linker_0, # of connection points: 3
#     Node 16, Type 1, BuildingBlock: NAHDIM_clean_sbu_0, # of connection points: 4
#     Node 17, Type 1, BuildingBlock: NAHDIM_clean_sbu_0, # of connection points: 4
#     Node 18, Type 1, BuildingBlock: NAHDIM_clean_sbu_0, # of connection points: 4
#     Node 19, Type 1, BuildingBlock: NAHDIM_clean_sbu_0, # of connection points: 4
#     Node 20, Type 1, BuildingBlock: NAHDIM_clean_sbu_0, # of connection points: 4
#     Node 21, Type 1, BuildingBlock: NAHDIM_clean_sbu_0, # of connection points: 4
#     Node 22, Type 1, BuildingBlock: NAHDIM_clean_sbu_0, # of connection points: 4
#     Node 23, Type 1, BuildingBlock: NAHDIM_clean_sbu_0, # of connection points: 4
#     Node 24, Type 1, BuildingBlock: NAHDIM_clean_sbu_0, # of connection points: 4
#     Node 25, Type 1, BuildingBlock: NAHDIM_clean_sbu_0, # of connection points: 4
#     Node 26, Type 1, BuildingBlock: NAHDIM_clean_sbu_0, # of connection points: 4
#     Node 27, Type 1, BuildingBlock: NAHDIM_clean_sbu_0, # of connection points: 4
#     Edge 28, Type (0, 1), BuildingBlock: EZIPEK_clean_linker_0, # of connection points: 2
#     Edge 29, Type (0, 1), BuildingBlock: EZIPEK_clean_linker_0, # of connection points: 2
#     Edge 30, Type (0, 1), BuildingBlock: EZIPEK_clean_linker_0, # of connection points: 2
#     Edge 31, Type (0, 1), BuildingBlock: EZIPEK_clean_linker_0, # of connection points: 2
#     Edge 32, Type (0, 1), BuildingBlock: EZIPEK_clean_linker_0, # of connection points: 2
#     Edge 33, Type (0, 1), BuildingBlock: EZIPEK_clean_linker_0, # of connection points: 2
#     Edge 34, Type (0, 1), BuildingBlock: EZIPEK_clean_linker_0, # of connection points: 2
#     Edge 35, Type (0, 1), BuildingBlock: EZIPEK_clean_linker_0, # of connection points: 2
#     Edge 36, Type (0, 1), BuildingBlock: EZIPEK_clean_linker_0, # of connection points: 2
#     Edge 37, Type (0, 1), BuildingBlock: EZIPEK_clean_linker_0, # of connection points: 2
#     Edge 38, Type (0, 1), BuildingBlock: EZIPEK_clean_linker_0, # of connection points: 2
#     Edge 39, Type (0, 1), BuildingBlock: EZIPEK_clean_linker_0, # of connection points: 2
#     Edge 40, Type (0, 1), BuildingBlock: EZIPEK_clean_linker_0, # of connection points: 2
#     Edge 41, Type (0, 1), BuildingBlock: EZIPEK_clean_linker_0, # of connection points: 2
#     Edge 42, Type (0, 1), BuildingBlock: EZIPEK_clean_linker_0, # of connection points: 2
#     Edge 43, Type (0, 1), BuildingBlock: EZIPEK_clean_linker_0, # of connection points: 2
#     Edge 44, Type (0, 1), BuildingBlock: EZIPEK_clean_linker_0, # of connection points: 2
#     Edge 45, Type (0, 1), BuildingBlock: EZIPEK_clean_linker_0, # of connection points: 2
#     Edge 46, Type (0, 1), BuildingBlock: EZIPEK_clean_linker_0, # of connection points: 2
#     Edge 47, Type (0, 1), BuildingBlock: EZIPEK_clean_linker_0, # of connection points: 2
#     Edge 48, Type (0, 1), BuildingBlock: EZIPEK_clean_linker_0, # of connection points: 2
#     Edge 49, Type (0, 1), BuildingBlock: EZIPEK_clean_linker_0, # of connection points: 2
#     Edge 50, Type (0, 1), BuildingBlock: EZIPEK_clean_linker_0, # of connection points: 2
#     Edge 51, Type (0, 1), BuildingBlock: EZIPEK_clean_linker_0, # of connection points: 2
#     Edge 52, Type (0, 1), BuildingBlock: EZIPEK_clean_linker_0, # of connection points: 2
#     Edge 53, Type (0, 1), BuildingBlock: EZIPEK_clean_linker_0, # of connection points: 2
#     Edge 54, Type (0, 1), BuildingBlock: EZIPEK_clean_linker_0, # of connection points: 2
#     Edge 55, Type (0, 1), BuildingBlock: EZIPEK_clean_linker_0, # of connection points: 2
#     Edge 56, Type (0, 1), BuildingBlock: EZIPEK_clean_linker_0, # of connection points: 2
#     Edge 57, Type (0, 1), BuildingBlock: EZIPEK_clean_linker_0, # of connection points: 2
#     Edge 58, Type (0, 1), BuildingBlock: EZIPEK_clean_linker_0, # of connection points: 2
#     Edge 59, Type (0, 1), BuildingBlock: EZIPEK_clean_linker_0, # of connection points: 2
#     Edge 60, Type (0, 1), BuildingBlock: EZIPEK_clean_linker_0, # of connection points: 2
#     Edge 61, Type (0, 1), BuildingBlock: EZIPEK_clean_linker_0, # of connection points: 2
#     Edge 62, Type (0, 1), BuildingBlock: EZIPEK_clean_linker_0, # of connection points: 2
#     Edge 63, Type (0, 1), BuildingBlock: EZIPEK_clean_linker_0, # of connection points: 2
#     Edge 64, Type (0, 1), BuildingBlock: EZIPEK_clean_linker_0, # of connection points: 2
#     Edge 65, Type (0, 1), BuildingBlock: EZIPEK_clean_linker_0, # of connection points: 2
#     Edge 66, Type (0, 1), BuildingBlock: EZIPEK_clean_linker_0, # of connection points: 2
#     Edge 67, Type (0, 1), BuildingBlock: EZIPEK_clean_linker_0, # of connection points: 2
#     Edge 68, Type (0, 1), BuildingBlock: EZIPEK_clean_linker_0, # of connection points: 2
#     Edge 69, Type (0, 1), BuildingBlock: EZIPEK_clean_linker_0, # of connection points: 2
#     Edge 70, Type (0, 1), BuildingBlock: EZIPEK_clean_linker_0, # of connection points: 2
#     Edge 71, Type (0, 1), BuildingBlock: EZIPEK_clean_linker_0, # of connection points: 2
#     Edge 72, Type (0, 1), BuildingBlock: EZIPEK_clean_linker_0, # of connection points: 2
#     Edge 73, Type (0, 1), BuildingBlock: EZIPEK_clean_linker_0, # of connection points: 2
#     Edge 74, Type (0, 1), BuildingBlock: EZIPEK_clean_linker_0, # of connection points: 2
#     Edge 75, Type (0, 1), BuildingBlock: EZIPEK_clean_linker_0, # of connection points: 2
# Relax obj value: 0.002
# Max RMSD: 0.032
# Mean RMSD: 0.017
data_MOF--net-ctn--node1-NAHDIM_clean_sbu_0--node2-KAKCAD_clean_linker_0--edge1-EZIPEK_clean_linker_0
_symmetry_space_group_name_H-M    P1
_symmetry_Int_Tables_number       1
_symmetry_cell_setting            triclinic
loop_
_symmetry_equiv_pos_as_xyz
'x, y, z'
_cell_length_a     52.638639
_cell_length_b     52.879926
_cell_length_c     52.254974
_cell_angle_alpha  91.35652
_cell_angle_beta   90.350448
_cell_angle_gamma 92.58821
loop_
_atom_site_label
_atom_site_type_symbol
_atom_site_fract_x
_atom_site_fract_y
_atom_site_fract_z
_atom_type_partial_charge
C0 C 0.02586 0.09446 0.95608 0.0
C1 C 0.01928 0.1187 0.96436 0.0
C2 C 0.03062 0.07594 0.97392 0.0
C3 C 0.02879 0.08135 0.00033 0.0
C4 C 0.02189 0.10562 0.00848 0.0
C5 C 0.01721 0.12415 0.99063 0.0
C6 C 0.03451 0.06191 0.01934 0.0
C7 C 0.05571 0.04696 0.01616 0.0
C8 C 0.06165 0.02887 0.03428 0.0
C9 C 0.04587 0.02569 0.05568 0.0
C10 C 0.02445 0.04031 0.0591 0.0
C11 C 0.01897 0.05843 0.04086 0.0
C12 C 0.0079 0.03671 0.0818 0.0
C13 C 0.00131 0.01222 0.09024 0.0
C14 C 0.99869 0.05772 0.09527 0.0
C15 C 0.98335 0.0543 0.11677 0.0
C16 C 0.97696 0.02984 0.12513 0.0
C17 C 0.08448 0.01353 0.03104 0.0
C18 C 0.10741 0.02463 0.02195 0.0
C19 C 0.08358 0.9877 0.03708 0.0
C20 C 0.1051 0.97336 0.03417 0.0
C21 C 0.1278 0.98457 0.02504 0.0
C22 C 0.12885 0.01024 0.01891 0.0
C23 C 0.98596 0.00883 0.11173 0.0
H24 H 0.02744 0.08997 0.93584 0.0
H25 H 0.03559 0.05734 0.96705 0.0
H26 H 0.02059 0.11045 0.02867 0.0
H27 H 0.01219 0.14282 0.99729 0.0
H28 H 0.06772 0.04956 0.99958 0.0
H29 H 0.00224 0.06947 0.0431 0.0
H30 H 0.05066 0.01229 0.07012 0.0
H31 H 0.00783 0.99566 0.0801 0.0
H32 H 0.00366 0.07682 0.08944 0.0
H33 H 0.97658 0.07071 0.127 0.0
H34 H 0.10892 0.04454 0.01751 0.0
H35 H 0.06617 0.97847 0.04379 0.0
H36 H 0.98112 0.98983 0.11795 0.0
H37 H 0.14633 0.01915 0.01193 0.0
H38 H 0.10403 0.95351 0.0389 0.0
C39 C 0.35733 0.75272 0.2762 0.0
C40 C 0.37168 0.73286 0.28474 0.0
C41 C 0.33652 0.74771 0.25986 0.0
C42 C 0.32969 0.72273 0.25183 0.0
C43 C 0.34402 0.70283 0.2607 0.0
C44 C 0.3649 0.70788 0.277 0.0
C45 C 0.30792 0.71754 0.23397 0.0
C46 C 0.30464 0.73301 0.21284 0.0
C47 C 0.28409 0.7285 0.19582 0.0
C48 C 0.26678 0.70804 0.20006 0.0
C49 C 0.26971 0.69229 0.22111 0.0
C50 C 0.29038 0.69723 0.23796 0.0
C51 C 0.25109 0.67085 0.22561 0.0
C52 C 0.2249 0.67354 0.22143 0.0
C53 C 0.25934 0.64751 0.23417 0.0
C54 C 0.24183 0.62743 0.23851 0.0
C55 C 0.21582 0.63027 0.23422 0.0
C56 C 0.28082 0.74521 0.17365 0.0
C57 C 0.28521 0.77159 0.17648 0.0
C58 C 0.27349 0.73495 0.14948 0.0
C59 C 0.27076 0.7507 0.12862 0.0
C60 C 0.27536 0.77693 0.13159 0.0
C61 C 0.28255 0.7873 0.15561 0.0
C62 C 0.20744 0.65339 0.22562 0.0
H63 H 0.36233 0.77209 0.28211 0.0
H64 H 0.32567 0.7634 0.25362 0.0
H65 H 0.33937 0.68343 0.25466 0.0
H66 H 0.37586 0.69237 0.28346 0.0
H67 H 0.3185 0.74829 0.2093 0.0
H68 H 0.29247 0.68567 0.25462 0.0
H69 H 0.25094 0.7044 0.18696 0.0
H70 H 0.21783 0.69133 0.21525 0.0
H71 H 0.27936 0.64465 0.23724 0.0
H72 H 0.24855 0.60962 0.24507 0.0
H73 H 0.29051 0.78014 0.1949 0.0
H74 H 0.27028 0.71471 0.14657 0.0
H75 H 0.18738 0.65586 0.22234 0.0
H76 H 0.28607 0.80755 0.15816 0.0
H77 H 0.26527 0.74245 0.11012 0.0
C78 C 0.00043 0.48254 0.12526 0.0
C79 C 0.02697 0.48222 0.12349 0.0
C80 C 0.98523 0.47815 0.10346 0.0
C81 C 0.99634 0.47328 0.07951 0.0
C82 C 0.023 0.47293 0.07789 0.0
C83 C 0.03819 0.47741 0.09971 0.0
C84 C 0.98012 0.46857 0.05636 0.0
C85 C 0.95913 0.48345 0.05196 0.0
C86 C 0.94353 0.47902 0.03026 0.0
C87 C 0.94891 0.45923 0.01303 0.0
C88 C 0.96982 0.44423 0.01708 0.0
C89 C 0.98545 0.44911 0.03867 0.0
C90 C 0.9752 0.42336 0.99879 0.0
C91 C 0.95575 0.40565 0.99113 0.0
C92 C 0.99971 0.42114 0.98871 0.0
C93 C 0.0046 0.40173 0.97103 0.0
C94 C 0.98516 0.384 0.96351 0.0
C95 C 0.92184 0.4953 0.02539 0.0
C96 C 0.90548 0.50207 0.04536 0.0
C97 C 0.91746 0.50433 0.00071 0.0
C98 C 0.89723 0.51987 0.99613 0.0
C99 C 0.88101 0.52653 0.0161 0.0
C100 C 0.88518 0.51752 0.04072 0.0
C101 C 0.96075 0.38602 0.97378 0.0
H102 H 0.99152 0.48616 0.14354 0.0
H103 H 0.96476 0.47823 0.1054 0.0
H104 H 0.03213 0.46951 0.05969 0.0
H105 H 0.05869 0.47714 0.09809 0.0
H106 H 0.95534 0.49897 0.0651 0.0
H107 H 0.00133 0.43723 0.04206 0.0
H108 H 0.93685 0.45551 0.99635 0.0
H109 H 0.93675 0.40686 0.99878 0.0
H110 H 0.01496 0.43466 0.99419 0.0
H111 H 0.02354 0.40047 0.96325 0.0
H112 H 0.90824 0.49521 0.0645 0.0
H113 H 0.92991 0.49969 0.98502 0.0
H114 H 0.94555 0.37245 0.96824 0.0
H115 H 0.87275 0.52252 0.05631 0.0
H116 H 0.89425 0.52677 0.97704 0.0
C117 C 0.70054 0.73946 0.1324 0.0
C118 C 0.72487 0.73076 0.12767 0.0
C119 C 0.69671 0.75658 0.15264 0.0
C120 C 0.71717 0.76527 0.16845 0.0
C121 C 0.74149 0.75627 0.1637 0.0
C122 C 0.7453 0.73914 0.14347 0.0
C123 C 0.71321 0.78395 0.18957 0.0
C124 C 0.69165 0.78164 0.20521 0.0
C125 C 0.68762 0.79941 0.22503 0.0
C126 C 0.70545 0.81973 0.22907 0.0
C127 C 0.72716 0.82226 0.21367 0.0
C128 C 0.7309 0.80428 0.19401 0.0
C129 C 0.74593 0.84373 0.21795 0.0
C130 C 0.73782 0.86855 0.22135 0.0
C131 C 0.77212 0.83955 0.21844 0.0
C132 C 0.78984 0.85976 0.22239 0.0
C133 C 0.78167 0.8845 0.22567 0.0
C134 C 0.66491 0.79651 0.24164 0.0
C135 C 0.64092 0.78961 0.23095 0.0
C136 C 0.66712 0.80024 0.26833 0.0
C137 C 0.64584 0.79691 0.28398 0.0
C138 C 0.62202 0.78989 0.27321 0.0
C139 C 0.61965 0.78636 0.24661 0.0
C140 C 0.75557 0.88879 0.22506 0.0
H141 H 0.68461 0.73318 0.12027 0.0
H142 H 0.67782 0.76338 0.1556 0.0
H143 H 0.75756 0.76235 0.17573 0.0
H144 H 0.76418 0.7325 0.14004 0.0
H145 H 0.67829 0.76561 0.20234 0.0
H146 H 0.74729 0.80656 0.18169 0.0
H147 H 0.70247 0.83358 0.24425 0.0
H148 H 0.71777 0.87234 0.2208 0.0
H149 H 0.77888 0.82059 0.21608 0.0
H150 H 0.80993 0.85614 0.22292 0.0
H151 H 0.63855 0.78689 0.21045 0.0
H152 H 0.68537 0.80527 0.27715 0.0
H153 H 0.74898 0.9078 0.22754 0.0
H154 H 0.60135 0.78102 0.23802 0.0
H155 H 0.64796 0.79964 0.30451 0.0
C156 C 0.95517 0.98743 0.40659 0.0
C157 C 0.96338 0.99173 0.38153 0.0
C158 C 0.97285 0.98351 0.426 0.0
C159 C 0.99903 0.98405 0.42064 0.0
C160 C 0.00714 0.98865 0.39551 0.0
C161 C 0.98943 0.99235 0.37609 0.0
C162 C 0.01782 0.97951 0.44112 0.0
C163 C 0.01371 0.95941 0.4579 0.0
C164 C 0.03165 0.95461 0.47699 0.0
C165 C 0.05388 0.97029 0.47923 0.0
C166 C 0.05822 0.99067 0.46275 0.0
C167 C 0.04004 0.99508 0.44373 0.0
C168 C 0.08152 0.00756 0.46555 0.0
C169 C 0.09109 0.01483 0.48998 0.0
C170 C 0.09416 0.0169 0.44382 0.0
C171 C 0.11555 0.03341 0.44645 0.0
C172 C 0.12485 0.0407 0.47085 0.0
C173 C 0.02725 0.93303 0.49436 0.0
C174 C 0.00305 0.92795 0.50487 0.0
C175 C 0.04709 0.91713 0.50027 0.0
C176 C 0.04275 0.89647 0.51611 0.0
C177 C 0.01853 0.89141 0.52633 0.0
C178 C 0.99875 0.90731 0.52074 0.0
C179 C 0.11262 0.03116 0.49259 0.0
H180 H 0.93508 0.98691 0.41104 0.0
H181 H 0.96609 0.98022 0.44522 0.0
H182 H 0.02716 0.98893 0.3908 0.0
H183 H 0.99601 0.99559 0.35678 0.0
H184 H 0.99684 0.94702 0.45558 0.0
H185 H 0.04284 0.01105 0.43128 0.0
H186 H 0.06781 0.9666 0.49386 0.0
H187 H 0.08166 0.00832 0.50713 0.0
H188 H 0.08759 0.01139 0.42473 0.0
H189 H 0.12483 0.04057 0.42948 0.0
H190 H 0.98748 0.94001 0.50092 0.0
H191 H 0.06585 0.92037 0.49225 0.0
H192 H 0.11954 0.03668 0.51157 0.0
H193 H 0.97995 0.90362 0.52853 0.0
H194 H 0.05818 0.88427 0.52022 0.0
C195 C 0.12642 0.70967 0.74326 0.0
C196 C 0.12116 0.73352 0.73385 0.0
C197 C 0.14751 0.70692 0.7592 0.0
C198 C 0.16356 0.72802 0.76607 0.0
C199 C 0.15827 0.75183 0.75636 0.0
C200 C 0.13726 0.75454 0.74038 0.0
C201 C 0.18556 0.72542 0.7836 0.0
C202 C 0.20157 0.70501 0.78072 0.0
C203 C 0.22268 0.70283 0.79701 0.0
C204 C 0.22763 0.72137 0.81635 0.0
C205 C 0.21168 0.74179 0.81968 0.0
C206 C 0.19065 0.74355 0.80324 0.0
C207 C 0.21684 0.76123 0.84035 0.0
C208 C 0.22545 0.75423 0.86463 0.0
C209 C 0.21295 0.78697 0.83602 0.0
C210 C 0.21731 0.80518 0.85554 0.0
C211 C 0.2259 0.79803 0.87962 0.0
C212 C 0.23963 0.68127 0.7938 0.0
C213 C 0.22934 0.65654 0.78928 0.0
C214 C 0.26622 0.68523 0.79539 0.0
C215 C 0.28214 0.66492 0.79255 0.0
C216 C 0.27175 0.64032 0.78813 0.0
C217 C 0.24527 0.63623 0.7865 0.0
C218 C 0.23005 0.77251 0.88405 0.0
H219 H 0.1141 0.69328 0.7384 0.0
H220 H 0.15097 0.6884 0.76656 0.0
H221 H 0.17046 0.76837 0.76102 0.0
H222 H 0.13346 0.77305 0.73319 0.0
H223 H 0.19801 0.69118 0.76533 0.0
H224 H 0.17781 0.75881 0.80608 0.0
H225 H 0.24394 0.71984 0.82887 0.0
H226 H 0.22826 0.73459 0.86878 0.0
H227 H 0.20673 0.7931 0.81746 0.0
H228 H 0.21412 0.82486 0.85185 0.0
H229 H 0.20894 0.65284 0.78824 0.0
H230 H 0.27474 0.70409 0.79853 0.0
H231 H 0.23658 0.76674 0.90264 0.0
H232 H 0.23698 0.61731 0.78312 0.0
H233 H 0.30256 0.66837 0.79373 0.0
C234 C 0.99248 0.63241 0.50581 0.0
C235 C 0.9876 0.63127 0.53211 0.0
C236 C 0.98868 0.61076 0.49011 0.0
C237 C 0.97998 0.58767 0.50052 0.0
C238 C 0.97526 0.58671 0.52697 0.0
C239 C 0.97899 0.60834 0.54261 0.0
C240 C 0.97582 0.56458 0.48398 0.0
C241 C 0.99321 0.55867 0.46475 0.0
C242 C 0.9896 0.53662 0.44933 0.0
C243 C 0.96861 0.51995 0.45405 0.0
C244 C 0.95093 0.52547 0.47332 0.0
C245 C 0.95453 0.54818 0.48772 0.0
C246 C 0.92886 0.5076 0.47871 0.0
C247 C 0.91721 0.49234 0.4591 0.0
C248 C 0.91924 0.50562 0.50375 0.0
C249 C 0.8984 0.48932 0.5089 0.0
C250 C 0.8872 0.47388 0.48938 0.0
C251 C 0.00765 0.53127 0.42821 0.0
C252 C 0.01792 0.55117 0.41347 0.0
C253 C 0.01462 0.50639 0.42238 0.0
C254 C 0.03125 0.50156 0.40224 0.0
C255 C 0.04148 0.52153 0.38777 0.0
C256 C 0.03477 0.54636 0.3936 0.0
C257 C 0.89686 0.4754 0.46446 0.0
H258 H 0.9991 0.65005 0.49747 0.0
H259 H 0.99224 0.61219 0.46979 0.0
H260 H 0.96893 0.56915 0.53566 0.0
H261 H 0.97525 0.60721 0.56292 0.0
H262 H 0.00994 0.57102 0.46216 0.0
H263 H 0.94055 0.55342 0.50175 0.0
H264 H 0.96607 0.50268 0.44263 0.0
H265 H 0.92356 0.49355 0.43949 0.0
H266 H 0.92794 0.5164 0.51961 0.0
H267 H 0.8913 0.48837 0.52829 0.0
H268 H 0.01266 0.57049 0.41703 0.0
H269 H 0.00744 0.49064 0.43351 0.0
H270 H 0.88845 0.46365 0.4491 0.0
H271 H 0.04239 0.56199 0.38254 0.0
H272 H 0.03624 0.48226 0.39799 0.0
C273 C 0.80676 0.73752 0.86933 0.0
C274 C 0.7824 0.72859 0.87648 0.0
C275 C 0.80987 0.7529 0.84807 0.0
C276 C 0.78863 0.7596 0.83366 0.0
C277 C 0.76429 0.75022 0.84072 0.0
C278 C 0.76122 0.73485 0.86195 0.0
C279 C 0.7917 0.77671 0.81163 0.0
C280 C 0.81158 0.77386 0.79414 0.0
C281 C 0.81441 0.78993 0.77321 0.0
C282 C 0.79711 0.80911 0.76991 0.0
C283 C 0.77719 0.81233 0.78732 0.0
C284 C 0.77469 0.79606 0.8081 0.0
C285 C 0.75909 0.83283 0.78415 0.0
C286 C 0.76786 0.85738 0.77771 0.0
C287 C 0.73293 0.82813 0.78832 0.0
C288 C 0.716 0.8476 0.7865 0.0
C289 C 0.7249 0.8721 0.78049 0.0
C290 C 0.83531 0.78642 0.75468 0.0
C291 C 0.86007 0.78228 0.7634 0.0
C292 C 0.83056 0.78671 0.72817 0.0
C293 C 0.8501 0.78255 0.71076 0.0
C294 C 0.87472 0.77824 0.71959 0.0
C295 C 0.87962 0.77831 0.746 0.0
C296 C 0.75089 0.87687 0.77593 0.0
H297 H 0.82329 0.73284 0.88042 0.0
H298 H 0.82882 0.76001 0.84326 0.0
H299 H 0.74761 0.75472 0.8298 0.0
H300 H 0.7423 0.72801 0.86721 0.0
H301 H 0.82447 0.75865 0.79643 0.0
H302 H 0.75981 0.79888 0.82199 0.0
H303 H 0.79917 0.82155 0.75379 0.0
H304 H 0.78791 0.86166 0.77465 0.0
H305 H 0.72554 0.80936 0.79297 0.0
H306 H 0.69596 0.84363 0.78998 0.0
H307 H 0.86434 0.78221 0.78371 0.0
H308 H 0.81163 0.78961 0.72089 0.0
H309 H 0.75802 0.89573 0.77128 0.0
H310 H 0.89855 0.77506 0.7531 0.0
H311 H 0.846 0.78247 0.69042 0.0
C312 C 0.30371 0.23402 0.36251 0.0
C313 C 0.27903 0.22773 0.37094 0.0
C314 C 0.30742 0.24941 0.34135 0.0
C315 C 0.28649 0.25871 0.32823 0.0
C316 C 0.26178 0.25186 0.33648 0.0
C317 C 0.2581 0.23654 0.35768 0.0
C318 C 0.29041 0.27611 0.30651 0.0
C319 C 0.30943 0.27197 0.2883 0.0
C320 C 0.31356 0.2887 0.26806 0.0
C321 C 0.29823 0.30968 0.26609 0.0
C322 C 0.27904 0.31405 0.28402 0.0
C323 C 0.27535 0.29722 0.30418 0.0
C324 C 0.26294 0.3363 0.28186 0.0
C325 C 0.27377 0.36013 0.27551 0.0
C326 C 0.2366 0.33387 0.28627 0.0
C327 C 0.22146 0.35478 0.2844 0.0
C328 C 0.23238 0.37846 0.27808 0.0
C329 C 0.33394 0.28435 0.24906 0.0
C330 C 0.35777 0.27621 0.257 0.0
C331 C 0.32982 0.28851 0.22288 0.0
C332 C 0.34911 0.28476 0.20511 0.0
C333 C 0.37278 0.27668 0.2132 0.0
C334 C 0.37701 0.27236 0.2392 0.0
C335 C 0.25859 0.38104 0.27364 0.0
H336 H 0.32006 0.22738 0.37261 0.0
H337 H 0.32669 0.25455 0.33568 0.0
H338 H 0.24526 0.25837 0.32657 0.0
H339 H 0.23892 0.23177 0.36393 0.0
H340 H 0.3207 0.2554 0.28961 0.0
H341 H 0.26116 0.30098 0.31855 0.0
H342 H 0.30128 0.3227 0.25059 0.0
H343 H 0.29402 0.36271 0.27233 0.0
H344 H 0.22764 0.31572 0.29089 0.0
H345 H 0.20121 0.35251 0.28778 0.0
H346 H 0.3617 0.27316 0.27703 0.0
H347 H 0.31161 0.29443 0.21606 0.0
H348 H 0.26728 0.39925 0.2688 0.0
H349 H 0.39524 0.26617 0.24569 0.0
H350 H 0.34558 0.28806 0.18504 0.0
C351 C 0.50033 0.98548 0.63011 0.0
C352 C 0.5268 0.98362 0.62927 0.0
C353 C 0.48573 0.982 0.60776 0.0
C354 C 0.49739 0.97663 0.58421 0.0
C355 C 0.52399 0.97493 0.58352 0.0
C356 C 0.53856 0.97836 0.60587 0.0
C357 C 0.48192 0.97259 0.56044 0.0
C358 C 0.46157 0.98805 0.55527 0.0
C359 C 0.4469 0.98429 0.5328 0.0
C360 C 0.45296 0.96486 0.51536 0.0
C361 C 0.47307 0.94902 0.52032 0.0
C362 C 0.48738 0.95304 0.54295 0.0
C363 C 0.47891 0.92801 0.50214 0.0
C364 C 0.45917 0.91331 0.48999 0.0
C365 C 0.50427 0.92214 0.49721 0.0
C366 C 0.50973 0.90179 0.48093 0.0
C367 C 0.48996 0.88711 0.46913 0.0
C368 C 0.4251 0.00046 0.52766 0.0
C369 C 0.42678 0.02663 0.53348 0.0
C370 C 0.40231 0.98977 0.51703 0.0
C371 C 0.38177 0.00485 0.51229 0.0
C372 C 0.38357 0.03085 0.51822 0.0
C373 C 0.40614 0.04167 0.52886 0.0
C374 C 0.46467 0.89307 0.47356 0.0
H375 H 0.49101 0.98948 0.64808 0.0
H376 H 0.46528 0.98311 0.60901 0.0
H377 H 0.53359 0.97115 0.56565 0.0
H378 H 0.559 0.97693 0.60495 0.0
H379 H 0.45709 0.00299 0.56882 0.0
H380 H 0.50241 0.94046 0.54734 0.0
H381 H 0.44227 0.96233 0.49763 0.0
H382 H 0.43944 0.91706 0.4936 0.0
H383 H 0.51993 0.9333 0.5059 0.0
H384 H 0.52936 0.89742 0.47758 0.0
H385 H 0.44413 0.03555 0.54134 0.0
H386 H 0.40021 0.96965 0.51269 0.0
H387 H 0.44922 0.88179 0.46462 0.0
H388 H 0.40779 0.06177 0.53345 0.0
H389 H 0.36439 0.99624 0.50414 0.0
C390 C 0.21699 0.23815 0.62886 0.0
C391 C 0.24218 0.2315 0.62495 0.0
C392 C 0.21096 0.25383 0.64966 0.0
C393 C 0.23009 0.26323 0.66671 0.0
C394 C 0.25525 0.25614 0.66289 0.0
C395 C 0.26123 0.24034 0.6422 0.0
C396 C 0.22404 0.28117 0.68784 0.0
C397 C 0.20254 0.27676 0.70319 0.0
C398 C 0.1966 0.29398 0.72297 0.0
C399 C 0.21238 0.31591 0.72706 0.0
C400 C 0.23397 0.32053 0.71193 0.0
C401 C 0.23967 0.30304 0.69242 0.0
C402 C 0.25055 0.3437 0.71629 0.0
C403 C 0.23994 0.36744 0.72005 0.0
C404 C 0.27717 0.34223 0.71643 0.0
C405 C 0.29284 0.36404 0.72019 0.0
C406 C 0.28217 0.38766 0.72374 0.0
C407 C 0.17399 0.28909 0.73938 0.0
C408 C 0.15088 0.27932 0.72865 0.0
C409 C 0.17529 0.29434 0.76591 0.0
C410 C 0.15395 0.29017 0.78128 0.0
C411 C 0.13098 0.28059 0.77041 0.0
C412 C 0.12957 0.27508 0.74406 0.0
C413 C 0.25566 0.38928 0.72367 0.0
H414 H 0.20212 0.23149 0.61561 0.0
H415 H 0.19147 0.25917 0.65199 0.0
H416 H 0.27033 0.26288 0.67588 0.0
H417 H 0.28076 0.23531 0.6394 0.0
H418 H 0.19078 0.2596 0.70008 0.0
H419 H 0.25593 0.30685 0.68025 0.0
H420 H 0.20788 0.32943 0.74208 0.0
H421 H 0.21952 0.36918 0.71977 0.0
H422 H 0.28586 0.32418 0.71385 0.0
H423 H 0.3133 0.36253 0.72032 0.0
H424 H 0.14913 0.27537 0.70827 0.0
H425 H 0.19287 0.30149 0.77486 0.0
H426 H 0.24718 0.40743 0.72639 0.0
H427 H 0.11189 0.26777 0.73542 0.0
H428 H 0.1553 0.29445 0.80163 0.0
C429 C 0.85851 0.25102 0.78035 0.0
C430 C 0.87236 0.23046 0.78813 0.0
C431 C 0.83778 0.24716 0.76369 0.0
C432 C 0.83037 0.22263 0.75474 0.0
C433 C 0.84428 0.20205 0.76257 0.0
C434 C 0.86524 0.20597 0.779 0.0
C435 C 0.80779 0.21865 0.73775 0.0
C436 C 0.80472 0.2341 0.71658 0.0
C437 C 0.78251 0.23197 0.70128 0.0
C438 C 0.76351 0.21354 0.70763 0.0
C439 C 0.76691 0.19704 0.72796 0.0
C440 C 0.78904 0.19987 0.74304 0.0
C441 C 0.74765 0.17636 0.73292 0.0
C442 C 0.72148 0.18074 0.732 0.0
C443 C 0.75537 0.15176 0.73765 0.0
C444 C 0.73735 0.13192 0.74092 0.0
C445 C 0.71133 0.13633 0.7396 0.0
C446 C 0.77937 0.24861 0.67865 0.0
C447 C 0.7926 0.27238 0.67735 0.0
C448 C 0.76334 0.24086 0.65788 0.0
C449 C 0.76032 0.25645 0.63696 0.0
C450 C 0.77425 0.2796 0.63547 0.0
C451 C 0.79058 0.2873 0.65579 0.0
C452 C 0.70346 0.16087 0.73534 0.0
H453 H 0.86372 0.27004 0.78727 0.0
H454 H 0.82723 0.26331 0.75816 0.0
H455 H 0.83905 0.18298 0.75582 0.0
H456 H 0.87579 0.18991 0.78477 0.0
H457 H 0.82011 0.24741 0.71195 0.0
H458 H 0.79138 0.18784 0.75933 0.0
H459 H 0.74603 0.2116 0.69666 0.0
H460 H 0.71495 0.19952 0.72868 0.0
H461 H 0.77535 0.14772 0.73816 0.0
H462 H 0.74367 0.11303 0.74412 0.0
H463 H 0.80449 0.2798 0.69296 0.0
H464 H 0.75329 0.22259 0.65729 0.0
H465 H 0.6834 0.16453 0.7343 0.0
H466 H 0.80149 0.30514 0.65514 0.0
H467 H 0.74757 0.25009 0.62153 0.0
C468 C 0.5286 0.60028 0.46391 0.0
C469 C 0.52212 0.62438 0.4727 0.0
C470 C 0.53374 0.58149 0.48134 0.0
C471 C 0.5324 0.5865 0.50785 0.0
C472 C 0.52581 0.61071 0.51653 0.0
C473 C 0.52075 0.6295 0.49909 0.0
C474 C 0.53796 0.56657 0.52638 0.0
C475 C 0.55866 0.55111 0.5225 0.0
C476 C 0.56418 0.53229 0.53996 0.0
C477 C 0.54867 0.52901 0.56153 0.0
C478 C 0.52779 0.54422 0.56571 0.0
C479 C 0.52262 0.56297 0.54802 0.0
C480 C 0.51129 0.54045 0.58843 0.0
C481 C 0.50414 0.5159 0.59634 0.0
C482 C 0.50249 0.56139 0.60234 0.0
C483 C 0.48692 0.55785 0.62365 0.0
C484 C 0.47993 0.53333 0.63144 0.0
C485 C 0.58623 0.51617 0.53568 0.0
C486 C 0.59115 0.50614 0.51111 0.0
C487 C 0.6026 0.51081 0.55604 0.0
C488 C 0.62349 0.49587 0.55189 0.0
C489 C 0.62829 0.48599 0.52735 0.0
C490 C 0.61199 0.49114 0.507 0.0
C491 C 0.48861 0.51238 0.61768 0.0
H492 H 0.52965 0.59603 0.44357 0.0
H493 H 0.53847 0.56296 0.47406 0.0
H494 H 0.5249 0.61523 0.53682 0.0
H495 H 0.51582 0.64807 0.50614 0.0
H496 H 0.57093 0.55417 0.50618 0.0
H497 H 0.50621 0.57438 0.55074 0.0
H498 H 0.55286 0.51455 0.57509 0.0
H499 H 0.5103 0.49938 0.58585 0.0
H500 H 0.50788 0.58053 0.59695 0.0
H501 H 0.48041 0.57421 0.63415 0.0
H502 H 0.57873 0.50968 0.49512 0.0
H503 H 0.59948 0.51849 0.5751 0.0
H504 H 0.48331 0.49333 0.62345 0.0
H505 H 0.61545 0.48357 0.48796 0.0
H506 H 0.63597 0.49205 0.56776 0.0
C507 C 0.45931 0.4832 0.90513 0.0
C508 C 0.46861 0.49031 0.88115 0.0
C509 C 0.47608 0.48001 0.92552 0.0
C510 C 0.50251 0.48371 0.92222 0.0
C511 C 0.51169 0.49101 0.89811 0.0
C512 C 0.49488 0.49437 0.87781 0.0
C513 C 0.52043 0.47972 0.94374 0.0
C514 C 0.51606 0.45956 0.96044 0.0
C515 C 0.53285 0.45559 0.98085 0.0
C516 C 0.55446 0.47198 0.98424 0.0
C517 C 0.55936 0.49201 0.96752 0.0
C518 C 0.54214 0.49585 0.94749 0.0
C519 C 0.58256 0.50887 0.9707 0.0
C520 C 0.59029 0.51829 0.99506 0.0
C521 C 0.59706 0.51582 0.94923 0.0
C522 C 0.61866 0.53199 0.95203 0.0
C523 C 0.6261 0.54154 0.9763 0.0
C524 C 0.52793 0.43403 0.99823 0.0
C525 C 0.50299 0.42742 0.00603 0.0
C526 C 0.548 0.41955 0.00673 0.0
C527 C 0.54319 0.39882 0.0224 0.0
C528 C 0.51825 0.39216 0.0297 0.0
C529 C 0.4982 0.40661 0.02155 0.0
C530 C 0.61188 0.53456 0.99783 0.0
H531 H 0.43906 0.48002 0.90802 0.0
H532 H 0.46833 0.47478 0.9439 0.0
H533 H 0.5319 0.49367 0.89477 0.0
H534 H 0.50236 0.49978 0.85936 0.0
H535 H 0.49989 0.44647 0.9571 0.0
H536 H 0.54544 0.51177 0.93507 0.0
H537 H 0.5676 0.46906 0.99983 0.0
H538 H 0.57939 0.51346 0.01191 0.0
H539 H 0.59178 0.50861 0.93027 0.0
H540 H 0.62951 0.5372 0.93526 0.0
H541 H 0.48715 0.43838 0.00019 0.0
H542 H 0.56737 0.42386 0.00082 0.0
H543 H 0.61741 0.54186 0.01669 0.0
H544 H 0.47884 0.40171 0.02714 0.0
H545 H 0.55884 0.38774 0.0285 0.0
C546 C 0.62698 0.20783 0.24174 0.0
C547 C 0.62159 0.23205 0.23345 0.0
C548 C 0.64778 0.20455 0.25789 0.0
C549 C 0.66349 0.22548 0.26604 0.0
C550 C 0.65797 0.24972 0.25761 0.0
C551 C 0.6372 0.25296 0.24144 0.0
C552 C 0.68559 0.22211 0.28325 0.0
C553 C 0.7016 0.20186 0.27917 0.0
C554 C 0.72266 0.19874 0.29524 0.0
C555 C 0.72777 0.21632 0.31537 0.0
C556 C 0.71181 0.23651 0.32005 0.0
C557 C 0.69071 0.23918 0.30387 0.0
C558 C 0.7172 0.25466 0.34188 0.0
C559 C 0.72728 0.24622 0.36504 0.0
C560 C 0.71253 0.28055 0.33975 0.0
C561 C 0.71787 0.29752 0.36021 0.0
C562 C 0.7284 0.28902 0.383 0.0
C563 C 0.73925 0.17702 0.29125 0.0
C564 C 0.74666 0.16955 0.26648 0.0
C565 C 0.74779 0.16355 0.31232 0.0
C566 C 0.76337 0.1431 0.3087 0.0
C567 C 0.77067 0.13576 0.28398 0.0
C568 C 0.76227 0.14908 0.26288 0.0
C569 C 0.73302 0.26326 0.38527 0.0
H570 H 0.61501 0.19152 0.23578 0.0
H571 H 0.65135 0.1857 0.26428 0.0
H572 H 0.66989 0.26615 0.26329 0.0
H573 H 0.63328 0.27177 0.23513 0.0
H574 H 0.69764 0.18849 0.26347 0.0
H575 H 0.67782 0.25421 0.30765 0.0
H576 H 0.74458 0.21449 0.32713 0.0
H577 H 0.7306 0.22639 0.36767 0.0
H578 H 0.70514 0.28785 0.32215 0.0
H579 H 0.71415 0.31736 0.35815 0.0
H580 H 0.74064 0.17971 0.2499 0.0
H581 H 0.74215 0.16861 0.3316 0.0
H582 H 0.741 0.25635 0.4028 0.0
H583 H 0.7678 0.14361 0.24367 0.0
H584 H 0.76963 0.13289 0.32515 0.0
C585 C 0.49138 0.12572 0.01262 0.0
C586 C 0.48588 0.12387 0.03875 0.0
C587 C 0.48878 0.10434 0.99642 0.0
C588 C 0.48076 0.0807 0.00611 0.0
C589 C 0.47548 0.07897 0.03241 0.0
C590 C 0.47796 0.10039 0.04856 0.0
C591 C 0.47768 0.058 0.98883 0.0
C592 C 0.49531 0.05369 0.96931 0.0
C593 C 0.49225 0.03261 0.95249 0.0
C594 C 0.47143 0.01538 0.95579 0.0
C595 C 0.45372 0.01918 0.97541 0.0
C596 C 0.45692 0.04067 0.99165 0.0
C597 C 0.43173 0.00091 0.97892 0.0
C598 C 0.41842 0.98999 0.95766 0.0
C599 C 0.42368 0.99448 0.00368 0.0
C600 C 0.40266 0.97784 0.00708 0.0
C601 C 0.38942 0.96714 0.98583 0.0
C602 C 0.51065 0.02884 0.93133 0.0
C603 C 0.52067 0.04971 0.91783 0.0
C604 C 0.51825 0.00445 0.92432 0.0
C605 C 0.53528 0.00104 0.90422 0.0
C606 C 0.54521 0.02196 0.89094 0.0
C607 C 0.53787 0.04631 0.89794 0.0
C608 C 0.39751 0.97319 0.9611 0.0
H609 H 0.49747 0.14376 0.00478 0.0
H610 H 0.49267 0.10642 0.97624 0.0
H611 H 0.46962 0.06101 0.04056 0.0
H612 H 0.47374 0.09867 0.06872 0.0
H613 H 0.51175 0.0666 0.96752 0.0
H614 H 0.44282 0.04429 0.00614 0.0
H615 H 0.46894 0.99903 0.94301 0.0
H616 H 0.42385 0.99477 0.93835 0.0
H617 H 0.43371 0.00219 0.02046 0.0
H618 H 0.3967 0.97329 0.02631 0.0
H619 H 0.51494 0.06871 0.92236 0.0
H620 H 0.51123 0.98799 0.9345 0.0
H621 H 0.38743 0.96511 0.94449 0.0
H622 H 0.54527 0.06265 0.88779 0.0
H623 H 0.54077 0.98211 0.89904 0.0
C624 C 0.2179 0.92707 0.01221 0.0
O625 O 0.23672 0.9365 0.99851 0.0
O626 O 0.24399 0.86216 0.98524 0.0
Zn627 Zn 0.25021 0.88464 0.0165 0.0
O628 O 0.2816 0.9075 0.01194 0.0
C629 C 0.26565 0.84187 0.04485 0.0
O630 O 0.27449 0.8347 0.02251 0.0
O631 O 0.21945 0.9054 0.02193 0.0
C632 C 0.30123 0.89957 0.00081 0.0
O633 O 0.30134 0.87597 0.99244 0.0
C634 C 0.24445 0.87065 0.96271 0.0
O635 O 0.24899 0.89491 0.95914 0.0
O636 O 0.2547 0.86273 0.04708 0.0
C637 C 0.16944 0.46487 0.26989 0.0
O638 O 0.17669 0.48667 0.28075 0.0
O639 O 0.10388 0.49665 0.28254 0.0
Zn640 Zn 0.12733 0.49302 0.25231 0.0
O641 O 0.15048 0.5242 0.24799 0.0
C642 C 0.08796 0.50087 0.21508 0.0
O643 O 0.08253 0.51953 0.23084 0.0
O644 O 0.14887 0.46295 0.257 0.0
C645 C 0.14385 0.54672 0.25223 0.0
O646 O 0.12077 0.55082 0.26021 0.0
C647 C 0.11116 0.50708 0.30366 0.0
O648 O 0.13485 0.51567 0.30633 0.0
O649 O 0.1063 0.48698 0.22022 0.0
C650 C 0.79809 0.59146 0.99577 0.0
O651 O 0.78489 0.58841 0.97442 0.0
O652 O 0.77189 0.64989 0.97215 0.0
Zn653 Zn 0.76345 0.63072 0.00437 0.0
O654 O 0.73161 0.60794 0.00016 0.0
C655 C 0.73808 0.6626 0.04111 0.0
O656 O 0.71763 0.65483 0.02819 0.0
O657 O 0.79252 0.60867 0.01187 0.0
C658 C 0.71419 0.61098 0.98371 0.0
O659 O 0.71612 0.63001 0.96808 0.0
C660 C 0.76123 0.67018 0.96666 0.0
O661 O 0.74399 0.67911 0.98205 0.0
O662 O 0.75968 0.65496 0.03447 0.0
C663 C 0.83376 0.04976 0.27023 0.0
O664 O 0.82704 0.02819 0.28076 0.0
O665 O 0.89735 0.01558 0.27991 0.0
Zn666 Zn 0.87363 0.02033 0.24997 0.0
O667 O 0.84885 0.99033 0.24447 0.0
C668 C 0.91525 0.01429 0.21518 0.0
O669 O 0.92316 0.99936 0.23302 0.0
O670 O 0.85346 0.05123 0.25633 0.0
C671 C 0.85559 0.96757 0.24361 0.0
O672 O 0.87969 0.96272 0.24626 0.0
C673 C 0.89039 0.0048 0.30034 0.0
O674 O 0.86678 0.99628 0.30283 0.0
O675 O 0.89448 0.02534 0.21812 0.0
C676 C 0.29578 0.08905 0.49708 0.0
O677 O 0.27869 0.0792 0.48087 0.0
O678 O 0.26894 0.14934 0.46638 0.0
Zn679 Zn 0.26168 0.12984 0.49855 0.0
O680 O 0.23175 0.10513 0.49293 0.0
C681 C 0.26869 0.17092 0.53623 0.0
O682 O 0.29047 0.17513 0.52461 0.0
O683 O 0.29269 0.11074 0.50727 0.0
C684 C 0.21158 0.11159 0.48183 0.0
O685 O 0.21018 0.13472 0.47349 0.0
C686 C 0.25954 0.17061 0.46236 0.0
O687 O 0.24458 0.18059 0.47948 0.0
O688 O 0.25352 0.15303 0.5283 0.0
C689 C 0.3363 0.55514 0.77591 0.0
O690 O 0.33188 0.53495 0.78966 0.0
O691 O 0.3966 0.5198 0.7847 0.0
Zn692 Zn 0.37359 0.5239 0.75394 0.0
O693 O 0.34786 0.4945 0.74904 0.0
C694 C 0.41647 0.51795 0.72037 0.0
O695 O 0.42458 0.50408 0.739 0.0
O696 O 0.35387 0.55522 0.75935 0.0
C697 C 0.35335 0.4732 0.73932 0.0
O698 O 0.37663 0.46969 0.73155 0.0
C699 C 0.39863 0.49906 0.7962 0.0
O700 O 0.38517 0.47885 0.78836 0.0
O701 O 0.39511 0.52812 0.72232 0.0
C702 C 0.71473 0.42444 0.50874 0.0
O703 O 0.72918 0.42862 0.48874 0.0
O704 O 0.74082 0.36477 0.48397 0.0
Zn705 Zn 0.74937 0.3851 0.51639 0.0
O706 O 0.78057 0.40881 0.51209 0.0
C707 C 0.76684 0.34262 0.54618 0.0
O708 O 0.78045 0.33756 0.5259 0.0
O709 O 0.7197 0.4067 0.52371 0.0
C710 C 0.80363 0.40257 0.5117 0.0
O711 O 0.80905 0.37895 0.51522 0.0
C712 C 0.75709 0.3551 0.46927 0.0
O713 O 0.78143 0.35872 0.47434 0.0
O714 O 0.75265 0.36146 0.54605 0.0
C715 C 0.65353 0.95206 0.77704 0.0
O716 O 0.63699 0.9547 0.7955 0.0
O717 O 0.60769 0.99871 0.7862 0.0
Zn718 Zn 0.63042 0.99601 0.75536 0.0
O719 O 0.65171 0.0283 0.75205 0.0
C720 C 0.58641 0.99747 0.72217 0.0
O721 O 0.57624 0.00861 0.74207 0.0
O722 O 0.65397 0.96717 0.75848 0.0
C723 C 0.64177 0.0496 0.74989 0.0
O724 O 0.61694 0.05096 0.7497 0.0
C725 C 0.61499 0.01069 0.8065 0.0
O726 O 0.63808 0.02116 0.80787 0.0
O727 O 0.60909 0.99033 0.72338 0.0
C728 C 0.00239 0.19846 0.89307 0.0
O729 O 0.9863 0.19536 0.87383 0.0
O730 O 0.97957 0.2439 0.85127 0.0
Zn731 Zn 0.00977 0.25004 0.87494 0.0
O732 O 0.00382 0.27979 0.89863 0.0
C733 C 0.04077 0.26562 0.83195 0.0
O734 O 0.01882 0.27144 0.82216 0.0
O735 O 0.01434 0.21966 0.89682 0.0
C736 C 0.00439 0.30245 0.89107 0.0
O737 O 0.00903 0.30707 0.86694 0.0
C738 C 0.95721 0.24876 0.85831 0.0
O739 O 0.95349 0.25798 0.88148 0.0
O740 O 0.04165 0.25648 0.85421 0.0
C741 C 0.50086 0.70206 0.40039 0.0
O742 O 0.48431 0.69726 0.38181 0.0
O743 O 0.47395 0.74262 0.35684 0.0
Zn744 Zn 0.50454 0.75229 0.37902 0.0
O745 O 0.49734 0.7832 0.40064 0.0
C746 C 0.53422 0.77452 0.33821 0.0
O747 O 0.51348 0.78676 0.33413 0.0
O748 O 0.51183 0.72391 0.40274 0.0
C749 C 0.51385 0.80109 0.40488 0.0
O750 O 0.53668 0.79991 0.3951 0.0
C751 C 0.45832 0.75889 0.35017 0.0
O752 O 0.46176 0.7826 0.35792 0.0
O753 O 0.53492 0.75899 0.35638 0.0
C754 C 0.99854 0.80399 0.58885 0.0
O755 O 0.97836 0.78911 0.58395 0.0
O756 O 0.97582 0.7721 0.64849 0.0
Zn757 Zn 0.00622 0.7666 0.62581 0.0
O758 O 0.99998 0.73834 0.59934 0.0
C759 C 0.03358 0.74849 0.6693 0.0
O760 O 0.01067 0.74124 0.67675 0.0
O761 O 0.01379 0.79849 0.60659 0.0
C762 C 1.00001 0.71504 0.6047 0.0
O763 O 0.00431 0.70848 0.62836 0.0
C764 C 0.95568 0.75791 0.64842 0.0
O765 O 0.95356 0.73819 0.63273 0.0
O766 O 0.03647 0.75947 0.64805 0.0
C767 C 0.4962 0.30425 0.09097 0.0
O768 O 0.47301 0.29402 0.09123 0.0
O769 O 0.47622 0.26784 0.14688 0.0
Zn770 Zn 0.50682 0.26319 0.12426 0.0
O771 O 0.50201 0.23302 0.09994 0.0
C772 C 0.53487 0.24608 0.16751 0.0
O773 O 0.51235 0.23698 0.17429 0.0
O774 O 0.51374 0.29446 0.10368 0.0
C775 C 0.49397 0.21143 0.1074 0.0
O776 O 0.48813 0.20836 0.13154 0.0
C777 C 0.45353 0.26094 0.14071 0.0
O778 O 0.44868 0.25017 0.11822 0.0
O779 O 0.53726 0.25809 0.14682 0.0
C780 C 0.25412 0.83118 0.90196 0.0
C781 C 0.23041 0.81734 0.90037 0.0
C782 C 0.21494 0.84102 0.9376 0.0
C783 C 0.2394 0.85315 0.9406 0.0
N784 N 0.28316 0.85839 0.92758 0.0
N785 N 0.18889 0.80702 0.91751 0.0
C786 C 0.25921 0.84802 0.92319 0.0
C787 C 0.21098 0.82169 0.91844 0.0
N788 N 0.27165 0.82838 0.883 0.0
N789 N 0.19525 0.84876 0.9524 0.0
H790 H 0.18481 0.79343 0.9031 0.0
H791 H 0.17527 0.80711 0.93186 0.0
H792 H 0.1974 0.86308 0.96643 0.0
H793 H 0.17638 0.84263 0.9494 0.0
H794 H 0.28803 0.84 0.88137 0.0
H795 H 0.26905 0.81544 0.86774 0.0
H796 H 0.29912 0.8531 0.91747 0.0
H797 H 0.28755 0.87119 0.9426 0.0
C798 C 0.05105 0.5212 0.34075 0.0
C799 C 0.05896 0.51658 0.36614 0.0
C800 C 0.0995 0.50199 0.34993 0.0
C801 C 0.09295 0.5099 0.32504 0.0
N802 N 0.06419 0.53192 0.298 0.0
N803 N 0.09248 0.50669 0.39551 0.0
C804 C 0.06913 0.52076 0.32072 0.0
C805 C 0.08369 0.50809 0.37094 0.0
N806 N 0.02612 0.52542 0.33564 0.0
N807 N 0.12019 0.48771 0.35342 0.0
H808 H 0.08162 0.51126 0.41144 0.0
H809 H 0.1113 0.50323 0.39997 0.0
H810 H 0.13169 0.48193 0.33841 0.0
H811 H 0.12434 0.47934 0.37071 0.0
H812 H 0.01884 0.5263 0.31711 0.0
H813 H 0.0122 0.52551 0.34976 0.0
H814 H 0.0482 0.54238 0.29492 0.0
H815 H 0.07725 0.5331 0.28314 0.0
C816 C 0.78001 0.72508 0.9242 0.0
C817 C 0.77883 0.71314 0.89962 0.0
C818 C 0.76623 0.67264 0.9188 0.0
C819 C 0.76876 0.68432 0.94352 0.0
N820 N 0.78438 0.71981 0.96987 0.0
N821 N 0.77589 0.67492 0.87354 0.0
C822 C 0.77747 0.71004 0.94626 0.0
C823 C 0.77351 0.68668 0.89693 0.0
N824 N 0.78273 0.75087 0.92649 0.0
N825 N 0.75574 0.6486 0.91604 0.0
H826 H 0.78102 0.68467 0.8571 0.0
H827 H 0.77497 0.65532 0.87084 0.0
H828 H 0.75022 0.63756 0.93146 0.0
H829 H 0.75064 0.64026 0.89839 0.0
H830 H 0.78077 0.76079 0.94378 0.0
H831 H 0.7849 0.76259 0.9108 0.0
H832 H 0.79319 0.73769 0.97275 0.0
H833 H 0.78385 0.70903 0.98632 0.0
C834 C 0.9337 0.97353 0.34748 0.0
C835 C 0.94458 0.99513 0.36078 0.0
C836 C 0.91853 0.02292 0.33565 0.0
C837 C 0.909 0.00149 0.32116 0.0
N838 N 0.90968 0.9569 0.31055 0.0
N839 N 0.94996 0.04046 0.36612 0.0
C840 C 0.91709 0.97689 0.32639 0.0
C841 C 0.93775 0.01988 0.35444 0.0
N842 N 0.93897 0.94981 0.35529 0.0
N843 N 0.90843 0.04598 0.33214 0.0
H844 H 0.96344 0.03895 0.38066 0.0
H845 H 0.94804 0.05898 0.36035 0.0
H846 H 0.89436 0.04892 0.31852 0.0
H847 H 0.91246 0.0618 0.34394 0.0
H848 H 0.92942 0.93334 0.34844 0.0
H849 H 0.95183 0.94657 0.37 0.0
H850 H 0.91718 0.93906 0.31146 0.0
H851 H 0.89733 0.95856 0.29508 0.0
C852 C 0.24994 0.18931 0.60418 0.0
C853 C 0.24885 0.21593 0.60221 0.0
C854 C 0.25893 0.21285 0.55655 0.0
C855 C 0.26205 0.18649 0.55896 0.0
N856 N 0.26485 0.1502 0.58583 0.0
N857 N 0.25571 0.25379 0.57789 0.0
C858 C 0.25865 0.17482 0.58299 0.0
C859 C 0.25436 0.22793 0.57878 0.0
N860 N 0.24221 0.17786 0.62618 0.0
N861 N 0.25915 0.22329 0.53287 0.0
H862 H 0.25177 0.26549 0.59358 0.0
H863 H 0.26256 0.26371 0.5622 0.0
H864 H 0.26217 0.21283 0.51613 0.0
H865 H 0.25417 0.24176 0.52951 0.0
H866 H 0.23979 0.15832 0.62782 0.0
H867 H 0.23632 0.18795 0.64231 0.0
H868 H 0.26541 0.14144 0.60345 0.0
H869 H 0.27168 0.13904 0.57088 0.0
C870 C 0.43768 0.5214 0.65089 0.0
C871 C 0.46355 0.52958 0.65419 0.0
C872 C 0.4576 0.53291 0.70059 0.0
C873 C 0.43251 0.52221 0.69752 0.0
N874 N 0.40007 0.50208 0.67013 0.0
N875 N 0.49949 0.53912 0.68219 0.0
C876 C 0.42286 0.51537 0.67275 0.0
C877 C 0.47392 0.5342 0.67906 0.0
N878 N 0.42708 0.52001 0.62692 0.0
N879 N 0.4655 0.5429 0.72383 0.0
H880 H 0.51207 0.5403 0.66688 0.0
H881 H 0.50853 0.53984 0.7 0.0
H882 H 0.45392 0.54299 0.73995 0.0
H883 H 0.48261 0.55332 0.72654 0.0
H884 H 0.40766 0.51685 0.62356 0.0
H885 H 0.43736 0.52419 0.61043 0.0
H886 H 0.39337 0.4942 0.65279 0.0
H887 H 0.38886 0.49686 0.68568 0.0
C888 C 0.77608 0.28549 0.58765 0.0
C889 C 0.77192 0.29571 0.61257 0.0
C890 C 0.76798 0.33751 0.59419 0.0
C891 C 0.76816 0.3265 0.5691 0.0
N892 N 0.76484 0.28795 0.54302 0.0
N893 N 0.75681 0.33052 0.63828 0.0
C894 C 0.77002 0.29986 0.56607 0.0
C895 C 0.76568 0.32145 0.6155 0.0
N896 N 0.78669 0.26255 0.58441 0.0
N897 N 0.7714 0.36308 0.59802 0.0
H898 H 0.75351 0.31907 0.65401 0.0
H899 H 0.75004 0.34866 0.6405 0.0
H900 H 0.77546 0.37554 0.58329 0.0
H901 H 0.77344 0.37148 0.61622 0.0
H902 H 0.79198 0.2555 0.56651 0.0
H903 H 0.79288 0.252 0.59966 0.0
H904 H 0.76406 0.26829 0.5407 0.0
H905 H 0.75815 0.2973 0.52717 0.0
C906 C 0.55692 0.00998 0.65747 0.0
C907 C 0.54229 0.98707 0.65303 0.0
C908 C 0.55558 0.97156 0.69466 0.0
C909 C 0.57158 0.99367 0.69823 0.0
N910 N 0.59062 0.0323 0.68195 0.0
N911 N 0.53057 0.94439 0.66509 0.0
C912 C 0.5732 0.01241 0.67928 0.0
C913 C 0.54239 0.96737 0.67102 0.0
N914 N 0.55453 0.02973 0.64132 0.0
N915 N 0.55269 0.95479 0.71408 0.0
H916 H 0.52066 0.94065 0.64797 0.0
H917 H 0.53224 0.92841 0.67612 0.0
H918 H 0.56271 0.95683 0.73135 0.0
H919 H 0.53913 0.93983 0.71384 0.0
H920 H 0.5625 0.04783 0.64499 0.0
H921 H 0.54283 0.02863 0.62511 0.0
H922 H 0.59476 0.04506 0.66753 0.0
H923 H 0.60243 0.03502 0.69798 0.0
C924 C 0.91653 0.24828 0.79787 0.0
C925 C 0.89428 0.23471 0.80603 0.0
C926 C 0.91444 0.22806 0.84759 0.0
C927 C 0.93547 0.24404 0.84042 0.0
N928 N 0.95397 0.27378 0.8107 0.0
N929 N 0.87008 0.21577 0.8403 0.0
C930 C 0.93586 0.25536 0.81606 0.0
C931 C 0.89265 0.22573 0.83138 0.0
N932 N 0.91952 0.25383 0.77262 0.0
N933 N 0.91563 0.21427 0.86933 0.0
H934 H 0.85357 0.21401 0.82915 0.0
H935 H 0.86713 0.21144 0.85943 0.0
H936 H 0.93147 0.21495 0.88143 0.0
H937 H 0.90195 0.20032 0.87402 0.0
H938 H 0.93647 0.26137 0.76521 0.0
H939 H 0.90591 0.24866 0.75864 0.0
H940 H 0.95364 0.28443 0.79419 0.0
H941 H 0.96781 0.28031 0.82392 0.0
C942 C 0.50017 0.86836 0.42605 0.0
C943 C 0.49578 0.86501 0.45255 0.0
C944 C 0.50471 0.82002 0.448 0.0
C945 C 0.50747 0.82304 0.42124 0.0
N946 N 0.50408 0.84863 0.38393 0.0
N947 N 0.49055 0.83756 0.48851 0.0
C948 C 0.50424 0.84685 0.41001 0.0
C949 C 0.49705 0.84078 0.46346 0.0
N950 N 0.50085 0.89218 0.41636 0.0
N951 N 0.51038 0.79759 0.45874 0.0
H952 H 0.48573 0.85247 0.5007 0.0
H953 H 0.48819 0.81993 0.49684 0.0
H954 H 0.51589 0.78191 0.448 0.0
H955 H 0.51155 0.79502 0.47839 0.0
H956 H 0.50683 0.89629 0.39791 0.0
H957 H 0.49706 0.90828 0.42736 0.0
H958 H 0.49917 0.86478 0.37439 0.0
H959 H 0.50687 0.83321 0.37161 0.0
C960 C 0.09291 0.29756 0.7924 0.0
C961 C 0.10816 0.27678 0.78662 0.0
C962 C 0.07855 0.24836 0.80949 0.0
C963 C 0.06432 0.26949 0.81689 0.0
N964 N 0.0603 0.31475 0.81936 0.0
N965 N 0.11811 0.23327 0.79265 0.0
C966 C 0.07211 0.29426 0.80939 0.0
C967 C 0.10176 0.25241 0.79609 0.0
N968 N 0.09794 0.32031 0.78113 0.0
N969 N 0.0693 0.22435 0.8142 0.0
H970 H 0.13502 0.23541 0.78245 0.0
H971 H 0.11596 0.21589 0.80153 0.0
H972 H 0.05225 0.22053 0.82373 0.0
H973 H 0.07733 0.20812 0.8068 0.0
H974 H 0.08581 0.33531 0.78219 0.0
H975 H 0.11333 0.32362 0.76899 0.0
H976 H 0.06686 0.33339 0.81689 0.0
H977 H 0.04518 0.31313 0.83209 0.0
C978 C 0.53701 0.65661 0.44093 0.0
C979 C 0.51669 0.64432 0.45418 0.0
C980 C 0.48638 0.67163 0.43398 0.0
C981 C 0.50634 0.68221 0.4189 0.0
N982 N 0.54986 0.68175 0.40467 0.0
N983 N 0.47162 0.63698 0.4604 0.0
C984 C 0.53149 0.67392 0.42148 0.0
C985 C 0.49123 0.65093 0.44987 0.0
N986 N 0.5616 0.65227 0.44743 0.0
N987 N 0.46309 0.68208 0.43401 0.0
H988 H 0.4744 0.62173 0.47224 0.0
H989 H 0.4526 0.63912 0.45567 0.0
H990 H 0.45888 0.69758 0.42302 0.0
H991 H 0.44867 0.67696 0.44669 0.0
H992 H 0.57719 0.66273 0.44045 0.0
H993 H 0.56641 0.63963 0.46151 0.0
H994 H 0.56779 0.67422 0.40385 0.0
H995 H 0.5465 0.69413 0.3899 0.0
C996 C 0.90463 0.74836 0.69895 0.0
C997 C 0.89534 0.77308 0.70115 0.0
C998 C 0.92382 0.78718 0.66685 0.0
C999 C 0.93494 0.7632 0.66657 0.0
N1000 N 0.93948 0.7227 0.68613 0.0
N1001 N 0.89899 0.81722 0.69048 0.0
C1002 C 0.9263 0.74421 0.68363 0.0
C1003 C 0.90576 0.79287 0.68603 0.0
N1004 N 0.89232 0.72867 0.7109 0.0
N1005 N 0.92965 0.80412 0.64817 0.0
H1006 H 0.88586 0.82216 0.7044 0.0
H1007 H 0.90801 0.83279 0.68198 0.0
H1008 H 0.94231 0.80048 0.63341 0.0
H1009 H 0.92013 0.82077 0.64588 0.0
H1010 H 0.89661 0.70982 0.70772 0.0
H1011 H 0.87625 0.73088 0.72218 0.0
H1012 H 0.93559 0.70949 0.70022 0.0
H1013 H 0.95595 0.71921 0.67588 0.0
C1014 C 0.01042 0.84462 0.53071 0.0
C1015 C 0.01371 0.86901 0.54247 0.0
C1016 C 0.00518 0.851 0.58452 0.0
C1017 C 0.00402 0.82639 0.57301 0.0
N1018 N 0.01028 0.79924 0.53601 0.0
N1019 N 0.01826 0.89531 0.58068 0.0
C1020 C 0.0079 0.82303 0.54631 0.0
C1021 C 0.01227 0.87218 0.56944 0.0
N1022 N 0.00903 0.84215 0.50462 0.0
N1023 N 0.99844 0.85425 0.60958 0.0
H1024 H 0.02326 0.91132 0.57021 0.0
H1025 H 0.02029 0.89822 0.60038 0.0
H1026 H 0.99286 0.83924 0.62118 0.0
H1027 H 0.99622 0.87193 0.61827 0.0
H1028 H 0.00378 0.82521 0.49504 0.0
H1029 H 0.01106 0.8575 0.49251 0.0
H1030 H 0.01586 0.79578 0.51722 0.0
H1031 H 0.009 0.78293 0.54685 0.0
C1032 C 0.09855 0.72833 0.69144 0.0
C1033 C 0.09848 0.73669 0.71742 0.0
C1034 C 0.05686 0.75466 0.71119 0.0
C1035 C 0.0559 0.74433 0.68586 0.0
N1036 N 0.07356 0.71713 0.65347 0.0
N1037 N 0.07584 0.75363 0.75349 0.0
C1038 C 0.07615 0.73002 0.67638 0.0
C1039 C 0.07709 0.74862 0.72775 0.0
N1040 N 0.12024 0.71944 0.68094 0.0
N1041 N 0.03912 0.77123 0.71909 0.0
H1042 H 0.09033 0.7495 0.76624 0.0
H1043 H 0.05956 0.75975 0.7625 0.0
H1044 H 0.02433 0.77669 0.70737 0.0
H1045 H 0.04044 0.78144 0.73637 0.0
H1046 H 0.12229 0.71573 0.66142 0.0
H1047 H 0.13699 0.71775 0.69141 0.0
H1048 H 0.08652 0.70425 0.64681 0.0
H1049 H 0.0572 0.71746 0.64218 0.0
C1050 C 0.9712 0.67069 0.55244 0.0
C1051 C 0.99146 0.65416 0.54887 0.0
C1052 C 0.01824 0.67976 0.57906 0.0
C1053 C 0.99744 0.69528 0.58409 0.0
N1054 N 0.95576 0.70881 0.57275 0.0
N1055 N 0.03347 0.64125 0.55955 0.0
C1056 C 0.97439 0.69177 0.56986 0.0
C1057 C 0.01483 0.65832 0.56228 0.0
N1058 N 0.94855 0.66543 0.53998 0.0
N1059 N 0.04167 0.68649 0.58919 0.0
H1060 H 0.03215 0.62596 0.54655 0.0
H1061 H 0.04961 0.64123 0.57114 0.0
H1062 H 0.04509 0.70275 0.60058 0.0
H1063 H 0.05827 0.67757 0.58443 0.0
H1064 H 0.93196 0.67484 0.54347 0.0
H1065 H 0.94581 0.65057 0.52662 0.0
H1066 H 0.93948 0.70899 0.56142 0.0
H1067 H 0.95711 0.72407 0.58569 0.0
C1068 C 0.81636 0.9143 0.20984 0.0
C1069 C 0.80051 0.90594 0.23013 0.0
C1070 C 0.81878 0.93986 0.25825 0.0
C1071 C 0.83639 0.94662 0.23883 0.0
N1072 N 0.85387 0.93896 0.19691 0.0
N1073 N 0.78949 0.90771 0.27485 0.0
C1074 C 0.83582 0.93335 0.21487 0.0
C1075 C 0.80245 0.91792 0.25467 0.0
N1076 N 0.81209 0.90478 0.18556 0.0
N1077 N 0.81742 0.95451 0.28005 0.0
H1078 H 0.77751 0.8915 0.27308 0.0
H1079 H 0.79232 0.9139 0.29376 0.0
H1080 H 0.82947 0.97032 0.28377 0.0
H1081 H 0.80302 0.95225 0.29349 0.0
H1082 H 0.82111 0.912 0.16945 0.0
H1083 H 0.79787 0.89097 0.1811 0.0
H1084 H 0.85635 0.92799 0.18038 0.0
H1085 H 0.86753 0.95375 0.19922 0.0
C1086 C 0.81336 0.11653 0.28572 0.0
C1087 C 0.78695 0.11383 0.2802 0.0
C1088 C 0.79186 0.06996 0.26566 0.0
C1089 C 0.81775 0.07189 0.27356 0.0
N1090 N 0.85221 0.09555 0.29508 0.0
N1091 N 0.75005 0.08707 0.26895 0.0
C1092 C 0.82831 0.09481 0.28462 0.0
C1093 C 0.77589 0.09026 0.27132 0.0
N1094 N 0.82426 0.13996 0.29142 0.0
N1095 N 0.78279 0.04923 0.25172 0.0
H1096 H 0.7377 0.10157 0.27271 0.0
H1097 H 0.74073 0.06954 0.26536 0.0
H1098 H 0.79401 0.03419 0.2466 0.0
H1099 H 0.76487 0.04801 0.24312 0.0
H1100 H 0.84383 0.14358 0.29287 0.0
H1101 H 0.81387 0.15629 0.29259 0.0
H1102 H 0.85987 0.1109 0.30585 0.0
H1103 H 0.86363 0.07994 0.29502 0.0
C1104 C 0.36996 0.9253 0.99933 0.0
C1105 C 0.36684 0.94977 0.98954 0.0
C1106 C 0.32106 0.94027 0.98462 0.0
C1107 C 0.32379 0.91691 0.99702 0.0
N1108 N 0.35027 0.88952 0.02083 0.0
N1109 N 0.33891 0.98247 0.97742 0.0
C1110 C 0.34811 0.91001 0.00563 0.0
C1111 C 0.34222 0.95783 0.9835 0.0
N1112 N 0.39378 0.91637 0.00195 0.0
N1113 N 0.29865 0.94522 0.97281 0.0
H1114 H 0.35391 0.996 0.97655 0.0
H1115 H 0.32107 0.99003 0.97557 0.0
H1116 H 0.28294 0.93252 0.97235 0.0
H1117 H 0.29649 0.96076 0.96123 0.0
H1118 H 0.39707 0.8977 0.0064 0.0
H1119 H 0.41027 0.92695 0.99739 0.0
H1120 H 0.36719 0.88519 0.02983 0.0
H1121 H 0.33467 0.87829 0.0266 0.0
C1122 C 0.20817 0.41332 0.29854 0.0
C1123 C 0.21626 0.40063 0.27601 0.0
C1124 C 0.19563 0.4315 0.24957 0.0
C1125 C 0.18556 0.44277 0.27202 0.0
N1126 N 0.17859 0.44197 0.3176 0.0
N1127 N 0.21455 0.39485 0.23011 0.0
C1128 C 0.19088 0.43307 0.29648 0.0
C1129 C 0.20907 0.40891 0.2515 0.0
N1130 N 0.21753 0.40691 0.32186 0.0
N1131 N 0.19335 0.44298 0.22654 0.0
H1132 H 0.22461 0.37833 0.23073 0.0
H1133 H 0.20733 0.39836 0.212 0.0
H1134 H 0.18405 0.45981 0.22435 0.0
H1135 H 0.20266 0.43717 0.21004 0.0
H1136 H 0.21458 0.41731 0.33867 0.0
H1137 H 0.23003 0.39236 0.32415 0.0
H1138 H 0.17957 0.43378 0.33548 0.0
H1139 H 0.16555 0.4562 0.31682 0.0
C1140 C 0.17167 0.05121 0.46653 0.0
C1141 C 0.14715 0.05881 0.47365 0.0
C1142 C 0.16543 0.09995 0.48872 0.0
C1143 C 0.18946 0.09338 0.47903 0.0
N1144 N 0.21436 0.06457 0.45417 0.0
N1145 N 0.1198 0.09207 0.48691 0.0
C1146 C 0.19233 0.06947 0.46671 0.0
C1147 C 0.14375 0.08368 0.48342 0.0
N1148 N 0.1754 0.02641 0.4603 0.0
N1149 N 0.16346 0.1211 0.50401 0.0
H1150 H 0.10338 0.08082 0.48301 0.0
H1151 H 0.1162 0.11087 0.49137 0.0
H1152 H 0.179 0.13311 0.50914 0.0
H1153 H 0.14691 0.12532 0.51375 0.0
H1154 H 0.19335 0.01929 0.4576 0.0
H1155 H 0.16076 0.01243 0.4601 0.0
H1156 H 0.21651 0.04847 0.44266 0.0
H1157 H 0.22967 0.07772 0.45315 0.0
C1158 C 0.6803 0.11054 0.76572 0.0
C1159 C 0.69233 0.11494 0.74191 0.0
C1160 C 0.67101 0.07656 0.72327 0.0
C1161 C 0.65826 0.07267 0.7468 0.0
N1162 N 0.64741 0.08747 0.78917 0.0
N1163 N 0.69633 0.1051 0.69688 0.0
C1164 C 0.66181 0.09021 0.76763 0.0
C1165 C 0.68687 0.09877 0.72033 0.0
N1166 N 0.6873 0.12523 0.78671 0.0
N1167 N 0.66813 0.05884 0.70383 0.0
H1168 H 0.70821 0.1211 0.69407 0.0
H1169 H 0.69096 0.0957 0.67985 0.0
H1170 H 0.65547 0.04313 0.70465 0.0
H1171 H 0.67921 0.05888 0.6874 0.0
H1172 H 0.68148 0.12132 0.80525 0.0
H1173 H 0.70045 0.14055 0.78591 0.0
H1174 H 0.647 0.10105 0.80389 0.0
H1175 H 0.63436 0.0723 0.79165 0.0
C1176 C 0.34283 0.0495 0.53232 0.0
C1177 C 0.36164 0.04673 0.51324 0.0
C1178 C 0.33724 0.07166 0.48355 0.0
C1179 C 0.31881 0.07514 0.50292 0.0
N1180 N 0.30498 0.07022 0.54653 0.0
N1181 N 0.37905 0.05746 0.47217 0.0
C1182 C 0.32195 0.06499 0.5276 0.0
C1183 C 0.35949 0.05848 0.48925 0.0
N1184 N 0.34459 0.03664 0.55464 0.0
N1185 N 0.33332 0.08082 0.45964 0.0
H1186 H 0.3953 0.0474 0.47542 0.0
H1187 H 0.38013 0.06785 0.45553 0.0
H1188 H 0.31824 0.09212 0.4552 0.0
H1189 H 0.34423 0.07635 0.44377 0.0
H1190 H 0.33018 0.03533 0.56814 0.0
H1191 H 0.36003 0.02584 0.55912 0.0
H1192 H 0.3077 0.06602 0.56567 0.0
H1193 H 0.28862 0.08016 0.54346 0.0
C1194 C 0.67506 0.48198 0.52024 0.0
C1195 C 0.6505 0.4702 0.52288 0.0
C1196 C 0.66776 0.42863 0.51414 0.0
C1197 C 0.69264 0.44017 0.5137 0.0
N1198 N 0.72061 0.47713 0.52075 0.0
N1199 N 0.62373 0.43226 0.52648 0.0
C1200 C 0.69649 0.46669 0.5179 0.0
C1201 C 0.64692 0.44347 0.52105 0.0
N1202 N 0.67781 0.50778 0.51932 0.0
N1203 N 0.66388 0.40374 0.50681 0.0
H1204 H 0.60792 0.44255 0.53129 0.0
H1205 H 0.62065 0.41279 0.52828 0.0
H1206 H 0.67858 0.3923 0.50117 0.0
H1207 H 0.64591 0.39501 0.50406 0.0
H1208 H 0.69477 0.51735 0.51452 0.0
H1209 H 0.6626 0.51963 0.52134 0.0
H1210 H 0.72456 0.49587 0.52659 0.0
H1211 H 0.73681 0.46652 0.51955 0.0
C1212 C 0.72166 0.30442 0.42815 0.0
C1213 C 0.73472 0.307 0.40463 0.0
C1214 C 0.75915 0.34389 0.42244 0.0
C1215 C 0.74869 0.33905 0.4469 0.0
N1216 N 0.72369 0.3112 0.47402 0.0
N1217 N 0.76924 0.32643 0.38072 0.0
C1218 C 0.73084 0.31842 0.45007 0.0
C1219 C 0.75439 0.32601 0.40208 0.0
N1220 N 0.70016 0.28904 0.42946 0.0
N1221 N 0.77286 0.36598 0.41834 0.0
H1222 H 0.76678 0.31336 0.36556 0.0
H1223 H 0.78551 0.33824 0.37913 0.0
H1224 H 0.77602 0.38 0.43252 0.0
H1225 H 0.77878 0.37153 0.40025 0.0
H1226 H 0.68852 0.28843 0.44551 0.0
H1227 H 0.69257 0.27882 0.41367 0.0
H1228 H 0.71278 0.29469 0.47736 0.0
H1229 H 0.73077 0.32011 0.49075 0.0
C1230 C 0.55506 0.02349 0.84404 0.0
C1231 C 0.56304 0.01846 0.86932 0.0
C1232 C 0.60423 0.00568 0.85299 0.0
C1233 C 0.59723 0.01346 0.8282 0.0
N1234 N 0.56804 0.03513 0.80146 0.0
N1235 N 0.59677 0.00908 0.89862 0.0
C1236 C 0.57317 0.0238 0.82404 0.0
C1237 C 0.58808 0.01075 0.87404 0.0
N1238 N 0.53003 0.02733 0.83898 0.0
N1239 N 0.62573 0.99253 0.85632 0.0
H1240 H 0.5856 0.01283 0.91456 0.0
H1241 H 0.6157 0.00621 0.90318 0.0
H1242 H 0.63779 0.98792 0.84133 0.0
H1243 H 0.6303 0.98409 0.87346 0.0
H1244 H 0.52274 0.02845 0.82048 0.0
H1245 H 0.51608 0.02692 0.85308 0.0
H1246 H 0.55178 0.04519 0.79841 0.0
H1247 H 0.58124 0.03688 0.78676 0.0
C1248 C 0.26572 0.18703 0.39195 0.0
C1249 C 0.27505 0.21258 0.39425 0.0
C1250 C 0.2781 0.20885 0.44077 0.0
C1251 C 0.26584 0.18444 0.43875 0.0
N1252 N 0.24483 0.15134 0.41272 0.0
N1253 N 0.28648 0.24926 0.42095 0.0
C1254 C 0.25889 0.17371 0.4144 0.0
C1255 C 0.28026 0.22391 0.4187 0.0
N1256 N 0.26394 0.17533 0.36835 0.0
N1257 N 0.28869 0.21721 0.46355 0.0
H1258 H 0.28825 0.26101 0.40525 0.0
H1259 H 0.2877 0.25906 0.43848 0.0
H1260 H 0.28847 0.20618 0.47983 0.0
H1261 H 0.30002 0.23381 0.4656 0.0
H1262 H 0.25987 0.156 0.36565 0.0
H1263 H 0.26872 0.18454 0.35149 0.0
H1264 H 0.23678 0.14405 0.39569 0.0
H1265 H 0.23937 0.14101 0.42867 0.0
C1266 C 0.43432 0.51333 0.85894 0.0
C1267 C 0.45085 0.49287 0.85927 0.0
C1268 C 0.43542 0.47867 0.81679 0.0
C1269 C 0.41686 0.49734 0.81774 0.0
N1270 N 0.39559 0.52958 0.84187 0.0
N1271 N 0.46388 0.45329 0.84078 0.0
C1272 C 0.41549 0.51398 0.83937 0.0
C1273 C 0.45048 0.47473 0.83883 0.0
N1274 N 0.43704 0.53248 0.87691 0.0
N1275 N 0.43948 0.46544 0.7945 0.0
H1276 H 0.475 0.44954 0.85672 0.0
H1277 H 0.46208 0.43815 0.82767 0.0
H1278 H 0.42944 0.46825 0.77763 0.0
H1279 H 0.45457 0.45355 0.79201 0.0
H1280 H 0.42736 0.54918 0.87601 0.0
H1281 H 0.45068 0.53269 0.8915 0.0
H1282 H 0.39221 0.54014 0.85848 0.0
H1283 H 0.38101 0.53019 0.82833 0.0
C1284 C 0.73957 0.72259 0.08282 0.0
C1285 C 0.72901 0.7131 0.10578 0.0
C1286 C 0.72395 0.67056 0.08618 0.0
C1287 C 0.7358 0.67977 0.06368 0.0
N1288 N 0.75828 0.7134 0.04156 0.0
N1289 N 0.71473 0.67784 0.13116 0.0
C1290 C 0.74474 0.70544 0.06235 0.0
C1291 C 0.72216 0.687 0.10797 0.0
N1292 N 0.74371 0.74813 0.08024 0.0
N1293 N 0.71429 0.64612 0.08664 0.0
H1294 H 0.71302 0.68938 0.14747 0.0
H1295 H 0.71212 0.65865 0.13485 0.0
H1296 H 0.71671 0.63299 0.07175 0.0
H1297 H 0.70269 0.63913 0.10115 0.0
H1298 H 0.74858 0.75655 0.06304 0.0
H1299 H 0.74038 0.76128 0.09489 0.0
H1300 H 0.76785 0.73102 0.04069 0.0
H1301 H 0.76155 0.7017 0.02574 0.0
C1302 C 0.93498 0.01837 0.14533 0.0
C1303 C 0.96099 0.0262 0.14817 0.0
C1304 C 0.95611 0.02895 0.19474 0.0
C1305 C 0.93082 0.01869 0.19206 0.0
N1306 N 0.89735 0.9997 0.16518 0.0
N1307 N 0.99759 0.03521 0.17543 0.0
C1308 C 0.9205 0.0124 0.16744 0.0
C1309 C 0.97194 0.03044 0.17286 0.0
N1310 N 0.92396 0.01724 0.12155 0.0
N1311 N 0.96468 0.03831 0.21801 0.0
H1312 H 0.0098 0.03668 0.15983 0.0
H1313 H 0.00707 0.03562 0.19299 0.0
H1314 H 0.9535 0.0381 0.23442 0.0
H1315 H 0.98196 0.04846 0.22057 0.0
H1316 H 0.90446 0.01438 0.1185 0.0
H1317 H 0.93402 0.02127 0.10488 0.0
H1318 H 0.89012 0.99213 0.14791 0.0
H1319 H 0.88625 0.99472 0.18089 0.0
C1320 C 0.29486 0.80176 0.09583 0.0
C1321 C 0.27284 0.79362 0.10939 0.0
C1322 C 0.24593 0.81553 0.07945 0.0
C1323 C 0.2681 0.82546 0.06722 0.0
N1324 N 0.31377 0.83168 0.06628 0.0
N1325 N 0.22782 0.79556 0.11689 0.0
C1326 C 0.29263 0.81953 0.07605 0.0
C1327 C 0.24846 0.80134 0.10201 0.0
N1328 N 0.31782 0.79206 0.10149 0.0
N1329 N 0.22249 0.81864 0.06884 0.0
H1330 H 0.22887 0.78479 0.1333 0.0
H1331 H 0.21009 0.80308 0.11415 0.0
H1332 H 0.21982 0.82857 0.0521 0.0
H1333 H 0.20588 0.80952 0.07528 0.0
H1334 H 0.33401 0.79503 0.09041 0.0
H1335 H 0.32028 0.77932 0.11615 0.0
H1336 H 0.33199 0.83024 0.07383 0.0
H1337 H 0.31289 0.84507 0.05201 0.0
C1338 C 0.04597 0.46709 0.1642 0.0
C1339 C 0.04303 0.48687 0.14671 0.0
C1340 C 0.07164 0.51497 0.17278 0.0
C1341 C 0.07265 0.49598 0.19147 0.0
N1342 N 0.05743 0.45554 0.2072 0.0
N1343 N 0.04985 0.53069 0.13579 0.0
C1344 C 0.05898 0.4724 0.18776 0.0
C1345 C 0.05497 0.51114 0.1514 0.0
N1346 N 0.0368 0.44311 0.15802 0.0
N1347 N 0.08738 0.53622 0.17492 0.0
H1348 H 0.03804 0.52852 0.1197 0.0
H1349 H 0.05566 0.54945 0.13985 0.0
H1350 H 0.10006 0.53962 0.19016 0.0
H1351 H 0.08955 0.54942 0.16054 0.0
H1352 H 0.0408 0.42733 0.16863 0.0
H1353 H 0.02687 0.43857 0.14106 0.0
H1354 H 0.04549 0.43929 0.20666 0.0
H1355 H 0.06633 0.45886 0.22492 0.0
C1356 C 0.39038 0.74229 0.32834 0.0
C1357 C 0.39404 0.73838 0.3017 0.0
C1358 C 0.44017 0.74514 0.30737 0.0
C1359 C 0.43629 0.75118 0.33364 0.0
N1360 N 0.40805 0.75749 0.36917 0.0
N1361 N 0.42154 0.73861 0.26499 0.0
C1362 C 0.41146 0.75035 0.34414 0.0
C1363 C 0.41873 0.74035 0.29097 0.0
N1364 N 0.36683 0.73756 0.33859 0.0
N1365 N 0.46436 0.7439 0.29814 0.0
H1366 H 0.40634 0.73467 0.2524 0.0
H1367 H 0.43856 0.74278 0.25564 0.0
H1368 H 0.48054 0.74855 0.30917 0.0
H1369 H 0.46858 0.73673 0.28002 0.0
H1370 H 0.3633 0.73736 0.35816 0.0
H1371 H 0.35092 0.73191 0.32753 0.0
H1372 H 0.39033 0.7603 0.37722 0.0
H1373 H 0.4231 0.76203 0.38177 0.0
C1374 C 0.00695 0.34406 0.95156 0.0
C1375 C 0.99035 0.36327 0.9448 0.0
C1376 C 0.98094 0.3411 0.90389 0.0
C1377 C 0.99971 0.32353 0.90944 0.0
N1378 N 0.03457 0.31172 0.9363 0.0
N1379 N 0.96555 0.3829 0.91239 0.0
C1380 C 0.01385 0.32593 0.93267 0.0
C1381 C 0.9785 0.36263 0.92031 0.0
N1382 N 0.01548 0.34258 0.97621 0.0
N1383 N 0.96458 0.33667 0.8837 0.0
H1384 H 0.96369 0.39923 0.92368 0.0
H1385 H 0.95879 0.38448 0.89374 0.0
H1386 H 0.96498 0.32061 0.87176 0.0
H1387 H 0.94892 0.34756 0.88041 0.0
H1388 H 0.02545 0.3274 0.98274 0.0
H1389 H 0.01053 0.35524 0.99076 0.0
H1390 H 0.04702 0.31459 0.95178 0.0
H1391 H 0.04092 0.29889 0.92257 0.0
C1392 C 0.58972 0.76107 0.29436 0.0
C1393 C 0.5995 0.786 0.28985 0.0
C1394 C 0.56788 0.80325 0.31889 0.0
C1395 C 0.55661 0.77853 0.32147 0.0
N1396 N 0.55364 0.73462 0.30754 0.0
N1397 N 0.59544 0.83114 0.29412 0.0
C1398 C 0.56668 0.75759 0.30811 0.0
C1399 C 0.58786 0.80721 0.30105 0.0
N1400 N 0.60281 0.74071 0.28608 0.0
N1401 N 0.56031 0.82275 0.33425 0.0
H1402 H 0.61008 0.83481 0.28118 0.0
H1403 H 0.5858 0.84718 0.29946 0.0
H1404 H 0.54605 0.82059 0.34787 0.0
H1405 H 0.56971 0.8405 0.33519 0.0
H1406 H 0.59809 0.72219 0.29125 0.0
H1407 H 0.61974 0.74248 0.27588 0.0
H1408 H 0.5587 0.71942 0.2959 0.0
H1409 H 0.53631 0.73141 0.31674 0.0
C1410 C 0.0358 0.15056 0.93293 0.0
C1411 C 0.01483 0.1386 0.94547 0.0
C1412 C 0.98582 0.16693 0.9248 0.0
C1413 C 0.0065 0.17743 0.91063 0.0
N1414 N 0.05025 0.1759 0.89738 0.0
N1415 N 0.96948 0.13203 0.95008 0.0
C1416 C 0.03127 0.16832 0.91363 0.0
C1417 C 0.98969 0.14578 0.94042 0.0
N1418 N 0.06007 0.14555 0.94003 0.0
N1419 N 0.9628 0.1779 0.92435 0.0
H1420 H 0.97158 0.11647 0.96169 0.0
H1421 H 0.95069 0.13465 0.94481 0.0
H1422 H 0.95931 0.19376 0.91361 0.0
H1423 H 0.94786 0.17278 0.93641 0.0
H1424 H 0.07607 0.15577 0.93361 0.0
H1425 H 0.0642 0.1326 0.95404 0.0
H1426 H 0.06796 0.16788 0.89689 0.0
H1427 H 0.04758 0.18854 0.88268 0.0
C1428 C 0.40908 0.29358 0.18675 0.0
C1429 C 0.39326 0.2727 0.19435 0.0
C1430 C 0.41802 0.24388 0.1681 0.0
C1431 C 0.4326 0.265 0.15894 0.0
N1432 N 0.43929 0.31028 0.15593 0.0
N1433 N 0.37982 0.22865 0.18963 0.0
C1434 C 0.42744 0.28997 0.16732 0.0
C1435 C 0.39688 0.24803 0.18422 0.0
N1436 N 0.40691 0.31675 0.19853 0.0
N1437 N 0.42508 0.21984 0.16238 0.0
H1438 H 0.3644 0.23086 0.20181 0.0
H1439 H 0.37974 0.21092 0.18052 0.0
H1440 H 0.44058 0.21595 0.15085 0.0
H1441 H 0.41699 0.20377 0.17079 0.0
H1442 H 0.41978 0.332 0.19597 0.0
H1443 H 0.39329 0.32025 0.21244 0.0
H1444 H 0.43435 0.32891 0.15923 0.0
H1445 H 0.45261 0.30845 0.14138 0.0
C1446 C 0.50859 0.34553 0.03326 0.0
C1447 C 0.51296 0.36959 0.0455 0.0
C1448 C 0.50783 0.35056 0.08765 0.0
C1449 C 0.50203 0.32674 0.07535 0.0
N1450 N 0.49477 0.30133 0.03683 0.0
N1451 N 0.51454 0.39607 0.08367 0.0
C1452 C 0.50175 0.32418 0.04824 0.0
C1453 C 0.51204 0.37239 0.07254 0.0
N1454 N 0.51161 0.34306 0.00733 0.0
N1455 N 0.50943 0.35222 0.11379 0.0
H1456 H 0.5185 0.41236 0.07327 0.0
H1457 H 0.51126 0.39997 0.10294 0.0
H1458 H 0.50492 0.33703 0.12556 0.0
H1459 H 0.51645 0.36822 0.12395 0.0
H1460 H 0.51161 0.32576 0.99744 0.0
H1461 H 0.51577 0.35839 0.99563 0.0
H1462 H 0.49112 0.29878 0.01733 0.0
H1463 H 0.49126 0.28486 0.04705 0.0
C1464 C 0.57717 0.24599 0.22675 0.0
C1465 C 0.5994 0.23559 0.21648 0.0
C1466 C 0.5786 0.23022 0.17449 0.0
C1467 C 0.55725 0.24274 0.1842 0.0
N1468 N 0.53822 0.26701 0.21816 0.0
N1469 N 0.62313 0.22158 0.17987 0.0
C1470 C 0.55704 0.25182 0.20998 0.0
C1471 C 0.60066 0.22878 0.19012 0.0
N1472 N 0.57503 0.24968 0.25262 0.0
N1473 N 0.57743 0.21872 0.15077 0.0
H1474 H 0.63965 0.22011 0.19076 0.0
H1475 H 0.62598 0.21912 0.16028 0.0
H1476 H 0.56156 0.21911 0.13877 0.0
H1477 H 0.59126 0.20691 0.14386 0.0
H1478 H 0.55819 0.25454 0.26146 0.0
H1479 H 0.58944 0.24576 0.26554 0.0
H1480 H 0.53854 0.27638 0.23593 0.0
H1481 H 0.52346 0.27231 0.2063 0.0
C1482 C 0.50885 0.14928 0.07364 0.0
C1483 C 0.48833 0.14664 0.05592 0.0
C1484 C 0.47347 0.18805 0.06974 0.0
C1485 C 0.49242 0.18948 0.08924 0.0
N1486 N 0.52691 0.17069 0.11152 0.0
N1487 N 0.44885 0.16134 0.03949 0.0
C1488 C 0.5097 0.16981 0.09176 0.0
C1489 C 0.47005 0.16549 0.05454 0.0
N1490 N 0.52804 0.1327 0.07247 0.0
N1491 N 0.45884 0.20828 0.06559 0.0
H1492 H 0.44561 0.14501 0.02812 0.0
H1493 H 0.43344 0.173 0.03985 0.0
H1494 H 0.46016 0.22486 0.07677 0.0
H1495 H 0.44679 0.20947 0.04983 0.0
H1496 H 0.54491 0.13513 0.08292 0.0
H1497 H 0.52812 0.1175 0.05939 0.0
H1498 H 0.53785 0.15555 0.11626 0.0
H1499 H 0.52926 0.18609 0.12427 0.0
C1500 C 0.30441 0.41988 0.75297 0.0
C1501 C 0.29891 0.41077 0.72769 0.0
C1502 C 0.32696 0.4443 0.7101 0.0
C1503 C 0.33337 0.45275 0.73543 0.0
N1504 N 0.3249 0.45213 0.7808 0.0
N1505 N 0.3054 0.41267 0.68218 0.0
C1506 C 0.32105 0.44163 0.75684 0.0
C1507 C 0.31022 0.42263 0.70622 0.0
N1508 N 0.29472 0.40683 0.77331 0.0
N1509 N 0.33578 0.45797 0.68982 0.0
H1510 H 0.29222 0.39769 0.67849 0.0
H1511 H 0.31525 0.41824 0.66591 0.0
H1512 H 0.34731 0.47444 0.692 0.0
H1513 H 0.33012 0.45448 0.67092 0.0
H1514 H 0.30028 0.41036 0.79224 0.0
H1515 H 0.28209 0.39114 0.77125 0.0
H1516 H 0.3144 0.44692 0.79677 0.0
H1517 H 0.33749 0.46748 0.78468 0.0
C1518 C 0.29225 0.60788 0.76028 0.0
C1519 C 0.28864 0.61875 0.78498 0.0
C1520 C 0.31857 0.58973 0.8032 0.0
C1521 C 0.32015 0.57722 0.77897 0.0
N1522 N 0.30475 0.5713 0.7355 0.0
N1523 N 0.29503 0.61773 0.83069 0.0
C1524 C 0.30603 0.58549 0.75773 0.0
C1525 C 0.30088 0.60903 0.80668 0.0
N1526 N 0.28305 0.61931 0.73916 0.0
N1527 N 0.33468 0.58389 0.8226 0.0
H1528 H 0.28225 0.63194 0.834 0.0
H1529 H 0.30118 0.60943 0.84737 0.0
H1530 H 0.34822 0.57018 0.82067 0.0
H1531 H 0.33627 0.5942 0.83981 0.0
H1532 H 0.28749 0.61386 0.7205 0.0
H1533 H 0.27276 0.63571 0.74025 0.0
H1534 H 0.29255 0.57494 0.7204 0.0
H1535 H 0.31402 0.55441 0.73299 0.0
C1536 C 0.86868 0.43672 0.5134 0.0
C1537 C 0.86554 0.45587 0.49521 0.0
C1538 C 0.82242 0.43858 0.48595 0.0
C1539 C 0.82446 0.42162 0.5065 0.0
N1540 N 0.84772 0.40952 0.544 0.0
N1541 N 0.83703 0.47863 0.46867 0.0
C1542 C 0.84708 0.42211 0.52148 0.0
C1543 C 0.84167 0.45792 0.48282 0.0
N1544 N 0.89237 0.43176 0.52229 0.0
N1545 N 0.80298 0.43551 0.46853 0.0
H1546 H 0.85033 0.49364 0.46656 0.0
H1547 H 0.81909 0.48207 0.46132 0.0
H1548 H 0.78928 0.42068 0.46899 0.0
H1549 H 0.80217 0.44601 0.45194 0.0
H1550 H 0.89579 0.41636 0.53371 0.0
H1551 H 0.90889 0.44128 0.51606 0.0
H1552 H 0.86311 0.41125 0.55667 0.0
H1553 H 0.83187 0.39979 0.55146 0.0
C1554 C 0.7057 0.91046 0.80025 0.0
C1555 C 0.70693 0.89288 0.7794 0.0
C1556 C 0.67161 0.91277 0.75811 0.0
C1557 C 0.67184 0.93165 0.7779 0.0
N1558 N 0.69196 0.95125 0.81545 0.0
N1559 N 0.69413 0.87943 0.73667 0.0
C1560 C 0.68964 0.93125 0.79838 0.0
C1561 C 0.69076 0.89466 0.75777 0.0
N1562 N 0.71935 0.9069 0.82211 0.0
N1563 N 0.65244 0.91147 0.74028 0.0
H1564 H 0.70783 0.86579 0.73582 0.0
H1565 H 0.68484 0.88171 0.71928 0.0
H1566 H 0.63784 0.92415 0.74008 0.0
H1567 H 0.64968 0.89652 0.72707 0.0
H1568 H 0.71706 0.9174 0.83899 0.0
H1569 H 0.73156 0.89206 0.82412 0.0
H1570 H 0.70645 0.95334 0.82908 0.0
H1571 H 0.68077 0.967 0.81457 0.0
C1572 C 0.64531 0.58568 0.98113 0.0
C1573 C 0.64866 0.55926 0.97902 0.0
C1574 C 0.6949 0.56685 0.97799 0.0
C1575 C 0.69165 0.59314 0.98227 0.0
N1576 N 0.66399 0.62708 0.99268 0.0
N1577 N 0.67627 0.52415 0.97969 0.0
C1578 C 0.6669 0.60246 0.98511 0.0
C1579 C 0.67337 0.54967 0.97876 0.0
N1580 N 0.62154 0.59481 0.97864 0.0
N1581 N 0.71834 0.55842 0.97191 0.0
H1582 H 0.6609 0.51098 0.97991 0.0
H1583 H 0.69377 0.51614 0.9824 0.0
H1584 H 0.73448 0.57044 0.97042 0.0
H1585 H 0.7214 0.53988 0.96596 0.0
H1586 H 0.61823 0.61397 0.97699 0.0
H1587 H 0.60518 0.5831 0.97617 0.0
H1588 H 0.64657 0.63418 0.99784 0.0
H1589 H 0.67926 0.63997 0.99608 0.0
C1590 C 0.18622 0.60634 0.26336 0.0
C1591 C 0.19725 0.60896 0.23882 0.0
C1592 C 0.17142 0.57224 0.22254 0.0
C1593 C 0.16201 0.56831 0.24761 0.0
N1594 N 0.16301 0.5792 0.29272 0.0
N1595 N 0.20314 0.593 0.19577 0.0
C1596 C 0.17 0.58478 0.26826 0.0
C1597 C 0.19067 0.59147 0.2186 0.0
N1598 N 0.19095 0.62471 0.28187 0.0
N1599 N 0.16114 0.55835 0.2023 0.0
H1600 H 0.21677 0.60731 0.1919 0.0
H1601 H 0.20138 0.57911 0.18133 0.0
H1602 H 0.14681 0.54428 0.20433 0.0
H1603 H 0.16514 0.56217 0.18326 0.0
H1604 H 0.18121 0.62548 0.29913 0.0
H1605 H 0.20339 0.64034 0.27926 0.0
H1606 H 0.17052 0.58877 0.30889 0.0
H1607 H 0.15118 0.5636 0.29713 0.0
C1608 C 0.83494 0.53229 0.00634 0.0
C1609 C 0.85967 0.54317 0.0112 0.0
C1610 C 0.8444 0.58551 0.0039 0.0
C1611 C 0.81928 0.57485 0.0011 0.0
N1612 N 0.7897 0.53881 0.00386 0.0
N1613 N 0.88759 0.58007 0.01849 0.0
C1614 C 0.81427 0.5484 0.00339 0.0
C1615 C 0.8643 0.56979 0.01113 0.0
N1616 N 0.83133 0.50657 0.00399 0.0
N1617 N 0.84945 0.61042 0.99851 0.0
H1618 H 0.90278 0.56912 0.02345 0.0
H1619 H 0.89131 0.5994 0.02164 0.0
H1620 H 0.83546 0.6225 0.99282 0.0
H1621 H 0.86777 0.61861 0.99747 0.0
H1622 H 0.81438 0.49759 0.99758 0.0
H1623 H 0.84592 0.49414 0.00659 0.0
H1624 H 0.78474 0.52014 0.00825 0.0
H1625 H 0.77402 0.55002 0.00206 0.0
C1626 C 0.16822 0.96821 0.04252 0.0
C1627 C 0.15065 0.96939 0.02192 0.0
C1628 C 0.17759 0.94347 0.9947 0.0
C1629 C 0.1946 0.94136 0.01567 0.0
N1630 N 0.20526 0.94895 0.06021 0.0
N1631 N 0.13642 0.95612 0.97959 0.0
C1632 C 0.18961 0.95287 0.03982 0.0
C1633 C 0.15474 0.95646 0.99831 0.0
N1634 N 0.16475 0.98236 0.06438 0.0
N1635 N 0.18345 0.9332 0.97131 0.0
H1636 H 0.11978 0.96601 0.9813 0.0
H1637 H 0.13674 0.94484 0.96303 0.0
H1638 H 0.19917 0.92221 0.96828 0.0
H1639 H 0.17357 0.93652 0.9545 0.0
H1640 H 0.17822 0.98475 0.079 0.0
H1641 H 0.14889 0.99317 0.06735 0.0
H1642 H 0.20118 0.95426 0.07899 0.0
H1643 H 0.22184 0.93897 0.05869 0.0
loop_
_geom_bond_atom_site_label_1
_geom_bond_atom_site_label_2
_geom_bond_distance
_geom_bond_site_symmetry_2
_ccdc_geom_bond_type
C0 C1 1.386 . S
C0 C2 1.397 . S
C0 H24 0.931 . S
C1 C0 1.386 . S
C1 C5 1.397 1_556 S
C2 C0 1.397 . S
C2 C3 1.384 1_556 S
C2 H25 0.930 . S
C3 C2 1.384 1_554 S
C3 C4 1.377 . S
C3 C6 1.481 . S
C4 C3 1.377 . S
C4 C5 1.389 . S
C4 H26 0.929 . S
C5 C1 1.397 1_554 S
C5 C4 1.389 . S
C5 H27 0.931 . S
C6 C3 1.481 . S
C6 C7 1.387 . S
C6 C11 1.390 . S
C7 C6 1.387 . S
C7 C8 1.401 . S
C7 H28 0.930 . S
C8 C7 1.401 . S
C8 C9 1.376 . S
C8 C17 1.511 . S
C9 C8 1.376 . S
C9 C10 1.392 . S
C9 H30 0.931 . S
C10 C9 1.392 . S
C10 C11 1.361 . S
C10 C12 1.500 . S
C11 C6 1.390 . S
C11 C10 1.361 . S
C11 H29 0.931 . S
C12 C10 1.500 . S
C12 C13 1.363 1_455 S
C12 C14 1.365 1_455 S
C13 C12 1.363 1_655 S
C13 C23 1.415 . S
C13 H31 0.911 1_655 S
C14 C12 1.365 1_655 S
C14 C15 1.409 . S
C14 H32 0.936 . S
C15 C14 1.409 . S
C15 C16 1.380 . S
C15 H33 0.930 . S
C16 C15 1.380 . S
C16 C23 1.357 . S
C17 C8 1.511 . S
C17 C18 1.341 . S
C17 C19 1.371 1_545 S
C18 C17 1.341 . S
C18 C22 1.394 1_545 S
C18 H34 0.903 1_554 S
C19 C17 1.371 1_565 S
C19 C20 1.392 . S
C19 H35 0.931 . S
C20 C19 1.392 . S
C20 C21 1.331 . S
C20 H38 0.932 . S
C21 C20 1.331 . S
C21 C22 1.336 . S
C22 C18 1.394 1_565 S
C22 C21 1.336 . S
C22 H37 0.929 1_554 S
C23 C13 1.415 . S
C23 C16 1.357 . S
C23 H36 0.928 1_545 S
H24 C0 0.931 . S
H25 C2 0.930 . S
H26 C4 0.929 . S
H27 C5 0.931 . S
H28 C7 0.930 . S
H29 C11 0.931 . S
H30 C9 0.931 . S
H31 C13 0.911 1_455 S
H32 C14 0.936 . S
H33 C15 0.930 . S
H34 C18 0.903 1_556 S
H35 C19 0.931 . S
H36 C23 0.928 1_565 S
H37 C22 0.929 1_556 S
H38 C20 0.932 . S
C39 C40 1.386 . S
C39 C41 1.397 . S
C39 H63 0.931 . S
C40 C39 1.386 . S
C40 C44 1.397 . S
C41 C39 1.397 . S
C41 C42 1.384 . S
C41 H64 0.930 . S
C42 C41 1.384 . S
C42 C43 1.377 . S
C42 C45 1.481 . S
C43 C42 1.377 . S
C43 C44 1.389 . S
C43 H65 0.929 . S
C44 C40 1.397 . S
C44 C43 1.389 . S
C44 H66 0.931 . S
C45 C42 1.481 . S
C45 C46 1.387 . S
C45 C50 1.390 . S
C46 C45 1.387 . S
C46 C47 1.401 . S
C46 H67 0.930 . S
C47 C46 1.401 . S
C47 C48 1.376 . S
C47 C56 1.511 . S
C48 C47 1.376 . S
C48 C49 1.392 . S
C48 H69 0.931 . S
C49 C48 1.392 . S
C49 C50 1.361 . S
C49 C51 1.500 . S
C50 C45 1.390 . S
C50 C49 1.361 . S
C50 H68 0.931 . S
C51 C49 1.500 . S
C51 C52 1.371 . S
C51 C53 1.365 . S
C52 C51 1.371 . S
C52 C62 1.386 . S
C52 H70 0.931 . S
C53 C51 1.365 . S
C53 C54 1.409 . S
C53 H71 0.929 . S
C54 C53 1.409 . S
C54 C55 1.380 . S
C54 H72 0.930 . S
C55 C54 1.380 . S
C55 C62 1.357 . S
C56 C47 1.511 . S
C56 C57 1.341 . S
C56 C58 1.371 . S
C57 C56 1.341 . S
C57 C61 1.394 . S
C57 H73 0.930 . S
C58 C56 1.371 . S
C58 C59 1.392 . S
C58 H74 0.931 . S
C59 C58 1.392 . S
C59 C60 1.331 . S
C59 H77 0.932 . S
C60 C59 1.331 . S
C60 C61 1.336 . S
C61 C57 1.394 . S
C61 C60 1.336 . S
C61 H76 0.929 . S
C62 C52 1.386 . S
C62 C55 1.357 . S
C62 H75 0.928 . S
H63 C39 0.931 . S
H64 C41 0.930 . S
H65 C43 0.929 . S
H66 C44 0.931 . S
H67 C46 0.930 . S
H68 C50 0.931 . S
H69 C48 0.931 . S
H70 C52 0.931 . S
H71 C53 0.929 . S
H72 C54 0.930 . S
H73 C57 0.930 . S
H74 C58 0.931 . S
H75 C62 0.928 . S
H76 C61 0.929 . S
H77 C59 0.932 . S
C78 C79 1.386 . S
C78 C80 1.397 1_455 S
C78 H102 0.929 . S
C79 C78 1.386 . S
C79 C83 1.397 . S
C80 C78 1.397 1_655 S
C80 C81 1.397 . S
C80 H103 0.930 . S
C81 C80 1.397 . S
C81 C82 1.344 1_655 S
C81 C84 1.501 . S
C82 C81 1.344 1_455 S
C82 C83 1.389 . S
C82 H104 0.929 . S
C83 C79 1.397 . S
C83 C82 1.389 . S
C83 H105 0.931 . S
C84 C81 1.501 . S
C84 C85 1.387 . S
C84 C89 1.390 . S
C85 C84 1.387 . S
C85 C86 1.401 . S
C85 H106 0.930 . S
C86 C85 1.401 . S
C86 C87 1.376 . S
C86 C95 1.511 . S
C87 C86 1.376 . S
C87 C88 1.392 . S
C87 H108 0.931 . S
C88 C87 1.392 . S
C88 C89 1.361 . S
C88 C90 1.500 . S
C89 C84 1.390 . S
C89 C88 1.361 . S
C89 H107 0.931 . S
C90 C88 1.500 . S
C90 C91 1.371 1_554 S
C90 C92 1.365 1_554 S
C91 C90 1.371 1_556 S
C91 C101 1.386 . S
C91 H109 0.931 . S
C92 C90 1.365 1_556 S
C92 C93 1.409 1_655 S
C92 H110 0.929 1_656 S
C93 C92 1.409 1_455 S
C93 C94 1.380 1_455 S
C93 H111 0.930 . S
C94 C93 1.380 1_655 S
C94 C101 1.357 . S
C95 C86 1.511 . S
C95 C96 1.341 . S
C95 C97 1.371 . S
C96 C95 1.341 . S
C96 C100 1.394 . S
C96 H112 0.930 . S
C97 C95 1.371 . S
C97 C98 1.397 . S
C97 H113 0.931 1_554 S
C98 C97 1.397 . S
C98 C99 1.349 . S
C98 H116 0.909 1_554 S
C99 C98 1.349 . S
C99 C100 1.336 . S
C100 C96 1.394 . S
C100 C99 1.336 . S
C100 H115 0.929 . S
C101 C91 1.386 . S
C101 C94 1.357 . S
C101 H114 0.928 . S
H102 C78 0.929 . S
H103 C80 0.930 . S
H104 C82 0.929 . S
H105 C83 0.931 . S
H106 C85 0.930 . S
H107 C89 0.931 . S
H108 C87 0.931 . S
H109 C91 0.931 . S
H110 C92 0.929 1_454 S
H111 C93 0.930 . S
H112 C96 0.930 . S
H113 C97 0.931 1_556 S
H114 C101 0.928 . S
H115 C100 0.929 . S
H116 C98 0.909 1_556 S
C117 C118 1.386 . S
C117 C119 1.397 . S
C117 H141 0.931 . S
C118 C117 1.386 . S
C118 C122 1.397 . S
C119 C117 1.397 . S
C119 C120 1.384 . S
C119 H142 0.930 . S
C120 C119 1.384 . S
C120 C121 1.377 . S
C120 C123 1.481 . S
C121 C120 1.377 . S
C121 C122 1.389 . S
C121 H143 0.929 . S
C122 C118 1.397 . S
C122 C121 1.389 . S
C122 H144 0.931 . S
C123 C120 1.481 . S
C123 C124 1.387 . S
C123 C128 1.390 . S
C124 C123 1.387 . S
C124 C125 1.401 . S
C124 H145 0.930 . S
C125 C124 1.401 . S
C125 C126 1.376 . S
C125 C134 1.511 . S
C126 C125 1.376 . S
C126 C127 1.392 . S
C126 H147 0.931 . S
C127 C126 1.392 . S
C127 C128 1.361 . S
C127 C129 1.500 . S
C128 C123 1.390 . S
C128 C127 1.361 . S
C128 H146 0.931 . S
C129 C127 1.500 . S
C129 C130 1.371 . S
C129 C131 1.365 . S
C130 C129 1.371 . S
C130 C140 1.386 . S
C130 H148 0.931 . S
C131 C129 1.365 . S
C131 C132 1.409 . S
C131 H149 0.929 . S
C132 C131 1.409 . S
C132 C133 1.380 . S
C132 H150 0.930 . S
C133 C132 1.380 . S
C133 C140 1.357 . S
C134 C125 1.511 . S
C134 C135 1.341 . S
C134 C136 1.371 . S
C135 C134 1.341 . S
C135 C139 1.394 . S
C135 H151 0.930 . S
C136 C134 1.371 . S
C136 C137 1.392 . S
C136 H152 0.931 . S
C137 C136 1.392 . S
C137 C138 1.331 . S
C137 H155 0.932 . S
C138 C137 1.331 . S
C138 C139 1.336 . S
C139 C135 1.394 . S
C139 C138 1.336 . S
C139 H154 0.929 . S
C140 C130 1.386 . S
C140 C133 1.357 . S
C140 H153 0.928 . S
H141 C117 0.931 . S
H142 C119 0.930 . S
H143 C121 0.929 . S
H144 C122 0.931 . S
H145 C124 0.930 . S
H146 C128 0.931 . S
H147 C126 0.931 . S
H148 C130 0.931 . S
H149 C131 0.929 . S
H150 C132 0.930 . S
H151 C135 0.930 . S
H152 C136 0.931 . S
H153 C140 0.928 . S
H154 C139 0.929 . S
H155 C137 0.932 . S
C156 C157 1.386 . S
C156 C158 1.397 . S
C156 H180 0.931 . S
C157 C156 1.386 . S
C157 C161 1.397 . S
C158 C156 1.397 . S
C158 C159 1.384 1_655 S
C158 H181 0.930 . S
C159 C158 1.384 1_455 S
C159 C160 1.377 . S
C159 C162 1.481 . S
C160 C159 1.377 . S
C160 C161 1.389 1_455 S
C160 H182 0.929 . S
C161 C157 1.397 . S
C161 C160 1.389 1_655 S
C161 H183 0.931 1_655 S
C162 C159 1.481 . S
C162 C163 1.387 . S
C162 C167 1.390 . S
C163 C162 1.387 . S
C163 C164 1.401 . S
C163 H184 0.930 . S
C164 C163 1.401 . S
C164 C165 1.376 . S
C164 C173 1.511 . S
C165 C164 1.376 . S
C165 C166 1.392 . S
C165 H186 0.931 . S
C166 C165 1.392 . S
C166 C167 1.361 . S
C166 C168 1.500 1_565 S
C167 C162 1.390 . S
C167 C166 1.361 . S
C167 H185 0.931 1_565 S
C168 C166 1.500 1_545 S
C168 C169 1.371 . S
C168 C170 1.365 . S
C169 C168 1.371 . S
C169 C179 1.386 . S
C169 H187 0.931 . S
C170 C168 1.365 . S
C170 C171 1.409 . S
C170 H188 0.929 . S
C171 C170 1.409 . S
C171 C172 1.380 . S
C171 H189 0.930 . S
C172 C171 1.380 . S
C172 C179 1.357 . S
C173 C164 1.511 . S
C173 C174 1.341 . S
C173 C175 1.371 . S
C174 C173 1.341 . S
C174 C178 1.394 . S
C174 H190 0.930 1_455 S
C175 C173 1.371 . S
C175 C176 1.392 . S
C175 H191 0.931 . S
C176 C175 1.392 . S
C176 C177 1.331 . S
C176 H194 0.932 . S
C177 C176 1.331 . S
C177 C178 1.336 . S
C178 C174 1.394 . S
C178 C177 1.336 . S
C178 H193 0.929 1_455 S
C179 C169 1.386 . S
C179 C172 1.357 . S
C179 H192 0.928 . S
H180 C156 0.931 . S
H181 C158 0.930 . S
H182 C160 0.929 . S
H183 C161 0.931 1_455 S
H184 C163 0.930 . S
H185 C167 0.931 1_545 S
H186 C165 0.931 . S
H187 C169 0.931 . S
H188 C170 0.929 . S
H189 C171 0.930 . S
H190 C174 0.930 1_655 S
H191 C175 0.931 . S
H192 C179 0.928 . S
H193 C178 0.929 1_655 S
H194 C176 0.932 . S
C195 C196 1.386 . S
C195 C197 1.397 . S
C195 H219 0.931 . S
C196 C195 1.386 . S
C196 C200 1.397 . S
C197 C195 1.397 . S
C197 C198 1.384 . S
C197 H220 0.930 . S
C198 C197 1.384 . S
C198 C199 1.377 . S
C198 C201 1.481 . S
C199 C198 1.377 . S
C199 C200 1.389 . S
C199 H221 0.929 . S
C200 C196 1.397 . S
C200 C199 1.389 . S
C200 H222 0.931 . S
C201 C198 1.481 . S
C201 C202 1.387 . S
C201 C206 1.390 . S
C202 C201 1.387 . S
C202 C203 1.401 . S
C202 H223 0.930 . S
C203 C202 1.401 . S
C203 C204 1.376 . S
C203 C212 1.511 . S
C204 C203 1.376 . S
C204 C205 1.392 . S
C204 H225 0.931 . S
C205 C204 1.392 . S
C205 C206 1.361 . S
C205 C207 1.500 . S
C206 C201 1.390 . S
C206 C205 1.361 . S
C206 H224 0.931 . S
C207 C205 1.500 . S
C207 C208 1.371 . S
C207 C209 1.365 . S
C208 C207 1.371 . S
C208 C218 1.386 . S
C208 H226 0.931 . S
C209 C207 1.365 . S
C209 C210 1.409 . S
C209 H227 0.929 . S
C210 C209 1.409 . S
C210 C211 1.380 . S
C210 H228 0.930 . S
C211 C210 1.380 . S
C211 C218 1.357 . S
C212 C203 1.511 . S
C212 C213 1.341 . S
C212 C214 1.371 . S
C213 C212 1.341 . S
C213 C217 1.394 . S
C213 H229 0.930 . S
C214 C212 1.371 . S
C214 C215 1.392 . S
C214 H230 0.931 . S
C215 C214 1.392 . S
C215 C216 1.331 . S
C215 H233 0.932 . S
C216 C215 1.331 . S
C216 C217 1.336 . S
C217 C213 1.394 . S
C217 C216 1.336 . S
C217 H232 0.929 . S
C218 C208 1.386 . S
C218 C211 1.357 . S
C218 H231 0.928 . S
H219 C195 0.931 . S
H220 C197 0.930 . S
H221 C199 0.929 . S
H222 C200 0.931 . S
H223 C202 0.930 . S
H224 C206 0.931 . S
H225 C204 0.931 . S
H226 C208 0.931 . S
H227 C209 0.929 . S
H228 C210 0.930 . S
H229 C213 0.930 . S
H230 C214 0.931 . S
H231 C218 0.928 . S
H232 C217 0.929 . S
H233 C215 0.932 . S
C234 C235 1.386 . S
C234 C236 1.397 . S
C234 H258 0.931 . S
C235 C234 1.386 . S
C235 C239 1.397 . S
C236 C234 1.397 . S
C236 C237 1.384 . S
C236 H259 0.930 . S
C237 C236 1.384 . S
C237 C238 1.377 . S
C237 C240 1.481 . S
C238 C237 1.377 . S
C238 C239 1.389 . S
C238 H260 0.929 . S
C239 C235 1.397 . S
C239 C238 1.389 . S
C239 H261 0.931 . S
C240 C237 1.481 . S
C240 C241 1.387 . S
C240 C245 1.390 . S
C241 C240 1.387 . S
C241 C242 1.401 . S
C241 H262 0.942 . S
C242 C241 1.401 . S
C242 C243 1.376 . S
C242 C251 1.527 . S
C243 C242 1.376 . S
C243 C244 1.392 . S
C243 H264 0.931 . S
C244 C243 1.392 . S
C244 C245 1.361 . S
C244 C246 1.500 . S
C245 C240 1.390 . S
C245 C244 1.361 . S
C245 H263 0.931 . S
C246 C244 1.500 . S
C246 C247 1.371 . S
C246 C248 1.365 . S
C247 C246 1.371 . S
C247 C257 1.386 . S
C247 H265 0.931 . S
C248 C246 1.365 . S
C248 C249 1.409 . S
C248 H266 0.929 . S
C249 C248 1.409 . S
C249 C250 1.380 . S
C249 H267 0.930 . S
C250 C249 1.380 . S
C250 C257 1.357 . S
C251 C242 1.527 . S
C251 C252 1.326 1_655 S
C251 C253 1.366 1_655 S
C252 C251 1.326 1_455 S
C252 C256 1.394 . S
C252 H268 0.930 . S
C253 C251 1.366 1_455 S
C253 C254 1.421 . S
C253 H269 0.908 1_455 S
C254 C253 1.421 . S
C254 C255 1.331 . S
C254 H272 0.932 . S
C255 C254 1.331 . S
C255 C256 1.336 . S
C256 C252 1.394 . S
C256 C255 1.336 . S
C256 H271 0.929 . S
C257 C247 1.386 . S
C257 C250 1.357 . S
C257 H270 0.928 . S
H258 C234 0.931 . S
H259 C236 0.930 . S
H260 C238 0.929 . S
H261 C239 0.931 . S
H262 C241 0.942 . S
H263 C245 0.931 . S
H264 C243 0.931 . S
H265 C247 0.931 . S
H266 C248 0.929 . S
H267 C249 0.930 . S
H268 C252 0.930 . S
H269 C253 0.908 1_655 S
H270 C257 0.928 . S
H271 C256 0.929 . S
H272 C254 0.932 . S
C273 C274 1.386 . S
C273 C275 1.397 . S
C273 H297 0.931 . S
C274 C273 1.386 . S
C274 C278 1.397 . S
C275 C273 1.397 . S
C275 C276 1.384 . S
C275 H298 0.930 . S
C276 C275 1.384 . S
C276 C277 1.377 . S
C276 C279 1.481 . S
C277 C276 1.377 . S
C277 C278 1.389 . S
C277 H299 0.929 . S
C278 C274 1.397 . S
C278 C277 1.389 . S
C278 H300 0.931 . S
C279 C276 1.481 . S
C279 C280 1.387 . S
C279 C284 1.390 . S
C280 C279 1.387 . S
C280 C281 1.401 . S
C280 H301 0.930 . S
C281 C280 1.401 . S
C281 C282 1.376 . S
C281 C290 1.511 . S
C282 C281 1.376 . S
C282 C283 1.392 . S
C282 H303 0.931 . S
C283 C282 1.392 . S
C283 C284 1.361 . S
C283 C285 1.500 . S
C284 C279 1.390 . S
C284 C283 1.361 . S
C284 H302 0.931 . S
C285 C283 1.500 . S
C285 C286 1.371 . S
C285 C287 1.365 . S
C286 C285 1.371 . S
C286 C296 1.386 . S
C286 H304 0.931 . S
C287 C285 1.365 . S
C287 C288 1.409 . S
C287 H305 0.929 . S
C288 C287 1.409 . S
C288 C289 1.380 . S
C288 H306 0.930 . S
C289 C288 1.380 . S
C289 C296 1.357 . S
C290 C281 1.511 . S
C290 C291 1.341 . S
C290 C292 1.371 . S
C291 C290 1.341 . S
C291 C295 1.394 . S
C291 H307 0.930 . S
C292 C290 1.371 . S
C292 C293 1.392 . S
C292 H308 0.931 . S
C293 C292 1.392 . S
C293 C294 1.331 . S
C293 H311 0.932 . S
C294 C293 1.331 . S
C294 C295 1.336 . S
C295 C291 1.394 . S
C295 C294 1.336 . S
C295 H310 0.929 . S
C296 C286 1.386 . S
C296 C289 1.357 . S
C296 H309 0.928 . S
H297 C273 0.931 . S
H298 C275 0.930 . S
H299 C277 0.929 . S
H300 C278 0.931 . S
H301 C280 0.930 . S
H302 C284 0.931 . S
H303 C282 0.931 . S
H304 C286 0.931 . S
H305 C287 0.929 . S
H306 C288 0.930 . S
H307 C291 0.930 . S
H308 C292 0.931 . S
H309 C296 0.928 . S
H310 C295 0.929 . S
H311 C293 0.932 . S
C312 C313 1.386 . S
C312 C314 1.397 . S
C312 H336 0.931 . S
C313 C312 1.386 . S
C313 C317 1.397 . S
C314 C312 1.397 . S
C314 C315 1.384 . S
C314 H337 0.930 . S
C315 C314 1.384 . S
C315 C316 1.377 . S
C315 C318 1.481 . S
C316 C315 1.377 . S
C316 C317 1.389 . S
C316 H338 0.929 . S
C317 C313 1.397 . S
C317 C316 1.389 . S
C317 H339 0.931 . S
C318 C315 1.481 . S
C318 C319 1.387 . S
C318 C323 1.390 . S
C319 C318 1.387 . S
C319 C320 1.401 . S
C319 H340 0.930 . S
C320 C319 1.401 . S
C320 C321 1.376 . S
C320 C329 1.511 . S
C321 C320 1.376 . S
C321 C322 1.392 . S
C321 H342 0.931 . S
C322 C321 1.392 . S
C322 C323 1.361 . S
C322 C324 1.500 . S
C323 C318 1.390 . S
C323 C322 1.361 . S
C323 H341 0.931 . S
C324 C322 1.500 . S
C324 C325 1.371 . S
C324 C326 1.365 . S
C325 C324 1.371 . S
C325 C335 1.386 . S
C325 H343 0.931 . S
C326 C324 1.365 . S
C326 C327 1.409 . S
C326 H344 0.929 . S
C327 C326 1.409 . S
C327 C328 1.380 . S
C327 H345 0.930 . S
C328 C327 1.380 . S
C328 C335 1.357 . S
C329 C320 1.511 . S
C329 C330 1.341 . S
C329 C331 1.371 . S
C330 C329 1.341 . S
C330 C334 1.394 . S
C330 H346 0.930 . S
C331 C329 1.371 . S
C331 C332 1.392 . S
C331 H347 0.931 . S
C332 C331 1.392 . S
C332 C333 1.331 . S
C332 H350 0.932 . S
C333 C332 1.331 . S
C333 C334 1.336 . S
C334 C330 1.394 . S
C334 C333 1.336 . S
C334 H349 0.929 . S
C335 C325 1.386 . S
C335 C328 1.357 . S
C335 H348 0.928 . S
H336 C312 0.931 . S
H337 C314 0.930 . S
H338 C316 0.929 . S
H339 C317 0.931 . S
H340 C319 0.930 . S
H341 C323 0.931 . S
H342 C321 0.931 . S
H343 C325 0.931 . S
H344 C326 0.929 . S
H345 C327 0.930 . S
H346 C330 0.930 . S
H347 C331 0.931 . S
H348 C335 0.928 . S
H349 C334 0.929 . S
H350 C332 0.932 . S
C351 C352 1.386 . S
C351 C353 1.397 . S
C351 H375 0.931 . S
C352 C351 1.386 . S
C352 C356 1.397 . S
C353 C351 1.397 . S
C353 C354 1.384 . S
C353 H376 0.930 . S
C354 C353 1.384 . S
C354 C355 1.377 . S
C354 C357 1.481 . S
C355 C354 1.377 . S
C355 C356 1.389 . S
C355 H377 0.929 . S
C356 C352 1.397 . S
C356 C355 1.389 . S
C356 H378 0.931 . S
C357 C354 1.481 . S
C357 C358 1.387 . S
C357 C362 1.390 . S
C358 C357 1.387 . S
C358 C359 1.401 . S
C358 H379 0.922 1_565 S
C359 C358 1.401 . S
C359 C360 1.376 . S
C359 C368 1.488 1_565 S
C360 C359 1.376 . S
C360 C361 1.392 . S
C360 H381 0.931 . S
C361 C360 1.392 . S
C361 C362 1.361 . S
C361 C363 1.500 . S
C362 C357 1.390 . S
C362 C361 1.361 . S
C362 H380 0.931 . S
C363 C361 1.500 . S
C363 C364 1.371 . S
C363 C365 1.365 . S
C364 C363 1.371 . S
C364 C374 1.386 . S
C364 H382 0.931 . S
C365 C363 1.365 . S
C365 C366 1.409 . S
C365 H383 0.929 . S
C366 C365 1.409 . S
C366 C367 1.380 . S
C366 H384 0.930 . S
C367 C366 1.380 . S
C367 C374 1.357 . S
C368 C359 1.488 1_545 S
C368 C369 1.363 . S
C368 C370 1.376 . S
C369 C368 1.363 . S
C369 C373 1.394 . S
C369 H385 0.930 . S
C370 C368 1.376 . S
C370 C371 1.392 . S
C370 H386 0.931 1_545 S
C371 C370 1.392 . S
C371 C372 1.331 . S
C371 H389 0.932 . S
C372 C371 1.331 . S
C372 C373 1.336 . S
C373 C369 1.394 . S
C373 C372 1.336 . S
C373 H388 0.929 . S
C374 C364 1.386 . S
C374 C367 1.357 . S
C374 H387 0.928 . S
H375 C351 0.931 . S
H376 C353 0.930 . S
H377 C355 0.929 . S
H378 C356 0.931 . S
H379 C358 0.922 1_545 S
H380 C362 0.931 . S
H381 C360 0.931 . S
H382 C364 0.931 . S
H383 C365 0.929 . S
H384 C366 0.930 . S
H385 C369 0.930 . S
H386 C370 0.931 1_565 S
H387 C374 0.928 . S
H388 C373 0.929 . S
H389 C371 0.932 . S
C390 C391 1.386 . S
C390 C392 1.397 . S
C390 H414 0.931 . S
C391 C390 1.386 . S
C391 C395 1.397 . S
C392 C390 1.397 . S
C392 C393 1.384 . S
C392 H415 0.930 . S
C393 C392 1.384 . S
C393 C394 1.377 . S
C393 C396 1.481 . S
C394 C393 1.377 . S
C394 C395 1.389 . S
C394 H416 0.929 . S
C395 C391 1.397 . S
C395 C394 1.389 . S
C395 H417 0.931 . S
C396 C393 1.481 . S
C396 C397 1.387 . S
C396 C401 1.390 . S
C397 C396 1.387 . S
C397 C398 1.401 . S
C397 H418 0.930 . S
C398 C397 1.401 . S
C398 C399 1.376 . S
C398 C407 1.511 . S
C399 C398 1.376 . S
C399 C400 1.392 . S
C399 H420 0.931 . S
C400 C399 1.392 . S
C400 C401 1.361 . S
C400 C402 1.500 . S
C401 C396 1.390 . S
C401 C400 1.361 . S
C401 H419 0.931 . S
C402 C400 1.500 . S
C402 C403 1.371 . S
C402 C404 1.365 . S
C403 C402 1.371 . S
C403 C413 1.386 . S
C403 H421 0.931 . S
C404 C402 1.365 . S
C404 C405 1.409 . S
C404 H422 0.929 . S
C405 C404 1.409 . S
C405 C406 1.380 . S
C405 H423 0.930 . S
C406 C405 1.380 . S
C406 C413 1.357 . S
C407 C398 1.511 . S
C407 C408 1.341 . S
C407 C409 1.371 . S
C408 C407 1.341 . S
C408 C412 1.394 . S
C408 H424 0.930 . S
C409 C407 1.371 . S
C409 C410 1.392 . S
C409 H425 0.931 . S
C410 C409 1.392 . S
C410 C411 1.331 . S
C410 H428 0.932 . S
C411 C410 1.331 . S
C411 C412 1.336 . S
C412 C408 1.394 . S
C412 C411 1.336 . S
C412 H427 0.929 . S
C413 C403 1.386 . S
C413 C406 1.357 . S
C413 H426 0.928 . S
H414 C390 0.931 . S
H415 C392 0.930 . S
H416 C394 0.929 . S
H417 C395 0.931 . S
H418 C397 0.930 . S
H419 C401 0.931 . S
H420 C399 0.931 . S
H421 C403 0.931 . S
H422 C404 0.929 . S
H423 C405 0.930 . S
H424 C408 0.930 . S
H425 C409 0.931 . S
H426 C413 0.928 . S
H427 C412 0.929 . S
H428 C410 0.932 . S
C429 C430 1.386 . S
C429 C431 1.397 . S
C429 H453 0.931 . S
C430 C429 1.386 . S
C430 C434 1.397 . S
C431 C429 1.397 . S
C431 C432 1.384 . S
C431 H454 0.930 . S
C432 C431 1.384 . S
C432 C433 1.377 . S
C432 C435 1.481 . S
C433 C432 1.377 . S
C433 C434 1.389 . S
C433 H455 0.929 . S
C434 C430 1.397 . S
C434 C433 1.389 . S
C434 H456 0.931 . S
C435 C432 1.481 . S
C435 C436 1.387 . S
C435 C440 1.390 . S
C436 C435 1.387 . S
C436 C437 1.401 . S
C436 H457 0.930 . S
C437 C436 1.401 . S
C437 C438 1.376 . S
C437 C446 1.511 . S
C438 C437 1.376 . S
C438 C439 1.392 . S
C438 H459 0.931 . S
C439 C438 1.392 . S
C439 C440 1.361 . S
C439 C441 1.500 . S
C440 C435 1.390 . S
C440 C439 1.361 . S
C440 H458 0.931 . S
C441 C439 1.500 . S
C441 C442 1.371 . S
C441 C443 1.365 . S
C442 C441 1.371 . S
C442 C452 1.386 . S
C442 H460 0.931 . S
C443 C441 1.365 . S
C443 C444 1.409 . S
C443 H461 0.929 . S
C444 C443 1.409 . S
C444 C445 1.380 . S
C444 H462 0.930 . S
C445 C444 1.380 . S
C445 C452 1.357 . S
C446 C437 1.511 . S
C446 C447 1.341 . S
C446 C448 1.371 . S
C447 C446 1.341 . S
C447 C451 1.394 . S
C447 H463 0.930 . S
C448 C446 1.371 . S
C448 C449 1.392 . S
C448 H464 0.931 . S
C449 C448 1.392 . S
C449 C450 1.331 . S
C449 H467 0.932 . S
C450 C449 1.331 . S
C450 C451 1.336 . S
C451 C447 1.394 . S
C451 C450 1.336 . S
C451 H466 0.929 . S
C452 C442 1.386 . S
C452 C445 1.357 . S
C452 H465 0.928 . S
H453 C429 0.931 . S
H454 C431 0.930 . S
H455 C433 0.929 . S
H456 C434 0.931 . S
H457 C436 0.930 . S
H458 C440 0.931 . S
H459 C438 0.931 . S
H460 C442 0.931 . S
H461 C443 0.929 . S
H462 C444 0.930 . S
H463 C447 0.930 . S
H464 C448 0.931 . S
H465 C452 0.928 . S
H466 C451 0.929 . S
H467 C449 0.932 . S
C468 C469 1.386 . S
C468 C470 1.397 . S
C468 H492 0.931 . S
C469 C468 1.386 . S
C469 C473 1.397 . S
C470 C468 1.397 . S
C470 C471 1.384 . S
C470 H493 0.930 . S
C471 C470 1.384 . S
C471 C472 1.377 . S
C471 C474 1.481 . S
C472 C471 1.377 . S
C472 C473 1.389 . S
C472 H494 0.929 . S
C473 C469 1.397 . S
C473 C472 1.389 . S
C473 H495 0.931 . S
C474 C471 1.481 . S
C474 C475 1.387 . S
C474 C479 1.390 . S
C475 C474 1.387 . S
C475 C476 1.401 . S
C475 H496 0.930 . S
C476 C475 1.401 . S
C476 C477 1.376 . S
C476 C485 1.511 . S
C477 C476 1.376 . S
C477 C478 1.392 . S
C477 H498 0.931 . S
C478 C477 1.392 . S
C478 C479 1.361 . S
C478 C480 1.500 . S
C479 C474 1.390 . S
C479 C478 1.361 . S
C479 H497 0.931 . S
C480 C478 1.500 . S
C480 C481 1.371 . S
C480 C482 1.365 . S
C481 C480 1.371 . S
C481 C491 1.386 . S
C481 H499 0.931 . S
C482 C480 1.365 . S
C482 C483 1.409 . S
C482 H500 0.929 . S
C483 C482 1.409 . S
C483 C484 1.380 . S
C483 H501 0.930 . S
C484 C483 1.380 . S
C484 C491 1.357 . S
C485 C476 1.511 . S
C485 C486 1.341 . S
C485 C487 1.371 . S
C486 C485 1.341 . S
C486 C490 1.394 . S
C486 H502 0.930 . S
C487 C485 1.371 . S
C487 C488 1.392 . S
C487 H503 0.931 . S
C488 C487 1.392 . S
C488 C489 1.331 . S
C488 H506 0.932 . S
C489 C488 1.331 . S
C489 C490 1.336 . S
C490 C486 1.394 . S
C490 C489 1.336 . S
C490 H505 0.929 . S
C491 C481 1.386 . S
C491 C484 1.357 . S
C491 H504 0.928 . S
H492 C468 0.931 . S
H493 C470 0.930 . S
H494 C472 0.929 . S
H495 C473 0.931 . S
H496 C475 0.930 . S
H497 C479 0.931 . S
H498 C477 0.931 . S
H499 C481 0.931 . S
H500 C482 0.929 . S
H501 C483 0.930 . S
H502 C486 0.930 . S
H503 C487 0.931 . S
H504 C491 0.928 . S
H505 C490 0.929 . S
H506 C488 0.932 . S
C507 C508 1.386 . S
C507 C509 1.397 . S
C507 H531 0.931 . S
C508 C507 1.386 . S
C508 C512 1.397 . S
C509 C507 1.397 . S
C509 C510 1.384 . S
C509 H532 0.930 . S
C510 C509 1.384 . S
C510 C511 1.377 . S
C510 C513 1.481 . S
C511 C510 1.377 . S
C511 C512 1.389 . S
C511 H533 0.929 . S
C512 C508 1.397 . S
C512 C511 1.389 . S
C512 H534 0.931 . S
C513 C510 1.481 . S
C513 C514 1.387 . S
C513 C518 1.390 . S
C514 C513 1.387 . S
C514 C515 1.401 . S
C514 H535 0.930 . S
C515 C514 1.401 . S
C515 C516 1.376 . S
C515 C524 1.511 . S
C516 C515 1.376 . S
C516 C517 1.392 . S
C516 H537 0.931 . S
C517 C516 1.392 . S
C517 C518 1.361 . S
C517 C519 1.500 . S
C518 C513 1.390 . S
C518 C517 1.361 . S
C518 H536 0.931 . S
C519 C517 1.500 . S
C519 C520 1.371 . S
C519 C521 1.365 . S
C520 C519 1.371 . S
C520 C530 1.386 . S
C520 H538 0.931 1_556 S
C521 C519 1.365 . S
C521 C522 1.409 . S
C521 H539 0.929 . S
C522 C521 1.409 . S
C522 C523 1.380 . S
C522 H540 0.930 . S
C523 C522 1.380 . S
C523 C530 1.357 . S
C524 C515 1.511 . S
C524 C525 1.341 . S
C524 C526 1.371 1_556 S
C525 C524 1.341 . S
C525 C529 1.394 1_556 S
C525 H541 0.930 . S
C526 C524 1.371 1_554 S
C526 C527 1.392 . S
C526 H542 0.931 . S
C527 C526 1.392 . S
C527 C528 1.331 . S
C527 H545 0.932 . S
C528 C527 1.331 . S
C528 C529 1.336 . S
C529 C525 1.394 1_554 S
C529 C528 1.336 . S
C529 H544 0.929 . S
C530 C520 1.386 . S
C530 C523 1.357 . S
C530 H543 0.928 1_556 S
H531 C507 0.931 . S
H532 C509 0.930 . S
H533 C511 0.929 . S
H534 C512 0.931 . S
H535 C514 0.930 . S
H536 C518 0.931 . S
H537 C516 0.931 . S
H538 C520 0.931 1_554 S
H539 C521 0.929 . S
H540 C522 0.930 . S
H541 C525 0.930 . S
H542 C526 0.931 . S
H543 C530 0.928 1_554 S
H544 C529 0.929 . S
H545 C527 0.932 . S
C546 C547 1.386 . S
C546 C548 1.397 . S
C546 H570 0.931 . S
C547 C546 1.386 . S
C547 C551 1.397 . S
C548 C546 1.397 . S
C548 C549 1.384 . S
C548 H571 0.930 . S
C549 C548 1.384 . S
C549 C550 1.377 . S
C549 C552 1.481 . S
C550 C549 1.377 . S
C550 C551 1.389 . S
C550 H572 0.929 . S
C551 C547 1.397 . S
C551 C550 1.389 . S
C551 H573 0.931 . S
C552 C549 1.481 . S
C552 C553 1.387 . S
C552 C557 1.390 . S
C553 C552 1.387 . S
C553 C554 1.401 . S
C553 H574 0.930 . S
C554 C553 1.401 . S
C554 C555 1.376 . S
C554 C563 1.511 . S
C555 C554 1.376 . S
C555 C556 1.392 . S
C555 H576 0.931 . S
C556 C555 1.392 . S
C556 C557 1.361 . S
C556 C558 1.500 . S
C557 C552 1.390 . S
C557 C556 1.361 . S
C557 H575 0.931 . S
C558 C556 1.500 . S
C558 C559 1.371 . S
C558 C560 1.365 . S
C559 C558 1.371 . S
C559 C569 1.386 . S
C559 H577 0.931 . S
C560 C558 1.365 . S
C560 C561 1.409 . S
C560 H578 0.929 . S
C561 C560 1.409 . S
C561 C562 1.380 . S
C561 H579 0.930 . S
C562 C561 1.380 . S
C562 C569 1.357 . S
C563 C554 1.511 . S
C563 C564 1.341 . S
C563 C565 1.371 . S
C564 C563 1.341 . S
C564 C568 1.394 . S
C564 H580 0.930 . S
C565 C563 1.371 . S
C565 C566 1.392 . S
C565 H581 0.931 . S
C566 C565 1.392 . S
C566 C567 1.331 . S
C566 H584 0.932 . S
C567 C566 1.331 . S
C567 C568 1.336 . S
C568 C564 1.394 . S
C568 C567 1.336 . S
C568 H583 0.929 . S
C569 C559 1.386 . S
C569 C562 1.357 . S
C569 H582 0.928 . S
H570 C546 0.931 . S
H571 C548 0.930 . S
H572 C550 0.929 . S
H573 C551 0.931 . S
H574 C553 0.930 . S
H575 C557 0.931 . S
H576 C555 0.931 . S
H577 C559 0.931 . S
H578 C560 0.929 . S
H579 C561 0.930 . S
H580 C564 0.930 . S
H581 C565 0.931 . S
H582 C569 0.928 . S
H583 C568 0.929 . S
H584 C566 0.932 . S
C585 C586 1.386 . S
C585 C587 1.397 1_554 S
C585 H609 0.934 . S
C586 C585 1.386 . S
C586 C590 1.397 . S
C587 C585 1.397 1_556 S
C587 C588 1.382 1_556 S
C587 H610 0.930 . S
C588 C587 1.382 1_554 S
C588 C589 1.384 . S
C588 C591 1.476 1_554 S
C589 C588 1.384 . S
C589 C590 1.389 . S
C589 H611 0.929 . S
C590 C586 1.397 . S
C590 C589 1.389 . S
C590 H612 0.931 . S
C591 C588 1.476 1_556 S
C591 C592 1.387 . S
C591 C596 1.390 . S
C592 C591 1.387 . S
C592 C593 1.401 . S
C592 H613 0.930 . S
C593 C592 1.401 . S
C593 C594 1.376 . S
C593 C602 1.511 . S
C594 C593 1.376 . S
C594 C595 1.392 . S
C594 H615 0.931 . S
C595 C594 1.392 . S
C595 C596 1.361 . S
C595 C597 1.500 . S
C596 C591 1.390 . S
C596 C595 1.361 . S
C596 H614 0.909 1_556 S
C597 C595 1.500 . S
C597 C598 1.371 1_545 S
C597 C599 1.365 1_556 S
C598 C597 1.371 1_565 S
C598 C608 1.386 . S
C598 H616 0.931 . S
C599 C597 1.365 1_554 S
C599 C600 1.409 1_545 S
C599 H617 0.929 . S
C600 C599 1.409 1_565 S
C600 C601 1.380 1_554 S
C600 H618 0.930 . S
C601 C600 1.380 1_556 S
C601 C608 1.357 . S
C602 C593 1.511 . S
C602 C603 1.341 . S
C602 C604 1.371 . S
C603 C602 1.341 . S
C603 C607 1.394 . S
C603 H619 0.930 . S
C604 C602 1.371 . S
C604 C605 1.392 . S
C604 H620 0.931 1_545 S
C605 C604 1.392 . S
C605 C606 1.331 . S
C605 H623 0.932 1_545 S
C606 C605 1.331 . S
C606 C607 1.336 . S
C607 C603 1.394 . S
C607 C606 1.336 . S
C607 H622 0.929 . S
C608 C598 1.386 . S
C608 C601 1.357 . S
C608 H621 0.928 . S
H609 C585 0.934 . S
H610 C587 0.930 . S
H611 C589 0.929 . S
H612 C590 0.931 . S
H613 C592 0.930 . S
H614 C596 0.909 1_554 S
H615 C594 0.931 . S
H616 C598 0.931 . S
H617 C599 0.929 . S
H618 C600 0.930 . S
H619 C603 0.930 . S
H620 C604 0.931 1_565 S
H621 C608 0.928 . S
H622 C607 0.929 . S
H623 C605 0.932 1_565 S
C624 O625 1.160 1_554 S
C624 O631 1.185 . S
O625 C624 1.160 1_556 S
O626 Zn627 1.899 1_556 S
O626 C634 1.284 . S
Zn627 O626 1.899 1_554 S
Zn627 O628 2.032 . S
Zn627 O631 2.086 . S
Zn627 O636 1.977 . S
O628 Zn627 2.032 . S
O628 C632 1.278 . S
C629 O630 1.203 . S
C629 O636 1.267 . S
O630 C629 1.203 . S
O631 C624 1.185 . S
O631 Zn627 2.086 . S
C632 O628 1.278 . S
C632 O633 1.211 . S
O633 C632 1.211 . S
C634 O626 1.284 . S
C634 O635 1.273 . S
O635 C634 1.273 . S
O636 Zn627 1.977 . S
O636 C629 1.267 . S
C637 O638 1.160 . S
C637 O644 1.185 . S
O638 C637 1.160 . S
O639 Zn640 1.899 . S
O639 C647 1.284 . S
Zn640 O639 1.899 . S
Zn640 O641 2.032 . S
Zn640 O644 2.086 . S
Zn640 O649 1.977 . S
O641 Zn640 2.032 . S
O641 C645 1.278 . S
C642 O643 1.203 . S
C642 O649 1.267 . S
O643 C642 1.203 . S
O644 C637 1.185 . S
O644 Zn640 2.086 . S
C645 O641 1.278 . S
C645 O646 1.211 . S
O646 C645 1.211 . S
C647 O639 1.284 . S
C647 O648 1.273 . S
O648 C647 1.273 . S
O649 Zn640 1.977 . S
O649 C642 1.267 . S
C650 O651 1.160 1_554 S
C650 O657 1.185 . S
O651 C650 1.160 1_556 S
O652 Zn653 1.899 1_556 S
O652 C660 1.284 . S
Zn653 O652 1.899 1_554 S
Zn653 O654 2.032 1_554 S
Zn653 O657 2.086 . S
Zn653 O662 1.977 . S
O654 Zn653 2.032 1_556 S
O654 C658 1.278 . S
C655 O656 1.203 . S
C655 O662 1.267 . S
O656 C655 1.203 . S
O657 C650 1.185 . S
O657 Zn653 2.086 . S
C658 O654 1.278 . S
C658 O659 1.211 1_556 S
O659 C658 1.211 1_554 S
C660 O652 1.284 . S
C660 O661 1.273 . S
O661 C660 1.273 . S
O662 Zn653 1.977 . S
O662 C655 1.267 . S
C663 O664 1.160 . S
C663 O670 1.185 . S
O664 C663 1.160 . S
O665 Zn666 1.899 . S
O665 C673 1.284 . S
Zn666 O665 1.899 . S
Zn666 O667 2.032 1_545 S
Zn666 O670 2.086 . S
Zn666 O675 1.977 . S
O667 Zn666 2.032 1_565 S
O667 C671 1.278 . S
C668 O669 1.203 . S
C668 O675 1.267 . S
O669 C668 1.203 . S
O670 C663 1.185 . S
O670 Zn666 2.086 . S
C671 O667 1.278 . S
C671 O672 1.211 . S
O672 C671 1.211 . S
C673 O665 1.284 . S
C673 O674 1.273 1_545 S
O674 C673 1.273 1_565 S
O675 Zn666 1.977 . S
O675 C668 1.267 . S
C676 O677 1.160 . S
C676 O683 1.185 . S
O677 C676 1.160 . S
O678 Zn679 1.899 . S
O678 C686 1.284 . S
Zn679 O678 1.899 . S
Zn679 O680 2.032 . S
Zn679 O683 2.086 . S
Zn679 O688 1.977 . S
O680 Zn679 2.032 . S
O680 C684 1.278 . S
C681 O682 1.203 . S
C681 O688 1.267 . S
O682 C681 1.203 . S
O683 C676 1.185 . S
O683 Zn679 2.086 . S
C684 O680 1.278 . S
C684 O685 1.211 . S
O685 C684 1.211 . S
C686 O678 1.284 . S
C686 O687 1.273 . S
O687 C686 1.273 . S
O688 Zn679 1.977 . S
O688 C681 1.267 . S
C689 O690 1.160 . S
C689 O696 1.185 . S
O690 C689 1.160 . S
O691 Zn692 1.899 . S
O691 C699 1.284 . S
Zn692 O691 1.899 . S
Zn692 O693 2.032 . S
Zn692 O696 2.086 . S
Zn692 O701 1.977 . S
O693 Zn692 2.032 . S
O693 C697 1.278 . S
C694 O695 1.203 . S
C694 O701 1.267 . S
O695 C694 1.203 . S
O696 C689 1.185 . S
O696 Zn692 2.086 . S
C697 O693 1.278 . S
C697 O698 1.211 . S
O698 C697 1.211 . S
C699 O691 1.284 . S
C699 O700 1.273 . S
O700 C699 1.273 . S
O701 Zn692 1.977 . S
O701 C694 1.267 . S
C702 O703 1.160 . S
C702 O709 1.185 . S
O703 C702 1.160 . S
O704 Zn705 1.899 . S
O704 C712 1.284 . S
Zn705 O704 1.899 . S
Zn705 O706 2.032 . S
Zn705 O709 2.086 . S
Zn705 O714 1.977 . S
O706 Zn705 2.032 . S
O706 C710 1.278 . S
C707 O708 1.203 . S
C707 O714 1.267 . S
O708 C707 1.203 . S
O709 C702 1.185 . S
O709 Zn705 2.086 . S
C710 O706 1.278 . S
C710 O711 1.211 . S
O711 C710 1.211 . S
C712 O704 1.284 . S
C712 O713 1.273 . S
O713 C712 1.273 . S
O714 Zn705 1.977 . S
O714 C707 1.267 . S
C715 O716 1.160 . S
C715 O722 1.185 . S
O716 C715 1.160 . S
O717 Zn718 1.899 . S
O717 C725 1.284 1_565 S
Zn718 O717 1.899 . S
Zn718 O719 2.032 1_565 S
Zn718 O722 2.086 . S
Zn718 O727 1.977 . S
O719 Zn718 2.032 1_545 S
O719 C723 1.278 . S
C720 O721 1.203 1_565 S
C720 O727 1.267 . S
O721 C720 1.203 1_545 S
O722 C715 1.185 . S
O722 Zn718 2.086 . S
C723 O719 1.278 . S
C723 O724 1.211 . S
O724 C723 1.211 . S
C725 O717 1.284 1_545 S
C725 O726 1.273 . S
O726 C725 1.273 . S
O727 Zn718 1.977 . S
O727 C720 1.267 . S
C728 O729 1.160 1_455 S
C728 O735 1.185 . S
O729 C728 1.160 1_655 S
O730 Zn731 1.899 1_655 S
O730 C738 1.284 . S
Zn731 O730 1.899 1_455 S
Zn731 O732 2.032 1_455 S
Zn731 O735 2.086 . S
Zn731 O740 1.977 . S
O732 Zn731 2.032 1_655 S
O732 C736 1.277 1_655 S
C733 O734 1.203 . S
C733 O740 1.267 . S
O734 C733 1.203 . S
O735 C728 1.185 . S
O735 Zn731 2.086 . S
C736 O732 1.277 1_455 S
C736 O737 1.217 . S
O737 C736 1.217 . S
C738 O730 1.284 . S
C738 O739 1.273 . S
O739 C738 1.273 . S
O740 Zn731 1.977 . S
O740 C733 1.267 . S
C741 O742 1.160 . S
C741 O748 1.185 . S
O742 C741 1.160 . S
O743 Zn744 1.899 . S
O743 C751 1.284 . S
Zn744 O743 1.899 . S
Zn744 O745 2.032 . S
Zn744 O748 2.086 . S
Zn744 O753 1.977 . S
O745 Zn744 2.032 . S
O745 C749 1.278 . S
C746 O747 1.203 . S
C746 O753 1.267 . S
O747 C746 1.203 . S
O748 C741 1.185 . S
O748 Zn744 2.086 . S
C749 O745 1.278 . S
C749 O750 1.211 . S
O750 C749 1.211 . S
C751 O743 1.284 . S
C751 O752 1.273 . S
O752 C751 1.273 . S
O753 Zn744 1.977 . S
O753 C746 1.267 . S
C754 O755 1.160 1_455 S
C754 O761 1.185 . S
O755 C754 1.160 1_655 S
O756 Zn757 1.899 1_655 S
O756 C764 1.284 . S
Zn757 O756 1.899 1_455 S
Zn757 O758 2.032 1_455 S
Zn757 O761 2.086 . S
Zn757 O766 1.977 . S
O758 Zn757 2.032 1_655 S
O758 C762 1.278 . S
C759 O760 1.203 . S
C759 O766 1.267 . S
O760 C759 1.203 . S
O761 C754 1.185 . S
O761 Zn757 2.086 . S
C762 O758 1.278 . S
C762 O763 1.211 1_655 S
O763 C762 1.211 1_455 S
C764 O756 1.284 . S
C764 O765 1.273 . S
O765 C764 1.273 . S
O766 Zn757 1.977 . S
O766 C759 1.267 . S
C767 O768 1.160 . S
C767 O774 1.185 . S
O768 C767 1.160 . S
O769 Zn770 1.899 . S
O769 C777 1.284 . S
Zn770 O769 1.899 . S
Zn770 O771 2.032 . S
Zn770 O774 2.086 . S
Zn770 O779 1.977 . S
O771 Zn770 2.032 . S
O771 C775 1.278 . S
C772 O773 1.203 . S
C772 O779 1.267 . S
O773 C772 1.203 . S
O774 C767 1.185 . S
O774 Zn770 2.086 . S
C775 O771 1.278 . S
C775 O776 1.211 . S
O776 C775 1.211 . S
C777 O769 1.284 . S
C777 O778 1.273 . S
O778 C777 1.273 . S
O779 Zn770 1.977 . S
O779 C772 1.267 . S
C780 C781 1.363 . S
C780 C786 1.379 . S
C780 N788 1.356 . S
C781 C780 1.363 . S
C781 C787 1.363 . S
C782 C783 1.363 . S
C782 C787 1.379 . S
C782 N789 1.356 . S
C783 C782 1.363 . S
C783 C786 1.363 . S
N784 C786 1.356 . S
N784 H796 0.984 . S
N784 H797 0.985 . S
N785 C787 1.356 . S
N785 H790 0.984 . S
N785 H791 0.985 . S
C786 C780 1.379 . S
C786 C783 1.363 . S
C786 N784 1.356 . S
C787 C781 1.363 . S
C787 C782 1.379 . S
C787 N785 1.356 . S
N788 C780 1.356 . S
N788 H794 0.984 . S
N788 H795 0.984 . S
N789 C782 1.356 . S
N789 H792 0.984 . S
N789 H793 0.985 . S
H790 N785 0.984 . S
H791 N785 0.985 . S
H792 N789 0.984 . S
H793 N789 0.985 . S
H794 N788 0.984 . S
H795 N788 0.984 . S
H796 N784 0.984 . S
H797 N784 0.985 . S
C798 C799 1.363 . S
C798 C804 1.379 . S
C798 N806 1.356 . S
C799 C798 1.363 . S
C799 C805 1.363 . S
C800 C801 1.363 . S
C800 C805 1.379 . S
C800 N807 1.356 . S
C801 C800 1.363 . S
C801 C804 1.363 . S
N802 C804 1.356 . S
N802 H814 0.984 . S
N802 H815 0.985 . S
N803 C805 1.356 . S
N803 H808 0.984 . S
N803 H809 0.985 . S
C804 C798 1.379 . S
C804 C801 1.363 . S
C804 N802 1.356 . S
C805 C799 1.363 . S
C805 C800 1.379 . S
C805 N803 1.356 . S
N806 C798 1.356 . S
N806 H812 0.984 . S
N806 H813 0.984 . S
N807 C800 1.356 . S
N807 H810 0.984 . S
N807 H811 0.985 . S
H808 N803 0.984 . S
H809 N803 0.985 . S
H810 N807 0.984 . S
H811 N807 0.985 . S
H812 N806 0.984 . S
H813 N806 0.984 . S
H814 N802 0.984 . S
H815 N802 0.985 . S
C816 C817 1.363 . S
C816 C822 1.379 . S
C816 N824 1.356 . S
C817 C816 1.363 . S
C817 C823 1.363 . S
C818 C819 1.363 . S
C818 C823 1.379 . S
C818 N825 1.356 . S
C819 C818 1.363 . S
C819 C822 1.363 . S
N820 C822 1.356 . S
N820 H832 0.984 . S
N820 H833 0.985 . S
N821 C823 1.356 . S
N821 H826 0.984 . S
N821 H827 0.985 . S
C822 C816 1.379 . S
C822 C819 1.363 . S
C822 N820 1.356 . S
C823 C817 1.363 . S
C823 C818 1.379 . S
C823 N821 1.356 . S
N824 C816 1.356 . S
N824 H830 0.984 . S
N824 H831 0.984 . S
N825 C818 1.356 . S
N825 H828 0.984 . S
N825 H829 0.985 . S
H826 N821 0.984 . S
H827 N821 0.985 . S
H828 N825 0.984 . S
H829 N825 0.985 . S
H830 N824 0.984 . S
H831 N824 0.984 . S
H832 N820 0.984 . S
H833 N820 0.985 . S
C834 C835 1.363 . S
C834 C840 1.379 . S
C834 N842 1.356 . S
C835 C834 1.363 . S
C835 C841 1.363 1_565 S
C836 C837 1.363 . S
C836 C841 1.379 . S
C836 N843 1.356 . S
C837 C836 1.363 . S
C837 C840 1.363 1_545 S
N838 C840 1.356 . S
N838 H850 0.984 . S
N838 H851 0.985 . S
N839 C841 1.356 . S
N839 H844 0.984 . S
N839 H845 0.985 . S
C840 C834 1.379 . S
C840 C837 1.363 1_565 S
C840 N838 1.356 . S
C841 C835 1.363 1_545 S
C841 C836 1.379 . S
C841 N839 1.356 . S
N842 C834 1.356 . S
N842 H848 0.984 . S
N842 H849 0.984 . S
N843 C836 1.356 . S
N843 H846 0.984 . S
N843 H847 0.985 . S
H844 N839 0.984 . S
H845 N839 0.985 . S
H846 N843 0.984 . S
H847 N843 0.985 . S
H848 N842 0.984 . S
H849 N842 0.984 . S
H850 N838 0.984 . S
H851 N838 0.985 . S
C852 C853 1.363 . S
C852 C858 1.379 . S
C852 N860 1.356 . S
C853 C852 1.363 . S
C853 C859 1.363 . S
C854 C855 1.363 . S
C854 C859 1.379 . S
C854 N861 1.356 . S
C855 C854 1.363 . S
C855 C858 1.363 . S
N856 C858 1.356 . S
N856 H868 0.984 . S
N856 H869 0.985 . S
N857 C859 1.356 . S
N857 H862 0.984 . S
N857 H863 0.985 . S
C858 C852 1.379 . S
C858 C855 1.363 . S
C858 N856 1.356 . S
C859 C853 1.363 . S
C859 C854 1.379 . S
C859 N857 1.356 . S
N860 C852 1.356 . S
N860 H866 0.984 . S
N860 H867 0.984 . S
N861 C854 1.356 . S
N861 H864 0.984 . S
N861 H865 0.985 . S
H862 N857 0.984 . S
H863 N857 0.985 . S
H864 N861 0.984 . S
H865 N861 0.985 . S
H866 N860 0.984 . S
H867 N860 0.984 . S
H868 N856 0.984 . S
H869 N856 0.985 . S
C870 C871 1.363 . S
C870 C876 1.379 . S
C870 N878 1.356 . S
C871 C870 1.363 . S
C871 C877 1.363 . S
C872 C873 1.363 . S
C872 C877 1.379 . S
C872 N879 1.356 . S
C873 C872 1.363 . S
C873 C876 1.363 . S
N874 C876 1.356 . S
N874 H886 0.984 . S
N874 H887 0.985 . S
N875 C877 1.356 . S
N875 H880 0.984 . S
N875 H881 0.985 . S
C876 C870 1.379 . S
C876 C873 1.363 . S
C876 N874 1.356 . S
C877 C871 1.363 . S
C877 C872 1.379 . S
C877 N875 1.356 . S
N878 C870 1.356 . S
N878 H884 0.984 . S
N878 H885 0.984 . S
N879 C872 1.356 . S
N879 H882 0.984 . S
N879 H883 0.985 . S
H880 N875 0.984 . S
H881 N875 0.985 . S
H882 N879 0.984 . S
H883 N879 0.985 . S
H884 N878 0.984 . S
H885 N878 0.984 . S
H886 N874 0.984 . S
H887 N874 0.985 . S
C888 C889 1.363 . S
C888 C894 1.379 . S
C888 N896 1.356 . S
C889 C888 1.363 . S
C889 C895 1.363 . S
C890 C891 1.363 . S
C890 C895 1.379 . S
C890 N897 1.356 . S
C891 C890 1.363 . S
C891 C894 1.363 . S
N892 C894 1.356 . S
N892 H904 0.984 . S
N892 H905 0.985 . S
N893 C895 1.356 . S
N893 H898 0.984 . S
N893 H899 0.985 . S
C894 C888 1.379 . S
C894 C891 1.363 . S
C894 N892 1.356 . S
C895 C889 1.363 . S
C895 C890 1.379 . S
C895 N893 1.356 . S
N896 C888 1.356 . S
N896 H902 0.984 . S
N896 H903 0.984 . S
N897 C890 1.356 . S
N897 H900 0.984 . S
N897 H901 0.985 . S
H898 N893 0.984 . S
H899 N893 0.985 . S
H900 N897 0.984 . S
H901 N897 0.985 . S
H902 N896 0.984 . S
H903 N896 0.984 . S
H904 N892 0.984 . S
H905 N892 0.985 . S
C906 C907 1.363 1_545 S
C906 C912 1.379 . S
C906 N914 1.356 . S
C907 C906 1.363 1_565 S
C907 C913 1.363 . S
C908 C909 1.363 . S
C908 C913 1.379 . S
C908 N915 1.356 . S
C909 C908 1.363 . S
C909 C912 1.363 1_565 S
N910 C912 1.356 . S
N910 H922 0.984 . S
N910 H923 0.985 . S
N911 C913 1.356 . S
N911 H916 0.984 . S
N911 H917 0.985 . S
C912 C906 1.379 . S
C912 C909 1.363 1_545 S
C912 N910 1.356 . S
C913 C907 1.363 . S
C913 C908 1.379 . S
C913 N911 1.356 . S
N914 C906 1.356 . S
N914 H920 0.984 . S
N914 H921 0.984 . S
N915 C908 1.356 . S
N915 H918 0.984 . S
N915 H919 0.985 . S
H916 N911 0.984 . S
H917 N911 0.985 . S
H918 N915 0.984 . S
H919 N915 0.985 . S
H920 N914 0.984 . S
H921 N914 0.984 . S
H922 N910 0.984 . S
H923 N910 0.985 . S
C924 C925 1.363 . S
C924 C930 1.379 . S
C924 N932 1.356 . S
C925 C924 1.363 . S
C925 C931 1.363 . S
C926 C927 1.363 . S
C926 C931 1.379 . S
C926 N933 1.356 . S
C927 C926 1.363 . S
C927 C930 1.363 . S
N928 C930 1.356 . S
N928 H940 0.984 . S
N928 H941 0.985 . S
N929 C931 1.356 . S
N929 H934 0.984 . S
N929 H935 0.985 . S
C930 C924 1.379 . S
C930 C927 1.363 . S
C930 N928 1.356 . S
C931 C925 1.363 . S
C931 C926 1.379 . S
C931 N929 1.356 . S
N932 C924 1.356 . S
N932 H938 0.984 . S
N932 H939 0.984 . S
N933 C926 1.356 . S
N933 H936 0.984 . S
N933 H937 0.985 . S
H934 N929 0.984 . S
H935 N929 0.985 . S
H936 N933 0.984 . S
H937 N933 0.985 . S
H938 N932 0.984 . S
H939 N932 0.984 . S
H940 N928 0.984 . S
H941 N928 0.985 . S
C942 C943 1.363 . S
C942 C948 1.379 . S
C942 N950 1.356 . S
C943 C942 1.363 . S
C943 C949 1.363 . S
C944 C945 1.363 . S
C944 C949 1.379 . S
C944 N951 1.356 . S
C945 C944 1.363 . S
C945 C948 1.363 . S
N946 C948 1.356 . S
N946 H958 0.984 . S
N946 H959 0.985 . S
N947 C949 1.356 . S
N947 H952 0.984 . S
N947 H953 0.985 . S
C948 C942 1.379 . S
C948 C945 1.363 . S
C948 N946 1.356 . S
C949 C943 1.363 . S
C949 C944 1.379 . S
C949 N947 1.356 . S
N950 C942 1.356 . S
N950 H956 0.984 . S
N950 H957 0.984 . S
N951 C944 1.356 . S
N951 H954 0.984 . S
N951 H955 0.985 . S
H952 N947 0.984 . S
H953 N947 0.985 . S
H954 N951 0.984 . S
H955 N951 0.985 . S
H956 N950 0.984 . S
H957 N950 0.984 . S
H958 N946 0.984 . S
H959 N946 0.985 . S
C960 C961 1.363 . S
C960 C966 1.379 . S
C960 N968 1.356 . S
C961 C960 1.363 . S
C961 C967 1.363 . S
C962 C963 1.363 . S
C962 C967 1.379 . S
C962 N969 1.356 . S
C963 C962 1.363 . S
C963 C966 1.363 . S
N964 C966 1.356 . S
N964 H976 0.984 . S
N964 H977 0.985 . S
N965 C967 1.356 . S
N965 H970 0.984 . S
N965 H971 0.985 . S
C966 C960 1.379 . S
C966 C963 1.363 . S
C966 N964 1.356 . S
C967 C961 1.363 . S
C967 C962 1.379 . S
C967 N965 1.356 . S
N968 C960 1.356 . S
N968 H974 0.984 . S
N968 H975 0.984 . S
N969 C962 1.356 . S
N969 H972 0.984 . S
N969 H973 0.985 . S
H970 N965 0.984 . S
H971 N965 0.985 . S
H972 N969 0.984 . S
H973 N969 0.985 . S
H974 N968 0.984 . S
H975 N968 0.984 . S
H976 N964 0.984 . S
H977 N964 0.985 . S
C978 C979 1.363 . S
C978 C984 1.379 . S
C978 N986 1.356 . S
C979 C978 1.363 . S
C979 C985 1.363 . S
C980 C981 1.363 . S
C980 C985 1.379 . S
C980 N987 1.356 . S
C981 C980 1.363 . S
C981 C984 1.363 . S
N982 C984 1.356 . S
N982 H994 0.984 . S
N982 H995 0.985 . S
N983 C985 1.356 . S
N983 H988 0.984 . S
N983 H989 0.985 . S
C984 C978 1.379 . S
C984 C981 1.363 . S
C984 N982 1.356 . S
C985 C979 1.363 . S
C985 C980 1.379 . S
C985 N983 1.356 . S
N986 C978 1.356 . S
N986 H992 0.984 . S
N986 H993 0.984 . S
N987 C980 1.356 . S
N987 H990 0.984 . S
N987 H991 0.985 . S
H988 N983 0.984 . S
H989 N983 0.985 . S
H990 N987 0.984 . S
H991 N987 0.985 . S
H992 N986 0.984 . S
H993 N986 0.984 . S
H994 N982 0.984 . S
H995 N982 0.985 . S
C996 C997 1.363 . S
C996 C1002 1.379 . S
C996 N1004 1.356 . S
C997 C996 1.363 . S
C997 C1003 1.363 . S
C998 C999 1.363 . S
C998 C1003 1.379 . S
C998 N1005 1.356 . S
C999 C998 1.363 . S
C999 C1002 1.363 . S
N1000 C1002 1.356 . S
N1000 H1012 0.984 . S
N1000 H1013 0.985 . S
N1001 C1003 1.356 . S
N1001 H1006 0.984 . S
N1001 H1007 0.985 . S
C1002 C996 1.379 . S
C1002 C999 1.363 . S
C1002 N1000 1.356 . S
C1003 C997 1.363 . S
C1003 C998 1.379 . S
C1003 N1001 1.356 . S
N1004 C996 1.356 . S
N1004 H1010 0.984 . S
N1004 H1011 0.984 . S
N1005 C998 1.356 . S
N1005 H1008 0.984 . S
N1005 H1009 0.985 . S
H1006 N1001 0.984 . S
H1007 N1001 0.985 . S
H1008 N1005 0.984 . S
H1009 N1005 0.985 . S
H1010 N1004 0.984 . S
H1011 N1004 0.984 . S
H1012 N1000 0.984 . S
H1013 N1000 0.985 . S
C1014 C1015 1.363 . S
C1014 C1020 1.379 . S
C1014 N1022 1.356 . S
C1015 C1014 1.363 . S
C1015 C1021 1.363 . S
C1016 C1017 1.363 . S
C1016 C1021 1.379 . S
C1016 N1023 1.356 . S
C1017 C1016 1.363 . S
C1017 C1020 1.363 . S
N1018 C1020 1.356 . S
N1018 H1030 0.984 . S
N1018 H1031 0.985 . S
N1019 C1021 1.356 . S
N1019 H1024 0.984 . S
N1019 H1025 0.985 . S
C1020 C1014 1.379 . S
C1020 C1017 1.363 . S
C1020 N1018 1.356 . S
C1021 C1015 1.363 . S
C1021 C1016 1.379 . S
C1021 N1019 1.356 . S
N1022 C1014 1.356 . S
N1022 H1028 0.984 . S
N1022 H1029 0.984 . S
N1023 C1016 1.356 . S
N1023 H1026 0.984 . S
N1023 H1027 0.985 . S
H1024 N1019 0.984 . S
H1025 N1019 0.985 . S
H1026 N1023 0.984 . S
H1027 N1023 0.985 . S
H1028 N1022 0.984 . S
H1029 N1022 0.984 . S
H1030 N1018 0.984 . S
H1031 N1018 0.985 . S
C1032 C1033 1.363 . S
C1032 C1038 1.379 . S
C1032 N1040 1.356 . S
C1033 C1032 1.363 . S
C1033 C1039 1.363 . S
C1034 C1035 1.363 . S
C1034 C1039 1.379 . S
C1034 N1041 1.356 . S
C1035 C1034 1.363 . S
C1035 C1038 1.363 . S
N1036 C1038 1.356 . S
N1036 H1048 0.984 . S
N1036 H1049 0.985 . S
N1037 C1039 1.356 . S
N1037 H1042 0.984 . S
N1037 H1043 0.985 . S
C1038 C1032 1.379 . S
C1038 C1035 1.363 . S
C1038 N1036 1.356 . S
C1039 C1033 1.363 . S
C1039 C1034 1.379 . S
C1039 N1037 1.356 . S
N1040 C1032 1.356 . S
N1040 H1046 0.984 . S
N1040 H1047 0.984 . S
N1041 C1034 1.356 . S
N1041 H1044 0.984 . S
N1041 H1045 0.985 . S
H1042 N1037 0.984 . S
H1043 N1037 0.985 . S
H1044 N1041 0.984 . S
H1045 N1041 0.985 . S
H1046 N1040 0.984 . S
H1047 N1040 0.984 . S
H1048 N1036 0.984 . S
H1049 N1036 0.985 . S
C1050 C1051 1.363 . S
C1050 C1056 1.379 . S
C1050 N1058 1.356 . S
C1051 C1050 1.363 . S
C1051 C1057 1.363 1_655 S
C1052 C1053 1.363 1_455 S
C1052 C1057 1.379 . S
C1052 N1059 1.356 . S
C1053 C1052 1.363 1_655 S
C1053 C1056 1.363 . S
N1054 C1056 1.356 . S
N1054 H1066 0.984 . S
N1054 H1067 0.985 . S
N1055 C1057 1.356 . S
N1055 H1060 0.984 . S
N1055 H1061 0.985 . S
C1056 C1050 1.379 . S
C1056 C1053 1.363 . S
C1056 N1054 1.356 . S
C1057 C1051 1.363 1_455 S
C1057 C1052 1.379 . S
C1057 N1055 1.356 . S
N1058 C1050 1.356 . S
N1058 H1064 0.984 . S
N1058 H1065 0.984 . S
N1059 C1052 1.356 . S
N1059 H1062 0.984 . S
N1059 H1063 0.985 . S
H1060 N1055 0.984 . S
H1061 N1055 0.985 . S
H1062 N1059 0.984 . S
H1063 N1059 0.985 . S
H1064 N1058 0.984 . S
H1065 N1058 0.984 . S
H1066 N1054 0.984 . S
H1067 N1054 0.985 . S
C1068 C1069 1.363 . S
C1068 C1074 1.379 . S
C1068 N1076 1.356 . S
C1069 C1068 1.363 . S
C1069 C1075 1.363 . S
C1070 C1071 1.363 . S
C1070 C1075 1.379 . S
C1070 N1077 1.356 . S
C1071 C1070 1.363 . S
C1071 C1074 1.363 . S
N1072 C1074 1.356 . S
N1072 H1084 0.984 . S
N1072 H1085 0.985 . S
N1073 C1075 1.356 . S
N1073 H1078 0.984 . S
N1073 H1079 0.985 . S
C1074 C1068 1.379 . S
C1074 C1071 1.363 . S
C1074 N1072 1.356 . S
C1075 C1069 1.363 . S
C1075 C1070 1.379 . S
C1075 N1073 1.356 . S
N1076 C1068 1.356 . S
N1076 H1082 0.984 . S
N1076 H1083 0.984 . S
N1077 C1070 1.356 . S
N1077 H1080 0.984 . S
N1077 H1081 0.985 . S
H1078 N1073 0.984 . S
H1079 N1073 0.985 . S
H1080 N1077 0.984 . S
H1081 N1077 0.985 . S
H1082 N1076 0.984 . S
H1083 N1076 0.984 . S
H1084 N1072 0.984 . S
H1085 N1072 0.985 . S
C1086 C1087 1.363 . S
C1086 C1092 1.379 . S
C1086 N1094 1.356 . S
C1087 C1086 1.363 . S
C1087 C1093 1.363 . S
C1088 C1089 1.363 . S
C1088 C1093 1.379 . S
C1088 N1095 1.356 . S
C1089 C1088 1.363 . S
C1089 C1092 1.363 . S
N1090 C1092 1.356 . S
N1090 H1102 0.984 . S
N1090 H1103 0.985 . S
N1091 C1093 1.356 . S
N1091 H1096 0.984 . S
N1091 H1097 0.985 . S
C1092 C1086 1.379 . S
C1092 C1089 1.363 . S
C1092 N1090 1.356 . S
C1093 C1087 1.363 . S
C1093 C1088 1.379 . S
C1093 N1091 1.356 . S
N1094 C1086 1.356 . S
N1094 H1100 0.984 . S
N1094 H1101 0.984 . S
N1095 C1088 1.356 . S
N1095 H1098 0.984 . S
N1095 H1099 0.985 . S
H1096 N1091 0.984 . S
H1097 N1091 0.985 . S
H1098 N1095 0.984 . S
H1099 N1095 0.985 . S
H1100 N1094 0.984 . S
H1101 N1094 0.984 . S
H1102 N1090 0.984 . S
H1103 N1090 0.985 . S
C1104 C1105 1.363 1_554 S
C1104 C1110 1.379 . S
C1104 N1112 1.356 . S
C1105 C1104 1.363 1_556 S
C1105 C1111 1.363 . S
C1106 C1107 1.391 . S
C1106 C1111 1.379 . S
C1106 N1113 1.356 . S
C1107 C1106 1.391 . S
C1107 C1110 1.341 1_556 S
N1108 C1110 1.356 . S
N1108 H1120 0.984 . S
N1108 H1121 0.985 . S
N1109 C1111 1.356 . S
N1109 H1114 0.984 . S
N1109 H1115 0.985 . S
C1110 C1104 1.379 . S
C1110 C1107 1.341 1_554 S
C1110 N1108 1.356 . S
C1111 C1105 1.363 . S
C1111 C1106 1.379 . S
C1111 N1109 1.356 . S
N1112 C1104 1.356 . S
N1112 H1118 0.984 . S
N1112 H1119 0.984 . S
N1113 C1106 1.356 . S
N1113 H1116 0.984 . S
N1113 H1117 0.985 . S
H1114 N1109 0.984 . S
H1115 N1109 0.985 . S
H1116 N1113 0.984 . S
H1117 N1113 0.985 . S
H1118 N1112 0.984 . S
H1119 N1112 0.984 . S
H1120 N1108 0.984 . S
H1121 N1108 0.985 . S
C1122 C1123 1.363 . S
C1122 C1128 1.379 . S
C1122 N1130 1.356 . S
C1123 C1122 1.363 . S
C1123 C1129 1.363 . S
C1124 C1125 1.363 . S
C1124 C1129 1.379 . S
C1124 N1131 1.356 . S
C1125 C1124 1.363 . S
C1125 C1128 1.363 . S
N1126 C1128 1.356 . S
N1126 H1138 0.984 . S
N1126 H1139 0.985 . S
N1127 C1129 1.356 . S
N1127 H1132 0.984 . S
N1127 H1133 0.985 . S
C1128 C1122 1.379 . S
C1128 C1125 1.363 . S
C1128 N1126 1.356 . S
C1129 C1123 1.363 . S
C1129 C1124 1.379 . S
C1129 N1127 1.356 . S
N1130 C1122 1.356 . S
N1130 H1136 0.984 . S
N1130 H1137 0.984 . S
N1131 C1124 1.356 . S
N1131 H1134 0.984 . S
N1131 H1135 0.985 . S
H1132 N1127 0.984 . S
H1133 N1127 0.985 . S
H1134 N1131 0.984 . S
H1135 N1131 0.985 . S
H1136 N1130 0.984 . S
H1137 N1130 0.984 . S
H1138 N1126 0.984 . S
H1139 N1126 0.985 . S
C1140 C1141 1.363 . S
C1140 C1146 1.379 . S
C1140 N1148 1.356 . S
C1141 C1140 1.363 . S
C1141 C1147 1.363 . S
C1142 C1143 1.363 . S
C1142 C1147 1.379 . S
C1142 N1149 1.356 . S
C1143 C1142 1.363 . S
C1143 C1146 1.363 . S
N1144 C1146 1.356 . S
N1144 H1156 0.984 . S
N1144 H1157 0.985 . S
N1145 C1147 1.356 . S
N1145 H1150 0.984 . S
N1145 H1151 0.985 . S
C1146 C1140 1.379 . S
C1146 C1143 1.363 . S
C1146 N1144 1.356 . S
C1147 C1141 1.363 . S
C1147 C1142 1.379 . S
C1147 N1145 1.356 . S
N1148 C1140 1.356 . S
N1148 H1154 0.984 . S
N1148 H1155 0.984 . S
N1149 C1142 1.356 . S
N1149 H1152 0.984 . S
N1149 H1153 0.985 . S
H1150 N1145 0.984 . S
H1151 N1145 0.985 . S
H1152 N1149 0.984 . S
H1153 N1149 0.985 . S
H1154 N1148 0.984 . S
H1155 N1148 0.984 . S
H1156 N1144 0.984 . S
H1157 N1144 0.985 . S
C1158 C1159 1.363 . S
C1158 C1164 1.379 . S
C1158 N1166 1.356 . S
C1159 C1158 1.363 . S
C1159 C1165 1.363 . S
C1160 C1161 1.363 . S
C1160 C1165 1.379 . S
C1160 N1167 1.356 . S
C1161 C1160 1.363 . S
C1161 C1164 1.363 . S
N1162 C1164 1.356 . S
N1162 H1174 0.984 . S
N1162 H1175 0.985 . S
N1163 C1165 1.356 . S
N1163 H1168 0.984 . S
N1163 H1169 0.985 . S
C1164 C1158 1.379 . S
C1164 C1161 1.363 . S
C1164 N1162 1.356 . S
C1165 C1159 1.363 . S
C1165 C1160 1.379 . S
C1165 N1163 1.356 . S
N1166 C1158 1.356 . S
N1166 H1172 0.984 . S
N1166 H1173 0.984 . S
N1167 C1160 1.356 . S
N1167 H1170 0.984 . S
N1167 H1171 0.985 . S
H1168 N1163 0.984 . S
H1169 N1163 0.985 . S
H1170 N1167 0.984 . S
H1171 N1167 0.985 . S
H1172 N1166 0.984 . S
H1173 N1166 0.984 . S
H1174 N1162 0.984 . S
H1175 N1162 0.985 . S
C1176 C1177 1.363 . S
C1176 C1182 1.379 . S
C1176 N1184 1.356 . S
C1177 C1176 1.363 . S
C1177 C1183 1.363 . S
C1178 C1179 1.363 . S
C1178 C1183 1.379 . S
C1178 N1185 1.356 . S
C1179 C1178 1.363 . S
C1179 C1182 1.363 . S
N1180 C1182 1.356 . S
N1180 H1192 0.984 . S
N1180 H1193 0.985 . S
N1181 C1183 1.356 . S
N1181 H1186 0.984 . S
N1181 H1187 0.985 . S
C1182 C1176 1.379 . S
C1182 C1179 1.363 . S
C1182 N1180 1.356 . S
C1183 C1177 1.363 . S
C1183 C1178 1.379 . S
C1183 N1181 1.356 . S
N1184 C1176 1.356 . S
N1184 H1190 0.984 . S
N1184 H1191 0.984 . S
N1185 C1178 1.356 . S
N1185 H1188 0.984 . S
N1185 H1189 0.985 . S
H1186 N1181 0.984 . S
H1187 N1181 0.985 . S
H1188 N1185 0.984 . S
H1189 N1185 0.985 . S
H1190 N1184 0.984 . S
H1191 N1184 0.984 . S
H1192 N1180 0.984 . S
H1193 N1180 0.985 . S
C1194 C1195 1.363 . S
C1194 C1200 1.379 . S
C1194 N1202 1.356 . S
C1195 C1194 1.363 . S
C1195 C1201 1.363 . S
C1196 C1197 1.363 . S
C1196 C1201 1.379 . S
C1196 N1203 1.356 . S
C1197 C1196 1.363 . S
C1197 C1200 1.363 . S
N1198 C1200 1.356 . S
N1198 H1210 0.984 . S
N1198 H1211 0.985 . S
N1199 C1201 1.356 . S
N1199 H1204 0.984 . S
N1199 H1205 0.985 . S
C1200 C1194 1.379 . S
C1200 C1197 1.363 . S
C1200 N1198 1.356 . S
C1201 C1195 1.363 . S
C1201 C1196 1.379 . S
C1201 N1199 1.356 . S
N1202 C1194 1.356 . S
N1202 H1208 0.984 . S
N1202 H1209 0.984 . S
N1203 C1196 1.356 . S
N1203 H1206 0.984 . S
N1203 H1207 0.985 . S
H1204 N1199 0.984 . S
H1205 N1199 0.985 . S
H1206 N1203 0.984 . S
H1207 N1203 0.985 . S
H1208 N1202 0.984 . S
H1209 N1202 0.984 . S
H1210 N1198 0.984 . S
H1211 N1198 0.985 . S
C1212 C1213 1.363 . S
C1212 C1218 1.379 . S
C1212 N1220 1.356 . S
C1213 C1212 1.363 . S
C1213 C1219 1.363 . S
C1214 C1215 1.363 . S
C1214 C1219 1.379 . S
C1214 N1221 1.356 . S
C1215 C1214 1.363 . S
C1215 C1218 1.363 . S
N1216 C1218 1.356 . S
N1216 H1228 0.984 . S
N1216 H1229 0.985 . S
N1217 C1219 1.356 . S
N1217 H1222 0.984 . S
N1217 H1223 0.985 . S
C1218 C1212 1.379 . S
C1218 C1215 1.363 . S
C1218 N1216 1.356 . S
C1219 C1213 1.363 . S
C1219 C1214 1.379 . S
C1219 N1217 1.356 . S
N1220 C1212 1.356 . S
N1220 H1226 0.984 . S
N1220 H1227 0.984 . S
N1221 C1214 1.356 . S
N1221 H1224 0.984 . S
N1221 H1225 0.985 . S
H1222 N1217 0.984 . S
H1223 N1217 0.985 . S
H1224 N1221 0.984 . S
H1225 N1221 0.985 . S
H1226 N1220 0.984 . S
H1227 N1220 0.984 . S
H1228 N1216 0.984 . S
H1229 N1216 0.985 . S
C1230 C1231 1.363 . S
C1230 C1236 1.379 . S
C1230 N1238 1.356 . S
C1231 C1230 1.363 . S
C1231 C1237 1.363 . S
C1232 C1233 1.363 1_565 S
C1232 C1237 1.379 1_565 S
C1232 N1239 1.356 . S
C1233 C1232 1.363 1_545 S
C1233 C1236 1.363 . S
N1234 C1236 1.356 . S
N1234 H1246 0.984 . S
N1234 H1247 0.985 . S
N1235 C1237 1.356 1_565 S
N1235 H1240 0.984 . S
N1235 H1241 0.985 . S
C1236 C1230 1.379 . S
C1236 C1233 1.363 . S
C1236 N1234 1.356 . S
C1237 C1231 1.363 . S
C1237 C1232 1.379 1_545 S
C1237 N1235 1.356 1_545 S
N1238 C1230 1.356 . S
N1238 H1244 0.984 . S
N1238 H1245 0.984 . S
N1239 C1232 1.356 . S
N1239 H1242 0.984 . S
N1239 H1243 0.985 . S
H1240 N1235 0.984 . S
H1241 N1235 0.985 . S
H1242 N1239 0.984 . S
H1243 N1239 0.985 . S
H1244 N1238 0.984 . S
H1245 N1238 0.984 . S
H1246 N1234 0.984 . S
H1247 N1234 0.985 . S
C1248 C1249 1.363 . S
C1248 C1254 1.379 . S
C1248 N1256 1.356 . S
C1249 C1248 1.363 . S
C1249 C1255 1.363 . S
C1250 C1251 1.363 . S
C1250 C1255 1.379 . S
C1250 N1257 1.356 . S
C1251 C1250 1.363 . S
C1251 C1254 1.363 . S
N1252 C1254 1.356 . S
N1252 H1264 0.984 . S
N1252 H1265 0.985 . S
N1253 C1255 1.356 . S
N1253 H1258 0.984 . S
N1253 H1259 0.985 . S
C1254 C1248 1.379 . S
C1254 C1251 1.363 . S
C1254 N1252 1.356 . S
C1255 C1249 1.363 . S
C1255 C1250 1.379 . S
C1255 N1253 1.356 . S
N1256 C1248 1.356 . S
N1256 H1262 0.984 . S
N1256 H1263 0.984 . S
N1257 C1250 1.356 . S
N1257 H1260 0.984 . S
N1257 H1261 0.985 . S
H1258 N1253 0.984 . S
H1259 N1253 0.985 . S
H1260 N1257 0.984 . S
H1261 N1257 0.985 . S
H1262 N1256 0.984 . S
H1263 N1256 0.984 . S
H1264 N1252 0.984 . S
H1265 N1252 0.985 . S
C1266 C1267 1.363 . S
C1266 C1272 1.379 . S
C1266 N1274 1.356 . S
C1267 C1266 1.363 . S
C1267 C1273 1.363 . S
C1268 C1269 1.363 . S
C1268 C1273 1.379 . S
C1268 N1275 1.356 . S
C1269 C1268 1.363 . S
C1269 C1272 1.363 . S
N1270 C1272 1.356 . S
N1270 H1282 0.984 . S
N1270 H1283 0.985 . S
N1271 C1273 1.356 . S
N1271 H1276 0.984 . S
N1271 H1277 0.985 . S
C1272 C1266 1.379 . S
C1272 C1269 1.363 . S
C1272 N1270 1.356 . S
C1273 C1267 1.363 . S
C1273 C1268 1.379 . S
C1273 N1271 1.356 . S
N1274 C1266 1.356 . S
N1274 H1280 0.984 . S
N1274 H1281 0.984 . S
N1275 C1268 1.356 . S
N1275 H1278 0.984 . S
N1275 H1279 0.985 . S
H1276 N1271 0.984 . S
H1277 N1271 0.985 . S
H1278 N1275 0.984 . S
H1279 N1275 0.985 . S
H1280 N1274 0.984 . S
H1281 N1274 0.984 . S
H1282 N1270 0.984 . S
H1283 N1270 0.985 . S
C1284 C1285 1.363 . S
C1284 C1290 1.379 . S
C1284 N1292 1.356 . S
C1285 C1284 1.363 . S
C1285 C1291 1.363 . S
C1286 C1287 1.363 . S
C1286 C1291 1.379 . S
C1286 N1293 1.356 . S
C1287 C1286 1.363 . S
C1287 C1290 1.363 . S
N1288 C1290 1.356 . S
N1288 H1300 0.984 . S
N1288 H1301 0.985 . S
N1289 C1291 1.356 . S
N1289 H1294 0.984 . S
N1289 H1295 0.985 . S
C1290 C1284 1.379 . S
C1290 C1287 1.363 . S
C1290 N1288 1.356 . S
C1291 C1285 1.363 . S
C1291 C1286 1.379 . S
C1291 N1289 1.356 . S
N1292 C1284 1.356 . S
N1292 H1298 0.984 . S
N1292 H1299 0.984 . S
N1293 C1286 1.356 . S
N1293 H1296 0.984 . S
N1293 H1297 0.985 . S
H1294 N1289 0.984 . S
H1295 N1289 0.985 . S
H1296 N1293 0.984 . S
H1297 N1293 0.985 . S
H1298 N1292 0.984 . S
H1299 N1292 0.984 . S
H1300 N1288 0.984 . S
H1301 N1288 0.985 . S
C1302 C1303 1.363 . S
C1302 C1308 1.379 . S
C1302 N1310 1.356 . S
C1303 C1302 1.363 . S
C1303 C1309 1.363 . S
C1304 C1305 1.363 . S
C1304 C1309 1.379 . S
C1304 N1311 1.356 . S
C1305 C1304 1.363 . S
C1305 C1308 1.363 . S
N1306 C1308 1.356 1_565 S
N1306 H1318 0.984 . S
N1306 H1319 0.985 . S
N1307 C1309 1.356 . S
N1307 H1312 0.984 . S
N1307 H1313 0.985 . S
C1308 C1302 1.379 . S
C1308 C1305 1.363 . S
C1308 N1306 1.356 1_545 S
C1309 C1303 1.363 . S
C1309 C1304 1.379 . S
C1309 N1307 1.356 . S
N1310 C1302 1.356 . S
N1310 H1316 0.984 1_545 S
N1310 H1317 0.984 . S
N1311 C1304 1.356 . S
N1311 H1314 0.984 . S
N1311 H1315 0.985 . S
H1312 N1307 0.984 . S
H1313 N1307 0.985 . S
H1314 N1311 0.984 . S
H1315 N1311 0.985 . S
H1316 N1310 0.984 1_565 S
H1317 N1310 0.984 . S
H1318 N1306 0.984 . S
H1319 N1306 0.985 . S
C1320 C1321 1.363 . S
C1320 C1326 1.379 . S
C1320 N1328 1.356 . S
C1321 C1320 1.363 . S
C1321 C1327 1.363 . S
C1322 C1323 1.363 . S
C1322 C1327 1.379 . S
C1322 N1329 1.356 . S
C1323 C1322 1.363 . S
C1323 C1326 1.363 . S
N1324 C1326 1.356 . S
N1324 H1336 0.984 . S
N1324 H1337 0.985 . S
N1325 C1327 1.356 . S
N1325 H1330 0.984 . S
N1325 H1331 0.985 . S
C1326 C1320 1.379 . S
C1326 C1323 1.363 . S
C1326 N1324 1.356 . S
C1327 C1321 1.363 . S
C1327 C1322 1.379 . S
C1327 N1325 1.356 . S
N1328 C1320 1.356 . S
N1328 H1334 0.984 . S
N1328 H1335 0.984 . S
N1329 C1322 1.356 . S
N1329 H1332 0.984 . S
N1329 H1333 0.985 . S
H1330 N1325 0.984 . S
H1331 N1325 0.985 . S
H1332 N1329 0.984 . S
H1333 N1329 0.985 . S
H1334 N1328 0.984 . S
H1335 N1328 0.984 . S
H1336 N1324 0.984 . S
H1337 N1324 0.985 . S
C1338 C1339 1.363 . S
C1338 C1344 1.379 . S
C1338 N1346 1.356 . S
C1339 C1338 1.363 . S
C1339 C1345 1.363 . S
C1340 C1341 1.363 . S
C1340 C1345 1.379 . S
C1340 N1347 1.356 . S
C1341 C1340 1.363 . S
C1341 C1344 1.363 . S
N1342 C1344 1.356 . S
N1342 H1354 0.984 . S
N1342 H1355 0.985 . S
N1343 C1345 1.356 . S
N1343 H1348 0.984 . S
N1343 H1349 0.985 . S
C1344 C1338 1.379 . S
C1344 C1341 1.363 . S
C1344 N1342 1.356 . S
C1345 C1339 1.363 . S
C1345 C1340 1.379 . S
C1345 N1343 1.356 . S
N1346 C1338 1.356 . S
N1346 H1352 0.984 . S
N1346 H1353 0.984 . S
N1347 C1340 1.356 . S
N1347 H1350 0.984 . S
N1347 H1351 0.985 . S
H1348 N1343 0.984 . S
H1349 N1343 0.985 . S
H1350 N1347 0.984 . S
H1351 N1347 0.985 . S
H1352 N1346 0.984 . S
H1353 N1346 0.984 . S
H1354 N1342 0.984 . S
H1355 N1342 0.985 . S
C1356 C1357 1.363 . S
C1356 C1362 1.379 . S
C1356 N1364 1.356 . S
C1357 C1356 1.363 . S
C1357 C1363 1.363 . S
C1358 C1359 1.363 . S
C1358 C1363 1.379 . S
C1358 N1365 1.356 . S
C1359 C1358 1.363 . S
C1359 C1362 1.363 . S
N1360 C1362 1.356 . S
N1360 H1372 0.984 . S
N1360 H1373 0.985 . S
N1361 C1363 1.356 . S
N1361 H1366 0.984 . S
N1361 H1367 0.985 . S
C1362 C1356 1.379 . S
C1362 C1359 1.363 . S
C1362 N1360 1.356 . S
C1363 C1357 1.363 . S
C1363 C1358 1.379 . S
C1363 N1361 1.356 . S
N1364 C1356 1.356 . S
N1364 H1370 0.984 . S
N1364 H1371 0.984 . S
N1365 C1358 1.356 . S
N1365 H1368 0.984 . S
N1365 H1369 0.985 . S
H1366 N1361 0.984 . S
H1367 N1361 0.985 . S
H1368 N1365 0.984 . S
H1369 N1365 0.985 . S
H1370 N1364 0.984 . S
H1371 N1364 0.984 . S
H1372 N1360 0.984 . S
H1373 N1360 0.985 . S
C1374 C1375 1.363 . S
C1374 C1380 1.376 1_655 S
C1374 N1382 1.356 1_655 S
C1375 C1374 1.363 . S
C1375 C1381 1.363 . S
C1376 C1377 1.363 . S
C1376 C1381 1.379 . S
C1376 N1383 1.356 . S
C1377 C1376 1.363 . S
C1377 C1380 1.359 1_655 S
N1378 C1380 1.363 . S
N1378 H1390 0.984 . S
N1378 H1391 0.985 . S
N1379 C1381 1.356 . S
N1379 H1384 0.984 . S
N1379 H1385 0.985 . S
C1380 C1374 1.376 1_455 S
C1380 C1377 1.359 1_455 S
C1380 N1378 1.363 . S
C1381 C1375 1.363 . S
C1381 C1376 1.379 . S
C1381 N1379 1.356 . S
N1382 C1374 1.356 1_455 S
N1382 H1388 0.984 . S
N1382 H1389 0.984 1_455 S
N1383 C1376 1.356 . S
N1383 H1386 0.984 . S
N1383 H1387 0.985 . S
H1384 N1379 0.984 . S
H1385 N1379 0.985 . S
H1386 N1383 0.984 . S
H1387 N1383 0.985 . S
H1388 N1382 0.984 . S
H1389 N1382 0.984 1_655 S
H1390 N1378 0.984 . S
H1391 N1378 0.985 . S
C1392 C1393 1.363 . S
C1392 C1398 1.379 . S
C1392 N1400 1.356 . S
C1393 C1392 1.363 . S
C1393 C1399 1.363 . S
C1394 C1395 1.363 . S
C1394 C1399 1.379 . S
C1394 N1401 1.356 . S
C1395 C1394 1.363 . S
C1395 C1398 1.363 . S
N1396 C1398 1.356 . S
N1396 H1408 0.984 . S
N1396 H1409 0.985 . S
N1397 C1399 1.356 . S
N1397 H1402 0.984 . S
N1397 H1403 0.985 . S
C1398 C1392 1.379 . S
C1398 C1395 1.363 . S
C1398 N1396 1.356 . S
C1399 C1393 1.363 . S
C1399 C1394 1.379 . S
C1399 N1397 1.356 . S
N1400 C1392 1.356 . S
N1400 H1406 0.984 . S
N1400 H1407 0.984 . S
N1401 C1394 1.356 . S
N1401 H1404 0.984 . S
N1401 H1405 0.985 . S
H1402 N1397 0.984 . S
H1403 N1397 0.985 . S
H1404 N1401 0.984 . S
H1405 N1401 0.985 . S
H1406 N1400 0.984 . S
H1407 N1400 0.984 . S
H1408 N1396 0.984 . S
H1409 N1396 0.985 . S
C1410 C1411 1.363 . S
C1410 C1416 1.379 . S
C1410 N1418 1.356 . S
C1411 C1410 1.363 . S
C1411 C1417 1.363 . S
C1412 C1413 1.363 1_655 S
C1412 C1417 1.379 1_655 S
C1412 N1419 1.356 . S
C1413 C1412 1.363 1_455 S
C1413 C1416 1.363 . S
N1414 C1416 1.356 . S
N1414 H1426 0.984 . S
N1414 H1427 0.985 . S
N1415 C1417 1.356 1_655 S
N1415 H1420 0.984 . S
N1415 H1421 0.985 . S
C1416 C1410 1.379 . S
C1416 C1413 1.363 . S
C1416 N1414 1.356 . S
C1417 C1411 1.363 . S
C1417 C1412 1.379 1_455 S
C1417 N1415 1.356 1_455 S
N1418 C1410 1.356 . S
N1418 H1424 0.984 . S
N1418 H1425 0.984 . S
N1419 C1412 1.356 . S
N1419 H1422 0.984 . S
N1419 H1423 0.985 . S
H1420 N1415 0.984 . S
H1421 N1415 0.985 . S
H1422 N1419 0.984 . S
H1423 N1419 0.985 . S
H1424 N1418 0.984 . S
H1425 N1418 0.984 . S
H1426 N1414 0.984 . S
H1427 N1414 0.985 . S
C1428 C1429 1.363 . S
C1428 C1434 1.379 . S
C1428 N1436 1.356 . S
C1429 C1428 1.363 . S
C1429 C1435 1.363 . S
C1430 C1431 1.363 . S
C1430 C1435 1.379 . S
C1430 N1437 1.356 . S
C1431 C1430 1.363 . S
C1431 C1434 1.363 . S
N1432 C1434 1.356 . S
N1432 H1444 0.984 . S
N1432 H1445 0.985 . S
N1433 C1435 1.356 . S
N1433 H1438 0.984 . S
N1433 H1439 0.985 . S
C1434 C1428 1.379 . S
C1434 C1431 1.363 . S
C1434 N1432 1.356 . S
C1435 C1429 1.363 . S
C1435 C1430 1.379 . S
C1435 N1433 1.356 . S
N1436 C1428 1.356 . S
N1436 H1442 0.984 . S
N1436 H1443 0.984 . S
N1437 C1430 1.356 . S
N1437 H1440 0.984 . S
N1437 H1441 0.985 . S
H1438 N1433 0.984 . S
H1439 N1433 0.985 . S
H1440 N1437 0.984 . S
H1441 N1437 0.985 . S
H1442 N1436 0.984 . S
H1443 N1436 0.984 . S
H1444 N1432 0.984 . S
H1445 N1432 0.985 . S
C1446 C1447 1.363 . S
C1446 C1452 1.379 . S
C1446 N1454 1.356 . S
C1447 C1446 1.363 . S
C1447 C1453 1.363 . S
C1448 C1449 1.363 . S
C1448 C1453 1.379 . S
C1448 N1455 1.356 . S
C1449 C1448 1.363 . S
C1449 C1452 1.363 . S
N1450 C1452 1.356 . S
N1450 H1462 0.984 . S
N1450 H1463 0.985 . S
N1451 C1453 1.356 . S
N1451 H1456 0.984 . S
N1451 H1457 0.985 . S
C1452 C1446 1.379 . S
C1452 C1449 1.363 . S
C1452 N1450 1.356 . S
C1453 C1447 1.363 . S
C1453 C1448 1.379 . S
C1453 N1451 1.356 . S
N1454 C1446 1.356 . S
N1454 H1460 0.999 . S
N1454 H1461 0.984 . S
N1455 C1448 1.356 . S
N1455 H1458 0.984 . S
N1455 H1459 0.985 . S
H1456 N1451 0.984 . S
H1457 N1451 0.985 . S
H1458 N1455 0.984 . S
H1459 N1455 0.985 . S
H1460 N1454 0.999 . S
H1461 N1454 0.984 . S
H1462 N1450 0.984 . S
H1463 N1450 0.985 . S
C1464 C1465 1.363 . S
C1464 C1470 1.379 . S
C1464 N1472 1.356 . S
C1465 C1464 1.363 . S
C1465 C1471 1.363 . S
C1466 C1467 1.363 . S
C1466 C1471 1.379 . S
C1466 N1473 1.356 . S
C1467 C1466 1.363 . S
C1467 C1470 1.363 . S
N1468 C1470 1.356 . S
N1468 H1480 0.984 . S
N1468 H1481 0.985 . S
N1469 C1471 1.356 . S
N1469 H1474 0.984 . S
N1469 H1475 0.985 . S
C1470 C1464 1.379 . S
C1470 C1467 1.363 . S
C1470 N1468 1.356 . S
C1471 C1465 1.363 . S
C1471 C1466 1.379 . S
C1471 N1469 1.356 . S
N1472 C1464 1.356 . S
N1472 H1478 0.984 . S
N1472 H1479 0.984 . S
N1473 C1466 1.356 . S
N1473 H1476 0.984 . S
N1473 H1477 0.985 . S
H1474 N1469 0.984 . S
H1475 N1469 0.985 . S
H1476 N1473 0.984 . S
H1477 N1473 0.985 . S
H1478 N1472 0.984 . S
H1479 N1472 0.984 . S
H1480 N1468 0.984 . S
H1481 N1468 0.985 . S
C1482 C1483 1.363 . S
C1482 C1488 1.379 . S
C1482 N1490 1.356 . S
C1483 C1482 1.363 . S
C1483 C1489 1.363 . S
C1484 C1485 1.363 . S
C1484 C1489 1.379 . S
C1484 N1491 1.356 . S
C1485 C1484 1.363 . S
C1485 C1488 1.363 . S
N1486 C1488 1.356 . S
N1486 H1498 0.984 . S
N1486 H1499 0.985 . S
N1487 C1489 1.356 . S
N1487 H1492 0.984 . S
N1487 H1493 0.985 . S
C1488 C1482 1.379 . S
C1488 C1485 1.363 . S
C1488 N1486 1.356 . S
C1489 C1483 1.363 . S
C1489 C1484 1.379 . S
C1489 N1487 1.356 . S
N1490 C1482 1.356 . S
N1490 H1496 0.984 . S
N1490 H1497 0.984 . S
N1491 C1484 1.356 . S
N1491 H1494 0.984 . S
N1491 H1495 0.985 . S
H1492 N1487 0.984 . S
H1493 N1487 0.985 . S
H1494 N1491 0.984 . S
H1495 N1491 0.985 . S
H1496 N1490 0.984 . S
H1497 N1490 0.984 . S
H1498 N1486 0.984 . S
H1499 N1486 0.985 . S
C1500 C1501 1.363 . S
C1500 C1506 1.379 . S
C1500 N1508 1.356 . S
C1501 C1500 1.363 . S
C1501 C1507 1.363 . S
C1502 C1503 1.363 . S
C1502 C1507 1.379 . S
C1502 N1509 1.356 . S
C1503 C1502 1.363 . S
C1503 C1506 1.363 . S
N1504 C1506 1.356 . S
N1504 H1516 0.984 . S
N1504 H1517 0.985 . S
N1505 C1507 1.356 . S
N1505 H1510 0.984 . S
N1505 H1511 0.985 . S
C1506 C1500 1.379 . S
C1506 C1503 1.363 . S
C1506 N1504 1.356 . S
C1507 C1501 1.363 . S
C1507 C1502 1.379 . S
C1507 N1505 1.356 . S
N1508 C1500 1.356 . S
N1508 H1514 0.984 . S
N1508 H1515 0.984 . S
N1509 C1502 1.356 . S
N1509 H1512 0.984 . S
N1509 H1513 0.985 . S
H1510 N1505 0.984 . S
H1511 N1505 0.985 . S
H1512 N1509 0.984 . S
H1513 N1509 0.985 . S
H1514 N1508 0.984 . S
H1515 N1508 0.984 . S
H1516 N1504 0.984 . S
H1517 N1504 0.985 . S
C1518 C1519 1.363 . S
C1518 C1524 1.379 . S
C1518 N1526 1.356 . S
C1519 C1518 1.363 . S
C1519 C1525 1.363 . S
C1520 C1521 1.363 . S
C1520 C1525 1.379 . S
C1520 N1527 1.356 . S
C1521 C1520 1.363 . S
C1521 C1524 1.363 . S
N1522 C1524 1.356 . S
N1522 H1534 0.984 . S
N1522 H1535 0.985 . S
N1523 C1525 1.356 . S
N1523 H1528 0.984 . S
N1523 H1529 0.985 . S
C1524 C1518 1.379 . S
C1524 C1521 1.363 . S
C1524 N1522 1.356 . S
C1525 C1519 1.363 . S
C1525 C1520 1.379 . S
C1525 N1523 1.356 . S
N1526 C1518 1.356 . S
N1526 H1532 0.984 . S
N1526 H1533 0.984 . S
N1527 C1520 1.356 . S
N1527 H1530 0.984 . S
N1527 H1531 0.985 . S
H1528 N1523 0.984 . S
H1529 N1523 0.985 . S
H1530 N1527 0.984 . S
H1531 N1527 0.985 . S
H1532 N1526 0.984 . S
H1533 N1526 0.984 . S
H1534 N1522 0.984 . S
H1535 N1522 0.985 . S
C1536 C1537 1.363 . S
C1536 C1542 1.379 . S
C1536 N1544 1.356 . S
C1537 C1536 1.363 . S
C1537 C1543 1.363 . S
C1538 C1539 1.363 . S
C1538 C1543 1.379 . S
C1538 N1545 1.356 . S
C1539 C1538 1.363 . S
C1539 C1542 1.363 . S
N1540 C1542 1.356 . S
N1540 H1552 0.984 . S
N1540 H1553 0.985 . S
N1541 C1543 1.356 . S
N1541 H1546 0.984 . S
N1541 H1547 0.985 . S
C1542 C1536 1.379 . S
C1542 C1539 1.363 . S
C1542 N1540 1.356 . S
C1543 C1537 1.363 . S
C1543 C1538 1.379 . S
C1543 N1541 1.356 . S
N1544 C1536 1.356 . S
N1544 H1550 0.984 . S
N1544 H1551 0.984 . S
N1545 C1538 1.356 . S
N1545 H1548 0.984 . S
N1545 H1549 0.985 . S
H1546 N1541 0.984 . S
H1547 N1541 0.985 . S
H1548 N1545 0.984 . S
H1549 N1545 0.985 . S
H1550 N1544 0.984 . S
H1551 N1544 0.984 . S
H1552 N1540 0.984 . S
H1553 N1540 0.985 . S
C1554 C1555 1.363 . S
C1554 C1560 1.379 . S
C1554 N1562 1.356 . S
C1555 C1554 1.363 . S
C1555 C1561 1.363 . S
C1556 C1557 1.363 . S
C1556 C1561 1.379 . S
C1556 N1563 1.356 . S
C1557 C1556 1.363 . S
C1557 C1560 1.363 . S
N1558 C1560 1.356 . S
N1558 H1570 0.984 . S
N1558 H1571 0.985 . S
N1559 C1561 1.356 . S
N1559 H1564 0.984 . S
N1559 H1565 0.985 . S
C1560 C1554 1.379 . S
C1560 C1557 1.363 . S
C1560 N1558 1.356 . S
C1561 C1555 1.363 . S
C1561 C1556 1.379 . S
C1561 N1559 1.356 . S
N1562 C1554 1.356 . S
N1562 H1568 0.984 . S
N1562 H1569 0.984 . S
N1563 C1556 1.356 . S
N1563 H1566 0.984 . S
N1563 H1567 0.985 . S
H1564 N1559 0.984 . S
H1565 N1559 0.985 . S
H1566 N1563 0.984 . S
H1567 N1563 0.985 . S
H1568 N1562 0.984 . S
H1569 N1562 0.984 . S
H1570 N1558 0.984 . S
H1571 N1558 0.985 . S
C1572 C1573 1.341 1_554 S
C1572 C1578 1.383 . S
C1572 N1580 1.370 . S
C1573 C1572 1.341 1_556 S
C1573 C1579 1.363 . S
C1574 C1575 1.363 . S
C1574 C1579 1.379 . S
C1574 N1581 1.356 . S
C1575 C1574 1.363 . S
C1575 C1578 1.363 1_556 S
N1576 C1578 1.356 . S
N1576 H1588 0.984 . S
N1576 H1589 0.985 . S
N1577 C1579 1.356 . S
N1577 H1582 0.984 . S
N1577 H1583 0.985 . S
C1578 C1572 1.383 . S
C1578 C1575 1.363 1_554 S
C1578 N1576 1.356 . S
C1579 C1573 1.363 . S
C1579 C1574 1.379 . S
C1579 N1577 1.356 . S
N1580 C1572 1.370 . S
N1580 H1586 0.984 . S
N1580 H1587 0.984 . S
N1581 C1574 1.356 . S
N1581 H1584 0.984 . S
N1581 H1585 0.985 . S
H1582 N1577 0.984 . S
H1583 N1577 0.985 . S
H1584 N1581 0.984 . S
H1585 N1581 0.985 . S
H1586 N1580 0.984 . S
H1587 N1580 0.984 . S
H1588 N1576 0.984 . S
H1589 N1576 0.985 . S
C1590 C1591 1.363 . S
C1590 C1596 1.379 . S
C1590 N1598 1.356 . S
C1591 C1590 1.363 . S
C1591 C1597 1.363 . S
C1592 C1593 1.363 . S
C1592 C1597 1.379 . S
C1592 N1599 1.356 . S
C1593 C1592 1.363 . S
C1593 C1596 1.363 . S
N1594 C1596 1.356 . S
N1594 H1606 0.984 . S
N1594 H1607 0.985 . S
N1595 C1597 1.356 . S
N1595 H1600 0.984 . S
N1595 H1601 0.985 . S
C1596 C1590 1.379 . S
C1596 C1593 1.363 . S
C1596 N1594 1.356 . S
C1597 C1591 1.363 . S
C1597 C1592 1.379 . S
C1597 N1595 1.356 . S
N1598 C1590 1.356 . S
N1598 H1604 0.984 . S
N1598 H1605 0.984 . S
N1599 C1592 1.356 . S
N1599 H1602 0.984 . S
N1599 H1603 0.985 . S
H1600 N1595 0.984 . S
H1601 N1595 0.985 . S
H1602 N1599 0.984 . S
H1603 N1599 0.985 . S
H1604 N1598 0.984 . S
H1605 N1598 0.984 . S
H1606 N1594 0.984 . S
H1607 N1594 0.985 . S
C1608 C1609 1.363 . S
C1608 C1614 1.379 . S
C1608 N1616 1.356 . S
C1609 C1608 1.363 . S
C1609 C1615 1.363 . S
C1610 C1611 1.363 . S
C1610 C1615 1.379 . S
C1610 N1617 1.356 1_554 S
C1611 C1610 1.363 . S
C1611 C1614 1.363 . S
N1612 C1614 1.356 . S
N1612 H1624 0.984 . S
N1612 H1625 0.985 . S
N1613 C1615 1.356 . S
N1613 H1618 0.984 . S
N1613 H1619 0.985 1_554 S
C1614 C1608 1.379 . S
C1614 C1611 1.363 . S
C1614 N1612 1.356 . S
C1615 C1609 1.363 . S
C1615 C1610 1.379 . S
C1615 N1613 1.356 . S
N1616 C1608 1.356 . S
N1616 H1622 0.984 . S
N1616 H1623 0.984 . S
N1617 C1610 1.356 1_556 S
N1617 H1620 0.984 . S
N1617 H1621 0.985 . S
H1618 N1613 0.984 . S
H1619 N1613 0.985 1_556 S
H1620 N1617 0.984 . S
H1621 N1617 0.985 . S
H1622 N1616 0.984 . S
H1623 N1616 0.984 . S
H1624 N1612 0.984 . S
H1625 N1612 0.985 . S
C1626 C1627 1.363 . S
C1626 C1632 1.379 . S
C1626 N1634 1.356 . S
C1627 C1626 1.363 . S
C1627 C1633 1.363 . S
C1628 C1629 1.328 1_556 S
C1628 C1633 1.376 1_556 S
C1628 N1635 1.389 . S
C1629 C1628 1.328 1_554 S
C1629 C1632 1.363 . S
N1630 C1632 1.356 . S
N1630 H1642 0.984 . S
N1630 H1643 0.985 . S
N1631 C1633 1.356 1_556 S
N1631 H1636 0.984 . S
N1631 H1637 0.985 . S
C1632 C1626 1.379 . S
C1632 C1629 1.363 . S
C1632 N1630 1.356 . S
C1633 C1627 1.363 . S
C1633 C1628 1.376 1_554 S
C1633 N1631 1.356 1_554 S
N1634 C1626 1.356 . S
N1634 H1640 0.984 . S
N1634 H1641 0.984 . S
N1635 C1628 1.389 . S
N1635 H1638 0.984 . S
N1635 H1639 0.985 . S
H1636 N1631 0.984 . S
H1637 N1631 0.985 . S
H1638 N1635 0.984 . S
H1639 N1635 0.985 . S
H1640 N1634 0.984 . S
H1641 N1634 0.984 . S
H1642 N1630 0.984 . S
H1643 N1630 0.985 . S
C783 C634 1.427 . S
C781 C211 1.431 . S
C801 C647 1.583 . S
C799 C255 1.593 . S
C817 C274 1.466 . S
C819 C660 1.456 . S
C837 C673 1.518 . S
C835 C157 1.530 . S
C855 C681 1.471 . S
C853 C391 1.504 . S
C873 C694 1.424 . S
C871 C484 1.440 . S
C889 C450 1.519 . S
C891 C707 1.491 . S
C909 C720 1.502 . S
C907 C352 1.517 . S
C925 C430 1.449 . S
C927 C738 1.438 . S
C945 C749 1.512 . S
C943 C367 1.545 . S
C961 C411 1.482 . S
C963 C733 1.452 . S
C981 C741 1.456 . S
C979 C469 1.486 . S
C997 C294 1.500 . S
C999 C764 1.490 . S
C1015 C177 1.516 . S
C1017 C754 1.483 . S
C1033 C196 1.511 . S
C1035 C759 1.478 . S
C1051 C235 1.560 . S
C1053 C762 1.523 . S
C1069 C133 1.462 . S
C1071 C671 1.438 . S
C1087 C567 1.436 . S
C1089 C663 1.419 . S
C1107 C632 1.521 1_556 S
C1105 C601 1.561 . S
C1125 C637 1.498 . S
C1123 C328 1.519 . S
C1141 C172 1.534 . S
C1143 C684 1.503 . S
C1161 C723 1.504 . S
C1159 C445 1.532 . S
C1179 C676 1.491 . S
C1177 C372 1.521 . S
C1197 C702 1.439 . S
C1195 C489 1.474 . S
C1215 C712 1.427 . S
C1213 C562 1.431 . S
C1231 C606 1.593 . S
C1233 C725 1.583 . S
C1249 C313 1.466 . S
C1251 C686 1.454 . S
C1269 C699 1.518 . S
C1267 C508 1.530 . S
C1285 C118 1.504 . S
C1287 C655 1.468 . S
C1305 C668 1.424 . S
C1303 C16 1.440 . S
C1323 C629 1.491 . S
C1321 C60 1.519 . S
C1341 C642 1.502 . S
C1339 C79 1.517 . S
C1357 C40 1.449 . S
C1359 C751 1.437 . S
C1375 C94 1.544 . S
C1377 C736 1.507 1_655 S
C1393 C138 1.482 . S
C1395 C746 1.452 . S
C1411 C1 1.486 . S
C1413 C728 1.456 . S
C1431 C777 1.490 . S
C1429 C333 1.500 . S
C1449 C767 1.483 . S
C1447 C528 1.516 . S
C1467 C772 1.478 . S
C1465 C547 1.511 . S
C1483 C586 1.560 . S
C1485 C775 1.524 . S
C1501 C406 1.462 . S
C1503 C697 1.438 . S
C1521 C689 1.419 . S
C1519 C216 1.436 . S
C1539 C710 1.530 . S
C1537 C250 1.561 . S
C1557 C715 1.498 . S
C1555 C289 1.520 . S
C1573 C523 1.534 . S
C1575 C658 1.504 . S
C1593 C645 1.504 . S
C1591 C55 1.534 . S
C1609 C99 1.521 . S
C1611 C650 1.490 . S
C1629 C624 1.438 . S
C1627 C21 1.474 . S
