# Generated by pormake.
# Topology cml, (3,6)-cn, num edge types: 1
# Building blocks:
#     Node 0, Type 0, BuildingBlock: BETDIP_clean_linker_0, # of connection points: 3
#     Node 1, Type 0, BuildingBlock: BETDIP_clean_linker_0, # of connection points: 3
#     Node 2, Type 0, BuildingBlock: BETDIP_clean_linker_0, # of connection points: 3
#     Node 3, Type 0, BuildingBlock: BETDIP_clean_linker_0, # of connection points: 3
#     Node 4, Type 0, BuildingBlock: BETDIP_clean_linker_0, # of connection points: 3
#     Node 5, Type 0, BuildingBlock: BETDIP_clean_linker_0, # of connection points: 3
#     Node 6, Type 0, BuildingBlock: BETDIP_clean_linker_0, # of connection points: 3
#     Node 7, Type 0, BuildingBlock: BETDIP_clean_linker_0, # of connection points: 3
#     Node 8, Type 1, BuildingBlock: IZENUY_clean_sbu_0, # of connection points: 6
#     Node 9, Type 1, BuildingBlock: IZENUY_clean_sbu_0, # of connection points: 6
#     Node 10, Type 1, BuildingBlock: IZENUY_clean_sbu_0, # of connection points: 6
#     Node 11, Type 1, BuildingBlock: IZENUY_clean_sbu_0, # of connection points: 6
#     Edge 12, Type (0, 1), BuildingBlock: TEMPAE_clean_linker_10, # of connection points: 2
#     Edge 13, Type (0, 1), BuildingBlock: TEMPAE_clean_linker_10, # of connection points: 2
#     Edge 14, Type (0, 1), BuildingBlock: TEMPAE_clean_linker_10, # of connection points: 2
#     Edge 15, Type (0, 1), BuildingBlock: TEMPAE_clean_linker_10, # of connection points: 2
#     Edge 16, Type (0, 1), BuildingBlock: TEMPAE_clean_linker_10, # of connection points: 2
#     Edge 17, Type (0, 1), BuildingBlock: TEMPAE_clean_linker_10, # of connection points: 2
#     Edge 18, Type (0, 1), BuildingBlock: TEMPAE_clean_linker_10, # of connection points: 2
#     Edge 19, Type (0, 1), BuildingBlock: TEMPAE_clean_linker_10, # of connection points: 2
#     Edge 20, Type (0, 1), BuildingBlock: TEMPAE_clean_linker_10, # of connection points: 2
#     Edge 21, Type (0, 1), BuildingBlock: TEMPAE_clean_linker_10, # of connection points: 2
#     Edge 22, Type (0, 1), BuildingBlock: TEMPAE_clean_linker_10, # of connection points: 2
#     Edge 23, Type (0, 1), BuildingBlock: TEMPAE_clean_linker_10, # of connection points: 2
#     Edge 24, Type (0, 1), BuildingBlock: TEMPAE_clean_linker_10, # of connection points: 2
#     Edge 25, Type (0, 1), BuildingBlock: TEMPAE_clean_linker_10, # of connection points: 2
#     Edge 26, Type (0, 1), BuildingBlock: TEMPAE_clean_linker_10, # of connection points: 2
#     Edge 27, Type (0, 1), BuildingBlock: TEMPAE_clean_linker_10, # of connection points: 2
#     Edge 28, Type (0, 1), BuildingBlock: TEMPAE_clean_linker_10, # of connection points: 2
#     Edge 29, Type (0, 1), BuildingBlock: TEMPAE_clean_linker_10, # of connection points: 2
#     Edge 30, Type (0, 1), BuildingBlock: TEMPAE_clean_linker_10, # of connection points: 2
#     Edge 31, Type (0, 1), BuildingBlock: TEMPAE_clean_linker_10, # of connection points: 2
#     Edge 32, Type (0, 1), BuildingBlock: TEMPAE_clean_linker_10, # of connection points: 2
#     Edge 33, Type (0, 1), BuildingBlock: TEMPAE_clean_linker_10, # of connection points: 2
#     Edge 34, Type (0, 1), BuildingBlock: TEMPAE_clean_linker_10, # of connection points: 2
#     Edge 35, Type (0, 1), BuildingBlock: TEMPAE_clean_linker_10, # of connection points: 2
# Relax obj value: 0.003
# Max RMSD: 0.067
# Mean RMSD: 0.052
data_MOF--net-cml--node1-IZENUY_clean_sbu_0--node2-BETDIP_clean_linker_0--edge1-TEMPAE_clean_linker_10
_symmetry_space_group_name_H-M    P1
_symmetry_Int_Tables_number       1
_symmetry_cell_setting            triclinic
loop_
_symmetry_equiv_pos_as_xyz
'x, y, z'
_cell_length_a     37.860502
_cell_length_b     41.573979
_cell_length_c     37.072585
_cell_angle_alpha  89.928667
_cell_angle_beta   90.04049
_cell_angle_gamma 90.020475
loop_
_atom_site_label
_atom_site_type_symbol
_atom_site_fract_x
_atom_site_fract_y
_atom_site_fract_z
_atom_type_partial_charge
H0 H 0.28206 0.34982 0.05274 0.0
H1 H 0.26865 0.41318 0.96196 0.0
H2 H 0.3471 0.43386 0.04265 0.0
H3 H 0.2147 0.38909 0.95901 0.0
C4 C 0.22002 0.36435 0.96671 0.0
C5 C 0.28926 0.37163 0.03846 0.0
C6 C 0.31621 0.39139 0.0519 0.0
C7 C 0.27185 0.37933 0.00626 0.0
C8 C 0.28158 0.4073 0.98712 0.0
C9 C 0.30871 0.42738 0.00015 0.0
C10 C 0.32577 0.41903 0.03254 0.0
N11 N 0.24612 0.35737 0.99312 0.0
H12 H 0.72182 0.66542 0.54793 0.0
H13 H 0.72457 0.61019 0.44974 0.0
H14 H 0.64651 0.58959 0.53059 0.0
H15 H 0.78249 0.62756 0.44952 0.0
C16 C 0.78013 0.65215 0.4591 0.0
C17 C 0.71145 0.64612 0.53136 0.0
C18 C 0.68233 0.6282 0.54331 0.0
C19 C 0.72713 0.63969 0.49793 0.0
C20 C 0.71342 0.6149 0.47608 0.0
C21 C 0.68399 0.59701 0.48761 0.0
C22 C 0.66873 0.6038 0.52123 0.0
N23 N 0.75528 0.65984 0.48644 0.0
H24 H 0.72134 0.34001 0.04671 0.0
H25 H 0.71923 0.39525 0.94848 0.0
H26 H 0.64184 0.41257 0.03096 0.0
H27 H 0.74162 0.34623 0.92661 0.0
C28 C 0.76012 0.33929 0.94764 0.0
C29 C 0.70943 0.35869 0.0303 0.0
C30 C 0.67963 0.37525 0.04286 0.0
C31 C 0.72326 0.36506 0.99603 0.0
C32 C 0.70811 0.38944 0.97459 0.0
C33 C 0.67853 0.40654 0.9871 0.0
C34 C 0.66432 0.39907 0.02103 0.0
N35 N 0.75259 0.3466 0.98423 0.0
H36 H 0.28052 0.65795 0.54987 0.0
H37 H 0.28185 0.60463 0.4503 0.0
H38 H 0.3535 0.57982 0.53576 0.0
H39 H 0.26389 0.65525 0.42918 0.0
C40 C 0.24494 0.66267 0.44952 0.0
C41 C 0.29115 0.63857 0.53364 0.0
C42 C 0.31913 0.61982 0.54683 0.0
C43 C 0.2779 0.63366 0.49874 0.0
C44 C 0.29207 0.60888 0.47715 0.0
C45 C 0.31975 0.58963 0.49035 0.0
C46 C 0.33269 0.5951 0.52524 0.0
N47 N 0.25054 0.65426 0.48625 0.0
H48 H 0.78617 0.84654 0.04971 0.0
H49 H 0.77645 0.89961 0.95051 0.0
H50 H 0.84749 0.9326 0.03277 0.0
H51 H 0.71575 0.88062 0.96102 0.0
C52 C 0.72286 0.8556 0.96553 0.0
C53 C 0.79336 0.86711 0.0333 0.0
C54 C 0.81867 0.88921 0.04576 0.0
C55 C 0.7773 0.87117 0.99953 0.0
C56 C 0.78751 0.89702 0.97731 0.0
C57 C 0.81298 0.91901 0.98936 0.0
C58 C 0.82798 0.91532 0.02365 0.0
N59 N 0.75213 0.84808 0.98795 0.0
H60 H 0.22356 0.15991 0.55243 0.0
H61 H 0.22666 0.10821 0.45194 0.0
H62 H 0.15117 0.08199 0.53307 0.0
H63 H 0.285 0.12515 0.4537 0.0
C64 C 0.28207 0.14967 0.46334 0.0
C65 C 0.21371 0.14074 0.53538 0.0
C66 C 0.18546 0.12148 0.54708 0.0
C67 C 0.22923 0.13579 0.50151 0.0
C68 C 0.21591 0.11153 0.47872 0.0
C69 C 0.18725 0.09251 0.48984 0.0
C70 C 0.17258 0.09737 0.52413 0.0
N71 N 0.25682 0.15679 0.49051 0.0
H72 H 0.23959 0.84901 0.05474 0.0
H73 H 0.23008 0.90557 0.95795 0.0
H74 H 0.16518 0.92676 0.05041 0.0
H75 H 0.24187 0.84996 0.93601 0.0
C76 C 0.26518 0.84612 0.95261 0.0
C77 C 0.22765 0.86885 0.04017 0.0
C78 C 0.20111 0.88716 0.05645 0.0
C79 C 0.23816 0.87535 0.00472 0.0
C80 C 0.2221 0.90066 0.98546 0.0
C81 C 0.1956 0.91946 0.00174 0.0
C82 C 0.18562 0.91263 0.03745 0.0
N83 N 0.26502 0.85605 0.98921 0.0
H84 H 0.78447 0.16247 0.55344 0.0
H85 H 0.78668 0.10642 0.4559 0.0
H86 H 0.8612 0.08724 0.5409 0.0
H87 H 0.76649 0.15582 0.43307 0.0
C88 C 0.74766 0.16335 0.45348 0.0
C89 C 0.79587 0.14318 0.53761 0.0
C90 C 0.82488 0.12596 0.55096 0.0
C91 C 0.78244 0.13683 0.50313 0.0
C92 C 0.79728 0.11188 0.48232 0.0
C93 C 0.82593 0.0939 0.49576 0.0
C94 C 0.83948 0.10124 0.53005 0.0
N95 N 0.75406 0.15607 0.49036 0.0
Fe96 Fe 0.00412 0.82868 0.31588 0.0
Fe97 Fe 0.00604 0.86514 0.3878 0.0
O98 O 0.00479 0.86541 0.34002 0.0
Fe99 Fe 0.00426 0.90231 0.31617 0.0
O100 O 0.96229 0.89272 0.29525 0.0
O101 O 0.97762 0.8442 0.27815 0.0
O102 O 0.96301 0.81687 0.33697 0.0
C103 C 0.95852 0.81447 0.37057 0.0
C104 C 0.04954 0.86322 0.2741 0.0
O105 O 0.97938 0.82824 0.39247 0.0
C106 C 0.05227 0.91639 0.36889 0.0
O107 O 0.03032 0.80617 0.34908 0.0
O108 O 0.04724 0.8427 0.38812 0.0
O109 O 0.02904 0.88709 0.27733 0.0
O110 O 0.04536 0.83835 0.29316 0.0
C111 C 0.95977 0.91475 0.37601 0.0
O112 O 0.03285 0.90183 0.39148 0.0
O113 O 0.04616 0.9145 0.3355 0.0
C114 C 0.05155 0.81576 0.37315 0.0
O115 O 0.96503 0.88786 0.39098 0.0
O116 O 0.9794 0.92425 0.35053 0.0
C117 C 0.95714 0.86822 0.27594 0.0
Fe118 Fe 0.00641 0.14235 0.89369 0.0
Fe119 Fe 0.00604 0.10508 0.82235 0.0
O120 O 0.00664 0.14206 0.84588 0.0
Fe121 Fe 0.0073 0.17886 0.82173 0.0
O122 O 0.04879 0.19041 0.84235 0.0
O123 O 0.03253 0.17953 0.89787 0.0
O124 O 0.04769 0.12009 0.89581 0.0
C125 C 0.05253 0.09306 0.88105 0.0
C126 C 0.96031 0.19126 0.87933 0.0
O127 O 0.03213 0.08332 0.85623 0.0
C128 C 0.96017 0.14462 0.78115 0.0
O129 O 0.9804 0.10526 0.89845 0.0
O130 O 0.96457 0.09338 0.8431 0.0
O131 O 0.9815 0.20116 0.85534 0.0
O132 O 0.96497 0.16438 0.89448 0.0
C133 C 0.05269 0.1388 0.78068 0.0
O134 O 0.97995 0.12024 0.78437 0.0
O135 O 0.96586 0.16976 0.79929 0.0
C136 C 0.95994 0.09104 0.87665 0.0
O137 O 0.04734 0.11411 0.79972 0.0
O138 O 0.03309 0.16331 0.78373 0.0
C139 C 0.05328 0.19326 0.87588 0.0
Fe140 Fe 0.50484 0.32611 0.31938 0.0
Fe141 Fe 0.5066 0.36352 0.39074 0.0
O142 O 0.5059 0.3632 0.3429 0.0
Fe143 Fe 0.50608 0.39986 0.31862 0.0
O144 O 0.4645 0.39038 0.29687 0.0
O145 O 0.47875 0.3412 0.28125 0.0
O146 O 0.46349 0.31505 0.34054 0.0
C147 C 0.45899 0.31291 0.37414 0.0
C148 C 0.55141 0.35971 0.27761 0.0
O149 O 0.48008 0.32661 0.39582 0.0
C150 C 0.5529 0.4148 0.37204 0.0
O151 O 0.53081 0.30406 0.3532 0.0
O152 O 0.54782 0.34114 0.39167 0.0
O153 O 0.5317 0.38415 0.2807 0.0
O154 O 0.54608 0.33482 0.29637 0.0
C155 C 0.46013 0.41261 0.37707 0.0
O156 O 0.53314 0.4004 0.39443 0.0
O157 O 0.54762 0.41216 0.3386 0.0
C158 C 0.55212 0.31401 0.37707 0.0
O159 O 0.46545 0.38611 0.39289 0.0
O160 O 0.48045 0.42208 0.35214 0.0
C161 C 0.45896 0.36558 0.2782 0.0
Fe162 Fe 0.50075 0.643 0.88908 0.0
Fe163 Fe 0.5022 0.60484 0.81832 0.0
O164 O 0.50238 0.64228 0.84124 0.0
Fe165 Fe 0.50386 0.67862 0.81616 0.0
O166 O 0.53047 0.7004 0.84942 0.0
O167 O 0.54201 0.66498 0.89213 0.0
O168 O 0.52685 0.60577 0.8947 0.0
C169 C 0.54719 0.59073 0.8733 0.0
C170 C 0.45626 0.69493 0.86871 0.0
O171 O 0.54312 0.59288 0.8396 0.0
C172 C 0.45646 0.63929 0.77644 0.0
O173 O 0.45906 0.62134 0.88961 0.0
O174 O 0.47604 0.58347 0.8524 0.0
O175 O 0.46296 0.69276 0.83555 0.0
O176 O 0.47458 0.68011 0.89199 0.0
C177 C 0.54925 0.64234 0.77623 0.0
O178 O 0.46115 0.61458 0.79568 0.0
O179 O 0.47731 0.6631 0.77851 0.0
C180 C 0.45471 0.59402 0.87572 0.0
O181 O 0.52845 0.61875 0.7798 0.0
O182 O 0.54501 0.66749 0.7946 0.0
C183 C 0.54891 0.6909 0.87586 0.0
C184 C 0.20572 0.30598 0.95796 0.0
C185 C 0.197 0.33844 0.9527 0.0
C186 C 0.18371 0.28137 0.94504 0.0
C187 C 0.15204 0.28946 0.92685 0.0
C188 C 0.14322 0.32222 0.92133 0.0
C189 C 0.166 0.34632 0.93409 0.0
C190 C 0.19425 0.24674 0.95098 0.0
C191 C 0.10949 0.33179 0.90242 0.0
C192 C 0.10651 0.22813 0.86669 0.0
C193 C 0.07981 0.2165 0.88947 0.0
C194 C 0.13066 0.25142 0.87871 0.0
C195 C 0.12773 0.26369 0.9142 0.0
C196 C 0.10112 0.25176 0.93746 0.0
C197 C 0.07766 0.22814 0.92491 0.0
C198 C 0.15905 0.26317 0.85332 0.0
C199 C 0.09694 0.26445 0.97537 0.0
H200 H 0.22987 0.29973 0.97204 0.0
H201 H 0.1593 0.37142 0.93001 0.0
H202 H 0.17412 0.2344 0.96775 0.0
H203 H 0.1954 0.23392 0.92477 0.0
H204 H 0.22031 0.2445 0.96453 0.0
H205 H 0.10656 0.35831 0.90021 0.0
H206 H 0.10881 0.32135 0.87491 0.0
H207 H 0.08642 0.32205 0.9173 0.0
H208 H 0.10848 0.21909 0.83935 0.0
H209 H 0.05703 0.21941 0.94266 0.0
H210 H 0.18544 0.26009 0.86587 0.0
H211 H 0.15548 0.28923 0.848 0.0
H212 H 0.1587 0.25019 0.82714 0.0
H213 H 0.12181 0.26105 0.99074 0.0
H214 H 0.07515 0.25238 0.9902 0.0
H215 H 0.09151 0.29067 0.97454 0.0
C216 C 0.80016 0.70942 0.45344 0.0
C217 C 0.80561 0.67666 0.44638 0.0
C218 C 0.82424 0.73271 0.44127 0.0
C219 C 0.8547 0.72294 0.42207 0.0
C220 C 0.86036 0.68986 0.41501 0.0
C221 C 0.83553 0.66713 0.42698 0.0
C222 C 0.81699 0.76779 0.4488 0.0
C223 C 0.89275 0.67846 0.39503 0.0
C224 C 0.90301 0.78268 0.36212 0.0
C225 C 0.93113 0.79218 0.38436 0.0
C226 C 0.87759 0.76062 0.37429 0.0
C227 C 0.88068 0.74731 0.40932 0.0
C228 C 0.90887 0.75696 0.43199 0.0
C229 C 0.93358 0.7795 0.41936 0.0
C230 C 0.84756 0.75138 0.34955 0.0
C231 C 0.9133 0.74301 0.46935 0.0
H232 H 0.77687 0.71695 0.46815 0.0
H233 H 0.83973 0.64179 0.42155 0.0
H234 H 0.8388 0.77817 0.46505 0.0
H235 H 0.81586 0.78142 0.42308 0.0
H236 H 0.79178 0.77144 0.46355 0.0
H237 H 0.89354 0.65187 0.39228 0.0
H238 H 0.89348 0.68931 0.36769 0.0
H239 H 0.91693 0.68644 0.4094 0.0
H240 H 0.90082 0.79258 0.33514 0.0
H241 H 0.95534 0.78658 0.43662 0.0
H242 H 0.82189 0.75599 0.36301 0.0
H243 H 0.84877 0.72527 0.34356 0.0
H244 H 0.84818 0.76485 0.32366 0.0
H245 H 0.88934 0.74771 0.48572 0.0
H246 H 0.93655 0.75317 0.48367 0.0
H247 H 0.91648 0.71653 0.4676 0.0
C248 C 0.79094 0.30292 0.9046 0.0
C249 C 0.78979 0.31761 0.93854 0.0
C250 C 0.81826 0.28156 0.89561 0.0
C251 C 0.84537 0.27523 0.921 0.0
C252 C 0.84447 0.29026 0.95524 0.0
C253 C 0.81654 0.31114 0.9637 0.0
C254 C 0.81811 0.26574 0.85897 0.0
C255 C 0.87319 0.28455 0.98279 0.0
C256 C 0.90178 0.20022 0.90927 0.0
C257 C 0.93135 0.21267 0.89127 0.0
C258 C 0.87353 0.22029 0.91913 0.0
C259 C 0.87521 0.25362 0.91131 0.0
C260 C 0.90533 0.26638 0.89381 0.0
C261 C 0.93287 0.24573 0.88374 0.0
C262 C 0.84163 0.20576 0.93736 0.0
C263 C 0.90841 0.30186 0.88554 0.0
H264 H 0.77018 0.30787 0.88521 0.0
H265 H 0.81589 0.32261 0.98992 0.0
H266 H 0.84209 0.27282 0.84372 0.0
H267 H 0.8188 0.23919 0.86205 0.0
H268 H 0.79448 0.27235 0.8428 0.0
H269 H 0.86854 0.298 0.00822 0.0
H270 H 0.87501 0.25853 0.98922 0.0
H271 H 0.89911 0.29197 0.97156 0.0
H272 H 0.90037 0.17466 0.91494 0.0
H273 H 0.95575 0.25557 0.87006 0.0
H274 H 0.81774 0.2101 0.92071 0.0
H275 H 0.83717 0.21746 0.96383 0.0
H276 H 0.8445 0.17944 0.9417 0.0
H277 H 0.88689 0.30928 0.86699 0.0
H278 H 0.93412 0.3081 0.87293 0.0
H279 H 0.90541 0.31606 0.91067 0.0
C280 C 0.21739 0.70038 0.40545 0.0
C281 C 0.21662 0.68554 0.43937 0.0
C282 C 0.19119 0.72252 0.39523 0.0
C283 C 0.16321 0.72952 0.41933 0.0
C284 C 0.16223 0.71444 0.4536 0.0
C285 C 0.18909 0.69278 0.46332 0.0
C286 C 0.1934 0.73836 0.35862 0.0
C287 C 0.13255 0.72086 0.4798 0.0
C288 C 0.1091 0.8057 0.40488 0.0
C289 C 0.07992 0.79385 0.3857 0.0
C290 C 0.13649 0.78508 0.41594 0.0
C291 C 0.13434 0.75177 0.40815 0.0
C292 C 0.10469 0.73965 0.38929 0.0
C293 C 0.07803 0.76084 0.37805 0.0
C294 C 0.16794 0.79897 0.43556 0.0
C295 C 0.1011 0.70424 0.38095 0.0
H296 H 0.23873 0.69486 0.38698 0.0
H297 H 0.18825 0.68123 0.48952 0.0
H298 H 0.17002 0.7317 0.3422 0.0
H299 H 0.19314 0.76491 0.36163 0.0
H300 H 0.21761 0.73132 0.34367 0.0
H301 H 0.13582 0.70743 0.50551 0.0
H302 H 0.13109 0.74693 0.48594 0.0
H303 H 0.10695 0.7139 0.46747 0.0
H304 H 0.11084 0.8312 0.41069 0.0
H305 H 0.05546 0.75143 0.36347 0.0
H306 H 0.19243 0.79399 0.42012 0.0
H307 H 0.17088 0.78731 0.46232 0.0
H308 H 0.16561 0.82537 0.43954 0.0
H309 H 0.12329 0.69634 0.36357 0.0
H310 H 0.07587 0.69854 0.36703 0.0
H311 H 0.1025 0.69 0.40624 0.0
C312 C 0.66347 0.83752 0.94535 0.0
C313 C 0.69868 0.83001 0.95314 0.0
C314 C 0.63977 0.81365 0.93394 0.0
C315 C 0.65194 0.78173 0.92912 0.0
C316 C 0.68768 0.77412 0.93653 0.0
C317 C 0.71056 0.79831 0.94894 0.0
C318 C 0.60168 0.82259 0.92712 0.0
C319 C 0.70188 0.74059 0.93072 0.0
C320 C 0.5835 0.71477 0.92668 0.0
C321 C 0.57706 0.71219 0.88957 0.0
C322 C 0.60809 0.73713 0.94 0.0
C323 C 0.62734 0.75658 0.91551 0.0
C324 C 0.62194 0.75301 0.87793 0.0
C325 C 0.59645 0.7312 0.86545 0.0
C326 C 0.61249 0.74078 0.98027 0.0
C327 C 0.64266 0.77259 0.85091 0.0
H328 H 0.65434 0.86206 0.94874 0.0
H329 H 0.73793 0.79256 0.95463 0.0
H330 H 0.59504 0.81868 0.89832 0.0
H331 H 0.58399 0.80692 0.9433 0.0
H332 H 0.59606 0.84809 0.93397 0.0
H333 H 0.73038 0.73867 0.93753 0.0
H334 H 0.687 0.7231 0.94746 0.0
H335 H 0.69817 0.73348 0.90212 0.0
H336 H 0.5683 0.70022 0.94535 0.0
H337 H 0.59168 0.72897 0.83671 0.0
H338 H 0.60472 0.76546 0.98845 0.0
H339 H 0.64058 0.73755 0.98794 0.0
H340 H 0.59624 0.72324 0.99564 0.0
H341 H 0.63569 0.79839 0.85354 0.0
H342 H 0.63744 0.76498 0.82269 0.0
H343 H 0.67139 0.77038 0.85633 0.0
C344 C 0.33721 0.16547 0.43138 0.0
C345 C 0.30714 0.17459 0.45077 0.0
C346 C 0.36165 0.18851 0.41938 0.0
C347 C 0.35544 0.22152 0.42639 0.0
C348 C 0.32482 0.23089 0.44561 0.0
C349 C 0.30113 0.20726 0.45781 0.0
C350 C 0.39422 0.17753 0.3994 0.0
C351 C 0.31701 0.26586 0.45308 0.0
C352 C 0.43392 0.2785 0.42333 0.0
C353 C 0.4315 0.29086 0.38819 0.0
C354 C 0.40922 0.25606 0.4362 0.0
C355 C 0.38107 0.24618 0.41361 0.0
C356 C 0.37792 0.25926 0.37847 0.0
C357 C 0.40334 0.28124 0.36607 0.0
C358 C 0.41372 0.24235 0.47366 0.0
C359 C 0.34792 0.24977 0.35381 0.0
H360 H 0.34183 0.14019 0.42595 0.0
H361 H 0.27771 0.21447 0.47252 0.0
H362 H 0.39475 0.18833 0.37203 0.0
H363 H 0.41827 0.18587 0.41374 0.0
H364 H 0.39545 0.15095 0.39671 0.0
H365 H 0.29174 0.26919 0.46784 0.0
H366 H 0.33865 0.27658 0.46928 0.0
H367 H 0.31563 0.27945 0.42733 0.0
H368 H 0.4557 0.2857 0.44052 0.0
H369 H 0.40115 0.2909 0.33899 0.0
H370 H 0.41739 0.21591 0.47206 0.0
H371 H 0.3896 0.24675 0.48989 0.0
H372 H 0.43672 0.25291 0.48803 0.0
H373 H 0.3495 0.2237 0.3477 0.0
H374 H 0.34828 0.26333 0.32797 0.0
H375 H 0.32223 0.25403 0.36737 0.0
C376 C 0.28617 0.80211 0.91251 0.0
C377 C 0.29348 0.82472 0.93943 0.0
C378 C 0.31221 0.78042 0.90089 0.0
C379 C 0.34663 0.78221 0.91576 0.0
C380 C 0.35434 0.80565 0.94233 0.0
C381 C 0.32749 0.82634 0.95423 0.0
C382 C 0.30273 0.75524 0.8732 0.0
C383 C 0.39096 0.80896 0.95805 0.0
C384 C 0.40799 0.70993 0.91133 0.0
C385 C 0.42816 0.71708 0.88069 0.0
C386 C 0.38087 0.73062 0.92266 0.0
C387 C 0.37462 0.7596 0.90353 0.0
C388 C 0.39531 0.76709 0.87284 0.0
C389 C 0.42147 0.74547 0.86145 0.0
C390 C 0.35872 0.72134 0.95489 0.0
C391 C 0.39017 0.79816 0.85235 0.0
H392 H 0.25977 0.80083 0.90124 0.0
H393 H 0.33322 0.84408 0.97484 0.0
H394 H 0.31939 0.75817 0.84884 0.0
H395 H 0.30806 0.73089 0.88424 0.0
H396 H 0.27454 0.75655 0.865 0.0
H397 H 0.39294 0.8293 0.97735 0.0
H398 H 0.39846 0.78649 0.97227 0.0
H399 H 0.41046 0.81274 0.93611 0.0
H400 H 0.41298 0.68782 0.92601 0.0
H401 H 0.43727 0.75113 0.8379 0.0
H402 H 0.33036 0.72098 0.94729 0.0
H403 H 0.36186 0.73947 0.97658 0.0
H404 H 0.366 0.69736 0.96585 0.0
H405 H 0.36294 0.79937 0.84138 0.0
H406 H 0.40911 0.80076 0.82966 0.0
H407 H 0.39349 0.81891 0.87085 0.0
C408 C 0.71886 0.19985 0.40896 0.0
C409 C 0.71878 0.18557 0.44319 0.0
C410 C 0.69226 0.22157 0.39874 0.0
C411 C 0.66459 0.22871 0.42316 0.0
C412 C 0.66426 0.21412 0.4577 0.0
C413 C 0.69151 0.19287 0.46741 0.0
C414 C 0.69376 0.23689 0.36182 0.0
C415 C 0.63491 0.22069 0.48425 0.0
C416 C 0.60997 0.3045 0.40837 0.0
C417 C 0.58059 0.29232 0.38979 0.0
C418 C 0.63758 0.2841 0.41937 0.0
C419 C 0.63545 0.2507 0.41213 0.0
C420 C 0.60557 0.23823 0.39394 0.0
C421 C 0.57869 0.2592 0.38274 0.0
C422 C 0.66926 0.29835 0.43827 0.0
C423 C 0.602 0.20271 0.38622 0.0
H424 H 0.74001 0.19427 0.39029 0.0
H425 H 0.6912 0.18174 0.49385 0.0
H426 H 0.6701 0.22998 0.34596 0.0
H427 H 0.69349 0.26348 0.36438 0.0
H428 H 0.71771 0.22969 0.34654 0.0
H429 H 0.6386 0.20752 0.51007 0.0
H430 H 0.63344 0.24681 0.4901 0.0
H431 H 0.60917 0.21353 0.47238 0.0
H432 H 0.61171 0.33008 0.41371 0.0
H433 H 0.55596 0.24954 0.36862 0.0
H434 H 0.69353 0.2933 0.4225 0.0
H435 H 0.67268 0.28699 0.46514 0.0
H436 H 0.66686 0.32477 0.44192 0.0
H437 H 0.62391 0.19468 0.36856 0.0
H438 H 0.57656 0.19674 0.37287 0.0
H439 H 0.60392 0.18879 0.41171 0.0
C440 C 0.32414 0.45507 0.94171 0.0
C441 C 0.32119 0.45604 0.97946 0.0
C442 C 0.34109 0.47993 0.9227 0.0
C443 C 0.35641 0.50581 0.94196 0.0
C444 C 0.3517 0.5079 0.97973 0.0
C445 C 0.33348 0.48338 0.99784 0.0
C446 C 0.34441 0.47748 0.88223 0.0
C447 C 0.36819 0.53471 0.00147 0.0
C448 C 0.44048 0.54139 0.90337 0.0
C449 C 0.42907 0.5717 0.89185 0.0
C450 C 0.41704 0.51984 0.91982 0.0
C451 C 0.381 0.52839 0.92354 0.0
C452 C 0.36914 0.55874 0.91096 0.0
C453 C 0.39359 0.5804 0.8959 0.0
C454 C 0.43107 0.48821 0.93394 0.0
C455 C 0.33072 0.56817 0.91321 0.0
H456 H 0.31485 0.43417 0.92707 0.0
H457 H 0.33025 0.48501 0.02682 0.0
H458 H 0.33931 0.50114 0.86934 0.0
H459 H 0.3717 0.47019 0.87509 0.0
H460 H 0.32584 0.45947 0.87079 0.0
H461 H 0.35984 0.53416 0.03018 0.0
H462 H 0.39739 0.53251 0.00041 0.0
H463 H 0.3612 0.55846 0.98991 0.0
H464 H 0.46808 0.53491 0.9004 0.0
H465 H 0.3849 0.60386 0.88664 0.0
H466 H 0.41776 0.46791 0.9201 0.0
H467 H 0.42527 0.48596 0.96318 0.0
H468 H 0.46004 0.48576 0.92995 0.0
H469 H 0.31412 0.54963 0.89992 0.0
H470 H 0.32548 0.59182 0.90029 0.0
H471 H 0.32231 0.56942 0.94181 0.0
C472 C 0.6898 0.5465 0.45111 0.0
C473 C 0.66858 0.57122 0.46489 0.0
C474 C 0.67465 0.5201 0.43314 0.0
C475 C 0.63751 0.5187 0.42861 0.0
C476 C 0.61622 0.54438 0.44105 0.0
C477 C 0.63201 0.57024 0.45916 0.0
C478 C 0.69817 0.49311 0.42041 0.0
C479 C 0.57658 0.54407 0.43637 0.0
C480 C 0.59242 0.4625 0.36222 0.0
C481 C 0.57862 0.43892 0.38544 0.0
C482 C 0.61305 0.48793 0.37561 0.0
C483 C 0.62034 0.48963 0.41302 0.0
C484 C 0.60823 0.4649 0.43622 0.0
C485 C 0.58741 0.43994 0.42219 0.0
C486 C 0.62537 0.51388 0.35003 0.0
C487 C 0.61582 0.4656 0.47621 0.0
H488 H 0.71808 0.54717 0.45572 0.0
H489 H 0.61563 0.58955 0.46944 0.0
H490 H 0.69273 0.47115 0.43652 0.0
H491 H 0.69247 0.48724 0.39181 0.0
H492 H 0.72664 0.49914 0.42306 0.0
H493 H 0.56414 0.56688 0.44537 0.0
H494 H 0.56966 0.53999 0.40765 0.0
H495 H 0.56505 0.52398 0.45218 0.0
H496 H 0.58585 0.46191 0.33377 0.0
H497 H 0.57722 0.42164 0.44026 0.0
H498 H 0.65387 0.51892 0.35407 0.0
H499 H 0.61082 0.53649 0.35568 0.0
H500 H 0.62095 0.50727 0.32136 0.0
H501 H 0.64443 0.46939 0.48109 0.0
H502 H 0.60754 0.44305 0.48992 0.0
H503 H 0.60154 0.48602 0.48876 0.0
C504 C 0.68299 0.45871 0.95352 0.0
C505 C 0.66245 0.43279 0.96554 0.0
C506 C 0.66719 0.4855 0.93686 0.0
C507 C 0.63011 0.48604 0.93172 0.0
C508 C 0.6095 0.45928 0.94255 0.0
C509 C 0.6259 0.4331 0.95956 0.0
C510 C 0.68997 0.5137 0.92603 0.0
C511 C 0.56998 0.45863 0.93699 0.0
C512 C 0.5785 0.56416 0.92498 0.0
C513 C 0.57183 0.56612 0.88781 0.0
C514 C 0.59878 0.53897 0.93944 0.0
C515 C 0.61241 0.51493 0.91625 0.0
C516 C 0.60687 0.51739 0.8786 0.0
C517 C 0.58686 0.54305 0.86481 0.0
C518 C 0.60454 0.53744 0.97971 0.0
C519 C 0.62067 0.49212 0.85301 0.0
H520 H 0.71122 0.45858 0.95848 0.0
H521 H 0.61007 0.41293 0.96869 0.0
H522 H 0.68542 0.51992 0.8973 0.0
H523 H 0.68264 0.53508 0.94226 0.0
H524 H 0.71855 0.5088 0.93002 0.0
H525 H 0.55811 0.43525 0.94502 0.0
H526 H 0.55743 0.47798 0.9531 0.0
H527 H 0.56355 0.46327 0.90825 0.0
H528 H 0.56725 0.58198 0.94293 0.0
H529 H 0.5819 0.54428 0.83605 0.0
H530 H 0.63302 0.5343 0.98583 0.0
H531 H 0.59043 0.51631 0.991 0.0
H532 H 0.59491 0.55939 0.99364 0.0
H533 H 0.6493 0.48811 0.8575 0.0
H534 H 0.61646 0.4988 0.8243 0.0
H535 H 0.60706 0.46893 0.85825 0.0
C536 C 0.31595 0.54049 0.45103 0.0
C537 C 0.33638 0.56407 0.4682 0.0
C538 C 0.33211 0.51414 0.43383 0.0
C539 C 0.36944 0.51152 0.43389 0.0
C540 C 0.39009 0.53596 0.45006 0.0
C541 C 0.37332 0.56193 0.46685 0.0
C542 C 0.30929 0.4887 0.41654 0.0
C543 C 0.42997 0.53433 0.45045 0.0
C544 C 0.41884 0.43245 0.42517 0.0
C545 C 0.4327 0.43512 0.39025 0.0
C546 C 0.39642 0.45634 0.43914 0.0
C547 C 0.38744 0.48327 0.41751 0.0
C548 C 0.39948 0.48494 0.38145 0.0
C549 C 0.42205 0.46094 0.36833 0.0
C550 C 0.38413 0.45373 0.47775 0.0
C551 C 0.39024 0.51302 0.35736 0.0
H552 H 0.2874 0.54202 0.4522 0.0
H553 H 0.38918 0.58041 0.47964 0.0
H554 H 0.31778 0.48449 0.3883 0.0
H555 H 0.31243 0.46563 0.43127 0.0
H556 H 0.28088 0.49538 0.41658 0.0
H557 H 0.44211 0.55556 0.46375 0.0
H558 H 0.4387 0.51233 0.4649 0.0
H559 H 0.4402 0.53278 0.42247 0.0
H560 H 0.42683 0.41252 0.44221 0.0
H561 H 0.43218 0.4629 0.34106 0.0
H562 H 0.35528 0.45808 0.47954 0.0
H563 H 0.39742 0.47244 0.49423 0.0
H564 H 0.39009 0.42981 0.48966 0.0
H565 H 0.36152 0.51818 0.3586 0.0
H566 H 0.39769 0.50862 0.3288 0.0
H567 H 0.40432 0.53484 0.36684 0.0
C568 C 0.85302 0.93733 0.94065 0.0
C569 C 0.82654 0.9446 0.9656 0.0
C570 C 0.87158 0.96193 0.92295 0.0
C571 C 0.86304 0.99447 0.93023 0.0
C572 C 0.83465 1.00176 0.95373 0.0
C573 C 0.81698 0.97665 0.97157 0.0
C574 C 0.90198 0.9531 0.89856 0.0
C575 C 0.82432 0.03608 0.96169 0.0
C576 C 0.93847 0.05432 0.92515 0.0
C577 C 0.9338 0.06774 0.89076 0.0
C578 C 0.91546 0.03064 0.93828 0.0
C579 C 0.88652 0.02059 0.91684 0.0
C580 C 0.88099 0.03472 0.88253 0.0
C581 C 0.90496 0.0579 0.86969 0.0
C582 C 0.9227 0.01578 0.97476 0.0
C583 C 0.84999 0.02512 0.85929 0.0
H584 H 0.86057 0.91243 0.93659 0.0
H585 H 0.79663 0.98206 0.9912 0.0
H586 H 0.90001 0.96615 0.87253 0.0
H587 H 0.92722 0.96038 0.91144 0.0
H588 H 0.90301 0.92687 0.89301 0.0
H589 H 0.79867 0.03756 0.97614 0.0
H590 H 0.8449 0.04748 0.97872 0.0
H591 H 0.82245 0.05021 0.93635 0.0
H592 H 0.96084 0.06162 0.94148 0.0
H593 H 0.90112 0.06837 0.84317 0.0
H594 H 0.92682 0.98948 0.97182 0.0
H595 H 0.89964 0.01921 0.99278 0.0
H596 H 0.94636 0.02628 0.98802 0.0
H597 H 0.85231 0.99942 0.85166 0.0
H598 H 0.8482 0.03976 0.83427 0.0
H599 H 0.82502 0.0278 0.87466 0.0
C600 C 0.13493 0.06726 0.46058 0.0
C601 C 0.17158 0.0679 0.46579 0.0
C602 C 0.1188 0.04234 0.44125 0.0
C603 C 0.13984 0.01725 0.42699 0.0
C604 C 0.17706 0.01845 0.43085 0.0
C605 C 0.19256 0.04393 0.45012 0.0
C606 C 0.07907 0.04223 0.43737 0.0
C607 C 0.20031 0.99208 0.41612 0.0
C608 C 0.08899 0.93919 0.41869 0.0
C609 C 0.07887 0.93966 0.38229 0.0
C610 C 0.11065 0.96335 0.43306 0.0
C611 C 0.12228 0.98878 0.41058 0.0
C612 C 0.11376 0.9885 0.37339 0.0
C613 C 0.09226 0.96383 0.35963 0.0
C614 C 0.11951 0.96255 0.47279 0.0
C615 C 0.1256 0.01522 0.34858 0.0
H616 H 0.11876 0.08606 0.47231 0.0
H617 H 0.2209 0.04439 0.45427 0.0
H618 H 0.07155 0.03922 0.40864 0.0
H619 H 0.06782 0.02159 0.4525 0.0
H620 H 0.06685 0.0647 0.44768 0.0
H621 H 0.2288 0.99823 0.41803 0.0
H622 H 0.19558 0.96957 0.43148 0.0
H623 H 0.19368 0.98714 0.38751 0.0
H624 H 0.07916 0.92036 0.43628 0.0
H625 H 0.08468 0.96435 0.33143 0.0
H626 H 0.10567 0.9825 0.48674 0.0
H627 H 0.14827 0.96612 0.47691 0.0
H628 H 0.1116 0.93952 0.48569 0.0
H629 H 0.1111 0.0376 0.35534 0.0
H630 H 0.12066 0.00944 0.31976 0.0
H631 H 0.15416 0.0202 0.35226 0.0
C632 C 0.19643 0.96755 0.96042 0.0
C633 C 0.17735 0.94558 0.98156 0.0
C634 C 0.17925 0.99302 0.94257 0.0
C635 C 0.14219 0.99653 0.94597 0.0
C636 C 0.1228 0.97416 0.9669 0.0
C637 C 0.14057 0.94896 0.98428 0.0
C638 C 0.20075 0.01632 0.92035 0.0
C639 C 0.08321 0.97686 0.97102 0.0
C640 C 0.09497 0.07591 0.92956 0.0
C641 C 0.07901 0.07033 0.89598 0.0
C642 C 0.11692 0.05262 0.94554 0.0
C643 C 0.12322 0.02321 0.92738 0.0
C644 C 0.10866 0.01818 0.89269 0.0
C645 C 0.08671 0.04174 0.87747 0.0
C646 C 0.13197 0.05886 0.98259 0.0
C647 C 0.11493 0.98727 0.87231 0.0
H648 H 0.22487 0.9652 0.95841 0.0
H649 H 0.12556 0.93172 -2e-05 0.0
H650 H 0.19081 0.01681 0.89219 0.0
H651 H 0.19786 0.04099 0.93132 0.0
H652 H 0.22925 0.00999 0.91996 0.0
H653 H 0.07211 0.95768 0.98855 0.0
H654 H 0.07627 1.00057 0.98275 0.0
H655 H 0.07032 0.97538 0.94419 0.0
H656 H 0.08928 0.09794 0.94404 0.0
H657 H 0.07487 0.03735 0.8513 0.0
H658 H 0.16079 0.05405 0.98288 0.0
H659 H 0.11958 0.04226 0.00235 0.0
H660 H 0.12736 0.08397 0.99165 0.0
H661 H 0.14355 0.98168 0.87132 0.0
H662 H 0.10461 0.98838 0.84427 0.0
H663 H 0.10171 0.96708 0.88652 0.0
C664 C 0.87912 0.06447 0.47326 0.0
C665 C 0.84223 0.06742 0.47455 0.0
C666 C 0.89527 0.03828 0.45617 0.0
C667 C 0.87406 0.01444 0.43962 0.0
C668 C 0.83681 0.01764 0.43995 0.0
C669 C 0.8213 0.04414 0.45743 0.0
C670 C 0.93511 0.03598 0.45619 0.0
C671 C 0.81337 0.99282 0.42236 0.0
C672 C 0.9235 0.96464 0.3706 0.0
C673 C 0.93367 0.93771 0.39102 0.0
C674 C 0.9024 0.98895 0.38548 0.0
C675 C 0.89132 0.98645 0.42181 0.0
C676 C 0.89992 0.95855 0.44202 0.0
C677 C 0.92088 0.9344 0.42632 0.0
C678 C 0.89356 0.01809 0.36286 0.0
C679 C 0.88861 0.95502 0.48086 0.0
H680 H 0.89547 0.08267 0.48591 0.0
H681 H 0.79278 0.04616 0.45858 0.0
H682 H 0.94352 0.01334 0.46953 0.0
H683 H 0.94509 0.03528 0.42807 0.0
H684 H 0.94776 0.05652 0.47034 0.0
H685 H 0.78497 0.99938 0.42385 0.0
H686 H 0.82078 0.98982 0.39361 0.0
H687 H 0.81713 0.96917 0.43572 0.0
H688 H 0.93284 0.96719 0.34311 0.0
H689 H 0.92855 0.91367 0.44226 0.0
H690 H 0.90805 0.03932 0.37334 0.0
H691 H 0.86494 0.02359 0.36456 0.0
H692 H 0.90075 0.01474 0.33406 0.0
H693 H 0.90273 0.973 0.49764 0.0
H694 H 0.89432 0.93065 0.49171 0.0
H695 H 0.85992 0.95984 0.48361 0.0
C696 C 0.31584 0.37429 0.11684 0.0
C697 C 0.33483 0.38336 0.08599 0.0
C698 C 0.33312 0.36921 0.14991 0.0
C699 C 0.37017 0.37338 0.15205 0.0
C700 C 0.38956 0.38158 0.12073 0.0
C701 C 0.37167 0.38633 0.08808 0.0
C702 C 0.31166 0.36023 0.18272 0.0
C703 C 0.42915 0.3861 0.12186 0.0
C704 C 0.41584 0.39564 0.23954 0.0
C705 C 0.43264 0.36666 0.24863 0.0
C706 C 0.39412 0.3978 0.20896 0.0
C707 C 0.38888 0.37029 0.18713 0.0
C708 C 0.40416 0.34057 0.19725 0.0
C709 C 0.42593 0.33913 0.22784 0.0
C710 C 0.37826 0.42994 0.19901 0.0
C711 C 0.39887 0.31064 0.17486 0.0
H712 H 0.28734 0.37215 0.11538 0.0
H713 H 0.38654 0.39272 0.06414 0.0
H714 H 0.32272 0.33836 0.19563 0.0
H715 H 0.31303 0.37989 0.20288 0.0
H716 H 0.28348 0.35576 0.17602 0.0
H717 H 0.44036 0.39174 0.0949 0.0
H718 H 0.43592 0.40598 0.14057 0.0
H719 H 0.44206 0.36401 0.13228 0.0
H720 H 0.42068 0.41701 0.25553 0.0
H721 H 0.43846 0.31653 0.23487 0.0
H722 H 0.3495 0.42745 0.19405 0.0
H723 H 0.39042 0.4388 0.17364 0.0
H724 H 0.38241 0.44831 0.22035 0.0
H725 H 0.37041 0.30696 0.16902 0.0
H726 H 0.40932 0.28879 0.18845 0.0
H727 H 0.41257 0.31346 0.1486 0.0
C728 C 0.62925 0.63775 0.5817 0.0
C729 C 0.66598 0.6346 0.57887 0.0
C730 C 0.61295 0.6413 0.61538 0.0
C731 C 0.63389 0.64133 0.64705 0.0
C732 C 0.67112 0.63908 0.6443 0.0
C733 C 0.68677 0.63592 0.61014 0.0
C734 C 0.5732 0.64408 0.61712 0.0
C735 C 0.69425 0.6387 0.67748 0.0
C736 C 0.588 0.67101 0.73178 0.0
C737 C 0.57491 0.64212 0.74613 0.0
C738 C 0.60848 0.67112 0.7002 0.0
C739 C 0.61639 0.64163 0.68294 0.0
C740 C 0.60497 0.61231 0.69851 0.0
C741 C 0.58421 0.61293 0.72979 0.0
C742 C 0.62003 0.70286 0.68429 0.0
C743 C 0.61333 0.58032 0.68125 0.0
H744 H 0.61321 0.63711 0.55746 0.0
H745 H 0.71517 0.63327 0.60796 0.0
H746 H 0.56207 0.6227 0.63101 0.0
H747 H 0.56554 0.66555 0.63304 0.0
H748 H 0.56101 0.64589 0.58993 0.0
H749 H 0.72281 0.63931 0.67063 0.0
H750 H 0.6881 0.65955 0.69502 0.0
H751 H 0.68888 0.61661 0.69338 0.0
H752 H 0.58091 0.69367 0.74426 0.0
H753 H 0.57453 0.5905 0.74099 0.0
H754 H 0.60559 0.70719 0.65869 0.0
H755 H 0.64861 0.70234 0.67778 0.0
H756 H 0.61487 0.72333 0.70279 0.0
H757 H 0.59924 0.57835 0.65509 0.0
H758 H 0.60541 0.55969 0.69853 0.0
H759 H 0.64202 0.57847 0.67556 0.0
C760 C 0.62771 0.36478 0.08268 0.0
C761 C 0.66435 0.36797 0.07877 0.0
C762 C 0.61243 0.36038 0.11674 0.0
C763 C 0.63436 0.35922 0.14767 0.0
C764 C 0.67149 0.36115 0.14379 0.0
C765 C 0.68609 0.36546 0.1093 0.0
C766 C 0.57271 0.3582 0.11971 0.0
C767 C 0.69567 0.3601 0.17616 0.0
C768 C 0.58784 0.38815 0.23174 0.0
C769 C 0.57721 0.35911 0.24769 0.0
C770 C 0.60814 0.38844 0.20021 0.0
C771 C 0.61794 0.35895 0.18406 0.0
C772 C 0.60906 0.32953 0.2011 0.0
C773 C 0.58885 0.32995 0.23289 0.0
C774 C 0.61742 0.42035 0.18312 0.0
C775 C 0.61914 0.29763 0.18469 0.0
H776 H 0.61089 0.36615 0.05904 0.0
H777 H 0.71443 0.36807 0.10637 0.0
H778 H 0.56507 0.33655 0.13539 0.0
H779 H 0.56247 0.37948 0.1344 0.0
H780 H 0.55965 0.35713 0.09289 0.0
H781 H 0.72392 0.3584 0.1683 0.0
H782 H 0.69199 0.3822 0.19248 0.0
H783 H 0.68902 0.33931 0.19367 0.0
H784 H 0.57935 0.41079 0.24335 0.0
H785 H 0.58076 0.30742 0.24511 0.0
H786 H 0.60286 0.42308 0.15731 0.0
H787 H 0.64603 0.42137 0.17682 0.0
H788 H 0.61069 0.44102 0.20079 0.0
H789 H 0.60353 0.29368 0.15974 0.0
H790 H 0.61418 0.27723 0.2034 0.0
H791 H 0.64744 0.29757 0.17696 0.0
C792 C 0.37248 0.62569 0.58579 0.0
C793 C 0.33558 0.6264 0.58244 0.0
C794 C 0.38887 0.62935 0.61936 0.0
C795 C 0.3679 0.63435 0.65042 0.0
C796 C 0.33069 0.63634 0.64715 0.0
C797 C 0.3149 0.63225 0.61311 0.0
C798 C 0.42867 0.62715 0.62163 0.0
C799 C 0.30759 0.64205 0.67968 0.0
C800 C 0.41428 0.60953 0.73656 0.0
C801 C 0.42965 0.63867 0.74737 0.0
C802 C 0.39237 0.60807 0.70606 0.0
C803 C 0.38537 0.63649 0.68623 0.0
C804 C 0.39886 0.6663 0.69843 0.0
C805 C 0.42102 0.66701 0.72875 0.0
C806 C 0.37863 0.57579 0.69377 0.0
C807 C 0.39154 0.69719 0.67832 0.0
H808 H 0.38865 0.62196 0.56204 0.0
H809 H 0.28638 0.63275 0.61067 0.0
H810 H 0.43961 0.64945 0.63366 0.0
H811 H 0.43632 0.60686 0.63947 0.0
H812 H 0.4411 0.62347 0.59482 0.0
H813 H 0.2794 0.64535 0.67222 0.0
H814 H 0.30964 0.6213 0.69841 0.0
H815 H 0.3167 0.66365 0.69456 0.0
H816 H 0.42065 0.58754 0.75089 0.0
H817 H 0.43237 0.68971 0.73727 0.0
H818 H 0.39198 0.56883 0.66831 0.0
H819 H 0.3499 0.57712 0.68809 0.0
H820 H 0.38332 0.55661 0.71411 0.0
H821 H 0.4062 0.69715 0.65241 0.0
H822 H 0.39971 0.71871 0.69398 0.0
H823 H 0.36303 0.69925 0.67181 0.0
C824 C 0.81673 0.87579 0.11184 0.0
C825 C 0.83624 0.88472 0.08126 0.0
C826 C 0.83319 0.87213 0.14559 0.0
C827 C 0.86997 0.8776 0.14874 0.0
C828 C 0.88981 0.88639 0.11792 0.0
C829 C 0.87274 0.88973 0.08458 0.0
C830 C 0.81124 0.86263 0.17787 0.0
C831 C 0.92913 0.89232 0.12013 0.0
C832 C 0.91376 0.89854 0.23773 0.0
C833 C 0.93099 0.86961 0.24622 0.0
C834 C 0.89244 0.9011 0.20686 0.0
C835 C 0.8881 0.87407 0.1841 0.0
C836 C 0.90379 0.84436 0.1936 0.0
C837 C 0.92508 0.8425 0.22451 0.0
C838 C 0.87608 0.93319 0.19764 0.0
C839 C 0.89954 0.81491 0.17018 0.0
H840 H 0.78847 0.87216 0.10951 0.0
H841 H 0.8881 0.89603 0.06094 0.0
H842 H 0.82181 0.84019 0.19 0.0
H843 H 0.81283 0.88161 0.19882 0.0
H844 H 0.78305 0.85876 0.17078 0.0
H845 H 0.94063 0.89928 0.09369 0.0
H846 H 0.9347 0.91174 0.13985 0.0
H847 H 0.94275 0.87033 0.12986 0.0
H848 H 0.91798 0.91958 0.25441 0.0
H849 H 0.93795 0.81994 0.23104 0.0
H850 H 0.84755 0.9303 0.19164 0.0
H851 H 0.88879 0.94306 0.17303 0.0
H852 H 0.87914 0.95096 0.21978 0.0
H853 H 0.87125 0.81076 0.16392 0.0
H854 H 0.91043 0.79294 0.18316 0.0
H855 H 0.91342 0.81872 0.14417 0.0
C856 C 0.13208 0.12507 0.58662 0.0
C857 C 0.16893 0.12645 0.583 0.0
C858 C 0.11593 0.1278 0.62046 0.0
C859 C 0.1371 0.13232 0.65153 0.0
C860 C 0.17427 0.1345 0.64807 0.0
C861 C 0.18978 0.13147 0.6138 0.0
C862 C 0.07617 0.12549 0.62298 0.0
C863 C 0.19762 0.13953 0.68059 0.0
C864 C 0.08685 0.1657 0.7315 0.0
C865 C 0.07839 0.13756 0.75059 0.0
C866 C 0.10759 0.16457 0.7002 0.0
C867 C 0.11997 0.13454 0.68753 0.0
C868 C 0.11307 0.10625 0.70765 0.0
C869 C 0.09247 0.10811 0.73906 0.0
C870 C 0.11474 0.19532 0.67974 0.0
C871 C 0.12579 0.07376 0.69495 0.0
H872 H 0.11577 0.12181 0.56286 0.0
H873 H 0.21828 0.1323 0.61123 0.0
H874 H 0.06867 0.10511 0.64074 0.0
H875 H 0.06532 0.14772 0.63524 0.0
H876 H 0.06355 0.12195 0.59622 0.0
H877 H 0.22592 0.14197 0.67316 0.0
H878 H 0.18934 0.16146 0.69536 0.0
H879 H 0.19479 0.11894 0.69943 0.0
H880 H 0.07645 0.18863 0.74047 0.0
H881 H 0.08617 0.08625 0.75368 0.0
H882 H 0.1 0.19504 0.65386 0.0
H883 H 0.14322 0.19736 0.67314 0.0
H884 H 0.10664 0.21698 0.69519 0.0
H885 H 0.11181 0.06715 0.6697 0.0
H886 H 0.12107 0.05459 0.71528 0.0
H887 H 0.15442 0.07461 0.68872 0.0
C888 C 0.19087 0.89926 0.12136 0.0
C889 C 0.18705 0.87831 0.09214 0.0
C890 C 0.17272 0.89366 0.15375 0.0
C891 C 0.14945 0.86705 0.15633 0.0
C892 C 0.14695 0.84497 0.12737 0.0
C893 C 0.1661 0.85076 0.09564 0.0
C894 C 0.17669 0.91736 0.18429 0.0
C895 C 0.12189 0.81673 0.12869 0.0
C896 C 0.10678 0.8457 0.24629 0.0
C897 C 0.0752 0.86319 0.24414 0.0
C898 C 0.13154 0.8468 0.21803 0.0
C899 C 0.12396 0.86515 0.18673 0.0
C900 C 0.0917 0.88221 0.18423 0.0
C901 C 0.06796 0.88131 0.21311 0.0
C902 C 0.16598 0.82887 0.22186 0.0
C903 C 0.08217 0.90148 0.15102 0.0
H904 H 0.20713 0.92058 0.1184 0.0
H905 H 0.16302 0.83482 0.07271 0.0
H906 H 0.15254 0.93237 0.18618 0.0
H907 H 0.17978 0.90455 0.21038 0.0
H908 H 0.19973 0.93354 0.18032 0.0
H909 H 0.12627 0.79976 0.106 0.0
H910 H 0.12473 0.80345 0.15448 0.0
H911 H 0.09429 0.82563 0.12722 0.0
H912 H 0.11245 0.83181 0.27038 0.0
H913 H 0.04336 0.89456 0.21117 0.0
H914 H 0.18837 0.84605 0.22032 0.0
H915 H 0.16917 0.8116 0.19932 0.0
H916 H 0.16772 0.81549 0.24776 0.0
H917 H 0.10151 0.92122 0.14711 0.0
H918 H 0.05533 0.91216 0.1528 0.0
H919 H 0.08331 0.88595 0.12673 0.0
C920 C 0.81984 0.13678 0.61732 0.0
C921 C 0.84082 0.13393 0.58635 0.0
C922 C 0.83534 0.14145 0.65138 0.0
C923 C 0.87258 0.14349 0.65428 0.0
C924 C 0.89368 0.14213 0.62281 0.0
C925 C 0.87753 0.13728 0.58926 0.0
C926 C 0.81203 0.1427 0.68436 0.0
C927 C 0.93346 0.1445 0.62467 0.0
C928 C 0.92093 0.17372 0.73737 0.0
C929 C 0.93342 0.14476 0.75205 0.0
C930 C 0.89942 0.17376 0.70645 0.0
C931 C 0.89004 0.14415 0.69019 0.0
C932 C 0.90071 0.11485 0.70632 0.0
C933 C 0.92235 0.11553 0.73696 0.0
C934 C 0.88851 0.20546 0.69001 0.0
C935 C 0.89093 0.08275 0.69009 0.0
H936 H 0.79143 0.13413 0.61508 0.0
H937 H 0.89373 0.13562 0.56522 0.0
H938 H 0.81614 0.12069 0.70078 0.0
H939 H 0.81914 0.16358 0.70149 0.0
H940 H 0.78359 0.14436 0.67722 0.0
H941 H 0.94577 0.14545 0.59749 0.0
H942 H 0.94142 0.16629 0.63989 0.0
H943 H 0.94421 0.12335 0.6393 0.0
H944 H 0.92931 0.1964 0.74896 0.0
H945 H 0.93146 0.09304 0.74852 0.0
H946 H 0.85999 0.20526 0.68314 0.0
H947 H 0.90332 0.20937 0.66456 0.0
H948 H 0.89385 0.22602 0.70834 0.0
H949 H 0.86214 0.08164 0.68468 0.0
H950 H 0.89824 0.06229 0.7079 0.0
H951 H 0.90471 0.07974 0.66389 0.0
loop_
_geom_bond_atom_site_label_1
_geom_bond_atom_site_label_2
_geom_bond_distance
_geom_bond_site_symmetry_2
_ccdc_geom_bond_type
H0 C5 0.930 . S
H1 C8 0.930 . S
H2 C10 0.930 . S
H3 C4 1.016 . S
C4 H3 1.016 . S
C4 N11 1.286 . S
C5 H0 0.930 . S
C5 C6 1.397 . S
C5 C7 1.361 . S
C6 C5 1.397 . S
C6 C10 1.390 . S
C7 C5 1.361 . S
C7 C8 1.393 1_554 S
C7 N11 1.413 1_554 S
C8 H1 0.930 . S
C8 C7 1.393 1_556 S
C8 C9 1.399 . S
C9 C8 1.399 . S
C9 C10 1.381 1_556 S
C10 H2 0.930 . S
C10 C6 1.390 . S
C10 C9 1.381 1_554 S
N11 C4 1.286 . S
N11 C7 1.413 1_556 S
H12 C17 0.930 . S
H13 C20 0.930 . S
H14 C22 0.930 . S
H15 C16 1.016 . S
C16 H15 1.016 . S
C16 N23 1.286 . S
C17 H12 0.930 . S
C17 C18 1.397 . S
C17 C19 1.361 . S
C18 C17 1.397 . S
C18 C22 1.390 . S
C19 C17 1.361 . S
C19 C20 1.393 . S
C19 N23 1.413 . S
C20 H13 0.930 . S
C20 C19 1.393 . S
C20 C21 1.399 . S
C21 C20 1.399 . S
C21 C22 1.381 . S
C22 H14 0.930 . S
C22 C18 1.390 . S
C22 C21 1.381 . S
N23 C16 1.286 . S
N23 C19 1.413 . S
H24 C29 0.930 . S
H25 C32 0.930 . S
H26 C34 0.930 . S
H27 C28 1.016 . S
C28 H27 1.016 . S
C28 N35 1.286 1_556 S
C29 H24 0.930 . S
C29 C30 1.397 . S
C29 C31 1.361 . S
C30 C29 1.397 . S
C30 C34 1.390 . S
C31 C29 1.361 . S
C31 C32 1.393 1_554 S
C31 N35 1.413 . S
C32 H25 0.930 . S
C32 C31 1.393 1_556 S
C32 C33 1.399 . S
C33 C32 1.399 . S
C33 C34 1.381 1_556 S
C34 H26 0.930 . S
C34 C30 1.390 . S
C34 C33 1.381 1_554 S
N35 C28 1.286 1_554 S
N35 C31 1.413 . S
H36 C41 0.930 . S
H37 C44 0.930 . S
H38 C46 0.930 . S
H39 C40 1.016 . S
C40 H39 1.016 . S
C40 N47 1.286 . S
C41 H36 0.930 . S
C41 C42 1.397 . S
C41 C43 1.361 . S
C42 C41 1.397 . S
C42 C46 1.390 . S
C43 C41 1.361 . S
C43 C44 1.393 . S
C43 N47 1.413 . S
C44 H37 0.930 . S
C44 C43 1.393 . S
C44 C45 1.399 . S
C45 C44 1.399 . S
C45 C46 1.381 . S
C46 H38 0.930 . S
C46 C42 1.390 . S
C46 C45 1.381 . S
N47 C40 1.286 . S
N47 C43 1.413 . S
H48 C53 0.930 . S
H49 C56 0.930 . S
H50 C58 0.930 . S
H51 C52 1.016 . S
C52 H51 1.016 . S
C52 N59 1.286 . S
C53 H48 0.930 . S
C53 C54 1.397 . S
C53 C55 1.361 . S
C54 C53 1.397 . S
C54 C58 1.390 . S
C55 C53 1.361 . S
C55 C56 1.393 1_554 S
C55 N59 1.413 1_554 S
C56 H49 0.930 . S
C56 C55 1.393 1_556 S
C56 C57 1.399 . S
C57 C56 1.399 . S
C57 C58 1.381 1_556 S
C58 H50 0.930 . S
C58 C54 1.390 . S
C58 C57 1.381 1_554 S
N59 C52 1.286 . S
N59 C55 1.413 1_556 S
H60 C65 0.930 . S
H61 C68 0.930 . S
H62 C70 0.930 . S
H63 C64 1.016 . S
C64 H63 1.016 . S
C64 N71 1.286 . S
C65 H60 0.930 . S
C65 C66 1.397 . S
C65 C67 1.361 . S
C66 C65 1.397 . S
C66 C70 1.390 . S
C67 C65 1.361 . S
C67 C68 1.393 . S
C67 N71 1.413 . S
C68 H61 0.930 . S
C68 C67 1.393 . S
C68 C69 1.399 . S
C69 C68 1.399 . S
C69 C70 1.381 . S
C70 H62 0.930 . S
C70 C66 1.390 . S
C70 C69 1.381 . S
N71 C64 1.286 . S
N71 C67 1.413 . S
H72 C77 0.930 . S
H73 C80 0.930 . S
H74 C82 0.930 . S
H75 C76 1.016 . S
C76 H75 1.016 . S
C76 N83 1.286 1_556 S
C77 H72 0.930 . S
C77 C78 1.397 . S
C77 C79 1.361 . S
C78 C77 1.397 . S
C78 C82 1.390 . S
C79 C77 1.361 . S
C79 C80 1.393 1_554 S
C79 N83 1.413 . S
C80 H73 0.930 . S
C80 C79 1.393 1_556 S
C80 C81 1.399 . S
C81 C80 1.399 . S
C81 C82 1.381 1_556 S
C82 H74 0.930 . S
C82 C78 1.390 . S
C82 C81 1.381 1_554 S
N83 C76 1.286 1_554 S
N83 C79 1.413 . S
H84 C89 0.930 . S
H85 C92 0.930 . S
H86 C94 0.930 . S
H87 C88 1.016 . S
C88 H87 1.016 . S
C88 N95 1.286 . S
C89 H84 0.930 . S
C89 C90 1.397 . S
C89 C91 1.361 . S
C90 C89 1.397 . S
C90 C94 1.390 . S
C91 C89 1.361 . S
C91 C92 1.393 . S
C91 N95 1.413 . S
C92 H85 0.930 . S
C92 C91 1.393 . S
C92 C93 1.399 . S
C93 C92 1.399 . S
C93 C94 1.381 . S
C94 H86 0.930 . S
C94 C90 1.390 . S
C94 C93 1.381 . S
N95 C88 1.286 . S
N95 C91 1.413 . S
Fe96 O98 1.918 . S
Fe96 O101 1.997 1_455 S
Fe96 O102 2.002 1_455 S
Fe96 O107 1.976 . S
Fe96 O110 1.996 . S
Fe97 O98 1.918 . S
Fe97 O105 1.997 1_455 S
Fe97 O108 1.996 . S
Fe97 O112 1.976 . S
Fe97 O115 2.002 1_455 S
O98 Fe96 1.918 . S
O98 Fe97 1.918 . S
O98 Fe99 1.918 . S
Fe99 O98 1.918 . S
Fe99 O100 2.002 1_455 S
Fe99 O109 1.976 . S
Fe99 O113 1.996 . S
Fe99 O116 1.997 1_455 S
O100 Fe99 2.002 1_655 S
O100 C117 1.295 . S
O101 Fe96 1.997 1_655 S
O101 C117 1.235 . S
O102 Fe96 2.002 1_655 S
O102 C103 1.295 . S
C103 O102 1.295 . S
C103 O105 1.235 . S
C104 O109 1.287 . S
C104 O110 1.255 . S
O105 Fe97 1.997 1_655 S
O105 C103 1.235 . S
C106 O112 1.287 . S
C106 O113 1.255 . S
O107 Fe96 1.976 . S
O107 C114 1.287 . S
O108 Fe97 1.996 . S
O108 C114 1.255 . S
O109 Fe99 1.976 . S
O109 C104 1.287 . S
O110 Fe96 1.996 . S
O110 C104 1.255 . S
C111 O115 1.295 . S
C111 O116 1.235 . S
O112 Fe97 1.976 . S
O112 C106 1.287 . S
O113 Fe99 1.996 . S
O113 C106 1.255 . S
C114 O107 1.287 . S
C114 O108 1.255 . S
O115 Fe97 2.002 1_655 S
O115 C111 1.295 . S
O116 Fe99 1.997 1_655 S
O116 C111 1.235 . S
C117 O100 1.295 . S
C117 O101 1.235 . S
Fe118 O120 1.919 . S
Fe118 O123 1.981 1_655 S
Fe118 O124 1.986 1_655 S
Fe118 O129 1.992 . S
Fe118 O132 2.011 . S
Fe119 O120 1.919 . S
Fe119 O127 1.981 1_655 S
Fe119 O130 2.011 . S
Fe119 O134 1.992 . S
Fe119 O137 1.986 1_655 S
O120 Fe118 1.919 . S
O120 Fe119 1.919 . S
O120 Fe121 1.919 . S
Fe121 O120 1.919 . S
Fe121 O122 1.986 1_655 S
Fe121 O131 1.992 . S
Fe121 O135 2.012 . S
Fe121 O138 1.980 1_655 S
O122 Fe121 1.986 1_455 S
O122 C139 1.295 . S
O123 Fe118 1.981 1_455 S
O123 C139 1.235 . S
O124 Fe118 1.986 1_455 S
O124 C125 1.295 . S
C125 O124 1.295 . S
C125 O127 1.235 . S
C126 O131 1.287 . S
C126 O132 1.255 . S
O127 Fe119 1.981 1_455 S
O127 C125 1.235 . S
C128 O134 1.287 . S
C128 O135 1.255 . S
O129 Fe118 1.992 . S
O129 C136 1.287 . S
O130 Fe119 2.011 . S
O130 C136 1.255 . S
O131 Fe121 1.992 . S
O131 C126 1.287 . S
O132 Fe118 2.011 . S
O132 C126 1.255 . S
C133 O137 1.295 . S
C133 O138 1.235 . S
O134 Fe119 1.992 . S
O134 C128 1.287 . S
O135 Fe121 2.012 . S
O135 C128 1.255 . S
C136 O129 1.287 . S
C136 O130 1.255 . S
O137 Fe119 1.986 1_455 S
O137 C133 1.295 . S
O138 Fe121 1.980 1_455 S
O138 C133 1.235 . S
C139 O122 1.295 . S
C139 O123 1.235 . S
Fe140 O142 1.918 . S
Fe140 O145 1.997 . S
Fe140 O146 2.002 . S
Fe140 O151 1.976 . S
Fe140 O154 1.996 . S
Fe141 O142 1.918 . S
Fe141 O149 1.997 . S
Fe141 O152 1.996 . S
Fe141 O156 1.976 . S
Fe141 O159 2.002 . S
O142 Fe140 1.918 . S
O142 Fe141 1.918 . S
O142 Fe143 1.918 . S
Fe143 O142 1.918 . S
Fe143 O144 2.002 . S
Fe143 O153 1.976 . S
Fe143 O157 1.996 . S
Fe143 O160 1.997 . S
O144 Fe143 2.002 . S
O144 C161 1.295 . S
O145 Fe140 1.997 . S
O145 C161 1.235 . S
O146 Fe140 2.002 . S
O146 C147 1.295 . S
C147 O146 1.295 . S
C147 O149 1.235 . S
C148 O153 1.287 . S
C148 O154 1.255 . S
O149 Fe141 1.997 . S
O149 C147 1.235 . S
C150 O156 1.287 . S
C150 O157 1.255 . S
O151 Fe140 1.976 . S
O151 C158 1.287 . S
O152 Fe141 1.996 . S
O152 C158 1.255 . S
O153 Fe143 1.976 . S
O153 C148 1.287 . S
O154 Fe140 1.996 . S
O154 C148 1.255 . S
C155 O159 1.295 . S
C155 O160 1.235 . S
O156 Fe141 1.976 . S
O156 C150 1.287 . S
O157 Fe143 1.996 . S
O157 C150 1.255 . S
C158 O151 1.287 . S
C158 O152 1.255 . S
O159 Fe141 2.002 . S
O159 C155 1.295 . S
O160 Fe143 1.997 . S
O160 C155 1.235 . S
C161 O144 1.295 . S
C161 O145 1.235 . S
Fe162 O164 1.918 . S
Fe162 O167 1.997 . S
Fe162 O168 2.002 . S
Fe162 O173 1.976 . S
Fe162 O176 1.996 . S
Fe163 O164 1.918 . S
Fe163 O171 1.997 . S
Fe163 O174 1.996 . S
Fe163 O178 1.976 . S
Fe163 O181 2.002 . S
O164 Fe162 1.918 . S
O164 Fe163 1.918 . S
O164 Fe165 1.918 . S
Fe165 O164 1.918 . S
Fe165 O166 2.002 . S
Fe165 O175 1.976 . S
Fe165 O179 1.996 . S
Fe165 O182 1.997 . S
O166 Fe165 2.002 . S
O166 C183 1.295 . S
O167 Fe162 1.997 . S
O167 C183 1.235 . S
O168 Fe162 2.002 . S
O168 C169 1.295 . S
C169 O168 1.295 . S
C169 O171 1.235 . S
C170 O175 1.287 . S
C170 O176 1.255 . S
O171 Fe163 1.997 . S
O171 C169 1.235 . S
C172 O178 1.287 . S
C172 O179 1.255 . S
O173 Fe162 1.976 . S
O173 C180 1.287 . S
O174 Fe163 1.996 . S
O174 C180 1.255 . S
O175 Fe165 1.976 . S
O175 C170 1.287 . S
O176 Fe162 1.996 . S
O176 C170 1.255 . S
C177 O181 1.295 . S
C177 O182 1.235 . S
O178 Fe163 1.976 . S
O178 C172 1.287 . S
O179 Fe165 1.996 . S
O179 C172 1.255 . S
C180 O173 1.287 . S
C180 O174 1.255 . S
O181 Fe163 2.002 . S
O181 C177 1.295 . S
O182 Fe165 1.997 . S
O182 C177 1.235 . S
C183 O166 1.295 . S
C183 O167 1.235 . S
C184 C185 1.391 . S
C184 C186 1.394 . S
C184 H200 0.931 . S
C185 C184 1.391 . S
C185 C189 1.376 . S
C186 C184 1.394 . S
C186 C187 1.369 . S
C186 C190 1.531 . S
C187 C186 1.369 . S
C187 C188 1.410 . S
C187 C195 1.503 . S
C188 C187 1.410 . S
C188 C189 1.392 . S
C188 C191 1.511 . S
C189 C185 1.376 . S
C189 C188 1.392 . S
C189 H201 0.929 . S
C190 C186 1.531 . S
C190 H202 0.960 . S
C190 H203 0.962 . S
C190 H204 0.960 . S
C191 C188 1.511 . S
C191 H205 0.961 . S
C191 H206 0.961 . S
C191 H207 0.961 . S
C192 C193 1.370 . S
C192 C194 1.363 . S
C192 H208 0.931 . S
C193 C192 1.370 . S
C193 C197 1.408 . S
C194 C192 1.363 . S
C194 C195 1.370 . S
C194 C198 1.524 . S
C195 C187 1.503 . S
C195 C194 1.370 . S
C195 C196 1.403 . S
C196 C195 1.403 . S
C196 C197 1.404 . S
C196 C199 1.539 . S
C197 C193 1.408 . S
C197 C196 1.404 . S
C197 H209 0.930 . S
C198 C194 1.524 . S
C198 H210 0.956 . S
C198 H211 0.961 . S
C198 H212 0.961 . S
C199 C196 1.539 . S
C199 H213 0.958 . S
C199 H214 0.961 . S
C199 H215 0.960 . S
H200 C184 0.931 . S
H201 C189 0.929 . S
H202 C190 0.960 . S
H203 C190 0.962 . S
H204 C190 0.960 . S
H205 C191 0.961 . S
H206 C191 0.961 . S
H207 C191 0.961 . S
H208 C192 0.931 . S
H209 C197 0.930 . S
H210 C198 0.956 . S
H211 C198 0.961 . S
H212 C198 0.961 . S
H213 C199 0.958 . S
H214 C199 0.961 . S
H215 C199 0.960 . S
C216 C217 1.391 . S
C216 C218 1.394 . S
C216 H232 0.931 . S
C217 C216 1.391 . S
C217 C221 1.376 . S
C218 C216 1.394 . S
C218 C219 1.369 . S
C218 C222 1.531 . S
C219 C218 1.369 . S
C219 C220 1.410 . S
C219 C227 1.503 . S
C220 C219 1.410 . S
C220 C221 1.392 . S
C220 C223 1.511 . S
C221 C217 1.376 . S
C221 C220 1.392 . S
C221 H233 0.929 . S
C222 C218 1.531 . S
C222 H234 0.960 . S
C222 H235 0.962 . S
C222 H236 0.960 . S
C223 C220 1.511 . S
C223 H237 0.961 . S
C223 H238 0.961 . S
C223 H239 0.961 . S
C224 C225 1.370 . S
C224 C226 1.363 . S
C224 H240 0.931 . S
C225 C224 1.370 . S
C225 C229 1.408 . S
C226 C224 1.363 . S
C226 C227 1.370 . S
C226 C230 1.524 . S
C227 C219 1.503 . S
C227 C226 1.370 . S
C227 C228 1.403 . S
C228 C227 1.403 . S
C228 C229 1.404 . S
C228 C231 1.539 . S
C229 C225 1.408 . S
C229 C228 1.404 . S
C229 H241 0.930 . S
C230 C226 1.524 . S
C230 H242 0.956 . S
C230 H243 0.961 . S
C230 H244 0.961 . S
C231 C228 1.539 . S
C231 H245 0.958 . S
C231 H246 0.961 . S
C231 H247 0.960 . S
H232 C216 0.931 . S
H233 C221 0.929 . S
H234 C222 0.960 . S
H235 C222 0.962 . S
H236 C222 0.960 . S
H237 C223 0.961 . S
H238 C223 0.961 . S
H239 C223 0.961 . S
H240 C224 0.931 . S
H241 C229 0.930 . S
H242 C230 0.956 . S
H243 C230 0.961 . S
H244 C230 0.961 . S
H245 C231 0.958 . S
H246 C231 0.961 . S
H247 C231 0.960 . S
C248 C249 1.391 . S
C248 C250 1.394 . S
C248 H264 0.931 . S
C249 C248 1.391 . S
C249 C253 1.376 . S
C250 C248 1.394 . S
C250 C251 1.369 . S
C250 C254 1.531 . S
C251 C250 1.369 . S
C251 C252 1.410 . S
C251 C259 1.503 . S
C252 C251 1.410 . S
C252 C253 1.392 . S
C252 C255 1.511 . S
C253 C249 1.376 . S
C253 C252 1.392 . S
C253 H265 0.929 1_556 S
C254 C250 1.531 . S
C254 H266 0.960 . S
C254 H267 0.962 . S
C254 H268 0.960 . S
C255 C252 1.511 . S
C255 H269 0.961 1_556 S
C255 H270 0.961 . S
C255 H271 0.961 . S
C256 C257 1.370 . S
C256 C258 1.363 . S
C256 H272 0.931 . S
C257 C256 1.370 . S
C257 C261 1.408 . S
C258 C256 1.363 . S
C258 C259 1.370 . S
C258 C262 1.524 . S
C259 C251 1.503 . S
C259 C258 1.370 . S
C259 C260 1.403 . S
C260 C259 1.403 . S
C260 C261 1.404 . S
C260 C263 1.539 . S
C261 C257 1.408 . S
C261 C260 1.404 . S
C261 H273 0.930 . S
C262 C258 1.524 . S
C262 H274 0.956 . S
C262 H275 0.961 . S
C262 H276 0.961 . S
C263 C260 1.539 . S
C263 H277 0.958 . S
C263 H278 0.961 . S
C263 H279 0.960 . S
H264 C248 0.931 . S
H265 C253 0.929 1_554 S
H266 C254 0.960 . S
H267 C254 0.962 . S
H268 C254 0.960 . S
H269 C255 0.961 1_554 S
H270 C255 0.961 . S
H271 C255 0.961 . S
H272 C256 0.931 . S
H273 C261 0.930 . S
H274 C262 0.956 . S
H275 C262 0.961 . S
H276 C262 0.961 . S
H277 C263 0.958 . S
H278 C263 0.961 . S
H279 C263 0.960 . S
C280 C281 1.391 . S
C280 C282 1.394 . S
C280 H296 0.931 . S
C281 C280 1.391 . S
C281 C285 1.376 . S
C282 C280 1.394 . S
C282 C283 1.369 . S
C282 C286 1.531 . S
C283 C282 1.369 . S
C283 C284 1.410 . S
C283 C291 1.503 . S
C284 C283 1.410 . S
C284 C285 1.392 . S
C284 C287 1.511 . S
C285 C281 1.376 . S
C285 C284 1.392 . S
C285 H297 0.929 . S
C286 C282 1.531 . S
C286 H298 0.960 . S
C286 H299 0.962 . S
C286 H300 0.960 . S
C287 C284 1.511 . S
C287 H301 0.961 . S
C287 H302 0.961 . S
C287 H303 0.961 . S
C288 C289 1.370 . S
C288 C290 1.363 . S
C288 H304 0.931 . S
C289 C288 1.370 . S
C289 C293 1.408 . S
C290 C288 1.363 . S
C290 C291 1.370 . S
C290 C294 1.524 . S
C291 C283 1.503 . S
C291 C290 1.370 . S
C291 C292 1.403 . S
C292 C291 1.403 . S
C292 C293 1.404 . S
C292 C295 1.539 . S
C293 C289 1.408 . S
C293 C292 1.404 . S
C293 H305 0.930 . S
C294 C290 1.524 . S
C294 H306 0.956 . S
C294 H307 0.961 . S
C294 H308 0.961 . S
C295 C292 1.539 . S
C295 H309 0.958 . S
C295 H310 0.961 . S
C295 H311 0.960 . S
H296 C280 0.931 . S
H297 C285 0.929 . S
H298 C286 0.960 . S
H299 C286 0.962 . S
H300 C286 0.960 . S
H301 C287 0.961 . S
H302 C287 0.961 . S
H303 C287 0.961 . S
H304 C288 0.931 . S
H305 C293 0.930 . S
H306 C294 0.956 . S
H307 C294 0.961 . S
H308 C294 0.961 . S
H309 C295 0.958 . S
H310 C295 0.961 . S
H311 C295 0.960 . S
C312 C313 1.391 . S
C312 C314 1.394 . S
C312 H328 0.931 . S
C313 C312 1.391 . S
C313 C317 1.376 . S
C314 C312 1.394 . S
C314 C315 1.369 . S
C314 C318 1.531 . S
C315 C314 1.369 . S
C315 C316 1.410 . S
C315 C323 1.503 . S
C316 C315 1.410 . S
C316 C317 1.392 . S
C316 C319 1.511 . S
C317 C313 1.376 . S
C317 C316 1.392 . S
C317 H329 0.929 . S
C318 C314 1.531 . S
C318 H330 0.960 . S
C318 H331 0.962 . S
C318 H332 0.960 . S
C319 C316 1.511 . S
C319 H333 0.961 . S
C319 H334 0.961 . S
C319 H335 0.961 . S
C320 C321 1.370 . S
C320 C322 1.363 . S
C320 H336 0.931 . S
C321 C320 1.370 . S
C321 C325 1.408 . S
C322 C320 1.363 . S
C322 C323 1.370 . S
C322 C326 1.524 . S
C323 C315 1.503 . S
C323 C322 1.370 . S
C323 C324 1.403 . S
C324 C323 1.403 . S
C324 C325 1.404 . S
C324 C327 1.539 . S
C325 C321 1.408 . S
C325 C324 1.404 . S
C325 H337 0.930 . S
C326 C322 1.524 . S
C326 H338 0.956 . S
C326 H339 0.961 . S
C326 H340 0.961 . S
C327 C324 1.539 . S
C327 H341 0.958 . S
C327 H342 0.961 . S
C327 H343 0.960 . S
H328 C312 0.931 . S
H329 C317 0.929 . S
H330 C318 0.960 . S
H331 C318 0.962 . S
H332 C318 0.960 . S
H333 C319 0.961 . S
H334 C319 0.961 . S
H335 C319 0.961 . S
H336 C320 0.931 . S
H337 C325 0.930 . S
H338 C326 0.956 . S
H339 C326 0.961 . S
H340 C326 0.961 . S
H341 C327 0.958 . S
H342 C327 0.961 . S
H343 C327 0.960 . S
C344 C345 1.391 . S
C344 C346 1.394 . S
C344 H360 0.931 . S
C345 C344 1.391 . S
C345 C349 1.376 . S
C346 C344 1.394 . S
C346 C347 1.369 . S
C346 C350 1.531 . S
C347 C346 1.369 . S
C347 C348 1.410 . S
C347 C355 1.503 . S
C348 C347 1.410 . S
C348 C349 1.392 . S
C348 C351 1.511 . S
C349 C345 1.376 . S
C349 C348 1.392 . S
C349 H361 0.929 . S
C350 C346 1.531 . S
C350 H362 0.960 . S
C350 H363 0.962 . S
C350 H364 0.960 . S
C351 C348 1.511 . S
C351 H365 0.961 . S
C351 H366 0.961 . S
C351 H367 0.961 . S
C352 C353 1.370 . S
C352 C354 1.363 . S
C352 H368 0.931 . S
C353 C352 1.370 . S
C353 C357 1.408 . S
C354 C352 1.363 . S
C354 C355 1.370 . S
C354 C358 1.524 . S
C355 C347 1.503 . S
C355 C354 1.370 . S
C355 C356 1.403 . S
C356 C355 1.403 . S
C356 C357 1.404 . S
C356 C359 1.539 . S
C357 C353 1.408 . S
C357 C356 1.404 . S
C357 H369 0.930 . S
C358 C354 1.524 . S
C358 H370 0.956 . S
C358 H371 0.961 . S
C358 H372 0.961 . S
C359 C356 1.539 . S
C359 H373 0.958 . S
C359 H374 0.961 . S
C359 H375 0.960 . S
H360 C344 0.931 . S
H361 C349 0.929 . S
H362 C350 0.960 . S
H363 C350 0.962 . S
H364 C350 0.960 . S
H365 C351 0.961 . S
H366 C351 0.961 . S
H367 C351 0.961 . S
H368 C352 0.931 . S
H369 C357 0.930 . S
H370 C358 0.956 . S
H371 C358 0.961 . S
H372 C358 0.961 . S
H373 C359 0.958 . S
H374 C359 0.961 . S
H375 C359 0.960 . S
C376 C377 1.391 . S
C376 C378 1.394 . S
C376 H392 0.931 . S
C377 C376 1.391 . S
C377 C381 1.376 . S
C378 C376 1.394 . S
C378 C379 1.369 . S
C378 C382 1.531 . S
C379 C378 1.369 . S
C379 C380 1.410 . S
C379 C387 1.503 . S
C380 C379 1.410 . S
C380 C381 1.392 . S
C380 C383 1.511 . S
C381 C377 1.376 . S
C381 C380 1.392 . S
C381 H393 0.929 . S
C382 C378 1.531 . S
C382 H394 0.960 . S
C382 H395 0.962 . S
C382 H396 0.960 . S
C383 C380 1.511 . S
C383 H397 0.961 . S
C383 H398 0.961 . S
C383 H399 0.961 . S
C384 C385 1.370 . S
C384 C386 1.363 . S
C384 H400 0.931 . S
C385 C384 1.370 . S
C385 C389 1.408 . S
C386 C384 1.363 . S
C386 C387 1.370 . S
C386 C390 1.524 . S
C387 C379 1.503 . S
C387 C386 1.370 . S
C387 C388 1.403 . S
C388 C387 1.403 . S
C388 C389 1.404 . S
C388 C391 1.539 . S
C389 C385 1.408 . S
C389 C388 1.404 . S
C389 H401 0.930 . S
C390 C386 1.524 . S
C390 H402 0.956 . S
C390 H403 0.961 . S
C390 H404 0.961 . S
C391 C388 1.539 . S
C391 H405 0.958 . S
C391 H406 0.961 . S
C391 H407 0.960 . S
H392 C376 0.931 . S
H393 C381 0.929 . S
H394 C382 0.960 . S
H395 C382 0.962 . S
H396 C382 0.960 . S
H397 C383 0.961 . S
H398 C383 0.961 . S
H399 C383 0.961 . S
H400 C384 0.931 . S
H401 C389 0.930 . S
H402 C390 0.956 . S
H403 C390 0.961 . S
H404 C390 0.961 . S
H405 C391 0.958 . S
H406 C391 0.961 . S
H407 C391 0.960 . S
C408 C409 1.391 . S
C408 C410 1.394 . S
C408 H424 0.931 . S
C409 C408 1.391 . S
C409 C413 1.376 . S
C410 C408 1.394 . S
C410 C411 1.369 . S
C410 C414 1.531 . S
C411 C410 1.369 . S
C411 C412 1.410 . S
C411 C419 1.503 . S
C412 C411 1.410 . S
C412 C413 1.392 . S
C412 C415 1.511 . S
C413 C409 1.376 . S
C413 C412 1.392 . S
C413 H425 0.929 . S
C414 C410 1.531 . S
C414 H426 0.960 . S
C414 H427 0.962 . S
C414 H428 0.960 . S
C415 C412 1.511 . S
C415 H429 0.961 . S
C415 H430 0.961 . S
C415 H431 0.961 . S
C416 C417 1.370 . S
C416 C418 1.363 . S
C416 H432 0.931 . S
C417 C416 1.370 . S
C417 C421 1.408 . S
C418 C416 1.363 . S
C418 C419 1.370 . S
C418 C422 1.524 . S
C419 C411 1.503 . S
C419 C418 1.370 . S
C419 C420 1.403 . S
C420 C419 1.403 . S
C420 C421 1.404 . S
C420 C423 1.539 . S
C421 C417 1.408 . S
C421 C420 1.404 . S
C421 H433 0.930 . S
C422 C418 1.524 . S
C422 H434 0.956 . S
C422 H435 0.961 . S
C422 H436 0.961 . S
C423 C420 1.539 . S
C423 H437 0.958 . S
C423 H438 0.961 . S
C423 H439 0.960 . S
H424 C408 0.931 . S
H425 C413 0.929 . S
H426 C414 0.960 . S
H427 C414 0.962 . S
H428 C414 0.960 . S
H429 C415 0.961 . S
H430 C415 0.961 . S
H431 C415 0.961 . S
H432 C416 0.931 . S
H433 C421 0.930 . S
H434 C422 0.956 . S
H435 C422 0.961 . S
H436 C422 0.961 . S
H437 C423 0.958 . S
H438 C423 0.961 . S
H439 C423 0.960 . S
C440 C441 1.391 . S
C440 C442 1.394 . S
C440 H456 0.931 . S
C441 C440 1.391 . S
C441 C445 1.376 . S
C442 C440 1.394 . S
C442 C443 1.369 . S
C442 C446 1.531 . S
C443 C442 1.369 . S
C443 C444 1.410 . S
C443 C451 1.503 . S
C444 C443 1.410 . S
C444 C445 1.392 . S
C444 C447 1.511 1_556 S
C445 C441 1.376 . S
C445 C444 1.392 . S
C445 H457 0.929 1_556 S
C446 C442 1.531 . S
C446 H458 0.960 . S
C446 H459 0.962 . S
C446 H460 0.960 . S
C447 C444 1.511 1_554 S
C447 H461 0.961 . S
C447 H462 0.961 1_554 S
C447 H463 0.961 . S
C448 C449 1.370 . S
C448 C450 1.363 . S
C448 H464 0.931 . S
C449 C448 1.370 . S
C449 C453 1.408 . S
C450 C448 1.363 . S
C450 C451 1.370 . S
C450 C454 1.524 . S
C451 C443 1.503 . S
C451 C450 1.370 . S
C451 C452 1.403 . S
C452 C451 1.403 . S
C452 C453 1.404 . S
C452 C455 1.539 . S
C453 C449 1.408 . S
C453 C452 1.404 . S
C453 H465 0.930 . S
C454 C450 1.524 . S
C454 H466 0.956 . S
C454 H467 0.961 . S
C454 H468 0.961 . S
C455 C452 1.539 . S
C455 H469 0.958 . S
C455 H470 0.961 . S
C455 H471 0.960 . S
H456 C440 0.931 . S
H457 C445 0.929 1_554 S
H458 C446 0.960 . S
H459 C446 0.962 . S
H460 C446 0.960 . S
H461 C447 0.961 . S
H462 C447 0.961 1_556 S
H463 C447 0.961 . S
H464 C448 0.931 . S
H465 C453 0.930 . S
H466 C454 0.956 . S
H467 C454 0.961 . S
H468 C454 0.961 . S
H469 C455 0.958 . S
H470 C455 0.961 . S
H471 C455 0.960 . S
C472 C473 1.391 . S
C472 C474 1.394 . S
C472 H488 0.931 . S
C473 C472 1.391 . S
C473 C477 1.376 . S
C474 C472 1.394 . S
C474 C475 1.369 . S
C474 C478 1.531 . S
C475 C474 1.369 . S
C475 C476 1.410 . S
C475 C483 1.503 . S
C476 C475 1.410 . S
C476 C477 1.392 . S
C476 C479 1.511 . S
C477 C473 1.376 . S
C477 C476 1.392 . S
C477 H489 0.929 . S
C478 C474 1.531 . S
C478 H490 0.960 . S
C478 H491 0.962 . S
C478 H492 0.960 . S
C479 C476 1.511 . S
C479 H493 0.961 . S
C479 H494 0.961 . S
C479 H495 0.961 . S
C480 C481 1.370 . S
C480 C482 1.363 . S
C480 H496 0.931 . S
C481 C480 1.370 . S
C481 C485 1.408 . S
C482 C480 1.363 . S
C482 C483 1.370 . S
C482 C486 1.524 . S
C483 C475 1.503 . S
C483 C482 1.370 . S
C483 C484 1.403 . S
C484 C483 1.403 . S
C484 C485 1.404 . S
C484 C487 1.539 . S
C485 C481 1.408 . S
C485 C484 1.404 . S
C485 H497 0.930 . S
C486 C482 1.524 . S
C486 H498 0.956 . S
C486 H499 0.961 . S
C486 H500 0.961 . S
C487 C484 1.539 . S
C487 H501 0.958 . S
C487 H502 0.961 . S
C487 H503 0.960 . S
H488 C472 0.931 . S
H489 C477 0.929 . S
H490 C478 0.960 . S
H491 C478 0.962 . S
H492 C478 0.960 . S
H493 C479 0.961 . S
H494 C479 0.961 . S
H495 C479 0.961 . S
H496 C480 0.931 . S
H497 C485 0.930 . S
H498 C486 0.956 . S
H499 C486 0.961 . S
H500 C486 0.961 . S
H501 C487 0.958 . S
H502 C487 0.961 . S
H503 C487 0.960 . S
C504 C505 1.391 . S
C504 C506 1.394 . S
C504 H520 0.931 . S
C505 C504 1.391 . S
C505 C509 1.376 . S
C506 C504 1.394 . S
C506 C507 1.369 . S
C506 C510 1.531 . S
C507 C506 1.369 . S
C507 C508 1.410 . S
C507 C515 1.503 . S
C508 C507 1.410 . S
C508 C509 1.392 . S
C508 C511 1.511 . S
C509 C505 1.376 . S
C509 C508 1.392 . S
C509 H521 0.929 . S
C510 C506 1.531 . S
C510 H522 0.960 . S
C510 H523 0.962 . S
C510 H524 0.960 . S
C511 C508 1.511 . S
C511 H525 0.961 . S
C511 H526 0.961 . S
C511 H527 0.961 . S
C512 C513 1.370 . S
C512 C514 1.363 . S
C512 H528 0.931 . S
C513 C512 1.370 . S
C513 C517 1.408 . S
C514 C512 1.363 . S
C514 C515 1.370 . S
C514 C518 1.524 . S
C515 C507 1.503 . S
C515 C514 1.370 . S
C515 C516 1.403 . S
C516 C515 1.403 . S
C516 C517 1.404 . S
C516 C519 1.539 . S
C517 C513 1.408 . S
C517 C516 1.404 . S
C517 H529 0.930 . S
C518 C514 1.524 . S
C518 H530 0.956 . S
C518 H531 0.961 . S
C518 H532 0.961 . S
C519 C516 1.539 . S
C519 H533 0.958 . S
C519 H534 0.961 . S
C519 H535 0.960 . S
H520 C504 0.931 . S
H521 C509 0.929 . S
H522 C510 0.960 . S
H523 C510 0.962 . S
H524 C510 0.960 . S
H525 C511 0.961 . S
H526 C511 0.961 . S
H527 C511 0.961 . S
H528 C512 0.931 . S
H529 C517 0.930 . S
H530 C518 0.956 . S
H531 C518 0.961 . S
H532 C518 0.961 . S
H533 C519 0.958 . S
H534 C519 0.961 . S
H535 C519 0.960 . S
C536 C537 1.391 . S
C536 C538 1.394 . S
C536 H552 0.931 . S
C537 C536 1.391 . S
C537 C541 1.376 . S
C538 C536 1.394 . S
C538 C539 1.369 . S
C538 C542 1.531 . S
C539 C538 1.369 . S
C539 C540 1.410 . S
C539 C547 1.503 . S
C540 C539 1.410 . S
C540 C541 1.392 . S
C540 C543 1.511 . S
C541 C537 1.376 . S
C541 C540 1.392 . S
C541 H553 0.929 . S
C542 C538 1.531 . S
C542 H554 0.960 . S
C542 H555 0.962 . S
C542 H556 0.960 . S
C543 C540 1.511 . S
C543 H557 0.961 . S
C543 H558 0.961 . S
C543 H559 0.961 . S
C544 C545 1.370 . S
C544 C546 1.363 . S
C544 H560 0.931 . S
C545 C544 1.370 . S
C545 C549 1.408 . S
C546 C544 1.363 . S
C546 C547 1.370 . S
C546 C550 1.524 . S
C547 C539 1.503 . S
C547 C546 1.370 . S
C547 C548 1.403 . S
C548 C547 1.403 . S
C548 C549 1.404 . S
C548 C551 1.539 . S
C549 C545 1.408 . S
C549 C548 1.404 . S
C549 H561 0.930 . S
C550 C546 1.524 . S
C550 H562 0.956 . S
C550 H563 0.961 . S
C550 H564 0.961 . S
C551 C548 1.539 . S
C551 H565 0.958 . S
C551 H566 0.961 . S
C551 H567 0.960 . S
H552 C536 0.931 . S
H553 C541 0.929 . S
H554 C542 0.960 . S
H555 C542 0.962 . S
H556 C542 0.960 . S
H557 C543 0.961 . S
H558 C543 0.961 . S
H559 C543 0.961 . S
H560 C544 0.931 . S
H561 C549 0.930 . S
H562 C550 0.956 . S
H563 C550 0.961 . S
H564 C550 0.961 . S
H565 C551 0.958 . S
H566 C551 0.961 . S
H567 C551 0.960 . S
C568 C569 1.391 . S
C568 C570 1.394 . S
C568 H584 0.931 . S
C569 C568 1.391 . S
C569 C573 1.376 . S
C570 C568 1.394 . S
C570 C571 1.369 . S
C570 C574 1.531 . S
C571 C570 1.369 . S
C571 C572 1.410 . S
C571 C579 1.503 1_565 S
C572 C571 1.410 . S
C572 C573 1.392 . S
C572 C575 1.511 1_565 S
C573 C569 1.376 . S
C573 C572 1.392 . S
C573 H585 0.941 . S
C574 C570 1.531 . S
C574 H586 0.960 . S
C574 H587 0.962 . S
C574 H588 0.960 . S
C575 C572 1.511 1_545 S
C575 H589 0.961 . S
C575 H590 0.961 . S
C575 H591 0.961 . S
C576 C577 1.370 . S
C576 C578 1.363 . S
C576 H592 0.931 . S
C577 C576 1.370 . S
C577 C581 1.408 . S
C578 C576 1.363 . S
C578 C579 1.370 . S
C578 C582 1.524 1_545 S
C579 C571 1.503 1_545 S
C579 C578 1.370 . S
C579 C580 1.403 . S
C580 C579 1.403 . S
C580 C581 1.404 . S
C580 C583 1.539 . S
C581 C577 1.408 . S
C581 C580 1.404 . S
C581 H593 0.930 . S
C582 C578 1.524 1_565 S
C582 H594 0.956 . S
C582 H595 0.961 . S
C582 H596 0.961 . S
C583 C580 1.539 . S
C583 H597 0.958 . S
C583 H598 0.961 . S
C583 H599 0.960 . S
H584 C568 0.931 . S
H585 C573 0.941 . S
H586 C574 0.960 . S
H587 C574 0.962 . S
H588 C574 0.960 . S
H589 C575 0.961 . S
H590 C575 0.961 . S
H591 C575 0.961 . S
H592 C576 0.931 . S
H593 C581 0.930 . S
H594 C582 0.956 . S
H595 C582 0.961 . S
H596 C582 0.961 . S
H597 C583 0.958 . S
H598 C583 0.961 . S
H599 C583 0.960 . S
C600 C601 1.391 . S
C600 C602 1.394 . S
C600 H616 0.931 . S
C601 C600 1.391 . S
C601 C605 1.376 . S
C602 C600 1.394 . S
C602 C603 1.369 . S
C602 C606 1.531 . S
C603 C602 1.369 . S
C603 C604 1.410 . S
C603 C611 1.503 . S
C604 C603 1.410 . S
C604 C605 1.392 . S
C604 C607 1.511 1_545 S
C605 C601 1.376 . S
C605 C604 1.392 . S
C605 H617 0.929 . S
C606 C602 1.531 . S
C606 H618 0.960 . S
C606 H619 0.962 . S
C606 H620 0.960 . S
C607 C604 1.511 1_565 S
C607 H621 0.961 . S
C607 H622 0.961 . S
C607 H623 0.961 . S
C608 C609 1.370 . S
C608 C610 1.363 . S
C608 H624 0.931 . S
C609 C608 1.370 . S
C609 C613 1.408 . S
C610 C608 1.363 . S
C610 C611 1.370 1_565 S
C610 C614 1.524 . S
C611 C603 1.503 . S
C611 C610 1.370 1_545 S
C611 C612 1.403 . S
C612 C611 1.403 . S
C612 C613 1.404 1_545 S
C612 C615 1.539 . S
C613 C609 1.408 . S
C613 C612 1.404 1_565 S
C613 H625 0.930 . S
C614 C610 1.524 . S
C614 H626 0.956 . S
C614 H627 0.961 . S
C614 H628 0.961 . S
C615 C612 1.539 . S
C615 H629 0.958 . S
C615 H630 0.961 . S
C615 H631 0.960 . S
H616 C600 0.931 . S
H617 C605 0.929 . S
H618 C606 0.960 . S
H619 C606 0.962 . S
H620 C606 0.960 . S
H621 C607 0.961 . S
H622 C607 0.961 . S
H623 C607 0.961 . S
H624 C608 0.931 . S
H625 C613 0.930 . S
H626 C614 0.956 . S
H627 C614 0.961 . S
H628 C614 0.961 . S
H629 C615 0.958 . S
H630 C615 0.961 . S
H631 C615 0.960 . S
C632 C633 1.391 . S
C632 C634 1.394 . S
C632 H648 0.931 . S
C633 C632 1.391 . S
C633 C637 1.376 . S
C634 C632 1.394 . S
C634 C635 1.369 . S
C634 C638 1.531 . S
C635 C634 1.369 . S
C635 C636 1.410 . S
C635 C643 1.495 1_565 S
C636 C635 1.410 . S
C636 C637 1.392 . S
C636 C639 1.511 . S
C637 C633 1.376 . S
C637 C636 1.392 . S
C637 H649 0.907 1_556 S
C638 C634 1.531 . S
C638 H650 0.960 . S
C638 H651 0.962 1_565 S
C638 H652 0.960 . S
C639 C636 1.511 . S
C639 H653 0.961 1_556 S
C639 H654 0.961 . S
C639 H655 0.961 . S
C640 C641 1.370 . S
C640 C642 1.363 . S
C640 H656 0.931 . S
C641 C640 1.370 . S
C641 C645 1.408 . S
C642 C640 1.363 . S
C642 C643 1.382 . S
C642 C646 1.524 . S
C643 C635 1.495 1_545 S
C643 C642 1.382 . S
C643 C644 1.399 1_545 S
C644 C643 1.399 1_565 S
C644 C645 1.404 1_565 S
C644 C647 1.539 . S
C645 C641 1.408 . S
C645 C644 1.404 1_545 S
C645 H657 0.930 . S
C646 C642 1.524 . S
C646 H658 0.956 . S
C646 H659 0.961 . S
C646 H660 0.961 . S
C647 C644 1.539 . S
C647 H661 0.958 . S
C647 H662 0.961 . S
C647 H663 0.960 . S
H648 C632 0.931 . S
H649 C637 0.907 1_554 S
H650 C638 0.960 . S
H651 C638 0.962 1_545 S
H652 C638 0.960 . S
H653 C639 0.961 1_554 S
H654 C639 0.961 . S
H655 C639 0.961 . S
H656 C640 0.931 . S
H657 C645 0.930 . S
H658 C646 0.956 . S
H659 C646 0.961 . S
H660 C646 0.961 . S
H661 C647 0.958 . S
H662 C647 0.961 . S
H663 C647 0.960 . S
C664 C665 1.391 . S
C664 C666 1.394 . S
C664 H680 0.931 . S
C665 C664 1.391 . S
C665 C669 1.376 . S
C666 C664 1.394 . S
C666 C667 1.369 . S
C666 C670 1.531 . S
C667 C666 1.369 . S
C667 C668 1.410 . S
C667 C675 1.503 1_545 S
C668 C667 1.410 . S
C668 C669 1.392 . S
C668 C671 1.511 1_545 S
C669 C665 1.376 . S
C669 C668 1.392 . S
C669 H681 0.929 . S
C670 C666 1.531 . S
C670 H682 0.960 . S
C670 H683 0.962 . S
C670 H684 0.960 . S
C671 C668 1.511 1_565 S
C671 H685 0.961 . S
C671 H686 0.961 . S
C671 H687 0.961 . S
C672 C673 1.370 . S
C672 C674 1.363 . S
C672 H688 0.931 . S
C673 C672 1.370 . S
C673 C677 1.408 . S
C674 C672 1.363 . S
C674 C675 1.370 . S
C674 C678 1.524 . S
C675 C667 1.503 1_565 S
C675 C674 1.370 . S
C675 C676 1.403 . S
C676 C675 1.403 . S
C676 C677 1.404 . S
C676 C679 1.539 . S
C677 C673 1.408 . S
C677 C676 1.404 . S
C677 H689 0.930 . S
C678 C674 1.524 . S
C678 H690 0.956 1_565 S
C678 H691 0.961 . S
C678 H692 0.961 . S
C679 C676 1.539 . S
C679 H693 0.958 1_565 S
C679 H694 0.961 . S
C679 H695 0.953 1_565 S
H680 C664 0.931 . S
H681 C669 0.929 . S
H682 C670 0.960 . S
H683 C670 0.962 . S
H684 C670 0.960 . S
H685 C671 0.961 . S
H686 C671 0.961 . S
H687 C671 0.961 . S
H688 C672 0.931 . S
H689 C677 0.930 . S
H690 C678 0.956 1_545 S
H691 C678 0.961 . S
H692 C678 0.961 . S
H693 C679 0.958 1_545 S
H694 C679 0.961 . S
H695 C679 0.953 1_545 S
C696 C697 1.391 . S
C696 C698 1.394 . S
C696 H712 0.931 . S
C697 C696 1.391 . S
C697 C701 1.376 . S
C698 C696 1.394 . S
C698 C699 1.369 . S
C698 C702 1.531 . S
C699 C698 1.369 . S
C699 C700 1.410 . S
C699 C707 1.503 . S
C700 C699 1.410 . S
C700 C701 1.392 . S
C700 C703 1.511 . S
C701 C697 1.376 . S
C701 C700 1.392 . S
C701 H713 0.929 . S
C702 C698 1.531 . S
C702 H714 0.960 . S
C702 H715 0.962 . S
C702 H716 0.960 . S
C703 C700 1.511 . S
C703 H717 0.961 . S
C703 H718 0.961 . S
C703 H719 0.961 . S
C704 C705 1.370 . S
C704 C706 1.363 . S
C704 H720 0.931 . S
C705 C704 1.370 . S
C705 C709 1.408 . S
C706 C704 1.363 . S
C706 C707 1.370 . S
C706 C710 1.524 . S
C707 C699 1.503 . S
C707 C706 1.370 . S
C707 C708 1.403 . S
C708 C707 1.403 . S
C708 C709 1.404 . S
C708 C711 1.539 . S
C709 C705 1.408 . S
C709 C708 1.404 . S
C709 H721 0.930 . S
C710 C706 1.524 . S
C710 H722 0.956 . S
C710 H723 0.961 . S
C710 H724 0.961 . S
C711 C708 1.539 . S
C711 H725 0.958 . S
C711 H726 0.961 . S
C711 H727 0.960 . S
H712 C696 0.931 . S
H713 C701 0.929 . S
H714 C702 0.960 . S
H715 C702 0.962 . S
H716 C702 0.960 . S
H717 C703 0.961 . S
H718 C703 0.961 . S
H719 C703 0.961 . S
H720 C704 0.931 . S
H721 C709 0.930 . S
H722 C710 0.956 . S
H723 C710 0.961 . S
H724 C710 0.961 . S
H725 C711 0.958 . S
H726 C711 0.961 . S
H727 C711 0.960 . S
C728 C729 1.391 . S
C728 C730 1.394 . S
C728 H744 0.931 . S
C729 C728 1.391 . S
C729 C733 1.376 . S
C730 C728 1.394 . S
C730 C731 1.369 . S
C730 C734 1.531 . S
C731 C730 1.369 . S
C731 C732 1.410 . S
C731 C739 1.503 . S
C732 C731 1.410 . S
C732 C733 1.392 . S
C732 C735 1.511 . S
C733 C729 1.376 . S
C733 C732 1.392 . S
C733 H745 0.929 . S
C734 C730 1.531 . S
C734 H746 0.960 . S
C734 H747 0.962 . S
C734 H748 0.960 . S
C735 C732 1.511 . S
C735 H749 0.961 . S
C735 H750 0.961 . S
C735 H751 0.961 . S
C736 C737 1.370 . S
C736 C738 1.363 . S
C736 H752 0.931 . S
C737 C736 1.370 . S
C737 C741 1.408 . S
C738 C736 1.363 . S
C738 C739 1.370 . S
C738 C742 1.524 . S
C739 C731 1.503 . S
C739 C738 1.370 . S
C739 C740 1.403 . S
C740 C739 1.403 . S
C740 C741 1.404 . S
C740 C743 1.539 . S
C741 C737 1.408 . S
C741 C740 1.404 . S
C741 H753 0.930 . S
C742 C738 1.524 . S
C742 H754 0.956 . S
C742 H755 0.961 . S
C742 H756 0.961 . S
C743 C740 1.539 . S
C743 H757 0.958 . S
C743 H758 0.961 . S
C743 H759 0.960 . S
H744 C728 0.931 . S
H745 C733 0.929 . S
H746 C734 0.960 . S
H747 C734 0.962 . S
H748 C734 0.960 . S
H749 C735 0.961 . S
H750 C735 0.961 . S
H751 C735 0.961 . S
H752 C736 0.931 . S
H753 C741 0.930 . S
H754 C742 0.956 . S
H755 C742 0.961 . S
H756 C742 0.961 . S
H757 C743 0.958 . S
H758 C743 0.961 . S
H759 C743 0.960 . S
C760 C761 1.391 . S
C760 C762 1.394 . S
C760 H776 0.931 . S
C761 C760 1.391 . S
C761 C765 1.376 . S
C762 C760 1.394 . S
C762 C763 1.369 . S
C762 C766 1.531 . S
C763 C762 1.369 . S
C763 C764 1.410 . S
C763 C771 1.503 . S
C764 C763 1.410 . S
C764 C765 1.392 . S
C764 C767 1.511 . S
C765 C761 1.376 . S
C765 C764 1.392 . S
C765 H777 0.929 . S
C766 C762 1.531 . S
C766 H778 0.960 . S
C766 H779 0.962 . S
C766 H780 0.960 . S
C767 C764 1.511 . S
C767 H781 0.961 . S
C767 H782 0.961 . S
C767 H783 0.961 . S
C768 C769 1.370 . S
C768 C770 1.363 . S
C768 H784 0.931 . S
C769 C768 1.370 . S
C769 C773 1.408 . S
C770 C768 1.363 . S
C770 C771 1.370 . S
C770 C774 1.524 . S
C771 C763 1.503 . S
C771 C770 1.370 . S
C771 C772 1.403 . S
C772 C771 1.403 . S
C772 C773 1.404 . S
C772 C775 1.539 . S
C773 C769 1.408 . S
C773 C772 1.404 . S
C773 H785 0.930 . S
C774 C770 1.524 . S
C774 H786 0.956 . S
C774 H787 0.961 . S
C774 H788 0.961 . S
C775 C772 1.539 . S
C775 H789 0.958 . S
C775 H790 0.961 . S
C775 H791 0.960 . S
H776 C760 0.931 . S
H777 C765 0.929 . S
H778 C766 0.960 . S
H779 C766 0.962 . S
H780 C766 0.960 . S
H781 C767 0.961 . S
H782 C767 0.961 . S
H783 C767 0.961 . S
H784 C768 0.931 . S
H785 C773 0.930 . S
H786 C774 0.956 . S
H787 C774 0.961 . S
H788 C774 0.961 . S
H789 C775 0.958 . S
H790 C775 0.961 . S
H791 C775 0.960 . S
C792 C793 1.391 . S
C792 C794 1.394 . S
C792 H808 0.931 . S
C793 C792 1.391 . S
C793 C797 1.376 . S
C794 C792 1.394 . S
C794 C795 1.369 . S
C794 C798 1.531 . S
C795 C794 1.369 . S
C795 C796 1.410 . S
C795 C803 1.503 . S
C796 C795 1.410 . S
C796 C797 1.392 . S
C796 C799 1.511 . S
C797 C793 1.376 . S
C797 C796 1.392 . S
C797 H809 0.929 . S
C798 C794 1.531 . S
C798 H810 0.960 . S
C798 H811 0.962 . S
C798 H812 0.960 . S
C799 C796 1.511 . S
C799 H813 0.961 . S
C799 H814 0.961 . S
C799 H815 0.961 . S
C800 C801 1.370 . S
C800 C802 1.363 . S
C800 H816 0.931 . S
C801 C800 1.370 . S
C801 C805 1.408 . S
C802 C800 1.363 . S
C802 C803 1.370 . S
C802 C806 1.524 . S
C803 C795 1.503 . S
C803 C802 1.370 . S
C803 C804 1.403 . S
C804 C803 1.403 . S
C804 C805 1.404 . S
C804 C807 1.539 . S
C805 C801 1.408 . S
C805 C804 1.404 . S
C805 H817 0.930 . S
C806 C802 1.524 . S
C806 H818 0.956 . S
C806 H819 0.961 . S
C806 H820 0.961 . S
C807 C804 1.539 . S
C807 H821 0.958 . S
C807 H822 0.961 . S
C807 H823 0.960 . S
H808 C792 0.931 . S
H809 C797 0.929 . S
H810 C798 0.960 . S
H811 C798 0.962 . S
H812 C798 0.960 . S
H813 C799 0.961 . S
H814 C799 0.961 . S
H815 C799 0.961 . S
H816 C800 0.931 . S
H817 C805 0.930 . S
H818 C806 0.956 . S
H819 C806 0.961 . S
H820 C806 0.961 . S
H821 C807 0.958 . S
H822 C807 0.961 . S
H823 C807 0.960 . S
C824 C825 1.391 . S
C824 C826 1.394 . S
C824 H840 0.931 . S
C825 C824 1.391 . S
C825 C829 1.376 . S
C826 C824 1.394 . S
C826 C827 1.369 . S
C826 C830 1.531 . S
C827 C826 1.369 . S
C827 C828 1.410 . S
C827 C835 1.503 . S
C828 C827 1.410 . S
C828 C829 1.392 . S
C828 C831 1.511 . S
C829 C825 1.376 . S
C829 C828 1.392 . S
C829 H841 0.929 . S
C830 C826 1.531 . S
C830 H842 0.960 . S
C830 H843 0.962 . S
C830 H844 0.960 . S
C831 C828 1.511 . S
C831 H845 0.961 . S
C831 H846 0.961 . S
C831 H847 0.961 . S
C832 C833 1.370 . S
C832 C834 1.363 . S
C832 H848 0.931 . S
C833 C832 1.370 . S
C833 C837 1.408 . S
C834 C832 1.363 . S
C834 C835 1.370 . S
C834 C838 1.524 . S
C835 C827 1.503 . S
C835 C834 1.370 . S
C835 C836 1.403 . S
C836 C835 1.403 . S
C836 C837 1.404 . S
C836 C839 1.539 . S
C837 C833 1.408 . S
C837 C836 1.404 . S
C837 H849 0.930 . S
C838 C834 1.524 . S
C838 H850 0.956 . S
C838 H851 0.961 . S
C838 H852 0.961 . S
C839 C836 1.539 . S
C839 H853 0.958 . S
C839 H854 0.961 . S
C839 H855 0.960 . S
H840 C824 0.931 . S
H841 C829 0.929 . S
H842 C830 0.960 . S
H843 C830 0.962 . S
H844 C830 0.960 . S
H845 C831 0.961 . S
H846 C831 0.961 . S
H847 C831 0.961 . S
H848 C832 0.931 . S
H849 C837 0.930 . S
H850 C838 0.956 . S
H851 C838 0.961 . S
H852 C838 0.961 . S
H853 C839 0.958 . S
H854 C839 0.961 . S
H855 C839 0.960 . S
C856 C857 1.391 . S
C856 C858 1.394 . S
C856 H872 0.931 . S
C857 C856 1.391 . S
C857 C861 1.376 . S
C858 C856 1.394 . S
C858 C859 1.369 . S
C858 C862 1.531 . S
C859 C858 1.369 . S
C859 C860 1.410 . S
C859 C867 1.503 . S
C860 C859 1.410 . S
C860 C861 1.392 . S
C860 C863 1.511 . S
C861 C857 1.376 . S
C861 C860 1.392 . S
C861 H873 0.929 . S
C862 C858 1.531 . S
C862 H874 0.960 . S
C862 H875 0.962 . S
C862 H876 0.960 . S
C863 C860 1.511 . S
C863 H877 0.961 . S
C863 H878 0.961 . S
C863 H879 0.961 . S
C864 C865 1.370 . S
C864 C866 1.363 . S
C864 H880 0.931 . S
C865 C864 1.370 . S
C865 C869 1.408 . S
C866 C864 1.363 . S
C866 C867 1.370 . S
C866 C870 1.524 . S
C867 C859 1.503 . S
C867 C866 1.370 . S
C867 C868 1.403 . S
C868 C867 1.403 . S
C868 C869 1.404 . S
C868 C871 1.539 . S
C869 C865 1.408 . S
C869 C868 1.404 . S
C869 H881 0.930 . S
C870 C866 1.524 . S
C870 H882 0.956 . S
C870 H883 0.961 . S
C870 H884 0.961 . S
C871 C868 1.539 . S
C871 H885 0.958 . S
C871 H886 0.961 . S
C871 H887 0.960 . S
H872 C856 0.931 . S
H873 C861 0.929 . S
H874 C862 0.960 . S
H875 C862 0.962 . S
H876 C862 0.960 . S
H877 C863 0.961 . S
H878 C863 0.961 . S
H879 C863 0.961 . S
H880 C864 0.931 . S
H881 C869 0.930 . S
H882 C870 0.956 . S
H883 C870 0.961 . S
H884 C870 0.961 . S
H885 C871 0.958 . S
H886 C871 0.961 . S
H887 C871 0.960 . S
C888 C889 1.391 . S
C888 C890 1.394 . S
C888 H904 0.931 . S
C889 C888 1.391 . S
C889 C893 1.376 . S
C890 C888 1.394 . S
C890 C891 1.369 . S
C890 C894 1.531 . S
C891 C890 1.369 . S
C891 C892 1.410 . S
C891 C899 1.503 . S
C892 C891 1.410 . S
C892 C893 1.392 . S
C892 C895 1.511 . S
C893 C889 1.376 . S
C893 C892 1.392 . S
C893 H905 0.929 . S
C894 C890 1.531 . S
C894 H906 0.960 . S
C894 H907 0.962 . S
C894 H908 0.960 . S
C895 C892 1.511 . S
C895 H909 0.961 . S
C895 H910 0.961 . S
C895 H911 0.961 . S
C896 C897 1.370 . S
C896 C898 1.363 . S
C896 H912 0.931 . S
C897 C896 1.370 . S
C897 C901 1.408 . S
C898 C896 1.363 . S
C898 C899 1.370 . S
C898 C902 1.524 . S
C899 C891 1.503 . S
C899 C898 1.370 . S
C899 C900 1.403 . S
C900 C899 1.403 . S
C900 C901 1.404 . S
C900 C903 1.539 . S
C901 C897 1.408 . S
C901 C900 1.404 . S
C901 H913 0.930 . S
C902 C898 1.524 . S
C902 H914 0.956 . S
C902 H915 0.961 . S
C902 H916 0.961 . S
C903 C900 1.539 . S
C903 H917 0.958 . S
C903 H918 0.961 . S
C903 H919 0.960 . S
H904 C888 0.931 . S
H905 C893 0.929 . S
H906 C894 0.960 . S
H907 C894 0.962 . S
H908 C894 0.960 . S
H909 C895 0.961 . S
H910 C895 0.961 . S
H911 C895 0.961 . S
H912 C896 0.931 . S
H913 C901 0.930 . S
H914 C902 0.956 . S
H915 C902 0.961 . S
H916 C902 0.961 . S
H917 C903 0.958 . S
H918 C903 0.961 . S
H919 C903 0.960 . S
C920 C921 1.391 . S
C920 C922 1.394 . S
C920 H936 0.931 . S
C921 C920 1.391 . S
C921 C925 1.376 . S
C922 C920 1.394 . S
C922 C923 1.369 . S
C922 C926 1.531 . S
C923 C922 1.369 . S
C923 C924 1.410 . S
C923 C931 1.503 . S
C924 C923 1.410 . S
C924 C925 1.392 . S
C924 C927 1.511 . S
C925 C921 1.376 . S
C925 C924 1.392 . S
C925 H937 0.929 . S
C926 C922 1.531 . S
C926 H938 0.960 . S
C926 H939 0.962 . S
C926 H940 0.960 . S
C927 C924 1.511 . S
C927 H941 0.961 . S
C927 H942 0.961 . S
C927 H943 0.961 . S
C928 C929 1.370 . S
C928 C930 1.363 . S
C928 H944 0.931 . S
C929 C928 1.370 . S
C929 C933 1.408 . S
C930 C928 1.363 . S
C930 C931 1.370 . S
C930 C934 1.524 . S
C931 C923 1.503 . S
C931 C930 1.370 . S
C931 C932 1.403 . S
C932 C931 1.403 . S
C932 C933 1.404 . S
C932 C935 1.539 . S
C933 C929 1.408 . S
C933 C932 1.404 . S
C933 H945 0.930 . S
C934 C930 1.524 . S
C934 H946 0.956 . S
C934 H947 0.961 . S
C934 H948 0.961 . S
C935 C932 1.539 . S
C935 H949 0.958 . S
C935 H950 0.961 . S
C935 H951 0.960 . S
H936 C920 0.931 . S
H937 C925 0.929 . S
H938 C926 0.960 . S
H939 C926 0.962 . S
H940 C926 0.960 . S
H941 C927 0.961 . S
H942 C927 0.961 . S
H943 C927 0.961 . S
H944 C928 0.931 . S
H945 C933 0.930 . S
H946 C934 0.956 . S
H947 C934 0.961 . S
H948 C934 0.961 . S
H949 C935 0.958 . S
H950 C935 0.961 . S
H951 C935 0.960 . S
C185 C4 1.555 . S
C193 C139 1.539 . S
C225 C103 1.536 . S
C217 C16 1.557 . S
C257 C126 1.539 . S
C249 C28 1.530 . S
C289 C114 1.540 . S
C281 C40 1.530 . S
C321 C183 1.543 . S
C313 C52 1.533 . S
C353 C147 1.545 . S
C345 C64 1.532 . S
C377 C76 1.523 . S
C385 C170 1.541 . S
C417 C158 1.539 . S
C409 C88 1.536 . S
C441 C9 1.508 . S
C449 C180 1.528 . S
C481 C150 1.526 . S
C473 C21 1.476 . S
C505 C33 1.544 . S
C513 C169 1.549 . S
C537 C45 1.538 . S
C545 C155 1.547 . S
C577 C136 1.528 . S
C569 C57 1.515 . S
C601 C69 1.501 . S
C609 C106 1.527 . S
C641 C125 1.543 . S
C633 C81 1.525 . S
C673 C111 1.540 . S
C665 C93 1.502 . S
C705 C161 1.519 . S
C697 C6 1.505 . S
C737 C177 1.516 . S
C729 C18 1.499 . S
C761 C30 1.487 . S
C769 C148 1.495 . S
C801 C172 1.494 . S
C793 C42 1.482 . S
C833 C117 1.518 . S
C825 C54 1.499 . S
C857 C66 1.510 . S
C865 C133 1.520 . S
C889 C78 1.475 . S
C897 C104 1.493 . S
C921 C90 1.476 . S
C929 C128 1.493 . S
