# Generated by pormake.
# Topology rtl, (3,6)-cn, num edge types: 1
# Building blocks:
#     Node 0, Type 0, BuildingBlock: BETDAH_clean_linker_0, # of connection points: 3
#     Node 1, Type 0, BuildingBlock: BETDAH_clean_linker_0, # of connection points: 3
#     Node 2, Type 0, BuildingBlock: BETDAH_clean_linker_0, # of connection points: 3
#     Node 3, Type 0, BuildingBlock: BETDAH_clean_linker_0, # of connection points: 3
#     Node 4, Type 1, BuildingBlock: KUMBUR_clean_sbu_1, # of connection points: 6
#     Node 5, Type 1, BuildingBlock: KUMBUR_clean_sbu_1, # of connection points: 6
#     Edge 6, Type (0, 1), BuildingBlock: EZIPEK_clean_linker_0, # of connection points: 2
#     Edge 7, Type (0, 1), BuildingBlock: EZIPEK_clean_linker_0, # of connection points: 2
#     Edge 8, Type (0, 1), BuildingBlock: EZIPEK_clean_linker_0, # of connection points: 2
#     Edge 9, Type (0, 1), BuildingBlock: EZIPEK_clean_linker_0, # of connection points: 2
#     Edge 10, Type (0, 1), BuildingBlock: EZIPEK_clean_linker_0, # of connection points: 2
#     Edge 11, Type (0, 1), BuildingBlock: EZIPEK_clean_linker_0, # of connection points: 2
#     Edge 12, Type (0, 1), BuildingBlock: EZIPEK_clean_linker_0, # of connection points: 2
#     Edge 13, Type (0, 1), BuildingBlock: EZIPEK_clean_linker_0, # of connection points: 2
#     Edge 14, Type (0, 1), BuildingBlock: EZIPEK_clean_linker_0, # of connection points: 2
#     Edge 15, Type (0, 1), BuildingBlock: EZIPEK_clean_linker_0, # of connection points: 2
#     Edge 16, Type (0, 1), BuildingBlock: EZIPEK_clean_linker_0, # of connection points: 2
#     Edge 17, Type (0, 1), BuildingBlock: EZIPEK_clean_linker_0, # of connection points: 2
# Relax obj value: 0.051
# Max RMSD: 0.239
# Mean RMSD: 0.168
data_MOF--net-rtl--node1-KUMBUR_clean_sbu_1--node2-BETDAH_clean_linker_0--edge1-EZIPEK_clean_linker_0
_symmetry_space_group_name_H-M    P1
_symmetry_Int_Tables_number       1
_symmetry_cell_setting            triclinic
loop_
_symmetry_equiv_pos_as_xyz
'x, y, z'
_cell_length_a     26.157691
_cell_length_b     26.424005
_cell_length_c     20.448418
_cell_angle_alpha  74.613524
_cell_angle_beta   100.57164
_cell_angle_gamma 91.149809
loop_
_atom_site_label
_atom_site_type_symbol
_atom_site_fract_x
_atom_site_fract_y
_atom_site_fract_z
_atom_type_partial_charge
H0 H 0.13187 0.90772 1.00084 0.0
H1 H 0.20349 0.76826 0.14813 0.0
H2 H 0.19154 0.78492 0.93075 0.0
C3 C 0.153 0.87054 0.01218 0.0
C4 C 0.16105 0.85056 0.95777 0.0
C5 C 0.16727 0.84086 0.08073 0.0
C6 C 0.1934 0.79203 0.09527 0.0
C7 C 0.20393 0.77254 0.04129 0.0
C8 C 0.18679 0.80147 0.97249 0.0
N9 N 0.22347 0.72029 0.05619 0.0
C10 C 0.27444 0.70786 0.05378 0.0
H11 H 0.64313 0.62029 0.69804 0.0
H12 H 0.75654 0.73205 0.62738 0.0
H13 H 0.71555 0.71684 0.82615 0.0
C14 C 0.66962 0.65108 0.70607 0.0
C15 C 0.67555 0.66611 0.76789 0.0
C16 C 0.69875 0.67482 0.65521 0.0
C17 C 0.73372 0.71424 0.66624 0.0
C18 C 0.73982 0.72955 0.72803 0.0
C19 C 0.71048 0.70547 0.77821 0.0
N20 N 0.77585 0.76776 0.74303 0.0
C21 C 0.80578 0.79848 0.69853 0.0
H22 H 0.88556 0.10468 0.14896 0.0
H23 H 0.76253 0.16721 0.22163 0.0
H24 H 0.75049 0.18011 1.0049 0.0
C25 C 0.84811 0.125 0.13853 0.0
C26 C 0.8209 0.14202 0.07048 0.0
C27 C 0.82737 0.13393 0.19324 0.0
C28 C 0.77905 0.16077 0.17952 0.0
C29 C 0.75124 0.1774 0.11142 0.0
C30 C 0.77221 0.16777 0.05727 0.0
N31 N 0.69993 0.19881 0.09716 0.0
C32 C 0.68776 0.24641 0.10843 0.0
H33 H 0.40286 0.40868 0.46148 0.0
H34 H 0.3239 0.27496 0.56512 0.0
H35 H 0.36108 0.28324 0.36611 0.0
C36 C 0.38512 0.37109 0.46256 0.0
C37 C 0.3844 0.3493 0.40679 0.0
C38 C 0.36323 0.34464 0.51979 0.0
C39 C 0.34021 0.29582 0.52081 0.0
C40 C 0.33929 0.27371 0.46511 0.0
C41 C 0.36165 0.30047 0.40881 0.0
N42 N 0.31832 0.22372 0.46509 0.0
C43 C 0.2757 0.20371 0.4945 0.0
Tb44 Tb 0.05513 0.97431 0.53093 0.0
C45 C 0.96149 0.19046 0.49489 0.0
N46 N 1.00124 0.1658 0.54544 0.0
C47 C 0.0502 0.24461 0.52553 0.0
C48 C 0.96583 0.24233 0.45505 0.0
C49 C 0.04401 0.19321 0.5637 0.0
C50 C 0.01137 0.26897 0.47013 0.0
C51 C 0.87342 0.18838 0.43253 0.0
C52 C 0.91566 0.16409 0.48421 0.0
C53 C 0.87822 0.23935 0.39124 0.0
C54 C 0.92429 0.26629 0.40252 0.0
Tb55 Tb 0.98668 0.08087 0.60169 0.0
N56 N 0.91288 0.11422 0.5238 0.0
C57 C 0.82767 0.16064 0.42382 0.0
C58 C 0.8682 0.08726 0.51584 0.0
C59 C 0.82491 0.11004 0.46616 0.0
H60 H 0.07357 0.17593 0.60797 0.0
H61 H 0.78989 0.08803 0.45945 0.0
H62 H 0.97691 0.88311 0.48908 0.0
H63 H 0.25849 0.95947 0.64912 0.0
H64 H 0.8665 0.0475 0.54538 0.0
H65 H 0.79441 0.17783 0.38455 0.0
H66 H 0.17795 1.00485 0.57492 0.0
H67 H 0.08478 0.26553 0.53924 0.0
H68 H 0.84636 0.25846 0.35087 0.0
H69 H 0.92713 0.30591 0.37097 0.0
H70 H 0.97294 0.78606 0.52627 0.0
H71 H 0.01622 0.30885 0.44076 0.0
H72 H 0.25791 0.86474 0.70856 0.0
N73 N 0.04808 0.88545 0.5577 0.0
C74 C 0.08857 0.8575 0.60345 0.0
C75 C 1.00551 0.80572 0.54869 0.0
C76 C 0.08834 0.8023 0.62562 0.0
C77 C 1.00771 0.86051 0.52799 0.0
C78 C 0.0456 0.77651 0.59854 0.0
N79 N 0.1322 0.937 0.59578 0.0
C80 C 0.17754 0.96357 0.601 0.0
C81 C 0.17715 0.85658 0.66517 0.0
C82 C 0.13228 0.88423 0.62307 0.0
C83 C 0.22255 0.8845 0.67645 0.0
C84 C 0.22309 0.93797 0.64279 0.0
H85 H 0.0439 0.73409 0.61423 0.0
H86 H 0.13193 0.73229 0.69019 0.0
H87 H 0.20978 0.77988 0.72483 0.0
O88 O 0.07038 0.01765 0.43454 0.0
O89 O 0.08627 0.97913 0.63563 0.0
O90 O 0.0217 0.00986 0.67964 0.0
O91 O 0.08336 0.93409 0.46793 0.0
O92 O 0.08561 0.05441 0.52012 0.0
O93 O 0.07121 0.08339 0.61232 0.0
O94 O 0.92914 0.09216 0.65722 0.0
O95 O 0.98458 0.08271 0.49223 0.0
O96 O 0.97662 1.00007 0.47818 0.0
O97 O 1.00515 0.12317 0.67606 0.0
O98 O 0.94981 1.00433 0.62108 0.0
O99 O 0.98 0.94808 0.56385 0.0
C100 C 0.06201 0.97838 0.68671 0.0
C101 C 0.06141 0.97126 0.34821 0.0
C102 C 0.07076 0.93915 0.24946 0.0
C103 C 0.02164 0.96149 0.21512 0.0
C104 C 0.01221 0.99302 0.31337 0.0
C105 C 0.99256 0.98824 0.24705 0.0
C106 C 0.09044 0.94406 0.31613 0.0
C107 C 0.09827 0.08335 0.56415 0.0
C108 C 0.08343 0.97608 0.41786 0.0
C109 C 0.1316 0.77471 0.67169 0.0
C110 C 0.17594 0.80182 0.69148 0.0
C111 C 0.96103 0.04938 0.45953 0.0
C112 C 0.96462 0.09232 0.77228 0.0
C113 C 0.93441 0.08966 0.8793 0.0
C114 C 0.97423 0.05262 0.91595 0.0
C115 C 1.00451 0.05553 0.81028 0.0
C116 C 0.92921 0.10899 0.8071 0.0
C117 C 1.00889 0.03552 0.88148 0.0
C118 C 0.94892 0.95976 0.60312 0.0
C119 C 0.96102 0.11443 0.69709 0.0
H120 H 1.00582 0.95803 0.16373 0.0
H121 H 0.98904 0.01359 0.33729 0.0
H122 H 0.95465 1.00526 0.22038 0.0
H123 H 0.12832 0.92677 0.34287 0.0
H124 H 0.97859 0.03723 0.97142 0.0
H125 H 0.03292 0.04278 0.78533 0.0
H126 H 0.89852 0.13761 0.7786 0.0
H127 H 0.0397 0.00715 0.91013 0.0
Tb128 Tb 0.46438 0.49142 0.0121 0.0
C129 C 0.67569 0.58591 0.09929 0.0
N130 N 0.65619 0.53962 0.13134 0.0
C131 C 0.73952 0.49665 0.14785 0.0
C132 C 0.72714 0.58853 0.08697 0.0
C133 C 0.68834 0.49596 0.15912 0.0
C134 C 0.75875 0.54288 0.11063 0.0
C135 C 0.66371 0.68007 0.04859 0.0
C136 C 0.6448 0.63144 0.08141 0.0
C137 C 0.71405 0.6823 0.03338 0.0
C138 C 0.74575 0.63669 0.05275 0.0
Tb139 Tb 0.57231 0.54548 0.14729 0.0
N140 N 0.59593 0.62788 0.09595 0.0
C141 C 0.63158 0.72508 0.03264 0.0
C142 C 0.56531 0.67196 0.08341 0.0
C143 C 0.5824 0.72106 0.05079 0.0
H144 H 0.67537 0.46056 0.19122 0.0
H145 H 0.55774 0.7558 0.03993 0.0
H146 H 0.36478 0.5753 0.99384 0.0
H147 H 0.46925 0.27959 0.07932 0.0
H148 H 0.52773 0.66925 0.0984 0.0
H149 H 0.64471 0.7632 1.00741 0.0
H150 H 0.49897 0.36808 0.02816 0.0
H151 H 0.76433 0.46166 0.16873 0.0
H152 H 0.72915 0.71926 1.00771 0.0
H153 H 0.7849 0.63924 0.04199 0.0
H154 H 0.28455 0.57491 0.04046 0.0
H155 H 0.79849 0.54328 0.10224 0.0
H156 H 0.3897 0.26951 0.13056 0.0
N157 N 0.38531 0.49525 0.04482 0.0
C158 C 0.36589 0.44828 0.07411 0.0
C159 C 0.30778 0.5391 0.05212 0.0
C160 C 0.31889 0.4453 0.09922 0.0
C161 C 0.35451 0.53966 0.02786 0.0
C162 C 0.29061 0.49185 0.08979 0.0
N163 N 0.43681 0.40779 0.05014 0.0
C164 C 0.46404 0.36421 0.04999 0.0
C165 C 0.37403 0.35324 0.10639 0.0
C166 C 0.3922 0.4029 0.07613 0.0
C167 C 0.40232 0.30846 0.10771 0.0
C168 C 0.44728 0.31399 0.07889 0.0
H169 H 0.25429 0.49137 0.10824 0.0
H170 H 0.26537 0.39292 0.15142 0.0
H171 H 0.31417 0.31224 0.15867 0.0
O172 O 0.44624 0.45444 0.92962 0.0
O173 O 0.4792 0.44749 0.12129 0.0
O174 O 0.50519 0.50538 0.18691 0.0
O175 O 0.42198 0.535 0.91766 0.0
O176 O 0.54115 0.45225 0.03515 0.0
O177 O 0.58659 0.46561 0.13867 0.0
O178 O 0.57986 0.59237 0.21719 0.0
O179 O 0.55965 0.58248 0.03481 0.0
O180 O 0.53648 0.51973 0.97674 0.0
O181 O 0.61428 0.51481 0.24842 0.0
O182 O 0.49121 0.57003 0.13205 0.0
O183 O 0.45822 0.57353 0.01933 0.0
C184 C 0.48068 0.46321 0.17714 0.0
C185 C 0.39721 0.50321 0.81577 0.0
C186 C 0.3744 0.47041 0.71306 0.0
C187 C 0.35367 0.52039 0.67509 0.0
C188 C 0.3759 0.55275 0.77628 0.0
C189 C 0.35424 0.56111 0.70663 0.0
C190 C 0.39587 0.46169 0.78394 0.0
C191 C 0.57841 0.43952 0.09071 0.0
C192 C 0.42243 0.49686 0.88871 0.0
C193 C 0.30099 0.39598 0.13086 0.0
C194 C 0.32861 0.35003 0.13462 0.0
C195 C 0.56428 0.56004 0.98594 0.0
C196 C 0.65417 0.57692 0.30582 0.0
C197 C 0.69292 0.61009 0.40405 0.0
C198 C 0.74074 0.61374 0.38159 0.0
C199 C 0.70243 0.5808 0.28443 0.0
C200 C 0.64958 0.5917 0.36589 0.0
C201 C 0.74536 0.59921 0.32205 0.0
C202 C 0.46132 0.5929 0.07331 0.0
C203 C 0.60826 0.55756 0.26674 0.0
H204 H 0.33707 0.52787 0.6207 0.0
H205 H 0.37642 0.58547 0.799 0.0
H206 H 0.33819 0.59949 0.67679 0.0
H207 H 0.4121 0.42325 0.81345 0.0
H208 H 0.77451 0.62769 0.41037 0.0
H209 H 0.70726 0.56945 0.23908 0.0
H210 H 0.61258 0.5887 0.38317 0.0
H211 H 0.78243 0.60201 0.30513 0.0
C212 C 0.18409 0.18023 0.46356 0.0
C213 C 0.22845 0.17982 0.51513 0.0
C214 C 0.1819 0.1286 0.60388 0.0
C215 C 0.14008 0.12296 0.55098 0.0
N216 N 0.09242 0.16381 0.4376 0.0
N217 N 0.27184 0.15241 0.6337 0.0
C218 C 0.13876 0.15445 0.48257 0.0
C219 C 0.22782 0.15412 0.58524 0.0
N220 N 0.1858 0.20372 0.3958 0.0
N221 N 0.17669 0.11329 0.67149 0.0
H222 H 0.30528 0.17237 0.62223 0.0
H223 H 0.27658 0.12852 0.68402 0.0
H224 H 0.14227 0.09968 0.68734 0.0
H225 H 0.20404 0.12039 0.71165 0.0
H226 H 0.15745 0.19921 0.35494 0.0
H227 H 0.21731 0.22517 0.37987 0.0
H228 H 0.08701 0.1904 0.38899 0.0
H229 H 0.05778 0.15049 0.45325 0.0
C230 C 0.34867 0.69267 0.99917 0.0
C231 C 0.3272 0.68823 0.05924 0.0
C232 C 0.40671 0.64162 0.13083 0.0
C233 C 0.42319 0.63625 0.07036 0.0
N234 N 0.42472 0.67968 0.95187 0.0
N235 N 0.3347 0.65763 0.18282 0.0
C236 C 0.39855 0.6689 1.00562 0.0
C237 C 0.35611 0.66287 0.12526 0.0
N238 N 0.32052 0.71767 0.93593 0.0
N239 N 0.44065 0.63134 0.19239 0.0
H240 H 0.29876 0.67465 0.18156 0.0
H241 H 0.35099 0.63336 0.23102 0.0
H242 H 0.48041 0.62558 0.19638 0.0
H243 H 0.43144 0.63769 0.23706 0.0
H244 H 0.33108 0.71714 0.88946 0.0
H245 H 0.28478 0.73685 0.92993 0.0
H246 H 0.41096 0.70549 0.90389 0.0
H247 H 0.46356 0.66773 0.95891 0.0
C248 C 0.82276 0.89057 0.64405 0.0
C249 C 0.83967 0.83748 0.66513 0.0
C250 C 0.92874 0.86421 0.65401 0.0
C251 C 0.91179 0.91811 0.63128 0.0
N252 N 0.8475 0.97779 0.64604 0.0
N253 N 0.90615 0.77214 0.67976 0.0
C254 C 0.86 0.93056 0.63687 0.0
C255 C 0.89193 0.82383 0.66697 0.0
N256 N 0.7708 0.90304 0.63163 0.0
N257 N 0.98074 0.85188 0.6727 0.0
H258 H 0.87984 0.74203 0.68947 0.0
H259 H 0.94225 0.75957 0.67435 0.0
H260 H 1.00892 0.88034 0.67125 0.0
H261 H 0.99585 0.81419 0.69805 0.0
H262 H 0.75583 0.94123 0.60902 0.0
H263 H 0.74253 0.87451 0.63691 0.0
H264 H 0.81109 0.9867 0.65463 0.0
H265 H 0.87483 1.00432 0.65833 0.0
C266 C 0.66429 0.3392 0.04895 0.0
C267 C 0.66825 0.29746 0.10919 0.0
C268 C 0.62625 0.35314 0.16409 0.0
C269 C 0.61326 0.39223 0.09904 0.0
N270 N 0.61857 0.41768 0.97638 0.0
N271 N 0.65004 0.26177 0.22299 0.0
C272 C 0.63199 0.38397 0.0407 0.0
C273 C 0.64877 0.30374 0.16656 0.0
N274 N 0.69225 0.33653 0.99952 0.0
N275 N 0.61787 0.36215 0.22416 0.0
H276 H 0.66838 0.22588 0.2279 0.0
H277 H 0.62983 0.26134 0.26255 0.0
H278 H 0.59843 0.39469 0.22801 0.0
H279 H 0.6337 0.33795 0.2726 0.0
H280 H 0.69608 0.36835 0.95804 0.0
H281 H 0.71615 0.30419 1.00386 0.0
H282 H 0.62406 0.40833 0.93169 0.0
H283 H 0.59992 0.45388 0.96562 0.0
C284 C 0.17152 0.90461 0.15302 0.0
C285 C 0.14902 0.85965 0.1353 0.0
C286 C 0.08341 0.86039 0.20683 0.0
C287 C 0.10089 0.90977 0.21543 0.0
N288 N 0.15912 0.98164 0.19229 0.0
N289 N 0.07977 0.79763 0.13889 0.0
C290 C 0.14472 0.93243 0.18801 0.0
C291 C 0.10426 0.83787 0.16111 0.0
N292 N 0.21865 0.92045 0.13644 0.0
N293 N 0.04724 0.83474 0.24308 0.0
H294 H 0.09362 0.77971 0.10562 0.0
H295 H 0.04352 0.78458 0.14925 0.0
H296 H 0.03128 0.85008 0.27718 0.0
H297 H 0.03681 0.79628 0.2444 0.0
H298 H 0.23961 0.94993 0.15341 0.0
H299 H 0.23907 0.90066 0.11091 0.0
H300 H 0.1869 1.0027 0.16654 0.0
H301 H 0.14056 1.00325 0.21752 0.0
C302 C 0.67255 0.59866 0.88014 0.0
C303 C 0.64681 0.63889 0.82349 0.0
C304 C 0.56654 0.62642 0.87201 0.0
C305 C 0.59271 0.58725 0.92986 0.0
N306 N 0.66655 0.52796 0.98136 0.0
N307 N 0.57214 0.69653 0.76914 0.0
C308 C 0.64472 0.57136 0.93196 0.0
C309 C 0.59448 0.65415 0.82033 0.0
N310 N 0.72425 0.58755 0.8854 0.0
N311 N 0.51412 0.6347 0.86432 0.0
H312 H 0.59104 0.7171 0.72986 0.0
H313 H 0.53651 0.71385 0.76803 0.0
H314 H 0.4923 0.61386 0.89982 0.0
H315 H 0.49125 0.65846 0.82021 0.0
H316 H 0.74739 0.56437 0.92976 0.0
H317 H 0.74528 0.60421 0.84671 0.0
H318 H 0.70131 0.50965 0.98107 0.0
H319 H 0.64778 0.50758 0.02059 0.0
C320 C 0.90271 0.14069 0.28468 0.0
C321 C 0.85736 0.11444 0.2647 0.0
C322 C 0.87754 0.04583 0.37447 0.0
C323 C 0.92572 0.06979 0.39113 0.0
N324 N 0.99062 0.12848 0.34748 0.0
N325 N 0.80481 0.03788 0.28533 0.0
C326 C 0.93997 0.11443 0.34255 0.0
C327 C 0.84556 0.0658 0.30819 0.0
N328 N 0.91068 0.19051 0.24779 0.0
N329 N 0.86134 1.00525 0.42241 0.0
H330 H 0.77978 0.05188 0.23804 0.0
H331 H 0.798 0.99939 0.31091 0.0
H332 H 0.88325 0.98935 0.47133 0.0
H333 H 0.82413 0.99037 0.41603 0.0
H334 H 0.94096 0.21308 0.26435 0.0
H335 H 0.88416 0.21092 0.20461 0.0
H336 H 1.00394 0.15836 0.31046 0.0
H337 H 0.02011 0.10474 0.38253 0.0
C338 C 0.31969 0.38706 0.59361 0.0
C339 C 0.36573 0.36846 0.5789 0.0
C340 C 0.41878 0.41082 0.66047 0.0
C341 C 0.37271 0.4283 0.67636 0.0
N342 N 0.28049 0.42044 0.67314 0.0
N343 N 0.45811 0.34991 0.61254 0.0
C344 C 0.32353 0.412 0.64795 0.0
C345 C 0.415 0.37618 0.61714 0.0
N346 N 0.27257 0.38393 0.55315 0.0
N347 N 0.46587 0.42958 0.68325 0.0
H348 H 0.4565 0.32366 0.58209 0.0
H349 H 0.49422 0.35007 0.64403 0.0
H350 H 0.47052 0.455 0.71497 0.0
H351 H 0.4998 0.42306 0.66644 0.0
H352 H 0.23863 0.40213 0.55674 0.0
H353 H 0.26796 0.36702 0.5119 0.0
H354 H 0.24433 0.40525 0.65904 0.0
H355 H 0.28233 0.43812 0.71348 0.0
C356 C 0.66706 0.68896 0.52744 0.0
C357 C 0.6941 0.65687 0.59115 0.0
C358 C 0.71087 0.59005 0.53339 0.0
C359 C 0.68933 0.62476 0.46866 0.0
N360 N 0.65143 0.70941 0.40235 0.0
N361 N 0.74745 0.57977 0.65421 0.0
C362 C 0.66836 0.67476 0.4652 0.0
C363 C 0.71734 0.60801 0.59407 0.0
N364 N 0.63912 0.73233 0.52673 0.0
N365 N 0.72425 0.53952 0.5369 0.0
H366 H 0.75319 0.5915 0.6998 0.0
H367 H 0.77018 0.54692 0.65772 0.0
H368 H 0.7201 0.52511 0.49344 0.0
H369 H 0.73501 0.51062 0.58314 0.0
H370 H 0.61414 0.7543 0.48319 0.0
H371 H 0.63749 0.74396 0.57126 0.0
H372 H 0.64141 0.74856 0.39612 0.0
H373 H 0.65078 0.70005 0.35575 0.0
C374 C 0.88379 0.1665 0.98869 0.0
C375 C 0.84436 0.13298 0.01326 0.0
C376 C 0.8588 0.07511 0.94164 0.0
C377 C 0.89901 0.10801 0.91825 0.0
N378 N 0.94474 0.18889 0.90955 0.0
N379 N 0.7883 0.06035 1.00667 0.0
C380 C 0.90971 0.15512 0.93848 0.0
C381 C 0.82983 0.08891 0.98736 0.0
N382 N 0.89753 0.20824 0.01532 0.0
N383 N 0.84966 0.02976 0.92167 0.0
H384 H 0.7676 0.06805 0.04213 0.0
H385 H 0.77209 0.03097 0.98491 0.0
H386 H 0.868 0.02013 0.88518 0.0
H387 H 0.82557 1.00056 0.94269 0.0
H388 H 0.92994 0.23067 1.00659 0.0
H389 H 0.87755 0.21941 0.04922 0.0
H390 H 0.95079 0.22634 0.91628 0.0
H391 H 0.9658 0.18094 0.87461 0.0
C392 C 0.45099 0.35528 0.33008 0.0
C393 C 0.40752 0.37767 0.34596 0.0
C394 C 0.41104 0.45597 0.25005 0.0
C395 C 0.45292 0.43226 0.232 0.0
N396 N 0.50058 0.35203 0.24264 0.0
N397 N 0.33812 0.44338 0.31028 0.0
C398 C 0.46902 0.3796 0.26799 0.0
C399 C 0.38527 0.42645 0.30293 0.0
N400 N 0.47673 0.31197 0.37576 0.0
N401 N 0.3951 0.50646 0.21591 0.0
H402 H 0.31748 0.42229 0.34725 0.0
H403 H 0.31706 0.47558 0.27565 0.0
H404 H 0.40856 0.52727 0.172 0.0
H405 H 0.36984 0.52824 0.23252 0.0
H406 H 0.51195 0.29742 0.37017 0.0
H407 H 0.46582 0.29373 0.42279 0.0
H408 H 0.50893 0.31195 0.26331 0.0
H409 H 0.51385 0.36739 0.19672 0.0
C410 C 0.08082 0.88195 0.86838 0.0
C411 C 0.13597 0.879 0.88622 0.0
C412 C 0.14166 0.94624 0.7795 0.0
C413 C 0.08654 0.94673 0.75807 0.0
N414 N 1.00325 0.91331 0.78371 0.0
N415 N 0.21936 0.90178 0.85475 0.0
C416 C 0.05598 0.91446 0.80325 0.0
C417 C 0.16644 0.90884 0.84028 0.0
N418 N 0.05207 0.85395 0.91463 0.0
N419 N 0.17024 0.98444 0.74499 0.0
H420 H 0.23932 0.8768 0.90034 0.0
H421 H 0.24313 0.91739 0.81907 0.0
H422 H 0.15386 0.01388 0.70198 0.0
H423 H 0.20926 0.99024 0.76276 0.0
H424 H 0.01244 0.86051 0.91109 0.0
H425 H 0.0683 0.82511 0.95897 0.0
H426 H 0.98005 0.88484 0.80841 0.0
H427 H 0.98203 0.9391 0.74057 0.0
loop_
_geom_bond_atom_site_label_1
_geom_bond_atom_site_label_2
_geom_bond_distance
_geom_bond_site_symmetry_2
_ccdc_geom_bond_type
H0 C3 0.929 . S
H1 C6 0.929 . S
H2 C8 0.930 . S
C3 H0 0.929 . S
C3 C4 1.398 1_554 S
C3 C5 1.396 . S
C4 C3 1.398 1_556 S
C4 C8 1.407 . S
C5 C3 1.396 . S
C5 C6 1.394 . S
C6 H1 0.929 . S
C6 C5 1.394 . S
C6 C7 1.382 . S
C7 C6 1.382 . S
C7 C8 1.392 1_554 S
C7 N9 1.420 . S
C8 H2 0.930 . S
C8 C4 1.407 . S
C8 C7 1.392 1_556 S
N9 C7 1.420 . S
N9 C10 1.244 . S
C10 N9 1.244 . S
H11 C14 0.929 . S
H12 C17 0.929 . S
H13 C19 0.930 . S
C14 H11 0.929 . S
C14 C15 1.398 . S
C14 C16 1.396 . S
C15 C14 1.398 . S
C15 C19 1.407 . S
C16 C14 1.396 . S
C16 C17 1.394 . S
C17 H12 0.929 . S
C17 C16 1.394 . S
C17 C18 1.382 . S
C18 C17 1.382 . S
C18 C19 1.392 . S
C18 N20 1.420 . S
C19 H13 0.930 . S
C19 C15 1.407 . S
C19 C18 1.392 . S
N20 C18 1.420 . S
N20 C21 1.244 . S
C21 N20 1.244 . S
H22 C25 0.929 . S
H23 C28 0.929 . S
H24 C30 0.930 1_556 S
C25 H22 0.929 . S
C25 C26 1.398 . S
C25 C27 1.396 . S
C26 C25 1.398 . S
C26 C30 1.407 . S
C27 C25 1.396 . S
C27 C28 1.394 . S
C28 H23 0.929 . S
C28 C27 1.394 . S
C28 C29 1.382 . S
C29 C28 1.382 . S
C29 C30 1.392 . S
C29 N31 1.420 . S
C30 H24 0.930 1_554 S
C30 C26 1.407 . S
C30 C29 1.392 . S
N31 C29 1.420 . S
N31 C32 1.244 . S
C32 N31 1.244 . S
H33 C36 0.929 . S
H34 C39 0.929 . S
H35 C41 0.930 . S
C36 H33 0.929 . S
C36 C37 1.398 . S
C36 C38 1.396 . S
C37 C36 1.398 . S
C37 C41 1.407 . S
C38 C36 1.396 . S
C38 C39 1.394 . S
C39 H34 0.929 . S
C39 C38 1.394 . S
C39 C40 1.382 . S
C40 C39 1.382 . S
C40 C41 1.392 . S
C40 N42 1.420 . S
C41 H35 0.930 . S
C41 C37 1.407 . S
C41 C40 1.392 . S
N42 C40 1.420 . S
N42 C43 1.244 . S
C43 N42 1.244 . S
Tb44 N73 2.617 . S
Tb44 N79 2.572 . S
Tb44 O88 2.465 . S
Tb44 O89 2.387 . S
Tb44 O91 2.428 . S
Tb44 O92 2.308 1_565 S
Tb44 O96 2.349 1_465 S
Tb44 O99 2.393 1_455 S
Tb44 C108 2.802 . S
C45 N46 1.379 . S
C45 C48 1.416 . S
C45 C52 1.424 . S
N46 C45 1.379 . S
N46 C49 1.334 1_655 S
N46 Tb55 2.617 . S
C47 C49 1.390 . S
C47 C50 1.339 1_455 S
C47 H67 0.930 . S
C48 C45 1.416 . S
C48 C50 1.416 . S
C48 C54 1.448 . S
C49 N46 1.334 1_455 S
C49 C47 1.390 . S
C49 H60 0.930 . S
C50 C47 1.339 1_655 S
C50 C48 1.416 . S
C50 H71 0.930 . S
C51 C52 1.413 . S
C51 C53 1.427 . S
C51 C57 1.416 . S
C52 C45 1.424 . S
C52 C51 1.413 . S
C52 N56 1.361 . S
C53 C51 1.427 . S
C53 C54 1.328 . S
C53 H68 0.929 . S
C54 C48 1.448 . S
C54 C53 1.328 . S
C54 H69 0.930 . S
Tb55 N46 2.617 . S
Tb55 N56 2.572 . S
Tb55 O90 2.349 1_655 S
Tb55 O93 2.393 1_655 S
Tb55 O94 2.465 . S
Tb55 O95 2.387 . S
Tb55 O97 2.428 . S
Tb55 O98 2.308 1_545 S
Tb55 C119 2.802 . S
N56 C52 1.361 . S
N56 Tb55 2.572 . S
N56 C58 1.340 . S
C57 C51 1.416 . S
C57 C59 1.332 . S
C57 H65 0.931 . S
C58 N56 1.340 . S
C58 C59 1.407 . S
C58 H64 0.930 . S
C59 C57 1.332 . S
C59 C58 1.407 . S
C59 H61 0.929 . S
H60 C49 0.930 . S
H61 C59 0.929 . S
H62 C77 0.930 1_655 S
H63 C84 0.929 . S
H64 C58 0.930 . S
H65 C57 0.931 . S
H66 C80 0.930 . S
H67 C47 0.930 . S
H68 C53 0.929 . S
H69 C54 0.930 . S
H70 C75 0.930 1_655 S
H71 C50 0.930 . S
H72 C83 0.931 . S
N73 Tb44 2.617 . S
N73 C74 1.379 . S
N73 C77 1.334 . S
C74 N73 1.379 . S
C74 C76 1.416 . S
C74 C82 1.424 . S
C75 H70 0.930 1_455 S
C75 C77 1.390 . S
C75 C78 1.339 . S
C76 C74 1.416 . S
C76 C78 1.416 . S
C76 C109 1.448 . S
C77 H62 0.930 1_455 S
C77 N73 1.334 . S
C77 C75 1.390 . S
C78 C75 1.339 . S
C78 C76 1.416 . S
C78 H85 0.930 . S
N79 Tb44 2.572 . S
N79 C80 1.340 . S
N79 C82 1.361 . S
C80 H66 0.930 . S
C80 N79 1.340 . S
C80 C84 1.407 . S
C81 C82 1.413 . S
C81 C83 1.416 . S
C81 C110 1.427 . S
C82 C74 1.424 . S
C82 N79 1.361 . S
C82 C81 1.413 . S
C83 H72 0.931 . S
C83 C81 1.416 . S
C83 C84 1.332 . S
C84 H63 0.929 . S
C84 C80 1.407 . S
C84 C83 1.332 . S
H85 C78 0.930 . S
H86 C109 0.930 . S
H87 C110 0.929 . S
O88 Tb44 2.465 . S
O88 C108 1.264 . S
O89 Tb44 2.387 . S
O89 C100 1.264 . S
O90 Tb55 2.349 1_455 S
O90 C100 1.243 1_545 S
O91 Tb44 2.428 . S
O91 C108 1.256 . S
O92 Tb44 2.308 1_545 S
O92 C107 1.266 . S
O93 Tb55 2.393 1_455 S
O93 C107 1.248 . S
O94 Tb55 2.465 . S
O94 C119 1.264 . S
O95 Tb55 2.387 . S
O95 C111 1.264 . S
O96 Tb44 2.349 1_645 S
O96 C111 1.243 . S
O97 Tb55 2.428 . S
O97 C119 1.256 . S
O98 Tb55 2.308 1_565 S
O98 C118 1.266 . S
O99 Tb44 2.393 1_655 S
O99 C118 1.248 . S
C100 O89 1.264 . S
C100 O90 1.243 1_565 S
C101 C104 1.399 . S
C101 C106 1.383 . S
C101 C108 1.496 . S
C102 C103 1.399 . S
C102 C106 1.389 . S
C103 C102 1.399 . S
C103 C105 1.380 . S
C103 H120 0.929 . S
C104 C101 1.399 . S
C104 C105 1.392 . S
C104 H121 0.929 . S
C105 C103 1.380 . S
C105 C104 1.392 . S
C105 H122 0.929 . S
C106 C101 1.383 . S
C106 C102 1.389 . S
C106 H123 0.931 . S
C107 O92 1.266 . S
C107 O93 1.248 . S
C108 Tb44 2.802 . S
C108 O88 1.264 . S
C108 O91 1.256 . S
C108 C101 1.496 . S
C109 C76 1.448 . S
C109 H86 0.930 . S
C109 C110 1.328 . S
C110 C81 1.427 . S
C110 H87 0.929 . S
C110 C109 1.328 . S
C111 O95 1.264 . S
C111 O96 1.243 . S
C112 C115 1.399 . S
C112 C116 1.383 . S
C112 C119 1.496 . S
C113 C114 1.399 . S
C113 C116 1.389 . S
C114 C113 1.399 . S
C114 C117 1.380 . S
C114 H124 0.929 . S
C115 C112 1.399 . S
C115 C117 1.392 . S
C115 H125 0.929 . S
C116 C112 1.383 . S
C116 C113 1.389 . S
C116 H126 0.931 . S
C117 C114 1.380 . S
C117 C115 1.392 . S
C117 H127 0.929 . S
C118 O98 1.266 . S
C118 O99 1.248 . S
C119 Tb55 2.802 . S
C119 O94 1.264 . S
C119 O97 1.256 . S
C119 C112 1.496 . S
H120 C103 0.929 . S
H121 C104 0.929 . S
H122 C105 0.929 . S
H123 C106 0.931 . S
H124 C114 0.929 . S
H125 C115 0.929 . S
H126 C116 0.931 . S
H127 C117 0.929 . S
Tb128 N157 2.617 . S
Tb128 N163 2.572 . S
Tb128 O172 2.465 1_554 S
Tb128 O173 2.387 . S
Tb128 O175 2.428 1_554 S
Tb128 O176 2.308 . S
Tb128 O180 2.349 1_554 S
Tb128 O183 2.393 . S
Tb128 C192 2.802 1_554 S
C129 N130 1.379 . S
C129 C132 1.416 . S
C129 C136 1.424 . S
N130 C129 1.379 . S
N130 C133 1.334 . S
N130 Tb139 2.617 . S
C131 C133 1.390 . S
C131 C134 1.339 . S
C131 H151 0.930 . S
C132 C129 1.416 . S
C132 C134 1.416 . S
C132 C138 1.448 . S
C133 N130 1.334 . S
C133 C131 1.390 . S
C133 H144 0.930 . S
C134 C131 1.339 . S
C134 C132 1.416 . S
C134 H155 0.930 . S
C135 C136 1.413 . S
C135 C137 1.427 . S
C135 C141 1.416 . S
C136 C129 1.424 . S
C136 C135 1.413 . S
C136 N140 1.361 . S
C137 C135 1.427 . S
C137 C138 1.328 . S
C137 H152 0.929 . S
C138 C132 1.448 . S
C138 C137 1.328 . S
C138 H153 0.930 . S
Tb139 N130 2.617 . S
Tb139 N140 2.572 . S
Tb139 O174 2.349 . S
Tb139 O177 2.393 . S
Tb139 O178 2.465 . S
Tb139 O179 2.387 . S
Tb139 O181 2.428 . S
Tb139 O182 2.308 . S
Tb139 C203 2.802 . S
N140 C136 1.361 . S
N140 Tb139 2.572 . S
N140 C142 1.340 . S
C141 C135 1.416 . S
C141 C143 1.332 . S
C141 H149 0.931 . S
C142 N140 1.340 . S
C142 C143 1.407 . S
C142 H148 0.930 . S
C143 C141 1.332 . S
C143 C142 1.407 . S
C143 H145 0.929 . S
H144 C133 0.930 . S
H145 C143 0.929 . S
H146 C161 0.930 . S
H147 C168 0.929 . S
H148 C142 0.930 . S
H149 C141 0.931 . S
H150 C164 0.930 . S
H151 C131 0.930 . S
H152 C137 0.929 . S
H153 C138 0.930 . S
H154 C159 0.930 . S
H155 C134 0.930 . S
H156 C167 0.931 . S
N157 Tb128 2.617 . S
N157 C158 1.379 . S
N157 C161 1.334 1_554 S
C158 N157 1.379 . S
C158 C160 1.416 . S
C158 C166 1.424 . S
C159 H154 0.930 . S
C159 C161 1.390 . S
C159 C162 1.339 1_556 S
C160 C158 1.416 . S
C160 C162 1.416 . S
C160 C193 1.448 . S
C161 H146 0.930 . S
C161 N157 1.334 1_556 S
C161 C159 1.390 . S
C162 C159 1.339 1_554 S
C162 C160 1.416 . S
C162 H169 0.930 . S
N163 Tb128 2.572 . S
N163 C164 1.340 . S
N163 C166 1.361 . S
C164 H150 0.930 . S
C164 N163 1.340 . S
C164 C168 1.407 . S
C165 C166 1.413 . S
C165 C167 1.416 . S
C165 C194 1.427 . S
C166 C158 1.424 . S
C166 N163 1.361 . S
C166 C165 1.413 . S
C167 H156 0.931 . S
C167 C165 1.416 . S
C167 C168 1.332 . S
C168 H147 0.929 . S
C168 C164 1.407 . S
C168 C167 1.332 . S
H169 C162 0.930 . S
H170 C193 0.930 . S
H171 C194 0.929 . S
O172 Tb128 2.465 1_556 S
O172 C192 1.264 . S
O173 Tb128 2.387 . S
O173 C184 1.264 . S
O174 Tb139 2.349 . S
O174 C184 1.243 . S
O175 Tb128 2.428 1_556 S
O175 C192 1.256 . S
O176 Tb128 2.308 . S
O176 C191 1.266 . S
O177 Tb139 2.393 . S
O177 C191 1.248 . S
O178 Tb139 2.465 . S
O178 C203 1.264 . S
O179 Tb139 2.387 . S
O179 C195 1.264 1_554 S
O180 Tb128 2.349 1_556 S
O180 C195 1.243 . S
O181 Tb139 2.428 . S
O181 C203 1.256 . S
O182 Tb139 2.308 . S
O182 C202 1.266 . S
O183 Tb128 2.393 . S
O183 C202 1.248 . S
C184 O173 1.264 . S
C184 O174 1.243 . S
C185 C188 1.399 . S
C185 C190 1.383 . S
C185 C192 1.496 . S
C186 C187 1.399 . S
C186 C190 1.389 . S
C187 C186 1.399 . S
C187 C189 1.380 . S
C187 H204 0.929 . S
C188 C185 1.399 . S
C188 C189 1.392 . S
C188 H205 0.929 . S
C189 C187 1.380 . S
C189 C188 1.392 . S
C189 H206 0.929 . S
C190 C185 1.383 . S
C190 C186 1.389 . S
C190 H207 0.931 . S
C191 O176 1.266 . S
C191 O177 1.248 . S
C192 Tb128 2.802 1_556 S
C192 O172 1.264 . S
C192 O175 1.256 . S
C192 C185 1.496 . S
C193 C160 1.448 . S
C193 H170 0.930 . S
C193 C194 1.328 . S
C194 C165 1.427 . S
C194 H171 0.929 . S
C194 C193 1.328 . S
C195 O179 1.264 1_556 S
C195 O180 1.243 . S
C196 C199 1.399 . S
C196 C200 1.383 . S
C196 C203 1.496 . S
C197 C198 1.399 . S
C197 C200 1.389 . S
C198 C197 1.399 . S
C198 C201 1.380 . S
C198 H208 0.929 . S
C199 C196 1.399 . S
C199 C201 1.392 . S
C199 H209 0.929 . S
C200 C196 1.383 . S
C200 C197 1.389 . S
C200 H210 0.931 . S
C201 C198 1.380 . S
C201 C199 1.392 . S
C201 H211 0.929 . S
C202 O182 1.266 . S
C202 O183 1.248 . S
C203 Tb139 2.802 . S
C203 O178 1.264 . S
C203 O181 1.256 . S
C203 C196 1.496 . S
H204 C187 0.929 . S
H205 C188 0.929 . S
H206 C189 0.929 . S
H207 C190 0.931 . S
H208 C198 0.929 . S
H209 C199 0.929 . S
H210 C200 0.931 . S
H211 C201 0.929 . S
C212 C213 1.363 . S
C212 C218 1.379 . S
C212 N220 1.356 . S
C213 C212 1.363 . S
C213 C219 1.363 . S
C214 C215 1.363 . S
C214 C219 1.379 . S
C214 N221 1.356 . S
C215 C214 1.363 . S
C215 C218 1.363 . S
N216 C218 1.356 . S
N216 H228 0.984 . S
N216 H229 0.985 . S
N217 C219 1.356 . S
N217 H222 0.984 . S
N217 H223 0.985 . S
C218 C212 1.379 . S
C218 C215 1.363 . S
C218 N216 1.356 . S
C219 C213 1.363 . S
C219 C214 1.379 . S
C219 N217 1.356 . S
N220 C212 1.356 . S
N220 H226 0.984 . S
N220 H227 0.984 . S
N221 C214 1.356 . S
N221 H224 0.984 . S
N221 H225 0.985 . S
H222 N217 0.984 . S
H223 N217 0.985 . S
H224 N221 0.984 . S
H225 N221 0.985 . S
H226 N220 0.984 . S
H227 N220 0.984 . S
H228 N216 0.984 . S
H229 N216 0.985 . S
C230 C231 1.363 . S
C230 C236 1.379 . S
C230 N238 1.356 1_554 S
C231 C230 1.363 . S
C231 C237 1.363 . S
C232 C233 1.363 . S
C232 C237 1.379 . S
C232 N239 1.356 . S
C233 C232 1.363 . S
C233 C236 1.363 . S
N234 C236 1.356 1_556 S
N234 H246 0.984 . S
N234 H247 0.985 . S
N235 C237 1.356 . S
N235 H240 0.984 . S
N235 H241 0.985 . S
C236 C230 1.379 . S
C236 C233 1.363 . S
C236 N234 1.356 1_554 S
C237 C231 1.363 . S
C237 C232 1.379 . S
C237 N235 1.356 . S
N238 C230 1.356 1_556 S
N238 H244 0.984 . S
N238 H245 0.984 . S
N239 C232 1.356 . S
N239 H242 0.984 . S
N239 H243 0.985 . S
H240 N235 0.984 . S
H241 N235 0.985 . S
H242 N239 0.984 . S
H243 N239 0.985 . S
H244 N238 0.984 . S
H245 N238 0.984 . S
H246 N234 0.984 . S
H247 N234 0.985 . S
C248 C249 1.363 . S
C248 C254 1.379 . S
C248 N256 1.356 . S
C249 C248 1.363 . S
C249 C255 1.363 . S
C250 C251 1.363 . S
C250 C255 1.379 . S
C250 N257 1.356 . S
C251 C250 1.363 . S
C251 C254 1.363 . S
N252 C254 1.356 . S
N252 H264 0.984 1_565 S
N252 H265 0.985 . S
N253 C255 1.356 . S
N253 H258 0.984 . S
N253 H259 0.985 . S
C254 C248 1.379 . S
C254 C251 1.363 . S
C254 N252 1.356 . S
C255 C249 1.363 . S
C255 C250 1.379 . S
C255 N253 1.356 . S
N256 C248 1.356 . S
N256 H262 0.984 . S
N256 H263 0.984 . S
N257 C250 1.356 . S
N257 H260 0.984 . S
N257 H261 0.985 . S
H258 N253 0.984 . S
H259 N253 0.985 . S
H260 N257 0.984 . S
H261 N257 0.985 . S
H262 N256 0.984 . S
H263 N256 0.984 . S
H264 N252 0.984 1_545 S
H265 N252 0.985 . S
C266 C267 1.363 . S
C266 C272 1.379 . S
C266 N274 1.356 . S
C267 C266 1.363 . S
C267 C273 1.363 . S
C268 C269 1.363 . S
C268 C273 1.379 . S
C268 N275 1.356 . S
C269 C268 1.363 . S
C269 C272 1.363 . S
N270 C272 1.356 . S
N270 H282 0.984 1_554 S
N270 H283 0.985 . S
N271 C273 1.356 . S
N271 H276 0.984 . S
N271 H277 0.985 . S
C272 C266 1.379 . S
C272 C269 1.363 . S
C272 N270 1.356 . S
C273 C267 1.363 . S
C273 C268 1.379 . S
C273 N271 1.356 . S
N274 C266 1.356 . S
N274 H280 0.984 1_554 S
N274 H281 0.984 . S
N275 C268 1.356 . S
N275 H278 0.984 . S
N275 H279 0.985 . S
H276 N271 0.984 . S
H277 N271 0.985 . S
H278 N275 0.984 . S
H279 N275 0.985 . S
H280 N274 0.984 1_556 S
H281 N274 0.984 . S
H282 N270 0.984 1_556 S
H283 N270 0.985 . S
C284 C285 1.363 . S
C284 C290 1.379 . S
C284 N292 1.356 . S
C285 C284 1.363 . S
C285 C291 1.363 . S
C286 C287 1.363 . S
C286 C291 1.379 . S
C286 N293 1.356 . S
C287 C286 1.363 . S
C287 C290 1.363 . S
N288 C290 1.356 1_545 S
N288 H300 0.984 . S
N288 H301 0.985 . S
N289 C291 1.356 . S
N289 H294 0.984 . S
N289 H295 0.985 . S
C290 C284 1.379 . S
C290 C287 1.363 . S
C290 N288 1.356 1_565 S
C291 C285 1.363 . S
C291 C286 1.379 . S
C291 N289 1.356 . S
N292 C284 1.356 . S
N292 H298 0.984 1_565 S
N292 H299 0.984 . S
N293 C286 1.356 . S
N293 H296 0.984 . S
N293 H297 0.985 . S
H294 N289 0.984 . S
H295 N289 0.985 . S
H296 N293 0.984 . S
H297 N293 0.985 . S
H298 N292 0.984 1_545 S
H299 N292 0.984 . S
H300 N288 0.984 . S
H301 N288 0.985 . S
C302 C303 1.363 . S
C302 C308 1.379 . S
C302 N310 1.356 . S
C303 C302 1.363 . S
C303 C309 1.363 . S
C304 C305 1.363 . S
C304 C309 1.379 . S
C304 N311 1.356 . S
C305 C304 1.363 . S
C305 C308 1.363 . S
N306 C308 1.356 . S
N306 H318 0.984 . S
N306 H319 0.985 . S
N307 C309 1.356 . S
N307 H312 0.984 . S
N307 H313 0.985 . S
C308 C302 1.379 . S
C308 C305 1.363 . S
C308 N306 1.356 . S
C309 C303 1.363 . S
C309 C304 1.379 . S
C309 N307 1.356 . S
N310 C302 1.356 . S
N310 H316 0.984 . S
N310 H317 0.984 . S
N311 C304 1.356 . S
N311 H314 0.984 . S
N311 H315 0.985 . S
H312 N307 0.984 . S
H313 N307 0.985 . S
H314 N311 0.984 . S
H315 N311 0.985 . S
H316 N310 0.984 . S
H317 N310 0.984 . S
H318 N306 0.984 . S
H319 N306 0.985 . S
C320 C321 1.363 . S
C320 C326 1.379 . S
C320 N328 1.356 . S
C321 C320 1.363 . S
C321 C327 1.363 . S
C322 C323 1.363 . S
C322 C327 1.379 . S
C322 N329 1.356 1_545 S
C323 C322 1.363 . S
C323 C326 1.363 . S
N324 C326 1.356 . S
N324 H336 0.984 . S
N324 H337 0.985 . S
N325 C327 1.356 . S
N325 H330 0.984 . S
N325 H331 0.985 1_545 S
C326 C320 1.379 . S
C326 C323 1.363 . S
C326 N324 1.356 . S
C327 C321 1.363 . S
C327 C322 1.379 . S
C327 N325 1.356 . S
N328 C320 1.356 . S
N328 H334 0.984 . S
N328 H335 0.984 . S
N329 C322 1.356 1_565 S
N329 H332 0.984 . S
N329 H333 0.985 . S
H330 N325 0.984 . S
H331 N325 0.985 1_565 S
H332 N329 0.984 . S
H333 N329 0.985 . S
H334 N328 0.984 . S
H335 N328 0.984 . S
H336 N324 0.984 . S
H337 N324 0.985 . S
C338 C339 1.363 . S
C338 C344 1.379 . S
C338 N346 1.356 . S
C339 C338 1.363 . S
C339 C345 1.363 . S
C340 C341 1.363 . S
C340 C345 1.379 . S
C340 N347 1.356 . S
C341 C340 1.363 . S
C341 C344 1.363 . S
N342 C344 1.356 . S
N342 H354 0.984 . S
N342 H355 0.985 . S
N343 C345 1.356 . S
N343 H348 0.984 . S
N343 H349 0.985 . S
C344 C338 1.379 . S
C344 C341 1.363 . S
C344 N342 1.356 . S
C345 C339 1.363 . S
C345 C340 1.379 . S
C345 N343 1.356 . S
N346 C338 1.356 . S
N346 H352 0.984 . S
N346 H353 0.984 . S
N347 C340 1.356 . S
N347 H350 0.984 . S
N347 H351 0.985 . S
H348 N343 0.984 . S
H349 N343 0.985 . S
H350 N347 0.984 . S
H351 N347 0.985 . S
H352 N346 0.984 . S
H353 N346 0.984 . S
H354 N342 0.984 . S
H355 N342 0.985 . S
C356 C357 1.363 . S
C356 C362 1.379 . S
C356 N364 1.356 . S
C357 C356 1.363 . S
C357 C363 1.363 . S
C358 C359 1.363 . S
C358 C363 1.379 . S
C358 N365 1.356 . S
C359 C358 1.363 . S
C359 C362 1.363 . S
N360 C362 1.356 . S
N360 H372 0.984 . S
N360 H373 0.985 . S
N361 C363 1.356 . S
N361 H366 0.984 . S
N361 H367 0.985 . S
C362 C356 1.379 . S
C362 C359 1.363 . S
C362 N360 1.356 . S
C363 C357 1.363 . S
C363 C358 1.379 . S
C363 N361 1.356 . S
N364 C356 1.356 . S
N364 H370 0.984 . S
N364 H371 0.984 . S
N365 C358 1.356 . S
N365 H368 0.984 . S
N365 H369 0.985 . S
H366 N361 0.984 . S
H367 N361 0.985 . S
H368 N365 0.984 . S
H369 N365 0.985 . S
H370 N364 0.984 . S
H371 N364 0.984 . S
H372 N360 0.984 . S
H373 N360 0.985 . S
C374 C375 1.363 . S
C374 C380 1.379 . S
C374 N382 1.356 . S
C375 C374 1.363 . S
C375 C381 1.363 1_556 S
C376 C377 1.363 . S
C376 C381 1.379 1_556 S
C376 N383 1.356 1_545 S
C377 C376 1.363 . S
C377 C380 1.363 . S
N378 C380 1.356 . S
N378 H390 0.984 . S
N378 H391 0.985 . S
N379 C381 1.356 . S
N379 H384 0.984 . S
N379 H385 0.985 . S
C380 C374 1.379 . S
C380 C377 1.363 . S
C380 N378 1.356 . S
C381 C375 1.363 1_554 S
C381 C376 1.379 1_554 S
C381 N379 1.356 . S
N382 C374 1.356 . S
N382 H388 0.984 . S
N382 H389 0.984 . S
N383 C376 1.356 1_565 S
N383 H386 0.984 . S
N383 H387 0.985 . S
H384 N379 0.984 . S
H385 N379 0.985 . S
H386 N383 0.984 . S
H387 N383 0.985 . S
H388 N382 0.984 . S
H389 N382 0.984 . S
H390 N378 0.984 . S
H391 N378 0.985 . S
C392 C393 1.363 . S
C392 C398 1.379 . S
C392 N400 1.356 . S
C393 C392 1.363 . S
C393 C399 1.363 . S
C394 C395 1.363 . S
C394 C399 1.379 . S
C394 N401 1.356 . S
C395 C394 1.363 . S
C395 C398 1.363 . S
N396 C398 1.356 . S
N396 H408 0.984 . S
N396 H409 0.985 . S
N397 C399 1.356 . S
N397 H402 0.984 . S
N397 H403 0.985 . S
C398 C392 1.379 . S
C398 C395 1.363 . S
C398 N396 1.356 . S
C399 C393 1.363 . S
C399 C394 1.379 . S
C399 N397 1.356 . S
N400 C392 1.356 . S
N400 H406 0.984 . S
N400 H407 0.984 . S
N401 C394 1.356 . S
N401 H404 0.984 . S
N401 H405 0.985 . S
H402 N397 0.984 . S
H403 N397 0.985 . S
H404 N401 0.984 . S
H405 N401 0.985 . S
H406 N400 0.984 . S
H407 N400 0.984 . S
H408 N396 0.984 . S
H409 N396 0.985 . S
C410 C411 1.363 . S
C410 C416 1.379 . S
C410 N418 1.356 . S
C411 C410 1.363 . S
C411 C417 1.363 . S
C412 C413 1.363 . S
C412 C417 1.379 . S
C412 N419 1.356 . S
C413 C412 1.363 . S
C413 C416 1.363 . S
N414 C416 1.356 1_545 S
N414 H426 0.984 . S
N414 H427 0.985 . S
N415 C417 1.356 . S
N415 H420 0.984 . S
N415 H421 0.985 . S
C416 C410 1.379 . S
C416 C413 1.363 . S
C416 N414 1.356 1_565 S
C417 C411 1.363 . S
C417 C412 1.379 . S
C417 N415 1.356 . S
N418 C410 1.356 . S
N418 H424 0.984 1_565 S
N418 H425 0.984 . S
N419 C412 1.356 . S
N419 H422 0.984 . S
N419 H423 0.985 . S
H420 N415 0.984 . S
H421 N415 0.985 . S
H422 N419 0.984 . S
H423 N419 0.985 . S
H424 N418 0.984 1_545 S
H425 N418 0.984 . S
H426 N414 0.984 . S
H427 N414 0.985 . S
C215 C107 1.627 . S
C213 C43 1.638 . S
C231 C10 1.639 . S
C233 C202 1.635 . S
C249 C21 1.635 . S
C251 C118 1.648 . S
C267 C32 1.603 . S
C269 C191 1.605 . S
C287 C102 1.411 . S
C285 C5 1.586 . S
C305 C195 1.688 . S
C303 C15 1.682 . S
C321 C27 1.624 . S
C323 C111 1.651 . S
C339 C38 1.588 . S
C341 C186 1.425 . S
C359 C197 1.390 . S
C357 C16 1.554 . S
C377 C113 1.357 . S
C375 C26 1.542 1_556 S
C395 C184 1.618 . S
C393 C37 1.605 . S
C411 C4 1.568 . S
C413 C100 1.592 . S
