# Generated by pormake.
# Topology pto, (3,4)-cn, num edge types: 1
# Building blocks:
#     Node 0, Type 0, BuildingBlock: QEWDON_clean_linker_0, # of connection points: 3
#     Node 1, Type 0, BuildingBlock: QEWDON_clean_linker_0, # of connection points: 3
#     Node 2, Type 0, BuildingBlock: QEWDON_clean_linker_0, # of connection points: 3
#     Node 3, Type 0, BuildingBlock: QEWDON_clean_linker_0, # of connection points: 3
#     Node 4, Type 0, BuildingBlock: QEWDON_clean_linker_0, # of connection points: 3
#     Node 5, Type 0, BuildingBlock: QEWDON_clean_linker_0, # of connection points: 3
#     Node 6, Type 0, BuildingBlock: QEWDON_clean_linker_0, # of connection points: 3
#     Node 7, Type 0, BuildingBlock: QEWDON_clean_linker_0, # of connection points: 3
#     Node 8, Type 1, BuildingBlock: NAWXER_clean_sbu_0, # of connection points: 4
#     Node 9, Type 1, BuildingBlock: NAWXER_clean_sbu_0, # of connection points: 4
#     Node 10, Type 1, BuildingBlock: NAWXER_clean_sbu_0, # of connection points: 4
#     Node 11, Type 1, BuildingBlock: NAWXER_clean_sbu_0, # of connection points: 4
#     Node 12, Type 1, BuildingBlock: NAWXER_clean_sbu_0, # of connection points: 4
#     Node 13, Type 1, BuildingBlock: NAWXER_clean_sbu_0, # of connection points: 4
#     Edge 14, Type (0, 1), BuildingBlock: MIFKUJ_clean_linker_0, # of connection points: 2
#     Edge 15, Type (0, 1), BuildingBlock: MIFKUJ_clean_linker_0, # of connection points: 2
#     Edge 16, Type (0, 1), BuildingBlock: MIFKUJ_clean_linker_0, # of connection points: 2
#     Edge 17, Type (0, 1), BuildingBlock: MIFKUJ_clean_linker_0, # of connection points: 2
#     Edge 18, Type (0, 1), BuildingBlock: MIFKUJ_clean_linker_0, # of connection points: 2
#     Edge 19, Type (0, 1), BuildingBlock: MIFKUJ_clean_linker_0, # of connection points: 2
#     Edge 20, Type (0, 1), BuildingBlock: MIFKUJ_clean_linker_0, # of connection points: 2
#     Edge 21, Type (0, 1), BuildingBlock: MIFKUJ_clean_linker_0, # of connection points: 2
#     Edge 22, Type (0, 1), BuildingBlock: MIFKUJ_clean_linker_0, # of connection points: 2
#     Edge 23, Type (0, 1), BuildingBlock: MIFKUJ_clean_linker_0, # of connection points: 2
#     Edge 24, Type (0, 1), BuildingBlock: MIFKUJ_clean_linker_0, # of connection points: 2
#     Edge 25, Type (0, 1), BuildingBlock: MIFKUJ_clean_linker_0, # of connection points: 2
#     Edge 26, Type (0, 1), BuildingBlock: MIFKUJ_clean_linker_0, # of connection points: 2
#     Edge 27, Type (0, 1), BuildingBlock: MIFKUJ_clean_linker_0, # of connection points: 2
#     Edge 28, Type (0, 1), BuildingBlock: MIFKUJ_clean_linker_0, # of connection points: 2
#     Edge 29, Type (0, 1), BuildingBlock: MIFKUJ_clean_linker_0, # of connection points: 2
#     Edge 30, Type (0, 1), BuildingBlock: MIFKUJ_clean_linker_0, # of connection points: 2
#     Edge 31, Type (0, 1), BuildingBlock: MIFKUJ_clean_linker_0, # of connection points: 2
#     Edge 32, Type (0, 1), BuildingBlock: MIFKUJ_clean_linker_0, # of connection points: 2
#     Edge 33, Type (0, 1), BuildingBlock: MIFKUJ_clean_linker_0, # of connection points: 2
#     Edge 34, Type (0, 1), BuildingBlock: MIFKUJ_clean_linker_0, # of connection points: 2
#     Edge 35, Type (0, 1), BuildingBlock: MIFKUJ_clean_linker_0, # of connection points: 2
#     Edge 36, Type (0, 1), BuildingBlock: MIFKUJ_clean_linker_0, # of connection points: 2
#     Edge 37, Type (0, 1), BuildingBlock: MIFKUJ_clean_linker_0, # of connection points: 2
# Relax obj value: 0.022
# Max RMSD: 0.220
# Mean RMSD: 0.079
data_MOF--net-pto--node1-NAWXER_clean_sbu_0--node2-QEWDON_clean_linker_0--edge1-MIFKUJ_clean_linker_0
_symmetry_space_group_name_H-M    P1
_symmetry_Int_Tables_number       1
_symmetry_cell_setting            triclinic
loop_
_symmetry_equiv_pos_as_xyz
'x, y, z'
_cell_length_a     52.226929
_cell_length_b     53.772529
_cell_length_c     51.394799
_cell_angle_alpha  97.714054
_cell_angle_beta   106.48418
_cell_angle_gamma 99.832646
loop_
_atom_site_label
_atom_site_type_symbol
_atom_site_fract_x
_atom_site_fract_y
_atom_site_fract_z
_atom_type_partial_charge
H0 H 0.32223 0.32285 0.26589 0.0
C1 C 0.32397 0.30687 0.2766 0.0
C2 C 0.3361 0.28719 0.26785 0.0
C3 C 0.31523 0.30665 0.30001 0.0
H4 H 0.34826 0.25187 0.27629 0.0
C5 C 0.33853 0.26689 0.28244 0.0
C6 C 0.32935 0.26622 0.30555 0.0
C7 C 0.31773 0.28619 0.31418 0.0
C8 C 0.30618 0.329 0.31163 0.0
H9 H 0.31143 0.28631 0.33256 0.0
C10 C 0.28325 0.33708 0.29623 0.0
C11 C 0.27427 0.35763 0.30837 0.0
C12 C 0.3205 0.34202 0.33886 0.0
H13 H 0.3383 0.33617 0.35097 0.0
C14 C 0.31215 0.36279 0.35064 0.0
H15 H 0.2719 0.32681 0.27537 0.0
C16 C 0.28919 0.37054 0.33559 0.0
H17 H 0.28312 0.38674 0.34526 0.0
H18 H 0.32342 0.37283 0.37158 0.0
H19 H 0.43227 0.77269 0.75961 0.0
C20 C 0.41096 0.76267 0.75245 0.0
C21 C 0.40364 0.73682 0.75472 0.0
C22 C 0.39092 0.77658 0.74294 0.0
H23 H 0.36956 0.70511 0.74827 0.0
C24 C 0.3757 0.72491 0.74642 0.0
C25 C 0.35546 0.73902 0.73848 0.0
C26 C 0.36316 0.76479 0.73624 0.0
C27 C 0.39945 0.80443 0.7441 0.0
H28 H 0.34772 0.77603 0.73088 0.0
C29 C 0.39564 0.81463 0.71981 0.0
C30 C 0.40606 0.84094 0.72134 0.0
C31 C 0.41297 0.82073 0.76989 0.0
H32 H 0.4161 0.81314 0.78878 0.0
C33 C 0.42267 0.84687 0.77152 0.0
H34 H 0.3856 0.80198 0.69986 0.0
C35 C 0.41938 0.85694 0.74745 0.0
H36 H 0.42718 0.87731 0.74925 0.0
H37 H 0.43299 0.85934 0.79149 0.0
H38 H 0.92333 0.77715 0.3968 0.0
C39 C 0.90937 0.78372 0.38055 0.0
C40 C 0.9084 0.77638 0.35292 0.0
C41 C 0.89145 0.7985 0.38718 0.0
H42 H 0.88872 0.77883 0.31065 0.0
C43 C 0.88987 0.78462 0.33207 0.0
C44 C 0.87159 0.7989 0.33829 0.0
C45 C 0.87251 0.80594 0.36586 0.0
C46 C 0.89053 0.80396 0.41591 0.0
H47 H 0.85778 0.81629 0.37057 0.0
C48 C 0.89053 0.82892 0.42847 0.0
C49 C 0.88828 0.83375 0.45535 0.0
C50 C 0.88846 0.78379 0.43046 0.0
H51 H 0.8881 0.76438 0.42113 0.0
C52 C 0.88591 0.7883 0.45684 0.0
H53 H 0.89281 0.84452 0.41742 0.0
C54 C 0.8856 0.81296 0.46913 0.0
H55 H 0.8829 0.81556 0.48936 0.0
H56 H 0.88386 0.77255 0.46772 0.0
H57 H 0.91911 0.37521 0.98745 0.0
C58 C 0.91199 0.35818 0.9712 0.0
C59 C 0.92046 0.35806 0.94768 0.0
C60 C 0.89496 0.33621 0.9742 0.0
H61 H 0.9182 0.33582 0.90866 0.0
C62 C 0.91145 0.33602 0.92679 0.0
C63 C 0.89425 0.31406 0.92935 0.0
C64 C 0.88603 0.31414 0.95312 0.0
C65 C 0.88789 0.33624 1.00011 0.0
H66 H 0.87326 0.29698 0.95545 0.0
C67 C 0.86042 0.33097 0.99973 0.0
C68 C 0.85413 0.33352 0.0247 0.0
C69 C 0.90892 0.34301 0.02561 0.0
H70 H 0.93019 0.34702 0.02635 0.0
C71 C 0.90271 0.34481 0.05035 0.0
H72 H 0.84406 0.32616 0.98015 0.0
C73 C 0.8755 0.34032 0.04996 0.0
H74 H 0.87109 0.34224 0.06941 0.0
H75 H 0.91904 0.35005 0.0699 0.0
H76 H 0.98254 0.83331 0.87241 0.0
C77 C 0.96407 0.82945 0.87825 0.0
C78 C 0.9485 0.80417 0.87269 0.0
C79 C 0.95626 0.84978 0.89186 0.0
H80 H 0.91231 0.78021 0.87583 0.0
C81 C 0.92444 0.79964 0.88016 0.0
C82 C 0.91629 0.81996 0.89371 0.0
C83 C 0.93257 0.84497 0.89969 0.0
C84 C 0.97327 0.87607 0.8987 0.0
H85 H 0.92707 0.86078 0.91076 0.0
C86 C 0.97395 0.89027 0.87781 0.0
C87 C 0.98923 0.91581 0.8844 0.0
C88 C 0.98826 0.88726 0.92628 0.0
H89 H 0.98784 0.87654 0.94262 0.0
C90 C 0.00396 0.91234 0.93291 0.0
H91 H 0.96228 0.8815 0.85652 0.0
C92 C 0.00442 0.9266 0.91217 0.0
H93 H 0.01611 0.94628 0.918 0.0
H94 H 0.01551 0.92089 0.95423 0.0
H95 H 0.88701 0.36749 0.41582 0.0
C96 C 0.86816 0.37259 0.40503 0.0
C97 C 0.86874 0.39748 0.39923 0.0
C98 C 0.8436 0.35387 0.39564 0.0
H99 H 0.84475 0.42274 0.37973 0.0
C100 C 0.84426 0.40372 0.38461 0.0
C101 C 0.8195 0.38515 0.37488 0.0
C102 C 0.81945 0.36036 0.38075 0.0
C103 C 0.84326 0.32688 0.39915 0.0
H104 H 0.80072 0.34561 0.37276 0.0
C105 C 0.85536 0.32098 0.42514 0.0
C106 C 0.85314 0.29516 0.42829 0.0
C107 C 0.82996 0.30671 0.37626 0.0
H108 H 0.82088 0.31071 0.35596 0.0
C109 C 0.82826 0.28117 0.37927 0.0
H110 H 0.86543 0.33633 0.443 0.0
C111 C 0.83957 0.27538 0.40513 0.0
H112 H 0.83781 0.25539 0.40706 0.0
H113 H 0.81795 0.26579 0.36153 0.0
H114 H 0.33696 0.30704 0.75687 0.0
C115 C 0.32147 0.31791 0.75779 0.0
C116 C 0.32011 0.3294 0.78356 0.0
C117 C 0.30376 0.32143 0.73301 0.0
H118 H 0.29906 0.35343 0.80341 0.0
C119 C 0.29978 0.34355 0.78391 0.0
C120 C 0.2814 0.34656 0.75921 0.0
C121 C 0.28365 0.33547 0.73388 0.0
C122 C 0.30816 0.31318 0.70629 0.0
H123 H 0.26991 0.33796 0.71465 0.0
C124 C 0.30713 0.28722 0.69627 0.0
C125 C 0.31177 0.28006 0.67089 0.0
C126 C 0.31374 0.3318 0.69074 0.0
H127 H 0.3147 0.35189 0.69815 0.0
C128 C 0.31853 0.32477 0.66574 0.0
H129 H 0.30273 0.27273 0.70811 0.0
C130 C 0.31762 0.2991 0.65586 0.0
H131 H 0.32108 0.29402 0.63621 0.0
H132 H 0.32291 0.33926 0.65395 0.0
H133 H 0.33948 0.82289 0.18032 0.0
C134 C 0.33475 0.80387 0.18494 0.0
C135 C 0.32816 0.80105 0.20916 0.0
C136 C 0.33354 0.78204 0.16582 0.0
H137 H 0.31555 0.77427 0.233 0.0
C138 C 0.32123 0.77639 0.21455 0.0
C139 C 0.31996 0.75442 0.19572 0.0
C140 C 0.326 0.75733 0.17119 0.0
C141 C 0.3365 0.78508 0.13867 0.0
H142 H 0.32401 0.74048 0.15597 0.0
C143 C 0.36143 0.78482 0.13334 0.0
C144 C 0.36405 0.78858 0.10748 0.0
C145 C 0.31411 0.78881 0.11805 0.0
H146 H 0.29479 0.78909 0.1219 0.0
C147 C 0.31646 0.79221 0.09235 0.0
H148 H 0.3788 0.78229 0.14947 0.0
C149 C 0.34121 0.79213 0.08705 0.0
H150 H 0.3424 0.79461 0.06683 0.0
H151 H 0.29905 0.79496 0.07647 0.0
C152 C 0.07656 0.54606 0.33135 0.0
C153 C 0.13919 0.59025 0.28874 0.0
O154 O 0.1009 0.55889 0.34368 0.0
Zn155 Zn 0.1085 0.56834 0.31103 0.0
O156 O 0.06645 0.54377 0.30507 0.0
Zn157 Zn 0.07803 0.55617 0.27122 0.0
O158 O 0.07635 0.52403 0.24772 0.0
O159 O 0.10831 0.53185 0.28845 0.0
O160 O 0.11567 0.57917 0.27145 0.0
O161 O 0.14403 0.58888 0.31412 0.0
O162 O 0.08129 0.59364 0.30039 0.0
O163 O 0.05176 0.57699 0.25893 0.0
C164 C 0.09545 0.51722 0.26484 0.0
C165 C 0.06055 0.59477 0.28035 0.0
C166 C 0.08874 0.54747 0.86439 0.0
C167 C 0.14693 0.59623 0.821 0.0
O168 O 0.11249 0.56164 0.87621 0.0
Zn169 Zn 0.11833 0.57214 0.84337 0.0
O170 O 0.07786 0.54444 0.83815 0.0
Zn171 Zn 0.08835 0.55678 0.80383 0.0
O172 O 0.09014 0.52493 0.78212 0.0
O173 O 0.12353 0.53758 0.82177 0.0
O174 O 0.12454 0.5826 0.80353 0.0
O175 O 0.15162 0.59616 0.84666 0.0
O176 O 0.08818 0.59426 0.83064 0.0
O177 O 0.05971 0.57468 0.78949 0.0
C178 C 0.11178 0.52148 0.79893 0.0
C179 C 0.06718 0.5934 0.80993 0.0
C180 C 0.36446 0.99474 0.51352 0.0
C181 C 0.35394 0.06242 0.45936 0.0
O182 O 0.33937 0.9939 0.50036 0.0
Zn183 Zn 0.31657 0.01458 0.47263 0.0
O184 O 0.38321 0.0119 0.51114 0.0
Zn185 Zn 0.35993 0.02844 0.48598 0.0
O186 O 0.33871 0.04588 0.51086 0.0
O187 O 0.29455 0.02831 0.49336 0.0
O188 O 0.37624 0.05777 0.47357 0.0
O189 O 0.33107 0.04785 0.45748 0.0
O190 O 0.29911 0.98882 0.43899 0.0
O191 O 0.3439 1.00021 0.44872 0.0
C192 C 0.31419 0.04449 0.51162 0.0
C193 C 0.32069 0.98668 0.43288 0.0
C194 C 0.67972 0.76069 0.07025 0.0
C195 C 0.62053 0.72973 0.97536 0.0
O196 O 0.66962 0.73756 0.05758 0.0
Zn197 Zn 0.64966 0.74488 0.02291 0.0
O198 O 0.67409 0.77919 0.05784 0.0
Zn199 Zn 0.64977 0.78337 0.01788 0.0
O200 O 0.62183 0.79986 0.02576 0.0
O201 O 0.61771 0.76018 0.03321 0.0
O202 O 0.62686 0.75434 0.98207 0.0
O203 O 0.62901 0.71626 0.99315 0.0
O204 O 0.6815 0.76272 0.0077 0.0
O205 O 0.67648 0.80228 0.00456 0.0
C206 C 0.60924 0.78119 0.0333 0.0
C207 C 0.68926 0.78454 0.00154 0.0
C208 C 0.94014 0.08583 0.69399 0.0
C209 C 0.92047 0.15017 0.63692 0.0
O210 O 0.91441 0.08447 0.68339 0.0
Zn211 Zn 0.88812 0.1039 0.65675 0.0
O212 O 0.95731 0.10291 0.68912 0.0
Zn213 Zn 0.93073 0.11805 0.66577 0.0
O214 O 0.91297 0.13454 0.69516 0.0
O215 O 0.86853 0.11772 0.67997 0.0
O216 O 0.94369 0.14694 0.65053 0.0
O217 O 0.8987 0.13539 0.63756 0.0
O218 O 0.86813 0.07619 0.62594 0.0
O219 O 0.91204 0.08721 0.63021 0.0
C220 C 0.88916 0.1328 0.69805 0.0
C221 C 0.88818 0.07287 0.61754 0.0
C222 C 0.5908 0.36369 0.13778 0.0
C223 C 0.52693 0.35149 0.04467 0.0
O224 O 0.58183 0.33989 0.12606 0.0
Zn225 Zn 0.55489 0.31757 0.0866 0.0
O226 O 0.58294 0.381 0.12487 0.0
Zn227 Zn 0.55896 0.35797 0.09144 0.0
O228 O 0.5276 0.33822 0.10548 0.0
O229 O 0.52682 0.29675 0.09707 0.0
O230 O 0.53818 0.37242 0.06196 0.0
O231 O 0.53171 0.33018 0.05119 0.0
O232 O 0.57942 0.30092 0.07227 0.0
O233 O 0.5884 0.34304 0.07551 0.0
C234 C 0.51734 0.31503 0.10637 0.0
C235 C 0.5941 0.32115 0.06939 0.0
H236 H 0.2581 0.36487 0.25461 0.0
H237 H 0.21892 0.38259 0.23225 0.0
H238 H 0.19525 0.38649 0.30636 0.0
H239 H 0.23354 0.36821 0.32826 0.0
H240 H 0.15105 0.37275 0.26229 0.0
H241 H 0.23618 0.43845 0.29298 0.0
H242 H 0.28269 0.45739 0.29302 0.0
H243 H 0.25217 0.45593 0.20582 0.0
H244 H 0.20551 0.43668 0.20524 0.0
H245 H 0.11186 0.4858 0.29988 0.0
H246 H 0.13229 0.44916 0.29168 0.0
H247 H 0.1199 0.45784 0.20704 0.0
H248 H 0.09862 0.4945 0.21508 0.0
H249 H 0.17522 0.4583 0.23872 0.0
H250 H 0.08693 0.40469 0.21435 0.0
H251 H 0.04124 0.38892 0.2182 0.0
H252 H 0.07802 0.36993 0.29683 0.0
H253 H 0.12396 0.38595 0.29368 0.0
C254 C 0.24417 0.36905 0.26585 0.0
C255 C 0.24913 0.36557 0.29335 0.0
C256 C 0.2219 0.37929 0.25313 0.0
C257 C 0.20434 0.38621 0.26776 0.0
C258 C 0.20849 0.38136 0.29463 0.0
C259 C 0.23059 0.37117 0.30726 0.0
C260 C 0.18298 0.40046 0.25654 0.0
C261 C 0.15625 0.39137 0.25692 0.0
C262 C 0.18948 0.42441 0.24866 0.0
C263 C 0.2175 0.43579 0.24898 0.0
C264 C 0.23946 0.44197 0.27378 0.0
C265 C 0.26582 0.45279 0.27391 0.0
C266 C 0.2704 0.45776 0.24942 0.0
C267 C 0.2486 0.45198 0.22475 0.0
C268 C 0.22221 0.44111 0.22451 0.0
C269 C 0.11291 0.47954 0.27934 0.0
C270 C 0.10373 0.49291 0.25811 0.0
C271 C 0.12447 0.45855 0.27464 0.0
C272 C 0.12746 0.45071 0.24871 0.0
C273 C 0.11755 0.46351 0.22712 0.0
C274 C 0.10536 0.48431 0.23169 0.0
C275 C 0.14376 0.43111 0.24582 0.0
C276 C 0.16961 0.43921 0.2429 0.0
C277 C 0.13655 0.40644 0.25178 0.0
C278 C 0.10895 0.39658 0.25377 0.0
C279 C 0.0853 0.39729 0.23255 0.0
C280 C 0.05934 0.38829 0.23459 0.0
C281 C 0.05673 0.37843 0.25774 0.0
C282 C 0.08008 0.37754 0.27888 0.0
C283 C 0.10609 0.38653 0.27695 0.0
H284 H 0.03661 0.37148 0.2593 0.0
H285 H 0.29082 0.46616 0.24956 0.0
H286 H 0.32167 0.69305 0.70926 0.0
H287 H 0.28138 0.67061 0.71913 0.0
H288 H 0.28772 0.73695 0.77976 0.0
H289 H 0.32746 0.75964 0.76956 0.0
H290 H 0.29325 0.68085 0.79435 0.0
H291 H 0.23769 0.73113 0.73902 0.0
H292 H 0.21915 0.74653 0.69592 0.0
H293 H 0.18409 0.66862 0.65248 0.0
H294 H 0.2028 0.65274 0.69528 0.0
H295 H 0.18884 0.63719 0.85031 0.0
H296 H 0.22119 0.66301 0.83281 0.0
H297 H 0.18326 0.61525 0.75159 0.0
H298 H 0.15026 0.59011 0.7687 0.0
H299 H 0.19338 0.66204 0.74565 0.0
H300 H 0.24598 0.61 0.79611 0.0
H301 H 0.26581 0.59044 0.83577 0.0
H302 H 0.30829 0.66528 0.88415 0.0
H303 H 0.28842 0.68534 0.8449 0.0
C304 C 0.31375 0.70313 0.72389 0.0
C305 C 0.32747 0.72811 0.73851 0.0
C306 C 0.29089 0.69031 0.72957 0.0
C307 C 0.28174 0.7022 0.75016 0.0
C308 C 0.29444 0.72761 0.76366 0.0
C309 C 0.31696 0.7406 0.75765 0.0
C310 C 0.26152 0.68702 0.76023 0.0
C311 C 0.27135 0.677 0.78402 0.0
C312 C 0.2332 0.6812 0.74593 0.0
C313 C 0.22195 0.69075 0.72026 0.0
C314 C 0.22631 0.71727 0.72021 0.0
C315 C 0.2157 0.72609 0.69585 0.0
C316 C 0.20053 0.70856 0.67145 0.0
C317 C 0.19588 0.68217 0.67138 0.0
C318 C 0.20647 0.67326 0.69569 0.0
C319 C 0.18746 0.6322 0.82875 0.0
C320 C 0.16705 0.61162 0.8109 0.0
C321 C 0.20601 0.6469 0.81877 0.0
C322 C 0.20492 0.6409 0.79091 0.0
C323 C 0.1845 0.62034 0.77311 0.0
C324 C 0.1657 0.60593 0.78296 0.0
C325 C 0.22497 0.65607 0.7803 0.0
C326 C 0.21523 0.66591 0.75623 0.0
C327 C 0.25353 0.66117 0.79395 0.0
C328 C 0.26547 0.64919 0.81765 0.0
C329 C 0.25937 0.62231 0.81528 0.0
C330 C 0.27065 0.61112 0.83767 0.0
C331 C 0.28823 0.62661 0.86248 0.0
C332 C 0.29463 0.65331 0.86493 0.0
C333 C 0.28338 0.6646 0.84261 0.0
H334 H 0.29695 0.61792 0.87978 0.0
H335 H 0.19232 0.71543 0.65262 0.0
H336 H 0.89108 0.7343 0.31127 0.0
H337 H 0.91783 0.70491 0.29773 0.0
H338 H 0.98949 0.74746 0.36408 0.0
H339 H 0.96281 0.77752 0.37742 0.0
H340 H 1.00089 0.73567 0.31565 0.0
H341 H 0.95559 0.69087 0.37003 0.0
H342 H 0.91663 0.6722 0.38459 0.0
H343 H 0.87982 0.62224 0.3051 0.0
H344 H 0.91836 0.64091 0.28988 0.0
H345 H 0.07946 0.63956 0.31828 0.0
H346 H 0.05399 0.67179 0.32788 0.0
H347 H 0.98325 0.6298 0.26017 0.0
H348 H 0.0087 0.59725 0.2504 0.0
H349 H 0.97147 0.64159 0.30865 0.0
H350 H 0.01783 0.68628 0.25478 0.0
H351 H 0.05754 0.7047 0.24117 0.0
H352 H 0.09324 0.75449 0.32086 0.0
H353 H 0.05391 0.7361 0.33511 0.0
C354 C 0.91261 0.73759 0.32286 0.0
C355 C 0.9249 0.75836 0.34531 0.0
C356 C 0.9278 0.72061 0.31524 0.0
C357 C 0.95559 0.72386 0.33002 0.0
C358 C 0.96804 0.7446 0.35242 0.0
C359 C 0.95277 0.76163 0.36013 0.0
C360 C 0.97153 0.70557 0.32183 0.0
C361 C 0.99469 0.71513 0.31448 0.0
C362 C 0.96302 0.67871 0.31966 0.0
C363 C 0.93974 0.66751 0.32871 0.0
C364 C 0.93906 0.67609 0.35555 0.0
C365 C 0.91707 0.66546 0.36394 0.0
C366 C 0.89573 0.6461 0.34576 0.0
C367 C 0.89635 0.63727 0.31915 0.0
C368 C 0.91827 0.64786 0.31063 0.0
C369 C 0.0586 0.63732 0.30514 0.0
C370 C 0.04607 0.61579 0.2836 0.0
C371 C 0.04411 0.65584 0.31061 0.0
C372 C 0.01677 0.65325 0.29468 0.0
C373 C 0.00437 0.63216 0.27268 0.0
C374 C 0.01896 0.61367 0.26703 0.0
C375 C 1.00074 0.67165 0.30232 0.0
C376 C 0.97759 0.66212 0.30968 0.0
C377 C 0.00934 0.69851 0.30461 0.0
C378 C 0.03302 0.70963 0.2961 0.0
C379 C 0.03426 0.701 0.2695 0.0
C380 C 0.05667 0.71146 0.26165 0.0
C381 C 0.07793 0.7307 0.28016 0.0
C382 C 0.07677 0.73956 0.30655 0.0
C383 C 0.05441 0.72914 0.31451 0.0
H384 H 0.09526 0.73879 0.27404 0.0
H385 H 0.87873 0.63788 0.3523 0.0
H386 H 0.91172 0.40627 0.94506 0.0
H387 H 0.94205 0.44266 0.93687 0.0
H388 H 0.00231 0.39689 0.93709 0.0
H389 H 0.97169 0.36026 0.94437 0.0
H390 H 0.0208 0.45459 0.96912 0.0
H391 H 0.97096 0.39643 0.8801 0.0
H392 H 0.92827 0.37123 0.84507 0.0
H393 H 0.89704 0.4398 0.83862 0.0
H394 H 0.93941 0.46533 0.87401 0.0
H395 H 0.10743 0.5188 0.90255 0.0
H396 H 0.07988 0.49021 0.92253 0.0
H397 H 0.00844 0.5176 0.88232 0.0
H398 H 0.03563 0.54452 0.86071 0.0
H399 H 0.99434 0.47053 0.87323 0.0
H400 H 0.04362 0.53055 0.95709 0.0
H401 H 0.08387 0.55769 0.99389 0.0
H402 H 0.11358 0.49047 0.01295 0.0
H403 H 0.07368 0.46293 0.97602 0.0
C404 C 0.93158 0.40418 0.94365 0.0
C405 C 0.93947 0.38061 0.94516 0.0
C406 C 0.94884 0.42489 0.93907 0.0
C407 C 0.97438 0.42237 0.93652 0.0
C408 C 0.98274 0.39917 0.93921 0.0
C409 C 0.96525 0.37831 0.94317 0.0
C410 C 0.99127 0.44307 0.9285 0.0
C411 C 0.01528 0.45813 0.94816 0.0
C412 C 0.98344 0.44799 0.9014 0.0
C413 C 0.95817 0.43271 0.87991 0.0
C414 C 0.95487 0.40608 0.8714 0.0
C415 C 0.93076 0.39175 0.85145 0.0
C416 C 0.90992 0.40389 0.83969 0.0
C417 C 0.91318 0.43041 0.84779 0.0
C418 C 0.93723 0.44482 0.86778 0.0
C419 C 0.08595 0.51896 0.89848 0.0
C420 C 0.07354 0.53374 0.88019 0.0
C421 C 0.07018 0.50274 0.91001 0.0
C422 C 0.04197 0.5018 0.90423 0.0
C423 C 0.03004 0.51773 0.88701 0.0
C424 C 0.04558 0.53323 0.87479 0.0
C425 C 0.02435 0.48266 0.91388 0.0
C426 C 1.00006 0.46758 0.8944 0.0
C427 C 0.03173 0.4782 0.94136 0.0
C428 C 0.05576 0.49469 0.96361 0.0
C429 C 0.05883 0.52156 0.96899 0.0
C430 C 0.08157 0.53702 0.9899 0.0
C431 C 0.1013 0.52582 0.0057 0.0
C432 C 0.09829 0.49913 1.00067 0.0
C433 C 0.0756 0.48358 0.97978 0.0
H434 H 0.11889 0.53782 0.02187 0.0
H435 H 0.89127 0.39277 0.82424 0.0
H436 H 0.29227 0.23867 0.32499 0.0
H437 H 0.29913 0.20534 0.3527 0.0
H438 H 0.38216 0.21393 0.3506 0.0
H439 H 0.37526 0.24704 0.32257 0.0
H440 H 0.359 0.16476 0.34228 0.0
H441 H 0.36722 0.23963 0.40842 0.0
H442 H 0.35336 0.27749 0.42832 0.0
H443 H 0.28175 0.22862 0.43394 0.0
H444 H 0.29495 0.19049 0.41366 0.0
H445 H 0.39676 0.09146 0.44818 0.0
H446 H 0.39538 0.12762 0.42368 0.0
H447 H 0.30961 0.11993 0.41485 0.0
H448 H 0.31078 0.08399 0.43915 0.0
H449 H 0.33787 0.17022 0.43084 0.0
H450 H 0.32836 0.09599 0.3617 0.0
H451 H 0.34233 0.05816 0.34187 0.0
H452 H 0.4172 0.10642 0.3427 0.0
H453 H 0.40383 0.14452 0.36292 0.0
C454 C 0.312 0.23348 0.33052 0.0
C455 C 0.33323 0.24546 0.32165 0.0
C456 C 0.31593 0.21449 0.34641 0.0
C457 C 0.34132 0.20741 0.35412 0.0
C458 C 0.36242 0.21909 0.34493 0.0
C459 C 0.35843 0.23794 0.32885 0.0
C460 C 0.34575 0.18767 0.37157 0.0
C461 C 0.35482 0.1662 0.36187 0.0
C462 C 0.33991 0.18931 0.39695 0.0
C463 C 0.33196 0.21221 0.40927 0.0
C464 C 0.34841 0.23697 0.41369 0.0
C465 C 0.34068 0.25848 0.42507 0.0
C466 C 0.31665 0.25547 0.43233 0.0
C467 C 0.30033 0.23093 0.42828 0.0
C468 C 0.30794 0.20936 0.41686 0.0
C469 C 0.37766 0.09755 0.44108 0.0
C470 C 0.35383 0.08471 0.44535 0.0
C471 C 0.37689 0.11814 0.42704 0.0
C472 C 0.35232 0.12627 0.41725 0.0
C473 C 0.32874 0.11391 0.42216 0.0
C474 C 0.32944 0.09326 0.43592 0.0
C475 C 0.35081 0.14731 0.40137 0.0
C476 C 0.34228 0.16899 0.41137 0.0
C477 C 0.35722 0.14591 0.37633 0.0
C478 C 0.36525 0.12304 0.36413 0.0
C479 C 0.34791 0.0985 0.35789 0.0
C480 C 0.3557 0.07702 0.34653 0.0
C481 C 0.38068 0.07987 0.34111 0.0
C482 C 0.39789 0.10423 0.34696 0.0
C483 C 0.39021 0.12577 0.35836 0.0
H484 H 0.38667 0.06322 0.33231 0.0
H485 H 0.31071 0.27214 0.44114 0.0
H486 H 0.39842 0.70215 0.78883 0.0
H487 H 0.4344 0.68677 0.81907 0.0
H488 H 0.49381 0.72861 0.78812 0.0
H489 H 0.45738 0.742 0.7554 0.0
H490 H 0.51069 0.6887 0.8028 0.0
H491 H 0.47656 0.75492 0.84562 0.0
H492 H 0.44251 0.77569 0.8593 0.0
H493 H 0.42472 0.71526 0.90253 0.0
H494 H 0.45834 0.69388 0.88868 0.0
H495 H 0.61881 0.74657 0.92773 0.0
H496 H 0.58201 0.73266 0.88363 0.0
H497 H 0.54231 0.67306 0.91652 0.0
H498 H 0.57967 0.68651 0.96064 0.0
H499 H 0.51324 0.71274 0.90028 0.0
H500 H 0.55812 0.65318 0.86348 0.0
H501 H 0.59699 0.63914 0.85242 0.0
H502 H 0.60024 0.69538 0.80084 0.0
H503 H 0.56165 0.71004 0.8119 0.0
C504 C 0.41883 0.7073 0.78734 0.0
C505 C 0.42485 0.72383 0.76974 0.0
C506 C 0.43957 0.69873 0.80514 0.0
C507 C 0.46696 0.70728 0.80664 0.0
C508 C 0.47286 0.72203 0.78765 0.0
C509 C 0.45199 0.73002 0.7692 0.0
C510 C 0.48949 0.70332 0.82981 0.0
C511 C 0.51126 0.69396 0.82411 0.0
C512 C 0.49016 0.70994 0.8577 0.0
C513 C 0.46963 0.72257 0.86571 0.0
C514 C 0.46516 0.74591 0.85778 0.0
C515 C 0.44596 0.75781 0.86559 0.0
C516 C 0.43134 0.74672 0.88163 0.0
C517 C 0.43595 0.72375 0.88997 0.0
C518 C 0.45505 0.71171 0.88212 0.0
C519 C 0.60269 0.72995 0.92522 0.0
C520 C 0.60186 0.71768 0.94751 0.0
C521 C 0.5818 0.72193 0.9 0.0
C522 C 0.55955 0.70182 0.89687 0.0
C523 C 0.55951 0.68847 0.91855 0.0
C524 C 0.58079 0.69614 0.94366 0.0
C525 C 0.53444 0.6984 0.87327 0.0
C526 C 0.51225 0.7067 0.87893 0.0
C527 C 0.53393 0.69169 0.84556 0.0
C528 C 0.55704 0.6828 0.83866 0.0
C529 C 0.56724 0.66269 0.84994 0.0
C530 C 0.58921 0.6546 0.84364 0.0
C531 C 0.6011 0.66638 0.82597 0.0
C532 C 0.591 0.68626 0.81452 0.0
C533 C 0.56904 0.69444 0.82076 0.0
H534 H 0.61812 0.6601 0.82113 0.0
H535 H 0.41656 0.75601 0.88774 0.0
H536 H 0.9099 0.85557 0.51057 0.0
H537 H 0.90762 0.89715 0.53364 0.0
H538 H 0.86812 0.91518 0.45476 0.0
H539 H 0.86789 0.87243 0.4316 0.0
H540 H 0.92845 0.94261 0.53554 0.0
H541 H 0.82842 0.95769 0.46131 0.0
H542 H 0.78462 0.93195 0.42853 0.0
H543 H 0.79133 0.8701 0.47319 0.0
H544 H 0.83498 0.89559 0.50639 0.0
H545 H 0.92069 0.06802 0.58477 0.0
H546 H 0.91894 0.02987 0.552 0.0
H547 H 0.84764 0.98996 0.568 0.0
H548 H 0.84856 0.02851 0.59977 0.0
H549 H 0.84267 0.97466 0.51689 0.0
H550 H 0.91438 0.98413 0.60211 0.0
H551 H 0.95589 0.00646 0.64051 0.0
H552 H 0.00195 0.01239 0.58355 0.0
H553 H 0.96058 0.9904 0.54474 0.0
C554 C 0.90013 0.86803 0.49802 0.0
C555 C 0.88862 0.86019 0.46912 0.0
C556 C 0.89924 0.89212 0.51131 0.0
C557 C 0.88734 0.90935 0.4961 0.0
C558 C 0.87684 0.90209 0.46713 0.0
C559 C 0.87714 0.87768 0.45382 0.0
C560 C 0.88596 0.93471 0.51085 0.0
C561 C 0.90966 0.94958 0.53132 0.0
C562 C 0.86143 0.94385 0.50581 0.0
C563 C 0.8351 0.92844 0.48611 0.0
C564 C 0.8205 0.93862 0.46415 0.0
C565 C 0.79571 0.92408 0.4455 0.0
C566 C 0.78525 0.89937 0.44872 0.0
C567 C 0.7995 0.8892 0.47065 0.0
C568 C 0.82428 0.90368 0.48937 0.0
C569 C 0.90437 0.05125 0.58092 0.0
C570 C 0.88491 0.05116 0.59503 0.0
C571 C 0.90346 0.02939 0.56229 0.0
C572 C 0.88358 0.00675 0.55803 0.0
C573 C 0.86325 0.00712 0.57097 0.0
C574 C 0.86381 0.02917 0.58918 0.0
C575 C 0.88504 0.98227 0.54167 0.0
C576 C 0.86146 0.9677 0.52089 0.0
C577 C 0.90937 0.97281 0.54721 0.0
C578 C 0.93433 0.98587 0.5705 0.0
C579 C 0.93332 0.99034 0.59776 0.0
C580 C 0.95682 0.00292 0.6196 0.0
C581 C 0.98152 0.0109 0.61446 0.0
C582 C 0.98279 0.00624 0.58749 0.0
C583 C 0.95932 0.99371 0.56556 0.0
H584 H 0.9997 0.02063 0.63139 0.0
H585 H 0.76607 0.88813 0.43425 0.0
H586 H 0.83261 0.36825 0.04992 0.0
H587 H 0.78651 0.36269 0.0537 0.0
H588 H 0.76516 0.28606 0.00457 0.0
H589 H 0.8113 0.29211 0.99985 0.0
H590 H 0.72295 0.30785 0.99151 0.0
H591 H 0.78209 0.2964 0.07607 0.0
H592 H 0.82287 0.30657 0.11747 0.0
H593 H 0.80026 0.37583 0.14603 0.0
H594 H 0.75956 0.36628 0.10458 0.0
H595 H 0.60821 0.27872 0.04573 0.0
H596 H 0.65058 0.27732 0.03421 0.0
H597 H 0.67807 0.35936 0.06289 0.0
H598 H 0.6359 0.36105 0.07397 0.0
H599 H 0.71611 0.32861 0.08602 0.0
H600 H 0.65768 0.3394 0.99793 0.0
H601 H 0.6165 0.32674 0.95688 0.0
H602 H 0.63733 0.25439 0.93619 0.0
H603 H 0.67846 0.2665 0.97739 0.0
C604 C 0.81799 0.35029 0.03979 0.0
C605 C 0.82549 0.33048 0.02488 0.0
C606 C 0.79171 0.34706 0.04206 0.0
C607 C 0.77256 0.32367 0.03009 0.0
C608 C 0.77965 0.30419 0.01418 0.0
C609 C 0.80594 0.30762 0.01149 0.0
C610 C 0.74553 0.31962 0.03497 0.0
C611 C 0.72148 0.31197 0.01222 0.0
C612 C 0.74348 0.32494 0.06199 0.0
C613 C 0.76786 0.3307 0.08709 0.0
C614 C 0.7859 0.31388 0.09109 0.0
C615 C 0.809 0.31953 0.11457 0.0
C616 C 0.81418 0.34185 0.13434 0.0
C617 C 0.79623 0.35855 0.13069 0.0
C618 C 0.77312 0.35301 0.10722 0.0
C619 C 0.62319 0.29647 0.04934 0.0
C620 C 0.6187 0.31999 0.06077 0.0
C621 C 0.64732 0.29563 0.04271 0.0
C622 C 0.66739 0.31825 0.04774 0.0
C623 C 0.66281 0.34171 0.05888 0.0
C624 C 0.63863 0.34263 0.0651 0.0
C625 C 0.69378 0.31762 0.04259 0.0
C626 C 0.71768 0.32426 0.06536 0.0
C627 C 0.69559 0.31093 0.01571 0.0
C628 C 0.67095 0.30372 0.99092 0.0
C629 C 0.65333 0.32069 0.98479 0.0
C630 C 0.63003 0.31364 0.96146 0.0
C631 C 0.62425 0.28974 0.94399 0.0
C632 C 0.6418 0.27288 0.94977 0.0
C633 C 0.66512 0.27983 0.9731 0.0
H634 H 0.6062 0.28432 0.92594 0.0
H635 H 0.83207 0.34619 0.15251 0.0
H636 H 0.44618 0.87227 0.70941 0.0
H637 H 0.44144 0.89463 0.67052 0.0
H638 H 0.35586 0.85728 0.63729 0.0
H639 H 0.36061 0.83453 0.67618 0.0
H640 H 0.37956 0.86201 0.59614 0.0
H641 H 0.37487 0.91676 0.67607 0.0
H642 H 0.39101 0.93878 0.72495 0.0
H643 H 0.46433 0.97924 0.7139 0.0
H644 H 0.4488 0.95715 0.66503 0.0
H645 H 0.32946 0.95344 0.51915 0.0
H646 H 0.33952 0.92409 0.55105 0.0
H647 H 0.42431 0.96416 0.5812 0.0
H648 H 0.41437 0.99387 0.54935 0.0
H649 H 0.40326 0.95727 0.62291 0.0
H650 H 0.40581 0.90499 0.54139 0.0
H651 H 0.38864 0.88368 0.49226 0.0
H652 H 0.3187 0.83912 0.50564 0.0
H653 H 0.33519 0.86049 0.55477 0.0
C654 C 0.42639 0.86868 0.69371 0.0
C655 C 0.40364 0.852 0.69604 0.0
C656 C 0.42373 0.88141 0.67148 0.0
C657 C 0.39818 0.87801 0.6513 0.0
C658 C 0.37574 0.86025 0.65269 0.0
C659 C 0.37846 0.84729 0.6749 0.0
C660 C 0.39457 0.89444 0.63008 0.0
C661 C 0.38449 0.88283 0.60194 0.0
C662 C 0.40154 0.92163 0.63767 0.0
C663 C 0.4108 0.93511 0.66698 0.0
C664 C 0.39452 0.93022 0.68412 0.0
C665 C 0.40355 0.94273 0.71181 0.0
C666 C 0.42871 0.96035 0.72254 0.0
C667 C 0.44487 0.96556 0.70557 0.0
C668 C 0.43596 0.95306 0.67788 0.0
C669 C 0.35032 0.95595 0.5324 0.0
C670 C 0.37111 0.97608 0.53177 0.0
C671 C 0.35606 0.93902 0.55052 0.0
C672 C 0.38271 0.94179 0.56833 0.0
C673 C 0.40361 0.96165 0.56755 0.0
C674 C 0.39791 0.97857 0.54932 0.0
C675 C 0.38827 0.92491 0.58892 0.0
C676 C 0.39859 0.93646 0.61702 0.0
C677 C 0.38143 0.89773 0.58121 0.0
C678 C 0.37164 0.88452 0.55175 0.0
C679 C 0.38666 0.89078 0.53383 0.0
C680 C 0.37706 0.87867 0.50598 0.0
C681 C 0.35257 0.8601 0.49583 0.0
C682 C 0.33766 0.85353 0.51353 0.0
C683 C 0.34714 0.86562 0.5414 0.0
H684 H 0.34516 0.85077 0.47425 0.0
H685 H 0.43567 0.97002 0.74399 0.0
H686 H 0.87625 0.82371 0.29644 0.0
H687 H 0.83985 0.82186 0.25321 0.0
H688 H 0.78096 0.77924 0.28412 0.0
H689 H 0.81709 0.78171 0.32766 0.0
H690 H 0.7968 0.75782 0.2287 0.0
H691 H 0.76251 0.82279 0.27671 0.0
H692 H 0.76786 0.86525 0.30514 0.0
H693 H 0.79361 0.90245 0.24507 0.0
H694 H 0.78883 0.86016 0.21649 0.0
H695 H 0.68203 0.73012 0.10881 0.0
H696 H 0.71181 0.74016 0.15681 0.0
H697 H 0.74886 0.81396 0.14446 0.0
H698 H 0.71808 0.80452 0.09692 0.0
H699 H 0.74341 0.82058 0.19233 0.0
H700 H 0.78004 0.76017 0.14483 0.0
H701 H 0.77979 0.71985 0.11543 0.0
H702 H 0.75642 0.67644 0.1725 0.0
H703 H 0.75619 0.7165 0.20207 0.0
C704 C 0.85534 0.81479 0.2943 0.0
C705 C 0.8493 0.80301 0.31529 0.0
C706 C 0.83466 0.81371 0.26971 0.0
C707 C 0.80784 0.80052 0.2657 0.0
C708 C 0.80153 0.78975 0.2871 0.0
C709 C 0.82209 0.79127 0.31191 0.0
C710 C 0.7875 0.79482 0.2379 0.0
C711 C 0.78469 0.77129 0.22079 0.0
C712 C 0.77278 0.81293 0.22751 0.0
C713 C 0.77566 0.83832 0.24466 0.0
C714 C 0.76964 0.84002 0.26974 0.0
C715 C 0.77248 0.86405 0.28584 0.0
C716 C 0.78117 0.88654 0.27697 0.0
C717 C 0.78694 0.88502 0.25194 0.0
C718 C 0.78415 0.86103 0.23578 0.0
C719 C 0.69654 0.74847 0.11638 0.0
C720 C 0.69789 0.76648 0.09913 0.0
C721 C 0.71364 0.75417 0.14378 0.0
C722 C 0.73299 0.77765 0.15419 0.0
C723 C 0.73412 0.79574 0.13699 0.0
C724 C 0.7166 0.79028 0.10978 0.0
C725 C 0.75227 0.78326 0.18285 0.0
C726 C 0.75518 0.80687 0.20013 0.0
C727 C 0.7677 0.76544 0.19324 0.0
C728 C 0.76781 0.74131 0.1755 0.0
C729 C 0.77464 0.74201 0.151 0.0
C730 C 0.77463 0.71921 0.13433 0.0
C731 C 0.76802 0.6956 0.14205 0.0
C732 C 0.76149 0.69474 0.16652 0.0
C733 C 0.76145 0.71749 0.18325 0.0
H734 H 0.76802 0.67797 0.12912 0.0
H735 H 0.78334 0.90513 0.28945 0.0
H736 H 0.86102 0.30687 0.87641 0.0
H737 H 0.85514 0.27126 0.83831 0.0
H738 H 0.90677 0.23456 0.89514 0.0
H739 H 0.91197 0.26977 0.9334 0.0
H740 H 0.92217 0.24904 0.84471 0.0
H741 H 0.84951 0.20373 0.87321 0.0
H742 H 0.80639 0.19923 0.88464 0.0
H743 H 0.76371 0.20862 0.80309 0.0
H744 H 0.8067 0.21357 0.79131 0.0
H745 H 0.92462 0.14398 0.75016 0.0
H746 H 0.92117 0.17053 0.79091 0.0
H747 H 0.84445 0.18388 0.74191 0.0
H748 H 0.847 0.15565 0.70147 0.0
H749 H 0.84066 0.18099 0.78942 0.0
H750 H 0.90924 0.22891 0.75986 0.0
H751 H 0.95092 0.23762 0.74602 0.0
H752 H 0.99961 0.22921 0.82575 0.0
H753 H 0.95816 0.22013 0.83995 0.0
C754 C 0.87036 0.29076 0.88079 0.0
C755 C 0.88669 0.29075 0.90769 0.0
C756 C 0.86705 0.27053 0.85911 0.0
C757 C 0.88048 0.25034 0.86402 0.0
C758 C 0.89611 0.24992 0.89107 0.0
C759 C 0.89896 0.26989 0.91285 0.0
C760 C 0.8807 0.23133 0.84051 0.0
C761 C 0.90455 0.23383 0.83285 0.0
C762 C 0.85725 0.21238 0.82445 0.0
C763 C 0.83139 0.20929 0.83148 0.0
C764 C 0.83099 0.2051 0.8578 0.0
C765 C 0.80656 0.20241 0.86433 0.0
C766 C 0.78234 0.20371 0.84463 0.0
C767 C 0.78249 0.20764 0.81834 0.0
C768 C 0.80688 0.21037 0.81172 0.0
C769 C 0.90695 0.15248 0.74817 0.0
C770 C 0.88621 0.14805 0.72268 0.0
C771 C 0.90505 0.1678 0.77143 0.0
C772 C 0.88296 0.17995 0.76942 0.0
C773 C 0.86179 0.17489 0.74405 0.0
C774 C 0.86327 0.15885 0.72093 0.0
C775 C 0.88239 0.19838 0.79356 0.0
C776 C 0.85844 0.19601 0.80127 0.0
C777 C 0.90556 0.21804 0.80929 0.0
C778 C 0.93056 0.2236 0.80086 0.0
C779 C 0.92882 0.22876 0.77437 0.0
C780 C 0.9524 0.23378 0.76648 0.0
C781 C 0.97789 0.2339 0.78497 0.0
C782 C 0.97985 0.22907 0.81143 0.0
C783 C 0.95632 0.22401 0.81943 0.0
H784 H 0.99612 0.23779 0.77881 0.0
H785 H 0.76344 0.20162 0.84972 0.0
H786 H 0.36521 0.32994 0.25723 0.0
H787 H 0.38988 0.33173 0.22346 0.0
H788 H 0.36102 0.24984 0.1942 0.0
H789 H 0.33554 0.24793 0.22742 0.0
H790 H 0.41726 0.26582 0.20796 0.0
H791 H 0.33748 0.28885 0.15314 0.0
H792 H 0.30103 0.31323 0.14349 0.0
H793 H 0.36125 0.38327 0.15902 0.0
H794 H 0.39811 0.35937 0.16916 0.0
H795 H 0.48604 0.26851 0.10654 0.0
H796 H 0.45 0.26093 0.12822 0.0
H797 H 0.46291 0.3427 0.15655 0.0
H798 H 0.4982 0.35043 0.13436 0.0
H799 H 0.41046 0.32256 0.13887 0.0
H800 H 0.4898 0.30207 0.19941 0.0
H801 H 0.52761 0.27954 0.21177 0.0
H802 H 0.46985 0.20696 0.1884 0.0
H803 H 0.43169 0.22906 0.17556 0.0
C804 C 0.36342 0.31239 0.24313 0.0
C805 C 0.34842 0.28876 0.24514 0.0
C806 C 0.37767 0.31344 0.2239 0.0
C807 C 0.37725 0.29092 0.20631 0.0
C808 C 0.36167 0.26743 0.20766 0.0
C809 C 0.34723 0.26638 0.22674 0.0
C810 C 0.3947 0.29174 0.18804 0.0
C811 C 0.41543 0.2778 0.19242 0.0
C812 C 0.39271 0.30789 0.16832 0.0
C813 C 0.37058 0.32233 0.16211 0.0
C814 C 0.34297 0.30948 0.15471 0.0
C815 C 0.32223 0.32321 0.14911 0.0
C816 C 0.32882 0.34978 0.15069 0.0
C817 C 0.35617 0.36268 0.15781 0.0
C818 C 0.377 0.34905 0.16345 0.0
C819 C 0.48111 0.28486 0.1173 0.0
C820 C 0.49509 0.31006 0.11882 0.0
C821 C 0.46056 0.2805 0.12976 0.0
C822 C 0.45394 0.30124 0.14432 0.0
C823 C 0.46757 0.32639 0.1454 0.0
C824 C 0.48786 0.33076 0.13276 0.0
C825 C 0.43335 0.29696 0.15909 0.0
C826 C 0.41206 0.31028 0.1541 0.0
C827 C 0.43503 0.28049 0.17854 0.0
C828 C 0.45793 0.26718 0.18621 0.0
C829 C 0.48518 0.28129 0.1967 0.0
C830 C 0.50667 0.2686 0.20382 0.0
C831 C 0.50114 0.24183 0.20078 0.0
C832 C 0.4741 0.22769 0.19068 0.0
C833 C 0.45254 0.24029 0.18349 0.0
H834 H 0.51781 0.23204 0.20632 0.0
H835 H 0.31273 0.36038 0.14635 0.0
H836 H 0.91861 0.76303 0.83123 0.0
H837 H 0.9348 0.72642 0.81276 0.0
H838 H 0.01628 0.75944 0.86863 0.0
H839 H 1.00032 0.79602 0.88686 0.0
H840 H 0.01878 0.74092 0.81955 0.0
H841 H 0.97169 0.71035 0.88159 0.0
H842 H 0.93218 0.70096 0.89872 0.0
H843 H 0.88543 0.6509 0.82119 0.0
H844 H 0.92458 0.66028 0.80346 0.0
H845 H 0.08446 0.63979 0.8449 0.0
H846 H 0.06014 0.67439 0.84703 0.0
H847 H 0.99172 0.62971 0.77852 0.0
H848 H 0.01617 0.59463 0.77611 0.0
H849 H 0.97727 0.65217 0.82437 0.0
H850 H 0.02917 0.67847 0.76605 0.0
H851 H 0.07056 0.68736 0.7518 0.0
H852 H 0.11015 0.74533 0.82519 0.0
H853 H 0.06915 0.73653 0.84011 0.0
C854 C 0.93997 0.76243 0.83952 0.0
C855 C 0.9582 0.7824 0.86049 0.0
C856 C 0.94919 0.74152 0.82897 0.0
C857 C 0.97672 0.74005 0.83947 0.0
C858 C 0.99499 0.7602 0.86007 0.0
C859 C 0.98585 0.78113 0.87046 0.0
C860 C 0.98667 0.71737 0.82973 0.0
C861 C 0.00973 0.72153 0.82068 0.0
C862 C 0.97442 0.69194 0.83044 0.0
C863 C 0.95092 0.68627 0.84108 0.0
C864 C 0.9529 0.6975 0.86812 0.0
C865 C 0.93059 0.69216 0.87795 0.0
C866 C 0.90628 0.67541 0.86102 0.0
C867 C 0.90425 0.66392 0.83425 0.0
C868 C 0.92649 0.66923 0.82431 0.0
C869 C 0.06427 0.63723 0.83017 0.0
C870 C 0.05224 0.61442 0.81031 0.0
C871 C 0.05046 0.65713 0.83135 0.0
C872 C 0.02426 0.6547 0.81278 0.0
C873 C 0.012 0.63195 0.79296 0.0
C874 C 0.026 0.61201 0.79156 0.0
C875 C 0.00977 0.67592 0.81499 0.0
C876 C 0.98591 0.67149 0.82264 0.0
C877 C 0.02145 0.70116 0.81331 0.0
C878 C 0.04609 0.70673 0.80426 0.0
C879 C 0.04676 0.693 0.77925 0.0
C880 C 0.07015 0.69804 0.77103 0.0
C881 C 0.09298 0.71687 0.78759 0.0
C882 C 0.09245 0.73075 0.81237 0.0
C883 C 0.06911 0.72577 0.8207 0.0
H884 H 0.11108 0.72073 0.7812 0.0
H885 H 0.88903 0.67129 0.86867 0.0
H886 H 0.91454 0.38804 0.38831 0.0
H887 H 0.95515 0.41931 0.39065 0.0
H888 H 0.92345 0.48025 0.42546 0.0
H889 H 0.8822 0.44885 0.42238 0.0
H890 H 0.93804 0.49388 0.38589 0.0
H891 H 0.9839 0.46287 0.46305 0.0
H892 H 0.99813 0.43146 0.49186 0.0
H893 H 0.03635 0.40147 0.43451 0.0
H894 H 0.022 0.43243 0.40511 0.0
H895 H 0.08858 0.54869 0.38766 0.0
H896 H 0.05805 0.53007 0.41212 0.0
H897 H 0.99519 0.49801 0.33398 0.0
H898 H 0.02502 0.51647 0.30966 0.0
H899 H 0.03312 0.48082 0.41038 0.0
H900 H 0.93417 0.50279 0.33789 0.0
H901 H 0.92133 0.53734 0.31326 0.0
H902 H 0.99154 0.59146 0.37003 0.0
H903 H 0.00459 0.55735 0.3953 0.0
C904 C 0.91655 0.40799 0.39721 0.0
C905 C 0.8952 0.41601 0.40517 0.0
C906 C 0.93989 0.42592 0.39864 0.0
C907 C 0.94264 0.45222 0.40854 0.0
C908 C 0.92186 0.4601 0.41775 0.0
C909 C 0.89831 0.44218 0.41599 0.0
C910 C 0.96547 0.47146 0.40591 0.0
C911 C 0.95888 0.4912 0.39164 0.0
C912 C 0.99296 0.46866 0.41419 0.0
C913 C 0.00177 0.44997 0.4318 0.0
C914 C 0.99519 0.44948 0.45647 0.0
C915 C 0.0033 0.43176 0.47293 0.0
C916 C 0.01812 0.41447 0.46501 0.0
C917 C 0.02489 0.41489 0.44063 0.0
C918 C 0.01682 0.43257 0.42408 0.0
C919 C 0.06825 0.53764 0.37576 0.0
C920 C 0.0592 0.53422 0.34672 0.0
C921 C 0.05087 0.52704 0.38975 0.0
C922 C 0.02418 0.51309 0.37489 0.0
C923 C 0.01547 0.5092 0.34593 0.0
C924 C 0.03268 0.5197 0.33203 0.0
C925 C 0.0051 0.50196 0.38901 0.0
C926 C 0.0124 0.48382 0.40536 0.0
C927 C 0.97842 0.5067 0.38338 0.0
C928 C 0.97042 0.52743 0.36845 0.0
C929 C 0.94678 0.52209 0.34526 0.0
C930 C 0.93948 0.5416 0.33115 0.0
C931 C 0.95563 0.56657 0.34005 0.0
C932 C 0.97908 0.57209 0.36312 0.0
C933 C 0.98645 0.55267 0.37733 0.0
H934 H 0.94995 0.58164 0.32908 0.0
H935 H 0.02437 0.40076 0.47778 0.0
H936 H 0.24883 0.3473 0.79264 0.0
H937 H 0.21613 0.37462 0.79446 0.0
H938 H 0.2346 0.40884 0.72881 0.0
H939 H 0.26787 0.38221 0.72746 0.0
H940 H 0.23478 0.44481 0.76941 0.0
H941 H 0.17424 0.36604 0.71658 0.0
H942 H 0.15417 0.31947 0.70598 0.0
H943 H 0.1291 0.32678 0.7788 0.0
H944 H 0.14937 0.37335 0.79006 0.0
H945 H 0.09643 0.48536 0.7507 0.0
H946 H 0.12132 0.45281 0.73904 0.0
H947 H 0.18101 0.47689 0.8202 0.0
H948 H 0.15661 0.50913 0.832 0.0
H949 H 0.13843 0.41131 0.7642 0.0
H950 H 0.24368 0.48258 0.8119 0.0
H951 H 0.26255 0.52931 0.82035 0.0
H952 H 0.19635 0.53673 0.75191 0.0
H953 H 0.17733 0.49003 0.74277 0.0
C954 C 0.24596 0.36069 0.77864 0.0
C955 C 0.26089 0.36252 0.75984 0.0
C956 C 0.22707 0.3761 0.77951 0.0
C957 C 0.22268 0.39357 0.76154 0.0
C958 C 0.23755 0.39541 0.74276 0.0
C959 C 0.25641 0.38002 0.74188 0.0
C960 C 0.20352 0.41075 0.76317 0.0
C961 C 0.21369 0.43743 0.76812 0.0
C962 C 0.17584 0.40116 0.76103 0.0
C963 C 0.16352 0.37317 0.75427 0.0
C964 C 0.16462 0.35769 0.73045 0.0
C965 C 0.15318 0.33129 0.7243 0.0
C966 C 0.14042 0.32016 0.74173 0.0
C967 C 0.13901 0.33542 0.76532 0.0
C968 C 0.15045 0.36183 0.77158 0.0
C969 C 0.11468 0.48348 0.76613 0.0
C970 C 0.12467 0.50003 0.79216 0.0
C971 C 0.12881 0.46487 0.75946 0.0
C972 C 0.15317 0.46275 0.77866 0.0
C973 C 0.16245 0.47847 0.80499 0.0
C974 C 0.14841 0.49691 0.81167 0.0
C975 C 0.16999 0.44519 0.7711 0.0
C976 C 0.15944 0.41855 0.76517 0.0
C977 C 0.19724 0.45477 0.77192 0.0
C978 C 0.20897 0.48281 0.7768 0.0
C979 C 0.23325 0.49416 0.79854 0.0
C980 C 0.24395 0.52065 0.80347 0.0
C981 C 0.23062 0.53598 0.78671 0.0
C982 C 0.20661 0.52484 0.76492 0.0
C983 C 0.19585 0.49837 0.75987 0.0
H984 H 0.2389 0.55648 0.79057 0.0
H985 H 0.13157 0.29972 0.73694 0.0
H986 H 0.27686 0.71774 0.16092 0.0
H987 H 0.24972 0.68288 0.17434 0.0
H988 H 0.30924 0.69982 0.25565 0.0
H989 H 0.33654 0.73459 0.24225 0.0
H990 H 0.28238 0.64637 0.23725 0.0
H991 H 0.26192 0.73059 0.24813 0.0
H992 H 0.25158 0.76995 0.23191 0.0
H993 H 0.17859 0.72528 0.16956 0.0
H994 H 0.18877 0.68555 0.18518 0.0
H995 H 0.19348 0.61155 0.31721 0.0
H996 H 0.22778 0.63426 0.29935 0.0
H997 H 0.16675 0.62282 0.21952 0.0
H998 H 0.13256 0.60035 0.23704 0.0
H999 H 0.19542 0.67217 0.23682 0.0
H1000 H 0.21463 0.58773 0.22901 0.0
H1001 H 0.2259 0.54886 0.24585 0.0
H1002 H 0.30147 0.59412 0.30358 0.0
H1003 H 0.29045 0.63334 0.28735 0.0
C1004 C 0.28476 0.71327 0.18122 0.0
C1005 C 0.30861 0.72897 0.20066 0.0
C1006 C 0.26918 0.69346 0.18892 0.0
C1007 C 0.27728 0.68912 0.21614 0.0
C1008 C 0.30263 0.7029 0.23459 0.0
C1009 C 0.31814 0.72278 0.22695 0.0
C1010 C 0.25744 0.67378 0.22667 0.0
C1011 C 0.26342 0.65201 0.23733 0.0
C1012 C 0.23273 0.68121 0.22671 0.0
C1013 C 0.22625 0.70509 0.21762 0.0
C1014 C 0.24377 0.72914 0.23084 0.0
C1015 C 0.23794 0.75152 0.22176 0.0
C1016 C 0.21449 0.75011 0.19965 0.0
C1017 C 0.19678 0.72633 0.18665 0.0
C1018 C 0.20256 0.70387 0.19561 0.0
C1019 C 0.18741 0.61388 0.29586 0.0
C1020 C 0.16028 0.60417 0.27858 0.0
C1021 C 0.20705 0.6267 0.28565 0.0
C1022 C 0.19983 0.63004 0.25804 0.0
C1023 C 0.17277 0.62043 0.24086 0.0
C1024 C 0.15325 0.60755 0.25095 0.0
C1025 C 0.22004 0.6444 0.24711 0.0
C1026 C 0.21422 0.66626 0.23657 0.0
C1027 C 0.24489 0.63706 0.24739 0.0
C1028 C 0.25158 0.61352 0.25717 0.0
C1029 C 0.23354 0.58943 0.24547 0.0
C1030 C 0.2399 0.56733 0.25487 0.0
C1031 C 0.26435 0.56903 0.27582 0.0
C1032 C 0.28252 0.59284 0.28738 0.0
C1033 C 0.27623 0.61501 0.27807 0.0
H1034 H 0.26925 0.55189 0.28306 0.0
H1035 H 0.21001 0.76746 0.19264 0.0
H1036 H 0.94458 0.91795 0.84207 0.0
H1037 H 0.94225 0.9455 0.80784 0.0
H1038 H 0.02894 0.97761 0.84353 0.0
H1039 H 0.03148 0.94987 0.87788 0.0
H1040 H 1.00072 0.01475 0.83504 0.0
H1041 H 0.00423 0.93693 0.78111 0.0
H1042 H 0.99144 0.89049 0.76135 0.0
H1043 H 0.90984 0.89711 0.71952 0.0
H1044 H 0.92201 0.94354 0.73935 0.0
H1045 H 0.9925 0.08573 0.72517 0.0
H1046 H 0.00661 0.05583 0.75574 0.0
H1047 H 0.92255 0.01489 0.73364 0.0
H1048 H 0.90837 0.04435 0.70312 0.0
H1049 H 0.95683 0.98211 0.73424 0.0
H1050 H 0.95187 0.05818 0.79331 0.0
H1051 H 0.96408 0.10454 0.81349 0.0
H1052 H 0.04843 0.10082 0.84573 0.0
H1053 H 0.03675 0.05448 0.82538 0.0
C1054 C 0.96327 0.93049 0.84235 0.0
C1055 C 0.98824 0.93161 0.86266 0.0
C1056 C 0.9619 0.94628 0.82278 0.0
C1057 C 0.98549 0.96342 0.82292 0.0
C1058 C 0.0105 0.96451 0.84303 0.0
C1059 C 0.01189 0.9487 0.86267 0.0
C1060 C 0.98356 0.98095 0.8028 0.0
C1061 C 0.99168 0.0076 0.81294 0.0
C1062 C 0.97141 0.97163 0.774 0.0
C1063 C 0.96401 0.94371 0.76188 0.0
C1064 C 0.9835 0.92846 0.76785 0.0
C1065 C 0.97637 0.90214 0.75661 0.0
C1066 C 0.94983 0.89085 0.73923 0.0
C1067 C 0.93038 0.90588 0.73299 0.0
C1068 C 0.93741 0.93221 0.7442 0.0
C1069 C 0.97707 0.07028 0.72674 0.0
C1070 C 0.94929 0.06753 0.71184 0.0
C1071 C 0.98515 0.05326 0.74424 0.0
C1072 C 0.96558 0.03324 0.74707 0.0
C1073 C 0.93799 0.03016 0.73172 0.0
C1074 C 0.92991 0.04714 0.71438 0.0
C1075 C 0.97338 0.01582 0.76658 0.0
C1076 C 0.96634 0.9892 0.7563 0.0
C1077 C 0.9865 0.02515 0.79523 0.0
C1078 C 0.9935 0.05296 0.80753 0.0
C1079 C 0.97306 0.06731 0.8045 0.0
C1080 C 0.97987 0.09356 0.816 0.0
C1081 C 0.00703 0.10563 0.83081 0.0
C1082 C 0.02741 0.09145 0.8342 0.0
C1083 C 0.02071 0.0652 0.82269 0.0
H1084 H 0.01226 0.12596 0.83971 0.0
H1085 H 0.94434 0.87046 0.73055 0.0
H1086 H 0.76611 0.36847 0.37295 0.0
H1087 H 0.72486 0.37021 0.33656 0.0
H1088 H 0.7741 0.41609 0.29833 0.0
H1089 H 0.81558 0.41348 0.33375 0.0
H1090 H 0.71922 0.42943 0.29903 0.0
H1091 H 0.76188 0.35958 0.27363 0.0
H1092 H 0.78144 0.32194 0.28345 0.0
H1093 H 0.70539 0.28305 0.29037 0.0
H1094 H 0.68555 0.3207 0.28109 0.0
H1095 H 0.63268 0.40616 0.15937 0.0
H1096 H 0.66929 0.41451 0.20357 0.0
H1097 H 0.63032 0.34551 0.22385 0.0
H1098 H 0.59478 0.33636 0.17896 0.0
H1099 H 0.67955 0.34508 0.23494 0.0
H1100 H 0.63413 0.41082 0.25707 0.0
H1101 H 0.61312 0.44828 0.2513 0.0
H1102 H 0.69004 0.49434 0.25439 0.0
H1103 H 0.71146 0.45706 0.25981 0.0
C1104 C 0.76823 0.37912 0.35695 0.0
C1105 C 0.7943 0.39047 0.35612 0.0
C1106 C 0.7446 0.38031 0.33636 0.0
C1107 C 0.74653 0.39318 0.31477 0.0
C1108 C 0.77224 0.40622 0.31497 0.0
C1109 C 0.79595 0.40474 0.33535 0.0
C1110 C 0.72229 0.39003 0.29017 0.0
C1111 C 0.71054 0.41111 0.2848 0.0
C1112 C 0.71067 0.36593 0.27219 0.0
C1113 C 0.72234 0.34303 0.27695 0.0
C1114 C 0.7494 0.34307 0.27744 0.0
C1115 C 0.76053 0.32173 0.28289 0.0
C1116 C 0.74469 0.30014 0.2876 0.0
C1117 C 0.71765 0.2998 0.28676 0.0
C1118 C 0.70645 0.32113 0.2814 0.0
C1119 C 0.6318 0.39301 0.17348 0.0
C1120 C 0.61099 0.37058 0.16577 0.0
C1121 C 0.65266 0.39786 0.19886 0.0
C1122 C 0.65258 0.3808 0.21738 0.0
C1123 C 0.63107 0.35893 0.20999 0.0
C1124 C 0.61069 0.35373 0.18436 0.0
C1125 C 0.67585 0.38454 0.24339 0.0
C1126 C 0.68774 0.36349 0.24907 0.0
C1127 C 0.68714 0.4086 0.26189 0.0
C1128 C 0.67433 0.43107 0.25858 0.0
C1129 C 0.64652 0.42888 0.2563 0.0
C1130 C 0.63455 0.45009 0.25313 0.0
C1131 C 0.65022 0.47366 0.25241 0.0
C1132 C 0.67792 0.47607 0.25492 0.0
C1133 C 0.69 0.45491 0.25807 0.0
H1134 H 0.64091 0.49006 0.24996 0.0
H1135 H 0.75335 0.28365 0.29185 0.0
H1136 H 0.26979 0.23863 0.66215 0.0
H1137 H 0.26472 0.19495 0.63707 0.0
H1138 H 0.3451 0.21685 0.62885 0.0
H1139 H 0.34974 0.26051 0.65304 0.0
H1140 H 0.31115 0.19376 0.58128 0.0
H1141 H 0.32978 0.17627 0.67363 0.0
H1142 H 0.3224 0.17538 0.71885 0.0
H1143 H 0.24181 0.1282 0.67853 0.0
H1144 H 0.24859 0.12908 0.63303 0.0
H1145 H 0.35249 0.08011 0.55301 0.0
H1146 H 0.34528 0.1161 0.58207 0.0
H1147 H 0.25793 0.08871 0.54665 0.0
H1148 H 0.26487 0.0524 0.51676 0.0
H1149 H 0.28727 0.11211 0.61275 0.0
H1150 H 0.27196 0.12872 0.51941 0.0
H1151 H 0.28382 0.12798 0.47618 0.0
H1152 H 0.36266 0.17664 0.52109 0.0
H1153 H 0.35146 0.17724 0.56469 0.0
C1154 C 0.2865 0.23388 0.65536 0.0
C1155 C 0.31012 0.25286 0.6594 0.0
C1156 C 0.28361 0.20896 0.64105 0.0
C1157 C 0.30453 0.20256 0.63102 0.0
C1158 C 0.32857 0.22134 0.63612 0.0
C1159 C 0.33127 0.24624 0.65003 0.0
C1160 C 0.30113 0.17687 0.61392 0.0
C1161 C 0.30596 0.17599 0.5883 0.0
C1162 C 0.29368 0.1535 0.6226 0.0
C1163 C 0.28956 0.15301 0.64992 0.0
C1164 C 0.31039 0.1659 0.6744 0.0
C1165 C 0.30634 0.16535 0.70008 0.0
C1166 C 0.28161 0.15182 0.70155 0.0
C1167 C 0.26092 0.13873 0.67735 0.0
C1168 C 0.26487 0.13923 0.65162 0.0
C1169 C 0.33166 0.08135 0.55159 0.0
C1170 C 0.30922 0.06351 0.53225 0.0
C1171 C 0.32764 0.10193 0.56834 0.0
C1172 C 0.30113 0.10505 0.56632 0.0
C1173 C 0.27855 0.08647 0.54846 0.0
C1174 C 0.28256 0.06582 0.5314 0.0
C1175 C 0.29773 0.12937 0.58068 0.0
C1176 C 0.29179 0.12998 0.60566 0.0
C1177 C 0.30444 0.15259 0.57165 0.0
C1178 C 0.31095 0.15284 0.54535 0.0
C1179 C 0.29191 0.1391 0.5201 0.0
C1180 C 0.2985 0.13872 0.49552 0.0
C1181 C 0.324 0.15221 0.49589 0.0
C1182 C 0.34292 0.16618 0.52084 0.0
C1183 C 0.33645 0.16656 0.54548 0.0
H1184 H 0.32908 0.15187 0.47686 0.0
H1185 H 0.27852 0.15141 0.72146 0.0
H1186 H 0.39928 0.75637 0.12035 0.0
H1187 H 0.44155 0.75613 0.10863 0.0
H1188 H 0.43053 0.82135 0.06946 0.0
H1189 H 0.38834 0.82167 0.08106 0.0
H1190 H 0.44392 0.78586 0.03746 0.0
H1191 H 0.47836 0.8278 0.13299 0.0
H1192 H 0.48338 0.83254 0.1827 0.0
H1193 H 0.51486 0.76389 0.18585 0.0
H1194 H 0.50966 0.75854 0.13605 0.0
H1195 H 0.57864 0.81798 0.0263 0.0
H1196 H 0.53724 0.81991 0.03936 0.0
H1197 H 0.54317 0.75088 0.07264 0.0
H1198 H 0.5843 0.74871 0.0596 0.0
H1199 H 0.53268 0.78887 0.10759 0.0
H1200 H 0.49773 0.74655 0.01223 0.0
H1201 H 0.49269 0.74145 0.96249 0.0
H1202 H 0.46232 0.81067 0.95903 0.0
H1203 H 0.46751 0.81636 0.00886 0.0
C1204 C 0.40605 0.77084 0.10953 0.0
C1205 C 0.39041 0.789 0.10159 0.0
C1206 C 0.43019 0.77067 0.1028 0.0
C1207 C 0.43933 0.78883 0.08828 0.0
C1208 C 0.42384 0.80707 0.08053 0.0
C1209 C 0.3997 0.8072 0.08715 0.0
C1210 C 0.4648 0.78864 0.08079 0.0
C1211 C 0.4634 0.78691 0.05287 0.0
C1212 C 0.49013 0.78942 0.10077 0.0
C1213 C 0.49337 0.79264 0.13073 0.0
C1214 C 0.48615 0.81361 0.14424 0.0
C1215 C 0.48907 0.81642 0.17244 0.0
C1216 C 0.49937 0.79849 0.18741 0.0
C1217 C 0.50685 0.77774 0.17422 0.0
C1218 C 0.50394 0.77482 0.14602 0.0
C1219 C 0.57117 0.80328 0.03649 0.0
C1220 C 0.58473 0.78317 0.04185 0.0
C1221 C 0.54746 0.80434 0.04382 0.0
C1222 C 0.53705 0.78543 0.05681 0.0
C1223 C 0.55084 0.76565 0.06263 0.0
C1224 C 0.57432 0.76441 0.05506 0.0
C1225 C 0.51176 0.78616 0.06435 0.0
C1226 C 0.51319 0.78794 0.09224 0.0
C1227 C 0.48648 0.78542 0.04435 0.0
C1228 C 0.48333 0.78205 0.01437 0.0
C1229 C 0.49022 0.76082 1.00093 0.0
C1230 C 0.48728 0.75779 0.9727 0.0
C1231 C 0.4773 0.77578 0.95764 0.0
C1232 C 0.47011 0.79678 0.97075 0.0
C1233 C 0.47303 0.7999 0.99897 0.0
H1234 H 0.47512 0.77345 0.93582 0.0
H1235 H 0.50161 0.8007 0.20924 0.0
H1236 H 0.82538 0.26442 0.4535 0.0
H1237 H 0.84379 0.24903 0.49611 0.0
H1238 H 0.924 0.2944 0.50713 0.0
H1239 H 0.90541 0.31012 0.46429 0.0
H1240 H 0.92328 0.2426 0.51048 0.0
H1241 H 0.89361 0.31167 0.55186 0.0
H1242 H 0.86228 0.3401 0.55698 0.0
H1243 H 0.80452 0.27631 0.56412 0.0
H1244 H 0.8353 0.24738 0.55862 0.0
H1245 H 0.96182 0.18593 0.6309 0.0
H1246 H 0.95713 0.2189 0.60224 0.0
H1247 H 0.86926 0.19321 0.57637 0.0
H1248 H 0.8737 0.16074 0.60511 0.0
H1249 H 0.88333 0.24438 0.58734 0.0
H1250 H 0.90837 0.17472 0.53594 0.0
H1251 H 0.93842 0.14535 0.52918 0.0
H1252 H 0.00394 0.20998 0.53994 0.0
H1253 H 0.97434 0.23974 0.54709 0.0
C1254 C 0.84686 0.27138 0.46523 0.0
C1255 C 0.86403 0.28837 0.45567 0.0
C1256 C 0.85733 0.2627 0.48962 0.0
C1257 C 0.88523 0.27069 0.50487 0.0
C1258 C 0.90239 0.28812 0.4957 0.0
C1259 C 0.89178 0.29714 0.47139 0.0
C1260 C 0.89635 0.25907 0.52909 0.0
C1261 C 0.91513 0.24352 0.52771 0.0
C1262 C 0.8854 0.26 0.55132 0.0
C1263 C 0.86675 0.27731 0.55468 0.0
C1264 C 0.87414 0.30364 0.55431 0.0
C1265 C 0.85649 0.31987 0.55732 0.0
C1266 C 0.83141 0.31002 0.56085 0.0
C1267 C 0.82395 0.28392 0.5614 0.0
C1268 C 0.84152 0.2676 0.55838 0.0
C1269 C 0.94151 0.18739 0.61917 0.0
C1270 C 0.91814 0.17059 0.6202 0.0
C1271 C 0.93887 0.20622 0.60278 0.0
C1272 C 0.91283 0.20842 0.58699 0.0
C1273 C 0.88955 0.19196 0.58843 0.0
C1274 C 0.89216 0.17328 0.6048 0.0
C1275 C 0.90939 0.22712 0.56811 0.0
C1276 C 0.89205 0.24399 0.57052 0.0
C1277 C 0.92154 0.2273 0.54674 0.0
C1278 C 0.93928 0.20943 0.5424 0.0
C1279 C 0.92926 0.18265 0.53708 0.0
C1280 C 0.94619 0.16595 0.53314 0.0
C1281 C 0.97311 0.1758 0.53423 0.0
C1282 C 0.98311 0.20238 0.53917 0.0
C1283 C 0.96627 0.21917 0.54316 0.0
H1284 H 0.98618 0.16283 0.53117 0.0
H1285 H 0.81778 0.32261 0.56318 0.0
H1286 H 0.31343 0.32759 0.83466 0.0
H1287 H 0.34896 0.33117 0.87868 0.0
H1288 H 0.40959 0.33145 0.83672 0.0
H1289 H 0.37478 0.32965 0.79286 0.0
H1290 H 0.40637 0.29579 0.8816 0.0
H1291 H 0.41432 0.38361 0.86271 0.0
H1292 H 0.39417 0.42055 0.8511 0.0
H1293 H 0.36661 0.42355 0.9224 0.0
H1294 H 0.38623 0.38634 0.93416 0.0
H1295 H 0.52733 0.32887 0.99442 0.0
H1296 H 0.49307 0.3254 0.94954 0.0
H1297 H 0.44678 0.36749 0.9897 0.0
H1298 H 0.48246 0.37289 0.03417 0.0
H1299 H 0.4409 0.38088 0.94492 0.0
H1300 H 0.43151 0.29709 0.96696 0.0
H1301 H 0.44618 0.25811 0.98026 0.0
H1302 H 0.46929 0.24401 0.90675 0.0
H1303 H 0.45507 0.2831 0.89318 0.0
C1304 C 0.33432 0.32861 0.83468 0.0
C1305 C 0.34108 0.32853 0.80999 0.0
C1306 C 0.35453 0.33041 0.85987 0.0
C1307 C 0.3818 0.33162 0.86084 0.0
C1308 C 0.38856 0.3304 0.83627 0.0
C1309 C 0.3685 0.32916 0.81114 0.0
C1310 C 0.40351 0.33541 0.88768 0.0
C1311 C 0.41425 0.3144 0.89541 0.0
C1312 C 0.41285 0.35946 0.90598 0.0
C1313 C 0.40146 0.38204 0.89913 0.0
C1314 C 0.40374 0.392 0.87575 0.0
C1315 C 0.39246 0.41302 0.86918 0.0
C1316 C 0.37905 0.42434 0.88595 0.0
C1317 C 0.37697 0.41473 0.9094 0.0
C1318 C 0.38817 0.3937 0.91604 0.0
C1319 C 0.50999 0.33766 0.99345 0.0
C1320 C 0.50741 0.35116 0.01755 0.0
C1321 C 0.49019 0.3354 0.96788 0.0
C1322 C 0.46669 0.34543 0.96613 0.0
C1323 C 0.46455 0.35947 0.99031 0.0
C1324 C 0.48491 0.36257 0.01574 0.0
C1325 C 0.44435 0.34119 0.93924 0.0
C1326 C 0.43327 0.36213 0.93138 0.0
C1327 C 0.43407 0.31678 0.9212 0.0
C1328 C 0.44246 0.29315 0.92919 0.0
C1329 C 0.43986 0.28575 0.95371 0.0
C1330 C 0.44808 0.26363 0.96129 0.0
C1331 C 0.45872 0.24863 0.94439 0.0
C1332 C 0.46108 0.25567 0.91983 0.0
C1333 C 0.45292 0.27779 0.91217 0.0
H1334 H 0.46508 0.23152 0.9503 0.0
H1335 H 0.37032 0.44061 0.88082 0.0
H1336 H 0.28389 0.80819 0.22419 0.0
H1337 H 0.28166 0.84226 0.25966 0.0
H1338 H 0.36603 0.87789 0.27289 0.0
H1339 H 0.36824 0.84368 0.23712 0.0
H1340 H 0.35378 0.86916 0.32152 0.0
H1341 H 0.31851 0.90674 0.24274 0.0
H1342 H 0.28787 0.90714 0.19649 0.0
H1343 H 0.2181 0.8918 0.22501 0.0
H1344 H 0.24831 0.89094 0.27136 0.0
H1345 H 0.3629 0.98151 0.41297 0.0
H1346 H 0.36235 0.95152 0.37285 0.0
H1347 H 0.27607 0.92107 0.35574 0.0
H1348 H 0.27631 0.95154 0.39599 0.0
H1349 H 0.28855 0.92706 0.30859 0.0
H1350 H 0.32129 0.88799 0.38573 0.0
H1351 H 0.35001 0.8855 0.43215 0.0
H1352 H 0.42198 0.90067 0.40709 0.0
H1353 H 0.39372 0.90361 0.36061 0.0
C1354 C 0.30183 0.82351 0.23446 0.0
C1355 C 0.32627 0.82339 0.22813 0.0
C1356 C 0.30051 0.84296 0.25459 0.0
C1357 C 0.32366 0.86259 0.26883 0.0
C1358 C 0.34794 0.86289 0.26206 0.0
C1359 C 0.34917 0.84352 0.24161 0.0
C1360 C 0.32284 0.88176 0.29198 0.0
C1361 C 0.3399 0.88217 0.31866 0.0
C1362 C 0.30386 0.8979 0.28829 0.0
C1363 C 0.28567 0.89855 0.26047 0.0
C1364 C 0.29662 0.90324 0.2391 0.0
C1365 C 0.27933 0.90359 0.21287 0.0
C1366 C 0.25106 0.89944 0.2078 0.0
C1367 C 0.24001 0.89499 0.22897 0.0
C1368 C 0.25721 0.8946 0.25523 0.0
C1369 C 0.34372 0.96849 0.40074 0.0
C1370 C 0.31966 0.96878 0.40787 0.0
C1371 C 0.34349 0.9513 0.3778 0.0
C1372 C 0.31929 0.93379 0.36157 0.0
C1373 C 0.29501 0.93438 0.3681 0.0
C1374 C 0.29519 0.95173 0.39112 0.0
C1375 C 0.31974 0.91468 0.33812 0.0
C1376 C 0.30254 0.91415 0.31145 0.0
C1377 C 0.3383 0.89811 0.34184 0.0
C1378 C 0.3554 0.89626 0.36975 0.0
C1379 C 0.34326 0.891 0.39018 0.0
C1380 C 0.35945 0.88947 0.41649 0.0
C1381 C 0.3878 0.89299 0.42258 0.0
C1382 C 0.40002 0.89798 0.40235 0.0
C1383 C 0.38392 0.89955 0.376 0.0
H1384 H 0.4003 0.8918 0.44296 0.0
H1385 H 0.23771 0.89972 0.18748 0.0
H1386 H 0.87797 0.84933 0.8909 0.0
H1387 H 0.83865 0.84298 0.908 0.0
H1388 H 0.85831 0.77326 0.93284 0.0
H1389 H 0.89805 0.77971 0.91628 0.0
H1390 H 0.80257 0.76824 0.90684 0.0
H1391 H 0.87579 0.82655 0.98022 0.0
H1392 H 0.91253 0.86563 1.00029 0.0
H1393 H 0.85414 0.91279 0.97871 0.0
H1394 H 0.81709 0.87396 0.95812 0.0
H1395 H 0.7234 0.75217 0.99676 0.0
H1396 H 0.7609 0.75814 0.97711 0.0
H1397 H 0.74499 0.83156 0.96062 0.0
H1398 H 0.70774 0.82598 0.98085 0.0
H1399 H 0.79825 0.83502 0.98121 0.0
H1400 H 0.72482 0.77782 0.90873 0.0
H1401 H 0.68755 0.73931 0.88747 0.0
H1402 H 0.74506 0.69079 0.90557 0.0
H1403 H 0.78264 0.72901 0.92732 0.0
C1404 C 0.87404 0.8327 0.90012 0.0
C1405 C 0.89132 0.81514 0.90242 0.0
C1406 C 0.85149 0.82906 0.90978 0.0
C1407 C 0.84576 0.80781 0.92195 0.0
C1408 C 0.86239 0.78978 0.92348 0.0
C1409 C 0.88503 0.79346 0.91391 0.0
C1410 C 0.82288 0.8048 0.9338 0.0
C1411 C 0.80174 0.78266 0.92333 0.0
C1412 C 0.8215 0.82398 0.95479 0.0
C1413 C 0.84371 0.84735 0.96739 0.0
C1414 C 0.87082 0.84525 0.97957 0.0
C1415 C 0.89169 0.86736 0.99106 0.0
C1416 C 0.88569 0.89168 0.99071 0.0
C1417 C 0.85877 0.89394 0.97893 0.0
C1418 C 0.83782 0.87189 0.96736 0.0
C1419 C 0.72787 0.76962 0.989 0.0
C1420 C 0.71249 0.78857 0.99029 0.0
C1421 C 0.74924 0.77294 0.97762 0.0
C1422 C 0.75549 0.79511 0.96696 0.0
C1423 C 0.74048 0.81426 0.96863 0.0
C1424 C 0.71918 0.81103 0.98018 0.0
C1425 C 0.77785 0.79838 0.95432 0.0
C1426 C 0.79895 0.82058 0.96466 0.0
C1427 C 0.77906 0.77933 0.93305 0.0
C1428 C 0.75652 0.75629 0.9199 0.0
C1429 C 0.72949 0.75893 0.90838 0.0
C1430 C 0.70831 0.73716 0.8962 0.0
C1431 C 0.71392 0.71262 0.89523 0.0
C1432 C 0.74074 0.70981 0.90637 0.0
C1433 C 0.76199 0.73152 0.9186 0.0
H1434 H 0.69749 0.69578 0.88579 0.0
H1435 H 0.90188 0.90877 0.99962 0.0
loop_
_geom_bond_atom_site_label_1
_geom_bond_atom_site_label_2
_geom_bond_distance
_geom_bond_site_symmetry_2
_ccdc_geom_bond_type
H0 C1 0.949 . S
C1 H0 0.949 . S
C1 C2 1.395 . S
C1 C3 1.391 . S
C2 C1 1.395 . S
C2 C5 1.390 . S
C3 C1 1.391 . S
C3 C7 1.387 . S
C3 C8 1.491 . S
H4 C5 0.950 . S
C5 C2 1.390 . S
C5 H4 0.950 . S
C5 C6 1.378 . S
C6 C5 1.378 . S
C6 C7 1.409 . S
C7 C3 1.387 . S
C7 C6 1.409 . S
C7 H9 0.951 . S
C8 C3 1.491 . S
C8 C10 1.382 . S
C8 C12 1.404 . S
H9 C7 0.951 . S
C10 C8 1.382 . S
C10 C11 1.390 . S
C10 H15 0.949 . S
C11 C10 1.390 . S
C11 C16 1.399 . S
C12 C8 1.404 . S
C12 H13 0.950 . S
C12 C14 1.375 . S
H13 C12 0.950 . S
C14 C12 1.375 . S
C14 C16 1.382 . S
C14 H18 0.950 . S
H15 C10 0.949 . S
C16 C11 1.399 . S
C16 C14 1.382 . S
C16 H17 0.952 . S
H17 C16 0.952 . S
H18 C14 0.950 . S
H19 C20 0.949 . S
C20 H19 0.949 . S
C20 C21 1.395 . S
C20 C22 1.391 . S
C21 C20 1.395 . S
C21 C24 1.390 . S
C22 C20 1.391 . S
C22 C26 1.387 . S
C22 C27 1.491 . S
H23 C24 0.950 . S
C24 C21 1.390 . S
C24 H23 0.950 . S
C24 C25 1.378 . S
C25 C24 1.378 . S
C25 C26 1.409 . S
C26 C22 1.387 . S
C26 C25 1.409 . S
C26 H28 0.951 . S
C27 C22 1.491 . S
C27 C29 1.382 . S
C27 C31 1.404 . S
H28 C26 0.951 . S
C29 C27 1.382 . S
C29 C30 1.390 . S
C29 H34 0.949 . S
C30 C29 1.390 . S
C30 C35 1.399 . S
C31 C27 1.404 . S
C31 H32 0.950 . S
C31 C33 1.375 . S
H32 C31 0.950 . S
C33 C31 1.375 . S
C33 C35 1.382 . S
C33 H37 0.950 . S
H34 C29 0.949 . S
C35 C30 1.399 . S
C35 C33 1.382 . S
C35 H36 0.952 . S
H36 C35 0.952 . S
H37 C33 0.950 . S
H38 C39 0.949 . S
C39 H38 0.949 . S
C39 C40 1.395 . S
C39 C41 1.391 . S
C40 C39 1.395 . S
C40 C43 1.390 . S
C41 C39 1.391 . S
C41 C45 1.387 . S
C41 C46 1.491 . S
H42 C43 0.950 . S
C43 C40 1.390 . S
C43 H42 0.950 . S
C43 C44 1.378 . S
C44 C43 1.378 . S
C44 C45 1.409 . S
C45 C41 1.387 . S
C45 C44 1.409 . S
C45 H47 0.951 . S
C46 C41 1.491 . S
C46 C48 1.382 . S
C46 C50 1.404 . S
H47 C45 0.951 . S
C48 C46 1.382 . S
C48 C49 1.390 . S
C48 H53 0.949 . S
C49 C48 1.390 . S
C49 C54 1.399 . S
C50 C46 1.404 . S
C50 H51 0.950 . S
C50 C52 1.375 . S
H51 C50 0.950 . S
C52 C50 1.375 . S
C52 C54 1.382 . S
C52 H56 0.950 . S
H53 C48 0.949 . S
C54 C49 1.399 . S
C54 C52 1.382 . S
C54 H55 0.952 . S
H55 C54 0.952 . S
H56 C52 0.950 . S
H57 C58 0.949 . S
C58 H57 0.949 . S
C58 C59 1.395 . S
C58 C60 1.391 . S
C59 C58 1.395 . S
C59 C62 1.390 . S
C60 C58 1.391 . S
C60 C64 1.387 . S
C60 C65 1.491 . S
H61 C62 0.950 . S
C62 C59 1.390 . S
C62 H61 0.950 . S
C62 C63 1.378 . S
C63 C62 1.378 . S
C63 C64 1.409 . S
C64 C60 1.387 . S
C64 C63 1.409 . S
C64 H66 0.951 . S
C65 C60 1.491 . S
C65 C67 1.382 1_556 S
C65 C69 1.404 1_556 S
H66 C64 0.951 . S
C67 C65 1.382 1_554 S
C67 C68 1.390 . S
C67 H72 0.949 1_554 S
C68 C67 1.390 . S
C68 C73 1.399 . S
C69 C65 1.404 1_554 S
C69 H70 0.950 . S
C69 C71 1.375 . S
H70 C69 0.950 . S
C71 C69 1.375 . S
C71 C73 1.382 . S
C71 H75 0.950 . S
H72 C67 0.949 1_556 S
C73 C68 1.399 . S
C73 C71 1.382 . S
C73 H74 0.952 . S
H74 C73 0.952 . S
H75 C71 0.950 . S
H76 C77 0.949 . S
C77 H76 0.949 . S
C77 C78 1.395 . S
C77 C79 1.391 . S
C78 C77 1.395 . S
C78 C81 1.390 . S
C79 C77 1.391 . S
C79 C83 1.387 . S
C79 C84 1.491 . S
H80 C81 0.950 . S
C81 C78 1.390 . S
C81 H80 0.950 . S
C81 C82 1.378 . S
C82 C81 1.378 . S
C82 C83 1.409 . S
C83 C79 1.387 . S
C83 C82 1.409 . S
C83 H85 0.951 . S
C84 C79 1.491 . S
C84 C86 1.382 . S
C84 C88 1.404 . S
H85 C83 0.951 . S
C86 C84 1.382 . S
C86 C87 1.390 . S
C86 H91 0.949 . S
C87 C86 1.390 . S
C87 C92 1.399 . S
C88 C84 1.404 . S
C88 H89 0.950 . S
C88 C90 1.375 . S
H89 C88 0.950 . S
C90 C88 1.375 . S
C90 C92 1.382 . S
C90 H94 0.950 . S
H91 C86 0.949 . S
C92 C87 1.399 . S
C92 C90 1.382 . S
C92 H93 0.952 . S
H93 C92 0.952 . S
H94 C90 0.950 . S
H95 C96 0.949 . S
C96 H95 0.949 . S
C96 C97 1.395 . S
C96 C98 1.391 . S
C97 C96 1.395 . S
C97 C100 1.390 . S
C98 C96 1.391 . S
C98 C102 1.387 . S
C98 C103 1.491 . S
H99 C100 0.950 . S
C100 C97 1.390 . S
C100 H99 0.950 . S
C100 C101 1.378 . S
C101 C100 1.378 . S
C101 C102 1.409 . S
C102 C98 1.387 . S
C102 C101 1.409 . S
C102 H104 0.951 . S
C103 C98 1.491 . S
C103 C105 1.382 . S
C103 C107 1.404 . S
H104 C102 0.951 . S
C105 C103 1.382 . S
C105 C106 1.390 . S
C105 H110 0.949 . S
C106 C105 1.390 . S
C106 C111 1.399 . S
C107 C103 1.404 . S
C107 H108 0.950 . S
C107 C109 1.375 . S
H108 C107 0.950 . S
C109 C107 1.375 . S
C109 C111 1.382 . S
C109 H113 0.950 . S
H110 C105 0.949 . S
C111 C106 1.399 . S
C111 C109 1.382 . S
C111 H112 0.952 . S
H112 C111 0.952 . S
H113 C109 0.950 . S
H114 C115 0.949 . S
C115 H114 0.949 . S
C115 C116 1.395 . S
C115 C117 1.391 . S
C116 C115 1.395 . S
C116 C119 1.390 . S
C117 C115 1.391 . S
C117 C121 1.387 . S
C117 C122 1.491 . S
H118 C119 0.950 . S
C119 C116 1.390 . S
C119 H118 0.950 . S
C119 C120 1.378 . S
C120 C119 1.378 . S
C120 C121 1.409 . S
C121 C117 1.387 . S
C121 C120 1.409 . S
C121 H123 0.951 . S
C122 C117 1.491 . S
C122 C124 1.382 . S
C122 C126 1.404 . S
H123 C121 0.951 . S
C124 C122 1.382 . S
C124 C125 1.390 . S
C124 H129 0.949 . S
C125 C124 1.390 . S
C125 C130 1.399 . S
C126 C122 1.404 . S
C126 H127 0.950 . S
C126 C128 1.375 . S
H127 C126 0.950 . S
C128 C126 1.375 . S
C128 C130 1.382 . S
C128 H132 0.950 . S
H129 C124 0.949 . S
C130 C125 1.399 . S
C130 C128 1.382 . S
C130 H131 0.952 . S
H131 C130 0.952 . S
H132 C128 0.950 . S
H133 C134 0.949 . S
C134 H133 0.949 . S
C134 C135 1.395 . S
C134 C136 1.391 . S
C135 C134 1.395 . S
C135 C138 1.390 . S
C136 C134 1.391 . S
C136 C140 1.387 . S
C136 C141 1.491 . S
H137 C138 0.950 . S
C138 C135 1.390 . S
C138 H137 0.950 . S
C138 C139 1.378 . S
C139 C138 1.378 . S
C139 C140 1.409 . S
C140 C136 1.387 . S
C140 C139 1.409 . S
C140 H142 0.951 . S
C141 C136 1.491 . S
C141 C143 1.382 . S
C141 C145 1.404 . S
H142 C140 0.951 . S
C143 C141 1.382 . S
C143 C144 1.390 . S
C143 H148 0.949 . S
C144 C143 1.390 . S
C144 C149 1.399 . S
C145 C141 1.404 . S
C145 H146 0.950 . S
C145 C147 1.375 . S
H146 C145 0.950 . S
C147 C145 1.375 . S
C147 C149 1.382 . S
C147 H151 0.950 . S
H148 C143 0.949 . S
C149 C144 1.399 . S
C149 C147 1.382 . S
C149 H150 0.952 . S
H150 C149 0.952 . S
H151 C147 0.950 . S
C152 O154 1.247 1_655 S
C152 O156 1.258 . S
C153 O160 1.247 . S
C153 O161 1.258 . S
O154 C152 1.247 1_455 S
O154 Zn155 2.028 . S
Zn155 O154 2.028 . S
Zn155 O159 2.035 . S
Zn155 O161 2.035 . S
Zn155 O162 2.028 . S
O156 C152 1.258 . S
O156 Zn157 2.035 1_655 S
Zn157 O156 2.035 1_455 S
Zn157 O158 2.028 . S
Zn157 O160 2.028 . S
Zn157 O163 2.035 1_455 S
O158 Zn157 2.028 . S
O158 C164 1.247 . S
O159 Zn155 2.035 . S
O159 C164 1.258 . S
O160 C153 1.247 . S
O160 Zn157 2.028 . S
O161 C153 1.258 . S
O161 Zn155 2.035 . S
O162 Zn155 2.028 . S
O162 C165 1.247 . S
O163 Zn157 2.035 1_655 S
O163 C165 1.258 1_655 S
C164 O158 1.247 . S
C164 O159 1.258 . S
C165 O162 1.247 . S
C165 O163 1.258 1_455 S
C166 O168 1.247 . S
C166 O170 1.258 . S
C167 O174 1.247 . S
C167 O175 1.258 . S
O168 C166 1.247 . S
O168 Zn169 2.028 . S
Zn169 O168 2.028 . S
Zn169 O173 2.035 . S
Zn169 O175 2.035 . S
Zn169 O176 2.028 . S
O170 C166 1.258 . S
O170 Zn171 2.035 . S
Zn171 O170 2.035 . S
Zn171 O172 2.028 . S
Zn171 O174 2.028 . S
Zn171 O177 2.035 . S
O172 Zn171 2.028 . S
O172 C178 1.247 . S
O173 Zn169 2.035 . S
O173 C178 1.258 . S
O174 C167 1.247 . S
O174 Zn171 2.028 . S
O175 C167 1.258 . S
O175 Zn169 2.035 . S
O176 Zn169 2.028 . S
O176 C179 1.247 . S
O177 Zn171 2.035 . S
O177 C179 1.258 . S
C178 O172 1.247 . S
C178 O173 1.258 . S
C179 O176 1.247 . S
C179 O177 1.258 . S
C180 O182 1.247 . S
C180 O184 1.246 1_565 S
C181 O188 1.247 . S
C181 O189 1.258 . S
O182 C180 1.247 . S
O182 Zn183 2.028 1_565 S
Zn183 O182 2.028 1_545 S
Zn183 O187 2.035 . S
Zn183 O189 2.035 . S
Zn183 O190 2.028 1_545 S
O184 C180 1.246 1_545 S
O184 Zn185 2.054 . S
Zn185 O184 2.054 . S
Zn185 O186 2.028 . S
Zn185 O188 2.028 . S
Zn185 O191 2.035 . S
O186 Zn185 2.028 . S
O186 C192 1.247 . S
O187 Zn183 2.035 . S
O187 C192 1.258 . S
O188 C181 1.247 . S
O188 Zn185 2.028 . S
O189 C181 1.258 . S
O189 Zn183 2.035 . S
O190 Zn183 2.028 1_565 S
O190 C193 1.247 . S
O191 Zn185 2.035 . S
O191 C193 1.258 1_545 S
C192 O186 1.247 . S
C192 O187 1.258 . S
C193 O190 1.247 . S
C193 O191 1.258 1_565 S
C194 O196 1.247 . S
C194 O198 1.258 . S
C195 O202 1.247 . S
C195 O203 1.258 . S
O196 C194 1.247 . S
O196 Zn197 2.028 1_554 S
Zn197 O196 2.028 1_556 S
Zn197 O201 2.035 1_556 S
Zn197 O203 2.035 . S
Zn197 O204 2.028 . S
O198 C194 1.258 . S
O198 Zn199 2.035 . S
Zn199 O198 2.035 . S
Zn199 O200 2.028 . S
Zn199 O202 2.028 1_554 S
Zn199 O205 2.035 1_554 S
O200 Zn199 2.028 . S
O200 C206 1.247 . S
O201 Zn197 2.035 1_554 S
O201 C206 1.258 . S
O202 C195 1.247 . S
O202 Zn199 2.028 1_556 S
O203 C195 1.258 . S
O203 Zn197 2.035 . S
O204 Zn197 2.028 . S
O204 C207 1.247 . S
O205 Zn199 2.035 1_556 S
O205 C207 1.258 . S
C206 O200 1.247 . S
C206 O201 1.258 . S
C207 O204 1.247 . S
C207 O205 1.258 . S
C208 O210 1.247 . S
C208 O212 1.258 1_655 S
C209 O216 1.247 1_655 S
C209 O217 1.258 . S
O210 C208 1.247 . S
O210 Zn211 2.028 . S
Zn211 O210 2.028 . S
Zn211 O215 2.035 . S
Zn211 O217 2.035 . S
Zn211 O218 2.028 . S
O212 C208 1.258 1_455 S
O212 Zn213 2.035 . S
Zn213 O212 2.035 . S
Zn213 O214 2.028 . S
Zn213 O216 2.028 . S
Zn213 O219 2.035 . S
O214 Zn213 2.028 . S
O214 C220 1.247 1_455 S
O215 Zn211 2.035 . S
O215 C220 1.258 . S
O216 C209 1.247 1_455 S
O216 Zn213 2.028 . S
O217 C209 1.258 . S
O217 Zn211 2.035 . S
O218 Zn211 2.028 . S
O218 C221 1.247 . S
O219 Zn213 2.035 . S
O219 C221 1.258 1_455 S
C220 O214 1.247 1_655 S
C220 O215 1.258 . S
C221 O218 1.247 . S
C221 O219 1.258 1_655 S
C222 O224 1.247 . S
C222 O226 1.258 . S
C223 O230 1.247 . S
C223 O231 1.258 . S
O224 C222 1.247 . S
O224 Zn225 2.028 . S
Zn225 O224 2.028 . S
Zn225 O229 2.035 . S
Zn225 O231 2.035 . S
Zn225 O232 2.028 . S
O226 C222 1.258 . S
O226 Zn227 2.035 . S
Zn227 O226 2.035 . S
Zn227 O228 2.028 . S
Zn227 O230 2.028 . S
Zn227 O233 2.035 . S
O228 Zn227 2.028 . S
O228 C234 1.247 . S
O229 Zn225 2.035 . S
O229 C234 1.258 . S
O230 C223 1.247 . S
O230 Zn227 2.028 . S
O231 C223 1.258 . S
O231 Zn225 2.035 . S
O232 Zn225 2.028 . S
O232 C235 1.247 . S
O233 Zn227 2.035 . S
O233 C235 1.258 . S
C234 O228 1.247 . S
C234 O229 1.258 . S
C235 O232 1.247 . S
C235 O233 1.258 . S
H236 C254 0.951 . S
H237 C256 0.951 . S
H238 C258 0.950 . S
H239 C259 0.950 . S
H240 C261 0.950 . S
H241 C264 0.950 . S
H242 C265 0.950 . S
H243 C267 0.950 . S
H244 C268 0.950 . S
H245 C269 0.951 . S
H246 C271 0.951 . S
H247 C273 0.950 . S
H248 C274 0.950 . S
H249 C276 0.950 . S
H250 C279 0.950 . S
H251 C280 0.950 . S
H252 C282 0.950 . S
H253 C283 0.950 . S
C254 H236 0.951 . S
C254 C255 1.366 . S
C254 C256 1.388 . S
C255 C254 1.366 . S
C255 C259 1.385 . S
C256 H237 0.951 . S
C256 C254 1.388 . S
C256 C257 1.366 . S
C257 C256 1.366 . S
C257 C258 1.414 . S
C257 C260 1.499 . S
C258 H238 0.950 . S
C258 C257 1.414 . S
C258 C259 1.374 . S
C259 H239 0.950 . S
C259 C255 1.385 . S
C259 C258 1.374 . S
C260 C257 1.499 . S
C260 C261 1.373 . S
C260 C262 1.389 . S
C261 H240 0.950 . S
C261 C260 1.373 . S
C261 C277 1.377 . S
C262 C260 1.389 . S
C262 C263 1.524 . S
C262 C276 1.377 . S
C263 C262 1.524 . S
C263 C264 1.397 . S
C263 C268 1.363 . S
C264 H241 0.950 . S
C264 C263 1.397 . S
C264 C265 1.334 . S
C265 H242 0.950 . S
C265 C264 1.334 . S
C265 C266 1.287 . S
C266 C265 1.287 . S
C266 C267 1.524 . S
C266 H285 0.913 . S
C267 H243 0.950 . S
C267 C266 1.524 . S
C267 C268 1.415 . S
C268 H244 0.950 . S
C268 C263 1.363 . S
C268 C267 1.415 . S
C269 H245 0.951 . S
C269 C270 1.366 . S
C269 C271 1.388 . S
C270 C269 1.366 . S
C270 C274 1.385 . S
C271 H246 0.951 . S
C271 C269 1.388 . S
C271 C272 1.366 . S
C272 C271 1.366 . S
C272 C273 1.414 . S
C272 C275 1.499 . S
C273 H247 0.950 . S
C273 C272 1.414 . S
C273 C274 1.374 . S
C274 H248 0.950 . S
C274 C270 1.385 . S
C274 C273 1.374 . S
C275 C272 1.499 . S
C275 C276 1.373 . S
C275 C277 1.389 . S
C276 H249 0.950 . S
C276 C262 1.377 . S
C276 C275 1.373 . S
C277 C261 1.377 . S
C277 C275 1.389 . S
C277 C278 1.524 . S
C278 C277 1.524 . S
C278 C279 1.397 . S
C278 C283 1.363 . S
C279 H250 0.950 . S
C279 C278 1.397 . S
C279 C280 1.334 . S
C280 H251 0.950 . S
C280 C279 1.334 . S
C280 C281 1.287 . S
C281 C280 1.287 . S
C281 C282 1.524 . S
C281 H284 0.999 1_455 S
C282 H252 0.950 . S
C282 C281 1.524 . S
C282 C283 1.415 . S
C283 H253 0.950 . S
C283 C278 1.363 . S
C283 C282 1.415 . S
H284 C281 0.999 1_655 S
H285 C266 0.913 . S
H286 C304 0.951 . S
H287 C306 0.951 . S
H288 C308 0.950 . S
H289 C309 0.950 . S
H290 C311 0.950 . S
H291 C314 0.950 . S
H292 C315 0.950 . S
H293 C317 0.950 . S
H294 C318 0.950 . S
H295 C319 0.951 . S
H296 C321 0.951 . S
H297 C323 0.950 . S
H298 C324 0.950 . S
H299 C326 0.950 . S
H300 C329 0.950 . S
H301 C330 0.950 . S
H302 C332 0.950 . S
H303 C333 0.950 . S
C304 H286 0.951 . S
C304 C305 1.366 . S
C304 C306 1.388 . S
C305 C304 1.366 . S
C305 C309 1.385 . S
C306 H287 0.951 . S
C306 C304 1.388 . S
C306 C307 1.366 . S
C307 C306 1.366 . S
C307 C308 1.414 . S
C307 C310 1.499 . S
C308 H288 0.950 . S
C308 C307 1.414 . S
C308 C309 1.374 . S
C309 H289 0.950 . S
C309 C305 1.385 . S
C309 C308 1.374 . S
C310 C307 1.499 . S
C310 C311 1.373 . S
C310 C312 1.389 . S
C311 H290 0.950 . S
C311 C310 1.373 . S
C311 C327 1.377 . S
C312 C310 1.389 . S
C312 C313 1.524 . S
C312 C326 1.377 . S
C313 C312 1.524 . S
C313 C314 1.397 . S
C313 C318 1.363 . S
C314 H291 0.950 . S
C314 C313 1.397 . S
C314 C315 1.334 . S
C315 H292 0.950 . S
C315 C314 1.334 . S
C315 C316 1.287 . S
C316 C315 1.287 . S
C316 C317 1.524 . S
C316 H335 0.913 . S
C317 H293 0.950 . S
C317 C316 1.524 . S
C317 C318 1.415 . S
C318 H294 0.950 . S
C318 C313 1.363 . S
C318 C317 1.415 . S
C319 H295 0.951 . S
C319 C320 1.366 . S
C319 C321 1.388 . S
C320 C319 1.366 . S
C320 C324 1.385 . S
C321 H296 0.951 . S
C321 C319 1.388 . S
C321 C322 1.366 . S
C322 C321 1.366 . S
C322 C323 1.414 . S
C322 C325 1.499 . S
C323 H297 0.950 . S
C323 C322 1.414 . S
C323 C324 1.374 . S
C324 H298 0.950 . S
C324 C320 1.385 . S
C324 C323 1.374 . S
C325 C322 1.499 . S
C325 C326 1.373 . S
C325 C327 1.389 . S
C326 H299 0.950 . S
C326 C312 1.377 . S
C326 C325 1.373 . S
C327 C311 1.377 . S
C327 C325 1.389 . S
C327 C328 1.524 . S
C328 C327 1.524 . S
C328 C329 1.397 . S
C328 C333 1.363 . S
C329 H300 0.950 . S
C329 C328 1.397 . S
C329 C330 1.334 . S
C330 H301 0.950 . S
C330 C329 1.334 . S
C330 C331 1.287 . S
C331 C330 1.287 . S
C331 C332 1.524 . S
C331 H334 0.999 . S
C332 H302 0.950 . S
C332 C331 1.524 . S
C332 C333 1.415 . S
C333 H303 0.950 . S
C333 C328 1.363 . S
C333 C332 1.415 . S
H334 C331 0.999 . S
H335 C316 0.913 . S
H336 C354 0.951 . S
H337 C356 0.951 . S
H338 C358 0.950 . S
H339 C359 0.950 . S
H340 C361 0.950 . S
H341 C364 0.950 . S
H342 C365 0.950 . S
H343 C367 0.950 . S
H344 C368 0.950 . S
H345 C369 0.951 . S
H346 C371 0.951 . S
H347 C373 0.950 . S
H348 C374 0.950 . S
H349 C376 0.950 . S
H350 C379 0.950 . S
H351 C380 0.950 . S
H352 C382 0.950 . S
H353 C383 0.950 . S
C354 H336 0.951 . S
C354 C355 1.366 . S
C354 C356 1.388 . S
C355 C354 1.366 . S
C355 C359 1.385 . S
C356 H337 0.951 . S
C356 C354 1.388 . S
C356 C357 1.366 . S
C357 C356 1.366 . S
C357 C358 1.414 . S
C357 C360 1.499 . S
C358 H338 0.950 . S
C358 C357 1.414 . S
C358 C359 1.374 . S
C359 H339 0.950 . S
C359 C355 1.385 . S
C359 C358 1.374 . S
C360 C357 1.499 . S
C360 C361 1.373 . S
C360 C362 1.389 . S
C361 H340 0.950 . S
C361 C360 1.373 . S
C361 C377 1.377 . S
C362 C360 1.389 . S
C362 C363 1.524 . S
C362 C376 1.377 . S
C363 C362 1.524 . S
C363 C364 1.397 . S
C363 C368 1.363 . S
C364 H341 0.950 . S
C364 C363 1.397 . S
C364 C365 1.334 . S
C365 H342 0.950 . S
C365 C364 1.334 . S
C365 C366 1.287 . S
C366 C365 1.287 . S
C366 C367 1.524 . S
C366 H385 0.913 . S
C367 H343 0.950 . S
C367 C366 1.524 . S
C367 C368 1.415 . S
C368 H344 0.950 . S
C368 C363 1.363 . S
C368 C367 1.415 . S
C369 H345 0.951 . S
C369 C370 1.366 1_455 S
C369 C371 1.388 . S
C370 C369 1.366 1_655 S
C370 C374 1.385 . S
C371 H346 0.951 . S
C371 C369 1.388 . S
C371 C372 1.366 1_455 S
C372 C371 1.366 1_655 S
C372 C373 1.414 . S
C372 C375 1.499 . S
C373 H347 0.950 . S
C373 C372 1.414 . S
C373 C374 1.374 . S
C374 H348 0.950 . S
C374 C370 1.385 . S
C374 C373 1.374 . S
C375 C372 1.499 . S
C375 C376 1.373 . S
C375 C377 1.389 . S
C376 H349 0.950 . S
C376 C362 1.377 . S
C376 C375 1.373 . S
C377 C361 1.377 . S
C377 C375 1.389 . S
C377 C378 1.524 . S
C378 C377 1.524 . S
C378 C379 1.397 . S
C378 C383 1.363 1_655 S
C379 H350 0.950 . S
C379 C378 1.397 . S
C379 C380 1.334 . S
C380 H351 0.950 . S
C380 C379 1.334 . S
C380 C381 1.287 . S
C381 C380 1.287 . S
C381 C382 1.524 1_655 S
C381 H384 0.999 . S
C382 H352 0.950 . S
C382 C381 1.524 1_455 S
C382 C383 1.415 . S
C383 H353 0.950 . S
C383 C378 1.363 1_455 S
C383 C382 1.415 . S
H384 C381 0.999 . S
H385 C366 0.913 . S
H386 C404 0.951 . S
H387 C406 0.951 . S
H388 C408 0.950 . S
H389 C409 0.950 . S
H390 C411 0.950 . S
H391 C414 0.950 . S
H392 C415 0.950 . S
H393 C417 0.950 . S
H394 C418 0.950 . S
H395 C419 0.951 . S
H396 C421 0.951 . S
H397 C423 0.950 . S
H398 C424 0.950 . S
H399 C426 0.950 . S
H400 C429 0.950 . S
H401 C430 0.950 . S
H402 C432 0.950 . S
H403 C433 0.950 . S
C404 H386 0.951 . S
C404 C405 1.366 . S
C404 C406 1.388 . S
C405 C404 1.366 . S
C405 C409 1.385 . S
C406 H387 0.951 . S
C406 C404 1.388 . S
C406 C407 1.366 . S
C407 C406 1.366 . S
C407 C408 1.414 . S
C407 C410 1.499 . S
C408 H388 0.950 . S
C408 C407 1.414 . S
C408 C409 1.374 . S
C409 H389 0.950 . S
C409 C405 1.385 . S
C409 C408 1.374 . S
C410 C407 1.499 . S
C410 C411 1.373 1_655 S
C410 C412 1.389 . S
C411 H390 0.950 . S
C411 C410 1.373 1_455 S
C411 C427 1.377 . S
C412 C410 1.389 . S
C412 C413 1.524 . S
C412 C426 1.377 1_655 S
C413 C412 1.524 . S
C413 C414 1.397 . S
C413 C418 1.363 . S
C414 H391 0.950 . S
C414 C413 1.397 . S
C414 C415 1.334 . S
C415 H392 0.950 . S
C415 C414 1.334 . S
C415 C416 1.287 . S
C416 C415 1.287 . S
C416 C417 1.524 . S
C416 H435 0.913 . S
C417 H393 0.950 . S
C417 C416 1.524 . S
C417 C418 1.415 . S
C418 H394 0.950 . S
C418 C413 1.363 . S
C418 C417 1.415 . S
C419 H395 0.951 . S
C419 C420 1.366 . S
C419 C421 1.388 . S
C420 C419 1.366 . S
C420 C424 1.385 . S
C421 H396 0.951 . S
C421 C419 1.388 . S
C421 C422 1.366 . S
C422 C421 1.366 . S
C422 C423 1.414 . S
C422 C425 1.499 . S
C423 H397 0.950 . S
C423 C422 1.414 . S
C423 C424 1.374 . S
C424 H398 0.950 . S
C424 C420 1.385 . S
C424 C423 1.374 . S
C425 C422 1.499 . S
C425 C426 1.373 . S
C425 C427 1.389 . S
C426 H399 0.950 . S
C426 C412 1.377 1_455 S
C426 C425 1.373 . S
C427 C411 1.377 . S
C427 C425 1.389 . S
C427 C428 1.524 . S
C428 C427 1.524 . S
C428 C429 1.397 . S
C428 C433 1.363 . S
C429 H400 0.950 . S
C429 C428 1.397 . S
C429 C430 1.334 1_556 S
C430 H401 0.950 . S
C430 C429 1.334 1_554 S
C430 C431 1.287 . S
C431 C430 1.287 . S
C431 C432 1.524 . S
C431 H434 0.999 . S
C432 H402 0.950 . S
C432 C431 1.524 . S
C432 C433 1.415 1_554 S
C433 H403 0.950 . S
C433 C428 1.363 . S
C433 C432 1.415 1_556 S
H434 C431 0.999 . S
H435 C416 0.913 . S
H436 C454 0.951 . S
H437 C456 0.951 . S
H438 C458 0.950 . S
H439 C459 0.950 . S
H440 C461 0.950 . S
H441 C464 0.950 . S
H442 C465 0.950 . S
H443 C467 0.950 . S
H444 C468 0.950 . S
H445 C469 0.951 . S
H446 C471 0.951 . S
H447 C473 0.950 . S
H448 C474 0.950 . S
H449 C476 0.950 . S
H450 C479 0.950 . S
H451 C480 0.950 . S
H452 C482 0.950 . S
H453 C483 0.950 . S
C454 H436 0.951 . S
C454 C455 1.366 . S
C454 C456 1.388 . S
C455 C454 1.366 . S
C455 C459 1.385 . S
C456 H437 0.951 . S
C456 C454 1.388 . S
C456 C457 1.366 . S
C457 C456 1.366 . S
C457 C458 1.414 . S
C457 C460 1.499 . S
C458 H438 0.950 . S
C458 C457 1.414 . S
C458 C459 1.374 . S
C459 H439 0.950 . S
C459 C455 1.385 . S
C459 C458 1.374 . S
C460 C457 1.499 . S
C460 C461 1.373 . S
C460 C462 1.389 . S
C461 H440 0.950 . S
C461 C460 1.373 . S
C461 C477 1.377 . S
C462 C460 1.389 . S
C462 C463 1.524 . S
C462 C476 1.377 . S
C463 C462 1.524 . S
C463 C464 1.397 . S
C463 C468 1.363 . S
C464 H441 0.950 . S
C464 C463 1.397 . S
C464 C465 1.334 . S
C465 H442 0.950 . S
C465 C464 1.334 . S
C465 C466 1.287 . S
C466 C465 1.287 . S
C466 C467 1.524 . S
C466 H485 0.913 . S
C467 H443 0.950 . S
C467 C466 1.524 . S
C467 C468 1.415 . S
C468 H444 0.950 . S
C468 C463 1.363 . S
C468 C467 1.415 . S
C469 H445 0.951 . S
C469 C470 1.366 . S
C469 C471 1.388 . S
C470 C469 1.366 . S
C470 C474 1.385 . S
C471 H446 0.951 . S
C471 C469 1.388 . S
C471 C472 1.366 . S
C472 C471 1.366 . S
C472 C473 1.414 . S
C472 C475 1.499 . S
C473 H447 0.950 . S
C473 C472 1.414 . S
C473 C474 1.374 . S
C474 H448 0.950 . S
C474 C470 1.385 . S
C474 C473 1.374 . S
C475 C472 1.499 . S
C475 C476 1.373 . S
C475 C477 1.389 . S
C476 H449 0.950 . S
C476 C462 1.377 . S
C476 C475 1.373 . S
C477 C461 1.377 . S
C477 C475 1.389 . S
C477 C478 1.524 . S
C478 C477 1.524 . S
C478 C479 1.397 . S
C478 C483 1.363 . S
C479 H450 0.950 . S
C479 C478 1.397 . S
C479 C480 1.334 . S
C480 H451 0.950 . S
C480 C479 1.334 . S
C480 C481 1.287 . S
C481 C480 1.287 . S
C481 C482 1.524 . S
C481 H484 0.999 . S
C482 H452 0.950 . S
C482 C481 1.524 . S
C482 C483 1.415 . S
C483 H453 0.950 . S
C483 C478 1.363 . S
C483 C482 1.415 . S
H484 C481 0.999 . S
H485 C466 0.913 . S
H486 C504 0.951 . S
H487 C506 0.951 . S
H488 C508 0.950 . S
H489 C509 0.950 . S
H490 C511 0.950 . S
H491 C514 0.950 . S
H492 C515 0.950 . S
H493 C517 0.950 . S
H494 C518 0.950 . S
H495 C519 0.951 . S
H496 C521 0.951 . S
H497 C523 0.950 . S
H498 C524 0.950 . S
H499 C526 0.950 . S
H500 C529 0.950 . S
H501 C530 0.950 . S
H502 C532 0.950 . S
H503 C533 0.950 . S
C504 H486 0.951 . S
C504 C505 1.366 . S
C504 C506 1.388 . S
C505 C504 1.366 . S
C505 C509 1.385 . S
C506 H487 0.951 . S
C506 C504 1.388 . S
C506 C507 1.366 . S
C507 C506 1.366 . S
C507 C508 1.414 . S
C507 C510 1.499 . S
C508 H488 0.950 . S
C508 C507 1.414 . S
C508 C509 1.374 . S
C509 H489 0.950 . S
C509 C505 1.385 . S
C509 C508 1.374 . S
C510 C507 1.499 . S
C510 C511 1.373 . S
C510 C512 1.389 . S
C511 H490 0.950 . S
C511 C510 1.373 . S
C511 C527 1.377 . S
C512 C510 1.389 . S
C512 C513 1.524 . S
C512 C526 1.377 . S
C513 C512 1.524 . S
C513 C514 1.397 . S
C513 C518 1.363 . S
C514 H491 0.950 . S
C514 C513 1.397 . S
C514 C515 1.334 . S
C515 H492 0.950 . S
C515 C514 1.334 . S
C515 C516 1.287 . S
C516 C515 1.287 . S
C516 C517 1.524 . S
C516 H535 0.913 . S
C517 H493 0.950 . S
C517 C516 1.524 . S
C517 C518 1.415 . S
C518 H494 0.950 . S
C518 C513 1.363 . S
C518 C517 1.415 . S
C519 H495 0.951 . S
C519 C520 1.366 . S
C519 C521 1.388 . S
C520 C519 1.366 . S
C520 C524 1.385 . S
C521 H496 0.951 . S
C521 C519 1.388 . S
C521 C522 1.366 . S
C522 C521 1.366 . S
C522 C523 1.414 . S
C522 C525 1.499 . S
C523 H497 0.950 . S
C523 C522 1.414 . S
C523 C524 1.374 . S
C524 H498 0.950 . S
C524 C520 1.385 . S
C524 C523 1.374 . S
C525 C522 1.499 . S
C525 C526 1.373 . S
C525 C527 1.389 . S
C526 H499 0.950 . S
C526 C512 1.377 . S
C526 C525 1.373 . S
C527 C511 1.377 . S
C527 C525 1.389 . S
C527 C528 1.524 . S
C528 C527 1.524 . S
C528 C529 1.397 . S
C528 C533 1.363 . S
C529 H500 0.950 . S
C529 C528 1.397 . S
C529 C530 1.334 . S
C530 H501 0.950 . S
C530 C529 1.334 . S
C530 C531 1.287 . S
C531 C530 1.287 . S
C531 C532 1.524 . S
C531 H534 0.999 . S
C532 H502 0.950 . S
C532 C531 1.524 . S
C532 C533 1.415 . S
C533 H503 0.950 . S
C533 C528 1.363 . S
C533 C532 1.415 . S
H534 C531 0.999 . S
H535 C516 0.913 . S
H536 C554 0.951 . S
H537 C556 0.951 . S
H538 C558 0.950 . S
H539 C559 0.950 . S
H540 C561 0.950 . S
H541 C564 0.950 . S
H542 C565 0.950 . S
H543 C567 0.950 . S
H544 C568 0.950 . S
H545 C569 0.965 . S
H546 C571 0.951 . S
H547 C573 0.950 . S
H548 C574 0.950 . S
H549 C576 0.950 . S
H550 C579 0.950 . S
H551 C580 0.950 . S
H552 C582 0.950 . S
H553 C583 0.950 . S
C554 H536 0.951 . S
C554 C555 1.366 . S
C554 C556 1.388 . S
C555 C554 1.366 . S
C555 C559 1.385 . S
C556 H537 0.951 . S
C556 C554 1.388 . S
C556 C557 1.366 . S
C557 C556 1.366 . S
C557 C558 1.414 . S
C557 C560 1.499 . S
C558 H538 0.950 . S
C558 C557 1.414 . S
C558 C559 1.374 . S
C559 H539 0.950 . S
C559 C555 1.385 . S
C559 C558 1.374 . S
C560 C557 1.499 . S
C560 C561 1.373 1_565 S
C560 C562 1.389 1_565 S
C561 H540 0.950 . S
C561 C560 1.373 1_545 S
C561 C577 1.377 . S
C562 C560 1.389 1_545 S
C562 C563 1.524 1_545 S
C562 C576 1.377 . S
C563 C562 1.524 1_565 S
C563 C564 1.397 . S
C563 C568 1.363 . S
C564 H541 0.950 . S
C564 C563 1.397 . S
C564 C565 1.334 . S
C565 H542 0.950 . S
C565 C564 1.334 . S
C565 C566 1.287 . S
C566 C565 1.287 . S
C566 C567 1.524 . S
C566 H585 0.913 . S
C567 H543 0.950 . S
C567 C566 1.524 . S
C567 C568 1.415 . S
C568 H544 0.950 . S
C568 C563 1.363 . S
C568 C567 1.415 . S
C569 H545 0.965 . S
C569 C570 1.366 . S
C569 C571 1.388 . S
C570 C569 1.366 . S
C570 C574 1.385 . S
C571 H546 0.951 . S
C571 C569 1.388 . S
C571 C572 1.366 . S
C572 C571 1.366 . S
C572 C573 1.414 . S
C572 C575 1.499 . S
C573 H547 0.950 . S
C573 C572 1.414 . S
C573 C574 1.374 . S
C574 H548 0.950 . S
C574 C570 1.385 . S
C574 C573 1.374 . S
C575 C572 1.499 . S
C575 C576 1.373 . S
C575 C577 1.389 . S
C576 H549 0.950 . S
C576 C562 1.377 . S
C576 C575 1.373 . S
C577 C561 1.377 . S
C577 C575 1.389 . S
C577 C578 1.524 1_655 S
C578 C577 1.524 1_455 S
C578 C579 1.397 . S
C578 C583 1.363 . S
C579 H550 0.950 . S
C579 C578 1.397 . S
C579 C580 1.334 . S
C580 H551 0.950 . S
C580 C579 1.334 . S
C580 C581 1.287 . S
C581 C580 1.287 . S
C581 C582 1.524 . S
C581 H584 0.999 . S
C582 H552 0.950 . S
C582 C581 1.524 . S
C582 C583 1.415 . S
C583 H553 0.950 . S
C583 C578 1.363 . S
C583 C582 1.415 . S
H584 C581 0.999 . S
H585 C566 0.913 . S
H586 C604 0.951 . S
H587 C606 0.951 . S
H588 C608 0.950 . S
H589 C609 0.970 . S
H590 C611 0.950 . S
H591 C614 0.950 . S
H592 C615 0.950 . S
H593 C617 0.950 . S
H594 C618 0.950 . S
H595 C619 0.951 . S
H596 C621 0.951 . S
H597 C623 0.950 . S
H598 C624 0.950 . S
H599 C626 0.950 . S
H600 C629 0.950 . S
H601 C630 0.952 . S
H602 C632 0.950 . S
H603 C633 0.950 . S
C604 H586 0.951 . S
C604 C605 1.366 . S
C604 C606 1.388 . S
C605 C604 1.366 . S
C605 C609 1.385 . S
C606 H587 0.951 . S
C606 C604 1.388 . S
C606 C607 1.366 . S
C607 C606 1.366 . S
C607 C608 1.414 . S
C607 C610 1.499 . S
C608 H588 0.950 . S
C608 C607 1.414 . S
C608 C609 1.374 . S
C609 H589 0.970 . S
C609 C605 1.385 . S
C609 C608 1.374 . S
C610 C607 1.499 . S
C610 C611 1.373 . S
C610 C612 1.389 . S
C611 H590 0.950 . S
C611 C610 1.373 . S
C611 C627 1.377 . S
C612 C610 1.389 . S
C612 C613 1.524 . S
C612 C626 1.377 . S
C613 C612 1.524 . S
C613 C614 1.397 . S
C613 C618 1.363 . S
C614 H591 0.950 . S
C614 C613 1.397 . S
C614 C615 1.334 . S
C615 H592 0.950 . S
C615 C614 1.334 . S
C615 C616 1.287 . S
C616 C615 1.287 . S
C616 C617 1.524 . S
C616 H635 0.913 . S
C617 H593 0.950 . S
C617 C616 1.524 . S
C617 C618 1.415 . S
C618 H594 0.950 . S
C618 C613 1.363 . S
C618 C617 1.415 . S
C619 H595 0.951 . S
C619 C620 1.366 . S
C619 C621 1.388 . S
C620 C619 1.366 . S
C620 C624 1.385 . S
C621 H596 0.951 . S
C621 C619 1.388 . S
C621 C622 1.366 . S
C622 C621 1.366 . S
C622 C623 1.414 . S
C622 C625 1.499 . S
C623 H597 0.950 . S
C623 C622 1.414 . S
C623 C624 1.374 . S
C624 H598 0.950 . S
C624 C620 1.385 . S
C624 C623 1.374 . S
C625 C622 1.499 . S
C625 C626 1.373 . S
C625 C627 1.389 . S
C626 H599 0.950 . S
C626 C612 1.377 . S
C626 C625 1.373 . S
C627 C611 1.377 . S
C627 C625 1.389 . S
C627 C628 1.524 . S
C628 C627 1.524 . S
C628 C629 1.397 . S
C628 C633 1.363 1_554 S
C629 H600 0.950 . S
C629 C628 1.397 . S
C629 C630 1.339 . S
C630 H601 0.952 . S
C630 C629 1.339 . S
C630 C631 1.280 1_554 S
C631 C630 1.280 1_556 S
C631 C632 1.524 . S
C631 H634 0.999 . S
C632 H602 0.950 . S
C632 C631 1.524 . S
C632 C633 1.415 . S
C633 H603 0.950 . S
C633 C628 1.363 1_556 S
C633 C632 1.415 . S
H634 C631 0.999 . S
H635 C616 0.913 . S
H636 C654 0.951 . S
H637 C656 0.951 . S
H638 C658 0.950 . S
H639 C659 0.950 . S
H640 C661 0.950 . S
H641 C664 0.950 . S
H642 C665 0.950 . S
H643 C667 0.950 . S
H644 C668 0.950 . S
H645 C669 0.951 . S
H646 C671 0.951 . S
H647 C673 0.950 . S
H648 C674 0.950 . S
H649 C676 0.950 . S
H650 C679 0.950 . S
H651 C680 0.950 . S
H652 C682 0.950 . S
H653 C683 0.950 . S
C654 H636 0.951 . S
C654 C655 1.366 . S
C654 C656 1.388 . S
C655 C654 1.366 . S
C655 C659 1.385 . S
C656 H637 0.951 . S
C656 C654 1.388 . S
C656 C657 1.366 . S
C657 C656 1.366 . S
C657 C658 1.414 . S
C657 C660 1.499 . S
C658 H638 0.950 . S
C658 C657 1.414 . S
C658 C659 1.374 . S
C659 H639 0.950 . S
C659 C655 1.385 . S
C659 C658 1.374 . S
C660 C657 1.499 . S
C660 C661 1.373 . S
C660 C662 1.389 . S
C661 H640 0.950 . S
C661 C660 1.373 . S
C661 C677 1.377 . S
C662 C660 1.389 . S
C662 C663 1.524 . S
C662 C676 1.377 . S
C663 C662 1.524 . S
C663 C664 1.397 . S
C663 C668 1.363 . S
C664 H641 0.950 . S
C664 C663 1.397 . S
C664 C665 1.334 . S
C665 H642 0.950 . S
C665 C664 1.334 . S
C665 C666 1.287 . S
C666 C665 1.287 . S
C666 C667 1.524 . S
C666 H685 0.913 . S
C667 H643 0.950 . S
C667 C666 1.524 . S
C667 C668 1.415 . S
C668 H644 0.950 . S
C668 C663 1.363 . S
C668 C667 1.415 . S
C669 H645 0.951 . S
C669 C670 1.366 . S
C669 C671 1.388 . S
C670 C669 1.366 . S
C670 C674 1.385 . S
C671 H646 0.951 . S
C671 C669 1.388 . S
C671 C672 1.366 . S
C672 C671 1.366 . S
C672 C673 1.414 . S
C672 C675 1.499 . S
C673 H647 0.950 . S
C673 C672 1.414 . S
C673 C674 1.374 . S
C674 H648 0.950 . S
C674 C670 1.385 . S
C674 C673 1.374 . S
C675 C672 1.499 . S
C675 C676 1.373 . S
C675 C677 1.389 . S
C676 H649 0.950 . S
C676 C662 1.377 . S
C676 C675 1.373 . S
C677 C661 1.377 . S
C677 C675 1.389 . S
C677 C678 1.524 . S
C678 C677 1.524 . S
C678 C679 1.397 . S
C678 C683 1.363 . S
C679 H650 0.950 . S
C679 C678 1.397 . S
C679 C680 1.334 . S
C680 H651 0.950 . S
C680 C679 1.334 . S
C680 C681 1.287 . S
C681 C680 1.287 . S
C681 C682 1.524 . S
C681 H684 0.999 . S
C682 H652 0.950 . S
C682 C681 1.524 . S
C682 C683 1.415 . S
C683 H653 0.950 . S
C683 C678 1.363 . S
C683 C682 1.415 . S
H684 C681 0.999 . S
H685 C666 0.913 . S
H686 C704 0.951 . S
H687 C706 0.951 . S
H688 C708 0.950 . S
H689 C709 0.950 . S
H690 C711 0.950 . S
H691 C714 0.950 . S
H692 C715 0.950 . S
H693 C717 0.950 . S
H694 C718 0.950 . S
H695 C719 0.951 . S
H696 C721 0.951 . S
H697 C723 0.950 . S
H698 C724 0.950 . S
H699 C726 0.950 . S
H700 C729 0.950 . S
H701 C730 0.950 . S
H702 C732 0.950 . S
H703 C733 0.950 . S
C704 H686 0.951 . S
C704 C705 1.366 . S
C704 C706 1.388 . S
C705 C704 1.366 . S
C705 C709 1.385 . S
C706 H687 0.951 . S
C706 C704 1.388 . S
C706 C707 1.366 . S
C707 C706 1.366 . S
C707 C708 1.414 . S
C707 C710 1.499 . S
C708 H688 0.950 . S
C708 C707 1.414 . S
C708 C709 1.374 . S
C709 H689 0.950 . S
C709 C705 1.385 . S
C709 C708 1.374 . S
C710 C707 1.499 . S
C710 C711 1.373 . S
C710 C712 1.389 . S
C711 H690 0.950 . S
C711 C710 1.373 . S
C711 C727 1.377 . S
C712 C710 1.389 . S
C712 C713 1.524 . S
C712 C726 1.377 . S
C713 C712 1.524 . S
C713 C714 1.397 . S
C713 C718 1.363 . S
C714 H691 0.950 . S
C714 C713 1.397 . S
C714 C715 1.334 . S
C715 H692 0.950 . S
C715 C714 1.334 . S
C715 C716 1.287 . S
C716 C715 1.287 . S
C716 C717 1.524 . S
C716 H735 0.913 . S
C717 H693 0.950 . S
C717 C716 1.524 . S
C717 C718 1.415 . S
C718 H694 0.950 . S
C718 C713 1.363 . S
C718 C717 1.415 . S
C719 H695 0.951 . S
C719 C720 1.366 . S
C719 C721 1.388 . S
C720 C719 1.366 . S
C720 C724 1.385 . S
C721 H696 0.951 . S
C721 C719 1.388 . S
C721 C722 1.366 . S
C722 C721 1.366 . S
C722 C723 1.414 . S
C722 C725 1.499 . S
C723 H697 0.950 . S
C723 C722 1.414 . S
C723 C724 1.374 . S
C724 H698 0.950 . S
C724 C720 1.385 . S
C724 C723 1.374 . S
C725 C722 1.499 . S
C725 C726 1.373 . S
C725 C727 1.389 . S
C726 H699 0.950 . S
C726 C712 1.377 . S
C726 C725 1.373 . S
C727 C711 1.377 . S
C727 C725 1.389 . S
C727 C728 1.524 . S
C728 C727 1.524 . S
C728 C729 1.397 . S
C728 C733 1.363 . S
C729 H700 0.950 . S
C729 C728 1.397 . S
C729 C730 1.334 . S
C730 H701 0.950 . S
C730 C729 1.334 . S
C730 C731 1.287 . S
C731 C730 1.287 . S
C731 C732 1.524 . S
C731 H734 0.999 . S
C732 H702 0.950 . S
C732 C731 1.524 . S
C732 C733 1.415 . S
C733 H703 0.950 . S
C733 C728 1.363 . S
C733 C732 1.415 . S
H734 C731 0.999 . S
H735 C716 0.913 . S
H736 C754 0.951 . S
H737 C756 0.951 . S
H738 C758 0.950 . S
H739 C759 0.950 . S
H740 C761 0.950 . S
H741 C764 0.950 . S
H742 C765 0.950 . S
H743 C767 0.950 . S
H744 C768 0.950 . S
H745 C769 0.951 . S
H746 C771 0.951 . S
H747 C773 0.950 . S
H748 C774 0.950 . S
H749 C776 0.950 . S
H750 C779 0.950 . S
H751 C780 0.950 . S
H752 C782 0.950 . S
H753 C783 0.950 . S
C754 H736 0.951 . S
C754 C755 1.366 . S
C754 C756 1.388 . S
C755 C754 1.366 . S
C755 C759 1.385 . S
C756 H737 0.951 . S
C756 C754 1.388 . S
C756 C757 1.366 . S
C757 C756 1.366 . S
C757 C758 1.414 . S
C757 C760 1.499 . S
C758 H738 0.950 . S
C758 C757 1.414 . S
C758 C759 1.374 . S
C759 H739 0.950 . S
C759 C755 1.385 . S
C759 C758 1.374 . S
C760 C757 1.499 . S
C760 C761 1.373 . S
C760 C762 1.389 . S
C761 H740 0.950 . S
C761 C760 1.373 . S
C761 C777 1.377 . S
C762 C760 1.389 . S
C762 C763 1.524 . S
C762 C776 1.377 . S
C763 C762 1.524 . S
C763 C764 1.397 . S
C763 C768 1.363 . S
C764 H741 0.950 . S
C764 C763 1.397 . S
C764 C765 1.334 . S
C765 H742 0.950 . S
C765 C764 1.334 . S
C765 C766 1.287 . S
C766 C765 1.287 . S
C766 C767 1.524 . S
C766 H785 0.913 . S
C767 H743 0.950 . S
C767 C766 1.524 . S
C767 C768 1.415 . S
C768 H744 0.950 . S
C768 C763 1.363 . S
C768 C767 1.415 . S
C769 H745 0.951 . S
C769 C770 1.366 . S
C769 C771 1.388 . S
C770 C769 1.366 . S
C770 C774 1.385 . S
C771 H746 0.951 . S
C771 C769 1.388 . S
C771 C772 1.366 . S
C772 C771 1.366 . S
C772 C773 1.414 . S
C772 C775 1.499 . S
C773 H747 0.950 . S
C773 C772 1.414 . S
C773 C774 1.374 . S
C774 H748 0.950 . S
C774 C770 1.385 . S
C774 C773 1.374 . S
C775 C772 1.499 . S
C775 C776 1.373 . S
C775 C777 1.389 . S
C776 H749 0.950 . S
C776 C762 1.377 . S
C776 C775 1.373 . S
C777 C761 1.377 . S
C777 C775 1.389 . S
C777 C778 1.524 1_655 S
C778 C777 1.524 1_455 S
C778 C779 1.397 . S
C778 C783 1.363 . S
C779 H750 0.950 . S
C779 C778 1.397 . S
C779 C780 1.334 . S
C780 H751 0.950 . S
C780 C779 1.334 . S
C780 C781 1.287 . S
C781 C780 1.287 . S
C781 C782 1.524 . S
C781 H784 0.999 . S
C782 H752 0.950 . S
C782 C781 1.524 . S
C782 C783 1.415 . S
C783 H753 0.950 . S
C783 C778 1.363 . S
C783 C782 1.415 . S
H784 C781 0.999 . S
H785 C766 0.913 . S
H786 C804 0.951 . S
H787 C806 0.951 . S
H788 C808 0.950 . S
H789 C809 0.950 . S
H790 C811 0.950 . S
H791 C814 0.950 . S
H792 C815 0.950 . S
H793 C817 0.950 . S
H794 C818 0.950 . S
H795 C819 0.951 . S
H796 C821 0.951 . S
H797 C823 0.950 . S
H798 C824 0.950 . S
H799 C826 0.950 . S
H800 C829 0.950 . S
H801 C830 0.950 . S
H802 C832 0.950 . S
H803 C833 0.950 . S
C804 H786 0.951 . S
C804 C805 1.366 . S
C804 C806 1.388 . S
C805 C804 1.366 . S
C805 C809 1.385 . S
C806 H787 0.951 . S
C806 C804 1.388 . S
C806 C807 1.366 . S
C807 C806 1.366 . S
C807 C808 1.414 . S
C807 C810 1.499 . S
C808 H788 0.950 . S
C808 C807 1.414 . S
C808 C809 1.374 . S
C809 H789 0.950 . S
C809 C805 1.385 . S
C809 C808 1.374 . S
C810 C807 1.499 . S
C810 C811 1.373 . S
C810 C812 1.389 . S
C811 H790 0.950 . S
C811 C810 1.373 . S
C811 C827 1.377 . S
C812 C810 1.389 . S
C812 C813 1.524 . S
C812 C826 1.377 . S
C813 C812 1.524 . S
C813 C814 1.397 . S
C813 C818 1.363 . S
C814 H791 0.950 . S
C814 C813 1.397 . S
C814 C815 1.334 . S
C815 H792 0.950 . S
C815 C814 1.334 . S
C815 C816 1.287 . S
C816 C815 1.287 . S
C816 C817 1.524 . S
C816 H835 0.913 . S
C817 H793 0.950 . S
C817 C816 1.524 . S
C817 C818 1.415 . S
C818 H794 0.950 . S
C818 C813 1.363 . S
C818 C817 1.415 . S
C819 H795 0.951 . S
C819 C820 1.366 . S
C819 C821 1.388 . S
C820 C819 1.366 . S
C820 C824 1.385 . S
C821 H796 0.951 . S
C821 C819 1.388 . S
C821 C822 1.366 . S
C822 C821 1.366 . S
C822 C823 1.414 . S
C822 C825 1.499 . S
C823 H797 0.950 . S
C823 C822 1.414 . S
C823 C824 1.374 . S
C824 H798 0.950 . S
C824 C820 1.385 . S
C824 C823 1.374 . S
C825 C822 1.499 . S
C825 C826 1.373 . S
C825 C827 1.389 . S
C826 H799 0.950 . S
C826 C812 1.377 . S
C826 C825 1.373 . S
C827 C811 1.377 . S
C827 C825 1.389 . S
C827 C828 1.524 . S
C828 C827 1.524 . S
C828 C829 1.397 . S
C828 C833 1.363 . S
C829 H800 0.950 . S
C829 C828 1.397 . S
C829 C830 1.334 . S
C830 H801 0.950 . S
C830 C829 1.334 . S
C830 C831 1.287 . S
C831 C830 1.287 . S
C831 C832 1.524 . S
C831 H834 0.999 . S
C832 H802 0.950 . S
C832 C831 1.524 . S
C832 C833 1.415 . S
C833 H803 0.950 . S
C833 C828 1.363 . S
C833 C832 1.415 . S
H834 C831 0.999 . S
H835 C816 0.913 . S
H836 C854 0.951 . S
H837 C856 0.951 . S
H838 C858 0.950 . S
H839 C859 0.950 . S
H840 C861 0.950 . S
H841 C864 0.950 . S
H842 C865 0.950 . S
H843 C867 0.950 . S
H844 C868 0.950 . S
H845 C869 0.951 . S
H846 C871 0.951 . S
H847 C873 0.950 . S
H848 C874 0.950 . S
H849 C876 0.950 . S
H850 C879 0.950 . S
H851 C880 0.950 . S
H852 C882 0.950 . S
H853 C883 0.950 . S
C854 H836 0.951 . S
C854 C855 1.366 . S
C854 C856 1.388 . S
C855 C854 1.366 . S
C855 C859 1.385 1_655 S
C856 H837 0.951 . S
C856 C854 1.388 . S
C856 C857 1.366 1_655 S
C857 C856 1.366 1_455 S
C857 C858 1.414 . S
C857 C860 1.499 . S
C858 H838 0.950 . S
C858 C857 1.414 . S
C858 C859 1.374 . S
C859 H839 0.950 . S
C859 C855 1.385 1_455 S
C859 C858 1.374 . S
C860 C857 1.499 . S
C860 C861 1.373 . S
C860 C862 1.389 . S
C861 H840 0.950 . S
C861 C860 1.373 . S
C861 C877 1.377 . S
C862 C860 1.389 . S
C862 C863 1.524 . S
C862 C876 1.377 . S
C863 C862 1.524 . S
C863 C864 1.397 . S
C863 C868 1.363 . S
C864 H841 0.950 . S
C864 C863 1.397 . S
C864 C865 1.334 . S
C865 H842 0.950 . S
C865 C864 1.334 . S
C865 C866 1.287 . S
C866 C865 1.287 . S
C866 C867 1.524 1_455 S
C866 H885 0.913 . S
C867 H843 0.950 . S
C867 C866 1.524 1_655 S
C867 C868 1.415 1_655 S
C868 H844 0.950 . S
C868 C863 1.363 . S
C868 C867 1.415 1_455 S
C869 H845 0.951 . S
C869 C870 1.366 . S
C869 C871 1.388 . S
C870 C869 1.366 . S
C870 C874 1.385 . S
C871 H846 0.951 . S
C871 C869 1.388 . S
C871 C872 1.366 . S
C872 C871 1.366 . S
C872 C873 1.414 . S
C872 C875 1.499 . S
C873 H847 0.950 . S
C873 C872 1.414 . S
C873 C874 1.374 . S
C874 H848 0.950 . S
C874 C870 1.385 . S
C874 C873 1.374 . S
C875 C872 1.499 . S
C875 C876 1.373 . S
C875 C877 1.389 . S
C876 H849 0.950 . S
C876 C862 1.377 . S
C876 C875 1.373 . S
C877 C861 1.377 . S
C877 C875 1.389 . S
C877 C878 1.524 . S
C878 C877 1.524 . S
C878 C879 1.397 . S
C878 C883 1.363 . S
C879 H850 0.950 . S
C879 C878 1.397 . S
C879 C880 1.334 . S
C880 H851 0.950 . S
C880 C879 1.334 . S
C880 C881 1.287 . S
C881 C880 1.287 . S
C881 C882 1.524 . S
C881 H884 0.999 . S
C882 H852 0.950 . S
C882 C881 1.524 . S
C882 C883 1.415 . S
C883 H853 0.950 . S
C883 C878 1.363 . S
C883 C882 1.415 . S
H884 C881 0.999 . S
H885 C866 0.913 . S
H886 C904 0.951 . S
H887 C906 0.951 . S
H888 C908 0.950 . S
H889 C909 0.950 . S
H890 C911 0.950 . S
H891 C914 0.950 . S
H892 C915 0.950 . S
H893 C917 0.950 . S
H894 C918 0.950 . S
H895 C919 0.951 . S
H896 C921 0.951 . S
H897 C923 0.950 . S
H898 C924 0.950 . S
H899 C926 0.950 . S
H900 C929 0.950 . S
H901 C930 0.950 . S
H902 C932 0.950 . S
H903 C933 0.950 . S
C904 H886 0.951 . S
C904 C905 1.366 . S
C904 C906 1.388 . S
C905 C904 1.366 . S
C905 C909 1.385 . S
C906 H887 0.951 . S
C906 C904 1.388 . S
C906 C907 1.366 . S
C907 C906 1.366 . S
C907 C908 1.414 . S
C907 C910 1.499 . S
C908 H888 0.950 . S
C908 C907 1.414 . S
C908 C909 1.374 . S
C909 H889 0.950 . S
C909 C905 1.385 . S
C909 C908 1.374 . S
C910 C907 1.499 . S
C910 C911 1.373 . S
C910 C912 1.389 . S
C911 H890 0.950 . S
C911 C910 1.373 . S
C911 C927 1.377 . S
C912 C910 1.389 . S
C912 C913 1.524 . S
C912 C926 1.377 . S
C913 C912 1.524 . S
C913 C914 1.397 . S
C913 C918 1.363 . S
C914 H891 0.950 . S
C914 C913 1.397 . S
C914 C915 1.334 . S
C915 H892 0.950 . S
C915 C914 1.334 . S
C915 C916 1.287 . S
C916 C915 1.287 . S
C916 C917 1.524 . S
C916 H935 0.913 . S
C917 H893 0.950 . S
C917 C916 1.524 . S
C917 C918 1.415 . S
C918 H894 0.950 . S
C918 C913 1.363 . S
C918 C917 1.415 . S
C919 H895 0.951 . S
C919 C920 1.366 . S
C919 C921 1.388 . S
C920 C919 1.366 . S
C920 C924 1.385 . S
C921 H896 0.951 . S
C921 C919 1.388 . S
C921 C922 1.366 . S
C922 C921 1.366 . S
C922 C923 1.414 . S
C922 C925 1.499 . S
C923 H897 0.950 . S
C923 C922 1.414 . S
C923 C924 1.374 . S
C924 H898 0.950 . S
C924 C920 1.385 . S
C924 C923 1.374 . S
C925 C922 1.499 . S
C925 C926 1.373 . S
C925 C927 1.389 . S
C926 H899 0.950 . S
C926 C912 1.377 . S
C926 C925 1.373 . S
C927 C911 1.377 . S
C927 C925 1.389 . S
C927 C928 1.524 . S
C928 C927 1.524 . S
C928 C929 1.397 . S
C928 C933 1.363 . S
C929 H900 0.950 . S
C929 C928 1.397 . S
C929 C930 1.334 . S
C930 H901 0.950 . S
C930 C929 1.334 . S
C930 C931 1.287 . S
C931 C930 1.287 . S
C931 C932 1.524 . S
C931 H934 0.999 . S
C932 H902 0.950 . S
C932 C931 1.524 . S
C932 C933 1.415 . S
C933 H903 0.950 . S
C933 C928 1.363 . S
C933 C932 1.415 . S
H934 C931 0.999 . S
H935 C916 0.913 . S
H936 C954 0.951 . S
H937 C956 0.951 . S
H938 C958 0.950 . S
H939 C959 0.950 . S
H940 C961 0.950 . S
H941 C964 0.950 . S
H942 C965 0.950 . S
H943 C967 0.950 . S
H944 C968 0.950 . S
H945 C969 0.951 . S
H946 C971 0.951 . S
H947 C973 0.950 . S
H948 C974 0.950 . S
H949 C976 0.950 . S
H950 C979 0.950 . S
H951 C980 0.950 . S
H952 C982 0.950 . S
H953 C983 0.950 . S
C954 H936 0.951 . S
C954 C955 1.366 . S
C954 C956 1.388 . S
C955 C954 1.366 . S
C955 C959 1.385 . S
C956 H937 0.951 . S
C956 C954 1.388 . S
C956 C957 1.366 . S
C957 C956 1.366 . S
C957 C958 1.414 . S
C957 C960 1.499 . S
C958 H938 0.950 . S
C958 C957 1.414 . S
C958 C959 1.374 . S
C959 H939 0.950 . S
C959 C955 1.385 . S
C959 C958 1.374 . S
C960 C957 1.499 . S
C960 C961 1.373 . S
C960 C962 1.389 . S
C961 H940 0.950 . S
C961 C960 1.373 . S
C961 C977 1.377 . S
C962 C960 1.389 . S
C962 C963 1.524 . S
C962 C976 1.377 . S
C963 C962 1.524 . S
C963 C964 1.397 . S
C963 C968 1.363 . S
C964 H941 0.950 . S
C964 C963 1.397 . S
C964 C965 1.334 . S
C965 H942 0.950 . S
C965 C964 1.334 . S
C965 C966 1.287 . S
C966 C965 1.287 . S
C966 C967 1.524 . S
C966 H985 0.913 . S
C967 H943 0.950 . S
C967 C966 1.524 . S
C967 C968 1.415 . S
C968 H944 0.950 . S
C968 C963 1.363 . S
C968 C967 1.415 . S
C969 H945 0.951 . S
C969 C970 1.366 . S
C969 C971 1.388 . S
C970 C969 1.366 . S
C970 C974 1.385 . S
C971 H946 0.951 . S
C971 C969 1.388 . S
C971 C972 1.366 . S
C972 C971 1.366 . S
C972 C973 1.414 . S
C972 C975 1.499 . S
C973 H947 0.950 . S
C973 C972 1.414 . S
C973 C974 1.374 . S
C974 H948 0.950 . S
C974 C970 1.385 . S
C974 C973 1.374 . S
C975 C972 1.499 . S
C975 C976 1.373 . S
C975 C977 1.389 . S
C976 H949 0.950 . S
C976 C962 1.377 . S
C976 C975 1.373 . S
C977 C961 1.377 . S
C977 C975 1.389 . S
C977 C978 1.524 . S
C978 C977 1.524 . S
C978 C979 1.397 . S
C978 C983 1.363 . S
C979 H950 0.950 . S
C979 C978 1.397 . S
C979 C980 1.334 . S
C980 H951 0.950 . S
C980 C979 1.334 . S
C980 C981 1.287 . S
C981 C980 1.287 . S
C981 C982 1.524 . S
C981 H984 0.999 . S
C982 H952 0.950 . S
C982 C981 1.524 . S
C982 C983 1.415 . S
C983 H953 0.950 . S
C983 C978 1.363 . S
C983 C982 1.415 . S
H984 C981 0.999 . S
H985 C966 0.913 . S
H986 C1004 0.951 . S
H987 C1006 0.951 . S
H988 C1008 0.950 . S
H989 C1009 0.950 . S
H990 C1011 0.950 . S
H991 C1014 0.950 . S
H992 C1015 0.950 . S
H993 C1017 0.950 . S
H994 C1018 0.950 . S
H995 C1019 0.951 . S
H996 C1021 0.951 . S
H997 C1023 0.950 . S
H998 C1024 0.950 . S
H999 C1026 0.950 . S
H1000 C1029 0.950 . S
H1001 C1030 0.950 . S
H1002 C1032 0.950 . S
H1003 C1033 0.950 . S
C1004 H986 0.951 . S
C1004 C1005 1.366 . S
C1004 C1006 1.388 . S
C1005 C1004 1.366 . S
C1005 C1009 1.385 . S
C1006 H987 0.951 . S
C1006 C1004 1.388 . S
C1006 C1007 1.366 . S
C1007 C1006 1.366 . S
C1007 C1008 1.414 . S
C1007 C1010 1.499 . S
C1008 H988 0.950 . S
C1008 C1007 1.414 . S
C1008 C1009 1.374 . S
C1009 H989 0.950 . S
C1009 C1005 1.385 . S
C1009 C1008 1.374 . S
C1010 C1007 1.499 . S
C1010 C1011 1.373 . S
C1010 C1012 1.389 . S
C1011 H990 0.950 . S
C1011 C1010 1.373 . S
C1011 C1027 1.377 . S
C1012 C1010 1.389 . S
C1012 C1013 1.524 . S
C1012 C1026 1.377 . S
C1013 C1012 1.524 . S
C1013 C1014 1.397 . S
C1013 C1018 1.363 . S
C1014 H991 0.950 . S
C1014 C1013 1.397 . S
C1014 C1015 1.334 . S
C1015 H992 0.950 . S
C1015 C1014 1.334 . S
C1015 C1016 1.287 . S
C1016 C1015 1.287 . S
C1016 C1017 1.524 . S
C1016 H1035 0.913 . S
C1017 H993 0.950 . S
C1017 C1016 1.524 . S
C1017 C1018 1.415 . S
C1018 H994 0.950 . S
C1018 C1013 1.363 . S
C1018 C1017 1.415 . S
C1019 H995 0.951 . S
C1019 C1020 1.366 . S
C1019 C1021 1.388 . S
C1020 C1019 1.366 . S
C1020 C1024 1.385 . S
C1021 H996 0.951 . S
C1021 C1019 1.388 . S
C1021 C1022 1.366 . S
C1022 C1021 1.366 . S
C1022 C1023 1.414 . S
C1022 C1025 1.499 . S
C1023 H997 0.950 . S
C1023 C1022 1.414 . S
C1023 C1024 1.374 . S
C1024 H998 0.950 . S
C1024 C1020 1.385 . S
C1024 C1023 1.374 . S
C1025 C1022 1.499 . S
C1025 C1026 1.373 . S
C1025 C1027 1.389 . S
C1026 H999 0.950 . S
C1026 C1012 1.377 . S
C1026 C1025 1.373 . S
C1027 C1011 1.377 . S
C1027 C1025 1.389 . S
C1027 C1028 1.524 . S
C1028 C1027 1.524 . S
C1028 C1029 1.397 . S
C1028 C1033 1.363 . S
C1029 H1000 0.950 . S
C1029 C1028 1.397 . S
C1029 C1030 1.334 . S
C1030 H1001 0.950 . S
C1030 C1029 1.334 . S
C1030 C1031 1.287 . S
C1031 C1030 1.287 . S
C1031 C1032 1.524 . S
C1031 H1034 0.999 . S
C1032 H1002 0.950 . S
C1032 C1031 1.524 . S
C1032 C1033 1.415 . S
C1033 H1003 0.950 . S
C1033 C1028 1.363 . S
C1033 C1032 1.415 . S
H1034 C1031 0.999 . S
H1035 C1016 0.913 . S
H1036 C1054 0.951 . S
H1037 C1056 0.951 . S
H1038 C1058 0.950 . S
H1039 C1059 0.950 . S
H1040 C1061 0.949 1_455 S
H1041 C1064 0.950 . S
H1042 C1065 0.950 . S
H1043 C1067 0.950 . S
H1044 C1068 0.950 . S
H1045 C1069 0.951 . S
H1046 C1071 0.951 . S
H1047 C1073 0.950 . S
H1048 C1074 0.950 . S
H1049 C1076 0.950 . S
H1050 C1079 0.957 . S
H1051 C1080 0.957 . S
H1052 C1082 0.950 . S
H1053 C1083 0.950 . S
C1054 H1036 0.951 . S
C1054 C1055 1.366 . S
C1054 C1056 1.388 . S
C1055 C1054 1.366 . S
C1055 C1059 1.385 1_655 S
C1056 H1037 0.951 . S
C1056 C1054 1.388 . S
C1056 C1057 1.366 . S
C1057 C1056 1.366 . S
C1057 C1058 1.414 1_655 S
C1057 C1060 1.499 . S
C1058 H1038 0.950 . S
C1058 C1057 1.414 1_455 S
C1058 C1059 1.374 . S
C1059 H1039 0.950 . S
C1059 C1055 1.385 1_455 S
C1059 C1058 1.374 . S
C1060 C1057 1.499 . S
C1060 C1061 1.375 1_565 S
C1060 C1062 1.389 . S
C1061 H1040 0.949 1_655 S
C1061 C1060 1.375 1_545 S
C1061 C1077 1.377 1_655 S
C1062 C1060 1.389 . S
C1062 C1063 1.524 . S
C1062 C1076 1.377 1_565 S
C1063 C1062 1.524 . S
C1063 C1064 1.397 . S
C1063 C1068 1.363 . S
C1064 H1041 0.950 . S
C1064 C1063 1.397 . S
C1064 C1065 1.334 . S
C1065 H1042 0.950 . S
C1065 C1064 1.334 . S
C1065 C1066 1.287 . S
C1066 C1065 1.287 . S
C1066 C1067 1.524 . S
C1066 H1085 0.913 . S
C1067 H1043 0.950 . S
C1067 C1066 1.524 . S
C1067 C1068 1.415 . S
C1068 H1044 0.950 . S
C1068 C1063 1.363 . S
C1068 C1067 1.415 . S
C1069 H1045 0.951 . S
C1069 C1070 1.366 1_455 S
C1069 C1071 1.388 . S
C1070 C1069 1.366 1_655 S
C1070 C1074 1.385 . S
C1071 H1046 0.951 . S
C1071 C1069 1.388 . S
C1071 C1072 1.366 1_455 S
C1072 C1071 1.366 1_655 S
C1072 C1073 1.414 . S
C1072 C1075 1.499 . S
C1073 H1047 0.950 . S
C1073 C1072 1.414 . S
C1073 C1074 1.374 . S
C1074 H1048 0.950 . S
C1074 C1070 1.385 . S
C1074 C1073 1.374 . S
C1075 C1072 1.499 . S
C1075 C1076 1.373 . S
C1075 C1077 1.384 1_655 S
C1076 H1049 0.950 . S
C1076 C1062 1.377 1_545 S
C1076 C1075 1.373 . S
C1077 C1061 1.377 1_455 S
C1077 C1075 1.384 1_455 S
C1077 C1078 1.529 . S
C1078 C1077 1.529 . S
C1078 C1079 1.390 1_455 S
C1078 C1083 1.363 . S
C1079 H1050 0.957 . S
C1079 C1078 1.390 1_655 S
C1079 C1080 1.334 1_655 S
C1080 H1051 0.957 . S
C1080 C1079 1.334 1_455 S
C1080 C1081 1.287 . S
C1081 C1080 1.287 . S
C1081 C1082 1.524 . S
C1081 H1084 0.999 . S
C1082 H1052 0.950 . S
C1082 C1081 1.524 . S
C1082 C1083 1.415 . S
C1083 H1053 0.950 . S
C1083 C1078 1.363 . S
C1083 C1082 1.415 . S
H1084 C1081 0.999 . S
H1085 C1066 0.913 . S
H1086 C1104 0.951 . S
H1087 C1106 0.951 . S
H1088 C1108 0.950 . S
H1089 C1109 0.950 . S
H1090 C1111 0.950 . S
H1091 C1114 0.950 . S
H1092 C1115 0.950 . S
H1093 C1117 0.950 . S
H1094 C1118 0.950 . S
H1095 C1119 0.951 . S
H1096 C1121 0.951 . S
H1097 C1123 0.950 . S
H1098 C1124 0.950 . S
H1099 C1126 0.950 . S
H1100 C1129 0.950 . S
H1101 C1130 0.950 . S
H1102 C1132 0.950 . S
H1103 C1133 0.950 . S
C1104 H1086 0.951 . S
C1104 C1105 1.366 . S
C1104 C1106 1.388 . S
C1105 C1104 1.366 . S
C1105 C1109 1.385 . S
C1106 H1087 0.951 . S
C1106 C1104 1.388 . S
C1106 C1107 1.366 . S
C1107 C1106 1.366 . S
C1107 C1108 1.414 . S
C1107 C1110 1.499 . S
C1108 H1088 0.950 . S
C1108 C1107 1.414 . S
C1108 C1109 1.374 . S
C1109 H1089 0.950 . S
C1109 C1105 1.385 . S
C1109 C1108 1.374 . S
C1110 C1107 1.499 . S
C1110 C1111 1.373 . S
C1110 C1112 1.389 . S
C1111 H1090 0.950 . S
C1111 C1110 1.373 . S
C1111 C1127 1.377 . S
C1112 C1110 1.389 . S
C1112 C1113 1.524 . S
C1112 C1126 1.377 . S
C1113 C1112 1.524 . S
C1113 C1114 1.397 . S
C1113 C1118 1.363 . S
C1114 H1091 0.950 . S
C1114 C1113 1.397 . S
C1114 C1115 1.334 . S
C1115 H1092 0.950 . S
C1115 C1114 1.334 . S
C1115 C1116 1.287 . S
C1116 C1115 1.287 . S
C1116 C1117 1.524 . S
C1116 H1135 0.913 . S
C1117 H1093 0.950 . S
C1117 C1116 1.524 . S
C1117 C1118 1.415 . S
C1118 H1094 0.950 . S
C1118 C1113 1.363 . S
C1118 C1117 1.415 . S
C1119 H1095 0.951 . S
C1119 C1120 1.366 . S
C1119 C1121 1.388 . S
C1120 C1119 1.366 . S
C1120 C1124 1.385 . S
C1121 H1096 0.951 . S
C1121 C1119 1.388 . S
C1121 C1122 1.366 . S
C1122 C1121 1.366 . S
C1122 C1123 1.414 . S
C1122 C1125 1.499 . S
C1123 H1097 0.950 . S
C1123 C1122 1.414 . S
C1123 C1124 1.374 . S
C1124 H1098 0.950 . S
C1124 C1120 1.385 . S
C1124 C1123 1.374 . S
C1125 C1122 1.499 . S
C1125 C1126 1.373 . S
C1125 C1127 1.389 . S
C1126 H1099 0.950 . S
C1126 C1112 1.377 . S
C1126 C1125 1.373 . S
C1127 C1111 1.377 . S
C1127 C1125 1.389 . S
C1127 C1128 1.524 . S
C1128 C1127 1.524 . S
C1128 C1129 1.397 . S
C1128 C1133 1.363 . S
C1129 H1100 0.950 . S
C1129 C1128 1.397 . S
C1129 C1130 1.334 . S
C1130 H1101 0.950 . S
C1130 C1129 1.334 . S
C1130 C1131 1.287 . S
C1131 C1130 1.287 . S
C1131 C1132 1.524 . S
C1131 H1134 0.999 . S
C1132 H1102 0.950 . S
C1132 C1131 1.524 . S
C1132 C1133 1.415 . S
C1133 H1103 0.950 . S
C1133 C1128 1.363 . S
C1133 C1132 1.415 . S
H1134 C1131 0.999 . S
H1135 C1116 0.913 . S
H1136 C1154 0.951 . S
H1137 C1156 0.951 . S
H1138 C1158 0.950 . S
H1139 C1159 0.950 . S
H1140 C1161 0.950 . S
H1141 C1164 0.950 . S
H1142 C1165 0.950 . S
H1143 C1167 0.950 . S
H1144 C1168 0.950 . S
H1145 C1169 0.951 . S
H1146 C1171 0.951 . S
H1147 C1173 0.950 . S
H1148 C1174 0.950 . S
H1149 C1176 0.950 . S
H1150 C1179 0.950 . S
H1151 C1180 0.950 . S
H1152 C1182 0.950 . S
H1153 C1183 0.950 . S
C1154 H1136 0.951 . S
C1154 C1155 1.366 . S
C1154 C1156 1.388 . S
C1155 C1154 1.366 . S
C1155 C1159 1.385 . S
C1156 H1137 0.951 . S
C1156 C1154 1.388 . S
C1156 C1157 1.366 . S
C1157 C1156 1.366 . S
C1157 C1158 1.414 . S
C1157 C1160 1.499 . S
C1158 H1138 0.950 . S
C1158 C1157 1.414 . S
C1158 C1159 1.374 . S
C1159 H1139 0.950 . S
C1159 C1155 1.385 . S
C1159 C1158 1.374 . S
C1160 C1157 1.499 . S
C1160 C1161 1.373 . S
C1160 C1162 1.389 . S
C1161 H1140 0.950 . S
C1161 C1160 1.373 . S
C1161 C1177 1.377 . S
C1162 C1160 1.389 . S
C1162 C1163 1.524 . S
C1162 C1176 1.377 . S
C1163 C1162 1.524 . S
C1163 C1164 1.397 . S
C1163 C1168 1.363 . S
C1164 H1141 0.950 . S
C1164 C1163 1.397 . S
C1164 C1165 1.334 . S
C1165 H1142 0.950 . S
C1165 C1164 1.334 . S
C1165 C1166 1.287 . S
C1166 C1165 1.287 . S
C1166 C1167 1.524 . S
C1166 H1185 0.913 . S
C1167 H1143 0.950 . S
C1167 C1166 1.524 . S
C1167 C1168 1.415 . S
C1168 H1144 0.950 . S
C1168 C1163 1.363 . S
C1168 C1167 1.415 . S
C1169 H1145 0.951 . S
C1169 C1170 1.366 . S
C1169 C1171 1.388 . S
C1170 C1169 1.366 . S
C1170 C1174 1.385 . S
C1171 H1146 0.951 . S
C1171 C1169 1.388 . S
C1171 C1172 1.366 . S
C1172 C1171 1.366 . S
C1172 C1173 1.414 . S
C1172 C1175 1.499 . S
C1173 H1147 0.950 . S
C1173 C1172 1.414 . S
C1173 C1174 1.374 . S
C1174 H1148 0.950 . S
C1174 C1170 1.385 . S
C1174 C1173 1.374 . S
C1175 C1172 1.499 . S
C1175 C1176 1.373 . S
C1175 C1177 1.389 . S
C1176 H1149 0.950 . S
C1176 C1162 1.377 . S
C1176 C1175 1.373 . S
C1177 C1161 1.377 . S
C1177 C1175 1.389 . S
C1177 C1178 1.524 . S
C1178 C1177 1.524 . S
C1178 C1179 1.397 . S
C1178 C1183 1.363 . S
C1179 H1150 0.950 . S
C1179 C1178 1.397 . S
C1179 C1180 1.334 . S
C1180 H1151 0.950 . S
C1180 C1179 1.334 . S
C1180 C1181 1.287 . S
C1181 C1180 1.287 . S
C1181 C1182 1.524 . S
C1181 H1184 0.999 . S
C1182 H1152 0.950 . S
C1182 C1181 1.524 . S
C1182 C1183 1.415 . S
C1183 H1153 0.950 . S
C1183 C1178 1.363 . S
C1183 C1182 1.415 . S
H1184 C1181 0.999 . S
H1185 C1166 0.913 . S
H1186 C1204 0.951 . S
H1187 C1206 0.951 . S
H1188 C1208 0.950 . S
H1189 C1209 0.950 . S
H1190 C1211 0.950 . S
H1191 C1214 0.950 . S
H1192 C1215 0.950 . S
H1193 C1217 0.950 . S
H1194 C1218 0.950 . S
H1195 C1219 0.951 . S
H1196 C1221 0.951 . S
H1197 C1223 0.950 . S
H1198 C1224 0.950 . S
H1199 C1226 0.950 . S
H1200 C1229 0.950 . S
H1201 C1230 0.950 . S
H1202 C1232 0.950 . S
H1203 C1233 0.950 1_554 S
C1204 H1186 0.951 . S
C1204 C1205 1.366 . S
C1204 C1206 1.388 . S
C1205 C1204 1.366 . S
C1205 C1209 1.385 . S
C1206 H1187 0.951 . S
C1206 C1204 1.388 . S
C1206 C1207 1.366 . S
C1207 C1206 1.366 . S
C1207 C1208 1.414 . S
C1207 C1210 1.499 . S
C1208 H1188 0.950 . S
C1208 C1207 1.414 . S
C1208 C1209 1.374 . S
C1209 H1189 0.950 . S
C1209 C1205 1.385 . S
C1209 C1208 1.374 . S
C1210 C1207 1.499 . S
C1210 C1211 1.373 . S
C1210 C1212 1.389 . S
C1211 H1190 0.950 . S
C1211 C1210 1.373 . S
C1211 C1227 1.377 . S
C1212 C1210 1.389 . S
C1212 C1213 1.524 . S
C1212 C1226 1.377 . S
C1213 C1212 1.524 . S
C1213 C1214 1.397 . S
C1213 C1218 1.363 . S
C1214 H1191 0.950 . S
C1214 C1213 1.397 . S
C1214 C1215 1.334 . S
C1215 H1192 0.950 . S
C1215 C1214 1.334 . S
C1215 C1216 1.287 . S
C1216 C1215 1.287 . S
C1216 C1217 1.524 . S
C1216 H1235 0.913 . S
C1217 H1193 0.950 . S
C1217 C1216 1.524 . S
C1217 C1218 1.415 . S
C1218 H1194 0.950 . S
C1218 C1213 1.363 . S
C1218 C1217 1.415 . S
C1219 H1195 0.951 . S
C1219 C1220 1.366 . S
C1219 C1221 1.388 . S
C1220 C1219 1.366 . S
C1220 C1224 1.385 . S
C1221 H1196 0.951 . S
C1221 C1219 1.388 . S
C1221 C1222 1.366 . S
C1222 C1221 1.366 . S
C1222 C1223 1.414 . S
C1222 C1225 1.499 . S
C1223 H1197 0.950 . S
C1223 C1222 1.414 . S
C1223 C1224 1.374 . S
C1224 H1198 0.950 . S
C1224 C1220 1.385 . S
C1224 C1223 1.374 . S
C1225 C1222 1.499 . S
C1225 C1226 1.373 . S
C1225 C1227 1.389 . S
C1226 H1199 0.950 . S
C1226 C1212 1.377 . S
C1226 C1225 1.373 . S
C1227 C1211 1.377 . S
C1227 C1225 1.389 . S
C1227 C1228 1.524 . S
C1228 C1227 1.524 . S
C1228 C1229 1.397 1_554 S
C1228 C1233 1.363 1_554 S
C1229 H1200 0.950 . S
C1229 C1228 1.397 1_556 S
C1229 C1230 1.334 . S
C1230 H1201 0.950 . S
C1230 C1229 1.334 . S
C1230 C1231 1.287 . S
C1231 C1230 1.287 . S
C1231 C1232 1.524 . S
C1231 H1234 0.999 . S
C1232 H1202 0.950 . S
C1232 C1231 1.524 . S
C1232 C1233 1.415 . S
C1233 H1203 0.950 1_556 S
C1233 C1228 1.363 1_556 S
C1233 C1232 1.415 . S
H1234 C1231 0.999 . S
H1235 C1216 0.913 . S
H1236 C1254 0.951 . S
H1237 C1256 0.951 . S
H1238 C1258 0.950 . S
H1239 C1259 0.950 . S
H1240 C1261 0.950 . S
H1241 C1264 0.950 . S
H1242 C1265 0.950 . S
H1243 C1267 0.950 . S
H1244 C1268 0.950 . S
H1245 C1269 0.951 . S
H1246 C1271 0.951 . S
H1247 C1273 0.950 . S
H1248 C1274 0.950 . S
H1249 C1276 0.950 . S
H1250 C1279 0.950 . S
H1251 C1280 0.950 . S
H1252 C1282 0.950 . S
H1253 C1283 0.950 . S
C1254 H1236 0.951 . S
C1254 C1255 1.366 . S
C1254 C1256 1.388 . S
C1255 C1254 1.366 . S
C1255 C1259 1.385 . S
C1256 H1237 0.951 . S
C1256 C1254 1.388 . S
C1256 C1257 1.366 . S
C1257 C1256 1.366 . S
C1257 C1258 1.414 . S
C1257 C1260 1.499 . S
C1258 H1238 0.950 . S
C1258 C1257 1.414 . S
C1258 C1259 1.374 . S
C1259 H1239 0.950 . S
C1259 C1255 1.385 . S
C1259 C1258 1.374 . S
C1260 C1257 1.499 . S
C1260 C1261 1.373 . S
C1260 C1262 1.389 . S
C1261 H1240 0.950 . S
C1261 C1260 1.373 . S
C1261 C1277 1.377 . S
C1262 C1260 1.389 . S
C1262 C1263 1.524 . S
C1262 C1276 1.377 . S
C1263 C1262 1.524 . S
C1263 C1264 1.397 . S
C1263 C1268 1.363 . S
C1264 H1241 0.950 . S
C1264 C1263 1.397 . S
C1264 C1265 1.334 . S
C1265 H1242 0.950 . S
C1265 C1264 1.334 . S
C1265 C1266 1.287 . S
C1266 C1265 1.287 . S
C1266 C1267 1.524 . S
C1266 H1285 0.913 . S
C1267 H1243 0.950 . S
C1267 C1266 1.524 . S
C1267 C1268 1.415 . S
C1268 H1244 0.950 . S
C1268 C1263 1.363 . S
C1268 C1267 1.415 . S
C1269 H1245 0.951 . S
C1269 C1270 1.366 . S
C1269 C1271 1.388 . S
C1270 C1269 1.366 . S
C1270 C1274 1.385 . S
C1271 H1246 0.951 . S
C1271 C1269 1.388 . S
C1271 C1272 1.366 . S
C1272 C1271 1.366 . S
C1272 C1273 1.414 . S
C1272 C1275 1.499 . S
C1273 H1247 0.950 . S
C1273 C1272 1.414 . S
C1273 C1274 1.374 . S
C1274 H1248 0.950 . S
C1274 C1270 1.385 . S
C1274 C1273 1.374 . S
C1275 C1272 1.499 . S
C1275 C1276 1.373 . S
C1275 C1277 1.389 . S
C1276 H1249 0.950 . S
C1276 C1262 1.377 . S
C1276 C1275 1.373 . S
C1277 C1261 1.377 . S
C1277 C1275 1.389 . S
C1277 C1278 1.524 . S
C1278 C1277 1.524 . S
C1278 C1279 1.397 . S
C1278 C1283 1.363 . S
C1279 H1250 0.950 . S
C1279 C1278 1.397 . S
C1279 C1280 1.334 1_655 S
C1280 H1251 0.950 . S
C1280 C1279 1.334 1_455 S
C1280 C1281 1.287 . S
C1281 C1280 1.287 . S
C1281 C1282 1.524 . S
C1281 H1284 0.999 . S
C1282 H1252 0.950 . S
C1282 C1281 1.524 . S
C1282 C1283 1.415 1_455 S
C1283 H1253 0.950 . S
C1283 C1278 1.363 . S
C1283 C1282 1.415 1_655 S
H1284 C1281 0.999 . S
H1285 C1266 0.913 . S
H1286 C1304 0.951 . S
H1287 C1306 0.951 . S
H1288 C1308 0.950 . S
H1289 C1309 0.950 . S
H1290 C1311 0.950 . S
H1291 C1314 0.950 . S
H1292 C1315 0.950 . S
H1293 C1317 0.950 . S
H1294 C1318 0.950 . S
H1295 C1319 0.951 . S
H1296 C1321 0.951 . S
H1297 C1323 0.950 . S
H1298 C1324 0.950 . S
H1299 C1326 0.950 . S
H1300 C1329 0.950 . S
H1301 C1330 0.950 . S
H1302 C1332 0.950 . S
H1303 C1333 0.950 . S
C1304 H1286 0.951 . S
C1304 C1305 1.366 . S
C1304 C1306 1.388 . S
C1305 C1304 1.366 . S
C1305 C1309 1.385 . S
C1306 H1287 0.951 . S
C1306 C1304 1.388 . S
C1306 C1307 1.366 . S
C1307 C1306 1.366 . S
C1307 C1308 1.414 . S
C1307 C1310 1.499 . S
C1308 H1288 0.950 . S
C1308 C1307 1.414 . S
C1308 C1309 1.374 . S
C1309 H1289 0.950 . S
C1309 C1305 1.385 . S
C1309 C1308 1.374 . S
C1310 C1307 1.499 . S
C1310 C1311 1.373 . S
C1310 C1312 1.389 . S
C1311 H1290 0.950 . S
C1311 C1310 1.373 . S
C1311 C1327 1.377 . S
C1312 C1310 1.389 . S
C1312 C1313 1.524 . S
C1312 C1326 1.377 . S
C1313 C1312 1.524 . S
C1313 C1314 1.397 . S
C1313 C1318 1.363 . S
C1314 H1291 0.950 . S
C1314 C1313 1.397 . S
C1314 C1315 1.334 . S
C1315 H1292 0.950 . S
C1315 C1314 1.334 . S
C1315 C1316 1.287 . S
C1316 C1315 1.287 . S
C1316 C1317 1.524 . S
C1316 H1335 0.913 . S
C1317 H1293 0.950 . S
C1317 C1316 1.524 . S
C1317 C1318 1.415 . S
C1318 H1294 0.950 . S
C1318 C1313 1.363 . S
C1318 C1317 1.415 . S
C1319 H1295 0.951 . S
C1319 C1320 1.366 . S
C1319 C1321 1.388 1_554 S
C1320 C1319 1.366 . S
C1320 C1324 1.385 . S
C1321 H1296 0.951 . S
C1321 C1319 1.388 1_556 S
C1321 C1322 1.366 . S
C1322 C1321 1.366 . S
C1322 C1323 1.414 1_556 S
C1322 C1325 1.499 . S
C1323 H1297 0.950 . S
C1323 C1322 1.414 1_554 S
C1323 C1324 1.374 . S
C1324 H1298 0.950 . S
C1324 C1320 1.385 . S
C1324 C1323 1.374 . S
C1325 C1322 1.499 . S
C1325 C1326 1.373 . S
C1325 C1327 1.389 . S
C1326 H1299 0.950 . S
C1326 C1312 1.377 . S
C1326 C1325 1.373 . S
C1327 C1311 1.377 . S
C1327 C1325 1.389 . S
C1327 C1328 1.524 . S
C1328 C1327 1.524 . S
C1328 C1329 1.397 . S
C1328 C1333 1.363 . S
C1329 H1300 0.950 . S
C1329 C1328 1.397 . S
C1329 C1330 1.334 . S
C1330 H1301 0.950 . S
C1330 C1329 1.334 . S
C1330 C1331 1.287 . S
C1331 C1330 1.287 . S
C1331 C1332 1.524 . S
C1331 H1334 0.999 . S
C1332 H1302 0.950 . S
C1332 C1331 1.524 . S
C1332 C1333 1.415 . S
C1333 H1303 0.950 . S
C1333 C1328 1.363 . S
C1333 C1332 1.415 . S
H1334 C1331 0.999 . S
H1335 C1316 0.913 . S
H1336 C1354 0.951 . S
H1337 C1356 0.951 . S
H1338 C1358 0.950 . S
H1339 C1359 0.950 . S
H1340 C1361 0.950 . S
H1341 C1364 0.950 . S
H1342 C1365 0.950 . S
H1343 C1367 0.950 . S
H1344 C1368 0.950 . S
H1345 C1369 0.951 . S
H1346 C1371 0.951 . S
H1347 C1373 0.950 . S
H1348 C1374 0.950 . S
H1349 C1376 0.950 . S
H1350 C1379 0.950 . S
H1351 C1380 0.950 . S
H1352 C1382 0.950 . S
H1353 C1383 0.950 . S
C1354 H1336 0.951 . S
C1354 C1355 1.366 . S
C1354 C1356 1.388 . S
C1355 C1354 1.366 . S
C1355 C1359 1.385 . S
C1356 H1337 0.951 . S
C1356 C1354 1.388 . S
C1356 C1357 1.366 . S
C1357 C1356 1.366 . S
C1357 C1358 1.414 . S
C1357 C1360 1.499 . S
C1358 H1338 0.950 . S
C1358 C1357 1.414 . S
C1358 C1359 1.374 . S
C1359 H1339 0.950 . S
C1359 C1355 1.385 . S
C1359 C1358 1.374 . S
C1360 C1357 1.499 . S
C1360 C1361 1.373 . S
C1360 C1362 1.389 . S
C1361 H1340 0.950 . S
C1361 C1360 1.373 . S
C1361 C1377 1.377 . S
C1362 C1360 1.389 . S
C1362 C1363 1.524 . S
C1362 C1376 1.377 . S
C1363 C1362 1.524 . S
C1363 C1364 1.397 . S
C1363 C1368 1.363 . S
C1364 H1341 0.950 . S
C1364 C1363 1.397 . S
C1364 C1365 1.334 . S
C1365 H1342 0.950 . S
C1365 C1364 1.334 . S
C1365 C1366 1.287 . S
C1366 C1365 1.287 . S
C1366 C1367 1.524 . S
C1366 H1385 0.913 . S
C1367 H1343 0.950 . S
C1367 C1366 1.524 . S
C1367 C1368 1.415 . S
C1368 H1344 0.950 . S
C1368 C1363 1.363 . S
C1368 C1367 1.415 . S
C1369 H1345 0.951 . S
C1369 C1370 1.366 . S
C1369 C1371 1.388 . S
C1370 C1369 1.366 . S
C1370 C1374 1.385 . S
C1371 H1346 0.951 . S
C1371 C1369 1.388 . S
C1371 C1372 1.366 . S
C1372 C1371 1.366 . S
C1372 C1373 1.414 . S
C1372 C1375 1.499 . S
C1373 H1347 0.950 . S
C1373 C1372 1.414 . S
C1373 C1374 1.374 . S
C1374 H1348 0.950 . S
C1374 C1370 1.385 . S
C1374 C1373 1.374 . S
C1375 C1372 1.499 . S
C1375 C1376 1.373 . S
C1375 C1377 1.389 . S
C1376 H1349 0.950 . S
C1376 C1362 1.377 . S
C1376 C1375 1.373 . S
C1377 C1361 1.377 . S
C1377 C1375 1.389 . S
C1377 C1378 1.524 . S
C1378 C1377 1.524 . S
C1378 C1379 1.397 . S
C1378 C1383 1.363 . S
C1379 H1350 0.950 . S
C1379 C1378 1.397 . S
C1379 C1380 1.334 . S
C1380 H1351 0.950 . S
C1380 C1379 1.334 . S
C1380 C1381 1.287 . S
C1381 C1380 1.287 . S
C1381 C1382 1.524 . S
C1381 H1384 0.999 . S
C1382 H1352 0.950 . S
C1382 C1381 1.524 . S
C1382 C1383 1.415 . S
C1383 H1353 0.950 . S
C1383 C1378 1.363 . S
C1383 C1382 1.415 . S
H1384 C1381 0.999 . S
H1385 C1366 0.913 . S
H1386 C1404 0.951 . S
H1387 C1406 0.951 . S
H1388 C1408 0.950 . S
H1389 C1409 0.950 . S
H1390 C1411 0.950 . S
H1391 C1414 0.950 . S
H1392 C1415 0.950 1_554 S
H1393 C1417 0.950 . S
H1394 C1418 0.950 . S
H1395 C1419 0.951 . S
H1396 C1421 0.951 . S
H1397 C1423 0.950 . S
H1398 C1424 0.950 . S
H1399 C1426 0.950 . S
H1400 C1429 0.950 . S
H1401 C1430 0.950 . S
H1402 C1432 0.950 . S
H1403 C1433 0.950 . S
C1404 H1386 0.951 . S
C1404 C1405 1.366 . S
C1404 C1406 1.388 . S
C1405 C1404 1.366 . S
C1405 C1409 1.385 . S
C1406 H1387 0.951 . S
C1406 C1404 1.388 . S
C1406 C1407 1.366 . S
C1407 C1406 1.366 . S
C1407 C1408 1.414 . S
C1407 C1410 1.499 . S
C1408 H1388 0.950 . S
C1408 C1407 1.414 . S
C1408 C1409 1.374 . S
C1409 H1389 0.950 . S
C1409 C1405 1.385 . S
C1409 C1408 1.374 . S
C1410 C1407 1.499 . S
C1410 C1411 1.373 . S
C1410 C1412 1.389 . S
C1411 H1390 0.950 . S
C1411 C1410 1.373 . S
C1411 C1427 1.377 . S
C1412 C1410 1.389 . S
C1412 C1413 1.524 . S
C1412 C1426 1.377 . S
C1413 C1412 1.524 . S
C1413 C1414 1.397 . S
C1413 C1418 1.363 . S
C1414 H1391 0.950 . S
C1414 C1413 1.397 . S
C1414 C1415 1.334 . S
C1415 H1392 0.950 1_556 S
C1415 C1414 1.334 . S
C1415 C1416 1.287 . S
C1416 C1415 1.287 . S
C1416 C1417 1.524 . S
C1416 H1435 0.913 . S
C1417 H1393 0.950 . S
C1417 C1416 1.524 . S
C1417 C1418 1.415 . S
C1418 H1394 0.950 . S
C1418 C1413 1.363 . S
C1418 C1417 1.415 . S
C1419 H1395 0.951 . S
C1419 C1420 1.366 . S
C1419 C1421 1.388 . S
C1420 C1419 1.366 . S
C1420 C1424 1.385 . S
C1421 H1396 0.951 . S
C1421 C1419 1.388 . S
C1421 C1422 1.366 . S
C1422 C1421 1.366 . S
C1422 C1423 1.414 . S
C1422 C1425 1.499 . S
C1423 H1397 0.950 . S
C1423 C1422 1.414 . S
C1423 C1424 1.374 . S
C1424 H1398 0.950 . S
C1424 C1420 1.385 . S
C1424 C1423 1.374 . S
C1425 C1422 1.499 . S
C1425 C1426 1.373 . S
C1425 C1427 1.389 . S
C1426 H1399 0.950 . S
C1426 C1412 1.377 . S
C1426 C1425 1.373 . S
C1427 C1411 1.377 . S
C1427 C1425 1.389 . S
C1427 C1428 1.524 . S
C1428 C1427 1.524 . S
C1428 C1429 1.397 . S
C1428 C1433 1.363 . S
C1429 H1400 0.950 . S
C1429 C1428 1.397 . S
C1429 C1430 1.334 . S
C1430 H1401 0.950 . S
C1430 C1429 1.334 . S
C1430 C1431 1.287 . S
C1431 C1430 1.287 . S
C1431 C1432 1.524 . S
C1431 H1434 0.999 . S
C1432 H1402 0.950 . S
C1432 C1431 1.524 . S
C1432 C1433 1.415 . S
C1433 H1403 0.950 . S
C1433 C1428 1.363 . S
C1433 C1432 1.415 . S
H1434 C1431 0.999 . S
H1435 C1416 0.913 . S
C270 C164 1.452 . S
C255 C11 1.329 . S
C320 C167 1.813 . S
C305 C25 1.787 . S
C370 C165 1.227 1_655 S
C355 C40 1.183 . S
C420 C166 1.306 . S
C405 C59 1.250 . S
C470 C181 1.893 . S
C455 C6 1.885 . S
C520 C195 1.925 . S
C505 C21 1.876 . S
C555 C49 1.521 . S
C570 C221 1.622 . S
C620 C235 1.495 . S
C605 C68 1.390 . S
C670 C180 1.890 . S
C655 C30 1.682 . S
C705 C44 1.680 . S
C720 C194 1.674 . S
C770 C220 1.607 . S
C755 C63 1.606 . S
C820 C234 1.672 . S
C805 C2 1.653 . S
C855 C78 1.816 . S
C870 C179 1.829 . S
C920 C152 1.648 . S
C905 C97 1.584 . S
C955 C120 1.719 . S
C970 C178 1.729 . S
C1005 C139 1.640 . S
C1020 C153 1.647 . S
C1070 C208 1.428 . S
C1055 C87 1.336 . S
C1120 C222 1.573 . S
C1105 C101 1.537 . S
C1170 C192 1.608 . S
C1155 C125 1.495 . S
C1205 C144 1.675 . S
C1220 C206 1.731 . S
C1270 C209 1.712 . S
C1255 C106 1.507 . S
C1320 C223 1.628 . S
C1305 C116 1.601 . S
C1370 C193 1.679 . S
C1355 C135 1.647 . S
C1405 C82 1.860 . S
C1420 C207 1.840 . S
