# Generated by pormake.
# Topology tsx, (6,3)-cn, num edge types: 1
# Building blocks:
#     Node 0, Type 0, BuildingBlock: CIFDUS_clean_sbu_1, # of connection points: 6
#     Node 1, Type 0, BuildingBlock: CIFDUS_clean_sbu_1, # of connection points: 6
#     Node 2, Type 1, BuildingBlock: QEWDON_clean_linker_0, # of connection points: 3
#     Node 3, Type 1, BuildingBlock: QEWDON_clean_linker_0, # of connection points: 3
#     Node 4, Type 1, BuildingBlock: QEWDON_clean_linker_0, # of connection points: 3
#     Node 5, Type 1, BuildingBlock: QEWDON_clean_linker_0, # of connection points: 3
#     Edge 6, Type (0, 1), BuildingBlock: UVAHIK_clean_linker_0, # of connection points: 2
#     Edge 7, Type (0, 1), BuildingBlock: UVAHIK_clean_linker_0, # of connection points: 2
#     Edge 8, Type (0, 1), BuildingBlock: UVAHIK_clean_linker_0, # of connection points: 2
#     Edge 9, Type (0, 1), BuildingBlock: UVAHIK_clean_linker_0, # of connection points: 2
#     Edge 10, Type (0, 1), BuildingBlock: UVAHIK_clean_linker_0, # of connection points: 2
#     Edge 11, Type (0, 1), BuildingBlock: UVAHIK_clean_linker_0, # of connection points: 2
#     Edge 12, Type (0, 1), BuildingBlock: UVAHIK_clean_linker_0, # of connection points: 2
#     Edge 13, Type (0, 1), BuildingBlock: UVAHIK_clean_linker_0, # of connection points: 2
#     Edge 14, Type (0, 1), BuildingBlock: UVAHIK_clean_linker_0, # of connection points: 2
#     Edge 15, Type (0, 1), BuildingBlock: UVAHIK_clean_linker_0, # of connection points: 2
#     Edge 16, Type (0, 1), BuildingBlock: UVAHIK_clean_linker_0, # of connection points: 2
#     Edge 17, Type (0, 1), BuildingBlock: UVAHIK_clean_linker_0, # of connection points: 2
# Relax obj value: 0.103
# Max RMSD: 0.205
# Mean RMSD: 0.148
data_MOF--net-tsx--node1-CIFDUS_clean_sbu_1--node2-QEWDON_clean_linker_0--edge1-UVAHIK_clean_linker_0
_symmetry_space_group_name_H-M    P1
_symmetry_Int_Tables_number       1
_symmetry_cell_setting            triclinic
loop_
_symmetry_equiv_pos_as_xyz
'x, y, z'
_cell_length_a     25.262974
_cell_length_b     31.59675
_cell_length_c     43.835952
_cell_angle_alpha  95.760019
_cell_angle_beta   106.84202
_cell_angle_gamma 93.50199
loop_
_atom_site_label
_atom_site_type_symbol
_atom_site_fract_x
_atom_site_fract_y
_atom_site_fract_z
_atom_type_partial_charge
O0 O 0.02045 0.04774 0.00801 0.0
Mn1 Mn 0.06977 -0.00322 0.01027 0.0
O2 O 0.93685 0.02329 0.97296 0.0
Mn3 Mn 0.95554 0.96991 0.96013 0.0
O4 O 0.11918 0.94513 0.01157 0.0
O5 O 0.13726 0.03933 0.02621 0.0
Mn6 Mn 0.18713 0.02134 0.05822 0.0
O7 O 0.06806 -0.00771 0.05734 0.0
O8 O 0.20612 0.97085 0.04089 0.0
O9 O 0.07237 0.00187 0.96313 0.0
O10 O 0.993 0.96778 0.92968 0.0
O11 O 0.21748 0.07328 0.05204 0.0
O12 O 0.15288 0.01766 0.09019 0.0
C13 C 0.96397 0.9241 0.99341 0.0
C14 C 0.96973 0.05245 0.99293 0.0
C15 C 0.17155 0.94124 0.02261 0.0
C16 C 0.17099 0.07304 0.02965 0.0
C17 C 0.1025 0.0032 0.08551 0.0
C18 C 0.04141 -0.01353 0.93484 0.0
O19 O 1.00141 0.95473 0.995 0.0
O20 O 0.92051 0.92171 0.96863 0.0
O21 O 0.5343 0.55566 0.51099 0.0
Mn22 Mn 0.57828 0.50153 0.51316 0.0
O23 O 0.45211 0.53679 0.47265 0.0
Mn24 Mn 0.46646 0.48248 0.45869 0.0
O25 O 0.62216 0.44699 0.51452 0.0
O26 O 0.64946 0.53901 0.53284 0.0
Mn27 Mn 0.69154 0.51841 0.56658 0.0
O28 O 0.56864 0.49547 0.55868 0.0
O29 O 0.70538 0.46432 0.55188 0.0
O30 O 0.58824 0.50813 0.46775 0.0
O31 O 0.50875 0.48003 0.4306 0.0
O32 O 0.73102 0.56727 0.56159 0.0
O33 O 0.65035 0.52006 0.59532 0.0
C34 C 0.46688 0.43492 0.49038 0.0
C35 C 0.48565 0.56356 0.49448 0.0
C36 C 0.67086 0.43798 0.5302 0.0
C37 C 0.68768 0.56998 0.53764 0.0
C38 C 0.59905 0.50661 0.58789 0.0
C39 C 0.55913 0.4958 0.43849 0.0
O40 O 0.50695 0.46398 0.49376 0.0
O41 O 0.42566 0.43518 0.46475 0.0
H42 H 0.05639 -0.00083 0.41562 0.0
C43 C 0.07527 0.97011 0.42192 0.0
C44 C 0.08239 0.9403 0.39765 0.0
C45 C 0.0954 0.96368 0.45439 0.0
H46 H 0.12007 0.88322 0.38773 0.0
C47 C 0.11088 0.90434 0.40621 0.0
C48 C 0.13177 0.89767 0.43857 0.0
C49 C 0.1211 0.92635 0.46218 0.0
C50 C 0.09831 -0.00138 0.4805 0.0
H51 H 0.13578 0.92095 0.48715 0.0
C52 C 0.05297 0.02248 0.48018 0.0
C53 C 0.05795 0.06498 0.50602 0.0
C54 C 0.14858 0.00832 0.5048 0.0
H55 H 0.18384 -0.00948 0.50463 0.0
C56 C 0.15583 0.03995 0.53 0.0
H57 H 0.01546 0.00964 0.46138 0.0
C58 C 0.11575 0.06699 0.53204 0.0
H59 H 0.08026 0.0696 0.51814 0.0
H60 H 0.1951 0.04461 0.54883 0.0
H61 H 0.02003 0.08763 0.59982 0.0
C62 C 0.99379 0.05811 0.59051 0.0
C63 C 0.97576 0.03509 0.61201 0.0
C64 C 0.97682 0.04338 0.55738 0.0
H65 H 0.92587 0.98049 0.61728 0.0
C66 C 0.94047 -0.00266 0.60046 0.0
C67 C 0.9247 0.98089 0.56786 0.0
C68 C 0.94354 0.00403 0.54661 0.0
C69 C 0.99367 0.06843 0.53396 0.0
H70 H 0.93319 -0.00972 0.52188 0.0
C71 C 0.04692 0.11379 0.54751 0.0
C72 C 0.07001 0.13993 0.51816 0.0
C73 C 0.96192 0.05291 0.49162 0.0
H74 H 0.9286 0.02762 0.48266 0.0
C75 C 0.98581 0.07916 0.46286 0.0
H76 H 0.06779 0.12324 0.57276 0.0
C77 C 0.04102 0.12155 0.47649 0.0
H78 H 0.05694 0.13585 0.45911 0.0
H79 H 0.96743 0.06913 0.4374 0.0
H80 H 0.5544 0.49801 0.91659 0.0
C81 C 0.57383 0.46899 0.92233 0.0
C82 C 0.5812 0.44016 0.89754 0.0
C83 C 0.59363 0.46127 0.95458 0.0
H84 H 0.61985 0.38404 0.88662 0.0
C85 C 0.61038 0.4043 0.90543 0.0
C86 C 0.63087 0.39636 0.93751 0.0
C87 C 0.61935 0.42373 0.96152 0.0
C88 C 0.59481 0.49454 0.98154 0.0
H89 H 0.63297 0.41692 0.98619 0.0
C90 C 0.54934 0.51837 0.98082 0.0
C91 C 0.55282 0.55931 0.00769 0.0
C92 C 0.64337 0.5025 0.00731 0.0
H93 H 0.67897 0.48493 0.00756 0.0
C94 C 0.64822 0.53177 0.03365 0.0
H95 H 0.51305 0.50677 0.96079 0.0
C96 C 0.60788 0.55868 0.03543 0.0
H97 H 0.5738 0.56283 0.02064 0.0
H98 H 0.68582 0.53467 0.05366 0.0
H99 H 0.52996 0.57312 0.1017 0.0
C100 C 0.49812 0.54695 0.09165 0.0
C101 C 0.48549 0.51948 0.1124 0.0
C102 C 0.47159 0.53906 0.05825 0.0
H103 H 0.43448 0.46464 0.11621 0.0
C104 C 0.44497 0.48487 0.09984 0.0
C105 C 0.41829 0.47586 0.06676 0.0
C106 C 0.43148 0.50344 0.0462 0.0
C107 C 0.48806 0.56517 0.0353 0.0
H108 H 0.41159 0.49597 0.02067 0.0
C109 C 0.54114 0.6096 0.04906 0.0
C110 C 0.56916 0.63335 0.0205 0.0
C111 C 0.4572 0.54791 0.99247 0.0
H112 H 0.46351 0.55865 0.97329 0.0
C113 C 0.48269 0.57602 0.9631 0.0
H114 H 0.56053 0.61955 0.07437 0.0
C115 C 0.54016 0.6159 0.97803 0.0
H116 H 0.55784 0.62988 0.9612 0.0
H117 H 0.46877 0.57133 0.93489 0.0
C118 C 0.19446 0.12333 0.99508 0.0
C119 C 0.15906 0.11072 0.01264 0.0
C120 C 0.20268 0.16628 0.99088 0.0
C121 C 0.21225 0.2662 0.04053 0.0
H122 H 0.25953 0.31539 0.97399 0.0
C123 C 0.38916 0.39888 0.06875 0.0
C124 C 0.37882 0.43645 0.05409 0.0
C125 C 0.35125 0.3626 0.05872 0.0
C126 C 0.24576 0.30227 0.9926 0.0
H127 H 0.10098 0.13204 0.03729 0.0
H128 H 0.11461 0.20721 0.02967 0.0
H129 H 0.20522 0.24526 0.96157 0.0
H130 H 0.32085 0.46412 0.01613 0.0
H131 H 0.25533 0.39954 -0.00224 0.0
H132 H 0.25545 0.32179 0.072 0.0
C133 C 0.1361 0.184 0.01911 0.0
C134 C 0.21486 0.26215 0.98555 0.0
C135 C 0.12759 0.14089 0.02307 0.0
C136 C 0.33039 0.43586 0.02798 0.0
C137 C 0.29271 0.39901 0.01752 0.0
C138 C 0.24367 0.3058 0.04763 0.0
C139 C 0.17631 0.19748 0.0047 0.0
C140 C 0.19889 0.2432 0.00968 0.0
C141 C 0.30239 0.36237 0.03328 0.0
C142 C 0.26201 0.32372 0.02401 0.0
H143 H 0.22005 0.10072 0.98744 0.0
H144 H 0.23413 0.17545 0.97982 0.0
H145 H 0.20152 0.25241 0.05985 0.0
H146 H 0.42674 0.39735 0.08814 0.0
H147 H 0.3603 0.33446 0.07084 0.0
C148 C 0.24723 0.90492 0.00887 0.0
C149 C 0.19481 0.90157 0.01387 0.0
C150 C 0.27478 0.86874 0.00546 0.0
C151 C 0.26194 0.75041 0.99165 0.0
H152 H 0.41942 0.76874 0.03758 0.0
C153 C 0.41547 0.61659 0.00908 0.0
C154 C 0.47257 0.62199 0.00465 0.0
C155 C 0.37807 0.64763 0.00917 0.0
C156 C 0.3756 0.76311 0.02446 0.0
H157 H 0.12855 0.85742 0.0175 0.0
H158 H 0.17769 0.79339 0.0122 0.0
H159 H 0.36102 0.82663 0.03913 0.0
H160 H 0.51244 0.68344 0.99256 0.0
H161 H 0.45103 0.73067 0.99418 0.0
H162 H 0.2773 0.68632 0.97734 0.0
C163 C 0.19713 0.82426 0.01062 0.0
C164 C 0.34203 0.79637 0.02524 0.0
C165 C 0.16897 0.86081 0.01363 0.0
C166 C 0.47764 0.66787 -0.00179 0.0
C167 C 0.44041 0.69861 -0.00121 0.0
C168 C 0.29573 0.71681 0.99106 0.0
C169 C 0.25121 0.82808 0.00754 0.0
C170 C 0.28503 0.79089 0.00825 0.0
C171 C 0.39067 0.68917 0.00476 0.0
C172 C 0.35318 0.72317 0.00694 0.0
H173 H 0.26773 0.93589 0.00839 0.0
H174 H 0.31545 0.87283 0.00199 0.0
H175 H 0.21823 0.74508 0.97834 0.0
H176 H 0.39633 0.58722 0.01362 0.0
H177 H 0.33905 0.63889 0.01367 0.0
C178 C 0.93145 0.90945 0.03924 0.0
C179 C 0.96311 0.89736 0.01879 0.0
C180 C 0.90312 0.8784 0.0509 0.0
C181 C 0.83412 0.77379 0.01643 0.0
H182 H 0.78392 0.77447 0.09208 0.0
C183 C 0.66423 0.64833 0.01742 0.0
C184 C 0.62236 0.66058 0.0306 0.0
C185 C 0.71314 0.67473 0.02328 0.0
C186 C 0.79724 0.77406 0.07071 0.0
H187 H 0.99526 0.84406 -0.00256 0.0
H188 H 0.94763 0.78981 0.01863 0.0
H189 H 0.86257 0.82455 0.09246 0.0
H190 H 0.59893 0.70938 0.06108 0.0
H191 H 0.68413 0.75746 0.07018 0.0
H192 H 0.76786 0.72572 0.99377 0.0
C193 C 0.94382 0.82317 0.02535 0.0
C194 C 0.84257 0.8025 0.07104 0.0
C195 C 0.97195 0.85423 0.01365 0.0
C196 C 0.63094 0.69933 0.05077 0.0
C197 C 0.67978 0.72664 0.05601 0.0
C198 C 0.78883 0.74602 0.01595 0.0
C199 C 0.90583 0.83477 0.04201 0.0
C200 C 0.86165 0.80247 0.04387 0.0
C201 C 0.7209 0.71506 0.04155 0.0
C202 C 0.76975 0.74539 0.04306 0.0
H203 H 0.92307 0.9425 0.04296 0.0
H204 H 0.87434 0.88849 0.06369 0.0
H205 H 0.84618 0.77388 0.99465 0.0
H206 H 0.65891 0.6183 0.00209 0.0
H207 H 0.74439 0.66378 0.01268 0.0
C208 C 0.89689 0.09466 0.00455 0.0
C209 C 0.94765 0.09368 -0.00238 0.0
C210 C 0.86995 0.13197 0.00323 0.0
C211 C 0.84793 0.22006 0.95731 0.0
H212 H 0.77876 0.26742 0.01974 0.0
C213 C 0.66245 0.32352 0.9266 0.0
C214 C 0.66912 0.36249 0.94651 0.0
C215 C 0.70039 0.293 0.93464 0.0
C216 C 0.79805 0.25457 0.00218 0.0
H217 H 0.01083 0.13048 0.9844 0.0
H218 H 0.96294 0.19603 0.98143 0.0
H219 H 0.8423 0.21186 0.03332 0.0
H220 H 0.72224 0.39993 0.99027 0.0
H221 H 0.78633 0.34586 0.00479 0.0
H222 H 0.80207 0.26156 0.92572 0.0
C223 C 0.94467 0.16812 0.98847 0.0
C224 C 0.83429 0.22292 0.00994 0.0
C225 C 0.97225 0.13093 0.99048 0.0
C226 C 0.7145 0.36989 0.97475 0.0
C227 C 0.75169 0.33911 0.98302 0.0
C228 C 0.8109 0.25111 0.94933 0.0
C229 C 0.8927 0.16858 0.99416 0.0
C230 C 0.85926 0.20524 0.98749 0.0
C231 C 0.74522 0.30056 0.96296 0.0
C232 C 0.78534 0.26837 0.97162 0.0
H233 H 0.87708 0.06605 0.00981 0.0
H234 H 0.82972 0.13142 0.00743 0.0
H235 H 0.86618 0.2065 0.93946 0.0
H236 H 0.62784 0.31646 0.90487 0.0
H237 H 0.69434 0.26324 0.91892 0.0
C238 C 0.72808 0.61946 0.5085 0.0
C239 C 0.68377 0.60746 0.52003 0.0
C240 C 0.73769 0.66159 0.50291 0.0
C241 C 0.74793 0.75508 0.49084 0.0
H242 H 0.75985 0.82447 0.57113 0.0
C243 C 0.84827 0.93254 0.52622 0.0
C244 C 0.8892 0.93934 0.5564 0.0
C245 C 0.81396 0.89399 0.51629 0.0
C246 C 0.75626 0.80565 0.54843 0.0
H247 H 0.61237 0.62894 0.53268 0.0
H248 H 0.62922 0.70304 0.52312 0.0
H249 H 0.70999 0.75335 0.55934 0.0
H250 H 0.92728 0.9095 0.59899 0.0
H251 H 0.86631 0.8435 0.58219 0.0
H252 H 0.79621 0.80723 0.48065 0.0
C253 C 0.65628 0.67976 0.51809 0.0
C254 C 0.72715 0.76509 0.54148 0.0
C255 C 0.64616 0.63727 0.52316 0.0
C256 C 0.89532 0.90623 0.57605 0.0
C257 C 0.86052 0.86819 0.56638 0.0
C258 C 0.7764 0.79607 0.4976 0.0
C259 C 0.7038 0.69276 0.50948 0.0
C260 C 0.72407 0.73877 0.51307 0.0
C261 C 0.81924 0.86173 0.53654 0.0
C262 C 0.78237 0.82114 0.52696 0.0
H263 H 0.75809 0.5971 0.50642 0.0
H264 H 0.7748 0.67051 0.4965 0.0
H265 H 0.74627 0.73553 0.46876 0.0
H266 H 0.84182 0.9573 0.51051 0.0
H267 H 0.78244 0.88978 0.49314 0.0
C268 C 0.72113 0.37554 0.54858 0.0
C269 C 0.68941 0.39561 0.52315 0.0
C270 C 0.74563 0.33845 0.54252 0.0
C271 C 0.80783 0.28789 0.48598 0.0
H272 H 0.80491 0.18952 0.53189 0.0
C273 C 0.94555 0.14943 0.47657 0.0
C274 C 0.97476 0.12583 0.50407 0.0
C275 C 0.905 0.17809 0.4756 0.0
C276 C 0.80682 0.21691 0.51913 0.0
H277 H 0.65737 0.39223 0.47141 0.0
H278 H 0.70203 0.32755 0.46068 0.0
H279 H 0.74384 0.24529 0.53594 0.0
H280 H 0.96034 0.13132 0.55396 0.0
H281 H 0.89823 0.17873 0.55067 0.0
H282 H 0.87295 0.26111 0.4706 0.0
C283 C 0.70704 0.34041 0.48531 0.0
C284 C 0.77134 0.24864 0.52123 0.0
C285 C 0.68124 0.37712 0.49142 0.0
C286 C 0.94986 0.14124 0.53016 0.0
C287 C 0.91007 0.17041 0.52911 0.0
C288 C 0.84404 0.25647 0.48426 0.0
C289 C 0.74004 0.32107 0.51086 0.0
C290 C 0.77209 0.28478 0.50511 0.0
C291 C 0.88673 0.18915 0.50184 0.0
C292 C 0.84484 0.22088 0.50132 0.0
H293 H 0.72809 0.38917 0.57326 0.0
H294 H 0.77113 0.32445 0.56266 0.0
H295 H 0.80974 0.31568 0.4736 0.0
H296 H 0.95288 0.14703 0.45332 0.0
H297 H 0.88757 0.19157 0.45346 0.0
C298 C 0.46852 0.36359 0.50843 0.0
C299 C 0.46174 0.407 0.51437 0.0
C300 C 0.43919 0.3329 0.51973 0.0
C301 C 0.33988 0.31258 0.56631 0.0
H302 H 0.26064 0.23877 0.48825 0.0
C303 C 0.13027 0.20686 0.54804 0.0
C304 C 0.12197 0.16857 0.52737 0.0
C305 C 0.17806 0.2352 0.55279 0.0
C306 C 0.28286 0.25829 0.5106 0.0
H307 H 0.42358 0.45292 0.53914 0.0
H308 H 0.37256 0.39939 0.55916 0.0
H309 H 0.33858 0.28709 0.48865 0.0
H310 H 0.15833 0.12806 0.49759 0.0
H311 H 0.24187 0.17528 0.50722 0.0
H312 H 0.28307 0.28338 0.58809 0.0
C313 C 0.40081 0.38888 0.54613 0.0
C314 C 0.32785 0.28613 0.51079 0.0
C315 C 0.43033 0.41958 0.53484 0.0
C316 C 0.16323 0.15777 0.51323 0.0
C317 C 0.21107 0.18514 0.51857 0.0
C318 C 0.29485 0.28401 0.56627 0.0
C319 C 0.40198 0.34517 0.53675 0.0
C320 C 0.35717 0.31353 0.53858 0.0
C321 C 0.21836 0.22505 0.53732 0.0
C322 C 0.26596 0.25628 0.53836 0.0
H323 H 0.49161 0.35312 0.49217 0.0
H324 H 0.44161 0.29942 0.51256 0.0
H325 H 0.36128 0.33375 0.58799 0.0
H326 H 0.09887 0.21572 0.55923 0.0
H327 H 0.18225 0.26563 0.56743 0.0
C328 C 0.42134 0.60806 0.51307 0.0
C329 C 0.46603 0.6054 0.50029 0.0
C330 C 0.39247 0.64446 0.51128 0.0
C331 C 0.35137 0.72362 0.45732 0.0
H332 H 0.29471 0.7775 0.52338 0.0
C333 C 0.16321 0.82435 0.4293 0.0
C334 C 0.17049 0.86426 0.44813 0.0
C335 C 0.20211 0.79451 0.43744 0.0
C336 C 0.31041 0.76283 0.50475 0.0
H337 H 0.51723 0.63849 0.47659 0.0
H338 H 0.46621 0.70246 0.47308 0.0
H339 H 0.36296 0.72527 0.5369 0.0
H340 H 0.22539 0.90397 0.49014 0.0
H341 H 0.2916 0.85141 0.50473 0.0
H342 H 0.29791 0.76037 0.42499 0.0
C343 C 0.45391 0.6766 0.48479 0.0
C344 C 0.34933 0.73298 0.51248 0.0
C345 C 0.48338 0.64037 0.48708 0.0
C346 C 0.21729 0.87321 0.47551 0.0
C347 C 0.25564 0.84322 0.48382 0.0
C348 C 0.31189 0.75299 0.44949 0.0
C349 C 0.40714 0.67839 0.49601 0.0
C350 C 0.37002 0.71297 0.4888 0.0
C351 C 0.24877 0.80375 0.46473 0.0
C352 C 0.29079 0.7727 0.47309 0.0
H353 H 0.40685 0.58099 0.52284 0.0
H354 H 0.35635 0.6448 0.51986 0.0
H355 H 0.36603 0.70822 0.43849 0.0
H356 H 0.12752 0.81617 0.40826 0.0
H357 H 0.19556 0.76406 0.42248 0.0
C358 C 0.0445 0.96556 0.11435 0.0
C359 C 0.084 -0.00122 0.1142 0.0
C360 C 0.03135 0.95959 0.14267 0.0
C361 C 0.03741 0.01335 0.22246 0.0
H362 H 0.05786 0.90172 0.25108 0.0
C363 C 0.08286 -0.01167 0.35557 0.0
C364 C 0.06631 0.94879 0.36363 0.0
C365 C 0.07394 -0.00536 0.32341 0.0
C366 C 0.05064 0.93287 0.24331 0.0
H367 H 0.13891 0.05281 0.14309 0.0
H368 H 0.11527 0.04291 0.19215 0.0
H369 H 0.06019 0.91241 0.19722 0.0
H370 H 0.025 0.88557 0.34445 0.0
H371 H 0.00759 0.8969 0.28823 0.0
H372 H 0.02807 0.03406 0.26842 0.0
C373 C 0.09465 0.02135 0.17055 0.0
C374 C 0.05214 0.93896 0.21238 0.0
C375 C 0.10847 0.02682 0.14251 0.0
C376 C 0.03854 0.91627 0.33887 0.0
C377 C 0.02896 0.92273 0.30668 0.0
C378 C 0.03517 0.00717 0.25322 0.0
C379 C 0.05668 -0.0127 0.17111 0.0
C380 C 0.04693 0.97949 0.20195 0.0
C381 C 0.04766 0.96168 0.29849 0.0
C382 C 0.04322 0.96711 0.26441 0.0
H383 H 0.02548 0.94327 0.09296 0.0
H384 H 1.0019 0.93309 0.14246 0.0
H385 H 0.03267 0.04485 0.21487 0.0
H386 H 0.10511 0.01376 0.37416 0.0
H387 H 0.08988 0.02481 0.31825 0.0
C388 C 0.08238 0.03367 0.90303 0.0
C389 C 0.05868 -0.00647 0.90618 0.0
C390 C 0.08429 0.04339 0.87275 0.0
C391 C 1.00243 0.01135 0.78899 0.0
H392 H 0.11606 0.07784 0.76604 0.0
C393 C 0.95484 0.05811 0.66289 0.0
C394 C 0.99431 0.04872 0.64701 0.0
C395 C 0.96881 0.06037 0.69629 0.0
C396 C 0.08398 0.05927 0.77215 0.0
H397 H 0.02402 0.9308 0.88125 0.0
H398 H 0.02901 0.94711 0.82904 0.0
H399 H 0.13357 0.06054 0.82136 0.0
H400 H 0.07998 0.0368 0.65329 0.0
H401 H 0.10451 0.03995 0.71188 0.0
H402 H 0.95316 0.0089 0.74023 0.0
C403 C 0.04439 0.97162 0.84945 0.0
C404 C 0.09393 0.04955 0.80381 0.0
C405 C 0.04194 0.96214 0.8794 0.0
C406 C 0.04908 0.04458 0.66517 0.0
C407 C 0.06302 0.04637 0.69868 0.0
C408 C 0.99246 0.02113 0.75766 0.0
C409 C 0.06284 0.01296 0.84541 0.0
C410 C 0.05343 0.02491 0.81239 0.0
C411 C 0.02232 0.05243 0.71446 0.0
C412 C 0.03305 0.04503 0.74869 0.0
H413 H 0.09526 0.05852 0.92331 0.0
H414 H 0.0989 0.0755 0.87041 0.0
H415 H 0.96987 -0.00698 0.79488 0.0
H416 H 0.91232 0.06135 0.64929 0.0
H417 H 0.9368 0.06613 0.70772 0.0
C418 C 0.53808 0.46789 0.61445 0.0
C419 C 0.5753 0.50291 0.61472 0.0
C420 C 0.52306 0.46153 0.64219 0.0
C421 C 0.52343 0.51452 0.72176 0.0
H422 H 0.55358 0.40411 0.75071 0.0
C423 C 0.57705 0.48912 0.85536 0.0
C424 C 0.56332 0.44895 0.86356 0.0
C425 C 0.56616 0.49575 0.82311 0.0
C426 C 0.54368 0.43486 0.74286 0.0
H427 H 0.62332 0.56001 0.64331 0.0
H428 H 0.59649 0.54945 0.69124 0.0
H429 H 0.55341 0.41572 0.69665 0.0
H430 H 0.52469 0.38491 0.84455 0.0
H431 H 0.50421 0.39667 0.7883 0.0
H432 H 0.51449 0.53398 0.76806 0.0
C433 C 0.579 0.52675 0.66988 0.0
C434 C 0.54363 0.44147 0.71177 0.0
C435 C 0.59466 0.53266 0.64248 0.0
C436 C 0.53626 0.4161 0.83889 0.0
C437 C 0.52483 0.42281 0.80666 0.0
C438 C 0.52293 0.50781 0.75275 0.0
C439 C 0.54424 0.49058 0.67037 0.0
C440 C 0.53495 0.48169 0.70118 0.0
C441 C 0.54079 0.46244 0.79828 0.0
C442 C 0.53452 0.46821 0.76405 0.0
H443 H 0.52306 0.44427 0.59347 0.0
H444 H 0.49605 0.43342 0.64187 0.0
H445 H 0.51603 0.54575 0.71412 0.0
H446 H 0.59858 0.51488 0.87385 0.0
H447 H 0.57989 0.5265 0.81774 0.0
C448 C 0.59066 0.4681 0.39243 0.0
C449 C 0.58177 0.50314 0.41195 0.0
C450 C 0.59658 0.47312 0.36223 0.0
C451 C 0.60651 0.55322 0.30575 0.0
H452 H 0.52278 0.46018 0.24241 0.0
C453 C 0.51535 0.56158 0.16753 0.0
C454 C 0.51593 0.52439 0.14721 0.0
C455 C 0.53508 0.56226 0.20104 0.0
C456 C 0.54706 0.48623 0.25975 0.0
H457 H 0.5741 0.57109 0.4162 0.0
H458 H 0.58283 0.57995 0.36305 0.0
H459 H 0.53767 0.45475 0.29886 0.0
H460 H 0.54173 0.46031 0.1456 0.0
H461 H 0.57665 0.46163 0.20369 0.0
H462 H 0.61342 0.58524 0.26581 0.0
C463 C 0.58695 0.54875 0.37118 0.0
C464 C 0.55594 0.48304 0.29231 0.0
C465 C 0.58205 0.54378 0.40169 0.0
C466 C 0.54018 0.48919 0.16079 0.0
C467 C 0.55992 0.48989 0.19403 0.0
C468 C 0.59712 0.55656 0.27293 0.0
C469 C 0.59193 0.51309 0.35049 0.0
C470 C 0.58589 0.51637 0.31588 0.0
C471 C 0.55567 0.52576 0.21459 0.0
C472 C 0.56739 0.52296 0.24959 0.0
H473 H 0.59 0.4364 0.39981 0.0
H474 H 0.60199 0.44512 0.34744 0.0
H475 H 0.62995 0.57948 0.32315 0.0
H476 H 0.4967 0.58906 0.15759 0.0
H477 H 0.5312 0.59035 0.21626 0.0
loop_
_geom_bond_atom_site_label_1
_geom_bond_atom_site_label_2
_geom_bond_distance
_geom_bond_site_symmetry_2
_ccdc_geom_bond_type
O0 Mn1 2.163 . S
O0 C14 1.244 1_454 S
Mn1 O0 2.163 . S
Mn1 O4 2.160 1_545 S
Mn1 O5 2.221 . S
Mn1 O7 2.158 1_545 S
Mn1 O9 2.160 1_554 S
Mn1 O19 2.221 1_444 S
O2 Mn3 2.087 1_545 S
O2 C14 1.256 . S
Mn3 O2 2.087 1_565 S
Mn3 O10 2.089 1_565 S
Mn3 O19 2.290 . S
Mn3 O20 2.251 . S
O4 Mn1 2.160 1_565 S
O4 C15 1.239 . S
O5 Mn1 2.221 . S
O5 Mn6 2.290 . S
O5 C16 1.278 . S
Mn6 O5 2.290 . S
Mn6 O8 2.089 1_545 S
Mn6 O11 2.251 . S
Mn6 O12 2.087 . S
O7 Mn1 2.158 1_565 S
O7 C17 1.243 1_565 S
O8 Mn6 2.089 1_565 S
O8 C15 1.256 . S
O9 Mn1 2.160 1_556 S
O9 C18 1.239 . S
O10 Mn3 2.089 1_545 S
O10 C18 1.256 1_655 S
O11 Mn6 2.251 . S
O11 C16 1.241 . S
O12 Mn6 2.087 . S
O12 C17 1.256 . S
C13 O19 1.268 1_554 S
C13 O20 1.239 1_554 S
C14 O0 1.244 1_656 S
C14 O2 1.256 . S
C15 O4 1.239 . S
C15 O8 1.256 . S
C16 O5 1.278 . S
C16 O11 1.241 . S
C17 O7 1.243 1_545 S
C17 O12 1.256 . S
C18 O9 1.239 . S
C18 O10 1.256 1_455 S
O19 Mn1 2.221 1_666 S
O19 Mn3 2.290 . S
O19 C13 1.268 1_556 S
O20 Mn3 2.251 . S
O20 C13 1.239 1_556 S
O21 Mn22 2.163 . S
O21 C35 1.244 . S
Mn22 O21 2.163 . S
Mn22 O25 2.160 . S
Mn22 O26 2.221 . S
Mn22 O28 2.163 . S
Mn22 O30 2.160 . S
Mn22 O40 2.221 . S
O23 Mn24 2.087 . S
O23 C35 1.256 . S
Mn24 O23 2.087 . S
Mn24 O31 2.089 . S
Mn24 O40 2.290 . S
Mn24 O41 2.251 . S
O25 Mn22 2.160 . S
O25 C36 1.239 . S
O26 Mn22 2.221 . S
O26 Mn27 2.290 . S
O26 C37 1.278 . S
Mn27 O26 2.290 . S
Mn27 O29 2.089 . S
Mn27 O32 2.251 . S
Mn27 O33 2.087 . S
O28 Mn22 2.163 . S
O28 C38 1.244 . S
O29 Mn27 2.089 . S
O29 C36 1.256 . S
O30 Mn22 2.160 . S
O30 C39 1.239 . S
O31 Mn24 2.089 . S
O31 C39 1.256 . S
O32 Mn27 2.251 . S
O32 C37 1.241 . S
O33 Mn27 2.087 . S
O33 C38 1.256 . S
C34 O40 1.278 . S
C34 O41 1.241 . S
C35 O21 1.244 . S
C35 O23 1.256 . S
C36 O25 1.239 . S
C36 O29 1.256 . S
C37 O26 1.278 . S
C37 O32 1.241 . S
C38 O28 1.244 . S
C38 O33 1.256 . S
C39 O30 1.239 . S
C39 O31 1.256 . S
O40 Mn22 2.221 . S
O40 Mn24 2.290 . S
O40 C34 1.278 . S
O41 Mn24 2.251 . S
O41 C34 1.241 . S
H42 C43 0.949 . S
C43 H42 0.949 . S
C43 C44 1.395 1_545 S
C43 C45 1.391 . S
C44 C43 1.395 1_565 S
C44 C47 1.390 . S
C45 C43 1.391 . S
C45 C49 1.387 1_545 S
C45 C50 1.491 . S
H46 C47 0.950 . S
C47 C44 1.390 . S
C47 H46 0.950 . S
C47 C48 1.378 . S
C48 C47 1.378 . S
C48 C49 1.409 . S
C49 C45 1.387 1_565 S
C49 C48 1.409 . S
C49 H51 0.951 . S
C50 C45 1.491 . S
C50 C52 1.382 . S
C50 C54 1.404 . S
H51 C49 0.951 . S
C52 C50 1.382 . S
C52 C53 1.390 . S
C52 H57 0.942 1_455 S
C53 C52 1.390 . S
C53 C58 1.399 . S
C54 C50 1.404 . S
C54 H55 0.950 . S
C54 C56 1.375 . S
H55 C54 0.950 . S
C56 C54 1.375 . S
C56 C58 1.382 . S
C56 H60 0.950 . S
H57 C52 0.942 1_655 S
C58 C53 1.399 . S
C58 C56 1.382 . S
C58 H59 0.952 . S
H59 C58 0.952 . S
H60 C56 0.950 . S
H61 C62 0.950 . S
C62 H61 0.950 . S
C62 C63 1.394 1_455 S
C62 C64 1.391 1_455 S
C63 C62 1.394 1_655 S
C63 C66 1.390 . S
C64 C62 1.391 1_655 S
C64 C68 1.387 . S
C64 C69 1.491 1_655 S
H65 C66 0.950 1_565 S
C66 C63 1.390 . S
C66 H65 0.950 1_545 S
C66 C67 1.378 1_545 S
C67 C66 1.378 1_565 S
C67 C68 1.409 1_565 S
C68 C64 1.387 . S
C68 C67 1.409 1_545 S
C68 H70 0.951 . S
C69 C64 1.491 1_455 S
C69 C71 1.382 . S
C69 C73 1.404 1_455 S
H70 C68 0.951 . S
C71 C69 1.382 . S
C71 C72 1.390 . S
C71 H76 0.949 . S
C72 C71 1.390 . S
C72 C77 1.399 . S
C73 C69 1.404 1_655 S
C73 H74 0.950 . S
C73 C75 1.375 . S
H74 C73 0.950 . S
C75 C73 1.375 . S
C75 C77 1.382 1_655 S
C75 H79 0.950 . S
H76 C71 0.949 . S
C77 C72 1.399 . S
C77 C75 1.382 1_455 S
C77 H78 0.952 . S
H78 C77 0.952 . S
H79 C75 0.950 . S
H80 C81 0.949 . S
C81 H80 0.949 . S
C81 C82 1.395 . S
C81 C83 1.391 . S
C82 C81 1.395 . S
C82 C85 1.390 . S
C83 C81 1.391 . S
C83 C87 1.387 . S
C83 C88 1.491 . S
H84 C85 0.950 . S
C85 C82 1.390 . S
C85 H84 0.950 . S
C85 C86 1.378 . S
C86 C85 1.378 . S
C86 C87 1.409 . S
C87 C83 1.387 . S
C87 C86 1.409 . S
C87 H89 0.951 1_556 S
C88 C83 1.491 . S
C88 C90 1.382 . S
C88 C92 1.404 1_556 S
H89 C87 0.951 1_554 S
C90 C88 1.382 . S
C90 C91 1.390 1_556 S
C90 H95 0.949 . S
C91 C90 1.390 1_554 S
C91 C96 1.399 . S
C92 C88 1.404 1_554 S
C92 H93 0.950 . S
C92 C94 1.375 . S
H93 C92 0.950 . S
C94 C92 1.375 . S
C94 C96 1.382 . S
C94 H98 0.950 . S
H95 C90 0.949 . S
C96 C91 1.399 . S
C96 C94 1.382 . S
C96 H97 0.952 . S
H97 C96 0.952 . S
H98 C94 0.950 . S
H99 C100 0.949 . S
C100 H99 0.949 . S
C100 C101 1.395 . S
C100 C102 1.391 . S
C101 C100 1.395 . S
C101 C104 1.390 . S
C102 C100 1.391 . S
C102 C106 1.387 . S
C102 C107 1.491 . S
H103 C104 0.950 . S
C104 C101 1.390 . S
C104 H103 0.950 . S
C104 C105 1.378 . S
C105 C104 1.378 . S
C105 C106 1.409 . S
C106 C102 1.387 . S
C106 C105 1.409 . S
C106 H108 0.951 . S
C107 C102 1.491 . S
C107 C109 1.382 . S
C107 C111 1.404 . S
H108 C106 0.951 . S
C109 C107 1.382 . S
C109 C110 1.390 . S
C109 H114 0.949 . S
C110 C109 1.390 . S
C110 C115 1.399 1_554 S
C111 C107 1.404 . S
C111 H112 0.950 1_554 S
C111 C113 1.375 1_554 S
H112 C111 0.950 1_556 S
C113 C111 1.375 1_556 S
C113 C115 1.382 . S
C113 H117 0.950 . S
H114 C109 0.949 . S
C115 C110 1.399 1_556 S
C115 C113 1.382 . S
C115 H116 0.952 . S
H116 C115 0.952 . S
H117 C113 0.950 . S
C118 C119 1.326 1_556 S
C118 C120 1.332 1_556 S
C118 H143 0.968 . S
C119 C118 1.326 1_554 S
C119 C135 1.349 . S
C120 C118 1.332 1_554 S
C120 C139 1.429 . S
C120 H144 0.950 1_554 S
C121 C138 1.574 . S
C121 C140 1.368 . S
C121 H145 0.949 . S
H122 C126 0.949 1_556 S
C123 C124 1.349 . S
C123 C125 1.327 . S
C123 H146 0.950 . S
C124 C123 1.349 . S
C124 C136 1.349 . S
C125 C123 1.327 . S
C125 C141 1.429 . S
C125 H147 0.950 . S
C126 H122 0.949 1_554 S
C126 C134 1.574 . S
C126 C142 1.368 . S
H127 C135 0.950 . S
H128 C133 0.950 . S
H129 C134 0.949 1_556 S
H130 C136 0.950 . S
H131 C137 0.950 1_556 S
H132 C138 0.949 . S
C133 H128 0.950 . S
C133 C135 1.327 . S
C133 C139 1.429 . S
C134 C126 1.574 . S
C134 H129 0.949 1_554 S
C134 C140 1.368 . S
C135 C119 1.349 . S
C135 H127 0.950 . S
C135 C133 1.327 . S
C136 C124 1.349 . S
C136 H130 0.950 . S
C136 C137 1.327 . S
C137 H131 0.950 1_554 S
C137 C136 1.327 . S
C137 C141 1.429 . S
C138 C121 1.574 . S
C138 H132 0.949 . S
C138 C142 1.368 . S
C139 C120 1.429 . S
C139 C133 1.429 . S
C139 C140 1.523 . S
C140 C121 1.368 . S
C140 C134 1.368 . S
C140 C139 1.523 . S
C141 C125 1.429 . S
C141 C137 1.429 . S
C141 C142 1.523 . S
C142 C126 1.368 . S
C142 C138 1.368 . S
C142 C141 1.523 . S
H143 C118 0.968 . S
H144 C120 0.950 1_556 S
H145 C121 0.949 . S
H146 C123 0.950 . S
H147 C125 0.950 . S
C148 C149 1.349 . S
C148 C150 1.327 . S
C148 H173 0.950 . S
C149 C148 1.349 . S
C149 C165 1.349 . S
C150 C148 1.327 . S
C150 C169 1.429 . S
C150 H174 0.950 . S
C151 C168 1.574 . S
C151 C170 1.368 . S
C151 H175 0.949 . S
H152 C156 0.946 1_556 S
C153 C154 1.364 . S
C153 C155 1.327 . S
C153 H176 0.950 . S
C154 C153 1.364 . S
C154 C166 1.339 1_554 S
C155 C153 1.327 . S
C155 C171 1.429 . S
C155 H177 0.950 . S
C156 H152 0.946 1_554 S
C156 C164 1.574 . S
C156 C172 1.368 . S
H157 C165 0.950 . S
H158 C163 0.950 . S
H159 C164 0.949 . S
H160 C166 0.950 . S
H161 C167 0.957 . S
H162 C168 0.949 . S
C163 H158 0.950 . S
C163 C165 1.327 . S
C163 C169 1.429 . S
C164 C156 1.574 . S
C164 H159 0.949 . S
C164 C170 1.368 . S
C165 C149 1.349 . S
C165 H157 0.950 . S
C165 C163 1.327 . S
C166 C154 1.339 1_556 S
C166 H160 0.950 . S
C166 C167 1.330 . S
C167 H161 0.957 . S
C167 C166 1.330 . S
C167 C171 1.419 1_556 S
C168 C151 1.574 . S
C168 H162 0.949 . S
C168 C172 1.368 . S
C169 C150 1.429 . S
C169 C163 1.429 . S
C169 C170 1.523 . S
C170 C151 1.368 . S
C170 C164 1.368 . S
C170 C169 1.523 . S
C171 C155 1.429 . S
C171 C167 1.419 1_554 S
C171 C172 1.523 . S
C172 C156 1.368 . S
C172 C168 1.368 . S
C172 C171 1.523 . S
H173 C148 0.950 . S
H174 C150 0.950 . S
H175 C151 0.949 . S
H176 C153 0.950 . S
H177 C155 0.950 . S
C178 C179 1.349 . S
C178 C180 1.327 . S
C178 H203 0.950 . S
C179 C178 1.349 . S
C179 C195 1.349 1_554 S
C180 C178 1.327 . S
C180 C199 1.429 . S
C180 H204 0.950 . S
C181 C198 1.574 . S
C181 C200 1.368 1_556 S
C181 H205 0.949 . S
H182 C186 0.949 . S
C183 C184 1.349 . S
C183 C185 1.314 1_554 S
C183 H206 0.950 1_554 S
C184 C183 1.349 . S
C184 C196 1.349 . S
C185 C183 1.314 1_556 S
C185 C201 1.409 1_556 S
C185 H207 0.984 . S
C186 H182 0.949 . S
C186 C194 1.574 . S
C186 C202 1.368 . S
H187 C195 0.950 . S
H188 C193 0.950 . S
H189 C194 0.949 . S
H190 C196 0.950 . S
H191 C197 0.950 . S
H192 C198 0.949 . S
C193 H188 0.950 . S
C193 C195 1.327 . S
C193 C199 1.429 1_556 S
C194 C186 1.574 . S
C194 H189 0.949 . S
C194 C200 1.368 . S
C195 C179 1.349 1_556 S
C195 H187 0.950 . S
C195 C193 1.327 . S
C196 C184 1.349 . S
C196 H190 0.950 . S
C196 C197 1.327 . S
C197 H191 0.950 . S
C197 C196 1.327 . S
C197 C201 1.429 . S
C198 C181 1.574 . S
C198 H192 0.949 . S
C198 C202 1.368 1_556 S
C199 C180 1.429 . S
C199 C193 1.429 1_554 S
C199 C200 1.523 . S
C200 C181 1.368 1_554 S
C200 C194 1.368 . S
C200 C199 1.523 . S
C201 C185 1.409 1_554 S
C201 C197 1.429 . S
C201 C202 1.523 . S
C202 C186 1.368 . S
C202 C198 1.368 1_554 S
C202 C201 1.523 . S
H203 C178 0.950 . S
H204 C180 0.950 . S
H205 C181 0.949 . S
H206 C183 0.950 1_556 S
H207 C185 0.984 . S
C208 C209 1.349 1_554 S
C208 C210 1.327 . S
C208 H233 0.950 . S
C209 C208 1.349 1_556 S
C209 C225 1.349 . S
C210 C208 1.327 . S
C210 C229 1.429 1_554 S
C210 H234 0.950 . S
C211 C228 1.574 . S
C211 C230 1.368 . S
C211 H235 0.949 . S
H212 C216 0.949 . S
C213 C214 1.349 . S
C213 C215 1.327 . S
C213 H236 0.950 . S
C214 C213 1.349 . S
C214 C226 1.373 . S
C215 C213 1.327 . S
C215 C231 1.429 . S
C215 H237 0.950 . S
C216 H212 0.949 . S
C216 C224 1.574 . S
C216 C232 1.368 1_554 S
H217 C225 0.950 . S
H218 C223 0.950 . S
H219 C224 0.949 . S
H220 C226 0.928 1_554 S
H221 C227 0.950 . S
H222 C228 0.949 . S
C223 H218 0.950 . S
C223 C225 1.327 . S
C223 C229 1.429 . S
C224 C216 1.574 . S
C224 H219 0.949 . S
C224 C230 1.368 1_554 S
C225 C209 1.349 . S
C225 H217 0.950 . S
C225 C223 1.327 . S
C226 C214 1.373 . S
C226 H220 0.928 1_556 S
C226 C227 1.326 1_556 S
C227 H221 0.950 . S
C227 C226 1.326 1_554 S
C227 C231 1.429 1_554 S
C228 C211 1.574 . S
C228 H222 0.949 . S
C228 C232 1.368 . S
C229 C210 1.429 1_556 S
C229 C223 1.429 . S
C229 C230 1.523 . S
C230 C211 1.368 . S
C230 C224 1.368 1_556 S
C230 C229 1.523 . S
C231 C215 1.429 . S
C231 C227 1.429 1_556 S
C231 C232 1.523 . S
C232 C216 1.368 1_556 S
C232 C228 1.368 . S
C232 C231 1.523 . S
H233 C208 0.950 . S
H234 C210 0.950 . S
H235 C211 0.949 . S
H236 C213 0.950 . S
H237 C215 0.950 . S
C238 C239 1.349 . S
C238 C240 1.327 . S
C238 H263 0.950 . S
C239 C238 1.349 . S
C239 C255 1.349 . S
C240 C238 1.327 . S
C240 C259 1.429 . S
C240 H264 0.950 . S
C241 C258 1.574 . S
C241 C260 1.368 . S
C241 H265 0.949 . S
H242 C246 0.949 . S
C243 C244 1.349 . S
C243 C245 1.327 . S
C243 H266 0.950 . S
C244 C243 1.349 . S
C244 C256 1.349 . S
C245 C243 1.327 . S
C245 C261 1.429 . S
C245 H267 0.950 . S
C246 H242 0.949 . S
C246 C254 1.574 . S
C246 C262 1.368 . S
H247 C255 0.950 . S
H248 C253 0.950 . S
H249 C254 0.949 . S
H250 C256 0.950 . S
H251 C257 0.950 . S
H252 C258 0.949 . S
C253 H248 0.950 . S
C253 C255 1.327 . S
C253 C259 1.429 . S
C254 C246 1.574 . S
C254 H249 0.949 . S
C254 C260 1.368 . S
C255 C239 1.349 . S
C255 H247 0.950 . S
C255 C253 1.327 . S
C256 C244 1.349 . S
C256 H250 0.950 . S
C256 C257 1.327 . S
C257 H251 0.950 . S
C257 C256 1.327 . S
C257 C261 1.429 . S
C258 C241 1.574 . S
C258 H252 0.949 . S
C258 C262 1.368 . S
C259 C240 1.429 . S
C259 C253 1.429 . S
C259 C260 1.523 . S
C260 C241 1.368 . S
C260 C254 1.368 . S
C260 C259 1.523 . S
C261 C245 1.429 . S
C261 C257 1.429 . S
C261 C262 1.523 . S
C262 C246 1.368 . S
C262 C258 1.368 . S
C262 C261 1.523 . S
H263 C238 0.950 . S
H264 C240 0.950 . S
H265 C241 0.949 . S
H266 C243 0.950 . S
H267 C245 0.950 . S
C268 C269 1.349 . S
C268 C270 1.327 . S
C268 H293 0.950 . S
C269 C268 1.349 . S
C269 C285 1.349 . S
C270 C268 1.327 . S
C270 C289 1.429 . S
C270 H294 0.950 . S
C271 C288 1.574 . S
C271 C290 1.368 . S
C271 H295 0.949 . S
H272 C276 0.949 . S
C273 C274 1.349 . S
C273 C275 1.327 . S
C273 H296 0.950 . S
C274 C273 1.349 . S
C274 C286 1.349 . S
C275 C273 1.327 . S
C275 C291 1.429 . S
C275 H297 0.950 . S
C276 H272 0.949 . S
C276 C284 1.574 . S
C276 C292 1.368 . S
H277 C285 0.950 . S
H278 C283 0.950 . S
H279 C284 0.949 . S
H280 C286 0.950 . S
H281 C287 0.950 . S
H282 C288 0.949 . S
C283 H278 0.950 . S
C283 C285 1.327 . S
C283 C289 1.429 . S
C284 C276 1.574 . S
C284 H279 0.949 . S
C284 C290 1.368 . S
C285 C269 1.349 . S
C285 H277 0.950 . S
C285 C283 1.327 . S
C286 C274 1.349 . S
C286 H280 0.950 . S
C286 C287 1.327 . S
C287 H281 0.950 . S
C287 C286 1.327 . S
C287 C291 1.429 . S
C288 C271 1.574 . S
C288 H282 0.949 . S
C288 C292 1.368 . S
C289 C270 1.429 . S
C289 C283 1.429 . S
C289 C290 1.523 . S
C290 C271 1.368 . S
C290 C284 1.368 . S
C290 C289 1.523 . S
C291 C275 1.429 . S
C291 C287 1.429 . S
C291 C292 1.523 . S
C292 C276 1.368 . S
C292 C288 1.368 . S
C292 C291 1.523 . S
H293 C268 0.950 . S
H294 C270 0.950 . S
H295 C271 0.949 . S
H296 C273 0.950 . S
H297 C275 0.950 . S
C298 C299 1.349 . S
C298 C300 1.327 . S
C298 H323 0.950 . S
C299 C298 1.349 . S
C299 C315 1.349 . S
C300 C298 1.327 . S
C300 C319 1.429 . S
C300 H324 0.950 . S
C301 C318 1.574 . S
C301 C320 1.368 . S
C301 H325 0.949 . S
H302 C306 0.949 . S
C303 C304 1.349 . S
C303 C305 1.327 . S
C303 H326 0.950 . S
C304 C303 1.349 . S
C304 C316 1.349 . S
C305 C303 1.327 . S
C305 C321 1.429 . S
C305 H327 0.950 . S
C306 H302 0.949 . S
C306 C314 1.574 . S
C306 C322 1.368 . S
H307 C315 0.950 . S
H308 C313 0.950 . S
H309 C314 0.949 . S
H310 C316 0.950 . S
H311 C317 0.950 . S
H312 C318 0.949 . S
C313 H308 0.950 . S
C313 C315 1.327 . S
C313 C319 1.429 . S
C314 C306 1.574 . S
C314 H309 0.949 . S
C314 C320 1.368 . S
C315 C299 1.349 . S
C315 H307 0.950 . S
C315 C313 1.327 . S
C316 C304 1.349 . S
C316 H310 0.950 . S
C316 C317 1.327 . S
C317 H311 0.950 . S
C317 C316 1.327 . S
C317 C321 1.429 . S
C318 C301 1.574 . S
C318 H312 0.949 . S
C318 C322 1.368 . S
C319 C300 1.429 . S
C319 C313 1.429 . S
C319 C320 1.523 . S
C320 C301 1.368 . S
C320 C314 1.368 . S
C320 C319 1.523 . S
C321 C305 1.429 . S
C321 C317 1.429 . S
C321 C322 1.523 . S
C322 C306 1.368 . S
C322 C318 1.368 . S
C322 C321 1.523 . S
H323 C298 0.950 . S
H324 C300 0.950 . S
H325 C301 0.949 . S
H326 C303 0.950 . S
H327 C305 0.950 . S
C328 C329 1.349 . S
C328 C330 1.327 . S
C328 H353 0.950 . S
C329 C328 1.349 . S
C329 C345 1.349 . S
C330 C328 1.327 . S
C330 C349 1.429 . S
C330 H354 0.950 . S
C331 C348 1.574 . S
C331 C350 1.368 . S
C331 H355 0.949 . S
H332 C336 0.949 . S
C333 C334 1.349 . S
C333 C335 1.327 . S
C333 H356 0.950 . S
C334 C333 1.349 . S
C334 C346 1.349 . S
C335 C333 1.327 . S
C335 C351 1.429 . S
C335 H357 0.950 . S
C336 H332 0.949 . S
C336 C344 1.574 . S
C336 C352 1.368 . S
H337 C345 0.950 . S
H338 C343 0.950 . S
H339 C344 0.949 . S
H340 C346 0.950 . S
H341 C347 0.950 . S
H342 C348 0.949 . S
C343 H338 0.950 . S
C343 C345 1.327 . S
C343 C349 1.429 . S
C344 C336 1.574 . S
C344 H339 0.949 . S
C344 C350 1.368 . S
C345 C329 1.349 . S
C345 H337 0.950 . S
C345 C343 1.327 . S
C346 C334 1.349 . S
C346 H340 0.950 . S
C346 C347 1.327 . S
C347 H341 0.950 . S
C347 C346 1.327 . S
C347 C351 1.429 . S
C348 C331 1.574 . S
C348 H342 0.949 . S
C348 C352 1.368 . S
C349 C330 1.429 . S
C349 C343 1.429 . S
C349 C350 1.523 . S
C350 C331 1.368 . S
C350 C344 1.368 . S
C350 C349 1.523 . S
C351 C335 1.429 . S
C351 C347 1.429 . S
C351 C352 1.523 . S
C352 C336 1.368 . S
C352 C348 1.368 . S
C352 C351 1.523 . S
H353 C328 0.950 . S
H354 C330 0.950 . S
H355 C331 0.949 . S
H356 C333 0.950 . S
H357 C335 0.950 . S
C358 C359 1.349 . S
C358 C360 1.327 . S
C358 H383 0.950 . S
C359 C358 1.349 . S
C359 C375 1.349 1_565 S
C360 C358 1.327 . S
C360 C379 1.429 . S
C360 H384 0.950 . S
C361 C378 1.574 . S
C361 C380 1.368 1_545 S
C361 H385 0.949 . S
H362 C366 0.949 . S
C363 C364 1.349 1_545 S
C363 C365 1.327 . S
C363 H386 0.950 . S
C364 C363 1.349 1_565 S
C364 C376 1.349 . S
C365 C363 1.327 . S
C365 C381 1.429 1_545 S
C365 H387 0.950 . S
C366 H362 0.949 . S
C366 C374 1.574 . S
C366 C382 1.368 . S
H367 C375 0.950 . S
H368 C373 0.950 . S
H369 C374 0.949 . S
H370 C376 0.950 . S
H371 C377 0.950 . S
H372 C378 0.949 . S
C373 H368 0.950 . S
C373 C375 1.327 . S
C373 C379 1.429 1_545 S
C374 C366 1.574 . S
C374 H369 0.949 . S
C374 C380 1.368 . S
C375 C359 1.349 1_545 S
C375 H367 0.950 . S
C375 C373 1.327 . S
C376 C364 1.349 . S
C376 H370 0.950 . S
C376 C377 1.327 . S
C377 H371 0.950 . S
C377 C376 1.327 . S
C377 C381 1.429 . S
C378 C361 1.574 . S
C378 H372 0.949 . S
C378 C382 1.368 1_545 S
C379 C360 1.429 . S
C379 C373 1.429 1_565 S
C379 C380 1.523 . S
C380 C361 1.368 1_565 S
C380 C374 1.368 . S
C380 C379 1.523 . S
C381 C365 1.429 1_565 S
C381 C377 1.429 . S
C381 C382 1.523 . S
C382 C366 1.368 . S
C382 C378 1.368 1_565 S
C382 C381 1.523 . S
H383 C358 0.950 . S
H384 C360 0.950 . S
H385 C361 0.949 . S
H386 C363 0.950 . S
H387 C365 0.950 . S
C388 C389 1.349 . S
C388 C390 1.327 . S
C388 H413 0.950 . S
C389 C388 1.349 . S
C389 C405 1.349 1_445 S
C390 C388 1.327 . S
C390 C409 1.429 . S
C390 H414 0.950 . S
C391 C408 1.574 . S
C391 C410 1.368 1_655 S
C391 H415 0.949 1_545 S
H392 C396 0.949 . S
C393 C394 1.349 . S
C393 C395 1.327 . S
C393 H416 0.950 . S
C394 C393 1.349 . S
C394 C406 1.349 1_655 S
C395 C393 1.327 . S
C395 C411 1.429 1_655 S
C395 H417 0.950 1_545 S
C396 H392 0.949 . S
C396 C404 1.574 . S
C396 C412 1.368 . S
H397 C405 0.950 . S
H398 C403 0.950 . S
H399 C404 0.949 . S
H400 C406 0.950 . S
H401 C407 0.950 . S
H402 C408 0.949 1_565 S
C403 H398 0.950 . S
C403 C405 1.327 . S
C403 C409 1.429 1_665 S
C404 C396 1.574 . S
C404 H399 0.949 . S
C404 C410 1.368 . S
C405 C389 1.349 1_665 S
C405 H397 0.950 . S
C405 C403 1.327 . S
C406 C394 1.349 1_455 S
C406 H400 0.950 . S
C406 C407 1.327 . S
C407 H401 0.950 . S
C407 C406 1.327 . S
C407 C411 1.429 . S
C408 C391 1.574 . S
C408 H402 0.949 1_545 S
C408 C412 1.368 1_655 S
C409 C390 1.429 . S
C409 C403 1.429 1_445 S
C409 C410 1.523 . S
C410 C391 1.368 1_455 S
C410 C404 1.368 . S
C410 C409 1.523 . S
C411 C395 1.429 1_455 S
C411 C407 1.429 . S
C411 C412 1.523 . S
C412 C396 1.368 . S
C412 C408 1.368 1_455 S
C412 C411 1.523 . S
H413 C388 0.950 . S
H414 C390 0.950 . S
H415 C391 0.949 1_565 S
H416 C393 0.950 . S
H417 C395 0.950 1_565 S
C418 C419 1.349 . S
C418 C420 1.327 . S
C418 H443 0.950 . S
C419 C418 1.349 . S
C419 C435 1.349 . S
C420 C418 1.327 . S
C420 C439 1.429 . S
C420 H444 0.950 . S
C421 C438 1.574 . S
C421 C440 1.368 . S
C421 H445 0.949 . S
H422 C426 0.949 . S
C423 C424 1.349 . S
C423 C425 1.327 . S
C423 H446 0.950 . S
C424 C423 1.349 . S
C424 C436 1.349 . S
C425 C423 1.327 . S
C425 C441 1.429 . S
C425 H447 0.950 . S
C426 H422 0.949 . S
C426 C434 1.574 . S
C426 C442 1.368 . S
H427 C435 0.950 . S
H428 C433 0.950 . S
H429 C434 0.949 . S
H430 C436 0.950 . S
H431 C437 0.950 . S
H432 C438 0.949 . S
C433 H428 0.950 . S
C433 C435 1.327 . S
C433 C439 1.429 . S
C434 C426 1.574 . S
C434 H429 0.949 . S
C434 C440 1.368 . S
C435 C419 1.349 . S
C435 H427 0.950 . S
C435 C433 1.327 . S
C436 C424 1.349 . S
C436 H430 0.950 . S
C436 C437 1.327 . S
C437 H431 0.950 . S
C437 C436 1.327 . S
C437 C441 1.429 . S
C438 C421 1.574 . S
C438 H432 0.949 . S
C438 C442 1.368 . S
C439 C420 1.429 . S
C439 C433 1.429 . S
C439 C440 1.523 . S
C440 C421 1.368 . S
C440 C434 1.368 . S
C440 C439 1.523 . S
C441 C425 1.429 . S
C441 C437 1.429 . S
C441 C442 1.523 . S
C442 C426 1.368 . S
C442 C438 1.368 . S
C442 C441 1.523 . S
H443 C418 0.950 . S
H444 C420 0.950 . S
H445 C421 0.949 . S
H446 C423 0.950 . S
H447 C425 0.950 . S
C448 C449 1.349 . S
C448 C450 1.327 . S
C448 H473 0.950 . S
C449 C448 1.349 . S
C449 C465 1.349 . S
C450 C448 1.327 . S
C450 C469 1.429 . S
C450 H474 0.950 . S
C451 C468 1.574 . S
C451 C470 1.368 . S
C451 H475 0.949 . S
H452 C456 0.949 . S
C453 C454 1.349 . S
C453 C455 1.327 . S
C453 H476 0.950 . S
C454 C453 1.349 . S
C454 C466 1.349 . S
C455 C453 1.327 . S
C455 C471 1.429 . S
C455 H477 0.950 . S
C456 H452 0.949 . S
C456 C464 1.574 . S
C456 C472 1.368 . S
H457 C465 0.950 . S
H458 C463 0.950 . S
H459 C464 0.949 . S
H460 C466 0.950 . S
H461 C467 0.950 . S
H462 C468 0.949 . S
C463 H458 0.950 . S
C463 C465 1.327 . S
C463 C469 1.429 . S
C464 C456 1.574 . S
C464 H459 0.949 . S
C464 C470 1.368 . S
C465 C449 1.349 . S
C465 H457 0.950 . S
C465 C463 1.327 . S
C466 C454 1.349 . S
C466 H460 0.950 . S
C466 C467 1.327 . S
C467 H461 0.950 . S
C467 C466 1.327 . S
C467 C471 1.429 . S
C468 C451 1.574 . S
C468 H462 0.949 . S
C468 C472 1.368 . S
C469 C450 1.429 . S
C469 C463 1.429 . S
C469 C470 1.523 . S
C470 C451 1.368 . S
C470 C464 1.368 . S
C470 C469 1.523 . S
C471 C455 1.429 . S
C471 C467 1.429 . S
C471 C472 1.523 . S
C472 C456 1.368 . S
C472 C468 1.368 . S
C472 C471 1.523 . S
H473 C448 0.950 . S
H474 C450 0.950 . S
H475 C451 0.949 . S
H476 C453 0.950 . S
H477 C455 0.950 . S
C124 C105 1.525 . S
C119 C16 1.389 . S
C149 C15 1.388 . S
C154 C91 1.374 . S
C179 C13 1.265 . S
C184 C110 1.405 . S
C209 C14 1.502 . S
C214 C86 1.527 . S
C239 C37 1.389 . S
C244 C67 1.526 . S
C269 C36 1.388 . S
C274 C53 1.374 1_655 S
C304 C72 1.405 . S
C299 C34 1.254 . S
C334 C48 1.527 . S
C329 C35 1.502 . S
C359 C17 1.640 1_565 S
C364 C44 1.672 . S
C389 C18 1.404 . S
C394 C63 1.419 . S
C424 C82 1.672 . S
C419 C38 1.640 . S
C449 C39 1.404 . S
C454 C101 1.418 . S
