# Generated by pormake.
# Topology ptr, (4,4)-cn, num edge types: 1
# Building blocks:
#     Node 0, Type 0, BuildingBlock: AZAVOO_clean_sbu_0, # of connection points: 4
#     Node 1, Type 0, BuildingBlock: AZAVOO_clean_sbu_0, # of connection points: 4
#     Node 2, Type 0, BuildingBlock: AZAVOO_clean_sbu_0, # of connection points: 4
#     Node 3, Type 0, BuildingBlock: AZAVOO_clean_sbu_0, # of connection points: 4
#     Node 4, Type 0, BuildingBlock: AZAVOO_clean_sbu_0, # of connection points: 4
#     Node 5, Type 0, BuildingBlock: AZAVOO_clean_sbu_0, # of connection points: 4
#     Node 6, Type 0, BuildingBlock: AZAVOO_clean_sbu_0, # of connection points: 4
#     Node 7, Type 0, BuildingBlock: AZAVOO_clean_sbu_0, # of connection points: 4
#     Node 8, Type 0, BuildingBlock: AZAVOO_clean_sbu_0, # of connection points: 4
#     Node 9, Type 0, BuildingBlock: AZAVOO_clean_sbu_0, # of connection points: 4
#     Node 10, Type 0, BuildingBlock: AZAVOO_clean_sbu_0, # of connection points: 4
#     Node 11, Type 0, BuildingBlock: AZAVOO_clean_sbu_0, # of connection points: 4
#     Node 12, Type 0, BuildingBlock: AZAVOO_clean_sbu_0, # of connection points: 4
#     Node 13, Type 0, BuildingBlock: AZAVOO_clean_sbu_0, # of connection points: 4
#     Node 14, Type 0, BuildingBlock: AZAVOO_clean_sbu_0, # of connection points: 4
#     Node 15, Type 0, BuildingBlock: AZAVOO_clean_sbu_0, # of connection points: 4
#     Node 16, Type 0, BuildingBlock: AZAVOO_clean_sbu_0, # of connection points: 4
#     Node 17, Type 0, BuildingBlock: AZAVOO_clean_sbu_0, # of connection points: 4
#     Node 18, Type 1, BuildingBlock: GIZVER_clean_linker_0, # of connection points: 4
#     Node 19, Type 1, BuildingBlock: GIZVER_clean_linker_0, # of connection points: 4
#     Node 20, Type 1, BuildingBlock: GIZVER_clean_linker_0, # of connection points: 4
#     Node 21, Type 1, BuildingBlock: GIZVER_clean_linker_0, # of connection points: 4
#     Node 22, Type 1, BuildingBlock: GIZVER_clean_linker_0, # of connection points: 4
#     Node 23, Type 1, BuildingBlock: GIZVER_clean_linker_0, # of connection points: 4
#     Node 24, Type 1, BuildingBlock: GIZVER_clean_linker_0, # of connection points: 4
#     Node 25, Type 1, BuildingBlock: GIZVER_clean_linker_0, # of connection points: 4
#     Node 26, Type 1, BuildingBlock: GIZVER_clean_linker_0, # of connection points: 4
#     Node 27, Type 1, BuildingBlock: GIZVER_clean_linker_0, # of connection points: 4
#     Node 28, Type 1, BuildingBlock: GIZVER_clean_linker_0, # of connection points: 4
#     Node 29, Type 1, BuildingBlock: GIZVER_clean_linker_0, # of connection points: 4
#     Node 30, Type 1, BuildingBlock: GIZVER_clean_linker_0, # of connection points: 4
#     Node 31, Type 1, BuildingBlock: GIZVER_clean_linker_0, # of connection points: 4
#     Node 32, Type 1, BuildingBlock: GIZVER_clean_linker_0, # of connection points: 4
#     Node 33, Type 1, BuildingBlock: GIZVER_clean_linker_0, # of connection points: 4
#     Node 34, Type 1, BuildingBlock: GIZVER_clean_linker_0, # of connection points: 4
#     Node 35, Type 1, BuildingBlock: GIZVER_clean_linker_0, # of connection points: 4
#     Edge 36, Type (0, 1), BuildingBlock: ZUJKAS_clean_linker_0, # of connection points: 2
#     Edge 37, Type (0, 1), BuildingBlock: ZUJKAS_clean_linker_0, # of connection points: 2
#     Edge 38, Type (0, 1), BuildingBlock: ZUJKAS_clean_linker_0, # of connection points: 2
#     Edge 39, Type (0, 1), BuildingBlock: ZUJKAS_clean_linker_0, # of connection points: 2
#     Edge 40, Type (0, 1), BuildingBlock: ZUJKAS_clean_linker_0, # of connection points: 2
#     Edge 41, Type (0, 1), BuildingBlock: ZUJKAS_clean_linker_0, # of connection points: 2
#     Edge 42, Type (0, 1), BuildingBlock: ZUJKAS_clean_linker_0, # of connection points: 2
#     Edge 43, Type (0, 1), BuildingBlock: ZUJKAS_clean_linker_0, # of connection points: 2
#     Edge 44, Type (0, 1), BuildingBlock: ZUJKAS_clean_linker_0, # of connection points: 2
#     Edge 45, Type (0, 1), BuildingBlock: ZUJKAS_clean_linker_0, # of connection points: 2
#     Edge 46, Type (0, 1), BuildingBlock: ZUJKAS_clean_linker_0, # of connection points: 2
#     Edge 47, Type (0, 1), BuildingBlock: ZUJKAS_clean_linker_0, # of connection points: 2
#     Edge 48, Type (0, 1), BuildingBlock: ZUJKAS_clean_linker_0, # of connection points: 2
#     Edge 49, Type (0, 1), BuildingBlock: ZUJKAS_clean_linker_0, # of connection points: 2
#     Edge 50, Type (0, 1), BuildingBlock: ZUJKAS_clean_linker_0, # of connection points: 2
#     Edge 51, Type (0, 1), BuildingBlock: ZUJKAS_clean_linker_0, # of connection points: 2
#     Edge 52, Type (0, 1), BuildingBlock: ZUJKAS_clean_linker_0, # of connection points: 2
#     Edge 53, Type (0, 1), BuildingBlock: ZUJKAS_clean_linker_0, # of connection points: 2
#     Edge 54, Type (0, 1), BuildingBlock: ZUJKAS_clean_linker_0, # of connection points: 2
#     Edge 55, Type (0, 1), BuildingBlock: ZUJKAS_clean_linker_0, # of connection points: 2
#     Edge 56, Type (0, 1), BuildingBlock: ZUJKAS_clean_linker_0, # of connection points: 2
#     Edge 57, Type (0, 1), BuildingBlock: ZUJKAS_clean_linker_0, # of connection points: 2
#     Edge 58, Type (0, 1), BuildingBlock: ZUJKAS_clean_linker_0, # of connection points: 2
#     Edge 59, Type (0, 1), BuildingBlock: ZUJKAS_clean_linker_0, # of connection points: 2
#     Edge 60, Type (0, 1), BuildingBlock: ZUJKAS_clean_linker_0, # of connection points: 2
#     Edge 61, Type (0, 1), BuildingBlock: ZUJKAS_clean_linker_0, # of connection points: 2
#     Edge 62, Type (0, 1), BuildingBlock: ZUJKAS_clean_linker_0, # of connection points: 2
#     Edge 63, Type (0, 1), BuildingBlock: ZUJKAS_clean_linker_0, # of connection points: 2
#     Edge 64, Type (0, 1), BuildingBlock: ZUJKAS_clean_linker_0, # of connection points: 2
#     Edge 65, Type (0, 1), BuildingBlock: ZUJKAS_clean_linker_0, # of connection points: 2
#     Edge 66, Type (0, 1), BuildingBlock: ZUJKAS_clean_linker_0, # of connection points: 2
#     Edge 67, Type (0, 1), BuildingBlock: ZUJKAS_clean_linker_0, # of connection points: 2
#     Edge 68, Type (0, 1), BuildingBlock: ZUJKAS_clean_linker_0, # of connection points: 2
#     Edge 69, Type (0, 1), BuildingBlock: ZUJKAS_clean_linker_0, # of connection points: 2
#     Edge 70, Type (0, 1), BuildingBlock: ZUJKAS_clean_linker_0, # of connection points: 2
#     Edge 71, Type (0, 1), BuildingBlock: ZUJKAS_clean_linker_0, # of connection points: 2
#     Edge 72, Type (0, 1), BuildingBlock: ZUJKAS_clean_linker_0, # of connection points: 2
#     Edge 73, Type (0, 1), BuildingBlock: ZUJKAS_clean_linker_0, # of connection points: 2
#     Edge 74, Type (0, 1), BuildingBlock: ZUJKAS_clean_linker_0, # of connection points: 2
#     Edge 75, Type (0, 1), BuildingBlock: ZUJKAS_clean_linker_0, # of connection points: 2
#     Edge 76, Type (0, 1), BuildingBlock: ZUJKAS_clean_linker_0, # of connection points: 2
#     Edge 77, Type (0, 1), BuildingBlock: ZUJKAS_clean_linker_0, # of connection points: 2
#     Edge 78, Type (0, 1), BuildingBlock: ZUJKAS_clean_linker_0, # of connection points: 2
#     Edge 79, Type (0, 1), BuildingBlock: ZUJKAS_clean_linker_0, # of connection points: 2
#     Edge 80, Type (0, 1), BuildingBlock: ZUJKAS_clean_linker_0, # of connection points: 2
#     Edge 81, Type (0, 1), BuildingBlock: ZUJKAS_clean_linker_0, # of connection points: 2
#     Edge 82, Type (0, 1), BuildingBlock: ZUJKAS_clean_linker_0, # of connection points: 2
#     Edge 83, Type (0, 1), BuildingBlock: ZUJKAS_clean_linker_0, # of connection points: 2
#     Edge 84, Type (0, 1), BuildingBlock: ZUJKAS_clean_linker_0, # of connection points: 2
#     Edge 85, Type (0, 1), BuildingBlock: ZUJKAS_clean_linker_0, # of connection points: 2
#     Edge 86, Type (0, 1), BuildingBlock: ZUJKAS_clean_linker_0, # of connection points: 2
#     Edge 87, Type (0, 1), BuildingBlock: ZUJKAS_clean_linker_0, # of connection points: 2
#     Edge 88, Type (0, 1), BuildingBlock: ZUJKAS_clean_linker_0, # of connection points: 2
#     Edge 89, Type (0, 1), BuildingBlock: ZUJKAS_clean_linker_0, # of connection points: 2
#     Edge 90, Type (0, 1), BuildingBlock: ZUJKAS_clean_linker_0, # of connection points: 2
#     Edge 91, Type (0, 1), BuildingBlock: ZUJKAS_clean_linker_0, # of connection points: 2
#     Edge 92, Type (0, 1), BuildingBlock: ZUJKAS_clean_linker_0, # of connection points: 2
#     Edge 93, Type (0, 1), BuildingBlock: ZUJKAS_clean_linker_0, # of connection points: 2
#     Edge 94, Type (0, 1), BuildingBlock: ZUJKAS_clean_linker_0, # of connection points: 2
#     Edge 95, Type (0, 1), BuildingBlock: ZUJKAS_clean_linker_0, # of connection points: 2
#     Edge 96, Type (0, 1), BuildingBlock: ZUJKAS_clean_linker_0, # of connection points: 2
#     Edge 97, Type (0, 1), BuildingBlock: ZUJKAS_clean_linker_0, # of connection points: 2
#     Edge 98, Type (0, 1), BuildingBlock: ZUJKAS_clean_linker_0, # of connection points: 2
#     Edge 99, Type (0, 1), BuildingBlock: ZUJKAS_clean_linker_0, # of connection points: 2
#     Edge 100, Type (0, 1), BuildingBlock: ZUJKAS_clean_linker_0, # of connection points: 2
#     Edge 101, Type (0, 1), BuildingBlock: ZUJKAS_clean_linker_0, # of connection points: 2
#     Edge 102, Type (0, 1), BuildingBlock: ZUJKAS_clean_linker_0, # of connection points: 2
#     Edge 103, Type (0, 1), BuildingBlock: ZUJKAS_clean_linker_0, # of connection points: 2
#     Edge 104, Type (0, 1), BuildingBlock: ZUJKAS_clean_linker_0, # of connection points: 2
#     Edge 105, Type (0, 1), BuildingBlock: ZUJKAS_clean_linker_0, # of connection points: 2
#     Edge 106, Type (0, 1), BuildingBlock: ZUJKAS_clean_linker_0, # of connection points: 2
#     Edge 107, Type (0, 1), BuildingBlock: ZUJKAS_clean_linker_0, # of connection points: 2
# Relax obj value: 0.078
# Max RMSD: 0.234
# Mean RMSD: 0.123
data_MOF--net-ptr--node1-AZAVOO_clean_sbu_0--node2-GIZVER_clean_linker_0--edge1-ZUJKAS_clean_linker_0
_symmetry_space_group_name_H-M    P1
_symmetry_Int_Tables_number       1
_symmetry_cell_setting            triclinic
loop_
_symmetry_equiv_pos_as_xyz
'x, y, z'
_cell_length_a     104.1759
_cell_length_b     102.77607
_cell_length_c     59.144955
_cell_angle_alpha  91.280989
_cell_angle_beta   91.335173
_cell_angle_gamma 120.01332
loop_
_atom_site_label
_atom_site_type_symbol
_atom_site_fract_x
_atom_site_fract_y
_atom_site_fract_z
_atom_type_partial_charge
Mg0 Mg 0.00901 0.363 0.97325 0.0
O1 O 0.00505 0.37469 0.00413 0.0
O2 O 0.9866 0.37862 0.99312 0.0
Mg3 Mg 0.97846 0.36932 0.95713 0.0
C4 C 0.99629 0.37979 0.00792 0.0
C5 C 0.03266 0.35484 0.98114 0.0
O6 O 0.03161 0.35606 0.95919 0.0
O7 O 0.9882 0.34062 0.98017 0.0
O8 O 0.97034 0.34526 0.96872 0.0
O9 O 0.02477 0.38554 0.96046 0.0
O10 O 1.00077 0.37312 0.95155 0.0
C11 C 0.97449 0.33641 0.9766 0.0
C12 C 0.01341 0.38529 0.95062 0.0
O13 O 0.02408 0.35697 0.99374 0.0
Mg14 Mg 0.63937 0.64318 0.04772 0.0
O15 O 0.62276 0.63227 0.01755 0.0
O16 O 0.60111 0.62948 0.02831 0.0
Mg17 Mg 0.60382 0.63842 0.06494 0.0
C18 C 0.60907 0.62795 0.01355 0.0
C19 C 0.66029 0.63726 0.01871 0.0
O20 O 0.64972 0.62354 0.02254 0.0
O21 O 0.64125 0.66582 0.04102 0.0
O22 O 0.62 0.66263 0.05444 0.0
O23 O 0.63244 0.62038 0.05971 0.0
O24 O 0.62193 0.63358 0.06999 0.0
C25 C 0.63259 0.67083 0.04581 0.0
C26 C 0.62196 0.62105 0.07001 0.0
O27 O 0.65895 0.64829 0.02571 0.0
Mg28 Mg 0.36705 0.00541 0.97433 0.0
O29 O 0.38194 0.00616 0.00449 0.0
O30 O 0.40473 0.02536 -0.00084 0.0
Mg31 Mg 0.40431 0.03738 0.96763 0.0
C32 C 0.39569 0.01421 0.01043 0.0
C33 C 0.33494 0.98047 0.97852 0.0
O34 O 0.3362 0.98206 0.95656 0.0
O35 O 0.36586 0.0253 0.98955 0.0
O36 O 0.38877 0.04427 0.98441 0.0
O37 O 0.37364 0.99106 0.955 0.0
O38 O 0.38555 0.01591 0.95463 0.0
C39 C 0.37566 0.03922 0.9914 0.0
C40 C 0.38495 0.00344 0.94892 0.0
O41 O 0.34614 0.98877 0.99156 0.0
Mg42 Mg 0.00251 0.6468 0.02876 0.0
O43 O 0.00795 0.63569 -0.00137 0.0
O44 O 0.0277 0.63421 0.01078 0.0
Mg45 Mg 0.0349 0.64391 0.04671 0.0
C46 C 0.01779 0.63188 0.99557 0.0
C47 C 0.98149 0.65832 0.01828 0.0
O48 O 0.98671 0.6634 0.039 0.0
O49 O 0.02231 0.6698 0.02141 0.0
O50 O 0.04131 0.66729 0.03399 0.0
O51 O 0.98776 0.62418 0.04238 0.0
O52 O 0.01183 0.63799 0.05065 0.0
C53 C 0.03619 0.67513 0.02529 0.0
C54 C 0.99963 0.62539 0.05192 0.0
O55 O 0.98649 0.65104 0.00753 0.0
Mg56 Mg 0.36511 0.36608 0.97331 0.0
O57 O 0.38215 0.37788 0.00315 0.0
O58 O 0.40387 0.38161 0.99086 0.0
Mg59 Mg 0.40093 0.37256 0.95448 0.0
C60 C 0.39607 0.3828 0.00623 0.0
C61 C 0.34302 0.36952 0.00419 0.0
O62 O 0.35298 0.38378 0.00239 0.0
O63 O 0.36465 0.34409 0.97961 0.0
O64 O 0.38633 0.34841 0.96659 0.0
O65 O 0.3704 0.38841 0.96116 0.0
O66 O 0.38204 0.37637 0.9507 0.0
C67 C 0.3739 0.33975 0.97535 0.0
C68 C 0.38111 0.38842 0.95049 0.0
O69 O 0.3454 0.35955 0.99548 0.0
Mg70 Mg 0.63956 0.00501 0.03393 0.0
O71 O 0.62409 0.99982 0.00222 0.0
O72 O 0.60259 0.97948 0.01016 0.0
Mg73 Mg 0.60396 0.97203 0.04564 0.0
C74 C 0.61068 0.98978 0.9968 0.0
C75 C 0.67087 0.03018 0.0289 0.0
O76 O 0.66871 0.0295 0.05075 0.0
O77 O 0.6427 0.98512 0.0249 0.0
O78 O 0.62112 0.96562 0.03429 0.0
O79 O 0.63155 0.01976 0.04817 0.0
O80 O 0.6211 0.99544 0.05393 0.0
C81 C 0.63421 0.97102 0.02706 0.0
C82 C 0.62079 0.00778 0.05636 0.0
O83 O 0.66027 0.02103 0.01551 0.0
Mg84 Mg 0.67178 0.69075 0.30947 0.0
O85 O 0.66762 0.70224 0.34044 0.0
O86 O 0.6493 0.70628 0.32898 0.0
Mg87 Mg 0.64176 0.69773 0.29266 0.0
C88 C 0.65873 0.70721 0.34405 0.0
C89 C 0.69281 0.67919 0.31707 0.0
O90 O 0.68977 0.67794 0.29517 0.0
O91 O 0.65067 0.66852 0.31579 0.0
O92 O 0.63317 0.6736 0.30407 0.0
O93 O 0.68806 0.71337 0.2978 0.0
O94 O 0.66417 0.70156 0.28807 0.0
C95 C 0.63704 0.66458 0.31206 0.0
C96 C 0.67695 0.71366 0.28806 0.0
O97 O 0.68638 0.68409 0.32988 0.0
Mg98 Mg 0.30579 0.97476 0.37799 0.0
O99 O 0.28843 0.96396 0.34851 0.0
O100 O 0.26713 0.96121 0.36096 0.0
Mg101 Mg 0.27085 0.97056 0.39736 0.0
C102 C 0.27464 0.95962 0.3455 0.0
C103 C 0.32549 0.96819 0.34713 0.0
O104 O 0.31453 0.9546 0.35062 0.0
O105 O 0.30792 0.99757 0.3719 0.0
O106 O 0.28672 0.99442 0.38533 0.0
O107 O 0.29878 0.95191 0.38971 0.0
O108 O 0.28885 0.96546 0.40105 0.0
C109 C 0.29924 0.00261 0.37651 0.0
C110 C 0.28861 0.95279 0.4006 0.0
O111 O 0.32481 0.97944 0.35495 0.0
Mg112 Mg 0.03052 0.33133 0.30964 0.0
O113 O 0.04582 0.33454 0.34068 0.0
O114 O 0.06851 0.3528 0.33239 0.0
Mg115 Mg 0.0677 0.3616 0.29776 0.0
C116 C 0.05967 0.34295 0.3457 0.0
C117 C 0.99789 0.31596 0.31982 0.0
O118 O 0.99881 0.32306 0.30119 0.0
O119 O 0.0303 0.35258 0.3198 0.0
O120 O 0.05291 0.37068 0.31121 0.0
O121 O 0.03597 0.31481 0.29473 0.0
O122 O 0.04859 0.33923 0.28908 0.0
C123 C 0.04003 0.36644 0.31865 0.0
C124 C 0.04741 0.32617 0.28655 0.0
O125 O 0.00969 0.31726 0.32886 0.0
Mg126 Mg 0.66091 0.97417 0.37085 0.0
O127 O 0.6664 0.96235 0.34189 0.0
O128 O 0.68416 0.95834 0.35617 0.0
Mg129 Mg 0.69022 0.96743 0.39257 0.0
C130 C 0.67537 0.95732 0.33993 0.0
C131 C 0.6421 0.9877 0.35727 0.0
O132 O 0.64639 0.99225 0.37846 0.0
O133 O 0.6823 0.99641 0.36537 0.0
O134 O 0.69928 0.99124 0.37955 0.0
O135 O 0.6443 0.95171 0.38301 0.0
O136 O 0.66786 0.96416 0.39469 0.0
C137 C 0.69577 1.00022 0.3703 0.0
C138 C 0.65511 0.95205 0.39476 0.0
O139 O 0.64701 0.98006 0.34737 0.0
Mg140 Mg 0.0326 0.69668 0.31001 0.0
O141 O 0.05055 0.70887 0.33876 0.0
O142 O 0.07162 0.71163 0.32519 0.0
Mg143 Mg 0.06741 0.70117 0.28955 0.0
C144 C 0.06448 0.71357 0.34091 0.0
C145 C 0.01095 0.70202 0.33926 0.0
O146 O 0.02047 0.71597 0.33458 0.0
O147 O 0.03138 0.67444 0.31756 0.0
O148 O 0.05254 0.67773 0.30375 0.0
O149 O 0.03847 0.71882 0.29598 0.0
O150 O 0.04889 0.70548 0.28614 0.0
C151 C 0.04029 0.66964 0.31332 0.0
C152 C 0.0485 0.71778 0.28489 0.0
O153 O 0.01353 0.69164 0.33306 0.0
Mg154 Mg 0.30213 0.33806 0.37045 0.0
O155 O 0.28581 0.33218 0.33979 0.0
O156 O 0.26427 0.31263 0.34963 0.0
Mg157 Mg 0.2665 0.30637 0.38567 0.0
C158 C 0.2722 0.32232 0.33539 0.0
C159 C 0.32592 0.36609 0.34545 0.0
O160 O 0.31715 0.37123 0.35129 0.0
O161 O 0.30416 0.31738 0.36238 0.0
O162 O 0.28269 0.29869 0.3739 0.0
O163 O 0.29503 0.35373 0.3842 0.0
O164 O 0.28441 0.3297 0.39194 0.0
C165 C 0.29547 0.30346 0.3657 0.0
C166 C 0.28446 0.34224 0.39362 0.0
O167 O 0.32229 0.35264 0.34976 0.0
Mg168 Mg 0.33889 0.02515 0.64294 0.0
O169 O 0.33522 0.03744 0.6733 0.0
O170 O 0.31644 0.04085 0.66227 0.0
Mg171 Mg 0.30793 0.03082 0.6267 0.0
C172 C 0.32637 0.04245 0.67695 0.0
C173 C 0.36695 0.02992 0.67063 0.0
O174 O 0.37062 0.04396 0.66755 0.0
O175 O 0.31825 0.00303 0.65121 0.0
O176 O 0.30004 0.00706 0.63951 0.0
O177 O 0.35438 0.04737 0.62892 0.0
O178 O 0.33029 0.03479 0.62087 0.0
C179 C 0.30447 0.99856 0.64792 0.0
C180 C 0.34288 0.04695 0.61933 0.0
O181 O 0.35412 0.0195 0.66385 0.0
Mg182 Mg 0.97285 0.31156 0.71036 0.0
O183 O 0.95733 0.29895 0.67927 0.0
O184 O 0.93497 0.29549 0.68718 0.0
Mg185 Mg 0.93612 0.30602 0.72201 0.0
C186 C 0.9436 0.2938 0.67399 0.0
C187 C 0.00587 0.32516 0.70079 0.0
O188 O 0.00625 0.33127 0.72073 0.0
O189 O 0.97435 0.33363 0.7005 0.0
O190 O 0.95194 0.32961 0.70927 0.0
O191 O 0.96609 0.28952 0.72549 0.0
O192 O 0.95468 0.30249 0.73106 0.0
C193 C 0.96492 0.33807 0.70204 0.0
C194 C 0.95512 0.29032 0.73384 0.0
O195 O 0.99333 0.3165 0.6909 0.0
Mg196 Mg 0.69882 0.66884 0.64377 0.0
O197 O 0.71397 0.66988 0.67379 0.0
O198 O 0.73634 0.68993 0.66913 0.0
Mg199 Mg 0.73533 0.70225 0.63838 0.0
C200 C 0.72763 0.67836 0.67994 0.0
C201 C 0.66812 0.64097 0.64742 0.0
O202 O 0.67023 0.64135 0.62557 0.0
O203 O 0.69637 0.68774 0.65987 0.0
O204 O 0.71895 0.70767 0.65601 0.0
O205 O 0.70651 0.65575 0.62357 0.0
O206 O 0.71734 0.68057 0.62436 0.0
C207 C 0.70568 0.70176 0.66269 0.0
C208 C 0.71742 0.66855 0.61789 0.0
O209 O 0.67822 0.65107 0.6605 0.0
Mg210 Mg 0.33009 0.30779 0.69848 0.0
O211 O 0.33552 0.29583 0.66956 0.0
O212 O 0.35262 0.29106 0.6845 0.0
Mg213 Mg 0.35889 0.30046 0.72061 0.0
C214 C 0.3441 0.29029 0.66802 0.0
C215 C 0.31274 0.32281 0.68467 0.0
O216 O 0.31806 0.32813 0.70528 0.0
O217 O 0.35167 0.3298 0.69326 0.0
O218 O 0.36847 0.32422 0.70698 0.0
O219 O 0.31311 0.28542 0.71019 0.0
O220 O 0.33659 0.29742 0.72231 0.0
C221 C 0.36509 0.33331 0.6978 0.0
C222 C 0.32374 0.28541 0.72196 0.0
O223 O 0.31653 0.31412 0.67505 0.0
Mg224 Mg 0.70026 0.03067 0.64175 0.0
O225 O 0.7165 0.04099 0.67287 0.0
O226 O 0.73773 0.04244 0.66268 0.0
Mg227 Mg 0.73532 0.03342 0.62638 0.0
C228 C 0.72999 0.04453 0.67719 0.0
C229 C 0.6722 0.03074 0.65169 0.0
O230 O 0.67631 0.03698 0.63205 0.0
O231 O 0.6969 0.00743 0.64863 0.0
O232 O 0.71825 0.00975 0.63747 0.0
O233 O 0.70844 0.05365 0.6294 0.0
O234 O 0.71812 0.03945 0.62053 0.0
C235 C 0.70531 0.00192 0.6452 0.0
C236 C 0.7187 0.05225 0.61964 0.0
O237 O 0.68025 0.02646 0.66188 0.0
Mg238 Mg 0.97113 0.67467 0.70631 0.0
O239 O 0.95425 0.66832 0.67629 0.0
O240 O 0.93295 0.6489 0.68716 0.0
Mg241 Mg 0.93599 0.6429 0.72298 0.0
C242 C 0.94057 0.65844 0.67252 0.0
C243 C 0.99874 0.70308 0.69267 0.0
O244 O 0.99468 0.70734 0.71095 0.0
O245 O 0.97338 0.65414 0.69798 0.0
O246 O 0.95211 0.63544 0.71009 0.0
O247 O 0.96388 0.69018 0.72008 0.0
O248 O 0.95382 0.66629 0.72855 0.0
C249 C 0.96475 0.64022 0.70141 0.0
C250 C 0.95363 0.67873 0.73001 0.0
O251 O 0.99081 0.68959 0.68502 0.0
H252 H 0.15213 0.30843 0.13568 0.0
H253 H 0.14974 0.31785 0.06553 0.0
H254 H 0.12888 0.33111 0.11567 0.0
H255 H 0.15642 0.29429 0.10315 0.0
H256 H 0.15971 0.30197 0.0757 0.0
H257 H 0.17429 0.30967 0.13645 0.0
H258 H 0.21942 0.33731 0.11806 0.0
H259 H 0.18447 0.32039 0.06671 0.0
C260 C 0.14889 0.31355 0.12264 0.0
C261 C 0.1407 0.32047 0.12845 0.0
C262 C 0.15261 0.31293 0.10009 0.0
C263 C 0.14743 0.31878 0.08308 0.0
C264 C 0.13895 0.32548 0.08869 0.0
C265 C 0.13591 0.32649 0.11141 0.0
C266 C 0.16109 0.30501 0.09412 0.0
C267 C 0.17739 0.3145 0.10093 0.0
C268 C 0.18223 0.31565 0.12374 0.0
C269 C 0.19736 0.32421 0.13016 0.0
C270 C 0.20766 0.3314 0.11347 0.0
C271 C 0.20314 0.32996 0.09062 0.0
C272 C 0.18797 0.32164 0.08441 0.0
H273 H 0.69842 0.84841 0.15835 0.0
H274 H 0.69492 0.83711 0.08688 0.0
H275 H 0.67767 0.80229 0.13513 0.0
H276 H 0.71468 0.86716 0.12963 0.0
H277 H 0.71007 0.86292 0.10012 0.0
H278 H 0.69707 0.87031 0.15515 0.0
H279 H 0.67253 0.88844 0.12254 0.0
H280 H 0.69238 0.8684 0.08237 0.0
C281 C 0.69443 0.84009 0.14451 0.0
C282 C 0.68726 0.82479 0.14929 0.0
C283 C 0.69679 0.84464 0.12195 0.0
C284 C 0.69247 0.83368 0.10418 0.0
C285 C 0.68589 0.81838 0.10897 0.0
C286 C 0.68281 0.8141 0.13141 0.0
C287 C 0.70522 0.86118 0.11711 0.0
C288 C 0.69545 0.86814 0.11863 0.0
C289 C 0.69249 0.87231 0.13988 0.0
C290 C 0.68398 0.8794 0.14149 0.0
C291 C 0.67843 0.88226 0.12155 0.0
C292 C 0.68144 0.8784 0.10022 0.0
C293 C 0.68987 0.87123 0.09882 0.0
H294 H 0.17006 0.8292 0.14768 0.0
H295 H 0.16834 0.82252 0.0753 0.0
H296 H 0.12815 0.80709 0.11098 0.0
H297 H 0.19093 0.82902 0.12615 0.0
H298 H 0.19125 0.83075 0.09621 0.0
H299 H 0.19234 0.85041 0.15156 0.0
H300 H 0.22049 0.89419 0.12652 0.0
H301 H 0.20383 0.85523 0.08153 0.0
C302 C 0.16381 0.82579 0.13168 0.0
C303 C 0.14829 0.81864 0.13164 0.0
C304 C 0.17123 0.82772 0.11137 0.0
C305 C 0.16283 0.82196 0.09087 0.0
C306 C 0.14726 0.81466 0.09066 0.0
C307 C 0.14017 0.81348 0.11098 0.0
C308 C 0.18783 0.83402 0.11204 0.0
C309 C 0.19631 0.85093 0.11575 0.0
C310 C 0.19759 0.85746 0.13748 0.0
C311 C 0.20606 0.87309 0.14133 0.0
C312 C 0.21356 0.88216 0.1234 0.0
C313 C 0.21319 0.87583 0.10196 0.0
C314 C 0.20411 0.86024 0.098 0.0
H315 H 0.34255 0.18151 0.85848 0.0
H316 H 0.35731 0.19103 0.92849 0.0
H317 H 0.32546 0.20242 0.90288 0.0
H318 H 0.36584 0.18296 0.87216 0.0
H319 H 0.37058 0.18468 0.90166 0.0
H320 H 0.35287 0.15864 0.8539 0.0
H321 H 0.34075 0.11992 0.89335 0.0
H322 H 0.35442 0.16278 0.92666 0.0
C323 C 0.34151 0.18516 0.87533 0.0
C324 C 0.33281 0.19194 0.8785 0.0
C325 C 0.3501 0.18446 0.89344 0.0
C326 C 0.34993 0.19058 0.91488 0.0
C327 C 0.34104 0.19709 0.91834 0.0
C328 C 0.332 0.19701 0.90036 0.0
C329 C 0.36109 0.17931 0.88906 0.0
C330 C 0.354 0.16247 0.89017 0.0
C331 C 0.35084 0.1535 0.87021 0.0
C332 C 0.34613 0.13814 0.87135 0.0
C333 C 0.34399 0.1317 0.89256 0.0
C334 C 0.34685 0.14041 0.91267 0.0
C335 C 0.35177 0.15582 0.91131 0.0
H336 H 0.85165 0.16017 0.87436 0.0
H337 H 0.85803 0.16921 0.94663 0.0
H338 H 0.87231 0.20553 0.90125 0.0
H339 H 0.85142 0.14129 0.9031 0.0
H340 H 0.84853 0.14389 0.93211 0.0
H341 H 0.83169 0.13551 0.87326 0.0
H342 H 0.78718 0.11569 0.89593 0.0
H343 H 0.82394 0.13765 0.94417 0.0
C344 C 0.85504 0.16796 0.88883 0.0
C345 C 0.86164 0.1834 0.8853 0.0
C346 C 0.85314 0.16265 0.91096 0.0
C347 C 0.8587 0.17308 0.92957 0.0
C348 C 0.86549 0.18856 0.92603 0.0
C349 C 0.86655 0.19353 0.90397 0.0
C350 C 0.84626 0.14599 0.91448 0.0
C351 C 0.82971 0.1378 0.90925 0.0
C352 C 0.82411 0.13322 0.8868 0.0
C353 C 0.80876 0.12556 0.8818 0.0
C354 C 0.79905 0.12231 0.89953 0.0
C355 C 0.80436 0.12651 0.92203 0.0
C356 C 0.81974 0.1344 0.92681 0.0
H357 H 0.82854 0.65302 0.87031 0.0
H358 H 0.83599 0.64374 0.93855 0.0
H359 H 0.87253 0.67491 0.90016 0.0
H360 H 0.81154 0.62719 0.89221 0.0
H361 H 0.81172 0.62982 0.92208 0.0
H362 H 0.80295 0.64003 0.86604 0.0
H363 H 0.77547 0.65592 0.89402 0.0
H364 H 0.80096 0.64413 0.93846 0.0
C365 C 0.83582 0.65539 0.88503 0.0
C366 C 0.85105 0.66543 0.88334 0.0
C367 C 0.83017 0.64782 0.90513 0.0
C368 C 0.84009 0.65011 0.92343 0.0
C369 C 0.85541 0.66001 0.92181 0.0
C370 C 0.86067 0.66791 0.90196 0.0
C371 C 0.81401 0.6358 0.90592 0.0
C372 C 0.80369 0.64202 0.90263 0.0
C373 C 0.79911 0.64343 0.88066 0.0
C374 C 0.78897 0.64849 0.87752 0.0
C375 C 0.78353 0.65228 0.89644 0.0
C376 C 0.78771 0.65068 0.91841 0.0
C377 C 0.79789 0.64564 0.92149 0.0
H378 H 0.82439 0.65184 0.47101 0.0
H379 H 0.81647 0.65087 0.39892 0.0
H380 H 0.8011 0.67291 0.44432 0.0
H381 H 0.82399 0.63168 0.44154 0.0
H382 H 0.82788 0.63738 0.41307 0.0
H383 H 0.84262 0.64579 0.47315 0.0
H384 H 0.88795 0.67167 0.45453 0.0
H385 H 0.85299 0.65588 0.40327 0.0
C386 C 0.82047 0.65528 0.45651 0.0
C387 C 0.81322 0.66348 0.46006 0.0
C388 C 0.82222 0.65113 0.43444 0.0
C389 C 0.81588 0.65466 0.41591 0.0
C390 C 0.80833 0.66264 0.41939 0.0
C391 C 0.80744 0.66732 0.44144 0.0
C392 C 0.8295 0.6417 0.43093 0.0
C393 C 0.84587 0.65036 0.43757 0.0
C394 C 0.85066 0.65139 0.46036 0.0
C395 C 0.86582 0.65944 0.4667 0.0
C396 C 0.8762 0.66616 0.44994 0.0
C397 C 0.87171 0.66479 0.4271 0.0
C398 C 0.85651 0.65702 0.42095 0.0
H399 H 0.36128 0.17782 0.4816 0.0
H400 H 0.35292 0.16829 0.40967 0.0
H401 H 0.33591 0.13215 0.45561 0.0
H402 H 0.37646 0.19687 0.45373 0.0
H403 H 0.37183 0.19321 0.42411 0.0
H404 H 0.36176 0.20346 0.47902 0.0
H405 H 0.33588 0.2204 0.44713 0.0
H406 H 0.35282 0.19751 0.40682 0.0
C407 C 0.35603 0.16981 0.46745 0.0
C408 C 0.348 0.15435 0.47135 0.0
C409 C 0.35764 0.17495 0.44524 0.0
C410 C 0.35131 0.16446 0.42685 0.0
C411 C 0.34323 0.149 0.43062 0.0
C412 C 0.34148 0.14412 0.45284 0.0
C413 C 0.36698 0.1915 0.4411 0.0
C414 C 0.3579 0.19919 0.44285 0.0
C415 C 0.35636 0.20471 0.46402 0.0
C416 C 0.34863 0.21262 0.46562 0.0
C417 C 0.34185 0.21428 0.44603 0.0
C418 C 0.34334 0.20895 0.42483 0.0
C419 C 0.3514 0.2014 0.42325 0.0
H420 H 0.83986 0.16276 0.47843 0.0
H421 H 0.83476 0.14977 0.4076 0.0
H422 H 0.79642 0.13576 0.44755 0.0
H423 H 0.8598 0.16026 0.45504 0.0
H424 H 0.85896 0.16193 0.42517 0.0
H425 H 0.86495 0.18151 0.48152 0.0
H426 H 0.88571 0.22532 0.45368 0.0
H427 H 0.86501 0.18594 0.40927 0.0
C428 C 0.83283 0.15759 0.46337 0.0
C429 C 0.81739 0.14987 0.46515 0.0
C430 C 0.83922 0.15795 0.44255 0.0
C431 C 0.82993 0.1502 0.42344 0.0
C432 C 0.81442 0.1423 0.42506 0.0
C433 C 0.80831 0.14258 0.44583 0.0
C434 C 0.85585 0.16493 0.44153 0.0
C435 C 0.86367 0.18182 0.44502 0.0
C436 C 0.86761 0.18852 0.467 0.0
C437 C 0.87525 0.20423 0.47027 0.0
C438 C 0.87905 0.2132 0.45131 0.0
C439 C 0.87556 0.20673 0.4293 0.0
C440 C 0.86764 0.19102 0.42624 0.0
H441 H 0.02208 0.52134 0.19147 0.0
H442 H 0.0288 0.52444 0.2638 0.0
H443 H 1.00048 0.53884 0.23325 0.0
H444 H 0.04227 0.51921 0.20901 0.0
H445 H 0.04489 0.52012 0.23906 0.0
H446 H 0.02707 0.49531 0.18883 0.0
H447 H 0.01055 0.45504 0.2264 0.0
H448 H 0.0289 0.4979 0.2618 0.0
C449 C 0.01923 0.52363 0.20801 0.0
C450 C 0.01045 0.53043 0.20989 0.0
C451 C 0.02553 0.52103 0.22744 0.0
C452 C 0.02311 0.5254 0.24891 0.0
C453 C 0.01407 0.53185 0.25102 0.0
C454 C 0.0072 0.53356 0.23157 0.0
C455 C 0.03629 0.51537 0.22503 0.0
C456 C 0.02835 0.49845 0.22526 0.0
C457 C 0.02448 0.48978 0.20484 0.0
C458 C 0.01827 0.4741 0.20515 0.0
C459 C 0.01517 0.46712 0.22599 0.0
C460 C 0.0189 0.47561 0.24639 0.0
C461 C 0.02553 0.49128 0.24601 0.0
H462 H 0.52042 0.49114 0.21177 0.0
H463 H 0.51752 0.49775 0.28344 0.0
H464 H 0.54327 0.5356 0.2428 0.0
H465 H 0.5122 0.47002 0.23871 0.0
H466 H 0.50855 0.47261 0.26731 0.0
H467 H 0.49559 0.46998 0.20672 0.0
H468 H 0.4503 0.45306 0.22412 0.0
H469 H 0.48434 0.46813 0.2767 0.0
C470 C 0.52293 0.49858 0.2265 0.0
C471 C 0.53251 0.5141 0.22471 0.0
C472 C 0.51722 0.49257 0.24759 0.0
C473 C 0.52134 0.50227 0.26699 0.0
C474 C 0.53076 0.51778 0.26512 0.0
C475 C 0.53595 0.52356 0.24399 0.0
C476 C 0.50785 0.47577 0.24964 0.0
C477 C 0.49185 0.47016 0.24248 0.0
C478 C 0.48743 0.46765 0.21937 0.0
C479 C 0.47246 0.46171 0.21258 0.0
C480 C 0.46197 0.45841 0.22915 0.0
C481 C 0.46611 0.4606 0.25224 0.0
C482 C 0.48111 0.46661 0.25886 0.0
H483 H 0.49275 0.97815 0.19542 0.0
H484 H 0.49954 0.97355 0.26627 0.0
H485 H 0.53643 0.00227 0.22622 0.0
H486 H 0.47487 0.95498 0.21886 0.0
H487 H 0.47566 0.9577 0.24884 0.0
H488 H 0.46779 0.9698 0.19336 0.0
H489 H 0.44042 0.98536 0.22272 0.0
H490 H 0.46446 0.97113 0.26587 0.0
C491 C 0.49988 0.98155 0.21055 0.0
C492 C 0.5151 0.99156 0.20882 0.0
C493 C 0.49405 0.97538 0.23142 0.0
C494 C 0.5038 0.97888 0.25042 0.0
C495 C 0.51914 0.98864 0.2487 0.0
C496 C 0.52456 0.99529 0.22801 0.0
C497 C 0.47782 0.96365 0.23266 0.0
C498 C 0.46787 0.97036 0.22999 0.0
C499 C 0.46381 0.97276 0.20825 0.0
C500 C 0.45392 0.97818 0.20559 0.0
C501 C 0.44827 0.98141 0.22478 0.0
C502 C 0.45194 0.97886 0.24651 0.0
C503 C 0.46182 0.97339 0.24911 0.0
H504 H 0.49153 0.9838 0.8037 0.0
H505 H 0.48495 0.98791 0.73248 0.0
H506 H 0.47133 0.00914 0.78227 0.0
H507 H 0.49165 0.9658 0.77241 0.0
H508 H 0.49442 0.97187 0.74396 0.0
H509 H 0.51149 0.98021 0.80295 0.0
H510 H 0.55592 0.00596 0.78028 0.0
H511 H 0.51911 0.98971 0.7323 0.0
C512 C 0.48826 0.98858 0.79016 0.0
C513 C 0.4819 0.99739 0.79553 0.0
C514 C 0.49 0.98559 0.76744 0.0
C515 C 0.48443 0.99081 0.75003 0.0
C516 C 0.47778 0.99943 0.75538 0.0
C517 C 0.47698 0.003 0.77809 0.0
C518 C 0.49679 0.97594 0.762 0.0
C519 C 0.51335 0.98442 0.76716 0.0
C520 C 0.51901 0.98565 0.78948 0.0
C521 C 0.53437 0.99372 0.79446 0.0
C522 C 0.54403 1.00034 0.77682 0.0
C523 C 0.53864 0.99879 0.75445 0.0
C524 C 0.52329 0.99095 0.74964 0.0
H525 H 0.03147 0.51536 0.81173 0.0
H526 H 0.02334 0.50572 0.73975 0.0
H527 H 0.00715 0.4696 0.78561 0.0
H528 H 0.04629 0.53464 0.78388 0.0
H529 H 0.04172 0.53092 0.75426 0.0
H530 H 0.03168 0.54125 0.80893 0.0
H531 H 0.00405 0.55613 0.77698 0.0
H532 H 0.02173 0.53381 0.73703 0.0
C533 C 0.02645 0.50732 0.79756 0.0
C534 C 0.01879 0.49185 0.80145 0.0
C535 C 0.02794 0.51244 0.77534 0.0
C536 C 0.02186 0.50193 0.75694 0.0
C537 C 0.01424 0.4865 0.76077 0.0
C538 C 0.01258 0.48158 0.78293 0.0
C539 C 0.03684 0.52904 0.77125 0.0
C540 C 0.0273 0.53621 0.77296 0.0
C541 C 0.02585 0.54196 0.79401 0.0
C542 C 0.01769 0.54943 0.7955 0.0
C543 C 0.01036 0.55036 0.77598 0.0
C544 C 0.01183 0.5449 0.75487 0.0
C545 C 0.02031 0.53779 0.75339 0.0
H546 H 0.50483 0.49911 0.82084 0.0
H547 H 0.50014 0.47708 0.75591 0.0
H548 H 0.46176 0.4717 0.78939 0.0
H549 H 0.52347 0.49065 0.80367 0.0
H550 H 0.52397 0.49038 0.77366 0.0
H551 H 0.5291 0.51438 0.82567 0.0
H552 H 0.55917 0.5551 0.79394 0.0
H553 H 0.53647 0.51366 0.75431 0.0
C554 C 0.49809 0.4928 0.80609 0.0
C555 C 0.48266 0.48633 0.80683 0.0
C556 C 0.50463 0.49011 0.78731 0.0
C557 C 0.49536 0.48029 0.76948 0.0
C558 C 0.47984 0.47337 0.77041 0.0
C559 C 0.47373 0.47722 0.78846 0.0
C560 C 0.52104 0.49522 0.78832 0.0
C561 C 0.53089 0.51216 0.78955 0.0
C562 C 0.53398 0.52023 0.81045 0.0
C563 C 0.54373 0.53582 0.81196 0.0
C564 C 0.55101 0.5432 0.79266 0.0
C565 C 0.54866 0.53525 0.77201 0.0
C566 C 0.53819 0.51984 0.77025 0.0
H567 H 0.67483 0.8425 0.52603 0.0
H568 H 0.686 0.85396 0.59696 0.0
H569 H 0.65619 0.86515 0.56279 0.0
H570 H 0.69874 0.84624 0.54477 0.0
H571 H 0.70059 0.84686 0.57485 0.0
H572 H 0.68106 0.82255 0.52349 0.0
H573 H 0.67071 0.78204 0.5571 0.0
H574 H 0.68928 0.82395 0.59545 0.0
C575 C 0.67318 0.8468 0.54192 0.0
C576 C 0.66399 0.85317 0.54228 0.0
C577 C 0.68097 0.84682 0.56167 0.0
C578 C 0.6795 0.85329 0.58194 0.0
C579 C 0.67043 0.8598 0.58252 0.0
C580 C 0.66245 0.85932 0.56277 0.0
C581 C 0.69237 0.8419 0.56034 0.0
C582 C 0.68526 0.82501 0.55973 0.0
C583 C 0.68026 0.81677 0.53895 0.0
C584 C 0.67485 0.80121 0.53792 0.0
C585 C 0.67437 0.79395 0.55791 0.0
C586 C 0.67981 0.80206 0.57865 0.0
C587 C 0.6848 0.81754 0.5796 0.0
H588 H 0.18761 0.82557 0.54524 0.0
H589 H 0.18661 0.83398 0.61682 0.0
H590 H 0.20885 0.87086 0.57291 0.0
H591 H 0.18231 0.80584 0.57404 0.0
H592 H 0.17853 0.80876 0.6024 0.0
H593 H 0.16395 0.8002 0.54256 0.0
H594 H 0.11893 0.78369 0.56126 0.0
H595 H 0.15433 0.80529 0.61168 0.0
C596 C 0.19007 0.83338 0.55949 0.0
C597 C 0.19875 0.84888 0.55653 0.0
C598 C 0.1854 0.82788 0.58117 0.0
C599 C 0.18956 0.8381 0.59993 0.0
C600 C 0.1979 0.85365 0.59691 0.0
C601 C 0.20209 0.85886 0.57515 0.0
C602 C 0.1773 0.81116 0.58448 0.0
C603 C 0.16104 0.80408 0.5777 0.0
C604 C 0.15606 0.79896 0.55514 0.0
C605 C 0.14083 0.79138 0.54919 0.0
C606 C 0.13072 0.78963 0.5657 0.0
C607 C 0.13546 0.79453 0.58819 0.0
C608 C 0.15065 0.80178 0.59417 0.0
H609 H 0.16119 0.32144 0.53797 0.0
H610 H 0.17015 0.31498 0.60708 0.0
H611 H 0.20596 0.34261 0.56462 0.0
H612 H 0.14382 0.29748 0.56274 0.0
H613 H 0.14538 0.30129 0.59249 0.0
H614 H 0.13553 0.31054 0.53647 0.0
H615 H 0.11119 0.32985 0.56549 0.0
H616 H 0.13667 0.31746 0.6089 0.0
C617 C 0.16886 0.32415 0.5523 0.0
C618 C 0.1841 0.3334 0.54928 0.0
C619 C 0.16364 0.31783 0.57336 0.0
C620 C 0.17397 0.32046 0.59119 0.0
C621 C 0.18929 0.32949 0.58819 0.0
C622 C 0.19415 0.33626 0.56742 0.0
C623 C 0.14734 0.30669 0.57585 0.0
C624 C 0.13774 0.31378 0.57296 0.0
C625 C 0.13259 0.31481 0.5512 0.0
C626 C 0.12302 0.32059 0.54846 0.0
C627 C 0.11876 0.32557 0.56755 0.0
C628 C 0.12358 0.32445 0.58934 0.0
C629 C 0.13313 0.31859 0.59203 0.0
H630 H 0.01562 0.38557 0.04437 0.0
H631 H 0.01899 0.40102 0.07862 0.0
H632 H 0.98446 0.40916 0.05393 0.0
H633 H 0.98076 0.39358 0.02017 0.0
H634 H 0.02728 0.43076 0.08174 0.0
H635 H 0.97189 0.39709 0.11753 0.0
H636 H 0.97834 0.3898 0.09522 0.0
H637 H 0.97078 0.40172 0.08877 0.0
C638 C 0.0086 0.39047 0.04639 0.0
C639 C 0.99787 0.38824 0.0295 0.0
C640 C 0.01056 0.39933 0.06594 0.0
C641 C 0.00181 0.40606 0.06901 0.0
C642 C 0.99108 0.40379 0.05224 0.0
H643 H 0.00466 0.47364 0.16454 0.0
H644 H 1.00096 0.45759 0.13061 0.0
C645 C 0.98905 0.39491 0.03282 0.0
C646 C 0.00435 0.41611 0.08909 0.0
H647 H 0.98689 0.42219 0.13288 0.0
C648 C 0.01848 0.42882 0.09301 0.0
C649 C 0.99284 0.41359 0.10378 0.0
C650 C 0.97766 0.39973 0.10127 0.0
C651 C 0.02132 0.43918 0.11099 0.0
C652 C 0.00975 0.43677 0.12536 0.0
C653 C 0.99566 0.42407 0.12156 0.0
C654 C 0.01234 0.44685 0.14528 0.0
C655 C 0.03662 0.45273 0.1145 0.0
C656 C 0.01993 0.44604 0.16456 0.0
C657 C 0.02194 0.45504 0.18382 0.0
C658 C 0.01641 0.46504 0.18418 0.0
C659 C 0.00904 0.46604 0.16467 0.0
C660 C 0.00689 0.45689 0.14539 0.0
H661 H 0.04376 0.45416 0.10002 0.0
H662 H 0.03589 0.46308 0.11699 0.0
H663 H 0.04202 0.45145 0.13002 0.0
H664 H 0.02416 0.43832 0.16476 0.0
H665 H 0.02785 0.45418 0.1985 0.0
H666 H 0.60486 0.62011 0.10479 0.0
H667 H 0.5869 0.59785 0.12424 0.0
H668 H 0.5936 0.56944 0.07684 0.0
H669 H 0.6122 0.59173 0.05825 0.0
H670 H 0.56144 0.57352 0.11354 0.0
H671 H 0.60291 0.55622 0.13432 0.0
H672 H 0.60799 0.57391 0.12189 0.0
H673 H 0.59973 0.55682 0.10455 0.0
C674 C 0.60246 0.6091 0.09854 0.0
C675 C 0.61009 0.60763 0.08034 0.0
C676 C 0.59217 0.59638 0.10959 0.0
C677 C 0.58916 0.58196 0.10237 0.0
C678 C 0.59611 0.58045 0.08324 0.0
H679 H 0.52032 0.50858 0.18122 0.0
H680 H 0.53261 0.52206 0.14727 0.0
C681 C 0.60667 0.59319 0.07255 0.0
C682 C 0.57931 0.56872 0.11562 0.0
H683 H 0.57887 0.54094 0.14679 0.0
C684 C 0.56519 0.56631 0.1207 0.0
C685 C 0.58423 0.55931 0.12496 0.0
C686 C 0.59958 0.56174 0.12135 0.0
C687 C 0.5562 0.55533 0.13578 0.0
C688 C 0.56126 0.54613 0.14543 0.0
C689 C 0.57498 0.54794 0.13926 0.0
C690 C 0.55386 0.53644 0.16467 0.0
C691 C 0.54184 0.55437 0.14235 0.0
C692 C 0.56191 0.53943 0.1853 0.0
C693 C 0.55507 0.53159 0.20436 0.0
C694 C 0.53992 0.52068 0.2034 0.0
C695 C 0.53198 0.51703 0.18247 0.0
C696 C 0.53894 0.52484 0.16317 0.0
H697 H 0.54096 0.56411 0.13659 0.0
H698 H 0.53238 0.54399 0.13447 0.0
H699 H 0.5408 0.55385 0.16099 0.0
H700 H 0.57345 0.54823 0.18689 0.0
H701 H 0.5616 0.53439 0.2201 0.0
H702 H 0.42471 0.02662 0.02468 0.0
H703 H 0.43495 0.01914 0.05586 0.0
H704 H 0.39083 0.98523 0.07266 0.0
H705 H 0.38041 0.99241 0.04099 0.0
H706 H 0.43081 0.01948 0.10061 0.0
H707 H 0.41192 0.96114 0.06934 0.0
H708 H 0.41126 0.97493 0.05173 0.0
H709 H 0.39715 0.96522 0.07182 0.0
C710 C 0.41712 0.01756 0.03495 0.0
C711 C 0.4017 0.01007 0.03023 0.0
C712 C 0.42303 0.01329 0.05278 0.0
C713 C 0.41369 0.00145 0.06632 0.0
C714 C 0.39827 0.99414 0.06204 0.0
H715 H 0.42539 0.96675 0.19038 0.0
H716 H 0.4165 0.97195 0.15497 0.0
C717 C 0.39232 0.99835 0.04406 0.0
C718 C 0.42017 0.99714 0.08528 0.0
H719 H 0.42223 0.9677 0.10708 0.0
C720 C 0.42904 0.00819 0.10192 0.0
C721 C 0.41791 0.98241 0.08687 0.0
C722 C 0.40916 0.97027 0.06888 0.0
C723 C 0.43539 0.00484 0.12043 0.0
C724 C 0.43289 0.99007 0.12222 0.0
C725 C 0.42415 0.97903 0.10552 0.0
C726 C 0.43841 0.9857 0.14223 0.0
C727 C 0.44436 0.01698 0.13832 0.0
C728 C 0.45366 0.99137 0.14639 0.0
C729 C 0.45877 0.98837 0.16661 0.0
C730 C 0.44868 0.97978 0.18292 0.0
C731 C 0.43339 0.97357 0.17817 0.0
C732 C 0.42831 0.97646 0.15796 0.0
H733 H 0.44337 0.02716 0.13615 0.0
H734 H 0.44074 0.01274 0.15547 0.0
H735 H 0.45623 0.02029 0.13736 0.0
H736 H 0.46159 0.99843 0.13428 0.0
H737 H 0.4706 0.99327 0.16992 0.0
H738 H 0.38897 0.97947 0.94038 0.0
H739 H 0.40916 0.9794 0.92012 0.0
H740 H 0.42905 0.02709 0.91124 0.0
H741 H 0.40881 0.02723 0.931 0.0
H742 H 0.42475 0.01021 0.87155 0.0
H743 H 0.45314 0.99554 0.93846 0.0
H744 H 0.4334 0.9832 0.9355 0.0
H745 H 0.44068 0.00247 0.9448 0.0
C746 C 0.3977 0.98996 0.93426 0.0
C747 C 0.39732 0.00337 0.93734 0.0
C748 C 0.40931 0.98993 0.92292 0.0
C749 C 0.42072 0.00329 0.91459 0.0
C750 C 0.42042 0.0167 0.91781 0.0
H751 H 0.48884 0.02339 0.81868 0.0
H752 H 0.4763 0.02561 0.85183 0.0
C753 C 0.40885 0.01675 0.92912 0.0
C754 C 0.43217 0.0031 0.90055 0.0
H755 H 0.46038 0.99521 0.90057 0.0
C756 C 0.43264 0.00708 0.87795 0.0
C757 C 0.44233 0.99888 0.90897 0.0
C758 C 0.4425 0.99489 0.93331 0.0
C759 C 0.44283 0.0067 0.86335 0.0
C760 C 0.45304 0.00254 0.87174 0.0
C761 C 0.45261 0.99854 0.89434 0.0
C762 C 0.46367 0.00165 0.85661 0.0
C763 C 0.44227 0.01035 0.83886 0.0
C764 C 0.46151 0.98756 0.84954 0.0
C765 C 0.46879 0.98629 0.8308 0.0
C766 C 0.47823 0.99912 0.81895 0.0
C767 C 0.48155 0.01336 0.82754 0.0
C768 C 0.47438 0.01462 0.84638 0.0
H769 H 0.43178 0.01013 0.83411 0.0
H770 H 0.45162 0.02179 0.83599 0.0
H771 H 0.44338 0.00227 0.82743 0.0
H772 H 0.45328 0.97744 0.85729 0.0
H773 H 0.46599 0.97519 0.82437 0.0
H774 H 0.99221 0.38755 0.92571 0.0
H775 H 0.99479 0.40961 0.90683 0.0
H776 H 0.04018 0.43556 0.93215 0.0
H777 H 0.03774 0.41352 0.95101 0.0
H778 H 0.00311 0.43912 0.92432 0.0
H779 H 0.04308 0.43952 0.86308 0.0
H780 H 0.03212 0.42361 0.88014 0.0
H781 H 0.04806 0.44003 0.89251 0.0
C782 C 0.00271 0.39797 0.92743 0.0
C783 C 0.01479 0.39876 0.9398 0.0
C784 C 0.00416 0.41057 0.91664 0.0
C785 C 0.01771 0.42416 0.91791 0.0
C786 C 0.02969 0.42511 0.93069 0.0
H787 H 0.04197 0.50055 0.83203 0.0
H788 H 0.04252 0.48683 0.86507 0.0
C789 C 0.02826 0.4125 0.94147 0.0
C790 C 0.01938 0.43711 0.90509 0.0
H791 H 0.03636 0.45804 0.8597 0.0
C792 C 0.01048 0.44337 0.91031 0.0
C793 C 0.02906 0.44268 0.88692 0.0
C794 C 0.03857 0.43608 0.88013 0.0
C795 C 0.01077 0.45487 0.89751 0.0
C796 C 0.02003 0.46002 0.87879 0.0
C797 C 0.02933 0.45414 0.87414 0.0
C798 C 0.01914 0.47022 0.86225 0.0
C799 C 1.00109 0.46128 0.90406 0.0
C800 C 0.00573 0.46574 0.85016 0.0
C801 C 0.00538 0.47359 0.83143 0.0
C802 C 0.01847 0.486 0.82427 0.0
C803 C 0.03169 0.49112 0.83729 0.0
C804 C 0.03204 0.48324 0.85607 0.0
H805 H 0.99897 0.46025 0.92243 0.0
H806 H 0.00621 0.47331 0.89987 0.0
H807 H 0.99022 0.4549 0.89469 0.0
H808 H 0.9957 0.45558 0.85427 0.0
H809 H 0.99503 0.46943 0.82173 0.0
H810 H 0.62081 0.61848 0.98039 0.0
H811 H 0.60817 0.6034 0.94603 0.0
H812 H 0.56846 0.60414 0.96273 0.0
H813 H 0.5809 0.61899 -0.00262 0.0
H814 H 0.56282 0.57589 0.9513 0.0
H815 H 0.59738 0.61567 0.88712 0.0
H816 H 0.60809 0.61213 0.90771 0.0
H817 H 0.59811 0.62137 0.91643 0.0
C818 C 0.60945 0.61563 0.97665 0.0
C819 C 0.60189 0.61999 0.99167 0.0
C820 C 0.60226 0.60704 0.95692 0.0
C821 C 0.58743 0.6028 0.95168 0.0
C822 C 0.57992 0.60732 0.96643 0.0
H823 H 0.5448 0.5625 0.82044 0.0
H824 H 0.55377 0.57833 0.85522 0.0
C825 C 0.58707 0.61585 0.98621 0.0
C826 C 0.57954 0.59303 0.9314 0.0
H827 H 0.58127 0.59025 0.8741 0.0
C828 C 0.56677 0.57907 0.93438 0.0
C829 C 0.5846 0.59729 0.90933 0.0
C830 C 0.59771 0.61249 0.90488 0.0
C831 C 0.55913 0.56907 0.91593 0.0
C832 C 0.56461 0.57303 0.894 0.0
C833 C 0.57716 0.58716 0.89096 0.0
C834 C 0.55767 0.56269 0.87391 0.0
C835 C 0.54521 0.55444 0.9201 0.0
C836 C 0.55668 0.54854 0.87297 0.0
C837 C 0.55146 0.53943 0.85316 0.0
C838 C 0.54735 0.54444 0.83387 0.0
C839 C 0.54797 0.55842 0.83505 0.0
C840 C 0.55309 0.56745 0.85488 0.0
H841 H 0.54013 0.55511 0.93607 0.0
H842 H 0.53688 0.55121 0.90592 0.0
H843 H 0.54803 0.5454 0.92163 0.0
H844 H 0.56048 0.54477 0.88726 0.0
H845 H 0.55131 0.52882 0.8526 0.0
H846 H 0.03657 0.62168 0.98448 0.0
H847 H 0.03592 0.60764 0.95049 0.0
H848 H 0.99802 0.60957 0.92402 0.0
H849 H 0.99838 0.62357 0.95848 0.0
H850 H 0.99513 0.5808 0.91963 0.0
H851 H 0.04884 0.62466 0.88816 0.0
H852 H 0.05019 0.61998 0.91684 0.0
H853 H 0.03926 0.62855 0.90997 0.0
C854 C 0.0281 0.61926 0.97145 0.0
C855 C 0.01756 0.62388 0.97422 0.0
C856 C 0.02781 0.61124 0.95195 0.0
C857 C 0.01708 0.60777 0.9346 0.0
C858 C 0.00645 0.61224 0.93722 0.0
H859 H 0.02145 0.57756 0.79959 0.0
H860 H 0.02051 0.59079 0.83354 0.0
C861 C 0.00671 0.62027 0.95686 0.0
C862 C 0.01696 0.59927 0.91396 0.0
H863 H 0.03856 0.60017 0.87084 0.0
C864 C 0.00456 0.58505 0.90883 0.0
C865 C 0.02926 0.6049 0.89987 0.0
C866 C 0.04258 0.62042 0.90382 0.0
C867 C 0.00423 0.57619 0.89013 0.0
C868 C 0.01675 0.58162 0.8765 0.0
C869 C 0.02905 0.59593 0.88149 0.0
C870 C 0.01703 0.57313 0.85609 0.0
C871 C 0.99039 0.56124 0.88488 0.0
C872 C 0.01559 0.55882 0.85748 0.0
C873 C 0.01594 0.55106 0.8379 0.0
C874 C 0.01778 0.55755 0.81668 0.0
C875 C 0.01962 0.57205 0.81556 0.0
C876 C 0.0192 0.57971 0.835 0.0
H877 H 0.98066 0.56038 0.89353 0.0
H878 H 0.98776 0.55943 0.86638 0.0
H879 H 0.9922 0.55209 0.89077 0.0
H880 H 0.01425 0.55367 0.87369 0.0
H881 H 0.01456 0.53995 0.83931 0.0
H882 H 0.38455 0.41657 0.95337 0.0
H883 H 0.40235 0.43889 0.93377 0.0
H884 H 0.42053 0.41344 0.90327 0.0
H885 H 0.40281 0.39108 0.92272 0.0
H886 H 0.43621 0.45338 0.93324 0.0
H887 H 0.40557 0.43092 0.85047 0.0
H888 H 0.39704 0.42425 0.87721 0.0
H889 H 0.40902 0.41804 0.86595 0.0
C890 C 0.39238 0.41574 0.94257 0.0
C891 C 0.39224 0.40204 0.93948 0.0
C892 C 0.40256 0.42851 0.9315 0.0
C893 C 0.41264 0.42773 0.91706 0.0
C894 C 0.41275 0.41419 0.91433 0.0
H895 H 0.4891 0.47945 0.84806 0.0
H896 H 0.47219 0.46962 0.87892 0.0
C897 C 0.40265 0.40145 0.92547 0.0
C898 C 0.42263 0.44079 0.9039 0.0
H899 H 0.43003 0.45174 0.84962 0.0
C900 C 0.4348 0.4532 0.91498 0.0
C901 C 0.42054 0.4406 0.88022 0.0
C902 C 0.40727 0.42781 0.8677 0.0
C903 C 0.44547 0.46508 0.90267 0.0
C904 C 0.44393 0.46436 0.87878 0.0
C905 C 0.43125 0.45234 0.86795 0.0
C906 C 0.456 0.47465 0.86426 0.0
C907 C 0.45842 0.4781 0.91532 0.0
C908 C 0.45289 0.4814 0.84617 0.0
C909 C 0.46255 0.48697 0.82835 0.0
C910 C 0.47545 0.48583 0.82836 0.0
C911 C 0.47935 0.48066 0.84768 0.0
C912 C 0.46965 0.47503 0.86543 0.0
H913 H 0.45532 0.47988 0.93248 0.0
H914 H 0.46756 0.47558 0.91743 0.0
H915 H 0.4626 0.48866 0.90605 0.0
H916 H 0.44241 0.48123 0.84493 0.0
H917 H 0.45932 0.49096 0.81369 0.0
H918 H 0.62083 0.01315 0.96777 0.0
H919 H 0.60769 0.01496 0.93411 0.0
H920 H 0.57183 0.96986 0.94299 0.0
H921 H 0.58467 0.96801 0.97663 0.0
H922 H 0.59747 0.99769 0.89394 0.0
H923 H 0.55042 0.99385 0.94116 0.0
H924 H 0.5675 0.99729 0.95507 0.0
H925 H 0.55361 0.9785 0.94592 0.0
C926 C 0.6102 0.00358 0.96245 0.0
C927 C 0.60374 0.9905 0.97506 0.0
C928 C 0.60269 0.00465 0.94327 0.0
C929 C 0.58861 0.99268 0.93643 0.0
C930 C 0.58248 0.97939 0.94836 0.0
H931 H 0.52602 0.97092 0.82398 0.0
H932 H 0.53897 0.97147 0.85946 0.0
C933 C 0.58991 0.97833 0.96753 0.0
C934 C 0.58027 0.99397 0.91679 0.0
H935 H 0.54721 0.99121 0.9009 0.0
C936 C 0.58655 0.99642 0.89548 0.0
C937 C 0.56602 0.99233 0.91888 0.0
C938 C 0.55904 0.99049 0.94152 0.0
C939 C 0.57876 0.99681 0.87607 0.0
C940 C 0.5644 0.99487 0.87811 0.0
C941 C 0.55819 0.99262 0.89943 0.0
C942 C 0.55565 0.99499 0.85815 0.0
C943 C 0.58576 0.9989 0.8534 0.0
C944 C 0.56041 0.00818 0.84626 0.0
C945 C 0.55298 0.00793 0.82617 0.0
C946 C 0.54065 0.99448 0.81758 0.0
C947 C 0.5354 0.98147 0.83023 0.0
C948 C 0.54285 0.98175 0.85039 0.0
H949 H 0.59551 0.99725 0.85408 0.0
H950 H 0.57758 0.99093 0.84037 0.0
H951 H 0.58953 0.01049 0.84795 0.0
H952 H 0.57011 0.01857 0.85223 0.0
H953 H 0.55713 0.01819 0.81699 0.0
H954 H 0.59566 0.98422 0.07243 0.0
H955 H 0.5757 0.98516 0.09174 0.0
H956 H 0.59794 0.0332 0.08534 0.0
H957 H 0.6179 0.03238 0.06541 0.0
H958 H 0.58953 0.01943 0.13214 0.0
H959 H 0.5434 0.9967 0.06699 0.0
H960 H 0.55409 0.98736 0.06898 0.0
H961 H 0.56272 0.00633 0.05987 0.0
C962 C 0.59623 0.99496 0.07467 0.0
C963 C 0.60836 0.00821 0.06724 0.0
C964 C 0.58477 0.99546 0.08567 0.0
C965 C 0.58529 0.00922 0.08961 0.0
C966 C 0.59729 0.02247 0.08213 0.0
H967 H 0.53338 0.02002 0.19511 0.0
H968 H 0.54935 0.02692 0.1625 0.0
C969 C 0.60869 0.02196 0.07085 0.0
C970 C 0.57406 0.00978 0.10368 0.0
H971 H 0.5371 0.99786 0.10512 0.0
C972 C 0.57811 0.015 0.12622 0.0
C973 C 0.55922 0.00385 0.09578 0.0
C974 C 0.55452 0.99831 0.07153 0.0
C975 C 0.56749 0.01365 0.14156 0.0
C976 C 0.55249 0.00739 0.13384 0.0
C977 C 0.54859 0.00276 0.11096 0.0
C978 C 0.54056 0.00397 0.14986 0.0
C979 C 0.57233 0.01799 0.16617 0.0
C980 C 0.52946 0.98896 0.15234 0.0
C981 C 0.52007 0.98508 0.17051 0.0
C982 C 0.52176 0.99615 0.18656 0.0
C983 C 0.53196 0.01131 0.18295 0.0
C984 C 0.54115 0.01522 0.1645 0.0
H985 H 0.58343 0.01931 0.16998 0.0
H986 H 0.57302 0.0289 0.17038 0.0
H987 H 0.56426 0.00942 0.17738 0.0
H988 H 0.52874 0.9801 0.14117 0.0
H989 H 0.51237 0.9733 0.17306 0.0
H990 H 0.01987 0.61616 0.04839 0.0
H991 H 0.02012 0.59548 0.06756 0.0
H992 H 0.97934 0.58525 0.09926 0.0
H993 H 0.97869 0.60541 0.07898 0.0
H994 H 0.02368 0.59388 0.10916 0.0
H995 H 0.97005 0.54374 0.08492 0.0
H996 H 0.97686 0.56113 0.07045 0.0
H997 H 0.96687 0.55817 0.09611 0.0
C998 C 0.01091 0.60939 0.05929 0.0
C999 C 0.99936 0.61245 0.06249 0.0
C1000 C 0.01098 0.5975 0.07011 0.0
C1001 C 0.99965 0.58861 0.08469 0.0
C1002 C 0.98796 0.59155 0.08757 0.0
H1003 H 0.01126 0.55733 0.20793 0.0
H1004 H 0.00783 0.56906 0.1752 0.0
C1005 C 0.98769 0.6032 0.07623 0.0
C1006 C 1.00105 0.57763 0.09896 0.0
H1007 H 0.98132 0.54292 0.12125 0.0
C1008 C 0.01448 0.58262 0.11133 0.0
C1009 C 0.98922 0.56278 0.10163 0.0
C1010 C 0.97502 0.55611 0.08733 0.0
C1011 C 0.01608 0.57361 0.12723 0.0
C1012 C 0.00376 0.55943 0.13158 0.0
C1013 C 0.99065 0.55394 0.11821 0.0
C1014 C 0.00398 0.55105 0.15146 0.0
C1015 C 0.0309 0.57958 0.13966 0.0
C1016 C 0.00211 0.53657 0.14917 0.0
C1017 C 0.00363 0.52948 0.16822 0.0
C1018 C 0.007 0.53679 0.18978 0.0
C1019 C 0.00831 0.55109 0.19186 0.0
C1020 C 0.00662 0.558 0.17301 0.0
H1021 H 0.04012 0.58759 0.1293 0.0
H1022 H 0.03109 0.58573 0.15544 0.0
H1023 H 0.03296 0.57034 0.14423 0.0
H1024 H 0.99992 0.53096 0.13263 0.0
H1025 H 0.00243 0.51843 0.16602 0.0
H1026 H 0.3858 0.39396 0.03948 0.0
H1027 H 0.39963 0.40925 0.07332 0.0
H1028 H 0.43733 0.405 0.05568 0.0
H1029 H 0.42381 0.39005 0.02175 0.0
H1030 H 0.41212 0.40308 0.10967 0.0
H1031 H 0.4559 0.45016 0.06363 0.0
H1032 H 0.439 0.43561 0.0497 0.0
H1033 H 0.45412 0.43233 0.0559 0.0
C1034 C 0.39702 0.39623 0.04286 0.0
C1035 C 0.40375 0.3909 0.02777 0.0
C1036 C 0.40491 0.405 0.06215 0.0
C1037 C 0.41965 0.40859 0.06668 0.0
C1038 C 0.42615 0.40277 0.05214 0.0
H1039 H 0.4807 0.44701 0.18221 0.0
H1040 H 0.46853 0.43546 0.14539 0.0
C1041 C 0.41834 0.39412 0.03282 0.0
C1042 C 0.42818 0.41817 0.0868 0.0
H1043 H 0.46045 0.45008 0.10343 0.0
C1044 C 0.42261 0.41342 0.10829 0.0
C1045 C 0.44186 0.4317 0.08494 0.0
C1046 C 0.44801 0.43784 0.06229 0.0
C1047 C 0.43056 0.42164 0.12799 0.0
C1048 C 0.44436 0.43493 0.12612 0.0
C1049 C 0.44988 0.43981 0.1047 0.0
C1050 C 0.45316 0.44378 0.14645 0.0
C1051 C 0.42431 0.41596 0.15078 0.0
C1052 C 0.44888 0.45274 0.15863 0.0
C1053 C 0.45589 0.45946 0.1795 0.0
C1054 C 0.46723 0.45726 0.18858 0.0
C1055 C 0.47211 0.44904 0.1756 0.0
C1056 C 0.46511 0.44235 0.15466 0.0
H1057 H 0.41425 0.40461 0.14943 0.0
H1058 H 0.43278 0.41551 0.16196 0.0
H1059 H 0.42133 0.42386 0.15899 0.0
H1060 H 0.43973 0.45403 0.15241 0.0
H1061 H 0.45202 0.46589 0.18898 0.0
H1062 H 0.63853 0.71403 0.36057 0.0
H1063 H 0.6415 0.73014 0.39342 0.0
H1064 H 0.68447 0.73538 0.40932 0.0
H1065 H 0.68156 0.71904 0.37636 0.0
H1066 H 0.66701 0.73101 0.44738 0.0
H1067 H 0.66936 0.77588 0.39427 0.0
H1068 H 0.65322 0.7578 0.38824 0.0
H1069 H 0.67132 0.76056 0.38287 0.0
C1070 C 0.6486 0.7185 0.37109 0.0
C1071 C 0.6599 0.71538 0.36566 0.0
C1072 C 0.65029 0.72778 0.38981 0.0
C1073 C 0.66335 0.73426 0.40342 0.0
C1074 C 0.67437 0.7306 0.39882 0.0
H1075 H 0.69158 0.80942 0.50044 0.0
H1076 H 0.68872 0.79344 0.46718 0.0
C1077 C 0.67266 0.72122 0.38006 0.0
C1078 C 0.66548 0.74502 0.4222 0.0
H1079 H 0.66652 0.77825 0.43376 0.0
C1080 C 0.66699 0.74138 0.44443 0.0
C1081 C 0.66568 0.75865 0.41823 0.0
C1082 C 0.66496 0.76356 0.3946 0.0
C1083 C 0.66825 0.75082 0.46291 0.0
C1084 C 0.66773 0.7641 0.459 0.0
C1085 C 0.66667 0.76795 0.43672 0.0
C1086 C 0.66853 0.77424 0.47786 0.0
C1087 C 0.6703 0.74658 0.48643 0.0
C1088 C 0.65774 0.76897 0.49432 0.0
C1089 C 0.65931 0.77809 0.51325 0.0
C1090 C 0.67162 0.79269 0.51596 0.0
C1091 C 0.6819 0.79828 0.49872 0.0
C1092 C 0.68035 0.78912 0.47981 0.0
H1093 H 0.67437 0.73844 0.48608 0.0
H1094 H 0.67826 0.75666 0.49692 0.0
H1095 H 0.65949 0.74123 0.49473 0.0
H1096 H 0.64832 0.75766 0.49282 0.0
H1097 H 0.65114 0.77356 0.52616 0.0
H1098 H 0.27158 0.95196 0.43541 0.0
H1099 H 0.25313 0.92971 0.45428 0.0
H1100 H 0.25938 0.90118 0.40651 0.0
H1101 H 0.27844 0.92344 0.38843 0.0
H1102 H 0.22735 0.90568 0.44246 0.0
H1103 H 0.2679 0.88726 0.46412 0.0
H1104 H 0.27342 0.90515 0.45203 0.0
H1105 H 0.26498 0.88821 0.43436 0.0
C1106 C 0.26899 0.94093 0.42895 0.0
C1107 C 0.27661 0.9394 0.41079 0.0
C1108 C 0.25841 0.92822 0.43966 0.0
C1109 C 0.25511 0.91376 0.43215 0.0
C1110 C 0.26209 0.91221 0.41309 0.0
H1111 H 0.18608 0.84199 0.51326 0.0
H1112 H 0.19801 0.85442 0.4784 0.0
C1113 C 0.27292 0.92493 0.40272 0.0
C1114 C 0.24495 0.90051 0.4451 0.0
H1115 H 0.24392 0.87279 0.47708 0.0
C1116 C 0.23089 0.89837 0.44987 0.0
C1117 C 0.24959 0.89095 0.45468 0.0
C1118 C 0.26483 0.89304 0.45124 0.0
C1119 C 0.22174 0.88759 0.46509 0.0
C1120 C 0.22661 0.87839 0.47522 0.0
C1121 C 0.2402 0.87982 0.46918 0.0
C1122 C 0.21936 0.86939 0.49509 0.0
C1123 C 0.20745 0.8869 0.47136 0.0
C1124 C 0.22757 0.87316 0.51568 0.0
C1125 C 0.22093 0.86599 0.53526 0.0
C1126 C 0.20582 0.85496 0.53485 0.0
C1127 C 0.19771 0.85057 0.51405 0.0
C1128 C 0.20446 0.85774 0.49423 0.0
H1129 H 0.20649 0.8964 0.46464 0.0
H1130 H 0.19791 0.87626 0.46431 0.0
H1131 H 0.20662 0.88708 0.49004 0.0
H1132 H 0.23909 0.88203 0.51678 0.0
H1133 H 0.22758 0.86934 0.55093 0.0
H1134 H 0.0449 0.32459 0.38044 0.0
H1135 H 0.05583 0.32038 0.41467 0.0
H1136 H 0.09963 0.35151 0.39274 0.0
H1137 H 0.08892 0.35607 0.35898 0.0
H1138 H 0.07483 0.30926 0.41817 0.0
H1139 H 0.10155 0.36697 0.45678 0.0
H1140 H 0.08791 0.36079 0.43369 0.0
H1141 H 0.10692 0.36651 0.42831 0.0
C1142 C 0.05685 0.33067 0.38303 0.0
C1143 C 0.066 0.34075 0.36701 0.0
C1144 C 0.06308 0.32822 0.40256 0.0
C1145 C 0.07854 0.33582 0.40641 0.0
C1146 C 0.08767 0.34582 0.39042 0.0
H1147 H 0.13786 0.33269 0.50999 0.0
H1148 H 0.12727 0.33543 0.47398 0.0
C1149 C 0.08149 0.34835 0.37103 0.0
C1150 C 0.08521 0.33296 0.42672 0.0
H1151 H 0.10869 0.35033 0.47269 0.0
C1152 C 0.08217 0.31822 0.43016 0.0
C1153 C 0.09481 0.34468 0.44232 0.0
C1154 C 0.09789 0.36059 0.44025 0.0
C1155 C 0.08862 0.31493 0.44864 0.0
C1156 C 0.09831 0.32668 0.46403 0.0
C1157 C 0.10139 0.3414 0.46062 0.0
C1158 C 0.10461 0.32381 0.48467 0.0
C1159 C 0.08516 0.29897 0.45155 0.0
C1160 C 0.09532 0.31629 0.50236 0.0
C1161 C 0.10132 0.31484 0.52282 0.0
C1162 C 0.11671 0.32084 0.52592 0.0
C1163 C 0.12596 0.32791 0.50792 0.0
C1164 C 0.11995 0.32951 0.48746 0.0
H1165 H 0.07998 0.29184 0.43592 0.0
H1166 H 0.0954 0.29869 0.45629 0.0
H1167 H 0.07733 0.29402 0.46542 0.0
H1168 H 0.08348 0.31197 0.50057 0.0
H1169 H 0.09395 0.30925 0.53642 0.0
H1170 H 0.04947 0.30072 0.28321 0.0
H1171 H 0.06843 0.29753 0.26433 0.0
H1172 H 0.09055 0.34411 0.24679 0.0
H1173 H 0.07173 0.34742 0.26558 0.0
H1174 H 0.07396 0.30184 0.21904 0.0
H1175 H 0.12501 0.33922 0.27047 0.0
H1176 H 0.10665 0.33274 0.28071 0.0
H1177 H 0.11492 0.34843 0.26246 0.0
C1178 C 0.05847 0.31033 0.27555 0.0
C1179 C 0.05913 0.32435 0.27595 0.0
C1180 C 0.06931 0.3085 0.26488 0.0
C1181 C 0.08105 0.32066 0.25461 0.0
C1182 C 0.08182 0.33469 0.2552 0.0
H1183 H 0.14108 0.34358 0.15253 0.0
H1184 H 0.12808 0.34186 0.18714 0.0
C1185 C 0.07099 0.33653 0.26582 0.0
C1186 C 0.09158 0.31841 0.24106 0.0
H1187 H 0.12847 0.33331 0.23208 0.0
C1188 C 0.08588 0.30843 0.22214 0.0
C1189 C 0.10709 0.32704 0.24524 0.0
C1190 C 0.11378 0.33735 0.26597 0.0
C1191 C 0.09529 0.30765 0.20632 0.0
C1192 C 0.11084 0.31689 0.20985 0.0
C1193 C 0.11655 0.32624 0.22946 0.0
C1194 C 0.12109 0.31845 0.19187 0.0
C1195 C 0.08849 0.29774 0.18519 0.0
C1196 C 0.12206 0.30605 0.18373 0.0
C1197 C 0.12935 0.30696 0.16377 0.0
C1198 C 0.13582 0.32032 0.15183 0.0
C1199 C 0.13595 0.33307 0.16119 0.0
C1200 C 0.12862 0.33213 0.18103 0.0
H1201 H 0.07635 0.29334 0.18335 0.0
H1202 H 0.09378 0.30401 0.16988 0.0
H1203 H 0.0903 0.28799 0.18589 0.0
H1204 H 0.11651 0.29546 0.19212 0.0
H1205 H 0.12907 0.29695 0.15695 0.0
H1206 H 0.7018 0.7415 0.2904 0.0
H1207 H 0.70481 0.76477 0.27517 0.0
H1208 H 0.65929 0.74103 0.25002 0.0
H1209 H 0.65618 0.71773 0.26509 0.0
H1210 H 0.701 0.76895 0.22973 0.0
H1211 H 0.66296 0.77884 0.28179 0.0
H1212 H 0.66971 0.76643 0.28998 0.0
H1213 H 0.65457 0.76012 0.26945 0.0
C1214 C 0.69239 0.74124 0.28176 0.0
C1215 C 0.67871 0.72776 0.27906 0.0
C1216 C 0.69412 0.75456 0.27318 0.0
C1217 C 0.68219 0.75469 0.26191 0.0
C1218 C 0.66852 0.74127 0.25923 0.0
H1219 H 0.66281 0.80253 0.16833 0.0
H1220 H 0.66286 0.78834 0.20086 0.0
C1221 C 0.66679 0.72793 0.26774 0.0
C1222 C 0.68436 0.76847 0.25109 0.0
H1223 H 0.67023 0.79203 0.24716 0.0
C1224 C 0.6945 0.77422 0.23381 0.0
C1225 C 0.67584 0.77526 0.2565 0.0
C1226 C 0.66525 0.76995 0.2756 0.0
C1227 C 0.69573 0.78599 0.22079 0.0
C1228 C 0.68681 0.79247 0.22562 0.0
C1229 C 0.67712 0.78714 0.24359 0.0
C1230 C 0.68603 0.80327 0.21024 0.0
C1231 C 0.70585 0.7907 0.20104 0.0
C1232 C 0.69876 0.81694 0.20573 0.0
C1233 C 0.69878 0.82503 0.18698 0.0
C1234 C 0.68602 0.81956 0.1727 0.0
C1235 C 0.67283 0.80688 0.17895 0.0
C1236 C 0.67285 0.79878 0.19754 0.0
H1237 H 0.70977 0.78267 0.19716 0.0
H1238 H 0.70011 0.79162 0.18561 0.0
H1239 H 0.71573 0.80188 0.2051 0.0
H1240 H 0.70897 0.82077 0.21567 0.0
H1241 H 0.70909 0.83476 0.18255 0.0
H1242 H 0.28548 0.95065 0.31027 0.0
H1243 H 0.27183 0.93588 0.27611 0.0
H1244 H 0.2325 0.9357 0.29774 0.0
H1245 H 0.24593 0.95026 0.33205 0.0
H1246 H 0.22716 0.90748 0.28411 0.0
H1247 H 0.25863 0.94941 0.22022 0.0
H1248 H 0.27012 0.94578 0.23913 0.0
H1249 H 0.26001 0.95436 0.25 0.0
C1250 C 0.27397 0.94763 0.30766 0.0
C1251 C 0.26683 0.95168 0.32392 0.0
C1252 C 0.2662 0.93922 0.28808 0.0
C1253 C 0.2512 0.93483 0.2843 0.0
C1254 C 0.24408 0.93899 0.30034 0.0
H1255 H 0.20453 0.89786 0.15451 0.0
H1256 H 0.21352 0.91216 0.19066 0.0
C1257 C 0.25181 0.94736 0.31992 0.0
C1258 C 0.24275 0.92543 0.26403 0.0
H1259 H 0.24209 0.92439 0.20632 0.0
C1260 C 0.23035 0.9112 0.26708 0.0
C1261 C 0.24681 0.9304 0.24186 0.0
C1262 C 0.25953 0.94588 0.23753 0.0
C1263 C 0.2221 0.90164 0.24852 0.0
C1264 C 0.22654 0.90637 0.22637 0.0
C1265 C 0.23874 0.92074 0.22333 0.0
C1266 C 0.21901 0.89655 0.20599 0.0
C1267 C 0.20866 0.88664 0.2528 0.0
C1268 C 0.21876 0.88283 0.20285 0.0
C1269 C 0.21354 0.87461 0.18227 0.0
C1270 C 0.20867 0.88008 0.16442 0.0
C1271 C 0.20828 0.89344 0.16799 0.0
C1272 C 0.21342 0.9016 0.18858 0.0
H1273 H 0.20425 0.88661 0.26973 0.0
H1274 H 0.1997 0.88364 0.23971 0.0
H1275 H 0.21182 0.87781 0.25224 0.0
H1276 H 0.2233 0.87887 0.21586 0.0
H1277 H 0.21419 0.86448 0.17985 0.0
H1278 H 0.65464 0.94639 0.30446 0.0
H1279 H 0.65467 0.93244 0.27019 0.0
H1280 H 0.6964 0.93699 0.29279 0.0
H1281 H 0.69652 0.95082 0.32687 0.0
H1282 H 0.69372 0.94439 0.24508 0.0
H1283 H 0.6488 0.88833 0.27024 0.0
H1284 H 0.64558 0.90397 0.27243 0.0
H1285 H 0.65937 0.90361 0.29068 0.0
C1286 C 0.66386 0.94449 0.30206 0.0
C1287 C 0.67553 0.94966 0.31848 0.0
C1288 C 0.66381 0.93645 0.28256 0.0
C1289 C 0.67547 0.93357 0.27917 0.0
C1290 C 0.68728 0.93904 0.2952 0.0
H1291 H 0.7044 0.89353 0.17663 0.0
H1292 H 0.70177 0.90587 0.2106 0.0
C1293 C 0.68729 0.94693 0.31469 0.0
C1294 C 0.67554 0.92489 0.25894 0.0
H1295 H 0.6597 0.88931 0.23542 0.0
C1296 C 0.68626 0.93236 0.24287 0.0
C1297 C 0.66575 0.90922 0.25619 0.0
C1298 C 0.65424 0.9007 0.2733 0.0
C1299 C 0.68747 0.92457 0.22402 0.0
C1300 C 0.67797 0.9088 0.22156 0.0
C1301 C 0.66706 0.90137 0.23746 0.0
C1302 C 0.67907 0.8999 0.20237 0.0
C1303 C 0.69876 0.93336 0.20673 0.0
C1304 C 0.66691 0.89169 0.1872 0.0
C1305 C 0.66828 0.88437 0.16801 0.0
C1306 C 0.68186 0.88513 0.1636 0.0
C1307 C 0.69377 0.89266 0.17952 0.0
C1308 C 0.69236 0.89991 0.19879 0.0
H1309 H 0.70209 0.94546 0.2077 0.0
H1310 H 0.70886 0.93254 0.21 0.0
H1311 H 0.69438 0.92883 0.18929 0.0
H1312 H 0.6565 0.89137 0.18979 0.0
H1313 H 0.65881 0.87843 0.15629 0.0
H1314 H 0.06871 0.71789 0.25626 0.0
H1315 H 0.0865 0.73875 0.23437 0.0
H1316 H 0.07096 0.76724 0.26238 0.0
H1317 H 0.05314 0.74643 0.28454 0.0
H1318 H 0.07803 0.75434 0.20223 0.0
H1319 H 0.11751 0.79218 0.27083 0.0
H1320 H 0.10526 0.77231 0.27436 0.0
H1321 H 0.09803 0.7849 0.27474 0.0
C1322 C 0.06917 0.72863 0.258 0.0
C1323 C 0.05955 0.73052 0.27218 0.0
C1324 C 0.07932 0.74052 0.24545 0.0
C1325 C 0.08011 0.75454 0.24698 0.0
C1326 C 0.07064 0.75655 0.26125 0.0
H1327 H 0.12372 0.8201 0.14321 0.0
H1328 H 0.1072 0.80694 0.17387 0.0
C1329 C 0.06042 0.74462 0.27377 0.0
C1330 C 0.09029 0.76671 0.23253 0.0
H1331 H 0.12236 0.80067 0.23353 0.0
C1332 C 0.08765 0.76454 0.20904 0.0
C1333 C 0.10282 0.77992 0.24159 0.0
C1334 C 0.10622 0.78253 0.26675 0.0
C1335 C 0.0974 0.77513 0.19423 0.0
C1336 C 0.11002 0.78833 0.20324 0.0
C1337 C 0.11257 0.79061 0.22677 0.0
C1338 C 0.12127 0.79906 0.18818 0.0
C1339 C 0.09444 0.77185 0.16904 0.0
C1340 C 0.13498 0.79967 0.18696 0.0
C1341 C 0.14441 0.80715 0.16951 0.0
C1342 C 0.14026 0.81415 0.15303 0.0
C1343 C 0.1271 0.81464 0.15551 0.0
C1344 C 0.11768 0.80715 0.17299 0.0
H1345 H 0.08568 0.76002 0.16497 0.0
H1346 H 0.09073 0.77935 0.16183 0.0
H1347 H 0.1047 0.77403 0.16059 0.0
H1348 H 0.13791 0.79347 0.19856 0.0
H1349 H 0.15438 0.80644 0.16797 0.0
H1350 H 0.24585 0.30019 0.31656 0.0
H1351 H 0.23299 0.30099 0.28208 0.0
H1352 H 0.26886 0.34573 0.27085 0.0
H1353 H 0.28202 0.34488 0.30511 0.0
H1354 H 0.22283 0.31987 0.27283 0.0
H1355 H 0.26355 0.32541 0.20948 0.0
H1356 H 0.26459 0.32039 0.23822 0.0
H1357 H 0.27136 0.33972 0.2317 0.0
C1358 C 0.25111 0.31016 0.30665 0.0
C1359 C 0.265 0.32247 0.31357 0.0
C1360 C 0.24371 0.31059 0.28695 0.0
C1361 C 0.25001 0.32334 0.27376 0.0
C1362 C 0.26393 0.33563 0.28049 0.0
H1363 H 0.21902 0.34856 0.1545 0.0
H1364 H 0.23098 0.34858 0.1906 0.0
C1365 C 0.27142 0.33515 0.30012 0.0
C1366 C 0.24168 0.32393 0.25348 0.0
H1367 H 0.24368 0.32876 0.19649 0.0
C1368 C 0.22737 0.32175 0.25612 0.0
C1369 C 0.2476 0.32636 0.23168 0.0
C1370 C 0.26255 0.32796 0.2275 0.0
C1371 C 0.21889 0.3221 0.23759 0.0
C1372 C 0.22488 0.32466 0.21591 0.0
C1373 C 0.23918 0.32689 0.21323 0.0
C1374 C 0.21646 0.32489 0.19559 0.0
C1375 C 0.20367 0.31993 0.24129 0.0
C1376 C 0.20416 0.31159 0.18673 0.0
C1377 C 0.19737 0.3115 0.16599 0.0
C1378 C 0.20282 0.32471 0.15379 0.0
C1379 C 0.21469 0.33816 0.16335 0.0
C1380 C 0.22151 0.33821 0.18397 0.0
H1381 H 0.20176 0.32082 0.25952 0.0
H1382 H 0.20213 0.32838 0.23209 0.0
H1383 H 0.19515 0.30861 0.23452 0.0
H1384 H 0.20023 0.30116 0.19536 0.0
H1385 H 0.18839 0.30093 0.15897 0.0
H1386 H 0.28009 0.36636 0.39606 0.0
H1387 H 0.26109 0.36851 0.41688 0.0
H1388 H 0.24307 0.32295 0.43789 0.0
H1389 H 0.262 0.32068 0.41738 0.0
H1390 H 0.22346 0.3404 0.41635 0.0
H1391 H 0.26043 0.36051 0.49423 0.0
H1392 H 0.26776 0.36516 0.46632 0.0
H1393 H 0.26058 0.3464 0.4757 0.0
C1394 C 0.272 0.35675 0.40494 0.0
C1395 C 0.27255 0.34334 0.40508 0.0
C1396 C 0.26113 0.35798 0.41669 0.0
C1397 C 0.2507 0.34585 0.4287 0.0
C1398 C 0.251 0.33237 0.42849 0.0
H1399 H 0.17759 0.31556 0.51128 0.0
H1400 H 0.19272 0.32133 0.47809 0.0
C1401 C 0.26183 0.33111 0.41678 0.0
C1402 C 0.24022 0.34751 0.44313 0.0
H1403 H 0.23566 0.35432 0.49807 0.0
C1404 C 0.22612 0.34365 0.43416 0.0
C1405 C 0.24387 0.35192 0.46619 0.0
C1406 C 0.25898 0.3563 0.47635 0.0
C1407 C 0.21531 0.34355 0.44806 0.0
C1408 C 0.21868 0.34712 0.47149 0.0
C1409 C 0.23305 0.35164 0.48011 0.0
C1410 C 0.20727 0.34479 0.488 0.0
C1411 C 0.20037 0.33947 0.43757 0.0
C1412 C 0.2101 0.35613 0.50434 0.0
C1413 C 0.20156 0.35278 0.52349 0.0
C1414 C 0.19001 0.33805 0.52654 0.0
C1415 C 0.1863 0.32706 0.50918 0.0
C1416 C 0.19494 0.33037 0.49014 0.0
H1417 H 0.20129 0.34255 0.41955 0.0
H1418 H 0.19289 0.32712 0.43806 0.0
H1419 H 0.19523 0.34512 0.44682 0.0
H1420 H 0.21957 0.36733 0.50307 0.0
H1421 H 0.20463 0.36144 0.53667 0.0
H1422 H 0.63135 0.92336 0.39173 0.0
H1423 H 0.62809 0.90162 0.41271 0.0
H1424 H 0.67105 0.92907 0.44601 0.0
H1425 H 0.67442 0.95078 0.42527 0.0
H1426 H 0.64935 0.88908 0.41578 0.0
H1427 H 0.63906 0.90997 0.49689 0.0
H1428 H 0.63645 0.91618 0.4697 0.0
H1429 H 0.65479 0.92362 0.48215 0.0
C1430 C 0.64011 0.92475 0.40349 0.0
C1431 C 0.65315 0.93879 0.40687 0.0
C1432 C 0.63824 0.91232 0.41536 0.0
C1433 C 0.6493 0.91383 0.43093 0.0
C1434 C 0.66237 0.92775 0.43411 0.0
H1435 H 0.67872 0.86424 0.50357 0.0
H1436 H 0.67166 0.87524 0.47308 0.0
C1437 C 0.66429 0.94012 0.42219 0.0
C1438 C 0.64721 0.90104 0.44445 0.0
H1439 H 0.64489 0.89042 0.49901 0.0
C1440 C 0.64813 0.88918 0.43393 0.0
C1441 C 0.64537 0.90114 0.46801 0.0
C1442 C 0.64373 0.91333 0.47991 0.0
C1443 C 0.64813 0.87781 0.4467 0.0
C1444 C 0.64734 0.87848 0.47051 0.0
C1445 C 0.64553 0.88989 0.48076 0.0
C1446 C 0.64993 0.8686 0.48554 0.0
C1447 C 0.64926 0.86536 0.43464 0.0
C1448 C 0.63992 0.86084 0.50241 0.0
C1449 C 0.64397 0.85457 0.51996 0.0
C1450 C 0.65814 0.85602 0.52099 0.0
C1451 C 0.66765 0.86272 0.50309 0.0
C1452 C 0.66361 0.86902 0.48559 0.0
H1453 H 0.6446 0.86342 0.417 0.0
H1454 H 0.66112 0.8686 0.43384 0.0
H1455 H 0.64337 0.85468 0.44365 0.0
H1456 H 0.62933 0.86042 0.50274 0.0
H1457 H 0.63639 0.84938 0.53347 0.0
H1458 H 0.09421 0.72605 0.35028 0.0
H1459 H 0.10832 0.74004 0.38441 0.0
H1460 H 0.06832 0.73417 0.41362 0.0
H1461 H 0.05397 0.72023 0.37919 0.0
H1462 H 0.09278 0.76383 0.41878 0.0
H1463 H 0.10793 0.72157 0.44521 0.0
H1464 H 0.1126 0.72757 0.4168 0.0
H1465 H 0.09345 0.71736 0.42408 0.0
C1466 C 0.08832 0.72764 0.36393 0.0
C1467 C 0.07288 0.72188 0.36199 0.0
C1468 C 0.09644 0.73562 0.3835 0.0
C1469 C 0.08934 0.73794 0.40166 0.0
C1470 C 0.07399 0.73242 0.39979 0.0
H1471 H 0.11878 0.76273 0.53992 0.0
H1472 H 0.10745 0.75078 0.50318 0.0
C1473 C 0.06581 0.72442 0.38014 0.0
C1474 C 0.09801 0.74619 0.42256 0.0
H1475 H 0.11958 0.74493 0.46582 0.0
C1476 C 0.09866 0.75972 0.4291 0.0
C1477 C 0.1056 0.74075 0.43598 0.0
C1478 C 0.10479 0.72595 0.43033 0.0
C1479 C 0.10669 0.76797 0.44878 0.0
C1480 C 0.11443 0.76262 0.46204 0.0
C1481 C 0.11381 0.74911 0.45544 0.0
C1482 C 0.12201 0.77003 0.484 0.0
C1483 C 0.10646 0.78208 0.4556 0.0
C1484 C 0.13422 0.78475 0.4854 0.0
C1485 C 0.14073 0.79168 0.50655 0.0
C1486 C 0.13505 0.78397 0.5265 0.0
C1487 C 0.1232 0.76906 0.52486 0.0
C1488 C 0.11676 0.76218 0.50387 0.0
H1489 H 0.09774 0.7831 0.44596 0.0
H1490 H 0.10455 0.78233 0.47396 0.0
H1491 H 0.11736 0.79204 0.45231 0.0
H1492 H 0.13861 0.7909 0.4702 0.0
H1493 H 0.14989 0.80316 0.50734 0.0
H1494 H 0.34601 0.04893 0.71321 0.0
H1495 H 0.34927 0.0646 0.74718 0.0
H1496 H 0.31427 0.07193 0.72218 0.0
H1497 H 0.31069 0.05615 0.68873 0.0
H1498 H 0.35706 0.09428 0.74989 0.0
H1499 H 0.30187 0.05994 0.78591 0.0
H1500 H 0.30854 0.05275 0.76377 0.0
H1501 H 0.30058 0.06429 0.75705 0.0
C1502 C 0.33887 0.05371 0.7151 0.0
C1503 C 0.32802 0.05117 0.69825 0.0
C1504 C 0.34078 0.06269 0.73449 0.0
C1505 C 0.33184 0.06923 0.7374 0.0
C1506 C 0.32103 0.0667 0.72062 0.0
H1507 H 0.33094 0.13525 0.83131 0.0
H1508 H 0.32792 0.11895 0.79808 0.0
C1509 C 0.31907 0.05771 0.70138 0.0
C1510 C 0.33422 0.07931 0.75735 0.0
H1511 H 0.31639 0.08525 0.8007 0.0
C1512 C 0.34821 0.09223 0.76112 0.0
C1513 C 0.32264 0.07665 0.77197 0.0
C1514 C 0.30761 0.06257 0.76963 0.0
C1515 C 0.35083 0.10271 0.77883 0.0
C1516 C 0.33917 0.10017 0.79311 0.0
C1517 C 0.32523 0.08723 0.78949 0.0
C1518 C 0.34144 0.11048 0.81258 0.0
C1519 C 0.36596 0.11656 0.78199 0.0
C1520 C 0.35001 0.11104 0.83158 0.0
C1521 C 0.35165 0.12019 0.85047 0.0
C1522 C 0.34476 0.12898 0.85072 0.0
C1523 C 0.33639 0.12862 0.8315 0.0
C1524 C 0.33463 0.11931 0.81261 0.0
H1525 H 0.37291 0.11825 0.76716 0.0
H1526 H 0.36493 0.12671 0.78489 0.0
H1527 H 0.37176 0.11541 0.79714 0.0
H1528 H 0.35525 0.10422 0.8319 0.0
H1529 H 0.35831 0.12038 0.86496 0.0
H1530 H 0.95139 0.26219 0.73814 0.0
H1531 H 0.93216 0.24136 0.75857 0.0
H1532 H 0.91254 0.26846 0.77545 0.0
H1533 H 0.93183 0.2894 0.75552 0.0
H1534 H 0.91831 0.25574 0.81232 0.0
H1535 H 0.88781 0.21258 0.74344 0.0
H1536 H 0.90758 0.22037 0.74442 0.0
H1537 H 0.89995 0.2322 0.73806 0.0
C1538 C 0.94289 0.26367 0.74602 0.0
C1539 C 0.94311 0.27744 0.74516 0.0
C1540 C 0.93184 0.2517 0.75749 0.0
C1541 C 0.92079 0.25329 0.76818 0.0
C1542 C 0.92089 0.26696 0.7671 0.0
H1543 H 0.85518 0.20326 0.86583 0.0
H1544 H 0.8676 0.21882 0.83381 0.0
C1545 C 0.93192 0.27891 0.75567 0.0
C1546 C 0.90997 0.24128 0.7823 0.0
H1547 H 0.88193 0.20466 0.78124 0.0
C1548 C 0.91027 0.24461 0.80549 0.0
C1549 C 0.89961 0.22675 0.77333 0.0
C1550 C 0.89858 0.22274 0.74842 0.0
C1551 C 0.90063 0.23376 0.82007 0.0
C1552 C 0.89018 0.21925 0.81112 0.0
C1553 C 0.88988 0.21584 0.78794 0.0
C1554 C 0.87987 0.20752 0.82606 0.0
C1555 C 0.90195 0.23782 0.84506 0.0
C1556 C 0.88189 0.19538 0.83116 0.0
C1557 C 0.87467 0.18637 0.84927 0.0
C1558 C 0.86541 0.18949 0.86248 0.0
C1559 C 0.86231 0.20071 0.85591 0.0
C1560 C 0.86943 0.20961 0.83773 0.0
H1561 H 0.91259 0.24819 0.84979 0.0
H1562 H 0.89276 0.2398 0.84953 0.0
H1563 H 0.9011 0.22852 0.85533 0.0
H1564 H 0.8899 0.1936 0.82228 0.0
H1565 H 0.87732 0.17786 0.85414 0.0
H1566 H 0.75679 0.69112 0.69346 0.0
H1567 H 0.76748 0.68435 0.72489 0.0
H1568 H 0.72373 0.65023 0.74284 0.0
H1569 H 0.71285 0.65668 0.71089 0.0
H1570 H 0.76358 0.68564 0.76938 0.0
H1571 H 0.74552 0.62684 0.7417 0.0
H1572 H 0.74438 0.63997 0.72316 0.0
H1573 H 0.7305 0.6306 0.74372 0.0
C1574 C 0.74937 0.68214 0.70402 0.0
C1575 C 0.73392 0.67442 0.69959 0.0
C1576 C 0.75554 0.67827 0.72198 0.0
C1577 C 0.74644 0.66662 0.73598 0.0
C1578 C 0.73099 0.659 0.73189 0.0
H1579 H 0.76019 0.63631 0.86303 0.0
H1580 H 0.75067 0.64014 0.82709 0.0
C1581 C 0.72478 0.66279 0.71374 0.0
C1582 C 0.7532 0.66296 0.75535 0.0
H1583 H 0.75604 0.63449 0.77923 0.0
C1584 C 0.76204 0.67448 0.77141 0.0
C1585 C 0.75122 0.64841 0.75792 0.0
C1586 C 0.74251 0.63577 0.7406 0.0
C1587 C 0.76866 0.67178 0.79025 0.0
C1588 C 0.76647 0.6572 0.79301 0.0
C1589 C 0.75773 0.64567 0.77692 0.0
C1590 C 0.77234 0.65355 0.81338 0.0
C1591 C 0.77763 0.68442 0.80746 0.0
C1592 C 0.78766 0.65948 0.81719 0.0
C1593 C 0.79313 0.65727 0.83771 0.0
C1594 C 0.78333 0.64921 0.85467 0.0
C1595 C 0.76797 0.64272 0.85031 0.0
C1596 C 0.76253 0.64483 0.82981 0.0
H1597 H 0.77645 0.69443 0.80454 0.0
H1598 H 0.77417 0.68063 0.82484 0.0
H1599 H 0.78953 0.68786 0.8065 0.0
H1600 H 0.79537 0.66616 0.80456 0.0
H1601 H 0.80501 0.66238 0.84072 0.0
H1602 H 0.74098 0.69351 0.60149 0.0
H1603 H 0.76129 0.69475 0.58005 0.0
H1604 H 0.74249 0.64683 0.58438 0.0
H1605 H 0.72224 0.64549 0.6063 0.0
H1606 H 0.77452 0.66447 0.59173 0.0
H1607 H 0.75392 0.67849 0.51363 0.0
H1608 H 0.75699 0.69057 0.53802 0.0
H1609 H 0.74272 0.67115 0.538 0.0
C1610 C 0.74123 0.68325 0.59815 0.0
C1611 C 0.72997 0.66939 0.60554 0.0
C1612 C 0.75282 0.68398 0.58581 0.0
C1613 C 0.75328 0.67086 0.58049 0.0
C1614 C 0.7423 0.65707 0.58836 0.0
H1615 H 0.79993 0.64324 0.49275 0.0
H1616 H 0.78803 0.64651 0.52583 0.0
C1617 C 0.73071 0.65633 0.60075 0.0
C1618 C 0.76471 0.67139 0.56561 0.0
H1619 H 0.7762 0.67807 0.51149 0.0
C1620 C 0.77497 0.6675 0.5742 0.0
C1621 C 0.7652 0.67533 0.54278 0.0
C1622 C 0.75406 0.679 0.53242 0.0
C1623 C 0.78581 0.66751 0.56047 0.0
C1624 C 0.78618 0.6713 0.53757 0.0
C1625 C 0.77601 0.67534 0.52913 0.0
C1626 C 0.79624 0.67021 0.52133 0.0
C1627 C 0.79678 0.66357 0.57061 0.0
C1628 C 0.80513 0.68252 0.50817 0.0
C1629 C 0.8118 0.68063 0.48916 0.0
C1630 C 0.80971 0.6664 0.48305 0.0
C1631 C 0.80186 0.65437 0.49729 0.0
C1632 C 0.79508 0.65624 0.51623 0.0
H1633 H 0.79807 0.66562 0.58927 0.0
H1634 H 0.7927 0.65144 0.5671 0.0
H1635 H 0.80783 0.67014 0.56316 0.0
H1636 H 0.80614 0.69338 0.5118 0.0
H1637 H 0.81783 0.69006 0.47843 0.0
H1638 H 0.36751 0.07477 0.61715 0.0
H1639 H 0.36962 0.09674 0.59851 0.0
H1640 H 0.32324 0.0714 0.57803 0.0
H1641 H 0.32103 0.04939 0.59651 0.0
H1642 H 0.36366 0.09786 0.55239 0.0
H1643 H 0.32793 0.11091 0.6051 0.0
H1644 H 0.33524 0.0992 0.6145 0.0
H1645 H 0.31928 0.09158 0.59533 0.0
C1646 C 0.35772 0.07389 0.60882 0.0
C1647 C 0.34407 0.06033 0.60844 0.0
C1648 C 0.35895 0.08647 0.59825 0.0
C1649 C 0.34653 0.08578 0.58728 0.0
C1650 C 0.33288 0.07229 0.58691 0.0
H1651 H 0.32429 0.13186 0.49176 0.0
H1652 H 0.32521 0.11754 0.52355 0.0
C1653 C 0.33165 0.05968 0.5974 0.0
C1654 C 0.34806 0.09875 0.57464 0.0
H1655 H 0.33408 0.12236 0.56915 0.0
C1656 C 0.3574 0.10341 0.55625 0.0
C1657 C 0.33984 0.10591 0.57974 0.0
C1658 C 0.33011 0.10176 0.59987 0.0
C1659 C 0.35817 0.11452 0.54206 0.0
C1660 C 0.34964 0.12144 0.54678 0.0
C1661 C 0.34067 0.11712 0.56565 0.0
C1662 C 0.34874 0.13195 0.53089 0.0
C1663 C 0.36747 0.11812 0.52143 0.0
C1664 C 0.3615 0.1453 0.52533 0.0
C1665 C 0.36102 0.15345 0.50699 0.0
C1666 C 0.34776 0.1484 0.49409 0.0
C1667 C 0.33472 0.13589 0.50119 0.0
C1668 C 0.33522 0.12772 0.51939 0.0
H1669 H 0.37084 0.10961 0.51778 0.0
H1670 H 0.36134 0.11875 0.50628 0.0
H1671 H 0.37771 0.1292 0.52431 0.0
H1672 H 0.37198 0.14894 0.53434 0.0
H1673 H 0.37125 0.16304 0.50193 0.0
H1674 H 0.91498 0.28116 0.65744 0.0
H1675 H 0.9038 0.26495 0.62362 0.0
H1676 H 0.94603 0.26948 0.60806 0.0
H1677 H 0.95747 0.28588 0.64196 0.0
H1678 H 0.93059 0.27277 0.57067 0.0
H1679 H 0.89461 0.22112 0.61642 0.0
H1680 H 0.89279 0.23699 0.62492 0.0
H1681 H 0.91013 0.23753 0.63008 0.0
C1682 C 0.92196 0.27878 0.64687 0.0
C1683 C 0.93714 0.28478 0.65256 0.0
C1684 C 0.9155 0.26941 0.6276 0.0
C1685 C 0.92402 0.26576 0.61363 0.0
C1686 C 0.93924 0.27205 0.61879 0.0
H1687 H 0.88856 0.1968 0.50412 0.0
H1688 H 0.90039 0.21117 0.53955 0.0
C1689 C 0.94575 0.28144 0.63814 0.0
C1690 C 0.91698 0.25559 0.59344 0.0
H1691 H 0.88929 0.22034 0.57675 0.0
C1692 C 0.92164 0.26128 0.57198 0.0
C1693 C 0.90544 0.24053 0.59524 0.0
C1694 C 0.90052 0.2336 0.6179 0.0
C1695 C 0.91471 0.25245 0.55221 0.0
C1696 C 0.90268 0.23764 0.554 0.0
C1697 C 0.89838 0.23177 0.57546 0.0
C1698 C 0.89438 0.22819 0.5337 0.0
C1699 C 0.92032 0.25905 0.52955 0.0
C1700 C 0.8866 0.23268 0.5192 0.0
C1701 C 0.87977 0.22447 0.4991 0.0
C1702 C 0.88054 0.21156 0.49315 0.0
C1703 C 0.88767 0.20662 0.50831 0.0
C1704 C 0.89452 0.21487 0.52846 0.0
H1705 H 0.93178 0.26884 0.53113 0.0
H1706 H 0.92021 0.2505 0.5176 0.0
H1707 H 0.91299 0.26295 0.52219 0.0
H1708 H 0.88608 0.24274 0.52322 0.0
H1709 H 0.87416 0.22841 0.48792 0.0
H1710 H 0.36096 0.2774 0.65947 0.0
H1711 H 0.36121 0.26414 0.62511 0.0
H1712 H 0.32793 0.27179 0.59371 0.0
H1713 H 0.32742 0.28508 0.62843 0.0
H1714 H 0.3226 0.24165 0.58798 0.0
H1715 H 0.37968 0.28412 0.56581 0.0
H1716 H 0.37835 0.27791 0.59424 0.0
H1717 H 0.36923 0.2881 0.58598 0.0
C1718 C 0.35369 0.27637 0.64532 0.0
C1719 C 0.34422 0.28243 0.64673 0.0
C1720 C 0.35391 0.2688 0.62562 0.0
C1721 C 0.34476 0.26719 0.6068 0.0
C1722 C 0.33514 0.27302 0.60809 0.0
H1723 H 0.35381 0.24118 0.47137 0.0
H1724 H 0.35228 0.25366 0.50586 0.0
C1725 C 0.3349 0.28063 0.62789 0.0
C1726 C 0.34531 0.2593 0.58591 0.0
H1727 H 0.36877 0.26052 0.54562 0.0
C1728 C 0.33265 0.24578 0.57861 0.0
C1729 C 0.35843 0.2648 0.5737 0.0
C1730 C 0.37216 0.2796 0.58017 0.0
C1731 C 0.33283 0.23748 0.55954 0.0
C1732 C 0.3461 0.24277 0.54774 0.0
C1733 C 0.35868 0.25639 0.55489 0.0
C1734 C 0.34696 0.23487 0.52706 0.0
C1735 C 0.31878 0.2233 0.55193 0.0
C1736 C 0.34471 0.22021 0.5276 0.0
C1737 C 0.34548 0.21295 0.50775 0.0
C1738 C 0.34849 0.22028 0.48713 0.0
C1739 C 0.35113 0.2351 0.48688 0.0
C1740 C 0.35036 0.2423 0.50661 0.0
H1741 H 0.30885 0.22261 0.55965 0.0
H1742 H 0.31718 0.2226 0.53322 0.0
H1743 H 0.31958 0.2134 0.55708 0.0
H1744 H 0.34238 0.2144 0.54334 0.0
H1745 H 0.34345 0.20155 0.50844 0.0
H1746 H 0.74027 0.05213 0.59442 0.0
H1747 H 0.75921 0.07289 0.57368 0.0
H1748 H 0.74329 0.10189 0.59812 0.0
H1749 H 0.72437 0.08123 0.61916 0.0
H1750 H 0.75155 0.08735 0.53986 0.0
H1751 H 0.78932 0.12767 0.6077 0.0
H1752 H 0.77701 0.10797 0.61243 0.0
H1753 H 0.76979 0.12053 0.61065 0.0
C1754 C 0.74094 0.06298 0.59573 0.0
C1755 C 0.73082 0.06504 0.60842 0.0
C1756 C 0.75177 0.07482 0.58387 0.0
C1757 C 0.75273 0.08893 0.5846 0.0
C1758 C 0.74289 0.09115 0.59768 0.0
H1759 H 0.79312 0.15153 0.47759 0.0
H1760 H 0.77789 0.13948 0.50997 0.0
C1761 C 0.73202 0.07929 0.60953 0.0
C1762 C 0.76304 0.10079 0.56987 0.0
H1763 H 0.79392 0.1357 0.56997 0.0
C1764 C 0.76078 0.09795 0.54642 0.0
C1765 C 0.77505 0.11455 0.57859 0.0
C1766 C 0.77808 0.11791 0.60372 0.0
C1767 C 0.77031 0.10844 0.53136 0.0
C1768 C 0.78229 0.12226 0.54001 0.0
C1769 C 0.78458 0.12517 0.56348 0.0
C1770 C 0.79309 0.13313 0.52461 0.0
C1771 C 0.76772 0.10449 0.50628 0.0
C1772 C 0.80705 0.13435 0.52306 0.0
C1773 C 0.81576 0.14122 0.50464 0.0
C1774 C 0.81057 0.14693 0.48753 0.0
C1775 C 0.79729 0.14707 0.49043 0.0
C1776 C 0.7886 0.14023 0.50889 0.0
H1777 H 0.75961 0.09239 0.50271 0.0
H1778 H 0.76333 0.11119 0.49817 0.0
H1779 H 0.77828 0.10724 0.49828 0.0
H1780 H 0.81065 0.1289 0.53506 0.0
H1781 H 0.82589 0.14084 0.50279 0.0
H1782 H 0.95051 0.67998 0.64053 0.0
H1783 H 0.93683 0.68056 0.60668 0.0
H1784 H 0.89987 0.63734 0.62189 0.0
H1785 H 0.91325 0.63677 0.65587 0.0
H1786 H 0.92545 0.66139 0.56938 0.0
H1787 H 0.87996 0.66235 0.61487 0.0
H1788 H 0.89689 0.66565 0.62913 0.0
H1789 H 0.88237 0.64678 0.62178 0.0
C1790 C 0.93949 0.67058 0.63663 0.0
C1791 C 0.93293 0.6584 0.65105 0.0
C1792 C 0.93167 0.67094 0.61732 0.0
C1793 C 0.91719 0.65916 0.6121 0.0
C1794 C 0.91085 0.64676 0.62597 0.0
H1795 H 0.85641 0.63637 0.49595 0.0
H1796 H 0.86823 0.63664 0.53247 0.0
C1797 C 0.91859 0.64642 0.64532 0.0
C1798 C 0.90878 0.65969 0.59191 0.0
H1799 H 0.87648 0.65821 0.57481 0.0
C1800 C 0.9148 0.6608 0.57059 0.0
C1801 C 0.89487 0.65892 0.59355 0.0
C1802 C 0.88819 0.65851 0.61608 0.0
C1803 C 0.90716 0.66089 0.55081 0.0
C1804 C 0.8932 0.65993 0.55245 0.0
C1805 C 0.88716 0.65886 0.57371 0.0
C1806 C 0.88486 0.66021 0.5321 0.0
C1807 C 0.91393 0.66179 0.52821 0.0
C1808 C 0.89 0.67351 0.5204 0.0
C1809 C 0.88321 0.67343 0.49974 0.0
C1810 C 0.87121 0.66002 0.49037 0.0
C1811 C 0.86555 0.64689 0.5028 0.0
C1812 C 0.87234 0.647 0.52356 0.0
H1813 H 0.92355 0.65994 0.52952 0.0
H1814 H 0.90554 0.65334 0.51587 0.0
H1815 H 0.91779 0.67309 0.52144 0.0
H1816 H 0.89955 0.68384 0.52692 0.0
H1817 H 0.88767 0.68377 0.4907 0.0
H1818 H 0.9479 0.70196 0.73025 0.0
H1819 H 0.92891 0.704 0.75125 0.0
H1820 H 0.91372 0.66 0.77718 0.0
H1821 H 0.9326 0.65781 0.75636 0.0
H1822 H 0.89369 0.67879 0.75223 0.0
H1823 H 0.92868 0.69513 0.83183 0.0
H1824 H 0.93648 0.69853 0.80415 0.0
H1825 H 0.92765 0.6799 0.81469 0.0
C1826 C 0.94045 0.69267 0.74029 0.0
C1827 C 0.94176 0.67973 0.7417 0.0
C1828 C 0.92959 0.69384 0.75214 0.0
C1829 C 0.91998 0.68214 0.76563 0.0
C1830 C 0.92105 0.6691 0.76672 0.0
H1831 H 0.84536 0.6496 0.84336 0.0
H1832 H 0.86121 0.65709 0.81096 0.0
C1833 C 0.93184 0.66788 0.75483 0.0
C1834 C 0.90945 0.68379 0.77993 0.0
H1835 H 0.90353 0.68825 0.83516 0.0
C1836 C 0.89586 0.6811 0.77033 0.0
C1837 C 0.91249 0.68704 0.80338 0.0
C1838 C 0.92714 0.69043 0.81424 0.0
C1839 C 0.88483 0.68077 0.78395 0.0
C1840 C 0.8875 0.68301 0.80767 0.0
C1841 C 0.90146 0.68656 0.81698 0.0
C1842 C 0.87565 0.68 0.82363 0.0
C1843 C 0.87037 0.67775 0.77288 0.0
C1844 C 0.87815 0.69051 0.84121 0.0
C1845 C 0.86916 0.68618 0.85989 0.0
C1846 C 0.85752 0.67128 0.86125 0.0
C1847 C 0.85413 0.66121 0.84264 0.0
C1848 C 0.86319 0.66551 0.82403 0.0
H1849 H 0.87198 0.68178 0.75533 0.0
H1850 H 0.86252 0.66545 0.77191 0.0
H1851 H 0.86528 0.68325 0.78265 0.0
H1852 H 0.88771 0.70174 0.84126 0.0
H1853 H 0.87194 0.69416 0.87401 0.0
H1854 H 0.29933 0.25714 0.71867 0.0
H1855 H 0.29558 0.2348 0.7383 0.0
H1856 H 0.3391 0.26067 0.77068 0.0
H1857 H 0.34297 0.28292 0.75114 0.0
H1858 H 0.33231 0.23174 0.75323 0.0
H1859 H 0.28791 0.22967 0.80655 0.0
H1860 H 0.28538 0.22941 0.77632 0.0
H1861 H 0.29982 0.246 0.79088 0.0
C1862 C 0.30811 0.25805 0.72994 0.0
C1863 C 0.32145 0.27181 0.73338 0.0
C1864 C 0.30593 0.24528 0.74113 0.0
C1865 C 0.31703 0.24613 0.75601 0.0
C1866 C 0.33043 0.25978 0.75915 0.0
H1867 H 0.33401 0.21873 0.87327 0.0
H1868 H 0.32636 0.22731 0.84061 0.0
C1869 C 0.33262 0.2725 0.74798 0.0
C1870 C 0.3147 0.23314 0.76932 0.0
H1871 H 0.29765 0.2143 0.81624 0.0
C1872 C 0.32447 0.2276 0.76667 0.0
C1873 C 0.30442 0.22778 0.78675 0.0
C1874 C 0.2938 0.23352 0.79051 0.0
C1875 C 0.32501 0.21767 0.78207 0.0
C1876 C 0.31545 0.21315 0.80043 0.0
C1877 C 0.30488 0.21775 0.80201 0.0
C1878 C 0.31849 0.20669 0.82055 0.0
C1879 C 0.33663 0.21311 0.77977 0.0
C1880 C 0.31643 0.1921 0.8202 0.0
C1881 C 0.32066 0.18698 0.83922 0.0
C1882 C 0.32697 0.19641 0.85876 0.0
C1883 C 0.32876 0.21093 0.85891 0.0
C1884 C 0.32449 0.21594 0.84012 0.0
H1885 H 0.34365 0.21816 0.76503 0.0
H1886 H 0.34391 0.21659 0.79535 0.0
H1887 H 0.33116 0.20069 0.7777 0.0
H1888 H 0.31177 0.18479 0.8052 0.0
H1889 H 0.31914 0.17575 0.83857 0.0
H1890 H 0.75617 0.04872 0.69532 0.0
H1891 H 0.76946 0.06296 0.72986 0.0
H1892 H 0.7343 0.07238 0.74301 0.0
H1893 H 0.7207 0.05781 0.70861 0.0
H1894 H 0.78006 0.09261 0.73952 0.0
H1895 H 0.74017 0.05828 0.80372 0.0
H1896 H 0.73874 0.05158 0.77479 0.0
H1897 H 0.73223 0.06433 0.78199 0.0
C1898 C 0.75114 0.05366 0.70566 0.0
C1899 C 0.73734 0.0521 0.69919 0.0
C1900 C 0.75879 0.06183 0.7254 0.0
C1901 C 0.75284 0.06864 0.73912 0.0
C1902 C 0.73897 0.06696 0.73292 0.0
H1903 H 0.78583 0.12657 0.86026 0.0
H1904 H 0.773 0.11377 0.82448 0.0
C1905 C 0.73123 0.05867 0.71321 0.0
C1906 C 0.76151 0.078 0.75934 0.0
H1907 H 0.76052 0.08179 0.81666 0.0
C1908 C 0.77581 0.09021 0.75641 0.0
C1909 C 0.75595 0.07485 0.78135 0.0
C1910 C 0.74099 0.06147 0.78575 0.0
C1911 C 0.78463 0.09945 0.77486 0.0
C1912 C 0.77903 0.09632 0.79679 0.0
C1913 C 0.76473 0.08417 0.79975 0.0
C1914 C 0.78784 0.10539 0.81706 0.0
C1915 C 0.79978 0.11261 0.77076 0.0
C1916 C 0.80061 0.10512 0.82449 0.0
C1917 C 0.80793 0.11236 0.84502 0.0
C1918 C 0.80254 0.11991 0.85846 0.0
C1919 C 0.79014 0.12069 0.85041 0.0
C1920 C 0.78281 0.11342 0.82997 0.0
H1921 H 0.80118 0.11538 0.75261 0.0
H1922 H 0.80177 0.12271 0.78092 0.0
H1923 H 0.80837 0.10979 0.77608 0.0
H1924 H 0.80454 0.0988 0.81488 0.0
H1925 H 0.81734 0.1114 0.85089 0.0
H1926 H 0.05214 0.34983 0.95785 0.0
H1927 H 0.07103 0.34462 0.97293 0.0
H1928 H 0.05796 0.34717 0.04079 0.0
H1929 H 0.03881 0.35225 0.02578 0.0
H1930 H 0.09494 0.36234 0.00238 0.0
H1931 H 0.05755 0.30705 0.03844 0.0
H1932 H 0.051 0.31579 0.01871 0.0
H1933 H 0.05443 0.3219 0.04805 0.0
C1934 C 0.05319 0.34921 0.976 0.0
C1935 C 0.04391 0.35141 0.99061 0.0
C1936 C 0.06403 0.34625 0.98458 0.0
C1937 C 0.06581 0.34534 0.00795 0.0
C1938 C 0.05661 0.34756 0.02265 0.0
H1939 H 0.13895 0.35195 0.0872 0.0
H1940 H 0.12216 0.357 0.06442 0.0
C1941 C 0.04571 0.35053 0.01406 0.0
C1942 C 0.07755 0.34243 0.01683 0.0
H1943 H 0.0833 0.31807 0.0479 0.0
C1944 C 0.0924 0.35262 0.01224 0.0
C1945 C 0.0742 0.32961 0.02933 0.0
C1946 C 0.05843 0.31787 0.03378 0.0
C1947 C 0.10401 0.35056 0.02038 0.0
C1948 C 0.1007 0.33807 0.03368 0.0
C1949 C 0.08583 0.32767 0.03773 0.0
C1950 C 0.11247 0.33601 0.04474 0.0
C1951 C 0.11971 0.36174 0.0146 0.0
C1952 C 0.11281 0.32263 0.041 0.0
C1953 C 0.12244 0.31973 0.05403 0.0
C1954 C 0.13172 0.33007 0.0712 0.0
C1955 C 0.13194 0.34381 0.07401 0.0
C1956 C 0.12239 0.34673 0.06095 0.0
H1957 H 0.12001 0.36776 -0.00091 0.0
H1958 H 0.12504 0.37023 0.02875 0.0
H1959 H 0.12635 0.35613 0.01205 0.0
H1960 H 0.1052 0.31418 0.02863 0.0
H1961 H 0.12188 0.30897 0.05173 0.0
H1962 H 0.6504 0.68915 0.01326 0.0
H1963 H 0.65961 0.71614 0.01 0.0
H1964 H 0.63622 0.71575 0.06954 0.0
H1965 H 0.62621 0.68878 0.07175 0.0
H1966 H 0.63442 0.73337 0.04152 0.0
H1967 H 0.69349 0.74768 0.04602 0.0
H1968 H 0.68293 0.73634 0.02167 0.0
H1969 H 0.67854 0.72882 0.04945 0.0
C1970 C 0.64716 0.69487 0.02548 0.0
C1971 C 0.63767 0.68691 0.04284 0.0
C1972 C 0.65252 0.71032 0.02373 0.0
C1973 C 0.64896 0.71816 0.03987 0.0
C1974 C 0.63916 0.71005 0.05683 0.0
H1975 H 0.69407 0.79732 0.11198 0.0
H1976 H 0.68578 0.77493 0.08802 0.0
C1977 C 0.63346 0.6946 0.05815 0.0
C1978 C 0.65573 0.73484 0.04015 0.0
H1979 H 0.68883 0.76757 0.04767 0.0
C1980 C 0.64633 0.74088 0.04267 0.0
C1981 C 0.67129 0.74471 0.0413 0.0
C1982 C 0.68217 0.7391 0.03965 0.0
C1983 C 0.65196 0.75615 0.04862 0.0
C1984 C 0.66752 0.76586 0.05096 0.0
C1985 C 0.67691 0.76012 0.04599 0.0
C1986 C 0.67417 0.78083 0.06306 0.0
C1987 C 0.64112 0.76133 0.05424 0.0
C1988 C 0.67101 0.7921 0.05668 0.0
C1989 C 0.67547 0.8049 0.07093 0.0
C1990 C 0.68332 0.80664 0.09148 0.0
C1991 C 0.68765 0.79607 0.09658 0.0
C1992 C 0.68302 0.78329 0.08271 0.0
H1993 H 0.62959 0.75179 0.05515 0.0
H1994 H 0.6443 0.76775 0.07072 0.0
H1995 H 0.64117 0.76879 0.04094 0.0
H1996 H 0.66465 0.79074 0.04121 0.0
H1997 H 0.67216 0.81299 0.06645 0.0
H1998 H 0.32854 0.97438 0.02295 0.0
H1999 H 0.30503 0.9556 0.0381 0.0
H2000 H 0.2856 0.94237 0.97042 0.0
H2001 H 0.30911 0.96104 0.95504 0.0
H2002 H 0.27668 0.95332 0.03183 0.0
H2003 H 0.277 0.90236 -0.00159 0.0
H2004 H 0.29349 0.92071 3e-05 0.0
H2005 H 0.27939 0.91624 0.97837 0.0
C2006 C 0.31929 0.96747 0.01126 0.0
C2007 C 0.32072 0.96917 0.98778 0.0
C2008 C 0.30587 0.95676 0.01994 0.0
C2009 C 0.29365 0.94751 0.00535 0.0
C2010 C 0.29497 0.94924 0.98193 0.0
H2011 H 0.20806 0.87643 0.05608 0.0
H2012 H 0.22581 0.89342 0.02891 0.0
C2013 C 0.3084 0.95997 0.97321 0.0
C2014 C 0.27954 0.93622 0.01491 0.0
H2015 H 0.25728 0.89848 0.02123 0.0
C2016 C 0.27232 0.94133 0.02926 0.0
C2017 C 0.27382 0.92059 0.01134 0.0
C2018 C 0.28132 0.91456 0.99632 0.0
C2019 C 0.25987 0.93121 0.04092 0.0
C2020 C 0.25464 0.91563 0.03832 0.0
C2021 C 0.26133 0.91045 0.02304 0.0
C2022 C 0.24384 0.90494 0.05388 0.0
C2023 C 0.25271 0.93725 0.05663 0.0
C2024 C 0.2483 0.90562 0.07658 0.0
C2025 C 0.23836 0.89599 0.0919 0.0
C2026 C 0.22366 0.88549 0.08491 0.0
C2027 C 0.21929 0.88447 0.06194 0.0
C2028 C 0.22936 0.89415 0.04648 0.0
H2029 H 0.25541 0.9488 0.05238 0.0
H2030 H 0.24047 0.92983 0.05599 0.0
H2031 H 0.25685 0.93768 0.07425 0.0
H2032 H 0.25953 0.91369 0.08247 0.0
H2033 H 0.24223 0.89676 0.1093 0.0
H2034 H 0.39366 0.06739 0.00994 0.0
H2035 H 0.38782 0.08757 0.01339 0.0
H2036 H 0.3424 0.05645 0.99206 0.0
H2037 H 0.34804 0.03614 0.98942 0.0
H2038 H 0.38064 0.0953 0.9755 0.0
H2039 H 0.33621 0.08364 0.03448 0.0
H2040 H 0.34676 0.07406 0.03551 0.0
H2041 H 0.33113 0.06769 0.01581 0.0
C2042 C 0.3823 0.06474 0.0068 0.0
C2043 C 0.37135 0.05025 -0.00093 0.0
C2044 C 0.37896 0.07628 0.00888 0.0
C2045 C 0.36467 0.07357 0.003 0.0
C2046 C 0.35342 0.0588 0.99718 0.0
H2047 H 0.32642 0.11259 0.92682 0.0
H2048 H 0.33082 0.09868 0.95597 0.0
C2049 C 0.3567 0.04719 0.99547 0.0
C2050 C 0.36241 0.08639 -0.00205 0.0
H2051 H 0.33811 0.09937 0.00288 0.0
C2052 C 0.3716 0.09646 0.98203 0.0
C2053 C 0.35051 0.08779 0.00623 0.0
C2054 C 0.3407 0.07778 0.02413 0.0
C2055 C 0.36868 0.10722 0.973 0.0
C2056 C 0.35639 0.10823 0.98052 0.0
C2057 C 0.34758 0.09865 0.99726 0.0
C2058 C 0.35154 0.11767 0.96869 0.0
C2059 C 0.37816 0.11662 0.95422 0.0
C2060 C 0.36116 0.13321 0.96733 0.0
C2061 C 0.35888 0.14113 0.95027 0.0
C2062 C 0.34678 0.13362 0.93464 0.0
C2063 C 0.33607 0.11857 0.93821 0.0
C2064 C 0.33848 0.11064 0.95503 0.0
H2065 H 0.38545 0.11249 0.94769 0.0
H2066 H 0.37112 0.11665 0.93985 0.0
H2067 H 0.38536 0.12839 0.96069 0.0
H2068 H 0.37117 0.1389 0.97805 0.0
H2069 H 0.36732 0.15272 0.94811 0.0
H2070 H 0.94443 0.32438 0.97473 0.0
H2071 H 0.92538 0.29794 0.97527 0.0
H2072 H 0.95903 0.28581 0.98635 0.0
H2073 H 0.97832 0.31239 0.98597 0.0
H2074 H 0.92535 0.27711 0.94278 0.0
H2075 H 0.92607 0.25946 0.03084 0.0
H2076 H 0.93336 0.27892 0.02401 0.0
H2077 H 0.94369 0.26968 0.01782 0.0
C2078 C 0.94784 0.31617 0.97767 0.0
C2079 C 0.96297 0.32055 0.98009 0.0
C2080 C 0.9369 0.30104 0.97804 0.0
C2081 C 0.94077 0.28992 0.98097 0.0
C2082 C 0.95579 0.29423 0.98442 0.0
H2083 H 0.89049 0.19414 0.94959 0.0
H2084 H 0.90861 0.2185 0.96759 0.0
C2085 C 0.9668 0.30944 0.98408 0.0
C2086 C 0.92921 0.27386 0.97755 0.0
H2087 H 0.91038 0.24036 0.00364 0.0
C2088 C 0.92204 0.2691 0.95612 0.0
C2089 C 0.92506 0.26341 0.99492 0.0
C2090 C 0.93234 0.26806 0.01828 0.0
C2091 C 0.91083 0.2542 0.95153 0.0
C2092 C 0.90637 0.24379 0.96902 0.0
C2093 C 0.9137 0.24843 0.99039 0.0
C2094 C 0.89429 0.22804 0.96476 0.0
C2095 C 0.904 0.24965 0.92781 0.0
C2096 C 0.87993 0.22505 0.95864 0.0
C2097 C 0.86963 0.2112 0.94833 0.0
C2098 C 0.87347 0.20009 0.94433 0.0
C2099 C 0.88721 0.20246 0.95285 0.0
C2100 C 0.89759 0.21639 0.96299 0.0
H2101 H 0.91098 0.25793 0.91529 0.0
H2102 H 0.90233 0.23845 0.92252 0.0
H2103 H 0.89301 0.24893 0.92735 0.0
H2104 H 0.87714 0.23386 0.96005 0.0
H2105 H 0.85917 0.20967 0.94164 0.0
H2106 H 0.68435 0.66399 0.0075 0.0
H2107 H 0.70793 0.66792 0.99341 0.0
H2108 H 0.69159 0.62024 0.99489 0.0
H2109 H 0.66798 0.61617 0.00829 0.0
H2110 H 0.72829 0.66164 0.01301 0.0
H2111 H 0.70624 0.62931 0.93153 0.0
H2112 H 0.69549 0.63471 0.94878 0.0
H2113 H 0.69688 0.61841 0.95524 0.0
C2114 C 0.68572 0.65433 0.00453 0.0
C2115 C 0.67423 0.63975 0.00883 0.0
C2116 C 0.69922 0.65661 0.9966 0.0
C2117 C 0.70144 0.64435 0.99281 0.0
C2118 C 0.69001 0.62982 0.99718 0.0
H2119 H 0.77159 0.6298 0.94882 0.0
H2120 H 0.752 0.62944 0.97142 0.0
C2121 C 0.67651 0.62753 0.00492 0.0
C2122 C 0.71577 0.64667 0.9847 0.0
H2123 H 0.73074 0.63542 0.94322 0.0
C2124 C 0.72886 0.656 -0.00233 0.0
C2125 C 0.7165 0.63936 0.96461 0.0
C2126 C 0.70305 0.63002 0.94911 0.0
C2127 C 0.7426 0.6579 0.99131 0.0
C2128 C 0.74318 0.65022 0.97165 0.0
C2129 C 0.73016 0.64107 0.95856 0.0
C2130 C 0.75721 0.65196 0.96342 0.0
C2131 C 0.75639 0.66789 0.00571 0.0
C2132 C 0.76694 0.66497 0.95229 0.0
C2133 C 0.77808 0.66517 0.93935 0.0
C2134 C 0.77963 0.65237 0.93743 0.0
C2135 C 0.77075 0.63987 0.95029 0.0
C2136 C 0.75952 0.63963 0.96307 0.0
H2137 H 0.75381 0.67149 0.02201 0.0
H2138 H 0.76263 0.66195 0.00925 0.0
H2139 H 0.76373 0.67807 0.99634 0.0
H2140 H 0.7652 0.67452 0.95217 0.0
H2141 H 0.78475 0.67489 0.92945 0.0
H2142 H 0.96916 0.67383 0.03694 0.0
H2143 H 0.94733 0.67467 0.02312 0.0
H2144 H 0.94339 0.6468 0.96479 0.0
H2145 H 0.96541 0.64604 0.97836 0.0
H2146 H 0.93957 0.6709 0.95432 0.0
H2147 H 0.90464 0.63985 0.02542 0.0
H2148 H 0.92195 0.65619 0.03413 0.0
H2149 H 0.92193 0.64055 0.01985 0.0
C2150 C 0.96371 0.66791 0.02111 0.0
C2151 C 0.96898 0.65977 0.00882 0.0
C2152 C 0.95116 0.66832 0.01333 0.0
C2153 C 0.94354 0.66051 0.99321 0.0
C2154 C 0.94904 0.65279 0.98049 0.0
H2155 H 0.85606 0.63623 0.94019 0.0
H2156 H 0.87725 0.63676 0.95991 0.0
C2157 C 0.96164 0.65239 0.98823 0.0
C2158 C 0.92989 0.66049 0.98538 0.0
H2159 H 0.8947 0.65054 0.00018 0.0
C2160 C 0.92976 0.66645 0.96433 0.0
C2161 C 0.91704 0.65451 -0.00162 0.0
C2162 C 0.91628 0.64728 0.02061 0.0
C2163 C 0.91718 0.66674 0.95601 0.0
C2164 C 0.90448 0.66116 0.9693 0.0
C2165 C 0.90453 0.65502 0.99021 0.0
C2166 C 0.89084 0.66102 0.96111 0.0
C2167 C 0.91748 0.67272 0.93282 0.0
C2168 C 0.89117 0.6745 0.95644 0.0
C2169 C 0.87906 0.67423 0.94528 0.0
C2170 C 0.86638 0.66046 0.93875 0.0
C2171 C 0.8656 0.64701 0.9452 0.0
C2172 C 0.87775 0.64729 0.9563 0.0
H2173 H 0.9266 0.67324 0.92278 0.0
H2174 H 0.9068 0.66561 0.92322 0.0
H2175 H 0.91924 0.68427 0.93466 0.0
H2176 H 0.90105 0.68523 0.96049 0.0
H2177 H 0.8799 0.68477 0.94067 0.0
H2178 H 0.34714 0.31665 0.98812 0.0
H2179 H 0.33987 0.29013 0.99084 0.0
H2180 H 0.38403 0.30055 0.97443 0.0
H2181 H 0.39146 0.32703 0.97179 0.0
H2182 H 0.34089 0.27361 0.95399 0.0
H2183 H 0.37458 0.27144 0.02595 0.0
H2184 H 0.3714 0.28703 0.02228 0.0
H2185 H 0.38536 0.28578 0.0066 0.0
C2186 C 0.3554 0.31337 0.98551 0.0
C2187 C 0.36987 0.32399 0.97956 0.0
C2188 C 0.35122 0.2982 0.98714 0.0
C2189 C 0.36146 0.2934 0.98315 0.0
C2190 C 0.37604 0.30404 0.97808 0.0
H2191 H 0.36743 0.22 0.93482 0.0
H2192 H 0.37093 0.24189 0.95705 0.0
C2193 C 0.38022 0.31918 0.97635 0.0
C2194 C 0.3565 0.27713 0.98117 0.0
H2195 H 0.36494 0.2507 -0.00155 0.0
C2196 C 0.34587 0.26847 0.96405 0.0
C2197 C 0.36311 0.27052 0.99424 0.0
C2198 C 0.37415 0.27914 0.01345 0.0
C2199 C 0.34237 0.25368 0.9586 0.0
C2200 C 0.34938 0.24719 0.97113 0.0
C2201 C 0.35951 0.25564 0.98898 0.0
C2202 C 0.34768 0.23248 0.96386 0.0
C2203 C 0.33198 0.24556 0.93842 0.0
C2204 C 0.33362 0.21948 0.96182 0.0
C2205 C 0.33157 0.20696 0.94892 0.0
C2206 C 0.34362 0.2072 0.9383 0.0
C2207 C 0.35796 0.21945 0.94292 0.0
C2208 C 0.35996 0.23202 0.95554 0.0
H2209 H 0.32993 0.25325 0.92799 0.0
H2210 H 0.33652 0.24004 0.92743 0.0
H2211 H 0.32114 0.23673 0.94439 0.0
H2212 H 0.32405 0.21947 0.96861 0.0
H2213 H 0.32042 0.19762 0.9457 0.0
H2214 H 0.6795 0.03466 0.98493 0.0
H2215 H 0.70389 0.05287 0.97143 0.0
H2216 H 0.71966 0.06886 0.04012 0.0
H2217 H 0.69534 0.05088 0.05374 0.0
H2218 H 0.72752 0.09199 0.01041 0.0
H2219 H 0.74163 0.04994 0.97742 0.0
H2220 H 0.72418 0.0471 0.96633 0.0
H2221 H 0.72653 0.04514 0.99605 0.0
C2222 C 0.68816 0.04204 0.99716 0.0
C2223 C 0.68549 0.04126 0.02042 0.0
C2224 C 0.70211 0.05238 0.98944 0.0
C2225 C 0.71364 0.06205 0.00483 0.0
C2226 C 0.71094 0.06145 0.02799 0.0
H2227 H 0.80451 0.11163 0.95961 0.0
H2228 H 0.78371 0.09766 0.98428 0.0
C2229 C 0.69702 0.05114 0.03572 0.0
C2230 C 0.72849 0.0729 0.99677 0.0
H2231 H 0.75711 0.07523 0.96682 0.0
C2232 C 0.73406 0.08834 0.00104 0.0
C2233 C 0.73714 0.06811 0.98499 0.0
C2234 C 0.73216 0.05167 0.9811 0.0
C2235 C 0.7478 0.09914 0.99299 0.0
C2236 C 0.75606 0.09436 0.98011 0.0
C2237 C 0.75075 0.0789 0.97663 0.0
C2238 C 0.76961 0.10505 0.96851 0.0
C2239 C 0.75331 0.11556 -0.0017 0.0
C2240 C 0.76876 0.1142 0.952 0.0
C2241 C 0.78063 0.12224 0.93805 0.0
C2242 C 0.79353 0.12116 0.94023 0.0
C2243 C 0.79477 0.11279 0.95774 0.0
C2244 C 0.78286 0.10473 0.9717 0.0
H2245 H 0.74849 0.11715 0.01396 0.0
H2246 H 0.7656 0.12207 0.00036 0.0
H2247 H 0.74989 0.12024 0.98417 0.0
H2248 H 0.75858 0.11443 0.94893 0.0
H2249 H 0.7794 0.12862 0.92469 0.0
H2250 H 0.66194 0.9779 0.01359 0.0
H2251 H 0.67221 0.96108 0.01175 0.0
H2252 H 0.63006 0.92405 0.02994 0.0
H2253 H 0.61965 0.94056 0.03126 0.0
H2254 H 0.67519 0.94778 0.04747 0.0
H2255 H 0.6413 0.90325 0.98317 0.0
H2256 H 0.64132 0.92083 0.98486 0.0
H2257 H 0.6295 0.90557 0.0024 0.0
C2258 C 0.65475 0.9661 0.01665 0.0
C2259 C 0.63999 0.96063 0.02276 0.0
C2260 C 0.66064 0.95649 0.01554 0.0
C2261 C 0.65186 0.94123 0.02037 0.0
C2262 C 0.63696 0.93565 0.0255 0.0
H2263 H 0.6541 0.87408 0.08877 0.0
H2264 H 0.64863 0.88876 0.06232 0.0
C2265 C 0.63106 0.9452 0.02652 0.0
C2266 C 0.65865 0.93165 0.02359 0.0
H2267 H 0.65192 0.8958 0.01436 0.0
C2268 C 0.67042 0.93658 0.03969 0.0
C2269 C 0.65245 0.91704 0.01342 0.0
C2270 C 0.64055 0.91145 0.99482 0.0
C2271 C 0.67527 0.92689 0.04737 0.0
C2272 C 0.66828 0.91191 0.03844 0.0
C2273 C 0.65723 0.90728 0.0212 0.0
C2274 C 0.67074 0.90049 0.04944 0.0
C2275 C 0.68703 0.93241 0.06625 0.0
C2276 C 0.68473 0.90159 0.04996 0.0
C2277 C 0.68788 0.89318 0.0651 0.0
C2278 C 0.67705 0.88362 0.07987 0.0
C2279 C 0.66265 0.88145 0.07764 0.0
C2280 C 0.65951 0.8898 0.06251 0.0
H2281 H 0.68996 0.94374 0.07318 0.0
H2282 H 0.68321 0.92447 0.08028 0.0
H2283 H 0.69723 0.93305 0.05979 0.0
H2284 H 0.69349 0.90968 0.03981 0.0
H2285 H 0.69909 0.89511 0.06657 0.0
H2286 H 0.03023 0.69802 0.01884 0.0
H2287 H 0.04831 0.72497 0.0178 0.0
H2288 H 0.08409 0.71534 0.02192 0.0
H2289 H 0.06625 0.68856 0.02286 0.0
H2290 H 0.06844 0.73964 0.05382 0.0
H2291 H 0.0986 0.74782 0.97495 0.0
H2292 H 0.08059 0.73157 0.97894 0.0
H2293 H 0.09712 0.73234 0.99041 0.0
C2294 C 0.04195 0.70162 0.01894 0.0
C2295 C 0.04679 0.69114 0.02112 0.0
C2296 C 0.05225 0.71702 0.01834 0.0
C2297 C 0.06755 0.72216 0.01949 0.0
C2298 C 0.07236 0.71164 0.0205 0.0
H2299 H 0.14932 0.79276 0.06743 0.0
H2300 H 0.12937 0.77217 0.04454 0.0
C2301 C 0.06211 0.69631 0.02128 0.0
C2302 C 0.0785 0.7384 0.02312 0.0
H2303 H 0.11167 0.76637 0.00538 0.0
C2304 C 0.07771 0.74565 0.04295 0.0
C2305 C 0.09063 0.74614 0.00899 0.0
C2306 C 0.09173 0.73911 0.98701 0.0
C2307 C 0.08921 0.76003 0.0499 0.0
C2308 C 0.10168 0.76758 0.03624 0.0
C2309 C 0.10211 0.76062 0.01578 0.0
C2310 C 0.11502 0.78178 0.04444 0.0
C2311 C 0.08835 0.7665 0.07264 0.0
C2312 C 0.11402 0.79451 0.05058 0.0
C2313 C 0.12538 0.80623 0.06386 0.0
C2314 C 0.13801 0.80552 0.07073 0.0
C2315 C 0.13976 0.79366 0.06221 0.0
C2316 C 0.12832 0.78184 0.04922 0.0
H2317 H 0.07951 0.75795 0.08297 0.0
H2318 H 0.09908 0.77127 0.08243 0.0
H2319 H 0.08584 0.77567 0.07006 0.0
H2320 H 0.10401 0.79486 0.04659 0.0
H2321 H 0.1238 0.81529 0.07019 0.0
H2322 H 0.33447 0.38766 0.02561 0.0
H2323 H 0.30954 0.38086 0.03717 0.0
H2324 H 0.29328 0.33508 0.01344 0.0
H2325 H 0.31818 0.34165 0.00244 0.0
H2326 H 0.28428 0.37008 0.01069 0.0
H2327 H 0.27679 0.32901 0.07566 0.0
H2328 H 0.29461 0.34145 0.06431 0.0
H2329 H 0.28145 0.32453 0.0487 0.0
C2330 C 0.32563 0.37609 0.02318 0.0
C2331 C 0.32833 0.36518 0.01322 0.0
C2332 C 0.31138 0.37224 0.02969 0.0
C2333 C 0.29958 0.35743 0.02637 0.0
C2334 C 0.30227 0.3465 0.01662 0.0
H2335 H 0.20615 0.31381 0.05628 0.0
H2336 H 0.2289 0.32093 0.03608 0.0
C2337 C 0.31653 0.3503 0.01029 0.0
C2338 C 0.28436 0.35354 0.03239 0.0
H2339 H 0.25544 0.33027 0.06442 0.0
C2340 C 0.27798 0.3614 0.02248 0.0
C2341 C 0.27615 0.34219 0.04774 0.0
C2342 C 0.28264 0.33391 0.05989 0.0
C2343 C 0.26358 0.35815 0.02746 0.0
C2344 C 0.25541 0.3468 0.04273 0.0
C2345 C 0.2617 0.33884 0.05246 0.0
C2346 C 0.24076 0.34367 0.0504 0.0
C2347 C 0.25716 0.36682 0.01636 0.0
C2348 C 0.23976 0.35429 0.06441 0.0
C2349 C 0.22683 0.35025 0.07594 0.0
C2350 C 0.2147 0.33553 0.07359 0.0
C2351 C 0.21527 0.32528 0.05811 0.0
C2352 C 0.22827 0.3293 0.04672 0.0
H2353 H 0.26334 0.37262 0.00124 0.0
H2354 H 0.24531 0.35925 0.01122 0.0
H2355 H 0.2578 0.37547 0.02863 0.0
H2356 H 0.24934 0.36536 0.06772 0.0
H2357 H 0.22666 0.35828 0.08793 0.0
H2358 H 0.70788 0.66841 0.29337 0.0
H2359 H 0.72776 0.66429 0.30718 0.0
H2360 H 0.72399 0.67868 0.37451 0.0
H2361 H 0.70389 0.68272 0.36085 0.0
H2362 H 0.75488 0.68547 0.3271 0.0
H2363 H 0.72326 0.63897 0.38466 0.0
H2364 H 0.71431 0.64455 0.36361 0.0
H2365 H 0.72142 0.65523 0.38992 0.0
C2366 C 0.71115 0.67058 0.31118 0.0
C2367 C 0.70425 0.67588 0.32603 0.0
C2368 C 0.72256 0.66824 0.31902 0.0
C2369 C 0.72728 0.67105 0.34189 0.0
C2370 C 0.72035 0.6762 0.35685 0.0
H2371 H 0.80833 0.68827 0.40854 0.0
H2372 H 0.78925 0.68991 0.38604 0.0
C2373 C 0.7089 0.67855 0.34901 0.0
C2374 C 0.73985 0.66913 0.3498 0.0
H2375 H 0.74957 0.65046 0.38726 0.0
C2376 C 0.7537 0.67774 0.34014 0.0
C2377 C 0.73825 0.65887 0.36653 0.0
C2378 C 0.72348 0.64876 0.37666 0.0
C2379 C 0.7661 0.6767 0.34731 0.0
C2380 C 0.76465 0.66693 0.36476 0.0
C2381 C 0.75069 0.65798 0.3739 0.0
C2382 C 0.77758 0.66645 0.37488 0.0
C2383 C 0.78064 0.68608 0.33613 0.0
C2384 C 0.77758 0.6528 0.3757 0.0
C2385 C 0.78853 0.65186 0.38855 0.0
C2386 C 0.79952 0.66452 0.40102 0.0
C2387 C 0.80002 0.67837 0.399 0.0
C2388 C 0.78914 0.67932 0.3861 0.0
H2389 H 0.77893 0.68927 0.31897 0.0
H2390 H 0.78752 0.69658 0.3465 0.0
H2391 H 0.7869 0.67998 0.3347 0.0
H2392 H 0.76872 0.64272 0.36724 0.0
H2393 H 0.78774 0.641 0.39009 0.0
H2394 H 0.32439 0.02365 0.35623 0.0
H2395 H 0.33303 0.05048 0.35289 0.0
H2396 H 0.29383 0.04462 0.38497 0.0
H2397 H 0.28494 0.01787 0.3879 0.0
H2398 H 0.30177 0.06406 0.34934 0.0
H2399 H 0.35017 0.07906 0.40811 0.0
H2400 H 0.3488 0.06836 0.38283 0.0
H2401 H 0.33509 0.06 0.40387 0.0
C2402 C 0.31754 0.02804 0.36239 0.0
C2403 C 0.30405 0.0186 0.37261 0.0
C2404 C 0.32253 0.04339 0.36052 0.0
C2405 C 0.3142 0.04959 0.36905 0.0
C2406 C 0.30046 0.04009 0.37831 0.0
H2407 H 0.31552 0.12507 0.42283 0.0
H2408 H 0.30907 0.10234 0.40017 0.0
C2409 C 0.29542 0.02477 0.38006 0.0
C2410 C 0.32007 0.06607 0.36991 0.0
H2411 H 0.34629 0.09854 0.39721 0.0
C2412 C 0.31165 0.07166 0.3595 0.0
C2413 C 0.333 0.076 0.38308 0.0
C2414 C 0.34227 0.07061 0.39527 0.0
C2415 C 0.31544 0.08677 0.36277 0.0
C2416 C 0.32786 0.09647 0.377 0.0
C2417 C 0.3368 0.0911 0.38622 0.0
C2418 C 0.3306 0.11137 0.38547 0.0
C2419 C 0.30587 0.09211 0.35148 0.0
C2420 C 0.34471 0.12421 0.38426 0.0
C2421 C 0.3484 0.13725 0.39726 0.0
C2422 C 0.33809 0.13753 0.41185 0.0
C2423 C 0.32362 0.12513 0.41159 0.0
C2424 C 0.31992 0.11216 0.39854 0.0
H2425 H 0.30055 0.08555 0.33543 0.0
H2426 H 0.29689 0.09044 0.36287 0.0
H2427 H 0.3124 0.10423 0.3478 0.0
H2428 H 0.35315 0.1238 0.37443 0.0
H2429 H 0.35968 0.1466 0.39739 0.0
H2430 H 0.97076 0.31062 0.30398 0.0
H2431 H 0.94647 0.29324 0.31854 0.0
H2432 H 0.96755 0.28103 0.37089 0.0
H2433 H 0.99188 0.2985 0.35667 0.0
H2434 H 0.93346 0.26238 0.32252 0.0
H2435 H 0.93997 0.2908 0.40607 0.0
H2436 H 0.95214 0.29997 0.38325 0.0
H2437 H 0.955 0.28747 0.40077 0.0
C2438 C 0.97025 0.30434 0.31872 0.0
C2439 C 0.98326 0.30597 0.32923 0.0
C2440 C 0.95635 0.2944 0.32697 0.0
C2441 C 0.95524 0.28602 0.34594 0.0
C2442 C 0.9682 0.28764 0.3565 0.0
H2443 H 0.8917 0.20364 0.39638 0.0
H2444 H 0.9084 0.22317 0.37167 0.0
C2445 C 0.98209 0.29758 0.34829 0.0
C2446 C 0.94054 0.2751 0.35429 0.0
H2447 H 0.92083 0.26489 0.40221 0.0
C2448 C 0.93056 0.26303 0.33984 0.0
C2449 C 0.93664 0.27615 0.3767 0.0
C2450 C 0.94644 0.28939 0.39252 0.0
C2451 C 0.91715 0.25146 0.34767 0.0
C2452 C 0.91381 0.25192 0.37061 0.0
C2453 C 0.92341 0.26447 0.38464 0.0
C2454 C 0.90132 0.23901 0.38122 0.0
C2455 C 0.90682 0.2388 0.33139 0.0
C2456 C 0.8915 0.24124 0.39442 0.0
C2457 C 0.88204 0.23012 0.40873 0.0
C2458 C 0.88224 0.21659 0.41005 0.0
C2459 C 0.89116 0.21387 0.39545 0.0
C2460 C 0.9007 0.22504 0.38127 0.0
H2461 H 0.90803 0.24266 0.31376 0.0
H2462 H 0.90964 0.22973 0.33182 0.0
H2463 H 0.89506 0.23404 0.3359 0.0
H2464 H 0.89181 0.25194 0.39466 0.0
H2465 H 0.87523 0.23245 0.4198 0.0
H2466 H 0.05804 0.39702 0.32127 0.0
H2467 H 0.05036 0.41585 0.32334 0.0
H2468 H 0.00496 0.38093 0.33017 0.0
H2469 H 0.01249 0.36193 0.32803 0.0
H2470 H 0.00982 0.39824 0.29266 0.0
H2471 H 0.03521 0.43514 0.36932 0.0
H2472 H 0.04808 0.43169 0.35435 0.0
H2473 H 0.03241 0.41632 0.36686 0.0
C2474 C 0.04647 0.39333 0.32379 0.0
C2475 C 0.03586 0.37794 0.32413 0.0
C2476 C 0.04212 0.40415 0.32524 0.0
C2477 C 0.02711 0.3998 0.32714 0.0
C2478 C 0.01662 0.38452 0.32894 0.0
H2479 H 0.99409 0.45459 0.26643 0.0
H2480 H 0.99324 0.43652 0.29363 0.0
C2481 C 0.02096 0.37368 0.32761 0.0
C2482 C 0.02222 0.4108 0.32274 0.0
H2483 H 0.02931 0.44611 0.33774 0.0
C2484 C 0.01371 0.40855 0.30282 0.0
C2485 C 0.02744 0.42424 0.33596 0.0
C2486 C 0.03618 0.42695 0.35794 0.0
C2487 C 0.01127 0.41986 0.2947 0.0
C2488 C 0.01707 0.43365 0.30739 0.0
C2489 C 0.0248 0.43553 0.32811 0.0
C2490 C 0.01711 0.44682 0.2976 0.0
C2491 C 0.00361 0.41732 0.27167 0.0
C2492 C 0.03075 0.45943 0.29275 0.0
C2493 C 0.0312 0.47 0.27788 0.0
C2494 C 0.01805 0.46799 0.26755 0.0
C2495 C 0.00435 0.45631 0.27427 0.0
C2496 C 0.00388 0.44593 0.2896 0.0
H2497 H 0.00255 0.40731 0.26232 0.0
H2498 H 0.99227 0.41547 0.27372 0.0
H2499 H 0.00977 0.42725 0.26113 0.0
H2500 H 0.04109 0.4604 0.29883 0.0
H2501 H 0.04188 0.47887 0.27275 0.0
H2502 H 0.60711 0.65338 0.31063 0.0
H2503 H 0.58753 0.62728 0.31295 0.0
H2504 H 0.62031 0.614 0.3245 0.0
H2505 H 0.64013 0.64025 0.32238 0.0
H2506 H 0.58586 0.60531 0.28205 0.0
H2507 H 0.58822 0.58968 0.37078 0.0
H2508 H 0.59617 0.60899 0.36274 0.0
H2509 H 0.60559 0.59876 0.35687 0.0
C2510 C 0.61023 0.64499 0.314 0.0
C2511 C 0.62525 0.64893 0.31609 0.0
C2512 C 0.59898 0.63006 0.31543 0.0
C2513 C 0.60245 0.61871 0.31908 0.0
C2514 C 0.61738 0.62262 0.32209 0.0
H2515 H 0.55482 0.52384 0.29124 0.0
H2516 H 0.5714 0.54833 0.31005 0.0
C2517 C 0.6287 0.63762 0.32071 0.0
C2518 C 0.59051 0.60275 0.31677 0.0
H2519 H 0.57236 0.56984 0.3445 0.0
C2520 C 0.58282 0.5976 0.29577 0.0
C2521 C 0.58671 0.59269 0.33464 0.0
C2522 C 0.5945 0.59777 0.35762 0.0
C2523 C 0.57156 0.58263 0.29198 0.0
C2524 C 0.56755 0.57257 0.30991 0.0
C2525 C 0.57529 0.57765 0.33094 0.0
C2526 C 0.55602 0.55654 0.30614 0.0
C2527 C 0.56437 0.57761 0.26852 0.0
C2528 C 0.54147 0.55265 0.29938 0.0
C2529 C 0.53202 0.53868 0.28857 0.0
C2530 C 0.53693 0.52837 0.28485 0.0
C2531 C 0.55072 0.53152 0.29434 0.0
C2532 C 0.56023 0.54555 0.30493 0.0
H2533 H 0.57094 0.5858 0.25563 0.0
H2534 H 0.56298 0.5665 0.26345 0.0
H2535 H 0.55322 0.57653 0.2684 0.0
H2536 H 0.53798 0.56095 0.30039 0.0
H2537 H 0.52155 0.53658 0.28101 0.0
H2538 H 0.35039 0.99455 0.33699 0.0
H2539 H 0.3736 0.99758 0.32272 0.0
H2540 H 0.35501 0.94947 0.32131 0.0
H2541 H 0.33176 0.94631 0.33488 0.0
H2542 H 0.39273 0.98955 0.34174 0.0
H2543 H 0.37064 0.95944 0.25868 0.0
H2544 H 0.36022 0.96511 0.27623 0.0
H2545 H 0.36068 0.94819 0.28177 0.0
C2546 C 0.35118 0.98461 0.33332 0.0
C2547 C 0.33918 0.97018 0.3369 0.0
C2548 C 0.36448 0.98637 0.32529 0.0
C2549 C 0.36597 0.97374 0.32068 0.0
C2550 C 0.354 0.95935 0.32424 0.0
H2551 H 0.43446 0.95687 0.27457 0.0
H2552 H 0.41477 0.95641 0.29707 0.0
C2553 C 0.34071 0.95758 0.33208 0.0
C2554 C 0.38013 0.97552 0.31267 0.0
H2555 H 0.39469 0.96425 0.27057 0.0
C2556 C 0.39319 0.98411 0.3261 0.0
C2557 C 0.38073 0.96846 0.29222 0.0
C2558 C 0.36735 0.95992 0.27628 0.0
C2559 C 0.40676 0.98552 0.31982 0.0
C2560 C 0.4072 0.97812 0.29972 0.0
C2561 C 0.39421 0.96968 0.28621 0.0
C2562 C 0.42111 0.97955 0.29145 0.0
C2563 C 0.4205 0.99471 0.33475 0.0
C2564 C 0.43149 0.9929 0.28169 0.0
C2565 C 0.44268 0.99316 0.26881 0.0
C2566 C 0.44365 0.98009 0.2656 0.0
C2567 C 0.43408 0.96714 0.27708 0.0
C2568 C 0.42278 0.96684 0.28978 0.0
H2569 H 0.41789 0.9978 0.35145 0.0
H2570 H 0.42646 0.98841 0.33747 0.0
H2571 H 0.4281 0.00521 0.32625 0.0
H2572 H 0.43025 0.00275 0.28256 0.0
H2573 H 0.44988 0.00323 0.25995 0.0
H2574 H 0.6274 0.97625 0.31615 0.0
H2575 H 0.60656 0.97825 0.30027 0.0
H2576 H 0.60962 0.0063 0.35785 0.0
H2577 H 0.63027 0.0042 0.37397 0.0
H2578 H 0.58112 0.98324 0.34852 0.0
H2579 H 0.60617 0.01352 0.27071 0.0
H2580 H 0.60725 0.99674 0.27364 0.0
H2581 H 0.61711 0.01226 0.29377 0.0
C2582 C 0.62377 0.98301 0.32527 0.0
C2583 C 0.63051 0.99006 0.34632 0.0
C2584 C 0.61189 0.98419 0.31615 0.0
C2585 C 0.60662 0.99254 0.32779 0.0
C2586 C 0.61351 0.99981 0.34857 0.0
H2587 H 0.54362 0.01437 0.26528 0.0
H2588 H 0.56448 0.01608 0.28774 0.0
C2589 C 0.62535 0.99862 0.35772 0.0
C2590 C 0.59349 0.99314 0.31888 0.0
H2591 H 0.58006 0.00294 0.27315 0.0
C2592 C 0.58091 0.98765 0.33211 0.0
C2593 C 0.5933 0.99908 0.29762 0.0
C2594 C 0.60672 0.00587 0.28318 0.0
C2595 C 0.56801 0.98757 0.32438 0.0
C2596 C 0.56762 0.99293 0.30271 0.0
C2597 C 0.58033 0.99877 0.28974 0.0
C2598 C 0.55405 0.99216 0.29266 0.0
C2599 C 0.55498 0.98186 0.33954 0.0
C2600 C 0.54106 0.97822 0.28863 0.0
C2601 C 0.52908 0.97724 0.27593 0.0
C2602 C 0.52997 0.99017 0.26682 0.0
C2603 C 0.54264 0.00422 0.27206 0.0
C2604 C 0.55458 0.0052 0.28481 0.0
H2605 H 0.5585 0.98251 0.35761 0.0
H2606 H 0.54913 0.98833 0.33769 0.0
H2607 H 0.54702 0.96989 0.33484 0.0
H2608 H 0.54049 0.96797 0.29412 0.0
H2609 H 0.5196 0.96622 0.27183 0.0
H2610 H 0.01284 0.64661 0.3238 0.0
H2611 H 0.0052 0.61997 0.32648 0.0
H2612 H 0.05014 0.63038 0.31614 0.0
H2613 H 0.05788 0.65692 0.31348 0.0
H2614 H 0.00852 0.60451 0.28969 0.0
H2615 H 0.03713 0.59962 0.36623 0.0
H2616 H 0.03412 0.6153 0.36226 0.0
H2617 H 0.04922 0.61478 0.34896 0.0
C2618 C 0.02117 0.64328 0.32263 0.0
C2619 C 0.03596 0.6539 0.31822 0.0
C2620 C 0.01678 0.62805 0.32421 0.0
C2621 C 0.02713 0.62322 0.3218 0.0
C2622 C 0.04202 0.63388 0.31854 0.0
H2623 H 0.0385 0.55366 0.27385 0.0
H2624 H 0.03938 0.5738 0.29761 0.0
C2625 C 0.0464 0.64906 0.31677 0.0
C2626 C 0.02216 0.60698 0.31913 0.0
H2627 H 0.02973 0.58008 0.33705 0.0
C2628 C 0.01282 0.59899 0.30036 0.0
C2629 C 0.0279 0.59991 0.33301 0.0
C2630 C 0.03754 0.6078 0.35388 0.0
C2631 C 0.00995 0.58452 0.29404 0.0
C2632 C 0.01619 0.57762 0.30738 0.0
C2633 C 0.02487 0.58531 0.32692 0.0
C2634 C 0.01554 0.5635 0.29935 0.0
C2635 C 1.0012 0.57731 0.27212 0.0
C2636 C 0.0019 0.55044 0.29398 0.0
C2637 C 1.00137 0.53896 0.28012 0.0
C2638 C 0.01451 0.54025 0.27197 0.0
C2639 C 0.02821 0.55232 0.28001 0.0
C2640 C 0.02872 0.5639 0.29352 0.0
H2641 H 0.99976 0.5854 0.26175 0.0
H2642 H 0.00677 0.57256 0.26181 0.0
H2643 H 0.99001 0.56802 0.27593 0.0
H2644 H 0.99161 0.54971 0.29885 0.0
H2645 H 0.99068 0.52972 0.2742 0.0
H2646 H 0.34851 0.36038 0.33812 0.0
H2647 H 0.37351 0.37799 0.3263 0.0
H2648 H 0.36168 0.41245 0.32021 0.0
H2649 H 0.33675 0.39503 0.33256 0.0
H2650 H 0.38295 0.39273 0.28769 0.0
H2651 H 0.39923 0.43409 0.35974 0.0
H2652 H 0.38287 0.41569 0.35965 0.0
H2653 H 0.38257 0.43062 0.34477 0.0
C2654 C 0.3512 0.3717 0.33422 0.0
C2655 C 0.34065 0.37633 0.33643 0.0
C2656 C 0.36552 0.38176 0.32753 0.0
C2657 C 0.36958 0.39664 0.3229 0.0
C2658 C 0.35893 0.40116 0.32436 0.0
H2659 H 0.44309 0.46598 0.25532 0.0
H2660 H 0.42034 0.45124 0.27584 0.0
C2661 C 0.34463 0.39114 0.3312 0.0
C2662 C 0.38483 0.40727 0.31592 0.0
H2663 H 0.41543 0.44161 0.32873 0.0
C2664 C 0.39008 0.40335 0.2968 0.0
C2665 C 0.39417 0.42111 0.32789 0.0
C2666 C 0.3895 0.42559 0.34928 0.0
C2667 C 0.40425 0.41303 0.289 0.0
C2668 C 0.41342 0.42697 0.30066 0.0
C2669 C 0.40831 0.43089 0.31989 0.0
C2670 C 0.42812 0.43774 0.29227 0.0
C2671 C 0.4093 0.40849 0.26806 0.0
C2672 C 0.44018 0.4354 0.29558 0.0
C2673 C 0.45321 0.44387 0.28402 0.0
C2674 C 0.45426 0.45467 0.26887 0.0
C2675 C 0.44254 0.45771 0.2669 0.0
C2676 C 0.42957 0.44932 0.27858 0.0
H2677 H 0.40039 0.39781 0.25993 0.0
H2678 H 0.41305 0.41747 0.25558 0.0
H2679 H 0.41889 0.40704 0.27263 0.0
H2680 H 0.43918 0.42647 0.30608 0.0
H2681 H 0.46201 0.44119 0.28562 0.0
H2682 H 0.28175 0.27385 0.37622 0.0
H2683 H 0.2914 0.25668 0.37292 0.0
H2684 H 0.33015 0.29077 0.34118 0.0
H2685 H 0.32077 0.30829 0.34499 0.0
H2686 H 0.30005 0.24489 0.33786 0.0
H2687 H 0.34802 0.28212 0.39637 0.0
H2688 H 0.33254 0.28511 0.39183 0.0
H2689 H 0.34631 0.29035 0.37084 0.0
C2690 C 0.29228 0.27772 0.36834 0.0
C2691 C 0.3006 0.29256 0.36122 0.0
C2692 C 0.29774 0.26783 0.36638 0.0
C2693 C 0.31161 0.27251 0.35717 0.0
C2694 C 0.31957 0.28702 0.34879 0.0
H2695 H 0.35954 0.22574 0.39032 0.0
H2696 H 0.35245 0.2399 0.36506 0.0
C2697 C 0.31416 0.29701 0.35093 0.0
C2698 C 0.31805 0.26251 0.35822 0.0
H2699 H 0.34489 0.25866 0.3862 0.0
C2700 C 0.31001 0.24797 0.3481 0.0
C2701 C 0.33109 0.26656 0.37148 0.0
C2702 C 0.33997 0.28182 0.38341 0.0
C2703 C 0.31424 0.23716 0.35186 0.0
C2704 C 0.32674 0.24096 0.36626 0.0
C2705 C 0.33534 0.25578 0.37507 0.0
C2706 C 0.32977 0.22945 0.37561 0.0
C2707 C 0.30503 0.22165 0.34099 0.0
C2708 C 0.31919 0.21837 0.38908 0.0
C2709 C 0.32322 0.21031 0.40344 0.0
C2710 C 0.3379 0.2132 0.40459 0.0
C2711 C 0.3481 0.22318 0.3895 0.0
C2712 C 0.34408 0.23132 0.37518 0.0
H2713 H 0.29973 0.22204 0.32468 0.0
H2714 H 0.31181 0.21626 0.33789 0.0
H2715 H 0.29604 0.21453 0.35237 0.0
H2716 H 0.30818 0.21693 0.39011 0.0
H2717 H 0.31522 0.20277 0.41508 0.0
H2718 H 0.72468 0.00925 0.36328 0.0
H2719 H 0.74548 0.03496 0.36302 0.0
H2720 H 0.71534 0.05201 0.36923 0.0
H2721 H 0.69429 0.02614 0.36886 0.0
H2722 H 0.73986 0.06945 0.34118 0.0
H2723 H 0.75787 0.05831 0.42403 0.0
H2724 H 0.75601 0.04532 0.40169 0.0
H2725 H 0.73989 0.04579 0.4108 0.0
C2726 C 0.72243 0.01846 0.36423 0.0
C2727 C 0.70787 0.01569 0.36648 0.0
C2728 C 0.73433 0.03315 0.36409 0.0
C2729 C 0.73198 0.04538 0.36666 0.0
C2730 C 0.71739 0.04271 0.36736 0.0
H2731 H 0.78772 0.13803 0.40871 0.0
H2732 H 0.76821 0.11525 0.38899 0.0
C2733 C 0.70539 0.02794 0.36716 0.0
C2734 C 0.74483 0.06076 0.37086 0.0
H2735 H 0.77421 0.08135 0.40789 0.0
C2736 C 0.74739 0.07209 0.35574 0.0
C2737 C 0.75456 0.0642 0.39001 0.0
C2738 C 0.7519 0.05282 0.4077 0.0
C2739 C 0.75964 0.08673 0.35908 0.0
C2740 C 0.76945 0.09004 0.37804 0.0
C2741 C 0.76682 0.07871 0.39313 0.0
C2742 C 0.78204 0.10534 0.38379 0.0
C2743 C 0.76209 0.0985 0.34228 0.0
C2744 C 0.79645 0.1076 0.38665 0.0
C2745 C 0.8076 0.12059 0.39802 0.0
C2746 C 0.80447 0.13145 0.40692 0.0
C2747 C 0.79043 0.12981 0.4021 0.0
C2748 C 0.77928 0.11683 0.3907 0.0
H2749 H 0.75592 0.09337 0.32594 0.0
H2750 H 0.75812 0.1059 0.34931 0.0
H2751 H 0.77407 0.10562 0.33907 0.0
H2752 H 0.79877 0.09882 0.38157 0.0
H2753 H 0.81823 0.12142 0.40165 0.0
H2754 H 0.98671 0.67404 0.34323 0.0
H2755 H 0.96185 0.66796 0.35391 0.0
H2756 H 0.9773 0.71509 0.36665 0.0
H2757 H 0.00212 0.72132 0.35545 0.0
H2758 H 0.95159 0.67283 0.39263 0.0
H2759 H 0.94195 0.70318 0.324 0.0
H2760 H 0.95727 0.69964 0.32434 0.0
H2761 H 0.95837 0.715 0.34118 0.0
C2762 C 0.98486 0.68313 0.34843 0.0
C2763 C 0.99638 0.69819 0.34831 0.0
C2764 C 0.97062 0.67963 0.35444 0.0
C2765 C 0.96761 0.69109 0.36048 0.0
C2766 C 0.97924 0.70609 0.36135 0.0
H2767 H 0.89574 0.69276 0.42428 0.0
H2768 H 0.91832 0.69915 0.40413 0.0
C2769 C 0.99347 0.70962 0.35518 0.0
C2770 C 0.95238 0.68731 0.3663 0.0
H2771 H 0.92445 0.69458 0.35334 0.0
C2772 C 0.94561 0.67746 0.38387 0.0
C2773 C 0.94454 0.69332 0.35477 0.0
C2774 C 0.95084 0.70325 0.33487 0.0
C2775 C 0.93142 0.6738 0.39067 0.0
C2776 C 0.92377 0.68009 0.37951 0.0
C2777 C 0.93039 0.68979 0.36177 0.0
C2778 C 0.90924 0.67729 0.38721 0.0
C2779 C 0.92481 0.66354 0.41015 0.0
C2780 C 0.89648 0.66315 0.38335 0.0
C2781 C 0.88353 0.65953 0.39466 0.0
C2782 C 0.88327 0.66999 0.41007 0.0
C2783 C 0.89568 0.68455 0.4124 0.0
C2784 C 0.90856 0.68819 0.40098 0.0
H2785 H 0.93288 0.661 0.41867 0.0
H2786 H 0.92085 0.66872 0.42285 0.0
H2787 H 0.9151 0.65279 0.4038 0.0
H2788 H 0.89685 0.65462 0.37274 0.0
H2789 H 0.87418 0.64818 0.39282 0.0
H2790 H 0.39484 0.04947 0.68805 0.0
H2791 H 0.41429 0.04386 0.69903 0.0
H2792 H 0.38437 0.99675 0.68341 0.0
H2793 H 0.36481 0.00223 0.67231 0.0
H2794 H 0.41357 0.02374 0.73264 0.0
H2795 H 0.42162 0.00718 0.64626 0.0
H2796 H 0.41223 0.0177 0.65112 0.0
H2797 H 0.40287 0.99786 0.65555 0.0
C2798 C 0.39234 0.03789 0.68705 0.0
C2799 C 0.37827 0.02631 0.67921 0.0
C2800 C 0.40349 0.03472 0.69329 0.0
C2801 C 0.40085 0.01994 0.69163 0.0
C2802 C 0.38672 0.00828 0.68439 0.0
H2803 H 0.45451 0.97998 0.72756 0.0
H2804 H 0.43622 0.9852 0.70937 0.0
C2805 C 0.37551 0.01143 0.67825 0.0
C2806 C 0.41287 0.01677 0.69786 0.0
H2807 H 0.43543 0.00462 0.67643 0.0
C2808 C 0.41838 0.0196 0.72035 0.0
C2809 C 0.41905 0.01129 0.68179 0.0
C2810 C 0.41376 0.00841 0.65727 0.0
C2811 C 0.42983 0.01696 0.72731 0.0
C2812 C 0.43622 0.01174 0.71117 0.0
C2813 C 0.43061 0.00875 0.68869 0.0
C2814 C 0.44856 0.00909 0.71769 0.0
C2815 C 0.43473 0.01949 0.75203 0.0
C2816 C 0.46196 0.02093 0.72704 0.0
C2817 C 0.47237 0.01797 0.7374 0.0
C2818 C 0.46965 0.00315 0.73825 0.0
C2819 C 0.45695 0.99152 0.72686 0.0
C2820 C 0.44645 0.99448 0.71665 0.0
H2821 H 0.42626 0.01966 0.76291 0.0
H2822 H 0.437 0.0106 0.75781 0.0
H2823 H 0.4451 0.0305 0.75448 0.0
H2824 H 0.46395 0.03234 0.72758 0.0
H2825 H 0.48206 0.0271 0.74615 0.0
H2826 H 0.94708 0.35039 0.69807 0.0
H2827 H 0.95475 0.37701 0.69732 0.0
H2828 H 1.00055 0.38839 0.69568 0.0
H2829 H 0.99299 0.3617 0.69617 0.0
H2830 H 0.97246 0.39591 0.73282 0.0
H2831 H 0.99865 0.41765 0.65111 0.0
H2832 H 0.98633 0.39786 0.65525 0.0
H2833 H 0.00528 0.40688 0.66572 0.0
C2834 C 0.95878 0.3585 0.69703 0.0
C2835 C 0.96943 0.3539 0.69746 0.0
C2836 C 0.96313 0.37373 0.69652 0.0
C2837 C 0.97821 0.38469 0.69632 0.0
C2838 C 0.98884 0.38012 0.6954 0.0
H2839 H 0.03073 0.47698 0.73904 0.0
H2840 H 0.02113 0.45269 0.71856 0.0
C2841 C 0.98449 0.36484 0.69583 0.0
C2842 C 0.9828 0.40073 0.70065 0.0
H2843 H 0.00276 0.43599 0.68028 0.0
C2844 C 0.97889 0.40465 0.72117 0.0
C2845 C 0.99136 0.41211 0.68556 0.0
C2846 C 0.99557 0.40845 0.66307 0.0
C2847 C 0.98364 0.41965 0.72737 0.0
C2848 C 0.99221 0.43109 0.71232 0.0
C2849 C 0.99603 0.42719 0.69164 0.0
C2850 C 0.99818 0.44716 0.71888 0.0
C2851 C 0.97997 0.42314 0.7505 0.0
C2852 C 0.98855 0.45249 0.72456 0.0
C2853 C 0.99402 0.46629 0.73641 0.0
C2854 C 0.00921 0.47506 0.74216 0.0
C2855 C 0.019 0.47046 0.7344 0.0
C2856 C 0.01351 0.45658 0.7228 0.0
H2857 H 0.97635 0.41354 0.76184 0.0
H2858 H 0.9897 0.43313 0.75876 0.0
H2859 H 0.97079 0.42561 0.7487 0.0
H2860 H 0.9767 0.44547 0.72138 0.0
H2861 H 0.98629 0.46957 0.74254 0.0
H2862 H 0.65946 0.63774 0.69124 0.0
H2863 H 0.63652 0.61767 0.70611 0.0
H2864 H 0.62227 0.59705 0.63915 0.0
H2865 H 0.64519 0.61703 0.62408 0.0
H2866 H 0.6059 0.60843 0.69167 0.0
H2867 H 0.62036 0.56339 0.68002 0.0
H2868 H 0.63417 0.58312 0.68023 0.0
H2869 H 0.62181 0.57442 0.65599 0.0
C2870 C 0.65146 0.62895 0.67966 0.0
C2871 C 0.65419 0.62895 0.65649 0.0
C2872 C 0.63835 0.61752 0.68817 0.0
C2873 C 0.62779 0.60585 0.67373 0.0
C2874 C 0.63037 0.60588 0.65058 0.0
H2875 H 0.54156 0.54011 0.7292 0.0
H2876 H 0.55917 0.55587 0.70081 0.0
C2877 C 0.64346 0.61734 0.64202 0.0
C2878 C 0.61419 0.59359 0.68315 0.0
H2879 H 0.59795 0.55683 0.69734 0.0
C2880 C 0.604 0.59708 0.69262 0.0
C2881 C 0.61182 0.57883 0.68433 0.0
C2882 C 0.62262 0.57463 0.67475 0.0
C2883 C 0.59174 0.58629 0.70401 0.0
C2884 C 0.58964 0.57166 0.70583 0.0
C2885 C 0.59953 0.56803 0.69564 0.0
C2886 C 0.57874 0.56085 0.72122 0.0
C2887 C 0.58158 0.59079 0.71512 0.0
C2888 C 0.58396 0.55817 0.74162 0.0
C2889 C 0.57404 0.54935 0.75765 0.0
C2890 C 0.55869 0.54293 0.75352 0.0
C2891 C 0.55336 0.54497 0.73265 0.0
C2892 C 0.56337 0.55397 0.71657 0.0
H2893 H 0.58552 0.60298 0.71378 0.0
H2894 H 0.57031 0.58432 0.70695 0.0
H2895 H 0.58064 0.58809 0.7333 0.0
H2896 H 0.59577 0.56337 0.74549 0.0
H2897 H 0.57836 0.54784 0.77361 0.0
H2898 H 0.72036 0.72646 0.69123 0.0
H2899 H 0.71436 0.74646 0.69685 0.0
H2900 H 0.67437 0.72073 0.65503 0.0
H2901 H 0.67972 0.70038 0.65125 0.0
H2902 H 0.71606 0.76259 0.66677 0.0
H2903 H 0.6592 0.74108 0.69213 0.0
H2904 H 0.66825 0.73015 0.69583 0.0
H2905 H 0.65784 0.72837 0.66987 0.0
C2906 C 0.70996 0.72487 0.68417 0.0
C2907 C 0.70051 0.71195 0.67076 0.0
C2908 C 0.70653 0.73631 0.68732 0.0
C2909 C 0.69387 0.73525 0.67643 0.0
C2910 C 0.68394 0.72181 0.66433 0.0
H2911 H 0.69223 0.78445 0.5777 0.0
H2912 H 0.69615 0.77155 0.60856 0.0
C2913 C 0.68709 0.71016 0.6619 0.0
C2914 C 0.69271 0.74899 0.67326 0.0
H2915 H 0.66691 0.75908 0.65978 0.0
C2916 C 0.70535 0.76196 0.66621 0.0
C2917 C 0.67897 0.74874 0.67305 0.0
C2918 C 0.66539 0.73636 0.68344 0.0
C2919 C 0.70421 0.77354 0.65613 0.0
C2920 C 0.69004 0.7719 0.65223 0.0
C2921 C 0.67773 0.76008 0.66207 0.0
C2922 C 0.68755 0.78021 0.63416 0.0
C2923 C 0.71809 0.7869 0.64808 0.0
C2924 C 0.68098 0.78907 0.63815 0.0
C2925 C 0.67851 0.7964 0.62022 0.0
C2926 C 0.68234 0.79468 0.59814 0.0
C2927 C 0.6889 0.78579 0.59441 0.0
C2928 C 0.69135 0.77857 0.61213 0.0
H2929 H 0.72777 0.78962 0.65958 0.0
H2930 H 0.72053 0.78414 0.63104 0.0
H2931 H 0.71684 0.79698 0.64705 0.0
H2932 H 0.67784 0.79034 0.65503 0.0
H2933 H 0.67344 0.80319 0.62352 0.0
H2934 H 0.2743 0.9853 0.64302 0.0
H2935 H 0.25587 0.95896 0.64676 0.0
H2936 H 0.29028 0.94957 0.66749 0.0
H2937 H 0.30898 0.97602 0.66335 0.0
H2938 H 0.27298 0.93097 0.63347 0.0
H2939 H 0.23663 0.93226 0.69876 0.0
H2940 H 0.23916 0.94515 0.67707 0.0
H2941 H 0.25486 0.94806 0.69453 0.0
C2942 C 0.278 0.97774 0.64873 0.0
C2943 C 0.29319 0.98283 0.65276 0.0
C2944 C 0.26738 0.96265 0.65111 0.0
C2945 C 0.27162 0.95228 0.65782 0.0
C2946 C 0.28672 0.95738 0.66251 0.0
H2947 H 0.21632 0.85476 0.63127 0.0
H2948 H 0.234 0.87757 0.65336 0.0
C2949 C 0.2974 0.97252 0.6601 0.0
C2950 C 0.26048 0.93595 0.6571 0.0
H2951 H 0.22531 0.91069 0.67213 0.0
C2952 C 0.26272 0.92643 0.6424 0.0
C2953 C 0.24708 0.93002 0.66873 0.0
C2954 C 0.24436 0.9394 0.68583 0.0
C2955 C 0.25155 0.91147 0.63774 0.0
C2956 C 0.23782 0.90579 0.64839 0.0
C2957 C 0.23584 0.91506 0.66402 0.0
C2958 C 0.2249 0.89105 0.64099 0.0
C2959 C 0.25416 0.9022 0.62024 0.0
C2960 C 0.21324 0.89078 0.62822 0.0
C2961 C 0.20308 0.87777 0.61583 0.0
C2962 C 0.2044 0.86481 0.6161 0.0
C2963 C 0.21499 0.86456 0.63095 0.0
C2964 C 0.22519 0.87762 0.64335 0.0
H2965 H 0.26453 0.90903 0.61115 0.0
H2966 H 0.25504 0.89313 0.62868 0.0
H2967 H 0.24473 0.89685 0.6076 0.0
H2968 H 0.21278 0.90099 0.62623 0.0
H2969 H 0.19505 0.87824 0.60442 0.0
H2970 H 0.03432 0.34388 0.71686 0.0
H2971 H 0.05722 0.34686 0.70154 0.0
H2972 H 0.03179 0.31434 0.64772 0.0
H2973 H 0.00887 0.3115 0.66262 0.0
H2974 H 0.06593 0.32601 0.6957 0.0
H2975 H 0.06284 0.34898 0.61327 0.0
H2976 H 0.05128 0.34778 0.6363 0.0
H2977 H 0.04637 0.33151 0.6182 0.0
C2978 C 0.0336 0.33746 0.70162 0.0
C2979 C 0.01977 0.32751 0.69088 0.0
C2980 C 0.0467 0.33916 0.69295 0.0
C2981 C 0.04623 0.33098 0.67333 0.0
C2982 C 0.03244 0.32102 0.66259 0.0
H2983 H 0.10645 0.30532 0.62098 0.0
H2984 H 0.08958 0.30873 0.64526 0.0
C2985 C 0.01934 0.31936 0.67119 0.0
C2986 C 0.0601 0.33251 0.66442 0.0
H2987 H 0.07973 0.33969 0.61648 0.0
C2988 C 0.06906 0.32917 0.67845 0.0
C2989 C 0.06434 0.33691 0.64209 0.0
C2990 C 0.05579 0.34165 0.62667 0.0
C2991 C 0.08183 0.32952 0.67042 0.0
C2992 C 0.08554 0.33302 0.64764 0.0
C2993 C 0.07687 0.33692 0.63392 0.0
C2994 C 0.09779 0.33196 0.63705 0.0
C2995 C 0.09118 0.32617 0.68644 0.0
C2996 C 0.10827 0.34395 0.62472 0.0
C2997 C 0.11776 0.34193 0.61064 0.0
C2998 C 0.11703 0.32793 0.60881 0.0
C2999 C 0.10741 0.3163 0.62248 0.0
C3000 C 0.09777 0.31826 0.63637 0.0
H3001 H 0.09003 0.32891 0.70428 0.0
H3002 H 0.0874 0.31398 0.68504 0.0
H3003 H 0.10309 0.33256 0.6824 0.0
H3004 H 0.1085 0.35461 0.62496 0.0
H3005 H 0.12501 0.351 0.60007 0.0
H3006 H 0.30308 0.34136 0.70083 0.0
H3007 H 0.28207 0.34351 0.68656 0.0
H3008 H 0.27463 0.31194 0.6316 0.0
H3009 H 0.29582 0.30983 0.64561 0.0
H3010 H 0.27228 0.33661 0.61833 0.0
H3011 H 0.23874 0.3108 0.69317 0.0
H3012 H 0.25674 0.32675 0.6999 0.0
H3013 H 0.25523 0.30994 0.68729 0.0
C3014 C 0.29707 0.33494 0.68559 0.0
C3015 C 0.30106 0.32532 0.67446 0.0
C3016 C 0.28498 0.33611 0.67757 0.0
C3017 C 0.27657 0.32762 0.65835 0.0
C3018 C 0.2809 0.31849 0.64661 0.0
H3019 H 0.18909 0.30599 0.60905 0.0
H3020 H 0.21022 0.3061 0.62829 0.0
C3021 C 0.29303 0.31733 0.6546 0.0
C3022 C 0.26321 0.32818 0.65062 0.0
H3023 H 0.22908 0.3211 0.66679 0.0
C3024 C 0.26284 0.33323 0.62891 0.0
C3025 C 0.25082 0.32357 0.66437 0.0
C3026 C 0.25028 0.31732 0.6874 0.0
C3027 C 0.25048 0.33396 0.62066 0.0
C3028 C 0.23826 0.32977 0.63466 0.0
C3029 C 0.23855 0.32453 0.65625 0.0
C3030 C 0.22485 0.33012 0.62662 0.0
C3031 C 0.25046 0.3389 0.59681 0.0
C3032 C 0.22584 0.34369 0.62049 0.0
C3033 C 0.21377 0.34367 0.60961 0.0
C3034 C 0.20048 0.33007 0.60482 0.0
C3035 C 0.19913 0.31665 0.6127 0.0
C3036 C 0.21123 0.31669 0.62353 0.0
H3037 H 0.259 0.33831 0.58664 0.0
H3038 H 0.23944 0.33184 0.58808 0.0
H3039 H 0.25291 0.35072 0.59737 0.0
H3040 H 0.23616 0.35423 0.6232 0.0
H3041 H 0.21508 0.35419 0.60387 0.0
H3042 H 0.7206 0.9868 0.64199 0.0
H3043 H 0.71075 0.95978 0.64312 0.0
H3044 H 0.66763 0.95316 0.65811 0.0
H3045 H 0.67733 0.98031 0.65671 0.0
H3046 H 0.69535 0.93744 0.67591 0.0
H3047 H 0.66088 0.92939 0.59763 0.0
H3048 H 0.67554 0.9477 0.60755 0.0
H3049 H 0.65829 0.93873 0.62165 0.0
C3050 C 0.70904 0.97967 0.64578 0.0
C3051 C 0.6997 0.98574 0.64888 0.0
C3052 C 0.70346 0.96421 0.64655 0.0
C3053 C 0.68843 0.95446 0.6504 0.0
C3054 C 0.67923 0.9605 0.65481 0.0
H3055 H 0.64765 0.86089 0.60299 0.0
H3056 H 0.64979 0.88175 0.62677 0.0
C3057 C 0.68481 0.97602 0.65405 0.0
C3058 C 0.68234 0.93803 0.64753 0.0
H3059 H 0.66217 0.90868 0.60986 0.0
C3060 C 0.68787 0.93103 0.66173 0.0
C3061 C 0.67252 0.92968 0.62909 0.0
C3062 C 0.66649 0.9367 0.61296 0.0
C3063 C 0.68435 0.91609 0.65736 0.0
C3064 C 0.67531 0.90807 0.63804 0.0
C3065 C 0.66906 0.91479 0.62471 0.0
C3066 C 0.67379 0.89368 0.62934 0.0
C3067 C 0.6906 0.90917 0.67319 0.0
C3068 C 0.68652 0.89309 0.62371 0.0
C3069 C 0.68531 0.88115 0.61028 0.0
C3070 C 0.67135 0.86967 0.60194 0.0
C3071 C 0.65855 0.86962 0.60913 0.0
C3072 C 0.65977 0.88153 0.6227 0.0
H3073 H 0.692 0.91392 0.69073 0.0
H3074 H 0.68338 0.89676 0.67335 0.0
H3075 H 0.70173 0.91179 0.66765 0.0
H3076 H 0.69748 0.90246 0.62808 0.0
H3077 H 0.69538 0.88164 0.60475 0.0
H3078 H 0.0139 0.69669 0.66119 0.0
H3079 H 0.03821 0.71405 0.64653 0.0
H3080 H 0.03963 0.75063 0.68588 0.0
H3081 H 0.01561 0.73332 0.70106 0.0
H3082 H 0.04736 0.73853 0.62216 0.0
H3083 H 0.07904 0.75485 0.70436 0.0
H3084 H 0.06029 0.73929 0.7011 0.0
H3085 H 0.06375 0.75825 0.70408 0.0
C3086 C 0.01939 0.70843 0.66668 0.0
C3087 C 0.01289 0.71361 0.68241 0.0
C3088 C 0.03329 0.71834 0.65835 0.0
C3089 C 0.0409 0.73358 0.66553 0.0
C3090 C 0.03419 0.73885 0.68064 0.0
H3091 H 0.11323 0.80109 0.59009 0.0
H3092 H 0.09067 0.78781 0.61156 0.0
C3093 C 0.02039 0.72895 0.68915 0.0
C3094 C 0.05568 0.74403 0.65675 0.0
H3095 H 0.09164 0.76934 0.6729 0.0
C3096 C 0.05705 0.74524 0.63326 0.0
C3097 C 0.06837 0.75262 0.67125 0.0
C3098 C 0.06786 0.75109 0.69659 0.0
C3099 C 0.07069 0.75489 0.62383 0.0
C3100 C 0.08324 0.76395 0.63835 0.0
C3101 C 0.08194 0.76261 0.66185 0.0
C3102 C 0.09793 0.77425 0.62922 0.0
C3103 C 0.07159 0.75495 0.59838 0.0
C3104 C 0.10992 0.77191 0.63348 0.0
C3105 C 0.12295 0.77976 0.62165 0.0
C3106 C 0.12407 0.78997 0.60536 0.0
C3107 C 0.11257 0.79324 0.60258 0.0
C3108 C 0.09965 0.78556 0.61462 0.0
H3109 H 0.0622 0.74466 0.5901 0.0
H3110 H 0.07113 0.76479 0.59203 0.0
H3111 H 0.08213 0.75577 0.59314 0.0
H3112 H 0.10885 0.76332 0.64482 0.0
H3113 H 0.13161 0.77694 0.62387 0.0
H3114 H 0.95107 0.61056 0.71158 0.0
H3115 H 0.96037 0.59319 0.70684 0.0
H3116 H 0.99871 0.62726 0.67425 0.0
H3117 H 0.98967 0.64498 0.67952 0.0
H3118 H 0.96817 0.58149 0.67056 0.0
H3119 H 0.01725 0.61783 0.72778 0.0
H3120 H 0.00186 0.6211 0.72445 0.0
H3121 H 0.01522 0.62634 0.70279 0.0
C3122 C 0.96143 0.61439 0.70323 0.0
C3123 C 0.96974 0.62928 0.69628 0.0
C3124 C 0.9667 0.60439 0.70043 0.0
C3125 C 0.98035 0.60899 0.69053 0.0
C3126 C 0.9883 0.62357 0.68237 0.0
H3127 H 0.02765 0.56125 0.7198 0.0
H3128 H 0.02043 0.57543 0.69485 0.0
C3129 C 0.98309 0.63367 0.68536 0.0
C3130 C 0.98661 0.59881 0.69063 0.0
H3131 H 0.01354 0.59428 0.71682 0.0
C3132 C 0.97825 0.58436 0.68033 0.0
C3133 C 0.9998 0.60259 0.70328 0.0
C3134 C 0.00903 0.61775 0.71536 0.0
C3135 C 0.98231 0.57335 0.68335 0.0
C3136 C 0.99496 0.57687 0.69718 0.0
C3137 C 0.00388 0.59161 0.70612 0.0
C3138 C 0.99788 0.56514 0.70593 0.0
C3139 C 0.97275 0.55794 0.67233 0.0
C3140 C 0.98738 0.55407 0.71951 0.0
C3141 C 0.99148 0.54597 0.73367 0.0
C3142 C 0.00615 0.54884 0.73455 0.0
C3143 C 0.01622 0.55871 0.71922 0.0
C3144 C 0.01213 0.56688 0.70507 0.0
H3145 H 0.96737 0.55856 0.65627 0.0
H3146 H 0.97929 0.55234 0.66874 0.0
H3147 H 0.96382 0.55088 0.68384 0.0
H3148 H 0.97643 0.55271 0.72086 0.0
H3149 H 0.98357 0.53849 0.74548 0.0
H3150 H 0.36546 0.35983 0.70469 0.0
H3151 H 0.38725 0.38505 0.70565 0.0
H3152 H 0.41394 0.36652 0.68214 0.0
H3153 H 0.39235 0.34123 0.68266 0.0
H3154 H 0.42653 0.38232 0.717 0.0
H3155 H 0.41211 0.41726 0.66514 0.0
H3156 H 0.39804 0.40802 0.68524 0.0
H3157 H 0.40097 0.39701 0.66395 0.0
C3158 C 0.37591 0.36122 0.69916 0.0
C3159 C 0.37729 0.34862 0.69376 0.0
C3160 C 0.38837 0.37568 0.6995 0.0
C3161 C 0.40231 0.37782 0.69371 0.0
C3162 C 0.40337 0.36524 0.68672 0.0
H3163 H 0.47968 0.46966 0.72384 0.0
H3164 H 0.46272 0.44692 0.70043 0.0
C3165 C 0.39103 0.35078 0.68701 0.0
C3166 C 0.41604 0.39261 0.69847 0.0
H3167 H 0.43024 0.43061 0.69673 0.0
C3168 C 0.42745 0.39282 0.71194 0.0
C3169 C 0.41757 0.40645 0.69171 0.0
C3170 C 0.40656 0.40714 0.67549 0.0
C3171 C 0.43965 0.40635 0.72021 0.0
C3172 C 0.44029 0.42008 0.71553 0.0
C3173 C 0.42959 0.42004 0.70062 0.0
C3174 C 0.45057 0.43406 0.72878 0.0
C3175 C 0.45143 0.40578 0.73478 0.0
C3176 C 0.44922 0.43434 0.75225 0.0
C3177 C 0.45878 0.44708 0.76545 0.0
C3178 C 0.46985 0.46005 0.75551 0.0
C3179 C 0.47124 0.45984 0.73191 0.0
C3180 C 0.46155 0.44693 0.71857 0.0
H3181 H 0.45222 0.39564 0.73037 0.0
H3182 H 0.46247 0.41593 0.73299 0.0
H3183 H 0.44847 0.40516 0.75278 0.0
H3184 H 0.44073 0.4246 0.76044 0.0
H3185 H 0.45759 0.44669 0.7836 0.0
H3186 H 0.65544 0.04265 0.63708 0.0
H3187 H 0.63211 0.0387 0.65177 0.0
H3188 H 0.63364 0.00939 0.70154 0.0
H3189 H 0.65728 0.01365 0.68731 0.0
H3190 H 0.60571 0.01344 0.6538 0.0
H3191 H 0.62669 0.03785 0.74036 0.0
H3192 H 0.63892 0.04009 0.71781 0.0
H3193 H 0.63031 0.02298 0.73308 0.0
C3194 C 0.65088 0.03544 0.65127 0.0
C3195 C 0.65825 0.02852 0.66114 0.0
C3196 C 0.63752 0.03317 0.6596 0.0
C3197 C 0.63122 0.02391 0.67793 0.0
C3198 C 0.63847 0.01686 0.68771 0.0
H3199 H 0.54139 0.98171 0.7215 0.0
H3200 H 0.56343 0.98885 0.69959 0.0
C3201 C 0.65194 0.01925 0.67951 0.0
C3202 C 0.61694 0.02149 0.68648 0.0
H3203 H 0.60047 0.02406 0.73418 0.0
C3204 C 0.60457 0.01587 0.67134 0.0
C3205 C 0.61554 0.02492 0.70925 0.0
C3206 C 0.62861 0.03194 0.72601 0.0
C3207 C 0.59074 0.01324 0.67849 0.0
C3208 C 0.58917 0.01599 0.70152 0.0
C3209 C 0.60164 0.02191 0.71652 0.0
C3210 C 0.57469 0.01231 0.71088 0.0
C3211 C 0.57802 0.00772 0.66126 0.0
C3212 C 0.57352 0.02314 0.72417 0.0
C3213 C 0.56103 0.019 0.73691 0.0
C3214 C 0.54944 0.004 0.73638 0.0
C3215 C 0.55007 0.9934 0.72177 0.0
C3216 C 0.56267 0.9975 0.70926 0.0
H3217 H 0.58208 0.01107 0.64395 0.0
H3218 H 0.57151 0.99525 0.66108 0.0
H3219 H 0.57052 0.01214 0.66534 0.0
H3220 H 0.58264 0.03463 0.72569 0.0
H3221 H 0.56081 0.0273 0.74828 0.0
loop_
_geom_bond_atom_site_label_1
_geom_bond_atom_site_label_2
_geom_bond_distance
_geom_bond_site_symmetry_2
_ccdc_geom_bond_type
Mg0 O1 2.028 1_556 S
Mg0 O7 1.986 1_455 S
Mg0 O9 2.114 . S
Mg0 O10 2.251 1_455 S
Mg0 O13 2.010 1_556 S
O1 Mg0 2.028 1_554 S
O1 C4 1.250 1_455 S
O2 Mg3 2.028 1_554 S
O2 C4 1.248 . S
Mg3 O2 2.028 1_556 S
Mg3 O8 2.032 . S
Mg3 O10 2.079 . S
C4 O1 1.250 1_655 S
C4 O2 1.248 . S
C5 O6 1.264 1_554 S
C5 O13 1.249 . S
O6 C5 1.264 1_556 S
O7 Mg0 1.986 1_655 S
O7 C11 1.246 . S
O8 Mg3 2.032 . S
O8 C11 1.259 . S
O9 Mg0 2.114 . S
O9 C12 1.252 . S
O10 Mg0 2.251 1_655 S
O10 Mg3 2.079 . S
O10 C12 1.273 1_655 S
C11 O7 1.246 . S
C11 O8 1.259 . S
C12 O9 1.252 . S
C12 O10 1.273 1_455 S
O13 Mg0 2.010 1_554 S
O13 C5 1.249 . S
Mg14 O15 2.028 1_554 S
Mg14 O21 1.986 . S
Mg14 O23 2.114 . S
Mg14 O24 2.251 . S
Mg14 O27 2.010 . S
O15 Mg14 2.028 1_556 S
O15 C18 1.250 . S
O16 Mg17 2.028 1_556 S
O16 C18 1.248 . S
Mg17 O16 2.028 1_554 S
Mg17 O22 2.032 . S
Mg17 O24 2.079 . S
C18 O15 1.250 . S
C18 O16 1.248 . S
C19 O20 1.264 . S
C19 O27 1.249 . S
O20 C19 1.264 . S
O21 Mg14 1.986 . S
O21 C25 1.246 . S
O22 Mg17 2.032 . S
O22 C25 1.259 . S
O23 Mg14 2.114 . S
O23 C26 1.252 . S
O24 Mg14 2.251 . S
O24 Mg17 2.079 . S
O24 C26 1.273 . S
C25 O21 1.246 . S
C25 O22 1.259 . S
C26 O23 1.252 . S
C26 O24 1.273 . S
O27 Mg14 2.010 . S
O27 C19 1.249 . S
Mg28 O29 2.021 1_556 S
Mg28 O35 1.985 1_566 S
Mg28 O37 2.114 . S
Mg28 O38 2.251 1_565 S
Mg28 O41 2.010 1_556 S
O29 Mg28 2.021 1_554 S
O29 C32 1.243 1_565 S
O30 Mg31 2.028 1_554 S
O30 C32 1.248 . S
Mg31 O30 2.028 1_556 S
Mg31 O36 2.032 . S
Mg31 O38 2.079 . S
C32 O29 1.243 1_545 S
C32 O30 1.248 . S
C33 O34 1.264 1_554 S
C33 O41 1.249 . S
O34 C33 1.264 1_556 S
O35 Mg28 1.985 1_544 S
O35 C39 1.244 1_554 S
O36 Mg31 2.032 . S
O36 C39 1.259 . S
O37 Mg28 2.114 . S
O37 C40 1.252 . S
O38 Mg28 2.251 1_545 S
O38 Mg31 2.079 . S
O38 C40 1.273 1_545 S
C39 O35 1.244 1_556 S
C39 O36 1.259 . S
C40 O37 1.252 . S
C40 O38 1.273 1_565 S
O41 Mg28 2.010 1_554 S
O41 C33 1.249 . S
Mg42 O43 2.028 1_554 S
Mg42 O49 1.986 1_655 S
Mg42 O51 2.114 . S
Mg42 O52 2.251 1_655 S
Mg42 O55 2.010 . S
O43 Mg42 2.028 1_556 S
O43 C46 1.250 1_655 S
O44 Mg45 2.028 1_556 S
O44 C46 1.248 . S
Mg45 O44 2.028 1_554 S
Mg45 O50 2.032 . S
Mg45 O52 2.079 . S
C46 O43 1.250 1_455 S
C46 O44 1.248 . S
C47 O48 1.264 . S
C47 O55 1.249 . S
O48 C47 1.264 . S
O49 Mg42 1.986 1_455 S
O49 C53 1.246 . S
O50 Mg45 2.032 . S
O50 C53 1.259 . S
O51 Mg42 2.114 . S
O51 C54 1.252 . S
O52 Mg42 2.251 1_455 S
O52 Mg45 2.079 . S
O52 C54 1.273 1_455 S
C53 O49 1.246 . S
C53 O50 1.259 . S
C54 O51 1.252 . S
C54 O52 1.273 1_655 S
O55 Mg42 2.010 . S
O55 C47 1.249 . S
Mg56 O57 2.028 1_556 S
Mg56 O63 1.988 . S
Mg56 O65 2.114 . S
Mg56 O66 2.251 . S
Mg56 O69 2.010 1_556 S
O57 Mg56 2.028 1_554 S
O57 C60 1.250 . S
O58 Mg59 2.028 1_554 S
O58 C60 1.248 . S
Mg59 O58 2.028 1_556 S
Mg59 O64 2.032 . S
Mg59 O66 2.079 . S
C60 O57 1.250 . S
C60 O58 1.248 . S
C61 O62 1.264 . S
C61 O69 1.249 . S
O62 C61 1.264 . S
O63 Mg56 1.988 . S
O63 C67 1.251 . S
O64 Mg59 2.032 . S
O64 C67 1.259 . S
O65 Mg56 2.114 . S
O65 C68 1.252 . S
O66 Mg56 2.251 . S
O66 Mg59 2.079 . S
O66 C68 1.273 . S
C67 O63 1.251 . S
C67 O64 1.259 . S
C68 O65 1.252 . S
C68 O66 1.273 . S
O69 Mg56 2.010 1_554 S
O69 C61 1.249 . S
Mg70 O71 2.028 1_554 S
Mg70 O77 1.986 1_545 S
Mg70 O79 2.114 . S
Mg70 O80 2.251 1_545 S
Mg70 O83 2.010 . S
O71 Mg70 2.028 1_556 S
O71 C74 1.250 1_545 S
O72 Mg73 2.028 1_556 S
O72 C74 1.248 . S
Mg73 O72 2.028 1_554 S
Mg73 O78 2.032 . S
Mg73 O80 2.079 . S
C74 O71 1.250 1_565 S
C74 O72 1.248 . S
C75 O76 1.264 . S
C75 O83 1.249 . S
O76 C75 1.264 . S
O77 Mg70 1.986 1_565 S
O77 C81 1.246 . S
O78 Mg73 2.032 . S
O78 C81 1.259 . S
O79 Mg70 2.114 . S
O79 C82 1.252 . S
O80 Mg70 2.251 1_565 S
O80 Mg73 2.079 . S
O80 C82 1.273 1_565 S
C81 O77 1.246 . S
C81 O78 1.259 . S
C82 O79 1.252 . S
C82 O80 1.273 1_545 S
O83 Mg70 2.010 . S
O83 C75 1.249 . S
Mg84 O85 2.028 . S
Mg84 O91 1.986 . S
Mg84 O93 2.114 . S
Mg84 O94 2.251 . S
Mg84 O97 2.010 . S
O85 Mg84 2.028 . S
O85 C88 1.250 . S
O86 Mg87 2.028 . S
O86 C88 1.248 . S
Mg87 O86 2.028 . S
Mg87 O92 2.032 . S
Mg87 O94 2.079 . S
C88 O85 1.250 . S
C88 O86 1.248 . S
C89 O90 1.264 . S
C89 O97 1.249 . S
O90 C89 1.264 . S
O91 Mg84 1.986 . S
O91 C95 1.246 . S
O92 Mg87 2.032 . S
O92 C95 1.259 . S
O93 Mg84 2.114 . S
O93 C96 1.252 . S
O94 Mg84 2.251 . S
O94 Mg87 2.079 . S
O94 C96 1.273 . S
C95 O91 1.246 . S
C95 O92 1.259 . S
C96 O93 1.252 . S
C96 O94 1.273 . S
O97 Mg84 2.010 . S
O97 C89 1.249 . S
Mg98 O99 2.028 . S
Mg98 O105 1.986 1_565 S
Mg98 O107 2.114 . S
Mg98 O108 2.251 . S
Mg98 O111 2.010 . S
O99 Mg98 2.028 . S
O99 C102 1.250 . S
O100 Mg101 2.028 . S
O100 C102 1.248 . S
Mg101 O100 2.028 . S
Mg101 O106 2.032 1_565 S
Mg101 O108 2.079 . S
C102 O99 1.250 . S
C102 O100 1.248 . S
C103 O104 1.264 . S
C103 O111 1.249 . S
O104 C103 1.264 . S
O105 Mg98 1.986 1_545 S
O105 C109 1.246 . S
O106 Mg101 2.032 1_545 S
O106 C109 1.259 . S
O107 Mg98 2.114 . S
O107 C110 1.252 . S
O108 Mg98 2.251 . S
O108 Mg101 2.079 . S
O108 C110 1.273 . S
C109 O105 1.246 . S
C109 O106 1.259 . S
C110 O107 1.252 . S
C110 O108 1.273 . S
O111 Mg98 2.010 . S
O111 C103 1.249 . S
Mg112 O113 2.028 . S
Mg112 O119 1.986 . S
Mg112 O121 2.114 . S
Mg112 O122 2.251 . S
Mg112 O125 2.010 1_455 S
O113 Mg112 2.028 . S
O113 C116 1.250 . S
O114 Mg115 2.028 . S
O114 C116 1.248 . S
Mg115 O114 2.028 . S
Mg115 O120 2.032 . S
Mg115 O122 2.079 . S
C116 O113 1.250 . S
C116 O114 1.248 . S
C117 O118 1.264 . S
C117 O125 1.249 . S
O118 C117 1.264 . S
O119 Mg112 1.986 . S
O119 C123 1.246 . S
O120 Mg115 2.032 . S
O120 C123 1.259 . S
O121 Mg112 2.114 . S
O121 C124 1.252 . S
O122 Mg112 2.251 . S
O122 Mg115 2.079 . S
O122 C124 1.273 . S
C123 O119 1.246 . S
C123 O120 1.259 . S
C124 O121 1.252 . S
C124 O122 1.273 . S
O125 Mg112 2.010 1_655 S
O125 C117 1.249 . S
Mg126 O127 2.028 . S
Mg126 O133 1.986 1_565 S
Mg126 O135 2.114 . S
Mg126 O136 2.251 . S
Mg126 O139 2.010 . S
O127 Mg126 2.028 . S
O127 C130 1.250 . S
O128 Mg129 2.028 . S
O128 C130 1.248 . S
Mg129 O128 2.028 . S
Mg129 O134 2.039 1_565 S
Mg129 O136 2.079 . S
C130 O127 1.250 . S
C130 O128 1.248 . S
C131 O132 1.264 . S
C131 O139 1.249 . S
O132 C131 1.264 . S
O133 Mg126 1.986 1_545 S
O133 C137 1.246 . S
O134 Mg129 2.039 1_545 S
O134 C137 1.254 . S
O135 Mg126 2.114 . S
O135 C138 1.252 . S
O136 Mg126 2.251 . S
O136 Mg129 2.079 . S
O136 C138 1.273 . S
C137 O133 1.246 . S
C137 O134 1.254 . S
C138 O135 1.252 . S
C138 O136 1.273 . S
O139 Mg126 2.010 . S
O139 C131 1.249 . S
Mg140 O141 2.028 . S
Mg140 O147 1.986 . S
Mg140 O149 2.114 . S
Mg140 O150 2.251 . S
Mg140 O153 2.010 1_455 S
O141 Mg140 2.028 . S
O141 C144 1.250 . S
O142 Mg143 2.028 . S
O142 C144 1.248 . S
Mg143 O142 2.028 . S
Mg143 O148 2.032 . S
Mg143 O150 2.079 . S
C144 O141 1.250 . S
C144 O142 1.248 . S
C145 O146 1.264 . S
C145 O153 1.249 . S
O146 C145 1.264 . S
O147 Mg140 1.986 . S
O147 C151 1.246 . S
O148 Mg143 2.032 . S
O148 C151 1.259 . S
O149 Mg140 2.114 . S
O149 C152 1.252 . S
O150 Mg140 2.251 . S
O150 Mg143 2.079 . S
O150 C152 1.273 . S
C151 O147 1.246 . S
C151 O148 1.259 . S
C152 O149 1.252 . S
C152 O150 1.273 . S
O153 Mg140 2.010 1_655 S
O153 C145 1.249 . S
Mg154 O155 2.028 . S
Mg154 O161 1.986 . S
Mg154 O163 2.114 . S
Mg154 O164 2.251 . S
Mg154 O167 2.010 . S
O155 Mg154 2.028 . S
O155 C158 1.250 . S
O156 Mg157 2.028 . S
O156 C158 1.248 . S
Mg157 O156 2.028 . S
Mg157 O162 2.032 . S
Mg157 O164 2.079 . S
C158 O155 1.250 . S
C158 O156 1.248 . S
C159 O160 1.264 . S
C159 O167 1.249 . S
O160 C159 1.264 . S
O161 Mg154 1.986 . S
O161 C165 1.246 . S
O162 Mg157 2.032 . S
O162 C165 1.259 . S
O163 Mg154 2.114 . S
O163 C166 1.252 . S
O164 Mg154 2.251 . S
O164 Mg157 2.079 . S
O164 C166 1.273 . S
C165 O161 1.246 . S
C165 O162 1.259 . S
C166 O163 1.252 . S
C166 O164 1.273 . S
O167 Mg154 2.010 . S
O167 C159 1.249 . S
Mg168 O169 2.028 . S
Mg168 O175 1.969 1_545 S
Mg168 O177 2.114 . S
Mg168 O178 2.251 . S
Mg168 O181 2.010 . S
O169 Mg168 2.028 . S
O169 C172 1.250 . S
O170 Mg171 2.028 . S
O170 C172 1.248 . S
Mg171 O170 2.028 . S
Mg171 O176 2.032 . S
Mg171 O178 2.079 . S
C172 O169 1.250 . S
C172 O170 1.248 . S
C173 O174 1.264 . S
C173 O181 1.249 . S
O174 C173 1.264 . S
O175 Mg168 1.969 1_565 S
O175 C179 1.242 . S
O176 Mg171 2.032 . S
O176 C179 1.259 1_545 S
O177 Mg168 2.114 . S
O177 C180 1.252 . S
O178 Mg168 2.251 . S
O178 Mg171 2.079 . S
O178 C180 1.273 . S
C179 O175 1.242 . S
C179 O176 1.259 1_565 S
C180 O177 1.252 . S
C180 O178 1.273 . S
O181 Mg168 2.010 . S
O181 C173 1.249 . S
Mg182 O183 2.028 . S
Mg182 O189 1.986 . S
Mg182 O191 2.114 . S
Mg182 O192 2.251 . S
Mg182 O195 2.010 1_655 S
O183 Mg182 2.028 . S
O183 C186 1.250 . S
O184 Mg185 2.028 . S
O184 C186 1.248 . S
Mg185 O184 2.028 . S
Mg185 O190 2.032 . S
Mg185 O192 2.079 . S
C186 O183 1.250 . S
C186 O184 1.248 . S
C187 O188 1.264 . S
C187 O195 1.249 . S
O188 C187 1.264 . S
O189 Mg182 1.986 . S
O189 C193 1.246 . S
O190 Mg185 2.032 . S
O190 C193 1.259 . S
O191 Mg182 2.114 . S
O191 C194 1.252 . S
O192 Mg182 2.251 . S
O192 Mg185 2.079 . S
O192 C194 1.273 . S
C193 O189 1.246 . S
C193 O190 1.259 . S
C194 O191 1.252 . S
C194 O192 1.273 . S
O195 Mg182 2.010 1_455 S
O195 C187 1.249 . S
Mg196 O197 2.028 . S
Mg196 O203 1.986 . S
Mg196 O205 2.114 . S
Mg196 O206 2.251 . S
Mg196 O209 2.010 . S
O197 Mg196 2.028 . S
O197 C200 1.250 . S
O198 Mg199 2.028 . S
O198 C200 1.248 . S
Mg199 O198 2.028 . S
Mg199 O204 2.032 . S
Mg199 O206 2.079 . S
C200 O197 1.250 . S
C200 O198 1.248 . S
C201 O202 1.264 . S
C201 O209 1.249 . S
O202 C201 1.264 . S
O203 Mg196 1.986 . S
O203 C207 1.246 . S
O204 Mg199 2.032 . S
O204 C207 1.259 . S
O205 Mg196 2.114 . S
O205 C208 1.252 . S
O206 Mg196 2.251 . S
O206 Mg199 2.079 . S
O206 C208 1.273 . S
C207 O203 1.246 . S
C207 O204 1.259 . S
C208 O205 1.252 . S
C208 O206 1.273 . S
O209 Mg196 2.010 . S
O209 C201 1.249 . S
Mg210 O211 2.028 . S
Mg210 O217 1.986 . S
Mg210 O219 2.114 . S
Mg210 O220 2.251 . S
Mg210 O223 2.010 . S
O211 Mg210 2.028 . S
O211 C214 1.250 . S
O212 Mg213 2.028 . S
O212 C214 1.248 . S
Mg213 O212 2.028 . S
Mg213 O218 2.032 . S
Mg213 O220 2.079 . S
C214 O211 1.250 . S
C214 O212 1.248 . S
C215 O216 1.264 . S
C215 O223 1.249 . S
O216 C215 1.264 . S
O217 Mg210 1.986 . S
O217 C221 1.246 . S
O218 Mg213 2.032 . S
O218 C221 1.259 . S
O219 Mg210 2.114 . S
O219 C222 1.252 . S
O220 Mg210 2.251 . S
O220 Mg213 2.079 . S
O220 C222 1.273 . S
C221 O217 1.246 . S
C221 O218 1.259 . S
C222 O219 1.252 . S
C222 O220 1.273 . S
O223 Mg210 2.010 . S
O223 C215 1.249 . S
Mg224 O225 2.028 . S
Mg224 O231 1.986 1_545 S
Mg224 O233 2.114 . S
Mg224 O234 2.251 . S
Mg224 O237 2.010 . S
O225 Mg224 2.028 . S
O225 C228 1.250 . S
O226 Mg227 2.028 . S
O226 C228 1.248 . S
Mg227 O226 2.028 . S
Mg227 O232 2.027 . S
Mg227 O234 2.079 . S
C228 O225 1.250 . S
C228 O226 1.248 . S
C229 O230 1.264 . S
C229 O237 1.249 . S
O230 C229 1.264 . S
O231 Mg224 1.986 1_565 S
O231 C235 1.246 . S
O232 Mg227 2.027 . S
O232 C235 1.260 1_545 S
O233 Mg224 2.114 . S
O233 C236 1.252 . S
O234 Mg224 2.251 . S
O234 Mg227 2.079 . S
O234 C236 1.273 . S
C235 O231 1.246 . S
C235 O232 1.260 1_565 S
C236 O233 1.252 . S
C236 O234 1.273 . S
O237 Mg224 2.010 . S
O237 C229 1.249 . S
Mg238 O239 2.028 . S
Mg238 O245 1.986 . S
Mg238 O247 2.114 . S
Mg238 O248 2.251 . S
Mg238 O251 2.010 1_655 S
O239 Mg238 2.028 . S
O239 C242 1.250 . S
O240 Mg241 2.028 . S
O240 C242 1.248 . S
Mg241 O240 2.028 . S
Mg241 O246 2.032 . S
Mg241 O248 2.079 . S
C242 O239 1.250 . S
C242 O240 1.248 . S
C243 O244 1.264 . S
C243 O251 1.249 . S
O244 C243 1.264 . S
O245 Mg238 1.986 . S
O245 C249 1.246 . S
O246 Mg241 2.032 . S
O246 C249 1.259 . S
O247 Mg238 2.114 . S
O247 C250 1.252 . S
O248 Mg238 2.251 . S
O248 Mg241 2.079 . S
O248 C250 1.273 . S
C249 O245 1.246 . S
C249 O246 1.259 . S
C250 O247 1.252 . S
C250 O248 1.273 . S
O251 Mg238 2.010 1_455 S
O251 C243 1.249 . S
H252 C260 0.930 . S
H253 C263 0.930 . S
H254 C265 0.930 . S
H255 C266 0.970 . S
H256 C266 0.970 . S
H257 C268 0.930 . S
H258 C270 0.930 . S
H259 C272 0.930 . S
C260 H252 0.930 . S
C260 C261 1.382 . S
C260 C262 1.426 . S
C261 C260 1.382 . S
C261 C265 1.389 . S
C262 C260 1.426 . S
C262 C263 1.375 . S
C262 C266 1.532 . S
C263 H253 0.930 . S
C263 C262 1.375 . S
C263 C264 1.416 . S
C264 C263 1.416 . S
C264 C265 1.371 . S
C265 H254 0.930 . S
C265 C261 1.389 . S
C265 C264 1.371 . S
C266 H255 0.970 . S
C266 H256 0.970 . S
C266 C262 1.532 . S
C266 C267 1.499 . S
C267 C266 1.499 . S
C267 C268 1.370 . S
C267 C272 1.415 . S
C268 H257 0.930 . S
C268 C267 1.370 . S
C268 C269 1.407 . S
C269 C268 1.407 . S
C269 C270 1.365 . S
C270 H258 0.930 . S
C270 C269 1.365 . S
C270 C271 1.393 . S
C271 C270 1.393 . S
C271 C272 1.387 . S
C272 H259 0.930 . S
C272 C267 1.415 . S
C272 C271 1.387 . S
H273 C281 0.930 . S
H274 C284 0.930 . S
H275 C286 0.930 . S
H276 C287 0.970 . S
H277 C287 0.970 . S
H278 C289 0.930 . S
H279 C291 0.930 . S
H280 C293 0.930 . S
C281 H273 0.930 . S
C281 C282 1.382 . S
C281 C283 1.426 . S
C282 C281 1.382 . S
C282 C286 1.389 . S
C283 C281 1.426 . S
C283 C284 1.375 . S
C283 C287 1.532 . S
C284 H274 0.930 . S
C284 C283 1.375 . S
C284 C285 1.416 . S
C285 C284 1.416 . S
C285 C286 1.371 . S
C286 H275 0.930 . S
C286 C282 1.389 . S
C286 C285 1.371 . S
C287 H276 0.970 . S
C287 H277 0.970 . S
C287 C283 1.532 . S
C287 C288 1.499 . S
C288 C287 1.499 . S
C288 C289 1.370 . S
C288 C293 1.415 . S
C289 H278 0.930 . S
C289 C288 1.370 . S
C289 C290 1.407 . S
C290 C289 1.407 . S
C290 C291 1.365 . S
C291 H279 0.930 . S
C291 C290 1.365 . S
C291 C292 1.393 . S
C292 C291 1.393 . S
C292 C293 1.387 . S
C293 H280 0.930 . S
C293 C288 1.415 . S
C293 C292 1.387 . S
H294 C302 0.930 . S
H295 C305 0.930 . S
H296 C307 0.930 . S
H297 C308 0.970 . S
H298 C308 0.970 . S
H299 C310 0.930 . S
H300 C312 0.930 . S
H301 C314 0.930 . S
C302 H294 0.930 . S
C302 C303 1.382 . S
C302 C304 1.426 . S
C303 C302 1.382 . S
C303 C307 1.389 . S
C304 C302 1.426 . S
C304 C305 1.375 . S
C304 C308 1.532 . S
C305 H295 0.930 . S
C305 C304 1.375 . S
C305 C306 1.416 . S
C306 C305 1.416 . S
C306 C307 1.371 . S
C307 H296 0.930 . S
C307 C303 1.389 . S
C307 C306 1.371 . S
C308 H297 0.970 . S
C308 H298 0.970 . S
C308 C304 1.532 . S
C308 C309 1.499 . S
C309 C308 1.499 . S
C309 C310 1.370 . S
C309 C314 1.415 . S
C310 H299 0.930 . S
C310 C309 1.370 . S
C310 C311 1.407 . S
C311 C310 1.407 . S
C311 C312 1.365 . S
C312 H300 0.930 . S
C312 C311 1.365 . S
C312 C313 1.393 . S
C313 C312 1.393 . S
C313 C314 1.387 . S
C314 H301 0.930 . S
C314 C309 1.415 . S
C314 C313 1.387 . S
H315 C323 0.930 . S
H316 C326 0.930 . S
H317 C328 0.930 . S
H318 C329 0.970 . S
H319 C329 0.970 . S
H320 C331 0.930 . S
H321 C333 0.930 . S
H322 C335 0.930 . S
C323 H315 0.930 . S
C323 C324 1.382 . S
C323 C325 1.426 . S
C324 C323 1.382 . S
C324 C328 1.389 . S
C325 C323 1.426 . S
C325 C326 1.375 . S
C325 C329 1.532 . S
C326 H316 0.930 . S
C326 C325 1.375 . S
C326 C327 1.416 . S
C327 C326 1.416 . S
C327 C328 1.371 . S
C328 H317 0.930 . S
C328 C324 1.389 . S
C328 C327 1.371 . S
C329 H318 0.970 . S
C329 H319 0.970 . S
C329 C325 1.532 . S
C329 C330 1.499 . S
C330 C329 1.499 . S
C330 C331 1.370 . S
C330 C335 1.415 . S
C331 H320 0.930 . S
C331 C330 1.370 . S
C331 C332 1.407 . S
C332 C331 1.407 . S
C332 C333 1.365 . S
C333 H321 0.930 . S
C333 C332 1.365 . S
C333 C334 1.393 . S
C334 C333 1.393 . S
C334 C335 1.387 . S
C335 H322 0.930 . S
C335 C330 1.415 . S
C335 C334 1.387 . S
H336 C344 0.930 . S
H337 C347 0.930 . S
H338 C349 0.930 . S
H339 C350 0.970 . S
H340 C350 0.970 . S
H341 C352 0.930 . S
H342 C354 0.930 . S
H343 C356 0.930 . S
C344 H336 0.930 . S
C344 C345 1.382 . S
C344 C346 1.426 . S
C345 C344 1.382 . S
C345 C349 1.389 . S
C346 C344 1.426 . S
C346 C347 1.375 . S
C346 C350 1.532 . S
C347 H337 0.930 . S
C347 C346 1.375 . S
C347 C348 1.416 . S
C348 C347 1.416 . S
C348 C349 1.371 . S
C349 H338 0.930 . S
C349 C345 1.389 . S
C349 C348 1.371 . S
C350 H339 0.970 . S
C350 H340 0.970 . S
C350 C346 1.532 . S
C350 C351 1.499 . S
C351 C350 1.499 . S
C351 C352 1.370 . S
C351 C356 1.415 . S
C352 H341 0.930 . S
C352 C351 1.370 . S
C352 C353 1.407 . S
C353 C352 1.407 . S
C353 C354 1.365 . S
C354 H342 0.930 . S
C354 C353 1.365 . S
C354 C355 1.393 . S
C355 C354 1.393 . S
C355 C356 1.387 . S
C356 H343 0.930 . S
C356 C351 1.415 . S
C356 C355 1.387 . S
H357 C365 0.930 . S
H358 C368 0.930 . S
H359 C370 0.930 . S
H360 C371 0.970 . S
H361 C371 0.970 . S
H362 C373 0.930 . S
H363 C375 0.930 . S
H364 C377 0.930 . S
C365 H357 0.930 . S
C365 C366 1.382 . S
C365 C367 1.426 . S
C366 C365 1.382 . S
C366 C370 1.389 . S
C367 C365 1.426 . S
C367 C368 1.375 . S
C367 C371 1.532 . S
C368 H358 0.930 . S
C368 C367 1.375 . S
C368 C369 1.416 . S
C369 C368 1.416 . S
C369 C370 1.371 . S
C370 H359 0.930 . S
C370 C366 1.389 . S
C370 C369 1.371 . S
C371 H360 0.970 . S
C371 H361 0.970 . S
C371 C367 1.532 . S
C371 C372 1.499 . S
C372 C371 1.499 . S
C372 C373 1.370 . S
C372 C377 1.415 . S
C373 H362 0.930 . S
C373 C372 1.370 . S
C373 C374 1.407 . S
C374 C373 1.407 . S
C374 C375 1.365 . S
C375 H363 0.930 . S
C375 C374 1.365 . S
C375 C376 1.393 . S
C376 C375 1.393 . S
C376 C377 1.387 . S
C377 H364 0.930 . S
C377 C372 1.415 . S
C377 C376 1.387 . S
H378 C386 0.930 . S
H379 C389 0.930 . S
H380 C391 0.930 . S
H381 C392 0.970 . S
H382 C392 0.970 . S
H383 C394 0.930 . S
H384 C396 0.930 . S
H385 C398 0.930 . S
C386 H378 0.930 . S
C386 C387 1.382 . S
C386 C388 1.426 . S
C387 C386 1.382 . S
C387 C391 1.389 . S
C388 C386 1.426 . S
C388 C389 1.375 . S
C388 C392 1.532 . S
C389 H379 0.930 . S
C389 C388 1.375 . S
C389 C390 1.416 . S
C390 C389 1.416 . S
C390 C391 1.371 . S
C391 H380 0.930 . S
C391 C387 1.389 . S
C391 C390 1.371 . S
C392 H381 0.970 . S
C392 H382 0.970 . S
C392 C388 1.532 . S
C392 C393 1.499 . S
C393 C392 1.499 . S
C393 C394 1.370 . S
C393 C398 1.415 . S
C394 H383 0.930 . S
C394 C393 1.370 . S
C394 C395 1.407 . S
C395 C394 1.407 . S
C395 C396 1.365 . S
C396 H384 0.930 . S
C396 C395 1.365 . S
C396 C397 1.393 . S
C397 C396 1.393 . S
C397 C398 1.387 . S
C398 H385 0.930 . S
C398 C393 1.415 . S
C398 C397 1.387 . S
H399 C407 0.930 . S
H400 C410 0.930 . S
H401 C412 0.930 . S
H402 C413 0.970 . S
H403 C413 0.970 . S
H404 C415 0.930 . S
H405 C417 0.930 . S
H406 C419 0.930 . S
C407 H399 0.930 . S
C407 C408 1.382 . S
C407 C409 1.426 . S
C408 C407 1.382 . S
C408 C412 1.389 . S
C409 C407 1.426 . S
C409 C410 1.375 . S
C409 C413 1.532 . S
C410 H400 0.930 . S
C410 C409 1.375 . S
C410 C411 1.416 . S
C411 C410 1.416 . S
C411 C412 1.371 . S
C412 H401 0.930 . S
C412 C408 1.389 . S
C412 C411 1.371 . S
C413 H402 0.970 . S
C413 H403 0.970 . S
C413 C409 1.532 . S
C413 C414 1.499 . S
C414 C413 1.499 . S
C414 C415 1.370 . S
C414 C419 1.415 . S
C415 H404 0.930 . S
C415 C414 1.370 . S
C415 C416 1.407 . S
C416 C415 1.407 . S
C416 C417 1.365 . S
C417 H405 0.930 . S
C417 C416 1.365 . S
C417 C418 1.393 . S
C418 C417 1.393 . S
C418 C419 1.387 . S
C419 H406 0.930 . S
C419 C414 1.415 . S
C419 C418 1.387 . S
H420 C428 0.930 . S
H421 C431 0.930 . S
H422 C433 0.930 . S
H423 C434 0.970 . S
H424 C434 0.970 . S
H425 C436 0.930 . S
H426 C438 0.930 . S
H427 C440 0.930 . S
C428 H420 0.930 . S
C428 C429 1.382 . S
C428 C430 1.426 . S
C429 C428 1.382 . S
C429 C433 1.389 . S
C430 C428 1.426 . S
C430 C431 1.375 . S
C430 C434 1.532 . S
C431 H421 0.930 . S
C431 C430 1.375 . S
C431 C432 1.416 . S
C432 C431 1.416 . S
C432 C433 1.371 . S
C433 H422 0.930 . S
C433 C429 1.389 . S
C433 C432 1.371 . S
C434 H423 0.970 . S
C434 H424 0.970 . S
C434 C430 1.532 . S
C434 C435 1.499 . S
C435 C434 1.499 . S
C435 C436 1.370 . S
C435 C440 1.415 . S
C436 H425 0.930 . S
C436 C435 1.370 . S
C436 C437 1.407 . S
C437 C436 1.407 . S
C437 C438 1.365 . S
C438 H426 0.930 . S
C438 C437 1.365 . S
C438 C439 1.393 . S
C439 C438 1.393 . S
C439 C440 1.387 . S
C440 H427 0.930 . S
C440 C435 1.415 . S
C440 C439 1.387 . S
H441 C449 0.930 . S
H442 C452 0.930 . S
H443 C454 0.930 . S
H444 C455 0.970 . S
H445 C455 0.970 . S
H446 C457 0.930 . S
H447 C459 0.930 . S
H448 C461 0.930 . S
C449 H441 0.930 . S
C449 C450 1.382 . S
C449 C451 1.426 . S
C450 C449 1.382 . S
C450 C454 1.389 1_455 S
C451 C449 1.426 . S
C451 C452 1.375 . S
C451 C455 1.532 . S
C452 H442 0.930 . S
C452 C451 1.375 . S
C452 C453 1.416 . S
C453 C452 1.416 . S
C453 C454 1.371 1_455 S
C454 H443 0.930 . S
C454 C450 1.389 1_655 S
C454 C453 1.371 1_655 S
C455 H444 0.970 . S
C455 H445 0.970 . S
C455 C451 1.532 . S
C455 C456 1.499 . S
C456 C455 1.499 . S
C456 C457 1.370 . S
C456 C461 1.415 . S
C457 H446 0.930 . S
C457 C456 1.370 . S
C457 C458 1.411 . S
C458 C457 1.411 . S
C458 C459 1.369 1_455 S
C459 H447 0.930 . S
C459 C458 1.369 1_655 S
C459 C460 1.393 1_655 S
C460 C459 1.393 1_455 S
C460 C461 1.387 . S
C461 H448 0.930 . S
C461 C456 1.415 . S
C461 C460 1.387 . S
H462 C470 0.930 . S
H463 C473 0.930 . S
H464 C475 0.930 . S
H465 C476 0.970 . S
H466 C476 0.970 . S
H467 C478 0.930 . S
H468 C480 0.930 . S
H469 C482 0.930 . S
C470 H462 0.930 . S
C470 C471 1.382 . S
C470 C472 1.426 . S
C471 C470 1.382 . S
C471 C475 1.389 . S
C472 C470 1.426 . S
C472 C473 1.375 . S
C472 C476 1.532 . S
C473 H463 0.930 . S
C473 C472 1.375 . S
C473 C474 1.416 . S
C474 C473 1.416 . S
C474 C475 1.371 . S
C475 H464 0.930 . S
C475 C471 1.389 . S
C475 C474 1.371 . S
C476 H465 0.970 . S
C476 H466 0.970 . S
C476 C472 1.532 . S
C476 C477 1.499 . S
C477 C476 1.499 . S
C477 C478 1.370 . S
C477 C482 1.415 . S
C478 H467 0.930 . S
C478 C477 1.370 . S
C478 C479 1.407 . S
C479 C478 1.407 . S
C479 C480 1.365 . S
C480 H468 0.930 . S
C480 C479 1.365 . S
C480 C481 1.393 . S
C481 C480 1.393 . S
C481 C482 1.387 . S
C482 H469 0.930 . S
C482 C477 1.415 . S
C482 C481 1.387 . S
H483 C491 0.930 . S
H484 C494 0.930 . S
H485 C496 0.930 . S
H486 C497 0.970 . S
H487 C497 0.970 . S
H488 C499 0.930 . S
H489 C501 0.930 . S
H490 C503 0.930 . S
C491 H483 0.930 . S
C491 C492 1.382 . S
C491 C493 1.426 . S
C492 C491 1.382 . S
C492 C496 1.389 1_565 S
C493 C491 1.426 . S
C493 C494 1.375 . S
C493 C497 1.532 . S
C494 H484 0.930 . S
C494 C493 1.375 . S
C494 C495 1.416 . S
C495 C494 1.416 . S
C495 C496 1.371 1_565 S
C496 H485 0.930 . S
C496 C492 1.389 1_545 S
C496 C495 1.371 1_545 S
C497 H486 0.970 . S
C497 H487 0.970 . S
C497 C493 1.532 . S
C497 C498 1.499 . S
C498 C497 1.499 . S
C498 C499 1.370 . S
C498 C503 1.415 . S
C499 H488 0.930 . S
C499 C498 1.370 . S
C499 C500 1.440 . S
C500 C499 1.440 . S
C500 C501 1.352 1_565 S
C501 H489 0.930 . S
C501 C500 1.352 1_545 S
C501 C502 1.393 1_545 S
C502 C501 1.393 1_565 S
C502 C503 1.387 . S
C503 H490 0.930 . S
C503 C498 1.415 . S
C503 C502 1.387 . S
H504 C512 0.930 . S
H505 C515 0.930 . S
H506 C517 0.930 . S
H507 C518 0.970 . S
H508 C518 0.970 . S
H509 C520 0.930 . S
H510 C522 0.930 . S
H511 C524 0.930 . S
C512 H504 0.930 . S
C512 C513 1.382 . S
C512 C514 1.426 . S
C513 C512 1.382 . S
C513 C517 1.389 1_565 S
C514 C512 1.426 . S
C514 C515 1.375 . S
C514 C518 1.532 . S
C515 H505 0.930 . S
C515 C514 1.375 . S
C515 C516 1.494 . S
C516 C515 1.494 . S
C516 C517 1.345 1_565 S
C517 H506 0.930 . S
C517 C513 1.389 1_545 S
C517 C516 1.345 1_545 S
C518 H507 0.970 . S
C518 H508 0.970 . S
C518 C514 1.532 . S
C518 C519 1.499 . S
C519 C518 1.499 . S
C519 C520 1.370 . S
C519 C524 1.415 . S
C520 H509 0.930 . S
C520 C519 1.370 . S
C520 C521 1.407 . S
C521 C520 1.407 . S
C521 C522 1.365 1_565 S
C522 H510 0.930 . S
C522 C521 1.365 1_545 S
C522 C523 1.393 1_545 S
C523 C522 1.393 1_565 S
C523 C524 1.387 . S
C524 H511 0.930 . S
C524 C519 1.415 . S
C524 C523 1.387 . S
H525 C533 0.930 . S
H526 C536 0.930 . S
H527 C538 0.930 . S
H528 C539 0.970 . S
H529 C539 0.970 . S
H530 C541 0.930 . S
H531 C543 0.930 . S
H532 C545 0.930 . S
C533 H525 0.930 . S
C533 C534 1.382 . S
C533 C535 1.426 . S
C534 C533 1.382 . S
C534 C538 1.389 1_455 S
C535 C533 1.426 . S
C535 C536 1.375 . S
C535 C539 1.532 . S
C536 H526 0.930 . S
C536 C535 1.375 . S
C536 C537 1.421 . S
C537 C536 1.421 . S
C537 C538 1.380 1_455 S
C538 H527 0.930 . S
C538 C534 1.389 1_655 S
C538 C537 1.380 1_655 S
C539 H528 0.970 . S
C539 H529 0.970 . S
C539 C535 1.532 . S
C539 C540 1.499 . S
C540 C539 1.499 . S
C540 C541 1.370 . S
C540 C545 1.415 . S
C541 H530 0.930 . S
C541 C540 1.370 . S
C541 C542 1.407 . S
C542 C541 1.407 . S
C542 C543 1.365 1_455 S
C543 H531 0.930 . S
C543 C542 1.365 1_655 S
C543 C544 1.393 1_655 S
C544 C543 1.393 1_455 S
C544 C545 1.387 . S
C545 H532 0.930 . S
C545 C540 1.415 . S
C545 C544 1.387 . S
H546 C554 0.930 . S
H547 C557 0.930 . S
H548 C559 0.930 . S
H549 C560 0.970 . S
H550 C560 0.970 . S
H551 C562 0.930 . S
H552 C564 0.930 . S
H553 C566 0.930 . S
C554 H546 0.930 . S
C554 C555 1.382 . S
C554 C556 1.426 . S
C555 C554 1.382 . S
C555 C559 1.389 . S
C556 C554 1.426 . S
C556 C557 1.375 . S
C556 C560 1.532 . S
C557 H547 0.930 . S
C557 C556 1.375 . S
C557 C558 1.416 . S
C558 C557 1.416 . S
C558 C559 1.371 . S
C559 H548 0.930 . S
C559 C555 1.389 . S
C559 C558 1.371 . S
C560 H549 0.970 . S
C560 H550 0.970 . S
C560 C556 1.532 . S
C560 C561 1.499 . S
C561 C560 1.499 . S
C561 C562 1.370 . S
C561 C566 1.415 . S
C562 H551 0.930 . S
C562 C561 1.370 . S
C562 C563 1.407 . S
C563 C562 1.407 . S
C563 C564 1.365 . S
C564 H552 0.930 . S
C564 C563 1.365 . S
C564 C565 1.393 . S
C565 C564 1.393 . S
C565 C566 1.387 . S
C566 H553 0.930 . S
C566 C561 1.415 . S
C566 C565 1.387 . S
H567 C575 0.930 . S
H568 C578 0.930 . S
H569 C580 0.930 . S
H570 C581 0.970 . S
H571 C581 0.970 . S
H572 C583 0.930 . S
H573 C585 0.930 . S
H574 C587 0.930 . S
C575 H567 0.930 . S
C575 C576 1.382 . S
C575 C577 1.426 . S
C576 C575 1.382 . S
C576 C580 1.389 . S
C577 C575 1.426 . S
C577 C578 1.375 . S
C577 C581 1.532 . S
C578 H568 0.930 . S
C578 C577 1.375 . S
C578 C579 1.416 . S
C579 C578 1.416 . S
C579 C580 1.371 . S
C580 H569 0.930 . S
C580 C576 1.389 . S
C580 C579 1.371 . S
C581 H570 0.970 . S
C581 H571 0.970 . S
C581 C577 1.532 . S
C581 C582 1.499 . S
C582 C581 1.499 . S
C582 C583 1.370 . S
C582 C587 1.415 . S
C583 H572 0.930 . S
C583 C582 1.370 . S
C583 C584 1.407 . S
C584 C583 1.407 . S
C584 C585 1.365 . S
C585 H573 0.930 . S
C585 C584 1.365 . S
C585 C586 1.393 . S
C586 C585 1.393 . S
C586 C587 1.387 . S
C587 H574 0.930 . S
C587 C582 1.415 . S
C587 C586 1.387 . S
H588 C596 0.930 . S
H589 C599 0.930 . S
H590 C601 0.930 . S
H591 C602 0.970 . S
H592 C602 0.970 . S
H593 C604 0.930 . S
H594 C606 0.930 . S
H595 C608 0.930 . S
C596 H588 0.930 . S
C596 C597 1.382 . S
C596 C598 1.426 . S
C597 C596 1.382 . S
C597 C601 1.389 . S
C598 C596 1.426 . S
C598 C599 1.375 . S
C598 C602 1.532 . S
C599 H589 0.930 . S
C599 C598 1.375 . S
C599 C600 1.416 . S
C600 C599 1.416 . S
C600 C601 1.371 . S
C601 H590 0.930 . S
C601 C597 1.389 . S
C601 C600 1.371 . S
C602 H591 0.970 . S
C602 H592 0.970 . S
C602 C598 1.532 . S
C602 C603 1.499 . S
C603 C602 1.499 . S
C603 C604 1.370 . S
C603 C608 1.415 . S
C604 H593 0.930 . S
C604 C603 1.370 . S
C604 C605 1.407 . S
C605 C604 1.407 . S
C605 C606 1.365 . S
C606 H594 0.930 . S
C606 C605 1.365 . S
C606 C607 1.393 . S
C607 C606 1.393 . S
C607 C608 1.387 . S
C608 H595 0.930 . S
C608 C603 1.415 . S
C608 C607 1.387 . S
H609 C617 0.930 . S
H610 C620 0.930 . S
H611 C622 0.930 . S
H612 C623 0.970 . S
H613 C623 0.970 . S
H614 C625 0.930 . S
H615 C627 0.930 . S
H616 C629 0.930 . S
C617 H609 0.930 . S
C617 C618 1.382 . S
C617 C619 1.426 . S
C618 C617 1.382 . S
C618 C622 1.389 . S
C619 C617 1.426 . S
C619 C620 1.375 . S
C619 C623 1.532 . S
C620 H610 0.930 . S
C620 C619 1.375 . S
C620 C621 1.416 . S
C621 C620 1.416 . S
C621 C622 1.371 . S
C622 H611 0.930 . S
C622 C618 1.389 . S
C622 C621 1.371 . S
C623 H612 0.970 . S
C623 H613 0.970 . S
C623 C619 1.532 . S
C623 C624 1.499 . S
C624 C623 1.499 . S
C624 C625 1.370 . S
C624 C629 1.415 . S
C625 H614 0.930 . S
C625 C624 1.370 . S
C625 C626 1.407 . S
C626 C625 1.407 . S
C626 C627 1.365 . S
C627 H615 0.930 . S
C627 C626 1.365 . S
C627 C628 1.393 . S
C628 C627 1.393 . S
C628 C629 1.387 . S
C629 H616 0.930 . S
C629 C624 1.415 . S
C629 C628 1.387 . S
H630 C638 0.958 . S
H631 C640 0.935 . S
H632 C642 0.930 . S
H633 C645 0.929 . S
H634 C648 0.930 . S
H635 C650 0.960 . S
H636 C650 0.960 . S
H637 C650 0.960 . S
C638 H630 0.958 . S
C638 C639 1.377 . S
C638 C640 1.384 . S
C639 C638 1.377 . S
C639 C645 1.390 . S
C640 H631 0.935 . S
C640 C638 1.384 . S
C640 C641 1.372 . S
C641 C640 1.372 . S
C641 C642 1.400 . S
C641 C646 1.490 . S
C642 H632 0.930 . S
C642 C641 1.400 . S
C642 C645 1.386 . S
H643 C659 0.935 . S
H644 C660 0.934 . S
C645 H633 0.929 . S
C645 C639 1.390 . S
C645 C642 1.386 . S
C646 C641 1.490 . S
C646 C648 1.395 1_655 S
C646 C649 1.403 . S
H647 C653 0.930 . S
C648 H634 0.930 . S
C648 C646 1.395 1_455 S
C648 C651 1.403 . S
C649 C646 1.403 . S
C649 C650 1.524 . S
C649 C653 1.400 . S
C650 H635 0.960 . S
C650 H636 0.960 . S
C650 H637 0.960 . S
C650 C649 1.524 . S
C651 C648 1.403 . S
C651 C652 1.414 . S
C651 C655 1.495 . S
C652 C651 1.414 . S
C652 C653 1.371 1_455 S
C652 C654 1.481 . S
C653 H647 0.930 . S
C653 C649 1.400 . S
C653 C652 1.371 1_655 S
C654 C652 1.481 . S
C654 C656 1.382 1_455 S
C654 C660 1.395 . S
C655 C651 1.495 . S
C655 H661 0.959 . S
C655 H662 0.961 . S
C655 H663 0.960 . S
C656 C654 1.382 1_655 S
C656 C657 1.427 . S
C656 H664 0.933 . S
C657 C656 1.427 . S
C657 C658 1.383 . S
C657 H665 0.929 . S
C658 C657 1.383 . S
C658 C659 1.378 . S
C659 H643 0.935 . S
C659 C658 1.378 . S
C659 C660 1.341 1_655 S
C660 H644 0.934 . S
C660 C654 1.395 . S
C660 C659 1.341 1_455 S
H661 C655 0.959 . S
H662 C655 0.961 . S
H663 C655 0.960 . S
H664 C656 0.933 . S
H665 C657 0.929 . S
H666 C674 0.929 . S
H667 C676 0.930 . S
H668 C678 0.930 . S
H669 C681 0.929 . S
H670 C684 0.930 . S
H671 C686 0.960 . S
H672 C686 0.960 . S
H673 C686 0.960 . S
C674 H666 0.929 . S
C674 C675 1.377 . S
C674 C676 1.384 . S
C675 C674 1.377 . S
C675 C681 1.390 . S
C676 H667 0.930 . S
C676 C674 1.384 . S
C676 C677 1.372 . S
C677 C676 1.372 . S
C677 C678 1.400 . S
C677 C682 1.490 . S
C678 H668 0.930 . S
C678 C677 1.400 . S
C678 C681 1.386 . S
H679 C695 0.930 . S
H680 C696 0.931 . S
C681 H669 0.929 . S
C681 C675 1.390 . S
C681 C678 1.386 . S
C682 C677 1.490 . S
C682 C684 1.395 . S
C682 C685 1.403 . S
H683 C689 0.930 . S
C684 H670 0.930 . S
C684 C682 1.395 . S
C684 C687 1.403 . S
C685 C682 1.403 . S
C685 C686 1.524 . S
C685 C689 1.400 . S
C686 H671 0.960 . S
C686 H672 0.960 . S
C686 H673 0.960 . S
C686 C685 1.524 . S
C687 C684 1.403 . S
C687 C688 1.392 . S
C687 C691 1.495 . S
C688 C687 1.392 . S
C688 C689 1.385 . S
C688 C690 1.478 . S
C689 H683 0.930 . S
C689 C685 1.400 . S
C689 C688 1.385 . S
C690 C688 1.478 . S
C690 C692 1.381 . S
C690 C696 1.383 . S
C691 C687 1.495 . S
C691 H697 0.959 . S
C691 H698 0.961 . S
C691 H699 0.960 . S
C692 C690 1.381 . S
C692 C693 1.394 . S
C692 H700 0.930 . S
C693 C692 1.394 . S
C693 C694 1.383 . S
C693 H701 0.929 . S
C694 C693 1.383 . S
C694 C695 1.377 . S
C695 H679 0.930 . S
C695 C694 1.377 . S
C695 C696 1.379 . S
C696 H680 0.931 . S
C696 C690 1.383 . S
C696 C695 1.379 . S
H697 C691 0.959 . S
H698 C691 0.961 . S
H699 C691 0.960 . S
H700 C692 0.930 . S
H701 C693 0.929 . S
H702 C710 0.929 . S
H703 C712 0.930 . S
H704 C714 0.930 . S
H705 C717 0.929 . S
H706 C720 0.930 . S
H707 C722 0.960 . S
H708 C722 0.960 . S
H709 C722 0.960 . S
C710 H702 0.929 . S
C710 C711 1.377 . S
C710 C712 1.384 . S
C711 C710 1.377 . S
C711 C717 1.390 . S
C712 H703 0.930 . S
C712 C710 1.384 . S
C712 C713 1.372 . S
C713 C712 1.372 . S
C713 C714 1.400 . S
C713 C718 1.490 . S
C714 H704 0.930 . S
C714 C713 1.400 . S
C714 C717 1.386 . S
H715 C731 0.930 . S
H716 C732 0.931 . S
C717 H705 0.929 . S
C717 C711 1.390 . S
C717 C714 1.386 . S
C718 C713 1.490 . S
C718 C720 1.395 . S
C718 C721 1.403 1_545 S
H719 C725 0.930 . S
C720 H706 0.930 . S
C720 C718 1.395 . S
C720 C723 1.403 . S
C721 C718 1.403 1_565 S
C721 C722 1.524 . S
C721 C725 1.400 . S
C722 H707 0.960 . S
C722 H708 0.960 . S
C722 H709 0.960 . S
C722 C721 1.524 . S
C723 C720 1.403 . S
C723 C724 1.392 . S
C723 C727 1.495 . S
C724 C723 1.392 . S
C724 C725 1.385 1_545 S
C724 C726 1.478 . S
C725 H719 0.930 . S
C725 C721 1.400 . S
C725 C724 1.385 1_565 S
C726 C724 1.478 . S
C726 C728 1.381 . S
C726 C732 1.383 . S
C727 C723 1.495 . S
C727 H733 0.959 . S
C727 H734 0.961 . S
C727 H735 0.960 . S
C728 C726 1.381 . S
C728 C729 1.394 . S
C728 H736 0.930 . S
C729 C728 1.394 . S
C729 C730 1.383 . S
C729 H737 0.929 . S
C730 C729 1.383 . S
C730 C731 1.377 . S
C731 H715 0.930 . S
C731 C730 1.377 . S
C731 C732 1.379 . S
C732 H716 0.931 . S
C732 C726 1.383 . S
C732 C731 1.379 . S
H733 C727 0.959 . S
H734 C727 0.961 . S
H735 C727 0.960 . S
H736 C728 0.930 . S
H737 C729 0.929 . S
H738 C746 0.929 . S
H739 C748 0.930 . S
H740 C750 0.930 1_545 S
H741 C753 0.919 1_545 S
H742 C756 0.930 . S
H743 C758 0.960 . S
H744 C758 0.960 . S
H745 C758 0.960 . S
C746 H738 0.929 . S
C746 C747 1.377 . S
C746 C748 1.384 . S
C747 C746 1.377 . S
C747 C753 1.390 . S
C748 H739 0.930 . S
C748 C746 1.384 . S
C748 C749 1.372 . S
C749 C748 1.372 . S
C749 C750 1.400 . S
C749 C754 1.490 . S
C750 H740 0.930 1_565 S
C750 C749 1.400 . S
C750 C753 1.386 . S
H751 C767 0.930 . S
H752 C768 0.931 . S
C753 H741 0.919 1_565 S
C753 C747 1.390 . S
C753 C750 1.386 . S
C754 C749 1.490 . S
C754 C756 1.395 1_565 S
C754 C757 1.403 . S
H755 C761 0.930 . S
C756 H742 0.930 . S
C756 C754 1.395 1_545 S
C756 C759 1.403 . S
C757 C754 1.403 . S
C757 C758 1.524 . S
C757 C761 1.400 . S
C758 H743 0.960 . S
C758 H744 0.960 . S
C758 H745 0.960 . S
C758 C757 1.524 . S
C759 C756 1.403 . S
C759 C760 1.392 1_545 S
C759 C763 1.495 . S
C760 C759 1.392 1_565 S
C760 C761 1.385 . S
C760 C762 1.478 . S
C761 H755 0.930 . S
C761 C757 1.400 . S
C761 C760 1.385 . S
C762 C760 1.478 . S
C762 C764 1.381 . S
C762 C768 1.383 1_565 S
C763 C759 1.495 . S
C763 H769 0.959 . S
C763 H770 0.961 . S
C763 H771 0.960 . S
C764 C762 1.381 . S
C764 C765 1.394 . S
C764 H772 0.930 . S
C765 C764 1.394 . S
C765 C766 1.383 . S
C765 H773 0.929 . S
C766 C765 1.383 . S
C766 C767 1.377 1_565 S
C767 H751 0.930 . S
C767 C766 1.377 1_545 S
C767 C768 1.379 . S
C768 H752 0.931 . S
C768 C762 1.383 1_545 S
C768 C767 1.379 . S
H769 C763 0.959 . S
H770 C763 0.961 . S
H771 C763 0.960 . S
H772 C764 0.930 . S
H773 C765 0.929 . S
H774 C782 0.929 . S
H775 C784 0.930 . S
H776 C786 0.930 . S
H777 C789 0.929 . S
H778 C792 0.930 . S
H779 C794 0.960 . S
H780 C794 0.960 . S
H781 C794 0.960 . S
C782 H774 0.929 . S
C782 C783 1.377 1_655 S
C782 C784 1.384 . S
C783 C782 1.377 1_455 S
C783 C789 1.390 . S
C784 H775 0.930 . S
C784 C782 1.384 . S
C784 C785 1.372 1_655 S
C785 C784 1.372 1_455 S
C785 C786 1.400 . S
C785 C790 1.490 . S
C786 H776 0.930 . S
C786 C785 1.400 . S
C786 C789 1.386 . S
H787 C803 0.930 . S
H788 C804 0.931 . S
C789 H777 0.929 . S
C789 C783 1.390 . S
C789 C786 1.386 . S
C790 C785 1.490 . S
C790 C792 1.395 1_455 S
C790 C793 1.403 . S
H791 C797 0.930 . S
C792 H778 0.930 . S
C792 C790 1.395 1_655 S
C792 C795 1.403 . S
C793 C790 1.403 . S
C793 C794 1.524 . S
C793 C797 1.400 . S
C794 H779 0.960 . S
C794 H780 0.960 . S
C794 H781 0.960 . S
C794 C793 1.524 . S
C795 C792 1.403 . S
C795 C796 1.392 1_655 S
C795 C799 1.495 . S
C796 C795 1.392 1_455 S
C796 C797 1.385 . S
C796 C798 1.478 . S
C797 H791 0.930 . S
C797 C793 1.400 . S
C797 C796 1.385 . S
C798 C796 1.478 . S
C798 C800 1.381 1_455 S
C798 C804 1.383 . S
C799 C795 1.495 . S
C799 H805 0.959 . S
C799 H806 0.961 . S
C799 H807 0.960 . S
C800 C798 1.381 1_655 S
C800 C801 1.394 . S
C800 H808 0.930 . S
C801 C800 1.394 . S
C801 C802 1.383 1_655 S
C801 H809 0.929 . S
C802 C801 1.383 1_455 S
C802 C803 1.377 . S
C803 H787 0.930 . S
C803 C802 1.377 . S
C803 C804 1.379 . S
C804 H788 0.931 . S
C804 C798 1.383 . S
C804 C803 1.379 . S
H805 C799 0.959 . S
H806 C799 0.961 . S
H807 C799 0.960 . S
H808 C800 0.930 . S
H809 C801 0.929 . S
H810 C818 0.929 . S
H811 C820 0.930 . S
H812 C822 0.930 . S
H813 C825 0.929 . S
H814 C828 0.930 . S
H815 C830 0.960 . S
H816 C830 0.960 . S
H817 C830 0.960 . S
C818 H810 0.929 . S
C818 C819 1.377 . S
C818 C820 1.384 . S
C819 C818 1.377 . S
C819 C825 1.390 . S
C820 H811 0.930 . S
C820 C818 1.384 . S
C820 C821 1.372 . S
C821 C820 1.372 . S
C821 C822 1.400 . S
C821 C826 1.490 . S
C822 H812 0.930 . S
C822 C821 1.400 . S
C822 C825 1.386 . S
H823 C839 0.930 . S
H824 C840 0.931 . S
C825 H813 0.929 . S
C825 C819 1.390 . S
C825 C822 1.386 . S
C826 C821 1.490 . S
C826 C828 1.395 . S
C826 C829 1.403 . S
H827 C833 0.930 . S
C828 H814 0.930 . S
C828 C826 1.395 . S
C828 C831 1.403 . S
C829 C826 1.403 . S
C829 C830 1.524 . S
C829 C833 1.400 . S
C830 H815 0.960 . S
C830 H816 0.960 . S
C830 H817 0.960 . S
C830 C829 1.524 . S
C831 C828 1.403 . S
C831 C832 1.392 . S
C831 C835 1.495 . S
C832 C831 1.392 . S
C832 C833 1.385 . S
C832 C834 1.478 . S
C833 H827 0.930 . S
C833 C829 1.400 . S
C833 C832 1.385 . S
C834 C832 1.478 . S
C834 C836 1.381 . S
C834 C840 1.383 . S
C835 C831 1.495 . S
C835 H841 0.959 . S
C835 H842 0.961 . S
C835 H843 0.960 . S
C836 C834 1.381 . S
C836 C837 1.394 . S
C836 H844 0.930 . S
C837 C836 1.394 . S
C837 C838 1.383 . S
C837 H845 0.929 . S
C838 C837 1.383 . S
C838 C839 1.377 . S
C839 H823 0.930 . S
C839 C838 1.377 . S
C839 C840 1.379 . S
C840 H824 0.931 . S
C840 C834 1.383 . S
C840 C839 1.379 . S
H841 C835 0.959 . S
H842 C835 0.961 . S
H843 C835 0.960 . S
H844 C836 0.930 . S
H845 C837 0.929 . S
H846 C854 0.929 . S
H847 C856 0.930 . S
H848 C858 0.911 1_655 S
H849 C861 0.929 1_655 S
H850 C864 0.930 . S
H851 C866 0.960 . S
H852 C866 0.960 . S
H853 C866 0.960 . S
C854 H846 0.929 . S
C854 C855 1.377 . S
C854 C856 1.384 . S
C855 C854 1.377 . S
C855 C861 1.390 . S
C856 H847 0.930 . S
C856 C854 1.384 . S
C856 C857 1.372 . S
C857 C856 1.372 . S
C857 C858 1.455 . S
C857 C862 1.490 . S
C858 H848 0.911 1_455 S
C858 C857 1.455 . S
C858 C861 1.356 . S
H859 C875 0.930 . S
H860 C876 0.931 . S
C861 H849 0.929 1_455 S
C861 C855 1.390 . S
C861 C858 1.356 . S
C862 C857 1.490 . S
C862 C864 1.395 1_455 S
C862 C865 1.403 . S
H863 C869 0.930 . S
C864 H850 0.930 . S
C864 C862 1.395 1_655 S
C864 C867 1.403 . S
C865 C862 1.403 . S
C865 C866 1.524 . S
C865 C869 1.400 . S
C866 H851 0.960 . S
C866 H852 0.960 . S
C866 H853 0.960 . S
C866 C865 1.524 . S
C867 C864 1.403 . S
C867 C868 1.348 1_655 S
C867 C871 1.495 . S
C868 C867 1.348 1_455 S
C868 C869 1.403 . S
C868 C870 1.515 . S
C869 H863 0.930 . S
C869 C865 1.400 . S
C869 C868 1.403 . S
C870 C868 1.515 . S
C870 C872 1.378 . S
C870 C876 1.384 1_455 S
C871 C867 1.495 . S
C871 H877 0.959 . S
C871 H878 0.961 . S
C871 H879 0.960 . S
C872 C870 1.378 . S
C872 C873 1.394 . S
C872 H880 0.930 . S
C873 C872 1.394 . S
C873 C874 1.384 . S
C873 H881 0.929 . S
C874 C873 1.384 . S
C874 C875 1.375 1_455 S
C875 H859 0.930 . S
C875 C874 1.375 1_655 S
C875 C876 1.379 . S
C876 H860 0.931 . S
C876 C870 1.384 1_655 S
C876 C875 1.379 . S
H877 C871 0.959 . S
H878 C871 0.961 . S
H879 C871 0.960 . S
H880 C872 0.930 . S
H881 C873 0.929 . S
H882 C890 0.929 . S
H883 C892 0.930 . S
H884 C894 0.930 . S
H885 C897 0.929 . S
H886 C900 0.930 . S
H887 C902 0.960 . S
H888 C902 0.960 . S
H889 C902 0.960 . S
C890 H882 0.929 . S
C890 C891 1.377 . S
C890 C892 1.384 . S
C891 C890 1.377 . S
C891 C897 1.390 . S
C892 H883 0.930 . S
C892 C890 1.384 . S
C892 C893 1.372 . S
C893 C892 1.372 . S
C893 C894 1.400 . S
C893 C898 1.490 . S
C894 H884 0.930 . S
C894 C893 1.400 . S
C894 C897 1.386 . S
H895 C911 0.930 . S
H896 C912 0.931 . S
C897 H885 0.929 . S
C897 C891 1.390 . S
C897 C894 1.386 . S
C898 C893 1.490 . S
C898 C900 1.395 . S
C898 C901 1.403 . S
H899 C905 0.930 . S
C900 H886 0.930 . S
C900 C898 1.395 . S
C900 C903 1.403 . S
C901 C898 1.403 . S
C901 C902 1.524 . S
C901 C905 1.400 . S
C902 H887 0.960 . S
C902 H888 0.960 . S
C902 H889 0.960 . S
C902 C901 1.524 . S
C903 C900 1.403 . S
C903 C904 1.392 . S
C903 C907 1.495 . S
C904 C903 1.392 . S
C904 C905 1.385 . S
C904 C906 1.478 . S
C905 H899 0.930 . S
C905 C901 1.400 . S
C905 C904 1.385 . S
C906 C904 1.478 . S
C906 C908 1.381 . S
C906 C912 1.383 . S
C907 C903 1.495 . S
C907 H913 0.959 . S
C907 H914 0.961 . S
C907 H915 0.960 . S
C908 C906 1.381 . S
C908 C909 1.394 . S
C908 H916 0.930 . S
C909 C908 1.394 . S
C909 C910 1.383 . S
C909 H917 0.929 . S
C910 C909 1.383 . S
C910 C911 1.377 . S
C911 H895 0.930 . S
C911 C910 1.377 . S
C911 C912 1.379 . S
C912 H896 0.931 . S
C912 C906 1.383 . S
C912 C911 1.379 . S
H913 C907 0.959 . S
H914 C907 0.961 . S
H915 C907 0.960 . S
H916 C908 0.930 . S
H917 C909 0.929 . S
H918 C926 0.929 . S
H919 C928 0.930 . S
H920 C930 0.930 . S
H921 C933 0.929 . S
H922 C936 0.930 . S
H923 C938 0.960 . S
H924 C938 0.960 . S
H925 C938 0.960 . S
C926 H918 0.929 . S
C926 C927 1.377 1_545 S
C926 C928 1.384 . S
C927 C926 1.377 1_565 S
C927 C933 1.390 . S
C928 H919 0.930 . S
C928 C926 1.384 . S
C928 C929 1.372 1_545 S
C929 C928 1.372 1_565 S
C929 C930 1.400 . S
C929 C934 1.516 . S
C930 H920 0.930 . S
C930 C929 1.400 . S
C930 C933 1.386 . S
H931 C947 0.930 . S
H932 C948 0.931 . S
C933 H921 0.929 . S
C933 C927 1.390 . S
C933 C930 1.386 . S
C934 C929 1.516 . S
C934 C936 1.378 1_565 S
C934 C937 1.396 . S
H935 C941 0.930 . S
C936 H922 0.930 . S
C936 C934 1.378 1_545 S
C936 C939 1.403 . S
C937 C934 1.396 . S
C937 C938 1.524 . S
C937 C941 1.400 . S
C938 H923 0.960 . S
C938 H924 0.960 . S
C938 H925 0.960 . S
C938 C937 1.524 . S
C939 C936 1.403 . S
C939 C940 1.388 . S
C939 C943 1.495 . S
C940 C939 1.388 . S
C940 C941 1.373 1_545 S
C940 C942 1.480 . S
C941 H935 0.930 . S
C941 C937 1.400 . S
C941 C940 1.373 1_565 S
C942 C940 1.480 . S
C942 C944 1.416 . S
C942 C948 1.363 1_545 S
C943 C939 1.495 . S
C943 H949 0.959 . S
C943 H950 0.961 . S
C943 H951 0.960 . S
C944 C942 1.416 . S
C944 C945 1.394 . S
C944 H952 0.930 . S
C945 C944 1.394 . S
C945 C946 1.387 1_545 S
C945 H953 0.929 . S
C946 C945 1.387 1_565 S
C946 C947 1.371 . S
C947 H931 0.930 . S
C947 C946 1.371 . S
C947 C948 1.379 . S
C948 H932 0.931 . S
C948 C942 1.363 1_565 S
C948 C947 1.379 . S
H949 C943 0.959 . S
H950 C943 0.961 . S
H951 C943 0.960 . S
H952 C944 0.930 . S
H953 C945 0.929 . S
H954 C962 0.929 . S
H955 C964 0.930 . S
H956 C966 0.930 . S
H957 C969 0.929 . S
H958 C972 0.930 . S
H959 C974 0.960 . S
H960 C974 0.960 . S
H961 C974 0.960 . S
C962 H954 0.929 . S
C962 C963 1.377 . S
C962 C964 1.384 . S
C963 C962 1.377 . S
C963 C969 1.390 . S
C964 H955 0.930 . S
C964 C962 1.384 . S
C964 C965 1.372 . S
C965 C964 1.372 . S
C965 C966 1.400 . S
C965 C970 1.490 . S
C966 H956 0.930 . S
C966 C965 1.400 . S
C966 C969 1.386 . S
H967 C983 0.930 . S
H968 C984 0.931 . S
C969 H957 0.929 . S
C969 C963 1.390 . S
C969 C966 1.386 . S
C970 C965 1.490 . S
C970 C972 1.395 . S
C970 C973 1.403 1_545 S
H971 C977 0.930 . S
C972 H958 0.930 . S
C972 C970 1.395 . S
C972 C975 1.403 . S
C973 C970 1.403 1_565 S
C973 C974 1.524 . S
C973 C977 1.400 . S
C974 H959 0.960 . S
C974 H960 0.960 . S
C974 H961 0.960 . S
C974 C973 1.524 . S
C975 C972 1.403 . S
C975 C976 1.392 . S
C975 C979 1.495 . S
C976 C975 1.392 . S
C976 C977 1.385 1_545 S
C976 C978 1.478 . S
C977 H971 0.930 . S
C977 C973 1.400 . S
C977 C976 1.385 1_565 S
C978 C976 1.478 . S
C978 C980 1.378 . S
C978 C984 1.383 . S
C979 C975 1.495 . S
C979 H985 0.959 . S
C979 H986 0.961 . S
C979 H987 0.960 . S
C980 C978 1.378 . S
C980 C981 1.391 1_545 S
C980 H988 0.937 1_545 S
C981 C980 1.391 1_565 S
C981 C982 1.383 1_565 S
C981 H989 0.929 . S
C982 C981 1.383 1_545 S
C982 C983 1.377 . S
C983 H967 0.930 . S
C983 C982 1.377 . S
C983 C984 1.379 . S
C984 H968 0.931 . S
C984 C978 1.383 . S
C984 C983 1.379 . S
H985 C979 0.959 . S
H986 C979 0.961 . S
H987 C979 0.960 . S
H988 C980 0.937 1_565 S
H989 C981 0.929 . S
H990 C998 0.929 . S
H991 C1000 0.930 . S
H992 C1002 0.930 . S
H993 C1005 0.929 . S
H994 C1008 0.930 . S
H995 C1010 0.960 . S
H996 C1010 0.960 . S
H997 C1010 0.960 . S
C998 H990 0.929 . S
C998 C999 1.377 1_455 S
C998 C1000 1.384 . S
C999 C998 1.377 1_655 S
C999 C1005 1.390 . S
C1000 H991 0.930 . S
C1000 C998 1.384 . S
C1000 C1001 1.372 1_455 S
C1001 C1000 1.372 1_655 S
C1001 C1002 1.400 . S
C1001 C1006 1.490 . S
C1002 H992 0.930 . S
C1002 C1001 1.400 . S
C1002 C1005 1.386 . S
H1003 C1019 0.930 . S
H1004 C1020 0.931 . S
C1005 H993 0.929 . S
C1005 C999 1.390 . S
C1005 C1002 1.386 . S
C1006 C1001 1.490 . S
C1006 C1008 1.395 1_655 S
C1006 C1009 1.403 . S
H1007 C1013 0.930 . S
C1008 H994 0.930 . S
C1008 C1006 1.395 1_455 S
C1008 C1011 1.403 . S
C1009 C1006 1.403 . S
C1009 C1010 1.524 . S
C1009 C1013 1.400 . S
C1010 H995 0.960 . S
C1010 H996 0.960 . S
C1010 H997 0.960 . S
C1010 C1009 1.524 . S
C1011 C1008 1.403 . S
C1011 C1012 1.411 . S
C1011 C1015 1.495 . S
C1012 C1011 1.411 . S
C1012 C1013 1.349 1_455 S
C1012 C1014 1.494 . S
C1013 H1007 0.930 . S
C1013 C1009 1.400 . S
C1013 C1012 1.349 1_655 S
C1014 C1012 1.494 . S
C1014 C1016 1.381 . S
C1014 C1020 1.383 1_455 S
C1015 C1011 1.495 . S
C1015 H1021 0.959 . S
C1015 H1022 0.961 . S
C1015 H1023 0.960 . S
C1016 C1014 1.381 . S
C1016 C1017 1.394 . S
C1016 H1024 0.930 . S
C1017 C1016 1.394 . S
C1017 C1018 1.390 . S
C1017 H1025 0.929 . S
C1018 C1017 1.390 . S
C1018 C1019 1.364 1_455 S
C1019 H1003 0.930 . S
C1019 C1018 1.364 1_655 S
C1019 C1020 1.379 . S
C1020 H1004 0.931 . S
C1020 C1014 1.383 1_655 S
C1020 C1019 1.379 . S
H1021 C1015 0.959 . S
H1022 C1015 0.961 . S
H1023 C1015 0.960 . S
H1024 C1016 0.930 . S
H1025 C1017 0.929 . S
H1026 C1034 0.929 . S
H1027 C1036 0.930 . S
H1028 C1038 0.930 . S
H1029 C1041 0.929 . S
H1030 C1044 0.930 . S
H1031 C1046 0.960 . S
H1032 C1046 0.960 . S
H1033 C1046 0.960 . S
C1034 H1026 0.929 . S
C1034 C1035 1.377 . S
C1034 C1036 1.384 . S
C1035 C1034 1.377 . S
C1035 C1041 1.390 . S
C1036 H1027 0.930 . S
C1036 C1034 1.384 . S
C1036 C1037 1.372 . S
C1037 C1036 1.372 . S
C1037 C1038 1.400 . S
C1037 C1042 1.490 . S
C1038 H1028 0.930 . S
C1038 C1037 1.400 . S
C1038 C1041 1.386 . S
H1039 C1055 0.930 . S
H1040 C1056 0.931 . S
C1041 H1029 0.929 . S
C1041 C1035 1.390 . S
C1041 C1038 1.386 . S
C1042 C1037 1.490 . S
C1042 C1044 1.395 . S
C1042 C1045 1.403 . S
H1043 C1049 0.930 . S
C1044 H1030 0.930 . S
C1044 C1042 1.395 . S
C1044 C1047 1.403 . S
C1045 C1042 1.403 . S
C1045 C1046 1.524 . S
C1045 C1049 1.400 . S
C1046 H1031 0.960 . S
C1046 H1032 0.960 . S
C1046 H1033 0.960 . S
C1046 C1045 1.524 . S
C1047 C1044 1.403 . S
C1047 C1048 1.392 . S
C1047 C1051 1.495 . S
C1048 C1047 1.392 . S
C1048 C1049 1.385 . S
C1048 C1050 1.478 . S
C1049 H1043 0.930 . S
C1049 C1045 1.400 . S
C1049 C1048 1.385 . S
C1050 C1048 1.478 . S
C1050 C1052 1.381 . S
C1050 C1056 1.383 . S
C1051 C1047 1.495 . S
C1051 H1057 0.959 . S
C1051 H1058 0.961 . S
C1051 H1059 0.960 . S
C1052 C1050 1.381 . S
C1052 C1053 1.394 . S
C1052 H1060 0.930 . S
C1053 C1052 1.394 . S
C1053 C1054 1.383 . S
C1053 H1061 0.929 . S
C1054 C1053 1.383 . S
C1054 C1055 1.377 . S
C1055 H1039 0.930 . S
C1055 C1054 1.377 . S
C1055 C1056 1.379 . S
C1056 H1040 0.931 . S
C1056 C1050 1.383 . S
C1056 C1055 1.379 . S
H1057 C1051 0.959 . S
H1058 C1051 0.961 . S
H1059 C1051 0.960 . S
H1060 C1052 0.930 . S
H1061 C1053 0.929 . S
H1062 C1070 0.929 . S
H1063 C1072 0.930 . S
H1064 C1074 0.930 . S
H1065 C1077 0.929 . S
H1066 C1080 0.930 . S
H1067 C1082 0.960 . S
H1068 C1082 0.960 . S
H1069 C1082 0.960 . S
C1070 H1062 0.929 . S
C1070 C1071 1.377 . S
C1070 C1072 1.384 . S
C1071 C1070 1.377 . S
C1071 C1077 1.390 . S
C1072 H1063 0.930 . S
C1072 C1070 1.384 . S
C1072 C1073 1.372 . S
C1073 C1072 1.372 . S
C1073 C1074 1.400 . S
C1073 C1078 1.490 . S
C1074 H1064 0.930 . S
C1074 C1073 1.400 . S
C1074 C1077 1.386 . S
H1075 C1091 0.930 . S
H1076 C1092 0.931 . S
C1077 H1065 0.929 . S
C1077 C1071 1.390 . S
C1077 C1074 1.386 . S
C1078 C1073 1.490 . S
C1078 C1080 1.395 . S
C1078 C1081 1.403 . S
H1079 C1085 0.930 . S
C1080 H1066 0.930 . S
C1080 C1078 1.395 . S
C1080 C1083 1.403 . S
C1081 C1078 1.403 . S
C1081 C1082 1.524 . S
C1081 C1085 1.400 . S
C1082 H1067 0.960 . S
C1082 H1068 0.960 . S
C1082 H1069 0.960 . S
C1082 C1081 1.524 . S
C1083 C1080 1.403 . S
C1083 C1084 1.392 . S
C1083 C1087 1.495 . S
C1084 C1083 1.392 . S
C1084 C1085 1.385 . S
C1084 C1086 1.478 . S
C1085 H1079 0.930 . S
C1085 C1081 1.400 . S
C1085 C1084 1.385 . S
C1086 C1084 1.478 . S
C1086 C1088 1.381 . S
C1086 C1092 1.383 . S
C1087 C1083 1.495 . S
C1087 H1093 0.959 . S
C1087 H1094 0.961 . S
C1087 H1095 0.960 . S
C1088 C1086 1.381 . S
C1088 C1089 1.394 . S
C1088 H1096 0.930 . S
C1089 C1088 1.394 . S
C1089 C1090 1.383 . S
C1089 H1097 0.929 . S
C1090 C1089 1.383 . S
C1090 C1091 1.377 . S
C1091 H1075 0.930 . S
C1091 C1090 1.377 . S
C1091 C1092 1.379 . S
C1092 H1076 0.931 . S
C1092 C1086 1.383 . S
C1092 C1091 1.379 . S
H1093 C1087 0.959 . S
H1094 C1087 0.961 . S
H1095 C1087 0.960 . S
H1096 C1088 0.930 . S
H1097 C1089 0.929 . S
H1098 C1106 0.929 . S
H1099 C1108 0.930 . S
H1100 C1110 0.930 . S
H1101 C1113 0.929 . S
H1102 C1116 0.930 . S
H1103 C1118 0.960 . S
H1104 C1118 0.960 . S
H1105 C1118 0.960 . S
C1106 H1098 0.929 . S
C1106 C1107 1.377 . S
C1106 C1108 1.384 . S
C1107 C1106 1.377 . S
C1107 C1113 1.390 . S
C1108 H1099 0.930 . S
C1108 C1106 1.384 . S
C1108 C1109 1.372 . S
C1109 C1108 1.372 . S
C1109 C1110 1.400 . S
C1109 C1114 1.490 . S
C1110 H1100 0.930 . S
C1110 C1109 1.400 . S
C1110 C1113 1.386 . S
H1111 C1127 0.930 . S
H1112 C1128 0.931 . S
C1113 H1101 0.929 . S
C1113 C1107 1.390 . S
C1113 C1110 1.386 . S
C1114 C1109 1.490 . S
C1114 C1116 1.395 . S
C1114 C1117 1.403 . S
H1115 C1121 0.930 . S
C1116 H1102 0.930 . S
C1116 C1114 1.395 . S
C1116 C1119 1.403 . S
C1117 C1114 1.403 . S
C1117 C1118 1.524 . S
C1117 C1121 1.400 . S
C1118 H1103 0.960 . S
C1118 H1104 0.960 . S
C1118 H1105 0.960 . S
C1118 C1117 1.524 . S
C1119 C1116 1.403 . S
C1119 C1120 1.392 . S
C1119 C1123 1.495 . S
C1120 C1119 1.392 . S
C1120 C1121 1.385 . S
C1120 C1122 1.478 . S
C1121 H1115 0.930 . S
C1121 C1117 1.400 . S
C1121 C1120 1.385 . S
C1122 C1120 1.478 . S
C1122 C1124 1.381 . S
C1122 C1128 1.383 . S
C1123 C1119 1.495 . S
C1123 H1129 0.959 . S
C1123 H1130 0.961 . S
C1123 H1131 0.960 . S
C1124 C1122 1.381 . S
C1124 C1125 1.394 . S
C1124 H1132 0.930 . S
C1125 C1124 1.394 . S
C1125 C1126 1.383 . S
C1125 H1133 0.929 . S
C1126 C1125 1.383 . S
C1126 C1127 1.377 . S
C1127 H1111 0.930 . S
C1127 C1126 1.377 . S
C1127 C1128 1.379 . S
C1128 H1112 0.931 . S
C1128 C1122 1.383 . S
C1128 C1127 1.379 . S
H1129 C1123 0.959 . S
H1130 C1123 0.961 . S
H1131 C1123 0.960 . S
H1132 C1124 0.930 . S
H1133 C1125 0.929 . S
H1134 C1142 0.929 . S
H1135 C1144 0.930 . S
H1136 C1146 0.930 . S
H1137 C1149 0.929 . S
H1138 C1152 0.930 . S
H1139 C1154 0.960 . S
H1140 C1154 0.960 . S
H1141 C1154 0.960 . S
C1142 H1134 0.929 . S
C1142 C1143 1.377 . S
C1142 C1144 1.384 . S
C1143 C1142 1.377 . S
C1143 C1149 1.390 . S
C1144 H1135 0.930 . S
C1144 C1142 1.384 . S
C1144 C1145 1.372 . S
C1145 C1144 1.372 . S
C1145 C1146 1.400 . S
C1145 C1150 1.490 . S
C1146 H1136 0.930 . S
C1146 C1145 1.400 . S
C1146 C1149 1.386 . S
H1147 C1163 0.930 . S
H1148 C1164 0.931 . S
C1149 H1137 0.929 . S
C1149 C1143 1.390 . S
C1149 C1146 1.386 . S
C1150 C1145 1.490 . S
C1150 C1152 1.395 . S
C1150 C1153 1.403 . S
H1151 C1157 0.930 . S
C1152 H1138 0.930 . S
C1152 C1150 1.395 . S
C1152 C1155 1.403 . S
C1153 C1150 1.403 . S
C1153 C1154 1.524 . S
C1153 C1157 1.400 . S
C1154 H1139 0.960 . S
C1154 H1140 0.960 . S
C1154 H1141 0.960 . S
C1154 C1153 1.524 . S
C1155 C1152 1.403 . S
C1155 C1156 1.392 . S
C1155 C1159 1.495 . S
C1156 C1155 1.392 . S
C1156 C1157 1.385 . S
C1156 C1158 1.478 . S
C1157 H1151 0.930 . S
C1157 C1153 1.400 . S
C1157 C1156 1.385 . S
C1158 C1156 1.478 . S
C1158 C1160 1.381 . S
C1158 C1164 1.383 . S
C1159 C1155 1.495 . S
C1159 H1165 0.959 . S
C1159 H1166 0.961 . S
C1159 H1167 0.960 . S
C1160 C1158 1.381 . S
C1160 C1161 1.394 . S
C1160 H1168 0.930 . S
C1161 C1160 1.394 . S
C1161 C1162 1.383 . S
C1161 H1169 0.929 . S
C1162 C1161 1.383 . S
C1162 C1163 1.377 . S
C1163 H1147 0.930 . S
C1163 C1162 1.377 . S
C1163 C1164 1.379 . S
C1164 H1148 0.931 . S
C1164 C1158 1.383 . S
C1164 C1163 1.379 . S
H1165 C1159 0.959 . S
H1166 C1159 0.961 . S
H1167 C1159 0.960 . S
H1168 C1160 0.930 . S
H1169 C1161 0.929 . S
H1170 C1178 0.929 . S
H1171 C1180 0.930 . S
H1172 C1182 0.930 . S
H1173 C1185 0.929 . S
H1174 C1188 0.930 . S
H1175 C1190 0.960 . S
H1176 C1190 0.960 . S
H1177 C1190 0.960 . S
C1178 H1170 0.929 . S
C1178 C1179 1.377 . S
C1178 C1180 1.384 . S
C1179 C1178 1.377 . S
C1179 C1185 1.390 . S
C1180 H1171 0.930 . S
C1180 C1178 1.384 . S
C1180 C1181 1.372 . S
C1181 C1180 1.372 . S
C1181 C1182 1.400 . S
C1181 C1186 1.490 . S
C1182 H1172 0.930 . S
C1182 C1181 1.400 . S
C1182 C1185 1.386 . S
H1183 C1199 0.930 . S
H1184 C1200 0.931 . S
C1185 H1173 0.929 . S
C1185 C1179 1.390 . S
C1185 C1182 1.386 . S
C1186 C1181 1.490 . S
C1186 C1188 1.395 . S
C1186 C1189 1.403 . S
H1187 C1193 0.930 . S
C1188 H1174 0.930 . S
C1188 C1186 1.395 . S
C1188 C1191 1.403 . S
C1189 C1186 1.403 . S
C1189 C1190 1.524 . S
C1189 C1193 1.400 . S
C1190 H1175 0.960 . S
C1190 H1176 0.960 . S
C1190 H1177 0.960 . S
C1190 C1189 1.524 . S
C1191 C1188 1.403 . S
C1191 C1192 1.392 . S
C1191 C1195 1.495 . S
C1192 C1191 1.392 . S
C1192 C1193 1.385 . S
C1192 C1194 1.478 . S
C1193 H1187 0.930 . S
C1193 C1189 1.400 . S
C1193 C1192 1.385 . S
C1194 C1192 1.478 . S
C1194 C1196 1.381 . S
C1194 C1200 1.383 . S
C1195 C1191 1.495 . S
C1195 H1201 0.959 . S
C1195 H1202 0.961 . S
C1195 H1203 0.960 . S
C1196 C1194 1.381 . S
C1196 C1197 1.394 . S
C1196 H1204 0.930 . S
C1197 C1196 1.394 . S
C1197 C1198 1.383 . S
C1197 H1205 0.929 . S
C1198 C1197 1.383 . S
C1198 C1199 1.377 . S
C1199 H1183 0.930 . S
C1199 C1198 1.377 . S
C1199 C1200 1.379 . S
C1200 H1184 0.931 . S
C1200 C1194 1.383 . S
C1200 C1199 1.379 . S
H1201 C1195 0.959 . S
H1202 C1195 0.961 . S
H1203 C1195 0.960 . S
H1204 C1196 0.930 . S
H1205 C1197 0.929 . S
H1206 C1214 0.929 . S
H1207 C1216 0.930 . S
H1208 C1218 0.930 . S
H1209 C1221 0.929 . S
H1210 C1224 0.930 . S
H1211 C1226 0.960 . S
H1212 C1226 0.960 . S
H1213 C1226 0.960 . S
C1214 H1206 0.929 . S
C1214 C1215 1.377 . S
C1214 C1216 1.384 . S
C1215 C1214 1.377 . S
C1215 C1221 1.390 . S
C1216 H1207 0.930 . S
C1216 C1214 1.384 . S
C1216 C1217 1.372 . S
C1217 C1216 1.372 . S
C1217 C1218 1.400 . S
C1217 C1222 1.490 . S
C1218 H1208 0.930 . S
C1218 C1217 1.400 . S
C1218 C1221 1.386 . S
H1219 C1235 0.930 . S
H1220 C1236 0.931 . S
C1221 H1209 0.929 . S
C1221 C1215 1.390 . S
C1221 C1218 1.386 . S
C1222 C1217 1.490 . S
C1222 C1224 1.395 . S
C1222 C1225 1.403 . S
H1223 C1229 0.930 . S
C1224 H1210 0.930 . S
C1224 C1222 1.395 . S
C1224 C1227 1.403 . S
C1225 C1222 1.403 . S
C1225 C1226 1.524 . S
C1225 C1229 1.400 . S
C1226 H1211 0.960 . S
C1226 H1212 0.960 . S
C1226 H1213 0.960 . S
C1226 C1225 1.524 . S
C1227 C1224 1.403 . S
C1227 C1228 1.392 . S
C1227 C1231 1.495 . S
C1228 C1227 1.392 . S
C1228 C1229 1.385 . S
C1228 C1230 1.478 . S
C1229 H1223 0.930 . S
C1229 C1225 1.400 . S
C1229 C1228 1.385 . S
C1230 C1228 1.478 . S
C1230 C1232 1.381 . S
C1230 C1236 1.383 . S
C1231 C1227 1.495 . S
C1231 H1237 0.959 . S
C1231 H1238 0.961 . S
C1231 H1239 0.960 . S
C1232 C1230 1.381 . S
C1232 C1233 1.394 . S
C1232 H1240 0.930 . S
C1233 C1232 1.394 . S
C1233 C1234 1.383 . S
C1233 H1241 0.929 . S
C1234 C1233 1.383 . S
C1234 C1235 1.377 . S
C1235 H1219 0.930 . S
C1235 C1234 1.377 . S
C1235 C1236 1.379 . S
C1236 H1220 0.931 . S
C1236 C1230 1.383 . S
C1236 C1235 1.379 . S
H1237 C1231 0.959 . S
H1238 C1231 0.961 . S
H1239 C1231 0.960 . S
H1240 C1232 0.930 . S
H1241 C1233 0.929 . S
H1242 C1250 0.929 . S
H1243 C1252 0.930 . S
H1244 C1254 0.930 . S
H1245 C1257 0.929 . S
H1246 C1260 0.930 . S
H1247 C1262 0.960 . S
H1248 C1262 0.960 . S
H1249 C1262 0.960 . S
C1250 H1242 0.929 . S
C1250 C1251 1.377 . S
C1250 C1252 1.384 . S
C1251 C1250 1.377 . S
C1251 C1257 1.390 . S
C1252 H1243 0.930 . S
C1252 C1250 1.384 . S
C1252 C1253 1.372 . S
C1253 C1252 1.372 . S
C1253 C1254 1.400 . S
C1253 C1258 1.490 . S
C1254 H1244 0.930 . S
C1254 C1253 1.400 . S
C1254 C1257 1.386 . S
H1255 C1271 0.930 . S
H1256 C1272 0.931 . S
C1257 H1245 0.929 . S
C1257 C1251 1.390 . S
C1257 C1254 1.386 . S
C1258 C1253 1.490 . S
C1258 C1260 1.395 . S
C1258 C1261 1.403 . S
H1259 C1265 0.930 . S
C1260 H1246 0.930 . S
C1260 C1258 1.395 . S
C1260 C1263 1.403 . S
C1261 C1258 1.403 . S
C1261 C1262 1.524 . S
C1261 C1265 1.400 . S
C1262 H1247 0.960 . S
C1262 H1248 0.960 . S
C1262 H1249 0.960 . S
C1262 C1261 1.524 . S
C1263 C1260 1.403 . S
C1263 C1264 1.392 . S
C1263 C1267 1.495 . S
C1264 C1263 1.392 . S
C1264 C1265 1.385 . S
C1264 C1266 1.478 . S
C1265 H1259 0.930 . S
C1265 C1261 1.400 . S
C1265 C1264 1.385 . S
C1266 C1264 1.478 . S
C1266 C1268 1.381 . S
C1266 C1272 1.383 . S
C1267 C1263 1.495 . S
C1267 H1273 0.959 . S
C1267 H1274 0.961 . S
C1267 H1275 0.960 . S
C1268 C1266 1.381 . S
C1268 C1269 1.394 . S
C1268 H1276 0.930 . S
C1269 C1268 1.394 . S
C1269 C1270 1.383 . S
C1269 H1277 0.929 . S
C1270 C1269 1.383 . S
C1270 C1271 1.377 . S
C1271 H1255 0.930 . S
C1271 C1270 1.377 . S
C1271 C1272 1.379 . S
C1272 H1256 0.931 . S
C1272 C1266 1.383 . S
C1272 C1271 1.379 . S
H1273 C1267 0.959 . S
H1274 C1267 0.961 . S
H1275 C1267 0.960 . S
H1276 C1268 0.930 . S
H1277 C1269 0.929 . S
H1278 C1286 0.929 . S
H1279 C1288 0.930 . S
H1280 C1290 0.930 . S
H1281 C1293 0.929 . S
H1282 C1296 0.930 . S
H1283 C1298 0.960 . S
H1284 C1298 0.960 . S
H1285 C1298 0.960 . S
C1286 H1278 0.929 . S
C1286 C1287 1.377 . S
C1286 C1288 1.384 . S
C1287 C1286 1.377 . S
C1287 C1293 1.390 . S
C1288 H1279 0.930 . S
C1288 C1286 1.384 . S
C1288 C1289 1.372 . S
C1289 C1288 1.372 . S
C1289 C1290 1.400 . S
C1289 C1294 1.490 . S
C1290 H1280 0.930 . S
C1290 C1289 1.400 . S
C1290 C1293 1.386 . S
H1291 C1307 0.930 . S
H1292 C1308 0.931 . S
C1293 H1281 0.929 . S
C1293 C1287 1.390 . S
C1293 C1290 1.386 . S
C1294 C1289 1.490 . S
C1294 C1296 1.395 . S
C1294 C1297 1.403 . S
H1295 C1301 0.930 . S
C1296 H1282 0.930 . S
C1296 C1294 1.395 . S
C1296 C1299 1.403 . S
C1297 C1294 1.403 . S
C1297 C1298 1.524 . S
C1297 C1301 1.400 . S
C1298 H1283 0.960 . S
C1298 H1284 0.960 . S
C1298 H1285 0.960 . S
C1298 C1297 1.524 . S
C1299 C1296 1.403 . S
C1299 C1300 1.392 . S
C1299 C1303 1.495 . S
C1300 C1299 1.392 . S
C1300 C1301 1.385 . S
C1300 C1302 1.478 . S
C1301 H1295 0.930 . S
C1301 C1297 1.400 . S
C1301 C1300 1.385 . S
C1302 C1300 1.478 . S
C1302 C1304 1.381 . S
C1302 C1308 1.383 . S
C1303 C1299 1.495 . S
C1303 H1309 0.959 . S
C1303 H1310 0.961 . S
C1303 H1311 0.960 . S
C1304 C1302 1.381 . S
C1304 C1305 1.394 . S
C1304 H1312 0.930 . S
C1305 C1304 1.394 . S
C1305 C1306 1.383 . S
C1305 H1313 0.929 . S
C1306 C1305 1.383 . S
C1306 C1307 1.377 . S
C1307 H1291 0.930 . S
C1307 C1306 1.377 . S
C1307 C1308 1.379 . S
C1308 H1292 0.931 . S
C1308 C1302 1.383 . S
C1308 C1307 1.379 . S
H1309 C1303 0.959 . S
H1310 C1303 0.961 . S
H1311 C1303 0.960 . S
H1312 C1304 0.930 . S
H1313 C1305 0.929 . S
H1314 C1322 0.929 . S
H1315 C1324 0.930 . S
H1316 C1326 0.930 . S
H1317 C1329 0.929 . S
H1318 C1332 0.930 . S
H1319 C1334 0.960 . S
H1320 C1334 0.960 . S
H1321 C1334 0.960 . S
C1322 H1314 0.929 . S
C1322 C1323 1.377 . S
C1322 C1324 1.384 . S
C1323 C1322 1.377 . S
C1323 C1329 1.390 . S
C1324 H1315 0.930 . S
C1324 C1322 1.384 . S
C1324 C1325 1.372 . S
C1325 C1324 1.372 . S
C1325 C1326 1.400 . S
C1325 C1330 1.490 . S
C1326 H1316 0.930 . S
C1326 C1325 1.400 . S
C1326 C1329 1.386 . S
H1327 C1343 0.930 . S
H1328 C1344 0.931 . S
C1329 H1317 0.929 . S
C1329 C1323 1.390 . S
C1329 C1326 1.386 . S
C1330 C1325 1.490 . S
C1330 C1332 1.395 . S
C1330 C1333 1.403 . S
H1331 C1337 0.930 . S
C1332 H1318 0.930 . S
C1332 C1330 1.395 . S
C1332 C1335 1.403 . S
C1333 C1330 1.403 . S
C1333 C1334 1.524 . S
C1333 C1337 1.400 . S
C1334 H1319 0.960 . S
C1334 H1320 0.960 . S
C1334 H1321 0.960 . S
C1334 C1333 1.524 . S
C1335 C1332 1.403 . S
C1335 C1336 1.392 . S
C1335 C1339 1.495 . S
C1336 C1335 1.392 . S
C1336 C1337 1.385 . S
C1336 C1338 1.478 . S
C1337 H1331 0.930 . S
C1337 C1333 1.400 . S
C1337 C1336 1.385 . S
C1338 C1336 1.478 . S
C1338 C1340 1.381 . S
C1338 C1344 1.383 . S
C1339 C1335 1.495 . S
C1339 H1345 0.959 . S
C1339 H1346 0.961 . S
C1339 H1347 0.960 . S
C1340 C1338 1.381 . S
C1340 C1341 1.394 . S
C1340 H1348 0.930 . S
C1341 C1340 1.394 . S
C1341 C1342 1.383 . S
C1341 H1349 0.929 . S
C1342 C1341 1.383 . S
C1342 C1343 1.377 . S
C1343 H1327 0.930 . S
C1343 C1342 1.377 . S
C1343 C1344 1.379 . S
C1344 H1328 0.931 . S
C1344 C1338 1.383 . S
C1344 C1343 1.379 . S
H1345 C1339 0.959 . S
H1346 C1339 0.961 . S
H1347 C1339 0.960 . S
H1348 C1340 0.930 . S
H1349 C1341 0.929 . S
H1350 C1358 0.929 . S
H1351 C1360 0.930 . S
H1352 C1362 0.930 . S
H1353 C1365 0.929 . S
H1354 C1368 0.930 . S
H1355 C1370 0.960 . S
H1356 C1370 0.960 . S
H1357 C1370 0.960 . S
C1358 H1350 0.929 . S
C1358 C1359 1.377 . S
C1358 C1360 1.384 . S
C1359 C1358 1.377 . S
C1359 C1365 1.390 . S
C1360 H1351 0.930 . S
C1360 C1358 1.384 . S
C1360 C1361 1.372 . S
C1361 C1360 1.372 . S
C1361 C1362 1.400 . S
C1361 C1366 1.490 . S
C1362 H1352 0.930 . S
C1362 C1361 1.400 . S
C1362 C1365 1.386 . S
H1363 C1379 0.930 . S
H1364 C1380 0.931 . S
C1365 H1353 0.929 . S
C1365 C1359 1.390 . S
C1365 C1362 1.386 . S
C1366 C1361 1.490 . S
C1366 C1368 1.395 . S
C1366 C1369 1.403 . S
H1367 C1373 0.930 . S
C1368 H1354 0.930 . S
C1368 C1366 1.395 . S
C1368 C1371 1.403 . S
C1369 C1366 1.403 . S
C1369 C1370 1.524 . S
C1369 C1373 1.400 . S
C1370 H1355 0.960 . S
C1370 H1356 0.960 . S
C1370 H1357 0.960 . S
C1370 C1369 1.524 . S
C1371 C1368 1.403 . S
C1371 C1372 1.392 . S
C1371 C1375 1.495 . S
C1372 C1371 1.392 . S
C1372 C1373 1.385 . S
C1372 C1374 1.478 . S
C1373 H1367 0.930 . S
C1373 C1369 1.400 . S
C1373 C1372 1.385 . S
C1374 C1372 1.478 . S
C1374 C1376 1.381 . S
C1374 C1380 1.383 . S
C1375 C1371 1.495 . S
C1375 H1381 0.959 . S
C1375 H1382 0.961 . S
C1375 H1383 0.960 . S
C1376 C1374 1.381 . S
C1376 C1377 1.394 . S
C1376 H1384 0.930 . S
C1377 C1376 1.394 . S
C1377 C1378 1.383 . S
C1377 H1385 0.929 . S
C1378 C1377 1.383 . S
C1378 C1379 1.377 . S
C1379 H1363 0.930 . S
C1379 C1378 1.377 . S
C1379 C1380 1.379 . S
C1380 H1364 0.931 . S
C1380 C1374 1.383 . S
C1380 C1379 1.379 . S
H1381 C1375 0.959 . S
H1382 C1375 0.961 . S
H1383 C1375 0.960 . S
H1384 C1376 0.930 . S
H1385 C1377 0.929 . S
H1386 C1394 0.929 . S
H1387 C1396 0.930 . S
H1388 C1398 0.930 . S
H1389 C1401 0.929 . S
H1390 C1404 0.930 . S
H1391 C1406 0.960 . S
H1392 C1406 0.960 . S
H1393 C1406 0.960 . S
C1394 H1386 0.929 . S
C1394 C1395 1.377 . S
C1394 C1396 1.384 . S
C1395 C1394 1.377 . S
C1395 C1401 1.390 . S
C1396 H1387 0.930 . S
C1396 C1394 1.384 . S
C1396 C1397 1.372 . S
C1397 C1396 1.372 . S
C1397 C1398 1.400 . S
C1397 C1402 1.490 . S
C1398 H1388 0.930 . S
C1398 C1397 1.400 . S
C1398 C1401 1.386 . S
H1399 C1415 0.930 . S
H1400 C1416 0.931 . S
C1401 H1389 0.929 . S
C1401 C1395 1.390 . S
C1401 C1398 1.386 . S
C1402 C1397 1.490 . S
C1402 C1404 1.395 . S
C1402 C1405 1.403 . S
H1403 C1409 0.930 . S
C1404 H1390 0.930 . S
C1404 C1402 1.395 . S
C1404 C1407 1.403 . S
C1405 C1402 1.403 . S
C1405 C1406 1.524 . S
C1405 C1409 1.400 . S
C1406 H1391 0.960 . S
C1406 H1392 0.960 . S
C1406 H1393 0.960 . S
C1406 C1405 1.524 . S
C1407 C1404 1.403 . S
C1407 C1408 1.392 . S
C1407 C1411 1.495 . S
C1408 C1407 1.392 . S
C1408 C1409 1.385 . S
C1408 C1410 1.478 . S
C1409 H1403 0.930 . S
C1409 C1405 1.400 . S
C1409 C1408 1.385 . S
C1410 C1408 1.478 . S
C1410 C1412 1.381 . S
C1410 C1416 1.383 . S
C1411 C1407 1.495 . S
C1411 H1417 0.959 . S
C1411 H1418 0.961 . S
C1411 H1419 0.960 . S
C1412 C1410 1.381 . S
C1412 C1413 1.394 . S
C1412 H1420 0.930 . S
C1413 C1412 1.394 . S
C1413 C1414 1.383 . S
C1413 H1421 0.929 . S
C1414 C1413 1.383 . S
C1414 C1415 1.377 . S
C1415 H1399 0.930 . S
C1415 C1414 1.377 . S
C1415 C1416 1.379 . S
C1416 H1400 0.931 . S
C1416 C1410 1.383 . S
C1416 C1415 1.379 . S
H1417 C1411 0.959 . S
H1418 C1411 0.961 . S
H1419 C1411 0.960 . S
H1420 C1412 0.930 . S
H1421 C1413 0.929 . S
H1422 C1430 0.929 . S
H1423 C1432 0.930 . S
H1424 C1434 0.930 . S
H1425 C1437 0.929 . S
H1426 C1440 0.930 . S
H1427 C1442 0.960 . S
H1428 C1442 0.960 . S
H1429 C1442 0.960 . S
C1430 H1422 0.929 . S
C1430 C1431 1.377 . S
C1430 C1432 1.384 . S
C1431 C1430 1.377 . S
C1431 C1437 1.390 . S
C1432 H1423 0.930 . S
C1432 C1430 1.384 . S
C1432 C1433 1.372 . S
C1433 C1432 1.372 . S
C1433 C1434 1.400 . S
C1433 C1438 1.490 . S
C1434 H1424 0.930 . S
C1434 C1433 1.400 . S
C1434 C1437 1.386 . S
H1435 C1451 0.930 . S
H1436 C1452 0.931 . S
C1437 H1425 0.929 . S
C1437 C1431 1.390 . S
C1437 C1434 1.386 . S
C1438 C1433 1.490 . S
C1438 C1440 1.395 . S
C1438 C1441 1.403 . S
H1439 C1445 0.930 . S
C1440 H1426 0.930 . S
C1440 C1438 1.395 . S
C1440 C1443 1.403 . S
C1441 C1438 1.403 . S
C1441 C1442 1.524 . S
C1441 C1445 1.400 . S
C1442 H1427 0.960 . S
C1442 H1428 0.960 . S
C1442 H1429 0.960 . S
C1442 C1441 1.524 . S
C1443 C1440 1.403 . S
C1443 C1444 1.392 . S
C1443 C1447 1.495 . S
C1444 C1443 1.392 . S
C1444 C1445 1.385 . S
C1444 C1446 1.478 . S
C1445 H1439 0.930 . S
C1445 C1441 1.400 . S
C1445 C1444 1.385 . S
C1446 C1444 1.478 . S
C1446 C1448 1.381 . S
C1446 C1452 1.383 . S
C1447 C1443 1.495 . S
C1447 H1453 0.959 . S
C1447 H1454 0.961 . S
C1447 H1455 0.960 . S
C1448 C1446 1.381 . S
C1448 C1449 1.394 . S
C1448 H1456 0.930 . S
C1449 C1448 1.394 . S
C1449 C1450 1.383 . S
C1449 H1457 0.929 . S
C1450 C1449 1.383 . S
C1450 C1451 1.377 . S
C1451 H1435 0.930 . S
C1451 C1450 1.377 . S
C1451 C1452 1.379 . S
C1452 H1436 0.931 . S
C1452 C1446 1.383 . S
C1452 C1451 1.379 . S
H1453 C1447 0.959 . S
H1454 C1447 0.961 . S
H1455 C1447 0.960 . S
H1456 C1448 0.930 . S
H1457 C1449 0.929 . S
H1458 C1466 0.929 . S
H1459 C1468 0.930 . S
H1460 C1470 0.930 . S
H1461 C1473 0.929 . S
H1462 C1476 0.930 . S
H1463 C1478 0.960 . S
H1464 C1478 0.960 . S
H1465 C1478 0.960 . S
C1466 H1458 0.929 . S
C1466 C1467 1.377 . S
C1466 C1468 1.384 . S
C1467 C1466 1.377 . S
C1467 C1473 1.390 . S
C1468 H1459 0.930 . S
C1468 C1466 1.384 . S
C1468 C1469 1.372 . S
C1469 C1468 1.372 . S
C1469 C1470 1.400 . S
C1469 C1474 1.490 . S
C1470 H1460 0.930 . S
C1470 C1469 1.400 . S
C1470 C1473 1.386 . S
H1471 C1487 0.930 . S
H1472 C1488 0.931 . S
C1473 H1461 0.929 . S
C1473 C1467 1.390 . S
C1473 C1470 1.386 . S
C1474 C1469 1.490 . S
C1474 C1476 1.395 . S
C1474 C1477 1.403 . S
H1475 C1481 0.930 . S
C1476 H1462 0.930 . S
C1476 C1474 1.395 . S
C1476 C1479 1.403 . S
C1477 C1474 1.403 . S
C1477 C1478 1.524 . S
C1477 C1481 1.400 . S
C1478 H1463 0.960 . S
C1478 H1464 0.960 . S
C1478 H1465 0.960 . S
C1478 C1477 1.524 . S
C1479 C1476 1.403 . S
C1479 C1480 1.392 . S
C1479 C1483 1.495 . S
C1480 C1479 1.392 . S
C1480 C1481 1.385 . S
C1480 C1482 1.478 . S
C1481 H1475 0.930 . S
C1481 C1477 1.400 . S
C1481 C1480 1.385 . S
C1482 C1480 1.478 . S
C1482 C1484 1.381 . S
C1482 C1488 1.383 . S
C1483 C1479 1.495 . S
C1483 H1489 0.959 . S
C1483 H1490 0.961 . S
C1483 H1491 0.960 . S
C1484 C1482 1.381 . S
C1484 C1485 1.394 . S
C1484 H1492 0.930 . S
C1485 C1484 1.394 . S
C1485 C1486 1.383 . S
C1485 H1493 0.929 . S
C1486 C1485 1.383 . S
C1486 C1487 1.377 . S
C1487 H1471 0.930 . S
C1487 C1486 1.377 . S
C1487 C1488 1.379 . S
C1488 H1472 0.931 . S
C1488 C1482 1.383 . S
C1488 C1487 1.379 . S
H1489 C1483 0.959 . S
H1490 C1483 0.961 . S
H1491 C1483 0.960 . S
H1492 C1484 0.930 . S
H1493 C1485 0.929 . S
H1494 C1502 0.929 . S
H1495 C1504 0.930 . S
H1496 C1506 0.930 . S
H1497 C1509 0.929 . S
H1498 C1512 0.930 . S
H1499 C1514 0.960 . S
H1500 C1514 0.960 . S
H1501 C1514 0.960 . S
C1502 H1494 0.929 . S
C1502 C1503 1.377 . S
C1502 C1504 1.384 . S
C1503 C1502 1.377 . S
C1503 C1509 1.390 . S
C1504 H1495 0.930 . S
C1504 C1502 1.384 . S
C1504 C1505 1.372 . S
C1505 C1504 1.372 . S
C1505 C1506 1.400 . S
C1505 C1510 1.490 . S
C1506 H1496 0.930 . S
C1506 C1505 1.400 . S
C1506 C1509 1.386 . S
H1507 C1523 0.930 . S
H1508 C1524 0.931 . S
C1509 H1497 0.929 . S
C1509 C1503 1.390 . S
C1509 C1506 1.386 . S
C1510 C1505 1.490 . S
C1510 C1512 1.395 . S
C1510 C1513 1.403 . S
H1511 C1517 0.930 . S
C1512 H1498 0.930 . S
C1512 C1510 1.395 . S
C1512 C1515 1.403 . S
C1513 C1510 1.403 . S
C1513 C1514 1.524 . S
C1513 C1517 1.400 . S
C1514 H1499 0.960 . S
C1514 H1500 0.960 . S
C1514 H1501 0.960 . S
C1514 C1513 1.524 . S
C1515 C1512 1.403 . S
C1515 C1516 1.392 . S
C1515 C1519 1.495 . S
C1516 C1515 1.392 . S
C1516 C1517 1.385 . S
C1516 C1518 1.478 . S
C1517 H1511 0.930 . S
C1517 C1513 1.400 . S
C1517 C1516 1.385 . S
C1518 C1516 1.478 . S
C1518 C1520 1.381 . S
C1518 C1524 1.383 . S
C1519 C1515 1.495 . S
C1519 H1525 0.959 . S
C1519 H1526 0.961 . S
C1519 H1527 0.960 . S
C1520 C1518 1.381 . S
C1520 C1521 1.394 . S
C1520 H1528 0.930 . S
C1521 C1520 1.394 . S
C1521 C1522 1.383 . S
C1521 H1529 0.929 . S
C1522 C1521 1.383 . S
C1522 C1523 1.377 . S
C1523 H1507 0.930 . S
C1523 C1522 1.377 . S
C1523 C1524 1.379 . S
C1524 H1508 0.931 . S
C1524 C1518 1.383 . S
C1524 C1523 1.379 . S
H1525 C1519 0.959 . S
H1526 C1519 0.961 . S
H1527 C1519 0.960 . S
H1528 C1520 0.930 . S
H1529 C1521 0.929 . S
H1530 C1538 0.929 . S
H1531 C1540 0.930 . S
H1532 C1542 0.930 . S
H1533 C1545 0.929 . S
H1534 C1548 0.930 . S
H1535 C1550 0.960 . S
H1536 C1550 0.960 . S
H1537 C1550 0.960 . S
C1538 H1530 0.929 . S
C1538 C1539 1.377 . S
C1538 C1540 1.384 . S
C1539 C1538 1.377 . S
C1539 C1545 1.390 . S
C1540 H1531 0.930 . S
C1540 C1538 1.384 . S
C1540 C1541 1.372 . S
C1541 C1540 1.372 . S
C1541 C1542 1.400 . S
C1541 C1546 1.490 . S
C1542 H1532 0.930 . S
C1542 C1541 1.400 . S
C1542 C1545 1.386 . S
H1543 C1559 0.930 . S
H1544 C1560 0.931 . S
C1545 H1533 0.929 . S
C1545 C1539 1.390 . S
C1545 C1542 1.386 . S
C1546 C1541 1.490 . S
C1546 C1548 1.395 . S
C1546 C1549 1.403 . S
H1547 C1553 0.930 . S
C1548 H1534 0.930 . S
C1548 C1546 1.395 . S
C1548 C1551 1.403 . S
C1549 C1546 1.403 . S
C1549 C1550 1.524 . S
C1549 C1553 1.400 . S
C1550 H1535 0.960 . S
C1550 H1536 0.960 . S
C1550 H1537 0.960 . S
C1550 C1549 1.524 . S
C1551 C1548 1.403 . S
C1551 C1552 1.392 . S
C1551 C1555 1.495 . S
C1552 C1551 1.392 . S
C1552 C1553 1.385 . S
C1552 C1554 1.478 . S
C1553 H1547 0.930 . S
C1553 C1549 1.400 . S
C1553 C1552 1.385 . S
C1554 C1552 1.478 . S
C1554 C1556 1.381 . S
C1554 C1560 1.383 . S
C1555 C1551 1.495 . S
C1555 H1561 0.959 . S
C1555 H1562 0.961 . S
C1555 H1563 0.960 . S
C1556 C1554 1.381 . S
C1556 C1557 1.394 . S
C1556 H1564 0.930 . S
C1557 C1556 1.394 . S
C1557 C1558 1.383 . S
C1557 H1565 0.929 . S
C1558 C1557 1.383 . S
C1558 C1559 1.377 . S
C1559 H1543 0.930 . S
C1559 C1558 1.377 . S
C1559 C1560 1.379 . S
C1560 H1544 0.931 . S
C1560 C1554 1.383 . S
C1560 C1559 1.379 . S
H1561 C1555 0.959 . S
H1562 C1555 0.961 . S
H1563 C1555 0.960 . S
H1564 C1556 0.930 . S
H1565 C1557 0.929 . S
H1566 C1574 0.929 . S
H1567 C1576 0.930 . S
H1568 C1578 0.930 . S
H1569 C1581 0.929 . S
H1570 C1584 0.930 . S
H1571 C1586 0.960 . S
H1572 C1586 0.960 . S
H1573 C1586 0.960 . S
C1574 H1566 0.929 . S
C1574 C1575 1.377 . S
C1574 C1576 1.384 . S
C1575 C1574 1.377 . S
C1575 C1581 1.390 . S
C1576 H1567 0.930 . S
C1576 C1574 1.384 . S
C1576 C1577 1.372 . S
C1577 C1576 1.372 . S
C1577 C1578 1.400 . S
C1577 C1582 1.490 . S
C1578 H1568 0.930 . S
C1578 C1577 1.400 . S
C1578 C1581 1.386 . S
H1579 C1595 0.930 . S
H1580 C1596 0.931 . S
C1581 H1569 0.929 . S
C1581 C1575 1.390 . S
C1581 C1578 1.386 . S
C1582 C1577 1.490 . S
C1582 C1584 1.395 . S
C1582 C1585 1.403 . S
H1583 C1589 0.930 . S
C1584 H1570 0.930 . S
C1584 C1582 1.395 . S
C1584 C1587 1.403 . S
C1585 C1582 1.403 . S
C1585 C1586 1.524 . S
C1585 C1589 1.400 . S
C1586 H1571 0.960 . S
C1586 H1572 0.960 . S
C1586 H1573 0.960 . S
C1586 C1585 1.524 . S
C1587 C1584 1.403 . S
C1587 C1588 1.392 . S
C1587 C1591 1.495 . S
C1588 C1587 1.392 . S
C1588 C1589 1.385 . S
C1588 C1590 1.478 . S
C1589 H1583 0.930 . S
C1589 C1585 1.400 . S
C1589 C1588 1.385 . S
C1590 C1588 1.478 . S
C1590 C1592 1.381 . S
C1590 C1596 1.383 . S
C1591 C1587 1.495 . S
C1591 H1597 0.959 . S
C1591 H1598 0.961 . S
C1591 H1599 0.960 . S
C1592 C1590 1.381 . S
C1592 C1593 1.394 . S
C1592 H1600 0.930 . S
C1593 C1592 1.394 . S
C1593 C1594 1.383 . S
C1593 H1601 0.929 . S
C1594 C1593 1.383 . S
C1594 C1595 1.377 . S
C1595 H1579 0.930 . S
C1595 C1594 1.377 . S
C1595 C1596 1.379 . S
C1596 H1580 0.931 . S
C1596 C1590 1.383 . S
C1596 C1595 1.379 . S
H1597 C1591 0.959 . S
H1598 C1591 0.961 . S
H1599 C1591 0.960 . S
H1600 C1592 0.930 . S
H1601 C1593 0.929 . S
H1602 C1610 0.929 . S
H1603 C1612 0.930 . S
H1604 C1614 0.930 . S
H1605 C1617 0.929 . S
H1606 C1620 0.930 . S
H1607 C1622 0.960 . S
H1608 C1622 0.960 . S
H1609 C1622 0.960 . S
C1610 H1602 0.929 . S
C1610 C1611 1.377 . S
C1610 C1612 1.384 . S
C1611 C1610 1.377 . S
C1611 C1617 1.390 . S
C1612 H1603 0.930 . S
C1612 C1610 1.384 . S
C1612 C1613 1.372 . S
C1613 C1612 1.372 . S
C1613 C1614 1.400 . S
C1613 C1618 1.490 . S
C1614 H1604 0.930 . S
C1614 C1613 1.400 . S
C1614 C1617 1.386 . S
H1615 C1631 0.930 . S
H1616 C1632 0.931 . S
C1617 H1605 0.929 . S
C1617 C1611 1.390 . S
C1617 C1614 1.386 . S
C1618 C1613 1.490 . S
C1618 C1620 1.395 . S
C1618 C1621 1.403 . S
H1619 C1625 0.930 . S
C1620 H1606 0.930 . S
C1620 C1618 1.395 . S
C1620 C1623 1.403 . S
C1621 C1618 1.403 . S
C1621 C1622 1.524 . S
C1621 C1625 1.400 . S
C1622 H1607 0.960 . S
C1622 H1608 0.960 . S
C1622 H1609 0.960 . S
C1622 C1621 1.524 . S
C1623 C1620 1.403 . S
C1623 C1624 1.392 . S
C1623 C1627 1.495 . S
C1624 C1623 1.392 . S
C1624 C1625 1.385 . S
C1624 C1626 1.478 . S
C1625 H1619 0.930 . S
C1625 C1621 1.400 . S
C1625 C1624 1.385 . S
C1626 C1624 1.478 . S
C1626 C1628 1.381 . S
C1626 C1632 1.383 . S
C1627 C1623 1.495 . S
C1627 H1633 0.959 . S
C1627 H1634 0.961 . S
C1627 H1635 0.960 . S
C1628 C1626 1.381 . S
C1628 C1629 1.394 . S
C1628 H1636 0.930 . S
C1629 C1628 1.394 . S
C1629 C1630 1.383 . S
C1629 H1637 0.929 . S
C1630 C1629 1.383 . S
C1630 C1631 1.377 . S
C1631 H1615 0.930 . S
C1631 C1630 1.377 . S
C1631 C1632 1.379 . S
C1632 H1616 0.931 . S
C1632 C1626 1.383 . S
C1632 C1631 1.379 . S
H1633 C1627 0.959 . S
H1634 C1627 0.961 . S
H1635 C1627 0.960 . S
H1636 C1628 0.930 . S
H1637 C1629 0.929 . S
H1638 C1646 0.929 . S
H1639 C1648 0.930 . S
H1640 C1650 0.930 . S
H1641 C1653 0.929 . S
H1642 C1656 0.930 . S
H1643 C1658 0.960 . S
H1644 C1658 0.960 . S
H1645 C1658 0.960 . S
C1646 H1638 0.929 . S
C1646 C1647 1.377 . S
C1646 C1648 1.384 . S
C1647 C1646 1.377 . S
C1647 C1653 1.390 . S
C1648 H1639 0.930 . S
C1648 C1646 1.384 . S
C1648 C1649 1.372 . S
C1649 C1648 1.372 . S
C1649 C1650 1.400 . S
C1649 C1654 1.490 . S
C1650 H1640 0.930 . S
C1650 C1649 1.400 . S
C1650 C1653 1.386 . S
H1651 C1667 0.930 . S
H1652 C1668 0.931 . S
C1653 H1641 0.929 . S
C1653 C1647 1.390 . S
C1653 C1650 1.386 . S
C1654 C1649 1.490 . S
C1654 C1656 1.395 . S
C1654 C1657 1.403 . S
H1655 C1661 0.930 . S
C1656 H1642 0.930 . S
C1656 C1654 1.395 . S
C1656 C1659 1.403 . S
C1657 C1654 1.403 . S
C1657 C1658 1.524 . S
C1657 C1661 1.400 . S
C1658 H1643 0.960 . S
C1658 H1644 0.960 . S
C1658 H1645 0.960 . S
C1658 C1657 1.524 . S
C1659 C1656 1.403 . S
C1659 C1660 1.392 . S
C1659 C1663 1.495 . S
C1660 C1659 1.392 . S
C1660 C1661 1.385 . S
C1660 C1662 1.478 . S
C1661 H1655 0.930 . S
C1661 C1657 1.400 . S
C1661 C1660 1.385 . S
C1662 C1660 1.478 . S
C1662 C1664 1.381 . S
C1662 C1668 1.383 . S
C1663 C1659 1.495 . S
C1663 H1669 0.959 . S
C1663 H1670 0.961 . S
C1663 H1671 0.960 . S
C1664 C1662 1.381 . S
C1664 C1665 1.394 . S
C1664 H1672 0.930 . S
C1665 C1664 1.394 . S
C1665 C1666 1.383 . S
C1665 H1673 0.929 . S
C1666 C1665 1.383 . S
C1666 C1667 1.377 . S
C1667 H1651 0.930 . S
C1667 C1666 1.377 . S
C1667 C1668 1.379 . S
C1668 H1652 0.931 . S
C1668 C1662 1.383 . S
C1668 C1667 1.379 . S
H1669 C1663 0.959 . S
H1670 C1663 0.961 . S
H1671 C1663 0.960 . S
H1672 C1664 0.930 . S
H1673 C1665 0.929 . S
H1674 C1682 0.929 . S
H1675 C1684 0.930 . S
H1676 C1686 0.930 . S
H1677 C1689 0.929 . S
H1678 C1692 0.930 . S
H1679 C1694 0.960 . S
H1680 C1694 0.960 . S
H1681 C1694 0.960 . S
C1682 H1674 0.929 . S
C1682 C1683 1.377 . S
C1682 C1684 1.384 . S
C1683 C1682 1.377 . S
C1683 C1689 1.390 . S
C1684 H1675 0.930 . S
C1684 C1682 1.384 . S
C1684 C1685 1.372 . S
C1685 C1684 1.372 . S
C1685 C1686 1.400 . S
C1685 C1690 1.490 . S
C1686 H1676 0.930 . S
C1686 C1685 1.400 . S
C1686 C1689 1.386 . S
H1687 C1703 0.930 . S
H1688 C1704 0.931 . S
C1689 H1677 0.929 . S
C1689 C1683 1.390 . S
C1689 C1686 1.386 . S
C1690 C1685 1.490 . S
C1690 C1692 1.395 . S
C1690 C1693 1.403 . S
H1691 C1697 0.930 . S
C1692 H1678 0.930 . S
C1692 C1690 1.395 . S
C1692 C1695 1.403 . S
C1693 C1690 1.403 . S
C1693 C1694 1.524 . S
C1693 C1697 1.400 . S
C1694 H1679 0.960 . S
C1694 H1680 0.960 . S
C1694 H1681 0.960 . S
C1694 C1693 1.524 . S
C1695 C1692 1.403 . S
C1695 C1696 1.392 . S
C1695 C1699 1.495 . S
C1696 C1695 1.392 . S
C1696 C1697 1.385 . S
C1696 C1698 1.478 . S
C1697 H1691 0.930 . S
C1697 C1693 1.400 . S
C1697 C1696 1.385 . S
C1698 C1696 1.478 . S
C1698 C1700 1.381 . S
C1698 C1704 1.383 . S
C1699 C1695 1.495 . S
C1699 H1705 0.959 . S
C1699 H1706 0.961 . S
C1699 H1707 0.960 . S
C1700 C1698 1.381 . S
C1700 C1701 1.394 . S
C1700 H1708 0.930 . S
C1701 C1700 1.394 . S
C1701 C1702 1.383 . S
C1701 H1709 0.929 . S
C1702 C1701 1.383 . S
C1702 C1703 1.377 . S
C1703 H1687 0.930 . S
C1703 C1702 1.377 . S
C1703 C1704 1.379 . S
C1704 H1688 0.931 . S
C1704 C1698 1.383 . S
C1704 C1703 1.379 . S
H1705 C1699 0.959 . S
H1706 C1699 0.961 . S
H1707 C1699 0.960 . S
H1708 C1700 0.930 . S
H1709 C1701 0.929 . S
H1710 C1718 0.929 . S
H1711 C1720 0.930 . S
H1712 C1722 0.930 . S
H1713 C1725 0.929 . S
H1714 C1728 0.930 . S
H1715 C1730 0.960 . S
H1716 C1730 0.960 . S
H1717 C1730 0.960 . S
C1718 H1710 0.929 . S
C1718 C1719 1.377 . S
C1718 C1720 1.384 . S
C1719 C1718 1.377 . S
C1719 C1725 1.390 . S
C1720 H1711 0.930 . S
C1720 C1718 1.384 . S
C1720 C1721 1.372 . S
C1721 C1720 1.372 . S
C1721 C1722 1.400 . S
C1721 C1726 1.490 . S
C1722 H1712 0.930 . S
C1722 C1721 1.400 . S
C1722 C1725 1.386 . S
H1723 C1739 0.930 . S
H1724 C1740 0.931 . S
C1725 H1713 0.929 . S
C1725 C1719 1.390 . S
C1725 C1722 1.386 . S
C1726 C1721 1.490 . S
C1726 C1728 1.395 . S
C1726 C1729 1.403 . S
H1727 C1733 0.930 . S
C1728 H1714 0.930 . S
C1728 C1726 1.395 . S
C1728 C1731 1.403 . S
C1729 C1726 1.403 . S
C1729 C1730 1.524 . S
C1729 C1733 1.400 . S
C1730 H1715 0.960 . S
C1730 H1716 0.960 . S
C1730 H1717 0.960 . S
C1730 C1729 1.524 . S
C1731 C1728 1.403 . S
C1731 C1732 1.392 . S
C1731 C1735 1.495 . S
C1732 C1731 1.392 . S
C1732 C1733 1.385 . S
C1732 C1734 1.478 . S
C1733 H1727 0.930 . S
C1733 C1729 1.400 . S
C1733 C1732 1.385 . S
C1734 C1732 1.478 . S
C1734 C1736 1.381 . S
C1734 C1740 1.383 . S
C1735 C1731 1.495 . S
C1735 H1741 0.959 . S
C1735 H1742 0.961 . S
C1735 H1743 0.960 . S
C1736 C1734 1.381 . S
C1736 C1737 1.394 . S
C1736 H1744 0.930 . S
C1737 C1736 1.394 . S
C1737 C1738 1.383 . S
C1737 H1745 0.929 . S
C1738 C1737 1.383 . S
C1738 C1739 1.377 . S
C1739 H1723 0.930 . S
C1739 C1738 1.377 . S
C1739 C1740 1.379 . S
C1740 H1724 0.931 . S
C1740 C1734 1.383 . S
C1740 C1739 1.379 . S
H1741 C1735 0.959 . S
H1742 C1735 0.961 . S
H1743 C1735 0.960 . S
H1744 C1736 0.930 . S
H1745 C1737 0.929 . S
H1746 C1754 0.929 . S
H1747 C1756 0.930 . S
H1748 C1758 0.930 . S
H1749 C1761 0.929 . S
H1750 C1764 0.930 . S
H1751 C1766 0.960 . S
H1752 C1766 0.960 . S
H1753 C1766 0.960 . S
C1754 H1746 0.929 . S
C1754 C1755 1.377 . S
C1754 C1756 1.384 . S
C1755 C1754 1.377 . S
C1755 C1761 1.390 . S
C1756 H1747 0.930 . S
C1756 C1754 1.384 . S
C1756 C1757 1.372 . S
C1757 C1756 1.372 . S
C1757 C1758 1.400 . S
C1757 C1762 1.490 . S
C1758 H1748 0.930 . S
C1758 C1757 1.400 . S
C1758 C1761 1.386 . S
H1759 C1775 0.930 . S
H1760 C1776 0.931 . S
C1761 H1749 0.929 . S
C1761 C1755 1.390 . S
C1761 C1758 1.386 . S
C1762 C1757 1.490 . S
C1762 C1764 1.395 . S
C1762 C1765 1.403 . S
H1763 C1769 0.930 . S
C1764 H1750 0.930 . S
C1764 C1762 1.395 . S
C1764 C1767 1.403 . S
C1765 C1762 1.403 . S
C1765 C1766 1.524 . S
C1765 C1769 1.400 . S
C1766 H1751 0.960 . S
C1766 H1752 0.960 . S
C1766 H1753 0.960 . S
C1766 C1765 1.524 . S
C1767 C1764 1.403 . S
C1767 C1768 1.392 . S
C1767 C1771 1.495 . S
C1768 C1767 1.392 . S
C1768 C1769 1.385 . S
C1768 C1770 1.478 . S
C1769 H1763 0.930 . S
C1769 C1765 1.400 . S
C1769 C1768 1.385 . S
C1770 C1768 1.478 . S
C1770 C1772 1.381 . S
C1770 C1776 1.383 . S
C1771 C1767 1.495 . S
C1771 H1777 0.959 . S
C1771 H1778 0.961 . S
C1771 H1779 0.960 . S
C1772 C1770 1.381 . S
C1772 C1773 1.394 . S
C1772 H1780 0.930 . S
C1773 C1772 1.394 . S
C1773 C1774 1.383 . S
C1773 H1781 0.929 . S
C1774 C1773 1.383 . S
C1774 C1775 1.377 . S
C1775 H1759 0.930 . S
C1775 C1774 1.377 . S
C1775 C1776 1.379 . S
C1776 H1760 0.931 . S
C1776 C1770 1.383 . S
C1776 C1775 1.379 . S
H1777 C1771 0.959 . S
H1778 C1771 0.961 . S
H1779 C1771 0.960 . S
H1780 C1772 0.930 . S
H1781 C1773 0.929 . S
H1782 C1790 0.929 . S
H1783 C1792 0.930 . S
H1784 C1794 0.930 . S
H1785 C1797 0.929 . S
H1786 C1800 0.930 . S
H1787 C1802 0.960 . S
H1788 C1802 0.960 . S
H1789 C1802 0.960 . S
C1790 H1782 0.929 . S
C1790 C1791 1.377 . S
C1790 C1792 1.384 . S
C1791 C1790 1.377 . S
C1791 C1797 1.390 . S
C1792 H1783 0.930 . S
C1792 C1790 1.384 . S
C1792 C1793 1.372 . S
C1793 C1792 1.372 . S
C1793 C1794 1.400 . S
C1793 C1798 1.490 . S
C1794 H1784 0.930 . S
C1794 C1793 1.400 . S
C1794 C1797 1.386 . S
H1795 C1811 0.930 . S
H1796 C1812 0.931 . S
C1797 H1785 0.929 . S
C1797 C1791 1.390 . S
C1797 C1794 1.386 . S
C1798 C1793 1.490 . S
C1798 C1800 1.395 . S
C1798 C1801 1.403 . S
H1799 C1805 0.930 . S
C1800 H1786 0.930 . S
C1800 C1798 1.395 . S
C1800 C1803 1.403 . S
C1801 C1798 1.403 . S
C1801 C1802 1.524 . S
C1801 C1805 1.400 . S
C1802 H1787 0.960 . S
C1802 H1788 0.960 . S
C1802 H1789 0.960 . S
C1802 C1801 1.524 . S
C1803 C1800 1.403 . S
C1803 C1804 1.392 . S
C1803 C1807 1.495 . S
C1804 C1803 1.392 . S
C1804 C1805 1.385 . S
C1804 C1806 1.478 . S
C1805 H1799 0.930 . S
C1805 C1801 1.400 . S
C1805 C1804 1.385 . S
C1806 C1804 1.478 . S
C1806 C1808 1.381 . S
C1806 C1812 1.383 . S
C1807 C1803 1.495 . S
C1807 H1813 0.959 . S
C1807 H1814 0.961 . S
C1807 H1815 0.960 . S
C1808 C1806 1.381 . S
C1808 C1809 1.394 . S
C1808 H1816 0.930 . S
C1809 C1808 1.394 . S
C1809 C1810 1.383 . S
C1809 H1817 0.929 . S
C1810 C1809 1.383 . S
C1810 C1811 1.377 . S
C1811 H1795 0.930 . S
C1811 C1810 1.377 . S
C1811 C1812 1.379 . S
C1812 H1796 0.931 . S
C1812 C1806 1.383 . S
C1812 C1811 1.379 . S
H1813 C1807 0.959 . S
H1814 C1807 0.961 . S
H1815 C1807 0.960 . S
H1816 C1808 0.930 . S
H1817 C1809 0.929 . S
H1818 C1826 0.929 . S
H1819 C1828 0.930 . S
H1820 C1830 0.930 . S
H1821 C1833 0.929 . S
H1822 C1836 0.930 . S
H1823 C1838 0.960 . S
H1824 C1838 0.960 . S
H1825 C1838 0.960 . S
C1826 H1818 0.929 . S
C1826 C1827 1.377 . S
C1826 C1828 1.384 . S
C1827 C1826 1.377 . S
C1827 C1833 1.390 . S
C1828 H1819 0.930 . S
C1828 C1826 1.384 . S
C1828 C1829 1.372 . S
C1829 C1828 1.372 . S
C1829 C1830 1.400 . S
C1829 C1834 1.490 . S
C1830 H1820 0.930 . S
C1830 C1829 1.400 . S
C1830 C1833 1.386 . S
H1831 C1847 0.930 . S
H1832 C1848 0.931 . S
C1833 H1821 0.929 . S
C1833 C1827 1.390 . S
C1833 C1830 1.386 . S
C1834 C1829 1.490 . S
C1834 C1836 1.395 . S
C1834 C1837 1.403 . S
H1835 C1841 0.930 . S
C1836 H1822 0.930 . S
C1836 C1834 1.395 . S
C1836 C1839 1.403 . S
C1837 C1834 1.403 . S
C1837 C1838 1.524 . S
C1837 C1841 1.400 . S
C1838 H1823 0.960 . S
C1838 H1824 0.960 . S
C1838 H1825 0.960 . S
C1838 C1837 1.524 . S
C1839 C1836 1.403 . S
C1839 C1840 1.392 . S
C1839 C1843 1.495 . S
C1840 C1839 1.392 . S
C1840 C1841 1.385 . S
C1840 C1842 1.478 . S
C1841 H1835 0.930 . S
C1841 C1837 1.400 . S
C1841 C1840 1.385 . S
C1842 C1840 1.478 . S
C1842 C1844 1.381 . S
C1842 C1848 1.383 . S
C1843 C1839 1.495 . S
C1843 H1849 0.959 . S
C1843 H1850 0.961 . S
C1843 H1851 0.960 . S
C1844 C1842 1.381 . S
C1844 C1845 1.394 . S
C1844 H1852 0.930 . S
C1845 C1844 1.394 . S
C1845 C1846 1.383 . S
C1845 H1853 0.929 . S
C1846 C1845 1.383 . S
C1846 C1847 1.377 . S
C1847 H1831 0.930 . S
C1847 C1846 1.377 . S
C1847 C1848 1.379 . S
C1848 H1832 0.931 . S
C1848 C1842 1.383 . S
C1848 C1847 1.379 . S
H1849 C1843 0.959 . S
H1850 C1843 0.961 . S
H1851 C1843 0.960 . S
H1852 C1844 0.930 . S
H1853 C1845 0.929 . S
H1854 C1862 0.929 . S
H1855 C1864 0.930 . S
H1856 C1866 0.930 . S
H1857 C1869 0.929 . S
H1858 C1872 0.930 . S
H1859 C1874 0.960 . S
H1860 C1874 0.960 . S
H1861 C1874 0.960 . S
C1862 H1854 0.929 . S
C1862 C1863 1.377 . S
C1862 C1864 1.384 . S
C1863 C1862 1.377 . S
C1863 C1869 1.390 . S
C1864 H1855 0.930 . S
C1864 C1862 1.384 . S
C1864 C1865 1.372 . S
C1865 C1864 1.372 . S
C1865 C1866 1.400 . S
C1865 C1870 1.490 . S
C1866 H1856 0.930 . S
C1866 C1865 1.400 . S
C1866 C1869 1.386 . S
H1867 C1883 0.930 . S
H1868 C1884 0.931 . S
C1869 H1857 0.929 . S
C1869 C1863 1.390 . S
C1869 C1866 1.386 . S
C1870 C1865 1.490 . S
C1870 C1872 1.395 . S
C1870 C1873 1.403 . S
H1871 C1877 0.930 . S
C1872 H1858 0.930 . S
C1872 C1870 1.395 . S
C1872 C1875 1.403 . S
C1873 C1870 1.403 . S
C1873 C1874 1.524 . S
C1873 C1877 1.400 . S
C1874 H1859 0.960 . S
C1874 H1860 0.960 . S
C1874 H1861 0.960 . S
C1874 C1873 1.524 . S
C1875 C1872 1.403 . S
C1875 C1876 1.392 . S
C1875 C1879 1.495 . S
C1876 C1875 1.392 . S
C1876 C1877 1.385 . S
C1876 C1878 1.478 . S
C1877 H1871 0.930 . S
C1877 C1873 1.400 . S
C1877 C1876 1.385 . S
C1878 C1876 1.478 . S
C1878 C1880 1.381 . S
C1878 C1884 1.383 . S
C1879 C1875 1.495 . S
C1879 H1885 0.959 . S
C1879 H1886 0.961 . S
C1879 H1887 0.960 . S
C1880 C1878 1.381 . S
C1880 C1881 1.394 . S
C1880 H1888 0.930 . S
C1881 C1880 1.394 . S
C1881 C1882 1.383 . S
C1881 H1889 0.929 . S
C1882 C1881 1.383 . S
C1882 C1883 1.377 . S
C1883 H1867 0.930 . S
C1883 C1882 1.377 . S
C1883 C1884 1.379 . S
C1884 H1868 0.931 . S
C1884 C1878 1.383 . S
C1884 C1883 1.379 . S
H1885 C1879 0.959 . S
H1886 C1879 0.961 . S
H1887 C1879 0.960 . S
H1888 C1880 0.930 . S
H1889 C1881 0.929 . S
H1890 C1898 0.929 . S
H1891 C1900 0.930 . S
H1892 C1902 0.930 . S
H1893 C1905 0.929 . S
H1894 C1908 0.930 . S
H1895 C1910 0.960 . S
H1896 C1910 0.960 . S
H1897 C1910 0.960 . S
C1898 H1890 0.929 . S
C1898 C1899 1.377 . S
C1898 C1900 1.384 . S
C1899 C1898 1.377 . S
C1899 C1905 1.390 . S
C1900 H1891 0.930 . S
C1900 C1898 1.384 . S
C1900 C1901 1.372 . S
C1901 C1900 1.372 . S
C1901 C1902 1.400 . S
C1901 C1906 1.490 . S
C1902 H1892 0.930 . S
C1902 C1901 1.400 . S
C1902 C1905 1.386 . S
H1903 C1919 0.930 . S
H1904 C1920 0.931 . S
C1905 H1893 0.929 . S
C1905 C1899 1.390 . S
C1905 C1902 1.386 . S
C1906 C1901 1.490 . S
C1906 C1908 1.395 . S
C1906 C1909 1.403 . S
H1907 C1913 0.930 . S
C1908 H1894 0.930 . S
C1908 C1906 1.395 . S
C1908 C1911 1.403 . S
C1909 C1906 1.403 . S
C1909 C1910 1.524 . S
C1909 C1913 1.400 . S
C1910 H1895 0.960 . S
C1910 H1896 0.960 . S
C1910 H1897 0.960 . S
C1910 C1909 1.524 . S
C1911 C1908 1.403 . S
C1911 C1912 1.392 . S
C1911 C1915 1.495 . S
C1912 C1911 1.392 . S
C1912 C1913 1.385 . S
C1912 C1914 1.478 . S
C1913 H1907 0.930 . S
C1913 C1909 1.400 . S
C1913 C1912 1.385 . S
C1914 C1912 1.478 . S
C1914 C1916 1.381 . S
C1914 C1920 1.383 . S
C1915 C1911 1.495 . S
C1915 H1921 0.959 . S
C1915 H1922 0.961 . S
C1915 H1923 0.960 . S
C1916 C1914 1.381 . S
C1916 C1917 1.394 . S
C1916 H1924 0.930 . S
C1917 C1916 1.394 . S
C1917 C1918 1.383 . S
C1917 H1925 0.929 . S
C1918 C1917 1.383 . S
C1918 C1919 1.377 . S
C1919 H1903 0.930 . S
C1919 C1918 1.377 . S
C1919 C1920 1.379 . S
C1920 H1904 0.931 . S
C1920 C1914 1.383 . S
C1920 C1919 1.379 . S
H1921 C1915 0.959 . S
H1922 C1915 0.961 . S
H1923 C1915 0.960 . S
H1924 C1916 0.930 . S
H1925 C1917 0.929 . S
H1926 C1934 0.929 1_556 S
H1927 C1936 0.930 . S
H1928 C1938 0.930 . S
H1929 C1941 0.929 . S
H1930 C1944 0.930 . S
H1931 C1946 0.960 . S
H1932 C1946 0.960 . S
H1933 C1946 0.960 . S
C1934 H1926 0.929 1_554 S
C1934 C1935 1.377 . S
C1934 C1936 1.384 . S
C1935 C1934 1.377 . S
C1935 C1941 1.390 . S
C1936 H1927 0.930 . S
C1936 C1934 1.384 . S
C1936 C1937 1.372 . S
C1937 C1936 1.372 . S
C1937 C1938 1.400 . S
C1937 C1942 1.490 . S
C1938 H1928 0.930 . S
C1938 C1937 1.400 . S
C1938 C1941 1.386 . S
H1939 C1955 0.930 . S
H1940 C1956 0.931 . S
C1941 H1929 0.929 . S
C1941 C1935 1.390 . S
C1941 C1938 1.386 . S
C1942 C1937 1.490 . S
C1942 C1944 1.395 . S
C1942 C1945 1.403 . S
H1943 C1949 0.930 . S
C1944 H1930 0.930 . S
C1944 C1942 1.395 . S
C1944 C1947 1.403 . S
C1945 C1942 1.403 . S
C1945 C1946 1.524 . S
C1945 C1949 1.400 . S
C1946 H1931 0.960 . S
C1946 H1932 0.960 . S
C1946 H1933 0.960 . S
C1946 C1945 1.524 . S
C1947 C1944 1.403 . S
C1947 C1948 1.392 . S
C1947 C1951 1.495 . S
C1948 C1947 1.392 . S
C1948 C1949 1.385 . S
C1948 C1950 1.478 . S
C1949 H1943 0.930 . S
C1949 C1945 1.400 . S
C1949 C1948 1.385 . S
C1950 C1948 1.478 . S
C1950 C1952 1.381 . S
C1950 C1956 1.383 . S
C1951 C1947 1.495 . S
C1951 H1957 0.959 . S
C1951 H1958 0.961 . S
C1951 H1959 0.960 . S
C1952 C1950 1.381 . S
C1952 C1953 1.394 . S
C1952 H1960 0.930 . S
C1953 C1952 1.394 . S
C1953 C1954 1.383 . S
C1953 H1961 0.929 . S
C1954 C1953 1.383 . S
C1954 C1955 1.377 . S
C1955 H1939 0.930 . S
C1955 C1954 1.377 . S
C1955 C1956 1.379 . S
C1956 H1940 0.931 . S
C1956 C1950 1.383 . S
C1956 C1955 1.379 . S
H1957 C1951 0.959 . S
H1958 C1951 0.961 . S
H1959 C1951 0.960 . S
H1960 C1952 0.930 . S
H1961 C1953 0.929 . S
H1962 C1970 0.907 1_556 S
H1963 C1972 0.930 . S
H1964 C1974 0.930 . S
H1965 C1977 0.929 . S
H1966 C1980 0.930 . S
H1967 C1982 0.960 . S
H1968 C1982 0.960 . S
H1969 C1982 0.960 . S
C1970 H1962 0.907 1_554 S
C1970 C1971 1.377 . S
C1970 C1972 1.384 . S
C1971 C1970 1.377 . S
C1971 C1977 1.390 . S
C1972 H1963 0.930 . S
C1972 C1970 1.384 . S
C1972 C1973 1.372 . S
C1973 C1972 1.372 . S
C1973 C1974 1.400 . S
C1973 C1978 1.490 . S
C1974 H1964 0.930 . S
C1974 C1973 1.400 . S
C1974 C1977 1.386 . S
H1975 C1991 0.930 . S
H1976 C1992 0.931 . S
C1977 H1965 0.929 . S
C1977 C1971 1.390 . S
C1977 C1974 1.386 . S
C1978 C1973 1.490 . S
C1978 C1980 1.395 . S
C1978 C1981 1.403 . S
H1979 C1985 0.930 . S
C1980 H1966 0.930 . S
C1980 C1978 1.395 . S
C1980 C1983 1.403 . S
C1981 C1978 1.403 . S
C1981 C1982 1.524 . S
C1981 C1985 1.400 . S
C1982 H1967 0.960 . S
C1982 H1968 0.960 . S
C1982 H1969 0.960 . S
C1982 C1981 1.524 . S
C1983 C1980 1.403 . S
C1983 C1984 1.392 . S
C1983 C1987 1.495 . S
C1984 C1983 1.392 . S
C1984 C1985 1.385 . S
C1984 C1986 1.478 . S
C1985 H1979 0.930 . S
C1985 C1981 1.400 . S
C1985 C1984 1.385 . S
C1986 C1984 1.478 . S
C1986 C1988 1.381 . S
C1986 C1992 1.383 . S
C1987 C1983 1.495 . S
C1987 H1993 0.959 . S
C1987 H1994 0.961 . S
C1987 H1995 0.960 . S
C1988 C1986 1.381 . S
C1988 C1989 1.394 . S
C1988 H1996 0.930 . S
C1989 C1988 1.394 . S
C1989 C1990 1.383 . S
C1989 H1997 0.929 . S
C1990 C1989 1.383 . S
C1990 C1991 1.377 . S
C1991 H1975 0.930 . S
C1991 C1990 1.377 . S
C1991 C1992 1.379 . S
C1992 H1976 0.931 . S
C1992 C1986 1.383 . S
C1992 C1991 1.379 . S
H1993 C1987 0.959 . S
H1994 C1987 0.961 . S
H1995 C1987 0.960 . S
H1996 C1988 0.930 . S
H1997 C1989 0.929 . S
H1998 C2006 0.929 . S
H1999 C2008 0.930 . S
H2000 C2010 0.930 . S
H2001 C2013 0.929 1_556 S
H2002 C2016 0.930 . S
H2003 C2018 0.960 . S
H2004 C2018 0.960 . S
H2005 C2018 0.960 . S
C2006 H1998 0.929 . S
C2006 C2007 1.377 . S
C2006 C2008 1.384 . S
C2007 C2006 1.377 . S
C2007 C2013 1.390 . S
C2008 H1999 0.930 . S
C2008 C2006 1.384 . S
C2008 C2009 1.372 . S
C2009 C2008 1.372 . S
C2009 C2010 1.400 . S
C2009 C2014 1.490 . S
C2010 H2000 0.930 . S
C2010 C2009 1.400 . S
C2010 C2013 1.386 . S
H2011 C2027 0.930 . S
H2012 C2028 0.931 . S
C2013 H2001 0.929 1_554 S
C2013 C2007 1.390 . S
C2013 C2010 1.386 . S
C2014 C2009 1.490 . S
C2014 C2016 1.395 . S
C2014 C2017 1.403 . S
H2015 C2021 0.930 . S
C2016 H2002 0.930 . S
C2016 C2014 1.395 . S
C2016 C2019 1.403 . S
C2017 C2014 1.403 . S
C2017 C2018 1.524 . S
C2017 C2021 1.400 . S
C2018 H2003 0.960 . S
C2018 H2004 0.960 . S
C2018 H2005 0.960 . S
C2018 C2017 1.524 . S
C2019 C2016 1.403 . S
C2019 C2020 1.392 . S
C2019 C2023 1.495 . S
C2020 C2019 1.392 . S
C2020 C2021 1.385 . S
C2020 C2022 1.478 . S
C2021 H2015 0.930 . S
C2021 C2017 1.400 . S
C2021 C2020 1.385 . S
C2022 C2020 1.478 . S
C2022 C2024 1.381 . S
C2022 C2028 1.383 . S
C2023 C2019 1.495 . S
C2023 H2029 0.959 . S
C2023 H2030 0.961 . S
C2023 H2031 0.960 . S
C2024 C2022 1.381 . S
C2024 C2025 1.394 . S
C2024 H2032 0.930 . S
C2025 C2024 1.394 . S
C2025 C2026 1.383 . S
C2025 H2033 0.929 . S
C2026 C2025 1.383 . S
C2026 C2027 1.377 . S
C2027 H2011 0.930 . S
C2027 C2026 1.377 . S
C2027 C2028 1.379 . S
C2028 H2012 0.931 . S
C2028 C2022 1.383 . S
C2028 C2027 1.379 . S
H2029 C2023 0.959 . S
H2030 C2023 0.961 . S
H2031 C2023 0.960 . S
H2032 C2024 0.930 . S
H2033 C2025 0.929 . S
H2034 C2042 0.929 1_554 S
H2035 C2044 0.930 . S
H2036 C2046 0.930 . S
H2037 C2049 0.929 . S
H2038 C2052 0.930 . S
H2039 C2054 0.960 . S
H2040 C2054 0.960 1_554 S
H2041 C2054 0.960 . S
C2042 H2034 0.929 1_556 S
C2042 C2043 1.377 . S
C2042 C2044 1.384 . S
C2043 C2042 1.377 . S
C2043 C2049 1.390 . S
C2044 H2035 0.930 . S
C2044 C2042 1.384 . S
C2044 C2045 1.372 . S
C2045 C2044 1.372 . S
C2045 C2046 1.400 . S
C2045 C2050 1.490 . S
C2046 H2036 0.930 . S
C2046 C2045 1.400 . S
C2046 C2049 1.386 . S
H2047 C2063 0.930 . S
H2048 C2064 0.931 . S
C2049 H2037 0.929 . S
C2049 C2043 1.390 . S
C2049 C2046 1.386 . S
C2050 C2045 1.490 . S
C2050 C2052 1.395 . S
C2050 C2053 1.403 . S
H2051 C2057 0.930 . S
C2052 H2038 0.930 . S
C2052 C2050 1.395 . S
C2052 C2055 1.403 . S
C2053 C2050 1.403 . S
C2053 C2054 1.524 . S
C2053 C2057 1.400 . S
C2054 H2039 0.960 . S
C2054 H2040 0.960 1_556 S
C2054 H2041 0.960 . S
C2054 C2053 1.524 . S
C2055 C2052 1.403 . S
C2055 C2056 1.392 . S
C2055 C2059 1.495 . S
C2056 C2055 1.392 . S
C2056 C2057 1.385 . S
C2056 C2058 1.478 . S
C2057 H2051 0.930 . S
C2057 C2053 1.400 . S
C2057 C2056 1.385 . S
C2058 C2056 1.478 . S
C2058 C2060 1.381 . S
C2058 C2064 1.383 . S
C2059 C2055 1.495 . S
C2059 H2065 0.959 . S
C2059 H2066 0.961 . S
C2059 H2067 0.960 . S
C2060 C2058 1.381 . S
C2060 C2061 1.394 . S
C2060 H2068 0.930 . S
C2061 C2060 1.394 . S
C2061 C2062 1.383 . S
C2061 H2069 0.929 . S
C2062 C2061 1.383 . S
C2062 C2063 1.377 . S
C2063 H2047 0.930 . S
C2063 C2062 1.377 . S
C2063 C2064 1.379 . S
C2064 H2048 0.931 . S
C2064 C2058 1.383 . S
C2064 C2063 1.379 . S
H2065 C2059 0.959 . S
H2066 C2059 0.961 . S
H2067 C2059 0.960 . S
H2068 C2060 0.930 . S
H2069 C2061 0.929 . S
H2070 C2078 0.929 . S
H2071 C2080 0.930 1_554 S
H2072 C2082 0.930 . S
H2073 C2085 0.929 . S
H2074 C2088 0.930 . S
H2075 C2090 0.960 . S
H2076 C2090 0.960 . S
H2077 C2090 0.960 . S
C2078 H2070 0.929 . S
C2078 C2079 1.377 1_554 S
C2078 C2080 1.384 1_554 S
C2079 C2078 1.377 1_556 S
C2079 C2085 1.390 . S
C2080 H2071 0.930 1_556 S
C2080 C2078 1.384 1_556 S
C2080 C2081 1.372 . S
C2081 C2080 1.372 . S
C2081 C2082 1.400 . S
C2081 C2086 1.490 . S
C2082 H2072 0.930 . S
C2082 C2081 1.400 . S
C2082 C2085 1.386 . S
H2083 C2099 0.930 . S
H2084 C2100 0.931 . S
C2085 H2073 0.929 . S
C2085 C2079 1.390 . S
C2085 C2082 1.386 . S
C2086 C2081 1.490 . S
C2086 C2088 1.395 . S
C2086 C2089 1.403 . S
H2087 C2093 0.930 . S
C2088 H2074 0.930 . S
C2088 C2086 1.395 . S
C2088 C2091 1.403 . S
C2089 C2086 1.403 . S
C2089 C2090 1.524 . S
C2089 C2093 1.400 . S
C2090 H2075 0.960 . S
C2090 H2076 0.960 . S
C2090 H2077 0.960 . S
C2090 C2089 1.524 . S
C2091 C2088 1.403 . S
C2091 C2092 1.392 . S
C2091 C2095 1.495 . S
C2092 C2091 1.392 . S
C2092 C2093 1.385 . S
C2092 C2094 1.478 . S
C2093 H2087 0.930 . S
C2093 C2089 1.400 . S
C2093 C2092 1.385 . S
C2094 C2092 1.478 . S
C2094 C2096 1.381 . S
C2094 C2100 1.383 . S
C2095 C2091 1.495 . S
C2095 H2101 0.959 . S
C2095 H2102 0.961 . S
C2095 H2103 0.960 . S
C2096 C2094 1.381 . S
C2096 C2097 1.394 . S
C2096 H2104 0.930 . S
C2097 C2096 1.394 . S
C2097 C2098 1.383 . S
C2097 H2105 0.929 . S
C2098 C2097 1.383 . S
C2098 C2099 1.377 . S
C2099 H2083 0.930 . S
C2099 C2098 1.377 . S
C2099 C2100 1.379 . S
C2100 H2084 0.931 . S
C2100 C2094 1.383 . S
C2100 C2099 1.379 . S
H2101 C2095 0.959 . S
H2102 C2095 0.961 . S
H2103 C2095 0.960 . S
H2104 C2096 0.930 . S
H2105 C2097 0.929 . S
H2106 C2114 0.929 . S
H2107 C2116 0.930 . S
H2108 C2118 0.930 . S
H2109 C2121 0.929 . S
H2110 C2124 0.930 . S
H2111 C2126 0.960 . S
H2112 C2126 0.960 . S
H2113 C2126 0.960 . S
C2114 H2106 0.929 . S
C2114 C2115 1.377 . S
C2114 C2116 1.384 . S
C2115 C2114 1.377 . S
C2115 C2121 1.390 . S
C2116 H2107 0.930 . S
C2116 C2114 1.384 . S
C2116 C2117 1.372 . S
C2117 C2116 1.372 . S
C2117 C2118 1.400 . S
C2117 C2122 1.490 . S
C2118 H2108 0.930 . S
C2118 C2117 1.400 . S
C2118 C2121 1.386 . S
H2119 C2135 0.930 . S
H2120 C2136 0.931 . S
C2121 H2109 0.929 . S
C2121 C2115 1.390 . S
C2121 C2118 1.386 . S
C2122 C2117 1.490 . S
C2122 C2124 1.395 . S
C2122 C2125 1.403 . S
H2123 C2129 0.930 . S
C2124 H2110 0.930 . S
C2124 C2122 1.395 . S
C2124 C2127 1.403 . S
C2125 C2122 1.403 . S
C2125 C2126 1.524 . S
C2125 C2129 1.400 . S
C2126 H2111 0.960 . S
C2126 H2112 0.960 . S
C2126 H2113 0.960 . S
C2126 C2125 1.524 . S
C2127 C2124 1.403 . S
C2127 C2128 1.392 . S
C2127 C2131 1.495 . S
C2128 C2127 1.392 . S
C2128 C2129 1.385 . S
C2128 C2130 1.478 . S
C2129 H2123 0.930 . S
C2129 C2125 1.400 . S
C2129 C2128 1.385 . S
C2130 C2128 1.478 . S
C2130 C2132 1.381 . S
C2130 C2136 1.383 . S
C2131 C2127 1.495 . S
C2131 H2137 0.959 . S
C2131 H2138 0.961 . S
C2131 H2139 0.960 . S
C2132 C2130 1.381 . S
C2132 C2133 1.394 . S
C2132 H2140 0.930 . S
C2133 C2132 1.394 . S
C2133 C2134 1.383 . S
C2133 H2141 0.929 . S
C2134 C2133 1.383 . S
C2134 C2135 1.377 . S
C2135 H2119 0.930 . S
C2135 C2134 1.377 . S
C2135 C2136 1.379 . S
C2136 H2120 0.931 . S
C2136 C2130 1.383 . S
C2136 C2135 1.379 . S
H2137 C2131 0.959 . S
H2138 C2131 0.961 . S
H2139 C2131 0.960 . S
H2140 C2132 0.930 . S
H2141 C2133 0.929 . S
H2142 C2150 0.929 1_554 S
H2143 C2152 0.930 . S
H2144 C2154 0.930 . S
H2145 C2157 0.929 . S
H2146 C2160 0.930 . S
H2147 C2162 0.960 . S
H2148 C2162 0.960 . S
H2149 C2162 0.960 . S
C2150 H2142 0.929 1_556 S
C2150 C2151 1.377 . S
C2150 C2152 1.384 . S
C2151 C2150 1.377 . S
C2151 C2157 1.390 . S
C2152 H2143 0.930 . S
C2152 C2150 1.384 . S
C2152 C2153 1.372 . S
C2153 C2152 1.372 . S
C2153 C2154 1.400 . S
C2153 C2158 1.490 . S
C2154 H2144 0.930 . S
C2154 C2153 1.400 . S
C2154 C2157 1.386 . S
H2155 C2171 0.930 . S
H2156 C2172 0.931 . S
C2157 H2145 0.929 . S
C2157 C2151 1.390 . S
C2157 C2154 1.386 . S
C2158 C2153 1.490 . S
C2158 C2160 1.395 . S
C2158 C2161 1.403 . S
H2159 C2165 0.930 . S
C2160 H2146 0.930 . S
C2160 C2158 1.395 . S
C2160 C2163 1.403 . S
C2161 C2158 1.403 . S
C2161 C2162 1.524 . S
C2161 C2165 1.400 . S
C2162 H2147 0.960 . S
C2162 H2148 0.960 . S
C2162 H2149 0.960 . S
C2162 C2161 1.524 . S
C2163 C2160 1.403 . S
C2163 C2164 1.392 . S
C2163 C2167 1.495 . S
C2164 C2163 1.392 . S
C2164 C2165 1.385 . S
C2164 C2166 1.478 . S
C2165 H2159 0.930 . S
C2165 C2161 1.400 . S
C2165 C2164 1.385 . S
C2166 C2164 1.478 . S
C2166 C2168 1.381 . S
C2166 C2172 1.383 . S
C2167 C2163 1.495 . S
C2167 H2173 0.959 . S
C2167 H2174 0.961 . S
C2167 H2175 0.960 . S
C2168 C2166 1.381 . S
C2168 C2169 1.394 . S
C2168 H2176 0.930 . S
C2169 C2168 1.394 . S
C2169 C2170 1.383 . S
C2169 H2177 0.929 . S
C2170 C2169 1.383 . S
C2170 C2171 1.377 . S
C2171 H2155 0.930 . S
C2171 C2170 1.377 . S
C2171 C2172 1.379 . S
C2172 H2156 0.931 . S
C2172 C2166 1.383 . S
C2172 C2171 1.379 . S
H2173 C2167 0.959 . S
H2174 C2167 0.961 . S
H2175 C2167 0.960 . S
H2176 C2168 0.930 . S
H2177 C2169 0.929 . S
H2178 C2186 0.928 . S
H2179 C2188 0.930 . S
H2180 C2190 0.930 . S
H2181 C2193 0.929 . S
H2182 C2196 0.930 . S
H2183 C2198 0.960 . S
H2184 C2198 0.960 . S
H2185 C2198 0.960 . S
C2186 H2178 0.928 . S
C2186 C2187 1.378 1_554 S
C2186 C2188 1.384 1_554 S
C2187 C2186 1.378 1_556 S
C2187 C2193 1.390 . S
C2188 H2179 0.930 . S
C2188 C2186 1.384 1_556 S
C2188 C2189 1.372 . S
C2189 C2188 1.372 . S
C2189 C2190 1.400 . S
C2189 C2194 1.490 . S
C2190 H2180 0.930 . S
C2190 C2189 1.400 . S
C2190 C2193 1.386 . S
H2191 C2207 0.930 . S
H2192 C2208 0.931 . S
C2193 H2181 0.929 . S
C2193 C2187 1.390 . S
C2193 C2190 1.386 . S
C2194 C2189 1.490 . S
C2194 C2196 1.395 . S
C2194 C2197 1.403 . S
H2195 C2201 0.930 . S
C2196 H2182 0.930 . S
C2196 C2194 1.395 . S
C2196 C2199 1.403 . S
C2197 C2194 1.403 . S
C2197 C2198 1.524 . S
C2197 C2201 1.400 . S
C2198 H2183 0.960 . S
C2198 H2184 0.960 . S
C2198 H2185 0.960 . S
C2198 C2197 1.524 . S
C2199 C2196 1.403 . S
C2199 C2200 1.392 . S
C2199 C2203 1.495 . S
C2200 C2199 1.392 . S
C2200 C2201 1.385 . S
C2200 C2202 1.478 . S
C2201 H2195 0.930 . S
C2201 C2197 1.400 . S
C2201 C2200 1.385 . S
C2202 C2200 1.478 . S
C2202 C2204 1.381 . S
C2202 C2208 1.383 . S
C2203 C2199 1.495 . S
C2203 H2209 0.959 . S
C2203 H2210 0.961 . S
C2203 H2211 0.960 . S
C2204 C2202 1.381 . S
C2204 C2205 1.394 . S
C2204 H2212 0.930 . S
C2205 C2204 1.394 . S
C2205 C2206 1.383 . S
C2205 H2213 0.929 . S
C2206 C2205 1.383 . S
C2206 C2207 1.377 . S
C2207 H2191 0.930 . S
C2207 C2206 1.377 . S
C2207 C2208 1.379 . S
C2208 H2192 0.931 . S
C2208 C2202 1.383 . S
C2208 C2207 1.379 . S
H2209 C2203 0.959 . S
H2210 C2203 0.961 . S
H2211 C2203 0.960 . S
H2212 C2204 0.930 . S
H2213 C2205 0.929 . S
H2214 C2222 0.929 . S
H2215 C2224 0.930 . S
H2216 C2226 0.930 1_554 S
H2217 C2229 0.929 . S
H2218 C2232 0.930 . S
H2219 C2234 0.960 . S
H2220 C2234 0.960 . S
H2221 C2234 0.960 . S
C2222 H2214 0.929 . S
C2222 C2223 1.377 . S
C2222 C2224 1.384 . S
C2223 C2222 1.377 . S
C2223 C2229 1.390 1_556 S
C2224 H2215 0.930 . S
C2224 C2222 1.384 . S
C2224 C2225 1.372 . S
C2225 C2224 1.372 . S
C2225 C2226 1.400 . S
C2225 C2230 1.490 . S
C2226 H2216 0.930 1_556 S
C2226 C2225 1.400 . S
C2226 C2229 1.386 1_556 S
H2227 C2243 0.930 . S
H2228 C2244 0.931 . S
C2229 H2217 0.929 . S
C2229 C2223 1.390 1_554 S
C2229 C2226 1.386 1_554 S
C2230 C2225 1.490 . S
C2230 C2232 1.395 . S
C2230 C2233 1.403 . S
H2231 C2237 0.930 . S
C2232 H2218 0.930 . S
C2232 C2230 1.395 . S
C2232 C2235 1.403 . S
C2233 C2230 1.403 . S
C2233 C2234 1.524 . S
C2233 C2237 1.400 . S
C2234 H2219 0.960 . S
C2234 H2220 0.960 . S
C2234 H2221 0.960 . S
C2234 C2233 1.524 . S
C2235 C2232 1.403 . S
C2235 C2236 1.392 . S
C2235 C2239 1.495 . S
C2236 C2235 1.392 . S
C2236 C2237 1.385 . S
C2236 C2238 1.478 . S
C2237 H2231 0.930 . S
C2237 C2233 1.400 . S
C2237 C2236 1.385 . S
C2238 C2236 1.478 . S
C2238 C2240 1.381 . S
C2238 C2244 1.383 . S
C2239 C2235 1.495 . S
C2239 H2245 0.959 . S
C2239 H2246 0.961 . S
C2239 H2247 0.960 . S
C2240 C2238 1.381 . S
C2240 C2241 1.394 . S
C2240 H2248 0.930 . S
C2241 C2240 1.394 . S
C2241 C2242 1.383 . S
C2241 H2249 0.929 . S
C2242 C2241 1.383 . S
C2242 C2243 1.377 . S
C2243 H2227 0.930 . S
C2243 C2242 1.377 . S
C2243 C2244 1.379 . S
C2244 H2228 0.931 . S
C2244 C2238 1.383 . S
C2244 C2243 1.379 . S
H2245 C2239 0.959 . S
H2246 C2239 0.961 . S
H2247 C2239 0.960 . S
H2248 C2240 0.930 . S
H2249 C2241 0.929 . S
H2250 C2258 0.929 . S
H2251 C2260 0.930 . S
H2252 C2262 0.930 . S
H2253 C2265 0.929 . S
H2254 C2268 0.930 . S
H2255 C2270 0.960 . S
H2256 C2270 0.960 . S
H2257 C2270 0.960 . S
C2258 H2250 0.929 . S
C2258 C2259 1.377 . S
C2258 C2260 1.384 . S
C2259 C2258 1.377 . S
C2259 C2265 1.390 . S
C2260 H2251 0.930 . S
C2260 C2258 1.384 . S
C2260 C2261 1.372 . S
C2261 C2260 1.372 . S
C2261 C2262 1.400 . S
C2261 C2266 1.490 . S
C2262 H2252 0.930 . S
C2262 C2261 1.400 . S
C2262 C2265 1.386 . S
H2263 C2279 0.930 . S
H2264 C2280 0.931 . S
C2265 H2253 0.929 . S
C2265 C2259 1.390 . S
C2265 C2262 1.386 . S
C2266 C2261 1.490 . S
C2266 C2268 1.395 . S
C2266 C2269 1.403 . S
H2267 C2273 0.930 . S
C2268 H2254 0.930 . S
C2268 C2266 1.395 . S
C2268 C2271 1.403 . S
C2269 C2266 1.403 . S
C2269 C2270 1.524 . S
C2269 C2273 1.400 . S
C2270 H2255 0.960 . S
C2270 H2256 0.960 . S
C2270 H2257 0.960 . S
C2270 C2269 1.524 . S
C2271 C2268 1.403 . S
C2271 C2272 1.392 . S
C2271 C2275 1.495 . S
C2272 C2271 1.392 . S
C2272 C2273 1.385 . S
C2272 C2274 1.478 . S
C2273 H2267 0.930 . S
C2273 C2269 1.400 . S
C2273 C2272 1.385 . S
C2274 C2272 1.478 . S
C2274 C2276 1.381 . S
C2274 C2280 1.383 . S
C2275 C2271 1.495 . S
C2275 H2281 0.959 . S
C2275 H2282 0.961 . S
C2275 H2283 0.960 . S
C2276 C2274 1.381 . S
C2276 C2277 1.394 . S
C2276 H2284 0.930 . S
C2277 C2276 1.394 . S
C2277 C2278 1.383 . S
C2277 H2285 0.929 . S
C2278 C2277 1.383 . S
C2278 C2279 1.377 . S
C2279 H2263 0.930 . S
C2279 C2278 1.377 . S
C2279 C2280 1.379 . S
C2280 H2264 0.931 . S
C2280 C2274 1.383 . S
C2280 C2279 1.379 . S
H2281 C2275 0.959 . S
H2282 C2275 0.961 . S
H2283 C2275 0.960 . S
H2284 C2276 0.930 . S
H2285 C2277 0.929 . S
H2286 C2294 0.929 . S
H2287 C2296 0.930 . S
H2288 C2298 0.930 . S
H2289 C2301 0.929 . S
H2290 C2304 0.930 . S
H2291 C2306 0.960 . S
H2292 C2306 0.960 . S
H2293 C2306 0.960 . S
C2294 H2286 0.929 . S
C2294 C2295 1.377 . S
C2294 C2296 1.384 . S
C2295 C2294 1.377 . S
C2295 C2301 1.390 . S
C2296 H2287 0.930 . S
C2296 C2294 1.384 . S
C2296 C2297 1.372 . S
C2297 C2296 1.372 . S
C2297 C2298 1.400 . S
C2297 C2302 1.490 . S
C2298 H2288 0.930 . S
C2298 C2297 1.400 . S
C2298 C2301 1.386 . S
H2299 C2315 0.930 . S
H2300 C2316 0.931 . S
C2301 H2289 0.929 . S
C2301 C2295 1.390 . S
C2301 C2298 1.386 . S
C2302 C2297 1.490 . S
C2302 C2304 1.395 . S
C2302 C2305 1.403 . S
H2303 C2309 0.930 . S
C2304 H2290 0.930 . S
C2304 C2302 1.395 . S
C2304 C2307 1.403 . S
C2305 C2302 1.403 . S
C2305 C2306 1.524 . S
C2305 C2309 1.400 . S
C2306 H2291 0.960 . S
C2306 H2292 0.960 . S
C2306 H2293 0.960 . S
C2306 C2305 1.524 . S
C2307 C2304 1.403 . S
C2307 C2308 1.392 . S
C2307 C2311 1.495 . S
C2308 C2307 1.392 . S
C2308 C2309 1.385 . S
C2308 C2310 1.478 . S
C2309 H2303 0.930 . S
C2309 C2305 1.400 . S
C2309 C2308 1.385 . S
C2310 C2308 1.478 . S
C2310 C2312 1.381 . S
C2310 C2316 1.383 . S
C2311 C2307 1.495 . S
C2311 H2317 0.959 . S
C2311 H2318 0.961 . S
C2311 H2319 0.960 . S
C2312 C2310 1.381 . S
C2312 C2313 1.394 . S
C2312 H2320 0.930 . S
C2313 C2312 1.394 . S
C2313 C2314 1.383 . S
C2313 H2321 0.929 . S
C2314 C2313 1.383 . S
C2314 C2315 1.377 . S
C2315 H2299 0.930 . S
C2315 C2314 1.377 . S
C2315 C2316 1.379 . S
C2316 H2300 0.931 . S
C2316 C2310 1.383 . S
C2316 C2315 1.379 . S
H2317 C2311 0.959 . S
H2318 C2311 0.961 . S
H2319 C2311 0.960 . S
H2320 C2312 0.930 . S
H2321 C2313 0.929 . S
H2322 C2330 0.929 . S
H2323 C2332 0.930 . S
H2324 C2334 0.930 . S
H2325 C2337 0.929 . S
H2326 C2340 0.930 . S
H2327 C2342 0.960 . S
H2328 C2342 0.960 . S
H2329 C2342 0.960 . S
C2330 H2322 0.929 . S
C2330 C2331 1.377 . S
C2330 C2332 1.384 . S
C2331 C2330 1.377 . S
C2331 C2337 1.390 . S
C2332 H2323 0.930 . S
C2332 C2330 1.384 . S
C2332 C2333 1.372 . S
C2333 C2332 1.372 . S
C2333 C2334 1.400 . S
C2333 C2338 1.490 . S
C2334 H2324 0.930 . S
C2334 C2333 1.400 . S
C2334 C2337 1.386 . S
H2335 C2351 0.930 . S
H2336 C2352 0.931 . S
C2337 H2325 0.929 . S
C2337 C2331 1.390 . S
C2337 C2334 1.386 . S
C2338 C2333 1.490 . S
C2338 C2340 1.395 . S
C2338 C2341 1.403 . S
H2339 C2345 0.930 . S
C2340 H2326 0.930 . S
C2340 C2338 1.395 . S
C2340 C2343 1.403 . S
C2341 C2338 1.403 . S
C2341 C2342 1.524 . S
C2341 C2345 1.400 . S
C2342 H2327 0.960 . S
C2342 H2328 0.960 . S
C2342 H2329 0.960 . S
C2342 C2341 1.524 . S
C2343 C2340 1.403 . S
C2343 C2344 1.392 . S
C2343 C2347 1.495 . S
C2344 C2343 1.392 . S
C2344 C2345 1.385 . S
C2344 C2346 1.478 . S
C2345 H2339 0.930 . S
C2345 C2341 1.400 . S
C2345 C2344 1.385 . S
C2346 C2344 1.478 . S
C2346 C2348 1.381 . S
C2346 C2352 1.383 . S
C2347 C2343 1.495 . S
C2347 H2353 0.959 . S
C2347 H2354 0.961 . S
C2347 H2355 0.960 . S
C2348 C2346 1.381 . S
C2348 C2349 1.394 . S
C2348 H2356 0.930 . S
C2349 C2348 1.394 . S
C2349 C2350 1.383 . S
C2349 H2357 0.929 . S
C2350 C2349 1.383 . S
C2350 C2351 1.377 . S
C2351 H2335 0.930 . S
C2351 C2350 1.377 . S
C2351 C2352 1.379 . S
C2352 H2336 0.931 . S
C2352 C2346 1.383 . S
C2352 C2351 1.379 . S
H2353 C2347 0.959 . S
H2354 C2347 0.961 . S
H2355 C2347 0.960 . S
H2356 C2348 0.930 . S
H2357 C2349 0.929 . S
H2358 C2366 0.929 . S
H2359 C2368 0.930 . S
H2360 C2370 0.930 . S
H2361 C2373 0.929 . S
H2362 C2376 0.930 . S
H2363 C2378 0.960 . S
H2364 C2378 0.960 . S
H2365 C2378 0.960 . S
C2366 H2358 0.929 . S
C2366 C2367 1.377 . S
C2366 C2368 1.384 . S
C2367 C2366 1.377 . S
C2367 C2373 1.390 . S
C2368 H2359 0.930 . S
C2368 C2366 1.384 . S
C2368 C2369 1.372 . S
C2369 C2368 1.372 . S
C2369 C2370 1.400 . S
C2369 C2374 1.490 . S
C2370 H2360 0.930 . S
C2370 C2369 1.400 . S
C2370 C2373 1.386 . S
H2371 C2387 0.930 . S
H2372 C2388 0.931 . S
C2373 H2361 0.929 . S
C2373 C2367 1.390 . S
C2373 C2370 1.386 . S
C2374 C2369 1.490 . S
C2374 C2376 1.395 . S
C2374 C2377 1.403 . S
H2375 C2381 0.930 . S
C2376 H2362 0.930 . S
C2376 C2374 1.395 . S
C2376 C2379 1.403 . S
C2377 C2374 1.403 . S
C2377 C2378 1.524 . S
C2377 C2381 1.400 . S
C2378 H2363 0.960 . S
C2378 H2364 0.960 . S
C2378 H2365 0.960 . S
C2378 C2377 1.524 . S
C2379 C2376 1.403 . S
C2379 C2380 1.392 . S
C2379 C2383 1.495 . S
C2380 C2379 1.392 . S
C2380 C2381 1.385 . S
C2380 C2382 1.478 . S
C2381 H2375 0.930 . S
C2381 C2377 1.400 . S
C2381 C2380 1.385 . S
C2382 C2380 1.478 . S
C2382 C2384 1.381 . S
C2382 C2388 1.383 . S
C2383 C2379 1.495 . S
C2383 H2389 0.959 . S
C2383 H2390 0.961 . S
C2383 H2391 0.960 . S
C2384 C2382 1.381 . S
C2384 C2385 1.394 . S
C2384 H2392 0.930 . S
C2385 C2384 1.394 . S
C2385 C2386 1.383 . S
C2385 H2393 0.929 . S
C2386 C2385 1.383 . S
C2386 C2387 1.377 . S
C2387 H2371 0.930 . S
C2387 C2386 1.377 . S
C2387 C2388 1.379 . S
C2388 H2372 0.931 . S
C2388 C2382 1.383 . S
C2388 C2387 1.379 . S
H2389 C2383 0.959 . S
H2390 C2383 0.961 . S
H2391 C2383 0.960 . S
H2392 C2384 0.930 . S
H2393 C2385 0.929 . S
H2394 C2402 0.929 . S
H2395 C2404 0.930 . S
H2396 C2406 0.930 . S
H2397 C2409 0.929 . S
H2398 C2412 0.930 . S
H2399 C2414 0.960 . S
H2400 C2414 0.960 . S
H2401 C2414 0.960 . S
C2402 H2394 0.929 . S
C2402 C2403 1.377 . S
C2402 C2404 1.384 . S
C2403 C2402 1.377 . S
C2403 C2409 1.390 . S
C2404 H2395 0.930 . S
C2404 C2402 1.384 . S
C2404 C2405 1.372 . S
C2405 C2404 1.372 . S
C2405 C2406 1.400 . S
C2405 C2410 1.490 . S
C2406 H2396 0.930 . S
C2406 C2405 1.400 . S
C2406 C2409 1.386 . S
H2407 C2423 0.930 . S
H2408 C2424 0.931 . S
C2409 H2397 0.929 . S
C2409 C2403 1.390 . S
C2409 C2406 1.386 . S
C2410 C2405 1.490 . S
C2410 C2412 1.395 . S
C2410 C2413 1.403 . S
H2411 C2417 0.930 . S
C2412 H2398 0.930 . S
C2412 C2410 1.395 . S
C2412 C2415 1.403 . S
C2413 C2410 1.403 . S
C2413 C2414 1.524 . S
C2413 C2417 1.400 . S
C2414 H2399 0.960 . S
C2414 H2400 0.960 . S
C2414 H2401 0.960 . S
C2414 C2413 1.524 . S
C2415 C2412 1.403 . S
C2415 C2416 1.392 . S
C2415 C2419 1.495 . S
C2416 C2415 1.392 . S
C2416 C2417 1.385 . S
C2416 C2418 1.478 . S
C2417 H2411 0.930 . S
C2417 C2413 1.400 . S
C2417 C2416 1.385 . S
C2418 C2416 1.478 . S
C2418 C2420 1.381 . S
C2418 C2424 1.383 . S
C2419 C2415 1.495 . S
C2419 H2425 0.959 . S
C2419 H2426 0.961 . S
C2419 H2427 0.960 . S
C2420 C2418 1.381 . S
C2420 C2421 1.394 . S
C2420 H2428 0.930 . S
C2421 C2420 1.394 . S
C2421 C2422 1.383 . S
C2421 H2429 0.929 . S
C2422 C2421 1.383 . S
C2422 C2423 1.377 . S
C2423 H2407 0.930 . S
C2423 C2422 1.377 . S
C2423 C2424 1.379 . S
C2424 H2408 0.931 . S
C2424 C2418 1.383 . S
C2424 C2423 1.379 . S
H2425 C2419 0.959 . S
H2426 C2419 0.961 . S
H2427 C2419 0.960 . S
H2428 C2420 0.930 . S
H2429 C2421 0.929 . S
H2430 C2438 0.929 . S
H2431 C2440 0.930 . S
H2432 C2442 0.930 . S
H2433 C2445 0.929 . S
H2434 C2448 0.930 . S
H2435 C2450 0.960 . S
H2436 C2450 0.960 . S
H2437 C2450 0.960 . S
C2438 H2430 0.929 . S
C2438 C2439 1.377 . S
C2438 C2440 1.384 . S
C2439 C2438 1.377 . S
C2439 C2445 1.390 . S
C2440 H2431 0.930 . S
C2440 C2438 1.384 . S
C2440 C2441 1.372 . S
C2441 C2440 1.372 . S
C2441 C2442 1.400 . S
C2441 C2446 1.490 . S
C2442 H2432 0.930 . S
C2442 C2441 1.400 . S
C2442 C2445 1.386 . S
H2443 C2459 0.930 . S
H2444 C2460 0.931 . S
C2445 H2433 0.929 . S
C2445 C2439 1.390 . S
C2445 C2442 1.386 . S
C2446 C2441 1.490 . S
C2446 C2448 1.395 . S
C2446 C2449 1.403 . S
H2447 C2453 0.930 . S
C2448 H2434 0.930 . S
C2448 C2446 1.395 . S
C2448 C2451 1.403 . S
C2449 C2446 1.403 . S
C2449 C2450 1.524 . S
C2449 C2453 1.400 . S
C2450 H2435 0.960 . S
C2450 H2436 0.960 . S
C2450 H2437 0.960 . S
C2450 C2449 1.524 . S
C2451 C2448 1.403 . S
C2451 C2452 1.392 . S
C2451 C2455 1.495 . S
C2452 C2451 1.392 . S
C2452 C2453 1.385 . S
C2452 C2454 1.478 . S
C2453 H2447 0.930 . S
C2453 C2449 1.400 . S
C2453 C2452 1.385 . S
C2454 C2452 1.478 . S
C2454 C2456 1.381 . S
C2454 C2460 1.383 . S
C2455 C2451 1.495 . S
C2455 H2461 0.959 . S
C2455 H2462 0.961 . S
C2455 H2463 0.960 . S
C2456 C2454 1.381 . S
C2456 C2457 1.394 . S
C2456 H2464 0.930 . S
C2457 C2456 1.394 . S
C2457 C2458 1.383 . S
C2457 H2465 0.929 . S
C2458 C2457 1.383 . S
C2458 C2459 1.377 . S
C2459 H2443 0.930 . S
C2459 C2458 1.377 . S
C2459 C2460 1.379 . S
C2460 H2444 0.931 . S
C2460 C2454 1.383 . S
C2460 C2459 1.379 . S
H2461 C2455 0.959 . S
H2462 C2455 0.961 . S
H2463 C2455 0.960 . S
H2464 C2456 0.930 . S
H2465 C2457 0.929 . S
H2466 C2474 0.929 . S
H2467 C2476 0.930 . S
H2468 C2478 0.930 . S
H2469 C2481 0.929 . S
H2470 C2484 0.930 . S
H2471 C2486 0.960 . S
H2472 C2486 0.960 . S
H2473 C2486 0.960 . S
C2474 H2466 0.929 . S
C2474 C2475 1.377 . S
C2474 C2476 1.384 . S
C2475 C2474 1.377 . S
C2475 C2481 1.390 . S
C2476 H2467 0.930 . S
C2476 C2474 1.384 . S
C2476 C2477 1.372 . S
C2477 C2476 1.372 . S
C2477 C2478 1.400 . S
C2477 C2482 1.490 . S
C2478 H2468 0.930 . S
C2478 C2477 1.400 . S
C2478 C2481 1.386 . S
H2479 C2495 0.930 . S
H2480 C2496 0.931 . S
C2481 H2469 0.929 . S
C2481 C2475 1.390 . S
C2481 C2478 1.386 . S
C2482 C2477 1.490 . S
C2482 C2484 1.395 1_455 S
C2482 C2485 1.403 . S
H2483 C2489 0.930 . S
C2484 H2470 0.930 . S
C2484 C2482 1.395 1_655 S
C2484 C2487 1.403 . S
C2485 C2482 1.403 . S
C2485 C2486 1.524 . S
C2485 C2489 1.400 . S
C2486 H2471 0.960 . S
C2486 H2472 0.960 . S
C2486 H2473 0.960 . S
C2486 C2485 1.524 . S
C2487 C2484 1.403 . S
C2487 C2488 1.392 1_655 S
C2487 C2491 1.495 . S
C2488 C2487 1.392 1_455 S
C2488 C2489 1.385 . S
C2488 C2490 1.478 . S
C2489 H2483 0.930 . S
C2489 C2485 1.400 . S
C2489 C2488 1.385 . S
C2490 C2488 1.478 . S
C2490 C2492 1.379 . S
C2490 C2496 1.383 . S
C2491 C2487 1.495 . S
C2491 H2497 0.959 . S
C2491 H2498 0.961 . S
C2491 H2499 0.960 . S
C2492 C2490 1.379 . S
C2492 C2493 1.373 1_455 S
C2492 H2500 0.928 1_455 S
C2493 C2492 1.373 1_655 S
C2493 C2494 1.396 1_655 S
C2493 H2501 0.945 . S
C2494 C2493 1.396 1_455 S
C2494 C2495 1.377 . S
C2495 H2479 0.930 . S
C2495 C2494 1.377 . S
C2495 C2496 1.379 . S
C2496 H2480 0.931 . S
C2496 C2490 1.383 . S
C2496 C2495 1.379 . S
H2497 C2491 0.959 . S
H2498 C2491 0.961 . S
H2499 C2491 0.960 . S
H2500 C2492 0.928 1_655 S
H2501 C2493 0.945 . S
H2502 C2510 0.929 . S
H2503 C2512 0.930 . S
H2504 C2514 0.930 . S
H2505 C2517 0.929 . S
H2506 C2520 0.930 . S
H2507 C2522 0.960 . S
H2508 C2522 0.960 . S
H2509 C2522 0.960 . S
C2510 H2502 0.929 . S
C2510 C2511 1.377 . S
C2510 C2512 1.384 . S
C2511 C2510 1.377 . S
C2511 C2517 1.390 . S
C2512 H2503 0.930 . S
C2512 C2510 1.384 . S
C2512 C2513 1.372 . S
C2513 C2512 1.372 . S
C2513 C2514 1.400 . S
C2513 C2518 1.490 . S
C2514 H2504 0.930 . S
C2514 C2513 1.400 . S
C2514 C2517 1.386 . S
H2515 C2531 0.930 . S
H2516 C2532 0.931 . S
C2517 H2505 0.929 . S
C2517 C2511 1.390 . S
C2517 C2514 1.386 . S
C2518 C2513 1.490 . S
C2518 C2520 1.395 . S
C2518 C2521 1.403 . S
H2519 C2525 0.930 . S
C2520 H2506 0.930 . S
C2520 C2518 1.395 . S
C2520 C2523 1.403 . S
C2521 C2518 1.403 . S
C2521 C2522 1.524 . S
C2521 C2525 1.400 . S
C2522 H2507 0.960 . S
C2522 H2508 0.960 . S
C2522 H2509 0.960 . S
C2522 C2521 1.524 . S
C2523 C2520 1.403 . S
C2523 C2524 1.392 . S
C2523 C2527 1.495 . S
C2524 C2523 1.392 . S
C2524 C2525 1.385 . S
C2524 C2526 1.478 . S
C2525 H2519 0.930 . S
C2525 C2521 1.400 . S
C2525 C2524 1.385 . S
C2526 C2524 1.478 . S
C2526 C2528 1.381 . S
C2526 C2532 1.383 . S
C2527 C2523 1.495 . S
C2527 H2533 0.959 . S
C2527 H2534 0.961 . S
C2527 H2535 0.960 . S
C2528 C2526 1.381 . S
C2528 C2529 1.394 . S
C2528 H2536 0.930 . S
C2529 C2528 1.394 . S
C2529 C2530 1.383 . S
C2529 H2537 0.929 . S
C2530 C2529 1.383 . S
C2530 C2531 1.377 . S
C2531 H2515 0.930 . S
C2531 C2530 1.377 . S
C2531 C2532 1.379 . S
C2532 H2516 0.931 . S
C2532 C2526 1.383 . S
C2532 C2531 1.379 . S
H2533 C2527 0.959 . S
H2534 C2527 0.961 . S
H2535 C2527 0.960 . S
H2536 C2528 0.930 . S
H2537 C2529 0.929 . S
H2538 C2546 0.860 1_545 S
H2539 C2548 0.966 . S
H2540 C2550 0.930 . S
H2541 C2553 0.929 . S
H2542 C2556 0.930 . S
H2543 C2558 0.960 . S
H2544 C2558 0.960 . S
H2545 C2558 0.960 . S
C2546 H2538 0.860 1_565 S
C2546 C2547 1.420 . S
C2546 C2548 1.442 1_565 S
C2547 C2546 1.420 . S
C2547 C2553 1.390 . S
C2548 H2539 0.966 . S
C2548 C2546 1.442 1_545 S
C2548 C2549 1.315 1_545 S
C2549 C2548 1.315 1_565 S
C2549 C2550 1.400 . S
C2549 C2554 1.490 . S
C2550 H2540 0.930 . S
C2550 C2549 1.400 . S
C2550 C2553 1.386 . S
H2551 C2567 0.930 . S
H2552 C2568 0.931 . S
C2553 H2541 0.929 . S
C2553 C2547 1.390 . S
C2553 C2550 1.386 . S
C2554 C2549 1.490 . S
C2554 C2556 1.395 . S
C2554 C2557 1.403 . S
H2555 C2561 0.930 . S
C2556 H2542 0.930 . S
C2556 C2554 1.395 . S
C2556 C2559 1.403 . S
C2557 C2554 1.403 . S
C2557 C2558 1.524 . S
C2557 C2561 1.400 . S
C2558 H2543 0.960 . S
C2558 H2544 0.960 . S
C2558 H2545 0.960 . S
C2558 C2557 1.524 . S
C2559 C2556 1.403 . S
C2559 C2560 1.392 . S
C2559 C2563 1.491 . S
C2560 C2559 1.392 . S
C2560 C2561 1.385 . S
C2560 C2562 1.478 . S
C2561 H2555 0.930 . S
C2561 C2557 1.400 . S
C2561 C2560 1.385 . S
C2562 C2560 1.478 . S
C2562 C2564 1.381 1_565 S
C2562 C2568 1.383 . S
C2563 C2559 1.491 . S
C2563 H2569 0.935 1_565 S
C2563 H2570 0.985 . S
C2563 H2571 0.947 1_565 S
C2564 C2562 1.381 1_545 S
C2564 C2565 1.394 . S
C2564 H2572 0.930 . S
C2565 C2564 1.394 . S
C2565 C2566 1.383 1_545 S
C2565 H2573 0.929 . S
C2566 C2565 1.383 1_565 S
C2566 C2567 1.377 . S
C2567 H2551 0.930 . S
C2567 C2566 1.377 . S
C2567 C2568 1.379 . S
C2568 H2552 0.931 . S
C2568 C2562 1.383 . S
C2568 C2567 1.379 . S
H2569 C2563 0.935 1_545 S
H2570 C2563 0.985 . S
H2571 C2563 0.947 1_545 S
H2572 C2564 0.930 . S
H2573 C2565 0.929 . S
H2574 C2582 0.929 . S
H2575 C2584 0.930 . S
H2576 C2586 0.930 1_545 S
H2577 C2589 0.929 1_545 S
H2578 C2592 0.930 . S
H2579 C2594 0.960 . S
H2580 C2594 0.960 . S
H2581 C2594 0.960 . S
C2582 H2574 0.929 . S
C2582 C2583 1.377 . S
C2582 C2584 1.384 . S
C2583 C2582 1.377 . S
C2583 C2589 1.390 . S
C2584 H2575 0.930 . S
C2584 C2582 1.384 . S
C2584 C2585 1.372 . S
C2585 C2584 1.372 . S
C2585 C2586 1.400 . S
C2585 C2590 1.490 . S
C2586 H2576 0.930 1_565 S
C2586 C2585 1.400 . S
C2586 C2589 1.386 . S
H2587 C2603 0.930 . S
H2588 C2604 0.931 . S
C2589 H2577 0.929 1_565 S
C2589 C2583 1.390 . S
C2589 C2586 1.386 . S
C2590 C2585 1.490 . S
C2590 C2592 1.395 . S
C2590 C2593 1.453 . S
H2591 C2597 0.933 . S
C2592 H2578 0.930 . S
C2592 C2590 1.395 . S
C2592 C2595 1.403 . S
C2593 C2590 1.453 . S
C2593 C2594 1.510 1_565 S
C2593 C2597 1.364 1_565 S
C2594 H2579 0.960 . S
C2594 H2580 0.960 . S
C2594 H2581 0.960 . S
C2594 C2593 1.510 1_545 S
C2595 C2592 1.403 . S
C2595 C2596 1.392 . S
C2595 C2599 1.495 . S
C2596 C2595 1.392 . S
C2596 C2597 1.384 1_565 S
C2596 C2598 1.478 . S
C2597 H2591 0.933 . S
C2597 C2593 1.364 1_545 S
C2597 C2596 1.384 1_545 S
C2598 C2596 1.478 . S
C2598 C2600 1.381 . S
C2598 C2604 1.383 1_565 S
C2599 C2595 1.495 . S
C2599 H2605 0.959 . S
C2599 H2606 0.961 . S
C2599 H2607 0.960 . S
C2600 C2598 1.381 . S
C2600 C2601 1.394 . S
C2600 H2608 0.930 . S
C2601 C2600 1.394 . S
C2601 C2602 1.383 . S
C2601 H2609 0.929 . S
C2602 C2601 1.383 . S
C2602 C2603 1.377 1_565 S
C2603 H2587 0.930 . S
C2603 C2602 1.377 1_545 S
C2603 C2604 1.379 . S
C2604 H2588 0.931 . S
C2604 C2598 1.383 1_545 S
C2604 C2603 1.379 . S
H2605 C2599 0.959 . S
H2606 C2599 0.961 . S
H2607 C2599 0.960 . S
H2608 C2600 0.930 . S
H2609 C2601 0.929 . S
H2610 C2618 0.929 1_655 S
H2611 C2620 0.930 1_655 S
H2612 C2622 0.930 . S
H2613 C2625 0.929 . S
H2614 C2628 0.993 . S
H2615 C2630 0.960 . S
H2616 C2630 0.960 . S
H2617 C2630 0.960 . S
C2618 H2610 0.929 1_455 S
C2618 C2619 1.377 . S
C2618 C2620 1.384 . S
C2619 C2618 1.377 . S
C2619 C2625 1.390 . S
C2620 H2611 0.930 1_455 S
C2620 C2618 1.384 . S
C2620 C2621 1.372 . S
C2621 C2620 1.372 . S
C2621 C2622 1.400 . S
C2621 C2626 1.490 . S
C2622 H2612 0.930 . S
C2622 C2621 1.400 . S
C2622 C2625 1.386 . S
H2623 C2639 0.930 . S
H2624 C2640 0.931 . S
C2625 H2613 0.929 . S
C2625 C2619 1.390 . S
C2625 C2622 1.386 . S
C2626 C2621 1.490 . S
C2626 C2628 1.355 1_455 S
C2626 C2629 1.403 . S
H2627 C2633 0.930 . S
C2628 H2614 0.993 . S
C2628 C2626 1.355 1_655 S
C2628 C2631 1.385 . S
C2629 C2626 1.403 . S
C2629 C2630 1.524 . S
C2629 C2633 1.400 . S
C2630 H2615 0.960 . S
C2630 H2616 0.960 . S
C2630 H2617 0.960 . S
C2630 C2629 1.524 . S
C2631 C2628 1.385 . S
C2631 C2632 1.392 1_655 S
C2631 C2635 1.495 . S
C2632 C2631 1.392 1_455 S
C2632 C2633 1.385 . S
C2632 C2634 1.478 . S
C2633 H2627 0.930 . S
C2633 C2629 1.400 . S
C2633 C2632 1.385 . S
C2634 C2632 1.478 . S
C2634 C2636 1.381 1_455 S
C2634 C2640 1.383 . S
C2635 C2631 1.495 . S
C2635 H2641 0.959 . S
C2635 H2642 0.961 . S
C2635 H2643 0.960 . S
C2636 C2634 1.381 1_655 S
C2636 C2637 1.394 . S
C2636 H2644 0.930 . S
C2637 C2636 1.394 . S
C2637 C2638 1.364 1_655 S
C2637 H2645 0.929 . S
C2638 C2637 1.364 1_455 S
C2638 C2639 1.387 . S
C2639 H2623 0.930 . S
C2639 C2638 1.387 . S
C2639 C2640 1.379 . S
C2640 H2624 0.931 . S
C2640 C2634 1.383 . S
C2640 C2639 1.379 . S
H2641 C2635 0.959 . S
H2642 C2635 0.961 . S
H2643 C2635 0.960 . S
H2644 C2636 0.930 . S
H2645 C2637 0.929 . S
H2646 C2654 0.929 . S
H2647 C2656 0.930 . S
H2648 C2658 0.930 . S
H2649 C2661 0.929 . S
H2650 C2664 0.930 . S
H2651 C2666 0.960 . S
H2652 C2666 0.960 . S
H2653 C2666 0.960 . S
C2654 H2646 0.929 . S
C2654 C2655 1.377 . S
C2654 C2656 1.384 . S
C2655 C2654 1.377 . S
C2655 C2661 1.390 . S
C2656 H2647 0.930 . S
C2656 C2654 1.384 . S
C2656 C2657 1.372 . S
C2657 C2656 1.372 . S
C2657 C2658 1.400 . S
C2657 C2662 1.490 . S
C2658 H2648 0.930 . S
C2658 C2657 1.400 . S
C2658 C2661 1.386 . S
H2659 C2675 0.930 . S
H2660 C2676 0.931 . S
C2661 H2649 0.929 . S
C2661 C2655 1.390 . S
C2661 C2658 1.386 . S
C2662 C2657 1.490 . S
C2662 C2664 1.395 . S
C2662 C2665 1.403 . S
H2663 C2669 0.930 . S
C2664 H2650 0.930 . S
C2664 C2662 1.395 . S
C2664 C2667 1.403 . S
C2665 C2662 1.403 . S
C2665 C2666 1.524 . S
C2665 C2669 1.400 . S
C2666 H2651 0.960 . S
C2666 H2652 0.960 . S
C2666 H2653 0.960 . S
C2666 C2665 1.524 . S
C2667 C2664 1.403 . S
C2667 C2668 1.392 . S
C2667 C2671 1.495 . S
C2668 C2667 1.392 . S
C2668 C2669 1.385 . S
C2668 C2670 1.478 . S
C2669 H2663 0.930 . S
C2669 C2665 1.400 . S
C2669 C2668 1.385 . S
C2670 C2668 1.478 . S
C2670 C2672 1.381 . S
C2670 C2676 1.383 . S
C2671 C2667 1.495 . S
C2671 H2677 0.959 . S
C2671 H2678 0.961 . S
C2671 H2679 0.960 . S
C2672 C2670 1.381 . S
C2672 C2673 1.394 . S
C2672 H2680 0.930 . S
C2673 C2672 1.394 . S
C2673 C2674 1.383 . S
C2673 H2681 0.929 . S
C2674 C2673 1.383 . S
C2674 C2675 1.377 . S
C2675 H2659 0.930 . S
C2675 C2674 1.377 . S
C2675 C2676 1.379 . S
C2676 H2660 0.931 . S
C2676 C2670 1.383 . S
C2676 C2675 1.379 . S
H2677 C2671 0.959 . S
H2678 C2671 0.961 . S
H2679 C2671 0.960 . S
H2680 C2672 0.930 . S
H2681 C2673 0.929 . S
H2682 C2690 0.929 . S
H2683 C2692 0.930 . S
H2684 C2694 0.930 . S
H2685 C2697 0.929 . S
H2686 C2700 0.930 . S
H2687 C2702 0.960 . S
H2688 C2702 0.960 . S
H2689 C2702 0.960 . S
C2690 H2682 0.929 . S
C2690 C2691 1.377 . S
C2690 C2692 1.384 . S
C2691 C2690 1.377 . S
C2691 C2697 1.390 . S
C2692 H2683 0.930 . S
C2692 C2690 1.384 . S
C2692 C2693 1.372 . S
C2693 C2692 1.372 . S
C2693 C2694 1.400 . S
C2693 C2698 1.490 . S
C2694 H2684 0.930 . S
C2694 C2693 1.400 . S
C2694 C2697 1.386 . S
H2695 C2711 0.930 . S
H2696 C2712 0.931 . S
C2697 H2685 0.929 . S
C2697 C2691 1.390 . S
C2697 C2694 1.386 . S
C2698 C2693 1.490 . S
C2698 C2700 1.395 . S
C2698 C2701 1.403 . S
H2699 C2705 0.930 . S
C2700 H2686 0.930 . S
C2700 C2698 1.395 . S
C2700 C2703 1.403 . S
C2701 C2698 1.403 . S
C2701 C2702 1.524 . S
C2701 C2705 1.400 . S
C2702 H2687 0.960 . S
C2702 H2688 0.960 . S
C2702 H2689 0.960 . S
C2702 C2701 1.524 . S
C2703 C2700 1.403 . S
C2703 C2704 1.392 . S
C2703 C2707 1.495 . S
C2704 C2703 1.392 . S
C2704 C2705 1.385 . S
C2704 C2706 1.478 . S
C2705 H2699 0.930 . S
C2705 C2701 1.400 . S
C2705 C2704 1.385 . S
C2706 C2704 1.478 . S
C2706 C2708 1.381 . S
C2706 C2712 1.383 . S
C2707 C2703 1.495 . S
C2707 H2713 0.959 . S
C2707 H2714 0.961 . S
C2707 H2715 0.960 . S
C2708 C2706 1.381 . S
C2708 C2709 1.394 . S
C2708 H2716 0.930 . S
C2709 C2708 1.394 . S
C2709 C2710 1.383 . S
C2709 H2717 0.929 . S
C2710 C2709 1.383 . S
C2710 C2711 1.377 . S
C2711 H2695 0.930 . S
C2711 C2710 1.377 . S
C2711 C2712 1.379 . S
C2712 H2696 0.931 . S
C2712 C2706 1.383 . S
C2712 C2711 1.379 . S
H2713 C2707 0.959 . S
H2714 C2707 0.961 . S
H2715 C2707 0.960 . S
H2716 C2708 0.930 . S
H2717 C2709 0.929 . S
H2718 C2726 0.929 . S
H2719 C2728 0.930 . S
H2720 C2730 0.930 . S
H2721 C2733 0.929 . S
H2722 C2736 0.930 . S
H2723 C2738 0.960 . S
H2724 C2738 0.960 . S
H2725 C2738 0.960 . S
C2726 H2718 0.929 . S
C2726 C2727 1.377 . S
C2726 C2728 1.384 . S
C2727 C2726 1.377 . S
C2727 C2733 1.390 . S
C2728 H2719 0.930 . S
C2728 C2726 1.384 . S
C2728 C2729 1.372 . S
C2729 C2728 1.372 . S
C2729 C2730 1.400 . S
C2729 C2734 1.490 . S
C2730 H2720 0.930 . S
C2730 C2729 1.400 . S
C2730 C2733 1.386 . S
H2731 C2747 0.930 . S
H2732 C2748 0.931 . S
C2733 H2721 0.929 . S
C2733 C2727 1.390 . S
C2733 C2730 1.386 . S
C2734 C2729 1.490 . S
C2734 C2736 1.395 . S
C2734 C2737 1.403 . S
H2735 C2741 0.930 . S
C2736 H2722 0.930 . S
C2736 C2734 1.395 . S
C2736 C2739 1.403 . S
C2737 C2734 1.403 . S
C2737 C2738 1.524 . S
C2737 C2741 1.400 . S
C2738 H2723 0.960 . S
C2738 H2724 0.960 . S
C2738 H2725 0.960 . S
C2738 C2737 1.524 . S
C2739 C2736 1.403 . S
C2739 C2740 1.392 . S
C2739 C2743 1.495 . S
C2740 C2739 1.392 . S
C2740 C2741 1.385 . S
C2740 C2742 1.478 . S
C2741 H2735 0.930 . S
C2741 C2737 1.400 . S
C2741 C2740 1.385 . S
C2742 C2740 1.478 . S
C2742 C2744 1.381 . S
C2742 C2748 1.383 . S
C2743 C2739 1.495 . S
C2743 H2749 0.959 . S
C2743 H2750 0.961 . S
C2743 H2751 0.960 . S
C2744 C2742 1.381 . S
C2744 C2745 1.394 . S
C2744 H2752 0.930 . S
C2745 C2744 1.394 . S
C2745 C2746 1.383 . S
C2745 H2753 0.929 . S
C2746 C2745 1.383 . S
C2746 C2747 1.377 . S
C2747 H2731 0.930 . S
C2747 C2746 1.377 . S
C2747 C2748 1.379 . S
C2748 H2732 0.931 . S
C2748 C2742 1.383 . S
C2748 C2747 1.379 . S
H2749 C2743 0.959 . S
H2750 C2743 0.961 . S
H2751 C2743 0.960 . S
H2752 C2744 0.930 . S
H2753 C2745 0.929 . S
H2754 C2762 0.929 . S
H2755 C2764 0.930 . S
H2756 C2766 0.930 . S
H2757 C2769 0.929 . S
H2758 C2772 0.930 . S
H2759 C2774 0.960 . S
H2760 C2774 0.960 . S
H2761 C2774 0.960 . S
C2762 H2754 0.929 . S
C2762 C2763 1.377 . S
C2762 C2764 1.384 . S
C2763 C2762 1.377 . S
C2763 C2769 1.390 . S
C2764 H2755 0.930 . S
C2764 C2762 1.384 . S
C2764 C2765 1.372 . S
C2765 C2764 1.372 . S
C2765 C2766 1.400 . S
C2765 C2770 1.490 . S
C2766 H2756 0.930 . S
C2766 C2765 1.400 . S
C2766 C2769 1.386 . S
H2767 C2783 0.930 . S
H2768 C2784 0.931 . S
C2769 H2757 0.929 . S
C2769 C2763 1.390 . S
C2769 C2766 1.386 . S
C2770 C2765 1.490 . S
C2770 C2772 1.395 . S
C2770 C2773 1.403 . S
H2771 C2777 0.930 . S
C2772 H2758 0.930 . S
C2772 C2770 1.395 . S
C2772 C2775 1.403 . S
C2773 C2770 1.403 . S
C2773 C2774 1.524 . S
C2773 C2777 1.400 . S
C2774 H2759 0.960 . S
C2774 H2760 0.960 . S
C2774 H2761 0.960 . S
C2774 C2773 1.524 . S
C2775 C2772 1.403 . S
C2775 C2776 1.392 . S
C2775 C2779 1.495 . S
C2776 C2775 1.392 . S
C2776 C2777 1.385 . S
C2776 C2778 1.478 . S
C2777 H2771 0.930 . S
C2777 C2773 1.400 . S
C2777 C2776 1.385 . S
C2778 C2776 1.478 . S
C2778 C2780 1.381 . S
C2778 C2784 1.383 . S
C2779 C2775 1.495 . S
C2779 H2785 0.959 . S
C2779 H2786 0.961 . S
C2779 H2787 0.960 . S
C2780 C2778 1.381 . S
C2780 C2781 1.394 . S
C2780 H2788 0.930 . S
C2781 C2780 1.394 . S
C2781 C2782 1.383 . S
C2781 H2789 0.929 . S
C2782 C2781 1.383 . S
C2782 C2783 1.377 . S
C2783 H2767 0.930 . S
C2783 C2782 1.377 . S
C2783 C2784 1.379 . S
C2784 H2768 0.931 . S
C2784 C2778 1.383 . S
C2784 C2783 1.379 . S
H2785 C2779 0.959 . S
H2786 C2779 0.961 . S
H2787 C2779 0.960 . S
H2788 C2780 0.930 . S
H2789 C2781 0.929 . S
H2790 C2798 0.929 . S
H2791 C2800 0.930 . S
H2792 C2802 0.930 1_565 S
H2793 C2805 0.929 1_565 S
H2794 C2808 0.930 . S
H2795 C2810 0.960 . S
H2796 C2810 0.960 . S
H2797 C2810 0.984 . S
C2798 H2790 0.929 . S
C2798 C2799 1.377 . S
C2798 C2800 1.384 . S
C2799 C2798 1.377 . S
C2799 C2805 1.390 . S
C2800 H2791 0.930 . S
C2800 C2798 1.384 . S
C2800 C2801 1.372 . S
C2801 C2800 1.372 . S
C2801 C2802 1.400 . S
C2801 C2806 1.490 . S
C2802 H2792 0.930 1_545 S
C2802 C2801 1.400 . S
C2802 C2805 1.386 . S
H2803 C2819 0.930 . S
H2804 C2820 0.931 . S
C2805 H2793 0.929 1_545 S
C2805 C2799 1.390 . S
C2805 C2802 1.386 . S
C2806 C2801 1.490 . S
C2806 C2808 1.395 . S
C2806 C2809 1.403 . S
H2807 C2813 0.930 . S
C2808 H2794 0.930 . S
C2808 C2806 1.395 . S
C2808 C2811 1.403 . S
C2809 C2806 1.403 . S
C2809 C2810 1.524 . S
C2809 C2813 1.400 . S
C2810 H2795 0.960 . S
C2810 H2796 0.960 . S
C2810 H2797 0.984 . S
C2810 C2809 1.524 . S
C2811 C2808 1.403 . S
C2811 C2812 1.392 . S
C2811 C2815 1.495 . S
C2812 C2811 1.392 . S
C2812 C2813 1.385 . S
C2812 C2814 1.478 . S
C2813 H2807 0.930 . S
C2813 C2809 1.400 . S
C2813 C2812 1.385 . S
C2814 C2812 1.478 . S
C2814 C2816 1.381 . S
C2814 C2820 1.383 1_545 S
C2815 C2811 1.495 . S
C2815 H2821 0.959 . S
C2815 H2822 0.961 . S
C2815 H2823 0.960 . S
C2816 C2814 1.381 . S
C2816 C2817 1.394 . S
C2816 H2824 0.930 . S
C2817 C2816 1.394 . S
C2817 C2818 1.383 . S
C2817 H2825 0.929 . S
C2818 C2817 1.383 . S
C2818 C2819 1.377 1_545 S
C2819 H2803 0.930 . S
C2819 C2818 1.377 1_565 S
C2819 C2820 1.379 . S
C2820 H2804 0.931 . S
C2820 C2814 1.383 1_565 S
C2820 C2819 1.379 . S
H2821 C2815 0.959 . S
H2822 C2815 0.961 . S
H2823 C2815 0.960 . S
H2824 C2816 0.930 . S
H2825 C2817 0.929 . S
H2826 C2834 0.929 . S
H2827 C2836 0.930 . S
H2828 C2838 0.930 . S
H2829 C2841 0.929 . S
H2830 C2844 0.930 . S
H2831 C2846 0.960 . S
H2832 C2846 0.960 . S
H2833 C2846 0.960 . S
C2834 H2826 0.929 . S
C2834 C2835 1.377 . S
C2834 C2836 1.384 . S
C2835 C2834 1.377 . S
C2835 C2841 1.390 . S
C2836 H2827 0.930 . S
C2836 C2834 1.384 . S
C2836 C2837 1.372 . S
C2837 C2836 1.372 . S
C2837 C2838 1.400 . S
C2837 C2842 1.490 . S
C2838 H2828 0.930 . S
C2838 C2837 1.400 . S
C2838 C2841 1.386 . S
H2839 C2855 0.930 . S
H2840 C2856 0.931 . S
C2841 H2829 0.929 . S
C2841 C2835 1.390 . S
C2841 C2838 1.386 . S
C2842 C2837 1.490 . S
C2842 C2844 1.395 . S
C2842 C2845 1.403 1_655 S
H2843 C2849 0.930 . S
C2844 H2830 0.930 . S
C2844 C2842 1.395 . S
C2844 C2847 1.403 . S
C2845 C2842 1.403 1_455 S
C2845 C2846 1.524 . S
C2845 C2849 1.400 . S
C2846 H2831 0.960 . S
C2846 H2832 0.960 . S
C2846 H2833 0.960 . S
C2846 C2845 1.524 . S
C2847 C2844 1.403 . S
C2847 C2848 1.392 . S
C2847 C2851 1.495 . S
C2848 C2847 1.392 . S
C2848 C2849 1.385 1_655 S
C2848 C2850 1.478 . S
C2849 H2843 0.930 . S
C2849 C2845 1.400 . S
C2849 C2848 1.385 1_455 S
C2850 C2848 1.478 . S
C2850 C2852 1.381 . S
C2850 C2856 1.383 . S
C2851 C2847 1.495 . S
C2851 H2857 0.959 . S
C2851 H2858 0.961 . S
C2851 H2859 0.960 . S
C2852 C2850 1.381 . S
C2852 C2853 1.394 . S
C2852 H2860 0.930 . S
C2853 C2852 1.394 . S
C2853 C2854 1.383 . S
C2853 H2861 0.929 . S
C2854 C2853 1.383 . S
C2854 C2855 1.377 . S
C2855 H2839 0.930 . S
C2855 C2854 1.377 . S
C2855 C2856 1.379 . S
C2856 H2840 0.931 . S
C2856 C2850 1.383 . S
C2856 C2855 1.379 . S
H2857 C2851 0.959 . S
H2858 C2851 0.961 . S
H2859 C2851 0.960 . S
H2860 C2852 0.930 . S
H2861 C2853 0.929 . S
H2862 C2870 0.929 . S
H2863 C2872 0.930 . S
H2864 C2874 0.930 . S
H2865 C2877 0.929 . S
H2866 C2880 0.930 . S
H2867 C2882 0.960 . S
H2868 C2882 0.960 . S
H2869 C2882 0.960 . S
C2870 H2862 0.929 . S
C2870 C2871 1.377 . S
C2870 C2872 1.384 . S
C2871 C2870 1.377 . S
C2871 C2877 1.390 . S
C2872 H2863 0.930 . S
C2872 C2870 1.384 . S
C2872 C2873 1.372 . S
C2873 C2872 1.372 . S
C2873 C2874 1.400 . S
C2873 C2878 1.490 . S
C2874 H2864 0.930 . S
C2874 C2873 1.400 . S
C2874 C2877 1.386 . S
H2875 C2891 0.930 . S
H2876 C2892 0.931 . S
C2877 H2865 0.929 . S
C2877 C2871 1.390 . S
C2877 C2874 1.386 . S
C2878 C2873 1.490 . S
C2878 C2880 1.395 . S
C2878 C2881 1.403 . S
H2879 C2885 0.930 . S
C2880 H2866 0.930 . S
C2880 C2878 1.395 . S
C2880 C2883 1.403 . S
C2881 C2878 1.403 . S
C2881 C2882 1.524 . S
C2881 C2885 1.400 . S
C2882 H2867 0.960 . S
C2882 H2868 0.960 . S
C2882 H2869 0.960 . S
C2882 C2881 1.524 . S
C2883 C2880 1.403 . S
C2883 C2884 1.392 . S
C2883 C2887 1.495 . S
C2884 C2883 1.392 . S
C2884 C2885 1.385 . S
C2884 C2886 1.478 . S
C2885 H2879 0.930 . S
C2885 C2881 1.400 . S
C2885 C2884 1.385 . S
C2886 C2884 1.478 . S
C2886 C2888 1.381 . S
C2886 C2892 1.383 . S
C2887 C2883 1.495 . S
C2887 H2893 0.959 . S
C2887 H2894 0.961 . S
C2887 H2895 0.960 . S
C2888 C2886 1.381 . S
C2888 C2889 1.394 . S
C2888 H2896 0.930 . S
C2889 C2888 1.394 . S
C2889 C2890 1.383 . S
C2889 H2897 0.929 . S
C2890 C2889 1.383 . S
C2890 C2891 1.377 . S
C2891 H2875 0.930 . S
C2891 C2890 1.377 . S
C2891 C2892 1.379 . S
C2892 H2876 0.931 . S
C2892 C2886 1.383 . S
C2892 C2891 1.379 . S
H2893 C2887 0.959 . S
H2894 C2887 0.961 . S
H2895 C2887 0.960 . S
H2896 C2888 0.930 . S
H2897 C2889 0.929 . S
H2898 C2906 0.929 . S
H2899 C2908 0.930 . S
H2900 C2910 0.930 . S
H2901 C2913 0.929 . S
H2902 C2916 0.930 . S
H2903 C2918 0.960 . S
H2904 C2918 0.960 . S
H2905 C2918 0.960 . S
C2906 H2898 0.929 . S
C2906 C2907 1.377 . S
C2906 C2908 1.384 . S
C2907 C2906 1.377 . S
C2907 C2913 1.390 . S
C2908 H2899 0.930 . S
C2908 C2906 1.384 . S
C2908 C2909 1.372 . S
C2909 C2908 1.372 . S
C2909 C2910 1.400 . S
C2909 C2914 1.490 . S
C2910 H2900 0.930 . S
C2910 C2909 1.400 . S
C2910 C2913 1.386 . S
H2911 C2927 0.930 . S
H2912 C2928 0.931 . S
C2913 H2901 0.929 . S
C2913 C2907 1.390 . S
C2913 C2910 1.386 . S
C2914 C2909 1.490 . S
C2914 C2916 1.395 . S
C2914 C2917 1.403 . S
H2915 C2921 0.930 . S
C2916 H2902 0.930 . S
C2916 C2914 1.395 . S
C2916 C2919 1.403 . S
C2917 C2914 1.403 . S
C2917 C2918 1.524 . S
C2917 C2921 1.400 . S
C2918 H2903 0.960 . S
C2918 H2904 0.960 . S
C2918 H2905 0.960 . S
C2918 C2917 1.524 . S
C2919 C2916 1.403 . S
C2919 C2920 1.392 . S
C2919 C2923 1.495 . S
C2920 C2919 1.392 . S
C2920 C2921 1.385 . S
C2920 C2922 1.478 . S
C2921 H2915 0.930 . S
C2921 C2917 1.400 . S
C2921 C2920 1.385 . S
C2922 C2920 1.478 . S
C2922 C2924 1.381 . S
C2922 C2928 1.383 . S
C2923 C2919 1.495 . S
C2923 H2929 0.959 . S
C2923 H2930 0.961 . S
C2923 H2931 0.960 . S
C2924 C2922 1.381 . S
C2924 C2925 1.394 . S
C2924 H2932 0.930 . S
C2925 C2924 1.394 . S
C2925 C2926 1.383 . S
C2925 H2933 0.929 . S
C2926 C2925 1.383 . S
C2926 C2927 1.377 . S
C2927 H2911 0.930 . S
C2927 C2926 1.377 . S
C2927 C2928 1.379 . S
C2928 H2912 0.931 . S
C2928 C2922 1.383 . S
C2928 C2927 1.379 . S
H2929 C2923 0.959 . S
H2930 C2923 0.961 . S
H2931 C2923 0.960 . S
H2932 C2924 0.930 . S
H2933 C2925 0.929 . S
H2934 C2942 0.929 . S
H2935 C2944 0.930 . S
H2936 C2946 0.930 . S
H2937 C2949 0.929 . S
H2938 C2952 0.930 . S
H2939 C2954 0.960 . S
H2940 C2954 0.960 . S
H2941 C2954 0.960 . S
C2942 H2934 0.929 . S
C2942 C2943 1.377 . S
C2942 C2944 1.384 . S
C2943 C2942 1.377 . S
C2943 C2949 1.390 . S
C2944 H2935 0.930 . S
C2944 C2942 1.384 . S
C2944 C2945 1.372 . S
C2945 C2944 1.372 . S
C2945 C2946 1.400 . S
C2945 C2950 1.490 . S
C2946 H2936 0.930 . S
C2946 C2945 1.400 . S
C2946 C2949 1.386 . S
H2947 C2963 0.930 . S
H2948 C2964 0.931 . S
C2949 H2937 0.929 . S
C2949 C2943 1.390 . S
C2949 C2946 1.386 . S
C2950 C2945 1.490 . S
C2950 C2952 1.395 . S
C2950 C2953 1.403 . S
H2951 C2957 0.930 . S
C2952 H2938 0.930 . S
C2952 C2950 1.395 . S
C2952 C2955 1.403 . S
C2953 C2950 1.403 . S
C2953 C2954 1.524 . S
C2953 C2957 1.400 . S
C2954 H2939 0.960 . S
C2954 H2940 0.960 . S
C2954 H2941 0.960 . S
C2954 C2953 1.524 . S
C2955 C2952 1.403 . S
C2955 C2956 1.392 . S
C2955 C2959 1.495 . S
C2956 C2955 1.392 . S
C2956 C2957 1.385 . S
C2956 C2958 1.478 . S
C2957 H2951 0.930 . S
C2957 C2953 1.400 . S
C2957 C2956 1.385 . S
C2958 C2956 1.478 . S
C2958 C2960 1.381 . S
C2958 C2964 1.383 . S
C2959 C2955 1.495 . S
C2959 H2965 0.959 . S
C2959 H2966 0.961 . S
C2959 H2967 0.960 . S
C2960 C2958 1.381 . S
C2960 C2961 1.394 . S
C2960 H2968 0.930 . S
C2961 C2960 1.394 . S
C2961 C2962 1.383 . S
C2961 H2969 0.929 . S
C2962 C2961 1.383 . S
C2962 C2963 1.377 . S
C2963 H2947 0.930 . S
C2963 C2962 1.377 . S
C2963 C2964 1.379 . S
C2964 H2948 0.931 . S
C2964 C2958 1.383 . S
C2964 C2963 1.379 . S
H2965 C2959 0.959 . S
H2966 C2959 0.961 . S
H2967 C2959 0.960 . S
H2968 C2960 0.930 . S
H2969 C2961 0.929 . S
H2970 C2978 0.929 . S
H2971 C2980 0.930 . S
H2972 C2982 0.930 . S
H2973 C2985 0.929 . S
H2974 C2988 0.930 . S
H2975 C2990 0.960 . S
H2976 C2990 0.960 . S
H2977 C2990 0.960 . S
C2978 H2970 0.929 . S
C2978 C2979 1.377 . S
C2978 C2980 1.384 . S
C2979 C2978 1.377 . S
C2979 C2985 1.390 . S
C2980 H2971 0.930 . S
C2980 C2978 1.384 . S
C2980 C2981 1.372 . S
C2981 C2980 1.372 . S
C2981 C2982 1.400 . S
C2981 C2986 1.490 . S
C2982 H2972 0.930 . S
C2982 C2981 1.400 . S
C2982 C2985 1.386 . S
H2983 C2999 0.930 . S
H2984 C3000 0.931 . S
C2985 H2973 0.929 . S
C2985 C2979 1.390 . S
C2985 C2982 1.386 . S
C2986 C2981 1.490 . S
C2986 C2988 1.395 . S
C2986 C2989 1.403 . S
H2987 C2993 0.930 . S
C2988 H2974 0.930 . S
C2988 C2986 1.395 . S
C2988 C2991 1.403 . S
C2989 C2986 1.403 . S
C2989 C2990 1.524 . S
C2989 C2993 1.400 . S
C2990 H2975 0.960 . S
C2990 H2976 0.960 . S
C2990 H2977 0.960 . S
C2990 C2989 1.524 . S
C2991 C2988 1.403 . S
C2991 C2992 1.392 . S
C2991 C2995 1.495 . S
C2992 C2991 1.392 . S
C2992 C2993 1.385 . S
C2992 C2994 1.478 . S
C2993 H2987 0.930 . S
C2993 C2989 1.400 . S
C2993 C2992 1.385 . S
C2994 C2992 1.478 . S
C2994 C2996 1.381 . S
C2994 C3000 1.383 . S
C2995 C2991 1.495 . S
C2995 H3001 0.959 . S
C2995 H3002 0.961 . S
C2995 H3003 0.960 . S
C2996 C2994 1.381 . S
C2996 C2997 1.394 . S
C2996 H3004 0.930 . S
C2997 C2996 1.394 . S
C2997 C2998 1.383 . S
C2997 H3005 0.929 . S
C2998 C2997 1.383 . S
C2998 C2999 1.377 . S
C2999 H2983 0.930 . S
C2999 C2998 1.377 . S
C2999 C3000 1.379 . S
C3000 H2984 0.931 . S
C3000 C2994 1.383 . S
C3000 C2999 1.379 . S
H3001 C2995 0.959 . S
H3002 C2995 0.961 . S
H3003 C2995 0.960 . S
H3004 C2996 0.930 . S
H3005 C2997 0.929 . S
H3006 C3014 0.929 . S
H3007 C3016 0.930 . S
H3008 C3018 0.930 . S
H3009 C3021 0.929 . S
H3010 C3024 0.930 . S
H3011 C3026 0.960 . S
H3012 C3026 0.960 . S
H3013 C3026 0.960 . S
C3014 H3006 0.929 . S
C3014 C3015 1.377 . S
C3014 C3016 1.384 . S
C3015 C3014 1.377 . S
C3015 C3021 1.390 . S
C3016 H3007 0.930 . S
C3016 C3014 1.384 . S
C3016 C3017 1.372 . S
C3017 C3016 1.372 . S
C3017 C3018 1.400 . S
C3017 C3022 1.490 . S
C3018 H3008 0.930 . S
C3018 C3017 1.400 . S
C3018 C3021 1.386 . S
H3019 C3035 0.930 . S
H3020 C3036 0.931 . S
C3021 H3009 0.929 . S
C3021 C3015 1.390 . S
C3021 C3018 1.386 . S
C3022 C3017 1.490 . S
C3022 C3024 1.395 . S
C3022 C3025 1.403 . S
H3023 C3029 0.930 . S
C3024 H3010 0.930 . S
C3024 C3022 1.395 . S
C3024 C3027 1.403 . S
C3025 C3022 1.403 . S
C3025 C3026 1.524 . S
C3025 C3029 1.400 . S
C3026 H3011 0.960 . S
C3026 H3012 0.960 . S
C3026 H3013 0.960 . S
C3026 C3025 1.524 . S
C3027 C3024 1.403 . S
C3027 C3028 1.392 . S
C3027 C3031 1.495 . S
C3028 C3027 1.392 . S
C3028 C3029 1.385 . S
C3028 C3030 1.478 . S
C3029 H3023 0.930 . S
C3029 C3025 1.400 . S
C3029 C3028 1.385 . S
C3030 C3028 1.478 . S
C3030 C3032 1.381 . S
C3030 C3036 1.383 . S
C3031 C3027 1.495 . S
C3031 H3037 0.959 . S
C3031 H3038 0.961 . S
C3031 H3039 0.960 . S
C3032 C3030 1.381 . S
C3032 C3033 1.394 . S
C3032 H3040 0.930 . S
C3033 C3032 1.394 . S
C3033 C3034 1.383 . S
C3033 H3041 0.929 . S
C3034 C3033 1.383 . S
C3034 C3035 1.377 . S
C3035 H3019 0.930 . S
C3035 C3034 1.377 . S
C3035 C3036 1.379 . S
C3036 H3020 0.931 . S
C3036 C3030 1.383 . S
C3036 C3035 1.379 . S
H3037 C3031 0.959 . S
H3038 C3031 0.961 . S
H3039 C3031 0.960 . S
H3040 C3032 0.930 . S
H3041 C3033 0.929 . S
H3042 C3050 0.929 . S
H3043 C3052 0.930 . S
H3044 C3054 0.930 . S
H3045 C3057 0.929 . S
H3046 C3060 0.930 . S
H3047 C3062 0.960 . S
H3048 C3062 0.960 . S
H3049 C3062 0.960 . S
C3050 H3042 0.929 . S
C3050 C3051 1.377 . S
C3050 C3052 1.384 . S
C3051 C3050 1.377 . S
C3051 C3057 1.390 . S
C3052 H3043 0.930 . S
C3052 C3050 1.384 . S
C3052 C3053 1.372 . S
C3053 C3052 1.372 . S
C3053 C3054 1.400 . S
C3053 C3058 1.490 . S
C3054 H3044 0.930 . S
C3054 C3053 1.400 . S
C3054 C3057 1.386 . S
H3055 C3071 0.930 . S
H3056 C3072 0.931 . S
C3057 H3045 0.929 . S
C3057 C3051 1.390 . S
C3057 C3054 1.386 . S
C3058 C3053 1.490 . S
C3058 C3060 1.395 . S
C3058 C3061 1.403 . S
H3059 C3065 0.930 . S
C3060 H3046 0.930 . S
C3060 C3058 1.395 . S
C3060 C3063 1.403 . S
C3061 C3058 1.403 . S
C3061 C3062 1.524 . S
C3061 C3065 1.400 . S
C3062 H3047 0.960 . S
C3062 H3048 0.960 . S
C3062 H3049 0.960 . S
C3062 C3061 1.524 . S
C3063 C3060 1.403 . S
C3063 C3064 1.392 . S
C3063 C3067 1.495 . S
C3064 C3063 1.392 . S
C3064 C3065 1.385 . S
C3064 C3066 1.478 . S
C3065 H3059 0.930 . S
C3065 C3061 1.400 . S
C3065 C3064 1.385 . S
C3066 C3064 1.478 . S
C3066 C3068 1.381 . S
C3066 C3072 1.383 . S
C3067 C3063 1.495 . S
C3067 H3073 0.959 . S
C3067 H3074 0.961 . S
C3067 H3075 0.960 . S
C3068 C3066 1.381 . S
C3068 C3069 1.394 . S
C3068 H3076 0.930 . S
C3069 C3068 1.394 . S
C3069 C3070 1.383 . S
C3069 H3077 0.929 . S
C3070 C3069 1.383 . S
C3070 C3071 1.377 . S
C3071 H3055 0.930 . S
C3071 C3070 1.377 . S
C3071 C3072 1.379 . S
C3072 H3056 0.931 . S
C3072 C3066 1.383 . S
C3072 C3071 1.379 . S
H3073 C3067 0.959 . S
H3074 C3067 0.961 . S
H3075 C3067 0.960 . S
H3076 C3068 0.930 . S
H3077 C3069 0.929 . S
H3078 C3086 0.929 . S
H3079 C3088 0.930 . S
H3080 C3090 0.930 . S
H3081 C3093 0.929 . S
H3082 C3096 0.930 . S
H3083 C3098 0.960 . S
H3084 C3098 0.960 . S
H3085 C3098 0.960 . S
C3086 H3078 0.929 . S
C3086 C3087 1.377 . S
C3086 C3088 1.384 . S
C3087 C3086 1.377 . S
C3087 C3093 1.390 . S
C3088 H3079 0.930 . S
C3088 C3086 1.384 . S
C3088 C3089 1.372 . S
C3089 C3088 1.372 . S
C3089 C3090 1.400 . S
C3089 C3094 1.490 . S
C3090 H3080 0.930 . S
C3090 C3089 1.400 . S
C3090 C3093 1.386 . S
H3091 C3107 0.930 . S
H3092 C3108 0.931 . S
C3093 H3081 0.929 . S
C3093 C3087 1.390 . S
C3093 C3090 1.386 . S
C3094 C3089 1.490 . S
C3094 C3096 1.395 . S
C3094 C3097 1.403 . S
H3095 C3101 0.930 . S
C3096 H3082 0.930 . S
C3096 C3094 1.395 . S
C3096 C3099 1.403 . S
C3097 C3094 1.403 . S
C3097 C3098 1.524 . S
C3097 C3101 1.400 . S
C3098 H3083 0.960 . S
C3098 H3084 0.960 . S
C3098 H3085 0.960 . S
C3098 C3097 1.524 . S
C3099 C3096 1.403 . S
C3099 C3100 1.392 . S
C3099 C3103 1.495 . S
C3100 C3099 1.392 . S
C3100 C3101 1.385 . S
C3100 C3102 1.478 . S
C3101 H3095 0.930 . S
C3101 C3097 1.400 . S
C3101 C3100 1.385 . S
C3102 C3100 1.478 . S
C3102 C3104 1.381 . S
C3102 C3108 1.383 . S
C3103 C3099 1.495 . S
C3103 H3109 0.959 . S
C3103 H3110 0.961 . S
C3103 H3111 0.960 . S
C3104 C3102 1.381 . S
C3104 C3105 1.394 . S
C3104 H3112 0.930 . S
C3105 C3104 1.394 . S
C3105 C3106 1.383 . S
C3105 H3113 0.929 . S
C3106 C3105 1.383 . S
C3106 C3107 1.377 . S
C3107 H3091 0.930 . S
C3107 C3106 1.377 . S
C3107 C3108 1.379 . S
C3108 H3092 0.931 . S
C3108 C3102 1.383 . S
C3108 C3107 1.379 . S
H3109 C3103 0.959 . S
H3110 C3103 0.961 . S
H3111 C3103 0.960 . S
H3112 C3104 0.930 . S
H3113 C3105 0.929 . S
H3114 C3122 0.929 . S
H3115 C3124 0.930 . S
H3116 C3126 0.930 . S
H3117 C3129 0.929 . S
H3118 C3132 0.930 . S
H3119 C3134 0.960 . S
H3120 C3134 0.960 . S
H3121 C3134 0.960 . S
C3122 H3114 0.929 . S
C3122 C3123 1.377 . S
C3122 C3124 1.384 . S
C3123 C3122 1.377 . S
C3123 C3129 1.390 . S
C3124 H3115 0.930 . S
C3124 C3122 1.384 . S
C3124 C3125 1.372 . S
C3125 C3124 1.372 . S
C3125 C3126 1.400 . S
C3125 C3130 1.490 . S
C3126 H3116 0.930 . S
C3126 C3125 1.400 . S
C3126 C3129 1.386 . S
H3127 C3143 0.985 . S
H3128 C3144 0.927 1_455 S
C3129 H3117 0.929 . S
C3129 C3123 1.390 . S
C3129 C3126 1.386 . S
C3130 C3125 1.490 . S
C3130 C3132 1.395 . S
C3130 C3133 1.403 1_655 S
H3131 C3137 0.930 . S
C3132 H3118 0.930 . S
C3132 C3130 1.395 . S
C3132 C3135 1.403 . S
C3133 C3130 1.403 1_455 S
C3133 C3134 1.524 . S
C3133 C3137 1.400 . S
C3134 H3119 0.960 . S
C3134 H3120 0.960 . S
C3134 H3121 0.960 . S
C3134 C3133 1.524 . S
C3135 C3132 1.403 . S
C3135 C3136 1.392 . S
C3135 C3139 1.495 . S
C3136 C3135 1.392 . S
C3136 C3137 1.385 1_655 S
C3136 C3138 1.478 . S
C3137 H3131 0.930 . S
C3137 C3133 1.400 . S
C3137 C3136 1.385 1_455 S
C3138 C3136 1.478 . S
C3138 C3140 1.381 . S
C3138 C3144 1.383 . S
C3139 C3135 1.495 . S
C3139 H3145 0.959 . S
C3139 H3146 0.961 . S
C3139 H3147 0.960 . S
C3140 C3138 1.381 . S
C3140 C3141 1.394 . S
C3140 H3148 0.930 . S
C3141 C3140 1.394 . S
C3141 C3142 1.383 . S
C3141 H3149 0.929 . S
C3142 C3141 1.383 . S
C3142 C3143 1.371 1_655 S
C3143 H3127 0.985 . S
C3143 C3142 1.371 1_455 S
C3143 C3144 1.335 1_455 S
C3144 H3128 0.927 1_655 S
C3144 C3138 1.383 . S
C3144 C3143 1.335 1_655 S
H3145 C3139 0.959 . S
H3146 C3139 0.961 . S
H3147 C3139 0.960 . S
H3148 C3140 0.930 . S
H3149 C3141 0.929 . S
H3150 C3158 0.929 . S
H3151 C3160 0.930 . S
H3152 C3162 0.930 . S
H3153 C3165 0.929 . S
H3154 C3168 0.930 . S
H3155 C3170 0.960 . S
H3156 C3170 0.960 . S
H3157 C3170 0.960 . S
C3158 H3150 0.929 . S
C3158 C3159 1.377 . S
C3158 C3160 1.384 . S
C3159 C3158 1.377 . S
C3159 C3165 1.390 . S
C3160 H3151 0.930 . S
C3160 C3158 1.384 . S
C3160 C3161 1.372 . S
C3161 C3160 1.372 . S
C3161 C3162 1.400 . S
C3161 C3166 1.490 . S
C3162 H3152 0.930 . S
C3162 C3161 1.400 . S
C3162 C3165 1.386 . S
H3163 C3179 0.930 . S
H3164 C3180 0.931 . S
C3165 H3153 0.929 . S
C3165 C3159 1.390 . S
C3165 C3162 1.386 . S
C3166 C3161 1.490 . S
C3166 C3168 1.395 . S
C3166 C3169 1.403 . S
H3167 C3173 0.930 . S
C3168 H3154 0.930 . S
C3168 C3166 1.395 . S
C3168 C3171 1.403 . S
C3169 C3166 1.403 . S
C3169 C3170 1.524 . S
C3169 C3173 1.400 . S
C3170 H3155 0.960 . S
C3170 H3156 0.960 . S
C3170 H3157 0.960 . S
C3170 C3169 1.524 . S
C3171 C3168 1.403 . S
C3171 C3172 1.392 . S
C3171 C3175 1.495 . S
C3172 C3171 1.392 . S
C3172 C3173 1.385 . S
C3172 C3174 1.478 . S
C3173 H3167 0.930 . S
C3173 C3169 1.400 . S
C3173 C3172 1.385 . S
C3174 C3172 1.478 . S
C3174 C3176 1.381 . S
C3174 C3180 1.383 . S
C3175 C3171 1.495 . S
C3175 H3181 0.959 . S
C3175 H3182 0.961 . S
C3175 H3183 0.960 . S
C3176 C3174 1.381 . S
C3176 C3177 1.394 . S
C3176 H3184 0.930 . S
C3177 C3176 1.394 . S
C3177 C3178 1.383 . S
C3177 H3185 0.929 . S
C3178 C3177 1.383 . S
C3178 C3179 1.377 . S
C3179 H3163 0.930 . S
C3179 C3178 1.377 . S
C3179 C3180 1.379 . S
C3180 H3164 0.931 . S
C3180 C3174 1.383 . S
C3180 C3179 1.379 . S
H3181 C3175 0.959 . S
H3182 C3175 0.961 . S
H3183 C3175 0.960 . S
H3184 C3176 0.930 . S
H3185 C3177 0.929 . S
H3186 C3194 0.929 . S
H3187 C3196 0.930 . S
H3188 C3198 0.930 . S
H3189 C3201 0.929 . S
H3190 C3204 0.930 1_565 S
H3191 C3206 0.960 . S
H3192 C3206 0.960 . S
H3193 C3206 0.960 . S
C3194 H3186 0.929 . S
C3194 C3195 1.377 . S
C3194 C3196 1.384 . S
C3195 C3194 1.377 . S
C3195 C3201 1.390 . S
C3196 H3187 0.930 . S
C3196 C3194 1.384 . S
C3196 C3197 1.372 . S
C3197 C3196 1.372 . S
C3197 C3198 1.400 . S
C3197 C3202 1.490 . S
C3198 H3188 0.930 . S
C3198 C3197 1.400 . S
C3198 C3201 1.386 . S
H3199 C3215 0.930 . S
H3200 C3216 0.931 . S
C3201 H3189 0.929 . S
C3201 C3195 1.390 . S
C3201 C3198 1.386 . S
C3202 C3197 1.490 . S
C3202 C3204 1.395 . S
C3202 C3205 1.403 . S
H3203 C3209 0.930 . S
C3204 H3190 0.930 1_545 S
C3204 C3202 1.395 . S
C3204 C3207 1.405 1_545 S
C3205 C3202 1.403 . S
C3205 C3206 1.524 . S
C3205 C3209 1.400 . S
C3206 H3191 0.960 . S
C3206 H3192 0.960 . S
C3206 H3193 0.960 . S
C3206 C3205 1.524 . S
C3207 C3204 1.405 1_565 S
C3207 C3208 1.389 1_565 S
C3207 C3211 1.496 . S
C3208 C3207 1.389 1_545 S
C3208 C3209 1.385 . S
C3208 C3210 1.478 . S
C3209 H3203 0.930 . S
C3209 C3205 1.400 . S
C3209 C3208 1.385 . S
C3210 C3208 1.478 . S
C3210 C3212 1.381 . S
C3210 C3216 1.383 1_545 S
C3211 C3207 1.496 . S
C3211 H3217 0.959 . S
C3211 H3218 0.961 . S
C3211 H3219 0.960 . S
C3212 C3210 1.381 . S
C3212 C3213 1.394 . S
C3212 H3220 0.930 . S
C3213 C3212 1.394 . S
C3213 C3214 1.409 . S
C3213 H3221 0.929 . S
C3214 C3213 1.409 . S
C3214 C3215 1.333 1_545 S
C3215 H3199 0.930 . S
C3215 C3214 1.333 1_565 S
C3215 C3216 1.379 . S
C3216 H3200 0.931 . S
C3216 C3210 1.383 1_565 S
C3216 C3215 1.379 . S
H3217 C3211 0.959 . S
H3218 C3211 0.961 . S
H3219 C3211 0.960 . S
H3220 C3212 0.930 . S
H3221 C3213 0.929 . S
C639 C4 1.553 . S
C658 C458 1.519 1_655 S
C675 C26 1.575 . S
C694 C471 1.538 . S
C730 C500 1.470 1_545 S
C711 C32 1.483 . S
C747 C40 1.500 . S
C766 C513 1.443 . S
C783 C12 1.553 . S
C802 C534 1.529 . S
C819 C18 1.515 . S
C838 C563 1.521 . S
C855 C46 1.535 . S
C874 C542 1.548 . S
C910 C555 1.517 . S
C891 C68 1.560 . S
C946 C521 1.467 . S
C927 C74 1.490 . S
C963 C82 1.483 . S
C982 C492 1.439 1_545 S
C1018 C450 1.495 . S
C999 C54 1.559 . S
C1035 C60 1.499 . S
C1054 C479 1.489 . S
C1071 C88 1.589 . S
C1090 C584 1.545 . S
C1107 C110 1.600 . S
C1126 C597 1.555 . S
C1162 C626 1.485 . S
C1143 C116 1.545 . S
C1179 C124 1.519 . S
C1198 C261 1.455 . S
C1215 C96 1.571 . S
C1234 C282 1.505 . S
C1251 C102 1.527 . S
C1270 C311 1.517 . S
C1287 C130 1.559 . S
C1306 C290 1.535 . S
C1323 C152 1.594 . S
C1342 C303 1.498 . S
C1378 C269 1.563 . S
C1359 C158 1.535 . S
C1414 C618 1.490 . S
C1395 C166 1.530 . S
C1450 C576 1.514 . S
C1431 C138 1.555 . S
C1486 C605 1.548 . S
C1467 C144 1.527 . S
C1503 C172 1.578 . S
C1522 C332 1.522 . S
C1539 C194 1.604 . S
C1558 C345 1.544 . S
C1575 C200 1.546 . S
C1594 C374 1.548 . S
C1611 C208 1.531 . S
C1630 C387 1.510 . S
C1666 C408 1.505 . S
C1647 C180 1.572 . S
C1702 C437 1.490 . S
C1683 C186 1.535 . S
C1738 C416 1.608 . S
C1719 C214 1.583 . S
C1774 C429 1.488 . S
C1755 C236 1.584 . S
C1791 C242 1.516 . S
C1810 C395 1.523 . S
C1846 C366 1.462 . S
C1827 C250 1.500 . S
C1863 C222 1.566 . S
C1882 C324 1.506 . S
C1918 C353 1.542 . S
C1899 C228 1.522 . S
C1954 C264 1.288 . S
C1935 C5 1.147 . S
C1971 C25 1.255 . S
C1990 C285 1.194 . S
C2026 C313 1.252 . S
C2007 C33 1.176 . S
C2062 C334 1.090 . S
C2043 C39 1.205 . S
C2098 C348 1.203 . S
C2079 C11 1.274 . S
C2134 C376 1.239 . S
C2115 C19 1.113 1_556 S
C2151 C47 1.177 1_556 S
C2170 C369 1.238 . S
C2187 C67 1.272 . S
C2206 C327 1.142 . S
C2223 C75 1.170 1_556 S
C2242 C355 1.289 . S
C2259 C81 1.251 . S
C2278 C292 1.155 . S
C2314 C306 1.120 . S
C2295 C53 1.270 . S
C2331 C61 1.128 . S
C2350 C271 1.268 . S
C2386 C390 1.278 . S
C2367 C89 1.130 . S
C2403 C109 1.315 . S
C2422 C411 1.262 . S
C2439 C117 1.148 . S
C2458 C439 1.269 . S
C2494 C460 1.143 . S
C2475 C123 1.190 . S
C2511 C95 1.262 . S
C2530 C474 1.143 . S
C2547 C103 1.084 . S
C2566 C502 1.211 . S
C2583 C131 1.108 . S
C2602 C495 1.158 . S
C2619 C151 1.244 . S
C2638 C453 1.127 . S
C2674 C481 1.207 . S
C2655 C159 1.116 . S
C2691 C165 1.254 . S
C2710 C418 1.217 . S
C2727 C137 1.327 . S
C2746 C432 1.239 . S
C2782 C397 1.239 . S
C2763 C145 1.140 . S
C2818 C516 1.084 1_545 S
C2799 C173 1.099 . S
C2835 C193 1.219 . S
C2854 C537 1.156 1_655 S
C2871 C201 1.124 . S
C2890 C565 1.222 . S
C2926 C586 1.123 . S
C2907 C207 1.229 . S
C2962 C600 1.184 . S
C2943 C179 1.320 . S
C2979 C187 1.134 . S
C2998 C628 1.238 . S
C3015 C215 1.151 . S
C3034 C621 1.205 . S
C3051 C235 1.322 . S
C3070 C579 1.229 . S
C3106 C607 1.261 . S
C3087 C243 1.156 . S
C3142 C544 1.148 1_655 S
C3123 C249 1.183 . S
C3178 C558 1.108 . S
C3159 C221 1.287 . S
C3195 C229 1.093 . S
C3214 C523 1.221 1_545 S
