# Generated by pormake.
# Topology pth, (4,4)-cn, num edge types: 1
# Building blocks:
#     Node 0, Type 0, BuildingBlock: TATPOV_clean_sbu_0, # of connection points: 4
#     Node 1, Type 0, BuildingBlock: TATPOV_clean_sbu_0, # of connection points: 4
#     Node 2, Type 0, BuildingBlock: TATPOV_clean_sbu_0, # of connection points: 4
#     Node 3, Type 1, BuildingBlock: MIFKUJ_clean_linker_1, # of connection points: 4
#     Node 4, Type 1, BuildingBlock: MIFKUJ_clean_linker_1, # of connection points: 4
#     Node 5, Type 1, BuildingBlock: MIFKUJ_clean_linker_1, # of connection points: 4
#     Edge 6, Type (0, 1), BuildingBlock: XIVTED_clean_linker_0, # of connection points: 2
#     Edge 7, Type (0, 1), BuildingBlock: XIVTED_clean_linker_0, # of connection points: 2
#     Edge 8, Type (0, 1), BuildingBlock: XIVTED_clean_linker_0, # of connection points: 2
#     Edge 9, Type (0, 1), BuildingBlock: XIVTED_clean_linker_0, # of connection points: 2
#     Edge 10, Type (0, 1), BuildingBlock: XIVTED_clean_linker_0, # of connection points: 2
#     Edge 11, Type (0, 1), BuildingBlock: XIVTED_clean_linker_0, # of connection points: 2
#     Edge 12, Type (0, 1), BuildingBlock: XIVTED_clean_linker_0, # of connection points: 2
#     Edge 13, Type (0, 1), BuildingBlock: XIVTED_clean_linker_0, # of connection points: 2
#     Edge 14, Type (0, 1), BuildingBlock: XIVTED_clean_linker_0, # of connection points: 2
#     Edge 15, Type (0, 1), BuildingBlock: XIVTED_clean_linker_0, # of connection points: 2
#     Edge 16, Type (0, 1), BuildingBlock: XIVTED_clean_linker_0, # of connection points: 2
#     Edge 17, Type (0, 1), BuildingBlock: XIVTED_clean_linker_0, # of connection points: 2
# Relax obj value: 0.038
# Max RMSD: 0.160
# Mean RMSD: 0.089
data_MOF--net-pth--node1-TATPOV_clean_sbu_0--node2-MIFKUJ_clean_linker_1--edge1-XIVTED_clean_linker_0
_symmetry_space_group_name_H-M    P1
_symmetry_Int_Tables_number       1
_symmetry_cell_setting            triclinic
loop_
_symmetry_equiv_pos_as_xyz
'x, y, z'
_cell_length_a     29.87634
_cell_length_b     29.645395
_cell_length_c     62.356706
_cell_angle_alpha  92.638848
_cell_angle_beta   92.207414
_cell_angle_gamma 120.9321
loop_
_atom_site_label
_atom_site_type_symbol
_atom_site_fract_x
_atom_site_fract_y
_atom_site_fract_z
_atom_type_partial_charge
Zn0 Zn 0.11407 0.00279 0.01705 0.0
Zn1 Zn 0.06845 0.04425 0.04062 0.0
O2 O 0.0729 0.99291 0.06063 0.0
O3 O 0.10878 0.95772 0.04116 0.0
O4 O 0.03916 0.08063 0.05823 0.0
O5 O 0.1782 0.07428 0.01511 0.0
O6 O 0.13692 0.10772 0.03174 0.0
C7 C 0.08893 0.96069 0.05836 0.0
C8 C 0.01401 0.9811 0.9981 0.0
O9 O 0.01371 0.00552 0.0154 0.0
O10 O 0.05282 0.976 0.99473 0.0
C11 C 0.01647 0.06587 0.07558 0.0
O12 O 0.0096 0.02245 0.08332 0.0
C13 C 0.17649 0.11401 0.0222 0.0
Zn14 Zn 0.15221 0.11603 0.344 0.0
Zn15 Zn 0.074 0.07523 0.37066 0.0
O16 O 0.13919 0.0915 0.38998 0.0
O17 O 0.20329 0.12549 0.36832 0.0
O18 O 0.01547 0.05368 0.39049 0.0
O19 O 0.14013 0.17481 0.33738 0.0
O20 O 0.07268 0.13666 0.35713 0.0
C21 C 0.18738 0.111 0.38672 0.0
C22 C 0.06903 0.00714 0.33183 0.0
O23 O 0.04954 0.01139 0.34908 0.0
O24 O 0.11112 0.04591 0.32623 0.0
C25 C 0.02102 0.05831 0.41094 0.0
O26 O 0.06716 0.07441 0.42061 0.0
C27 C 0.10031 0.17255 0.34484 0.0
Zn28 Zn 0.08371 0.90732 0.72393 0.0
Zn29 Zn 0.04423 0.96054 0.70435 0.0
O30 O 0.08956 0.95246 0.68245 0.0
O31 O 0.11776 0.90435 0.69684 0.0
O32 O 0.00623 0.98717 0.68667 0.0
O33 O 0.01147 0.84801 0.7298 0.0
O34 O 0.9824 0.89554 0.71563 0.0
C35 C 0.11559 0.92944 0.68133 0.0
C36 C 0.11684 0.01394 0.74379 0.0
O37 O 0.08819 0.01592 0.72865 0.0
O38 O 0.12084 0.97345 0.74494 0.0
C39 C 0.0092 0.03154 0.68782 0.0
O40 O 0.04207 0.06888 0.70228 0.0
C41 C 0.97397 0.8549 0.72499 0.0
H42 H 0.01145 0.45519 0.16455 0.0
H43 H 0.01764 0.38598 0.14489 0.0
H44 H 0.88278 0.26777 0.17484 0.0
H45 H 0.87668 0.33771 0.19464 0.0
H46 H 0.9434 0.48117 0.16252 0.0
H47 H 0.02058 0.43639 0.21502 0.0
H48 H 0.04489 0.39185 0.24054 0.0
H49 H 0.90658 0.35073 0.27419 0.0
H50 H 0.88091 0.39348 0.24771 0.0
H51 H 0.86589 0.53922 0.2352 0.0
H52 H 0.87621 0.61904 0.25399 0.0
H53 H 0.0331 0.70948 0.23331 0.0
H54 H 0.02253 0.63006 0.21474 0.0
H55 H 0.93269 0.49525 0.24146 0.0
H56 H 0.88735 0.57828 0.1824 0.0
H57 H 0.91294 0.65454 0.16114 0.0
H58 H 0.05415 0.65621 0.14667 0.0
H59 H 0.02794 0.58003 0.16737 0.0
C60 C 0.94329 0.40173 0.18094 0.0
C61 C 0.98294 0.4144 0.16683 0.0
C62 C 0.98641 0.37476 0.15557 0.0
C63 C 0.95029 0.32138 0.1581 0.0
C64 C 0.91129 0.30856 0.17262 0.0
C65 C 0.90773 0.34845 0.18391 0.0
C66 C 0.93907 0.44465 0.19208 0.0
C67 C 0.94065 0.48383 0.17978 0.0
C68 C 0.93695 0.44918 0.21468 0.0
C69 C 0.94829 0.41737 0.22914 0.0
C70 C 0.99456 0.41651 0.22748 0.0
C71 C 0.009 0.39187 0.24239 0.0
C72 C 0.97804 0.36832 0.25959 0.0
C73 C 0.93112 0.36824 0.26105 0.0
C74 C 0.91647 0.39275 0.24598 0.0
C75 C 0.94307 0.57907 0.22326 0.0
C76 C 0.90238 0.57638 0.23473 0.0
C77 C 0.90837 0.62187 0.24547 0.0
C78 C 0.95522 0.67062 0.24489 0.0
C79 C -0.00391 0.6728 0.23363 0.0
C80 C 0.99017 0.62744 0.22304 0.0
C81 C 0.93712 0.53123 0.21185 0.0
C82 C 0.93321 0.49101 0.22411 0.0
C83 C 0.94214 0.52819 0.18948 0.0
C84 C 0.95552 0.57322 0.17628 0.0
C85 C 0.92365 0.59509 0.17453 0.0
C86 C 0.93851 0.63884 0.16251 0.0
C87 C 0.98544 0.66128 0.15207 0.0
C88 C 0.01723 0.63931 0.15407 0.0
C89 C 0.00231 0.5957 0.16593 0.0
H90 H 0.69579 0.14123 0.5057 0.0
H91 H 0.76258 0.13705 0.48557 0.0
H92 H 0.72514 0.99237 0.51374 0.0
H93 H 0.65755 -0.00428 0.53327 0.0
H94 H 0.59581 0.08155 0.504 0.0
H95 H 0.72868 0.13798 0.56062 0.0
H96 H 0.79695 0.13564 0.58271 0.0
H97 H 0.68109 0.98426 0.60329 0.0
H98 H 0.61336 0.98628 0.58087 0.0
H99 H 0.47967 0.9708 0.57357 0.0
H100 H 0.40099 0.94874 0.59144 0.0
H101 H 0.41004 0.0906 0.57102 0.0
H102 H 0.49165 0.11467 0.55474 0.0
H103 H 0.57545 0.04826 0.58124 0.0
H104 H 0.4445 0.99387 0.51915 0.0
H105 H 0.38141 0.00379 0.49669 0.0
H106 H 0.50054 0.16547 0.48884 0.0
H107 H 0.56327 0.15496 0.51099 0.0
C108 C 0.67211 0.06928 0.5213 0.0
C109 C 0.70195 0.10861 0.50755 0.0
C110 C 0.74003 0.10618 0.49605 0.0
C111 C 0.74918 0.06452 0.4982 0.0
C112 C 0.71951 0.02537 0.51204 0.0
C113 C 0.681 0.02742 0.52328 0.0
C114 C 0.62996 0.07032 0.53284 0.0
C115 C 0.59187 0.07508 0.52098 0.0
C116 C 0.62482 0.06249 0.55504 0.0
C117 C 0.666 0.06207 0.56895 0.0
C118 C 0.71808 0.10424 0.56986 0.0
C119 C 0.75695 0.10307 0.58261 0.0
C120 C 0.74441 0.05965 0.59464 0.0
C121 C 0.69209 0.01792 0.59396 0.0
C122 C 0.65326 0.01921 0.5813 0.0
C123 C 0.49147 0.04413 0.56258 0.0
C124 C 0.46496 -0.00258 0.57307 0.0
C125 C 0.41928 0.9844 0.58302 0.0
C126 C 0.39833 0.0174 0.5825 0.0
C127 C 0.42501 0.06432 0.57196 0.0
C128 C 0.47145 0.07785 0.56235 0.0
C129 C 0.5401 0.05682 0.55215 0.0
C130 C 0.5797 0.05513 0.56429 0.0
C131 C 0.54713 0.06862 0.53035 0.0
C132 C 0.50845 0.07378 0.51678 0.0
C133 C 0.45682 0.03144 0.51262 0.0
C134 C 0.42079 0.03728 0.49989 0.0
C135 C 0.43594 0.08544 0.49096 0.0
C136 C 0.48776 0.12764 0.4952 0.0
C137 C 0.52365 0.12177 0.50789 0.0
H138 H 0.48856 0.40771 0.84746 0.0
H139 H 0.41832 0.32142 0.83221 0.0
H140 H 0.30378 0.35819 0.85329 0.0
H141 H 0.37464 0.44506 0.86849 0.0
H142 H 0.50923 0.50066 0.83481 0.0
H143 H 0.47859 0.41565 0.89749 0.0
H144 H 0.43327 0.36083 0.92633 0.0
H145 H 0.38866 0.47216 0.94767 0.0
H146 H 0.43253 0.52607 0.91793 0.0
H147 H 0.56467 0.67706 0.89605 0.0
H148 H 0.64137 0.75973 0.9114 0.0
H149 H 0.74086 0.69959 0.89411 0.0
H150 H 0.66454 0.61782 0.87885 0.0
H151 H 0.53389 0.57613 0.91001 0.0
H152 H 0.57469 0.65598 0.83767 0.0
H153 H 0.63638 0.69996 0.81032 0.0
H154 H 0.68692 0.58721 0.8145 0.0
H155 H 0.62276 0.54192 0.84059 0.0
C156 C 0.43674 0.43275 0.85902 0.0
C157 C 0.44831 0.39699 0.84898 0.0
C158 C 0.40815 0.34757 0.84044 0.0
C159 C 0.35559 0.33313 0.84157 0.0
C160 C 0.34398 0.36849 0.85209 0.0
C161 C 0.38431 0.41788 0.86086 0.0
C162 C 0.47968 0.48668 0.86633 0.0
C163 C 0.51439 0.51711 0.85126 0.0
C164 C 0.48698 0.50789 0.88784 0.0
C165 C 0.45798 0.47439 0.90523 0.0
C166 C 0.45828 0.42789 0.90811 0.0
C167 C 0.43311 0.39702 0.9249 0.0
C168 C 0.40763 0.41228 0.93945 0.0
C169 C 0.40755 0.45908 0.93664 0.0
C170 C 0.43272 0.48999 0.91971 0.0
C171 C 0.60905 0.64173 0.88601 0.0
C172 C 0.60318 0.68219 0.89534 0.0
C173 C 0.64695 0.72924 0.90415 0.0
C174 C 0.69727 0.73638 0.90387 0.0
C175 C 0.7029 0.69598 0.89416 0.0
C176 C 0.65924 0.64909 0.88541 0.0
C177 C 0.56266 0.59018 0.87839 0.0
C178 C 0.52737 0.56012 0.89342 0.0
C179 C 0.55632 0.56805 0.85715 0.0
C180 C 0.59432 0.59583 0.84103 0.0
C181 C 0.59901 0.64083 0.83251 0.0
C182 C 0.63461 0.66606 0.81698 0.0
C183 C 0.66687 0.64725 0.81002 0.0
C184 C 0.66205 0.60225 0.8189 0.0
C185 C 0.62572 0.57649 0.83402 0.0
H186 H 0.97721 0.0536 0.11545 0.0
H187 H 0.96784 0.31875 0.11556 0.0
H188 H 0.01917 0.154 0.06267 0.0
H189 H 0.93939 0.22907 0.17129 0.0
H190 H 0.97892 0.25366 0.09506 0.0
H191 H 0.95543 0.11231 0.13525 0.0
C192 C 0.98156 0.08776 0.10797 0.0
C193 C 0.00035 0.09905 0.08741 0.0
C194 C 0.97013 0.248 0.11176 0.0
C195 C 0.9755 0.16624 0.10995 0.0
C196 C 0.96402 0.28533 0.12351 0.0
C197 C 0.95336 0.27973 0.14526 0.0
C198 C 0.96561 0.20453 0.12177 0.0
C199 C 0.94751 0.23489 0.15455 0.0
C200 C 0.96919 0.12127 0.1193 0.0
C201 C 0.00514 0.14384 0.07851 0.0
N202 N 0.95408 0.19914 0.14278 0.0
N203 N 0.99296 0.17578 0.08985 0.0
H204 H 0.92731 0.04495 0.39594 0.0
H205 H 0.82389 0.04338 0.51247 0.0
H206 H 0.01585 0.05847 0.45478 0.0
H207 H 0.7637 0.07725 0.45538 0.0
H208 H 0.88797 0.03683 0.49123 0.0
H209 H 0.85971 0.04356 0.41719 0.0
C210 C 0.93235 0.0471 0.41333 0.0
C211 C 0.97753 0.05214 0.4236 0.0
C212 C 0.86074 0.04571 0.48338 0.0
C213 C 0.90023 0.05074 0.44801 0.0
C214 C 0.82411 0.04927 0.49545 0.0
C215 C 0.78863 0.06109 0.48566 0.0
C216 C 0.86142 0.05334 0.4613 0.0
C217 C 0.79078 0.0687 0.46359 0.0
C218 C 0.89384 0.04661 0.42545 0.0
C219 C 0.98182 0.05482 0.44619 0.0
N220 N 0.82643 0.06451 0.45214 0.0
N221 N 0.9437 0.05417 0.45765 0.0
H222 H 0.89666 0.87627 0.73123 0.0
H223 H 0.70086 0.60433 0.77909 0.0
H224 H 0.93314 0.75381 0.73679 0.0
H225 H 0.72325 0.75358 0.80413 0.0
H226 H 0.77106 0.65152 0.75533 0.0
H227 H 0.81627 0.82294 0.74918 0.0
C228 C 0.88729 0.83773 0.73584 0.0
C229 C 0.92183 0.81956 0.73268 0.0
C230 C 0.76007 0.67361 0.76596 0.0
C231 C 0.82999 0.75859 0.75304 0.0
C232 C 0.72032 0.64689 0.7797 0.0
C233 C 0.70626 0.67488 0.79403 0.0
C234 C 0.78519 0.72858 0.76613 0.0
C235 C 0.73197 0.72997 0.79333 0.0
C236 C 0.84164 0.8076 0.74619 0.0
C237 C 0.90778 0.76943 0.73908 0.0
N238 N 0.77018 0.75497 0.77964 0.0
N239 N 0.86286 0.74062 0.74902 0.0
H240 H 0.03798 0.94642 0.09564 0.0
H241 H 0.03047 0.67793 0.11366 0.0
H242 H 0.11812 0.88731 0.05809 0.0
H243 H 0.97663 0.7486 0.16015 0.0
H244 H 0.0602 0.75419 0.09274 0.0
H245 H 0.01405 0.87518 0.11957 0.0
C246 C 0.05109 0.91895 0.09256 0.0
C247 C 0.07977 0.92267 0.0747 0.0
C248 C 0.04209 0.75328 0.10756 0.0
C249 C 0.05198 0.8409 0.10179 0.0
C250 C 0.0252 0.7097 0.11958 0.0
C251 C 0.00142 0.70695 0.13884 0.0
C252 C 0.03486 0.79458 0.11464 0.0
C253 C 0.99441 0.74884 0.14532 0.0
C254 C 0.03727 0.87823 0.10618 0.0
C255 C 0.09567 0.88593 0.07152 0.0
N256 N 0.01107 0.79099 0.13323 0.0
N257 N 0.08121 0.84647 0.0848 0.0
H258 H 0.29343 0.15917 0.38619 0.0
H259 H 0.33169 0.04846 0.49574 0.0
H260 H 0.16644 0.06808 0.42596 0.0
H261 H 0.45472 0.1361 0.45384 0.0
H262 H 0.27099 0.05842 0.4717 0.0
H263 H 0.35374 0.15589 0.41247 0.0
C264 C 0.27821 0.13874 0.40055 0.0
C265 C 0.22464 0.11355 0.40378 0.0
C266 C 0.31134 0.07563 0.46785 0.0
C267 C 0.29381 0.10925 0.43401 0.0
C268 C 0.34593 0.06967 0.48148 0.0
C269 C 0.39845 0.0915 0.47682 0.0
C270 C 0.32938 0.10351 0.44941 0.0
C271 C 0.41485 0.11923 0.45828 0.0
C272 C 0.31276 0.1368 0.41557 0.0
C273 C 0.2074 0.08799 0.42279 0.0
N274 N 0.38047 0.1243 0.44527 0.0
N275 N 0.24186 0.08615 0.43714 0.0
H276 H 0.1175 0.10699 0.74719 0.0
H277 H 0.34455 0.23572 0.84214 0.0
H278 H 0.18359 0.02394 0.77744 0.0
H279 H 0.27191 0.31635 0.81545 0.0
H280 H 0.28158 0.15572 0.82011 0.0
H281 H 0.16983 0.18238 0.77337 0.0
C282 C 0.14282 0.10448 0.75937 0.0
C283 C 0.14643 0.05917 0.76 0.0
C284 C 0.27902 0.19072 0.8192 0.0
C285 C 0.20639 0.14529 0.78999 0.0
C286 C 0.31502 0.23639 0.83174 0.0
C287 C 0.31363 0.28277 0.83048 0.0
C288 C 0.24161 0.19152 0.80512 0.0
C289 C 0.27415 0.28133 0.81698 0.0
C290 C 0.1726 0.14751 0.77434 0.0
C291 C 0.17971 0.0581 0.77622 0.0
N292 N 0.24002 0.23658 0.80464 0.0
N293 N 0.20858 0.10061 0.79047 0.0
H294 H 0.0008 0.1196 0.68554 0.0
H295 H 0.75715 0.9753 0.59752 0.0
H296 H 0.93625 0.96088 0.65706 0.0
H297 H 0.8258 0.13823 0.62104 0.0
H298 H 0.82348 0.97039 0.61949 0.0
H299 H 0.93839 0.12868 0.66212 0.0
C300 C 0.97373 0.08679 0.67435 0.0
C301 C 0.97367 0.03934 0.67335 0.0
C302 C 0.82425 0.00734 0.61987 0.0
C303 C 0.90225 0.04939 0.64663 0.0
C304 C 0.78612 0.01003 0.60741 0.0
C305 C 0.7857 0.05712 0.60757 0.0
C306 C 0.86233 0.052 0.63273 0.0
C307 C 0.82488 0.10121 0.62037 0.0
C308 C 0.93815 0.092 0.66099 0.0
C309 C 0.93775 -0.00184 0.6585 0.0
N310 N 0.86151 0.09753 0.63254 0.0
N311 N 0.9035 0.00411 0.64583 0.0
H312 H 0.91605 0.96473 0.00323 0.0
H313 H 0.79688 0.79296 0.89073 0.0
H314 H 0.00708 0.94008 0.95712 0.0
H315 H 0.70304 0.78729 0.94266 0.0
H316 H 0.87479 0.86193 0.91191 0.0
H317 H 0.83839 0.91465 0.97818 0.0
C318 C 0.91987 0.94936 0.98775 0.0
C319 C 0.96798 0.95599 0.98237 0.0
C320 C 0.83705 0.84598 0.91857 0.0
C321 C 0.87945 0.89888 0.9537 0.0
C322 C 0.79259 0.80651 0.90651 0.0
C323 C 0.74343 0.7837 0.91506 0.0
C324 C 0.8324 0.86286 0.93933 0.0
C325 C 0.74006 0.80376 0.93539 0.0
C326 C 0.87551 0.92069 0.9735 0.0
C327 C 0.97066 0.93536 0.96207 0.0
N328 N 0.78405 0.84181 0.94694 0.0
N329 N 0.92695 0.90747 0.94853 0.0
H330 H 0.99205 0.90884 0.34199 0.0
H331 H -0.00032 0.76909 0.23037 0.0
H332 H 0.08841 0.9909 0.29074 0.0
H333 H 0.92724 0.68279 0.28525 0.0
H334 H 0.02008 0.85057 0.25058 0.0
H335 H 0.95601 0.82549 0.31973 0.0
C336 C 0.00528 0.90941 0.32602 0.0
C337 C 0.0437 0.95681 0.31829 0.0
C338 C -0.00054 0.81381 0.2582 0.0
C339 C 0.0026 0.862 0.29282 0.0
C340 C 0.98795 0.7673 0.24668 0.0
C341 C 0.96248 0.71921 0.25627 0.0
C342 C 0.98548 0.81242 0.2795 0.0
C343 C 0.94696 0.71904 0.27726 0.0
C344 C 0.9848 0.86187 0.31337 0.0
C345 C 0.05934 0.95528 0.29747 0.0
N346 N 0.95917 0.76507 0.28828 0.0
N347 N 0.03888 0.9087 0.28553 0.0
H348 H 0.15174 0.86644 0.66664 0.0
H349 H 0.37276 0.08409 0.60359 0.0
H350 H 0.15427 0.00999 0.65477 0.0
H351 H 0.3129 0.91871 0.58689 0.0
H352 H 0.29658 0.05964 0.62408 0.0
H353 H 0.21469 0.88579 0.63928 0.0
C354 C 0.16507 0.90167 0.65809 0.0
C355 C 0.14793 0.93674 0.66299 0.0
C356 C 0.30005 0.02884 0.61572 0.0
C357 C 0.22054 0.95958 0.63214 0.0
C358 C 0.34346 0.04271 0.6039 0.0
C359 C 0.34998 0.00348 0.59358 0.0
C360 C 0.26335 0.97542 0.61764 0.0
C361 C 0.31068 0.95045 0.59503 0.0
C362 C 0.20082 0.9126 0.64247 0.0
C363 C 0.16638 0.98182 0.65142 0.0
N364 N 0.26952 0.93797 0.6071 0.0
N365 N 0.20244 0.99246 0.63678 0.0
H366 H 0.17035 0.20289 0.02044 0.0
H367 H 0.44023 0.35957 0.96457 0.0
H368 H 0.27548 0.14547 0.01135 0.0
H369 H 0.31318 0.38795 0.95472 0.0
H370 H 0.3899 0.29484 0.99 0.0
H371 H 0.23273 0.28481 0.00492 0.0
C372 C 0.20704 0.20797 0.01564 0.0
C373 C 0.21751 0.16707 0.01691 0.0
C374 C 0.3733 0.31566 0.98243 0.0
C375 C 0.28867 0.26034 0.99918 0.0
C376 C 0.40184 0.35241 0.96781 0.0
C377 C 0.38045 0.37846 0.9571 0.0
C378 C 0.32303 0.30496 0.98651 0.0
C379 C 0.33122 0.36877 0.96253 0.0
C380 C 0.24239 0.25455 0.00666 0.0
C381 C 0.26557 0.17572 0.0104 0.0
N382 N 0.30389 0.33233 0.97669 0.0
N383 N 0.29918 0.22123 0.00166 0.0
H384 H 0.00318 0.16049 0.34625 0.0
H385 H 0.07741 0.40748 0.27742 0.0
H386 H 0.15788 0.26507 0.32604 0.0
H387 H 0.91917 0.27686 0.27964 0.0
H388 H 0.10761 0.36542 0.30199 0.0
H389 H 0.97253 0.21318 0.32884 0.0
C390 C 0.0309 0.19504 0.33849 0.0
C391 C 0.08307 0.20816 0.33739 0.0
C392 C 0.06624 0.34609 0.29719 0.0
C393 C 0.04826 0.2683 0.31751 0.0
C394 C 0.04896 0.36988 0.28305 0.0
C395 C 0.99576 0.34513 0.27607 0.0
C396 C 0.03013 0.29726 0.30457 0.0
C397 C 0.96053 0.29731 0.28453 0.0
C398 C 0.01329 0.22483 0.32846 0.0
C399 C 0.11723 0.25323 0.32708 0.0
N400 N 0.97841 0.27466 0.29822 0.0
N401 N 0.09916 0.28151 0.31745 0.0
loop_
_geom_bond_atom_site_label_1
_geom_bond_atom_site_label_2
_geom_bond_distance
_geom_bond_site_symmetry_2
_ccdc_geom_bond_type
Zn0 O3 2.031 . S
Zn0 O5 2.046 1_565 S
Zn0 O10 2.067 . S
Zn1 O2 1.962 . S
Zn1 O4 1.986 . S
Zn1 O6 1.996 . S
Zn1 O9 1.943 . S
O2 Zn1 1.962 . S
O2 C7 1.254 1_545 S
O3 Zn0 2.031 . S
O3 C7 1.269 . S
O4 Zn1 1.986 . S
O4 C11 1.262 . S
O5 Zn0 2.046 1_545 S
O5 C13 1.257 . S
O6 Zn1 1.996 . S
O6 C13 1.257 . S
C7 O2 1.254 1_565 S
C7 O3 1.269 . S
C8 O9 1.249 1_565 S
C8 O10 1.270 . S
O9 Zn1 1.943 . S
O9 C8 1.249 1_545 S
O10 Zn0 2.067 . S
O10 C8 1.270 . S
C11 O4 1.262 . S
C11 O12 1.232 . S
O12 C11 1.232 . S
C13 O5 1.257 . S
C13 O6 1.257 . S
Zn14 O17 2.031 . S
Zn14 O19 2.049 . S
Zn14 O24 2.067 . S
Zn15 O16 1.962 . S
Zn15 O18 1.986 1_455 S
Zn15 O20 1.996 . S
Zn15 O23 1.956 1_455 S
O16 Zn15 1.962 . S
O16 C21 1.254 . S
O17 Zn14 2.031 . S
O17 C21 1.269 . S
O18 Zn15 1.986 1_655 S
O18 C25 1.262 . S
O19 Zn14 2.049 . S
O19 C27 1.260 . S
O20 Zn15 1.996 . S
O20 C27 1.257 . S
C21 O16 1.254 . S
C21 O17 1.269 . S
C22 O23 1.241 1_465 S
C22 O24 1.270 1_565 S
O23 Zn15 1.956 1_655 S
O23 C22 1.241 1_645 S
O24 Zn14 2.067 . S
O24 C22 1.270 1_545 S
C25 O18 1.262 . S
C25 O26 1.232 . S
O26 C25 1.232 . S
C27 O19 1.260 . S
C27 O20 1.257 . S
Zn28 O31 2.031 1_565 S
Zn28 O33 2.049 . S
Zn28 O38 2.067 1_565 S
Zn29 O30 1.962 1_545 S
Zn29 O32 1.986 1_445 S
Zn29 O34 1.996 1_445 S
Zn29 O37 1.943 . S
O30 Zn29 1.962 1_565 S
O30 C35 1.254 . S
O31 Zn28 2.031 1_545 S
O31 C35 1.269 1_545 S
O32 Zn29 1.986 1_665 S
O32 C39 1.262 1_565 S
O33 Zn28 2.049 . S
O33 C41 1.260 1_455 S
O34 Zn29 1.996 1_665 S
O34 C41 1.257 . S
C35 O30 1.254 . S
C35 O31 1.269 1_565 S
C36 O37 1.249 . S
C36 O38 1.270 . S
O37 Zn29 1.943 . S
O37 C36 1.249 . S
O38 Zn28 2.067 1_545 S
O38 C36 1.270 . S
C39 O32 1.262 1_545 S
C39 O40 1.232 1_655 S
O40 C39 1.232 1_455 S
C41 O33 1.260 1_655 S
C41 O34 1.257 . S
H42 C61 0.949 . S
H43 C62 0.950 . S
H44 C64 0.950 1_655 S
H45 C65 0.950 1_655 S
H46 C67 0.950 . S
H47 C70 0.950 . S
H48 C71 0.950 . S
H49 C73 0.951 . S
H50 C74 0.949 . S
H51 C76 0.949 . S
H52 C77 0.950 . S
H53 C79 0.950 . S
H54 C80 0.950 . S
H55 C82 0.950 . S
H56 C85 0.950 1_655 S
H57 C86 0.950 1_655 S
H58 C88 0.951 . S
H59 C89 0.949 . S
C60 C61 1.376 . S
C60 C65 1.386 . S
C60 C66 1.483 . S
C61 H42 0.949 . S
C61 C60 1.376 . S
C61 C62 1.397 . S
C62 H43 0.950 . S
C62 C61 1.397 . S
C62 C63 1.391 . S
C63 C62 1.391 . S
C63 C64 1.405 . S
C64 H44 0.950 1_455 S
C64 C63 1.405 . S
C64 C65 1.367 . S
C65 H45 0.950 1_455 S
C65 C60 1.386 . S
C65 C64 1.367 . S
C66 C60 1.483 . S
C66 C67 1.382 . S
C66 C68 1.403 . S
C67 H46 0.950 . S
C67 C66 1.382 . S
C67 C83 1.411 . S
C68 C66 1.403 . S
C68 C69 1.489 . S
C68 C82 1.411 . S
C69 C68 1.489 . S
C69 C70 1.383 . S
C69 C74 1.382 1_455 S
C70 H47 0.950 . S
C70 C69 1.383 . S
C70 C71 1.395 . S
C71 H48 0.950 . S
C71 C70 1.395 . S
C71 C72 1.288 . S
C72 C71 1.288 . S
C72 C73 1.392 1_455 S
C73 H49 0.951 . S
C73 C72 1.392 1_655 S
C73 C74 1.392 . S
C74 H50 0.949 . S
C74 C69 1.382 1_655 S
C74 C73 1.392 . S
C75 C76 1.376 1_455 S
C75 C80 1.386 . S
C75 C81 1.483 . S
C76 H51 0.949 . S
C76 C75 1.376 1_655 S
C76 C77 1.397 . S
C77 H52 0.950 . S
C77 C76 1.397 . S
C77 C78 1.391 1_655 S
C78 C77 1.391 1_455 S
C78 C79 1.405 . S
C79 H53 0.950 . S
C79 C78 1.405 . S
C79 C80 1.367 . S
C80 H54 0.950 . S
C80 C75 1.386 . S
C80 C79 1.367 . S
C81 C75 1.483 . S
C81 C82 1.382 . S
C81 C83 1.403 . S
C82 H55 0.950 . S
C82 C68 1.411 . S
C82 C81 1.382 . S
C83 C67 1.411 . S
C83 C81 1.403 . S
C83 C84 1.489 . S
C84 C83 1.489 . S
C84 C85 1.383 . S
C84 C89 1.382 . S
C85 H56 0.950 1_455 S
C85 C84 1.383 . S
C85 C86 1.395 . S
C86 H57 0.950 1_455 S
C86 C85 1.395 . S
C86 C87 1.288 . S
C87 C86 1.288 . S
C87 C88 1.392 . S
C88 H58 0.951 . S
C88 C87 1.392 . S
C88 C89 1.392 . S
C89 H59 0.949 . S
C89 C84 1.382 . S
C89 C88 1.392 . S
H90 C109 0.949 . S
H91 C110 0.950 . S
H92 C112 0.950 . S
H93 C113 0.950 . S
H94 C115 0.950 . S
H95 C118 0.950 . S
H96 C119 0.950 . S
H97 C121 0.951 . S
H98 C122 0.949 . S
H99 C124 0.949 . S
H100 C125 0.950 . S
H101 C127 0.950 . S
H102 C128 0.950 . S
H103 C130 0.950 . S
H104 C133 0.950 1_565 S
H105 C134 0.950 1_565 S
H106 C136 0.951 . S
H107 C137 0.949 . S
C108 C109 1.376 . S
C108 C113 1.386 1_545 S
C108 C114 1.483 . S
C109 H90 0.949 . S
C109 C108 1.376 . S
C109 C110 1.397 . S
C110 H91 0.950 . S
C110 C109 1.397 . S
C110 C111 1.391 . S
C111 C110 1.391 . S
C111 C112 1.405 1_545 S
C112 H92 0.950 . S
C112 C111 1.405 1_565 S
C112 C113 1.367 . S
C113 H93 0.950 . S
C113 C108 1.386 1_565 S
C113 C112 1.367 . S
C114 C108 1.483 . S
C114 C115 1.382 . S
C114 C116 1.403 . S
C115 H94 0.950 . S
C115 C114 1.382 . S
C115 C131 1.411 . S
C116 C114 1.403 . S
C116 C117 1.489 . S
C116 C130 1.411 . S
C117 C116 1.489 . S
C117 C118 1.383 . S
C117 C122 1.382 1_545 S
C118 H95 0.950 . S
C118 C117 1.383 . S
C118 C119 1.395 . S
C119 H96 0.950 . S
C119 C118 1.395 . S
C119 C120 1.288 . S
C120 C119 1.288 . S
C120 C121 1.392 1_545 S
C121 H97 0.951 . S
C121 C120 1.392 1_565 S
C121 C122 1.392 . S
C122 H98 0.949 . S
C122 C117 1.382 1_565 S
C122 C121 1.392 . S
C123 C124 1.376 1_545 S
C123 C128 1.386 . S
C123 C129 1.483 . S
C124 H99 0.949 . S
C124 C123 1.376 1_565 S
C124 C125 1.397 . S
C125 H100 0.950 . S
C125 C124 1.397 . S
C125 C126 1.391 1_565 S
C126 C125 1.391 1_545 S
C126 C127 1.405 . S
C127 H101 0.950 . S
C127 C126 1.405 . S
C127 C128 1.367 . S
C128 H102 0.950 . S
C128 C123 1.386 . S
C128 C127 1.367 . S
C129 C123 1.483 . S
C129 C130 1.382 . S
C129 C131 1.403 . S
C130 H103 0.950 . S
C130 C116 1.411 . S
C130 C129 1.382 . S
C131 C115 1.411 . S
C131 C129 1.403 . S
C131 C132 1.489 . S
C132 C131 1.489 . S
C132 C133 1.383 . S
C132 C137 1.382 . S
C133 H104 0.950 1_545 S
C133 C132 1.383 . S
C133 C134 1.395 . S
C134 H105 0.950 1_545 S
C134 C133 1.395 . S
C134 C135 1.288 . S
C135 C134 1.288 . S
C135 C136 1.392 . S
C136 H106 0.951 . S
C136 C135 1.392 . S
C136 C137 1.392 . S
C137 H107 0.949 . S
C137 C132 1.382 . S
C137 C136 1.392 . S
H138 C157 0.949 . S
H139 C158 0.950 . S
H140 C160 0.950 . S
H141 C161 0.950 . S
H142 C163 0.950 . S
H143 C166 0.950 . S
H144 C167 0.950 . S
H145 C169 0.951 . S
H146 C170 0.949 . S
H147 C172 0.949 . S
H148 C173 0.950 . S
H149 C175 0.950 . S
H150 C176 0.950 . S
H151 C178 0.950 . S
H152 C181 0.950 . S
H153 C182 0.950 . S
H154 C184 0.951 . S
H155 C185 0.949 . S
C156 C157 1.376 . S
C156 C161 1.386 . S
C156 C162 1.483 . S
C157 H138 0.949 . S
C157 C156 1.376 . S
C157 C158 1.397 . S
C158 H139 0.950 . S
C158 C157 1.397 . S
C158 C159 1.391 . S
C159 C158 1.391 . S
C159 C160 1.405 . S
C160 H140 0.950 . S
C160 C159 1.405 . S
C160 C161 1.367 . S
C161 H141 0.950 . S
C161 C156 1.386 . S
C161 C160 1.367 . S
C162 C156 1.483 . S
C162 C163 1.382 . S
C162 C164 1.403 . S
C163 H142 0.950 . S
C163 C162 1.382 . S
C163 C179 1.411 . S
C164 C162 1.403 . S
C164 C165 1.489 . S
C164 C178 1.411 . S
C165 C164 1.489 . S
C165 C166 1.383 . S
C165 C170 1.382 . S
C166 H143 0.950 . S
C166 C165 1.383 . S
C166 C167 1.395 . S
C167 H144 0.950 . S
C167 C166 1.395 . S
C167 C168 1.288 . S
C168 C167 1.288 . S
C168 C169 1.392 . S
C169 H145 0.951 . S
C169 C168 1.392 . S
C169 C170 1.392 . S
C170 H146 0.949 . S
C170 C165 1.382 . S
C170 C169 1.392 . S
C171 C172 1.376 . S
C171 C176 1.386 . S
C171 C177 1.483 . S
C172 H147 0.949 . S
C172 C171 1.376 . S
C172 C173 1.397 . S
C173 H148 0.950 . S
C173 C172 1.397 . S
C173 C174 1.391 . S
C174 C173 1.391 . S
C174 C175 1.405 . S
C175 H149 0.950 . S
C175 C174 1.405 . S
C175 C176 1.367 . S
C176 H150 0.950 . S
C176 C171 1.386 . S
C176 C175 1.367 . S
C177 C171 1.483 . S
C177 C178 1.382 . S
C177 C179 1.403 . S
C178 H151 0.950 . S
C178 C164 1.411 . S
C178 C177 1.382 . S
C179 C163 1.411 . S
C179 C177 1.403 . S
C179 C180 1.489 . S
C180 C179 1.489 . S
C180 C181 1.383 . S
C180 C185 1.382 . S
C181 H152 0.950 . S
C181 C180 1.383 . S
C181 C182 1.395 . S
C182 H153 0.950 . S
C182 C181 1.395 . S
C182 C183 1.288 . S
C183 C182 1.288 . S
C183 C184 1.392 . S
C184 H154 0.951 . S
C184 C183 1.392 . S
C184 C185 1.392 . S
C185 H155 0.949 . S
C185 C180 1.382 . S
C185 C184 1.392 . S
H186 C192 0.930 . S
H187 C196 0.930 . S
H188 C201 0.929 . S
H189 C199 0.929 . S
H190 C194 0.929 . S
H191 C200 0.929 . S
C192 H186 0.930 . S
C192 C193 1.367 . S
C192 C200 1.378 . S
C193 C192 1.367 . S
C193 C201 1.433 . S
C194 H190 0.929 . S
C194 C196 1.378 . S
C194 C198 1.350 . S
C195 C198 1.463 . S
C195 C200 1.350 . S
C195 N203 1.427 . S
C196 H187 0.930 . S
C196 C194 1.378 . S
C196 C197 1.367 . S
C197 C196 1.367 . S
C197 C199 1.433 . S
C198 C194 1.350 . S
C198 C195 1.463 . S
C198 N202 1.427 . S
C199 H189 0.929 . S
C199 C197 1.433 . S
C199 N202 1.384 . S
C200 H191 0.929 . S
C200 C192 1.378 . S
C200 C195 1.350 . S
C201 H188 0.929 . S
C201 C193 1.433 . S
C201 N203 1.384 . S
N202 C198 1.427 . S
N202 C199 1.384 . S
N203 C195 1.427 . S
N203 C201 1.384 . S
H204 C210 0.930 . S
H205 C214 0.930 1_565 S
H206 C219 0.929 1_565 S
H207 C217 0.929 . S
H208 C212 0.929 1_565 S
H209 C218 0.929 . S
C210 H204 0.930 . S
C210 C211 1.367 . S
C210 C218 1.378 . S
C211 C210 1.367 . S
C211 C219 1.433 . S
C212 H208 0.929 1_545 S
C212 C214 1.378 . S
C212 C216 1.350 . S
C213 C216 1.463 . S
C213 C218 1.350 . S
C213 N221 1.427 . S
C214 H205 0.930 1_545 S
C214 C212 1.378 . S
C214 C215 1.367 . S
C215 C214 1.367 . S
C215 C217 1.433 . S
C216 C212 1.350 . S
C216 C213 1.463 . S
C216 N220 1.427 . S
C217 H207 0.929 . S
C217 C215 1.433 . S
C217 N220 1.384 . S
C218 H209 0.929 . S
C218 C210 1.378 . S
C218 C213 1.350 . S
C219 H206 0.929 1_545 S
C219 C211 1.433 . S
C219 N221 1.384 . S
N220 C216 1.427 . S
N220 C217 1.384 . S
N221 C213 1.427 . S
N221 C219 1.384 . S
H222 C228 0.930 . S
H223 C232 0.930 . S
H224 C237 0.929 . S
H225 C235 0.929 . S
H226 C230 0.929 . S
H227 C236 0.929 . S
C228 H222 0.930 . S
C228 C229 1.367 . S
C228 C236 1.378 . S
C229 C228 1.367 . S
C229 C237 1.433 . S
C230 H226 0.929 . S
C230 C232 1.378 . S
C230 C234 1.350 . S
C231 C234 1.463 . S
C231 C236 1.350 . S
C231 N239 1.427 . S
C232 H223 0.930 . S
C232 C230 1.378 . S
C232 C233 1.367 . S
C233 C232 1.367 . S
C233 C235 1.433 . S
C234 C230 1.350 . S
C234 C231 1.463 . S
C234 N238 1.427 . S
C235 H225 0.929 . S
C235 C233 1.433 . S
C235 N238 1.384 . S
C236 H227 0.929 . S
C236 C228 1.378 . S
C236 C231 1.350 . S
C237 H224 0.929 . S
C237 C229 1.433 . S
C237 N239 1.384 . S
N238 C234 1.427 . S
N238 C235 1.384 . S
N239 C231 1.427 . S
N239 C237 1.384 . S
H240 C246 0.930 . S
H241 C250 0.930 . S
H242 C255 0.929 . S
H243 C253 0.929 . S
H244 C248 0.929 . S
H245 C254 0.929 . S
C246 H240 0.930 . S
C246 C247 1.367 . S
C246 C254 1.378 . S
C247 C246 1.367 . S
C247 C255 1.433 . S
C248 H244 0.929 . S
C248 C250 1.378 . S
C248 C252 1.350 . S
C249 C252 1.463 . S
C249 C254 1.350 . S
C249 N257 1.427 . S
C250 H241 0.930 . S
C250 C248 1.378 . S
C250 C251 1.367 . S
C251 C250 1.367 . S
C251 C253 1.433 . S
C252 C248 1.350 . S
C252 C249 1.463 . S
C252 N256 1.427 . S
C253 H243 0.929 . S
C253 C251 1.433 . S
C253 N256 1.384 . S
C254 H245 0.929 . S
C254 C246 1.378 . S
C254 C249 1.350 . S
C255 H242 0.929 . S
C255 C247 1.433 . S
C255 N257 1.384 . S
N256 C252 1.427 . S
N256 C253 1.384 . S
N257 C249 1.427 . S
N257 C255 1.384 . S
H258 C264 0.930 . S
H259 C268 0.930 . S
H260 C273 0.929 . S
H261 C271 0.929 . S
H262 C266 0.929 . S
H263 C272 0.929 . S
C264 H258 0.930 . S
C264 C265 1.367 . S
C264 C272 1.378 . S
C265 C264 1.367 . S
C265 C273 1.433 . S
C266 H262 0.929 . S
C266 C268 1.378 . S
C266 C270 1.350 . S
C267 C270 1.463 . S
C267 C272 1.350 . S
C267 N275 1.427 . S
C268 H259 0.930 . S
C268 C266 1.378 . S
C268 C269 1.367 . S
C269 C268 1.367 . S
C269 C271 1.433 . S
C270 C266 1.350 . S
C270 C267 1.463 . S
C270 N274 1.427 . S
C271 H261 0.929 . S
C271 C269 1.433 . S
C271 N274 1.384 . S
C272 H263 0.929 . S
C272 C264 1.378 . S
C272 C267 1.350 . S
C273 H260 0.929 . S
C273 C265 1.433 . S
C273 N275 1.384 . S
N274 C270 1.427 . S
N274 C271 1.384 . S
N275 C267 1.427 . S
N275 C273 1.384 . S
H276 C282 0.930 . S
H277 C286 0.930 . S
H278 C291 0.929 . S
H279 C289 0.929 . S
H280 C284 0.929 . S
H281 C290 0.929 . S
C282 H276 0.930 . S
C282 C283 1.367 . S
C282 C290 1.378 . S
C283 C282 1.367 . S
C283 C291 1.433 . S
C284 H280 0.929 . S
C284 C286 1.378 . S
C284 C288 1.350 . S
C285 C288 1.463 . S
C285 C290 1.350 . S
C285 N293 1.427 . S
C286 H277 0.930 . S
C286 C284 1.378 . S
C286 C287 1.367 . S
C287 C286 1.367 . S
C287 C289 1.433 . S
C288 C284 1.350 . S
C288 C285 1.463 . S
C288 N292 1.427 . S
C289 H279 0.929 . S
C289 C287 1.433 . S
C289 N292 1.384 . S
C290 H281 0.929 . S
C290 C282 1.378 . S
C290 C285 1.350 . S
C291 H278 0.929 . S
C291 C283 1.433 . S
C291 N293 1.384 . S
N292 C288 1.427 . S
N292 C289 1.384 . S
N293 C285 1.427 . S
N293 C291 1.384 . S
H294 C300 0.930 . S
H295 C304 0.930 . S
H296 C309 0.929 . S
H297 C307 0.929 . S
H298 C302 0.929 . S
H299 C308 0.929 . S
C300 H294 0.930 . S
C300 C301 1.367 . S
C300 C308 1.378 . S
C301 C300 1.367 . S
C301 C309 1.433 1_545 S
C302 H298 0.929 . S
C302 C304 1.378 . S
C302 C306 1.350 1_565 S
C303 C306 1.463 . S
C303 C308 1.350 . S
C303 N311 1.427 1_545 S
C304 H295 0.930 . S
C304 C302 1.378 . S
C304 C305 1.367 1_565 S
C305 C304 1.367 1_545 S
C305 C307 1.433 . S
C306 C302 1.350 1_545 S
C306 C303 1.463 . S
C306 N310 1.427 . S
C307 H297 0.929 . S
C307 C305 1.433 . S
C307 N310 1.384 . S
C308 H299 0.929 . S
C308 C300 1.378 . S
C308 C303 1.350 . S
C309 H296 0.929 . S
C309 C301 1.433 1_565 S
C309 N311 1.384 . S
N310 C306 1.427 . S
N310 C307 1.384 . S
N311 C303 1.427 1_565 S
N311 C309 1.384 . S
H312 C318 0.930 . S
H313 C322 0.930 . S
H314 C327 0.929 . S
H315 C325 0.929 . S
H316 C320 0.929 . S
H317 C326 0.930 1_554 S
C318 H312 0.930 . S
C318 C319 1.367 . S
C318 C326 1.379 1_554 S
C319 C318 1.367 . S
C319 C327 1.433 1_554 S
C320 H316 0.929 . S
C320 C322 1.378 . S
C320 C324 1.350 . S
C321 C324 1.463 . S
C321 C326 1.347 . S
C321 N329 1.427 . S
C322 H313 0.930 . S
C322 C320 1.378 . S
C322 C323 1.367 . S
C323 C322 1.367 . S
C323 C325 1.433 . S
C324 C320 1.350 . S
C324 C321 1.463 . S
C324 N328 1.427 . S
C325 H315 0.929 . S
C325 C323 1.433 . S
C325 N328 1.384 . S
C326 H317 0.930 1_556 S
C326 C318 1.379 1_556 S
C326 C321 1.347 . S
C327 H314 0.929 . S
C327 C319 1.433 1_556 S
C327 N329 1.384 . S
N328 C324 1.427 . S
N328 C325 1.384 . S
N329 C321 1.427 . S
N329 C327 1.384 . S
H330 C336 0.930 . S
H331 C340 0.930 . S
H332 C345 0.929 . S
H333 C343 0.929 . S
H334 C338 0.929 . S
H335 C344 0.929 . S
C336 H330 0.930 . S
C336 C337 1.367 1_655 S
C336 C344 1.378 . S
C337 C336 1.367 1_455 S
C337 C345 1.433 . S
C338 H334 0.929 . S
C338 C340 1.378 . S
C338 C342 1.350 . S
C339 C342 1.463 . S
C339 C344 1.350 1_455 S
C339 N347 1.427 . S
C340 H331 0.930 . S
C340 C338 1.378 . S
C340 C341 1.367 . S
C341 C340 1.367 . S
C341 C343 1.433 . S
C342 C338 1.350 . S
C342 C339 1.463 . S
C342 N346 1.427 . S
C343 H333 0.929 . S
C343 C341 1.433 . S
C343 N346 1.384 . S
C344 H335 0.929 . S
C344 C336 1.378 . S
C344 C339 1.350 1_655 S
C345 H332 0.929 . S
C345 C337 1.433 . S
C345 N347 1.384 . S
N346 C342 1.427 . S
N346 C343 1.384 . S
N347 C339 1.427 . S
N347 C345 1.384 . S
H348 C354 0.930 . S
H349 C358 0.930 . S
H350 C363 0.929 . S
H351 C361 0.929 . S
H352 C356 0.929 . S
H353 C362 0.929 . S
C354 H348 0.930 . S
C354 C355 1.367 . S
C354 C362 1.378 . S
C355 C354 1.367 . S
C355 C363 1.433 1_565 S
C356 H352 0.929 . S
C356 C358 1.378 . S
C356 C360 1.350 . S
C357 C360 1.463 . S
C357 C362 1.350 1_545 S
C357 N365 1.427 . S
C358 H349 0.930 . S
C358 C356 1.378 . S
C358 C359 1.367 . S
C359 C358 1.367 . S
C359 C361 1.433 1_545 S
C360 C356 1.350 . S
C360 C357 1.463 . S
C360 N364 1.427 1_545 S
C361 H351 0.929 . S
C361 C359 1.433 1_565 S
C361 N364 1.384 . S
C362 H353 0.929 . S
C362 C354 1.378 . S
C362 C357 1.350 1_565 S
C363 H350 0.929 . S
C363 C355 1.433 1_545 S
C363 N365 1.384 . S
N364 C360 1.427 1_565 S
N364 C361 1.384 . S
N365 C357 1.427 . S
N365 C363 1.384 . S
H366 C372 0.930 . S
H367 C376 0.930 . S
H368 C381 0.929 . S
H369 C379 0.929 . S
H370 C374 0.929 . S
H371 C380 0.929 . S
C372 H366 0.930 . S
C372 C373 1.367 1_556 S
C372 C380 1.378 . S
C373 C372 1.367 1_554 S
C373 C381 1.433 . S
C374 H370 0.929 . S
C374 C376 1.378 . S
C374 C378 1.350 . S
C375 C378 1.463 . S
C375 C380 1.350 . S
C375 N383 1.427 . S
C376 H367 0.930 . S
C376 C374 1.378 . S
C376 C377 1.367 . S
C377 C376 1.367 . S
C377 C379 1.433 . S
C378 C374 1.350 . S
C378 C375 1.463 . S
C378 N382 1.427 . S
C379 H369 0.929 . S
C379 C377 1.433 . S
C379 N382 1.384 . S
C380 H371 0.929 . S
C380 C372 1.378 . S
C380 C375 1.350 . S
C381 H368 0.929 . S
C381 C373 1.433 . S
C381 N383 1.384 1_554 S
N382 C378 1.427 . S
N382 C379 1.384 . S
N383 C375 1.427 . S
N383 C381 1.384 1_556 S
H384 C390 0.930 1_655 S
H385 C394 0.930 . S
H386 C399 0.929 . S
H387 C397 0.929 1_655 S
H388 C392 0.929 . S
H389 C398 0.929 1_655 S
C390 H384 0.930 1_455 S
C390 C391 1.367 . S
C390 C398 1.378 . S
C391 C390 1.367 . S
C391 C399 1.433 . S
C392 H388 0.929 . S
C392 C394 1.378 . S
C392 C396 1.350 . S
C393 C396 1.463 . S
C393 C398 1.350 . S
C393 N401 1.427 . S
C394 H385 0.930 . S
C394 C392 1.378 . S
C394 C395 1.367 . S
C395 C394 1.367 . S
C395 C397 1.433 . S
C396 C392 1.350 . S
C396 C393 1.463 . S
C396 N400 1.427 . S
C397 H387 0.929 1_455 S
C397 C395 1.433 . S
C397 N400 1.384 . S
C398 H389 0.929 1_455 S
C398 C390 1.378 . S
C398 C393 1.350 . S
C399 H386 0.929 . S
C399 C391 1.433 . S
C399 N401 1.384 . S
N400 C396 1.427 . S
N400 C397 1.384 . S
N401 C393 1.427 . S
N401 C399 1.384 . S
C197 C63 1.351 . S
C193 C11 1.332 . S
C211 C25 1.403 . S
C215 C111 1.417 . S
C229 C41 1.399 . S
C233 C183 1.458 . S
C247 C7 1.366 . S
C251 C87 1.356 . S
C269 C135 1.424 . S
C265 C21 1.425 . S
C283 C36 1.421 . S
C287 C159 1.481 . S
C305 C120 1.408 . S
C301 C39 1.400 . S
C319 C8 1.415 1_655 S
C323 C174 1.466 . S
C341 C78 1.515 . S
C337 C22 1.465 . S
C359 C126 1.426 . S
C355 C35 1.422 . S
C377 C168 1.447 . S
C373 C13 1.391 . S
C391 C27 1.449 . S
C395 C72 1.496 . S
