# Generated by pormake.
# Topology pth, (4,4)-cn, num edge types: 1
# Building blocks:
#     Node 0, Type 0, BuildingBlock: CEKHIL_clean_sbu_0, # of connection points: 4
#     Node 1, Type 0, BuildingBlock: CEKHIL_clean_sbu_0, # of connection points: 4
#     Node 2, Type 0, BuildingBlock: CEKHIL_clean_sbu_0, # of connection points: 4
#     Node 3, Type 1, BuildingBlock: NAWXER_clean_linker_0, # of connection points: 4
#     Node 4, Type 1, BuildingBlock: NAWXER_clean_linker_0, # of connection points: 4
#     Node 5, Type 1, BuildingBlock: NAWXER_clean_linker_0, # of connection points: 4
#     Edge 6, Type (0, 1), BuildingBlock: FUNLAD_clean_linker_1, # of connection points: 2
#     Edge 7, Type (0, 1), BuildingBlock: FUNLAD_clean_linker_1, # of connection points: 2
#     Edge 8, Type (0, 1), BuildingBlock: FUNLAD_clean_linker_1, # of connection points: 2
#     Edge 9, Type (0, 1), BuildingBlock: FUNLAD_clean_linker_1, # of connection points: 2
#     Edge 10, Type (0, 1), BuildingBlock: FUNLAD_clean_linker_1, # of connection points: 2
#     Edge 11, Type (0, 1), BuildingBlock: FUNLAD_clean_linker_1, # of connection points: 2
#     Edge 12, Type (0, 1), BuildingBlock: FUNLAD_clean_linker_1, # of connection points: 2
#     Edge 13, Type (0, 1), BuildingBlock: FUNLAD_clean_linker_1, # of connection points: 2
#     Edge 14, Type (0, 1), BuildingBlock: FUNLAD_clean_linker_1, # of connection points: 2
#     Edge 15, Type (0, 1), BuildingBlock: FUNLAD_clean_linker_1, # of connection points: 2
#     Edge 16, Type (0, 1), BuildingBlock: FUNLAD_clean_linker_1, # of connection points: 2
#     Edge 17, Type (0, 1), BuildingBlock: FUNLAD_clean_linker_1, # of connection points: 2
# Relax obj value: 0.006
# Max RMSD: 0.048
# Mean RMSD: 0.037
data_MOF--net-pth--node1-CEKHIL_clean_sbu_0--node2-NAWXER_clean_linker_0--edge1-FUNLAD_clean_linker_1
_symmetry_space_group_name_H-M    P1
_symmetry_Int_Tables_number       1
_symmetry_cell_setting            triclinic
loop_
_symmetry_equiv_pos_as_xyz
'x, y, z'
_cell_length_a     29.372604
_cell_length_b     29.527142
_cell_length_c     68.230362
_cell_angle_alpha  91.004767
_cell_angle_beta   89.900741
_cell_angle_gamma 120.17208
loop_
_atom_site_label
_atom_site_type_symbol
_atom_site_fract_x
_atom_site_fract_y
_atom_site_fract_z
_atom_type_partial_charge
Co0 Co 0.03945 0.05466 0.06496 0.0
O1 O 1.00585 0.00471 0.08535 0.0
O2 O 0.07382 0.01339 0.06827 0.0
C3 C 0.04508 0.12336 0.08216 0.0
O4 O 0.08554 0.1041 0.04333 0.0
Co5 Co 0.98089 0.10553 0.04645 0.0
O6 O 0.05046 0.15364 0.03499 0.0
C7 C 0.94972 0.99739 0.03499 0.0
C8 C 0.03986 0.98989 0.08215 0.0
C9 C 0.08722 0.14277 0.03412 0.0
O10 O 0.98884 1.00183 0.04502 0.0
O11 O 0.93733 0.0332 0.03459 0.0
O12 O 0.08026 0.10956 0.08427 0.0
O13 O 1.00508 0.09272 0.0711 0.0
Co14 Co 0.02893 0.06211 0.38331 0.0
O15 O 0.99921 0.08277 0.36237 0.0
O16 O 0.05976 0.13747 0.38355 0.0
C17 C 0.04345 0.00643 0.36481 0.0
O18 O 0.07181 0.05737 0.40602 0.0
Co19 Co 0.97744 0.94937 0.3981 0.0
O20 O 0.0451 0.97319 0.41205 0.0
C21 C 0.9337 0.01583 0.41054 0.0
C22 C 0.03028 0.13074 0.36835 0.0
C23 C 0.07718 0.02194 0.4147 0.0
O24 O 0.97128 0.05468 0.40159 0.0
O25 O 0.92749 0.96968 0.41014 0.0
O26 O 0.07664 0.05644 0.36493 0.0
O27 O 1.00067 0.99163 0.37467 0.0
Co28 Co 0.01822 0.04212 0.72129 0.0
O29 O 0.07162 0.08018 0.70214 0.0
O30 O 0.06086 0.00939 0.71693 0.0
C31 C 0.95217 0.0406 0.70376 0.0
O32 O 0.96533 0.99098 0.7411 0.0
Co33 Co 0.95883 0.09237 0.74134 0.0
O34 O 0.9091 0.01926 0.74887 0.0
C35 C 0.06758 0.12528 0.75387 0.0
C36 C 0.08602 0.04563 0.70408 0.0
C37 C 0.92272 0.9846 0.74916 0.0
O38 O 0.06717 0.08873 0.74309 0.0
O39 O 0.0299 0.13522 0.75411 0.0
O40 O 0.96647 0.0062 0.70023 0.0
O41 O 0.98031 0.07659 0.71658 0.0
C42 C 0.97746 0.37822 0.25314 0.0
C43 C 0.01486 0.38876 0.26798 0.0
C44 C 0.98069 0.4185 0.24161 0.0
C45 C 0.022 0.47029 0.24446 0.0
C46 C 0.05617 0.44082 0.27083 0.0
C47 C 0.05932 0.48106 0.2593 0.0
C48 C 0.02541 0.51387 0.23277 0.0
C49 C 0.04311 0.40724 0.18818 0.0
C50 C 1.00445 0.38783 0.17322 0.0
C51 C 0.04826 0.447 0.20113 0.0
C52 C 0.01454 0.46766 0.19952 0.0
C53 C 0.97052 0.40824 0.17187 0.0
C54 C 0.97581 0.44797 0.18473 0.0
C55 C 0.02125 0.51219 0.21208 0.0
C56 C 0.08867 0.73461 0.1923 0.0
C57 C 0.05756 0.72526 0.17542 0.0
C58 C 0.07917 0.69373 0.20482 0.0
C59 C 0.03811 0.64244 0.20075 0.0
C60 C 0.01652 0.67378 0.17136 0.0
C61 C 0.00708 0.63297 0.18387 0.0
C62 C 0.03074 0.59762 0.2127 0.0
C63 C 0.99406 0.69449 0.25437 0.0
C64 C 0.02617 0.71412 0.2712 0.0
C65 C 0.99691 0.65795 0.24187 0.0
C66 C 0.03224 0.64024 0.24582 0.0
C67 C 0.0613 0.69601 0.27526 0.0
C68 C 0.06407 0.65935 0.26273 0.0
C69 C 0.03268 0.59848 0.23344 0.0
H70 H 0.94521 0.33867 0.25055 0.0
H71 H 0.9505 0.40919 0.23064 0.0
H72 H 0.08664 0.45092 0.28171 0.0
H73 H 0.09143 0.52072 0.26185 0.0
H74 H 0.06934 0.39188 0.19005 0.0
H75 H 0.07913 0.46215 0.21217 0.0
H76 H 0.94022 0.39397 0.16061 0.0
H77 H 0.94954 0.46347 0.18309 0.0
H78 H 0.12096 0.77364 0.1957 0.0
H79 H 0.10499 0.70204 0.21733 0.0
H80 H 0.99252 0.66421 0.15826 0.0
H81 H 0.97581 0.59363 0.18017 0.0
H82 H 0.96613 0.70705 0.25096 0.0
H83 H 0.97041 0.64257 0.22937 0.0
H84 H 0.08576 0.70874 0.2883 0.0
H85 H 0.09089 0.64557 0.26635 0.0
N86 N 0.03077 0.55689 0.24259 0.0
N87 N 0.02436 0.55421 0.20296 0.0
C88 C 0.68087 0.05307 0.52815 0.0
C89 C 0.66642 0.02076 0.51131 0.0
C90 C 0.6425 0.05361 0.54018 0.0
C91 C 0.58857 0.02 0.53612 0.0
C92 C 0.6126 0.98849 0.50679 0.0
C93 C 0.57414 0.98815 0.51908 0.0
C94 C 0.54713 0.01936 0.54899 0.0
C95 C 0.64094 0.97559 0.58883 0.0
C96 C 0.66684 0.01106 0.60447 0.0
C97 C 0.60348 0.97932 0.57741 0.0
C98 C 0.59178 0.01929 0.58116 0.0
C99 C 0.65497 0.0511 0.60818 0.0
C100 C 0.61752 0.05478 0.59675 0.0
C101 C 0.5507 0.02266 0.5697 0.0
C102 C 0.3431 0.99573 0.59692 0.0
C103 C 0.3629 0.02945 0.61346 0.0
C104 C 0.37753 0.99527 0.5827 0.0
C105 C 0.43228 0.0293 0.58455 0.0
C106 C 0.41741 0.06333 0.61522 0.0
C107 C 0.45157 0.0635 0.60093 0.0
C108 C 0.47076 0.02575 0.57127 0.0
C109 C 0.3679 0.05435 0.52888 0.0
C110 C 0.34108 0.013 0.51512 0.0
C111 C 0.4078 0.05639 0.54082 0.0
C112 C 0.42145 0.01717 0.53923 0.0
C113 C 0.35445 0.9736 0.51385 0.0
C114 C 0.39455 0.97599 0.52558 0.0
C115 C 0.46582 0.02 0.5506 0.0
H116 H 0.72207 0.07856 0.53189 0.0
H117 H 0.65523 0.08055 0.55261 0.0
H118 H 0.6001 0.96249 0.49407 0.0
H119 H 0.53298 0.9623 0.5154 0.0
H120 H 0.64924 0.94443 0.58557 0.0
H121 H 0.58326 0.95061 0.56578 0.0
H122 H 0.67479 0.0802 0.61968 0.0
H123 H 0.609 0.08582 0.59998 0.0
H124 H 0.30138 0.96804 0.59537 0.0
H125 H 0.36137 0.96676 0.57079 0.0
H126 H 0.43378 0.08949 0.62785 0.0
H127 H 0.49352 0.08975 0.60293 0.0
H128 H 0.358 0.08488 0.53057 0.0
H129 H 0.42848 0.08897 0.55106 0.0
H130 H 0.33437 0.94118 0.50349 0.0
H131 H 0.40458 0.94546 0.524 0.0
N132 N 0.50431 0.01727 0.54036 0.0
N133 N 0.51294 0.02655 0.57986 0.0
C134 C 0.41246 0.34291 0.86085 0.0
C135 C 0.38761 0.35378 0.84551 0.0
C136 C 0.45071 0.38329 0.87273 0.0
C137 C 0.46464 0.43563 0.86969 0.0
C138 C 0.40232 0.40649 0.84236 0.0
C139 C 0.44038 0.44671 0.85428 0.0
C140 C 0.50679 0.47963 0.88142 0.0
C141 C 0.38176 0.38071 0.92587 0.0
C142 C 0.40008 0.36067 0.94057 0.0
C143 C 0.4172 0.41907 0.91313 0.0
C144 C 0.47155 0.43783 0.91471 0.0
C145 C 0.45437 0.37919 0.94192 0.0
C146 C 0.48971 0.4177 0.9293 0.0
C147 C 0.51022 0.48045 0.90214 0.0
C148 C 0.66848 0.7062 0.91997 0.0
C149 C 0.69354 0.70098 0.93659 0.0
C150 C 0.63501 0.66256 0.90828 0.0
C151 C 0.62591 0.61248 0.91288 0.0
C152 C 0.684 0.65067 0.94131 0.0
C153 C 0.65039 0.60696 0.92961 0.0
C154 C 0.58765 0.56543 0.90131 0.0
C155 C 0.71979 0.65876 0.85955 0.0
C156 C 0.70614 0.67742 0.84307 0.0
C157 C 0.68094 0.62256 0.87193 0.0
C158 C 0.62735 0.60409 0.86811 0.0
C159 C 0.65236 0.65828 0.83909 0.0
C160 C 0.6135 0.62189 0.85144 0.0
C161 C 0.58563 0.56355 0.88057 0.0
H162 H 0.40257 0.30296 0.86358 0.0
H163 H 0.46998 0.37359 0.88406 0.0
H164 H 0.38541 0.41756 0.83067 0.0
H165 H 0.45095 0.48681 0.85141 0.0
H166 H 0.34017 0.36674 0.92403 0.0
H167 H 0.40219 0.43454 0.90222 0.0
H168 H 0.46967 0.36443 0.95301 0.0
H169 H 0.53144 0.43175 0.93092 0.0
H170 H 0.67439 0.74421 0.91609 0.0
H171 H 0.61528 0.66789 0.8959 0.0
H172 H 0.70108 0.64439 0.95427 0.0
H173 H 0.64321 0.56864 0.93371 0.0
H174 H 0.76074 0.67213 0.86286 0.0
H175 H 0.69284 0.60825 0.88428 0.0
H176 H 0.63987 0.67017 0.82623 0.0
H177 H 0.57246 0.60752 0.84793 0.0
N178 N 0.54483 0.52113 0.87153 0.0
N179 N 0.55038 0.52344 0.9112 0.0
H180 H 0.08518 0.19201 0.10193 0.0
C181 C 0.04909 0.1681 0.09359 0.0
H182 H 0.97182 0.15252 0.08804 0.0
H183 H 0.96552 0.24912 0.17149 0.0
H184 H 0.90262 0.15705 0.17571 0.0
H185 H 0.88907 0.0919 0.14987 0.0
H186 H 0.93863 0.11845 0.11968 0.0
C187 C 0.00919 0.17773 0.09543 0.0
C188 C 0.01301 0.2182 0.10984 0.0
C189 C 0.98251 0.2023 0.12717 0.0
C190 C 0.98965 0.24007 0.14195 0.0
C191 C 0.9606 0.22254 0.15951 0.0
C192 C 0.92459 0.16966 0.16221 0.0
C193 C 0.91702 0.13297 0.14767 0.0
C194 C 0.9457 0.1488 0.13039 0.0
H195 H 0.96056 0.32579 0.15071 0.0
C196 C 0.99755 0.34616 0.15885 0.0
H197 H 0.07377 0.35577 0.16133 0.0
H198 H 0.0734 0.26261 0.0775 0.0
H199 H 0.13571 0.35492 0.07304 0.0
H200 H 0.14858 0.42034 0.09868 0.0
H201 H 0.09915 0.39392 0.12892 0.0
C202 C 0.03492 0.33389 0.15467 0.0
C203 C 0.02644 0.29395 0.13918 0.0
C204 C 0.05605 0.30994 0.12165 0.0
C205 C 0.04907 0.27213 0.10692 0.0
C206 C 0.07814 0.28948 0.08936 0.0
C207 C 0.11376 0.3424 0.08655 0.0
C208 C 0.12097 0.37924 0.10098 0.0
C209 C 0.09244 0.36348 0.11831 0.0
H210 H 0.89418 0.06047 0.41867 0.0
C211 C 0.89584 0.02531 0.4217 0.0
H212 H 0.86627 0.95734 0.43862 0.0
H213 H 0.78684 0.10778 0.48526 0.0
H214 H 0.87895 0.1746 0.48788 0.0
H215 H 0.94758 0.16091 0.47279 0.0
H216 H 0.92434 0.08122 0.45444 0.0
C217 C 0.8647 0.99258 0.43565 0.0
C218 C 0.82438 1.00008 0.44639 0.0
C219 C 0.83908 0.04553 0.45823 0.0
C220 C 0.79983 0.0517 0.46826 0.0
C221 C 0.81519 0.09954 0.47843 0.0
C222 C 0.86794 0.1385 0.47989 0.0
C223 C 0.90654 0.13092 0.4713 0.0
C224 C 0.89254 0.08508 0.46062 0.0
H225 H 0.74334 0.02552 0.50677 0.0
C226 C 0.70819 0.01986 0.49925 0.0
H227 H 0.67077 0.00964 0.47185 0.0
H228 H 0.78176 0.90925 0.42434 0.0
H229 H 0.69039 0.84023 0.42342 0.0
H230 H 0.62378 0.84746 0.44311 0.0
H231 H 0.64798 0.92405 0.46362 0.0
C232 C 0.70524 0.01434 0.47957 0.0
C233 C 0.74643 0.01053 0.46785 0.0
C234 C 0.73187 0.9649 0.4562 0.0
C235 C 0.77064 0.96002 0.44528 0.0
C236 C 0.7544 0.91461 0.43333 0.0
C237 C 0.70195 0.87467 0.43259 0.0
C238 C 0.66444 0.87879 0.44364 0.0
C239 C 0.67895 0.92319 0.45533 0.0
H240 H 0.84872 0.93006 0.76362 0.0
C241 C 0.88748 0.93636 0.75987 0.0
H242 H 0.94107 0.90932 0.76417 0.0
H243 H 0.81336 0.81101 0.84385 0.0
H244 H 0.89403 0.88418 0.8568 0.0
H245 H 0.96277 0.94624 0.83466 0.0
H246 H 0.95086 0.93565 0.79935 0.0
C247 C 0.9016 0.90264 0.76657 0.0
C248 C 0.86493 0.85934 0.77958 0.0
C249 C 0.87337 0.8645 0.80015 0.0
C250 C 0.8342 0.8278 0.81292 0.0
C251 C 0.84236 0.83631 0.83342 0.0
C252 C 0.88842 0.87851 0.84108 0.0
C253 C 0.92708 0.91351 0.82862 0.0
C254 C 0.91974 0.90697 0.80839 0.0
H255 H 0.78683 0.71704 0.83081 0.0
C256 C 0.74889 0.71508 0.83006 0.0
H257 H 0.70684 0.74787 0.81711 0.0
H258 H 0.83932 0.8348 0.74089 0.0
H259 H 0.75974 0.76012 0.72764 0.0
H260 H 0.69235 0.6957 0.74961 0.0
H261 H 0.70397 0.7055 0.78493 0.0
C262 C 0.74385 0.74819 0.81811 0.0
C263 C 0.78728 0.78483 0.80502 0.0
C264 C 0.78009 0.77842 0.78438 0.0
C265 C 0.8189 0.81562 0.77168 0.0
C266 C 0.81069 0.80809 0.75116 0.0
C267 C 0.76535 0.76528 0.74337 0.0
C268 C 0.72742 0.729 0.75574 0.0
C269 C 0.73451 0.73521 0.776 0.0
H270 H 0.00664 0.93012 0.10472 0.0
C271 C 0.03905 0.94896 0.09448 0.0
H272 H 0.10918 0.95335 0.08434 0.0
H273 H 0.05045 0.84379 0.17344 0.0
H274 H 0.0729 0.93032 0.18536 0.0
H275 H 0.09852 1.00281 0.16246 0.0
H276 H 0.10061 0.98871 0.12741 0.0
C277 C 0.07673 0.9359 0.0946 0.0
C278 C 0.07329 0.89582 0.10857 0.0
C279 C 0.07536 0.90537 0.12912 0.0
C280 C 0.0634 0.86424 0.14241 0.0
C281 C 0.06163 0.87401 0.16272 0.0
C282 C 0.07407 0.92351 0.16977 0.0
C283 C 0.08828 0.96427 0.15688 0.0
C284 C 0.08895 0.95553 0.13678 0.0
H285 H 0.10976 0.8041 0.16336 0.0
C286 C 0.07078 0.76954 0.162 0.0
H287 H 0.99751 0.73643 0.14702 0.0
H288 H 0.07072 0.86576 0.07028 0.0
H289 H 0.0539 0.78078 0.05832 0.0
H290 H 0.03717 0.71064 0.08134 0.0
H291 H 0.03675 0.72484 0.11645 0.0
C292 C 0.03693 0.76981 0.14876 0.0
C293 C 0.05234 0.81431 0.13518 0.0
C294 C 0.05346 0.80579 0.11468 0.0
C295 C 0.06382 0.8465 0.10138 0.0
C296 C 0.06344 0.83636 0.08101 0.0
C297 C 0.05387 0.78777 0.07395 0.0
C298 C 0.0444 0.74826 0.08691 0.0
C299 C 0.04415 0.75691 0.10704 0.0
H300 H 0.14691 0.08052 0.43175 0.0
C301 C 0.12153 0.03884 0.42877 0.0
H302 H 0.10472 0.96249 0.43554 0.0
H303 H 0.35199 0.09738 0.46717 0.0
H304 H 0.37567 0.12451 0.43356 0.0
H305 H 0.30718 0.10316 0.40844 0.0
H306 H 0.21472 0.05506 0.41676 0.0
C307 C 0.13083 0.00428 0.438 0.0
C308 C 0.17315 0.02042 0.45317 0.0
C309 C 0.2272 0.0484 0.44799 0.0
C310 C 0.2668 0.05981 0.46241 0.0
C311 C 0.32036 0.08758 0.45682 0.0
C312 C 0.33452 0.10331 0.43757 0.0
C313 C 0.29595 0.09136 0.42343 0.0
C314 C 0.24291 0.064 0.42846 0.0
H315 H 0.27107 0.97016 0.49583 0.0
C316 C 0.29849 0.00869 0.50202 0.0
H317 H 0.32251 0.08931 0.501 0.0
H318 H 0.07375 0.96865 0.46837 0.0
H319 H 0.05042 0.94193 0.50202 0.0
H320 H 0.11909 0.96166 0.5269 0.0
H321 H 0.21154 0.00813 0.51826 0.0
C322 C 0.29379 0.04965 0.49638 0.0
C323 C 0.25239 0.04209 0.48186 0.0
C324 C 0.19852 0.01542 0.48716 0.0
C325 C 0.15893 0.0044 0.47281 0.0
C326 C 0.10545 0.97766 0.47859 0.0
C327 C 0.09149 0.96228 0.49789 0.0
C328 C 0.13014 0.97336 0.51189 0.0
C329 C 0.18307 0.99977 0.5067 0.0
H330 H 0.11099 0.18828 0.77571 0.0
C331 C 0.1128 0.15796 0.76703 0.0
H332 H 0.15923 0.12373 0.76005 0.0
H333 H 0.36792 0.33387 0.78688 0.0
H334 H 0.38235 0.33064 0.75197 0.0
H335 H 0.3135 0.26248 0.73057 0.0
H336 H 0.22981 0.19705 0.74394 0.0
C337 C 0.15534 0.15248 0.76892 0.0
C338 C 0.19961 0.18874 0.78227 0.0
C339 C 0.2485 0.22632 0.77428 0.0
C340 C 0.28805 0.26595 0.78661 0.0
C341 C 0.33632 0.30329 0.77816 0.0
C342 C 0.34518 0.3018 0.75816 0.0
C343 C 0.30642 0.2634 0.74611 0.0
C344 C 0.25855 0.22608 0.75398 0.0
H345 H 0.34175 0.2704 0.8357 0.0
C346 C 0.34756 0.30919 0.83309 0.0
H347 H 0.32208 0.35123 0.81561 0.0
H348 H 0.11496 0.11645 0.80287 0.0
H349 H 0.10035 0.11919 0.83779 0.0
H350 H 0.16637 0.19086 0.85888 0.0
H351 H 0.24767 0.25959 0.84529 0.0
C352 C 0.31765 0.31364 0.81913 0.0
C353 C 0.27879 0.26794 0.80694 0.0
C354 C 0.23086 0.22871 0.81511 0.0
C355 C 0.19174 0.18852 0.80281 0.0
C356 C 0.14506 0.14886 0.81143 0.0
C357 C 0.13634 0.14979 0.83147 0.0
C358 C 0.17359 0.19004 0.84335 0.0
C359 C 0.22029 0.22919 0.83535 0.0
H360 H 0.89847 0.07043 0.69747 0.0
C361 C 0.90889 0.04125 0.69308 0.0
H362 H 0.89437 0.97994 0.67308 0.0
H363 H 0.6679 0.93463 0.64743 0.0
H364 H 0.64601 0.85588 0.66524 0.0
H365 H 0.7143 0.8486 0.68358 0.0
H366 H 0.80491 0.91999 0.68424 0.0
C367 C 0.88486 0.00977 0.67745 0.0
C368 C 0.84404 0.01394 0.66591 0.0
C369 C 0.79134 0.97165 0.66551 0.0
C370 C 0.75191 0.97579 0.65491 0.0
C371 C 0.69945 0.93335 0.65508 0.0
C372 C 0.68632 0.88798 0.66529 0.0
C373 C 0.72477 0.88389 0.67562 0.0
C374 C 0.77668 0.92514 0.67583 0.0
H375 H 0.72148 0.98134 0.61002 0.0
C376 C 0.70655 0.00553 0.61618 0.0
H377 H 0.70987 0.05127 0.64111 0.0
H378 H 0.94258 0.0994 0.661 0.0
H379 H 0.9641 0.17787 0.64321 0.0
H380 H 0.89499 0.18642 0.62609 0.0
H381 H 0.80391 0.1161 0.62646 0.0
C382 C 0.72404 0.02759 0.63406 0.0
C383 C 0.76529 0.02215 0.64465 0.0
C384 C 0.81805 0.06413 0.64479 0.0
C385 C 0.85766 0.05974 0.65513 0.0
C386 C 0.9105 0.1013 0.65409 0.0
C387 C 0.92353 0.14646 0.64377 0.0
C388 C 0.88464 0.15124 0.6341 0.0
C389 C 0.8325 0.11061 0.63447 0.0
H390 H 0.92852 0.91788 0.02444 0.0
C391 C 0.91848 0.94851 0.02327 0.0
H392 H 0.86997 0.97196 0.00907 0.0
H393 H 0.82339 0.81867 0.93601 0.0
H394 H 0.8854 0.90196 0.92188 0.0
H395 H 0.93182 0.98188 0.94261 0.0
H396 H 0.91681 0.97886 0.97765 0.0
C397 C 0.87924 0.94104 0.01106 0.0
C398 C 0.85035 0.89248 0.99864 0.0
C399 C 0.85851 0.89504 0.9781 0.0
C400 C 0.8309 0.84909 0.96607 0.0
C401 C 0.84182 0.85254 0.94575 0.0
C402 C 0.8777 0.90008 0.93745 0.0
C403 C 0.90389 0.94506 0.94913 0.0
C404 C 0.89477 0.94278 0.96922 0.0
H405 H 0.72227 0.78241 0.94708 0.0
C406 C 0.72701 0.7485 0.949 0.0
H407 H 0.76992 0.72005 0.96439 0.0
H408 H 0.82324 0.87414 0.03732 0.0
H409 H 0.76136 0.79082 0.05149 0.0
H410 H 0.71376 0.71116 0.0307 0.0
H411 H 0.7276 0.71437 0.99559 0.0
C412 C 0.76338 0.75257 0.96203 0.0
C413 C 0.79401 0.80075 0.97453 0.0
C414 C 0.78623 0.79811 0.99511 0.0
C415 C 0.81412 0.84401 0.00715 0.0
C416 C 0.80409 0.8404 0.02754 0.0
C417 C 0.76841 0.79283 0.03586 0.0
C418 C 0.74157 0.74799 0.02416 0.0
C419 C 0.75003 0.75039 1.00401 0.0
H420 H 0.09064 0.98599 0.34533 0.0
C421 C 0.05309 0.97002 0.35279 0.0
H422 H 0.97905 0.90259 0.35739 0.0
H423 H 0.06281 0.85122 0.27325 0.0
H424 H 0.05398 0.92206 0.26003 0.0
H425 H 0.02988 0.97495 0.28135 0.0
H426 H 0.01564 0.95805 0.31608 0.0
C427 C 0.01643 0.91939 0.34978 0.0
C428 C 0.02623 0.88453 0.33643 0.0
C429 C 0.03196 0.89333 0.31594 0.0
C430 C 0.04304 0.86095 0.30343 0.0
C431 C 0.05194 0.8729 0.28327 0.0
C432 C 0.04738 0.91375 0.2755 0.0
C433 C 0.03403 0.94366 0.28751 0.0
C434 C 0.02634 0.93375 0.30748 0.0
H435 H 0.98467 0.75431 0.28251 0.0
C436 C 0.01986 0.75138 0.28443 0.0
H437 H 0.0911 0.78134 0.30064 0.0
H438 H 0.01714 0.85657 0.37486 0.0
H439 H 0.02226 0.78333 0.38788 0.0
H440 H 0.03745 0.72485 0.36603 0.0
H441 H 0.04796 0.73939 0.33104 0.0
C442 C 0.05527 0.78251 0.29817 0.0
C443 C 0.04556 0.81798 0.31123 0.0
C444 C 0.03906 0.80876 0.33166 0.0
C445 C 0.02953 0.84208 0.34425 0.0
C446 C 0.02386 0.8322 0.3646 0.0
C447 C 0.02678 0.79033 0.37228 0.0
C448 C 0.03539 0.75744 0.35998 0.0
C449 C 0.04145 0.76631 0.33991 0.0
H450 H 0.14107 0.07598 0.67954 0.0
C451 C 0.12674 0.04691 0.69098 0.0
H452 H 0.12987 0.98313 0.70285 0.0
H453 H 0.20551 0.92155 0.62529 0.0
H454 H 0.12312 0.84263 0.63208 0.0
H455 H 0.06602 0.84107 0.6589 0.0
H456 H 0.09126 0.91812 0.67929 0.0
C457 C 0.14497 0.01336 0.69186 0.0
C458 C 0.18168 0.01347 0.67651 0.0
C459 C 0.16601 0.96818 0.66449 0.0
C460 C 0.19837 0.96947 0.64865 0.0
C461 C 0.18211 0.92322 0.63723 0.0
C462 C 0.13492 0.87753 0.641 0.0
C463 C 0.10282 0.87663 0.65612 0.0
C464 C 0.1179 0.92125 0.66775 0.0
H465 H 0.34625 0.03885 0.64442 0.0
C466 C 0.32871 0.02813 0.62983 0.0
H467 H 0.26039 0.00696 0.61302 0.0
H468 H 0.22987 0.10328 0.69911 0.0
H469 H 0.30971 0.18393 0.69132 0.0
H470 H 0.35905 0.19018 0.66123 0.0
H471 H 0.33 0.1154 0.63918 0.0
C472 C 0.2787 0.01728 0.62746 0.0
C473 C 0.2459 0.01635 0.64448 0.0
C474 C 0.26148 0.06176 0.65648 0.0
C475 C 0.23066 0.05951 0.67299 0.0
C476 C 0.24987 0.10387 0.68571 0.0
C477 C 0.29592 0.15028 0.68152 0.0
C478 C 0.32386 0.15369 0.66464 0.0
C479 C 0.307 0.11017 0.6522 0.0
H480 H 0.13117 0.209 0.01459 0.0
C481 C 0.13225 0.17659 0.02148 0.0
H482 H 0.17473 0.13654 0.02369 0.0
H483 H 0.28279 0.22493 0.94093 0.0
H484 H 0.23153 0.13145 0.93406 0.0
H485 H 0.17252 0.07074 0.95899 0.0
H486 H 0.16433 0.1031 0.99097 0.0
C487 C 0.17328 0.16964 0.0177 0.0
C488 C 0.21517 0.20523 1.00383 0.0
C489 C 0.22056 0.1856 0.98537 0.0
C490 C 0.25488 0.22067 0.97099 0.0
C491 C 0.25794 0.20008 0.95246 0.0
C492 C 0.22859 0.1465 0.9483 0.0
C493 C 0.19533 0.11232 0.96233 0.0
C494 C 0.19103 0.13142 0.98064 0.0
H495 H 0.37856 0.29764 0.96208 0.0
C496 C 0.36417 0.32038 0.95467 0.0
H497 H 0.30241 0.33755 0.95374 0.0
H498 H 0.22207 0.25479 0.0389 0.0
H499 H 0.27454 0.34809 0.04599 0.0
H500 H 0.33178 0.40908 0.02077 0.0
H501 H 0.33727 0.37709 0.98836 0.0
C502 C 0.31654 0.31293 0.95965 0.0
C503 C 0.28414 0.27532 0.97514 0.0
C504 C 0.28073 0.29462 0.99393 0.0
C505 C 0.24686 0.25955 0.00836 0.0
C506 C 0.24574 0.27986 0.0272 0.0
C507 C 0.27601 0.33328 0.03152 0.0
C508 C 0.3083 0.36761 0.01733 0.0
C509 C 0.31094 0.34873 0.99876 0.0
H510 H 0.0605 0.21509 0.36388 0.0
C511 C 0.03364 0.176 0.35807 0.0
H512 H 0.98093 0.13151 0.33517 0.0
H513 H 0.99005 0.36034 0.32686 0.0
H514 H 0.94746 0.34219 0.35853 0.0
H515 H 0.93354 0.26577 0.37736 0.0
H516 H 0.96238 0.2072 0.36471 0.0
C517 C 0.00626 0.17033 0.34151 0.0
C518 C 0.01378 0.21642 0.33017 0.0
C519 C 0.99632 0.25015 0.33772 0.0
C520 C 1.00377 0.29392 0.32671 0.0
C521 C 0.98572 0.32674 0.3346 0.0
C522 C 0.96101 0.31668 0.35274 0.0
C523 C 0.95321 0.27368 0.36335 0.0
C524 C 0.97032 0.24054 0.35597 0.0
H525 H 0.98254 0.30473 0.27442 0.0
C526 C 0.00977 0.34428 0.27976 0.0
H527 H 0.06072 0.38826 0.30334 0.0
H528 H 0.05119 0.15933 0.31128 0.0
H529 H 0.09416 0.17767 0.2797 0.0
H530 H 0.10884 0.25453 0.26099 0.0
H531 H 0.08027 0.31324 0.27365 0.0
C532 C 0.03582 0.34986 0.29671 0.0
C533 C 0.02792 0.30358 0.30804 0.0
C534 C 0.0455 0.2699 0.30052 0.0
C535 C 0.03787 0.22602 0.31149 0.0
C536 C 0.05579 0.19309 0.30358 0.0
C537 C 0.08071 0.20325 0.28549 0.0
C538 C 0.08891 0.24648 0.27495 0.0
C539 C 0.07189 0.27969 0.28234 0.0
loop_
_geom_bond_atom_site_label_1
_geom_bond_atom_site_label_2
_geom_bond_distance
_geom_bond_site_symmetry_2
_ccdc_geom_bond_type
Co0 O1 2.216 1_445 S
Co0 O2 2.091 1_545 S
Co0 O4 2.004 . S
Co0 O10 2.021 1_445 S
Co0 O12 2.137 . S
Co0 O13 2.244 1_455 S
O1 Co0 2.216 1_665 S
O1 C8 1.247 1_655 S
O2 Co0 2.091 1_565 S
O2 C8 1.261 . S
C3 O12 1.247 . S
C3 O13 1.272 1_455 S
O4 Co0 2.004 . S
O4 C9 1.259 . S
Co5 O6 2.061 1_655 S
Co5 O11 2.052 . S
Co5 O13 2.135 . S
O6 Co5 2.061 1_455 S
O6 C9 1.235 . S
C7 O10 1.238 . S
C7 O11 1.241 1_565 S
C8 O1 1.247 1_455 S
C8 O2 1.261 . S
C9 O4 1.259 . S
C9 O6 1.235 . S
O10 Co0 2.021 1_665 S
O10 C7 1.238 . S
O11 Co5 2.052 . S
O11 C7 1.241 1_545 S
O12 Co0 2.137 . S
O12 C3 1.247 . S
O13 Co0 2.244 1_655 S
O13 C3 1.272 1_655 S
O13 Co5 2.135 . S
Co14 O15 2.216 1_455 S
Co14 O16 2.091 . S
Co14 O18 2.004 . S
Co14 O24 2.021 1_455 S
Co14 O26 2.137 . S
Co14 O27 2.245 1_445 S
O15 Co14 2.216 1_655 S
O15 C22 1.247 1_655 S
O16 Co14 2.091 . S
O16 C22 1.261 . S
C17 O26 1.247 1_565 S
C17 O27 1.259 1_455 S
O18 Co14 2.004 . S
O18 C23 1.259 . S
Co19 O20 2.061 1_655 S
Co19 O25 2.052 . S
Co19 O27 2.135 . S
O20 Co19 2.061 1_455 S
O20 C23 1.235 1_565 S
C21 O24 1.238 . S
C21 O25 1.241 1_545 S
C22 O15 1.247 1_455 S
C22 O16 1.261 . S
C23 O18 1.259 . S
C23 O20 1.235 1_545 S
O24 Co14 2.021 1_655 S
O24 C21 1.238 . S
O25 Co19 2.052 . S
O25 C21 1.241 1_565 S
O26 Co14 2.137 . S
O26 C17 1.247 1_545 S
O27 Co14 2.245 1_665 S
O27 C17 1.259 1_655 S
O27 Co19 2.135 . S
Co28 O29 2.216 . S
Co28 O30 2.091 1_545 S
Co28 O32 2.004 1_445 S
Co28 O38 2.021 . S
Co28 O40 2.137 1_445 S
Co28 O41 2.244 1_455 S
O29 Co28 2.216 . S
O29 C36 1.247 . S
O30 Co28 2.091 1_565 S
O30 C36 1.261 1_565 S
C31 O40 1.247 1_545 S
C31 O41 1.272 . S
O32 Co28 2.004 1_665 S
O32 C37 1.259 . S
Co33 O34 2.070 . S
Co33 O39 2.052 1_655 S
Co33 O41 2.135 . S
O34 Co33 2.070 . S
O34 C37 1.226 1_545 S
C35 O38 1.238 . S
C35 O39 1.241 . S
C36 O29 1.247 . S
C36 O30 1.261 1_545 S
C37 O32 1.259 . S
C37 O34 1.226 1_565 S
O38 Co28 2.021 . S
O38 C35 1.238 . S
O39 Co33 2.052 1_455 S
O39 C35 1.241 . S
O40 Co28 2.137 1_665 S
O40 C31 1.247 1_565 S
O41 Co28 2.244 1_655 S
O41 C31 1.272 . S
O41 Co33 2.135 . S
C42 C43 1.384 1_655 S
C42 C44 1.384 . S
C42 H70 0.931 . S
C43 C42 1.384 1_455 S
C43 C46 1.382 . S
C44 C42 1.384 . S
C44 C45 1.381 1_655 S
C44 H71 0.930 . S
C45 C44 1.381 1_455 S
C45 C47 1.381 . S
C45 C48 1.487 . S
C46 C43 1.382 . S
C46 C47 1.387 . S
C46 H72 0.930 . S
C47 C45 1.381 . S
C47 C46 1.387 . S
C47 H73 0.931 . S
C48 C45 1.487 . S
C48 C55 1.399 . S
C48 N86 1.343 . S
C49 C50 1.384 . S
C49 C51 1.384 . S
C49 H74 0.931 . S
C50 C49 1.384 . S
C50 C53 1.382 1_455 S
C51 C49 1.384 . S
C51 C52 1.381 . S
C51 H75 0.930 . S
C52 C51 1.381 . S
C52 C54 1.381 1_455 S
C52 C55 1.487 . S
C53 C50 1.382 1_655 S
C53 C54 1.387 . S
C53 H76 0.930 . S
C54 C52 1.381 1_655 S
C54 C53 1.387 . S
C54 H77 0.931 . S
C55 C48 1.399 . S
C55 C52 1.487 . S
C55 N87 1.343 . S
C56 C57 1.384 . S
C56 C58 1.384 . S
C56 H78 0.931 . S
C57 C56 1.384 . S
C57 C60 1.382 1_455 S
C58 C56 1.384 . S
C58 C59 1.381 . S
C58 H79 0.930 . S
C59 C58 1.381 . S
C59 C61 1.381 1_455 S
C59 C62 1.487 . S
C60 C57 1.382 1_655 S
C60 C61 1.387 . S
C60 H80 0.930 . S
C61 C59 1.381 1_655 S
C61 C60 1.387 . S
C61 H81 0.931 . S
C62 C59 1.487 . S
C62 C69 1.399 . S
C62 N87 1.343 . S
C63 C64 1.384 1_655 S
C63 C65 1.384 . S
C63 H82 0.931 . S
C64 C63 1.384 1_455 S
C64 C67 1.382 . S
C65 C63 1.384 . S
C65 C66 1.381 1_655 S
C65 H83 0.930 . S
C66 C65 1.381 1_455 S
C66 C68 1.381 . S
C66 C69 1.487 . S
C67 C64 1.382 . S
C67 C68 1.387 . S
C67 H84 0.930 . S
C68 C66 1.381 . S
C68 C67 1.387 . S
C68 H85 0.931 . S
C69 C62 1.399 . S
C69 C66 1.487 . S
C69 N86 1.343 . S
H70 C42 0.931 . S
H71 C44 0.930 . S
H72 C46 0.930 . S
H73 C47 0.931 . S
H74 C49 0.931 . S
H75 C51 0.930 . S
H76 C53 0.930 . S
H77 C54 0.931 . S
H78 C56 0.931 . S
H79 C58 0.930 . S
H80 C60 0.930 . S
H81 C61 0.931 . S
H82 C63 0.931 . S
H83 C65 0.930 . S
H84 C67 0.930 . S
H85 C68 0.931 . S
N86 C48 1.343 . S
N86 C69 1.343 . S
N87 C55 1.343 . S
N87 C62 1.343 . S
C88 C89 1.384 . S
C88 C90 1.384 . S
C88 H116 0.931 . S
C89 C88 1.384 . S
C89 C92 1.382 1_545 S
C90 C88 1.384 . S
C90 C91 1.381 . S
C90 H117 0.930 . S
C91 C90 1.381 . S
C91 C93 1.381 1_545 S
C91 C94 1.487 . S
C92 C89 1.382 1_565 S
C92 C93 1.387 . S
C92 H118 0.930 . S
C93 C91 1.381 1_565 S
C93 C92 1.387 . S
C93 H119 0.931 . S
C94 C91 1.487 . S
C94 C101 1.399 . S
C94 N132 1.343 . S
C95 C96 1.384 1_565 S
C95 C97 1.384 . S
C95 H120 0.931 . S
C96 C95 1.384 1_545 S
C96 C99 1.382 . S
C97 C95 1.384 . S
C97 C98 1.381 1_565 S
C97 H121 0.930 . S
C98 C97 1.381 1_545 S
C98 C100 1.381 . S
C98 C101 1.487 . S
C99 C96 1.382 . S
C99 C100 1.387 . S
C99 H122 0.930 . S
C100 C98 1.381 . S
C100 C99 1.387 . S
C100 H123 0.931 . S
C101 C94 1.399 . S
C101 C98 1.487 . S
C101 N133 1.343 . S
C102 C103 1.384 1_565 S
C102 C104 1.384 . S
C102 H124 0.931 . S
C103 C102 1.384 1_545 S
C103 C106 1.382 . S
C104 C102 1.384 . S
C104 C105 1.381 1_565 S
C104 H125 0.930 . S
C105 C104 1.381 1_545 S
C105 C107 1.381 . S
C105 C108 1.487 . S
C106 C103 1.382 . S
C106 C107 1.387 . S
C106 H126 0.930 . S
C107 C105 1.381 . S
C107 C106 1.387 . S
C107 H127 0.931 . S
C108 C105 1.487 . S
C108 C115 1.399 . S
C108 N133 1.343 . S
C109 C110 1.384 . S
C109 C111 1.384 . S
C109 H128 0.931 . S
C110 C109 1.384 . S
C110 C113 1.382 1_545 S
C111 C109 1.384 . S
C111 C112 1.381 . S
C111 H129 0.930 . S
C112 C111 1.381 . S
C112 C114 1.381 1_545 S
C112 C115 1.487 . S
C113 C110 1.382 1_565 S
C113 C114 1.387 . S
C113 H130 0.930 . S
C114 C112 1.381 1_565 S
C114 C113 1.387 . S
C114 H131 0.931 . S
C115 C108 1.399 . S
C115 C112 1.487 . S
C115 N132 1.343 . S
H116 C88 0.931 . S
H117 C90 0.930 . S
H118 C92 0.930 . S
H119 C93 0.931 . S
H120 C95 0.931 . S
H121 C97 0.930 . S
H122 C99 0.930 . S
H123 C100 0.931 . S
H124 C102 0.931 . S
H125 C104 0.930 . S
H126 C106 0.930 . S
H127 C107 0.931 . S
H128 C109 0.931 . S
H129 C111 0.930 . S
H130 C113 0.930 . S
H131 C114 0.931 . S
N132 C94 1.343 . S
N132 C115 1.343 . S
N133 C101 1.343 . S
N133 C108 1.343 . S
C134 C135 1.384 . S
C134 C136 1.384 . S
C134 H162 0.931 . S
C135 C134 1.384 . S
C135 C138 1.382 . S
C136 C134 1.384 . S
C136 C137 1.381 . S
C136 H163 0.930 . S
C137 C136 1.381 . S
C137 C139 1.381 . S
C137 C140 1.487 . S
C138 C135 1.382 . S
C138 C139 1.387 . S
C138 H164 0.930 . S
C139 C137 1.381 . S
C139 C138 1.387 . S
C139 H165 0.931 . S
C140 C137 1.487 . S
C140 C147 1.399 . S
C140 N178 1.343 . S
C141 C142 1.384 . S
C141 C143 1.384 . S
C141 H166 0.931 . S
C142 C141 1.384 . S
C142 C145 1.382 . S
C143 C141 1.384 . S
C143 C144 1.381 . S
C143 H167 0.930 . S
C144 C143 1.381 . S
C144 C146 1.381 . S
C144 C147 1.487 . S
C145 C142 1.382 . S
C145 C146 1.387 . S
C145 H168 0.930 . S
C146 C144 1.381 . S
C146 C145 1.387 . S
C146 H169 0.931 . S
C147 C140 1.399 . S
C147 C144 1.487 . S
C147 N179 1.343 . S
C148 C149 1.384 . S
C148 C150 1.384 . S
C148 H170 0.931 . S
C149 C148 1.384 . S
C149 C152 1.382 . S
C150 C148 1.384 . S
C150 C151 1.381 . S
C150 H171 0.930 . S
C151 C150 1.381 . S
C151 C153 1.381 . S
C151 C154 1.487 . S
C152 C149 1.382 . S
C152 C153 1.387 . S
C152 H172 0.930 . S
C153 C151 1.381 . S
C153 C152 1.387 . S
C153 H173 0.931 . S
C154 C151 1.487 . S
C154 C161 1.399 . S
C154 N179 1.343 . S
C155 C156 1.384 . S
C155 C157 1.384 . S
C155 H174 0.931 . S
C156 C155 1.384 . S
C156 C159 1.382 . S
C157 C155 1.384 . S
C157 C158 1.381 . S
C157 H175 0.930 . S
C158 C157 1.381 . S
C158 C160 1.381 . S
C158 C161 1.487 . S
C159 C156 1.382 . S
C159 C160 1.387 . S
C159 H176 0.930 . S
C160 C158 1.381 . S
C160 C159 1.387 . S
C160 H177 0.931 . S
C161 C154 1.399 . S
C161 C158 1.487 . S
C161 N178 1.343 . S
H162 C134 0.931 . S
H163 C136 0.930 . S
H164 C138 0.930 . S
H165 C139 0.931 . S
H166 C141 0.931 . S
H167 C143 0.930 . S
H168 C145 0.930 . S
H169 C146 0.931 . S
H170 C148 0.931 . S
H171 C150 0.930 . S
H172 C152 0.930 . S
H173 C153 0.931 . S
H174 C155 0.931 . S
H175 C157 0.930 . S
H176 C159 0.930 . S
H177 C160 0.931 . S
N178 C140 1.343 . S
N178 C161 1.343 . S
N179 C147 1.343 . S
N179 C154 1.343 . S
H180 C181 0.951 . S
C181 H180 0.951 . S
C181 C187 1.265 1_455 S
H182 C187 0.950 . S
H183 C191 0.949 . S
H184 C192 0.950 . S
H185 C193 0.951 . S
H186 C194 0.951 . S
C187 C181 1.265 1_655 S
C187 H182 0.950 . S
C187 C188 1.478 1_655 S
C188 C187 1.478 1_455 S
C188 C189 1.397 1_455 S
C188 C205 1.394 . S
C189 C188 1.397 1_655 S
C189 C190 1.438 . S
C189 C194 1.429 . S
C190 C189 1.438 . S
C190 C191 1.428 . S
C190 C203 1.394 1_655 S
C191 H183 0.949 . S
C191 C190 1.428 . S
C191 C192 1.345 . S
C192 H184 0.950 . S
C192 C191 1.345 . S
C192 C193 1.424 . S
C193 H185 0.951 . S
C193 C192 1.424 . S
C193 C194 1.347 . S
C194 H186 0.951 . S
C194 C189 1.429 . S
C194 C193 1.347 . S
H195 C196 0.951 1_655 S
C196 H195 0.951 1_455 S
C196 C202 1.265 . S
H197 C202 0.950 . S
H198 C206 0.949 . S
H199 C207 0.950 . S
H200 C208 0.951 . S
H201 C209 0.951 . S
C202 C196 1.265 . S
C202 H197 0.950 . S
C202 C203 1.478 . S
C203 C190 1.394 1_455 S
C203 C202 1.478 . S
C203 C204 1.397 . S
C204 C203 1.397 . S
C204 C205 1.438 . S
C204 C209 1.429 . S
C205 C188 1.394 . S
C205 C204 1.438 . S
C205 C206 1.428 . S
C206 H198 0.949 . S
C206 C205 1.428 . S
C206 C207 1.345 . S
C207 H199 0.950 . S
C207 C206 1.345 . S
C207 C208 1.424 . S
C208 H200 0.951 . S
C208 C207 1.424 . S
C208 C209 1.347 . S
C209 H201 0.951 . S
C209 C204 1.429 . S
C209 C208 1.347 . S
H210 C211 0.951 . S
C211 H210 0.951 . S
C211 C217 1.265 . S
H212 C217 0.950 . S
H213 C221 0.949 . S
H214 C222 0.950 . S
H215 C223 0.951 . S
H216 C224 0.951 . S
C217 C211 1.265 . S
C217 H212 0.950 . S
C217 C218 1.478 . S
C218 C217 1.478 . S
C218 C219 1.397 . S
C218 C235 1.394 1_545 S
C219 C218 1.397 . S
C219 C220 1.438 . S
C219 C224 1.429 . S
C220 C219 1.438 . S
C220 C221 1.428 . S
C220 C233 1.394 . S
C221 H213 0.949 . S
C221 C220 1.428 . S
C221 C222 1.345 . S
C222 H214 0.950 . S
C222 C221 1.345 . S
C222 C223 1.424 . S
C223 H215 0.951 . S
C223 C222 1.424 . S
C223 C224 1.347 . S
C224 H216 0.951 . S
C224 C219 1.429 . S
C224 C223 1.347 . S
H225 C226 0.951 . S
C226 H225 0.951 . S
C226 C232 1.265 . S
H227 C232 0.950 . S
H228 C236 0.949 . S
H229 C237 0.950 . S
H230 C238 0.951 . S
H231 C239 0.951 . S
C232 C226 1.265 . S
C232 H227 0.950 . S
C232 C233 1.478 . S
C233 C220 1.394 . S
C233 C232 1.478 . S
C233 C234 1.397 1_545 S
C234 C233 1.397 1_565 S
C234 C235 1.438 . S
C234 C239 1.429 . S
C235 C218 1.394 1_565 S
C235 C234 1.438 . S
C235 C236 1.428 . S
C236 H228 0.949 . S
C236 C235 1.428 . S
C236 C237 1.345 . S
C237 H229 0.950 . S
C237 C236 1.345 . S
C237 C238 1.424 . S
C238 H230 0.951 . S
C238 C237 1.424 . S
C238 C239 1.347 . S
C239 H231 0.951 . S
C239 C234 1.429 . S
C239 C238 1.347 . S
H240 C241 0.951 . S
C241 H240 0.951 . S
C241 C247 1.265 . S
H242 C247 0.950 . S
H243 C251 0.949 . S
H244 C252 0.950 . S
H245 C253 0.951 . S
H246 C254 0.951 . S
C247 C241 1.265 . S
C247 H242 0.950 . S
C247 C248 1.478 . S
C248 C247 1.478 . S
C248 C249 1.397 . S
C248 C265 1.394 . S
C249 C248 1.397 . S
C249 C250 1.438 . S
C249 C254 1.429 . S
C250 C249 1.438 . S
C250 C251 1.428 . S
C250 C263 1.394 . S
C251 H243 0.949 . S
C251 C250 1.428 . S
C251 C252 1.345 . S
C252 H244 0.950 . S
C252 C251 1.345 . S
C252 C253 1.424 . S
C253 H245 0.951 . S
C253 C252 1.424 . S
C253 C254 1.347 . S
C254 H246 0.951 . S
C254 C249 1.429 . S
C254 C253 1.347 . S
H255 C256 0.951 . S
C256 H255 0.951 . S
C256 C262 1.265 . S
H257 C262 0.950 . S
H258 C266 0.949 . S
H259 C267 0.950 . S
H260 C268 0.951 . S
H261 C269 0.951 . S
C262 C256 1.265 . S
C262 H257 0.950 . S
C262 C263 1.478 . S
C263 C250 1.394 . S
C263 C262 1.478 . S
C263 C264 1.397 . S
C264 C263 1.397 . S
C264 C265 1.438 . S
C264 C269 1.429 . S
C265 C248 1.394 . S
C265 C264 1.438 . S
C265 C266 1.428 . S
C266 H258 0.949 . S
C266 C265 1.428 . S
C266 C267 1.345 . S
C267 H259 0.950 . S
C267 C266 1.345 . S
C267 C268 1.424 . S
C268 H260 0.951 . S
C268 C267 1.424 . S
C268 C269 1.347 . S
C269 H261 0.951 . S
C269 C264 1.429 . S
C269 C268 1.347 . S
H270 C271 0.951 1_655 S
C271 H270 0.951 1_455 S
C271 C277 1.265 . S
H272 C277 0.950 . S
H273 C281 0.949 . S
H274 C282 0.950 . S
H275 C283 0.951 . S
H276 C284 0.951 . S
C277 C271 1.265 . S
C277 H272 0.950 . S
C277 C278 1.478 . S
C278 C277 1.478 . S
C278 C279 1.397 . S
C278 C295 1.396 . S
C279 C278 1.397 . S
C279 C280 1.438 . S
C279 C284 1.429 . S
C280 C279 1.438 . S
C280 C281 1.428 . S
C280 C293 1.394 . S
C281 H273 0.949 . S
C281 C280 1.428 . S
C281 C282 1.345 . S
C282 H274 0.950 . S
C282 C281 1.345 . S
C282 C283 1.424 . S
C283 H275 0.951 . S
C283 C282 1.424 . S
C283 C284 1.347 . S
C284 H276 0.951 . S
C284 C279 1.429 . S
C284 C283 1.347 . S
H285 C286 0.951 . S
C286 H285 0.951 . S
C286 C292 1.265 1_455 S
H287 C292 0.950 . S
H288 C296 0.949 . S
H289 C297 0.950 . S
H290 C298 0.951 . S
H291 C299 0.951 . S
C292 C286 1.265 1_655 S
C292 H287 0.950 . S
C292 C293 1.478 1_655 S
C293 C280 1.394 . S
C293 C292 1.478 1_455 S
C293 C294 1.397 1_455 S
C294 C293 1.397 1_655 S
C294 C295 1.441 1_655 S
C294 C299 1.429 . S
C295 C278 1.396 . S
C295 C294 1.441 1_455 S
C295 C296 1.423 1_455 S
C296 H288 0.949 . S
C296 C295 1.423 1_655 S
C296 C297 1.345 . S
C297 H289 0.950 . S
C297 C296 1.345 . S
C297 C298 1.424 . S
C298 H290 0.951 . S
C298 C297 1.424 . S
C298 C299 1.347 . S
C299 H291 0.951 . S
C299 C294 1.429 . S
C299 C298 1.347 . S
H300 C301 0.951 . S
C301 H300 0.951 . S
C301 C307 1.265 . S
H302 C307 0.950 . S
H303 C311 0.949 . S
H304 C312 0.950 . S
H305 C313 0.951 . S
H306 C314 0.951 . S
C307 C301 1.265 . S
C307 H302 0.950 . S
C307 C308 1.478 . S
C308 C307 1.478 . S
C308 C309 1.397 . S
C308 C325 1.394 1_545 S
C309 C308 1.397 . S
C309 C310 1.438 . S
C309 C314 1.429 . S
C310 C309 1.438 . S
C310 C311 1.428 . S
C310 C323 1.394 . S
C311 H303 0.949 . S
C311 C310 1.428 . S
C311 C312 1.345 . S
C312 H304 0.950 . S
C312 C311 1.345 . S
C312 C313 1.424 . S
C313 H305 0.951 . S
C313 C312 1.424 . S
C313 C314 1.347 . S
C314 H306 0.951 . S
C314 C309 1.429 . S
C314 C313 1.347 . S
H315 C316 0.951 . S
C316 H315 0.951 . S
C316 C322 1.265 . S
H317 C322 0.950 . S
H318 C326 0.949 . S
H319 C327 0.950 . S
H320 C328 0.951 . S
H321 C329 0.951 . S
C322 C316 1.265 . S
C322 H317 0.950 . S
C322 C323 1.478 . S
C323 C310 1.394 . S
C323 C322 1.478 . S
C323 C324 1.397 1_545 S
C324 C323 1.397 1_565 S
C324 C325 1.438 . S
C324 C329 1.429 . S
C325 C308 1.394 1_565 S
C325 C324 1.438 . S
C325 C326 1.428 . S
C326 H318 0.949 . S
C326 C325 1.428 . S
C326 C327 1.345 . S
C327 H319 0.950 . S
C327 C326 1.345 . S
C327 C328 1.424 . S
C328 H320 0.951 . S
C328 C327 1.424 . S
C328 C329 1.347 . S
C329 H321 0.951 . S
C329 C324 1.429 . S
C329 C328 1.347 . S
H330 C331 0.951 . S
C331 H330 0.951 . S
C331 C337 1.265 . S
H332 C337 0.950 . S
H333 C341 0.949 . S
H334 C342 0.950 . S
H335 C343 0.951 . S
H336 C344 0.951 . S
C337 C331 1.265 . S
C337 H332 0.950 . S
C337 C338 1.478 . S
C338 C337 1.478 . S
C338 C339 1.397 . S
C338 C355 1.394 . S
C339 C338 1.397 . S
C339 C340 1.438 . S
C339 C344 1.429 . S
C340 C339 1.438 . S
C340 C341 1.428 . S
C340 C353 1.394 . S
C341 H333 0.949 . S
C341 C340 1.428 . S
C341 C342 1.345 . S
C342 H334 0.950 . S
C342 C341 1.345 . S
C342 C343 1.424 . S
C343 H335 0.951 . S
C343 C342 1.424 . S
C343 C344 1.347 . S
C344 H336 0.951 . S
C344 C339 1.429 . S
C344 C343 1.347 . S
H345 C346 0.951 . S
C346 H345 0.951 . S
C346 C352 1.265 . S
H347 C352 0.950 . S
H348 C356 0.949 . S
H349 C357 0.950 . S
H350 C358 0.951 . S
H351 C359 0.951 . S
C352 C346 1.265 . S
C352 H347 0.950 . S
C352 C353 1.478 . S
C353 C340 1.394 . S
C353 C352 1.478 . S
C353 C354 1.397 . S
C354 C353 1.397 . S
C354 C355 1.438 . S
C354 C359 1.429 . S
C355 C338 1.394 . S
C355 C354 1.438 . S
C355 C356 1.428 . S
C356 H348 0.949 . S
C356 C355 1.428 . S
C356 C357 1.345 . S
C357 H349 0.950 . S
C357 C356 1.345 . S
C357 C358 1.424 . S
C358 H350 0.951 . S
C358 C357 1.424 . S
C358 C359 1.347 . S
C359 H351 0.951 . S
C359 C354 1.429 . S
C359 C358 1.347 . S
H360 C361 0.951 . S
C361 H360 0.951 . S
C361 C367 1.265 . S
H362 C367 0.950 . S
H363 C371 0.949 . S
H364 C372 0.950 . S
H365 C373 0.951 . S
H366 C374 0.951 . S
C367 C361 1.265 . S
C367 H362 0.950 . S
C367 C368 1.478 . S
C368 C367 1.478 . S
C368 C369 1.397 1_545 S
C368 C385 1.394 . S
C369 C368 1.397 1_565 S
C369 C370 1.438 . S
C369 C374 1.429 . S
C370 C369 1.438 . S
C370 C371 1.428 . S
C370 C383 1.394 1_565 S
C371 H363 0.949 . S
C371 C370 1.428 . S
C371 C372 1.345 . S
C372 H364 0.950 . S
C372 C371 1.345 . S
C372 C373 1.424 . S
C373 H365 0.951 . S
C373 C372 1.424 . S
C373 C374 1.347 . S
C374 H366 0.951 . S
C374 C369 1.429 . S
C374 C373 1.347 . S
H375 C376 0.951 . S
C376 H375 0.951 . S
C376 C382 1.265 . S
H377 C382 0.950 . S
H378 C386 0.949 . S
H379 C387 0.950 . S
H380 C388 0.951 . S
H381 C389 0.951 . S
C382 C376 1.265 . S
C382 H377 0.950 . S
C382 C383 1.478 . S
C383 C370 1.394 1_545 S
C383 C382 1.478 . S
C383 C384 1.397 . S
C384 C383 1.397 . S
C384 C385 1.438 . S
C384 C389 1.429 . S
C385 C368 1.394 . S
C385 C384 1.438 . S
C385 C386 1.428 . S
C386 H378 0.949 . S
C386 C385 1.428 . S
C386 C387 1.345 . S
C387 H379 0.950 . S
C387 C386 1.345 . S
C387 C388 1.424 . S
C388 H380 0.951 . S
C388 C387 1.424 . S
C388 C389 1.347 . S
C389 H381 0.951 . S
C389 C384 1.429 . S
C389 C388 1.347 . S
H390 C391 0.951 . S
C391 H390 0.951 . S
C391 C397 1.265 . S
H392 C397 0.950 . S
H393 C401 0.949 . S
H394 C402 0.950 . S
H395 C403 0.951 . S
H396 C404 0.951 . S
C397 C391 1.265 . S
C397 H392 0.950 . S
C397 C398 1.478 1_554 S
C398 C397 1.478 1_556 S
C398 C399 1.397 . S
C398 C415 1.395 1_556 S
C399 C398 1.397 . S
C399 C400 1.438 . S
C399 C404 1.429 . S
C400 C399 1.438 . S
C400 C401 1.428 . S
C400 C413 1.394 . S
C401 H393 0.949 . S
C401 C400 1.428 . S
C401 C402 1.345 . S
C402 H394 0.950 . S
C402 C401 1.345 . S
C402 C403 1.424 . S
C403 H395 0.951 . S
C403 C402 1.424 . S
C403 C404 1.347 . S
C404 H396 0.951 . S
C404 C399 1.429 . S
C404 C403 1.347 . S
H405 C406 0.951 . S
C406 H405 0.951 . S
C406 C412 1.265 . S
H407 C412 0.950 . S
H408 C416 0.949 . S
H409 C417 0.950 . S
H410 C418 0.951 . S
H411 C419 0.951 . S
C412 C406 1.265 . S
C412 H407 0.950 . S
C412 C413 1.478 . S
C413 C400 1.394 . S
C413 C412 1.478 . S
C413 C414 1.397 . S
C414 C413 1.397 . S
C414 C415 1.440 1_556 S
C414 C419 1.429 . S
C415 C398 1.395 1_554 S
C415 C414 1.440 1_554 S
C415 C416 1.425 . S
C416 H408 0.949 . S
C416 C415 1.425 . S
C416 C417 1.345 . S
C417 H409 0.950 . S
C417 C416 1.345 . S
C417 C418 1.424 . S
C418 H410 0.951 . S
C418 C417 1.424 . S
C418 C419 1.347 1_554 S
C419 H411 0.951 . S
C419 C414 1.429 . S
C419 C418 1.347 1_556 S
H420 C421 0.951 . S
C421 H420 0.951 . S
C421 C427 1.265 1_455 S
H422 C427 0.950 . S
H423 C431 0.949 1_455 S
H424 C432 0.950 . S
H425 C433 0.951 . S
H426 C434 0.951 . S
C427 C421 1.265 1_655 S
C427 H422 0.950 . S
C427 C428 1.478 1_655 S
C428 C427 1.478 1_455 S
C428 C429 1.397 1_455 S
C428 C445 1.394 . S
C429 C428 1.397 1_655 S
C429 C430 1.438 1_655 S
C429 C434 1.429 . S
C430 C429 1.438 1_455 S
C430 C431 1.428 1_455 S
C430 C443 1.394 . S
C431 H423 0.949 1_655 S
C431 C430 1.428 1_655 S
C431 C432 1.345 . S
C432 H424 0.950 . S
C432 C431 1.345 . S
C432 C433 1.424 . S
C433 H425 0.951 . S
C433 C432 1.424 . S
C433 C434 1.347 . S
C434 H426 0.951 . S
C434 C429 1.429 . S
C434 C433 1.347 . S
H435 C436 0.951 1_655 S
C436 H435 0.951 1_455 S
C436 C442 1.265 . S
H437 C442 0.950 . S
H438 C446 0.949 . S
H439 C447 0.950 . S
H440 C448 0.951 . S
H441 C449 0.951 . S
C442 C436 1.265 . S
C442 H437 0.950 . S
C442 C443 1.478 . S
C443 C430 1.394 . S
C443 C442 1.478 . S
C443 C444 1.397 . S
C444 C443 1.397 . S
C444 C445 1.438 . S
C444 C449 1.429 . S
C445 C428 1.394 . S
C445 C444 1.438 . S
C445 C446 1.428 . S
C446 H438 0.949 . S
C446 C445 1.428 . S
C446 C447 1.345 . S
C447 H439 0.950 . S
C447 C446 1.345 . S
C447 C448 1.424 . S
C448 H440 0.951 . S
C448 C447 1.424 . S
C448 C449 1.347 . S
C449 H441 0.951 . S
C449 C444 1.429 . S
C449 C448 1.347 . S
H450 C451 0.951 . S
C451 H450 0.951 . S
C451 C457 1.265 . S
H452 C457 0.950 . S
H453 C461 0.949 . S
H454 C462 0.950 . S
H455 C463 0.951 . S
H456 C464 0.951 . S
C457 C451 1.265 . S
C457 H452 0.950 . S
C457 C458 1.478 . S
C458 C457 1.478 . S
C458 C459 1.397 1_545 S
C458 C475 1.394 . S
C459 C458 1.397 1_565 S
C459 C460 1.438 . S
C459 C464 1.429 . S
C460 C459 1.438 . S
C460 C461 1.428 . S
C460 C473 1.394 1_565 S
C461 H453 0.949 . S
C461 C460 1.428 . S
C461 C462 1.345 . S
C462 H454 0.950 . S
C462 C461 1.345 . S
C462 C463 1.424 . S
C463 H455 0.951 . S
C463 C462 1.424 . S
C463 C464 1.347 . S
C464 H456 0.951 . S
C464 C459 1.429 . S
C464 C463 1.347 . S
H465 C466 0.951 . S
C466 H465 0.951 . S
C466 C472 1.265 . S
H467 C472 0.950 . S
H468 C476 0.949 . S
H469 C477 0.950 . S
H470 C478 0.951 . S
H471 C479 0.951 . S
C472 C466 1.265 . S
C472 H467 0.950 . S
C472 C473 1.478 . S
C473 C460 1.394 1_545 S
C473 C472 1.478 . S
C473 C474 1.397 . S
C474 C473 1.397 . S
C474 C475 1.438 . S
C474 C479 1.429 . S
C475 C458 1.394 . S
C475 C474 1.438 . S
C475 C476 1.428 . S
C476 H468 0.949 . S
C476 C475 1.428 . S
C476 C477 1.345 . S
C477 H469 0.950 . S
C477 C476 1.345 . S
C477 C478 1.424 . S
C478 H470 0.951 . S
C478 C477 1.424 . S
C478 C479 1.347 . S
C479 H471 0.951 . S
C479 C474 1.429 . S
C479 C478 1.347 . S
H480 C481 0.951 . S
C481 H480 0.951 . S
C481 C487 1.265 . S
H482 C487 0.950 . S
H483 C491 0.949 . S
H484 C492 0.950 . S
H485 C493 0.951 . S
H486 C494 0.951 . S
C487 C481 1.265 . S
C487 H482 0.950 . S
C487 C488 1.478 1_554 S
C488 C487 1.478 1_556 S
C488 C489 1.397 . S
C488 C505 1.394 . S
C489 C488 1.397 . S
C489 C490 1.438 . S
C489 C494 1.429 . S
C490 C489 1.438 . S
C490 C491 1.428 . S
C490 C503 1.394 . S
C491 H483 0.949 . S
C491 C490 1.428 . S
C491 C492 1.345 . S
C492 H484 0.950 . S
C492 C491 1.345 . S
C492 C493 1.424 . S
C493 H485 0.951 . S
C493 C492 1.424 . S
C493 C494 1.347 . S
C494 H486 0.951 . S
C494 C489 1.429 . S
C494 C493 1.347 . S
H495 C496 0.951 . S
C496 H495 0.951 . S
C496 C502 1.265 . S
H497 C502 0.950 . S
H498 C506 0.949 . S
H499 C507 0.950 . S
H500 C508 0.951 . S
H501 C509 0.951 . S
C502 C496 1.265 . S
C502 H497 0.950 . S
C502 C503 1.478 . S
C503 C490 1.394 . S
C503 C502 1.478 . S
C503 C504 1.397 . S
C504 C503 1.397 . S
C504 C505 1.438 . S
C504 C509 1.429 . S
C505 C488 1.394 . S
C505 C504 1.438 . S
C505 C506 1.428 1_556 S
C506 H498 0.949 . S
C506 C505 1.428 1_554 S
C506 C507 1.345 . S
C507 H499 0.950 . S
C507 C506 1.345 . S
C507 C508 1.424 . S
C508 H500 0.951 . S
C508 C507 1.424 . S
C508 C509 1.347 1_554 S
C509 H501 0.951 . S
C509 C504 1.429 . S
C509 C508 1.347 1_556 S
H510 C511 0.951 . S
C511 H510 0.951 . S
C511 C517 1.265 . S
H512 C517 0.950 1_655 S
H513 C521 0.949 . S
H514 C522 0.965 . S
H515 C523 0.951 . S
H516 C524 0.953 1_655 S
C517 C511 1.265 . S
C517 H512 0.950 1_455 S
C517 C518 1.478 . S
C518 C517 1.478 . S
C518 C519 1.397 . S
C518 C535 1.394 . S
C519 C518 1.397 . S
C519 C520 1.438 . S
C519 C524 1.431 . S
C520 C519 1.438 . S
C520 C521 1.428 . S
C520 C533 1.394 . S
C521 H513 0.949 . S
C521 C520 1.428 . S
C521 C522 1.345 . S
C522 H514 0.965 . S
C522 C521 1.345 . S
C522 C523 1.424 1_455 S
C523 H515 0.951 . S
C523 C522 1.424 1_655 S
C523 C524 1.344 1_655 S
C524 H516 0.953 1_455 S
C524 C519 1.431 . S
C524 C523 1.344 1_455 S
H525 C526 0.951 1_655 S
C526 H525 0.951 1_455 S
C526 C532 1.265 . S
H527 C532 0.950 . S
H528 C536 0.949 . S
H529 C537 0.950 . S
H530 C538 0.951 . S
H531 C539 0.951 . S
C532 C526 1.265 . S
C532 H527 0.950 . S
C532 C533 1.478 . S
C533 C520 1.394 . S
C533 C532 1.478 . S
C533 C534 1.397 . S
C534 C533 1.397 . S
C534 C535 1.438 . S
C534 C539 1.429 . S
C535 C518 1.394 . S
C535 C534 1.438 . S
C535 C536 1.428 . S
C536 H528 0.949 . S
C536 C535 1.428 . S
C536 C537 1.345 . S
C537 H529 0.950 . S
C537 C536 1.345 . S
C537 C538 1.424 . S
C538 H530 0.951 . S
C538 C537 1.424 . S
C538 C539 1.347 . S
C539 H531 0.951 . S
C539 C534 1.429 . S
C539 C538 1.347 . S
C196 C50 1.484 . S
C181 C3 1.470 . S
C211 C21 1.514 . S
C226 C89 1.517 . S
C241 C37 1.448 . S
C256 C156 1.498 . S
C271 C8 1.491 . S
C286 C57 1.491 . S
C316 C110 1.507 . S
C301 C23 1.478 . S
C331 C35 1.445 . S
C346 C135 1.501 . S
C376 C96 1.477 . S
C361 C31 1.482 . S
C391 C7 1.500 . S
C406 C149 1.507 . S
C436 C64 1.490 . S
C421 C17 1.472 . S
C466 C103 1.466 . S
C451 C36 1.461 . S
C496 C142 1.489 . S
C481 C9 1.448 . S
C511 C22 1.488 . S
C526 C43 1.497 . S
