# Generated by pormake.
# Topology ssa, (4,4)-cn, num edge types: 1
# Building blocks:
#     Node 0, Type 0, BuildingBlock: NAWXER_clean_sbu_0, # of connection points: 4
#     Node 1, Type 0, BuildingBlock: NAWXER_clean_sbu_0, # of connection points: 4
#     Node 2, Type 0, BuildingBlock: NAWXER_clean_sbu_0, # of connection points: 4
#     Node 3, Type 0, BuildingBlock: NAWXER_clean_sbu_0, # of connection points: 4
#     Node 4, Type 0, BuildingBlock: NAWXER_clean_sbu_0, # of connection points: 4
#     Node 5, Type 0, BuildingBlock: NAWXER_clean_sbu_0, # of connection points: 4
#     Node 6, Type 1, BuildingBlock: NAHDIM_clean_linker_0, # of connection points: 4
#     Node 7, Type 1, BuildingBlock: NAHDIM_clean_linker_0, # of connection points: 4
#     Node 8, Type 1, BuildingBlock: NAHDIM_clean_linker_0, # of connection points: 4
#     Node 9, Type 1, BuildingBlock: NAHDIM_clean_linker_0, # of connection points: 4
#     Node 10, Type 1, BuildingBlock: NAHDIM_clean_linker_0, # of connection points: 4
#     Node 11, Type 1, BuildingBlock: NAHDIM_clean_linker_0, # of connection points: 4
#     Edge 12, Type (0, 1), BuildingBlock: XUDNAN_clean_linker_2, # of connection points: 2
#     Edge 13, Type (0, 1), BuildingBlock: XUDNAN_clean_linker_2, # of connection points: 2
#     Edge 14, Type (0, 1), BuildingBlock: XUDNAN_clean_linker_2, # of connection points: 2
#     Edge 15, Type (0, 1), BuildingBlock: XUDNAN_clean_linker_2, # of connection points: 2
#     Edge 16, Type (0, 1), BuildingBlock: XUDNAN_clean_linker_2, # of connection points: 2
#     Edge 17, Type (0, 1), BuildingBlock: XUDNAN_clean_linker_2, # of connection points: 2
#     Edge 18, Type (0, 1), BuildingBlock: XUDNAN_clean_linker_2, # of connection points: 2
#     Edge 19, Type (0, 1), BuildingBlock: XUDNAN_clean_linker_2, # of connection points: 2
#     Edge 20, Type (0, 1), BuildingBlock: XUDNAN_clean_linker_2, # of connection points: 2
#     Edge 21, Type (0, 1), BuildingBlock: XUDNAN_clean_linker_2, # of connection points: 2
#     Edge 22, Type (0, 1), BuildingBlock: XUDNAN_clean_linker_2, # of connection points: 2
#     Edge 23, Type (0, 1), BuildingBlock: XUDNAN_clean_linker_2, # of connection points: 2
#     Edge 24, Type (0, 1), BuildingBlock: XUDNAN_clean_linker_2, # of connection points: 2
#     Edge 25, Type (0, 1), BuildingBlock: XUDNAN_clean_linker_2, # of connection points: 2
#     Edge 26, Type (0, 1), BuildingBlock: XUDNAN_clean_linker_2, # of connection points: 2
#     Edge 27, Type (0, 1), BuildingBlock: XUDNAN_clean_linker_2, # of connection points: 2
#     Edge 28, Type (0, 1), BuildingBlock: XUDNAN_clean_linker_2, # of connection points: 2
#     Edge 29, Type (0, 1), BuildingBlock: XUDNAN_clean_linker_2, # of connection points: 2
#     Edge 30, Type (0, 1), BuildingBlock: XUDNAN_clean_linker_2, # of connection points: 2
#     Edge 31, Type (0, 1), BuildingBlock: XUDNAN_clean_linker_2, # of connection points: 2
#     Edge 32, Type (0, 1), BuildingBlock: XUDNAN_clean_linker_2, # of connection points: 2
#     Edge 33, Type (0, 1), BuildingBlock: XUDNAN_clean_linker_2, # of connection points: 2
#     Edge 34, Type (0, 1), BuildingBlock: XUDNAN_clean_linker_2, # of connection points: 2
#     Edge 35, Type (0, 1), BuildingBlock: XUDNAN_clean_linker_2, # of connection points: 2
# Relax obj value: 0.028
# Max RMSD: 0.056
# Mean RMSD: 0.044
data_MOF--net-ssa--node1-NAWXER_clean_sbu_0--node2-NAHDIM_clean_linker_0--edge1-XUDNAN_clean_linker_2
_symmetry_space_group_name_H-M    P1
_symmetry_Int_Tables_number       1
_symmetry_cell_setting            triclinic
loop_
_symmetry_equiv_pos_as_xyz
'x, y, z'
_cell_length_a     60.762478
_cell_length_b     60.74648
_cell_length_c     51.900799
_cell_angle_alpha  89.826054
_cell_angle_beta   90.420266
_cell_angle_gamma 119.99324
loop_
_atom_site_label
_atom_site_type_symbol
_atom_site_fract_x
_atom_site_fract_y
_atom_site_fract_z
_atom_type_partial_charge
C0 C 0.0085 0.52406 0.0513 0.0
C1 C 0.9811 0.4574 0.98581 0.0
O2 O 0.98873 0.50211 0.05209 0.0
Zn3 Zn 0.99436 0.49013 0.01943 0.0
O4 O 0.02372 0.53001 0.03221 0.0
Zn5 Zn 0.02721 0.51375 0.99693 0.0
O6 O 0.02649 0.53713 0.9719 0.0
O7 O 0.99072 0.51566 0.9935 0.0
O8 O 0.00224 0.47737 0.98046 0.0
O9 O 0.96977 0.45665 0.00656 0.0
O10 O 0.02718 0.48693 0.02812 0.0
O11 O 0.05841 0.5132 0.00279 0.0
C12 C 0.00414 0.53264 0.97681 0.0
C13 C 0.05028 0.49672 0.0207 0.0
C14 C 0.49779 0.03662 0.52723 0.0
C15 C 0.53937 0.00787 0.46701 0.0
O16 O 0.49495 0.01489 0.53333 0.0
Zn17 Zn 0.50656 0.98917 0.51925 0.0
O18 O 0.51075 0.04813 0.50752 0.0
Zn19 Zn 0.51899 0.02258 0.49692 0.0
O20 O 0.48273 0.99071 0.4858 0.0
O21 O 0.47427 0.95913 0.51257 0.0
O22 O 0.53911 0.02866 0.46652 0.0
O23 O 0.52797 0.99175 0.48512 0.0
O24 O 0.52785 0.98863 0.54706 0.0
O25 O 0.54526 0.02493 0.52587 0.0
C26 C 0.4679 0.96782 0.49338 0.0
C27 C 0.54651 0.0109 0.54362 0.0
C28 C 0.49328 0.48195 0.98266 0.0
C29 C 0.53262 0.55475 0.0404 0.0
O30 O 0.49354 0.50294 0.98102 0.0
Zn31 Zn 0.51376 0.51842 0.01128 0.0
O32 O 0.50513 0.47838 0.00133 0.0
Zn33 Zn 0.52741 0.49964 0.03448 0.0
O34 O 0.50822 0.47792 0.06221 0.0
O35 O 0.48833 0.49487 0.04178 0.0
O36 O 0.53641 0.53684 0.04824 0.0
O37 O 0.52056 0.55203 0.0195 0.0
O38 O 0.55073 0.52437 0.00042 0.0
O39 O 0.55982 0.50263 0.02831 0.0
C40 C 0.48876 0.48036 0.05962 0.0
C41 C 0.56595 0.51699 0.00873 0.0
C42 C 0.00536 0.5212 0.47073 0.0
C43 C 0.96017 0.44326 0.52056 0.0
O44 O 0.01716 0.52199 0.49163 0.0
Zn45 Zn 0.01115 0.49755 0.52441 0.0
O46 O 0.98417 0.50161 0.46539 0.0
Zn47 Zn 0.98263 0.48236 0.49543 0.0
O48 O 0.97686 0.50362 0.52503 0.0
O49 O 0.00865 0.51673 0.55277 0.0
O50 O 0.9541 0.44826 0.49877 0.0
O51 O 0.98057 0.45993 0.53184 0.0
O52 O 0.04012 0.49254 0.52306 0.0
O53 O 0.01414 0.47611 0.48972 0.0
C54 C 0.98812 0.51573 0.54564 0.0
C55 C 0.03461 0.4808 0.50166 0.0
C56 C 0.51633 0.98822 0.05356 0.0
C57 C 0.49919 0.04409 0.99935 0.0
O58 O 0.52065 0.01033 0.05968 0.0
Zn59 Zn 0.50867 0.01711 0.02729 0.0
O60 O 0.50729 0.97913 0.03122 0.0
Zn61 Zn 0.49563 0.98965 0.9966 0.0
O62 O 0.51981 0.99079 0.97165 0.0
O63 O 0.53749 0.02024 0.00182 0.0
O64 O 0.49415 0.02325 0.98828 0.0
O65 O 0.508 0.0485 0.02223 0.0
O66 O 0.46911 0.98916 0.02784 0.0
O67 O 0.46022 0.96306 0.99484 0.0
C68 C 0.53955 0.00924 0.98171 0.0
C69 C 0.45303 0.96974 0.01485 0.0
C70 C 0.56122 0.50779 0.52667 0.0
C71 C 0.48985 0.47866 0.46723 0.0
O72 O 0.54633 0.51631 0.53244 0.0
Zn73 Zn 0.51175 0.51356 0.51751 0.0
O74 O 0.55617 0.49319 0.50735 0.0
Zn75 Zn 0.52508 0.49223 0.49765 0.0
O76 O 0.53945 0.53086 0.48419 0.0
O77 O 0.52279 0.5483 0.50877 0.0
O78 O 0.5062 0.47151 0.46833 0.0
O79 O 0.49012 0.49418 0.48403 0.0
O80 O 0.48795 0.49839 0.54532 0.0
O81 O 0.50103 0.47306 0.53001 0.0
C82 C 0.53709 0.55008 0.49018 0.0
C83 C 0.488 0.47754 0.54631 0.0
C84 C 0.08841 0.3815 0.38478 0.0
C85 C 0.11244 0.40348 0.39704 0.0
C86 C 0.146 0.41997 0.36421 0.0
C87 C 0.1631 0.44197 0.35102 0.0
C88 C 0.18305 0.44292 0.33664 0.0
C89 C 0.18528 0.42087 0.33459 0.0
C90 C 0.16766 0.39832 0.34739 0.0
C91 C 0.14843 0.39818 0.36233 0.0
C92 C 0.20196 0.46763 0.32409 0.0
C93 C 0.16927 0.37437 0.34551 0.0
C94 C 0.36929 0.43924 0.39697 0.0
C95 C 0.34185 0.42572 0.39022 0.0
C96 C 0.31236 0.43729 0.3699 0.0
C97 C 0.29383 0.41251 0.36274 0.0
C98 C 0.27266 0.40828 0.34783 0.0
C99 C 0.27019 0.42925 0.33984 0.0
C100 C 0.28868 0.45414 0.34735 0.0
C101 C 0.30946 0.45778 0.36241 0.0
C102 C 0.25305 0.3815 0.34039 0.0
C103 C 0.28663 0.47693 0.33922 0.0
C104 C 0.31926 0.43069 0.17701 0.0
C105 C 0.29901 0.40687 0.18441 0.0
C106 C 0.27726 0.40482 0.19601 0.0
C107 C 0.27582 0.42702 0.20051 0.0
C108 C 0.29594 0.45094 0.19261 0.0
C109 C 0.31733 0.45241 0.18078 0.0
C110 C 0.25593 0.37896 0.20378 0.0
C111 C 0.29499 0.47499 0.197 0.0
C112 C 0.10757 0.43457 0.17548 0.0
C113 C 0.12962 0.44773 0.15643 0.0
C114 C 0.15761 0.43044 0.16494 0.0
C115 C 0.15521 0.40659 0.16904 0.0
C116 C 0.17311 0.40394 0.18402 0.0
C117 C 0.19402 0.4258 0.19483 0.0
C118 C 0.19709 0.4501 0.18989 0.0
C119 C 0.17897 0.45218 0.17482 0.0
C120 C 0.16952 0.37783 0.18863 0.0
C121 C 0.21952 0.47388 0.20061 0.0
C122 C 0.20689 0.42176 0.32041 0.0
C123 C 0.22728 0.4238 0.33498 0.0
C124 C 0.2486 0.42538 0.32317 0.0
C125 C 0.24978 0.42484 0.29601 0.0
C126 C 0.27106 0.42657 0.28355 0.0
C127 C 0.27228 0.4265 0.2568 0.0
C128 C 0.25234 0.42487 0.24147 0.0
C129 C 0.25364 0.4253 0.21425 0.0
C130 C 0.23397 0.42473 0.1996 0.0
C131 C 0.21277 0.42349 0.2114 0.0
C132 C 0.21065 0.42204 0.23857 0.0
C133 C 0.18917 0.41987 0.25103 0.0
C134 C 0.18761 0.41919 0.27781 0.0
C135 C 0.20771 0.42122 0.29316 0.0
C136 C 0.22932 0.4229 0.28096 0.0
C137 C 0.23069 0.42309 0.25364 0.0
C138 C 0.37247 0.42341 0.15244 0.0
C139 C 0.34774 0.41493 0.16519 0.0
O140 O 0.12755 0.42066 0.37835 0.0
O141 O 0.13924 0.4318 0.15111 0.0
O142 O 0.34093 0.43353 0.1664 0.0
O143 O 0.3334 0.44243 0.38379 0.0
H144 H 0.12306 0.39533 0.40695 0.0
H145 H 0.09336 0.37005 0.372 0.0
H146 H 0.07805 0.3887 0.37296 0.0
H147 H 0.07556 0.36873 0.39999 0.0
H148 H 0.16113 0.45869 0.35254 0.0
H149 H 0.13541 0.38094 0.37234 0.0
H150 H 0.22168 0.47208 0.32845 0.0
H151 H 0.19967 0.48379 0.33056 0.0
H152 H 0.19935 0.46587 0.30287 0.0
H153 H 0.15206 0.35753 0.35322 0.0
H154 H 0.18603 0.37685 0.35665 0.0
H155 H 0.17185 0.37058 0.32515 0.0
H156 H 0.32906 0.41037 0.40368 0.0
H157 H 0.36989 0.43445 0.41786 0.0
H158 H 0.37497 0.45963 0.4011 0.0
H159 H 0.38638 0.42878 0.36709 0.0
H160 H 0.2958 0.39649 0.36872 0.0
H161 H 0.32385 0.47679 0.36813 0.0
H162 H 0.2339 0.37748 0.34645 0.0
H163 H 0.25701 0.36713 0.3492 0.0
H164 H 0.25261 0.37947 0.31911 0.0
H165 H 0.30295 0.4951 0.34617 0.0
H166 H 0.26882 0.47522 0.34687 0.0
H167 H 0.28567 0.4776 0.31787 0.0
H168 H 0.345 0.40451 0.18371 0.0
H169 H 0.30004 0.38981 0.18122 0.0
H170 H 0.33294 0.47066 0.17483 0.0
H171 H 0.2543 0.37795 0.22509 0.0
H172 H 0.25898 0.36335 0.19705 0.0
H173 H 0.2376 0.37592 0.19581 0.0
H174 H 0.31282 0.49226 0.19111 0.0
H175 H 0.29153 0.47673 0.21768 0.0
H176 H 0.27894 0.47413 0.18581 0.0
H177 H 0.14394 0.46543 0.16621 0.0
H178 H 0.09806 0.44597 0.1782 0.0
H179 H 0.115 0.43269 0.19449 0.0
H180 H 0.09348 0.41517 0.16875 0.0
H181 H 0.13892 0.38995 0.16094 0.0
H182 H 0.18186 0.47088 0.17055 0.0
H183 H 0.16792 0.37381 0.20963 0.0
H184 H 0.1864 0.37714 0.18165 0.0
H185 H 0.15229 0.3627 0.17879 0.0
H186 H 0.21936 0.4914 0.19473 0.0
H187 H 0.23747 0.47524 0.19393 0.0
H188 H 0.21946 0.47293 0.22198 0.0
H189 H 0.22673 0.42459 0.35584 0.0
H190 H 0.28707 0.42806 0.29432 0.0
H191 H 0.28919 0.42798 0.24832 0.0
H192 H 0.23543 0.42579 0.17876 0.0
H193 H 0.17329 0.41863 0.24021 0.0
H194 H 0.17059 0.4174 0.28635 0.0
H195 H 0.36251 0.40064 0.11843 0.0
H196 H 0.38511 0.42261 0.16796 0.0
H197 H 0.38264 0.44485 0.15195 0.0
C198 C 0.89009 0.27378 0.91735 0.0
C199 C 0.89595 0.29251 0.89497 0.0
C200 C 0.85908 0.26958 0.8659 0.0
C201 C 0.86524 0.25133 0.85737 0.0
C202 C 0.849 0.23173 0.84056 0.0
C203 C 0.82619 0.23031 0.83197 0.0
C204 C 0.82024 0.24896 0.83992 0.0
C205 C 0.83679 0.26835 0.85678 0.0
C206 C 0.85593 0.21212 0.83244 0.0
C207 C 0.79613 0.24808 0.83099 0.0
C208 C 0.6944 0.03888 0.86901 0.0
C209 C 0.69632 0.06156 0.88386 0.0
C210 C 0.71408 0.09948 0.85618 0.0
C211 C 0.70869 0.11745 0.84565 0.0
C212 C 0.72761 0.13942 0.83361 0.0
C213 C 0.75246 0.14318 0.83159 0.0
C214 C 0.75817 0.12518 0.84236 0.0
C215 C 0.73892 0.1035 0.85459 0.0
C216 C 0.7209 0.15835 0.82254 0.0
C217 C 0.78444 0.12856 0.8403 0.0
C218 C 0.72617 0.08986 0.67088 0.0
C219 C 0.71656 0.10583 0.67747 0.0
C220 C 0.73255 0.12995 0.68826 0.0
C221 C 0.75846 0.1379 0.69302 0.0
C222 C 0.76825 0.12207 0.6856 0.0
C223 C 0.75202 0.09845 0.67417 0.0
C224 C 0.72163 0.14664 0.69517 0.0
C225 C 0.79572 0.12979 0.6903 0.0
C226 C 0.92159 0.29867 0.64433 0.0
C227 C 0.89682 0.29173 0.62973 0.0
C228 C 0.86214 0.26921 0.6608 0.0
C229 C 0.84181 0.26957 0.67278 0.0
C230 C 0.82419 0.2489 0.68755 0.0
C231 C 0.82768 0.22774 0.69135 0.0
C232 C 0.84846 0.2274 0.67957 0.0
C233 C 0.86512 0.24785 0.66402 0.0
C234 C 0.80182 0.24972 0.69893 0.0
C235 C 0.85306 0.20533 0.68302 0.0
C236 C 0.8077 0.20819 0.81636 0.0
C237 C 0.78927 0.18693 0.82963 0.0
C238 C 0.7719 0.16494 0.8165 0.0
C239 C 0.77287 0.1639 0.78938 0.0
C240 C 0.75627 0.14167 0.77573 0.0
C241 C 0.75708 0.14083 0.74906 0.0
C242 C 0.77425 0.16232 0.73487 0.0
C243 C 0.77486 0.16168 0.70767 0.0
C244 C 0.79212 0.18339 0.69415 0.0
C245 C 0.80937 0.20572 0.70709 0.0
C246 C 0.80938 0.2065 0.73439 0.0
C247 C 0.82701 0.22822 0.74821 0.0
C248 C 0.82654 0.22887 0.77504 0.0
C249 C 0.80853 0.20778 0.78911 0.0
C250 C 0.79094 0.18553 0.77559 0.0
C251 C 0.79146 0.18483 0.74825 0.0
C252 C 0.68295 0.02348 0.67143 0.0
C253 C 0.68593 0.04973 0.66658 0.0
O254 O 0.87367 0.28831 0.88307 0.0
O255 O 0.87836 0.28983 0.64658 0.0
O256 O 0.71126 0.06626 0.66092 0.0
O257 O 0.69464 0.07841 0.86706 0.0
H258 H 0.90796 0.28948 0.88098 0.0
H259 H 0.88255 0.25419 0.90988 0.0
H260 H 0.87559 0.27358 0.93038 0.0
H261 H 0.90766 0.27892 0.92857 0.0
H262 H 0.88242 0.25188 0.86394 0.0
H263 H 0.83218 0.2825 0.86328 0.0
H264 H 0.84132 0.19308 0.83944 0.0
H265 H 0.87477 0.21632 0.84006 0.0
H266 H 0.85618 0.2112 0.81109 0.0
H267 H 0.79497 0.26484 0.83762 0.0
H268 H 0.77945 0.23059 0.83847 0.0
H269 H 0.79494 0.2472 0.80963 0.0
H270 H 0.71489 0.07099 0.89424 0.0
H271 H 0.69418 0.02463 0.88264 0.0
H272 H 0.71105 0.04531 0.85619 0.0
H273 H 0.67698 0.02967 0.85683 0.0
H274 H 0.68948 0.11417 0.84691 0.0
H275 H 0.74334 0.08958 0.86227 0.0
H276 H 0.72169 0.15804 0.80119 0.0
H277 H 0.73493 0.17786 0.82903 0.0
H278 H 0.70158 0.15412 0.82822 0.0
H279 H 0.7858 0.11271 0.84942 0.0
H280 H 0.79846 0.14665 0.84971 0.0
H281 H 0.78979 0.12982 0.81971 0.0
H282 H 0.68049 0.05558 0.68467 0.0
H283 H 0.69667 0.09956 0.67411 0.0
H284 H 0.75927 0.0861 0.66857 0.0
H285 H 0.72024 0.14727 0.71644 0.0
H286 H 0.70239 0.13953 0.68672 0.0
H287 H 0.73433 0.16638 0.68841 0.0
H288 H 0.79976 0.11435 0.68553 0.0
H289 H 0.80096 0.13532 0.71077 0.0
H290 H 0.80798 0.14656 0.67824 0.0
H291 H 0.89024 0.27319 0.61988 0.0
H292 H 0.9371 0.30293 0.6305 0.0
H293 H 0.91918 0.28269 0.65664 0.0
H294 H 0.92744 0.31536 0.65706 0.0
H295 H 0.83954 0.28603 0.67014 0.0
H296 H 0.88048 0.24693 0.6547 0.0
H297 H 0.80474 0.25304 0.71999 0.0
H298 H 0.78403 0.23132 0.6959 0.0
H299 H 0.79935 0.26516 0.6904 0.0
H300 H 0.87296 0.21071 0.67845 0.0
H301 H 0.84032 0.18984 0.66972 0.0
H302 H 0.84887 0.19786 0.70301 0.0
H303 H 0.78854 0.18745 0.8505 0.0
H304 H 0.74249 0.12456 0.78551 0.0
H305 H 0.74389 0.12311 0.73973 0.0
H306 H 0.79243 0.18277 0.67327 0.0
H307 H 0.84136 0.24499 0.73842 0.0
H308 H 0.84042 0.24613 0.78464 0.0
H309 H 0.68642 0.01582 0.65344 0.0
H310 H 0.6637 0.00987 0.6787 0.0
H311 H 0.69692 0.02499 0.68626 0.0
C312 C 0.64822 0.73864 0.4442 0.0
C313 C 0.62583 0.72574 0.42539 0.0
C314 C 0.62861 0.74643 0.38423 0.0
C315 C 0.6036 0.74167 0.38182 0.0
C316 C 0.59788 0.75674 0.36566 0.0
C317 C 0.61763 0.77702 0.35179 0.0
C318 C 0.64272 0.78128 0.35356 0.0
C319 C 0.64778 0.7656 0.36949 0.0
C320 C 0.57081 0.75126 0.36372 0.0
C321 C 0.66425 0.80279 0.33917 0.0
C322 C 0.6135 0.95527 0.39691 0.0
C323 C 0.62215 0.93903 0.38429 0.0
C324 C 0.60894 0.89416 0.37898 0.0
C325 C 0.62893 0.89803 0.36267 0.0
C326 C 0.6286 0.87756 0.34986 0.0
C327 C 0.60747 0.85279 0.35274 0.0
C328 C 0.58746 0.84878 0.3694 0.0
C329 C 0.58867 0.86952 0.3826 0.0
C330 C 0.65079 0.88252 0.33302 0.0
C331 C 0.5646 0.82268 0.37293 0.0
C332 C 0.56155 0.86906 0.1934 0.0
C333 C 0.58752 0.87742 0.19687 0.0
C334 C 0.5954 0.86144 0.20821 0.0
C335 C 0.57695 0.83687 0.21662 0.0
C336 C 0.55084 0.8284 0.21294 0.0
C337 C 0.54352 0.84462 0.20128 0.0
C338 C 0.62341 0.87092 0.21161 0.0
C339 C 0.53065 0.80237 0.22173 0.0
C340 C 0.62403 0.6938 0.17848 0.0
C341 C 0.59931 0.69243 0.16948 0.0
C342 C 0.60157 0.73262 0.18043 0.0
C343 C 0.62104 0.75789 0.18213 0.0
C344 C 0.61898 0.77517 0.19838 0.0
C345 C 0.59646 0.76708 0.21267 0.0
C346 C 0.57635 0.74162 0.21049 0.0
C347 C 0.57919 0.72458 0.19449 0.0
C348 C 0.6408 0.80214 0.20011 0.0
C349 C 0.55172 0.73258 0.22468 0.0
C350 C 0.61223 0.79466 0.33677 0.0
C351 C 0.61186 0.81442 0.35018 0.0
C352 C 0.60607 0.83132 0.33769 0.0
C353 C 0.60001 0.82824 0.3111 0.0
C354 C 0.5928 0.84406 0.29821 0.0
C355 C 0.58758 0.84141 0.27194 0.0
C356 C 0.58953 0.82293 0.25745 0.0
C357 C 0.5848 0.82051 0.23062 0.0
C358 C 0.58698 0.80202 0.21674 0.0
C359 C 0.59365 0.7856 0.22897 0.0
C360 C 0.59814 0.78752 0.25591 0.0
C361 C 0.60453 0.77114 0.269 0.0
C362 C 0.60873 0.77313 0.29554 0.0
C363 C 0.60743 0.79205 0.3099 0.0
C364 C 0.60121 0.80887 0.29707 0.0
C365 C 0.59625 0.80641 0.27013 0.0
C366 C 0.55259 0.91506 0.15497 0.0
C367 C 0.56733 0.90822 0.17298 0.0
O368 O 0.63479 0.73279 0.40048 0.0
O369 O 0.60441 0.7169 0.16401 0.0
O370 O 0.55294 0.88374 0.18254 0.0
O371 O 0.60849 0.91362 0.39139 0.0
H372 H 0.61234 0.73244 0.43037 0.0
H373 H 0.65754 0.75961 0.44208 0.0
H374 H 0.66248 0.73272 0.44031 0.0
H375 H 0.64155 0.73365 0.46439 0.0
H376 H 0.58857 0.72618 0.39253 0.0
H377 H 0.66696 0.76882 0.37124 0.0
H378 H 0.56941 0.76712 0.37256 0.0
H379 H 0.55729 0.73331 0.37361 0.0
H380 H 0.56505 0.74997 0.34317 0.0
H381 H 0.68282 0.80405 0.34325 0.0
H382 H 0.66558 0.82111 0.34451 0.0
H383 H 0.66046 0.80013 0.31813 0.0
H384 H 0.64313 0.94706 0.3843 0.0
H385 H 0.59807 0.96674 0.36595 0.0
H386 H 0.63025 0.96931 0.4088 0.0
H387 H 0.602 0.9443 0.41415 0.0
H388 H 0.64495 0.91694 0.35995 0.0
H389 H 0.5734 0.86668 0.39531 0.0
H390 H 0.65658 0.86809 0.3366 0.0
H391 H 0.66747 0.90172 0.33635 0.0
H392 H 0.64508 0.88111 0.31247 0.0
H393 H 0.54951 0.82317 0.38446 0.0
H394 H 0.57051 0.81026 0.38291 0.0
H395 H 0.55653 0.81398 0.35389 0.0
H396 H 0.57868 0.9226 0.18802 0.0
H397 H 0.60167 0.89635 0.1909 0.0
H398 H 0.52355 0.83835 0.19843 0.0
H399 H 0.62825 0.87305 0.23246 0.0
H400 H 0.63538 0.88951 0.202 0.0
H401 H 0.62816 0.85685 0.20366 0.0
H402 H 0.51113 0.79876 0.21774 0.0
H403 H 0.5327 0.80036 0.24276 0.0
H404 H 0.53316 0.7876 0.21184 0.0
H405 H 0.58521 0.68388 0.18526 0.0
H406 H 0.62064 0.67477 0.18436 0.0
H407 H 0.63188 0.70665 0.1954 0.0
H408 H 0.63836 0.7013 0.16284 0.0
H409 H 0.63807 0.76396 0.17085 0.0
H410 H 0.56367 0.70525 0.19238 0.0
H411 H 0.64583 0.80774 0.2206 0.0
H412 H 0.635 0.8152 0.19142 0.0
H413 H 0.65795 0.8047 0.18994 0.0
H414 H 0.5373 0.71273 0.21959 0.0
H415 H 0.54383 0.74519 0.22024 0.0
H416 H 0.5553 0.73361 0.24576 0.0
H417 H 0.61624 0.81674 0.37064 0.0
H418 H 0.59109 0.8587 0.3083 0.0
H419 H 0.58219 0.8542 0.26311 0.0
H420 H 0.58344 0.8004 0.19612 0.0
H421 H 0.60618 0.75649 0.25888 0.0
H422 H 0.61335 0.75987 0.30462 0.0
H423 H 0.55185 0.93122 0.16477 0.0
H424 H 0.53184 0.90102 0.15826 0.0
H425 H 0.57046 0.91915 0.11854 0.0
C426 C 0.74406 0.61209 0.9232 0.0
C427 C 0.72285 0.59246 0.90568 0.0
C428 C 0.74824 0.58276 0.87554 0.0
C429 C 0.76064 0.6065 0.86311 0.0
C430 C 0.78036 0.61237 0.84557 0.0
C431 C 0.78723 0.59386 0.83971 0.0
C432 C 0.77391 0.56954 0.85125 0.0
C433 C 0.7547 0.56441 0.86911 0.0
C434 C 0.79423 0.63854 0.83372 0.0
C435 C 0.7803 0.54912 0.84513 0.0
C436 C 0.9859 0.67096 0.87292 0.0
C437 C 0.96154 0.64775 0.88253 0.0
C438 C 0.92494 0.62778 0.85349 0.0
C439 C 0.90761 0.60337 0.84482 0.0
C440 C 0.88372 0.5976 0.83515 0.0
C441 C 0.87747 0.61709 0.83325 0.0
C442 C 0.8949 0.64187 0.84214 0.0
C443 C 0.91848 0.64695 0.85228 0.0
C444 C 0.86545 0.57083 0.82633 0.0
C445 C 0.88893 0.66312 0.84009 0.0
C446 C 0.9128 0.62284 0.66803 0.0
C447 C 0.89805 0.59869 0.67902 0.0
C448 C 0.8755 0.59243 0.69211 0.0
C449 C 0.86783 0.61085 0.69454 0.0
C450 C 0.88223 0.63486 0.68261 0.0
C451 C 0.90435 0.64036 0.66917 0.0
C452 C 0.86016 0.56633 0.70382 0.0
C453 C 0.87461 0.65493 0.6845 0.0
C454 C 0.6974 0.60457 0.66628 0.0
C455 C 0.70549 0.59035 0.64757 0.0
C456 C 0.73315 0.57967 0.6732 0.0
C457 C 0.73562 0.55962 0.68317 0.0
C458 C 0.75787 0.56405 0.69605 0.0
C459 C 0.77792 0.58931 0.69956 0.0
C460 C 0.77554 0.60975 0.68965 0.0
C461 C 0.75334 0.60473 0.67632 0.0
C462 C 0.75992 0.54178 0.706 0.0
C463 C 0.79646 0.63696 0.69318 0.0
C464 C 0.80919 0.60023 0.82266 0.0
C465 C 0.83246 0.60666 0.83442 0.0
C466 C 0.85376 0.61202 0.81975 0.0
C467 C 0.85207 0.61131 0.79257 0.0
C468 C 0.87334 0.61719 0.77729 0.0
C469 C 0.87137 0.61553 0.75062 0.0
C470 C 0.84806 0.60796 0.73811 0.0
C471 C 0.8458 0.60568 0.71097 0.0
C472 C 0.82258 0.59904 0.69909 0.0
C473 C 0.8014 0.59452 0.71361 0.0
C474 C 0.80313 0.59604 0.74083 0.0
C475 C 0.7821 0.59116 0.75609 0.0
C476 C 0.78396 0.59236 0.78288 0.0
C477 C 0.80704 0.59902 0.79544 0.0
C478 C 0.82857 0.60445 0.78038 0.0
C479 C 0.82656 0.60277 0.75309 0.0
C480 C 0.97876 0.64499 0.66294 0.0
C481 C 0.95212 0.62162 0.66148 0.0
O482 O 0.73035 0.57675 0.89406 0.0
O483 O 0.71096 0.57394 0.66108 0.0
O484 O 0.93508 0.6299 0.65591 0.0
O485 O 0.94802 0.63238 0.86195 0.0
H486 H 0.71808 0.60248 0.89058 0.0
H487 H 0.76108 0.62515 0.91192 0.0
H488 H 0.74982 0.60248 0.9378 0.0
H489 H 0.73742 0.6238 0.93329 0.0
H490 H 0.75537 0.62069 0.86724 0.0
H491 H 0.74484 0.54604 0.87852 0.0
H492 H 0.81495 0.64737 0.83752 0.0
H493 H 0.78757 0.65127 0.84132 0.0
H494 H 0.7914 0.63703 0.81251 0.0
H495 H 0.76619 0.53037 0.8532 0.0
H496 H 0.79929 0.55455 0.85329 0.0
H497 H 0.78124 0.54723 0.82394 0.0
H498 H 0.9504 0.65519 0.8925 0.0
H499 H 0.99818 0.68194 0.88946 0.0
H500 H 0.98096 0.68358 0.86183 0.0
H501 H 0.99668 0.66529 0.85997 0.0
H502 H 0.91287 0.58876 0.84578 0.0
H503 H 0.93214 0.66605 0.85843 0.0
H504 H 0.86437 0.57033 0.80497 0.0
H505 H 0.84608 0.5645 0.83372 0.0
H506 H 0.87145 0.55717 0.83284 0.0
H507 H 0.90458 0.68139 0.84772 0.0
H508 H 0.87134 0.65802 0.85094 0.0
H509 H 0.88538 0.66581 0.81962 0.0
H510 H 0.94813 0.61228 0.68073 0.0
H511 H 0.90404 0.58469 0.67732 0.0
H512 H 0.91565 0.65878 0.66016 0.0
H513 H 0.86219 0.5678 0.72511 0.0
H514 H 0.86645 0.55305 0.697 0.0
H515 H 0.83968 0.5582 0.6991 0.0
H516 H 0.88924 0.67347 0.67646 0.0
H517 H 0.8712 0.65775 0.7049 0.0
H518 H 0.8566 0.6485 0.67368 0.0
H519 H 0.72265 0.60482 0.63718 0.0
H520 H 0.7136 0.61773 0.67868 0.0
H521 H 0.69088 0.61609 0.65543 0.0
H522 H 0.68202 0.59103 0.67915 0.0
H523 H 0.72003 0.54035 0.68066 0.0
H524 H 0.75198 0.62057 0.66869 0.0
H525 H 0.76068 0.5423 0.72738 0.0
H526 H 0.77779 0.54305 0.69913 0.0
H527 H 0.7436 0.52327 0.6998 0.0
H528 H 0.7906 0.65077 0.68683 0.0
H529 H 0.81322 0.6403 0.68178 0.0
H530 H 0.80242 0.64067 0.71372 0.0
H531 H 0.8339 0.6071 0.85528 0.0
H532 H 0.89179 0.62307 0.78575 0.0
H533 H 0.88841 0.62023 0.73996 0.0
H534 H 0.82107 0.59774 0.67824 0.0
H535 H 0.76389 0.58612 0.74751 0.0
H536 H 0.76708 0.58807 0.79364 0.0
H537 H 0.99303 0.63956 0.66879 0.0
H538 H 0.97913 0.65853 0.67751 0.0
H539 H 0.98422 0.65476 0.64398 0.0
C540 C 0.11736 0.70496 0.41711 0.0
C541 C 0.10751 0.68916 0.39235 0.0
C542 C 0.14417 0.70832 0.3631 0.0
C543 C 0.14298 0.73042 0.3576 0.0
C544 C 0.16036 0.74897 0.34077 0.0
C545 C 0.17968 0.74571 0.32955 0.0
C546 C 0.18121 0.72373 0.33527 0.0
C547 C 0.16329 0.70524 0.35186 0.0
C548 C 0.15807 0.77212 0.33499 0.0
C549 C 0.20166 0.71974 0.32373 0.0
C550 C 0.31677 0.92501 0.37382 0.0
C551 C 0.31506 0.90028 0.38355 0.0
C552 C 0.29727 0.86833 0.349 0.0
C553 C 0.30178 0.85163 0.33456 0.0
C554 C 0.28219 0.83165 0.32046 0.0
C555 C 0.25764 0.8289 0.32011 0.0
C556 C 0.2532 0.84639 0.33385 0.0
C557 C 0.27293 0.86569 0.34839 0.0
C558 C 0.28762 0.81314 0.30649 0.0
C559 C 0.22743 0.84442 0.33379 0.0
C560 C 0.27399 0.86024 0.14916 0.0
C561 C 0.27801 0.84048 0.15732 0.0
C562 C 0.26039 0.82101 0.17323 0.0
C563 C 0.23828 0.82132 0.18106 0.0
C564 C 0.23374 0.84072 0.17207 0.0
C565 C 0.2516 0.85984 0.15597 0.0
C566 C 0.26548 0.80021 0.18185 0.0
C567 C 0.21026 0.84147 0.17987 0.0
C568 C 0.06182 0.63257 0.1531 0.0
C569 C 0.07708 0.65711 0.1668 0.0
C570 C 0.12152 0.69086 0.17115 0.0
C571 C 0.14658 0.69601 0.16973 0.0
C572 C 0.16669 0.71859 0.1798 0.0
C573 C 0.16158 0.73677 0.19099 0.0
C574 C 0.13634 0.73226 0.19128 0.0
C575 C 0.11648 0.70916 0.1817 0.0
C576 C 0.19334 0.72275 0.17893 0.0
C577 C 0.13029 0.75163 0.20215 0.0
C578 C 0.19811 0.76534 0.31173 0.0
C579 C 0.21913 0.78658 0.32242 0.0
C580 C 0.23617 0.80679 0.30698 0.0
C581 C 0.23215 0.80586 0.28 0.0
C582 C 0.24837 0.82612 0.26391 0.0
C583 C 0.24443 0.8248 0.23735 0.0
C584 C 0.224 0.80322 0.22587 0.0
C585 C 0.22011 0.80145 0.19886 0.0
C586 C 0.19934 0.77992 0.18815 0.0
C587 C 0.18243 0.75972 0.20367 0.0
C588 C 0.18622 0.761 0.23068 0.0
C589 C 0.1698 0.74088 0.24684 0.0
C590 C 0.17352 0.74236 0.27338 0.0
C591 C 0.19416 0.76375 0.28478 0.0
C592 C 0.21118 0.78412 0.26887 0.0
C593 C 0.20708 0.78282 0.2418 0.0
C594 C 0.32227 0.91578 0.15801 0.0
C595 C 0.31714 0.8936 0.14015 0.0
O596 O 0.12747 0.68965 0.37905 0.0
O597 O 0.1029 0.66808 0.16216 0.0
O598 O 0.29133 0.87982 0.13467 0.0
O599 O 0.31683 0.88657 0.36315 0.0
H600 H 0.09808 0.69714 0.38013 0.0
H601 H 0.13086 0.72515 0.41243 0.0
H602 H 0.12739 0.69779 0.42952 0.0
H603 H 0.10132 0.70415 0.42805 0.0
H604 H 0.12864 0.73351 0.36626 0.0
H605 H 0.16417 0.68823 0.35621 0.0
H606 H 0.17491 0.78924 0.3429 0.0
H607 H 0.14072 0.77082 0.34347 0.0
H608 H 0.15769 0.77475 0.31384 0.0
H609 H 0.20116 0.70234 0.33123 0.0
H610 H 0.22065 0.73642 0.3279 0.0
H611 H 0.19928 0.7181 0.30247 0.0
H612 H 0.29642 0.88904 0.39333 0.0
H613 H 0.3181 0.93722 0.39034 0.0
H614 H 0.2996 0.92082 0.36242 0.0
H615 H 0.33349 0.93573 0.36117 0.0
H616 H 0.32063 0.85387 0.33498 0.0
H617 H 0.26905 0.87854 0.35918 0.0
H618 H 0.28582 0.81494 0.28541 0.0
H619 H 0.27352 0.79333 0.31199 0.0
H620 H 0.30701 0.81648 0.31071 0.0
H621 H 0.22858 0.86248 0.33993 0.0
H622 H 0.21492 0.82931 0.34746 0.0
H623 H 0.21847 0.83925 0.31437 0.0
H624 H 0.32348 0.88189 0.15096 0.0
H625 H 0.2948 0.84012 0.15111 0.0
H626 H 0.24853 0.875 0.14923 0.0
H627 H 0.26808 0.80107 0.20308 0.0
H628 H 0.28271 0.8018 0.17275 0.0
H629 H 0.24893 0.78134 0.17706 0.0
H630 H 0.20981 0.85818 0.17174 0.0
H631 H 0.20938 0.84207 0.20121 0.0
H632 H 0.19306 0.8239 0.17322 0.0
H633 H 0.07243 0.65719 0.18753 0.0
H634 H 0.03973 0.64007 0.12609 0.0
H635 H 0.05296 0.61798 0.16887 0.0
H636 H 0.07541 0.62598 0.14713 0.0
H637 H 0.15027 0.68189 0.16127 0.0
H638 H 0.09716 0.70555 0.18246 0.0
H639 H 0.20207 0.72739 0.19846 0.0
H640 H 0.20517 0.73914 0.1662 0.0
H641 H 0.19381 0.70584 0.17155 0.0
H642 H 0.11068 0.74718 0.19718 0.0
H643 H 0.14393 0.7709 0.19485 0.0
H644 H 0.13217 0.75205 0.22345 0.0
H645 H 0.22203 0.7876 0.34314 0.0
H646 H 0.26435 0.84321 0.27168 0.0
H647 H 0.2576 0.84093 0.22592 0.0
H648 H 0.19659 0.77864 0.16741 0.0
H649 H 0.15378 0.72376 0.23921 0.0
H650 H 0.1601 0.72638 0.28482 0.0
H651 H 0.31589 0.92822 0.14886 0.0
H652 H 0.3428 0.92708 0.163 0.0
H653 H 0.31159 0.90827 0.17624 0.0
C654 C 0.41699 0.13991 0.59676 0.0
C655 C 0.43641 0.1392 0.61519 0.0
C656 C 0.42762 0.15101 0.65692 0.0
C657 C 0.45077 0.17267 0.66324 0.0
C658 C 0.45153 0.19111 0.68004 0.0
C659 C 0.42863 0.1878 0.69056 0.0
C660 C 0.40538 0.16544 0.68497 0.0
C661 C 0.40525 0.1471 0.66846 0.0
C662 C 0.47675 0.2144 0.68611 0.0
C663 C 0.38064 0.16131 0.69582 0.0
C664 C 0.41837 0.35936 0.63302 0.0
C665 C 0.41122 0.33668 0.64936 0.0
C666 C 0.42491 0.30581 0.65796 0.0
C667 C 0.40481 0.28959 0.6741 0.0
C668 C 0.40608 0.27077 0.68873 0.0
C669 C 0.42837 0.26883 0.68801 0.0
C670 C 0.44865 0.28521 0.67173 0.0
C671 C 0.44639 0.30315 0.65654 0.0
C672 C 0.38346 0.25291 0.7048 0.0
C673 C 0.47277 0.28389 0.67034 0.0
C674 C 0.44563 0.32185 0.85212 0.0
C675 C 0.4219 0.30245 0.8432 0.0
C676 C 0.41961 0.28083 0.83095 0.0
C677 C 0.44157 0.2788 0.82706 0.0
C678 C 0.4654 0.29809 0.8364 0.0
C679 C 0.46705 0.31927 0.84904 0.0
C680 C 0.39374 0.26026 0.82194 0.0
C681 C 0.48917 0.2965 0.83266 0.0
C682 C 0.40644 0.09374 0.87047 0.0
C683 C 0.43134 0.11812 0.87672 0.0
C684 C 0.42844 0.15533 0.86508 0.0
C685 C 0.40777 0.1589 0.86071 0.0
C686 C 0.40956 0.17762 0.84357 0.0
C687 C 0.43297 0.19371 0.83124 0.0
C688 C 0.45417 0.19049 0.83609 0.0
C689 C 0.45158 0.1711 0.8528 0.0
C690 C 0.38651 0.18038 0.83889 0.0
C691 C 0.47966 0.20787 0.82409 0.0
C692 C 0.42893 0.20873 0.70555 0.0
C693 C 0.42814 0.22808 0.69166 0.0
C694 C 0.43029 0.24948 0.70401 0.0
C695 C 0.43366 0.25187 0.73106 0.0
C696 C 0.43751 0.27383 0.744 0.0
C697 C 0.43984 0.27563 0.77068 0.0
C698 C 0.43831 0.2555 0.7855 0.0
C699 C 0.43965 0.25678 0.8127 0.0
C700 C 0.43833 0.23656 0.82684 0.0
C701 C 0.43554 0.21482 0.81461 0.0
C702 C 0.43416 0.21316 0.78737 0.0
C703 C 0.43143 0.19166 0.77431 0.0
C704 C 0.43016 0.19032 0.74749 0.0
C705 C 0.43078 0.21008 0.73275 0.0
C706 C 0.43327 0.23182 0.74553 0.0
C707 C 0.43535 0.23353 0.77281 0.0
C708 C 0.43906 0.37473 0.87901 0.0
C709 C 0.43085 0.35115 0.86395 0.0
O710 O 0.42641 0.13356 0.63986 0.0
O711 O 0.42592 0.13724 0.88206 0.0
O712 O 0.44867 0.34326 0.86366 0.0
O713 O 0.42413 0.32396 0.64327 0.0
H714 H 0.45396 0.15819 0.61479 0.0
H715 H 0.4126 0.15475 0.60303 0.0
H716 H 0.39908 0.12125 0.59653 0.0
H717 H 0.42472 0.14457 0.5769 0.0
H718 H 0.46822 0.17517 0.65508 0.0
H719 H 0.38754 0.13006 0.66371 0.0
H720 H 0.47722 0.23139 0.67754 0.0
H721 H 0.49302 0.21297 0.67849 0.0
H722 H 0.47912 0.21738 0.70728 0.0
H723 H 0.36421 0.1428 0.68978 0.0
H724 H 0.37728 0.17683 0.68933 0.0
H725 H 0.38171 0.16198 0.71719 0.0
H726 H 0.3904 0.32406 0.65212 0.0
H727 H 0.40037 0.35505 0.62246 0.0
H728 H 0.42778 0.3571 0.61536 0.0
H729 H 0.43725 0.39064 0.65905 0.0
H730 H 0.38784 0.29112 0.67495 0.0
H731 H 0.46172 0.31565 0.64388 0.0
H732 H 0.37968 0.23309 0.70312 0.0
H733 H 0.36602 0.25331 0.69903 0.0
H734 H 0.38748 0.25857 0.72535 0.0
H735 H 0.48829 0.30076 0.66058 0.0
H736 H 0.46897 0.26669 0.65935 0.0
H737 H 0.47932 0.28236 0.68995 0.0
H738 H 0.4225 0.35064 0.84458 0.0
H739 H 0.40507 0.30401 0.8458 0.0
H740 H 0.48523 0.33422 0.85615 0.0
H741 H 0.393 0.26008 0.80056 0.0
H742 H 0.37822 0.26313 0.82925 0.0
H743 H 0.39028 0.24133 0.82836 0.0
H744 H 0.50646 0.31374 0.83979 0.0
H745 H 0.4916 0.29392 0.8119 0.0
H746 H 0.48735 0.27969 0.84309 0.0
H747 H 0.44389 0.12309 0.85958 0.0
H748 H 0.4101 0.07815 0.86519 0.0
H749 H 0.39684 0.0971 0.85387 0.0
H750 H 0.39348 0.08769 0.88728 0.0
H751 H 0.39008 0.14673 0.87056 0.0
H752 H 0.46775 0.16866 0.85686 0.0
H753 H 0.38361 0.18167 0.81791 0.0
H754 H 0.38956 0.19821 0.84799 0.0
H755 H 0.36897 0.16424 0.84703 0.0
H756 H 0.4947 0.20412 0.83139 0.0
H757 H 0.48546 0.22801 0.82809 0.0
H758 H 0.47822 0.2053 0.80287 0.0
H759 H 0.42598 0.22652 0.67086 0.0
H760 H 0.4387 0.28988 0.73363 0.0
H761 H 0.44265 0.29297 0.77955 0.0
H762 H 0.43911 0.23761 0.84773 0.0
H763 H 0.43039 0.17568 0.7847 0.0
H764 H 0.42828 0.17342 0.73845 0.0
H765 H 0.41307 0.36269 0.91041 0.0
H766 H 0.44052 0.38919 0.86444 0.0
H767 H 0.46028 0.38383 0.8818 0.0
H768 H 0.03679 0.45612 0.05238 0.0
H769 H 0.1025 0.5226 0.02107 0.0
H770 H 0.13058 0.51444 0.0494 0.0
H771 H 0.05632 0.46502 0.11539 0.0
H772 H 0.04401 0.43194 0.12301 0.0
H773 H 0.02954 0.44074 0.09772 0.0
H774 H 0.03657 0.41244 0.06538 0.0
H775 H 0.05087 0.4033 0.09069 0.0
H776 H 0.06801 0.41697 0.06132 0.0
H777 H 0.15067 0.50227 0.08538 0.0
H778 H 0.16121 0.48626 0.12473 0.0
H779 H 0.08223 0.42687 0.1309 0.0
C780 C 0.05713 0.46865 0.05102 0.0
C781 C 0.06748 0.49 0.03452 0.0
C782 C 0.09418 0.50602 0.03342 0.0
C783 C 0.11026 0.50154 0.04946 0.0
C784 C 0.09934 0.48073 0.0661 0.0
C785 C 0.07339 0.46432 0.06666 0.0
C786 C 0.06617 0.44435 0.0874 0.0
C787 C 0.04795 0.44561 0.10703 0.0
C788 C 0.05473 0.41769 0.07548 0.0
C789 C 0.09198 0.45274 0.09925 0.0
C790 C 0.11091 0.47359 0.08657 0.0
C791 C 0.13602 0.48576 0.09524 0.0
C792 C 0.1418 0.47662 0.11765 0.0
C793 C 0.12256 0.45572 0.13138 0.0
C794 C 0.09747 0.44314 0.12137 0.0
H795 H 0.5527 0.99518 0.59165 0.0
H796 H 0.59361 0.04874 0.53037 0.0
H797 H 0.63349 0.06509 0.55519 0.0
H798 H 0.58793 0.03832 0.6441 0.0
H799 H 0.58754 0.01378 0.66403 0.0
H800 H 0.56209 0.00604 0.64138 0.0
H801 H 0.57008 0.97195 0.62056 0.0
H802 H 0.59558 0.97962 0.64312 0.0
H803 H 0.60137 0.98096 0.60899 0.0
H804 H 0.66924 0.07422 0.5855 0.0
H805 H 0.69821 0.07717 0.62034 0.0
H806 H 0.6338 0.02027 0.66378 0.0
C807 C 0.57007 0.01033 0.5835 0.0
C808 C 0.57009 0.02063 0.55905 0.0
C809 C 0.59314 0.04061 0.54911 0.0
C810 C 0.61591 0.05001 0.56302 0.0
C811 C 0.61529 0.03948 0.58703 0.0
C812 C 0.59296 0.02029 0.59736 0.0
C813 C 0.59756 0.01267 0.6238 0.0
C814 C 0.58291 0.01803 0.64455 0.0
C815 C 0.59075 0.98464 0.62412 0.0
C816 C 0.62598 0.03034 0.6265 0.0
C817 C 0.63584 0.0455 0.605 0.0
C818 C 0.66174 0.06257 0.60255 0.0
C819 C 0.67808 0.06406 0.62253 0.0
C820 C 0.66844 0.04867 0.64487 0.0
C821 C 0.6419 0.03202 0.64689 0.0
H822 H 0.54392 0.56127 0.09199 0.0
H823 H 0.54266 0.60145 0.02323 0.0
H824 H 0.55914 0.64108 0.04854 0.0
H825 H 0.52291 0.59343 0.13539 0.0
H826 H 0.54258 0.59384 0.16177 0.0
H827 H 0.53111 0.5688 0.13813 0.0
H828 H 0.57733 0.57953 0.12914 0.0
H829 H 0.58895 0.60461 0.15273 0.0
H830 H 0.60073 0.6115 0.12022 0.0
H831 H 0.57774 0.67673 0.08103 0.0
H832 H 0.5944 0.70518 0.11862 0.0
H833 H 0.58033 0.64098 0.16695 0.0
C834 C 0.54719 0.57843 0.08225 0.0
C835 C 0.5422 0.57837 0.05562 0.0
C836 C 0.54636 0.6011 0.04363 0.0
C837 C 0.55575 0.62369 0.05783 0.0
C838 C 0.56051 0.62312 0.08406 0.0
C839 C 0.5561 0.60102 0.09622 0.0
C840 C 0.56219 0.60538 0.12473 0.0
C841 C 0.53827 0.58942 0.14096 0.0
C842 C 0.58357 0.59994 0.13213 0.0
C843 C 0.57101 0.63346 0.12666 0.0
C844 C 0.57008 0.64339 0.10297 0.0
C845 C 0.57828 0.66912 0.09975 0.0
C846 C 0.58772 0.68516 0.12132 0.0
C847 C 0.58858 0.67534 0.14595 0.0
C848 C 0.57986 0.64905 0.14847 0.0
H849 H 0.99877 0.5333 0.5956 0.0
H850 H 0.95396 0.52908 0.5283 0.0
H851 H 0.93784 0.55359 0.55125 0.0
H852 H 0.95144 0.527 0.64311 0.0
H853 H 0.97513 0.54869 0.66551 0.0
H854 H 0.98246 0.52993 0.64415 0.0
H855 H 0.02132 0.57095 0.62696 0.0
H856 H 0.01411 0.58982 0.64822 0.0
H857 H 0.01683 0.59604 0.61407 0.0
H858 H 0.92961 0.58173 0.57994 0.0
H859 H 0.92784 0.60949 0.61335 0.0
H860 H 0.97536 0.59296 0.66338 0.0
C861 C 0.98542 0.53738 0.58579 0.0
C862 C 0.97765 0.52932 0.56015 0.0
C863 C 0.96009 0.53495 0.54798 0.0
C864 C 0.95084 0.54889 0.56084 0.0
C865 C 0.959 0.55673 0.58601 0.0
C866 C 0.97565 0.55094 0.59849 0.0
C867 C 0.98157 0.56188 0.62551 0.0
C868 C 0.97208 0.5406 0.64577 0.0
C869 C 0.01015 0.5808 0.62887 0.0
C870 C 0.96618 0.57526 0.62597 0.0
C871 C 0.95333 0.57208 0.60299 0.0
C872 C 0.9392 0.584 0.59822 0.0
C873 C 0.93831 0.59976 0.61739 0.0
C874 C 0.95123 0.6032 0.64122 0.0
C875 C 0.96504 0.59044 0.64551 0.0
H876 H 0.4284 0.98589 0.04617 0.0
H877 H 0.41968 0.9188 0.0075 0.0
H878 H 0.38004 0.89219 0.03175 0.0
H879 H 0.41195 0.96065 0.10579 0.0
H880 H 0.39494 0.9766 0.11503 0.0
H881 H 0.41956 0.99064 0.09133 0.0
H882 H 0.38802 0.99242 0.05866 0.0
H883 H 0.36325 0.97863 0.08245 0.0
H884 H 0.35856 0.96385 0.05129 0.0
H885 H 0.34582 0.8726 0.06574 0.0
H886 H 0.31884 0.86199 0.10444 0.0
H887 H 0.34985 0.94254 0.11931 0.0
C888 C 0.41773 0.96568 0.04221 0.0
C889 C 0.427 0.95436 0.02495 0.0
C890 C 0.41269 0.92786 0.02043 0.0
C891 C 0.39021 0.91262 0.03417 0.0
C892 C 0.38214 0.92432 0.0519 0.0
C893 C 0.39526 0.95035 0.05553 0.0
C894 C 0.38403 0.95817 0.07713 0.0
C895 C 0.40379 0.97233 0.09858 0.0
C896 C 0.37279 0.97422 0.06676 0.0
C897 C 0.36335 0.93238 0.08609 0.0
C898 C 0.36229 0.91308 0.07113 0.0
C899 C 0.34613 0.8876 0.0772 0.0
C900 C 0.33094 0.88176 0.09924 0.0
C901 C 0.33203 0.90123 0.11512 0.0
C902 C 0.34815 0.92691 0.10791 0.0
H903 H 0.50227 0.44732 0.57115 0.0
H904 H 0.44258 0.46638 0.56743 0.0
H905 H 0.41894 0.4347 0.60138 0.0
H906 H 0.46568 0.38111 0.58248 0.0
H907 H 0.48913 0.38077 0.60372 0.0
H908 H 0.49883 0.4042 0.57852 0.0
H909 H 0.52144 0.44026 0.61172 0.0
H910 H 0.51216 0.41727 0.63731 0.0
H911 H 0.50399 0.44199 0.63882 0.0
H912 H 0.39526 0.39907 0.6405 0.0
H913 H 0.38387 0.35939 0.67811 0.0
H914 H 0.47013 0.36682 0.65548 0.0
C915 C 0.48411 0.44451 0.57754 0.0
C916 C 0.47392 0.45884 0.56666 0.0
C917 C 0.45053 0.45542 0.57559 0.0
C918 C 0.43701 0.43748 0.59476 0.0
C919 C 0.44737 0.4235 0.60523 0.0
C920 C 0.47106 0.42707 0.59725 0.0
C921 C 0.48101 0.41139 0.61152 0.0
C922 C 0.48382 0.3933 0.59296 0.0
C923 C 0.50613 0.42876 0.62567 0.0
C924 C 0.46033 0.39664 0.63042 0.0
C925 C 0.43686 0.4047 0.62529 0.0
C926 C 0.40854 0.39243 0.64397 0.0
C927 C 0.40199 0.36891 0.66839 0.0
C928 C 0.42396 0.3557 0.66784 0.0
C929 C 0.45675 0.37362 0.65405 0.0
H930 H 0.52528 0.96275 0.44365 0.0
H931 H 0.58563 0.0412 0.44731 0.0
H932 H 0.61151 0.03166 0.41772 0.0
H933 H 0.56081 0.93195 0.44147 0.0
H934 H 0.53951 0.90765 0.41934 0.0
H935 H 0.52759 0.92252 0.44071 0.0
H936 H 0.50953 0.93556 0.40232 0.0
H937 H 0.52083 0.92045 0.38048 0.0
H938 H 0.53009 0.95342 0.37613 0.0
H939 H 0.63847 0.01774 0.38497 0.0
H940 H 0.65319 0.98759 0.35404 0.0
H941 H 0.56417 0.91032 0.37153 0.0
C942 C 0.54394 0.97775 0.43794 0.0
C943 C 0.55372 0.0026 0.44765 0.0
C944 C 0.5779 0.02209 0.43984 0.0
C945 C 0.59272 0.01681 0.42321 0.0
C946 C 0.58287 0.9921 0.41408 0.0
C947 C 0.55835 0.97248 0.42068 0.0
C948 C 0.5494 0.94628 0.40814 0.0
C949 C 0.54402 0.92591 0.42863 0.0
C950 C 0.52609 0.93847 0.39074 0.0
C951 C 0.57187 0.95115 0.39233 0.0
C952 C 0.59507 0.98278 0.39723 0.0
C953 C 0.62533 0.99775 0.38184 0.0
C954 C 0.63409 0.97958 0.3614 0.0
C955 C 0.61167 0.94451 0.36285 0.0
C956 C 0.57756 0.93051 0.37247 0.0
H957 H 0.58828 0.5525 0.97019 0.0
H958 H 0.59856 0.49893 0.01707 0.0
H959 H 0.63875 0.51121 0.99472 0.0
H960 H 0.61376 0.54311 0.91118 0.0
H961 H 0.62933 0.57616 0.90211 0.0
H962 H 0.60097 0.5628 0.92134 0.0
H963 H 0.62478 0.59727 0.95623 0.0
H964 H 0.65317 0.61081 0.93707 0.0
H965 H 0.65395 0.60126 0.96982 0.0
H966 H 0.67794 0.52945 0.96776 0.0
H967 H 0.71446 0.55369 0.9389 0.0
H968 H 0.67932 0.59593 0.90989 0.0
C969 C 0.59893 0.54328 0.9757 0.0
C970 C 0.59021 0.52469 0.99537 0.0
C971 C 0.60484 0.51324 0.00211 0.0
C972 C 0.62767 0.52003 0.98947 0.0
C973 C 0.6357 0.53837 0.97018 0.0
C974 C 0.62188 0.54995 0.96338 0.0
C975 C 0.63517 0.56962 0.94246 0.0
C976 C 0.61883 0.56249 0.91781 0.0
C977 C 0.64219 0.59632 0.95197 0.0
C978 C 0.65863 0.5673 0.93861 0.0
C979 C 0.65846 0.54905 0.9547 0.0
C980 C 0.67822 0.54368 0.95495 0.0
C981 C 0.69882 0.55745 0.93845 0.0
C982 C 0.69951 0.57636 0.92184 0.0
C983 C 0.6791 0.58131 0.92204 0.0
H984 H 0.05544 0.55482 0.462 0.0
H985 H 0.97929 0.53815 0.4416 0.0
H986 H 0.99727 0.57817 0.41664 0.0
H987 H 0.08307 0.61981 0.47105 0.0
H988 H 0.1131 0.62827 0.45641 0.0
H989 H 0.09437 0.59743 0.47079 0.0
H990 H 0.09462 0.57593 0.42783 0.0
H991 H 0.11353 0.60678 0.41332 0.0
H992 H 0.08385 0.58386 0.39865 0.0
H993 H 0.02334 0.62202 0.39839 0.0
H994 H 0.05578 0.66532 0.38517 0.0
H995 H 0.11513 0.65235 0.41524 0.0
C996 C 0.04261 0.55948 0.45195 0.0
C997 C 0.01602 0.54356 0.45368 0.0
C998 C 0.99973 0.55008 0.44026 0.0
C999 C 0.00977 0.57274 0.42612 0.0
C1000 C 0.0361 0.58827 0.42513 0.0
C1001 C 0.05231 0.5817 0.43727 0.0
C1002 C 0.07985 0.6019 0.4335 0.0
C1003 C 0.09337 0.61248 0.45949 0.0
C1004 C 0.09378 0.5915 0.41737 0.0
C1005 C 0.07655 0.6215 0.41856 0.0
C1006 C 0.05118 0.61316 0.41371 0.0
C1007 C 0.0433 0.62854 0.40155 0.0
C1008 C 0.06184 0.65309 0.39414 0.0
C1009 C 0.08796 0.66199 0.39879 0.0
C1010 C 0.09533 0.64585 0.41105 0.0
H1011 H 0.49573 0.04817 0.9475 0.0
H1012 H 0.48886 0.0796 0.01991 0.0
H1013 H 0.4736 0.10501 0.99627 0.0
H1014 H 0.51668 0.10641 0.90875 0.0
H1015 H 0.49914 0.0885 0.88081 0.0
H1016 H 0.51171 0.07492 0.90339 0.0
H1017 H 0.46666 0.03588 0.90895 0.0
H1018 H 0.45392 0.04939 0.88661 0.0
H1019 H 0.44089 0.04067 0.91854 0.0
H1020 H 0.45358 0.12224 0.96482 0.0
H1021 H 0.43424 0.1328 0.9283 0.0
H1022 H 0.45693 0.09192 0.87647 0.0
C1023 C 0.49146 0.06075 0.95838 0.0
C1024 C 0.49343 0.06193 0.98552 0.0
C1025 C 0.48766 0.07859 0.99908 0.0
C1026 C 0.47891 0.093 0.98581 0.0
C1027 C 0.47656 0.09085 0.95902 0.0
C1028 C 0.48311 0.07545 0.94546 0.0
C1029 C 0.47802 0.07564 0.91691 0.0
C1030 C 0.50287 0.08705 0.90156 0.0
C1031 C 0.45872 0.0488 0.9072 0.0
C1032 C 0.46685 0.09297 0.91652 0.0
C1033 C 0.46611 0.10158 0.94095 0.0
C1034 C 0.45466 0.11615 0.94553 0.0
C1035 C 0.44372 0.12206 0.92461 0.0
C1036 C 0.44462 0.11369 0.89934 0.0
C1037 C 0.45651 0.09909 0.89544 0.0
H1038 H 0.45088 0.43126 0.45561 0.0
H1039 H 0.48805 0.50995 0.43175 0.0
H1040 H 0.45557 0.49938 0.39782 0.0
H1041 H 0.42732 0.40054 0.39267 0.0
H1042 H 0.39861 0.37548 0.40675 0.0
H1043 H 0.4276 0.39077 0.42543 0.0
H1044 H 0.40456 0.40113 0.46056 0.0
H1045 H 0.37554 0.38687 0.44201 0.0
H1046 H 0.38956 0.41943 0.45255 0.0
H1047 H 0.41658 0.48572 0.36327 0.0
H1048 H 0.36573 0.4591 0.34168 0.0
H1049 H 0.35051 0.38092 0.39546 0.0
C1050 C 0.45217 0.44587 0.44265 0.0
C1051 C 0.47187 0.47123 0.44563 0.0
C1052 C 0.47312 0.49037 0.42927 0.0
C1053 C 0.45485 0.48454 0.41001 0.0
C1054 C 0.43522 0.45955 0.40762 0.0
C1055 C 0.43334 0.43996 0.42376 0.0
C1056 C 0.40921 0.41362 0.42029 0.0
C1057 C 0.41609 0.39394 0.41072 0.0
C1058 C 0.39382 0.40476 0.44533 0.0
C1059 C 0.39473 0.41873 0.39992 0.0
C1060 C 0.41334 0.45051 0.39121 0.0
C1061 C 0.40385 0.46602 0.36809 0.0
C1062 C 0.37275 0.44937 0.35377 0.0
C1063 C 0.35107 0.41813 0.36942 0.0
C1064 C 0.36316 0.39948 0.38745 0.0
H1065 H 0.93706 0.41094 0.99062 0.0
H1066 H 0.00157 0.45415 0.94036 0.0
H1067 H 0.98559 0.4176 0.91093 0.0
H1068 H 0.93488 0.35173 0.98359 0.0
H1069 H 0.9007 0.33281 0.98364 0.0
H1070 H 0.91635 0.36281 0.00034 0.0
H1071 H 0.89009 0.37808 0.97403 0.0
H1072 H 0.87429 0.34808 0.95728 0.0
H1073 H 0.89053 0.37732 0.93932 0.0
H1074 H 0.96421 0.37601 0.88802 0.0
H1075 H 0.9384 0.3317 0.873 0.0
H1076 H 0.88675 0.3156 0.93687 0.0
C1077 C 0.9477 0.41279 0.97331 0.0
C1078 C 0.97059 0.43548 0.96786 0.0
C1079 C 0.98399 0.43703 0.94503 0.0
C1080 C 0.97506 0.41636 0.92812 0.0
C1081 C 0.9526 0.39426 0.93415 0.0
C1082 C 0.93899 0.39231 0.95609 0.0
C1083 C 0.91576 0.36605 0.95829 0.0
C1084 C 0.91701 0.35256 0.98292 0.0
C1085 C 0.89121 0.36748 0.95715 0.0
C1086 C 0.9187 0.35352 0.93435 0.0
C1087 C 0.94008 0.37017 0.92072 0.0
C1088 C 0.94737 0.36279 0.89848 0.0
C1089 C 0.93262 0.33757 0.89014 0.0
C1090 C 0.91088 0.31993 0.90403 0.0
C1091 C 0.90351 0.32835 0.92606 0.0
H1092 H 0.02228 0.56491 0.93492 0.0
H1093 H 0.96343 0.53585 0.99322 0.0
H1094 H 0.94768 0.56341 0.97658 0.0
H1095 H 0.03506 0.62939 0.93514 0.0
H1096 H 0.03921 0.63351 0.90077 0.0
H1097 H 0.04636 0.61165 0.91724 0.0
H1098 H 0.01528 0.57516 0.88709 0.0
H1099 H 0.0083 0.59699 0.87034 0.0
H1100 H 0.98287 0.56828 0.88405 0.0
H1101 H 0.9386 0.59441 0.95453 0.0
H1102 H 0.93468 0.6248 0.92589 0.0
H1103 H 0.99793 0.63243 0.88059 0.0
C1104 C 0.00604 0.56431 0.9441 0.0
C1105 C 0.99412 0.54822 0.96538 0.0
C1106 C 0.97282 0.54789 0.9768 0.0
C1107 C 0.96379 0.56359 0.9676 0.0
C1108 C 0.97608 0.57938 0.94681 0.0
C1109 C 0.99651 0.57967 0.93494 0.0
C1110 C 0.00567 0.59792 0.91236 0.0
C1111 C 0.03321 0.61939 0.91665 0.0
C1112 C 0.00285 0.58373 0.88696 0.0
C1113 C 0.98725 0.60785 0.91354 0.0
C1114 C 0.97052 0.59708 0.93373 0.0
C1115 C 0.95168 0.60313 0.93873 0.0
C1116 C 0.94971 0.62051 0.92247 0.0
C1117 C 0.96649 0.63172 0.9015 0.0
C1118 C 0.98535 0.62501 0.89692 0.0
H1119 H 0.45501 0.97434 0.44462 0.0
H1120 H 0.42529 0.92608 0.51201 0.0
H1121 H 0.38329 0.90205 0.49052 0.0
H1122 H 0.40114 0.97903 0.4299 0.0
H1123 H 0.40388 0.97775 0.39545 0.0
H1124 H 0.43183 0.99008 0.41552 0.0
H1125 H 0.44268 0.95736 0.39623 0.0
H1126 H 0.41483 0.94503 0.37592 0.0
H1127 H 0.4193 0.92399 0.3971 0.0
H1128 H 0.34366 0.88581 0.46285 0.0
H1129 H 0.31026 0.87712 0.43041 0.0
H1130 H 0.36703 0.93433 0.38027 0.0
C1131 C 0.43973 0.95857 0.45479 0.0
C1132 C 0.44333 0.95211 0.48002 0.0
C1133 C 0.42293 0.93127 0.49262 0.0
C1134 C 0.39903 0.91756 0.48059 0.0
C1135 C 0.39603 0.9247 0.45583 0.0
C1136 C 0.41595 0.94448 0.44294 0.0
C1137 C 0.40777 0.94859 0.41659 0.0
C1138 C 0.41137 0.97545 0.41425 0.0
C1139 C 0.42199 0.94343 0.3952 0.0
C1140 C 0.37993 0.92851 0.41692 0.0
C1141 C 0.37349 0.91491 0.4397 0.0
C1142 C 0.34855 0.89622 0.44487 0.0
C1143 C 0.32971 0.89149 0.42639 0.0
C1144 C 0.33584 0.90544 0.40304 0.0
C1145 C 0.36149 0.92369 0.39809 0.0
H1146 H 0.49364 0.43743 0.97728 0.0
H1147 H 0.46005 0.48009 0.94567 0.0
H1148 H 0.43431 0.44496 0.91563 0.0
H1149 H 0.49878 0.40946 0.91869 0.0
H1150 H 0.4926 0.38052 0.93462 0.0
H1151 H 0.50759 0.41016 0.95204 0.0
H1152 H 0.47271 0.39076 0.98664 0.0
H1153 H 0.45729 0.36099 0.96951 0.0
H1154 H 0.43983 0.37689 0.97719 0.0
H1155 H 0.40267 0.40166 0.88704 0.0
H1156 H 0.38165 0.35225 0.86246 0.0
H1157 H 0.44364 0.33683 0.9181 0.0
C1158 C 0.4809 0.43928 0.96389 0.0
C1159 C 0.47876 0.46139 0.96378 0.0
C1160 C 0.46205 0.46335 0.94604 0.0
C1161 C 0.44731 0.44348 0.92894 0.0
C1162 C 0.44958 0.4218 0.92956 0.0
C1163 C 0.46632 0.41938 0.94671 0.0
C1164 C 0.46676 0.39419 0.94545 0.0
C1165 C 0.49298 0.39887 0.93722 0.0
C1166 C 0.45867 0.37988 0.97122 0.0
C1167 C 0.4474 0.37981 0.92503 0.0
C1168 C 0.43578 0.39926 0.91415 0.0
C1169 C 0.40988 0.3891 0.89189 0.0
C1170 C 0.39564 0.35792 0.87775 0.0
C1171 C 0.41367 0.34091 0.88426 0.0
C1172 C 0.43525 0.34827 0.91283 0.0
H1173 H 0.03743 0.47024 0.45118 0.0
H1174 H 0.06915 0.47162 0.52672 0.0
H1175 H 0.09447 0.45401 0.50791 0.0
H1176 H 0.03092 0.41272 0.42963 0.0
H1177 H 0.03997 0.423 0.39686 0.0
H1178 H 0.02564 0.43705 0.41602 0.0
H1179 H 0.06416 0.48187 0.40759 0.0
H1180 H 0.07857 0.46797 0.38824 0.0
H1181 H 0.09577 0.48811 0.41513 0.0
H1182 H 0.11317 0.43253 0.48122 0.0
H1183 H 0.12574 0.41143 0.44851 0.0
H1184 H 0.08384 0.42701 0.39017 0.0
C1185 C 0.04987 0.46704 0.46375 0.0
C1186 C 0.05126 0.47214 0.49043 0.0
C1187 C 0.06789 0.4679 0.50621 0.0
C1188 C 0.08228 0.45788 0.49571 0.0
C1189 C 0.08015 0.45268 0.46935 0.0
C1190 C 0.06463 0.45749 0.45354 0.0
C1191 C 0.06543 0.45 0.42593 0.0
C1192 C 0.03892 0.42947 0.41658 0.0
C1193 C 0.07666 0.47338 0.40818 0.0
C1194 C 0.08322 0.43948 0.42875 0.0
C1195 C 0.09153 0.44118 0.45392 0.0
C1196 C 0.10701 0.43138 0.46141 0.0
C1197 C 0.11399 0.41937 0.44272 0.0
C1198 C 0.10554 0.4173 0.41685 0.0
C1199 C 0.0904 0.42803 0.40981 0.0
H1200 H 0.55264 0.00308 0.93258 0.0
H1201 H 0.58429 0.03443 0.00783 0.0
H1202 H 0.62738 0.04901 0.99158 0.0
H1203 H 0.59754 0.9823 0.91603 0.0
H1204 H 0.5995 0.99142 0.88268 0.0
H1205 H 0.57077 0.982 0.90046 0.0
H1206 H 0.57315 0.02469 0.88896 0.0
H1207 H 0.60179 0.03417 0.87107 0.0
H1208 H 0.60162 0.05417 0.89656 0.0
H1209 H 0.66698 0.06078 0.96743 0.0
H1210 H 0.70102 0.07123 0.93588 0.0
H1211 H 0.64424 0.03435 0.87568 0.0
C1212 C 0.56865 0.01282 0.94563 0.0
C1213 C 0.56513 0.01755 0.97147 0.0
C1214 C 0.58655 0.03068 0.98792 0.0
C1215 C 0.61111 0.03893 0.97893 0.0
C1216 C 0.61399 0.0341 0.95338 0.0
C1217 C 0.59343 0.02156 0.93686 0.0
C1218 C 0.60203 0.02007 0.90991 0.0
C1219 C 0.59185 0.99229 0.9018 0.0
C1220 C 0.59418 0.03412 0.89049 0.0
C1221 C 0.63058 0.03383 0.91392 0.0
C1222 C 0.63702 0.04148 0.93921 0.0
C1223 C 0.66221 0.05477 0.94758 0.0
C1224 C 0.68139 0.06057 0.92955 0.0
C1225 C 0.6753 0.05318 0.90344 0.0
C1226 C 0.64949 0.03971 0.89561 0.0
H1227 H 0.53569 0.59429 0.49662 0.0
H1228 H 0.57067 0.56044 0.45085 0.0
H1229 H 0.59527 0.60083 0.42736 0.0
H1230 H 0.53108 0.63285 0.44514 0.0
H1231 H 0.53831 0.65916 0.46625 0.0
H1232 H 0.52252 0.62719 0.47868 0.0
H1233 H 0.55783 0.64031 0.51335 0.0
H1234 H 0.57368 0.67229 0.50108 0.0
H1235 H 0.59056 0.65498 0.50348 0.0
H1236 H 0.61813 0.6457 0.41076 0.0
H1237 H 0.63709 0.69165 0.40197 0.0
H1238 H 0.58653 0.69594 0.45769 0.0
C1239 C 0.54838 0.59528 0.48153 0.0
C1240 C 0.55123 0.57415 0.4756 0.0
C1241 C 0.56811 0.57632 0.45575 0.0
C1242 C 0.58216 0.59919 0.44225 0.0
C1243 C 0.579 0.61968 0.44869 0.0
C1244 C 0.56247 0.61793 0.46779 0.0
C1245 C 0.56316 0.64298 0.47148 0.0
C1246 C 0.53723 0.64038 0.46499 0.0
C1247 C 0.57183 0.65324 0.49898 0.0
C1248 C 0.58296 0.65921 0.45177 0.0
C1249 C 0.5918 0.6454 0.43874 0.0
C1250 C 0.61105 0.65662 0.42051 0.0
C1251 C 0.62163 0.68269 0.41556 0.0
C1252 C 0.61274 0.69718 0.42861 0.0
C1253 C 0.59316 0.68516 0.44692 0.0
H1254 H 0.50742 0.086 0.52725 0.0
H1255 H 0.46083 0.01243 0.56327 0.0
H1256 H 0.44043 0.03057 0.59002 0.0
H1257 H 0.51771 0.12314 0.58481 0.0
H1258 H 0.51638 0.14859 0.56828 0.0
H1259 H 0.52715 0.1298 0.55156 0.0
H1260 H 0.49284 0.11888 0.51622 0.0
H1261 H 0.48202 0.13769 0.53278 0.0
H1262 H 0.45996 0.10486 0.52534 0.0
H1263 H 0.42401 0.05621 0.61184 0.0
H1264 H 0.41403 0.08823 0.62855 0.0
H1265 H 0.47253 0.14557 0.57997 0.0
C1266 C 0.49289 0.0737 0.54072 0.0
C1267 C 0.48569 0.04778 0.54312 0.0
C1268 C 0.46672 0.03237 0.56112 0.0
C1269 C 0.45498 0.04247 0.57639 0.0
C1270 C 0.46254 0.06808 0.57362 0.0
C1271 C 0.48114 0.08354 0.55635 0.0
C1272 C 0.48598 0.11053 0.55744 0.0
C1273 C 0.51343 0.12911 0.56604 0.0
C1274 C 0.47983 0.11844 0.5314 0.0
C1275 C 0.4671 0.10775 0.5779 0.0
C1276 C 0.4537 0.08309 0.5869 0.0
C1277 C 0.43464 0.07569 0.60524 0.0
C1278 C 0.42918 0.09403 0.61471 0.0
C1279 C 0.44306 0.11957 0.60614 0.0
C1280 C 0.4621 0.12634 0.58734 0.0
H1281 H 0.4457 0.48405 0.06235 0.0
H1282 H 0.48128 0.44334 0.09425 0.0
H1283 H 0.44324 0.4171 0.12028 0.0
H1284 H 0.41382 0.48636 0.11954 0.0
H1285 H 0.38709 0.48355 0.10144 0.0
H1286 H 0.41816 0.49836 0.08707 0.0
H1287 H 0.40029 0.46694 0.04898 0.0
H1288 H 0.36912 0.45169 0.06306 0.0
H1289 H 0.38393 0.43324 0.05516 0.0
H1290 H 0.39714 0.3851 0.14341 0.0
H1291 H 0.34584 0.36434 0.16284 0.0
H1292 H 0.34003 0.43432 0.11132 0.0
C1293 C 0.44538 0.46968 0.075 0.0
C1294 C 0.46636 0.46568 0.07629 0.0
C1295 C 0.46547 0.44681 0.09299 0.0
C1296 C 0.44393 0.43176 0.10783 0.0
C1297 C 0.42341 0.43584 0.10605 0.0
C1298 C 0.42376 0.45474 0.08996 0.0
C1299 C 0.39946 0.45689 0.0897 0.0
C1300 C 0.40497 0.48283 0.10005 0.0
C1301 C 0.38751 0.45189 0.06263 0.0
C1302 C 0.38247 0.43616 0.10775 0.0
C1303 C 0.39946 0.42191 0.11899 0.0
C1304 C 0.38595 0.39382 0.13837 0.0
C1305 C 0.35365 0.37985 0.14917 0.0
C1306 C 0.3389 0.40004 0.14295 0.0
C1307 C 0.35012 0.42453 0.11677 0.0
H1308 H 0.95791 0.43185 0.57162 0.0
H1309 H 0.92797 0.39796 0.49683 0.0
H1310 H 0.90591 0.35531 0.51699 0.0
H1311 H 0.97057 0.38572 0.59511 0.0
H1312 H 0.96098 0.38639 0.62774 0.0
H1313 H 0.97251 0.41423 0.60782 0.0
H1314 H 0.93106 0.41549 0.61558 0.0
H1315 H 0.91947 0.38775 0.63577 0.0
H1316 H 0.90079 0.38773 0.60862 0.0
H1317 H 0.89133 0.31617 0.54485 0.0
H1318 H 0.88292 0.28399 0.57847 0.0
H1319 H 0.91989 0.34409 0.63526 0.0
C1320 C 0.9464 0.41548 0.55953 0.0
C1321 C 0.94467 0.41812 0.53268 0.0
C1322 C 0.92939 0.39631 0.51749 0.0
C1323 C 0.91687 0.37204 0.52876 0.0
C1324 C 0.91943 0.37006 0.55527 0.0
C1325 C 0.93346 0.39127 0.57051 0.0
C1326 C 0.93378 0.38406 0.59838 0.0
C1327 C 0.96108 0.39314 0.6078 0.0
C1328 C 0.92048 0.39437 0.6156 0.0
C1329 C 0.91849 0.35541 0.59634 0.0
C1330 C 0.91036 0.34766 0.57135 0.0
C1331 C 0.89734 0.32203 0.56453 0.0
C1332 C 0.89274 0.30391 0.58372 0.0
C1333 C 0.90118 0.31149 0.60941 0.0
C1334 C 0.91358 0.33761 0.61578 0.0
H1335 H 0.55555 0.00347 0.08843 0.0
H1336 H 0.48888 0.93728 0.05787 0.0
H1337 H 0.49935 0.90924 0.08287 0.0
H1338 H 0.59724 0.98068 0.08441 0.0
H1339 H 0.61492 0.99623 0.11321 0.0
H1340 H 0.59891 0.00961 0.09533 0.0
H1341 H 0.57412 0.00877 0.13578 0.0
H1342 H 0.59032 0.99587 0.15421 0.0
H1343 H 0.55607 0.97948 0.15329 0.0
H1344 H 0.51724 0.88034 0.10418 0.0
H1345 H 0.548 0.86435 0.13283 0.0
H1346 H 0.61015 0.95929 0.15263 0.0
C1347 C 0.54303 0.98307 0.08772 0.0
C1348 C 0.52139 0.9724 0.07149 0.0
C1349 C 0.50554 0.94573 0.07026 0.0
C1350 C 0.5113 0.92967 0.08438 0.0
C1351 C 0.53308 0.94043 0.09959 0.0
C1352 C 0.5492 0.96695 0.10165 0.0
C1353 C 0.57361 0.97589 0.11802 0.0
C1354 C 0.59757 0.99152 0.10177 0.0
C1355 C 0.57352 0.99089 0.14173 0.0
C1356 C 0.57169 0.95127 0.12607 0.0
C1357 C 0.54328 0.92703 0.11335 0.0
C1358 C 0.53431 0.8942 0.11403 0.0
C1359 C 0.55399 0.88425 0.13038 0.0
C1360 C 0.58009 0.90988 0.1501 0.0
C1361 C 0.59342 0.94452 0.14302 0.0
H1362 H 0.57005 0.52549 0.57601 0.0
H1363 H 0.60491 0.50851 0.51221 0.0
H1364 H 0.64509 0.52581 0.53712 0.0
H1365 H 0.62226 0.58352 0.5938 0.0
H1366 H 0.617 0.57889 0.62801 0.0
H1367 H 0.59061 0.56346 0.60596 0.0
H1368 H 0.57865 0.5196 0.62561 0.0
H1369 H 0.60489 0.53494 0.64794 0.0
H1370 H 0.60222 0.50989 0.6273 0.0
H1371 H 0.68248 0.54869 0.56771 0.0
H1372 H 0.71331 0.57296 0.60237 0.0
H1373 H 0.65257 0.5725 0.64648 0.0
C1374 C 0.58605 0.52515 0.56737 0.0
C1375 C 0.58447 0.51579 0.54216 0.0
C1376 C 0.60573 0.51551 0.53156 0.0
C1377 C 0.62861 0.52533 0.54554 0.0
C1378 C 0.62967 0.53489 0.5702 0.0
C1379 C 0.60881 0.53448 0.58115 0.0
C1380 C 0.61493 0.54631 0.60771 0.0
C1381 C 0.61097 0.56941 0.60892 0.0
C1382 C 0.59924 0.5265 0.62836 0.0
C1383 C 0.64276 0.55425 0.6097 0.0
C1384 C 0.65093 0.54746 0.58794 0.0
C1385 C 0.67621 0.5539 0.58493 0.0
C1386 C 0.69358 0.56777 0.60463 0.0
C1387 C 0.68571 0.57521 0.62701 0.0
C1388 C 0.6597 0.56771 0.62967 0.0
H1389 H 0.04909 0.5718 0.05348 0.0
H1390 H 0.97967 0.52056 0.09358 0.0
H1391 H 0.98789 0.55471 0.12464 0.0
H1392 H 0.08803 0.60499 0.10733 0.0
H1393 H 0.1045 0.63439 0.08963 0.0
H1394 H 0.09167 0.60446 0.07295 0.0
H1395 H 0.06621 0.61739 0.0427 0.0
H1396 H 0.07859 0.64737 0.05913 0.0
H1397 H 0.04473 0.62656 0.05618 0.0
H1398 H 0.99798 0.59714 0.15528 0.0
H1399 H 0.02401 0.64749 0.17841 0.0
H1400 H 0.09397 0.67272 0.10985 0.0
C1401 C 0.03573 0.56776 0.06895 0.0
C1402 C 0.01376 0.54357 0.07119 0.0
C1403 C 0.99667 0.53894 0.09157 0.0
C1404 C 0.00117 0.55824 0.10924 0.0
C1405 C 0.02281 0.58206 0.10634 0.0
C1406 C 0.04027 0.58711 0.08636 0.0
C1407 C 0.06315 0.61435 0.08478 0.0
C1408 C 0.08832 0.61455 0.08892 0.0
C1409 C 0.06315 0.62715 0.05919 0.0
C1410 C 0.05835 0.62714 0.10669 0.0
C1411 C 0.03051 0.60455 0.12168 0.0
C1412 C 0.01593 0.61174 0.14768 0.0
C1413 C 0.03113 0.6433 0.16116 0.0
C1414 C 0.0643 0.66443 0.14935 0.0
C1415 C 0.07565 0.65927 0.11776 0.0
loop_
_geom_bond_atom_site_label_1
_geom_bond_atom_site_label_2
_geom_bond_distance
_geom_bond_site_symmetry_2
_ccdc_geom_bond_type
C0 O2 1.247 . S
C0 O4 1.258 . S
C1 O8 1.247 . S
C1 O9 1.258 1_455 S
O2 C0 1.247 . S
O2 Zn3 2.028 . S
Zn3 O2 2.028 . S
Zn3 O7 2.035 1_454 S
Zn3 O9 2.035 1_454 S
Zn3 O10 2.028 . S
O4 C0 1.258 . S
O4 Zn5 2.035 1_554 S
Zn5 O4 2.035 1_556 S
Zn5 O6 2.028 . S
Zn5 O8 2.028 . S
Zn5 O11 2.035 1_556 S
O6 Zn5 2.028 . S
O6 C12 1.247 . S
O7 Zn3 2.035 1_656 S
O7 C12 1.258 1_655 S
O8 C1 1.247 . S
O8 Zn5 2.028 . S
O9 C1 1.258 1_655 S
O9 Zn3 2.035 1_656 S
O10 Zn3 2.028 . S
O10 C13 1.247 . S
O11 Zn5 2.035 1_554 S
O11 C13 1.258 . S
C12 O6 1.247 . S
C12 O7 1.258 1_455 S
C13 O10 1.247 . S
C13 O11 1.258 . S
C14 O16 1.247 . S
C14 O18 1.258 . S
C15 O22 1.247 1_565 S
C15 O23 1.258 . S
O16 C14 1.247 . S
O16 Zn17 2.028 1_545 S
Zn17 O16 2.028 1_565 S
Zn17 O21 2.035 . S
Zn17 O23 2.035 . S
Zn17 O24 2.028 1_565 S
O18 C14 1.258 . S
O18 Zn19 2.035 . S
Zn19 O18 2.035 . S
Zn19 O20 2.028 . S
Zn19 O22 2.028 . S
Zn19 O25 2.035 . S
O20 Zn19 2.028 . S
O20 C26 1.247 1_545 S
O21 Zn17 2.035 . S
O21 C26 1.258 . S
O22 C15 1.247 1_545 S
O22 Zn19 2.028 . S
O23 C15 1.258 . S
O23 Zn17 2.035 . S
O24 Zn17 2.028 1_545 S
O24 C27 1.247 . S
O25 Zn19 2.035 . S
O25 C27 1.258 . S
C26 O20 1.247 1_565 S
C26 O21 1.258 . S
C27 O24 1.247 . S
C27 O25 1.258 . S
C28 O30 1.247 . S
C28 O32 1.258 1_556 S
C29 O36 1.247 . S
C29 O37 1.258 . S
O30 C28 1.247 . S
O30 Zn31 2.027 1_556 S
Zn31 O30 2.027 1_554 S
Zn31 O35 2.036 . S
Zn31 O37 2.036 . S
Zn31 O38 2.027 1_554 S
O32 C28 1.258 1_554 S
O32 Zn33 2.035 . S
Zn33 O32 2.035 . S
Zn33 O34 2.028 . S
Zn33 O36 2.028 . S
Zn33 O39 2.035 . S
O34 Zn33 2.028 . S
O34 C40 1.247 . S
O35 Zn31 2.036 . S
O35 C40 1.258 . S
O36 C29 1.247 . S
O36 Zn33 2.028 . S
O37 C29 1.258 . S
O37 Zn31 2.036 . S
O38 Zn31 2.027 1_556 S
O38 C41 1.247 . S
O39 Zn33 2.035 . S
O39 C41 1.258 1_554 S
C40 O34 1.247 . S
C40 O35 1.258 . S
C41 O38 1.247 . S
C41 O39 1.258 1_556 S
C42 O44 1.247 . S
C42 O46 1.258 . S
C43 O50 1.247 . S
C43 O51 1.258 1_655 S
O44 C42 1.247 . S
O44 Zn45 2.028 . S
Zn45 O44 2.028 . S
Zn45 O49 2.035 . S
Zn45 O51 2.035 . S
Zn45 O52 2.028 . S
O46 C42 1.258 . S
O46 Zn47 2.035 1_455 S
Zn47 O46 2.035 1_655 S
Zn47 O48 2.028 . S
Zn47 O50 2.028 . S
Zn47 O53 2.035 1_655 S
O48 Zn47 2.028 . S
O48 C54 1.247 . S
O49 Zn45 2.035 . S
O49 C54 1.258 1_455 S
O50 C43 1.247 . S
O50 Zn47 2.028 . S
O51 C43 1.258 1_455 S
O51 Zn45 2.035 . S
O52 Zn45 2.028 . S
O52 C55 1.247 . S
O53 Zn47 2.035 1_455 S
O53 C55 1.258 . S
C54 O48 1.247 . S
C54 O49 1.258 1_655 S
C55 O52 1.247 . S
C55 O53 1.258 . S
C56 O58 1.247 1_565 S
C56 O60 1.258 . S
C57 O64 1.247 . S
C57 O65 1.258 1_556 S
O58 C56 1.247 1_545 S
O58 Zn59 2.028 . S
Zn59 O58 2.028 . S
Zn59 O63 2.035 . S
Zn59 O65 2.035 . S
Zn59 O66 2.028 . S
O60 C56 1.258 . S
O60 Zn61 2.019 1_554 S
Zn61 O60 2.019 1_556 S
Zn61 O62 2.039 1_565 S
Zn61 O64 2.039 1_565 S
Zn61 O67 2.019 1_556 S
O62 Zn61 2.039 1_545 S
O62 C68 1.247 . S
O63 Zn59 2.035 . S
O63 C68 1.258 1_554 S
O64 C57 1.247 . S
O64 Zn61 2.039 1_545 S
O65 C57 1.258 1_554 S
O65 Zn59 2.035 . S
O66 Zn59 2.028 . S
O66 C69 1.247 1_545 S
O67 Zn61 2.019 1_554 S
O67 C69 1.258 . S
C68 O62 1.247 . S
C68 O63 1.258 1_556 S
C69 O66 1.247 1_565 S
C69 O67 1.258 . S
C70 O72 1.247 . S
C70 O74 1.258 . S
C71 O78 1.247 . S
C71 O79 1.258 . S
O72 C70 1.247 . S
O72 Zn73 2.028 . S
Zn73 O72 2.028 . S
Zn73 O77 2.035 . S
Zn73 O79 2.035 . S
Zn73 O80 2.028 . S
O74 C70 1.258 . S
O74 Zn75 2.035 . S
Zn75 O74 2.035 . S
Zn75 O76 2.028 . S
Zn75 O78 2.028 . S
Zn75 O81 2.035 . S
O76 Zn75 2.028 . S
O76 C82 1.247 . S
O77 Zn73 2.035 . S
O77 C82 1.258 . S
O78 C71 1.247 . S
O78 Zn75 2.028 . S
O79 C71 1.258 . S
O79 Zn73 2.035 . S
O80 Zn73 2.028 . S
O80 C83 1.247 . S
O81 Zn75 2.035 . S
O81 C83 1.258 . S
C82 O76 1.247 . S
C82 O77 1.258 . S
C83 O80 1.247 . S
C83 O81 1.258 . S
C84 C85 1.560 . S
C84 H145 0.959 . S
C84 H146 0.959 . S
C84 H147 0.960 . S
C85 C84 1.560 . S
C85 O140 1.426 . S
C85 H144 0.980 . S
C86 C87 1.407 . S
C86 C91 1.418 . S
C86 O140 1.334 . S
C87 C86 1.407 . S
C87 C88 1.360 . S
C87 H148 0.929 . S
C88 C87 1.360 . S
C88 C89 1.401 . S
C88 C92 1.527 . S
C89 C88 1.401 . S
C89 C90 1.405 . S
C89 C122 1.587 . S
C90 C89 1.405 . S
C90 C91 1.332 . S
C90 C93 1.496 . S
C91 C86 1.418 . S
C91 C90 1.332 . S
C91 H149 0.929 . S
C92 C88 1.527 . S
C92 H150 0.959 . S
C92 H151 0.961 . S
C92 H152 0.961 . S
C93 C90 1.496 . S
C93 H153 0.960 . S
C93 H154 0.960 . S
C93 H155 0.961 . S
C94 C95 1.517 . S
C94 H157 0.961 . S
C94 H158 0.960 . S
C94 H159 0.959 . S
C95 C94 1.517 . S
C95 O143 1.468 . S
C95 H156 0.980 . S
C96 C97 1.349 . S
C96 C101 1.367 . S
C96 O143 1.408 . S
C97 C96 1.349 . S
C97 C98 1.407 . S
C97 H160 0.930 . S
C98 C97 1.407 . S
C98 C99 1.449 . S
C98 C102 1.535 . S
C99 C98 1.449 . S
C99 C100 1.384 . S
C99 C124 1.553 . S
C100 C99 1.384 . S
C100 C101 1.364 . S
C100 C103 1.450 . S
C101 C96 1.367 . S
C101 C100 1.364 . S
C101 H161 0.931 . S
C102 C98 1.535 . S
C102 H162 0.959 . S
C102 H163 0.961 . S
C102 H164 0.959 . S
C103 C100 1.450 . S
C103 H165 0.960 . S
C103 H166 0.960 . S
C103 H167 0.960 . S
C104 C105 1.309 . S
C104 C109 1.304 . S
C104 O142 1.435 . S
C105 C104 1.309 . S
C105 C106 1.476 . S
C105 H169 0.930 . S
C106 C105 1.476 . S
C106 C107 1.400 . S
C106 C110 1.567 . S
C107 C106 1.400 . S
C107 C108 1.373 . S
C107 C129 1.432 . S
C108 C107 1.373 . S
C108 C109 1.339 . S
C108 C111 1.530 . S
C109 C104 1.304 . S
C109 C108 1.339 . S
C109 H170 0.930 . S
C110 C106 1.567 . S
C110 H171 0.961 . S
C110 H172 0.960 . S
C110 H173 0.958 . S
C111 C108 1.530 . S
C111 H174 0.961 . S
C111 H175 0.960 . S
C111 H176 0.960 . S
C112 C113 1.530 . S
C112 H178 0.961 . S
C112 H179 0.961 . S
C112 H180 0.959 . S
C113 C112 1.530 . S
C113 O141 1.412 . S
C113 H177 0.980 . S
C114 C115 1.288 . S
C114 C119 1.377 . S
C114 O141 1.393 . S
C115 C114 1.288 . S
C115 C116 1.369 . S
C115 H181 0.932 . S
C116 C115 1.369 . S
C116 C117 1.398 . S
C116 C120 1.527 . S
C117 C116 1.398 . S
C117 C118 1.380 . S
C117 C131 1.497 . S
C118 C117 1.380 . S
C118 C119 1.383 . S
C118 C121 1.603 . S
C119 C114 1.377 . S
C119 C118 1.383 . S
C119 H182 0.929 . S
C120 C116 1.527 . S
C120 H183 0.961 . S
C120 H184 0.959 . S
C120 H185 0.959 . S
C121 C118 1.603 . S
C121 H186 0.960 . S
C121 H187 0.962 . S
C121 H188 0.961 . S
C122 C89 1.587 . S
C122 C123 1.360 . S
C122 C135 1.412 . S
C123 C122 1.360 . S
C123 C124 1.365 . S
C123 H189 0.929 . S
C124 C99 1.553 . S
C124 C123 1.365 . S
C124 C125 1.404 . S
C125 C124 1.404 . S
C125 C126 1.395 . S
C125 C136 1.451 . S
C126 C125 1.395 . S
C126 C127 1.322 . S
C126 H190 0.930 . S
C127 C126 1.322 . S
C127 C128 1.459 . S
C127 H191 0.929 . S
C128 C127 1.459 . S
C128 C129 1.445 . S
C128 C137 1.395 . S
C129 C107 1.432 . S
C129 C128 1.445 . S
C129 C130 1.370 . S
C130 C129 1.370 . S
C130 C131 1.438 . S
C130 H192 0.930 . S
C131 C117 1.497 . S
C131 C130 1.438 . S
C131 C132 1.360 . S
C132 C131 1.360 . S
C132 C133 1.401 . S
C132 C137 1.446 . S
C133 C132 1.401 . S
C133 C134 1.347 . S
C133 H193 0.929 . S
C134 C133 1.347 . S
C134 C135 1.455 . S
C134 H194 0.930 . S
C135 C122 1.412 . S
C135 C134 1.455 . S
C135 C136 1.331 . S
C136 C125 1.451 . S
C136 C135 1.331 . S
C136 C137 1.497 . S
C137 C128 1.395 . S
C137 C132 1.446 . S
C137 C136 1.497 . S
C138 C139 1.582 . S
C138 H195 0.962 . S
C138 H196 0.959 . S
C138 H197 0.958 . S
C139 C138 1.582 . S
C139 O142 1.458 . S
C139 H168 0.980 . S
O140 C85 1.426 . S
O140 C86 1.334 . S
O141 C113 1.412 . S
O141 C114 1.393 . S
O142 C104 1.435 . S
O142 C139 1.458 . S
O143 C95 1.468 . S
O143 C96 1.408 . S
H144 C85 0.980 . S
H145 C84 0.959 . S
H146 C84 0.959 . S
H147 C84 0.960 . S
H148 C87 0.929 . S
H149 C91 0.929 . S
H150 C92 0.959 . S
H151 C92 0.961 . S
H152 C92 0.961 . S
H153 C93 0.960 . S
H154 C93 0.960 . S
H155 C93 0.961 . S
H156 C95 0.980 . S
H157 C94 0.961 . S
H158 C94 0.960 . S
H159 C94 0.959 . S
H160 C97 0.930 . S
H161 C101 0.931 . S
H162 C102 0.959 . S
H163 C102 0.961 . S
H164 C102 0.959 . S
H165 C103 0.960 . S
H166 C103 0.960 . S
H167 C103 0.960 . S
H168 C139 0.980 . S
H169 C105 0.930 . S
H170 C109 0.930 . S
H171 C110 0.961 . S
H172 C110 0.960 . S
H173 C110 0.958 . S
H174 C111 0.961 . S
H175 C111 0.960 . S
H176 C111 0.960 . S
H177 C113 0.980 . S
H178 C112 0.961 . S
H179 C112 0.961 . S
H180 C112 0.959 . S
H181 C115 0.932 . S
H182 C119 0.929 . S
H183 C120 0.961 . S
H184 C120 0.959 . S
H185 C120 0.959 . S
H186 C121 0.960 . S
H187 C121 0.962 . S
H188 C121 0.961 . S
H189 C123 0.929 . S
H190 C126 0.930 . S
H191 C127 0.929 . S
H192 C130 0.930 . S
H193 C133 0.929 . S
H194 C134 0.930 . S
H195 C138 0.962 . S
H196 C138 0.959 . S
H197 C138 0.958 . S
C198 C199 1.560 . S
C198 H259 0.959 . S
C198 H260 0.959 . S
C198 H261 0.960 . S
C199 C198 1.560 . S
C199 O254 1.426 . S
C199 H258 0.980 . S
C200 C201 1.407 . S
C200 C205 1.418 . S
C200 O254 1.334 . S
C201 C200 1.407 . S
C201 C202 1.360 . S
C201 H262 0.929 . S
C202 C201 1.360 . S
C202 C203 1.401 . S
C202 C206 1.527 . S
C203 C202 1.401 . S
C203 C204 1.405 . S
C203 C236 1.587 . S
C204 C203 1.405 . S
C204 C205 1.332 . S
C204 C207 1.496 . S
C205 C200 1.418 . S
C205 C204 1.332 . S
C205 H263 0.929 . S
C206 C202 1.527 . S
C206 H264 0.959 . S
C206 H265 0.961 . S
C206 H266 0.961 . S
C207 C204 1.496 . S
C207 H267 0.960 . S
C207 H268 0.960 . S
C207 H269 0.961 . S
C208 C209 1.517 . S
C208 H271 0.961 . S
C208 H272 0.960 . S
C208 H273 0.959 . S
C209 C208 1.517 . S
C209 O257 1.468 . S
C209 H270 0.980 . S
C210 C211 1.349 . S
C210 C215 1.367 . S
C210 O257 1.408 . S
C211 C210 1.349 . S
C211 C212 1.407 . S
C211 H274 0.930 . S
C212 C211 1.407 . S
C212 C213 1.449 . S
C212 C216 1.535 . S
C213 C212 1.449 . S
C213 C214 1.384 . S
C213 C238 1.553 . S
C214 C213 1.384 . S
C214 C215 1.364 . S
C214 C217 1.450 . S
C215 C210 1.367 . S
C215 C214 1.364 . S
C215 H275 0.931 . S
C216 C212 1.535 . S
C216 H276 0.959 . S
C216 H277 0.961 . S
C216 H278 0.959 . S
C217 C214 1.450 . S
C217 H279 0.960 . S
C217 H280 0.960 . S
C217 H281 0.960 . S
C218 C219 1.309 . S
C218 C223 1.304 . S
C218 O256 1.435 . S
C219 C218 1.309 . S
C219 C220 1.476 . S
C219 H283 0.930 . S
C220 C219 1.476 . S
C220 C221 1.400 . S
C220 C224 1.567 . S
C221 C220 1.400 . S
C221 C222 1.373 . S
C221 C243 1.432 . S
C222 C221 1.373 . S
C222 C223 1.339 . S
C222 C225 1.530 . S
C223 C218 1.304 . S
C223 C222 1.339 . S
C223 H284 0.930 . S
C224 C220 1.567 . S
C224 H285 0.961 . S
C224 H286 0.960 . S
C224 H287 0.958 . S
C225 C222 1.530 . S
C225 H288 0.961 . S
C225 H289 0.960 . S
C225 H290 0.960 . S
C226 C227 1.530 . S
C226 H292 0.961 . S
C226 H293 0.961 . S
C226 H294 0.959 . S
C227 C226 1.530 . S
C227 O255 1.412 . S
C227 H291 0.980 . S
C228 C229 1.288 . S
C228 C233 1.377 . S
C228 O255 1.393 . S
C229 C228 1.288 . S
C229 C230 1.369 . S
C229 H295 0.932 . S
C230 C229 1.369 . S
C230 C231 1.398 . S
C230 C234 1.527 . S
C231 C230 1.398 . S
C231 C232 1.380 . S
C231 C245 1.497 . S
C232 C231 1.380 . S
C232 C233 1.383 . S
C232 C235 1.603 . S
C233 C228 1.377 . S
C233 C232 1.383 . S
C233 H296 0.929 . S
C234 C230 1.527 . S
C234 H297 0.961 . S
C234 H298 0.959 . S
C234 H299 0.959 . S
C235 C232 1.603 . S
C235 H300 0.960 . S
C235 H301 0.962 . S
C235 H302 0.961 . S
C236 C203 1.587 . S
C236 C237 1.360 . S
C236 C249 1.412 . S
C237 C236 1.360 . S
C237 C238 1.365 . S
C237 H303 0.929 . S
C238 C213 1.553 . S
C238 C237 1.365 . S
C238 C239 1.404 . S
C239 C238 1.404 . S
C239 C240 1.395 . S
C239 C250 1.451 . S
C240 C239 1.395 . S
C240 C241 1.322 . S
C240 H304 0.930 . S
C241 C240 1.322 . S
C241 C242 1.459 . S
C241 H305 0.929 . S
C242 C241 1.459 . S
C242 C243 1.445 . S
C242 C251 1.395 . S
C243 C221 1.432 . S
C243 C242 1.445 . S
C243 C244 1.370 . S
C244 C243 1.370 . S
C244 C245 1.438 . S
C244 H306 0.930 . S
C245 C231 1.497 . S
C245 C244 1.438 . S
C245 C246 1.360 . S
C246 C245 1.360 . S
C246 C247 1.401 . S
C246 C251 1.446 . S
C247 C246 1.401 . S
C247 C248 1.347 . S
C247 H307 0.929 . S
C248 C247 1.347 . S
C248 C249 1.455 . S
C248 H308 0.930 . S
C249 C236 1.412 . S
C249 C248 1.455 . S
C249 C250 1.331 . S
C250 C239 1.451 . S
C250 C249 1.331 . S
C250 C251 1.497 . S
C251 C242 1.395 . S
C251 C246 1.446 . S
C251 C250 1.497 . S
C252 C253 1.582 . S
C252 H309 0.962 . S
C252 H310 0.959 . S
C252 H311 0.958 . S
C253 C252 1.582 . S
C253 O256 1.458 . S
C253 H282 0.980 . S
O254 C199 1.426 . S
O254 C200 1.334 . S
O255 C227 1.412 . S
O255 C228 1.393 . S
O256 C218 1.435 . S
O256 C253 1.458 . S
O257 C209 1.468 . S
O257 C210 1.408 . S
H258 C199 0.980 . S
H259 C198 0.959 . S
H260 C198 0.959 . S
H261 C198 0.960 . S
H262 C201 0.929 . S
H263 C205 0.929 . S
H264 C206 0.959 . S
H265 C206 0.961 . S
H266 C206 0.961 . S
H267 C207 0.960 . S
H268 C207 0.960 . S
H269 C207 0.961 . S
H270 C209 0.980 . S
H271 C208 0.961 . S
H272 C208 0.960 . S
H273 C208 0.959 . S
H274 C211 0.930 . S
H275 C215 0.931 . S
H276 C216 0.959 . S
H277 C216 0.961 . S
H278 C216 0.959 . S
H279 C217 0.960 . S
H280 C217 0.960 . S
H281 C217 0.960 . S
H282 C253 0.980 . S
H283 C219 0.930 . S
H284 C223 0.930 . S
H285 C224 0.961 . S
H286 C224 0.960 . S
H287 C224 0.958 . S
H288 C225 0.961 . S
H289 C225 0.960 . S
H290 C225 0.960 . S
H291 C227 0.980 . S
H292 C226 0.961 . S
H293 C226 0.961 . S
H294 C226 0.959 . S
H295 C229 0.932 . S
H296 C233 0.929 . S
H297 C234 0.961 . S
H298 C234 0.959 . S
H299 C234 0.959 . S
H300 C235 0.960 . S
H301 C235 0.962 . S
H302 C235 0.961 . S
H303 C237 0.929 . S
H304 C240 0.930 . S
H305 C241 0.929 . S
H306 C244 0.930 . S
H307 C247 0.929 . S
H308 C248 0.930 . S
H309 C252 0.962 . S
H310 C252 0.959 . S
H311 C252 0.958 . S
C312 C313 1.560 . S
C312 H373 0.959 . S
C312 H374 0.959 . S
C312 H375 0.960 . S
C313 C312 1.560 . S
C313 O368 1.426 . S
C313 H372 0.980 . S
C314 C315 1.407 . S
C314 C319 1.418 . S
C314 O368 1.334 . S
C315 C314 1.407 . S
C315 C316 1.360 . S
C315 H376 0.929 . S
C316 C315 1.360 . S
C316 C317 1.401 . S
C316 C320 1.527 . S
C317 C316 1.401 . S
C317 C318 1.405 . S
C317 C350 1.587 . S
C318 C317 1.405 . S
C318 C319 1.332 . S
C318 C321 1.496 . S
C319 C314 1.418 . S
C319 C318 1.332 . S
C319 H377 0.929 . S
C320 C316 1.527 . S
C320 H378 0.959 . S
C320 H379 0.961 . S
C320 H380 0.961 . S
C321 C318 1.496 . S
C321 H381 0.960 . S
C321 H382 0.960 . S
C321 H383 0.961 . S
C322 C323 1.517 . S
C322 H385 0.961 . S
C322 H386 0.960 . S
C322 H387 0.959 . S
C323 C322 1.517 . S
C323 O371 1.468 . S
C323 H384 0.980 . S
C324 C325 1.349 . S
C324 C329 1.367 . S
C324 O371 1.408 . S
C325 C324 1.349 . S
C325 C326 1.407 . S
C325 H388 0.930 . S
C326 C325 1.407 . S
C326 C327 1.449 . S
C326 C330 1.535 . S
C327 C326 1.449 . S
C327 C328 1.384 . S
C327 C352 1.553 . S
C328 C327 1.384 . S
C328 C329 1.364 . S
C328 C331 1.450 . S
C329 C324 1.367 . S
C329 C328 1.364 . S
C329 H389 0.931 . S
C330 C326 1.535 . S
C330 H390 0.959 . S
C330 H391 0.961 . S
C330 H392 0.959 . S
C331 C328 1.450 . S
C331 H393 0.960 . S
C331 H394 0.960 . S
C331 H395 0.960 . S
C332 C333 1.309 . S
C332 C337 1.304 . S
C332 O370 1.435 . S
C333 C332 1.309 . S
C333 C334 1.476 . S
C333 H397 0.930 . S
C334 C333 1.476 . S
C334 C335 1.400 . S
C334 C338 1.567 . S
C335 C334 1.400 . S
C335 C336 1.373 . S
C335 C357 1.432 . S
C336 C335 1.373 . S
C336 C337 1.339 . S
C336 C339 1.530 . S
C337 C332 1.304 . S
C337 C336 1.339 . S
C337 H398 0.930 . S
C338 C334 1.567 . S
C338 H399 0.961 . S
C338 H400 0.960 . S
C338 H401 0.958 . S
C339 C336 1.530 . S
C339 H402 0.961 . S
C339 H403 0.960 . S
C339 H404 0.960 . S
C340 C341 1.530 . S
C340 H406 0.961 . S
C340 H407 0.961 . S
C340 H408 0.959 . S
C341 C340 1.530 . S
C341 O369 1.412 . S
C341 H405 0.980 . S
C342 C343 1.288 . S
C342 C347 1.377 . S
C342 O369 1.393 . S
C343 C342 1.288 . S
C343 C344 1.369 . S
C343 H409 0.932 . S
C344 C343 1.369 . S
C344 C345 1.398 . S
C344 C348 1.527 . S
C345 C344 1.398 . S
C345 C346 1.380 . S
C345 C359 1.497 . S
C346 C345 1.380 . S
C346 C347 1.383 . S
C346 C349 1.603 . S
C347 C342 1.377 . S
C347 C346 1.383 . S
C347 H410 0.929 . S
C348 C344 1.527 . S
C348 H411 0.961 . S
C348 H412 0.959 . S
C348 H413 0.959 . S
C349 C346 1.603 . S
C349 H414 0.960 . S
C349 H415 0.962 . S
C349 H416 0.961 . S
C350 C317 1.587 . S
C350 C351 1.360 . S
C350 C363 1.412 . S
C351 C350 1.360 . S
C351 C352 1.365 . S
C351 H417 0.929 . S
C352 C327 1.553 . S
C352 C351 1.365 . S
C352 C353 1.404 . S
C353 C352 1.404 . S
C353 C354 1.395 . S
C353 C364 1.451 . S
C354 C353 1.395 . S
C354 C355 1.322 . S
C354 H418 0.930 . S
C355 C354 1.322 . S
C355 C356 1.459 . S
C355 H419 0.929 . S
C356 C355 1.459 . S
C356 C357 1.445 . S
C356 C365 1.395 . S
C357 C335 1.432 . S
C357 C356 1.445 . S
C357 C358 1.370 . S
C358 C357 1.370 . S
C358 C359 1.438 . S
C358 H420 0.930 . S
C359 C345 1.497 . S
C359 C358 1.438 . S
C359 C360 1.360 . S
C360 C359 1.360 . S
C360 C361 1.401 . S
C360 C365 1.446 . S
C361 C360 1.401 . S
C361 C362 1.347 . S
C361 H421 0.929 . S
C362 C361 1.347 . S
C362 C363 1.455 . S
C362 H422 0.930 . S
C363 C350 1.412 . S
C363 C362 1.455 . S
C363 C364 1.331 . S
C364 C353 1.451 . S
C364 C363 1.331 . S
C364 C365 1.497 . S
C365 C356 1.395 . S
C365 C360 1.446 . S
C365 C364 1.497 . S
C366 C367 1.582 . S
C366 H423 0.962 . S
C366 H424 0.959 . S
C366 H425 0.958 . S
C367 C366 1.582 . S
C367 O370 1.458 . S
C367 H396 0.980 . S
O368 C313 1.426 . S
O368 C314 1.334 . S
O369 C341 1.412 . S
O369 C342 1.393 . S
O370 C332 1.435 . S
O370 C367 1.458 . S
O371 C323 1.468 . S
O371 C324 1.408 . S
H372 C313 0.980 . S
H373 C312 0.959 . S
H374 C312 0.959 . S
H375 C312 0.960 . S
H376 C315 0.929 . S
H377 C319 0.929 . S
H378 C320 0.959 . S
H379 C320 0.961 . S
H380 C320 0.961 . S
H381 C321 0.960 . S
H382 C321 0.960 . S
H383 C321 0.961 . S
H384 C323 0.980 . S
H385 C322 0.961 . S
H386 C322 0.960 . S
H387 C322 0.959 . S
H388 C325 0.930 . S
H389 C329 0.931 . S
H390 C330 0.959 . S
H391 C330 0.961 . S
H392 C330 0.959 . S
H393 C331 0.960 . S
H394 C331 0.960 . S
H395 C331 0.960 . S
H396 C367 0.980 . S
H397 C333 0.930 . S
H398 C337 0.930 . S
H399 C338 0.961 . S
H400 C338 0.960 . S
H401 C338 0.958 . S
H402 C339 0.961 . S
H403 C339 0.960 . S
H404 C339 0.960 . S
H405 C341 0.980 . S
H406 C340 0.961 . S
H407 C340 0.961 . S
H408 C340 0.959 . S
H409 C343 0.932 . S
H410 C347 0.929 . S
H411 C348 0.961 . S
H412 C348 0.959 . S
H413 C348 0.959 . S
H414 C349 0.960 . S
H415 C349 0.962 . S
H416 C349 0.961 . S
H417 C351 0.929 . S
H418 C354 0.930 . S
H419 C355 0.929 . S
H420 C358 0.930 . S
H421 C361 0.929 . S
H422 C362 0.930 . S
H423 C366 0.962 . S
H424 C366 0.959 . S
H425 C366 0.958 . S
C426 C427 1.560 . S
C426 H487 0.959 . S
C426 H488 0.959 . S
C426 H489 0.960 . S
C427 C426 1.560 . S
C427 O482 1.426 . S
C427 H486 0.980 . S
C428 C429 1.407 . S
C428 C433 1.418 . S
C428 O482 1.334 . S
C429 C428 1.407 . S
C429 C430 1.360 . S
C429 H490 0.929 . S
C430 C429 1.360 . S
C430 C431 1.401 . S
C430 C434 1.527 . S
C431 C430 1.401 . S
C431 C432 1.405 . S
C431 C464 1.587 . S
C432 C431 1.405 . S
C432 C433 1.332 . S
C432 C435 1.496 . S
C433 C428 1.418 . S
C433 C432 1.332 . S
C433 H491 0.929 . S
C434 C430 1.527 . S
C434 H492 0.959 . S
C434 H493 0.961 . S
C434 H494 0.961 . S
C435 C432 1.496 . S
C435 H495 0.960 . S
C435 H496 0.960 . S
C435 H497 0.961 . S
C436 C437 1.517 . S
C436 H499 0.961 . S
C436 H500 0.960 . S
C436 H501 0.959 . S
C437 C436 1.517 . S
C437 O485 1.468 . S
C437 H498 0.980 . S
C438 C439 1.349 . S
C438 C443 1.367 . S
C438 O485 1.408 . S
C439 C438 1.349 . S
C439 C440 1.407 . S
C439 H502 0.930 . S
C440 C439 1.407 . S
C440 C441 1.449 . S
C440 C444 1.535 . S
C441 C440 1.449 . S
C441 C442 1.384 . S
C441 C466 1.553 . S
C442 C441 1.384 . S
C442 C443 1.364 . S
C442 C445 1.450 . S
C443 C438 1.367 . S
C443 C442 1.364 . S
C443 H503 0.931 . S
C444 C440 1.535 . S
C444 H504 0.959 . S
C444 H505 0.961 . S
C444 H506 0.959 . S
C445 C442 1.450 . S
C445 H507 0.960 . S
C445 H508 0.960 . S
C445 H509 0.960 . S
C446 C447 1.309 . S
C446 C451 1.304 . S
C446 O484 1.435 . S
C447 C446 1.309 . S
C447 C448 1.476 . S
C447 H511 0.930 . S
C448 C447 1.476 . S
C448 C449 1.400 . S
C448 C452 1.567 . S
C449 C448 1.400 . S
C449 C450 1.373 . S
C449 C471 1.432 . S
C450 C449 1.373 . S
C450 C451 1.339 . S
C450 C453 1.530 . S
C451 C446 1.304 . S
C451 C450 1.339 . S
C451 H512 0.930 . S
C452 C448 1.567 . S
C452 H513 0.961 . S
C452 H514 0.960 . S
C452 H515 0.958 . S
C453 C450 1.530 . S
C453 H516 0.961 . S
C453 H517 0.960 . S
C453 H518 0.960 . S
C454 C455 1.530 . S
C454 H520 0.961 . S
C454 H521 0.961 . S
C454 H522 0.959 . S
C455 C454 1.530 . S
C455 O483 1.412 . S
C455 H519 0.980 . S
C456 C457 1.288 . S
C456 C461 1.377 . S
C456 O483 1.393 . S
C457 C456 1.288 . S
C457 C458 1.369 . S
C457 H523 0.932 . S
C458 C457 1.369 . S
C458 C459 1.398 . S
C458 C462 1.527 . S
C459 C458 1.398 . S
C459 C460 1.380 . S
C459 C473 1.497 . S
C460 C459 1.380 . S
C460 C461 1.383 . S
C460 C463 1.603 . S
C461 C456 1.377 . S
C461 C460 1.383 . S
C461 H524 0.929 . S
C462 C458 1.527 . S
C462 H525 0.961 . S
C462 H526 0.959 . S
C462 H527 0.959 . S
C463 C460 1.603 . S
C463 H528 0.960 . S
C463 H529 0.962 . S
C463 H530 0.961 . S
C464 C431 1.587 . S
C464 C465 1.360 . S
C464 C477 1.412 . S
C465 C464 1.360 . S
C465 C466 1.365 . S
C465 H531 0.929 . S
C466 C441 1.553 . S
C466 C465 1.365 . S
C466 C467 1.404 . S
C467 C466 1.404 . S
C467 C468 1.395 . S
C467 C478 1.451 . S
C468 C467 1.395 . S
C468 C469 1.322 . S
C468 H532 0.930 . S
C469 C468 1.322 . S
C469 C470 1.459 . S
C469 H533 0.929 . S
C470 C469 1.459 . S
C470 C471 1.445 . S
C470 C479 1.395 . S
C471 C449 1.432 . S
C471 C470 1.445 . S
C471 C472 1.370 . S
C472 C471 1.370 . S
C472 C473 1.438 . S
C472 H534 0.930 . S
C473 C459 1.497 . S
C473 C472 1.438 . S
C473 C474 1.360 . S
C474 C473 1.360 . S
C474 C475 1.401 . S
C474 C479 1.446 . S
C475 C474 1.401 . S
C475 C476 1.347 . S
C475 H535 0.929 . S
C476 C475 1.347 . S
C476 C477 1.455 . S
C476 H536 0.930 . S
C477 C464 1.412 . S
C477 C476 1.455 . S
C477 C478 1.331 . S
C478 C467 1.451 . S
C478 C477 1.331 . S
C478 C479 1.497 . S
C479 C470 1.395 . S
C479 C474 1.446 . S
C479 C478 1.497 . S
C480 C481 1.582 . S
C480 H537 0.962 . S
C480 H538 0.959 . S
C480 H539 0.958 . S
C481 C480 1.582 . S
C481 O484 1.458 . S
C481 H510 0.980 . S
O482 C427 1.426 . S
O482 C428 1.334 . S
O483 C455 1.412 . S
O483 C456 1.393 . S
O484 C446 1.435 . S
O484 C481 1.458 . S
O485 C437 1.468 . S
O485 C438 1.408 . S
H486 C427 0.980 . S
H487 C426 0.959 . S
H488 C426 0.959 . S
H489 C426 0.960 . S
H490 C429 0.929 . S
H491 C433 0.929 . S
H492 C434 0.959 . S
H493 C434 0.961 . S
H494 C434 0.961 . S
H495 C435 0.960 . S
H496 C435 0.960 . S
H497 C435 0.961 . S
H498 C437 0.980 . S
H499 C436 0.961 . S
H500 C436 0.960 . S
H501 C436 0.959 . S
H502 C439 0.930 . S
H503 C443 0.931 . S
H504 C444 0.959 . S
H505 C444 0.961 . S
H506 C444 0.959 . S
H507 C445 0.960 . S
H508 C445 0.960 . S
H509 C445 0.960 . S
H510 C481 0.980 . S
H511 C447 0.930 . S
H512 C451 0.930 . S
H513 C452 0.961 . S
H514 C452 0.960 . S
H515 C452 0.958 . S
H516 C453 0.961 . S
H517 C453 0.960 . S
H518 C453 0.960 . S
H519 C455 0.980 . S
H520 C454 0.961 . S
H521 C454 0.961 . S
H522 C454 0.959 . S
H523 C457 0.932 . S
H524 C461 0.929 . S
H525 C462 0.961 . S
H526 C462 0.959 . S
H527 C462 0.959 . S
H528 C463 0.960 . S
H529 C463 0.962 . S
H530 C463 0.961 . S
H531 C465 0.929 . S
H532 C468 0.930 . S
H533 C469 0.929 . S
H534 C472 0.930 . S
H535 C475 0.929 . S
H536 C476 0.930 . S
H537 C480 0.962 . S
H538 C480 0.959 . S
H539 C480 0.958 . S
C540 C541 1.560 . S
C540 H601 0.959 . S
C540 H602 0.959 . S
C540 H603 0.960 . S
C541 C540 1.560 . S
C541 O596 1.426 . S
C541 H600 0.980 . S
C542 C543 1.407 . S
C542 C547 1.418 . S
C542 O596 1.334 . S
C543 C542 1.407 . S
C543 C544 1.360 . S
C543 H604 0.929 . S
C544 C543 1.360 . S
C544 C545 1.401 . S
C544 C548 1.527 . S
C545 C544 1.401 . S
C545 C546 1.405 . S
C545 C578 1.587 . S
C546 C545 1.405 . S
C546 C547 1.332 . S
C546 C549 1.496 . S
C547 C542 1.418 . S
C547 C546 1.332 . S
C547 H605 0.929 . S
C548 C544 1.527 . S
C548 H606 0.959 . S
C548 H607 0.961 . S
C548 H608 0.961 . S
C549 C546 1.496 . S
C549 H609 0.960 . S
C549 H610 0.960 . S
C549 H611 0.961 . S
C550 C551 1.517 . S
C550 H613 0.961 . S
C550 H614 0.960 . S
C550 H615 0.959 . S
C551 C550 1.517 . S
C551 O599 1.468 . S
C551 H612 0.980 . S
C552 C553 1.349 . S
C552 C557 1.367 . S
C552 O599 1.408 . S
C553 C552 1.349 . S
C553 C554 1.407 . S
C553 H616 0.930 . S
C554 C553 1.407 . S
C554 C555 1.449 . S
C554 C558 1.535 . S
C555 C554 1.449 . S
C555 C556 1.384 . S
C555 C580 1.553 . S
C556 C555 1.384 . S
C556 C557 1.364 . S
C556 C559 1.450 . S
C557 C552 1.367 . S
C557 C556 1.364 . S
C557 H617 0.931 . S
C558 C554 1.535 . S
C558 H618 0.959 . S
C558 H619 0.961 . S
C558 H620 0.959 . S
C559 C556 1.450 . S
C559 H621 0.960 . S
C559 H622 0.960 . S
C559 H623 0.960 . S
C560 C561 1.309 . S
C560 C565 1.304 . S
C560 O598 1.435 . S
C561 C560 1.309 . S
C561 C562 1.476 . S
C561 H625 0.930 . S
C562 C561 1.476 . S
C562 C563 1.400 . S
C562 C566 1.567 . S
C563 C562 1.400 . S
C563 C564 1.373 . S
C563 C585 1.432 . S
C564 C563 1.373 . S
C564 C565 1.339 . S
C564 C567 1.530 . S
C565 C560 1.304 . S
C565 C564 1.339 . S
C565 H626 0.930 . S
C566 C562 1.567 . S
C566 H627 0.961 . S
C566 H628 0.960 . S
C566 H629 0.958 . S
C567 C564 1.530 . S
C567 H630 0.961 . S
C567 H631 0.960 . S
C567 H632 0.960 . S
C568 C569 1.530 . S
C568 H634 0.961 . S
C568 H635 0.961 . S
C568 H636 0.959 . S
C569 C568 1.530 . S
C569 O597 1.412 . S
C569 H633 0.980 . S
C570 C571 1.288 . S
C570 C575 1.377 . S
C570 O597 1.393 . S
C571 C570 1.288 . S
C571 C572 1.369 . S
C571 H637 0.932 . S
C572 C571 1.369 . S
C572 C573 1.398 . S
C572 C576 1.527 . S
C573 C572 1.398 . S
C573 C574 1.380 . S
C573 C587 1.497 . S
C574 C573 1.380 . S
C574 C575 1.383 . S
C574 C577 1.603 . S
C575 C570 1.377 . S
C575 C574 1.383 . S
C575 H638 0.929 . S
C576 C572 1.527 . S
C576 H639 0.961 . S
C576 H640 0.959 . S
C576 H641 0.959 . S
C577 C574 1.603 . S
C577 H642 0.960 . S
C577 H643 0.962 . S
C577 H644 0.961 . S
C578 C545 1.587 . S
C578 C579 1.360 . S
C578 C591 1.412 . S
C579 C578 1.360 . S
C579 C580 1.365 . S
C579 H645 0.929 . S
C580 C555 1.553 . S
C580 C579 1.365 . S
C580 C581 1.404 . S
C581 C580 1.404 . S
C581 C582 1.395 . S
C581 C592 1.451 . S
C582 C581 1.395 . S
C582 C583 1.322 . S
C582 H646 0.930 . S
C583 C582 1.322 . S
C583 C584 1.459 . S
C583 H647 0.929 . S
C584 C583 1.459 . S
C584 C585 1.445 . S
C584 C593 1.395 . S
C585 C563 1.432 . S
C585 C584 1.445 . S
C585 C586 1.370 . S
C586 C585 1.370 . S
C586 C587 1.438 . S
C586 H648 0.930 . S
C587 C573 1.497 . S
C587 C586 1.438 . S
C587 C588 1.360 . S
C588 C587 1.360 . S
C588 C589 1.401 . S
C588 C593 1.446 . S
C589 C588 1.401 . S
C589 C590 1.347 . S
C589 H649 0.929 . S
C590 C589 1.347 . S
C590 C591 1.455 . S
C590 H650 0.930 . S
C591 C578 1.412 . S
C591 C590 1.455 . S
C591 C592 1.331 . S
C592 C581 1.451 . S
C592 C591 1.331 . S
C592 C593 1.497 . S
C593 C584 1.395 . S
C593 C588 1.446 . S
C593 C592 1.497 . S
C594 C595 1.582 . S
C594 H651 0.962 . S
C594 H652 0.959 . S
C594 H653 0.958 . S
C595 C594 1.582 . S
C595 O598 1.458 . S
C595 H624 0.980 . S
O596 C541 1.426 . S
O596 C542 1.334 . S
O597 C569 1.412 . S
O597 C570 1.393 . S
O598 C560 1.435 . S
O598 C595 1.458 . S
O599 C551 1.468 . S
O599 C552 1.408 . S
H600 C541 0.980 . S
H601 C540 0.959 . S
H602 C540 0.959 . S
H603 C540 0.960 . S
H604 C543 0.929 . S
H605 C547 0.929 . S
H606 C548 0.959 . S
H607 C548 0.961 . S
H608 C548 0.961 . S
H609 C549 0.960 . S
H610 C549 0.960 . S
H611 C549 0.961 . S
H612 C551 0.980 . S
H613 C550 0.961 . S
H614 C550 0.960 . S
H615 C550 0.959 . S
H616 C553 0.930 . S
H617 C557 0.931 . S
H618 C558 0.959 . S
H619 C558 0.961 . S
H620 C558 0.959 . S
H621 C559 0.960 . S
H622 C559 0.960 . S
H623 C559 0.960 . S
H624 C595 0.980 . S
H625 C561 0.930 . S
H626 C565 0.930 . S
H627 C566 0.961 . S
H628 C566 0.960 . S
H629 C566 0.958 . S
H630 C567 0.961 . S
H631 C567 0.960 . S
H632 C567 0.960 . S
H633 C569 0.980 . S
H634 C568 0.961 . S
H635 C568 0.961 . S
H636 C568 0.959 . S
H637 C571 0.932 . S
H638 C575 0.929 . S
H639 C576 0.961 . S
H640 C576 0.959 . S
H641 C576 0.959 . S
H642 C577 0.960 . S
H643 C577 0.962 . S
H644 C577 0.961 . S
H645 C579 0.929 . S
H646 C582 0.930 . S
H647 C583 0.929 . S
H648 C586 0.930 . S
H649 C589 0.929 . S
H650 C590 0.930 . S
H651 C594 0.962 . S
H652 C594 0.959 . S
H653 C594 0.958 . S
C654 C655 1.560 . S
C654 H715 0.959 . S
C654 H716 0.959 . S
C654 H717 0.960 . S
C655 C654 1.560 . S
C655 O710 1.426 . S
C655 H714 0.980 . S
C656 C657 1.407 . S
C656 C661 1.418 . S
C656 O710 1.334 . S
C657 C656 1.407 . S
C657 C658 1.360 . S
C657 H718 0.929 . S
C658 C657 1.360 . S
C658 C659 1.401 . S
C658 C662 1.527 . S
C659 C658 1.401 . S
C659 C660 1.405 . S
C659 C692 1.587 . S
C660 C659 1.405 . S
C660 C661 1.332 . S
C660 C663 1.496 . S
C661 C656 1.418 . S
C661 C660 1.332 . S
C661 H719 0.929 . S
C662 C658 1.527 . S
C662 H720 0.959 . S
C662 H721 0.961 . S
C662 H722 0.961 . S
C663 C660 1.496 . S
C663 H723 0.960 . S
C663 H724 0.960 . S
C663 H725 0.961 . S
C664 C665 1.517 . S
C664 H727 0.961 . S
C664 H728 0.960 . S
C664 H729 0.959 . S
C665 C664 1.517 . S
C665 O713 1.468 . S
C665 H726 0.980 . S
C666 C667 1.349 . S
C666 C671 1.367 . S
C666 O713 1.408 . S
C667 C666 1.349 . S
C667 C668 1.407 . S
C667 H730 0.930 . S
C668 C667 1.407 . S
C668 C669 1.449 . S
C668 C672 1.535 . S
C669 C668 1.449 . S
C669 C670 1.384 . S
C669 C694 1.553 . S
C670 C669 1.384 . S
C670 C671 1.364 . S
C670 C673 1.450 . S
C671 C666 1.367 . S
C671 C670 1.364 . S
C671 H731 0.931 . S
C672 C668 1.535 . S
C672 H732 0.959 . S
C672 H733 0.961 . S
C672 H734 0.959 . S
C673 C670 1.450 . S
C673 H735 0.960 . S
C673 H736 0.960 . S
C673 H737 0.960 . S
C674 C675 1.309 . S
C674 C679 1.304 . S
C674 O712 1.435 . S
C675 C674 1.309 . S
C675 C676 1.476 . S
C675 H739 0.930 . S
C676 C675 1.476 . S
C676 C677 1.400 . S
C676 C680 1.567 . S
C677 C676 1.400 . S
C677 C678 1.373 . S
C677 C699 1.432 . S
C678 C677 1.373 . S
C678 C679 1.339 . S
C678 C681 1.530 . S
C679 C674 1.304 . S
C679 C678 1.339 . S
C679 H740 0.930 . S
C680 C676 1.567 . S
C680 H741 0.961 . S
C680 H742 0.960 . S
C680 H743 0.958 . S
C681 C678 1.530 . S
C681 H744 0.961 . S
C681 H745 0.960 . S
C681 H746 0.960 . S
C682 C683 1.530 . S
C682 H748 0.961 . S
C682 H749 0.961 . S
C682 H750 0.959 . S
C683 C682 1.530 . S
C683 O711 1.412 . S
C683 H747 0.980 . S
C684 C685 1.288 . S
C684 C689 1.377 . S
C684 O711 1.393 . S
C685 C684 1.288 . S
C685 C686 1.369 . S
C685 H751 0.932 . S
C686 C685 1.369 . S
C686 C687 1.398 . S
C686 C690 1.527 . S
C687 C686 1.398 . S
C687 C688 1.380 . S
C687 C701 1.497 . S
C688 C687 1.380 . S
C688 C689 1.383 . S
C688 C691 1.603 . S
C689 C684 1.377 . S
C689 C688 1.383 . S
C689 H752 0.929 . S
C690 C686 1.527 . S
C690 H753 0.961 . S
C690 H754 0.959 . S
C690 H755 0.959 . S
C691 C688 1.603 . S
C691 H756 0.960 . S
C691 H757 0.962 . S
C691 H758 0.961 . S
C692 C659 1.587 . S
C692 C693 1.360 . S
C692 C705 1.412 . S
C693 C692 1.360 . S
C693 C694 1.365 . S
C693 H759 0.929 . S
C694 C669 1.553 . S
C694 C693 1.365 . S
C694 C695 1.404 . S
C695 C694 1.404 . S
C695 C696 1.395 . S
C695 C706 1.451 . S
C696 C695 1.395 . S
C696 C697 1.322 . S
C696 H760 0.930 . S
C697 C696 1.322 . S
C697 C698 1.459 . S
C697 H761 0.929 . S
C698 C697 1.459 . S
C698 C699 1.445 . S
C698 C707 1.395 . S
C699 C677 1.432 . S
C699 C698 1.445 . S
C699 C700 1.370 . S
C700 C699 1.370 . S
C700 C701 1.438 . S
C700 H762 0.930 . S
C701 C687 1.497 . S
C701 C700 1.438 . S
C701 C702 1.360 . S
C702 C701 1.360 . S
C702 C703 1.401 . S
C702 C707 1.446 . S
C703 C702 1.401 . S
C703 C704 1.347 . S
C703 H763 0.929 . S
C704 C703 1.347 . S
C704 C705 1.455 . S
C704 H764 0.930 . S
C705 C692 1.412 . S
C705 C704 1.455 . S
C705 C706 1.331 . S
C706 C695 1.451 . S
C706 C705 1.331 . S
C706 C707 1.497 . S
C707 C698 1.395 . S
C707 C702 1.446 . S
C707 C706 1.497 . S
C708 C709 1.582 . S
C708 H765 0.962 . S
C708 H766 0.959 . S
C708 H767 0.958 . S
C709 C708 1.582 . S
C709 O712 1.458 . S
C709 H738 0.980 . S
O710 C655 1.426 . S
O710 C656 1.334 . S
O711 C683 1.412 . S
O711 C684 1.393 . S
O712 C674 1.435 . S
O712 C709 1.458 . S
O713 C665 1.468 . S
O713 C666 1.408 . S
H714 C655 0.980 . S
H715 C654 0.959 . S
H716 C654 0.959 . S
H717 C654 0.960 . S
H718 C657 0.929 . S
H719 C661 0.929 . S
H720 C662 0.959 . S
H721 C662 0.961 . S
H722 C662 0.961 . S
H723 C663 0.960 . S
H724 C663 0.960 . S
H725 C663 0.961 . S
H726 C665 0.980 . S
H727 C664 0.961 . S
H728 C664 0.960 . S
H729 C664 0.959 . S
H730 C667 0.930 . S
H731 C671 0.931 . S
H732 C672 0.959 . S
H733 C672 0.961 . S
H734 C672 0.959 . S
H735 C673 0.960 . S
H736 C673 0.960 . S
H737 C673 0.960 . S
H738 C709 0.980 . S
H739 C675 0.930 . S
H740 C679 0.930 . S
H741 C680 0.961 . S
H742 C680 0.960 . S
H743 C680 0.958 . S
H744 C681 0.961 . S
H745 C681 0.960 . S
H746 C681 0.960 . S
H747 C683 0.980 . S
H748 C682 0.961 . S
H749 C682 0.961 . S
H750 C682 0.959 . S
H751 C685 0.932 . S
H752 C689 0.929 . S
H753 C690 0.961 . S
H754 C690 0.959 . S
H755 C690 0.959 . S
H756 C691 0.960 . S
H757 C691 0.962 . S
H758 C691 0.961 . S
H759 C693 0.929 . S
H760 C696 0.930 . S
H761 C697 0.929 . S
H762 C700 0.930 . S
H763 C703 0.929 . S
H764 C704 0.930 . S
H765 C708 0.962 . S
H766 C708 0.959 . S
H767 C708 0.958 . S
H768 C780 0.930 . S
H769 C782 0.930 . S
H770 C783 0.930 . S
H771 C787 0.959 . S
H772 C787 0.959 . S
H773 C787 0.961 . S
H774 C788 0.960 . S
H775 C788 0.961 . S
H776 C788 0.959 . S
H777 C791 0.929 . S
H778 C792 0.931 . S
H779 C794 0.930 . S
C780 H768 0.930 . S
C780 C781 1.399 . S
C780 C785 1.399 . S
C781 C780 1.399 . S
C781 C782 1.376 . S
C782 H769 0.930 . S
C782 C781 1.376 . S
C782 C783 1.388 . S
C783 H770 0.930 . S
C783 C782 1.388 . S
C783 C784 1.390 . S
C784 C783 1.390 . S
C784 C785 1.394 . S
C784 C790 1.465 . S
C785 C780 1.399 . S
C785 C784 1.394 . S
C785 C786 1.516 . S
C786 C785 1.516 . S
C786 C787 1.502 . S
C786 C788 1.561 . S
C786 C789 1.526 . S
C787 H771 0.959 . S
C787 H772 0.959 . S
C787 H773 0.961 . S
C787 C786 1.502 . S
C788 H774 0.960 . S
C788 H775 0.961 . S
C788 H776 0.959 . S
C788 C786 1.561 . S
C789 C786 1.526 . S
C789 C790 1.396 . S
C789 C794 1.390 . S
C790 C784 1.465 . S
C790 C789 1.396 . S
C790 C791 1.399 . S
C791 H777 0.929 . S
C791 C790 1.399 . S
C791 C792 1.385 . S
C792 H778 0.931 . S
C792 C791 1.385 . S
C792 C793 1.389 . S
C793 C792 1.389 . S
C793 C794 1.387 . S
C794 H779 0.930 . S
C794 C789 1.390 . S
C794 C793 1.387 . S
H795 C807 0.930 . S
H796 C809 0.930 . S
H797 C810 0.930 . S
H798 C814 0.959 . S
H799 C814 0.959 . S
H800 C814 0.961 . S
H801 C815 0.960 1_565 S
H802 C815 0.962 1_565 S
H803 C815 0.959 . S
H804 C818 0.929 . S
H805 C819 0.931 . S
H806 C821 0.930 . S
C807 H795 0.930 . S
C807 C808 1.399 . S
C807 C812 1.399 . S
C808 C807 1.399 . S
C808 C809 1.376 . S
C809 H796 0.930 . S
C809 C808 1.376 . S
C809 C810 1.388 . S
C810 H797 0.930 . S
C810 C809 1.388 . S
C810 C811 1.390 . S
C811 C810 1.390 . S
C811 C812 1.394 . S
C811 C817 1.465 . S
C812 C807 1.399 . S
C812 C811 1.394 . S
C812 C813 1.516 . S
C813 C812 1.516 . S
C813 C814 1.502 . S
C813 C815 1.561 . S
C813 C816 1.526 . S
C814 H798 0.959 . S
C814 H799 0.959 . S
C814 H800 0.961 . S
C814 C813 1.502 . S
C815 H801 0.960 1_545 S
C815 H802 0.962 1_545 S
C815 H803 0.959 . S
C815 C813 1.561 . S
C816 C813 1.526 . S
C816 C817 1.396 . S
C816 C821 1.390 . S
C817 C811 1.465 . S
C817 C816 1.396 . S
C817 C818 1.399 . S
C818 H804 0.929 . S
C818 C817 1.399 . S
C818 C819 1.385 . S
C819 H805 0.931 . S
C819 C818 1.385 . S
C819 C820 1.389 . S
C820 C819 1.389 . S
C820 C821 1.387 . S
C821 H806 0.930 . S
C821 C816 1.390 . S
C821 C820 1.387 . S
H822 C834 0.930 . S
H823 C836 0.930 . S
H824 C837 0.930 . S
H825 C841 0.959 . S
H826 C841 0.959 . S
H827 C841 0.961 . S
H828 C842 0.960 . S
H829 C842 0.961 . S
H830 C842 0.959 . S
H831 C845 0.929 . S
H832 C846 0.931 . S
H833 C848 0.930 . S
C834 H822 0.930 . S
C834 C835 1.399 . S
C834 C839 1.399 . S
C835 C834 1.399 . S
C835 C836 1.376 . S
C836 H823 0.930 . S
C836 C835 1.376 . S
C836 C837 1.388 . S
C837 H824 0.930 . S
C837 C836 1.388 . S
C837 C838 1.390 . S
C838 C837 1.390 . S
C838 C839 1.394 . S
C838 C844 1.465 . S
C839 C834 1.399 . S
C839 C838 1.394 . S
C839 C840 1.516 . S
C840 C839 1.516 . S
C840 C841 1.502 . S
C840 C842 1.561 . S
C840 C843 1.526 . S
C841 H825 0.959 . S
C841 H826 0.959 . S
C841 H827 0.961 . S
C841 C840 1.502 . S
C842 H828 0.960 . S
C842 H829 0.961 . S
C842 H830 0.959 . S
C842 C840 1.561 . S
C843 C840 1.526 . S
C843 C844 1.396 . S
C843 C848 1.390 . S
C844 C838 1.465 . S
C844 C843 1.396 . S
C844 C845 1.399 . S
C845 H831 0.929 . S
C845 C844 1.399 . S
C845 C846 1.385 . S
C846 H832 0.931 . S
C846 C845 1.385 . S
C846 C847 1.389 . S
C847 C846 1.389 . S
C847 C848 1.387 . S
C848 H833 0.930 . S
C848 C843 1.390 . S
C848 C847 1.387 . S
H849 C861 0.930 . S
H850 C863 0.930 . S
H851 C864 0.930 . S
H852 C868 0.959 . S
H853 C868 0.959 . S
H854 C868 0.961 . S
H855 C869 0.960 . S
H856 C869 0.961 . S
H857 C869 0.959 . S
H858 C872 0.929 . S
H859 C873 0.931 . S
H860 C875 0.930 . S
C861 H849 0.930 . S
C861 C862 1.399 . S
C861 C866 1.399 . S
C862 C861 1.399 . S
C862 C863 1.376 . S
C863 H850 0.930 . S
C863 C862 1.376 . S
C863 C864 1.388 . S
C864 H851 0.930 . S
C864 C863 1.388 . S
C864 C865 1.390 . S
C865 C864 1.390 . S
C865 C866 1.394 . S
C865 C871 1.465 . S
C866 C861 1.399 . S
C866 C865 1.394 . S
C866 C867 1.516 . S
C867 C866 1.516 . S
C867 C868 1.502 . S
C867 C869 1.561 . S
C867 C870 1.526 . S
C868 H852 0.959 . S
C868 H853 0.959 . S
C868 H854 0.961 . S
C868 C867 1.502 . S
C869 H855 0.960 . S
C869 H856 0.961 . S
C869 H857 0.959 . S
C869 C867 1.561 . S
C870 C867 1.526 . S
C870 C871 1.396 . S
C870 C875 1.390 . S
C871 C865 1.465 . S
C871 C870 1.396 . S
C871 C872 1.399 . S
C872 H858 0.929 . S
C872 C871 1.399 . S
C872 C873 1.385 . S
C873 H859 0.931 . S
C873 C872 1.385 . S
C873 C874 1.389 . S
C874 C873 1.389 . S
C874 C875 1.387 . S
C875 H860 0.930 . S
C875 C870 1.390 . S
C875 C874 1.387 . S
H876 C888 0.930 . S
H877 C890 0.930 . S
H878 C891 0.930 . S
H879 C895 0.959 . S
H880 C895 0.959 . S
H881 C895 0.961 . S
H882 C896 0.960 . S
H883 C896 0.961 . S
H884 C896 0.959 . S
H885 C899 0.929 . S
H886 C900 0.931 . S
H887 C902 0.930 . S
C888 H876 0.930 . S
C888 C889 1.399 . S
C888 C893 1.399 . S
C889 C888 1.399 . S
C889 C890 1.376 . S
C890 H877 0.930 . S
C890 C889 1.376 . S
C890 C891 1.388 . S
C891 H878 0.930 . S
C891 C890 1.388 . S
C891 C892 1.390 . S
C892 C891 1.390 . S
C892 C893 1.394 . S
C892 C898 1.465 . S
C893 C888 1.399 . S
C893 C892 1.394 . S
C893 C894 1.516 . S
C894 C893 1.516 . S
C894 C895 1.502 . S
C894 C896 1.561 . S
C894 C897 1.526 . S
C895 H879 0.959 . S
C895 H880 0.959 . S
C895 H881 0.961 . S
C895 C894 1.502 . S
C896 H882 0.960 . S
C896 H883 0.961 . S
C896 H884 0.959 . S
C896 C894 1.561 . S
C897 C894 1.526 . S
C897 C898 1.396 . S
C897 C902 1.390 . S
C898 C892 1.465 . S
C898 C897 1.396 . S
C898 C899 1.399 . S
C899 H885 0.929 . S
C899 C898 1.399 . S
C899 C900 1.385 . S
C900 H886 0.931 . S
C900 C899 1.385 . S
C900 C901 1.389 . S
C901 C900 1.389 . S
C901 C902 1.387 . S
C902 H887 0.930 . S
C902 C897 1.390 . S
C902 C901 1.387 . S
H903 C915 0.930 . S
H904 C917 0.930 . S
H905 C918 0.930 . S
H906 C922 0.959 . S
H907 C922 0.959 . S
H908 C922 0.961 . S
H909 C923 0.960 . S
H910 C923 0.961 . S
H911 C923 0.959 . S
H912 C926 0.929 . S
H913 C927 0.931 . S
H914 C929 0.930 . S
C915 H903 0.930 . S
C915 C916 1.399 . S
C915 C920 1.399 . S
C916 C915 1.399 . S
C916 C917 1.376 . S
C917 H904 0.930 . S
C917 C916 1.376 . S
C917 C918 1.388 . S
C918 H905 0.930 . S
C918 C917 1.388 . S
C918 C919 1.390 . S
C919 C918 1.390 . S
C919 C920 1.394 . S
C919 C925 1.465 . S
C920 C915 1.399 . S
C920 C919 1.394 . S
C920 C921 1.516 . S
C921 C920 1.516 . S
C921 C922 1.502 . S
C921 C923 1.561 . S
C921 C924 1.526 . S
C922 H906 0.959 . S
C922 H907 0.959 . S
C922 H908 0.961 . S
C922 C921 1.502 . S
C923 H909 0.960 . S
C923 H910 0.961 . S
C923 H911 0.959 . S
C923 C921 1.561 . S
C924 C921 1.526 . S
C924 C925 1.396 . S
C924 C929 1.390 . S
C925 C919 1.465 . S
C925 C924 1.396 . S
C925 C926 1.399 . S
C926 H912 0.929 . S
C926 C925 1.399 . S
C926 C927 1.385 . S
C927 H913 0.931 . S
C927 C926 1.385 . S
C927 C928 1.389 . S
C928 C927 1.389 . S
C928 C929 1.387 . S
C929 H914 0.930 . S
C929 C924 1.390 . S
C929 C928 1.387 . S
H930 C942 0.930 . S
H931 C944 0.930 . S
H932 C945 0.930 . S
H933 C949 0.959 . S
H934 C949 0.959 . S
H935 C949 0.961 . S
H936 C950 0.925 1_545 S
H937 C950 0.964 1_545 S
H938 C950 0.967 1_545 S
H939 C953 0.929 . S
H940 C954 0.931 . S
H941 C956 0.930 . S
C942 H930 0.930 . S
C942 C943 1.399 . S
C942 C947 1.399 . S
C943 C942 1.399 . S
C943 C944 1.376 . S
C944 H931 0.930 . S
C944 C943 1.376 . S
C944 C945 1.388 . S
C945 H932 0.930 . S
C945 C944 1.388 . S
C945 C946 1.390 . S
C946 C945 1.390 . S
C946 C947 1.394 . S
C946 C952 1.465 . S
C947 C942 1.399 . S
C947 C946 1.394 . S
C947 C948 1.516 . S
C948 C947 1.516 . S
C948 C949 1.502 . S
C948 C950 1.587 . S
C948 C951 1.526 . S
C949 H933 0.959 . S
C949 H934 0.959 . S
C949 H935 0.961 . S
C949 C948 1.502 . S
C950 H936 0.925 1_565 S
C950 H937 0.964 1_565 S
C950 H938 0.967 1_565 S
C950 C948 1.587 . S
C951 C948 1.526 . S
C951 C952 1.396 . S
C951 C956 1.390 . S
C952 C946 1.465 . S
C952 C951 1.396 . S
C952 C953 1.399 . S
C953 H939 0.929 . S
C953 C952 1.399 . S
C953 C954 1.385 . S
C954 H940 0.931 . S
C954 C953 1.385 . S
C954 C955 1.389 . S
C955 C954 1.389 . S
C955 C956 1.387 . S
C956 H941 0.930 . S
C956 C951 1.390 . S
C956 C955 1.387 . S
H957 C969 0.930 . S
H958 C971 0.930 . S
H959 C972 0.930 . S
H960 C976 0.959 . S
H961 C976 0.959 . S
H962 C976 0.961 . S
H963 C977 0.960 . S
H964 C977 0.961 . S
H965 C977 0.959 . S
H966 C980 0.929 . S
H967 C981 0.931 . S
H968 C983 0.930 . S
C969 H957 0.930 . S
C969 C970 1.399 . S
C969 C974 1.399 . S
C970 C969 1.399 . S
C970 C971 1.376 . S
C971 H958 0.930 . S
C971 C970 1.376 . S
C971 C972 1.388 . S
C972 H959 0.930 . S
C972 C971 1.388 . S
C972 C973 1.390 . S
C973 C972 1.390 . S
C973 C974 1.394 . S
C973 C979 1.465 . S
C974 C969 1.399 . S
C974 C973 1.394 . S
C974 C975 1.516 . S
C975 C974 1.516 . S
C975 C976 1.502 . S
C975 C977 1.561 . S
C975 C978 1.526 . S
C976 H960 0.959 . S
C976 H961 0.959 . S
C976 H962 0.961 . S
C976 C975 1.502 . S
C977 H963 0.960 . S
C977 H964 0.961 . S
C977 H965 0.959 . S
C977 C975 1.561 . S
C978 C975 1.526 . S
C978 C979 1.396 . S
C978 C983 1.390 . S
C979 C973 1.465 . S
C979 C978 1.396 . S
C979 C980 1.399 . S
C980 H966 0.929 . S
C980 C979 1.399 . S
C980 C981 1.385 . S
C981 H967 0.931 . S
C981 C980 1.385 . S
C981 C982 1.389 . S
C982 C981 1.389 . S
C982 C983 1.387 . S
C983 H968 0.930 . S
C983 C978 1.390 . S
C983 C982 1.387 . S
H984 C996 0.930 . S
H985 C998 0.930 . S
H986 C999 0.930 . S
H987 C1003 0.959 . S
H988 C1003 0.959 . S
H989 C1003 0.961 . S
H990 C1004 0.960 . S
H991 C1004 0.961 . S
H992 C1004 0.959 . S
H993 C1007 0.929 . S
H994 C1008 0.931 . S
H995 C1010 0.930 . S
C996 H984 0.930 . S
C996 C997 1.399 . S
C996 C1001 1.399 . S
C997 C996 1.399 . S
C997 C998 1.376 . S
C998 H985 0.930 . S
C998 C997 1.376 . S
C998 C999 1.388 . S
C999 H986 0.930 . S
C999 C998 1.388 . S
C999 C1000 1.390 . S
C1000 C999 1.390 . S
C1000 C1001 1.394 . S
C1000 C1006 1.465 . S
C1001 C996 1.399 . S
C1001 C1000 1.394 . S
C1001 C1002 1.516 . S
C1002 C1001 1.516 . S
C1002 C1003 1.502 . S
C1002 C1004 1.561 . S
C1002 C1005 1.526 . S
C1003 H987 0.959 . S
C1003 H988 0.959 . S
C1003 H989 0.961 . S
C1003 C1002 1.502 . S
C1004 H990 0.960 . S
C1004 H991 0.961 . S
C1004 H992 0.959 . S
C1004 C1002 1.561 . S
C1005 C1002 1.526 . S
C1005 C1006 1.396 . S
C1005 C1010 1.390 . S
C1006 C1000 1.465 . S
C1006 C1005 1.396 . S
C1006 C1007 1.399 . S
C1007 H993 0.929 . S
C1007 C1006 1.399 . S
C1007 C1008 1.385 . S
C1008 H994 0.931 . S
C1008 C1007 1.385 . S
C1008 C1009 1.389 . S
C1009 C1008 1.389 . S
C1009 C1010 1.387 . S
C1010 H995 0.930 . S
C1010 C1005 1.390 . S
C1010 C1009 1.387 . S
H1011 C1023 0.930 . S
H1012 C1025 0.930 1_554 S
H1013 C1026 0.930 . S
H1014 C1030 0.959 . S
H1015 C1030 0.959 . S
H1016 C1030 0.961 . S
H1017 C1031 0.960 . S
H1018 C1031 0.961 . S
H1019 C1031 0.959 . S
H1020 C1034 0.929 . S
H1021 C1035 0.931 . S
H1022 C1037 0.930 . S
C1023 H1011 0.930 . S
C1023 C1024 1.399 . S
C1023 C1028 1.399 . S
C1024 C1023 1.399 . S
C1024 C1025 1.376 . S
C1025 H1012 0.930 1_556 S
C1025 C1024 1.376 . S
C1025 C1026 1.388 . S
C1026 H1013 0.930 . S
C1026 C1025 1.388 . S
C1026 C1027 1.390 . S
C1027 C1026 1.390 . S
C1027 C1028 1.394 . S
C1027 C1033 1.465 . S
C1028 C1023 1.399 . S
C1028 C1027 1.394 . S
C1028 C1029 1.516 . S
C1029 C1028 1.516 . S
C1029 C1030 1.502 . S
C1029 C1031 1.561 . S
C1029 C1032 1.526 . S
C1030 H1014 0.959 . S
C1030 H1015 0.959 . S
C1030 H1016 0.961 . S
C1030 C1029 1.502 . S
C1031 H1017 0.960 . S
C1031 H1018 0.961 . S
C1031 H1019 0.959 . S
C1031 C1029 1.561 . S
C1032 C1029 1.526 . S
C1032 C1033 1.396 . S
C1032 C1037 1.390 . S
C1033 C1027 1.465 . S
C1033 C1032 1.396 . S
C1033 C1034 1.399 . S
C1034 H1020 0.929 . S
C1034 C1033 1.399 . S
C1034 C1035 1.385 . S
C1035 H1021 0.931 . S
C1035 C1034 1.385 . S
C1035 C1036 1.389 . S
C1036 C1035 1.389 . S
C1036 C1037 1.387 . S
C1037 H1022 0.930 . S
C1037 C1032 1.390 . S
C1037 C1036 1.387 . S
H1038 C1050 0.930 . S
H1039 C1052 0.930 . S
H1040 C1053 0.930 . S
H1041 C1057 0.959 . S
H1042 C1057 0.959 . S
H1043 C1057 0.961 . S
H1044 C1058 0.960 . S
H1045 C1058 0.961 . S
H1046 C1058 0.959 . S
H1047 C1061 0.929 . S
H1048 C1062 0.931 . S
H1049 C1064 0.930 . S
C1050 H1038 0.930 . S
C1050 C1051 1.399 . S
C1050 C1055 1.399 . S
C1051 C1050 1.399 . S
C1051 C1052 1.376 . S
C1052 H1039 0.930 . S
C1052 C1051 1.376 . S
C1052 C1053 1.388 . S
C1053 H1040 0.930 . S
C1053 C1052 1.388 . S
C1053 C1054 1.390 . S
C1054 C1053 1.390 . S
C1054 C1055 1.394 . S
C1054 C1060 1.465 . S
C1055 C1050 1.399 . S
C1055 C1054 1.394 . S
C1055 C1056 1.516 . S
C1056 C1055 1.516 . S
C1056 C1057 1.502 . S
C1056 C1058 1.561 . S
C1056 C1059 1.526 . S
C1057 H1041 0.959 . S
C1057 H1042 0.959 . S
C1057 H1043 0.961 . S
C1057 C1056 1.502 . S
C1058 H1044 0.960 . S
C1058 H1045 0.961 . S
C1058 H1046 0.959 . S
C1058 C1056 1.561 . S
C1059 C1056 1.526 . S
C1059 C1060 1.396 . S
C1059 C1064 1.390 . S
C1060 C1054 1.465 . S
C1060 C1059 1.396 . S
C1060 C1061 1.399 . S
C1061 H1047 0.929 . S
C1061 C1060 1.399 . S
C1061 C1062 1.385 . S
C1062 H1048 0.931 . S
C1062 C1061 1.385 . S
C1062 C1063 1.389 . S
C1063 C1062 1.389 . S
C1063 C1064 1.387 . S
C1064 H1049 0.930 . S
C1064 C1059 1.390 . S
C1064 C1063 1.387 . S
H1065 C1077 0.930 . S
H1066 C1079 0.930 . S
H1067 C1080 0.930 . S
H1068 C1084 0.959 1_455 S
H1069 C1084 0.959 . S
H1070 C1084 0.961 . S
H1071 C1085 0.960 . S
H1072 C1085 0.961 . S
H1073 C1085 0.959 . S
H1074 C1088 0.929 . S
H1075 C1089 0.931 . S
H1076 C1091 0.930 . S
C1077 H1065 0.930 . S
C1077 C1078 1.399 . S
C1077 C1082 1.399 . S
C1078 C1077 1.399 . S
C1078 C1079 1.376 . S
C1079 H1066 0.930 . S
C1079 C1078 1.376 . S
C1079 C1080 1.388 . S
C1080 H1067 0.930 . S
C1080 C1079 1.388 . S
C1080 C1081 1.390 . S
C1081 C1080 1.390 . S
C1081 C1082 1.394 . S
C1081 C1087 1.465 . S
C1082 C1077 1.399 . S
C1082 C1081 1.394 . S
C1082 C1083 1.516 . S
C1083 C1082 1.516 . S
C1083 C1084 1.502 . S
C1083 C1085 1.561 . S
C1083 C1086 1.526 . S
C1084 H1068 0.959 1_655 S
C1084 H1069 0.959 . S
C1084 H1070 0.961 . S
C1084 C1083 1.502 . S
C1085 H1071 0.960 . S
C1085 H1072 0.961 . S
C1085 H1073 0.959 . S
C1085 C1083 1.561 . S
C1086 C1083 1.526 . S
C1086 C1087 1.396 . S
C1086 C1091 1.390 . S
C1087 C1081 1.465 . S
C1087 C1086 1.396 . S
C1087 C1088 1.399 . S
C1088 H1074 0.929 . S
C1088 C1087 1.399 . S
C1088 C1089 1.385 . S
C1089 H1075 0.931 . S
C1089 C1088 1.385 . S
C1089 C1090 1.389 . S
C1090 C1089 1.389 . S
C1090 C1091 1.387 . S
C1091 H1076 0.930 . S
C1091 C1086 1.390 . S
C1091 C1090 1.387 . S
H1092 C1104 0.955 . S
H1093 C1106 0.930 . S
H1094 C1107 0.930 . S
H1095 C1111 0.959 . S
H1096 C1111 0.959 . S
H1097 C1111 0.961 . S
H1098 C1112 0.960 . S
H1099 C1112 0.961 . S
H1100 C1112 0.959 1_655 S
H1101 C1115 0.929 . S
H1102 C1116 0.931 . S
H1103 C1118 0.930 . S
C1104 H1092 0.955 . S
C1104 C1105 1.396 1_455 S
C1104 C1109 1.377 1_455 S
C1105 C1104 1.396 1_655 S
C1105 C1106 1.376 . S
C1106 H1093 0.930 . S
C1106 C1105 1.376 . S
C1106 C1107 1.388 . S
C1107 H1094 0.930 . S
C1107 C1106 1.388 . S
C1107 C1108 1.390 . S
C1108 C1107 1.390 . S
C1108 C1109 1.394 . S
C1108 C1114 1.465 . S
C1109 C1104 1.377 1_655 S
C1109 C1108 1.394 . S
C1109 C1110 1.516 . S
C1110 C1109 1.516 . S
C1110 C1111 1.502 1_655 S
C1110 C1112 1.561 1_655 S
C1110 C1113 1.526 . S
C1111 H1095 0.959 . S
C1111 H1096 0.959 . S
C1111 H1097 0.961 . S
C1111 C1110 1.502 1_455 S
C1112 H1098 0.960 . S
C1112 H1099 0.961 . S
C1112 H1100 0.959 1_455 S
C1112 C1110 1.561 1_455 S
C1113 C1110 1.526 . S
C1113 C1114 1.396 . S
C1113 C1118 1.390 . S
C1114 C1108 1.465 . S
C1114 C1113 1.396 . S
C1114 C1115 1.399 . S
C1115 H1101 0.929 . S
C1115 C1114 1.399 . S
C1115 C1116 1.385 . S
C1116 H1102 0.931 . S
C1116 C1115 1.385 . S
C1116 C1117 1.389 . S
C1117 C1116 1.389 . S
C1117 C1118 1.387 . S
C1118 H1103 0.930 . S
C1118 C1113 1.390 . S
C1118 C1117 1.387 . S
H1119 C1131 0.933 . S
H1120 C1133 0.930 . S
H1121 C1134 0.930 . S
H1122 C1138 0.959 1_565 S
H1123 C1138 0.959 . S
H1124 C1138 0.961 . S
H1125 C1139 0.960 1_545 S
H1126 C1139 0.953 1_545 S
H1127 C1139 0.959 . S
H1128 C1142 0.929 . S
H1129 C1143 0.931 . S
H1130 C1145 0.930 . S
C1131 H1119 0.933 . S
C1131 C1132 1.399 . S
C1131 C1136 1.399 . S
C1132 C1131 1.399 . S
C1132 C1133 1.376 . S
C1133 H1120 0.930 . S
C1133 C1132 1.376 . S
C1133 C1134 1.388 . S
C1134 H1121 0.930 . S
C1134 C1133 1.388 . S
C1134 C1135 1.390 . S
C1135 C1134 1.390 . S
C1135 C1136 1.394 . S
C1135 C1141 1.465 . S
C1136 C1131 1.399 . S
C1136 C1135 1.394 . S
C1136 C1137 1.516 . S
C1137 C1136 1.516 . S
C1137 C1138 1.502 1_565 S
C1137 C1139 1.561 . S
C1137 C1140 1.526 . S
C1138 H1122 0.959 1_545 S
C1138 H1123 0.959 . S
C1138 H1124 0.961 . S
C1138 C1137 1.502 1_545 S
C1139 H1125 0.960 1_565 S
C1139 H1126 0.953 1_565 S
C1139 H1127 0.959 . S
C1139 C1137 1.561 . S
C1140 C1137 1.526 . S
C1140 C1141 1.396 . S
C1140 C1145 1.390 . S
C1141 C1135 1.465 . S
C1141 C1140 1.396 . S
C1141 C1142 1.399 . S
C1142 H1128 0.929 . S
C1142 C1141 1.399 . S
C1142 C1143 1.385 . S
C1143 H1129 0.931 . S
C1143 C1142 1.385 . S
C1143 C1144 1.389 . S
C1144 C1143 1.389 . S
C1144 C1145 1.387 . S
C1145 H1130 0.930 . S
C1145 C1140 1.390 . S
C1145 C1144 1.387 . S
H1146 C1158 0.930 . S
H1147 C1160 0.930 . S
H1148 C1161 0.930 . S
H1149 C1165 0.959 . S
H1150 C1165 0.959 . S
H1151 C1165 0.961 . S
H1152 C1166 0.960 . S
H1153 C1166 0.961 . S
H1154 C1166 0.959 . S
H1155 C1169 0.929 . S
H1156 C1170 0.931 . S
H1157 C1172 0.930 . S
C1158 H1146 0.930 . S
C1158 C1159 1.399 . S
C1158 C1163 1.399 . S
C1159 C1158 1.399 . S
C1159 C1160 1.376 . S
C1160 H1147 0.930 . S
C1160 C1159 1.376 . S
C1160 C1161 1.388 . S
C1161 H1148 0.930 . S
C1161 C1160 1.388 . S
C1161 C1162 1.390 . S
C1162 C1161 1.390 . S
C1162 C1163 1.394 . S
C1162 C1168 1.465 . S
C1163 C1158 1.399 . S
C1163 C1162 1.394 . S
C1163 C1164 1.516 . S
C1164 C1163 1.516 . S
C1164 C1165 1.502 . S
C1164 C1166 1.561 . S
C1164 C1167 1.526 . S
C1165 H1149 0.959 . S
C1165 H1150 0.959 . S
C1165 H1151 0.961 . S
C1165 C1164 1.502 . S
C1166 H1152 0.960 . S
C1166 H1153 0.961 . S
C1166 H1154 0.959 . S
C1166 C1164 1.561 . S
C1167 C1164 1.526 . S
C1167 C1168 1.396 . S
C1167 C1172 1.390 . S
C1168 C1162 1.465 . S
C1168 C1167 1.396 . S
C1168 C1169 1.399 . S
C1169 H1155 0.929 . S
C1169 C1168 1.399 . S
C1169 C1170 1.385 . S
C1170 H1156 0.931 . S
C1170 C1169 1.385 . S
C1170 C1171 1.389 . S
C1171 C1170 1.389 . S
C1171 C1172 1.387 . S
C1172 H1157 0.930 . S
C1172 C1167 1.390 . S
C1172 C1171 1.387 . S
H1173 C1185 0.930 . S
H1174 C1187 0.930 . S
H1175 C1188 0.930 . S
H1176 C1192 0.959 . S
H1177 C1192 0.959 . S
H1178 C1192 0.961 . S
H1179 C1193 0.960 . S
H1180 C1193 0.961 . S
H1181 C1193 0.959 . S
H1182 C1196 0.929 . S
H1183 C1197 0.931 . S
H1184 C1199 0.930 . S
C1185 H1173 0.930 . S
C1185 C1186 1.399 . S
C1185 C1190 1.399 . S
C1186 C1185 1.399 . S
C1186 C1187 1.376 . S
C1187 H1174 0.930 . S
C1187 C1186 1.376 . S
C1187 C1188 1.388 . S
C1188 H1175 0.930 . S
C1188 C1187 1.388 . S
C1188 C1189 1.390 . S
C1189 C1188 1.390 . S
C1189 C1190 1.394 . S
C1189 C1195 1.465 . S
C1190 C1185 1.399 . S
C1190 C1189 1.394 . S
C1190 C1191 1.516 . S
C1191 C1190 1.516 . S
C1191 C1192 1.502 . S
C1191 C1193 1.561 . S
C1191 C1194 1.526 . S
C1192 H1176 0.959 . S
C1192 H1177 0.959 . S
C1192 H1178 0.961 . S
C1192 C1191 1.502 . S
C1193 H1179 0.960 . S
C1193 H1180 0.961 . S
C1193 H1181 0.959 . S
C1193 C1191 1.561 . S
C1194 C1191 1.526 . S
C1194 C1195 1.396 . S
C1194 C1199 1.390 . S
C1195 C1189 1.465 . S
C1195 C1194 1.396 . S
C1195 C1196 1.399 . S
C1196 H1182 0.929 . S
C1196 C1195 1.399 . S
C1196 C1197 1.385 . S
C1197 H1183 0.931 . S
C1197 C1196 1.385 . S
C1197 C1198 1.389 . S
C1198 C1197 1.389 . S
C1198 C1199 1.387 . S
C1199 H1184 0.930 . S
C1199 C1194 1.390 . S
C1199 C1198 1.387 . S
H1200 C1212 0.930 . S
H1201 C1214 0.930 . S
H1202 C1215 0.930 . S
H1203 C1219 0.959 . S
H1204 C1219 0.959 . S
H1205 C1219 0.961 1_565 S
H1206 C1220 0.960 . S
H1207 C1220 0.961 . S
H1208 C1220 0.959 . S
H1209 C1223 0.929 . S
H1210 C1224 0.931 . S
H1211 C1226 0.930 . S
C1212 H1200 0.930 . S
C1212 C1213 1.399 . S
C1212 C1217 1.399 . S
C1213 C1212 1.399 . S
C1213 C1214 1.376 . S
C1214 H1201 0.930 . S
C1214 C1213 1.376 . S
C1214 C1215 1.388 . S
C1215 H1202 0.930 . S
C1215 C1214 1.388 . S
C1215 C1216 1.390 . S
C1216 C1215 1.390 . S
C1216 C1217 1.394 . S
C1216 C1222 1.465 . S
C1217 C1212 1.399 . S
C1217 C1216 1.394 . S
C1217 C1218 1.516 . S
C1218 C1217 1.516 . S
C1218 C1219 1.502 . S
C1218 C1220 1.561 . S
C1218 C1221 1.526 . S
C1219 H1203 0.959 . S
C1219 H1204 0.959 . S
C1219 H1205 0.961 1_545 S
C1219 C1218 1.502 . S
C1220 H1206 0.960 . S
C1220 H1207 0.961 . S
C1220 H1208 0.959 . S
C1220 C1218 1.561 . S
C1221 C1218 1.526 . S
C1221 C1222 1.396 . S
C1221 C1226 1.390 . S
C1222 C1216 1.465 . S
C1222 C1221 1.396 . S
C1222 C1223 1.399 . S
C1223 H1209 0.929 . S
C1223 C1222 1.399 . S
C1223 C1224 1.385 . S
C1224 H1210 0.931 . S
C1224 C1223 1.385 . S
C1224 C1225 1.389 . S
C1225 C1224 1.389 . S
C1225 C1226 1.387 . S
C1226 H1211 0.930 . S
C1226 C1221 1.390 . S
C1226 C1225 1.387 . S
H1227 C1239 0.930 . S
H1228 C1241 0.930 . S
H1229 C1242 0.930 . S
H1230 C1246 0.959 . S
H1231 C1246 0.959 . S
H1232 C1246 0.961 . S
H1233 C1247 0.960 . S
H1234 C1247 0.961 . S
H1235 C1247 0.959 . S
H1236 C1250 0.929 . S
H1237 C1251 0.931 . S
H1238 C1253 0.930 . S
C1239 H1227 0.930 . S
C1239 C1240 1.399 . S
C1239 C1244 1.399 . S
C1240 C1239 1.399 . S
C1240 C1241 1.376 . S
C1241 H1228 0.930 . S
C1241 C1240 1.376 . S
C1241 C1242 1.388 . S
C1242 H1229 0.930 . S
C1242 C1241 1.388 . S
C1242 C1243 1.390 . S
C1243 C1242 1.390 . S
C1243 C1244 1.394 . S
C1243 C1249 1.465 . S
C1244 C1239 1.399 . S
C1244 C1243 1.394 . S
C1244 C1245 1.516 . S
C1245 C1244 1.516 . S
C1245 C1246 1.502 . S
C1245 C1247 1.561 . S
C1245 C1248 1.526 . S
C1246 H1230 0.959 . S
C1246 H1231 0.959 . S
C1246 H1232 0.961 . S
C1246 C1245 1.502 . S
C1247 H1233 0.960 . S
C1247 H1234 0.961 . S
C1247 H1235 0.959 . S
C1247 C1245 1.561 . S
C1248 C1245 1.526 . S
C1248 C1249 1.396 . S
C1248 C1253 1.390 . S
C1249 C1243 1.465 . S
C1249 C1248 1.396 . S
C1249 C1250 1.399 . S
C1250 H1236 0.929 . S
C1250 C1249 1.399 . S
C1250 C1251 1.385 . S
C1251 H1237 0.931 . S
C1251 C1250 1.385 . S
C1251 C1252 1.389 . S
C1252 C1251 1.389 . S
C1252 C1253 1.387 . S
C1253 H1238 0.930 . S
C1253 C1248 1.390 . S
C1253 C1252 1.387 . S
H1254 C1266 0.930 . S
H1255 C1268 0.930 . S
H1256 C1269 0.930 . S
H1257 C1273 0.959 . S
H1258 C1273 0.959 . S
H1259 C1273 0.961 . S
H1260 C1274 0.960 . S
H1261 C1274 0.961 . S
H1262 C1274 0.959 . S
H1263 C1277 0.929 . S
H1264 C1278 0.931 . S
H1265 C1280 0.930 . S
C1266 H1254 0.930 . S
C1266 C1267 1.399 . S
C1266 C1271 1.399 . S
C1267 C1266 1.399 . S
C1267 C1268 1.376 . S
C1268 H1255 0.930 . S
C1268 C1267 1.376 . S
C1268 C1269 1.388 . S
C1269 H1256 0.930 . S
C1269 C1268 1.388 . S
C1269 C1270 1.390 . S
C1270 C1269 1.390 . S
C1270 C1271 1.394 . S
C1270 C1276 1.465 . S
C1271 C1266 1.399 . S
C1271 C1270 1.394 . S
C1271 C1272 1.516 . S
C1272 C1271 1.516 . S
C1272 C1273 1.502 . S
C1272 C1274 1.561 . S
C1272 C1275 1.526 . S
C1273 H1257 0.959 . S
C1273 H1258 0.959 . S
C1273 H1259 0.961 . S
C1273 C1272 1.502 . S
C1274 H1260 0.960 . S
C1274 H1261 0.961 . S
C1274 H1262 0.959 . S
C1274 C1272 1.561 . S
C1275 C1272 1.526 . S
C1275 C1276 1.396 . S
C1275 C1280 1.390 . S
C1276 C1270 1.465 . S
C1276 C1275 1.396 . S
C1276 C1277 1.399 . S
C1277 H1263 0.929 . S
C1277 C1276 1.399 . S
C1277 C1278 1.385 . S
C1278 H1264 0.931 . S
C1278 C1277 1.385 . S
C1278 C1279 1.389 . S
C1279 C1278 1.389 . S
C1279 C1280 1.387 . S
C1280 H1265 0.930 . S
C1280 C1275 1.390 . S
C1280 C1279 1.387 . S
H1281 C1293 0.930 . S
H1282 C1295 0.930 . S
H1283 C1296 0.930 . S
H1284 C1300 0.959 . S
H1285 C1300 0.959 . S
H1286 C1300 0.961 . S
H1287 C1301 0.960 . S
H1288 C1301 0.961 . S
H1289 C1301 0.959 . S
H1290 C1304 0.929 . S
H1291 C1305 0.931 . S
H1292 C1307 0.930 . S
C1293 H1281 0.930 . S
C1293 C1294 1.399 . S
C1293 C1298 1.399 . S
C1294 C1293 1.399 . S
C1294 C1295 1.376 . S
C1295 H1282 0.930 . S
C1295 C1294 1.376 . S
C1295 C1296 1.388 . S
C1296 H1283 0.930 . S
C1296 C1295 1.388 . S
C1296 C1297 1.390 . S
C1297 C1296 1.390 . S
C1297 C1298 1.394 . S
C1297 C1303 1.465 . S
C1298 C1293 1.399 . S
C1298 C1297 1.394 . S
C1298 C1299 1.516 . S
C1299 C1298 1.516 . S
C1299 C1300 1.502 . S
C1299 C1301 1.561 . S
C1299 C1302 1.526 . S
C1300 H1284 0.959 . S
C1300 H1285 0.959 . S
C1300 H1286 0.961 . S
C1300 C1299 1.502 . S
C1301 H1287 0.960 . S
C1301 H1288 0.961 . S
C1301 H1289 0.959 . S
C1301 C1299 1.561 . S
C1302 C1299 1.526 . S
C1302 C1303 1.396 . S
C1302 C1307 1.390 . S
C1303 C1297 1.465 . S
C1303 C1302 1.396 . S
C1303 C1304 1.399 . S
C1304 H1290 0.929 . S
C1304 C1303 1.399 . S
C1304 C1305 1.385 . S
C1305 H1291 0.931 . S
C1305 C1304 1.385 . S
C1305 C1306 1.389 . S
C1306 C1305 1.389 . S
C1306 C1307 1.387 . S
C1307 H1292 0.930 . S
C1307 C1302 1.390 . S
C1307 C1306 1.387 . S
H1308 C1320 0.930 . S
H1309 C1322 0.930 . S
H1310 C1323 0.930 . S
H1311 C1327 0.982 . S
H1312 C1327 0.959 . S
H1313 C1327 0.961 . S
H1314 C1328 0.960 . S
H1315 C1328 0.961 . S
H1316 C1328 0.959 . S
H1317 C1331 0.929 . S
H1318 C1332 0.931 . S
H1319 C1334 0.930 . S
C1320 H1308 0.930 . S
C1320 C1321 1.399 . S
C1320 C1325 1.399 . S
C1321 C1320 1.399 . S
C1321 C1322 1.376 . S
C1322 H1309 0.930 . S
C1322 C1321 1.376 . S
C1322 C1323 1.388 . S
C1323 H1310 0.930 . S
C1323 C1322 1.388 . S
C1323 C1324 1.390 . S
C1324 C1323 1.390 . S
C1324 C1325 1.394 . S
C1324 C1330 1.465 . S
C1325 C1320 1.399 . S
C1325 C1324 1.394 . S
C1325 C1326 1.516 . S
C1326 C1325 1.516 . S
C1326 C1327 1.502 . S
C1326 C1328 1.561 . S
C1326 C1329 1.526 . S
C1327 H1311 0.982 . S
C1327 H1312 0.959 . S
C1327 H1313 0.961 . S
C1327 C1326 1.502 . S
C1328 H1314 0.960 . S
C1328 H1315 0.961 . S
C1328 H1316 0.959 . S
C1328 C1326 1.561 . S
C1329 C1326 1.526 . S
C1329 C1330 1.396 . S
C1329 C1334 1.390 . S
C1330 C1324 1.465 . S
C1330 C1329 1.396 . S
C1330 C1331 1.399 . S
C1331 H1317 0.929 . S
C1331 C1330 1.399 . S
C1331 C1332 1.385 . S
C1332 H1318 0.931 . S
C1332 C1331 1.385 . S
C1332 C1333 1.389 . S
C1333 C1332 1.389 . S
C1333 C1334 1.387 . S
C1334 H1319 0.930 . S
C1334 C1329 1.390 . S
C1334 C1333 1.387 . S
H1335 C1347 0.930 . S
H1336 C1349 0.930 . S
H1337 C1350 0.930 . S
H1338 C1354 0.959 . S
H1339 C1354 0.959 . S
H1340 C1354 0.961 . S
H1341 C1355 0.960 . S
H1342 C1355 0.961 . S
H1343 C1355 0.959 . S
H1344 C1358 0.929 . S
H1345 C1359 0.931 . S
H1346 C1361 0.930 . S
C1347 H1335 0.930 . S
C1347 C1348 1.399 . S
C1347 C1352 1.399 . S
C1348 C1347 1.399 . S
C1348 C1349 1.376 . S
C1349 H1336 0.930 . S
C1349 C1348 1.376 . S
C1349 C1350 1.388 . S
C1350 H1337 0.930 . S
C1350 C1349 1.388 . S
C1350 C1351 1.390 . S
C1351 C1350 1.390 . S
C1351 C1352 1.394 . S
C1351 C1357 1.465 . S
C1352 C1347 1.399 . S
C1352 C1351 1.394 . S
C1352 C1353 1.516 . S
C1353 C1352 1.516 . S
C1353 C1354 1.502 . S
C1353 C1355 1.561 1_565 S
C1353 C1356 1.526 . S
C1354 H1338 0.959 . S
C1354 H1339 0.959 . S
C1354 H1340 0.961 . S
C1354 C1353 1.502 . S
C1355 H1341 0.960 . S
C1355 H1342 0.961 . S
C1355 H1343 0.959 . S
C1355 C1353 1.561 1_545 S
C1356 C1353 1.526 . S
C1356 C1357 1.396 . S
C1356 C1361 1.390 . S
C1357 C1351 1.465 . S
C1357 C1356 1.396 . S
C1357 C1358 1.399 . S
C1358 H1344 0.929 . S
C1358 C1357 1.399 . S
C1358 C1359 1.385 . S
C1359 H1345 0.931 . S
C1359 C1358 1.385 . S
C1359 C1360 1.389 . S
C1360 C1359 1.389 . S
C1360 C1361 1.387 . S
C1361 H1346 0.930 . S
C1361 C1356 1.390 . S
C1361 C1360 1.387 . S
H1362 C1374 0.930 . S
H1363 C1376 0.930 . S
H1364 C1377 0.930 . S
H1365 C1381 0.959 . S
H1366 C1381 0.959 . S
H1367 C1381 0.961 . S
H1368 C1382 0.960 . S
H1369 C1382 0.961 . S
H1370 C1382 0.959 . S
H1371 C1385 0.929 . S
H1372 C1386 0.931 . S
H1373 C1388 0.930 . S
C1374 H1362 0.930 . S
C1374 C1375 1.399 . S
C1374 C1379 1.399 . S
C1375 C1374 1.399 . S
C1375 C1376 1.376 . S
C1376 H1363 0.930 . S
C1376 C1375 1.376 . S
C1376 C1377 1.388 . S
C1377 H1364 0.930 . S
C1377 C1376 1.388 . S
C1377 C1378 1.390 . S
C1378 C1377 1.390 . S
C1378 C1379 1.394 . S
C1378 C1384 1.465 . S
C1379 C1374 1.399 . S
C1379 C1378 1.394 . S
C1379 C1380 1.516 . S
C1380 C1379 1.516 . S
C1380 C1381 1.502 . S
C1380 C1382 1.561 . S
C1380 C1383 1.526 . S
C1381 H1365 0.959 . S
C1381 H1366 0.959 . S
C1381 H1367 0.961 . S
C1381 C1380 1.502 . S
C1382 H1368 0.960 . S
C1382 H1369 0.961 . S
C1382 H1370 0.959 . S
C1382 C1380 1.561 . S
C1383 C1380 1.526 . S
C1383 C1384 1.396 . S
C1383 C1388 1.390 . S
C1384 C1378 1.465 . S
C1384 C1383 1.396 . S
C1384 C1385 1.399 . S
C1385 H1371 0.929 . S
C1385 C1384 1.399 . S
C1385 C1386 1.385 . S
C1386 H1372 0.931 . S
C1386 C1385 1.385 . S
C1386 C1387 1.389 . S
C1387 C1386 1.389 . S
C1387 C1388 1.387 . S
C1388 H1373 0.930 . S
C1388 C1383 1.390 . S
C1388 C1387 1.387 . S
H1389 C1401 0.930 . S
H1390 C1403 0.930 . S
H1391 C1404 0.930 . S
H1392 C1408 0.959 . S
H1393 C1408 0.959 . S
H1394 C1408 0.961 . S
H1395 C1409 0.960 . S
H1396 C1409 0.961 . S
H1397 C1409 0.959 . S
H1398 C1412 0.929 . S
H1399 C1413 0.931 . S
H1400 C1415 0.930 . S
C1401 H1389 0.930 . S
C1401 C1402 1.399 . S
C1401 C1406 1.399 . S
C1402 C1401 1.399 . S
C1402 C1403 1.376 . S
C1403 H1390 0.930 . S
C1403 C1402 1.376 . S
C1403 C1404 1.388 . S
C1404 H1391 0.930 . S
C1404 C1403 1.388 . S
C1404 C1405 1.390 . S
C1405 C1404 1.390 . S
C1405 C1406 1.394 . S
C1405 C1411 1.465 . S
C1406 C1401 1.399 . S
C1406 C1405 1.394 . S
C1406 C1407 1.516 . S
C1407 C1406 1.516 . S
C1407 C1408 1.502 . S
C1407 C1409 1.561 . S
C1407 C1410 1.526 . S
C1408 H1392 0.959 . S
C1408 H1393 0.959 . S
C1408 H1394 0.961 . S
C1408 C1407 1.502 . S
C1409 H1395 0.960 . S
C1409 H1396 0.961 . S
C1409 H1397 0.959 . S
C1409 C1407 1.561 . S
C1410 C1407 1.526 . S
C1410 C1411 1.396 . S
C1410 C1415 1.390 . S
C1411 C1405 1.465 . S
C1411 C1410 1.396 . S
C1411 C1412 1.399 . S
C1412 H1398 0.929 . S
C1412 C1411 1.399 . S
C1412 C1413 1.385 . S
C1413 H1399 0.931 . S
C1413 C1412 1.385 . S
C1413 C1414 1.389 . S
C1414 C1413 1.389 . S
C1414 C1415 1.387 . S
C1415 H1400 0.930 . S
C1415 C1410 1.390 . S
C1415 C1414 1.387 . S
C781 C13 1.936 . S
C793 C113 1.815 . S
C808 C27 1.932 . S
C820 C253 1.759 . S
C847 C341 1.724 . S
C835 C29 1.863 . S
C874 C481 1.695 . S
C862 C54 1.924 . S
C901 C595 1.674 . S
C889 C69 1.931 . S
C928 C665 1.100 . S
C916 C83 1.920 . S
C943 C15 1.916 . S
C955 C323 0.953 . S
C970 C41 1.843 . S
C982 C427 1.237 . S
C1009 C541 1.258 . S
C997 C42 1.844 . S
C1036 C683 1.754 . S
C1024 C57 1.867 . S
C1051 C71 2.014 . S
C1063 C95 1.028 . S
C1090 C199 1.301 . S
C1078 C1 1.807 1_655 S
C1117 C437 1.619 . S
C1105 C12 2.060 1_655 S
C1132 C26 2.072 . S
C1144 C551 1.648 . S
C1171 C709 1.305 . S
C1159 C28 2.117 . S
C1186 C55 1.933 . S
C1198 C85 1.679 . S
C1213 C68 2.173 . S
C1225 C209 1.679 . S
C1240 C82 1.916 . S
C1252 C313 1.766 . S
C1267 C14 1.967 . S
C1279 C655 1.753 . S
C1306 C139 1.255 . S
C1294 C40 2.039 . S
C1321 C43 2.008 . S
C1333 C227 1.419 . S
C1348 C56 2.079 . S
C1360 C367 1.181 . S
C1375 C70 1.956 . S
C1387 C455 1.437 . S
C1402 C0 2.020 . S
C1414 C569 1.378 . S
