# Generated by pormake.
# Topology pyr, (3,6)-cn, num edge types: 1
# Building blocks:
#     Node 0, Type 0, BuildingBlock: KAKCAD_clean_linker_0, # of connection points: 3
#     Node 1, Type 0, BuildingBlock: KAKCAD_clean_linker_0, # of connection points: 3
#     Node 2, Type 0, BuildingBlock: KAKCAD_clean_linker_0, # of connection points: 3
#     Node 3, Type 0, BuildingBlock: KAKCAD_clean_linker_0, # of connection points: 3
#     Node 4, Type 0, BuildingBlock: KAKCAD_clean_linker_0, # of connection points: 3
#     Node 5, Type 0, BuildingBlock: KAKCAD_clean_linker_0, # of connection points: 3
#     Node 6, Type 0, BuildingBlock: KAKCAD_clean_linker_0, # of connection points: 3
#     Node 7, Type 0, BuildingBlock: KAKCAD_clean_linker_0, # of connection points: 3
#     Node 8, Type 1, BuildingBlock: BETFEN_clean_sbu_0, # of connection points: 6
#     Node 9, Type 1, BuildingBlock: BETFEN_clean_sbu_0, # of connection points: 6
#     Node 10, Type 1, BuildingBlock: BETFEN_clean_sbu_0, # of connection points: 6
#     Node 11, Type 1, BuildingBlock: BETFEN_clean_sbu_0, # of connection points: 6
#     Edge 12, Type (0, 1), BuildingBlock: XIVTED_clean_linker_0, # of connection points: 2
#     Edge 13, Type (0, 1), BuildingBlock: XIVTED_clean_linker_0, # of connection points: 2
#     Edge 14, Type (0, 1), BuildingBlock: XIVTED_clean_linker_0, # of connection points: 2
#     Edge 15, Type (0, 1), BuildingBlock: XIVTED_clean_linker_0, # of connection points: 2
#     Edge 16, Type (0, 1), BuildingBlock: XIVTED_clean_linker_0, # of connection points: 2
#     Edge 17, Type (0, 1), BuildingBlock: XIVTED_clean_linker_0, # of connection points: 2
#     Edge 18, Type (0, 1), BuildingBlock: XIVTED_clean_linker_0, # of connection points: 2
#     Edge 19, Type (0, 1), BuildingBlock: XIVTED_clean_linker_0, # of connection points: 2
#     Edge 20, Type (0, 1), BuildingBlock: XIVTED_clean_linker_0, # of connection points: 2
#     Edge 21, Type (0, 1), BuildingBlock: XIVTED_clean_linker_0, # of connection points: 2
#     Edge 22, Type (0, 1), BuildingBlock: XIVTED_clean_linker_0, # of connection points: 2
#     Edge 23, Type (0, 1), BuildingBlock: XIVTED_clean_linker_0, # of connection points: 2
#     Edge 24, Type (0, 1), BuildingBlock: XIVTED_clean_linker_0, # of connection points: 2
#     Edge 25, Type (0, 1), BuildingBlock: XIVTED_clean_linker_0, # of connection points: 2
#     Edge 26, Type (0, 1), BuildingBlock: XIVTED_clean_linker_0, # of connection points: 2
#     Edge 27, Type (0, 1), BuildingBlock: XIVTED_clean_linker_0, # of connection points: 2
#     Edge 28, Type (0, 1), BuildingBlock: XIVTED_clean_linker_0, # of connection points: 2
#     Edge 29, Type (0, 1), BuildingBlock: XIVTED_clean_linker_0, # of connection points: 2
#     Edge 30, Type (0, 1), BuildingBlock: XIVTED_clean_linker_0, # of connection points: 2
#     Edge 31, Type (0, 1), BuildingBlock: XIVTED_clean_linker_0, # of connection points: 2
#     Edge 32, Type (0, 1), BuildingBlock: XIVTED_clean_linker_0, # of connection points: 2
#     Edge 33, Type (0, 1), BuildingBlock: XIVTED_clean_linker_0, # of connection points: 2
#     Edge 34, Type (0, 1), BuildingBlock: XIVTED_clean_linker_0, # of connection points: 2
#     Edge 35, Type (0, 1), BuildingBlock: XIVTED_clean_linker_0, # of connection points: 2
# Relax obj value: 0.131
# Max RMSD: 0.234
# Mean RMSD: 0.113
data_MOF--net-pyr--node1-BETFEN_clean_sbu_0--node2-KAKCAD_clean_linker_0--edge1-XIVTED_clean_linker_0
_symmetry_space_group_name_H-M    P1
_symmetry_Int_Tables_number       1
_symmetry_cell_setting            triclinic
loop_
_symmetry_equiv_pos_as_xyz
'x, y, z'
_cell_length_a     45.614397
_cell_length_b     50.201053
_cell_length_c     46.077416
_cell_angle_alpha  91.583765
_cell_angle_beta   97.675386
_cell_angle_gamma 108.75129
loop_
_atom_site_label
_atom_site_type_symbol
_atom_site_fract_x
_atom_site_fract_y
_atom_site_fract_z
_atom_type_partial_charge
C0 C 0.28666 0.31866 0.36151 0.0
C1 C 0.29405 0.29872 0.37925 0.0
C2 C 0.30535 0.33092 0.34067 0.0
C3 C 0.33243 0.32409 0.33739 0.0
C4 C 0.34146 0.30626 0.35715 0.0
C5 C 0.32237 0.29355 0.3777 0.0
C6 C 0.34813 0.33235 0.31101 0.0
C7 C 0.34773 0.35717 0.29786 0.0
C8 C 0.35325 0.36111 0.26869 0.0
C9 C 0.36335 0.34143 0.25407 0.0
C10 C 0.36661 0.31771 0.26785 0.0
C11 C 0.35858 0.31315 0.29609 0.0
C12 C 0.37495 0.29587 0.25171 0.0
C13 C 0.35989 0.28559 0.22305 0.0
C14 C 0.39665 0.28396 0.26552 0.0
C15 C 0.40278 0.26189 0.25114 0.0
C16 C 0.38709 0.25111 0.22279 0.0
C17 C 0.34389 0.38313 0.25237 0.0
C18 C 0.31781 0.39014 0.25882 0.0
C19 C 0.3586 0.39535 0.22864 0.0
C20 C 0.34662 0.413 0.21116 0.0
C21 C 0.32026 0.41935 0.21757 0.0
C22 C 0.30644 0.40821 0.24189 0.0
C23 C 0.36582 0.26337 0.20878 0.0
H24 H 0.26549 0.32376 0.36264 0.0
H25 H 0.2972 0.3443 0.32589 0.0
H26 H 0.3625 0.301 0.35583 0.0
H27 H 0.3289 0.27836 0.39106 0.0
H28 H 0.34114 0.37269 0.30981 0.0
H29 H 0.35826 0.29348 0.30536 0.0
H30 H 0.3674 0.34376 0.23152 0.0
H31 H 0.34278 0.29413 0.212 0.0
H32 H 0.40862 0.29154 0.28759 0.0
H33 H 0.41912 0.25272 0.26256 0.0
H34 H 0.30495 0.38063 0.27609 0.0
H35 H 0.37895 0.39085 0.22314 0.0
H36 H 0.35361 0.25566 0.18682 0.0
H37 H 0.28565 0.41226 0.24693 0.0
H38 H 0.35763 0.42138 0.19243 0.0
C39 C 0.30082 0.84397 0.80191 0.0
C40 C 0.33378 0.85393 0.80751 0.0
C41 C 0.28511 0.83313 0.77376 0.0
C42 C 0.30206 0.8317 0.75083 0.0
C43 C 0.33489 0.84122 0.75646 0.0
C44 C 0.35057 0.85235 0.78441 0.0
C45 C 0.28587 0.82114 0.72075 0.0
C46 C 0.26336 0.83214 0.70719 0.0
C47 C 0.25048 0.82452 0.67748 0.0
C48 C 0.26014 0.8054 0.66145 0.0
C49 C 0.28199 0.79365 0.67519 0.0
C50 C 0.2947 0.80164 0.70477 0.0
C51 C 0.29339 0.77426 0.65878 0.0
C52 C 0.2946 0.74913 0.67068 0.0
C53 C 0.30676 0.78237 0.63334 0.0
C54 C 0.32293 0.76652 0.62115 0.0
C55 C 0.32564 0.74218 0.63405 0.0
C56 C 0.22824 0.83787 0.66318 0.0
C57 C 0.20424 0.841 0.67775 0.0
C58 C 0.23209 0.84923 0.63588 0.0
C59 C 0.21301 0.8643 0.62389 0.0
C60 C 0.1896 0.86814 0.63889 0.0
C61 C 0.1851 0.85594 0.66572 0.0
C62 C 0.31046 0.73318 0.65838 0.0
H63 H 0.28713 0.84452 0.81925 0.0
H64 H 0.25974 0.82574 0.76991 0.0
H65 H 0.34849 0.84077 0.739 0.0
H66 H 0.37592 0.86044 0.78763 0.0
H67 H 0.2571 0.84778 0.71937 0.0
H68 H 0.31226 0.79323 0.71521 0.0
H69 H 0.25051 0.79946 0.6385 0.0
H70 H 0.28437 0.74246 0.69027 0.0
H71 H 0.30626 0.80178 0.62391 0.0
H72 H 0.33414 0.77376 0.6022 0.0
H73 H 0.20059 0.83226 0.69872 0.0
H74 H 0.25055 0.84732 0.62428 0.0
H75 H 0.31233 0.71467 0.66895 0.0
H76 H 0.16744 0.85869 0.67792 0.0
H77 H 0.21677 0.87318 0.603 0.0
C78 C 0.7298 0.4018 0.89147 0.0
C79 C 0.75025 0.38713 0.90162 0.0
C80 C 0.70042 0.38741 0.87513 0.0
C81 C 0.69101 0.35808 0.86832 0.0
C82 C 0.71198 0.34366 0.8778 0.0
C83 C 0.74111 0.35797 0.89438 0.0
C84 C 0.65922 0.34232 0.85207 0.0
C85 C 0.64538 0.35399 0.82899 0.0
C86 C 0.61508 0.3395 0.81394 0.0
C87 C 0.59913 0.31198 0.82156 0.0
C88 C 0.61305 0.2996 0.84437 0.0
C89 C 0.64261 0.31545 0.8598 0.0
C90 C 0.59762 0.27038 0.85306 0.0
C91 C 0.56559 0.26017 0.85561 0.0
C92 C 0.61599 0.2533 0.86152 0.0
C93 C 0.60344 0.22785 0.87403 0.0
C94 C 0.57172 0.21798 0.87787 0.0
C95 C 0.601 0.35382 0.79047 0.0
C96 C 0.60645 0.38304 0.79414 0.0
C97 C 0.58399 0.33934 0.76372 0.0
C98 C 0.57385 0.35396 0.74095 0.0
C99 C 0.5805 0.38346 0.74429 0.0
C100 C 0.59673 0.39761 0.77144 0.0
C101 C 0.55279 0.23427 0.86775 0.0
H102 H 0.73616 0.42427 0.89689 0.0
H103 H 0.6848 0.39918 0.8685 0.0
H104 H 0.70593 0.32122 0.8724 0.0
H105 H 0.75662 0.34619 0.90144 0.0
H106 H 0.65857 0.37439 0.82238 0.0
H107 H 0.65266 0.30692 0.87846 0.0
H108 H 0.57608 0.30033 0.80989 0.0
H109 H 0.55067 0.27266 0.84929 0.0
H110 H 0.6406 0.26003 0.85932 0.0
H111 H 0.61924 0.21657 0.88168 0.0
H112 H 0.61887 0.39495 0.81456 0.0
H113 H 0.57936 0.31688 0.76 0.0
H114 H 0.5281 0.2273 0.86953 0.0
H115 H 0.60293 0.42025 0.77512 0.0
H116 H 0.56097 0.34208 0.72067 0.0
C117 C 0.89739 0.59974 0.26255 0.0
C118 C 0.90687 0.61527 0.23842 0.0
C119 C 0.88684 0.61141 0.28559 0.0
C120 C 0.88551 0.63908 0.28542 0.0
C121 C 0.8949 0.65456 0.26124 0.0
C122 C 0.90533 0.64287 0.23818 0.0
C123 C 0.87469 0.65185 0.3103 0.0
C124 C 0.84972 0.63542 0.32432 0.0
C125 C 0.83967 0.64737 0.34765 0.0
C126 C 0.85427 0.67622 0.35627 0.0
C127 C 0.87906 0.69306 0.343 0.0
C128 C 0.88938 0.68068 0.32026 0.0
C129 C 0.89402 0.72344 0.35384 0.0
C130 C 0.87535 0.74038 0.35778 0.0
C131 C 0.9265 0.73501 0.36289 0.0
C132 C 0.93978 0.76246 0.37661 0.0
C133 C 0.92098 0.77923 0.38136 0.0
C134 C 0.81409 0.63047 0.36367 0.0
C135 C 0.78558 0.61189 0.34869 0.0
C136 C 0.81729 0.63474 0.39444 0.0
C137 C 0.79233 0.62216 0.4096 0.0
C138 C 0.76329 0.60469 0.39458 0.0
C139 C 0.76047 0.59912 0.36397 0.0
C140 C 0.88861 0.76785 0.37114 0.0
H141 H 0.89781 0.57835 0.2636 0.0
H142 H 0.88017 0.59878 0.3038 0.0
H143 H 0.89394 0.67577 0.25993 0.0
H144 H 0.91266 0.65576 0.22031 0.0
H145 H 0.83817 0.61333 0.31721 0.0
H146 H 0.90885 0.6936 0.31032 0.0
H147 H 0.8464 0.68574 0.3738 0.0
H148 H 0.85027 0.73218 0.3508 0.0
H149 H 0.94147 0.72241 0.36049 0.0
H150 H 0.96471 0.77009 0.38437 0.0
H151 H 0.78221 0.60817 0.32503 0.0
H152 H 0.83909 0.64835 0.40687 0.0
H153 H 0.8733 0.78011 0.37353 0.0
H154 H 0.73847 0.58579 0.35165 0.0
H155 H 0.79574 0.62639 0.4332 0.0
C156 C 0.73685 0.71398 0.68941 0.0
C157 C 0.75688 0.74203 0.69488 0.0
C158 C 0.71476 0.70254 0.70803 0.0
C159 C 0.712 0.71927 0.73184 0.0
C160 C 0.7315 0.74754 0.73659 0.0
C161 C 0.75376 0.75874 0.71841 0.0
C162 C 0.69095 0.70727 0.75344 0.0
C163 C 0.69304 0.6834 0.76744 0.0
C164 C 0.67917 0.67579 0.79279 0.0
C165 C 0.66224 0.69193 0.80356 0.0
C166 C 0.65948 0.71564 0.78937 0.0
C167 C 0.67322 0.7226 0.76388 0.0
C168 C 0.64601 0.73534 0.80299 0.0
C169 C 0.61862 0.72545 0.81591 0.0
C170 C 0.66135 0.76459 0.80378 0.0
C171 C 0.64945 0.78351 0.81669 0.0
C172 C 0.62198 0.77375 0.82939 0.0
C173 C 0.6874 0.65425 0.8104 0.0
C174 C 0.68693 0.62876 0.79669 0.0
C175 C 0.70041 0.661 0.84014 0.0
C176 C 0.71506 0.64379 0.85515 0.0
C177 C 0.71684 0.61939 0.84076 0.0
C178 C 0.70134 0.61141 0.81177 0.0
C179 C 0.60672 0.7445 0.82904 0.0
H180 H 0.73888 0.70078 0.67131 0.0
H181 H 0.70005 0.68065 0.70403 0.0
H182 H 0.73027 0.7608 0.75504 0.0
H183 H 0.76876 0.78051 0.72287 0.0
H184 H 0.708 0.67235 0.76026 0.0
H185 H 0.67159 0.74103 0.75292 0.0
H186 H 0.65282 0.68695 0.82388 0.0
H187 H 0.60628 0.70303 0.81563 0.0
H188 H 0.68304 0.77298 0.7949 0.0
H189 H 0.66225 0.80586 0.8173 0.0
H190 H 0.67676 0.62295 0.77385 0.0
H191 H 0.70145 0.68068 0.85119 0.0
H192 H 0.58545 0.73638 0.83864 0.0
H193 H 0.70164 0.59243 0.80023 0.0
H194 H 0.72695 0.6508 0.87734 0.0
C195 C 0.70713 0.14495 0.27439 0.0
C196 C 0.70046 0.16023 0.25079 0.0
C197 C 0.72733 0.15881 0.29961 0.0
C198 C 0.74129 0.18828 0.30179 0.0
C199 C 0.73549 0.2035 0.27779 0.0
C200 C 0.71534 0.18957 0.25243 0.0
C201 C 0.75977 0.20304 0.32992 0.0
C202 C 0.78078 0.19207 0.34626 0.0
C203 C 0.79513 0.20358 0.37475 0.0
C204 C 0.78911 0.22709 0.38657 0.0
C205 C 0.76827 0.23855 0.37027 0.0
C206 C 0.7539 0.2264 0.34194 0.0
C207 C 0.75829 0.26095 0.38345 0.0
C208 C 0.75052 0.25943 0.41203 0.0
C209 C 0.75242 0.28183 0.36611 0.0
C210 C 0.73678 0.29918 0.37612 0.0
C211 C 0.72712 0.29631 0.40385 0.0
C212 C 0.81454 0.18947 0.39246 0.0
C213 C 0.80381 0.15995 0.39277 0.0
C214 C 0.84409 0.2049 0.40806 0.0
C215 C 0.86304 0.19088 0.42275 0.0
C216 C 0.85259 0.16123 0.42229 0.0
C217 C 0.82261 0.14601 0.40742 0.0
C218 C 0.73517 0.27706 0.42219 0.0
H219 H 0.69628 0.12226 0.27355 0.0
H220 H 0.73106 0.14653 0.31786 0.0
H221 H 0.7461 0.22623 0.27885 0.0
H222 H 0.71052 0.20186 0.23457 0.0
H223 H 0.78551 0.17407 0.33695 0.0
H224 H 0.73642 0.23396 0.3299 0.0
H225 H 0.79974 0.23579 0.40872 0.0
H226 H 0.75444 0.24343 0.42586 0.0
H227 H 0.75868 0.2839 0.34421 0.0
H228 H 0.73129 0.31421 0.36178 0.0
H229 H 0.78093 0.14753 0.38129 0.0
H230 H 0.85288 0.22768 0.40816 0.0
H231 H 0.72787 0.27441 0.44366 0.0
H232 H 0.81393 0.12317 0.4063 0.0
H233 H 0.88592 0.2032 0.43428 0.0
C234 C 0.29217 0.63143 0.18944 0.0
C235 C 0.28869 0.62742 0.15863 0.0
C236 C 0.32159 0.64555 0.20589 0.0
C237 C 0.34806 0.6561 0.19184 0.0
C238 C 0.34477 0.65125 0.16122 0.0
C239 C 0.31552 0.637 0.14485 0.0
C240 C 0.37885 0.6733 0.20858 0.0
C241 C 0.39151 0.66436 0.23443 0.0
C242 C 0.42143 0.6801 0.24925 0.0
C243 C 0.4385 0.70558 0.23825 0.0
C244 C 0.42567 0.71513 0.21258 0.0
C245 C 0.39591 0.69873 0.19811 0.0
C246 C 0.44227 0.74214 0.20023 0.0
C247 C 0.45488 0.76767 0.2179 0.0
C248 C 0.44205 0.74297 0.1697 0.0
C249 C 0.45214 0.76865 0.15693 0.0
C250 C 0.46298 0.79433 0.17429 0.0
C251 C 0.43475 0.66861 0.27534 0.0
C252 C 0.41849 0.66224 0.29948 0.0
C253 C 0.46153 0.66067 0.27474 0.0
C254 C 0.47102 0.64553 0.2972 0.0
C255 C 0.45429 0.63853 0.32102 0.0
C256 C 0.42836 0.64767 0.32223 0.0
C257 C 0.46519 0.79353 0.20505 0.0
H258 H 0.27201 0.62456 0.20079 0.0
H259 H 0.32345 0.6491 0.22946 0.0
H260 H 0.36488 0.65868 0.14985 0.0
H261 H 0.31395 0.63367 0.12129 0.0
H262 H 0.37858 0.64452 0.24243 0.0
H263 H 0.38557 0.70607 0.1787 0.0
H264 H 0.46159 0.71776 0.24949 0.0
H265 H 0.45523 0.76777 0.24145 0.0
H266 H 0.43303 0.72367 0.15548 0.0
H267 H 0.45087 0.7684 0.13327 0.0
H268 H 0.39761 0.66792 0.30033 0.0
H269 H 0.47424 0.66501 0.25622 0.0
H270 H 0.47347 0.81293 0.21908 0.0
H271 H 0.41486 0.64245 0.34015 0.0
H272 H 0.49117 0.63889 0.29573 0.0
C273 C 0.15071 0.25934 0.6907 0.0
C274 C 0.11882 0.24908 0.67841 0.0
C275 C 0.16422 0.28667 0.70436 0.0
C276 C 0.14628 0.30462 0.70649 0.0
C277 C 0.11417 0.29416 0.69533 0.0
C278 C 0.10065 0.26683 0.68134 0.0
C279 C 0.1619 0.33477 0.71799 0.0
C280 C 0.18928 0.35059 0.70751 0.0
C281 C 0.20516 0.37893 0.71747 0.0
C282 C 0.19317 0.39169 0.73867 0.0
C283 C 0.1657 0.37626 0.74999 0.0
C284 C 0.15006 0.34782 0.73903 0.0
C285 C 0.15374 0.38947 0.77368 0.0
C286 C 0.1745 0.40717 0.79715 0.0
C287 C 0.1214 0.38403 0.77347 0.0
C288 C 0.11023 0.39581 0.79594 0.0
C289 C 0.13097 0.41326 0.81959 0.0
C290 C 0.23413 0.39445 0.70505 0.0
C291 C 0.25685 0.38148 0.70223 0.0
C292 C 0.23794 0.42069 0.69323 0.0
C293 C 0.26297 0.43286 0.67766 0.0
C294 C 0.28486 0.41911 0.67363 0.0
C295 C 0.2818 0.39361 0.68688 0.0
C296 C 0.16332 0.41875 0.81976 0.0
H297 H 0.16544 0.2463 0.68975 0.0
H298 H 0.18896 0.29393 0.71305 0.0
H299 H 0.09977 0.30752 0.69634 0.0
H300 H 0.07612 0.26001 0.67199 0.0
H301 H 0.19797 0.34084 0.69078 0.0
H302 H 0.12927 0.33547 0.74757 0.0
H303 H 0.20534 0.41355 0.74642 0.0
H304 H 0.19953 0.41171 0.79839 0.0
H305 H 0.10459 0.37075 0.75576 0.0
H306 H 0.08517 0.39079 0.795 0.0
H307 H 0.25494 0.36147 0.71145 0.0
H308 H 0.22076 0.43116 0.69481 0.0
H309 H 0.18015 0.43226 0.8373 0.0
H310 H 0.29854 0.38271 0.68512 0.0
H311 H 0.26438 0.45246 0.66778 0.0
Pr312 Pr 0.99435 0.99993 0.54536 0.0
Pr313 Pr 0.04669 0.02789 0.51526 0.0
C314 C 0.94854 0.96535 0.57133 0.0
C315 C 0.93632 0.93626 0.5801 0.0
C316 C 0.93551 0.93193 0.60995 0.0
C317 C 0.92144 0.90504 0.61881 0.0
C318 C 0.90764 0.88188 0.59796 0.0
C319 C 0.9092 0.88605 0.56808 0.0
C320 C 0.9235 0.91301 0.55921 0.0
C321 C 0.02472 0.05606 0.56856 0.0
C322 C 0.0601 0.98621 0.56246 0.0
C323 C 0.09279 0.06146 0.48883 0.0
C324 C 0.10795 0.09072 0.4818 0.0
C325 C 0.10931 0.09647 0.45233 0.0
C326 C 0.12641 0.12321 0.44503 0.0
C327 C 0.14272 0.14473 0.46711 0.0
C328 C 0.14063 0.13923 0.49664 0.0
C329 C 0.1233 0.11246 0.50395 0.0
C330 C 1.01595 0.97172 0.49221 0.0
C331 C 0.98141 0.04283 0.49941 0.0
O332 O 0.94535 0.96926 0.54331 0.0
O333 O 0.97507 0.98174 0.586 0.0
O334 O 0.03874 0.03926 0.56173 0.0
O335 O 0.99468 0.04375 0.56434 0.0
O336 O 0.07381 1.0103 0.55182 0.0
O337 O 0.02936 0.97537 0.55866 0.0
O338 O 0.09677 0.05559 0.51623 0.0
O339 O 0.06481 0.04784 0.47479 0.0
O340 O 1.0022 0.98877 0.49886 0.0
O341 O 0.04599 0.98382 0.49654 0.0
O342 O 0.96749 0.01861 0.50974 0.0
O343 O 1.0122 0.0533 0.50284 0.0
H344 H 0.94498 0.94953 0.62643 0.0
H345 H 0.92017 0.90264 0.64194 0.0
H346 H 0.89893 0.86856 0.55156 0.0
H347 H 0.92384 0.91568 0.536 0.0
H348 H 0.09791 0.07998 0.4349 0.0
H349 H 0.12793 0.12665 0.42209 0.0
H350 H 0.15273 0.15549 0.51408 0.0
H351 H 0.12261 0.10866 0.52691 0.0
Pr352 Pr 0.48003 0.0132 0.04198 0.0
Pr353 Pr 0.53557 1.008 1.02141 0.0
C354 C 0.43591 0.01833 0.07315 0.0
C355 C 0.43082 0.04081 0.09107 0.0
C356 C 0.40402 0.04846 0.08316 0.0
C357 C 0.39946 0.07064 0.09885 0.0
C358 C 0.42155 0.08554 0.12296 0.0
C359 C 0.44814 0.07748 0.13118 0.0
C360 C 0.45278 0.0554 0.11535 0.0
C361 C 0.50012 0.05115 0.99931 0.0
C362 C 0.54989 0.05159 0.07727 0.0
C363 C 0.57893 1.00158 0.99007 0.0
C364 C 0.58064 0.97759 0.97232 0.0
C365 C 0.55781 0.95098 0.97198 0.0
C366 C 0.55922 0.92805 0.95506 0.0
C367 C 0.58343 0.93138 0.93811 0.0
C368 C 0.60615 0.95819 0.93841 0.0
C369 C 0.60475 0.98112 0.95543 0.0
C370 C 0.51518 0.97027 0.06408 0.0
C371 C 0.46574 0.96915 0.98636 0.0
O372 O 0.45834 1.00874 0.08369 0.0
O373 O 0.43441 0.02126 0.04496 0.0
O374 O 0.51807 0.04613 1.02022 0.0
O375 O 0.47108 0.03705 1.00049 0.0
O376 O 0.56132 0.04752 0.05346 0.0
O377 O 0.52047 0.03793 0.07968 0.0
O378 O 0.55726 1.01207 0.97966 0.0
O379 O 0.58048 0.99882 1.01829 0.0
O380 O 0.49751 0.97496 0.0427 0.0
O381 O 0.54417 0.98529 0.06391 0.0
O382 O 0.45416 0.97386 1.00982 0.0
O383 O 0.49524 0.98241 0.98397 0.0
H384 H 0.38681 0.03755 0.06447 0.0
H385 H 0.37895 0.0765 0.0916 0.0
H386 H 0.46539 0.08818 0.14989 0.0
H387 H 0.47369 0.04995 0.12202 0.0
H388 H 0.53887 0.94799 0.98479 0.0
H389 H 0.54119 0.90778 0.955 0.0
H390 H 0.62527 0.96134 0.92583 0.0
H391 H 0.62251 1.00156 0.95547 0.0
Pr392 Pr 0.52634 0.54283 0.54313 0.0
Pr393 Pr 0.51486 0.47605 0.5157 0.0
C394 C 0.52169 0.59469 0.54682 0.0
C395 C 0.50858 0.61215 0.56347 0.0
C396 C 0.51135 0.63931 0.55507 0.0
C397 C 0.49408 0.6544 0.56653 0.0
C398 C 0.47368 0.64247 0.58658 0.0
C399 C 0.47237 0.61578 0.59618 0.0
C400 C 0.48963 0.60067 0.58462 0.0
C401 C 0.5432 0.50917 0.58589 0.0
C402 C 0.46215 0.4891 0.55403 0.0
C403 C 0.52162 0.42515 0.50927 0.0
C404 C 0.53938 0.41248 0.49219 0.0
C405 C 0.53081 0.38309 0.4877 0.0
C406 C 0.55025 0.37095 0.47513 0.0
C407 C 0.57868 0.38812 0.46731 0.0
C408 C 0.58647 0.41757 0.47069 0.0
C409 C 0.56688 0.42964 0.48286 0.0
C410 C 0.49772 0.51015 0.47345 0.0
C411 C 0.579 0.5297 0.5048 0.0
O412 O 0.50085 0.57324 0.53079 0.0
O413 O 0.54614 0.58896 0.55992 0.0
O414 O 0.5331 0.50278 0.55894 0.0
O415 O 0.54643 0.53566 0.59167 0.0
O416 O 0.47249 0.47002 0.54204 0.0
O417 O 0.47651 0.51681 0.55445 0.0
O418 O 0.5389 0.4449 0.52942 0.0
O419 O 0.49793 0.43111 0.49485 0.0
O420 O 0.5086 0.51619 0.50021 0.0
O421 O 0.49378 0.48359 0.46736 0.0
O422 O 0.56865 0.54872 0.51679 0.0
O423 O 0.56461 0.50204 0.50435 0.0
H424 H 0.52563 0.64828 0.53847 0.0
H425 H 0.4954 0.67471 0.55837 0.0
H426 H 0.45725 0.6062 0.61193 0.0
H427 H 0.48711 0.57957 0.59115 0.0
H428 H 0.50971 0.36955 0.49487 0.0
H429 H 0.54382 0.34818 0.47279 0.0
H430 H 0.60807 0.43124 0.4645 0.0
H431 H 0.57383 0.45238 0.48607 0.0
Pr432 Pr 1.01302 0.53615 1.00922 0.0
Pr433 Pr 0.02491 0.49285 0.04824 0.0
C434 C 0.99007 0.57034 0.97585 0.0
C435 C 0.95925 0.57184 0.96394 0.0
C436 C 0.95689 0.58929 0.94122 0.0
C437 C 0.92761 0.58989 0.92848 0.0
C438 C 0.90016 0.57301 0.93827 0.0
C439 C 0.90265 0.55574 0.96136 0.0
C440 C 0.93202 0.55506 0.97403 0.0
C441 C 0.07476 0.55189 0.03829 0.0
C442 C 0.99149 0.5341 0.07582 0.0
C443 C 0.0501 0.46004 0.08134 0.0
C444 C 0.08191 0.45922 0.09047 0.0
C445 C 0.10439 0.4656 0.07134 0.0
C446 C 0.13514 0.46663 0.08124 0.0
C447 C 0.14391 0.46179 0.11051 0.0
C448 C 0.12126 0.45531 0.12947 0.0
C449 C 0.09054 0.45398 0.1195 0.0
C450 C 0.96303 0.47693 1.01969 0.0
C451 C 0.04509 0.49416 0.98135 0.0
O452 O 0.99708 0.54929 0.96498 0.0
O453 O 0.99841 0.57505 1.00426 0.0
O454 O 0.05064 0.54014 0.04948 0.0
O455 O 0.06751 0.55804 1.01175 0.0
O456 O 1.01083 0.5198 0.08277 0.0
O457 O 0.98431 0.53885 0.04807 0.0
O458 O 0.04443 0.48183 0.09225 0.0
O459 O 0.03815 0.45329 0.05365 0.0
O460 O 0.98693 0.48877 1.00812 0.0
O461 O 0.97071 0.47057 0.04608 0.0
O462 O 0.025 0.50772 0.97453 0.0
O463 O 0.05343 0.49048 1.00919 0.0
H464 H 0.9777 0.60228 0.93315 0.0
H465 H 0.92646 0.60371 0.91102 0.0
H466 H 0.88189 0.54237 0.96919 0.0
H467 H 0.93349 0.54124 0.99142 0.0
H468 H 0.09834 0.47018 0.04893 0.0
H469 H 0.15219 0.4718 0.06625 0.0
H470 H 0.12728 0.45109 0.15202 0.0
H471 H 0.07358 0.44924 0.13461 0.0
H472 H 0.23044 0.278 0.36365 0.0
H473 H 0.20226 0.1751 0.49327 0.0
H474 H 0.30383 0.27826 0.43353 0.0
H475 H 0.13055 0.17639 0.42255 0.0
H476 H 0.23834 0.21689 0.47577 0.0
H477 H 0.19247 0.24525 0.38893 0.0
C478 C 0.23861 0.27166 0.38464 0.0
C479 C 0.27057 0.28104 0.39642 0.0
C480 C 0.21461 0.20822 0.46429 0.0
C481 C 0.22689 0.24251 0.4252 0.0
C482 C 0.19393 0.18447 0.47437 0.0
C483 C 0.16344 0.17208 0.45915 0.0
C484 C 0.2047 0.21961 0.4388 0.0
C485 C 0.15402 0.18495 0.43463 0.0
C486 C 0.21681 0.25264 0.39897 0.0
C487 C 0.27956 0.27132 0.42338 0.0
N488 N 0.17463 0.20785 0.4251 0.0
N489 N 0.25786 0.2524 0.43674 0.0
H490 H 0.3174 0.88765 0.84594 0.0
H491 H 0.48399 0.94232 0.94339 0.0
H492 H 0.38918 0.85051 0.83609 0.0
H493 H 0.40182 0.95014 0.97467 0.0
H494 H 0.45031 0.9108 0.90209 0.0
H495 H 0.34818 0.91243 0.89197 0.0
C496 C 0.33936 0.88432 0.85359 0.0
C497 C 0.35079 0.8671 0.83685 0.0
C498 C 0.43966 0.91923 0.91815 0.0
C499 C 0.38644 0.89605 0.88917 0.0
C500 C 0.45884 0.93732 0.9416 0.0
C501 C 0.44562 0.94893 0.96233 0.0
C502 C 0.40709 0.91317 0.91514 0.0
C503 C 0.41291 0.9416 0.95913 0.0
C504 C 0.35699 0.89862 0.87982 0.0
C505 C 0.37974 0.86408 0.8478 0.0
N506 N 0.39473 0.92441 0.93573 0.0
N507 N 0.39674 0.87868 0.87307 0.0
H508 H 0.57639 0.37283 0.68413 0.0
H509 H 0.56649 0.52282 0.64384 0.0
H510 H 0.56429 0.43191 0.74766 0.0
H511 H 0.52976 0.45135 0.58013 0.0
H512 H 0.57342 0.49123 0.68172 0.0
H513 H 0.56574 0.40209 0.64504 0.0
C514 C 0.57123 0.39168 0.69002 0.0
C515 C 0.5717 0.39983 0.71965 0.0
C516 C 0.56404 0.48245 0.65938 0.0
C517 C 0.56043 0.43393 0.67472 0.0
C518 C 0.56019 0.50048 0.63769 0.0
C519 C 0.54818 0.48981 0.6085 0.0
C520 C 0.55621 0.45344 0.65191 0.0
C521 C 0.54011 0.46061 0.602 0.0
C522 C 0.56536 0.40848 0.66759 0.0
C523 C 0.56523 0.42493 0.7255 0.0
N524 N 0.5445 0.44344 0.62344 0.0
N525 N 0.56027 0.44113 0.7034 0.0
H526 H 0.89775 0.62223 0.17878 0.0
H527 H 0.99973 0.52699 0.13504 0.0
H528 H 0.94273 0.57985 0.24137 0.0
H529 H 0.95262 0.56681 0.07143 0.0
H530 H 0.97888 0.54607 0.17393 0.0
H531 H 0.91755 0.60252 0.13942 0.0
C532 C 0.91189 0.60892 0.18441 0.0
C533 C 0.91847 0.60289 0.21379 0.0
C534 C 0.973 0.55064 0.15149 0.0
C535 C 0.94119 0.57982 0.16823 0.0
C536 C 0.98494 0.53969 0.12913 0.0
C537 C 0.97804 0.54519 0.09966 0.0
C538 C 0.95393 0.56742 0.14464 0.0
C539 C 0.95866 0.56189 0.0937 0.0
C540 C 0.92307 0.59749 0.16175 0.0
C541 C 0.93656 0.58497 0.21922 0.0
N542 N 0.94741 0.5724 0.11588 0.0
N543 N 0.94726 0.57423 0.19683 0.0
H544 H 0.34282 0.20446 0.1932 0.0
H545 H 0.4662 0.13562 0.14562 0.0
H546 H 0.44261 0.24173 0.21952 0.0
H547 H 0.36686 0.09091 0.13682 0.0
H548 H 0.45818 0.17562 0.17072 0.0
H549 H 0.35127 0.1639 0.16961 0.0
C550 C 0.36654 0.20417 0.19385 0.0
C551 C 0.39207 0.22653 0.20823 0.0
C552 C 0.43817 0.15701 0.16337 0.0
C553 C 0.40191 0.18009 0.18148 0.0
C554 C 0.44273 0.13405 0.14918 0.0
C555 C 0.41716 0.10977 0.13901 0.0
C556 C 0.40779 0.15582 0.16726 0.0
C557 C 0.38722 0.1093 0.1438 0.0
C558 C 0.37133 0.18092 0.18058 0.0
C559 C 0.42227 0.22484 0.20882 0.0
N560 N 0.38337 0.132 0.15747 0.0
N561 N 0.42637 0.20207 0.19552 0.0
H562 H 0.20968 0.9187 0.61441 0.0
H563 H 0.03986 0.93577 0.58707 0.0
H564 H 0.1266 0.85778 0.63734 0.0
H565 H 0.1238 0.99892 0.56857 0.0
H566 H 0.07133 0.90713 0.60602 0.0
H567 H 0.17851 0.94818 0.59701 0.0
C568 C 0.18481 0.91141 0.61554 0.0
C569 C 0.1707 0.8857 0.62728 0.0
C570 C 0.0829 0.92731 0.59794 0.0
C571 C 0.13495 0.91952 0.6078 0.0
C572 C 0.06494 0.94372 0.58716 0.0
C573 C 0.0792 0.96977 0.57613 0.0
C574 C 0.11535 0.93694 0.5976 0.0
C575 C 0.1118 0.97897 0.57684 0.0
C576 C 0.16708 0.92836 0.60584 0.0
C577 C 0.13849 0.87756 0.62871 0.0
N578 N 0.12875 0.96251 0.58726 0.0
N579 N 0.12171 0.89439 0.61905 0.0
H580 H 0.77522 0.37061 0.95233 0.0
H581 H 0.94176 0.49104 0.96592 0.0
H582 H 0.79463 0.43723 0.8933 0.0
H583 H 0.91156 0.43841 0.03596 0.0
H584 H 0.88897 0.47098 0.93785 0.0
H585 H 0.8262 0.39409 0.98203 0.0
C586 C 0.79029 0.39019 0.94561 0.0
C587 C 0.78077 0.4019 0.92023 0.0
C588 C 0.89387 0.46392 0.95941 0.0
C589 C 0.83923 0.42897 0.95416 0.0
C590 C 0.92397 0.47528 0.97536 0.0
C591 C 0.93102 0.46614 1.00315 0.0
C592 C 0.87085 0.44299 0.97118 0.0
C593 C 0.90712 0.44593 1.01453 0.0
C594 C 0.8193 0.40369 0.96266 0.0
C595 C 0.80104 0.42754 0.91279 0.0
N596 N 0.87819 0.43484 0.9984 0.0
N597 N 0.82945 0.44011 0.92953 0.0
H598 H 0.74555 0.63229 0.43776 0.0
H599 H 0.60214 0.49912 0.46868 0.0
H600 H 0.71851 0.55152 0.38871 0.0
H601 H 0.62015 0.5838 0.50563 0.0
H602 H 0.6466 0.5168 0.44193 0.0
H603 H 0.70186 0.61388 0.46508 0.0
C604 C 0.73056 0.61059 0.43281 0.0
C605 C 0.73603 0.59344 0.4109 0.0
C606 C 0.64087 0.5315 0.45595 0.0
C607 C 0.6854 0.57211 0.44229 0.0
C608 C 0.61552 0.52139 0.47144 0.0
C609 C 0.60721 0.53992 0.48966 0.0
C610 C 0.65838 0.56039 0.45872 0.0
C611 C 0.62549 0.56863 0.49194 0.0
C612 C 0.70541 0.60012 0.44837 0.0
C613 C 0.71522 0.56562 0.40523 0.0
N614 N 0.65011 0.57791 0.47675 0.0
N615 N 0.691 0.55581 0.42088 0.0
H616 H 0.30253 0.46427 0.23218 0.0
H617 H 0.18113 0.4378 0.08471 0.0
H618 H 0.30154 0.40922 0.15832 0.0
H619 H 0.1805 0.48877 0.16137 0.0
H620 H 0.23195 0.43502 0.10679 0.0
H621 H 0.26556 0.4819 0.20199 0.0
C622 C 0.29501 0.4564 0.20935 0.0
C623 C 0.30472 0.43507 0.19776 0.0
C624 C 0.2209 0.44715 0.11858 0.0
C625 C 0.26184 0.45454 0.16326 0.0
C626 C 0.19197 0.44881 0.10596 0.0
C627 C 0.1764 0.46309 0.12153 0.0
C628 C 0.23427 0.45994 0.14691 0.0
C629 C 0.19142 0.47699 0.14896 0.0
C630 C 0.27381 0.46634 0.19214 0.0
C631 C 0.29453 0.42568 0.16804 0.0
N632 N 0.21933 0.47481 0.16089 0.0
N633 N 0.27311 0.43507 0.15192 0.0
H634 H 0.5907 0.17065 0.87984 0.0
H635 H 0.46408 0.08004 0.97211 0.0
H636 H 0.52396 0.20431 0.91205 0.0
H637 H 0.55812 0.07659 0.9836 0.0
H638 H 0.48041 0.11999 0.94164 0.0
H639 H 0.57381 0.13051 0.90941 0.0
C640 C 0.57263 0.16991 0.89311 0.0
C641 C 0.55926 0.19163 0.89352 0.0
C642 C 0.49742 0.11046 0.95082 0.0
C643 C 0.53895 0.14456 0.92672 0.0
C644 C 0.48814 0.08761 0.96811 0.0
C645 C 0.50983 0.07504 0.98049 0.0
C646 C 0.52843 0.12038 0.94517 0.0
C647 C 0.54072 0.08577 0.97459 0.0
C648 C 0.5629 0.14673 0.90988 0.0
C649 C 0.53495 0.18829 0.9105 0.0
N650 N 0.54905 0.10766 0.95713 0.0
N651 N 0.52557 0.16526 0.92628 0.0
H652 H 0.97953 0.81876 0.38134 0.0
H653 H 0.95324 0.93928 0.48285 0.0
H654 H 0.8943 0.8062 0.41826 0.0
H655 H 0.04373 0.93967 0.46484 0.0
H656 H 0.92949 0.89251 0.45583 0.0
H657 H 1.00181 0.86499 0.40833 0.0
C658 C 0.96544 0.82549 0.39518 0.0
C659 C 0.93483 0.80811 0.39734 0.0
C660 C 0.95454 0.90289 0.4578 0.0
C661 C 0.96032 0.86187 0.42814 0.0
C662 C 0.96807 0.92961 0.47315 0.0
C663 C 1.00051 0.9435 0.47603 0.0
C664 C 0.97355 0.89014 0.44496 0.0
C665 C 0.01863 0.92984 0.46317 0.0
C666 C 0.97821 0.85211 0.41052 0.0
C667 C 0.91775 0.81875 0.41531 0.0
N668 N 1.00494 0.90413 0.44815 0.0
N669 N 0.93065 0.84483 0.42989 0.0
H670 H 0.38449 0.76601 0.62038 0.0
H671 H 0.41198 0.61848 0.5926 0.0
H672 H 0.31464 0.68528 0.62605 0.0
H673 H 0.48554 0.6991 0.59953 0.0
H674 H 0.37542 0.64253 0.60296 0.0
H675 H 0.42073 0.74181 0.60907 0.0
C676 C 0.37662 0.74316 0.61879 0.0
C677 C 0.34649 0.72761 0.62413 0.0
C678 C 0.39959 0.65496 0.60235 0.0
C679 C 0.38804 0.6998 0.61177 0.0
C680 C 0.4206 0.64122 0.59673 0.0
C681 C 0.45197 0.65677 0.59526 0.0
C682 C 0.40991 0.68451 0.6064 0.0
C683 C 0.46151 0.68626 0.60011 0.0
C684 C 0.39743 0.72937 0.61266 0.0
C685 C 0.33774 0.69807 0.62233 0.0
N686 N 0.44055 0.69917 0.60537 0.0
N687 N 0.35844 0.68512 0.61634 0.0
H688 H 0.75046 0.74498 0.6352 0.0
H689 H 0.92347 0.855 0.64547 0.0
H690 H 0.819 0.7675 0.71357 0.0
H691 H 0.85029 0.84592 0.5724 0.0
H692 H 0.88924 0.81408 0.66573 0.0
H693 H 0.79047 0.77299 0.60722 0.0
C694 C 0.77412 0.75533 0.64631 0.0
C695 C 0.7815 0.75436 0.67669 0.0
C696 C 0.8808 0.82079 0.64504 0.0
C697 C 0.82706 0.7863 0.64516 0.0
C698 C 0.90032 0.84417 0.63351 0.0
C699 C 0.88951 0.85419 0.60749 0.0
C700 C 0.85016 0.80739 0.63057 0.0
C701 C 0.85956 0.83896 0.59255 0.0
C702 C 0.79685 0.77138 0.63044 0.0
C703 C 0.81237 0.76813 0.6902 0.0
N704 N 0.84072 0.81655 0.60454 0.0
N705 N 0.83394 0.78374 0.67441 0.0
H706 H 0.64328 0.121 0.2516 0.0
H707 H 0.5333 0.06622 0.12861 0.0
H708 H 0.70381 0.16626 0.19215 0.0
H709 H 0.6129 0.08049 0.08263 0.0
H710 H 0.56771 0.09472 0.17102 0.0
H711 H 0.60483 0.09602 0.20976 0.0
C712 C 0.64838 0.12575 0.22966 0.0
C713 C 0.67679 0.14565 0.22529 0.0
C714 C 0.57778 0.09132 0.15185 0.0
C715 C 0.63231 0.11786 0.17715 0.0
C716 C 0.55806 0.07526 0.12745 0.0
C717 C 0.57031 0.07057 0.10218 0.0
C718 C 0.61009 0.10259 0.15111 0.0
C719 C 0.60252 0.08331 0.10179 0.0
C720 C 0.62616 0.11182 0.20574 0.0
C721 C 0.68206 0.15121 0.19641 0.0
N722 N 0.62136 0.09867 0.12599 0.0
N723 N 0.6601 0.13717 0.17336 0.0
H724 H 0.46463 0.58836 0.31215 0.0
H725 H 0.51296 0.56781 0.48063 0.0
H726 H 0.46229 0.647 0.38123 0.0
H727 H 0.47067 0.49756 0.41602 0.0
H728 H 0.50247 0.59961 0.44415 0.0
H729 H 0.47553 0.55736 0.34934 0.0
C730 C 0.46674 0.59485 0.33517 0.0
C731 C 0.46259 0.62034 0.34359 0.0
C732 C 0.49524 0.5772 0.43807 0.0
C733 C 0.47519 0.58498 0.3863 0.0
C734 C 0.50088 0.559 0.45901 0.0
C735 C 0.49174 0.52987 0.45173 0.0
C736 C 0.48117 0.56628 0.40932 0.0
C737 C 0.47774 0.51982 0.42275 0.0
C738 C 0.47272 0.57705 0.35635 0.0
C739 C 0.4652 0.6275 0.37377 0.0
N740 N 0.47301 0.53796 0.4026 0.0
N741 N 0.47154 0.61002 0.39403 0.0
H742 H 0.15272 0.42038 0.87929 0.0
H743 H 0.02906 0.49332 0.92148 0.0
H744 H 0.08154 0.43428 0.81587 0.0
H745 H 0.09104 0.46883 0.98628 0.0
H746 H 0.04991 0.47406 0.88265 0.0
H747 H 0.13264 0.44022 0.91841 0.0
C748 C 0.133 0.42773 0.87345 0.0
C749 C 0.11893 0.42551 0.84394 0.0
C750 C 0.05901 0.47288 0.90534 0.0
C751 C 0.09554 0.44835 0.88913 0.0
C752 C 0.04712 0.48397 0.92764 0.0
C753 C 0.05819 0.48279 0.95743 0.0
C754 C 0.08243 0.46053 0.91258 0.0
C755 C 0.08165 0.47026 0.96375 0.0
C756 C 0.12139 0.43893 0.89594 0.0
C757 C 0.09306 0.43513 0.83815 0.0
N758 N 0.09296 0.45973 0.94163 0.0
N759 N 0.08236 0.44613 0.86038 0.0
H760 H 0.59973 0.77137 0.88212 0.0
H761 H 0.59675 0.92983 0.88202 0.0
H762 H 0.61778 0.82326 0.80912 0.0
H763 H 0.57403 0.87732 0.95386 0.0
H764 H 0.60165 0.88991 0.85396 0.0
H765 H 0.58628 0.80841 0.90743 0.0
C766 C 0.60042 0.79037 0.87124 0.0
C767 C 0.61024 0.79438 0.84362 0.0
C768 C 0.59543 0.88703 0.87581 0.0
C769 C 0.59534 0.83696 0.87256 0.0
C770 C 0.59283 0.90989 0.8919 0.0
C771 C 0.58519 0.90696 0.9204 0.0
C772 C 0.59055 0.86104 0.88833 0.0
C773 C 0.57979 0.88047 0.9319 0.0
C774 C 0.59294 0.81158 0.88577 0.0
C775 C 0.61093 0.81951 0.83065 0.0
N776 N 0.58278 0.85858 0.91591 0.0
N777 N 0.60385 0.8399 0.84531 0.0
H778 H 0.91553 0.17252 0.42166 0.0
H779 H 0.91798 0.03046 0.49465 0.0
H780 H 0.83626 0.1146 0.45383 0.0
H781 H 1.00149 0.09418 0.47614 0.0
H782 H 0.88736 0.06024 0.4773 0.0
H783 H 0.9475 0.14406 0.44042 0.0
C784 C 0.90494 0.15404 0.433 0.0
C785 C 0.87309 0.14584 0.436 0.0
C786 C 0.91238 0.06772 0.47699 0.0
C787 C 0.90936 0.1129 0.45696 0.0
C788 C 0.92989 0.05064 0.48675 0.0
C789 C 0.96238 0.05983 0.48687 0.0
C790 C 0.9274 0.09419 0.46714 0.0
C791 C 0.97649 0.08624 0.47645 0.0
C792 C 0.92315 0.13768 0.44348 0.0
C793 C 0.86055 0.12146 0.45053 0.0
N794 N 0.9589 0.10252 0.467 0.0
N795 N 0.87865 0.10579 0.4603 0.0
H796 H 0.23872 0.58301 0.17083 0.0
H797 H 0.1283 0.58629 1.02111 0.0
H798 H 0.26652 0.64236 0.10544 0.0
H799 H 0.09396 0.53871 0.09316 0.0
H800 H 0.18076 0.60323 0.04984 0.0
H801 H 0.18692 0.56311 0.14108 0.0
C802 C 0.23398 0.59193 0.1503 0.0
C803 C 0.25718 0.61442 0.14068 0.0
C804 C 0.16178 0.58907 0.05939 0.0
C805 C 0.198 0.5915 0.10637 0.0
C806 C 0.13186 0.57936 0.04296 0.0
C807 C 0.10677 0.56135 0.05492 0.0
C808 C 0.1667 0.58052 0.08792 0.0
C809 C 0.11267 0.55285 0.08327 0.0
C810 C 0.20443 0.58045 0.13326 0.0
C811 C 0.24971 0.62475 0.11361 0.0
N812 N 0.14204 0.56255 0.09886 0.0
N813 N 0.22085 0.61324 0.09748 0.0
H814 H 0.32006 0.4747 0.66808 0.0
H815 H 0.42452 0.43441 0.55783 0.0
H816 H 0.30736 0.38956 0.63594 0.0
H817 H 0.43567 0.52032 0.5859 0.0
H818 H 0.38097 0.41799 0.58572 0.0
H819 H 0.36156 0.4921 0.63768 0.0
C820 C 0.3258 0.45962 0.6546 0.0
C821 C 0.31013 0.4305 0.65496 0.0
C822 C 0.39282 0.44045 0.5857 0.0
C823 C 0.35803 0.45041 0.62006 0.0
C824 C 0.41777 0.44991 0.56966 0.0
C825 C 0.43403 0.47889 0.56934 0.0
C826 C 0.38388 0.46001 0.60182 0.0
C827 C 0.42395 0.49779 0.58532 0.0
C828 C 0.34966 0.46961 0.6373 0.0
C829 C 0.31904 0.41212 0.63706 0.0
N830 N 0.39971 0.48804 0.60094 0.0
N831 N 0.34227 0.42234 0.62051 0.0
H832 H 0.75546 0.59801 0.81413 0.0
H833 H 0.85064 0.5758 0.96479 0.0
H834 H 0.72801 0.6082 0.8988 0.0
H835 H 0.87925 0.57152 0.87972 0.0
H836 H 0.80155 0.58086 0.94089 0.0
H837 H 0.79607 0.58076 0.83755 0.0
C838 C 0.75744 0.59605 0.8376 0.0
C839 C 0.73826 0.60478 0.85449 0.0
C840 C 0.81848 0.57857 0.92747 0.0
C841 C 0.78569 0.58573 0.8817 0.0
C842 C 0.84641 0.57557 0.94107 0.0
C843 C 0.8692 0.57362 0.92422 0.0
C844 C 0.8133 0.57949 0.89681 0.0
C845 C 0.86259 0.57355 0.89359 0.0
C846 C 0.78098 0.58646 0.85104 0.0
C847 C 0.74258 0.6022 0.88494 0.0
N848 N 0.83538 0.57663 0.88092 0.0
N849 N 0.76605 0.59319 0.89761 0.0
H850 H 0.51289 0.84342 0.18987 0.0
H851 H 0.45864 0.92764 0.05867 0.0
H852 H 0.42969 0.80759 0.12614 0.0
H853 H 0.55049 0.9569 0.11052 0.0
H854 H 0.44521 0.88574 0.08683 0.0
H855 H 0.52471 0.88733 0.16473 0.0
C856 C 0.49703 0.84481 0.17071 0.0
C857 C 0.47041 0.82161 0.15998 0.0
C858 C 0.46828 0.90137 0.09213 0.0
C859 C 0.48372 0.87188 0.13111 0.0
C860 C 0.4759 0.92535 0.07612 0.0
C861 C 0.50578 0.94573 0.08215 0.0
C862 C 0.4906 0.8978 0.11454 0.0
C863 C 0.52722 0.94164 0.10503 0.0
C864 C 0.50386 0.86984 0.15628 0.0
C865 C 0.45077 0.82468 0.13494 0.0
N866 N 0.51925 0.91818 0.12034 0.0
N867 N 0.4578 0.84924 0.12143 0.0
H868 H 0.05892 0.21106 0.67542 0.0
H869 H 0.08747 0.08836 0.57883 0.0
H870 H 0.14668 0.22089 0.64417 0.0
H871 H 0.99641 0.08862 0.59435 0.0
H872 H 0.11086 0.13534 0.60544 0.0
H873 H 0.03677 0.16474 0.64854 0.0
C874 C 0.07359 0.2037 0.66284 0.0
C875 C 0.10489 0.2203 0.66227 0.0
C876 C 0.08576 0.12506 0.60301 0.0
C877 C 0.07952 0.16649 0.63158 0.0
C878 C 0.07243 0.09823 0.5879 0.0
C879 C 0.03994 0.08444 0.58446 0.0
C880 C 0.06648 0.13808 0.61501 0.0
C881 C 0.02156 0.09835 0.59649 0.0
C882 C 0.0609 0.17703 0.64756 0.0
C883 C 0.12266 0.20892 0.64587 0.0
N884 N 0.03504 0.1242 0.61126 0.0
N885 N 0.10979 0.18284 0.63131 0.0
H886 H 0.674 0.29933 0.37152 0.0
H887 H 0.64074 0.40166 0.48836 0.0
H888 H 0.73226 0.32683 0.4557 0.0
H889 H 0.56761 0.34586 0.42426 0.0
H890 H 0.67778 0.38018 0.47262 0.0
H891 H 0.63789 0.32226 0.38646 0.0
C892 C 0.67933 0.31049 0.39305 0.0
C893 C 0.70618 0.31136 0.4124 0.0
C894 C 0.65364 0.37267 0.46201 0.0
C895 C 0.66502 0.33747 0.42959 0.0
C896 C 0.63259 0.385 0.47081 0.0
C897 C 0.60117 0.37551 0.45747 0.0
C898 C 0.64329 0.351 0.43941 0.0
C899 C 0.59164 0.35365 0.43513 0.0
C900 C 0.65862 0.32333 0.40161 0.0
C901 C 0.71176 0.32567 0.4402 0.0
N902 N 0.6127 0.34221 0.42664 0.0
N903 N 0.6914 0.33833 0.44794 0.0
loop_
_geom_bond_atom_site_label_1
_geom_bond_atom_site_label_2
_geom_bond_distance
_geom_bond_site_symmetry_2
_ccdc_geom_bond_type
C0 C1 1.386 . S
C0 C2 1.397 . S
C0 H24 0.931 . S
C1 C0 1.386 . S
C1 C5 1.397 . S
C2 C0 1.397 . S
C2 C3 1.384 . S
C2 H25 0.930 . S
C3 C2 1.384 . S
C3 C4 1.377 . S
C3 C6 1.481 . S
C4 C3 1.377 . S
C4 C5 1.389 . S
C4 H26 0.929 . S
C5 C1 1.397 . S
C5 C4 1.389 . S
C5 H27 0.931 . S
C6 C3 1.481 . S
C6 C7 1.387 . S
C6 C11 1.390 . S
C7 C6 1.387 . S
C7 C8 1.401 . S
C7 H28 0.930 . S
C8 C7 1.401 . S
C8 C9 1.376 . S
C8 C17 1.511 . S
C9 C8 1.376 . S
C9 C10 1.392 . S
C9 H30 0.931 . S
C10 C9 1.392 . S
C10 C11 1.361 . S
C10 C12 1.500 . S
C11 C6 1.390 . S
C11 C10 1.361 . S
C11 H29 0.931 . S
C12 C10 1.500 . S
C12 C13 1.371 . S
C12 C14 1.365 . S
C13 C12 1.371 . S
C13 C23 1.386 . S
C13 H31 0.931 . S
C14 C12 1.365 . S
C14 C15 1.409 . S
C14 H32 0.929 . S
C15 C14 1.409 . S
C15 C16 1.380 . S
C15 H33 0.930 . S
C16 C15 1.380 . S
C16 C23 1.357 . S
C17 C8 1.511 . S
C17 C18 1.341 . S
C17 C19 1.371 . S
C18 C17 1.341 . S
C18 C22 1.394 . S
C18 H34 0.930 . S
C19 C17 1.371 . S
C19 C20 1.392 . S
C19 H35 0.931 . S
C20 C19 1.392 . S
C20 C21 1.331 . S
C20 H38 0.932 . S
C21 C20 1.331 . S
C21 C22 1.336 . S
C22 C18 1.394 . S
C22 C21 1.336 . S
C22 H37 0.929 . S
C23 C13 1.386 . S
C23 C16 1.357 . S
C23 H36 0.928 . S
H24 C0 0.931 . S
H25 C2 0.930 . S
H26 C4 0.929 . S
H27 C5 0.931 . S
H28 C7 0.930 . S
H29 C11 0.931 . S
H30 C9 0.931 . S
H31 C13 0.931 . S
H32 C14 0.929 . S
H33 C15 0.930 . S
H34 C18 0.930 . S
H35 C19 0.931 . S
H36 C23 0.928 . S
H37 C22 0.929 . S
H38 C20 0.932 . S
C39 C40 1.386 . S
C39 C41 1.397 . S
C39 H63 0.931 . S
C40 C39 1.386 . S
C40 C44 1.397 . S
C41 C39 1.397 . S
C41 C42 1.384 . S
C41 H64 0.930 . S
C42 C41 1.384 . S
C42 C43 1.377 . S
C42 C45 1.481 . S
C43 C42 1.377 . S
C43 C44 1.389 . S
C43 H65 0.929 . S
C44 C40 1.397 . S
C44 C43 1.389 . S
C44 H66 0.931 . S
C45 C42 1.481 . S
C45 C46 1.387 . S
C45 C50 1.390 . S
C46 C45 1.387 . S
C46 C47 1.401 . S
C46 H67 0.930 . S
C47 C46 1.401 . S
C47 C48 1.376 . S
C47 C56 1.511 . S
C48 C47 1.376 . S
C48 C49 1.392 . S
C48 H69 0.931 . S
C49 C48 1.392 . S
C49 C50 1.361 . S
C49 C51 1.500 . S
C50 C45 1.390 . S
C50 C49 1.361 . S
C50 H68 0.931 . S
C51 C49 1.500 . S
C51 C52 1.371 . S
C51 C53 1.365 . S
C52 C51 1.371 . S
C52 C62 1.386 . S
C52 H70 0.931 . S
C53 C51 1.365 . S
C53 C54 1.409 . S
C53 H71 0.929 . S
C54 C53 1.409 . S
C54 C55 1.380 . S
C54 H72 0.930 . S
C55 C54 1.380 . S
C55 C62 1.357 . S
C56 C47 1.511 . S
C56 C57 1.341 . S
C56 C58 1.371 . S
C57 C56 1.341 . S
C57 C61 1.394 . S
C57 H73 0.930 . S
C58 C56 1.371 . S
C58 C59 1.392 . S
C58 H74 0.931 . S
C59 C58 1.392 . S
C59 C60 1.331 . S
C59 H77 0.932 . S
C60 C59 1.331 . S
C60 C61 1.336 . S
C61 C57 1.394 . S
C61 C60 1.336 . S
C61 H76 0.929 . S
C62 C52 1.386 . S
C62 C55 1.357 . S
C62 H75 0.928 . S
H63 C39 0.931 . S
H64 C41 0.930 . S
H65 C43 0.929 . S
H66 C44 0.931 . S
H67 C46 0.930 . S
H68 C50 0.931 . S
H69 C48 0.931 . S
H70 C52 0.931 . S
H71 C53 0.929 . S
H72 C54 0.930 . S
H73 C57 0.930 . S
H74 C58 0.931 . S
H75 C62 0.928 . S
H76 C61 0.929 . S
H77 C59 0.932 . S
C78 C79 1.386 . S
C78 C80 1.397 . S
C78 H102 0.931 . S
C79 C78 1.386 . S
C79 C83 1.397 . S
C80 C78 1.397 . S
C80 C81 1.384 . S
C80 H103 0.930 . S
C81 C80 1.384 . S
C81 C82 1.377 . S
C81 C84 1.481 . S
C82 C81 1.377 . S
C82 C83 1.389 . S
C82 H104 0.929 . S
C83 C79 1.397 . S
C83 C82 1.389 . S
C83 H105 0.931 . S
C84 C81 1.481 . S
C84 C85 1.387 . S
C84 C89 1.390 . S
C85 C84 1.387 . S
C85 C86 1.401 . S
C85 H106 0.930 . S
C86 C85 1.401 . S
C86 C87 1.376 . S
C86 C95 1.511 . S
C87 C86 1.376 . S
C87 C88 1.392 . S
C87 H108 0.931 . S
C88 C87 1.392 . S
C88 C89 1.361 . S
C88 C90 1.500 . S
C89 C84 1.390 . S
C89 C88 1.361 . S
C89 H107 0.931 . S
C90 C88 1.500 . S
C90 C91 1.371 . S
C90 C92 1.365 . S
C91 C90 1.371 . S
C91 C101 1.386 . S
C91 H109 0.931 . S
C92 C90 1.365 . S
C92 C93 1.409 . S
C92 H110 0.929 . S
C93 C92 1.409 . S
C93 C94 1.380 . S
C93 H111 0.930 . S
C94 C93 1.380 . S
C94 C101 1.357 . S
C95 C86 1.511 . S
C95 C96 1.341 . S
C95 C97 1.371 . S
C96 C95 1.341 . S
C96 C100 1.394 . S
C96 H112 0.930 . S
C97 C95 1.371 . S
C97 C98 1.392 . S
C97 H113 0.931 . S
C98 C97 1.392 . S
C98 C99 1.331 . S
C98 H116 0.932 . S
C99 C98 1.331 . S
C99 C100 1.336 . S
C100 C96 1.394 . S
C100 C99 1.336 . S
C100 H115 0.929 . S
C101 C91 1.386 . S
C101 C94 1.357 . S
C101 H114 0.928 . S
H102 C78 0.931 . S
H103 C80 0.930 . S
H104 C82 0.929 . S
H105 C83 0.931 . S
H106 C85 0.930 . S
H107 C89 0.931 . S
H108 C87 0.931 . S
H109 C91 0.931 . S
H110 C92 0.929 . S
H111 C93 0.930 . S
H112 C96 0.930 . S
H113 C97 0.931 . S
H114 C101 0.928 . S
H115 C100 0.929 . S
H116 C98 0.932 . S
C117 C118 1.386 . S
C117 C119 1.397 . S
C117 H141 0.931 . S
C118 C117 1.386 . S
C118 C122 1.397 . S
C119 C117 1.397 . S
C119 C120 1.384 . S
C119 H142 0.930 . S
C120 C119 1.384 . S
C120 C121 1.377 . S
C120 C123 1.481 . S
C121 C120 1.377 . S
C121 C122 1.389 . S
C121 H143 0.929 . S
C122 C118 1.397 . S
C122 C121 1.389 . S
C122 H144 0.931 . S
C123 C120 1.481 . S
C123 C124 1.387 . S
C123 C128 1.390 . S
C124 C123 1.387 . S
C124 C125 1.401 . S
C124 H145 0.930 . S
C125 C124 1.401 . S
C125 C126 1.376 . S
C125 C134 1.511 . S
C126 C125 1.376 . S
C126 C127 1.392 . S
C126 H147 0.931 . S
C127 C126 1.392 . S
C127 C128 1.361 . S
C127 C129 1.500 . S
C128 C123 1.390 . S
C128 C127 1.361 . S
C128 H146 0.931 . S
C129 C127 1.500 . S
C129 C130 1.371 . S
C129 C131 1.365 . S
C130 C129 1.371 . S
C130 C140 1.386 . S
C130 H148 0.931 . S
C131 C129 1.365 . S
C131 C132 1.409 . S
C131 H149 0.929 . S
C132 C131 1.409 . S
C132 C133 1.380 . S
C132 H150 0.930 . S
C133 C132 1.380 . S
C133 C140 1.357 . S
C134 C125 1.511 . S
C134 C135 1.341 . S
C134 C136 1.371 . S
C135 C134 1.341 . S
C135 C139 1.394 . S
C135 H151 0.930 . S
C136 C134 1.371 . S
C136 C137 1.392 . S
C136 H152 0.931 . S
C137 C136 1.392 . S
C137 C138 1.331 . S
C137 H155 0.932 . S
C138 C137 1.331 . S
C138 C139 1.336 . S
C139 C135 1.394 . S
C139 C138 1.336 . S
C139 H154 0.929 . S
C140 C130 1.386 . S
C140 C133 1.357 . S
C140 H153 0.928 . S
H141 C117 0.931 . S
H142 C119 0.930 . S
H143 C121 0.929 . S
H144 C122 0.931 . S
H145 C124 0.930 . S
H146 C128 0.931 . S
H147 C126 0.931 . S
H148 C130 0.931 . S
H149 C131 0.929 . S
H150 C132 0.930 . S
H151 C135 0.930 . S
H152 C136 0.931 . S
H153 C140 0.928 . S
H154 C139 0.929 . S
H155 C137 0.932 . S
C156 C157 1.386 . S
C156 C158 1.397 . S
C156 H180 0.931 . S
C157 C156 1.386 . S
C157 C161 1.397 . S
C158 C156 1.397 . S
C158 C159 1.384 . S
C158 H181 0.930 . S
C159 C158 1.384 . S
C159 C160 1.377 . S
C159 C162 1.481 . S
C160 C159 1.377 . S
C160 C161 1.389 . S
C160 H182 0.929 . S
C161 C157 1.397 . S
C161 C160 1.389 . S
C161 H183 0.931 . S
C162 C159 1.481 . S
C162 C163 1.387 . S
C162 C167 1.390 . S
C163 C162 1.387 . S
C163 C164 1.401 . S
C163 H184 0.930 . S
C164 C163 1.401 . S
C164 C165 1.376 . S
C164 C173 1.511 . S
C165 C164 1.376 . S
C165 C166 1.392 . S
C165 H186 0.931 . S
C166 C165 1.392 . S
C166 C167 1.361 . S
C166 C168 1.500 . S
C167 C162 1.390 . S
C167 C166 1.361 . S
C167 H185 0.931 . S
C168 C166 1.500 . S
C168 C169 1.371 . S
C168 C170 1.365 . S
C169 C168 1.371 . S
C169 C179 1.386 . S
C169 H187 0.931 . S
C170 C168 1.365 . S
C170 C171 1.409 . S
C170 H188 0.929 . S
C171 C170 1.409 . S
C171 C172 1.380 . S
C171 H189 0.930 . S
C172 C171 1.380 . S
C172 C179 1.357 . S
C173 C164 1.511 . S
C173 C174 1.341 . S
C173 C175 1.371 . S
C174 C173 1.341 . S
C174 C178 1.394 . S
C174 H190 0.930 . S
C175 C173 1.371 . S
C175 C176 1.392 . S
C175 H191 0.931 . S
C176 C175 1.392 . S
C176 C177 1.331 . S
C176 H194 0.932 . S
C177 C176 1.331 . S
C177 C178 1.336 . S
C178 C174 1.394 . S
C178 C177 1.336 . S
C178 H193 0.929 . S
C179 C169 1.386 . S
C179 C172 1.357 . S
C179 H192 0.928 . S
H180 C156 0.931 . S
H181 C158 0.930 . S
H182 C160 0.929 . S
H183 C161 0.931 . S
H184 C163 0.930 . S
H185 C167 0.931 . S
H186 C165 0.931 . S
H187 C169 0.931 . S
H188 C170 0.929 . S
H189 C171 0.930 . S
H190 C174 0.930 . S
H191 C175 0.931 . S
H192 C179 0.928 . S
H193 C178 0.929 . S
H194 C176 0.932 . S
C195 C196 1.386 . S
C195 C197 1.397 . S
C195 H219 0.931 . S
C196 C195 1.386 . S
C196 C200 1.397 . S
C197 C195 1.397 . S
C197 C198 1.384 . S
C197 H220 0.930 . S
C198 C197 1.384 . S
C198 C199 1.377 . S
C198 C201 1.481 . S
C199 C198 1.377 . S
C199 C200 1.389 . S
C199 H221 0.929 . S
C200 C196 1.397 . S
C200 C199 1.389 . S
C200 H222 0.931 . S
C201 C198 1.481 . S
C201 C202 1.387 . S
C201 C206 1.390 . S
C202 C201 1.387 . S
C202 C203 1.401 . S
C202 H223 0.930 . S
C203 C202 1.401 . S
C203 C204 1.376 . S
C203 C212 1.511 . S
C204 C203 1.376 . S
C204 C205 1.392 . S
C204 H225 0.931 . S
C205 C204 1.392 . S
C205 C206 1.361 . S
C205 C207 1.500 . S
C206 C201 1.390 . S
C206 C205 1.361 . S
C206 H224 0.931 . S
C207 C205 1.500 . S
C207 C208 1.371 . S
C207 C209 1.365 . S
C208 C207 1.371 . S
C208 C218 1.386 . S
C208 H226 0.931 . S
C209 C207 1.365 . S
C209 C210 1.409 . S
C209 H227 0.929 . S
C210 C209 1.409 . S
C210 C211 1.380 . S
C210 H228 0.930 . S
C211 C210 1.380 . S
C211 C218 1.357 . S
C212 C203 1.511 . S
C212 C213 1.341 . S
C212 C214 1.371 . S
C213 C212 1.341 . S
C213 C217 1.394 . S
C213 H229 0.930 . S
C214 C212 1.371 . S
C214 C215 1.392 . S
C214 H230 0.931 . S
C215 C214 1.392 . S
C215 C216 1.331 . S
C215 H233 0.932 . S
C216 C215 1.331 . S
C216 C217 1.336 . S
C217 C213 1.394 . S
C217 C216 1.336 . S
C217 H232 0.929 . S
C218 C208 1.386 . S
C218 C211 1.357 . S
C218 H231 0.928 . S
H219 C195 0.931 . S
H220 C197 0.930 . S
H221 C199 0.929 . S
H222 C200 0.931 . S
H223 C202 0.930 . S
H224 C206 0.931 . S
H225 C204 0.931 . S
H226 C208 0.931 . S
H227 C209 0.929 . S
H228 C210 0.930 . S
H229 C213 0.930 . S
H230 C214 0.931 . S
H231 C218 0.928 . S
H232 C217 0.929 . S
H233 C215 0.932 . S
C234 C235 1.386 . S
C234 C236 1.397 . S
C234 H258 0.931 . S
C235 C234 1.386 . S
C235 C239 1.397 . S
C236 C234 1.397 . S
C236 C237 1.384 . S
C236 H259 0.930 . S
C237 C236 1.384 . S
C237 C238 1.377 . S
C237 C240 1.481 . S
C238 C237 1.377 . S
C238 C239 1.389 . S
C238 H260 0.929 . S
C239 C235 1.397 . S
C239 C238 1.389 . S
C239 H261 0.931 . S
C240 C237 1.481 . S
C240 C241 1.387 . S
C240 C245 1.390 . S
C241 C240 1.387 . S
C241 C242 1.401 . S
C241 H262 0.930 . S
C242 C241 1.401 . S
C242 C243 1.376 . S
C242 C251 1.511 . S
C243 C242 1.376 . S
C243 C244 1.392 . S
C243 H264 0.931 . S
C244 C243 1.392 . S
C244 C245 1.361 . S
C244 C246 1.500 . S
C245 C240 1.390 . S
C245 C244 1.361 . S
C245 H263 0.931 . S
C246 C244 1.500 . S
C246 C247 1.371 . S
C246 C248 1.365 . S
C247 C246 1.371 . S
C247 C257 1.386 . S
C247 H265 0.931 . S
C248 C246 1.365 . S
C248 C249 1.409 . S
C248 H266 0.929 . S
C249 C248 1.409 . S
C249 C250 1.380 . S
C249 H267 0.930 . S
C250 C249 1.380 . S
C250 C257 1.357 . S
C251 C242 1.511 . S
C251 C252 1.341 . S
C251 C253 1.371 . S
C252 C251 1.341 . S
C252 C256 1.394 . S
C252 H268 0.930 . S
C253 C251 1.371 . S
C253 C254 1.392 . S
C253 H269 0.931 . S
C254 C253 1.392 . S
C254 C255 1.331 . S
C254 H272 0.932 . S
C255 C254 1.331 . S
C255 C256 1.336 . S
C256 C252 1.394 . S
C256 C255 1.336 . S
C256 H271 0.929 . S
C257 C247 1.386 . S
C257 C250 1.357 . S
C257 H270 0.928 . S
H258 C234 0.931 . S
H259 C236 0.930 . S
H260 C238 0.929 . S
H261 C239 0.931 . S
H262 C241 0.930 . S
H263 C245 0.931 . S
H264 C243 0.931 . S
H265 C247 0.931 . S
H266 C248 0.929 . S
H267 C249 0.930 . S
H268 C252 0.930 . S
H269 C253 0.931 . S
H270 C257 0.928 . S
H271 C256 0.929 . S
H272 C254 0.932 . S
C273 C274 1.386 . S
C273 C275 1.397 . S
C273 H297 0.931 . S
C274 C273 1.386 . S
C274 C278 1.397 . S
C275 C273 1.397 . S
C275 C276 1.384 . S
C275 H298 0.930 . S
C276 C275 1.384 . S
C276 C277 1.377 . S
C276 C279 1.481 . S
C277 C276 1.377 . S
C277 C278 1.389 . S
C277 H299 0.929 . S
C278 C274 1.397 . S
C278 C277 1.389 . S
C278 H300 0.931 . S
C279 C276 1.481 . S
C279 C280 1.387 . S
C279 C284 1.390 . S
C280 C279 1.387 . S
C280 C281 1.401 . S
C280 H301 0.930 . S
C281 C280 1.401 . S
C281 C282 1.376 . S
C281 C290 1.511 . S
C282 C281 1.376 . S
C282 C283 1.392 . S
C282 H303 0.931 . S
C283 C282 1.392 . S
C283 C284 1.361 . S
C283 C285 1.500 . S
C284 C279 1.390 . S
C284 C283 1.361 . S
C284 H302 0.931 . S
C285 C283 1.500 . S
C285 C286 1.371 . S
C285 C287 1.365 . S
C286 C285 1.371 . S
C286 C296 1.386 . S
C286 H304 0.931 . S
C287 C285 1.365 . S
C287 C288 1.409 . S
C287 H305 0.929 . S
C288 C287 1.409 . S
C288 C289 1.380 . S
C288 H306 0.930 . S
C289 C288 1.380 . S
C289 C296 1.357 . S
C290 C281 1.511 . S
C290 C291 1.341 . S
C290 C292 1.371 . S
C291 C290 1.341 . S
C291 C295 1.394 . S
C291 H307 0.930 . S
C292 C290 1.371 . S
C292 C293 1.392 . S
C292 H308 0.931 . S
C293 C292 1.392 . S
C293 C294 1.331 . S
C293 H311 0.932 . S
C294 C293 1.331 . S
C294 C295 1.336 . S
C295 C291 1.394 . S
C295 C294 1.336 . S
C295 H310 0.929 . S
C296 C286 1.386 . S
C296 C289 1.357 . S
C296 H309 0.928 . S
H297 C273 0.931 . S
H298 C275 0.930 . S
H299 C277 0.929 . S
H300 C278 0.931 . S
H301 C280 0.930 . S
H302 C284 0.931 . S
H303 C282 0.931 . S
H304 C286 0.931 . S
H305 C287 0.929 . S
H306 C288 0.930 . S
H307 C291 0.930 . S
H308 C292 0.931 . S
H309 C296 0.928 . S
H310 C295 0.929 . S
H311 C293 0.932 . S
Pr312 C314 2.880 . S
Pr312 O332 2.562 . S
Pr312 O333 2.490 . S
Pr312 O334 2.695 1_665 S
Pr312 O335 2.512 1_665 S
Pr312 O337 2.437 1_655 S
Pr312 O340 2.436 . S
Pr312 O342 2.438 1_565 S
Pr313 C323 2.880 . S
Pr313 O334 2.436 . S
Pr313 O336 2.438 1_545 S
Pr313 O338 2.562 . S
Pr313 O339 2.490 . S
Pr313 O340 2.695 1_445 S
Pr313 O341 2.512 1_545 S
Pr313 O343 2.437 1_455 S
C314 Pr312 2.880 . S
C314 C315 1.491 . S
C314 O332 1.254 . S
C314 O333 1.225 . S
C315 C314 1.491 . S
C315 C316 1.392 . S
C315 C320 1.356 . S
C316 C315 1.392 . S
C316 C317 1.368 . S
C316 H344 0.929 . S
C317 C316 1.368 . S
C317 C318 1.386 . S
C317 H345 0.929 . S
C318 C317 1.386 . S
C318 C319 1.373 . S
C319 C318 1.373 . S
C319 C320 1.409 . S
C319 H346 0.931 . S
C320 C315 1.356 . S
C320 C319 1.409 . S
C320 H347 0.930 . S
C321 O334 1.270 . S
C321 O335 1.248 . S
C322 O336 1.267 . S
C322 O337 1.278 . S
C323 Pr313 2.880 . S
C323 C324 1.491 . S
C323 O338 1.254 . S
C323 O339 1.225 . S
C324 C323 1.491 . S
C324 C325 1.392 . S
C324 C329 1.356 . S
C325 C324 1.392 . S
C325 C326 1.368 . S
C325 H348 0.929 . S
C326 C325 1.368 . S
C326 C327 1.386 . S
C326 H349 0.929 . S
C327 C326 1.386 . S
C327 C328 1.373 . S
C328 C327 1.373 . S
C328 C329 1.409 . S
C328 H350 0.931 . S
C329 C324 1.356 . S
C329 C328 1.409 . S
C329 H351 0.930 . S
C330 O340 1.270 . S
C330 O341 1.248 1_655 S
C331 O342 1.267 . S
C331 O343 1.278 . S
O332 Pr312 2.562 . S
O332 C314 1.254 . S
O333 Pr312 2.490 . S
O333 C314 1.225 . S
O334 Pr312 2.695 1_445 S
O334 Pr313 2.436 . S
O334 C321 1.270 . S
O335 Pr312 2.512 1_445 S
O335 C321 1.248 . S
O336 Pr313 2.438 1_565 S
O336 C322 1.267 . S
O337 Pr312 2.437 1_455 S
O337 C322 1.278 . S
O338 Pr313 2.562 . S
O338 C323 1.254 . S
O339 Pr313 2.490 . S
O339 C323 1.225 . S
O340 Pr312 2.436 . S
O340 Pr313 2.695 1_665 S
O340 C330 1.270 . S
O341 Pr313 2.512 1_565 S
O341 C330 1.248 1_455 S
O342 Pr312 2.438 1_545 S
O342 C331 1.267 . S
O343 Pr313 2.437 1_655 S
O343 C331 1.278 . S
H344 C316 0.929 . S
H345 C317 0.929 . S
H346 C319 0.931 . S
H347 C320 0.930 . S
H348 C325 0.929 . S
H349 C326 0.929 . S
H350 C328 0.931 . S
H351 C329 0.930 . S
Pr352 C354 2.883 . S
Pr352 O372 2.566 . S
Pr352 O373 2.492 . S
Pr352 O374 2.693 1_554 S
Pr352 O375 2.509 1_554 S
Pr352 O377 2.439 . S
Pr352 O380 2.437 1_545 S
Pr352 O382 2.435 1_544 S
Pr353 C363 2.861 1_554 S
Pr353 O374 2.425 1_564 S
Pr353 O376 2.456 1_565 S
Pr353 O378 2.538 1_554 S
Pr353 O379 2.481 1_554 S
Pr353 O380 2.711 . S
Pr353 O381 2.530 . S
Pr353 O383 2.426 1_554 S
C354 Pr352 2.883 . S
C354 C355 1.491 . S
C354 O372 1.254 . S
C354 O373 1.225 . S
C355 C354 1.491 . S
C355 C356 1.392 . S
C355 C360 1.356 . S
C356 C355 1.392 . S
C356 C357 1.368 . S
C356 H384 0.929 . S
C357 C356 1.368 . S
C357 C358 1.386 . S
C357 H385 0.929 . S
C358 C357 1.386 . S
C358 C359 1.373 . S
C359 C358 1.373 . S
C359 C360 1.409 . S
C359 H386 0.931 . S
C360 C355 1.356 . S
C360 C359 1.409 . S
C360 H387 0.930 . S
C361 O374 1.270 . S
C361 O375 1.248 . S
C362 O376 1.267 . S
C362 O377 1.278 . S
C363 Pr353 2.861 1_556 S
C363 C364 1.491 . S
C363 O378 1.254 . S
C363 O379 1.225 . S
C364 C363 1.491 . S
C364 C365 1.392 . S
C364 C369 1.356 . S
C365 C364 1.392 . S
C365 C366 1.368 . S
C365 H388 0.929 . S
C366 C365 1.368 . S
C366 C367 1.386 . S
C366 H389 0.929 . S
C367 C366 1.386 . S
C367 C368 1.373 . S
C368 C367 1.373 . S
C368 C369 1.409 . S
C368 H390 0.931 . S
C369 C364 1.356 . S
C369 C368 1.409 . S
C369 H391 0.930 . S
C370 O380 1.270 . S
C370 O381 1.248 . S
C371 O382 1.267 . S
C371 O383 1.278 . S
O372 Pr352 2.566 . S
O372 C354 1.254 . S
O373 Pr352 2.492 . S
O373 C354 1.225 . S
O374 Pr352 2.693 1_556 S
O374 Pr353 2.425 1_546 S
O374 C361 1.270 . S
O375 Pr352 2.509 1_556 S
O375 C361 1.248 . S
O376 Pr353 2.456 1_545 S
O376 C362 1.267 . S
O377 Pr352 2.439 . S
O377 C362 1.278 . S
O378 Pr353 2.538 1_556 S
O378 C363 1.254 . S
O379 Pr353 2.481 1_556 S
O379 C363 1.225 . S
O380 Pr352 2.437 1_565 S
O380 Pr353 2.711 . S
O380 C370 1.270 . S
O381 Pr353 2.530 . S
O381 C370 1.248 . S
O382 Pr352 2.435 1_566 S
O382 C371 1.267 . S
O383 Pr353 2.426 1_556 S
O383 C371 1.278 . S
H384 C356 0.929 . S
H385 C357 0.929 . S
H386 C359 0.931 . S
H387 C360 0.930 . S
H388 C365 0.929 . S
H389 C366 0.929 . S
H390 C368 0.931 . S
H391 C369 0.930 . S
Pr392 C394 2.880 . S
Pr392 O412 2.562 . S
Pr392 O413 2.490 . S
Pr392 O414 2.695 . S
Pr392 O415 2.512 . S
Pr392 O417 2.437 . S
Pr392 O420 2.436 . S
Pr392 O422 2.438 . S
Pr393 C403 2.880 . S
Pr393 O414 2.436 . S
Pr393 O416 2.438 . S
Pr393 O418 2.562 . S
Pr393 O419 2.490 . S
Pr393 O420 2.695 . S
Pr393 O421 2.512 . S
Pr393 O423 2.437 . S
C394 Pr392 2.880 . S
C394 C395 1.491 . S
C394 O412 1.254 . S
C394 O413 1.225 . S
C395 C394 1.491 . S
C395 C396 1.392 . S
C395 C400 1.356 . S
C396 C395 1.392 . S
C396 C397 1.368 . S
C396 H424 0.929 . S
C397 C396 1.368 . S
C397 C398 1.386 . S
C397 H425 0.929 . S
C398 C397 1.386 . S
C398 C399 1.373 . S
C399 C398 1.373 . S
C399 C400 1.409 . S
C399 H426 0.931 . S
C400 C395 1.356 . S
C400 C399 1.409 . S
C400 H427 0.930 . S
C401 O414 1.270 . S
C401 O415 1.248 . S
C402 O416 1.267 . S
C402 O417 1.278 . S
C403 Pr393 2.880 . S
C403 C404 1.491 . S
C403 O418 1.254 . S
C403 O419 1.225 . S
C404 C403 1.491 . S
C404 C405 1.392 . S
C404 C409 1.356 . S
C405 C404 1.392 . S
C405 C406 1.368 . S
C405 H428 0.929 . S
C406 C405 1.368 . S
C406 C407 1.386 . S
C406 H429 0.929 . S
C407 C406 1.386 . S
C407 C408 1.373 . S
C408 C407 1.373 . S
C408 C409 1.409 . S
C408 H430 0.931 . S
C409 C404 1.356 . S
C409 C408 1.409 . S
C409 H431 0.930 . S
C410 O420 1.270 . S
C410 O421 1.248 . S
C411 O422 1.267 . S
C411 O423 1.278 . S
O412 Pr392 2.562 . S
O412 C394 1.254 . S
O413 Pr392 2.490 . S
O413 C394 1.225 . S
O414 Pr392 2.695 . S
O414 Pr393 2.436 . S
O414 C401 1.270 . S
O415 Pr392 2.512 . S
O415 C401 1.248 . S
O416 Pr393 2.438 . S
O416 C402 1.267 . S
O417 Pr392 2.437 . S
O417 C402 1.278 . S
O418 Pr393 2.562 . S
O418 C403 1.254 . S
O419 Pr393 2.490 . S
O419 C403 1.225 . S
O420 Pr392 2.436 . S
O420 Pr393 2.695 . S
O420 C410 1.270 . S
O421 Pr393 2.512 . S
O421 C410 1.248 . S
O422 Pr392 2.438 . S
O422 C411 1.267 . S
O423 Pr393 2.437 . S
O423 C411 1.278 . S
H424 C396 0.929 . S
H425 C397 0.929 . S
H426 C399 0.931 . S
H427 C400 0.930 . S
H428 C405 0.929 . S
H429 C406 0.929 . S
H430 C408 0.931 . S
H431 C409 0.930 . S
Pr432 C434 2.889 . S
Pr432 O452 2.574 . S
Pr432 O453 2.495 . S
Pr432 O454 2.688 1_656 S
Pr432 O455 2.505 1_656 S
Pr432 O457 2.444 1_556 S
Pr432 O460 2.440 . S
Pr432 O462 2.428 1_655 S
Pr433 C443 2.880 . S
Pr433 O454 2.436 . S
Pr433 O456 2.438 1_455 S
Pr433 O458 2.562 . S
Pr433 O459 2.490 . S
Pr433 O460 2.695 1_454 S
Pr433 O461 2.512 1_454 S
Pr433 O463 2.437 1_554 S
C434 Pr432 2.889 . S
C434 C435 1.491 . S
C434 O452 1.254 . S
C434 O453 1.225 . S
C435 C434 1.491 . S
C435 C436 1.392 . S
C435 C440 1.356 . S
C436 C435 1.392 . S
C436 C437 1.368 . S
C436 H464 0.929 . S
C437 C436 1.368 . S
C437 C438 1.386 . S
C437 H465 0.929 . S
C438 C437 1.386 . S
C438 C439 1.373 . S
C439 C438 1.373 . S
C439 C440 1.409 . S
C439 H466 0.931 . S
C440 C435 1.356 . S
C440 C439 1.409 . S
C440 H467 0.930 . S
C441 O454 1.270 . S
C441 O455 1.248 . S
C442 O456 1.267 . S
C442 O457 1.278 . S
C443 Pr433 2.880 . S
C443 C444 1.491 . S
C443 O458 1.254 . S
C443 O459 1.225 . S
C444 C443 1.491 . S
C444 C445 1.392 . S
C444 C449 1.356 . S
C445 C444 1.392 . S
C445 C446 1.368 . S
C445 H468 0.929 . S
C446 C445 1.368 . S
C446 C447 1.386 . S
C446 H469 0.929 . S
C447 C446 1.386 . S
C447 C448 1.373 . S
C448 C447 1.373 . S
C448 C449 1.409 . S
C448 H470 0.931 . S
C449 C444 1.356 . S
C449 C448 1.409 . S
C449 H471 0.930 . S
C450 O460 1.270 . S
C450 O461 1.248 . S
C451 O462 1.267 . S
C451 O463 1.278 . S
O452 Pr432 2.574 . S
O452 C434 1.254 . S
O453 Pr432 2.495 . S
O453 C434 1.225 . S
O454 Pr432 2.688 1_454 S
O454 Pr433 2.436 . S
O454 C441 1.270 . S
O455 Pr432 2.505 1_454 S
O455 C441 1.248 . S
O456 Pr433 2.438 1_655 S
O456 C442 1.267 . S
O457 Pr432 2.444 1_554 S
O457 C442 1.278 . S
O458 Pr433 2.562 . S
O458 C443 1.254 . S
O459 Pr433 2.490 . S
O459 C443 1.225 . S
O460 Pr432 2.440 . S
O460 Pr433 2.695 1_656 S
O460 C450 1.270 . S
O461 Pr433 2.512 1_656 S
O461 C450 1.248 . S
O462 Pr432 2.428 1_455 S
O462 C451 1.267 . S
O463 Pr433 2.437 1_556 S
O463 C451 1.278 . S
H464 C436 0.929 . S
H465 C437 0.929 . S
H466 C439 0.931 . S
H467 C440 0.930 . S
H468 C445 0.929 . S
H469 C446 0.929 . S
H470 C448 0.931 . S
H471 C449 0.930 . S
H472 C478 0.930 . S
H473 C482 0.930 . S
H474 C487 0.929 . S
H475 C485 0.929 . S
H476 C480 0.929 . S
H477 C486 0.929 . S
C478 H472 0.930 . S
C478 C479 1.367 . S
C478 C486 1.378 . S
C479 C478 1.367 . S
C479 C487 1.433 . S
C480 H476 0.929 . S
C480 C482 1.378 . S
C480 C484 1.350 . S
C481 C484 1.463 . S
C481 C486 1.350 . S
C481 N489 1.427 . S
C482 H473 0.930 . S
C482 C480 1.378 . S
C482 C483 1.367 . S
C483 C482 1.367 . S
C483 C485 1.433 . S
C484 C480 1.350 . S
C484 C481 1.463 . S
C484 N488 1.427 . S
C485 H475 0.929 . S
C485 C483 1.433 . S
C485 N488 1.384 . S
C486 H477 0.929 . S
C486 C478 1.378 . S
C486 C481 1.350 . S
C487 H474 0.929 . S
C487 C479 1.433 . S
C487 N489 1.384 . S
N488 C484 1.427 . S
N488 C485 1.384 . S
N489 C481 1.427 . S
N489 C487 1.384 . S
H490 C496 0.930 . S
H491 C500 0.930 . S
H492 C505 0.929 . S
H493 C503 0.929 . S
H494 C498 0.929 . S
H495 C504 0.929 . S
C496 H490 0.930 . S
C496 C497 1.367 . S
C496 C504 1.378 . S
C497 C496 1.367 . S
C497 C505 1.433 . S
C498 H494 0.929 . S
C498 C500 1.378 . S
C498 C502 1.350 . S
C499 C502 1.463 . S
C499 C504 1.350 . S
C499 N507 1.427 . S
C500 H491 0.930 . S
C500 C498 1.378 . S
C500 C501 1.367 . S
C501 C500 1.367 . S
C501 C503 1.433 . S
C502 C498 1.350 . S
C502 C499 1.463 . S
C502 N506 1.427 . S
C503 H493 0.929 . S
C503 C501 1.433 . S
C503 N506 1.384 . S
C504 H495 0.929 . S
C504 C496 1.378 . S
C504 C499 1.350 . S
C505 H492 0.929 . S
C505 C497 1.433 . S
C505 N507 1.384 . S
N506 C502 1.427 . S
N506 C503 1.384 . S
N507 C499 1.427 . S
N507 C505 1.384 . S
H508 C514 0.930 . S
H509 C518 0.930 . S
H510 C523 0.929 . S
H511 C521 0.929 . S
H512 C516 0.929 . S
H513 C522 0.929 . S
C514 H508 0.930 . S
C514 C515 1.367 . S
C514 C522 1.378 . S
C515 C514 1.367 . S
C515 C523 1.433 . S
C516 H512 0.929 . S
C516 C518 1.378 . S
C516 C520 1.350 . S
C517 C520 1.463 . S
C517 C522 1.350 . S
C517 N525 1.427 . S
C518 H509 0.930 . S
C518 C516 1.378 . S
C518 C519 1.367 . S
C519 C518 1.367 . S
C519 C521 1.433 . S
C520 C516 1.350 . S
C520 C517 1.463 . S
C520 N524 1.427 . S
C521 H511 0.929 . S
C521 C519 1.433 . S
C521 N524 1.384 . S
C522 H513 0.929 . S
C522 C514 1.378 . S
C522 C517 1.350 . S
C523 H510 0.929 . S
C523 C515 1.433 . S
C523 N525 1.384 . S
N524 C520 1.427 . S
N524 C521 1.384 . S
N525 C517 1.427 . S
N525 C523 1.384 . S
H526 C532 0.930 . S
H527 C536 0.930 . S
H528 C541 0.929 . S
H529 C539 0.929 . S
H530 C534 0.929 . S
H531 C540 0.929 . S
C532 H526 0.930 . S
C532 C533 1.367 . S
C532 C540 1.378 . S
C533 C532 1.367 . S
C533 C541 1.433 . S
C534 H530 0.929 . S
C534 C536 1.378 . S
C534 C538 1.350 . S
C535 C538 1.463 . S
C535 C540 1.350 . S
C535 N543 1.427 . S
C536 H527 0.930 . S
C536 C534 1.378 . S
C536 C537 1.367 . S
C537 C536 1.367 . S
C537 C539 1.433 . S
C538 C534 1.350 . S
C538 C535 1.463 . S
C538 N542 1.427 . S
C539 H529 0.929 . S
C539 C537 1.433 . S
C539 N542 1.384 . S
C540 H531 0.929 . S
C540 C532 1.378 . S
C540 C535 1.350 . S
C541 H528 0.929 . S
C541 C533 1.433 . S
C541 N543 1.384 . S
N542 C538 1.427 . S
N542 C539 1.384 . S
N543 C535 1.427 . S
N543 C541 1.384 . S
H544 C550 0.930 . S
H545 C554 0.930 . S
H546 C559 0.929 . S
H547 C557 0.929 . S
H548 C552 0.929 . S
H549 C558 0.929 . S
C550 H544 0.930 . S
C550 C551 1.367 . S
C550 C558 1.378 . S
C551 C550 1.367 . S
C551 C559 1.433 . S
C552 H548 0.929 . S
C552 C554 1.378 . S
C552 C556 1.350 . S
C553 C556 1.463 . S
C553 C558 1.350 . S
C553 N561 1.427 . S
C554 H545 0.930 . S
C554 C552 1.378 . S
C554 C555 1.367 . S
C555 C554 1.367 . S
C555 C557 1.433 . S
C556 C552 1.350 . S
C556 C553 1.463 . S
C556 N560 1.427 . S
C557 H547 0.929 . S
C557 C555 1.433 . S
C557 N560 1.384 . S
C558 H549 0.929 . S
C558 C550 1.378 . S
C558 C553 1.350 . S
C559 H546 0.929 . S
C559 C551 1.433 . S
C559 N561 1.384 . S
N560 C556 1.427 . S
N560 C557 1.384 . S
N561 C553 1.427 . S
N561 C559 1.384 . S
H562 C568 0.930 . S
H563 C572 0.930 . S
H564 C577 0.929 . S
H565 C575 0.929 . S
H566 C570 0.929 . S
H567 C576 0.929 . S
C568 H562 0.930 . S
C568 C569 1.367 . S
C568 C576 1.378 . S
C569 C568 1.367 . S
C569 C577 1.433 . S
C570 H566 0.929 . S
C570 C572 1.378 . S
C570 C574 1.350 . S
C571 C574 1.463 . S
C571 C576 1.350 . S
C571 N579 1.427 . S
C572 H563 0.930 . S
C572 C570 1.378 . S
C572 C573 1.367 . S
C573 C572 1.367 . S
C573 C575 1.433 . S
C574 C570 1.350 . S
C574 C571 1.463 . S
C574 N578 1.427 . S
C575 H565 0.929 . S
C575 C573 1.433 . S
C575 N578 1.384 . S
C576 H567 0.929 . S
C576 C568 1.378 . S
C576 C571 1.350 . S
C577 H564 0.929 . S
C577 C569 1.433 . S
C577 N579 1.384 . S
N578 C574 1.427 . S
N578 C575 1.384 . S
N579 C571 1.427 . S
N579 C577 1.384 . S
H580 C586 0.930 . S
H581 C590 0.930 . S
H582 C595 0.929 . S
H583 C593 0.929 . S
H584 C588 0.929 . S
H585 C594 0.929 . S
C586 H580 0.930 . S
C586 C587 1.367 . S
C586 C594 1.378 . S
C587 C586 1.367 . S
C587 C595 1.433 . S
C588 H584 0.929 . S
C588 C590 1.378 . S
C588 C592 1.350 . S
C589 C592 1.463 . S
C589 C594 1.350 . S
C589 N597 1.427 . S
C590 H581 0.930 . S
C590 C588 1.378 . S
C590 C591 1.367 . S
C591 C590 1.367 . S
C591 C593 1.433 . S
C592 C588 1.350 . S
C592 C589 1.463 . S
C592 N596 1.427 . S
C593 H583 0.929 . S
C593 C591 1.433 . S
C593 N596 1.384 . S
C594 H585 0.929 . S
C594 C586 1.378 . S
C594 C589 1.350 . S
C595 H582 0.929 . S
C595 C587 1.433 . S
C595 N597 1.384 . S
N596 C592 1.427 . S
N596 C593 1.384 . S
N597 C589 1.427 . S
N597 C595 1.384 . S
H598 C604 0.930 . S
H599 C608 0.930 . S
H600 C613 0.929 . S
H601 C611 0.929 . S
H602 C606 0.929 . S
H603 C612 0.929 . S
C604 H598 0.930 . S
C604 C605 1.367 . S
C604 C612 1.378 . S
C605 C604 1.367 . S
C605 C613 1.433 . S
C606 H602 0.929 . S
C606 C608 1.378 . S
C606 C610 1.350 . S
C607 C610 1.463 . S
C607 C612 1.350 . S
C607 N615 1.427 . S
C608 H599 0.930 . S
C608 C606 1.378 . S
C608 C609 1.367 . S
C609 C608 1.367 . S
C609 C611 1.433 . S
C610 C606 1.350 . S
C610 C607 1.463 . S
C610 N614 1.427 . S
C611 H601 0.929 . S
C611 C609 1.433 . S
C611 N614 1.384 . S
C612 H603 0.929 . S
C612 C604 1.378 . S
C612 C607 1.350 . S
C613 H600 0.929 . S
C613 C605 1.433 . S
C613 N615 1.384 . S
N614 C610 1.427 . S
N614 C611 1.384 . S
N615 C607 1.427 . S
N615 C613 1.384 . S
H616 C622 0.930 . S
H617 C626 0.930 . S
H618 C631 0.929 . S
H619 C629 0.929 . S
H620 C624 0.929 . S
H621 C630 0.929 . S
C622 H616 0.930 . S
C622 C623 1.367 . S
C622 C630 1.378 . S
C623 C622 1.367 . S
C623 C631 1.433 . S
C624 H620 0.929 . S
C624 C626 1.378 . S
C624 C628 1.350 . S
C625 C628 1.463 . S
C625 C630 1.350 . S
C625 N633 1.427 . S
C626 H617 0.930 . S
C626 C624 1.378 . S
C626 C627 1.367 . S
C627 C626 1.367 . S
C627 C629 1.433 . S
C628 C624 1.350 . S
C628 C625 1.463 . S
C628 N632 1.427 . S
C629 H619 0.929 . S
C629 C627 1.433 . S
C629 N632 1.384 . S
C630 H621 0.929 . S
C630 C622 1.378 . S
C630 C625 1.350 . S
C631 H618 0.929 . S
C631 C623 1.433 . S
C631 N633 1.384 . S
N632 C628 1.427 . S
N632 C629 1.384 . S
N633 C625 1.427 . S
N633 C631 1.384 . S
H634 C640 0.930 . S
H635 C644 0.930 . S
H636 C649 0.929 . S
H637 C647 0.929 . S
H638 C642 0.929 . S
H639 C648 0.929 . S
C640 H634 0.930 . S
C640 C641 1.367 . S
C640 C648 1.378 . S
C641 C640 1.367 . S
C641 C649 1.433 . S
C642 H638 0.929 . S
C642 C644 1.378 . S
C642 C646 1.350 . S
C643 C646 1.463 . S
C643 C648 1.350 . S
C643 N651 1.427 . S
C644 H635 0.930 . S
C644 C642 1.378 . S
C644 C645 1.367 . S
C645 C644 1.367 . S
C645 C647 1.433 . S
C646 C642 1.350 . S
C646 C643 1.463 . S
C646 N650 1.427 . S
C647 H637 0.929 . S
C647 C645 1.433 . S
C647 N650 1.384 . S
C648 H639 0.929 . S
C648 C640 1.378 . S
C648 C643 1.350 . S
C649 H636 0.929 . S
C649 C641 1.433 . S
C649 N651 1.384 . S
N650 C646 1.427 . S
N650 C647 1.384 . S
N651 C643 1.427 . S
N651 C649 1.384 . S
H652 C658 0.930 . S
H653 C662 0.930 . S
H654 C667 0.929 . S
H655 C665 0.929 . S
H656 C660 0.929 . S
H657 C666 0.929 . S
C658 H652 0.930 . S
C658 C659 1.367 . S
C658 C666 1.378 . S
C659 C658 1.367 . S
C659 C667 1.433 . S
C660 H656 0.929 . S
C660 C662 1.378 . S
C660 C664 1.350 . S
C661 C664 1.463 . S
C661 C666 1.350 . S
C661 N669 1.427 . S
C662 H653 0.930 . S
C662 C660 1.378 . S
C662 C663 1.367 . S
C663 C662 1.367 . S
C663 C665 1.433 . S
C664 C660 1.350 . S
C664 C661 1.463 . S
C664 N668 1.427 . S
C665 H655 0.929 . S
C665 C663 1.433 . S
C665 N668 1.384 . S
C666 H657 0.929 . S
C666 C658 1.378 . S
C666 C661 1.350 . S
C667 H654 0.929 . S
C667 C659 1.433 . S
C667 N669 1.384 . S
N668 C664 1.427 . S
N668 C665 1.384 . S
N669 C661 1.427 . S
N669 C667 1.384 . S
H670 C676 0.930 . S
H671 C680 0.930 . S
H672 C685 0.929 . S
H673 C683 0.929 . S
H674 C678 0.929 . S
H675 C684 0.929 . S
C676 H670 0.930 . S
C676 C677 1.367 . S
C676 C684 1.378 . S
C677 C676 1.367 . S
C677 C685 1.433 . S
C678 H674 0.929 . S
C678 C680 1.378 . S
C678 C682 1.350 . S
C679 C682 1.463 . S
C679 C684 1.350 . S
C679 N687 1.427 . S
C680 H671 0.930 . S
C680 C678 1.378 . S
C680 C681 1.367 . S
C681 C680 1.367 . S
C681 C683 1.433 . S
C682 C678 1.350 . S
C682 C679 1.463 . S
C682 N686 1.427 . S
C683 H673 0.929 . S
C683 C681 1.433 . S
C683 N686 1.384 . S
C684 H675 0.929 . S
C684 C676 1.378 . S
C684 C679 1.350 . S
C685 H672 0.929 . S
C685 C677 1.433 . S
C685 N687 1.384 . S
N686 C682 1.427 . S
N686 C683 1.384 . S
N687 C679 1.427 . S
N687 C685 1.384 . S
H688 C694 0.930 . S
H689 C698 0.930 . S
H690 C703 0.929 . S
H691 C701 0.929 . S
H692 C696 0.929 . S
H693 C702 0.929 . S
C694 H688 0.930 . S
C694 C695 1.367 . S
C694 C702 1.378 . S
C695 C694 1.367 . S
C695 C703 1.433 . S
C696 H692 0.929 . S
C696 C698 1.378 . S
C696 C700 1.350 . S
C697 C700 1.463 . S
C697 C702 1.350 . S
C697 N705 1.427 . S
C698 H689 0.930 . S
C698 C696 1.378 . S
C698 C699 1.367 . S
C699 C698 1.367 . S
C699 C701 1.433 . S
C700 C696 1.350 . S
C700 C697 1.463 . S
C700 N704 1.427 . S
C701 H691 0.929 . S
C701 C699 1.433 . S
C701 N704 1.384 . S
C702 H693 0.929 . S
C702 C694 1.378 . S
C702 C697 1.350 . S
C703 H690 0.929 . S
C703 C695 1.433 . S
C703 N705 1.384 . S
N704 C700 1.427 . S
N704 C701 1.384 . S
N705 C697 1.427 . S
N705 C703 1.384 . S
H706 C712 0.930 . S
H707 C716 0.930 . S
H708 C721 0.929 . S
H709 C719 0.929 . S
H710 C714 0.929 . S
H711 C720 0.929 . S
C712 H706 0.930 . S
C712 C713 1.367 . S
C712 C720 1.378 . S
C713 C712 1.367 . S
C713 C721 1.433 . S
C714 H710 0.929 . S
C714 C716 1.378 . S
C714 C718 1.350 . S
C715 C718 1.463 . S
C715 C720 1.350 . S
C715 N723 1.427 . S
C716 H707 0.930 . S
C716 C714 1.378 . S
C716 C717 1.367 . S
C717 C716 1.367 . S
C717 C719 1.433 . S
C718 C714 1.350 . S
C718 C715 1.463 . S
C718 N722 1.427 . S
C719 H709 0.929 . S
C719 C717 1.433 . S
C719 N722 1.384 . S
C720 H711 0.929 . S
C720 C712 1.378 . S
C720 C715 1.350 . S
C721 H708 0.929 . S
C721 C713 1.433 . S
C721 N723 1.384 . S
N722 C718 1.427 . S
N722 C719 1.384 . S
N723 C715 1.427 . S
N723 C721 1.384 . S
H724 C730 0.930 . S
H725 C734 0.930 . S
H726 C739 0.929 . S
H727 C737 0.929 . S
H728 C732 0.929 . S
H729 C738 0.929 . S
C730 H724 0.930 . S
C730 C731 1.367 . S
C730 C738 1.378 . S
C731 C730 1.367 . S
C731 C739 1.433 . S
C732 H728 0.929 . S
C732 C734 1.378 . S
C732 C736 1.350 . S
C733 C736 1.463 . S
C733 C738 1.350 . S
C733 N741 1.427 . S
C734 H725 0.930 . S
C734 C732 1.378 . S
C734 C735 1.367 . S
C735 C734 1.367 . S
C735 C737 1.433 . S
C736 C732 1.350 . S
C736 C733 1.463 . S
C736 N740 1.427 . S
C737 H727 0.929 . S
C737 C735 1.433 . S
C737 N740 1.384 . S
C738 H729 0.929 . S
C738 C730 1.378 . S
C738 C733 1.350 . S
C739 H726 0.929 . S
C739 C731 1.433 . S
C739 N741 1.384 . S
N740 C736 1.427 . S
N740 C737 1.384 . S
N741 C733 1.427 . S
N741 C739 1.384 . S
H742 C748 0.930 . S
H743 C752 0.930 . S
H744 C757 0.929 . S
H745 C755 0.929 . S
H746 C750 0.929 . S
H747 C756 0.929 . S
C748 H742 0.930 . S
C748 C749 1.367 . S
C748 C756 1.378 . S
C749 C748 1.367 . S
C749 C757 1.433 . S
C750 H746 0.929 . S
C750 C752 1.378 . S
C750 C754 1.350 . S
C751 C754 1.463 . S
C751 C756 1.350 . S
C751 N759 1.427 . S
C752 H743 0.930 . S
C752 C750 1.378 . S
C752 C753 1.367 . S
C753 C752 1.367 . S
C753 C755 1.433 . S
C754 C750 1.350 . S
C754 C751 1.463 . S
C754 N758 1.427 . S
C755 H745 0.929 . S
C755 C753 1.433 . S
C755 N758 1.384 . S
C756 H747 0.929 . S
C756 C748 1.378 . S
C756 C751 1.350 . S
C757 H744 0.929 . S
C757 C749 1.433 . S
C757 N759 1.384 . S
N758 C754 1.427 . S
N758 C755 1.384 . S
N759 C751 1.427 . S
N759 C757 1.384 . S
H760 C766 0.930 . S
H761 C770 0.930 . S
H762 C775 0.929 . S
H763 C773 0.929 . S
H764 C768 0.929 . S
H765 C774 0.929 . S
C766 H760 0.930 . S
C766 C767 1.367 . S
C766 C774 1.378 . S
C767 C766 1.367 . S
C767 C775 1.433 . S
C768 H764 0.929 . S
C768 C770 1.378 . S
C768 C772 1.350 . S
C769 C772 1.463 . S
C769 C774 1.350 . S
C769 N777 1.427 . S
C770 H761 0.930 . S
C770 C768 1.378 . S
C770 C771 1.367 . S
C771 C770 1.367 . S
C771 C773 1.433 . S
C772 C768 1.350 . S
C772 C769 1.463 . S
C772 N776 1.427 . S
C773 H763 0.929 . S
C773 C771 1.433 . S
C773 N776 1.384 . S
C774 H765 0.929 . S
C774 C766 1.378 . S
C774 C769 1.350 . S
C775 H762 0.929 . S
C775 C767 1.433 . S
C775 N777 1.384 . S
N776 C772 1.427 . S
N776 C773 1.384 . S
N777 C769 1.427 . S
N777 C775 1.384 . S
H778 C784 0.930 . S
H779 C788 0.930 . S
H780 C793 0.929 . S
H781 C791 0.929 . S
H782 C786 0.929 . S
H783 C792 0.929 . S
C784 H778 0.930 . S
C784 C785 1.367 . S
C784 C792 1.378 . S
C785 C784 1.367 . S
C785 C793 1.433 . S
C786 H782 0.929 . S
C786 C788 1.378 . S
C786 C790 1.350 . S
C787 C790 1.463 . S
C787 C792 1.350 . S
C787 N795 1.427 . S
C788 H779 0.930 . S
C788 C786 1.378 . S
C788 C789 1.367 . S
C789 C788 1.367 . S
C789 C791 1.433 . S
C790 C786 1.350 . S
C790 C787 1.463 . S
C790 N794 1.427 . S
C791 H781 0.929 . S
C791 C789 1.433 . S
C791 N794 1.384 . S
C792 H783 0.929 . S
C792 C784 1.378 . S
C792 C787 1.350 . S
C793 H780 0.929 . S
C793 C785 1.433 . S
C793 N795 1.384 . S
N794 C790 1.427 . S
N794 C791 1.384 . S
N795 C787 1.427 . S
N795 C793 1.384 . S
H796 C802 0.930 . S
H797 C806 0.930 . S
H798 C811 0.929 . S
H799 C809 0.929 . S
H800 C804 0.929 . S
H801 C810 0.929 . S
C802 H796 0.930 . S
C802 C803 1.367 . S
C802 C810 1.378 . S
C803 C802 1.367 . S
C803 C811 1.433 . S
C804 H800 0.929 . S
C804 C806 1.378 . S
C804 C808 1.350 . S
C805 C808 1.463 . S
C805 C810 1.350 . S
C805 N813 1.427 . S
C806 H797 0.930 . S
C806 C804 1.378 . S
C806 C807 1.367 . S
C807 C806 1.367 . S
C807 C809 1.433 . S
C808 C804 1.350 . S
C808 C805 1.463 . S
C808 N812 1.427 . S
C809 H799 0.929 . S
C809 C807 1.433 . S
C809 N812 1.384 . S
C810 H801 0.929 . S
C810 C802 1.378 . S
C810 C805 1.350 . S
C811 H798 0.929 . S
C811 C803 1.433 . S
C811 N813 1.384 . S
N812 C808 1.427 . S
N812 C809 1.384 . S
N813 C805 1.427 . S
N813 C811 1.384 . S
H814 C820 0.930 . S
H815 C824 0.930 . S
H816 C829 0.929 . S
H817 C827 0.929 . S
H818 C822 0.929 . S
H819 C828 0.929 . S
C820 H814 0.930 . S
C820 C821 1.367 . S
C820 C828 1.378 . S
C821 C820 1.367 . S
C821 C829 1.433 . S
C822 H818 0.929 . S
C822 C824 1.378 . S
C822 C826 1.350 . S
C823 C826 1.463 . S
C823 C828 1.350 . S
C823 N831 1.427 . S
C824 H815 0.930 . S
C824 C822 1.378 . S
C824 C825 1.367 . S
C825 C824 1.367 . S
C825 C827 1.433 . S
C826 C822 1.350 . S
C826 C823 1.463 . S
C826 N830 1.427 . S
C827 H817 0.929 . S
C827 C825 1.433 . S
C827 N830 1.384 . S
C828 H819 0.929 . S
C828 C820 1.378 . S
C828 C823 1.350 . S
C829 H816 0.929 . S
C829 C821 1.433 . S
C829 N831 1.384 . S
N830 C826 1.427 . S
N830 C827 1.384 . S
N831 C823 1.427 . S
N831 C829 1.384 . S
H832 C838 0.930 . S
H833 C842 0.930 . S
H834 C847 0.929 . S
H835 C845 0.929 . S
H836 C840 0.929 . S
H837 C846 0.929 . S
C838 H832 0.930 . S
C838 C839 1.367 . S
C838 C846 1.378 . S
C839 C838 1.367 . S
C839 C847 1.433 . S
C840 H836 0.929 . S
C840 C842 1.378 . S
C840 C844 1.350 . S
C841 C844 1.463 . S
C841 C846 1.350 . S
C841 N849 1.427 . S
C842 H833 0.930 . S
C842 C840 1.378 . S
C842 C843 1.367 . S
C843 C842 1.367 . S
C843 C845 1.433 . S
C844 C840 1.350 . S
C844 C841 1.463 . S
C844 N848 1.427 . S
C845 H835 0.929 . S
C845 C843 1.433 . S
C845 N848 1.384 . S
C846 H837 0.929 . S
C846 C838 1.378 . S
C846 C841 1.350 . S
C847 H834 0.929 . S
C847 C839 1.433 . S
C847 N849 1.384 . S
N848 C844 1.427 . S
N848 C845 1.384 . S
N849 C841 1.427 . S
N849 C847 1.384 . S
H850 C856 0.930 . S
H851 C860 0.930 . S
H852 C865 0.929 . S
H853 C863 0.929 . S
H854 C858 0.929 . S
H855 C864 0.929 . S
C856 H850 0.930 . S
C856 C857 1.367 . S
C856 C864 1.378 . S
C857 C856 1.367 . S
C857 C865 1.433 . S
C858 H854 0.929 . S
C858 C860 1.378 . S
C858 C862 1.350 . S
C859 C862 1.463 . S
C859 C864 1.350 . S
C859 N867 1.427 . S
C860 H851 0.930 . S
C860 C858 1.378 . S
C860 C861 1.367 . S
C861 C860 1.367 . S
C861 C863 1.433 . S
C862 C858 1.350 . S
C862 C859 1.463 . S
C862 N866 1.427 . S
C863 H853 0.929 . S
C863 C861 1.433 . S
C863 N866 1.384 . S
C864 H855 0.929 . S
C864 C856 1.378 . S
C864 C859 1.350 . S
C865 H852 0.929 . S
C865 C857 1.433 . S
C865 N867 1.384 . S
N866 C862 1.427 . S
N866 C863 1.384 . S
N867 C859 1.427 . S
N867 C865 1.384 . S
H868 C874 0.930 . S
H869 C878 0.930 . S
H870 C883 0.929 . S
H871 C881 0.929 . S
H872 C876 0.929 . S
H873 C882 0.929 . S
C874 H868 0.930 . S
C874 C875 1.367 . S
C874 C882 1.378 . S
C875 C874 1.367 . S
C875 C883 1.433 . S
C876 H872 0.929 . S
C876 C878 1.378 . S
C876 C880 1.350 . S
C877 C880 1.463 . S
C877 C882 1.350 . S
C877 N885 1.427 . S
C878 H869 0.930 . S
C878 C876 1.378 . S
C878 C879 1.367 . S
C879 C878 1.367 . S
C879 C881 1.433 . S
C880 C876 1.350 . S
C880 C877 1.463 . S
C880 N884 1.427 . S
C881 H871 0.929 . S
C881 C879 1.433 . S
C881 N884 1.384 . S
C882 H873 0.929 . S
C882 C874 1.378 . S
C882 C877 1.350 . S
C883 H870 0.929 . S
C883 C875 1.433 . S
C883 N885 1.384 . S
N884 C880 1.427 . S
N884 C881 1.384 . S
N885 C877 1.427 . S
N885 C883 1.384 . S
H886 C892 0.930 . S
H887 C896 0.930 . S
H888 C901 0.929 . S
H889 C899 0.929 . S
H890 C894 0.929 . S
H891 C900 0.929 . S
C892 H886 0.930 . S
C892 C893 1.367 . S
C892 C900 1.378 . S
C893 C892 1.367 . S
C893 C901 1.433 . S
C894 H890 0.929 . S
C894 C896 1.378 . S
C894 C898 1.350 . S
C895 C898 1.463 . S
C895 C900 1.350 . S
C895 N903 1.427 . S
C896 H887 0.930 . S
C896 C894 1.378 . S
C896 C897 1.367 . S
C897 C896 1.367 . S
C897 C899 1.433 . S
C898 C894 1.350 . S
C898 C895 1.463 . S
C898 N902 1.427 . S
C899 H889 0.929 . S
C899 C897 1.433 . S
C899 N902 1.384 . S
C900 H891 0.929 . S
C900 C892 1.378 . S
C900 C895 1.350 . S
C901 H888 0.929 . S
C901 C893 1.433 . S
C901 N903 1.384 . S
N902 C898 1.427 . S
N902 C899 1.384 . S
N903 C895 1.427 . S
N903 C901 1.384 . S
C479 C1 1.049 . S
C483 C327 1.066 . S
C497 C40 1.624 . S
C501 C371 1.612 . S
C519 C401 2.177 . S
C515 C99 2.164 . S
C533 C118 2.789 . S
C537 C442 2.752 . S
C555 C358 0.776 . S
C551 C16 0.767 . S
C573 C322 2.559 . S
C569 C60 2.520 . S
C591 C450 1.180 . S
C587 C79 1.175 . S
C609 C411 2.250 . S
C605 C138 2.293 . S
C623 C21 1.023 . S
C627 C447 1.036 . S
C645 C361 2.055 . S
C641 C94 2.100 . S
C659 C133 2.104 . S
C663 C330 2.057 . S
C677 C55 1.929 . S
C681 C398 1.941 . S
C699 C318 1.087 . S
C695 C157 1.081 . S
C713 C196 1.616 . S
C717 C362 1.613 . S
C731 C255 2.171 . S
C735 C410 2.183 . S
C749 C289 2.784 . S
C753 C451 2.743 . S
C767 C172 0.766 . S
C771 C367 0.774 . S
C789 C331 2.559 . S
C785 C216 2.510 . S
C807 C441 1.169 . S
C803 C235 1.178 . S
C825 C402 2.245 . S
C821 C294 2.306 . S
C839 C177 1.014 . S
C843 C438 1.023 . S
C861 C370 2.066 . S
C857 C250 2.097 . S
C879 C321 2.061 . S
C875 C274 2.110 . S
C893 C211 1.931 . S
C897 C407 1.940 . S
