# Generated by pormake.
# Topology sqc, (4,8)-cn, num edge types: 1
# Building blocks:
#     Node 0, Type 0, BuildingBlock: AZAVOO_clean_linker_0, # of connection points: 4
#     Node 1, Type 0, BuildingBlock: AZAVOO_clean_linker_0, # of connection points: 4
#     Node 2, Type 0, BuildingBlock: AZAVOO_clean_linker_0, # of connection points: 4
#     Node 3, Type 0, BuildingBlock: AZAVOO_clean_linker_0, # of connection points: 4
#     Node 4, Type 0, BuildingBlock: AZAVOO_clean_linker_0, # of connection points: 4
#     Node 5, Type 0, BuildingBlock: AZAVOO_clean_linker_0, # of connection points: 4
#     Node 6, Type 0, BuildingBlock: AZAVOO_clean_linker_0, # of connection points: 4
#     Node 7, Type 0, BuildingBlock: AZAVOO_clean_linker_0, # of connection points: 4
#     Node 8, Type 1, BuildingBlock: VETTIZ_charged_sbu_0, # of connection points: 8
#     Node 9, Type 1, BuildingBlock: VETTIZ_charged_sbu_0, # of connection points: 8
#     Node 10, Type 1, BuildingBlock: VETTIZ_charged_sbu_0, # of connection points: 8
#     Node 11, Type 1, BuildingBlock: VETTIZ_charged_sbu_0, # of connection points: 8
#     Edge 12, Type (0, 1), BuildingBlock: XUDNAN_clean_linker_2, # of connection points: 2
#     Edge 13, Type (0, 1), BuildingBlock: XUDNAN_clean_linker_2, # of connection points: 2
#     Edge 14, Type (0, 1), BuildingBlock: XUDNAN_clean_linker_2, # of connection points: 2
#     Edge 15, Type (0, 1), BuildingBlock: XUDNAN_clean_linker_2, # of connection points: 2
#     Edge 16, Type (0, 1), BuildingBlock: XUDNAN_clean_linker_2, # of connection points: 2
#     Edge 17, Type (0, 1), BuildingBlock: XUDNAN_clean_linker_2, # of connection points: 2
#     Edge 18, Type (0, 1), BuildingBlock: XUDNAN_clean_linker_2, # of connection points: 2
#     Edge 19, Type (0, 1), BuildingBlock: XUDNAN_clean_linker_2, # of connection points: 2
#     Edge 20, Type (0, 1), BuildingBlock: XUDNAN_clean_linker_2, # of connection points: 2
#     Edge 21, Type (0, 1), BuildingBlock: XUDNAN_clean_linker_2, # of connection points: 2
#     Edge 22, Type (0, 1), BuildingBlock: XUDNAN_clean_linker_2, # of connection points: 2
#     Edge 23, Type (0, 1), BuildingBlock: XUDNAN_clean_linker_2, # of connection points: 2
#     Edge 24, Type (0, 1), BuildingBlock: XUDNAN_clean_linker_2, # of connection points: 2
#     Edge 25, Type (0, 1), BuildingBlock: XUDNAN_clean_linker_2, # of connection points: 2
#     Edge 26, Type (0, 1), BuildingBlock: XUDNAN_clean_linker_2, # of connection points: 2
#     Edge 27, Type (0, 1), BuildingBlock: XUDNAN_clean_linker_2, # of connection points: 2
#     Edge 28, Type (0, 1), BuildingBlock: XUDNAN_clean_linker_2, # of connection points: 2
#     Edge 29, Type (0, 1), BuildingBlock: XUDNAN_clean_linker_2, # of connection points: 2
#     Edge 30, Type (0, 1), BuildingBlock: XUDNAN_clean_linker_2, # of connection points: 2
#     Edge 31, Type (0, 1), BuildingBlock: XUDNAN_clean_linker_2, # of connection points: 2
#     Edge 32, Type (0, 1), BuildingBlock: XUDNAN_clean_linker_2, # of connection points: 2
#     Edge 33, Type (0, 1), BuildingBlock: XUDNAN_clean_linker_2, # of connection points: 2
#     Edge 34, Type (0, 1), BuildingBlock: XUDNAN_clean_linker_2, # of connection points: 2
#     Edge 35, Type (0, 1), BuildingBlock: XUDNAN_clean_linker_2, # of connection points: 2
#     Edge 36, Type (0, 1), BuildingBlock: XUDNAN_clean_linker_2, # of connection points: 2
#     Edge 37, Type (0, 1), BuildingBlock: XUDNAN_clean_linker_2, # of connection points: 2
#     Edge 38, Type (0, 1), BuildingBlock: XUDNAN_clean_linker_2, # of connection points: 2
#     Edge 39, Type (0, 1), BuildingBlock: XUDNAN_clean_linker_2, # of connection points: 2
#     Edge 40, Type (0, 1), BuildingBlock: XUDNAN_clean_linker_2, # of connection points: 2
#     Edge 41, Type (0, 1), BuildingBlock: XUDNAN_clean_linker_2, # of connection points: 2
#     Edge 42, Type (0, 1), BuildingBlock: XUDNAN_clean_linker_2, # of connection points: 2
#     Edge 43, Type (0, 1), BuildingBlock: XUDNAN_clean_linker_2, # of connection points: 2
# Relax obj value: 0.166
# Max RMSD: 0.286
# Mean RMSD: 0.234
data_MOF--net-sqc--node1-VETTIZ_charged_sbu_0--node2-AZAVOO_clean_linker_0--edge1-XUDNAN_clean_linker_2
_symmetry_space_group_name_H-M    P1
_symmetry_Int_Tables_number       1
_symmetry_cell_setting            triclinic
loop_
_symmetry_equiv_pos_as_xyz
'x, y, z'
_cell_length_a     26.517745
_cell_length_b     26.575856
_cell_length_c     89.769551
_cell_angle_alpha  90.782784
_cell_angle_beta   89.813268
_cell_angle_gamma 90.475542
loop_
_atom_site_label
_atom_site_type_symbol
_atom_site_fract_x
_atom_site_fract_y
_atom_site_fract_z
_atom_type_partial_charge
H0 H 0.11117 0.14882 0.62743 0.0
H1 H 0.70355 0.91477 0.51703 0.0
H2 H 0.12534 0.10119 0.53519 0.0
H3 H 0.20302 0.13221 0.54692 0.0
H4 H 0.20147 0.00477 0.57626 0.0
H5 H 0.12436 0.97334 0.56424 0.0
H6 H 0.05892 0.12109 0.56462 0.0
H7 H 0.08373 0.14723 0.5898 0.0
H8 H 0.04639 0.99861 0.60573 0.0
H9 H 0.02238 0.97273 0.58043 0.0
H10 H 0.93483 0.103 0.56344 0.0
H11 H 0.86127 0.10808 0.57999 0.0
H12 H 0.85127 0.94574 0.58026 0.0
H13 H 0.925 0.94108 0.56371 0.0
H14 H 0.88871 0.07671 0.53435 0.0
H15 H 0.79964 0.06046 0.52884 0.0
H16 H 0.83161 0.90206 0.52305 0.0
H17 H 0.92037 0.91878 0.52881 0.0
H18 H 0.96546 0.08144 0.50877 0.0
H19 H 0.91332 0.07175 0.48647 0.0
H20 H 0.94915 0.91364 0.48437 0.0
H21 H 1.0009 0.92353 0.50688 0.0
H22 H 0.08128 0.06288 0.50424 0.0
H23 H 0.14807 0.04124 0.48637 0.0
H24 H 0.1844 0.91076 0.51236 0.0
H25 H 0.11834 0.93316 0.53019 0.0
O26 O 0.10042 0.13787 0.61761 0.0
O27 O 0.08064 0.06093 0.62526 0.0
O28 O 0.72348 0.00335 0.52354 0.0
O29 O 0.73865 0.92235 0.51906 0.0
C30 C 0.066 0.0237 0.54443 0.0
C31 C 0.02696 0.0286 0.55522 0.0
C32 C 0.97646 0.01885 0.5512 0.0
C33 C 0.96434 0.00829 0.53622 0.0
C34 C 0.00269 0.00659 0.52523 0.0
C35 C 0.05393 0.01144 0.52942 0.0
C36 C 0.11893 0.03517 0.54891 0.0
C37 C 0.14273 0.07901 0.54378 0.0
C38 C 0.18694 0.09684 0.55056 0.0
C39 C 0.20781 0.0713 0.56267 0.0
C40 C 0.18576 0.02562 0.56711 0.0
C41 C 0.142 0.00743 0.56018 0.0
C42 C 0.03894 0.04502 0.57071 0.0
C43 C 0.05598 0.0943 0.57358 0.0
C44 C 0.07015 0.10911 0.58797 0.0
C45 C 0.06717 0.07498 0.59977 0.0
C46 C 0.04921 0.02582 0.59688 0.0
C47 C 0.03524 0.01099 0.58247 0.0
C48 C 0.93536 0.0217 0.56247 0.0
C49 C 0.9171 0.06859 0.56723 0.0
C50 C 0.87479 0.07137 0.57652 0.0
C51 C 0.85023 0.02727 0.58129 0.0
C52 C 0.86949 0.98031 0.5768 0.0
C53 C 0.91157 0.97758 0.5674 0.0
C54 C 0.91084 0.99888 0.53202 0.0
C55 C 0.87634 0.03857 0.53187 0.0
C56 C 0.82555 0.02916 0.52872 0.0
C57 C 0.80846 0.97987 0.5256 0.0
C58 C 0.84346 0.9404 0.52545 0.0
C59 C 0.89419 0.94984 0.52869 0.0
C60 C 0.98704 0.0032 0.50941 0.0
C61 C 0.96378 0.04514 0.50314 0.0
C62 C 0.93359 0.03948 0.49052 0.0
C63 C 0.92677 0.99189 0.48384 0.0
C64 C 0.95403 0.95082 0.48928 0.0
C65 C 0.98385 0.95641 0.50206 0.0
C66 C 0.09479 0.99958 0.51853 0.0
C67 C 0.10366 0.02962 0.50604 0.0
C68 C 0.14177 0.01704 0.49581 0.0
C69 C 0.1718 0.97418 0.49789 0.0
C70 C 0.16274 0.94443 0.51048 0.0
C71 C 0.12476 0.95704 0.52067 0.0
C72 C 0.08305 0.09064 0.615 0.0
C73 C 0.75429 0.96944 0.52269 0.0
H74 H 0.43007 0.62549 0.70979 0.0
H75 H 0.3017 0.09044 0.81766 0.0
H76 H 0.26983 0.64934 0.77903 0.0
H77 H 0.29018 0.56875 0.76695 0.0
H78 H 0.4355 0.57115 0.78853 0.0
H79 H 0.41483 0.65169 0.80047 0.0
H80 H 0.30532 0.72102 0.75592 0.0
H81 H 0.34478 0.68184 0.73398 0.0
H82 H 0.48827 0.68312 0.75677 0.0
H83 H 0.44825 0.72223 0.77859 0.0
H84 H 0.28065 0.83322 0.76248 0.0
H85 H 0.30619 0.88508 0.74131 0.0
H86 H 0.46001 0.88508 0.75717 0.0
H87 H 0.43402 0.83318 0.77823 0.0
H88 H 0.23726 0.86796 0.78775 0.0
H89 H 0.21901 0.95716 0.79204 0.0
H90 H 0.36171 0.97539 0.81476 0.0
H91 H 0.37965 0.8862 0.81024 0.0
H92 H 0.20874 0.81247 0.81452 0.0
H93 H 0.18161 0.87578 0.83284 0.0
H94 H 0.33056 0.87633 0.85218 0.0
H95 H 0.35694 0.81257 0.83392 0.0
H96 H 0.2193 0.70189 0.81541 0.0
H97 H 0.19618 0.63523 0.8328 0.0
H98 H 0.35383 0.61347 0.8428 0.0
H99 H 0.3763 0.68108 0.8257 0.0
O100 O 0.41541 0.64207 0.71842 0.0
O101 O 0.48822 0.64384 0.73064 0.0
O102 O 0.23897 0.04577 0.80195 0.0
O103 O 0.30875 0.05548 0.8154 0.0
C104 C 0.33478 0.71134 0.79392 0.0
C105 C 0.34935 0.74445 0.7825 0.0
C106 C 0.34069 0.79635 0.78405 0.0
C107 C 0.31861 0.81595 0.79715 0.0
C108 C 0.30552 0.78362 0.80899 0.0
C109 C 0.31364 0.731 0.80735 0.0
C110 C 0.34034 0.65617 0.79093 0.0
C111 C 0.30522 0.63143 0.78164 0.0
C112 C 0.31735 0.58582 0.7745 0.0
C113 C 0.36476 0.56362 0.7766 0.0
C114 C 0.39849 0.58681 0.78672 0.0
C115 C 0.3865 0.63268 0.79374 0.0
C116 C 0.37399 0.72432 0.7688 0.0
C117 C 0.34535 0.7132 0.75606 0.0
C118 C 0.36795 0.69067 0.74359 0.0
C119 C 0.41965 0.67911 0.74365 0.0
C120 C 0.44836 0.69136 0.75636 0.0
C121 C 0.42569 0.71382 0.76882 0.0
C122 C 0.3555 0.83013 0.77187 0.0
C123 C 0.3197 0.84497 0.76141 0.0
C124 C 0.33435 0.87434 0.74936 0.0
C125 C 0.38509 0.88879 0.74758 0.0
C126 C 0.42079 0.87384 0.75815 0.0
C127 C 0.40603 0.84475 0.77023 0.0
C128 C 0.30981 0.87086 0.79864 0.0
C129 C 0.2648 0.89151 0.79346 0.0
C130 C 0.25439 0.94237 0.79599 0.0
C131 C 0.28884 0.97337 0.80381 0.0
C132 C 0.33433 0.95257 0.80875 0.0
C133 C 0.34479 0.90175 0.80613 0.0
C134 C 0.28472 0.80706 0.82294 0.0
C135 C 0.23488 0.82463 0.82312 0.0
C136 C 0.21975 0.86175 0.83343 0.0
C137 C 0.25406 0.88215 0.8439 0.0
C138 C 0.30287 0.86156 0.84441 0.0
C139 C 0.31798 0.82452 0.83404 0.0
C140 C 0.29941 0.69609 0.81931 0.0
C141 C 0.24866 0.68336 0.8216 0.0
C142 C 0.23564 0.64495 0.8314 0.0
C143 C 0.27326 0.61865 0.83904 0.0
C144 C 0.32397 0.63316 0.83717 0.0
C145 C 0.3369 0.67159 0.82738 0.0
C146 C 0.44333 0.65401 0.73054 0.0
C147 C 0.27722 0.02702 0.80694 0.0
H148 H 0.48249 0.89699 0.12962 0.0
H149 H 0.87131 0.16223 0.03449 0.0
H150 H 0.46801 0.9337 0.05193 0.0
H151 H 0.38758 0.91708 0.06416 0.0
H152 H 0.34586 0.07256 0.05821 0.0
H153 H 0.42832 0.0895 0.04719 0.0
H154 H 0.56372 0.9311 0.06992 0.0
H155 H 0.53682 0.90327 0.09459 0.0
H156 H 0.46289 0.04591 0.10206 0.0
H157 H 0.49068 0.07351 0.07744 0.0
H158 H 0.6593 0.95514 0.05862 0.0
H159 H 0.72458 0.94851 0.07768 0.0
H160 H 0.68421 0.09546 0.09497 0.0
H161 H 0.61815 0.10101 0.07601 0.0
H162 H 0.68664 0.9904 0.03085 0.0
H163 H 0.77557 0.01307 0.02738 0.0
H164 H 0.74239 0.16658 0.0404 0.0
H165 H 0.65356 0.14331 0.04379 0.0
H166 H 0.62212 0.00537 0.00658 0.0
H167 H 0.67984 0.04196 0.9882 0.0
H168 H 0.62835 0.19049 1.00032 0.0
H169 H 0.5722 0.15389 0.01918 0.0
H170 H 0.48017 0.96978 0.01423 0.0
H171 H 0.41106 0.97719 0.99638 0.0
H172 H 0.4079 0.13781 0.0048 0.0
H173 H 0.47814 0.12994 0.02208 0.0
O174 O 0.49313 0.90894 0.11996 0.0
O175 O 0.4555 0.98277 0.12321 0.0
O176 O 0.85045 0.07433 0.02742 0.0
O177 O 0.83625 0.15241 0.03552 0.0
C178 C 0.50822 0.02563 0.04539 0.0
C179 C 0.54467 0.02069 0.05682 0.0
C180 C 0.59561 0.03292 0.05407 0.0
C181 C 0.61028 0.05106 0.04005 0.0
C182 C 0.57424 0.05702 0.02861 0.0
C183 C 0.52298 0.04412 0.03123 0.0
C184 C 0.45447 0.01295 0.04878 0.0
C185 C 0.44104 0.96394 0.05301 0.0
C186 C 0.39468 0.95447 0.05997 0.0
C187 C 0.36014 0.99366 0.06253 0.0
C188 C 0.37192 0.04167 0.0569 0.0
C189 C 0.4188 0.05133 0.05028 0.0
C190 C 0.52925 0.00433 0.07193 0.0
C191 C 0.5421 0.95641 0.07696 0.0
C192 C 0.52649 0.94055 0.09103 0.0
C193 C 0.49765 0.97235 0.1003 0.0
C194 C 0.48505 0.02049 0.09521 0.0
C195 C 0.50084 0.03635 0.08116 0.0
C196 C 0.63389 0.02838 0.06602 0.0
C197 C 0.66451 0.98574 0.06658 0.0
C198 C 0.70213 0.98232 0.07738 0.0
C199 C 0.70998 0.02165 0.08781 0.0
C200 C 0.67895 0.06432 0.08721 0.0
C201 C 0.64124 0.06762 0.0764 0.0
C202 C 0.66388 0.06528 0.03754 0.0
C203 C 0.69872 0.02891 0.03289 0.0
C204 C 0.74942 0.04197 0.03092 0.0
C205 C 0.76611 0.09162 0.03368 0.0
C206 C 0.73084 0.128 0.03824 0.0
C207 C 0.68012 0.11489 0.04016 0.0
C208 C 0.59233 0.07683 0.01412 0.0
C209 C 0.62161 0.04562 0.00483 0.0
C210 C 0.65508 0.06655 0.99451 0.0
C211 C 0.65874 0.11897 0.99301 0.0
C212 C 0.62601 0.14995 1.00128 0.0
C213 C 0.59337 0.12904 0.01188 0.0
C214 C 0.48464 0.0494 0.01931 0.0
C215 C 0.46507 0.00664 0.01196 0.0
C216 C 0.42511 0.01094 0.00189 0.0
C217 C 0.40344 0.05812 0.99909 0.0
C218 C 0.42397 0.10096 0.00636 0.0
C219 C 0.46422 0.09662 0.0163 0.0
C220 C 0.48075 0.95521 0.11518 0.0
C221 C 0.82014 0.10539 0.03199 0.0
H222 H 0.11765 0.20591 0.20849 0.0
H223 H 0.42475 0.60493 0.30056 0.0
H224 H 0.20553 0.20375 0.28193 0.0
H225 H 0.17683 0.12103 0.27273 0.0
H226 H 0.33142 0.07582 0.26656 0.0
H227 H 0.36021 0.15916 0.27546 0.0
H228 H 0.19273 0.29646 0.26395 0.0
H229 H 0.14843 0.26675 0.24161 0.0
H230 H 0.28508 0.19528 0.22602 0.0
H231 H 0.32916 0.22603 0.2483 0.0
H232 H 0.22175 0.38971 0.27927 0.0
H233 H 0.18824 0.45212 0.26213 0.0
H234 H 0.30994 0.42144 0.23139 0.0
H235 H 0.34288 0.35793 0.24853 0.0
H236 H 0.28275 0.39928 0.31006 0.0
H237 H 0.30425 0.48606 0.31716 0.0
H238 H 0.41787 0.48914 0.2825 0.0
H239 H 0.39639 0.40213 0.27564 0.0
H240 H 0.29821 0.29675 0.3263 0.0
H241 H 0.33014 0.33684 0.34917 0.0
H242 H 0.46496 0.38263 0.3258 0.0
H243 H 0.43389 0.34082 0.30305 0.0
H244 H 0.2592 0.20275 0.31311 0.0
H245 H 0.27521 0.1362 0.33091 0.0
H246 H 0.43439 0.14402 0.32051 0.0
H247 H 0.41788 0.21207 0.30302 0.0
O248 O 0.13633 0.21877 0.21698 0.0
O249 O 0.20746 0.18227 0.20957 0.0
O250 O 0.35276 0.56908 0.31448 0.0
O251 O 0.41516 0.57077 0.29788 0.0
C252 C 0.30136 0.23979 0.28222 0.0
C253 C 0.2899 0.2778 0.27185 0.0
C254 C 0.3019 0.32859 0.27515 0.0
C255 C 0.32679 0.34093 0.2886 0.0
C256 C 0.33971 0.30249 0.29871 0.0
C257 C 0.32665 0.25192 0.2956 0.0
C258 C 0.28485 0.18739 0.27917 0.0
C259 C 0.2332 0.17564 0.27888 0.0
C260 C 0.2169 0.12859 0.27374 0.0
C261 C 0.25216 0.09262 0.26913 0.0
C262 C 0.30389 0.10316 0.27029 0.0
C263 C 0.32023 0.15049 0.2753 0.0
C264 C 0.26428 0.26387 0.25766 0.0
C265 C 0.21329 0.27529 0.25556 0.0
C266 C 0.18797 0.25788 0.24284 0.0
C267 C 0.21317 0.22848 0.23205 0.0
C268 C 0.26454 0.21781 0.23411 0.0
C269 C 0.28985 0.23546 0.24679 0.0
C270 C 0.28459 0.36914 0.26512 0.0
C271 C 0.24148 0.39675 0.26891 0.0
C272 C 0.2224 0.43229 0.25912 0.0
C273 C 0.24656 0.44154 0.24546 0.0
C274 C 0.29089 0.41526 0.24191 0.0
C275 C 0.30953 0.37893 0.25162 0.0
C276 C 0.33808 0.39446 0.29236 0.0
C277 C 0.31218 0.41883 0.304 0.0
C278 C 0.32451 0.46839 0.30802 0.0
C279 C 0.36284 0.49453 0.3004 0.0
C280 C 0.38825 0.47009 0.28862 0.0
C281 C 0.37591 0.42049 0.28462 0.0
C282 C 0.36371 0.31622 0.31304 0.0
C283 C 0.33565 0.31336 0.32629 0.0
C284 C 0.35383 0.3361 0.33931 0.0
C285 C 0.39984 0.36234 0.33909 0.0
C286 C 0.42957 0.36198 0.32614 0.0
C287 C 0.41181 0.33849 0.3132 0.0
C288 C 0.33726 0.21196 0.30665 0.0
C289 C 0.29753 0.19014 0.3147 0.0
C290 C 0.30684 0.15189 0.32484 0.0
C291 C 0.35612 0.13411 0.32708 0.0
C292 C 0.39606 0.15692 0.31921 0.0
C293 C 0.38669 0.19557 0.30911 0.0
C294 C 0.1857 0.20844 0.21883 0.0
C295 C 0.37644 0.54701 0.30472 0.0
H296 H 0.8862 0.19885 0.2038 0.0
H297 H 0.8004 0.58366 0.33891 0.0
H298 H 0.74408 0.17535 0.27096 0.0
H299 H 0.77734 0.10561 0.25595 0.0
H300 H 0.90255 0.09356 0.2863 0.0
H301 H 0.86957 0.16415 0.30103 0.0
H302 H 0.77064 0.27425 0.25496 0.0
H303 H 0.80716 0.24777 0.23104 0.0
H304 H 0.94368 0.20446 0.25359 0.0
H305 H 0.90698 0.23178 0.27736 0.0
H306 H 0.75574 0.38347 0.26978 0.0
H307 H 0.79016 0.45427 0.25566 0.0
H308 H 0.94091 0.41186 0.26843 0.0
H309 H 0.90592 0.34244 0.28289 0.0
H310 H 0.70949 0.39481 0.29694 0.0
H311 H 0.70017 0.47965 0.30752 0.0
H312 H 0.84913 0.46993 0.32669 0.0
H313 H 0.85796 0.38525 0.31596 0.0
H314 H 0.67736 0.3222 0.31817 0.0
H315 H 0.65782 0.38409 0.33756 0.0
H316 H 0.80579 0.36343 0.35649 0.0
H317 H 0.82585 0.30413 0.33644 0.0
H318 H 0.69708 0.17612 0.30475 0.0
H319 H 0.67587 0.10755 0.32178 0.0
H320 H 0.80764 0.14458 0.34807 0.0
H321 H 0.82831 0.21281 0.33105 0.0
O322 O 0.87292 0.21018 0.21331 0.0
O323 O 0.94184 0.18763 0.2255 0.0
O324 O 0.7285 0.55525 0.32342 0.0
O325 O 0.80406 0.55126 0.33399 0.0
C326 C 0.79655 0.22833 0.29211 0.0
C327 C 0.81246 0.26721 0.28247 0.0
C328 C 0.80774 0.31794 0.28688 0.0
C329 C 0.7873 0.33039 0.30092 0.0
C330 C 0.77218 0.29205 0.31084 0.0
C331 C 0.77714 0.24072 0.30646 0.0
C332 C 0.80447 0.17519 0.28708 0.0
C333 C 0.77742 0.15612 0.27477 0.0
C334 C 0.79672 0.11636 0.26612 0.0
C335 C 0.84331 0.09477 0.2697 0.0
C336 C 0.86715 0.11012 0.28304 0.0
C337 C 0.84786 0.14992 0.29166 0.0
C338 C 0.83605 0.25457 0.26787 0.0
C339 C 0.8086 0.25951 0.25466 0.0
C340 C 0.82948 0.24415 0.24104 0.0
C341 C 0.87823 0.22368 0.24041 0.0
C342 C 0.90599 0.21987 0.25367 0.0
C343 C 0.88515 0.23544 0.26726 0.0
C344 C 0.82842 0.35821 0.27737 0.0
C345 C 0.79617 0.38953 0.26944 0.0
C346 C 0.81592 0.42963 0.26132 0.0
C347 C 0.86825 0.43881 0.26101 0.0
C348 C 0.90041 0.4063 0.26866 0.0
C349 C 0.88061 0.36643 0.27681 0.0
C350 C 0.78433 0.38403 0.30572 0.0
C351 C 0.74034 0.41148 0.30321 0.0
C352 C 0.73504 0.45977 0.30934 0.0
C353 C 0.77378 0.48142 0.31806 0.0
C354 C 0.81851 0.45433 0.32009 0.0
C355 C 0.82379 0.40609 0.31392 0.0
C356 C 0.75303 0.30818 0.32582 0.0
C357 C 0.70466 0.32911 0.32693 0.0
C358 C 0.69373 0.36514 0.33803 0.0
C359 C 0.73072 0.38031 0.34845 0.0
C360 C 0.77682 0.35422 0.34841 0.0
C361 C 0.78797 0.31891 0.33716 0.0
C362 C 0.7636 0.20008 0.31687 0.0
C363 C 0.72113 0.16945 0.31425 0.0
C364 C 0.70935 0.1301 0.32389 0.0
C365 C 0.73992 0.12083 0.33632 0.0
C366 C 0.78282 0.15132 0.33876 0.0
C367 C 0.7946 0.19044 0.3291 0.0
C368 C 0.89977 0.20609 0.226 0.0
C369 C 0.76729 0.53159 0.32525 0.0
H370 H 0.62969 0.96277 0.71943 0.0
H371 H 0.73569 0.43922 0.80724 0.0
H372 H 0.79975 0.88858 0.79163 0.0
H373 H 0.79828 0.96826 0.77862 0.0
H374 H 0.63511 0.96339 0.77893 0.0
H375 H 0.63751 0.88693 0.79341 0.0
H376 H 0.75116 0.8492 0.76119 0.0
H377 H 0.7141 0.899 0.7414 0.0
H378 H 0.56569 0.84577 0.7541 0.0
H379 H 0.60332 0.79652 0.77402 0.0
H380 H 0.74955 0.74912 0.75531 0.0
H381 H 0.73167 0.69899 0.73319 0.0
H382 H 0.62137 0.61277 0.75805 0.0
H383 H 0.63501 0.66812 0.77961 0.0
H384 H 0.79535 0.66275 0.77872 0.0
H385 H 0.80849 0.57175 0.77962 0.0
H386 H 0.6891 0.55941 0.81235 0.0
H387 H 0.67588 0.65026 0.81115 0.0
H388 H 0.84213 0.70981 0.80739 0.0
H389 H 0.87584 0.6476 0.82453 0.0
H390 H 0.74073 0.6592 0.85126 0.0
H391 H 0.70743 0.72178 0.83408 0.0
H392 H 0.83922 0.80799 0.81635 0.0
H393 H 0.87209 0.8584 0.83719 0.0
H394 H 0.72294 0.91597 0.84584 0.0
H395 H 0.68949 0.86337 0.82535 0.0
O396 O 0.64377 0.94067 0.72679 0.0
O397 O 0.56868 0.90918 0.7329 0.0
O398 O 0.79069 0.48317 0.78925 0.0
O399 O 0.73068 0.47511 0.80644 0.0
C400 C 0.71942 0.82473 0.79461 0.0
C401 C 0.70189 0.79507 0.78241 0.0
C402 C 0.70666 0.7423 0.78255 0.0
C403 C 0.72858 0.71854 0.79489 0.0
C404 C 0.74692 0.74756 0.80705 0.0
C405 C 0.74217 0.80079 0.80693 0.0
C406 C 0.71875 0.88085 0.79313 0.0
C407 C 0.76374 0.90621 0.78966 0.0
C408 C 0.76264 0.9513 0.78176 0.0
C409 C 0.71653 0.97123 0.77676 0.0
C410 C 0.67157 0.94953 0.78224 0.0
C411 C 0.6728 0.90544 0.79065 0.0
C412 C 0.67986 0.81978 0.76916 0.0
C413 C 0.7107 0.84799 0.7596 0.0
C414 C 0.68941 0.87646 0.74831 0.0
C415 C 0.63689 0.87684 0.74628 0.0
C416 C 0.60627 0.84659 0.75544 0.0
C417 C 0.62764 0.81822 0.76677 0.0
C418 C 0.69346 0.71242 0.76905 0.0
C419 C 0.72024 0.72057 0.75582 0.0
C420 C 0.71057 0.69112 0.74325 0.0
C421 C 0.67587 0.65089 0.74385 0.0
C422 C 0.64799 0.64364 0.75705 0.0
C423 C 0.65627 0.67469 0.76949 0.0
C424 C 0.73467 0.66298 0.79486 0.0
C425 C 0.77178 0.6402 0.78596 0.0
C426 C 0.77931 0.58829 0.78655 0.0
C427 C 0.74992 0.55831 0.7961 0.0
C428 C 0.71242 0.58134 0.80489 0.0
C429 C 0.70478 0.6332 0.80423 0.0
C430 C 0.77236 0.72078 0.8195 0.0
C431 C 0.82061 0.70036 0.81725 0.0
C432 C 0.83979 0.66464 0.82705 0.0
C433 C 0.81082 0.64801 0.8392 0.0
C434 C 0.76383 0.67086 0.84193 0.0
C435 C 0.74494 0.70708 0.83222 0.0
C436 C 0.76186 0.83141 0.8195 0.0
C437 C 0.81337 0.83047 0.82295 0.0
C438 C 0.83209 0.85925 0.8348 0.0
C439 C 0.79974 0.89031 0.84313 0.0
C440 C 0.74831 0.89187 0.83957 0.0
C441 C 0.72937 0.86216 0.8279 0.0
C442 C 0.61424 0.90962 0.7349 0.0
C443 C 0.75844 0.50331 0.797 0.0
H444 H 0.43359 0.48212 0.93941 0.0
H445 H 0.83969 0.53323 0.06995 0.0
H446 H 0.43428 0.64238 0.01158 0.0
H447 H 0.35867 0.63082 0.99621 0.0
H448 H 0.33785 0.48213 0.01414 0.0
H449 H 0.41326 0.49407 0.02948 0.0
H450 H 0.50236 0.59855 0.99142 0.0
H451 H 0.47505 0.5633 0.96739 0.0
H452 H 0.47492 0.41422 0.98612 0.0
H453 H 0.50164 0.45011 0.01013 0.0
H454 H 0.6146 0.58979 0.99794 0.0
H455 H 0.67614 0.55287 0.98073 0.0
H456 H 0.67 0.41388 0.0052 0.0
H457 H 0.60925 0.45187 0.02258 0.0
H458 H 0.65776 0.6323 0.02861 0.0
H459 H 0.74483 0.63455 0.03764 0.0
H460 H 0.71713 0.49718 0.06174 0.0
H461 H 0.63019 0.49552 0.05263 0.0
H462 H 0.58331 0.68129 0.04897 0.0
H463 H 0.6504 0.70471 0.06616 0.0
H464 H 0.62373 0.56757 0.09045 0.0
H465 H 0.55869 0.54323 0.07254 0.0
H466 H 0.43413 0.66908 0.03983 0.0
H467 H 0.35901 0.68571 0.05507 0.0
H468 H 0.39231 0.5564 0.08181 0.0
H469 H 0.46644 0.53916 0.06627 0.0
O470 O 0.44468 0.49529 0.94897 0.0
O471 O 0.45316 0.41894 0.95843 0.0
O472 O 0.81842 0.60282 0.05318 0.0
O473 O 0.80606 0.53232 0.0658 0.0
C474 C 0.48212 0.56923 0.02684 0.0
C475 C 0.51886 0.54836 0.01715 0.0
C476 C 0.5695 0.5458 0.02163 0.0
C477 C 0.58391 0.56518 0.03564 0.0
C478 C 0.54746 0.58654 0.04541 0.0
C479 C 0.49599 0.58736 0.04119 0.0
C480 C 0.429 0.56916 0.02171 0.0
C481 C 0.412 0.60829 0.0127 0.0
C482 C 0.36905 0.60152 0.00386 0.0
C483 C 0.343 0.55531 0.00382 0.0
C484 C 0.35768 0.51791 0.01383 0.0
C485 C 0.4003 0.52486 0.02274 0.0
C486 C 0.50377 0.52684 0.00247 0.0
C487 C 0.49635 0.55831 0.99029 0.0
C488 C 0.48074 0.53808 0.9766 0.0
C489 C 0.4728 0.48594 0.97484 0.0
C490 C 0.48078 0.45451 0.98709 0.0
C491 C 0.49609 0.47485 1.00079 0.0
C492 C 0.60766 0.52347 0.01147 0.0
C493 C 0.62674 0.55144 0.99958 0.0
C494 C 0.66156 0.53009 0.9897 0.0
C495 C 0.67775 0.48022 0.99151 0.0
C496 C 0.65871 0.45247 0.00356 0.0
C497 C 0.62394 0.47398 0.01346 0.0
C498 C 0.63781 0.5639 0.04005 0.0
C499 C 0.67082 0.60249 0.03571 0.0
C500 C 0.72041 0.60376 0.04093 0.0
C501 C 0.73786 0.56618 0.05049 0.0
C502 C 0.70491 0.52677 0.05444 0.0
C503 C 0.65531 0.52562 0.04923 0.0
C504 C 0.56603 0.61046 0.05943 0.0
C505 C 0.59006 0.65758 0.05847 0.0
C506 C 0.62901 0.67068 0.06829 0.0
C507 C 0.64393 0.63724 0.07945 0.0
C508 C 0.61459 0.59347 0.08167 0.0
C509 C 0.57621 0.58003 0.07168 0.0
C510 C 0.45601 0.60295 0.05193 0.0
C511 C 0.42552 0.64465 0.04907 0.0
C512 C 0.38246 0.6539 0.05772 0.0
C513 C 0.36947 0.62205 0.06955 0.0
C514 C 0.40144 0.58174 0.07283 0.0
C515 C 0.44405 0.57208 0.06403 0.0
C516 C 0.45635 0.46453 0.96028 0.0
C517 C 0.78992 0.56832 0.05651 0.0
H518 H 0.01359 0.33959 0.62559 0.0
H519 H 0.37228 0.65085 0.53736 0.0
H520 H 0.97873 0.40718 0.55188 0.0
H521 H 0.90028 0.38334 0.56393 0.0
H522 H 0.84684 0.53599 0.55947 0.0
H523 H 0.92825 0.56045 0.5492 0.0
H524 H 0.08134 0.40311 0.56665 0.0
H525 H 0.06129 0.36394 0.59047 0.0
H526 H 0.97509 0.49498 0.60342 0.0
H527 H 0.99596 0.53398 0.57963 0.0
H528 H 0.17863 0.4445 0.55038 0.0
H529 H 0.25308 0.4362 0.56615 0.0
H530 H 0.19267 0.54717 0.59679 0.0
H531 H 0.11838 0.55583 0.58076 0.0
H532 H 0.18176 0.49367 0.52168 0.0
H533 H 0.27014 0.51897 0.51838 0.0
H534 H 0.24842 0.64203 0.54969 0.0
H535 H 0.16028 0.61619 0.55293 0.0
H536 H 0.08994 0.50793 0.50193 0.0
H537 H 0.14312 0.54822 0.48295 0.0
H538 H 0.1476 0.68449 0.50954 0.0
H539 H 0.09308 0.64492 0.52818 0.0
H540 H 0.96946 0.45704 0.51703 0.0
H541 H 0.89748 0.47053 0.50056 0.0
H542 H 0.91456 0.63122 0.50694 0.0
H543 H 0.98551 0.61727 0.52369 0.0
O544 O 0.02141 0.35597 0.61629 0.0
O545 O 0.97741 0.42413 0.62239 0.0
O546 O 0.35008 0.56783 0.52641 0.0
O547 O 0.33722 0.64084 0.53816 0.0
C548 C 0.01258 0.50246 0.54625 0.0
C549 C 0.05156 0.49468 0.55682 0.0
C550 C 0.10141 0.51022 0.55371 0.0
C551 C 0.11222 0.53555 0.54038 0.0
C552 C 0.07353 0.54506 0.52998 0.0
C553 C 0.02365 0.52764 0.5327 0.0
C554 C 0.96002 0.48586 0.54994 0.0
C555 C 0.94993 0.43544 0.55347 0.0
C556 C 0.90438 0.42173 0.56026 0.0
C557 C 0.86676 0.4578 0.56315 0.0
C558 C 0.87524 0.50729 0.55811 0.0
C559 C 0.92161 0.52132 0.55187 0.0
C560 C 0.04009 0.47135 0.57142 0.0
C561 C 0.05843 0.42341 0.57469 0.0
C562 C 0.04676 0.40107 0.58829 0.0
C563 C 0.01651 0.42629 0.59885 0.0
C564 C 0.99844 0.4745 0.59554 0.0
C565 C 0.01027 0.49685 0.58196 0.0
C566 C 0.1431 0.50079 0.5644 0.0
C567 C 0.1813 0.46677 0.56055 0.0
C568 C 0.22399 0.46243 0.56949 0.0
C569 C 0.22906 0.49158 0.5826 0.0
C570 C 0.1898 0.52426 0.58675 0.0
C571 C 0.14729 0.52906 0.57767 0.0
C572 C 0.16476 0.55312 0.53753 0.0
C573 C 0.1961 0.52634 0.5277 0.0
C574 C 0.24656 0.54069 0.52591 0.0
C575 C 0.26637 0.58228 0.53388 0.0
C576 C 0.23437 0.6098 0.54341 0.0
C577 C 0.18407 0.59516 0.54528 0.0
C578 C 0.08743 0.57353 0.51642 0.0
C579 C 0.10003 0.54731 0.50326 0.0
C580 C 0.13087 0.5701 0.49254 0.0
C581 C 0.14976 0.61905 0.49498 0.0
C582 C 0.13352 0.64664 0.50749 0.0
C583 C 0.10193 0.62428 0.51803 0.0
C584 C 0.98296 0.53613 0.52159 0.0
C585 C 0.95787 0.49517 0.51478 0.0
C586 C 0.91683 0.50297 0.50531 0.0
C587 C 0.89989 0.55197 0.50247 0.0
C588 C 0.92599 0.59294 0.50904 0.0
C589 C 0.96702 0.5851 0.51849 0.0
C590 C 0.00384 0.40226 0.61323 0.0
C591 C 0.32038 0.59643 0.53251 0.0
Fe592 Fe 0.04518 0.78745 0.18249 0.0
O593 O 0.08385 0.81928 0.16609 0.0
Fe594 Fe 0.92375 0.77755 0.16972 0.0
Fe595 Fe 0.15671 0.80877 0.16417 0.0
O596 O 0.99604 0.76841 0.16673 0.0
O597 O 0.99616 0.76735 0.16526 0.0
O598 O 0.08332 0.81985 0.16465 0.0
Fe599 Fe 0.03475 0.79942 0.14851 0.0
C600 C 0.13689 0.84451 0.19558 0.0
O601 O 0.08045 0.72082 0.17874 0.0
O602 O 0.15955 0.74777 0.17889 0.0
O603 O 0.97666 0.77276 0.13417 0.0
O604 O 0.91767 0.73621 0.15007 0.0
O605 O 0.93264 0.71905 0.18449 0.0
O606 O 1.00001 0.75012 0.19788 0.0
O607 O 0.15318 0.75902 0.14674 0.0
O608 O 0.0732 0.73312 0.14385 0.0
C609 C 0.96243 0.7191 0.19596 0.0
O610 O 0.99641 0.86648 0.15127 0.0
O611 O 0.91809 0.83952 0.15656 0.0
O612 O 0.10077 0.81191 0.19744 0.0
O613 O 0.1581 0.85445 0.1829 0.0
C614 C 0.12667 0.71335 0.18126 0.0
C615 C 0.12047 0.72888 0.14129 0.0
C616 C 0.12431 0.86363 0.13587 0.0
O617 O 0.15136 0.86357 0.14799 0.0
O618 O 0.08334 0.83692 0.13346 0.0
C619 C 0.93695 0.74474 0.13697 0.0
O620 O 0.93108 0.82562 0.1883 0.0
O621 O 0.00966 0.85412 0.18669 0.0
C622 C 0.94887 0.87308 0.1521 0.0
C623 C 0.9651 0.85801 0.19172 0.0
Fe624 Fe 0.56008 0.793 0.45456 0.0
O625 O 0.57055 0.77836 0.43306 0.0
Fe626 Fe 0.54386 0.83155 0.41789 0.0
Fe627 Fe 0.54368 0.7166 0.42279 0.0
O628 O 0.56951 0.78309 0.43291 0.0
O629 O 0.51421 0.77024 0.40804 0.0
O630 O 0.51589 0.76508 0.40811 0.0
Fe631 Fe 0.52181 0.75629 0.3865 0.0
C632 C 0.60669 0.68793 0.45078 0.0
O633 O 0.50056 0.74228 0.45732 0.0
O634 O 0.47704 0.72253 0.43419 0.0
O635 O 0.47177 0.81542 0.38561 0.0
O636 O 0.51084 0.87487 0.40083 0.0
O637 O 0.47777 0.84169 0.42966 0.0
O638 O 0.50767 0.84954 0.45263 0.0
O639 O 0.51029 0.65851 0.4104 0.0
O640 O 0.4723 0.69718 0.39051 0.0
C641 C 0.47231 0.85449 0.44325 0.0
O642 O 0.57593 0.81174 0.38313 0.0
O643 O 0.60862 0.82369 0.40557 0.0
O644 O 0.60812 0.7331 0.45643 0.0
O645 O 0.57785 0.67359 0.43969 0.0
C646 C 0.46736 0.72747 0.44797 0.0
C647 C 0.48008 0.65863 0.399 0.0
C648 C 0.60965 0.6895 0.39728 0.0
O649 O 0.60957 0.7067 0.41063 0.0
O650 O 0.57609 0.70153 0.3879 0.0
C651 C 0.47878 0.8614 0.39043 0.0
O652 O 0.58293 0.88828 0.43016 0.0
O653 O 0.61394 0.84733 0.45082 0.0
C654 C 0.60917 0.83149 0.39163 0.0
C655 C 0.61467 0.88333 0.44119 0.0
Fe656 Fe 0.54557 0.25935 0.68502 0.0
O657 O 0.588 0.25175 0.66679 0.0
Fe658 Fe 0.42336 0.26497 0.66953 0.0
Fe659 Fe 0.66024 0.25864 0.66484 0.0
O660 O 0.496 0.27235 0.66891 0.0
O661 O 0.49498 0.25445 0.66647 0.0
O662 O 0.58809 0.2701 0.66495 0.0
Fe663 Fe 0.53788 0.26509 0.64846 0.0
C664 C 0.62384 0.34776 0.68444 0.0
O665 O 0.59986 0.23541 0.69962 0.0
O666 O 0.66279 0.21393 0.68381 0.0
O667 O 0.48074 0.24894 0.63377 0.0
O668 O 0.41641 0.22576 0.64913 0.0
O669 O 0.42907 0.19814 0.68123 0.0
O670 O 0.51399 0.18712 0.68474 0.0
O671 O 0.65111 0.19615 0.65135 0.0
O672 O 0.56658 0.19125 0.64556 0.0
C673 C 0.4677 0.17142 0.68485 0.0
O674 O 0.50844 0.33905 0.64936 0.0
O675 O 0.4265 0.33011 0.65738 0.0
O676 O 0.57794 0.33168 0.68621 0.0
O677 O 0.65983 0.32211 0.67832 0.0
C678 C 0.64066 0.21182 0.69657 0.0
C679 C 0.61223 0.17377 0.64559 0.0
C680 C 0.63267 0.30578 0.63386 0.0
O681 O 0.65897 0.30264 0.64583 0.0
O682 O 0.5883 0.2868 0.63213 0.0
C683 C 0.43746 0.22833 0.63615 0.0
O684 O 0.42933 0.30611 0.6897 0.0
O685 O 0.49718 0.27765 0.70214 0.0
C686 C 0.46222 0.35462 0.65073 0.0
C687 C 0.45671 0.30357 0.70151 0.0
Fe688 Fe 0.06419 0.28245 0.94989 0.0
O689 O 0.07502 0.27339 0.92816 0.0
Fe690 Fe 0.04568 0.32925 0.91417 0.0
Fe691 Fe 0.04746 0.21321 0.91728 0.0
O692 O 0.07373 0.27858 0.92813 0.0
O693 O 0.0193 0.26872 0.90319 0.0
O694 O 0.02001 0.26386 0.90327 0.0
Fe695 Fe 0.02549 0.25884 0.88159 0.0
C696 C 0.11518 0.18234 0.94386 0.0
O697 O 0.01034 0.22581 0.95187 0.0
O698 O 0.98082 0.21883 0.92894 0.0
O699 O 0.97467 0.31816 0.88157 0.0
O700 O 0.0112 0.37508 0.89806 0.0
O701 O 0.97928 0.33279 0.92571 0.0
O702 O 0.00612 0.33397 0.94918 0.0
O703 O 0.01251 0.15748 0.90436 0.0
O704 O 0.9753 0.19953 0.88489 0.0
C705 C 0.97214 0.34136 0.93948 0.0
O706 O 0.0807 0.314 0.87934 0.0
O707 O 0.1114 0.32768 0.90215 0.0
O708 O 0.11693 0.22669 0.95007 0.0
O709 O 0.08266 0.16808 0.93366 0.0
C710 C 0.97412 0.21763 0.94291 0.0
C711 C 0.98093 0.16038 0.89333 0.0
C712 C 0.11304 0.18875 0.89126 0.0
O713 O 0.11275 0.2039 0.90484 0.0
O714 O 0.07998 0.20341 0.88201 0.0
C715 C 0.97962 0.36302 0.88744 0.0
O716 O 0.07878 0.38626 0.92779 0.0
O717 O 0.11262 0.3423 0.94741 0.0
C718 C 0.11415 0.33244 0.8881 0.0
C719 C 0.10903 0.38179 0.93914 0.0
H720 H 0.26595 0.93609 0.50371 0.0
H721 H 0.16919 0.97998 0.46728 0.0
H722 H 0.23551 0.95534 0.44927 0.0
H723 H 0.38313 0.97714 0.48813 0.0
H724 H 0.41819 0.92442 0.49495 0.0
H725 H 0.36326 0.94602 0.50491 0.0
H726 H 0.32395 0.85641 0.50307 0.0
H727 H 0.37871 0.83448 0.49307 0.0
H728 H 0.31693 0.82667 0.48502 0.0
H729 H 0.31252 0.92326 0.43511 0.0
H730 H 0.39403 0.88922 0.42624 0.0
H731 H 0.4394 0.86648 0.47206 0.0
C732 C 0.25842 0.94029 0.49195 0.0
C733 C 0.21216 0.96016 0.48697 0.0
C734 C 0.20446 0.96559 0.47144 0.0
C735 C 0.24182 0.95135 0.4611 0.0
C736 C 0.28681 0.9317 0.46641 0.0
C737 C 0.2952 0.92625 0.48149 0.0
C738 C 0.34653 0.90379 0.48435 0.0
C739 C 0.37973 0.94002 0.49363 0.0
C740 C 0.34122 0.8523 0.49183 0.0
C741 C 0.36611 0.89815 0.46856 0.0
C742 C 0.33101 0.91396 0.45834 0.0
C743 C 0.34035 0.91104 0.44304 0.0
C744 C 0.38676 0.89159 0.43811 0.0
C745 C 0.42348 0.87565 0.44843 0.0
C746 C 0.41261 0.87902 0.46385 0.0
H747 H 0.33789 0.97223 0.73723 0.0
H748 H 0.46795 0.87718 0.72971 0.0
H749 H 0.49865 0.93525 0.71033 0.0
H750 H 0.32199 0.01072 0.69769 0.0
H751 H 0.30382 0.07354 0.70316 0.0
H752 H 0.28903 0.02126 0.71504 0.0
H753 H 0.33513 0.06621 0.73697 0.0
H754 H 0.35016 0.1184 0.72518 0.0
H755 H 0.39987 0.08592 0.73463 0.0
H756 H 0.521 0.00886 0.69473 0.0
H757 H 0.53157 0.09163 0.68291 0.0
H758 H 0.3848 0.13666 0.69966 0.0
C759 C 0.37207 0.96291 0.73121 0.0
C760 C 0.40073 0.92045 0.73495 0.0
C761 C 0.44588 0.91 0.72709 0.0
C762 C 0.46334 0.94244 0.71601 0.0
C763 C 0.43485 0.98473 0.71285 0.0
C764 C 0.38988 0.99475 0.72009 0.0
C765 C 0.36839 0.04463 0.71542 0.0
C766 C 0.31781 0.03706 0.70734 0.0
C767 C 0.36312 0.08091 0.72885 0.0
C768 C 0.4092 0.06192 0.70481 0.0
C769 C 0.44704 0.02667 0.70341 0.0
C770 C 0.49109 0.03626 0.69542 0.0
C771 C 0.49685 0.08338 0.68882 0.0
C772 C 0.45865 0.12009 0.69023 0.0
C773 C 0.41393 0.10874 0.69807 0.0
H774 H 0.38067 0.13556 0.98016 0.0
H775 H 0.32351 0.99167 0.9955 0.0
H776 H 0.24737 0.00198 0.98013 0.0
H777 H 0.26536 0.19794 0.98272 0.0
H778 H 0.27626 0.2364 0.96662 0.0
H779 H 0.32882 0.21396 0.97716 0.0
H780 H 0.36622 0.17339 0.95316 0.0
H781 H 0.31336 0.19544 0.94257 0.0
H782 H 0.32855 0.12945 0.9424 0.0
H783 H 0.17283 0.03218 0.96438 0.0
H784 H 0.10716 0.08202 0.95158 0.0
H785 H 0.21303 0.20623 0.94785 0.0
C786 C 0.3524 0.10595 0.9803 0.0
C787 C 0.35868 0.06263 0.98906 0.0
C788 C 0.3205 0.02481 0.98869 0.0
C789 C 0.27683 0.0304 0.98001 0.0
C790 C 0.27163 0.074 0.97171 0.0
C791 C 0.30851 0.11112 0.97184 0.0
C792 C 0.29248 0.1563 0.96302 0.0
C793 C 0.2906 0.20393 0.97297 0.0
C794 C 0.32723 0.16407 0.94948 0.0
C795 C 0.24028 0.1395 0.95822 0.0
C796 C 0.22895 0.09159 0.96306 0.0
C797 C 0.18159 0.06954 0.96043 0.0
C798 C 0.14459 0.09785 0.95308 0.0
C799 C 0.15517 0.14777 0.94873 0.0
C800 C 0.20401 0.168 0.95102 0.0
H801 H 0.22502 0.08899 0.24037 0.0
H802 H 0.24135 0.99672 0.27942 0.0
H803 H 0.21179 0.92181 0.26487 0.0
H804 H 0.11315 0.02787 0.22575 0.0
H805 H 0.13298 0.03363 0.20663 0.0
H806 H 0.15341 0.0795 0.22033 0.0
H807 H 0.24663 0.06241 0.21335 0.0
H808 H 0.22672 0.0165 0.19961 0.0
H809 H 0.27025 0.99904 0.214 0.0
H810 H 0.17845 0.85821 0.24593 0.0
H811 H 0.14979 0.80939 0.22374 0.0
H812 H 0.16118 0.94373 0.19704 0.0
C813 C 0.22211 0.05289 0.2458 0.0
C814 C 0.23492 0.04787 0.26089 0.0
C815 C 0.23134 1.00059 0.2678 0.0
C816 C 0.21459 0.95821 0.25966 0.0
C817 C 0.20214 0.96428 0.2447 0.0
C818 C 0.20605 0.01044 0.23783 0.0
C819 C 0.19192 0.00699 0.22157 0.0
C820 C 0.14509 0.03888 0.21839 0.0
C821 C 0.23656 0.02211 0.21155 0.0
C822 C 0.18017 0.95145 0.22023 0.0
C823 C 0.18537 0.92753 0.23373 0.0
C824 C 0.17467 0.87643 0.23529 0.0
C825 C 0.15844 0.84909 0.22269 0.0
C826 C 0.15421 0.87288 0.20875 0.0
C827 C 0.16521 0.92458 0.20754 0.0
H828 H 0.21513 0.08218 0.59297 0.0
H829 H 0.29497 0.11339 0.55182 0.0
H830 H 0.3631 0.15554 0.5662 0.0
H831 H 0.24401 0.19883 0.61104 0.0
H832 H 0.25086 0.17222 0.62928 0.0
H833 H 0.2098 0.14239 0.61582 0.0
H834 H 0.25801 0.05875 0.61855 0.0
H835 H 0.29922 0.08819 0.63206 0.0
H836 H 0.32535 0.05791 0.61572 0.0
H837 H 0.42157 0.19535 0.58502 0.0
H838 H 0.46608 0.2312 0.60677 0.0
H839 H 0.34736 0.17514 0.63579 0.0
C840 C 0.24741 0.09712 0.58701 0.0
C841 C 0.25011 0.09412 0.57128 0.0
C842 C 0.29224 0.11531 0.56386 0.0
C843 C 0.3311 0.13917 0.57193 0.0
C844 C 0.3271 0.14177 0.58742 0.0
C845 C 0.28631 0.12138 0.59489 0.0
C846 C 0.2903 0.13082 0.61154 0.0
C847 C 0.24612 0.16299 0.61725 0.0
C848 C 0.29342 0.08094 0.61996 0.0
C849 C 0.33976 0.15975 0.61229 0.0
C850 C 0.36041 0.16547 0.59825 0.0
C851 C 0.40581 0.19102 0.59607 0.0
C852 C 0.43083 0.21128 0.60854 0.0
C853 C 0.41042 0.20613 0.62309 0.0
C854 C 0.36415 0.17989 0.62489 0.0
H855 H 0.19714 0.96474 0.83647 0.0
H856 H 0.27958 0.901 0.87328 0.0
H857 H 0.25825 0.97517 0.88893 0.0
H858 H 0.23085 0.09416 0.84354 0.0
H859 H 0.16983 0.11813 0.83861 0.0
H860 H 0.19225 0.06065 0.83015 0.0
H861 H 0.1125 0.01294 0.839 0.0
H862 H 0.08906 0.07031 0.84724 0.0
H863 H 0.09541 0.01499 0.85846 0.0
H864 H 0.22473 0.05669 0.90098 0.0
H865 H 0.18002 0.13472 0.90828 0.0
H866 H 0.11997 0.14426 0.86348 0.0
C867 C 0.21036 0.96593 0.84787 0.0
C868 C 0.24005 0.9265 0.85359 0.0
C869 C 0.25725 0.93062 0.86852 0.0
C870 C 0.24518 0.97269 0.87754 0.0
C871 C 0.21594 0.01079 0.87152 0.0
C872 C 0.19867 0.00761 0.85702 0.0
C873 C 0.167 0.05296 0.85326 0.0
C874 C 0.19147 0.08328 0.84065 0.0
C875 C 0.11279 0.03682 0.84926 0.0
C876 C 0.16861 0.082 0.86793 0.0
C877 C 0.1972 0.05732 0.87834 0.0
C878 C 0.20255 0.07639 0.89285 0.0
C879 C 0.17717 0.12103 0.89689 0.0
C880 C 0.14658 0.14633 0.88649 0.0
C881 C 0.14332 0.12657 0.87174 0.0
H882 H 0.3006 0.90767 0.06581 0.0
H883 H 0.31875 0.06122 0.08238 0.0
H884 H 0.25031 0.04734 0.10031 0.0
H885 H 0.16224 0.89665 0.07165 0.0
H886 H 0.16635 0.83261 0.07788 0.0
H887 H 0.21145 0.85635 0.06459 0.0
H888 H 0.28464 0.83121 0.08196 0.0
H889 H 0.23979 0.80725 0.09521 0.0
H890 H 0.28537 0.85429 0.10093 0.0
H891 H 0.18894 0.01477 0.11874 0.0
H892 H 0.13915 0.96441 0.13659 0.0
H893 H 0.15953 0.83165 0.10878 0.0
C894 C 0.28987 0.93868 0.07305 0.0
C895 C 0.31502 0.98595 0.07236 0.0
C896 C 0.29946 0.02517 0.08219 0.0
C897 C 0.26064 0.01758 0.09256 0.0
C898 C 0.2374 0.97049 0.09309 0.0
C899 C 0.25131 0.93162 0.08361 0.0
C900 C 0.22338 0.88333 0.08747 0.0
C901 C 0.18879 0.86624 0.07463 0.0
C902 C 0.26051 0.84158 0.09164 0.0
C903 C 0.19286 0.9009 0.10088 0.0
C904 C 0.20117 0.95152 0.1038 0.0
C905 C 0.18111 0.97545 0.11638 0.0
C906 C 0.15281 0.9467 0.12642 0.0
C907 C 0.14439 0.8948 0.12376 0.0
C908 C 0.16381 0.8718 0.11069 0.0
H909 H 0.43658 0.11788 0.34621 0.0
H910 H 0.29659 0.05036 0.33033 0.0
H911 H 0.3099 0.97794 0.34653 0.0
H912 H 0.50605 0.00303 0.34719 0.0
H913 H 0.54066 0.01973 0.36383 0.0
H914 H 0.51874 0.06822 0.35169 0.0
H915 H 0.47219 0.1102 0.37398 0.0
H916 H 0.49368 0.06131 0.38609 0.0
H917 H 0.42723 0.07394 0.38456 0.0
H918 H 0.33922 0.91098 0.3632 0.0
H919 H 0.38489 0.85122 0.37882 0.0
H920 H 0.50732 0.95936 0.38412 0.0
C921 C 0.4087 0.0879 0.34613 0.0
C922 C 0.36503 0.09051 0.33708 0.0
C923 C 0.32961 0.05025 0.33739 0.0
C924 C 0.33696 0.00865 0.34652 0.0
C925 C 0.38003 0.00743 0.35532 0.0
C926 C 0.4155 0.04576 0.3552 0.0
C927 C 0.45951 0.03368 0.36535 0.0
C928 C 0.50917 0.03099 0.35648 0.0
C929 C 0.46336 0.07208 0.37826 0.0
C930 C 0.44355 0.98215 0.37091 0.0
C931 C 0.39731 0.96816 0.36504 0.0
C932 C 0.37528 0.9216 0.36795 0.0
C933 C 0.40157 0.88788 0.37683 0.0
C934 C 0.44949 0.90067 0.38278 0.0
C935 C 0.47032 0.94891 0.37998 0.0
H936 H 0.76888 0.08893 0.57817 0.0
H937 H 0.83009 0.97392 0.60654 0.0
H938 H 0.75916 0.98583 0.62412 0.0
H939 H 0.73597 0.17217 0.60552 0.0
H940 H 0.67884 0.19286 0.59674 0.0
H941 H 0.72902 0.16778 0.58557 0.0
H942 H 0.66528 0.10262 0.57441 0.0
H943 H 0.61582 0.12725 0.58619 0.0
H944 H 0.63102 0.06131 0.58666 0.0
H945 H 0.69373 0.02258 0.64086 0.0
H946 H 0.64117 0.08218 0.65534 0.0
H947 H 0.61824 0.17008 0.61582 0.0
C948 C 0.76668 0.06555 0.58794 0.0
C949 C 0.80491 0.0305 0.59101 0.0
C950 C 0.80088 1.00057 0.60389 0.0
C951 C 0.76063 0.007 0.61391 0.0
C952 C 0.72411 0.04277 0.61074 0.0
C953 C 0.7265 0.07118 0.59796 0.0
C954 C 0.68587 0.11088 0.59792 0.0
C955 C 0.70886 0.16401 0.59637 0.0
C956 C 0.6472 0.09983 0.58556 0.0
C957 C 0.66277 0.10308 0.61319 0.0
C958 C 0.68447 0.0627 0.62027 0.0
C959 C 0.675 0.05297 0.63527 0.0
C960 C 0.64478 0.08671 0.64341 0.0
C961 C 0.62408 0.1292 0.63648 0.0
C962 C 0.63136 0.13616 0.62108 0.0
H963 H 0.7061 0.02433 0.33005 0.0
H964 H 0.74293 0.12636 0.36669 0.0
H965 H 0.72041 0.06039 0.3846 0.0
H966 H 0.59855 0.96801 0.34702 0.0
H967 H 0.61029 0.90573 0.33972 0.0
H968 H 0.63216 0.95995 0.32969 0.0
H969 H 0.72313 0.9251 0.33001 0.0
H970 H 0.70152 0.87092 0.34015 0.0
H971 H 0.75177 0.90983 0.34755 0.0
H972 H 0.68772 0.98724 0.39849 0.0
H973 H 0.64627 0.91088 0.40761 0.0
H974 H 0.6339 0.85267 0.36246 0.0
C975 C 0.70946 0.03272 0.34185 0.0
C976 C 0.72665 0.08046 0.34697 0.0
C977 C 0.73071 0.08987 0.36249 0.0
C978 C 0.71786 0.05269 0.37276 0.0
C979 C 0.70124 0.00611 0.36735 0.0
C980 C 0.697 0.99584 0.35229 0.0
C981 C 0.67656 0.94301 0.34953 0.0
C982 C 0.62641 0.94427 0.34098 0.0
C983 C 0.71558 0.91028 0.34132 0.0
C984 C 0.66886 0.92575 0.36543 0.0
C985 C 0.68377 0.96275 0.37548 0.0
C986 C 0.6774 0.95734 0.39075 0.0
C987 C 0.65473 0.91317 0.3959 0.0
C988 C 0.63936 0.87434 0.38592 0.0
C989 C 0.64672 0.88088 0.37043 0.0
H990 H 0.80526 0.98236 0.0849 0.0
H991 H 0.70336 0.04944 0.11731 0.0
H992 H 0.76528 0.03461 0.13716 0.0
H993 H 0.84041 0.88411 0.10678 0.0
H994 H 0.90478 0.8815 0.10033 0.0
H995 H 0.85688 0.90647 0.08849 0.0
H996 H 0.90888 0.98944 0.0863 0.0
H997 H 0.95645 0.96466 0.09843 0.0
H998 H 0.92667 0.02366 0.10298 0.0
H999 H 0.82942 0.9981 0.15395 0.0
H1000 H 0.88946 0.94129 0.16616 0.0
H1001 H 0.9518 0.89982 0.12319 0.0
C1002 C 0.79633 0.99479 0.09613 0.0
C1003 C 0.74944 0.01734 0.0995 0.0
C1004 C 0.7393 0.03295 0.11436 0.0
C1005 C 0.77432 0.02468 0.12573 0.0
C1006 C 0.8197 0.00133 0.12208 0.0
C1007 C 0.83092 0.9869 0.10761 0.0
C1008 C 0.87935 0.95706 0.10688 0.0
C1009 C 0.86978 0.90417 0.10022 0.0
C1010 C 0.92026 0.98542 0.09813 0.0
C1011 C 0.89235 0.95476 0.12328 0.0
C1012 C 0.85789 0.98131 0.13186 0.0
C1013 C 0.85763 0.97867 0.14737 0.0
C1014 C 0.89196 0.94655 0.15423 0.0
C1015 C 0.92626 0.91793 0.1456 0.0
C1016 C 0.92766 0.92347 0.13001 0.0
H1017 H 0.79406 0.99202 0.84472 0.0
H1018 H 0.85512 0.86273 0.8671 0.0
H1019 H 0.90028 0.91939 0.88475 0.0
H1020 H 0.90364 0.06098 0.84502 0.0
H1021 H 0.87516 0.12171 0.84787 0.0
H1022 H 0.83994 0.07178 0.83895 0.0
H1023 H 0.76881 0.08105 0.85865 0.0
H1024 H 0.80369 0.13148 0.86759 0.0
H1025 H 0.78397 0.07758 0.87818 0.0
H1026 H 0.94596 0.98894 0.89777 0.0
H1027 H 0.99147 0.06638 0.90504 0.0
H1028 H 0.90287 0.15074 0.87343 0.0
C1029 C 0.81553 0.97587 0.85369 0.0
C1030 C 0.82074 0.92338 0.85483 0.0
C1031 C 0.85054 0.90306 0.86627 0.0
C1032 C 0.87603 0.93487 0.87632 0.0
C1033 C 0.87129 0.98668 0.87467 0.0
C1034 C 0.84172 0.0071 0.86366 0.0
C1035 C 0.84785 0.06369 0.86313 0.0
C1036 C 0.86785 0.08048 0.84784 0.0
C1037 C 0.79812 0.09 0.86713 0.0
C1038 C 0.88682 0.07169 0.8752 0.0
C1039 C 0.89905 0.02695 0.88191 0.0
C1040 C 0.9362 0.02436 0.89277 0.0
C1041 C 0.96193 0.06864 0.89678 0.0
C1042 C 0.95082 0.11479 0.8898 0.0
C1043 C 0.91222 0.1162 0.87902 0.0
H1044 H 0.82881 0.02092 0.48594 0.0
H1045 H 0.93353 0.94196 0.45698 0.0
H1046 H 0.86354 0.92034 0.43981 0.0
H1047 H 0.73573 0.93384 0.48418 0.0
H1048 H 0.68309 0.97641 0.48439 0.0
H1049 H 0.74207 0.99579 0.49245 0.0
H1050 H 0.74565 0.07362 0.47575 0.0
H1051 H 0.68622 0.05527 0.46752 0.0
H1052 H 0.74056 0.06591 0.45583 0.0
H1053 H 0.78211 0.89593 0.42826 0.0
H1054 H 0.69541 0.86551 0.42405 0.0
H1055 H 0.64179 0.96007 0.46024 0.0
C1056 C 0.83723 1.00079 0.47567 0.0
C1057 C 0.88664 0.9839 0.47258 0.0
C1058 C 0.89599 0.95563 0.45942 0.0
C1059 C 0.85655 0.94356 0.44958 0.0
C1060 C 0.80802 0.96007 0.45307 0.0
C1061 C 0.7982 0.98809 0.46582 0.0
C1062 C 0.74197 0.99512 0.4681 0.0
C1063 C 0.72469 0.97392 0.48316 0.0
C1064 C 0.72777 0.0508 0.46671 0.0
C1065 C 0.72147 0.96428 0.45512 0.0
C1066 C 0.76032 0.94572 0.44634 0.0
C1067 C 0.75134 0.91183 0.43467 0.0
C1068 C 0.70179 0.89533 0.43219 0.0
C1069 C 0.66158 0.91313 0.44116 0.0
C1070 C 0.67151 0.94839 0.45268 0.0
H1071 H 0.80443 0.01679 0.25214 0.0
H1072 H 0.94264 0.09949 0.26181 0.0
H1073 H 0.98749 0.04914 0.24282 0.0
H1074 H 0.86267 0.89544 0.24573 0.0
H1075 H 0.82101 0.87762 0.2307 0.0
H1076 H 0.79946 0.9198 0.24521 0.0
H1077 H 0.77641 0.98556 0.22537 0.0
H1078 H 0.79816 0.94369 0.2108 0.0
H1079 H 0.82396 0.00648 0.2124 0.0
H1080 H 0.01757 0.99134 0.22262 0.0
H1081 H 0.03203 0.92728 0.20311 0.0
H1082 H 0.87485 0.88058 0.20603 0.0
C1083 C 0.84416 0.02415 0.25029 0.0
C1084 C 0.8701 0.06173 0.25869 0.0
C1085 C 0.92212 0.07017 0.25585 0.0
C1086 C 0.94789 0.04207 0.24496 0.0
C1087 C 0.92131 0.00545 0.23691 0.0
C1088 C 0.87069 0.99615 0.23945 0.0
C1089 C 0.85137 0.95428 0.2292 0.0
C1090 C 0.83252 0.90911 0.23825 0.0
C1091 C 0.81002 0.97368 0.21883 0.0
C1092 C 0.89906 0.94155 0.22055 0.0
C1093 C 0.93881 0.97181 0.22516 0.0
C1094 C 0.98672 0.96741 0.21891 0.0
C1095 C 0.99447 0.93082 0.20777 0.0
C1096 C 0.95461 0.89861 0.20292 0.0
C1097 C 0.90614 0.9045 0.20941 0.0
H1098 H 0.76001 0.10926 0.99704 0.0
H1099 H 0.64956 0.17942 0.96876 0.0
H1100 H 0.71857 0.21469 0.95322 0.0
H1101 H 0.85127 0.21382 0.99566 0.0
H1102 H 0.90502 0.17273 0.996 0.0
H1103 H 0.84688 0.15427 0.00487 0.0
H1104 H 0.84541 0.07173 0.98929 0.0
H1105 H 0.90327 0.08994 0.98022 0.0
H1106 H 0.84826 0.07483 0.96924 0.0
H1107 H 0.79969 0.2366 0.9398 0.0
H1108 H 0.88662 0.24873 0.93043 0.0
H1109 H 0.94478 0.16937 0.96852 0.0
C1110 C 0.75054 0.13208 0.98755 0.0
C1111 C 0.69967 0.14124 0.98389 0.0
C1112 C 0.6884 0.17191 0.97162 0.0
C1113 C 0.7273 0.19202 0.96278 0.0
C1114 C 0.77718 0.18186 0.96657 0.0
C1115 C 0.78889 0.15324 0.97881 0.0
C1116 C 0.8455 0.1484 0.98058 0.0
C1117 C 0.86325 0.17386 0.99514 0.0
C1118 C 0.86154 0.09293 0.97978 0.0
C1119 C 0.8639 0.1772 0.96714 0.0
C1120 C 0.82386 0.19625 0.95921 0.0
C1121 C 0.83127 0.22221 0.946 0.0
C1122 C 0.88074 0.22863 0.94072 0.0
C1123 C 0.92235 0.20988 0.94874 0.0
C1124 C 0.9137 0.18438 0.96222 0.0
H1125 H 0.64299 0.04303 0.77029 0.0
H1126 H 0.78641 0.98444 0.75434 0.0
H1127 H 0.78428 0.0425 0.73347 0.0
H1128 H 0.58922 0.05052 0.73352 0.0
H1129 H 0.55376 0.10661 0.73762 0.0
H1130 H 0.56791 0.06333 0.75227 0.0
H1131 H 0.60989 0.13562 0.76756 0.0
H1132 H 0.59595 0.17915 0.75295 0.0
H1133 H 0.65994 0.17218 0.75927 0.0
H1134 H 0.7665 0.10472 0.71367 0.0
H1135 H 0.7323 0.16497 0.69581 0.0
H1136 H 0.59779 0.18075 0.7232 0.0
C1137 C 0.67417 0.04222 0.7625 0.0
C1138 C 0.71564 0.0094 0.76449 0.0
C1139 C 0.75515 0.0102 0.75374 0.0
C1140 C 0.75406 0.04278 0.7416 0.0
C1141 C 0.71284 0.07424 0.74003 0.0
C1142 C 0.67334 0.07403 0.75009 0.0
C1143 C 0.63219 0.10978 0.74524 0.0
C1144 C 0.58286 0.08084 0.74197 0.0
C1145 C 0.62403 0.15167 0.75695 0.0
C1146 C 0.65522 0.13054 0.73103 0.0
C1147 C 0.70177 0.1094 0.72827 0.0
C1148 C 0.73011 0.12164 0.71572 0.0
C1149 C 0.71027 0.15605 0.70562 0.0
C1150 C 0.66236 0.17812 0.70804 0.0
C1151 C 0.63475 0.1652 0.72104 0.0
H1152 H 0.75798 0.41888 0.99773 0.0
H1153 H 0.68091 0.4906 0.96118 0.0
H1154 H 0.74525 0.45841 0.94369 0.0
H1155 H 0.88035 0.44404 0.98648 0.0
H1156 H 0.9064 0.38446 0.99176 0.0
H1157 H 0.85169 0.4085 1.00129 0.0
H1158 H 0.80249 0.3263 0.99487 0.0
H1159 H 0.85717 0.30198 0.98529 0.0
H1160 H 0.79778 0.30554 0.97571 0.0
H1161 H 0.82034 0.42305 0.9304 0.0
H1162 H 0.90195 0.3879 0.92232 0.0
H1163 H 0.93031 0.33908 0.96747 0.0
C1164 C 0.75395 0.42687 0.986 0.0
C1165 C 0.71447 0.45756 0.98086 0.0
C1166 C 0.71121 0.46789 0.96544 0.0
C1167 C 0.74729 0.44935 0.95538 0.0
C1168 C 0.78616 0.42005 0.96087 0.0
C1169 C 0.78953 0.40844 0.97579 0.0
C1170 C 0.83652 0.37825 0.97888 0.0
C1171 C 0.87075 0.40547 0.99027 0.0
C1172 C 0.82262 0.32486 0.98399 0.0
C1173 C 0.86021 0.37692 0.96352 0.0
C1174 C 0.82999 0.40024 0.95323 0.0
C1175 C 0.84418 0.40439 0.93834 0.0
C1176 C 0.89065 0.38439 0.93387 0.0
C1177 C 0.92271 0.36121 0.9443 0.0
C1178 C 0.90691 0.35713 0.95928 0.0
H1179 H 0.84063 0.47573 0.23375 0.0
H1180 H 0.94278 0.50258 0.27079 0.0
H1181 H 0.97777 0.57675 0.25808 0.0
H1182 H 0.92651 0.51288 0.20468 0.0
H1183 H 0.87863 0.54263 0.19374 0.0
H1184 H 0.86208 0.49092 0.20561 0.0
H1185 H 0.79496 0.54623 0.21885 0.0
H1186 H 0.81139 0.59813 0.20703 0.0
H1187 H 0.81358 0.60589 0.227 0.0
H1188 H 1.00138 0.64757 0.24164 0.0
H1189 H 0.01269 0.71152 0.2224 0.0
H1190 H 0.8938 0.64043 0.19609 0.0
C1191 C 0.87015 0.49739 0.23922 0.0
C1192 C 0.88921 0.48318 0.25323 0.0
C1193 C 0.92822 0.51222 0.25995 0.0
C1194 C 0.9481 0.5546 0.25287 0.0
C1195 C 0.92847 0.56753 0.2391 0.0
C1196 C 0.8904 0.53991 0.23233 0.0
C1197 C 0.87604 0.56222 0.2175 0.0
C1198 C 0.88645 0.52494 0.20462 0.0
C1199 C 0.82071 0.57913 0.21761 0.0
C1200 C 0.91186 0.60685 0.21707 0.0
C1201 C 0.94179 0.60902 0.22963 0.0
C1202 C 0.97811 0.64642 0.23176 0.0
C1203 C 0.98415 0.68263 0.22073 0.0
C1204 C 0.95395 0.68132 0.2077 0.0
C1205 C 0.91725 0.64283 0.20593 0.0
H1206 H 0.82408 0.62008 0.50725 0.0
H1207 H 0.87252 0.50315 0.47634 0.0
H1208 H 0.79774 0.51882 0.46067 0.0
H1209 H 0.68928 0.59661 0.50409 0.0
H1210 H 0.67406 0.66253 0.50527 0.0
H1211 H 0.72948 0.63947 0.51442 0.0
H1212 H 0.78502 0.70377 0.50019 0.0
H1213 H 0.72978 0.72726 0.49113 0.0
H1214 H 0.78232 0.70515 0.48014 0.0
H1215 H 0.71874 0.55223 0.44744 0.0
H1216 H 0.64687 0.60164 0.43794 0.0
H1217 H 0.65183 0.69494 0.47797 0.0
C1218 C 0.81917 0.59774 0.49718 0.0
C1219 C 0.85443 0.56042 0.49305 0.0
C1220 C 0.84587 0.53162 0.47985 0.0
C1221 C 0.80349 0.54033 0.47085 0.0
C1222 C 0.76966 0.5777 0.47523 0.0
C1223 C 0.77718 0.60581 0.48813 0.0
C1224 C 0.73675 0.64511 0.49018 0.0
C1225 C 0.70555 0.63532 0.50433 0.0
C1226 C 0.75985 0.69846 0.49042 0.0
C1227 C 0.70579 0.6356 0.47628 0.0
C1228 C 0.72482 0.59634 0.4678 0.0
C1229 C 0.7033 0.58269 0.4541 0.0
C1230 C 0.66224 0.61074 0.44882 0.0
C1231 C 0.64344 0.65216 0.45718 0.0
C1232 C 0.66502 0.66352 0.47125 0.0
H1233 H 0.59313 0.59509 0.73418 0.0
H1234 H 0.75299 0.62019 0.72568 0.0
H1235 H 0.75153 0.55413 0.70656 0.0
H1236 H 0.59977 0.46617 0.73378 0.0
H1237 H 0.54009 0.45403 0.72479 0.0
H1238 H 0.54934 0.51104 0.73547 0.0
H1239 H 0.52438 0.56317 0.71261 0.0
H1240 H 0.5158 0.50644 0.70162 0.0
H1241 H 0.55807 0.55511 0.69528 0.0
H1242 H 0.73793 0.47975 0.69116 0.0
H1243 H 0.71333 0.39755 0.68076 0.0
H1244 H 0.5637 0.41404 0.70018 0.0
C1245 C 0.62766 0.58728 0.72816 0.0
C1246 C 0.6729 0.61396 0.73132 0.0
C1247 C 0.71727 0.60207 0.72318 0.0
C1248 C 0.71701 0.56419 0.71229 0.0
C1249 C 0.6723 0.53802 0.70972 0.0
C1250 C 0.62836 0.54876 0.71739 0.0
C1251 C 0.5873 0.51054 0.7137 0.0
C1252 C 0.56806 0.48386 0.72777 0.0
C1253 C 0.54382 0.53531 0.70531 0.0
C1254 C 0.61637 0.47512 0.70354 0.0
C1255 C 0.66477 0.49275 0.70107 0.0
C1256 C 0.69993 0.4657 0.6928 0.0
C1257 C 0.68558 0.4188 0.68703 0.0
C1258 C 0.63662 0.39906 0.68972 0.0
C1259 C 0.60131 0.42814 0.69787 0.0
H1260 H 0.68976 0.72654 0.08871 0.0
H1261 H 0.7113 0.56462 0.08753 0.0
H1262 H 0.7942 0.57592 0.09931 0.0
H1263 H 0.8211 0.75576 0.07982 0.0
H1264 H 0.82407 0.81108 0.09151 0.0
H1265 H 0.76524 0.79267 0.08299 0.0
H1266 H 0.71991 0.78935 0.10842 0.0
H1267 H 0.77707 0.81079 0.11726 0.0
H1268 H 0.74692 0.75344 0.12326 0.0
H1269 H 0.87218 0.60392 0.11284 0.0
H1270 H 0.93703 0.64693 0.12829 0.0
H1271 H 0.86875 0.79066 0.11928 0.0
C1272 C 0.7119 0.69338 0.09083 0.0
C1273 C 0.69314 0.64459 0.08732 0.0
C1274 C 0.72368 0.60238 0.09044 0.0
C1275 C 0.77139 0.60841 0.09694 0.0
C1276 C 0.78872 0.65694 0.10014 0.0
C1277 C 0.75992 0.6987 0.09721 0.0
C1278 C 0.78713 0.74667 0.10194 0.0
C1279 C 0.80011 0.77844 0.08826 0.0
C1280 C 0.7559 0.77681 0.11341 0.0
C1281 C 0.83437 0.72519 0.10883 0.0
C1282 C 0.835 0.67331 0.10736 0.0
C1283 C 0.8727 0.64456 0.11379 0.0
C1284 C 0.90959 0.66922 0.12244 0.0
C1285 C 0.90866 0.72201 0.12449 0.0
C1286 C 0.87134 0.75044 0.11732 0.0
H1287 H 0.64255 0.41675 0.36141 0.0
H1288 H 0.80227 0.4509 0.35674 0.0
H1289 H 0.79065 0.52948 0.37106 0.0
H1290 H 0.60053 0.54049 0.35551 0.0
H1291 H 0.54952 0.5373 0.36881 0.0
H1292 H 0.57106 0.48084 0.35964 0.0
H1293 H 0.58553 0.44067 0.38527 0.0
H1294 H 0.56484 0.49739 0.39457 0.0
H1295 H 0.62586 0.47189 0.3987 0.0
H1296 H 0.76073 0.60813 0.38505 0.0
H1297 H 0.71323 0.68103 0.3955 0.0
H1298 H 0.57359 0.59768 0.38952 0.0
C1299 C 0.67529 0.4404 0.36345 0.0
C1300 C 0.72361 0.42643 0.35809 0.0
C1301 C 0.76511 0.45921 0.36109 0.0
C1302 C 0.75886 0.50444 0.36915 0.0
C1303 C 0.7108 0.51702 0.37419 0.0
C1304 C 0.66966 0.486 0.37138 0.0
C1305 C 0.62145 0.50967 0.37717 0.0
C1306 C 0.58345 0.51754 0.36451 0.0
C1307 C 0.59806 0.478 0.38967 0.0
C1308 C 0.64171 0.55941 0.38322 0.0
C1309 C 0.69346 0.56269 0.38172 0.0
C1310 C 0.72019 0.6058 0.38634 0.0
C1311 C 0.69312 0.64693 0.39231 0.0
C1312 C 0.63999 0.64474 0.39335 0.0
C1313 C 0.61432 0.60015 0.38892 0.0
H1314 H 0.8181 0.36498 0.56656 0.0
H1315 H 0.81305 0.52098 0.58188 0.0
H1316 H 0.7437 0.49979 0.59872 0.0
H1317 H 0.68314 0.33364 0.57079 0.0
H1318 H 0.6959 0.27218 0.57807 0.0
H1319 H 0.73918 0.30054 0.56506 0.0
H1320 H 0.81207 0.28971 0.58381 0.0
H1321 H 0.76922 0.26159 0.59691 0.0
H1322 H 0.80621 0.31589 0.60236 0.0
H1323 H 0.6814 0.46151 0.61599 0.0
H1324 H 0.63381 0.40705 0.63331 0.0
H1325 H 0.68268 0.27502 0.60867 0.0
C1326 C 0.80247 0.39505 0.57332 0.0
C1327 C 0.82132 0.44513 0.57247 0.0
C1328 C 0.79885 0.48273 0.58168 0.0
C1329 C 0.75938 0.471 0.59148 0.0
C1330 C 0.74269 0.42133 0.5922 0.0
C1331 C 0.76367 0.38381 0.58345 0.0
C1332 C 0.74274 0.33251 0.58765 0.0
C1333 C 0.7135 0.3083 0.57461 0.0
C1334 C 0.78508 0.2979 0.593 0.0
C1335 C 0.70754 0.3471 0.60033 0.0
C1336 C 0.70751 0.39869 0.60257 0.0
C1337 C 0.68045 0.42117 0.61419 0.0
C1338 C 0.6535 0.39009 0.62394 0.0
C1339 C 0.65388 0.33726 0.62202 0.0
C1340 C 0.6807 0.31548 0.61 0.0
H1341 H 0.90495 0.62729 0.85106 0.0
H1342 H 0.75332 0.56654 0.84653 0.0
H1343 H 0.77938 0.48939 0.85927 0.0
H1344 H 0.97032 0.51223 0.84464 0.0
H1345 H 0.01874 0.52461 0.85826 0.0
H1346 H 0.98807 0.57617 0.8493 0.0
H1347 H 0.9635 0.61336 0.87511 0.0
H1348 H 0.99427 0.56178 0.8841 0.0
H1349 H 0.929 0.57491 0.8881 0.0
H1350 H 0.8229 0.41609 0.87058 0.0
H1351 H 0.87996 0.35324 0.8813 0.0
H1352 H 0.00321 0.46138 0.88007 0.0
C1353 C 0.87719 0.59789 0.85289 0.0
C1354 C 0.82683 0.60331 0.8479 0.0
C1355 C 0.79174 0.56383 0.85048 0.0
C1356 C 0.8063 0.51965 0.85763 0.0
C1357 C 0.8561 0.5154 0.86234 0.0
C1358 C 0.89097 0.5536 0.86025 0.0
C1359 C 0.94222 0.53891 0.86633 0.0
C1360 C 0.98218 0.53793 0.85388 0.0
C1361 C 0.95818 0.57436 0.87917 0.0
C1362 C 0.93088 0.48622 0.87192 0.0
C1363 C 0.88093 0.47346 0.86941 0.0
C1364 C 0.86188 0.42591 0.87279 0.0
C1365 C 0.8946 0.39039 0.87883 0.0
C1366 C 0.94579 0.40255 0.88167 0.0
C1367 C 0.96399 0.45137 0.87829 0.0
H1368 H 0.35703 0.62218 0.0999 0.0
H1369 H 0.27505 0.64071 0.05867 0.0
H1370 H 0.19654 0.65549 0.073 0.0
H1371 H 0.25487 0.56145 0.12138 0.0
H1372 H 0.27124 0.59507 0.13828 0.0
H1373 H 0.31942 0.57998 0.12477 0.0
H1374 H 0.34496 0.67427 0.12329 0.0
H1375 H 0.29762 0.68928 0.13697 0.0
H1376 H 0.29743 0.72018 0.11922 0.0
H1377 H 0.12814 0.67498 0.09206 0.0
H1378 H 0.0802 0.70776 0.11382 0.0
H1379 H 0.20711 0.67626 0.14235 0.0
C1380 C 0.32232 0.62832 0.09389 0.0
C1381 C 0.32207 0.62996 0.07817 0.0
C1382 C 0.27615 0.63949 0.07072 0.0
C1383 C 0.23126 0.64738 0.07876 0.0
C1384 C 0.23279 0.64558 0.09427 0.0
C1385 C 0.27734 0.63668 0.10174 0.0
C1386 C 0.27029 0.64191 0.11843 0.0
C1387 C 0.2795 0.59159 0.12617 0.0
C1388 C 0.30458 0.68391 0.12485 0.0
C1389 C 0.21517 0.65625 0.11919 0.0
C1390 C 0.19375 0.65725 0.10519 0.0
C1391 C 0.14427 0.67346 0.1031 0.0
C1392 C 0.11699 0.69143 0.11554 0.0
C1393 C 0.13967 0.69366 0.12978 0.0
C1394 C 0.18849 0.67381 0.13164 0.0
H1395 H 0.20465 0.5441 0.8326 0.0
H1396 H 0.3116 0.5936 0.86635 0.0
H1397 H 0.28903 0.51979 0.88156 0.0
H1398 H 0.11008 0.50439 0.85769 0.0
H1399 H 0.08979 0.45149 0.84638 0.0
H1400 H 0.11739 0.50587 0.83773 0.0
H1401 H 0.18484 0.44949 0.82504 0.0
H1402 H 0.15766 0.39476 0.83369 0.0
H1403 H 0.2235 0.40965 0.83632 0.0
H1404 H 0.25012 0.44375 0.89382 0.0
H1405 H 0.19631 0.37364 0.90247 0.0
H1406 H 0.11576 0.37426 0.86043 0.0
C1407 C 0.2233 0.53956 0.84321 0.0
C1408 C 0.25985 0.57465 0.8483 0.0
C1409 C 0.28383 0.56691 0.86216 0.0
C1410 C 0.27126 0.52513 0.87087 0.0
C1411 C 0.23496 0.49131 0.8655 0.0
C1412 C 0.21134 0.49815 0.85199 0.0
C1413 C 0.17181 0.45792 0.84905 0.0
C1414 C 0.11915 0.4813 0.84763 0.0
C1415 C 0.18528 0.42607 0.8352 0.0
C1416 C 0.17624 0.42774 0.86314 0.0
C1417 C 0.21306 0.44734 0.87246 0.0
C1418 C 0.22164 0.42768 0.88653 0.0
C1419 C 0.19092 0.38778 0.89133 0.0
C1420 C 0.15205 0.36804 0.88208 0.0
C1421 C 0.14569 0.38769 0.86767 0.0
H1422 H 0.23452 0.48137 0.61287 0.0
H1423 H 0.32741 0.49037 0.57317 0.0
H1424 H 0.40329 0.4742 0.58822 0.0
H1425 H 0.3306 0.53528 0.63989 0.0
H1426 H 0.31113 0.49204 0.65414 0.0
H1427 H 0.26588 0.51425 0.64085 0.0
H1428 H 0.24313 0.42213 0.63346 0.0
H1429 H 0.28768 0.39992 0.6468 0.0
H1430 H 0.29263 0.38013 0.62757 0.0
H1431 H 0.46658 0.44401 0.60675 0.0
H1432 H 0.50888 0.39541 0.62624 0.0
H1433 H 0.37553 0.40827 0.65412 0.0
C1434 C 0.27106 0.48166 0.60745 0.0
C1435 C 0.27513 0.48737 0.59188 0.0
C1436 C 0.32343 0.48589 0.58509 0.0
C1437 C 0.36681 0.47728 0.59358 0.0
C1438 C 0.36143 0.47063 0.60889 0.0
C1439 C 0.31469 0.47286 0.61576 0.0
C1440 C 0.31796 0.45782 0.63193 0.0
C1441 C 0.30567 0.50253 0.64231 0.0
C1442 C 0.28334 0.41231 0.63511 0.0
C1443 C 0.37322 0.44415 0.63288 0.0
C1444 C 0.39806 0.45303 0.6196 0.0
C1445 C 0.44784 0.43792 0.61731 0.0
C1446 C 0.47181 0.41058 0.62852 0.0
C1447 C 0.44563 0.39797 0.64176 0.0
C1448 C 0.39683 0.41769 0.64421 0.0
H1449 H 0.39594 0.46256 0.33694 0.0
H1450 H 0.42734 0.34331 0.3679 0.0
H1451 H 0.4443 0.40722 0.38782 0.0
H1452 H 0.48833 0.54843 0.34854 0.0
H1453 H 0.4498 0.60341 0.34649 0.0
H1454 H 0.43794 0.54826 0.33517 0.0
H1455 H 0.34516 0.54464 0.3444 0.0
H1456 H 0.35654 0.6007 0.35545 0.0
H1457 H 0.33221 0.54467 0.3641 0.0
H1458 H 0.46169 0.4849 0.40363 0.0
H1459 H 0.48139 0.56919 0.41397 0.0
H1460 H 0.43443 0.63621 0.37242 0.0
C1461 C 0.40653 0.45011 0.34794 0.0
C1462 C 0.41121 0.39865 0.35103 0.0
C1463 C 0.42416 0.38297 0.36548 0.0
C1464 C 0.4335 0.41885 0.37679 0.0
C1465 C 0.42847 0.46967 0.37338 0.0
C1466 C 0.41501 0.48514 0.35931 0.0
C1467 C 0.41265 0.54169 0.35836 0.0
C1468 C 0.44939 0.56161 0.34645 0.0
C1469 C 0.35843 0.55894 0.3554 0.0
C1470 C 0.42916 0.55598 0.37393 0.0
C1471 C 0.43733 0.51403 0.38252 0.0
C1472 C 0.45488 0.51803 0.39708 0.0
C1473 C 0.46586 0.56612 0.40285 0.0
C1474 C 0.45932 0.60948 0.39403 0.0
C1475 C 0.43931 0.60409 0.37955 0.0
H1476 H 0.34032 0.47266 0.98583 0.0
H1477 H 0.26111 0.61141 0.99537 0.0
H1478 H 0.19724 0.58844 0.9762 0.0
H1479 H 0.31528 0.46792 0.94558 0.0
H1480 H 0.30763 0.40043 0.94536 0.0
H1481 H 0.34943 0.43025 0.95863 0.0
H1482 H 0.30235 0.38834 0.9805 0.0
H1483 H 0.26121 0.35712 0.96742 0.0
H1484 H 0.23501 0.39561 0.98216 0.0
H1485 H 0.13672 0.54404 0.95783 0.0
H1486 H 0.08513 0.48166 0.94353 0.0
H1487 H 0.20695 0.37472 0.94601 0.0
C1488 C 0.30959 0.49832 0.98385 0.0
C1489 C 0.3051 0.54344 0.99217 0.0
C1490 C 0.265 0.57656 0.9891 0.0
C1491 C 0.22879 0.56389 0.9782 0.0
C1492 C 0.23396 0.51852 0.97032 0.0
C1493 C 0.27367 0.48649 0.97302 0.0
C1494 C 0.26942 0.43843 0.96395 0.0
C1495 C 0.31302 0.43404 0.9527 0.0
C1496 C 0.2668 0.39218 0.97411 0.0
C1497 C 0.21994 0.44719 0.95616 0.0
C1498 C 0.20018 0.49385 0.9597 0.0
C1499 C 0.15237 0.50787 0.95476 0.0
C1500 C 0.12345 0.4725 0.94655 0.0
C1501 C 0.1425 0.42384 0.94358 0.0
C1502 C 0.19195 0.41206 0.94796 0.0
H1503 H 0.34921 0.54331 0.74667 0.0
H1504 H 0.41599 0.481 0.78637 0.0
H1505 H 0.44445 0.40725 0.77165 0.0
H1506 H 0.30483 0.42524 0.73033 0.0
H1507 H 0.31994 0.44326 0.71153 0.0
H1508 H 0.30395 0.49064 0.72526 0.0
H1509 H 0.38768 0.53695 0.71982 0.0
H1510 H 0.4054 0.48951 0.70631 0.0
H1511 H 0.44647 0.50427 0.72176 0.0
H1512 H 0.4676 0.34104 0.7525 0.0
H1513 H 0.48381 0.28729 0.73041 0.0
H1514 H 0.40059 0.39099 0.703 0.0
C1515 C 0.36907 0.51375 0.75234 0.0
C1516 C 0.38003 0.51798 0.76777 0.0
C1517 C 0.40733 0.47894 0.7746 0.0
C1518 C 0.42348 0.43672 0.76633 0.0
C1519 C 0.41218 0.43385 0.75117 0.0
C1520 C 0.38557 0.47129 0.74423 0.0
C1521 C 0.37971 0.45963 0.72769 0.0
C1522 C 0.32377 0.45437 0.72346 0.0
C1523 C 0.40641 0.49998 0.71833 0.0
C1524 C 0.40654 0.40942 0.72646 0.0
C1525 C 0.42524 0.39546 0.74013 0.0
C1526 C 0.4528 0.35147 0.74177 0.0
C1527 C 0.46179 0.3211 0.72912 0.0
C1528 C 0.44301 0.33437 0.71494 0.0
C1529 C 0.41465 0.37913 0.71369 0.0
H1530 H 0.24733 0.63534 0.50299 0.0
H1531 H 0.14465 0.64624 0.46577 0.0
H1532 H 0.21436 0.67925 0.45005 0.0
H1533 H 0.3217 0.74406 0.49657 0.0
H1534 H 0.3817 0.71643 0.50088 0.0
H1535 H 0.32487 0.6932 0.50954 0.0
H1536 H 0.33933 0.60225 0.49956 0.0
H1537 H 0.39883 0.62431 0.49229 0.0
H1538 H 0.35427 0.59257 0.4802 0.0
H1539 H 0.29546 0.70855 0.4384 0.0
H1540 H 0.38249 0.73003 0.43109 0.0
H1541 H 0.43364 0.69962 0.47595 0.0
C1542 C 0.23966 0.64519 0.49155 0.0
C1543 C 0.19079 0.63909 0.48554 0.0
C1544 C 0.18192 0.65112 0.4705 0.0
C1545 C 0.22119 0.66989 0.46156 0.0
C1546 C 0.26908 0.67564 0.46782 0.0
C1547 C 0.27858 0.66313 0.48242 0.0
C1548 C 0.33395 0.67014 0.48618 0.0
C1549 C 0.34101 0.70826 0.49905 0.0
C1550 C 0.35808 0.61933 0.48978 0.0
C1551 C 0.35398 0.69024 0.47157 0.0
C1552 C 0.31594 0.69251 0.46109 0.0
C1553 C 0.32546 0.70707 0.44652 0.0
C1554 C 0.37516 0.71896 0.44247 0.0
C1555 C 0.41502 0.71644 0.45294 0.0
C1556 C 0.40399 0.70247 0.46775 0.0
H1557 H 0.28803 0.52491 0.23171 0.0
H1558 H 0.1513 0.43495 0.23483 0.0
H1559 H 0.10894 0.49155 0.21736 0.0
H1560 H 0.22592 0.64382 0.2313 0.0
H1561 H 0.26903 0.67268 0.21835 0.0
H1562 H 0.2904 0.62308 0.23019 0.0
H1563 H 0.32007 0.57232 0.20698 0.0
H1564 H 0.29863 0.62177 0.19506 0.0
H1565 H 0.2759 0.55826 0.19225 0.0
H1566 H 0.08038 0.55772 0.20046 0.0
H1567 H 0.06438 0.63321 0.18596 0.0
H1568 H 0.21807 0.68502 0.19389 0.0
C1569 C 0.2494 0.51698 0.22852 0.0
C1570 C 0.22284 0.47548 0.23455 0.0
C1571 C 0.17212 0.46661 0.23036 0.0
C1572 C 0.14789 0.49838 0.22039 0.0
C1573 C 0.17476 0.53916 0.21474 0.0
C1574 C 0.22425 0.54894 0.21867 0.0
C1575 C 0.24303 0.59735 0.21158 0.0
C1576 C 0.25797 0.63655 0.22357 0.0
C1577 C 0.28702 0.58678 0.20083 0.0
C1578 C 0.19619 0.61333 0.2032 0.0
C1579 C 0.15763 0.57867 0.2051 0.0
C1580 C 0.11032 0.58504 0.19883 0.0
C1581 C 0.10169 0.62832 0.19057 0.0
C1582 C 0.13995 0.66545 0.18869 0.0
C1583 C 0.18816 0.65732 0.19496 0.0
loop_
_geom_bond_atom_site_label_1
_geom_bond_atom_site_label_2
_geom_bond_distance
_geom_bond_site_symmetry_2
_ccdc_geom_bond_type
H0 O26 0.856 . S
H1 O29 0.854 . S
H2 C37 0.930 . S
H3 C38 0.930 . S
H4 C40 0.930 1_565 S
H5 C41 0.930 1_565 S
H6 C43 0.933 . S
H7 C44 0.930 . S
H8 C46 0.930 . S
H9 C47 0.929 . S
H10 C49 0.930 . S
H11 C50 0.931 . S
H12 C52 0.930 . S
H13 C53 0.929 1_565 S
H14 C55 0.931 . S
H15 C56 0.930 . S
H16 C58 0.930 . S
H17 C59 0.932 . S
H18 C61 0.930 1_445 S
H19 C62 0.929 . S
H20 C64 0.931 . S
H21 C65 0.930 . S
H22 C67 0.929 . S
H23 C68 0.931 1_545 S
H24 C70 0.930 . S
H25 C71 0.929 . S
O26 H0 0.856 . S
O26 C72 1.300 . S
O27 C72 1.209 . S
O28 C73 1.199 . S
O29 H1 0.854 . S
O29 C73 1.297 . S
C30 C31 1.404 . S
C30 C35 1.397 . S
C30 C36 1.492 . S
C31 C30 1.404 . S
C31 C32 1.396 1_455 S
C31 C42 1.492 . S
C32 C31 1.396 1_655 S
C32 C33 1.397 . S
C32 C48 1.509 . S
C33 C32 1.397 . S
C33 C34 1.412 1_545 S
C33 C54 1.484 1_545 S
C34 C33 1.412 1_565 S
C34 C35 1.388 1_665 S
C34 C60 1.490 . S
C35 C30 1.397 . S
C35 C34 1.388 1_445 S
C35 C66 1.519 1_545 S
C36 C30 1.492 . S
C36 C37 1.363 . S
C36 C41 1.390 . S
C37 H2 0.930 . S
C37 C36 1.363 . S
C37 C38 1.372 . S
C38 H3 0.930 . S
C38 C37 1.372 . S
C38 C39 1.383 . S
C39 C38 1.383 . S
C39 C40 1.395 . S
C40 H4 0.930 1_545 S
C40 C39 1.395 . S
C40 C41 1.362 . S
C41 H5 0.930 1_545 S
C41 C36 1.390 . S
C41 C40 1.362 . S
C42 C31 1.492 . S
C42 C43 1.377 . S
C42 C47 1.397 . S
C43 H6 0.933 . S
C43 C42 1.377 . S
C43 C44 1.376 . S
C44 H7 0.930 . S
C44 C43 1.376 . S
C44 C45 1.376 . S
C45 C44 1.376 . S
C45 C46 1.378 . S
C45 C72 1.486 . S
C46 H8 0.930 . S
C46 C45 1.378 . S
C46 C47 1.376 . S
C47 H9 0.929 . S
C47 C42 1.397 . S
C47 C46 1.376 . S
C48 C32 1.509 . S
C48 C49 1.391 . S
C48 C53 1.386 . S
C49 H10 0.930 . S
C49 C48 1.391 . S
C49 C50 1.375 . S
C50 H11 0.931 . S
C50 C49 1.375 . S
C50 C51 1.375 . S
C51 C50 1.375 . S
C51 C52 1.361 . S
C52 H12 0.930 . S
C52 C51 1.361 . S
C52 C53 1.399 . S
C53 H13 0.929 1_545 S
C53 C48 1.386 . S
C53 C52 1.399 . S
C54 C33 1.484 1_565 S
C54 C55 1.391 1_565 S
C54 C59 1.364 . S
C55 H14 0.931 . S
C55 C54 1.391 1_545 S
C55 C56 1.372 . S
C56 H15 0.930 . S
C56 C55 1.372 . S
C56 C57 1.397 1_545 S
C57 C56 1.397 1_565 S
C57 C58 1.390 . S
C57 C73 1.476 . S
C58 H16 0.930 . S
C58 C57 1.390 . S
C58 C59 1.366 . S
C59 H17 0.932 . S
C59 C54 1.364 . S
C59 C58 1.366 . S
C60 C34 1.490 . S
C60 C61 1.380 . S
C60 C65 1.386 . S
C61 H18 0.930 1_665 S
C61 C60 1.380 . S
C61 C62 1.381 . S
C62 H19 0.929 . S
C62 C61 1.381 . S
C62 C63 1.371 . S
C63 C62 1.371 . S
C63 C64 1.380 . S
C64 H20 0.931 . S
C64 C63 1.380 . S
C64 C65 1.387 . S
C65 H21 0.930 . S
C65 C60 1.386 . S
C65 C64 1.387 . S
C66 C35 1.519 1_565 S
C66 C67 1.377 1_565 S
C66 C71 1.361 . S
C67 H22 0.929 . S
C67 C66 1.377 1_545 S
C67 C68 1.386 1_545 S
C68 H23 0.931 1_565 S
C68 C67 1.386 1_565 S
C68 C69 1.363 . S
C69 C68 1.363 . S
C69 C70 1.385 . S
C70 H24 0.930 . S
C70 C69 1.385 . S
C70 C71 1.396 . S
C71 H25 0.929 . S
C71 C66 1.361 . S
C71 C70 1.396 . S
C72 O26 1.300 . S
C72 O27 1.209 . S
C72 C45 1.486 . S
C73 O28 1.199 . S
C73 O29 1.297 . S
C73 C57 1.476 . S
H74 O100 0.856 . S
H75 O103 0.854 . S
H76 C111 0.930 . S
H77 C112 0.930 . S
H78 C114 0.930 . S
H79 C115 0.930 . S
H80 C117 0.931 . S
H81 C118 0.930 . S
H82 C120 0.930 . S
H83 C121 0.929 . S
H84 C123 0.930 . S
H85 C124 0.931 . S
H86 C126 0.930 . S
H87 C127 0.929 . S
H88 C129 0.931 . S
H89 C130 0.927 1_545 S
H90 C132 0.930 1_545 S
H91 C133 0.932 . S
H92 C135 0.930 . S
H93 C136 0.929 . S
H94 C138 0.931 . S
H95 C139 0.930 . S
H96 C141 0.929 . S
H97 C142 0.931 . S
H98 C144 0.930 . S
H99 C145 0.929 . S
O100 H74 0.856 . S
O100 C146 1.300 . S
O101 C146 1.209 . S
O102 C147 1.199 . S
O103 H75 0.854 . S
O103 C147 1.297 . S
C104 C105 1.404 . S
C104 C109 1.397 . S
C104 C110 1.492 . S
C105 C104 1.404 . S
C105 C106 1.396 . S
C105 C116 1.492 . S
C106 C105 1.396 . S
C106 C107 1.397 . S
C106 C122 1.509 . S
C107 C106 1.397 . S
C107 C108 1.412 . S
C107 C128 1.485 . S
C108 C107 1.412 . S
C108 C109 1.388 . S
C108 C134 1.490 . S
C109 C104 1.397 . S
C109 C108 1.388 . S
C109 C140 1.519 . S
C110 C104 1.492 . S
C110 C111 1.363 . S
C110 C115 1.390 . S
C111 H76 0.930 . S
C111 C110 1.363 . S
C111 C112 1.372 . S
C112 H77 0.930 . S
C112 C111 1.372 . S
C112 C113 1.383 . S
C113 C112 1.383 . S
C113 C114 1.395 . S
C114 H78 0.930 . S
C114 C113 1.395 . S
C114 C115 1.362 . S
C115 H79 0.930 . S
C115 C110 1.390 . S
C115 C114 1.362 . S
C116 C105 1.492 . S
C116 C117 1.377 . S
C116 C121 1.397 . S
C117 H80 0.931 . S
C117 C116 1.377 . S
C117 C118 1.376 . S
C118 H81 0.930 . S
C118 C117 1.376 . S
C118 C119 1.376 . S
C119 C118 1.376 . S
C119 C120 1.378 . S
C119 C146 1.486 . S
C120 H82 0.930 . S
C120 C119 1.378 . S
C120 C121 1.376 . S
C121 H83 0.929 . S
C121 C116 1.397 . S
C121 C120 1.376 . S
C122 C106 1.509 . S
C122 C123 1.391 . S
C122 C127 1.386 . S
C123 H84 0.930 . S
C123 C122 1.391 . S
C123 C124 1.375 . S
C124 H85 0.931 . S
C124 C123 1.375 . S
C124 C125 1.375 . S
C125 C124 1.375 . S
C125 C126 1.361 . S
C126 H86 0.930 . S
C126 C125 1.361 . S
C126 C127 1.399 . S
C127 H87 0.929 . S
C127 C122 1.386 . S
C127 C126 1.399 . S
C128 C107 1.485 . S
C128 C129 1.394 . S
C128 C133 1.360 . S
C129 H88 0.931 . S
C129 C128 1.394 . S
C129 C130 1.372 . S
C130 H89 0.927 1_565 S
C130 C129 1.372 . S
C130 C131 1.397 1_565 S
C131 C130 1.397 1_545 S
C131 C132 1.390 1_545 S
C131 C147 1.476 . S
C132 H90 0.930 1_565 S
C132 C131 1.390 1_565 S
C132 C133 1.366 . S
C133 H91 0.932 . S
C133 C128 1.360 . S
C133 C132 1.366 . S
C134 C108 1.490 . S
C134 C135 1.380 . S
C134 C139 1.386 . S
C135 H92 0.930 . S
C135 C134 1.380 . S
C135 C136 1.381 . S
C136 H93 0.929 . S
C136 C135 1.381 . S
C136 C137 1.371 . S
C137 C136 1.371 . S
C137 C138 1.380 . S
C138 H94 0.931 . S
C138 C137 1.380 . S
C138 C139 1.387 . S
C139 H95 0.930 . S
C139 C134 1.386 . S
C139 C138 1.387 . S
C140 C109 1.519 . S
C140 C141 1.377 . S
C140 C145 1.361 . S
C141 H96 0.929 . S
C141 C140 1.377 . S
C141 C142 1.386 . S
C142 H97 0.931 . S
C142 C141 1.386 . S
C142 C143 1.363 . S
C143 C142 1.363 . S
C143 C144 1.385 . S
C144 H98 0.930 . S
C144 C143 1.385 . S
C144 C145 1.396 . S
C145 H99 0.929 . S
C145 C140 1.361 . S
C145 C144 1.396 . S
C146 O100 1.300 . S
C146 O101 1.209 . S
C146 C119 1.486 . S
C147 O102 1.199 . S
C147 O103 1.297 . S
C147 C131 1.476 . S
H148 O174 0.856 . S
H149 O177 0.854 . S
H150 C185 0.930 . S
H151 C186 0.930 . S
H152 C188 0.930 . S
H153 C189 0.930 . S
H154 C191 0.931 . S
H155 C192 0.930 . S
H156 C194 0.930 1_545 S
H157 C195 0.929 . S
H158 C197 0.930 . S
H159 C198 0.931 . S
H160 C200 0.930 . S
H161 C201 0.929 . S
H162 C203 0.931 . S
H163 C204 0.930 . S
H164 C206 0.930 . S
H165 C207 0.932 . S
H166 C209 0.930 . S
H167 C210 0.929 . S
H168 C212 0.931 . S
H169 C213 0.930 . S
H170 C215 0.929 . S
H171 C216 0.931 . S
H172 C218 0.930 . S
H173 C219 0.929 . S
O174 H148 0.856 . S
O174 C220 1.300 . S
O175 C220 1.209 . S
O176 C221 1.199 . S
O177 H149 0.854 . S
O177 C221 1.297 . S
C178 C179 1.404 . S
C178 C183 1.397 . S
C178 C184 1.492 . S
C179 C178 1.404 . S
C179 C180 1.396 . S
C179 C190 1.492 1_545 S
C180 C179 1.396 . S
C180 C181 1.397 . S
C180 C196 1.509 . S
C181 C180 1.397 . S
C181 C182 1.412 . S
C181 C202 1.485 . S
C182 C181 1.412 . S
C182 C183 1.388 . S
C182 C208 1.490 . S
C183 C178 1.397 . S
C183 C182 1.388 . S
C183 C214 1.519 . S
C184 C178 1.492 . S
C184 C185 1.363 1_545 S
C184 C189 1.390 . S
C185 H150 0.930 . S
C185 C184 1.363 1_565 S
C185 C186 1.372 . S
C186 H151 0.930 . S
C186 C185 1.372 . S
C186 C187 1.383 . S
C187 C186 1.383 . S
C187 C188 1.395 1_565 S
C188 H152 0.930 . S
C188 C187 1.395 1_545 S
C188 C189 1.362 . S
C189 H153 0.930 . S
C189 C184 1.390 . S
C189 C188 1.362 . S
C190 C179 1.492 1_565 S
C190 C191 1.377 . S
C190 C195 1.397 1_565 S
C191 H154 0.931 . S
C191 C190 1.377 . S
C191 C192 1.376 . S
C192 H155 0.930 . S
C192 C191 1.376 . S
C192 C193 1.376 . S
C193 C192 1.376 . S
C193 C194 1.378 . S
C193 C220 1.486 . S
C194 H156 0.930 1_565 S
C194 C193 1.378 . S
C194 C195 1.376 1_565 S
C195 H157 0.929 . S
C195 C190 1.397 1_545 S
C195 C194 1.376 1_545 S
C196 C180 1.509 . S
C196 C197 1.391 1_545 S
C196 C201 1.386 . S
C197 H158 0.930 . S
C197 C196 1.391 1_565 S
C197 C198 1.375 . S
C198 H159 0.931 . S
C198 C197 1.375 . S
C198 C199 1.375 . S
C199 C198 1.375 . S
C199 C200 1.361 1_565 S
C200 H160 0.930 . S
C200 C199 1.361 1_545 S
C200 C201 1.399 . S
C201 H161 0.929 . S
C201 C196 1.386 . S
C201 C200 1.399 . S
C202 C181 1.485 . S
C202 C203 1.394 . S
C202 C207 1.360 . S
C203 H162 0.931 . S
C203 C202 1.394 . S
C203 C204 1.372 . S
C204 H163 0.930 . S
C204 C203 1.372 . S
C204 C205 1.397 . S
C205 C204 1.397 . S
C205 C206 1.390 . S
C205 C221 1.476 . S
C206 H164 0.930 . S
C206 C205 1.390 . S
C206 C207 1.366 . S
C207 H165 0.932 . S
C207 C202 1.360 . S
C207 C206 1.366 . S
C208 C182 1.490 . S
C208 C209 1.380 . S
C208 C213 1.386 . S
C209 H166 0.930 . S
C209 C208 1.380 . S
C209 C210 1.381 1_554 S
C210 H167 0.929 . S
C210 C209 1.381 1_556 S
C210 C211 1.371 . S
C211 C210 1.371 . S
C211 C212 1.380 1_556 S
C212 H168 0.931 . S
C212 C211 1.380 1_554 S
C212 C213 1.387 . S
C213 H169 0.930 . S
C213 C208 1.386 . S
C213 C212 1.387 . S
C214 C183 1.519 . S
C214 C215 1.377 . S
C214 C219 1.361 . S
C215 H170 0.929 . S
C215 C214 1.377 . S
C215 C216 1.386 . S
C216 H171 0.931 . S
C216 C215 1.386 . S
C216 C217 1.363 . S
C217 C216 1.363 . S
C217 C218 1.385 . S
C218 H172 0.930 . S
C218 C217 1.385 . S
C218 C219 1.396 . S
C219 H173 0.929 . S
C219 C214 1.361 . S
C219 C218 1.396 . S
C220 O174 1.300 . S
C220 O175 1.209 . S
C220 C193 1.486 . S
C221 O176 1.199 . S
C221 O177 1.297 . S
C221 C205 1.476 . S
H222 O248 0.856 . S
H223 O251 0.854 . S
H224 C259 0.930 . S
H225 C260 0.930 . S
H226 C262 0.930 . S
H227 C263 0.930 . S
H228 C265 0.931 . S
H229 C266 0.930 . S
H230 C268 0.930 . S
H231 C269 0.929 . S
H232 C271 0.930 . S
H233 C272 0.931 . S
H234 C274 0.930 . S
H235 C275 0.929 . S
H236 C277 0.931 . S
H237 C278 0.930 . S
H238 C280 0.930 . S
H239 C281 0.932 . S
H240 C283 0.930 . S
H241 C284 0.929 . S
H242 C286 0.931 . S
H243 C287 0.930 . S
H244 C289 0.929 . S
H245 C290 0.931 . S
H246 C292 0.930 . S
H247 C293 0.929 . S
O248 H222 0.856 . S
O248 C294 1.300 . S
O249 C294 1.209 . S
O250 C295 1.199 . S
O251 H223 0.854 . S
O251 C295 1.297 . S
C252 C253 1.404 . S
C252 C257 1.397 . S
C252 C258 1.492 . S
C253 C252 1.404 . S
C253 C254 1.396 . S
C253 C264 1.492 . S
C254 C253 1.396 . S
C254 C255 1.397 . S
C254 C270 1.509 . S
C255 C254 1.397 . S
C255 C256 1.412 . S
C255 C276 1.485 . S
C256 C255 1.412 . S
C256 C257 1.388 . S
C256 C282 1.490 . S
C257 C252 1.397 . S
C257 C256 1.388 . S
C257 C288 1.519 . S
C258 C252 1.492 . S
C258 C259 1.363 . S
C258 C263 1.390 . S
C259 H224 0.930 . S
C259 C258 1.363 . S
C259 C260 1.372 . S
C260 H225 0.930 . S
C260 C259 1.372 . S
C260 C261 1.383 . S
C261 C260 1.383 . S
C261 C262 1.395 . S
C262 H226 0.930 . S
C262 C261 1.395 . S
C262 C263 1.362 . S
C263 H227 0.930 . S
C263 C258 1.390 . S
C263 C262 1.362 . S
C264 C253 1.492 . S
C264 C265 1.377 . S
C264 C269 1.397 . S
C265 H228 0.931 . S
C265 C264 1.377 . S
C265 C266 1.376 . S
C266 H229 0.930 . S
C266 C265 1.376 . S
C266 C267 1.376 . S
C267 C266 1.376 . S
C267 C268 1.378 . S
C267 C294 1.486 . S
C268 H230 0.930 . S
C268 C267 1.378 . S
C268 C269 1.376 . S
C269 H231 0.929 . S
C269 C264 1.397 . S
C269 C268 1.376 . S
C270 C254 1.509 . S
C270 C271 1.391 . S
C270 C275 1.386 . S
C271 H232 0.930 . S
C271 C270 1.391 . S
C271 C272 1.375 . S
C272 H233 0.931 . S
C272 C271 1.375 . S
C272 C273 1.375 . S
C273 C272 1.375 . S
C273 C274 1.361 . S
C274 H234 0.930 . S
C274 C273 1.361 . S
C274 C275 1.399 . S
C275 H235 0.929 . S
C275 C270 1.386 . S
C275 C274 1.399 . S
C276 C255 1.485 . S
C276 C277 1.394 . S
C276 C281 1.360 . S
C277 H236 0.931 . S
C277 C276 1.394 . S
C277 C278 1.372 . S
C278 H237 0.930 . S
C278 C277 1.372 . S
C278 C279 1.397 . S
C279 C278 1.397 . S
C279 C280 1.390 . S
C279 C295 1.476 . S
C280 H238 0.930 . S
C280 C279 1.390 . S
C280 C281 1.366 . S
C281 H239 0.932 . S
C281 C276 1.360 . S
C281 C280 1.366 . S
C282 C256 1.490 . S
C282 C283 1.380 . S
C282 C287 1.386 . S
C283 H240 0.930 . S
C283 C282 1.380 . S
C283 C284 1.381 . S
C284 H241 0.929 . S
C284 C283 1.381 . S
C284 C285 1.371 . S
C285 C284 1.371 . S
C285 C286 1.380 . S
C286 H242 0.931 . S
C286 C285 1.380 . S
C286 C287 1.387 . S
C287 H243 0.930 . S
C287 C282 1.386 . S
C287 C286 1.387 . S
C288 C257 1.519 . S
C288 C289 1.377 . S
C288 C293 1.361 . S
C289 H244 0.929 . S
C289 C288 1.377 . S
C289 C290 1.386 . S
C290 H245 0.931 . S
C290 C289 1.386 . S
C290 C291 1.363 . S
C291 C290 1.363 . S
C291 C292 1.385 . S
C292 H246 0.930 . S
C292 C291 1.385 . S
C292 C293 1.396 . S
C293 H247 0.929 . S
C293 C288 1.361 . S
C293 C292 1.396 . S
C294 O248 1.300 . S
C294 O249 1.209 . S
C294 C267 1.486 . S
C295 O250 1.199 . S
C295 O251 1.297 . S
C295 C279 1.476 . S
H296 O322 0.856 . S
H297 O325 0.854 . S
H298 C333 0.930 . S
H299 C334 0.930 . S
H300 C336 0.930 . S
H301 C337 0.930 . S
H302 C339 0.931 . S
H303 C340 0.930 . S
H304 C342 0.930 . S
H305 C343 0.929 . S
H306 C345 0.930 . S
H307 C346 0.931 . S
H308 C348 0.930 . S
H309 C349 0.929 . S
H310 C351 0.931 . S
H311 C352 0.930 . S
H312 C354 0.930 . S
H313 C355 0.932 . S
H314 C357 0.930 . S
H315 C358 0.929 . S
H316 C360 0.931 . S
H317 C361 0.930 . S
H318 C363 0.929 . S
H319 C364 0.931 . S
H320 C366 0.930 . S
H321 C367 0.929 . S
O322 H296 0.856 . S
O322 C368 1.300 . S
O323 C368 1.209 . S
O324 C369 1.199 . S
O325 H297 0.854 . S
O325 C369 1.297 . S
C326 C327 1.404 . S
C326 C331 1.397 . S
C326 C332 1.492 . S
C327 C326 1.404 . S
C327 C328 1.396 . S
C327 C338 1.492 . S
C328 C327 1.396 . S
C328 C329 1.397 . S
C328 C344 1.509 . S
C329 C328 1.397 . S
C329 C330 1.412 . S
C329 C350 1.485 . S
C330 C329 1.412 . S
C330 C331 1.388 . S
C330 C356 1.490 . S
C331 C326 1.397 . S
C331 C330 1.388 . S
C331 C362 1.519 . S
C332 C326 1.492 . S
C332 C333 1.363 . S
C332 C337 1.390 . S
C333 H298 0.930 . S
C333 C332 1.363 . S
C333 C334 1.372 . S
C334 H299 0.930 . S
C334 C333 1.372 . S
C334 C335 1.383 . S
C335 C334 1.383 . S
C335 C336 1.395 . S
C336 H300 0.930 . S
C336 C335 1.395 . S
C336 C337 1.362 . S
C337 H301 0.930 . S
C337 C332 1.390 . S
C337 C336 1.362 . S
C338 C327 1.492 . S
C338 C339 1.377 . S
C338 C343 1.397 . S
C339 H302 0.931 . S
C339 C338 1.377 . S
C339 C340 1.376 . S
C340 H303 0.930 . S
C340 C339 1.376 . S
C340 C341 1.376 . S
C341 C340 1.376 . S
C341 C342 1.378 . S
C341 C368 1.486 . S
C342 H304 0.930 . S
C342 C341 1.378 . S
C342 C343 1.376 . S
C343 H305 0.929 . S
C343 C338 1.397 . S
C343 C342 1.376 . S
C344 C328 1.509 . S
C344 C345 1.391 . S
C344 C349 1.386 . S
C345 H306 0.930 . S
C345 C344 1.391 . S
C345 C346 1.375 . S
C346 H307 0.931 . S
C346 C345 1.375 . S
C346 C347 1.375 . S
C347 C346 1.375 . S
C347 C348 1.361 . S
C348 H308 0.930 . S
C348 C347 1.361 . S
C348 C349 1.399 . S
C349 H309 0.929 . S
C349 C344 1.386 . S
C349 C348 1.399 . S
C350 C329 1.485 . S
C350 C351 1.394 . S
C350 C355 1.360 . S
C351 H310 0.931 . S
C351 C350 1.394 . S
C351 C352 1.372 . S
C352 H311 0.930 . S
C352 C351 1.372 . S
C352 C353 1.397 . S
C353 C352 1.397 . S
C353 C354 1.390 . S
C353 C369 1.476 . S
C354 H312 0.930 . S
C354 C353 1.390 . S
C354 C355 1.366 . S
C355 H313 0.932 . S
C355 C350 1.360 . S
C355 C354 1.366 . S
C356 C330 1.490 . S
C356 C357 1.380 . S
C356 C361 1.386 . S
C357 H314 0.930 . S
C357 C356 1.380 . S
C357 C358 1.381 . S
C358 H315 0.929 . S
C358 C357 1.381 . S
C358 C359 1.371 . S
C359 C358 1.371 . S
C359 C360 1.380 . S
C360 H316 0.931 . S
C360 C359 1.380 . S
C360 C361 1.387 . S
C361 H317 0.930 . S
C361 C356 1.386 . S
C361 C360 1.387 . S
C362 C331 1.519 . S
C362 C363 1.377 . S
C362 C367 1.361 . S
C363 H318 0.929 . S
C363 C362 1.377 . S
C363 C364 1.386 . S
C364 H319 0.931 . S
C364 C363 1.386 . S
C364 C365 1.363 . S
C365 C364 1.363 . S
C365 C366 1.385 . S
C366 H320 0.930 . S
C366 C365 1.385 . S
C366 C367 1.396 . S
C367 H321 0.929 . S
C367 C362 1.361 . S
C367 C366 1.396 . S
C368 O322 1.300 . S
C368 O323 1.209 . S
C368 C341 1.486 . S
C369 O324 1.199 . S
C369 O325 1.297 . S
C369 C353 1.476 . S
H370 O396 0.856 . S
H371 O399 0.854 . S
H372 C407 0.930 . S
H373 C408 0.930 . S
H374 C410 0.930 . S
H375 C411 0.930 . S
H376 C413 0.931 . S
H377 C414 0.930 . S
H378 C416 0.930 . S
H379 C417 0.929 . S
H380 C419 0.930 . S
H381 C420 0.931 . S
H382 C422 0.930 . S
H383 C423 0.929 . S
H384 C425 0.931 . S
H385 C426 0.930 . S
H386 C428 0.930 . S
H387 C429 0.932 . S
H388 C431 0.930 . S
H389 C432 0.929 . S
H390 C434 0.931 . S
H391 C435 0.930 . S
H392 C437 0.929 . S
H393 C438 0.931 . S
H394 C440 0.930 . S
H395 C441 0.929 . S
O396 H370 0.856 . S
O396 C442 1.300 . S
O397 C442 1.209 . S
O398 C443 1.199 . S
O399 H371 0.854 . S
O399 C443 1.297 . S
C400 C401 1.404 . S
C400 C405 1.397 . S
C400 C406 1.492 . S
C401 C400 1.404 . S
C401 C402 1.396 . S
C401 C412 1.492 . S
C402 C401 1.396 . S
C402 C403 1.397 . S
C402 C418 1.509 . S
C403 C402 1.397 . S
C403 C404 1.412 . S
C403 C424 1.485 . S
C404 C403 1.412 . S
C404 C405 1.388 . S
C404 C430 1.490 . S
C405 C400 1.397 . S
C405 C404 1.388 . S
C405 C436 1.519 . S
C406 C400 1.492 . S
C406 C407 1.363 . S
C406 C411 1.390 . S
C407 H372 0.930 . S
C407 C406 1.363 . S
C407 C408 1.372 . S
C408 H373 0.930 . S
C408 C407 1.372 . S
C408 C409 1.383 . S
C409 C408 1.383 . S
C409 C410 1.395 . S
C410 H374 0.930 . S
C410 C409 1.395 . S
C410 C411 1.362 . S
C411 H375 0.930 . S
C411 C406 1.390 . S
C411 C410 1.362 . S
C412 C401 1.492 . S
C412 C413 1.377 . S
C412 C417 1.397 . S
C413 H376 0.931 . S
C413 C412 1.377 . S
C413 C414 1.376 . S
C414 H377 0.930 . S
C414 C413 1.376 . S
C414 C415 1.376 . S
C415 C414 1.376 . S
C415 C416 1.378 . S
C415 C442 1.486 . S
C416 H378 0.930 . S
C416 C415 1.378 . S
C416 C417 1.376 . S
C417 H379 0.929 . S
C417 C412 1.397 . S
C417 C416 1.376 . S
C418 C402 1.509 . S
C418 C419 1.391 . S
C418 C423 1.386 . S
C419 H380 0.930 . S
C419 C418 1.391 . S
C419 C420 1.375 . S
C420 H381 0.931 . S
C420 C419 1.375 . S
C420 C421 1.375 . S
C421 C420 1.375 . S
C421 C422 1.361 . S
C422 H382 0.930 . S
C422 C421 1.361 . S
C422 C423 1.399 . S
C423 H383 0.929 . S
C423 C418 1.386 . S
C423 C422 1.399 . S
C424 C403 1.485 . S
C424 C425 1.394 . S
C424 C429 1.360 . S
C425 H384 0.931 . S
C425 C424 1.394 . S
C425 C426 1.372 . S
C426 H385 0.930 . S
C426 C425 1.372 . S
C426 C427 1.397 . S
C427 C426 1.397 . S
C427 C428 1.390 . S
C427 C443 1.476 . S
C428 H386 0.930 . S
C428 C427 1.390 . S
C428 C429 1.366 . S
C429 H387 0.932 . S
C429 C424 1.360 . S
C429 C428 1.366 . S
C430 C404 1.490 . S
C430 C431 1.380 . S
C430 C435 1.386 . S
C431 H388 0.930 . S
C431 C430 1.380 . S
C431 C432 1.381 . S
C432 H389 0.929 . S
C432 C431 1.381 . S
C432 C433 1.371 . S
C433 C432 1.371 . S
C433 C434 1.380 . S
C434 H390 0.931 . S
C434 C433 1.380 . S
C434 C435 1.387 . S
C435 H391 0.930 . S
C435 C430 1.386 . S
C435 C434 1.387 . S
C436 C405 1.519 . S
C436 C437 1.377 . S
C436 C441 1.361 . S
C437 H392 0.929 . S
C437 C436 1.377 . S
C437 C438 1.386 . S
C438 H393 0.931 . S
C438 C437 1.386 . S
C438 C439 1.363 . S
C439 C438 1.363 . S
C439 C440 1.385 . S
C440 H394 0.930 . S
C440 C439 1.385 . S
C440 C441 1.396 . S
C441 H395 0.929 . S
C441 C436 1.361 . S
C441 C440 1.396 . S
C442 O396 1.300 . S
C442 O397 1.209 . S
C442 C415 1.486 . S
C443 O398 1.199 . S
C443 O399 1.297 . S
C443 C427 1.476 . S
H444 O470 0.856 . S
H445 O473 0.854 . S
H446 C481 0.930 . S
H447 C482 0.960 . S
H448 C484 0.930 . S
H449 C485 0.930 . S
H450 C487 0.931 . S
H451 C488 0.930 . S
H452 C490 0.930 . S
H453 C491 0.929 . S
H454 C493 0.930 . S
H455 C494 0.931 . S
H456 C496 0.930 . S
H457 C497 0.929 . S
H458 C499 0.931 . S
H459 C500 0.930 . S
H460 C502 0.930 . S
H461 C503 0.932 . S
H462 C505 0.930 . S
H463 C506 0.929 . S
H464 C508 0.931 . S
H465 C509 0.930 . S
H466 C511 0.929 . S
H467 C512 0.931 . S
H468 C514 0.930 . S
H469 C515 0.929 . S
O470 H444 0.856 . S
O470 C516 1.300 . S
O471 C516 1.209 . S
O472 C517 1.199 . S
O473 H445 0.854 . S
O473 C517 1.297 . S
C474 C475 1.404 . S
C474 C479 1.397 . S
C474 C480 1.492 . S
C475 C474 1.404 . S
C475 C476 1.396 . S
C475 C486 1.492 . S
C476 C475 1.396 . S
C476 C477 1.397 . S
C476 C492 1.509 . S
C477 C476 1.397 . S
C477 C478 1.412 . S
C477 C498 1.485 . S
C478 C477 1.412 . S
C478 C479 1.388 . S
C478 C504 1.490 . S
C479 C474 1.397 . S
C479 C478 1.388 . S
C479 C510 1.519 . S
C480 C474 1.492 . S
C480 C481 1.363 . S
C480 C485 1.390 . S
C481 H446 0.930 . S
C481 C480 1.363 . S
C481 C482 1.372 . S
C482 H447 0.960 . S
C482 C481 1.372 . S
C482 C483 1.383 . S
C483 C482 1.383 . S
C483 C484 1.395 . S
C484 H448 0.930 . S
C484 C483 1.395 . S
C484 C485 1.362 . S
C485 H449 0.930 . S
C485 C480 1.390 . S
C485 C484 1.362 . S
C486 C475 1.492 . S
C486 C487 1.377 1_554 S
C486 C491 1.397 . S
C487 H450 0.931 . S
C487 C486 1.377 1_556 S
C487 C488 1.376 . S
C488 H451 0.930 . S
C488 C487 1.376 . S
C488 C489 1.376 . S
C489 C488 1.376 . S
C489 C490 1.378 . S
C489 C516 1.486 . S
C490 H452 0.930 . S
C490 C489 1.378 . S
C490 C491 1.376 1_556 S
C491 H453 0.929 . S
C491 C486 1.397 . S
C491 C490 1.376 1_554 S
C492 C476 1.509 . S
C492 C493 1.391 . S
C492 C497 1.386 . S
C493 H454 0.930 . S
C493 C492 1.391 . S
C493 C494 1.375 1_554 S
C494 H455 0.931 . S
C494 C493 1.375 1_556 S
C494 C495 1.375 . S
C495 C494 1.375 . S
C495 C496 1.361 1_556 S
C496 H456 0.930 . S
C496 C495 1.361 1_554 S
C496 C497 1.399 . S
C497 H457 0.929 . S
C497 C492 1.386 . S
C497 C496 1.399 . S
C498 C477 1.485 . S
C498 C499 1.394 . S
C498 C503 1.360 . S
C499 H458 0.931 . S
C499 C498 1.394 . S
C499 C500 1.372 . S
C500 H459 0.930 . S
C500 C499 1.372 . S
C500 C501 1.397 . S
C501 C500 1.397 . S
C501 C502 1.390 . S
C501 C517 1.476 . S
C502 H460 0.930 . S
C502 C501 1.390 . S
C502 C503 1.366 . S
C503 H461 0.932 . S
C503 C498 1.360 . S
C503 C502 1.366 . S
C504 C478 1.490 . S
C504 C505 1.380 . S
C504 C509 1.386 . S
C505 H462 0.930 . S
C505 C504 1.380 . S
C505 C506 1.381 . S
C506 H463 0.929 . S
C506 C505 1.381 . S
C506 C507 1.371 . S
C507 C506 1.371 . S
C507 C508 1.380 . S
C508 H464 0.931 . S
C508 C507 1.380 . S
C508 C509 1.387 . S
C509 H465 0.930 . S
C509 C504 1.386 . S
C509 C508 1.387 . S
C510 C479 1.519 . S
C510 C511 1.377 . S
C510 C515 1.361 . S
C511 H466 0.929 . S
C511 C510 1.377 . S
C511 C512 1.386 . S
C512 H467 0.931 . S
C512 C511 1.386 . S
C512 C513 1.363 . S
C513 C512 1.363 . S
C513 C514 1.385 . S
C514 H468 0.930 . S
C514 C513 1.385 . S
C514 C515 1.396 . S
C515 H469 0.929 . S
C515 C510 1.361 . S
C515 C514 1.396 . S
C516 O470 1.300 . S
C516 O471 1.209 . S
C516 C489 1.486 . S
C517 O472 1.199 . S
C517 O473 1.297 . S
C517 C501 1.476 . S
H518 O544 0.859 . S
H519 O547 0.854 . S
H520 C555 0.930 . S
H521 C556 0.930 . S
H522 C558 0.930 . S
H523 C559 0.930 . S
H524 C561 0.931 . S
H525 C562 0.930 . S
H526 C564 0.930 . S
H527 C565 0.929 . S
H528 C567 0.930 . S
H529 C568 0.931 . S
H530 C570 0.930 . S
H531 C571 0.929 . S
H532 C573 0.931 . S
H533 C574 0.930 . S
H534 C576 0.930 . S
H535 C577 0.932 . S
H536 C579 0.930 . S
H537 C580 0.929 . S
H538 C582 0.931 . S
H539 C583 0.930 . S
H540 C585 0.929 . S
H541 C586 0.931 . S
H542 C588 0.930 . S
H543 C589 0.929 1_455 S
O544 H518 0.859 . S
O544 C590 1.300 1_455 S
O545 C590 1.209 . S
O546 C591 1.199 . S
O547 H519 0.854 . S
O547 C591 1.297 . S
C548 C549 1.404 . S
C548 C553 1.397 . S
C548 C554 1.492 1_455 S
C549 C548 1.404 . S
C549 C550 1.396 . S
C549 C560 1.492 . S
C550 C549 1.396 . S
C550 C551 1.397 . S
C550 C566 1.509 . S
C551 C550 1.397 . S
C551 C552 1.412 . S
C551 C572 1.485 . S
C552 C551 1.412 . S
C552 C553 1.388 . S
C552 C578 1.490 . S
C553 C548 1.397 . S
C553 C552 1.388 . S
C553 C584 1.519 1_455 S
C554 C548 1.492 1_655 S
C554 C555 1.363 . S
C554 C559 1.390 . S
C555 H520 0.930 . S
C555 C554 1.363 . S
C555 C556 1.372 . S
C556 H521 0.930 . S
C556 C555 1.372 . S
C556 C557 1.383 . S
C557 C556 1.383 . S
C557 C558 1.395 . S
C558 H522 0.930 . S
C558 C557 1.395 . S
C558 C559 1.362 . S
C559 H523 0.930 . S
C559 C554 1.390 . S
C559 C558 1.362 . S
C560 C549 1.492 . S
C560 C561 1.377 . S
C560 C565 1.397 . S
C561 H524 0.931 . S
C561 C560 1.377 . S
C561 C562 1.376 . S
C562 H525 0.930 . S
C562 C561 1.376 . S
C562 C563 1.376 . S
C563 C562 1.376 . S
C563 C564 1.378 1_455 S
C563 C590 1.486 1_455 S
C564 H526 0.930 . S
C564 C563 1.378 1_655 S
C564 C565 1.376 1_655 S
C565 H527 0.929 . S
C565 C560 1.397 . S
C565 C564 1.376 1_455 S
C566 C550 1.509 . S
C566 C567 1.391 . S
C566 C571 1.386 . S
C567 H528 0.930 . S
C567 C566 1.391 . S
C567 C568 1.375 . S
C568 H529 0.931 . S
C568 C567 1.375 . S
C568 C569 1.375 . S
C569 C568 1.375 . S
C569 C570 1.361 . S
C570 H530 0.930 . S
C570 C569 1.361 . S
C570 C571 1.399 . S
C571 H531 0.929 . S
C571 C566 1.386 . S
C571 C570 1.399 . S
C572 C551 1.485 . S
C572 C573 1.394 . S
C572 C577 1.360 . S
C573 H532 0.931 . S
C573 C572 1.394 . S
C573 C574 1.372 . S
C574 H533 0.930 . S
C574 C573 1.372 . S
C574 C575 1.397 . S
C575 C574 1.397 . S
C575 C576 1.390 . S
C575 C591 1.476 . S
C576 H534 0.930 . S
C576 C575 1.390 . S
C576 C577 1.366 . S
C577 H535 0.932 . S
C577 C572 1.360 . S
C577 C576 1.366 . S
C578 C552 1.490 . S
C578 C579 1.380 . S
C578 C583 1.386 . S
C579 H536 0.930 . S
C579 C578 1.380 . S
C579 C580 1.381 . S
C580 H537 0.929 . S
C580 C579 1.381 . S
C580 C581 1.371 . S
C581 C580 1.371 . S
C581 C582 1.380 . S
C582 H538 0.931 . S
C582 C581 1.380 . S
C582 C583 1.387 . S
C583 H539 0.930 . S
C583 C578 1.386 . S
C583 C582 1.387 . S
C584 C553 1.519 1_655 S
C584 C585 1.377 . S
C584 C589 1.361 . S
C585 H540 0.929 . S
C585 C584 1.377 . S
C585 C586 1.386 . S
C586 H541 0.931 . S
C586 C585 1.386 . S
C586 C587 1.363 . S
C587 C586 1.363 . S
C587 C588 1.385 . S
C588 H542 0.930 . S
C588 C587 1.385 . S
C588 C589 1.396 . S
C589 H543 0.929 1_655 S
C589 C584 1.361 . S
C589 C588 1.396 . S
C590 O544 1.300 1_655 S
C590 O545 1.209 . S
C590 C563 1.486 1_655 S
C591 O546 1.199 . S
C591 O547 1.297 . S
C591 C575 1.476 . S
Fe592 O593 1.886 . S
Fe592 O596 1.715 1_455 S
Fe592 O601 2.077 . S
Fe592 O606 1.935 1_455 S
Fe592 O612 2.077 . S
Fe592 O621 1.935 1_455 S
O593 Fe592 1.886 . S
O593 Fe595 1.715 . S
Fe594 O596 1.886 . S
Fe594 O597 1.715 . S
Fe594 O604 1.935 . S
Fe594 O605 2.077 . S
Fe594 O611 1.935 . S
Fe594 O620 2.077 . S
Fe595 O593 1.715 . S
Fe595 O598 1.886 . S
Fe595 O602 1.935 . S
Fe595 O607 2.077 . S
Fe595 O613 1.935 . S
Fe595 O617 2.077 . S
O596 Fe592 1.715 1_655 S
O596 Fe594 1.886 . S
O597 Fe594 1.715 . S
O597 Fe599 1.886 1_655 S
O598 Fe595 1.886 . S
O598 Fe599 1.715 . S
Fe599 O597 1.886 1_455 S
Fe599 O598 1.715 . S
Fe599 O603 2.077 1_455 S
Fe599 O608 1.935 . S
Fe599 O610 2.077 1_455 S
Fe599 O618 1.935 . S
C600 O612 1.381 . S
C600 O613 1.421 . S
O601 Fe592 2.077 . S
O601 C614 1.381 . S
O602 Fe595 1.935 . S
O602 C614 1.421 . S
O603 Fe599 2.077 1_655 S
O603 C619 1.381 . S
O604 Fe594 1.935 . S
O604 C619 1.421 . S
O605 Fe594 2.077 . S
O605 C609 1.381 . S
O606 Fe592 1.935 1_655 S
O606 C609 1.421 . S
O607 Fe595 2.077 . S
O607 C615 1.381 . S
O608 Fe599 1.935 . S
O608 C615 1.421 . S
C609 O605 1.381 . S
C609 O606 1.421 . S
O610 Fe599 2.077 1_655 S
O610 C622 1.381 . S
O611 Fe594 1.935 . S
O611 C622 1.421 . S
O612 Fe592 2.077 . S
O612 C600 1.381 . S
O613 Fe595 1.935 . S
O613 C600 1.421 . S
C614 O601 1.381 . S
C614 O602 1.421 . S
C615 O607 1.381 . S
C615 O608 1.421 . S
C616 O617 1.381 . S
C616 O618 1.421 . S
O617 Fe595 2.077 . S
O617 C616 1.381 . S
O618 Fe599 1.935 . S
O618 C616 1.421 . S
C619 O603 1.381 . S
C619 O604 1.421 . S
O620 Fe594 2.077 . S
O620 C623 1.381 . S
O621 Fe592 1.935 1_655 S
O621 C623 1.421 . S
C622 O610 1.381 . S
C622 O611 1.421 . S
C623 O620 1.381 . S
C623 O621 1.421 . S
Fe624 O625 1.886 . S
Fe624 O628 1.715 . S
Fe624 O633 2.077 . S
Fe624 O638 1.935 . S
Fe624 O644 2.077 . S
Fe624 O653 1.935 . S
O625 Fe624 1.886 . S
O625 Fe627 1.715 . S
Fe626 O628 1.886 . S
Fe626 O629 1.715 . S
Fe626 O636 1.935 . S
Fe626 O637 2.077 . S
Fe626 O643 1.935 . S
Fe626 O652 2.077 . S
Fe627 O625 1.715 . S
Fe627 O630 1.886 . S
Fe627 O634 1.935 . S
Fe627 O639 2.077 . S
Fe627 O645 1.935 . S
Fe627 O649 2.077 . S
O628 Fe624 1.715 . S
O628 Fe626 1.886 . S
O629 Fe626 1.715 . S
O629 Fe631 1.886 . S
O630 Fe627 1.886 . S
O630 Fe631 1.715 . S
Fe631 O629 1.886 . S
Fe631 O630 1.715 . S
Fe631 O635 2.077 . S
Fe631 O640 1.935 . S
Fe631 O642 2.077 . S
Fe631 O650 1.935 . S
C632 O644 1.381 . S
C632 O645 1.421 . S
O633 Fe624 2.077 . S
O633 C646 1.381 . S
O634 Fe627 1.935 . S
O634 C646 1.421 . S
O635 Fe631 2.077 . S
O635 C651 1.381 . S
O636 Fe626 1.935 . S
O636 C651 1.421 . S
O637 Fe626 2.077 . S
O637 C641 1.381 . S
O638 Fe624 1.935 . S
O638 C641 1.421 . S
O639 Fe627 2.077 . S
O639 C647 1.381 . S
O640 Fe631 1.935 . S
O640 C647 1.421 . S
C641 O637 1.381 . S
C641 O638 1.421 . S
O642 Fe631 2.077 . S
O642 C654 1.381 . S
O643 Fe626 1.935 . S
O643 C654 1.421 . S
O644 Fe624 2.077 . S
O644 C632 1.381 . S
O645 Fe627 1.935 . S
O645 C632 1.421 . S
C646 O633 1.381 . S
C646 O634 1.421 . S
C647 O639 1.381 . S
C647 O640 1.421 . S
C648 O649 1.381 . S
C648 O650 1.421 . S
O649 Fe627 2.077 . S
O649 C648 1.381 . S
O650 Fe631 1.935 . S
O650 C648 1.421 . S
C651 O635 1.381 . S
C651 O636 1.421 . S
O652 Fe626 2.077 . S
O652 C655 1.381 . S
O653 Fe624 1.935 . S
O653 C655 1.421 . S
C654 O642 1.381 . S
C654 O643 1.421 . S
C655 O652 1.381 . S
C655 O653 1.421 . S
Fe656 O657 1.886 . S
Fe656 O660 1.715 . S
Fe656 O665 2.077 . S
Fe656 O670 1.935 . S
Fe656 O676 2.077 . S
Fe656 O685 1.935 . S
O657 Fe656 1.886 . S
O657 Fe659 1.715 . S
Fe658 O660 1.886 . S
Fe658 O661 1.715 . S
Fe658 O668 1.935 . S
Fe658 O669 2.077 . S
Fe658 O675 1.935 . S
Fe658 O684 2.077 . S
Fe659 O657 1.715 . S
Fe659 O662 1.886 . S
Fe659 O666 1.935 . S
Fe659 O671 2.077 . S
Fe659 O677 1.935 . S
Fe659 O681 2.077 . S
O660 Fe656 1.715 . S
O660 Fe658 1.886 . S
O661 Fe658 1.715 . S
O661 Fe663 1.886 . S
O662 Fe659 1.886 . S
O662 Fe663 1.715 . S
Fe663 O661 1.886 . S
Fe663 O662 1.715 . S
Fe663 O667 2.077 . S
Fe663 O672 1.935 . S
Fe663 O674 2.077 . S
Fe663 O682 1.935 . S
C664 O676 1.381 . S
C664 O677 1.421 . S
O665 Fe656 2.077 . S
O665 C678 1.381 . S
O666 Fe659 1.935 . S
O666 C678 1.421 . S
O667 Fe663 2.077 . S
O667 C683 1.381 . S
O668 Fe658 1.935 . S
O668 C683 1.421 . S
O669 Fe658 2.077 . S
O669 C673 1.381 . S
O670 Fe656 1.935 . S
O670 C673 1.421 . S
O671 Fe659 2.077 . S
O671 C679 1.381 . S
O672 Fe663 1.935 . S
O672 C679 1.421 . S
C673 O669 1.381 . S
C673 O670 1.421 . S
O674 Fe663 2.077 . S
O674 C686 1.381 . S
O675 Fe658 1.935 . S
O675 C686 1.421 . S
O676 Fe656 2.077 . S
O676 C664 1.381 . S
O677 Fe659 1.935 . S
O677 C664 1.421 . S
C678 O665 1.381 . S
C678 O666 1.421 . S
C679 O671 1.381 . S
C679 O672 1.421 . S
C680 O681 1.381 . S
C680 O682 1.421 . S
O681 Fe659 2.077 . S
O681 C680 1.381 . S
O682 Fe663 1.935 . S
O682 C680 1.421 . S
C683 O667 1.381 . S
C683 O668 1.421 . S
O684 Fe658 2.077 . S
O684 C687 1.381 . S
O685 Fe656 1.935 . S
O685 C687 1.421 . S
C686 O674 1.381 . S
C686 O675 1.421 . S
C687 O684 1.381 . S
C687 O685 1.421 . S
Fe688 O689 1.886 . S
Fe688 O692 1.715 . S
Fe688 O697 2.077 1_455 S
Fe688 O702 1.935 1_455 S
Fe688 O708 2.077 . S
Fe688 O717 1.935 . S
O689 Fe688 1.886 . S
O689 Fe691 1.715 . S
Fe690 O692 1.886 . S
Fe690 O693 1.715 . S
Fe690 O700 1.935 1_455 S
Fe690 O701 2.077 1_455 S
Fe690 O707 1.935 . S
Fe690 O716 2.077 . S
Fe691 O689 1.715 . S
Fe691 O694 1.886 . S
Fe691 O698 1.935 1_455 S
Fe691 O703 2.077 1_455 S
Fe691 O709 1.935 . S
Fe691 O713 2.077 . S
O692 Fe688 1.715 . S
O692 Fe690 1.886 . S
O693 Fe690 1.715 . S
O693 Fe695 1.886 . S
O694 Fe691 1.886 . S
O694 Fe695 1.715 . S
Fe695 O693 1.886 . S
Fe695 O694 1.715 . S
Fe695 O699 2.077 1_455 S
Fe695 O704 1.935 1_455 S
Fe695 O706 2.077 . S
Fe695 O714 1.935 . S
C696 O708 1.381 . S
C696 O709 1.421 . S
O697 Fe688 2.077 1_655 S
O697 C710 1.381 . S
O698 Fe691 1.935 1_655 S
O698 C710 1.421 . S
O699 Fe695 2.077 1_655 S
O699 C715 1.381 . S
O700 Fe690 1.935 1_655 S
O700 C715 1.421 . S
O701 Fe690 2.077 1_655 S
O701 C705 1.381 . S
O702 Fe688 1.935 1_655 S
O702 C705 1.421 . S
O703 Fe691 2.077 1_655 S
O703 C711 1.381 . S
O704 Fe695 1.935 1_655 S
O704 C711 1.421 . S
C705 O701 1.381 . S
C705 O702 1.421 . S
O706 Fe695 2.077 . S
O706 C718 1.381 . S
O707 Fe690 1.935 . S
O707 C718 1.421 . S
O708 Fe688 2.077 . S
O708 C696 1.381 . S
O709 Fe691 1.935 . S
O709 C696 1.421 . S
C710 O697 1.381 . S
C710 O698 1.421 . S
C711 O703 1.381 . S
C711 O704 1.421 . S
C712 O713 1.381 . S
C712 O714 1.421 . S
O713 Fe691 2.077 . S
O713 C712 1.381 . S
O714 Fe695 1.935 . S
O714 C712 1.421 . S
C715 O699 1.381 . S
C715 O700 1.421 . S
O716 Fe690 2.077 . S
O716 C719 1.381 . S
O717 Fe688 1.935 . S
O717 C719 1.421 . S
C718 O706 1.381 . S
C718 O707 1.421 . S
C719 O716 1.381 . S
C719 O717 1.421 . S
H720 C732 0.930 . S
H721 C734 0.930 . S
H722 C735 0.930 . S
H723 C739 0.959 . S
H724 C739 0.959 . S
H725 C739 0.961 . S
H726 C740 0.960 . S
H727 C740 0.961 . S
H728 C740 0.959 . S
H729 C743 0.929 . S
H730 C744 0.931 . S
H731 C746 0.930 . S
C732 H720 0.930 . S
C732 C733 1.399 . S
C732 C737 1.399 . S
C733 C732 1.399 . S
C733 C734 1.376 . S
C734 H721 0.930 . S
C734 C733 1.376 . S
C734 C735 1.388 . S
C735 H722 0.930 . S
C735 C734 1.388 . S
C735 C736 1.390 . S
C736 C735 1.390 . S
C736 C737 1.394 . S
C736 C742 1.465 . S
C737 C732 1.399 . S
C737 C736 1.394 . S
C737 C738 1.516 . S
C738 C737 1.516 . S
C738 C739 1.502 . S
C738 C740 1.561 . S
C738 C741 1.526 . S
C739 H723 0.959 . S
C739 H724 0.959 . S
C739 H725 0.961 . S
C739 C738 1.502 . S
C740 H726 0.960 . S
C740 H727 0.961 . S
C740 H728 0.959 . S
C740 C738 1.561 . S
C741 C738 1.526 . S
C741 C742 1.396 . S
C741 C746 1.390 . S
C742 C736 1.465 . S
C742 C741 1.396 . S
C742 C743 1.399 . S
C743 H729 0.929 . S
C743 C742 1.399 . S
C743 C744 1.385 . S
C744 H730 0.931 . S
C744 C743 1.385 . S
C744 C745 1.389 . S
C745 C744 1.389 . S
C745 C746 1.387 . S
C746 H731 0.930 . S
C746 C741 1.390 . S
C746 C745 1.387 . S
H747 C759 0.930 . S
H748 C761 0.930 . S
H749 C762 0.930 . S
H750 C766 0.959 . S
H751 C766 0.959 . S
H752 C766 0.961 . S
H753 C767 0.960 . S
H754 C767 0.961 . S
H755 C767 0.959 . S
H756 C770 0.929 . S
H757 C771 0.931 . S
H758 C773 0.930 . S
C759 H747 0.930 . S
C759 C760 1.399 1_545 S
C759 C764 1.399 . S
C760 C759 1.399 1_565 S
C760 C761 1.376 . S
C761 H748 0.930 . S
C761 C760 1.376 . S
C761 C762 1.388 . S
C762 H749 0.930 . S
C762 C761 1.388 . S
C762 C763 1.390 1_565 S
C763 C762 1.390 1_545 S
C763 C764 1.394 . S
C763 C769 1.465 . S
C764 C759 1.399 . S
C764 C763 1.394 . S
C764 C765 1.516 . S
C765 C764 1.516 . S
C765 C766 1.502 . S
C765 C767 1.561 . S
C765 C768 1.526 . S
C766 H750 0.959 . S
C766 H751 0.959 . S
C766 H752 0.961 . S
C766 C765 1.502 . S
C767 H753 0.960 . S
C767 H754 0.961 . S
C767 H755 0.959 . S
C767 C765 1.561 . S
C768 C765 1.526 . S
C768 C769 1.396 . S
C768 C773 1.390 . S
C769 C763 1.465 . S
C769 C768 1.396 . S
C769 C770 1.399 . S
C770 H756 0.929 . S
C770 C769 1.399 . S
C770 C771 1.385 . S
C771 H757 0.931 . S
C771 C770 1.385 . S
C771 C772 1.389 . S
C772 C771 1.389 . S
C772 C773 1.387 . S
C773 H758 0.930 . S
C773 C768 1.390 . S
C773 C772 1.387 . S
H774 C786 0.935 . S
H775 C788 0.956 . S
H776 C789 0.930 . S
H777 C793 0.959 . S
H778 C793 0.959 . S
H779 C793 0.961 . S
H780 C794 0.960 . S
H781 C794 0.961 . S
H782 C794 0.959 . S
H783 C797 0.929 . S
H784 C798 0.931 . S
H785 C800 0.930 . S
C786 H774 0.935 . S
C786 C787 1.399 1_556 S
C786 C791 1.399 . S
C787 C786 1.399 1_554 S
C787 C788 1.376 1_554 S
C788 H775 0.956 . S
C788 C787 1.376 1_556 S
C788 C789 1.388 . S
C789 H776 0.930 . S
C789 C788 1.388 . S
C789 C790 1.390 . S
C790 C789 1.390 . S
C790 C791 1.394 . S
C790 C796 1.465 . S
C791 C786 1.399 . S
C791 C790 1.394 . S
C791 C792 1.516 . S
C792 C791 1.516 . S
C792 C793 1.502 . S
C792 C794 1.561 . S
C792 C795 1.526 . S
C793 H777 0.959 . S
C793 H778 0.959 . S
C793 H779 0.961 . S
C793 C792 1.502 . S
C794 H780 0.960 . S
C794 H781 0.961 . S
C794 H782 0.959 . S
C794 C792 1.561 . S
C795 C792 1.526 . S
C795 C796 1.396 . S
C795 C800 1.390 . S
C796 C790 1.465 . S
C796 C795 1.396 . S
C796 C797 1.399 . S
C797 H783 0.929 . S
C797 C796 1.399 . S
C797 C798 1.385 . S
C798 H784 0.931 . S
C798 C797 1.385 . S
C798 C799 1.389 . S
C799 C798 1.389 . S
C799 C800 1.387 . S
C800 H785 0.930 . S
C800 C795 1.390 . S
C800 C799 1.387 . S
H801 C813 0.930 . S
H802 C815 0.929 1_565 S
H803 C816 0.930 . S
H804 C820 0.959 . S
H805 C820 0.959 . S
H806 C820 0.961 . S
H807 C821 0.960 . S
H808 C821 0.961 . S
H809 C821 0.959 . S
H810 C824 0.929 . S
H811 C825 0.931 . S
H812 C827 0.930 . S
C813 H801 0.930 . S
C813 C814 1.399 . S
C813 C818 1.399 . S
C814 C813 1.399 . S
C814 C815 1.382 . S
C815 H802 0.929 1_545 S
C815 C814 1.382 . S
C815 C816 1.384 1_545 S
C816 H803 0.930 . S
C816 C815 1.384 1_565 S
C816 C817 1.390 . S
C817 C816 1.390 . S
C817 C818 1.394 1_565 S
C817 C823 1.465 . S
C818 C813 1.399 . S
C818 C817 1.394 1_545 S
C818 C819 1.516 . S
C819 C818 1.516 . S
C819 C820 1.502 . S
C819 C821 1.561 . S
C819 C822 1.526 1_545 S
C820 H804 0.959 . S
C820 H805 0.959 . S
C820 H806 0.961 . S
C820 C819 1.502 . S
C821 H807 0.960 . S
C821 H808 0.961 . S
C821 H809 0.959 . S
C821 C819 1.561 . S
C822 C819 1.526 1_565 S
C822 C823 1.396 . S
C822 C827 1.390 . S
C823 C817 1.465 . S
C823 C822 1.396 . S
C823 C824 1.399 . S
C824 H810 0.929 . S
C824 C823 1.399 . S
C824 C825 1.385 . S
C825 H811 0.931 . S
C825 C824 1.385 . S
C825 C826 1.389 . S
C826 C825 1.389 . S
C826 C827 1.387 . S
C827 H812 0.930 . S
C827 C822 1.390 . S
C827 C826 1.387 . S
H828 C840 0.930 . S
H829 C842 0.930 . S
H830 C843 0.930 . S
H831 C847 0.959 . S
H832 C847 0.959 . S
H833 C847 0.961 . S
H834 C848 0.960 . S
H835 C848 0.961 . S
H836 C848 0.959 . S
H837 C851 0.929 . S
H838 C852 0.931 . S
H839 C854 0.930 . S
C840 H828 0.930 . S
C840 C841 1.399 . S
C840 C845 1.399 . S
C841 C840 1.399 . S
C841 C842 1.376 . S
C842 H829 0.930 . S
C842 C841 1.376 . S
C842 C843 1.388 . S
C843 H830 0.930 . S
C843 C842 1.388 . S
C843 C844 1.390 . S
C844 C843 1.390 . S
C844 C845 1.394 . S
C844 C850 1.465 . S
C845 C840 1.399 . S
C845 C844 1.394 . S
C845 C846 1.516 . S
C846 C845 1.516 . S
C846 C847 1.502 . S
C846 C848 1.561 . S
C846 C849 1.526 . S
C847 H831 0.959 . S
C847 H832 0.959 . S
C847 H833 0.961 . S
C847 C846 1.502 . S
C848 H834 0.960 . S
C848 H835 0.961 . S
C848 H836 0.959 . S
C848 C846 1.561 . S
C849 C846 1.526 . S
C849 C850 1.396 . S
C849 C854 1.390 . S
C850 C844 1.465 . S
C850 C849 1.396 . S
C850 C851 1.399 . S
C851 H837 0.929 . S
C851 C850 1.399 . S
C851 C852 1.385 . S
C852 H838 0.931 . S
C852 C851 1.385 . S
C852 C853 1.389 . S
C853 C852 1.389 . S
C853 C854 1.387 . S
C854 H839 0.930 . S
C854 C849 1.390 . S
C854 C853 1.387 . S
H855 C867 0.930 . S
H856 C869 0.930 . S
H857 C870 0.930 . S
H858 C874 0.959 . S
H859 C874 0.959 . S
H860 C874 0.961 . S
H861 C875 0.960 . S
H862 C875 0.961 . S
H863 C875 0.959 . S
H864 C878 0.929 . S
H865 C879 0.931 . S
H866 C881 0.930 . S
C867 H855 0.930 . S
C867 C868 1.399 . S
C867 C872 1.399 1_565 S
C868 C867 1.399 . S
C868 C869 1.376 . S
C869 H856 0.930 . S
C869 C868 1.376 . S
C869 C870 1.388 . S
C870 H857 0.930 . S
C870 C869 1.388 . S
C870 C871 1.390 . S
C871 C870 1.390 . S
C871 C872 1.394 1_565 S
C871 C877 1.465 1_565 S
C872 C867 1.399 1_545 S
C872 C871 1.394 1_545 S
C872 C873 1.516 . S
C873 C872 1.516 . S
C873 C874 1.502 . S
C873 C875 1.561 . S
C873 C876 1.526 . S
C874 H858 0.959 . S
C874 H859 0.959 . S
C874 H860 0.961 . S
C874 C873 1.502 . S
C875 H861 0.960 . S
C875 H862 0.961 . S
C875 H863 0.959 . S
C875 C873 1.561 . S
C876 C873 1.526 . S
C876 C877 1.396 . S
C876 C881 1.390 . S
C877 C871 1.465 1_545 S
C877 C876 1.396 . S
C877 C878 1.399 . S
C878 H864 0.929 . S
C878 C877 1.399 . S
C878 C879 1.385 . S
C879 H865 0.931 . S
C879 C878 1.385 . S
C879 C880 1.389 . S
C880 C879 1.389 . S
C880 C881 1.387 . S
C881 H866 0.930 . S
C881 C876 1.390 . S
C881 C880 1.387 . S
H882 C894 0.930 . S
H883 C896 0.930 . S
H884 C897 0.930 . S
H885 C901 0.959 . S
H886 C901 0.959 . S
H887 C901 0.961 . S
H888 C902 0.960 . S
H889 C902 0.961 . S
H890 C902 0.959 . S
H891 C905 0.929 1_545 S
H892 C906 0.931 . S
H893 C908 0.930 . S
C894 H882 0.930 . S
C894 C895 1.399 . S
C894 C899 1.399 . S
C895 C894 1.399 . S
C895 C896 1.376 1_565 S
C896 H883 0.930 . S
C896 C895 1.376 1_545 S
C896 C897 1.388 . S
C897 H884 0.930 . S
C897 C896 1.388 . S
C897 C898 1.390 1_545 S
C898 C897 1.390 1_565 S
C898 C899 1.394 . S
C898 C904 1.465 . S
C899 C894 1.399 . S
C899 C898 1.394 . S
C899 C900 1.516 . S
C900 C899 1.516 . S
C900 C901 1.502 . S
C900 C902 1.561 . S
C900 C903 1.526 . S
C901 H885 0.959 . S
C901 H886 0.959 . S
C901 H887 0.961 . S
C901 C900 1.502 . S
C902 H888 0.960 . S
C902 H889 0.961 . S
C902 H890 0.959 . S
C902 C900 1.561 . S
C903 C900 1.526 . S
C903 C904 1.396 . S
C903 C908 1.390 . S
C904 C898 1.465 . S
C904 C903 1.396 . S
C904 C905 1.399 . S
C905 H891 0.929 1_565 S
C905 C904 1.399 . S
C905 C906 1.385 . S
C906 H892 0.931 . S
C906 C905 1.385 . S
C906 C907 1.389 . S
C907 C906 1.389 . S
C907 C908 1.387 . S
C908 H893 0.930 . S
C908 C903 1.390 . S
C908 C907 1.387 . S
H909 C921 0.930 . S
H910 C923 0.930 . S
H911 C924 0.930 . S
H912 C928 0.959 . S
H913 C928 0.959 . S
H914 C928 0.961 1_545 S
H915 C929 0.960 . S
H916 C929 0.961 . S
H917 C929 0.959 . S
H918 C932 0.929 . S
H919 C933 0.931 . S
H920 C935 0.930 . S
C921 H909 0.930 . S
C921 C922 1.399 . S
C921 C926 1.399 . S
C922 C921 1.399 . S
C922 C923 1.376 . S
C923 H910 0.930 . S
C923 C922 1.376 . S
C923 C924 1.388 . S
C924 H911 0.930 . S
C924 C923 1.388 . S
C924 C925 1.390 . S
C925 C924 1.390 . S
C925 C926 1.394 . S
C925 C931 1.465 1_545 S
C926 C921 1.399 . S
C926 C925 1.394 . S
C926 C927 1.516 . S
C927 C926 1.516 . S
C927 C928 1.502 1_545 S
C927 C929 1.561 . S
C927 C930 1.526 1_545 S
C928 H912 0.959 . S
C928 H913 0.959 . S
C928 H914 0.961 1_565 S
C928 C927 1.502 1_565 S
C929 H915 0.960 . S
C929 H916 0.961 . S
C929 H917 0.959 . S
C929 C927 1.561 . S
C930 C927 1.526 1_565 S
C930 C931 1.396 . S
C930 C935 1.390 . S
C931 C925 1.465 1_565 S
C931 C930 1.396 . S
C931 C932 1.399 . S
C932 H918 0.929 . S
C932 C931 1.399 . S
C932 C933 1.385 . S
C933 H919 0.931 . S
C933 C932 1.385 . S
C933 C934 1.389 . S
C934 C933 1.389 . S
C934 C935 1.387 . S
C935 H920 0.930 . S
C935 C930 1.390 . S
C935 C934 1.387 . S
H936 C948 0.930 . S
H937 C950 0.930 . S
H938 C951 0.930 . S
H939 C955 0.959 . S
H940 C955 0.959 . S
H941 C955 0.961 . S
H942 C956 0.960 . S
H943 C956 0.961 . S
H944 C956 0.959 . S
H945 C959 0.929 . S
H946 C960 0.931 . S
H947 C962 0.930 . S
C948 H936 0.930 . S
C948 C949 1.399 . S
C948 C953 1.399 . S
C949 C948 1.399 . S
C949 C950 1.376 . S
C950 H937 0.930 . S
C950 C949 1.376 . S
C950 C951 1.388 . S
C951 H938 0.930 . S
C951 C950 1.388 . S
C951 C952 1.390 . S
C952 C951 1.390 . S
C952 C953 1.394 . S
C952 C958 1.465 . S
C953 C948 1.399 . S
C953 C952 1.394 . S
C953 C954 1.516 . S
C954 C953 1.516 . S
C954 C955 1.502 . S
C954 C956 1.561 . S
C954 C957 1.526 . S
C955 H939 0.959 . S
C955 H940 0.959 . S
C955 H941 0.961 . S
C955 C954 1.502 . S
C956 H942 0.960 . S
C956 H943 0.961 . S
C956 H944 0.959 . S
C956 C954 1.561 . S
C957 C954 1.526 . S
C957 C958 1.396 . S
C957 C962 1.390 . S
C958 C952 1.465 . S
C958 C957 1.396 . S
C958 C959 1.399 . S
C959 H945 0.929 . S
C959 C958 1.399 . S
C959 C960 1.385 . S
C960 H946 0.931 . S
C960 C959 1.385 . S
C960 C961 1.389 . S
C961 C960 1.389 . S
C961 C962 1.387 . S
C962 H947 0.930 . S
C962 C957 1.390 . S
C962 C961 1.387 . S
H963 C975 0.930 . S
H964 C977 0.930 . S
H965 C978 0.930 . S
H966 C982 0.959 . S
H967 C982 0.959 . S
H968 C982 0.961 . S
H969 C983 0.960 . S
H970 C983 0.961 . S
H971 C983 0.959 . S
H972 C986 0.929 1_545 S
H973 C987 0.931 . S
H974 C989 0.930 . S
C975 H963 0.930 . S
C975 C976 1.399 . S
C975 C980 1.399 . S
C976 C975 1.399 . S
C976 C977 1.376 . S
C977 H964 0.930 . S
C977 C976 1.376 . S
C977 C978 1.388 . S
C978 H965 0.930 . S
C978 C977 1.388 . S
C978 C979 1.390 . S
C979 C978 1.390 . S
C979 C980 1.394 . S
C979 C985 1.465 1_545 S
C980 C975 1.399 . S
C980 C979 1.394 . S
C980 C981 1.516 1_545 S
C981 C980 1.516 1_565 S
C981 C982 1.502 . S
C981 C983 1.561 . S
C981 C984 1.526 . S
C982 H966 0.959 . S
C982 H967 0.959 . S
C982 H968 0.961 . S
C982 C981 1.502 . S
C983 H969 0.960 . S
C983 H970 0.961 . S
C983 H971 0.959 . S
C983 C981 1.561 . S
C984 C981 1.526 . S
C984 C985 1.396 . S
C984 C989 1.390 . S
C985 C979 1.465 1_565 S
C985 C984 1.396 . S
C985 C986 1.399 . S
C986 H972 0.929 1_565 S
C986 C985 1.399 . S
C986 C987 1.385 . S
C987 H973 0.931 . S
C987 C986 1.385 . S
C987 C988 1.389 . S
C988 C987 1.389 . S
C988 C989 1.387 . S
C989 H974 0.930 . S
C989 C984 1.390 . S
C989 C988 1.387 . S
H990 C1002 0.930 . S
H991 C1004 0.930 1_545 S
H992 C1005 0.930 1_545 S
H993 C1009 0.959 . S
H994 C1009 0.959 . S
H995 C1009 0.961 . S
H996 C1010 0.960 . S
H997 C1010 0.961 . S
H998 C1010 0.959 . S
H999 C1013 0.929 . S
H1000 C1014 0.931 . S
H1001 C1016 0.930 . S
C1002 H990 0.930 . S
C1002 C1003 1.399 . S
C1002 C1007 1.399 . S
C1003 C1002 1.399 . S
C1003 C1004 1.376 . S
C1004 H991 0.930 1_565 S
C1004 C1003 1.376 . S
C1004 C1005 1.388 . S
C1005 H992 0.930 1_565 S
C1005 C1004 1.388 . S
C1005 C1006 1.390 . S
C1006 C1005 1.390 . S
C1006 C1007 1.394 . S
C1006 C1012 1.465 . S
C1007 C1002 1.399 . S
C1007 C1006 1.394 . S
C1007 C1008 1.516 . S
C1008 C1007 1.516 . S
C1008 C1009 1.502 . S
C1008 C1010 1.561 . S
C1008 C1011 1.526 . S
C1009 H993 0.959 . S
C1009 H994 0.959 . S
C1009 H995 0.961 . S
C1009 C1008 1.502 . S
C1010 H996 0.960 . S
C1010 H997 0.961 . S
C1010 H998 0.959 . S
C1010 C1008 1.561 . S
C1011 C1008 1.526 . S
C1011 C1012 1.396 . S
C1011 C1016 1.390 . S
C1012 C1006 1.465 . S
C1012 C1011 1.396 . S
C1012 C1013 1.399 . S
C1013 H999 0.929 . S
C1013 C1012 1.399 . S
C1013 C1014 1.385 . S
C1014 H1000 0.931 . S
C1014 C1013 1.385 . S
C1014 C1015 1.389 . S
C1015 C1014 1.389 . S
C1015 C1016 1.387 . S
C1016 H1001 0.930 . S
C1016 C1011 1.390 . S
C1016 C1015 1.387 . S
H1017 C1029 0.930 . S
H1018 C1031 0.930 . S
H1019 C1032 0.930 . S
H1020 C1036 0.959 . S
H1021 C1036 0.959 . S
H1022 C1036 0.961 . S
H1023 C1037 0.960 1_565 S
H1024 C1037 0.961 . S
H1025 C1037 0.959 1_565 S
H1026 C1040 0.929 . S
H1027 C1041 0.931 . S
H1028 C1043 0.930 . S
C1029 H1017 0.930 . S
C1029 C1030 1.399 . S
C1029 C1034 1.399 1_565 S
C1030 C1029 1.399 . S
C1030 C1031 1.376 . S
C1031 H1018 0.930 . S
C1031 C1030 1.376 . S
C1031 C1032 1.388 1_565 S
C1032 H1019 0.930 . S
C1032 C1031 1.388 1_545 S
C1032 C1033 1.390 . S
C1033 C1032 1.390 . S
C1033 C1034 1.394 . S
C1033 C1039 1.465 . S
C1034 C1029 1.399 1_545 S
C1034 C1033 1.394 . S
C1034 C1035 1.516 . S
C1035 C1034 1.516 . S
C1035 C1036 1.502 . S
C1035 C1037 1.561 . S
C1035 C1038 1.526 . S
C1036 H1020 0.959 . S
C1036 H1021 0.959 . S
C1036 H1022 0.961 . S
C1036 C1035 1.502 . S
C1037 H1023 0.960 1_545 S
C1037 H1024 0.961 . S
C1037 H1025 0.959 1_545 S
C1037 C1035 1.561 . S
C1038 C1035 1.526 . S
C1038 C1039 1.396 . S
C1038 C1043 1.390 . S
C1039 C1033 1.465 . S
C1039 C1038 1.396 . S
C1039 C1040 1.399 . S
C1040 H1026 0.929 . S
C1040 C1039 1.399 . S
C1040 C1041 1.385 . S
C1041 H1027 0.931 . S
C1041 C1040 1.385 . S
C1041 C1042 1.389 . S
C1042 C1041 1.389 . S
C1042 C1043 1.387 . S
C1043 H1028 0.930 . S
C1043 C1038 1.390 . S
C1043 C1042 1.387 . S
H1044 C1056 0.930 . S
H1045 C1058 0.930 . S
H1046 C1059 0.930 . S
H1047 C1063 0.959 . S
H1048 C1063 0.959 . S
H1049 C1063 0.961 1_545 S
H1050 C1064 0.960 . S
H1051 C1064 0.961 . S
H1052 C1064 0.959 . S
H1053 C1067 0.929 . S
H1054 C1068 0.931 . S
H1055 C1070 0.930 . S
C1056 H1044 0.930 . S
C1056 C1057 1.399 . S
C1056 C1061 1.399 . S
C1057 C1056 1.399 . S
C1057 C1058 1.376 . S
C1058 H1045 0.930 . S
C1058 C1057 1.376 . S
C1058 C1059 1.388 . S
C1059 H1046 0.930 . S
C1059 C1058 1.388 . S
C1059 C1060 1.390 . S
C1060 C1059 1.390 . S
C1060 C1061 1.394 . S
C1060 C1066 1.465 . S
C1061 C1056 1.399 . S
C1061 C1060 1.394 . S
C1061 C1062 1.516 . S
C1062 C1061 1.516 . S
C1062 C1063 1.502 . S
C1062 C1064 1.561 . S
C1062 C1065 1.526 . S
C1063 H1047 0.959 . S
C1063 H1048 0.959 . S
C1063 H1049 0.961 1_565 S
C1063 C1062 1.502 . S
C1064 H1050 0.960 . S
C1064 H1051 0.961 . S
C1064 H1052 0.959 . S
C1064 C1062 1.561 . S
C1065 C1062 1.526 . S
C1065 C1066 1.396 . S
C1065 C1070 1.390 . S
C1066 C1060 1.465 . S
C1066 C1065 1.396 . S
C1066 C1067 1.399 . S
C1067 H1053 0.929 . S
C1067 C1066 1.399 . S
C1067 C1068 1.385 . S
C1068 H1054 0.931 . S
C1068 C1067 1.385 . S
C1068 C1069 1.389 . S
C1069 C1068 1.389 . S
C1069 C1070 1.387 . S
C1070 H1055 0.930 . S
C1070 C1065 1.390 . S
C1070 C1069 1.387 . S
H1071 C1083 0.930 1_565 S
H1072 C1085 0.930 . S
H1073 C1086 0.930 . S
H1074 C1090 0.959 . S
H1075 C1090 0.959 . S
H1076 C1090 0.961 . S
H1077 C1091 0.960 . S
H1078 C1091 0.961 . S
H1079 C1091 0.959 . S
H1080 C1094 0.929 1_545 S
H1081 C1095 0.931 . S
H1082 C1097 0.930 . S
C1083 H1071 0.930 1_545 S
C1083 C1084 1.399 . S
C1083 C1088 1.399 1_545 S
C1084 C1083 1.399 . S
C1084 C1085 1.376 . S
C1085 H1072 0.930 . S
C1085 C1084 1.376 . S
C1085 C1086 1.388 . S
C1086 H1073 0.930 . S
C1086 C1085 1.388 . S
C1086 C1087 1.390 . S
C1087 C1086 1.390 . S
C1087 C1088 1.394 1_545 S
C1087 C1093 1.465 1_545 S
C1088 C1083 1.399 1_565 S
C1088 C1087 1.394 1_565 S
C1088 C1089 1.516 . S
C1089 C1088 1.516 . S
C1089 C1090 1.502 . S
C1089 C1091 1.561 . S
C1089 C1092 1.526 . S
C1090 H1074 0.959 . S
C1090 H1075 0.959 . S
C1090 H1076 0.961 . S
C1090 C1089 1.502 . S
C1091 H1077 0.960 . S
C1091 H1078 0.961 . S
C1091 H1079 0.959 . S
C1091 C1089 1.561 . S
C1092 C1089 1.526 . S
C1092 C1093 1.396 . S
C1092 C1097 1.390 . S
C1093 C1087 1.465 1_565 S
C1093 C1092 1.396 . S
C1093 C1094 1.399 . S
C1094 H1080 0.929 1_565 S
C1094 C1093 1.399 . S
C1094 C1095 1.385 . S
C1095 H1081 0.931 . S
C1095 C1094 1.385 . S
C1095 C1096 1.389 . S
C1096 C1095 1.389 . S
C1096 C1097 1.387 . S
C1097 H1082 0.930 . S
C1097 C1092 1.390 . S
C1097 C1096 1.387 . S
H1098 C1110 0.930 . S
H1099 C1112 0.930 . S
H1100 C1113 0.930 . S
H1101 C1117 0.959 . S
H1102 C1117 0.959 . S
H1103 C1117 0.928 1_554 S
H1104 C1118 0.928 1_554 S
H1105 C1118 0.961 . S
H1106 C1118 0.959 . S
H1107 C1121 0.929 . S
H1108 C1122 0.931 . S
H1109 C1124 0.930 . S
C1110 H1098 0.930 . S
C1110 C1111 1.399 . S
C1110 C1115 1.399 . S
C1111 C1110 1.399 . S
C1111 C1112 1.376 . S
C1112 H1099 0.930 . S
C1112 C1111 1.376 . S
C1112 C1113 1.388 . S
C1113 H1100 0.930 . S
C1113 C1112 1.388 . S
C1113 C1114 1.390 . S
C1114 C1113 1.390 . S
C1114 C1115 1.394 . S
C1114 C1120 1.465 . S
C1115 C1110 1.399 . S
C1115 C1114 1.394 . S
C1115 C1116 1.516 . S
C1116 C1115 1.516 . S
C1116 C1117 1.502 . S
C1116 C1118 1.561 . S
C1116 C1119 1.526 . S
C1117 H1101 0.959 . S
C1117 H1102 0.959 . S
C1117 H1103 0.928 1_556 S
C1117 C1116 1.502 . S
C1118 H1104 0.928 1_556 S
C1118 H1105 0.961 . S
C1118 H1106 0.959 . S
C1118 C1116 1.561 . S
C1119 C1116 1.526 . S
C1119 C1120 1.396 . S
C1119 C1124 1.390 . S
C1120 C1114 1.465 . S
C1120 C1119 1.396 . S
C1120 C1121 1.399 . S
C1121 H1107 0.929 . S
C1121 C1120 1.399 . S
C1121 C1122 1.385 . S
C1122 H1108 0.931 . S
C1122 C1121 1.385 . S
C1122 C1123 1.389 . S
C1123 C1122 1.389 . S
C1123 C1124 1.387 . S
C1124 H1109 0.930 . S
C1124 C1119 1.390 . S
C1124 C1123 1.387 . S
H1125 C1137 0.930 . S
H1126 C1139 0.930 . S
H1127 C1140 0.930 . S
H1128 C1144 0.959 . S
H1129 C1144 0.959 . S
H1130 C1144 0.961 . S
H1131 C1145 0.960 . S
H1132 C1145 0.961 . S
H1133 C1145 0.959 . S
H1134 C1148 0.929 . S
H1135 C1149 0.931 . S
H1136 C1151 0.930 . S
C1137 H1125 0.930 . S
C1137 C1138 1.398 . S
C1137 C1142 1.399 . S
C1138 C1137 1.398 . S
C1138 C1139 1.377 1_545 S
C1139 H1126 0.930 . S
C1139 C1138 1.377 1_565 S
C1139 C1140 1.388 1_565 S
C1140 H1127 0.930 . S
C1140 C1139 1.388 1_545 S
C1140 C1141 1.390 . S
C1141 C1140 1.390 . S
C1141 C1142 1.394 . S
C1141 C1147 1.465 . S
C1142 C1137 1.399 . S
C1142 C1141 1.394 . S
C1142 C1143 1.516 . S
C1143 C1142 1.516 . S
C1143 C1144 1.502 . S
C1143 C1145 1.561 . S
C1143 C1146 1.526 . S
C1144 H1128 0.959 . S
C1144 H1129 0.959 . S
C1144 H1130 0.961 . S
C1144 C1143 1.502 . S
C1145 H1131 0.960 . S
C1145 H1132 0.961 . S
C1145 H1133 0.959 . S
C1145 C1143 1.561 . S
C1146 C1143 1.526 . S
C1146 C1147 1.396 . S
C1146 C1151 1.390 . S
C1147 C1141 1.465 . S
C1147 C1146 1.396 . S
C1147 C1148 1.399 . S
C1148 H1134 0.929 . S
C1148 C1147 1.399 . S
C1148 C1149 1.385 . S
C1149 H1135 0.931 . S
C1149 C1148 1.385 . S
C1149 C1150 1.389 . S
C1150 C1149 1.389 . S
C1150 C1151 1.387 . S
C1151 H1136 0.930 . S
C1151 C1146 1.390 . S
C1151 C1150 1.387 . S
H1152 C1164 0.930 . S
H1153 C1166 0.930 . S
H1154 C1167 0.930 . S
H1155 C1171 0.959 . S
H1156 C1171 0.959 . S
H1157 C1171 0.961 . S
H1158 C1172 0.960 . S
H1159 C1172 0.961 . S
H1160 C1172 0.959 . S
H1161 C1175 0.929 . S
H1162 C1176 0.931 . S
H1163 C1178 0.930 . S
C1164 H1152 0.930 . S
C1164 C1165 1.399 . S
C1164 C1169 1.399 . S
C1165 C1164 1.399 . S
C1165 C1166 1.376 . S
C1166 H1153 0.930 . S
C1166 C1165 1.376 . S
C1166 C1167 1.388 . S
C1167 H1154 0.930 . S
C1167 C1166 1.388 . S
C1167 C1168 1.390 . S
C1168 C1167 1.390 . S
C1168 C1169 1.394 . S
C1168 C1174 1.465 . S
C1169 C1164 1.399 . S
C1169 C1168 1.394 . S
C1169 C1170 1.516 . S
C1170 C1169 1.516 . S
C1170 C1171 1.502 . S
C1170 C1172 1.561 . S
C1170 C1173 1.526 . S
C1171 H1155 0.959 . S
C1171 H1156 0.959 . S
C1171 H1157 0.961 . S
C1171 C1170 1.502 . S
C1172 H1158 0.960 . S
C1172 H1159 0.961 . S
C1172 H1160 0.959 . S
C1172 C1170 1.561 . S
C1173 C1170 1.526 . S
C1173 C1174 1.396 . S
C1173 C1178 1.390 . S
C1174 C1168 1.465 . S
C1174 C1173 1.396 . S
C1174 C1175 1.399 . S
C1175 H1161 0.929 . S
C1175 C1174 1.399 . S
C1175 C1176 1.385 . S
C1176 H1162 0.931 . S
C1176 C1175 1.385 . S
C1176 C1177 1.389 . S
C1177 C1176 1.389 . S
C1177 C1178 1.387 . S
C1178 H1163 0.930 . S
C1178 C1173 1.390 . S
C1178 C1177 1.387 . S
H1179 C1191 0.930 . S
H1180 C1193 0.930 . S
H1181 C1194 0.930 . S
H1182 C1198 0.959 . S
H1183 C1198 0.959 . S
H1184 C1198 0.961 . S
H1185 C1199 0.960 . S
H1186 C1199 0.961 . S
H1187 C1199 0.959 . S
H1188 C1202 0.929 . S
H1189 C1203 0.931 . S
H1190 C1205 0.930 . S
C1191 H1179 0.930 . S
C1191 C1192 1.399 . S
C1191 C1196 1.399 . S
C1192 C1191 1.399 . S
C1192 C1193 1.376 . S
C1193 H1180 0.930 . S
C1193 C1192 1.376 . S
C1193 C1194 1.388 . S
C1194 H1181 0.930 . S
C1194 C1193 1.388 . S
C1194 C1195 1.390 . S
C1195 C1194 1.390 . S
C1195 C1196 1.394 . S
C1195 C1201 1.465 . S
C1196 C1191 1.399 . S
C1196 C1195 1.394 . S
C1196 C1197 1.516 . S
C1197 C1196 1.516 . S
C1197 C1198 1.502 . S
C1197 C1199 1.561 . S
C1197 C1200 1.526 . S
C1198 H1182 0.959 . S
C1198 H1183 0.959 . S
C1198 H1184 0.961 . S
C1198 C1197 1.502 . S
C1199 H1185 0.960 . S
C1199 H1186 0.961 . S
C1199 H1187 0.959 . S
C1199 C1197 1.561 . S
C1200 C1197 1.526 . S
C1200 C1201 1.396 . S
C1200 C1205 1.390 . S
C1201 C1195 1.465 . S
C1201 C1200 1.396 . S
C1201 C1202 1.399 . S
C1202 H1188 0.929 . S
C1202 C1201 1.399 . S
C1202 C1203 1.385 . S
C1203 H1189 0.931 . S
C1203 C1202 1.385 . S
C1203 C1204 1.389 . S
C1204 C1203 1.389 . S
C1204 C1205 1.387 . S
C1205 H1190 0.930 . S
C1205 C1200 1.390 . S
C1205 C1204 1.387 . S
H1206 C1218 0.930 . S
H1207 C1220 0.930 . S
H1208 C1221 0.930 . S
H1209 C1225 0.959 . S
H1210 C1225 0.959 . S
H1211 C1225 0.961 . S
H1212 C1226 0.960 . S
H1213 C1226 0.961 . S
H1214 C1226 0.959 . S
H1215 C1229 0.929 . S
H1216 C1230 0.931 . S
H1217 C1232 0.930 . S
C1218 H1206 0.930 . S
C1218 C1219 1.399 . S
C1218 C1223 1.399 . S
C1219 C1218 1.399 . S
C1219 C1220 1.376 . S
C1220 H1207 0.930 . S
C1220 C1219 1.376 . S
C1220 C1221 1.388 . S
C1221 H1208 0.930 . S
C1221 C1220 1.388 . S
C1221 C1222 1.390 . S
C1222 C1221 1.390 . S
C1222 C1223 1.394 . S
C1222 C1228 1.465 . S
C1223 C1218 1.399 . S
C1223 C1222 1.394 . S
C1223 C1224 1.516 . S
C1224 C1223 1.516 . S
C1224 C1225 1.502 . S
C1224 C1226 1.561 . S
C1224 C1227 1.526 . S
C1225 H1209 0.959 . S
C1225 H1210 0.959 . S
C1225 H1211 0.961 . S
C1225 C1224 1.502 . S
C1226 H1212 0.960 . S
C1226 H1213 0.961 . S
C1226 H1214 0.959 . S
C1226 C1224 1.561 . S
C1227 C1224 1.526 . S
C1227 C1228 1.396 . S
C1227 C1232 1.390 . S
C1228 C1222 1.465 . S
C1228 C1227 1.396 . S
C1228 C1229 1.399 . S
C1229 H1215 0.929 . S
C1229 C1228 1.399 . S
C1229 C1230 1.385 . S
C1230 H1216 0.931 . S
C1230 C1229 1.385 . S
C1230 C1231 1.389 . S
C1231 C1230 1.389 . S
C1231 C1232 1.387 . S
C1232 H1217 0.930 . S
C1232 C1227 1.390 . S
C1232 C1231 1.387 . S
H1233 C1245 0.930 . S
H1234 C1247 0.930 . S
H1235 C1248 0.930 . S
H1236 C1252 0.959 . S
H1237 C1252 0.959 . S
H1238 C1252 0.961 . S
H1239 C1253 0.960 . S
H1240 C1253 0.961 . S
H1241 C1253 0.959 . S
H1242 C1256 0.929 . S
H1243 C1257 0.931 . S
H1244 C1259 0.930 . S
C1245 H1233 0.930 . S
C1245 C1246 1.399 . S
C1245 C1250 1.399 . S
C1246 C1245 1.399 . S
C1246 C1247 1.376 . S
C1247 H1234 0.930 . S
C1247 C1246 1.376 . S
C1247 C1248 1.388 . S
C1248 H1235 0.930 . S
C1248 C1247 1.388 . S
C1248 C1249 1.390 . S
C1249 C1248 1.390 . S
C1249 C1250 1.394 . S
C1249 C1255 1.465 . S
C1250 C1245 1.399 . S
C1250 C1249 1.394 . S
C1250 C1251 1.516 . S
C1251 C1250 1.516 . S
C1251 C1252 1.502 . S
C1251 C1253 1.561 . S
C1251 C1254 1.526 . S
C1252 H1236 0.959 . S
C1252 H1237 0.959 . S
C1252 H1238 0.961 . S
C1252 C1251 1.502 . S
C1253 H1239 0.960 . S
C1253 H1240 0.961 . S
C1253 H1241 0.959 . S
C1253 C1251 1.561 . S
C1254 C1251 1.526 . S
C1254 C1255 1.396 . S
C1254 C1259 1.390 . S
C1255 C1249 1.465 . S
C1255 C1254 1.396 . S
C1255 C1256 1.399 . S
C1256 H1242 0.929 . S
C1256 C1255 1.399 . S
C1256 C1257 1.385 . S
C1257 H1243 0.931 . S
C1257 C1256 1.385 . S
C1257 C1258 1.389 . S
C1258 C1257 1.389 . S
C1258 C1259 1.387 . S
C1259 H1244 0.930 . S
C1259 C1254 1.390 . S
C1259 C1258 1.387 . S
H1260 C1272 0.930 . S
H1261 C1274 0.930 . S
H1262 C1275 0.930 . S
H1263 C1279 0.959 . S
H1264 C1279 0.959 . S
H1265 C1279 0.961 . S
H1266 C1280 0.960 . S
H1267 C1280 0.961 . S
H1268 C1280 0.959 . S
H1269 C1283 0.929 . S
H1270 C1284 0.931 . S
H1271 C1286 0.930 . S
C1272 H1260 0.930 . S
C1272 C1273 1.399 . S
C1272 C1277 1.399 . S
C1273 C1272 1.399 . S
C1273 C1274 1.376 . S
C1274 H1261 0.930 . S
C1274 C1273 1.376 . S
C1274 C1275 1.388 . S
C1275 H1262 0.930 . S
C1275 C1274 1.388 . S
C1275 C1276 1.390 . S
C1276 C1275 1.390 . S
C1276 C1277 1.394 . S
C1276 C1282 1.465 . S
C1277 C1272 1.399 . S
C1277 C1276 1.394 . S
C1277 C1278 1.516 . S
C1278 C1277 1.516 . S
C1278 C1279 1.502 . S
C1278 C1280 1.561 . S
C1278 C1281 1.526 . S
C1279 H1263 0.959 . S
C1279 H1264 0.959 . S
C1279 H1265 0.961 . S
C1279 C1278 1.502 . S
C1280 H1266 0.960 . S
C1280 H1267 0.961 . S
C1280 H1268 0.959 . S
C1280 C1278 1.561 . S
C1281 C1278 1.526 . S
C1281 C1282 1.396 . S
C1281 C1286 1.390 . S
C1282 C1276 1.465 . S
C1282 C1281 1.396 . S
C1282 C1283 1.399 . S
C1283 H1269 0.929 . S
C1283 C1282 1.399 . S
C1283 C1284 1.385 . S
C1284 H1270 0.931 . S
C1284 C1283 1.385 . S
C1284 C1285 1.389 . S
C1285 C1284 1.389 . S
C1285 C1286 1.387 . S
C1286 H1271 0.930 . S
C1286 C1281 1.390 . S
C1286 C1285 1.387 . S
H1287 C1299 0.930 . S
H1288 C1301 0.930 . S
H1289 C1302 0.930 . S
H1290 C1306 0.959 . S
H1291 C1306 0.959 . S
H1292 C1306 0.961 . S
H1293 C1307 0.960 . S
H1294 C1307 0.961 . S
H1295 C1307 0.959 . S
H1296 C1310 0.929 . S
H1297 C1311 0.931 . S
H1298 C1313 0.930 . S
C1299 H1287 0.930 . S
C1299 C1300 1.399 . S
C1299 C1304 1.399 . S
C1300 C1299 1.399 . S
C1300 C1301 1.376 . S
C1301 H1288 0.930 . S
C1301 C1300 1.376 . S
C1301 C1302 1.388 . S
C1302 H1289 0.930 . S
C1302 C1301 1.388 . S
C1302 C1303 1.390 . S
C1303 C1302 1.390 . S
C1303 C1304 1.394 . S
C1303 C1309 1.465 . S
C1304 C1299 1.399 . S
C1304 C1303 1.394 . S
C1304 C1305 1.516 . S
C1305 C1304 1.516 . S
C1305 C1306 1.502 . S
C1305 C1307 1.561 . S
C1305 C1308 1.526 . S
C1306 H1290 0.959 . S
C1306 H1291 0.959 . S
C1306 H1292 0.961 . S
C1306 C1305 1.502 . S
C1307 H1293 0.960 . S
C1307 H1294 0.961 . S
C1307 H1295 0.959 . S
C1307 C1305 1.561 . S
C1308 C1305 1.526 . S
C1308 C1309 1.396 . S
C1308 C1313 1.390 . S
C1309 C1303 1.465 . S
C1309 C1308 1.396 . S
C1309 C1310 1.399 . S
C1310 H1296 0.929 . S
C1310 C1309 1.399 . S
C1310 C1311 1.385 . S
C1311 H1297 0.931 . S
C1311 C1310 1.385 . S
C1311 C1312 1.389 . S
C1312 C1311 1.389 . S
C1312 C1313 1.387 . S
C1313 H1298 0.930 . S
C1313 C1308 1.390 . S
C1313 C1312 1.387 . S
H1314 C1326 0.930 . S
H1315 C1328 0.930 . S
H1316 C1329 0.930 . S
H1317 C1333 0.959 . S
H1318 C1333 0.959 . S
H1319 C1333 0.961 . S
H1320 C1334 0.960 . S
H1321 C1334 0.961 . S
H1322 C1334 0.959 . S
H1323 C1337 0.929 . S
H1324 C1338 0.931 . S
H1325 C1340 0.930 . S
C1326 H1314 0.930 . S
C1326 C1327 1.399 . S
C1326 C1331 1.399 . S
C1327 C1326 1.399 . S
C1327 C1328 1.376 . S
C1328 H1315 0.930 . S
C1328 C1327 1.376 . S
C1328 C1329 1.388 . S
C1329 H1316 0.930 . S
C1329 C1328 1.388 . S
C1329 C1330 1.390 . S
C1330 C1329 1.390 . S
C1330 C1331 1.394 . S
C1330 C1336 1.465 . S
C1331 C1326 1.399 . S
C1331 C1330 1.394 . S
C1331 C1332 1.516 . S
C1332 C1331 1.516 . S
C1332 C1333 1.502 . S
C1332 C1334 1.561 . S
C1332 C1335 1.526 . S
C1333 H1317 0.959 . S
C1333 H1318 0.959 . S
C1333 H1319 0.961 . S
C1333 C1332 1.502 . S
C1334 H1320 0.960 . S
C1334 H1321 0.961 . S
C1334 H1322 0.959 . S
C1334 C1332 1.561 . S
C1335 C1332 1.526 . S
C1335 C1336 1.396 . S
C1335 C1340 1.390 . S
C1336 C1330 1.465 . S
C1336 C1335 1.396 . S
C1336 C1337 1.399 . S
C1337 H1323 0.929 . S
C1337 C1336 1.399 . S
C1337 C1338 1.385 . S
C1338 H1324 0.931 . S
C1338 C1337 1.385 . S
C1338 C1339 1.389 . S
C1339 C1338 1.389 . S
C1339 C1340 1.387 . S
C1340 H1325 0.930 . S
C1340 C1335 1.390 . S
C1340 C1339 1.387 . S
H1341 C1353 0.930 . S
H1342 C1355 0.930 . S
H1343 C1356 0.930 . S
H1344 C1360 0.959 . S
H1345 C1360 0.959 . S
H1346 C1360 0.961 . S
H1347 C1361 0.960 . S
H1348 C1361 0.961 . S
H1349 C1361 0.959 . S
H1350 C1364 0.929 . S
H1351 C1365 0.931 . S
H1352 C1367 0.930 . S
C1353 H1341 0.930 . S
C1353 C1354 1.399 . S
C1353 C1358 1.399 . S
C1354 C1353 1.399 . S
C1354 C1355 1.376 . S
C1355 H1342 0.930 . S
C1355 C1354 1.376 . S
C1355 C1356 1.388 . S
C1356 H1343 0.930 . S
C1356 C1355 1.388 . S
C1356 C1357 1.390 . S
C1357 C1356 1.390 . S
C1357 C1358 1.394 . S
C1357 C1363 1.465 . S
C1358 C1353 1.399 . S
C1358 C1357 1.394 . S
C1358 C1359 1.516 . S
C1359 C1358 1.516 . S
C1359 C1360 1.502 1_655 S
C1359 C1361 1.561 . S
C1359 C1362 1.526 . S
C1360 H1344 0.959 . S
C1360 H1345 0.959 . S
C1360 H1346 0.961 . S
C1360 C1359 1.502 1_455 S
C1361 H1347 0.960 . S
C1361 H1348 0.961 . S
C1361 H1349 0.959 . S
C1361 C1359 1.561 . S
C1362 C1359 1.526 . S
C1362 C1363 1.396 . S
C1362 C1367 1.390 . S
C1363 C1357 1.465 . S
C1363 C1362 1.396 . S
C1363 C1364 1.399 . S
C1364 H1350 0.929 . S
C1364 C1363 1.399 . S
C1364 C1365 1.385 . S
C1365 H1351 0.931 . S
C1365 C1364 1.385 . S
C1365 C1366 1.389 . S
C1366 C1365 1.389 . S
C1366 C1367 1.387 . S
C1367 H1352 0.930 . S
C1367 C1362 1.390 . S
C1367 C1366 1.387 . S
H1368 C1380 0.930 . S
H1369 C1382 0.930 . S
H1370 C1383 0.930 . S
H1371 C1387 0.959 . S
H1372 C1387 0.959 . S
H1373 C1387 0.961 . S
H1374 C1388 0.960 . S
H1375 C1388 0.961 . S
H1376 C1388 0.959 . S
H1377 C1391 0.929 . S
H1378 C1392 0.931 . S
H1379 C1394 0.930 . S
C1380 H1368 0.930 . S
C1380 C1381 1.399 . S
C1380 C1385 1.399 . S
C1381 C1380 1.399 . S
C1381 C1382 1.376 . S
C1382 H1369 0.930 . S
C1382 C1381 1.376 . S
C1382 C1383 1.388 . S
C1383 H1370 0.930 . S
C1383 C1382 1.388 . S
C1383 C1384 1.390 . S
C1384 C1383 1.390 . S
C1384 C1385 1.394 . S
C1384 C1390 1.465 . S
C1385 C1380 1.399 . S
C1385 C1384 1.394 . S
C1385 C1386 1.516 . S
C1386 C1385 1.516 . S
C1386 C1387 1.502 . S
C1386 C1388 1.561 . S
C1386 C1389 1.526 . S
C1387 H1371 0.959 . S
C1387 H1372 0.959 . S
C1387 H1373 0.961 . S
C1387 C1386 1.502 . S
C1388 H1374 0.960 . S
C1388 H1375 0.961 . S
C1388 H1376 0.959 . S
C1388 C1386 1.561 . S
C1389 C1386 1.526 . S
C1389 C1390 1.396 . S
C1389 C1394 1.390 . S
C1390 C1384 1.465 . S
C1390 C1389 1.396 . S
C1390 C1391 1.399 . S
C1391 H1377 0.929 . S
C1391 C1390 1.399 . S
C1391 C1392 1.385 . S
C1392 H1378 0.931 . S
C1392 C1391 1.385 . S
C1392 C1393 1.389 . S
C1393 C1392 1.389 . S
C1393 C1394 1.387 . S
C1394 H1379 0.930 . S
C1394 C1389 1.390 . S
C1394 C1393 1.387 . S
H1395 C1407 0.930 . S
H1396 C1409 0.930 . S
H1397 C1410 0.930 . S
H1398 C1414 0.959 . S
H1399 C1414 0.959 . S
H1400 C1414 0.961 . S
H1401 C1415 0.960 . S
H1402 C1415 0.961 . S
H1403 C1415 0.959 . S
H1404 C1418 0.929 . S
H1405 C1419 0.931 . S
H1406 C1421 0.930 . S
C1407 H1395 0.930 . S
C1407 C1408 1.399 . S
C1407 C1412 1.399 . S
C1408 C1407 1.399 . S
C1408 C1409 1.376 . S
C1409 H1396 0.930 . S
C1409 C1408 1.376 . S
C1409 C1410 1.388 . S
C1410 H1397 0.930 . S
C1410 C1409 1.388 . S
C1410 C1411 1.390 . S
C1411 C1410 1.390 . S
C1411 C1412 1.394 . S
C1411 C1417 1.465 . S
C1412 C1407 1.399 . S
C1412 C1411 1.394 . S
C1412 C1413 1.516 . S
C1413 C1412 1.516 . S
C1413 C1414 1.502 . S
C1413 C1415 1.561 . S
C1413 C1416 1.526 . S
C1414 H1398 0.959 . S
C1414 H1399 0.959 . S
C1414 H1400 0.961 . S
C1414 C1413 1.502 . S
C1415 H1401 0.960 . S
C1415 H1402 0.961 . S
C1415 H1403 0.959 . S
C1415 C1413 1.561 . S
C1416 C1413 1.526 . S
C1416 C1417 1.396 . S
C1416 C1421 1.390 . S
C1417 C1411 1.465 . S
C1417 C1416 1.396 . S
C1417 C1418 1.399 . S
C1418 H1404 0.929 . S
C1418 C1417 1.399 . S
C1418 C1419 1.385 . S
C1419 H1405 0.931 . S
C1419 C1418 1.385 . S
C1419 C1420 1.389 . S
C1420 C1419 1.389 . S
C1420 C1421 1.387 . S
C1421 H1406 0.930 . S
C1421 C1416 1.390 . S
C1421 C1420 1.387 . S
H1422 C1434 0.930 . S
H1423 C1436 0.930 . S
H1424 C1437 0.930 . S
H1425 C1441 0.959 . S
H1426 C1441 0.959 . S
H1427 C1441 0.961 . S
H1428 C1442 0.960 . S
H1429 C1442 0.961 . S
H1430 C1442 0.959 . S
H1431 C1445 0.929 . S
H1432 C1446 0.931 . S
H1433 C1448 0.930 . S
C1434 H1422 0.930 . S
C1434 C1435 1.399 . S
C1434 C1439 1.399 . S
C1435 C1434 1.399 . S
C1435 C1436 1.376 . S
C1436 H1423 0.930 . S
C1436 C1435 1.376 . S
C1436 C1437 1.388 . S
C1437 H1424 0.930 . S
C1437 C1436 1.388 . S
C1437 C1438 1.390 . S
C1438 C1437 1.390 . S
C1438 C1439 1.394 . S
C1438 C1444 1.465 . S
C1439 C1434 1.399 . S
C1439 C1438 1.394 . S
C1439 C1440 1.516 . S
C1440 C1439 1.516 . S
C1440 C1441 1.502 . S
C1440 C1442 1.561 . S
C1440 C1443 1.526 . S
C1441 H1425 0.959 . S
C1441 H1426 0.959 . S
C1441 H1427 0.961 . S
C1441 C1440 1.502 . S
C1442 H1428 0.960 . S
C1442 H1429 0.961 . S
C1442 H1430 0.959 . S
C1442 C1440 1.561 . S
C1443 C1440 1.526 . S
C1443 C1444 1.396 . S
C1443 C1448 1.390 . S
C1444 C1438 1.465 . S
C1444 C1443 1.396 . S
C1444 C1445 1.399 . S
C1445 H1431 0.929 . S
C1445 C1444 1.399 . S
C1445 C1446 1.385 . S
C1446 H1432 0.931 . S
C1446 C1445 1.385 . S
C1446 C1447 1.389 . S
C1447 C1446 1.389 . S
C1447 C1448 1.387 . S
C1448 H1433 0.930 . S
C1448 C1443 1.390 . S
C1448 C1447 1.387 . S
H1449 C1461 0.930 . S
H1450 C1463 0.930 . S
H1451 C1464 0.930 . S
H1452 C1468 0.959 . S
H1453 C1468 0.959 . S
H1454 C1468 0.961 . S
H1455 C1469 0.960 . S
H1456 C1469 0.961 . S
H1457 C1469 0.959 . S
H1458 C1472 0.929 . S
H1459 C1473 0.931 . S
H1460 C1475 0.930 . S
C1461 H1449 0.930 . S
C1461 C1462 1.399 . S
C1461 C1466 1.399 . S
C1462 C1461 1.399 . S
C1462 C1463 1.376 . S
C1463 H1450 0.930 . S
C1463 C1462 1.376 . S
C1463 C1464 1.388 . S
C1464 H1451 0.930 . S
C1464 C1463 1.388 . S
C1464 C1465 1.390 . S
C1465 C1464 1.390 . S
C1465 C1466 1.394 . S
C1465 C1471 1.465 . S
C1466 C1461 1.399 . S
C1466 C1465 1.394 . S
C1466 C1467 1.516 . S
C1467 C1466 1.516 . S
C1467 C1468 1.502 . S
C1467 C1469 1.561 . S
C1467 C1470 1.526 . S
C1468 H1452 0.959 . S
C1468 H1453 0.959 . S
C1468 H1454 0.961 . S
C1468 C1467 1.502 . S
C1469 H1455 0.960 . S
C1469 H1456 0.961 . S
C1469 H1457 0.959 . S
C1469 C1467 1.561 . S
C1470 C1467 1.526 . S
C1470 C1471 1.396 . S
C1470 C1475 1.390 . S
C1471 C1465 1.465 . S
C1471 C1470 1.396 . S
C1471 C1472 1.399 . S
C1472 H1458 0.929 . S
C1472 C1471 1.399 . S
C1472 C1473 1.385 . S
C1473 H1459 0.931 . S
C1473 C1472 1.385 . S
C1473 C1474 1.389 . S
C1474 C1473 1.389 . S
C1474 C1475 1.387 . S
C1475 H1460 0.930 . S
C1475 C1470 1.390 . S
C1475 C1474 1.387 . S
H1476 C1488 0.932 . S
H1477 C1490 0.930 . S
H1478 C1491 0.930 . S
H1479 C1495 0.959 . S
H1480 C1495 0.959 . S
H1481 C1495 0.961 . S
H1482 C1496 0.960 . S
H1483 C1496 0.961 . S
H1484 C1496 0.959 . S
H1485 C1499 0.929 . S
H1486 C1500 0.931 . S
H1487 C1502 0.930 . S
C1488 H1476 0.932 . S
C1488 C1489 1.399 1_556 S
C1488 C1493 1.399 . S
C1489 C1488 1.399 1_554 S
C1489 C1490 1.376 . S
C1490 H1477 0.930 . S
C1490 C1489 1.376 . S
C1490 C1491 1.388 1_554 S
C1491 H1478 0.930 . S
C1491 C1490 1.388 1_556 S
C1491 C1492 1.390 . S
C1492 C1491 1.390 . S
C1492 C1493 1.394 . S
C1492 C1498 1.465 . S
C1493 C1488 1.399 . S
C1493 C1492 1.394 . S
C1493 C1494 1.516 . S
C1494 C1493 1.516 . S
C1494 C1495 1.502 . S
C1494 C1496 1.561 . S
C1494 C1497 1.526 . S
C1495 H1479 0.959 . S
C1495 H1480 0.959 . S
C1495 H1481 0.961 . S
C1495 C1494 1.502 . S
C1496 H1482 0.960 . S
C1496 H1483 0.961 . S
C1496 H1484 0.959 . S
C1496 C1494 1.561 . S
C1497 C1494 1.526 . S
C1497 C1498 1.396 . S
C1497 C1502 1.390 . S
C1498 C1492 1.465 . S
C1498 C1497 1.396 . S
C1498 C1499 1.399 . S
C1499 H1485 0.929 . S
C1499 C1498 1.399 . S
C1499 C1500 1.385 . S
C1500 H1486 0.931 . S
C1500 C1499 1.385 . S
C1500 C1501 1.389 . S
C1501 C1500 1.389 . S
C1501 C1502 1.387 . S
C1502 H1487 0.930 . S
C1502 C1497 1.390 . S
C1502 C1501 1.387 . S
H1503 C1515 0.930 . S
H1504 C1517 0.930 . S
H1505 C1518 0.930 . S
H1506 C1522 0.959 . S
H1507 C1522 0.959 . S
H1508 C1522 0.961 . S
H1509 C1523 0.960 . S
H1510 C1523 0.961 . S
H1511 C1523 0.959 . S
H1512 C1526 0.929 . S
H1513 C1527 0.931 . S
H1514 C1529 0.930 . S
C1515 H1503 0.930 . S
C1515 C1516 1.399 . S
C1515 C1520 1.399 . S
C1516 C1515 1.399 . S
C1516 C1517 1.376 . S
C1517 H1504 0.930 . S
C1517 C1516 1.376 . S
C1517 C1518 1.388 . S
C1518 H1505 0.930 . S
C1518 C1517 1.388 . S
C1518 C1519 1.390 . S
C1519 C1518 1.390 . S
C1519 C1520 1.394 . S
C1519 C1525 1.465 . S
C1520 C1515 1.399 . S
C1520 C1519 1.394 . S
C1520 C1521 1.516 . S
C1521 C1520 1.516 . S
C1521 C1522 1.502 . S
C1521 C1523 1.561 . S
C1521 C1524 1.526 . S
C1522 H1506 0.959 . S
C1522 H1507 0.959 . S
C1522 H1508 0.961 . S
C1522 C1521 1.502 . S
C1523 H1509 0.960 . S
C1523 H1510 0.961 . S
C1523 H1511 0.959 . S
C1523 C1521 1.561 . S
C1524 C1521 1.526 . S
C1524 C1525 1.396 . S
C1524 C1529 1.390 . S
C1525 C1519 1.465 . S
C1525 C1524 1.396 . S
C1525 C1526 1.399 . S
C1526 H1512 0.929 . S
C1526 C1525 1.399 . S
C1526 C1527 1.385 . S
C1527 H1513 0.931 . S
C1527 C1526 1.385 . S
C1527 C1528 1.389 . S
C1528 C1527 1.389 . S
C1528 C1529 1.387 . S
C1529 H1514 0.930 . S
C1529 C1524 1.390 . S
C1529 C1528 1.387 . S
H1530 C1542 0.930 . S
H1531 C1544 0.930 . S
H1532 C1545 0.930 . S
H1533 C1549 0.959 . S
H1534 C1549 0.959 . S
H1535 C1549 0.961 . S
H1536 C1550 0.960 . S
H1537 C1550 0.961 . S
H1538 C1550 0.959 . S
H1539 C1553 0.929 . S
H1540 C1554 0.931 . S
H1541 C1556 0.930 . S
C1542 H1530 0.930 . S
C1542 C1543 1.399 . S
C1542 C1547 1.399 . S
C1543 C1542 1.399 . S
C1543 C1544 1.376 . S
C1544 H1531 0.930 . S
C1544 C1543 1.376 . S
C1544 C1545 1.388 . S
C1545 H1532 0.930 . S
C1545 C1544 1.388 . S
C1545 C1546 1.390 . S
C1546 C1545 1.390 . S
C1546 C1547 1.394 . S
C1546 C1552 1.465 . S
C1547 C1542 1.399 . S
C1547 C1546 1.394 . S
C1547 C1548 1.516 . S
C1548 C1547 1.516 . S
C1548 C1549 1.502 . S
C1548 C1550 1.561 . S
C1548 C1551 1.526 . S
C1549 H1533 0.959 . S
C1549 H1534 0.959 . S
C1549 H1535 0.961 . S
C1549 C1548 1.502 . S
C1550 H1536 0.960 . S
C1550 H1537 0.961 . S
C1550 H1538 0.959 . S
C1550 C1548 1.561 . S
C1551 C1548 1.526 . S
C1551 C1552 1.396 . S
C1551 C1556 1.390 . S
C1552 C1546 1.465 . S
C1552 C1551 1.396 . S
C1552 C1553 1.399 . S
C1553 H1539 0.929 . S
C1553 C1552 1.399 . S
C1553 C1554 1.385 . S
C1554 H1540 0.931 . S
C1554 C1553 1.385 . S
C1554 C1555 1.389 . S
C1555 C1554 1.389 . S
C1555 C1556 1.387 . S
C1556 H1541 0.930 . S
C1556 C1551 1.390 . S
C1556 C1555 1.387 . S
H1557 C1569 0.930 . S
H1558 C1571 0.930 . S
H1559 C1572 0.930 . S
H1560 C1576 0.959 . S
H1561 C1576 0.959 . S
H1562 C1576 0.961 . S
H1563 C1577 0.960 . S
H1564 C1577 0.961 . S
H1565 C1577 0.959 . S
H1566 C1580 0.929 . S
H1567 C1581 0.931 . S
H1568 C1583 0.930 . S
C1569 H1557 0.930 . S
C1569 C1570 1.399 . S
C1569 C1574 1.399 . S
C1570 C1569 1.399 . S
C1570 C1571 1.376 . S
C1571 H1558 0.930 . S
C1571 C1570 1.376 . S
C1571 C1572 1.388 . S
C1572 H1559 0.930 . S
C1572 C1571 1.388 . S
C1572 C1573 1.390 . S
C1573 C1572 1.390 . S
C1573 C1574 1.394 . S
C1573 C1579 1.465 . S
C1574 C1569 1.399 . S
C1574 C1573 1.394 . S
C1574 C1575 1.516 . S
C1575 C1574 1.516 . S
C1575 C1576 1.502 . S
C1575 C1577 1.561 . S
C1575 C1578 1.526 . S
C1576 H1560 0.959 . S
C1576 H1561 0.959 . S
C1576 H1562 0.961 . S
C1576 C1575 1.502 . S
C1577 H1563 0.960 . S
C1577 H1564 0.961 . S
C1577 H1565 0.959 . S
C1577 C1575 1.561 . S
C1578 C1575 1.526 . S
C1578 C1579 1.396 . S
C1578 C1583 1.390 . S
C1579 C1573 1.465 . S
C1579 C1578 1.396 . S
C1579 C1580 1.399 . S
C1580 H1566 0.929 . S
C1580 C1579 1.399 . S
C1580 C1581 1.385 . S
C1581 H1567 0.931 . S
C1581 C1580 1.385 . S
C1581 C1582 1.389 . S
C1582 C1581 1.389 . S
C1582 C1583 1.387 . S
C1583 H1568 0.930 . S
C1583 C1578 1.390 . S
C1583 C1582 1.387 . S
C745 C641 1.936 . S
C733 C69 1.929 . S
C760 C125 0.760 . S
C772 C673 0.781 . S
C787 C217 1.921 . S
C799 C696 1.948 . S
C826 C600 1.510 . S
C814 C261 1.517 . S
C853 C683 1.604 . S
C841 C39 1.705 . S
C880 C712 1.716 . S
C868 C137 1.865 . S
C907 C616 1.710 . S
C895 C187 1.678 . S
C934 C651 1.964 . S
C922 C291 2.104 . S
C949 C51 0.733 . S
C961 C679 0.734 . S
C976 C365 2.024 . S
C988 C654 1.819 . S
C1003 C199 0.771 . S
C1015 C622 0.808 . S
C1042 C711 1.556 . S
C1030 C439 1.784 . S
C1069 C655 1.814 . S
C1057 C63 1.706 . S
C1084 C335 1.436 . S
C1096 C623 1.545 . S
C1111 C211 1.703 . S
C1123 C710 1.817 . S
C1150 C678 1.811 . S
C1138 C409 1.741 1_545 S
C1165 C495 0.727 . S
C1177 C705 0.809 . S
C1192 C347 0.874 . S
C1204 C609 0.846 . S
C1219 C587 1.878 . S
C1231 C632 1.907 . S
C1246 C421 0.685 . S
C1258 C664 0.696 . S
C1285 C619 1.675 . S
C1273 C507 1.702 . S
C1300 C359 1.495 . S
C1312 C648 1.535 . S
C1327 C557 1.640 . S
C1339 C680 1.671 . S
C1366 C715 1.716 . S
C1354 C433 1.720 . S
C1381 C513 1.871 . S
C1393 C615 1.684 . S
C1408 C143 1.814 . S
C1420 C718 1.623 . S
C1435 C569 0.720 . S
C1447 C686 0.631 . S
C1474 C647 1.432 . S
C1462 C285 1.490 . S
C1501 C719 1.605 . S
C1489 C483 1.630 . S
C1528 C687 1.762 . S
C1516 C113 1.734 . S
C1555 C646 1.803 . S
C1543 C581 1.696 . S
C1582 C614 0.991 . S
C1570 C273 0.976 . S
