# Generated by pormake.
# Topology ptr, (4,4)-cn, num edge types: 1
# Building blocks:
#     Node 0, Type 0, BuildingBlock: TATPOV_clean_sbu_0, # of connection points: 4
#     Node 1, Type 0, BuildingBlock: TATPOV_clean_sbu_0, # of connection points: 4
#     Node 2, Type 0, BuildingBlock: TATPOV_clean_sbu_0, # of connection points: 4
#     Node 3, Type 0, BuildingBlock: TATPOV_clean_sbu_0, # of connection points: 4
#     Node 4, Type 0, BuildingBlock: TATPOV_clean_sbu_0, # of connection points: 4
#     Node 5, Type 0, BuildingBlock: TATPOV_clean_sbu_0, # of connection points: 4
#     Node 6, Type 0, BuildingBlock: TATPOV_clean_sbu_0, # of connection points: 4
#     Node 7, Type 0, BuildingBlock: TATPOV_clean_sbu_0, # of connection points: 4
#     Node 8, Type 0, BuildingBlock: TATPOV_clean_sbu_0, # of connection points: 4
#     Node 9, Type 0, BuildingBlock: TATPOV_clean_sbu_0, # of connection points: 4
#     Node 10, Type 0, BuildingBlock: TATPOV_clean_sbu_0, # of connection points: 4
#     Node 11, Type 0, BuildingBlock: TATPOV_clean_sbu_0, # of connection points: 4
#     Node 12, Type 0, BuildingBlock: TATPOV_clean_sbu_0, # of connection points: 4
#     Node 13, Type 0, BuildingBlock: TATPOV_clean_sbu_0, # of connection points: 4
#     Node 14, Type 0, BuildingBlock: TATPOV_clean_sbu_0, # of connection points: 4
#     Node 15, Type 0, BuildingBlock: TATPOV_clean_sbu_0, # of connection points: 4
#     Node 16, Type 0, BuildingBlock: TATPOV_clean_sbu_0, # of connection points: 4
#     Node 17, Type 0, BuildingBlock: TATPOV_clean_sbu_0, # of connection points: 4
#     Node 18, Type 1, BuildingBlock: MIFKUJ_clean_linker_1, # of connection points: 4
#     Node 19, Type 1, BuildingBlock: MIFKUJ_clean_linker_1, # of connection points: 4
#     Node 20, Type 1, BuildingBlock: MIFKUJ_clean_linker_1, # of connection points: 4
#     Node 21, Type 1, BuildingBlock: MIFKUJ_clean_linker_1, # of connection points: 4
#     Node 22, Type 1, BuildingBlock: MIFKUJ_clean_linker_1, # of connection points: 4
#     Node 23, Type 1, BuildingBlock: MIFKUJ_clean_linker_1, # of connection points: 4
#     Node 24, Type 1, BuildingBlock: MIFKUJ_clean_linker_1, # of connection points: 4
#     Node 25, Type 1, BuildingBlock: MIFKUJ_clean_linker_1, # of connection points: 4
#     Node 26, Type 1, BuildingBlock: MIFKUJ_clean_linker_1, # of connection points: 4
#     Node 27, Type 1, BuildingBlock: MIFKUJ_clean_linker_1, # of connection points: 4
#     Node 28, Type 1, BuildingBlock: MIFKUJ_clean_linker_1, # of connection points: 4
#     Node 29, Type 1, BuildingBlock: MIFKUJ_clean_linker_1, # of connection points: 4
#     Node 30, Type 1, BuildingBlock: MIFKUJ_clean_linker_1, # of connection points: 4
#     Node 31, Type 1, BuildingBlock: MIFKUJ_clean_linker_1, # of connection points: 4
#     Node 32, Type 1, BuildingBlock: MIFKUJ_clean_linker_1, # of connection points: 4
#     Node 33, Type 1, BuildingBlock: MIFKUJ_clean_linker_1, # of connection points: 4
#     Node 34, Type 1, BuildingBlock: MIFKUJ_clean_linker_1, # of connection points: 4
#     Node 35, Type 1, BuildingBlock: MIFKUJ_clean_linker_1, # of connection points: 4
#     Edge 36, Type (0, 1), BuildingBlock: UVAHIK_clean_linker_0, # of connection points: 2
#     Edge 37, Type (0, 1), BuildingBlock: UVAHIK_clean_linker_0, # of connection points: 2
#     Edge 38, Type (0, 1), BuildingBlock: UVAHIK_clean_linker_0, # of connection points: 2
#     Edge 39, Type (0, 1), BuildingBlock: UVAHIK_clean_linker_0, # of connection points: 2
#     Edge 40, Type (0, 1), BuildingBlock: UVAHIK_clean_linker_0, # of connection points: 2
#     Edge 41, Type (0, 1), BuildingBlock: UVAHIK_clean_linker_0, # of connection points: 2
#     Edge 42, Type (0, 1), BuildingBlock: UVAHIK_clean_linker_0, # of connection points: 2
#     Edge 43, Type (0, 1), BuildingBlock: UVAHIK_clean_linker_0, # of connection points: 2
#     Edge 44, Type (0, 1), BuildingBlock: UVAHIK_clean_linker_0, # of connection points: 2
#     Edge 45, Type (0, 1), BuildingBlock: UVAHIK_clean_linker_0, # of connection points: 2
#     Edge 46, Type (0, 1), BuildingBlock: UVAHIK_clean_linker_0, # of connection points: 2
#     Edge 47, Type (0, 1), BuildingBlock: UVAHIK_clean_linker_0, # of connection points: 2
#     Edge 48, Type (0, 1), BuildingBlock: UVAHIK_clean_linker_0, # of connection points: 2
#     Edge 49, Type (0, 1), BuildingBlock: UVAHIK_clean_linker_0, # of connection points: 2
#     Edge 50, Type (0, 1), BuildingBlock: UVAHIK_clean_linker_0, # of connection points: 2
#     Edge 51, Type (0, 1), BuildingBlock: UVAHIK_clean_linker_0, # of connection points: 2
#     Edge 52, Type (0, 1), BuildingBlock: UVAHIK_clean_linker_0, # of connection points: 2
#     Edge 53, Type (0, 1), BuildingBlock: UVAHIK_clean_linker_0, # of connection points: 2
#     Edge 54, Type (0, 1), BuildingBlock: UVAHIK_clean_linker_0, # of connection points: 2
#     Edge 55, Type (0, 1), BuildingBlock: UVAHIK_clean_linker_0, # of connection points: 2
#     Edge 56, Type (0, 1), BuildingBlock: UVAHIK_clean_linker_0, # of connection points: 2
#     Edge 57, Type (0, 1), BuildingBlock: UVAHIK_clean_linker_0, # of connection points: 2
#     Edge 58, Type (0, 1), BuildingBlock: UVAHIK_clean_linker_0, # of connection points: 2
#     Edge 59, Type (0, 1), BuildingBlock: UVAHIK_clean_linker_0, # of connection points: 2
#     Edge 60, Type (0, 1), BuildingBlock: UVAHIK_clean_linker_0, # of connection points: 2
#     Edge 61, Type (0, 1), BuildingBlock: UVAHIK_clean_linker_0, # of connection points: 2
#     Edge 62, Type (0, 1), BuildingBlock: UVAHIK_clean_linker_0, # of connection points: 2
#     Edge 63, Type (0, 1), BuildingBlock: UVAHIK_clean_linker_0, # of connection points: 2
#     Edge 64, Type (0, 1), BuildingBlock: UVAHIK_clean_linker_0, # of connection points: 2
#     Edge 65, Type (0, 1), BuildingBlock: UVAHIK_clean_linker_0, # of connection points: 2
#     Edge 66, Type (0, 1), BuildingBlock: UVAHIK_clean_linker_0, # of connection points: 2
#     Edge 67, Type (0, 1), BuildingBlock: UVAHIK_clean_linker_0, # of connection points: 2
#     Edge 68, Type (0, 1), BuildingBlock: UVAHIK_clean_linker_0, # of connection points: 2
#     Edge 69, Type (0, 1), BuildingBlock: UVAHIK_clean_linker_0, # of connection points: 2
#     Edge 70, Type (0, 1), BuildingBlock: UVAHIK_clean_linker_0, # of connection points: 2
#     Edge 71, Type (0, 1), BuildingBlock: UVAHIK_clean_linker_0, # of connection points: 2
#     Edge 72, Type (0, 1), BuildingBlock: UVAHIK_clean_linker_0, # of connection points: 2
#     Edge 73, Type (0, 1), BuildingBlock: UVAHIK_clean_linker_0, # of connection points: 2
#     Edge 74, Type (0, 1), BuildingBlock: UVAHIK_clean_linker_0, # of connection points: 2
#     Edge 75, Type (0, 1), BuildingBlock: UVAHIK_clean_linker_0, # of connection points: 2
#     Edge 76, Type (0, 1), BuildingBlock: UVAHIK_clean_linker_0, # of connection points: 2
#     Edge 77, Type (0, 1), BuildingBlock: UVAHIK_clean_linker_0, # of connection points: 2
#     Edge 78, Type (0, 1), BuildingBlock: UVAHIK_clean_linker_0, # of connection points: 2
#     Edge 79, Type (0, 1), BuildingBlock: UVAHIK_clean_linker_0, # of connection points: 2
#     Edge 80, Type (0, 1), BuildingBlock: UVAHIK_clean_linker_0, # of connection points: 2
#     Edge 81, Type (0, 1), BuildingBlock: UVAHIK_clean_linker_0, # of connection points: 2
#     Edge 82, Type (0, 1), BuildingBlock: UVAHIK_clean_linker_0, # of connection points: 2
#     Edge 83, Type (0, 1), BuildingBlock: UVAHIK_clean_linker_0, # of connection points: 2
#     Edge 84, Type (0, 1), BuildingBlock: UVAHIK_clean_linker_0, # of connection points: 2
#     Edge 85, Type (0, 1), BuildingBlock: UVAHIK_clean_linker_0, # of connection points: 2
#     Edge 86, Type (0, 1), BuildingBlock: UVAHIK_clean_linker_0, # of connection points: 2
#     Edge 87, Type (0, 1), BuildingBlock: UVAHIK_clean_linker_0, # of connection points: 2
#     Edge 88, Type (0, 1), BuildingBlock: UVAHIK_clean_linker_0, # of connection points: 2
#     Edge 89, Type (0, 1), BuildingBlock: UVAHIK_clean_linker_0, # of connection points: 2
#     Edge 90, Type (0, 1), BuildingBlock: UVAHIK_clean_linker_0, # of connection points: 2
#     Edge 91, Type (0, 1), BuildingBlock: UVAHIK_clean_linker_0, # of connection points: 2
#     Edge 92, Type (0, 1), BuildingBlock: UVAHIK_clean_linker_0, # of connection points: 2
#     Edge 93, Type (0, 1), BuildingBlock: UVAHIK_clean_linker_0, # of connection points: 2
#     Edge 94, Type (0, 1), BuildingBlock: UVAHIK_clean_linker_0, # of connection points: 2
#     Edge 95, Type (0, 1), BuildingBlock: UVAHIK_clean_linker_0, # of connection points: 2
#     Edge 96, Type (0, 1), BuildingBlock: UVAHIK_clean_linker_0, # of connection points: 2
#     Edge 97, Type (0, 1), BuildingBlock: UVAHIK_clean_linker_0, # of connection points: 2
#     Edge 98, Type (0, 1), BuildingBlock: UVAHIK_clean_linker_0, # of connection points: 2
#     Edge 99, Type (0, 1), BuildingBlock: UVAHIK_clean_linker_0, # of connection points: 2
#     Edge 100, Type (0, 1), BuildingBlock: UVAHIK_clean_linker_0, # of connection points: 2
#     Edge 101, Type (0, 1), BuildingBlock: UVAHIK_clean_linker_0, # of connection points: 2
#     Edge 102, Type (0, 1), BuildingBlock: UVAHIK_clean_linker_0, # of connection points: 2
#     Edge 103, Type (0, 1), BuildingBlock: UVAHIK_clean_linker_0, # of connection points: 2
#     Edge 104, Type (0, 1), BuildingBlock: UVAHIK_clean_linker_0, # of connection points: 2
#     Edge 105, Type (0, 1), BuildingBlock: UVAHIK_clean_linker_0, # of connection points: 2
#     Edge 106, Type (0, 1), BuildingBlock: UVAHIK_clean_linker_0, # of connection points: 2
#     Edge 107, Type (0, 1), BuildingBlock: UVAHIK_clean_linker_0, # of connection points: 2
# Relax obj value: 0.067
# Max RMSD: 0.225
# Mean RMSD: 0.107
data_MOF--net-ptr--node1-TATPOV_clean_sbu_0--node2-MIFKUJ_clean_linker_1--edge1-UVAHIK_clean_linker_0
_symmetry_space_group_name_H-M    P1
_symmetry_Int_Tables_number       1
_symmetry_cell_setting            triclinic
loop_
_symmetry_equiv_pos_as_xyz
'x, y, z'
_cell_length_a     110.95026
_cell_length_b     112.48893
_cell_length_c     75.148548
_cell_angle_alpha  89.75561
_cell_angle_beta   90.643939
_cell_angle_gamma 121.41014
loop_
_atom_site_label
_atom_site_type_symbol
_atom_site_fract_x
_atom_site_fract_y
_atom_site_fract_z
_atom_type_partial_charge
Zn0 Zn 0.96964 0.35633 0.01132 0.0
Zn1 Zn 0.99397 0.35705 0.01791 0.0
O2 O 0.9795 0.33675 0.01094 0.0
O3 O 0.95985 0.33604 0.00399 0.0
O4 O 0.01138 0.35628 0.02414 0.0
O5 O 0.96943 0.36204 0.03663 0.0
O6 O 0.99021 0.3644 0.04114 0.0
C7 C 0.96676 0.33 0.00537 0.0
C8 C 0.99302 0.37556 0.98894 0.0
O9 O -0.00027 0.37064 0.9968 0.0
O10 O 0.98043 0.3715 0.99316 0.0
C11 C 0.01366 0.34747 0.01678 0.0
O12 O 0.00503 0.33935 0.00417 0.0
C13 C 0.98002 0.36555 0.04666 0.0
Zn14 Zn 0.64796 0.62159 0.99522 0.0
Zn15 Zn 0.6496 0.64358 0.01156 0.0
O16 O 0.66984 0.65086 0.00266 0.0
O17 O 0.66892 0.63242 0.9912 0.0
O18 O 0.65186 0.66049 0.024 0.0
O19 O 0.64015 0.61039 0.01778 0.0
O20 O 0.64263 0.62883 0.03142 0.0
C21 C 0.67594 0.64522 0.99528 0.0
C22 C 0.63037 0.63055 0.97885 0.0
O23 O 0.63467 0.63904 0.99191 0.0
O24 O 0.63488 0.62236 0.97689 0.0
C25 C 0.65239 0.67046 0.01529 0.0
O26 O 0.65106 0.66953 0.99788 0.0
C27 C 0.63913 0.61608 0.03172 0.0
Zn28 Zn 0.34601 0.97158 0.02069 0.0
Zn29 Zn 0.35103 0.99746 0.01712 0.0
O30 O 0.33005 0.9857 0.02426 0.0
O31 O 0.32547 0.96416 0.02514 0.0
O32 O 0.35296 0.01576 0.01068 0.0
O33 O 0.3524 0.97133 0.99588 0.0
O34 O 0.35684 0.99273 0.99339 0.0
C35 C 0.32138 0.97272 0.02652 0.0
C36 C 0.36712 0.99221 0.04565 0.0
O37 O 0.36488 0.00096 0.03775 0.0
O38 O 0.36038 0.97953 0.04089 0.0
C39 C 0.35072 0.02346 0.02071 0.0
O40 O 0.34783 0.02018 0.03757 0.0
C41 C 0.35683 0.9823 0.98679 0.0
Zn42 Zn 0.03359 0.65463 0.01628 0.0
Zn43 Zn 0.00702 0.6491 0.01078 0.0
O44 O 0.01921 0.67005 0.01656 0.0
O45 O 0.04123 0.67525 0.0187 0.0
O46 O 0.98836 0.64716 0.00462 0.0
O47 O 0.03303 0.64625 0.99219 0.0
O48 O 0.01136 0.64176 0.98821 0.0
C49 C 0.03227 0.67899 0.01904 0.0
C50 C 0.01243 0.63547 0.042 0.0
O51 O 0.0036 0.63668 0.03239 0.0
O52 O 0.02546 0.64215 0.03817 0.0
C53 C 0.98319 0.65262 0.01431 0.0
O54 O 0.98959 0.65863 0.02935 0.0
C55 C 0.02191 0.64126 0.98272 0.0
Zn56 Zn 0.35119 0.38238 0.03473 0.0
Zn57 Zn 0.35192 0.36133 0.0195 0.0
O58 O 0.33106 0.35291 0.0266 0.0
O59 O 0.3301 0.37072 0.03674 0.0
O60 O 0.3512 0.34494 0.00756 0.0
O61 O 0.35989 0.39401 0.01274 0.0
O62 O 0.3591 0.37614 0.99968 0.0
C63 C 0.32396 0.35793 0.03275 0.0
C64 C 0.36895 0.37475 0.05357 0.0
O65 O 0.36605 0.36654 0.04041 0.0
O66 O 0.36347 0.38217 0.05463 0.0
C67 C 0.35105 0.33522 0.01644 0.0
O68 O 0.35193 0.33611 0.03389 0.0
C69 C 0.36197 0.38869 0.99919 0.0
Zn70 Zn 0.65293 0.02965 0.00397 0.0
Zn71 Zn 0.64968 0.00506 0.01231 0.0
O72 O 0.67087 0.01768 0.00621 0.0
O73 O 0.67366 0.03811 0.00019 0.0
O74 O 0.64895 0.98775 0.02109 0.0
O75 O 0.64592 0.03115 0.02794 0.0
O76 O 0.64242 0.01046 0.0342 0.0
C77 C 0.6788 0.03042 0.0018 0.0
C78 C 0.63351 0.00678 0.98053 0.0
O79 O 0.63624 0.99928 0.99057 0.0
O80 O 0.63928 0.01972 0.98356 0.0
C81 C 0.65038 0.97935 0.0114 0.0
O82 O 0.65164 0.9813 0.99411 0.0
C83 C 0.64173 0.02103 0.03857 0.0
Zn84 Zn 0.63413 0.69211 0.33814 0.0
Zn85 Zn 0.65672 0.69179 0.35046 0.0
O86 O 0.64256 0.67164 0.34228 0.0
O87 O 0.62335 0.67139 0.33407 0.0
O88 O 0.67236 0.68966 0.36072 0.0
O89 O 0.63289 0.70027 0.3615 0.0
O90 O 0.65095 0.6992 0.37176 0.0
C91 C 0.62989 0.66505 0.3364 0.0
C92 C 0.65971 0.70932 0.31794 0.0
O93 O 0.66558 0.70583 0.32982 0.0
O94 O 0.64655 0.7046 0.31839 0.0
C95 C 0.68013 0.68726 0.35095 0.0
O96 O 0.67854 0.68701 0.33358 0.0
C97 C 0.64147 0.7022 0.37403 0.0
Zn98 Zn 0.30121 0.94871 0.3298 0.0
Zn99 Zn 0.30562 0.97174 0.34567 0.0
O100 O 0.32558 0.97674 0.33767 0.0
O101 O 0.32196 0.95708 0.32647 0.0
O102 O 0.30958 0.98948 0.35774 0.0
O103 O 0.29196 0.93776 0.35198 0.0
O104 O 0.297 0.95707 0.36574 0.0
C105 C 0.33034 0.96971 0.33065 0.0
C106 C 0.28667 0.96024 0.3122 0.0
O107 O 0.29144 0.96866 0.32534 0.0
O108 O 0.28981 0.95098 0.31061 0.0
C109 C 0.31068 0.99967 0.34891 0.0
O110 O 0.30903 0.99857 0.33153 0.0
C111 C 0.29184 0.94395 0.36595 0.0
Zn112 Zn 0.0187 0.31025 0.36243 0.0
Zn113 Zn 0.02454 0.33611 0.35537 0.0
O114 O 0.00344 0.32528 0.36199 0.0
O115 O 0.9981 0.30356 0.36479 0.0
O116 O 0.02727 0.35431 0.34683 0.0
O117 O 0.02594 0.30868 0.33868 0.0
O118 O 0.03016 0.32969 0.33293 0.0
C119 C 0.99439 0.31246 0.36472 0.0
C120 C 0.03929 0.33193 0.38669 0.0
O121 O 0.03797 0.34039 0.37671 0.0
O122 O 0.0321 0.31895 0.38351 0.0
C123 C 0.02908 0.36456 0.35609 0.0
O124 O 0.02999 0.36414 0.3735 0.0
C125 C 0.03027 0.31888 0.32816 0.0
Zn126 Zn 0.70455 0.98752 0.35597 0.0
Zn127 Zn 0.67869 0.98298 0.34811 0.0
O128 O 0.69152 0.00418 0.35269 0.0
O129 O 0.71283 0.00814 0.35799 0.0
O130 O 0.6603 0.98136 0.34091 0.0
O131 O 0.70464 0.97905 0.33232 0.0
O132 O 0.68337 0.97509 0.32634 0.0
C133 C 0.70453 0.01263 0.35627 0.0
C134 C 0.68253 0.9693 0.38087 0.0
O135 O 0.67429 0.97081 0.37043 0.0
O136 O 0.69564 0.97546 0.37774 0.0
C137 C 0.65626 0.98866 0.3488 0.0
O138 O 0.66367 0.9964 0.36244 0.0
C139 C 0.69402 0.97433 0.32198 0.0
Zn140 Zn 0.02409 0.7201 0.37002 0.0
Zn141 Zn 0.0222 0.69702 0.35679 0.0
O142 O 0.00168 0.69021 0.36466 0.0
O143 O 0.00335 0.70939 0.37465 0.0
O144 O 0.02101 0.67995 0.34611 0.0
O145 O 0.031 0.72977 0.34642 0.0
O146 O 0.02951 0.71082 0.33577 0.0
C147 C 0.99595 0.69648 0.37133 0.0
C148 C 0.04141 0.71207 0.38903 0.0
O149 O 0.03665 0.70244 0.37733 0.0
O150 O 0.03753 0.72085 0.38896 0.0
C151 C 0.01236 0.66761 0.35133 0.0
O152 O 0.00375 0.66563 0.3644 0.0
C153 C 0.03239 0.72329 0.33365 0.0
Zn154 Zn 0.31717 0.3612 0.33608 0.0
Zn155 Zn 0.31358 0.33621 0.3444 0.0
O156 O 0.33443 0.34825 0.3372 0.0
O157 O 0.33803 0.3692 0.33259 0.0
O158 O 0.31263 0.31884 0.35322 0.0
O159 O 0.31013 0.36257 0.36021 0.0
O160 O 0.30746 0.34224 0.36665 0.0
C161 C 0.34267 0.36104 0.33332 0.0
C162 C 0.29712 0.33796 0.31314 0.0
O163 O 0.29967 0.33044 0.32337 0.0
O164 O 0.30332 0.351 0.31571 0.0
C165 C 0.31392 0.31032 0.3436 0.0
O166 O 0.31517 0.31219 0.32629 0.0
C167 C 0.30658 0.35268 0.37109 0.0
Zn168 Zn 0.30247 0.02175 0.67424 0.0
Zn169 Zn 0.32694 0.02454 0.68482 0.0
O170 O 0.31409 0.00376 0.67827 0.0
O171 O 0.29318 0.00088 0.67295 0.0
O172 O 0.34446 0.0252 0.69382 0.0
O173 O 0.30179 0.03088 0.69696 0.0
O174 O 0.32109 0.03173 0.70631 0.0
C175 C 0.30103 0.99586 0.67445 0.0
C176 C 0.3262 0.03956 0.65148 0.0
O177 O 0.33339 0.03766 0.66325 0.0
O178 O 0.3129 0.03352 0.65278 0.0
C179 C 0.35054 0.02053 0.6844 0.0
O180 O 0.34566 0.01588 0.66829 0.0
C181 C 0.31108 0.03394 0.70894 0.0
Zn182 Zn 0.98428 0.28772 0.66282 0.0
Zn183 Zn 0.98309 0.30878 0.67685 0.0
O184 O 0.00416 0.31743 0.67038 0.0
O185 O 0.00539 0.29949 0.66146 0.0
O186 O 0.98312 0.32509 0.68808 0.0
O187 O 0.97522 0.27624 0.68477 0.0
O188 O 0.97587 0.29428 0.69711 0.0
C189 C 0.01141 0.31235 0.66499 0.0
C190 C 0.96665 0.29463 0.64256 0.0
O191 O 0.9692 0.30298 0.65546 0.0
O192 O 0.97236 0.2874 0.64215 0.0
C193 C 0.98235 0.33425 0.67903 0.0
O194 O 0.98113 0.33301 0.66163 0.0
C195 C 0.97301 0.28175 0.69803 0.0
Zn196 Zn 0.68095 0.63939 0.69287 0.0
Zn197 Zn 0.68607 0.66468 0.6833 0.0
O198 O 0.66545 0.65399 0.69188 0.0
O199 O 0.66075 0.63291 0.69843 0.0
O200 O 0.68777 0.68228 0.67406 0.0
O201 O 0.68573 0.63616 0.66827 0.0
O202 O 0.69073 0.65722 0.661 0.0
C203 C 0.65684 0.64163 0.69713 0.0
C204 C 0.70344 0.66284 0.71334 0.0
O205 O 0.70078 0.67041 0.70336 0.0
O206 O 0.69647 0.6497 0.71145 0.0
C207 C 0.68698 0.69102 0.68387 0.0
O208 O 0.68602 0.68917 0.70119 0.0
C209 C 0.68994 0.64585 0.65694 0.0
Zn210 Zn 0.36983 0.31509 0.69396 0.0
Zn211 Zn 0.34637 0.31509 0.68435 0.0
O212 O 0.36111 0.33526 0.69194 0.0
O213 O 0.3806 0.33566 0.69898 0.0
O214 O 0.33046 0.31764 0.67637 0.0
O215 O 0.37021 0.30787 0.66944 0.0
O216 O 0.35059 0.30722 0.66214 0.0
C217 C 0.37393 0.34192 0.69729 0.0
C218 C 0.34507 0.29738 0.71571 0.0
O219 O 0.33866 0.30121 0.70513 0.0
O220 O 0.3581 0.3019 0.71378 0.0
C221 C 0.31745 0.30832 0.67494 0.0
O222 O 0.31324 0.29535 0.6789 0.0
C223 C 0.36047 0.3051 0.65824 0.0
Zn224 Zn 0.69384 0.05744 0.68602 0.0
Zn225 Zn 0.69166 0.0334 0.67838 0.0
O226 O 0.67167 0.0276 0.68726 0.0
O227 O 0.67363 0.04766 0.69329 0.0
O228 O 0.68902 0.01509 0.67032 0.0
O229 O 0.69895 0.06433 0.66103 0.0
O230 O 0.69834 0.04489 0.65505 0.0
C231 C 0.66623 0.0345 0.69268 0.0
C232 C 0.7124 0.05199 0.70733 0.0
O233 O 0.70677 0.04065 0.69847 0.0
O234 O 0.70878 0.06079 0.70421 0.0
C235 C 0.68964 0.0062 0.68016 0.0
O236 O 0.69249 0.00882 0.69721 0.0
C237 C 0.70048 0.0567 0.65012 0.0
Zn238 Zn 0.97744 0.69237 0.66185 0.0
Zn239 Zn 0.97495 0.66777 0.66985 0.0
O240 O 0.99601 0.68078 0.66369 0.0
O241 O 0.99815 0.70088 0.65716 0.0
O242 O 0.97378 0.64992 0.67736 0.0
O243 O 0.97095 0.69336 0.6865 0.0
O244 O 0.96846 0.67303 0.69249 0.0
C245 C 0.00362 0.69347 0.65892 0.0
C246 C 0.95786 0.66953 0.63882 0.0
O247 O 0.9612 0.66231 0.64849 0.0
O248 O 0.96331 0.68242 0.64191 0.0
C249 C 0.9819 0.64613 0.67122 0.0
O250 O 0.99097 0.65366 0.65881 0.0
C251 C 0.96756 0.68341 0.69722 0.0
H252 H 0.14121 0.32454 0.17771 0.0
H253 H 0.12418 0.32708 0.19501 0.0
H254 H 0.0899 0.29164 0.16769 0.0
H255 H 0.10706 0.28908 0.1504 0.0
H256 H 0.14551 0.30324 0.17678 0.0
H257 H 0.13316 0.32774 0.13804 0.0
H258 H 0.11813 0.33346 0.12107 0.0
H259 H 0.10562 0.298 0.08676 0.0
H260 H 0.11984 0.29167 0.10488 0.0
H261 H 0.15405 0.28389 0.10942 0.0
H262 H 0.17311 0.28401 0.09298 0.0
H263 H 0.2038 0.32093 0.1217 0.0
H264 H 0.18481 0.32085 0.13784 0.0
H265 H 0.147 0.30416 0.11082 0.0
H266 H 0.16391 0.28259 0.15425 0.0
H267 H 0.18295 0.28312 0.17195 0.0
H268 H 0.19221 0.32187 0.19593 0.0
H269 H 0.17344 0.3214 0.17816 0.0
C270 C 0.12539 0.30662 0.1628 0.0
C271 C 0.13002 0.31732 0.17542 0.0
C272 C 0.12029 0.31885 0.18517 0.0
C273 C 0.10572 0.3096 0.18263 0.0
C274 C 0.10107 0.29888 0.16995 0.0
C275 C 0.11084 0.29744 0.16004 0.0
C276 C 0.13587 0.30504 0.15272 0.0
C277 C 0.14582 0.30342 0.16235 0.0
C278 C 0.13633 0.30543 0.13389 0.0
C279 C 0.12736 0.30903 0.12309 0.0
C280 C 0.12693 0.32099 0.12713 0.0
C281 C 0.11851 0.32442 0.11712 0.0
C282 C 0.1106 0.31623 0.10243 0.0
C283 C 0.11131 0.30443 0.09815 0.0
C284 C 0.11957 0.30085 0.1084 0.0
C285 C 0.16803 0.30221 0.12508 0.0
C286 C 0.1649 0.29198 0.11217 0.0
C287 C 0.17577 0.29206 0.10279 0.0
C288 C 0.18994 0.30238 0.10621 0.0
C289 C 0.19301 0.31266 0.11906 0.0
C290 C 0.18216 0.31263 0.12829 0.0
C291 C 0.15655 0.30225 0.13492 0.0
C292 C 0.14642 0.3036 0.12523 0.0
C293 C 0.1563 0.30226 0.15374 0.0
C294 C 0.16731 0.302 0.16482 0.0
C295 C 0.17006 0.29118 0.16334 0.0
C296 C 0.18087 0.29146 0.17349 0.0
C297 C 0.18914 0.3026 0.1852 0.0
C298 C 0.18617 0.31326 0.18683 0.0
C299 C 0.17536 0.31294 0.1768 0.0
H300 H 0.71406 0.87692 0.16806 0.0
H301 H 0.71418 0.89445 0.18709 0.0
H302 H 0.67253 0.88246 0.16747 0.0
H303 H 0.67214 0.86431 0.14937 0.0
H304 H 0.69796 0.85012 0.17007 0.0
H305 H 0.70585 0.88388 0.12535 0.0
H306 H 0.70083 0.89967 0.10886 0.0
H307 H 0.66124 0.86453 0.0905 0.0
H308 H 0.66604 0.84881 0.10742 0.0
H309 H 0.66626 0.81549 0.11037 0.0
H310 H 0.66198 0.79444 0.0952 0.0
H311 H 0.70298 0.8029 0.1125 0.0
H312 H 0.70738 0.82416 0.12734 0.0
H313 H 0.68447 0.84184 0.10619 0.0
H314 H 0.67297 0.81006 0.15571 0.0
H315 H 0.67461 0.79385 0.17576 0.0
H316 H 0.71897 0.82408 0.18457 0.0
H317 H 0.717 0.84044 0.16502 0.0
C318 C 0.69316 0.86935 0.15713 0.0
C319 C 0.70497 0.87809 0.16783 0.0
C320 C 0.70507 0.88824 0.17858 0.0
C321 C 0.69338 0.88996 0.17883 0.0
C322 C 0.68166 0.88135 0.16782 0.0
C323 C 0.6815 0.87108 0.15724 0.0
C324 C 0.69271 0.85787 0.14682 0.0
C325 C 0.69529 0.84851 0.156 0.0
C326 C 0.68884 0.85551 0.12855 0.0
C327 C 0.68624 0.86514 0.11787 0.0
C328 C 0.69603 0.87957 0.11792 0.0
C329 C 0.69318 0.88858 0.10846 0.0
C330 C 0.68063 0.88331 0.09845 0.0
C331 C 0.67104 0.86886 0.09799 0.0
C332 C 0.67379 0.85987 0.10765 0.0
C333 C 0.68708 0.82136 0.12017 0.0
C334 C 0.67439 0.8129 0.11079 0.0
C335 C 0.67195 0.80087 0.10212 0.0
C336 C 0.68213 0.79701 0.10272 0.0
C337 C 0.69487 0.80552 0.11202 0.0
C338 C 0.69738 0.81765 0.12053 0.0
C339 C 0.68944 0.83402 0.12957 0.0
C340 C 0.6873 0.84362 0.1202 0.0
C341 C 0.69354 0.83656 0.14771 0.0
C342 C 0.69488 0.8264 0.15884 0.0
C343 C 0.68307 0.81312 0.16185 0.0
C344 C 0.68407 0.80383 0.17326 0.0
C345 C 0.69695 0.8076 0.18182 0.0
C346 C 0.70884 0.82087 0.17847 0.0
C347 C 0.70777 0.83022 0.1672 0.0
H348 H 0.10762 0.84824 0.17748 0.0
H349 H 0.09305 0.82908 0.19757 0.0
H350 H 0.1054 0.80333 0.17027 0.0
H351 H 0.12098 0.82291 0.15159 0.0
H352 H 0.13456 0.86219 0.17537 0.0
H353 H 0.0982 0.83567 0.12913 0.0
H354 H 0.08263 0.81504 0.11109 0.0
H355 H 0.11852 0.81181 0.09699 0.0
H356 H 0.13394 0.83267 0.11425 0.0
H357 H 0.16614 0.86658 0.11525 0.0
H358 H 0.18696 0.8831 0.09868 0.0
H359 H 0.18037 0.91634 0.11365 0.0
H360 H 0.15942 0.8996 0.13051 0.0
H361 H 0.13933 0.85877 0.11037 0.0
H362 H 0.17366 0.8785 0.15793 0.0
H363 H 0.19176 0.89649 0.17712 0.0
H364 H 0.1633 0.91057 0.19006 0.0
H365 H 0.14502 0.89208 0.17123 0.0
C366 C 0.11525 0.83702 0.16272 0.0
C367 C 0.10714 0.83844 0.17579 0.0
C368 C 0.09866 0.82737 0.18718 0.0
C369 C 0.09798 0.81455 0.18565 0.0
C370 C 0.10579 0.81306 0.17215 0.0
C371 C 0.1145 0.82422 0.16108 0.0
C372 C 0.12552 0.84925 0.15202 0.0
C373 C 0.13529 0.86157 0.16105 0.0
C374 C 0.12688 0.84838 0.13342 0.0
C375 C 0.11722 0.83573 0.12293 0.0
C376 C 0.10265 0.8305 0.12207 0.0
C377 C 0.09377 0.81866 0.11182 0.0
C378 C 0.09929 0.81177 0.10239 0.0
C379 C 0.11389 0.817 0.10359 0.0
C380 C 0.12275 0.8289 0.11358 0.0
C381 C 0.16118 0.88183 0.12404 0.0
C382 C 0.1691 0.8774 0.1149 0.0
C383 C 0.18098 0.88687 0.10535 0.0
C384 C 0.1852 0.90101 0.10462 0.0
C385 C 0.17739 0.90552 0.114 0.0
C386 C 0.16543 0.89598 0.12361 0.0
C387 C 0.14845 0.87141 0.13381 0.0
C388 C 0.13821 0.85954 0.12458 0.0
C389 C 0.14689 0.87252 0.15225 0.0
C390 C 0.15807 0.88406 0.16306 0.0
C391 C 0.17139 0.88557 0.16476 0.0
C392 C 0.18176 0.89594 0.17569 0.0
C393 C 0.17907 0.9051 0.18512 0.0
C394 C 0.16571 0.90363 0.18319 0.0
C395 C 0.15528 0.89313 0.17236 0.0
H396 H 0.28678 0.16569 0.8693 0.0
H397 H 0.28548 0.18254 0.84992 0.0
H398 H 0.33032 0.21125 0.85777 0.0
H399 H 0.33129 0.19461 0.87768 0.0
H400 H 0.30461 0.15461 0.86392 0.0
H401 H 0.29695 0.18135 0.90683 0.0
H402 H 0.30182 0.20283 0.92144 0.0
H403 H 0.3429 0.21101 0.93784 0.0
H404 H 0.33815 0.18971 0.92286 0.0
H405 H 0.33805 0.15607 0.92513 0.0
H406 H 0.34283 0.14022 0.94188 0.0
H407 H 0.3027 0.10534 0.9245 0.0
H408 H 0.29766 0.12121 0.90836 0.0
H409 H 0.32003 0.16346 0.92718 0.0
H410 H 0.33157 0.14244 0.87972 0.0
H411 H 0.33067 0.12465 0.86028 0.0
H412 H 0.28597 0.10754 0.85158 0.0
H413 H 0.28716 0.12576 0.87046 0.0
C414 C 0.3091 0.17898 0.87501 0.0
C415 C 0.29627 0.1757 0.86694 0.0
C416 C 0.29558 0.18532 0.85577 0.0
C417 C 0.30779 0.19832 0.85221 0.0
C418 C 0.32062 0.20152 0.86045 0.0
C419 C 0.32124 0.19198 0.87178 0.0
C420 C 0.31005 0.16858 0.88611 0.0
C421 C 0.30769 0.15639 0.87786 0.0
C422 C 0.31459 0.17121 0.9041 0.0
C423 C 0.31725 0.18398 0.91352 0.0
C424 C 0.30707 0.18783 0.91339 0.0
C425 C 0.30984 0.20009 0.92177 0.0
C426 C 0.32275 0.20861 0.93072 0.0
C427 C 0.33281 0.20459 0.93117 0.0
C428 C 0.3301 0.19242 0.92261 0.0
C429 C 0.31758 0.13985 0.91522 0.0
C430 C 0.3302 0.14503 0.92505 0.0
C431 C 0.33294 0.13598 0.93461 0.0
C432 C 0.32317 0.12157 0.93437 0.0
C433 C 0.31049 0.11639 0.9247 0.0
C434 C 0.30765 0.12546 0.91539 0.0
C435 C 0.31482 0.14953 0.9049 0.0
C436 C 0.31679 0.16158 0.91329 0.0
C437 C 0.31031 0.147 0.88688 0.0
C438 C 0.30943 0.13539 0.87652 0.0
C439 C 0.32156 0.13474 0.87376 0.0
C440 C 0.32099 0.1245 0.86269 0.0
C441 C 0.30825 0.11465 0.85423 0.0
C442 C 0.29602 0.11511 0.85754 0.0
C443 C 0.29665 0.12545 0.86843 0.0
H444 H 0.85191 0.11582 0.85274 0.0
H445 H 0.83231 0.10074 0.83266 0.0
H446 H 0.8055 0.11158 0.86062 0.0
H447 H 0.82528 0.12722 0.87979 0.0
H448 H 0.86419 0.14321 0.85506 0.0
H449 H 0.83812 0.10512 0.89664 0.0
H450 H 0.81663 0.08862 0.9126 0.0
H451 H 0.81744 0.12305 0.93918 0.0
H452 H 0.83804 0.13933 0.92234 0.0
H453 H 0.86687 0.17049 0.91965 0.0
H454 H 0.88233 0.19207 0.93569 0.0
H455 H 0.91876 0.19399 0.91258 0.0
H456 H 0.90319 0.17201 0.89682 0.0
H457 H 0.86284 0.14608 0.9207 0.0
H458 H 0.87736 0.18086 0.87381 0.0
H459 H 0.89315 0.19941 0.85352 0.0
H460 H 0.91125 0.17506 0.838 0.0
H461 H 0.89502 0.15637 0.85784 0.0
C462 C 0.84006 0.12254 0.86795 0.0
C463 C 0.84176 0.11484 0.85461 0.0
C464 C 0.8305 0.10613 0.84322 0.0
C465 C 0.81732 0.10498 0.84493 0.0
C466 C 0.81555 0.11237 0.8587 0.0
C467 C 0.82682 0.12117 0.86991 0.0
C468 C 0.85237 0.13303 0.87866 0.0
C469 C 0.86402 0.14363 0.86947 0.0
C470 C 0.85199 0.13383 0.89745 0.0
C471 C 0.83965 0.12352 0.90807 0.0
C472 C 0.83358 0.10909 0.90581 0.0
C473 C 0.82137 0.09965 0.91509 0.0
C474 C 0.81515 0.10448 0.92701 0.0
C475 C 0.82166 0.11892 0.92977 0.0
C476 C 0.83364 0.12829 0.92032 0.0
C477 C 0.88382 0.16959 0.90694 0.0
C478 C 0.87819 0.1754 0.91819 0.0
C479 C 0.88704 0.18775 0.92738 0.0
C480 C 0.90175 0.19467 0.92543 0.0
C481 C 0.90745 0.18889 0.91423 0.0
C482 C 0.89856 0.17637 0.90518 0.0
C483 C 0.87404 0.15659 0.89698 0.0
C484 C 0.86308 0.14542 0.90632 0.0
C485 C 0.87461 0.15556 0.87831 0.0
C486 C 0.88508 0.1673 0.86733 0.0
C487 C 0.88486 0.17963 0.86616 0.0
C488 C 0.89395 0.19025 0.8546 0.0
C489 C 0.90346 0.18874 0.84402 0.0
C490 C 0.90389 0.17649 0.84566 0.0
C491 C 0.8947 0.16583 0.85709 0.0
H492 H 0.83187 0.68482 0.84504 0.0
H493 H 0.81572 0.68612 0.82408 0.0
H494 H 0.82069 0.72189 0.85201 0.0
H495 H 0.8374 0.72088 0.87286 0.0
H496 H 0.85793 0.70106 0.85067 0.0
H497 H 0.81687 0.68361 0.88595 0.0
H498 H 0.79723 0.68269 0.90151 0.0
H499 H 0.82672 0.71801 0.93361 0.0
H500 H 0.84642 0.71899 0.91779 0.0
H501 H 0.88378 0.71318 0.92065 0.0
H502 H 0.89793 0.70656 0.93866 0.0
H503 H 0.87807 0.66683 0.91152 0.0
H504 H 0.86428 0.67365 0.89343 0.0
H505 H 0.85355 0.69935 0.91635 0.0
H506 H 0.89488 0.71373 0.87853 0.0
H507 H 0.9119 0.7106 0.86174 0.0
H508 H 0.87739 0.67497 0.83499 0.0
H509 H 0.86052 0.67813 0.85176 0.0
C510 C 0.83593 0.70277 0.86054 0.0
C511 C 0.82964 0.69305 0.84663 0.0
C512 C 0.82041 0.6938 0.83464 0.0
C513 C 0.81709 0.7042 0.83634 0.0
C514 C 0.8231 0.71378 0.85045 0.0
C515 C 0.83258 0.71317 0.86236 0.0
C516 C 0.84615 0.70195 0.8727 0.0
C517 C 0.85689 0.70066 0.86503 0.0
C518 C 0.84503 0.70166 0.8915 0.0
C519 C 0.83312 0.70152 0.90048 0.0
C520 C 0.81913 0.69134 0.89608 0.0
C521 C 0.8079 0.69083 0.90499 0.0
C522 C 0.81043 0.70035 0.9187 0.0
C523 C 0.82445 0.71052 0.92315 0.0
C524 C 0.8357 0.71109 0.91411 0.0
C525 C 0.87316 0.69399 0.90555 0.0
C526 C 0.8825 0.70305 0.91865 0.0
C527 C 0.89052 0.69922 0.92897 0.0
C528 C 0.88923 0.6862 0.92643 0.0
C529 C 0.87958 0.67705 0.91356 0.0
C530 C 0.87164 0.68091 0.90324 0.0
C531 C 0.86491 0.69805 0.89417 0.0
C532 C 0.85468 0.70006 0.902 0.0
C533 C 0.86609 0.69848 0.87547 0.0
C534 C 0.87646 0.69618 0.86632 0.0
C535 C 0.89102 0.70517 0.86919 0.0
C536 C 0.90071 0.7034 0.85957 0.0
C537 C 0.89596 0.69253 0.84709 0.0
C538 C 0.88136 0.68333 0.84466 0.0
C539 C 0.87172 0.68519 0.85411 0.0
H540 H 0.78715 0.64939 0.48016 0.0
H541 H 0.77012 0.65034 0.49965 0.0
H542 H 0.757 0.60925 0.51936 0.0
H543 H 0.77383 0.60823 0.49965 0.0
H544 H 0.8018 0.62535 0.50215 0.0
H545 H 0.80213 0.65328 0.43789 0.0
H546 H 0.78651 0.65891 0.42179 0.0
H547 H 0.75023 0.62118 0.44132 0.0
H548 H 0.76592 0.61534 0.45708 0.0
H549 H 0.82031 0.61752 0.43368 0.0
H550 H 0.84246 0.62343 0.4191 0.0
H551 H 0.86541 0.65836 0.45495 0.0
H552 H 0.84333 0.6527 0.46892 0.0
H553 H 0.80824 0.63436 0.43726 0.0
H554 H 0.8263 0.61193 0.47731 0.0
H555 H 0.84567 0.6134 0.49533 0.0
H556 H 0.84781 0.64689 0.52588 0.0
H557 H 0.82865 0.64547 0.50788 0.0
C558 C 0.78169 0.62868 0.48834 0.0
C559 C 0.78035 0.64044 0.48832 0.0
C560 C 0.77064 0.64099 0.49948 0.0
C561 C 0.76232 0.6299 0.51107 0.0
C562 C 0.7634 0.618 0.51068 0.0
C563 C 0.77297 0.61739 0.49942 0.0
C564 C 0.79307 0.62865 0.4782 0.0
C565 C 0.80304 0.62708 0.4879 0.0
C566 C 0.79488 0.63124 0.45965 0.0
C567 C 0.78523 0.63394 0.44887 0.0
C568 C 0.79082 0.64606 0.43848 0.0
C569 C 0.78189 0.6493 0.42929 0.0
C570 C 0.76716 0.64052 0.43039 0.0
C571 C 0.76154 0.62821 0.44043 0.0
C572 C 0.7705 0.62488 0.44943 0.0
C573 C 0.83022 0.63459 0.45248 0.0
C574 C 0.83014 0.62646 0.43831 0.0
C575 C 0.84279 0.62979 0.4301 0.0
C576 C 0.85569 0.64138 0.43584 0.0
C577 C 0.85565 0.64948 0.45002 0.0
C578 C 0.84306 0.64618 0.45816 0.0
C579 C 0.81693 0.63121 0.46131 0.0
C580 C 0.80667 0.63217 0.4514 0.0
C581 C 0.81506 0.62859 0.47979 0.0
C582 C 0.82608 0.62863 0.49123 0.0
C583 C 0.83091 0.61953 0.48796 0.0
C584 C 0.84191 0.62033 0.49828 0.0
C585 C 0.8483 0.63033 0.51189 0.0
C586 C 0.84321 0.6392 0.51533 0.0
C587 C 0.83218 0.63832 0.50516 0.0
H588 H 0.37705 0.20732 0.50167 0.0
H589 H 0.37779 0.22502 0.52094 0.0
H590 H 0.33648 0.21435 0.50151 0.0
H591 H 0.33542 0.19596 0.48323 0.0
H592 H 0.36057 0.18071 0.50348 0.0
H593 H 0.36868 0.21475 0.45887 0.0
H594 H 0.36389 0.23066 0.44226 0.0
H595 H 0.32394 0.19577 0.42437 0.0
H596 H 0.32851 0.17994 0.44139 0.0
H597 H 0.32831 0.14642 0.44371 0.0
H598 H 0.3237 0.12528 0.42846 0.0
H599 H 0.36457 0.13321 0.44545 0.0
H600 H 0.3693 0.15455 0.46035 0.0
H601 H 0.34672 0.17274 0.4397 0.0
H602 H 0.33483 0.14099 0.48941 0.0
H603 H 0.33621 0.12444 0.50908 0.0
H604 H 0.381 0.15361 0.51655 0.0
H605 H 0.37928 0.17035 0.49748 0.0
C606 C 0.35625 0.20035 0.49083 0.0
C607 C 0.36816 0.20881 0.50153 0.0
C608 C 0.36862 0.21907 0.51243 0.0
C609 C 0.35721 0.22122 0.51281 0.0
C610 C 0.3454 0.21291 0.50179 0.0
C611 C 0.34486 0.2025 0.49108 0.0
C612 C 0.3554 0.18872 0.48039 0.0
C613 C 0.35782 0.17918 0.48942 0.0
C614 C 0.3514 0.18641 0.46216 0.0
C615 C 0.34888 0.19614 0.4516 0.0
C616 C 0.35883 0.21053 0.45152 0.0
C617 C 0.35611 0.21961 0.442 0.0
C618 C 0.34354 0.21443 0.43206 0.0
C619 C 0.33377 0.20002 0.43179 0.0
C620 C 0.33638 0.19098 0.44152 0.0
C621 C 0.34909 0.15203 0.45338 0.0
C622 C 0.33635 0.14369 0.44404 0.0
C623 C 0.33372 0.13161 0.43532 0.0
C624 C 0.34375 0.12756 0.43582 0.0
C625 C 0.35656 0.13596 0.44505 0.0
C626 C 0.35925 0.14814 0.45361 0.0
C627 C 0.35165 0.16473 0.4629 0.0
C628 C 0.34963 0.17446 0.45369 0.0
C629 C 0.35582 0.16717 0.48101 0.0
C630 C 0.35696 0.15684 0.49198 0.0
C631 C 0.34496 0.14374 0.49521 0.0
C632 C 0.34581 0.13425 0.50638 0.0
C633 C 0.35875 0.13762 0.51444 0.0
C634 C 0.37082 0.15071 0.51085 0.0
C635 C 0.3699 0.16027 0.49986 0.0
H636 H 0.77966 0.18179 0.50441 0.0
H637 H 0.76474 0.16081 0.5217 0.0
H638 H 0.77884 0.13834 0.49013 0.0
H639 H 0.79442 0.15961 0.47374 0.0
H640 H 0.80804 0.19591 0.5023 0.0
H641 H 0.76893 0.16924 0.45998 0.0
H642 H 0.75408 0.14779 0.44302 0.0
H643 H 0.79081 0.15494 0.41425 0.0
H644 H 0.80561 0.17557 0.43202 0.0
H645 H 0.83529 0.20583 0.4366 0.0
H646 H 0.8559 0.22364 0.42095 0.0
H647 H 0.85241 0.25565 0.4477 0.0
H648 H 0.83164 0.23756 0.46363 0.0
H649 H 0.80894 0.19892 0.43648 0.0
H650 H 0.84528 0.21206 0.47997 0.0
H651 H 0.86492 0.22654 0.5003 0.0
H652 H 0.84004 0.24111 0.52511 0.0
H653 H 0.82027 0.22644 0.50471 0.0
C654 C 0.78797 0.17224 0.48757 0.0
C655 C 0.7795 0.17232 0.5012 0.0
C656 C 0.77086 0.16025 0.51097 0.0
C657 C 0.77047 0.14779 0.50726 0.0
C658 C 0.77894 0.14774 0.4935 0.0
C659 C 0.78772 0.15987 0.48392 0.0
C660 C 0.79771 0.18528 0.47791 0.0
C661 C 0.80797 0.1967 0.48791 0.0
C662 C 0.79801 0.18607 0.45907 0.0
C663 C 0.78846 0.17395 0.44754 0.0
C664 C 0.77377 0.16613 0.45007 0.0
C665 C 0.76526 0.15393 0.44021 0.0
C666 C 0.77127 0.14948 0.42745 0.0
C667 C 0.78585 0.15779 0.4243 0.0
C668 C 0.79433 0.16977 0.4343 0.0
C669 C 0.83187 0.22034 0.45122 0.0
C670 C 0.83883 0.21667 0.43897 0.0
C671 C 0.8506 0.22689 0.42995 0.0
C672 C 0.8557 0.24109 0.43287 0.0
C673 C 0.84875 0.24481 0.44519 0.0
C674 C 0.8369 0.2345 0.45428 0.0
C675 C 0.81953 0.20916 0.46085 0.0
C676 C 0.80865 0.19825 0.45089 0.0
C677 C 0.81917 0.20838 0.47961 0.0
C678 C 0.83139 0.21828 0.49077 0.0
C679 C 0.84413 0.21854 0.48959 0.0
C680 C 0.85529 0.22673 0.50126 0.0
C681 C 0.85395 0.23488 0.51428 0.0
C682 C 0.84135 0.23498 0.5151 0.0
C683 C 0.83008 0.2266 0.50353 0.0
H684 H 0.97204 0.50878 0.20026 0.0
H685 H 0.96959 0.52503 0.18107 0.0
H686 H 0.01445 0.55471 0.18669 0.0
H687 H 0.01653 0.53871 0.20657 0.0
H688 H 0.99058 0.49838 0.19379 0.0
H689 H 0.98045 0.52154 0.23876 0.0
H690 H 0.9825 0.54151 0.25446 0.0
H691 H 0.02635 0.55649 0.26627 0.0
H692 H 0.02427 0.53652 0.25029 0.0
H693 H 0.026 0.5008 0.25296 0.0
H694 H 0.03084 0.48502 0.26983 0.0
H695 H 0.98921 0.45057 0.25635 0.0
H696 H 0.98428 0.46638 0.23993 0.0
H697 H 0.0074 0.50848 0.25653 0.0
H698 H 0.01784 0.48659 0.2075 0.0
H699 H 0.01558 0.46751 0.18942 0.0
H700 H 0.97035 0.44963 0.18635 0.0
H701 H 0.97291 0.46919 0.20354 0.0
C702 C 0.99444 0.5226 0.20488 0.0
C703 C 0.98127 0.51887 0.19747 0.0
C704 C 0.97994 0.52816 0.18638 0.0
C705 C 0.99182 0.54124 0.1822 0.0
C706 C 0.00498 0.54491 0.18984 0.0
C707 C 0.00624 0.53572 0.20114 0.0
C708 C 0.99612 0.51256 0.21579 0.0
C709 C 0.99403 0.50045 0.2076 0.0
C710 C 0.00091 0.51547 0.23364 0.0
C711 C 0.00224 0.5276 0.24324 0.0
C712 C 0.99053 0.52917 0.24463 0.0
C713 C 0.99169 0.54052 0.25373 0.0
C714 C 0.00459 0.55057 0.26161 0.0
C715 C 0.01631 0.54899 0.26019 0.0
C716 C 0.01512 0.53755 0.25119 0.0
C717 C 0.00487 0.48475 0.24488 0.0
C718 C 0.01789 0.48986 0.25372 0.0
C719 C 0.02064 0.48085 0.26336 0.0
C720 C 0.01045 0.46656 0.26425 0.0
C721 C 0.99736 0.4615 0.25562 0.0
C722 C 0.99456 0.47052 0.24617 0.0
C723 C 0.00201 0.49429 0.23448 0.0
C724 C 0.00391 0.50636 0.24274 0.0
C725 C 0.99703 0.49135 0.21666 0.0
C726 C 0.99554 0.47929 0.20678 0.0
C727 C 0.00745 0.4785 0.20294 0.0
C728 C 0.0061 0.4675 0.19269 0.0
C729 C 0.99277 0.45698 0.18626 0.0
C730 C 0.98083 0.45767 0.19064 0.0
C731 C 0.98224 0.46879 0.20059 0.0
H732 H 0.51626 0.44631 0.18908 0.0
H733 H 0.49676 0.42809 0.17113 0.0
H734 H 0.46939 0.44188 0.19011 0.0
H735 H 0.48871 0.45979 0.20791 0.0
H736 H 0.52794 0.47509 0.18687 0.0
H737 H 0.50562 0.43992 0.23378 0.0
H738 H 0.48535 0.42268 0.25107 0.0
H739 H 0.47541 0.45409 0.26373 0.0
H740 H 0.49588 0.47123 0.2471 0.0
H741 H 0.52651 0.50508 0.24652 0.0
H742 H 0.54055 0.52717 0.26196 0.0
H743 H 0.57878 0.52958 0.2446 0.0
H744 H 0.56454 0.50691 0.22985 0.0
H745 H 0.52347 0.48111 0.25132 0.0
H746 H 0.53902 0.51367 0.20255 0.0
H747 H 0.55545 0.5321 0.18261 0.0
H748 H 0.57495 0.50831 0.17097 0.0
H749 H 0.5582 0.48976 0.19064 0.0
C750 C 0.50386 0.45421 0.20011 0.0
C751 C 0.50599 0.44526 0.18946 0.0
C752 C 0.49486 0.4349 0.17919 0.0
C753 C 0.48145 0.4334 0.17934 0.0
C754 C 0.47943 0.44245 0.19002 0.0
C755 C 0.4905 0.45274 0.20022 0.0
C756 C 0.51563 0.4657 0.21039 0.0
C757 C 0.52721 0.47625 0.20108 0.0
C758 C 0.51445 0.4674 0.22879 0.0
C759 C 0.50228 0.45686 0.23926 0.0
C760 C 0.49907 0.44305 0.24039 0.0
C761 C 0.48744 0.4332 0.25019 0.0
C762 C 0.47877 0.43699 0.25894 0.0
C763 C 0.48202 0.45084 0.25761 0.0
C764 C 0.4937 0.46067 0.248 0.0
C765 C 0.54444 0.50433 0.23693 0.0
C766 C 0.53792 0.51028 0.24613 0.0
C767 C 0.54598 0.52303 0.25479 0.0
C768 C 0.56082 0.53026 0.25436 0.0
C769 C 0.56738 0.52425 0.24527 0.0
C770 C 0.55926 0.51137 0.23668 0.0
C771 C 0.5355 0.49077 0.2277 0.0
C772 C 0.52452 0.47979 0.23724 0.0
C773 C 0.53697 0.4889 0.2094 0.0
C774 C 0.54749 0.50042 0.19816 0.0
C775 C 0.54695 0.51252 0.19585 0.0
C776 C 0.5564 0.52307 0.18449 0.0
C777 C 0.56655 0.52172 0.17516 0.0
C778 C 0.56715 0.50963 0.17773 0.0
C779 C 0.55765 0.49904 0.18903 0.0
H780 H 0.54335 0.04241 0.19269 0.0
H781 H 0.56079 0.04298 0.17251 0.0
H782 H 0.55057 0.00243 0.19118 0.0
H783 H 0.53286 0.00172 0.21102 0.0
H784 H 0.51577 0.02478 0.19161 0.0
H785 H 0.55248 0.03649 0.23729 0.0
H786 H 0.56948 0.03241 0.25308 0.0
H787 H 0.53581 0.99079 0.26617 0.0
H788 H 0.5189 0.99492 0.2504 0.0
H789 H 0.48558 0.99732 0.25612 0.0
H790 H 0.46554 0.99407 0.27311 0.0
H791 H 0.47115 0.0322 0.25109 0.0
H792 H 0.49181 0.03585 0.23496 0.0
H793 H 0.51183 0.01482 0.25631 0.0
H794 H 0.47551 0.00061 0.21327 0.0
H795 H 0.45709 0.99943 0.19396 0.0
H796 H 0.48716 0.03988 0.17245 0.0
H797 H 0.50541 0.04125 0.19239 0.0
C798 C 0.53689 0.0221 0.20353 0.0
C799 C 0.54493 0.03368 0.19254 0.0
C800 C 0.55486 0.03399 0.18101 0.0
C801 C 0.557 0.02274 0.18029 0.0
C802 C 0.54924 0.01131 0.19163 0.0
C803 C 0.53917 0.01093 0.20302 0.0
C804 C 0.52543 0.02133 0.21446 0.0
C805 C 0.51507 0.02294 0.20586 0.0
C806 C 0.52413 0.01821 0.23284 0.0
C807 C 0.53446 0.01599 0.24264 0.0
C808 C 0.54879 0.0265 0.24357 0.0
C809 C 0.55845 0.02419 0.25265 0.0
C810 C 0.55395 0.01127 0.26079 0.0
C811 C 0.53959 0.00079 0.25987 0.0
C812 C 0.52992 0.00317 0.25099 0.0
C813 C 0.49014 0.01675 0.24407 0.0
C814 C 0.48263 0.00509 0.25511 0.0
C815 C 0.47103 0.00316 0.26467 0.0
C816 C 0.46658 0.01278 0.26331 0.0
C817 C 0.47432 0.02462 0.25255 0.0
C818 C 0.48604 0.02663 0.24313 0.0
C819 C 0.50218 0.01842 0.2335 0.0
C820 C 0.51263 0.01695 0.24214 0.0
C821 C 0.50331 0.02123 0.215 0.0
C822 C 0.49183 0.02108 0.20442 0.0
C823 C 0.47806 0.00938 0.20472 0.0
C824 C 0.46757 0.00865 0.1935 0.0
C825 C 0.47066 0.01952 0.18155 0.0
C826 C 0.48436 0.0314 0.18161 0.0
C827 C 0.49485 0.03215 0.19291 0.0
H828 H 0.4779 0.99834 0.84641 0.0
H829 H 0.45983 7e-05 0.86243 0.0
H830 H 0.42733 0.96597 0.83125 0.0
H831 H 0.44551 0.96414 0.81544 0.0
H832 H 0.48276 0.97726 0.84447 0.0
H833 H 0.47373 0.00462 0.80457 0.0
H834 H 0.45874 0.0106 0.78761 0.0
H835 H 0.44228 0.97265 0.75705 0.0
H836 H 0.45755 0.96686 0.77398 0.0
H837 H 0.49732 0.96389 0.77593 0.0
H838 H 0.51838 0.968 0.76002 0.0
H839 H 0.54447 0.00329 0.79419 0.0
H840 H 0.52351 0.99942 0.80952 0.0
H841 H 0.4875 0.98218 0.77885 0.0
H842 H 0.50304 0.95883 0.82027 0.0
H843 H 0.52138 0.95832 0.83829 0.0
H844 H 0.52862 0.9947 0.867 0.0
H845 H 0.51044 0.99522 0.84898 0.0
C846 C 0.46304 0.98111 0.82975 0.0
C847 C 0.46688 0.99122 0.84305 0.0
C848 C 0.45656 0.99229 0.85205 0.0
C849 C 0.44217 0.9832 0.84803 0.0
C850 C 0.43834 0.97307 0.83469 0.0
C851 C 0.44869 0.97205 0.82561 0.0
C852 C 0.47412 0.98016 0.82019 0.0
C853 C 0.48378 0.97829 0.83012 0.0
C854 C 0.47542 0.98149 0.80148 0.0
C855 C 0.46659 0.9852 0.79069 0.0
C856 C 0.46685 0.99757 0.79425 0.0
C857 C 0.45824 0.00094 0.78457 0.0
C858 C 0.44919 0.99204 0.77107 0.0
C859 C 0.44919 0.97979 0.76726 0.0
C860 C 0.45786 0.97643 0.77695 0.0
C861 C 0.50887 0.98125 0.79403 0.0
C862 C 0.50761 0.97247 0.77998 0.0
C863 C 0.51963 0.97477 0.77099 0.0
C864 C 0.53307 0.986 0.77581 0.0
C865 C 0.53426 0.99466 0.79001 0.0
C866 C 0.52229 0.99237 0.79893 0.0
C867 C 0.49621 0.97934 0.80315 0.0
C868 C 0.48623 0.98069 0.79313 0.0
C869 C 0.4949 0.97801 0.82188 0.0
C870 C 0.50542 0.9771 0.83324 0.0
C871 C 0.50856 0.96665 0.83049 0.0
C872 C 0.51897 0.96633 0.84082 0.0
C873 C 0.52648 0.97653 0.85394 0.0
C874 C 0.52313 0.98681 0.85684 0.0
C875 C 0.51267 0.98705 0.84665 0.0
H876 H 0.02784 0.53287 0.83302 0.0
H877 H 0.03 0.55171 0.85132 0.0
H878 H 0.98902 0.54253 0.83257 0.0
H879 H 0.98658 0.52311 0.81511 0.0
H880 H 0.00997 0.50621 0.83567 0.0
H881 H 0.02109 0.54003 0.78855 0.0
H882 H 0.01764 0.55668 0.77154 0.0
H883 H 0.97496 0.52397 0.75867 0.0
H884 H 0.97843 0.50741 0.77584 0.0
H885 H 0.98056 0.47231 0.7738 0.0
H886 H 0.97813 0.45224 0.75788 0.0
H887 H 0.01958 0.46295 0.77651 0.0
H888 H 0.02207 0.48315 0.79218 0.0
H889 H 0.99783 0.49926 0.77136 0.0
H890 H 0.98813 0.46469 0.8151 0.0
H891 H 0.99087 0.44829 0.83327 0.0
H892 H 0.02976 0.48244 0.85532 0.0
H893 H 0.02763 0.49853 0.83579 0.0
C894 C 0.00711 0.52662 0.82253 0.0
C895 C 0.01932 0.53492 0.83283 0.0
C896 C 0.0206 0.54581 0.84317 0.0
C897 C 0.00972 0.54874 0.8434 0.0
C898 C 0.99756 0.54051 0.83288 0.0
C899 C 0.99622 0.5295 0.82267 0.0
C900 C 0.00559 0.51457 0.81239 0.0
C901 C 0.00759 0.50481 0.82152 0.0
C902 C 0.00192 0.51246 0.7941 0.0
C903 C -2e-05 0.52252 0.78355 0.0
C904 C 0.01099 0.53647 0.78209 0.0
C905 C 0.00903 0.54594 0.77228 0.0
C906 C 0.99602 0.54162 0.76381 0.0
C907 C 0.98505 0.52762 0.76521 0.0
C908 C 0.98704 0.51814 0.7749 0.0
C909 C 0.00142 0.47915 0.78439 0.0
C910 C 0.98918 0.47042 0.77433 0.0
C911 C 0.98781 0.45896 0.76523 0.0
C912 C 0.99863 0.45598 0.76604 0.0
C913 C 0.01098 0.46486 0.77586 0.0
C914 C 0.01241 0.47641 0.78481 0.0
C915 C 0.00258 0.49102 0.79455 0.0
C916 C 0.00038 0.50069 0.78546 0.0
C917 C 0.00609 0.49303 0.81294 0.0
C918 C 0.00778 0.48287 0.82381 0.0
C919 C 0.99745 0.4686 0.82348 0.0
C920 C 0.99892 0.45923 0.83417 0.0
C921 C 0.01052 0.46395 0.84594 0.0
C922 C 0.02082 0.47827 0.84624 0.0
C923 C 0.01952 0.48758 0.83522 0.0
H924 H 0.44283 0.51645 0.84211 0.0
H925 H 0.42603 0.49749 0.86127 0.0
H926 H 0.44707 0.475 0.85061 0.0
H927 H 0.46353 0.49382 0.83114 0.0
H928 H 0.47303 0.53194 0.84682 0.0
H929 H 0.4378 0.50002 0.80305 0.0
H930 H 0.42407 0.47739 0.78812 0.0
H931 H 0.46286 0.48055 0.77169 0.0
H932 H 0.47641 0.50261 0.78736 0.0
H933 H 0.50675 0.53673 0.78797 0.0
H934 H 0.5271 0.55404 0.77129 0.0
H935 H 0.51633 0.58493 0.78337 0.0
H936 H 0.49609 0.56751 0.80057 0.0
H937 H 0.47929 0.52646 0.78275 0.0
H938 H 0.51255 0.54761 0.82865 0.0
H939 H 0.53102 0.56564 0.84731 0.0
H940 H 0.50293 0.57985 0.86164 0.0
H941 H 0.48424 0.56133 0.84316 0.0
C942 C 0.45431 0.50646 0.8351 0.0
C943 C 0.44371 0.50736 0.84382 0.0
C944 C 0.43418 0.49655 0.85483 0.0
C945 C 0.4352 0.4847 0.85752 0.0
C946 C 0.4458 0.48382 0.84862 0.0
C947 C 0.45526 0.4946 0.83753 0.0
C948 C 0.46482 0.51819 0.82414 0.0
C949 C 0.47414 0.53089 0.83268 0.0
C950 C 0.46676 0.5165 0.80594 0.0
C951 C 0.45816 0.50298 0.79649 0.0
C952 C 0.44332 0.49574 0.79638 0.0
C953 C 0.43548 0.48288 0.78768 0.0
C954 C 0.44235 0.47708 0.7788 0.0
C955 C 0.4572 0.48452 0.77869 0.0
C956 C 0.46498 0.49726 0.78748 0.0
C957 C 0.49988 0.55082 0.79542 0.0
C958 C 0.50873 0.54722 0.78697 0.0
C959 C 0.52034 0.55713 0.77735 0.0
C960 C 0.52327 0.57085 0.77577 0.0
C961 C 0.51444 0.57449 0.78441 0.0
C962 C 0.50284 0.56454 0.79418 0.0
C963 C 0.48754 0.54008 0.80547 0.0
C964 C 0.47786 0.52765 0.79676 0.0
C965 C 0.48579 0.54165 0.82373 0.0
C966 C 0.4971 0.55327 0.83433 0.0
C967 C 0.51043 0.55474 0.8356 0.0
C968 C 0.52102 0.56513 0.84625 0.0
C969 C 0.51856 0.57434 0.85589 0.0
C970 C 0.50517 0.57289 0.85452 0.0
C971 C 0.49451 0.56237 0.84391 0.0
H972 H 0.62411 0.83671 0.53493 0.0
H973 H 0.62643 0.85459 0.51389 0.0
H974 H 0.67068 0.8802 0.52756 0.0
H975 H 0.66832 0.86246 0.5486 0.0
H976 H 0.63966 0.82339 0.53201 0.0
H977 H 0.63235 0.85033 0.57433 0.0
H978 H 0.63749 0.87173 0.58938 0.0
H979 H 0.6771 0.87767 0.60863 0.0
H980 H 0.67201 0.85636 0.59337 0.0
H981 H 0.67132 0.82276 0.59301 0.0
H982 H 0.67598 0.80652 0.60885 0.0
H983 H 0.63538 0.77219 0.59169 0.0
H984 H 0.63052 0.78851 0.57631 0.0
H985 H 0.65325 0.83036 0.59593 0.0
H986 H 0.66447 0.80907 0.54787 0.0
H987 H 0.66282 0.79113 0.52799 0.0
H988 H 0.61854 0.776 0.51888 0.0
H989 H 0.6205 0.79433 0.53823 0.0
C990 C 0.64603 0.84833 0.54338 0.0
C991 C 0.63424 0.84629 0.53357 0.0
C992 C 0.63555 0.85649 0.52165 0.0
C993 C 0.64874 0.8687 0.5191 0.0
C994 C 0.66043 0.87083 0.52924 0.0
C995 C 0.65907 0.86076 0.54132 0.0
C996 C 0.64517 0.83705 0.55458 0.0
C997 C 0.64228 0.82475 0.54611 0.0
C998 C 0.64901 0.83907 0.57282 0.0
C999 C 0.65186 0.85179 0.58253 0.0
C1000 C 0.6422 0.85629 0.58168 0.0
C1001 C 0.64514 0.86852 0.5903 0.0
C1002 C 0.65773 0.87642 0.60014 0.0
C1003 C 0.66725 0.87174 0.6013 0.0
C1004 C 0.66435 0.85956 0.59257 0.0
C1005 C 0.65064 0.80687 0.58325 0.0
C1006 C 0.66333 0.81176 0.59281 0.0
C1007 C 0.66599 0.80248 0.60185 0.0
C1008 C 0.65607 0.7881 0.6014 0.0
C1009 C 0.64329 0.78321 0.59205 0.0
C1010 C 0.64054 0.79253 0.58321 0.0
C1011 C 0.64814 0.81683 0.57322 0.0
C1012 C 0.65037 0.82887 0.58192 0.0
C1013 C 0.64397 0.81474 0.55507 0.0
C1014 C 0.6426 0.80299 0.54452 0.0
C1015 C 0.65438 0.80176 0.54173 0.0
C1016 C 0.65339 0.79144 0.53041 0.0
C1017 C 0.64056 0.78212 0.52169 0.0
C1018 C 0.62867 0.78315 0.52503 0.0
C1019 C 0.62972 0.79355 0.5362 0.0
H1020 H 0.18384 0.77705 0.53186 0.0
H1021 H 0.16484 0.75958 0.51278 0.0
H1022 H 0.13853 0.77577 0.52774 0.0
H1023 H 0.15728 0.79261 0.54728 0.0
H1024 H 0.19589 0.80714 0.52884 0.0
H1025 H 0.17033 0.76958 0.57061 0.0
H1026 H 0.14896 0.75213 0.58608 0.0
H1027 H 0.14492 0.78497 0.60909 0.0
H1028 H 0.16582 0.8023 0.59317 0.0
H1029 H 0.19588 0.8367 0.58865 0.0
H1030 H 0.21079 0.85817 0.60508 0.0
H1031 H 0.24755 0.85611 0.59209 0.0
H1032 H 0.23245 0.83476 0.57495 0.0
H1033 H 0.19154 0.81083 0.59389 0.0
H1034 H 0.20764 0.84536 0.54899 0.0
H1035 H 0.22226 0.86391 0.52811 0.0
H1036 H 0.23999 0.84 0.50941 0.0
H1037 H 0.22518 0.82138 0.53029 0.0
C1038 C 0.17188 0.78598 0.54109 0.0
C1039 C 0.17389 0.77666 0.53113 0.0
C1040 C 0.16304 0.76675 0.52014 0.0
C1041 C 0.15007 0.76619 0.51867 0.0
C1042 C 0.14818 0.7756 0.52878 0.0
C1043 C 0.15893 0.78533 0.53991 0.0
C1044 C 0.1835 0.79699 0.55202 0.0
C1045 C 0.19519 0.80777 0.54317 0.0
C1046 C 0.18216 0.79802 0.57057 0.0
C1047 C 0.16967 0.78729 0.58056 0.0
C1048 C 0.16479 0.77303 0.57886 0.0
C1049 C 0.15264 0.76307 0.58776 0.0
C1050 C 0.14537 0.76724 0.59883 0.0
C1051 C 0.15045 0.78149 0.60084 0.0
C1052 C 0.16241 0.7914 0.59174 0.0
C1053 C 0.21306 0.83412 0.58065 0.0
C1054 C 0.20715 0.84085 0.5894 0.0
C1055 C 0.21571 0.8531 0.59891 0.0
C1056 C 0.23039 0.85883 0.60015 0.0
C1057 C 0.23631 0.85207 0.59131 0.0
C1058 C 0.22771 0.83984 0.58158 0.0
C1059 C 0.20369 0.82113 0.57062 0.0
C1060 C 0.19249 0.80997 0.57966 0.0
C1061 C 0.20508 0.82003 0.55213 0.0
C1062 C 0.21542 0.83204 0.54132 0.0
C1063 C 0.21496 0.84428 0.54075 0.0
C1064 C 0.22333 0.85489 0.52878 0.0
C1065 C 0.23225 0.85342 0.51702 0.0
C1066 C 0.23309 0.84137 0.51812 0.0
C1067 C 0.2247 0.83076 0.5301 0.0
H1068 H 0.16289 0.34495 0.52537 0.0
H1069 H 0.14391 0.34374 0.50732 0.0
H1070 H 0.15271 0.3829 0.52944 0.0
H1071 H 0.17198 0.38414 0.54751 0.0
H1072 H 0.19082 0.36373 0.52589 0.0
H1073 H 0.15174 0.34596 0.56537 0.0
H1074 H 0.13261 0.34608 0.58086 0.0
H1075 H 0.16299 0.38389 0.60827 0.0
H1076 H 0.1822 0.38378 0.59249 0.0
H1077 H 0.21883 0.37639 0.59577 0.0
H1078 H 0.23308 0.36946 0.6131 0.0
H1079 H 0.21493 0.33127 0.58273 0.0
H1080 H 0.20054 0.33805 0.56593 0.0
H1081 H 0.1896 0.36331 0.59188 0.0
H1082 H 0.2293 0.37827 0.55222 0.0
H1083 H 0.24655 0.37625 0.53439 0.0
H1084 H 0.21246 0.34043 0.50742 0.0
H1085 H 0.19533 0.34246 0.52525 0.0
C1086 C 0.16883 0.36461 0.53781 0.0
C1087 C 0.16081 0.35333 0.52629 0.0
C1088 C 0.14988 0.35259 0.51611 0.0
C1089 C 0.14674 0.36316 0.51712 0.0
C1090 C 0.15492 0.37462 0.52841 0.0
C1091 C 0.16587 0.37531 0.53876 0.0
C1092 C 0.18007 0.3648 0.54892 0.0
C1093 C 0.19058 0.36368 0.54033 0.0
C1094 C 0.1799 0.365 0.56775 0.0
C1095 C 0.16837 0.36502 0.57751 0.0
C1096 C 0.15429 0.35438 0.57453 0.0
C1097 C 0.14336 0.35448 0.58338 0.0
C1098 C 0.14629 0.3651 0.59561 0.0
C1099 C 0.16043 0.37558 0.59892 0.0
C1100 C 0.17138 0.37553 0.58992 0.0
C1101 C 0.20878 0.35783 0.5794 0.0
C1102 C 0.21793 0.36652 0.59293 0.0
C1103 C 0.2261 0.36258 0.60273 0.0
C1104 C 0.22514 0.34981 0.59929 0.0
C1105 C 0.21582 0.34109 0.58587 0.0
C1106 C 0.2077 0.34503 0.5761 0.0
C1107 C 0.20011 0.36185 0.56879 0.0
C1108 C 0.19011 0.36379 0.57747 0.0
C1109 C 0.20054 0.36213 0.54999 0.0
C1110 C 0.21105 0.36053 0.54001 0.0
C1111 C 0.22558 0.36991 0.54259 0.0
C1112 C 0.2354 0.36878 0.53237 0.0
C1113 C 0.23083 0.35817 0.51955 0.0
C1114 C 0.21629 0.34861 0.51734 0.0
C1115 C 0.20649 0.34983 0.5274 0.0
C1116 C 0.99258 0.37635 0.07565 0.0
C1117 C 0.98089 0.37197 0.0642 0.0
C1118 C 0.99383 0.38357 0.0914 0.0
C1119 C 0.97338 0.39294 0.12156 0.0
H1120 H 0.01018 0.42518 0.13269 0.0
C1121 C 0.98123 0.4403 0.16064 0.0
C1122 C 0.99136 0.44564 0.1745 0.0
C1123 C 0.97999 0.42987 0.14937 0.0
C1124 C -0.00012 0.41609 0.12989 0.0
H1125 H 0.96118 0.37147 0.06061 0.0
H1126 H 0.96352 0.38424 0.08753 0.0
H1127 H 0.00788 0.40924 0.1091 0.0
H1128 H 0.00802 0.4439 0.18733 0.0
H1129 H 0.00616 0.42604 0.16708 0.0
H1130 H 0.96532 0.40028 0.14174 0.0
C1131 C 0.97161 0.38189 0.0847 0.0
C1132 C 0.99855 0.40691 0.11642 0.0
C1133 C 0.97032 0.37462 0.06911 0.0
C1134 C 0.00025 0.44025 0.17668 0.0
C1135 C 0.99915 0.42996 0.16517 0.0
C1136 C 0.97469 0.40221 0.13482 0.0
C1137 C 0.98345 0.38662 0.09598 0.0
C1138 C 0.98521 0.39538 0.11179 0.0
C1139 C 0.98898 0.42466 0.15145 0.0
C1140 C 0.9879 0.41403 0.13886 0.0
H1141 H 0.00089 0.37443 0.07231 0.0
H1142 H 0.003 0.38688 0.09987 0.0
H1143 H 0.963 0.38399 0.11872 0.0
H1144 H 0.97443 0.44437 0.15816 0.0
H1145 H 0.97221 0.42613 0.1387 0.0
C1146 C 0.63212 0.61359 0.06389 0.0
C1147 C 0.63359 0.60772 0.04819 0.0
C1148 C 0.62649 0.60544 0.07918 0.0
C1149 C 0.61879 0.57207 0.09959 0.0
H1150 H 0.59076 0.57507 0.12624 0.0
C1151 C 0.57922 0.52876 0.14598 0.0
C1152 C 0.57605 0.53259 0.16227 0.0
C1153 C 0.58765 0.53887 0.1335 0.0
C1154 C 0.59873 0.57425 0.1191 0.0
H1155 H 0.63038 0.5887 0.03633 0.0
H1156 H 0.62043 0.57455 0.06275 0.0
H1157 H 0.60302 0.59117 0.10182 0.0
H1158 H 0.57962 0.55015 0.17833 0.0
H1159 H 0.59419 0.5678 0.15636 0.0
H1160 H 0.61421 0.55491 0.11656 0.0
C1161 C 0.62383 0.58548 0.06342 0.0
C1162 C 0.60576 0.58349 0.10512 0.0
C1163 C 0.62945 0.59359 0.04819 0.0
C1164 C 0.58166 0.54681 0.16582 0.0
C1165 C 0.59003 0.55693 0.15326 0.0
C1166 C 0.61172 0.56282 0.1135 0.0
C1167 C 0.62223 0.59127 0.07909 0.0
C1168 C 0.6157 0.58234 0.09499 0.0
C1169 C 0.59306 0.55305 0.13694 0.0
C1170 C 0.60144 0.56365 0.12321 0.0
H1171 H 0.63524 0.62445 0.06436 0.0
H1172 H 0.62551 0.61025 0.09109 0.0
H1173 H 0.62659 0.57108 0.09231 0.0
H1174 H 0.57487 0.51791 0.14262 0.0
H1175 H 0.58959 0.53553 0.12092 0.0
C1176 C 0.38573 0.01054 0.06606 0.0
C1177 C 0.37788 0.99665 0.06005 0.0
C1178 C 0.39625 0.01452 0.0792 0.0
C1179 C 0.41976 0.00364 0.09804 0.0
H1180 H 0.42264 0.02525 0.13967 0.0
C1181 C 0.45136 0.00522 0.15947 0.0
C1182 C 0.45994 0.01802 0.16821 0.0
C1183 C 0.4418 0.00385 0.14624 0.0
C1184 C 0.42209 0.01937 0.12799 0.0
H1185 H 0.37476 0.97604 0.06351 0.0
H1186 H 0.39292 0.98297 0.08616 0.0
H1187 H 0.40519 0.02091 0.11631 0.0
H1188 H 0.46492 0.03936 0.17012 0.0
H1189 H 0.44827 0.03699 0.14672 0.0
H1190 H 0.43648 0.00195 0.10959 0.0
C1191 C 0.39111 0.99082 0.08063 0.0
C1192 C 0.41211 0.0169 0.11464 0.0
C1193 C 0.38062 0.98685 0.06767 0.0
C1194 C 0.45855 0.02938 0.16354 0.0
C1195 C 0.44893 0.028 0.15025 0.0
C1196 C 0.4297 0.00612 0.11129 0.0
C1197 C 0.39917 0.00471 0.0864 0.0
C1198 C 0.41064 0.00872 0.09973 0.0
C1199 C 0.44059 0.01525 0.1413 0.0
C1200 C 0.43077 0.01373 0.12663 0.0
H1201 H 0.38385 0.01834 0.0605 0.0
H1202 H 0.40231 0.02531 0.08342 0.0
H1203 H 0.41909 0.99756 0.08651 0.0
H1204 H 0.45226 0.9963 0.16254 0.0
H1205 H 0.43537 0.99382 0.13982 0.0
C1206 C 0.36127 0.97124 0.96092 0.0
C1207 C 0.36277 0.98321 0.96895 0.0
C1208 C 0.36802 0.9722 0.94495 0.0
C1209 C 0.39938 0.99673 0.92033 0.0
H1210 H 0.38298 0.96842 0.88349 0.0
C1211 C 0.43289 0.99693 0.86229 0.0
C1212 C 0.43125 0.98398 0.85825 0.0
C1213 C 0.42321 0.99772 0.87319 0.0
C1214 C 0.38773 0.97638 0.89369 0.0
H1215 H 0.37206 0.00551 0.96609 0.0
H1216 H 0.38394 0.00718 0.93816 0.0
H1217 H 0.36812 0.96823 0.90734 0.0
H1218 H 0.41801 0.96168 0.86212 0.0
H1219 H 0.40123 0.96303 0.88131 0.0
H1220 H 0.41909 0.00457 0.90721 0.0
C1221 C 0.37758 0.99707 0.94434 0.0
C1222 C 0.37921 0.97629 0.90731 0.0
C1223 C 0.37073 0.9961 0.96028 0.0
C1224 C 0.41947 0.9718 0.86484 0.0
C1225 C 0.40983 0.97259 0.87581 0.0
C1226 C 0.40792 0.99678 0.90677 0.0
C1227 C 0.37649 0.98516 0.93668 0.0
C1228 C 0.38501 0.98629 0.92097 0.0
C1229 C 0.4117 0.98557 0.88036 0.0
C1230 C 0.40226 0.98643 0.8935 0.0
H1231 H 0.35517 0.96113 0.9672 0.0
H1232 H 0.36709 0.96285 0.93949 0.0
H1233 H 0.4042 0.00447 0.93079 0.0
H1234 H 0.44175 0.00648 0.85716 0.0
H1235 H 0.42483 0.00787 0.87617 0.0
C1236 C 0.99677 0.39667 0.97323 0.0
C1237 C 0.99963 0.38592 0.97463 0.0
C1238 C 0.0016 0.40569 0.95872 0.0
C1239 C 0.006 0.40581 0.91251 0.0
H1240 H 0.02683 0.44614 0.91603 0.0
C1241 C 0.99926 0.4427 0.86561 0.0
C1242 C 0.01154 0.45414 0.85846 0.0
C1243 C 0.00018 0.43402 0.87817 0.0
C1244 C 0.02118 0.4349 0.91482 0.0
H1245 H 0.00994 0.37626 0.96223 0.0
H1246 H 0.01793 0.39181 0.93619 0.0
H1247 H 0.02496 0.43215 0.94217 0.0
H1248 H 0.03448 0.46491 0.85862 0.0
H1249 H 0.03598 0.45015 0.88136 0.0
H1250 H 0.00132 0.40852 0.88554 0.0
C1251 C 0.01223 0.39337 0.94662 0.0
C1252 C 0.02011 0.42693 0.92972 0.0
C1253 C 0.00772 0.38455 0.96147 0.0
C1254 C 0.02478 0.45645 0.86406 0.0
C1255 C 0.02568 0.44793 0.87695 0.0
C1256 C 0.0068 0.41376 0.89772 0.0
C1257 C 0.00907 0.40392 0.9451 0.0
C1258 C 0.0123 0.41233 0.92875 0.0
C1259 C 0.01339 0.43671 0.88417 0.0
C1260 C 0.01418 0.42836 0.89887 0.0
H1261 H 0.99056 0.39793 0.98323 0.0
H1262 H 0.99894 0.41368 0.95772 0.0
H1263 H -0.00021 0.39455 0.91156 0.0
H1264 H 0.98887 0.44068 0.86204 0.0
H1265 H 0.99055 0.42552 0.88377 0.0
C1266 C 0.60934 0.63249 0.97154 0.0
C1267 C 0.61978 0.6298 0.9661 0.0
C1268 C 0.59838 0.63013 0.95984 0.0
C1269 C 0.58778 0.62634 0.9129 0.0
H1270 H 0.55062 0.59734 0.92822 0.0
C1271 C 0.54408 0.59148 0.86312 0.0
C1272 C 0.52979 0.58494 0.86788 0.0
C1273 C 0.55476 0.60001 0.8752 0.0
C1274 C 0.5608 0.60571 0.92378 0.0
H1275 H 0.62743 0.62335 0.94397 0.0
H1276 H 0.60859 0.61968 0.92344 0.0
H1277 H 0.57024 0.60738 0.94941 0.0
H1278 H 0.51559 0.58301 0.88885 0.0
H1279 H 0.53421 0.59842 0.90961 0.0
H1280 H 0.57849 0.62473 0.88728 0.0
C1281 C 0.60877 0.62342 0.93676 0.0
C1282 C 0.57205 0.61143 0.93596 0.0
C1283 C 0.61948 0.62544 0.94853 0.0
C1284 C 0.52646 0.58788 0.88467 0.0
C1285 C 0.53718 0.59658 0.8967 0.0
C1286 C 0.57648 0.62083 0.90079 0.0
C1287 C 0.59795 0.62545 0.94241 0.0
C1288 C 0.58572 0.62144 0.93047 0.0
C1289 C 0.55149 0.60245 0.89232 0.0
C1290 C 0.56293 0.61006 0.90587 0.0
H1291 H 0.6093 0.63581 0.98504 0.0
H1292 H 0.59012 0.63173 0.96448 0.0
H1293 H 0.59822 0.63416 0.90842 0.0
H1294 H 0.54706 0.58973 0.85016 0.0
H1295 H 0.5656 0.60416 0.87129 0.0
C1296 C 0.00769 0.62451 0.95824 0.0
C1297 C 0.02091 0.63404 0.96584 0.0
C1298 C 0.0067 0.61663 0.94334 0.0
C1299 C 0.02738 0.60432 0.91952 0.0
H1300 H 0.99736 0.5919 0.88429 0.0
C1301 C 0.02404 0.57232 0.85794 0.0
C1302 C 0.0109 0.55999 0.8551 0.0
C1303 C 0.02539 0.58237 0.87002 0.0
C1304 C 0.00577 0.59529 0.89407 0.0
H1305 H 0.04352 0.64331 0.96318 0.0
H1306 H 0.04186 0.63001 0.93684 0.0
H1307 H -0.00026 0.60803 0.90769 0.0
H1308 H 0.98881 0.54882 0.86256 0.0
H1309 H 0.99114 0.56655 0.88327 0.0
H1310 H 0.03347 0.59167 0.90575 0.0
C1311 C 0.03218 0.62822 0.94271 0.0
C1312 C 0.00712 0.60448 0.90754 0.0
C1313 C 0.03315 0.63594 0.95776 0.0
C1314 C 0.99905 0.55824 0.86417 0.0
C1315 C 0.00038 0.56838 0.8761 0.0
C1316 C 0.02614 0.5953 0.90595 0.0
C1317 C 0.01893 0.61821 0.93553 0.0
C1318 C 0.01787 0.60903 0.92056 0.0
C1319 C 0.01361 0.58043 0.87938 0.0
C1320 C 0.01526 0.59058 0.89318 0.0
H1321 H 0.99805 0.62275 0.96421 0.0
H1322 H 0.9963 0.60893 0.93838 0.0
H1323 H 0.0356 0.6073 0.92948 0.0
H1324 H 0.03334 0.57419 0.85092 0.0
H1325 H 0.03568 0.59165 0.87211 0.0
C1326 C 0.37144 0.41118 0.98282 0.0
C1327 C 0.36785 0.39721 0.98292 0.0
C1328 C 0.37721 0.41942 0.96772 0.0
C1329 C 0.39654 0.42237 0.92682 0.0
H1330 H 0.38662 0.44975 0.91445 0.0
C1331 C 0.42061 0.45948 0.86651 0.0
C1332 C 0.42566 0.47359 0.87014 0.0
C1333 C 0.41225 0.44916 0.87886 0.0
C1334 C 0.38953 0.44218 0.91777 0.0
H1335 H 0.36741 0.3809 0.96708 0.0
H1336 H 0.3774 0.39531 0.94056 0.0
H1337 H 0.37424 0.43332 0.93846 0.0
H1338 H 0.42583 0.48785 0.88966 0.0
H1339 H 0.4111 0.46986 0.91097 0.0
H1340 H 0.41194 0.43138 0.90618 0.0
C1341 C 0.37587 0.39991 0.9523 0.0
C1342 C 0.38246 0.43278 0.93154 0.0
C1343 C 0.37009 0.39164 0.96747 0.0
C1344 C 0.42192 0.47709 0.88625 0.0
C1345 C 0.4135 0.46677 0.8985 0.0
C1346 C 0.40357 0.43175 0.91296 0.0
C1347 C 0.37952 0.41391 0.95228 0.0
C1348 C 0.38608 0.42295 0.93649 0.0
C1349 C 0.40866 0.45271 0.89501 0.0
C1350 C 0.40032 0.44193 0.90854 0.0
H1351 H 0.36992 0.41585 0.99449 0.0
H1352 H 0.38014 0.43022 0.96831 0.0
H1353 H 0.39969 0.41503 0.93039 0.0
H1354 H 0.42311 0.45639 0.85412 0.0
H1355 H 0.40855 0.43839 0.87573 0.0
C1356 C 0.61374 0.98624 0.96406 0.0
C1357 C 0.62351 0.00065 0.96532 0.0
C1358 C 0.60368 0.98088 0.9502 0.0
C1359 C 0.59569 0.98987 0.9058 0.0
H1360 H 0.5564 0.96644 0.91901 0.0
C1361 C 0.55092 0.98933 0.86681 0.0
C1362 C 0.53801 0.97675 0.86441 0.0
C1363 C 0.56162 0.98985 0.87733 0.0
C1364 C 0.56733 0.97275 0.91501 0.0
H1365 H 0.63073 0.02062 0.95268 0.0
H1366 H 0.6134 0.01133 0.92875 0.0
H1367 H 0.57499 0.97147 0.94084 0.0
H1368 H 0.52624 0.95476 0.8709 0.0
H1369 H 0.54503 0.95569 0.88952 0.0
H1370 H 0.58808 0.99163 0.88024 0.0
C1371 C 0.61345 0.00413 0.93832 0.0
C1372 C 0.57797 0.97561 0.92751 0.0
C1373 C 0.62333 0.00947 0.95217 0.0
C1374 C 0.53612 0.9646 0.87249 0.0
C1375 C 0.54682 0.96515 0.88321 0.0
C1376 C 0.58509 0.98703 0.89336 0.0
C1377 C 0.6034 0.98981 0.93725 0.0
C1378 C 0.59226 0.98461 0.92321 0.0
C1379 C 0.55966 0.97781 0.88581 0.0
C1380 C 0.57079 0.97883 0.898 0.0
H1381 H 0.61361 0.97918 0.974 0.0
H1382 H 0.59608 0.96978 0.94968 0.0
H1383 H 0.60662 0.99662 0.90199 0.0
H1384 H 0.55272 0.99883 0.8606 0.0
H1385 H 0.5713 0.99981 0.87925 0.0
C1386 C 0.63854 0.03409 0.06298 0.0
C1387 C 0.6354 0.02131 0.05564 0.0
C1388 C 0.63158 0.03445 0.07814 0.0
C1389 C 0.60756 0.01256 0.1147 0.0
H1390 H 0.5976 0.04087 0.11397 0.0
C1391 C 0.57664 0.01897 0.17193 0.0
C1392 C 0.56675 0.02265 0.16705 0.0
C1393 C 0.58582 0.01899 0.15928 0.0
C1394 C 0.60015 0.0328 0.11434 0.0
H1395 H 0.62284 0.99889 0.05872 0.0
H1396 H 0.61024 0.99947 0.08479 0.0
H1397 H 0.61204 0.04029 0.0905 0.0
H1398 H 0.55832 0.02872 0.14506 0.0
H1399 H 0.57397 0.0284 0.12295 0.0
H1400 H 0.59495 0.00464 0.1381 0.0
C1401 C 0.61834 0.00925 0.07914 0.0
C1402 C 0.60869 0.03262 0.101 0.0
C1403 C 0.62551 0.0089 0.06413 0.0
C1404 C 0.56604 0.02611 0.14926 0.0
C1405 C 0.57506 0.02597 0.13661 0.0
C1406 C 0.59885 0.01265 0.12798 0.0
C1407 C 0.62108 0.02204 0.08612 0.0
C1408 C 0.61248 0.02247 0.10092 0.0
C1409 C 0.58517 0.02254 0.14145 0.0
C1410 C 0.59493 0.0227 0.12786 0.0
H1411 H 0.64627 0.04384 0.05687 0.0
H1412 H 0.6343 0.0445 0.0834 0.0
H1413 H 0.61039 0.0047 0.11523 0.0
H1414 H 0.57743 0.01631 0.18559 0.0
H1415 H 0.59356 0.01644 0.16355 0.0
C1416 C 0.01697 0.62869 0.07185 0.0
C1417 C 0.00761 0.62612 0.0576 0.0
C1418 C 0.01278 0.61955 0.08626 0.0
C1419 C 0.99133 0.58349 0.09714 0.0
H1420 H 0.99585 0.59576 0.14621 0.0
C1421 C 0.98145 0.54549 0.15461 0.0
C1422 C 0.99071 0.5508 0.16935 0.0
C1423 C 0.9812 0.55444 0.14185 0.0
C1424 C 0.99468 0.59216 0.1326 0.0
H1425 H 0.9865 0.61206 0.04728 0.0
H1426 H 0.97933 0.59573 0.07232 0.0
H1427 H -1e-05 0.61209 0.12218 0.0
H1428 H 0.00648 0.56988 0.18254 0.0
H1429 H 0.00674 0.58534 0.15986 0.0
H1430 H 0.98696 0.5639 0.10723 0.0
C1431 C 0.98981 0.60497 0.07237 0.0
C1432 C 0.99693 0.6015 0.11888 0.0
C1433 C 0.9939 0.61431 0.05813 0.0
C1434 C 0.99942 0.56533 0.17121 0.0
C1435 C 0.99937 0.57427 0.15829 0.0
C1436 C 0.98937 0.57422 0.11083 0.0
C1437 C 0.99925 0.60751 0.08651 0.0
C1438 C 0.99543 0.59729 0.10104 0.0
C1439 C 0.99039 0.56896 0.14328 0.0
C1440 C 0.99121 0.57847 0.12878 0.0
H1441 H 0.02758 0.63774 0.07184 0.0
H1442 H 0.02027 0.62165 0.09695 0.0
H1443 H 0.99027 0.58006 0.08345 0.0
H1444 H 0.97465 0.53438 0.15255 0.0
H1445 H 0.97391 0.54992 0.13072 0.0
C1446 C 0.37703 0.37873 0.08512 0.0
C1447 C 0.37909 0.37618 0.0675 0.0
C1448 C 0.38737 0.38192 0.0981 0.0
C1449 C 0.4218 0.3842 0.1073 0.0
H1450 H 0.42616 0.41246 0.1406 0.0
C1451 C 0.47208 0.42088 0.15009 0.0
C1452 C 0.46967 0.42302 0.16782 0.0
C1453 C 0.46071 0.4127 0.13855 0.0
C1454 C 0.42498 0.40444 0.13153 0.0
H1455 H 0.39326 0.37442 0.04966 0.0
H1456 H 0.41176 0.38073 0.07214 0.0
H1457 H 0.40694 0.40299 0.11909 0.0
H1458 H 0.4535 0.4172 0.1877 0.0
H1459 H 0.43373 0.40326 0.16746 0.0
H1460 H 0.44052 0.38641 0.11945 0.0
C1461 C 0.40199 0.37987 0.07614 0.0
C1462 C 0.41388 0.39891 0.11922 0.0
C1463 C 0.39143 0.3763 0.06321 0.0
C1464 C 0.45571 0.41607 0.17402 0.0
C1465 C 0.44439 0.40803 0.16248 0.0
C1466 C 0.43311 0.38995 0.1195 0.0
C1467 C 0.40024 0.3831 0.09366 0.0
C1468 C 0.41204 0.38864 0.10697 0.0
C1469 C 0.44677 0.4066 0.14452 0.0
C1470 C 0.43473 0.40007 0.13178 0.0
H1471 H 0.36749 0.37849 0.08881 0.0
H1472 H 0.38536 0.38382 0.11154 0.0
H1473 H 0.42069 0.37624 0.09821 0.0
H1474 H 0.48268 0.42614 0.14485 0.0
H1475 H 0.46281 0.41181 0.12473 0.0
C1476 C 0.64959 0.71014 0.4055 0.0
C1477 C 0.64065 0.70837 0.39104 0.0
C1478 C 0.64907 0.71647 0.42125 0.0
C1479 C 0.6266 0.72651 0.44559 0.0
H1480 H 0.66186 0.75356 0.4686 0.0
C1481 C 0.63156 0.76896 0.49286 0.0
C1482 C 0.63976 0.77187 0.50848 0.0
C1483 C 0.63118 0.75981 0.48007 0.0
C1484 C 0.65191 0.74589 0.46247 0.0
H1485 H 0.62408 0.71181 0.38188 0.0
H1486 H 0.62339 0.72302 0.40902 0.0
H1487 H 0.66213 0.7401 0.44339 0.0
H1488 H 0.65377 0.7671 0.52294 0.0
H1489 H 0.65335 0.75134 0.5003 0.0
H1490 H 0.61646 0.73268 0.46431 0.0
C1491 C 0.63061 0.71928 0.40843 0.0
C1492 C 0.65205 0.73815 0.44804 0.0
C1493 C 0.63108 0.71292 0.39276 0.0
C1494 C 0.64751 0.76528 0.51098 0.0
C1495 C 0.64724 0.75622 0.49805 0.0
C1496 C 0.62648 0.73433 0.45991 0.0
C1497 C 0.63963 0.7212 0.42286 0.0
C1498 C 0.63941 0.72853 0.43921 0.0
C1499 C 0.6391 0.75342 0.48244 0.0
C1500 C 0.63915 0.74426 0.46832 0.0
H1501 H 0.65706 0.70671 0.40465 0.0
H1502 H 0.65606 0.71762 0.43218 0.0
H1503 H 0.61663 0.71898 0.4394 0.0
H1504 H 0.6257 0.77404 0.49023 0.0
H1505 H 0.62499 0.75804 0.46804 0.0
C1506 C 0.27922 0.92117 0.38194 0.0
C1507 C 0.28572 0.93575 0.38241 0.0
C1508 C 0.27346 0.91325 0.39725 0.0
C1509 C 0.27512 0.91484 0.44604 0.0
H1510 H 0.23933 0.87988 0.44172 0.0
C1511 C 0.24581 0.87817 0.50588 0.0
C1512 C 0.23964 0.86381 0.50268 0.0
C1513 C 0.2517 0.88775 0.49192 0.0
C1514 C 0.2494 0.88955 0.44312 0.0
H1515 H 0.29129 0.95343 0.39948 0.0
H1516 H 0.28114 0.93948 0.42641 0.0
H1517 H 0.24876 0.89527 0.41613 0.0
H1518 H 0.23499 0.84834 0.48231 0.0
H1519 H 0.2455 0.865 0.45817 0.0
H1520 H 0.27576 0.90896 0.47307 0.0
C1521 C 0.2806 0.93425 0.41409 0.0
C1522 C 0.25478 0.89838 0.42847 0.0
C1523 C 0.28634 0.94222 0.39866 0.0
C1524 C 0.2398 0.85931 0.48531 0.0
C1525 C 0.24564 0.86886 0.47141 0.0
C1526 C 0.26971 0.90596 0.46076 0.0
C1527 C 0.27404 0.91967 0.41349 0.0
C1528 C 0.26783 0.911 0.42964 0.0
C1529 C 0.25146 0.88316 0.47448 0.0
C1530 C 0.25691 0.89309 0.45935 0.0
H1531 H 0.27858 0.91581 0.3697 0.0
H1532 H 0.2687 0.90207 0.39641 0.0
H1533 H 0.28524 0.92446 0.44731 0.0
H1534 H 0.24596 0.88198 0.51914 0.0
H1535 H 0.25609 0.8987 0.4947 0.0
C1536 C 0.04876 0.32746 0.41448 0.0
C1537 C 0.0495 0.337 0.40175 0.0
C1538 C 0.05898 0.33169 0.42785 0.0
C1539 C 0.08794 0.36195 0.45174 0.0
H1540 H 0.10066 0.33613 0.45991 0.0
C1541 C 0.13665 0.37322 0.49591 0.0
C1542 C 0.13492 0.362 0.50626 0.0
C1543 C 0.12601 0.3714 0.48397 0.0
C1544 C 0.09713 0.34339 0.45795 0.0
H1545 H 0.06125 0.35865 0.39358 0.0
H1546 H 0.07939 0.36604 0.41696 0.0
H1547 H 0.08269 0.33083 0.43742 0.0
H1548 H 0.12031 0.34046 0.51334 0.0
H1549 H 0.1018 0.33729 0.49268 0.0
H1550 H 0.10265 0.37456 0.47234 0.0
C1551 C 0.07077 0.35529 0.41658 0.0
C1552 C 0.08681 0.34035 0.44505 0.0
C1553 C 0.06042 0.35105 0.40317 0.0
C1554 C 0.12206 0.3492 0.50523 0.0
C1555 C 0.11148 0.34739 0.49339 0.0
C1556 C 0.09838 0.36503 0.4647 0.0
C1557 C 0.07033 0.34555 0.42879 0.0
C1558 C 0.08189 0.34944 0.44198 0.0
C1559 C 0.11349 0.35832 0.48224 0.0
C1560 C 0.10289 0.35564 0.46812 0.0
H1561 H 0.04036 0.31661 0.41398 0.0
H1562 H 0.05811 0.32401 0.43733 0.0
H1563 H 0.08436 0.36915 0.44968 0.0
H1564 H 0.14648 0.3832 0.49642 0.0
H1565 H 0.12785 0.38 0.47553 0.0
C1566 C 0.03424 0.30582 0.30439 0.0
C1567 C 0.0358 0.31834 0.31055 0.0
C1568 C 0.04009 0.30538 0.28824 0.0
C1569 C 0.06908 0.32758 0.25865 0.0
H1570 H 0.04986 0.29638 0.226 0.0
C1571 C 0.09726 0.32394 0.19707 0.0
C1572 C 0.09552 0.31084 0.19383 0.0
C1573 C 0.08852 0.32531 0.20906 0.0
C1574 C 0.0554 0.30513 0.23503 0.0
H1575 H 0.04444 0.34015 0.30432 0.0
H1576 H 0.05478 0.33939 0.27611 0.0
H1577 H 0.03716 0.29796 0.25132 0.0
H1578 H 0.08307 0.28887 0.20019 0.0
H1579 H 0.06798 0.29125 0.22135 0.0
H1580 H 0.08747 0.33451 0.24289 0.0
C1581 C 0.04904 0.32993 0.28387 0.0
C1582 C 0.04811 0.30605 0.2495 0.0
C1583 C 0.04308 0.33035 0.29998 0.0
C1584 C 0.08455 0.29907 0.2023 0.0
C1585 C 0.07589 0.30045 0.2144 0.0
C1586 C 0.0764 0.32662 0.24428 0.0
C1587 C 0.04772 0.31747 0.27793 0.0
C1588 C 0.05495 0.31717 0.2616 0.0
C1589 C 0.07794 0.31363 0.21818 0.0
C1590 C 0.06972 0.31527 0.23244 0.0
H1591 H 0.02866 0.29636 0.31217 0.0
H1592 H 0.03903 0.29566 0.28411 0.0
H1593 H 0.07469 0.33618 0.26789 0.0
H1594 H 0.10551 0.33316 0.19051 0.0
H1595 H 0.09021 0.33557 0.21137 0.0
C1596 C 0.66162 0.71719 0.28661 0.0
C1597 C 0.66798 0.71888 0.30341 0.0
C1598 C 0.66868 0.72686 0.27313 0.0
C1599 C 0.69207 0.76325 0.26682 0.0
H1600 H 0.69334 0.75322 0.21787 0.0
C1601 C 0.70603 0.80304 0.21036 0.0
C1602 C 0.69775 0.79793 0.19476 0.0
C1603 C 0.70584 0.7939 0.22319 0.0
C1604 C 0.69299 0.75621 0.23144 0.0
H1605 H 0.68684 0.73178 0.31924 0.0
H1606 H 0.69908 0.74915 0.29565 0.0
H1607 H 0.68671 0.73589 0.24135 0.0
H1608 H 0.68338 0.77909 0.18007 0.0
H1609 H 0.68241 0.76323 0.20272 0.0
H1610 H 0.69725 0.78319 0.25699 0.0
C1611 C 0.6887 0.74015 0.29294 0.0
C1612 C 0.68933 0.74631 0.24488 0.0
C1613 C 0.68175 0.73024 0.30636 0.0
C1614 C 0.68967 0.78344 0.19206 0.0
C1615 C 0.68932 0.7743 0.20498 0.0
C1616 C 0.69549 0.77309 0.25336 0.0
C1617 C 0.68214 0.73859 0.27628 0.0
C1618 C 0.6885 0.74965 0.26262 0.0
C1619 C 0.69722 0.77939 0.22087 0.0
C1620 C 0.69561 0.76959 0.2354 0.0
H1621 H 0.65104 0.70849 0.28397 0.0
H1622 H 0.66333 0.72549 0.26047 0.0
H1623 H 0.69134 0.76603 0.28039 0.0
H1624 H 0.71232 0.81412 0.21302 0.0
H1625 H 0.71227 0.79824 0.23508 0.0
C1626 C 0.26654 0.9634 0.304 0.0
C1627 C 0.27704 0.9607 0.29892 0.0
C1628 C 0.25606 0.96153 0.29176 0.0
C1629 C 0.24661 0.95811 0.24417 0.0
H1630 H 0.20928 0.92877 0.25846 0.0
C1631 C 0.20441 0.92227 0.19334 0.0
C1632 C 0.18999 0.91567 0.19745 0.0
C1633 C 0.21474 0.93098 0.20569 0.0
C1634 C 0.2195 0.93723 0.25428 0.0
H1635 H 0.28545 0.95492 0.27696 0.0
H1636 H 0.26749 0.95213 0.25553 0.0
H1637 H 0.22836 0.9392 0.28037 0.0
H1638 H 0.1752 0.91374 0.21759 0.0
H1639 H 0.19319 0.92944 0.23876 0.0
H1640 H 0.23791 0.95611 0.21806 0.0
C1641 C 0.26721 0.9555 0.26893 0.0
C1642 C 0.23045 0.94319 0.26689 0.0
C1643 C 0.27744 0.95701 0.28121 0.0
C1644 C 0.18618 0.91866 0.21388 0.0
C1645 C 0.19654 0.92754 0.22617 0.0
C1646 C 0.23562 0.95233 0.23161 0.0
C1647 C 0.2562 0.95734 0.2742 0.0
C1648 C 0.2442 0.95332 0.26181 0.0
C1649 C 0.21097 0.93354 0.22243 0.0
C1650 C 0.22203 0.94142 0.23633 0.0
H1651 H 0.26599 0.96618 0.31762 0.0
H1652 H 0.24764 0.96299 0.29612 0.0
H1653 H 0.25712 0.96599 0.23998 0.0
H1654 H 0.20777 0.92048 0.18068 0.0
H1655 H 0.2257 0.93523 0.20231 0.0
C1656 C 0.68114 0.95778 0.29676 0.0
C1657 C 0.69392 0.9675 0.30515 0.0
C1658 C 0.68111 0.95049 0.2817 0.0
C1659 C 0.70409 0.94065 0.25842 0.0
H1660 H 0.67544 0.92836 0.22134 0.0
C1661 C 0.70567 0.913 0.19491 0.0
C1662 C 0.69321 0.90023 0.19112 0.0
C1663 C 0.70576 0.92212 0.20755 0.0
C1664 C 0.68348 0.93173 0.23163 0.0
H1665 H 0.71671 0.97775 0.30381 0.0
H1666 H 0.71672 0.96555 0.27722 0.0
H1667 H 0.67578 0.94295 0.24558 0.0
H1668 H 0.67095 0.88728 0.19751 0.0
H1669 H 0.67108 0.90342 0.21916 0.0
H1670 H 0.71189 0.92958 0.24428 0.0
C1671 C 0.70666 0.96309 0.28258 0.0
C1672 C 0.68365 0.94002 0.24558 0.0
C1673 C 0.70667 0.97019 0.29778 0.0
C1674 C 0.68071 0.89709 0.19983 0.0
C1675 C 0.68077 0.90631 0.2123 0.0
C1676 C 0.70404 0.93255 0.24436 0.0
C1677 C 0.69388 0.95292 0.27454 0.0
C1678 C 0.69391 0.94452 0.25924 0.0
C1679 C 0.69335 0.91879 0.21652 0.0
C1680 C 0.69368 0.92793 0.2309 0.0
H1681 H 0.67113 0.95545 0.3022 0.0
H1682 H 0.67105 0.94263 0.27606 0.0
H1683 H 0.71195 0.94359 0.26886 0.0
H1684 H 0.71543 0.91594 0.18821 0.0
H1685 H 0.71557 0.93177 0.21041 0.0
C1686 C 0.03546 0.74135 0.31171 0.0
C1687 C 0.03746 0.73038 0.31635 0.0
C1688 C 0.04075 0.74856 0.29578 0.0
C1689 C 0.06957 0.76002 0.26579 0.0
H1690 H 0.04684 0.76664 0.23233 0.0
C1691 C 0.0947 0.79432 0.20406 0.0
C1692 C 0.0898 0.80307 0.19862 0.0
C1693 C 0.08744 0.78397 0.21679 0.0
C1694 C 0.0534 0.76507 0.24163 0.0
H1695 H 0.04643 0.71823 0.3079 0.0
H1696 H 0.05615 0.73124 0.28018 0.0
H1697 H 0.03563 0.75123 0.25769 0.0
H1698 H 0.07303 0.80737 0.20217 0.0
H1699 H 0.06096 0.79003 0.22514 0.0
H1700 H 0.08747 0.7744 0.25061 0.0
C1701 C 0.05029 0.73407 0.28884 0.0
C1702 C 0.04693 0.75614 0.25605 0.0
C1703 C 0.04471 0.72663 0.30463 0.0
C1704 C 0.07731 0.80104 0.20618 0.0
C1705 C 0.07021 0.79086 0.21919 0.0
C1706 C 0.07609 0.76916 0.2516 0.0
C1707 C 0.04839 0.74512 0.28434 0.0
C1708 C 0.05498 0.75362 0.26829 0.0
C1709 C 0.07523 0.78224 0.22479 0.0
C1710 C 0.06812 0.77191 0.23937 0.0
H1711 H 0.02984 0.74442 0.32045 0.0
H1712 H 0.03925 0.75712 0.29265 0.0
H1713 H 0.07602 0.75837 0.27522 0.0
H1714 H 0.10437 0.79563 0.19884 0.0
H1715 H 0.09153 0.7774 0.22043 0.0
C1716 C 0.27722 0.3172 0.29723 0.0
C1717 C 0.28686 0.33165 0.2982 0.0
C1718 C 0.26712 0.31155 0.28347 0.0
C1719 C 0.25904 0.31941 0.23859 0.0
H1720 H 0.21976 0.29563 0.25165 0.0
C1721 C 0.21393 0.31601 0.19693 0.0
C1722 C 0.20095 0.30335 0.19564 0.0
C1723 C 0.22477 0.31718 0.20779 0.0
C1724 C 0.23069 0.30202 0.24768 0.0
H1725 H 0.29372 0.35142 0.2852 0.0
H1726 H 0.27628 0.3416 0.26134 0.0
H1727 H 0.2383 0.30174 0.27393 0.0
H1728 H 0.18929 0.28184 0.20431 0.0
H1729 H 0.20837 0.28386 0.22334 0.0
H1730 H 0.25148 0.32004 0.21251 0.0
C1731 C 0.2765 0.33461 0.27112 0.0
C1732 C 0.24131 0.30552 0.26046 0.0
C1733 C 0.28643 0.34025 0.28491 0.0
C1734 C 0.19921 0.29172 0.20502 0.0
C1735 C 0.21007 0.29291 0.21601 0.0
C1736 C 0.24845 0.31588 0.22583 0.0
C1737 C 0.26665 0.32023 0.2703 0.0
C1738 C 0.25557 0.31462 0.25618 0.0
C1739 C 0.22293 0.30571 0.21766 0.0
C1740 C 0.23414 0.30752 0.23037 0.0
H1741 H 0.27728 0.3103 0.30728 0.0
H1742 H 0.25967 0.30041 0.28313 0.0
H1743 H 0.26996 0.32623 0.23482 0.0
H1744 H 0.21564 0.32511 0.1897 0.0
H1745 H 0.23445 0.32724 0.2089 0.0
C1746 C 0.2944 0.34119 0.39956 0.0
C1747 C 0.301 0.35311 0.38873 0.0
C1748 C 0.28838 0.3414 0.41572 0.0
C1749 C 0.2883 0.3648 0.44992 0.0
H1750 H 0.24962 0.33498 0.45749 0.0
C1751 C 0.25154 0.36951 0.49914 0.0
C1752 C 0.24106 0.35748 0.50775 0.0
C1753 C 0.2602 0.36865 0.48652 0.0
C1754 C 0.26052 0.34326 0.45584 0.0
H1755 H 0.30688 0.37473 0.38667 0.0
H1756 H 0.29643 0.37508 0.41486 0.0
H1757 H 0.26244 0.33402 0.43203 0.0
H1758 H 0.23194 0.33524 0.51067 0.0
H1759 H 0.24729 0.33375 0.48894 0.0
H1760 H 0.28637 0.3741 0.47365 0.0
C1761 C 0.29593 0.36559 0.41087 0.0
C1762 C 0.26785 0.34271 0.44119 0.0
C1763 C 0.30183 0.36535 0.39466 0.0
C1764 C 0.23982 0.34465 0.50405 0.0
C1765 C 0.24857 0.34381 0.49155 0.0
C1766 C 0.28101 0.3653 0.46467 0.0
C1767 C 0.28897 0.35357 0.42145 0.0
C1768 C 0.28173 0.35358 0.43791 0.0
C1769 C 0.25867 0.35575 0.48233 0.0
C1770 C 0.26693 0.35465 0.46764 0.0
H1771 H 0.29361 0.33159 0.3954 0.0
H1772 H 0.28317 0.33201 0.42368 0.0
H1773 H 0.29907 0.37325 0.44783 0.0
H1774 H 0.25262 0.37951 0.50158 0.0
H1775 H 0.2677 0.37804 0.47953 0.0
C1776 C 0.66376 0.94774 0.3961 0.0
C1777 C 0.67701 0.96015 0.39658 0.0
C1778 C 0.65954 0.93828 0.41025 0.0
C1779 C 0.67562 0.92943 0.4477 0.0
H1780 H 0.63668 0.90386 0.46073 0.0
C1781 C 0.66129 0.8828 0.49246 0.0
C1782 C 0.65065 0.8788 0.5051 0.0
C1783 C 0.66352 0.89256 0.47941 0.0
C1784 C 0.64763 0.91103 0.45742 0.0
H1785 H 0.69571 0.97298 0.41267 0.0
H1786 H 0.68809 0.95699 0.43766 0.0
H1787 H 0.64218 0.92193 0.43867 0.0
H1788 H 0.63381 0.88163 0.51392 0.0
H1789 H 0.63802 0.8992 0.49143 0.0
H1790 H 0.6812 0.91904 0.46683 0.0
C1791 C 0.6812 0.95411 0.42611 0.0
C1792 C 0.65077 0.92129 0.44457 0.0
C1793 C 0.68554 0.96336 0.41185 0.0
C1794 C 0.64208 0.88457 0.50428 0.0
C1795 C 0.64447 0.89456 0.49135 0.0
C1796 C 0.67251 0.91936 0.46065 0.0
C1797 C 0.66838 0.9412 0.42527 0.0
C1798 C 0.66483 0.93058 0.43946 0.0
C1799 C 0.65534 0.8988 0.47886 0.0
C1800 C 0.65847 0.90988 0.46553 0.0
H1801 H 0.65701 0.94503 0.38442 0.0
H1802 H 0.64964 0.92844 0.40902 0.0
H1803 H 0.68655 0.93616 0.44395 0.0
H1804 H 0.66786 0.87828 0.49261 0.0
H1805 H 0.67169 0.8952 0.46973 0.0
C1806 C 0.06166 0.70959 0.39899 0.0
C1807 C 0.05163 0.71326 0.40273 0.0
C1808 C 0.07215 0.7121 0.41156 0.0
C1809 C 0.08129 0.71727 0.45875 0.0
H1810 H 0.11945 0.74472 0.44472 0.0
C1811 C 0.12444 0.75062 0.51019 0.0
C1812 C 0.13877 0.75633 0.50611 0.0
C1813 C 0.11388 0.74266 0.49767 0.0
C1814 C 0.10897 0.73677 0.44885 0.0
H1815 H 0.04421 0.72172 0.42274 0.0
H1816 H 0.06221 0.72561 0.44486 0.0
H1817 H 0.10055 0.73502 0.42251 0.0
H1818 H 0.15307 0.75742 0.48578 0.0
H1819 H 0.13464 0.7429 0.4644 0.0
H1820 H 0.08955 0.71886 0.48503 0.0
C1821 C 0.06209 0.72101 0.43217 0.0
C1822 C 0.09813 0.73127 0.43608 0.0
C1823 C 0.05186 0.71886 0.41949 0.0
C1824 C 0.14217 0.75317 0.48951 0.0
C1825 C 0.13157 0.745 0.47708 0.0
C1826 C 0.09216 0.72254 0.47147 0.0
C1827 C 0.07248 0.7179 0.42821 0.0
C1828 C 0.08415 0.72179 0.44103 0.0
C1829 C 0.11729 0.73993 0.4808 0.0
C1830 C 0.10609 0.73273 0.46683 0.0
H1831 H 0.06173 0.70532 0.38613 0.0
H1832 H 0.08011 0.70966 0.40824 0.0
H1833 H 0.07057 0.70989 0.46282 0.0
H1834 H 0.12135 0.75252 0.52298 0.0
H1835 H 0.10307 0.73913 0.50108 0.0
C1836 C 0.30027 0.04424 0.72763 0.0
C1837 C 0.3104 0.04042 0.72573 0.0
C1838 C 0.29979 0.05077 0.74311 0.0
C1839 C 0.3216 0.07131 0.78164 0.0
H1840 H 0.28557 0.06408 0.79891 0.0
C1841 C 0.31623 0.09851 0.84398 0.0
C1842 C 0.30786 0.10443 0.84132 0.0
C1843 C 0.31633 0.08947 0.83133 0.0
C1844 C 0.29571 0.06621 0.79422 0.0
H1845 H 0.32785 0.04029 0.73884 0.0
H1846 H 0.32684 0.05149 0.76609 0.0
H1847 H 0.28613 0.05027 0.7744 0.0
H1848 H 0.29309 0.10542 0.82307 0.0
H1849 H 0.29299 0.08941 0.80138 0.0
H1850 H 0.33112 0.0873 0.80156 0.0
C1851 C 0.31941 0.04963 0.75542 0.0
C1852 C 0.29605 0.05834 0.78014 0.0
C1853 C 0.31994 0.04314 0.73984 0.0
C1854 C 0.29942 0.10086 0.82583 0.0
C1855 C 0.2994 0.09171 0.81332 0.0
C1856 C 0.32125 0.07911 0.79587 0.0
C1857 C 0.30935 0.05358 0.75721 0.0
C1858 C 0.30901 0.061 0.77339 0.0
C1859 C 0.30792 0.086 0.81586 0.0
C1860 C 0.3083 0.07683 0.80204 0.0
H1861 H 0.29281 0.0424 0.71701 0.0
H1862 H 0.29209 0.05391 0.74381 0.0
H1863 H 0.33177 0.07375 0.7767 0.0
H1864 H 0.3227 0.10084 0.85586 0.0
H1865 H 0.32291 0.08512 0.83368 0.0
C1866 C 0.96295 0.25934 0.71474 0.0
C1867 C 0.96709 0.27346 0.71447 0.0
C1868 C 0.95737 0.25138 0.73008 0.0
C1869 C 0.94 0.24983 0.77235 0.0
H1870 H 0.94908 0.22167 0.78359 0.0
C1871 C 0.91819 0.21382 0.83426 0.0
C1872 C 0.91238 0.19956 0.83069 0.0
C1873 C 0.92604 0.22385 0.82135 0.0
C1874 C 0.94643 0.22947 0.78059 0.0
H1875 H 0.96861 0.29031 0.73024 0.0
H1876 H 0.95899 0.27639 0.75723 0.0
H1877 H 0.96079 0.23754 0.75887 0.0
H1878 H 0.9102 0.18475 0.81055 0.0
H1879 H 0.92411 0.20223 0.78832 0.0
H1880 H 0.92557 0.24162 0.79413 0.0
C1881 C 0.95994 0.27146 0.74542 0.0
C1882 C 0.95309 0.23854 0.7664 0.0
C1883 C 0.9655 0.27945 0.72998 0.0
C1884 C 0.91476 0.19562 0.81397 0.0
C1885 C 0.9227 0.20564 0.80117 0.0
C1886 C 0.93339 0.24079 0.78666 0.0
C1887 C 0.95584 0.25733 0.74565 0.0
C1888 C 0.94973 0.24863 0.76184 0.0
C1889 C 0.92836 0.21985 0.80467 0.0
C1890 C 0.93633 0.23033 0.79068 0.0
H1891 H 0.96393 0.25434 0.70302 0.0
H1892 H 0.95405 0.24046 0.72962 0.0
H1893 H 0.93707 0.25739 0.76912 0.0
H1894 H 0.91674 0.21725 0.84707 0.0
H1895 H 0.93038 0.23475 0.82445 0.0
C1896 C 0.71788 0.66065 0.7374 0.0
C1897 C 0.715 0.66922 0.72679 0.0
C1898 C 0.72929 0.66643 0.74925 0.0
C1899 C 0.75438 0.69783 0.77435 0.0
H1900 H 0.77722 0.68097 0.77302 0.0
C1901 C 0.79528 0.70479 0.82893 0.0
C1902 C 0.80728 0.70473 0.82329 0.0
C1903 C 0.78489 0.70294 0.81656 0.0
C1904 C 0.77109 0.68594 0.77344 0.0
H1905 H 0.72159 0.69067 0.72088 0.0
H1906 H 0.74168 0.70081 0.74175 0.0
H1907 H 0.75717 0.67273 0.75286 0.0
H1908 H 0.81848 0.70397 0.80032 0.0
H1909 H 0.80054 0.701 0.77877 0.0
H1910 H 0.7684 0.71102 0.79511 0.0
C1911 C 0.73501 0.68958 0.74079 0.0
C1912 C 0.75948 0.68109 0.76202 0.0
C1913 C 0.72356 0.68377 0.7288 0.0
C1914 C 0.8092 0.7038 0.80503 0.0
C1915 C 0.79891 0.70206 0.79271 0.0
C1916 C 0.76603 0.70267 0.78592 0.0
C1917 C 0.73814 0.68094 0.75086 0.0
C1918 C 0.75089 0.68684 0.76247 0.0
C1919 C 0.78639 0.70108 0.79839 0.0
C1920 C 0.77446 0.69671 0.78563 0.0
H1921 H 0.71146 0.64941 0.73636 0.0
H1922 H 0.73128 0.65951 0.75708 0.0
H1923 H 0.74791 0.70242 0.775 0.0
H1924 H 0.79356 0.70545 0.84295 0.0
H1925 H 0.77534 0.70218 0.82136 0.0
C1926 C 0.7048 0.65565 0.62972 0.0
C1927 C 0.69462 0.64408 0.63934 0.0
C1928 C 0.71043 0.6538 0.61415 0.0
C1929 C 0.71502 0.62695 0.59222 0.0
H1930 H 0.72972 0.65379 0.55377 0.0
C1931 C 0.75401 0.62773 0.54229 0.0
C1932 C 0.75331 0.63111 0.52446 0.0
C1933 C 0.74584 0.62907 0.55516 0.0
C1934 C 0.7255 0.64607 0.56426 0.0
H1935 H 0.68158 0.62155 0.63959 0.0
H1936 H 0.69085 0.6183 0.61208 0.0
H1937 H 0.7164 0.65634 0.57746 0.0
H1938 H 0.74351 0.63852 0.50606 0.0
H1939 H 0.72885 0.64052 0.52853 0.0
H1940 H 0.72368 0.61643 0.57884 0.0
C1941 C 0.695 0.62881 0.61686 0.0
C1942 C 0.71802 0.64765 0.578 0.0
C1943 C 0.68959 0.63066 0.63258 0.0
C1944 C 0.74427 0.63589 0.51974 0.0
C1945 C 0.73594 0.63708 0.53263 0.0
C1946 C 0.72231 0.62528 0.57841 0.0
C1947 C 0.70581 0.64032 0.60771 0.0
C1948 C 0.71286 0.63821 0.59231 0.0
C1949 C 0.73661 0.63367 0.55052 0.0
C1950 C 0.7279 0.63496 0.56442 0.0
H1951 H 0.70891 0.66612 0.63467 0.0
H1952 H 0.71883 0.66292 0.60762 0.0
H1953 H 0.71143 0.61956 0.60307 0.0
H1954 H 0.76111 0.62431 0.54637 0.0
H1955 H 0.74696 0.62671 0.56884 0.0
C1956 C 0.32576 0.04704 0.62034 0.0
C1957 C 0.33323 0.04906 0.63637 0.0
C1958 C 0.33182 0.05655 0.60643 0.0
C1959 C 0.35492 0.09296 0.59867 0.0
H1960 H 0.3537 0.08228 0.54938 0.0
C1961 C 0.36816 0.13266 0.54237 0.0
C1962 C 0.35943 0.12774 0.52711 0.0
C1963 C 0.36792 0.12337 0.55497 0.0
C1964 C 0.35401 0.08545 0.56305 0.0
H1965 H 0.35301 0.06243 0.65031 0.0
H1966 H 0.36347 0.07943 0.62604 0.0
H1967 H 0.34771 0.06511 0.57291 0.0
H1968 H 0.34418 0.10905 0.51278 0.0
H1969 H 0.34313 0.09296 0.53512 0.0
H1970 H 0.3602 0.11296 0.58899 0.0
C1971 C 0.353 0.07033 0.62426 0.0
C1972 C 0.3507 0.07563 0.5765 0.0
C1973 C 0.34705 0.06061 0.63807 0.0
C1974 C 0.35082 0.11327 0.52453 0.0
C1975 C 0.35042 0.10399 0.53726 0.0
C1976 C 0.35797 0.10272 0.58521 0.0
C1977 C 0.34537 0.06842 0.60839 0.0
C1978 C 0.35087 0.07924 0.59439 0.0
C1979 C 0.3588 0.1089 0.55281 0.0
C1980 C 0.35726 0.09902 0.56718 0.0
H1981 H 0.31512 0.03819 0.61864 0.0
H1982 H 0.32568 0.05492 0.59439 0.0
H1983 H 0.35496 0.09594 0.61237 0.0
H1984 H 0.37486 0.14371 0.54494 0.0
H1985 H 0.37474 0.12757 0.56658 0.0
C1986 C 0.95882 0.28979 0.61093 0.0
C1987 C 0.95656 0.29271 0.62828 0.0
C1988 C 0.94846 0.28593 0.59777 0.0
C1989 C 0.91344 0.28205 0.58741 0.0
H1990 H 0.91008 0.25295 0.5565 0.0
C1991 C 0.87098 0.25676 0.53097 0.0
C1992 C 0.86541 0.24255 0.52757 0.0
C1993 C 0.88225 0.26396 0.54302 0.0
C1994 C 0.91072 0.26095 0.56512 0.0
H1995 H 0.94201 0.29449 0.64538 0.0
H1996 H 0.92352 0.28706 0.62261 0.0
H1997 H 0.92934 0.26384 0.57771 0.0
H1998 H 0.86665 0.22455 0.53468 0.0
H1999 H 0.88585 0.23686 0.55606 0.0
H2000 H 0.89422 0.27845 0.57534 0.0
C2001 C 0.93345 0.28812 0.61896 0.0
C2002 C 0.922 0.26745 0.57712 0.0
C2003 C 0.94401 0.29234 0.63205 0.0
C2004 C 0.87095 0.23557 0.53682 0.0
C2005 C 0.88202 0.24268 0.549 0.0
C2006 C 0.90198 0.27537 0.5755 0.0
C2007 C 0.93538 0.28446 0.60176 0.0
C2008 C 0.92355 0.27808 0.58848 0.0
C2009 C 0.88802 0.25703 0.55205 0.0
C2010 C 0.90041 0.26463 0.56432 0.0
H2011 H 0.96851 0.2902 0.60763 0.0
H2012 H 0.9506 0.28371 0.58457 0.0
H2013 H 0.91434 0.29028 0.59578 0.0
H2014 H 0.86687 0.26236 0.52397 0.0
H2015 H 0.88664 0.27502 0.54492 0.0
C2016 C 0.34762 0.29011 0.63177 0.0
C2017 C 0.36035 0.29877 0.64097 0.0
C2018 C 0.34743 0.28299 0.61642 0.0
C2019 C 0.36929 0.27148 0.59353 0.0
H2020 H 0.34165 0.26148 0.55559 0.0
C2021 C 0.37017 0.24411 0.5293 0.0
C2022 C 0.35744 0.23165 0.52525 0.0
C2023 C 0.3706 0.2533 0.54211 0.0
C2024 C 0.34941 0.26421 0.56612 0.0
H2025 H 0.38297 0.30747 0.64076 0.0
H2026 H 0.38279 0.29569 0.61363 0.0
H2027 H 0.34255 0.27614 0.58011 0.0
H2028 H 0.33507 0.21941 0.53134 0.0
H2029 H 0.33581 0.23573 0.5532 0.0
H2030 H 0.37629 0.25975 0.5793 0.0
C2031 C 0.37282 0.29383 0.61858 0.0
C2032 C 0.3499 0.27254 0.58024 0.0
C2033 C 0.37296 0.3007 0.63408 0.0
C2034 C 0.34504 0.22896 0.53384 0.0
C2035 C 0.34544 0.23828 0.54645 0.0
C2036 C 0.36895 0.26338 0.57929 0.0
C2037 C 0.36002 0.28458 0.60976 0.0
C2038 C 0.35979 0.27621 0.59423 0.0
C2039 C 0.35828 0.2504 0.55094 0.0
C2040 C 0.35895 0.25957 0.56552 0.0
H2041 H 0.33773 0.28837 0.63683 0.0
H2042 H 0.33734 0.27586 0.6102 0.0
H2043 H 0.37682 0.27373 0.6042 0.0
H2044 H 0.37988 0.24674 0.5227 0.0
H2045 H 0.38061 0.26268 0.54519 0.0
C2046 C 0.70231 0.07167 0.62453 0.0
C2047 C 0.70514 0.06186 0.63189 0.0
C2048 C 0.70778 0.07769 0.60804 0.0
C2049 C 0.73837 0.08881 0.58126 0.0
H2050 H 0.71706 0.09493 0.54497 0.0
C2051 C 0.76656 0.12619 0.52282 0.0
C2052 C 0.76165 0.13509 0.51815 0.0
C2053 C 0.75868 0.11478 0.53399 0.0
C2054 C 0.7232 0.09341 0.55502 0.0
H2055 H 0.71558 0.05036 0.62757 0.0
H2056 H 0.72558 0.06129 0.59878 0.0
H2057 H 0.70468 0.07907 0.56956 0.0
H2058 H 0.74422 0.13847 0.52101 0.0
H2059 H 0.7309 0.11912 0.54114 0.0
H2060 H 0.75695 0.10376 0.56755 0.0
C2061 C 0.71895 0.06413 0.60577 0.0
C2062 C 0.71608 0.08424 0.569 0.0
C2063 C 0.71321 0.05786 0.62217 0.0
C2064 C 0.74848 0.13203 0.52456 0.0
C2065 C 0.74069 0.12074 0.5359 0.0
C2066 C 0.74552 0.09814 0.56743 0.0
C2067 C 0.7164 0.07422 0.59869 0.0
C2068 C 0.72363 0.0821 0.58245 0.0
C2069 C 0.74577 0.11205 0.54097 0.0
C2070 C 0.73805 0.10082 0.55435 0.0
H2071 H 0.69606 0.07489 0.63169 0.0
H2072 H 0.70577 0.08553 0.60297 0.0
H2073 H 0.74445 0.08746 0.59158 0.0
H2074 H 0.7767 0.12825 0.51829 0.0
H2075 H 0.76284 0.10822 0.53736 0.0
C2076 C 0.93905 0.64854 0.62199 0.0
C2077 C 0.94762 0.66309 0.62389 0.0
C2078 C 0.92901 0.64273 0.60817 0.0
C2079 C 0.91963 0.65133 0.56451 0.0
H2080 H 0.88097 0.62375 0.57653 0.0
C2081 C 0.8724 0.64523 0.52514 0.0
C2082 C 0.86049 0.6319 0.52228 0.0
C2083 C 0.88362 0.647 0.53573 0.0
C2084 C 0.89176 0.63124 0.57285 0.0
H2085 H 0.95258 0.6829 0.6125 0.0
H2086 H 0.93523 0.67282 0.58861 0.0
H2087 H 0.89979 0.63046 0.59864 0.0
H2088 H 0.85109 0.60993 0.52793 0.0
H2089 H 0.87082 0.61304 0.54666 0.0
H2090 H 0.91159 0.65251 0.53898 0.0
C2091 C 0.93627 0.66587 0.59766 0.0
C2092 C 0.90253 0.63508 0.58552 0.0
C2093 C 0.94614 0.67165 0.61149 0.0
C2094 C 0.86018 0.62031 0.5299 0.0
C2095 C 0.8714 0.6221 0.54068 0.0
C2096 C 0.9089 0.64751 0.55189 0.0
C2097 C 0.92752 0.65136 0.59588 0.0
C2098 C 0.91651 0.64551 0.58166 0.0
C2099 C 0.8832 0.6355 0.54379 0.0
C2100 C 0.89478 0.63776 0.55611 0.0
H2101 H 0.93993 0.64167 0.63134 0.0
H2102 H 0.92242 0.6315 0.60709 0.0
H2103 H 0.93035 0.6592 0.56103 0.0
H2104 H 0.87299 0.65433 0.51929 0.0
H2105 H 0.89246 0.65748 0.53804 0.0
C2106 C 0.9637 0.69623 0.72144 0.0
C2107 C 0.96237 0.68385 0.71513 0.0
C2108 C 0.95832 0.6966 0.73799 0.0
C2109 C 0.93076 0.67427 0.76913 0.0
H2110 H 0.95083 0.70573 0.80124 0.0
C2111 C 0.90427 0.67815 0.83235 0.0
C2112 C 0.90604 0.69125 0.8357 0.0
C2113 C 0.91273 0.67673 0.81994 0.0
C2114 C 0.94505 0.69691 0.79238 0.0
H2115 H 0.95458 0.6622 0.72143 0.0
H2116 H 0.94499 0.66283 0.75033 0.0
H2117 H 0.96269 0.70419 0.77496 0.0
H2118 H 0.91831 0.71319 0.82909 0.0
H2119 H 0.9329 0.71073 0.80724 0.0
H2120 H 0.91294 0.66725 0.78599 0.0
C2121 C 0.95023 0.67223 0.7424 0.0
C2122 C 0.95187 0.69602 0.77737 0.0
C2123 C 0.95575 0.67189 0.7259 0.0
C2124 C 0.91682 0.70298 0.82693 0.0
C2125 C 0.9252 0.70156 0.81441 0.0
C2126 C 0.92391 0.67522 0.78405 0.0
C2127 C 0.95138 0.68457 0.74855 0.0
C2128 C 0.94471 0.68481 0.76544 0.0
C2129 C 0.92307 0.68837 0.81049 0.0
C2130 C 0.93088 0.68667 0.79571 0.0
H2131 H 0.96879 0.70564 0.71352 0.0
H2132 H 0.95922 0.70621 0.74228 0.0
H2133 H 0.92493 0.6656 0.76006 0.0
H2134 H 0.89616 0.66895 0.8391 0.0
H2135 H 0.91099 0.66646 0.81753 0.0
C2136 C 0.34484 0.28875 0.7463 0.0
C2137 C 0.33751 0.28769 0.73046 0.0
C2138 C 0.3382 0.27916 0.75999 0.0
C2139 C 0.31342 0.2434 0.76756 0.0
H2140 H 0.31442 0.25418 0.81675 0.0
C2141 C 0.29877 0.20348 0.82406 0.0
C2142 C 0.30738 0.20829 0.83943 0.0
C2143 C 0.29932 0.21286 0.81134 0.0
C2144 C 0.31415 0.25097 0.80312 0.0
H2145 H 0.31743 0.27592 0.71654 0.0
H2146 H 0.3059 0.25865 0.74041 0.0
H2147 H 0.32134 0.2715 0.79322 0.0
H2148 H 0.32272 0.22688 0.85384 0.0
H2149 H 0.32431 0.24309 0.83134 0.0
H2150 H 0.30733 0.2232 0.7773 0.0
C2151 C 0.31672 0.26712 0.74224 0.0
C2152 C 0.31798 0.26088 0.78966 0.0
C2153 C 0.32329 0.27698 0.72867 0.0
C2154 C 0.31616 0.22274 0.84201 0.0
C2155 C 0.31687 0.2321 0.82918 0.0
C2156 C 0.30987 0.23354 0.78104 0.0
C2157 C 0.32418 0.26813 0.75797 0.0
C2158 C 0.31792 0.25724 0.77182 0.0
C2159 C 0.30863 0.2273 0.81351 0.0
C2160 C 0.31053 0.23727 0.79906 0.0
H2161 H 0.3558 0.29695 0.74806 0.0
H2162 H 0.34419 0.28006 0.77193 0.0
H2163 H 0.31346 0.2404 0.75389 0.0
H2164 H 0.29194 0.19244 0.82149 0.0
H2165 H 0.29259 0.20874 0.79965 0.0
C2166 C 0.72748 0.06679 0.73254 0.0
C2167 C 0.7228 0.05494 0.7218 0.0
C2168 C 0.73686 0.06962 0.74662 0.0
C2169 C 0.76444 0.06417 0.76362 0.0
H2170 H 0.75707 0.07708 0.80763 0.0
C2171 C 0.80315 0.08418 0.82472 0.0
C2172 C 0.80571 0.09688 0.8318 0.0
C2173 C 0.79233 0.07685 0.81213 0.0
C2174 C 0.75928 0.07349 0.79544 0.0
H2175 H 0.72455 0.03686 0.71732 0.0
H2176 H 0.74125 0.04198 0.74208 0.0
H2177 H 0.73934 0.06803 0.78392 0.0
H2178 H 0.79913 0.11198 0.83065 0.0
H2179 H 0.78026 0.09915 0.80911 0.0
H2180 H 0.78463 0.07009 0.77507 0.0
C2181 C 0.7375 0.04899 0.73948 0.0
C2182 C 0.74913 0.0683 0.78187 0.0
C2183 C 0.72794 0.04607 0.72536 0.0
C2184 C 0.79724 0.10206 0.82592 0.0
C2185 C 0.78643 0.09472 0.8135 0.0
C2186 C 0.77465 0.06939 0.77727 0.0
C2187 C 0.74189 0.06073 0.75037 0.0
C2188 C 0.75178 0.06402 0.7656 0.0
C2189 C 0.7838 0.08202 0.80649 0.0
C2190 C 0.77234 0.07453 0.79308 0.0
H2191 H 0.72381 0.07391 0.73021 0.0
H2192 H 0.74026 0.07889 0.75455 0.0
H2193 H 0.76676 0.06096 0.7512 0.0
H2194 H 0.8094 0.07984 0.82904 0.0
H2195 H 0.79052 0.06707 0.80697 0.0
C2196 C 0.03623 0.35568 0.03384 0.0
C2197 C 0.02503 0.34542 0.02349 0.0
C2198 C 0.0465 0.35331 0.04097 0.0
C2199 C 0.06006 0.32902 0.03827 0.0
H2200 H 0.0751 0.34389 0.08522 0.0
C2201 C 0.08865 0.30962 0.08438 0.0
C2202 C 0.10164 0.32001 0.09177 0.0
C2203 C 0.08007 0.31319 0.07491 0.0
C2204 C 0.07105 0.33976 0.07204 0.0
H2205 H 0.01583 0.32465 0.01245 0.0
H2206 H 0.03327 0.32027 0.02542 0.0
H2207 H 0.05871 0.34929 0.07091 0.0
H2208 H 0.11592 0.3424 0.0943 0.0
H2209 H 0.10061 0.34851 0.07847 0.0
H2210 H 0.072 0.31897 0.03997 0.0
C2211 C 0.0345 0.33035 0.02762 0.0
C2212 C 0.06173 0.34292 0.06375 0.0
C2213 C 0.0244 0.33282 0.02024 0.0
C2214 C 0.10586 0.33407 0.08924 0.0
C2215 C 0.09715 0.33762 0.08006 0.0
C2216 C 0.06919 0.32565 0.04674 0.0
C2217 C 0.04566 0.34051 0.0382 0.0
C2218 C 0.05605 0.33757 0.04675 0.0
C2219 C 0.08417 0.32722 0.07287 0.0
C2220 C 0.07474 0.33098 0.0637 0.0
H2221 H 0.03704 0.36553 0.03646 0.0
H2222 H 0.05507 0.36153 0.04869 0.0
H2223 H 0.0562 0.32492 0.02505 0.0
H2224 H 0.0849 0.29868 0.08626 0.0
H2225 H 0.07003 0.30498 0.06961 0.0
C2226 C 0.65385 0.69346 0.01533 0.0
C2227 C 0.65497 0.68318 0.02458 0.0
C2228 C 0.65661 0.70562 0.02398 0.0
C2229 C 0.67594 0.72819 0.06201 0.0
H2230 H 0.65078 0.74214 0.05536 0.0
C2231 C 0.68227 0.77477 0.10246 0.0
C2232 C 0.67939 0.7841 0.09372 0.0
C2233 C 0.6793 0.76242 0.09415 0.0
C2234 C 0.65804 0.73852 0.05718 0.0
H2235 H 0.65984 0.67762 0.0502 0.0
H2236 H 0.66474 0.69891 0.06524 0.0
H2237 H 0.6455 0.72067 0.04059 0.0
H2238 H 0.67151 0.788 0.06926 0.0
H2239 H 0.66661 0.76663 0.05458 0.0
H2240 H 0.68863 0.74613 0.07832 0.0
C2241 C 0.66176 0.69755 0.05129 0.0
C2242 C 0.65497 0.72618 0.04875 0.0
C2243 C 0.65887 0.68532 0.04269 0.0
C2244 C 0.67365 0.78091 0.07641 0.0
C2245 C 0.6708 0.76863 0.06804 0.0
C2246 C 0.67908 0.7406 0.07032 0.0
C2247 C 0.66067 0.70783 0.04202 0.0
C2248 C 0.66388 0.72088 0.05108 0.0
C2249 C 0.67349 0.75916 0.07683 0.0
C2250 C 0.67017 0.74593 0.06801 0.0
H2251 H 0.65087 0.69214 0.00138 0.0
H2252 H 0.6558 0.71342 0.01646 0.0
H2253 H 0.6831 0.72445 0.06387 0.0
H2254 H 0.68654 0.77689 0.11589 0.0
H2255 H 0.68132 0.7553 0.10145 0.0
C2256 C 0.29605 0.95392 0.0265 0.0
C2257 C 0.30661 0.96748 0.03139 0.0
C2258 C 0.2823 0.94821 0.03261 0.0
C2259 C 0.2578 0.95615 0.0561 0.0
H2260 H 0.23968 0.91703 0.06836 0.0
C2261 C 0.208 0.924 0.10102 0.0
C2262 C 0.19783 0.91085 0.09417 0.0
C2263 C 0.22073 0.93237 0.09208 0.0
C2264 C 0.24457 0.92794 0.06487 0.0
H2265 H 0.31103 0.98593 0.04594 0.0
H2266 H 0.28707 0.97572 0.05737 0.0
H2267 H 0.26299 0.92879 0.05533 0.0
H2268 H 0.19253 0.89673 0.07183 0.0
H2269 H 0.21482 0.91116 0.05657 0.0
H2270 H 0.23932 0.95517 0.06653 0.0
C2271 C 0.2893 0.9696 0.04844 0.0
C2272 C 0.2579 0.93469 0.05727 0.0
C2273 C 0.30305 0.97545 0.04196 0.0
C2274 C 0.20029 0.90664 0.0777 0.0
C2275 C 0.21301 0.91491 0.06891 0.0
C2276 C 0.24445 0.94939 0.06402 0.0
C2277 C 0.27884 0.95576 0.04419 0.0
C2278 C 0.26465 0.94884 0.05253 0.0
C2279 C 0.22349 0.92765 0.07625 0.0
C2280 C 0.23768 0.93518 0.06825 0.0
H2281 H 0.29846 0.94764 0.01811 0.0
H2282 H 0.27445 0.93771 0.02852 0.0
H2283 H 0.26262 0.96703 0.05255 0.0
H2284 H 0.20642 0.92752 0.11369 0.0
H2285 H 0.22871 0.94216 0.09801 0.0
C2286 C 0.34897 0.03596 0.99415 0.0
C2287 C 0.3496 0.03493 0.01276 0.0
C2288 C 0.34653 0.04584 0.98647 0.0
C2289 C 0.34921 0.07915 0.99303 0.0
H2290 H 0.31844 0.06502 0.95864 0.0
C2291 C 0.33092 0.11444 0.96179 0.0
C2292 C 0.32628 0.11192 0.94398 0.0
C2293 C 0.33376 0.10525 0.97084 0.0
C2294 C 0.32721 0.06923 0.96798 0.0
H2295 H 0.34873 0.04389 0.03786 0.0
H2296 H 0.34477 0.06146 0.02429 0.0
H2297 H 0.32402 0.04905 0.97308 0.0
H2298 H 0.3213 0.09808 0.92151 0.0
H2299 H 0.32671 0.08232 0.93697 0.0
H2300 H 0.35276 0.09941 0.98755 0.0
C2301 C 0.34604 0.05446 0.01575 0.0
C2302 C 0.33034 0.06003 0.97633 0.0
C2303 C 0.34827 0.0444 0.02349 0.0
C2304 C 0.32468 0.10015 0.93532 0.0
C2305 C 0.32771 0.09108 0.94425 0.0
C2306 C 0.34623 0.08843 0.98446 0.0
C2307 C 0.34487 0.05507 0.99718 0.0
C2308 C 0.3414 0.0649 0.98885 0.0
C2309 C 0.33221 0.09344 0.96219 0.0
C2310 C 0.33523 0.0836 0.97173 0.0
H2311 H 0.34995 0.02886 0.98546 0.0
H2312 H 0.34583 0.0462 0.9721 0.0
H2313 H 0.35785 0.08317 0.00258 0.0
H2314 H 0.33213 0.12339 0.96881 0.0
H2315 H 0.33697 0.10732 0.98469 0.0
C2316 C 0.96764 0.30829 0.00154 0.0
C2317 C 0.96042 0.31542 0.9992 0.0
C2318 C 0.96219 0.29498 0.99433 0.0
C2319 C 0.9391 0.27264 0.95821 0.0
H2320 H 0.93779 0.24237 0.98478 0.0
C2321 C 0.92137 0.21973 0.92538 0.0
C2322 C 0.91092 0.20812 0.93471 0.0
C2323 C 0.92885 0.2328 0.93361 0.0
C2324 C 0.93813 0.25074 0.9772 0.0
H2325 H 0.94161 0.31395 0.98784 0.0
H2326 H 0.93217 0.29078 0.97528 0.0
H2327 H 0.94745 0.2652 0.99889 0.0
H2328 H 0.90066 0.20088 0.96019 0.0
H2329 H 0.91374 0.22368 0.97458 0.0
H2330 H 0.9296 0.25821 0.93663 0.0
C2331 C 0.94209 0.29555 0.98256 0.0
C2332 C 0.94372 0.26381 0.98524 0.0
C2333 C 0.94747 0.30879 0.98988 0.0
C2334 C 0.90857 0.20969 0.95265 0.0
C2335 C 0.91613 0.22271 0.96092 0.0
C2336 C 0.93364 0.25965 0.95014 0.0
C2337 C 0.94949 0.28858 0.98451 0.0
C2338 C 0.94408 0.27484 0.97589 0.0
C2339 C 0.92613 0.23446 0.95138 0.0
C2340 C 0.93296 0.24851 0.9596 0.0
H2341 H 0.97763 0.31309 0.00867 0.0
H2342 H 0.96813 0.28987 0.99599 0.0
H2343 H 0.93941 0.281 0.95061 0.0
H2344 H 0.92334 0.21883 0.91151 0.0
H2345 H 0.93659 0.24166 0.92599 0.0
C2346 C 0.69852 0.66818 0.99081 0.0
C2347 C 0.69115 0.65353 0.99105 0.0
C2348 C 0.71269 0.67584 0.98565 0.0
C2349 C 0.74428 0.67325 0.98007 0.0
H2350 H 0.75433 0.70058 0.94262 0.0
C2351 C 0.78603 0.6964 0.91993 0.0
C2352 C 0.79843 0.69913 0.92882 0.0
C2353 C 0.77416 0.69374 0.92952 0.0
C2354 C 0.7517 0.69304 0.95315 0.0
H2355 H 0.69301 0.6355 0.98666 0.0
H2356 H 0.71761 0.64882 0.97784 0.0
H2357 H 0.73112 0.69002 0.95645 0.0
H2358 H 0.8083 0.70175 0.95474 0.0
H2359 H 0.78757 0.69717 0.97152 0.0
H2360 H 0.76455 0.67576 0.97631 0.0
C2361 C 0.71249 0.6544 0.98163 0.0
C2362 C 0.73847 0.6871 0.96117 0.0
C2363 C 0.69835 0.64676 0.98656 0.0
C2364 C 0.79892 0.69974 0.94751 0.0
C2365 C 0.78702 0.69701 0.95712 0.0
C2366 C 0.75751 0.67924 0.97215 0.0
C2367 C 0.71978 0.669 0.98093 0.0
C2368 C 0.73449 0.67685 0.97436 0.0
C2369 C 0.77442 0.69369 0.94823 0.0
C2370 C 0.76122 0.68893 0.95828 0.0
H2371 H 0.69325 0.67369 0.99419 0.0
H2372 H 0.71808 0.6871 0.98528 0.0
H2373 H 0.74154 0.66548 0.99033 0.0
H2374 H 0.7854 0.69602 0.90552 0.0
H2375 H 0.76459 0.6911 0.92226 0.0
C2376 C 0.96555 0.6489 0.99052 0.0
C2377 C 0.97122 0.65375 0.00763 0.0
C2378 C 0.95532 0.65131 0.98341 0.0
C2379 C 0.94227 0.67533 0.9877 0.0
H2380 H 0.91251 0.64884 0.95614 0.0
C2381 C 0.90075 0.68545 0.95517 0.0
C2382 C 0.89798 0.68215 0.93697 0.0
C2383 C 0.90883 0.68143 0.96502 0.0
C2384 C 0.92082 0.65637 0.96486 0.0
H2385 H 0.9701 0.6644 0.03098 0.0
H2386 H 0.95206 0.66838 0.01867 0.0
H2387 H 0.92763 0.64227 0.97159 0.0
H2388 H 0.90189 0.67237 0.91478 0.0
H2389 H 0.9158 0.66526 0.93196 0.0
H2390 H 0.93548 0.68946 0.98085 0.0
C2391 C 0.95575 0.66296 0.01062 0.0
C2392 C 0.92948 0.65261 0.9737 0.0
C2393 C 0.96602 0.66059 0.01772 0.0
C2394 C 0.90355 0.67483 0.92885 0.0
C2395 C 0.91154 0.67075 0.93869 0.0
C2396 C 0.93354 0.67906 0.97892 0.0
C2397 C 0.95046 0.65857 0.99325 0.0
C2398 C 0.94046 0.66212 0.98502 0.0
C2399 C 0.91424 0.67397 0.95689 0.0
C2400 C 0.92287 0.6697 0.96719 0.0
H2401 H 0.96933 0.64363 0.98236 0.0
H2402 H 0.95163 0.64792 0.96991 0.0
H2403 H 0.95074 0.68299 0.99611 0.0
H2404 H 0.89648 0.69093 0.96191 0.0
H2405 H 0.91065 0.68397 0.97906 0.0
C2406 C 0.35048 0.31264 0.01674 0.0
C2407 C 0.34911 0.3227 0.00729 0.0
C2408 C 0.34808 0.30055 0.00826 0.0
C2409 C 0.32902 0.27763 0.97046 0.0
H2410 H 0.35449 0.26409 0.97746 0.0
C2411 C 0.32286 0.23096 0.93063 0.0
C2412 C 0.32577 0.22169 0.93948 0.0
C2413 C 0.32591 0.24339 0.93877 0.0
C2414 C 0.34715 0.2676 0.97555 0.0
H2415 H 0.34429 0.32799 0.98145 0.0
H2416 H 0.34002 0.30682 0.9667 0.0
H2417 H 0.35955 0.28559 0.99197 0.0
H2418 H 0.33388 0.21803 0.96391 0.0
H2419 H 0.33891 0.23956 0.97831 0.0
H2420 H 0.31644 0.25956 0.95436 0.0
C2421 C 0.3429 0.3083 0.98069 0.0
C2422 C 0.3501 0.27996 0.98382 0.0
C2423 C 0.34543 0.32045 0.98912 0.0
C2424 C 0.3317 0.22507 0.95669 0.0
C2425 C 0.33462 0.23743 0.9649 0.0
C2426 C 0.326 0.26521 0.96232 0.0
C2427 C 0.34414 0.29819 0.99018 0.0
C2428 C 0.34108 0.28511 0.98134 0.0
C2429 C 0.33182 0.24679 0.95603 0.0
C2430 C 0.33503 0.26003 0.96473 0.0
H2431 H 0.3533 0.31406 0.03075 0.0
H2432 H 0.34901 0.29289 0.01594 0.0
H2433 H 0.32177 0.28125 0.96851 0.0
H2434 H 0.31847 0.22871 0.91726 0.0
H2435 H 0.32383 0.25044 0.93139 0.0
C2436 C 0.69969 0.0278 0.99642 0.0
C2437 C 0.69394 0.03633 0.99796 0.0
C2438 C 0.71384 0.03354 0.99159 0.0
C2439 C 0.74777 0.06742 0.98828 0.0
H2440 H 0.75596 0.05012 0.94952 0.0
C2441 C 0.79172 0.09859 0.93907 0.0
C2442 C 0.80173 0.09472 0.93626 0.0
C2443 C 0.7795 0.09002 0.94863 0.0
C2444 C 0.75387 0.05492 0.96057 0.0
H2445 H 0.69867 0.0576 0.99607 0.0
H2446 H 0.72303 0.06748 0.98759 0.0
H2447 H 0.7327 0.03761 0.96353 0.0
H2448 H 0.80637 0.07842 0.9408 0.0
H2449 H 0.78453 0.06312 0.95707 0.0
H2450 H 0.7686 0.08503 0.9846 0.0
C2451 C 0.71677 0.05641 0.99029 0.0
C2452 C 0.74059 0.04777 0.96862 0.0
C2453 C 0.70271 0.0507 0.99502 0.0
C2454 C 0.79887 0.08171 0.94265 0.0
C2455 C 0.78644 0.07299 0.95203 0.0
C2456 C 0.76092 0.07457 0.98015 0.0
C2457 C 0.7225 0.04792 0.98839 0.0
C2458 C 0.73724 0.05418 0.98213 0.0
C2459 C 0.77681 0.07723 0.95536 0.0
C2460 C 0.76391 0.06858 0.96585 0.0
H2461 H 0.6932 0.01667 0.99859 0.0
H2462 H 0.71798 0.02674 0.99029 0.0
H2463 H 0.74564 0.07251 0.99894 0.0
H2464 H 0.79328 0.10828 0.93387 0.0
H2465 H 0.77206 0.09337 0.9507 0.0
C2466 C 0.65363 0.96813 0.03836 0.0
C2467 C 0.65188 0.96824 0.01982 0.0
C2468 C 0.65598 0.95827 0.04634 0.0
C2469 C 0.66796 0.93381 0.03608 0.0
H2470 H 0.65369 0.91989 0.0833 0.0
C2471 C 0.6725 0.89014 0.0711 0.0
C2472 C 0.67737 0.89286 0.08882 0.0
C2473 C 0.6691 0.89898 0.06219 0.0
C2474 C 0.6578 0.92375 0.07014 0.0
H2475 H 0.65084 0.9578 0.99516 0.0
H2476 H 0.6545 0.94028 0.00913 0.0
H2477 H 0.64753 0.93536 0.06849 0.0
H2478 H 0.68244 0.90686 0.11117 0.0
H2479 H 0.67637 0.92223 0.09566 0.0
H2480 H 0.67802 0.92192 0.03775 0.0
C2481 C 0.65442 0.94806 0.01749 0.0
C2482 C 0.65432 0.93266 0.06166 0.0
C2483 C 0.65221 0.95804 0.00947 0.0
C2484 C 0.6788 0.90458 0.09747 0.0
C2485 C 0.67522 0.9133 0.08865 0.0
C2486 C 0.67129 0.92475 0.0445 0.0
C2487 C 0.65648 0.94813 0.03602 0.0
C2488 C 0.6595 0.93796 0.0446 0.0
C2489 C 0.67031 0.91057 0.07094 0.0
C2490 C 0.66638 0.91977 0.0617 0.0
H2491 H 0.65355 0.9759 0.04674 0.0
H2492 H 0.65777 0.95886 0.06058 0.0
H2493 H 0.67233 0.93782 0.02308 0.0
H2494 H 0.67138 0.88121 0.0641 0.0
H2495 H 0.66529 0.8966 0.04857 0.0
C2496 C 0.02747 0.6966 0.03188 0.0
C2497 C 0.03689 0.69351 0.0238 0.0
C2498 C 0.03228 0.70998 0.03846 0.0
C2499 C 0.06006 0.74661 0.03542 0.0
H2500 H 0.05558 0.74827 0.08627 0.0
C2501 C 0.09503 0.79664 0.07567 0.0
C2502 C 0.09 0.79912 0.09146 0.0
C2503 C 0.08687 0.78428 0.06613 0.0
C2504 C 0.05667 0.74809 0.072 0.0
H2505 H 0.05852 0.70214 0.01538 0.0
H2506 H 0.0668 0.72563 0.02639 0.0
H2507 H 0.04405 0.72579 0.07125 0.0
H2508 H 0.07202 0.79064 0.10911 0.0
H2509 H 0.05748 0.76947 0.09195 0.0
H2510 H 0.0725 0.76885 0.03596 0.0
C2511 C 0.05576 0.71765 0.02782 0.0
C2512 C 0.0501 0.73517 0.06343 0.0
C2513 C 0.05103 0.70421 0.0216 0.0
C2514 C 0.07627 0.78917 0.09698 0.0
C2515 C 0.06798 0.77688 0.08725 0.0
C2516 C 0.0664 0.75957 0.04391 0.0
C2517 C 0.04651 0.72056 0.03667 0.0
C2518 C 0.05201 0.73431 0.04516 0.0
C2519 C 0.07329 0.77413 0.07188 0.0
C2520 C 0.06511 0.76048 0.06242 0.0
H2521 H 0.01652 0.68855 0.03383 0.0
H2522 H 0.02496 0.71201 0.04521 0.0
H2523 H 0.06157 0.74619 0.02127 0.0
H2524 H 0.10541 0.80417 0.07072 0.0
H2525 H 0.09147 0.78257 0.05454 0.0
C2526 C 0.30049 0.35498 0.03872 0.0
C2527 C 0.3086 0.34891 0.03575 0.0
C2528 C 0.2862 0.34673 0.04277 0.0
C2529 C 0.2612 0.31406 0.06396 0.0
H2530 H 0.23411 0.32351 0.04684 0.0
C2531 C 0.20062 0.30125 0.07747 0.0
C2532 C 0.20158 0.30285 0.09606 0.0
C2533 C 0.21226 0.30339 0.06774 0.0
C2534 C 0.24141 0.32051 0.05154 0.0
H2535 H 0.308 0.32936 0.03423 0.0
H2536 H 0.28289 0.31486 0.0416 0.0
H2537 H 0.25716 0.33396 0.03292 0.0
H2538 H 0.21511 0.30701 0.11914 0.0
H2539 H 0.23545 0.31095 0.1022 0.0
H2540 H 0.24559 0.30094 0.08297 0.0
C2541 C 0.28768 0.32605 0.04073 0.0
C2542 C 0.25467 0.32661 0.04367 0.0
C2543 C 0.30201 0.33433 0.03646 0.0
C2544 C 0.21413 0.30589 0.1048 0.0
C2545 C 0.22573 0.30797 0.0951 0.0
C2546 C 0.24793 0.30799 0.07189 0.0
C2547 C 0.27968 0.3322 0.04408 0.0
C2548 C 0.26486 0.32381 0.05018 0.0
C2549 C 0.22505 0.3071 0.07642 0.0
C2550 C 0.23807 0.31149 0.06613 0.0
H2551 H 0.30522 0.36618 0.03819 0.0
H2552 H 0.28039 0.35181 0.04552 0.0
H2553 H 0.26885 0.31174 0.06931 0.0
H2554 H 0.19109 0.29895 0.07037 0.0
H2555 H 0.21137 0.30251 0.05337 0.0
C2556 C 0.68929 0.68061 0.37742 0.0
C2557 C 0.68993 0.68351 0.35911 0.0
C2558 C 0.69778 0.67607 0.38492 0.0
C2559 C 0.73026 0.6756 0.37849 0.0
H2560 H 0.71239 0.64324 0.40927 0.0
C2561 C 0.76024 0.64954 0.40405 0.0
C2562 C 0.75775 0.64453 0.4216 0.0
C2563 C 0.75182 0.65399 0.3961 0.0
C2564 C 0.71762 0.6524 0.40092 0.0
H2565 H 0.70027 0.68428 0.33444 0.0
H2566 H 0.71525 0.67652 0.34765 0.0
H2567 H 0.6984 0.65217 0.3964 0.0
H2568 H 0.74454 0.64031 0.44463 0.0
H2569 H 0.73002 0.64833 0.43096 0.0
H2570 H 0.74954 0.67607 0.38326 0.0
C2571 C 0.70813 0.67772 0.35614 0.0
C2572 C 0.70957 0.65749 0.39351 0.0
C2573 C 0.69952 0.68212 0.34858 0.0
C2574 C 0.74658 0.64394 0.43099 0.0
C2575 C 0.73824 0.64852 0.42312 0.0
C2576 C 0.73835 0.6706 0.38605 0.0
C2577 C 0.7072 0.67447 0.37434 0.0
C2578 C 0.71581 0.66914 0.38222 0.0
C2579 C 0.74079 0.65369 0.40559 0.0
C2580 C 0.73214 0.65892 0.39737 0.0
H2581 H 0.68202 0.68157 0.38592 0.0
H2582 H 0.69696 0.67379 0.39903 0.0
H2583 H 0.73537 0.68468 0.36998 0.0
H2584 H 0.7687 0.64998 0.39644 0.0
H2585 H 0.75393 0.65762 0.38248 0.0
C2586 C 0.31809 0.0149 0.37608 0.0
C2587 C 0.314 0.01271 0.35804 0.0
C2588 C 0.32144 0.02732 0.38457 0.0
C2589 C 0.31545 0.05647 0.38193 0.0
H2590 H 0.34921 0.076 0.41138 0.0
C2591 C 0.33499 0.11141 0.40954 0.0
C2592 C 0.3408 0.11457 0.42681 0.0
C2593 C 0.33194 0.09906 0.40116 0.0
C2594 C 0.33963 0.0706 0.40342 0.0
H2595 H 0.31013 0.02182 0.33481 0.0
H2596 H 0.31586 0.04342 0.34969 0.0
H2597 H 0.34324 0.05416 0.39702 0.0
H2598 H 0.34789 0.10724 0.44891 0.0
H2599 H 0.34232 0.08554 0.43447 0.0
H2600 H 0.31165 0.0727 0.3885 0.0
C2601 C 0.31645 0.03552 0.35726 0.0
C2602 C 0.33624 0.05809 0.39515 0.0
C2603 C 0.31324 0.02317 0.34872 0.0
C2604 C 0.34357 0.10515 0.4355 0.0
C2605 C 0.3404 0.09273 0.42719 0.0
C2606 C 0.31876 0.0689 0.39031 0.0
C2607 C 0.32063 0.03775 0.37526 0.0
C2608 C 0.32414 0.05092 0.38426 0.0
C2609 C 0.3345 0.0895 0.40992 0.0
C2610 C 0.33093 0.07617 0.40111 0.0
H2611 H 0.3188 0.00706 0.38364 0.0
H2612 H 0.32451 0.02869 0.3985 0.0
H2613 H 0.30595 0.05108 0.37381 0.0
H2614 H 0.33293 0.11857 0.40242 0.0
H2615 H 0.32769 0.09709 0.38773 0.0
C2616 C 0.97603 0.3155 0.37937 0.0
C2617 C 0.97955 0.30778 0.36828 0.0
C2618 C 0.96203 0.30995 0.38468 0.0
C2619 C 0.92881 0.27542 0.38836 0.0
H2620 H 0.91238 0.29733 0.40103 0.0
C2621 C 0.87069 0.24957 0.40565 0.0
C2622 C 0.86855 0.25177 0.42344 0.0
C2623 C 0.88368 0.25819 0.3976 0.0
C2624 C 0.9169 0.29116 0.3975 0.0
H2625 H 0.97127 0.28886 0.35284 0.0
H2626 H 0.94683 0.27958 0.36101 0.0
H2627 H 0.93618 0.30891 0.3885 0.0
H2628 H 0.87802 0.26547 0.44624 0.0
H2629 H 0.90074 0.2808 0.43187 0.0
H2630 H 0.90942 0.25768 0.39692 0.0
C2631 C 0.95483 0.28954 0.36651 0.0
C2632 C 0.93053 0.29775 0.39043 0.0
C2633 C 0.96881 0.2949 0.36165 0.0
C2634 C 0.87932 0.26351 0.43251 0.0
C2635 C 0.89231 0.27228 0.42433 0.0
C2636 C 0.91517 0.26887 0.39503 0.0
C2637 C 0.95129 0.29672 0.37864 0.0
C2638 C 0.93667 0.28994 0.38575 0.0
C2639 C 0.89472 0.26935 0.40704 0.0
C2640 C 0.9091 0.27665 0.39967 0.0
H2641 H 0.98419 0.32547 0.38469 0.0
H2642 H 0.95978 0.31578 0.3941 0.0
H2643 H 0.93324 0.26905 0.38556 0.0
H2644 H 0.8625 0.24083 0.39814 0.0
H2645 H 0.8853 0.25584 0.38418 0.0
C2646 C 0.03115 0.38793 0.35682 0.0
C2647 C 0.02887 0.37623 0.34718 0.0
C2648 C 0.02998 0.39843 0.34838 0.0
C2649 C 0.0122 0.40352 0.31045 0.0
H2650 H 0.03997 0.44289 0.31574 0.0
C2651 C 0.01001 0.44413 0.26636 0.0
C2652 C 0.01341 0.45687 0.27407 0.0
C2653 C 0.01242 0.43479 0.27568 0.0
C2654 C 0.03201 0.43195 0.31431 0.0
H2655 H 0.02396 0.3666 0.321 0.0
H2656 H 0.02185 0.38478 0.30646 0.0
H2657 H 0.0433 0.42577 0.33164 0.0
H2658 H 0.02204 0.46987 0.29755 0.0
H2659 H 0.02599 0.45341 0.31405 0.0
H2660 H 0.00075 0.40953 0.29344 0.0
C2661 C 0.02444 0.3858 0.32053 0.0
C2662 C 0.03395 0.42216 0.32339 0.0
C2663 C 0.02573 0.37542 0.32888 0.0
C2664 C 0.01943 0.46016 0.29123 0.0
C2665 C 0.02172 0.45074 0.30066 0.0
C2666 C 0.01019 0.41326 0.30153 0.0
C2667 C 0.02637 0.39732 0.33022 0.0
C2668 C 0.02414 0.40784 0.32136 0.0
C2669 C 0.01815 0.43788 0.29304 0.0
C2670 C 0.02015 0.4276 0.30314 0.0
H2671 H 0.03361 0.38888 0.37092 0.0
H2672 H 0.03149 0.40719 0.35616 0.0
H2673 H 0.00433 0.39255 0.30889 0.0
H2674 H 0.00558 0.44143 0.25303 0.0
H2675 H 0.00985 0.42515 0.2692 0.0
C2676 C 0.60931 0.64325 0.32387 0.0
C2677 C 0.62303 0.6502 0.33118 0.0
C2678 C 0.60312 0.62963 0.31761 0.0
C2679 C 0.61211 0.60447 0.30091 0.0
H2680 H 0.57171 0.57889 0.30495 0.0
C2681 C 0.58163 0.54759 0.27306 0.0
C2682 C 0.56922 0.54399 0.26343 0.0
C2683 C 0.58892 0.56018 0.28248 0.0
C2684 C 0.583 0.58594 0.30369 0.0
H2685 H 0.64087 0.6481 0.33809 0.0
H2686 H 0.62992 0.62413 0.32737 0.0
H2687 H 0.58291 0.60118 0.32045 0.0
H2688 H 0.55525 0.5512 0.25537 0.0
H2689 H 0.56776 0.57291 0.27205 0.0
H2690 H 0.61208 0.58909 0.28406 0.0
C2691 C 0.62406 0.62935 0.32625 0.0
C2692 C 0.58942 0.59872 0.31253 0.0
C2693 C 0.63029 0.64305 0.3325 0.0
C2694 C 0.56453 0.55344 0.26303 0.0
C2695 C 0.57171 0.5659 0.27255 0.0
C2696 C 0.60568 0.59159 0.29217 0.0
C2697 C 0.61044 0.62253 0.31857 0.0
C2698 C 0.60399 0.6083 0.31089 0.0
C2699 C 0.58386 0.56932 0.28256 0.0
C2700 C 0.59101 0.58236 0.29314 0.0
H2701 H 0.60341 0.64844 0.32257 0.0
H2702 H 0.59273 0.62481 0.31151 0.0
H2703 H 0.62333 0.61164 0.29923 0.0
H2704 H 0.58548 0.54051 0.27376 0.0
H2705 H 0.59826 0.56258 0.29012 0.0
C2706 C 0.35518 0.99047 0.32896 0.0
C2707 C 0.3456 0.97606 0.32714 0.0
C2708 C 0.36949 0.99625 0.32491 0.0
C2709 C 0.39633 0.98646 0.31877 0.0
H2710 H 0.41457 0.01833 0.28722 0.0
C2711 C 0.44194 0.99657 0.27403 0.0
C2712 C 0.4537 0.01019 0.27273 0.0
C2713 C 0.42987 0.99397 0.28299 0.0
C2714 C 0.40969 0.00957 0.29627 0.0
H2715 H 0.3436 0.95643 0.31992 0.0
H2716 H 0.36826 0.96643 0.31285 0.0
H2717 H 0.39131 0.01103 0.29933 0.0
H2718 H 0.46187 0.03179 0.27984 0.0
H2719 H 0.44051 0.0272 0.29518 0.0
H2720 H 0.41439 0.98464 0.31518 0.0
C2721 C 0.36486 0.97329 0.31756 0.0
C2722 C 0.39641 0.00541 0.30323 0.0
C2723 C 0.35065 0.96757 0.32148 0.0
C2724 C 0.45297 0.02119 0.28042 0.0
C2725 C 0.44077 0.01858 0.28927 0.0
C2726 C 0.40952 0.99056 0.31177 0.0
C2727 C 0.37445 0.98769 0.31916 0.0
C2728 C 0.38941 0.99354 0.31411 0.0
C2729 C 0.42916 0.00491 0.29075 0.0
C2730 C 0.41615 0.00189 0.30003 0.0
H2731 H 0.35161 0.9973 0.33328 0.0
H2732 H 0.37666 0.00738 0.32631 0.0
H2733 H 0.39134 0.97746 0.32744 0.0
H2734 H 0.44196 0.98789 0.26789 0.0
H2735 H 0.42096 0.98336 0.28358 0.0
C2736 C 0.6422 0.00024 0.34741 0.0
C2737 C 0.64438 0.98967 0.34151 0.0
C2738 C 0.63187 0.00211 0.33942 0.0
C2739 C 0.59926 0.98489 0.31258 0.0
H2740 H 0.61105 0.02242 0.29756 0.0
C2741 C 0.5641 0.99633 0.2673 0.0
C2742 C 0.56418 0.00869 0.27025 0.0
C2743 C 0.57366 0.99384 0.27629 0.0
C2744 C 0.60747 0.01191 0.3019 0.0
H2745 H 0.63706 0.97243 0.32302 0.0
H2746 H 0.61886 0.97559 0.30922 0.0
H2747 H 0.62768 0.0181 0.31333 0.0
H2748 H 0.57414 0.02803 0.28511 0.0
H2749 H 0.59061 0.02358 0.30118 0.0
H2750 H 0.57899 0.97869 0.30145 0.0
C2751 C 0.62521 0.98246 0.32 0.0
C2752 C 0.61704 0.00944 0.3109 0.0
C2753 C 0.63566 0.98069 0.32786 0.0
C2754 C 0.57397 0.01849 0.28242 0.0
C2755 C 0.58343 0.01594 0.29158 0.0
C2756 C 0.58962 0.98738 0.30375 0.0
C2757 C 0.62339 0.99334 0.32549 0.0
C2758 C 0.61306 0.99591 0.31628 0.0
C2759 C 0.58343 0.00358 0.28861 0.0
C2760 C 0.59362 0.00092 0.29823 0.0
H2761 H 0.64872 0.00735 0.35789 0.0
H2762 H 0.63058 0.01048 0.34405 0.0
H2763 H 0.59587 0.97438 0.31673 0.0
H2764 H 0.55676 0.98867 0.25782 0.0
H2765 H 0.5735 0.98434 0.27338 0.0
C2766 C 0.022 0.65767 0.32984 0.0
C2767 C 0.01187 0.65558 0.34257 0.0
C2768 C 0.02144 0.64632 0.32144 0.0
C2769 C 0.99693 0.60952 0.30992 0.0
H2770 H 0.03102 0.60851 0.30366 0.0
C2771 C 0.9951 0.56065 0.28307 0.0
C2772 C 0.00574 0.5626 0.27132 0.0
C2773 C 0.99603 0.57197 0.29203 0.0
C2774 C 0.02142 0.6087 0.30508 0.0
H2775 H 0.99324 0.6399 0.35646 0.0
H2776 H 0.99225 0.62011 0.34174 0.0
H2777 H 0.03231 0.62833 0.31869 0.0
H2778 H 0.02567 0.57798 0.25965 0.0
H2779 H 0.02723 0.59779 0.27506 0.0
H2780 H 0.98604 0.59004 0.29611 0.0
C2781 C 0.00058 0.63054 0.33822 0.0
C2782 C 0.02217 0.62005 0.31374 0.0
C2783 C 0.0012 0.64188 0.34672 0.0
C2784 C 0.01739 0.57612 0.26879 0.0
C2785 C 0.01828 0.58747 0.27766 0.0
C2786 C 0.99619 0.59822 0.30116 0.0
C2787 C 0.01068 0.63263 0.32547 0.0
C2788 C 0.00992 0.62057 0.31629 0.0
C2789 C 0.00759 0.58555 0.28937 0.0
C2790 C 0.00842 0.59764 0.29866 0.0
H2791 H 0.03036 0.66808 0.32633 0.0
H2792 H 0.02929 0.64827 0.31156 0.0
H2793 H 0.98734 0.60973 0.31144 0.0
H2794 H 0.9861 0.55032 0.28551 0.0
H2795 H 0.98774 0.57004 0.3012 0.0
C2796 C 0.36167 0.35755 0.32164 0.0
C2797 C 0.35758 0.36637 0.32899 0.0
C2798 C 0.37556 0.36297 0.31599 0.0
C2799 C 0.41187 0.39182 0.32148 0.0
H2800 H 0.41604 0.38853 0.2709 0.0
C2801 C 0.46234 0.43063 0.28475 0.0
C2802 C 0.46622 0.42661 0.26918 0.0
C2803 C 0.44989 0.42135 0.29352 0.0
C2804 C 0.41518 0.3893 0.28513 0.0
H2805 H 0.36488 0.38759 0.337 0.0
H2806 H 0.38922 0.39695 0.32765 0.0
H2807 H 0.39272 0.37543 0.28415 0.0
H2808 H 0.46025 0.40934 0.25115 0.0
H2809 H 0.43888 0.39292 0.26697 0.0
H2810 H 0.43425 0.4056 0.32264 0.0
C2811 C 0.38166 0.38591 0.32606 0.0
C2812 C 0.40178 0.38182 0.29268 0.0
C2813 C 0.36774 0.38057 0.33131 0.0
C2814 C 0.45765 0.41281 0.26314 0.0
C2815 C 0.44526 0.40343 0.27209 0.0
C2816 C 0.42531 0.39909 0.31402 0.0
C2817 C 0.38562 0.37721 0.31806 0.0
C2818 C 0.39997 0.38334 0.31079 0.0
C2819 C 0.44105 0.40767 0.28719 0.0
C2820 C 0.4271 0.3983 0.29562 0.0
H2821 H 0.35403 0.34657 0.31964 0.0
H2822 H 0.37841 0.3561 0.30983 0.0
H2823 H 0.41071 0.39304 0.33553 0.0
H2824 H 0.46882 0.44107 0.29006 0.0
H2825 H 0.44699 0.42513 0.30494 0.0
C2826 C 0.31559 0.28892 0.34189 0.0
C2827 C 0.31532 0.29919 0.35213 0.0
C2828 C 0.31774 0.27894 0.35003 0.0
C2829 C 0.31759 0.26376 0.39437 0.0
H2830 H 0.34133 0.2529 0.3708 0.0
C2831 C 0.34202 0.23586 0.43073 0.0
C2832 C 0.34046 0.22402 0.42226 0.0
C2833 C 0.33852 0.24458 0.42176 0.0
C2834 C 0.33459 0.25576 0.37746 0.0
H2835 H 0.31702 0.307 0.37897 0.0
H2836 H 0.32115 0.28997 0.39302 0.0
H2837 H 0.33564 0.26871 0.35587 0.0
H2838 H 0.33436 0.21219 0.39768 0.0
H2839 H 0.32842 0.22759 0.38188 0.0
H2840 H 0.31696 0.25112 0.41618 0.0
C2841 C 0.31935 0.28932 0.37877 0.0
C2842 C 0.33126 0.26476 0.36889 0.0
C2843 C 0.31706 0.29917 0.37068 0.0
C2844 C 0.33557 0.22121 0.40454 0.0
C2845 C 0.33227 0.23004 0.39548 0.0
C2846 C 0.32108 0.25491 0.40301 0.0
C2847 C 0.3198 0.2791 0.36857 0.0
C2848 C 0.32279 0.26896 0.37728 0.0
C2849 C 0.33358 0.24174 0.40407 0.0
C2850 C 0.32967 0.25089 0.39469 0.0
H2851 H 0.31423 0.28862 0.32757 0.0
H2852 H 0.31779 0.2711 0.34176 0.0
H2853 H 0.31079 0.26649 0.40111 0.0
H2854 H 0.34567 0.23821 0.44442 0.0
H2855 H 0.33974 0.25359 0.42863 0.0
C2856 C 0.70072 0.03262 0.3605 0.0
C2857 C 0.70994 0.02759 0.35936 0.0
C2858 C 0.70592 0.04658 0.36488 0.0
C2859 C 0.73918 0.08114 0.36785 0.0
H2860 H 0.7203 0.0886 0.40542 0.0
C2861 C 0.76852 0.12773 0.4144 0.0
C2862 C 0.76267 0.13596 0.41792 0.0
C2863 C 0.76083 0.11525 0.40505 0.0
C2864 C 0.72555 0.08671 0.3947 0.0
H2865 H 0.73189 0.0334 0.36141 0.0
H2866 H 0.74084 0.05751 0.36912 0.0
H2867 H 0.70902 0.06529 0.39227 0.0
H2868 H 0.7439 0.13721 0.41466 0.0
H2869 H 0.73025 0.11501 0.39867 0.0
H2870 H 0.75598 0.10235 0.37087 0.0
C2871 C 0.72964 0.05079 0.36646 0.0
C2872 C 0.71909 0.07339 0.38715 0.0
C2873 C 0.72447 0.03689 0.36217 0.0
C2874 C 0.74871 0.13112 0.41226 0.0
C2875 C 0.74092 0.11847 0.40304 0.0
C2876 C 0.74564 0.09438 0.37547 0.0
C2877 C 0.72043 0.05578 0.36807 0.0
C2878 C 0.72606 0.07035 0.37403 0.0
C2879 C 0.74701 0.11053 0.39917 0.0
C2880 C 0.73909 0.09717 0.38933 0.0
H2881 H 0.68947 0.02572 0.3584 0.0
H2882 H 0.69857 0.05015 0.3659 0.0
H2883 H 0.74468 0.07923 0.35748 0.0
H2884 H 0.77904 0.13085 0.41902 0.0
H2885 H 0.76566 0.10917 0.40264 0.0
C2886 C 0.97453 0.6965 0.38077 0.0
C2887 C 0.98076 0.68889 0.37582 0.0
C2888 C 0.96061 0.68973 0.38643 0.0
C2889 C 0.92652 0.65676 0.38646 0.0
H2890 H 0.92053 0.67348 0.42785 0.0
C2891 C 0.87241 0.63507 0.42258 0.0
C2892 C 0.8692 0.64524 0.42712 0.0
C2893 C 0.88565 0.639 0.41565 0.0
C2894 C 0.92201 0.66872 0.41623 0.0
H2895 H 0.97699 0.66809 0.37222 0.0
H2896 H 0.9524 0.65614 0.38232 0.0
H2897 H 0.94435 0.68264 0.41709 0.0
H2898 H 0.87701 0.66738 0.42682 0.0
H2899 H 0.90003 0.67418 0.41498 0.0
H2900 H 0.90399 0.64287 0.38567 0.0
C2901 C 0.95844 0.66741 0.38175 0.0
C2902 C 0.93565 0.67397 0.41007 0.0
C2903 C 0.9725 0.67424 0.37601 0.0
C2904 C 0.87927 0.65932 0.42391 0.0
C2905 C 0.89245 0.66322 0.4171 0.0
C2906 C 0.91278 0.65144 0.39271 0.0
C2907 C 0.95249 0.67514 0.38739 0.0
C2908 C 0.93805 0.66831 0.39484 0.0
C2909 C 0.8959 0.65314 0.41323 0.0
C2910 C 0.91039 0.65764 0.40739 0.0
H2911 H 0.98048 0.70778 0.38054 0.0
H2912 H 0.95622 0.69597 0.39025 0.0
H2913 H 0.92807 0.6522 0.3747 0.0
H2914 H 0.86488 0.62414 0.42496 0.0
H2915 H 0.88805 0.63102 0.4128 0.0
C2916 C 0.36644 0.02289 0.70986 0.0
C2917 C 0.3622 0.01928 0.69201 0.0
C2918 C 0.37676 0.0208 0.71742 0.0
C2919 C 0.39326 0.99981 0.71172 0.0
H2920 H 0.42041 0.02578 0.74619 0.0
C2921 C 0.43742 0.99314 0.74277 0.0
C2922 C 0.4397 0.99549 0.76121 0.0
C2923 C 0.42857 0.99651 0.73358 0.0
C2924 C 0.41283 0.01838 0.73667 0.0
H2925 H 0.36581 0.01101 0.66797 0.0
H2926 H 0.38396 0.00757 0.68109 0.0
H2927 H 0.40422 0.0312 0.73127 0.0
H2928 H 0.43416 0.00295 0.78446 0.0
H2929 H 0.41885 0.00891 0.76842 0.0
H2930 H 0.40186 0.98697 0.7172 0.0
C2931 C 0.37912 0.01179 0.68933 0.0
C2932 C 0.40354 0.02148 0.72813 0.0
C2933 C 0.36877 0.01385 0.68178 0.0
C2934 C 0.43288 0.00125 0.77022 0.0
C2935 C 0.42408 0.00467 0.76102 0.0
C2936 C 0.40259 0.99674 0.72022 0.0
C2937 C 0.38312 0.01508 0.70731 0.0
C2938 C 0.39354 0.01217 0.71568 0.0
C2939 C 0.42184 0.00236 0.7426 0.0
C2940 C 0.41238 0.00592 0.73293 0.0
H2941 H 0.36158 0.02706 0.71814 0.0
H2942 H 0.37945 0.0233 0.73135 0.0
H2943 H 0.38556 0.9923 0.7024 0.0
H2944 H 0.44266 0.98889 0.73538 0.0
H2945 H 0.42717 0.99474 0.71935 0.0
C2946 C 0.981 0.35583 0.67839 0.0
C2947 C 0.98333 0.34644 0.68798 0.0
C2948 C 0.98227 0.36752 0.68675 0.0
C2949 C 0.98338 0.38222 0.73143 0.0
H2950 H 0.00037 0.41717 0.70572 0.0
C2951 C 0.00058 0.43473 0.76563 0.0
C2952 C 0.99695 0.44352 0.75688 0.0
C2953 C 0.99872 0.42284 0.75716 0.0
C2954 C 0.99549 0.40746 0.71301 0.0
H2955 H 0.98882 0.342 0.71393 0.0
H2956 H 0.99135 0.3625 0.7284 0.0
H2957 H 0.99743 0.39649 0.69113 0.0
H2958 H 0.98872 0.44684 0.73229 0.0
H2959 H 0.9855 0.42606 0.71746 0.0
H2960 H 0.9817 0.39331 0.75342 0.0
C2961 C 0.98825 0.36071 0.71449 0.0
C2962 C 0.99376 0.39557 0.70464 0.0
C2963 C 0.98688 0.34897 0.70616 0.0
C2964 C 0.99152 0.44021 0.73941 0.0
C2965 C 0.98979 0.42839 0.73088 0.0
C2966 C 0.98522 0.39413 0.73983 0.0
C2967 C 0.986 0.37016 0.7049 0.0
C2968 C 0.98768 0.38279 0.71374 0.0
C2969 C 0.9933 0.41953 0.73969 0.0
C2970 C 0.9913 0.40688 0.73072 0.0
H2971 H 0.97817 0.35415 0.66439 0.0
H2972 H 0.98022 0.37443 0.679 0.0
H2973 H 0.97843 0.37252 0.73876 0.0
H2974 H 0.00467 0.43695 0.77915 0.0
H2975 H 0.00164 0.41628 0.76424 0.0
C2976 C 0.63925 0.64704 0.70916 0.0
C2977 C 0.64231 0.63737 0.70206 0.0
C2978 C 0.62565 0.6426 0.71524 0.0
C2979 C 0.5886 0.6153 0.71107 0.0
H2980 H 0.58569 0.61897 0.76187 0.0
C2981 C 0.53908 0.57712 0.7494 0.0
C2982 C 0.53555 0.58122 0.76517 0.0
C2983 C 0.55129 0.58637 0.74019 0.0
C2984 C 0.58622 0.61814 0.74759 0.0
H2985 H 0.63352 0.6157 0.69494 0.0
H2986 H 0.60972 0.60808 0.70501 0.0
H2987 H 0.60879 0.63127 0.74788 0.0
H2988 H 0.54181 0.59858 0.78314 0.0
H2989 H 0.56288 0.61495 0.76666 0.0
H2990 H 0.56612 0.60214 0.71062 0.0
C2991 C 0.61784 0.61901 0.70608 0.0
C2992 C 0.59949 0.62516 0.73962 0.0
C2993 C 0.63145 0.62335 0.70044 0.0
C2994 C 0.54419 0.59507 0.77102 0.0
C2995 C 0.55637 0.60441 0.76167 0.0
C2996 C 0.57531 0.60849 0.71895 0.0
C2997 C 0.61488 0.62854 0.7138 0.0
C2998 C 0.6008 0.6234 0.72143 0.0
C2999 C 0.56023 0.60009 0.74633 0.0
C3000 C 0.57399 0.60936 0.73745 0.0
H3001 H 0.64746 0.6579 0.71061 0.0
H3002 H 0.62358 0.6501 0.7212 0.0
H3003 H 0.58939 0.6139 0.69696 0.0
H3004 H 0.53252 0.56662 0.74428 0.0
H3005 H 0.55394 0.58254 0.72861 0.0
C3006 C 0.68555 0.71252 0.68611 0.0
C3007 C 0.68549 0.70218 0.67562 0.0
C3008 C 0.68298 0.72235 0.67836 0.0
C3009 C 0.66464 0.72654 0.6405 0.0
H3010 H 0.68791 0.76614 0.65006 0.0
C3011 C 0.65706 0.76637 0.60141 0.0
C3012 C 0.65919 0.77824 0.6104 0.0
C3013 C 0.6604 0.75728 0.60965 0.0
C3014 C 0.68115 0.75509 0.64745 0.0
H3015 H 0.68303 0.69425 0.64868 0.0
H3016 H 0.67841 0.71127 0.63529 0.0
H3017 H 0.69378 0.75015 0.6641 0.0
H3018 H 0.66618 0.78977 0.63518 0.0
H3019 H 0.67164 0.7737 0.64983 0.0
H3020 H 0.65179 0.73129 0.62424 0.0
C3021 C 0.68041 0.71175 0.64949 0.0
C3022 C 0.68458 0.74596 0.65545 0.0
C3023 C 0.68314 0.70206 0.65717 0.0
C3024 C 0.66458 0.78076 0.62788 0.0
C3025 C 0.66776 0.77158 0.63622 0.0
C3026 C 0.66111 0.73562 0.63269 0.0
C3027 C 0.68013 0.72188 0.66003 0.0
C3028 C 0.67642 0.73161 0.65192 0.0
C3029 C 0.66579 0.75975 0.62719 0.0
C3030 C 0.66938 0.75004 0.63593 0.0
H3031 H 0.68734 0.7129 0.70035 0.0
H3032 H 0.68279 0.73003 0.68679 0.0
H3033 H 0.65803 0.71548 0.63778 0.0
H3034 H 0.6531 0.76429 0.58783 0.0
H3035 H 0.659 0.74845 0.60212 0.0
C3036 C 0.28075 0.97134 0.67371 0.0
C3037 C 0.29508 0.98096 0.67061 0.0
C3038 C 0.27465 0.95749 0.66835 0.0
C3039 C 0.28279 0.93143 0.6503 0.0
H3040 H 0.24424 0.91423 0.63277 0.0
C3041 C 0.25281 0.88219 0.60441 0.0
C3042 C 0.23935 0.8719 0.61045 0.0
C3043 C 0.26058 0.89496 0.61333 0.0
C3044 C 0.25498 0.91888 0.63774 0.0
H3045 H 0.31441 0.98365 0.65995 0.0
H3046 H 0.30363 0.95964 0.64971 0.0
H3047 H 0.25585 0.93754 0.64527 0.0
H3048 H 0.22404 0.86671 0.6314 0.0
H3049 H 0.23735 0.88918 0.64637 0.0
H3050 H 0.28191 0.91278 0.6417 0.0
C3051 C 0.29713 0.96259 0.65678 0.0
C3052 C 0.26164 0.93222 0.64507 0.0
C3053 C 0.30333 0.9764 0.66257 0.0
C3054 C 0.23416 0.8745 0.62603 0.0
C3055 C 0.24181 0.88731 0.63473 0.0
C3056 C 0.27618 0.91814 0.64258 0.0
C3057 C 0.28262 0.95301 0.65926 0.0
C3058 C 0.27561 0.93867 0.65161 0.0
C3059 C 0.25496 0.89772 0.62828 0.0
C3060 C 0.26219 0.91175 0.63638 0.0
H3061 H 0.27421 0.97456 0.68011 0.0
H3062 H 0.26357 0.95037 0.67108 0.0
H3063 H 0.29348 0.93594 0.65535 0.0
H3064 H 0.25711 0.88062 0.5924 0.0
H3065 H 0.27069 0.9029 0.60808 0.0
C3066 C 0.03342 0.33585 0.66071 0.0
C3067 C 0.02683 0.32132 0.66238 0.0
C3068 C 0.04782 0.344 0.65671 0.0
C3069 C 0.0809 0.34336 0.65627 0.0
H3070 H 0.09051 0.36745 0.61513 0.0
C3071 C 0.12207 0.36161 0.5959 0.0
C3072 C 0.13453 0.36491 0.60512 0.0
C3073 C 0.11039 0.3599 0.60505 0.0
C3074 C 0.08802 0.36084 0.62672 0.0
H3075 H 0.03029 0.30403 0.66198 0.0
H3076 H 0.05523 0.31815 0.65515 0.0
H3077 H 0.06711 0.35727 0.62822 0.0
H3078 H 0.14475 0.36967 0.63106 0.0
H3079 H 0.12433 0.36677 0.64708 0.0
H3080 H 0.10145 0.34624 0.65421 0.0
C3081 C 0.04936 0.32331 0.65693 0.0
C3082 C 0.07467 0.35513 0.63432 0.0
C3083 C 0.03502 0.31519 0.66069 0.0
C3084 C 0.1353 0.36715 0.62359 0.0
C3085 C 0.12358 0.36538 0.63277 0.0
C3086 C 0.09424 0.34909 0.64872 0.0
C3087 C 0.0559 0.33777 0.65463 0.0
C3088 C 0.07081 0.34593 0.64878 0.0
C3089 C 0.11089 0.36143 0.62365 0.0
C3090 C 0.09778 0.35751 0.63348 0.0
H3091 H 0.02737 0.34087 0.66193 0.0
H3092 H 0.05261 0.35514 0.65506 0.0
H3093 H 0.07827 0.33644 0.66756 0.0
H3094 H 0.12124 0.36001 0.58163 0.0
H3095 H 0.10076 0.35672 0.59761 0.0
C3096 C 0.31195 0.32616 0.66446 0.0
C3097 C 0.30724 0.31222 0.66868 0.0
C3098 C 0.30248 0.32994 0.65835 0.0
C3099 C 0.26759 0.31558 0.6368 0.0
H3100 H 0.27162 0.35038 0.65211 0.0
C3101 C 0.22812 0.33169 0.61484 0.0
C3102 C 0.2339 0.34558 0.6094 0.0
C3103 C 0.23654 0.32747 0.62335 0.0
C3104 C 0.27043 0.34068 0.6476 0.0
H3105 H 0.28882 0.29134 0.66993 0.0
H3106 H 0.27223 0.29798 0.65935 0.0
H3107 H 0.28716 0.34312 0.66464 0.0
H3108 H 0.25304 0.36599 0.60888 0.0
H3109 H 0.26775 0.35864 0.62376 0.0
H3110 H 0.25095 0.31321 0.61964 0.0
C3111 C 0.28331 0.30595 0.66061 0.0
C3112 C 0.27933 0.33651 0.65478 0.0
C3113 C 0.2928 0.30216 0.66674 0.0
C3114 C 0.24822 0.35525 0.61308 0.0
C3115 C 0.25665 0.35103 0.62161 0.0
C3116 C 0.25869 0.31974 0.62963 0.0
C3117 C 0.28805 0.31989 0.6563 0.0
C3118 C 0.2781 0.32397 0.64935 0.0
C3119 C 0.25094 0.33705 0.62666 0.0
C3120 C 0.26007 0.33239 0.63484 0.0
H3121 H 0.32301 0.3342 0.66574 0.0
H3122 H 0.30654 0.34073 0.6549 0.0
H3123 H 0.26649 0.30596 0.63213 0.0
H3124 H 0.21706 0.32404 0.6125 0.0
H3125 H 0.23175 0.31669 0.62737 0.0
C3126 C 0.68246 0.98961 0.65453 0.0
C3127 C 0.68685 0.99289 0.67238 0.0
C3128 C 0.67962 0.97703 0.64713 0.0
C3129 C 0.67122 0.94155 0.6592 0.0
H3130 H 0.68161 0.94088 0.61027 0.0
C3131 C 0.66667 0.8928 0.62628 0.0
C3132 C 0.66104 0.88962 0.6089 0.0
C3133 C 0.66996 0.90532 0.63439 0.0
C3134 C 0.67853 0.94088 0.6239 0.0
H3135 H 0.69181 0.98551 0.69644 0.0
H3136 H 0.6871 0.96362 0.68343 0.0
H3137 H 0.6874 0.96291 0.62379 0.0
H3138 H 0.65452 0.89713 0.58637 0.0
H3139 H 0.66019 0.91895 0.60055 0.0
H3140 H 0.66245 0.91947 0.65927 0.0
C3141 C 0.68562 0.9707 0.67523 0.0
C3142 C 0.68183 0.95351 0.63166 0.0
C3143 C 0.6884 0.98329 0.68266 0.0
C3144 C 0.65873 0.89922 0.59983 0.0
C3145 C 0.66211 0.91178 0.60788 0.0
C3146 C 0.66799 0.92892 0.65145 0.0
C3147 C 0.68119 0.96741 0.65736 0.0
C3148 C 0.67812 0.954 0.64936 0.0
C3149 C 0.66779 0.91499 0.62524 0.0
C3150 C 0.67151 0.92843 0.63367 0.0
H3151 H 0.68107 0.99672 0.64624 0.0
H3152 H 0.67599 0.97476 0.63344 0.0
H3153 H 0.66802 0.9415 0.67277 0.0
H3154 H 0.66846 0.88555 0.63366 0.0
H3155 H 0.6744 0.90754 0.64773 0.0
C3156 C 0.02529 0.69175 0.65666 0.0
C3157 C 0.01881 0.69965 0.65514 0.0
C3158 C 0.03962 0.69772 0.65273 0.0
C3159 C 0.06762 0.71096 0.63258 0.0
H3160 H 0.09356 0.74957 0.64549 0.0
C3161 C 0.12109 0.74597 0.59799 0.0
C3162 C 0.13218 0.75686 0.60776 0.0
C3163 C 0.10793 0.73737 0.60583 0.0
C3164 C 0.08658 0.73871 0.64202 0.0
H3165 H 0.02235 0.71999 0.64827 0.0
H3166 H 0.0471 0.73025 0.64127 0.0
H3167 H 0.06941 0.73781 0.65585 0.0
H3168 H 0.13863 0.76668 0.63368 0.0
H3169 H 0.11582 0.75147 0.64755 0.0
H3170 H 0.08489 0.7119 0.61877 0.0
C3171 C 0.04123 0.71954 0.64578 0.0
C3172 C 0.07264 0.73202 0.64776 0.0
C3173 C 0.02698 0.71361 0.64968 0.0
C3174 C 0.13016 0.75848 0.62579 0.0
C3175 C 0.11708 0.7498 0.63369 0.0
C3176 C 0.08163 0.71766 0.62686 0.0
C3177 C 0.04775 0.7117 0.64728 0.0
C3178 C 0.06291 0.71818 0.64277 0.0
C3179 C 0.10567 0.73943 0.62366 0.0
C3180 C 0.09121 0.73171 0.63123 0.0
H3181 H 0.01929 0.68097 0.66084 0.0
H3182 H 0.04436 0.69144 0.65411 0.0
H3183 H 0.06037 0.7003 0.62846 0.0
H3184 H 0.12235 0.74457 0.58403 0.0
H3185 H 0.09936 0.7296 0.59764 0.0
C3186 C 0.99278 0.63156 0.67495 0.0
C3187 C 0.98198 0.63407 0.67906 0.0
C3188 C 0.99349 0.62082 0.68334 0.0
C3189 C 0.98126 0.59881 0.72378 0.0
H3190 H 0.99466 0.57778 0.699 0.0
C3191 C 0.98145 0.55201 0.7556 0.0
C3192 C 0.99386 0.5517 0.75358 0.0
C3193 C 0.97947 0.56158 0.7461 0.0
C3194 C 0.99099 0.58364 0.70612 0.0
H3195 H 0.96314 0.62694 0.69475 0.0
H3196 H 0.96415 0.60799 0.70905 0.0
H3197 H 0.99173 0.59497 0.6828 0.0
H3198 H 0.01383 0.56103 0.73982 0.0
H3199 H 0.01038 0.57777 0.72321 0.0
H3200 H 0.98043 0.58737 0.74706 0.0
C3201 C 0.9723 0.61454 0.69967 0.0
C3202 C 0.98933 0.59351 0.69685 0.0
C3203 C 0.97166 0.62534 0.69138 0.0
C3204 C 0.00421 0.5611 0.74175 0.0
C3205 C 0.00217 0.57058 0.73212 0.0
C3206 C 0.98281 0.58886 0.733 0.0
C3207 C 0.98334 0.61226 0.69596 0.0
C3208 C 0.98454 0.60131 0.70559 0.0
C3209 C 0.9898 0.57096 0.73425 0.0
C3210 C 0.98778 0.58124 0.7243 0.0
H3211 H 0.00094 0.63812 0.66558 0.0
H3212 H 0.00225 0.61951 0.68031 0.0
H3213 H 0.97781 0.60478 0.73105 0.0
H3214 H 0.97334 0.54496 0.76472 0.0
H3215 H 0.96979 0.56157 0.74792 0.0
C3216 C 0.37359 0.36393 0.70133 0.0
C3217 C 0.38082 0.35675 0.70261 0.0
C3218 C 0.37984 0.37763 0.7076 0.0
C3219 C 0.4145 0.40822 0.72139 0.0
H3220 H 0.39173 0.41801 0.74935 0.0
C3221 C 0.43913 0.45407 0.77022 0.0
C3222 C 0.43422 0.46335 0.76967 0.0
C3223 C 0.43211 0.44154 0.76081 0.0
C3224 C 0.39817 0.41547 0.74139 0.0
H3225 H 0.40041 0.35846 0.7112 0.0
H3226 H 0.41114 0.38208 0.72233 0.0
H3227 H 0.38055 0.39538 0.73445 0.0
H3228 H 0.4178 0.46648 0.75908 0.0
H3229 H 0.40531 0.44432 0.74294 0.0
H3230 H 0.43218 0.42812 0.72884 0.0
C3231 C 0.40075 0.37729 0.71623 0.0
C3232 C 0.39178 0.40254 0.7328 0.0
C3233 C 0.39454 0.36367 0.70993 0.0
C3234 C 0.42181 0.45954 0.75992 0.0
C3235 C 0.41468 0.44689 0.75062 0.0
C3236 C 0.42088 0.42106 0.73009 0.0
C3237 C 0.39345 0.38442 0.71529 0.0
C3238 C 0.39992 0.39866 0.72297 0.0
C3239 C 0.41991 0.43789 0.75077 0.0
C3240 C 0.41283 0.42472 0.74043 0.0
H3241 H 0.36301 0.35892 0.69573 0.0
H3242 H 0.374 0.38287 0.70648 0.0
H3243 H 0.42104 0.40572 0.71359 0.0
H3244 H 0.44843 0.45647 0.77795 0.0
H3245 H 0.4362 0.43466 0.76148 0.0
C3246 C 0.64571 0.03542 0.70397 0.0
C3247 C 0.65152 0.0274 0.69916 0.0
C3248 C 0.63243 0.02921 0.71166 0.0
C3249 C 0.59872 0.99678 0.71805 0.0
H3250 H 0.59715 0.01643 0.75942 0.0
C3251 C 0.54826 0.97843 0.76097 0.0
C3252 C 0.54586 0.98908 0.76584 0.0
C3253 C 0.56081 0.98166 0.75252 0.0
C3254 C 0.59738 0.01086 0.74783 0.0
H3255 H 0.6476 0.0064 0.69793 0.0
H3256 H 0.62414 0.99547 0.71148 0.0
H3257 H 0.61965 0.02451 0.74505 0.0
H3258 H 0.5543 0.01133 0.7647 0.0
H3259 H 0.57607 0.01692 0.7501 0.0
H3260 H 0.57628 0.98325 0.72078 0.0
C3261 C 0.63002 0.00661 0.70926 0.0
C3262 C 0.61027 0.01547 0.73962 0.0
C3263 C 0.64343 0.01287 0.70154 0.0
C3264 C 0.55599 0.00292 0.76154 0.0
C3265 C 0.56847 0.00613 0.75316 0.0
C3266 C 0.58573 0.99214 0.72631 0.0
C3267 C 0.62457 0.01481 0.71477 0.0
C3268 C 0.61103 0.00873 0.72438 0.0
C3269 C 0.57115 0.99558 0.74885 0.0
C3270 C 0.58491 0.99938 0.741 0.0
H3271 H 0.65153 0.04661 0.70213 0.0
H3272 H 0.62837 0.03575 0.7154 0.0
H3273 H 0.59904 0.99139 0.70632 0.0
H3274 H 0.54065 0.96767 0.76416 0.0
H3275 H 0.56261 0.97332 0.74936 0.0
loop_
_geom_bond_atom_site_label_1
_geom_bond_atom_site_label_2
_geom_bond_distance
_geom_bond_site_symmetry_2
_ccdc_geom_bond_type
Zn0 O3 2.031 1_554 S
Zn0 O5 2.049 . S
Zn0 O10 2.067 1_554 S
Zn1 O2 1.962 1_455 S
Zn1 O4 1.986 . S
Zn1 O6 1.996 1_455 S
Zn1 O9 1.943 . S
O2 Zn1 1.962 1_655 S
O2 C7 1.254 . S
O3 Zn0 2.031 1_556 S
O3 C7 1.269 1_556 S
O4 Zn1 1.986 . S
O4 C11 1.262 . S
O5 Zn0 2.049 . S
O5 C13 1.260 . S
O6 Zn1 1.996 1_655 S
O6 C13 1.257 . S
C7 O2 1.254 . S
C7 O3 1.269 1_554 S
C8 O9 1.249 1_556 S
C8 O10 1.270 1_455 S
O9 Zn1 1.943 . S
O9 C8 1.249 1_554 S
O10 Zn0 2.067 1_556 S
O10 C8 1.270 1_655 S
C11 O4 1.262 . S
C11 O12 1.232 . S
O12 C11 1.232 . S
C13 O5 1.260 . S
C13 O6 1.257 . S
Zn14 O17 2.031 1_554 S
Zn14 O19 2.049 . S
Zn14 O24 2.067 1_554 S
Zn15 O16 1.962 . S
Zn15 O18 1.986 . S
Zn15 O20 1.996 . S
Zn15 O23 1.943 . S
O16 Zn15 1.962 . S
O16 C21 1.254 . S
O17 Zn14 2.031 1_556 S
O17 C21 1.269 1_556 S
O18 Zn15 1.986 . S
O18 C25 1.262 . S
O19 Zn14 2.049 . S
O19 C27 1.260 . S
O20 Zn15 1.996 . S
O20 C27 1.257 . S
C21 O16 1.254 . S
C21 O17 1.269 1_554 S
C22 O23 1.249 1_556 S
C22 O24 1.270 . S
O23 Zn15 1.943 . S
O23 C22 1.249 1_554 S
O24 Zn14 2.067 1_556 S
O24 C22 1.270 . S
C25 O18 1.262 . S
C25 O26 1.232 . S
O26 C25 1.232 . S
C27 O19 1.260 . S
C27 O20 1.257 . S
Zn28 O31 2.031 . S
Zn28 O33 2.049 1_554 S
Zn28 O38 2.116 . S
Zn29 O30 1.962 1_545 S
Zn29 O32 1.986 1_554 S
Zn29 O34 1.996 1_544 S
Zn29 O37 1.943 . S
O30 Zn29 1.962 1_565 S
O30 C35 1.254 . S
O31 Zn28 2.031 . S
O31 C35 1.269 . S
O32 Zn29 1.986 1_556 S
O32 C39 1.262 1_556 S
O33 Zn28 2.049 1_556 S
O33 C41 1.260 . S
O34 Zn29 1.996 1_566 S
O34 C41 1.257 . S
C35 O30 1.254 . S
C35 O31 1.269 . S
C36 O37 1.249 . S
C36 O38 1.181 1_545 S
O37 Zn29 1.943 . S
O37 C36 1.249 . S
O38 Zn28 2.116 . S
O38 C36 1.181 1_565 S
C39 O32 1.262 1_554 S
C39 O40 1.232 . S
O40 C39 1.232 . S
C41 O33 1.260 . S
C41 O34 1.257 . S
Zn42 O45 2.031 . S
Zn42 O47 2.049 1_554 S
Zn42 O52 2.067 . S
Zn43 O44 1.962 1_655 S
Zn43 O46 1.986 1_554 S
Zn43 O48 1.996 1_654 S
Zn43 O51 1.943 . S
O44 Zn43 1.962 1_455 S
O44 C49 1.254 . S
O45 Zn42 2.031 . S
O45 C49 1.269 . S
O46 Zn43 1.986 1_556 S
O46 C53 1.262 1_556 S
O47 Zn42 2.049 1_556 S
O47 C55 1.260 . S
O48 Zn43 1.996 1_456 S
O48 C55 1.257 . S
C49 O44 1.254 . S
C49 O45 1.269 . S
C50 O51 1.249 . S
C50 O52 1.270 1_655 S
O51 Zn43 1.943 . S
O51 C50 1.249 . S
O52 Zn42 2.067 . S
O52 C50 1.270 1_455 S
C53 O46 1.262 1_554 S
C53 O54 1.232 . S
O54 C53 1.232 . S
C55 O47 1.260 . S
C55 O48 1.257 . S
Zn56 O59 2.031 . S
Zn56 O61 2.049 1_554 S
Zn56 O66 2.067 . S
Zn57 O58 1.962 . S
Zn57 O60 1.986 1_554 S
Zn57 O62 1.996 1_554 S
Zn57 O65 1.943 . S
O58 Zn57 1.962 . S
O58 C63 1.254 . S
O59 Zn56 2.031 . S
O59 C63 1.269 . S
O60 Zn57 1.986 1_556 S
O60 C67 1.247 1_556 S
O61 Zn56 2.049 1_556 S
O61 C69 1.260 . S
O62 Zn57 1.996 1_556 S
O62 C69 1.257 . S
C63 O58 1.254 . S
C63 O59 1.269 . S
C64 O65 1.249 . S
C64 O66 1.270 . S
O65 Zn57 1.943 . S
O65 C64 1.249 . S
O66 Zn56 2.067 . S
O66 C64 1.270 . S
C67 O60 1.247 1_554 S
C67 O68 1.258 . S
O68 C67 1.258 . S
C69 O61 1.260 . S
C69 O62 1.257 . S
Zn70 O73 2.031 . S
Zn70 O75 2.049 . S
Zn70 O80 2.101 . S
Zn71 O72 1.962 1_565 S
Zn71 O74 1.986 . S
Zn71 O76 1.996 1_565 S
Zn71 O79 1.943 . S
O72 Zn71 1.962 1_545 S
O72 C77 1.254 . S
O73 Zn70 2.031 . S
O73 C77 1.269 . S
O74 Zn71 1.986 . S
O74 C81 1.262 . S
O75 Zn70 2.049 . S
O75 C83 1.260 . S
O76 Zn71 1.996 1_545 S
O76 C83 1.257 . S
C77 O72 1.254 . S
C77 O73 1.269 . S
C78 O79 1.249 1_556 S
C78 O80 1.252 1_566 S
O79 Zn71 1.943 . S
O79 C78 1.249 1_554 S
O80 Zn70 2.101 . S
O80 C78 1.252 1_544 S
C81 O74 1.262 . S
C81 O82 1.232 . S
O82 C81 1.232 . S
C83 O75 1.260 . S
C83 O76 1.257 . S
Zn84 O87 2.031 . S
Zn84 O89 2.049 . S
Zn84 O94 2.067 . S
Zn85 O86 1.962 . S
Zn85 O88 1.986 . S
Zn85 O90 1.996 . S
Zn85 O93 1.943 . S
O86 Zn85 1.962 . S
O86 C91 1.254 . S
O87 Zn84 2.031 . S
O87 C91 1.269 . S
O88 Zn85 1.986 . S
O88 C95 1.262 . S
O89 Zn84 2.049 . S
O89 C97 1.260 . S
O90 Zn85 1.996 . S
O90 C97 1.257 . S
C91 O86 1.254 . S
C91 O87 1.269 . S
C92 O93 1.249 . S
C92 O94 1.270 . S
O93 Zn85 1.943 . S
O93 C92 1.249 . S
O94 Zn84 2.067 . S
O94 C92 1.270 . S
C95 O88 1.262 . S
C95 O96 1.232 . S
O96 C95 1.232 . S
C97 O89 1.260 . S
C97 O90 1.257 . S
Zn98 O101 2.031 . S
Zn98 O103 2.049 . S
Zn98 O108 2.067 . S
Zn99 O100 1.962 . S
Zn99 O102 1.986 1_565 S
Zn99 O104 1.996 . S
Zn99 O107 1.943 . S
O100 Zn99 1.962 . S
O100 C105 1.254 . S
O101 Zn98 2.031 . S
O101 C105 1.269 . S
O102 Zn99 1.986 1_545 S
O102 C109 1.262 . S
O103 Zn98 2.049 . S
O103 C111 1.260 . S
O104 Zn99 1.996 . S
O104 C111 1.257 . S
C105 O100 1.254 . S
C105 O101 1.269 . S
C106 O107 1.249 . S
C106 O108 1.270 . S
O107 Zn99 1.943 . S
O107 C106 1.249 . S
O108 Zn98 2.067 . S
O108 C106 1.270 . S
C109 O102 1.262 . S
C109 O110 1.232 . S
O110 C109 1.232 . S
C111 O103 1.260 . S
C111 O104 1.257 . S
Zn112 O115 2.031 . S
Zn112 O117 2.049 . S
Zn112 O122 2.067 . S
Zn113 O114 1.962 1_455 S
Zn113 O116 1.986 . S
Zn113 O118 1.996 . S
Zn113 O121 1.943 . S
O114 Zn113 1.962 1_655 S
O114 C119 1.254 . S
O115 Zn112 2.031 . S
O115 C119 1.269 1_455 S
O116 Zn113 1.986 . S
O116 C123 1.262 . S
O117 Zn112 2.049 . S
O117 C125 1.260 . S
O118 Zn113 1.996 . S
O118 C125 1.257 . S
C119 O114 1.254 . S
C119 O115 1.269 1_655 S
C120 O121 1.249 . S
C120 O122 1.270 . S
O121 Zn113 1.943 . S
O121 C120 1.249 . S
O122 Zn112 2.067 . S
O122 C120 1.270 . S
C123 O116 1.262 . S
C123 O124 1.232 . S
O124 C123 1.232 . S
C125 O117 1.260 . S
C125 O118 1.257 . S
Zn126 O129 2.031 . S
Zn126 O131 2.049 . S
Zn126 O136 2.067 . S
Zn127 O128 1.962 1_565 S
Zn127 O130 1.986 . S
Zn127 O132 1.996 . S
Zn127 O135 1.943 . S
O128 Zn127 1.962 1_545 S
O128 C133 1.254 . S
O129 Zn126 2.031 . S
O129 C133 1.269 1_565 S
O130 Zn127 1.986 . S
O130 C137 1.262 . S
O131 Zn126 2.049 . S
O131 C139 1.260 . S
O132 Zn127 1.996 . S
O132 C139 1.257 . S
C133 O128 1.254 . S
C133 O129 1.269 1_545 S
C134 O135 1.249 . S
C134 O136 1.270 . S
O135 Zn127 1.943 . S
O135 C134 1.249 . S
O136 Zn126 2.067 . S
O136 C134 1.270 . S
C137 O130 1.262 . S
C137 O138 1.232 . S
O138 C137 1.232 . S
C139 O131 1.260 . S
C139 O132 1.257 . S
Zn140 O143 2.031 . S
Zn140 O145 2.049 . S
Zn140 O150 2.067 . S
Zn141 O142 1.962 1_455 S
Zn141 O144 1.986 . S
Zn141 O146 1.996 . S
Zn141 O149 1.943 . S
O142 Zn141 1.962 1_655 S
O142 C147 1.254 . S
O143 Zn140 2.031 . S
O143 C147 1.269 1_455 S
O144 Zn141 1.986 . S
O144 C151 1.262 . S
O145 Zn140 2.049 . S
O145 C153 1.260 . S
O146 Zn141 1.996 . S
O146 C153 1.257 . S
C147 O142 1.254 . S
C147 O143 1.269 1_655 S
C148 O149 1.249 . S
C148 O150 1.270 . S
O149 Zn141 1.943 . S
O149 C148 1.249 . S
O150 Zn140 2.067 . S
O150 C148 1.270 . S
C151 O144 1.262 . S
C151 O152 1.232 . S
O152 C151 1.232 . S
C153 O145 1.260 . S
C153 O146 1.257 . S
Zn154 O157 2.031 . S
Zn154 O159 2.049 . S
Zn154 O164 2.067 . S
Zn155 O156 1.962 . S
Zn155 O158 1.986 . S
Zn155 O160 1.996 . S
Zn155 O163 1.943 . S
O156 Zn155 1.962 . S
O156 C161 1.254 . S
O157 Zn154 2.031 . S
O157 C161 1.269 . S
O158 Zn155 1.986 . S
O158 C165 1.262 . S
O159 Zn154 2.049 . S
O159 C167 1.260 . S
O160 Zn155 1.996 . S
O160 C167 1.257 . S
C161 O156 1.254 . S
C161 O157 1.269 . S
C162 O163 1.249 . S
C162 O164 1.270 . S
O163 Zn155 1.943 . S
O163 C162 1.249 . S
O164 Zn154 2.067 . S
O164 C162 1.270 . S
C165 O158 1.262 . S
C165 O166 1.232 . S
O166 C165 1.232 . S
C167 O159 1.260 . S
C167 O160 1.257 . S
Zn168 O171 2.031 . S
Zn168 O173 2.049 . S
Zn168 O178 2.067 . S
Zn169 O170 1.958 1_545 S
Zn169 O172 1.986 . S
Zn169 O174 1.996 . S
Zn169 O177 1.943 . S
O170 Zn169 1.958 1_565 S
O170 C175 1.285 . S
O171 Zn168 2.031 . S
O171 C175 1.177 1_545 S
O172 Zn169 1.986 . S
O172 C179 1.262 . S
O173 Zn168 2.049 . S
O173 C181 1.260 . S
O174 Zn169 1.996 . S
O174 C181 1.257 . S
C175 O170 1.285 . S
C175 O171 1.177 1_565 S
C176 O177 1.249 . S
C176 O178 1.270 . S
O177 Zn169 1.943 . S
O177 C176 1.249 . S
O178 Zn168 2.067 . S
O178 C176 1.270 . S
C179 O172 1.262 . S
C179 O180 1.232 . S
O180 C179 1.232 . S
C181 O173 1.260 . S
C181 O174 1.257 . S
Zn182 O185 2.031 . S
Zn182 O187 2.049 . S
Zn182 O192 2.067 . S
Zn183 O184 1.962 1_655 S
Zn183 O186 1.986 . S
Zn183 O188 1.996 . S
Zn183 O191 1.943 . S
O184 Zn183 1.962 1_455 S
O184 C189 1.254 . S
O185 Zn182 2.031 . S
O185 C189 1.269 1_655 S
O186 Zn183 1.986 . S
O186 C193 1.262 . S
O187 Zn182 2.049 . S
O187 C195 1.260 . S
O188 Zn183 1.996 . S
O188 C195 1.257 . S
C189 O184 1.254 . S
C189 O185 1.269 1_455 S
C190 O191 1.249 . S
C190 O192 1.270 . S
O191 Zn183 1.943 . S
O191 C190 1.249 . S
O192 Zn182 2.067 . S
O192 C190 1.270 . S
C193 O186 1.262 . S
C193 O194 1.232 . S
O194 C193 1.232 . S
C195 O187 1.260 . S
C195 O188 1.257 . S
Zn196 O199 2.031 . S
Zn196 O201 2.049 . S
Zn196 O206 2.067 . S
Zn197 O198 1.962 . S
Zn197 O200 1.986 . S
Zn197 O202 1.996 . S
Zn197 O205 1.943 . S
O198 Zn197 1.962 . S
O198 C203 1.254 . S
O199 Zn196 2.031 . S
O199 C203 1.269 . S
O200 Zn197 1.986 . S
O200 C207 1.262 . S
O201 Zn196 2.049 . S
O201 C209 1.260 . S
O202 Zn197 1.996 . S
O202 C209 1.257 . S
C203 O198 1.254 . S
C203 O199 1.269 . S
C204 O205 1.249 . S
C204 O206 1.270 . S
O205 Zn197 1.943 . S
O205 C204 1.249 . S
O206 Zn196 2.067 . S
O206 C204 1.270 . S
C207 O200 1.262 . S
C207 O208 1.232 . S
O208 C207 1.232 . S
C209 O201 1.260 . S
C209 O202 1.257 . S
Zn210 O213 2.031 . S
Zn210 O215 2.049 . S
Zn210 O220 2.067 . S
Zn211 O212 1.962 . S
Zn211 O214 1.986 . S
Zn211 O216 1.996 . S
Zn211 O219 1.943 . S
O212 Zn211 1.962 . S
O212 C217 1.254 . S
O213 Zn210 2.031 . S
O213 C217 1.269 . S
O214 Zn211 1.986 . S
O214 C221 1.262 . S
O215 Zn210 2.049 . S
O215 C223 1.260 . S
O216 Zn211 1.996 . S
O216 C223 1.257 . S
C217 O212 1.254 . S
C217 O213 1.269 . S
C218 O219 1.249 . S
C218 O220 1.270 . S
O219 Zn211 1.943 . S
O219 C218 1.249 . S
O220 Zn210 2.067 . S
O220 C218 1.270 . S
C221 O214 1.262 . S
C221 O222 1.232 . S
O222 C221 1.232 . S
C223 O215 1.260 . S
C223 O216 1.257 . S
Zn224 O227 2.031 . S
Zn224 O229 2.049 . S
Zn224 O234 2.067 . S
Zn225 O226 1.962 . S
Zn225 O228 2.010 . S
Zn225 O230 1.996 . S
Zn225 O233 1.943 . S
O226 Zn225 1.962 . S
O226 C231 1.254 . S
O227 Zn224 2.031 . S
O227 C231 1.269 . S
O228 Zn225 2.010 . S
O228 C235 1.238 1_545 S
O229 Zn224 2.049 . S
O229 C237 1.260 . S
O230 Zn225 1.996 . S
O230 C237 1.257 . S
C231 O226 1.254 . S
C231 O227 1.269 . S
C232 O233 1.249 . S
C232 O234 1.270 . S
O233 Zn225 1.943 . S
O233 C232 1.249 . S
O234 Zn224 2.067 . S
O234 C232 1.270 . S
C235 O228 1.238 1_565 S
C235 O236 1.232 . S
O236 C235 1.232 . S
C237 O229 1.260 . S
C237 O230 1.257 . S
Zn238 O241 2.031 . S
Zn238 O243 2.049 . S
Zn238 O248 2.067 . S
Zn239 O240 1.962 1_655 S
Zn239 O242 1.986 . S
Zn239 O244 1.996 . S
Zn239 O247 1.943 . S
O240 Zn239 1.962 1_455 S
O240 C245 1.254 . S
O241 Zn238 2.031 . S
O241 C245 1.269 1_655 S
O242 Zn239 1.986 . S
O242 C249 1.262 . S
O243 Zn238 2.049 . S
O243 C251 1.260 . S
O244 Zn239 1.996 . S
O244 C251 1.257 . S
C245 O240 1.254 . S
C245 O241 1.269 1_455 S
C246 O247 1.249 . S
C246 O248 1.270 . S
O247 Zn239 1.943 . S
O247 C246 1.249 . S
O248 Zn238 2.067 . S
O248 C246 1.270 . S
C249 O242 1.262 . S
C249 O250 1.232 . S
O250 C249 1.232 . S
C251 O243 1.260 . S
C251 O244 1.257 . S
H252 C271 0.949 . S
H253 C272 0.950 . S
H254 C274 0.950 . S
H255 C275 0.950 . S
H256 C277 0.950 . S
H257 C280 0.950 . S
H258 C281 0.950 . S
H259 C283 0.951 . S
H260 C284 0.949 . S
H261 C286 0.949 . S
H262 C287 0.950 . S
H263 C289 0.950 . S
H264 C290 0.950 . S
H265 C292 0.950 . S
H266 C295 0.950 . S
H267 C296 0.950 . S
H268 C298 0.951 . S
H269 C299 0.949 . S
C270 C271 1.376 . S
C270 C275 1.386 . S
C270 C276 1.483 . S
C271 H252 0.949 . S
C271 C270 1.376 . S
C271 C272 1.397 . S
C272 H253 0.950 . S
C272 C271 1.397 . S
C272 C273 1.391 . S
C273 C272 1.391 . S
C273 C274 1.405 . S
C274 H254 0.950 . S
C274 C273 1.405 . S
C274 C275 1.367 . S
C275 H255 0.950 . S
C275 C270 1.386 . S
C275 C274 1.367 . S
C276 C270 1.483 . S
C276 C277 1.382 . S
C276 C278 1.403 . S
C277 H256 0.950 . S
C277 C276 1.382 . S
C277 C293 1.411 . S
C278 C276 1.403 . S
C278 C279 1.489 . S
C278 C292 1.411 . S
C279 C278 1.489 . S
C279 C280 1.383 . S
C279 C284 1.382 . S
C280 H257 0.950 . S
C280 C279 1.383 . S
C280 C281 1.395 . S
C281 H258 0.950 . S
C281 C280 1.395 . S
C281 C282 1.288 . S
C282 C281 1.288 . S
C282 C283 1.392 . S
C283 H259 0.951 . S
C283 C282 1.392 . S
C283 C284 1.392 . S
C284 H260 0.949 . S
C284 C279 1.382 . S
C284 C283 1.392 . S
C285 C286 1.376 . S
C285 C290 1.386 . S
C285 C291 1.483 . S
C286 H261 0.949 . S
C286 C285 1.376 . S
C286 C287 1.397 . S
C287 H262 0.950 . S
C287 C286 1.397 . S
C287 C288 1.391 . S
C288 C287 1.391 . S
C288 C289 1.405 . S
C289 H263 0.950 . S
C289 C288 1.405 . S
C289 C290 1.367 . S
C290 H264 0.950 . S
C290 C285 1.386 . S
C290 C289 1.367 . S
C291 C285 1.483 . S
C291 C292 1.382 . S
C291 C293 1.403 . S
C292 H265 0.950 . S
C292 C278 1.411 . S
C292 C291 1.382 . S
C293 C277 1.411 . S
C293 C291 1.403 . S
C293 C294 1.489 . S
C294 C293 1.489 . S
C294 C295 1.383 . S
C294 C299 1.382 . S
C295 H266 0.950 . S
C295 C294 1.383 . S
C295 C296 1.395 . S
C296 H267 0.950 . S
C296 C295 1.395 . S
C296 C297 1.288 . S
C297 C296 1.288 . S
C297 C298 1.392 . S
C298 H268 0.951 . S
C298 C297 1.392 . S
C298 C299 1.392 . S
C299 H269 0.949 . S
C299 C294 1.382 . S
C299 C298 1.392 . S
H300 C319 0.949 . S
H301 C320 0.950 . S
H302 C322 0.950 . S
H303 C323 0.950 . S
H304 C325 0.950 . S
H305 C328 0.950 . S
H306 C329 0.950 . S
H307 C331 0.951 . S
H308 C332 0.949 . S
H309 C334 0.949 . S
H310 C335 0.950 . S
H311 C337 0.950 . S
H312 C338 0.950 . S
H313 C340 0.950 . S
H314 C343 0.950 . S
H315 C344 0.950 . S
H316 C346 0.951 . S
H317 C347 0.949 . S
C318 C319 1.376 . S
C318 C323 1.386 . S
C318 C324 1.483 . S
C319 H300 0.949 . S
C319 C318 1.376 . S
C319 C320 1.397 . S
C320 H301 0.950 . S
C320 C319 1.397 . S
C320 C321 1.391 . S
C321 C320 1.391 . S
C321 C322 1.405 . S
C322 H302 0.950 . S
C322 C321 1.405 . S
C322 C323 1.367 . S
C323 H303 0.950 . S
C323 C318 1.386 . S
C323 C322 1.367 . S
C324 C318 1.483 . S
C324 C325 1.382 . S
C324 C326 1.403 . S
C325 H304 0.950 . S
C325 C324 1.382 . S
C325 C341 1.411 . S
C326 C324 1.403 . S
C326 C327 1.489 . S
C326 C340 1.411 . S
C327 C326 1.489 . S
C327 C328 1.383 . S
C327 C332 1.382 . S
C328 H305 0.950 . S
C328 C327 1.383 . S
C328 C329 1.395 . S
C329 H306 0.950 . S
C329 C328 1.395 . S
C329 C330 1.288 . S
C330 C329 1.288 . S
C330 C331 1.392 . S
C331 H307 0.951 . S
C331 C330 1.392 . S
C331 C332 1.392 . S
C332 H308 0.949 . S
C332 C327 1.382 . S
C332 C331 1.392 . S
C333 C334 1.376 . S
C333 C338 1.386 . S
C333 C339 1.483 . S
C334 H309 0.949 . S
C334 C333 1.376 . S
C334 C335 1.397 . S
C335 H310 0.950 . S
C335 C334 1.397 . S
C335 C336 1.391 . S
C336 C335 1.391 . S
C336 C337 1.405 . S
C337 H311 0.950 . S
C337 C336 1.405 . S
C337 C338 1.367 . S
C338 H312 0.950 . S
C338 C333 1.386 . S
C338 C337 1.367 . S
C339 C333 1.483 . S
C339 C340 1.382 . S
C339 C341 1.403 . S
C340 H313 0.950 . S
C340 C326 1.411 . S
C340 C339 1.382 . S
C341 C325 1.411 . S
C341 C339 1.403 . S
C341 C342 1.489 . S
C342 C341 1.489 . S
C342 C343 1.383 . S
C342 C347 1.382 . S
C343 H314 0.950 . S
C343 C342 1.383 . S
C343 C344 1.395 . S
C344 H315 0.950 . S
C344 C343 1.395 . S
C344 C345 1.288 . S
C345 C344 1.288 . S
C345 C346 1.392 . S
C346 H316 0.951 . S
C346 C345 1.392 . S
C346 C347 1.392 . S
C347 H317 0.949 . S
C347 C342 1.382 . S
C347 C346 1.392 . S
H348 C367 0.949 . S
H349 C368 0.950 . S
H350 C370 0.950 . S
H351 C371 0.950 . S
H352 C373 0.950 . S
H353 C376 0.950 . S
H354 C377 0.950 . S
H355 C379 0.951 . S
H356 C380 0.949 . S
H357 C382 0.949 . S
H358 C383 0.950 . S
H359 C385 0.950 . S
H360 C386 0.950 . S
H361 C388 0.950 . S
H362 C391 0.950 . S
H363 C392 0.950 . S
H364 C394 0.951 . S
H365 C395 0.949 . S
C366 C367 1.376 . S
C366 C371 1.386 . S
C366 C372 1.483 . S
C367 H348 0.949 . S
C367 C366 1.376 . S
C367 C368 1.397 . S
C368 H349 0.950 . S
C368 C367 1.397 . S
C368 C369 1.391 . S
C369 C368 1.391 . S
C369 C370 1.405 . S
C370 H350 0.950 . S
C370 C369 1.405 . S
C370 C371 1.367 . S
C371 H351 0.950 . S
C371 C366 1.386 . S
C371 C370 1.367 . S
C372 C366 1.483 . S
C372 C373 1.382 . S
C372 C374 1.403 . S
C373 H352 0.950 . S
C373 C372 1.382 . S
C373 C389 1.411 . S
C374 C372 1.403 . S
C374 C375 1.489 . S
C374 C388 1.411 . S
C375 C374 1.489 . S
C375 C376 1.383 . S
C375 C380 1.382 . S
C376 H353 0.950 . S
C376 C375 1.383 . S
C376 C377 1.395 . S
C377 H354 0.950 . S
C377 C376 1.395 . S
C377 C378 1.288 . S
C378 C377 1.288 . S
C378 C379 1.392 . S
C379 H355 0.951 . S
C379 C378 1.392 . S
C379 C380 1.392 . S
C380 H356 0.949 . S
C380 C375 1.382 . S
C380 C379 1.392 . S
C381 C382 1.376 . S
C381 C386 1.386 . S
C381 C387 1.483 . S
C382 H357 0.949 . S
C382 C381 1.376 . S
C382 C383 1.397 . S
C383 H358 0.950 . S
C383 C382 1.397 . S
C383 C384 1.391 . S
C384 C383 1.391 . S
C384 C385 1.405 . S
C385 H359 0.950 . S
C385 C384 1.405 . S
C385 C386 1.367 . S
C386 H360 0.950 . S
C386 C381 1.386 . S
C386 C385 1.367 . S
C387 C381 1.483 . S
C387 C388 1.382 . S
C387 C389 1.403 . S
C388 H361 0.950 . S
C388 C374 1.411 . S
C388 C387 1.382 . S
C389 C373 1.411 . S
C389 C387 1.403 . S
C389 C390 1.489 . S
C390 C389 1.489 . S
C390 C391 1.383 . S
C390 C395 1.382 . S
C391 H362 0.950 . S
C391 C390 1.383 . S
C391 C392 1.395 . S
C392 H363 0.950 . S
C392 C391 1.395 . S
C392 C393 1.288 . S
C393 C392 1.288 . S
C393 C394 1.392 . S
C394 H364 0.951 . S
C394 C393 1.392 . S
C394 C395 1.392 . S
C395 H365 0.949 . S
C395 C390 1.382 . S
C395 C394 1.392 . S
H396 C415 0.949 . S
H397 C416 0.950 . S
H398 C418 0.950 . S
H399 C419 0.950 . S
H400 C421 0.950 . S
H401 C424 0.950 . S
H402 C425 0.950 . S
H403 C427 0.951 . S
H404 C428 0.949 . S
H405 C430 0.949 . S
H406 C431 0.950 . S
H407 C433 0.950 . S
H408 C434 0.950 . S
H409 C436 0.950 . S
H410 C439 0.950 . S
H411 C440 0.950 . S
H412 C442 0.951 . S
H413 C443 0.949 . S
C414 C415 1.376 . S
C414 C419 1.386 . S
C414 C420 1.483 . S
C415 H396 0.949 . S
C415 C414 1.376 . S
C415 C416 1.397 . S
C416 H397 0.950 . S
C416 C415 1.397 . S
C416 C417 1.391 . S
C417 C416 1.391 . S
C417 C418 1.405 . S
C418 H398 0.950 . S
C418 C417 1.405 . S
C418 C419 1.367 . S
C419 H399 0.950 . S
C419 C414 1.386 . S
C419 C418 1.367 . S
C420 C414 1.483 . S
C420 C421 1.382 . S
C420 C422 1.403 . S
C421 H400 0.950 . S
C421 C420 1.382 . S
C421 C437 1.411 . S
C422 C420 1.403 . S
C422 C423 1.489 . S
C422 C436 1.411 . S
C423 C422 1.489 . S
C423 C424 1.383 . S
C423 C428 1.382 . S
C424 H401 0.950 . S
C424 C423 1.383 . S
C424 C425 1.395 . S
C425 H402 0.950 . S
C425 C424 1.395 . S
C425 C426 1.288 . S
C426 C425 1.288 . S
C426 C427 1.392 . S
C427 H403 0.951 . S
C427 C426 1.392 . S
C427 C428 1.392 . S
C428 H404 0.949 . S
C428 C423 1.382 . S
C428 C427 1.392 . S
C429 C430 1.376 . S
C429 C434 1.386 . S
C429 C435 1.483 . S
C430 H405 0.949 . S
C430 C429 1.376 . S
C430 C431 1.397 . S
C431 H406 0.950 . S
C431 C430 1.397 . S
C431 C432 1.391 . S
C432 C431 1.391 . S
C432 C433 1.405 . S
C433 H407 0.950 . S
C433 C432 1.405 . S
C433 C434 1.367 . S
C434 H408 0.950 . S
C434 C429 1.386 . S
C434 C433 1.367 . S
C435 C429 1.483 . S
C435 C436 1.382 . S
C435 C437 1.403 . S
C436 H409 0.950 . S
C436 C422 1.411 . S
C436 C435 1.382 . S
C437 C421 1.411 . S
C437 C435 1.403 . S
C437 C438 1.489 . S
C438 C437 1.489 . S
C438 C439 1.383 . S
C438 C443 1.382 . S
C439 H410 0.950 . S
C439 C438 1.383 . S
C439 C440 1.395 . S
C440 H411 0.950 . S
C440 C439 1.395 . S
C440 C441 1.288 . S
C441 C440 1.288 . S
C441 C442 1.392 . S
C442 H412 0.951 . S
C442 C441 1.392 . S
C442 C443 1.392 . S
C443 H413 0.949 . S
C443 C438 1.382 . S
C443 C442 1.392 . S
H444 C463 0.949 . S
H445 C464 0.950 . S
H446 C466 0.950 . S
H447 C467 0.950 . S
H448 C469 0.950 . S
H449 C472 0.950 . S
H450 C473 0.950 . S
H451 C475 0.951 . S
H452 C476 0.949 . S
H453 C478 0.949 . S
H454 C479 0.950 . S
H455 C481 0.950 . S
H456 C482 0.950 . S
H457 C484 0.950 . S
H458 C487 0.950 . S
H459 C488 0.950 . S
H460 C490 0.951 . S
H461 C491 0.949 . S
C462 C463 1.376 . S
C462 C467 1.386 . S
C462 C468 1.483 . S
C463 H444 0.949 . S
C463 C462 1.376 . S
C463 C464 1.397 . S
C464 H445 0.950 . S
C464 C463 1.397 . S
C464 C465 1.391 . S
C465 C464 1.391 . S
C465 C466 1.405 . S
C466 H446 0.950 . S
C466 C465 1.405 . S
C466 C467 1.367 . S
C467 H447 0.950 . S
C467 C462 1.386 . S
C467 C466 1.367 . S
C468 C462 1.483 . S
C468 C469 1.382 . S
C468 C470 1.403 . S
C469 H448 0.950 . S
C469 C468 1.382 . S
C469 C485 1.411 . S
C470 C468 1.403 . S
C470 C471 1.489 . S
C470 C484 1.411 . S
C471 C470 1.489 . S
C471 C472 1.383 . S
C471 C476 1.382 . S
C472 H449 0.950 . S
C472 C471 1.383 . S
C472 C473 1.395 . S
C473 H450 0.950 . S
C473 C472 1.395 . S
C473 C474 1.288 . S
C474 C473 1.288 . S
C474 C475 1.392 . S
C475 H451 0.951 . S
C475 C474 1.392 . S
C475 C476 1.392 . S
C476 H452 0.949 . S
C476 C471 1.382 . S
C476 C475 1.392 . S
C477 C478 1.376 . S
C477 C482 1.386 . S
C477 C483 1.483 . S
C478 H453 0.949 . S
C478 C477 1.376 . S
C478 C479 1.397 . S
C479 H454 0.950 . S
C479 C478 1.397 . S
C479 C480 1.391 . S
C480 C479 1.391 . S
C480 C481 1.405 . S
C481 H455 0.950 . S
C481 C480 1.405 . S
C481 C482 1.367 . S
C482 H456 0.950 . S
C482 C477 1.386 . S
C482 C481 1.367 . S
C483 C477 1.483 . S
C483 C484 1.382 . S
C483 C485 1.403 . S
C484 H457 0.950 . S
C484 C470 1.411 . S
C484 C483 1.382 . S
C485 C469 1.411 . S
C485 C483 1.403 . S
C485 C486 1.489 . S
C486 C485 1.489 . S
C486 C487 1.383 . S
C486 C491 1.382 . S
C487 H458 0.950 . S
C487 C486 1.383 . S
C487 C488 1.395 . S
C488 H459 0.950 . S
C488 C487 1.395 . S
C488 C489 1.288 . S
C489 C488 1.288 . S
C489 C490 1.392 . S
C490 H460 0.951 . S
C490 C489 1.392 . S
C490 C491 1.392 . S
C491 H461 0.949 . S
C491 C486 1.382 . S
C491 C490 1.392 . S
H492 C511 0.949 . S
H493 C512 0.950 . S
H494 C514 0.950 . S
H495 C515 0.950 . S
H496 C517 0.950 . S
H497 C520 0.950 . S
H498 C521 0.950 . S
H499 C523 0.951 . S
H500 C524 0.949 . S
H501 C526 0.949 . S
H502 C527 0.950 . S
H503 C529 0.950 . S
H504 C530 0.950 . S
H505 C532 0.950 . S
H506 C535 0.950 . S
H507 C536 0.950 . S
H508 C538 0.951 . S
H509 C539 0.949 . S
C510 C511 1.376 . S
C510 C515 1.386 . S
C510 C516 1.483 . S
C511 H492 0.949 . S
C511 C510 1.376 . S
C511 C512 1.397 . S
C512 H493 0.950 . S
C512 C511 1.397 . S
C512 C513 1.391 . S
C513 C512 1.391 . S
C513 C514 1.405 . S
C514 H494 0.950 . S
C514 C513 1.405 . S
C514 C515 1.367 . S
C515 H495 0.950 . S
C515 C510 1.386 . S
C515 C514 1.367 . S
C516 C510 1.483 . S
C516 C517 1.382 . S
C516 C518 1.403 . S
C517 H496 0.950 . S
C517 C516 1.382 . S
C517 C533 1.411 . S
C518 C516 1.403 . S
C518 C519 1.489 . S
C518 C532 1.411 . S
C519 C518 1.489 . S
C519 C520 1.383 . S
C519 C524 1.382 . S
C520 H497 0.950 . S
C520 C519 1.383 . S
C520 C521 1.395 . S
C521 H498 0.950 . S
C521 C520 1.395 . S
C521 C522 1.288 . S
C522 C521 1.288 . S
C522 C523 1.392 . S
C523 H499 0.951 . S
C523 C522 1.392 . S
C523 C524 1.392 . S
C524 H500 0.949 . S
C524 C519 1.382 . S
C524 C523 1.392 . S
C525 C526 1.376 . S
C525 C530 1.386 . S
C525 C531 1.483 . S
C526 H501 0.949 . S
C526 C525 1.376 . S
C526 C527 1.397 . S
C527 H502 0.950 . S
C527 C526 1.397 . S
C527 C528 1.391 . S
C528 C527 1.391 . S
C528 C529 1.405 . S
C529 H503 0.950 . S
C529 C528 1.405 . S
C529 C530 1.367 . S
C530 H504 0.950 . S
C530 C525 1.386 . S
C530 C529 1.367 . S
C531 C525 1.483 . S
C531 C532 1.382 . S
C531 C533 1.403 . S
C532 H505 0.950 . S
C532 C518 1.411 . S
C532 C531 1.382 . S
C533 C517 1.411 . S
C533 C531 1.403 . S
C533 C534 1.489 . S
C534 C533 1.489 . S
C534 C535 1.383 . S
C534 C539 1.382 . S
C535 H506 0.950 . S
C535 C534 1.383 . S
C535 C536 1.395 . S
C536 H507 0.950 . S
C536 C535 1.395 . S
C536 C537 1.288 . S
C537 C536 1.288 . S
C537 C538 1.392 . S
C538 H508 0.951 . S
C538 C537 1.392 . S
C538 C539 1.392 . S
C539 H509 0.949 . S
C539 C534 1.382 . S
C539 C538 1.392 . S
H540 C559 0.949 . S
H541 C560 0.950 . S
H542 C562 0.950 . S
H543 C563 0.950 . S
H544 C565 0.950 . S
H545 C568 0.950 . S
H546 C569 0.950 . S
H547 C571 0.951 . S
H548 C572 0.949 . S
H549 C574 0.949 . S
H550 C575 0.950 . S
H551 C577 0.950 . S
H552 C578 0.950 . S
H553 C580 0.950 . S
H554 C583 0.950 . S
H555 C584 0.950 . S
H556 C586 0.951 . S
H557 C587 0.949 . S
C558 C559 1.376 . S
C558 C563 1.386 . S
C558 C564 1.483 . S
C559 H540 0.949 . S
C559 C558 1.376 . S
C559 C560 1.397 . S
C560 H541 0.950 . S
C560 C559 1.397 . S
C560 C561 1.391 . S
C561 C560 1.391 . S
C561 C562 1.405 . S
C562 H542 0.950 . S
C562 C561 1.405 . S
C562 C563 1.367 . S
C563 H543 0.950 . S
C563 C558 1.386 . S
C563 C562 1.367 . S
C564 C558 1.483 . S
C564 C565 1.382 . S
C564 C566 1.403 . S
C565 H544 0.950 . S
C565 C564 1.382 . S
C565 C581 1.411 . S
C566 C564 1.403 . S
C566 C567 1.489 . S
C566 C580 1.411 . S
C567 C566 1.489 . S
C567 C568 1.383 . S
C567 C572 1.382 . S
C568 H545 0.950 . S
C568 C567 1.383 . S
C568 C569 1.395 . S
C569 H546 0.950 . S
C569 C568 1.395 . S
C569 C570 1.288 . S
C570 C569 1.288 . S
C570 C571 1.392 . S
C571 H547 0.951 . S
C571 C570 1.392 . S
C571 C572 1.392 . S
C572 H548 0.949 . S
C572 C567 1.382 . S
C572 C571 1.392 . S
C573 C574 1.376 . S
C573 C578 1.386 . S
C573 C579 1.483 . S
C574 H549 0.949 . S
C574 C573 1.376 . S
C574 C575 1.397 . S
C575 H550 0.950 . S
C575 C574 1.397 . S
C575 C576 1.391 . S
C576 C575 1.391 . S
C576 C577 1.405 . S
C577 H551 0.950 . S
C577 C576 1.405 . S
C577 C578 1.367 . S
C578 H552 0.950 . S
C578 C573 1.386 . S
C578 C577 1.367 . S
C579 C573 1.483 . S
C579 C580 1.382 . S
C579 C581 1.403 . S
C580 H553 0.950 . S
C580 C566 1.411 . S
C580 C579 1.382 . S
C581 C565 1.411 . S
C581 C579 1.403 . S
C581 C582 1.489 . S
C582 C581 1.489 . S
C582 C583 1.383 . S
C582 C587 1.382 . S
C583 H554 0.950 . S
C583 C582 1.383 . S
C583 C584 1.395 . S
C584 H555 0.950 . S
C584 C583 1.395 . S
C584 C585 1.288 . S
C585 C584 1.288 . S
C585 C586 1.392 . S
C586 H556 0.951 . S
C586 C585 1.392 . S
C586 C587 1.392 . S
C587 H557 0.949 . S
C587 C582 1.382 . S
C587 C586 1.392 . S
H588 C607 0.949 . S
H589 C608 0.950 . S
H590 C610 0.950 . S
H591 C611 0.950 . S
H592 C613 0.950 . S
H593 C616 0.950 . S
H594 C617 0.950 . S
H595 C619 0.951 . S
H596 C620 0.949 . S
H597 C622 0.949 . S
H598 C623 0.950 . S
H599 C625 0.950 . S
H600 C626 0.950 . S
H601 C628 0.950 . S
H602 C631 0.950 . S
H603 C632 0.950 . S
H604 C634 0.951 . S
H605 C635 0.949 . S
C606 C607 1.376 . S
C606 C611 1.386 . S
C606 C612 1.483 . S
C607 H588 0.949 . S
C607 C606 1.376 . S
C607 C608 1.397 . S
C608 H589 0.950 . S
C608 C607 1.397 . S
C608 C609 1.391 . S
C609 C608 1.391 . S
C609 C610 1.405 . S
C610 H590 0.950 . S
C610 C609 1.405 . S
C610 C611 1.367 . S
C611 H591 0.950 . S
C611 C606 1.386 . S
C611 C610 1.367 . S
C612 C606 1.483 . S
C612 C613 1.382 . S
C612 C614 1.403 . S
C613 H592 0.950 . S
C613 C612 1.382 . S
C613 C629 1.411 . S
C614 C612 1.403 . S
C614 C615 1.489 . S
C614 C628 1.411 . S
C615 C614 1.489 . S
C615 C616 1.383 . S
C615 C620 1.382 . S
C616 H593 0.950 . S
C616 C615 1.383 . S
C616 C617 1.395 . S
C617 H594 0.950 . S
C617 C616 1.395 . S
C617 C618 1.288 . S
C618 C617 1.288 . S
C618 C619 1.392 . S
C619 H595 0.951 . S
C619 C618 1.392 . S
C619 C620 1.392 . S
C620 H596 0.949 . S
C620 C615 1.382 . S
C620 C619 1.392 . S
C621 C622 1.376 . S
C621 C626 1.386 . S
C621 C627 1.483 . S
C622 H597 0.949 . S
C622 C621 1.376 . S
C622 C623 1.397 . S
C623 H598 0.950 . S
C623 C622 1.397 . S
C623 C624 1.391 . S
C624 C623 1.391 . S
C624 C625 1.405 . S
C625 H599 0.950 . S
C625 C624 1.405 . S
C625 C626 1.367 . S
C626 H600 0.950 . S
C626 C621 1.386 . S
C626 C625 1.367 . S
C627 C621 1.483 . S
C627 C628 1.382 . S
C627 C629 1.403 . S
C628 H601 0.950 . S
C628 C614 1.411 . S
C628 C627 1.382 . S
C629 C613 1.411 . S
C629 C627 1.403 . S
C629 C630 1.489 . S
C630 C629 1.489 . S
C630 C631 1.383 . S
C630 C635 1.382 . S
C631 H602 0.950 . S
C631 C630 1.383 . S
C631 C632 1.395 . S
C632 H603 0.950 . S
C632 C631 1.395 . S
C632 C633 1.288 . S
C633 C632 1.288 . S
C633 C634 1.392 . S
C634 H604 0.951 . S
C634 C633 1.392 . S
C634 C635 1.392 . S
C635 H605 0.949 . S
C635 C630 1.382 . S
C635 C634 1.392 . S
H636 C655 0.949 . S
H637 C656 0.950 . S
H638 C658 0.950 . S
H639 C659 0.950 . S
H640 C661 0.950 . S
H641 C664 0.950 . S
H642 C665 0.950 . S
H643 C667 0.951 . S
H644 C668 0.949 . S
H645 C670 0.949 . S
H646 C671 0.950 . S
H647 C673 0.950 . S
H648 C674 0.950 . S
H649 C676 0.950 . S
H650 C679 0.950 . S
H651 C680 0.950 . S
H652 C682 0.951 . S
H653 C683 0.949 . S
C654 C655 1.376 . S
C654 C659 1.386 . S
C654 C660 1.483 . S
C655 H636 0.949 . S
C655 C654 1.376 . S
C655 C656 1.397 . S
C656 H637 0.950 . S
C656 C655 1.397 . S
C656 C657 1.391 . S
C657 C656 1.391 . S
C657 C658 1.405 . S
C658 H638 0.950 . S
C658 C657 1.405 . S
C658 C659 1.367 . S
C659 H639 0.950 . S
C659 C654 1.386 . S
C659 C658 1.367 . S
C660 C654 1.483 . S
C660 C661 1.382 . S
C660 C662 1.403 . S
C661 H640 0.950 . S
C661 C660 1.382 . S
C661 C677 1.411 . S
C662 C660 1.403 . S
C662 C663 1.489 . S
C662 C676 1.411 . S
C663 C662 1.489 . S
C663 C664 1.383 . S
C663 C668 1.382 . S
C664 H641 0.950 . S
C664 C663 1.383 . S
C664 C665 1.395 . S
C665 H642 0.950 . S
C665 C664 1.395 . S
C665 C666 1.288 . S
C666 C665 1.288 . S
C666 C667 1.392 . S
C667 H643 0.951 . S
C667 C666 1.392 . S
C667 C668 1.392 . S
C668 H644 0.949 . S
C668 C663 1.382 . S
C668 C667 1.392 . S
C669 C670 1.376 . S
C669 C674 1.386 . S
C669 C675 1.483 . S
C670 H645 0.949 . S
C670 C669 1.376 . S
C670 C671 1.397 . S
C671 H646 0.950 . S
C671 C670 1.397 . S
C671 C672 1.391 . S
C672 C671 1.391 . S
C672 C673 1.405 . S
C673 H647 0.950 . S
C673 C672 1.405 . S
C673 C674 1.367 . S
C674 H648 0.950 . S
C674 C669 1.386 . S
C674 C673 1.367 . S
C675 C669 1.483 . S
C675 C676 1.382 . S
C675 C677 1.403 . S
C676 H649 0.950 . S
C676 C662 1.411 . S
C676 C675 1.382 . S
C677 C661 1.411 . S
C677 C675 1.403 . S
C677 C678 1.489 . S
C678 C677 1.489 . S
C678 C679 1.383 . S
C678 C683 1.382 . S
C679 H650 0.950 . S
C679 C678 1.383 . S
C679 C680 1.395 . S
C680 H651 0.950 . S
C680 C679 1.395 . S
C680 C681 1.288 . S
C681 C680 1.288 . S
C681 C682 1.392 . S
C682 H652 0.951 . S
C682 C681 1.392 . S
C682 C683 1.392 . S
C683 H653 0.949 . S
C683 C678 1.382 . S
C683 C682 1.392 . S
H684 C703 0.949 . S
H685 C704 0.950 . S
H686 C706 0.950 . S
H687 C707 0.950 . S
H688 C709 0.950 . S
H689 C712 0.950 . S
H690 C713 0.950 . S
H691 C715 0.951 . S
H692 C716 0.949 . S
H693 C718 0.949 . S
H694 C719 0.950 . S
H695 C721 0.950 . S
H696 C722 0.950 . S
H697 C724 0.950 . S
H698 C727 0.950 . S
H699 C728 0.950 . S
H700 C730 0.951 . S
H701 C731 0.949 . S
C702 C703 1.376 . S
C702 C707 1.386 1_655 S
C702 C708 1.483 . S
C703 H684 0.949 . S
C703 C702 1.376 . S
C703 C704 1.397 . S
C704 H685 0.950 . S
C704 C703 1.397 . S
C704 C705 1.391 . S
C705 C704 1.391 . S
C705 C706 1.405 1_655 S
C706 H686 0.950 . S
C706 C705 1.405 1_455 S
C706 C707 1.367 . S
C707 H687 0.950 . S
C707 C702 1.386 1_455 S
C707 C706 1.367 . S
C708 C702 1.483 . S
C708 C709 1.382 . S
C708 C710 1.403 1_655 S
C709 H688 0.950 . S
C709 C708 1.382 . S
C709 C725 1.411 . S
C710 C708 1.403 1_455 S
C710 C711 1.489 . S
C710 C724 1.411 . S
C711 C710 1.489 . S
C711 C712 1.383 1_455 S
C711 C716 1.382 . S
C712 H689 0.950 . S
C712 C711 1.383 1_655 S
C712 C713 1.395 . S
C713 H690 0.950 . S
C713 C712 1.395 . S
C713 C714 1.288 1_655 S
C714 C713 1.288 1_455 S
C714 C715 1.392 . S
C715 H691 0.951 . S
C715 C714 1.392 . S
C715 C716 1.392 . S
C716 H692 0.949 . S
C716 C711 1.382 . S
C716 C715 1.392 . S
C717 C718 1.376 . S
C717 C722 1.386 1_455 S
C717 C723 1.483 . S
C718 H693 0.949 . S
C718 C717 1.376 . S
C718 C719 1.397 . S
C719 H694 0.950 . S
C719 C718 1.397 . S
C719 C720 1.391 . S
C720 C719 1.391 . S
C720 C721 1.405 1_455 S
C721 H695 0.950 . S
C721 C720 1.405 1_655 S
C721 C722 1.367 . S
C722 H696 0.950 . S
C722 C717 1.386 1_655 S
C722 C721 1.367 . S
C723 C717 1.483 . S
C723 C724 1.382 . S
C723 C725 1.403 1_455 S
C724 H697 0.950 . S
C724 C710 1.411 . S
C724 C723 1.382 . S
C725 C709 1.411 . S
C725 C723 1.403 1_655 S
C725 C726 1.489 . S
C726 C725 1.489 . S
C726 C727 1.383 1_655 S
C726 C731 1.382 . S
C727 H698 0.950 . S
C727 C726 1.383 1_455 S
C727 C728 1.395 . S
C728 H699 0.950 . S
C728 C727 1.395 . S
C728 C729 1.288 1_455 S
C729 C728 1.288 1_655 S
C729 C730 1.392 . S
C730 H700 0.951 . S
C730 C729 1.392 . S
C730 C731 1.392 . S
C731 H701 0.949 . S
C731 C726 1.382 . S
C731 C730 1.392 . S
H732 C751 0.949 . S
H733 C752 0.950 . S
H734 C754 0.950 . S
H735 C755 0.950 . S
H736 C757 0.950 . S
H737 C760 0.950 . S
H738 C761 0.950 . S
H739 C763 0.951 . S
H740 C764 0.949 . S
H741 C766 0.949 . S
H742 C767 0.950 . S
H743 C769 0.950 . S
H744 C770 0.950 . S
H745 C772 0.950 . S
H746 C775 0.950 . S
H747 C776 0.950 . S
H748 C778 0.951 . S
H749 C779 0.949 . S
C750 C751 1.376 . S
C750 C755 1.386 . S
C750 C756 1.483 . S
C751 H732 0.949 . S
C751 C750 1.376 . S
C751 C752 1.397 . S
C752 H733 0.950 . S
C752 C751 1.397 . S
C752 C753 1.391 . S
C753 C752 1.391 . S
C753 C754 1.405 . S
C754 H734 0.950 . S
C754 C753 1.405 . S
C754 C755 1.367 . S
C755 H735 0.950 . S
C755 C750 1.386 . S
C755 C754 1.367 . S
C756 C750 1.483 . S
C756 C757 1.382 . S
C756 C758 1.403 . S
C757 H736 0.950 . S
C757 C756 1.382 . S
C757 C773 1.411 . S
C758 C756 1.403 . S
C758 C759 1.489 . S
C758 C772 1.411 . S
C759 C758 1.489 . S
C759 C760 1.383 . S
C759 C764 1.382 . S
C760 H737 0.950 . S
C760 C759 1.383 . S
C760 C761 1.395 . S
C761 H738 0.950 . S
C761 C760 1.395 . S
C761 C762 1.288 . S
C762 C761 1.288 . S
C762 C763 1.392 . S
C763 H739 0.951 . S
C763 C762 1.392 . S
C763 C764 1.392 . S
C764 H740 0.949 . S
C764 C759 1.382 . S
C764 C763 1.392 . S
C765 C766 1.376 . S
C765 C770 1.386 . S
C765 C771 1.483 . S
C766 H741 0.949 . S
C766 C765 1.376 . S
C766 C767 1.397 . S
C767 H742 0.950 . S
C767 C766 1.397 . S
C767 C768 1.391 . S
C768 C767 1.391 . S
C768 C769 1.405 . S
C769 H743 0.950 . S
C769 C768 1.405 . S
C769 C770 1.367 . S
C770 H744 0.950 . S
C770 C765 1.386 . S
C770 C769 1.367 . S
C771 C765 1.483 . S
C771 C772 1.382 . S
C771 C773 1.403 . S
C772 H745 0.950 . S
C772 C758 1.411 . S
C772 C771 1.382 . S
C773 C757 1.411 . S
C773 C771 1.403 . S
C773 C774 1.489 . S
C774 C773 1.489 . S
C774 C775 1.383 . S
C774 C779 1.382 . S
C775 H746 0.950 . S
C775 C774 1.383 . S
C775 C776 1.395 . S
C776 H747 0.950 . S
C776 C775 1.395 . S
C776 C777 1.288 . S
C777 C776 1.288 . S
C777 C778 1.392 . S
C778 H748 0.951 . S
C778 C777 1.392 . S
C778 C779 1.392 . S
C779 H749 0.949 . S
C779 C774 1.382 . S
C779 C778 1.392 . S
H780 C799 0.949 . S
H781 C800 0.950 . S
H782 C802 0.950 . S
H783 C803 0.950 . S
H784 C805 0.950 . S
H785 C808 0.950 . S
H786 C809 0.950 . S
H787 C811 0.951 . S
H788 C812 0.949 . S
H789 C814 0.949 . S
H790 C815 0.950 . S
H791 C817 0.950 . S
H792 C818 0.950 . S
H793 C820 0.950 . S
H794 C823 0.950 . S
H795 C824 0.950 . S
H796 C826 0.951 . S
H797 C827 0.949 . S
C798 C799 1.376 . S
C798 C803 1.386 1_545 S
C798 C804 1.483 . S
C799 H780 0.949 . S
C799 C798 1.376 . S
C799 C800 1.397 . S
C800 H781 0.950 . S
C800 C799 1.397 . S
C800 C801 1.391 . S
C801 C800 1.391 . S
C801 C802 1.405 1_545 S
C802 H782 0.950 . S
C802 C801 1.405 1_565 S
C802 C803 1.367 . S
C803 H783 0.950 . S
C803 C798 1.386 1_565 S
C803 C802 1.367 . S
C804 C798 1.483 . S
C804 C805 1.382 . S
C804 C806 1.403 1_545 S
C805 H784 0.950 . S
C805 C804 1.382 . S
C805 C821 1.411 . S
C806 C804 1.403 1_565 S
C806 C807 1.489 . S
C806 C820 1.411 . S
C807 C806 1.489 . S
C807 C808 1.383 1_565 S
C807 C812 1.382 . S
C808 H785 0.950 . S
C808 C807 1.383 1_545 S
C808 C809 1.395 . S
C809 H786 0.950 . S
C809 C808 1.395 . S
C809 C810 1.288 1_545 S
C810 C809 1.288 1_565 S
C810 C811 1.392 . S
C811 H787 0.951 . S
C811 C810 1.392 . S
C811 C812 1.392 . S
C812 H788 0.949 . S
C812 C807 1.382 . S
C812 C811 1.392 . S
C813 C814 1.376 . S
C813 C818 1.386 1_565 S
C813 C819 1.483 . S
C814 H789 0.949 . S
C814 C813 1.376 . S
C814 C815 1.397 . S
C815 H790 0.950 . S
C815 C814 1.397 . S
C815 C816 1.391 . S
C816 C815 1.391 . S
C816 C817 1.405 1_565 S
C817 H791 0.950 . S
C817 C816 1.405 1_545 S
C817 C818 1.367 . S
C818 H792 0.950 . S
C818 C813 1.386 1_545 S
C818 C817 1.367 . S
C819 C813 1.483 . S
C819 C820 1.382 . S
C819 C821 1.403 1_565 S
C820 H793 0.950 . S
C820 C806 1.411 . S
C820 C819 1.382 . S
C821 C805 1.411 . S
C821 C819 1.403 1_545 S
C821 C822 1.489 . S
C822 C821 1.489 . S
C822 C823 1.383 1_545 S
C822 C827 1.382 . S
C823 H794 0.950 . S
C823 C822 1.383 1_565 S
C823 C824 1.395 . S
C824 H795 0.950 . S
C824 C823 1.395 . S
C824 C825 1.288 1_565 S
C825 C824 1.288 1_545 S
C825 C826 1.392 . S
C826 H796 0.951 . S
C826 C825 1.392 . S
C826 C827 1.392 . S
C827 H797 0.949 . S
C827 C822 1.382 . S
C827 C826 1.392 . S
H828 C847 0.949 . S
H829 C848 0.950 . S
H830 C850 0.950 . S
H831 C851 0.950 . S
H832 C853 0.950 . S
H833 C856 0.950 . S
H834 C857 0.950 . S
H835 C859 0.951 . S
H836 C860 0.949 . S
H837 C862 0.949 . S
H838 C863 0.950 . S
H839 C865 0.950 . S
H840 C866 0.950 . S
H841 C868 0.950 . S
H842 C871 0.950 . S
H843 C872 0.950 . S
H844 C874 0.951 . S
H845 C875 0.949 . S
C846 C847 1.414 . S
C846 C851 1.370 1_545 S
C846 C852 1.497 . S
C847 H828 0.949 . S
C847 C846 1.414 . S
C847 C848 1.397 . S
C848 H829 0.950 . S
C848 C847 1.397 . S
C848 C849 1.366 1_545 S
C849 C848 1.366 1_565 S
C849 C850 1.462 . S
C850 H830 0.950 . S
C850 C849 1.462 . S
C850 C851 1.367 . S
C851 H831 0.950 . S
C851 C846 1.370 1_565 S
C851 C850 1.367 . S
C852 C846 1.497 . S
C852 C853 1.349 . S
C852 C854 1.398 1_545 S
C853 H832 0.950 . S
C853 C852 1.349 . S
C853 C869 1.438 . S
C854 C852 1.398 1_565 S
C854 C855 1.476 . S
C854 C868 1.426 . S
C855 C854 1.476 . S
C855 C856 1.384 1_565 S
C855 C860 1.381 . S
C856 H833 0.950 . S
C856 C855 1.384 1_545 S
C856 C857 1.395 . S
C857 H834 0.950 . S
C857 C856 1.395 . S
C857 C858 1.288 . S
C858 C857 1.288 . S
C858 C859 1.392 1_545 S
C859 H835 0.951 . S
C859 C858 1.392 1_565 S
C859 C860 1.392 . S
C860 H836 0.949 . S
C860 C855 1.381 . S
C860 C859 1.392 . S
C861 C862 1.397 . S
C861 C866 1.377 1_565 S
C861 C867 1.497 . S
C862 H837 0.949 . S
C862 C861 1.397 . S
C862 C863 1.397 . S
C863 H838 0.950 . S
C863 C862 1.397 . S
C863 C864 1.359 1_565 S
C864 C863 1.359 1_545 S
C864 C865 1.479 . S
C865 H839 0.950 . S
C865 C864 1.479 . S
C865 C866 1.367 . S
C866 H840 0.950 . S
C866 C861 1.377 1_545 S
C866 C865 1.367 . S
C867 C861 1.497 . S
C867 C868 1.357 . S
C867 C869 1.398 1_565 S
C868 H841 0.950 . S
C868 C854 1.426 . S
C868 C867 1.357 . S
C869 C853 1.438 . S
C869 C867 1.398 1_545 S
C869 C870 1.476 . S
C870 C869 1.476 . S
C870 C871 1.362 1_545 S
C870 C875 1.392 . S
C871 H842 0.950 . S
C871 C870 1.362 1_565 S
C871 C872 1.395 . S
C872 H843 0.950 . S
C872 C871 1.395 . S
C872 C873 1.288 . S
C873 C872 1.288 . S
C873 C874 1.392 1_565 S
C874 H844 0.951 . S
C874 C873 1.392 1_545 S
C874 C875 1.392 . S
C875 H845 0.949 . S
C875 C870 1.392 . S
C875 C874 1.392 . S
H876 C895 0.949 . S
H877 C896 0.950 . S
H878 C898 0.950 . S
H879 C899 0.950 . S
H880 C901 0.950 . S
H881 C904 0.950 . S
H882 C905 0.950 . S
H883 C907 0.951 . S
H884 C908 0.949 . S
H885 C910 0.949 . S
H886 C911 0.950 . S
H887 C913 0.950 . S
H888 C914 0.950 . S
H889 C916 0.950 . S
H890 C919 0.950 . S
H891 C920 0.950 . S
H892 C922 0.951 . S
H893 C923 0.949 . S
C894 C895 1.376 . S
C894 C899 1.386 1_455 S
C894 C900 1.483 . S
C895 H876 0.949 . S
C895 C894 1.376 . S
C895 C896 1.397 . S
C896 H877 0.950 . S
C896 C895 1.397 . S
C896 C897 1.391 . S
C897 C896 1.391 . S
C897 C898 1.405 1_455 S
C898 H878 0.950 . S
C898 C897 1.405 1_655 S
C898 C899 1.367 . S
C899 H879 0.950 . S
C899 C894 1.386 1_655 S
C899 C898 1.367 . S
C900 C894 1.483 . S
C900 C901 1.382 . S
C900 C902 1.403 1_455 S
C901 H880 0.950 . S
C901 C900 1.382 . S
C901 C917 1.411 . S
C902 C900 1.403 1_655 S
C902 C903 1.489 . S
C902 C916 1.411 . S
C903 C902 1.489 . S
C903 C904 1.383 1_655 S
C903 C908 1.382 . S
C904 H881 0.950 . S
C904 C903 1.383 1_455 S
C904 C905 1.395 . S
C905 H882 0.950 . S
C905 C904 1.395 . S
C905 C906 1.288 1_455 S
C906 C905 1.288 1_655 S
C906 C907 1.392 . S
C907 H883 0.951 . S
C907 C906 1.392 . S
C907 C908 1.392 . S
C908 H884 0.949 . S
C908 C903 1.382 . S
C908 C907 1.392 . S
C909 C910 1.376 . S
C909 C914 1.386 1_655 S
C909 C915 1.483 . S
C910 H885 0.949 . S
C910 C909 1.376 . S
C910 C911 1.397 . S
C911 H886 0.950 . S
C911 C910 1.397 . S
C911 C912 1.391 . S
C912 C911 1.391 . S
C912 C913 1.405 1_655 S
C913 H887 0.950 . S
C913 C912 1.405 1_455 S
C913 C914 1.367 . S
C914 H888 0.950 . S
C914 C909 1.386 1_455 S
C914 C913 1.367 . S
C915 C909 1.483 . S
C915 C916 1.382 . S
C915 C917 1.403 1_655 S
C916 H889 0.950 . S
C916 C902 1.411 . S
C916 C915 1.382 . S
C917 C901 1.411 . S
C917 C915 1.403 1_455 S
C917 C918 1.489 . S
C918 C917 1.489 . S
C918 C919 1.383 1_455 S
C918 C923 1.382 . S
C919 H890 0.950 . S
C919 C918 1.383 1_655 S
C919 C920 1.395 . S
C920 H891 0.950 . S
C920 C919 1.395 . S
C920 C921 1.288 1_655 S
C921 C920 1.288 1_455 S
C921 C922 1.392 . S
C922 H892 0.951 . S
C922 C921 1.392 . S
C922 C923 1.392 . S
C923 H893 0.949 . S
C923 C918 1.382 . S
C923 C922 1.392 . S
H924 C943 0.949 . S
H925 C944 0.950 . S
H926 C946 0.950 . S
H927 C947 0.950 . S
H928 C949 0.950 . S
H929 C952 0.950 . S
H930 C953 0.950 . S
H931 C955 0.951 . S
H932 C956 0.949 . S
H933 C958 0.949 . S
H934 C959 0.950 . S
H935 C961 0.950 . S
H936 C962 0.950 . S
H937 C964 0.950 . S
H938 C967 0.950 . S
H939 C968 0.950 . S
H940 C970 0.951 . S
H941 C971 0.949 . S
C942 C943 1.376 . S
C942 C947 1.386 . S
C942 C948 1.483 . S
C943 H924 0.949 . S
C943 C942 1.376 . S
C943 C944 1.397 . S
C944 H925 0.950 . S
C944 C943 1.397 . S
C944 C945 1.391 . S
C945 C944 1.391 . S
C945 C946 1.405 . S
C946 H926 0.950 . S
C946 C945 1.405 . S
C946 C947 1.367 . S
C947 H927 0.950 . S
C947 C942 1.386 . S
C947 C946 1.367 . S
C948 C942 1.483 . S
C948 C949 1.382 . S
C948 C950 1.403 . S
C949 H928 0.950 . S
C949 C948 1.382 . S
C949 C965 1.411 . S
C950 C948 1.403 . S
C950 C951 1.489 . S
C950 C964 1.411 . S
C951 C950 1.489 . S
C951 C952 1.383 . S
C951 C956 1.382 . S
C952 H929 0.950 . S
C952 C951 1.383 . S
C952 C953 1.395 . S
C953 H930 0.950 . S
C953 C952 1.395 . S
C953 C954 1.288 . S
C954 C953 1.288 . S
C954 C955 1.392 . S
C955 H931 0.951 . S
C955 C954 1.392 . S
C955 C956 1.392 . S
C956 H932 0.949 . S
C956 C951 1.382 . S
C956 C955 1.392 . S
C957 C958 1.376 . S
C957 C962 1.386 . S
C957 C963 1.483 . S
C958 H933 0.949 . S
C958 C957 1.376 . S
C958 C959 1.397 . S
C959 H934 0.950 . S
C959 C958 1.397 . S
C959 C960 1.391 . S
C960 C959 1.391 . S
C960 C961 1.405 . S
C961 H935 0.950 . S
C961 C960 1.405 . S
C961 C962 1.367 . S
C962 H936 0.950 . S
C962 C957 1.386 . S
C962 C961 1.367 . S
C963 C957 1.483 . S
C963 C964 1.382 . S
C963 C965 1.403 . S
C964 H937 0.950 . S
C964 C950 1.411 . S
C964 C963 1.382 . S
C965 C949 1.411 . S
C965 C963 1.403 . S
C965 C966 1.489 . S
C966 C965 1.489 . S
C966 C967 1.383 . S
C966 C971 1.382 . S
C967 H938 0.950 . S
C967 C966 1.383 . S
C967 C968 1.395 . S
C968 H939 0.950 . S
C968 C967 1.395 . S
C968 C969 1.288 . S
C969 C968 1.288 . S
C969 C970 1.392 . S
C970 H940 0.951 . S
C970 C969 1.392 . S
C970 C971 1.392 . S
C971 H941 0.949 . S
C971 C966 1.382 . S
C971 C970 1.392 . S
H972 C991 0.949 . S
H973 C992 0.950 . S
H974 C994 0.950 . S
H975 C995 0.950 . S
H976 C997 0.950 . S
H977 C1000 0.950 . S
H978 C1001 0.950 . S
H979 C1003 0.951 . S
H980 C1004 0.949 . S
H981 C1006 0.949 . S
H982 C1007 0.950 . S
H983 C1009 0.950 . S
H984 C1010 0.950 . S
H985 C1012 0.950 . S
H986 C1015 0.950 . S
H987 C1016 0.950 . S
H988 C1018 0.951 . S
H989 C1019 0.949 . S
C990 C991 1.376 . S
C990 C995 1.386 . S
C990 C996 1.483 . S
C991 H972 0.949 . S
C991 C990 1.376 . S
C991 C992 1.397 . S
C992 H973 0.950 . S
C992 C991 1.397 . S
C992 C993 1.391 . S
C993 C992 1.391 . S
C993 C994 1.405 . S
C994 H974 0.950 . S
C994 C993 1.405 . S
C994 C995 1.367 . S
C995 H975 0.950 . S
C995 C990 1.386 . S
C995 C994 1.367 . S
C996 C990 1.483 . S
C996 C997 1.382 . S
C996 C998 1.403 . S
C997 H976 0.950 . S
C997 C996 1.382 . S
C997 C1013 1.411 . S
C998 C996 1.403 . S
C998 C999 1.489 . S
C998 C1012 1.411 . S
C999 C998 1.489 . S
C999 C1000 1.383 . S
C999 C1004 1.382 . S
C1000 H977 0.950 . S
C1000 C999 1.383 . S
C1000 C1001 1.395 . S
C1001 H978 0.950 . S
C1001 C1000 1.395 . S
C1001 C1002 1.288 . S
C1002 C1001 1.288 . S
C1002 C1003 1.392 . S
C1003 H979 0.951 . S
C1003 C1002 1.392 . S
C1003 C1004 1.392 . S
C1004 H980 0.949 . S
C1004 C999 1.382 . S
C1004 C1003 1.392 . S
C1005 C1006 1.376 . S
C1005 C1010 1.386 . S
C1005 C1011 1.483 . S
C1006 H981 0.949 . S
C1006 C1005 1.376 . S
C1006 C1007 1.397 . S
C1007 H982 0.950 . S
C1007 C1006 1.397 . S
C1007 C1008 1.391 . S
C1008 C1007 1.391 . S
C1008 C1009 1.405 . S
C1009 H983 0.950 . S
C1009 C1008 1.405 . S
C1009 C1010 1.367 . S
C1010 H984 0.950 . S
C1010 C1005 1.386 . S
C1010 C1009 1.367 . S
C1011 C1005 1.483 . S
C1011 C1012 1.382 . S
C1011 C1013 1.403 . S
C1012 H985 0.950 . S
C1012 C998 1.411 . S
C1012 C1011 1.382 . S
C1013 C997 1.411 . S
C1013 C1011 1.403 . S
C1013 C1014 1.489 . S
C1014 C1013 1.489 . S
C1014 C1015 1.383 . S
C1014 C1019 1.382 . S
C1015 H986 0.950 . S
C1015 C1014 1.383 . S
C1015 C1016 1.395 . S
C1016 H987 0.950 . S
C1016 C1015 1.395 . S
C1016 C1017 1.288 . S
C1017 C1016 1.288 . S
C1017 C1018 1.392 . S
C1018 H988 0.951 . S
C1018 C1017 1.392 . S
C1018 C1019 1.392 . S
C1019 H989 0.949 . S
C1019 C1014 1.382 . S
C1019 C1018 1.392 . S
H1020 C1039 0.949 . S
H1021 C1040 0.950 . S
H1022 C1042 0.950 . S
H1023 C1043 0.950 . S
H1024 C1045 0.950 . S
H1025 C1048 0.950 . S
H1026 C1049 0.950 . S
H1027 C1051 0.951 . S
H1028 C1052 0.949 . S
H1029 C1054 0.949 . S
H1030 C1055 0.950 . S
H1031 C1057 0.950 . S
H1032 C1058 0.950 . S
H1033 C1060 0.950 . S
H1034 C1063 0.950 . S
H1035 C1064 0.950 . S
H1036 C1066 0.951 . S
H1037 C1067 0.949 . S
C1038 C1039 1.376 . S
C1038 C1043 1.386 . S
C1038 C1044 1.483 . S
C1039 H1020 0.949 . S
C1039 C1038 1.376 . S
C1039 C1040 1.397 . S
C1040 H1021 0.950 . S
C1040 C1039 1.397 . S
C1040 C1041 1.391 . S
C1041 C1040 1.391 . S
C1041 C1042 1.405 . S
C1042 H1022 0.950 . S
C1042 C1041 1.405 . S
C1042 C1043 1.367 . S
C1043 H1023 0.950 . S
C1043 C1038 1.386 . S
C1043 C1042 1.367 . S
C1044 C1038 1.483 . S
C1044 C1045 1.382 . S
C1044 C1046 1.403 . S
C1045 H1024 0.950 . S
C1045 C1044 1.382 . S
C1045 C1061 1.411 . S
C1046 C1044 1.403 . S
C1046 C1047 1.489 . S
C1046 C1060 1.411 . S
C1047 C1046 1.489 . S
C1047 C1048 1.383 . S
C1047 C1052 1.382 . S
C1048 H1025 0.950 . S
C1048 C1047 1.383 . S
C1048 C1049 1.395 . S
C1049 H1026 0.950 . S
C1049 C1048 1.395 . S
C1049 C1050 1.288 . S
C1050 C1049 1.288 . S
C1050 C1051 1.392 . S
C1051 H1027 0.951 . S
C1051 C1050 1.392 . S
C1051 C1052 1.392 . S
C1052 H1028 0.949 . S
C1052 C1047 1.382 . S
C1052 C1051 1.392 . S
C1053 C1054 1.376 . S
C1053 C1058 1.386 . S
C1053 C1059 1.483 . S
C1054 H1029 0.949 . S
C1054 C1053 1.376 . S
C1054 C1055 1.397 . S
C1055 H1030 0.950 . S
C1055 C1054 1.397 . S
C1055 C1056 1.391 . S
C1056 C1055 1.391 . S
C1056 C1057 1.405 . S
C1057 H1031 0.950 . S
C1057 C1056 1.405 . S
C1057 C1058 1.367 . S
C1058 H1032 0.950 . S
C1058 C1053 1.386 . S
C1058 C1057 1.367 . S
C1059 C1053 1.483 . S
C1059 C1060 1.382 . S
C1059 C1061 1.403 . S
C1060 H1033 0.950 . S
C1060 C1046 1.411 . S
C1060 C1059 1.382 . S
C1061 C1045 1.411 . S
C1061 C1059 1.403 . S
C1061 C1062 1.489 . S
C1062 C1061 1.489 . S
C1062 C1063 1.383 . S
C1062 C1067 1.382 . S
C1063 H1034 0.950 . S
C1063 C1062 1.383 . S
C1063 C1064 1.395 . S
C1064 H1035 0.950 . S
C1064 C1063 1.395 . S
C1064 C1065 1.288 . S
C1065 C1064 1.288 . S
C1065 C1066 1.392 . S
C1066 H1036 0.951 . S
C1066 C1065 1.392 . S
C1066 C1067 1.392 . S
C1067 H1037 0.949 . S
C1067 C1062 1.382 . S
C1067 C1066 1.392 . S
H1068 C1087 0.949 . S
H1069 C1088 0.950 . S
H1070 C1090 0.950 . S
H1071 C1091 0.950 . S
H1072 C1093 0.950 . S
H1073 C1096 0.950 . S
H1074 C1097 0.950 . S
H1075 C1099 0.951 . S
H1076 C1100 0.949 . S
H1077 C1102 0.949 . S
H1078 C1103 0.950 . S
H1079 C1105 0.950 . S
H1080 C1106 0.950 . S
H1081 C1108 0.950 . S
H1082 C1111 0.950 . S
H1083 C1112 0.950 . S
H1084 C1114 0.951 . S
H1085 C1115 0.949 . S
C1086 C1087 1.376 . S
C1086 C1091 1.386 . S
C1086 C1092 1.483 . S
C1087 H1068 0.949 . S
C1087 C1086 1.376 . S
C1087 C1088 1.397 . S
C1088 H1069 0.950 . S
C1088 C1087 1.397 . S
C1088 C1089 1.391 . S
C1089 C1088 1.391 . S
C1089 C1090 1.405 . S
C1090 H1070 0.950 . S
C1090 C1089 1.405 . S
C1090 C1091 1.367 . S
C1091 H1071 0.950 . S
C1091 C1086 1.386 . S
C1091 C1090 1.367 . S
C1092 C1086 1.483 . S
C1092 C1093 1.382 . S
C1092 C1094 1.403 . S
C1093 H1072 0.950 . S
C1093 C1092 1.382 . S
C1093 C1109 1.411 . S
C1094 C1092 1.403 . S
C1094 C1095 1.489 . S
C1094 C1108 1.411 . S
C1095 C1094 1.489 . S
C1095 C1096 1.383 . S
C1095 C1100 1.382 . S
C1096 H1073 0.950 . S
C1096 C1095 1.383 . S
C1096 C1097 1.395 . S
C1097 H1074 0.950 . S
C1097 C1096 1.395 . S
C1097 C1098 1.288 . S
C1098 C1097 1.288 . S
C1098 C1099 1.392 . S
C1099 H1075 0.951 . S
C1099 C1098 1.392 . S
C1099 C1100 1.392 . S
C1100 H1076 0.949 . S
C1100 C1095 1.382 . S
C1100 C1099 1.392 . S
C1101 C1102 1.376 . S
C1101 C1106 1.386 . S
C1101 C1107 1.483 . S
C1102 H1077 0.949 . S
C1102 C1101 1.376 . S
C1102 C1103 1.397 . S
C1103 H1078 0.950 . S
C1103 C1102 1.397 . S
C1103 C1104 1.391 . S
C1104 C1103 1.391 . S
C1104 C1105 1.405 . S
C1105 H1079 0.950 . S
C1105 C1104 1.405 . S
C1105 C1106 1.367 . S
C1106 H1080 0.950 . S
C1106 C1101 1.386 . S
C1106 C1105 1.367 . S
C1107 C1101 1.483 . S
C1107 C1108 1.382 . S
C1107 C1109 1.403 . S
C1108 H1081 0.950 . S
C1108 C1094 1.411 . S
C1108 C1107 1.382 . S
C1109 C1093 1.411 . S
C1109 C1107 1.403 . S
C1109 C1110 1.489 . S
C1110 C1109 1.489 . S
C1110 C1111 1.383 . S
C1110 C1115 1.382 . S
C1111 H1082 0.950 . S
C1111 C1110 1.383 . S
C1111 C1112 1.395 . S
C1112 H1083 0.950 . S
C1112 C1111 1.395 . S
C1112 C1113 1.288 . S
C1113 C1112 1.288 . S
C1113 C1114 1.392 . S
C1114 H1084 0.951 . S
C1114 C1113 1.392 . S
C1114 C1115 1.392 . S
C1115 H1085 0.949 . S
C1115 C1110 1.382 . S
C1115 C1114 1.392 . S
C1116 C1117 1.349 . S
C1116 C1118 1.327 . S
C1116 H1141 0.948 . S
C1117 C1116 1.349 . S
C1117 C1133 1.349 . S
C1118 C1116 1.327 . S
C1118 C1137 1.429 . S
C1118 H1142 0.940 1_655 S
C1119 C1136 1.574 . S
C1119 C1138 1.368 . S
C1119 H1143 0.949 . S
H1120 C1124 0.942 1_455 S
C1121 C1122 1.349 . S
C1121 C1123 1.327 . S
C1121 H1144 0.950 . S
C1122 C1121 1.349 . S
C1122 C1134 1.349 1_655 S
C1123 C1121 1.327 . S
C1123 C1139 1.429 . S
C1123 H1145 0.950 . S
C1124 H1120 0.942 1_655 S
C1124 C1132 1.586 . S
C1124 C1140 1.393 . S
H1125 C1133 0.950 . S
H1126 C1131 0.950 . S
H1127 C1132 0.862 1_455 S
H1128 C1134 0.950 . S
H1129 C1135 0.951 1_455 S
H1130 C1136 0.949 . S
C1131 H1126 0.950 . S
C1131 C1133 1.327 . S
C1131 C1137 1.429 . S
C1132 C1124 1.586 . S
C1132 H1127 0.862 1_655 S
C1132 C1138 1.392 . S
C1133 C1117 1.349 . S
C1133 H1125 0.950 . S
C1133 C1131 1.327 . S
C1134 C1122 1.349 1_455 S
C1134 H1128 0.950 . S
C1134 C1135 1.326 1_455 S
C1135 H1129 0.951 1_655 S
C1135 C1134 1.326 1_655 S
C1135 C1139 1.428 . S
C1136 C1119 1.574 . S
C1136 H1130 0.949 . S
C1136 C1140 1.368 . S
C1137 C1118 1.429 . S
C1137 C1131 1.429 . S
C1137 C1138 1.523 . S
C1138 C1119 1.368 . S
C1138 C1132 1.392 . S
C1138 C1137 1.523 . S
C1139 C1123 1.429 . S
C1139 C1135 1.428 . S
C1139 C1140 1.523 . S
C1140 C1124 1.393 . S
C1140 C1136 1.368 . S
C1140 C1139 1.523 . S
H1141 C1116 0.948 . S
H1142 C1118 0.940 1_455 S
H1143 C1119 0.949 . S
H1144 C1121 0.950 . S
H1145 C1123 0.950 . S
C1146 C1147 1.349 . S
C1146 C1148 1.327 . S
C1146 H1171 0.950 . S
C1147 C1146 1.349 . S
C1147 C1163 1.349 . S
C1148 C1146 1.327 . S
C1148 C1167 1.429 . S
C1148 H1172 0.950 . S
C1149 C1166 1.574 . S
C1149 C1168 1.368 . S
C1149 H1173 0.949 . S
H1150 C1154 0.949 . S
C1151 C1152 1.349 . S
C1151 C1153 1.327 . S
C1151 H1174 0.950 . S
C1152 C1151 1.349 . S
C1152 C1164 1.349 . S
C1153 C1151 1.327 . S
C1153 C1169 1.429 . S
C1153 H1175 0.950 . S
C1154 H1150 0.949 . S
C1154 C1162 1.574 . S
C1154 C1170 1.368 . S
H1155 C1163 0.950 . S
H1156 C1161 0.950 . S
H1157 C1162 0.949 . S
H1158 C1164 0.950 . S
H1159 C1165 0.950 . S
H1160 C1166 0.949 . S
C1161 H1156 0.950 . S
C1161 C1163 1.327 . S
C1161 C1167 1.429 . S
C1162 C1154 1.574 . S
C1162 H1157 0.949 . S
C1162 C1168 1.368 . S
C1163 C1147 1.349 . S
C1163 H1155 0.950 . S
C1163 C1161 1.327 . S
C1164 C1152 1.349 . S
C1164 H1158 0.950 . S
C1164 C1165 1.327 . S
C1165 H1159 0.950 . S
C1165 C1164 1.327 . S
C1165 C1169 1.429 . S
C1166 C1149 1.574 . S
C1166 H1160 0.949 . S
C1166 C1170 1.368 . S
C1167 C1148 1.429 . S
C1167 C1161 1.429 . S
C1167 C1168 1.523 . S
C1168 C1149 1.368 . S
C1168 C1162 1.368 . S
C1168 C1167 1.523 . S
C1169 C1153 1.429 . S
C1169 C1165 1.429 . S
C1169 C1170 1.523 . S
C1170 C1154 1.368 . S
C1170 C1166 1.368 . S
C1170 C1169 1.523 . S
H1171 C1146 0.950 . S
H1172 C1148 0.950 . S
H1173 C1149 0.949 . S
H1174 C1151 0.950 . S
H1175 C1153 0.950 . S
C1176 C1177 1.349 . S
C1176 C1178 1.327 . S
C1176 H1201 0.950 . S
C1177 C1176 1.349 . S
C1177 C1193 1.349 . S
C1178 C1176 1.327 . S
C1178 C1197 1.429 . S
C1178 H1202 0.950 . S
C1179 C1196 1.574 . S
C1179 C1198 1.368 1_565 S
C1179 H1203 0.949 . S
H1180 C1184 0.949 . S
C1181 C1182 1.349 1_565 S
C1181 C1183 1.327 . S
C1181 H1204 0.950 . S
C1182 C1181 1.349 1_545 S
C1182 C1194 1.349 . S
C1183 C1181 1.327 . S
C1183 C1199 1.429 1_565 S
C1183 H1205 0.950 . S
C1184 H1180 0.949 . S
C1184 C1192 1.574 . S
C1184 C1200 1.368 . S
H1185 C1193 0.950 1_565 S
H1186 C1191 0.918 1_565 S
H1187 C1192 0.949 . S
H1188 C1194 0.950 . S
H1189 C1195 0.950 . S
H1190 C1196 0.949 . S
C1191 H1186 0.918 1_545 S
C1191 C1193 1.342 . S
C1191 C1197 1.445 . S
C1192 C1184 1.574 . S
C1192 H1187 0.949 . S
C1192 C1198 1.368 . S
C1193 C1177 1.349 . S
C1193 H1185 0.950 1_545 S
C1193 C1191 1.342 . S
C1194 C1182 1.349 . S
C1194 H1188 0.950 . S
C1194 C1195 1.327 . S
C1195 H1189 0.950 . S
C1195 C1194 1.327 . S
C1195 C1199 1.429 . S
C1196 C1179 1.574 . S
C1196 H1190 0.949 . S
C1196 C1200 1.368 1_565 S
C1197 C1178 1.429 . S
C1197 C1191 1.445 . S
C1197 C1198 1.523 . S
C1198 C1179 1.368 1_545 S
C1198 C1192 1.368 . S
C1198 C1197 1.523 . S
C1199 C1183 1.429 1_545 S
C1199 C1195 1.429 . S
C1199 C1200 1.523 . S
C1200 C1184 1.368 . S
C1200 C1196 1.368 1_545 S
C1200 C1199 1.523 . S
H1201 C1176 0.950 . S
H1202 C1178 0.950 . S
H1203 C1179 0.949 . S
H1204 C1181 0.950 . S
H1205 C1183 0.950 . S
C1206 C1207 1.349 . S
C1206 C1208 1.327 . S
C1206 H1231 0.950 . S
C1207 C1206 1.349 . S
C1207 C1223 1.349 1_565 S
C1208 C1206 1.327 . S
C1208 C1227 1.429 . S
C1208 H1232 0.950 . S
C1209 C1226 1.574 . S
C1209 C1228 1.368 1_545 S
C1209 H1233 0.949 . S
H1210 C1214 0.949 . S
C1211 C1212 1.349 1_545 S
C1211 C1213 1.327 . S
C1211 H1234 0.950 . S
C1212 C1211 1.349 1_565 S
C1212 C1224 1.349 . S
C1213 C1211 1.327 . S
C1213 C1229 1.429 1_545 S
C1213 H1235 0.950 . S
C1214 H1210 0.949 . S
C1214 C1222 1.574 . S
C1214 C1230 1.368 . S
H1215 C1223 0.950 . S
H1216 C1221 0.950 . S
H1217 C1222 0.949 . S
H1218 C1224 0.950 . S
H1219 C1225 0.950 . S
H1220 C1226 0.949 . S
C1221 H1216 0.950 . S
C1221 C1223 1.327 . S
C1221 C1227 1.429 1_545 S
C1222 C1214 1.574 . S
C1222 H1217 0.949 . S
C1222 C1228 1.368 . S
C1223 C1207 1.349 1_545 S
C1223 H1215 0.950 . S
C1223 C1221 1.327 . S
C1224 C1212 1.349 . S
C1224 H1218 0.950 . S
C1224 C1225 1.327 . S
C1225 H1219 0.950 . S
C1225 C1224 1.327 . S
C1225 C1229 1.429 . S
C1226 C1209 1.574 . S
C1226 H1220 0.949 . S
C1226 C1230 1.368 1_545 S
C1227 C1208 1.429 . S
C1227 C1221 1.429 1_565 S
C1227 C1228 1.523 . S
C1228 C1209 1.368 1_565 S
C1228 C1222 1.368 . S
C1228 C1227 1.523 . S
C1229 C1213 1.429 1_565 S
C1229 C1225 1.429 . S
C1229 C1230 1.523 . S
C1230 C1214 1.368 . S
C1230 C1226 1.368 1_565 S
C1230 C1229 1.523 . S
H1231 C1206 0.950 . S
H1232 C1208 0.950 . S
H1233 C1209 0.949 . S
H1234 C1211 0.950 . S
H1235 C1213 0.950 . S
C1236 C1237 1.349 . S
C1236 C1238 1.327 . S
C1236 H1261 0.950 . S
C1237 C1236 1.349 . S
C1237 C1253 1.349 1_455 S
C1238 C1236 1.327 . S
C1238 C1257 1.429 . S
C1238 H1262 0.950 . S
C1239 C1256 1.574 . S
C1239 C1258 1.368 1_655 S
C1239 H1263 0.949 . S
H1240 C1244 0.949 . S
C1241 C1242 1.349 1_655 S
C1241 C1243 1.327 . S
C1241 H1264 0.950 . S
C1242 C1241 1.349 1_455 S
C1242 C1254 1.349 . S
C1243 C1241 1.327 . S
C1243 C1259 1.429 1_655 S
C1243 H1265 0.950 . S
C1244 H1240 0.949 . S
C1244 C1252 1.574 . S
C1244 C1260 1.368 . S
H1245 C1253 0.950 . S
H1246 C1251 0.950 . S
H1247 C1252 0.949 . S
H1248 C1254 0.950 . S
H1249 C1255 0.950 . S
H1250 C1256 0.949 . S
C1251 H1246 0.950 . S
C1251 C1253 1.327 . S
C1251 C1257 1.429 1_655 S
C1252 C1244 1.574 . S
C1252 H1247 0.949 . S
C1252 C1258 1.368 . S
C1253 C1237 1.349 1_655 S
C1253 H1245 0.950 . S
C1253 C1251 1.327 . S
C1254 C1242 1.349 . S
C1254 H1248 0.950 . S
C1254 C1255 1.327 . S
C1255 H1249 0.950 . S
C1255 C1254 1.327 . S
C1255 C1259 1.429 . S
C1256 C1239 1.574 . S
C1256 H1250 0.949 . S
C1256 C1260 1.368 1_655 S
C1257 C1238 1.429 . S
C1257 C1251 1.429 1_455 S
C1257 C1258 1.523 . S
C1258 C1239 1.368 1_455 S
C1258 C1252 1.368 . S
C1258 C1257 1.523 . S
C1259 C1243 1.429 1_455 S
C1259 C1255 1.429 . S
C1259 C1260 1.523 . S
C1260 C1244 1.368 . S
C1260 C1256 1.368 1_455 S
C1260 C1259 1.523 . S
H1261 C1236 0.950 . S
H1262 C1238 0.950 . S
H1263 C1239 0.949 . S
H1264 C1241 0.950 . S
H1265 C1243 0.950 . S
C1266 C1267 1.349 . S
C1266 C1268 1.327 . S
C1266 H1291 0.950 . S
C1267 C1266 1.349 . S
C1267 C1283 1.349 . S
C1268 C1266 1.327 . S
C1268 C1287 1.429 . S
C1268 H1292 0.950 . S
C1269 C1286 1.574 . S
C1269 C1288 1.368 . S
C1269 H1293 0.949 . S
H1270 C1274 0.949 . S
C1271 C1272 1.349 . S
C1271 C1273 1.327 . S
C1271 H1294 0.950 . S
C1272 C1271 1.349 . S
C1272 C1284 1.349 . S
C1273 C1271 1.327 . S
C1273 C1289 1.429 . S
C1273 H1295 0.950 . S
C1274 H1270 0.949 . S
C1274 C1282 1.574 . S
C1274 C1290 1.368 . S
H1275 C1283 0.950 . S
H1276 C1281 0.950 . S
H1277 C1282 0.949 . S
H1278 C1284 0.950 . S
H1279 C1285 0.950 . S
H1280 C1286 0.949 . S
C1281 H1276 0.950 . S
C1281 C1283 1.327 . S
C1281 C1287 1.429 . S
C1282 C1274 1.574 . S
C1282 H1277 0.949 . S
C1282 C1288 1.368 . S
C1283 C1267 1.349 . S
C1283 H1275 0.950 . S
C1283 C1281 1.327 . S
C1284 C1272 1.349 . S
C1284 H1278 0.950 . S
C1284 C1285 1.327 . S
C1285 H1279 0.950 . S
C1285 C1284 1.327 . S
C1285 C1289 1.429 . S
C1286 C1269 1.574 . S
C1286 H1280 0.949 . S
C1286 C1290 1.368 . S
C1287 C1268 1.429 . S
C1287 C1281 1.429 . S
C1287 C1288 1.523 . S
C1288 C1269 1.368 . S
C1288 C1282 1.368 . S
C1288 C1287 1.523 . S
C1289 C1273 1.429 . S
C1289 C1285 1.429 . S
C1289 C1290 1.523 . S
C1290 C1274 1.368 . S
C1290 C1286 1.368 . S
C1290 C1289 1.523 . S
H1291 C1266 0.950 . S
H1292 C1268 0.950 . S
H1293 C1269 0.949 . S
H1294 C1271 0.950 . S
H1295 C1273 0.950 . S
C1296 C1297 1.349 1_655 S
C1296 C1298 1.327 . S
C1296 H1321 0.950 . S
C1297 C1296 1.349 1_455 S
C1297 C1313 1.349 . S
C1298 C1296 1.327 . S
C1298 C1317 1.429 1_655 S
C1298 H1322 0.950 . S
C1299 C1316 1.574 . S
C1299 C1318 1.368 . S
C1299 H1323 0.949 . S
H1300 C1304 0.949 . S
C1301 C1302 1.349 . S
C1301 C1303 1.327 . S
C1301 H1324 0.950 . S
C1302 C1301 1.349 . S
C1302 C1314 1.349 1_455 S
C1303 C1301 1.327 . S
C1303 C1319 1.429 . S
C1303 H1325 0.950 . S
C1304 H1300 0.949 . S
C1304 C1312 1.574 . S
C1304 C1320 1.368 1_655 S
H1305 C1313 0.950 . S
H1306 C1311 0.950 . S
H1307 C1312 0.949 . S
H1308 C1314 0.950 . S
H1309 C1315 0.950 . S
H1310 C1316 0.949 . S
C1311 H1306 0.950 . S
C1311 C1313 1.327 . S
C1311 C1317 1.429 . S
C1312 C1304 1.574 . S
C1312 H1307 0.949 . S
C1312 C1318 1.368 1_655 S
C1313 C1297 1.349 . S
C1313 H1305 0.950 . S
C1313 C1311 1.327 . S
C1314 C1302 1.349 1_655 S
C1314 H1308 0.950 . S
C1314 C1315 1.327 . S
C1315 H1309 0.950 . S
C1315 C1314 1.327 . S
C1315 C1319 1.429 1_655 S
C1316 C1299 1.574 . S
C1316 H1310 0.949 . S
C1316 C1320 1.368 . S
C1317 C1298 1.429 1_455 S
C1317 C1311 1.429 . S
C1317 C1318 1.523 . S
C1318 C1299 1.368 . S
C1318 C1312 1.368 1_455 S
C1318 C1317 1.523 . S
C1319 C1303 1.429 . S
C1319 C1315 1.429 1_455 S
C1319 C1320 1.523 . S
C1320 C1304 1.368 1_455 S
C1320 C1316 1.368 . S
C1320 C1319 1.523 . S
H1321 C1296 0.950 . S
H1322 C1298 0.950 . S
H1323 C1299 0.949 . S
H1324 C1301 0.950 . S
H1325 C1303 0.950 . S
C1326 C1327 1.349 . S
C1326 C1328 1.327 . S
C1326 H1351 0.950 . S
C1327 C1326 1.349 . S
C1327 C1343 1.349 . S
C1328 C1326 1.327 . S
C1328 C1347 1.429 . S
C1328 H1352 0.950 . S
C1329 C1346 1.574 . S
C1329 C1348 1.368 . S
C1329 H1353 0.949 . S
H1330 C1334 0.949 . S
C1331 C1332 1.349 . S
C1331 C1333 1.327 . S
C1331 H1354 0.950 . S
C1332 C1331 1.349 . S
C1332 C1344 1.349 . S
C1333 C1331 1.327 . S
C1333 C1349 1.429 . S
C1333 H1355 0.950 . S
C1334 H1330 0.949 . S
C1334 C1342 1.574 . S
C1334 C1350 1.368 . S
H1335 C1343 0.950 . S
H1336 C1341 0.950 . S
H1337 C1342 0.949 . S
H1338 C1344 0.950 . S
H1339 C1345 0.950 . S
H1340 C1346 0.949 . S
C1341 H1336 0.950 . S
C1341 C1343 1.327 . S
C1341 C1347 1.429 . S
C1342 C1334 1.574 . S
C1342 H1337 0.949 . S
C1342 C1348 1.368 . S
C1343 C1327 1.349 . S
C1343 H1335 0.950 . S
C1343 C1341 1.327 . S
C1344 C1332 1.349 . S
C1344 H1338 0.950 . S
C1344 C1345 1.327 . S
C1345 H1339 0.950 . S
C1345 C1344 1.327 . S
C1345 C1349 1.429 . S
C1346 C1329 1.574 . S
C1346 H1340 0.949 . S
C1346 C1350 1.368 . S
C1347 C1328 1.429 . S
C1347 C1341 1.429 . S
C1347 C1348 1.523 . S
C1348 C1329 1.368 . S
C1348 C1342 1.368 . S
C1348 C1347 1.523 . S
C1349 C1333 1.429 . S
C1349 C1345 1.429 . S
C1349 C1350 1.523 . S
C1350 C1334 1.368 . S
C1350 C1346 1.368 . S
C1350 C1349 1.523 . S
H1351 C1326 0.950 . S
H1352 C1328 0.950 . S
H1353 C1329 0.949 . S
H1354 C1331 0.950 . S
H1355 C1333 0.950 . S
C1356 C1357 1.349 . S
C1356 C1358 1.327 . S
C1356 H1381 0.950 . S
C1357 C1356 1.349 . S
C1357 C1373 1.349 1_565 S
C1358 C1356 1.327 . S
C1358 C1377 1.429 . S
C1358 H1382 0.950 . S
C1359 C1376 1.574 . S
C1359 C1378 1.368 1_545 S
C1359 H1383 0.949 . S
H1360 C1364 0.949 . S
C1361 C1362 1.349 1_545 S
C1361 C1363 1.327 . S
C1361 H1384 0.950 . S
C1362 C1361 1.349 1_565 S
C1362 C1374 1.349 . S
C1363 C1361 1.327 . S
C1363 C1379 1.429 1_545 S
C1363 H1385 0.950 . S
C1364 H1360 0.949 . S
C1364 C1372 1.574 . S
C1364 C1380 1.368 . S
H1365 C1373 0.950 . S
H1366 C1371 0.950 . S
H1367 C1372 0.949 . S
H1368 C1374 0.950 . S
H1369 C1375 0.950 . S
H1370 C1376 0.949 . S
C1371 H1366 0.950 . S
C1371 C1373 1.327 . S
C1371 C1377 1.429 1_545 S
C1372 C1364 1.574 . S
C1372 H1367 0.949 . S
C1372 C1378 1.368 . S
C1373 C1357 1.349 1_545 S
C1373 H1365 0.950 . S
C1373 C1371 1.327 . S
C1374 C1362 1.349 . S
C1374 H1368 0.950 . S
C1374 C1375 1.327 . S
C1375 H1369 0.950 . S
C1375 C1374 1.327 . S
C1375 C1379 1.429 . S
C1376 C1359 1.574 . S
C1376 H1370 0.949 . S
C1376 C1380 1.368 1_545 S
C1377 C1358 1.429 . S
C1377 C1371 1.429 1_565 S
C1377 C1378 1.523 . S
C1378 C1359 1.368 1_565 S
C1378 C1372 1.368 . S
C1378 C1377 1.523 . S
C1379 C1363 1.429 1_565 S
C1379 C1375 1.429 . S
C1379 C1380 1.523 . S
C1380 C1364 1.368 . S
C1380 C1376 1.368 1_565 S
C1380 C1379 1.523 . S
H1381 C1356 0.950 . S
H1382 C1358 0.950 . S
H1383 C1359 0.949 . S
H1384 C1361 0.950 . S
H1385 C1363 0.950 . S
C1386 C1387 1.349 . S
C1386 C1388 1.327 . S
C1386 H1411 0.950 . S
C1387 C1386 1.349 . S
C1387 C1403 1.349 1_545 S
C1388 C1386 1.327 . S
C1388 C1407 1.429 . S
C1388 H1412 0.950 . S
C1389 C1406 1.574 . S
C1389 C1408 1.368 1_565 S
C1389 H1413 0.949 . S
H1390 C1394 0.949 . S
C1391 C1392 1.349 1_565 S
C1391 C1393 1.327 . S
C1391 H1414 0.950 . S
C1392 C1391 1.349 1_545 S
C1392 C1404 1.349 . S
C1393 C1391 1.327 . S
C1393 C1409 1.429 1_565 S
C1393 H1415 0.950 . S
C1394 H1390 0.949 . S
C1394 C1402 1.574 . S
C1394 C1410 1.368 . S
H1395 C1403 0.950 . S
H1396 C1401 0.950 . S
H1397 C1402 0.949 . S
H1398 C1404 0.950 . S
H1399 C1405 0.950 . S
H1400 C1406 0.949 . S
C1401 H1396 0.950 . S
C1401 C1403 1.327 . S
C1401 C1407 1.429 1_565 S
C1402 C1394 1.574 . S
C1402 H1397 0.949 . S
C1402 C1408 1.368 . S
C1403 C1387 1.349 1_565 S
C1403 H1395 0.950 . S
C1403 C1401 1.327 . S
C1404 C1392 1.349 . S
C1404 H1398 0.950 . S
C1404 C1405 1.327 . S
C1405 H1399 0.950 . S
C1405 C1404 1.327 . S
C1405 C1409 1.429 . S
C1406 C1389 1.574 . S
C1406 H1400 0.949 . S
C1406 C1410 1.368 1_565 S
C1407 C1388 1.429 . S
C1407 C1401 1.429 1_545 S
C1407 C1408 1.523 . S
C1408 C1389 1.368 1_545 S
C1408 C1402 1.368 . S
C1408 C1407 1.523 . S
C1409 C1393 1.429 1_545 S
C1409 C1405 1.429 . S
C1409 C1410 1.523 . S
C1410 C1394 1.368 . S
C1410 C1406 1.368 1_545 S
C1410 C1409 1.523 . S
H1411 C1386 0.950 . S
H1412 C1388 0.950 . S
H1413 C1389 0.949 . S
H1414 C1391 0.950 . S
H1415 C1393 0.950 . S
C1416 C1417 1.349 . S
C1416 C1418 1.327 . S
C1416 H1441 0.950 . S
C1417 C1416 1.349 . S
C1417 C1433 1.349 . S
C1418 C1416 1.327 . S
C1418 C1437 1.429 . S
C1418 H1442 0.950 . S
C1419 C1436 1.574 . S
C1419 C1438 1.368 . S
C1419 H1443 0.949 . S
H1420 C1424 0.949 . S
C1421 C1422 1.349 . S
C1421 C1423 1.327 . S
C1421 H1444 0.950 . S
C1422 C1421 1.349 . S
C1422 C1434 1.349 . S
C1423 C1421 1.327 . S
C1423 C1439 1.429 . S
C1423 H1445 0.950 . S
C1424 H1420 0.949 . S
C1424 C1432 1.574 . S
C1424 C1440 1.368 . S
H1425 C1433 0.950 . S
H1426 C1431 0.950 . S
H1427 C1432 0.949 . S
H1428 C1434 0.950 . S
H1429 C1435 0.950 . S
H1430 C1436 0.949 . S
C1431 H1426 0.950 . S
C1431 C1433 1.327 . S
C1431 C1437 1.429 . S
C1432 C1424 1.574 . S
C1432 H1427 0.949 . S
C1432 C1438 1.368 . S
C1433 C1417 1.349 . S
C1433 H1425 0.950 . S
C1433 C1431 1.327 . S
C1434 C1422 1.349 . S
C1434 H1428 0.950 . S
C1434 C1435 1.327 . S
C1435 H1429 0.950 . S
C1435 C1434 1.327 . S
C1435 C1439 1.429 . S
C1436 C1419 1.574 . S
C1436 H1430 0.949 . S
C1436 C1440 1.368 . S
C1437 C1418 1.429 . S
C1437 C1431 1.429 . S
C1437 C1438 1.523 . S
C1438 C1419 1.368 . S
C1438 C1432 1.368 . S
C1438 C1437 1.523 . S
C1439 C1423 1.429 . S
C1439 C1435 1.429 . S
C1439 C1440 1.523 . S
C1440 C1424 1.368 . S
C1440 C1436 1.368 . S
C1440 C1439 1.523 . S
H1441 C1416 0.950 . S
H1442 C1418 0.950 . S
H1443 C1419 0.949 . S
H1444 C1421 0.950 . S
H1445 C1423 0.950 . S
C1446 C1447 1.349 . S
C1446 C1448 1.327 . S
C1446 H1471 0.950 . S
C1447 C1446 1.349 . S
C1447 C1463 1.349 . S
C1448 C1446 1.327 . S
C1448 C1467 1.429 . S
C1448 H1472 0.950 . S
C1449 C1466 1.574 . S
C1449 C1468 1.368 . S
C1449 H1473 0.949 . S
H1450 C1454 0.949 . S
C1451 C1452 1.349 . S
C1451 C1453 1.327 . S
C1451 H1474 0.950 . S
C1452 C1451 1.349 . S
C1452 C1464 1.349 . S
C1453 C1451 1.327 . S
C1453 C1469 1.429 . S
C1453 H1475 0.950 . S
C1454 H1450 0.949 . S
C1454 C1462 1.574 . S
C1454 C1470 1.368 . S
H1455 C1463 0.950 . S
H1456 C1461 0.950 . S
H1457 C1462 0.949 . S
H1458 C1464 0.950 . S
H1459 C1465 0.950 . S
H1460 C1466 0.949 . S
C1461 H1456 0.950 . S
C1461 C1463 1.327 . S
C1461 C1467 1.429 . S
C1462 C1454 1.574 . S
C1462 H1457 0.949 . S
C1462 C1468 1.368 . S
C1463 C1447 1.349 . S
C1463 H1455 0.950 . S
C1463 C1461 1.327 . S
C1464 C1452 1.349 . S
C1464 H1458 0.950 . S
C1464 C1465 1.327 . S
C1465 H1459 0.950 . S
C1465 C1464 1.327 . S
C1465 C1469 1.429 . S
C1466 C1449 1.574 . S
C1466 H1460 0.949 . S
C1466 C1470 1.368 . S
C1467 C1448 1.429 . S
C1467 C1461 1.429 . S
C1467 C1468 1.523 . S
C1468 C1449 1.368 . S
C1468 C1462 1.368 . S
C1468 C1467 1.523 . S
C1469 C1453 1.429 . S
C1469 C1465 1.429 . S
C1469 C1470 1.523 . S
C1470 C1454 1.368 . S
C1470 C1466 1.368 . S
C1470 C1469 1.523 . S
H1471 C1446 0.950 . S
H1472 C1448 0.950 . S
H1473 C1449 0.949 . S
H1474 C1451 0.950 . S
H1475 C1453 0.950 . S
C1476 C1477 1.349 . S
C1476 C1478 1.327 . S
C1476 H1501 0.950 . S
C1477 C1476 1.349 . S
C1477 C1493 1.349 . S
C1478 C1476 1.327 . S
C1478 C1497 1.429 . S
C1478 H1502 0.950 . S
C1479 C1496 1.574 . S
C1479 C1498 1.368 . S
C1479 H1503 0.949 . S
H1480 C1484 0.949 . S
C1481 C1482 1.349 . S
C1481 C1483 1.327 . S
C1481 H1504 0.950 . S
C1482 C1481 1.349 . S
C1482 C1494 1.349 . S
C1483 C1481 1.327 . S
C1483 C1499 1.429 . S
C1483 H1505 0.950 . S
C1484 H1480 0.949 . S
C1484 C1492 1.574 . S
C1484 C1500 1.368 . S
H1485 C1493 0.950 . S
H1486 C1491 0.950 . S
H1487 C1492 0.949 . S
H1488 C1494 0.950 . S
H1489 C1495 0.950 . S
H1490 C1496 0.949 . S
C1491 H1486 0.950 . S
C1491 C1493 1.327 . S
C1491 C1497 1.429 . S
C1492 C1484 1.574 . S
C1492 H1487 0.949 . S
C1492 C1498 1.368 . S
C1493 C1477 1.349 . S
C1493 H1485 0.950 . S
C1493 C1491 1.327 . S
C1494 C1482 1.349 . S
C1494 H1488 0.950 . S
C1494 C1495 1.327 . S
C1495 H1489 0.950 . S
C1495 C1494 1.327 . S
C1495 C1499 1.429 . S
C1496 C1479 1.574 . S
C1496 H1490 0.949 . S
C1496 C1500 1.368 . S
C1497 C1478 1.429 . S
C1497 C1491 1.429 . S
C1497 C1498 1.523 . S
C1498 C1479 1.368 . S
C1498 C1492 1.368 . S
C1498 C1497 1.523 . S
C1499 C1483 1.429 . S
C1499 C1495 1.429 . S
C1499 C1500 1.523 . S
C1500 C1484 1.368 . S
C1500 C1496 1.368 . S
C1500 C1499 1.523 . S
H1501 C1476 0.950 . S
H1502 C1478 0.950 . S
H1503 C1479 0.949 . S
H1504 C1481 0.950 . S
H1505 C1483 0.950 . S
C1506 C1507 1.349 . S
C1506 C1508 1.327 . S
C1506 H1531 0.950 . S
C1507 C1506 1.349 . S
C1507 C1523 1.349 . S
C1508 C1506 1.327 . S
C1508 C1527 1.429 . S
C1508 H1532 0.950 . S
C1509 C1526 1.574 . S
C1509 C1528 1.368 . S
C1509 H1533 0.949 . S
H1510 C1514 0.949 . S
C1511 C1512 1.349 . S
C1511 C1513 1.327 . S
C1511 H1534 0.950 . S
C1512 C1511 1.349 . S
C1512 C1524 1.349 . S
C1513 C1511 1.327 . S
C1513 C1529 1.429 . S
C1513 H1535 0.950 . S
C1514 H1510 0.949 . S
C1514 C1522 1.574 . S
C1514 C1530 1.368 . S
H1515 C1523 0.950 . S
H1516 C1521 0.950 . S
H1517 C1522 0.949 . S
H1518 C1524 0.950 . S
H1519 C1525 0.950 . S
H1520 C1526 0.949 . S
C1521 H1516 0.950 . S
C1521 C1523 1.327 . S
C1521 C1527 1.429 . S
C1522 C1514 1.574 . S
C1522 H1517 0.949 . S
C1522 C1528 1.368 . S
C1523 C1507 1.349 . S
C1523 H1515 0.950 . S
C1523 C1521 1.327 . S
C1524 C1512 1.349 . S
C1524 H1518 0.950 . S
C1524 C1525 1.327 . S
C1525 H1519 0.950 . S
C1525 C1524 1.327 . S
C1525 C1529 1.429 . S
C1526 C1509 1.574 . S
C1526 H1520 0.949 . S
C1526 C1530 1.368 . S
C1527 C1508 1.429 . S
C1527 C1521 1.429 . S
C1527 C1528 1.523 . S
C1528 C1509 1.368 . S
C1528 C1522 1.368 . S
C1528 C1527 1.523 . S
C1529 C1513 1.429 . S
C1529 C1525 1.429 . S
C1529 C1530 1.523 . S
C1530 C1514 1.368 . S
C1530 C1526 1.368 . S
C1530 C1529 1.523 . S
H1531 C1506 0.950 . S
H1532 C1508 0.950 . S
H1533 C1509 0.949 . S
H1534 C1511 0.950 . S
H1535 C1513 0.950 . S
C1536 C1537 1.349 . S
C1536 C1538 1.327 . S
C1536 H1561 0.950 . S
C1537 C1536 1.349 . S
C1537 C1553 1.349 . S
C1538 C1536 1.327 . S
C1538 C1557 1.429 . S
C1538 H1562 0.950 . S
C1539 C1556 1.574 . S
C1539 C1558 1.368 . S
C1539 H1563 0.949 . S
H1540 C1544 0.949 . S
C1541 C1542 1.349 . S
C1541 C1543 1.327 . S
C1541 H1564 0.950 . S
C1542 C1541 1.349 . S
C1542 C1554 1.349 . S
C1543 C1541 1.327 . S
C1543 C1559 1.429 . S
C1543 H1565 0.950 . S
C1544 H1540 0.949 . S
C1544 C1552 1.574 . S
C1544 C1560 1.368 . S
H1545 C1553 0.950 . S
H1546 C1551 0.950 . S
H1547 C1552 0.949 . S
H1548 C1554 0.950 . S
H1549 C1555 0.950 . S
H1550 C1556 0.949 . S
C1551 H1546 0.950 . S
C1551 C1553 1.327 . S
C1551 C1557 1.429 . S
C1552 C1544 1.574 . S
C1552 H1547 0.949 . S
C1552 C1558 1.368 . S
C1553 C1537 1.349 . S
C1553 H1545 0.950 . S
C1553 C1551 1.327 . S
C1554 C1542 1.349 . S
C1554 H1548 0.950 . S
C1554 C1555 1.327 . S
C1555 H1549 0.950 . S
C1555 C1554 1.327 . S
C1555 C1559 1.429 . S
C1556 C1539 1.574 . S
C1556 H1550 0.949 . S
C1556 C1560 1.368 . S
C1557 C1538 1.429 . S
C1557 C1551 1.429 . S
C1557 C1558 1.523 . S
C1558 C1539 1.368 . S
C1558 C1552 1.368 . S
C1558 C1557 1.523 . S
C1559 C1543 1.429 . S
C1559 C1555 1.429 . S
C1559 C1560 1.523 . S
C1560 C1544 1.368 . S
C1560 C1556 1.368 . S
C1560 C1559 1.523 . S
H1561 C1536 0.950 . S
H1562 C1538 0.950 . S
H1563 C1539 0.949 . S
H1564 C1541 0.950 . S
H1565 C1543 0.950 . S
C1566 C1567 1.349 . S
C1566 C1568 1.327 . S
C1566 H1591 0.950 . S
C1567 C1566 1.349 . S
C1567 C1583 1.349 . S
C1568 C1566 1.327 . S
C1568 C1587 1.429 . S
C1568 H1592 0.950 . S
C1569 C1586 1.574 . S
C1569 C1588 1.368 . S
C1569 H1593 0.949 . S
H1570 C1574 0.949 . S
C1571 C1572 1.349 . S
C1571 C1573 1.327 . S
C1571 H1594 0.950 . S
C1572 C1571 1.349 . S
C1572 C1584 1.349 . S
C1573 C1571 1.327 . S
C1573 C1589 1.429 . S
C1573 H1595 0.950 . S
C1574 H1570 0.949 . S
C1574 C1582 1.574 . S
C1574 C1590 1.368 . S
H1575 C1583 0.950 . S
H1576 C1581 0.950 . S
H1577 C1582 0.949 . S
H1578 C1584 0.950 . S
H1579 C1585 0.950 . S
H1580 C1586 0.949 . S
C1581 H1576 0.950 . S
C1581 C1583 1.327 . S
C1581 C1587 1.429 . S
C1582 C1574 1.574 . S
C1582 H1577 0.949 . S
C1582 C1588 1.368 . S
C1583 C1567 1.349 . S
C1583 H1575 0.950 . S
C1583 C1581 1.327 . S
C1584 C1572 1.349 . S
C1584 H1578 0.950 . S
C1584 C1585 1.327 . S
C1585 H1579 0.950 . S
C1585 C1584 1.327 . S
C1585 C1589 1.429 . S
C1586 C1569 1.574 . S
C1586 H1580 0.949 . S
C1586 C1590 1.368 . S
C1587 C1568 1.429 . S
C1587 C1581 1.429 . S
C1587 C1588 1.523 . S
C1588 C1569 1.368 . S
C1588 C1582 1.368 . S
C1588 C1587 1.523 . S
C1589 C1573 1.429 . S
C1589 C1585 1.429 . S
C1589 C1590 1.523 . S
C1590 C1574 1.368 . S
C1590 C1586 1.368 . S
C1590 C1589 1.523 . S
H1591 C1566 0.950 . S
H1592 C1568 0.950 . S
H1593 C1569 0.949 . S
H1594 C1571 0.950 . S
H1595 C1573 0.950 . S
C1596 C1597 1.349 . S
C1596 C1598 1.327 . S
C1596 H1621 0.950 . S
C1597 C1596 1.349 . S
C1597 C1613 1.349 . S
C1598 C1596 1.327 . S
C1598 C1617 1.429 . S
C1598 H1622 0.950 . S
C1599 C1616 1.574 . S
C1599 C1618 1.368 . S
C1599 H1623 0.949 . S
H1600 C1604 0.949 . S
C1601 C1602 1.349 . S
C1601 C1603 1.327 . S
C1601 H1624 0.950 . S
C1602 C1601 1.349 . S
C1602 C1614 1.349 . S
C1603 C1601 1.327 . S
C1603 C1619 1.429 . S
C1603 H1625 0.950 . S
C1604 H1600 0.949 . S
C1604 C1612 1.574 . S
C1604 C1620 1.368 . S
H1605 C1613 0.950 . S
H1606 C1611 0.950 . S
H1607 C1612 0.949 . S
H1608 C1614 0.950 . S
H1609 C1615 0.950 . S
H1610 C1616 0.949 . S
C1611 H1606 0.950 . S
C1611 C1613 1.327 . S
C1611 C1617 1.429 . S
C1612 C1604 1.574 . S
C1612 H1607 0.949 . S
C1612 C1618 1.368 . S
C1613 C1597 1.349 . S
C1613 H1605 0.950 . S
C1613 C1611 1.327 . S
C1614 C1602 1.349 . S
C1614 H1608 0.950 . S
C1614 C1615 1.327 . S
C1615 H1609 0.950 . S
C1615 C1614 1.327 . S
C1615 C1619 1.429 . S
C1616 C1599 1.574 . S
C1616 H1610 0.949 . S
C1616 C1620 1.368 . S
C1617 C1598 1.429 . S
C1617 C1611 1.429 . S
C1617 C1618 1.523 . S
C1618 C1599 1.368 . S
C1618 C1612 1.368 . S
C1618 C1617 1.523 . S
C1619 C1603 1.429 . S
C1619 C1615 1.429 . S
C1619 C1620 1.523 . S
C1620 C1604 1.368 . S
C1620 C1616 1.368 . S
C1620 C1619 1.523 . S
H1621 C1596 0.950 . S
H1622 C1598 0.950 . S
H1623 C1599 0.949 . S
H1624 C1601 0.950 . S
H1625 C1603 0.950 . S
C1626 C1627 1.349 . S
C1626 C1628 1.327 . S
C1626 H1651 0.950 . S
C1627 C1626 1.349 . S
C1627 C1643 1.349 . S
C1628 C1626 1.327 . S
C1628 C1647 1.429 . S
C1628 H1652 0.950 . S
C1629 C1646 1.574 . S
C1629 C1648 1.368 . S
C1629 H1653 0.949 . S
H1630 C1634 0.949 . S
C1631 C1632 1.349 . S
C1631 C1633 1.327 . S
C1631 H1654 0.950 . S
C1632 C1631 1.349 . S
C1632 C1644 1.349 . S
C1633 C1631 1.327 . S
C1633 C1649 1.429 . S
C1633 H1655 0.950 . S
C1634 H1630 0.949 . S
C1634 C1642 1.574 . S
C1634 C1650 1.368 . S
H1635 C1643 0.950 . S
H1636 C1641 0.950 . S
H1637 C1642 0.949 . S
H1638 C1644 0.950 . S
H1639 C1645 0.950 . S
H1640 C1646 0.949 . S
C1641 H1636 0.950 . S
C1641 C1643 1.327 . S
C1641 C1647 1.429 . S
C1642 C1634 1.574 . S
C1642 H1637 0.949 . S
C1642 C1648 1.368 . S
C1643 C1627 1.349 . S
C1643 H1635 0.950 . S
C1643 C1641 1.327 . S
C1644 C1632 1.349 . S
C1644 H1638 0.950 . S
C1644 C1645 1.327 . S
C1645 H1639 0.950 . S
C1645 C1644 1.327 . S
C1645 C1649 1.429 . S
C1646 C1629 1.574 . S
C1646 H1640 0.949 . S
C1646 C1650 1.368 . S
C1647 C1628 1.429 . S
C1647 C1641 1.429 . S
C1647 C1648 1.523 . S
C1648 C1629 1.368 . S
C1648 C1642 1.368 . S
C1648 C1647 1.523 . S
C1649 C1633 1.429 . S
C1649 C1645 1.429 . S
C1649 C1650 1.523 . S
C1650 C1634 1.368 . S
C1650 C1646 1.368 . S
C1650 C1649 1.523 . S
H1651 C1626 0.950 . S
H1652 C1628 0.950 . S
H1653 C1629 0.949 . S
H1654 C1631 0.950 . S
H1655 C1633 0.950 . S
C1656 C1657 1.349 . S
C1656 C1658 1.327 . S
C1656 H1681 0.950 . S
C1657 C1656 1.349 . S
C1657 C1673 1.349 . S
C1658 C1656 1.327 . S
C1658 C1677 1.429 . S
C1658 H1682 0.950 . S
C1659 C1676 1.574 . S
C1659 C1678 1.368 . S
C1659 H1683 0.949 . S
H1660 C1664 0.949 . S
C1661 C1662 1.349 . S
C1661 C1663 1.327 . S
C1661 H1684 0.950 . S
C1662 C1661 1.349 . S
C1662 C1674 1.349 . S
C1663 C1661 1.327 . S
C1663 C1679 1.429 . S
C1663 H1685 0.950 . S
C1664 H1660 0.949 . S
C1664 C1672 1.574 . S
C1664 C1680 1.368 . S
H1665 C1673 0.950 . S
H1666 C1671 0.950 . S
H1667 C1672 0.949 . S
H1668 C1674 0.950 . S
H1669 C1675 0.950 . S
H1670 C1676 0.949 . S
C1671 H1666 0.950 . S
C1671 C1673 1.327 . S
C1671 C1677 1.429 . S
C1672 C1664 1.574 . S
C1672 H1667 0.949 . S
C1672 C1678 1.368 . S
C1673 C1657 1.349 . S
C1673 H1665 0.950 . S
C1673 C1671 1.327 . S
C1674 C1662 1.349 . S
C1674 H1668 0.950 . S
C1674 C1675 1.327 . S
C1675 H1669 0.950 . S
C1675 C1674 1.327 . S
C1675 C1679 1.429 . S
C1676 C1659 1.574 . S
C1676 H1670 0.949 . S
C1676 C1680 1.368 . S
C1677 C1658 1.429 . S
C1677 C1671 1.429 . S
C1677 C1678 1.523 . S
C1678 C1659 1.368 . S
C1678 C1672 1.368 . S
C1678 C1677 1.523 . S
C1679 C1663 1.429 . S
C1679 C1675 1.429 . S
C1679 C1680 1.523 . S
C1680 C1664 1.368 . S
C1680 C1676 1.368 . S
C1680 C1679 1.523 . S
H1681 C1656 0.950 . S
H1682 C1658 0.950 . S
H1683 C1659 0.949 . S
H1684 C1661 0.950 . S
H1685 C1663 0.950 . S
C1686 C1687 1.349 . S
C1686 C1688 1.327 . S
C1686 H1711 0.950 . S
C1687 C1686 1.349 . S
C1687 C1703 1.349 . S
C1688 C1686 1.327 . S
C1688 C1707 1.429 . S
C1688 H1712 0.950 . S
C1689 C1706 1.574 . S
C1689 C1708 1.368 . S
C1689 H1713 0.949 . S
H1690 C1694 0.949 . S
C1691 C1692 1.349 . S
C1691 C1693 1.327 . S
C1691 H1714 0.950 . S
C1692 C1691 1.349 . S
C1692 C1704 1.349 . S
C1693 C1691 1.327 . S
C1693 C1709 1.429 . S
C1693 H1715 0.950 . S
C1694 H1690 0.949 . S
C1694 C1702 1.574 . S
C1694 C1710 1.368 . S
H1695 C1703 0.950 . S
H1696 C1701 0.950 . S
H1697 C1702 0.949 . S
H1698 C1704 0.950 . S
H1699 C1705 0.950 . S
H1700 C1706 0.949 . S
C1701 H1696 0.950 . S
C1701 C1703 1.327 . S
C1701 C1707 1.429 . S
C1702 C1694 1.574 . S
C1702 H1697 0.949 . S
C1702 C1708 1.368 . S
C1703 C1687 1.349 . S
C1703 H1695 0.950 . S
C1703 C1701 1.327 . S
C1704 C1692 1.349 . S
C1704 H1698 0.950 . S
C1704 C1705 1.327 . S
C1705 H1699 0.950 . S
C1705 C1704 1.327 . S
C1705 C1709 1.429 . S
C1706 C1689 1.574 . S
C1706 H1700 0.949 . S
C1706 C1710 1.368 . S
C1707 C1688 1.429 . S
C1707 C1701 1.429 . S
C1707 C1708 1.523 . S
C1708 C1689 1.368 . S
C1708 C1702 1.368 . S
C1708 C1707 1.523 . S
C1709 C1693 1.429 . S
C1709 C1705 1.429 . S
C1709 C1710 1.523 . S
C1710 C1694 1.368 . S
C1710 C1706 1.368 . S
C1710 C1709 1.523 . S
H1711 C1686 0.950 . S
H1712 C1688 0.950 . S
H1713 C1689 0.949 . S
H1714 C1691 0.950 . S
H1715 C1693 0.950 . S
C1716 C1717 1.349 . S
C1716 C1718 1.327 . S
C1716 H1741 0.950 . S
C1717 C1716 1.349 . S
C1717 C1733 1.349 . S
C1718 C1716 1.327 . S
C1718 C1737 1.429 . S
C1718 H1742 0.950 . S
C1719 C1736 1.574 . S
C1719 C1738 1.368 . S
C1719 H1743 0.949 . S
H1720 C1724 0.949 . S
C1721 C1722 1.349 . S
C1721 C1723 1.327 . S
C1721 H1744 0.950 . S
C1722 C1721 1.349 . S
C1722 C1734 1.349 . S
C1723 C1721 1.327 . S
C1723 C1739 1.429 . S
C1723 H1745 0.950 . S
C1724 H1720 0.949 . S
C1724 C1732 1.574 . S
C1724 C1740 1.368 . S
H1725 C1733 0.950 . S
H1726 C1731 0.950 . S
H1727 C1732 0.949 . S
H1728 C1734 0.950 . S
H1729 C1735 0.950 . S
H1730 C1736 0.949 . S
C1731 H1726 0.950 . S
C1731 C1733 1.327 . S
C1731 C1737 1.429 . S
C1732 C1724 1.574 . S
C1732 H1727 0.949 . S
C1732 C1738 1.368 . S
C1733 C1717 1.349 . S
C1733 H1725 0.950 . S
C1733 C1731 1.327 . S
C1734 C1722 1.349 . S
C1734 H1728 0.950 . S
C1734 C1735 1.327 . S
C1735 H1729 0.950 . S
C1735 C1734 1.327 . S
C1735 C1739 1.429 . S
C1736 C1719 1.574 . S
C1736 H1730 0.949 . S
C1736 C1740 1.368 . S
C1737 C1718 1.429 . S
C1737 C1731 1.429 . S
C1737 C1738 1.523 . S
C1738 C1719 1.368 . S
C1738 C1732 1.368 . S
C1738 C1737 1.523 . S
C1739 C1723 1.429 . S
C1739 C1735 1.429 . S
C1739 C1740 1.523 . S
C1740 C1724 1.368 . S
C1740 C1736 1.368 . S
C1740 C1739 1.523 . S
H1741 C1716 0.950 . S
H1742 C1718 0.950 . S
H1743 C1719 0.949 . S
H1744 C1721 0.950 . S
H1745 C1723 0.950 . S
C1746 C1747 1.349 . S
C1746 C1748 1.327 . S
C1746 H1771 0.950 . S
C1747 C1746 1.349 . S
C1747 C1763 1.349 . S
C1748 C1746 1.327 . S
C1748 C1767 1.429 . S
C1748 H1772 0.950 . S
C1749 C1766 1.574 . S
C1749 C1768 1.368 . S
C1749 H1773 0.949 . S
H1750 C1754 0.949 . S
C1751 C1752 1.349 . S
C1751 C1753 1.327 . S
C1751 H1774 0.950 . S
C1752 C1751 1.349 . S
C1752 C1764 1.349 . S
C1753 C1751 1.327 . S
C1753 C1769 1.429 . S
C1753 H1775 0.950 . S
C1754 H1750 0.949 . S
C1754 C1762 1.574 . S
C1754 C1770 1.368 . S
H1755 C1763 0.950 . S
H1756 C1761 0.950 . S
H1757 C1762 0.949 . S
H1758 C1764 0.950 . S
H1759 C1765 0.950 . S
H1760 C1766 0.949 . S
C1761 H1756 0.950 . S
C1761 C1763 1.327 . S
C1761 C1767 1.429 . S
C1762 C1754 1.574 . S
C1762 H1757 0.949 . S
C1762 C1768 1.368 . S
C1763 C1747 1.349 . S
C1763 H1755 0.950 . S
C1763 C1761 1.327 . S
C1764 C1752 1.349 . S
C1764 H1758 0.950 . S
C1764 C1765 1.327 . S
C1765 H1759 0.950 . S
C1765 C1764 1.327 . S
C1765 C1769 1.429 . S
C1766 C1749 1.574 . S
C1766 H1760 0.949 . S
C1766 C1770 1.368 . S
C1767 C1748 1.429 . S
C1767 C1761 1.429 . S
C1767 C1768 1.523 . S
C1768 C1749 1.368 . S
C1768 C1762 1.368 . S
C1768 C1767 1.523 . S
C1769 C1753 1.429 . S
C1769 C1765 1.429 . S
C1769 C1770 1.523 . S
C1770 C1754 1.368 . S
C1770 C1766 1.368 . S
C1770 C1769 1.523 . S
H1771 C1746 0.950 . S
H1772 C1748 0.950 . S
H1773 C1749 0.949 . S
H1774 C1751 0.950 . S
H1775 C1753 0.950 . S
C1776 C1777 1.349 . S
C1776 C1778 1.327 . S
C1776 H1801 0.950 . S
C1777 C1776 1.349 . S
C1777 C1793 1.349 . S
C1778 C1776 1.327 . S
C1778 C1797 1.429 . S
C1778 H1802 0.950 . S
C1779 C1796 1.574 . S
C1779 C1798 1.368 . S
C1779 H1803 0.949 . S
H1780 C1784 0.949 . S
C1781 C1782 1.349 . S
C1781 C1783 1.327 . S
C1781 H1804 0.950 . S
C1782 C1781 1.349 . S
C1782 C1794 1.349 . S
C1783 C1781 1.327 . S
C1783 C1799 1.429 . S
C1783 H1805 0.950 . S
C1784 H1780 0.949 . S
C1784 C1792 1.574 . S
C1784 C1800 1.368 . S
H1785 C1793 0.950 . S
H1786 C1791 0.950 . S
H1787 C1792 0.949 . S
H1788 C1794 0.950 . S
H1789 C1795 0.950 . S
H1790 C1796 0.949 . S
C1791 H1786 0.950 . S
C1791 C1793 1.327 . S
C1791 C1797 1.429 . S
C1792 C1784 1.574 . S
C1792 H1787 0.949 . S
C1792 C1798 1.368 . S
C1793 C1777 1.349 . S
C1793 H1785 0.950 . S
C1793 C1791 1.327 . S
C1794 C1782 1.349 . S
C1794 H1788 0.950 . S
C1794 C1795 1.327 . S
C1795 H1789 0.950 . S
C1795 C1794 1.327 . S
C1795 C1799 1.429 . S
C1796 C1779 1.574 . S
C1796 H1790 0.949 . S
C1796 C1800 1.368 . S
C1797 C1778 1.429 . S
C1797 C1791 1.429 . S
C1797 C1798 1.523 . S
C1798 C1779 1.368 . S
C1798 C1792 1.368 . S
C1798 C1797 1.523 . S
C1799 C1783 1.429 . S
C1799 C1795 1.429 . S
C1799 C1800 1.523 . S
C1800 C1784 1.368 . S
C1800 C1796 1.368 . S
C1800 C1799 1.523 . S
H1801 C1776 0.950 . S
H1802 C1778 0.950 . S
H1803 C1779 0.949 . S
H1804 C1781 0.950 . S
H1805 C1783 0.950 . S
C1806 C1807 1.349 . S
C1806 C1808 1.327 . S
C1806 H1831 0.950 . S
C1807 C1806 1.349 . S
C1807 C1823 1.349 . S
C1808 C1806 1.327 . S
C1808 C1827 1.429 . S
C1808 H1832 0.950 . S
C1809 C1826 1.574 . S
C1809 C1828 1.368 . S
C1809 H1833 0.949 . S
H1810 C1814 0.949 . S
C1811 C1812 1.349 . S
C1811 C1813 1.327 . S
C1811 H1834 0.950 . S
C1812 C1811 1.349 . S
C1812 C1824 1.349 . S
C1813 C1811 1.327 . S
C1813 C1829 1.429 . S
C1813 H1835 0.950 . S
C1814 H1810 0.949 . S
C1814 C1822 1.574 . S
C1814 C1830 1.368 . S
H1815 C1823 0.950 . S
H1816 C1821 0.950 . S
H1817 C1822 0.949 . S
H1818 C1824 0.950 . S
H1819 C1825 0.950 . S
H1820 C1826 0.949 . S
C1821 H1816 0.950 . S
C1821 C1823 1.327 . S
C1821 C1827 1.429 . S
C1822 C1814 1.574 . S
C1822 H1817 0.949 . S
C1822 C1828 1.368 . S
C1823 C1807 1.349 . S
C1823 H1815 0.950 . S
C1823 C1821 1.327 . S
C1824 C1812 1.349 . S
C1824 H1818 0.950 . S
C1824 C1825 1.327 . S
C1825 H1819 0.950 . S
C1825 C1824 1.327 . S
C1825 C1829 1.429 . S
C1826 C1809 1.574 . S
C1826 H1820 0.949 . S
C1826 C1830 1.368 . S
C1827 C1808 1.429 . S
C1827 C1821 1.429 . S
C1827 C1828 1.523 . S
C1828 C1809 1.368 . S
C1828 C1822 1.368 . S
C1828 C1827 1.523 . S
C1829 C1813 1.429 . S
C1829 C1825 1.429 . S
C1829 C1830 1.523 . S
C1830 C1814 1.368 . S
C1830 C1826 1.368 . S
C1830 C1829 1.523 . S
H1831 C1806 0.950 . S
H1832 C1808 0.950 . S
H1833 C1809 0.949 . S
H1834 C1811 0.950 . S
H1835 C1813 0.950 . S
C1836 C1837 1.349 . S
C1836 C1838 1.327 . S
C1836 H1861 0.950 . S
C1837 C1836 1.349 . S
C1837 C1853 1.349 . S
C1838 C1836 1.327 . S
C1838 C1857 1.429 . S
C1838 H1862 0.950 . S
C1839 C1856 1.574 . S
C1839 C1858 1.368 . S
C1839 H1863 0.949 . S
H1840 C1844 0.949 . S
C1841 C1842 1.349 . S
C1841 C1843 1.327 . S
C1841 H1864 0.950 . S
C1842 C1841 1.349 . S
C1842 C1854 1.349 . S
C1843 C1841 1.327 . S
C1843 C1859 1.429 . S
C1843 H1865 0.950 . S
C1844 H1840 0.949 . S
C1844 C1852 1.574 . S
C1844 C1860 1.368 . S
H1845 C1853 0.950 . S
H1846 C1851 0.950 . S
H1847 C1852 0.949 . S
H1848 C1854 0.950 . S
H1849 C1855 0.950 . S
H1850 C1856 0.949 . S
C1851 H1846 0.950 . S
C1851 C1853 1.327 . S
C1851 C1857 1.429 . S
C1852 C1844 1.574 . S
C1852 H1847 0.949 . S
C1852 C1858 1.368 . S
C1853 C1837 1.349 . S
C1853 H1845 0.950 . S
C1853 C1851 1.327 . S
C1854 C1842 1.349 . S
C1854 H1848 0.950 . S
C1854 C1855 1.327 . S
C1855 H1849 0.950 . S
C1855 C1854 1.327 . S
C1855 C1859 1.429 . S
C1856 C1839 1.574 . S
C1856 H1850 0.949 . S
C1856 C1860 1.368 . S
C1857 C1838 1.429 . S
C1857 C1851 1.429 . S
C1857 C1858 1.523 . S
C1858 C1839 1.368 . S
C1858 C1852 1.368 . S
C1858 C1857 1.523 . S
C1859 C1843 1.429 . S
C1859 C1855 1.429 . S
C1859 C1860 1.523 . S
C1860 C1844 1.368 . S
C1860 C1856 1.368 . S
C1860 C1859 1.523 . S
H1861 C1836 0.950 . S
H1862 C1838 0.950 . S
H1863 C1839 0.949 . S
H1864 C1841 0.950 . S
H1865 C1843 0.950 . S
C1866 C1867 1.349 . S
C1866 C1868 1.327 . S
C1866 H1891 0.950 . S
C1867 C1866 1.349 . S
C1867 C1883 1.349 . S
C1868 C1866 1.327 . S
C1868 C1887 1.429 . S
C1868 H1892 0.950 . S
C1869 C1886 1.574 . S
C1869 C1888 1.368 . S
C1869 H1893 0.949 . S
H1870 C1874 0.949 . S
C1871 C1872 1.349 . S
C1871 C1873 1.327 . S
C1871 H1894 0.950 . S
C1872 C1871 1.349 . S
C1872 C1884 1.349 . S
C1873 C1871 1.327 . S
C1873 C1889 1.429 . S
C1873 H1895 0.950 . S
C1874 H1870 0.949 . S
C1874 C1882 1.574 . S
C1874 C1890 1.368 . S
H1875 C1883 0.950 . S
H1876 C1881 0.950 . S
H1877 C1882 0.949 . S
H1878 C1884 0.950 . S
H1879 C1885 0.950 . S
H1880 C1886 0.949 . S
C1881 H1876 0.950 . S
C1881 C1883 1.327 . S
C1881 C1887 1.429 . S
C1882 C1874 1.574 . S
C1882 H1877 0.949 . S
C1882 C1888 1.368 . S
C1883 C1867 1.349 . S
C1883 H1875 0.950 . S
C1883 C1881 1.327 . S
C1884 C1872 1.349 . S
C1884 H1878 0.950 . S
C1884 C1885 1.327 . S
C1885 H1879 0.950 . S
C1885 C1884 1.327 . S
C1885 C1889 1.429 . S
C1886 C1869 1.574 . S
C1886 H1880 0.949 . S
C1886 C1890 1.368 . S
C1887 C1868 1.429 . S
C1887 C1881 1.429 . S
C1887 C1888 1.523 . S
C1888 C1869 1.368 . S
C1888 C1882 1.368 . S
C1888 C1887 1.523 . S
C1889 C1873 1.429 . S
C1889 C1885 1.429 . S
C1889 C1890 1.523 . S
C1890 C1874 1.368 . S
C1890 C1886 1.368 . S
C1890 C1889 1.523 . S
H1891 C1866 0.950 . S
H1892 C1868 0.950 . S
H1893 C1869 0.949 . S
H1894 C1871 0.950 . S
H1895 C1873 0.950 . S
C1896 C1897 1.349 . S
C1896 C1898 1.327 . S
C1896 H1921 0.950 . S
C1897 C1896 1.349 . S
C1897 C1913 1.349 . S
C1898 C1896 1.327 . S
C1898 C1917 1.429 . S
C1898 H1922 0.950 . S
C1899 C1916 1.574 . S
C1899 C1918 1.368 . S
C1899 H1923 0.949 . S
H1900 C1904 0.949 . S
C1901 C1902 1.349 . S
C1901 C1903 1.327 . S
C1901 H1924 0.950 . S
C1902 C1901 1.349 . S
C1902 C1914 1.349 . S
C1903 C1901 1.327 . S
C1903 C1919 1.429 . S
C1903 H1925 0.950 . S
C1904 H1900 0.949 . S
C1904 C1912 1.574 . S
C1904 C1920 1.368 . S
H1905 C1913 0.950 . S
H1906 C1911 0.950 . S
H1907 C1912 0.949 . S
H1908 C1914 0.950 . S
H1909 C1915 0.950 . S
H1910 C1916 0.949 . S
C1911 H1906 0.950 . S
C1911 C1913 1.327 . S
C1911 C1917 1.429 . S
C1912 C1904 1.574 . S
C1912 H1907 0.949 . S
C1912 C1918 1.368 . S
C1913 C1897 1.349 . S
C1913 H1905 0.950 . S
C1913 C1911 1.327 . S
C1914 C1902 1.349 . S
C1914 H1908 0.950 . S
C1914 C1915 1.327 . S
C1915 H1909 0.950 . S
C1915 C1914 1.327 . S
C1915 C1919 1.429 . S
C1916 C1899 1.574 . S
C1916 H1910 0.949 . S
C1916 C1920 1.368 . S
C1917 C1898 1.429 . S
C1917 C1911 1.429 . S
C1917 C1918 1.523 . S
C1918 C1899 1.368 . S
C1918 C1912 1.368 . S
C1918 C1917 1.523 . S
C1919 C1903 1.429 . S
C1919 C1915 1.429 . S
C1919 C1920 1.523 . S
C1920 C1904 1.368 . S
C1920 C1916 1.368 . S
C1920 C1919 1.523 . S
H1921 C1896 0.950 . S
H1922 C1898 0.950 . S
H1923 C1899 0.949 . S
H1924 C1901 0.950 . S
H1925 C1903 0.950 . S
C1926 C1927 1.349 . S
C1926 C1928 1.327 . S
C1926 H1951 0.950 . S
C1927 C1926 1.349 . S
C1927 C1943 1.349 . S
C1928 C1926 1.327 . S
C1928 C1947 1.429 . S
C1928 H1952 0.950 . S
C1929 C1946 1.574 . S
C1929 C1948 1.368 . S
C1929 H1953 0.949 . S
H1930 C1934 0.949 . S
C1931 C1932 1.349 . S
C1931 C1933 1.327 . S
C1931 H1954 0.950 . S
C1932 C1931 1.349 . S
C1932 C1944 1.349 . S
C1933 C1931 1.327 . S
C1933 C1949 1.429 . S
C1933 H1955 0.950 . S
C1934 H1930 0.949 . S
C1934 C1942 1.574 . S
C1934 C1950 1.368 . S
H1935 C1943 0.950 . S
H1936 C1941 0.950 . S
H1937 C1942 0.949 . S
H1938 C1944 0.950 . S
H1939 C1945 0.950 . S
H1940 C1946 0.949 . S
C1941 H1936 0.950 . S
C1941 C1943 1.327 . S
C1941 C1947 1.429 . S
C1942 C1934 1.574 . S
C1942 H1937 0.949 . S
C1942 C1948 1.368 . S
C1943 C1927 1.349 . S
C1943 H1935 0.950 . S
C1943 C1941 1.327 . S
C1944 C1932 1.349 . S
C1944 H1938 0.950 . S
C1944 C1945 1.327 . S
C1945 H1939 0.950 . S
C1945 C1944 1.327 . S
C1945 C1949 1.429 . S
C1946 C1929 1.574 . S
C1946 H1940 0.949 . S
C1946 C1950 1.368 . S
C1947 C1928 1.429 . S
C1947 C1941 1.429 . S
C1947 C1948 1.523 . S
C1948 C1929 1.368 . S
C1948 C1942 1.368 . S
C1948 C1947 1.523 . S
C1949 C1933 1.429 . S
C1949 C1945 1.429 . S
C1949 C1950 1.523 . S
C1950 C1934 1.368 . S
C1950 C1946 1.368 . S
C1950 C1949 1.523 . S
H1951 C1926 0.950 . S
H1952 C1928 0.950 . S
H1953 C1929 0.949 . S
H1954 C1931 0.950 . S
H1955 C1933 0.950 . S
C1956 C1957 1.349 . S
C1956 C1958 1.327 . S
C1956 H1981 0.950 . S
C1957 C1956 1.349 . S
C1957 C1973 1.349 . S
C1958 C1956 1.327 . S
C1958 C1977 1.429 . S
C1958 H1982 0.950 . S
C1959 C1976 1.574 . S
C1959 C1978 1.368 . S
C1959 H1983 0.949 . S
H1960 C1964 0.949 . S
C1961 C1962 1.349 . S
C1961 C1963 1.327 . S
C1961 H1984 0.950 . S
C1962 C1961 1.349 . S
C1962 C1974 1.349 . S
C1963 C1961 1.327 . S
C1963 C1979 1.429 . S
C1963 H1985 0.950 . S
C1964 H1960 0.949 . S
C1964 C1972 1.574 . S
C1964 C1980 1.368 . S
H1965 C1973 0.950 . S
H1966 C1971 0.950 . S
H1967 C1972 0.949 . S
H1968 C1974 0.950 . S
H1969 C1975 0.950 . S
H1970 C1976 0.949 . S
C1971 H1966 0.950 . S
C1971 C1973 1.327 . S
C1971 C1977 1.429 . S
C1972 C1964 1.574 . S
C1972 H1967 0.949 . S
C1972 C1978 1.368 . S
C1973 C1957 1.349 . S
C1973 H1965 0.950 . S
C1973 C1971 1.327 . S
C1974 C1962 1.349 . S
C1974 H1968 0.950 . S
C1974 C1975 1.327 . S
C1975 H1969 0.950 . S
C1975 C1974 1.327 . S
C1975 C1979 1.429 . S
C1976 C1959 1.574 . S
C1976 H1970 0.949 . S
C1976 C1980 1.368 . S
C1977 C1958 1.429 . S
C1977 C1971 1.429 . S
C1977 C1978 1.523 . S
C1978 C1959 1.368 . S
C1978 C1972 1.368 . S
C1978 C1977 1.523 . S
C1979 C1963 1.429 . S
C1979 C1975 1.429 . S
C1979 C1980 1.523 . S
C1980 C1964 1.368 . S
C1980 C1976 1.368 . S
C1980 C1979 1.523 . S
H1981 C1956 0.950 . S
H1982 C1958 0.950 . S
H1983 C1959 0.949 . S
H1984 C1961 0.950 . S
H1985 C1963 0.950 . S
C1986 C1987 1.349 . S
C1986 C1988 1.327 . S
C1986 H2011 0.950 . S
C1987 C1986 1.349 . S
C1987 C2003 1.349 . S
C1988 C1986 1.327 . S
C1988 C2007 1.429 . S
C1988 H2012 0.950 . S
C1989 C2006 1.574 . S
C1989 C2008 1.368 . S
C1989 H2013 0.949 . S
H1990 C1994 0.949 . S
C1991 C1992 1.349 . S
C1991 C1993 1.327 . S
C1991 H2014 0.950 . S
C1992 C1991 1.349 . S
C1992 C2004 1.349 . S
C1993 C1991 1.327 . S
C1993 C2009 1.429 . S
C1993 H2015 0.950 . S
C1994 H1990 0.949 . S
C1994 C2002 1.574 . S
C1994 C2010 1.368 . S
H1995 C2003 0.950 . S
H1996 C2001 0.950 . S
H1997 C2002 0.949 . S
H1998 C2004 0.950 . S
H1999 C2005 0.950 . S
H2000 C2006 0.949 . S
C2001 H1996 0.950 . S
C2001 C2003 1.327 . S
C2001 C2007 1.429 . S
C2002 C1994 1.574 . S
C2002 H1997 0.949 . S
C2002 C2008 1.368 . S
C2003 C1987 1.349 . S
C2003 H1995 0.950 . S
C2003 C2001 1.327 . S
C2004 C1992 1.349 . S
C2004 H1998 0.950 . S
C2004 C2005 1.327 . S
C2005 H1999 0.950 . S
C2005 C2004 1.327 . S
C2005 C2009 1.429 . S
C2006 C1989 1.574 . S
C2006 H2000 0.949 . S
C2006 C2010 1.368 . S
C2007 C1988 1.429 . S
C2007 C2001 1.429 . S
C2007 C2008 1.523 . S
C2008 C1989 1.368 . S
C2008 C2002 1.368 . S
C2008 C2007 1.523 . S
C2009 C1993 1.429 . S
C2009 C2005 1.429 . S
C2009 C2010 1.523 . S
C2010 C1994 1.368 . S
C2010 C2006 1.368 . S
C2010 C2009 1.523 . S
H2011 C1986 0.950 . S
H2012 C1988 0.950 . S
H2013 C1989 0.949 . S
H2014 C1991 0.950 . S
H2015 C1993 0.950 . S
C2016 C2017 1.349 . S
C2016 C2018 1.327 . S
C2016 H2041 0.950 . S
C2017 C2016 1.349 . S
C2017 C2033 1.349 . S
C2018 C2016 1.327 . S
C2018 C2037 1.429 . S
C2018 H2042 0.950 . S
C2019 C2036 1.574 . S
C2019 C2038 1.368 . S
C2019 H2043 0.949 . S
H2020 C2024 0.949 . S
C2021 C2022 1.349 . S
C2021 C2023 1.327 . S
C2021 H2044 0.950 . S
C2022 C2021 1.349 . S
C2022 C2034 1.349 . S
C2023 C2021 1.327 . S
C2023 C2039 1.429 . S
C2023 H2045 0.950 . S
C2024 H2020 0.949 . S
C2024 C2032 1.574 . S
C2024 C2040 1.368 . S
H2025 C2033 0.950 . S
H2026 C2031 0.950 . S
H2027 C2032 0.949 . S
H2028 C2034 0.950 . S
H2029 C2035 0.950 . S
H2030 C2036 0.949 . S
C2031 H2026 0.950 . S
C2031 C2033 1.327 . S
C2031 C2037 1.429 . S
C2032 C2024 1.574 . S
C2032 H2027 0.949 . S
C2032 C2038 1.368 . S
C2033 C2017 1.349 . S
C2033 H2025 0.950 . S
C2033 C2031 1.327 . S
C2034 C2022 1.349 . S
C2034 H2028 0.950 . S
C2034 C2035 1.327 . S
C2035 H2029 0.950 . S
C2035 C2034 1.327 . S
C2035 C2039 1.429 . S
C2036 C2019 1.574 . S
C2036 H2030 0.949 . S
C2036 C2040 1.368 . S
C2037 C2018 1.429 . S
C2037 C2031 1.429 . S
C2037 C2038 1.523 . S
C2038 C2019 1.368 . S
C2038 C2032 1.368 . S
C2038 C2037 1.523 . S
C2039 C2023 1.429 . S
C2039 C2035 1.429 . S
C2039 C2040 1.523 . S
C2040 C2024 1.368 . S
C2040 C2036 1.368 . S
C2040 C2039 1.523 . S
H2041 C2016 0.950 . S
H2042 C2018 0.950 . S
H2043 C2019 0.949 . S
H2044 C2021 0.950 . S
H2045 C2023 0.950 . S
C2046 C2047 1.349 . S
C2046 C2048 1.327 . S
C2046 H2071 0.950 . S
C2047 C2046 1.349 . S
C2047 C2063 1.349 . S
C2048 C2046 1.327 . S
C2048 C2067 1.429 . S
C2048 H2072 0.950 . S
C2049 C2066 1.574 . S
C2049 C2068 1.368 . S
C2049 H2073 0.949 . S
H2050 C2054 0.949 . S
C2051 C2052 1.349 . S
C2051 C2053 1.327 . S
C2051 H2074 0.950 . S
C2052 C2051 1.349 . S
C2052 C2064 1.349 . S
C2053 C2051 1.327 . S
C2053 C2069 1.429 . S
C2053 H2075 0.950 . S
C2054 H2050 0.949 . S
C2054 C2062 1.574 . S
C2054 C2070 1.368 . S
H2055 C2063 0.950 . S
H2056 C2061 0.950 . S
H2057 C2062 0.949 . S
H2058 C2064 0.950 . S
H2059 C2065 0.950 . S
H2060 C2066 0.949 . S
C2061 H2056 0.950 . S
C2061 C2063 1.327 . S
C2061 C2067 1.429 . S
C2062 C2054 1.574 . S
C2062 H2057 0.949 . S
C2062 C2068 1.368 . S
C2063 C2047 1.349 . S
C2063 H2055 0.950 . S
C2063 C2061 1.327 . S
C2064 C2052 1.349 . S
C2064 H2058 0.950 . S
C2064 C2065 1.327 . S
C2065 H2059 0.950 . S
C2065 C2064 1.327 . S
C2065 C2069 1.429 . S
C2066 C2049 1.574 . S
C2066 H2060 0.949 . S
C2066 C2070 1.368 . S
C2067 C2048 1.429 . S
C2067 C2061 1.429 . S
C2067 C2068 1.523 . S
C2068 C2049 1.368 . S
C2068 C2062 1.368 . S
C2068 C2067 1.523 . S
C2069 C2053 1.429 . S
C2069 C2065 1.429 . S
C2069 C2070 1.523 . S
C2070 C2054 1.368 . S
C2070 C2066 1.368 . S
C2070 C2069 1.523 . S
H2071 C2046 0.950 . S
H2072 C2048 0.950 . S
H2073 C2049 0.949 . S
H2074 C2051 0.950 . S
H2075 C2053 0.950 . S
C2076 C2077 1.349 . S
C2076 C2078 1.327 . S
C2076 H2101 0.950 . S
C2077 C2076 1.349 . S
C2077 C2093 1.349 . S
C2078 C2076 1.327 . S
C2078 C2097 1.429 . S
C2078 H2102 0.950 . S
C2079 C2096 1.574 . S
C2079 C2098 1.368 . S
C2079 H2103 0.949 . S
H2080 C2084 0.949 . S
C2081 C2082 1.349 . S
C2081 C2083 1.327 . S
C2081 H2104 0.950 . S
C2082 C2081 1.349 . S
C2082 C2094 1.349 . S
C2083 C2081 1.327 . S
C2083 C2099 1.429 . S
C2083 H2105 0.950 . S
C2084 H2080 0.949 . S
C2084 C2092 1.574 . S
C2084 C2100 1.368 . S
H2085 C2093 0.950 . S
H2086 C2091 0.950 . S
H2087 C2092 0.949 . S
H2088 C2094 0.950 . S
H2089 C2095 0.950 . S
H2090 C2096 0.949 . S
C2091 H2086 0.950 . S
C2091 C2093 1.327 . S
C2091 C2097 1.429 . S
C2092 C2084 1.574 . S
C2092 H2087 0.949 . S
C2092 C2098 1.368 . S
C2093 C2077 1.349 . S
C2093 H2085 0.950 . S
C2093 C2091 1.327 . S
C2094 C2082 1.349 . S
C2094 H2088 0.950 . S
C2094 C2095 1.327 . S
C2095 H2089 0.950 . S
C2095 C2094 1.327 . S
C2095 C2099 1.429 . S
C2096 C2079 1.574 . S
C2096 H2090 0.949 . S
C2096 C2100 1.368 . S
C2097 C2078 1.429 . S
C2097 C2091 1.429 . S
C2097 C2098 1.523 . S
C2098 C2079 1.368 . S
C2098 C2092 1.368 . S
C2098 C2097 1.523 . S
C2099 C2083 1.429 . S
C2099 C2095 1.429 . S
C2099 C2100 1.523 . S
C2100 C2084 1.368 . S
C2100 C2096 1.368 . S
C2100 C2099 1.523 . S
H2101 C2076 0.950 . S
H2102 C2078 0.950 . S
H2103 C2079 0.949 . S
H2104 C2081 0.950 . S
H2105 C2083 0.950 . S
C2106 C2107 1.349 . S
C2106 C2108 1.327 . S
C2106 H2131 0.950 . S
C2107 C2106 1.349 . S
C2107 C2123 1.349 . S
C2108 C2106 1.327 . S
C2108 C2127 1.429 . S
C2108 H2132 0.950 . S
C2109 C2126 1.574 . S
C2109 C2128 1.368 . S
C2109 H2133 0.949 . S
H2110 C2114 0.949 . S
C2111 C2112 1.349 . S
C2111 C2113 1.327 . S
C2111 H2134 0.950 . S
C2112 C2111 1.349 . S
C2112 C2124 1.349 . S
C2113 C2111 1.327 . S
C2113 C2129 1.429 . S
C2113 H2135 0.950 . S
C2114 H2110 0.949 . S
C2114 C2122 1.574 . S
C2114 C2130 1.368 . S
H2115 C2123 0.950 . S
H2116 C2121 0.950 . S
H2117 C2122 0.949 . S
H2118 C2124 0.950 . S
H2119 C2125 0.950 . S
H2120 C2126 0.949 . S
C2121 H2116 0.950 . S
C2121 C2123 1.327 . S
C2121 C2127 1.429 . S
C2122 C2114 1.574 . S
C2122 H2117 0.949 . S
C2122 C2128 1.368 . S
C2123 C2107 1.349 . S
C2123 H2115 0.950 . S
C2123 C2121 1.327 . S
C2124 C2112 1.349 . S
C2124 H2118 0.950 . S
C2124 C2125 1.327 . S
C2125 H2119 0.950 . S
C2125 C2124 1.327 . S
C2125 C2129 1.429 . S
C2126 C2109 1.574 . S
C2126 H2120 0.949 . S
C2126 C2130 1.368 . S
C2127 C2108 1.429 . S
C2127 C2121 1.429 . S
C2127 C2128 1.523 . S
C2128 C2109 1.368 . S
C2128 C2122 1.368 . S
C2128 C2127 1.523 . S
C2129 C2113 1.429 . S
C2129 C2125 1.429 . S
C2129 C2130 1.523 . S
C2130 C2114 1.368 . S
C2130 C2126 1.368 . S
C2130 C2129 1.523 . S
H2131 C2106 0.950 . S
H2132 C2108 0.950 . S
H2133 C2109 0.949 . S
H2134 C2111 0.950 . S
H2135 C2113 0.950 . S
C2136 C2137 1.349 . S
C2136 C2138 1.327 . S
C2136 H2161 0.950 . S
C2137 C2136 1.349 . S
C2137 C2153 1.349 . S
C2138 C2136 1.327 . S
C2138 C2157 1.429 . S
C2138 H2162 0.950 . S
C2139 C2156 1.574 . S
C2139 C2158 1.368 . S
C2139 H2163 0.949 . S
H2140 C2144 0.949 . S
C2141 C2142 1.349 . S
C2141 C2143 1.327 . S
C2141 H2164 0.950 . S
C2142 C2141 1.349 . S
C2142 C2154 1.349 . S
C2143 C2141 1.327 . S
C2143 C2159 1.429 . S
C2143 H2165 0.950 . S
C2144 H2140 0.949 . S
C2144 C2152 1.574 . S
C2144 C2160 1.368 . S
H2145 C2153 0.950 . S
H2146 C2151 0.950 . S
H2147 C2152 0.949 . S
H2148 C2154 0.950 . S
H2149 C2155 0.950 . S
H2150 C2156 0.949 . S
C2151 H2146 0.950 . S
C2151 C2153 1.327 . S
C2151 C2157 1.429 . S
C2152 C2144 1.574 . S
C2152 H2147 0.949 . S
C2152 C2158 1.368 . S
C2153 C2137 1.349 . S
C2153 H2145 0.950 . S
C2153 C2151 1.327 . S
C2154 C2142 1.349 . S
C2154 H2148 0.950 . S
C2154 C2155 1.327 . S
C2155 H2149 0.950 . S
C2155 C2154 1.327 . S
C2155 C2159 1.429 . S
C2156 C2139 1.574 . S
C2156 H2150 0.949 . S
C2156 C2160 1.368 . S
C2157 C2138 1.429 . S
C2157 C2151 1.429 . S
C2157 C2158 1.523 . S
C2158 C2139 1.368 . S
C2158 C2152 1.368 . S
C2158 C2157 1.523 . S
C2159 C2143 1.429 . S
C2159 C2155 1.429 . S
C2159 C2160 1.523 . S
C2160 C2144 1.368 . S
C2160 C2156 1.368 . S
C2160 C2159 1.523 . S
H2161 C2136 0.950 . S
H2162 C2138 0.950 . S
H2163 C2139 0.949 . S
H2164 C2141 0.950 . S
H2165 C2143 0.950 . S
C2166 C2167 1.349 . S
C2166 C2168 1.327 . S
C2166 H2191 0.950 . S
C2167 C2166 1.349 . S
C2167 C2183 1.349 . S
C2168 C2166 1.327 . S
C2168 C2187 1.429 . S
C2168 H2192 0.950 . S
C2169 C2186 1.574 . S
C2169 C2188 1.368 . S
C2169 H2193 0.949 . S
H2170 C2174 0.949 . S
C2171 C2172 1.349 . S
C2171 C2173 1.327 . S
C2171 H2194 0.950 . S
C2172 C2171 1.349 . S
C2172 C2184 1.349 . S
C2173 C2171 1.327 . S
C2173 C2189 1.429 . S
C2173 H2195 0.950 . S
C2174 H2170 0.949 . S
C2174 C2182 1.574 . S
C2174 C2190 1.368 . S
H2175 C2183 0.950 . S
H2176 C2181 0.950 . S
H2177 C2182 0.949 . S
H2178 C2184 0.950 . S
H2179 C2185 0.950 . S
H2180 C2186 0.949 . S
C2181 H2176 0.950 . S
C2181 C2183 1.327 . S
C2181 C2187 1.429 . S
C2182 C2174 1.574 . S
C2182 H2177 0.949 . S
C2182 C2188 1.368 . S
C2183 C2167 1.349 . S
C2183 H2175 0.950 . S
C2183 C2181 1.327 . S
C2184 C2172 1.349 . S
C2184 H2178 0.950 . S
C2184 C2185 1.327 . S
C2185 H2179 0.950 . S
C2185 C2184 1.327 . S
C2185 C2189 1.429 . S
C2186 C2169 1.574 . S
C2186 H2180 0.949 . S
C2186 C2190 1.368 . S
C2187 C2168 1.429 . S
C2187 C2181 1.429 . S
C2187 C2188 1.523 . S
C2188 C2169 1.368 . S
C2188 C2182 1.368 . S
C2188 C2187 1.523 . S
C2189 C2173 1.429 . S
C2189 C2185 1.429 . S
C2189 C2190 1.523 . S
C2190 C2174 1.368 . S
C2190 C2186 1.368 . S
C2190 C2189 1.523 . S
H2191 C2166 0.950 . S
H2192 C2168 0.950 . S
H2193 C2169 0.949 . S
H2194 C2171 0.950 . S
H2195 C2173 0.950 . S
C2196 C2197 1.349 . S
C2196 C2198 1.327 . S
C2196 H2221 0.950 . S
C2197 C2196 1.349 . S
C2197 C2213 1.349 . S
C2198 C2196 1.327 . S
C2198 C2217 1.429 . S
C2198 H2222 0.950 . S
C2199 C2216 1.574 . S
C2199 C2218 1.368 . S
C2199 H2223 0.949 . S
H2200 C2204 0.949 . S
C2201 C2202 1.349 . S
C2201 C2203 1.327 . S
C2201 H2224 0.950 . S
C2202 C2201 1.349 . S
C2202 C2214 1.349 . S
C2203 C2201 1.327 . S
C2203 C2219 1.429 . S
C2203 H2225 0.950 . S
C2204 H2200 0.949 . S
C2204 C2212 1.574 . S
C2204 C2220 1.368 . S
H2205 C2213 0.950 . S
H2206 C2211 0.950 . S
H2207 C2212 0.949 . S
H2208 C2214 0.950 . S
H2209 C2215 0.950 . S
H2210 C2216 0.949 . S
C2211 H2206 0.950 . S
C2211 C2213 1.327 . S
C2211 C2217 1.429 . S
C2212 C2204 1.574 . S
C2212 H2207 0.949 . S
C2212 C2218 1.368 . S
C2213 C2197 1.349 . S
C2213 H2205 0.950 . S
C2213 C2211 1.327 . S
C2214 C2202 1.349 . S
C2214 H2208 0.950 . S
C2214 C2215 1.327 . S
C2215 H2209 0.950 . S
C2215 C2214 1.327 . S
C2215 C2219 1.429 . S
C2216 C2199 1.574 . S
C2216 H2210 0.949 . S
C2216 C2220 1.368 . S
C2217 C2198 1.429 . S
C2217 C2211 1.429 . S
C2217 C2218 1.523 . S
C2218 C2199 1.368 . S
C2218 C2212 1.368 . S
C2218 C2217 1.523 . S
C2219 C2203 1.429 . S
C2219 C2215 1.429 . S
C2219 C2220 1.523 . S
C2220 C2204 1.368 . S
C2220 C2216 1.368 . S
C2220 C2219 1.523 . S
H2221 C2196 0.950 . S
H2222 C2198 0.950 . S
H2223 C2199 0.949 . S
H2224 C2201 0.950 . S
H2225 C2203 0.950 . S
C2226 C2227 1.349 . S
C2226 C2228 1.327 . S
C2226 H2251 0.950 . S
C2227 C2226 1.349 . S
C2227 C2243 1.349 . S
C2228 C2226 1.327 . S
C2228 C2247 1.429 . S
C2228 H2252 0.950 . S
C2229 C2246 1.574 . S
C2229 C2248 1.368 . S
C2229 H2253 0.949 . S
H2230 C2234 0.949 . S
C2231 C2232 1.349 . S
C2231 C2233 1.327 . S
C2231 H2254 0.950 . S
C2232 C2231 1.349 . S
C2232 C2244 1.349 . S
C2233 C2231 1.327 . S
C2233 C2249 1.429 . S
C2233 H2255 0.950 . S
C2234 H2230 0.949 . S
C2234 C2242 1.574 . S
C2234 C2250 1.368 . S
H2235 C2243 0.950 . S
H2236 C2241 0.950 . S
H2237 C2242 0.949 . S
H2238 C2244 0.950 . S
H2239 C2245 0.950 . S
H2240 C2246 0.949 . S
C2241 H2236 0.950 . S
C2241 C2243 1.327 . S
C2241 C2247 1.429 . S
C2242 C2234 1.574 . S
C2242 H2237 0.949 . S
C2242 C2248 1.368 . S
C2243 C2227 1.349 . S
C2243 H2235 0.950 . S
C2243 C2241 1.327 . S
C2244 C2232 1.349 . S
C2244 H2238 0.950 . S
C2244 C2245 1.327 . S
C2245 H2239 0.950 . S
C2245 C2244 1.327 . S
C2245 C2249 1.429 . S
C2246 C2229 1.574 . S
C2246 H2240 0.949 . S
C2246 C2250 1.368 . S
C2247 C2228 1.429 . S
C2247 C2241 1.429 . S
C2247 C2248 1.523 . S
C2248 C2229 1.368 . S
C2248 C2242 1.368 . S
C2248 C2247 1.523 . S
C2249 C2233 1.429 . S
C2249 C2245 1.429 . S
C2249 C2250 1.523 . S
C2250 C2234 1.368 . S
C2250 C2246 1.368 . S
C2250 C2249 1.523 . S
H2251 C2226 0.950 . S
H2252 C2228 0.950 . S
H2253 C2229 0.949 . S
H2254 C2231 0.950 . S
H2255 C2233 0.950 . S
C2256 C2257 1.349 . S
C2256 C2258 1.327 . S
C2256 H2281 0.950 . S
C2257 C2256 1.349 . S
C2257 C2273 1.349 . S
C2258 C2256 1.327 . S
C2258 C2277 1.429 . S
C2258 H2282 0.950 . S
C2259 C2276 1.574 . S
C2259 C2278 1.368 . S
C2259 H2283 0.949 . S
H2260 C2264 0.949 . S
C2261 C2262 1.349 . S
C2261 C2263 1.327 . S
C2261 H2284 0.950 . S
C2262 C2261 1.349 . S
C2262 C2274 1.349 . S
C2263 C2261 1.327 . S
C2263 C2279 1.429 . S
C2263 H2285 0.950 . S
C2264 H2260 0.949 . S
C2264 C2272 1.574 . S
C2264 C2280 1.368 . S
H2265 C2273 0.950 . S
H2266 C2271 0.950 . S
H2267 C2272 0.949 . S
H2268 C2274 0.950 . S
H2269 C2275 0.950 . S
H2270 C2276 0.949 . S
C2271 H2266 0.950 . S
C2271 C2273 1.327 . S
C2271 C2277 1.429 . S
C2272 C2264 1.574 . S
C2272 H2267 0.949 . S
C2272 C2278 1.368 . S
C2273 C2257 1.349 . S
C2273 H2265 0.950 . S
C2273 C2271 1.327 . S
C2274 C2262 1.349 . S
C2274 H2268 0.950 . S
C2274 C2275 1.327 . S
C2275 H2269 0.950 . S
C2275 C2274 1.327 . S
C2275 C2279 1.429 . S
C2276 C2259 1.574 . S
C2276 H2270 0.949 . S
C2276 C2280 1.368 . S
C2277 C2258 1.429 . S
C2277 C2271 1.429 . S
C2277 C2278 1.523 . S
C2278 C2259 1.368 . S
C2278 C2272 1.368 . S
C2278 C2277 1.523 . S
C2279 C2263 1.429 . S
C2279 C2275 1.429 . S
C2279 C2280 1.523 . S
C2280 C2264 1.368 . S
C2280 C2276 1.368 . S
C2280 C2279 1.523 . S
H2281 C2256 0.950 . S
H2282 C2258 0.950 . S
H2283 C2259 0.949 . S
H2284 C2261 0.950 . S
H2285 C2263 0.950 . S
C2286 C2287 1.349 . S
C2286 C2288 1.327 . S
C2286 H2311 0.950 . S
C2287 C2286 1.349 . S
C2287 C2303 1.349 . S
C2288 C2286 1.327 . S
C2288 C2307 1.429 . S
C2288 H2312 0.950 . S
C2289 C2306 1.574 . S
C2289 C2308 1.368 . S
C2289 H2313 0.949 . S
H2290 C2294 0.949 . S
C2291 C2292 1.349 . S
C2291 C2293 1.327 . S
C2291 H2314 0.950 . S
C2292 C2291 1.349 . S
C2292 C2304 1.349 . S
C2293 C2291 1.327 . S
C2293 C2309 1.429 . S
C2293 H2315 0.950 . S
C2294 H2290 0.949 . S
C2294 C2302 1.574 . S
C2294 C2310 1.368 . S
H2295 C2303 0.950 1_554 S
H2296 C2301 0.950 . S
H2297 C2302 0.949 . S
H2298 C2304 0.950 . S
H2299 C2305 0.950 . S
H2300 C2306 0.949 . S
C2301 H2296 0.950 . S
C2301 C2303 1.327 . S
C2301 C2307 1.429 . S
C2302 C2294 1.574 . S
C2302 H2297 0.949 . S
C2302 C2308 1.368 . S
C2303 C2287 1.349 . S
C2303 H2295 0.950 1_556 S
C2303 C2301 1.327 . S
C2304 C2292 1.349 . S
C2304 H2298 0.950 . S
C2304 C2305 1.327 . S
C2305 H2299 0.950 . S
C2305 C2304 1.327 . S
C2305 C2309 1.429 . S
C2306 C2289 1.574 . S
C2306 H2300 0.949 . S
C2306 C2310 1.368 . S
C2307 C2288 1.429 . S
C2307 C2301 1.429 . S
C2307 C2308 1.523 . S
C2308 C2289 1.368 . S
C2308 C2302 1.368 . S
C2308 C2307 1.523 . S
C2309 C2293 1.429 . S
C2309 C2305 1.429 . S
C2309 C2310 1.523 . S
C2310 C2294 1.368 . S
C2310 C2306 1.368 . S
C2310 C2309 1.523 . S
H2311 C2286 0.950 . S
H2312 C2288 0.950 . S
H2313 C2289 0.949 . S
H2314 C2291 0.950 . S
H2315 C2293 0.950 . S
C2316 C2317 1.349 1_554 S
C2316 C2318 1.327 1_554 S
C2316 H2341 0.950 . S
C2317 C2316 1.349 1_556 S
C2317 C2333 1.349 . S
C2318 C2316 1.327 1_556 S
C2318 C2337 1.429 . S
C2318 H2342 0.950 1_556 S
C2319 C2336 1.574 . S
C2319 C2338 1.368 . S
C2319 H2343 0.949 . S
H2320 C2324 0.949 . S
C2321 C2322 1.349 . S
C2321 C2323 1.327 . S
C2321 H2344 0.950 . S
C2322 C2321 1.349 . S
C2322 C2334 1.349 . S
C2323 C2321 1.327 . S
C2323 C2339 1.429 . S
C2323 H2345 0.950 . S
C2324 H2320 0.949 . S
C2324 C2332 1.574 . S
C2324 C2340 1.368 . S
H2325 C2333 0.950 . S
H2326 C2331 0.950 . S
H2327 C2332 0.949 . S
H2328 C2334 0.950 . S
H2329 C2335 0.950 . S
H2330 C2336 0.949 . S
C2331 H2326 0.950 . S
C2331 C2333 1.327 . S
C2331 C2337 1.429 . S
C2332 C2324 1.574 . S
C2332 H2327 0.949 . S
C2332 C2338 1.368 . S
C2333 C2317 1.349 . S
C2333 H2325 0.950 . S
C2333 C2331 1.327 . S
C2334 C2322 1.349 . S
C2334 H2328 0.950 . S
C2334 C2335 1.327 . S
C2335 H2329 0.950 . S
C2335 C2334 1.327 . S
C2335 C2339 1.429 . S
C2336 C2319 1.574 . S
C2336 H2330 0.949 . S
C2336 C2340 1.368 . S
C2337 C2318 1.429 . S
C2337 C2331 1.429 . S
C2337 C2338 1.523 . S
C2338 C2319 1.368 . S
C2338 C2332 1.368 . S
C2338 C2337 1.523 . S
C2339 C2323 1.429 . S
C2339 C2335 1.429 . S
C2339 C2340 1.523 . S
C2340 C2324 1.368 . S
C2340 C2336 1.368 . S
C2340 C2339 1.523 . S
H2341 C2316 0.950 . S
H2342 C2318 0.950 1_554 S
H2343 C2319 0.949 . S
H2344 C2321 0.950 . S
H2345 C2323 0.950 . S
C2346 C2347 1.349 1_554 S
C2346 C2348 1.327 1_554 S
C2346 H2371 0.950 . S
C2347 C2346 1.349 1_556 S
C2347 C2363 1.349 . S
C2348 C2346 1.327 1_556 S
C2348 C2367 1.429 . S
C2348 H2372 0.942 1_556 S
C2349 C2366 1.574 . S
C2349 C2368 1.368 . S
C2349 H2373 0.949 . S
H2350 C2354 0.949 . S
C2351 C2352 1.349 . S
C2351 C2353 1.327 . S
C2351 H2374 0.950 . S
C2352 C2351 1.349 . S
C2352 C2364 1.349 . S
C2353 C2351 1.327 . S
C2353 C2369 1.429 . S
C2353 H2375 0.950 . S
C2354 H2350 0.949 . S
C2354 C2362 1.574 . S
C2354 C2370 1.368 . S
H2355 C2363 0.950 . S
H2356 C2361 0.950 . S
H2357 C2362 0.949 . S
H2358 C2364 0.950 . S
H2359 C2365 0.950 . S
H2360 C2366 0.949 . S
C2361 H2356 0.950 . S
C2361 C2363 1.327 . S
C2361 C2367 1.429 . S
C2362 C2354 1.574 . S
C2362 H2357 0.949 . S
C2362 C2368 1.368 . S
C2363 C2347 1.349 . S
C2363 H2355 0.950 . S
C2363 C2361 1.327 . S
C2364 C2352 1.349 . S
C2364 H2358 0.950 . S
C2364 C2365 1.327 . S
C2365 H2359 0.950 . S
C2365 C2364 1.327 . S
C2365 C2369 1.429 . S
C2366 C2349 1.574 . S
C2366 H2360 0.949 . S
C2366 C2370 1.368 . S
C2367 C2348 1.429 . S
C2367 C2361 1.429 . S
C2367 C2368 1.523 . S
C2368 C2349 1.368 . S
C2368 C2362 1.368 . S
C2368 C2367 1.523 . S
C2369 C2353 1.429 . S
C2369 C2365 1.429 . S
C2369 C2370 1.523 . S
C2370 C2354 1.368 . S
C2370 C2366 1.368 . S
C2370 C2369 1.523 . S
H2371 C2346 0.950 . S
H2372 C2348 0.942 1_554 S
H2373 C2349 0.949 . S
H2374 C2351 0.950 . S
H2375 C2353 0.950 . S
C2376 C2377 1.349 . S
C2376 C2378 1.327 . S
C2376 H2401 0.950 . S
C2377 C2376 1.349 . S
C2377 C2393 1.349 1_556 S
C2378 C2376 1.327 . S
C2378 C2397 1.429 . S
C2378 H2402 0.950 . S
C2379 C2396 1.574 . S
C2379 C2398 1.368 . S
C2379 H2403 0.949 . S
H2380 C2384 0.949 . S
C2381 C2382 1.349 . S
C2381 C2383 1.327 . S
C2381 H2404 0.950 . S
C2382 C2381 1.349 . S
C2382 C2394 1.349 . S
C2383 C2381 1.327 . S
C2383 C2399 1.429 . S
C2383 H2405 0.950 . S
C2384 H2380 0.949 . S
C2384 C2392 1.574 . S
C2384 C2400 1.368 . S
H2385 C2393 0.950 . S
H2386 C2391 0.950 1_554 S
H2387 C2392 0.949 . S
H2388 C2394 0.950 . S
H2389 C2395 0.950 . S
H2390 C2396 0.949 . S
C2391 H2386 0.950 1_556 S
C2391 C2393 1.327 1_556 S
C2391 C2397 1.429 . S
C2392 C2384 1.574 . S
C2392 H2387 0.949 . S
C2392 C2398 1.368 . S
C2393 C2377 1.349 1_554 S
C2393 H2385 0.950 . S
C2393 C2391 1.327 1_554 S
C2394 C2382 1.349 . S
C2394 H2388 0.950 . S
C2394 C2395 1.327 . S
C2395 H2389 0.950 . S
C2395 C2394 1.327 . S
C2395 C2399 1.429 . S
C2396 C2379 1.574 . S
C2396 H2390 0.949 . S
C2396 C2400 1.368 . S
C2397 C2378 1.429 . S
C2397 C2391 1.429 . S
C2397 C2398 1.523 . S
C2398 C2379 1.368 . S
C2398 C2392 1.368 . S
C2398 C2397 1.523 . S
C2399 C2383 1.429 . S
C2399 C2395 1.429 . S
C2399 C2400 1.523 . S
C2400 C2384 1.368 . S
C2400 C2396 1.368 . S
C2400 C2399 1.523 . S
H2401 C2376 0.950 . S
H2402 C2378 0.950 . S
H2403 C2379 0.949 . S
H2404 C2381 0.950 . S
H2405 C2383 0.950 . S
C2406 C2407 1.334 1_554 S
C2406 C2408 1.311 1_554 S
C2406 H2431 0.982 . S
C2407 C2406 1.334 1_556 S
C2407 C2423 1.349 . S
C2408 C2406 1.311 1_556 S
C2408 C2427 1.429 . S
C2408 H2432 0.950 . S
C2409 C2426 1.574 . S
C2409 C2428 1.368 . S
C2409 H2433 0.949 . S
H2410 C2414 0.949 . S
C2411 C2412 1.349 . S
C2411 C2413 1.327 . S
C2411 H2434 0.950 . S
C2412 C2411 1.349 . S
C2412 C2424 1.349 . S
C2413 C2411 1.327 . S
C2413 C2429 1.429 . S
C2413 H2435 0.950 . S
C2414 H2410 0.949 . S
C2414 C2422 1.574 . S
C2414 C2430 1.368 . S
H2415 C2423 0.950 . S
H2416 C2421 0.950 . S
H2417 C2422 0.949 . S
H2418 C2424 0.950 . S
H2419 C2425 0.950 . S
H2420 C2426 0.949 . S
C2421 H2416 0.950 . S
C2421 C2423 1.327 . S
C2421 C2427 1.429 . S
C2422 C2414 1.574 . S
C2422 H2417 0.949 . S
C2422 C2428 1.368 . S
C2423 C2407 1.349 . S
C2423 H2415 0.950 . S
C2423 C2421 1.327 . S
C2424 C2412 1.349 . S
C2424 H2418 0.950 . S
C2424 C2425 1.327 . S
C2425 H2419 0.950 . S
C2425 C2424 1.327 . S
C2425 C2429 1.429 . S
C2426 C2409 1.574 . S
C2426 H2420 0.949 . S
C2426 C2430 1.368 . S
C2427 C2408 1.429 . S
C2427 C2421 1.429 . S
C2427 C2428 1.523 . S
C2428 C2409 1.368 . S
C2428 C2422 1.368 . S
C2428 C2427 1.523 . S
C2429 C2413 1.429 . S
C2429 C2425 1.429 . S
C2429 C2430 1.523 . S
C2430 C2414 1.368 . S
C2430 C2426 1.368 . S
C2430 C2429 1.523 . S
H2431 C2406 0.982 . S
H2432 C2408 0.950 . S
H2433 C2409 0.949 . S
H2434 C2411 0.950 . S
H2435 C2413 0.950 . S
C2436 C2437 1.368 . S
C2436 C2438 1.327 . S
C2436 H2461 0.950 . S
C2437 C2436 1.368 . S
C2437 C2453 1.358 . S
C2438 C2436 1.327 . S
C2438 C2457 1.429 . S
C2438 H2462 0.950 . S
C2439 C2456 1.574 . S
C2439 C2458 1.368 . S
C2439 H2463 0.949 . S
H2440 C2444 0.949 . S
C2441 C2442 1.349 . S
C2441 C2443 1.327 . S
C2441 H2464 0.950 . S
C2442 C2441 1.349 . S
C2442 C2454 1.349 . S
C2443 C2441 1.327 . S
C2443 C2459 1.429 . S
C2443 H2465 0.950 . S
C2444 H2440 0.949 . S
C2444 C2452 1.574 . S
C2444 C2460 1.368 . S
H2445 C2453 0.936 1_554 S
H2446 C2451 0.950 . S
H2447 C2452 0.949 . S
H2448 C2454 0.950 . S
H2449 C2455 0.950 . S
H2450 C2456 0.949 . S
C2451 H2446 0.950 . S
C2451 C2453 1.327 . S
C2451 C2457 1.429 . S
C2452 C2444 1.574 . S
C2452 H2447 0.949 . S
C2452 C2458 1.368 . S
C2453 C2437 1.358 . S
C2453 H2445 0.936 1_556 S
C2453 C2451 1.327 . S
C2454 C2442 1.349 . S
C2454 H2448 0.950 . S
C2454 C2455 1.327 . S
C2455 H2449 0.950 . S
C2455 C2454 1.327 . S
C2455 C2459 1.429 . S
C2456 C2439 1.574 . S
C2456 H2450 0.949 . S
C2456 C2460 1.368 . S
C2457 C2438 1.429 . S
C2457 C2451 1.429 . S
C2457 C2458 1.523 . S
C2458 C2439 1.368 . S
C2458 C2452 1.368 . S
C2458 C2457 1.523 . S
C2459 C2443 1.429 . S
C2459 C2455 1.429 . S
C2459 C2460 1.523 . S
C2460 C2444 1.368 . S
C2460 C2456 1.368 . S
C2460 C2459 1.523 . S
H2461 C2436 0.950 . S
H2462 C2438 0.950 . S
H2463 C2439 0.949 . S
H2464 C2441 0.950 . S
H2465 C2443 0.950 . S
C2466 C2467 1.349 . S
C2466 C2468 1.327 . S
C2466 H2491 0.950 . S
C2467 C2466 1.349 . S
C2467 C2483 1.349 . S
C2468 C2466 1.327 . S
C2468 C2487 1.429 . S
C2468 H2492 0.950 . S
C2469 C2486 1.574 . S
C2469 C2488 1.368 . S
C2469 H2493 0.949 . S
H2470 C2474 0.949 . S
C2471 C2472 1.349 . S
C2471 C2473 1.327 . S
C2471 H2494 0.950 . S
C2472 C2471 1.349 . S
C2472 C2484 1.349 . S
C2473 C2471 1.327 . S
C2473 C2489 1.429 . S
C2473 H2495 0.950 . S
C2474 H2470 0.949 . S
C2474 C2482 1.574 . S
C2474 C2490 1.368 . S
H2475 C2483 0.950 . S
H2476 C2481 0.950 . S
H2477 C2482 0.949 . S
H2478 C2484 0.950 . S
H2479 C2485 0.950 . S
H2480 C2486 0.949 . S
C2481 H2476 0.950 . S
C2481 C2483 1.327 . S
C2481 C2487 1.429 . S
C2482 C2474 1.574 . S
C2482 H2477 0.949 . S
C2482 C2488 1.368 . S
C2483 C2467 1.349 . S
C2483 H2475 0.950 . S
C2483 C2481 1.327 . S
C2484 C2472 1.349 . S
C2484 H2478 0.950 . S
C2484 C2485 1.327 . S
C2485 H2479 0.950 . S
C2485 C2484 1.327 . S
C2485 C2489 1.429 . S
C2486 C2469 1.574 . S
C2486 H2480 0.949 . S
C2486 C2490 1.368 . S
C2487 C2468 1.429 . S
C2487 C2481 1.429 . S
C2487 C2488 1.523 . S
C2488 C2469 1.368 . S
C2488 C2482 1.368 . S
C2488 C2487 1.523 . S
C2489 C2473 1.429 . S
C2489 C2485 1.429 . S
C2489 C2490 1.523 . S
C2490 C2474 1.368 . S
C2490 C2486 1.368 . S
C2490 C2489 1.523 . S
H2491 C2466 0.950 . S
H2492 C2468 0.950 . S
H2493 C2469 0.949 . S
H2494 C2471 0.950 . S
H2495 C2473 0.950 . S
C2496 C2497 1.349 . S
C2496 C2498 1.327 . S
C2496 H2521 0.950 . S
C2497 C2496 1.349 . S
C2497 C2513 1.349 . S
C2498 C2496 1.327 . S
C2498 C2517 1.429 . S
C2498 H2522 0.950 . S
C2499 C2516 1.574 . S
C2499 C2518 1.368 . S
C2499 H2523 0.949 . S
H2500 C2504 0.949 . S
C2501 C2502 1.349 . S
C2501 C2503 1.327 . S
C2501 H2524 0.950 . S
C2502 C2501 1.349 . S
C2502 C2514 1.349 . S
C2503 C2501 1.327 . S
C2503 C2519 1.429 . S
C2503 H2525 0.950 . S
C2504 H2500 0.949 . S
C2504 C2512 1.574 . S
C2504 C2520 1.368 . S
H2505 C2513 0.950 . S
H2506 C2511 0.950 . S
H2507 C2512 0.949 . S
H2508 C2514 0.950 . S
H2509 C2515 0.950 . S
H2510 C2516 0.949 . S
C2511 H2506 0.950 . S
C2511 C2513 1.327 . S
C2511 C2517 1.429 . S
C2512 C2504 1.574 . S
C2512 H2507 0.949 . S
C2512 C2518 1.368 . S
C2513 C2497 1.349 . S
C2513 H2505 0.950 . S
C2513 C2511 1.327 . S
C2514 C2502 1.349 . S
C2514 H2508 0.950 . S
C2514 C2515 1.327 . S
C2515 H2509 0.950 . S
C2515 C2514 1.327 . S
C2515 C2519 1.429 . S
C2516 C2499 1.574 . S
C2516 H2510 0.949 . S
C2516 C2520 1.368 . S
C2517 C2498 1.429 . S
C2517 C2511 1.429 . S
C2517 C2518 1.523 . S
C2518 C2499 1.368 . S
C2518 C2512 1.368 . S
C2518 C2517 1.523 . S
C2519 C2503 1.429 . S
C2519 C2515 1.429 . S
C2519 C2520 1.523 . S
C2520 C2504 1.368 . S
C2520 C2516 1.368 . S
C2520 C2519 1.523 . S
H2521 C2496 0.950 . S
H2522 C2498 0.950 . S
H2523 C2499 0.949 . S
H2524 C2501 0.950 . S
H2525 C2503 0.950 . S
C2526 C2527 1.349 . S
C2526 C2528 1.327 . S
C2526 H2551 0.950 . S
C2527 C2526 1.349 . S
C2527 C2543 1.349 . S
C2528 C2526 1.327 . S
C2528 C2547 1.429 . S
C2528 H2552 0.950 . S
C2529 C2546 1.574 . S
C2529 C2548 1.368 . S
C2529 H2553 0.949 . S
H2530 C2534 0.949 . S
C2531 C2532 1.349 . S
C2531 C2533 1.327 . S
C2531 H2554 0.950 . S
C2532 C2531 1.349 . S
C2532 C2544 1.349 . S
C2533 C2531 1.327 . S
C2533 C2549 1.429 . S
C2533 H2555 0.950 . S
C2534 H2530 0.949 . S
C2534 C2542 1.574 . S
C2534 C2550 1.368 . S
H2535 C2543 0.950 . S
H2536 C2541 0.950 . S
H2537 C2542 0.949 . S
H2538 C2544 0.950 . S
H2539 C2545 0.950 . S
H2540 C2546 0.949 . S
C2541 H2536 0.950 . S
C2541 C2543 1.327 . S
C2541 C2547 1.429 . S
C2542 C2534 1.574 . S
C2542 H2537 0.949 . S
C2542 C2548 1.368 . S
C2543 C2527 1.349 . S
C2543 H2535 0.950 . S
C2543 C2541 1.327 . S
C2544 C2532 1.349 . S
C2544 H2538 0.950 . S
C2544 C2545 1.327 . S
C2545 H2539 0.950 . S
C2545 C2544 1.327 . S
C2545 C2549 1.429 . S
C2546 C2529 1.574 . S
C2546 H2540 0.949 . S
C2546 C2550 1.368 . S
C2547 C2528 1.429 . S
C2547 C2541 1.429 . S
C2547 C2548 1.523 . S
C2548 C2529 1.368 . S
C2548 C2542 1.368 . S
C2548 C2547 1.523 . S
C2549 C2533 1.429 . S
C2549 C2545 1.429 . S
C2549 C2550 1.523 . S
C2550 C2534 1.368 . S
C2550 C2546 1.368 . S
C2550 C2549 1.523 . S
H2551 C2526 0.950 . S
H2552 C2528 0.950 . S
H2553 C2529 0.949 . S
H2554 C2531 0.950 . S
H2555 C2533 0.950 . S
C2556 C2557 1.349 . S
C2556 C2558 1.327 . S
C2556 H2581 0.950 . S
C2557 C2556 1.349 . S
C2557 C2573 1.349 . S
C2558 C2556 1.327 . S
C2558 C2577 1.429 . S
C2558 H2582 0.950 . S
C2559 C2576 1.574 . S
C2559 C2578 1.368 . S
C2559 H2583 0.949 . S
H2560 C2564 0.949 . S
C2561 C2562 1.349 . S
C2561 C2563 1.327 . S
C2561 H2584 0.950 . S
C2562 C2561 1.349 . S
C2562 C2574 1.349 . S
C2563 C2561 1.327 . S
C2563 C2579 1.429 . S
C2563 H2585 0.950 . S
C2564 H2560 0.949 . S
C2564 C2572 1.574 . S
C2564 C2580 1.368 . S
H2565 C2573 0.950 . S
H2566 C2571 0.950 . S
H2567 C2572 0.949 . S
H2568 C2574 0.950 . S
H2569 C2575 0.950 . S
H2570 C2576 0.949 . S
C2571 H2566 0.950 . S
C2571 C2573 1.327 . S
C2571 C2577 1.429 . S
C2572 C2564 1.574 . S
C2572 H2567 0.949 . S
C2572 C2578 1.368 . S
C2573 C2557 1.349 . S
C2573 H2565 0.950 . S
C2573 C2571 1.327 . S
C2574 C2562 1.349 . S
C2574 H2568 0.950 . S
C2574 C2575 1.327 . S
C2575 H2569 0.950 . S
C2575 C2574 1.327 . S
C2575 C2579 1.429 . S
C2576 C2559 1.574 . S
C2576 H2570 0.949 . S
C2576 C2580 1.368 . S
C2577 C2558 1.429 . S
C2577 C2571 1.429 . S
C2577 C2578 1.523 . S
C2578 C2559 1.368 . S
C2578 C2572 1.368 . S
C2578 C2577 1.523 . S
C2579 C2563 1.429 . S
C2579 C2575 1.429 . S
C2579 C2580 1.523 . S
C2580 C2564 1.368 . S
C2580 C2576 1.368 . S
C2580 C2579 1.523 . S
H2581 C2556 0.950 . S
H2582 C2558 0.950 . S
H2583 C2559 0.949 . S
H2584 C2561 0.950 . S
H2585 C2563 0.950 . S
C2586 C2587 1.349 . S
C2586 C2588 1.327 . S
C2586 H2611 0.950 . S
C2587 C2586 1.349 . S
C2587 C2603 1.349 . S
C2588 C2586 1.327 . S
C2588 C2607 1.429 . S
C2588 H2612 0.950 . S
C2589 C2606 1.574 . S
C2589 C2608 1.368 . S
C2589 H2613 0.949 . S
H2590 C2594 0.949 . S
C2591 C2592 1.349 . S
C2591 C2593 1.327 . S
C2591 H2614 0.950 . S
C2592 C2591 1.349 . S
C2592 C2604 1.349 . S
C2593 C2591 1.327 . S
C2593 C2609 1.429 . S
C2593 H2615 0.950 . S
C2594 H2590 0.949 . S
C2594 C2602 1.574 . S
C2594 C2610 1.368 . S
H2595 C2603 0.950 . S
H2596 C2601 0.950 . S
H2597 C2602 0.949 . S
H2598 C2604 0.950 . S
H2599 C2605 0.950 . S
H2600 C2606 0.949 . S
C2601 H2596 0.950 . S
C2601 C2603 1.327 . S
C2601 C2607 1.429 . S
C2602 C2594 1.574 . S
C2602 H2597 0.949 . S
C2602 C2608 1.368 . S
C2603 C2587 1.349 . S
C2603 H2595 0.950 . S
C2603 C2601 1.327 . S
C2604 C2592 1.349 . S
C2604 H2598 0.950 . S
C2604 C2605 1.327 . S
C2605 H2599 0.950 . S
C2605 C2604 1.327 . S
C2605 C2609 1.429 . S
C2606 C2589 1.574 . S
C2606 H2600 0.949 . S
C2606 C2610 1.368 . S
C2607 C2588 1.429 . S
C2607 C2601 1.429 . S
C2607 C2608 1.523 . S
C2608 C2589 1.368 . S
C2608 C2602 1.368 . S
C2608 C2607 1.523 . S
C2609 C2593 1.429 . S
C2609 C2605 1.429 . S
C2609 C2610 1.523 . S
C2610 C2594 1.368 . S
C2610 C2606 1.368 . S
C2610 C2609 1.523 . S
H2611 C2586 0.950 . S
H2612 C2588 0.950 . S
H2613 C2589 0.949 . S
H2614 C2591 0.950 . S
H2615 C2593 0.950 . S
C2616 C2617 1.349 . S
C2616 C2618 1.327 . S
C2616 H2641 0.950 . S
C2617 C2616 1.349 . S
C2617 C2633 1.349 . S
C2618 C2616 1.327 . S
C2618 C2637 1.429 . S
C2618 H2642 0.950 . S
C2619 C2636 1.574 . S
C2619 C2638 1.368 . S
C2619 H2643 0.949 . S
H2620 C2624 0.949 . S
C2621 C2622 1.349 . S
C2621 C2623 1.327 . S
C2621 H2644 0.950 . S
C2622 C2621 1.349 . S
C2622 C2634 1.349 . S
C2623 C2621 1.327 . S
C2623 C2639 1.429 . S
C2623 H2645 0.950 . S
C2624 H2620 0.949 . S
C2624 C2632 1.574 . S
C2624 C2640 1.368 . S
H2625 C2633 0.950 . S
H2626 C2631 0.950 . S
H2627 C2632 0.949 . S
H2628 C2634 0.950 . S
H2629 C2635 0.950 . S
H2630 C2636 0.949 . S
C2631 H2626 0.950 . S
C2631 C2633 1.327 . S
C2631 C2637 1.429 . S
C2632 C2624 1.574 . S
C2632 H2627 0.949 . S
C2632 C2638 1.368 . S
C2633 C2617 1.349 . S
C2633 H2625 0.950 . S
C2633 C2631 1.327 . S
C2634 C2622 1.349 . S
C2634 H2628 0.950 . S
C2634 C2635 1.327 . S
C2635 H2629 0.950 . S
C2635 C2634 1.327 . S
C2635 C2639 1.429 . S
C2636 C2619 1.574 . S
C2636 H2630 0.949 . S
C2636 C2640 1.368 . S
C2637 C2618 1.429 . S
C2637 C2631 1.429 . S
C2637 C2638 1.523 . S
C2638 C2619 1.368 . S
C2638 C2632 1.368 . S
C2638 C2637 1.523 . S
C2639 C2623 1.429 . S
C2639 C2635 1.429 . S
C2639 C2640 1.523 . S
C2640 C2624 1.368 . S
C2640 C2636 1.368 . S
C2640 C2639 1.523 . S
H2641 C2616 0.950 . S
H2642 C2618 0.950 . S
H2643 C2619 0.949 . S
H2644 C2621 0.950 . S
H2645 C2623 0.950 . S
C2646 C2647 1.349 . S
C2646 C2648 1.327 . S
C2646 H2671 0.950 . S
C2647 C2646 1.349 . S
C2647 C2663 1.349 . S
C2648 C2646 1.327 . S
C2648 C2667 1.429 . S
C2648 H2672 0.950 . S
C2649 C2666 1.574 . S
C2649 C2668 1.368 . S
C2649 H2673 0.949 . S
H2650 C2654 0.949 . S
C2651 C2652 1.349 1_655 S
C2651 C2653 1.327 1_655 S
C2651 H2674 0.950 . S
C2652 C2651 1.349 1_455 S
C2652 C2664 1.349 . S
C2653 C2651 1.327 1_455 S
C2653 C2669 1.429 . S
C2653 H2675 0.950 1_455 S
C2654 H2650 0.949 . S
C2654 C2662 1.574 . S
C2654 C2670 1.368 . S
H2655 C2663 0.950 . S
H2656 C2661 0.950 . S
H2657 C2662 0.949 . S
H2658 C2664 0.950 . S
H2659 C2665 0.950 . S
H2660 C2666 0.979 . S
C2661 H2656 0.950 . S
C2661 C2663 1.327 . S
C2661 C2667 1.429 . S
C2662 C2654 1.574 . S
C2662 H2657 0.949 . S
C2662 C2668 1.368 . S
C2663 C2647 1.349 . S
C2663 H2655 0.950 . S
C2663 C2661 1.327 . S
C2664 C2652 1.349 . S
C2664 H2658 0.950 . S
C2664 C2665 1.327 . S
C2665 H2659 0.950 . S
C2665 C2664 1.327 . S
C2665 C2669 1.429 . S
C2666 C2649 1.574 . S
C2666 H2660 0.979 . S
C2666 C2670 1.368 . S
C2667 C2648 1.429 . S
C2667 C2661 1.429 . S
C2667 C2668 1.523 . S
C2668 C2649 1.368 . S
C2668 C2662 1.368 . S
C2668 C2667 1.523 . S
C2669 C2653 1.429 . S
C2669 C2665 1.429 . S
C2669 C2670 1.523 . S
C2670 C2654 1.368 . S
C2670 C2666 1.368 . S
C2670 C2669 1.523 . S
H2671 C2646 0.950 . S
H2672 C2648 0.950 . S
H2673 C2649 0.949 . S
H2674 C2651 0.950 . S
H2675 C2653 0.950 1_655 S
C2676 C2677 1.349 . S
C2676 C2678 1.327 . S
C2676 H2701 0.950 . S
C2677 C2676 1.349 . S
C2677 C2693 1.349 . S
C2678 C2676 1.327 . S
C2678 C2697 1.429 . S
C2678 H2702 0.950 . S
C2679 C2696 1.574 . S
C2679 C2698 1.368 . S
C2679 H2703 0.949 . S
H2680 C2684 0.949 . S
C2681 C2682 1.349 . S
C2681 C2683 1.327 . S
C2681 H2704 0.950 . S
C2682 C2681 1.349 . S
C2682 C2694 1.349 . S
C2683 C2681 1.327 . S
C2683 C2699 1.429 . S
C2683 H2705 0.950 . S
C2684 H2680 0.949 . S
C2684 C2692 1.574 . S
C2684 C2700 1.368 . S
H2685 C2693 0.950 . S
H2686 C2691 0.950 . S
H2687 C2692 0.949 . S
H2688 C2694 0.950 . S
H2689 C2695 0.950 . S
H2690 C2696 0.949 . S
C2691 H2686 0.950 . S
C2691 C2693 1.327 . S
C2691 C2697 1.429 . S
C2692 C2684 1.574 . S
C2692 H2687 0.949 . S
C2692 C2698 1.368 . S
C2693 C2677 1.349 . S
C2693 H2685 0.950 . S
C2693 C2691 1.327 . S
C2694 C2682 1.349 . S
C2694 H2688 0.950 . S
C2694 C2695 1.327 . S
C2695 H2689 0.950 . S
C2695 C2694 1.327 . S
C2695 C2699 1.429 . S
C2696 C2679 1.574 . S
C2696 H2690 0.949 . S
C2696 C2700 1.368 . S
C2697 C2678 1.429 . S
C2697 C2691 1.429 . S
C2697 C2698 1.523 . S
C2698 C2679 1.368 . S
C2698 C2692 1.368 . S
C2698 C2697 1.523 . S
C2699 C2683 1.429 . S
C2699 C2695 1.429 . S
C2699 C2700 1.523 . S
C2700 C2684 1.368 . S
C2700 C2696 1.368 . S
C2700 C2699 1.523 . S
H2701 C2676 0.950 . S
H2702 C2678 0.950 . S
H2703 C2679 0.949 . S
H2704 C2681 0.950 . S
H2705 C2683 0.950 . S
C2706 C2707 1.349 . S
C2706 C2708 1.325 . S
C2706 H2731 0.950 1_565 S
C2707 C2706 1.349 . S
C2707 C2723 1.349 . S
C2708 C2706 1.325 . S
C2708 C2727 1.432 . S
C2708 H2732 0.948 1_565 S
C2709 C2726 1.574 . S
C2709 C2728 1.368 . S
C2709 H2733 0.949 . S
H2710 C2714 0.949 . S
C2711 C2712 1.349 . S
C2711 C2713 1.327 . S
C2711 H2734 0.950 . S
C2712 C2711 1.349 . S
C2712 C2724 1.349 1_565 S
C2713 C2711 1.327 . S
C2713 C2729 1.429 . S
C2713 H2735 0.950 . S
C2714 H2710 0.949 . S
C2714 C2722 1.574 . S
C2714 C2730 1.368 1_545 S
H2715 C2723 0.950 . S
H2716 C2721 0.950 . S
H2717 C2722 0.949 . S
H2718 C2724 0.950 . S
H2719 C2725 0.950 . S
H2720 C2726 0.949 . S
C2721 H2716 0.950 . S
C2721 C2723 1.327 . S
C2721 C2727 1.429 . S
C2722 C2714 1.574 . S
C2722 H2717 0.949 . S
C2722 C2728 1.368 1_545 S
C2723 C2707 1.349 . S
C2723 H2715 0.950 . S
C2723 C2721 1.327 . S
C2724 C2712 1.349 1_545 S
C2724 H2718 0.950 . S
C2724 C2725 1.327 . S
C2725 H2719 0.950 . S
C2725 C2724 1.327 . S
C2725 C2729 1.429 1_545 S
C2726 C2709 1.574 . S
C2726 H2720 0.949 . S
C2726 C2730 1.368 . S
C2727 C2708 1.432 . S
C2727 C2721 1.429 . S
C2727 C2728 1.523 . S
C2728 C2709 1.368 . S
C2728 C2722 1.368 1_565 S
C2728 C2727 1.523 . S
C2729 C2713 1.429 . S
C2729 C2725 1.429 1_565 S
C2729 C2730 1.523 . S
C2730 C2714 1.368 1_565 S
C2730 C2726 1.368 . S
C2730 C2729 1.523 . S
H2731 C2706 0.950 1_545 S
H2732 C2708 0.948 1_545 S
H2733 C2709 0.949 . S
H2734 C2711 0.950 . S
H2735 C2713 0.950 . S
C2736 C2737 1.349 . S
C2736 C2738 1.327 . S
C2736 H2761 0.950 1_565 S
C2737 C2736 1.349 . S
C2737 C2753 1.349 . S
C2738 C2736 1.327 . S
C2738 C2757 1.429 . S
C2738 H2762 0.950 1_565 S
C2739 C2756 1.574 . S
C2739 C2758 1.368 . S
C2739 H2763 0.949 . S
H2740 C2744 0.949 . S
C2741 C2742 1.349 . S
C2741 C2743 1.327 . S
C2741 H2764 0.950 . S
C2742 C2741 1.349 . S
C2742 C2754 1.349 1_565 S
C2743 C2741 1.327 . S
C2743 C2759 1.429 . S
C2743 H2765 0.950 . S
C2744 H2740 0.949 . S
C2744 C2752 1.574 . S
C2744 C2760 1.368 1_545 S
H2745 C2753 0.950 . S
H2746 C2751 0.950 . S
H2747 C2752 0.949 . S
H2748 C2754 0.950 . S
H2749 C2755 0.950 . S
H2750 C2756 0.949 . S
C2751 H2746 0.950 . S
C2751 C2753 1.327 . S
C2751 C2757 1.429 . S
C2752 C2744 1.574 . S
C2752 H2747 0.949 . S
C2752 C2758 1.368 1_545 S
C2753 C2737 1.349 . S
C2753 H2745 0.950 . S
C2753 C2751 1.327 . S
C2754 C2742 1.349 1_545 S
C2754 H2748 0.950 . S
C2754 C2755 1.327 . S
C2755 H2749 0.950 . S
C2755 C2754 1.327 . S
C2755 C2759 1.429 1_545 S
C2756 C2739 1.574 . S
C2756 H2750 0.949 . S
C2756 C2760 1.368 . S
C2757 C2738 1.429 . S
C2757 C2751 1.429 . S
C2757 C2758 1.523 . S
C2758 C2739 1.368 . S
C2758 C2752 1.368 1_565 S
C2758 C2757 1.523 . S
C2759 C2743 1.429 . S
C2759 C2755 1.429 1_565 S
C2759 C2760 1.523 . S
C2760 C2744 1.368 1_565 S
C2760 C2756 1.368 . S
C2760 C2759 1.523 . S
H2761 C2736 0.950 1_545 S
H2762 C2738 0.950 1_545 S
H2763 C2739 0.949 . S
H2764 C2741 0.950 . S
H2765 C2743 0.950 . S
C2766 C2767 1.349 . S
C2766 C2768 1.327 . S
C2766 H2791 0.950 . S
C2767 C2766 1.349 . S
C2767 C2783 1.349 . S
C2768 C2766 1.327 . S
C2768 C2787 1.429 . S
C2768 H2792 0.950 . S
C2769 C2786 1.574 . S
C2769 C2788 1.368 1_655 S
C2769 H2793 0.949 . S
H2770 C2774 0.949 . S
C2771 C2772 1.349 1_655 S
C2771 C2773 1.327 . S
C2771 H2794 0.950 . S
C2772 C2771 1.349 1_455 S
C2772 C2784 1.349 . S
C2773 C2771 1.327 . S
C2773 C2789 1.429 1_655 S
C2773 H2795 0.950 . S
C2774 H2770 0.949 . S
C2774 C2782 1.574 . S
C2774 C2790 1.368 . S
H2775 C2783 0.950 1_655 S
H2776 C2781 0.950 1_655 S
H2777 C2782 0.949 . S
H2778 C2784 0.950 . S
H2779 C2785 0.950 . S
H2780 C2786 0.949 . S
C2781 H2776 0.950 1_455 S
C2781 C2783 1.327 . S
C2781 C2787 1.429 . S
C2782 C2774 1.574 . S
C2782 H2777 0.949 . S
C2782 C2788 1.368 . S
C2783 C2767 1.349 . S
C2783 H2775 0.950 1_455 S
C2783 C2781 1.327 . S
C2784 C2772 1.349 . S
C2784 H2778 0.950 . S
C2784 C2785 1.327 . S
C2785 H2779 0.950 . S
C2785 C2784 1.327 . S
C2785 C2789 1.429 . S
C2786 C2769 1.574 . S
C2786 H2780 0.949 . S
C2786 C2790 1.368 1_655 S
C2787 C2768 1.429 . S
C2787 C2781 1.429 . S
C2787 C2788 1.523 . S
C2788 C2769 1.368 1_455 S
C2788 C2782 1.368 . S
C2788 C2787 1.523 . S
C2789 C2773 1.429 1_455 S
C2789 C2785 1.429 . S
C2789 C2790 1.523 . S
C2790 C2774 1.368 . S
C2790 C2786 1.368 1_455 S
C2790 C2789 1.523 . S
H2791 C2766 0.950 . S
H2792 C2768 0.950 . S
H2793 C2769 0.949 . S
H2794 C2771 0.950 . S
H2795 C2773 0.950 . S
C2796 C2797 1.349 . S
C2796 C2798 1.327 . S
C2796 H2821 0.950 . S
C2797 C2796 1.349 . S
C2797 C2813 1.349 . S
C2798 C2796 1.327 . S
C2798 C2817 1.429 . S
C2798 H2822 0.950 . S
C2799 C2816 1.574 . S
C2799 C2818 1.368 . S
C2799 H2823 0.949 . S
H2800 C2804 0.949 . S
C2801 C2802 1.349 . S
C2801 C2803 1.327 . S
C2801 H2824 0.950 . S
C2802 C2801 1.349 . S
C2802 C2814 1.349 . S
C2803 C2801 1.327 . S
C2803 C2819 1.429 . S
C2803 H2825 0.950 . S
C2804 H2800 0.949 . S
C2804 C2812 1.574 . S
C2804 C2820 1.368 . S
H2805 C2813 0.950 . S
H2806 C2811 0.950 . S
H2807 C2812 0.949 . S
H2808 C2814 0.950 . S
H2809 C2815 0.950 . S
H2810 C2816 0.949 . S
C2811 H2806 0.950 . S
C2811 C2813 1.327 . S
C2811 C2817 1.429 . S
C2812 C2804 1.574 . S
C2812 H2807 0.949 . S
C2812 C2818 1.368 . S
C2813 C2797 1.349 . S
C2813 H2805 0.950 . S
C2813 C2811 1.327 . S
C2814 C2802 1.349 . S
C2814 H2808 0.950 . S
C2814 C2815 1.327 . S
C2815 H2809 0.950 . S
C2815 C2814 1.327 . S
C2815 C2819 1.429 . S
C2816 C2799 1.574 . S
C2816 H2810 0.949 . S
C2816 C2820 1.368 . S
C2817 C2798 1.429 . S
C2817 C2811 1.429 . S
C2817 C2818 1.523 . S
C2818 C2799 1.368 . S
C2818 C2812 1.368 . S
C2818 C2817 1.523 . S
C2819 C2803 1.429 . S
C2819 C2815 1.429 . S
C2819 C2820 1.523 . S
C2820 C2804 1.368 . S
C2820 C2816 1.368 . S
C2820 C2819 1.523 . S
H2821 C2796 0.950 . S
H2822 C2798 0.950 . S
H2823 C2799 0.949 . S
H2824 C2801 0.950 . S
H2825 C2803 0.950 . S
C2826 C2827 1.349 . S
C2826 C2828 1.327 . S
C2826 H2851 0.950 . S
C2827 C2826 1.349 . S
C2827 C2843 1.349 . S
C2828 C2826 1.327 . S
C2828 C2847 1.429 . S
C2828 H2852 0.950 . S
C2829 C2846 1.574 . S
C2829 C2848 1.368 . S
C2829 H2853 0.949 . S
H2830 C2834 0.949 . S
C2831 C2832 1.349 . S
C2831 C2833 1.327 . S
C2831 H2854 0.950 . S
C2832 C2831 1.349 . S
C2832 C2844 1.349 . S
C2833 C2831 1.327 . S
C2833 C2849 1.429 . S
C2833 H2855 0.950 . S
C2834 H2830 0.949 . S
C2834 C2842 1.574 . S
C2834 C2850 1.368 . S
H2835 C2843 0.950 . S
H2836 C2841 0.950 . S
H2837 C2842 0.949 . S
H2838 C2844 0.950 . S
H2839 C2845 0.950 . S
H2840 C2846 0.949 . S
C2841 H2836 0.950 . S
C2841 C2843 1.327 . S
C2841 C2847 1.429 . S
C2842 C2834 1.574 . S
C2842 H2837 0.949 . S
C2842 C2848 1.368 . S
C2843 C2827 1.349 . S
C2843 H2835 0.950 . S
C2843 C2841 1.327 . S
C2844 C2832 1.349 . S
C2844 H2838 0.950 . S
C2844 C2845 1.327 . S
C2845 H2839 0.950 . S
C2845 C2844 1.327 . S
C2845 C2849 1.429 . S
C2846 C2829 1.574 . S
C2846 H2840 0.949 . S
C2846 C2850 1.368 . S
C2847 C2828 1.429 . S
C2847 C2841 1.429 . S
C2847 C2848 1.523 . S
C2848 C2829 1.368 . S
C2848 C2842 1.368 . S
C2848 C2847 1.523 . S
C2849 C2833 1.429 . S
C2849 C2845 1.429 . S
C2849 C2850 1.523 . S
C2850 C2834 1.368 . S
C2850 C2846 1.368 . S
C2850 C2849 1.523 . S
H2851 C2826 0.950 . S
H2852 C2828 0.950 . S
H2853 C2829 0.949 . S
H2854 C2831 0.950 . S
H2855 C2833 0.950 . S
C2856 C2857 1.349 . S
C2856 C2858 1.327 . S
C2856 H2881 0.950 . S
C2857 C2856 1.349 . S
C2857 C2873 1.349 . S
C2858 C2856 1.327 . S
C2858 C2877 1.429 . S
C2858 H2882 0.950 . S
C2859 C2876 1.574 . S
C2859 C2878 1.368 . S
C2859 H2883 0.949 . S
H2860 C2864 0.949 . S
C2861 C2862 1.349 . S
C2861 C2863 1.327 . S
C2861 H2884 0.950 . S
C2862 C2861 1.349 . S
C2862 C2874 1.349 . S
C2863 C2861 1.327 . S
C2863 C2879 1.429 . S
C2863 H2885 0.950 . S
C2864 H2860 0.949 . S
C2864 C2872 1.574 . S
C2864 C2880 1.368 . S
H2865 C2873 0.950 . S
H2866 C2871 0.950 . S
H2867 C2872 0.949 . S
H2868 C2874 0.950 . S
H2869 C2875 0.950 . S
H2870 C2876 0.949 . S
C2871 H2866 0.950 . S
C2871 C2873 1.327 . S
C2871 C2877 1.429 . S
C2872 C2864 1.574 . S
C2872 H2867 0.949 . S
C2872 C2878 1.368 . S
C2873 C2857 1.349 . S
C2873 H2865 0.950 . S
C2873 C2871 1.327 . S
C2874 C2862 1.349 . S
C2874 H2868 0.950 . S
C2874 C2875 1.327 . S
C2875 H2869 0.950 . S
C2875 C2874 1.327 . S
C2875 C2879 1.429 . S
C2876 C2859 1.574 . S
C2876 H2870 0.949 . S
C2876 C2880 1.368 . S
C2877 C2858 1.429 . S
C2877 C2871 1.429 . S
C2877 C2878 1.523 . S
C2878 C2859 1.368 . S
C2878 C2872 1.368 . S
C2878 C2877 1.523 . S
C2879 C2863 1.429 . S
C2879 C2875 1.429 . S
C2879 C2880 1.523 . S
C2880 C2864 1.368 . S
C2880 C2876 1.368 . S
C2880 C2879 1.523 . S
H2881 C2856 0.950 . S
H2882 C2858 0.950 . S
H2883 C2859 0.949 . S
H2884 C2861 0.950 . S
H2885 C2863 0.950 . S
C2886 C2887 1.349 . S
C2886 C2888 1.327 . S
C2886 H2911 0.950 . S
C2887 C2886 1.349 . S
C2887 C2903 1.349 . S
C2888 C2886 1.327 . S
C2888 C2907 1.429 . S
C2888 H2912 0.950 . S
C2889 C2906 1.574 . S
C2889 C2908 1.368 . S
C2889 H2913 0.949 . S
H2890 C2894 0.949 . S
C2891 C2892 1.349 . S
C2891 C2893 1.327 . S
C2891 H2914 0.950 . S
C2892 C2891 1.349 . S
C2892 C2904 1.349 . S
C2893 C2891 1.327 . S
C2893 C2909 1.429 . S
C2893 H2915 0.950 . S
C2894 H2890 0.949 . S
C2894 C2902 1.574 . S
C2894 C2910 1.368 . S
H2895 C2903 0.950 . S
H2896 C2901 0.950 . S
H2897 C2902 0.949 . S
H2898 C2904 0.950 . S
H2899 C2905 0.950 . S
H2900 C2906 0.949 . S
C2901 H2896 0.950 . S
C2901 C2903 1.327 . S
C2901 C2907 1.429 . S
C2902 C2894 1.574 . S
C2902 H2897 0.949 . S
C2902 C2908 1.368 . S
C2903 C2887 1.349 . S
C2903 H2895 0.950 . S
C2903 C2901 1.327 . S
C2904 C2892 1.349 . S
C2904 H2898 0.950 . S
C2904 C2905 1.327 . S
C2905 H2899 0.950 . S
C2905 C2904 1.327 . S
C2905 C2909 1.429 . S
C2906 C2889 1.574 . S
C2906 H2900 0.949 . S
C2906 C2910 1.368 . S
C2907 C2888 1.429 . S
C2907 C2901 1.429 . S
C2907 C2908 1.523 . S
C2908 C2889 1.368 . S
C2908 C2902 1.368 . S
C2908 C2907 1.523 . S
C2909 C2893 1.429 . S
C2909 C2905 1.429 . S
C2909 C2910 1.523 . S
C2910 C2894 1.368 . S
C2910 C2906 1.368 . S
C2910 C2909 1.523 . S
H2911 C2886 0.950 . S
H2912 C2888 0.950 . S
H2913 C2889 0.949 . S
H2914 C2891 0.950 . S
H2915 C2893 0.950 . S
C2916 C2917 1.349 . S
C2916 C2918 1.327 . S
C2916 H2941 0.950 . S
C2917 C2916 1.349 . S
C2917 C2933 1.349 . S
C2918 C2916 1.327 . S
C2918 C2937 1.429 . S
C2918 H2942 0.950 . S
C2919 C2936 1.574 . S
C2919 C2938 1.368 . S
C2919 H2943 0.949 . S
H2920 C2924 0.949 . S
C2921 C2922 1.349 . S
C2921 C2923 1.327 . S
C2921 H2944 0.950 . S
C2922 C2921 1.349 . S
C2922 C2934 1.349 . S
C2923 C2921 1.327 . S
C2923 C2939 1.429 . S
C2923 H2945 0.950 . S
C2924 H2920 0.949 . S
C2924 C2932 1.574 . S
C2924 C2940 1.368 . S
H2925 C2933 0.950 . S
H2926 C2931 0.950 . S
H2927 C2932 0.949 . S
H2928 C2934 0.950 . S
H2929 C2935 0.950 . S
H2930 C2936 0.949 . S
C2931 H2926 0.950 . S
C2931 C2933 1.327 . S
C2931 C2937 1.429 . S
C2932 C2924 1.574 . S
C2932 H2927 0.949 . S
C2932 C2938 1.368 . S
C2933 C2917 1.349 . S
C2933 H2925 0.950 . S
C2933 C2931 1.327 . S
C2934 C2922 1.349 . S
C2934 H2928 0.950 . S
C2934 C2935 1.327 . S
C2935 H2929 0.950 . S
C2935 C2934 1.327 . S
C2935 C2939 1.429 . S
C2936 C2919 1.574 . S
C2936 H2930 0.949 . S
C2936 C2940 1.368 . S
C2937 C2918 1.429 . S
C2937 C2931 1.429 . S
C2937 C2938 1.523 . S
C2938 C2919 1.368 . S
C2938 C2932 1.368 . S
C2938 C2937 1.523 . S
C2939 C2923 1.429 . S
C2939 C2935 1.429 . S
C2939 C2940 1.523 . S
C2940 C2924 1.368 . S
C2940 C2936 1.368 . S
C2940 C2939 1.523 . S
H2941 C2916 0.950 . S
H2942 C2918 0.950 . S
H2943 C2919 0.949 . S
H2944 C2921 0.950 . S
H2945 C2923 0.950 . S
C2946 C2947 1.349 . S
C2946 C2948 1.327 . S
C2946 H2971 0.950 . S
C2947 C2946 1.349 . S
C2947 C2963 1.349 . S
C2948 C2946 1.327 . S
C2948 C2967 1.429 . S
C2948 H2972 0.950 . S
C2949 C2966 1.574 . S
C2949 C2968 1.368 . S
C2949 H2973 0.949 . S
H2950 C2954 0.949 1_455 S
C2951 C2952 1.349 . S
C2951 C2953 1.327 . S
C2951 H2974 0.950 . S
C2952 C2951 1.349 . S
C2952 C2964 1.349 1_655 S
C2953 C2951 1.327 . S
C2953 C2969 1.429 . S
C2953 H2975 0.950 . S
C2954 H2950 0.949 1_655 S
C2954 C2962 1.574 . S
C2954 C2970 1.368 . S
H2955 C2963 0.950 . S
H2956 C2961 0.950 . S
H2957 C2962 0.942 1_455 S
H2958 C2964 0.950 . S
H2959 C2965 0.979 . S
H2960 C2966 0.949 . S
C2961 H2956 0.950 . S
C2961 C2963 1.327 . S
C2961 C2967 1.429 . S
C2962 C2954 1.574 . S
C2962 H2957 0.942 1_655 S
C2962 C2968 1.368 . S
C2963 C2947 1.349 . S
C2963 H2955 0.950 . S
C2963 C2961 1.327 . S
C2964 C2952 1.349 1_455 S
C2964 H2958 0.950 . S
C2964 C2965 1.296 . S
C2965 H2959 0.979 . S
C2965 C2964 1.296 . S
C2965 C2969 1.438 1_455 S
C2966 C2949 1.574 . S
C2966 H2960 0.949 . S
C2966 C2970 1.368 . S
C2967 C2948 1.429 . S
C2967 C2961 1.429 . S
C2967 C2968 1.523 . S
C2968 C2949 1.368 . S
C2968 C2962 1.368 . S
C2968 C2967 1.523 . S
C2969 C2953 1.429 . S
C2969 C2965 1.438 1_655 S
C2969 C2970 1.523 . S
C2970 C2954 1.368 . S
C2970 C2966 1.368 . S
C2970 C2969 1.523 . S
H2971 C2946 0.950 . S
H2972 C2948 0.950 . S
H2973 C2949 0.949 . S
H2974 C2951 0.950 . S
H2975 C2953 0.950 . S
C2976 C2977 1.349 . S
C2976 C2978 1.327 . S
C2976 H3001 0.950 . S
C2977 C2976 1.349 . S
C2977 C2993 1.349 . S
C2978 C2976 1.327 . S
C2978 C2997 1.429 . S
C2978 H3002 0.950 . S
C2979 C2996 1.574 . S
C2979 C2998 1.368 . S
C2979 H3003 0.949 . S
H2980 C2984 0.949 . S
C2981 C2982 1.349 . S
C2981 C2983 1.327 . S
C2981 H3004 0.950 . S
C2982 C2981 1.349 . S
C2982 C2994 1.349 . S
C2983 C2981 1.327 . S
C2983 C2999 1.429 . S
C2983 H3005 0.950 . S
C2984 H2980 0.949 . S
C2984 C2992 1.574 . S
C2984 C3000 1.368 . S
H2985 C2993 0.950 . S
H2986 C2991 0.950 . S
H2987 C2992 0.949 . S
H2988 C2994 0.950 . S
H2989 C2995 0.950 . S
H2990 C2996 0.949 . S
C2991 H2986 0.950 . S
C2991 C2993 1.327 . S
C2991 C2997 1.429 . S
C2992 C2984 1.574 . S
C2992 H2987 0.949 . S
C2992 C2998 1.368 . S
C2993 C2977 1.349 . S
C2993 H2985 0.950 . S
C2993 C2991 1.327 . S
C2994 C2982 1.349 . S
C2994 H2988 0.950 . S
C2994 C2995 1.327 . S
C2995 H2989 0.950 . S
C2995 C2994 1.327 . S
C2995 C2999 1.429 . S
C2996 C2979 1.574 . S
C2996 H2990 0.949 . S
C2996 C3000 1.368 . S
C2997 C2978 1.429 . S
C2997 C2991 1.429 . S
C2997 C2998 1.523 . S
C2998 C2979 1.368 . S
C2998 C2992 1.368 . S
C2998 C2997 1.523 . S
C2999 C2983 1.429 . S
C2999 C2995 1.429 . S
C2999 C3000 1.523 . S
C3000 C2984 1.368 . S
C3000 C2996 1.368 . S
C3000 C2999 1.523 . S
H3001 C2976 0.950 . S
H3002 C2978 0.950 . S
H3003 C2979 0.949 . S
H3004 C2981 0.950 . S
H3005 C2983 0.950 . S
C3006 C3007 1.349 . S
C3006 C3008 1.327 . S
C3006 H3031 0.950 . S
C3007 C3006 1.349 . S
C3007 C3023 1.349 . S
C3008 C3006 1.327 . S
C3008 C3027 1.429 . S
C3008 H3032 0.950 . S
C3009 C3026 1.574 . S
C3009 C3028 1.368 . S
C3009 H3033 0.949 . S
H3010 C3014 0.949 . S
C3011 C3012 1.349 . S
C3011 C3013 1.327 . S
C3011 H3034 0.950 . S
C3012 C3011 1.349 . S
C3012 C3024 1.349 . S
C3013 C3011 1.327 . S
C3013 C3029 1.429 . S
C3013 H3035 0.950 . S
C3014 H3010 0.949 . S
C3014 C3022 1.574 . S
C3014 C3030 1.368 . S
H3015 C3023 0.950 . S
H3016 C3021 0.950 . S
H3017 C3022 0.949 . S
H3018 C3024 0.950 . S
H3019 C3025 0.950 . S
H3020 C3026 0.949 . S
C3021 H3016 0.950 . S
C3021 C3023 1.327 . S
C3021 C3027 1.429 . S
C3022 C3014 1.574 . S
C3022 H3017 0.949 . S
C3022 C3028 1.368 . S
C3023 C3007 1.349 . S
C3023 H3015 0.950 . S
C3023 C3021 1.327 . S
C3024 C3012 1.349 . S
C3024 H3018 0.950 . S
C3024 C3025 1.327 . S
C3025 H3019 0.950 . S
C3025 C3024 1.327 . S
C3025 C3029 1.429 . S
C3026 C3009 1.574 . S
C3026 H3020 0.949 . S
C3026 C3030 1.368 . S
C3027 C3008 1.429 . S
C3027 C3021 1.429 . S
C3027 C3028 1.523 . S
C3028 C3009 1.368 . S
C3028 C3022 1.368 . S
C3028 C3027 1.523 . S
C3029 C3013 1.429 . S
C3029 C3025 1.429 . S
C3029 C3030 1.523 . S
C3030 C3014 1.368 . S
C3030 C3026 1.368 . S
C3030 C3029 1.523 . S
H3031 C3006 0.950 . S
H3032 C3008 0.950 . S
H3033 C3009 0.949 . S
H3034 C3011 0.950 . S
H3035 C3013 0.950 . S
C3036 C3037 1.349 . S
C3036 C3038 1.327 . S
C3036 H3061 0.950 . S
C3037 C3036 1.349 . S
C3037 C3053 1.349 . S
C3038 C3036 1.327 . S
C3038 C3057 1.429 . S
C3038 H3062 0.950 . S
C3039 C3056 1.574 . S
C3039 C3058 1.368 . S
C3039 H3063 0.949 . S
H3040 C3044 0.949 . S
C3041 C3042 1.349 . S
C3041 C3043 1.327 . S
C3041 H3064 0.950 . S
C3042 C3041 1.349 . S
C3042 C3054 1.349 . S
C3043 C3041 1.327 . S
C3043 C3059 1.429 . S
C3043 H3065 0.950 . S
C3044 H3040 0.949 . S
C3044 C3052 1.574 . S
C3044 C3060 1.368 . S
H3045 C3053 0.950 . S
H3046 C3051 0.950 . S
H3047 C3052 0.949 . S
H3048 C3054 0.950 . S
H3049 C3055 0.950 . S
H3050 C3056 0.949 . S
C3051 H3046 0.950 . S
C3051 C3053 1.327 . S
C3051 C3057 1.429 . S
C3052 C3044 1.574 . S
C3052 H3047 0.949 . S
C3052 C3058 1.368 . S
C3053 C3037 1.349 . S
C3053 H3045 0.950 . S
C3053 C3051 1.327 . S
C3054 C3042 1.349 . S
C3054 H3048 0.950 . S
C3054 C3055 1.327 . S
C3055 H3049 0.950 . S
C3055 C3054 1.327 . S
C3055 C3059 1.429 . S
C3056 C3039 1.574 . S
C3056 H3050 0.949 . S
C3056 C3060 1.368 . S
C3057 C3038 1.429 . S
C3057 C3051 1.429 . S
C3057 C3058 1.523 . S
C3058 C3039 1.368 . S
C3058 C3052 1.368 . S
C3058 C3057 1.523 . S
C3059 C3043 1.429 . S
C3059 C3055 1.429 . S
C3059 C3060 1.523 . S
C3060 C3044 1.368 . S
C3060 C3056 1.368 . S
C3060 C3059 1.523 . S
H3061 C3036 0.950 . S
H3062 C3038 0.950 . S
H3063 C3039 0.949 . S
H3064 C3041 0.950 . S
H3065 C3043 0.950 . S
C3066 C3067 1.349 . S
C3066 C3068 1.327 . S
C3066 H3091 0.950 . S
C3067 C3066 1.349 . S
C3067 C3083 1.349 . S
C3068 C3066 1.327 . S
C3068 C3087 1.429 . S
C3068 H3092 0.950 . S
C3069 C3086 1.574 . S
C3069 C3088 1.368 . S
C3069 H3093 0.949 . S
H3070 C3074 0.949 . S
C3071 C3072 1.349 . S
C3071 C3073 1.327 . S
C3071 H3094 0.950 . S
C3072 C3071 1.349 . S
C3072 C3084 1.349 . S
C3073 C3071 1.327 . S
C3073 C3089 1.429 . S
C3073 H3095 0.950 . S
C3074 H3070 0.949 . S
C3074 C3082 1.574 . S
C3074 C3090 1.368 . S
H3075 C3083 0.950 . S
H3076 C3081 0.950 . S
H3077 C3082 0.949 . S
H3078 C3084 0.950 . S
H3079 C3085 0.950 . S
H3080 C3086 0.949 . S
C3081 H3076 0.950 . S
C3081 C3083 1.327 . S
C3081 C3087 1.429 . S
C3082 C3074 1.574 . S
C3082 H3077 0.949 . S
C3082 C3088 1.368 . S
C3083 C3067 1.349 . S
C3083 H3075 0.950 . S
C3083 C3081 1.327 . S
C3084 C3072 1.349 . S
C3084 H3078 0.950 . S
C3084 C3085 1.327 . S
C3085 H3079 0.950 . S
C3085 C3084 1.327 . S
C3085 C3089 1.429 . S
C3086 C3069 1.574 . S
C3086 H3080 0.949 . S
C3086 C3090 1.368 . S
C3087 C3068 1.429 . S
C3087 C3081 1.429 . S
C3087 C3088 1.523 . S
C3088 C3069 1.368 . S
C3088 C3082 1.368 . S
C3088 C3087 1.523 . S
C3089 C3073 1.429 . S
C3089 C3085 1.429 . S
C3089 C3090 1.523 . S
C3090 C3074 1.368 . S
C3090 C3086 1.368 . S
C3090 C3089 1.523 . S
H3091 C3066 0.950 . S
H3092 C3068 0.950 . S
H3093 C3069 0.949 . S
H3094 C3071 0.950 . S
H3095 C3073 0.950 . S
C3096 C3097 1.349 . S
C3096 C3098 1.327 . S
C3096 H3121 0.950 . S
C3097 C3096 1.349 . S
C3097 C3113 1.349 . S
C3098 C3096 1.327 . S
C3098 C3117 1.429 . S
C3098 H3122 0.950 . S
C3099 C3116 1.574 . S
C3099 C3118 1.368 . S
C3099 H3123 0.949 . S
H3100 C3104 0.949 . S
C3101 C3102 1.349 . S
C3101 C3103 1.327 . S
C3101 H3124 0.950 . S
C3102 C3101 1.349 . S
C3102 C3114 1.349 . S
C3103 C3101 1.327 . S
C3103 C3119 1.429 . S
C3103 H3125 0.950 . S
C3104 H3100 0.949 . S
C3104 C3112 1.574 . S
C3104 C3120 1.368 . S
H3105 C3113 0.950 . S
H3106 C3111 0.950 . S
H3107 C3112 0.949 . S
H3108 C3114 0.950 . S
H3109 C3115 0.950 . S
H3110 C3116 0.949 . S
C3111 H3106 0.950 . S
C3111 C3113 1.327 . S
C3111 C3117 1.429 . S
C3112 C3104 1.574 . S
C3112 H3107 0.949 . S
C3112 C3118 1.368 . S
C3113 C3097 1.349 . S
C3113 H3105 0.950 . S
C3113 C3111 1.327 . S
C3114 C3102 1.349 . S
C3114 H3108 0.950 . S
C3114 C3115 1.327 . S
C3115 H3109 0.950 . S
C3115 C3114 1.327 . S
C3115 C3119 1.429 . S
C3116 C3099 1.574 . S
C3116 H3110 0.949 . S
C3116 C3120 1.368 . S
C3117 C3098 1.429 . S
C3117 C3111 1.429 . S
C3117 C3118 1.523 . S
C3118 C3099 1.368 . S
C3118 C3112 1.368 . S
C3118 C3117 1.523 . S
C3119 C3103 1.429 . S
C3119 C3115 1.429 . S
C3119 C3120 1.523 . S
C3120 C3104 1.368 . S
C3120 C3116 1.368 . S
C3120 C3119 1.523 . S
H3121 C3096 0.950 . S
H3122 C3098 0.950 . S
H3123 C3099 0.949 . S
H3124 C3101 0.950 . S
H3125 C3103 0.950 . S
C3126 C3127 1.349 . S
C3126 C3128 1.327 . S
C3126 H3151 0.950 . S
C3127 C3126 1.349 . S
C3127 C3143 1.349 . S
C3128 C3126 1.327 . S
C3128 C3147 1.429 . S
C3128 H3152 0.950 . S
C3129 C3146 1.574 . S
C3129 C3148 1.368 . S
C3129 H3153 0.949 . S
H3130 C3134 0.949 . S
C3131 C3132 1.349 . S
C3131 C3133 1.327 . S
C3131 H3154 0.950 . S
C3132 C3131 1.349 . S
C3132 C3144 1.349 . S
C3133 C3131 1.327 . S
C3133 C3149 1.429 . S
C3133 H3155 0.950 . S
C3134 H3130 0.949 . S
C3134 C3142 1.574 . S
C3134 C3150 1.368 . S
H3135 C3143 0.950 . S
H3136 C3141 0.950 . S
H3137 C3142 0.949 . S
H3138 C3144 0.950 . S
H3139 C3145 0.950 . S
H3140 C3146 0.949 . S
C3141 H3136 0.950 . S
C3141 C3143 1.327 . S
C3141 C3147 1.429 . S
C3142 C3134 1.574 . S
C3142 H3137 0.949 . S
C3142 C3148 1.368 . S
C3143 C3127 1.349 . S
C3143 H3135 0.950 . S
C3143 C3141 1.327 . S
C3144 C3132 1.349 . S
C3144 H3138 0.950 . S
C3144 C3145 1.327 . S
C3145 H3139 0.950 . S
C3145 C3144 1.327 . S
C3145 C3149 1.429 . S
C3146 C3129 1.574 . S
C3146 H3140 0.949 . S
C3146 C3150 1.368 . S
C3147 C3128 1.429 . S
C3147 C3141 1.429 . S
C3147 C3148 1.523 . S
C3148 C3129 1.368 . S
C3148 C3142 1.368 . S
C3148 C3147 1.523 . S
C3149 C3133 1.429 . S
C3149 C3145 1.429 . S
C3149 C3150 1.523 . S
C3150 C3134 1.368 . S
C3150 C3146 1.368 . S
C3150 C3149 1.523 . S
H3151 C3126 0.950 . S
H3152 C3128 0.950 . S
H3153 C3129 0.949 . S
H3154 C3131 0.950 . S
H3155 C3133 0.950 . S
C3156 C3157 1.349 . S
C3156 C3158 1.327 . S
C3156 H3181 0.950 . S
C3157 C3156 1.349 . S
C3157 C3173 1.349 . S
C3158 C3156 1.327 . S
C3158 C3177 1.429 . S
C3158 H3182 0.950 . S
C3159 C3176 1.574 . S
C3159 C3178 1.368 . S
C3159 H3183 0.949 . S
H3160 C3164 0.949 . S
C3161 C3162 1.349 . S
C3161 C3163 1.327 . S
C3161 H3184 0.950 . S
C3162 C3161 1.349 . S
C3162 C3174 1.349 . S
C3163 C3161 1.327 . S
C3163 C3179 1.429 . S
C3163 H3185 0.950 . S
C3164 H3160 0.949 . S
C3164 C3172 1.574 . S
C3164 C3180 1.368 . S
H3165 C3173 0.950 . S
H3166 C3171 0.950 . S
H3167 C3172 0.949 . S
H3168 C3174 0.950 . S
H3169 C3175 0.950 . S
H3170 C3176 0.949 . S
C3171 H3166 0.950 . S
C3171 C3173 1.327 . S
C3171 C3177 1.429 . S
C3172 C3164 1.574 . S
C3172 H3167 0.949 . S
C3172 C3178 1.368 . S
C3173 C3157 1.349 . S
C3173 H3165 0.950 . S
C3173 C3171 1.327 . S
C3174 C3162 1.349 . S
C3174 H3168 0.950 . S
C3174 C3175 1.327 . S
C3175 H3169 0.950 . S
C3175 C3174 1.327 . S
C3175 C3179 1.429 . S
C3176 C3159 1.574 . S
C3176 H3170 0.949 . S
C3176 C3180 1.368 . S
C3177 C3158 1.429 . S
C3177 C3171 1.429 . S
C3177 C3178 1.523 . S
C3178 C3159 1.368 . S
C3178 C3172 1.368 . S
C3178 C3177 1.523 . S
C3179 C3163 1.429 . S
C3179 C3175 1.429 . S
C3179 C3180 1.523 . S
C3180 C3164 1.368 . S
C3180 C3176 1.368 . S
C3180 C3179 1.523 . S
H3181 C3156 0.950 . S
H3182 C3158 0.950 . S
H3183 C3159 0.949 . S
H3184 C3161 0.950 . S
H3185 C3163 0.950 . S
C3186 C3187 1.349 . S
C3186 C3188 1.327 . S
C3186 H3211 0.950 . S
C3187 C3186 1.349 . S
C3187 C3203 1.349 . S
C3188 C3186 1.327 . S
C3188 C3207 1.429 . S
C3188 H3212 0.981 . S
C3189 C3206 1.574 . S
C3189 C3208 1.368 . S
C3189 H3213 0.949 . S
H3190 C3194 0.949 1_455 S
C3191 C3192 1.349 . S
C3191 C3193 1.327 . S
C3191 H3214 0.950 . S
C3192 C3191 1.349 . S
C3192 C3204 1.349 1_655 S
C3193 C3191 1.327 . S
C3193 C3209 1.429 . S
C3193 H3215 0.950 . S
C3194 H3190 0.949 1_655 S
C3194 C3202 1.574 . S
C3194 C3210 1.368 . S
H3195 C3203 0.950 . S
H3196 C3201 0.950 . S
H3197 C3202 0.949 1_455 S
H3198 C3204 0.950 . S
H3199 C3205 0.950 . S
H3200 C3206 0.949 . S
C3201 H3196 0.950 . S
C3201 C3203 1.327 . S
C3201 C3207 1.429 . S
C3202 C3194 1.574 . S
C3202 H3197 0.949 1_655 S
C3202 C3208 1.368 . S
C3203 C3187 1.349 . S
C3203 H3195 0.950 . S
C3203 C3201 1.327 . S
C3204 C3192 1.349 1_455 S
C3204 H3198 0.950 . S
C3204 C3205 1.327 . S
C3205 H3199 0.950 . S
C3205 C3204 1.327 . S
C3205 C3209 1.429 1_455 S
C3206 C3189 1.574 . S
C3206 H3200 0.949 . S
C3206 C3210 1.368 . S
C3207 C3188 1.429 . S
C3207 C3201 1.429 . S
C3207 C3208 1.523 . S
C3208 C3189 1.368 . S
C3208 C3202 1.368 . S
C3208 C3207 1.523 . S
C3209 C3193 1.429 . S
C3209 C3205 1.429 1_655 S
C3209 C3210 1.523 . S
C3210 C3194 1.368 . S
C3210 C3206 1.368 . S
C3210 C3209 1.523 . S
H3211 C3186 0.950 . S
H3212 C3188 0.981 . S
H3213 C3189 0.949 . S
H3214 C3191 0.950 . S
H3215 C3193 0.950 . S
C3216 C3217 1.349 . S
C3216 C3218 1.327 . S
C3216 H3241 0.950 . S
C3217 C3216 1.349 . S
C3217 C3233 1.349 . S
C3218 C3216 1.327 . S
C3218 C3237 1.429 . S
C3218 H3242 0.950 . S
C3219 C3236 1.574 . S
C3219 C3238 1.368 . S
C3219 H3243 0.949 . S
H3220 C3224 0.949 . S
C3221 C3222 1.349 . S
C3221 C3223 1.327 . S
C3221 H3244 0.950 . S
C3222 C3221 1.349 . S
C3222 C3234 1.349 . S
C3223 C3221 1.327 . S
C3223 C3239 1.429 . S
C3223 H3245 0.950 . S
C3224 H3220 0.949 . S
C3224 C3232 1.574 . S
C3224 C3240 1.368 . S
H3225 C3233 0.950 . S
H3226 C3231 0.950 . S
H3227 C3232 0.949 . S
H3228 C3234 0.950 . S
H3229 C3235 0.950 . S
H3230 C3236 0.949 . S
C3231 H3226 0.950 . S
C3231 C3233 1.327 . S
C3231 C3237 1.429 . S
C3232 C3224 1.574 . S
C3232 H3227 0.949 . S
C3232 C3238 1.368 . S
C3233 C3217 1.349 . S
C3233 H3225 0.950 . S
C3233 C3231 1.327 . S
C3234 C3222 1.349 . S
C3234 H3228 0.950 . S
C3234 C3235 1.327 . S
C3235 H3229 0.950 . S
C3235 C3234 1.327 . S
C3235 C3239 1.429 . S
C3236 C3219 1.574 . S
C3236 H3230 0.949 . S
C3236 C3240 1.368 . S
C3237 C3218 1.429 . S
C3237 C3231 1.429 . S
C3237 C3238 1.523 . S
C3238 C3219 1.368 . S
C3238 C3232 1.368 . S
C3238 C3237 1.523 . S
C3239 C3223 1.429 . S
C3239 C3235 1.429 . S
C3239 C3240 1.523 . S
C3240 C3224 1.368 . S
C3240 C3236 1.368 . S
C3240 C3239 1.523 . S
H3241 C3216 0.950 . S
H3242 C3218 0.950 . S
H3243 C3219 0.949 . S
H3244 C3221 0.950 . S
H3245 C3223 0.950 . S
C3246 C3247 1.349 . S
C3246 C3248 1.327 . S
C3246 H3271 0.950 . S
C3247 C3246 1.349 . S
C3247 C3263 1.349 . S
C3248 C3246 1.327 . S
C3248 C3267 1.429 . S
C3248 H3272 0.950 . S
C3249 C3266 1.574 . S
C3249 C3268 1.368 1_565 S
C3249 H3273 0.949 . S
H3250 C3254 0.949 . S
C3251 C3252 1.349 1_565 S
C3251 C3253 1.327 . S
C3251 H3274 0.950 . S
C3252 C3251 1.349 1_545 S
C3252 C3264 1.349 . S
C3253 C3251 1.327 . S
C3253 C3269 1.429 1_565 S
C3253 H3275 0.950 . S
C3254 H3250 0.949 . S
C3254 C3262 1.574 . S
C3254 C3270 1.368 . S
H3255 C3263 0.950 1_565 S
H3256 C3261 0.942 1_565 S
H3257 C3262 0.949 . S
H3258 C3264 0.950 . S
H3259 C3265 0.950 . S
H3260 C3266 0.949 . S
C3261 H3256 0.942 1_545 S
C3261 C3263 1.323 . S
C3261 C3267 1.440 . S
C3262 C3254 1.574 . S
C3262 H3257 0.949 . S
C3262 C3268 1.368 . S
C3263 C3247 1.349 . S
C3263 H3255 0.950 1_545 S
C3263 C3261 1.323 . S
C3264 C3252 1.349 . S
C3264 H3258 0.950 . S
C3264 C3265 1.327 . S
C3265 H3259 0.950 . S
C3265 C3264 1.327 . S
C3265 C3269 1.429 . S
C3266 C3249 1.574 . S
C3266 H3260 0.949 . S
C3266 C3270 1.368 1_565 S
C3267 C3248 1.429 . S
C3267 C3261 1.440 . S
C3267 C3268 1.523 . S
C3268 C3249 1.368 1_545 S
C3268 C3262 1.368 . S
C3268 C3267 1.523 . S
C3269 C3253 1.429 1_545 S
C3269 C3265 1.429 . S
C3269 C3270 1.523 . S
C3270 C3254 1.368 . S
C3270 C3266 1.368 1_545 S
C3270 C3269 1.523 . S
H3271 C3246 0.950 . S
H3272 C3248 0.950 . S
H3273 C3249 0.949 . S
H3274 C3251 0.950 . S
H3275 C3253 0.950 . S
C1117 C13 1.421 . S
C1122 C729 1.489 . S
C1147 C27 1.327 . S
C1152 C777 1.407 . S
C1182 C825 1.460 . S
C1177 C36 1.371 . S
C1207 C41 1.405 . S
C1212 C849 1.459 . S
C1237 C8 1.484 . S
C1242 C921 1.585 . S
C1267 C22 1.426 . S
C1272 C969 1.505 . S
C1297 C55 1.418 . S
C1302 C897 1.487 . S
C1332 C945 1.410 . S
C1327 C69 1.328 . S
C1362 C873 1.480 . S
C1357 C78 1.396 . S
C1387 C83 1.392 . S
C1392 C801 1.463 . S
C1422 C705 1.610 . S
C1417 C50 1.506 . S
C1447 C64 1.424 . S
C1452 C753 1.507 . S
C1477 C97 1.549 . S
C1482 C1017 1.653 . S
C1507 C111 1.384 . S
C1512 C1065 1.472 . S
C1542 C1089 1.578 . S
C1537 C120 1.518 . S
C1567 C125 1.463 . S
C1572 C273 1.549 . S
C1597 C92 1.667 . S
C1602 C345 1.741 . S
C1627 C106 1.484 . S
C1632 C393 1.554 . S
C1657 C139 1.489 . S
C1662 C321 1.584 . S
C1687 C153 1.377 . S
C1692 C369 1.455 . S
C1722 C297 1.567 . S
C1717 C162 1.519 . S
C1752 C1113 1.599 . S
C1747 C167 1.520 . S
C1782 C993 1.731 . S
C1777 C134 1.661 . S
C1812 C1041 1.579 . S
C1807 C148 1.509 . S
C1837 C181 1.494 . S
C1842 C441 1.589 . S
C1867 C195 1.365 . S
C1872 C489 1.439 . S
C1897 C204 1.521 . S
C1902 C513 1.587 . S
C1927 C209 1.518 . S
C1932 C561 1.614 . S
C1962 C633 1.744 . S
C1957 C176 1.674 . S
C1992 C681 1.575 . S
C1987 C190 1.509 . S
C2022 C609 1.667 . S
C2017 C223 1.562 . S
C2052 C657 1.488 . S
C2047 C237 1.397 . S
C2077 C246 1.505 . S
C2082 C585 1.545 . S
C2112 C537 1.518 . S
C2107 C251 1.449 . S
C2137 C218 1.667 . S
C2142 C417 1.742 . S
C2172 C465 1.567 . S
C2167 C232 1.492 . S
C2202 C282 1.432 . S
C2197 C11 1.410 . S
C2227 C25 1.266 . S
C2232 C336 1.260 . S
C2262 C384 1.394 . S
C2257 C35 1.413 . S
C2292 C432 1.410 . S
C2287 C39 1.411 1_556 S
C2322 C480 1.502 . S
C2317 C7 1.524 1_556 S
C2352 C522 1.359 . S
C2347 C21 1.361 1_556 S
C2377 C53 1.428 1_556 S
C2382 C528 1.447 . S
C2407 C67 1.249 1_556 S
C2412 C426 1.246 . S
C2437 C77 1.357 1_556 S
C2442 C474 1.348 . S
C2467 C81 1.437 . S
C2472 C330 1.433 . S
C2502 C378 1.484 . S
C2497 C49 1.514 . S
C2527 C63 1.364 . S
C2532 C288 1.353 . S
C2562 C570 1.394 . S
C2557 C95 1.380 . S
C2587 C109 1.367 . S
C2592 C624 1.356 . S
C2617 C119 1.487 . S
C2622 C672 1.469 . S
C2652 C720 1.220 . S
C2647 C123 1.218 . S
C2677 C91 1.478 . S
C2682 C768 1.461 . S
C2707 C105 1.212 . S
C2712 C816 1.216 . S
C2737 C137 1.257 . S
C2742 C810 1.249 . S
C2767 C151 1.102 . S
C2772 C714 1.104 . S
C2802 C762 1.353 . S
C2797 C161 1.373 . S
C2827 C165 1.406 . S
C2832 C618 1.389 . S
C2857 C133 1.565 . S
C2862 C666 1.536 . S
C2892 C576 1.462 . S
C2887 C147 1.473 . S
C2922 C858 1.277 . S
C2917 C179 1.268 . S
C2947 C193 1.094 . S
C2952 C912 1.097 . S
C2977 C203 1.370 . S
C2982 C960 1.357 . S
C3012 C1008 1.380 . S
C3007 C207 1.388 . S
C3042 C1056 1.548 . S
C3037 C175 1.639 . S
C3067 C189 1.475 . S
C3072 C1098 1.474 . S
C3097 C221 1.397 . S
C3102 C1104 1.401 . S
C3127 C235 1.362 . S
C3132 C1002 1.342 . S
C3162 C1050 1.439 . S
C3157 C245 1.464 . S
C3192 C906 1.196 . S
C3187 C249 1.195 . S
C3222 C954 1.462 . S
C3217 C217 1.486 . S
C3247 C231 1.232 . S
C3252 C864 1.205 . S
