# Generated by pormake.
# Topology eea, (3,6)-cn, num edge types: 1
# Building blocks:
#     Node 0, Type 0, BuildingBlock: PAMTOO_clean_linker_0, # of connection points: 3
#     Node 1, Type 0, BuildingBlock: PAMTOO_clean_linker_0, # of connection points: 3
#     Node 2, Type 0, BuildingBlock: PAMTOO_clean_linker_0, # of connection points: 3
#     Node 3, Type 0, BuildingBlock: PAMTOO_clean_linker_0, # of connection points: 3
#     Node 4, Type 0, BuildingBlock: PAMTOO_clean_linker_0, # of connection points: 3
#     Node 5, Type 0, BuildingBlock: PAMTOO_clean_linker_0, # of connection points: 3
#     Node 6, Type 0, BuildingBlock: PAMTOO_clean_linker_0, # of connection points: 3
#     Node 7, Type 0, BuildingBlock: PAMTOO_clean_linker_0, # of connection points: 3
#     Node 8, Type 0, BuildingBlock: PAMTOO_clean_linker_0, # of connection points: 3
#     Node 9, Type 0, BuildingBlock: PAMTOO_clean_linker_0, # of connection points: 3
#     Node 10, Type 0, BuildingBlock: PAMTOO_clean_linker_0, # of connection points: 3
#     Node 11, Type 0, BuildingBlock: PAMTOO_clean_linker_0, # of connection points: 3
#     Node 12, Type 0, BuildingBlock: PAMTOO_clean_linker_0, # of connection points: 3
#     Node 13, Type 0, BuildingBlock: PAMTOO_clean_linker_0, # of connection points: 3
#     Node 14, Type 0, BuildingBlock: PAMTOO_clean_linker_0, # of connection points: 3
#     Node 15, Type 0, BuildingBlock: PAMTOO_clean_linker_0, # of connection points: 3
#     Node 16, Type 0, BuildingBlock: PAMTOO_clean_linker_0, # of connection points: 3
#     Node 17, Type 0, BuildingBlock: PAMTOO_clean_linker_0, # of connection points: 3
#     Node 18, Type 1, BuildingBlock: CUWYAW_clean_sbu_0, # of connection points: 6
#     Node 19, Type 1, BuildingBlock: CUWYAW_clean_sbu_0, # of connection points: 6
#     Node 20, Type 1, BuildingBlock: CUWYAW_clean_sbu_0, # of connection points: 6
#     Node 21, Type 1, BuildingBlock: CUWYAW_clean_sbu_0, # of connection points: 6
#     Node 22, Type 1, BuildingBlock: CUWYAW_clean_sbu_0, # of connection points: 6
#     Node 23, Type 1, BuildingBlock: CUWYAW_clean_sbu_0, # of connection points: 6
#     Node 24, Type 1, BuildingBlock: CUWYAW_clean_sbu_0, # of connection points: 6
#     Node 25, Type 1, BuildingBlock: CUWYAW_clean_sbu_0, # of connection points: 6
#     Node 26, Type 1, BuildingBlock: CUWYAW_clean_sbu_0, # of connection points: 6
#     Edge 27, Type (0, 1), BuildingBlock: MIFKUJ_clean_linker_0, # of connection points: 2
#     Edge 28, Type (0, 1), BuildingBlock: MIFKUJ_clean_linker_0, # of connection points: 2
#     Edge 29, Type (0, 1), BuildingBlock: MIFKUJ_clean_linker_0, # of connection points: 2
#     Edge 30, Type (0, 1), BuildingBlock: MIFKUJ_clean_linker_0, # of connection points: 2
#     Edge 31, Type (0, 1), BuildingBlock: MIFKUJ_clean_linker_0, # of connection points: 2
#     Edge 32, Type (0, 1), BuildingBlock: MIFKUJ_clean_linker_0, # of connection points: 2
#     Edge 33, Type (0, 1), BuildingBlock: MIFKUJ_clean_linker_0, # of connection points: 2
#     Edge 34, Type (0, 1), BuildingBlock: MIFKUJ_clean_linker_0, # of connection points: 2
#     Edge 35, Type (0, 1), BuildingBlock: MIFKUJ_clean_linker_0, # of connection points: 2
#     Edge 36, Type (0, 1), BuildingBlock: MIFKUJ_clean_linker_0, # of connection points: 2
#     Edge 37, Type (0, 1), BuildingBlock: MIFKUJ_clean_linker_0, # of connection points: 2
#     Edge 38, Type (0, 1), BuildingBlock: MIFKUJ_clean_linker_0, # of connection points: 2
#     Edge 39, Type (0, 1), BuildingBlock: MIFKUJ_clean_linker_0, # of connection points: 2
#     Edge 40, Type (0, 1), BuildingBlock: MIFKUJ_clean_linker_0, # of connection points: 2
#     Edge 41, Type (0, 1), BuildingBlock: MIFKUJ_clean_linker_0, # of connection points: 2
#     Edge 42, Type (0, 1), BuildingBlock: MIFKUJ_clean_linker_0, # of connection points: 2
#     Edge 43, Type (0, 1), BuildingBlock: MIFKUJ_clean_linker_0, # of connection points: 2
#     Edge 44, Type (0, 1), BuildingBlock: MIFKUJ_clean_linker_0, # of connection points: 2
#     Edge 45, Type (0, 1), BuildingBlock: MIFKUJ_clean_linker_0, # of connection points: 2
#     Edge 46, Type (0, 1), BuildingBlock: MIFKUJ_clean_linker_0, # of connection points: 2
#     Edge 47, Type (0, 1), BuildingBlock: MIFKUJ_clean_linker_0, # of connection points: 2
#     Edge 48, Type (0, 1), BuildingBlock: MIFKUJ_clean_linker_0, # of connection points: 2
#     Edge 49, Type (0, 1), BuildingBlock: MIFKUJ_clean_linker_0, # of connection points: 2
#     Edge 50, Type (0, 1), BuildingBlock: MIFKUJ_clean_linker_0, # of connection points: 2
#     Edge 51, Type (0, 1), BuildingBlock: MIFKUJ_clean_linker_0, # of connection points: 2
#     Edge 52, Type (0, 1), BuildingBlock: MIFKUJ_clean_linker_0, # of connection points: 2
#     Edge 53, Type (0, 1), BuildingBlock: MIFKUJ_clean_linker_0, # of connection points: 2
#     Edge 54, Type (0, 1), BuildingBlock: MIFKUJ_clean_linker_0, # of connection points: 2
#     Edge 55, Type (0, 1), BuildingBlock: MIFKUJ_clean_linker_0, # of connection points: 2
#     Edge 56, Type (0, 1), BuildingBlock: MIFKUJ_clean_linker_0, # of connection points: 2
#     Edge 57, Type (0, 1), BuildingBlock: MIFKUJ_clean_linker_0, # of connection points: 2
#     Edge 58, Type (0, 1), BuildingBlock: MIFKUJ_clean_linker_0, # of connection points: 2
#     Edge 59, Type (0, 1), BuildingBlock: MIFKUJ_clean_linker_0, # of connection points: 2
#     Edge 60, Type (0, 1), BuildingBlock: MIFKUJ_clean_linker_0, # of connection points: 2
#     Edge 61, Type (0, 1), BuildingBlock: MIFKUJ_clean_linker_0, # of connection points: 2
#     Edge 62, Type (0, 1), BuildingBlock: MIFKUJ_clean_linker_0, # of connection points: 2
#     Edge 63, Type (0, 1), BuildingBlock: MIFKUJ_clean_linker_0, # of connection points: 2
#     Edge 64, Type (0, 1), BuildingBlock: MIFKUJ_clean_linker_0, # of connection points: 2
#     Edge 65, Type (0, 1), BuildingBlock: MIFKUJ_clean_linker_0, # of connection points: 2
#     Edge 66, Type (0, 1), BuildingBlock: MIFKUJ_clean_linker_0, # of connection points: 2
#     Edge 67, Type (0, 1), BuildingBlock: MIFKUJ_clean_linker_0, # of connection points: 2
#     Edge 68, Type (0, 1), BuildingBlock: MIFKUJ_clean_linker_0, # of connection points: 2
#     Edge 69, Type (0, 1), BuildingBlock: MIFKUJ_clean_linker_0, # of connection points: 2
#     Edge 70, Type (0, 1), BuildingBlock: MIFKUJ_clean_linker_0, # of connection points: 2
#     Edge 71, Type (0, 1), BuildingBlock: MIFKUJ_clean_linker_0, # of connection points: 2
#     Edge 72, Type (0, 1), BuildingBlock: MIFKUJ_clean_linker_0, # of connection points: 2
#     Edge 73, Type (0, 1), BuildingBlock: MIFKUJ_clean_linker_0, # of connection points: 2
#     Edge 74, Type (0, 1), BuildingBlock: MIFKUJ_clean_linker_0, # of connection points: 2
#     Edge 75, Type (0, 1), BuildingBlock: MIFKUJ_clean_linker_0, # of connection points: 2
#     Edge 76, Type (0, 1), BuildingBlock: MIFKUJ_clean_linker_0, # of connection points: 2
#     Edge 77, Type (0, 1), BuildingBlock: MIFKUJ_clean_linker_0, # of connection points: 2
#     Edge 78, Type (0, 1), BuildingBlock: MIFKUJ_clean_linker_0, # of connection points: 2
#     Edge 79, Type (0, 1), BuildingBlock: MIFKUJ_clean_linker_0, # of connection points: 2
#     Edge 80, Type (0, 1), BuildingBlock: MIFKUJ_clean_linker_0, # of connection points: 2
# Relax obj value: 0.055
# Max RMSD: 0.195
# Mean RMSD: 0.136
data_MOF--net-eea--node1-CUWYAW_clean_sbu_0--node2-PAMTOO_clean_linker_0--edge1-MIFKUJ_clean_linker_0
_symmetry_space_group_name_H-M    P1
_symmetry_Int_Tables_number       1
_symmetry_cell_setting            triclinic
loop_
_symmetry_equiv_pos_as_xyz
'x, y, z'
_cell_length_a     71.416808
_cell_length_b     71.17863
_cell_length_c     85.856868
_cell_angle_alpha  93.316079
_cell_angle_beta   93.459736
_cell_angle_gamma 119.82532
loop_
_atom_site_label
_atom_site_type_symbol
_atom_site_fract_x
_atom_site_fract_y
_atom_site_fract_z
_atom_type_partial_charge
H0 H 0.22891 0.0822 0.42973 0.0
H1 H 0.22802 0.14215 0.42824 0.0
H2 H 0.21005 0.09867 0.38632 0.0
H3 H 0.23358 0.14469 0.37985 0.0
C4 C 0.23128 0.15206 0.39082 0.0
O5 O 0.21532 0.13592 0.39833 0.0
H6 H 0.24695 0.16019 0.39846 0.0
C7 C 0.2261 0.09332 0.42322 0.0
C8 C 0.21913 0.08798 0.4071 0.0
C9 C 0.22932 0.11276 0.43105 0.0
C10 C 0.22579 0.12714 0.42246 0.0
C11 C 0.21891 0.12205 0.40639 0.0
C12 C 0.21539 0.10243 0.39876 0.0
H13 H 0.9385 0.16081 0.43647 0.0
H14 H 0.88041 0.09786 0.4283 0.0
H15 H 0.92035 0.12405 0.39101 0.0
H16 H 0.87306 0.09625 0.37871 0.0
C17 C 0.86758 0.08906 0.38987 0.0
O18 O 0.88508 0.09089 0.39905 0.0
H19 H 0.86076 0.09822 0.39595 0.0
C20 C 0.92745 0.14636 0.4287 0.0
C21 C 0.93179 0.14454 0.41308 0.0
C22 C 0.90895 0.12962 0.43433 0.0
C23 C 0.89481 0.1109 0.4242 0.0
C24 C 0.89883 0.10904 0.40861 0.0
C25 C 0.91725 0.12581 0.40306 0.0
H26 H 0.86263 0.78853 0.44585 0.0
H27 H 0.92299 0.78864 0.44654 0.0
H28 H 0.89859 0.80451 0.40542 0.0
H29 H 0.9173 0.77615 0.39909 0.0
C30 C 0.9296 0.78194 0.40947 0.0
O31 O 0.92992 0.79924 0.41789 0.0
H32 H 0.92487 0.76821 0.41685 0.0
C33 C 0.87668 0.79101 0.44008 0.0
C34 C 0.87871 0.7972 0.42476 0.0
C35 C 0.89249 0.78784 0.44805 0.0
C36 C 0.91068 0.7911 0.44058 0.0
C37 C 0.91268 0.7968 0.42516 0.0
C38 C 0.89675 0.79986 0.41728 0.0
H39 H 0.07248 0.22706 0.58135 0.0
H40 H 0.12942 0.22046 0.58513 0.0
H41 H 0.08884 0.20437 0.62259 0.0
H42 H 0.13602 0.22815 0.63337 0.0
C43 C 0.14205 0.22388 0.62286 0.0
O44 O 0.12451 0.20784 0.61315 0.0
H45 H 0.1509 0.23874 0.61668 0.0
C46 C 0.08287 0.22238 0.58766 0.0
C47 C 0.07803 0.21497 0.60256 0.0
C48 C 0.10149 0.22469 0.5812 0.0
C49 C 0.11515 0.2192 0.58985 0.0
C50 C 0.11072 0.21221 0.60478 0.0
C51 C 0.09219 0.21004 0.61109 0.0
H52 H 0.79032 0.8521 0.59744 0.0
H53 H 0.79342 0.9142 0.60242 0.0
H54 H 0.81055 0.89042 0.64236 0.0
H55 H 0.78983 0.91598 0.65171 0.0
C56 C 0.79057 0.92311 0.64043 0.0
O57 O 0.80631 0.92227 0.63233 0.0
H58 H 0.77434 0.91335 0.63356 0.0
C59 C 0.79344 0.86652 0.60472 0.0
C60 C 0.80068 0.86914 0.62073 0.0
C61 C 0.79101 0.88278 0.59792 0.0
C62 C 0.79552 0.90163 0.60737 0.0
C63 C 0.80239 0.90423 0.62334 0.0
C64 C 0.80521 0.88817 0.62996 0.0
H65 H 0.14892 0.93715 0.58756 0.0
H66 H 0.08757 0.87762 0.58568 0.0
H67 H 0.11305 0.92101 0.62805 0.0
H68 H 0.09019 0.8757 0.63467 0.0
C69 C 0.08054 0.86807 0.62313 0.0
O70 O 0.08075 0.884 0.61454 0.0
H71 H 0.08812 0.85987 0.61679 0.0
C72 C 0.13479 0.92623 0.59316 0.0
C73 C 0.13315 0.9316 0.60885 0.0
C74 C 0.1185 0.90684 0.58463 0.0
C75 C 0.10034 0.89264 0.59202 0.0
C76 C 0.09838 0.89782 0.60761 0.0
C77 C 0.11465 0.91732 0.61595 0.0
H78 H 0.90171 0.41711 0.75396 0.0
H79 H 0.89847 0.4759 0.75389 0.0
H80 H 0.8781 0.43218 0.71185 0.0
H81 H 0.89952 0.47767 0.70498 0.0
C82 C 0.89825 0.48513 0.71632 0.0
O83 O 0.88322 0.46906 0.72442 0.0
H84 H 0.91453 0.49335 0.72319 0.0
C85 C 0.89815 0.42798 0.74774 0.0
C86 C 0.88966 0.42222 0.73188 0.0
C87 C 0.90128 0.44721 0.75583 0.0
C88 C 0.89598 0.46089 0.74788 0.0
C89 C 0.88782 0.45552 0.73204 0.0
C90 C 0.88445 0.43614 0.72411 0.0
H91 H 0.60769 0.49627 0.77146 0.0
H92 H 0.54965 0.43304 0.76414 0.0
H93 H 0.59085 0.45687 0.72731 0.0
H94 H 0.54427 0.42982 0.71451 0.0
C95 C 0.53804 0.42266 0.72554 0.0
O96 O 0.555 0.42458 0.73544 0.0
H97 H 0.53081 0.43183 0.73101 0.0
C98 C 0.59697 0.48122 0.76416 0.0
C99 C 0.60177 0.47848 0.74882 0.0
C100 C 0.57805 0.46509 0.76986 0.0
C101 C 0.56409 0.44594 0.76 0.0
C102 C 0.56865 0.44311 0.74471 0.0
C103 C 0.58741 0.45933 0.73913 0.0
H104 H 0.53222 0.12007 0.78141 0.0
H105 H 0.59296 0.12116 0.78039 0.0
H106 H 0.56479 0.13293 0.73931 0.0
H107 H 0.5845 0.10546 0.73333 0.0
C108 C 0.5974 0.11224 0.74337 0.0
O109 O 0.59757 0.12978 0.75129 0.0
H110 H 0.59365 0.09923 0.75129 0.0
C111 C 0.54577 0.12218 0.77516 0.0
C112 C 0.54634 0.1269 0.75943 0.0
C113 C 0.56237 0.11991 0.78286 0.0
C114 C 0.5799 0.12268 0.77468 0.0
C115 C 0.58072 0.1274 0.75905 0.0
C116 C 0.56405 0.12957 0.75148 0.0
H117 H 0.7371 0.55893 0.91274 0.0
H118 H 0.79708 0.55796 0.91741 0.0
H119 H 0.75925 0.54575 0.95636 0.0
H120 H 0.80766 0.57068 0.9656 0.0
C121 C 0.81255 0.56561 0.9548 0.0
O122 O 0.79441 0.54853 0.9463 0.0
H123 H 0.82005 0.57986 0.94784 0.0
C124 C 0.74902 0.55689 0.9197 0.0
C125 C 0.74586 0.55214 0.93535 0.0
C126 C 0.76747 0.55911 0.91303 0.0
C127 C 0.78264 0.55616 0.92218 0.0
C128 C 0.7797 0.55148 0.93775 0.0
C129 C 0.76143 0.54957 0.94433 0.0
H130 H 0.45093 0.18321 0.93668 0.0
H131 H 0.45609 0.24631 0.94164 0.0
H132 H 0.47616 0.22348 0.98075 0.0
H133 H 0.45748 0.25085 0.99148 0.0
C134 C 0.45693 0.25706 0.97998 0.0
O135 O 0.47152 0.25531 0.97102 0.0
H136 H 0.44007 0.24695 0.97412 0.0
C137 C 0.45532 0.1982 0.94375 0.0
C138 C 0.46398 0.20134 0.95946 0.0
C139 C 0.45242 0.2143 0.9371 0.0
C140 C 0.45798 0.23356 0.94648 0.0
C141 C 0.46639 0.23674 0.96216 0.0
C142 C 0.46962 0.2208 0.96859 0.0
H143 H 0.81264 0.26402 0.91782 0.0
H144 H 0.75392 0.20252 0.91755 0.0
H145 H 0.77764 0.24809 0.95882 0.0
H146 H 0.75768 0.2028 0.96632 0.0
C147 C 0.74727 0.19449 0.95513 0.0
O148 O 0.74669 0.20976 0.94621 0.0
H149 H 0.75449 0.18596 0.94876 0.0
C150 C 0.79889 0.25305 0.92374 0.0
C151 C 0.79726 0.25879 0.93935 0.0
C152 C 0.7834 0.23286 0.91583 0.0
C153 C 0.766 0.21816 0.92356 0.0
C154 C 0.76393 0.22373 0.93902 0.0
C155 C 0.77952 0.24396 0.94689 0.0
H156 H 0.55608 0.74664 0.09518 0.0
H157 H 0.55533 0.80661 0.09305 0.0
H158 H 0.53916 0.76345 0.0512 0.0
H159 H 0.56252 0.80941 0.04481 0.0
C160 C 0.5598 0.81669 0.05563 0.0
O161 O 0.54368 0.80044 0.06297 0.0
H162 H 0.57527 0.82495 0.06352 0.0
C163 C 0.5532 0.75762 0.08855 0.0
C164 C 0.5471 0.75249 0.07231 0.0
C165 C 0.55636 0.77715 0.09621 0.0
C166 C 0.55327 0.7916 0.08739 0.0
C167 C 0.54715 0.78665 0.07122 0.0
C168 C 0.5441 0.76718 0.0637 0.0
H169 H 0.27788 0.82629 0.10825 0.0
H170 H 0.21787 0.765 0.1018 0.0
H171 H 0.25412 0.78948 0.06267 0.0
H172 H 0.20586 0.76364 0.05339 0.0
C173 C 0.20146 0.75556 0.06436 0.0
O174 O 0.21972 0.75712 0.07221 0.0
H175 H 0.195 0.76401 0.07172 0.0
C176 C 0.26565 0.81231 0.10062 0.0
C177 C 0.26843 0.81021 0.08461 0.0
C178 C 0.2475 0.79613 0.10702 0.0
C179 C 0.23212 0.77758 0.09723 0.0
C180 C 0.23462 0.77525 0.08135 0.0
C181 C 0.25265 0.79148 0.07505 0.0
H182 H 0.19347 0.44992 0.10936 0.0
H183 H 0.25267 0.44754 0.11127 0.0
H184 H 0.2315 0.46603 0.07006 0.0
H185 H 0.25003 0.43695 0.0645 0.0
C186 C 0.26227 0.44302 0.07494 0.0
O187 O 0.26187 0.45994 0.08333 0.0
H188 H 0.25796 0.42937 0.08232 0.0
C189 C 0.20758 0.45189 0.10396 0.0
C190 C 0.21054 0.45846 0.08874 0.0
C191 C 0.22252 0.44774 0.11225 0.0
C192 C 0.24093 0.45067 0.10517 0.0
C193 C 0.24404 0.45712 0.08997 0.0
C194 C 0.22883 0.46089 0.08175 0.0
H195 H 0.40561 0.89737 0.24781 0.0
H196 H 0.46137 0.88888 0.25224 0.0
H197 H 0.42115 0.87538 0.28979 0.0
H198 H 0.4679 0.8964 0.30122 0.0
C199 C 0.47378 0.89315 0.29023 0.0
O200 O 0.45623 0.87721 0.28049 0.0
H201 H 0.48187 0.90859 0.28458 0.0
C202 C 0.41588 0.89285 0.25446 0.0
C203 C 0.41084 0.88591 0.26945 0.0
C204 C 0.43411 0.89409 0.24805 0.0
C205 C 0.44734 0.88828 0.2569 0.0
C206 C 0.44273 0.88175 0.27191 0.0
C207 C 0.42444 0.88035 0.27811 0.0
H208 H 0.12715 0.51946 0.26138 0.0
H209 H 0.12896 0.58096 0.26548 0.0
H210 H 0.14537 0.55789 0.30616 0.0
H211 H 0.12374 0.58317 0.31436 0.0
C212 C 0.12514 0.59045 0.30307 0.0
O213 O 0.14122 0.58952 0.29548 0.0
H214 H 0.1092 0.58086 0.29581 0.0
C215 C 0.12976 0.53378 0.26853 0.0
C216 C 0.13645 0.5365 0.28466 0.0
C217 C 0.12712 0.54974 0.26143 0.0
C218 C 0.13115 0.56857 0.27067 0.0
C219 C 0.13762 0.57139 0.28674 0.0
C220 C 0.14044 0.55551 0.29369 0.0
H221 H 0.48478 0.59675 0.25529 0.0
H222 H 0.42292 0.53758 0.25262 0.0
H223 H 0.44935 0.57884 0.29591 0.0
H224 H 0.42901 0.53163 0.29892 0.0
C225 C 0.41616 0.52524 0.28886 0.0
O226 O 0.41679 0.54253 0.2819 0.0
H227 H 0.41941 0.51513 0.28029 0.0
C228 C 0.47066 0.58558 0.26079 0.0
C229 C 0.46918 0.59028 0.27665 0.0
C230 C 0.45413 0.56664 0.25194 0.0
C231 C 0.43593 0.55223 0.25921 0.0
C232 C 0.4343 0.55664 0.27502 0.0
C233 C 0.45079 0.57568 0.28367 0.0
C234 C 0.52909 0.00807 0.05916 0.0
Eu235 Eu 0.51392 0.01061 0.03147 0.0
C236 C 0.52026 0.99716 0.07319 0.0
C237 C 0.53031 0.00801 0.08803 0.0
C238 C 0.52193 0.99831 0.10156 0.0
C239 C 0.50331 0.9775 0.10051 0.0
C240 C 0.49324 0.96666 0.08556 0.0
C241 C 0.50164 0.97641 0.07202 0.0
C242 C 0.50202 0.04 0.0244 0.0
C243 C 0.46138 0.97642 0.02554 0.0
C244 C 0.47542 0.00639 0.97157 0.0
Eu245 Eu 0.4896 0.00213 0.99904 0.0
C246 C 0.48586 0.01754 0.95802 0.0
C247 C 0.50663 0.02146 0.95527 0.0
C248 C 0.51637 0.03203 0.94232 0.0
C249 C 0.50559 0.03903 0.932 0.0
C250 C 0.48494 0.0354 0.93499 0.0
C251 C 0.47517 0.02473 0.94789 0.0
C252 C 0.50179 0.97286 0.00585 0.0
C253 C 0.54234 0.03576 0.00482 0.0
O254 O 0.52721 0.99566 0.04662 0.0
O255 O 0.52496 0.02347 0.056 0.0
O256 O 0.52034 0.04517 0.0322 0.0
O257 O 0.49057 0.01966 0.02127 0.0
O258 O 0.48013 0.98222 0.03368 0.0
O259 O 0.46044 0.98473 0.01234 0.0
O260 O 0.47823 0.01905 0.9842 0.0
O261 O 0.47744 0.98965 0.97462 0.0
O262 O 0.48365 0.96766 0.99773 0.0
O263 O 0.51306 0.99318 0.00918 0.0
O264 O 0.52369 0.02991 0.99655 0.0
O265 O 0.54307 0.02775 0.0182 0.0
H266 H 0.54458 0.0241 0.08916 0.0
H267 H 0.52987 0.0073 0.11286 0.0
H268 H 0.47901 0.95054 0.08433 0.0
H269 H 0.49359 0.96777 0.06065 0.0
H270 H 0.51531 0.01633 0.96311 0.0
H271 H 0.5324 0.03487 0.94047 0.0
H272 H 0.47615 0.04043 0.92717 0.0
H273 H 0.45922 0.022 0.94992 0.0
C274 C 0.00464 0.51445 0.05743 0.0
Eu275 Eu 1.00237 0.50249 0.02777 0.0
C276 C 0.01725 0.51659 0.07228 0.0
C277 C 0.00665 0.51145 0.08593 0.0
C278 C 0.01802 0.51307 0.10022 0.0
C279 C 0.04025 0.51993 0.10113 0.0
C280 C 0.05088 0.52506 0.08742 0.0
C281 C 0.03945 0.52335 0.07307 0.0
C282 C 0.97277 0.46349 0.01257 0.0
C283 C 0.03726 0.48652 0.0218 0.0
C284 C 0.00996 0.48308 0.96502 0.0
Eu285 Eu 0.01097 0.49468 0.99457 0.0
C286 C 0.99999 0.48266 0.94935 0.0
C287 C 0.0136 0.4931 0.93778 0.0
C288 C 0.00489 0.49198 0.92254 0.0
C289 C 0.98232 0.48022 0.91847 0.0
C290 C 0.96863 0.47018 0.93017 0.0
C291 C 0.97738 0.47138 0.94548 0.0
C292 C 0.04038 0.53386 0.00984 0.0
C293 C 0.9764 0.51137 1.00066 0.0
O294 O 0.01478 0.52807 0.04719 0.0
O295 O 0.99167 0.4946 0.05097 0.0
O296 O 0.96799 0.47448 0.02249 0.0
O297 O 0.993 0.47257 0.01194 0.0
O298 O 0.03109 0.49719 0.03135 0.0
O299 O 0.02906 0.48054 0.00697 0.0
O300 O 0.99756 0.46973 0.97465 0.0
O301 O 0.02413 0.50224 0.97206 0.0
O302 O 0.04533 0.52242 1.00047 0.0
O303 O 0.0201 0.52462 0.01024 0.0
O304 O 0.9832 0.50168 0.9907 0.0
O305 O 0.98368 0.51601 0.01569 0.0
H306 H 0.98954 0.5062 0.08554 0.0
H307 H 0.00946 0.50928 0.11062 0.0
H308 H 0.06796 0.5302 0.08778 0.0
H309 H 0.04793 0.52728 0.06263 0.0
H310 H 0.03108 0.50191 0.94049 0.0
H311 H 0.01588 0.50023 0.91391 0.0
H312 H 0.95119 0.46085 0.92739 0.0
H313 H 0.96648 0.46318 0.95417 0.0
C314 C 0.48435 0.48638 0.96527 0.0
Eu315 Eu 0.49928 0.50469 0.99387 0.0
C316 C 0.49329 0.48543 0.95041 0.0
C317 C 0.48385 0.48794 0.9365 0.0
C318 C 0.49221 0.48751 0.92227 0.0
C319 C 0.5102 0.48451 0.92166 0.0
C320 C 0.51972 0.48208 0.93568 0.0
C321 C 0.51132 0.48251 0.94992 0.0
C322 C 0.5101 0.54593 0.00384 0.0
C323 C 0.552 0.52494 0.99869 0.0
C324 C 0.53827 0.54126 0.05462 0.0
Eu325 Eu 0.52343 0.52146 0.02638 0.0
C326 C 0.52892 0.5414 0.06938 0.0
C327 C 0.50862 0.5241 0.07209 0.0
C328 C 0.49984 0.52453 0.08614 0.0
C329 C 0.51119 0.54231 0.09771 0.0
C330 C 0.53148 0.55964 0.09485 0.0
C331 C 0.54024 0.55918 0.08081 0.0
C332 C 0.51267 0.48016 0.01675 0.0
C333 C 0.47026 0.49954 0.02158 0.0
O334 O 0.48763 0.47653 0.97664 0.0
O335 O 0.4868 0.50527 0.97019 0.0
O336 O 0.49183 0.53208 0.99582 0.0
O337 O 0.5221 0.53776 0.00571 0.0
O338 O 0.53335 0.51171 0.99017 0.0
O339 O 0.55265 0.53382 0.01281 0.0
O340 O 0.53295 0.54964 0.0432 0.0
O341 O 0.5378 0.52321 0.0499 0.0
O342 O 0.53059 0.49389 0.02523 0.0
O343 O 0.50069 0.48831 0.01458 0.0
O344 O 0.48873 0.51248 0.03043 0.0
O345 O 0.46996 0.49174 0.00717 0.0
H346 H 0.47003 0.49036 0.93664 0.0
H347 H 0.4847 0.4898 0.91176 0.0
H348 H 0.53345 0.47952 0.93561 0.0
H349 H 0.51889 0.48051 0.96052 0.0
H350 H 0.49958 0.51028 0.06334 0.0
H351 H 0.48406 0.51106 0.08788 0.0
H352 H 0.54076 0.57344 0.10358 0.0
H353 H 0.55591 0.57269 0.07888 0.0
C354 C 0.19522 0.34697 0.39425 0.0
Eu355 Eu 0.18062 0.34639 0.36552 0.0
C356 C 0.18644 0.3366 0.40845 0.0
C357 C 0.1972 0.34733 0.42318 0.0
C358 C 0.18887 0.33803 0.43685 0.0
C359 C 0.16956 0.3178 0.43604 0.0
C360 C 0.1587 0.3072 0.4212 0.0
C361 C 0.16715 0.31648 0.40753 0.0
C362 C 0.16987 0.37525 0.35514 0.0
C363 C 0.1284 0.31122 0.35871 0.0
C364 C 0.14383 0.33384 0.30324 0.0
Eu365 Eu 0.15825 0.33473 0.3321 0.0
C366 C 0.15143 0.34564 0.28934 0.0
C367 C 0.14256 0.33436 0.27443 0.0
C368 C 0.14956 0.34496 0.26097 0.0
C369 C 0.1656 0.3671 0.26214 0.0
C370 C 0.1745 0.37838 0.27715 0.0
C371 C 0.16748 0.36775 0.29065 0.0
C372 C 0.16961 0.30627 0.34264 0.0
C373 C 0.21022 0.36997 0.33889 0.0
O374 O 0.19508 0.33438 0.38246 0.0
O375 O 0.18928 0.36066 0.38985 0.0
O376 O 0.18738 0.38074 0.36418 0.0
O377 O 0.15826 0.35479 0.35264 0.0
O378 O 0.14666 0.31857 0.36796 0.0
O379 O 0.12823 0.31749 0.34454 0.0
O380 O 0.14124 0.34423 0.31523 0.0
O381 O 0.1527 0.32242 0.3074 0.0
O382 O 0.15184 0.30043 0.33379 0.0
O383 O 0.18096 0.32672 0.3449 0.0
O384 O 0.1919 0.36328 0.32987 0.0
O385 O 0.21038 0.36295 0.35278 0.0
H386 H 0.21202 0.36297 0.42411 0.0
H387 H 0.19746 0.34684 0.44806 0.0
H388 H 0.14394 0.2915 0.42012 0.0
H389 H 0.15875 0.30791 0.39624 0.0
H390 H 0.13025 0.31727 0.2732 0.0
H391 H 0.14261 0.33568 0.24962 0.0
H392 H 0.18668 0.39548 0.2784 0.0
H393 H 0.17456 0.37676 0.30208 0.0
C394 C 0.67314 0.85506 0.39289 0.0
Eu395 Eu 0.6681 0.83846 0.36405 0.0
C396 C 0.6847 0.85647 0.4081 0.0
C397 C 0.67328 0.85142 0.42139 0.0
C398 C 0.68372 0.85267 0.43601 0.0
C399 C 0.70587 0.85914 0.43765 0.0
C400 C 0.71733 0.86416 0.42431 0.0
C401 C 0.70681 0.86273 0.40963 0.0
C402 C 0.6376 0.7976 0.3523 0.0
C403 C 0.70122 0.81974 0.35933 0.0
C404 C 0.66737 0.80695 0.30263 0.0
Eu405 Eu 0.67343 0.82459 0.33131 0.0
C406 C 0.65666 0.80671 0.2874 0.0
C407 C 0.65356 0.82406 0.28389 0.0
C408 C 0.64373 0.82366 0.26917 0.0
C409 C 0.63668 0.80582 0.2578 0.0
C410 C 0.63954 0.78836 0.26151 0.0
C411 C 0.64947 0.78884 0.27617 0.0
C412 C 0.7039 0.86554 0.34291 0.0
C413 C 0.64114 0.84456 0.33612 0.0
O414 O 0.68482 0.86603 0.38198 0.0
O415 O 0.65722 0.83576 0.38742 0.0
O416 O 0.63347 0.81055 0.36074 0.0
O417 O 0.65765 0.80634 0.35099 0.0
O418 O 0.69606 0.83202 0.36813 0.0
O419 O 0.69199 0.81185 0.34485 0.0
O420 O 0.65458 0.79728 0.31338 0.0
O421 O 0.6846 0.82534 0.3082 0.0
O422 O 0.70798 0.85274 0.33421 0.0
O423 O 0.68387 0.85671 0.3443 0.0
O424 O 0.64656 0.83279 0.32694 0.0
O425 O 0.6497 0.8514 0.3508 0.0
H426 H 0.65624 0.84659 0.42046 0.0
H427 H 0.67454 0.84896 0.44611 0.0
H428 H 0.73437 0.86901 0.42522 0.0
H429 H 0.71596 0.86654 0.39951 0.0
H430 H 0.65883 0.83793 0.29249 0.0
H431 H 0.64152 0.83723 0.26671 0.0
H432 H 0.63452 0.7745 0.25296 0.0
H433 H 0.6517 0.77529 0.2787 0.0
C434 C 0.15066 0.82206 0.29876 0.0
Eu435 Eu 0.16464 0.8379 0.32789 0.0
C436 C 0.16036 0.8194 0.28471 0.0
C437 C 0.1565 0.82671 0.27071 0.0
C438 C 0.16602 0.82504 0.25735 0.0
C439 C 0.17945 0.81582 0.25771 0.0
C440 C 0.18323 0.80839 0.27171 0.0
C441 C 0.17389 0.81029 0.28514 0.0
C442 C 0.1745 0.87781 0.34038 0.0
C443 C 0.21729 0.85776 0.33286 0.0
C444 C 0.20274 0.86665 0.38985 0.0
Eu445 Eu 0.18814 0.85104 0.3607 0.0
C446 C 0.19401 0.86893 0.40453 0.0
C447 C 0.19991 0.86249 0.41823 0.0
C448 C 0.19175 0.86422 0.43229 0.0
C449 C 0.17764 0.87259 0.43295 0.0
C450 C 0.17175 0.87908 0.41922 0.0
C451 C 0.17976 0.87717 0.40509 0.0
C452 C 0.17825 0.81109 0.34805 0.0
C453 C 0.13545 0.83163 0.35558 0.0
O454 O 0.14945 0.81008 0.3101 0.0
O455 O 0.15667 0.8421 0.3039 0.0
O456 O 0.15669 0.8647 0.33156 0.0
O457 O 0.18677 0.86982 0.34159 0.0
O458 O 0.1988 0.84567 0.32387 0.0
O459 O 0.21778 0.86449 0.34762 0.0
O460 O 0.20279 0.87855 0.37876 0.0
O461 O 0.19706 0.8468 0.38444 0.0
O462 O 0.19613 0.82428 0.35676 0.0
O463 O 0.16597 0.81908 0.34702 0.0
O464 O 0.15387 0.84334 0.36475 0.0
O465 O 0.13506 0.82491 0.34084 0.0
H466 H 0.14617 0.83384 0.27014 0.0
H467 H 0.16266 0.8307 0.24667 0.0
H468 H 0.19368 0.8014 0.27234 0.0
H469 H 0.17737 0.80476 0.29585 0.0
H470 H 0.21086 0.8561 0.41805 0.0
H471 H 0.19675 0.8593 0.44272 0.0
H472 H 0.16072 0.88537 0.41938 0.0
H473 H 0.17477 0.88208 0.39465 0.0
C474 C 0.86134 0.67717 0.72645 0.0
Eu475 Eu 0.84833 0.68 0.69815 0.0
C476 C 0.85071 0.66441 0.73949 0.0
C477 C 0.85224 0.6754 0.75403 0.0
C478 C 0.8418 0.66381 0.76642 0.0
C479 C 0.82973 0.64094 0.76458 0.0
C480 C 0.82825 0.62989 0.75003 0.0
C481 C 0.83853 0.64151 0.73756 0.0
C482 C 0.8365 0.70887 0.68979 0.0
C483 C 0.79598 0.64473 0.69158 0.0
C484 C 0.81018 0.67242 0.63718 0.0
Eu485 Eu 0.8247 0.67006 0.66515 0.0
C486 C 0.81916 0.68537 0.62399 0.0
C487 C 0.84081 0.69318 0.62104 0.0
C488 C 0.84882 0.70484 0.60812 0.0
C489 C 0.83528 0.70879 0.59792 0.0
C490 C 0.81377 0.70138 0.60118 0.0
C491 C 0.80581 0.68981 0.61412 0.0
C492 C 0.83668 0.64122 0.67354 0.0
C493 C 0.87709 0.70533 0.67163 0.0
O494 O 0.86268 0.6666 0.71395 0.0
O495 O 0.85619 0.69179 0.723 0.0
O496 O 0.85445 0.71434 0.69828 0.0
O497 O 0.8252 0.68847 0.68681 0.0
O498 O 0.81459 0.65159 0.70024 0.0
O499 O 0.79515 0.65191 0.67785 0.0
O500 O 0.8092 0.68291 0.64983 0.0
O501 O 0.81675 0.65872 0.64028 0.0
O502 O 0.81873 0.63571 0.66502 0.0
O503 O 0.84793 0.66162 0.67647 0.0
O504 O 0.85845 0.69843 0.66296 0.0
O505 O 0.87793 0.6982 0.68541 0.0
H506 H 0.8615 0.69302 0.7558 0.0
H507 H 0.84348 0.67277 0.77755 0.0
H508 H 0.81894 0.61228 0.74824 0.0
H509 H 0.83685 0.63255 0.72643 0.0
H510 H 0.8514 0.68995 0.62855 0.0
H511 H 0.86542 0.71023 0.60586 0.0
H512 H 0.80304 0.70443 0.59365 0.0
H513 H 0.78912 0.68408 0.6163 0.0
C514 C 0.34467 0.19142 0.72879 0.0
Eu515 Eu 0.33841 0.17317 0.7003 0.0
C516 C 0.35373 0.19134 0.74467 0.0
C517 C 0.34109 0.18834 0.75716 0.0
C518 C 0.3494 0.18904 0.77246 0.0
C519 C 0.37067 0.19298 0.77563 0.0
C520 C 0.38323 0.19562 0.76303 0.0
C521 C 0.37483 0.19478 0.74768 0.0
C522 C 0.30732 0.13216 0.6894 0.0
C523 C 0.37021 0.15275 0.6953 0.0
C524 C 0.33653 0.14114 0.63867 0.0
Eu525 Eu 0.34258 0.15825 0.66751 0.0
C526 C 0.3261 0.14125 0.6233 0.0
C527 C 0.33908 0.15071 0.61119 0.0
C528 C 0.32968 0.15067 0.59645 0.0
C529 C 0.30706 0.14099 0.59343 0.0
C530 C 0.29402 0.1315 0.60555 0.0
C531 C 0.30345 0.13167 0.62037 0.0
C532 C 0.37325 0.19953 0.67849 0.0
C533 C 0.31034 0.17791 0.67246 0.0
O534 O 0.35825 0.20004 0.71825 0.0
O535 O 0.32675 0.17377 0.72312 0.0
O536 O 0.30383 0.14532 0.69817 0.0
O537 O 0.32722 0.14066 0.68757 0.0
O538 O 0.36526 0.16502 0.70436 0.0
O539 O 0.36097 0.14524 0.6808 0.0
O540 O 0.32392 0.13115 0.64945 0.0
O541 O 0.35383 0.15937 0.64436 0.0
O542 O 0.37714 0.18643 0.67001 0.0
O543 O 0.3533 0.19074 0.68012 0.0
O544 O 0.31481 0.16507 0.66363 0.0
O545 O 0.32039 0.18633 0.68666 0.0
H546 H 0.32475 0.18558 0.7551 0.0
H547 H 0.33909 0.18647 0.7818 0.0
H548 H 0.39973 0.19885 0.76505 0.0
H549 H 0.38493 0.19708 0.73823 0.0
H550 H 0.35655 0.158 0.6131 0.0
H551 H 0.34013 0.15778 0.58728 0.0
H552 H 0.27654 0.12403 0.60358 0.0
H553 H 0.293 0.12421 0.62946 0.0
C554 C 0.81613 0.14903 0.63027 0.0
Eu555 Eu 0.83101 0.16847 0.65859 0.0
C556 C 0.82489 0.1474 0.61545 0.0
C557 C 0.81581 0.15015 0.60144 0.0
C558 C 0.82392 0.14897 0.58724 0.0
C559 C 0.84122 0.14488 0.58676 0.0
C560 C 0.85028 0.14205 0.60081 0.0
C561 C 0.84226 0.1434 0.61505 0.0
C562 C 0.84181 0.20984 0.66797 0.0
C563 C 0.88387 0.18955 0.6636 0.0
C564 C 0.8695 0.20626 0.7194 0.0
Eu565 Eu 0.85523 0.18603 0.69126 0.0
C566 C 0.86036 0.20599 0.73442 0.0
C567 C 0.84741 0.18641 0.7409 0.0
C568 C 0.83908 0.18662 0.75521 0.0
C569 C 0.84333 0.20636 0.76321 0.0
C570 C 0.85605 0.22588 0.75658 0.0
C571 C 0.86454 0.22568 0.74236 0.0
C572 C 0.84448 0.14464 0.68206 0.0
C573 C 0.80204 0.16391 0.68629 0.0
O574 O 0.8196 0.13976 0.64196 0.0
O575 O 0.81842 0.168 0.63469 0.0
O576 O 0.8237 0.19597 0.65977 0.0
O577 O 0.85374 0.20167 0.67022 0.0
O578 O 0.86531 0.17606 0.65505 0.0
O579 O 0.88438 0.19848 0.67767 0.0
O580 O 0.86314 0.21386 0.70799 0.0
O581 O 0.87068 0.18911 0.71465 0.0
O582 O 0.86229 0.15837 0.69065 0.0
O583 O 0.83258 0.15284 0.67966 0.0
O584 O 0.82049 0.17675 0.69518 0.0
O585 O 0.80168 0.15608 0.67188 0.0
H586 H 0.8024 0.15323 0.6015 0.0
H587 H 0.81646 0.15099 0.57659 0.0
H588 H 0.86378 0.1391 0.60081 0.0
H589 H 0.84969 0.14138 0.62573 0.0
H590 H 0.8437 0.17094 0.73494 0.0
H591 H 0.82912 0.17131 0.75995 0.0
H592 H 0.85977 0.24136 0.76254 0.0
H593 H 0.87444 0.24095 0.73755 0.0
H594 H 0.29199 0.80506 0.06226 0.0
H595 H 0.32406 0.83329 0.05179 0.0
H596 H 0.32154 0.88259 0.08169 0.0
H597 H 0.28902 0.85459 0.09186 0.0
H598 H 0.33093 0.86845 0.03617 0.0
H599 H 0.37595 0.92175 0.09503 0.0
H600 H 0.37949 0.91737 0.12317 0.0
H601 H 0.36031 0.85026 0.1119 0.0
H602 H 0.35722 0.85436 0.08372 0.0
H603 H 0.41995 0.96882 0.019 0.0
H604 H 0.3868 0.94109 0.02885 0.0
H605 H 0.42398 0.91791 0.05435 0.0
H606 H 0.45708 0.94607 0.0451 0.0
H607 H 0.39702 0.91805 0.07197 0.0
H608 H 0.39058 0.89129 0.01808 0.0
H609 H 0.38941 0.89293 0.98944 0.0
H610 H 0.33418 0.90176 0.98996 0.0
H611 H 0.33519 0.90043 0.01864 0.0
C612 C 0.29799 0.82191 0.06646 0.0
C613 C 0.28784 0.82745 0.07798 0.0
C614 C 0.31642 0.83803 0.06049 0.0
C615 C 0.3253 0.86003 0.06604 0.0
C616 C 0.31513 0.86568 0.07739 0.0
C617 C 0.29659 0.8496 0.08326 0.0
C618 C 0.34536 0.87702 0.06012 0.0
C619 C 0.34538 0.87935 0.04399 0.0
C620 C 0.36435 0.89097 0.07028 0.0
C621 C 0.36601 0.8883 0.08725 0.0
C622 C 0.37252 0.90606 0.09856 0.0
C623 C 0.3745 0.90364 0.11452 0.0
C624 C 0.37004 0.88353 0.11932 0.0
C625 C 0.36366 0.86581 0.10817 0.0
C626 C 0.36178 0.86817 0.0922 0.0
C627 C 0.42101 0.9578 0.02672 0.0
C628 C 0.44114 0.95968 0.0313 0.0
C629 C 0.40203 0.94186 0.03229 0.0
C630 C 0.40274 0.92711 0.04221 0.0
C631 C 0.42291 0.92907 0.04678 0.0
C632 C 0.44187 0.94521 0.04147 0.0
C633 C 0.38264 0.90971 0.04798 0.0
C634 C 0.38257 0.90729 0.06412 0.0
C635 C 0.36381 0.89531 0.03776 0.0
C636 C 0.36309 0.89596 0.02052 0.0
C637 C 0.37827 0.89371 0.01209 0.0
C638 C 0.37762 0.89457 0.99586 0.0
C639 C 0.36176 0.8975 0.98789 0.0
C640 C 0.34647 0.89952 0.99614 0.0
C641 C 0.34706 0.89869 0.01239 0.0
H642 H 0.36129 0.89817 0.97532 0.0
H643 H 0.37161 0.88169 0.13168 0.0
H644 H 0.19201 0.44467 0.05831 0.0
H645 H 0.1627 0.44863 0.04549 0.0
H646 H 0.16297 0.48521 0.08745 0.0
H647 H 0.19206 0.48122 0.10028 0.0
H648 H 0.12284 0.45462 0.07724 0.0
H649 H 0.18364 0.50956 0.054 0.0
H650 H 0.21588 0.52377 0.03937 0.0
H651 H 0.17728 0.47964 0.99903 0.0
H652 H 0.14484 0.46495 0.0135 0.0
H653 H 0.06014 0.49969 0.0508 0.0
H654 H 0.08934 0.49385 0.06059 0.0
H655 H 0.08286 0.4576 0.0166 0.0
H656 H 0.05376 0.46381 0.0065 0.0
H657 H 0.12483 0.48516 0.02647 0.0
H658 H 0.06359 0.43145 0.04954 0.0
H659 H 0.03141 0.41794 0.06421 0.0
H660 H 0.071 0.46023 0.105 0.0
H661 H 0.10339 0.47417 0.09052 0.0
C662 C 0.18603 0.45384 0.06469 0.0
C663 C 0.19425 0.46252 0.08034 0.0
C664 C 0.16925 0.45607 0.05737 0.0
C665 C 0.1606 0.46724 0.0655 0.0
C666 C 0.16923 0.47638 0.08097 0.0
C667 C 0.18587 0.47408 0.08829 0.0
C668 C 0.14202 0.46879 0.05823 0.0
C669 C 0.1234 0.46152 0.06621 0.0
C670 C 0.14241 0.47716 0.04361 0.0
C671 C 0.16187 0.48599 0.03489 0.0
C672 C 0.18207 0.50276 0.04205 0.0
C673 C 0.20037 0.51092 0.03378 0.0
C674 C 0.19864 0.50257 0.01829 0.0
C675 C 0.1786 0.48607 0.01103 0.0
C676 C 0.16025 0.47783 0.01926 0.0
C677 C 0.06477 0.49036 0.04318 0.0
C678 C 0.05446 0.48211 0.02786 0.0
C679 C 0.08149 0.48697 0.04884 0.0
C680 C 0.08813 0.475 0.03943 0.0
C681 C 0.07797 0.46683 0.0241 0.0
C682 C 0.06127 0.47031 0.01837 0.0
C683 C 0.10584 0.47134 0.04563 0.0
C684 C 0.12424 0.47813 0.03744 0.0
C685 C 0.10529 0.46255 0.06009 0.0
C686 C 0.08589 0.45396 0.0689 0.0
C687 C 0.06542 0.43795 0.06161 0.0
C688 C 0.04714 0.4302 0.0699 0.0
C689 C 0.04916 0.43825 0.08552 0.0
C690 C 0.06947 0.45401 0.0929 0.0
C691 C 0.0878 0.46181 0.08467 0.0
H692 H 0.03499 0.43225 0.0919 0.0
H693 H 0.21283 0.50891 0.01191 0.0
H694 H 0.52515 0.71178 0.08197 0.0
H695 H 0.52113 0.67799 0.06962 0.0
H696 H 0.55838 0.71273 0.0327 0.0
H697 H 0.56208 0.74655 0.0449 0.0
H698 H 0.5259 0.67577 0.02048 0.0
H699 H 0.58047 0.69708 0.06312 0.0
H700 H 0.59703 0.70866 0.09051 0.0
H701 H 0.5469 0.6488 0.10481 0.0
H702 H 0.52984 0.63699 0.07753 0.0
H703 H 0.54906 0.57853 0.01822 0.0
H704 H 0.55785 0.61505 0.02887 0.0
H705 H 0.49213 0.59917 0.01496 0.0
H706 H 0.48347 0.56296 0.00404 0.0
H707 H 0.54351 0.62894 0.05158 0.0
H708 H 0.49044 0.64329 0.00506 0.0
H709 H 0.47781 0.63367 0.97683 0.0
H710 H 0.5324 0.62584 0.96874 0.0
H711 H 0.54552 0.6357 0.99687 0.0
C712 C 0.53254 0.71222 0.07124 0.0
C713 C 0.54404 0.73184 0.06445 0.0
C714 C 0.53028 0.6929 0.06421 0.0
C715 C 0.53979 0.69283 0.05036 0.0
C716 C 0.55094 0.71235 0.04339 0.0
C717 C 0.55301 0.73166 0.05035 0.0
C718 C 0.53793 0.67237 0.04313 0.0
C719 C 0.52979 0.66557 0.02729 0.0
C720 C 0.54352 0.65924 0.05187 0.0
C721 C 0.55378 0.66623 0.06829 0.0
C722 C 0.57289 0.68645 0.07212 0.0
C723 C 0.58237 0.69305 0.08763 0.0
C724 C 0.573 0.6795 0.0994 0.0
C725 C 0.55414 0.65929 0.09568 0.0
C726 C 0.54456 0.65263 0.08019 0.0
C727 C 0.53656 0.58292 0.0174 0.0
C728 C 0.51563 0.56799 0.01025 0.0
C729 C 0.54156 0.60375 0.02351 0.0
C730 C 0.52574 0.61001 0.02254 0.0
C731 C 0.50475 0.59494 0.01556 0.0
C732 C 0.4998 0.57421 0.00938 0.0
C733 C 0.53094 0.6321 0.02906 0.0
C734 C 0.53971 0.6392 0.04477 0.0
C735 C 0.52648 0.64578 0.02009 0.0
C736 C 0.51884 0.64005 0.00311 0.0
C737 C 0.4998 0.63961 0.99725 0.0
C738 C 0.49255 0.63409 0.98126 0.0
C739 C 0.50426 0.62908 0.97101 0.0
C740 C 0.5233 0.62964 0.9767 0.0
C741 C 0.53063 0.63517 0.99267 0.0
H742 H 0.49861 0.6248 0.95864 0.0
H743 H 0.58037 0.68464 0.1114 0.0
H744 H 0.81789 0.29851 0.92778 0.0
H745 H 0.84823 0.33253 0.94066 0.0
H746 H 0.8458 0.30144 0.98273 0.0
H747 H 0.81561 0.26713 0.96982 0.0
H748 H 0.85126 0.34265 0.98878 0.0
H749 H 0.8834 0.30898 0.95888 0.0
H750 H 0.88809 0.29159 0.9349 0.0
H751 H 0.90668 0.34957 0.91208 0.0
H752 H 0.90174 0.36719 0.93583 0.0
H753 H 0.9518 0.42625 0.02649 0.0
H754 H 0.92273 0.39063 0.01437 0.0
H755 H 0.92768 0.4169 0.96972 0.0
H756 H 0.95711 0.45233 0.98187 0.0
H757 H 0.92118 0.37718 0.96527 0.0
H758 H 0.88767 0.41043 0.99387 0.0
H759 H 0.88159 0.4281 0.01703 0.0
H760 H 0.86452 0.37164 0.04146 0.0
H761 H 0.87078 0.35375 0.0185 0.0
C762 C 0.82384 0.29884 0.93976 0.0
C763 C 0.81443 0.27998 0.9477 0.0
C764 C 0.84116 0.31833 0.94711 0.0
C765 C 0.8495 0.31944 0.96258 0.0
C766 C 0.83965 0.30092 0.97077 0.0
C767 C 0.82233 0.28135 0.96339 0.0
C768 C 0.86871 0.33985 0.97006 0.0
C769 C 0.86666 0.35005 0.98379 0.0
C770 C 0.88862 0.34976 0.9633 0.0
C771 C 0.89201 0.33934 0.9491 0.0
C772 C 0.88835 0.31797 0.94871 0.0
C773 C 0.89106 0.30807 0.93517 0.0
C774 C 0.89762 0.31944 0.92196 0.0
C775 C 0.90157 0.34077 0.92231 0.0
C776 C 0.89883 0.35073 0.93582 0.0
C777 C 0.94683 0.42421 0.01404 0.0
C778 C 0.9568 0.44175 0.00499 0.0
C779 C 0.93014 0.40396 0.00714 0.0
C780 C 0.92273 0.4011 0.99115 0.0
C781 C 0.93311 0.41862 0.98205 0.0
C782 C 0.94999 0.43881 0.98894 0.0
C783 C 0.90377 0.38012 0.98403 0.0
C784 C 0.90584 0.36979 0.97033 0.0
C785 C 0.88378 0.37017 0.99074 0.0
C786 C 0.87991 0.38085 0.00453 0.0
C787 C 0.88277 0.40185 0.00422 0.0
C788 C 0.87927 0.41189 0.01731 0.0
C789 C 0.87273 0.40102 0.03073 0.0
C790 C 0.86962 0.38006 0.03107 0.0
C791 C 0.87312 0.36995 0.01802 0.0
H792 H 0.87003 0.40882 0.04084 0.0
H793 H 0.89969 0.31174 0.91148 0.0
H794 H 0.7439 0.57067 0.96357 0.0
H795 H 0.7117 0.56743 0.97457 0.0
H796 H 0.67141 0.52473 0.93379 0.0
H797 H 0.70366 0.52853 0.92256 0.0
H798 H 0.65827 0.5515 0.94076 0.0
H799 H 0.67532 0.5063 0.97079 0.0
H800 H 0.69835 0.49733 0.98768 0.0
H801 H 0.70712 0.54649 0.02351 0.0
H802 H 0.68436 0.55595 0.00673 0.0
H803 H 0.55648 0.50678 0.97125 0.0
H804 H 0.58978 0.51261 0.96098 0.0
H805 H 0.62746 0.5588 0.00095 0.0
H806 H 0.59399 0.55263 0.01157 0.0
H807 H 0.64248 0.53173 0.99481 0.0
H808 H 0.62245 0.57468 0.96398 0.0
H809 H 0.59781 0.58105 0.94661 0.0
H810 H 0.59308 0.53301 0.91149 0.0
H811 H 0.61729 0.52599 0.92877 0.0
C812 C 0.72814 0.5605 0.95701 0.0
C813 C 0.72629 0.54981 0.94222 0.0
C814 C 0.70972 0.55859 0.96333 0.0
C815 C 0.68899 0.54556 0.95514 0.0
C816 C 0.68717 0.53491 0.94035 0.0
C817 C 0.70561 0.53707 0.93394 0.0
C818 C 0.66921 0.54322 0.96184 0.0
C819 C 0.65472 0.54691 0.95252 0.0
C820 C 0.66467 0.53767 0.97731 0.0
C821 C 0.67832 0.53199 0.98743 0.0
C822 C 0.68229 0.51531 0.98222 0.0
C823 C 0.69528 0.51012 0.99178 0.0
C824 C 0.70425 0.52138 0.00664 0.0
C825 C 0.7002 0.53781 0.01198 0.0
C826 C 0.68724 0.54308 0.00246 0.0
C827 C 0.5718 0.51828 0.97787 0.0
C828 C 0.57248 0.5293 0.99224 0.0
C829 C 0.5909 0.52167 0.97192 0.0
C830 C 0.61121 0.5364 0.98005 0.0
C831 C 0.61199 0.54741 0.99443 0.0
C832 C 0.59283 0.54392 1.00046 0.0
C833 C 0.63154 0.53989 0.9737 0.0
C834 C 0.64612 0.53641 0.98308 0.0
C835 C 0.63599 0.54531 0.9582 0.0
C836 C 0.62156 0.54969 0.94774 0.0
C837 C 0.61602 0.56535 0.9526 0.0
C838 C 0.60211 0.56907 0.94277 0.0
C839 C 0.5938 0.55737 0.92798 0.0
C840 C 0.59945 0.54199 0.92297 0.0
C841 C 0.61327 0.53814 0.93277 0.0
H842 H 0.58303 0.56027 0.92039 0.0
H843 H 0.71429 0.51733 0.01403 0.0
H844 H 0.43513 0.15766 0.95757 0.0
H845 H 0.44065 0.12944 0.96836 0.0
H846 H 0.50552 0.17821 0.9873 0.0
H847 H 0.50008 0.20652 0.97654 0.0
H848 H 0.50258 0.1406 0.97105 0.0
H849 H 0.46835 0.15911 0.01131 0.0
H850 H 0.43966 0.16459 0.02146 0.0
H851 H 0.39237 0.09779 0.00665 0.0
H852 H 0.42074 0.09199 0.9962 0.0
H853 H 0.52944 0.08338 0.0239 0.0
H854 H 0.52167 0.10967 0.01231 0.0
H855 H 0.45548 0.0589 0.99873 0.0
H856 H 0.46317 0.03252 0.0105 0.0
H857 H 0.45762 0.09603 0.01106 0.0
H858 H 0.49055 0.07596 0.97216 0.0
H859 H 0.51795 0.06929 0.96105 0.0
H860 H 0.56584 0.13689 0.97125 0.0
H861 H 0.53892 0.14396 0.98291 0.0
C862 C 0.45058 0.16234 0.964 0.0
C863 C 0.46718 0.18428 0.96624 0.0
C864 C 0.45368 0.14623 0.97021 0.0
C865 C 0.47347 0.15176 0.97867 0.0
C866 C 0.49013 0.17362 0.98081 0.0
C867 C 0.48695 0.18978 0.97477 0.0
C868 C 0.47679 0.13473 0.98531 0.0
C869 C 0.49297 0.13103 0.97995 0.0
C870 C 0.46368 0.12174 0.99649 0.0
C871 C 0.44663 0.12518 0.00282 0.0
C872 C 0.4518 0.14564 0.01009 0.0
C873 C 0.4356 0.1488 0.01592 0.0
C874 C 0.41419 0.13157 0.01466 0.0
C875 C 0.40895 0.11113 0.0076 0.0
C876 C 0.42509 0.1079 0.00173 0.0
C877 C 0.5132 0.07785 0.01852 0.0
C878 C 0.49692 0.05592 0.018 0.0
C879 C 0.50881 0.09285 0.01182 0.0
C880 C 0.48807 0.08619 0.00447 0.0
C881 C 0.47162 0.06437 0.00429 0.0
C882 C 0.47603 0.04932 0.01096 0.0
C883 C 0.48368 0.10209 0.99699 0.0
C884 C 0.46724 0.10554 0.00214 0.0
C885 C 0.49638 0.11465 0.98546 0.0
C886 C 0.51272 0.11047 0.97855 0.0
C887 C 0.50698 0.08939 0.97221 0.0
C888 C 0.52241 0.08553 0.96577 0.0
C889 C 0.54358 0.10264 0.96538 0.0
C890 C 0.54942 0.12365 0.97154 0.0
C891 C 0.53408 0.1276 0.97809 0.0
H892 H 0.55543 0.09962 0.96026 0.0
H893 H 0.40168 0.13404 0.01919 0.0
H894 H 0.72032 0.20231 0.97225 0.0
H895 H 0.68446 0.17588 0.97955 0.0
H896 H 0.688 0.12399 0.95387 0.0
H897 H 0.72356 0.15044 0.9463 0.0
H898 H 0.64811 0.11742 0.94937 0.0
H899 H 0.69979 0.13438 0.99403 0.0
H900 H 0.72908 0.15838 0.01468 0.0
H901 H 0.68853 0.18129 0.03288 0.0
H902 H 0.65908 0.15762 0.0122 0.0
H903 H 0.58366 0.04539 0.01441 0.0
H904 H 0.61741 0.07214 0.00482 0.0
H905 H 0.5813 0.09015 0.97297 0.0
H906 H 0.54742 0.06284 0.98207 0.0
H907 H 0.63738 0.11368 0.00591 0.0
H908 H 0.60667 0.10875 0.94121 0.0
H909 H 0.57893 0.08193 0.92068 0.0
H910 H 0.57993 0.0299 0.94293 0.0
H911 H 0.60773 0.05638 0.96351 0.0
C912 C 0.71328 0.18527 0.96808 0.0
C913 C 0.7247 0.17837 0.9588 0.0
C914 C 0.69287 0.17018 0.97229 0.0
C915 C 0.68362 0.14787 0.96744 0.0
C916 C 0.69477 0.14108 0.95777 0.0
C917 C 0.71512 0.15618 0.95349 0.0
C918 C 0.66274 0.13149 0.97289 0.0
C919 C 0.64574 0.11666 0.96173 0.0
C920 C 0.65968 0.13019 0.98902 0.0
C921 C 0.67733 0.14441 0.00148 0.0
C922 C 0.69718 0.14466 0.00237 0.0
C923 C 0.7138 0.15818 0.01409 0.0
C924 C 0.71068 0.1714 0.02506 0.0
C925 C 0.69093 0.17107 0.02436 0.0
C926 C 0.67427 0.1576 0.01265 0.0
C927 C 0.58288 0.05496 0.0053 0.0
C928 C 0.56283 0.05188 0.99896 0.0
C929 C 0.60222 0.07032 0.99985 0.0
C930 C 0.60196 0.08308 0.98803 0.0
C931 C 0.58194 0.08022 0.98183 0.0
C932 C 0.56257 0.06463 0.98711 0.0
C933 C 0.62269 0.09954 0.9824 0.0
C934 C 0.63966 0.11447 0.99353 0.0
C935 C 0.62587 0.10058 0.96627 0.0
C936 C 0.60919 0.08454 0.95393 0.0
C937 C 0.60101 0.09159 0.94168 0.0
C938 C 0.58527 0.07645 0.93005 0.0
C939 C 0.57774 0.05425 0.9305 0.0
C940 C 0.5858 0.04711 0.94261 0.0
C941 C 0.60151 0.06216 0.95427 0.0
H942 H 0.5657 0.04256 0.92144 0.0
H943 H 0.72357 0.18185 0.03413 0.0
H944 H 0.8361 0.55659 0.93483 0.0
H945 H 0.86408 0.547 0.94135 0.0
H946 H 0.85393 0.54989 0.99027 0.0
H947 H 0.82611 0.55959 0.98376 0.0
H948 H 0.89677 0.5718 0.98601 0.0
H949 H 0.83466 0.5013 0.96831 0.0
H950 H 0.80418 0.47448 0.94948 0.0
H951 H 0.84855 0.48122 0.9157 0.0
H952 H 0.87928 0.50831 0.93427 0.0
H953 H 0.95252 0.52296 0.01826 0.0
H954 H 0.92509 0.53173 0.0092 0.0
H955 H 0.9354 0.5215 0.96118 0.0
H956 H 0.9625 0.5119 0.97021 0.0
H957 H 0.89376 0.50452 0.96334 0.0
H958 H 0.95591 0.57369 0.98057 0.0
H959 H 0.98696 0.60106 0.99874 0.0
H960 H 0.94363 0.59812 0.03232 0.0
H961 H 0.91232 0.5705 0.01444 0.0
C962 C 0.83984 0.55504 0.94695 0.0
C963 C 0.82907 0.55888 0.9588 0.0
C964 C 0.85574 0.54952 0.95066 0.0
C965 C 0.86105 0.54762 0.9663 0.0
C966 C 0.85014 0.5513 0.97813 0.0
C967 C 0.83423 0.55678 0.97441 0.0
C968 C 0.87831 0.54233 0.97046 0.0
C969 C 0.89599 0.55696 0.9812 0.0
C970 C 0.8777 0.52337 0.96375 0.0
C971 C 0.85924 0.507 0.95262 0.0
C972 C 0.8379 0.49719 0.95682 0.0
C973 C 0.82058 0.48192 0.9462 0.0
C974 C 0.82442 0.4762 0.93138 0.0
C975 C 0.8456 0.48569 0.92717 0.0
C976 C 0.86297 0.50099 0.93774 0.0
C977 C 0.94907 0.52265 0.00576 0.0
C978 C 0.9599 0.51693 0.99497 0.0
C979 C 0.93339 0.52777 1.00058 0.0
C980 C 0.92844 0.52776 0.9845 0.0
C981 C 0.93899 0.52175 0.97366 0.0
C982 C 0.95454 0.51633 0.97884 0.0
C983 C 0.9121 0.53383 0.97912 0.0
C984 C 0.89463 0.51942 0.96811 0.0
C985 C 0.913 0.55313 0.98546 0.0
C986 C 0.93178 0.56989 0.99621 0.0
C987 C 0.95301 0.57878 0.99187 0.0
C988 C 0.97066 0.59435 0.00212 0.0
C989 C 0.96727 0.60129 0.01669 0.0
C990 C 0.94622 0.59272 0.02104 0.0
C991 C 0.92852 0.57712 0.01084 0.0
H992 H 0.98096 0.61335 0.02461 0.0
H993 H 0.81099 0.46437 0.92318 0.0
H994 H 0.43393 0.27612 0.96926 0.0
H995 H 0.44293 0.31403 0.97459 0.0
H996 H 0.50232 0.32878 0.00177 0.0
H997 H 0.493 0.29066 0.99674 0.0
H998 H 0.48256 0.34593 0.01692 0.0
H999 H 0.50153 0.34488 0.96437 0.0
H1000 H 0.49561 0.33175 0.93631 0.0
H1001 H 0.44405 0.34598 0.92962 0.0
H1002 H 0.44946 0.35892 0.95771 0.0
H1003 H 0.5365 0.46068 0.02222 0.0
H1004 H 0.52613 0.42278 0.01503 0.0
H1005 H 0.46443 0.41016 0.99321 0.0
H1006 H 0.47472 0.44822 1.00048 0.0
H1007 H 0.48401 0.39186 0.97515 0.0
H1008 H 0.46588 0.39354 0.02788 0.0
H1009 H 0.47264 0.40722 0.05588 0.0
H1010 H 0.52369 0.39217 0.06203 0.0
H1011 H 0.51745 0.37869 0.034 0.0
C1012 C 0.44892 0.28751 0.97633 0.0
C1013 C 0.46278 0.28054 0.98265 0.0
C1014 C 0.45412 0.30918 0.9793 0.0
C1015 C 0.47342 0.32436 0.98846 0.0
C1016 C 0.48734 0.31739 0.99467 0.0
C1017 C 0.48208 0.29569 0.99177 0.0
C1018 C 0.4788 0.34732 0.99199 0.0
C1019 C 0.48316 0.35603 0.00775 0.0
C1020 C 0.47902 0.36039 0.98008 0.0
C1021 C 0.47575 0.35265 0.96318 0.0
C1022 C 0.48881 0.34504 0.95695 0.0
C1023 C 0.48557 0.33766 0.94103 0.0
C1024 C 0.46942 0.33797 0.9312 0.0
C1025 C 0.45653 0.34572 0.93726 0.0
C1026 C 0.45968 0.35309 0.95317 0.0
C1027 C 0.52072 0.44985 0.01588 0.0
C1028 C 0.50637 0.45735 0.01196 0.0
C1029 C 0.51481 0.42819 0.0118 0.0
C1030 C 0.49443 0.4136 0.00372 0.0
C1031 C 0.48023 0.42116 0.99946 0.0
C1032 C 0.4861 0.44286 0.00363 0.0
C1033 C 0.48796 0.3904 1.00002 0.0
C1034 C 0.48336 0.38167 0.98427 0.0
C1035 C 0.48761 0.37732 0.01192 0.0
C1036 C 0.49132 0.38529 0.02881 0.0
C1037 C 0.47866 0.39331 0.03517 0.0
C1038 C 0.48238 0.401 0.05105 0.0
C1039 C 0.49862 0.40061 0.06072 0.0
C1040 C 0.51114 0.39248 0.05453 0.0
C1041 C 0.5075 0.38479 0.03865 0.0
H1042 H 0.50148 0.40657 0.07301 0.0
H1043 H 0.46694 0.33226 0.91888 0.0
H1044 H 0.20487 0.72441 0.04671 0.0
H1045 H 0.17687 0.68641 0.03893 0.0
H1046 H 0.13151 0.69586 0.0645 0.0
H1047 H 0.1597 0.73372 0.07261 0.0
H1048 H 0.12695 0.65694 0.06862 0.0
H1049 H 0.13001 0.69617 0.02453 0.0
H1050 H 0.14727 0.72068 0.0042 0.0
H1051 H 0.1685 0.67798 0.98546 0.0
H1052 H 0.15161 0.65335 0.00581 0.0
H1053 H 0.03288 0.56199 0.028 0.0
H1054 H 0.0596 0.59939 0.03885 0.0
H1055 H 0.11014 0.59314 0.01832 0.0
H1056 H 0.08369 0.55589 0.00764 0.0
H1057 H 0.11031 0.63072 0.01194 0.0
H1058 H 0.10752 0.59187 0.0567 0.0
H1059 H 0.08895 0.56697 0.0765 0.0
H1060 H 0.06557 0.60867 0.09344 0.0
H1061 H 0.08386 0.63375 0.0736 0.0
C1062 C 0.18896 0.71826 0.05075 0.0
C1063 C 0.18442 0.73195 0.06022 0.0
C1064 C 0.17294 0.69662 0.04625 0.0
C1065 C 0.15194 0.68833 0.05093 0.0
C1066 C 0.14754 0.70187 0.06072 0.0
C1067 C 0.16362 0.7235 0.0653 0.0
C1068 C 0.1345 0.66576 0.04525 0.0
C1069 C 0.12312 0.6513 0.05621 0.0
C1070 C 0.12957 0.65826 0.02906 0.0
C1071 C 0.13972 0.67302 0.01679 0.0
C1072 C 0.1385 0.69209 0.01614 0.0
C1073 C 0.14819 0.70599 0.00461 0.0
C1074 C 0.15902 0.70092 0.99357 0.0
C1075 C 0.16013 0.68191 0.99403 0.0
C1076 C 0.15048 0.66796 0.00555 0.0
C1077 C 0.04973 0.56856 0.02596 0.0
C1078 C 0.05623 0.55607 0.01699 0.0
C1079 C 0.06496 0.58989 0.03215 0.0
C1080 C 0.08687 0.59902 0.0294 0.0
C1081 C 0.09333 0.58644 0.02054 0.0
C1082 C 0.0782 0.56515 0.01447 0.0
C1083 C 0.10308 0.62187 0.03529 0.0
C1084 C 0.11414 0.6364 0.02434 0.0
C1085 C 0.10757 0.62941 0.05144 0.0
C1086 C 0.09687 0.61457 0.06356 0.0
C1087 C 0.0983 0.59566 0.06458 0.0
C1088 C 0.08783 0.58152 0.07582 0.0
C1089 C 0.07599 0.58617 0.08618 0.0
C1090 C 0.07471 0.60506 0.08538 0.0
C1091 C 0.08515 0.61927 0.07416 0.0
H1092 H 0.06785 0.57518 0.09485 0.0
H1093 H 0.16651 0.71171 0.98465 0.0
H1094 H 0.30058 0.45999 0.09374 0.0
H1095 H 0.33671 0.47011 0.08596 0.0
H1096 H 0.31018 0.45226 0.03741 0.0
H1097 H 0.27414 0.44207 0.04518 0.0
H1098 H 0.33586 0.43525 0.04516 0.0
H1099 H 0.34102 0.50585 0.05216 0.0
H1100 H 0.339 0.5353 0.06717 0.0
H1101 H 0.38735 0.54107 0.10242 0.0
H1102 H 0.3896 0.51158 0.08764 0.0
H1103 H 0.42974 0.47952 0.00563 0.0
H1104 H 0.39549 0.4705 0.01592 0.0
H1105 H 0.42893 0.49679 0.06233 0.0
H1106 H 0.46346 0.5066 0.05196 0.0
H1107 H 0.40045 0.5089 0.05763 0.0
H1108 H 0.39747 0.44064 0.05122 0.0
H1109 H 0.39981 0.41052 0.03762 0.0
H1110 H 0.3477 0.3987 0.00347 0.0
H1111 H 0.34525 0.42896 0.01674 0.0
C1112 C 0.3026 0.45847 0.08141 0.0
C1113 C 0.28466 0.45046 0.07005 0.0
C1114 C 0.32319 0.46426 0.07697 0.0
C1115 C 0.3262 0.4621 0.06108 0.0
C1116 C 0.30827 0.45408 0.04973 0.0
C1117 C 0.28771 0.44837 0.05417 0.0
C1118 C 0.34787 0.46763 0.05622 0.0
C1119 C 0.34993 0.45142 0.04771 0.0
C1120 C 0.36645 0.48848 0.06009 0.0
C1121 C 0.36533 0.50639 0.06887 0.0
C1122 C 0.35114 0.51334 0.06315 0.0
C1123 C 0.35 0.53006 0.0716 0.0
C1124 C 0.36304 0.54004 0.08575 0.0
C1125 C 0.37731 0.53336 0.09144 0.0
C1126 C 0.37855 0.51667 0.08303 0.0
C1127 C 0.42985 0.48332 0.01804 0.0
C1128 C 0.44938 0.49365 0.02798 0.0
C1129 C 0.41019 0.47805 0.02395 0.0
C1130 C 0.40948 0.48256 0.03999 0.0
C1131 C 0.42899 0.49305 0.04992 0.0
C1132 C 0.44874 0.49858 0.04398 0.0
C1133 C 0.3884 0.4766 0.04626 0.0
C1134 C 0.38644 0.49268 0.05509 0.0
C1135 C 0.36997 0.4555 0.0429 0.0
C1136 C 0.3713 0.4372 0.03491 0.0
C1137 C 0.38661 0.43172 0.04075 0.0
C1138 C 0.38794 0.41461 0.0331 0.0
C1139 C 0.37394 0.40274 0.01967 0.0
C1140 C 0.35854 0.40792 0.01387 0.0
C1141 C 0.35716 0.42504 0.02146 0.0
H1142 H 0.375 0.38949 0.01376 0.0
H1143 H 0.3621 0.55296 0.09229 0.0
H1144 H 0.582 0.86107 0.06294 0.0
H1145 H 0.57177 0.88741 0.05478 0.0
H1146 H 0.51242 0.83508 0.0301 0.0
H1147 H 0.52297 0.80875 0.03794 0.0
H1148 H 0.53026 0.86724 0.01254 0.0
H1149 H 0.51329 0.86172 0.06568 0.0
H1150 H 0.51979 0.86222 0.09427 0.0
H1151 H 0.57051 0.92906 0.09706 0.0
H1152 H 0.56452 0.92888 0.06844 0.0
H1153 H 0.47739 0.92867 0.00152 0.0
H1154 H 0.48722 0.90224 0.01017 0.0
H1155 H 0.54976 0.95474 0.03025 0.0
H1156 H 0.54007 0.98127 0.02146 0.0
H1157 H 0.52991 0.92254 0.05026 0.0
H1158 H 0.54621 0.92727 0.99659 0.0
H1159 H 0.53828 0.92625 0.9681 0.0
H1160 H 0.48689 0.85986 0.96661 0.0
H1161 H 0.49433 0.86058 0.99515 0.0
C1162 C 0.56671 0.85521 0.05586 0.0
C1163 C 0.55312 0.83287 0.05121 0.0
C1164 C 0.56082 0.87025 0.05125 0.0
C1165 C 0.54114 0.86323 0.04201 0.0
C1166 C 0.52763 0.8409 0.03728 0.0
C1167 C 0.53358 0.82587 0.04181 0.0
C1168 C 0.53497 0.87923 0.03692 0.0
C1169 C 0.52988 0.87911 0.02083 0.0
C1170 C 0.53489 0.89506 0.04767 0.0
C1171 C 0.5386 0.89521 0.06488 0.0
C1172 C 0.52596 0.87647 0.07237 0.0
C1173 C 0.52953 0.87671 0.08859 0.0
C1174 C 0.54559 0.89564 0.09747 0.0
C1175 C 0.5581 0.9144 0.09016 0.0
C1176 C 0.55461 0.91424 0.07394 0.0
C1177 C 0.49327 0.93457 0.00772 0.0
C1178 C 0.50796 0.95701 0.01087 0.0
C1179 C 0.49887 0.91946 0.01264 0.0
C1180 C 0.51927 0.92652 0.02078 0.0
C1181 C 0.53392 0.94895 0.02402 0.0
C1182 C 0.52838 0.96407 0.019 0.0
C1183 C 0.52526 0.91048 0.02594 0.0
C1184 C 0.5303 0.91062 0.04201 0.0
C1185 C 0.52512 0.89455 0.01521 0.0
C1186 C 0.52069 0.89405 0.99803 0.0
C1187 C 0.53311 0.91251 0.99021 0.0
C1188 C 0.52872 0.91198 0.97405 0.0
C1189 C 0.51206 0.89302 0.96556 0.0
C1190 C 0.49978 0.87454 0.97321 0.0
C1191 C 0.50408 0.875 0.98937 0.0
H1192 H 0.50869 0.89264 0.95305 0.0
H1193 H 0.54832 0.8958 0.11003 0.0
H1194 H 0.93486 0.16486 0.38652 0.0
H1195 H 0.96762 0.19392 0.37721 0.0
H1196 H 0.00626 0.19214 0.41714 0.0
H1197 H 0.9734 0.16374 0.42677 0.0
H1198 H 0.02034 0.23184 0.41285 0.0
H1199 H 0.00337 0.16891 0.37848 0.0
H1200 H 0.98059 0.13654 0.35969 0.0
H1201 H 0.97342 0.17667 0.32713 0.0
H1202 H 0.99594 0.20926 0.34582 0.0
H1203 H 0.12316 0.28815 0.38405 0.0
H1204 H 0.08948 0.26069 0.39301 0.0
H1205 H 0.0529 0.26937 0.35511 0.0
H1206 H 0.08676 0.29676 0.34585 0.0
H1207 H 0.03744 0.22704 0.35814 0.0
H1208 H 0.05789 0.29085 0.39379 0.0
H1209 H 0.08271 0.32182 0.41309 0.0
H1210 H 0.08541 0.27783 0.44411 0.0
H1211 H 0.06102 0.24664 0.42486 0.0
C1212 C 0.95038 0.17068 0.39326 0.0
C1213 C 0.95163 0.16204 0.40734 0.0
C1214 C 0.96913 0.18722 0.38791 0.0
C1215 C 0.98957 0.19506 0.39631 0.0
C1216 C 0.99075 0.18646 0.41043 0.0
C1217 C 0.97197 0.17021 0.41593 0.0
C1218 C 0.00971 0.21234 0.39053 0.0
C1219 C 0.02416 0.23062 0.40093 0.0
C1220 C 0.01466 0.21105 0.3749 0.0
C1221 C 1.00115 0.19149 0.36362 0.0
C1222 C 0.9968 0.17081 0.36736 0.0
C1223 C 0.98396 0.15243 0.35672 0.0
C1224 C 0.97551 0.15454 0.34225 0.0
C1225 C 0.97995 0.17505 0.33836 0.0
C1226 C 0.99276 0.19349 0.34897 0.0
C1227 C 0.108 0.28446 0.37768 0.0
C1228 C 0.10773 0.29489 0.36431 0.0
C1229 C 0.08869 0.2687 0.38285 0.0
C1230 C 0.06859 0.26319 0.37492 0.0
C1231 C 0.06821 0.27342 0.36148 0.0
C1232 C 0.08759 0.28911 0.35621 0.0
C1233 C 0.04803 0.24643 0.38047 0.0
C1234 C 0.03352 0.22826 0.37003 0.0
C1235 C 0.04325 0.24761 0.39616 0.0
C1236 C 0.05775 0.26641 0.40781 0.0
C1237 C 0.06391 0.28779 0.40467 0.0
C1238 C 0.07792 0.30539 0.4156 0.0
C1239 C 0.08572 0.30181 0.42979 0.0
C1240 C 0.07944 0.2806 0.43309 0.0
C1241 C 0.06552 0.26295 0.42218 0.0
H1242 H 0.09657 0.31545 0.43823 0.0
H1243 H 0.96557 0.14029 0.33403 0.0
H1244 H 0.86048 0.81994 0.43667 0.0
H1245 H 0.83033 0.82288 0.42457 0.0
H1246 H 0.82812 0.78487 0.38277 0.0
H1247 H 0.8586 0.78209 0.39481 0.0
H1248 H 0.82211 0.81818 0.37559 0.0
H1249 H 0.79152 0.76109 0.40955 0.0
H1250 H 0.78932 0.74512 0.43459 0.0
H1251 H 0.77863 0.79374 0.45742 0.0
H1252 H 0.78079 0.81005 0.43252 0.0
H1253 H 0.71776 0.79657 0.34482 0.0
H1254 H 0.74745 0.79151 0.35519 0.0
H1255 H 0.75346 0.82855 0.39865 0.0
H1256 H 0.72366 0.8334 0.38853 0.0
H1257 H 0.7568 0.79373 0.40423 0.0
H1258 H 0.78819 0.85138 0.37079 0.0
H1259 H 0.79152 0.86842 0.34613 0.0
H1260 H 0.80177 0.81983 0.32267 0.0
H1261 H 0.79817 0.80231 0.34716 0.0
C1262 C 0.8536 0.81224 0.42488 0.0
C1263 C 0.86174 0.80057 0.41675 0.0
C1264 C 0.83635 0.8139 0.41799 0.0
C1265 C 0.82663 0.80369 0.40289 0.0
C1266 C 0.83529 0.79278 0.39446 0.0
C1267 C 0.85271 0.79124 0.40133 0.0
C1268 C 0.80713 0.80402 0.39614 0.0
C1269 C 0.80769 0.8125 0.38172 0.0
C1270 C 0.78846 0.79701 0.40429 0.0
C1271 C 0.78644 0.78685 0.41918 0.0
C1272 C 0.78872 0.76839 0.41992 0.0
C1273 C 0.78745 0.75927 0.43408 0.0
C1274 C 0.7838 0.7684 0.44758 0.0
C1275 C 0.78134 0.78663 0.44694 0.0
C1276 C 0.78253 0.79579 0.43279 0.0
C1277 C 0.72529 0.80352 0.35662 0.0
C1278 C 0.71836 0.81548 0.36579 0.0
C1279 C 0.74235 0.80069 0.36251 0.0
C1280 C 0.7529 0.80989 0.37763 0.0
C1281 C 0.74561 0.82132 0.38695 0.0
C1282 C 0.72857 0.82413 0.3811 0.0
C1283 C 0.7718 0.80803 0.3837 0.0
C1284 C 0.77114 0.79925 0.39802 0.0
C1285 C 0.79039 0.81483 0.37547 0.0
C1286 C 0.79267 0.8254 0.36076 0.0
C1287 C 0.79098 0.84423 0.36034 0.0
C1288 C 0.79295 0.85399 0.3464 0.0
C1289 C 0.7968 0.84518 0.33283 0.0
C1290 C 0.79875 0.82662 0.33319 0.0
C1291 C 0.79676 0.81677 0.3471 0.0
H1292 H 0.79832 0.85276 0.32205 0.0
H1293 H 0.78287 0.76133 0.45854 0.0
H1294 H 0.24566 0.07064 0.40965 0.0
H1295 H 0.23871 0.03526 0.39806 0.0
H1296 H 0.1776 0.02279 0.37517 0.0
H1297 H 0.18437 0.05813 0.38691 0.0
H1298 H 0.17398 0.988 0.39034 0.0
H1299 H 0.21929 0.0356 0.35417 0.0
H1300 H 0.25183 0.0673 0.34641 0.0
H1301 H 0.29186 0.04327 0.36562 0.0
H1302 H 0.25958 0.01157 0.3737 0.0
H1303 H 0.14908 0.89614 0.33865 0.0
H1304 H 0.15763 0.93213 0.34993 0.0
H1305 H 0.22046 0.94466 0.36922 0.0
H1306 H 0.21218 0.90876 0.35748 0.0
H1307 H 0.2238 0.97945 0.35658 0.0
H1308 H 0.17866 0.93107 0.3919 0.0
H1309 H 0.14624 0.89904 0.39941 0.0
H1310 H 0.10622 0.92437 0.38267 0.0
H1311 H 0.1383 0.9563 0.37463 0.0
C1312 C 0.23075 0.06037 0.40213 0.0
C1313 C 0.21553 0.06714 0.3992 0.0
C1314 C 0.22686 0.04022 0.39545 0.0
C1315 C 0.20767 0.02642 0.3857 0.0
C1316 C 0.19251 0.0332 0.38265 0.0
C1317 C 0.19647 0.05344 0.38925 0.0
C1318 C 0.20323 0.00473 0.379 0.0
C1319 C 0.1847 0.98611 0.38278 0.0
C1320 C 0.21761 0.00228 0.36955 0.0
C1321 C 0.23704 0.02132 0.36469 0.0
C1322 C 0.23505 0.03717 0.35687 0.0
C1323 C 0.25344 0.05512 0.35238 0.0
C1324 C 0.2739 0.05733 0.35556 0.0
C1325 C 0.276 0.04156 0.36319 0.0
C1326 C 0.25766 0.02359 0.36771 0.0
C1327 C 0.16473 0.90656 0.34529 0.0
C1328 C 0.17991 0.89961 0.34731 0.0
C1329 C 0.16955 0.92709 0.3518 0.0
C1330 C 0.18955 0.94099 0.36065 0.0
C1331 C 0.20488 0.93417 0.36251 0.0
C1332 C 0.2001 0.91364 0.35589 0.0
C1333 C 0.19443 0.96266 0.36781 0.0
C1334 C 0.21308 0.98129 0.36416 0.0
C1335 C 0.18021 0.9651 0.37747 0.0
C1336 C 0.1609 0.94603 0.38252 0.0
C1337 C 0.16294 0.92976 0.3897 0.0
C1338 C 0.14462 0.91162 0.39407 0.0
C1339 C 0.1242 0.90967 0.39153 0.0
C1340 C 0.12205 0.92589 0.38462 0.0
C1341 C 0.1403 0.94401 0.38014 0.0
H1342 H 0.11004 0.89561 0.39493 0.0
H1343 H 0.28812 0.07123 0.35207 0.0
H1344 H 0.46522 0.61907 0.29682 0.0
H1345 H 0.49431 0.65352 0.3104 0.0
H1346 H 0.54201 0.64199 0.29024 0.0
H1347 H 0.51304 0.60733 0.27692 0.0
H1348 H 0.55439 0.65818 0.32097 0.0
H1349 H 0.52813 0.67599 0.27462 0.0
H1350 H 0.50052 0.67607 0.25598 0.0
H1351 H 0.48416 0.70806 0.2921 0.0
H1352 H 0.51147 0.70789 0.31103 0.0
H1353 H 0.64346 0.76725 0.33564 0.0
H1354 H 0.6153 0.73141 0.32321 0.0
H1355 H 0.56595 0.74263 0.34074 0.0
H1356 H 0.59396 0.7786 0.35277 0.0
H1357 H 0.5548 0.72635 0.31102 0.0
H1358 H 0.58113 0.70845 0.35747 0.0
H1359 H 0.60885 0.70839 0.37601 0.0
H1360 H 0.62529 0.67675 0.33969 0.0
H1361 H 0.59785 0.67687 0.32087 0.0
C1362 C 0.48191 0.62373 0.29545 0.0
C1363 C 0.48681 0.61054 0.28569 0.0
C1364 C 0.49851 0.6435 0.30312 0.0
C1365 C 0.52033 0.65047 0.30116 0.0
C1366 C 0.5253 0.63699 0.29186 0.0
C1367 C 0.50872 0.61727 0.28416 0.0
C1368 C 0.53794 0.67208 0.30847 0.0
C1369 C 0.55463 0.67312 0.31866 0.0
C1370 C 0.53809 0.69155 0.30565 0.0
C1371 C 0.52169 0.69172 0.29428 0.0
C1372 C 0.51852 0.68288 0.27862 0.0
C1373 C 0.50295 0.68297 0.268 0.0
C1374 C 0.49055 0.69201 0.27286 0.0
C1375 C 0.49375 0.70103 0.28835 0.0
C1376 C 0.50928 0.70095 0.29903 0.0
C1377 C 0.6266 0.76205 0.33679 0.0
C1378 C 0.62088 0.77571 0.34512 0.0
C1379 C 0.61052 0.74152 0.32978 0.0
C1380 C 0.58847 0.73421 0.33115 0.0
C1381 C 0.58282 0.74789 0.3395 0.0
C1382 C 0.59885 0.76841 0.34643 0.0
C1383 C 0.57119 0.7125 0.32368 0.0
C1384 C 0.55458 0.71143 0.31338 0.0
C1385 C 0.57115 0.69304 0.32642 0.0
C1386 C 0.58759 0.69287 0.33773 0.0
C1387 C 0.59077 0.70163 0.35341 0.0
C1388 C 0.60642 0.70156 0.36397 0.0
C1389 C 0.61887 0.69263 0.35902 0.0
C1390 C 0.61566 0.68369 0.3435 0.0
C1391 C 0.60005 0.68374 0.33289 0.0
H1392 H 0.63097 0.69259 0.36722 0.0
H1393 H 0.47851 0.69207 0.26462 0.0
H1394 H 0.3809 0.85333 0.28495 0.0
H1395 H 0.34852 0.85074 0.29517 0.0
H1396 H 0.36435 0.91264 0.27886 0.0
H1397 H 0.39699 0.91553 0.26888 0.0
H1398 H 0.35105 0.90998 0.30764 0.0
H1399 H 0.32616 0.8673 0.2587 0.0
H1400 H 0.3209 0.83929 0.2379 0.0
H1401 H 0.28728 0.78932 0.26805 0.0
H1402 H 0.29266 0.81708 0.28916 0.0
H1403 H 0.22353 0.85575 0.3019 0.0
H1404 H 0.25682 0.86334 0.2906 0.0
H1405 H 0.29045 0.87842 0.3371 0.0
H1406 H 0.25734 0.87173 0.34846 0.0
H1407 H 0.279 0.84486 0.29113 0.0
H1408 H 0.34394 0.9132 0.33726 0.0
H1409 H 0.3481 0.94409 0.35473 0.0
H1410 H 0.30001 0.94774 0.32462 0.0
H1411 H 0.29577 0.91708 0.30687 0.0
C1412 C 0.3776 0.86649 0.28368 0.0
C1413 C 0.39146 0.88459 0.27604 0.0
C1414 C 0.35901 0.86492 0.28942 0.0
C1415 C 0.35389 0.8814 0.28765 0.0
C1416 C 0.36794 0.89971 0.28033 0.0
C1417 C 0.38649 0.90125 0.27452 0.0
C1418 C 0.33372 0.87934 0.29325 0.0
C1419 C 0.33528 0.89574 0.30407 0.0
C1420 C 0.31306 0.86111 0.28818 0.0
C1421 C 0.31005 0.84433 0.2756 0.0
C1422 C 0.3179 0.85037 0.26099 0.0
C1423 C 0.31485 0.83453 0.24912 0.0
C1424 C 0.30383 0.81254 0.25167 0.0
C1425 C 0.29584 0.80636 0.2661 0.0
C1426 C 0.29888 0.82215 0.27802 0.0
C1427 C 0.23807 0.8609 0.30974 0.0
C1428 C 0.23781 0.86324 0.32609 0.0
C1429 C 0.25711 0.86517 0.30325 0.0
C1430 C 0.27631 0.87166 0.31294 0.0
C1431 C 0.27605 0.87393 0.32931 0.0
C1432 C 0.25707 0.87001 0.33581 0.0
C1433 C 0.29629 0.87524 0.30593 0.0
C1434 C 0.29472 0.85912 0.29478 0.0
C1435 C 0.31682 0.89411 0.31028 0.0
C1436 C 0.31939 0.91269 0.32083 0.0
C1437 C 0.33431 0.92065 0.33434 0.0
C1438 C 0.33667 0.93811 0.34429 0.0
C1439 C 0.32428 0.94783 0.34081 0.0
C1440 C 0.30954 0.94015 0.32734 0.0
C1441 C 0.30713 0.92271 0.31734 0.0
H1442 H 0.32612 0.96133 0.34854 0.0
H1443 H 0.30142 0.80029 0.24245 0.0
H1444 H 0.10997 0.49227 0.27975 0.0
H1445 H 0.11519 0.4643 0.29114 0.0
H1446 H 0.17441 0.51415 0.31755 0.0
H1447 H 0.16954 0.54225 0.30591 0.0
H1448 H 0.17919 0.48131 0.30382 0.0
H1449 H 0.12875 0.48773 0.3353 0.0
H1450 H 0.09523 0.48813 0.34 0.0
H1451 H 0.0569 0.42239 0.31854 0.0
H1452 H 0.09022 0.4217 0.31351 0.0
H1453 H 0.19548 0.41918 0.35821 0.0
H1454 H 0.1889 0.44571 0.34592 0.0
H1455 H 0.12768 0.39374 0.32328 0.0
H1456 H 0.13373 0.36716 0.33632 0.0
H1457 H 0.12337 0.42666 0.33379 0.0
H1458 H 0.17473 0.41935 0.30447 0.0
H1459 H 0.20873 0.41922 0.3011 0.0
H1460 H 0.24585 0.48686 0.31827 0.0
H1461 H 0.21219 0.48729 0.32239 0.0
C1462 C 0.12418 0.49729 0.28791 0.0
C1463 C 0.13934 0.5195 0.29193 0.0
C1464 C 0.12706 0.48128 0.29449 0.0
C1465 C 0.14511 0.48712 0.30528 0.0
C1466 C 0.16035 0.50927 0.30926 0.0
C1467 C 0.15744 0.52531 0.30271 0.0
C1468 C 0.14807 0.47015 0.31246 0.0
C1469 C 0.16712 0.46949 0.31052 0.0
C1470 C 0.13203 0.45438 0.32084 0.0
C1471 C 0.11198 0.45475 0.32388 0.0
C1472 C 0.11317 0.47342 0.33146 0.0
C1473 C 0.09421 0.47369 0.33421 0.0
C1474 C 0.07394 0.45532 0.32953 0.0
C1475 C 0.0726 0.43662 0.32213 0.0
C1476 C 0.09152 0.43627 0.31934 0.0
C1477 C 0.18056 0.4134 0.35067 0.0
C1478 C 0.16527 0.39107 0.34799 0.0
C1479 C 0.1769 0.42858 0.34354 0.0
C1480 C 0.15805 0.42171 0.33334 0.0
C1481 C 0.14246 0.39942 0.33097 0.0
C1482 C 0.146 0.38423 0.3383 0.0
C1483 C 0.15461 0.43786 0.32529 0.0
C1484 C 0.13543 0.43836 0.32701 0.0
C1485 C 0.17057 0.45346 0.3167 0.0
C1486 C 0.19085 0.45331 0.31386 0.0
C1487 C 0.19012 0.43418 0.30764 0.0
C1488 C 0.20934 0.43404 0.3056 0.0
C1489 C 0.22938 0.45301 0.30941 0.0
C1490 C 0.23029 0.47217 0.31532 0.0
C1491 C 0.21115 0.47236 0.31755 0.0
H1492 H 0.24421 0.45285 0.30777 0.0
H1493 H 0.05928 0.45556 0.33167 0.0
H1494 H 0.37612 0.50851 0.27229 0.0
H1495 H 0.34048 0.48306 0.2805 0.0
H1496 H 0.37123 0.48359 0.32547 0.0
H1497 H 0.40677 0.50895 0.3173 0.0
H1498 H 0.34263 0.44257 0.31262 0.0
H1499 H 0.34327 0.51023 0.32159 0.0
H1500 H 0.34608 0.54459 0.3146 0.0
H1501 H 0.29142 0.50909 0.27984 0.0
H1502 H 0.2885 0.47452 0.28644 0.0
H1503 H 0.25106 0.38843 0.35425 0.0
H1504 H 0.28519 0.41538 0.34533 0.0
H1505 H 0.25082 0.4153 0.30221 0.0
H1506 H 0.21651 0.38857 0.31116 0.0
H1507 H 0.28071 0.45579 0.31317 0.0
H1508 H 0.27978 0.38851 0.30345 0.0
H1509 H 0.2763 0.35367 0.30991 0.0
H1510 H 0.33075 0.38774 0.345 0.0
H1511 H 0.33437 0.42278 0.3389 0.0
C1512 C 0.37516 0.50344 0.28401 0.0
C1513 C 0.39412 0.51101 0.29428 0.0
C1514 C 0.35484 0.48892 0.28869 0.0
C1515 C 0.35316 0.48158 0.30367 0.0
C1516 C 0.37212 0.48909 0.31389 0.0
C1517 C 0.39239 0.50366 0.30925 0.0
C1518 C 0.3318 0.46538 0.3085 0.0
C1519 C 0.32917 0.44558 0.31292 0.0
C1520 C 0.31401 0.46899 0.30841 0.0
C1521 C 0.31586 0.4898 0.30436 0.0
C1522 C 0.332 0.50976 0.31233 0.0
C1523 C 0.33358 0.52927 0.30846 0.0
C1524 C 0.31899 0.52903 0.29674 0.0
C1525 C 0.30275 0.50926 0.28889 0.0
C1526 C 0.30112 0.4897 0.29269 0.0
C1527 C 0.25071 0.39406 0.34285 0.0
C1528 C 0.23102 0.38616 0.33338 0.0
C1529 C 0.27029 0.40945 0.33773 0.0
C1530 C 0.27065 0.41713 0.32298 0.0
C1531 C 0.25098 0.40955 0.3136 0.0
C1532 C 0.23137 0.39418 0.31873 0.0
C1533 C 0.29158 0.43306 0.31738 0.0
C1534 C 0.29413 0.45275 0.3128 0.0
C1535 C 0.30926 0.42929 0.31717 0.0
C1536 C 0.30722 0.40826 0.32081 0.0
C1537 C 0.29091 0.38856 0.31262 0.0
C1538 C 0.28893 0.36878 0.31621 0.0
C1539 C 0.30326 0.36849 0.32789 0.0
C1540 C 0.31964 0.38799 0.33597 0.0
C1541 C 0.32168 0.40782 0.33244 0.0
H1542 H 0.30169 0.35316 0.33065 0.0
H1543 H 0.32022 0.54416 0.29378 0.0
H1544 H 0.49426 0.88097 0.26934 0.0
H1545 H 0.52314 0.87235 0.27505 0.0
H1546 H 0.51965 0.88197 0.32464 0.0
H1547 H 0.49094 0.89062 0.31895 0.0
H1548 H 0.56121 0.90369 0.3169 0.0
H1549 H 0.49853 0.83111 0.30548 0.0
H1550 H 0.46678 0.80167 0.28898 0.0
H1551 H 0.50765 0.80382 0.25361 0.0
H1552 H 0.53961 0.8335 0.26981 0.0
H1553 H 0.6198 0.86045 0.35275 0.0
H1554 H 0.59219 0.86851 0.34286 0.0
H1555 H 0.59785 0.84949 0.29552 0.0
H1556 H 0.62512 0.8406 0.30545 0.0
H1557 H 0.55699 0.83398 0.29919 0.0
H1558 H 0.61959 0.90407 0.3098 0.0
H1559 H 0.65232 0.93412 0.325 0.0
H1560 H 0.61342 0.93833 0.35976 0.0
H1561 H 0.58047 0.90808 0.34488 0.0
C1562 C 0.49952 0.88092 0.28143 0.0
C1563 C 0.49025 0.88619 0.29371 0.0
C1564 C 0.51598 0.87601 0.28469 0.0
C1565 C 0.52346 0.87638 0.30028 0.0
C1566 C 0.51412 0.88156 0.31253 0.0
C1567 C 0.49766 0.8864 0.30928 0.0
C1568 C 0.54155 0.87214 0.30397 0.0
C1569 C 0.56021 0.88836 0.31317 0.0
C1570 C 0.54064 0.85252 0.29851 0.0
C1571 C 0.52141 0.8347 0.28878 0.0
C1572 C 0.50071 0.82544 0.29412 0.0
C1573 C 0.48269 0.80868 0.28483 0.0
C1574 C 0.48519 0.80093 0.27023 0.0
C1575 C 0.50573 0.80987 0.2649 0.0
C1576 C 0.5238 0.82666 0.27414 0.0
C1577 C 0.61532 0.85809 0.34021 0.0
C1578 C 0.62482 0.85003 0.32988 0.0
C1579 C 0.59955 0.86281 0.33455 0.0
C1580 C 0.59319 0.86005 0.31839 0.0
C1581 C 0.60253 0.85186 0.30803 0.0
C1582 C 0.61817 0.84684 0.31372 0.0
C1583 C 0.57647 0.86532 0.31251 0.0
C1584 C 0.55812 0.84939 0.30284 0.0
C1585 C 0.5778 0.88537 0.3173 0.0
C1586 C 0.59757 0.90368 0.32627 0.0
C1587 C 0.61802 0.9113 0.32074 0.0
C1588 C 0.63661 0.92838 0.32929 0.0
C1589 C 0.63495 0.9381 0.34336 0.0
C1590 C 0.61468 0.93078 0.34887 0.0
C1591 C 0.59604 0.91368 0.34037 0.0
H1592 H 0.64937 0.95132 0.34996 0.0
H1593 H 0.47121 0.78794 0.26306 0.0
H1594 H 0.10055 0.60893 0.2949 0.0
H1595 H 0.1089 0.64641 0.30153 0.0
H1596 H 0.1705 0.66192 0.32552 0.0
H1597 H 0.16186 0.62421 0.31922 0.0
H1598 H 0.1514 0.6778 0.34274 0.0
H1599 H 0.16599 0.67888 0.28884 0.0
H1600 H 0.15787 0.66656 0.26055 0.0
H1601 H 0.10508 0.67938 0.2582 0.0
H1602 H 0.1127 0.69149 0.28653 0.0
H1603 H 0.20309 0.79223 0.35066 0.0
H1604 H 0.19305 0.75483 0.34195 0.0
H1605 H 0.12989 0.74187 0.32321 0.0
H1606 H 0.13987 0.77947 0.33199 0.0
H1607 H 0.1482 0.72453 0.30317 0.0
H1608 H 0.13435 0.72415 0.35709 0.0
H1609 H 0.14306 0.73695 0.3853 0.0
H1610 H 0.19514 0.72307 0.38743 0.0
H1611 H 0.18694 0.71048 0.35917 0.0
C1612 C 0.11593 0.62041 0.30148 0.0
C1613 C 0.13069 0.61379 0.30641 0.0
C1614 C 0.12074 0.64184 0.30522 0.0
C1615 C 0.14048 0.65712 0.31385 0.0
C1616 C 0.15521 0.65047 0.31881 0.0
C1617 C 0.15034 0.629 0.31515 0.0
C1618 C 0.14551 0.67984 0.31816 0.0
C1619 C 0.15098 0.68808 0.33404 0.0
C1620 C 0.14436 0.69312 0.30688 0.0
C1621 C 0.13978 0.68588 0.28984 0.0
C1622 C 0.15254 0.67891 0.28232 0.0
C1623 C 0.14805 0.67199 0.26627 0.0
C1624 C 0.13093 0.67213 0.25759 0.0
C1625 C 0.11831 0.67924 0.26494 0.0
C1626 C 0.12272 0.68615 0.28099 0.0
C1627 C 0.18707 0.78144 0.34465 0.0
C1628 C 0.17221 0.78871 0.34207 0.0
C1629 C 0.18135 0.76007 0.3397 0.0
C1630 C 0.16064 0.74548 0.3321 0.0
C1631 C 0.14594 0.75285 0.32909 0.0
C1632 C 0.15164 0.77429 0.33411 0.0
C1633 C 0.15432 0.72245 0.32768 0.0
C1634 C 0.14857 0.71417 0.31183 0.0
C1635 C 0.15526 0.70912 0.33896 0.0
C1636 C 0.16015 0.71655 0.35598 0.0
C1637 C 0.14777 0.72399 0.36355 0.0
C1638 C 0.15259 0.73118 0.37955 0.0
C1639 C 0.16967 0.73087 0.38814 0.0
C1640 C 0.18193 0.72332 0.38075 0.0
C1641 C 0.17719 0.71613 0.36475 0.0
H1642 H 0.17339 0.73645 0.40053 0.0
H1643 H 0.12748 0.66677 0.24517 0.0
H1644 H 0.82493 0.06866 0.39616 0.0
H1645 H 0.79691 0.03051 0.3892 0.0
H1646 H 0.84377 0.01811 0.36845 0.0
H1647 H 0.87168 0.05647 0.37504 0.0
H1648 H 0.80746 1.00028 0.34973 0.0
H1649 H 0.82553 1.001 0.40461 0.0
H1650 H 0.83126 0.01388 0.43271 0.0
H1651 H 0.76462 0.99746 0.43177 0.0
H1652 H 0.75856 0.98476 0.40359 0.0
H1653 H 0.74737 0.88562 0.34115 0.0
H1654 H 0.77467 0.92326 0.3503 0.0
H1655 H 0.72498 0.93413 0.36752 0.0
H1656 H 0.69751 0.89627 0.35845 0.0
H1657 H 0.76188 0.95271 0.38824 0.0
H1658 H 0.74403 0.95205 0.33334 0.0
H1659 H 0.73845 0.93914 0.30526 0.0
H1660 H 0.8051 0.95551 0.30644 0.0
H1661 H 0.81101 0.96824 0.3346 0.0
C1662 C 0.82923 0.05773 0.39018 0.0
C1663 C 0.85047 0.06541 0.38621 0.0
C1664 C 0.81326 0.03592 0.38628 0.0
C1665 C 0.81827 0.02132 0.37848 0.0
C1666 C 0.83951 0.02903 0.3745 0.0
C1667 C 0.85545 0.05087 0.37831 0.0
C1668 C 0.80125 0.99819 0.374 0.0
C1669 C 0.79773 0.98982 0.35822 0.0
C1670 C 0.78809 0.98465 0.38497 0.0
C1671 C 0.79165 0.99212 0.40194 0.0
C1672 C 0.81214 1.00028 0.41036 0.0
C1673 C 0.81544 0.00753 0.42631 0.0
C1674 C 0.79833 0.00654 0.43401 0.0
C1675 C 0.77786 0.99825 0.42578 0.0
C1676 C 0.77448 0.991 0.40983 0.0
C1677 C 0.74226 0.89601 0.34692 0.0
C1678 C 0.72031 0.8881 0.34899 0.0
C1679 C 0.75787 0.91753 0.35212 0.0
C1680 C 0.75183 0.93161 0.35941 0.0
C1681 C 0.72998 0.92356 0.3619 0.0
C1682 C 0.71432 0.90198 0.35668 0.0
C1683 C 0.76832 0.95484 0.36404 0.0
C1684 C 0.77166 0.96323 0.3798 0.0
C1685 C 0.78138 0.96842 0.35308 0.0
C1686 C 0.77791 0.96092 0.33611 0.0
C1687 C 0.75746 0.95275 0.32764 0.0
C1688 C 0.75424 0.94549 0.3117 0.0
C1689 C 0.7714 0.94645 0.30408 0.0
C1690 C 0.79183 0.95475 0.31237 0.0
C1691 C 0.79512 0.96201 0.32831 0.0
H1692 H 0.76887 0.94082 0.29174 0.0
H1693 H 0.80092 0.01215 0.44636 0.0
H1694 H 0.96683 0.79343 0.42811 0.0
H1695 H 1.00255 0.80248 0.42002 0.0
H1696 H 0.97772 0.7944 0.37155 0.0
H1697 H 0.94204 0.78525 0.37962 0.0
H1698 H 1.00029 0.77306 0.37632 0.0
H1699 H 0.0125 0.84602 0.38964 0.0
H1700 H 0.01178 0.874 0.40755 0.0
H1701 H 0.05346 0.86783 0.44248 0.0
H1702 H 0.05467 0.84001 0.42469 0.0
H1703 H 0.09595 0.81684 0.3391 0.0
H1704 H 0.06204 0.80929 0.3493 0.0
H1705 H 0.09382 0.82697 0.39651 0.0
H1706 H 0.12815 0.83545 0.3863 0.0
H1707 H 0.06806 0.84255 0.39401 0.0
H1708 H 0.05897 0.77234 0.38079 0.0
H1709 H 0.05906 0.74294 0.36419 0.0
H1710 H 0.01047 0.741 0.33107 0.0
H1711 H 0.01029 0.7706 0.34737 0.0
C1712 C 0.96914 0.79378 0.41575 0.0
C1713 C 0.95177 0.78865 0.40448 0.0
C1714 C 0.98951 0.79899 0.41114 0.0
C1715 C 0.99284 0.79924 0.39517 0.0
C1716 C 0.97551 0.79429 0.38392 0.0
C1717 C 0.95518 0.78913 0.38853 0.0
C1718 C 0.0142 0.80405 0.39011 0.0
C1719 C 0.01508 0.78836 0.38001 0.0
C1720 C 0.03361 0.82364 0.39541 0.0
C1721 C 0.0336 0.84092 0.40588 0.0
C1722 C 0.02156 0.8507 0.40113 0.0
C1723 C 0.02112 0.86656 0.41124 0.0
C1724 C 0.03266 0.87276 0.42612 0.0
C1725 C 0.04473 0.86317 0.4309 0.0
C1726 C 0.04537 0.84742 0.42079 0.0
C1727 C 0.09574 0.81903 0.35167 0.0
C1728 C 0.11473 0.82652 0.36189 0.0
C1729 C 0.07627 0.81462 0.35751 0.0
C1730 C 0.07516 0.81707 0.37373 0.0
C1731 C 0.09418 0.82482 0.38396 0.0
C1732 C 0.11379 0.82958 0.3781 0.0
C1733 C 0.05418 0.81167 0.37992 0.0
C1734 C 0.05334 0.8272 0.39029 0.0
C1735 C 0.03481 0.79174 0.37504 0.0
C1736 C 0.03476 0.77382 0.36525 0.0
C1737 C 0.04841 0.76574 0.36992 0.0
C1738 C 0.04846 0.74903 0.36057 0.0
C1739 C 0.03482 0.74014 0.34657 0.0
C1740 C 0.02104 0.74791 0.34191 0.0
C1741 C 0.02094 0.76464 0.35121 0.0
H1742 H 0.03489 0.72721 0.33934 0.0
H1743 H 0.0322 0.88495 0.43397 0.0
H1744 H 0.19494 0.14472 0.3728 0.0
H1745 H 0.18464 0.17134 0.36532 0.0
H1746 H 0.24301 0.22289 0.39161 0.0
H1747 H 0.253 0.1962 0.39942 0.0
H1748 H 0.20997 0.22878 0.39636 0.0
H1749 H 0.23864 0.21421 0.35124 0.0
H1750 H 0.24219 0.19159 0.33008 0.0
H1751 H 0.17597 0.16708 0.31188 0.0
H1752 H 0.17193 0.18935 0.33306 0.0
H1753 H 0.20743 0.31581 0.35974 0.0
H1754 H 0.21789 0.28999 0.36894 0.0
H1755 H 0.15708 0.23641 0.34723 0.0
H1756 H 0.14643 0.26208 0.33824 0.0
H1757 H 0.19233 0.23249 0.34024 0.0
H1758 H 0.16379 0.24652 0.38616 0.0
H1759 H 0.16063 0.26918 0.40746 0.0
H1760 H 0.22791 0.29593 0.42373 0.0
H1761 H 0.23145 0.27335 0.40248 0.0
C1762 C 0.20545 0.16173 0.37704 0.0
C1763 C 0.2247 0.16842 0.3867 0.0
C1764 C 0.19966 0.17694 0.37269 0.0
C1765 C 0.21321 0.1992 0.37771 0.0
C1766 C 0.23231 0.20584 0.38757 0.0
C1767 C 0.23803 0.1906 0.39199 0.0
C1768 C 0.20752 0.21554 0.37262 0.0
C1769 C 0.20642 0.22978 0.38407 0.0
C1770 C 0.20255 0.21668 0.35659 0.0
C1771 C 0.20492 0.20329 0.34383 0.0
C1772 C 0.22478 0.20387 0.34279 0.0
C1773 C 0.2269 0.19113 0.33079 0.0
C1774 C 0.20931 0.17786 0.31967 0.0
C1775 C 0.18958 0.17734 0.32051 0.0
C1776 C 0.18737 0.19003 0.33251 0.0
C1777 C 0.19622 0.29852 0.35709 0.0
C1778 C 0.17607 0.29093 0.34836 0.0
C1779 C 0.20221 0.2838 0.36234 0.0
C1780 C 0.1882 0.26127 0.35884 0.0
C1781 C 0.16813 0.25371 0.35006 0.0
C1782 C 0.16206 0.26839 0.34494 0.0
C1783 C 0.19463 0.24554 0.36399 0.0
C1784 C 0.19593 0.23147 0.35252 0.0
C1785 C 0.19993 0.24467 0.37997 0.0
C1786 C 0.19793 0.25841 0.39265 0.0
C1787 C 0.17796 0.25737 0.3942 0.0
C1788 C 0.17609 0.27017 0.40629 0.0
C1789 C 0.1941 0.28409 0.41691 0.0
C1790 C 0.21399 0.28517 0.41548 0.0
C1791 C 0.21592 0.27233 0.40345 0.0
H1792 H 0.19264 0.29395 0.4263 0.0
H1793 H 0.21098 0.16802 0.31038 0.0
H1794 H 0.60514 0.49673 0.72127 0.0
H1795 H 0.63784 0.5254 0.71168 0.0
H1796 H 0.67608 0.52739 0.75333 0.0
H1797 H 0.6432 0.4993 0.7632 0.0
H1798 H 0.68992 0.56646 0.74718 0.0
H1799 H 0.67498 0.50191 0.71615 0.0
H1800 H 0.65328 0.46792 0.69865 0.0
H1801 H 0.64473 0.50373 0.66304 0.0
H1802 H 0.66614 0.53792 0.68042 0.0
H1803 H 0.79213 0.62334 0.71767 0.0
H1804 H 0.7591 0.5954 0.7271 0.0
H1805 H 0.72078 0.60031 0.68846 0.0
H1806 H 0.75395 0.62809 0.67866 0.0
H1807 H 0.70739 0.55811 0.69306 0.0
H1808 H 0.72252 0.62316 0.72661 0.0
H1809 H 0.74708 0.65605 0.74455 0.0
H1810 H 0.75874 0.617 0.77567 0.0
H1811 H 0.73441 0.58398 0.75775 0.0
C1812 C 0.62056 0.50324 0.72832 0.0
C1813 C 0.62167 0.49571 0.74293 0.0
C1814 C 0.63928 0.51959 0.72282 0.0
C1815 C 0.6596 0.52836 0.73162 0.0
C1816 C 0.66066 0.52094 0.74629 0.0
C1817 C 0.64188 0.50486 0.75192 0.0
C1818 C 0.6797 0.54532 0.72558 0.0
C1819 C 0.69376 0.56446 0.73539 0.0
C1820 C 0.68485 0.54296 0.71015 0.0
C1821 C 0.67198 0.52244 0.69965 0.0
C1822 C 0.66833 0.50252 0.70463 0.0
C1823 C 0.65611 0.48322 0.69473 0.0
C1824 C 0.64758 0.48366 0.67976 0.0
C1825 C 0.65132 0.50341 0.67465 0.0
C1826 C 0.66351 0.52275 0.68452 0.0
C1827 C 0.77671 0.61861 0.71116 0.0
C1828 C 0.77572 0.62809 0.69742 0.0
C1829 C 0.75779 0.60265 0.71663 0.0
C1830 C 0.73741 0.59599 0.70864 0.0
C1831 C 0.73633 0.60527 0.69485 0.0
C1832 C 0.7553 0.62119 0.68929 0.0
C1833 C 0.71728 0.57915 0.71459 0.0
C1834 C 0.70332 0.56006 0.70479 0.0
C1835 C 0.71244 0.58133 0.7301 0.0
C1836 C 0.72657 0.60113 0.74097 0.0
C1837 C 0.7303 0.62163 0.7373 0.0
C1838 C 0.7442 0.64028 0.74743 0.0
C1839 C 0.75442 0.63861 0.76126 0.0
C1840 C 0.75074 0.61828 0.765 0.0
C1841 C 0.73684 0.59959 0.7549 0.0
H1842 H 0.76523 0.65307 0.76906 0.0
H1843 H 0.63812 0.4687 0.67211 0.0
H1844 H 0.5027 0.10166 0.76162 0.0
H1845 H 0.47332 0.10577 0.74959 0.0
H1846 H 0.51934 0.15976 0.72648 0.0
H1847 H 0.54904 0.15639 0.73911 0.0
H1848 H 0.4917 0.16938 0.73808 0.0
H1849 H 0.48542 0.10905 0.70628 0.0
H1850 H 0.48257 0.07332 0.70051 0.0
H1851 H 0.42259 0.04228 0.72146 0.0
H1852 H 0.42524 0.07787 0.72755 0.0
H1853 H 0.38966 0.13409 0.67904 0.0
H1854 H 0.41976 0.1293 0.68868 0.0
H1855 H 0.41906 0.15562 0.73505 0.0
H1856 H 0.38937 0.16102 0.72542 0.0
H1857 H 0.42558 0.10674 0.70939 0.0
H1858 H 0.46972 0.18473 0.7532 0.0
H1859 H 0.47372 0.22126 0.75638 0.0
H1860 H 0.46092 0.21879 0.70657 0.0
H1861 H 0.45717 0.1824 0.70307 0.0
C1862 C 0.50666 0.11455 0.75409 0.0
C1863 C 0.52831 0.12877 0.75141 0.0
C1864 C 0.48976 0.11671 0.74705 0.0
C1865 C 0.49404 0.13292 0.73697 0.0
C1866 C 0.51561 0.14709 0.73419 0.0
C1867 C 0.53257 0.14501 0.7413 0.0
C1868 C 0.47602 0.13536 0.72966 0.0
C1869 C 0.47727 0.15568 0.73179 0.0
C1870 C 0.45732 0.11762 0.72116 0.0
C1871 C 0.45563 0.09616 0.71749 0.0
C1872 C 0.47171 0.09462 0.70976 0.0
C1873 C 0.47011 0.07439 0.70641 0.0
C1874 C 0.45243 0.05555 0.71064 0.0
C1875 C 0.43629 0.05689 0.7182 0.0
C1876 C 0.43781 0.07709 0.72159 0.0
C1877 C 0.39581 0.13875 0.69131 0.0
C1878 C 0.38718 0.14808 0.70142 0.0
C1879 C 0.41303 0.13597 0.69682 0.0
C1880 C 0.42195 0.14243 0.71253 0.0
C1881 C 0.41279 0.15096 0.72279 0.0
C1882 C 0.39572 0.15393 0.71727 0.0
C1883 C 0.44108 0.14062 0.71812 0.0
C1884 C 0.44003 0.12043 0.71567 0.0
C1885 C 0.4602 0.15862 0.72596 0.0
C1886 C 0.46298 0.18075 0.7279 0.0
C1887 C 0.46789 0.19204 0.74292 0.0
C1888 C 0.47009 0.21271 0.74478 0.0
C1889 C 0.46752 0.22231 0.73169 0.0
C1890 C 0.46285 0.21131 0.7167 0.0
C1891 C 0.46067 0.19065 0.71478 0.0
H1892 H 0.46918 0.2383 0.73316 0.0
H1893 H 0.45123 0.0399 0.70804 0.0
H1894 H 0.85417 0.39224 0.71228 0.0
H1895 H 0.84699 0.35689 0.70037 0.0
H1896 H 0.9091 0.36965 0.72143 0.0
H1897 H 0.91659 0.4052 0.73308 0.0
H1898 H 0.90062 0.35085 0.69138 0.0
H1899 H 0.86396 0.33776 0.73802 0.0
H1900 H 0.83923 0.33965 0.75606 0.0
H1901 H 0.78557 0.30483 0.72045 0.0
H1902 H 0.81006 0.30301 0.7021 0.0
H1903 H 0.87993 0.24165 0.68394 0.0
H1904 H 0.88883 0.27837 0.69405 0.0
H1905 H 0.82568 0.26515 0.67494 0.0
H1906 H 0.81656 0.22832 0.66517 0.0
H1907 H 0.83507 0.28445 0.70398 0.0
H1908 H 0.8719 0.29725 0.65734 0.0
H1909 H 0.8968 0.29532 0.63947 0.0
H1910 H 0.95025 0.33051 0.6752 0.0
H1911 H 0.9256 0.33239 0.69335 0.0
C1912 C 0.86644 0.38766 0.71417 0.0
C1913 C 0.88588 0.40145 0.72372 0.0
C1914 C 0.86224 0.36738 0.70747 0.0
C1915 C 0.87739 0.36051 0.7102 0.0
C1916 C 0.89715 0.37457 0.71924 0.0
C1917 C 0.90132 0.39481 0.72598 0.0
C1918 C 0.87237 0.33839 0.70405 0.0
C1919 C 0.88642 0.33631 0.69426 0.0
C1920 C 0.85366 0.31944 0.70762 0.0
C1921 C 0.83889 0.32046 0.71864 0.0
C1922 C 0.84692 0.33067 0.73399 0.0
C1923 C 0.83294 0.33169 0.74428 0.0
C1924 C 0.81085 0.32242 0.73939 0.0
C1925 C 0.80269 0.31204 0.72421 0.0
C1926 C 0.81661 0.31099 0.71387 0.0
C1927 C 0.86797 0.24661 0.68192 0.0
C1928 C 0.84755 0.23216 0.6738 0.0
C1929 C 0.87311 0.26762 0.68761 0.0
C1930 C 0.858 0.27462 0.68511 0.0
C1931 C 0.83759 0.26014 0.677 0.0
C1932 C 0.83243 0.23913 0.67137 0.0
C1933 C 0.86322 0.29685 0.69119 0.0
C1934 C 0.84924 0.29897 0.70103 0.0
C1935 C 0.882 0.3158 0.68767 0.0
C1936 C 0.89686 0.31477 0.67675 0.0
C1937 C 0.88894 0.30443 0.66142 0.0
C1938 C 0.90301 0.30337 0.65124 0.0
C1939 C 0.92508 0.31273 0.65621 0.0
C1940 C 0.93314 0.32323 0.67137 0.0
C1941 C 0.91913 0.32432 0.68161 0.0
H1942 H 0.93595 0.31189 0.64831 0.0
H1943 H 0.80005 0.32322 0.74738 0.0
H1944 H 0.17686 0.94799 0.60901 0.0
H1945 H 0.20627 0.98199 0.62265 0.0
H1946 H 0.15953 0.99514 0.64272 0.0
H1947 H 0.12989 0.96129 0.62871 0.0
H1948 H 0.19177 0.03129 0.63175 0.0
H1949 H 0.18726 0.97728 0.66472 0.0
H1950 H 0.18616 0.94334 0.6708 0.0
H1951 H 0.24939 0.96661 0.65533 0.0
H1952 H 0.25075 1.0006 0.64895 0.0
H1953 H 0.26393 0.11521 0.6898 0.0
H1954 H 0.23469 0.0811 0.67617 0.0
H1955 H 0.28185 0.06754 0.65726 0.0
H1956 H 0.31129 0.10153 0.67134 0.0
H1957 H 0.24953 0.03182 0.66726 0.0
H1958 H 0.2545 0.08657 0.63496 0.0
H1959 H 0.25576 0.12084 0.62959 0.0
H1960 H 0.19184 0.09654 0.64394 0.0
H1961 H 0.1903 0.06225 0.64968 0.0
C1962 C 0.1728 0.95817 0.61624 0.0
C1963 C 0.15099 0.95193 0.61773 0.0
C1964 C 0.18965 0.97753 0.62414 0.0
C1965 C 0.18514 0.99106 0.63382 0.0
C1966 C 0.1634 0.98494 0.63533 0.0
C1967 C 0.14649 0.9655 0.62743 0.0
C1968 C 0.20316 0.01159 0.64229 0.0
C1969 C 0.20425 0.0314 0.63968 0.0
C1970 C 0.21975 0.01179 0.65233 0.0
C1971 C 0.21901 0.9914 0.65621 0.0
C1972 C 0.20086 0.97509 0.66249 0.0
C1973 C 0.2002 0.95586 0.66602 0.0
C1974 C 0.21767 0.9528 0.66342 0.0
C1975 C 0.23586 0.96899 0.65732 0.0
C1976 C 0.23659 0.98825 0.65376 0.0
C1977 C 0.26809 0.10493 0.68279 0.0
C1978 C 0.28988 0.1111 0.6815 0.0
C1979 C 0.25135 0.0855 0.67491 0.0
C1980 C 0.25604 0.07193 0.66543 0.0
C1981 C 0.27784 0.07783 0.66441 0.0
C1982 C 0.29463 0.09727 0.67239 0.0
C1983 C 0.23816 0.05154 0.65674 0.0
C1984 C 0.23709 0.03175 0.6593 0.0
C1985 C 0.22162 0.05139 0.64664 0.0
C1986 C 0.22236 0.07187 0.64288 0.0
C1987 C 0.24076 0.08856 0.63707 0.0
C1988 C 0.24153 0.108 0.63395 0.0
C1989 C 0.22393 0.11088 0.63646 0.0
C1990 C 0.20548 0.09429 0.64202 0.0
C1991 C 0.20464 0.07484 0.6452 0.0
H1992 H 0.22457 0.12594 0.63406 0.0
H1993 H 0.21713 0.93789 0.66615 0.0
H1994 H 0.03699 0.19672 0.58777 0.0
H1995 H 0.0047 0.19353 0.59848 0.0
H1996 H 0.04222 0.22509 0.643 0.0
H1997 H 0.07454 0.22799 0.63238 0.0
H1998 H 0.00404 0.19172 0.64748 0.0
H1999 H 0.02748 0.25306 0.61733 0.0
H2000 H 0.03928 0.27215 0.59362 0.0
H2001 H 0.97884 0.22518 0.56758 0.0
H2002 H 0.96663 0.20583 0.59116 0.0
H2003 H 0.92519 0.21233 0.67859 0.0
H2004 H 0.95872 0.21801 0.66842 0.0
H2005 H 0.92274 0.18285 0.62421 0.0
H2006 H 0.88923 0.17722 0.6342 0.0
H2007 H 0.96077 0.21927 0.62004 0.0
H2008 H 0.93736 0.15817 0.65041 0.0
H2009 H 0.92584 0.13892 0.67406 0.0
H2010 H 0.98684 0.18533 0.69976 0.0
H2011 H 0.99859 0.20507 0.67631 0.0
C2012 C 0.03838 0.20308 0.59982 0.0
C2013 C 0.05834 0.21272 0.60921 0.0
C2014 C 0.01992 0.20128 0.60593 0.0
C2015 C 0.02108 0.20942 0.62148 0.0
C2016 C 0.04092 0.21873 0.63096 0.0
C2017 C 0.05936 0.22035 0.62489 0.0
C2018 C 1.00158 0.20815 0.62783 0.0
C2019 C 0.9948 0.19807 0.64162 0.0
C2020 C 0.98921 0.21602 0.62004 0.0
C2021 C 0.9962 0.22795 0.60597 0.0
C2022 C 0.01671 0.24681 0.60654 0.0
C2023 C 0.02344 0.25769 0.59314 0.0
C2024 C 0.00978 0.2499 0.57911 0.0
C2025 C 0.98932 0.23126 0.57848 0.0
C2026 C 0.98246 0.22036 0.59186 0.0
C2027 C 0.92441 0.20594 0.66667 0.0
C2028 C 0.90447 0.19421 0.65726 0.0
C2029 C 0.94359 0.20912 0.66089 0.0
C2030 C 0.9432 0.20064 0.64561 0.0
C2031 C 0.92343 0.1895 0.63604 0.0
C2032 C 0.90425 0.18624 0.64181 0.0
C2033 C 0.96327 0.20287 0.63969 0.0
C2034 C 0.97012 0.21307 0.62596 0.0
C2035 C 0.97573 0.19516 0.64757 0.0
C2036 C 0.96876 0.18323 0.66165 0.0
C2037 C 0.94825 0.16437 0.66114 0.0
C2038 C 0.94169 0.15336 0.6745 0.0
C2039 C 0.95558 0.16093 0.68841 0.0
C2040 C 0.97609 0.1795 0.68898 0.0
C2041 C 0.98271 0.1906 0.67565 0.0
H2042 H 0.95047 0.15238 0.69875 0.0
H2043 H 0.01506 0.25829 0.56873 0.0
H2044 H 0.77303 0.8251 0.61695 0.0
H2045 H 0.77822 0.797 0.62827 0.0
H2046 H 0.84019 0.84651 0.65154 0.0
H2047 H 0.83516 0.87469 0.64017 0.0
H2048 H 0.8415 0.81133 0.6365 0.0
H2049 H 0.79837 0.82397 0.67218 0.0
H2050 H 0.76694 0.82686 0.6794 0.0
H2051 H 0.72398 0.76019 0.66129 0.0
H2052 H 0.75516 0.757 0.65375 0.0
H2053 H 0.86322 0.75255 0.69068 0.0
H2054 H 0.85592 0.7787 0.67846 0.0
H2055 H 0.79162 0.72696 0.66087 0.0
H2056 H 0.79861 0.7008 0.67368 0.0
H2057 H 0.79037 0.76191 0.67171 0.0
H2058 H 0.83283 0.74837 0.6365 0.0
H2059 H 0.86391 0.74503 0.62897 0.0
H2060 H 0.90742 0.81219 0.64546 0.0
H2061 H 0.87663 0.81593 0.65324 0.0
C2062 C 0.7878 0.82998 0.62443 0.0
C2063 C 0.80368 0.85209 0.62771 0.0
C2064 C 0.79068 0.81393 0.63095 0.0
C2065 C 0.80954 0.8197 0.6408 0.0
C2066 C 0.82552 0.84174 0.64397 0.0
C2067 C 0.82255 0.8578 0.63758 0.0
C2068 C 0.81262 0.80276 0.64785 0.0
C2069 C 0.83046 0.80066 0.64433 0.0
C2070 C 0.79784 0.78844 0.65768 0.0
C2071 C 0.77908 0.79032 0.66224 0.0
C2072 C 0.78221 0.80999 0.66961 0.0
C2073 C 0.76444 0.81167 0.67379 0.0
C2074 C 0.74347 0.79374 0.67077 0.0
C2075 C 0.74023 0.77408 0.6636 0.0
C2076 C 0.75795 0.77232 0.65938 0.0
C2077 C 0.84748 0.74677 0.68429 0.0
C2078 C 0.83156 0.72462 0.68292 0.0
C2079 C 0.84338 0.7617 0.67719 0.0
C2080 C 0.82339 0.75473 0.66845 0.0
C2081 C 0.80723 0.73267 0.66744 0.0
C2082 C 0.81128 0.71774 0.67466 0.0
C2083 C 0.81939 0.77057 0.66048 0.0
C2084 C 0.80135 0.77246 0.6638 0.0
C2085 C 0.8339 0.78457 0.65035 0.0
C2086 C 0.85242 0.78241 0.64554 0.0
C2087 C 0.84903 0.76241 0.6386 0.0
C2088 C 0.86659 0.76045 0.63426 0.0
C2089 C 0.8876 0.77839 0.63673 0.0
C2090 C 0.89112 0.79833 0.64354 0.0
C2091 C 0.87362 0.80039 0.64788 0.0
H2092 H 0.90118 0.7769 0.63331 0.0
H2093 H 0.72973 0.79507 0.67401 0.0
H2094 H 0.06208 0.82375 0.62157 0.0
H2095 H 0.02616 0.79697 0.6282 0.0
H2096 H 0.01171 0.84826 0.63826 0.0
H2097 H 0.04801 0.87519 0.63206 0.0
H2098 H 0.99896 0.82293 0.66003 0.0
H2099 H 0.98807 0.81108 0.60477 0.0
H2100 H 0.9944 0.80415 0.57767 0.0
H2101 H 0.9866 0.74246 0.58787 0.0
H2102 H 0.98061 0.74917 0.61512 0.0
H2103 H 0.88134 0.72325 0.64379 0.0
H2104 H 0.9143 0.75106 0.63417 0.0
H2105 H 0.95177 0.75339 0.67631 0.0
H2106 H 0.91879 0.72528 0.68602 0.0
H2107 H 0.95032 0.7538 0.62676 0.0
H2108 H 0.99212 0.80499 0.68691 0.0
H2109 H 0.9813 0.81397 0.71177 0.0
H2110 H 0.92097 0.80137 0.68791 0.0
H2111 H 0.93155 0.79264 0.66291 0.0
C2112 C 0.05111 0.82926 0.62498 0.0
C2113 C 0.05764 0.85149 0.62593 0.0
C2114 C 0.03053 0.81393 0.62872 0.0
C2115 C 0.01597 0.82047 0.63348 0.0
C2116 C 0.02254 0.84274 0.63453 0.0
C2117 C 0.04321 0.8581 0.63088 0.0
C2118 C 0.99436 0.80417 0.63805 0.0
C2119 C 0.98836 0.80784 0.65271 0.0
C2120 C 0.98007 0.7847 0.62836 0.0
C2121 C 0.98413 0.78076 0.61206 0.0
C2122 C 0.98797 0.79615 0.6013 0.0
C2123 C 0.99146 0.79225 0.5859 0.0
C2124 C 0.99099 0.77292 0.58107 0.0
C2125 C 0.98702 0.75745 0.59163 0.0
C2126 C 0.98357 0.7613 0.60706 0.0
C2127 C 0.89657 0.72951 0.65102 0.0
C2128 C 0.89735 0.72194 0.66571 0.0
C2129 C 0.91544 0.74551 0.64549 0.0
C2130 C 0.9355 0.75461 0.65459 0.0
C2131 C 0.93642 0.74688 0.66917 0.0
C2132 C 0.91755 0.73073 0.67468 0.0
C2133 C 0.9554 0.7723 0.64891 0.0
C2134 C 0.961 0.76889 0.63404 0.0
C2135 C 0.96888 0.79238 0.65811 0.0
C2136 C 0.96256 0.79795 0.67308 0.0
C2137 C 0.97659 0.80423 0.68697 0.0
C2138 C 0.97049 0.80926 0.70108 0.0
C2139 C 0.95044 0.80817 0.70143 0.0
C2140 C 0.93647 0.80214 0.68765 0.0
C2141 C 0.9425 0.79712 0.67351 0.0
H2142 H 0.94574 0.81205 0.71237 0.0
H2143 H 0.99361 0.76989 0.56912 0.0
H2144 H 0.15456 0.19914 0.60518 0.0
H2145 H 0.18248 0.1899 0.61272 0.0
H2146 H 0.19415 0.22428 0.65852 0.0
H2147 H 0.16619 0.23338 0.65106 0.0
H2148 H 0.23165 0.23581 0.64487 0.0
H2149 H 0.16713 0.16989 0.65388 0.0
H2150 H 0.13099 0.13748 0.64688 0.0
H2151 H 0.15645 0.11402 0.61147 0.0
H2152 H 0.1927 0.14649 0.61809 0.0
H2153 H 0.29654 0.20333 0.68708 0.0
H2154 H 0.2677 0.20993 0.67747 0.0
H2155 H 0.25666 0.16968 0.6345 0.0
H2156 H 0.28526 0.1626 0.64417 0.0
H2157 H 0.2191 0.16071 0.64493 0.0
H2158 H 0.28324 0.2254 0.63558 0.0
H2159 H 0.31973 0.25753 0.64203 0.0
H2160 H 0.29549 0.28321 0.67688 0.0
H2161 H 0.25889 0.25107 0.6708 0.0
C2162 C 0.16279 0.20431 0.61695 0.0
C2163 C 0.15779 0.21645 0.6277 0.0
C2164 C 0.17875 0.19909 0.62123 0.0
C2165 C 0.19024 0.20621 0.63624 0.0
C2166 C 0.1854 0.2185 0.64691 0.0
C2167 C 0.16936 0.22358 0.64268 0.0
C2168 C 0.20791 0.20167 0.64069 0.0
C2169 C 0.22886 0.21938 0.64505 0.0
C2170 C 0.20441 0.18024 0.6404 0.0
C2171 C 0.18257 0.1608 0.63633 0.0
C2172 C 0.16498 0.15796 0.64448 0.0
C2173 C 0.14448 0.13955 0.6406 0.0
C2174 C 0.1414 0.12374 0.6287 0.0
C2175 C 0.15884 0.1263 0.62066 0.0
C2176 C 0.17937 0.14471 0.62447 0.0
C2177 C 0.28809 0.19595 0.67555 0.0
C2178 C 0.29337 0.18258 0.66636 0.0
C2179 C 0.27162 0.19981 0.67004 0.0
C2180 C 0.26021 0.19058 0.65516 0.0
C2181 C 0.2653 0.17706 0.64599 0.0
C2182 C 0.28174 0.17313 0.65152 0.0
C2183 C 0.24279 0.19487 0.64932 0.0
C2184 C 0.22193 0.17714 0.64466 0.0
C2185 C 0.24639 0.21629 0.64918 0.0
C2186 C 0.26835 0.23572 0.65282 0.0
C2187 C 0.28572 0.23782 0.6447 0.0
C2188 C 0.30642 0.25604 0.64828 0.0
C2189 C 0.30994 0.27237 0.65988 0.0
C2190 C 0.29274 0.27053 0.66791 0.0
C2191 C 0.27201 0.25233 0.66439 0.0
H2192 H 0.32598 0.28647 0.66264 0.0
H2193 H 0.12552 0.10949 0.62573 0.0
H2194 H 0.7662 0.94171 0.63193 0.0
H2195 H 0.77484 0.97933 0.63828 0.0
H2196 H 0.83606 0.99452 0.66277 0.0
H2197 H 0.82712 0.95667 0.65677 0.0
H2198 H 0.81699 0.01106 0.67951 0.0
H2199 H 0.83225 0.01072 0.6258 0.0
H2200 H 0.82405 0.99737 0.59769 0.0
H2201 H 0.7718 0.01096 0.59428 0.0
H2202 H 0.77949 0.02411 0.62244 0.0
H2203 H 0.86912 0.12574 0.68623 0.0
H2204 H 0.85918 0.08813 0.67829 0.0
H2205 H 0.79642 0.07483 0.65824 0.0
H2206 H 0.8063 0.11258 0.66623 0.0
H2207 H 0.81506 0.05725 0.63903 0.0
H2208 H 0.8002 0.05789 0.69271 0.0
H2209 H 0.80845 0.07113 0.72083 0.0
H2210 H 0.8603 0.05696 0.72416 0.0
H2211 H 0.85257 0.04392 0.69598 0.0
C2212 C 0.78153 0.95313 0.63861 0.0
C2213 C 0.7961 0.9464 0.64379 0.0
C2214 C 0.7865 0.97464 0.64217 0.0
C2215 C 0.80624 0.98987 0.65082 0.0
C2216 C 0.82077 0.9831 0.65604 0.0
C2217 C 0.81572 0.96155 0.65257 0.0
C2218 C 0.81155 0.01271 0.6548 0.0
C2219 C 0.81686 0.02123 0.67062 0.0
C2220 C 0.81079 0.02583 0.64325 0.0
C2221 C 0.80631 0.0182 0.62627 0.0
C2222 C 0.81891 0.01072 0.61908 0.0
C2223 C 0.81437 0.00321 0.60313 0.0
C2224 C 0.79737 0.00325 0.59421 0.0
C2225 C 0.78494 0.0109 0.60121 0.0
C2226 C 0.7894 0.01841 0.61716 0.0
C2227 C 0.8532 0.11481 0.68013 0.0
C2228 C 0.83844 0.12202 0.67689 0.0
C2229 C 0.84754 0.09333 0.67561 0.0
C2230 C 0.82698 0.07863 0.66781 0.0
C2231 C 0.81236 0.08592 0.66425 0.0
C2232 C 0.818 0.10744 0.66884 0.0
C2233 C 0.82072 0.05557 0.66369 0.0
C2234 C 0.81518 0.04702 0.64788 0.0
C2235 C 0.82131 0.0424 0.67523 0.0
C2236 C 0.82593 0.05012 0.6922 0.0
C2237 C 0.81347 0.05776 0.69941 0.0
C2238 C 0.81804 0.0652 0.71536 0.0
C2239 C 0.83492 0.06493 0.72427 0.0
C2240 C 0.84724 0.05717 0.71724 0.0
C2241 C 0.84276 0.04974 0.70128 0.0
H2242 H 0.83843 0.0707 0.73662 0.0
H2243 H 0.79386 0.9974 0.58187 0.0
H2244 H 0.49733 0.40066 0.73549 0.0
H2245 H 0.46927 0.36254 0.72842 0.0
H2246 H 0.51271 0.35317 0.70039 0.0
H2247 H 0.54061 0.39152 0.70719 0.0
H2248 H 0.47409 0.3357 0.6847 0.0
H2249 H 0.50061 0.33283 0.73654 0.0
H2250 H 0.5107 0.34331 0.76498 0.0
H2251 H 0.44497 0.32554 0.77148 0.0
H2252 H 0.43455 0.31523 0.74303 0.0
H2253 H 0.41609 0.22043 0.67423 0.0
H2254 H 0.44358 0.25814 0.68311 0.0
H2255 H 0.39551 0.26754 0.70477 0.0
H2256 H 0.36777 0.22975 0.69571 0.0
H2257 H 0.4356 0.28478 0.72388 0.0
H2258 H 0.4095 0.28744 0.67166 0.0
H2259 H 0.39988 0.27631 0.64326 0.0
H2260 H 0.46581 0.29397 0.63766 0.0
H2261 H 0.47576 0.30491 0.66609 0.0
C2262 C 0.50086 0.39041 0.72785 0.0
C2263 C 0.52103 0.39899 0.72176 0.0
C2264 C 0.48488 0.36861 0.72389 0.0
C2265 C 0.4889 0.35487 0.71396 0.0
C2266 C 0.50919 0.36342 0.70804 0.0
C2267 C 0.52512 0.38526 0.71194 0.0
C2268 C 0.47174 0.33182 0.70934 0.0
C2269 C 0.46592 0.32452 0.6933 0.0
C2270 C 0.46064 0.31729 0.72052 0.0
C2271 C 0.46685 0.32347 0.73763 0.0
C2272 C 0.48835 0.33133 0.74401 0.0
C2273 C 0.49412 0.33721 0.76014 0.0
C2274 C 0.4785 0.33515 0.77002 0.0
C2275 C 0.45706 0.32715 0.76381 0.0
C2276 C 0.45121 0.32128 0.74768 0.0
C2277 C 0.41136 0.23052 0.68089 0.0
C2278 C 0.38979 0.2222 0.68425 0.0
C2279 C 0.42708 0.25205 0.68594 0.0
C2280 C 0.42155 0.26568 0.6945 0.0
C2281 C 0.4001 0.25728 0.69818 0.0
C2282 C 0.38429 0.23574 0.69299 0.0
C2283 C 0.43816 0.28878 0.69931 0.0
C2284 C 0.44383 0.29604 0.71534 0.0
C2285 C 0.44923 0.30326 0.68814 0.0
C2286 C 0.44332 0.2968 0.67103 0.0
C2287 C 0.42191 0.28878 0.6644 0.0
C2288 C 0.4164 0.28254 0.64829 0.0
C2289 C 0.43221 0.28438 0.63867 0.0
C2290 C 0.45358 0.29253 0.64513 0.0
C2291 C 0.45916 0.29877 0.66124 0.0
H2292 H 0.42792 0.27955 0.6262 0.0
H2293 H 0.48299 0.3397 0.78251 0.0
H2294 H 0.63656 0.12952 0.76106 0.0
H2295 H 0.67197 0.13889 0.75216 0.0
H2296 H 0.64262 0.11921 0.7043 0.0
H2297 H 0.6073 0.10979 0.71318 0.0
H2298 H 0.66832 0.10214 0.71153 0.0
H2299 H 0.67336 0.17229 0.71842 0.0
H2300 H 0.67276 0.20274 0.73313 0.0
H2301 H 0.72553 0.212 0.76555 0.0
H2302 H 0.72626 0.18142 0.75114 0.0
H2303 H 0.76141 0.14407 0.67047 0.0
H2304 H 0.72738 0.13571 0.68094 0.0
H2305 H 0.7614 0.1621 0.72718 0.0
H2306 H 0.79564 0.17111 0.71669 0.0
H2307 H 0.73381 0.1755 0.72195 0.0
H2308 H 0.72922 0.10622 0.71658 0.0
H2309 H 0.73044 0.07535 0.70313 0.0
H2310 H 0.67787 0.06389 0.66957 0.0
H2311 H 0.67653 0.0949 0.6827 0.0
C2312 C 0.63781 0.12743 0.74864 0.0
C2313 C 0.6193 0.1191 0.73779 0.0
C2314 C 0.65798 0.13278 0.74357 0.0
C2315 C 0.65998 0.12989 0.72754 0.0
C2316 C 0.64147 0.12158 0.71671 0.0
C2317 C 0.62134 0.1163 0.72177 0.0
C2318 C 0.68118 0.13496 0.72204 0.0
C2319 C 0.68258 0.11825 0.71364 0.0
C2320 C 0.69999 0.15579 0.72527 0.0
C2321 C 0.6996 0.17429 0.73386 0.0
C2322 C 0.68467 0.18065 0.72878 0.0
C2323 C 0.68435 0.19798 0.73705 0.0
C2324 C 0.69901 0.20922 0.75032 0.0
C2325 C 0.7141 0.20322 0.75532 0.0
C2326 C 0.71447 0.18589 0.74711 0.0
C2327 C 0.76167 0.14801 0.68289 0.0
C2328 C 0.78126 0.15818 0.69274 0.0
C2329 C 0.74215 0.14313 0.68888 0.0
C2330 C 0.74172 0.14797 0.70491 0.0
C2331 C 0.76128 0.15818 0.71478 0.0
C2332 C 0.78085 0.16326 0.70876 0.0
C2333 C 0.72092 0.14273 0.7113 0.0
C2334 C 0.71958 0.15936 0.71988 0.0
C2335 C 0.70223 0.12176 0.70843 0.0
C2336 C 0.70291 0.10302 0.70054 0.0
C2337 C 0.71802 0.09722 0.70626 0.0
C2338 C 0.71872 0.07968 0.69871 0.0
C2339 C 0.70428 0.0677 0.68548 0.0
C2340 C 0.68907 0.0732 0.67981 0.0
C2341 C 0.68831 0.09075 0.68731 0.0
H2342 H 0.70485 0.05413 0.67965 0.0
H2343 H 0.69874 0.22264 0.75669 0.0
H2344 H 0.91996 0.52911 0.72543 0.0
H2345 H 0.90918 0.55569 0.719 0.0
H2346 H 0.84995 0.5043 0.69351 0.0
H2347 H 0.86104 0.47775 0.69962 0.0
H2348 H 0.86788 0.53782 0.67701 0.0
H2349 H 0.85079 0.52843 0.73009 0.0
H2350 H 0.85762 0.52723 0.75841 0.0
H2351 H 0.90757 0.59452 0.76292 0.0
H2352 H 0.90125 0.59604 0.73457 0.0
H2353 H 0.8129 0.59709 0.66898 0.0
H2354 H 0.82344 0.57097 0.67708 0.0
H2355 H 0.88533 0.62385 0.69784 0.0
H2356 H 0.87492 0.65013 0.68961 0.0
H2357 H 0.86623 0.59006 0.71697 0.0
H2358 H 0.88296 0.5989 0.66358 0.0
H2359 H 0.87526 0.59975 0.63533 0.0
H2360 H 0.82477 0.53273 0.63165 0.0
H2361 H 0.83196 0.53157 0.65995 0.0
C2362 C 0.90459 0.52351 0.71853 0.0
C2363 C 0.89124 0.5014 0.71306 0.0
C2364 C 0.89839 0.53868 0.71493 0.0
C2365 C 0.87861 0.53198 0.70593 0.0
C2366 C 0.86525 0.50985 0.70049 0.0
C2367 C 0.87152 0.4947 0.70402 0.0
C2368 C 0.87222 0.54813 0.70171 0.0
C2369 C 0.86721 0.54901 0.68579 0.0
C2370 C 0.87186 0.56314 0.71311 0.0
C2371 C 0.87569 0.56228 0.73017 0.0
C2372 C 0.86336 0.54292 0.73709 0.0
C2373 C 0.86711 0.54219 0.75316 0.0
C2374 C 0.88306 0.56077 0.76245 0.0
C2375 C 0.89524 0.58013 0.7557 0.0
C2376 C 0.89157 0.58094 0.73964 0.0
C2377 C 0.82876 0.60315 0.67526 0.0
C2378 C 0.84311 0.62562 0.67867 0.0
C2379 C 0.83476 0.58822 0.67987 0.0
C2380 C 0.85523 0.59548 0.68796 0.0
C2381 C 0.86946 0.61792 0.69163 0.0
C2382 C 0.8635 0.63289 0.68692 0.0
C2383 C 0.86183 0.57959 0.69234 0.0
C2384 C 0.8669 0.57882 0.70824 0.0
C2385 C 0.86214 0.56459 0.68096 0.0
C2386 C 0.85786 0.56521 0.66392 0.0
C2387 C 0.87009 0.58439 0.65678 0.0
C2388 C 0.86585 0.58492 0.64075 0.0
C2389 C 0.8495 0.56632 0.63171 0.0
C2390 C 0.83741 0.54713 0.63867 0.0
C2391 C 0.84157 0.54652 0.65471 0.0
H2392 H 0.84624 0.56676 0.6193 0.0
H2393 H 0.88594 0.56017 0.77489 0.0
H2394 H 0.47444 0.92042 0.23886 0.0
H2395 H 0.48361 0.93315 0.21318 0.0
H2396 H 0.41567 0.89938 0.19605 0.0
H2397 H 0.40637 0.88546 0.22153 0.0
H2398 H 0.43787 0.89436 0.17455 0.0
H2399 H 0.44448 0.95523 0.20573 0.0
H2400 H 0.45652 0.98254 0.22864 0.0
H2401 H 0.52298 0.00706 0.2201 0.0
H2402 H 0.51135 0.97969 0.19726 0.0
H2403 H 0.46062 0.95386 0.10633 0.0
H2404 H 0.44648 0.93845 0.13064 0.0
H2405 H 0.51179 0.96309 0.15181 0.0
H2406 H 0.52602 0.97816 0.12754 0.0
H2407 H 0.48758 0.97295 0.17065 0.0
H2408 H 0.47953 0.90987 0.13965 0.0
H2409 H 0.46621 0.88284 0.11646 0.0
H2410 H 0.40042 0.86301 0.12438 0.0
H2411 H 0.41335 0.8903 0.14741 0.0
C2412 C 0.46141 0.9154 0.2296 0.0
C2413 C 0.43963 0.9019 0.23233 0.0
C2414 C 0.46668 0.92296 0.21495 0.0
C2415 C 0.45031 0.91758 0.20274 0.0
C2416 C 0.42857 0.90388 0.20532 0.0
C2417 C 0.42328 0.89611 0.21996 0.0
C2418 C 0.45603 0.92624 0.18732 0.0
C2419 C 0.44845 0.91159 0.17367 0.0
C2420 C 0.46996 0.94872 0.18614 0.0
C2421 C 0.47704 0.96528 0.19985 0.0
C2422 C 0.46167 0.96635 0.2088 0.0
C2423 C 0.46842 0.98186 0.22177 0.0
C2424 C 0.4905 0.9965 0.22584 0.0
C2425 C 0.50588 0.9957 0.21694 0.0
C2426 C 0.49922 0.9802 0.20397 0.0
C2427 C 0.47196 0.95573 0.11608 0.0
C2428 C 0.49448 0.96734 0.115 0.0
C2429 C 0.46385 0.94698 0.12998 0.0
C2430 C 0.4781 0.94962 0.14302 0.0
C2431 C 0.50052 0.96099 0.14192 0.0
C2432 C 0.50863 0.96967 0.12805 0.0
C2433 C 0.46984 0.94102 0.158 0.0
C2434 C 0.47689 0.95574 0.17155 0.0
C2435 C 0.45521 0.91869 0.15902 0.0
C2436 C 0.44742 0.9023 0.14516 0.0
C2437 C 0.46222 0.89991 0.13635 0.0
C2438 C 0.45474 0.88454 0.12324 0.0
C2439 C 0.43248 0.8713 0.1189 0.0
C2440 C 0.41765 0.87337 0.1277 0.0
C2441 C 0.42505 0.88878 0.14078 0.0
H2442 H 0.42671 0.85938 0.10875 0.0
H2443 H 0.4957 0.0085 0.23589 0.0
H2444 H 0.0947 0.51308 0.24431 0.0
H2445 H 0.08299 0.50816 0.2163 0.0
H2446 H 0.13213 0.57451 0.212 0.0
H2447 H 0.14371 0.57959 0.24009 0.0
H2448 H 0.09539 0.56597 0.19695 0.0
H2449 H 0.13711 0.53037 0.1983 0.0
H2450 H 0.1485 0.50486 0.20708 0.0
H2451 H 0.08517 0.45082 0.19135 0.0
H2452 H 0.07328 0.47602 0.18268 0.0
H2453 H 0.07963 0.55382 0.11375 0.0
H2454 H 0.09755 0.55884 0.14016 0.0
H2455 H 0.04568 0.49622 0.14962 0.0
H2456 H 0.02781 0.49102 0.12321 0.0
H2457 H 0.08644 0.50399 0.16132 0.0
H2458 H 0.0445 0.54028 0.16188 0.0
H2459 H 0.03346 0.56596 0.15288 0.0
H2460 H 0.09846 0.61916 0.16493 0.0
H2461 H 0.10996 0.59373 0.17379 0.0
C2462 C 0.10314 0.52655 0.23736 0.0
C2463 C 0.12016 0.54671 0.24438 0.0
C2464 C 0.09647 0.52371 0.22134 0.0
C2465 C 0.1069 0.54087 0.21197 0.0
C2466 C 0.12386 0.56103 0.21898 0.0
C2467 C 0.13042 0.56393 0.23503 0.0
C2468 C 0.09959 0.53799 0.19498 0.0
C2469 C 0.09384 0.55264 0.18912 0.0
C2470 C 0.09715 0.52035 0.18478 0.0
C2471 C 0.10425 0.50512 0.18996 0.0
C2472 C 0.12555 0.51306 0.19682 0.0
C2473 C 0.13211 0.49865 0.20176 0.0
C2474 C 0.11755 0.47623 0.19981 0.0
C2475 C 0.09642 0.46818 0.19287 0.0
C2476 C 0.08977 0.48253 0.18793 0.0
C2477 C 0.07225 0.54098 0.12137 0.0
C2478 C 0.05222 0.52212 0.11649 0.0
C2479 C 0.08243 0.54391 0.13647 0.0
C2480 C 0.0728 0.528 0.14689 0.0
C2481 C 0.05334 0.50872 0.14177 0.0
C2482 C 0.04308 0.50585 0.12674 0.0
C2483 C 0.08224 0.53192 0.16342 0.0
C2484 C 0.08828 0.51744 0.16917 0.0
C2485 C 0.08506 0.54975 0.17352 0.0
C2486 C 0.07814 0.56508 0.16832 0.0
C2487 C 0.05647 0.55744 0.16249 0.0
C2488 C 0.05013 0.57195 0.15744 0.0
C2489 C 0.06527 0.59417 0.15829 0.0
C2490 C 0.08676 0.60194 0.16425 0.0
C2491 C 0.0932 0.58748 0.16929 0.0
H2492 H 0.06032 0.60539 0.15437 0.0
H2493 H 0.12267 0.46511 0.20363 0.0
H2494 H 0.44483 0.52765 0.2366 0.0
H2495 H 0.45035 0.5206 0.2095 0.0
H2496 H 0.47408 0.58799 0.20253 0.0
H2497 H 0.468 0.595 0.22943 0.0
H2498 H 0.44806 0.5614 0.17715 0.0
H2499 H 0.50897 0.56966 0.21068 0.0
H2500 H 0.52663 0.56117 0.23254 0.0
H2501 H 0.49843 0.49537 0.21156 0.0
H2502 H 0.48035 0.5034 0.18967 0.0
H2503 H 0.51126 0.5768 0.11363 0.0
H2504 H 0.49775 0.57789 0.13894 0.0
H2505 H 0.47655 0.50987 0.14104 0.0
H2506 H 0.49063 0.50881 0.1159 0.0
H2507 H 0.49819 0.53338 0.16834 0.0
H2508 H 0.43977 0.52615 0.13345 0.0
H2509 H 0.42293 0.53517 0.11139 0.0
H2510 H 0.44666 0.59912 0.13462 0.0
H2511 H 0.4639 0.59059 0.15673 0.0
C2512 C 0.4509 0.54089 0.22922 0.0
C2513 C 0.45616 0.56194 0.23522 0.0
C2514 C 0.4542 0.53687 0.21377 0.0
C2515 C 0.4629 0.55383 0.20405 0.0
C2516 C 0.46743 0.57467 0.20983 0.0
C2517 C 0.46414 0.5787 0.22526 0.0
C2518 C 0.46815 0.55019 0.18808 0.0
C2519 C 0.45913 0.55542 0.17522 0.0
C2520 C 0.4822 0.54189 0.18552 0.0
C2521 C 0.49311 0.53706 0.19864 0.0
C2522 C 0.50639 0.55333 0.21079 0.0
C2523 C 0.5165 0.54861 0.22318 0.0
C2524 C 0.5136 0.52772 0.22346 0.0
C2525 C 0.50063 0.51153 0.21134 0.0
C2526 C 0.49046 0.51616 0.19894 0.0
C2527 C 0.50379 0.56208 0.11949 0.0
C2528 C 0.50206 0.54272 0.11276 0.0
C2529 C 0.49586 0.56267 0.13389 0.0
C2530 C 0.48591 0.5439 0.14181 0.0
C2531 C 0.48407 0.52452 0.1351 0.0
C2532 C 0.49198 0.52391 0.12068 0.0
C2533 C 0.47828 0.5448 0.1574 0.0
C2534 C 0.48689 0.5391 0.1702 0.0
C2535 C 0.46387 0.55267 0.1599 0.0
C2536 C 0.45329 0.55778 0.1467 0.0
C2537 C 0.44152 0.54218 0.13381 0.0
C2538 C 0.43188 0.5472 0.12131 0.0
C2539 C 0.43378 0.56773 0.12159 0.0
C2540 C 0.44523 0.58324 0.13441 0.0
C2541 C 0.45491 0.57831 0.14695 0.0
H2542 H 0.42637 0.57162 0.11188 0.0
H2543 H 0.52144 0.5241 0.23305 0.0
H2544 H 0.88533 0.4598 0.77994 0.0
H2545 H 0.8982 0.46648 0.8079 0.0
H2546 H 0.94958 0.45393 0.79742 0.0
H2547 H 0.93639 0.44671 0.76956 0.0
H2548 H 0.93092 0.43302 0.82086 0.0
H2549 H 0.95819 0.50651 0.80788 0.0
H2550 H 0.95553 0.53678 0.79749 0.0
H2551 H 0.91129 0.53149 0.831 0.0
H2552 H 0.91347 0.50098 0.84146 0.0
H2553 H 0.99804 0.4731 0.89192 0.0
H2554 H 0.98336 0.46884 0.86476 0.0
H2555 H 0.93103 0.47661 0.88021 0.0
H2556 H 0.94613 0.4817 0.90756 0.0
H2557 H 0.94782 0.4993 0.85499 0.0
H2558 H 0.92205 0.42658 0.86855 0.0
H2559 H 0.92549 0.39676 0.87898 0.0
H2560 H 0.9678 0.40112 0.84414 0.0
H2561 H 0.96485 0.43119 0.83364 0.0
C2562 C 0.89951 0.45873 0.78363 0.0
C2563 C 0.90986 0.45271 0.77262 0.0
C2564 C 0.90689 0.46258 0.79959 0.0
C2565 C 0.92499 0.4609 0.80478 0.0
C2566 C 0.93554 0.45525 0.79373 0.0
C2567 C 0.92801 0.45114 0.77782 0.0
C2568 C 0.93252 0.46412 0.82175 0.0
C2569 C 0.93487 0.44766 0.82825 0.0
C2570 C 0.93704 0.4829 0.83156 0.0
C2571 C 0.93582 0.50132 0.82534 0.0
C2572 C 0.94777 0.5117 0.81296 0.0
C2573 C 0.94637 0.52892 0.80707 0.0
C2574 C 0.9332 0.53601 0.81355 0.0
C2575 C 0.92146 0.52595 0.82597 0.0
C2576 C 0.92278 0.50871 0.83189 0.0
C2577 C 0.98357 0.47421 0.88958 0.0
C2578 C 0.97327 0.47777 0.90194 0.0
C2579 C 0.97507 0.47154 0.87403 0.0
C2580 C 0.95595 0.47212 0.87047 0.0
C2581 C 0.94576 0.47601 0.88272 0.0
C2582 C 0.9543 0.47872 0.89833 0.0
C2583 C 0.94658 0.4684 0.85393 0.0
C2584 C 0.94379 0.48467 0.84756 0.0
C2585 C 0.94173 0.44949 0.84418 0.0
C2586 C 0.94336 0.43125 0.85038 0.0
C2587 C 0.9322 0.42128 0.86318 0.0
C2588 C 0.93405 0.40432 0.86909 0.0
C2589 C 0.94689 0.39708 0.86225 0.0
C2590 C 0.95787 0.40675 0.84944 0.0
C2591 C 0.9561 0.42374 0.84349 0.0
H2592 H 0.94831 0.38395 0.86685 0.0
H2593 H 0.93214 0.54934 0.80897 0.0
H2594 H 0.538 0.45348 0.7792 0.0
H2595 H 0.52896 0.45855 0.80542 0.0
H2596 H 0.59663 0.49029 0.82305 0.0
H2597 H 0.60572 0.48416 0.79694 0.0
H2598 H 0.57311 0.46388 0.84303 0.0
H2599 H 0.57038 0.51954 0.81653 0.0
H2600 H 0.55983 0.5354 0.79531 0.0
H2601 H 0.49281 0.49605 0.80292 0.0
H2602 H 0.50292 0.47972 0.82405 0.0
H2603 H 0.55274 0.50254 0.91557 0.0
H2604 H 0.56658 0.50125 0.89034 0.0
H2605 H 0.501 0.46366 0.86811 0.0
H2606 H 0.48707 0.46463 0.89322 0.0
H2607 H 0.52676 0.49658 0.85119 0.0
H2608 H 0.53064 0.43947 0.87684 0.0
H2609 H 0.54231 0.4251 0.89852 0.0
H2610 H 0.60906 0.46981 0.89296 0.0
H2611 H 0.59776 0.48462 0.87136 0.0
C2612 C 0.55098 0.46129 0.78866 0.0
C2613 C 0.57262 0.4684 0.7859 0.0
C2614 C 0.5458 0.46446 0.80365 0.0
C2615 C 0.56215 0.47517 0.81619 0.0
C2616 C 0.58374 0.48211 0.81355 0.0
C2617 C 0.58893 0.47877 0.79856 0.0
C2618 C 0.55655 0.47883 0.83206 0.0
C2619 C 0.56328 0.47137 0.84484 0.0
C2620 C 0.54357 0.48843 0.83447 0.0
C2621 C 0.53741 0.49827 0.8218 0.0
C2622 C 0.55338 0.51415 0.81361 0.0
C2623 C 0.54748 0.52324 0.80161 0.0
C2624 C 0.52566 0.5167 0.79775 0.0
C2625 C 0.5097 0.50109 0.80591 0.0
C2626 C 0.51551 0.49192 0.81792 0.0
C2627 C 0.54127 0.49383 0.90534 0.0
C2628 C 0.51879 0.48371 0.90642 0.0
C2629 C 0.54921 0.49317 0.89093 0.0
C2630 C 0.53481 0.48228 0.87736 0.0
C2631 C 0.5124 0.47225 0.87841 0.0
C2632 C 0.50447 0.47289 0.89278 0.0
C2633 C 0.54293 0.48123 0.86201 0.0
C2634 C 0.53672 0.48925 0.84935 0.0
C2635 C 0.55657 0.47237 0.85976 0.0
C2636 C 0.56335 0.46328 0.87259 0.0
C2637 C 0.5478 0.44632 0.88031 0.0
C2638 C 0.55435 0.43808 0.89257 0.0
C2639 C 0.57641 0.44657 0.89714 0.0
C2640 C 0.59198 0.46327 0.88942 0.0
C2641 C 0.58551 0.47157 0.87716 0.0
H2642 H 0.58145 0.44019 0.90664 0.0
H2643 H 0.52113 0.52376 0.78845 0.0
H2644 H 0.55031 0.13613 0.80756 0.0
H2645 H 0.54502 0.12411 0.83384 0.0
H2646 H 0.56611 0.07842 0.82162 0.0
H2647 H 0.57085 0.08996 0.79513 0.0
H2648 H 0.52912 0.05937 0.83519 0.0
H2649 H 0.59824 0.12407 0.84674 0.0
H2650 H 0.62516 0.16303 0.84688 0.0
H2651 H 0.58541 0.17999 0.87306 0.0
H2652 H 0.55808 0.14112 0.87289 0.0
H2653 H 0.52634 0.02687 0.91151 0.0
H2654 H 0.54081 0.04283 0.88748 0.0
H2655 H 0.52079 0.09021 0.8962 0.0
H2656 H 0.50714 0.07488 0.92064 0.0
H2657 H 0.55979 0.10844 0.88471 0.0
H2658 H 0.4896 0.04435 0.87125 0.0
H2659 H 0.46218 0.0055 0.87094 0.0
H2660 H 0.50373 0.98767 0.84804 0.0
H2661 H 0.53153 0.02644 0.84841 0.0
C2662 C 0.55386 0.12355 0.81047 0.0
C2663 C 0.56093 0.11394 0.79924 0.0
C2664 C 0.55104 0.11685 0.82556 0.0
C2665 C 0.55534 0.10048 0.82975 0.0
C2666 C 0.56276 0.09112 0.81865 0.0
C2667 C 0.56562 0.09785 0.80356 0.0
C2668 C 0.55083 0.09225 0.8454 0.0
C2669 C 0.53617 0.07004 0.84602 0.0
C2670 C 0.55959 0.10627 0.85953 0.0
C2671 C 0.57602 0.12967 0.85969 0.0
C2672 C 0.59515 0.13611 0.85242 0.0
C2673 C 0.6105 0.15818 0.85253 0.0
C2674 C 0.60698 0.17398 0.85995 0.0
C2675 C 0.58811 0.16773 0.86731 0.0
C2676 C 0.57269 0.14568 0.86723 0.0
C2677 C 0.52543 0.04097 0.90848 0.0
C2678 C 0.51551 0.04955 0.91792 0.0
C2679 C 0.53352 0.04994 0.89466 0.0
C2680 C 0.53156 0.06749 0.8899 0.0
C2681 C 0.52239 0.07661 0.8996 0.0
C2682 C 0.5144 0.06771 0.91347 0.0
C2683 C 0.53803 0.07561 0.87445 0.0
C2684 C 0.55296 0.09777 0.87386 0.0
C2685 C 0.52947 0.06159 0.86032 0.0
C2686 C 0.51273 0.03828 0.86001 0.0
C2687 C 0.49295 0.03214 0.86626 0.0
C2688 C 0.47734 0.01013 0.86605 0.0
C2689 C 0.48124 0.99412 0.85952 0.0
C2690 C 0.50074 1.00009 0.85312 0.0
C2691 C 0.51643 0.02207 0.85332 0.0
H2692 H 0.46912 0.97709 0.85937 0.0
H2693 H 0.61888 0.19106 0.86001 0.0
H2694 H 0.14182 0.2523 0.57246 0.0
H2695 H 0.15102 0.26702 0.54737 0.0
H2696 H 0.08317 0.2332 0.52999 0.0
H2697 H 0.07387 0.21721 0.55481 0.0
H2698 H 0.10546 0.23066 0.50782 0.0
H2699 H 0.11152 0.28879 0.54202 0.0
H2700 H 0.12326 0.31433 0.56597 0.0
H2701 H 0.18985 0.3406 0.55715 0.0
H2702 H 0.17852 0.315 0.53325 0.0
H2703 H 0.12717 0.29535 0.44266 0.0
H2704 H 0.11344 0.27893 0.46679 0.0
H2705 H 0.17889 0.30136 0.4866 0.0
H2706 H 0.19269 0.31733 0.46248 0.0
H2707 H 0.15473 0.31006 0.50702 0.0
H2708 H 0.14682 0.24915 0.47293 0.0
H2709 H 0.13343 0.22448 0.44843 0.0
H2710 H 0.06772 0.20465 0.45667 0.0
H2711 H 0.08075 0.22943 0.48113 0.0
C2712 C 0.12882 0.24764 0.56326 0.0
C2713 C 0.10706 0.23353 0.56575 0.0
C2714 C 0.1341 0.25637 0.54894 0.0
C2715 C 0.11777 0.25161 0.53686 0.0
C2716 C 0.09606 0.23726 0.53917 0.0
C2717 C 0.09076 0.2283 0.55345 0.0
C2718 C 0.12348 0.26163 0.52185 0.0
C2719 C 0.11595 0.24807 0.50765 0.0
C2720 C 0.13726 0.28435 0.52156 0.0
C2721 C 0.14417 0.29984 0.5359 0.0
C2722 C 0.12868 0.29991 0.54524 0.0
C2723 C 0.13526 0.31441 0.5588 0.0
C2724 C 0.15729 0.32904 0.56309 0.0
C2725 C 0.17279 0.32924 0.55381 0.0
C2726 C 0.16629 0.31475 0.54025 0.0
C2727 C 0.13862 0.29658 0.45209 0.0
C2728 C 0.16104 0.30772 0.45063 0.0
C2729 C 0.13075 0.28727 0.46589 0.0
C2730 C 0.14516 0.2889 0.47846 0.0
C2731 C 0.16751 0.30004 0.47707 0.0
C2732 C 0.17537 0.30924 0.46328 0.0
C2733 C 0.13709 0.27905 0.49314 0.0
C2734 C 0.14413 0.29268 0.50725 0.0
C2735 C 0.12261 0.25649 0.49331 0.0
C2736 C 0.11476 0.24128 0.47878 0.0
C2737 C 0.12952 0.23962 0.46947 0.0
C2738 C 0.122 0.2256 0.4556 0.0
C2739 C 0.09974 0.21304 0.45098 0.0
C2740 C 0.08496 0.2144 0.46025 0.0
C2741 C 0.0924 0.22841 0.47413 0.0
H2742 H 0.09394 0.20221 0.44023 0.0
H2743 H 0.16235 0.34026 0.5736 0.0
H2744 H 0.8085 0.91264 0.57678 0.0
H2745 H 0.7963 0.90857 0.54892 0.0
H2746 H 0.74501 0.84308 0.55299 0.0
H2747 H 0.75747 0.84695 0.58081 0.0
H2748 H 0.76266 0.84428 0.52669 0.0
H2749 H 0.73572 0.88655 0.55233 0.0
H2750 H 0.73859 0.91713 0.56941 0.0
H2751 H 0.78209 0.9625 0.53986 0.0
H2752 H 0.77971 0.93218 0.52271 0.0
H2753 H 0.69157 0.83011 0.45962 0.0
H2754 H 0.70862 0.83428 0.48615 0.0
H2755 H 0.76209 0.89649 0.47768 0.0
H2756 H 0.74498 0.8925 0.45113 0.0
H2757 H 0.74518 0.89783 0.50561 0.0
H2758 H 0.7697 0.85429 0.47895 0.0
H2759 H 0.76558 0.82303 0.46199 0.0
H2760 H 0.72495 0.77921 0.4936 0.0
H2761 H 0.72854 0.81019 0.51063 0.0
C2762 C 0.79458 0.8974 0.57173 0.0
C2763 C 0.78383 0.88016 0.58097 0.0
C2764 C 0.78762 0.89509 0.55582 0.0
C2765 C 0.76952 0.87563 0.5489 0.0
C2766 C 0.75901 0.85824 0.55806 0.0
C2767 C 0.76612 0.86046 0.57394 0.0
C2768 C 0.76133 0.8735 0.5322 0.0
C2769 C 0.75862 0.85586 0.52212 0.0
C2770 C 0.75648 0.88886 0.52614 0.0
C2771 C 0.75771 0.9071 0.53632 0.0
C2772 C 0.74601 0.90305 0.54953 0.0
C2773 C 0.74753 0.92034 0.55921 0.0
C2774 C 0.76057 0.94175 0.55575 0.0
C2775 C 0.77203 0.94591 0.54254 0.0
C2776 C 0.77058 0.92868 0.53283 0.0
C2777 C 0.70699 0.84464 0.4634 0.0
C2778 C 0.71694 0.861 0.45332 0.0
C2779 C 0.71678 0.84694 0.47851 0.0
C2780 C 0.73667 0.86564 0.48384 0.0
C2781 C 0.74676 0.88191 0.47376 0.0
C2782 C 0.73705 0.87955 0.45858 0.0
C2783 C 0.7464 0.86858 0.50017 0.0
C2784 C 0.74936 0.88634 0.51017 0.0
C2785 C 0.75128 0.85323 0.50617 0.0
C2786 C 0.74923 0.83457 0.496 0.0
C2787 C 0.75974 0.83798 0.48223 0.0
C2788 C 0.75753 0.82031 0.47261 0.0
C2789 C 0.74496 0.79914 0.4767 0.0
C2790 C 0.73466 0.79562 0.49044 0.0
C2791 C 0.73679 0.81323 0.50009 0.0
H2792 H 0.74322 0.78547 0.46923 0.0
H2793 H 0.76175 0.95511 0.56327 0.0
H2794 H 0.1109 0.86769 0.57079 0.0
H2795 H 0.11757 0.85972 0.54422 0.0
H2796 H 0.13864 0.92584 0.53484 0.0
H2797 H 0.13156 0.93378 0.56123 0.0
H2798 H 0.11373 0.89682 0.50963 0.0
H2799 H 0.17534 0.91138 0.5452 0.0
H2800 H 0.19372 0.90614 0.56838 0.0
H2801 H 0.16981 0.83976 0.55038 0.0
H2802 H 0.15101 0.84453 0.52719 0.0
H2803 H 0.17561 0.90749 0.44578 0.0
H2804 H 0.16286 0.91136 0.47092 0.0
H2805 H 0.1478 0.84626 0.4791 0.0
H2806 H 0.161 0.84253 0.45411 0.0
H2807 H 0.1676 0.87267 0.5047 0.0
H2808 H 0.10796 0.85905 0.4679 0.0
H2809 H 0.09125 0.86533 0.44429 0.0
H2810 H 0.11168 0.93014 0.46427 0.0
H2811 H 0.12891 0.9244 0.48788 0.0
C2812 C 0.11661 0.88042 0.56297 0.0
C2813 C 0.12088 0.90142 0.56815 0.0
C2814 C 0.12056 0.87589 0.54784 0.0
C2815 C 0.12887 0.89227 0.53762 0.0
C2816 C 0.1323 0.91298 0.54254 0.0
C2817 C 0.12842 0.91754 0.55767 0.0
C2818 C 0.13501 0.88821 0.52209 0.0
C2819 C 0.1256 0.89167 0.50853 0.0
C2820 C 0.15021 0.88111 0.52065 0.0
C2821 C 0.16157 0.87824 0.53455 0.0
C2822 C 0.17386 0.89562 0.54625 0.0
C2823 C 0.18437 0.89274 0.55938 0.0
C2824 C 0.18288 0.87261 0.56087 0.0
C2825 C 0.17091 0.85533 0.54922 0.0
C2826 C 0.16034 0.85811 0.53608 0.0
C2827 C 0.16939 0.89394 0.45289 0.0
C2828 C 0.16926 0.87469 0.44797 0.0
C2829 C 0.16207 0.89614 0.46724 0.0
C2830 C 0.15405 0.87898 0.47683 0.0
C2831 C 0.15389 0.85973 0.47192 0.0
C2832 C 0.16145 0.85762 0.45765 0.0
C2833 C 0.14635 0.8813 0.49215 0.0
C2834 C 0.15552 0.87756 0.50571 0.0
C2835 C 0.13092 0.88813 0.49357 0.0
C2836 C 0.11989 0.89135 0.47962 0.0
C2837 C 0.10897 0.87467 0.46724 0.0
C2838 C 0.09943 0.87815 0.45384 0.0
C2839 C 0.10048 0.89815 0.45276 0.0
C2840 C 0.11093 0.91467 0.46511 0.0
C2841 C 0.12058 0.91131 0.47851 0.0
H2842 H 0.09316 0.90085 0.44235 0.0
H2843 H 0.19104 0.87041 0.57105 0.0
H2844 H 0.5871 0.81627 0.11185 0.0
H2845 H 0.59946 0.82434 0.13991 0.0
H2846 H 0.55374 0.75804 0.1473 0.0
H2847 H 0.54094 0.74999 0.11934 0.0
H2848 H 0.55526 0.787 0.17045 0.0
H2849 H 0.60603 0.77346 0.14436 0.0
H2850 H 0.63201 0.77924 0.12495 0.0
H2851 H 0.67227 0.84574 0.14446 0.0
H2852 H 0.64635 0.84042 0.16386 0.0
H2853 H 0.60092 0.77192 0.24088 0.0
H2854 H 0.5863 0.77058 0.21409 0.0
H2855 H 0.63539 0.83762 0.21215 0.0
H2856 H 0.65036 0.83894 0.2389 0.0
H2857 H 0.63262 0.81195 0.18654 0.0
H2858 H 0.58356 0.82457 0.21434 0.0
H2859 H 0.55773 0.81866 0.23389 0.0
H2860 H 0.51442 0.75424 0.21152 0.0
H2861 H 0.54013 0.75964 0.19196 0.0
C2862 C 0.57946 0.8035 0.11949 0.0
C2863 C 0.56314 0.78244 0.11335 0.0
C2864 C 0.58664 0.8081 0.1355 0.0
C2865 C 0.57768 0.79173 0.14567 0.0
C2866 C 0.56091 0.7709 0.13966 0.0
C2867 C 0.55376 0.76628 0.12366 0.0
C2868 C 0.58635 0.79597 0.16244 0.0
C2869 C 0.57213 0.7923 0.17399 0.0
C2870 C 0.60849 0.80342 0.16704 0.0
C2871 C 0.62413 0.80662 0.15543 0.0
C2872 C 0.62033 0.78937 0.14442 0.0
C2873 C 0.63506 0.79255 0.13345 0.0
C2874 C 0.65375 0.81286 0.13345 0.0
C2875 C 0.65777 0.83002 0.14446 0.0
C2876 C 0.64307 0.82693 0.15545 0.0
C2877 C 0.60857 0.78639 0.23476 0.0
C2878 C 0.62683 0.80552 0.24198 0.0
C2879 C 0.60008 0.78567 0.2195 0.0
C2880 C 0.60965 0.80406 0.21116 0.0
C2881 C 0.62771 0.82327 0.2184 0.0
C2882 C 0.63615 0.82404 0.23371 0.0
C2883 C 0.60149 0.80276 0.19459 0.0
C2884 C 0.6158 0.80692 0.18305 0.0
C2885 C 0.57944 0.79577 0.19002 0.0
C2886 C 0.56388 0.79245 0.20175 0.0
C2887 C 0.56861 0.80907 0.21366 0.0
C2888 C 0.55397 0.80583 0.22473 0.0
C2889 C 0.53447 0.78607 0.22397 0.0
C2890 C 0.52954 0.76954 0.2121 0.0
C2891 C 0.54413 0.77269 0.20101 0.0
H2892 H 0.52316 0.78359 0.23255 0.0
H2893 H 0.66514 0.8153 0.12494 0.0
H2894 H 0.23343 0.76509 0.12768 0.0
H2895 H 0.22496 0.76844 0.15451 0.0
H2896 H 0.24588 0.83618 0.15128 0.0
H2897 H 0.2542 0.83292 0.12435 0.0
H2898 H 0.25915 0.82896 0.1803 0.0
H2899 H 0.19331 0.79957 0.14539 0.0
H2900 H 0.16545 0.77363 0.12462 0.0
H2901 H 0.15112 0.721 0.15274 0.0
H2902 H 0.17914 0.7466 0.17358 0.0
H2903 H 0.20074 0.84703 0.23815 0.0
H2904 H 0.21547 0.84327 0.21388 0.0
H2905 H 0.19491 0.77644 0.22069 0.0
H2906 H 0.18015 0.78012 0.24502 0.0
H2907 H 0.18253 0.78198 0.19063 0.0
H2908 H 0.24586 0.8116 0.22663 0.0
H2909 H 0.27294 0.83741 0.24774 0.0
H2910 H 0.29238 0.88923 0.21808 0.0
H2911 H 0.26482 0.86385 0.19693 0.0
C2912 C 0.23624 0.78071 0.13267 0.0
C2913 C 0.24426 0.79868 0.1238 0.0
C2914 C 0.23149 0.78262 0.14803 0.0
C2915 C 0.23454 0.80249 0.15481 0.0
C2916 C 0.24342 0.8207 0.14626 0.0
C2917 C 0.24819 0.81881 0.13088 0.0
C2918 C 0.22725 0.80392 0.17044 0.0
C2919 C 0.24238 0.81887 0.18254 0.0
C2920 C 0.20545 0.79035 0.17344 0.0
C2921 C 0.18848 0.77496 0.16097 0.0
C2922 C 0.18433 0.78244 0.14709 0.0
C2923 C 0.1685 0.7678 0.13531 0.0
C2924 C 0.15656 0.74567 0.13734 0.0
C2925 C 0.1604 0.73814 0.15117 0.0
C2926 C 0.17625 0.7527 0.16297 0.0
C2927 C 0.19942 0.83156 0.23448 0.0
C2928 C 0.18928 0.81385 0.24343 0.0
C2929 C 0.20794 0.82948 0.22068 0.0
C2930 C 0.20635 0.80961 0.21554 0.0
C2931 C 0.19633 0.79192 0.22449 0.0
C2932 C 0.18803 0.79407 0.2384 0.0
C2933 C 0.21438 0.80711 0.20048 0.0
C2934 C 0.19936 0.79199 0.18845 0.0
C2935 C 0.23627 0.8205 0.1976 0.0
C2936 C 0.25307 0.83583 0.21023 0.0
C2937 C 0.25573 0.82854 0.22464 0.0
C2938 C 0.2712 0.8431 0.23662 0.0
C2939 C 0.28441 0.86495 0.23425 0.0
C2940 C 0.28213 0.87229 0.2199 0.0
C2941 C 0.26654 0.85783 0.20791 0.0
H2942 H 0.29642 0.87619 0.24353 0.0
H2943 H 0.14431 0.73437 0.12821 0.0
H2944 H 0.25211 0.4599 0.13822 0.0
H2945 H 0.24493 0.44845 0.16463 0.0
H2946 H 0.17692 0.40753 0.14882 0.0
H2947 H 0.18396 0.41841 0.12241 0.0
H2948 H 0.18401 0.43333 0.17625 0.0
H2949 H 0.20793 0.38537 0.15493 0.0
H2950 H 0.23356 0.37685 0.14271 0.0
H2951 H 0.28187 0.41326 0.18151 0.0
H2952 H 0.25661 0.42226 0.19386 0.0
H2953 H 0.14084 0.36313 0.23522 0.0
H2954 H 0.15312 0.37971 0.21102 0.0
H2955 H 0.21936 0.41323 0.2322 0.0
H2956 H 0.20722 0.39611 0.25637 0.0
H2957 H 0.21655 0.39513 0.20344 0.0
H2958 H 0.19219 0.44059 0.22607 0.0
H2959 H 0.16746 0.45035 0.23836 0.0
H2960 H 0.1212 0.42063 0.1976 0.0
H2961 H 0.14548 0.41031 0.18516 0.0
C2962 C 0.23567 0.44823 0.14031 0.0
C2963 C 0.21859 0.44021 0.12819 0.0
C2964 C 0.23159 0.44178 0.15543 0.0
C2965 C 0.21037 0.42718 0.15869 0.0
C2966 C 0.19338 0.41897 0.14659 0.0
C2967 C 0.19744 0.42529 0.1315 0.0
C2968 C 0.20563 0.42057 0.17472 0.0
C2969 C 0.19095 0.42479 0.18216 0.0
C2970 C 0.21531 0.41014 0.18262 0.0
C2971 C 0.23047 0.4047 0.17522 0.0
C2972 C 0.22409 0.39173 0.16078 0.0
C2973 C 0.23853 0.38677 0.15385 0.0
C2974 C 0.25936 0.39456 0.1613 0.0
C2975 C 0.26575 0.40727 0.17573 0.0
C2976 C 0.25138 0.41229 0.18271 0.0
C2977 C 0.15804 0.37397 0.23473 0.0
C2978 C 0.17305 0.37822 0.24773 0.0
C2979 C 0.16502 0.38363 0.22093 0.0
C2980 C 0.18716 0.39791 0.21983 0.0
C2981 C 0.2022 0.40233 0.2328 0.0
C2982 C 0.19521 0.39266 0.24664 0.0
C2983 C 0.19453 0.40747 0.20489 0.0
C2984 C 0.20973 0.40385 0.19764 0.0
C2985 C 0.18542 0.4186 0.1972 0.0
C2986 C 0.1706 0.42449 0.20473 0.0
C2987 C 0.17665 0.43592 0.21978 0.0
C2988 C 0.16272 0.44158 0.22677 0.0
C2989 C 0.14275 0.43606 0.21878 0.0
C2990 C 0.13666 0.42486 0.20378 0.0
C2991 C 0.15051 0.4191 0.19676 0.0
H2992 H 0.13202 0.44051 0.2242 0.0
H2993 H 0.27051 0.39071 0.15592 0.0
H2994 H 0.78281 0.54282 0.89058 0.0
H2995 H 0.79081 0.55399 0.86426 0.0
H2996 H 0.76849 0.59968 0.87204 0.0
H2997 H 0.76066 0.58879 0.89845 0.0
H2998 H 0.75388 0.57748 0.84273 0.0
H2999 H 0.82197 0.61705 0.87526 0.0
H3000 H 0.8515 0.62089 0.89401 0.0
H3001 H 0.86404 0.58119 0.8616 0.0
H3002 H 0.83435 0.57685 0.84274 0.0
H3003 H 0.80548 0.64878 0.78461 0.0
H3004 H 0.79151 0.63111 0.80825 0.0
H3005 H 0.81651 0.58804 0.79856 0.0
H3006 H 0.83073 0.60584 0.77497 0.0
H3007 H 0.82897 0.60704 0.82824 0.0
H3008 H 0.76109 0.56581 0.79635 0.0
H3009 H 0.72997 0.55877 0.77789 0.0
H3010 H 0.71717 0.60021 0.80832 0.0
H3011 H 0.74802 0.60716 0.82712 0.0
C3012 C 0.77968 0.55532 0.88673 0.0
C3013 C 0.77122 0.565 0.89669 0.0
C3014 C 0.78421 0.56164 0.87166 0.0
C3015 C 0.78048 0.57785 0.86624 0.0
C3016 C 0.77147 0.58712 0.87597 0.0
C3017 C 0.76694 0.58082 0.89105 0.0
C3018 C 0.78646 0.58553 0.8506 0.0
C3019 C 0.77036 0.58418 0.83962 0.0
C3020 C 0.80782 0.59371 0.84638 0.0
C3021 C 0.82579 0.59644 0.85766 0.0
C3022 C 0.83091 0.609 0.87218 0.0
C3023 C 0.8477 0.61129 0.88282 0.0
C3024 C 0.8596 0.60124 0.87902 0.0
C3025 C 0.85479 0.58894 0.86454 0.0
C3026 C 0.83799 0.58657 0.85387 0.0
C3027 C 0.80786 0.63544 0.78747 0.0
C3028 C 0.81933 0.62879 0.778 0.0
C3029 C 0.79969 0.62522 0.8009 0.0
C3030 C 0.80289 0.60818 0.80516 0.0
C3031 C 0.81382 0.60112 0.79549 0.0
C3032 C 0.82184 0.61122 0.78198 0.0
C3033 C 0.7964 0.59902 0.82034 0.0
C3034 C 0.81246 0.60021 0.83129 0.0
C3035 C 0.775 0.5906 0.8245 0.0
C3036 C 0.75695 0.58715 0.81305 0.0
C3037 C 0.75173 0.57355 0.79904 0.0
C3038 C 0.73406 0.56947 0.78857 0.0
C3039 C 0.72164 0.5791 0.7919 0.0
C3040 C 0.7268 0.59276 0.80576 0.0
C3041 C 0.7443 0.59667 0.81637 0.0
H3042 H 0.70802 0.576 0.78373 0.0
H3043 H 0.87259 0.60303 0.88727 0.0
H3044 H 0.46242 0.19678 0.91189 0.0
H3045 H 0.44851 0.19187 0.88436 0.0
H3046 H 0.40982 0.22048 0.89674 0.0
H3047 H 0.42299 0.22465 0.92437 0.0
H3048 H 0.38693 0.18546 0.8762 0.0
H3049 H 0.45748 0.24947 0.88026 0.0
H3050 H 0.49714 0.27113 0.88686 0.0
H3051 H 0.50545 0.22771 0.85499 0.0
H3052 H 0.46579 0.2056 0.84835 0.0
H3053 H 0.36495 0.21235 0.80196 0.0
H3054 H 0.37878 0.21429 0.82903 0.0
H3055 H 0.41133 0.18024 0.81379 0.0
H3056 H 0.39709 0.17772 0.78659 0.0
H3057 H 0.43733 0.21634 0.83536 0.0
H3058 H 0.36625 0.15325 0.8306 0.0
H3059 H 0.32659 0.13247 0.82392 0.0
H3060 H 0.31931 0.17526 0.85716 0.0
H3061 H 0.35898 0.1965 0.86388 0.0
C3062 C 0.45075 0.2018 0.90879 0.0
C3063 C 0.44385 0.21115 0.92035 0.0
C3064 C 0.44299 0.19919 0.89302 0.0
C3065 C 0.42834 0.20607 0.88845 0.0
C3066 C 0.42118 0.21513 0.89998 0.0
C3067 C 0.42888 0.21768 0.91575 0.0
C3068 C 0.42042 0.20382 0.87168 0.0
C3069 C 0.39796 0.19243 0.86731 0.0
C3070 C 0.43481 0.21247 0.86 0.0
C3071 C 0.45866 0.22575 0.86394 0.0
C3072 C 0.46775 0.24444 0.87475 0.0
C3073 C 0.49023 0.25682 0.87849 0.0
C3074 C 0.5038 0.25076 0.87138 0.0
C3075 C 0.49492 0.23235 0.8605 0.0
C3076 C 0.47244 0.2199 0.85674 0.0
C3077 C 0.37481 0.205 0.80433 0.0
C3078 C 0.37971 0.19467 0.79207 0.0
C3079 C 0.38279 0.20622 0.81983 0.0
C3080 C 0.39586 0.19719 0.82343 0.0
C3081 C 0.40123 0.18729 0.81124 0.0
C3082 C 0.39315 0.18595 0.7957 0.0
C3083 C 0.40389 0.19815 0.83995 0.0
C3084 C 0.42634 0.20929 0.84426 0.0
C3085 C 0.3895 0.18939 0.8516 0.0
C3086 C 0.36562 0.17659 0.84764 0.0
C3087 C 0.35621 0.15834 0.83639 0.0
C3088 C 0.33373 0.14646 0.83262 0.0
C3089 C 0.32044 0.15257 0.84009 0.0
C3090 C 0.32962 0.17055 0.85138 0.0
C3091 C 0.35211 0.18251 0.85518 0.0
H3092 H 0.30303 0.14335 0.83715 0.0
H3093 H 0.5212 0.26037 0.87429 0.0
H3094 H 0.78878 0.19938 0.90483 0.0
H3095 H 0.79666 0.19245 0.87829 0.0
H3096 H 0.79128 0.24671 0.86376 0.0
H3097 H 0.78407 0.25407 0.89038 0.0
H3098 H 0.7693 0.20493 0.84191 0.0
H3099 H 0.83752 0.25835 0.87074 0.0
H3100 H 0.86547 0.27245 0.89337 0.0
H3101 H 0.87422 0.21732 0.88537 0.0
H3102 H 0.846 0.20268 0.86285 0.0
H3103 H 0.82379 0.22912 0.7728 0.0
H3104 H 0.81092 0.23063 0.79838 0.0
H3105 H 0.83065 0.18588 0.81378 0.0
H3106 H 0.84375 0.18447 0.78825 0.0
H3107 H 0.84423 0.22081 0.83544 0.0
H3108 H 0.77828 0.16853 0.80547 0.0
H3109 H 0.74915 0.15296 0.78361 0.0
H3110 H 0.73515 0.20418 0.79385 0.0
H3111 H 0.76447 0.22031 0.81563 0.0
C3112 C 0.78902 0.2096 0.89588 0.0
C3113 C 0.78584 0.22723 0.89953 0.0
C3114 C 0.79354 0.20568 0.8808 0.0
C3115 C 0.79454 0.21909 0.86913 0.0
C3116 C 0.79049 0.23616 0.87261 0.0
C3117 C 0.78645 0.24037 0.88777 0.0
C3118 C 0.80109 0.21614 0.85357 0.0
C3119 C 0.78571 0.2086 0.8404 0.0
C3120 C 0.82237 0.22045 0.85179 0.0
C3121 C 0.83945 0.22928 0.86524 0.0
C3122 C 0.84523 0.24911 0.87391 0.0
C3123 C 0.86116 0.25723 0.8867 0.0
C3124 C 0.87157 0.24575 0.89084 0.0
C3125 C 0.86611 0.22617 0.88217 0.0
C3126 C 0.85015 0.21795 0.86939 0.0
C3127 C 0.82539 0.21962 0.78164 0.0
C3128 C 0.83479 0.20668 0.77852 0.0
C3129 C 0.81789 0.22036 0.79621 0.0
C3130 C 0.81969 0.20824 0.80795 0.0
C3131 C 0.82905 0.19531 0.80487 0.0
C3132 C 0.8364 0.19441 0.79026 0.0
C3133 C 0.81246 0.20968 0.82361 0.0
C3134 C 0.82775 0.217 0.83685 0.0
C3135 C 0.79105 0.20508 0.82544 0.0
C3136 C 0.77375 0.19576 0.8121 0.0
C3137 C 0.76919 0.17664 0.80295 0.0
C3138 C 0.7526 0.16768 0.79059 0.0
C3139 C 0.74033 0.17759 0.78733 0.0
C3140 C 0.74469 0.19654 0.79638 0.0
C3141 C 0.76129 0.2056 0.80874 0.0
H3142 H 0.72736 0.1705 0.77786 0.0
H3143 H 0.8839 0.25207 0.90074 0.0
H3144 H 0.21412 0.08512 0.45386 0.0
H3145 H 0.22644 0.09281 0.48184 0.0
H3146 H 0.27183 0.15951 0.47513 0.0
H3147 H 0.25998 0.15174 0.44696 0.0
H3148 H 0.29071 0.14224 0.49285 0.0
H3149 H 0.22618 0.14678 0.49277 0.0
H3150 H 0.18746 0.13455 0.48628 0.0
H3151 H 0.16961 0.07832 0.51113 0.0
H3152 H 0.20824 0.09006 0.51759 0.0
H3153 H 0.32016 0.17381 0.57432 0.0
H3154 H 0.3058 0.17168 0.54728 0.0
H3155 H 0.2576 0.10436 0.54944 0.0
H3156 H 0.27178 0.10646 0.57654 0.0
H3157 H 0.24042 0.12492 0.53415 0.0
H3158 H 0.3045 0.11872 0.53233 0.0
H3159 H 0.34313 0.13039 0.5386 0.0
H3160 H 0.36164 0.1893 0.51704 0.0
H3161 H 0.32309 0.17811 0.51083 0.0
C3162 C 0.22678 0.10142 0.45832 0.0
C3163 C 0.23614 0.11781 0.44818 0.0
C3164 C 0.23365 0.10585 0.47435 0.0
C3165 C 0.2499 0.1268 0.48061 0.0
C3166 C 0.2592 0.14325 0.47055 0.0
C3167 C 0.25232 0.13883 0.45449 0.0
C3168 C 0.25772 0.13118 0.49756 0.0
C3169 C 0.27978 0.13886 0.50189 0.0
C3170 C 0.24338 0.12628 0.50934 0.0
C3171 C 0.22012 0.11923 0.50556 0.0
C3172 C 0.214 0.13173 0.49675 0.0
C3173 C 0.19206 0.12489 0.4931 0.0
C3174 C 0.17608 0.10564 0.49826 0.0
C3175 C 0.18201 0.09322 0.50713 0.0
C3176 C 0.20392 0.09997 0.51081 0.0
C3177 C 0.30647 0.15857 0.56903 0.0
C3178 C 0.29722 0.14024 0.5775 0.0
C3179 C 0.29828 0.15738 0.55359 0.0
C3180 C 0.28086 0.13775 0.54624 0.0
C3181 C 0.27107 0.11966 0.55487 0.0
C3182 C 0.27916 0.12089 0.57036 0.0
C3183 C 0.27335 0.13579 0.52941 0.0
C3184 C 0.25137 0.12853 0.5251 0.0
C3185 C 0.28775 0.14101 0.51763 0.0
C3186 C 0.31092 0.14769 0.52127 0.0
C3187 C 0.31681 0.13424 0.52903 0.0
C3188 C 0.33869 0.14075 0.53256 0.0
C3189 C 0.35483 0.1606 0.52826 0.0
C3190 C 0.34912 0.17395 0.52039 0.0
C3191 C 0.32726 0.16753 0.51685 0.0
H3192 H 0.37176 0.16562 0.53101 0.0
H3193 H 0.15911 0.10038 0.49541 0.0
H3194 H 0.8985 0.1 0.45578 0.0
H3195 H 0.88894 0.10284 0.48236 0.0
H3196 H 0.89819 0.16655 0.47608 0.0
H3197 H 0.9085 0.16402 0.44968 0.0
H3198 H 0.91347 0.16708 0.50433 0.0
H3199 H 0.84671 0.11934 0.47266 0.0
H3200 H 0.82144 0.08765 0.45405 0.0
H3201 H 0.82328 0.0445 0.48626 0.0
H3202 H 0.84881 0.07597 0.50498 0.0
H3203 H 0.85042 0.17232 0.56379 0.0
H3204 H 0.86346 0.16962 0.53851 0.0
H3205 H 0.8642 0.11185 0.55017 0.0
H3206 H 0.85097 0.11436 0.57547 0.0
H3207 H 0.84441 0.10785 0.51982 0.0
H3208 H 0.91053 0.15782 0.55215 0.0
H3209 H 0.9337 0.19059 0.57048 0.0
H3210 H 0.93084 0.23095 0.53622 0.0
H3211 H 0.9073 0.19837 0.51778 0.0
C3212 C 0.89854 0.11462 0.46012 0.0
C3213 C 0.90411 0.13174 0.45067 0.0
C3214 C 0.89301 0.11621 0.47528 0.0
C3215 C 0.89241 0.13474 0.48115 0.0
C3216 C 0.89849 0.15208 0.47184 0.0
C3217 C 0.90437 0.15063 0.45676 0.0
C3218 C 0.88509 0.13589 0.49686 0.0
C3219 C 0.89825 0.15421 0.50763 0.0
C3220 C 0.86536 0.11899 0.50132 0.0
C3221 C 0.84984 0.10002 0.49015 0.0
C3222 C 0.84183 0.1031 0.47573 0.0
C3223 C 0.82745 0.08518 0.46517 0.0
C3224 C 0.8208 0.06408 0.46895 0.0
C3225 C 0.82847 0.06086 0.48334 0.0
C3226 C 0.84288 0.07873 0.49393 0.0
C3227 C 0.85331 0.15901 0.56095 0.0
C3228 C 0.84969 0.14355 0.57161 0.0
C3229 C 0.86087 0.15756 0.54655 0.0
C3230 C 0.86491 0.14061 0.54252 0.0
C3231 C 0.86122 0.12508 0.55309 0.0
C3232 C 0.85382 0.12662 0.56756 0.0
C3233 C 0.87276 0.13899 0.52717 0.0
C3234 C 0.85967 0.12061 0.5165 0.0
C3235 C 0.89235 0.15599 0.52271 0.0
C3236 C 0.90698 0.17563 0.53363 0.0
C3237 C 0.91473 0.17367 0.54856 0.0
C3238 C 0.92794 0.19222 0.55897 0.0
C3239 C 0.93367 0.21284 0.55454 0.0
C3240 C 0.92634 0.21497 0.53965 0.0
C3241 C 0.91308 0.19646 0.5292 0.0
H3242 H 0.94383 0.22718 0.56263 0.0
H3243 H 0.80967 0.05023 0.46076 0.0
H3244 H 0.8568 0.75382 0.45758 0.0
H3245 H 0.85037 0.74344 0.48418 0.0
H3246 H 0.91465 0.79564 0.50132 0.0
H3247 H 0.92136 0.80569 0.47446 0.0
H3248 H 0.90522 0.76084 0.51614 0.0
H3249 H 0.86984 0.80094 0.50557 0.0
H3250 H 0.84636 0.81111 0.49043 0.0
H3251 H 0.7911 0.74814 0.49373 0.0
H3252 H 0.81431 0.73746 0.50871 0.0
H3253 H 0.87417 0.74534 0.59473 0.0
H3254 H 0.88702 0.76232 0.57056 0.0
H3255 H 0.82706 0.7132 0.54446 0.0
H3256 H 0.81414 0.69642 0.56847 0.0
H3257 H 0.83786 0.75229 0.536 0.0
H3258 H 0.87606 0.71226 0.54515 0.0
H3259 H 0.9008 0.70405 0.56076 0.0
H3260 H 0.95229 0.77019 0.56107 0.0
H3261 H 0.92778 0.77884 0.54566 0.0
C3262 C 0.86958 0.76302 0.46702 0.0
C3263 C 0.88948 0.7807 0.46403 0.0
C3264 C 0.86589 0.75714 0.48223 0.0
C3265 C 0.88182 0.76911 0.49484 0.0
C3266 C 0.90206 0.78627 0.4918 0.0
C3267 C 0.90589 0.79199 0.47649 0.0
C3268 C 0.87695 0.76385 0.51114 0.0
C3269 C 0.89067 0.75931 0.52058 0.0
C3270 C 0.858 0.7619 0.51699 0.0
C3271 C 0.84386 0.76836 0.5082 0.0
C3272 C 0.8527 0.78922 0.50301 0.0
C3273 C 0.83944 0.79507 0.49445 0.0
C3274 C 0.81726 0.78027 0.4911 0.0
C3275 C 0.80829 0.75959 0.49634 0.0
C3276 C 0.82148 0.75363 0.50488 0.0
C3277 C 0.8638 0.73818 0.58381 0.0
C3278 C 0.84313 0.71957 0.58349 0.0
C3279 C 0.87115 0.74787 0.57002 0.0
C3280 C 0.85808 0.73891 0.55565 0.0
C3281 C 0.8374 0.72046 0.55539 0.0
C3282 C 0.83 0.71091 0.56914 0.0
C3283 C 0.86568 0.74848 0.54076 0.0
C3284 C 0.8525 0.75399 0.53161 0.0
C3285 C 0.88527 0.7516 0.53531 0.0
C3286 C 0.90002 0.74625 0.5444 0.0
C3287 C 0.89262 0.72507 0.54864 0.0
C3288 C 0.90661 0.72034 0.55744 0.0
C3289 C 0.9281 0.73661 0.56196 0.0
C3290 C 0.93565 0.75762 0.55761 0.0
C3291 C 0.92172 0.76244 0.54883 0.0
H3292 H 0.9389 0.73294 0.56879 0.0
H3293 H 0.80702 0.78485 0.48449 0.0
loop_
_geom_bond_atom_site_label_1
_geom_bond_atom_site_label_2
_geom_bond_distance
_geom_bond_site_symmetry_2
_ccdc_geom_bond_type
H0 C7 0.929 . S
H1 C10 0.930 . S
H2 C12 0.929 . S
H3 C4 0.969 . S
C4 H3 0.969 . S
C4 O5 1.550 . S
C4 H6 0.973 . S
O5 C4 1.550 . S
O5 C11 1.412 . S
H6 C4 0.973 . S
C7 H0 0.929 . S
C7 C8 1.400 . S
C7 C9 1.364 . S
C8 C7 1.400 . S
C8 C12 1.377 . S
C9 C7 1.364 . S
C9 C10 1.374 . S
C10 H1 0.930 . S
C10 C9 1.374 . S
C10 C11 1.383 . S
C11 O5 1.412 . S
C11 C10 1.383 . S
C11 C12 1.394 . S
C12 H2 0.929 . S
C12 C8 1.377 . S
C12 C11 1.394 . S
H13 C20 0.929 . S
H14 C23 0.930 . S
H15 C25 0.929 . S
H16 C17 0.969 . S
C17 H16 0.969 . S
C17 O18 1.550 . S
C17 H19 0.973 . S
O18 C17 1.550 . S
O18 C24 1.412 . S
H19 C17 0.973 . S
C20 H13 0.929 . S
C20 C21 1.400 . S
C20 C22 1.364 . S
C21 C20 1.400 . S
C21 C25 1.377 . S
C22 C20 1.364 . S
C22 C23 1.374 . S
C23 H14 0.930 . S
C23 C22 1.374 . S
C23 C24 1.383 . S
C24 O18 1.412 . S
C24 C23 1.383 . S
C24 C25 1.394 . S
C25 H15 0.929 . S
C25 C21 1.377 . S
C25 C24 1.394 . S
H26 C33 0.929 . S
H27 C36 0.930 . S
H28 C38 0.929 . S
H29 C30 0.969 . S
C30 H29 0.969 . S
C30 O31 1.550 . S
C30 H32 0.973 . S
O31 C30 1.550 . S
O31 C37 1.412 . S
H32 C30 0.973 . S
C33 H26 0.929 . S
C33 C34 1.400 . S
C33 C35 1.364 . S
C34 C33 1.400 . S
C34 C38 1.377 . S
C35 C33 1.364 . S
C35 C36 1.374 . S
C36 H27 0.930 . S
C36 C35 1.374 . S
C36 C37 1.383 . S
C37 O31 1.412 . S
C37 C36 1.383 . S
C37 C38 1.394 . S
C38 H28 0.929 . S
C38 C34 1.377 . S
C38 C37 1.394 . S
H39 C46 0.929 . S
H40 C49 0.930 . S
H41 C51 0.929 . S
H42 C43 0.969 . S
C43 H42 0.969 . S
C43 O44 1.550 . S
C43 H45 0.973 . S
O44 C43 1.550 . S
O44 C50 1.412 . S
H45 C43 0.973 . S
C46 H39 0.929 . S
C46 C47 1.400 . S
C46 C48 1.364 . S
C47 C46 1.400 . S
C47 C51 1.377 . S
C48 C46 1.364 . S
C48 C49 1.374 . S
C49 H40 0.930 . S
C49 C48 1.374 . S
C49 C50 1.383 . S
C50 O44 1.412 . S
C50 C49 1.383 . S
C50 C51 1.394 . S
C51 H41 0.929 . S
C51 C47 1.377 . S
C51 C50 1.394 . S
H52 C59 0.929 . S
H53 C62 0.930 . S
H54 C64 0.929 . S
H55 C56 0.969 . S
C56 H55 0.969 . S
C56 O57 1.550 . S
C56 H58 0.973 . S
O57 C56 1.550 . S
O57 C63 1.412 . S
H58 C56 0.973 . S
C59 H52 0.929 . S
C59 C60 1.400 . S
C59 C61 1.364 . S
C60 C59 1.400 . S
C60 C64 1.377 . S
C61 C59 1.364 . S
C61 C62 1.374 . S
C62 H53 0.930 . S
C62 C61 1.374 . S
C62 C63 1.383 . S
C63 O57 1.412 . S
C63 C62 1.383 . S
C63 C64 1.394 . S
C64 H54 0.929 . S
C64 C60 1.377 . S
C64 C63 1.394 . S
H65 C72 0.929 . S
H66 C75 0.930 . S
H67 C77 0.929 . S
H68 C69 0.969 . S
C69 H68 0.969 . S
C69 O70 1.550 . S
C69 H71 0.973 . S
O70 C69 1.550 . S
O70 C76 1.412 . S
H71 C69 0.973 . S
C72 H65 0.929 . S
C72 C73 1.400 . S
C72 C74 1.364 . S
C73 C72 1.400 . S
C73 C77 1.377 . S
C74 C72 1.364 . S
C74 C75 1.374 . S
C75 H66 0.930 . S
C75 C74 1.374 . S
C75 C76 1.383 . S
C76 O70 1.412 . S
C76 C75 1.383 . S
C76 C77 1.394 . S
C77 H67 0.929 . S
C77 C73 1.377 . S
C77 C76 1.394 . S
H78 C85 0.929 . S
H79 C88 0.930 . S
H80 C90 0.929 . S
H81 C82 0.969 . S
C82 H81 0.969 . S
C82 O83 1.550 . S
C82 H84 0.973 . S
O83 C82 1.550 . S
O83 C89 1.412 . S
H84 C82 0.973 . S
C85 H78 0.929 . S
C85 C86 1.400 . S
C85 C87 1.364 . S
C86 C85 1.400 . S
C86 C90 1.377 . S
C87 C85 1.364 . S
C87 C88 1.374 . S
C88 H79 0.930 . S
C88 C87 1.374 . S
C88 C89 1.383 . S
C89 O83 1.412 . S
C89 C88 1.383 . S
C89 C90 1.394 . S
C90 H80 0.929 . S
C90 C86 1.377 . S
C90 C89 1.394 . S
H91 C98 0.929 . S
H92 C101 0.930 . S
H93 C103 0.929 . S
H94 C95 0.969 . S
C95 H94 0.969 . S
C95 O96 1.550 . S
C95 H97 0.973 . S
O96 C95 1.550 . S
O96 C102 1.412 . S
H97 C95 0.973 . S
C98 H91 0.929 . S
C98 C99 1.400 . S
C98 C100 1.364 . S
C99 C98 1.400 . S
C99 C103 1.377 . S
C100 C98 1.364 . S
C100 C101 1.374 . S
C101 H92 0.930 . S
C101 C100 1.374 . S
C101 C102 1.383 . S
C102 O96 1.412 . S
C102 C101 1.383 . S
C102 C103 1.394 . S
C103 H93 0.929 . S
C103 C99 1.377 . S
C103 C102 1.394 . S
H104 C111 0.929 . S
H105 C114 0.930 . S
H106 C116 0.929 . S
H107 C108 0.969 . S
C108 H107 0.969 . S
C108 O109 1.550 . S
C108 H110 0.973 . S
O109 C108 1.550 . S
O109 C115 1.412 . S
H110 C108 0.973 . S
C111 H104 0.929 . S
C111 C112 1.400 . S
C111 C113 1.364 . S
C112 C111 1.400 . S
C112 C116 1.377 . S
C113 C111 1.364 . S
C113 C114 1.374 . S
C114 H105 0.930 . S
C114 C113 1.374 . S
C114 C115 1.383 . S
C115 O109 1.412 . S
C115 C114 1.383 . S
C115 C116 1.394 . S
C116 H106 0.929 . S
C116 C112 1.377 . S
C116 C115 1.394 . S
H117 C124 0.929 . S
H118 C127 0.930 . S
H119 C129 0.929 . S
H120 C121 0.969 . S
C121 H120 0.969 . S
C121 O122 1.550 . S
C121 H123 0.973 . S
O122 C121 1.550 . S
O122 C128 1.412 . S
H123 C121 0.973 . S
C124 H117 0.929 . S
C124 C125 1.400 . S
C124 C126 1.364 . S
C125 C124 1.400 . S
C125 C129 1.377 . S
C126 C124 1.364 . S
C126 C127 1.374 . S
C127 H118 0.930 . S
C127 C126 1.374 . S
C127 C128 1.383 . S
C128 O122 1.412 . S
C128 C127 1.383 . S
C128 C129 1.394 . S
C129 H119 0.929 . S
C129 C125 1.377 . S
C129 C128 1.394 . S
H130 C137 0.929 . S
H131 C140 0.930 . S
H132 C142 0.929 . S
H133 C134 0.969 . S
C134 H133 0.969 . S
C134 O135 1.550 . S
C134 H136 0.973 . S
O135 C134 1.550 . S
O135 C141 1.412 . S
H136 C134 0.973 . S
C137 H130 0.929 . S
C137 C138 1.400 . S
C137 C139 1.364 . S
C138 C137 1.400 . S
C138 C142 1.377 . S
C139 C137 1.364 . S
C139 C140 1.374 . S
C140 H131 0.930 . S
C140 C139 1.374 . S
C140 C141 1.383 . S
C141 O135 1.412 . S
C141 C140 1.383 . S
C141 C142 1.394 . S
C142 H132 0.929 . S
C142 C138 1.377 . S
C142 C141 1.394 . S
H143 C150 0.929 . S
H144 C153 0.930 . S
H145 C155 0.929 . S
H146 C147 0.969 . S
C147 H146 0.969 . S
C147 O148 1.550 . S
C147 H149 0.973 . S
O148 C147 1.550 . S
O148 C154 1.412 . S
H149 C147 0.973 . S
C150 H143 0.929 . S
C150 C151 1.400 . S
C150 C152 1.364 . S
C151 C150 1.400 . S
C151 C155 1.377 . S
C152 C150 1.364 . S
C152 C153 1.374 . S
C153 H144 0.930 . S
C153 C152 1.374 . S
C153 C154 1.383 . S
C154 O148 1.412 . S
C154 C153 1.383 . S
C154 C155 1.394 . S
C155 H145 0.929 . S
C155 C151 1.377 . S
C155 C154 1.394 . S
H156 C163 0.929 . S
H157 C166 0.930 . S
H158 C168 0.929 . S
H159 C160 0.969 . S
C160 H159 0.969 . S
C160 O161 1.550 . S
C160 H162 0.973 . S
O161 C160 1.550 . S
O161 C167 1.412 . S
H162 C160 0.973 . S
C163 H156 0.929 . S
C163 C164 1.400 . S
C163 C165 1.364 . S
C164 C163 1.400 . S
C164 C168 1.377 . S
C165 C163 1.364 . S
C165 C166 1.374 . S
C166 H157 0.930 . S
C166 C165 1.374 . S
C166 C167 1.383 . S
C167 O161 1.412 . S
C167 C166 1.383 . S
C167 C168 1.394 . S
C168 H158 0.929 . S
C168 C164 1.377 . S
C168 C167 1.394 . S
H169 C176 0.929 . S
H170 C179 0.930 . S
H171 C181 0.929 . S
H172 C173 0.969 . S
C173 H172 0.969 . S
C173 O174 1.550 . S
C173 H175 0.973 . S
O174 C173 1.550 . S
O174 C180 1.412 . S
H175 C173 0.973 . S
C176 H169 0.929 . S
C176 C177 1.400 . S
C176 C178 1.364 . S
C177 C176 1.400 . S
C177 C181 1.377 . S
C178 C176 1.364 . S
C178 C179 1.374 . S
C179 H170 0.930 . S
C179 C178 1.374 . S
C179 C180 1.383 . S
C180 O174 1.412 . S
C180 C179 1.383 . S
C180 C181 1.394 . S
C181 H171 0.929 . S
C181 C177 1.377 . S
C181 C180 1.394 . S
H182 C189 0.929 . S
H183 C192 0.930 . S
H184 C194 0.929 . S
H185 C186 0.969 . S
C186 H185 0.969 . S
C186 O187 1.550 . S
C186 H188 0.973 . S
O187 C186 1.550 . S
O187 C193 1.412 . S
H188 C186 0.973 . S
C189 H182 0.929 . S
C189 C190 1.400 . S
C189 C191 1.364 . S
C190 C189 1.400 . S
C190 C194 1.377 . S
C191 C189 1.364 . S
C191 C192 1.374 . S
C192 H183 0.930 . S
C192 C191 1.374 . S
C192 C193 1.383 . S
C193 O187 1.412 . S
C193 C192 1.383 . S
C193 C194 1.394 . S
C194 H184 0.929 . S
C194 C190 1.377 . S
C194 C193 1.394 . S
H195 C202 0.929 . S
H196 C205 0.930 . S
H197 C207 0.929 . S
H198 C199 0.969 . S
C199 H198 0.969 . S
C199 O200 1.550 . S
C199 H201 0.973 . S
O200 C199 1.550 . S
O200 C206 1.412 . S
H201 C199 0.973 . S
C202 H195 0.929 . S
C202 C203 1.400 . S
C202 C204 1.364 . S
C203 C202 1.400 . S
C203 C207 1.377 . S
C204 C202 1.364 . S
C204 C205 1.374 . S
C205 H196 0.930 . S
C205 C204 1.374 . S
C205 C206 1.383 . S
C206 O200 1.412 . S
C206 C205 1.383 . S
C206 C207 1.394 . S
C207 H197 0.929 . S
C207 C203 1.377 . S
C207 C206 1.394 . S
H208 C215 0.929 . S
H209 C218 0.930 . S
H210 C220 0.929 . S
H211 C212 0.969 . S
C212 H211 0.969 . S
C212 O213 1.550 . S
C212 H214 0.973 . S
O213 C212 1.550 . S
O213 C219 1.412 . S
H214 C212 0.973 . S
C215 H208 0.929 . S
C215 C216 1.400 . S
C215 C217 1.364 . S
C216 C215 1.400 . S
C216 C220 1.377 . S
C217 C215 1.364 . S
C217 C218 1.374 . S
C218 H209 0.930 . S
C218 C217 1.374 . S
C218 C219 1.383 . S
C219 O213 1.412 . S
C219 C218 1.383 . S
C219 C220 1.394 . S
C220 H210 0.929 . S
C220 C216 1.377 . S
C220 C219 1.394 . S
H221 C228 0.929 . S
H222 C231 0.930 . S
H223 C233 0.929 . S
H224 C225 0.969 . S
C225 H224 0.969 . S
C225 O226 1.550 . S
C225 H227 0.973 . S
O226 C225 1.550 . S
O226 C232 1.412 . S
H227 C225 0.973 . S
C228 H221 0.929 . S
C228 C229 1.400 . S
C228 C230 1.364 . S
C229 C228 1.400 . S
C229 C233 1.377 . S
C230 C228 1.364 . S
C230 C231 1.374 . S
C231 H222 0.930 . S
C231 C230 1.374 . S
C231 C232 1.383 . S
C232 O226 1.412 . S
C232 C231 1.383 . S
C232 C233 1.394 . S
C233 H223 0.929 . S
C233 C229 1.377 . S
C233 C232 1.394 . S
C234 Eu235 2.849 . S
C234 C236 1.487 1_545 S
C234 O254 1.215 1_545 S
C234 O255 1.317 . S
Eu235 C234 2.849 . S
Eu235 O254 2.473 1_545 S
Eu235 O255 2.480 . S
Eu235 O256 2.430 . S
Eu235 O257 2.670 . S
Eu235 O258 2.394 1_545 S
Eu235 O263 2.355 1_545 S
Eu235 O265 2.374 . S
C236 C234 1.487 1_565 S
C236 C237 1.377 1_565 S
C236 C241 1.377 . S
C237 C236 1.377 1_545 S
C237 C238 1.395 1_545 S
C237 H266 0.931 . S
C238 C237 1.395 1_565 S
C238 C239 1.383 . S
C238 H267 0.931 1_565 S
C239 C238 1.383 . S
C239 C240 1.394 . S
C240 C239 1.394 . S
C240 C241 1.378 . S
C240 H268 0.931 . S
C241 C236 1.377 . S
C241 C240 1.378 . S
C241 H269 0.931 . S
C242 O256 1.259 . S
C242 O257 1.270 . S
C243 O258 1.251 . S
C243 O259 1.251 . S
C244 Eu245 2.835 1_545 S
C244 C246 1.500 . S
C244 O260 1.257 . S
C244 O261 1.260 1_545 S
Eu245 C244 2.835 1_565 S
Eu245 O257 2.355 1_566 S
Eu245 O259 2.374 1_556 S
Eu245 O260 2.473 1_565 S
Eu245 O261 2.480 . S
Eu245 O262 2.430 . S
Eu245 O263 2.670 1_556 S
Eu245 O264 2.394 1_565 S
C246 C244 1.500 . S
C246 C247 1.377 . S
C246 C251 1.377 . S
C247 C246 1.377 . S
C247 C248 1.395 . S
C247 H270 0.931 1_545 S
C248 C247 1.395 . S
C248 C249 1.383 . S
C248 H271 0.931 . S
C249 C248 1.383 . S
C249 C250 1.394 . S
C250 C249 1.394 . S
C250 C251 1.378 . S
C250 H272 0.931 . S
C251 C246 1.377 . S
C251 C250 1.378 . S
C251 H273 0.931 . S
C252 O262 1.259 1_554 S
C252 O263 1.270 . S
C253 O264 1.251 1_554 S
C253 O265 1.251 . S
O254 C234 1.215 1_565 S
O254 Eu235 2.473 1_565 S
O255 C234 1.317 . S
O255 Eu235 2.480 . S
O256 Eu235 2.430 . S
O256 C242 1.259 . S
O257 Eu235 2.670 . S
O257 C242 1.270 . S
O257 Eu245 2.355 1_544 S
O258 Eu235 2.394 1_565 S
O258 C243 1.251 . S
O259 C243 1.251 . S
O259 Eu245 2.374 1_554 S
O260 C244 1.257 . S
O260 Eu245 2.473 1_545 S
O261 C244 1.260 1_565 S
O261 Eu245 2.480 . S
O262 Eu245 2.430 . S
O262 C252 1.259 1_556 S
O263 Eu235 2.355 1_565 S
O263 Eu245 2.670 1_554 S
O263 C252 1.270 . S
O264 Eu245 2.394 1_545 S
O264 C253 1.251 1_556 S
O265 Eu235 2.374 . S
O265 C253 1.251 . S
H266 C237 0.931 . S
H267 C238 0.931 1_545 S
H268 C240 0.931 . S
H269 C241 0.931 . S
H270 C247 0.931 1_565 S
H271 C248 0.931 . S
H272 C250 0.931 . S
H273 C251 0.931 . S
C274 Eu275 2.835 1_455 S
C274 C276 1.500 . S
C274 O294 1.257 . S
C274 O295 1.260 1_455 S
Eu275 C274 2.835 1_655 S
Eu275 O294 2.473 1_655 S
Eu275 O295 2.480 . S
Eu275 O296 2.430 . S
Eu275 O297 2.670 . S
Eu275 O298 2.394 1_655 S
Eu275 O303 2.355 1_655 S
Eu275 O305 2.374 . S
C276 C274 1.500 . S
C276 C277 1.377 . S
C276 C281 1.377 . S
C277 C276 1.377 . S
C277 C278 1.395 . S
C277 H306 0.931 1_455 S
C278 C277 1.395 . S
C278 C279 1.383 . S
C278 H307 0.931 . S
C279 C278 1.383 . S
C279 C280 1.394 . S
C280 C279 1.394 . S
C280 C281 1.378 . S
C280 H308 0.931 . S
C281 C276 1.377 . S
C281 C280 1.378 . S
C281 H309 0.931 . S
C282 O296 1.259 . S
C282 O297 1.270 . S
C283 O298 1.251 . S
C283 O299 1.251 . S
C284 Eu285 2.835 1_655 S
C284 C286 1.500 . S
C284 O300 1.257 . S
C284 O301 1.260 1_655 S
Eu285 C284 2.835 1_455 S
Eu285 O297 2.355 1_456 S
Eu285 O299 2.374 1_556 S
Eu285 O300 2.473 1_455 S
Eu285 O301 2.480 . S
Eu285 O302 2.430 . S
Eu285 O303 2.670 1_556 S
Eu285 O304 2.394 1_455 S
C286 C284 1.500 . S
C286 C287 1.364 1_655 S
C286 C291 1.377 . S
C287 C286 1.364 1_455 S
C287 C288 1.381 1_455 S
C287 H310 0.962 . S
C288 C287 1.381 1_655 S
C288 C289 1.383 . S
C288 H311 0.931 1_655 S
C289 C288 1.383 . S
C289 C290 1.394 . S
C290 C289 1.394 . S
C290 C291 1.378 . S
C290 H312 0.931 . S
C291 C286 1.377 . S
C291 C290 1.378 . S
C291 H313 0.931 . S
C292 O302 1.259 1_554 S
C292 O303 1.270 . S
C293 O304 1.287 . S
C293 O305 1.191 1_556 S
O294 C274 1.257 . S
O294 Eu275 2.473 1_455 S
O295 C274 1.260 1_655 S
O295 Eu275 2.480 . S
O296 Eu275 2.430 . S
O296 C282 1.259 . S
O297 Eu275 2.670 . S
O297 C282 1.270 . S
O297 Eu285 2.355 1_654 S
O298 Eu275 2.394 1_455 S
O298 C283 1.251 . S
O299 C283 1.251 . S
O299 Eu285 2.374 1_554 S
O300 C284 1.257 . S
O300 Eu285 2.473 1_655 S
O301 C284 1.260 1_455 S
O301 Eu285 2.480 . S
O302 Eu285 2.430 . S
O302 C292 1.259 1_556 S
O303 Eu275 2.355 1_455 S
O303 Eu285 2.670 1_554 S
O303 C292 1.270 . S
O304 Eu285 2.394 1_655 S
O304 C293 1.287 . S
O305 Eu275 2.374 . S
O305 C293 1.191 1_554 S
H306 C277 0.931 1_655 S
H307 C278 0.931 . S
H308 C280 0.931 . S
H309 C281 0.931 . S
H310 C287 0.962 . S
H311 C288 0.931 1_455 S
H312 C290 0.931 . S
H313 C291 0.931 . S
C314 Eu315 2.835 . S
C314 C316 1.500 . S
C314 O334 1.257 . S
C314 O335 1.260 . S
Eu315 C314 2.835 . S
Eu315 O334 2.473 . S
Eu315 O335 2.480 . S
Eu315 O336 2.430 1_556 S
Eu315 O337 2.670 1_556 S
Eu315 O338 2.394 . S
Eu315 O343 2.355 1_556 S
Eu315 O345 2.374 1_556 S
C316 C314 1.500 . S
C316 C317 1.377 . S
C316 C321 1.377 . S
C317 C316 1.377 . S
C317 C318 1.395 . S
C317 H346 0.931 . S
C318 C317 1.395 . S
C318 C319 1.383 . S
C318 H347 0.931 . S
C319 C318 1.383 . S
C319 C320 1.394 . S
C320 C319 1.394 . S
C320 C321 1.378 . S
C320 H348 0.931 . S
C321 C316 1.377 . S
C321 C320 1.378 . S
C321 H349 0.931 . S
C322 O336 1.259 . S
C322 O337 1.270 . S
C323 O338 1.251 1_554 S
C323 O339 1.251 . S
C324 Eu325 2.835 . S
C324 C326 1.500 . S
C324 O340 1.257 . S
C324 O341 1.260 . S
Eu325 C324 2.835 . S
Eu325 O337 2.355 . S
Eu325 O339 2.374 . S
Eu325 O340 2.473 . S
Eu325 O341 2.480 . S
Eu325 O342 2.430 . S
Eu325 O343 2.670 . S
Eu325 O344 2.394 . S
C326 C324 1.500 . S
C326 C327 1.377 . S
C326 C331 1.377 . S
C327 C326 1.377 . S
C327 C328 1.395 . S
C327 H350 0.931 . S
C328 C327 1.395 . S
C328 C329 1.383 . S
C328 H351 0.931 . S
C329 C328 1.383 . S
C329 C330 1.394 . S
C330 C329 1.394 . S
C330 C331 1.378 . S
C330 H352 0.931 . S
C331 C326 1.377 . S
C331 C330 1.378 . S
C331 H353 0.931 . S
C332 O342 1.259 . S
C332 O343 1.270 . S
C333 O344 1.251 . S
C333 O345 1.251 . S
O334 C314 1.257 . S
O334 Eu315 2.473 . S
O335 C314 1.260 . S
O335 Eu315 2.480 . S
O336 Eu315 2.430 1_554 S
O336 C322 1.259 . S
O337 Eu315 2.670 1_554 S
O337 C322 1.270 . S
O337 Eu325 2.355 . S
O338 Eu315 2.394 . S
O338 C323 1.251 1_556 S
O339 C323 1.251 . S
O339 Eu325 2.374 . S
O340 C324 1.257 . S
O340 Eu325 2.473 . S
O341 C324 1.260 . S
O341 Eu325 2.480 . S
O342 Eu325 2.430 . S
O342 C332 1.259 . S
O343 Eu315 2.355 1_554 S
O343 Eu325 2.670 . S
O343 C332 1.270 . S
O344 Eu325 2.394 . S
O344 C333 1.251 . S
O345 Eu315 2.374 1_554 S
O345 C333 1.251 . S
H346 C317 0.931 . S
H347 C318 0.931 . S
H348 C320 0.931 . S
H349 C321 0.931 . S
H350 C327 0.931 . S
H351 C328 0.931 . S
H352 C330 0.931 . S
H353 C331 0.931 . S
C354 Eu355 2.835 . S
C354 C356 1.500 . S
C354 O374 1.257 . S
C354 O375 1.260 . S
Eu355 C354 2.835 . S
Eu355 O374 2.473 . S
Eu355 O375 2.480 . S
Eu355 O376 2.430 . S
Eu355 O377 2.670 . S
Eu355 O378 2.394 . S
Eu355 O383 2.355 . S
Eu355 O385 2.374 . S
C356 C354 1.500 . S
C356 C357 1.377 . S
C356 C361 1.377 . S
C357 C356 1.377 . S
C357 C358 1.395 . S
C357 H386 0.931 . S
C358 C357 1.395 . S
C358 C359 1.383 . S
C358 H387 0.931 . S
C359 C358 1.383 . S
C359 C360 1.394 . S
C360 C359 1.394 . S
C360 C361 1.378 . S
C360 H388 0.931 . S
C361 C356 1.377 . S
C361 C360 1.378 . S
C361 H389 0.931 . S
C362 O376 1.259 . S
C362 O377 1.270 . S
C363 O378 1.251 . S
C363 O379 1.251 . S
C364 Eu365 2.835 . S
C364 C366 1.500 . S
C364 O380 1.257 . S
C364 O381 1.260 . S
Eu365 C364 2.835 . S
Eu365 O377 2.355 . S
Eu365 O379 2.374 . S
Eu365 O380 2.473 . S
Eu365 O381 2.480 . S
Eu365 O382 2.430 . S
Eu365 O383 2.670 . S
Eu365 O384 2.394 . S
C366 C364 1.500 . S
C366 C367 1.377 . S
C366 C371 1.377 . S
C367 C366 1.377 . S
C367 C368 1.395 . S
C367 H390 0.931 . S
C368 C367 1.395 . S
C368 C369 1.383 . S
C368 H391 0.931 . S
C369 C368 1.383 . S
C369 C370 1.394 . S
C370 C369 1.394 . S
C370 C371 1.378 . S
C370 H392 0.931 . S
C371 C366 1.377 . S
C371 C370 1.378 . S
C371 H393 0.931 . S
C372 O382 1.259 . S
C372 O383 1.270 . S
C373 O384 1.251 . S
C373 O385 1.251 . S
O374 C354 1.257 . S
O374 Eu355 2.473 . S
O375 C354 1.260 . S
O375 Eu355 2.480 . S
O376 Eu355 2.430 . S
O376 C362 1.259 . S
O377 Eu355 2.670 . S
O377 C362 1.270 . S
O377 Eu365 2.355 . S
O378 Eu355 2.394 . S
O378 C363 1.251 . S
O379 C363 1.251 . S
O379 Eu365 2.374 . S
O380 C364 1.257 . S
O380 Eu365 2.473 . S
O381 C364 1.260 . S
O381 Eu365 2.480 . S
O382 Eu365 2.430 . S
O382 C372 1.259 . S
O383 Eu355 2.355 . S
O383 Eu365 2.670 . S
O383 C372 1.270 . S
O384 Eu365 2.394 . S
O384 C373 1.251 . S
O385 Eu355 2.374 . S
O385 C373 1.251 . S
H386 C357 0.931 . S
H387 C358 0.931 . S
H388 C360 0.931 . S
H389 C361 0.931 . S
H390 C367 0.931 . S
H391 C368 0.931 . S
H392 C370 0.931 . S
H393 C371 0.931 . S
C394 Eu395 2.835 . S
C394 C396 1.500 . S
C394 O414 1.257 . S
C394 O415 1.260 . S
Eu395 C394 2.835 . S
Eu395 O414 2.473 . S
Eu395 O415 2.480 . S
Eu395 O416 2.430 . S
Eu395 O417 2.670 . S
Eu395 O418 2.394 . S
Eu395 O423 2.355 . S
Eu395 O425 2.374 . S
C396 C394 1.500 . S
C396 C397 1.377 . S
C396 C401 1.377 . S
C397 C396 1.377 . S
C397 C398 1.395 . S
C397 H426 0.931 . S
C398 C397 1.395 . S
C398 C399 1.383 . S
C398 H427 0.931 . S
C399 C398 1.383 . S
C399 C400 1.394 . S
C400 C399 1.394 . S
C400 C401 1.378 . S
C400 H428 0.931 . S
C401 C396 1.377 . S
C401 C400 1.378 . S
C401 H429 0.931 . S
C402 O416 1.259 . S
C402 O417 1.270 . S
C403 O418 1.251 . S
C403 O419 1.251 . S
C404 Eu405 2.835 . S
C404 C406 1.500 . S
C404 O420 1.257 . S
C404 O421 1.260 . S
Eu405 C404 2.835 . S
Eu405 O417 2.355 . S
Eu405 O419 2.374 . S
Eu405 O420 2.473 . S
Eu405 O421 2.480 . S
Eu405 O422 2.430 . S
Eu405 O423 2.670 . S
Eu405 O424 2.394 . S
C406 C404 1.500 . S
C406 C407 1.377 . S
C406 C411 1.377 . S
C407 C406 1.377 . S
C407 C408 1.395 . S
C407 H430 0.931 . S
C408 C407 1.395 . S
C408 C409 1.383 . S
C408 H431 0.931 . S
C409 C408 1.383 . S
C409 C410 1.394 . S
C410 C409 1.394 . S
C410 C411 1.378 . S
C410 H432 0.931 . S
C411 C406 1.377 . S
C411 C410 1.378 . S
C411 H433 0.931 . S
C412 O422 1.259 . S
C412 O423 1.270 . S
C413 O424 1.251 . S
C413 O425 1.251 . S
O414 C394 1.257 . S
O414 Eu395 2.473 . S
O415 C394 1.260 . S
O415 Eu395 2.480 . S
O416 Eu395 2.430 . S
O416 C402 1.259 . S
O417 Eu395 2.670 . S
O417 C402 1.270 . S
O417 Eu405 2.355 . S
O418 Eu395 2.394 . S
O418 C403 1.251 . S
O419 C403 1.251 . S
O419 Eu405 2.374 . S
O420 C404 1.257 . S
O420 Eu405 2.473 . S
O421 C404 1.260 . S
O421 Eu405 2.480 . S
O422 Eu405 2.430 . S
O422 C412 1.259 . S
O423 Eu395 2.355 . S
O423 Eu405 2.670 . S
O423 C412 1.270 . S
O424 Eu405 2.394 . S
O424 C413 1.251 . S
O425 Eu395 2.374 . S
O425 C413 1.251 . S
H426 C397 0.931 . S
H427 C398 0.931 . S
H428 C400 0.931 . S
H429 C401 0.931 . S
H430 C407 0.931 . S
H431 C408 0.931 . S
H432 C410 0.931 . S
H433 C411 0.931 . S
C434 Eu435 2.835 . S
C434 C436 1.500 . S
C434 O454 1.257 . S
C434 O455 1.260 . S
Eu435 C434 2.835 . S
Eu435 O454 2.473 . S
Eu435 O455 2.480 . S
Eu435 O456 2.430 . S
Eu435 O457 2.670 . S
Eu435 O458 2.394 . S
Eu435 O463 2.355 . S
Eu435 O465 2.374 . S
C436 C434 1.500 . S
C436 C437 1.377 . S
C436 C441 1.377 . S
C437 C436 1.377 . S
C437 C438 1.395 . S
C437 H466 0.931 . S
C438 C437 1.395 . S
C438 C439 1.383 . S
C438 H467 0.931 . S
C439 C438 1.383 . S
C439 C440 1.394 . S
C440 C439 1.394 . S
C440 C441 1.378 . S
C440 H468 0.931 . S
C441 C436 1.377 . S
C441 C440 1.378 . S
C441 H469 0.931 . S
C442 O456 1.259 . S
C442 O457 1.270 . S
C443 O458 1.251 . S
C443 O459 1.251 . S
C444 Eu445 2.835 . S
C444 C446 1.500 . S
C444 O460 1.257 . S
C444 O461 1.260 . S
Eu445 C444 2.835 . S
Eu445 O457 2.355 . S
Eu445 O459 2.374 . S
Eu445 O460 2.473 . S
Eu445 O461 2.480 . S
Eu445 O462 2.430 . S
Eu445 O463 2.670 . S
Eu445 O464 2.394 . S
C446 C444 1.500 . S
C446 C447 1.377 . S
C446 C451 1.377 . S
C447 C446 1.377 . S
C447 C448 1.395 . S
C447 H470 0.931 . S
C448 C447 1.395 . S
C448 C449 1.383 . S
C448 H471 0.931 . S
C449 C448 1.383 . S
C449 C450 1.394 . S
C450 C449 1.394 . S
C450 C451 1.378 . S
C450 H472 0.931 . S
C451 C446 1.377 . S
C451 C450 1.378 . S
C451 H473 0.931 . S
C452 O462 1.259 . S
C452 O463 1.270 . S
C453 O464 1.251 . S
C453 O465 1.251 . S
O454 C434 1.257 . S
O454 Eu435 2.473 . S
O455 C434 1.260 . S
O455 Eu435 2.480 . S
O456 Eu435 2.430 . S
O456 C442 1.259 . S
O457 Eu435 2.670 . S
O457 C442 1.270 . S
O457 Eu445 2.355 . S
O458 Eu435 2.394 . S
O458 C443 1.251 . S
O459 C443 1.251 . S
O459 Eu445 2.374 . S
O460 C444 1.257 . S
O460 Eu445 2.473 . S
O461 C444 1.260 . S
O461 Eu445 2.480 . S
O462 Eu445 2.430 . S
O462 C452 1.259 . S
O463 Eu435 2.355 . S
O463 Eu445 2.670 . S
O463 C452 1.270 . S
O464 Eu445 2.394 . S
O464 C453 1.251 . S
O465 Eu435 2.374 . S
O465 C453 1.251 . S
H466 C437 0.931 . S
H467 C438 0.931 . S
H468 C440 0.931 . S
H469 C441 0.931 . S
H470 C447 0.931 . S
H471 C448 0.931 . S
H472 C450 0.931 . S
H473 C451 0.931 . S
C474 Eu475 2.835 . S
C474 C476 1.500 . S
C474 O494 1.257 . S
C474 O495 1.260 . S
Eu475 C474 2.835 . S
Eu475 O494 2.473 . S
Eu475 O495 2.480 . S
Eu475 O496 2.430 . S
Eu475 O497 2.670 . S
Eu475 O498 2.394 . S
Eu475 O503 2.355 . S
Eu475 O505 2.374 . S
C476 C474 1.500 . S
C476 C477 1.377 . S
C476 C481 1.377 . S
C477 C476 1.377 . S
C477 C478 1.395 . S
C477 H506 0.931 . S
C478 C477 1.395 . S
C478 C479 1.383 . S
C478 H507 0.931 . S
C479 C478 1.383 . S
C479 C480 1.394 . S
C480 C479 1.394 . S
C480 C481 1.378 . S
C480 H508 0.931 . S
C481 C476 1.377 . S
C481 C480 1.378 . S
C481 H509 0.931 . S
C482 O496 1.259 . S
C482 O497 1.270 . S
C483 O498 1.251 . S
C483 O499 1.251 . S
C484 Eu485 2.835 . S
C484 C486 1.500 . S
C484 O500 1.257 . S
C484 O501 1.260 . S
Eu485 C484 2.835 . S
Eu485 O497 2.355 . S
Eu485 O499 2.374 . S
Eu485 O500 2.473 . S
Eu485 O501 2.480 . S
Eu485 O502 2.430 . S
Eu485 O503 2.670 . S
Eu485 O504 2.394 . S
C486 C484 1.500 . S
C486 C487 1.377 . S
C486 C491 1.377 . S
C487 C486 1.377 . S
C487 C488 1.395 . S
C487 H510 0.931 . S
C488 C487 1.395 . S
C488 C489 1.383 . S
C488 H511 0.931 . S
C489 C488 1.383 . S
C489 C490 1.394 . S
C490 C489 1.394 . S
C490 C491 1.378 . S
C490 H512 0.931 . S
C491 C486 1.377 . S
C491 C490 1.378 . S
C491 H513 0.931 . S
C492 O502 1.259 . S
C492 O503 1.270 . S
C493 O504 1.251 . S
C493 O505 1.251 . S
O494 C474 1.257 . S
O494 Eu475 2.473 . S
O495 C474 1.260 . S
O495 Eu475 2.480 . S
O496 Eu475 2.430 . S
O496 C482 1.259 . S
O497 Eu475 2.670 . S
O497 C482 1.270 . S
O497 Eu485 2.355 . S
O498 Eu475 2.394 . S
O498 C483 1.251 . S
O499 C483 1.251 . S
O499 Eu485 2.374 . S
O500 C484 1.257 . S
O500 Eu485 2.473 . S
O501 C484 1.260 . S
O501 Eu485 2.480 . S
O502 Eu485 2.430 . S
O502 C492 1.259 . S
O503 Eu475 2.355 . S
O503 Eu485 2.670 . S
O503 C492 1.270 . S
O504 Eu485 2.394 . S
O504 C493 1.251 . S
O505 Eu475 2.374 . S
O505 C493 1.251 . S
H506 C477 0.931 . S
H507 C478 0.931 . S
H508 C480 0.931 . S
H509 C481 0.931 . S
H510 C487 0.931 . S
H511 C488 0.931 . S
H512 C490 0.931 . S
H513 C491 0.931 . S
C514 Eu515 2.835 . S
C514 C516 1.500 . S
C514 O534 1.257 . S
C514 O535 1.260 . S
Eu515 C514 2.835 . S
Eu515 O534 2.473 . S
Eu515 O535 2.480 . S
Eu515 O536 2.430 . S
Eu515 O537 2.670 . S
Eu515 O538 2.394 . S
Eu515 O543 2.355 . S
Eu515 O545 2.374 . S
C516 C514 1.500 . S
C516 C517 1.377 . S
C516 C521 1.377 . S
C517 C516 1.377 . S
C517 C518 1.395 . S
C517 H546 0.931 . S
C518 C517 1.395 . S
C518 C519 1.383 . S
C518 H547 0.931 . S
C519 C518 1.383 . S
C519 C520 1.394 . S
C520 C519 1.394 . S
C520 C521 1.378 . S
C520 H548 0.931 . S
C521 C516 1.377 . S
C521 C520 1.378 . S
C521 H549 0.931 . S
C522 O536 1.259 . S
C522 O537 1.270 . S
C523 O538 1.251 . S
C523 O539 1.251 . S
C524 Eu525 2.835 . S
C524 C526 1.500 . S
C524 O540 1.257 . S
C524 O541 1.260 . S
Eu525 C524 2.835 . S
Eu525 O537 2.355 . S
Eu525 O539 2.374 . S
Eu525 O540 2.473 . S
Eu525 O541 2.480 . S
Eu525 O542 2.430 . S
Eu525 O543 2.670 . S
Eu525 O544 2.394 . S
C526 C524 1.500 . S
C526 C527 1.377 . S
C526 C531 1.377 . S
C527 C526 1.377 . S
C527 C528 1.395 . S
C527 H550 0.931 . S
C528 C527 1.395 . S
C528 C529 1.383 . S
C528 H551 0.931 . S
C529 C528 1.383 . S
C529 C530 1.394 . S
C530 C529 1.394 . S
C530 C531 1.378 . S
C530 H552 0.931 . S
C531 C526 1.377 . S
C531 C530 1.378 . S
C531 H553 0.931 . S
C532 O542 1.259 . S
C532 O543 1.270 . S
C533 O544 1.251 . S
C533 O545 1.251 . S
O534 C514 1.257 . S
O534 Eu515 2.473 . S
O535 C514 1.260 . S
O535 Eu515 2.480 . S
O536 Eu515 2.430 . S
O536 C522 1.259 . S
O537 Eu515 2.670 . S
O537 C522 1.270 . S
O537 Eu525 2.355 . S
O538 Eu515 2.394 . S
O538 C523 1.251 . S
O539 C523 1.251 . S
O539 Eu525 2.374 . S
O540 C524 1.257 . S
O540 Eu525 2.473 . S
O541 C524 1.260 . S
O541 Eu525 2.480 . S
O542 Eu525 2.430 . S
O542 C532 1.259 . S
O543 Eu515 2.355 . S
O543 Eu525 2.670 . S
O543 C532 1.270 . S
O544 Eu525 2.394 . S
O544 C533 1.251 . S
O545 Eu515 2.374 . S
O545 C533 1.251 . S
H546 C517 0.931 . S
H547 C518 0.931 . S
H548 C520 0.931 . S
H549 C521 0.931 . S
H550 C527 0.931 . S
H551 C528 0.931 . S
H552 C530 0.931 . S
H553 C531 0.931 . S
C554 Eu555 2.835 . S
C554 C556 1.500 . S
C554 O574 1.257 . S
C554 O575 1.260 . S
Eu555 C554 2.835 . S
Eu555 O574 2.473 . S
Eu555 O575 2.480 . S
Eu555 O576 2.430 . S
Eu555 O577 2.670 . S
Eu555 O578 2.394 . S
Eu555 O583 2.355 . S
Eu555 O585 2.374 . S
C556 C554 1.500 . S
C556 C557 1.377 . S
C556 C561 1.377 . S
C557 C556 1.377 . S
C557 C558 1.395 . S
C557 H586 0.931 . S
C558 C557 1.395 . S
C558 C559 1.383 . S
C558 H587 0.931 . S
C559 C558 1.383 . S
C559 C560 1.394 . S
C560 C559 1.394 . S
C560 C561 1.378 . S
C560 H588 0.931 . S
C561 C556 1.377 . S
C561 C560 1.378 . S
C561 H589 0.931 . S
C562 O576 1.259 . S
C562 O577 1.270 . S
C563 O578 1.251 . S
C563 O579 1.251 . S
C564 Eu565 2.835 . S
C564 C566 1.500 . S
C564 O580 1.257 . S
C564 O581 1.260 . S
Eu565 C564 2.835 . S
Eu565 O577 2.355 . S
Eu565 O579 2.374 . S
Eu565 O580 2.473 . S
Eu565 O581 2.480 . S
Eu565 O582 2.430 . S
Eu565 O583 2.670 . S
Eu565 O584 2.394 . S
C566 C564 1.500 . S
C566 C567 1.377 . S
C566 C571 1.377 . S
C567 C566 1.377 . S
C567 C568 1.395 . S
C567 H590 0.931 . S
C568 C567 1.395 . S
C568 C569 1.383 . S
C568 H591 0.931 . S
C569 C568 1.383 . S
C569 C570 1.394 . S
C570 C569 1.394 . S
C570 C571 1.378 . S
C570 H592 0.931 . S
C571 C566 1.377 . S
C571 C570 1.378 . S
C571 H593 0.931 . S
C572 O582 1.259 . S
C572 O583 1.270 . S
C573 O584 1.251 . S
C573 O585 1.251 . S
O574 C554 1.257 . S
O574 Eu555 2.473 . S
O575 C554 1.260 . S
O575 Eu555 2.480 . S
O576 Eu555 2.430 . S
O576 C562 1.259 . S
O577 Eu555 2.670 . S
O577 C562 1.270 . S
O577 Eu565 2.355 . S
O578 Eu555 2.394 . S
O578 C563 1.251 . S
O579 C563 1.251 . S
O579 Eu565 2.374 . S
O580 C564 1.257 . S
O580 Eu565 2.473 . S
O581 C564 1.260 . S
O581 Eu565 2.480 . S
O582 Eu565 2.430 . S
O582 C572 1.259 . S
O583 Eu555 2.355 . S
O583 Eu565 2.670 . S
O583 C572 1.270 . S
O584 Eu565 2.394 . S
O584 C573 1.251 . S
O585 Eu555 2.374 . S
O585 C573 1.251 . S
H586 C557 0.931 . S
H587 C558 0.931 . S
H588 C560 0.931 . S
H589 C561 0.931 . S
H590 C567 0.931 . S
H591 C568 0.931 . S
H592 C570 0.931 . S
H593 C571 0.931 . S
H594 C612 0.951 . S
H595 C614 0.951 . S
H596 C616 0.950 . S
H597 C617 0.950 . S
H598 C619 0.950 . S
H599 C622 0.950 . S
H600 C623 0.950 . S
H601 C625 0.950 . S
H602 C626 0.950 . S
H603 C627 0.951 . S
H604 C629 0.951 . S
H605 C631 0.950 . S
H606 C632 0.950 . S
H607 C634 0.950 . S
H608 C637 0.950 1_554 S
H609 C638 0.950 . S
H610 C640 0.950 . S
H611 C641 0.950 . S
C612 H594 0.951 . S
C612 C613 1.366 . S
C612 C614 1.388 . S
C613 C612 1.366 . S
C613 C617 1.385 . S
C614 H595 0.951 . S
C614 C612 1.388 . S
C614 C615 1.366 . S
C615 C614 1.366 . S
C615 C616 1.414 . S
C615 C618 1.499 . S
C616 H596 0.950 . S
C616 C615 1.414 . S
C616 C617 1.374 . S
C617 H597 0.950 . S
C617 C613 1.385 . S
C617 C616 1.374 . S
C618 C615 1.499 . S
C618 C619 1.373 . S
C618 C620 1.389 . S
C619 H598 0.950 . S
C619 C618 1.373 . S
C619 C635 1.377 . S
C620 C618 1.389 . S
C620 C621 1.524 . S
C620 C634 1.377 . S
C621 C620 1.524 . S
C621 C622 1.397 . S
C621 C626 1.363 . S
C622 H599 0.950 . S
C622 C621 1.397 . S
C622 C623 1.334 . S
C623 H600 0.950 . S
C623 C622 1.334 . S
C623 C624 1.287 . S
C624 C623 1.287 . S
C624 C625 1.524 . S
C624 H643 0.913 . S
C625 H601 0.950 . S
C625 C624 1.524 . S
C625 C626 1.415 . S
C626 H602 0.950 . S
C626 C621 1.363 . S
C626 C625 1.415 . S
C627 H603 0.951 . S
C627 C628 1.366 . S
C627 C629 1.388 . S
C628 C627 1.366 . S
C628 C632 1.385 . S
C629 H604 0.951 . S
C629 C627 1.388 . S
C629 C630 1.366 . S
C630 C629 1.366 . S
C630 C631 1.414 . S
C630 C633 1.499 . S
C631 H605 0.950 . S
C631 C630 1.414 . S
C631 C632 1.374 . S
C632 H606 0.950 . S
C632 C628 1.385 . S
C632 C631 1.374 . S
C633 C630 1.499 . S
C633 C634 1.373 . S
C633 C635 1.389 . S
C634 H607 0.950 . S
C634 C620 1.377 . S
C634 C633 1.373 . S
C635 C619 1.377 . S
C635 C633 1.389 . S
C635 C636 1.524 . S
C636 C635 1.524 . S
C636 C637 1.397 1_554 S
C636 C641 1.363 . S
C637 H608 0.950 1_556 S
C637 C636 1.397 1_556 S
C637 C638 1.334 . S
C638 H609 0.950 . S
C638 C637 1.334 . S
C638 C639 1.287 . S
C639 C638 1.287 . S
C639 C640 1.524 . S
C639 H642 0.999 . S
C640 H610 0.950 . S
C640 C639 1.524 . S
C640 C641 1.415 1_556 S
C641 H611 0.950 . S
C641 C636 1.363 . S
C641 C640 1.415 1_554 S
H642 C639 0.999 . S
H643 C624 0.913 . S
H644 C662 0.951 . S
H645 C664 0.951 . S
H646 C666 0.950 . S
H647 C667 0.950 . S
H648 C669 0.950 . S
H649 C672 0.950 . S
H650 C673 0.950 . S
H651 C675 0.950 . S
H652 C676 0.950 . S
H653 C677 0.951 . S
H654 C679 0.951 . S
H655 C681 0.950 . S
H656 C682 0.950 . S
H657 C684 0.950 . S
H658 C687 0.950 . S
H659 C688 0.950 . S
H660 C690 0.950 . S
H661 C691 0.950 . S
C662 H644 0.951 . S
C662 C663 1.366 . S
C662 C664 1.388 . S
C663 C662 1.366 . S
C663 C667 1.385 . S
C664 H645 0.951 . S
C664 C662 1.388 . S
C664 C665 1.366 . S
C665 C664 1.366 . S
C665 C666 1.414 . S
C665 C668 1.499 . S
C666 H646 0.950 . S
C666 C665 1.414 . S
C666 C667 1.374 . S
C667 H647 0.950 . S
C667 C663 1.385 . S
C667 C666 1.374 . S
C668 C665 1.499 . S
C668 C669 1.373 . S
C668 C670 1.389 . S
C669 H648 0.950 . S
C669 C668 1.373 . S
C669 C685 1.377 . S
C670 C668 1.389 . S
C670 C671 1.524 . S
C670 C684 1.377 . S
C671 C670 1.524 . S
C671 C672 1.397 . S
C671 C676 1.363 . S
C672 H649 0.950 . S
C672 C671 1.397 . S
C672 C673 1.334 . S
C673 H650 0.950 . S
C673 C672 1.334 . S
C673 C674 1.287 . S
C674 C673 1.287 . S
C674 C675 1.524 . S
C674 H693 0.913 . S
C675 H651 0.950 . S
C675 C674 1.524 . S
C675 C676 1.415 . S
C676 H652 0.950 . S
C676 C671 1.363 . S
C676 C675 1.415 . S
C677 H653 0.951 . S
C677 C678 1.366 . S
C677 C679 1.388 . S
C678 C677 1.366 . S
C678 C682 1.385 . S
C679 H654 0.951 . S
C679 C677 1.388 . S
C679 C680 1.366 . S
C680 C679 1.366 . S
C680 C681 1.414 . S
C680 C683 1.499 . S
C681 H655 0.950 . S
C681 C680 1.414 . S
C681 C682 1.374 . S
C682 H656 0.950 . S
C682 C678 1.385 . S
C682 C681 1.374 . S
C683 C680 1.499 . S
C683 C684 1.373 . S
C683 C685 1.389 . S
C684 H657 0.950 . S
C684 C670 1.377 . S
C684 C683 1.373 . S
C685 C669 1.377 . S
C685 C683 1.389 . S
C685 C686 1.524 . S
C686 C685 1.524 . S
C686 C687 1.397 . S
C686 C691 1.363 . S
C687 H658 0.950 . S
C687 C686 1.397 . S
C687 C688 1.334 . S
C688 H659 0.950 . S
C688 C687 1.334 . S
C688 C689 1.287 . S
C689 C688 1.287 . S
C689 C690 1.524 . S
C689 H692 0.999 . S
C690 H660 0.950 . S
C690 C689 1.524 . S
C690 C691 1.415 . S
C691 H661 0.950 . S
C691 C686 1.363 . S
C691 C690 1.415 . S
H692 C689 0.999 . S
H693 C674 0.913 . S
H694 C712 0.951 . S
H695 C714 0.951 . S
H696 C716 0.950 . S
H697 C717 0.950 . S
H698 C719 0.950 . S
H699 C722 0.950 . S
H700 C723 0.950 . S
H701 C725 0.950 . S
H702 C726 0.950 . S
H703 C727 0.951 . S
H704 C729 0.951 . S
H705 C731 0.950 . S
H706 C732 0.950 . S
H707 C734 0.950 . S
H708 C737 0.950 1_554 S
H709 C738 0.950 . S
H710 C740 0.950 . S
H711 C741 0.950 . S
C712 H694 0.951 . S
C712 C713 1.366 . S
C712 C714 1.388 . S
C713 C712 1.366 . S
C713 C717 1.385 . S
C714 H695 0.951 . S
C714 C712 1.388 . S
C714 C715 1.366 . S
C715 C714 1.366 . S
C715 C716 1.414 . S
C715 C718 1.499 . S
C716 H696 0.950 . S
C716 C715 1.414 . S
C716 C717 1.374 . S
C717 H697 0.950 . S
C717 C713 1.385 . S
C717 C716 1.374 . S
C718 C715 1.499 . S
C718 C719 1.373 . S
C718 C720 1.389 . S
C719 H698 0.950 . S
C719 C718 1.373 . S
C719 C735 1.377 . S
C720 C718 1.389 . S
C720 C721 1.524 . S
C720 C734 1.377 . S
C721 C720 1.524 . S
C721 C722 1.397 . S
C721 C726 1.363 . S
C722 H699 0.950 . S
C722 C721 1.397 . S
C722 C723 1.334 . S
C723 H700 0.950 . S
C723 C722 1.334 . S
C723 C724 1.287 . S
C724 C723 1.287 . S
C724 C725 1.524 . S
C724 H743 0.913 . S
C725 H701 0.950 . S
C725 C724 1.524 . S
C725 C726 1.415 . S
C726 H702 0.950 . S
C726 C721 1.363 . S
C726 C725 1.415 . S
C727 H703 0.951 . S
C727 C728 1.366 . S
C727 C729 1.388 . S
C728 C727 1.366 . S
C728 C732 1.385 . S
C729 H704 0.951 . S
C729 C727 1.388 . S
C729 C730 1.366 . S
C730 C729 1.366 . S
C730 C731 1.414 . S
C730 C733 1.499 . S
C731 H705 0.950 . S
C731 C730 1.414 . S
C731 C732 1.374 . S
C732 H706 0.950 . S
C732 C728 1.385 . S
C732 C731 1.374 . S
C733 C730 1.499 . S
C733 C734 1.373 . S
C733 C735 1.389 . S
C734 H707 0.950 . S
C734 C720 1.377 . S
C734 C733 1.373 . S
C735 C719 1.377 . S
C735 C733 1.389 . S
C735 C736 1.526 . S
C736 C735 1.526 . S
C736 C737 1.396 1_554 S
C736 C741 1.362 1_554 S
C737 H708 0.950 1_556 S
C737 C736 1.396 1_556 S
C737 C738 1.334 . S
C738 H709 0.950 . S
C738 C737 1.334 . S
C738 C739 1.287 . S
C739 C738 1.287 . S
C739 C740 1.524 . S
C739 H742 0.999 . S
C740 H710 0.950 . S
C740 C739 1.524 . S
C740 C741 1.415 . S
C741 H711 0.950 . S
C741 C736 1.362 1_556 S
C741 C740 1.415 . S
H742 C739 0.999 . S
H743 C724 0.913 . S
H744 C762 0.951 . S
H745 C764 0.951 . S
H746 C766 0.950 . S
H747 C767 0.950 . S
H748 C769 0.950 1_554 S
H749 C772 0.950 . S
H750 C773 0.950 . S
H751 C775 0.950 . S
H752 C776 0.950 . S
H753 C777 0.951 . S
H754 C779 0.951 . S
H755 C781 0.950 . S
H756 C782 0.950 . S
H757 C784 0.950 . S
H758 C787 0.950 . S
H759 C788 0.950 . S
H760 C790 0.950 . S
H761 C791 0.950 . S
C762 H744 0.951 . S
C762 C763 1.366 . S
C762 C764 1.388 . S
C763 C762 1.366 . S
C763 C767 1.385 . S
C764 H745 0.951 . S
C764 C762 1.388 . S
C764 C765 1.366 . S
C765 C764 1.366 . S
C765 C766 1.414 . S
C765 C768 1.499 . S
C766 H746 0.950 . S
C766 C765 1.414 . S
C766 C767 1.374 . S
C767 H747 0.950 . S
C767 C763 1.385 . S
C767 C766 1.374 . S
C768 C765 1.499 . S
C768 C769 1.373 . S
C768 C770 1.389 . S
C769 H748 0.950 1_556 S
C769 C768 1.373 . S
C769 C785 1.385 . S
C770 C768 1.389 . S
C770 C771 1.524 . S
C770 C784 1.377 . S
C771 C770 1.524 . S
C771 C772 1.397 . S
C771 C776 1.363 . S
C772 H749 0.950 . S
C772 C771 1.397 . S
C772 C773 1.334 . S
C773 H750 0.950 . S
C773 C772 1.334 . S
C773 C774 1.287 . S
C774 C773 1.287 . S
C774 C775 1.524 . S
C774 H793 0.913 . S
C775 H751 0.950 . S
C775 C774 1.524 . S
C775 C776 1.415 . S
C776 H752 0.950 . S
C776 C771 1.363 . S
C776 C775 1.415 . S
C777 H753 0.951 . S
C777 C778 1.366 . S
C777 C779 1.388 . S
C778 C777 1.366 . S
C778 C782 1.385 1_554 S
C779 H754 0.951 . S
C779 C777 1.388 . S
C779 C780 1.366 1_554 S
C780 C779 1.366 1_556 S
C780 C781 1.414 . S
C780 C783 1.499 . S
C781 H755 0.950 . S
C781 C780 1.414 . S
C781 C782 1.374 . S
C782 H756 0.950 . S
C782 C778 1.385 1_556 S
C782 C781 1.374 . S
C783 C780 1.499 . S
C783 C784 1.373 . S
C783 C785 1.433 . S
C784 H757 0.950 . S
C784 C770 1.377 . S
C784 C783 1.373 . S
C785 C769 1.385 . S
C785 C783 1.433 . S
C785 C786 1.474 1_556 S
C786 C785 1.474 1_554 S
C786 C787 1.397 . S
C786 C791 1.363 . S
C787 H758 0.950 . S
C787 C786 1.397 . S
C787 C788 1.334 . S
C788 H759 0.950 . S
C788 C787 1.334 . S
C788 C789 1.287 . S
C789 C788 1.287 . S
C789 C790 1.524 . S
C789 H792 0.999 . S
C790 H760 0.950 . S
C790 C789 1.524 . S
C790 C791 1.415 . S
C791 H761 0.950 . S
C791 C786 1.363 . S
C791 C790 1.415 . S
H792 C789 0.999 . S
H793 C774 0.913 . S
H794 C812 0.951 . S
H795 C814 0.951 . S
H796 C816 0.950 . S
H797 C817 0.950 . S
H798 C819 0.950 . S
H799 C822 0.950 . S
H800 C823 0.950 . S
H801 C825 0.950 . S
H802 C826 0.950 . S
H803 C827 0.951 . S
H804 C829 0.951 . S
H805 C831 0.950 . S
H806 C832 0.950 . S
H807 C834 0.950 . S
H808 C837 0.950 . S
H809 C838 0.950 . S
H810 C840 0.950 . S
H811 C841 0.950 . S
C812 H794 0.951 . S
C812 C813 1.366 . S
C812 C814 1.388 . S
C813 C812 1.366 . S
C813 C817 1.385 . S
C814 H795 0.951 . S
C814 C812 1.388 . S
C814 C815 1.366 . S
C815 C814 1.366 . S
C815 C816 1.414 . S
C815 C818 1.499 . S
C816 H796 0.950 . S
C816 C815 1.414 . S
C816 C817 1.374 . S
C817 H797 0.950 . S
C817 C813 1.385 . S
C817 C816 1.374 . S
C818 C815 1.499 . S
C818 C819 1.373 . S
C818 C820 1.389 . S
C819 H798 0.950 . S
C819 C818 1.373 . S
C819 C835 1.377 . S
C820 C818 1.389 . S
C820 C821 1.524 . S
C820 C834 1.377 . S
C821 C820 1.524 . S
C821 C822 1.397 . S
C821 C826 1.363 1_556 S
C822 H799 0.950 . S
C822 C821 1.397 . S
C822 C823 1.334 . S
C823 H800 0.950 . S
C823 C822 1.334 . S
C823 C824 1.287 . S
C824 C823 1.287 . S
C824 C825 1.524 1_556 S
C824 H843 0.913 . S
C825 H801 0.950 . S
C825 C824 1.524 1_554 S
C825 C826 1.415 . S
C826 H802 0.950 . S
C826 C821 1.363 1_554 S
C826 C825 1.415 . S
C827 H803 0.951 . S
C827 C828 1.366 . S
C827 C829 1.388 . S
C828 C827 1.366 . S
C828 C832 1.385 1_556 S
C829 H804 0.951 . S
C829 C827 1.388 . S
C829 C830 1.366 . S
C830 C829 1.366 . S
C830 C831 1.414 1_556 S
C830 C833 1.499 . S
C831 H805 0.950 . S
C831 C830 1.414 1_554 S
C831 C832 1.374 . S
C832 H806 0.950 . S
C832 C828 1.385 1_554 S
C832 C831 1.374 . S
C833 C830 1.499 . S
C833 C834 1.373 . S
C833 C835 1.389 . S
C834 H807 0.950 . S
C834 C820 1.377 . S
C834 C833 1.373 . S
C835 C819 1.377 . S
C835 C833 1.389 . S
C835 C836 1.524 . S
C836 C835 1.524 . S
C836 C837 1.397 . S
C836 C841 1.363 . S
C837 H808 0.950 . S
C837 C836 1.397 . S
C837 C838 1.334 . S
C838 H809 0.950 . S
C838 C837 1.334 . S
C838 C839 1.287 . S
C839 C838 1.287 . S
C839 C840 1.524 . S
C839 H842 0.999 . S
C840 H810 0.950 . S
C840 C839 1.524 . S
C840 C841 1.415 . S
C841 H811 0.950 . S
C841 C836 1.363 . S
C841 C840 1.415 . S
H842 C839 0.999 . S
H843 C824 0.913 . S
H844 C862 0.951 . S
H845 C864 0.951 . S
H846 C866 0.950 . S
H847 C867 0.950 . S
H848 C869 0.950 . S
H849 C872 0.950 . S
H850 C873 0.950 . S
H851 C875 0.950 . S
H852 C876 0.950 . S
H853 C877 0.951 . S
H854 C879 0.963 . S
H855 C881 0.950 1_556 S
H856 C882 0.950 . S
H857 C884 0.950 . S
H858 C887 0.950 . S
H859 C888 0.950 . S
H860 C890 0.950 . S
H861 C891 0.950 . S
C862 H844 0.951 . S
C862 C863 1.366 . S
C862 C864 1.388 . S
C863 C862 1.366 . S
C863 C867 1.385 . S
C864 H845 0.951 . S
C864 C862 1.388 . S
C864 C865 1.366 . S
C865 C864 1.366 . S
C865 C866 1.414 . S
C865 C868 1.499 . S
C866 H846 0.950 . S
C866 C865 1.414 . S
C866 C867 1.374 . S
C867 H847 0.950 . S
C867 C863 1.385 . S
C867 C866 1.374 . S
C868 C865 1.499 . S
C868 C869 1.373 . S
C868 C870 1.389 1_556 S
C869 H848 0.950 . S
C869 C868 1.373 . S
C869 C885 1.377 . S
C870 C868 1.389 1_554 S
C870 C871 1.524 . S
C870 C884 1.377 . S
C871 C870 1.524 . S
C871 C872 1.397 . S
C871 C876 1.363 . S
C872 H849 0.950 . S
C872 C871 1.397 . S
C872 C873 1.334 . S
C873 H850 0.950 . S
C873 C872 1.334 . S
C873 C874 1.287 . S
C874 C873 1.287 . S
C874 C875 1.524 . S
C874 H893 0.913 . S
C875 H851 0.950 . S
C875 C874 1.524 . S
C875 C876 1.415 . S
C876 H852 0.950 . S
C876 C871 1.363 . S
C876 C875 1.415 . S
C877 H853 0.951 . S
C877 C878 1.366 . S
C877 C879 1.388 . S
C878 C877 1.366 . S
C878 C882 1.385 . S
C879 H854 0.963 . S
C879 C877 1.388 . S
C879 C880 1.366 1_554 S
C880 C879 1.366 1_556 S
C880 C881 1.413 1_556 S
C880 C883 1.499 . S
C881 H855 0.950 1_554 S
C881 C880 1.413 1_554 S
C881 C882 1.374 . S
C882 H856 0.950 . S
C882 C878 1.385 . S
C882 C881 1.374 . S
C883 C880 1.499 . S
C883 C884 1.373 1_556 S
C883 C885 1.389 . S
C884 H857 0.950 . S
C884 C870 1.377 . S
C884 C883 1.373 1_554 S
C885 C869 1.377 . S
C885 C883 1.389 . S
C885 C886 1.524 . S
C886 C885 1.524 . S
C886 C887 1.397 . S
C886 C891 1.363 . S
C887 H858 0.950 . S
C887 C886 1.397 . S
C887 C888 1.334 . S
C888 H859 0.950 . S
C888 C887 1.334 . S
C888 C889 1.287 . S
C889 C888 1.287 . S
C889 C890 1.524 . S
C889 H892 0.999 . S
C890 H860 0.950 . S
C890 C889 1.524 . S
C890 C891 1.415 . S
C891 H861 0.950 . S
C891 C886 1.363 . S
C891 C890 1.415 . S
H892 C889 0.999 . S
H893 C874 0.913 . S
H894 C912 0.951 . S
H895 C914 0.951 . S
H896 C916 0.950 . S
H897 C917 0.950 . S
H898 C919 0.950 . S
H899 C922 0.950 . S
H900 C923 0.950 . S
H901 C925 0.950 . S
H902 C926 0.950 1_556 S
H903 C927 0.935 1_554 S
H904 C929 0.951 . S
H905 C931 0.950 . S
H906 C932 0.950 . S
H907 C934 0.918 1_554 S
H908 C937 0.950 . S
H909 C938 0.950 . S
H910 C940 0.950 . S
H911 C941 0.950 . S
C912 H894 0.951 . S
C912 C913 1.366 . S
C912 C914 1.388 . S
C913 C912 1.366 . S
C913 C917 1.385 . S
C914 H895 0.951 . S
C914 C912 1.388 . S
C914 C915 1.366 . S
C915 C914 1.366 . S
C915 C916 1.414 . S
C915 C918 1.499 . S
C916 H896 0.950 . S
C916 C915 1.414 . S
C916 C917 1.374 . S
C917 H897 0.950 . S
C917 C913 1.385 . S
C917 C916 1.374 . S
C918 C915 1.499 . S
C918 C919 1.373 . S
C918 C920 1.389 . S
C919 H898 0.950 . S
C919 C918 1.373 . S
C919 C935 1.377 . S
C920 C918 1.389 . S
C920 C921 1.524 1_556 S
C920 C934 1.377 . S
C921 C920 1.524 1_554 S
C921 C922 1.397 . S
C921 C926 1.363 . S
C922 H899 0.950 . S
C922 C921 1.397 . S
C922 C923 1.334 . S
C923 H900 0.950 . S
C923 C922 1.334 . S
C923 C924 1.287 . S
C924 C923 1.287 . S
C924 C925 1.524 . S
C924 H943 0.913 . S
C925 H901 0.950 . S
C925 C924 1.524 . S
C925 C926 1.415 . S
C926 H902 0.950 1_554 S
C926 C921 1.363 . S
C926 C925 1.415 . S
C927 H903 0.935 1_556 S
C927 C928 1.369 . S
C927 C929 1.403 . S
C928 C927 1.369 . S
C928 C932 1.385 . S
C929 H904 0.951 . S
C929 C927 1.403 . S
C929 C930 1.366 . S
C930 C929 1.366 . S
C930 C931 1.414 . S
C930 C933 1.499 . S
C931 H905 0.950 . S
C931 C930 1.414 . S
C931 C932 1.374 . S
C932 H906 0.950 . S
C932 C928 1.385 . S
C932 C931 1.374 . S
C933 C930 1.499 . S
C933 C934 1.373 . S
C933 C935 1.389 . S
C934 H907 0.918 1_556 S
C934 C920 1.377 . S
C934 C933 1.373 . S
C935 C919 1.377 . S
C935 C933 1.389 . S
C935 C936 1.524 . S
C936 C935 1.524 . S
C936 C937 1.397 . S
C936 C941 1.363 . S
C937 H908 0.950 . S
C937 C936 1.397 . S
C937 C938 1.334 . S
C938 H909 0.950 . S
C938 C937 1.334 . S
C938 C939 1.287 . S
C939 C938 1.287 . S
C939 C940 1.524 . S
C939 H942 0.999 . S
C940 H910 0.950 . S
C940 C939 1.524 . S
C940 C941 1.415 . S
C941 H911 0.950 . S
C941 C936 1.363 . S
C941 C940 1.415 . S
H942 C939 0.999 . S
H943 C924 0.913 . S
H944 C962 0.951 . S
H945 C964 0.951 . S
H946 C966 0.950 . S
H947 C967 0.950 . S
H948 C969 0.950 . S
H949 C972 0.950 . S
H950 C973 0.950 . S
H951 C975 0.950 . S
H952 C976 0.950 . S
H953 C977 0.951 . S
H954 C979 0.951 . S
H955 C981 0.950 . S
H956 C982 0.950 . S
H957 C984 0.950 . S
H958 C987 0.950 . S
H959 C988 0.950 . S
H960 C990 0.950 . S
H961 C991 0.950 . S
C962 H944 0.951 . S
C962 C963 1.366 . S
C962 C964 1.388 . S
C963 C962 1.366 . S
C963 C967 1.385 . S
C964 H945 0.951 . S
C964 C962 1.388 . S
C964 C965 1.366 . S
C965 C964 1.366 . S
C965 C966 1.414 . S
C965 C968 1.499 . S
C966 H946 0.950 . S
C966 C965 1.414 . S
C966 C967 1.374 . S
C967 H947 0.950 . S
C967 C963 1.385 . S
C967 C966 1.374 . S
C968 C965 1.499 . S
C968 C969 1.373 . S
C968 C970 1.389 . S
C969 H948 0.950 . S
C969 C968 1.373 . S
C969 C985 1.377 . S
C970 C968 1.389 . S
C970 C971 1.524 . S
C970 C984 1.377 . S
C971 C970 1.524 . S
C971 C972 1.397 . S
C971 C976 1.363 . S
C972 H949 0.950 . S
C972 C971 1.397 . S
C972 C973 1.334 . S
C973 H950 0.950 . S
C973 C972 1.334 . S
C973 C974 1.287 . S
C974 C973 1.287 . S
C974 C975 1.524 . S
C974 H993 0.913 . S
C975 H951 0.950 . S
C975 C974 1.524 . S
C975 C976 1.415 . S
C976 H952 0.950 . S
C976 C971 1.363 . S
C976 C975 1.415 . S
C977 H953 0.951 . S
C977 C978 1.366 . S
C977 C979 1.388 . S
C978 C977 1.366 . S
C978 C982 1.385 . S
C979 H954 0.951 . S
C979 C977 1.388 . S
C979 C980 1.366 . S
C980 C979 1.366 . S
C980 C981 1.414 . S
C980 C983 1.499 . S
C981 H955 0.950 . S
C981 C980 1.414 . S
C981 C982 1.374 . S
C982 H956 0.950 . S
C982 C978 1.385 . S
C982 C981 1.374 . S
C983 C980 1.499 . S
C983 C984 1.373 . S
C983 C985 1.389 . S
C984 H957 0.950 . S
C984 C970 1.377 . S
C984 C983 1.373 . S
C985 C969 1.377 . S
C985 C983 1.389 . S
C985 C986 1.524 1_556 S
C986 C985 1.524 1_554 S
C986 C987 1.397 . S
C986 C991 1.363 . S
C987 H958 0.950 . S
C987 C986 1.397 . S
C987 C988 1.334 . S
C988 H959 0.950 . S
C988 C987 1.334 . S
C988 C989 1.287 . S
C989 C988 1.287 . S
C989 C990 1.524 . S
C989 H992 0.999 . S
C990 H960 0.950 . S
C990 C989 1.524 . S
C990 C991 1.415 . S
C991 H961 0.950 . S
C991 C986 1.363 . S
C991 C990 1.415 . S
H992 C989 0.999 . S
H993 C974 0.913 . S
H994 C1012 0.951 . S
H995 C1014 0.951 . S
H996 C1016 0.965 . S
H997 C1017 0.950 . S
H998 C1019 0.950 . S
H999 C1022 0.950 . S
H1000 C1023 0.950 . S
H1001 C1025 0.950 . S
H1002 C1026 0.950 . S
H1003 C1027 0.951 . S
H1004 C1029 0.951 . S
H1005 C1031 0.943 1_556 S
H1006 C1032 0.950 . S
H1007 C1034 0.950 . S
H1008 C1037 0.950 . S
H1009 C1038 0.950 . S
H1010 C1040 0.950 . S
H1011 C1041 0.950 . S
C1012 H994 0.951 . S
C1012 C1013 1.366 . S
C1012 C1014 1.388 . S
C1013 C1012 1.366 . S
C1013 C1017 1.385 . S
C1014 H995 0.951 . S
C1014 C1012 1.388 . S
C1014 C1015 1.366 . S
C1015 C1014 1.366 . S
C1015 C1016 1.414 . S
C1015 C1018 1.499 . S
C1016 H996 0.965 . S
C1016 C1015 1.414 . S
C1016 C1017 1.374 . S
C1017 H997 0.950 . S
C1017 C1013 1.385 . S
C1017 C1016 1.374 . S
C1018 C1015 1.499 . S
C1018 C1019 1.373 1_556 S
C1018 C1020 1.389 . S
C1019 H998 0.950 . S
C1019 C1018 1.373 1_554 S
C1019 C1035 1.377 . S
C1020 C1018 1.389 . S
C1020 C1021 1.524 . S
C1020 C1034 1.377 . S
C1021 C1020 1.524 . S
C1021 C1022 1.397 . S
C1021 C1026 1.363 . S
C1022 H999 0.950 . S
C1022 C1021 1.397 . S
C1022 C1023 1.334 . S
C1023 H1000 0.950 . S
C1023 C1022 1.334 . S
C1023 C1024 1.287 . S
C1024 C1023 1.287 . S
C1024 C1025 1.524 . S
C1024 H1043 0.913 . S
C1025 H1001 0.950 . S
C1025 C1024 1.524 . S
C1025 C1026 1.415 . S
C1026 H1002 0.950 . S
C1026 C1021 1.363 . S
C1026 C1025 1.415 . S
C1027 H1003 0.951 . S
C1027 C1028 1.366 . S
C1027 C1029 1.388 . S
C1028 C1027 1.366 . S
C1028 C1032 1.385 . S
C1029 H1004 0.951 . S
C1029 C1027 1.388 . S
C1029 C1030 1.366 . S
C1030 C1029 1.366 . S
C1030 C1031 1.414 . S
C1030 C1033 1.499 . S
C1031 H1005 0.943 1_554 S
C1031 C1030 1.414 . S
C1031 C1032 1.374 . S
C1032 H1006 0.950 . S
C1032 C1028 1.385 . S
C1032 C1031 1.374 . S
C1033 C1030 1.499 . S
C1033 C1034 1.373 1_554 S
C1033 C1035 1.389 . S
C1034 H1007 0.950 . S
C1034 C1020 1.377 . S
C1034 C1033 1.373 1_556 S
C1035 C1019 1.377 . S
C1035 C1033 1.389 . S
C1035 C1036 1.524 . S
C1036 C1035 1.524 . S
C1036 C1037 1.397 . S
C1036 C1041 1.363 . S
C1037 H1008 0.950 . S
C1037 C1036 1.397 . S
C1037 C1038 1.334 . S
C1038 H1009 0.950 . S
C1038 C1037 1.334 . S
C1038 C1039 1.287 . S
C1039 C1038 1.287 . S
C1039 C1040 1.524 . S
C1039 H1042 0.999 . S
C1040 H1010 0.950 . S
C1040 C1039 1.524 . S
C1040 C1041 1.415 . S
C1041 H1011 0.950 . S
C1041 C1036 1.363 . S
C1041 C1040 1.415 . S
H1042 C1039 0.999 . S
H1043 C1024 0.913 . S
H1044 C1062 0.951 . S
H1045 C1064 0.951 . S
H1046 C1066 0.950 . S
H1047 C1067 0.950 . S
H1048 C1069 0.950 . S
H1049 C1072 0.950 . S
H1050 C1073 0.950 . S
H1051 C1075 0.950 . S
H1052 C1076 0.950 . S
H1053 C1077 0.951 . S
H1054 C1079 0.951 . S
H1055 C1081 0.950 . S
H1056 C1082 0.950 . S
H1057 C1084 0.950 . S
H1058 C1087 0.950 . S
H1059 C1088 0.950 . S
H1060 C1090 0.950 . S
H1061 C1091 0.950 . S
C1062 H1044 0.951 . S
C1062 C1063 1.366 . S
C1062 C1064 1.388 . S
C1063 C1062 1.366 . S
C1063 C1067 1.385 . S
C1064 H1045 0.951 . S
C1064 C1062 1.388 . S
C1064 C1065 1.366 . S
C1065 C1064 1.366 . S
C1065 C1066 1.414 . S
C1065 C1068 1.499 . S
C1066 H1046 0.950 . S
C1066 C1065 1.414 . S
C1066 C1067 1.374 . S
C1067 H1047 0.950 . S
C1067 C1063 1.385 . S
C1067 C1066 1.374 . S
C1068 C1065 1.499 . S
C1068 C1069 1.373 . S
C1068 C1070 1.389 . S
C1069 H1048 0.950 . S
C1069 C1068 1.373 . S
C1069 C1085 1.377 . S
C1070 C1068 1.389 . S
C1070 C1071 1.524 . S
C1070 C1084 1.377 . S
C1071 C1070 1.524 . S
C1071 C1072 1.397 . S
C1071 C1076 1.363 1_554 S
C1072 H1049 0.950 . S
C1072 C1071 1.397 . S
C1072 C1073 1.334 1_554 S
C1073 H1050 0.950 . S
C1073 C1072 1.334 1_556 S
C1073 C1074 1.287 . S
C1074 C1073 1.287 . S
C1074 C1075 1.524 . S
C1074 H1093 0.913 . S
C1075 H1051 0.950 . S
C1075 C1074 1.524 . S
C1075 C1076 1.415 . S
C1076 H1052 0.950 . S
C1076 C1071 1.363 1_556 S
C1076 C1075 1.415 . S
C1077 H1053 0.951 . S
C1077 C1078 1.366 . S
C1077 C1079 1.388 . S
C1078 C1077 1.366 . S
C1078 C1082 1.385 . S
C1079 H1054 0.951 . S
C1079 C1077 1.388 . S
C1079 C1080 1.366 . S
C1080 C1079 1.366 . S
C1080 C1081 1.414 . S
C1080 C1083 1.499 . S
C1081 H1055 0.950 . S
C1081 C1080 1.414 . S
C1081 C1082 1.374 . S
C1082 H1056 0.950 . S
C1082 C1078 1.385 . S
C1082 C1081 1.374 . S
C1083 C1080 1.499 . S
C1083 C1084 1.373 . S
C1083 C1085 1.389 . S
C1084 H1057 0.950 . S
C1084 C1070 1.377 . S
C1084 C1083 1.373 . S
C1085 C1069 1.377 . S
C1085 C1083 1.389 . S
C1085 C1086 1.524 . S
C1086 C1085 1.524 . S
C1086 C1087 1.397 . S
C1086 C1091 1.363 . S
C1087 H1058 0.950 . S
C1087 C1086 1.397 . S
C1087 C1088 1.334 . S
C1088 H1059 0.950 . S
C1088 C1087 1.334 . S
C1088 C1089 1.287 . S
C1089 C1088 1.287 . S
C1089 C1090 1.524 . S
C1089 H1092 0.999 . S
C1090 H1060 0.950 . S
C1090 C1089 1.524 . S
C1090 C1091 1.415 . S
C1091 H1061 0.950 . S
C1091 C1086 1.363 . S
C1091 C1090 1.415 . S
H1092 C1089 0.999 . S
H1093 C1074 0.913 . S
H1094 C1112 0.951 . S
H1095 C1114 0.951 . S
H1096 C1116 0.950 . S
H1097 C1117 0.950 . S
H1098 C1119 0.950 . S
H1099 C1122 0.950 . S
H1100 C1123 0.950 . S
H1101 C1125 0.950 . S
H1102 C1126 0.950 . S
H1103 C1127 0.951 . S
H1104 C1129 0.951 . S
H1105 C1131 0.950 . S
H1106 C1132 0.950 . S
H1107 C1134 0.950 . S
H1108 C1137 0.950 . S
H1109 C1138 0.950 . S
H1110 C1140 0.950 . S
H1111 C1141 0.950 . S
C1112 H1094 0.951 . S
C1112 C1113 1.366 . S
C1112 C1114 1.388 . S
C1113 C1112 1.366 . S
C1113 C1117 1.385 . S
C1114 H1095 0.951 . S
C1114 C1112 1.388 . S
C1114 C1115 1.366 . S
C1115 C1114 1.366 . S
C1115 C1116 1.414 . S
C1115 C1118 1.499 . S
C1116 H1096 0.950 . S
C1116 C1115 1.414 . S
C1116 C1117 1.374 . S
C1117 H1097 0.950 . S
C1117 C1113 1.385 . S
C1117 C1116 1.374 . S
C1118 C1115 1.499 . S
C1118 C1119 1.373 . S
C1118 C1120 1.389 . S
C1119 H1098 0.950 . S
C1119 C1118 1.373 . S
C1119 C1135 1.377 . S
C1120 C1118 1.389 . S
C1120 C1121 1.524 . S
C1120 C1134 1.377 . S
C1121 C1120 1.524 . S
C1121 C1122 1.397 . S
C1121 C1126 1.363 . S
C1122 H1099 0.950 . S
C1122 C1121 1.397 . S
C1122 C1123 1.334 . S
C1123 H1100 0.950 . S
C1123 C1122 1.334 . S
C1123 C1124 1.287 . S
C1124 C1123 1.287 . S
C1124 C1125 1.524 . S
C1124 H1143 0.913 . S
C1125 H1101 0.950 . S
C1125 C1124 1.524 . S
C1125 C1126 1.415 . S
C1126 H1102 0.950 . S
C1126 C1121 1.363 . S
C1126 C1125 1.415 . S
C1127 H1103 0.951 . S
C1127 C1128 1.366 . S
C1127 C1129 1.388 . S
C1128 C1127 1.366 . S
C1128 C1132 1.385 . S
C1129 H1104 0.951 . S
C1129 C1127 1.388 . S
C1129 C1130 1.366 . S
C1130 C1129 1.366 . S
C1130 C1131 1.414 . S
C1130 C1133 1.499 . S
C1131 H1105 0.950 . S
C1131 C1130 1.414 . S
C1131 C1132 1.374 . S
C1132 H1106 0.950 . S
C1132 C1128 1.385 . S
C1132 C1131 1.374 . S
C1133 C1130 1.499 . S
C1133 C1134 1.373 . S
C1133 C1135 1.389 . S
C1134 H1107 0.950 . S
C1134 C1120 1.377 . S
C1134 C1133 1.373 . S
C1135 C1119 1.377 . S
C1135 C1133 1.389 . S
C1135 C1136 1.524 . S
C1136 C1135 1.524 . S
C1136 C1137 1.397 . S
C1136 C1141 1.363 . S
C1137 H1108 0.950 . S
C1137 C1136 1.397 . S
C1137 C1138 1.334 . S
C1138 H1109 0.950 . S
C1138 C1137 1.334 . S
C1138 C1139 1.287 . S
C1139 C1138 1.287 . S
C1139 C1140 1.524 1_554 S
C1139 H1142 0.999 1_554 S
C1140 H1110 0.950 . S
C1140 C1139 1.524 1_556 S
C1140 C1141 1.415 1_556 S
C1141 H1111 0.950 . S
C1141 C1136 1.363 . S
C1141 C1140 1.415 1_554 S
H1142 C1139 0.999 1_556 S
H1143 C1124 0.913 . S
H1144 C1162 0.951 . S
H1145 C1164 0.951 . S
H1146 C1166 0.950 . S
H1147 C1167 0.950 . S
H1148 C1169 0.950 . S
H1149 C1172 0.950 . S
H1150 C1173 0.950 . S
H1151 C1175 0.950 . S
H1152 C1176 0.950 . S
H1153 C1177 0.951 . S
H1154 C1179 0.951 . S
H1155 C1181 0.950 . S
H1156 C1182 0.950 . S
H1157 C1184 0.950 . S
H1158 C1187 0.950 . S
H1159 C1188 0.950 . S
H1160 C1190 0.950 . S
H1161 C1191 0.950 . S
C1162 H1144 0.951 . S
C1162 C1163 1.366 . S
C1162 C1164 1.388 . S
C1163 C1162 1.366 . S
C1163 C1167 1.385 . S
C1164 H1145 0.951 . S
C1164 C1162 1.388 . S
C1164 C1165 1.366 . S
C1165 C1164 1.366 . S
C1165 C1166 1.414 . S
C1165 C1168 1.499 . S
C1166 H1146 0.950 . S
C1166 C1165 1.414 . S
C1166 C1167 1.374 . S
C1167 H1147 0.950 . S
C1167 C1163 1.385 . S
C1167 C1166 1.374 . S
C1168 C1165 1.499 . S
C1168 C1169 1.373 . S
C1168 C1170 1.389 . S
C1169 H1148 0.950 . S
C1169 C1168 1.373 . S
C1169 C1185 1.377 . S
C1170 C1168 1.389 . S
C1170 C1171 1.524 . S
C1170 C1184 1.377 . S
C1171 C1170 1.524 . S
C1171 C1172 1.397 . S
C1171 C1176 1.363 . S
C1172 H1149 0.950 . S
C1172 C1171 1.397 . S
C1172 C1173 1.334 . S
C1173 H1150 0.950 . S
C1173 C1172 1.334 . S
C1173 C1174 1.287 . S
C1174 C1173 1.287 . S
C1174 C1175 1.524 . S
C1174 H1193 0.913 . S
C1175 H1151 0.950 . S
C1175 C1174 1.524 . S
C1175 C1176 1.415 . S
C1176 H1152 0.950 . S
C1176 C1171 1.363 . S
C1176 C1175 1.415 . S
C1177 H1153 0.951 . S
C1177 C1178 1.366 . S
C1177 C1179 1.388 . S
C1178 C1177 1.366 . S
C1178 C1182 1.385 . S
C1179 H1154 0.951 . S
C1179 C1177 1.388 . S
C1179 C1180 1.366 . S
C1180 C1179 1.366 . S
C1180 C1181 1.414 . S
C1180 C1183 1.499 . S
C1181 H1155 0.950 . S
C1181 C1180 1.414 . S
C1181 C1182 1.374 . S
C1182 H1156 0.950 . S
C1182 C1178 1.385 . S
C1182 C1181 1.374 . S
C1183 C1180 1.499 . S
C1183 C1184 1.373 . S
C1183 C1185 1.389 . S
C1184 H1157 0.950 . S
C1184 C1170 1.377 . S
C1184 C1183 1.373 . S
C1185 C1169 1.377 . S
C1185 C1183 1.389 . S
C1185 C1186 1.524 . S
C1186 C1185 1.524 . S
C1186 C1187 1.397 1_554 S
C1186 C1191 1.363 . S
C1187 H1158 0.950 . S
C1187 C1186 1.397 1_556 S
C1187 C1188 1.334 . S
C1188 H1159 0.950 . S
C1188 C1187 1.334 . S
C1188 C1189 1.287 . S
C1189 C1188 1.287 . S
C1189 C1190 1.524 1_556 S
C1189 H1192 0.999 . S
C1190 H1160 0.950 . S
C1190 C1189 1.524 1_554 S
C1190 C1191 1.415 . S
C1191 H1161 0.950 . S
C1191 C1186 1.363 . S
C1191 C1190 1.415 . S
H1192 C1189 0.999 . S
H1193 C1174 0.913 . S
H1194 C1212 0.951 . S
H1195 C1214 0.951 . S
H1196 C1216 0.950 . S
H1197 C1217 0.950 . S
H1198 C1219 0.950 . S
H1199 C1222 0.950 . S
H1200 C1223 0.950 . S
H1201 C1225 0.950 . S
H1202 C1226 0.950 . S
H1203 C1227 0.951 . S
H1204 C1229 0.951 . S
H1205 C1231 0.950 . S
H1206 C1232 0.950 . S
H1207 C1234 0.950 . S
H1208 C1237 0.950 . S
H1209 C1238 0.950 . S
H1210 C1240 0.950 . S
H1211 C1241 0.950 . S
C1212 H1194 0.951 . S
C1212 C1213 1.366 . S
C1212 C1214 1.388 . S
C1213 C1212 1.366 . S
C1213 C1217 1.385 . S
C1214 H1195 0.951 . S
C1214 C1212 1.388 . S
C1214 C1215 1.366 . S
C1215 C1214 1.366 . S
C1215 C1216 1.414 . S
C1215 C1218 1.499 . S
C1216 H1196 0.950 . S
C1216 C1215 1.414 . S
C1216 C1217 1.374 . S
C1217 H1197 0.950 . S
C1217 C1213 1.385 . S
C1217 C1216 1.374 . S
C1218 C1215 1.499 . S
C1218 C1219 1.373 . S
C1218 C1220 1.389 . S
C1219 H1198 0.950 . S
C1219 C1218 1.373 . S
C1219 C1235 1.377 1_655 S
C1220 C1218 1.389 . S
C1220 C1221 1.524 . S
C1220 C1234 1.377 1_655 S
C1221 C1220 1.524 . S
C1221 C1222 1.397 . S
C1221 C1226 1.363 . S
C1222 H1199 0.950 . S
C1222 C1221 1.397 . S
C1222 C1223 1.334 . S
C1223 H1200 0.950 . S
C1223 C1222 1.334 . S
C1223 C1224 1.287 . S
C1224 C1223 1.287 . S
C1224 C1225 1.524 . S
C1224 H1243 0.913 . S
C1225 H1201 0.950 . S
C1225 C1224 1.524 . S
C1225 C1226 1.415 . S
C1226 H1202 0.950 . S
C1226 C1221 1.363 . S
C1226 C1225 1.415 . S
C1227 H1203 0.951 . S
C1227 C1228 1.366 . S
C1227 C1229 1.388 . S
C1228 C1227 1.366 . S
C1228 C1232 1.385 . S
C1229 H1204 0.951 . S
C1229 C1227 1.388 . S
C1229 C1230 1.366 . S
C1230 C1229 1.366 . S
C1230 C1231 1.414 . S
C1230 C1233 1.499 . S
C1231 H1205 0.950 . S
C1231 C1230 1.414 . S
C1231 C1232 1.374 . S
C1232 H1206 0.950 . S
C1232 C1228 1.385 . S
C1232 C1231 1.374 . S
C1233 C1230 1.499 . S
C1233 C1234 1.373 . S
C1233 C1235 1.389 . S
C1234 H1207 0.950 . S
C1234 C1220 1.377 1_455 S
C1234 C1233 1.373 . S
C1235 C1219 1.377 1_455 S
C1235 C1233 1.389 . S
C1235 C1236 1.524 . S
C1236 C1235 1.524 . S
C1236 C1237 1.397 . S
C1236 C1241 1.363 . S
C1237 H1208 0.950 . S
C1237 C1236 1.397 . S
C1237 C1238 1.334 . S
C1238 H1209 0.950 . S
C1238 C1237 1.334 . S
C1238 C1239 1.287 . S
C1239 C1238 1.287 . S
C1239 C1240 1.524 . S
C1239 H1242 0.999 . S
C1240 H1210 0.950 . S
C1240 C1239 1.524 . S
C1240 C1241 1.415 . S
C1241 H1211 0.950 . S
C1241 C1236 1.363 . S
C1241 C1240 1.415 . S
H1242 C1239 0.999 . S
H1243 C1224 0.913 . S
H1244 C1262 0.951 . S
H1245 C1264 0.951 . S
H1246 C1266 0.950 . S
H1247 C1267 0.950 . S
H1248 C1269 0.950 . S
H1249 C1272 0.950 . S
H1250 C1273 0.950 . S
H1251 C1275 0.950 . S
H1252 C1276 0.950 . S
H1253 C1277 0.951 . S
H1254 C1279 0.951 . S
H1255 C1281 0.950 . S
H1256 C1282 0.950 . S
H1257 C1284 0.950 . S
H1258 C1287 0.950 . S
H1259 C1288 0.950 . S
H1260 C1290 0.950 . S
H1261 C1291 0.950 . S
C1262 H1244 0.951 . S
C1262 C1263 1.366 . S
C1262 C1264 1.388 . S
C1263 C1262 1.366 . S
C1263 C1267 1.385 . S
C1264 H1245 0.951 . S
C1264 C1262 1.388 . S
C1264 C1265 1.366 . S
C1265 C1264 1.366 . S
C1265 C1266 1.414 . S
C1265 C1268 1.499 . S
C1266 H1246 0.950 . S
C1266 C1265 1.414 . S
C1266 C1267 1.374 . S
C1267 H1247 0.950 . S
C1267 C1263 1.385 . S
C1267 C1266 1.374 . S
C1268 C1265 1.499 . S
C1268 C1269 1.373 . S
C1268 C1270 1.389 . S
C1269 H1248 0.950 . S
C1269 C1268 1.373 . S
C1269 C1285 1.377 . S
C1270 C1268 1.389 . S
C1270 C1271 1.524 . S
C1270 C1284 1.377 . S
C1271 C1270 1.524 . S
C1271 C1272 1.397 . S
C1271 C1276 1.363 . S
C1272 H1249 0.950 . S
C1272 C1271 1.397 . S
C1272 C1273 1.334 . S
C1273 H1250 0.950 . S
C1273 C1272 1.334 . S
C1273 C1274 1.287 . S
C1274 C1273 1.287 . S
C1274 C1275 1.524 . S
C1274 H1293 0.913 . S
C1275 H1251 0.950 . S
C1275 C1274 1.524 . S
C1275 C1276 1.415 . S
C1276 H1252 0.950 . S
C1276 C1271 1.363 . S
C1276 C1275 1.415 . S
C1277 H1253 0.951 . S
C1277 C1278 1.366 . S
C1277 C1279 1.388 . S
C1278 C1277 1.366 . S
C1278 C1282 1.385 . S
C1279 H1254 0.951 . S
C1279 C1277 1.388 . S
C1279 C1280 1.366 . S
C1280 C1279 1.366 . S
C1280 C1281 1.414 . S
C1280 C1283 1.499 . S
C1281 H1255 0.950 . S
C1281 C1280 1.414 . S
C1281 C1282 1.374 . S
C1282 H1256 0.950 . S
C1282 C1278 1.385 . S
C1282 C1281 1.374 . S
C1283 C1280 1.499 . S
C1283 C1284 1.373 . S
C1283 C1285 1.389 . S
C1284 H1257 0.950 . S
C1284 C1270 1.377 . S
C1284 C1283 1.373 . S
C1285 C1269 1.377 . S
C1285 C1283 1.389 . S
C1285 C1286 1.524 . S
C1286 C1285 1.524 . S
C1286 C1287 1.397 . S
C1286 C1291 1.363 . S
C1287 H1258 0.950 . S
C1287 C1286 1.397 . S
C1287 C1288 1.334 . S
C1288 H1259 0.950 . S
C1288 C1287 1.334 . S
C1288 C1289 1.287 . S
C1289 C1288 1.287 . S
C1289 C1290 1.524 . S
C1289 H1292 0.999 . S
C1290 H1260 0.950 . S
C1290 C1289 1.524 . S
C1290 C1291 1.415 . S
C1291 H1261 0.950 . S
C1291 C1286 1.363 . S
C1291 C1290 1.415 . S
H1292 C1289 0.999 . S
H1293 C1274 0.913 . S
H1294 C1312 0.951 . S
H1295 C1314 0.951 . S
H1296 C1316 0.950 . S
H1297 C1317 0.950 . S
H1298 C1319 0.950 . S
H1299 C1322 0.950 . S
H1300 C1323 0.950 . S
H1301 C1325 0.950 . S
H1302 C1326 0.950 . S
H1303 C1327 0.951 . S
H1304 C1329 0.951 . S
H1305 C1331 0.950 . S
H1306 C1332 0.950 . S
H1307 C1334 0.950 . S
H1308 C1337 0.950 . S
H1309 C1338 0.950 . S
H1310 C1340 0.950 . S
H1311 C1341 0.950 1_545 S
C1312 H1294 0.951 . S
C1312 C1313 1.366 . S
C1312 C1314 1.388 . S
C1313 C1312 1.366 . S
C1313 C1317 1.385 . S
C1314 H1295 0.951 . S
C1314 C1312 1.388 . S
C1314 C1315 1.366 . S
C1315 C1314 1.366 . S
C1315 C1316 1.414 . S
C1315 C1318 1.499 . S
C1316 H1296 0.950 . S
C1316 C1315 1.414 . S
C1316 C1317 1.374 . S
C1317 H1297 0.950 . S
C1317 C1313 1.385 . S
C1317 C1316 1.374 . S
C1318 C1315 1.499 . S
C1318 C1319 1.373 . S
C1318 C1320 1.389 . S
C1319 H1298 0.950 . S
C1319 C1318 1.373 . S
C1319 C1335 1.377 . S
C1320 C1318 1.389 . S
C1320 C1321 1.524 . S
C1320 C1334 1.377 . S
C1321 C1320 1.524 . S
C1321 C1322 1.397 . S
C1321 C1326 1.363 . S
C1322 H1299 0.950 . S
C1322 C1321 1.397 . S
C1322 C1323 1.334 . S
C1323 H1300 0.950 . S
C1323 C1322 1.334 . S
C1323 C1324 1.287 . S
C1324 C1323 1.287 . S
C1324 C1325 1.524 . S
C1324 H1343 0.913 . S
C1325 H1301 0.950 . S
C1325 C1324 1.524 . S
C1325 C1326 1.415 . S
C1326 H1302 0.950 . S
C1326 C1321 1.363 . S
C1326 C1325 1.415 . S
C1327 H1303 0.951 . S
C1327 C1328 1.366 . S
C1327 C1329 1.388 . S
C1328 C1327 1.366 . S
C1328 C1332 1.385 . S
C1329 H1304 0.951 . S
C1329 C1327 1.388 . S
C1329 C1330 1.366 . S
C1330 C1329 1.366 . S
C1330 C1331 1.414 . S
C1330 C1333 1.499 . S
C1331 H1305 0.950 . S
C1331 C1330 1.414 . S
C1331 C1332 1.374 . S
C1332 H1306 0.950 . S
C1332 C1328 1.385 . S
C1332 C1331 1.374 . S
C1333 C1330 1.499 . S
C1333 C1334 1.373 1_565 S
C1333 C1335 1.389 1_565 S
C1334 H1307 0.950 . S
C1334 C1320 1.377 . S
C1334 C1333 1.373 1_545 S
C1335 C1319 1.377 . S
C1335 C1333 1.389 1_545 S
C1335 C1336 1.524 1_545 S
C1336 C1335 1.524 1_565 S
C1336 C1337 1.397 . S
C1336 C1341 1.363 . S
C1337 H1308 0.950 . S
C1337 C1336 1.397 . S
C1337 C1338 1.334 . S
C1338 H1309 0.950 . S
C1338 C1337 1.334 . S
C1338 C1339 1.287 . S
C1339 C1338 1.287 . S
C1339 C1340 1.524 . S
C1339 H1342 0.999 . S
C1340 H1310 0.950 . S
C1340 C1339 1.524 . S
C1340 C1341 1.415 . S
C1341 H1311 0.950 1_565 S
C1341 C1336 1.363 . S
C1341 C1340 1.415 . S
H1342 C1339 0.999 . S
H1343 C1324 0.913 . S
H1344 C1362 0.951 . S
H1345 C1364 0.951 . S
H1346 C1366 0.950 . S
H1347 C1367 0.950 . S
H1348 C1369 0.950 . S
H1349 C1372 0.950 . S
H1350 C1373 0.950 . S
H1351 C1375 0.950 . S
H1352 C1376 0.950 . S
H1353 C1377 0.951 . S
H1354 C1379 0.951 . S
H1355 C1381 0.950 . S
H1356 C1382 0.950 . S
H1357 C1384 0.950 . S
H1358 C1387 0.950 . S
H1359 C1388 0.950 . S
H1360 C1390 0.950 . S
H1361 C1391 0.950 . S
C1362 H1344 0.951 . S
C1362 C1363 1.366 . S
C1362 C1364 1.388 . S
C1363 C1362 1.366 . S
C1363 C1367 1.385 . S
C1364 H1345 0.951 . S
C1364 C1362 1.388 . S
C1364 C1365 1.366 . S
C1365 C1364 1.366 . S
C1365 C1366 1.414 . S
C1365 C1368 1.499 . S
C1366 H1346 0.950 . S
C1366 C1365 1.414 . S
C1366 C1367 1.374 . S
C1367 H1347 0.950 . S
C1367 C1363 1.385 . S
C1367 C1366 1.374 . S
C1368 C1365 1.499 . S
C1368 C1369 1.373 . S
C1368 C1370 1.389 . S
C1369 H1348 0.950 . S
C1369 C1368 1.373 . S
C1369 C1385 1.377 . S
C1370 C1368 1.389 . S
C1370 C1371 1.524 . S
C1370 C1384 1.377 . S
C1371 C1370 1.524 . S
C1371 C1372 1.397 . S
C1371 C1376 1.363 . S
C1372 H1349 0.950 . S
C1372 C1371 1.397 . S
C1372 C1373 1.334 . S
C1373 H1350 0.950 . S
C1373 C1372 1.334 . S
C1373 C1374 1.287 . S
C1374 C1373 1.287 . S
C1374 C1375 1.524 . S
C1374 H1393 0.913 . S
C1375 H1351 0.950 . S
C1375 C1374 1.524 . S
C1375 C1376 1.415 . S
C1376 H1352 0.950 . S
C1376 C1371 1.363 . S
C1376 C1375 1.415 . S
C1377 H1353 0.951 . S
C1377 C1378 1.366 . S
C1377 C1379 1.388 . S
C1378 C1377 1.366 . S
C1378 C1382 1.385 . S
C1379 H1354 0.951 . S
C1379 C1377 1.388 . S
C1379 C1380 1.366 . S
C1380 C1379 1.366 . S
C1380 C1381 1.414 . S
C1380 C1383 1.499 . S
C1381 H1355 0.950 . S
C1381 C1380 1.414 . S
C1381 C1382 1.374 . S
C1382 H1356 0.950 . S
C1382 C1378 1.385 . S
C1382 C1381 1.374 . S
C1383 C1380 1.499 . S
C1383 C1384 1.373 . S
C1383 C1385 1.389 . S
C1384 H1357 0.950 . S
C1384 C1370 1.377 . S
C1384 C1383 1.373 . S
C1385 C1369 1.377 . S
C1385 C1383 1.389 . S
C1385 C1386 1.524 . S
C1386 C1385 1.524 . S
C1386 C1387 1.397 . S
C1386 C1391 1.363 . S
C1387 H1358 0.950 . S
C1387 C1386 1.397 . S
C1387 C1388 1.334 . S
C1388 H1359 0.950 . S
C1388 C1387 1.334 . S
C1388 C1389 1.287 . S
C1389 C1388 1.287 . S
C1389 C1390 1.524 . S
C1389 H1392 0.999 . S
C1390 H1360 0.950 . S
C1390 C1389 1.524 . S
C1390 C1391 1.415 . S
C1391 H1361 0.950 . S
C1391 C1386 1.363 . S
C1391 C1390 1.415 . S
H1392 C1389 0.999 . S
H1393 C1374 0.913 . S
H1394 C1412 0.951 . S
H1395 C1414 0.951 . S
H1396 C1416 0.950 . S
H1397 C1417 0.950 . S
H1398 C1419 0.950 . S
H1399 C1422 0.950 . S
H1400 C1423 0.950 . S
H1401 C1425 0.950 . S
H1402 C1426 0.950 . S
H1403 C1427 0.951 . S
H1404 C1429 0.951 . S
H1405 C1431 0.950 . S
H1406 C1432 0.950 . S
H1407 C1434 0.950 . S
H1408 C1437 0.950 . S
H1409 C1438 0.950 . S
H1410 C1440 0.950 . S
H1411 C1441 0.950 . S
C1412 H1394 0.951 . S
C1412 C1413 1.366 . S
C1412 C1414 1.388 . S
C1413 C1412 1.366 . S
C1413 C1417 1.385 . S
C1414 H1395 0.951 . S
C1414 C1412 1.388 . S
C1414 C1415 1.366 . S
C1415 C1414 1.366 . S
C1415 C1416 1.414 . S
C1415 C1418 1.499 . S
C1416 H1396 0.950 . S
C1416 C1415 1.414 . S
C1416 C1417 1.374 . S
C1417 H1397 0.950 . S
C1417 C1413 1.385 . S
C1417 C1416 1.374 . S
C1418 C1415 1.499 . S
C1418 C1419 1.373 . S
C1418 C1420 1.389 . S
C1419 H1398 0.950 . S
C1419 C1418 1.373 . S
C1419 C1435 1.377 . S
C1420 C1418 1.389 . S
C1420 C1421 1.524 . S
C1420 C1434 1.377 . S
C1421 C1420 1.524 . S
C1421 C1422 1.397 . S
C1421 C1426 1.363 . S
C1422 H1399 0.950 . S
C1422 C1421 1.397 . S
C1422 C1423 1.334 . S
C1423 H1400 0.950 . S
C1423 C1422 1.334 . S
C1423 C1424 1.287 . S
C1424 C1423 1.287 . S
C1424 C1425 1.524 . S
C1424 H1443 0.913 . S
C1425 H1401 0.950 . S
C1425 C1424 1.524 . S
C1425 C1426 1.415 . S
C1426 H1402 0.950 . S
C1426 C1421 1.363 . S
C1426 C1425 1.415 . S
C1427 H1403 0.951 . S
C1427 C1428 1.366 . S
C1427 C1429 1.388 . S
C1428 C1427 1.366 . S
C1428 C1432 1.385 . S
C1429 H1404 0.951 . S
C1429 C1427 1.388 . S
C1429 C1430 1.366 . S
C1430 C1429 1.366 . S
C1430 C1431 1.414 . S
C1430 C1433 1.499 . S
C1431 H1405 0.950 . S
C1431 C1430 1.414 . S
C1431 C1432 1.374 . S
C1432 H1406 0.950 . S
C1432 C1428 1.385 . S
C1432 C1431 1.374 . S
C1433 C1430 1.499 . S
C1433 C1434 1.373 . S
C1433 C1435 1.389 . S
C1434 H1407 0.950 . S
C1434 C1420 1.377 . S
C1434 C1433 1.373 . S
C1435 C1419 1.377 . S
C1435 C1433 1.389 . S
C1435 C1436 1.524 . S
C1436 C1435 1.524 . S
C1436 C1437 1.397 . S
C1436 C1441 1.363 . S
C1437 H1408 0.950 . S
C1437 C1436 1.397 . S
C1437 C1438 1.334 . S
C1438 H1409 0.950 . S
C1438 C1437 1.334 . S
C1438 C1439 1.287 . S
C1439 C1438 1.287 . S
C1439 C1440 1.524 . S
C1439 H1442 0.999 . S
C1440 H1410 0.950 . S
C1440 C1439 1.524 . S
C1440 C1441 1.415 . S
C1441 H1411 0.950 . S
C1441 C1436 1.363 . S
C1441 C1440 1.415 . S
H1442 C1439 0.999 . S
H1443 C1424 0.913 . S
H1444 C1462 0.951 . S
H1445 C1464 0.951 . S
H1446 C1466 0.950 . S
H1447 C1467 0.950 . S
H1448 C1469 0.950 . S
H1449 C1472 0.950 . S
H1450 C1473 0.950 . S
H1451 C1475 0.950 . S
H1452 C1476 0.950 . S
H1453 C1477 0.951 . S
H1454 C1479 0.951 . S
H1455 C1481 0.950 . S
H1456 C1482 0.950 . S
H1457 C1484 0.950 . S
H1458 C1487 0.950 . S
H1459 C1488 0.950 . S
H1460 C1490 0.950 . S
H1461 C1491 0.950 . S
C1462 H1444 0.951 . S
C1462 C1463 1.366 . S
C1462 C1464 1.388 . S
C1463 C1462 1.366 . S
C1463 C1467 1.385 . S
C1464 H1445 0.951 . S
C1464 C1462 1.388 . S
C1464 C1465 1.366 . S
C1465 C1464 1.366 . S
C1465 C1466 1.414 . S
C1465 C1468 1.499 . S
C1466 H1446 0.950 . S
C1466 C1465 1.414 . S
C1466 C1467 1.374 . S
C1467 H1447 0.950 . S
C1467 C1463 1.385 . S
C1467 C1466 1.374 . S
C1468 C1465 1.499 . S
C1468 C1469 1.373 . S
C1468 C1470 1.389 . S
C1469 H1448 0.950 . S
C1469 C1468 1.373 . S
C1469 C1485 1.377 . S
C1470 C1468 1.389 . S
C1470 C1471 1.524 . S
C1470 C1484 1.377 . S
C1471 C1470 1.524 . S
C1471 C1472 1.397 . S
C1471 C1476 1.363 . S
C1472 H1449 0.950 . S
C1472 C1471 1.397 . S
C1472 C1473 1.334 . S
C1473 H1450 0.950 . S
C1473 C1472 1.334 . S
C1473 C1474 1.287 . S
C1474 C1473 1.287 . S
C1474 C1475 1.524 . S
C1474 H1493 0.913 . S
C1475 H1451 0.950 . S
C1475 C1474 1.524 . S
C1475 C1476 1.415 . S
C1476 H1452 0.950 . S
C1476 C1471 1.363 . S
C1476 C1475 1.415 . S
C1477 H1453 0.951 . S
C1477 C1478 1.366 . S
C1477 C1479 1.388 . S
C1478 C1477 1.366 . S
C1478 C1482 1.385 . S
C1479 H1454 0.951 . S
C1479 C1477 1.388 . S
C1479 C1480 1.366 . S
C1480 C1479 1.366 . S
C1480 C1481 1.414 . S
C1480 C1483 1.499 . S
C1481 H1455 0.950 . S
C1481 C1480 1.414 . S
C1481 C1482 1.374 . S
C1482 H1456 0.950 . S
C1482 C1478 1.385 . S
C1482 C1481 1.374 . S
C1483 C1480 1.499 . S
C1483 C1484 1.373 . S
C1483 C1485 1.389 . S
C1484 H1457 0.950 . S
C1484 C1470 1.377 . S
C1484 C1483 1.373 . S
C1485 C1469 1.377 . S
C1485 C1483 1.389 . S
C1485 C1486 1.524 . S
C1486 C1485 1.524 . S
C1486 C1487 1.397 . S
C1486 C1491 1.363 . S
C1487 H1458 0.950 . S
C1487 C1486 1.397 . S
C1487 C1488 1.334 . S
C1488 H1459 0.950 . S
C1488 C1487 1.334 . S
C1488 C1489 1.287 . S
C1489 C1488 1.287 . S
C1489 C1490 1.524 . S
C1489 H1492 0.999 . S
C1490 H1460 0.950 . S
C1490 C1489 1.524 . S
C1490 C1491 1.415 . S
C1491 H1461 0.950 . S
C1491 C1486 1.363 . S
C1491 C1490 1.415 . S
H1492 C1489 0.999 . S
H1493 C1474 0.913 . S
H1494 C1512 0.951 . S
H1495 C1514 0.951 . S
H1496 C1516 0.950 . S
H1497 C1517 0.950 . S
H1498 C1519 0.950 . S
H1499 C1522 0.950 . S
H1500 C1523 0.950 . S
H1501 C1525 0.950 . S
H1502 C1526 0.950 . S
H1503 C1527 0.951 . S
H1504 C1529 0.951 . S
H1505 C1531 0.950 . S
H1506 C1532 0.950 . S
H1507 C1534 0.950 . S
H1508 C1537 0.950 . S
H1509 C1538 0.950 . S
H1510 C1540 0.950 . S
H1511 C1541 0.950 . S
C1512 H1494 0.951 . S
C1512 C1513 1.366 . S
C1512 C1514 1.388 . S
C1513 C1512 1.366 . S
C1513 C1517 1.385 . S
C1514 H1495 0.951 . S
C1514 C1512 1.388 . S
C1514 C1515 1.366 . S
C1515 C1514 1.366 . S
C1515 C1516 1.414 . S
C1515 C1518 1.499 . S
C1516 H1496 0.950 . S
C1516 C1515 1.414 . S
C1516 C1517 1.374 . S
C1517 H1497 0.950 . S
C1517 C1513 1.385 . S
C1517 C1516 1.374 . S
C1518 C1515 1.499 . S
C1518 C1519 1.373 . S
C1518 C1520 1.389 . S
C1519 H1498 0.950 . S
C1519 C1518 1.373 . S
C1519 C1535 1.377 . S
C1520 C1518 1.389 . S
C1520 C1521 1.524 . S
C1520 C1534 1.377 . S
C1521 C1520 1.524 . S
C1521 C1522 1.397 . S
C1521 C1526 1.363 . S
C1522 H1499 0.950 . S
C1522 C1521 1.397 . S
C1522 C1523 1.334 . S
C1523 H1500 0.950 . S
C1523 C1522 1.334 . S
C1523 C1524 1.287 . S
C1524 C1523 1.287 . S
C1524 C1525 1.524 . S
C1524 H1543 0.913 . S
C1525 H1501 0.950 . S
C1525 C1524 1.524 . S
C1525 C1526 1.415 . S
C1526 H1502 0.950 . S
C1526 C1521 1.363 . S
C1526 C1525 1.415 . S
C1527 H1503 0.951 . S
C1527 C1528 1.366 . S
C1527 C1529 1.388 . S
C1528 C1527 1.366 . S
C1528 C1532 1.385 . S
C1529 H1504 0.951 . S
C1529 C1527 1.388 . S
C1529 C1530 1.366 . S
C1530 C1529 1.366 . S
C1530 C1531 1.414 . S
C1530 C1533 1.499 . S
C1531 H1505 0.950 . S
C1531 C1530 1.414 . S
C1531 C1532 1.374 . S
C1532 H1506 0.950 . S
C1532 C1528 1.385 . S
C1532 C1531 1.374 . S
C1533 C1530 1.499 . S
C1533 C1534 1.373 . S
C1533 C1535 1.389 . S
C1534 H1507 0.950 . S
C1534 C1520 1.377 . S
C1534 C1533 1.373 . S
C1535 C1519 1.377 . S
C1535 C1533 1.389 . S
C1535 C1536 1.524 . S
C1536 C1535 1.524 . S
C1536 C1537 1.397 . S
C1536 C1541 1.363 . S
C1537 H1508 0.950 . S
C1537 C1536 1.397 . S
C1537 C1538 1.334 . S
C1538 H1509 0.950 . S
C1538 C1537 1.334 . S
C1538 C1539 1.287 . S
C1539 C1538 1.287 . S
C1539 C1540 1.524 . S
C1539 H1542 0.999 . S
C1540 H1510 0.950 . S
C1540 C1539 1.524 . S
C1540 C1541 1.415 . S
C1541 H1511 0.950 . S
C1541 C1536 1.363 . S
C1541 C1540 1.415 . S
H1542 C1539 0.999 . S
H1543 C1524 0.913 . S
H1544 C1562 0.951 . S
H1545 C1564 0.951 . S
H1546 C1566 0.950 . S
H1547 C1567 0.950 . S
H1548 C1569 0.950 . S
H1549 C1572 0.950 . S
H1550 C1573 0.950 . S
H1551 C1575 0.950 . S
H1552 C1576 0.950 . S
H1553 C1577 0.951 . S
H1554 C1579 0.951 . S
H1555 C1581 0.950 . S
H1556 C1582 0.950 . S
H1557 C1584 0.950 . S
H1558 C1587 0.950 . S
H1559 C1588 0.950 . S
H1560 C1590 0.950 . S
H1561 C1591 0.950 . S
C1562 H1544 0.951 . S
C1562 C1563 1.366 . S
C1562 C1564 1.388 . S
C1563 C1562 1.366 . S
C1563 C1567 1.385 . S
C1564 H1545 0.951 . S
C1564 C1562 1.388 . S
C1564 C1565 1.366 . S
C1565 C1564 1.366 . S
C1565 C1566 1.414 . S
C1565 C1568 1.499 . S
C1566 H1546 0.950 . S
C1566 C1565 1.414 . S
C1566 C1567 1.374 . S
C1567 H1547 0.950 . S
C1567 C1563 1.385 . S
C1567 C1566 1.374 . S
C1568 C1565 1.499 . S
C1568 C1569 1.373 . S
C1568 C1570 1.389 . S
C1569 H1548 0.950 . S
C1569 C1568 1.373 . S
C1569 C1585 1.377 . S
C1570 C1568 1.389 . S
C1570 C1571 1.524 . S
C1570 C1584 1.377 . S
C1571 C1570 1.524 . S
C1571 C1572 1.397 . S
C1571 C1576 1.363 . S
C1572 H1549 0.950 . S
C1572 C1571 1.397 . S
C1572 C1573 1.334 . S
C1573 H1550 0.950 . S
C1573 C1572 1.334 . S
C1573 C1574 1.287 . S
C1574 C1573 1.287 . S
C1574 C1575 1.524 . S
C1574 H1593 0.913 . S
C1575 H1551 0.950 . S
C1575 C1574 1.524 . S
C1575 C1576 1.415 . S
C1576 H1552 0.950 . S
C1576 C1571 1.363 . S
C1576 C1575 1.415 . S
C1577 H1553 0.951 . S
C1577 C1578 1.366 . S
C1577 C1579 1.388 . S
C1578 C1577 1.366 . S
C1578 C1582 1.385 . S
C1579 H1554 0.951 . S
C1579 C1577 1.388 . S
C1579 C1580 1.366 . S
C1580 C1579 1.366 . S
C1580 C1581 1.414 . S
C1580 C1583 1.499 . S
C1581 H1555 0.950 . S
C1581 C1580 1.414 . S
C1581 C1582 1.374 . S
C1582 H1556 0.950 . S
C1582 C1578 1.385 . S
C1582 C1581 1.374 . S
C1583 C1580 1.499 . S
C1583 C1584 1.373 . S
C1583 C1585 1.389 . S
C1584 H1557 0.950 . S
C1584 C1570 1.377 . S
C1584 C1583 1.373 . S
C1585 C1569 1.377 . S
C1585 C1583 1.389 . S
C1585 C1586 1.524 . S
C1586 C1585 1.524 . S
C1586 C1587 1.397 . S
C1586 C1591 1.363 . S
C1587 H1558 0.950 . S
C1587 C1586 1.397 . S
C1587 C1588 1.334 . S
C1588 H1559 0.950 . S
C1588 C1587 1.334 . S
C1588 C1589 1.287 . S
C1589 C1588 1.287 . S
C1589 C1590 1.524 . S
C1589 H1592 0.999 . S
C1590 H1560 0.950 . S
C1590 C1589 1.524 . S
C1590 C1591 1.415 . S
C1591 H1561 0.950 . S
C1591 C1586 1.363 . S
C1591 C1590 1.415 . S
H1592 C1589 0.999 . S
H1593 C1574 0.913 . S
H1594 C1612 0.951 . S
H1595 C1614 0.951 . S
H1596 C1616 0.950 . S
H1597 C1617 0.950 . S
H1598 C1619 0.950 . S
H1599 C1622 0.950 . S
H1600 C1623 0.950 . S
H1601 C1625 0.950 . S
H1602 C1626 0.950 . S
H1603 C1627 0.951 . S
H1604 C1629 0.951 . S
H1605 C1631 0.950 . S
H1606 C1632 0.950 . S
H1607 C1634 0.950 . S
H1608 C1637 0.950 . S
H1609 C1638 0.950 . S
H1610 C1640 0.950 . S
H1611 C1641 0.950 . S
C1612 H1594 0.951 . S
C1612 C1613 1.366 . S
C1612 C1614 1.388 . S
C1613 C1612 1.366 . S
C1613 C1617 1.385 . S
C1614 H1595 0.951 . S
C1614 C1612 1.388 . S
C1614 C1615 1.366 . S
C1615 C1614 1.366 . S
C1615 C1616 1.414 . S
C1615 C1618 1.499 . S
C1616 H1596 0.950 . S
C1616 C1615 1.414 . S
C1616 C1617 1.374 . S
C1617 H1597 0.950 . S
C1617 C1613 1.385 . S
C1617 C1616 1.374 . S
C1618 C1615 1.499 . S
C1618 C1619 1.373 . S
C1618 C1620 1.389 . S
C1619 H1598 0.950 . S
C1619 C1618 1.373 . S
C1619 C1635 1.377 . S
C1620 C1618 1.389 . S
C1620 C1621 1.524 . S
C1620 C1634 1.377 . S
C1621 C1620 1.524 . S
C1621 C1622 1.397 . S
C1621 C1626 1.363 . S
C1622 H1599 0.950 . S
C1622 C1621 1.397 . S
C1622 C1623 1.334 . S
C1623 H1600 0.950 . S
C1623 C1622 1.334 . S
C1623 C1624 1.287 . S
C1624 C1623 1.287 . S
C1624 C1625 1.524 . S
C1624 H1643 0.913 . S
C1625 H1601 0.950 . S
C1625 C1624 1.524 . S
C1625 C1626 1.415 . S
C1626 H1602 0.950 . S
C1626 C1621 1.363 . S
C1626 C1625 1.415 . S
C1627 H1603 0.951 . S
C1627 C1628 1.366 . S
C1627 C1629 1.388 . S
C1628 C1627 1.366 . S
C1628 C1632 1.385 . S
C1629 H1604 0.951 . S
C1629 C1627 1.388 . S
C1629 C1630 1.366 . S
C1630 C1629 1.366 . S
C1630 C1631 1.414 . S
C1630 C1633 1.499 . S
C1631 H1605 0.950 . S
C1631 C1630 1.414 . S
C1631 C1632 1.374 . S
C1632 H1606 0.950 . S
C1632 C1628 1.385 . S
C1632 C1631 1.374 . S
C1633 C1630 1.499 . S
C1633 C1634 1.373 . S
C1633 C1635 1.389 . S
C1634 H1607 0.950 . S
C1634 C1620 1.377 . S
C1634 C1633 1.373 . S
C1635 C1619 1.377 . S
C1635 C1633 1.389 . S
C1635 C1636 1.524 . S
C1636 C1635 1.524 . S
C1636 C1637 1.397 . S
C1636 C1641 1.363 . S
C1637 H1608 0.950 . S
C1637 C1636 1.397 . S
C1637 C1638 1.334 . S
C1638 H1609 0.950 . S
C1638 C1637 1.334 . S
C1638 C1639 1.287 . S
C1639 C1638 1.287 . S
C1639 C1640 1.524 . S
C1639 H1642 0.999 . S
C1640 H1610 0.950 . S
C1640 C1639 1.524 . S
C1640 C1641 1.415 . S
C1641 H1611 0.950 . S
C1641 C1636 1.363 . S
C1641 C1640 1.415 . S
H1642 C1639 0.999 . S
H1643 C1624 0.913 . S
H1644 C1662 0.951 . S
H1645 C1664 0.951 . S
H1646 C1666 0.950 . S
H1647 C1667 0.950 . S
H1648 C1669 0.950 . S
H1649 C1672 0.942 . S
H1650 C1673 0.950 . S
H1651 C1675 0.950 . S
H1652 C1676 0.950 . S
H1653 C1677 0.951 . S
H1654 C1679 0.951 . S
H1655 C1681 0.950 . S
H1656 C1682 0.950 . S
H1657 C1684 0.950 . S
H1658 C1687 0.950 . S
H1659 C1688 0.950 . S
H1660 C1690 0.950 . S
H1661 C1691 0.950 . S
C1662 H1644 0.951 . S
C1662 C1663 1.366 . S
C1662 C1664 1.388 . S
C1663 C1662 1.366 . S
C1663 C1667 1.385 . S
C1664 H1645 0.951 . S
C1664 C1662 1.388 . S
C1664 C1665 1.366 . S
C1665 C1664 1.366 . S
C1665 C1666 1.414 . S
C1665 C1668 1.499 1_545 S
C1666 H1646 0.950 . S
C1666 C1665 1.414 . S
C1666 C1667 1.374 . S
C1667 H1647 0.950 . S
C1667 C1663 1.385 . S
C1667 C1666 1.374 . S
C1668 C1665 1.499 1_565 S
C1668 C1669 1.373 . S
C1668 C1670 1.389 . S
C1669 H1648 0.950 . S
C1669 C1668 1.373 . S
C1669 C1685 1.377 . S
C1670 C1668 1.389 . S
C1670 C1671 1.524 . S
C1670 C1684 1.377 . S
C1671 C1670 1.524 . S
C1671 C1672 1.390 1_565 S
C1671 C1676 1.363 . S
C1672 H1649 0.942 . S
C1672 C1671 1.390 1_545 S
C1672 C1673 1.349 . S
C1673 H1650 0.950 . S
C1673 C1672 1.349 . S
C1673 C1674 1.287 . S
C1674 C1673 1.287 . S
C1674 C1675 1.524 1_545 S
C1674 H1693 0.913 . S
C1675 H1651 0.950 . S
C1675 C1674 1.524 1_565 S
C1675 C1676 1.415 . S
C1676 H1652 0.950 . S
C1676 C1671 1.363 . S
C1676 C1675 1.415 . S
C1677 H1653 0.951 . S
C1677 C1678 1.366 . S
C1677 C1679 1.388 . S
C1678 C1677 1.366 . S
C1678 C1682 1.385 . S
C1679 H1654 0.951 . S
C1679 C1677 1.388 . S
C1679 C1680 1.366 . S
C1680 C1679 1.366 . S
C1680 C1681 1.414 . S
C1680 C1683 1.499 . S
C1681 H1655 0.950 . S
C1681 C1680 1.414 . S
C1681 C1682 1.374 . S
C1682 H1656 0.950 . S
C1682 C1678 1.385 . S
C1682 C1681 1.374 . S
C1683 C1680 1.499 . S
C1683 C1684 1.373 . S
C1683 C1685 1.389 . S
C1684 H1657 0.950 . S
C1684 C1670 1.377 . S
C1684 C1683 1.373 . S
C1685 C1669 1.377 . S
C1685 C1683 1.389 . S
C1685 C1686 1.524 . S
C1686 C1685 1.524 . S
C1686 C1687 1.397 . S
C1686 C1691 1.363 . S
C1687 H1658 0.950 . S
C1687 C1686 1.397 . S
C1687 C1688 1.334 . S
C1688 H1659 0.950 . S
C1688 C1687 1.334 . S
C1688 C1689 1.287 . S
C1689 C1688 1.287 . S
C1689 C1690 1.524 . S
C1689 H1692 0.999 . S
C1690 H1660 0.950 . S
C1690 C1689 1.524 . S
C1690 C1691 1.415 . S
C1691 H1661 0.950 . S
C1691 C1686 1.363 . S
C1691 C1690 1.415 . S
H1692 C1689 0.999 . S
H1693 C1674 0.913 . S
H1694 C1712 0.951 . S
H1695 C1714 0.951 . S
H1696 C1716 0.950 1_455 S
H1697 C1717 0.950 . S
H1698 C1719 0.950 . S
H1699 C1722 0.950 . S
H1700 C1723 0.950 . S
H1701 C1725 0.950 . S
H1702 C1726 0.950 . S
H1703 C1727 0.951 . S
H1704 C1729 0.951 . S
H1705 C1731 0.950 . S
H1706 C1732 0.950 . S
H1707 C1734 0.950 . S
H1708 C1737 0.950 . S
H1709 C1738 0.950 . S
H1710 C1740 0.950 . S
H1711 C1741 0.950 . S
C1712 H1694 0.951 . S
C1712 C1713 1.366 . S
C1712 C1714 1.388 1_655 S
C1713 C1712 1.366 . S
C1713 C1717 1.385 . S
C1714 H1695 0.951 . S
C1714 C1712 1.388 1_455 S
C1714 C1715 1.366 . S
C1715 C1714 1.366 . S
C1715 C1716 1.414 1_455 S
C1715 C1718 1.499 . S
C1716 H1696 0.950 1_655 S
C1716 C1715 1.414 1_655 S
C1716 C1717 1.374 . S
C1717 H1697 0.950 . S
C1717 C1713 1.385 . S
C1717 C1716 1.374 . S
C1718 C1715 1.499 . S
C1718 C1719 1.373 . S
C1718 C1720 1.389 . S
C1719 H1698 0.950 . S
C1719 C1718 1.373 . S
C1719 C1735 1.377 . S
C1720 C1718 1.389 . S
C1720 C1721 1.524 . S
C1720 C1734 1.377 . S
C1721 C1720 1.524 . S
C1721 C1722 1.397 . S
C1721 C1726 1.363 . S
C1722 H1699 0.950 . S
C1722 C1721 1.397 . S
C1722 C1723 1.334 . S
C1723 H1700 0.950 . S
C1723 C1722 1.334 . S
C1723 C1724 1.287 . S
C1724 C1723 1.287 . S
C1724 C1725 1.524 . S
C1724 H1743 0.913 . S
C1725 H1701 0.950 . S
C1725 C1724 1.524 . S
C1725 C1726 1.415 . S
C1726 H1702 0.950 . S
C1726 C1721 1.363 . S
C1726 C1725 1.415 . S
C1727 H1703 0.951 . S
C1727 C1728 1.366 . S
C1727 C1729 1.388 . S
C1728 C1727 1.366 . S
C1728 C1732 1.385 . S
C1729 H1704 0.951 . S
C1729 C1727 1.388 . S
C1729 C1730 1.366 . S
C1730 C1729 1.366 . S
C1730 C1731 1.414 . S
C1730 C1733 1.499 . S
C1731 H1705 0.950 . S
C1731 C1730 1.414 . S
C1731 C1732 1.374 . S
C1732 H1706 0.950 . S
C1732 C1728 1.385 . S
C1732 C1731 1.374 . S
C1733 C1730 1.499 . S
C1733 C1734 1.373 . S
C1733 C1735 1.389 . S
C1734 H1707 0.950 . S
C1734 C1720 1.377 . S
C1734 C1733 1.373 . S
C1735 C1719 1.377 . S
C1735 C1733 1.389 . S
C1735 C1736 1.524 . S
C1736 C1735 1.524 . S
C1736 C1737 1.397 . S
C1736 C1741 1.363 . S
C1737 H1708 0.950 . S
C1737 C1736 1.397 . S
C1737 C1738 1.334 . S
C1738 H1709 0.950 . S
C1738 C1737 1.334 . S
C1738 C1739 1.287 . S
C1739 C1738 1.287 . S
C1739 C1740 1.524 . S
C1739 H1742 0.999 . S
C1740 H1710 0.950 . S
C1740 C1739 1.524 . S
C1740 C1741 1.415 . S
C1741 H1711 0.950 . S
C1741 C1736 1.363 . S
C1741 C1740 1.415 . S
H1742 C1739 0.999 . S
H1743 C1724 0.913 . S
H1744 C1762 0.951 . S
H1745 C1764 0.951 . S
H1746 C1766 0.950 . S
H1747 C1767 0.950 . S
H1748 C1769 0.950 . S
H1749 C1772 0.950 . S
H1750 C1773 0.950 . S
H1751 C1775 0.950 . S
H1752 C1776 0.950 . S
H1753 C1777 0.951 . S
H1754 C1779 0.951 . S
H1755 C1781 0.950 . S
H1756 C1782 0.950 . S
H1757 C1784 0.950 . S
H1758 C1787 0.950 . S
H1759 C1788 0.950 . S
H1760 C1790 0.950 . S
H1761 C1791 0.950 . S
C1762 H1744 0.951 . S
C1762 C1763 1.366 . S
C1762 C1764 1.388 . S
C1763 C1762 1.366 . S
C1763 C1767 1.385 . S
C1764 H1745 0.951 . S
C1764 C1762 1.388 . S
C1764 C1765 1.366 . S
C1765 C1764 1.366 . S
C1765 C1766 1.414 . S
C1765 C1768 1.499 . S
C1766 H1746 0.950 . S
C1766 C1765 1.414 . S
C1766 C1767 1.374 . S
C1767 H1747 0.950 . S
C1767 C1763 1.385 . S
C1767 C1766 1.374 . S
C1768 C1765 1.499 . S
C1768 C1769 1.373 . S
C1768 C1770 1.389 . S
C1769 H1748 0.950 . S
C1769 C1768 1.373 . S
C1769 C1785 1.377 . S
C1770 C1768 1.389 . S
C1770 C1771 1.524 . S
C1770 C1784 1.377 . S
C1771 C1770 1.524 . S
C1771 C1772 1.397 . S
C1771 C1776 1.363 . S
C1772 H1749 0.950 . S
C1772 C1771 1.397 . S
C1772 C1773 1.334 . S
C1773 H1750 0.950 . S
C1773 C1772 1.334 . S
C1773 C1774 1.287 . S
C1774 C1773 1.287 . S
C1774 C1775 1.524 . S
C1774 H1793 0.913 . S
C1775 H1751 0.950 . S
C1775 C1774 1.524 . S
C1775 C1776 1.415 . S
C1776 H1752 0.950 . S
C1776 C1771 1.363 . S
C1776 C1775 1.415 . S
C1777 H1753 0.951 . S
C1777 C1778 1.366 . S
C1777 C1779 1.388 . S
C1778 C1777 1.366 . S
C1778 C1782 1.385 . S
C1779 H1754 0.951 . S
C1779 C1777 1.388 . S
C1779 C1780 1.366 . S
C1780 C1779 1.366 . S
C1780 C1781 1.414 . S
C1780 C1783 1.499 . S
C1781 H1755 0.950 . S
C1781 C1780 1.414 . S
C1781 C1782 1.374 . S
C1782 H1756 0.950 . S
C1782 C1778 1.385 . S
C1782 C1781 1.374 . S
C1783 C1780 1.499 . S
C1783 C1784 1.373 . S
C1783 C1785 1.389 . S
C1784 H1757 0.950 . S
C1784 C1770 1.377 . S
C1784 C1783 1.373 . S
C1785 C1769 1.377 . S
C1785 C1783 1.389 . S
C1785 C1786 1.524 . S
C1786 C1785 1.524 . S
C1786 C1787 1.397 . S
C1786 C1791 1.363 . S
C1787 H1758 0.950 . S
C1787 C1786 1.397 . S
C1787 C1788 1.334 . S
C1788 H1759 0.950 . S
C1788 C1787 1.334 . S
C1788 C1789 1.287 . S
C1789 C1788 1.287 . S
C1789 C1790 1.524 . S
C1789 H1792 0.999 . S
C1790 H1760 0.950 . S
C1790 C1789 1.524 . S
C1790 C1791 1.415 . S
C1791 H1761 0.950 . S
C1791 C1786 1.363 . S
C1791 C1790 1.415 . S
H1792 C1789 0.999 . S
H1793 C1774 0.913 . S
H1794 C1812 0.951 . S
H1795 C1814 0.951 . S
H1796 C1816 0.950 . S
H1797 C1817 0.950 . S
H1798 C1819 0.950 . S
H1799 C1822 0.950 . S
H1800 C1823 0.950 . S
H1801 C1825 0.950 . S
H1802 C1826 0.950 . S
H1803 C1827 0.951 . S
H1804 C1829 0.951 . S
H1805 C1831 0.950 . S
H1806 C1832 0.950 . S
H1807 C1834 0.950 . S
H1808 C1837 0.950 . S
H1809 C1838 0.950 . S
H1810 C1840 0.950 . S
H1811 C1841 0.950 . S
C1812 H1794 0.951 . S
C1812 C1813 1.366 . S
C1812 C1814 1.388 . S
C1813 C1812 1.366 . S
C1813 C1817 1.385 . S
C1814 H1795 0.951 . S
C1814 C1812 1.388 . S
C1814 C1815 1.366 . S
C1815 C1814 1.366 . S
C1815 C1816 1.414 . S
C1815 C1818 1.499 . S
C1816 H1796 0.950 . S
C1816 C1815 1.414 . S
C1816 C1817 1.374 . S
C1817 H1797 0.950 . S
C1817 C1813 1.385 . S
C1817 C1816 1.374 . S
C1818 C1815 1.499 . S
C1818 C1819 1.373 . S
C1818 C1820 1.389 . S
C1819 H1798 0.950 . S
C1819 C1818 1.373 . S
C1819 C1835 1.377 . S
C1820 C1818 1.389 . S
C1820 C1821 1.524 . S
C1820 C1834 1.377 . S
C1821 C1820 1.524 . S
C1821 C1822 1.397 . S
C1821 C1826 1.363 . S
C1822 H1799 0.950 . S
C1822 C1821 1.397 . S
C1822 C1823 1.334 . S
C1823 H1800 0.950 . S
C1823 C1822 1.334 . S
C1823 C1824 1.287 . S
C1824 C1823 1.287 . S
C1824 C1825 1.524 . S
C1824 H1843 0.913 . S
C1825 H1801 0.950 . S
C1825 C1824 1.524 . S
C1825 C1826 1.415 . S
C1826 H1802 0.950 . S
C1826 C1821 1.363 . S
C1826 C1825 1.415 . S
C1827 H1803 0.951 . S
C1827 C1828 1.366 . S
C1827 C1829 1.388 . S
C1828 C1827 1.366 . S
C1828 C1832 1.385 . S
C1829 H1804 0.951 . S
C1829 C1827 1.388 . S
C1829 C1830 1.366 . S
C1830 C1829 1.366 . S
C1830 C1831 1.414 . S
C1830 C1833 1.499 . S
C1831 H1805 0.950 . S
C1831 C1830 1.414 . S
C1831 C1832 1.374 . S
C1832 H1806 0.950 . S
C1832 C1828 1.385 . S
C1832 C1831 1.374 . S
C1833 C1830 1.499 . S
C1833 C1834 1.373 . S
C1833 C1835 1.389 . S
C1834 H1807 0.950 . S
C1834 C1820 1.377 . S
C1834 C1833 1.373 . S
C1835 C1819 1.377 . S
C1835 C1833 1.389 . S
C1835 C1836 1.524 . S
C1836 C1835 1.524 . S
C1836 C1837 1.397 . S
C1836 C1841 1.363 . S
C1837 H1808 0.950 . S
C1837 C1836 1.397 . S
C1837 C1838 1.334 . S
C1838 H1809 0.950 . S
C1838 C1837 1.334 . S
C1838 C1839 1.287 . S
C1839 C1838 1.287 . S
C1839 C1840 1.524 . S
C1839 H1842 0.999 . S
C1840 H1810 0.950 . S
C1840 C1839 1.524 . S
C1840 C1841 1.415 . S
C1841 H1811 0.950 . S
C1841 C1836 1.363 . S
C1841 C1840 1.415 . S
H1842 C1839 0.999 . S
H1843 C1824 0.913 . S
H1844 C1862 0.951 . S
H1845 C1864 0.951 . S
H1846 C1866 0.950 . S
H1847 C1867 0.950 . S
H1848 C1869 0.950 . S
H1849 C1872 0.950 . S
H1850 C1873 0.950 . S
H1851 C1875 0.950 . S
H1852 C1876 0.950 . S
H1853 C1877 0.951 . S
H1854 C1879 0.951 . S
H1855 C1881 0.950 . S
H1856 C1882 0.950 . S
H1857 C1884 0.950 . S
H1858 C1887 0.950 . S
H1859 C1888 0.950 . S
H1860 C1890 0.950 . S
H1861 C1891 0.950 . S
C1862 H1844 0.951 . S
C1862 C1863 1.366 . S
C1862 C1864 1.388 . S
C1863 C1862 1.366 . S
C1863 C1867 1.385 . S
C1864 H1845 0.951 . S
C1864 C1862 1.388 . S
C1864 C1865 1.366 . S
C1865 C1864 1.366 . S
C1865 C1866 1.414 . S
C1865 C1868 1.499 . S
C1866 H1846 0.950 . S
C1866 C1865 1.414 . S
C1866 C1867 1.374 . S
C1867 H1847 0.950 . S
C1867 C1863 1.385 . S
C1867 C1866 1.374 . S
C1868 C1865 1.499 . S
C1868 C1869 1.373 . S
C1868 C1870 1.389 . S
C1869 H1848 0.950 . S
C1869 C1868 1.373 . S
C1869 C1885 1.377 . S
C1870 C1868 1.389 . S
C1870 C1871 1.524 . S
C1870 C1884 1.377 . S
C1871 C1870 1.524 . S
C1871 C1872 1.397 . S
C1871 C1876 1.363 . S
C1872 H1849 0.950 . S
C1872 C1871 1.397 . S
C1872 C1873 1.334 . S
C1873 H1850 0.950 . S
C1873 C1872 1.334 . S
C1873 C1874 1.287 . S
C1874 C1873 1.287 . S
C1874 C1875 1.524 . S
C1874 H1893 0.913 . S
C1875 H1851 0.950 . S
C1875 C1874 1.524 . S
C1875 C1876 1.415 . S
C1876 H1852 0.950 . S
C1876 C1871 1.363 . S
C1876 C1875 1.415 . S
C1877 H1853 0.951 . S
C1877 C1878 1.366 . S
C1877 C1879 1.388 . S
C1878 C1877 1.366 . S
C1878 C1882 1.385 . S
C1879 H1854 0.951 . S
C1879 C1877 1.388 . S
C1879 C1880 1.366 . S
C1880 C1879 1.366 . S
C1880 C1881 1.414 . S
C1880 C1883 1.499 . S
C1881 H1855 0.950 . S
C1881 C1880 1.414 . S
C1881 C1882 1.374 . S
C1882 H1856 0.950 . S
C1882 C1878 1.385 . S
C1882 C1881 1.374 . S
C1883 C1880 1.499 . S
C1883 C1884 1.373 . S
C1883 C1885 1.389 . S
C1884 H1857 0.950 . S
C1884 C1870 1.377 . S
C1884 C1883 1.373 . S
C1885 C1869 1.377 . S
C1885 C1883 1.389 . S
C1885 C1886 1.524 . S
C1886 C1885 1.524 . S
C1886 C1887 1.397 . S
C1886 C1891 1.363 . S
C1887 H1858 0.950 . S
C1887 C1886 1.397 . S
C1887 C1888 1.334 . S
C1888 H1859 0.950 . S
C1888 C1887 1.334 . S
C1888 C1889 1.287 . S
C1889 C1888 1.287 . S
C1889 C1890 1.524 . S
C1889 H1892 0.999 . S
C1890 H1860 0.950 . S
C1890 C1889 1.524 . S
C1890 C1891 1.415 . S
C1891 H1861 0.950 . S
C1891 C1886 1.363 . S
C1891 C1890 1.415 . S
H1892 C1889 0.999 . S
H1893 C1874 0.913 . S
H1894 C1912 0.951 . S
H1895 C1914 0.951 . S
H1896 C1916 0.950 . S
H1897 C1917 0.950 . S
H1898 C1919 0.950 . S
H1899 C1922 0.950 . S
H1900 C1923 0.950 . S
H1901 C1925 0.950 . S
H1902 C1926 0.950 . S
H1903 C1927 0.951 . S
H1904 C1929 0.951 . S
H1905 C1931 0.950 . S
H1906 C1932 0.950 . S
H1907 C1934 0.950 . S
H1908 C1937 0.950 . S
H1909 C1938 0.950 . S
H1910 C1940 0.950 . S
H1911 C1941 0.950 . S
C1912 H1894 0.951 . S
C1912 C1913 1.366 . S
C1912 C1914 1.388 . S
C1913 C1912 1.366 . S
C1913 C1917 1.385 . S
C1914 H1895 0.951 . S
C1914 C1912 1.388 . S
C1914 C1915 1.366 . S
C1915 C1914 1.366 . S
C1915 C1916 1.414 . S
C1915 C1918 1.499 . S
C1916 H1896 0.950 . S
C1916 C1915 1.414 . S
C1916 C1917 1.374 . S
C1917 H1897 0.950 . S
C1917 C1913 1.385 . S
C1917 C1916 1.374 . S
C1918 C1915 1.499 . S
C1918 C1919 1.373 . S
C1918 C1920 1.389 . S
C1919 H1898 0.950 . S
C1919 C1918 1.373 . S
C1919 C1935 1.377 . S
C1920 C1918 1.389 . S
C1920 C1921 1.524 . S
C1920 C1934 1.377 . S
C1921 C1920 1.524 . S
C1921 C1922 1.397 . S
C1921 C1926 1.363 . S
C1922 H1899 0.950 . S
C1922 C1921 1.397 . S
C1922 C1923 1.334 . S
C1923 H1900 0.950 . S
C1923 C1922 1.334 . S
C1923 C1924 1.287 . S
C1924 C1923 1.287 . S
C1924 C1925 1.524 . S
C1924 H1943 0.913 . S
C1925 H1901 0.950 . S
C1925 C1924 1.524 . S
C1925 C1926 1.415 . S
C1926 H1902 0.950 . S
C1926 C1921 1.363 . S
C1926 C1925 1.415 . S
C1927 H1903 0.951 . S
C1927 C1928 1.366 . S
C1927 C1929 1.388 . S
C1928 C1927 1.366 . S
C1928 C1932 1.385 . S
C1929 H1904 0.951 . S
C1929 C1927 1.388 . S
C1929 C1930 1.366 . S
C1930 C1929 1.366 . S
C1930 C1931 1.414 . S
C1930 C1933 1.499 . S
C1931 H1905 0.950 . S
C1931 C1930 1.414 . S
C1931 C1932 1.374 . S
C1932 H1906 0.950 . S
C1932 C1928 1.385 . S
C1932 C1931 1.374 . S
C1933 C1930 1.499 . S
C1933 C1934 1.373 . S
C1933 C1935 1.389 . S
C1934 H1907 0.950 . S
C1934 C1920 1.377 . S
C1934 C1933 1.373 . S
C1935 C1919 1.377 . S
C1935 C1933 1.389 . S
C1935 C1936 1.524 . S
C1936 C1935 1.524 . S
C1936 C1937 1.397 . S
C1936 C1941 1.363 . S
C1937 H1908 0.950 . S
C1937 C1936 1.397 . S
C1937 C1938 1.334 . S
C1938 H1909 0.950 . S
C1938 C1937 1.334 . S
C1938 C1939 1.287 . S
C1939 C1938 1.287 . S
C1939 C1940 1.524 . S
C1939 H1942 0.999 . S
C1940 H1910 0.950 . S
C1940 C1939 1.524 . S
C1940 C1941 1.415 . S
C1941 H1911 0.950 . S
C1941 C1936 1.363 . S
C1941 C1940 1.415 . S
H1942 C1939 0.999 . S
H1943 C1924 0.913 . S
H1944 C1962 0.951 . S
H1945 C1964 0.951 . S
H1946 C1966 0.950 . S
H1947 C1967 0.950 . S
H1948 C1969 0.950 . S
H1949 C1972 0.950 . S
H1950 C1973 0.950 . S
H1951 C1975 0.950 . S
H1952 C1976 0.950 . S
H1953 C1977 0.951 . S
H1954 C1979 0.951 . S
H1955 C1981 0.950 . S
H1956 C1982 0.950 . S
H1957 C1984 0.942 . S
H1958 C1987 0.950 . S
H1959 C1988 0.950 . S
H1960 C1990 0.950 . S
H1961 C1991 0.950 . S
C1962 H1944 0.951 . S
C1962 C1963 1.366 . S
C1962 C1964 1.388 . S
C1963 C1962 1.366 . S
C1963 C1967 1.385 . S
C1964 H1945 0.951 . S
C1964 C1962 1.388 . S
C1964 C1965 1.366 . S
C1965 C1964 1.366 . S
C1965 C1966 1.414 . S
C1965 C1968 1.499 . S
C1966 H1946 0.950 . S
C1966 C1965 1.414 . S
C1966 C1967 1.374 . S
C1967 H1947 0.950 . S
C1967 C1963 1.385 . S
C1967 C1966 1.374 . S
C1968 C1965 1.499 . S
C1968 C1969 1.373 . S
C1968 C1970 1.389 . S
C1969 H1948 0.950 . S
C1969 C1968 1.373 . S
C1969 C1985 1.377 1_565 S
C1970 C1968 1.389 . S
C1970 C1971 1.524 . S
C1970 C1984 1.345 1_565 S
C1971 C1970 1.524 . S
C1971 C1972 1.397 . S
C1971 C1976 1.363 . S
C1972 H1949 0.950 . S
C1972 C1971 1.397 . S
C1972 C1973 1.334 . S
C1973 H1950 0.950 . S
C1973 C1972 1.334 . S
C1973 C1974 1.287 . S
C1974 C1973 1.287 . S
C1974 C1975 1.524 . S
C1974 H1993 0.913 . S
C1975 H1951 0.950 . S
C1975 C1974 1.524 . S
C1975 C1976 1.415 . S
C1976 H1952 0.950 . S
C1976 C1971 1.363 . S
C1976 C1975 1.415 . S
C1977 H1953 0.951 . S
C1977 C1978 1.366 . S
C1977 C1979 1.388 . S
C1978 C1977 1.366 . S
C1978 C1982 1.385 . S
C1979 H1954 0.951 . S
C1979 C1977 1.388 . S
C1979 C1980 1.366 . S
C1980 C1979 1.366 . S
C1980 C1981 1.414 . S
C1980 C1983 1.499 . S
C1981 H1955 0.950 . S
C1981 C1980 1.414 . S
C1981 C1982 1.374 . S
C1982 H1956 0.950 . S
C1982 C1978 1.385 . S
C1982 C1981 1.374 . S
C1983 C1980 1.499 . S
C1983 C1984 1.415 . S
C1983 C1985 1.389 . S
C1984 H1957 0.942 . S
C1984 C1970 1.345 1_545 S
C1984 C1983 1.415 . S
C1985 C1969 1.377 1_545 S
C1985 C1983 1.389 . S
C1985 C1986 1.524 . S
C1986 C1985 1.524 . S
C1986 C1987 1.397 . S
C1986 C1991 1.363 . S
C1987 H1958 0.950 . S
C1987 C1986 1.397 . S
C1987 C1988 1.334 . S
C1988 H1959 0.950 . S
C1988 C1987 1.334 . S
C1988 C1989 1.287 . S
C1989 C1988 1.287 . S
C1989 C1990 1.524 . S
C1989 H1992 0.999 . S
C1990 H1960 0.950 . S
C1990 C1989 1.524 . S
C1990 C1991 1.415 . S
C1991 H1961 0.950 . S
C1991 C1986 1.363 . S
C1991 C1990 1.415 . S
H1992 C1989 0.999 . S
H1993 C1974 0.913 . S
H1994 C2012 0.951 . S
H1995 C2014 0.951 . S
H1996 C2016 0.950 . S
H1997 C2017 0.950 . S
H1998 C2019 0.950 . S
H1999 C2022 0.950 . S
H2000 C2023 0.950 . S
H2001 C2025 0.950 . S
H2002 C2026 0.950 . S
H2003 C2027 0.951 . S
H2004 C2029 0.951 . S
H2005 C2031 0.950 . S
H2006 C2032 0.950 . S
H2007 C2034 0.950 . S
H2008 C2037 0.950 . S
H2009 C2038 0.950 . S
H2010 C2040 0.950 . S
H2011 C2041 0.950 . S
C2012 H1994 0.951 . S
C2012 C2013 1.366 . S
C2012 C2014 1.388 . S
C2013 C2012 1.366 . S
C2013 C2017 1.385 . S
C2014 H1995 0.951 . S
C2014 C2012 1.388 . S
C2014 C2015 1.366 . S
C2015 C2014 1.366 . S
C2015 C2016 1.414 . S
C2015 C2018 1.499 . S
C2016 H1996 0.950 . S
C2016 C2015 1.414 . S
C2016 C2017 1.374 . S
C2017 H1997 0.950 . S
C2017 C2013 1.385 . S
C2017 C2016 1.374 . S
C2018 C2015 1.499 . S
C2018 C2019 1.373 . S
C2018 C2020 1.389 . S
C2019 H1998 0.950 . S
C2019 C2018 1.373 . S
C2019 C2035 1.377 1_455 S
C2020 C2018 1.389 . S
C2020 C2021 1.524 . S
C2020 C2034 1.377 1_455 S
C2021 C2020 1.524 . S
C2021 C2022 1.397 . S
C2021 C2026 1.363 . S
C2022 H1999 0.950 . S
C2022 C2021 1.397 . S
C2022 C2023 1.334 . S
C2023 H2000 0.950 . S
C2023 C2022 1.334 . S
C2023 C2024 1.287 . S
C2024 C2023 1.287 . S
C2024 C2025 1.524 . S
C2024 H2043 0.913 . S
C2025 H2001 0.950 . S
C2025 C2024 1.524 . S
C2025 C2026 1.415 . S
C2026 H2002 0.950 . S
C2026 C2021 1.363 . S
C2026 C2025 1.415 . S
C2027 H2003 0.951 . S
C2027 C2028 1.366 . S
C2027 C2029 1.388 . S
C2028 C2027 1.366 . S
C2028 C2032 1.385 . S
C2029 H2004 0.951 . S
C2029 C2027 1.388 . S
C2029 C2030 1.366 . S
C2030 C2029 1.366 . S
C2030 C2031 1.414 . S
C2030 C2033 1.499 . S
C2031 H2005 0.950 . S
C2031 C2030 1.414 . S
C2031 C2032 1.374 . S
C2032 H2006 0.950 . S
C2032 C2028 1.385 . S
C2032 C2031 1.374 . S
C2033 C2030 1.499 . S
C2033 C2034 1.373 . S
C2033 C2035 1.389 . S
C2034 H2007 0.950 . S
C2034 C2020 1.377 1_655 S
C2034 C2033 1.373 . S
C2035 C2019 1.377 1_655 S
C2035 C2033 1.389 . S
C2035 C2036 1.524 . S
C2036 C2035 1.524 . S
C2036 C2037 1.397 . S
C2036 C2041 1.363 . S
C2037 H2008 0.950 . S
C2037 C2036 1.397 . S
C2037 C2038 1.334 . S
C2038 H2009 0.950 . S
C2038 C2037 1.334 . S
C2038 C2039 1.287 . S
C2039 C2038 1.287 . S
C2039 C2040 1.524 . S
C2039 H2042 0.999 . S
C2040 H2010 0.950 . S
C2040 C2039 1.524 . S
C2040 C2041 1.415 . S
C2041 H2011 0.950 . S
C2041 C2036 1.363 . S
C2041 C2040 1.415 . S
H2042 C2039 0.999 . S
H2043 C2024 0.913 . S
H2044 C2062 0.951 . S
H2045 C2064 0.951 . S
H2046 C2066 0.950 . S
H2047 C2067 0.950 . S
H2048 C2069 0.950 . S
H2049 C2072 0.950 . S
H2050 C2073 0.950 . S
H2051 C2075 0.950 . S
H2052 C2076 0.950 . S
H2053 C2077 0.951 . S
H2054 C2079 0.951 . S
H2055 C2081 0.950 . S
H2056 C2082 0.950 . S
H2057 C2084 0.950 . S
H2058 C2087 0.950 . S
H2059 C2088 0.950 . S
H2060 C2090 0.950 . S
H2061 C2091 0.950 . S
C2062 H2044 0.951 . S
C2062 C2063 1.366 . S
C2062 C2064 1.388 . S
C2063 C2062 1.366 . S
C2063 C2067 1.385 . S
C2064 H2045 0.951 . S
C2064 C2062 1.388 . S
C2064 C2065 1.366 . S
C2065 C2064 1.366 . S
C2065 C2066 1.414 . S
C2065 C2068 1.499 . S
C2066 H2046 0.950 . S
C2066 C2065 1.414 . S
C2066 C2067 1.374 . S
C2067 H2047 0.950 . S
C2067 C2063 1.385 . S
C2067 C2066 1.374 . S
C2068 C2065 1.499 . S
C2068 C2069 1.373 . S
C2068 C2070 1.389 . S
C2069 H2048 0.950 . S
C2069 C2068 1.373 . S
C2069 C2085 1.377 . S
C2070 C2068 1.389 . S
C2070 C2071 1.524 . S
C2070 C2084 1.377 . S
C2071 C2070 1.524 . S
C2071 C2072 1.397 . S
C2071 C2076 1.363 . S
C2072 H2049 0.950 . S
C2072 C2071 1.397 . S
C2072 C2073 1.334 . S
C2073 H2050 0.950 . S
C2073 C2072 1.334 . S
C2073 C2074 1.287 . S
C2074 C2073 1.287 . S
C2074 C2075 1.524 . S
C2074 H2093 0.913 . S
C2075 H2051 0.950 . S
C2075 C2074 1.524 . S
C2075 C2076 1.415 . S
C2076 H2052 0.950 . S
C2076 C2071 1.363 . S
C2076 C2075 1.415 . S
C2077 H2053 0.951 . S
C2077 C2078 1.366 . S
C2077 C2079 1.388 . S
C2078 C2077 1.366 . S
C2078 C2082 1.385 . S
C2079 H2054 0.951 . S
C2079 C2077 1.388 . S
C2079 C2080 1.366 . S
C2080 C2079 1.366 . S
C2080 C2081 1.414 . S
C2080 C2083 1.499 . S
C2081 H2055 0.950 . S
C2081 C2080 1.414 . S
C2081 C2082 1.374 . S
C2082 H2056 0.950 . S
C2082 C2078 1.385 . S
C2082 C2081 1.374 . S
C2083 C2080 1.499 . S
C2083 C2084 1.373 . S
C2083 C2085 1.389 . S
C2084 H2057 0.950 . S
C2084 C2070 1.377 . S
C2084 C2083 1.373 . S
C2085 C2069 1.377 . S
C2085 C2083 1.389 . S
C2085 C2086 1.524 . S
C2086 C2085 1.524 . S
C2086 C2087 1.397 . S
C2086 C2091 1.363 . S
C2087 H2058 0.950 . S
C2087 C2086 1.397 . S
C2087 C2088 1.334 . S
C2088 H2059 0.950 . S
C2088 C2087 1.334 . S
C2088 C2089 1.287 . S
C2089 C2088 1.287 . S
C2089 C2090 1.524 . S
C2089 H2092 0.999 . S
C2090 H2060 0.950 . S
C2090 C2089 1.524 . S
C2090 C2091 1.415 . S
C2091 H2061 0.950 . S
C2091 C2086 1.363 . S
C2091 C2090 1.415 . S
H2092 C2089 0.999 . S
H2093 C2074 0.913 . S
H2094 C2112 0.951 . S
H2095 C2114 0.951 . S
H2096 C2116 0.950 . S
H2097 C2117 0.950 . S
H2098 C2119 0.950 . S
H2099 C2122 0.950 . S
H2100 C2123 0.950 . S
H2101 C2125 0.950 . S
H2102 C2126 0.950 . S
H2103 C2127 0.951 . S
H2104 C2129 0.951 . S
H2105 C2131 0.950 . S
H2106 C2132 0.950 . S
H2107 C2134 0.950 . S
H2108 C2137 0.950 . S
H2109 C2138 0.950 . S
H2110 C2140 0.950 . S
H2111 C2141 0.950 . S
C2112 H2094 0.951 . S
C2112 C2113 1.366 . S
C2112 C2114 1.388 . S
C2113 C2112 1.366 . S
C2113 C2117 1.385 . S
C2114 H2095 0.951 . S
C2114 C2112 1.388 . S
C2114 C2115 1.366 . S
C2115 C2114 1.366 . S
C2115 C2116 1.414 . S
C2115 C2118 1.499 1_455 S
C2116 H2096 0.950 . S
C2116 C2115 1.414 . S
C2116 C2117 1.374 . S
C2117 H2097 0.950 . S
C2117 C2113 1.385 . S
C2117 C2116 1.374 . S
C2118 C2115 1.499 1_655 S
C2118 C2119 1.373 . S
C2118 C2120 1.389 . S
C2119 H2098 0.950 . S
C2119 C2118 1.373 . S
C2119 C2135 1.377 . S
C2120 C2118 1.389 . S
C2120 C2121 1.524 . S
C2120 C2134 1.377 . S
C2121 C2120 1.524 . S
C2121 C2122 1.397 . S
C2121 C2126 1.363 . S
C2122 H2099 0.950 . S
C2122 C2121 1.397 . S
C2122 C2123 1.334 . S
C2123 H2100 0.950 . S
C2123 C2122 1.334 . S
C2123 C2124 1.287 . S
C2124 C2123 1.287 . S
C2124 C2125 1.524 . S
C2124 H2143 0.913 . S
C2125 H2101 0.950 . S
C2125 C2124 1.524 . S
C2125 C2126 1.415 . S
C2126 H2102 0.950 . S
C2126 C2121 1.363 . S
C2126 C2125 1.415 . S
C2127 H2103 0.951 . S
C2127 C2128 1.366 . S
C2127 C2129 1.388 . S
C2128 C2127 1.366 . S
C2128 C2132 1.385 . S
C2129 H2104 0.951 . S
C2129 C2127 1.388 . S
C2129 C2130 1.366 . S
C2130 C2129 1.366 . S
C2130 C2131 1.414 . S
C2130 C2133 1.499 . S
C2131 H2105 0.950 . S
C2131 C2130 1.414 . S
C2131 C2132 1.374 . S
C2132 H2106 0.950 . S
C2132 C2128 1.385 . S
C2132 C2131 1.374 . S
C2133 C2130 1.499 . S
C2133 C2134 1.373 . S
C2133 C2135 1.389 . S
C2134 H2107 0.950 . S
C2134 C2120 1.377 . S
C2134 C2133 1.373 . S
C2135 C2119 1.377 . S
C2135 C2133 1.389 . S
C2135 C2136 1.524 . S
C2136 C2135 1.524 . S
C2136 C2137 1.397 . S
C2136 C2141 1.363 . S
C2137 H2108 0.950 . S
C2137 C2136 1.397 . S
C2137 C2138 1.334 . S
C2138 H2109 0.950 . S
C2138 C2137 1.334 . S
C2138 C2139 1.287 . S
C2139 C2138 1.287 . S
C2139 C2140 1.524 . S
C2139 H2142 0.999 . S
C2140 H2110 0.950 . S
C2140 C2139 1.524 . S
C2140 C2141 1.415 . S
C2141 H2111 0.950 . S
C2141 C2136 1.363 . S
C2141 C2140 1.415 . S
H2142 C2139 0.999 . S
H2143 C2124 0.913 . S
H2144 C2162 0.951 . S
H2145 C2164 0.951 . S
H2146 C2166 0.950 . S
H2147 C2167 0.950 . S
H2148 C2169 0.950 . S
H2149 C2172 0.950 . S
H2150 C2173 0.950 . S
H2151 C2175 0.950 . S
H2152 C2176 0.950 . S
H2153 C2177 0.951 . S
H2154 C2179 0.951 . S
H2155 C2181 0.950 . S
H2156 C2182 0.950 . S
H2157 C2184 0.950 . S
H2158 C2187 0.950 . S
H2159 C2188 0.950 . S
H2160 C2190 0.950 . S
H2161 C2191 0.950 . S
C2162 H2144 0.951 . S
C2162 C2163 1.366 . S
C2162 C2164 1.388 . S
C2163 C2162 1.366 . S
C2163 C2167 1.385 . S
C2164 H2145 0.951 . S
C2164 C2162 1.388 . S
C2164 C2165 1.366 . S
C2165 C2164 1.366 . S
C2165 C2166 1.414 . S
C2165 C2168 1.499 . S
C2166 H2146 0.950 . S
C2166 C2165 1.414 . S
C2166 C2167 1.374 . S
C2167 H2147 0.950 . S
C2167 C2163 1.385 . S
C2167 C2166 1.374 . S
C2168 C2165 1.499 . S
C2168 C2169 1.373 . S
C2168 C2170 1.389 . S
C2169 H2148 0.950 . S
C2169 C2168 1.373 . S
C2169 C2185 1.377 . S
C2170 C2168 1.389 . S
C2170 C2171 1.524 . S
C2170 C2184 1.377 . S
C2171 C2170 1.524 . S
C2171 C2172 1.397 . S
C2171 C2176 1.363 . S
C2172 H2149 0.950 . S
C2172 C2171 1.397 . S
C2172 C2173 1.334 . S
C2173 H2150 0.950 . S
C2173 C2172 1.334 . S
C2173 C2174 1.287 . S
C2174 C2173 1.287 . S
C2174 C2175 1.524 . S
C2174 H2193 0.913 . S
C2175 H2151 0.950 . S
C2175 C2174 1.524 . S
C2175 C2176 1.415 . S
C2176 H2152 0.950 . S
C2176 C2171 1.363 . S
C2176 C2175 1.415 . S
C2177 H2153 0.951 . S
C2177 C2178 1.366 . S
C2177 C2179 1.388 . S
C2178 C2177 1.366 . S
C2178 C2182 1.385 . S
C2179 H2154 0.951 . S
C2179 C2177 1.388 . S
C2179 C2180 1.366 . S
C2180 C2179 1.366 . S
C2180 C2181 1.414 . S
C2180 C2183 1.499 . S
C2181 H2155 0.950 . S
C2181 C2180 1.414 . S
C2181 C2182 1.374 . S
C2182 H2156 0.950 . S
C2182 C2178 1.385 . S
C2182 C2181 1.374 . S
C2183 C2180 1.499 . S
C2183 C2184 1.373 . S
C2183 C2185 1.389 . S
C2184 H2157 0.950 . S
C2184 C2170 1.377 . S
C2184 C2183 1.373 . S
C2185 C2169 1.377 . S
C2185 C2183 1.389 . S
C2185 C2186 1.524 . S
C2186 C2185 1.524 . S
C2186 C2187 1.397 . S
C2186 C2191 1.363 . S
C2187 H2158 0.950 . S
C2187 C2186 1.397 . S
C2187 C2188 1.334 . S
C2188 H2159 0.950 . S
C2188 C2187 1.334 . S
C2188 C2189 1.287 . S
C2189 C2188 1.287 . S
C2189 C2190 1.524 . S
C2189 H2192 0.999 . S
C2190 H2160 0.950 . S
C2190 C2189 1.524 . S
C2190 C2191 1.415 . S
C2191 H2161 0.950 . S
C2191 C2186 1.363 . S
C2191 C2190 1.415 . S
H2192 C2189 0.999 . S
H2193 C2174 0.913 . S
H2194 C2212 0.951 . S
H2195 C2214 0.951 . S
H2196 C2216 0.950 . S
H2197 C2217 0.950 . S
H2198 C2219 0.950 . S
H2199 C2222 0.950 . S
H2200 C2223 0.972 . S
H2201 C2225 0.950 . S
H2202 C2226 0.950 . S
H2203 C2227 0.951 . S
H2204 C2229 0.951 . S
H2205 C2231 0.950 . S
H2206 C2232 0.950 . S
H2207 C2234 0.950 . S
H2208 C2237 0.950 . S
H2209 C2238 0.950 . S
H2210 C2240 0.950 . S
H2211 C2241 0.950 . S
C2212 H2194 0.951 . S
C2212 C2213 1.366 . S
C2212 C2214 1.388 . S
C2213 C2212 1.366 . S
C2213 C2217 1.385 . S
C2214 H2195 0.951 . S
C2214 C2212 1.388 . S
C2214 C2215 1.366 . S
C2215 C2214 1.366 . S
C2215 C2216 1.414 . S
C2215 C2218 1.499 1_565 S
C2216 H2196 0.950 . S
C2216 C2215 1.414 . S
C2216 C2217 1.374 . S
C2217 H2197 0.950 . S
C2217 C2213 1.385 . S
C2217 C2216 1.374 . S
C2218 C2215 1.499 1_545 S
C2218 C2219 1.373 . S
C2218 C2220 1.389 . S
C2219 H2198 0.950 . S
C2219 C2218 1.373 . S
C2219 C2235 1.377 . S
C2220 C2218 1.389 . S
C2220 C2221 1.524 . S
C2220 C2234 1.377 . S
C2221 C2220 1.524 . S
C2221 C2222 1.397 . S
C2221 C2226 1.363 . S
C2222 H2199 0.950 . S
C2222 C2221 1.397 . S
C2222 C2223 1.328 1_545 S
C2223 H2200 0.972 . S
C2223 C2222 1.328 1_565 S
C2223 C2224 1.271 1_565 S
C2224 C2223 1.271 1_545 S
C2224 C2225 1.524 . S
C2224 H2243 0.913 1_545 S
C2225 H2201 0.950 . S
C2225 C2224 1.524 . S
C2225 C2226 1.415 . S
C2226 H2202 0.950 . S
C2226 C2221 1.363 . S
C2226 C2225 1.415 . S
C2227 H2203 0.951 . S
C2227 C2228 1.366 . S
C2227 C2229 1.388 . S
C2228 C2227 1.366 . S
C2228 C2232 1.385 . S
C2229 H2204 0.951 . S
C2229 C2227 1.388 . S
C2229 C2230 1.366 . S
C2230 C2229 1.366 . S
C2230 C2231 1.414 . S
C2230 C2233 1.499 . S
C2231 H2205 0.950 . S
C2231 C2230 1.414 . S
C2231 C2232 1.374 . S
C2232 H2206 0.950 . S
C2232 C2228 1.385 . S
C2232 C2231 1.374 . S
C2233 C2230 1.499 . S
C2233 C2234 1.373 . S
C2233 C2235 1.389 . S
C2234 H2207 0.950 . S
C2234 C2220 1.377 . S
C2234 C2233 1.373 . S
C2235 C2219 1.377 . S
C2235 C2233 1.389 . S
C2235 C2236 1.524 . S
C2236 C2235 1.524 . S
C2236 C2237 1.397 . S
C2236 C2241 1.363 . S
C2237 H2208 0.950 . S
C2237 C2236 1.397 . S
C2237 C2238 1.334 . S
C2238 H2209 0.950 . S
C2238 C2237 1.334 . S
C2238 C2239 1.287 . S
C2239 C2238 1.287 . S
C2239 C2240 1.524 . S
C2239 H2242 0.999 . S
C2240 H2210 0.950 . S
C2240 C2239 1.524 . S
C2240 C2241 1.415 . S
C2241 H2211 0.950 . S
C2241 C2236 1.363 . S
C2241 C2240 1.415 . S
H2242 C2239 0.999 . S
H2243 C2224 0.913 1_565 S
H2244 C2262 0.951 . S
H2245 C2264 0.951 . S
H2246 C2266 0.950 . S
H2247 C2267 0.950 . S
H2248 C2269 0.950 . S
H2249 C2272 0.950 . S
H2250 C2273 0.950 . S
H2251 C2275 0.950 . S
H2252 C2276 0.950 . S
H2253 C2277 0.951 . S
H2254 C2279 0.951 . S
H2255 C2281 0.950 . S
H2256 C2282 0.950 . S
H2257 C2284 0.950 . S
H2258 C2287 0.950 . S
H2259 C2288 0.950 . S
H2260 C2290 0.950 . S
H2261 C2291 0.950 . S
C2262 H2244 0.951 . S
C2262 C2263 1.366 . S
C2262 C2264 1.388 . S
C2263 C2262 1.366 . S
C2263 C2267 1.385 . S
C2264 H2245 0.951 . S
C2264 C2262 1.388 . S
C2264 C2265 1.366 . S
C2265 C2264 1.366 . S
C2265 C2266 1.414 . S
C2265 C2268 1.499 . S
C2266 H2246 0.950 . S
C2266 C2265 1.414 . S
C2266 C2267 1.374 . S
C2267 H2247 0.950 . S
C2267 C2263 1.385 . S
C2267 C2266 1.374 . S
C2268 C2265 1.499 . S
C2268 C2269 1.373 . S
C2268 C2270 1.389 . S
C2269 H2248 0.950 . S
C2269 C2268 1.373 . S
C2269 C2285 1.377 . S
C2270 C2268 1.389 . S
C2270 C2271 1.524 . S
C2270 C2284 1.377 . S
C2271 C2270 1.524 . S
C2271 C2272 1.397 . S
C2271 C2276 1.363 . S
C2272 H2249 0.950 . S
C2272 C2271 1.397 . S
C2272 C2273 1.334 . S
C2273 H2250 0.950 . S
C2273 C2272 1.334 . S
C2273 C2274 1.287 . S
C2274 C2273 1.287 . S
C2274 C2275 1.524 . S
C2274 H2293 0.913 . S
C2275 H2251 0.950 . S
C2275 C2274 1.524 . S
C2275 C2276 1.415 . S
C2276 H2252 0.950 . S
C2276 C2271 1.363 . S
C2276 C2275 1.415 . S
C2277 H2253 0.951 . S
C2277 C2278 1.366 . S
C2277 C2279 1.388 . S
C2278 C2277 1.366 . S
C2278 C2282 1.385 . S
C2279 H2254 0.951 . S
C2279 C2277 1.388 . S
C2279 C2280 1.366 . S
C2280 C2279 1.366 . S
C2280 C2281 1.414 . S
C2280 C2283 1.499 . S
C2281 H2255 0.950 . S
C2281 C2280 1.414 . S
C2281 C2282 1.374 . S
C2282 H2256 0.950 . S
C2282 C2278 1.385 . S
C2282 C2281 1.374 . S
C2283 C2280 1.499 . S
C2283 C2284 1.373 . S
C2283 C2285 1.389 . S
C2284 H2257 0.950 . S
C2284 C2270 1.377 . S
C2284 C2283 1.373 . S
C2285 C2269 1.377 . S
C2285 C2283 1.389 . S
C2285 C2286 1.524 . S
C2286 C2285 1.524 . S
C2286 C2287 1.397 . S
C2286 C2291 1.363 . S
C2287 H2258 0.950 . S
C2287 C2286 1.397 . S
C2287 C2288 1.334 . S
C2288 H2259 0.950 . S
C2288 C2287 1.334 . S
C2288 C2289 1.287 . S
C2289 C2288 1.287 . S
C2289 C2290 1.524 . S
C2289 H2292 0.999 . S
C2290 H2260 0.950 . S
C2290 C2289 1.524 . S
C2290 C2291 1.415 . S
C2291 H2261 0.950 . S
C2291 C2286 1.363 . S
C2291 C2290 1.415 . S
H2292 C2289 0.999 . S
H2293 C2274 0.913 . S
H2294 C2312 0.951 . S
H2295 C2314 0.951 . S
H2296 C2316 0.950 . S
H2297 C2317 0.950 . S
H2298 C2319 0.950 . S
H2299 C2322 0.950 . S
H2300 C2323 0.950 . S
H2301 C2325 0.950 . S
H2302 C2326 0.950 . S
H2303 C2327 0.951 . S
H2304 C2329 0.951 . S
H2305 C2331 0.950 . S
H2306 C2332 0.950 . S
H2307 C2334 0.950 . S
H2308 C2337 0.950 . S
H2309 C2338 0.950 . S
H2310 C2340 0.950 . S
H2311 C2341 0.950 . S
C2312 H2294 0.951 . S
C2312 C2313 1.366 . S
C2312 C2314 1.388 . S
C2313 C2312 1.366 . S
C2313 C2317 1.385 . S
C2314 H2295 0.951 . S
C2314 C2312 1.388 . S
C2314 C2315 1.366 . S
C2315 C2314 1.366 . S
C2315 C2316 1.414 . S
C2315 C2318 1.499 . S
C2316 H2296 0.950 . S
C2316 C2315 1.414 . S
C2316 C2317 1.374 . S
C2317 H2297 0.950 . S
C2317 C2313 1.385 . S
C2317 C2316 1.374 . S
C2318 C2315 1.499 . S
C2318 C2319 1.373 . S
C2318 C2320 1.389 . S
C2319 H2298 0.950 . S
C2319 C2318 1.373 . S
C2319 C2335 1.377 . S
C2320 C2318 1.389 . S
C2320 C2321 1.524 . S
C2320 C2334 1.377 . S
C2321 C2320 1.524 . S
C2321 C2322 1.397 . S
C2321 C2326 1.363 . S
C2322 H2299 0.950 . S
C2322 C2321 1.397 . S
C2322 C2323 1.334 . S
C2323 H2300 0.950 . S
C2323 C2322 1.334 . S
C2323 C2324 1.287 . S
C2324 C2323 1.287 . S
C2324 C2325 1.524 . S
C2324 H2343 0.913 . S
C2325 H2301 0.950 . S
C2325 C2324 1.524 . S
C2325 C2326 1.415 . S
C2326 H2302 0.950 . S
C2326 C2321 1.363 . S
C2326 C2325 1.415 . S
C2327 H2303 0.951 . S
C2327 C2328 1.366 . S
C2327 C2329 1.388 . S
C2328 C2327 1.366 . S
C2328 C2332 1.385 . S
C2329 H2304 0.951 . S
C2329 C2327 1.388 . S
C2329 C2330 1.366 . S
C2330 C2329 1.366 . S
C2330 C2331 1.414 . S
C2330 C2333 1.499 . S
C2331 H2305 0.950 . S
C2331 C2330 1.414 . S
C2331 C2332 1.374 . S
C2332 H2306 0.950 . S
C2332 C2328 1.385 . S
C2332 C2331 1.374 . S
C2333 C2330 1.499 . S
C2333 C2334 1.373 . S
C2333 C2335 1.389 . S
C2334 H2307 0.950 . S
C2334 C2320 1.377 . S
C2334 C2333 1.373 . S
C2335 C2319 1.377 . S
C2335 C2333 1.389 . S
C2335 C2336 1.524 . S
C2336 C2335 1.524 . S
C2336 C2337 1.397 . S
C2336 C2341 1.363 . S
C2337 H2308 0.950 . S
C2337 C2336 1.397 . S
C2337 C2338 1.334 . S
C2338 H2309 0.950 . S
C2338 C2337 1.334 . S
C2338 C2339 1.287 . S
C2339 C2338 1.287 . S
C2339 C2340 1.524 . S
C2339 H2342 0.999 . S
C2340 H2310 0.950 . S
C2340 C2339 1.524 . S
C2340 C2341 1.415 . S
C2341 H2311 0.950 . S
C2341 C2336 1.363 . S
C2341 C2340 1.415 . S
H2342 C2339 0.999 . S
H2343 C2324 0.913 . S
H2344 C2362 0.951 . S
H2345 C2364 0.951 . S
H2346 C2366 0.950 . S
H2347 C2367 0.950 . S
H2348 C2369 0.950 . S
H2349 C2372 0.950 . S
H2350 C2373 0.950 . S
H2351 C2375 0.950 . S
H2352 C2376 0.950 . S
H2353 C2377 0.951 . S
H2354 C2379 0.951 . S
H2355 C2381 0.950 . S
H2356 C2382 0.950 . S
H2357 C2384 0.950 . S
H2358 C2387 0.950 . S
H2359 C2388 0.950 . S
H2360 C2390 0.950 . S
H2361 C2391 0.950 . S
C2362 H2344 0.951 . S
C2362 C2363 1.366 . S
C2362 C2364 1.388 . S
C2363 C2362 1.366 . S
C2363 C2367 1.385 . S
C2364 H2345 0.951 . S
C2364 C2362 1.388 . S
C2364 C2365 1.366 . S
C2365 C2364 1.366 . S
C2365 C2366 1.414 . S
C2365 C2368 1.499 . S
C2366 H2346 0.950 . S
C2366 C2365 1.414 . S
C2366 C2367 1.374 . S
C2367 H2347 0.950 . S
C2367 C2363 1.385 . S
C2367 C2366 1.374 . S
C2368 C2365 1.499 . S
C2368 C2369 1.373 . S
C2368 C2370 1.389 . S
C2369 H2348 0.950 . S
C2369 C2368 1.373 . S
C2369 C2385 1.377 . S
C2370 C2368 1.389 . S
C2370 C2371 1.524 . S
C2370 C2384 1.377 . S
C2371 C2370 1.524 . S
C2371 C2372 1.397 . S
C2371 C2376 1.363 . S
C2372 H2349 0.950 . S
C2372 C2371 1.397 . S
C2372 C2373 1.334 . S
C2373 H2350 0.950 . S
C2373 C2372 1.334 . S
C2373 C2374 1.287 . S
C2374 C2373 1.287 . S
C2374 C2375 1.524 . S
C2374 H2393 0.913 . S
C2375 H2351 0.950 . S
C2375 C2374 1.524 . S
C2375 C2376 1.415 . S
C2376 H2352 0.950 . S
C2376 C2371 1.363 . S
C2376 C2375 1.415 . S
C2377 H2353 0.951 . S
C2377 C2378 1.366 . S
C2377 C2379 1.388 . S
C2378 C2377 1.366 . S
C2378 C2382 1.385 . S
C2379 H2354 0.951 . S
C2379 C2377 1.388 . S
C2379 C2380 1.366 . S
C2380 C2379 1.366 . S
C2380 C2381 1.414 . S
C2380 C2383 1.499 . S
C2381 H2355 0.950 . S
C2381 C2380 1.414 . S
C2381 C2382 1.374 . S
C2382 H2356 0.950 . S
C2382 C2378 1.385 . S
C2382 C2381 1.374 . S
C2383 C2380 1.499 . S
C2383 C2384 1.373 . S
C2383 C2385 1.389 . S
C2384 H2357 0.950 . S
C2384 C2370 1.377 . S
C2384 C2383 1.373 . S
C2385 C2369 1.377 . S
C2385 C2383 1.389 . S
C2385 C2386 1.524 . S
C2386 C2385 1.524 . S
C2386 C2387 1.397 . S
C2386 C2391 1.363 . S
C2387 H2358 0.950 . S
C2387 C2386 1.397 . S
C2387 C2388 1.334 . S
C2388 H2359 0.950 . S
C2388 C2387 1.334 . S
C2388 C2389 1.287 . S
C2389 C2388 1.287 . S
C2389 C2390 1.524 . S
C2389 H2392 0.999 . S
C2390 H2360 0.950 . S
C2390 C2389 1.524 . S
C2390 C2391 1.415 . S
C2391 H2361 0.950 . S
C2391 C2386 1.363 . S
C2391 C2390 1.415 . S
H2392 C2389 0.999 . S
H2393 C2374 0.913 . S
H2394 C2412 0.951 . S
H2395 C2414 0.951 . S
H2396 C2416 0.950 . S
H2397 C2417 0.950 . S
H2398 C2419 0.950 . S
H2399 C2422 0.950 . S
H2400 C2423 0.950 . S
H2401 C2425 0.950 . S
H2402 C2426 0.950 1_545 S
H2403 C2427 0.951 . S
H2404 C2429 0.951 . S
H2405 C2431 0.950 . S
H2406 C2432 0.950 1_545 S
H2407 C2434 0.950 . S
H2408 C2437 0.950 . S
H2409 C2438 0.950 . S
H2410 C2440 0.950 . S
H2411 C2441 0.950 . S
C2412 H2394 0.951 . S
C2412 C2413 1.366 . S
C2412 C2414 1.388 . S
C2413 C2412 1.366 . S
C2413 C2417 1.385 . S
C2414 H2395 0.951 . S
C2414 C2412 1.388 . S
C2414 C2415 1.366 . S
C2415 C2414 1.366 . S
C2415 C2416 1.414 . S
C2415 C2418 1.499 . S
C2416 H2396 0.950 . S
C2416 C2415 1.414 . S
C2416 C2417 1.374 . S
C2417 H2397 0.950 . S
C2417 C2413 1.385 . S
C2417 C2416 1.374 . S
C2418 C2415 1.499 . S
C2418 C2419 1.373 . S
C2418 C2420 1.389 . S
C2419 H2398 0.950 . S
C2419 C2418 1.373 . S
C2419 C2435 1.377 . S
C2420 C2418 1.389 . S
C2420 C2421 1.524 . S
C2420 C2434 1.377 . S
C2421 C2420 1.524 . S
C2421 C2422 1.397 . S
C2421 C2426 1.363 . S
C2422 H2399 0.950 . S
C2422 C2421 1.397 . S
C2422 C2423 1.334 . S
C2423 H2400 0.950 . S
C2423 C2422 1.334 . S
C2423 C2424 1.287 . S
C2424 C2423 1.287 . S
C2424 C2425 1.524 1_565 S
C2424 H2443 0.913 1_565 S
C2425 H2401 0.950 . S
C2425 C2424 1.524 1_545 S
C2425 C2426 1.415 1_545 S
C2426 H2402 0.950 1_565 S
C2426 C2421 1.363 . S
C2426 C2425 1.415 1_565 S
C2427 H2403 0.951 . S
C2427 C2428 1.366 . S
C2427 C2429 1.388 . S
C2428 C2427 1.366 . S
C2428 C2432 1.385 . S
C2429 H2404 0.951 . S
C2429 C2427 1.388 . S
C2429 C2430 1.366 . S
C2430 C2429 1.366 . S
C2430 C2431 1.414 . S
C2430 C2433 1.499 . S
C2431 H2405 0.950 . S
C2431 C2430 1.414 . S
C2431 C2432 1.374 . S
C2432 H2406 0.950 1_565 S
C2432 C2428 1.385 . S
C2432 C2431 1.374 . S
C2433 C2430 1.499 . S
C2433 C2434 1.373 . S
C2433 C2435 1.389 . S
C2434 H2407 0.950 . S
C2434 C2420 1.377 . S
C2434 C2433 1.373 . S
C2435 C2419 1.377 . S
C2435 C2433 1.389 . S
C2435 C2436 1.524 . S
C2436 C2435 1.524 . S
C2436 C2437 1.397 . S
C2436 C2441 1.363 . S
C2437 H2408 0.950 . S
C2437 C2436 1.397 . S
C2437 C2438 1.334 . S
C2438 H2409 0.950 . S
C2438 C2437 1.334 . S
C2438 C2439 1.287 . S
C2439 C2438 1.287 . S
C2439 C2440 1.524 . S
C2439 H2442 0.999 . S
C2440 H2410 0.950 . S
C2440 C2439 1.524 . S
C2440 C2441 1.415 . S
C2441 H2411 0.950 . S
C2441 C2436 1.363 . S
C2441 C2440 1.415 . S
H2442 C2439 0.999 . S
H2443 C2424 0.913 1_545 S
H2444 C2462 0.951 . S
H2445 C2464 0.951 . S
H2446 C2466 0.950 . S
H2447 C2467 0.950 . S
H2448 C2469 0.950 . S
H2449 C2472 0.950 . S
H2450 C2473 0.950 . S
H2451 C2475 0.950 . S
H2452 C2476 0.950 . S
H2453 C2477 0.951 . S
H2454 C2479 0.951 . S
H2455 C2481 0.950 . S
H2456 C2482 0.950 . S
H2457 C2484 0.950 . S
H2458 C2487 0.950 . S
H2459 C2488 0.950 1_655 S
H2460 C2490 0.950 . S
H2461 C2491 0.950 . S
C2462 H2444 0.951 . S
C2462 C2463 1.366 . S
C2462 C2464 1.388 . S
C2463 C2462 1.366 . S
C2463 C2467 1.385 . S
C2464 H2445 0.951 . S
C2464 C2462 1.388 . S
C2464 C2465 1.366 . S
C2465 C2464 1.366 . S
C2465 C2466 1.414 . S
C2465 C2468 1.499 . S
C2466 H2446 0.950 . S
C2466 C2465 1.414 . S
C2466 C2467 1.374 . S
C2467 H2447 0.950 . S
C2467 C2463 1.385 . S
C2467 C2466 1.374 . S
C2468 C2465 1.499 . S
C2468 C2469 1.373 . S
C2468 C2470 1.389 . S
C2469 H2448 0.950 . S
C2469 C2468 1.373 . S
C2469 C2485 1.377 . S
C2470 C2468 1.389 . S
C2470 C2471 1.524 . S
C2470 C2484 1.377 . S
C2471 C2470 1.524 . S
C2471 C2472 1.397 . S
C2471 C2476 1.363 . S
C2472 H2449 0.950 . S
C2472 C2471 1.397 . S
C2472 C2473 1.334 . S
C2473 H2450 0.950 . S
C2473 C2472 1.334 . S
C2473 C2474 1.287 . S
C2474 C2473 1.287 . S
C2474 C2475 1.524 . S
C2474 H2493 0.913 . S
C2475 H2451 0.950 . S
C2475 C2474 1.524 . S
C2475 C2476 1.415 . S
C2476 H2452 0.950 . S
C2476 C2471 1.363 . S
C2476 C2475 1.415 . S
C2477 H2453 0.951 . S
C2477 C2478 1.366 . S
C2477 C2479 1.388 . S
C2478 C2477 1.366 . S
C2478 C2482 1.385 . S
C2479 H2454 0.951 . S
C2479 C2477 1.388 . S
C2479 C2480 1.366 . S
C2480 C2479 1.366 . S
C2480 C2481 1.414 . S
C2480 C2483 1.499 . S
C2481 H2455 0.950 . S
C2481 C2480 1.414 . S
C2481 C2482 1.374 . S
C2482 H2456 0.950 . S
C2482 C2478 1.385 . S
C2482 C2481 1.374 . S
C2483 C2480 1.499 . S
C2483 C2484 1.373 . S
C2483 C2485 1.389 . S
C2484 H2457 0.950 . S
C2484 C2470 1.377 . S
C2484 C2483 1.373 . S
C2485 C2469 1.377 . S
C2485 C2483 1.389 . S
C2485 C2486 1.524 . S
C2486 C2485 1.524 . S
C2486 C2487 1.397 . S
C2486 C2491 1.363 . S
C2487 H2458 0.950 . S
C2487 C2486 1.397 . S
C2487 C2488 1.334 . S
C2488 H2459 0.950 1_455 S
C2488 C2487 1.334 . S
C2488 C2489 1.287 . S
C2489 C2488 1.287 . S
C2489 C2490 1.524 . S
C2489 H2492 0.999 . S
C2490 H2460 0.950 . S
C2490 C2489 1.524 . S
C2490 C2491 1.415 . S
C2491 H2461 0.950 . S
C2491 C2486 1.363 . S
C2491 C2490 1.415 . S
H2492 C2489 0.999 . S
H2493 C2474 0.913 . S
H2494 C2512 0.951 . S
H2495 C2514 0.951 . S
H2496 C2516 0.950 . S
H2497 C2517 0.950 . S
H2498 C2519 0.950 . S
H2499 C2522 0.950 . S
H2500 C2523 0.950 . S
H2501 C2525 0.950 . S
H2502 C2526 0.950 . S
H2503 C2527 0.951 . S
H2504 C2529 0.951 . S
H2505 C2531 0.950 . S
H2506 C2532 0.950 . S
H2507 C2534 0.950 . S
H2508 C2537 0.950 . S
H2509 C2538 0.950 . S
H2510 C2540 0.950 . S
H2511 C2541 0.950 . S
C2512 H2494 0.951 . S
C2512 C2513 1.366 . S
C2512 C2514 1.388 . S
C2513 C2512 1.366 . S
C2513 C2517 1.385 . S
C2514 H2495 0.951 . S
C2514 C2512 1.388 . S
C2514 C2515 1.366 . S
C2515 C2514 1.366 . S
C2515 C2516 1.414 . S
C2515 C2518 1.499 . S
C2516 H2496 0.950 . S
C2516 C2515 1.414 . S
C2516 C2517 1.374 . S
C2517 H2497 0.950 . S
C2517 C2513 1.385 . S
C2517 C2516 1.374 . S
C2518 C2515 1.499 . S
C2518 C2519 1.373 . S
C2518 C2520 1.389 . S
C2519 H2498 0.950 . S
C2519 C2518 1.373 . S
C2519 C2535 1.377 . S
C2520 C2518 1.389 . S
C2520 C2521 1.524 . S
C2520 C2534 1.377 . S
C2521 C2520 1.524 . S
C2521 C2522 1.397 . S
C2521 C2526 1.363 . S
C2522 H2499 0.950 . S
C2522 C2521 1.397 . S
C2522 C2523 1.334 . S
C2523 H2500 0.950 . S
C2523 C2522 1.334 . S
C2523 C2524 1.287 . S
C2524 C2523 1.287 . S
C2524 C2525 1.524 . S
C2524 H2543 0.913 . S
C2525 H2501 0.950 . S
C2525 C2524 1.524 . S
C2525 C2526 1.415 . S
C2526 H2502 0.950 . S
C2526 C2521 1.363 . S
C2526 C2525 1.415 . S
C2527 H2503 0.951 . S
C2527 C2528 1.366 . S
C2527 C2529 1.388 . S
C2528 C2527 1.366 . S
C2528 C2532 1.385 . S
C2529 H2504 0.951 . S
C2529 C2527 1.388 . S
C2529 C2530 1.366 . S
C2530 C2529 1.366 . S
C2530 C2531 1.414 . S
C2530 C2533 1.499 . S
C2531 H2505 0.950 . S
C2531 C2530 1.414 . S
C2531 C2532 1.374 . S
C2532 H2506 0.950 . S
C2532 C2528 1.385 . S
C2532 C2531 1.374 . S
C2533 C2530 1.499 . S
C2533 C2534 1.373 . S
C2533 C2535 1.389 . S
C2534 H2507 0.950 . S
C2534 C2520 1.377 . S
C2534 C2533 1.373 . S
C2535 C2519 1.377 . S
C2535 C2533 1.389 . S
C2535 C2536 1.524 . S
C2536 C2535 1.524 . S
C2536 C2537 1.397 . S
C2536 C2541 1.363 . S
C2537 H2508 0.950 . S
C2537 C2536 1.397 . S
C2537 C2538 1.334 . S
C2538 H2509 0.950 . S
C2538 C2537 1.334 . S
C2538 C2539 1.287 . S
C2539 C2538 1.287 . S
C2539 C2540 1.524 . S
C2539 H2542 0.999 . S
C2540 H2510 0.950 . S
C2540 C2539 1.524 . S
C2540 C2541 1.415 . S
C2541 H2511 0.950 . S
C2541 C2536 1.363 . S
C2541 C2540 1.415 . S
H2542 C2539 0.999 . S
H2543 C2524 0.913 . S
H2544 C2562 0.951 . S
H2545 C2564 0.951 . S
H2546 C2566 0.950 . S
H2547 C2567 0.950 . S
H2548 C2569 0.950 . S
H2549 C2572 0.950 . S
H2550 C2573 0.950 . S
H2551 C2575 0.950 . S
H2552 C2576 0.950 . S
H2553 C2577 0.951 1_455 S
H2554 C2579 0.951 . S
H2555 C2581 0.950 . S
H2556 C2582 0.950 . S
H2557 C2584 0.950 . S
H2558 C2587 0.950 . S
H2559 C2588 0.950 . S
H2560 C2590 0.950 . S
H2561 C2591 0.950 . S
C2562 H2544 0.951 . S
C2562 C2563 1.366 . S
C2562 C2564 1.388 . S
C2563 C2562 1.366 . S
C2563 C2567 1.385 . S
C2564 H2545 0.951 . S
C2564 C2562 1.388 . S
C2564 C2565 1.366 . S
C2565 C2564 1.366 . S
C2565 C2566 1.414 . S
C2565 C2568 1.499 . S
C2566 H2546 0.950 . S
C2566 C2565 1.414 . S
C2566 C2567 1.374 . S
C2567 H2547 0.950 . S
C2567 C2563 1.385 . S
C2567 C2566 1.374 . S
C2568 C2565 1.499 . S
C2568 C2569 1.373 . S
C2568 C2570 1.389 . S
C2569 H2548 0.950 . S
C2569 C2568 1.373 . S
C2569 C2585 1.377 . S
C2570 C2568 1.389 . S
C2570 C2571 1.524 . S
C2570 C2584 1.377 . S
C2571 C2570 1.524 . S
C2571 C2572 1.397 . S
C2571 C2576 1.363 . S
C2572 H2549 0.950 . S
C2572 C2571 1.397 . S
C2572 C2573 1.334 . S
C2573 H2550 0.950 . S
C2573 C2572 1.334 . S
C2573 C2574 1.287 . S
C2574 C2573 1.287 . S
C2574 C2575 1.524 . S
C2574 H2593 0.913 . S
C2575 H2551 0.950 . S
C2575 C2574 1.524 . S
C2575 C2576 1.415 . S
C2576 H2552 0.950 . S
C2576 C2571 1.363 . S
C2576 C2575 1.415 . S
C2577 H2553 0.951 1_655 S
C2577 C2578 1.366 . S
C2577 C2579 1.388 . S
C2578 C2577 1.366 . S
C2578 C2582 1.385 . S
C2579 H2554 0.951 . S
C2579 C2577 1.388 . S
C2579 C2580 1.366 . S
C2580 C2579 1.366 . S
C2580 C2581 1.414 . S
C2580 C2583 1.499 . S
C2581 H2555 0.950 . S
C2581 C2580 1.414 . S
C2581 C2582 1.374 . S
C2582 H2556 0.950 . S
C2582 C2578 1.385 . S
C2582 C2581 1.374 . S
C2583 C2580 1.499 . S
C2583 C2584 1.373 . S
C2583 C2585 1.389 . S
C2584 H2557 0.950 . S
C2584 C2570 1.377 . S
C2584 C2583 1.373 . S
C2585 C2569 1.377 . S
C2585 C2583 1.389 . S
C2585 C2586 1.524 . S
C2586 C2585 1.524 . S
C2586 C2587 1.397 . S
C2586 C2591 1.363 1_655 S
C2587 H2558 0.950 . S
C2587 C2586 1.397 . S
C2587 C2588 1.334 . S
C2588 H2559 0.950 . S
C2588 C2587 1.334 . S
C2588 C2589 1.287 1_655 S
C2589 C2588 1.287 1_455 S
C2589 C2590 1.524 . S
C2589 H2592 0.999 . S
C2590 H2560 0.950 . S
C2590 C2589 1.524 . S
C2590 C2591 1.415 . S
C2591 H2561 0.950 . S
C2591 C2586 1.363 1_455 S
C2591 C2590 1.415 . S
H2592 C2589 0.999 . S
H2593 C2574 0.913 . S
H2594 C2612 0.951 . S
H2595 C2614 0.951 . S
H2596 C2616 0.950 . S
H2597 C2617 0.950 . S
H2598 C2619 0.950 . S
H2599 C2622 0.950 . S
H2600 C2623 0.950 . S
H2601 C2625 0.950 . S
H2602 C2626 0.950 . S
H2603 C2627 0.951 . S
H2604 C2629 0.951 . S
H2605 C2631 0.950 . S
H2606 C2632 0.950 . S
H2607 C2634 0.950 . S
H2608 C2637 0.950 . S
H2609 C2638 0.950 . S
H2610 C2640 0.950 . S
H2611 C2641 0.950 . S
C2612 H2594 0.951 . S
C2612 C2613 1.366 . S
C2612 C2614 1.388 . S
C2613 C2612 1.366 . S
C2613 C2617 1.385 . S
C2614 H2595 0.951 . S
C2614 C2612 1.388 . S
C2614 C2615 1.366 . S
C2615 C2614 1.366 . S
C2615 C2616 1.414 . S
C2615 C2618 1.499 . S
C2616 H2596 0.950 . S
C2616 C2615 1.414 . S
C2616 C2617 1.374 . S
C2617 H2597 0.950 . S
C2617 C2613 1.385 . S
C2617 C2616 1.374 . S
C2618 C2615 1.499 . S
C2618 C2619 1.373 . S
C2618 C2620 1.389 . S
C2619 H2598 0.950 . S
C2619 C2618 1.373 . S
C2619 C2635 1.377 . S
C2620 C2618 1.389 . S
C2620 C2621 1.524 . S
C2620 C2634 1.377 . S
C2621 C2620 1.524 . S
C2621 C2622 1.397 . S
C2621 C2626 1.363 . S
C2622 H2599 0.950 . S
C2622 C2621 1.397 . S
C2622 C2623 1.334 . S
C2623 H2600 0.950 . S
C2623 C2622 1.334 . S
C2623 C2624 1.287 . S
C2624 C2623 1.287 . S
C2624 C2625 1.524 . S
C2624 H2643 0.913 . S
C2625 H2601 0.950 . S
C2625 C2624 1.524 . S
C2625 C2626 1.415 . S
C2626 H2602 0.950 . S
C2626 C2621 1.363 . S
C2626 C2625 1.415 . S
C2627 H2603 0.951 . S
C2627 C2628 1.366 . S
C2627 C2629 1.388 . S
C2628 C2627 1.366 . S
C2628 C2632 1.385 . S
C2629 H2604 0.951 . S
C2629 C2627 1.388 . S
C2629 C2630 1.366 . S
C2630 C2629 1.366 . S
C2630 C2631 1.414 . S
C2630 C2633 1.499 . S
C2631 H2605 0.950 . S
C2631 C2630 1.414 . S
C2631 C2632 1.374 . S
C2632 H2606 0.950 . S
C2632 C2628 1.385 . S
C2632 C2631 1.374 . S
C2633 C2630 1.499 . S
C2633 C2634 1.373 . S
C2633 C2635 1.389 . S
C2634 H2607 0.950 . S
C2634 C2620 1.377 . S
C2634 C2633 1.373 . S
C2635 C2619 1.377 . S
C2635 C2633 1.389 . S
C2635 C2636 1.524 . S
C2636 C2635 1.524 . S
C2636 C2637 1.397 . S
C2636 C2641 1.363 . S
C2637 H2608 0.950 . S
C2637 C2636 1.397 . S
C2637 C2638 1.334 . S
C2638 H2609 0.950 . S
C2638 C2637 1.334 . S
C2638 C2639 1.287 . S
C2639 C2638 1.287 . S
C2639 C2640 1.524 . S
C2639 H2642 0.999 . S
C2640 H2610 0.950 . S
C2640 C2639 1.524 . S
C2640 C2641 1.415 . S
C2641 H2611 0.950 . S
C2641 C2636 1.363 . S
C2641 C2640 1.415 . S
H2642 C2639 0.999 . S
H2643 C2624 0.913 . S
H2644 C2662 0.951 . S
H2645 C2664 0.951 . S
H2646 C2666 0.950 . S
H2647 C2667 0.950 . S
H2648 C2669 0.950 . S
H2649 C2672 0.950 . S
H2650 C2673 0.950 . S
H2651 C2675 0.950 . S
H2652 C2676 0.950 . S
H2653 C2677 0.951 . S
H2654 C2679 0.951 . S
H2655 C2681 0.950 . S
H2656 C2682 0.950 . S
H2657 C2684 0.950 . S
H2658 C2687 0.950 . S
H2659 C2688 0.944 . S
H2660 C2690 0.950 . S
H2661 C2691 0.963 . S
C2662 H2644 0.951 . S
C2662 C2663 1.366 . S
C2662 C2664 1.388 . S
C2663 C2662 1.366 . S
C2663 C2667 1.385 . S
C2664 H2645 0.951 . S
C2664 C2662 1.388 . S
C2664 C2665 1.366 . S
C2665 C2664 1.366 . S
C2665 C2666 1.414 . S
C2665 C2668 1.499 . S
C2666 H2646 0.950 . S
C2666 C2665 1.414 . S
C2666 C2667 1.374 . S
C2667 H2647 0.950 . S
C2667 C2663 1.385 . S
C2667 C2666 1.374 . S
C2668 C2665 1.499 . S
C2668 C2669 1.373 . S
C2668 C2670 1.389 . S
C2669 H2648 0.950 . S
C2669 C2668 1.373 . S
C2669 C2685 1.377 . S
C2670 C2668 1.389 . S
C2670 C2671 1.524 . S
C2670 C2684 1.377 . S
C2671 C2670 1.524 . S
C2671 C2672 1.397 . S
C2671 C2676 1.363 . S
C2672 H2649 0.950 . S
C2672 C2671 1.397 . S
C2672 C2673 1.334 . S
C2673 H2650 0.950 . S
C2673 C2672 1.334 . S
C2673 C2674 1.287 . S
C2674 C2673 1.287 . S
C2674 C2675 1.524 . S
C2674 H2693 0.913 . S
C2675 H2651 0.950 . S
C2675 C2674 1.524 . S
C2675 C2676 1.415 . S
C2676 H2652 0.950 . S
C2676 C2671 1.363 . S
C2676 C2675 1.415 . S
C2677 H2653 0.951 . S
C2677 C2678 1.366 . S
C2677 C2679 1.388 . S
C2678 C2677 1.366 . S
C2678 C2682 1.385 . S
C2679 H2654 0.951 . S
C2679 C2677 1.388 . S
C2679 C2680 1.366 . S
C2680 C2679 1.366 . S
C2680 C2681 1.414 . S
C2680 C2683 1.499 . S
C2681 H2655 0.950 . S
C2681 C2680 1.414 . S
C2681 C2682 1.374 . S
C2682 H2656 0.950 . S
C2682 C2678 1.385 . S
C2682 C2681 1.374 . S
C2683 C2680 1.499 . S
C2683 C2684 1.373 . S
C2683 C2685 1.389 . S
C2684 H2657 0.950 . S
C2684 C2670 1.377 . S
C2684 C2683 1.373 . S
C2685 C2669 1.377 . S
C2685 C2683 1.389 . S
C2685 C2686 1.524 . S
C2686 C2685 1.524 . S
C2686 C2687 1.397 . S
C2686 C2691 1.331 1_545 S
C2687 H2658 0.950 . S
C2687 C2686 1.397 . S
C2687 C2688 1.350 . S
C2688 H2659 0.944 . S
C2688 C2687 1.350 . S
C2688 C2689 1.257 1_545 S
C2689 C2688 1.257 1_565 S
C2689 C2690 1.524 . S
C2689 H2692 0.999 . S
C2690 H2660 0.950 . S
C2690 C2689 1.524 . S
C2690 C2691 1.434 . S
C2691 H2661 0.963 . S
C2691 C2686 1.331 1_565 S
C2691 C2690 1.434 . S
H2692 C2689 0.999 . S
H2693 C2674 0.913 . S
H2694 C2712 0.951 . S
H2695 C2714 0.951 . S
H2696 C2716 0.950 . S
H2697 C2717 0.950 . S
H2698 C2719 0.950 . S
H2699 C2722 0.950 . S
H2700 C2723 0.950 . S
H2701 C2725 0.950 . S
H2702 C2726 0.950 . S
H2703 C2727 0.951 . S
H2704 C2729 0.951 . S
H2705 C2731 0.950 . S
H2706 C2732 0.950 . S
H2707 C2734 0.950 . S
H2708 C2737 0.950 . S
H2709 C2738 0.950 . S
H2710 C2740 0.950 . S
H2711 C2741 0.950 . S
C2712 H2694 0.951 . S
C2712 C2713 1.366 . S
C2712 C2714 1.388 . S
C2713 C2712 1.366 . S
C2713 C2717 1.385 . S
C2714 H2695 0.951 . S
C2714 C2712 1.388 . S
C2714 C2715 1.366 . S
C2715 C2714 1.366 . S
C2715 C2716 1.414 . S
C2715 C2718 1.499 . S
C2716 H2696 0.950 . S
C2716 C2715 1.414 . S
C2716 C2717 1.374 . S
C2717 H2697 0.950 . S
C2717 C2713 1.385 . S
C2717 C2716 1.374 . S
C2718 C2715 1.499 . S
C2718 C2719 1.373 . S
C2718 C2720 1.389 . S
C2719 H2698 0.950 . S
C2719 C2718 1.373 . S
C2719 C2735 1.377 . S
C2720 C2718 1.389 . S
C2720 C2721 1.524 . S
C2720 C2734 1.377 . S
C2721 C2720 1.524 . S
C2721 C2722 1.397 . S
C2721 C2726 1.363 . S
C2722 H2699 0.950 . S
C2722 C2721 1.397 . S
C2722 C2723 1.334 . S
C2723 H2700 0.950 . S
C2723 C2722 1.334 . S
C2723 C2724 1.287 . S
C2724 C2723 1.287 . S
C2724 C2725 1.524 . S
C2724 H2743 0.913 . S
C2725 H2701 0.950 . S
C2725 C2724 1.524 . S
C2725 C2726 1.415 . S
C2726 H2702 0.950 . S
C2726 C2721 1.363 . S
C2726 C2725 1.415 . S
C2727 H2703 0.951 . S
C2727 C2728 1.366 . S
C2727 C2729 1.388 . S
C2728 C2727 1.366 . S
C2728 C2732 1.385 . S
C2729 H2704 0.951 . S
C2729 C2727 1.388 . S
C2729 C2730 1.366 . S
C2730 C2729 1.366 . S
C2730 C2731 1.414 . S
C2730 C2733 1.499 . S
C2731 H2705 0.950 . S
C2731 C2730 1.414 . S
C2731 C2732 1.374 . S
C2732 H2706 0.950 . S
C2732 C2728 1.385 . S
C2732 C2731 1.374 . S
C2733 C2730 1.499 . S
C2733 C2734 1.373 . S
C2733 C2735 1.389 . S
C2734 H2707 0.950 . S
C2734 C2720 1.377 . S
C2734 C2733 1.373 . S
C2735 C2719 1.377 . S
C2735 C2733 1.389 . S
C2735 C2736 1.524 . S
C2736 C2735 1.524 . S
C2736 C2737 1.397 . S
C2736 C2741 1.363 . S
C2737 H2708 0.950 . S
C2737 C2736 1.397 . S
C2737 C2738 1.334 . S
C2738 H2709 0.950 . S
C2738 C2737 1.334 . S
C2738 C2739 1.287 . S
C2739 C2738 1.287 . S
C2739 C2740 1.524 . S
C2739 H2742 0.999 . S
C2740 H2710 0.950 . S
C2740 C2739 1.524 . S
C2740 C2741 1.415 . S
C2741 H2711 0.950 . S
C2741 C2736 1.363 . S
C2741 C2740 1.415 . S
H2742 C2739 0.999 . S
H2743 C2724 0.913 . S
H2744 C2762 0.951 . S
H2745 C2764 0.951 . S
H2746 C2766 0.950 . S
H2747 C2767 0.950 . S
H2748 C2769 0.950 . S
H2749 C2772 0.950 . S
H2750 C2773 0.950 . S
H2751 C2775 0.950 . S
H2752 C2776 0.950 . S
H2753 C2777 0.951 . S
H2754 C2779 0.951 . S
H2755 C2781 0.950 . S
H2756 C2782 0.950 . S
H2757 C2784 0.950 . S
H2758 C2787 0.950 . S
H2759 C2788 0.950 . S
H2760 C2790 0.950 . S
H2761 C2791 0.950 . S
C2762 H2744 0.951 . S
C2762 C2763 1.366 . S
C2762 C2764 1.388 . S
C2763 C2762 1.366 . S
C2763 C2767 1.385 . S
C2764 H2745 0.951 . S
C2764 C2762 1.388 . S
C2764 C2765 1.366 . S
C2765 C2764 1.366 . S
C2765 C2766 1.414 . S
C2765 C2768 1.499 . S
C2766 H2746 0.950 . S
C2766 C2765 1.414 . S
C2766 C2767 1.374 . S
C2767 H2747 0.950 . S
C2767 C2763 1.385 . S
C2767 C2766 1.374 . S
C2768 C2765 1.499 . S
C2768 C2769 1.373 . S
C2768 C2770 1.389 . S
C2769 H2748 0.950 . S
C2769 C2768 1.373 . S
C2769 C2785 1.377 . S
C2770 C2768 1.389 . S
C2770 C2771 1.524 . S
C2770 C2784 1.377 . S
C2771 C2770 1.524 . S
C2771 C2772 1.397 . S
C2771 C2776 1.363 . S
C2772 H2749 0.950 . S
C2772 C2771 1.397 . S
C2772 C2773 1.334 . S
C2773 H2750 0.950 . S
C2773 C2772 1.334 . S
C2773 C2774 1.287 . S
C2774 C2773 1.287 . S
C2774 C2775 1.524 . S
C2774 H2793 0.913 . S
C2775 H2751 0.950 . S
C2775 C2774 1.524 . S
C2775 C2776 1.415 . S
C2776 H2752 0.950 . S
C2776 C2771 1.363 . S
C2776 C2775 1.415 . S
C2777 H2753 0.951 . S
C2777 C2778 1.366 . S
C2777 C2779 1.388 . S
C2778 C2777 1.366 . S
C2778 C2782 1.385 . S
C2779 H2754 0.951 . S
C2779 C2777 1.388 . S
C2779 C2780 1.366 . S
C2780 C2779 1.366 . S
C2780 C2781 1.414 . S
C2780 C2783 1.499 . S
C2781 H2755 0.950 . S
C2781 C2780 1.414 . S
C2781 C2782 1.374 . S
C2782 H2756 0.950 . S
C2782 C2778 1.385 . S
C2782 C2781 1.374 . S
C2783 C2780 1.499 . S
C2783 C2784 1.373 . S
C2783 C2785 1.389 . S
C2784 H2757 0.950 . S
C2784 C2770 1.377 . S
C2784 C2783 1.373 . S
C2785 C2769 1.377 . S
C2785 C2783 1.389 . S
C2785 C2786 1.524 . S
C2786 C2785 1.524 . S
C2786 C2787 1.397 . S
C2786 C2791 1.363 . S
C2787 H2758 0.950 . S
C2787 C2786 1.397 . S
C2787 C2788 1.334 . S
C2788 H2759 0.950 . S
C2788 C2787 1.334 . S
C2788 C2789 1.287 . S
C2789 C2788 1.287 . S
C2789 C2790 1.524 . S
C2789 H2792 0.999 . S
C2790 H2760 0.950 . S
C2790 C2789 1.524 . S
C2790 C2791 1.415 . S
C2791 H2761 0.950 . S
C2791 C2786 1.363 . S
C2791 C2790 1.415 . S
H2792 C2789 0.999 . S
H2793 C2774 0.913 . S
H2794 C2812 0.951 . S
H2795 C2814 0.951 . S
H2796 C2816 0.950 . S
H2797 C2817 0.950 . S
H2798 C2819 0.950 . S
H2799 C2822 0.950 . S
H2800 C2823 0.950 . S
H2801 C2825 0.950 . S
H2802 C2826 0.950 . S
H2803 C2827 0.951 . S
H2804 C2829 0.951 . S
H2805 C2831 0.950 . S
H2806 C2832 0.950 . S
H2807 C2834 0.950 . S
H2808 C2837 0.950 . S
H2809 C2838 0.950 . S
H2810 C2840 0.950 . S
H2811 C2841 0.950 . S
C2812 H2794 0.951 . S
C2812 C2813 1.366 . S
C2812 C2814 1.388 . S
C2813 C2812 1.366 . S
C2813 C2817 1.385 . S
C2814 H2795 0.951 . S
C2814 C2812 1.388 . S
C2814 C2815 1.366 . S
C2815 C2814 1.366 . S
C2815 C2816 1.414 . S
C2815 C2818 1.499 . S
C2816 H2796 0.950 . S
C2816 C2815 1.414 . S
C2816 C2817 1.374 . S
C2817 H2797 0.950 . S
C2817 C2813 1.385 . S
C2817 C2816 1.374 . S
C2818 C2815 1.499 . S
C2818 C2819 1.373 . S
C2818 C2820 1.389 . S
C2819 H2798 0.950 . S
C2819 C2818 1.373 . S
C2819 C2835 1.377 . S
C2820 C2818 1.389 . S
C2820 C2821 1.524 . S
C2820 C2834 1.377 . S
C2821 C2820 1.524 . S
C2821 C2822 1.397 . S
C2821 C2826 1.363 . S
C2822 H2799 0.950 . S
C2822 C2821 1.397 . S
C2822 C2823 1.334 . S
C2823 H2800 0.950 . S
C2823 C2822 1.334 . S
C2823 C2824 1.287 . S
C2824 C2823 1.287 . S
C2824 C2825 1.524 . S
C2824 H2843 0.913 . S
C2825 H2801 0.950 . S
C2825 C2824 1.524 . S
C2825 C2826 1.415 . S
C2826 H2802 0.950 . S
C2826 C2821 1.363 . S
C2826 C2825 1.415 . S
C2827 H2803 0.951 . S
C2827 C2828 1.366 . S
C2827 C2829 1.388 . S
C2828 C2827 1.366 . S
C2828 C2832 1.385 . S
C2829 H2804 0.951 . S
C2829 C2827 1.388 . S
C2829 C2830 1.366 . S
C2830 C2829 1.366 . S
C2830 C2831 1.414 . S
C2830 C2833 1.499 . S
C2831 H2805 0.950 . S
C2831 C2830 1.414 . S
C2831 C2832 1.374 . S
C2832 H2806 0.950 . S
C2832 C2828 1.385 . S
C2832 C2831 1.374 . S
C2833 C2830 1.499 . S
C2833 C2834 1.373 . S
C2833 C2835 1.389 . S
C2834 H2807 0.950 . S
C2834 C2820 1.377 . S
C2834 C2833 1.373 . S
C2835 C2819 1.377 . S
C2835 C2833 1.389 . S
C2835 C2836 1.524 . S
C2836 C2835 1.524 . S
C2836 C2837 1.397 . S
C2836 C2841 1.363 . S
C2837 H2808 0.950 . S
C2837 C2836 1.397 . S
C2837 C2838 1.334 . S
C2838 H2809 0.950 . S
C2838 C2837 1.334 . S
C2838 C2839 1.287 . S
C2839 C2838 1.287 . S
C2839 C2840 1.524 . S
C2839 H2842 0.999 . S
C2840 H2810 0.950 . S
C2840 C2839 1.524 . S
C2840 C2841 1.415 . S
C2841 H2811 0.950 . S
C2841 C2836 1.363 . S
C2841 C2840 1.415 . S
H2842 C2839 0.999 . S
H2843 C2824 0.913 . S
H2844 C2862 0.951 . S
H2845 C2864 0.951 . S
H2846 C2866 0.950 . S
H2847 C2867 0.950 . S
H2848 C2869 0.950 . S
H2849 C2872 0.950 . S
H2850 C2873 0.950 . S
H2851 C2875 0.950 . S
H2852 C2876 0.950 . S
H2853 C2877 0.951 . S
H2854 C2879 0.951 . S
H2855 C2881 0.950 . S
H2856 C2882 0.950 . S
H2857 C2884 0.950 . S
H2858 C2887 0.950 . S
H2859 C2888 0.950 . S
H2860 C2890 0.950 . S
H2861 C2891 0.950 . S
C2862 H2844 0.951 . S
C2862 C2863 1.366 . S
C2862 C2864 1.388 . S
C2863 C2862 1.366 . S
C2863 C2867 1.385 . S
C2864 H2845 0.951 . S
C2864 C2862 1.388 . S
C2864 C2865 1.366 . S
C2865 C2864 1.366 . S
C2865 C2866 1.414 . S
C2865 C2868 1.499 . S
C2866 H2846 0.950 . S
C2866 C2865 1.414 . S
C2866 C2867 1.374 . S
C2867 H2847 0.950 . S
C2867 C2863 1.385 . S
C2867 C2866 1.374 . S
C2868 C2865 1.499 . S
C2868 C2869 1.373 . S
C2868 C2870 1.389 . S
C2869 H2848 0.950 . S
C2869 C2868 1.373 . S
C2869 C2885 1.377 . S
C2870 C2868 1.389 . S
C2870 C2871 1.524 . S
C2870 C2884 1.377 . S
C2871 C2870 1.524 . S
C2871 C2872 1.397 . S
C2871 C2876 1.363 . S
C2872 H2849 0.950 . S
C2872 C2871 1.397 . S
C2872 C2873 1.334 . S
C2873 H2850 0.950 . S
C2873 C2872 1.334 . S
C2873 C2874 1.287 . S
C2874 C2873 1.287 . S
C2874 C2875 1.524 . S
C2874 H2893 0.913 . S
C2875 H2851 0.950 . S
C2875 C2874 1.524 . S
C2875 C2876 1.415 . S
C2876 H2852 0.950 . S
C2876 C2871 1.363 . S
C2876 C2875 1.415 . S
C2877 H2853 0.951 . S
C2877 C2878 1.366 . S
C2877 C2879 1.388 . S
C2878 C2877 1.366 . S
C2878 C2882 1.385 . S
C2879 H2854 0.951 . S
C2879 C2877 1.388 . S
C2879 C2880 1.366 . S
C2880 C2879 1.366 . S
C2880 C2881 1.414 . S
C2880 C2883 1.499 . S
C2881 H2855 0.950 . S
C2881 C2880 1.414 . S
C2881 C2882 1.374 . S
C2882 H2856 0.950 . S
C2882 C2878 1.385 . S
C2882 C2881 1.374 . S
C2883 C2880 1.499 . S
C2883 C2884 1.373 . S
C2883 C2885 1.389 . S
C2884 H2857 0.950 . S
C2884 C2870 1.377 . S
C2884 C2883 1.373 . S
C2885 C2869 1.377 . S
C2885 C2883 1.389 . S
C2885 C2886 1.524 . S
C2886 C2885 1.524 . S
C2886 C2887 1.397 . S
C2886 C2891 1.363 . S
C2887 H2858 0.950 . S
C2887 C2886 1.397 . S
C2887 C2888 1.334 . S
C2888 H2859 0.950 . S
C2888 C2887 1.334 . S
C2888 C2889 1.287 . S
C2889 C2888 1.287 . S
C2889 C2890 1.524 . S
C2889 H2892 0.999 . S
C2890 H2860 0.950 . S
C2890 C2889 1.524 . S
C2890 C2891 1.415 . S
C2891 H2861 0.950 . S
C2891 C2886 1.363 . S
C2891 C2890 1.415 . S
H2892 C2889 0.999 . S
H2893 C2874 0.913 . S
H2894 C2912 0.951 . S
H2895 C2914 0.951 . S
H2896 C2916 0.950 . S
H2897 C2917 0.950 . S
H2898 C2919 0.950 . S
H2899 C2922 0.950 . S
H2900 C2923 0.950 . S
H2901 C2925 0.950 . S
H2902 C2926 0.950 . S
H2903 C2927 0.951 . S
H2904 C2929 0.951 . S
H2905 C2931 0.950 . S
H2906 C2932 0.950 . S
H2907 C2934 0.950 . S
H2908 C2937 0.950 . S
H2909 C2938 0.950 . S
H2910 C2940 0.950 . S
H2911 C2941 0.950 . S
C2912 H2894 0.951 . S
C2912 C2913 1.366 . S
C2912 C2914 1.388 . S
C2913 C2912 1.366 . S
C2913 C2917 1.385 . S
C2914 H2895 0.951 . S
C2914 C2912 1.388 . S
C2914 C2915 1.366 . S
C2915 C2914 1.366 . S
C2915 C2916 1.414 . S
C2915 C2918 1.499 . S
C2916 H2896 0.950 . S
C2916 C2915 1.414 . S
C2916 C2917 1.374 . S
C2917 H2897 0.950 . S
C2917 C2913 1.385 . S
C2917 C2916 1.374 . S
C2918 C2915 1.499 . S
C2918 C2919 1.373 . S
C2918 C2920 1.389 . S
C2919 H2898 0.950 . S
C2919 C2918 1.373 . S
C2919 C2935 1.377 . S
C2920 C2918 1.389 . S
C2920 C2921 1.524 . S
C2920 C2934 1.377 . S
C2921 C2920 1.524 . S
C2921 C2922 1.397 . S
C2921 C2926 1.363 . S
C2922 H2899 0.950 . S
C2922 C2921 1.397 . S
C2922 C2923 1.334 . S
C2923 H2900 0.950 . S
C2923 C2922 1.334 . S
C2923 C2924 1.287 . S
C2924 C2923 1.287 . S
C2924 C2925 1.524 . S
C2924 H2943 0.913 . S
C2925 H2901 0.950 . S
C2925 C2924 1.524 . S
C2925 C2926 1.415 . S
C2926 H2902 0.950 . S
C2926 C2921 1.363 . S
C2926 C2925 1.415 . S
C2927 H2903 0.951 . S
C2927 C2928 1.366 . S
C2927 C2929 1.388 . S
C2928 C2927 1.366 . S
C2928 C2932 1.385 . S
C2929 H2904 0.951 . S
C2929 C2927 1.388 . S
C2929 C2930 1.366 . S
C2930 C2929 1.366 . S
C2930 C2931 1.414 . S
C2930 C2933 1.499 . S
C2931 H2905 0.950 . S
C2931 C2930 1.414 . S
C2931 C2932 1.374 . S
C2932 H2906 0.950 . S
C2932 C2928 1.385 . S
C2932 C2931 1.374 . S
C2933 C2930 1.499 . S
C2933 C2934 1.373 . S
C2933 C2935 1.389 . S
C2934 H2907 0.950 . S
C2934 C2920 1.377 . S
C2934 C2933 1.373 . S
C2935 C2919 1.377 . S
C2935 C2933 1.389 . S
C2935 C2936 1.524 . S
C2936 C2935 1.524 . S
C2936 C2937 1.397 . S
C2936 C2941 1.363 . S
C2937 H2908 0.950 . S
C2937 C2936 1.397 . S
C2937 C2938 1.334 . S
C2938 H2909 0.950 . S
C2938 C2937 1.334 . S
C2938 C2939 1.287 . S
C2939 C2938 1.287 . S
C2939 C2940 1.524 . S
C2939 H2942 0.999 . S
C2940 H2910 0.950 . S
C2940 C2939 1.524 . S
C2940 C2941 1.415 . S
C2941 H2911 0.950 . S
C2941 C2936 1.363 . S
C2941 C2940 1.415 . S
H2942 C2939 0.999 . S
H2943 C2924 0.913 . S
H2944 C2962 0.951 . S
H2945 C2964 0.951 . S
H2946 C2966 0.950 . S
H2947 C2967 0.950 . S
H2948 C2969 0.950 . S
H2949 C2972 0.950 . S
H2950 C2973 0.950 . S
H2951 C2975 0.950 . S
H2952 C2976 0.950 . S
H2953 C2977 0.951 . S
H2954 C2979 0.951 . S
H2955 C2981 0.950 . S
H2956 C2982 0.950 . S
H2957 C2984 0.950 . S
H2958 C2987 0.950 . S
H2959 C2988 0.950 . S
H2960 C2990 0.950 . S
H2961 C2991 0.950 . S
C2962 H2944 0.951 . S
C2962 C2963 1.366 . S
C2962 C2964 1.388 . S
C2963 C2962 1.366 . S
C2963 C2967 1.385 . S
C2964 H2945 0.951 . S
C2964 C2962 1.388 . S
C2964 C2965 1.366 . S
C2965 C2964 1.366 . S
C2965 C2966 1.414 . S
C2965 C2968 1.499 . S
C2966 H2946 0.950 . S
C2966 C2965 1.414 . S
C2966 C2967 1.374 . S
C2967 H2947 0.950 . S
C2967 C2963 1.385 . S
C2967 C2966 1.374 . S
C2968 C2965 1.499 . S
C2968 C2969 1.373 . S
C2968 C2970 1.389 . S
C2969 H2948 0.950 . S
C2969 C2968 1.373 . S
C2969 C2985 1.377 . S
C2970 C2968 1.389 . S
C2970 C2971 1.524 . S
C2970 C2984 1.377 . S
C2971 C2970 1.524 . S
C2971 C2972 1.397 . S
C2971 C2976 1.363 . S
C2972 H2949 0.950 . S
C2972 C2971 1.397 . S
C2972 C2973 1.334 . S
C2973 H2950 0.950 . S
C2973 C2972 1.334 . S
C2973 C2974 1.287 . S
C2974 C2973 1.287 . S
C2974 C2975 1.524 . S
C2974 H2993 0.913 . S
C2975 H2951 0.950 . S
C2975 C2974 1.524 . S
C2975 C2976 1.415 . S
C2976 H2952 0.950 . S
C2976 C2971 1.363 . S
C2976 C2975 1.415 . S
C2977 H2953 0.951 . S
C2977 C2978 1.366 . S
C2977 C2979 1.388 . S
C2978 C2977 1.366 . S
C2978 C2982 1.385 . S
C2979 H2954 0.951 . S
C2979 C2977 1.388 . S
C2979 C2980 1.366 . S
C2980 C2979 1.366 . S
C2980 C2981 1.414 . S
C2980 C2983 1.499 . S
C2981 H2955 0.950 . S
C2981 C2980 1.414 . S
C2981 C2982 1.374 . S
C2982 H2956 0.950 . S
C2982 C2978 1.385 . S
C2982 C2981 1.374 . S
C2983 C2980 1.499 . S
C2983 C2984 1.373 . S
C2983 C2985 1.389 . S
C2984 H2957 0.950 . S
C2984 C2970 1.377 . S
C2984 C2983 1.373 . S
C2985 C2969 1.377 . S
C2985 C2983 1.389 . S
C2985 C2986 1.524 . S
C2986 C2985 1.524 . S
C2986 C2987 1.397 . S
C2986 C2991 1.363 . S
C2987 H2958 0.950 . S
C2987 C2986 1.397 . S
C2987 C2988 1.334 . S
C2988 H2959 0.950 . S
C2988 C2987 1.334 . S
C2988 C2989 1.287 . S
C2989 C2988 1.287 . S
C2989 C2990 1.524 . S
C2989 H2992 0.999 . S
C2990 H2960 0.950 . S
C2990 C2989 1.524 . S
C2990 C2991 1.415 . S
C2991 H2961 0.950 . S
C2991 C2986 1.363 . S
C2991 C2990 1.415 . S
H2992 C2989 0.999 . S
H2993 C2974 0.913 . S
H2994 C3012 0.951 . S
H2995 C3014 0.951 . S
H2996 C3016 0.950 . S
H2997 C3017 0.950 . S
H2998 C3019 0.950 . S
H2999 C3022 0.950 . S
H3000 C3023 0.950 . S
H3001 C3025 0.950 . S
H3002 C3026 0.950 . S
H3003 C3027 0.951 . S
H3004 C3029 0.951 . S
H3005 C3031 0.950 . S
H3006 C3032 0.950 . S
H3007 C3034 0.950 . S
H3008 C3037 0.950 . S
H3009 C3038 0.950 . S
H3010 C3040 0.950 . S
H3011 C3041 0.950 . S
C3012 H2994 0.951 . S
C3012 C3013 1.366 . S
C3012 C3014 1.388 . S
C3013 C3012 1.366 . S
C3013 C3017 1.385 . S
C3014 H2995 0.951 . S
C3014 C3012 1.388 . S
C3014 C3015 1.366 . S
C3015 C3014 1.366 . S
C3015 C3016 1.414 . S
C3015 C3018 1.499 . S
C3016 H2996 0.950 . S
C3016 C3015 1.414 . S
C3016 C3017 1.374 . S
C3017 H2997 0.950 . S
C3017 C3013 1.385 . S
C3017 C3016 1.374 . S
C3018 C3015 1.499 . S
C3018 C3019 1.373 . S
C3018 C3020 1.389 . S
C3019 H2998 0.950 . S
C3019 C3018 1.373 . S
C3019 C3035 1.377 . S
C3020 C3018 1.389 . S
C3020 C3021 1.524 . S
C3020 C3034 1.377 . S
C3021 C3020 1.524 . S
C3021 C3022 1.397 . S
C3021 C3026 1.363 . S
C3022 H2999 0.950 . S
C3022 C3021 1.397 . S
C3022 C3023 1.334 . S
C3023 H3000 0.950 . S
C3023 C3022 1.334 . S
C3023 C3024 1.287 . S
C3024 C3023 1.287 . S
C3024 C3025 1.524 . S
C3024 H3043 0.913 . S
C3025 H3001 0.950 . S
C3025 C3024 1.524 . S
C3025 C3026 1.415 . S
C3026 H3002 0.950 . S
C3026 C3021 1.363 . S
C3026 C3025 1.415 . S
C3027 H3003 0.951 . S
C3027 C3028 1.366 . S
C3027 C3029 1.388 . S
C3028 C3027 1.366 . S
C3028 C3032 1.385 . S
C3029 H3004 0.951 . S
C3029 C3027 1.388 . S
C3029 C3030 1.366 . S
C3030 C3029 1.366 . S
C3030 C3031 1.414 . S
C3030 C3033 1.499 . S
C3031 H3005 0.950 . S
C3031 C3030 1.414 . S
C3031 C3032 1.374 . S
C3032 H3006 0.950 . S
C3032 C3028 1.385 . S
C3032 C3031 1.374 . S
C3033 C3030 1.499 . S
C3033 C3034 1.373 . S
C3033 C3035 1.389 . S
C3034 H3007 0.950 . S
C3034 C3020 1.377 . S
C3034 C3033 1.373 . S
C3035 C3019 1.377 . S
C3035 C3033 1.389 . S
C3035 C3036 1.524 . S
C3036 C3035 1.524 . S
C3036 C3037 1.397 . S
C3036 C3041 1.363 . S
C3037 H3008 0.950 . S
C3037 C3036 1.397 . S
C3037 C3038 1.334 . S
C3038 H3009 0.950 . S
C3038 C3037 1.334 . S
C3038 C3039 1.287 . S
C3039 C3038 1.287 . S
C3039 C3040 1.524 . S
C3039 H3042 0.999 . S
C3040 H3010 0.950 . S
C3040 C3039 1.524 . S
C3040 C3041 1.415 . S
C3041 H3011 0.950 . S
C3041 C3036 1.363 . S
C3041 C3040 1.415 . S
H3042 C3039 0.999 . S
H3043 C3024 0.913 . S
H3044 C3062 0.951 . S
H3045 C3064 0.951 . S
H3046 C3066 0.950 . S
H3047 C3067 0.950 . S
H3048 C3069 0.950 . S
H3049 C3072 0.950 . S
H3050 C3073 0.950 . S
H3051 C3075 0.950 . S
H3052 C3076 0.950 . S
H3053 C3077 0.951 . S
H3054 C3079 0.951 . S
H3055 C3081 0.950 . S
H3056 C3082 0.950 . S
H3057 C3084 0.950 . S
H3058 C3087 0.950 . S
H3059 C3088 0.950 . S
H3060 C3090 0.950 . S
H3061 C3091 0.950 . S
C3062 H3044 0.951 . S
C3062 C3063 1.366 . S
C3062 C3064 1.388 . S
C3063 C3062 1.366 . S
C3063 C3067 1.385 . S
C3064 H3045 0.951 . S
C3064 C3062 1.388 . S
C3064 C3065 1.366 . S
C3065 C3064 1.366 . S
C3065 C3066 1.414 . S
C3065 C3068 1.499 . S
C3066 H3046 0.950 . S
C3066 C3065 1.414 . S
C3066 C3067 1.374 . S
C3067 H3047 0.950 . S
C3067 C3063 1.385 . S
C3067 C3066 1.374 . S
C3068 C3065 1.499 . S
C3068 C3069 1.373 . S
C3068 C3070 1.389 . S
C3069 H3048 0.950 . S
C3069 C3068 1.373 . S
C3069 C3085 1.377 . S
C3070 C3068 1.389 . S
C3070 C3071 1.524 . S
C3070 C3084 1.377 . S
C3071 C3070 1.524 . S
C3071 C3072 1.397 . S
C3071 C3076 1.363 . S
C3072 H3049 0.950 . S
C3072 C3071 1.397 . S
C3072 C3073 1.334 . S
C3073 H3050 0.950 . S
C3073 C3072 1.334 . S
C3073 C3074 1.287 . S
C3074 C3073 1.287 . S
C3074 C3075 1.524 . S
C3074 H3093 0.913 . S
C3075 H3051 0.950 . S
C3075 C3074 1.524 . S
C3075 C3076 1.415 . S
C3076 H3052 0.950 . S
C3076 C3071 1.363 . S
C3076 C3075 1.415 . S
C3077 H3053 0.951 . S
C3077 C3078 1.366 . S
C3077 C3079 1.388 . S
C3078 C3077 1.366 . S
C3078 C3082 1.385 . S
C3079 H3054 0.951 . S
C3079 C3077 1.388 . S
C3079 C3080 1.366 . S
C3080 C3079 1.366 . S
C3080 C3081 1.414 . S
C3080 C3083 1.499 . S
C3081 H3055 0.950 . S
C3081 C3080 1.414 . S
C3081 C3082 1.374 . S
C3082 H3056 0.950 . S
C3082 C3078 1.385 . S
C3082 C3081 1.374 . S
C3083 C3080 1.499 . S
C3083 C3084 1.373 . S
C3083 C3085 1.389 . S
C3084 H3057 0.950 . S
C3084 C3070 1.377 . S
C3084 C3083 1.373 . S
C3085 C3069 1.377 . S
C3085 C3083 1.389 . S
C3085 C3086 1.524 . S
C3086 C3085 1.524 . S
C3086 C3087 1.397 . S
C3086 C3091 1.363 . S
C3087 H3058 0.950 . S
C3087 C3086 1.397 . S
C3087 C3088 1.334 . S
C3088 H3059 0.950 . S
C3088 C3087 1.334 . S
C3088 C3089 1.287 . S
C3089 C3088 1.287 . S
C3089 C3090 1.524 . S
C3089 H3092 0.999 . S
C3090 H3060 0.950 . S
C3090 C3089 1.524 . S
C3090 C3091 1.415 . S
C3091 H3061 0.950 . S
C3091 C3086 1.363 . S
C3091 C3090 1.415 . S
H3092 C3089 0.999 . S
H3093 C3074 0.913 . S
H3094 C3112 0.951 . S
H3095 C3114 0.951 . S
H3096 C3116 0.950 . S
H3097 C3117 0.950 . S
H3098 C3119 0.950 . S
H3099 C3122 0.950 . S
H3100 C3123 0.950 . S
H3101 C3125 0.950 . S
H3102 C3126 0.950 . S
H3103 C3127 0.951 . S
H3104 C3129 0.951 . S
H3105 C3131 0.950 . S
H3106 C3132 0.950 . S
H3107 C3134 0.950 . S
H3108 C3137 0.950 . S
H3109 C3138 0.950 . S
H3110 C3140 0.950 . S
H3111 C3141 0.950 . S
C3112 H3094 0.951 . S
C3112 C3113 1.366 . S
C3112 C3114 1.388 . S
C3113 C3112 1.366 . S
C3113 C3117 1.385 . S
C3114 H3095 0.951 . S
C3114 C3112 1.388 . S
C3114 C3115 1.366 . S
C3115 C3114 1.366 . S
C3115 C3116 1.414 . S
C3115 C3118 1.499 . S
C3116 H3096 0.950 . S
C3116 C3115 1.414 . S
C3116 C3117 1.374 . S
C3117 H3097 0.950 . S
C3117 C3113 1.385 . S
C3117 C3116 1.374 . S
C3118 C3115 1.499 . S
C3118 C3119 1.373 . S
C3118 C3120 1.389 . S
C3119 H3098 0.950 . S
C3119 C3118 1.373 . S
C3119 C3135 1.377 . S
C3120 C3118 1.389 . S
C3120 C3121 1.524 . S
C3120 C3134 1.377 . S
C3121 C3120 1.524 . S
C3121 C3122 1.397 . S
C3121 C3126 1.363 . S
C3122 H3099 0.950 . S
C3122 C3121 1.397 . S
C3122 C3123 1.334 . S
C3123 H3100 0.950 . S
C3123 C3122 1.334 . S
C3123 C3124 1.287 . S
C3124 C3123 1.287 . S
C3124 C3125 1.524 . S
C3124 H3143 0.913 . S
C3125 H3101 0.950 . S
C3125 C3124 1.524 . S
C3125 C3126 1.415 . S
C3126 H3102 0.950 . S
C3126 C3121 1.363 . S
C3126 C3125 1.415 . S
C3127 H3103 0.951 . S
C3127 C3128 1.366 . S
C3127 C3129 1.388 . S
C3128 C3127 1.366 . S
C3128 C3132 1.385 . S
C3129 H3104 0.951 . S
C3129 C3127 1.388 . S
C3129 C3130 1.366 . S
C3130 C3129 1.366 . S
C3130 C3131 1.414 . S
C3130 C3133 1.499 . S
C3131 H3105 0.950 . S
C3131 C3130 1.414 . S
C3131 C3132 1.374 . S
C3132 H3106 0.950 . S
C3132 C3128 1.385 . S
C3132 C3131 1.374 . S
C3133 C3130 1.499 . S
C3133 C3134 1.373 . S
C3133 C3135 1.389 . S
C3134 H3107 0.950 . S
C3134 C3120 1.377 . S
C3134 C3133 1.373 . S
C3135 C3119 1.377 . S
C3135 C3133 1.389 . S
C3135 C3136 1.524 . S
C3136 C3135 1.524 . S
C3136 C3137 1.397 . S
C3136 C3141 1.363 . S
C3137 H3108 0.950 . S
C3137 C3136 1.397 . S
C3137 C3138 1.334 . S
C3138 H3109 0.950 . S
C3138 C3137 1.334 . S
C3138 C3139 1.287 . S
C3139 C3138 1.287 . S
C3139 C3140 1.524 . S
C3139 H3142 0.999 . S
C3140 H3110 0.950 . S
C3140 C3139 1.524 . S
C3140 C3141 1.415 . S
C3141 H3111 0.950 . S
C3141 C3136 1.363 . S
C3141 C3140 1.415 . S
H3142 C3139 0.999 . S
H3143 C3124 0.913 . S
H3144 C3162 0.951 . S
H3145 C3164 0.951 . S
H3146 C3166 0.950 . S
H3147 C3167 0.950 . S
H3148 C3169 0.950 . S
H3149 C3172 0.950 . S
H3150 C3173 0.950 . S
H3151 C3175 0.950 . S
H3152 C3176 0.950 . S
H3153 C3177 0.951 . S
H3154 C3179 0.951 . S
H3155 C3181 0.950 . S
H3156 C3182 0.950 . S
H3157 C3184 0.950 . S
H3158 C3187 0.950 . S
H3159 C3188 0.950 . S
H3160 C3190 0.950 . S
H3161 C3191 0.950 . S
C3162 H3144 0.951 . S
C3162 C3163 1.366 . S
C3162 C3164 1.388 . S
C3163 C3162 1.366 . S
C3163 C3167 1.385 . S
C3164 H3145 0.951 . S
C3164 C3162 1.388 . S
C3164 C3165 1.366 . S
C3165 C3164 1.366 . S
C3165 C3166 1.414 . S
C3165 C3168 1.499 . S
C3166 H3146 0.950 . S
C3166 C3165 1.414 . S
C3166 C3167 1.374 . S
C3167 H3147 0.950 . S
C3167 C3163 1.385 . S
C3167 C3166 1.374 . S
C3168 C3165 1.499 . S
C3168 C3169 1.373 . S
C3168 C3170 1.389 . S
C3169 H3148 0.950 . S
C3169 C3168 1.373 . S
C3169 C3185 1.377 . S
C3170 C3168 1.389 . S
C3170 C3171 1.524 . S
C3170 C3184 1.377 . S
C3171 C3170 1.524 . S
C3171 C3172 1.397 . S
C3171 C3176 1.363 . S
C3172 H3149 0.950 . S
C3172 C3171 1.397 . S
C3172 C3173 1.334 . S
C3173 H3150 0.950 . S
C3173 C3172 1.334 . S
C3173 C3174 1.287 . S
C3174 C3173 1.287 . S
C3174 C3175 1.524 . S
C3174 H3193 0.913 . S
C3175 H3151 0.950 . S
C3175 C3174 1.524 . S
C3175 C3176 1.415 . S
C3176 H3152 0.950 . S
C3176 C3171 1.363 . S
C3176 C3175 1.415 . S
C3177 H3153 0.951 . S
C3177 C3178 1.366 . S
C3177 C3179 1.388 . S
C3178 C3177 1.366 . S
C3178 C3182 1.385 . S
C3179 H3154 0.951 . S
C3179 C3177 1.388 . S
C3179 C3180 1.366 . S
C3180 C3179 1.366 . S
C3180 C3181 1.414 . S
C3180 C3183 1.499 . S
C3181 H3155 0.950 . S
C3181 C3180 1.414 . S
C3181 C3182 1.374 . S
C3182 H3156 0.950 . S
C3182 C3178 1.385 . S
C3182 C3181 1.374 . S
C3183 C3180 1.499 . S
C3183 C3184 1.373 . S
C3183 C3185 1.389 . S
C3184 H3157 0.950 . S
C3184 C3170 1.377 . S
C3184 C3183 1.373 . S
C3185 C3169 1.377 . S
C3185 C3183 1.389 . S
C3185 C3186 1.524 . S
C3186 C3185 1.524 . S
C3186 C3187 1.397 . S
C3186 C3191 1.363 . S
C3187 H3158 0.950 . S
C3187 C3186 1.397 . S
C3187 C3188 1.334 . S
C3188 H3159 0.950 . S
C3188 C3187 1.334 . S
C3188 C3189 1.287 . S
C3189 C3188 1.287 . S
C3189 C3190 1.524 . S
C3189 H3192 0.999 . S
C3190 H3160 0.950 . S
C3190 C3189 1.524 . S
C3190 C3191 1.415 . S
C3191 H3161 0.950 . S
C3191 C3186 1.363 . S
C3191 C3190 1.415 . S
H3192 C3189 0.999 . S
H3193 C3174 0.913 . S
H3194 C3212 0.951 . S
H3195 C3214 0.951 . S
H3196 C3216 0.950 . S
H3197 C3217 0.950 . S
H3198 C3219 0.950 . S
H3199 C3222 0.950 . S
H3200 C3223 0.950 . S
H3201 C3225 0.950 . S
H3202 C3226 0.950 . S
H3203 C3227 0.951 . S
H3204 C3229 0.951 . S
H3205 C3231 0.950 . S
H3206 C3232 0.950 . S
H3207 C3234 0.950 . S
H3208 C3237 0.950 . S
H3209 C3238 0.950 . S
H3210 C3240 0.950 . S
H3211 C3241 0.950 . S
C3212 H3194 0.951 . S
C3212 C3213 1.366 . S
C3212 C3214 1.388 . S
C3213 C3212 1.366 . S
C3213 C3217 1.385 . S
C3214 H3195 0.951 . S
C3214 C3212 1.388 . S
C3214 C3215 1.366 . S
C3215 C3214 1.366 . S
C3215 C3216 1.414 . S
C3215 C3218 1.499 . S
C3216 H3196 0.950 . S
C3216 C3215 1.414 . S
C3216 C3217 1.374 . S
C3217 H3197 0.950 . S
C3217 C3213 1.385 . S
C3217 C3216 1.374 . S
C3218 C3215 1.499 . S
C3218 C3219 1.373 . S
C3218 C3220 1.389 . S
C3219 H3198 0.950 . S
C3219 C3218 1.373 . S
C3219 C3235 1.377 . S
C3220 C3218 1.389 . S
C3220 C3221 1.524 . S
C3220 C3234 1.377 . S
C3221 C3220 1.524 . S
C3221 C3222 1.397 . S
C3221 C3226 1.363 . S
C3222 H3199 0.950 . S
C3222 C3221 1.397 . S
C3222 C3223 1.334 . S
C3223 H3200 0.950 . S
C3223 C3222 1.334 . S
C3223 C3224 1.287 . S
C3224 C3223 1.287 . S
C3224 C3225 1.524 . S
C3224 H3243 0.913 . S
C3225 H3201 0.950 . S
C3225 C3224 1.524 . S
C3225 C3226 1.415 . S
C3226 H3202 0.950 . S
C3226 C3221 1.363 . S
C3226 C3225 1.415 . S
C3227 H3203 0.951 . S
C3227 C3228 1.366 . S
C3227 C3229 1.388 . S
C3228 C3227 1.366 . S
C3228 C3232 1.385 . S
C3229 H3204 0.951 . S
C3229 C3227 1.388 . S
C3229 C3230 1.366 . S
C3230 C3229 1.366 . S
C3230 C3231 1.414 . S
C3230 C3233 1.499 . S
C3231 H3205 0.950 . S
C3231 C3230 1.414 . S
C3231 C3232 1.374 . S
C3232 H3206 0.950 . S
C3232 C3228 1.385 . S
C3232 C3231 1.374 . S
C3233 C3230 1.499 . S
C3233 C3234 1.373 . S
C3233 C3235 1.389 . S
C3234 H3207 0.950 . S
C3234 C3220 1.377 . S
C3234 C3233 1.373 . S
C3235 C3219 1.377 . S
C3235 C3233 1.389 . S
C3235 C3236 1.524 . S
C3236 C3235 1.524 . S
C3236 C3237 1.397 . S
C3236 C3241 1.363 . S
C3237 H3208 0.950 . S
C3237 C3236 1.397 . S
C3237 C3238 1.334 . S
C3238 H3209 0.950 . S
C3238 C3237 1.334 . S
C3238 C3239 1.287 . S
C3239 C3238 1.287 . S
C3239 C3240 1.524 . S
C3239 H3242 0.999 . S
C3240 H3210 0.950 . S
C3240 C3239 1.524 . S
C3240 C3241 1.415 . S
C3241 H3211 0.950 . S
C3241 C3236 1.363 . S
C3241 C3240 1.415 . S
H3242 C3239 0.999 . S
H3243 C3224 0.913 . S
H3244 C3262 0.951 . S
H3245 C3264 0.951 . S
H3246 C3266 0.950 . S
H3247 C3267 0.950 . S
H3248 C3269 0.950 . S
H3249 C3272 0.950 . S
H3250 C3273 0.950 . S
H3251 C3275 0.950 . S
H3252 C3276 0.950 . S
H3253 C3277 0.951 . S
H3254 C3279 0.951 . S
H3255 C3281 0.950 . S
H3256 C3282 0.950 . S
H3257 C3284 0.950 . S
H3258 C3287 0.950 . S
H3259 C3288 0.950 . S
H3260 C3290 0.950 . S
H3261 C3291 0.950 . S
C3262 H3244 0.951 . S
C3262 C3263 1.366 . S
C3262 C3264 1.388 . S
C3263 C3262 1.366 . S
C3263 C3267 1.385 . S
C3264 H3245 0.951 . S
C3264 C3262 1.388 . S
C3264 C3265 1.366 . S
C3265 C3264 1.366 . S
C3265 C3266 1.414 . S
C3265 C3268 1.499 . S
C3266 H3246 0.950 . S
C3266 C3265 1.414 . S
C3266 C3267 1.374 . S
C3267 H3247 0.950 . S
C3267 C3263 1.385 . S
C3267 C3266 1.374 . S
C3268 C3265 1.499 . S
C3268 C3269 1.373 . S
C3268 C3270 1.389 . S
C3269 H3248 0.950 . S
C3269 C3268 1.373 . S
C3269 C3285 1.377 . S
C3270 C3268 1.389 . S
C3270 C3271 1.524 . S
C3270 C3284 1.377 . S
C3271 C3270 1.524 . S
C3271 C3272 1.397 . S
C3271 C3276 1.363 . S
C3272 H3249 0.950 . S
C3272 C3271 1.397 . S
C3272 C3273 1.334 . S
C3273 H3250 0.950 . S
C3273 C3272 1.334 . S
C3273 C3274 1.287 . S
C3274 C3273 1.287 . S
C3274 C3275 1.524 . S
C3274 H3293 0.913 . S
C3275 H3251 0.950 . S
C3275 C3274 1.524 . S
C3275 C3276 1.415 . S
C3276 H3252 0.950 . S
C3276 C3271 1.363 . S
C3276 C3275 1.415 . S
C3277 H3253 0.951 . S
C3277 C3278 1.366 . S
C3277 C3279 1.388 . S
C3278 C3277 1.366 . S
C3278 C3282 1.385 . S
C3279 H3254 0.951 . S
C3279 C3277 1.388 . S
C3279 C3280 1.366 . S
C3280 C3279 1.366 . S
C3280 C3281 1.414 . S
C3280 C3283 1.499 . S
C3281 H3255 0.950 . S
C3281 C3280 1.414 . S
C3281 C3282 1.374 . S
C3282 H3256 0.950 . S
C3282 C3278 1.385 . S
C3282 C3281 1.374 . S
C3283 C3280 1.499 . S
C3283 C3284 1.373 . S
C3283 C3285 1.389 . S
C3284 H3257 0.950 . S
C3284 C3270 1.377 . S
C3284 C3283 1.373 . S
C3285 C3269 1.377 . S
C3285 C3283 1.389 . S
C3285 C3286 1.524 . S
C3286 C3285 1.524 . S
C3286 C3287 1.397 . S
C3286 C3291 1.363 . S
C3287 H3258 0.950 . S
C3287 C3286 1.397 . S
C3287 C3288 1.334 . S
C3288 H3259 0.950 . S
C3288 C3287 1.334 . S
C3288 C3289 1.287 . S
C3289 C3288 1.287 . S
C3289 C3290 1.524 . S
C3289 H3292 0.999 . S
C3290 H3260 0.950 . S
C3290 C3289 1.524 . S
C3290 C3291 1.415 . S
C3291 H3261 0.950 . S
C3291 C3286 1.363 . S
C3291 C3290 1.415 . S
H3292 C3289 0.999 . S
H3293 C3274 0.913 . S
C613 C177 1.678 . S
C628 C243 1.675 . S
C663 C190 1.830 . S
C678 C283 1.822 . S
C713 C164 1.605 . S
C728 C322 1.574 . S
C763 C151 1.466 . S
C778 C282 1.428 . S
C828 C323 1.485 1_556 S
C813 C125 1.489 . S
C863 C138 1.318 . S
C878 C242 1.300 . S
C928 C253 1.644 1_556 S
C913 C147 1.633 . S
C978 C293 1.696 . S
C963 C121 1.641 . S
C1013 C134 1.627 . S
C1028 C332 1.677 . S
C1063 C173 1.454 . S
C1078 C292 1.487 . S
C1113 C186 1.411 . S
C1128 C333 1.422 . S
C1178 C252 1.432 . S
C1163 C160 1.398 . S
C1228 C363 1.674 . S
C1213 C21 1.678 . S
C1263 C34 1.830 . S
C1278 C403 1.822 . S
C1313 C8 1.604 . S
C1328 C442 1.573 . S
C1363 C229 1.466 . S
C1378 C402 1.428 . S
C1413 C203 1.490 . S
C1428 C443 1.485 . S
C1463 C216 1.317 . S
C1478 C362 1.299 . S
C1513 C225 1.633 . S
C1528 C373 1.644 . S
C1563 C199 1.641 . S
C1578 C413 1.675 . S
C1628 C452 1.676 . S
C1613 C212 1.626 . S
C1663 C17 1.455 . S
C1678 C412 1.488 . S
C1728 C453 1.422 . S
C1713 C30 1.412 . S
C1763 C4 1.397 . S
C1778 C372 1.432 . S
C1828 C483 1.674 . S
C1813 C99 1.678 . S
C1863 C112 1.830 . S
C1878 C523 1.822 . S
C1928 C562 1.574 . S
C1913 C86 1.605 . S
C1978 C522 1.428 . S
C1963 C73 1.466 . S
C2028 C563 1.485 . S
C2013 C47 1.489 . S
C2063 C60 1.317 . S
C2078 C482 1.300 . S
C2113 C69 1.634 . S
C2128 C493 1.644 . S
C2163 C43 1.640 . S
C2178 C533 1.675 . S
C2228 C572 1.677 . S
C2213 C56 1.626 . S
C2263 C95 1.455 . S
C2278 C532 1.488 . S
C2313 C108 1.411 . S
C2328 C573 1.422 . S
C2363 C82 1.398 . S
C2378 C492 1.432 . S
C2413 C204 1.419 . S
C2428 C239 1.413 . S
C2478 C279 1.977 . S
C2463 C217 1.976 . S
C2513 C230 1.565 . S
C2528 C329 1.581 . S
C2563 C87 1.825 . S
C2578 C289 1.842 . S
C2613 C100 1.686 . S
C2628 C319 1.689 . S
C2678 C249 1.263 . S
C2663 C113 1.254 . S
C2713 C48 1.419 . S
C2728 C359 1.413 . S
C2763 C61 1.975 . S
C2778 C399 1.976 . S
C2813 C74 1.564 . S
C2828 C449 1.581 . S
C2863 C165 1.825 . S
C2878 C409 1.842 . S
C2928 C439 1.689 . S
C2913 C178 1.686 . S
C2963 C191 1.254 . S
C2978 C369 1.263 . S
C3013 C126 1.419 . S
C3028 C479 1.412 . S
C3063 C139 1.975 . S
C3078 C519 1.977 . S
C3128 C569 1.581 . S
C3113 C152 1.565 . S
C3163 C9 1.825 . S
C3178 C529 1.842 . S
C3213 C22 1.686 . S
C3228 C559 1.689 . S
C3263 C35 1.255 . S
C3278 C489 1.263 . S
