# Generated by pormake.
# Topology pto, (3,4)-cn, num edge types: 1
# Building blocks:
#     Node 0, Type 0, BuildingBlock: BELTOD_clean_linker_0, # of connection points: 3
#     Node 1, Type 0, BuildingBlock: BELTOD_clean_linker_0, # of connection points: 3
#     Node 2, Type 0, BuildingBlock: BELTOD_clean_linker_0, # of connection points: 3
#     Node 3, Type 0, BuildingBlock: BELTOD_clean_linker_0, # of connection points: 3
#     Node 4, Type 0, BuildingBlock: BELTOD_clean_linker_0, # of connection points: 3
#     Node 5, Type 0, BuildingBlock: BELTOD_clean_linker_0, # of connection points: 3
#     Node 6, Type 0, BuildingBlock: BELTOD_clean_linker_0, # of connection points: 3
#     Node 7, Type 0, BuildingBlock: BELTOD_clean_linker_0, # of connection points: 3
#     Node 8, Type 1, BuildingBlock: KOZSID_clean_sbu_0, # of connection points: 4
#     Node 9, Type 1, BuildingBlock: KOZSID_clean_sbu_0, # of connection points: 4
#     Node 10, Type 1, BuildingBlock: KOZSID_clean_sbu_0, # of connection points: 4
#     Node 11, Type 1, BuildingBlock: KOZSID_clean_sbu_0, # of connection points: 4
#     Node 12, Type 1, BuildingBlock: KOZSID_clean_sbu_0, # of connection points: 4
#     Node 13, Type 1, BuildingBlock: KOZSID_clean_sbu_0, # of connection points: 4
#     Edge 14, Type (0, 1), None
#     Edge 15, Type (0, 1), None
#     Edge 16, Type (0, 1), None
#     Edge 17, Type (0, 1), None
#     Edge 18, Type (0, 1), None
#     Edge 19, Type (0, 1), None
#     Edge 20, Type (0, 1), None
#     Edge 21, Type (0, 1), None
#     Edge 22, Type (0, 1), None
#     Edge 23, Type (0, 1), None
#     Edge 24, Type (0, 1), None
#     Edge 25, Type (0, 1), None
#     Edge 26, Type (0, 1), None
#     Edge 27, Type (0, 1), None
#     Edge 28, Type (0, 1), None
#     Edge 29, Type (0, 1), None
#     Edge 30, Type (0, 1), None
#     Edge 31, Type (0, 1), None
#     Edge 32, Type (0, 1), None
#     Edge 33, Type (0, 1), None
#     Edge 34, Type (0, 1), None
#     Edge 35, Type (0, 1), None
#     Edge 36, Type (0, 1), None
#     Edge 37, Type (0, 1), None
# Relax obj value: 0.000
# Max RMSD: 0.045
# Mean RMSD: 0.019
data_MOF--net-pto--node1-KOZSID_clean_sbu_0--node2-BELTOD_clean_linker_0--edge1-none
_symmetry_space_group_name_H-M    P1
_symmetry_Int_Tables_number       1
_symmetry_cell_setting            triclinic
loop_
_symmetry_equiv_pos_as_xyz
'x, y, z'
_cell_length_a     23.712384
_cell_length_b     31.998561
_cell_length_c     27.762676
_cell_angle_alpha  84.876998
_cell_angle_beta   87.347674
_cell_angle_gamma 97.786821
loop_
_atom_site_label
_atom_site_type_symbol
_atom_site_fract_x
_atom_site_fract_y
_atom_site_fract_z
_atom_type_partial_charge
P0 P 0.33449 0.29469 0.35186 0.0
H1 H 0.43154 0.25996 0.31317 0.0
H2 H 0.47137 0.25674 0.23067 0.0
H3 H 0.33849 0.32259 0.17305 0.0
H4 H 0.2999 0.32731 0.2553 0.0
H5 H 0.32582 0.37046 0.40163 0.0
H6 H 0.25344 0.41771 0.40521 0.0
H7 H 0.14781 0.33939 0.31636 0.0
H8 H 0.21986 0.29074 0.31439 0.0
H9 H 0.32725 0.25546 0.45115 0.0
H10 H 0.29062 0.21621 0.30983 0.0
O11 O 0.3889 0.31438 0.38297 0.0
H12 H 0.309 0.18124 0.48571 0.0
H13 H 0.273 0.14189 0.34445 0.0
C14 C 0.36278 0.29387 0.29059 0.0
C15 C 0.41125 0.27408 0.28283 0.0
C16 C 0.43388 0.27216 0.23589 0.0
C17 C 0.40816 0.28983 0.19594 0.0
C18 C 0.35932 0.30927 0.20354 0.0
C19 C 0.33704 0.31163 0.25062 0.0
C20 C 0.27862 0.32737 0.3571 0.0
C21 C 0.28695 0.36298 0.3833 0.0
C22 C 0.24552 0.38998 0.38547 0.0
C23 C 0.19539 0.38223 0.36082 0.0
C24 C 0.1864 0.3461 0.33536 0.0
C25 C 0.22739 0.31841 0.33424 0.0
C26 C 0.31124 0.24121 0.37786 0.0
C27 C 0.31451 0.23098 0.42771 0.0
C28 C 0.30413 0.18874 0.4474 0.0
C29 C 0.28984 0.15625 0.41751 0.0
C30 C 0.28375 0.16662 0.36803 0.0
C31 C 0.294 0.20896 0.34834 0.0
P32 P 0.29703 0.76861 0.70708 0.0
H33 H 0.29221 0.68154 0.68224 0.0
H34 H 0.21638 0.62078 0.69223 0.0
H35 H 0.09998 0.69946 0.74852 0.0
H36 H 0.176 0.76064 0.73837 0.0
H37 H 0.31522 0.80831 0.60769 0.0
H38 H 0.30405 0.87925 0.57142 0.0
H39 H 0.22856 0.90723 0.70705 0.0
H40 H 0.23925 0.83603 0.7434 0.0
H41 H 0.27071 0.71986 0.80313 0.0
H42 H 0.37397 0.83572 0.74232 0.0
O43 O 0.35303 0.75599 0.6757 0.0
H44 H 0.31072 0.729 0.88187 0.0
H45 H 0.41347 0.84511 0.8209 0.0
C46 C 0.23937 0.72573 0.70886 0.0
C47 C 0.25019 0.68606 0.69591 0.0
C48 C 0.20711 0.65136 0.7017 0.0
C49 C 0.15286 0.65588 0.72089 0.0
C50 C 0.1417 0.69564 0.73337 0.0
C51 C 0.18483 0.73044 0.72741 0.0
C52 C 0.27883 0.81725 0.67839 0.0
C53 C 0.29538 0.82936 0.62946 0.0
C54 C 0.2891 0.86976 0.6088 0.0
C55 C 0.26577 0.89831 0.63676 0.0
C56 C 0.24652 0.88546 0.685 0.0
C57 C 0.25264 0.84495 0.70564 0.0
C58 C 0.31926 0.77728 0.76688 0.0
C59 C 0.30096 0.74773 0.80686 0.0
C60 C 0.32354 0.75307 0.85198 0.0
C61 C 0.3652 0.7877 0.85738 0.0
C62 C 0.38162 0.818 0.81765 0.0
C63 C 0.35905 0.81269 0.77278 0.0
P64 P 0.83921 0.80525 0.28715 0.0
H65 H 0.90617 0.88645 0.29994 0.0
H66 H 0.90297 0.9358 0.36126 0.0
H67 H 0.7681 0.84977 0.44204 0.0
H68 H 0.77093 0.80038 0.37932 0.0
H69 H 0.95112 0.77995 0.27184 0.0
H70 H 0.99016 0.71509 0.29314 0.0
H71 H 0.82982 0.65988 0.36808 0.0
H72 H 0.78993 0.72546 0.34469 0.0
H73 H 0.7341 0.84475 0.2919 0.0
H74 H 0.79597 0.74208 0.22457 0.0
O75 O 0.88181 0.83068 0.24112 0.0
H76 H 0.64934 0.83681 0.24525 0.0
H77 H 0.71312 0.73527 0.17601 0.0
C78 C 0.83846 0.83985 0.33488 0.0
C79 C 0.87594 0.87797 0.33082 0.0
C80 C 0.87432 0.90617 0.3662 0.0
C81 C 0.8353 0.89681 0.40666 0.0
C82 C 0.79822 0.85816 0.41104 0.0
C83 C 0.80004 0.82979 0.37549 0.0
C84 C 0.86758 0.75747 0.30646 0.0
C85 C 0.92415 0.75405 0.29286 0.0
C86 C 0.94661 0.71684 0.30546 0.0
C87 C 0.91334 0.68224 0.33283 0.0
C88 C 0.85646 0.68578 0.34676 0.0
C89 C 0.8338 0.72329 0.33378 0.0
C90 C 0.77079 0.79335 0.26251 0.0
C91 C 0.7288 0.81973 0.26805 0.0
C92 C 0.68064 0.81556 0.24071 0.0
C93 C 0.67438 0.78562 0.20643 0.0
C94 C 0.71568 0.75817 0.20254 0.0
C95 C 0.76335 0.76207 0.23029 0.0
P96 P 0.84303 0.25545 0.83198 0.0
H97 H 0.82911 0.2748 0.9315 0.0
H98 H 0.74488 0.27768 0.98506 0.0
H99 H 0.636 0.23345 0.87461 0.0
H100 H 0.72029 0.22997 0.82111 0.0
H101 H 0.88302 0.17419 0.82387 0.0
H102 H 0.87731 0.1254 0.761 0.0
H103 H 0.77837 0.2061 0.67734 0.0
H104 H 0.78507 0.25561 0.74041 0.0
H105 H 0.95039 0.30949 0.80243 0.0
H106 H 0.77083 0.32018 0.80306 0.0
O107 O 0.8975 0.24484 0.86485 0.0
H108 H 0.97322 0.3859 0.77922 0.0
H109 H 0.79389 0.39669 0.78013 0.0
C110 C 0.78098 0.25126 0.87278 0.0
C111 C 0.7872 0.26472 0.91917 0.0
C112 C 0.73929 0.26658 0.94961 0.0
C113 C 0.68449 0.25548 0.93379 0.0
C114 C 0.67811 0.24166 0.88752 0.0
C115 C 0.72616 0.23957 0.85713 0.0
C116 C 0.83523 0.21882 0.78641 0.0
C117 C 0.86017 0.18156 0.79204 0.0
C118 C 0.85692 0.15369 0.7561 0.0
C119 C 0.82782 0.16222 0.7142 0.0
C120 C 0.80099 0.19882 0.70936 0.0
C121 C 0.80499 0.22712 0.74518 0.0
C122 C 0.859 0.3094 0.80552 0.0
C123 C 0.91593 0.32806 0.79674 0.0
C124 C 0.92895 0.37153 0.78335 0.0
C125 C 0.88513 0.39666 0.77807 0.0
C126 C 0.82813 0.3776 0.78376 0.0
C127 C 0.8151 0.33405 0.79714 0.0
P128 P 0.83942 0.82383 0.82717 0.0
H129 H 0.83222 0.81253 0.93314 0.0
H130 H 0.75138 0.80369 0.99366 0.0
H131 H 0.63615 0.81511 0.87909 0.0
H132 H 0.71681 0.82387 0.81852 0.0
H133 H 0.90819 0.79806 0.74807 0.0
H134 H 0.93011 0.7289 0.7278 0.0
H135 H 0.81353 0.66766 0.84514 0.0
H136 H 0.79171 0.73664 0.86516 0.0
H137 H 0.86278 0.91592 0.81492 0.0
H138 H 0.79567 0.81609 0.73001 0.0
O139 O 0.89911 0.84117 0.85315 0.0
H140 H 0.85725 0.96854 0.74594 0.0
H141 H 0.79134 0.86874 0.66064 0.0
C142 C 0.78052 0.81982 0.87143 0.0
C143 C 0.78966 0.81369 0.92103 0.0
C144 C 0.74371 0.80849 0.95553 0.0
C145 C 0.68818 0.80917 0.9407 0.0
C146 C 0.67897 0.81492 0.89108 0.0
C147 C 0.72487 0.82004 0.85663 0.0
C148 C 0.84777 0.77262 0.80767 0.0
C149 C 0.88628 0.76968 0.76865 0.0
C150 C 0.89864 0.73013 0.75701 0.0
C151 C 0.87347 0.69283 0.78486 0.0
C152 C 0.83374 0.69585 0.82315 0.0
C153 C 0.82108 0.73538 0.83449 0.0
C154 C 0.83109 0.86206 0.77714 0.0
C155 C 0.84688 0.90533 0.78148 0.0
C156 C 0.84365 0.93532 0.74225 0.0
C157 C 0.82444 0.92243 0.69815 0.0
C158 C 0.80655 0.87924 0.69435 0.0
C159 C 0.80936 0.84925 0.7338 0.0
P160 P 0.86038 0.25833 0.30111 0.0
H161 H 0.9737 0.30241 0.31529 0.0
H162 H 0.00736 0.37453 0.33475 0.0
H163 H 0.83346 0.39836 0.35351 0.0
H164 H 0.79951 0.32606 0.3336 0.0
H165 H 0.85115 0.16684 0.30169 0.0
H166 H 0.84128 0.10892 0.36715 0.0
H167 H 0.83043 0.19885 0.47272 0.0
H168 H 0.84036 0.25698 0.40726 0.0
H169 H 0.84826 0.30902 0.21162 0.0
H170 H 0.74067 0.21564 0.30886 0.0
O171 O 0.91297 0.24666 0.26484 0.0
H172 H 0.77078 0.31251 0.15732 0.0
H173 H 0.66209 0.21952 0.25506 0.0
C174 C 0.88413 0.30918 0.32216 0.0
C175 C 0.94267 0.32287 0.32412 0.0
C176 C 0.96191 0.3639 0.33542 0.0
C177 C 0.92284 0.39153 0.34573 0.0
C178 C 0.86416 0.37725 0.34605 0.0
C179 C 0.84489 0.33618 0.33448 0.0
C180 C 0.84711 0.21621 0.34964 0.0
C181 C 0.8462 0.17412 0.33888 0.0
C182 C 0.84056 0.14112 0.37609 0.0
C183 C 0.83541 0.14978 0.42456 0.0
C184 C 0.83448 0.19171 0.4354 0.0
C185 C 0.84016 0.2248 0.3981 0.0
C186 C 0.80036 0.26203 0.26413 0.0
C187 C 0.80764 0.28954 0.22148 0.0
C188 C 0.76307 0.29165 0.19058 0.0
C189 C 0.70995 0.26633 0.20173 0.0
C190 C 0.70257 0.23908 0.245 0.0
C191 C 0.74741 0.23701 0.276 0.0
P192 P 0.29108 0.30642 0.72234 0.0
H193 H 0.33162 0.28671 0.62748 0.0
H194 H 0.32042 0.22235 0.58615 0.0
H195 H 0.20504 0.15925 0.70316 0.0
H196 H 0.21679 0.22444 0.74516 0.0
H197 H 0.26548 0.37601 0.65549 0.0
H198 H 0.19518 0.42496 0.65967 0.0
H199 H 0.11686 0.35306 0.7905 0.0
H200 H 0.18751 0.30395 0.78594 0.0
H201 H 0.34614 0.23703 0.76724 0.0
H202 H 0.28798 0.35104 0.80977 0.0
O203 O 0.3476 0.33707 0.69397 0.0
H204 H 0.39059 0.22769 0.84437 0.0
H205 H 0.32983 0.34097 0.88759 0.0
C206 C 0.27599 0.2601 0.68992 0.0
C207 C 0.30356 0.25929 0.64435 0.0
C208 C 0.29707 0.22247 0.62062 0.0
C209 C 0.26237 0.18572 0.64173 0.0
C210 C 0.23197 0.1872 0.68613 0.0
C211 C 0.23886 0.22424 0.71017 0.0
C212 C 0.23266 0.33711 0.7212 0.0
C213 C 0.23276 0.37042 0.68475 0.0
C214 C 0.19234 0.3983 0.68703 0.0
C215 C 0.15108 0.39331 0.72588 0.0
C216 C 0.14888 0.35819 0.76066 0.0
C217 C 0.18903 0.33004 0.75803 0.0
C218 C 0.31206 0.29401 0.78313 0.0
C219 C 0.34105 0.25921 0.79384 0.0
C220 C 0.36653 0.2539 0.83812 0.0
C221 C 0.36405 0.28361 0.87241 0.0
C222 C 0.33334 0.3177 0.86198 0.0
C223 C 0.3084 0.32313 0.81762 0.0
P224 P 0.34873 0.74471 0.356 0.0
H225 H 0.45226 0.78495 0.30019 0.0
H226 H 0.47826 0.79611 0.21287 0.0
H227 H 0.30789 0.74288 0.18323 0.0
H228 H 0.28187 0.7314 0.27057 0.0
H229 H 0.37007 0.77891 0.44823 0.0
H230 H 0.34852 0.84323 0.48198 0.0
H231 H 0.25524 0.87413 0.35683 0.0
H232 H 0.27747 0.80935 0.32271 0.0
H233 H 0.35762 0.65603 0.34724 0.0
H234 H 0.22587 0.72999 0.38507 0.0
O235 O 0.40807 0.73367 0.38146 0.0
H236 H 0.28656 0.59201 0.35288 0.0
H237 H 0.15509 0.6661 0.39078 0.0
C238 C 0.36558 0.75646 0.29185 0.0
C239 C 0.42045 0.7757 0.27496 0.0
C240 C 0.43526 0.78209 0.22525 0.0
C241 C 0.39534 0.76939 0.19183 0.0
C242 C 0.33964 0.75194 0.2086 0.0
C243 C 0.32481 0.74555 0.25836 0.0
C244 C 0.32655 0.78986 0.38244 0.0
C245 C 0.34482 0.79932 0.42799 0.0
C246 C 0.33248 0.83611 0.44727 0.0
C247 C 0.30091 0.86397 0.42167 0.0
C248 C 0.27975 0.85325 0.37724 0.0
C249 C 0.29268 0.81644 0.35766 0.0
C250 C 0.2971 0.69761 0.36634 0.0
C251 C 0.31368 0.6583 0.3578 0.0
C252 C 0.27334 0.62182 0.36112 0.0
C253 C 0.21588 0.62426 0.37294 0.0
C254 C 0.19947 0.66348 0.38241 0.0
C255 C 0.23981 0.69996 0.379 0.0
C256 C 0.13669 0.56906 0.41355 0.0
C257 C 0.15026 0.57833 0.4599 0.0
C258 C 0.10363 0.56218 0.49018 0.0
C259 C 0.06416 0.54407 0.46084 0.0
N260 N 0.08373 0.54678 0.41412 0.0
Co261 Co 0.04049 0.52452 0.36001 0.0
N262 N 0.98234 0.48924 0.40544 0.0
C263 C 0.9723 0.49369 0.45262 0.0
C264 C 0.93141 0.46236 0.47478 0.0
C265 C 0.9153 0.43658 0.43927 0.0
C266 C 0.94735 0.45379 0.39749 0.0
N267 N 0.99701 0.50206 0.30648 0.0
C268 C 0.96054 0.46574 0.30712 0.0
C269 C 0.94018 0.46044 0.26175 0.0
C270 C 0.96547 0.49494 0.2316 0.0
C271 C 0.99963 0.51916 0.26031 0.0
N272 N 0.09805 0.5597 0.31381 0.0
C273 C 0.09118 0.57004 0.26645 0.0
C274 C 0.1369 0.59632 0.24363 0.0
C275 C 0.17446 0.60368 0.27891 0.0
C276 C 0.14942 0.58141 0.32163 0.0
N277 N 0.08535 0.4775 0.36005 0.0
C278 C 0.15411 0.41303 0.36043 0.0
C279 C 0.14001 0.43316 0.3167 0.0
C280 C 0.10605 0.4656 0.3173 0.0
C281 C 0.13188 0.42491 0.40388 0.0
C282 C 0.09704 0.45679 0.40289 0.0
N283 N 0.99609 0.57206 0.35972 0.0
C284 C 0.91003 0.60235 0.34446 0.0
C285 C 0.93932 0.64332 0.34656 0.0
C286 C 0.99617 0.64727 0.35883 0.0
C287 C 0.02364 0.61168 0.36466 0.0
C288 C 0.93918 0.56703 0.35155 0.0
H289 H 0.06802 0.61687 0.37138 0.0
H290 H 0.91633 0.53588 0.34863 0.0
H291 H 0.09732 0.48153 0.28317 0.0
H292 H 0.08034 0.4651 0.43692 0.0
C293 C 0.01125 0.52036 0.47646 0.0
C294 C 0.17155 0.58724 0.36957 0.0
C295 C 0.94406 0.43658 0.35049 0.0
C296 C 0.04369 0.55157 0.24376 0.0
H297 H 0.18921 0.59601 0.47045 0.0
H298 H 0.09952 0.56291 0.52903 0.0
H299 H 0.91788 0.45709 0.51287 0.0
H300 H 0.88459 0.40804 0.44377 0.0
H301 H 0.91095 0.43414 0.25153 0.0
H302 H 0.96215 0.50024 0.19284 0.0
H303 H 0.14239 0.60863 0.20586 0.0
H304 H 0.21468 0.62448 0.27401 0.0
H305 H 0.15688 0.425 0.28237 0.0
H306 H 0.14175 0.40987 0.4384 0.0
H307 H 0.86584 0.59768 0.33541 0.0
H308 H 0.02023 0.678 0.36247 0.0
C309 C 0.09568 0.59838 0.77929 0.0
C310 C 0.12504 0.61173 0.81857 0.0
C311 C 0.09993 0.5873 0.85862 0.0
C312 C 0.05696 0.56046 0.84165 0.0
N313 N 0.05362 0.56584 0.79298 0.0
Co314 Co 0.99594 0.53501 0.75343 0.0
N315 N 0.95918 0.49915 0.81241 0.0
C316 C 0.9731 0.50129 0.85893 0.0
C317 C 0.94276 0.47011 0.8907 0.0
C318 C 0.90884 0.44574 0.86253 0.0
C319 C 0.92063 0.46367 0.81517 0.0
N320 N 0.93766 0.50439 0.71423 0.0
C321 C 0.90182 0.46795 0.72678 0.0
C322 C 0.87139 0.4547 0.68818 0.0
C323 C 0.88965 0.48348 0.64936 0.0
C324 C 0.93008 0.51243 0.66653 0.0
N325 N 0.03348 0.57009 0.69412 0.0
C326 C 0.01736 0.56871 0.64807 0.0
C327 C 0.04966 0.59801 0.61542 0.0
C328 C 0.08886 0.61936 0.6421 0.0
C329 C 0.07787 0.60193 0.68978 0.0
N330 N 0.04629 0.49136 0.74382 0.0
C331 C 0.11345 0.42629 0.73196 0.0
C332 C 0.08724 0.44442 0.69274 0.0
C333 C 0.05385 0.47656 0.69946 0.0
C334 C 0.10578 0.44158 0.77702 0.0
C335 C 0.07273 0.47402 0.78203 0.0
N336 N 0.94564 0.57917 0.76329 0.0
C337 C 0.90192 0.63912 0.73088 0.0
C338 C 0.89321 0.65167 0.77723 0.0
C339 C 0.90739 0.6257 0.81657 0.0
C340 C 0.93316 0.59 0.80887 0.0
C341 C 0.92706 0.60261 0.72486 0.0
H342 H 0.94423 0.57272 0.84055 0.0
H343 H 0.93228 0.59478 0.68866 0.0
H344 H 0.03424 0.48889 0.66842 0.0
H345 H 0.06908 0.48457 0.81721 0.0
C346 C 0.01881 0.53026 0.87061 0.0
C347 C 0.10845 0.61839 0.72998 0.0
C348 C 0.89954 0.4433 0.77354 0.0
C349 C 0.96871 0.54205 0.63739 0.0
H350 H 0.16048 0.63693 0.81837 0.0
H351 H 0.11119 0.58923 0.89578 0.0
H352 H 0.94716 0.46436 0.92927 0.0
H353 H 0.88081 0.41681 0.87493 0.0
H354 H 0.84126 0.42617 0.68766 0.0
H355 H 0.87796 0.48172 0.61228 0.0
H356 H 0.04392 0.60427 0.57715 0.0
H357 H 0.12069 0.64572 0.62827 0.0
H358 H 0.09201 0.4336 0.65709 0.0
H359 H 0.12624 0.42919 0.80826 0.0
H360 H 0.89019 0.65772 0.69931 0.0
H361 H 0.90129 0.63397 0.85328 0.0
C362 C 0.32029 0.97001 0.60612 0.0
C363 C 0.36986 0.96208 0.62773 0.0
C364 C 0.41314 0.9903 0.60464 0.0
C365 C 0.38755 0.01381 0.57053 0.0
N366 N 0.33025 0.00301 0.57139 0.0
Co367 Co 0.27605 0.02673 0.52662 0.0
N368 N 0.34034 0.06362 0.48766 0.0
C369 C 0.39688 0.06523 0.49387 0.0
C370 C 0.43017 0.09539 0.4628 0.0
C371 C 0.39262 0.11498 0.4361 0.0
C372 C 0.33844 0.09561 0.45268 0.0
N373 N 0.22196 0.05097 0.48202 0.0
C374 C 0.23167 0.08492 0.44833 0.0
C375 C 0.18174 0.09402 0.42822 0.0
C376 C 0.13867 0.06527 0.45076 0.0
C377 C 0.16468 0.04053 0.48332 0.0
N378 N 0.21185 0.98947 0.56539 0.0
C379 C 0.15557 0.98688 0.55794 0.0
C380 C 0.12245 0.95511 0.58701 0.0
C381 C 0.15983 0.93583 0.61415 0.0
C382 C 0.21379 0.95697 0.59983 0.0
N383 N 0.26918 0.0733 0.56867 0.0
C384 C 0.26311 0.14547 0.61908 0.0
C385 C 0.21341 0.12067 0.60727 0.0
C386 C 0.2174 0.08491 0.58194 0.0
C387 C 0.31531 0.13242 0.60738 0.0
C388 C 0.31732 0.09653 0.58291 0.0
N389 N 0.28337 0.97995 0.48483 0.0
C390 C 0.2411 0.91926 0.44583 0.0
C391 C 0.29416 0.90523 0.44034 0.0
C392 C 0.34185 0.93061 0.45446 0.0
C393 C 0.33565 0.96761 0.4758 0.0
C394 C 0.23666 0.95655 0.46814 0.0
H395 H 0.37386 0.98493 0.48598 0.0
H396 H 0.19497 0.96519 0.47271 0.0
H397 H 0.17831 0.06767 0.57253 0.0
H398 H 0.35866 0.08889 0.575 0.0
C399 C 0.41667 0.04218 0.53336 0.0
C400 C 0.26599 0.94265 0.61618 0.0
C401 C 0.28655 0.11143 0.4377 0.0
C402 C 0.1361 0.01098 0.51936 0.0
H403 H 0.37448 0.9371 0.65564 0.0
H404 H 0.45824 0.99184 0.61016 0.0
H405 H 0.47602 0.10385 0.46168 0.0
H406 H 0.40357 0.14186 0.40919 0.0
H407 H 0.17664 0.11981 0.40155 0.0
H408 H 0.09346 0.06406 0.44591 0.0
H409 H 0.07704 0.94527 0.58626 0.0
H410 H 0.14885 0.90804 0.63973 0.0
H411 H 0.17194 0.12958 0.616 0.0
H412 H 0.35486 0.15022 0.61671 0.0
H413 H 0.20302 0.9008 0.43473 0.0
H414 H 0.38406 0.92163 0.44964 0.0
C415 C 0.42461 0.81651 0.11307 0.0
C416 C 0.40063 0.85159 0.12513 0.0
C417 C 0.42178 0.88415 0.09057 0.0
C418 C 0.45728 0.867 0.05955 0.0
N419 N 0.4593 0.82578 0.0725 0.0
Co420 Co 0.50677 0.78874 0.04076 0.0
N421 N 0.55924 0.83822 0.00935 0.0
C422 C 0.54768 0.87842 0.00338 0.0
C423 C 0.5915 0.90586 0.97923 0.0
C424 C 0.6327 0.8813 0.9687 0.0
C425 C 0.61159 0.84001 0.98698 0.0
N426 N 0.55387 0.7512 0.00904 0.0
C427 C 0.60659 0.7602 0.98654 0.0
C428 C 0.62284 0.72452 0.96774 0.0
C429 C 0.57823 0.69245 0.97819 0.0
C430 C 0.53733 0.71015 0.00277 0.0
N431 N 0.45379 0.73976 0.07222 0.0
C432 C 0.44689 0.70013 0.05887 0.0
C433 C 0.4087 0.67288 0.08963 0.0
C434 C 0.39087 0.69703 0.1244 0.0
C435 C 0.41916 0.73777 0.11266 0.0
N436 N 0.46042 0.7902 0.98436 0.0
C437 C 0.39698 0.78963 0.90196 0.0
C438 C 0.36948 0.78327 0.94838 0.0
C439 C 0.40211 0.78411 0.98926 0.0
C440 C 0.45648 0.79641 0.89779 0.0
C441 C 0.48717 0.7964 0.9391 0.0
N442 N 0.55359 0.78718 0.09663 0.0
C443 C 0.60435 0.74798 0.15387 0.0
C444 C 0.62855 0.78565 0.17153 0.0
C445 C 0.61205 0.8239 0.15228 0.0
C446 C 0.57433 0.82392 0.11519 0.0
C447 C 0.56735 0.74947 0.11631 0.0
H448 H 0.56326 0.85386 0.10055 0.0
H449 H 0.55087 0.72013 0.10247 0.0
H450 H 0.38035 0.77942 0.02477 0.0
H451 H 0.53282 0.80086 0.93404 0.0
C452 C 0.49866 0.8899 0.02605 0.0
C453 C 0.41267 0.7744 0.13947 0.0
C454 C 0.63895 0.80293 0.97676 0.0
C455 C 0.48625 0.68824 0.0253 0.0
H456 H 0.37166 0.85345 0.15591 0.0
H457 H 0.41492 0.91694 0.09003 0.0
H458 H 0.59368 0.93975 0.97092 0.0
H459 H 0.673 0.89232 0.94866 0.0
H460 H 0.66218 0.72221 0.9474 0.0
H461 H 0.57626 0.66 0.9695 0.0
H462 H 0.39796 0.63899 0.08886 0.0
H463 H 0.36138 0.68568 0.15512 0.0
H464 H 0.32339 0.77793 0.95301 0.0
H465 H 0.47946 0.80063 0.86265 0.0
H466 H 0.61478 0.71755 0.16819 0.0
H467 H 0.62991 0.85395 0.16416 0.0
C468 C 0.88046 0.97458 0.63265 0.0
C469 C 0.93246 0.96463 0.64789 0.0
C470 C 0.97383 0.99033 0.61944 0.0
C471 C 0.94507 0.01398 0.58808 0.0
N472 N 0.88761 0.00529 0.59501 0.0
Co473 Co 0.82961 0.03255 0.55742 0.0
N474 N 0.89085 0.07154 0.51686 0.0
C475 C 0.94791 0.07342 0.52009 0.0
C476 C 0.97924 0.1041 0.48842 0.0
C477 C 0.93994 0.12322 0.46353 0.0
C478 C 0.88665 0.10296 0.48154 0.0
N479 N 0.77171 0.05946 0.51928 0.0
C480 C 0.77886 0.09157 0.48319 0.0
C481 C 0.72707 0.10043 0.4665 0.0
C482 C 0.68564 0.07311 0.49314 0.0
C483 C 0.71436 0.0492 0.52436 0.0
N484 N 0.76842 0.99417 0.59864 0.0
C485 C 0.71141 0.99286 0.59581 0.0
C486 C 0.67992 0.9643 0.62974 0.0
C487 C 0.71909 0.94631 0.65605 0.0
C488 C 0.77248 0.96485 0.63635 0.0
N489 N 0.82849 0.0755 0.60473 0.0
C490 C 0.82764 0.13349 0.67523 0.0
C491 C 0.77717 0.11739 0.6553 0.0
C492 C 0.7785 0.08836 0.62052 0.0
C493 C 0.87853 0.12106 0.65842 0.0
C494 C 0.87806 0.09264 0.6232 0.0
N495 N 0.83082 0.98932 0.51019 0.0
C496 C 0.78173 0.93637 0.46381 0.0
C497 C 0.83345 0.92769 0.44358 0.0
C498 C 0.88372 0.95006 0.45774 0.0
C499 C 0.88144 0.98042 0.4906 0.0
C500 C 0.7814 0.96709 0.49668 0.0
H501 H 0.92136 0.99623 0.49948 0.0
H502 H 0.74061 0.97242 0.51044 0.0
H503 H 0.73856 0.07643 0.60732 0.0
H504 H 0.9184 0.08481 0.61179 0.0
C505 C 0.97082 0.04597 0.55334 0.0
C506 C 0.82565 0.95409 0.65534 0.0
C507 C 0.83348 0.11497 0.464 0.0
C508 C 0.68869 0.01861 0.56062 0.0
H509 H 0.93986 0.94146 0.67689 0.0
H510 H 0.01946 0.9922 0.62194 0.0
H511 H 0.02518 0.11183 0.48417 0.0
H512 H 0.94939 0.14931 0.43545 0.0
H513 H 0.72 0.12448 0.43833 0.0
H514 H 0.63997 0.07139 0.49063 0.0
H515 H 0.63395 0.9575 0.63488 0.0
H516 H 0.70936 0.92244 0.68651 0.0
H517 H 0.73673 0.12624 0.66741 0.0
H518 H 0.91878 0.13336 0.67234 0.0
H519 H 0.74153 0.92025 0.45358 0.0
H520 H 0.92498 0.94413 0.44369 0.0
C521 C 0.45978 0.32418 0.11634 0.0
C522 C 0.45547 0.36528 0.1269 0.0
C523 C 0.49027 0.39164 0.09335 0.0
C524 C 0.5141 0.36531 0.06456 0.0
N525 N 0.4958 0.32365 0.07706 0.0
Co526 Co 0.52355 0.27428 0.04803 0.0
N527 N 0.58175 0.31283 0.00423 0.0
C528 C 0.58928 0.35573 0.99933 0.0
C529 C 0.63212 0.37342 0.96591 0.0
C530 C 0.65352 0.33987 0.94855 0.0
C531 C 0.62254 0.30347 0.97274 0.0
N532 N 0.5519 0.22485 0.01977 0.0
C533 C 0.59623 0.2238 0.98747 0.0
C534 C 0.60267 0.18254 0.97895 0.0
C535 C 0.56076 0.15661 0.00666 0.0
C536 C 0.53147 0.18332 0.03064 0.0
N537 N 0.46519 0.23586 0.09165 0.0
C538 C 0.45287 0.19327 0.09258 0.0
C539 C 0.41141 0.17562 0.12731 0.0
C540 C 0.39711 0.20886 0.15055 0.0
C541 C 0.43109 0.2449 0.12868 0.0
N542 N 0.46746 0.27697 0.99652 0.0
C543 C 0.3971 0.28109 0.91686 0.0
C544 C 0.40331 0.24226 0.94194 0.0
C545 C 0.43811 0.24096 0.98137 0.0
C546 C 0.42508 0.3178 0.93363 0.0
C547 C 0.4592 0.31505 0.97315 0.0
N548 N 0.57964 0.27167 0.09874 0.0
C549 C 0.62767 0.23155 0.15821 0.0
C550 C 0.66317 0.26817 0.16774 0.0
C551 C 0.65479 0.30665 0.14299 0.0
C552 C 0.61331 0.30767 0.10899 0.0
C553 C 0.58643 0.234 0.12388 0.0
H554 H 0.60949 0.33794 0.09109 0.0
H555 H 0.56091 0.20501 0.11774 0.0
H556 H 0.44101 0.21034 0.99844 0.0
H557 H 0.4792 0.34434 0.98327 0.0
C558 C 0.55734 0.37852 0.02833 0.0
C559 C 0.43186 0.28656 0.1462 0.0
C560 C 0.63391 0.26083 0.96482 0.0
C561 C 0.48536 0.17038 0.06423 0.0
H562 H 0.43122 0.37536 0.15661 0.0
H563 H 0.49904 0.42585 0.09148 0.0
H564 H 0.64661 0.40674 0.95587 0.0
H565 H 0.6883 0.34198 0.92139 0.0
H566 H 0.63465 0.17217 0.95548 0.0
H567 H 0.55302 0.12233 0.00945 0.0
H568 H 0.3953 0.14238 0.13608 0.0
H569 H 0.36652 0.20672 0.18116 0.0
H570 H 0.38165 0.21284 0.93117 0.0
H571 H 0.42238 0.34879 0.91547 0.0
H572 H 0.63257 0.20089 0.17614 0.0
H573 H 0.68021 0.33609 0.14971 0.0
loop_
_geom_bond_atom_site_label_1
_geom_bond_atom_site_label_2
_geom_bond_distance
_geom_bond_site_symmetry_2
_ccdc_geom_bond_type
P0 O11 1.490 . S
P0 C14 1.812 . S
P0 C20 1.803 . S
P0 C26 1.819 . S
H1 C15 0.941 . S
H2 C16 0.939 . S
H3 C18 0.940 . S
H4 C19 0.940 . S
H5 C21 0.939 . S
H6 C22 0.942 . S
H7 C24 0.940 . S
H8 C25 0.939 . S
H9 C27 0.941 . S
H10 C31 0.939 . S
O11 P0 1.490 . S
H12 C28 0.939 . S
H13 C30 0.940 . S
C14 P0 1.812 . S
C14 C15 1.389 . S
C14 C19 1.391 . S
C15 H1 0.941 . S
C15 C14 1.389 . S
C15 C16 1.397 . S
C16 H2 0.939 . S
C16 C15 1.397 . S
C16 C17 1.378 . S
C17 C16 1.378 . S
C17 C18 1.378 . S
C18 H3 0.940 . S
C18 C17 1.378 . S
C18 C19 1.396 . S
C19 H4 0.940 . S
C19 C14 1.391 . S
C19 C18 1.396 . S
C20 P0 1.803 . S
C20 C21 1.378 . S
C20 C25 1.400 . S
C21 H5 0.939 . S
C21 C20 1.378 . S
C21 C22 1.361 . S
C22 H6 0.942 . S
C22 C21 1.361 . S
C22 C23 1.369 . S
C23 C22 1.369 . S
C23 C24 1.404 . S
C24 H7 0.940 . S
C24 C23 1.404 . S
C24 C25 1.389 . S
C25 H8 0.939 . S
C25 C20 1.400 . S
C25 C24 1.389 . S
C26 P0 1.819 . S
C26 C27 1.391 . S
C26 C31 1.391 . S
C27 H9 0.941 . S
C27 C26 1.391 . S
C27 C28 1.396 . S
C28 H12 0.939 . S
C28 C27 1.396 . S
C28 C29 1.397 . S
C29 C28 1.397 . S
C29 C30 1.385 . S
C30 H13 0.940 . S
C30 C29 1.385 . S
C30 C31 1.388 . S
C31 H10 0.939 . S
C31 C26 1.391 . S
C31 C30 1.388 . S
P32 O43 1.490 . S
P32 C46 1.812 . S
P32 C52 1.803 . S
P32 C58 1.819 . S
H33 C47 0.941 . S
H34 C48 0.939 . S
H35 C50 0.940 . S
H36 C51 0.940 . S
H37 C53 0.939 . S
H38 C54 0.942 . S
H39 C56 0.940 . S
H40 C57 0.939 . S
H41 C59 0.941 . S
H42 C63 0.939 . S
O43 P32 1.490 . S
H44 C60 0.939 . S
H45 C62 0.940 . S
C46 P32 1.812 . S
C46 C47 1.389 . S
C46 C51 1.391 . S
C47 H33 0.941 . S
C47 C46 1.389 . S
C47 C48 1.397 . S
C48 H34 0.939 . S
C48 C47 1.397 . S
C48 C49 1.378 . S
C49 C48 1.378 . S
C49 C50 1.378 . S
C50 H35 0.940 . S
C50 C49 1.378 . S
C50 C51 1.396 . S
C51 H36 0.940 . S
C51 C46 1.391 . S
C51 C50 1.396 . S
C52 P32 1.803 . S
C52 C53 1.378 . S
C52 C57 1.400 . S
C53 H37 0.939 . S
C53 C52 1.378 . S
C53 C54 1.361 . S
C54 H38 0.942 . S
C54 C53 1.361 . S
C54 C55 1.369 . S
C55 C54 1.369 . S
C55 C56 1.404 . S
C56 H39 0.940 . S
C56 C55 1.404 . S
C56 C57 1.389 . S
C57 H40 0.939 . S
C57 C52 1.400 . S
C57 C56 1.389 . S
C58 P32 1.819 . S
C58 C59 1.391 . S
C58 C63 1.391 . S
C59 H41 0.941 . S
C59 C58 1.391 . S
C59 C60 1.396 . S
C60 H44 0.939 . S
C60 C59 1.396 . S
C60 C61 1.397 . S
C61 C60 1.397 . S
C61 C62 1.385 . S
C62 H45 0.940 . S
C62 C61 1.385 . S
C62 C63 1.388 . S
C63 H42 0.939 . S
C63 C58 1.391 . S
C63 C62 1.388 . S
P64 O75 1.490 . S
P64 C78 1.812 . S
P64 C84 1.803 . S
P64 C90 1.819 . S
H65 C79 0.941 . S
H66 C80 0.939 . S
H67 C82 0.940 . S
H68 C83 0.940 . S
H69 C85 0.939 . S
H70 C86 0.942 . S
H71 C88 0.940 . S
H72 C89 0.939 . S
H73 C91 0.941 . S
H74 C95 0.939 . S
O75 P64 1.490 . S
H76 C92 0.939 . S
H77 C94 0.940 . S
C78 P64 1.812 . S
C78 C79 1.389 . S
C78 C83 1.391 . S
C79 H65 0.941 . S
C79 C78 1.389 . S
C79 C80 1.397 . S
C80 H66 0.939 . S
C80 C79 1.397 . S
C80 C81 1.378 . S
C81 C80 1.378 . S
C81 C82 1.378 . S
C82 H67 0.940 . S
C82 C81 1.378 . S
C82 C83 1.396 . S
C83 H68 0.940 . S
C83 C78 1.391 . S
C83 C82 1.396 . S
C84 P64 1.803 . S
C84 C85 1.378 . S
C84 C89 1.400 . S
C85 H69 0.939 . S
C85 C84 1.378 . S
C85 C86 1.361 . S
C86 H70 0.942 . S
C86 C85 1.361 . S
C86 C87 1.369 . S
C87 C86 1.369 . S
C87 C88 1.404 . S
C88 H71 0.940 . S
C88 C87 1.404 . S
C88 C89 1.389 . S
C89 H72 0.939 . S
C89 C84 1.400 . S
C89 C88 1.389 . S
C90 P64 1.819 . S
C90 C91 1.391 . S
C90 C95 1.391 . S
C91 H73 0.941 . S
C91 C90 1.391 . S
C91 C92 1.396 . S
C92 H76 0.939 . S
C92 C91 1.396 . S
C92 C93 1.397 . S
C93 C92 1.397 . S
C93 C94 1.385 . S
C94 H77 0.940 . S
C94 C93 1.385 . S
C94 C95 1.388 . S
C95 H74 0.939 . S
C95 C90 1.391 . S
C95 C94 1.388 . S
P96 O107 1.490 . S
P96 C110 1.812 . S
P96 C116 1.803 . S
P96 C122 1.819 . S
H97 C111 0.941 . S
H98 C112 0.939 . S
H99 C114 0.940 . S
H100 C115 0.940 . S
H101 C117 0.939 . S
H102 C118 0.942 . S
H103 C120 0.940 . S
H104 C121 0.939 . S
H105 C123 0.941 . S
H106 C127 0.939 . S
O107 P96 1.490 . S
H108 C124 0.939 . S
H109 C126 0.940 . S
C110 P96 1.812 . S
C110 C111 1.389 . S
C110 C115 1.391 . S
C111 H97 0.941 . S
C111 C110 1.389 . S
C111 C112 1.397 . S
C112 H98 0.939 . S
C112 C111 1.397 . S
C112 C113 1.378 . S
C113 C112 1.378 . S
C113 C114 1.378 . S
C114 H99 0.940 . S
C114 C113 1.378 . S
C114 C115 1.396 . S
C115 H100 0.940 . S
C115 C110 1.391 . S
C115 C114 1.396 . S
C116 P96 1.803 . S
C116 C117 1.378 . S
C116 C121 1.400 . S
C117 H101 0.939 . S
C117 C116 1.378 . S
C117 C118 1.361 . S
C118 H102 0.942 . S
C118 C117 1.361 . S
C118 C119 1.369 . S
C119 C118 1.369 . S
C119 C120 1.404 . S
C120 H103 0.940 . S
C120 C119 1.404 . S
C120 C121 1.389 . S
C121 H104 0.939 . S
C121 C116 1.400 . S
C121 C120 1.389 . S
C122 P96 1.819 . S
C122 C123 1.391 . S
C122 C127 1.391 . S
C123 H105 0.941 . S
C123 C122 1.391 . S
C123 C124 1.396 . S
C124 H108 0.939 . S
C124 C123 1.396 . S
C124 C125 1.397 . S
C125 C124 1.397 . S
C125 C126 1.385 . S
C126 H109 0.940 . S
C126 C125 1.385 . S
C126 C127 1.388 . S
C127 H106 0.939 . S
C127 C122 1.391 . S
C127 C126 1.388 . S
P128 O139 1.490 . S
P128 C142 1.812 . S
P128 C148 1.803 . S
P128 C154 1.819 . S
H129 C143 0.941 . S
H130 C144 0.939 . S
H131 C146 0.940 . S
H132 C147 0.940 . S
H133 C149 0.939 . S
H134 C150 0.942 . S
H135 C152 0.940 . S
H136 C153 0.939 . S
H137 C155 0.941 . S
H138 C159 0.939 . S
O139 P128 1.490 . S
H140 C156 0.939 . S
H141 C158 0.940 . S
C142 P128 1.812 . S
C142 C143 1.389 . S
C142 C147 1.391 . S
C143 H129 0.941 . S
C143 C142 1.389 . S
C143 C144 1.397 . S
C144 H130 0.939 . S
C144 C143 1.397 . S
C144 C145 1.378 . S
C145 C144 1.378 . S
C145 C146 1.378 . S
C146 H131 0.940 . S
C146 C145 1.378 . S
C146 C147 1.396 . S
C147 H132 0.940 . S
C147 C142 1.391 . S
C147 C146 1.396 . S
C148 P128 1.803 . S
C148 C149 1.378 . S
C148 C153 1.400 . S
C149 H133 0.939 . S
C149 C148 1.378 . S
C149 C150 1.361 . S
C150 H134 0.942 . S
C150 C149 1.361 . S
C150 C151 1.369 . S
C151 C150 1.369 . S
C151 C152 1.404 . S
C152 H135 0.940 . S
C152 C151 1.404 . S
C152 C153 1.389 . S
C153 H136 0.939 . S
C153 C148 1.400 . S
C153 C152 1.389 . S
C154 P128 1.819 . S
C154 C155 1.391 . S
C154 C159 1.391 . S
C155 H137 0.941 . S
C155 C154 1.391 . S
C155 C156 1.396 . S
C156 H140 0.939 . S
C156 C155 1.396 . S
C156 C157 1.397 . S
C157 C156 1.397 . S
C157 C158 1.385 . S
C158 H141 0.940 . S
C158 C157 1.385 . S
C158 C159 1.388 . S
C159 H138 0.939 . S
C159 C154 1.391 . S
C159 C158 1.388 . S
P160 O171 1.490 . S
P160 C174 1.812 . S
P160 C180 1.803 . S
P160 C186 1.819 . S
H161 C175 0.941 . S
H162 C176 0.939 1_455 S
H163 C178 0.940 . S
H164 C179 0.940 . S
H165 C181 0.939 . S
H166 C182 0.942 . S
H167 C184 0.940 . S
H168 C185 0.939 . S
H169 C187 0.941 . S
H170 C191 0.939 . S
O171 P160 1.490 . S
H172 C188 0.939 . S
H173 C190 0.940 . S
C174 P160 1.812 . S
C174 C175 1.389 . S
C174 C179 1.391 . S
C175 H161 0.941 . S
C175 C174 1.389 . S
C175 C176 1.397 . S
C176 H162 0.939 1_655 S
C176 C175 1.397 . S
C176 C177 1.378 . S
C177 C176 1.378 . S
C177 C178 1.378 . S
C178 H163 0.940 . S
C178 C177 1.378 . S
C178 C179 1.396 . S
C179 H164 0.940 . S
C179 C174 1.391 . S
C179 C178 1.396 . S
C180 P160 1.803 . S
C180 C181 1.378 . S
C180 C185 1.400 . S
C181 H165 0.939 . S
C181 C180 1.378 . S
C181 C182 1.361 . S
C182 H166 0.942 . S
C182 C181 1.361 . S
C182 C183 1.369 . S
C183 C182 1.369 . S
C183 C184 1.404 . S
C184 H167 0.940 . S
C184 C183 1.404 . S
C184 C185 1.389 . S
C185 H168 0.939 . S
C185 C180 1.400 . S
C185 C184 1.389 . S
C186 P160 1.819 . S
C186 C187 1.391 . S
C186 C191 1.391 . S
C187 H169 0.941 . S
C187 C186 1.391 . S
C187 C188 1.396 . S
C188 H172 0.939 . S
C188 C187 1.396 . S
C188 C189 1.397 . S
C189 C188 1.397 . S
C189 C190 1.385 . S
C190 H173 0.940 . S
C190 C189 1.385 . S
C190 C191 1.388 . S
C191 H170 0.939 . S
C191 C186 1.391 . S
C191 C190 1.388 . S
P192 O203 1.490 . S
P192 C206 1.812 . S
P192 C212 1.803 . S
P192 C218 1.819 . S
H193 C207 0.941 . S
H194 C208 0.939 . S
H195 C210 0.940 . S
H196 C211 0.940 . S
H197 C213 0.939 . S
H198 C214 0.942 . S
H199 C216 0.940 . S
H200 C217 0.939 . S
H201 C219 0.941 . S
H202 C223 0.939 . S
O203 P192 1.490 . S
H204 C220 0.939 . S
H205 C222 0.940 . S
C206 P192 1.812 . S
C206 C207 1.389 . S
C206 C211 1.391 . S
C207 H193 0.941 . S
C207 C206 1.389 . S
C207 C208 1.397 . S
C208 H194 0.939 . S
C208 C207 1.397 . S
C208 C209 1.378 . S
C209 C208 1.378 . S
C209 C210 1.378 . S
C210 H195 0.940 . S
C210 C209 1.378 . S
C210 C211 1.396 . S
C211 H196 0.940 . S
C211 C206 1.391 . S
C211 C210 1.396 . S
C212 P192 1.803 . S
C212 C213 1.378 . S
C212 C217 1.400 . S
C213 H197 0.939 . S
C213 C212 1.378 . S
C213 C214 1.361 . S
C214 H198 0.942 . S
C214 C213 1.361 . S
C214 C215 1.369 . S
C215 C214 1.369 . S
C215 C216 1.404 . S
C216 H199 0.940 . S
C216 C215 1.404 . S
C216 C217 1.389 . S
C217 H200 0.939 . S
C217 C212 1.400 . S
C217 C216 1.389 . S
C218 P192 1.819 . S
C218 C219 1.391 . S
C218 C223 1.391 . S
C219 H201 0.941 . S
C219 C218 1.391 . S
C219 C220 1.396 . S
C220 H204 0.939 . S
C220 C219 1.396 . S
C220 C221 1.397 . S
C221 C220 1.397 . S
C221 C222 1.385 . S
C222 H205 0.940 . S
C222 C221 1.385 . S
C222 C223 1.388 . S
C223 H202 0.939 . S
C223 C218 1.391 . S
C223 C222 1.388 . S
P224 O235 1.490 . S
P224 C238 1.812 . S
P224 C244 1.803 . S
P224 C250 1.819 . S
H225 C239 0.941 . S
H226 C240 0.939 . S
H227 C242 0.940 . S
H228 C243 0.940 . S
H229 C245 0.939 . S
H230 C246 0.942 . S
H231 C248 0.940 . S
H232 C249 0.939 . S
H233 C251 0.941 . S
H234 C255 0.939 . S
O235 P224 1.490 . S
H236 C252 0.939 . S
H237 C254 0.940 . S
C238 P224 1.812 . S
C238 C239 1.389 . S
C238 C243 1.391 . S
C239 H225 0.941 . S
C239 C238 1.389 . S
C239 C240 1.397 . S
C240 H226 0.939 . S
C240 C239 1.397 . S
C240 C241 1.378 . S
C241 C240 1.378 . S
C241 C242 1.378 . S
C242 H227 0.940 . S
C242 C241 1.378 . S
C242 C243 1.396 . S
C243 H228 0.940 . S
C243 C238 1.391 . S
C243 C242 1.396 . S
C244 P224 1.803 . S
C244 C245 1.378 . S
C244 C249 1.400 . S
C245 H229 0.939 . S
C245 C244 1.378 . S
C245 C246 1.361 . S
C246 H230 0.942 . S
C246 C245 1.361 . S
C246 C247 1.369 . S
C247 C246 1.369 . S
C247 C248 1.404 . S
C248 H231 0.940 . S
C248 C247 1.404 . S
C248 C249 1.389 . S
C249 H232 0.939 . S
C249 C244 1.400 . S
C249 C248 1.389 . S
C250 P224 1.819 . S
C250 C251 1.391 . S
C250 C255 1.391 . S
C251 H233 0.941 . S
C251 C250 1.391 . S
C251 C252 1.396 . S
C252 H236 0.939 . S
C252 C251 1.396 . S
C252 C253 1.397 . S
C253 C252 1.397 . S
C253 C254 1.385 . S
C254 H237 0.940 . S
C254 C253 1.385 . S
C254 C255 1.388 . S
C255 H234 0.939 . S
C255 C250 1.391 . S
C255 C254 1.388 . S
C256 C257 1.443 . S
C256 N260 1.376 . S
C256 C294 1.389 . S
C257 C256 1.443 . S
C257 C258 1.340 . S
C257 H297 0.951 . S
C258 C257 1.340 . S
C258 C259 1.439 . S
C258 H298 0.950 . S
C259 C258 1.439 . S
C259 N260 1.374 . S
C259 C293 1.395 . S
N260 C256 1.376 . S
N260 C259 1.374 . S
N260 Co261 2.008 . S
Co261 N260 2.008 . S
Co261 N262 1.995 . S
Co261 N267 2.008 . S
Co261 N272 1.995 . S
Co261 N277 2.282 . S
Co261 N283 2.282 1_455 S
N262 Co261 1.995 . S
N262 C263 1.376 . S
N262 C266 1.383 1_455 S
C263 N262 1.376 . S
C263 C264 1.446 1_455 S
C263 C293 1.391 . S
C264 C263 1.446 1_655 S
C264 C265 1.339 . S
C264 H299 0.949 . S
C265 C264 1.339 . S
C265 C266 1.439 . S
C265 H300 0.950 . S
C266 N262 1.383 1_655 S
C266 C265 1.439 . S
C266 C295 1.392 . S
N267 Co261 2.008 . S
N267 C268 1.376 1_455 S
N267 C271 1.374 . S
C268 N267 1.376 1_655 S
C268 C269 1.443 . S
C268 C295 1.389 . S
C269 C268 1.443 . S
C269 C270 1.340 . S
C269 H301 0.951 . S
C270 C269 1.340 . S
C270 C271 1.439 1_655 S
C270 H302 0.950 . S
C271 N267 1.374 . S
C271 C270 1.439 1_455 S
C271 C296 1.395 . S
N272 Co261 1.995 . S
N272 C273 1.376 . S
N272 C276 1.383 . S
C273 N272 1.376 . S
C273 C274 1.446 . S
C273 C296 1.391 . S
C274 C273 1.446 . S
C274 C275 1.339 . S
C274 H303 0.949 . S
C275 C274 1.339 . S
C275 C276 1.439 . S
C275 H304 0.950 . S
C276 N272 1.383 . S
C276 C275 1.439 . S
C276 C294 1.392 . S
N277 Co261 2.282 . S
N277 C280 1.332 . S
N277 C282 1.332 . S
C278 C279 1.386 . S
C278 C281 1.388 . S
C279 C278 1.386 . S
C279 C280 1.382 . S
C279 H305 0.950 . S
C280 N277 1.332 . S
C280 C279 1.382 . S
C280 H291 0.952 . S
C281 C278 1.388 . S
C281 C282 1.382 . S
C281 H306 0.950 . S
C282 N277 1.332 . S
C282 C281 1.382 . S
C282 H292 0.948 . S
N283 Co261 2.282 1_655 S
N283 C287 1.332 . S
N283 C288 1.332 . S
C284 C285 1.388 . S
C284 C288 1.382 . S
C284 H307 0.950 . S
C285 C284 1.388 . S
C285 C286 1.386 . S
C286 C285 1.386 . S
C286 C287 1.382 . S
C286 H308 0.950 . S
C287 N283 1.332 . S
C287 C286 1.382 . S
C287 H289 0.952 . S
C288 N283 1.332 . S
C288 C284 1.382 . S
C288 H290 0.948 . S
H289 C287 0.952 . S
H290 C288 0.948 . S
H291 C280 0.952 . S
H292 C282 0.948 . S
C293 C259 1.395 . S
C293 C263 1.391 . S
C294 C256 1.389 . S
C294 C276 1.392 . S
C295 C266 1.392 . S
C295 C268 1.389 . S
C296 C271 1.395 . S
C296 C273 1.391 . S
H297 C257 0.951 . S
H298 C258 0.950 . S
H299 C264 0.949 . S
H300 C265 0.950 . S
H301 C269 0.951 . S
H302 C270 0.950 . S
H303 C274 0.949 . S
H304 C275 0.950 . S
H305 C279 0.950 . S
H306 C281 0.950 . S
H307 C284 0.950 . S
H308 C286 0.950 . S
C309 C310 1.443 . S
C309 N313 1.376 . S
C309 C347 1.389 . S
C310 C309 1.443 . S
C310 C311 1.340 . S
C310 H350 0.951 . S
C311 C310 1.340 . S
C311 C312 1.439 . S
C311 H351 0.950 . S
C312 C311 1.439 . S
C312 N313 1.374 . S
C312 C346 1.395 . S
N313 C309 1.376 . S
N313 C312 1.374 . S
N313 Co314 2.008 . S
Co314 N313 2.008 . S
Co314 N315 1.995 1_455 S
Co314 N320 2.008 1_455 S
Co314 N325 1.995 . S
Co314 N330 2.282 . S
Co314 N336 2.282 1_455 S
N315 Co314 1.995 1_655 S
N315 C316 1.376 . S
N315 C319 1.383 . S
C316 N315 1.376 . S
C316 C317 1.446 . S
C316 C346 1.391 1_655 S
C317 C316 1.446 . S
C317 C318 1.339 . S
C317 H352 0.949 . S
C318 C317 1.339 . S
C318 C319 1.439 . S
C318 H353 0.950 . S
C319 N315 1.383 . S
C319 C318 1.439 . S
C319 C348 1.392 . S
N320 Co314 2.008 1_655 S
N320 C321 1.376 . S
N320 C324 1.374 . S
C321 N320 1.376 . S
C321 C322 1.443 . S
C321 C348 1.389 . S
C322 C321 1.443 . S
C322 C323 1.340 . S
C322 H354 0.951 . S
C323 C322 1.340 . S
C323 C324 1.439 . S
C323 H355 0.950 . S
C324 N320 1.374 . S
C324 C323 1.439 . S
C324 C349 1.395 1_655 S
N325 Co314 1.995 . S
N325 C326 1.376 . S
N325 C329 1.383 . S
C326 N325 1.376 . S
C326 C327 1.446 . S
C326 C349 1.391 . S
C327 C326 1.446 . S
C327 C328 1.339 . S
C327 H356 0.949 . S
C328 C327 1.339 . S
C328 C329 1.439 . S
C328 H357 0.950 . S
C329 N325 1.383 . S
C329 C328 1.439 . S
C329 C347 1.392 . S
N330 Co314 2.282 . S
N330 C333 1.332 . S
N330 C335 1.332 . S
C331 C332 1.386 . S
C331 C334 1.388 . S
C332 C331 1.386 . S
C332 C333 1.382 . S
C332 H358 0.950 . S
C333 N330 1.332 . S
C333 C332 1.382 . S
C333 H344 0.952 . S
C334 C331 1.388 . S
C334 C335 1.382 . S
C334 H359 0.950 . S
C335 N330 1.332 . S
C335 C334 1.382 . S
C335 H345 0.948 . S
N336 Co314 2.282 1_655 S
N336 C340 1.332 . S
N336 C341 1.332 . S
C337 C338 1.388 . S
C337 C341 1.382 . S
C337 H360 0.950 . S
C338 C337 1.388 . S
C338 C339 1.386 . S
C339 C338 1.386 . S
C339 C340 1.382 . S
C339 H361 0.950 . S
C340 N336 1.332 . S
C340 C339 1.382 . S
C340 H342 0.952 . S
C341 N336 1.332 . S
C341 C337 1.382 . S
C341 H343 0.948 . S
H342 C340 0.952 . S
H343 C341 0.948 . S
H344 C333 0.952 . S
H345 C335 0.948 . S
C346 C312 1.395 . S
C346 C316 1.391 1_455 S
C347 C309 1.389 . S
C347 C329 1.392 . S
C348 C319 1.392 . S
C348 C321 1.389 . S
C349 C324 1.395 1_455 S
C349 C326 1.391 . S
H350 C310 0.951 . S
H351 C311 0.950 . S
H352 C317 0.949 . S
H353 C318 0.950 . S
H354 C322 0.951 . S
H355 C323 0.950 . S
H356 C327 0.949 . S
H357 C328 0.950 . S
H358 C332 0.950 . S
H359 C334 0.950 . S
H360 C337 0.950 . S
H361 C339 0.950 . S
C362 C363 1.443 . S
C362 N366 1.376 . S
C362 C400 1.389 . S
C363 C362 1.443 . S
C363 C364 1.340 . S
C363 H403 0.951 . S
C364 C363 1.340 . S
C364 C365 1.439 . S
C364 H404 0.950 . S
C365 C364 1.439 . S
C365 N366 1.374 . S
C365 C399 1.395 1_565 S
N366 C362 1.376 . S
N366 C365 1.374 . S
N366 Co367 2.008 1_565 S
Co367 N366 2.008 1_545 S
Co367 N368 1.995 . S
Co367 N373 2.008 . S
Co367 N378 1.995 1_545 S
Co367 N383 2.282 . S
Co367 N389 2.282 1_545 S
N368 Co367 1.995 . S
N368 C369 1.376 . S
N368 C372 1.383 . S
C369 N368 1.376 . S
C369 C370 1.446 . S
C369 C399 1.391 . S
C370 C369 1.446 . S
C370 C371 1.339 . S
C370 H405 0.949 . S
C371 C370 1.339 . S
C371 C372 1.439 . S
C371 H406 0.950 . S
C372 N368 1.383 . S
C372 C371 1.439 . S
C372 C401 1.392 . S
N373 Co367 2.008 . S
N373 C374 1.376 . S
N373 C377 1.374 . S
C374 N373 1.376 . S
C374 C375 1.443 . S
C374 C401 1.389 . S
C375 C374 1.443 . S
C375 C376 1.340 . S
C375 H407 0.951 . S
C376 C375 1.340 . S
C376 C377 1.439 . S
C376 H408 0.950 . S
C377 N373 1.374 . S
C377 C376 1.439 . S
C377 C402 1.395 . S
N378 Co367 1.995 1_565 S
N378 C379 1.376 . S
N378 C382 1.383 . S
C379 N378 1.376 . S
C379 C380 1.446 . S
C379 C402 1.391 1_565 S
C380 C379 1.446 . S
C380 C381 1.339 . S
C380 H409 0.949 . S
C381 C380 1.339 . S
C381 C382 1.439 . S
C381 H410 0.950 . S
C382 N378 1.383 . S
C382 C381 1.439 . S
C382 C400 1.392 . S
N383 Co367 2.282 . S
N383 C386 1.332 . S
N383 C388 1.332 . S
C384 C385 1.386 . S
C384 C387 1.388 . S
C385 C384 1.386 . S
C385 C386 1.382 . S
C385 H411 0.950 . S
C386 N383 1.332 . S
C386 C385 1.382 . S
C386 H397 0.952 . S
C387 C384 1.388 . S
C387 C388 1.382 . S
C387 H412 0.950 . S
C388 N383 1.332 . S
C388 C387 1.382 . S
C388 H398 0.948 . S
N389 Co367 2.282 1_565 S
N389 C393 1.332 . S
N389 C394 1.332 . S
C390 C391 1.388 . S
C390 C394 1.382 . S
C390 H413 0.950 . S
C391 C390 1.388 . S
C391 C392 1.386 . S
C392 C391 1.386 . S
C392 C393 1.382 . S
C392 H414 0.950 . S
C393 N389 1.332 . S
C393 C392 1.382 . S
C393 H395 0.952 . S
C394 N389 1.332 . S
C394 C390 1.382 . S
C394 H396 0.948 . S
H395 C393 0.952 . S
H396 C394 0.948 . S
H397 C386 0.952 . S
H398 C388 0.948 . S
C399 C365 1.395 1_545 S
C399 C369 1.391 . S
C400 C362 1.389 . S
C400 C382 1.392 . S
C401 C372 1.392 . S
C401 C374 1.389 . S
C402 C377 1.395 . S
C402 C379 1.391 1_545 S
H403 C363 0.951 . S
H404 C364 0.950 . S
H405 C370 0.949 . S
H406 C371 0.950 . S
H407 C375 0.951 . S
H408 C376 0.950 . S
H409 C380 0.949 . S
H410 C381 0.950 . S
H411 C385 0.950 . S
H412 C387 0.950 . S
H413 C390 0.950 . S
H414 C392 0.950 . S
C415 C416 1.443 . S
C415 N419 1.376 . S
C415 C453 1.389 . S
C416 C415 1.443 . S
C416 C417 1.340 . S
C416 H456 0.951 . S
C417 C416 1.340 . S
C417 C418 1.439 . S
C417 H457 0.950 . S
C418 C417 1.439 . S
C418 N419 1.374 . S
C418 C452 1.395 . S
N419 C415 1.376 . S
N419 C418 1.374 . S
N419 Co420 2.008 . S
Co420 N419 2.008 . S
Co420 N421 1.995 1_554 S
Co420 N426 2.008 1_554 S
Co420 N431 1.995 . S
Co420 N436 2.282 1_554 S
Co420 N442 2.282 . S
N421 Co420 1.995 1_556 S
N421 C422 1.374 1_556 S
N421 C425 1.383 . S
C422 N421 1.374 1_554 S
C422 C423 1.439 1_554 S
C422 C452 1.398 . S
C423 C422 1.439 1_556 S
C423 C424 1.339 . S
C423 H458 0.949 . S
C424 C423 1.339 . S
C424 C425 1.439 . S
C424 H459 0.950 . S
C425 N421 1.383 . S
C425 C424 1.439 . S
C425 C454 1.392 . S
N426 Co420 2.008 1_556 S
N426 C427 1.376 . S
N426 C430 1.374 1_556 S
C427 N426 1.376 . S
C427 C428 1.443 . S
C427 C454 1.389 . S
C428 C427 1.443 . S
C428 C429 1.340 . S
C428 H460 0.951 . S
C429 C428 1.340 . S
C429 C430 1.439 1_556 S
C429 H461 0.950 . S
C430 N426 1.374 1_554 S
C430 C429 1.439 1_554 S
C430 C455 1.395 . S
N431 Co420 1.995 . S
N431 C432 1.376 . S
N431 C435 1.383 . S
C432 N431 1.376 . S
C432 C433 1.446 . S
C432 C455 1.391 . S
C433 C432 1.446 . S
C433 C434 1.339 . S
C433 H462 0.949 . S
C434 C433 1.339 . S
C434 C435 1.439 . S
C434 H463 0.950 . S
C435 N431 1.383 . S
C435 C434 1.439 . S
C435 C453 1.392 . S
N436 Co420 2.282 1_556 S
N436 C439 1.332 . S
N436 C441 1.332 . S
C437 C438 1.386 . S
C437 C440 1.388 . S
C438 C437 1.386 . S
C438 C439 1.382 . S
C438 H464 0.950 . S
C439 N436 1.332 . S
C439 C438 1.382 . S
C439 H450 0.952 . S
C440 C437 1.388 . S
C440 C441 1.382 . S
C440 H465 0.950 . S
C441 N436 1.332 . S
C441 C440 1.382 . S
C441 H451 0.948 . S
N442 Co420 2.282 . S
N442 C446 1.332 . S
N442 C447 1.332 . S
C443 C444 1.388 . S
C443 C447 1.382 . S
C443 H466 0.950 . S
C444 C443 1.388 . S
C444 C445 1.386 . S
C445 C444 1.386 . S
C445 C446 1.382 . S
C445 H467 0.950 . S
C446 N442 1.332 . S
C446 C445 1.382 . S
C446 H448 0.952 . S
C447 N442 1.332 . S
C447 C443 1.382 . S
C447 H449 0.948 . S
H448 C446 0.952 . S
H449 C447 0.948 . S
H450 C439 0.952 . S
H451 C441 0.948 . S
C452 C418 1.395 . S
C452 C422 1.398 . S
C453 C415 1.389 . S
C453 C435 1.392 . S
C454 C425 1.392 . S
C454 C427 1.389 . S
C455 C430 1.395 . S
C455 C432 1.391 . S
H456 C416 0.951 . S
H457 C417 0.950 . S
H458 C423 0.949 . S
H459 C424 0.950 . S
H460 C428 0.951 . S
H461 C429 0.950 . S
H462 C433 0.949 . S
H463 C434 0.950 . S
H464 C438 0.950 . S
H465 C440 0.950 . S
H466 C443 0.950 . S
H467 C445 0.950 . S
C468 C469 1.443 . S
C468 N472 1.376 . S
C468 C506 1.389 . S
C469 C468 1.443 . S
C469 C470 1.340 . S
C469 H509 0.951 . S
C470 C469 1.340 . S
C470 C471 1.439 1_565 S
C470 H510 0.950 . S
C471 C470 1.439 1_545 S
C471 N472 1.374 1_545 S
C471 C505 1.395 . S
N472 C468 1.376 . S
N472 C471 1.374 1_565 S
N472 Co473 2.008 1_565 S
Co473 N472 2.008 1_545 S
Co473 N474 1.995 . S
Co473 N479 2.008 . S
Co473 N484 1.995 1_545 S
Co473 N489 2.282 . S
Co473 N495 2.282 1_545 S
N474 Co473 1.995 . S
N474 C475 1.376 . S
N474 C478 1.383 . S
C475 N474 1.376 . S
C475 C476 1.446 . S
C475 C505 1.391 . S
C476 C475 1.446 . S
C476 C477 1.339 . S
C476 H511 0.949 1_655 S
C477 C476 1.339 . S
C477 C478 1.439 . S
C477 H512 0.950 . S
C478 N474 1.383 . S
C478 C477 1.439 . S
C478 C507 1.392 . S
N479 Co473 2.008 . S
N479 C480 1.376 . S
N479 C483 1.374 . S
C480 N479 1.376 . S
C480 C481 1.443 . S
C480 C507 1.389 . S
C481 C480 1.443 . S
C481 C482 1.340 . S
C481 H513 0.951 . S
C482 C481 1.340 . S
C482 C483 1.439 . S
C482 H514 0.950 . S
C483 N479 1.374 . S
C483 C482 1.439 . S
C483 C508 1.395 . S
N484 Co473 1.995 1_565 S
N484 C485 1.376 . S
N484 C488 1.383 . S
C485 N484 1.376 . S
C485 C486 1.446 . S
C485 C508 1.391 1_565 S
C486 C485 1.446 . S
C486 C487 1.339 . S
C486 H515 0.949 . S
C487 C486 1.339 . S
C487 C488 1.439 . S
C487 H516 0.950 . S
C488 N484 1.383 . S
C488 C487 1.439 . S
C488 C506 1.392 . S
N489 Co473 2.282 . S
N489 C492 1.332 . S
N489 C494 1.332 . S
C490 C491 1.386 . S
C490 C493 1.388 . S
C491 C490 1.386 . S
C491 C492 1.382 . S
C491 H517 0.950 . S
C492 N489 1.332 . S
C492 C491 1.382 . S
C492 H503 0.952 . S
C493 C490 1.388 . S
C493 C494 1.382 . S
C493 H518 0.950 . S
C494 N489 1.332 . S
C494 C493 1.382 . S
C494 H504 0.948 . S
N495 Co473 2.282 1_565 S
N495 C499 1.332 . S
N495 C500 1.332 . S
C496 C497 1.388 . S
C496 C500 1.382 . S
C496 H519 0.950 . S
C497 C496 1.388 . S
C497 C498 1.386 . S
C498 C497 1.386 . S
C498 C499 1.382 . S
C498 H520 0.950 . S
C499 N495 1.332 . S
C499 C498 1.382 . S
C499 H501 0.952 . S
C500 N495 1.332 . S
C500 C496 1.382 . S
C500 H502 0.948 . S
H501 C499 0.952 . S
H502 C500 0.948 . S
H503 C492 0.952 . S
H504 C494 0.948 . S
C505 C471 1.395 . S
C505 C475 1.391 . S
C506 C468 1.389 . S
C506 C488 1.392 . S
C507 C478 1.392 . S
C507 C480 1.389 . S
C508 C483 1.395 . S
C508 C485 1.391 1_545 S
H509 C469 0.951 . S
H510 C470 0.950 . S
H511 C476 0.949 1_455 S
H512 C477 0.950 . S
H513 C481 0.951 . S
H514 C482 0.950 . S
H515 C486 0.949 . S
H516 C487 0.950 . S
H517 C491 0.950 . S
H518 C493 0.950 . S
H519 C496 0.950 . S
H520 C498 0.950 . S
C521 C522 1.443 . S
C521 N525 1.376 . S
C521 C559 1.389 . S
C522 C521 1.443 . S
C522 C523 1.340 . S
C522 H562 0.951 . S
C523 C522 1.340 . S
C523 C524 1.439 . S
C523 H563 0.950 . S
C524 C523 1.439 . S
C524 N525 1.374 . S
C524 C558 1.395 . S
N525 C521 1.376 . S
N525 C524 1.374 . S
N525 Co526 2.008 . S
Co526 N525 2.008 . S
Co526 N527 1.995 . S
Co526 N532 2.008 . S
Co526 N537 1.995 . S
Co526 N542 2.282 1_554 S
Co526 N548 2.282 . S
N527 Co526 1.995 . S
N527 C528 1.376 . S
N527 C531 1.383 1_554 S
C528 N527 1.376 . S
C528 C529 1.446 1_554 S
C528 C558 1.391 . S
C529 C528 1.446 1_556 S
C529 C530 1.339 . S
C529 H564 0.949 . S
C530 C529 1.339 . S
C530 C531 1.439 . S
C530 H565 0.950 . S
C531 N527 1.383 1_556 S
C531 C530 1.439 . S
C531 C560 1.392 . S
N532 Co526 2.008 . S
N532 C533 1.376 1_554 S
N532 C536 1.374 . S
C533 N532 1.376 1_556 S
C533 C534 1.443 . S
C533 C560 1.389 . S
C534 C533 1.443 . S
C534 C535 1.340 . S
C534 H566 0.951 . S
C535 C534 1.340 . S
C535 C536 1.439 1_556 S
C535 H567 0.950 . S
C536 N532 1.374 . S
C536 C535 1.439 1_554 S
C536 C561 1.395 . S
N537 Co526 1.995 . S
N537 C538 1.376 . S
N537 C541 1.383 . S
C538 N537 1.376 . S
C538 C539 1.446 . S
C538 C561 1.391 . S
C539 C538 1.446 . S
C539 C540 1.339 . S
C539 H568 0.949 . S
C540 C539 1.339 . S
C540 C541 1.439 . S
C540 H569 0.950 . S
C541 N537 1.383 . S
C541 C540 1.439 . S
C541 C559 1.392 . S
N542 Co526 2.282 1_556 S
N542 C545 1.332 . S
N542 C547 1.333 . S
C543 C544 1.386 . S
C543 C546 1.388 . S
C544 C543 1.386 . S
C544 C545 1.382 . S
C544 H570 0.950 . S
C545 N542 1.332 . S
C545 C544 1.382 . S
C545 H556 0.952 1_556 S
C546 C543 1.388 . S
C546 C547 1.382 . S
C546 H571 0.950 . S
C547 N542 1.333 . S
C547 C546 1.382 . S
C547 H557 0.948 . S
N548 Co526 2.282 . S
N548 C552 1.332 . S
N548 C553 1.332 . S
C549 C550 1.388 . S
C549 C553 1.382 . S
C549 H572 0.950 . S
C550 C549 1.388 . S
C550 C551 1.386 . S
C551 C550 1.386 . S
C551 C552 1.382 . S
C551 H573 0.950 . S
C552 N548 1.332 . S
C552 C551 1.382 . S
C552 H554 0.952 . S
C553 N548 1.332 . S
C553 C549 1.382 . S
C553 H555 0.948 . S
H554 C552 0.952 . S
H555 C553 0.948 . S
H556 C545 0.952 1_554 S
H557 C547 0.948 . S
C558 C524 1.395 . S
C558 C528 1.391 . S
C559 C521 1.389 . S
C559 C541 1.392 . S
C560 C531 1.392 . S
C560 C533 1.389 . S
C561 C536 1.395 . S
C561 C538 1.391 . S
H562 C522 0.951 . S
H563 C523 0.950 . S
H564 C529 0.949 . S
H565 C530 0.950 . S
H566 C534 0.951 . S
H567 C535 0.950 . S
H568 C539 0.949 . S
H569 C540 0.950 . S
H570 C544 0.950 . S
H571 C546 0.950 . S
H572 C549 0.950 . S
H573 C551 0.950 . S
C278 C23 1.595 . S
C347 C49 1.524 . S
C285 C87 1.548 . S
C348 C125 1.570 . S
C401 C29 1.806 . S
C437 C61 1.571 . S
C81 C497 1.518 . S
C560 C113 1.464 . S
C400 C55 1.637 . S
C93 C444 1.476 . S
C490 C119 1.522 . S
C559 C17 1.692 . S
C151 C338 1.577 . S
C295 C177 1.534 . S
C215 C331 1.561 . S
C253 C294 1.547 . S
C506 C157 1.536 . S
C550 C189 1.454 . S
C384 C209 1.701 . S
C241 C453 1.578 . S
C507 C183 1.470 . S
C543 C221 1.647 . S
C391 C247 1.717 . S
C145 C454 1.505 . S
