# Generated by pormake.
# Topology ptr, (4,4)-cn, num edge types: 1
# Building blocks:
#     Node 0, Type 0, BuildingBlock: QUQFOY_clean_sbu_3, # of connection points: 4
#     Node 1, Type 0, BuildingBlock: QUQFOY_clean_sbu_3, # of connection points: 4
#     Node 2, Type 0, BuildingBlock: QUQFOY_clean_sbu_3, # of connection points: 4
#     Node 3, Type 0, BuildingBlock: QUQFOY_clean_sbu_3, # of connection points: 4
#     Node 4, Type 0, BuildingBlock: QUQFOY_clean_sbu_3, # of connection points: 4
#     Node 5, Type 0, BuildingBlock: QUQFOY_clean_sbu_3, # of connection points: 4
#     Node 6, Type 0, BuildingBlock: QUQFOY_clean_sbu_3, # of connection points: 4
#     Node 7, Type 0, BuildingBlock: QUQFOY_clean_sbu_3, # of connection points: 4
#     Node 8, Type 0, BuildingBlock: QUQFOY_clean_sbu_3, # of connection points: 4
#     Node 9, Type 0, BuildingBlock: QUQFOY_clean_sbu_3, # of connection points: 4
#     Node 10, Type 0, BuildingBlock: QUQFOY_clean_sbu_3, # of connection points: 4
#     Node 11, Type 0, BuildingBlock: QUQFOY_clean_sbu_3, # of connection points: 4
#     Node 12, Type 0, BuildingBlock: QUQFOY_clean_sbu_3, # of connection points: 4
#     Node 13, Type 0, BuildingBlock: QUQFOY_clean_sbu_3, # of connection points: 4
#     Node 14, Type 0, BuildingBlock: QUQFOY_clean_sbu_3, # of connection points: 4
#     Node 15, Type 0, BuildingBlock: QUQFOY_clean_sbu_3, # of connection points: 4
#     Node 16, Type 0, BuildingBlock: QUQFOY_clean_sbu_3, # of connection points: 4
#     Node 17, Type 0, BuildingBlock: QUQFOY_clean_sbu_3, # of connection points: 4
#     Node 18, Type 1, BuildingBlock: MIFKUJ_clean_linker_1, # of connection points: 4
#     Node 19, Type 1, BuildingBlock: MIFKUJ_clean_linker_1, # of connection points: 4
#     Node 20, Type 1, BuildingBlock: MIFKUJ_clean_linker_1, # of connection points: 4
#     Node 21, Type 1, BuildingBlock: MIFKUJ_clean_linker_1, # of connection points: 4
#     Node 22, Type 1, BuildingBlock: MIFKUJ_clean_linker_1, # of connection points: 4
#     Node 23, Type 1, BuildingBlock: MIFKUJ_clean_linker_1, # of connection points: 4
#     Node 24, Type 1, BuildingBlock: MIFKUJ_clean_linker_1, # of connection points: 4
#     Node 25, Type 1, BuildingBlock: MIFKUJ_clean_linker_1, # of connection points: 4
#     Node 26, Type 1, BuildingBlock: MIFKUJ_clean_linker_1, # of connection points: 4
#     Node 27, Type 1, BuildingBlock: MIFKUJ_clean_linker_1, # of connection points: 4
#     Node 28, Type 1, BuildingBlock: MIFKUJ_clean_linker_1, # of connection points: 4
#     Node 29, Type 1, BuildingBlock: MIFKUJ_clean_linker_1, # of connection points: 4
#     Node 30, Type 1, BuildingBlock: MIFKUJ_clean_linker_1, # of connection points: 4
#     Node 31, Type 1, BuildingBlock: MIFKUJ_clean_linker_1, # of connection points: 4
#     Node 32, Type 1, BuildingBlock: MIFKUJ_clean_linker_1, # of connection points: 4
#     Node 33, Type 1, BuildingBlock: MIFKUJ_clean_linker_1, # of connection points: 4
#     Node 34, Type 1, BuildingBlock: MIFKUJ_clean_linker_1, # of connection points: 4
#     Node 35, Type 1, BuildingBlock: MIFKUJ_clean_linker_1, # of connection points: 4
#     Edge 36, Type (0, 1), BuildingBlock: UVAHIK_clean_linker_0, # of connection points: 2
#     Edge 37, Type (0, 1), BuildingBlock: UVAHIK_clean_linker_0, # of connection points: 2
#     Edge 38, Type (0, 1), BuildingBlock: UVAHIK_clean_linker_0, # of connection points: 2
#     Edge 39, Type (0, 1), BuildingBlock: UVAHIK_clean_linker_0, # of connection points: 2
#     Edge 40, Type (0, 1), BuildingBlock: UVAHIK_clean_linker_0, # of connection points: 2
#     Edge 41, Type (0, 1), BuildingBlock: UVAHIK_clean_linker_0, # of connection points: 2
#     Edge 42, Type (0, 1), BuildingBlock: UVAHIK_clean_linker_0, # of connection points: 2
#     Edge 43, Type (0, 1), BuildingBlock: UVAHIK_clean_linker_0, # of connection points: 2
#     Edge 44, Type (0, 1), BuildingBlock: UVAHIK_clean_linker_0, # of connection points: 2
#     Edge 45, Type (0, 1), BuildingBlock: UVAHIK_clean_linker_0, # of connection points: 2
#     Edge 46, Type (0, 1), BuildingBlock: UVAHIK_clean_linker_0, # of connection points: 2
#     Edge 47, Type (0, 1), BuildingBlock: UVAHIK_clean_linker_0, # of connection points: 2
#     Edge 48, Type (0, 1), BuildingBlock: UVAHIK_clean_linker_0, # of connection points: 2
#     Edge 49, Type (0, 1), BuildingBlock: UVAHIK_clean_linker_0, # of connection points: 2
#     Edge 50, Type (0, 1), BuildingBlock: UVAHIK_clean_linker_0, # of connection points: 2
#     Edge 51, Type (0, 1), BuildingBlock: UVAHIK_clean_linker_0, # of connection points: 2
#     Edge 52, Type (0, 1), BuildingBlock: UVAHIK_clean_linker_0, # of connection points: 2
#     Edge 53, Type (0, 1), BuildingBlock: UVAHIK_clean_linker_0, # of connection points: 2
#     Edge 54, Type (0, 1), BuildingBlock: UVAHIK_clean_linker_0, # of connection points: 2
#     Edge 55, Type (0, 1), BuildingBlock: UVAHIK_clean_linker_0, # of connection points: 2
#     Edge 56, Type (0, 1), BuildingBlock: UVAHIK_clean_linker_0, # of connection points: 2
#     Edge 57, Type (0, 1), BuildingBlock: UVAHIK_clean_linker_0, # of connection points: 2
#     Edge 58, Type (0, 1), BuildingBlock: UVAHIK_clean_linker_0, # of connection points: 2
#     Edge 59, Type (0, 1), BuildingBlock: UVAHIK_clean_linker_0, # of connection points: 2
#     Edge 60, Type (0, 1), BuildingBlock: UVAHIK_clean_linker_0, # of connection points: 2
#     Edge 61, Type (0, 1), BuildingBlock: UVAHIK_clean_linker_0, # of connection points: 2
#     Edge 62, Type (0, 1), BuildingBlock: UVAHIK_clean_linker_0, # of connection points: 2
#     Edge 63, Type (0, 1), BuildingBlock: UVAHIK_clean_linker_0, # of connection points: 2
#     Edge 64, Type (0, 1), BuildingBlock: UVAHIK_clean_linker_0, # of connection points: 2
#     Edge 65, Type (0, 1), BuildingBlock: UVAHIK_clean_linker_0, # of connection points: 2
#     Edge 66, Type (0, 1), BuildingBlock: UVAHIK_clean_linker_0, # of connection points: 2
#     Edge 67, Type (0, 1), BuildingBlock: UVAHIK_clean_linker_0, # of connection points: 2
#     Edge 68, Type (0, 1), BuildingBlock: UVAHIK_clean_linker_0, # of connection points: 2
#     Edge 69, Type (0, 1), BuildingBlock: UVAHIK_clean_linker_0, # of connection points: 2
#     Edge 70, Type (0, 1), BuildingBlock: UVAHIK_clean_linker_0, # of connection points: 2
#     Edge 71, Type (0, 1), BuildingBlock: UVAHIK_clean_linker_0, # of connection points: 2
#     Edge 72, Type (0, 1), BuildingBlock: UVAHIK_clean_linker_0, # of connection points: 2
#     Edge 73, Type (0, 1), BuildingBlock: UVAHIK_clean_linker_0, # of connection points: 2
#     Edge 74, Type (0, 1), BuildingBlock: UVAHIK_clean_linker_0, # of connection points: 2
#     Edge 75, Type (0, 1), BuildingBlock: UVAHIK_clean_linker_0, # of connection points: 2
#     Edge 76, Type (0, 1), BuildingBlock: UVAHIK_clean_linker_0, # of connection points: 2
#     Edge 77, Type (0, 1), BuildingBlock: UVAHIK_clean_linker_0, # of connection points: 2
#     Edge 78, Type (0, 1), BuildingBlock: UVAHIK_clean_linker_0, # of connection points: 2
#     Edge 79, Type (0, 1), BuildingBlock: UVAHIK_clean_linker_0, # of connection points: 2
#     Edge 80, Type (0, 1), BuildingBlock: UVAHIK_clean_linker_0, # of connection points: 2
#     Edge 81, Type (0, 1), BuildingBlock: UVAHIK_clean_linker_0, # of connection points: 2
#     Edge 82, Type (0, 1), BuildingBlock: UVAHIK_clean_linker_0, # of connection points: 2
#     Edge 83, Type (0, 1), BuildingBlock: UVAHIK_clean_linker_0, # of connection points: 2
#     Edge 84, Type (0, 1), BuildingBlock: UVAHIK_clean_linker_0, # of connection points: 2
#     Edge 85, Type (0, 1), BuildingBlock: UVAHIK_clean_linker_0, # of connection points: 2
#     Edge 86, Type (0, 1), BuildingBlock: UVAHIK_clean_linker_0, # of connection points: 2
#     Edge 87, Type (0, 1), BuildingBlock: UVAHIK_clean_linker_0, # of connection points: 2
#     Edge 88, Type (0, 1), BuildingBlock: UVAHIK_clean_linker_0, # of connection points: 2
#     Edge 89, Type (0, 1), BuildingBlock: UVAHIK_clean_linker_0, # of connection points: 2
#     Edge 90, Type (0, 1), BuildingBlock: UVAHIK_clean_linker_0, # of connection points: 2
#     Edge 91, Type (0, 1), BuildingBlock: UVAHIK_clean_linker_0, # of connection points: 2
#     Edge 92, Type (0, 1), BuildingBlock: UVAHIK_clean_linker_0, # of connection points: 2
#     Edge 93, Type (0, 1), BuildingBlock: UVAHIK_clean_linker_0, # of connection points: 2
#     Edge 94, Type (0, 1), BuildingBlock: UVAHIK_clean_linker_0, # of connection points: 2
#     Edge 95, Type (0, 1), BuildingBlock: UVAHIK_clean_linker_0, # of connection points: 2
#     Edge 96, Type (0, 1), BuildingBlock: UVAHIK_clean_linker_0, # of connection points: 2
#     Edge 97, Type (0, 1), BuildingBlock: UVAHIK_clean_linker_0, # of connection points: 2
#     Edge 98, Type (0, 1), BuildingBlock: UVAHIK_clean_linker_0, # of connection points: 2
#     Edge 99, Type (0, 1), BuildingBlock: UVAHIK_clean_linker_0, # of connection points: 2
#     Edge 100, Type (0, 1), BuildingBlock: UVAHIK_clean_linker_0, # of connection points: 2
#     Edge 101, Type (0, 1), BuildingBlock: UVAHIK_clean_linker_0, # of connection points: 2
#     Edge 102, Type (0, 1), BuildingBlock: UVAHIK_clean_linker_0, # of connection points: 2
#     Edge 103, Type (0, 1), BuildingBlock: UVAHIK_clean_linker_0, # of connection points: 2
#     Edge 104, Type (0, 1), BuildingBlock: UVAHIK_clean_linker_0, # of connection points: 2
#     Edge 105, Type (0, 1), BuildingBlock: UVAHIK_clean_linker_0, # of connection points: 2
#     Edge 106, Type (0, 1), BuildingBlock: UVAHIK_clean_linker_0, # of connection points: 2
#     Edge 107, Type (0, 1), BuildingBlock: UVAHIK_clean_linker_0, # of connection points: 2
# Relax obj value: 0.033
# Max RMSD: 0.122
# Mean RMSD: 0.056
data_MOF--net-ptr--node1-QUQFOY_clean_sbu_3--node2-MIFKUJ_clean_linker_1--edge1-UVAHIK_clean_linker_0
_symmetry_space_group_name_H-M    P1
_symmetry_Int_Tables_number       1
_symmetry_cell_setting            triclinic
loop_
_symmetry_equiv_pos_as_xyz
'x, y, z'
_cell_length_a     112.01713
_cell_length_b     112.48919
_cell_length_c     77.815774
_cell_angle_alpha  90.361959
_cell_angle_beta   89.586322
_cell_angle_gamma 120.51158
loop_
_atom_site_label
_atom_site_type_symbol
_atom_site_fract_x
_atom_site_fract_y
_atom_site_fract_z
_atom_type_partial_charge
C0 C 0.96923 0.31885 0.00211 0.0
O1 O 0.96257 0.32457 0.00727 0.0
Cd2 Cd 0.97338 0.34744 0.01892 0.0
O3 O 0.98232 0.32487 0.00409 0.0
Cd4 Cd 0.00147 0.34636 0.01713 0.0
C5 C -0.00276 0.36503 0.98642 0.0
O6 O 0.98895 0.34948 0.04094 0.0
O7 O 0.0091 0.36691 0.03488 0.0
O8 O 0.00848 0.33275 0.03349 0.0
C9 C -0.00146 0.36162 0.04464 0.0
O10 O 0.98622 0.36206 0.99472 0.0
C11 C 0.02073 0.33824 0.02763 0.0
O12 O 0.00494 0.36033 0.99114 0.0
O13 O 0.02416 0.34748 0.01621 0.0
C14 C 0.64136 0.67372 0.02104 0.0
O15 O 0.6287 0.66776 0.01671 0.0
Cd16 Cd 0.61699 0.64579 0.00262 0.0
O17 O 0.64883 0.66857 0.01694 0.0
Cd18 Cd 0.647 0.64889 -2e-05 0.0
C19 C 0.62508 0.62658 0.02971 0.0
O20 O 0.63086 0.64779 0.97817 0.0
O21 O 0.63459 0.63079 0.97844 0.0
O22 O 0.66907 0.66587 0.98743 0.0
C23 C 0.62874 0.63661 0.97137 0.0
O24 O 0.6162 0.62925 0.0235 0.0
C25 C 0.67505 0.65897 0.98959 0.0
O26 O 0.63752 0.63275 0.02412 0.0
O27 O 0.66801 0.6473 0.99687 0.0
C28 C 0.32171 0.96887 0.0165 0.0
O29 O 0.3281 0.96301 0.01085 0.0
Cd30 Cd 0.35041 0.97573 0.99705 0.0
O31 O 0.32687 0.98181 0.01473 0.0
Cd32 Cd 0.34731 0.00199 0.00245 0.0
C33 C 0.3685 -0.00147 0.02974 0.0
O34 O 0.35002 0.99124 0.9765 0.0
O35 O 0.36727 0.01129 0.98324 0.0
O36 O 0.33133 0.00807 0.99055 0.0
C37 C 0.36182 0.00139 0.97256 0.0
O38 O 0.36677 0.98872 0.01983 0.0
C39 C 0.33708 0.02021 0.99665 0.0
O40 O 0.36174 0.00471 0.02753 0.0
O41 O 0.34773 0.02402 0.00594 0.0
C42 C 0.95883 0.64286 0.00128 0.0
O43 O 0.95233 0.63048 0.00656 0.0
Cd44 Cd 0.96391 0.6195 0.0187 0.0
O45 O 0.97192 0.6502 0.003 0.0
Cd46 Cd 0.99146 0.64875 0.0153 0.0
C47 C 0.98702 0.6246 0.98596 0.0
O48 O 0.97935 0.63451 0.04042 0.0
O49 O -0.0003 0.63777 0.03492 0.0
O50 O -0.00139 0.67176 0.02589 0.0
C51 C 0.98925 0.63278 0.04482 0.0
O52 O 0.97632 0.61648 0.99476 0.0
C53 C 0.01128 0.67706 0.0218 0.0
O54 O 0.99431 0.63734 0.98992 0.0
O55 O 0.0148 0.66924 0.01426 0.0
C56 C 0.32745 0.35996 0.02853 0.0
O57 O 0.33377 0.3728 0.02535 0.0
Cd58 Cd 0.35634 0.38477 0.01277 0.0
O59 O 0.33276 0.35269 0.0242 0.0
Cd60 Cd 0.35357 0.3554 0.00888 0.0
C61 C 0.37398 0.37569 0.04099 0.0
O62 O 0.35528 0.37201 0.98743 0.0
O63 O 0.37243 0.36842 0.98851 0.0
O64 O 0.33713 0.33343 0.99569 0.0
C65 C 0.36666 0.37416 0.98107 0.0
O66 O 0.3714 0.38473 0.0353 0.0
C67 C 0.3446 0.32801 0.99736 0.0
O68 O 0.36862 0.36379 0.03409 0.0
O69 O 0.35622 0.33525 0.00473 0.0
C70 C 0.68174 0.0302 0.99781 0.0
O71 O 0.67656 0.0374 0.00276 0.0
Cd72 Cd 0.6529 0.02684 0.01225 0.0
O73 O 0.67497 0.01714 -0.00045 0.0
Cd74 Cd 0.65308 -0.00129 0.01262 0.0
C75 C 0.63573 0.00264 0.98004 0.0
O76 O 0.64946 0.01167 0.03555 0.0
O77 O 0.63222 0.99138 0.02963 0.0
O78 O 0.66719 0.99255 0.02938 0.0
C79 C 0.63722 0.00208 0.03903 0.0
O80 O 0.63895 0.014 0.98748 0.0
C81 C 0.66145 0.98006 0.02454 0.0
O82 O 0.63978 0.99474 0.986 0.0
O83 O 0.65171 0.97606 0.01365 0.0
C84 C 0.63576 0.65866 0.32809 0.0
O85 O 0.62888 0.66433 0.33257 0.0
Cd86 Cd 0.63835 0.68544 0.34861 0.0
O87 O 0.64839 0.66393 0.33254 0.0
Cd88 Cd 0.66611 0.68385 0.3496 0.0
C89 C 0.6656 0.70672 0.32185 0.0
O90 O 0.6507 0.6836 0.37235 0.0
O91 O 0.67138 0.70128 0.37183 0.0
O92 O 0.67254 0.66777 0.3611 0.0
C93 C 0.65968 0.69485 0.37924 0.0
O94 O 0.65397 0.70339 0.32876 0.0
C95 C 0.68547 0.67544 0.35859 0.0
O96 O 0.67214 0.70066 0.32616 0.0
O97 O 0.68948 0.68704 0.35154 0.0
C98 C 0.30691 0.00909 0.35796 0.0
O99 O 0.29429 0.00388 0.35373 0.0
Cd100 Cd 0.28074 0.98132 0.34171 0.0
O101 O 0.31338 0.0027 0.35484 0.0
Cd102 Cd 0.309 0.98116 0.33994 0.0
C103 C 0.28656 0.96196 0.37122 0.0
O104 O 0.29357 0.98068 0.31742 0.0
O105 O 0.29486 0.96231 0.31998 0.0
O106 O 0.33182 0.99564 0.32709 0.0
C107 C 0.29021 0.96879 0.3118 0.0
O108 O 0.27837 0.96534 0.36448 0.0
C109 C 0.33607 0.98727 0.32963 0.0
O110 O 0.29878 0.9667 0.36534 0.0
O111 O 0.3278 0.9761 0.33731 0.0
C112 C 0.99108 0.30523 0.36358 0.0
O113 O -0.00327 0.2979 0.36302 0.0
Cd114 Cd 0.01913 0.30575 0.35049 0.0
O115 O -0.00279 0.31731 0.35719 0.0
Cd116 Cd 0.01915 0.33301 0.34212 0.0
C117 C 0.03905 0.33408 0.37549 0.0
O118 O 0.01929 0.31565 0.32311 0.0
O119 O 0.0375 0.33601 0.32234 0.0
O120 O 0.00634 0.34053 0.32452 0.0
C121 C 0.03085 0.32391 0.31614 0.0
O122 O 0.03583 0.32188 0.3712 0.0
C123 C 0.01378 0.35323 0.32824 0.0
O124 O 0.03396 0.34033 0.36754 0.0
O125 O 0.02372 0.35656 0.33858 0.0
C126 C 0.63027 0.96732 0.32874 0.0
O127 O 0.62482 0.95498 0.33404 0.0
Cd128 Cd 0.63714 0.94626 0.34958 0.0
O129 O 0.64292 0.97608 0.33195 0.0
Cd130 Cd 0.66291 0.97747 0.34745 0.0
C131 C 0.66368 0.95401 0.3207 0.0
O132 O 0.64974 0.96273 0.37156 0.0
O133 O 0.67118 0.96831 0.36989 0.0
O134 O 0.66766 -3e-05 0.35758 0.0
C135 C 0.6598 0.96219 0.37806 0.0
O136 O 0.6528 0.94511 0.3286 0.0
C137 C 0.68043 0.00636 0.35361 0.0
O138 O 0.66926 0.96682 0.3242 0.0
O139 O 0.68508 -0.00066 0.34643 0.0
C140 C 0.99305 0.69347 0.36151 0.0
O141 O -0.0009 0.70631 0.35837 0.0
Cd142 Cd 0.02105 0.71917 0.34444 0.0
O143 O -0.00147 0.68639 0.35694 0.0
Cd144 Cd 0.0199 0.69047 0.34157 0.0
C145 C 0.04069 0.7127 0.37234 0.0
O146 O 0.01946 0.7057 0.3197 0.0
O147 O 0.03783 0.70414 0.32009 0.0
O148 O 0.00538 0.66741 0.32941 0.0
C149 C 0.03089 0.70867 0.31274 0.0
O150 O 0.03785 0.72136 0.36592 0.0
C151 C 0.01422 0.66365 0.33145 0.0
O152 O 0.03506 0.70043 0.36649 0.0
O153 O 0.02555 0.67224 0.33861 0.0
C154 C 0.3466 0.36537 0.32907 0.0
O155 O 0.34035 0.37178 0.33305 0.0
Cd156 Cd 0.31742 0.36081 0.34473 0.0
O157 O 0.34113 0.35253 0.33226 0.0
Cd158 Cd 0.32011 0.33379 0.34692 0.0
C159 C 0.29961 0.33424 0.31546 0.0
O160 O 0.31774 0.34804 0.36886 0.0
O161 O 0.30057 0.32719 0.3667 0.0
O162 O 0.33528 0.32832 0.36279 0.0
C163 C 0.30612 0.33867 0.37454 0.0
O164 O 0.3023 0.34577 0.32195 0.0
C165 C 0.32935 0.31571 0.35847 0.0
O166 O 0.30503 0.32759 0.32158 0.0
O167 O 0.31911 0.31138 0.34834 0.0
C168 C 0.30145 0.99288 0.66357 0.0
O169 O 0.29482 -0.00095 0.66673 0.0
Cd170 Cd 0.30452 0.02134 0.67983 0.0
O171 O 0.31416 -0.00165 0.6678 0.0
Cd172 Cd 0.33217 0.01975 0.68249 0.0
C173 C 0.33134 0.04069 0.65173 0.0
O174 O 0.31711 0.02108 0.7043 0.0
O175 O 0.33766 0.03888 0.7024 0.0
O176 O 0.3399 0.00672 0.69928 0.0
C177 C 0.32608 0.03277 0.71017 0.0
O178 O 0.31966 0.03772 0.65816 0.0
C179 C 0.35221 0.01279 0.6935 0.0
O180 O 0.33799 0.03514 0.65752 0.0
O181 O 0.35527 0.02206 0.68225 0.0
C182 C 0.97196 0.33893 0.68049 0.0
O183 O 0.9595 0.33261 0.67532 0.0
Cd184 Cd 0.94848 0.31014 0.66271 0.0
O185 O 0.97978 0.3339 0.67786 0.0
Cd186 Cd 0.9788 0.31382 0.66259 0.0
C187 C 0.95644 0.29251 0.69268 0.0
O188 O 0.96305 0.31134 0.63958 0.0
O189 O 0.96666 0.29437 0.64252 0.0
O190 O 5e-05 0.32937 0.64748 0.0
C191 C 0.96108 0.29986 0.63405 0.0
O192 O 0.9477 0.29495 0.68554 0.0
C193 C 0.00689 0.32388 0.65246 0.0
O194 O 0.96894 0.29833 0.68737 0.0
O195 O 0.00077 0.31371 0.66267 0.0
C196 C 0.65438 0.63408 0.69128 0.0
O197 O 0.65917 0.62621 0.68799 0.0
Cd198 Cd 0.68035 0.63411 0.67221 0.0
O199 O 0.66056 0.64643 0.68578 0.0
Cd200 Cd 0.68081 0.66266 0.66838 0.0
C201 C 0.70244 0.6618 0.69772 0.0
O202 O 0.67875 0.6456 0.64723 0.0
O203 O 0.69692 0.66588 0.64515 0.0
O204 O 0.66445 0.66895 0.65793 0.0
C205 C 0.68974 0.65378 0.6391 0.0
O206 O 0.69831 0.64968 0.69208 0.0
C207 C 0.67266 0.68189 0.65871 0.0
O208 O 0.69744 0.6689 0.69187 0.0
O209 O 0.68483 0.68602 0.66414 0.0
C210 C 0.29672 0.30666 0.6602 0.0
O211 O 0.29025 0.29407 0.66468 0.0
Cd212 Cd 0.30063 0.28334 0.68022 0.0
O213 O 0.30938 0.31452 0.6643 0.0
Cd214 Cd 0.32776 0.31338 0.68061 0.0
C215 C 0.32775 0.29012 0.65284 0.0
O216 O 0.31294 0.29828 0.70368 0.0
O217 O 0.33382 0.30207 0.70274 0.0
O218 O 0.33372 0.33604 0.69161 0.0
C219 C 0.32223 0.29658 0.71043 0.0
O220 O 0.31631 0.28151 0.65995 0.0
C221 C 0.34667 0.34159 0.68913 0.0
O222 O 0.33398 0.30284 0.65706 0.0
O223 O 0.35088 0.33408 0.68229 0.0
C224 C 0.66401 0.02852 0.6852 0.0
O225 O 0.6707 0.04113 0.68081 0.0
Cd226 Cd 0.69258 0.05155 0.66627 0.0
O227 O 0.66861 0.02052 0.68149 0.0
Cd228 Cd 0.68847 0.02119 0.66623 0.0
C229 C 0.71087 0.04403 0.69539 0.0
O230 O 0.6895 0.0362 0.64308 0.0
O231 O 0.70605 0.0317 0.64358 0.0
O232 O 0.67114 -0.00168 0.65612 0.0
C233 C 0.70025 0.03736 0.63599 0.0
O234 O 0.70874 0.0529 0.68814 0.0
C235 C 0.67847 0.99284 0.65858 0.0
O236 O 0.70444 0.03147 0.69048 0.0
O237 O 0.69041 0.00048 0.66501 0.0
C238 C 0.00962 0.6936 0.66103 0.0
O239 O 0.00475 0.70139 0.6643 0.0
Cd240 Cd 0.98189 0.6931 0.67535 0.0
O241 O 0.00264 0.68075 0.66447 0.0
Cd242 Cd 0.98023 0.66416 0.6787 0.0
C243 C 0.96187 0.6672 0.64639 0.0
O244 O 0.98051 0.68024 0.70037 0.0
O245 O 0.96176 0.66041 0.69891 0.0
O246 O 0.994 0.65564 0.69222 0.0
C247 C 0.9686 0.67196 0.70644 0.0
O248 O 0.9658 0.67912 0.65261 0.0
C249 C 0.98515 0.64293 0.69027 0.0
O250 O 0.966 0.65955 0.65291 0.0
O251 O 0.97404 0.64 0.68253 0.0
H252 H 0.13923 0.30803 0.18858 0.0
H253 H 0.12146 0.30995 0.20435 0.0
H254 H 0.08982 0.27759 0.173 0.0
H255 H 0.10779 0.27543 0.15742 0.0
H256 H 0.14479 0.28834 0.18512 0.0
H257 H 0.13149 0.31345 0.14967 0.0
H258 H 0.11639 0.31865 0.13286 0.0
H259 H 0.10898 0.28608 0.0972 0.0
H260 H 0.12369 0.28046 0.11452 0.0
H261 H 0.16349 0.27981 0.11858 0.0
H262 H 0.18521 0.28684 0.10303 0.0
H263 H 0.20657 0.32208 0.13683 0.0
H264 H 0.18487 0.31525 0.15186 0.0
H265 H 0.15056 0.29565 0.12213 0.0
H266 H 0.17102 0.27622 0.16048 0.0
H267 H 0.19067 0.27902 0.17748 0.0
H268 H 0.18918 0.31046 0.208 0.0
H269 H 0.16994 0.30793 0.19079 0.0
C270 C 0.12486 0.2916 0.1718 0.0
C271 C 0.12847 0.30123 0.18519 0.0
C272 C 0.1183 0.30244 0.19405 0.0
C273 C 0.10426 0.29405 0.18976 0.0
C274 C 0.10057 0.28418 0.17659 0.0
C275 C 0.11081 0.28298 0.16765 0.0
C276 C 0.13601 0.2911 0.16202 0.0
C277 C 0.14599 0.28983 0.17132 0.0
C278 C 0.13758 0.2931 0.144 0.0
C279 C 0.1284 0.29626 0.13369 0.0
C280 C 0.12638 0.30719 0.13848 0.0
C281 C 0.11783 0.31023 0.1288 0.0
C282 C 0.11145 0.30269 0.11383 0.0
C283 C 0.11379 0.29204 0.1087 0.0
C284 C 0.12215 0.28882 0.11859 0.0
C285 C 0.17262 0.29691 0.13648 0.0
C286 C 0.17289 0.289 0.12264 0.0
C287 C 0.1853 0.29298 0.11386 0.0
C288 C 0.19758 0.30503 0.11869 0.0
C289 C 0.19726 0.31284 0.13267 0.0
C290 C 0.18489 0.30887 0.1414 0.0
C291 C 0.15945 0.29321 0.14532 0.0
C292 C 0.14905 0.29363 0.13582 0.0
C293 C 0.15789 0.29123 0.16331 0.0
C294 C 0.16905 0.29193 0.17427 0.0
C295 C 0.17494 0.2837 0.17086 0.0
C296 C 0.1861 0.28524 0.18064 0.0
C297 C 0.19157 0.29506 0.19397 0.0
C298 C 0.18537 0.30298 0.19763 0.0
C299 C 0.17426 0.30142 0.18791 0.0
H300 H 0.72903 0.88354 0.17712 0.0
H301 H 0.72647 0.89913 0.19704 0.0
H302 H 0.68465 0.88337 0.17914 0.0
H303 H 0.68715 0.86772 0.15961 0.0
H304 H 0.71282 0.85519 0.17915 0.0
H305 H 0.72298 0.88952 0.13458 0.0
H306 H 0.71862 0.90532 0.11796 0.0
H307 H 0.67806 0.87139 0.10457 0.0
H308 H 0.68266 0.8557 0.12077 0.0
H309 H 0.68052 0.82189 0.12495 0.0
H310 H 0.67403 0.80038 0.11008 0.0
H311 H 0.71502 0.80686 0.11894 0.0
H312 H 0.72118 0.82818 0.13462 0.0
H313 H 0.70132 0.84823 0.11713 0.0
H314 H 0.68591 0.81622 0.1623 0.0
H315 H 0.68335 0.79849 0.18236 0.0
H316 H 0.72585 0.82456 0.19828 0.0
H317 H 0.72847 0.84222 0.17774 0.0
C318 C 0.70833 0.87456 0.16676 0.0
C319 C 0.71941 0.88365 0.17729 0.0
C320 C 0.71796 0.89257 0.18859 0.0
C321 C 0.70533 0.89239 0.18968 0.0
C322 C 0.69446 0.88365 0.17866 0.0
C323 C 0.69593 0.8748 0.16736 0.0
C324 C 0.70901 0.86374 0.15656 0.0
C325 C 0.71082 0.85393 0.16544 0.0
C326 C 0.70568 0.86173 0.13888 0.0
C327 C 0.70316 0.87143 0.12889 0.0
C328 C 0.71316 0.88552 0.12804 0.0
C329 C 0.71062 0.89454 0.11858 0.0
C330 C 0.69799 0.88964 0.10985 0.0
C331 C 0.688 0.87551 0.1108 0.0
C332 C 0.69059 0.86651 0.12014 0.0
C333 C 0.70133 0.82663 0.13078 0.0
C334 C 0.68811 0.81867 0.12366 0.0
C335 C 0.68446 0.80641 0.11505 0.0
C336 C 0.69406 0.80192 0.11306 0.0
C337 C 0.70732 0.80991 0.12034 0.0
C338 C 0.7109 0.82213 0.12921 0.0
C339 C 0.70496 0.83966 0.13977 0.0
C340 C 0.70395 0.84983 0.13067 0.0
C341 C 0.70841 0.8417 0.1574 0.0
C342 C 0.70745 0.83047 0.16833 0.0
C343 C 0.6948 0.818 0.16976 0.0
C344 C 0.6933 0.80794 0.18139 0.0
C345 C 0.70437 0.81017 0.19198 0.0
C346 C 0.71717 0.8225 0.19019 0.0
C347 C 0.71866 0.83261 0.17853 0.0
H348 H 0.11107 0.84392 0.17174 0.0
H349 H 0.09385 0.82522 0.18981 0.0
H350 H 0.10788 0.79828 0.17037 0.0
H351 H 0.12496 0.81694 0.15236 0.0
H352 H 0.13934 0.85513 0.17376 0.0
H353 H 0.10347 0.8295 0.13131 0.0
H354 H 0.08778 0.80852 0.11545 0.0
H355 H 0.12307 0.80791 0.09352 0.0
H356 H 0.13852 0.82806 0.11043 0.0
H357 H 0.16953 0.85671 0.11409 0.0
H358 H 0.19145 0.87165 0.09972 0.0
H359 H 0.19139 0.90748 0.12009 0.0
H360 H 0.16889 0.89236 0.13374 0.0
H361 H 0.14506 0.85261 0.11087 0.0
H362 H 0.17839 0.86826 0.15581 0.0
H363 H 0.19693 0.88452 0.17463 0.0
H364 H 0.17087 0.90019 0.19238 0.0
H365 H 0.1523 0.88383 0.17344 0.0
C366 C 0.11916 0.83176 0.16056 0.0
C367 C 0.1103 0.83392 0.17126 0.0
C368 C 0.10052 0.82326 0.18161 0.0
C369 C 0.09949 0.81026 0.18149 0.0
C370 C 0.10823 0.80808 0.17053 0.0
C371 C 0.11802 0.81875 0.16023 0.0
C372 C 0.13029 0.84334 0.15068 0.0
C373 C 0.14043 0.85473 0.15993 0.0
C374 C 0.13195 0.84252 0.13273 0.0
C375 C 0.12221 0.83031 0.1223 0.0
C376 C 0.1078 0.82474 0.12325 0.0
C377 C 0.09884 0.81282 0.11396 0.0
C378 C 0.10411 0.80639 0.10327 0.0
C379 C 0.11856 0.81231 0.10192 0.0
C380 C 0.12746 0.82402 0.11142 0.0
C381 C 0.16757 0.8734 0.12505 0.0
C382 C 0.17412 0.86779 0.1153 0.0
C383 C 0.18678 0.87636 0.10729 0.0
C384 C 0.19329 0.89077 0.10895 0.0
C385 C 0.18662 0.89642 0.1185 0.0
C386 C 0.17383 0.8878 0.12642 0.0
C387 C 0.15439 0.86396 0.13406 0.0
C388 C 0.14378 0.85312 0.12464 0.0
C389 C 0.15268 0.8648 0.15197 0.0
C390 C 0.16405 0.875 0.16302 0.0
C391 C 0.17674 0.87534 0.16355 0.0
C392 C 0.18734 0.88465 0.17431 0.0
C393 C 0.1854 0.8937 0.18492 0.0
C394 C 0.17264 0.89329 0.18443 0.0
C395 C 0.16205 0.88399 0.1736 0.0
H396 H 0.27576 0.15947 0.84532 0.0
H397 H 0.2769 0.17774 0.82716 0.0
H398 H 0.31823 0.20582 0.84567 0.0
H399 H 0.31704 0.18755 0.86368 0.0
H400 H 0.29228 0.14805 0.8449 0.0
H401 H 0.28254 0.17546 0.88479 0.0
H402 H 0.28793 0.197 0.89914 0.0
H403 H 0.32431 0.19933 0.92149 0.0
H404 H 0.31944 0.17848 0.90615 0.0
H405 H 0.31949 0.14575 0.90476 0.0
H406 H 0.32238 0.12968 0.9226 0.0
H407 H 0.28126 0.09706 0.90866 0.0
H408 H 0.27868 0.1132 0.89028 0.0
H409 H 0.30028 0.15354 0.90777 0.0
H410 H 0.31547 0.13291 0.8668 0.0
H411 H 0.31686 0.11583 0.84881 0.0
H412 H 0.27636 0.10309 0.8282 0.0
H413 H 0.27506 0.12031 0.84628 0.0
C414 C 0.29623 0.17221 0.85603 0.0
C415 C 0.28504 0.16958 0.84546 0.0
C416 C 0.28572 0.18 0.83508 0.0
C417 C 0.29762 0.19324 0.83508 0.0
C418 C 0.30882 0.19581 0.84563 0.0
C419 C 0.30817 0.18537 0.85591 0.0
C420 C 0.29559 0.16111 0.86686 0.0
C421 C 0.2937 0.14909 0.85872 0.0
C422 C 0.29802 0.16277 0.88479 0.0
C423 C 0.30068 0.17543 0.89416 0.0
C424 C 0.29177 0.18072 0.89261 0.0
C425 C 0.29478 0.19296 0.90102 0.0
C426 C 0.30663 0.20001 0.91141 0.0
C427 C 0.31528 0.19442 0.9133 0.0
C428 C 0.31239 0.18234 0.9047 0.0
C429 C 0.29888 0.13065 0.89621 0.0
C430 C 0.31111 0.13512 0.90555 0.0
C431 C 0.31269 0.12593 0.91585 0.0
C432 C 0.302 0.11208 0.91723 0.0
C433 C 0.28977 0.10761 0.90776 0.0
C434 C 0.28824 0.11681 0.8973 0.0
C435 C 0.29725 0.14067 0.88577 0.0
C436 C 0.29858 0.15239 0.894 0.0
C437 C 0.29486 0.13901 0.86787 0.0
C438 C 0.29508 0.12776 0.85807 0.0
C439 C 0.30674 0.12622 0.85872 0.0
C440 C 0.30753 0.11645 0.84839 0.0
C441 C 0.29671 0.10808 0.83707 0.0
C442 C 0.28493 0.10948 0.83665 0.0
C443 C 0.28414 0.11926 0.84702 0.0
H444 H 0.84482 0.11358 0.83677 0.0
H445 H 0.82506 0.09778 0.81896 0.0
H446 H 0.79965 0.1111 0.84504 0.0
H447 H 0.8195 0.12721 0.86222 0.0
H448 H 0.85599 0.14147 0.83566 0.0
H449 H 0.83587 0.10653 0.88211 0.0
H450 H 0.81612 0.09085 0.90016 0.0
H451 H 0.81134 0.12512 0.9162 0.0
H452 H 0.83131 0.14064 0.8988 0.0
H453 H 0.87052 0.18179 0.86987 0.0
H454 H 0.88548 0.20323 0.88536 0.0
H455 H 0.90197 0.18248 0.91496 0.0
H456 H 0.88717 0.16108 0.89907 0.0
H457 H 0.85812 0.14764 0.89892 0.0
H458 H 0.85971 0.16555 0.83079 0.0
H459 H 0.87439 0.18449 0.8117 0.0
H460 H 0.91078 0.18945 0.83727 0.0
H461 H 0.8959 0.16993 0.85608 0.0
C462 C 0.83362 0.12146 0.85098 0.0
C463 C 0.83492 0.1129 0.83882 0.0
C464 C 0.8236 0.10383 0.82872 0.0
C465 C 0.8108 0.10324 0.83051 0.0
C466 C 0.8094 0.11142 0.8432 0.0
C467 C 0.82071 0.1205 0.85322 0.0
C468 C 0.84603 0.13256 0.85978 0.0
C469 C 0.85664 0.14269 0.84953 0.0
C470 C 0.84663 0.13433 0.87783 0.0
C471 C 0.83509 0.12475 0.8892 0.0
C472 C 0.83061 0.11062 0.88968 0.0
C473 C 0.81926 0.10167 0.89992 0.0
C474 C 0.81211 0.10668 0.90973 0.0
C475 C 0.81674 0.12088 0.9092 0.0
C476 C 0.82815 0.12981 0.89917 0.0
C477 C 0.87787 0.1699 0.88317 0.0
C478 C 0.87756 0.18192 0.87945 0.0
C479 C 0.886 0.19413 0.88844 0.0
C480 C 0.89486 0.19452 0.90144 0.0
C481 C 0.89536 0.18253 0.9049 0.0
C482 C 0.88688 0.1703 0.89591 0.0
C483 C 0.86796 0.15667 0.87476 0.0
C484 C 0.85782 0.14616 0.8851 0.0
C485 C 0.86734 0.15496 0.8567 0.0
C486 C 0.87667 0.1663 0.84491 0.0
C487 C 0.87085 0.17058 0.83221 0.0
C488 C 0.87927 0.18156 0.82142 0.0
C489 C 0.89377 0.18863 0.82311 0.0
C490 C 0.89966 0.1842 0.83563 0.0
C491 C 0.89117 0.17312 0.84645 0.0
H492 H 0.82787 0.68963 0.83295 0.0
H493 H 0.80852 0.686 0.81526 0.0
H494 H 0.80834 0.72029 0.84039 0.0
H495 H 0.82822 0.72418 0.85789 0.0
H496 H 0.85318 0.71002 0.83497 0.0
H497 H 0.81488 0.68612 0.87325 0.0
H498 H 0.79432 0.68119 0.88996 0.0
H499 H 0.818 0.72005 0.91671 0.0
H500 H 0.83856 0.72503 0.8997 0.0
H501 H 0.87984 0.72247 0.90236 0.0
H502 H 0.89307 0.71529 0.92021 0.0
H503 H 0.877 0.6777 0.8905 0.0
H504 H 0.86369 0.68477 0.87305 0.0
H505 H 0.85065 0.7076 0.89858 0.0
H506 H 0.89128 0.72316 0.86144 0.0
H507 H 0.90819 0.71957 0.84556 0.0
H508 H 0.87491 0.68717 0.81601 0.0
H509 H 0.85815 0.6904 0.83228 0.0
C510 C 0.82952 0.70719 0.84674 0.0
C511 C 0.82376 0.69646 0.83461 0.0
C512 C 0.81257 0.69428 0.82465 0.0
C513 C 0.80678 0.70275 0.82658 0.0
C514 C 0.8126 0.71361 0.83861 0.0
C515 C 0.82389 0.71579 0.84866 0.0
C516 C 0.84129 0.709 0.85734 0.0
C517 C 0.85269 0.7096 0.8489 0.0
C518 C 0.84071 0.70858 0.8755 0.0
C519 C 0.82817 0.70603 0.88508 0.0
C520 C 0.8156 0.69366 0.88255 0.0
C521 C 0.8039 0.6908 0.89223 0.0
C522 C 0.80457 0.70022 0.90469 0.0
C523 C 0.81716 0.71266 0.9071 0.0
C524 C 0.8289 0.71549 0.89746 0.0
C525 C 0.87095 0.70424 0.88626 0.0
C526 C 0.87928 0.71274 0.89966 0.0
C527 C 0.88685 0.70866 0.90978 0.0
C528 C 0.88601 0.69591 0.90677 0.0
C529 C 0.87774 0.6875 0.89324 0.0
C530 C 0.87025 0.6916 0.88314 0.0
C531 C 0.8622 0.70797 0.87615 0.0
C532 C 0.85145 0.70858 0.8847 0.0
C533 C 0.86293 0.70864 0.85799 0.0
C534 C 0.87343 0.70703 0.8481 0.0
C535 C 0.88765 0.71524 0.8516 0.0
C536 C 0.8973 0.71324 0.84244 0.0
C537 C 0.89289 0.70302 0.8296 0.0
C538 C 0.87866 0.69496 0.82602 0.0
C539 C 0.86906 0.69693 0.83518 0.0
H540 H 0.80113 0.64038 0.51769 0.0
H541 H 0.78223 0.63978 0.53414 0.0
H542 H 0.75254 0.60914 0.49935 0.0
H543 H 0.77155 0.60945 0.48306 0.0
H544 H 0.80835 0.6227 0.51276 0.0
H545 H 0.79716 0.64902 0.47571 0.0
H546 H 0.7826 0.65479 0.45856 0.0
H547 H 0.77033 0.61871 0.42699 0.0
H548 H 0.78494 0.61295 0.44431 0.0
H549 H 0.8275 0.61438 0.44674 0.0
H550 H 0.8494 0.6211 0.43182 0.0
H551 H 0.87048 0.65672 0.46509 0.0
H552 H 0.8486 0.65022 0.47947 0.0
H553 H 0.81428 0.63016 0.44979 0.0
H554 H 0.83526 0.61144 0.48866 0.0
H555 H 0.85489 0.6146 0.50602 0.0
H556 H 0.8526 0.64585 0.53602 0.0
H557 H 0.83341 0.64296 0.51843 0.0
C558 C 0.78779 0.62495 0.49913 0.0
C559 C 0.79056 0.63342 0.51364 0.0
C560 C 0.77977 0.63309 0.52303 0.0
C561 C 0.76595 0.62435 0.51806 0.0
C562 C 0.76313 0.61601 0.50338 0.0
C563 C 0.77397 0.61621 0.49407 0.0
C564 C 0.79948 0.62527 0.48958 0.0
C565 C 0.80962 0.62431 0.49898 0.0
C566 C 0.80115 0.62731 0.4716 0.0
C567 C 0.79201 0.63048 0.46138 0.0
C568 C 0.79126 0.6423 0.46517 0.0
C569 C 0.78303 0.64564 0.45528 0.0
C570 C 0.77536 0.63721 0.44141 0.0
C571 C 0.77606 0.62533 0.43768 0.0
C572 C 0.78442 0.62206 0.4475 0.0
C573 C 0.83649 0.63171 0.46433 0.0
C574 C 0.83687 0.62362 0.45078 0.0
C575 C 0.84938 0.62742 0.44237 0.0
C576 C 0.86166 0.63945 0.44727 0.0
C577 C 0.86118 0.64749 0.46087 0.0
C578 C 0.84872 0.64371 0.46922 0.0
C579 C 0.82327 0.62798 0.47308 0.0
C580 C 0.81278 0.62814 0.46349 0.0
C581 C 0.82168 0.62604 0.49108 0.0
C582 C 0.83291 0.62703 0.50216 0.0
C583 C 0.83901 0.61896 0.49898 0.0
C584 C 0.85016 0.62072 0.50897 0.0
C585 C 0.85539 0.63057 0.52228 0.0
C586 C 0.849 0.63835 0.52567 0.0
C587 C 0.8379 0.63659 0.51574 0.0
H588 H 0.39499 0.21839 0.51359 0.0
H589 H 0.3918 0.23358 0.5335 0.0
H590 H 0.35041 0.21783 0.51405 0.0
H591 H 0.3535 0.20253 0.49459 0.0
H592 H 0.3793 0.19 0.5142 0.0
H593 H 0.38993 0.22549 0.47074 0.0
H594 H 0.38574 0.24134 0.45397 0.0
H595 H 0.34553 0.20734 0.43949 0.0
H596 H 0.35002 0.1916 0.45575 0.0
H597 H 0.34949 0.15862 0.45698 0.0
H598 H 0.34397 0.13774 0.44122 0.0
H599 H 0.3845 0.1441 0.45296 0.0
H600 H 0.38977 0.16491 0.46934 0.0
H601 H 0.3696 0.18501 0.45168 0.0
H602 H 0.35458 0.15088 0.49453 0.0
H603 H 0.35319 0.13253 0.51243 0.0
H604 H 0.39456 0.16026 0.53108 0.0
H605 H 0.39594 0.17865 0.51287 0.0
C606 C 0.37455 0.20943 0.50248 0.0
C607 C 0.38532 0.21838 0.51347 0.0
C608 C 0.38351 0.22709 0.52476 0.0
C609 C 0.37083 0.22683 0.52537 0.0
C610 C 0.36024 0.21816 0.51398 0.0
C611 C 0.36206 0.20952 0.5027 0.0
C612 C 0.3757 0.19903 0.49193 0.0
C613 C 0.37765 0.18915 0.50041 0.0
C614 C 0.37289 0.19757 0.47411 0.0
C615 C 0.37032 0.20737 0.46443 0.0
C616 C 0.38022 0.2215 0.46395 0.0
C617 C 0.37777 0.23055 0.45441 0.0
C618 C 0.36531 0.22563 0.44525 0.0
C619 C 0.35536 0.21147 0.44601 0.0
C620 C 0.35788 0.20245 0.4554 0.0
C621 C 0.37005 0.16334 0.46425 0.0
C622 C 0.35723 0.15557 0.45608 0.0
C623 C 0.35412 0.14365 0.44698 0.0
C624 C 0.36386 0.1393 0.4456 0.0
C625 C 0.37673 0.14709 0.45386 0.0
C626 C 0.37979 0.15901 0.46315 0.0
C627 C 0.37299 0.1759 0.47397 0.0
C628 C 0.37181 0.18615 0.46534 0.0
C629 C 0.37593 0.17737 0.49177 0.0
C630 C 0.37548 0.16608 0.50206 0.0
C631 C 0.36349 0.15295 0.50213 0.0
C632 C 0.3627 0.14245 0.51242 0.0
C633 C 0.37381 0.1449 0.52309 0.0
C634 C 0.38581 0.15807 0.52304 0.0
C635 C 0.38663 0.16857 0.51262 0.0
H636 H 0.77192 0.15929 0.47555 0.0
H637 H 0.75612 0.1383 0.49149 0.0
H638 H 0.7913 0.13816 0.51375 0.0
H639 H 0.80693 0.15873 0.49739 0.0
H640 H 0.81119 0.18368 0.49875 0.0
H641 H 0.78019 0.17193 0.43541 0.0
H642 H 0.7644 0.15185 0.4179 0.0
H643 H 0.78254 0.12911 0.43873 0.0
H644 H 0.79837 0.14921 0.45588 0.0
H645 H 0.83551 0.19601 0.43165 0.0
H646 H 0.85562 0.21511 0.41782 0.0
H647 H 0.85089 0.24404 0.44973 0.0
H648 H 0.8305 0.22479 0.46342 0.0
H649 H 0.80947 0.18668 0.43533 0.0
H650 H 0.84826 0.20397 0.47284 0.0
H651 H 0.86751 0.2194 0.49143 0.0
H652 H 0.83958 0.22663 0.52234 0.0
H653 H 0.82034 0.2111 0.50371 0.0
C654 C 0.7906 0.16056 0.48526 0.0
C655 C 0.77619 0.15463 0.48374 0.0
C656 C 0.76719 0.14271 0.49294 0.0
C657 C 0.77246 0.13653 0.50382 0.0
C658 C 0.78689 0.1425 0.50525 0.0
C659 C 0.79585 0.15437 0.49607 0.0
C660 C 0.80032 0.17323 0.4757 0.0
C661 C 0.81072 0.18442 0.4849 0.0
C662 C 0.79991 0.17405 0.45761 0.0
C663 C 0.79031 0.16197 0.44707 0.0
C664 C 0.78074 0.1626 0.43615 0.0
C665 C 0.77171 0.15113 0.42624 0.0
C666 C 0.77225 0.13892 0.42694 0.0
C667 C 0.78197 0.13841 0.43776 0.0
C668 C 0.79093 0.14984 0.4477 0.0
C669 C 0.83157 0.20894 0.4487 0.0
C670 C 0.83857 0.20646 0.4354 0.0
C671 C 0.85007 0.21741 0.42749 0.0
C672 C 0.85485 0.23106 0.43274 0.0
C673 C 0.8475 0.2336 0.44556 0.0
C674 C 0.83588 0.22262 0.45338 0.0
C675 C 0.82047 0.19714 0.45838 0.0
C676 C 0.80975 0.18613 0.44922 0.0
C677 C 0.82102 0.19618 0.47646 0.0
C678 C 0.83289 0.2065 0.4868 0.0
C679 C 0.84634 0.20909 0.48343 0.0
C680 C 0.85734 0.21792 0.49406 0.0
C681 C 0.85507 0.22422 0.5084 0.0
C682 C 0.84163 0.2218 0.51153 0.0
C683 C 0.83065 0.21299 0.50087 0.0
H684 H 0.96459 0.50198 0.1779 0.0
H685 H 0.9631 0.51947 0.1611 0.0
H686 H 0.00442 0.55001 0.17724 0.0
H687 H 0.00578 0.53248 0.19412 0.0
H688 H 0.98269 0.49273 0.17475 0.0
H689 H 0.97129 0.51668 0.21704 0.0
H690 H 0.97443 0.5368 0.23293 0.0
H691 H 0.01284 0.54273 0.25363 0.0
H692 H 0.01016 0.52331 0.23661 0.0
H693 H 0.01167 0.489 0.23267 0.0
H694 H 0.01441 0.47179 0.24833 0.0
H695 H 0.97267 0.44056 0.23446 0.0
H696 H 0.97023 0.45779 0.21836 0.0
H697 H 0.99266 0.49747 0.23723 0.0
H698 H 0.00677 0.47732 0.19356 0.0
H699 H 0.00658 0.45921 0.17592 0.0
H700 H 0.96517 0.44668 0.15892 0.0
H701 H 0.96548 0.46494 0.17655 0.0
C702 C 0.98524 0.51596 0.18736 0.0
C703 C 0.97331 0.51245 0.17782 0.0
C704 C 0.97249 0.52245 0.1682 0.0
C705 C 0.98364 0.53614 0.16786 0.0
C706 C 0.99557 0.53962 0.17746 0.0
C707 C 0.99638 0.52961 0.18707 0.0
C708 C 0.98612 0.50525 0.19732 0.0
C709 C 0.98463 0.49366 0.18848 0.0
C710 C 0.9891 0.5067 0.21513 0.0
C711 C 0.99062 0.51861 0.22533 0.0
C712 C 0.98051 0.52246 0.22477 0.0
C713 C 0.98222 0.53387 0.23411 0.0
C714 C 0.99393 0.54149 0.24457 0.0
C715 C 0.00385 0.53735 0.24545 0.0
C716 C 0.00224 0.5261 0.23587 0.0
C717 C 0.99079 0.47463 0.22431 0.0
C718 C 0.00312 0.47844 0.23305 0.0
C719 C 0.00463 0.46859 0.24206 0.0
C720 C 0.99375 0.45477 0.24269 0.0
C721 C 0.98134 0.45105 0.23401 0.0
C722 C 0.97989 0.46088 0.22488 0.0
C723 C 0.9893 0.48508 0.21463 0.0
C724 C 0.99062 0.49655 0.22353 0.0
C725 C 0.9864 0.48366 0.19685 0.0
C726 C 0.98608 0.47238 0.18651 0.0
C727 C -0.00242 0.47056 0.18621 0.0
C728 C -0.00256 0.46018 0.17614 0.0
C729 C 0.98584 0.45146 0.16605 0.0
C730 C 0.97432 0.45331 0.1664 0.0
C731 C 0.97446 0.4637 0.1765 0.0
H732 H 0.51178 0.44417 0.18015 0.0
H733 H 0.49155 0.42615 0.16481 0.0
H734 H 0.46943 0.44756 0.17625 0.0
H735 H 0.48936 0.46501 0.192 0.0
H736 H 0.52516 0.47374 0.17129 0.0
H737 H 0.50424 0.44369 0.22161 0.0
H738 H 0.4837 0.42901 0.23905 0.0
H739 H 0.47705 0.4634 0.24632 0.0
H740 H 0.49786 0.47803 0.22957 0.0
H741 H 0.54005 0.51744 0.19832 0.0
H742 H 0.55531 0.54003 0.2113 0.0
H743 H 0.56904 0.52104 0.24825 0.0
H744 H 0.55399 0.49851 0.23493 0.0
H745 H 0.52531 0.48579 0.23274 0.0
H746 H 0.53019 0.49667 0.16055 0.0
H747 H 0.5462 0.5133 0.13976 0.0
H748 H 0.58072 0.52134 0.17202 0.0
H749 H 0.56462 0.50416 0.19272 0.0
C750 C 0.50197 0.4558 0.18734 0.0
C751 C 0.50245 0.44478 0.17953 0.0
C752 C 0.4909 0.43455 0.17069 0.0
C753 C 0.47878 0.43532 0.16927 0.0
C754 C 0.47838 0.44635 0.17737 0.0
C755 C 0.48983 0.45643 0.18633 0.0
C756 C 0.51441 0.46732 0.19546 0.0
C757 C 0.52541 0.47632 0.18479 0.0
C758 C 0.51447 0.47068 0.21297 0.0
C759 C 0.50259 0.46195 0.22439 0.0
C760 C 0.49841 0.44806 0.22717 0.0
C761 C 0.48659 0.43966 0.23702 0.0
C762 C 0.47865 0.44498 0.24413 0.0
C763 C 0.48302 0.45897 0.24141 0.0
C764 C 0.49491 0.46738 0.23176 0.0
C765 C 0.54602 0.50633 0.21554 0.0
C766 C 0.54654 0.51818 0.20902 0.0
C767 C 0.55515 0.53106 0.21656 0.0
C768 C 0.56336 0.53232 0.23083 0.0
C769 C 0.56298 0.52044 0.23715 0.0
C770 C 0.55433 0.50756 0.22962 0.0
C771 C 0.53606 0.49253 0.20847 0.0
C772 C 0.52546 0.48309 0.21936 0.0
C773 C 0.53606 0.48913 0.19089 0.0
C774 C 0.54615 0.49912 0.17827 0.0
C775 C 0.54121 0.5018 0.16309 0.0
C776 C 0.55037 0.51133 0.1512 0.0
C777 C 0.56469 0.51854 0.15426 0.0
C778 C 0.56971 0.51593 0.16942 0.0
C779 C 0.56051 0.50617 0.18124 0.0
H780 H 0.54482 0.03226 0.19548 0.0
H781 H 0.56191 0.03051 0.17758 0.0
H782 H 0.52885 -0.00035 0.14621 0.0
H783 H 0.51186 0.001 0.16457 0.0
H784 H 0.50668 0.02059 0.17111 0.0
H785 H 0.53374 0.02934 0.23666 0.0
H786 H 0.54941 0.02365 0.25148 0.0
H787 H 0.53554 0.98784 0.21878 0.0
H788 H 0.51968 0.99341 0.20435 0.0
H789 H 0.47966 0.99669 0.23551 0.0
H790 H 0.46036 0.99391 0.253 0.0
H791 H 0.46467 0.03114 0.23105 0.0
H792 H 0.48476 0.03445 0.21459 0.0
H793 H 0.50521 0.01375 0.23413 0.0
H794 H 0.46761 0.00056 0.19471 0.0
H795 H 0.45005 0.00108 0.17666 0.0
H796 H 0.48155 0.03929 0.15404 0.0
H797 H 0.49902 0.03902 0.17248 0.0
C798 C 0.52704 0.01667 0.18148 0.0
C799 C 0.54127 0.02504 0.18483 0.0
C800 C 0.55103 0.02412 0.17449 0.0
C801 C 0.54676 0.01487 0.16051 0.0
C802 C 0.53251 0.00669 0.15705 0.0
C803 C 0.52278 0.00757 0.16742 0.0
C804 C 0.5165 0.0172 0.19262 0.0
C805 C 0.50639 0.01921 0.18493 0.0
C806 C 0.51602 0.01519 0.21058 0.0
C807 C 0.52567 0.01187 0.21932 0.0
C808 C 0.5341 0.02027 0.23272 0.0
C809 C 0.5431 0.01706 0.24107 0.0
C810 C 0.54373 0.00531 0.23626 0.0
C811 C 0.53521 0.99689 0.22288 0.0
C812 C 0.52623 0.00012 0.21452 0.0
C813 C 0.48361 0.0157 0.22353 0.0
C814 C 0.4766 0.00439 0.23464 0.0
C815 C 0.46539 0.0027 0.24448 0.0
C816 C 0.46074 0.01216 0.24329 0.0
C817 C 0.46797 0.02367 0.23243 0.0
C818 C 0.47938 0.02549 0.2228 0.0
C819 C 0.49513 0.01693 0.2126 0.0
C820 C 0.50554 0.01536 0.22036 0.0
C821 C 0.49559 0.01891 0.19458 0.0
C822 C 0.48463 0.01983 0.18508 0.0
C823 C 0.47068 0.00927 0.18625 0.0
C824 C 0.46066 0.00955 0.17593 0.0
C825 C 0.46449 0.02022 0.16399 0.0
C826 C 0.47837 0.03093 0.16312 0.0
C827 C 0.48833 0.03077 0.17362 0.0
H828 H 0.48556 0.00461 0.84436 0.0
H829 H 0.46832 0.00763 0.85984 0.0
H830 H 0.43612 0.96772 0.8415 0.0
H831 H 0.4535 0.96528 0.82514 0.0
H832 H 0.49094 0.98227 0.8476 0.0
H833 H 0.47595 0.00398 0.80811 0.0
H834 H 0.45931 0.00673 0.79139 0.0
H835 H 0.45051 0.97073 0.76124 0.0
H836 H 0.46634 0.96737 0.77918 0.0
H837 H 0.50362 0.96519 0.78228 0.0
H838 H 0.52398 0.96768 0.76695 0.0
H839 H 0.55023 0.00469 0.79612 0.0
H840 H 0.52996 0.00216 0.81129 0.0
H841 H 0.49346 0.98288 0.7839 0.0
H842 H 0.51146 0.96327 0.82403 0.0
H843 H 0.52991 0.96347 0.84097 0.0
H844 H 0.53531 -0.00074 0.86875 0.0
H845 H 0.5173 -0.00069 0.85139 0.0
C846 C 0.47077 0.98473 0.83368 0.0
C847 C 0.47477 0.99654 0.8437 0.0
C848 C 0.46487 -0.00182 0.85263 0.0
C849 C 0.45077 0.98785 0.85213 0.0
C850 C 0.44682 0.97598 0.84204 0.0
C851 C 0.45674 0.97449 0.83279 0.0
C852 C 0.48142 0.98329 0.82417 0.0
C853 C 0.49151 0.98238 0.83367 0.0
C854 C 0.48196 0.98329 0.806 0.0
C855 C 0.47212 0.98521 0.7953 0.0
C856 C 0.47019 0.99646 0.7982 0.0
C857 C 0.46083 -0.00181 0.78832 0.0
C858 C 0.45347 0.98896 0.77487 0.0
C859 C 0.45572 0.9779 0.77168 0.0
C860 C 0.4649 0.97603 0.78183 0.0
C861 C 0.51532 0.98336 0.7981 0.0
C862 C 0.51378 0.97381 0.78535 0.0
C863 C 0.5254 0.97526 0.77661 0.0
C864 C 0.53871 0.9863 0.78046 0.0
C865 C 0.54016 0.9959 0.79313 0.0
C866 C 0.52858 0.99448 0.80179 0.0
C867 C 0.5031 0.98201 0.80735 0.0
C868 C 0.4927 0.98239 0.79782 0.0
C869 C 0.50238 0.98177 0.82553 0.0
C870 C 0.51307 0.98136 0.83631 0.0
C871 C 0.51668 0.9712 0.83372 0.0
C872 C 0.52714 0.97125 0.84351 0.0
C873 C 0.53416 0.98144 0.85614 0.0
C874 C 0.5303 0.99141 0.85893 0.0
C875 C 0.51988 0.99136 0.84913 0.0
H876 H 0.03733 0.53706 0.85019 0.0
H877 H 0.03661 0.55486 0.86773 0.0
H878 H 0.9951 0.54086 0.84981 0.0
H879 H 0.99593 0.52322 0.83231 0.0
H880 H 0.02076 0.50899 0.85148 0.0
H881 H 0.03078 0.545 0.81066 0.0
H882 H 0.02666 0.56128 0.79496 0.0
H883 H 0.98954 0.52717 0.77315 0.0
H884 H 0.99319 0.51109 0.78983 0.0
H885 H 0.99208 0.47704 0.79366 0.0
H886 H 0.98849 0.45722 0.77675 0.0
H887 H 0.03022 0.46693 0.78834 0.0
H888 H 0.03349 0.48651 0.80591 0.0
H889 H 0.01161 0.50443 0.78883 0.0
H890 H -0.00239 0.46948 0.83061 0.0
H891 H -0.0025 0.45131 0.84755 0.0
H892 H 0.03768 0.4808 0.86806 0.0
H893 H 0.03803 0.49886 0.85027 0.0
C894 C 0.01676 0.52894 0.83978 0.0
C895 C 0.0281 0.53787 0.85004 0.0
C896 C 0.02766 0.54801 0.86007 0.0
C897 C 0.01583 0.54934 0.86008 0.0
C898 C 0.00447 0.54031 0.84983 0.0
C899 C 0.00491 0.53018 0.83985 0.0
C900 C 0.01713 0.51807 0.82929 0.0
C901 C 0.01908 0.50816 0.83771 0.0
C902 C 0.01443 0.51676 0.81141 0.0
C903 C 0.01221 0.52679 0.80164 0.0
C904 C 0.02163 0.54105 0.80272 0.0
C905 C 0.01935 0.55035 0.79351 0.0
C906 C 0.00773 0.54559 0.78275 0.0
C907 C -0.00156 0.53129 0.78153 0.0
C908 C 0.00062 0.52203 0.79092 0.0
C909 C 0.01305 0.48324 0.80098 0.0
C910 C 0.00045 0.47489 0.79254 0.0
C911 C -0.00154 0.4636 0.78278 0.0
C912 C 0.00913 0.46053 0.78097 0.0
C913 C 0.02174 0.46889 0.78957 0.0
C914 C 0.02366 0.48013 0.79954 0.0
C915 C 0.01499 0.49529 0.81106 0.0
C916 C 0.01355 0.50544 0.80255 0.0
C917 C 0.01774 0.49661 0.82889 0.0
C918 C 0.01794 0.48551 0.83891 0.0
C919 C 0.00655 0.472 0.83844 0.0
C920 C 0.00641 0.46164 0.84836 0.0
C921 C 0.01756 0.46458 0.85926 0.0
C922 C 0.02901 0.47812 0.85966 0.0
C923 C 0.02917 0.48848 0.8496 0.0
H924 H 0.44693 0.50732 0.84102 0.0
H925 H 0.43194 0.4877 0.85937 0.0
H926 H 0.44564 0.46292 0.83258 0.0
H927 H 0.46097 0.48275 0.81471 0.0
H928 H 0.47539 0.51956 0.8396 0.0
H929 H 0.43677 0.49413 0.79992 0.0
H930 H 0.42114 0.47301 0.78421 0.0
H931 H 0.45613 0.47613 0.75625 0.0
H932 H 0.47169 0.49655 0.77279 0.0
H933 H 0.50143 0.52852 0.77333 0.0
H934 H 0.522 0.54649 0.7588 0.0
H935 H 0.51935 0.57761 0.78856 0.0
H936 H 0.49838 0.55955 0.80279 0.0
H937 H 0.47605 0.52082 0.77591 0.0
H938 H 0.51309 0.53673 0.81508 0.0
H939 H 0.53273 0.55263 0.8328 0.0
H940 H 0.50617 0.56323 0.86134 0.0
H941 H 0.48661 0.5476 0.84312 0.0
C942 C 0.45495 0.49645 0.82641 0.0
C943 C 0.44659 0.49762 0.83902 0.0
C944 C 0.43796 0.48636 0.8494 0.0
C945 C 0.43759 0.47374 0.84743 0.0
C946 C 0.44578 0.47254 0.83453 0.0
C947 C 0.45444 0.48381 0.82419 0.0
C948 C 0.46497 0.50874 0.81649 0.0
C949 C 0.47535 0.51999 0.82567 0.0
C950 C 0.46529 0.50894 0.79829 0.0
C951 C 0.45545 0.49684 0.78777 0.0
C952 C 0.44107 0.49019 0.7905 0.0
C953 C 0.43212 0.47819 0.78134 0.0
C954 C 0.43736 0.47274 0.76906 0.0
C955 C 0.45172 0.4798 0.76588 0.0
C956 C 0.46064 0.49163 0.77519 0.0
C957 C 0.49839 0.54265 0.78927 0.0
C958 C 0.50505 0.53921 0.77649 0.0
C959 C 0.51682 0.54949 0.7682 0.0
C960 C 0.52225 0.56342 0.7726 0.0
C961 C 0.51541 0.56693 0.78505 0.0
C962 C 0.50347 0.55662 0.79318 0.0
C963 C 0.48663 0.53149 0.79901 0.0
C964 C 0.47589 0.52053 0.78985 0.0
C965 C 0.48645 0.5311 0.81719 0.0
C966 C 0.49843 0.54113 0.82762 0.0
C967 C 0.51154 0.54265 0.82497 0.0
C968 C 0.52273 0.55163 0.83523 0.0
C969 C 0.52101 0.55918 0.84851 0.0
C970 C 0.50787 0.5577 0.85109 0.0
C971 C 0.49667 0.54871 0.84078 0.0
H972 H 0.61161 0.82509 0.51032 0.0
H973 H 0.61568 0.84452 0.49222 0.0
H974 H 0.65492 0.87024 0.51746 0.0
H975 H 0.65105 0.85065 0.53493 0.0
H976 H 0.62717 0.81274 0.51164 0.0
H977 H 0.61513 0.83864 0.55122 0.0
H978 H 0.62042 0.85989 0.56628 0.0
H979 H 0.65393 0.85932 0.59279 0.0
H980 H 0.64927 0.8388 0.57683 0.0
H981 H 0.64904 0.80841 0.57565 0.0
H982 H 0.65293 0.79223 0.59168 0.0
H983 H 0.61735 0.75816 0.56721 0.0
H984 H 0.61297 0.77452 0.55197 0.0
H985 H 0.62993 0.81427 0.57524 0.0
H986 H 0.64885 0.7966 0.5337 0.0
H987 H 0.65066 0.77962 0.51588 0.0
H988 H 0.61083 0.76731 0.49345 0.0
H989 H 0.60912 0.78439 0.51132 0.0
C990 C 0.63094 0.83647 0.52411 0.0
C991 C 0.62106 0.83494 0.51196 0.0
C992 C 0.62335 0.84608 0.50174 0.0
C993 C 0.63562 0.85895 0.50342 0.0
C994 C 0.64544 0.86045 0.51571 0.0
C995 C 0.64316 0.8493 0.52585 0.0
C996 C 0.62883 0.8245 0.53439 0.0
C997 C 0.62747 0.81294 0.52558 0.0
C998 C 0.62968 0.82498 0.55255 0.0
C999 C 0.63192 0.8372 0.56266 0.0
C1000 C 0.62369 0.84318 0.56017 0.0
C1001 C 0.62662 0.85525 0.56896 0.0
C1002 C 0.63771 0.86144 0.58065 0.0
C1003 C 0.64554 0.85508 0.5836 0.0
C1004 C 0.64275 0.84318 0.57463 0.0
C1005 C 0.63077 0.7927 0.56248 0.0
C1006 C 0.64194 0.79746 0.5739 0.0
C1007 C 0.64427 0.78817 0.5829 0.0
C1008 C 0.63558 0.77387 0.58056 0.0
C1009 C 0.62421 0.76909 0.56939 0.0
C1010 C 0.62177 0.77843 0.56052 0.0
C1011 C 0.62896 0.80286 0.55247 0.0
C1012 C 0.62936 0.81396 0.56132 0.0
C1013 C 0.62793 0.80231 0.53433 0.0
C1014 C 0.62876 0.79162 0.524 0.0
C1015 C 0.64042 0.7901 0.52512 0.0
C1016 C 0.64142 0.78037 0.51494 0.0
C1017 C 0.63086 0.77207 0.50328 0.0
C1018 C 0.61919 0.77362 0.50219 0.0
C1019 C 0.61817 0.78333 0.51242 0.0
H1020 H 0.17598 0.7808 0.51142 0.0
H1021 H 0.15607 0.76516 0.49371 0.0
H1022 H 0.13043 0.77689 0.52236 0.0
H1023 H 0.15042 0.79287 0.53941 0.0
H1024 H 0.1866 0.80843 0.51155 0.0
H1025 H 0.16842 0.77279 0.55637 0.0
H1026 H 0.14867 0.75576 0.57335 0.0
H1027 H 0.14224 0.78826 0.59265 0.0
H1028 H 0.1622 0.80512 0.57626 0.0
H1029 H 0.19966 0.84787 0.54574 0.0
H1030 H 0.21466 0.86989 0.55991 0.0
H1031 H 0.23287 0.85094 0.58987 0.0
H1032 H 0.21809 0.82895 0.57508 0.0
H1033 H 0.18918 0.81382 0.57494 0.0
H1034 H 0.1895 0.83228 0.50728 0.0
H1035 H 0.2037 0.85172 0.48855 0.0
H1036 H 0.24065 0.85742 0.51337 0.0
H1037 H 0.22629 0.83746 0.53181 0.0
C1038 C 0.16468 0.78789 0.52689 0.0
C1039 C 0.166 0.7798 0.51405 0.0
C1040 C 0.1546 0.77082 0.50401 0.0
C1041 C 0.14169 0.76985 0.50656 0.0
C1042 C 0.14027 0.77752 0.51993 0.0
C1043 C 0.15166 0.78652 0.52988 0.0
C1044 C 0.17711 0.799 0.53566 0.0
C1045 C 0.18736 0.80947 0.52543 0.0
C1046 C 0.17792 0.80046 0.55376 0.0
C1047 C 0.1668 0.79022 0.5651 0.0
C1048 C 0.16284 0.77621 0.56448 0.0
C1049 C 0.15147 0.76649 0.57409 0.0
C1050 C 0.14379 0.77059 0.5844 0.0
C1051 C 0.14803 0.7847 0.5852 0.0
C1052 C 0.15945 0.79439 0.57577 0.0
C1053 C 0.20792 0.83683 0.55915 0.0
C1054 C 0.20703 0.8485 0.55515 0.0
C1055 C 0.21551 0.86105 0.56343 0.0
C1056 C 0.22493 0.86217 0.57608 0.0
C1057 C 0.22583 0.85046 0.58005 0.0
C1058 C 0.21735 0.83788 0.5717 0.0
C1059 C 0.19848 0.82342 0.55077 0.0
C1060 C 0.1888 0.81252 0.56109 0.0
C1061 C 0.1978 0.82184 0.53268 0.0
C1062 C 0.20681 0.8334 0.52098 0.0
C1063 C 0.20067 0.83758 0.50859 0.0
C1064 C 0.2088 0.84883 0.49802 0.0
C1065 C 0.22331 0.85624 0.49962 0.0
C1066 C 0.22951 0.8519 0.5118 0.0
C1067 C 0.22132 0.84056 0.52241 0.0
H1068 H 0.16401 0.36264 0.49545 0.0
H1069 H 0.14703 0.36479 0.47855 0.0
H1070 H 0.14743 0.39375 0.51556 0.0
H1071 H 0.16497 0.39196 0.53235 0.0
H1072 H 0.18879 0.37869 0.50297 0.0
H1073 H 0.14728 0.35425 0.53443 0.0
H1074 H 0.12644 0.34966 0.55019 0.0
H1075 H 0.15174 0.37791 0.59008 0.0
H1076 H 0.1727 0.38303 0.57386 0.0
H1077 H 0.2119 0.38239 0.56976 0.0
H1078 H 0.22603 0.37487 0.58491 0.0
H1079 H 0.21151 0.3401 0.55025 0.0
H1080 H 0.19719 0.34748 0.5355 0.0
H1081 H 0.18259 0.36712 0.56497 0.0
H1082 H 0.22485 0.38572 0.52892 0.0
H1083 H 0.24137 0.38303 0.51079 0.0
H1084 H 0.20777 0.3549 0.47791 0.0
H1085 H 0.19141 0.35748 0.496 0.0
C1086 C 0.16582 0.37714 0.5152 0.0
C1087 C 0.16067 0.36965 0.49986 0.0
C1088 C 0.15095 0.37088 0.49019 0.0
C1089 C 0.14602 0.37952 0.49569 0.0
C1090 C 0.15109 0.38701 0.51107 0.0
C1091 C 0.16105 0.38596 0.52066 0.0
C1092 C 0.17604 0.37541 0.52534 0.0
C1093 C 0.18738 0.37615 0.51654 0.0
C1094 C 0.17425 0.37208 0.54307 0.0
C1095 C 0.16159 0.3693 0.5527 0.0
C1096 C 0.14839 0.35972 0.54636 0.0
C1097 C 0.13648 0.35703 0.55541 0.0
C1098 C 0.13753 0.36352 0.57125 0.0
C1099 C 0.1507 0.37279 0.57787 0.0
C1100 C 0.16264 0.37572 0.56862 0.0
C1101 C 0.20364 0.36557 0.55142 0.0
C1102 C 0.21178 0.37315 0.56547 0.0
C1103 C 0.21991 0.3689 0.57401 0.0
C1104 C 0.2199 0.35691 0.56874 0.0
C1105 C 0.21165 0.34931 0.55472 0.0
C1106 C 0.20355 0.35357 0.54619 0.0
C1107 C 0.19498 0.37002 0.54241 0.0
C1108 C 0.18407 0.36995 0.55149 0.0
C1109 C 0.19657 0.37302 0.52464 0.0
C1110 C 0.20688 0.37181 0.51382 0.0
C1111 C 0.22106 0.37893 0.51784 0.0
C1112 C 0.23048 0.37739 0.5075 0.0
C1113 C 0.22587 0.36884 0.49286 0.0
C1114 C 0.21168 0.36176 0.48891 0.0
C1115 C 0.20231 0.36322 0.49926 0.0
C1116 C 0.00773 0.38316 0.06227 0.0
C1117 C -0.00305 0.36971 0.05859 0.0
C1118 C 0.00609 0.39103 0.07501 0.0
C1119 C 0.00255 0.40271 0.10867 0.0
H1120 H 0.96808 0.40298 0.11032 0.0
C1121 C 0.99177 0.433 0.16061 0.0
C1122 C 0.98596 0.44077 0.15484 0.0
C1123 C 0.99247 0.42342 0.14976 0.0
C1124 C 0.97778 0.40304 0.10999 0.0
H1125 H 0.97606 0.35387 0.06558 0.0
H1126 H 0.97323 0.36761 0.08791 0.0
H1127 H 0.97081 0.38809 0.0897 0.0
H1128 H 0.97628 0.44452 0.13313 0.0
H1129 H 0.97745 0.42778 0.11424 0.0
H1130 H 0.00966 0.41793 0.12864 0.0
C1131 C 0.9829 0.37211 0.08081 0.0
C1132 C 0.97929 0.3944 0.09831 0.0
C1133 C 0.98455 0.36422 0.06809 0.0
C1134 C 0.98063 0.43856 0.13807 0.0
C1135 C 0.98131 0.42896 0.12724 0.0
C1136 C 0.00102 0.41132 0.12039 0.0
C1137 C 0.99363 0.38563 0.08435 0.0
C1138 C 0.99175 0.39425 0.0974 0.0
C1139 C 0.98734 0.42137 0.13291 0.0
C1140 C 0.98867 0.41168 0.12107 0.0
H1141 H 0.0174 0.3877 0.05517 0.0
H1142 H 0.01449 0.40147 0.07727 0.0
H1143 H 0.01222 0.40272 0.10841 0.0
H1144 H 0.99576 0.4343 0.17355 0.0
H1145 H -0.00301 0.41758 0.1546 0.0
C1146 C 0.60721 0.60991 0.05022 0.0
C1147 C 0.62067 0.61599 0.04333 0.0
C1148 C 0.60266 0.59947 0.06244 0.0
C1149 C 0.61425 0.58323 0.09416 0.0
H1150 H 0.57673 0.55257 0.08861 0.0
C1151 C 0.58373 0.5425 0.14706 0.0
C1152 C 0.57413 0.52902 0.14172 0.0
C1153 C 0.5911 0.55287 0.13491 0.0
C1154 C 0.5873 0.56093 0.09026 0.0
H1155 H 0.64006 0.61604 0.04428 0.0
H1156 H 0.63201 0.59762 0.0656 0.0
H1157 H 0.58621 0.57116 0.06783 0.0
H1158 H 0.56548 0.51551 0.11965 0.0
H1159 H 0.57854 0.53347 0.09848 0.0
H1160 H 0.6153 0.57282 0.11661 0.0
C1161 C 0.62503 0.60106 0.06157 0.0
C1162 C 0.59267 0.57171 0.07846 0.0
C1163 C 0.62961 0.61157 0.0493 0.0
C1164 C 0.57267 0.52589 0.12409 0.0
C1165 C 0.5801 0.53619 0.11199 0.0
C1166 C 0.60885 0.57239 0.10603 0.0
C1167 C 0.61143 0.59477 0.06808 0.0
C1168 C 0.60613 0.58307 0.08035 0.0
C1169 C 0.58906 0.5499 0.11722 0.0
C1170 C 0.59527 0.56115 0.10426 0.0
H1171 H 0.60007 0.61313 0.04608 0.0
H1172 H 0.59222 0.59505 0.06747 0.0
H1173 H 0.62465 0.59187 0.09601 0.0
H1174 H 0.58498 0.54518 0.16059 0.0
H1175 H 0.59785 0.56333 0.13939 0.0
C1176 C 0.38957 0.00016 0.04249 0.0
C1177 C 0.37843 0.00248 0.04402 0.0
C1178 C 0.39854 0.00289 0.0562 0.0
C1179 C 0.4095 0.02054 0.09869 0.0
H1180 H 0.42389 0.9958 0.10353 0.0
C1181 C 0.44132 0.01727 0.15665 0.0
C1182 C 0.45434 0.01952 0.15138 0.0
C1183 C 0.43158 0.01591 0.14444 0.0
C1184 C 0.41991 0.00276 0.10231 0.0
H1185 H 0.36807 0.00976 0.06099 0.0
H1186 H 0.38348 0.01407 0.08535 0.0
H1187 H 0.40751 0.99181 0.08073 0.0
H1188 H 0.46739 0.02206 0.12937 0.0
H1189 H 0.45021 0.01929 0.10807 0.0
H1190 H 0.42179 0.03118 0.12081 0.0
C1191 C 0.38548 0.01042 0.07338 0.0
C1192 C 0.41063 0.00058 0.08916 0.0
C1193 C 0.37662 0.00792 0.05946 0.0
C1194 C 0.45748 0.02047 0.13376 0.0
C1195 C 0.44767 0.01884 0.1216 0.0
C1196 C 0.41863 0.02255 0.1121 0.0
C1197 C 0.39644 0.00773 0.07199 0.0
C1198 C 0.40554 0.00962 0.08688 0.0
C1199 C 0.43463 0.01646 0.12683 0.0
C1200 C 0.42409 0.01382 0.11376 0.0
H1201 H 0.39136 0.99618 0.03064 0.0
H1202 H 0.40712 0.00114 0.05438 0.0
H1203 H 0.40589 0.02776 0.0973 0.0
H1204 H 0.4387 0.01651 0.17018 0.0
H1205 H 0.42153 0.01401 0.14869 0.0
C1206 C 0.38395 0.01007 0.95627 0.0
C1207 C 0.36961 0.00092 0.95747 0.0
C1208 C 0.39156 0.0091 0.94263 0.0
C1209 C 0.38989 0.98441 0.90963 0.0
H1210 H 0.4235 0.01674 0.89359 0.0
C1211 C 0.42678 0.98427 0.85627 0.0
C1212 C 0.44036 0.98944 0.86234 0.0
C1213 C 0.4171 0.98582 0.86601 0.0
C1214 C 0.41408 0.00766 0.8979 0.0
H1215 H 0.35186 0.98391 0.945 0.0
H1216 H 0.36506 0.98251 0.92077 0.0
H1217 H 0.40813 0.01951 0.91344 0.0
H1218 H 0.45418 -1e-05 0.88377 0.0
H1219 H 0.43751 0.00322 0.90021 0.0
H1220 H 0.39594 0.97264 0.89381 0.0
C1221 C 0.37053 0.99019 0.93064 0.0
C1222 C 0.40532 0.0092 0.90937 0.0
C1223 C 0.36294 0.99104 0.94446 0.0
C1224 C 0.44399 0.9962 0.87838 0.0
C1225 C 0.43443 0.99799 0.8879 0.0
C1226 C 0.39854 0.9829 0.89789 0.0
C1227 C 0.38498 -0.00091 0.92968 0.0
C1228 C 0.39332 0.99757 0.91579 0.0
C1229 C 0.42092 0.9928 0.88181 0.0
C1230 C 0.41087 0.99449 0.89232 0.0
H1231 H 0.3894 0.01775 0.96616 0.0
H1232 H 0.40268 0.01595 0.94259 0.0
H1233 H 0.38086 0.97519 0.91442 0.0
H1234 H 0.42364 0.97918 0.84389 0.0
H1235 H 0.40671 0.98175 0.86111 0.0
C1236 C 0.01414 0.38049 0.9637 0.0
C1237 C 0.00081 0.37402 0.97111 0.0
C1238 C 0.01737 0.38947 0.94972 0.0
C1239 C 0.00088 0.39855 0.91515 0.0
H1240 H 0.03347 0.43512 0.91749 0.0
C1241 C 0.00438 0.44418 0.87864 0.0
C1242 C 0.01693 0.45366 0.87061 0.0
C1243 C 0.00362 0.43387 0.88927 0.0
C1244 C 0.02445 0.42488 0.91649 0.0
H1245 H 0.98038 0.37168 0.96936 0.0
H1246 H 0.98598 0.38714 0.94522 0.0
H1247 H 0.03008 0.41776 0.93882 0.0
H1248 H 0.03855 0.4597 0.86755 0.0
H1249 H 0.03723 0.44172 0.88639 0.0
H1250 H 0.99501 0.4057 0.89318 0.0
C1251 C 0.99393 0.38529 0.95007 0.0
C1252 C 0.02253 0.41494 0.92868 0.0
C1253 C 0.99076 0.37649 0.96404 0.0
C1254 C 0.02875 0.45264 0.87365 0.0
C1255 C 0.028 0.44233 0.8844 0.0
C1256 C 0.00279 0.40845 0.90301 0.0
C1257 C 0.00727 0.39195 0.94278 0.0
C1258 C 0.0105 0.4018 0.92843 0.0
C1259 C 0.01539 0.43279 0.89225 0.0
C1260 C 0.01439 0.42185 0.90383 0.0
H1261 H 0.02211 0.37882 0.96888 0.0
H1262 H 0.02773 0.39444 0.94433 0.0
H1263 H 0.99164 0.38843 0.91441 0.0
H1264 H 0.99515 0.44483 0.87696 0.0
H1265 H 0.99383 0.42689 0.89544 0.0
C1266 C 0.61132 0.6359 0.95074 0.0
C1267 C 0.61878 0.62995 0.95717 0.0
C1268 C 0.6014 0.62923 0.9379 0.0
C1269 C 0.58994 0.60227 0.90426 0.0
H1270 H 0.55446 0.60011 0.9097 0.0
C1271 C 0.54172 0.5638 0.86588 0.0
C1272 C 0.53278 0.56822 0.85994 0.0
C1273 C 0.55266 0.57213 0.87686 0.0
C1274 C 0.56437 0.60078 0.90784 0.0
H1275 H 0.62186 0.61246 0.95497 0.0
H1276 H 0.60452 0.6008 0.93267 0.0
H1277 H 0.57289 0.61333 0.9303 0.0
H1278 H 0.5285 0.58497 0.86067 0.0
H1279 H 0.54765 0.59955 0.87986 0.0
H1280 H 0.58139 0.58961 0.88191 0.0
C1281 C 0.60641 0.61068 0.93742 0.0
C1282 C 0.57494 0.60836 0.91965 0.0
C1283 C 0.6163 0.61732 0.95027 0.0
C1284 C 0.53509 0.5812 0.86519 0.0
C1285 C 0.54606 0.58954 0.87618 0.0
C1286 C 0.57939 0.5947 0.89245 0.0
C1287 C 0.59876 0.61649 0.93119 0.0
C1288 C 0.5878 0.60907 0.9181 0.0
C1289 C 0.55496 0.58509 0.88217 0.0
C1290 C 0.56642 0.59375 0.8942 0.0
H1291 H 0.61302 0.64564 0.95576 0.0
H1292 H 0.5958 0.63406 0.93322 0.0
H1293 H 0.59981 0.6028 0.90255 0.0
H1294 H 0.54008 0.55375 0.86234 0.0
H1295 H 0.55915 0.56827 0.88148 0.0
C1296 C 0.00376 0.62682 0.96267 0.0
C1297 C 0.99094 0.61896 0.97111 0.0
C1298 C 0.0075 0.62113 0.94909 0.0
C1299 C 0.99271 0.59284 0.9171 0.0
H1300 H 0.02905 0.59652 0.9173 0.0
C1301 C 0.02005 0.56207 0.88808 0.0
C1302 C 0.01509 0.55977 0.87113 0.0
C1303 C 0.01845 0.57115 0.89887 0.0
C1304 C 0.01887 0.59542 0.91707 0.0
H1305 H 0.97193 0.59902 0.97166 0.0
H1306 H 0.97846 0.58918 0.94811 0.0
H1307 H 0.02333 0.60884 0.93877 0.0
H1308 H 0.00519 0.56576 0.85196 0.0
H1309 H 0.00235 0.58157 0.87082 0.0
H1310 H 0.98803 0.57906 0.89585 0.0
C1311 C 0.98558 0.59976 0.95188 0.0
C1312 C 0.01565 0.60258 0.92924 0.0
C1313 C 0.98189 0.60539 0.96548 0.0
C1314 C 0.00889 0.5671 0.86505 0.0
C1315 C 0.00728 0.57618 0.87585 0.0
C1316 C 0.99594 0.58573 0.90491 0.0
C1317 C -0.00155 0.60752 0.94358 0.0
C1318 C 0.00243 0.60114 0.92959 0.0
C1319 C 0.01185 0.57814 0.89296 0.0
C1320 C 0.00897 0.58674 0.90493 0.0
H1321 H 0.01097 0.63731 0.9667 0.0
H1322 H 0.01746 0.62738 0.94285 0.0
H1323 H 0.98249 0.59165 0.91692 0.0
H1324 H 0.02472 0.55647 0.89323 0.0
H1325 H 0.02191 0.57228 0.91206 0.0
C1326 C 0.38598 0.38579 0.95976 0.0
C1327 C 0.37327 0.3835 0.96632 0.0
C1328 C 0.39244 0.39487 0.9461 0.0
C1329 C 0.38608 0.41244 0.91045 0.0
H1330 H 0.42571 0.43775 0.91335 0.0
C1331 C 0.4161 0.45912 0.86495 0.0
C1332 C 0.42934 0.46218 0.85946 0.0
C1333 C 0.40879 0.44886 0.87719 0.0
C1334 C 0.41467 0.43063 0.91222 0.0
H1335 H 0.35726 0.38878 0.96358 0.0
H1336 H 0.36863 0.40477 0.9398 0.0
H1337 H 0.41385 0.42114 0.93625 0.0
H1338 H 0.44521 0.4567 0.86237 0.0
H1339 H 0.43235 0.43862 0.88339 0.0
H1340 H 0.38694 0.42205 0.88642 0.0
C1341 C 0.37352 0.39943 0.94511 0.0
C1342 C 0.40787 0.42111 0.92535 0.0
C1343 C 0.36706 0.39034 0.95879 0.0
C1344 C 0.43497 0.45452 0.86618 0.0
C1345 C 0.42768 0.44427 0.8784 0.0
C1346 C 0.3929 0.42198 0.89728 0.0
C1347 C 0.38634 0.40187 0.93871 0.0
C1348 C 0.39351 0.4119 0.92462 0.0
C1349 C 0.41459 0.44145 0.88422 0.0
C1350 C 0.40728 0.43117 0.89802 0.0
H1351 H 0.391 0.38062 0.96522 0.0
H1352 H 0.40221 0.39637 0.94129 0.0
H1353 H 0.37502 0.40537 0.90943 0.0
H1354 H 0.41142 0.46475 0.85988 0.0
H1355 H 0.39877 0.44699 0.88149 0.0
C1356 C 0.62609 0.00888 0.95517 0.0
C1357 C 0.62694 -0.00131 0.96451 0.0
C1358 C 0.61711 0.00531 0.94128 0.0
C1359 C 0.58435 0.97752 0.92522 0.0
H1360 H 0.59503 -0.0002 0.88392 0.0
C1361 C 0.5445 0.96966 0.87265 0.0
C1362 C 0.54555 0.98184 0.86631 0.0
C1363 C 0.55504 0.9702 0.88281 0.0
C1364 C 0.59185 0.99351 0.8954 0.0
H1365 H 0.61921 0.97673 0.96636 0.0
H1366 H 0.6032 0.97044 0.94207 0.0
H1367 H 0.61261 0.00341 0.90493 0.0
H1368 H 0.55876 0.00409 0.86517 0.0
H1369 H 0.57687 0.00509 0.88317 0.0
H1370 H 0.5635 0.96803 0.91608 0.0
C1371 C 0.60961 0.98121 0.94556 0.0
C1372 C 0.60194 0.99554 0.90739 0.0
C1373 C 0.6188 0.98482 0.95938 0.0
C1374 C 0.55751 0.99453 0.87005 0.0
C1375 C 0.56801 0.99508 0.88018 0.0
C1376 C 0.57422 0.97554 0.91326 0.0
C1377 C 0.60861 0.99144 0.93646 0.0
C1378 C 0.59825 0.98782 0.92262 0.0
C1379 C 0.56689 0.98294 0.88681 0.0
C1380 C 0.5778 0.98377 0.89842 0.0
H1381 H 0.63226 0.01967 0.95874 0.0
H1382 H 0.61647 0.01342 0.93466 0.0
H1383 H 0.58119 0.97149 0.93692 0.0
H1384 H 0.53539 0.95972 0.8701 0.0
H1385 H 0.55389 0.96065 0.88758 0.0
C1386 C 0.616 0.99214 0.0575 0.0
C1387 C 0.62882 0.00353 0.05273 0.0
C1388 C 0.60774 0.99351 0.06994 0.0
C1389 C 0.60833 0.01626 0.10513 0.0
H1390 H 0.56867 0.99661 0.09733 0.0
C1391 C 0.56956 0.02554 0.14467 0.0
C1392 C 0.55703 0.01373 0.14947 0.0
C1393 C 0.57886 0.02445 0.1336 0.0
C1394 C 0.57971 0.00206 0.09978 0.0
H1395 H 0.64314 0.02527 0.05741 0.0
H1396 H 0.62856 0.02776 0.07892 0.0
H1397 H 0.58385 0.99454 0.07658 0.0
H1398 H 0.5448 0.99144 0.14701 0.0
H1399 H 0.5609 0.98959 0.12753 0.0
H1400 H 0.60408 0.02396 0.12826 0.0
C1401 C 0.62498 0.0177 0.07325 0.0
C1402 C 0.58843 0.00085 0.0879 0.0
C1403 C 0.63331 0.01629 0.06086 0.0
C1404 C 0.55419 0.00078 0.14327 0.0
C1405 C 0.56343 -0.00029 0.13214 0.0
C1406 C 0.59959 0.01755 0.11698 0.0
C1407 C 0.61203 0.00634 0.07783 0.0
C1408 C 0.60284 0.00785 0.09047 0.0
C1409 C 0.57578 0.01154 0.12703 0.0
C1410 C 0.58518 0.01038 0.11447 0.0
H1411 H 0.6123 0.98213 0.05158 0.0
H1412 H 0.59797 0.98447 0.0734 0.0
H1413 H 0.61936 0.02168 0.10762 0.0
H1414 H 0.57202 0.03569 0.14907 0.0
H1415 H 0.58826 0.03376 0.12977 0.0
C1416 C -0.00054 0.62269 0.06419 0.0
C1417 C 0.98824 0.62434 0.05984 0.0
C1418 C -0.00164 0.61414 0.07776 0.0
C1419 C 0.99567 0.60046 0.1121 0.0
H1420 H 0.96233 0.56444 0.11439 0.0
C1421 C 0.9882 0.56019 0.16323 0.0
C1422 C 0.98297 0.54665 0.15713 0.0
C1423 C 0.98799 0.57018 0.15284 0.0
C1424 C 0.97171 0.57445 0.11391 0.0
H1425 H 0.96716 0.61859 0.06657 0.0
H1426 H 0.96525 0.60365 0.0904 0.0
H1427 H 0.96388 0.58131 0.09362 0.0
H1428 H 0.97347 0.53301 0.13531 0.0
H1429 H 0.97311 0.5504 0.11722 0.0
H1430 H 0.00371 0.59342 0.13191 0.0
C1431 C 0.97486 0.60889 0.08317 0.0
C1432 C 0.97253 0.58418 0.10215 0.0
C1433 C 0.97598 0.61749 0.06959 0.0
C1434 C 0.97737 0.54328 0.1405 0.0
C1435 C 0.97715 0.55325 0.13014 0.0
C1436 C 0.99484 0.59074 0.12387 0.0
C1437 C 0.98601 0.60702 0.08729 0.0
C1438 C 0.98462 0.59721 0.10091 0.0
C1439 C 0.98254 0.56683 0.13614 0.0
C1440 C 0.98294 0.57754 0.1247 0.0
H1441 H 0.00906 0.62784 0.05693 0.0
H1442 H 0.00708 0.61279 0.08044 0.0
H1443 H 0.00507 0.61047 0.11159 0.0
H1444 H 0.99241 0.56306 0.17607 0.0
H1445 H 0.99206 0.58051 0.15791 0.0
C1446 C 0.38358 0.38823 0.06852 0.0
C1447 C 0.38333 0.37922 0.05581 0.0
C1448 C 0.39288 0.39226 0.08215 0.0
C1449 C 0.4184 0.38503 0.10367 0.0
H1450 H 0.43278 0.4224 0.12038 0.0
C1451 C 0.46924 0.4204 0.14284 0.0
C1452 C 0.46692 0.42535 0.15845 0.0
C1453 C 0.45829 0.41262 0.13156 0.0
C1454 C 0.42876 0.41192 0.11588 0.0
H1455 H 0.39243 0.36717 0.04741 0.0
H1456 H 0.4093 0.37482 0.07065 0.0
H1457 H 0.41542 0.41349 0.09788 0.0
H1458 H 0.45097 0.42494 0.17494 0.0
H1459 H 0.43207 0.41197 0.15478 0.0
H1460 H 0.43261 0.38402 0.12124 0.0
C1461 C 0.402 0.37843 0.07053 0.0
C1462 C 0.41871 0.40671 0.10308 0.0
C1463 C 0.3924 0.3741 0.05711 0.0
C1464 C 0.45325 0.42165 0.16287 0.0
C1465 C 0.44238 0.41412 0.15144 0.0
C1466 C 0.42874 0.3904 0.11625 0.0
C1467 C 0.40249 0.38773 0.08313 0.0
C1468 C 0.41327 0.39315 0.09685 0.0
C1469 C 0.44488 0.40981 0.13558 0.0
C1470 C 0.43389 0.40384 0.1225 0.0
H1471 H 0.37653 0.39215 0.06796 0.0
H1472 H 0.39255 0.39902 0.09185 0.0
H1473 H 0.41439 0.3745 0.09943 0.0
H1474 H 0.4796 0.42314 0.13887 0.0
H1475 H 0.46042 0.40946 0.11928 0.0
C1476 C 0.64273 0.69445 0.40083 0.0
C1477 C 0.6562 0.70103 0.39387 0.0
C1478 C 0.6393 0.70074 0.41399 0.0
C1479 C 0.63294 0.72072 0.43283 0.0
H1480 H 0.65913 0.74158 0.46889 0.0
C1481 C 0.62866 0.76103 0.47444 0.0
C1482 C 0.63229 0.7622 0.49188 0.0
C1483 C 0.63067 0.7523 0.46348 0.0
C1484 C 0.65162 0.73567 0.45904 0.0
H1485 H 0.67669 0.71922 0.39552 0.0
H1486 H 0.67069 0.73022 0.4183 0.0
H1487 H 0.66444 0.72839 0.44845 0.0
H1488 H 0.64041 0.75475 0.51162 0.0
H1489 H 0.64389 0.73948 0.49249 0.0
H1490 H 0.62009 0.72795 0.44347 0.0
C1491 C 0.6628 0.72014 0.41375 0.0
C1492 C 0.65473 0.72823 0.4472 0.0
C1493 C 0.66622 0.71387 0.40061 0.0
C1494 C 0.63771 0.75423 0.49819 0.0
C1495 C 0.63971 0.74549 0.48723 0.0
C1496 C 0.62982 0.72816 0.44467 0.0
C1497 C 0.64927 0.71372 0.4205 0.0
C1498 C 0.64551 0.72081 0.43382 0.0
C1499 C 0.63634 0.74452 0.46971 0.0
C1500 C 0.6392 0.73586 0.45779 0.0
H1501 H 0.63478 0.68453 0.39594 0.0
H1502 H 0.62882 0.69544 0.41905 0.0
H1503 H 0.62565 0.71521 0.4226 0.0
H1504 H 0.62465 0.76717 0.46911 0.0
H1505 H 0.62816 0.75197 0.45001 0.0
C1506 C 0.28882 0.94568 0.39111 0.0
C1507 C 0.28158 0.9522 0.38584 0.0
C1508 C 0.28355 0.93586 0.40427 0.0
C1509 C 0.25043 0.91233 0.42632 0.0
H1510 H 0.27377 0.90894 0.46017 0.0
C1511 C 0.2271 0.87768 0.48507 0.0
C1512 C 0.23174 0.86845 0.48853 0.0
C1513 C 0.23417 0.88842 0.4734 0.0
C1514 C 0.26717 0.90973 0.45071 0.0
H1515 H 0.26346 0.95398 0.3908 0.0
H1516 H 0.25451 0.93722 0.41391 0.0
H1517 H 0.28429 0.92686 0.43811 0.0
H1518 H 0.24785 0.86366 0.48302 0.0
H1519 H 0.26034 0.88262 0.46264 0.0
H1520 H 0.23332 0.89536 0.43896 0.0
C1521 C 0.26403 0.93933 0.40758 0.0
C1522 C 0.27317 0.91995 0.43806 0.0
C1523 C 0.26922 0.94902 0.39437 0.0
C1524 C 0.24404 0.87063 0.48067 0.0
C1525 C 0.25118 0.88146 0.46901 0.0
C1526 C 0.24446 0.90223 0.43898 0.0
C1527 C 0.27099 0.93243 0.4125 0.0
C1528 C 0.26484 0.92144 0.4258 0.0
C1529 C 0.24611 0.89025 0.46497 0.0
C1530 C 0.25273 0.90088 0.45139 0.0
H1531 H 0.29837 0.94789 0.38478 0.0
H1532 H 0.28913 0.93068 0.40765 0.0
H1533 H 0.24372 0.91291 0.41683 0.0
H1534 H 0.21786 0.8765 0.49124 0.0
H1535 H 0.23019 0.89522 0.47082 0.0
C1536 C 0.05417 0.3551 0.39337 0.0
C1537 C 0.04881 0.34101 0.38986 0.0
C1538 C 0.0637 0.36164 0.40665 0.0
C1539 C 0.07722 0.35459 0.44616 0.0
H1540 H 0.11122 0.38858 0.43539 0.0
C1541 C 0.13671 0.38165 0.46757 0.0
C1542 C 0.13525 0.38013 0.48549 0.0
C1543 C 0.1257 0.37991 0.45748 0.0
C1544 C 0.10173 0.37916 0.43864 0.0
H1545 H 0.04908 0.32268 0.39781 0.0
H1546 H 0.06566 0.33405 0.42086 0.0
H1547 H 0.09222 0.37889 0.41475 0.0
H1548 H 0.12146 0.37644 0.50704 0.0
H1549 H 0.10209 0.37338 0.48934 0.0
H1550 H 0.08694 0.35443 0.46963 0.0
C1551 C 0.06242 0.34004 0.41345 0.0
C1552 C 0.09082 0.37366 0.42689 0.0
C1553 C 0.053 0.33355 0.40012 0.0
C1554 C 0.12285 0.37769 0.49325 0.0
C1555 C 0.11176 0.37584 0.48312 0.0
C1556 C 0.08809 0.3601 0.45793 0.0
C1557 C 0.06795 0.35417 0.4168 0.0
C1558 C 0.07863 0.36109 0.4303 0.0
C1559 C 0.11294 0.37654 0.46509 0.0
C1560 C 0.10063 0.37222 0.45407 0.0
H1561 H 0.05115 0.36115 0.38571 0.0
H1562 H 0.06775 0.37252 0.409 0.0
H1563 H 0.06786 0.34498 0.44923 0.0
H1564 H 0.14622 0.38364 0.4613 0.0
H1565 H 0.12693 0.3804 0.44364 0.0
C1566 C 0.04807 0.32952 0.29245 0.0
C1567 C 0.03628 0.31967 0.30144 0.0
C1568 C 0.05318 0.32558 0.27848 0.0
C1569 C 0.05437 0.29616 0.26046 0.0
H1570 H 0.06715 0.31872 0.2194 0.0
C1571 C 0.08141 0.28421 0.20523 0.0
C1572 C 0.09365 0.29573 0.19919 0.0
C1573 C 0.07219 0.28598 0.21567 0.0
C1574 C 0.06367 0.31233 0.2308 0.0
H1575 H 0.02057 0.29797 0.30285 0.0
H1576 H 0.02964 0.29106 0.2785 0.0
H1577 H 0.05544 0.32411 0.24202 0.0
H1578 H 0.1054 0.31809 0.1984 0.0
H1579 H 0.0896 0.32118 0.21683 0.0
H1580 H 0.06307 0.28471 0.2496 0.0
C1581 C 0.03489 0.30183 0.28228 0.0
C1582 C 0.05696 0.31542 0.24373 0.0
C1583 C 0.02969 0.30579 0.29617 0.0
C1584 C 0.09616 0.30901 0.2031 0.0
C1585 C 0.08699 0.31078 0.21349 0.0
C1586 C 0.06117 0.29312 0.24757 0.0
C1587 C 0.04668 0.31169 0.27328 0.0
C1588 C 0.05251 0.30755 0.25885 0.0
C1589 C 0.07502 0.2993 0.22019 0.0
C1590 C 0.06618 0.30137 0.23276 0.0
H1591 H 0.05337 0.34029 0.29618 0.0
H1592 H 0.0624 0.33338 0.27194 0.0
H1593 H 0.05112 0.28998 0.27203 0.0
H1594 H 0.07921 0.27385 0.20245 0.0
H1595 H 0.06297 0.27693 0.22045 0.0
C1596 C 0.68418 0.72195 0.30058 0.0
C1597 C 0.67143 0.71784 0.30878 0.0
C1598 C 0.68953 0.7326 0.2884 0.0
C1599 C 0.68648 0.76238 0.27454 0.0
H1600 H 0.70124 0.75858 0.23095 0.0
C1601 C 0.69019 0.79444 0.21585 0.0
C1602 C 0.7022 0.80006 0.2056 0.0
C1603 C 0.68806 0.78509 0.22888 0.0
C1604 C 0.69733 0.75987 0.24317 0.0
H1605 H 0.65427 0.72164 0.3104 0.0
H1606 H 0.66349 0.73993 0.28926 0.0
H1607 H 0.69461 0.74089 0.25307 0.0
H1608 H 0.72139 0.80023 0.20092 0.0
H1609 H 0.71762 0.78376 0.22383 0.0
H1610 H 0.68886 0.78114 0.26458 0.0
C1611 C 0.6695 0.73514 0.29239 0.0
C1612 C 0.69355 0.74976 0.25583 0.0
C1613 C 0.66415 0.72455 0.30445 0.0
C1614 C 0.71206 0.7961 0.20867 0.0
C1615 C 0.70986 0.78662 0.22168 0.0
C1616 C 0.69021 0.77242 0.26192 0.0
C1617 C 0.68228 0.73937 0.28428 0.0
C1618 C 0.68777 0.75074 0.2715 0.0
C1619 C 0.69787 0.7811 0.23199 0.0
C1620 C 0.69537 0.77113 0.24594 0.0
H1621 H 0.69005 0.717 0.3036 0.0
H1622 H 0.69944 0.73566 0.28241 0.0
H1623 H 0.68238 0.76362 0.28663 0.0
H1624 H 0.68249 0.7974 0.21396 0.0
H1625 H 0.67863 0.78089 0.23644 0.0
C1626 C 0.27451 0.96929 0.28939 0.0
C1627 C 0.28032 0.96228 0.2975 0.0
C1628 C 0.26477 0.96291 0.27629 0.0
C1629 C 0.23811 0.94361 0.25721 0.0
H1630 H 0.24242 0.92049 0.22354 0.0
C1631 C 0.19336 0.90491 0.21384 0.0
C1632 C 0.19653 0.9032 0.19683 0.0
C1633 C 0.20391 0.91318 0.22536 0.0
C1634 C 0.24113 0.92703 0.23272 0.0
H1635 H 0.28058 0.94314 0.2981 0.0
H1636 H 0.26353 0.93198 0.27539 0.0
H1637 H 0.26054 0.93308 0.24469 0.0
H1638 H 0.21323 0.90926 0.17838 0.0
H1639 H 0.23164 0.92374 0.19846 0.0
H1640 H 0.21874 0.93762 0.24514 0.0
C1641 C 0.26661 0.94246 0.279 0.0
C1642 C 0.25144 0.93411 0.24498 0.0
C1643 C 0.27632 0.94883 0.29208 0.0
C1644 C 0.21047 0.9102 0.19148 0.0
C1645 C 0.22101 0.91848 0.20299 0.0
C1646 C 0.22779 0.93651 0.24495 0.0
C1647 C 0.26066 0.94939 0.271 0.0
C1648 C 0.25 0.94239 0.25746 0.0
C1649 C 0.21787 0.91994 0.22012 0.0
C1650 C 0.22912 0.92804 0.23265 0.0
H1651 H 0.27741 0.97968 0.29325 0.0
H1652 H 0.26051 0.96858 0.27026 0.0
H1653 H 0.23663 0.94981 0.26675 0.0
H1654 H 0.18275 0.89952 0.21843 0.0
H1655 H 0.20114 0.91393 0.23852 0.0
C1656 C 0.66327 0.93508 0.30325 0.0
C1657 C 0.66983 0.94919 0.30741 0.0
C1658 C 0.669 0.9303 0.29104 0.0
C1659 C 0.69282 0.94089 0.25405 0.0
H1660 H 0.69019 0.90569 0.26251 0.0
C1661 C 0.71278 0.91422 0.20658 0.0
C1662 C 0.70299 0.90029 0.20326 0.0
C1663 C 0.71043 0.92141 0.21968 0.0
C1664 C 0.691 0.91553 0.25996 0.0
H1665 H 0.68755 0.96937 0.30179 0.0
H1666 H 0.69765 0.96092 0.2804 0.0
H1667 H 0.68318 0.91617 0.28485 0.0
H1668 H 0.68324 0.88292 0.21122 0.0
H1669 H 0.67917 0.8954 0.23397 0.0
H1670 H 0.70054 0.94007 0.229 0.0
C1671 C 0.688 0.95361 0.2866 0.0
C1672 C 0.68694 0.92152 0.27273 0.0
C1673 C 0.68224 0.95843 0.29889 0.0
C1674 C 0.69089 0.89369 0.21333 0.0
C1675 C 0.68863 0.90079 0.22648 0.0
C1676 C 0.69697 0.93491 0.24126 0.0
C1677 C 0.68148 0.93946 0.28265 0.0
C1678 C 0.68742 0.93407 0.26976 0.0
C1679 C 0.69837 0.91469 0.22984 0.0
C1680 C 0.69573 0.92198 0.24395 0.0
H1681 H 0.65366 0.92766 0.30943 0.0
H1682 H 0.66353 0.91938 0.28803 0.0
H1683 H 0.69327 0.95055 0.25134 0.0
H1684 H 0.72218 0.91955 0.19897 0.0
H1685 H 0.71811 0.93212 0.22204 0.0
C1686 C 0.02868 0.72331 0.29037 0.0
C1687 C 0.03639 0.71798 0.29777 0.0
C1688 C 0.03407 0.73249 0.27659 0.0
C1689 C 0.05189 0.75846 0.25582 0.0
H1690 H 0.07332 0.75372 0.21992 0.0
C1691 C 0.08886 0.80248 0.2107 0.0
C1692 C 0.08996 0.79926 0.1935 0.0
C1693 C 0.08084 0.79203 0.22242 0.0
C1694 C 0.06722 0.75511 0.22971 0.0
H1695 H 0.05569 0.7179 0.29638 0.0
H1696 H 0.06517 0.73403 0.27246 0.0
H1697 H 0.06202 0.73609 0.24195 0.0
H1698 H 0.08302 0.78262 0.17492 0.0
H1699 H 0.06895 0.76435 0.19541 0.0
H1700 H 0.05706 0.77747 0.24355 0.0
C1701 C 0.05489 0.731 0.27716 0.0
C1702 C 0.06088 0.74509 0.24246 0.0
C1703 C 0.0495 0.72183 0.29094 0.0
C1704 C 0.08253 0.7854 0.18815 0.0
C1705 C 0.07449 0.77495 0.19988 0.0
C1706 C 0.05823 0.76849 0.24307 0.0
C1707 C 0.04728 0.73651 0.26991 0.0
C1708 C 0.05329 0.74673 0.25578 0.0
C1709 C 0.07372 0.77813 0.2172 0.0
C1710 C 0.06611 0.76701 0.23 0.0
H1711 H 0.01851 0.72049 0.2953 0.0
H1712 H 0.02788 0.73641 0.27114 0.0
H1713 H 0.04621 0.7601 0.26597 0.0
H1714 H 0.09463 0.81303 0.21529 0.0
H1715 H 0.08063 0.79483 0.23572 0.0
C1716 C 0.28348 0.31464 0.29607 0.0
C1717 C 0.28998 0.32867 0.3007 0.0
C1718 C 0.27383 0.30944 0.28266 0.0
C1719 C 0.26252 0.32026 0.24434 0.0
H1720 H 0.22618 0.28857 0.25341 0.0
C1721 C 0.21443 0.31096 0.2077 0.0
C1722 C 0.20391 0.29743 0.20384 0.0
C1723 C 0.22574 0.31337 0.21768 0.0
C1724 C 0.23634 0.29726 0.2505 0.0
H1725 H 0.29171 0.34828 0.29456 0.0
H1726 H 0.27509 0.33928 0.27122 0.0
H1727 H 0.24477 0.29526 0.27425 0.0
H1728 H 0.19718 0.2758 0.20713 0.0
H1729 H 0.21712 0.28003 0.22452 0.0
H1730 H 0.25412 0.32248 0.22081 0.0
C1731 C 0.27741 0.33228 0.2779 0.0
C1732 C 0.24699 0.30109 0.26246 0.0
C1733 C 0.28688 0.33742 0.29138 0.0
C1734 C 0.20515 0.28634 0.20985 0.0
C1735 C 0.2165 0.28876 0.21992 0.0
C1736 C 0.25194 0.3164 0.23238 0.0
C1737 C 0.27069 0.31823 0.27346 0.0
C1738 C 0.26006 0.31288 0.25973 0.0
C1739 C 0.22689 0.30232 0.22405 0.0
C1740 C 0.2386 0.30512 0.23555 0.0
H1741 H 0.28563 0.30763 0.30304 0.0
H1742 H 0.26882 0.29857 0.27947 0.0
H1743 H 0.27257 0.32925 0.24175 0.0
H1744 H 0.21389 0.31974 0.20307 0.0
H1745 H 0.23342 0.32394 0.22078 0.0
C1746 C 0.28575 0.33103 0.39424 0.0
C1747 C 0.2988 0.34147 0.38844 0.0
C1748 C 0.27851 0.33388 0.40673 0.0
C1749 C 0.28247 0.35927 0.44019 0.0
H1750 H 0.24326 0.3443 0.43217 0.0
C1751 C 0.24578 0.36475 0.48869 0.0
C1752 C 0.23565 0.36711 0.48165 0.0
C1753 C 0.25414 0.36192 0.47797 0.0
C1754 C 0.25422 0.34864 0.43455 0.0
H1755 H 0.31466 0.36299 0.3915 0.0
H1756 H 0.30196 0.368 0.41313 0.0
H1757 H 0.25657 0.33853 0.41255 0.0
H1758 H 0.22689 0.36918 0.45789 0.0
H1759 H 0.24148 0.36438 0.43924 0.0
H1760 H 0.28012 0.36966 0.46199 0.0
C1761 C 0.29737 0.35758 0.40818 0.0
C1762 C 0.26182 0.34518 0.42342 0.0
C1763 C 0.30461 0.35472 0.3957 0.0
C1764 C 0.23441 0.36712 0.4637 0.0
C1765 C 0.24275 0.36434 0.45302 0.0
C1766 C 0.27485 0.36273 0.45136 0.0
C1767 C 0.28416 0.34723 0.41368 0.0
C1768 C 0.27605 0.35051 0.42604 0.0
C1769 C 0.25253 0.36144 0.46002 0.0
C1770 C 0.26066 0.35755 0.44856 0.0
H1771 H 0.28103 0.32069 0.38898 0.0
H1772 H 0.26845 0.32563 0.41089 0.0
H1773 H 0.2934 0.36344 0.44265 0.0
H1774 H 0.2469 0.36458 0.50249 0.0
H1775 H 0.26152 0.35966 0.48376 0.0
C1776 C 0.66892 0.95191 0.39888 0.0
C1777 C 0.65784 0.95322 0.39289 0.0
C1778 C 0.66686 0.94264 0.41199 0.0
C1779 C 0.64295 0.92187 0.44699 0.0
H1780 H 0.65908 0.89881 0.43973 0.0
C1781 C 0.62778 0.87319 0.48756 0.0
C1782 C 0.63841 0.87061 0.49196 0.0
C1783 C 0.63038 0.88389 0.4763 0.0
C1784 C 0.65466 0.90529 0.4421 0.0
H1785 H 0.63601 0.94617 0.39634 0.0
H1786 H 0.63239 0.9299 0.41921 0.0
H1787 H 0.66336 0.91661 0.41892 0.0
H1788 H 0.66013 0.87731 0.48799 0.0
H1789 H 0.66472 0.89614 0.46876 0.0
H1790 H 0.6342 0.91046 0.47017 0.0
C1791 C 0.64269 0.93611 0.41382 0.0
C1792 C 0.65712 0.91549 0.43016 0.0
C1793 C 0.64475 0.94538 0.40067 0.0
C1794 C 0.65173 0.8791 0.48503 0.0
C1795 C 0.65433 0.88979 0.47382 0.0
C1796 C 0.64052 0.91166 0.45898 0.0
C1797 C 0.65368 0.93448 0.41943 0.0
C1798 C 0.65129 0.92389 0.43245 0.0
C1799 C 0.64366 0.89225 0.4692 0.0
C1800 C 0.64634 0.90324 0.45665 0.0
H1801 H 0.67916 0.95787 0.39322 0.0
H1802 H 0.67558 0.94177 0.41623 0.0
H1803 H 0.63843 0.92827 0.44919 0.0
H1804 H 0.61745 0.86694 0.49282 0.0
H1805 H 0.62191 0.88543 0.47289 0.0
C1806 C 0.05524 0.70835 0.39296 0.0
C1807 C 0.05042 0.71694 0.38697 0.0
C1808 C 0.06435 0.71244 0.40689 0.0
C1809 C 0.07589 0.73554 0.44451 0.0
H1810 H 0.10944 0.73363 0.44146 0.0
C1811 C 0.12223 0.76755 0.48852 0.0
C1812 C 0.13008 0.76186 0.49444 0.0
C1813 C 0.11171 0.76051 0.47654 0.0
C1814 C 0.1 0.73401 0.44266 0.0
H1815 H 0.05141 0.73654 0.39095 0.0
H1816 H 0.0672 0.74359 0.41517 0.0
H1817 H 0.09249 0.72411 0.41826 0.0
H1818 H 0.1329 0.74421 0.49255 0.0
H1819 H 0.11439 0.73181 0.47157 0.0
H1820 H 0.08337 0.74552 0.46877 0.0
C1821 C 0.06387 0.73367 0.40919 0.0
C1822 C 0.09031 0.72858 0.42936 0.0
C1823 C 0.0549 0.72967 0.39521 0.0
C1824 C 0.12709 0.7489 0.48815 0.0
C1825 C 0.11651 0.74181 0.47613 0.0
C1826 C 0.08551 0.74089 0.45782 0.0
C1827 C 0.06868 0.72511 0.4152 0.0
C1828 C 0.07831 0.72958 0.42998 0.0
C1829 C 0.10873 0.74757 0.47016 0.0
C1830 C 0.09784 0.74048 0.45689 0.0
H1831 H 0.052 0.69849 0.38689 0.0
H1832 H 0.06786 0.70562 0.4113 0.0
H1833 H 0.06659 0.73621 0.44549 0.0
H1834 H 0.12446 0.77766 0.49277 0.0
H1835 H 0.10615 0.76541 0.47194 0.0
C1836 C 0.33265 0.05268 0.73018 0.0
C1837 C 0.32274 0.03946 0.72433 0.0
C1838 C 0.32934 0.05915 0.74321 0.0
C1839 C 0.32186 0.06733 0.77715 0.0
H1840 H 0.28625 0.06526 0.77556 0.0
C1841 C 0.30414 0.09084 0.83059 0.0
C1842 C 0.29812 0.0985 0.8251 0.0
C1843 C 0.30639 0.08263 0.81899 0.0
C1844 C 0.29625 0.06596 0.77616 0.0
H1845 H 0.30163 0.02256 0.72773 0.0
H1846 H 0.29589 0.03381 0.75054 0.0
H1847 H 0.29201 0.05317 0.75391 0.0
H1848 H 0.28963 0.10341 0.80311 0.0
H1849 H 0.29351 0.08907 0.78291 0.0
H1850 H 0.32626 0.08044 0.7991 0.0
C1851 C 0.30617 0.03925 0.74492 0.0
C1852 C 0.2995 0.05892 0.76386 0.0
C1853 C 0.30949 0.03278 0.73191 0.0
C1854 C 0.29409 0.09748 0.80783 0.0
C1855 C 0.29633 0.08927 0.79624 0.0
C1856 C 0.31861 0.07435 0.78946 0.0
C1857 C 0.31603 0.05254 0.75066 0.0
C1858 C 0.31238 0.05961 0.76413 0.0
C1859 C 0.30266 0.08188 0.80163 0.0
C1860 C 0.30581 0.07384 0.78904 0.0
H1861 H 0.34294 0.05811 0.72458 0.0
H1862 H 0.33712 0.06945 0.74718 0.0
H1863 H 0.33182 0.06795 0.77783 0.0
H1864 H 0.30717 0.09124 0.84386 0.0
H1865 H 0.31108 0.07689 0.82361 0.0
C1866 C 0.93915 0.2789 0.71551 0.0
C1867 C 0.95178 0.28271 0.70724 0.0
C1868 C 0.93421 0.26918 0.72867 0.0
C1869 C 0.94413 0.25088 0.75978 0.0
H1870 H 0.90445 0.22535 0.76023 0.0
C1871 C 0.91472 0.2023 0.80413 0.0
C1872 C 0.9025 0.20057 0.81174 0.0
C1873 C 0.92203 0.21278 0.79207 0.0
C1874 C 0.91554 0.23246 0.76033 0.0
H1875 H 0.96931 0.27952 0.70662 0.0
H1876 H 0.96048 0.26221 0.72947 0.0
H1877 H 0.91469 0.24245 0.73757 0.0
H1878 H 0.88902 0.20915 0.81364 0.0
H1879 H 0.90159 0.22718 0.79247 0.0
H1880 H 0.94482 0.24053 0.78256 0.0
C1881 C 0.9545 0.26692 0.72588 0.0
C1882 C 0.92142 0.24231 0.74739 0.0
C1883 C 0.95954 0.27679 0.71275 0.0
C1884 C 0.89816 0.20995 0.80767 0.0
C1885 C 0.90538 0.2203 0.79559 0.0
C1886 C 0.93822 0.24087 0.77271 0.0
C1887 C 0.94167 0.26285 0.73382 0.0
C1888 C 0.93575 0.25184 0.74711 0.0
C1889 C 0.91719 0.22164 0.78737 0.0
C1890 C 0.92382 0.23175 0.77327 0.0
H1891 H 0.933 0.2834 0.71178 0.0
H1892 H 0.92448 0.26661 0.7348 0.0
H1893 H 0.95519 0.25809 0.75999 0.0
H1894 H 0.91831 0.19522 0.80696 0.0
H1895 H 0.93111 0.2136 0.78589 0.0
C1896 C 0.71645 0.65867 0.72008 0.0
C1897 C 0.71303 0.66745 0.71143 0.0
C1898 C 0.72652 0.66378 0.73284 0.0
C1899 C 0.74611 0.69306 0.76268 0.0
H1900 H 0.76992 0.67737 0.76468 0.0
C1901 C 0.79443 0.71104 0.80748 0.0
C1902 C 0.79484 0.70016 0.81573 0.0
C1903 C 0.78411 0.70825 0.79538 0.0
C1904 C 0.76331 0.68181 0.76431 0.0
H1905 H 0.71742 0.68854 0.70959 0.0
H1906 H 0.73534 0.69759 0.73176 0.0
H1907 H 0.75313 0.67056 0.74166 0.0
H1908 H 0.78408 0.67794 0.81891 0.0
H1909 H 0.76633 0.67312 0.79766 0.0
H1910 H 0.75665 0.70449 0.78538 0.0
C1911 C 0.73004 0.68667 0.72877 0.0
C1912 C 0.75364 0.67787 0.75117 0.0
C1913 C 0.71983 0.6815 0.71602 0.0
C1914 C 0.78426 0.68653 0.81245 0.0
C1915 C 0.77408 0.68376 0.80033 0.0
C1916 C 0.75596 0.69714 0.7758 0.0
C1917 C 0.73359 0.67787 0.73721 0.0
C1918 C 0.74468 0.68317 0.75041 0.0
C1919 C 0.77414 0.69456 0.79133 0.0
C1920 C 0.7644 0.69128 0.77691 0.0
H1921 H 0.7113 0.64776 0.71707 0.0
H1922 H 0.7287 0.65663 0.73937 0.0
H1923 H 0.73934 0.69731 0.7625 0.0
H1924 H 0.80246 0.72165 0.80972 0.0
H1925 H 0.78434 0.71675 0.78859 0.0
C1926 C 0.68748 0.63524 0.61907 0.0
C1927 C 0.69447 0.64919 0.62404 0.0
C1928 C 0.69249 0.63081 0.60545 0.0
C1929 C 0.71615 0.6431 0.56787 0.0
H1930 H 0.72036 0.61159 0.57717 0.0
C1931 C 0.74421 0.62547 0.52056 0.0
C1932 C 0.75464 0.624 0.52838 0.0
C1933 C 0.73437 0.62651 0.53063 0.0
C1934 C 0.71916 0.62035 0.57434 0.0
H1935 H 0.7119 0.66951 0.61831 0.0
H1936 H 0.72066 0.66178 0.59463 0.0
H1937 H 0.70779 0.61784 0.59756 0.0
H1938 H 0.76259 0.62172 0.55267 0.0
H1939 H 0.74547 0.6235 0.57022 0.0
H1940 H 0.72805 0.64595 0.54501 0.0
C1941 C 0.71126 0.65427 0.60115 0.0
C1942 C 0.71187 0.62386 0.58594 0.0
C1943 C 0.70631 0.65868 0.61481 0.0
C1944 C 0.75472 0.62297 0.54635 0.0
C1945 C 0.74484 0.62386 0.55637 0.0
C1946 C 0.72338 0.63954 0.55622 0.0
C1947 C 0.70452 0.64026 0.59647 0.0
C1948 C 0.71061 0.63549 0.58305 0.0
C1949 C 0.73471 0.62589 0.54865 0.0
C1950 C 0.72528 0.62835 0.55958 0.0
H1951 H 0.6783 0.62768 0.6259 0.0
H1952 H 0.68702 0.61996 0.60204 0.0
H1953 H 0.7152 0.65203 0.56522 0.0
H1954 H 0.74397 0.62633 0.50673 0.0
H1955 H 0.72663 0.628 0.52435 0.0
C1956 C 0.35056 0.05546 0.63096 0.0
C1957 C 0.3371 0.05071 0.63737 0.0
C1958 C 0.35588 0.06509 0.61756 0.0
C1959 C 0.36679 0.0919 0.59683 0.0
H1960 H 0.3424 0.08817 0.55945 0.0
C1961 C 0.37662 0.13689 0.55205 0.0
C1962 C 0.37246 0.13389 0.5348 0.0
C1963 C 0.37395 0.1263 0.56354 0.0
C1964 C 0.34944 0.0893 0.56964 0.0
H1965 H 0.31871 0.05236 0.63462 0.0
H1966 H 0.32798 0.06905 0.61146 0.0
H1967 H 0.33443 0.07022 0.58116 0.0
H1968 H 0.36304 0.1175 0.51584 0.0
H1969 H 0.35843 0.09903 0.53585 0.0
H1970 H 0.38179 0.11106 0.5853 0.0
C1971 C 0.33438 0.06526 0.61663 0.0
C1972 C 0.3448 0.07907 0.5822 0.0
C1973 C 0.3291 0.05574 0.63002 0.0
C1974 C 0.36614 0.12012 0.52913 0.0
C1975 C 0.3635 0.10954 0.54059 0.0
C1976 C 0.37144 0.10217 0.58426 0.0
C1977 C 0.34782 0.07006 0.61022 0.0
C1978 C 0.35332 0.08036 0.59611 0.0
C1979 C 0.36707 0.11246 0.55803 0.0
C1980 C 0.36273 0.10108 0.57064 0.0
H1981 H 0.357 0.05181 0.63634 0.0
H1982 H 0.36625 0.06854 0.61283 0.0
H1983 H 0.37358 0.09321 0.60743 0.0
H1984 H 0.38138 0.14737 0.55686 0.0
H1985 H 0.3767 0.12891 0.57691 0.0
C1986 C 0.94478 0.29858 0.61131 0.0
C1987 C 0.95149 0.29257 0.61968 0.0
C1988 C 0.9352 0.29145 0.59831 0.0
C1989 C 0.91164 0.2562 0.58271 0.0
H1990 H 0.90915 0.2749 0.54238 0.0
C1991 C 0.86415 0.23117 0.53835 0.0
C1992 C 0.86652 0.23267 0.52052 0.0
C1993 C 0.87498 0.23864 0.54985 0.0
C1994 C 0.90978 0.2695 0.5535 0.0
H1995 H 0.95368 0.27451 0.62067 0.0
H1996 H 0.93701 0.26209 0.59786 0.0
H1997 H 0.9277 0.28761 0.56308 0.0
H1998 H 0.88209 0.24339 0.50079 0.0
H1999 H 0.90108 0.25634 0.52092 0.0
H2000 H 0.89381 0.23807 0.57309 0.0
C2001 C 0.93903 0.27225 0.60152 0.0
C2002 C 0.92033 0.27682 0.56544 0.0
C2003 C 0.94863 0.27939 0.61453 0.0
C2004 C 0.87996 0.24193 0.51446 0.0
C2005 C 0.8908 0.24944 0.52598 0.0
C2006 C 0.90109 0.2489 0.5708 0.0
C2007 C 0.9321 0.27814 0.59338 0.0
C2008 C 0.92132 0.27027 0.58025 0.0
C2009 C 0.88845 0.24779 0.54381 0.0
C2010 C 0.89997 0.25549 0.55613 0.0
H2011 H 0.94676 0.30873 0.61499 0.0
H2012 H 0.92993 0.29622 0.59244 0.0
H2013 H 0.91202 0.25087 0.59406 0.0
H2014 H 0.85397 0.22401 0.54346 0.0
H2015 H 0.87278 0.23727 0.5635 0.0
C2016 C 0.32669 0.27105 0.63503 0.0
C2017 C 0.33382 0.28506 0.63975 0.0
C2018 C 0.33238 0.26598 0.62314 0.0
C2019 C 0.35767 0.27599 0.58787 0.0
H2020 H 0.35284 0.23989 0.59664 0.0
C2021 C 0.37802 0.24859 0.54233 0.0
C2022 C 0.36819 0.23474 0.53868 0.0
C2023 C 0.37536 0.25581 0.55509 0.0
C2024 C 0.35425 0.24997 0.59399 0.0
H2025 H 0.35253 0.30479 0.63541 0.0
H2026 H 0.36255 0.29585 0.61456 0.0
H2027 H 0.34552 0.25067 0.61821 0.0
H2028 H 0.34803 0.21753 0.54571 0.0
H2029 H 0.34339 0.23008 0.5678 0.0
H2030 H 0.36628 0.27511 0.56348 0.0
C2031 C 0.35248 0.28884 0.62009 0.0
C2032 C 0.35003 0.25614 0.60632 0.0
C2033 C 0.34676 0.29394 0.63206 0.0
C2034 C 0.35573 0.22824 0.54808 0.0
C2035 C 0.35314 0.23538 0.56086 0.0
C2036 C 0.36196 0.26981 0.5755 0.0
C2037 C 0.34539 0.27476 0.61565 0.0
C2038 C 0.35135 0.26905 0.60324 0.0
C2039 C 0.36292 0.24922 0.56456 0.0
C2040 C 0.35995 0.25658 0.57829 0.0
H2041 H 0.31666 0.2639 0.64056 0.0
H2042 H 0.3265 0.25515 0.61973 0.0
H2043 H 0.35879 0.28593 0.58509 0.0
H2044 H 0.38769 0.25385 0.53524 0.0
H2045 H 0.38309 0.26646 0.55772 0.0
C2046 C 0.70132 0.05411 0.61416 0.0
C2047 C 0.70631 0.04574 0.62036 0.0
C2048 C 0.70748 0.06253 0.59985 0.0
C2049 C 0.7403 0.07914 0.57528 0.0
H2050 H 0.71901 0.08652 0.54241 0.0
C2051 C 0.76613 0.11364 0.51661 0.0
C2052 C 0.76307 0.12419 0.5142 0.0
C2053 C 0.75821 0.10278 0.52785 0.0
C2054 C 0.72507 0.08457 0.55153 0.0
H2055 H 0.7213 0.03925 0.61611 0.0
H2056 H 0.73184 0.05369 0.59091 0.0
H2057 H 0.70703 0.06975 0.56531 0.0
H2058 H 0.74894 0.1313 0.52121 0.0
H2059 H 0.73501 0.11221 0.54074 0.0
H2060 H 0.75832 0.09397 0.56156 0.0
C2061 C 0.7234 0.05402 0.59733 0.0
C2062 C 0.71823 0.07501 0.56467 0.0
C2063 C 0.71732 0.04569 0.61172 0.0
C2064 C 0.75149 0.12327 0.52266 0.0
C2065 C 0.74352 0.11235 0.53386 0.0
C2066 C 0.7471 0.0886 0.5621 0.0
C2067 C 0.71868 0.06269 0.59136 0.0
C2068 C 0.72579 0.07227 0.5768 0.0
C2069 C 0.747 0.10218 0.53686 0.0
C2070 C 0.73958 0.0915 0.55017 0.0
H2071 H 0.69286 0.05439 0.62059 0.0
H2072 H 0.70369 0.0692 0.59577 0.0
H2073 H 0.74648 0.07752 0.58458 0.0
H2074 H 0.7748 0.1139 0.51 0.0
H2075 H 0.76098 0.09495 0.5297 0.0
C2076 C 0.94967 0.67147 0.62253 0.0
C2077 C 0.95225 0.66223 0.63158 0.0
C2078 C 0.94028 0.66686 0.60896 0.0
C2079 C 0.9095 0.63623 0.59251 0.0
H2080 H 0.9174 0.65847 0.5515 0.0
C2081 C 0.86886 0.62197 0.53861 0.0
C2082 C 0.86759 0.63302 0.53253 0.0
C2083 C 0.88002 0.62443 0.54908 0.0
C2084 C 0.915 0.65217 0.5629 0.0
H2085 H 0.94704 0.64087 0.63331 0.0
H2086 H 0.93045 0.63279 0.60958 0.0
H2087 H 0.93546 0.6648 0.5729 0.0
H2088 H 0.87736 0.65532 0.53203 0.0
H2089 H 0.89656 0.65958 0.55046 0.0
H2090 H 0.88889 0.62386 0.5828 0.0
C2091 C 0.93576 0.64362 0.61307 0.0
C2092 C 0.92536 0.65578 0.57514 0.0
C2093 C 0.9453 0.64826 0.62659 0.0
C2094 C 0.87792 0.64656 0.53671 0.0
C2095 C 0.88904 0.64901 0.54711 0.0
C2096 C 0.89909 0.63264 0.58029 0.0
C2097 C 0.93314 0.65288 0.60414 0.0
C2098 C 0.92263 0.64805 0.59026 0.0
C2099 C 0.89018 0.63799 0.55357 0.0
C2100 C 0.90163 0.64076 0.56553 0.0
H2101 H 0.95485 0.68229 0.62599 0.0
H2102 H 0.93835 0.67422 0.60249 0.0
H2103 H 0.90706 0.63012 0.6041 0.0
H2104 H 0.86104 0.61142 0.53566 0.0
H2105 H 0.88065 0.61571 0.55372 0.0
C2106 C 0.95019 0.66593 0.7287 0.0
C2107 C 0.96267 0.67584 0.72096 0.0
C2108 C 0.9444 0.66963 0.74217 0.0
C2109 C 0.94313 0.69906 0.76007 0.0
H2110 H 0.9272 0.67545 0.79986 0.0
C2111 C 0.91555 0.71186 0.81387 0.0
C2112 C 0.90296 0.7007 0.81978 0.0
C2113 C 0.92447 0.70958 0.8035 0.0
C2114 C 0.93151 0.68211 0.78878 0.0
H2115 H 0.97893 0.69738 0.72134 0.0
H2116 H 0.96869 0.70385 0.74481 0.0
H2117 H 0.93959 0.66995 0.77829 0.0
H2118 H 0.89023 0.67837 0.82016 0.0
H2119 H 0.90548 0.67442 0.80175 0.0
H2120 H 0.93466 0.71096 0.77017 0.0
C2121 C 0.96342 0.69323 0.74042 0.0
C2122 C 0.93863 0.67897 0.77645 0.0
C2123 C 0.9693 0.68951 0.72705 0.0
C2124 C 0.89974 0.68721 0.81559 0.0
C2125 C 0.9086 0.68494 0.80521 0.0
C2126 C 0.93591 0.70215 0.77233 0.0
C2127 C 0.95089 0.68333 0.74809 0.0
C2128 C 0.94432 0.68729 0.76184 0.0
C2129 C 0.92099 0.6961 0.79884 0.0
C2130 C 0.92982 0.69359 0.7867 0.0
H2131 H 0.94485 0.65532 0.7243 0.0
H2132 H 0.93465 0.6618 0.74769 0.0
H2133 H 0.9473 0.70559 0.74885 0.0
H2134 H 0.91832 0.72238 0.8168 0.0
H2135 H 0.93402 0.7184 0.79901 0.0
C2136 C 0.30598 0.28045 0.73282 0.0
C2137 C 0.31922 0.28728 0.72522 0.0
C2138 C 0.30296 0.27105 0.74615 0.0
C2139 C 0.29712 0.24512 0.76526 0.0
H2140 H 0.32456 0.25141 0.79975 0.0
C2141 C 0.29411 0.20133 0.80663 0.0
C2142 C 0.29855 0.20425 0.82378 0.0
C2143 C 0.2957 0.21185 0.7957 0.0
C2144 C 0.31669 0.24954 0.79036 0.0
H2145 H 0.33975 0.28982 0.72587 0.0
H2146 H 0.33444 0.27332 0.74891 0.0
H2147 H 0.3292 0.26952 0.77921 0.0
H2148 H 0.30763 0.22038 0.8431 0.0
H2149 H 0.31033 0.23874 0.82405 0.0
H2150 H 0.28457 0.22517 0.7765 0.0
C2151 C 0.32643 0.27534 0.74476 0.0
C2152 C 0.31943 0.25987 0.77845 0.0
C2153 C 0.32945 0.28474 0.73147 0.0
C2154 C 0.30432 0.21786 0.82987 0.0
C2155 C 0.30587 0.22837 0.81896 0.0
C2156 C 0.29436 0.23479 0.7772 0.0
C2157 C 0.31312 0.26828 0.75216 0.0
C2158 C 0.30976 0.25771 0.76562 0.0
C2159 C 0.30173 0.22552 0.80168 0.0
C2160 C 0.3042 0.23681 0.78974 0.0
H2161 H 0.29789 0.28223 0.72833 0.0
H2162 H 0.29266 0.26591 0.75173 0.0
H2163 H 0.28949 0.24306 0.75546 0.0
H2164 H 0.2898 0.19099 0.8015 0.0
H2165 H 0.2926 0.20933 0.7824 0.0
C2166 C 0.72476 0.03957 0.717 0.0
C2167 C 0.72061 0.04841 0.71004 0.0
C2168 C 0.73378 0.0438 0.73106 0.0
C2169 C 0.74572 0.0681 0.76741 0.0
H2170 H 0.77867 0.06505 0.76649 0.0
C2171 C 0.7918 0.10079 0.81142 0.0
C2172 C 0.79932 0.09506 0.81831 0.0
C2173 C 0.78139 0.09352 0.79939 0.0
C2174 C 0.76939 0.06575 0.76711 0.0
H2175 H 0.72271 0.06864 0.71239 0.0
H2176 H 0.73828 0.07591 0.73681 0.0
H2177 H 0.76189 0.05507 0.74312 0.0
H2178 H 0.80167 0.07708 0.81804 0.0
H2179 H 0.78334 0.06428 0.79697 0.0
H2180 H 0.75315 0.07885 0.79124 0.0
C2181 C 0.73453 0.0657 0.73149 0.0
C2182 C 0.75981 0.06006 0.7537 0.0
C2183 C 0.72568 0.06155 0.7174 0.0
C2184 C 0.79612 0.08181 0.81289 0.0
C2185 C 0.78564 0.07449 0.80082 0.0
C2186 C 0.75522 0.0737 0.78083 0.0
C2187 C 0.73864 0.05687 0.73852 0.0
C2188 C 0.74805 0.06149 0.75353 0.0
C2189 C 0.77817 0.08029 0.79391 0.0
C2190 C 0.76735 0.07291 0.78063 0.0
H2191 H 0.72106 0.02939 0.71162 0.0
H2192 H 0.73677 0.03679 0.73625 0.0
H2193 H 0.7366 0.06912 0.76778 0.0
H2194 H 0.79421 0.1111 0.81498 0.0
H2195 H 0.7761 0.09846 0.79405 0.0
C2196 C 0.02759 0.32736 0.05032 0.0
C2197 C 0.0306 0.33445 0.03462 0.0
C2198 C 0.03705 0.32434 0.05769 0.0
C2199 C 0.06464 0.31747 0.0494 0.0
H2200 H 0.07573 0.33001 0.09624 0.0
C2201 C 0.10438 0.30837 0.08593 0.0
C2202 C 0.10238 0.30601 0.1037 0.0
C2203 C 0.09622 0.31222 0.07663 0.0
C2204 C 0.07261 0.32622 0.08326 0.0
H2205 H 0.04574 0.3436 0.01408 0.0
H2206 H 0.06223 0.33789 0.02687 0.0
H2207 H 0.06035 0.33583 0.08137 0.0
H2208 H 0.08996 0.30523 0.12557 0.0
H2209 H 0.07535 0.31134 0.10938 0.0
H2210 H 0.07636 0.30732 0.05148 0.0
C2211 C 0.05256 0.33486 0.03347 0.0
C2212 C 0.06389 0.32968 0.07471 0.0
C2213 C 0.04317 0.33815 0.02621 0.0
C2214 C 0.09184 0.30719 0.11192 0.0
C2215 C 0.08355 0.3108 0.10262 0.0
C2216 C 0.0732 0.31378 0.05807 0.0
C2217 C 0.04963 0.32811 0.0494 0.0
C2218 C 0.05971 0.32523 0.05779 0.0
C2219 C 0.08574 0.31358 0.08489 0.0
C2220 C 0.07716 0.31797 0.07522 0.0
H2221 H 0.01802 0.32439 0.05716 0.0
H2222 H 0.03453 0.31903 0.06992 0.0
H2223 H 0.06147 0.31385 0.03637 0.0
H2224 H 0.11252 0.30762 0.07933 0.0
H2225 H 0.09835 0.31441 0.06307 0.0
C2226 C 0.6411 0.69481 0.0307 0.0
C2227 C 0.64748 0.68682 0.0308 0.0
C2228 C 0.6468 0.70718 0.03988 0.0
C2229 C 0.67914 0.73361 0.06152 0.0
H2230 H 0.65414 0.74427 0.08158 0.0
C2231 C 0.69473 0.78002 0.10854 0.0
C2232 C 0.69012 0.78899 0.10337 0.0
C2233 C 0.69033 0.76755 0.09986 0.0
C2234 C 0.66122 0.7414 0.07602 0.0
H2235 H 0.66479 0.68548 0.04069 0.0
H2236 H 0.67447 0.70681 0.05731 0.0
H2237 H 0.6447 0.72223 0.06672 0.0
H2238 H 0.67786 0.79211 0.08434 0.0
H2239 H 0.6698 0.77014 0.06979 0.0
H2240 H 0.69565 0.75279 0.07143 0.0
C2241 C 0.66527 0.70374 0.04975 0.0
C2242 C 0.65585 0.72883 0.06737 0.0
C2243 C 0.65968 0.69146 0.0403 0.0
C2244 C 0.68131 0.78532 0.08905 0.0
C2245 C 0.67675 0.77279 0.08061 0.0
C2246 C 0.68452 0.74611 0.07047 0.0
C2247 C 0.65888 0.71177 0.04968 0.0
C2248 C 0.66472 0.72485 0.05973 0.0
C2249 C 0.68111 0.76374 0.08604 0.0
C2250 C 0.67559 0.75018 0.07753 0.0
H2251 H 0.63177 0.69159 0.02333 0.0
H2252 H 0.64176 0.71321 0.03911 0.0
H2253 H 0.68632 0.73101 0.05566 0.0
H2254 H 0.7014 0.78242 0.11959 0.0
H2255 H 0.69378 0.76067 0.10428 0.0
C2256 C 0.30395 0.94746 0.03162 0.0
C2257 C 0.30829 0.96078 0.02552 0.0
C2258 C 0.29153 0.94011 0.04077 0.0
C2259 C 0.26582 0.94505 0.06532 0.0
H2260 H 0.24295 0.90542 0.05954 0.0
C2261 C 0.20996 0.91206 0.09247 0.0
C2262 C 0.20696 0.89973 0.10065 0.0
C2263 C 0.22252 0.91996 0.08374 0.0
C2264 C 0.2493 0.91648 0.06135 0.0
H2265 H 0.30285 0.9767 0.02384 0.0
H2266 H 0.28102 0.96374 0.0393 0.0
H2267 H 0.26425 0.91813 0.04286 0.0
H2268 H 0.21515 0.88644 0.10685 0.0
H2269 H 0.23687 0.90004 0.0913 0.0
H2270 H 0.2506 0.94333 0.08359 0.0
C2271 C 0.28737 0.9591 0.03747 0.0
C2272 C 0.26152 0.92376 0.05186 0.0
C2273 C 0.29985 0.9665 0.0285 0.0
C2274 C 0.21696 0.89569 0.10032 0.0
C2275 C 0.22942 0.90349 0.09147 0.0
C2276 C 0.25349 0.93777 0.07468 0.0
C2277 C 0.28311 0.94586 0.04386 0.0
C2278 C 0.26998 0.93813 0.05379 0.0
C2279 C 0.23225 0.91559 0.08293 0.0
C2280 C 0.24518 0.92341 0.07285 0.0
H2281 H 0.31028 0.94282 0.02963 0.0
H2282 H 0.28869 0.93003 0.04572 0.0
H2283 H 0.27218 0.95607 0.06736 0.0
H2284 H 0.20244 0.9154 0.09235 0.0
H2285 H 0.22445 0.92924 0.07718 0.0
C2286 C 0.33786 0.04286 -0.00057 0.0
C2287 C 0.33189 0.02955 0.99232 0.0
C2288 C 0.33339 0.05186 0.9943 0.0
C2289 C 0.30511 0.05296 0.97051 0.0
H2290 H 0.33363 0.09083 0.96146 0.0
C2291 C 0.29873 0.08867 0.92329 0.0
C2292 C 0.30374 0.10241 0.92843 0.0
C2293 C 0.30103 0.07983 0.93344 0.0
C2294 C 0.32553 0.08033 0.96415 0.0
H2295 H 0.31634 0.01513 0.97457 0.0
H2296 H 0.30887 0.03083 0.96532 0.0
H2297 H 0.33979 0.07533 0.97532 0.0
H2298 H 0.31456 0.11739 0.94872 0.0
H2299 H 0.31889 0.10202 0.96611 0.0
H2300 H 0.29099 0.0579 0.95855 0.0
C2301 C 0.31677 0.03431 0.97512 0.0
C2302 C 0.32903 0.07145 0.97216 0.0
C2303 C 0.32115 0.02531 0.98033 0.0
C2304 C 0.31083 0.10698 0.94415 0.0
C2305 C 0.31326 0.09818 0.95418 0.0
C2306 C 0.30164 0.06181 0.96232 0.0
C2307 C 0.32291 0.04775 0.98189 0.0
C2308 C 0.31891 0.05758 0.97516 0.0
C2309 C 0.30849 0.08456 0.94884 0.0
C2310 C 0.31186 0.07551 0.95882 0.0
H2311 H 0.34611 0.04638 0.00877 0.0
H2312 H 0.33822 0.06208 -5e-05 0.0
H2313 H 0.29698 0.04244 0.97296 0.0
H2314 H 0.2934 0.08485 0.91118 0.0
H2315 H 0.29738 0.06941 0.92893 0.0
C2316 C 0.94758 0.29931 0.98947 0.0
C2317 C 0.9618 0.30541 0.99301 0.0
C2318 C 0.94071 0.28713 0.97991 0.0
C2319 C 0.94252 0.25687 0.96534 0.0
H2320 H 0.9179 0.25538 0.92952 0.0
C2321 C 0.91688 0.21187 0.91617 0.0
C2322 C 0.90303 0.20723 0.91185 0.0
C2323 C 0.92445 0.22383 0.92607 0.0
C2324 C 0.92461 0.25554 0.93959 0.0
H2325 H 0.97983 0.30321 0.98965 0.0
H2326 H 0.96777 0.28188 0.97294 0.0
H2327 H 0.93019 0.27602 0.9472 0.0
H2328 H 0.88614 0.21125 0.91495 0.0
H2329 H 0.89925 0.23197 0.93225 0.0
H2330 H 0.93681 0.2363 0.9578 0.0
C2331 C 0.96197 0.28656 0.97763 0.0
C2332 C 0.93166 0.26739 0.94972 0.0
C2333 C 0.96889 0.29881 0.98714 0.0
C2334 C 0.89688 0.21472 0.91776 0.0
C2335 C 0.90441 0.2266 0.92768 0.0
C2336 C 0.9354 0.24496 0.95523 0.0
C2337 C 0.94785 0.28071 0.9737 0.0
C2338 C 0.94062 0.26815 0.96279 0.0
C2339 C 0.91831 0.23135 0.9319 0.0
C2340 C 0.92628 0.24413 0.94232 0.0
H2341 H 0.94177 0.30407 0.99383 0.0
H2342 H 0.92977 0.28275 0.97733 0.0
H2343 H 0.94928 0.25712 0.9754 0.0
H2344 H 0.92193 0.20637 0.91169 0.0
H2345 H 0.93518 0.22728 0.92892 0.0
C2346 C 0.69504 0.65552 0.98301 0.0
C2347 C 0.68934 0.66413 0.98331 0.0
C2348 C 0.7082 0.66019 0.97596 0.0
C2349 C 0.73329 0.6863 0.94567 0.0
H2350 H 0.75845 0.67558 0.96431 0.0
C2351 C 0.78836 0.70688 0.91818 0.0
C2352 C 0.79219 0.69692 0.91524 0.0
C2353 C 0.77639 0.70355 0.92762 0.0
C2354 C 0.75149 0.6786 0.95892 0.0
H2355 H 0.69318 0.68455 0.97708 0.0
H2356 H 0.71621 0.69278 0.96518 0.0
H2357 H 0.73654 0.66861 0.97901 0.0
H2358 H 0.78676 0.67583 0.92037 0.0
H2359 H 0.76584 0.67 0.93674 0.0
H2360 H 0.74823 0.69627 0.92559 0.0
C2361 C 0.71041 0.68231 0.96997 0.0
C2362 C 0.73893 0.67458 0.96731 0.0
C2363 C 0.69723 0.67762 0.9769 0.0
C2364 C 0.78398 0.68367 0.92225 0.0
C2365 C 0.77209 0.68038 0.93178 0.0
C2366 C 0.74587 0.69038 0.93736 0.0
C2367 C 0.71598 0.67359 0.96916 0.0
C2368 C 0.72962 0.6783 0.96071 0.0
C2369 C 0.76809 0.69024 0.93444 0.0
C2370 C 0.75506 0.68648 0.94381 0.0
H2371 H 0.68919 0.64506 0.98781 0.0
H2372 H 0.7121 0.65313 0.97538 0.0
H2373 H 0.72628 0.68914 0.94003 0.0
H2374 H 0.79445 0.71715 0.91287 0.0
H2375 H 0.77363 0.7114 0.92958 0.0
C2376 C 0.93692 0.64057 0.98971 0.0
C2377 C 0.95121 0.64878 0.99284 0.0
C2378 C 0.92984 0.64603 0.98122 0.0
C2379 C 0.93173 0.67871 0.96966 0.0
H2380 H 0.90608 0.6565 0.93378 0.0
C2381 C 0.90731 0.70004 0.92249 0.0
C2382 C 0.89342 0.69113 0.9179 0.0
C2383 C 0.91439 0.69521 0.93232 0.0
C2384 C 0.91306 0.66277 0.94391 0.0
H2385 H 0.9692 0.66927 0.98976 0.0
H2386 H 0.95682 0.67875 0.97487 0.0
H2387 H 0.91825 0.6474 0.94981 0.0
H2388 H 0.87585 0.67039 0.92066 0.0
H2389 H 0.8881 0.66201 0.93789 0.0
H2390 H 0.92651 0.69408 0.96374 0.0
C2391 C 0.9511 0.66811 0.9791 0.0
C2392 C 0.92004 0.65755 0.95309 0.0
C2393 C 0.9582 0.66264 0.98754 0.0
C2394 C 0.88664 0.67742 0.9237 0.0
C2395 C 0.89367 0.67262 0.93356 0.0
C2396 C 0.92471 0.68393 0.9605 0.0
C2397 C 0.93687 0.65983 0.97571 0.0
C2398 C 0.92943 0.66544 0.96609 0.0
C2399 C 0.90767 0.68139 0.93779 0.0
C2400 C 0.91526 0.67599 0.94755 0.0
H2401 H 0.9312 0.62987 0.99368 0.0
H2402 H 0.91883 0.63944 0.979 0.0
H2403 H 0.93882 0.68498 0.97972 0.0
H2404 H 0.91282 0.71063 0.91809 0.0
H2405 H 0.92521 0.7022 0.93523 0.0
C2406 C 0.34997 0.31003 0.98746 0.0
C2407 C 0.34022 0.31419 0.99028 0.0
C2408 C 0.34603 0.29743 0.97942 0.0
C2409 C 0.31669 0.2632 0.97019 0.0
H2410 H 0.3381 0.26424 0.93026 0.0
C2411 C 0.29966 0.21526 0.92702 0.0
C2412 C 0.3101 0.21318 0.92017 0.0
C2413 C 0.30304 0.22757 0.93552 0.0
C2414 C 0.33213 0.26369 0.94154 0.0
H2415 H 0.31863 0.30824 0.9875 0.0
H2416 H 0.31171 0.28605 0.97379 0.0
H2417 H 0.34475 0.28541 0.94615 0.0
H2418 H 0.33234 0.22265 0.91655 0.0
H2419 H 0.33824 0.24364 0.93208 0.0
H2420 H 0.30429 0.24145 0.96597 0.0
C2421 C 0.32239 0.29261 0.97767 0.0
C2422 C 0.33592 0.27584 0.95059 0.0
C2423 C 0.32637 0.30531 0.98545 0.0
C2424 C 0.324 0.22375 0.92193 0.0
C2425 C 0.32739 0.23594 0.93061 0.0
C2426 C 0.31301 0.25098 0.96131 0.0
C2427 C 0.33224 0.28867 0.97434 0.0
C2428 C 0.32825 0.27571 0.96498 0.0
C2429 C 0.31697 0.23804 0.93752 0.0
C2430 C 0.32069 0.25106 0.94686 0.0
H2431 H 0.36071 0.31667 0.99102 0.0
H2432 H 0.35378 0.29456 0.97709 0.0
H2433 H 0.31066 0.26285 0.98133 0.0
H2434 H 0.28884 0.20732 0.92607 0.0
H2435 H 0.29472 0.22888 0.94044 0.0
C2436 C 0.69964 0.02943 0.97914 0.0
C2437 C 0.69566 0.03699 0.98979 0.0
C2438 C 0.71262 0.03594 0.97109 0.0
C2439 C 0.74778 0.06512 0.97434 0.0
H2440 H 0.74927 0.06279 0.92472 0.0
C2441 C 0.79689 0.10169 0.9358 0.0
C2442 C 0.79965 0.09722 0.92014 0.0
C2443 C 0.78465 0.09333 0.94487 0.0
C2444 C 0.74914 0.06334 0.9386 0.0
H2445 H 0.70228 0.05719 0.00067 0.0
H2446 H 0.72512 0.06846 0.98691 0.0
H2447 H 0.72709 0.04995 0.9396 0.0
H2448 H 0.79175 0.0801 0.90211 0.0
H2449 H 0.77079 0.06524 0.91838 0.0
H2450 H 0.76979 0.07822 0.97355 0.0
C2451 C 0.71811 0.05754 0.98471 0.0
C2452 C 0.73639 0.05603 0.94709 0.0
C2453 C 0.70503 0.05111 0.99249 0.0
C2454 C 0.79007 0.08389 0.91417 0.0
C2455 C 0.7779 0.07543 0.92339 0.0
C2456 C 0.76057 0.07222 0.9659 0.0
C2457 C 0.72197 0.05004 0.97382 0.0
C2458 C 0.73558 0.05704 0.965 0.0
C2459 C 0.77489 0.08014 0.93871 0.0
C2460 C 0.76142 0.07164 0.94787 0.0
H2461 H 0.69263 0.01855 0.97677 0.0
H2462 H 0.7154 0.02994 0.96278 0.0
H2463 H 0.74742 0.06592 0.9882 0.0
H2464 H 0.80413 0.11176 0.94103 0.0
H2465 H 0.7827 0.09745 0.95647 0.0
C2466 C 0.67531 0.97529 0.04538 0.0
C2467 C 0.6657 0.97067 0.03187 0.0
C2468 C 0.67898 0.96642 0.05304 0.0
C2469 C 0.68033 0.93486 0.04651 0.0
H2470 H 0.6804 0.93402 0.09633 0.0
C2471 C 0.68765 0.89491 0.08447 0.0
C2472 C 0.69508 0.89919 0.09998 0.0
C2473 C 0.68432 0.90361 0.07563 0.0
C2474 C 0.68066 0.93426 0.08242 0.0
H2475 H 0.65264 0.95319 0.01551 0.0
H2476 H 0.65919 0.93765 0.02888 0.0
H2477 H 0.67408 0.94909 0.08173 0.0
H2478 H 0.70502 0.91615 0.11814 0.0
H2479 H 0.6997 0.93149 0.10242 0.0
H2480 H 0.68714 0.9202 0.04717 0.0
C2481 C 0.66384 0.94817 0.03351 0.0
C2482 C 0.67697 0.94286 0.07405 0.0
C2483 C 0.66006 0.95704 0.02592 0.0
C2484 C 0.69939 0.91253 0.10618 0.0
C2485 C 0.69615 0.92127 0.09727 0.0
C2486 C 0.68416 0.92632 0.05488 0.0
C2487 C 0.67321 0.95274 0.0473 0.0
C2488 C 0.67681 0.94329 0.05602 0.0
C2489 C 0.68842 0.91687 0.08199 0.0
C2490 C 0.68441 0.92595 0.07296 0.0
H2491 H 0.6799 0.98574 0.05026 0.0
H2492 H 0.68636 0.97029 0.06348 0.0
H2493 H 0.68043 0.93508 0.03259 0.0
H2494 H 0.68435 0.8848 0.07914 0.0
H2495 H 0.67826 0.89981 0.064 0.0
C2496 C 0.03565 0.69568 0.02779 0.0
C2497 C 0.02151 0.69138 0.0267 0.0
C2498 C 0.04507 0.7087 0.03444 0.0
C2499 C 0.0511 0.74329 0.04334 0.0
H2500 H 0.0724 0.74286 0.08213 0.0
C2501 C 0.08212 0.79114 0.08687 0.0
C2502 C 0.0947 0.79344 0.09375 0.0
C2503 C 0.07338 0.77895 0.07793 0.0
C2504 C 0.06676 0.74327 0.07113 0.0
H2505 H 0.00624 0.69756 0.03081 0.0
H2506 H 0.02279 0.72043 0.04206 0.0
H2507 H 0.05745 0.72156 0.06667 0.0
H2508 H 0.10777 0.78447 0.09677 0.0
H2509 H 0.09306 0.76378 0.08044 0.0
H2510 H 0.06058 0.76503 0.04749 0.0
C2511 C 0.02653 0.71368 0.03793 0.0
C2512 C 0.05816 0.73103 0.06231 0.0
C2513 C 0.01708 0.70058 0.03157 0.0
C2514 C 0.09831 0.78324 0.09141 0.0
C2515 C 0.08971 0.77119 0.08226 0.0
C2516 C 0.0599 0.75561 0.05197 0.0
C2517 C 0.04055 0.71772 0.0398 0.0
C2518 C 0.0502 0.7309 0.04841 0.0
C2519 C 0.07708 0.76882 0.07547 0.0
C2520 C 0.0678 0.75576 0.06606 0.0
H2521 H 0.03935 0.6888 0.02416 0.0
H2522 H 0.05585 0.71164 0.03567 0.0
H2523 H 0.04508 0.74344 0.0326 0.0
H2524 H 0.07904 0.7988 0.08823 0.0
H2525 H 0.06366 0.77743 0.07311 0.0
C2526 C 0.30648 0.33922 0.04083 0.0
C2527 C 0.31389 0.35348 0.0375 0.0
C2528 C 0.29381 0.33323 0.04962 0.0
C2529 C 0.27381 0.34209 0.07941 0.0
H2530 H 0.24211 0.3078 0.06389 0.0
C2531 C 0.21916 0.3238 0.10497 0.0
C2532 C 0.21065 0.30976 0.10896 0.0
C2533 C 0.23168 0.32846 0.09629 0.0
C2534 C 0.25092 0.31729 0.0685 0.0
H2535 H 0.3137 0.37258 0.0406 0.0
H2536 H 0.29164 0.36213 0.0558 0.0
H2537 H 0.26423 0.31719 0.04864 0.0
H2538 H 0.20852 0.28954 0.10679 0.0
H2539 H 0.23052 0.29772 0.09157 0.0
H2540 H 0.26058 0.34228 0.09919 0.0
C2541 C 0.29569 0.3556 0.05182 0.0
C2542 C 0.26358 0.32266 0.05978 0.0
C2543 C 0.3083 0.36158 0.04301 0.0
C2544 C 0.21482 0.30041 0.10378 0.0
C2545 C 0.2274 0.30509 0.09508 0.0
C2546 C 0.26121 0.33673 0.08812 0.0
C2547 C 0.28835 0.34139 0.05532 0.0
C2548 C 0.2751 0.33522 0.06501 0.0
C2549 C 0.23602 0.3192 0.0914 0.0
C2550 C 0.24957 0.32438 0.08263 0.0
H2551 H 0.31048 0.33268 0.03675 0.0
H2552 H 0.28842 0.32226 0.05224 0.0
H2553 H 0.28258 0.35164 0.08398 0.0
H2554 H 0.21608 0.33121 0.10845 0.0
H2555 H 0.23793 0.33934 0.0933 0.0
C2556 C 0.6905 0.65781 0.37044 0.0
C2557 C 0.69537 0.67125 0.36434 0.0
C2558 C 0.69972 0.65406 0.37697 0.0
C2559 C 0.73356 0.66899 0.39762 0.0
H2560 H 0.73033 0.63369 0.38741 0.0
C2561 C 0.77209 0.65457 0.42531 0.0
C2562 C 0.76675 0.64093 0.43087 0.0
C2563 C 0.76388 0.65823 0.41588 0.0
C2564 C 0.73128 0.64353 0.39055 0.0
H2565 H 0.71375 0.69121 0.35996 0.0
H2566 H 0.72985 0.68466 0.37149 0.0
H2567 H 0.7151 0.64013 0.37312 0.0
H2568 H 0.74864 0.62039 0.43085 0.0
H2569 H 0.73416 0.62681 0.4147 0.0
H2570 H 0.74941 0.6723 0.4154 0.0
C2571 C 0.71889 0.67706 0.37126 0.0
C2572 C 0.72259 0.64722 0.38231 0.0
C2573 C 0.70968 0.68078 0.36457 0.0
C2574 C 0.75307 0.63097 0.42659 0.0
C2575 C 0.7448 0.63465 0.41729 0.0
C2576 C 0.74217 0.66526 0.40597 0.0
C2577 C 0.71398 0.6637 0.37768 0.0
C2578 C 0.7236 0.65998 0.3858 0.0
C2579 C 0.75007 0.64837 0.41191 0.0
C2580 C 0.74112 0.65245 0.40261 0.0
H2581 H 0.67953 0.65022 0.37043 0.0
H2582 H 0.69561 0.64373 0.38196 0.0
H2583 H 0.73444 0.6788 0.40079 0.0
H2584 H 0.78267 0.66242 0.42819 0.0
H2585 H 0.76841 0.66882 0.41165 0.0
C2586 C 0.30884 0.03166 0.36511 0.0
C2587 C 0.31407 0.02271 0.36656 0.0
C2588 C 0.31529 0.0444 0.3735 0.0
C2589 C 0.34784 0.06981 0.39569 0.0
H2590 H 0.32415 0.08305 0.41315 0.0
C2591 C 0.36431 0.11726 0.4415 0.0
C2592 C 0.36035 0.12659 0.43568 0.0
C2593 C 0.35988 0.10475 0.43287 0.0
C2594 C 0.33088 0.07948 0.40829 0.0
H2595 H 0.33024 0.02012 0.37784 0.0
H2596 H 0.34124 0.04218 0.3931 0.0
H2597 H 0.31382 0.06065 0.39907 0.0
H2598 H 0.34945 0.13043 0.4155 0.0
H2599 H 0.34134 0.10844 0.40095 0.0
H2600 H 0.36487 0.08867 0.40559 0.0
C2601 C 0.33234 0.03952 0.38512 0.0
C2602 C 0.32499 0.06669 0.4001 0.0
C2603 C 0.326 0.02683 0.37645 0.0
C2604 C 0.35236 0.12335 0.42066 0.0
C2605 C 0.34779 0.11081 0.41223 0.0
C2606 C 0.35372 0.08255 0.4042 0.0
C2607 C 0.327 0.04842 0.38385 0.0
C2608 C 0.33339 0.06177 0.39339 0.0
C2609 C 0.3513 0.10131 0.41842 0.0
C2610 C 0.34528 0.08756 0.41029 0.0
H2611 H 0.29978 0.02887 0.35738 0.0
H2612 H 0.31109 0.0511 0.37178 0.0
H2613 H 0.35466 0.06645 0.39058 0.0
H2614 H 0.37038 0.11937 0.45308 0.0
H2615 H 0.36268 0.09753 0.43787 0.0
C2616 C 0.97094 0.28696 0.3802 0.0
C2617 C 0.97725 0.29969 0.37163 0.0
C2618 C 0.95785 0.28166 0.38766 0.0
C2619 C 0.92598 0.28303 0.38482 0.0
H2620 H 0.91813 0.26498 0.42918 0.0
C2621 C 0.87826 0.252 0.43697 0.0
C2622 C 0.86809 0.24239 0.42579 0.0
C2623 C 0.89152 0.26134 0.43083 0.0
C2624 C 0.92018 0.27016 0.4169 0.0
H2625 H 0.97475 0.31689 0.36423 0.0
H2626 H 0.95183 0.30756 0.37725 0.0
H2627 H 0.94175 0.27672 0.41796 0.0
H2628 H 0.86352 0.23563 0.39927 0.0
H2629 H 0.88671 0.25185 0.38857 0.0
H2630 H 0.90434 0.27627 0.38367 0.0
C2631 C 0.95704 0.30168 0.37812 0.0
C2632 C 0.93368 0.27674 0.41039 0.0
C2633 C 0.97018 0.30704 0.37074 0.0
C2634 C 0.8712 0.24284 0.4082 0.0
C2635 C 0.88444 0.25221 0.40205 0.0
C2636 C 0.91245 0.27638 0.3913 0.0
C2637 C 0.95074 0.28894 0.38666 0.0
C2638 C 0.93667 0.28302 0.39416 0.0
C2639 C 0.89485 0.26129 0.41339 0.0
C2640 C 0.90938 0.26969 0.40729 0.0
H2641 H 0.97609 0.28103 0.38113 0.0
H2642 H 0.95318 0.27172 0.39396 0.0
H2643 H 0.92797 0.28773 0.37223 0.0
H2644 H 0.87619 0.25183 0.45061 0.0
H2645 H 0.8993 0.26833 0.43982 0.0
C2646 C 0.00172 0.36005 0.30702 0.0
C2647 C 0.01115 0.36366 0.32059 0.0
C2648 C -0.00049 0.36996 0.29938 0.0
C2649 C 0.01567 0.40778 0.29425 0.0
H2650 H 0.97912 0.39794 0.278 0.0
C2651 C 0.00259 0.44775 0.26798 0.0
C2652 C 0.99536 0.4443 0.25233 0.0
C2653 C 0.0043 0.43798 0.27689 0.0
C2654 C 0.98939 0.40079 0.2824 0.0
H2655 H 0.02548 0.38043 0.33706 0.0
H2656 H 0.02136 0.39768 0.32405 0.0
H2657 H 0.98236 0.38079 0.29294 0.0
H2658 H 0.98434 0.42784 0.23375 0.0
H2659 H 0.98706 0.41072 0.24955 0.0
H2660 H 0.02261 0.42785 0.28387 0.0
C2661 C 0.0159 0.38726 0.31901 0.0
C2662 C 0.99128 0.39098 0.29091 0.0
C2663 C 0.0182 0.37736 0.32655 0.0
C2664 C 0.98975 0.4308 0.2459 0.0
C2665 C 0.99134 0.42099 0.25492 0.0
C2666 C 0.01375 0.41763 0.2859 0.0
C2667 C 0.0066 0.38371 0.30525 0.0
C2668 C 0.00447 0.39431 0.29681 0.0
C2669 C -0.00132 0.42451 0.27045 0.0
C2670 C 0.00061 0.41419 0.27978 0.0
H2671 H 0.99619 0.34959 0.30208 0.0
H2672 H 0.99246 0.36689 0.28863 0.0
H2673 H 0.02602 0.41065 0.29835 0.0
H2674 H 0.00683 0.45797 0.27348 0.0
H2675 H 0.00987 0.44091 0.28895 0.0
C2676 C 0.61553 0.64073 0.31128 0.0
C2677 C 0.62904 0.64591 0.31753 0.0
C2678 C 0.60919 0.62878 0.30122 0.0
C2679 C 0.61009 0.59727 0.29114 0.0
H2680 H 0.58899 0.5959 0.25113 0.0
C2681 C 0.58523 0.55011 0.24539 0.0
C2682 C 0.57179 0.54584 0.23957 0.0
C2683 C 0.59292 0.56264 0.25415 0.0
C2684 C 0.59473 0.59606 0.26235 0.0
H2685 H 0.64645 0.6425 0.31809 0.0
H2686 H 0.63532 0.6216 0.30051 0.0
H2687 H 0.60103 0.61709 0.26797 0.0
H2688 H 0.55582 0.55131 0.23857 0.0
H2689 H 0.56916 0.57307 0.2539 0.0
H2690 H 0.60361 0.57618 0.2857 0.0
C2691 C 0.62964 0.62679 0.3035 0.0
C2692 C 0.60164 0.60821 0.27199 0.0
C2693 C 0.63603 0.6388 0.31351 0.0
C2694 C 0.56624 0.55442 0.24261 0.0
C2695 C 0.5739 0.56691 0.2514 0.0
C2696 C 0.60313 0.58509 0.28154 0.0
C2697 C 0.61616 0.62167 0.2972 0.0
C2698 C 0.6093 0.60892 0.28658 0.0
C2699 C 0.58732 0.57116 0.25734 0.0
C2700 C 0.59527 0.5843 0.2671 0.0
H2701 H 0.60982 0.64591 0.31413 0.0
H2702 H 0.59872 0.62499 0.29676 0.0
H2703 H 0.61579 0.59745 0.30243 0.0
H2704 H 0.58984 0.5438 0.24307 0.0
H2705 H 0.6033 0.5657 0.25832 0.0
C2706 C 0.35257 0.9794 0.32127 0.0
C2707 C 0.3497 0.99014 0.32313 0.0
C2708 C 0.36498 0.9819 0.3137 0.0
C2709 C 0.40062 0.00862 0.30392 0.0
H2710 H 0.39734 0.98525 0.26527 0.0
C2711 C 0.44733 0.02095 0.2599 0.0
C2712 C 0.44825 0.00982 0.25308 0.0
C2713 C 0.4355 0.01865 0.26894 0.0
C2714 C 0.39853 0.99174 0.27622 0.0
H2715 H 0.35778 0.01199 0.31918 0.0
H2716 H 0.37962 0.01639 0.30629 0.0
H2717 H 0.37666 0.98086 0.28104 0.0
H2718 H 0.43722 0.98751 0.25035 0.0
H2719 H 0.41711 0.98349 0.26684 0.0
H2720 H 0.4225 0.01933 0.29946 0.0
C2721 C 0.37221 0.00605 0.31056 0.0
C2722 C 0.38664 0.98923 0.2852 0.0
C2723 C 0.3597 0.00351 0.31787 0.0
C2724 C 0.43705 0.99635 0.25564 0.0
C2725 C 0.42535 0.99404 0.26488 0.0
C2726 C 0.41256 0.01101 0.29512 0.0
C2727 C 0.37485 0.99521 0.30813 0.0
C2728 C 0.38757 0.99767 0.29908 0.0
C2729 C 0.42435 0.00515 0.27157 0.0
C2730 C 0.41168 0.00262 0.2811 0.0
H2731 H 0.34505 0.96899 0.32519 0.0
H2732 H 0.36683 0.97339 0.31206 0.0
H2733 H 0.40159 0.01523 0.31467 0.0
H2734 H 0.45578 0.03146 0.25839 0.0
H2735 H 0.43507 0.02749 0.27368 0.0
C2736 C 0.60809 0.96181 0.31436 0.0
C2737 C 0.62182 0.97155 0.31877 0.0
C2738 C 0.60009 0.96576 0.30498 0.0
C2739 C 0.59712 0.99592 0.29408 0.0
H2740 H 0.57374 0.97238 0.25729 0.0
C2741 C 0.56668 0.01198 0.24952 0.0
C2742 C 0.55308 0.00173 0.24533 0.0
C2743 C 0.57545 0.00856 0.25808 0.0
C2744 C 0.58011 0.979 0.26764 0.0
H2745 H 0.63791 0.99309 0.31677 0.0
H2746 H 0.62392 -5e-05 0.30035 0.0
H2747 H 0.58836 0.96593 0.27298 0.0
H2748 H 0.53794 0.97988 0.2471 0.0
H2749 H 0.55319 0.97392 0.26211 0.0
H2750 H 0.58877 0.00892 0.28887 0.0
C2751 C 0.61934 0.98928 0.30427 0.0
C2752 C 0.58849 0.97531 0.27661 0.0
C2753 C 0.62737 0.98533 0.3136 0.0
C2754 C 0.54844 0.98799 0.24991 0.0
C2755 C 0.55719 0.98457 0.25849 0.0
C2756 C 0.58871 -0.0004 0.28513 0.0
C2757 C 0.60561 0.97953 0.29985 0.0
C2758 C 0.59703 0.98369 0.29 0.0
C2759 C 0.5708 0.99481 0.26267 0.0
C2760 C 0.58004 0.99113 0.27187 0.0
H2761 H 0.60347 0.95111 0.31815 0.0
H2762 H 0.58949 0.95804 0.30196 0.0
H2763 H 0.60347 0.0025 0.30447 0.0
H2764 H 0.57061 0.02264 0.24596 0.0
H2765 H 0.58593 0.01667 0.2609 0.0
C2766 C -0.00155 0.63993 0.31981 0.0
C2767 C 0.01178 0.65025 0.32488 0.0
C2768 C 0.99636 0.62766 0.3124 0.0
C2769 C 0.01409 0.61451 0.28645 0.0
H2770 H 0.98534 0.57822 0.3013 0.0
C2771 C 0.00921 0.56529 0.25672 0.0
C2772 C 0.99588 0.55375 0.25443 0.0
C2773 C 0.01109 0.57677 0.266 0.0
C2774 C 0.99329 0.58827 0.2968 0.0
H2775 H 0.03331 0.65575 0.32647 0.0
H2776 H 0.02967 0.63442 0.31319 0.0
H2777 H 0.98854 0.59869 0.31651 0.0
H2778 H 0.97407 0.5453 0.26035 0.0
H2779 H 0.97727 0.56559 0.27568 0.0
H2780 H 0.01858 0.60434 0.26638 0.0
C2781 C 0.02087 0.63582 0.31505 0.0
C2782 C 0.99515 0.59997 0.3056 0.0
C2783 C 0.02292 0.64797 0.32272 0.0
C2784 C 0.98448 0.55405 0.26161 0.0
C2785 C 0.98634 0.56563 0.27069 0.0
C2786 C 0.0121 0.60286 0.27748 0.0
C2787 C 0.0076 0.62562 0.30967 0.0
C2788 C 0.00562 0.61318 0.30054 0.0
C2789 C -0.00032 0.57715 0.27302 0.0
C2790 C 0.00171 0.58956 0.28257 0.0
H2791 H 0.98966 0.6414 0.32135 0.0
H2792 H 0.98604 0.61997 0.30828 0.0
H2793 H 0.0221 0.62462 0.28215 0.0
H2794 H 0.01824 0.56557 0.25118 0.0
H2795 H 0.02155 0.58532 0.26774 0.0
C2796 C 0.36572 0.36598 0.31135 0.0
C2797 C 0.3604 0.37297 0.32079 0.0
C2798 C 0.37862 0.37332 0.30317 0.0
C2799 C 0.4046 0.40888 0.28877 0.0
H2800 H 0.42877 0.39365 0.28485 0.0
C2801 C 0.46172 0.44128 0.26785 0.0
C2802 C 0.46565 0.43596 0.25391 0.0
C2803 C 0.44906 0.43317 0.27622 0.0
C2804 C 0.42207 0.39797 0.28581 0.0
H2805 H 0.36464 0.39309 0.32952 0.0
H2806 H 0.38729 0.40579 0.31596 0.0
H2807 H 0.40633 0.38038 0.29926 0.0
H2808 H 0.45932 0.41769 0.23819 0.0
H2809 H 0.43743 0.40341 0.25332 0.0
H2810 H 0.42059 0.42665 0.27579 0.0
C2811 C 0.38135 0.39471 0.31426 0.0
C2812 C 0.40918 0.39036 0.29397 0.0
C2813 C 0.36837 0.38741 0.32216 0.0
C2814 C 0.45678 0.42212 0.249 0.0
C2815 C 0.4442 0.41393 0.25759 0.0
C2816 C 0.41755 0.41655 0.2809 0.0
C2817 C 0.3866 0.3878 0.30448 0.0
C2818 C 0.40028 0.39574 0.2956 0.0
C2819 C 0.44014 0.41947 0.27107 0.0
C2820 C 0.42641 0.41119 0.27938 0.0
H2821 H 0.35978 0.35486 0.31 0.0
H2822 H 0.3822 0.36763 0.29557 0.0
H2823 H 0.39794 0.41325 0.28933 0.0
H2824 H 0.46839 0.45176 0.27229 0.0
H2825 H 0.44622 0.43761 0.28675 0.0
C2826 C 0.32832 0.29289 0.35954 0.0
C2827 C 0.33394 0.3065 0.36551 0.0
C2828 C 0.3324 0.28414 0.36677 0.0
C2829 C 0.35963 0.28438 0.39441 0.0
H2830 H 0.33165 0.2461 0.40216 0.0
C2831 C 0.36695 0.24858 0.44079 0.0
C2832 C 0.36263 0.23514 0.43493 0.0
C2833 C 0.36406 0.25733 0.43128 0.0
C2834 C 0.3396 0.25673 0.39992 0.0
H2835 H 0.34827 0.32162 0.38371 0.0
H2836 H 0.35505 0.30635 0.3966 0.0
H2837 H 0.32544 0.26121 0.38732 0.0
H2838 H 0.35228 0.22059 0.41409 0.0
H2839 H 0.34696 0.23575 0.39781 0.0
H2840 H 0.37366 0.27992 0.40753 0.0
C2841 C 0.34776 0.30246 0.38606 0.0
C2842 C 0.33607 0.2654 0.39135 0.0
C2843 C 0.3438 0.31121 0.37874 0.0
C2844 C 0.3555 0.23075 0.41922 0.0
C2845 C 0.35249 0.23944 0.40983 0.0
C2846 C 0.36311 0.27575 0.40314 0.0
C2847 C 0.34209 0.28878 0.38024 0.0
C2848 C 0.34602 0.27937 0.38858 0.0
C2849 C 0.35668 0.25279 0.41579 0.0
C2850 C 0.35312 0.26186 0.40607 0.0
H2851 H 0.32075 0.28898 0.3493 0.0
H2852 H 0.32796 0.27374 0.36178 0.0
H2853 H 0.36764 0.29499 0.39221 0.0
H2854 H 0.37228 0.25226 0.45293 0.0
H2855 H 0.36729 0.26753 0.43628 0.0
C2856 C 0.70396 0.02753 0.35601 0.0
C2857 C 0.68951 0.02112 0.35793 0.0
C2858 C 0.71258 0.04115 0.36145 0.0
C2859 C 0.7128 0.06669 0.39162 0.0
H2860 H 0.74684 0.09213 0.36786 0.0
C2861 C 0.74846 0.12232 0.41582 0.0
C2862 C 0.76261 0.12663 0.41663 0.0
C2863 C 0.73925 0.11023 0.40703 0.0
C2864 C 0.73739 0.08511 0.37466 0.0
H2865 H 0.67273 0.02413 0.36636 0.0
H2866 H 0.68773 0.04795 0.37553 0.0
H2867 H 0.73119 0.06955 0.3552 0.0
H2868 H 0.77832 0.122 0.40828 0.0
H2869 H 0.76225 0.10084 0.39308 0.0
H2870 H 0.71904 0.08217 0.41114 0.0
C2871 C 0.69244 0.04238 0.37019 0.0
C2872 C 0.72844 0.07217 0.36743 0.0
C2873 C 0.68384 0.02875 0.36484 0.0
C2874 C 0.76744 0.11884 0.40804 0.0
C2875 C 0.75826 0.10681 0.39918 0.0
C2876 C 0.72171 0.07963 0.3988 0.0
C2877 C 0.70692 0.04867 0.36885 0.0
C2878 C 0.7161 0.06275 0.37592 0.0
C2879 C 0.74404 0.10227 0.39877 0.0
C2880 C 0.73417 0.08892 0.39049 0.0
H2881 H 0.70864 0.02191 0.35076 0.0
H2882 H 0.72369 0.04562 0.36039 0.0
H2883 H 0.70351 0.05962 0.39867 0.0
H2884 H 0.74442 0.12806 0.4224 0.0
H2885 H 0.72837 0.10706 0.4068 0.0
C2886 C 0.97388 0.69478 0.37633 0.0
C2887 C 0.97955 0.6868 0.37063 0.0
C2888 C 0.96124 0.68867 0.38504 0.0
C2889 C 0.92902 0.65572 0.39198 0.0
H2890 H 0.92531 0.67515 0.43111 0.0
C2891 C 0.87892 0.63423 0.43359 0.0
C2892 C 0.87492 0.64384 0.43813 0.0
C2893 C 0.89172 0.6386 0.42559 0.0
C2894 C 0.92615 0.66965 0.42014 0.0
H2895 H 0.97627 0.66606 0.36954 0.0
H2896 H 0.95409 0.65537 0.38488 0.0
H2897 H 0.94771 0.6843 0.41694 0.0
H2898 H 0.88092 0.66543 0.43715 0.0
H2899 H 0.90316 0.67303 0.42329 0.0
H2900 H 0.90735 0.64114 0.39512 0.0
C2901 C 0.95947 0.66637 0.38248 0.0
C2902 C 0.93898 0.67488 0.41203 0.0
C2903 C 0.9722 0.67251 0.37377 0.0
C2904 C 0.88383 0.65782 0.43417 0.0
C2905 C 0.89657 0.66217 0.42623 0.0
C2906 C 0.91614 0.65046 0.40012 0.0
C2907 C 0.95392 0.67442 0.38829 0.0
C2908 C 0.94051 0.66813 0.39767 0.0
C2909 C 0.90074 0.65265 0.42203 0.0
C2910 C 0.91453 0.65753 0.41409 0.0
H2911 H 0.97921 0.7058 0.37408 0.0
H2912 H 0.95711 0.69512 0.38908 0.0
H2913 H 0.92987 0.65034 0.38087 0.0
H2914 H 0.87232 0.62339 0.43659 0.0
H2915 H 0.89469 0.63104 0.42257 0.0
C2916 C 0.37491 0.01349 0.69102 0.0
C2917 C 0.36255 0.00948 0.70005 0.0
C2918 C 0.38472 0.01051 0.69752 0.0
C2919 C 0.38918 0.9891 0.73074 0.0
H2920 H 0.42816 0.01551 0.7237 0.0
C2921 C 0.43126 0.97942 0.75806 0.0
C2922 C 0.44347 0.99086 0.76434 0.0
C2923 C 0.42169 0.98123 0.74868 0.0
C2924 C 0.41733 0.00808 0.72599 0.0
H2925 H 0.35081 -0.00065 0.72304 0.0
H2926 H 0.36806 0.99473 0.73475 0.0
H2927 H 0.41091 0.01965 0.71095 0.0
H2928 H 0.45527 0.01327 0.76505 0.0
H2929 H 0.4383 0.01637 0.74981 0.0
H2930 H 0.39556 0.978 0.7467 0.0
C2931 C 0.37008 -0.00029 0.72234 0.0
C2932 C 0.40738 0.01033 0.71837 0.0
C2933 C 0.36019 0.00246 0.71569 0.0
C2934 C 0.44589 0.00416 0.76078 0.0
C2935 C 0.43622 0.00597 0.75169 0.0
C2936 C 0.39912 0.98697 0.7386 0.0
C2937 C 0.3825 0.00367 0.71336 0.0
C2938 C 0.39315 0.00093 0.72075 0.0
C2939 C 0.42393 0.99453 0.74556 0.0
C2940 C 0.41335 0.99648 0.73646 0.0
H2941 H 0.37696 0.01884 0.67887 0.0
H2942 H 0.39401 0.01351 0.69005 0.0
H2943 H 0.37836 0.98144 0.73261 0.0
H2944 H 0.4289 0.969 0.76064 0.0
H2945 H 0.41251 0.97215 0.74394 0.0
C2946 C 0.98866 0.35692 0.70098 0.0
C2947 C 0.97724 0.35209 0.68993 0.0
C2948 C 0.99298 0.36891 0.71075 0.0
C2949 C 0.98001 0.39157 0.7267 0.0
H2950 H 0.01869 0.4169 0.73719 0.0
C2951 C -0.00085 0.44547 0.7549 0.0
C2952 C 0.00699 0.44869 0.77006 0.0
C2953 C 0.99632 0.43388 0.74516 0.0
C2954 C 0.00785 0.40984 0.73442 0.0
H2955 H 0.96183 0.35636 0.67981 0.0
H2956 H 0.96966 0.37746 0.69618 0.0
H2957 H 0.01228 0.3964 0.71965 0.0
H2958 H 0.01837 0.44239 0.7865 0.0
H2959 H 0.01374 0.42232 0.76905 0.0
H2960 H 0.97567 0.40526 0.74102 0.0
C2961 C 0.97498 0.37178 0.69791 0.0
C2962 C 0.00415 0.39807 0.72444 0.0
C2963 C 0.97054 0.35971 0.6884 0.0
C2964 C 0.01241 0.44031 0.77483 0.0
C2965 C 0.00973 0.4288 0.76491 0.0
C2966 C 0.98373 0.4034 0.7364 0.0
C2967 C 0.98609 0.37641 0.70947 0.0
C2968 C 0.99017 0.38883 0.72035 0.0
C2969 C 0.00145 0.42537 0.75016 0.0
C2970 C -0.00233 0.41267 0.74027 0.0
H2971 H 0.994 0.35122 0.70248 0.0
H2972 H 0.00147 0.37206 0.71962 0.0
H2973 H 0.96911 0.38453 0.72427 0.0
H2974 H 0.99513 0.45187 0.75053 0.0
H2975 H 0.99009 0.43156 0.73368 0.0
C2976 C 0.63528 0.61588 0.70929 0.0
C2977 C 0.64137 0.62882 0.70122 0.0
C2978 C 0.6228 0.61079 0.71828 0.0
C2979 C 0.59154 0.61319 0.7201 0.0
H2980 H 0.58558 0.59452 0.76378 0.0
C2981 C 0.54634 0.58354 0.77537 0.0
C2982 C 0.53548 0.57405 0.76486 0.0
C2983 C 0.55945 0.59232 0.76834 0.0
C2984 C 0.58714 0.59987 0.7517 0.0
H2985 H 0.63921 0.64663 0.69646 0.0
H2986 H 0.61736 0.63766 0.71207 0.0
H2987 H 0.60856 0.60577 0.75051 0.0
H2988 H 0.5295 0.56681 0.73872 0.0
H2989 H 0.55238 0.58219 0.72641 0.0
H2990 H 0.57004 0.60702 0.72111 0.0
C2991 C 0.62225 0.63147 0.71138 0.0
C2992 C 0.60024 0.60617 0.74404 0.0
C2993 C 0.63479 0.63662 0.70251 0.0
C2994 C 0.53774 0.57398 0.7471 0.0
C2995 C 0.55079 0.58285 0.74006 0.0
C2996 C 0.57841 0.60679 0.72769 0.0
C2997 C 0.61611 0.61849 0.71929 0.0
C2998 C 0.60252 0.61272 0.72805 0.0
C2999 C 0.56185 0.59186 0.75067 0.0
C3000 C 0.57604 0.5999 0.74345 0.0
H3001 H 0.6401 0.60962 0.70857 0.0
H3002 H 0.61822 0.60067 0.72411 0.0
H3003 H 0.59299 0.6181 0.70771 0.0
H3004 H 0.54488 0.58372 0.78912 0.0
H3005 H 0.56778 0.59925 0.77678 0.0
C3006 C 0.65419 0.68681 0.65006 0.0
C3007 C 0.66826 0.69157 0.65304 0.0
C3008 C 0.65001 0.69571 0.64377 0.0
C3009 C 0.66203 0.73281 0.63688 0.0
H3010 H 0.63329 0.71829 0.60219 0.0
C3011 C 0.65243 0.76737 0.59174 0.0
C3012 C 0.63863 0.7641 0.58956 0.0
C3013 C 0.65543 0.75845 0.60053 0.0
C3014 C 0.64121 0.72244 0.612 0.0
H3015 H 0.68899 0.70942 0.65203 0.0
H3016 H 0.68178 0.7249 0.64056 0.0
H3017 H 0.63982 0.70298 0.61581 0.0
H3018 H 0.61716 0.74878 0.59487 0.0
H3019 H 0.62246 0.73299 0.60987 0.0
H3020 H 0.6637 0.75238 0.63255 0.0
C3021 C 0.6739 0.71437 0.64343 0.0
C3022 C 0.64494 0.71368 0.61986 0.0
C3023 C 0.67806 0.70548 0.64992 0.0
C3024 C 0.62789 0.75155 0.59614 0.0
C3025 C 0.63091 0.74253 0.60479 0.0
C3026 C 0.6584 0.74159 0.62887 0.0
C3027 C 0.65983 0.70955 0.64012 0.0
C3028 C 0.65547 0.71877 0.63232 0.0
C3029 C 0.64472 0.74597 0.60716 0.0
C3030 C 0.64803 0.73651 0.61628 0.0
H3031 H 0.64637 0.67615 0.65251 0.0
H3032 H 0.63906 0.69171 0.64173 0.0
H3033 H 0.66999 0.73704 0.64664 0.0
H3034 H 0.66096 0.77678 0.58649 0.0
H3035 H 0.66616 0.76122 0.60191 0.0
C3036 C 0.30137 0.97228 0.6506 0.0
C3037 C 0.29432 0.97931 0.65471 0.0
C3038 C 0.29458 0.95961 0.64193 0.0
C3039 C 0.26429 0.93863 0.61416 0.0
H3040 H 0.26889 0.9081 0.62783 0.0
C3041 C 0.22769 0.88344 0.5904 0.0
C3042 C 0.23351 0.87545 0.58532 0.0
C3043 C 0.23572 0.89609 0.59867 0.0
C3044 C 0.26763 0.91658 0.62373 0.0
H3045 H 0.27451 0.97838 0.65313 0.0
H3046 H 0.26272 0.95633 0.63824 0.0
H3047 H 0.28189 0.93031 0.64262 0.0
H3048 H 0.25234 0.87446 0.58513 0.0
H3049 H 0.26641 0.89661 0.5997 0.0
H3050 H 0.24998 0.92495 0.5954 0.0
C3051 C 0.27355 0.96069 0.64145 0.0
C3052 C 0.27508 0.9293 0.63219 0.0
C3053 C 0.28031 0.97332 0.6501 0.0
C3054 C 0.24752 0.88031 0.58901 0.0
C3055 C 0.25558 0.893 0.59734 0.0
C3056 C 0.25686 0.92595 0.60574 0.0
C3057 C 0.28061 0.95372 0.63715 0.0
C3058 C 0.27335 0.94041 0.62764 0.0
C3059 C 0.24978 0.90108 0.60212 0.0
C3060 C 0.2583 0.91472 0.61057 0.0
H3061 H 0.31217 0.97661 0.65396 0.0
H3062 H 0.30034 0.95454 0.6387 0.0
H3063 H 0.26295 0.94706 0.61008 0.0
H3064 H 0.21685 0.87986 0.58811 0.0
H3065 H 0.23086 0.90192 0.60252 0.0
C3066 C 0.02592 0.33741 0.63145 0.0
C3067 C 0.02104 0.32873 0.64587 0.0
C3068 C 0.03888 0.34137 0.62436 0.0
C3069 C 0.07307 0.34688 0.633 0.0
H3070 H 0.07381 0.33976 0.5843 0.0
C3071 C 0.12299 0.35617 0.59802 0.0
C3072 C 0.12482 0.36045 0.58081 0.0
C3073 C 0.11058 0.35244 0.60665 0.0
C3074 C 0.07389 0.34207 0.59784 0.0
H3075 H 0.02611 0.31775 0.66453 0.0
H3076 H 0.04907 0.32502 0.65227 0.0
H3077 H 0.05187 0.33326 0.59833 0.0
H3078 H 0.11548 0.36479 0.55932 0.0
H3079 H 0.09409 0.35889 0.57448 0.0
H3080 H 0.09514 0.35613 0.63247 0.0
C3081 C 0.04271 0.3286 0.64643 0.0
C3082 C 0.06127 0.33823 0.60588 0.0
C3083 C 0.02959 0.32442 0.65338 0.0
C3084 C 0.11423 0.36135 0.57253 0.0
C3085 C 0.10193 0.35786 0.58122 0.0
C3086 C 0.08577 0.35095 0.62489 0.0
C3087 C 0.04735 0.33693 0.63169 0.0
C3088 C 0.06075 0.34065 0.6235 0.0
C3089 C 0.09982 0.35312 0.5983 0.0
C3090 C 0.08635 0.34866 0.60716 0.0
H3091 H 0.01958 0.3409 0.62535 0.0
H3092 H 0.04228 0.34789 0.61307 0.0
H3093 H 0.07292 0.34892 0.6466 0.0
H3094 H 0.131 0.35531 0.60462 0.0
H3095 H 0.10931 0.34869 0.6197 0.0
C3096 C 0.2757 0.30351 0.64489 0.0
C3097 C 0.28943 0.31225 0.65025 0.0
C3098 C 0.26876 0.30874 0.63561 0.0
C3099 C 0.26878 0.34082 0.62672 0.0
H3100 H 0.24579 0.32 0.58811 0.0
C3101 C 0.24198 0.36168 0.58297 0.0
C3102 C 0.22833 0.35221 0.57793 0.0
C3103 C 0.24992 0.35717 0.59145 0.0
C3104 C 0.25206 0.32587 0.59897 0.0
H3105 H 0.30666 0.33337 0.65003 0.0
H3106 H 0.29452 0.34248 0.63376 0.0
H3107 H 0.25881 0.31147 0.60346 0.0
H3108 H 0.21219 0.33064 0.57823 0.0
H3109 H 0.22598 0.32278 0.59308 0.0
H3110 H 0.26191 0.35516 0.62233 0.0
C3111 C 0.28911 0.33159 0.63687 0.0
C3112 C 0.25953 0.32099 0.60774 0.0
C3113 C 0.29608 0.32635 0.64611 0.0
C3114 C 0.22276 0.33816 0.58167 0.0
C3115 C 0.23067 0.33366 0.59017 0.0
C3116 C 0.26128 0.3457 0.61795 0.0
C3117 C 0.27538 0.32284 0.63151 0.0
C3118 C 0.26788 0.32834 0.6218 0.0
C3119 C 0.24436 0.3431 0.5951 0.0
C3120 C 0.25274 0.33822 0.60406 0.0
H3121 H 0.27025 0.2926 0.64788 0.0
H3122 H 0.25812 0.30176 0.63187 0.0
H3123 H 0.27501 0.34664 0.63762 0.0
H3124 H 0.24661 0.37256 0.58008 0.0
H3125 H 0.26048 0.36468 0.5949 0.0
C3126 C 0.68305 0.97376 0.65171 0.0
C3127 C 0.67364 0.97849 0.65318 0.0
C3128 C 0.67878 0.96068 0.64494 0.0
C3129 C 0.64866 0.92655 0.63638 0.0
H3130 H 0.67103 0.92543 0.59885 0.0
C3131 C 0.63113 0.87751 0.59494 0.0
C3132 C 0.64141 0.87467 0.58941 0.0
C3133 C 0.63476 0.89001 0.60312 0.0
C3134 C 0.66477 0.92547 0.60949 0.0
H3135 H 0.65227 0.97303 0.64944 0.0
H3136 H 0.64479 0.95005 0.63786 0.0
H3137 H 0.67803 0.94719 0.6134 0.0
H3138 H 0.66363 0.88296 0.58793 0.0
H3139 H 0.66988 0.90427 0.60286 0.0
H3140 H 0.63553 0.90478 0.63274 0.0
C3141 C 0.65546 0.95651 0.64186 0.0
C3142 C 0.66878 0.93797 0.61778 0.0
C3143 C 0.65976 0.96967 0.64841 0.0
C3144 C 0.65539 0.88464 0.59227 0.0
C3145 C 0.65901 0.89702 0.6006 0.0
C3146 C 0.64473 0.91398 0.62823 0.0
C3147 C 0.665 0.95201 0.63974 0.0
C3148 C 0.66078 0.93863 0.63129 0.0
C3149 C 0.64876 0.89992 0.60606 0.0
C3150 C 0.65275 0.91328 0.61468 0.0
H3151 H 0.69381 0.98032 0.65527 0.0
H3152 H 0.6863 0.95738 0.64357 0.0
H3153 H 0.64235 0.9268 0.64683 0.0
H3154 H 0.62026 0.87004 0.59311 0.0
H3155 H 0.62659 0.89194 0.60696 0.0
C3156 C 0.02764 0.69152 0.64409 0.0
C3157 C 0.02372 0.69964 0.65368 0.0
C3158 C 0.04098 0.69742 0.63703 0.0
C3159 C 0.07642 0.72497 0.64288 0.0
H3160 H 0.08075 0.72542 0.59339 0.0
C3161 C 0.1275 0.76354 0.60967 0.0
C3162 C 0.13105 0.76025 0.5937 0.0
C3163 C 0.11488 0.75449 0.61758 0.0
C3164 C 0.07983 0.72514 0.60725 0.0
H3165 H 0.03074 0.72018 0.66372 0.0
H3166 H 0.05414 0.73033 0.65183 0.0
H3167 H 0.05768 0.71236 0.60614 0.0
H3168 H 0.12422 0.74445 0.57392 0.0
H3169 H 0.10259 0.72836 0.58817 0.0
H3170 H 0.09846 0.73751 0.64422 0.0
C3171 C 0.04683 0.71947 0.64962 0.0
C3172 C 0.06657 0.71771 0.61451 0.0
C3173 C 0.03344 0.71368 0.65631 0.0
C3174 C 0.12192 0.74733 0.58627 0.0
C3175 C 0.10937 0.73817 0.59433 0.0
C3176 C 0.08969 0.73217 0.63568 0.0
C3177 C 0.05069 0.71142 0.63985 0.0
C3178 C 0.06476 0.71785 0.63234 0.0
C3179 C 0.10553 0.74175 0.60992 0.0
C3180 C 0.09157 0.73268 0.61772 0.0
H3181 H 0.02034 0.68068 0.64183 0.0
H3182 H 0.04376 0.69104 0.62952 0.0
H3183 H 0.07525 0.72509 0.65671 0.0
H3184 H 0.13437 0.77325 0.61599 0.0
H3185 H 0.1123 0.75776 0.62945 0.0
C3186 C 0.00075 0.63545 0.70291 0.0
C3187 C 0.98746 0.63215 0.6975 0.0
C3188 C 0.0028 0.62555 0.71089 0.0
C3189 C 0.98498 0.5949 0.73744 0.0
H3190 H 0.01497 0.5888 0.72467 0.0
C3191 C 0.99179 0.55278 0.76994 0.0
C3192 C 0.00532 0.55543 0.77272 0.0
C3193 C 0.98947 0.56179 0.76017 0.0
C3194 C 0.00667 0.59051 0.72859 0.0
H3195 H 0.96595 0.61582 0.69596 0.0
H3196 H 0.96952 0.59855 0.71024 0.0
H3197 H 0.01124 0.60507 0.70833 0.0
H3198 H 0.02705 0.56978 0.76731 0.0
H3199 H 0.02307 0.58582 0.75109 0.0
H3200 H 0.98065 0.58081 0.75805 0.0
C3201 C 0.97833 0.60881 0.7082 0.0
C3202 C 0.00449 0.59977 0.71914 0.0
C3203 C 0.97631 0.61866 0.69996 0.0
C3204 C 0.01649 0.56745 0.76565 0.0
C3205 C 0.01418 0.57656 0.75606 0.0
C3206 C 0.98727 0.5858 0.74705 0.0
C3207 C 0.99158 0.6122 0.71386 0.0
C3208 C 0.99363 0.60205 0.72348 0.0
C3209 C 0.00063 0.57382 0.75311 0.0
C3210 C -0.00185 0.58348 0.74277 0.0
H3211 H 0.00954 0.64576 0.70116 0.0
H3212 H 0.01311 0.62845 0.71523 0.0
H3213 H 0.97665 0.59663 0.7412 0.0
H3214 H 0.98292 0.54376 0.77539 0.0
H3215 H 0.97888 0.5592 0.75802 0.0
C3216 C 0.37064 0.36073 0.69601 0.0
C3217 C 0.35638 0.35588 0.69482 0.0
C3218 C 0.37963 0.37379 0.70289 0.0
C3219 C 0.38364 0.40765 0.71233 0.0
H3220 H 0.40792 0.40923 0.74866 0.0
C3221 C 0.41468 0.45623 0.75479 0.0
C3222 C 0.42805 0.45957 0.75991 0.0
C3223 C 0.40599 0.44379 0.7463 0.0
C3224 C 0.40139 0.40907 0.73835 0.0
H3225 H 0.34044 0.36109 0.69924 0.0
H3226 H 0.3562 0.38399 0.71102 0.0
H3227 H 0.3931 0.38748 0.73395 0.0
H3228 H 0.44262 0.45223 0.76028 0.0
H3229 H 0.42782 0.43098 0.74486 0.0
H3230 H 0.39206 0.42928 0.71651 0.0
C3231 C 0.36039 0.37766 0.70671 0.0
C3232 C 0.39288 0.39657 0.72996 0.0
C3233 C 0.35137 0.36454 0.70004 0.0
C3234 C 0.4325 0.45016 0.75629 0.0
C3235 C 0.42389 0.43782 0.74767 0.0
C3236 C 0.39229 0.42022 0.72059 0.0
C3237 C 0.37456 0.38231 0.70849 0.0
C3238 C 0.3839 0.39573 0.7169 0.0
C3239 C 0.41049 0.43441 0.74263 0.0
C3240 C 0.40126 0.42108 0.73375 0.0
H3241 H 0.37481 0.35429 0.6921 0.0
H3242 H 0.39054 0.37719 0.70398 0.0
H3243 H 0.37687 0.40729 0.70222 0.0
H3244 H 0.41094 0.46328 0.7572 0.0
H3245 H 0.39568 0.44145 0.74281 0.0
C3246 C 0.64288 0.00906 0.6991 0.0
C3247 C 0.65083 0.02313 0.69484 0.0
C3248 C 0.63055 0.00406 0.70844 0.0
C3249 C 0.61274 0.01548 0.73825 0.0
H3250 H 0.57962 0.98136 0.72534 0.0
C3251 C 0.55079 0.98651 0.75309 0.0
C3252 C 0.55109 0.98816 0.77103 0.0
C3253 C 0.56282 0.98949 0.74407 0.0
C3254 C 0.58879 0.99091 0.72906 0.0
H3255 H 0.65197 0.04294 0.69692 0.0
H3256 H 0.63049 0.0342 0.71315 0.0
H3257 H 0.60097 0.98946 0.70869 0.0
H3258 H 0.564 0.99343 0.79368 0.0
H3259 H 0.585 -0.00136 0.77793 0.0
H3260 H 0.60057 0.01713 0.75836 0.0
C3261 C 0.63386 0.02707 0.70941 0.0
C3262 C 0.60102 0.99548 0.71964 0.0
C3263 C 0.64614 0.03206 0.70002 0.0
C3264 C 0.56352 0.99232 0.77982 0.0
C3265 C 0.57554 0.9953 0.77081 0.0
C3266 C 0.60056 0.01089 0.7477 0.0
C3267 C 0.62597 0.01304 0.71379 0.0
C3268 C 0.61309 0.00788 0.72406 0.0
C3269 C 0.57538 0.99417 0.75281 0.0
C3270 C 0.58843 -0.00139 0.74315 0.0
H3271 H 0.64619 0.0019 0.69529 0.0
H3272 H 0.62474 0.99322 0.71175 0.0
H3273 H 0.62192 0.02499 0.74208 0.0
H3274 H 0.5414 0.98344 0.74595 0.0
H3275 H 0.56241 0.98864 0.73018 0.0
loop_
_geom_bond_atom_site_label_1
_geom_bond_atom_site_label_2
_geom_bond_distance
_geom_bond_site_symmetry_2
_ccdc_geom_bond_type
C0 O1 1.306 1_556 S
C0 O3 1.160 . S
O1 C0 1.306 1_554 S
O1 Cd2 2.228 . S
Cd2 O1 2.228 . S
Cd2 O6 2.273 . S
Cd2 O10 2.277 1_554 S
O3 C0 1.160 . S
O3 Cd4 2.203 1_656 S
Cd4 O3 2.203 1_454 S
Cd4 O6 2.411 1_455 S
Cd4 O7 2.333 . S
Cd4 O8 2.352 . S
Cd4 O12 2.277 1_554 S
Cd4 O13 2.356 . S
C5 O10 1.209 1_455 S
C5 O12 1.226 . S
O6 Cd2 2.273 . S
O6 Cd4 2.411 1_655 S
O6 C9 1.320 1_655 S
O7 Cd4 2.333 . S
O7 C9 1.214 . S
O8 Cd4 2.352 . S
O8 C11 1.258 . S
C9 O6 1.320 1_455 S
C9 O7 1.214 . S
O10 Cd2 2.277 1_556 S
O10 C5 1.209 1_655 S
C11 O8 1.258 . S
C11 O13 1.282 . S
O12 Cd4 2.277 1_556 S
O12 C5 1.226 . S
O13 Cd4 2.356 . S
O13 C11 1.282 . S
C14 O15 1.306 . S
C14 O17 1.160 . S
O15 C14 1.306 . S
O15 Cd16 2.228 . S
Cd16 O15 2.228 . S
Cd16 O20 2.273 1_554 S
Cd16 O24 2.277 . S
O17 C14 1.160 . S
O17 Cd18 2.203 . S
Cd18 O17 2.203 . S
Cd18 O20 2.411 1_554 S
Cd18 O21 2.333 1_554 S
Cd18 O22 2.352 1_554 S
Cd18 O26 2.277 . S
Cd18 O27 2.356 . S
C19 O24 1.209 . S
C19 O26 1.226 . S
O20 Cd16 2.273 1_556 S
O20 Cd18 2.411 1_556 S
O20 C23 1.320 . S
O21 Cd18 2.333 1_556 S
O21 C23 1.214 . S
O22 Cd18 2.352 1_556 S
O22 C25 1.258 . S
C23 O20 1.320 . S
C23 O21 1.214 . S
O24 Cd16 2.277 . S
O24 C19 1.209 . S
C25 O22 1.258 . S
C25 O27 1.282 1_556 S
O26 Cd18 2.277 . S
O26 C19 1.226 . S
O27 Cd18 2.356 . S
O27 C25 1.282 1_554 S
C28 O29 1.306 . S
C28 O31 1.160 . S
O29 C28 1.306 . S
O29 Cd30 2.228 . S
Cd30 O29 2.228 . S
Cd30 O34 2.273 1_554 S
Cd30 O38 2.277 . S
O31 C28 1.160 . S
O31 Cd32 2.203 1_565 S
Cd32 O31 2.203 1_545 S
Cd32 O34 2.411 1_544 S
Cd32 O35 2.333 1_554 S
Cd32 O36 2.352 1_554 S
Cd32 O40 2.277 . S
Cd32 O41 2.356 . S
C33 O38 1.209 1_545 S
C33 O40 1.226 . S
O34 Cd30 2.273 1_556 S
O34 Cd32 2.411 1_566 S
O34 C37 1.320 1_565 S
O35 Cd32 2.333 1_556 S
O35 C37 1.214 . S
O36 Cd32 2.352 1_556 S
O36 C39 1.258 . S
C37 O34 1.320 1_545 S
C37 O35 1.214 . S
O38 Cd30 2.277 . S
O38 C33 1.209 1_565 S
C39 O36 1.258 . S
C39 O41 1.282 1_556 S
O40 Cd32 2.277 . S
O40 C33 1.226 . S
O41 Cd32 2.356 . S
O41 C39 1.282 1_554 S
C42 O43 1.306 1_556 S
C42 O45 1.160 . S
O43 C42 1.306 1_554 S
O43 Cd44 2.228 . S
Cd44 O43 2.228 . S
Cd44 O48 2.273 . S
Cd44 O52 2.277 1_554 S
O45 C42 1.160 . S
O45 Cd46 2.203 1_656 S
Cd46 O45 2.203 1_454 S
Cd46 O48 2.411 1_455 S
Cd46 O49 2.333 . S
Cd46 O50 2.352 . S
Cd46 O54 2.277 1_554 S
Cd46 O55 2.356 . S
C47 O52 1.209 1_455 S
C47 O54 1.226 . S
O48 Cd44 2.273 . S
O48 Cd46 2.411 1_655 S
O48 C51 1.322 . S
O49 Cd46 2.333 . S
O49 C51 1.212 1_455 S
O50 Cd46 2.352 . S
O50 C53 1.258 . S
C51 O48 1.322 . S
C51 O49 1.212 1_655 S
O52 Cd44 2.277 1_556 S
O52 C47 1.209 1_655 S
C53 O50 1.258 . S
C53 O55 1.282 . S
O54 Cd46 2.277 1_556 S
O54 C47 1.226 . S
O55 Cd46 2.356 . S
O55 C53 1.282 . S
C56 O57 1.306 . S
C56 O59 1.160 . S
O57 C56 1.306 . S
O57 Cd58 2.228 . S
Cd58 O57 2.228 . S
Cd58 O62 2.273 1_554 S
Cd58 O66 2.277 . S
O59 C56 1.160 . S
O59 Cd60 2.203 . S
Cd60 O59 2.203 . S
Cd60 O62 2.411 1_554 S
Cd60 O63 2.333 1_554 S
Cd60 O64 2.352 1_554 S
Cd60 O68 2.277 . S
Cd60 O69 2.356 . S
C61 O66 1.209 . S
C61 O68 1.226 . S
O62 Cd58 2.273 1_556 S
O62 Cd60 2.411 1_556 S
O62 C65 1.320 . S
O63 Cd60 2.333 1_556 S
O63 C65 1.214 . S
O64 Cd60 2.352 1_556 S
O64 C67 1.258 . S
C65 O62 1.320 . S
C65 O63 1.214 . S
O66 Cd58 2.277 . S
O66 C61 1.209 . S
C67 O64 1.258 . S
C67 O69 1.282 1_556 S
O68 Cd60 2.277 . S
O68 C61 1.226 . S
O69 Cd60 2.356 . S
O69 C67 1.282 1_554 S
C70 O71 1.306 1_556 S
C70 O73 1.160 . S
O71 C70 1.306 1_554 S
O71 Cd72 2.228 . S
Cd72 O71 2.228 . S
Cd72 O76 2.273 . S
Cd72 O80 2.277 1_554 S
O73 C70 1.160 . S
O73 Cd74 2.203 1_546 S
Cd74 O73 2.203 1_564 S
Cd74 O76 2.411 1_565 S
Cd74 O77 2.333 . S
Cd74 O78 2.352 . S
Cd74 O82 2.277 1_554 S
Cd74 O83 2.356 . S
C75 O80 1.209 1_565 S
C75 O82 1.226 . S
O76 Cd72 2.273 . S
O76 Cd74 2.411 1_545 S
O76 C79 1.320 . S
O77 Cd74 2.333 . S
O77 C79 1.214 1_565 S
O78 Cd74 2.352 . S
O78 C81 1.258 . S
C79 O76 1.320 . S
C79 O77 1.214 1_545 S
O80 Cd72 2.277 1_556 S
O80 C75 1.209 1_545 S
C81 O78 1.258 . S
C81 O83 1.282 . S
O82 Cd74 2.277 1_556 S
O82 C75 1.226 . S
O83 Cd74 2.356 . S
O83 C81 1.282 . S
C84 O85 1.306 . S
C84 O87 1.160 . S
O85 C84 1.306 . S
O85 Cd86 2.228 . S
Cd86 O85 2.228 . S
Cd86 O90 2.273 . S
Cd86 O94 2.277 . S
O87 C84 1.160 . S
O87 Cd88 2.203 . S
Cd88 O87 2.203 . S
Cd88 O90 2.411 . S
Cd88 O91 2.333 . S
Cd88 O92 2.352 . S
Cd88 O96 2.277 . S
Cd88 O97 2.356 . S
C89 O94 1.209 . S
C89 O96 1.226 . S
O90 Cd86 2.273 . S
O90 Cd88 2.411 . S
O90 C93 1.320 . S
O91 Cd88 2.333 . S
O91 C93 1.214 . S
O92 Cd88 2.352 . S
O92 C95 1.258 . S
C93 O90 1.320 . S
C93 O91 1.214 . S
O94 Cd86 2.277 . S
O94 C89 1.209 . S
C95 O92 1.258 . S
C95 O97 1.282 . S
O96 Cd88 2.277 . S
O96 C89 1.226 . S
O97 Cd88 2.356 . S
O97 C95 1.282 . S
C98 O99 1.306 . S
C98 O101 1.160 . S
O99 C98 1.306 . S
O99 Cd100 2.228 1_545 S
Cd100 O99 2.228 1_565 S
Cd100 O104 2.273 . S
Cd100 O108 2.277 . S
O101 C98 1.160 . S
O101 Cd102 2.203 1_545 S
Cd102 O101 2.203 1_565 S
Cd102 O104 2.411 . S
Cd102 O105 2.333 . S
Cd102 O106 2.352 . S
Cd102 O110 2.277 . S
Cd102 O111 2.356 . S
C103 O108 1.209 . S
C103 O110 1.226 . S
O104 Cd100 2.273 . S
O104 Cd102 2.411 . S
O104 C107 1.320 . S
O105 Cd102 2.333 . S
O105 C107 1.214 . S
O106 Cd102 2.352 . S
O106 C109 1.258 . S
C107 O104 1.320 . S
C107 O105 1.214 . S
O108 Cd100 2.277 . S
O108 C103 1.209 . S
C109 O106 1.258 . S
C109 O111 1.282 . S
O110 Cd102 2.277 . S
O110 C103 1.226 . S
O111 Cd102 2.356 . S
O111 C109 1.282 . S
C112 O113 1.306 1_655 S
C112 O115 1.160 1_655 S
O113 C112 1.306 1_455 S
O113 Cd114 2.228 . S
Cd114 O113 2.228 . S
Cd114 O118 2.273 . S
Cd114 O122 2.277 . S
O115 C112 1.160 1_455 S
O115 Cd116 2.203 . S
Cd116 O115 2.203 . S
Cd116 O118 2.411 . S
Cd116 O119 2.333 . S
Cd116 O120 2.352 . S
Cd116 O124 2.277 . S
Cd116 O125 2.356 . S
C117 O122 1.209 . S
C117 O124 1.226 . S
O118 Cd114 2.273 . S
O118 Cd116 2.411 . S
O118 C121 1.320 . S
O119 Cd116 2.333 . S
O119 C121 1.214 . S
O120 Cd116 2.352 . S
O120 C123 1.258 . S
C121 O118 1.320 . S
C121 O119 1.214 . S
O122 Cd114 2.277 . S
O122 C117 1.209 . S
C123 O120 1.258 . S
C123 O125 1.282 . S
O124 Cd116 2.277 . S
O124 C117 1.226 . S
O125 Cd116 2.356 . S
O125 C123 1.282 . S
C126 O127 1.306 . S
C126 O129 1.160 . S
O127 C126 1.306 . S
O127 Cd128 2.228 . S
Cd128 O127 2.228 . S
Cd128 O132 2.273 . S
Cd128 O136 2.277 . S
O129 C126 1.160 . S
O129 Cd130 2.203 . S
Cd130 O129 2.203 . S
Cd130 O132 2.411 . S
Cd130 O133 2.333 . S
Cd130 O134 2.352 1_565 S
Cd130 O138 2.277 . S
Cd130 O139 2.356 1_565 S
C131 O136 1.209 . S
C131 O138 1.226 . S
O132 Cd128 2.273 . S
O132 Cd130 2.411 . S
O132 C135 1.320 . S
O133 Cd130 2.333 . S
O133 C135 1.214 . S
O134 Cd130 2.352 1_545 S
O134 C137 1.258 . S
C135 O132 1.320 . S
C135 O133 1.214 . S
O136 Cd128 2.277 . S
O136 C131 1.209 . S
C137 O134 1.258 . S
C137 O139 1.282 . S
O138 Cd130 2.277 . S
O138 C131 1.226 . S
O139 Cd130 2.356 1_545 S
O139 C137 1.282 . S
C140 O141 1.292 . S
C140 O143 1.160 1_655 S
O141 C140 1.292 . S
O141 Cd142 2.196 1_655 S
Cd142 O141 2.196 1_455 S
Cd142 O146 2.273 . S
Cd142 O150 2.277 . S
O143 C140 1.160 1_455 S
O143 Cd144 2.203 . S
Cd144 O143 2.203 . S
Cd144 O146 2.411 . S
Cd144 O147 2.333 . S
Cd144 O148 2.352 . S
Cd144 O152 2.277 . S
Cd144 O153 2.356 . S
C145 O150 1.209 . S
C145 O152 1.226 . S
O146 Cd142 2.273 . S
O146 Cd144 2.411 . S
O146 C149 1.320 . S
O147 Cd144 2.333 . S
O147 C149 1.214 . S
O148 Cd144 2.352 . S
O148 C151 1.258 . S
C149 O146 1.320 . S
C149 O147 1.214 . S
O150 Cd142 2.277 . S
O150 C145 1.209 . S
C151 O148 1.258 . S
C151 O153 1.282 . S
O152 Cd144 2.277 . S
O152 C145 1.226 . S
O153 Cd144 2.356 . S
O153 C151 1.282 . S
C154 O155 1.306 . S
C154 O157 1.160 . S
O155 C154 1.306 . S
O155 Cd156 2.228 . S
Cd156 O155 2.228 . S
Cd156 O160 2.273 . S
Cd156 O164 2.277 . S
O157 C154 1.160 . S
O157 Cd158 2.203 . S
Cd158 O157 2.203 . S
Cd158 O160 2.411 . S
Cd158 O161 2.333 . S
Cd158 O162 2.352 . S
Cd158 O166 2.277 . S
Cd158 O167 2.356 . S
C159 O164 1.209 . S
C159 O166 1.226 . S
O160 Cd156 2.273 . S
O160 Cd158 2.411 . S
O160 C163 1.320 . S
O161 Cd158 2.333 . S
O161 C163 1.214 . S
O162 Cd158 2.352 . S
O162 C165 1.258 . S
C163 O160 1.320 . S
C163 O161 1.214 . S
O164 Cd156 2.277 . S
O164 C159 1.209 . S
C165 O162 1.258 . S
C165 O167 1.282 . S
O166 Cd158 2.277 . S
O166 C159 1.226 . S
O167 Cd158 2.356 . S
O167 C165 1.282 . S
C168 O169 1.371 . S
C168 O171 1.160 1_565 S
O169 C168 1.371 . S
O169 Cd170 2.140 1_565 S
Cd170 O169 2.140 1_545 S
Cd170 O174 2.273 . S
Cd170 O178 2.277 . S
O171 C168 1.160 1_545 S
O171 Cd172 2.203 . S
Cd172 O171 2.203 . S
Cd172 O174 2.411 . S
Cd172 O175 2.333 . S
Cd172 O176 2.352 . S
Cd172 O180 2.277 . S
Cd172 O181 2.356 . S
C173 O178 1.209 . S
C173 O180 1.226 . S
O174 Cd170 2.273 . S
O174 Cd172 2.411 . S
O174 C177 1.320 . S
O175 Cd172 2.333 . S
O175 C177 1.214 . S
O176 Cd172 2.352 . S
O176 C179 1.258 . S
C177 O174 1.320 . S
C177 O175 1.214 . S
O178 Cd170 2.277 . S
O178 C173 1.209 . S
C179 O176 1.258 . S
C179 O181 1.282 . S
O180 Cd172 2.277 . S
O180 C173 1.226 . S
O181 Cd172 2.356 . S
O181 C179 1.282 . S
C182 O183 1.306 . S
C182 O185 1.160 . S
O183 C182 1.306 . S
O183 Cd184 2.228 . S
Cd184 O183 2.228 . S
Cd184 O188 2.273 . S
Cd184 O192 2.277 . S
O185 C182 1.160 . S
O185 Cd186 2.203 . S
Cd186 O185 2.203 . S
Cd186 O188 2.411 . S
Cd186 O189 2.333 . S
Cd186 O190 2.352 1_655 S
Cd186 O194 2.277 . S
Cd186 O195 2.356 1_655 S
C187 O192 1.209 . S
C187 O194 1.226 . S
O188 Cd184 2.273 . S
O188 Cd186 2.411 . S
O188 C191 1.320 . S
O189 Cd186 2.333 . S
O189 C191 1.214 . S
O190 Cd186 2.352 1_455 S
O190 C193 1.258 . S
C191 O188 1.320 . S
C191 O189 1.214 . S
O192 Cd184 2.277 . S
O192 C187 1.209 . S
C193 O190 1.258 . S
C193 O195 1.282 . S
O194 Cd186 2.277 . S
O194 C187 1.226 . S
O195 Cd186 2.356 1_455 S
O195 C193 1.282 . S
C196 O197 1.306 . S
C196 O199 1.160 . S
O197 C196 1.306 . S
O197 Cd198 2.228 . S
Cd198 O197 2.228 . S
Cd198 O202 2.273 . S
Cd198 O206 2.277 . S
O199 C196 1.160 . S
O199 Cd200 2.203 . S
Cd200 O199 2.203 . S
Cd200 O202 2.411 . S
Cd200 O203 2.333 . S
Cd200 O204 2.352 . S
Cd200 O208 2.277 . S
Cd200 O209 2.356 . S
C201 O206 1.209 . S
C201 O208 1.226 . S
O202 Cd198 2.273 . S
O202 Cd200 2.411 . S
O202 C205 1.320 . S
O203 Cd200 2.333 . S
O203 C205 1.214 . S
O204 Cd200 2.352 . S
O204 C207 1.258 . S
C205 O202 1.320 . S
C205 O203 1.214 . S
O206 Cd198 2.277 . S
O206 C201 1.209 . S
C207 O204 1.258 . S
C207 O209 1.282 . S
O208 Cd200 2.277 . S
O208 C201 1.226 . S
O209 Cd200 2.356 . S
O209 C207 1.282 . S
C210 O211 1.306 . S
C210 O213 1.160 . S
O211 C210 1.306 . S
O211 Cd212 2.228 . S
Cd212 O211 2.228 . S
Cd212 O216 2.273 . S
Cd212 O220 2.277 . S
O213 C210 1.160 . S
O213 Cd214 2.203 . S
Cd214 O213 2.203 . S
Cd214 O216 2.411 . S
Cd214 O217 2.333 . S
Cd214 O218 2.352 . S
Cd214 O222 2.277 . S
Cd214 O223 2.356 . S
C215 O220 1.209 . S
C215 O222 1.226 . S
O216 Cd212 2.273 . S
O216 Cd214 2.411 . S
O216 C219 1.320 . S
O217 Cd214 2.333 . S
O217 C219 1.214 . S
O218 Cd214 2.352 . S
O218 C221 1.258 . S
C219 O216 1.320 . S
C219 O217 1.214 . S
O220 Cd212 2.277 . S
O220 C215 1.209 . S
C221 O218 1.258 . S
C221 O223 1.282 . S
O222 Cd214 2.277 . S
O222 C215 1.226 . S
O223 Cd214 2.356 . S
O223 C221 1.282 . S
C224 O225 1.306 . S
C224 O227 1.160 . S
O225 C224 1.306 . S
O225 Cd226 2.228 . S
Cd226 O225 2.228 . S
Cd226 O230 2.273 . S
Cd226 O234 2.277 . S
O227 C224 1.160 . S
O227 Cd228 2.203 . S
Cd228 O227 2.203 . S
Cd228 O230 2.411 . S
Cd228 O231 2.333 . S
Cd228 O232 2.313 1_545 S
Cd228 O236 2.277 . S
Cd228 O237 2.356 1_545 S
C229 O234 1.209 . S
C229 O236 1.226 . S
O230 Cd226 2.273 . S
O230 Cd228 2.411 . S
O230 C233 1.320 . S
O231 Cd228 2.333 . S
O231 C233 1.214 . S
O232 Cd228 2.313 1_565 S
O232 C235 1.339 . S
C233 O230 1.320 . S
C233 O231 1.214 . S
O234 Cd226 2.277 . S
O234 C229 1.209 . S
C235 O232 1.339 . S
C235 O237 1.282 . S
O236 Cd228 2.277 . S
O236 C229 1.226 . S
O237 Cd228 2.356 1_565 S
O237 C235 1.282 . S
C238 O239 1.306 . S
C238 O241 1.160 . S
O239 C238 1.306 . S
O239 Cd240 2.228 1_455 S
Cd240 O239 2.228 1_655 S
Cd240 O244 2.273 . S
Cd240 O248 2.277 . S
O241 C238 1.160 . S
O241 Cd242 2.203 1_455 S
Cd242 O241 2.203 1_655 S
Cd242 O244 2.411 . S
Cd242 O245 2.333 . S
Cd242 O246 2.352 . S
Cd242 O250 2.277 . S
Cd242 O251 2.356 . S
C243 O248 1.209 . S
C243 O250 1.226 . S
O244 Cd240 2.273 . S
O244 Cd242 2.411 . S
O244 C247 1.320 . S
O245 Cd242 2.333 . S
O245 C247 1.214 . S
O246 Cd242 2.352 . S
O246 C249 1.258 . S
C247 O244 1.320 . S
C247 O245 1.214 . S
O248 Cd240 2.277 . S
O248 C243 1.209 . S
C249 O246 1.258 . S
C249 O251 1.282 . S
O250 Cd242 2.277 . S
O250 C243 1.226 . S
O251 Cd242 2.356 . S
O251 C249 1.282 . S
H252 C271 0.949 . S
H253 C272 0.950 . S
H254 C274 0.950 . S
H255 C275 0.950 . S
H256 C277 0.950 . S
H257 C280 0.950 . S
H258 C281 0.950 . S
H259 C283 0.951 . S
H260 C284 0.949 . S
H261 C286 0.949 . S
H262 C287 0.950 . S
H263 C289 0.950 . S
H264 C290 0.950 . S
H265 C292 0.950 . S
H266 C295 0.950 . S
H267 C296 0.950 . S
H268 C298 0.951 . S
H269 C299 0.949 . S
C270 C271 1.376 . S
C270 C275 1.386 . S
C270 C276 1.483 . S
C271 H252 0.949 . S
C271 C270 1.376 . S
C271 C272 1.397 . S
C272 H253 0.950 . S
C272 C271 1.397 . S
C272 C273 1.391 . S
C273 C272 1.391 . S
C273 C274 1.405 . S
C274 H254 0.950 . S
C274 C273 1.405 . S
C274 C275 1.367 . S
C275 H255 0.950 . S
C275 C270 1.386 . S
C275 C274 1.367 . S
C276 C270 1.483 . S
C276 C277 1.382 . S
C276 C278 1.403 . S
C277 H256 0.950 . S
C277 C276 1.382 . S
C277 C293 1.411 . S
C278 C276 1.403 . S
C278 C279 1.489 . S
C278 C292 1.411 . S
C279 C278 1.489 . S
C279 C280 1.383 . S
C279 C284 1.382 . S
C280 H257 0.950 . S
C280 C279 1.383 . S
C280 C281 1.395 . S
C281 H258 0.950 . S
C281 C280 1.395 . S
C281 C282 1.288 . S
C282 C281 1.288 . S
C282 C283 1.392 . S
C283 H259 0.951 . S
C283 C282 1.392 . S
C283 C284 1.392 . S
C284 H260 0.949 . S
C284 C279 1.382 . S
C284 C283 1.392 . S
C285 C286 1.376 . S
C285 C290 1.386 . S
C285 C291 1.483 . S
C286 H261 0.949 . S
C286 C285 1.376 . S
C286 C287 1.397 . S
C287 H262 0.950 . S
C287 C286 1.397 . S
C287 C288 1.391 . S
C288 C287 1.391 . S
C288 C289 1.405 . S
C289 H263 0.950 . S
C289 C288 1.405 . S
C289 C290 1.367 . S
C290 H264 0.950 . S
C290 C285 1.386 . S
C290 C289 1.367 . S
C291 C285 1.483 . S
C291 C292 1.382 . S
C291 C293 1.403 . S
C292 H265 0.950 . S
C292 C278 1.411 . S
C292 C291 1.382 . S
C293 C277 1.411 . S
C293 C291 1.403 . S
C293 C294 1.489 . S
C294 C293 1.489 . S
C294 C295 1.383 . S
C294 C299 1.382 . S
C295 H266 0.950 . S
C295 C294 1.383 . S
C295 C296 1.395 . S
C296 H267 0.950 . S
C296 C295 1.395 . S
C296 C297 1.288 . S
C297 C296 1.288 . S
C297 C298 1.392 . S
C298 H268 0.951 . S
C298 C297 1.392 . S
C298 C299 1.392 . S
C299 H269 0.949 . S
C299 C294 1.382 . S
C299 C298 1.392 . S
H300 C319 0.949 . S
H301 C320 0.950 . S
H302 C322 0.950 . S
H303 C323 0.950 . S
H304 C325 0.950 . S
H305 C328 0.950 . S
H306 C329 0.950 . S
H307 C331 0.951 . S
H308 C332 0.949 . S
H309 C334 0.949 . S
H310 C335 0.950 . S
H311 C337 0.950 . S
H312 C338 0.950 . S
H313 C340 0.950 . S
H314 C343 0.950 . S
H315 C344 0.950 . S
H316 C346 0.951 . S
H317 C347 0.949 . S
C318 C319 1.376 . S
C318 C323 1.386 . S
C318 C324 1.483 . S
C319 H300 0.949 . S
C319 C318 1.376 . S
C319 C320 1.397 . S
C320 H301 0.950 . S
C320 C319 1.397 . S
C320 C321 1.391 . S
C321 C320 1.391 . S
C321 C322 1.405 . S
C322 H302 0.950 . S
C322 C321 1.405 . S
C322 C323 1.367 . S
C323 H303 0.950 . S
C323 C318 1.386 . S
C323 C322 1.367 . S
C324 C318 1.483 . S
C324 C325 1.382 . S
C324 C326 1.403 . S
C325 H304 0.950 . S
C325 C324 1.382 . S
C325 C341 1.411 . S
C326 C324 1.403 . S
C326 C327 1.489 . S
C326 C340 1.411 . S
C327 C326 1.489 . S
C327 C328 1.383 . S
C327 C332 1.382 . S
C328 H305 0.950 . S
C328 C327 1.383 . S
C328 C329 1.395 . S
C329 H306 0.950 . S
C329 C328 1.395 . S
C329 C330 1.288 . S
C330 C329 1.288 . S
C330 C331 1.392 . S
C331 H307 0.951 . S
C331 C330 1.392 . S
C331 C332 1.392 . S
C332 H308 0.949 . S
C332 C327 1.382 . S
C332 C331 1.392 . S
C333 C334 1.376 . S
C333 C338 1.386 . S
C333 C339 1.483 . S
C334 H309 0.949 . S
C334 C333 1.376 . S
C334 C335 1.397 . S
C335 H310 0.950 . S
C335 C334 1.397 . S
C335 C336 1.391 . S
C336 C335 1.391 . S
C336 C337 1.405 . S
C337 H311 0.950 . S
C337 C336 1.405 . S
C337 C338 1.367 . S
C338 H312 0.950 . S
C338 C333 1.386 . S
C338 C337 1.367 . S
C339 C333 1.483 . S
C339 C340 1.382 . S
C339 C341 1.403 . S
C340 H313 0.950 . S
C340 C326 1.411 . S
C340 C339 1.382 . S
C341 C325 1.411 . S
C341 C339 1.403 . S
C341 C342 1.489 . S
C342 C341 1.489 . S
C342 C343 1.383 . S
C342 C347 1.382 . S
C343 H314 0.950 . S
C343 C342 1.383 . S
C343 C344 1.395 . S
C344 H315 0.950 . S
C344 C343 1.395 . S
C344 C345 1.288 . S
C345 C344 1.288 . S
C345 C346 1.392 . S
C346 H316 0.951 . S
C346 C345 1.392 . S
C346 C347 1.392 . S
C347 H317 0.949 . S
C347 C342 1.382 . S
C347 C346 1.392 . S
H348 C367 0.949 . S
H349 C368 0.950 . S
H350 C370 0.950 . S
H351 C371 0.950 . S
H352 C373 0.950 . S
H353 C376 0.950 . S
H354 C377 0.950 . S
H355 C379 0.951 . S
H356 C380 0.949 . S
H357 C382 0.949 . S
H358 C383 0.950 . S
H359 C385 0.950 . S
H360 C386 0.950 . S
H361 C388 0.950 . S
H362 C391 0.950 . S
H363 C392 0.950 . S
H364 C394 0.951 . S
H365 C395 0.949 . S
C366 C367 1.376 . S
C366 C371 1.386 . S
C366 C372 1.483 . S
C367 H348 0.949 . S
C367 C366 1.376 . S
C367 C368 1.397 . S
C368 H349 0.950 . S
C368 C367 1.397 . S
C368 C369 1.391 . S
C369 C368 1.391 . S
C369 C370 1.405 . S
C370 H350 0.950 . S
C370 C369 1.405 . S
C370 C371 1.367 . S
C371 H351 0.950 . S
C371 C366 1.386 . S
C371 C370 1.367 . S
C372 C366 1.483 . S
C372 C373 1.382 . S
C372 C374 1.403 . S
C373 H352 0.950 . S
C373 C372 1.382 . S
C373 C389 1.411 . S
C374 C372 1.403 . S
C374 C375 1.489 . S
C374 C388 1.411 . S
C375 C374 1.489 . S
C375 C376 1.383 . S
C375 C380 1.382 . S
C376 H353 0.950 . S
C376 C375 1.383 . S
C376 C377 1.395 . S
C377 H354 0.950 . S
C377 C376 1.395 . S
C377 C378 1.288 . S
C378 C377 1.288 . S
C378 C379 1.392 . S
C379 H355 0.951 . S
C379 C378 1.392 . S
C379 C380 1.392 . S
C380 H356 0.949 . S
C380 C375 1.382 . S
C380 C379 1.392 . S
C381 C382 1.376 . S
C381 C386 1.386 . S
C381 C387 1.483 . S
C382 H357 0.949 . S
C382 C381 1.376 . S
C382 C383 1.397 . S
C383 H358 0.950 . S
C383 C382 1.397 . S
C383 C384 1.391 . S
C384 C383 1.391 . S
C384 C385 1.405 . S
C385 H359 0.950 . S
C385 C384 1.405 . S
C385 C386 1.367 . S
C386 H360 0.950 . S
C386 C381 1.386 . S
C386 C385 1.367 . S
C387 C381 1.483 . S
C387 C388 1.382 . S
C387 C389 1.403 . S
C388 H361 0.950 . S
C388 C374 1.411 . S
C388 C387 1.382 . S
C389 C373 1.411 . S
C389 C387 1.403 . S
C389 C390 1.489 . S
C390 C389 1.489 . S
C390 C391 1.383 . S
C390 C395 1.382 . S
C391 H362 0.950 . S
C391 C390 1.383 . S
C391 C392 1.395 . S
C392 H363 0.950 . S
C392 C391 1.395 . S
C392 C393 1.288 . S
C393 C392 1.288 . S
C393 C394 1.392 . S
C394 H364 0.951 . S
C394 C393 1.392 . S
C394 C395 1.392 . S
C395 H365 0.949 . S
C395 C390 1.382 . S
C395 C394 1.392 . S
H396 C415 0.949 . S
H397 C416 0.950 . S
H398 C418 0.950 . S
H399 C419 0.950 . S
H400 C421 0.950 . S
H401 C424 0.950 . S
H402 C425 0.950 . S
H403 C427 0.951 . S
H404 C428 0.949 . S
H405 C430 0.949 . S
H406 C431 0.950 . S
H407 C433 0.950 . S
H408 C434 0.950 . S
H409 C436 0.950 . S
H410 C439 0.950 . S
H411 C440 0.950 . S
H412 C442 0.951 . S
H413 C443 0.949 . S
C414 C415 1.376 . S
C414 C419 1.386 . S
C414 C420 1.483 . S
C415 H396 0.949 . S
C415 C414 1.376 . S
C415 C416 1.397 . S
C416 H397 0.950 . S
C416 C415 1.397 . S
C416 C417 1.391 . S
C417 C416 1.391 . S
C417 C418 1.405 . S
C418 H398 0.950 . S
C418 C417 1.405 . S
C418 C419 1.367 . S
C419 H399 0.950 . S
C419 C414 1.386 . S
C419 C418 1.367 . S
C420 C414 1.483 . S
C420 C421 1.382 . S
C420 C422 1.403 . S
C421 H400 0.950 . S
C421 C420 1.382 . S
C421 C437 1.411 . S
C422 C420 1.403 . S
C422 C423 1.489 . S
C422 C436 1.411 . S
C423 C422 1.489 . S
C423 C424 1.383 . S
C423 C428 1.382 . S
C424 H401 0.950 . S
C424 C423 1.383 . S
C424 C425 1.395 . S
C425 H402 0.950 . S
C425 C424 1.395 . S
C425 C426 1.288 . S
C426 C425 1.288 . S
C426 C427 1.392 . S
C427 H403 0.951 . S
C427 C426 1.392 . S
C427 C428 1.392 . S
C428 H404 0.949 . S
C428 C423 1.382 . S
C428 C427 1.392 . S
C429 C430 1.376 . S
C429 C434 1.386 . S
C429 C435 1.483 . S
C430 H405 0.949 . S
C430 C429 1.376 . S
C430 C431 1.397 . S
C431 H406 0.950 . S
C431 C430 1.397 . S
C431 C432 1.391 . S
C432 C431 1.391 . S
C432 C433 1.405 . S
C433 H407 0.950 . S
C433 C432 1.405 . S
C433 C434 1.367 . S
C434 H408 0.950 . S
C434 C429 1.386 . S
C434 C433 1.367 . S
C435 C429 1.483 . S
C435 C436 1.382 . S
C435 C437 1.403 . S
C436 H409 0.950 . S
C436 C422 1.411 . S
C436 C435 1.382 . S
C437 C421 1.411 . S
C437 C435 1.403 . S
C437 C438 1.489 . S
C438 C437 1.489 . S
C438 C439 1.383 . S
C438 C443 1.382 . S
C439 H410 0.950 . S
C439 C438 1.383 . S
C439 C440 1.395 . S
C440 H411 0.950 . S
C440 C439 1.395 . S
C440 C441 1.288 . S
C441 C440 1.288 . S
C441 C442 1.392 . S
C442 H412 0.951 . S
C442 C441 1.392 . S
C442 C443 1.392 . S
C443 H413 0.949 . S
C443 C438 1.382 . S
C443 C442 1.392 . S
H444 C463 0.949 . S
H445 C464 0.950 . S
H446 C466 0.950 . S
H447 C467 0.950 . S
H448 C469 0.950 . S
H449 C472 0.950 . S
H450 C473 0.950 . S
H451 C475 0.951 . S
H452 C476 0.949 . S
H453 C478 0.949 . S
H454 C479 0.950 . S
H455 C481 0.950 . S
H456 C482 0.950 . S
H457 C484 0.950 . S
H458 C487 0.950 . S
H459 C488 0.950 . S
H460 C490 0.951 . S
H461 C491 0.949 . S
C462 C463 1.376 . S
C462 C467 1.386 . S
C462 C468 1.483 . S
C463 H444 0.949 . S
C463 C462 1.376 . S
C463 C464 1.397 . S
C464 H445 0.950 . S
C464 C463 1.397 . S
C464 C465 1.391 . S
C465 C464 1.391 . S
C465 C466 1.405 . S
C466 H446 0.950 . S
C466 C465 1.405 . S
C466 C467 1.367 . S
C467 H447 0.950 . S
C467 C462 1.386 . S
C467 C466 1.367 . S
C468 C462 1.483 . S
C468 C469 1.382 . S
C468 C470 1.403 . S
C469 H448 0.950 . S
C469 C468 1.382 . S
C469 C485 1.411 . S
C470 C468 1.403 . S
C470 C471 1.489 . S
C470 C484 1.411 . S
C471 C470 1.489 . S
C471 C472 1.383 . S
C471 C476 1.382 . S
C472 H449 0.950 . S
C472 C471 1.383 . S
C472 C473 1.395 . S
C473 H450 0.950 . S
C473 C472 1.395 . S
C473 C474 1.288 . S
C474 C473 1.288 . S
C474 C475 1.392 . S
C475 H451 0.951 . S
C475 C474 1.392 . S
C475 C476 1.392 . S
C476 H452 0.949 . S
C476 C471 1.382 . S
C476 C475 1.392 . S
C477 C478 1.376 . S
C477 C482 1.386 . S
C477 C483 1.483 . S
C478 H453 0.949 . S
C478 C477 1.376 . S
C478 C479 1.397 . S
C479 H454 0.950 . S
C479 C478 1.397 . S
C479 C480 1.391 . S
C480 C479 1.391 . S
C480 C481 1.405 . S
C481 H455 0.950 . S
C481 C480 1.405 . S
C481 C482 1.367 . S
C482 H456 0.950 . S
C482 C477 1.386 . S
C482 C481 1.367 . S
C483 C477 1.483 . S
C483 C484 1.382 . S
C483 C485 1.403 . S
C484 H457 0.950 . S
C484 C470 1.411 . S
C484 C483 1.382 . S
C485 C469 1.411 . S
C485 C483 1.403 . S
C485 C486 1.489 . S
C486 C485 1.489 . S
C486 C487 1.383 . S
C486 C491 1.382 . S
C487 H458 0.950 . S
C487 C486 1.383 . S
C487 C488 1.395 . S
C488 H459 0.950 . S
C488 C487 1.395 . S
C488 C489 1.288 . S
C489 C488 1.288 . S
C489 C490 1.392 . S
C490 H460 0.951 . S
C490 C489 1.392 . S
C490 C491 1.392 . S
C491 H461 0.949 . S
C491 C486 1.382 . S
C491 C490 1.392 . S
H492 C511 0.949 . S
H493 C512 0.950 . S
H494 C514 0.950 . S
H495 C515 0.950 . S
H496 C517 0.950 . S
H497 C520 0.950 . S
H498 C521 0.950 . S
H499 C523 0.951 . S
H500 C524 0.949 . S
H501 C526 0.949 . S
H502 C527 0.950 . S
H503 C529 0.950 . S
H504 C530 0.950 . S
H505 C532 0.950 . S
H506 C535 0.950 . S
H507 C536 0.950 . S
H508 C538 0.951 . S
H509 C539 0.949 . S
C510 C511 1.376 . S
C510 C515 1.386 . S
C510 C516 1.483 . S
C511 H492 0.949 . S
C511 C510 1.376 . S
C511 C512 1.397 . S
C512 H493 0.950 . S
C512 C511 1.397 . S
C512 C513 1.391 . S
C513 C512 1.391 . S
C513 C514 1.405 . S
C514 H494 0.950 . S
C514 C513 1.405 . S
C514 C515 1.367 . S
C515 H495 0.950 . S
C515 C510 1.386 . S
C515 C514 1.367 . S
C516 C510 1.483 . S
C516 C517 1.382 . S
C516 C518 1.403 . S
C517 H496 0.950 . S
C517 C516 1.382 . S
C517 C533 1.411 . S
C518 C516 1.403 . S
C518 C519 1.489 . S
C518 C532 1.411 . S
C519 C518 1.489 . S
C519 C520 1.383 . S
C519 C524 1.382 . S
C520 H497 0.950 . S
C520 C519 1.383 . S
C520 C521 1.395 . S
C521 H498 0.950 . S
C521 C520 1.395 . S
C521 C522 1.288 . S
C522 C521 1.288 . S
C522 C523 1.392 . S
C523 H499 0.951 . S
C523 C522 1.392 . S
C523 C524 1.392 . S
C524 H500 0.949 . S
C524 C519 1.382 . S
C524 C523 1.392 . S
C525 C526 1.376 . S
C525 C530 1.386 . S
C525 C531 1.483 . S
C526 H501 0.949 . S
C526 C525 1.376 . S
C526 C527 1.397 . S
C527 H502 0.950 . S
C527 C526 1.397 . S
C527 C528 1.391 . S
C528 C527 1.391 . S
C528 C529 1.405 . S
C529 H503 0.950 . S
C529 C528 1.405 . S
C529 C530 1.367 . S
C530 H504 0.950 . S
C530 C525 1.386 . S
C530 C529 1.367 . S
C531 C525 1.483 . S
C531 C532 1.382 . S
C531 C533 1.403 . S
C532 H505 0.950 . S
C532 C518 1.411 . S
C532 C531 1.382 . S
C533 C517 1.411 . S
C533 C531 1.403 . S
C533 C534 1.489 . S
C534 C533 1.489 . S
C534 C535 1.383 . S
C534 C539 1.382 . S
C535 H506 0.950 . S
C535 C534 1.383 . S
C535 C536 1.395 . S
C536 H507 0.950 . S
C536 C535 1.395 . S
C536 C537 1.288 . S
C537 C536 1.288 . S
C537 C538 1.392 . S
C538 H508 0.951 . S
C538 C537 1.392 . S
C538 C539 1.392 . S
C539 H509 0.949 . S
C539 C534 1.382 . S
C539 C538 1.392 . S
H540 C559 0.949 . S
H541 C560 0.950 . S
H542 C562 0.950 . S
H543 C563 0.950 . S
H544 C565 0.950 . S
H545 C568 0.950 . S
H546 C569 0.950 . S
H547 C571 0.951 . S
H548 C572 0.949 . S
H549 C574 0.949 . S
H550 C575 0.950 . S
H551 C577 0.950 . S
H552 C578 0.950 . S
H553 C580 0.950 . S
H554 C583 0.950 . S
H555 C584 0.950 . S
H556 C586 0.951 . S
H557 C587 0.949 . S
C558 C559 1.376 . S
C558 C563 1.386 . S
C558 C564 1.483 . S
C559 H540 0.949 . S
C559 C558 1.376 . S
C559 C560 1.397 . S
C560 H541 0.950 . S
C560 C559 1.397 . S
C560 C561 1.391 . S
C561 C560 1.391 . S
C561 C562 1.405 . S
C562 H542 0.950 . S
C562 C561 1.405 . S
C562 C563 1.367 . S
C563 H543 0.950 . S
C563 C558 1.386 . S
C563 C562 1.367 . S
C564 C558 1.483 . S
C564 C565 1.382 . S
C564 C566 1.403 . S
C565 H544 0.950 . S
C565 C564 1.382 . S
C565 C581 1.411 . S
C566 C564 1.403 . S
C566 C567 1.489 . S
C566 C580 1.411 . S
C567 C566 1.489 . S
C567 C568 1.383 . S
C567 C572 1.382 . S
C568 H545 0.950 . S
C568 C567 1.383 . S
C568 C569 1.395 . S
C569 H546 0.950 . S
C569 C568 1.395 . S
C569 C570 1.288 . S
C570 C569 1.288 . S
C570 C571 1.392 . S
C571 H547 0.951 . S
C571 C570 1.392 . S
C571 C572 1.392 . S
C572 H548 0.949 . S
C572 C567 1.382 . S
C572 C571 1.392 . S
C573 C574 1.376 . S
C573 C578 1.386 . S
C573 C579 1.483 . S
C574 H549 0.949 . S
C574 C573 1.376 . S
C574 C575 1.397 . S
C575 H550 0.950 . S
C575 C574 1.397 . S
C575 C576 1.391 . S
C576 C575 1.391 . S
C576 C577 1.405 . S
C577 H551 0.950 . S
C577 C576 1.405 . S
C577 C578 1.367 . S
C578 H552 0.950 . S
C578 C573 1.386 . S
C578 C577 1.367 . S
C579 C573 1.483 . S
C579 C580 1.382 . S
C579 C581 1.403 . S
C580 H553 0.950 . S
C580 C566 1.411 . S
C580 C579 1.382 . S
C581 C565 1.411 . S
C581 C579 1.403 . S
C581 C582 1.489 . S
C582 C581 1.489 . S
C582 C583 1.383 . S
C582 C587 1.382 . S
C583 H554 0.950 . S
C583 C582 1.383 . S
C583 C584 1.395 . S
C584 H555 0.950 . S
C584 C583 1.395 . S
C584 C585 1.288 . S
C585 C584 1.288 . S
C585 C586 1.392 . S
C586 H556 0.951 . S
C586 C585 1.392 . S
C586 C587 1.392 . S
C587 H557 0.949 . S
C587 C582 1.382 . S
C587 C586 1.392 . S
H588 C607 0.949 . S
H589 C608 0.950 . S
H590 C610 0.950 . S
H591 C611 0.950 . S
H592 C613 0.950 . S
H593 C616 0.950 . S
H594 C617 0.950 . S
H595 C619 0.951 . S
H596 C620 0.949 . S
H597 C622 0.949 . S
H598 C623 0.950 . S
H599 C625 0.950 . S
H600 C626 0.950 . S
H601 C628 0.950 . S
H602 C631 0.950 . S
H603 C632 0.950 . S
H604 C634 0.951 . S
H605 C635 0.949 . S
C606 C607 1.376 . S
C606 C611 1.386 . S
C606 C612 1.483 . S
C607 H588 0.949 . S
C607 C606 1.376 . S
C607 C608 1.397 . S
C608 H589 0.950 . S
C608 C607 1.397 . S
C608 C609 1.391 . S
C609 C608 1.391 . S
C609 C610 1.405 . S
C610 H590 0.950 . S
C610 C609 1.405 . S
C610 C611 1.367 . S
C611 H591 0.950 . S
C611 C606 1.386 . S
C611 C610 1.367 . S
C612 C606 1.483 . S
C612 C613 1.382 . S
C612 C614 1.403 . S
C613 H592 0.950 . S
C613 C612 1.382 . S
C613 C629 1.411 . S
C614 C612 1.403 . S
C614 C615 1.489 . S
C614 C628 1.411 . S
C615 C614 1.489 . S
C615 C616 1.383 . S
C615 C620 1.382 . S
C616 H593 0.950 . S
C616 C615 1.383 . S
C616 C617 1.395 . S
C617 H594 0.950 . S
C617 C616 1.395 . S
C617 C618 1.288 . S
C618 C617 1.288 . S
C618 C619 1.392 . S
C619 H595 0.951 . S
C619 C618 1.392 . S
C619 C620 1.392 . S
C620 H596 0.949 . S
C620 C615 1.382 . S
C620 C619 1.392 . S
C621 C622 1.376 . S
C621 C626 1.386 . S
C621 C627 1.483 . S
C622 H597 0.949 . S
C622 C621 1.376 . S
C622 C623 1.397 . S
C623 H598 0.950 . S
C623 C622 1.397 . S
C623 C624 1.391 . S
C624 C623 1.391 . S
C624 C625 1.405 . S
C625 H599 0.950 . S
C625 C624 1.405 . S
C625 C626 1.367 . S
C626 H600 0.950 . S
C626 C621 1.386 . S
C626 C625 1.367 . S
C627 C621 1.483 . S
C627 C628 1.382 . S
C627 C629 1.403 . S
C628 H601 0.950 . S
C628 C614 1.411 . S
C628 C627 1.382 . S
C629 C613 1.411 . S
C629 C627 1.403 . S
C629 C630 1.489 . S
C630 C629 1.489 . S
C630 C631 1.383 . S
C630 C635 1.382 . S
C631 H602 0.950 . S
C631 C630 1.383 . S
C631 C632 1.395 . S
C632 H603 0.950 . S
C632 C631 1.395 . S
C632 C633 1.288 . S
C633 C632 1.288 . S
C633 C634 1.392 . S
C634 H604 0.951 . S
C634 C633 1.392 . S
C634 C635 1.392 . S
C635 H605 0.949 . S
C635 C630 1.382 . S
C635 C634 1.392 . S
H636 C655 0.949 . S
H637 C656 0.950 . S
H638 C658 0.950 . S
H639 C659 0.950 . S
H640 C661 0.950 . S
H641 C664 0.950 . S
H642 C665 0.950 . S
H643 C667 0.951 . S
H644 C668 0.949 . S
H645 C670 0.949 . S
H646 C671 0.950 . S
H647 C673 0.950 . S
H648 C674 0.950 . S
H649 C676 0.950 . S
H650 C679 0.950 . S
H651 C680 0.950 . S
H652 C682 0.951 . S
H653 C683 0.949 . S
C654 C655 1.376 . S
C654 C659 1.386 . S
C654 C660 1.483 . S
C655 H636 0.949 . S
C655 C654 1.376 . S
C655 C656 1.397 . S
C656 H637 0.950 . S
C656 C655 1.397 . S
C656 C657 1.391 . S
C657 C656 1.391 . S
C657 C658 1.405 . S
C658 H638 0.950 . S
C658 C657 1.405 . S
C658 C659 1.367 . S
C659 H639 0.950 . S
C659 C654 1.386 . S
C659 C658 1.367 . S
C660 C654 1.483 . S
C660 C661 1.382 . S
C660 C662 1.403 . S
C661 H640 0.950 . S
C661 C660 1.382 . S
C661 C677 1.411 . S
C662 C660 1.403 . S
C662 C663 1.489 . S
C662 C676 1.411 . S
C663 C662 1.489 . S
C663 C664 1.383 . S
C663 C668 1.382 . S
C664 H641 0.950 . S
C664 C663 1.383 . S
C664 C665 1.395 . S
C665 H642 0.950 . S
C665 C664 1.395 . S
C665 C666 1.288 . S
C666 C665 1.288 . S
C666 C667 1.392 . S
C667 H643 0.951 . S
C667 C666 1.392 . S
C667 C668 1.392 . S
C668 H644 0.949 . S
C668 C663 1.382 . S
C668 C667 1.392 . S
C669 C670 1.376 . S
C669 C674 1.386 . S
C669 C675 1.483 . S
C670 H645 0.949 . S
C670 C669 1.376 . S
C670 C671 1.397 . S
C671 H646 0.950 . S
C671 C670 1.397 . S
C671 C672 1.391 . S
C672 C671 1.391 . S
C672 C673 1.405 . S
C673 H647 0.950 . S
C673 C672 1.405 . S
C673 C674 1.367 . S
C674 H648 0.950 . S
C674 C669 1.386 . S
C674 C673 1.367 . S
C675 C669 1.483 . S
C675 C676 1.382 . S
C675 C677 1.403 . S
C676 H649 0.950 . S
C676 C662 1.411 . S
C676 C675 1.382 . S
C677 C661 1.411 . S
C677 C675 1.403 . S
C677 C678 1.489 . S
C678 C677 1.489 . S
C678 C679 1.383 . S
C678 C683 1.382 . S
C679 H650 0.950 . S
C679 C678 1.383 . S
C679 C680 1.395 . S
C680 H651 0.950 . S
C680 C679 1.395 . S
C680 C681 1.288 . S
C681 C680 1.288 . S
C681 C682 1.392 . S
C682 H652 0.951 . S
C682 C681 1.392 . S
C682 C683 1.392 . S
C683 H653 0.949 . S
C683 C678 1.382 . S
C683 C682 1.392 . S
H684 C703 0.949 . S
H685 C704 0.950 . S
H686 C706 0.950 . S
H687 C707 0.950 . S
H688 C709 0.950 . S
H689 C712 0.950 . S
H690 C713 0.950 . S
H691 C715 0.951 . S
H692 C716 0.949 . S
H693 C718 0.949 . S
H694 C719 0.950 . S
H695 C721 0.950 . S
H696 C722 0.950 . S
H697 C724 0.950 . S
H698 C727 0.950 . S
H699 C728 0.950 . S
H700 C730 0.951 . S
H701 C731 0.949 . S
C702 C703 1.376 . S
C702 C707 1.386 1_655 S
C702 C708 1.483 . S
C703 H684 0.949 . S
C703 C702 1.376 . S
C703 C704 1.397 . S
C704 H685 0.950 . S
C704 C703 1.397 . S
C704 C705 1.391 . S
C705 C704 1.391 . S
C705 C706 1.405 1_655 S
C706 H686 0.950 . S
C706 C705 1.405 1_455 S
C706 C707 1.367 . S
C707 H687 0.950 . S
C707 C702 1.386 1_455 S
C707 C706 1.367 . S
C708 C702 1.483 . S
C708 C709 1.382 . S
C708 C710 1.403 1_655 S
C709 H688 0.950 . S
C709 C708 1.382 . S
C709 C725 1.411 . S
C710 C708 1.403 1_455 S
C710 C711 1.489 . S
C710 C724 1.411 . S
C711 C710 1.489 . S
C711 C712 1.383 1_455 S
C711 C716 1.382 . S
C712 H689 0.950 . S
C712 C711 1.383 1_655 S
C712 C713 1.395 . S
C713 H690 0.950 . S
C713 C712 1.395 . S
C713 C714 1.288 1_655 S
C714 C713 1.288 1_455 S
C714 C715 1.392 . S
C715 H691 0.951 . S
C715 C714 1.392 . S
C715 C716 1.392 . S
C716 H692 0.949 . S
C716 C711 1.382 . S
C716 C715 1.392 . S
C717 C718 1.376 . S
C717 C722 1.386 1_455 S
C717 C723 1.483 . S
C718 H693 0.949 . S
C718 C717 1.376 . S
C718 C719 1.397 . S
C719 H694 0.950 . S
C719 C718 1.397 . S
C719 C720 1.391 . S
C720 C719 1.391 . S
C720 C721 1.405 1_455 S
C721 H695 0.950 . S
C721 C720 1.405 1_655 S
C721 C722 1.367 . S
C722 H696 0.950 . S
C722 C717 1.386 1_655 S
C722 C721 1.367 . S
C723 C717 1.483 . S
C723 C724 1.382 . S
C723 C725 1.403 1_455 S
C724 H697 0.950 . S
C724 C710 1.411 . S
C724 C723 1.382 . S
C725 C709 1.411 . S
C725 C723 1.403 1_655 S
C725 C726 1.489 . S
C726 C725 1.489 . S
C726 C727 1.383 1_655 S
C726 C731 1.382 . S
C727 H698 0.950 . S
C727 C726 1.383 1_455 S
C727 C728 1.395 . S
C728 H699 0.950 . S
C728 C727 1.395 . S
C728 C729 1.288 1_455 S
C729 C728 1.288 1_655 S
C729 C730 1.392 . S
C730 H700 0.951 . S
C730 C729 1.392 . S
C730 C731 1.392 . S
C731 H701 0.949 . S
C731 C726 1.382 . S
C731 C730 1.392 . S
H732 C751 0.949 . S
H733 C752 0.950 . S
H734 C754 0.950 . S
H735 C755 0.950 . S
H736 C757 0.950 . S
H737 C760 0.950 . S
H738 C761 0.950 . S
H739 C763 0.951 . S
H740 C764 0.949 . S
H741 C766 0.949 . S
H742 C767 0.950 . S
H743 C769 0.950 . S
H744 C770 0.950 . S
H745 C772 0.950 . S
H746 C775 0.950 . S
H747 C776 0.950 . S
H748 C778 0.951 . S
H749 C779 0.949 . S
C750 C751 1.376 . S
C750 C755 1.386 . S
C750 C756 1.483 . S
C751 H732 0.949 . S
C751 C750 1.376 . S
C751 C752 1.397 . S
C752 H733 0.950 . S
C752 C751 1.397 . S
C752 C753 1.391 . S
C753 C752 1.391 . S
C753 C754 1.405 . S
C754 H734 0.950 . S
C754 C753 1.405 . S
C754 C755 1.367 . S
C755 H735 0.950 . S
C755 C750 1.386 . S
C755 C754 1.367 . S
C756 C750 1.483 . S
C756 C757 1.382 . S
C756 C758 1.403 . S
C757 H736 0.950 . S
C757 C756 1.382 . S
C757 C773 1.411 . S
C758 C756 1.403 . S
C758 C759 1.489 . S
C758 C772 1.411 . S
C759 C758 1.489 . S
C759 C760 1.383 . S
C759 C764 1.382 . S
C760 H737 0.950 . S
C760 C759 1.383 . S
C760 C761 1.395 . S
C761 H738 0.950 . S
C761 C760 1.395 . S
C761 C762 1.288 . S
C762 C761 1.288 . S
C762 C763 1.392 . S
C763 H739 0.951 . S
C763 C762 1.392 . S
C763 C764 1.392 . S
C764 H740 0.949 . S
C764 C759 1.382 . S
C764 C763 1.392 . S
C765 C766 1.376 . S
C765 C770 1.386 . S
C765 C771 1.483 . S
C766 H741 0.949 . S
C766 C765 1.376 . S
C766 C767 1.397 . S
C767 H742 0.950 . S
C767 C766 1.397 . S
C767 C768 1.391 . S
C768 C767 1.391 . S
C768 C769 1.405 . S
C769 H743 0.950 . S
C769 C768 1.405 . S
C769 C770 1.367 . S
C770 H744 0.950 . S
C770 C765 1.386 . S
C770 C769 1.367 . S
C771 C765 1.483 . S
C771 C772 1.382 . S
C771 C773 1.403 . S
C772 H745 0.950 . S
C772 C758 1.411 . S
C772 C771 1.382 . S
C773 C757 1.411 . S
C773 C771 1.403 . S
C773 C774 1.489 . S
C774 C773 1.489 . S
C774 C775 1.383 . S
C774 C779 1.382 . S
C775 H746 0.950 . S
C775 C774 1.383 . S
C775 C776 1.395 . S
C776 H747 0.950 . S
C776 C775 1.395 . S
C776 C777 1.288 . S
C777 C776 1.288 . S
C777 C778 1.392 . S
C778 H748 0.951 . S
C778 C777 1.392 . S
C778 C779 1.392 . S
C779 H749 0.949 . S
C779 C774 1.382 . S
C779 C778 1.392 . S
H780 C799 0.949 . S
H781 C800 0.950 . S
H782 C802 0.950 . S
H783 C803 0.950 . S
H784 C805 0.950 . S
H785 C808 0.950 . S
H786 C809 0.950 . S
H787 C811 0.951 . S
H788 C812 0.949 . S
H789 C814 0.949 . S
H790 C815 0.950 . S
H791 C817 0.950 . S
H792 C818 0.950 . S
H793 C820 0.950 . S
H794 C823 0.950 . S
H795 C824 0.950 . S
H796 C826 0.951 . S
H797 C827 0.949 . S
C798 C799 1.376 . S
C798 C803 1.386 1_545 S
C798 C804 1.483 . S
C799 H780 0.949 . S
C799 C798 1.376 . S
C799 C800 1.397 . S
C800 H781 0.950 . S
C800 C799 1.397 . S
C800 C801 1.391 . S
C801 C800 1.391 . S
C801 C802 1.405 1_545 S
C802 H782 0.950 . S
C802 C801 1.405 1_565 S
C802 C803 1.367 . S
C803 H783 0.950 . S
C803 C798 1.386 1_565 S
C803 C802 1.367 . S
C804 C798 1.483 . S
C804 C805 1.382 . S
C804 C806 1.403 1_545 S
C805 H784 0.950 . S
C805 C804 1.382 . S
C805 C821 1.411 . S
C806 C804 1.403 1_565 S
C806 C807 1.489 . S
C806 C820 1.411 . S
C807 C806 1.489 . S
C807 C808 1.383 1_565 S
C807 C812 1.382 . S
C808 H785 0.950 . S
C808 C807 1.383 1_545 S
C808 C809 1.395 . S
C809 H786 0.950 . S
C809 C808 1.395 . S
C809 C810 1.288 1_545 S
C810 C809 1.288 1_565 S
C810 C811 1.392 . S
C811 H787 0.951 . S
C811 C810 1.392 . S
C811 C812 1.392 . S
C812 H788 0.949 . S
C812 C807 1.382 . S
C812 C811 1.392 . S
C813 C814 1.376 . S
C813 C818 1.386 1_565 S
C813 C819 1.483 . S
C814 H789 0.949 . S
C814 C813 1.376 . S
C814 C815 1.397 . S
C815 H790 0.950 . S
C815 C814 1.397 . S
C815 C816 1.391 . S
C816 C815 1.391 . S
C816 C817 1.405 1_565 S
C817 H791 0.950 . S
C817 C816 1.405 1_545 S
C817 C818 1.367 . S
C818 H792 0.950 . S
C818 C813 1.386 1_545 S
C818 C817 1.367 . S
C819 C813 1.483 . S
C819 C820 1.382 . S
C819 C821 1.403 1_565 S
C820 H793 0.950 . S
C820 C806 1.411 . S
C820 C819 1.382 . S
C821 C805 1.411 . S
C821 C819 1.403 1_545 S
C821 C822 1.489 . S
C822 C821 1.489 . S
C822 C823 1.383 1_545 S
C822 C827 1.382 . S
C823 H794 0.950 . S
C823 C822 1.383 1_565 S
C823 C824 1.395 . S
C824 H795 0.950 . S
C824 C823 1.395 . S
C824 C825 1.288 1_565 S
C825 C824 1.288 1_545 S
C825 C826 1.392 . S
C826 H796 0.951 . S
C826 C825 1.392 . S
C826 C827 1.392 . S
C827 H797 0.949 . S
C827 C822 1.382 . S
C827 C826 1.392 . S
H828 C847 0.949 . S
H829 C848 0.950 . S
H830 C850 0.950 . S
H831 C851 0.950 . S
H832 C853 0.950 . S
H833 C856 0.950 . S
H834 C857 0.950 . S
H835 C859 0.951 . S
H836 C860 0.949 . S
H837 C862 0.949 . S
H838 C863 0.950 . S
H839 C865 0.950 . S
H840 C866 0.950 . S
H841 C868 0.950 . S
H842 C871 0.950 . S
H843 C872 0.950 . S
H844 C874 0.951 . S
H845 C875 0.949 . S
C846 C847 1.397 . S
C846 C851 1.376 1_545 S
C846 C852 1.501 . S
C847 H828 0.949 . S
C847 C846 1.397 . S
C847 C848 1.397 . S
C848 H829 0.950 . S
C848 C847 1.397 . S
C848 C849 1.391 1_545 S
C849 C848 1.391 1_565 S
C849 C850 1.405 . S
C850 H830 0.950 . S
C850 C849 1.405 . S
C850 C851 1.367 . S
C851 H831 0.950 . S
C851 C846 1.376 1_565 S
C851 C850 1.367 . S
C852 C846 1.501 . S
C852 C853 1.354 . S
C852 C854 1.399 1_545 S
C853 H832 0.950 . S
C853 C852 1.354 . S
C853 C869 1.443 . S
C854 C852 1.399 1_565 S
C854 C855 1.482 . S
C854 C868 1.431 . S
C855 C854 1.482 . S
C855 C856 1.359 1_565 S
C855 C860 1.394 . S
C856 H833 0.950 . S
C856 C855 1.359 1_545 S
C856 C857 1.395 . S
C857 H834 0.950 . S
C857 C856 1.395 . S
C857 C858 1.288 . S
C858 C857 1.288 . S
C858 C859 1.392 1_545 S
C859 H835 0.951 . S
C859 C858 1.392 1_565 S
C859 C860 1.392 . S
C860 H836 0.949 . S
C860 C855 1.394 . S
C860 C859 1.392 . S
C861 C862 1.381 . S
C861 C866 1.384 1_565 S
C861 C867 1.501 . S
C862 H837 0.949 . S
C862 C861 1.381 . S
C862 C863 1.397 . S
C863 H838 0.950 . S
C863 C862 1.397 . S
C863 C864 1.391 1_565 S
C864 C863 1.391 1_545 S
C864 C865 1.405 . S
C865 H839 0.950 . S
C865 C864 1.405 . S
C865 C866 1.367 . S
C866 H840 0.950 . S
C866 C861 1.384 1_545 S
C866 C865 1.367 . S
C867 C861 1.501 . S
C867 C868 1.362 . S
C867 C869 1.399 1_565 S
C868 H841 0.950 . S
C868 C854 1.431 . S
C868 C867 1.362 . S
C869 C853 1.443 . S
C869 C867 1.399 1_545 S
C869 C870 1.482 . S
C870 C869 1.482 . S
C870 C871 1.338 1_545 S
C870 C875 1.406 . S
C871 H842 0.950 . S
C871 C870 1.338 1_565 S
C871 C872 1.395 . S
C872 H843 0.950 . S
C872 C871 1.395 . S
C872 C873 1.336 . S
C873 C872 1.336 . S
C873 C874 1.298 1_565 S
C874 H844 0.951 . S
C874 C873 1.298 1_545 S
C874 C875 1.392 . S
C875 H845 0.949 . S
C875 C870 1.406 . S
C875 C874 1.392 . S
H876 C895 0.949 . S
H877 C896 0.950 . S
H878 C898 0.950 . S
H879 C899 0.950 . S
H880 C901 0.950 . S
H881 C904 0.950 . S
H882 C905 0.950 . S
H883 C907 0.951 . S
H884 C908 0.949 . S
H885 C910 0.949 . S
H886 C911 0.950 . S
H887 C913 0.950 . S
H888 C914 0.950 . S
H889 C916 0.950 . S
H890 C919 0.950 . S
H891 C920 0.950 . S
H892 C922 0.951 . S
H893 C923 0.949 . S
C894 C895 1.376 . S
C894 C899 1.386 1_455 S
C894 C900 1.483 . S
C895 H876 0.949 . S
C895 C894 1.376 . S
C895 C896 1.397 . S
C896 H877 0.950 . S
C896 C895 1.397 . S
C896 C897 1.391 . S
C897 C896 1.391 . S
C897 C898 1.405 1_455 S
C898 H878 0.950 . S
C898 C897 1.405 1_655 S
C898 C899 1.367 . S
C899 H879 0.950 . S
C899 C894 1.386 1_655 S
C899 C898 1.367 . S
C900 C894 1.483 . S
C900 C901 1.382 . S
C900 C902 1.403 1_455 S
C901 H880 0.950 . S
C901 C900 1.382 . S
C901 C917 1.411 . S
C902 C900 1.403 1_655 S
C902 C903 1.489 . S
C902 C916 1.411 . S
C903 C902 1.489 . S
C903 C904 1.383 1_655 S
C903 C908 1.382 . S
C904 H881 0.950 . S
C904 C903 1.383 1_455 S
C904 C905 1.395 . S
C905 H882 0.950 . S
C905 C904 1.395 . S
C905 C906 1.288 1_455 S
C906 C905 1.288 1_655 S
C906 C907 1.392 . S
C907 H883 0.951 . S
C907 C906 1.392 . S
C907 C908 1.392 . S
C908 H884 0.949 . S
C908 C903 1.382 . S
C908 C907 1.392 . S
C909 C910 1.376 . S
C909 C914 1.386 1_655 S
C909 C915 1.483 . S
C910 H885 0.949 . S
C910 C909 1.376 . S
C910 C911 1.397 . S
C911 H886 0.950 . S
C911 C910 1.397 . S
C911 C912 1.391 . S
C912 C911 1.391 . S
C912 C913 1.405 1_655 S
C913 H887 0.950 . S
C913 C912 1.405 1_455 S
C913 C914 1.367 . S
C914 H888 0.950 . S
C914 C909 1.386 1_455 S
C914 C913 1.367 . S
C915 C909 1.483 . S
C915 C916 1.382 . S
C915 C917 1.403 1_655 S
C916 H889 0.950 . S
C916 C902 1.411 . S
C916 C915 1.382 . S
C917 C901 1.411 . S
C917 C915 1.403 1_455 S
C917 C918 1.489 . S
C918 C917 1.489 . S
C918 C919 1.383 1_455 S
C918 C923 1.382 . S
C919 H890 0.950 . S
C919 C918 1.383 1_655 S
C919 C920 1.395 . S
C920 H891 0.950 . S
C920 C919 1.395 . S
C920 C921 1.288 1_655 S
C921 C920 1.288 1_455 S
C921 C922 1.392 . S
C922 H892 0.951 . S
C922 C921 1.392 . S
C922 C923 1.392 . S
C923 H893 0.949 . S
C923 C918 1.382 . S
C923 C922 1.392 . S
H924 C943 0.949 . S
H925 C944 0.950 . S
H926 C946 0.950 . S
H927 C947 0.950 . S
H928 C949 0.950 . S
H929 C952 0.950 . S
H930 C953 0.950 . S
H931 C955 0.951 . S
H932 C956 0.949 . S
H933 C958 0.949 . S
H934 C959 0.950 . S
H935 C961 0.950 . S
H936 C962 0.950 . S
H937 C964 0.950 . S
H938 C967 0.950 . S
H939 C968 0.950 . S
H940 C970 0.951 . S
H941 C971 0.949 . S
C942 C943 1.376 . S
C942 C947 1.386 . S
C942 C948 1.483 . S
C943 H924 0.949 . S
C943 C942 1.376 . S
C943 C944 1.397 . S
C944 H925 0.950 . S
C944 C943 1.397 . S
C944 C945 1.391 . S
C945 C944 1.391 . S
C945 C946 1.405 . S
C946 H926 0.950 . S
C946 C945 1.405 . S
C946 C947 1.367 . S
C947 H927 0.950 . S
C947 C942 1.386 . S
C947 C946 1.367 . S
C948 C942 1.483 . S
C948 C949 1.382 . S
C948 C950 1.403 . S
C949 H928 0.950 . S
C949 C948 1.382 . S
C949 C965 1.411 . S
C950 C948 1.403 . S
C950 C951 1.489 . S
C950 C964 1.411 . S
C951 C950 1.489 . S
C951 C952 1.383 . S
C951 C956 1.382 . S
C952 H929 0.950 . S
C952 C951 1.383 . S
C952 C953 1.395 . S
C953 H930 0.950 . S
C953 C952 1.395 . S
C953 C954 1.288 . S
C954 C953 1.288 . S
C954 C955 1.392 . S
C955 H931 0.951 . S
C955 C954 1.392 . S
C955 C956 1.392 . S
C956 H932 0.949 . S
C956 C951 1.382 . S
C956 C955 1.392 . S
C957 C958 1.376 . S
C957 C962 1.386 . S
C957 C963 1.483 . S
C958 H933 0.949 . S
C958 C957 1.376 . S
C958 C959 1.397 . S
C959 H934 0.950 . S
C959 C958 1.397 . S
C959 C960 1.391 . S
C960 C959 1.391 . S
C960 C961 1.405 . S
C961 H935 0.950 . S
C961 C960 1.405 . S
C961 C962 1.367 . S
C962 H936 0.950 . S
C962 C957 1.386 . S
C962 C961 1.367 . S
C963 C957 1.483 . S
C963 C964 1.382 . S
C963 C965 1.403 . S
C964 H937 0.950 . S
C964 C950 1.411 . S
C964 C963 1.382 . S
C965 C949 1.411 . S
C965 C963 1.403 . S
C965 C966 1.489 . S
C966 C965 1.489 . S
C966 C967 1.383 . S
C966 C971 1.382 . S
C967 H938 0.950 . S
C967 C966 1.383 . S
C967 C968 1.395 . S
C968 H939 0.950 . S
C968 C967 1.395 . S
C968 C969 1.288 . S
C969 C968 1.288 . S
C969 C970 1.392 . S
C970 H940 0.951 . S
C970 C969 1.392 . S
C970 C971 1.392 . S
C971 H941 0.949 . S
C971 C966 1.382 . S
C971 C970 1.392 . S
H972 C991 0.949 . S
H973 C992 0.950 . S
H974 C994 0.950 . S
H975 C995 0.950 . S
H976 C997 0.950 . S
H977 C1000 0.950 . S
H978 C1001 0.950 . S
H979 C1003 0.951 . S
H980 C1004 0.949 . S
H981 C1006 0.949 . S
H982 C1007 0.950 . S
H983 C1009 0.950 . S
H984 C1010 0.950 . S
H985 C1012 0.950 . S
H986 C1015 0.950 . S
H987 C1016 0.950 . S
H988 C1018 0.951 . S
H989 C1019 0.949 . S
C990 C991 1.376 . S
C990 C995 1.386 . S
C990 C996 1.483 . S
C991 H972 0.949 . S
C991 C990 1.376 . S
C991 C992 1.397 . S
C992 H973 0.950 . S
C992 C991 1.397 . S
C992 C993 1.391 . S
C993 C992 1.391 . S
C993 C994 1.405 . S
C994 H974 0.950 . S
C994 C993 1.405 . S
C994 C995 1.367 . S
C995 H975 0.950 . S
C995 C990 1.386 . S
C995 C994 1.367 . S
C996 C990 1.483 . S
C996 C997 1.382 . S
C996 C998 1.403 . S
C997 H976 0.950 . S
C997 C996 1.382 . S
C997 C1013 1.411 . S
C998 C996 1.403 . S
C998 C999 1.489 . S
C998 C1012 1.411 . S
C999 C998 1.489 . S
C999 C1000 1.383 . S
C999 C1004 1.382 . S
C1000 H977 0.950 . S
C1000 C999 1.383 . S
C1000 C1001 1.395 . S
C1001 H978 0.950 . S
C1001 C1000 1.395 . S
C1001 C1002 1.288 . S
C1002 C1001 1.288 . S
C1002 C1003 1.392 . S
C1003 H979 0.951 . S
C1003 C1002 1.392 . S
C1003 C1004 1.392 . S
C1004 H980 0.949 . S
C1004 C999 1.382 . S
C1004 C1003 1.392 . S
C1005 C1006 1.376 . S
C1005 C1010 1.386 . S
C1005 C1011 1.483 . S
C1006 H981 0.949 . S
C1006 C1005 1.376 . S
C1006 C1007 1.397 . S
C1007 H982 0.950 . S
C1007 C1006 1.397 . S
C1007 C1008 1.391 . S
C1008 C1007 1.391 . S
C1008 C1009 1.405 . S
C1009 H983 0.950 . S
C1009 C1008 1.405 . S
C1009 C1010 1.367 . S
C1010 H984 0.950 . S
C1010 C1005 1.386 . S
C1010 C1009 1.367 . S
C1011 C1005 1.483 . S
C1011 C1012 1.382 . S
C1011 C1013 1.403 . S
C1012 H985 0.950 . S
C1012 C998 1.411 . S
C1012 C1011 1.382 . S
C1013 C997 1.411 . S
C1013 C1011 1.403 . S
C1013 C1014 1.489 . S
C1014 C1013 1.489 . S
C1014 C1015 1.383 . S
C1014 C1019 1.382 . S
C1015 H986 0.950 . S
C1015 C1014 1.383 . S
C1015 C1016 1.395 . S
C1016 H987 0.950 . S
C1016 C1015 1.395 . S
C1016 C1017 1.288 . S
C1017 C1016 1.288 . S
C1017 C1018 1.392 . S
C1018 H988 0.951 . S
C1018 C1017 1.392 . S
C1018 C1019 1.392 . S
C1019 H989 0.949 . S
C1019 C1014 1.382 . S
C1019 C1018 1.392 . S
H1020 C1039 0.949 . S
H1021 C1040 0.950 . S
H1022 C1042 0.950 . S
H1023 C1043 0.950 . S
H1024 C1045 0.950 . S
H1025 C1048 0.950 . S
H1026 C1049 0.950 . S
H1027 C1051 0.951 . S
H1028 C1052 0.949 . S
H1029 C1054 0.949 . S
H1030 C1055 0.950 . S
H1031 C1057 0.950 . S
H1032 C1058 0.950 . S
H1033 C1060 0.950 . S
H1034 C1063 0.950 . S
H1035 C1064 0.950 . S
H1036 C1066 0.951 . S
H1037 C1067 0.949 . S
C1038 C1039 1.376 . S
C1038 C1043 1.386 . S
C1038 C1044 1.483 . S
C1039 H1020 0.949 . S
C1039 C1038 1.376 . S
C1039 C1040 1.397 . S
C1040 H1021 0.950 . S
C1040 C1039 1.397 . S
C1040 C1041 1.391 . S
C1041 C1040 1.391 . S
C1041 C1042 1.405 . S
C1042 H1022 0.950 . S
C1042 C1041 1.405 . S
C1042 C1043 1.367 . S
C1043 H1023 0.950 . S
C1043 C1038 1.386 . S
C1043 C1042 1.367 . S
C1044 C1038 1.483 . S
C1044 C1045 1.382 . S
C1044 C1046 1.403 . S
C1045 H1024 0.950 . S
C1045 C1044 1.382 . S
C1045 C1061 1.411 . S
C1046 C1044 1.403 . S
C1046 C1047 1.489 . S
C1046 C1060 1.411 . S
C1047 C1046 1.489 . S
C1047 C1048 1.383 . S
C1047 C1052 1.382 . S
C1048 H1025 0.950 . S
C1048 C1047 1.383 . S
C1048 C1049 1.395 . S
C1049 H1026 0.950 . S
C1049 C1048 1.395 . S
C1049 C1050 1.288 . S
C1050 C1049 1.288 . S
C1050 C1051 1.392 . S
C1051 H1027 0.951 . S
C1051 C1050 1.392 . S
C1051 C1052 1.392 . S
C1052 H1028 0.949 . S
C1052 C1047 1.382 . S
C1052 C1051 1.392 . S
C1053 C1054 1.376 . S
C1053 C1058 1.386 . S
C1053 C1059 1.483 . S
C1054 H1029 0.949 . S
C1054 C1053 1.376 . S
C1054 C1055 1.397 . S
C1055 H1030 0.950 . S
C1055 C1054 1.397 . S
C1055 C1056 1.391 . S
C1056 C1055 1.391 . S
C1056 C1057 1.405 . S
C1057 H1031 0.950 . S
C1057 C1056 1.405 . S
C1057 C1058 1.367 . S
C1058 H1032 0.950 . S
C1058 C1053 1.386 . S
C1058 C1057 1.367 . S
C1059 C1053 1.483 . S
C1059 C1060 1.382 . S
C1059 C1061 1.403 . S
C1060 H1033 0.950 . S
C1060 C1046 1.411 . S
C1060 C1059 1.382 . S
C1061 C1045 1.411 . S
C1061 C1059 1.403 . S
C1061 C1062 1.489 . S
C1062 C1061 1.489 . S
C1062 C1063 1.383 . S
C1062 C1067 1.382 . S
C1063 H1034 0.950 . S
C1063 C1062 1.383 . S
C1063 C1064 1.395 . S
C1064 H1035 0.950 . S
C1064 C1063 1.395 . S
C1064 C1065 1.288 . S
C1065 C1064 1.288 . S
C1065 C1066 1.392 . S
C1066 H1036 0.951 . S
C1066 C1065 1.392 . S
C1066 C1067 1.392 . S
C1067 H1037 0.949 . S
C1067 C1062 1.382 . S
C1067 C1066 1.392 . S
H1068 C1087 0.949 . S
H1069 C1088 0.950 . S
H1070 C1090 0.950 . S
H1071 C1091 0.950 . S
H1072 C1093 0.950 . S
H1073 C1096 0.950 . S
H1074 C1097 0.950 . S
H1075 C1099 0.951 . S
H1076 C1100 0.949 . S
H1077 C1102 0.949 . S
H1078 C1103 0.950 . S
H1079 C1105 0.950 . S
H1080 C1106 0.950 . S
H1081 C1108 0.950 . S
H1082 C1111 0.950 . S
H1083 C1112 0.950 . S
H1084 C1114 0.951 . S
H1085 C1115 0.949 . S
C1086 C1087 1.376 . S
C1086 C1091 1.386 . S
C1086 C1092 1.483 . S
C1087 H1068 0.949 . S
C1087 C1086 1.376 . S
C1087 C1088 1.397 . S
C1088 H1069 0.950 . S
C1088 C1087 1.397 . S
C1088 C1089 1.391 . S
C1089 C1088 1.391 . S
C1089 C1090 1.405 . S
C1090 H1070 0.950 . S
C1090 C1089 1.405 . S
C1090 C1091 1.367 . S
C1091 H1071 0.950 . S
C1091 C1086 1.386 . S
C1091 C1090 1.367 . S
C1092 C1086 1.483 . S
C1092 C1093 1.382 . S
C1092 C1094 1.403 . S
C1093 H1072 0.950 . S
C1093 C1092 1.382 . S
C1093 C1109 1.411 . S
C1094 C1092 1.403 . S
C1094 C1095 1.489 . S
C1094 C1108 1.411 . S
C1095 C1094 1.489 . S
C1095 C1096 1.383 . S
C1095 C1100 1.382 . S
C1096 H1073 0.950 . S
C1096 C1095 1.383 . S
C1096 C1097 1.395 . S
C1097 H1074 0.950 . S
C1097 C1096 1.395 . S
C1097 C1098 1.288 . S
C1098 C1097 1.288 . S
C1098 C1099 1.392 . S
C1099 H1075 0.951 . S
C1099 C1098 1.392 . S
C1099 C1100 1.392 . S
C1100 H1076 0.949 . S
C1100 C1095 1.382 . S
C1100 C1099 1.392 . S
C1101 C1102 1.376 . S
C1101 C1106 1.386 . S
C1101 C1107 1.483 . S
C1102 H1077 0.949 . S
C1102 C1101 1.376 . S
C1102 C1103 1.397 . S
C1103 H1078 0.950 . S
C1103 C1102 1.397 . S
C1103 C1104 1.391 . S
C1104 C1103 1.391 . S
C1104 C1105 1.405 . S
C1105 H1079 0.950 . S
C1105 C1104 1.405 . S
C1105 C1106 1.367 . S
C1106 H1080 0.950 . S
C1106 C1101 1.386 . S
C1106 C1105 1.367 . S
C1107 C1101 1.483 . S
C1107 C1108 1.382 . S
C1107 C1109 1.403 . S
C1108 H1081 0.950 . S
C1108 C1094 1.411 . S
C1108 C1107 1.382 . S
C1109 C1093 1.411 . S
C1109 C1107 1.403 . S
C1109 C1110 1.489 . S
C1110 C1109 1.489 . S
C1110 C1111 1.383 . S
C1110 C1115 1.382 . S
C1111 H1082 0.950 . S
C1111 C1110 1.383 . S
C1111 C1112 1.395 . S
C1112 H1083 0.950 . S
C1112 C1111 1.395 . S
C1112 C1113 1.288 . S
C1113 C1112 1.288 . S
C1113 C1114 1.392 . S
C1114 H1084 0.951 . S
C1114 C1113 1.392 . S
C1114 C1115 1.392 . S
C1115 H1085 0.949 . S
C1115 C1110 1.382 . S
C1115 C1114 1.392 . S
C1116 C1117 1.392 . S
C1116 C1118 1.327 . S
C1116 H1141 0.950 . S
C1117 C1116 1.392 . S
C1117 C1133 1.328 1_655 S
C1118 C1116 1.327 . S
C1118 C1137 1.466 . S
C1118 H1142 0.950 . S
C1119 C1136 1.574 . S
C1119 C1138 1.368 1_455 S
C1119 H1143 0.949 . S
H1120 C1124 0.949 . S
C1121 C1122 1.349 1_455 S
C1121 C1123 1.327 . S
C1121 H1144 0.950 . S
C1122 C1121 1.349 1_655 S
C1122 C1134 1.349 . S
C1123 C1121 1.327 . S
C1123 C1139 1.429 1_455 S
C1123 H1145 0.950 . S
C1124 H1120 0.949 . S
C1124 C1132 1.574 . S
C1124 C1140 1.368 . S
H1125 C1133 0.950 . S
H1126 C1131 0.950 . S
H1127 C1132 0.949 . S
H1128 C1134 0.950 . S
H1129 C1135 0.950 . S
H1130 C1136 0.949 . S
C1131 H1126 0.950 . S
C1131 C1133 1.327 . S
C1131 C1137 1.355 1_455 S
C1132 C1124 1.574 . S
C1132 H1127 0.949 . S
C1132 C1138 1.368 . S
C1133 C1117 1.328 1_455 S
C1133 H1125 0.950 . S
C1133 C1131 1.327 . S
C1134 C1122 1.349 . S
C1134 H1128 0.950 . S
C1134 C1135 1.327 . S
C1135 H1129 0.950 . S
C1135 C1134 1.327 . S
C1135 C1139 1.429 . S
C1136 C1119 1.574 . S
C1136 H1130 0.949 . S
C1136 C1140 1.368 1_455 S
C1137 C1118 1.466 . S
C1137 C1131 1.355 1_655 S
C1137 C1138 1.562 . S
C1138 C1119 1.368 1_655 S
C1138 C1132 1.368 . S
C1138 C1137 1.562 . S
C1139 C1123 1.429 1_655 S
C1139 C1135 1.429 . S
C1139 C1140 1.523 . S
C1140 C1124 1.368 . S
C1140 C1136 1.368 1_655 S
C1140 C1139 1.523 . S
H1141 C1116 0.950 . S
H1142 C1118 0.950 . S
H1143 C1119 0.949 . S
H1144 C1121 0.950 . S
H1145 C1123 0.950 . S
C1146 C1147 1.349 . S
C1146 C1148 1.327 . S
C1146 H1171 0.950 . S
C1147 C1146 1.349 . S
C1147 C1163 1.349 . S
C1148 C1146 1.327 . S
C1148 C1167 1.429 . S
C1148 H1172 0.950 . S
C1149 C1166 1.574 . S
C1149 C1168 1.368 . S
C1149 H1173 0.949 . S
H1150 C1154 0.949 . S
C1151 C1152 1.349 . S
C1151 C1153 1.327 . S
C1151 H1174 0.950 . S
C1152 C1151 1.349 . S
C1152 C1164 1.349 . S
C1153 C1151 1.327 . S
C1153 C1169 1.429 . S
C1153 H1175 0.950 . S
C1154 H1150 0.949 . S
C1154 C1162 1.574 . S
C1154 C1170 1.368 . S
H1155 C1163 0.950 . S
H1156 C1161 0.950 . S
H1157 C1162 0.949 . S
H1158 C1164 0.950 . S
H1159 C1165 0.950 . S
H1160 C1166 0.949 . S
C1161 H1156 0.950 . S
C1161 C1163 1.327 . S
C1161 C1167 1.429 . S
C1162 C1154 1.574 . S
C1162 H1157 0.949 . S
C1162 C1168 1.368 . S
C1163 C1147 1.349 . S
C1163 H1155 0.950 . S
C1163 C1161 1.327 . S
C1164 C1152 1.349 . S
C1164 H1158 0.950 . S
C1164 C1165 1.327 . S
C1165 H1159 0.950 . S
C1165 C1164 1.327 . S
C1165 C1169 1.429 . S
C1166 C1149 1.574 . S
C1166 H1160 0.949 . S
C1166 C1170 1.368 . S
C1167 C1148 1.429 . S
C1167 C1161 1.429 . S
C1167 C1168 1.523 . S
C1168 C1149 1.368 . S
C1168 C1162 1.368 . S
C1168 C1167 1.523 . S
C1169 C1153 1.429 . S
C1169 C1165 1.429 . S
C1169 C1170 1.523 . S
C1170 C1154 1.368 . S
C1170 C1166 1.368 . S
C1170 C1169 1.523 . S
H1171 C1146 0.950 . S
H1172 C1148 0.950 . S
H1173 C1149 0.949 . S
H1174 C1151 0.950 . S
H1175 C1153 0.950 . S
C1176 C1177 1.349 . S
C1176 C1178 1.327 . S
C1176 H1201 0.971 . S
C1177 C1176 1.349 . S
C1177 C1193 1.349 . S
C1178 C1176 1.327 . S
C1178 C1197 1.429 . S
C1178 H1202 0.938 1_545 S
C1179 C1196 1.574 . S
C1179 C1198 1.368 . S
C1179 H1203 0.949 . S
H1180 C1184 0.895 1_565 S
C1181 C1182 1.349 . S
C1181 C1183 1.327 . S
C1181 H1204 0.950 . S
C1182 C1181 1.349 . S
C1182 C1194 1.341 1_545 S
C1183 C1181 1.327 . S
C1183 C1199 1.429 . S
C1183 H1205 0.950 . S
C1184 H1180 0.895 1_545 S
C1184 C1192 1.608 . S
C1184 C1200 1.399 . S
H1185 C1193 0.950 . S
H1186 C1191 0.950 . S
H1187 C1192 0.930 1_565 S
H1188 C1194 0.970 . S
H1189 C1195 0.953 1_565 S
H1190 C1196 0.949 . S
C1191 H1186 0.950 . S
C1191 C1193 1.327 . S
C1191 C1197 1.429 . S
C1192 C1184 1.608 . S
C1192 H1187 0.930 1_545 S
C1192 C1198 1.368 . S
C1193 C1177 1.349 . S
C1193 H1185 0.950 . S
C1193 C1191 1.327 . S
C1194 C1182 1.341 1_565 S
C1194 H1188 0.970 . S
C1194 C1195 1.320 1_565 S
C1195 H1189 0.953 1_545 S
C1195 C1194 1.320 1_545 S
C1195 C1199 1.422 . S
C1196 C1179 1.574 . S
C1196 H1190 0.949 . S
C1196 C1200 1.368 . S
C1197 C1178 1.429 . S
C1197 C1191 1.429 . S
C1197 C1198 1.523 . S
C1198 C1179 1.368 . S
C1198 C1192 1.368 . S
C1198 C1197 1.523 . S
C1199 C1183 1.429 . S
C1199 C1195 1.422 . S
C1199 C1200 1.523 . S
C1200 C1184 1.399 . S
C1200 C1196 1.368 . S
C1200 C1199 1.523 . S
H1201 C1176 0.971 . S
H1202 C1178 0.938 1_565 S
H1203 C1179 0.949 . S
H1204 C1181 0.950 . S
H1205 C1183 0.950 . S
C1206 C1207 1.357 . S
C1206 C1208 1.327 . S
C1206 H1231 0.950 . S
C1207 C1206 1.357 . S
C1207 C1223 1.328 1_545 S
C1208 C1206 1.327 . S
C1208 C1227 1.426 1_545 S
C1208 H1232 0.950 . S
C1209 C1226 1.574 . S
C1209 C1228 1.392 . S
C1209 H1233 0.949 . S
H1210 C1214 0.949 . S
C1211 C1212 1.349 . S
C1211 C1213 1.327 . S
C1211 H1234 0.950 . S
C1212 C1211 1.349 . S
C1212 C1224 1.349 1_565 S
C1213 C1211 1.327 . S
C1213 C1229 1.429 . S
C1213 H1235 0.950 . S
C1214 H1210 0.949 . S
C1214 C1222 1.574 . S
C1214 C1230 1.312 1_545 S
H1215 C1223 0.950 . S
H1216 C1221 0.950 . S
H1217 C1222 0.949 . S
H1218 C1224 0.950 . S
H1219 C1225 0.950 . S
H1220 C1226 0.949 . S
C1221 H1216 0.950 . S
C1221 C1223 1.327 . S
C1221 C1227 1.429 . S
C1222 C1214 1.574 . S
C1222 H1217 0.949 . S
C1222 C1228 1.357 1_545 S
C1223 C1207 1.328 1_565 S
C1223 H1215 0.950 . S
C1223 C1221 1.327 . S
C1224 C1212 1.349 1_545 S
C1224 H1218 0.950 . S
C1224 C1225 1.327 . S
C1225 H1219 0.950 . S
C1225 C1224 1.327 . S
C1225 C1229 1.429 1_545 S
C1226 C1209 1.574 . S
C1226 H1220 0.949 . S
C1226 C1230 1.400 . S
C1227 C1208 1.426 1_565 S
C1227 C1221 1.429 . S
C1227 C1228 1.510 . S
C1228 C1209 1.392 . S
C1228 C1222 1.357 1_565 S
C1228 C1227 1.510 . S
C1229 C1213 1.429 . S
C1229 C1225 1.429 1_565 S
C1229 C1230 1.564 . S
C1230 C1214 1.312 1_565 S
C1230 C1226 1.400 . S
C1230 C1229 1.564 . S
H1231 C1206 0.950 . S
H1232 C1208 0.950 . S
H1233 C1209 0.949 . S
H1234 C1211 0.950 . S
H1235 C1213 0.950 . S
C1236 C1237 1.349 . S
C1236 C1238 1.327 . S
C1236 H1261 0.950 . S
C1237 C1236 1.349 . S
C1237 C1253 1.349 1_455 S
C1238 C1236 1.327 . S
C1238 C1257 1.429 . S
C1238 H1262 0.950 . S
C1239 C1256 1.574 . S
C1239 C1258 1.368 1_655 S
C1239 H1263 0.949 . S
H1240 C1244 0.949 . S
C1241 C1242 1.349 1_655 S
C1241 C1243 1.327 . S
C1241 H1264 0.950 . S
C1242 C1241 1.349 1_455 S
C1242 C1254 1.349 . S
C1243 C1241 1.327 . S
C1243 C1259 1.429 1_655 S
C1243 H1265 0.950 . S
C1244 H1240 0.949 . S
C1244 C1252 1.574 . S
C1244 C1260 1.368 . S
H1245 C1253 0.950 . S
H1246 C1251 0.950 . S
H1247 C1252 0.949 . S
H1248 C1254 0.950 . S
H1249 C1255 0.950 . S
H1250 C1256 0.949 . S
C1251 H1246 0.950 . S
C1251 C1253 1.327 . S
C1251 C1257 1.429 1_655 S
C1252 C1244 1.574 . S
C1252 H1247 0.949 . S
C1252 C1258 1.368 . S
C1253 C1237 1.349 1_655 S
C1253 H1245 0.950 . S
C1253 C1251 1.327 . S
C1254 C1242 1.349 . S
C1254 H1248 0.950 . S
C1254 C1255 1.327 . S
C1255 H1249 0.950 . S
C1255 C1254 1.327 . S
C1255 C1259 1.429 . S
C1256 C1239 1.574 . S
C1256 H1250 0.949 . S
C1256 C1260 1.368 1_655 S
C1257 C1238 1.429 . S
C1257 C1251 1.429 1_455 S
C1257 C1258 1.523 . S
C1258 C1239 1.368 1_455 S
C1258 C1252 1.368 . S
C1258 C1257 1.523 . S
C1259 C1243 1.429 1_455 S
C1259 C1255 1.429 . S
C1259 C1260 1.523 . S
C1260 C1244 1.368 . S
C1260 C1256 1.368 1_455 S
C1260 C1259 1.523 . S
H1261 C1236 0.950 . S
H1262 C1238 0.950 . S
H1263 C1239 0.949 . S
H1264 C1241 0.950 . S
H1265 C1243 0.950 . S
C1266 C1267 1.349 . S
C1266 C1268 1.327 . S
C1266 H1291 0.950 . S
C1267 C1266 1.349 . S
C1267 C1283 1.349 . S
C1268 C1266 1.327 . S
C1268 C1287 1.429 . S
C1268 H1292 0.950 . S
C1269 C1286 1.574 . S
C1269 C1288 1.368 . S
C1269 H1293 0.949 . S
H1270 C1274 0.949 . S
C1271 C1272 1.349 . S
C1271 C1273 1.327 . S
C1271 H1294 0.950 . S
C1272 C1271 1.349 . S
C1272 C1284 1.349 . S
C1273 C1271 1.327 . S
C1273 C1289 1.429 . S
C1273 H1295 0.950 . S
C1274 H1270 0.949 . S
C1274 C1282 1.574 . S
C1274 C1290 1.368 . S
H1275 C1283 0.950 . S
H1276 C1281 0.950 . S
H1277 C1282 0.949 . S
H1278 C1284 0.950 . S
H1279 C1285 0.950 . S
H1280 C1286 0.949 . S
C1281 H1276 0.950 . S
C1281 C1283 1.327 . S
C1281 C1287 1.429 . S
C1282 C1274 1.574 . S
C1282 H1277 0.949 . S
C1282 C1288 1.368 . S
C1283 C1267 1.349 . S
C1283 H1275 0.950 . S
C1283 C1281 1.327 . S
C1284 C1272 1.349 . S
C1284 H1278 0.950 . S
C1284 C1285 1.327 . S
C1285 H1279 0.950 . S
C1285 C1284 1.327 . S
C1285 C1289 1.429 . S
C1286 C1269 1.574 . S
C1286 H1280 0.949 . S
C1286 C1290 1.368 . S
C1287 C1268 1.429 . S
C1287 C1281 1.429 . S
C1287 C1288 1.523 . S
C1288 C1269 1.368 . S
C1288 C1282 1.368 . S
C1288 C1287 1.523 . S
C1289 C1273 1.429 . S
C1289 C1285 1.429 . S
C1289 C1290 1.523 . S
C1290 C1274 1.368 . S
C1290 C1286 1.368 . S
C1290 C1289 1.523 . S
H1291 C1266 0.950 . S
H1292 C1268 0.950 . S
H1293 C1269 0.949 . S
H1294 C1271 0.950 . S
H1295 C1273 0.950 . S
C1296 C1297 1.349 . S
C1296 C1298 1.327 . S
C1296 H1321 0.950 . S
C1297 C1296 1.349 . S
C1297 C1313 1.354 1_455 S
C1298 C1296 1.327 . S
C1298 C1317 1.429 . S
C1298 H1322 0.950 . S
C1299 C1316 1.574 . S
C1299 C1318 1.368 1_655 S
C1299 H1323 0.949 . S
H1300 C1304 0.949 . S
C1301 C1302 1.349 1_655 S
C1301 C1303 1.327 . S
C1301 H1324 0.950 . S
C1302 C1301 1.349 1_455 S
C1302 C1314 1.349 . S
C1303 C1301 1.327 . S
C1303 C1319 1.429 1_655 S
C1303 H1325 0.950 . S
C1304 H1300 0.949 . S
C1304 C1312 1.574 . S
C1304 C1320 1.368 . S
H1305 C1313 0.957 . S
H1306 C1311 0.942 . S
H1307 C1312 0.949 . S
H1308 C1314 0.950 . S
H1309 C1315 0.950 . S
H1310 C1316 0.949 . S
C1311 H1306 0.942 . S
C1311 C1313 1.343 . S
C1311 C1317 1.414 1_655 S
C1312 C1304 1.574 . S
C1312 H1307 0.949 . S
C1312 C1318 1.368 . S
C1313 C1297 1.354 1_655 S
C1313 H1305 0.957 . S
C1313 C1311 1.343 . S
C1314 C1302 1.349 . S
C1314 H1308 0.950 . S
C1314 C1315 1.327 . S
C1315 H1309 0.950 . S
C1315 C1314 1.327 . S
C1315 C1319 1.429 . S
C1316 C1299 1.574 . S
C1316 H1310 0.949 . S
C1316 C1320 1.368 1_655 S
C1317 C1298 1.429 . S
C1317 C1311 1.414 1_455 S
C1317 C1318 1.523 . S
C1318 C1299 1.368 1_455 S
C1318 C1312 1.368 . S
C1318 C1317 1.523 . S
C1319 C1303 1.429 1_455 S
C1319 C1315 1.429 . S
C1319 C1320 1.523 . S
C1320 C1304 1.368 . S
C1320 C1316 1.368 1_455 S
C1320 C1319 1.523 . S
H1321 C1296 0.950 . S
H1322 C1298 0.950 . S
H1323 C1299 0.949 . S
H1324 C1301 0.950 . S
H1325 C1303 0.950 . S
C1326 C1327 1.349 . S
C1326 C1328 1.327 . S
C1326 H1351 0.950 . S
C1327 C1326 1.349 . S
C1327 C1343 1.349 . S
C1328 C1326 1.327 . S
C1328 C1347 1.429 . S
C1328 H1352 0.950 . S
C1329 C1346 1.574 . S
C1329 C1348 1.368 . S
C1329 H1353 0.949 . S
H1330 C1334 0.949 . S
C1331 C1332 1.349 . S
C1331 C1333 1.327 . S
C1331 H1354 0.950 . S
C1332 C1331 1.349 . S
C1332 C1344 1.349 . S
C1333 C1331 1.327 . S
C1333 C1349 1.429 . S
C1333 H1355 0.950 . S
C1334 H1330 0.949 . S
C1334 C1342 1.574 . S
C1334 C1350 1.368 . S
H1335 C1343 0.950 . S
H1336 C1341 0.950 . S
H1337 C1342 0.949 . S
H1338 C1344 0.950 . S
H1339 C1345 0.950 . S
H1340 C1346 0.949 . S
C1341 H1336 0.950 . S
C1341 C1343 1.327 . S
C1341 C1347 1.429 . S
C1342 C1334 1.574 . S
C1342 H1337 0.949 . S
C1342 C1348 1.368 . S
C1343 C1327 1.349 . S
C1343 H1335 0.950 . S
C1343 C1341 1.327 . S
C1344 C1332 1.349 . S
C1344 H1338 0.950 . S
C1344 C1345 1.327 . S
C1345 H1339 0.950 . S
C1345 C1344 1.327 . S
C1345 C1349 1.429 . S
C1346 C1329 1.574 . S
C1346 H1340 0.949 . S
C1346 C1350 1.368 . S
C1347 C1328 1.429 . S
C1347 C1341 1.429 . S
C1347 C1348 1.523 . S
C1348 C1329 1.368 . S
C1348 C1342 1.368 . S
C1348 C1347 1.523 . S
C1349 C1333 1.429 . S
C1349 C1345 1.429 . S
C1349 C1350 1.523 . S
C1350 C1334 1.368 . S
C1350 C1346 1.368 . S
C1350 C1349 1.523 . S
H1351 C1326 0.950 . S
H1352 C1328 0.950 . S
H1353 C1329 0.949 . S
H1354 C1331 0.950 . S
H1355 C1333 0.950 . S
C1356 C1357 1.349 1_545 S
C1356 C1358 1.327 . S
C1356 H1381 0.950 . S
C1357 C1356 1.349 1_565 S
C1357 C1373 1.349 . S
C1358 C1356 1.327 . S
C1358 C1377 1.429 1_545 S
C1358 H1382 0.950 . S
C1359 C1376 1.574 . S
C1359 C1378 1.368 . S
C1359 H1383 0.949 . S
H1360 C1364 0.949 . S
C1361 C1362 1.349 . S
C1361 C1363 1.327 . S
C1361 H1384 0.950 . S
C1362 C1361 1.349 . S
C1362 C1374 1.349 1_565 S
C1363 C1361 1.327 . S
C1363 C1379 1.429 . S
C1363 H1385 0.950 . S
C1364 H1360 0.949 . S
C1364 C1372 1.574 . S
C1364 C1380 1.368 1_545 S
H1365 C1373 0.950 . S
H1366 C1371 0.950 . S
H1367 C1372 0.949 . S
H1368 C1374 0.950 . S
H1369 C1375 0.950 . S
H1370 C1376 0.949 . S
C1371 H1366 0.950 . S
C1371 C1373 1.327 . S
C1371 C1377 1.429 . S
C1372 C1364 1.574 . S
C1372 H1367 0.949 . S
C1372 C1378 1.368 1_545 S
C1373 C1357 1.349 . S
C1373 H1365 0.950 . S
C1373 C1371 1.327 . S
C1374 C1362 1.349 1_545 S
C1374 H1368 0.950 . S
C1374 C1375 1.327 . S
C1375 H1369 0.950 . S
C1375 C1374 1.327 . S
C1375 C1379 1.429 1_545 S
C1376 C1359 1.574 . S
C1376 H1370 0.949 . S
C1376 C1380 1.368 . S
C1377 C1358 1.429 1_565 S
C1377 C1371 1.429 . S
C1377 C1378 1.523 . S
C1378 C1359 1.368 . S
C1378 C1372 1.368 1_565 S
C1378 C1377 1.523 . S
C1379 C1363 1.429 . S
C1379 C1375 1.429 1_565 S
C1379 C1380 1.523 . S
C1380 C1364 1.368 1_565 S
C1380 C1376 1.368 . S
C1380 C1379 1.523 . S
H1381 C1356 0.950 . S
H1382 C1358 0.950 . S
H1383 C1359 0.949 . S
H1384 C1361 0.950 . S
H1385 C1363 0.950 . S
C1386 C1387 1.349 1_565 S
C1386 C1388 1.327 . S
C1386 H1411 0.950 . S
C1387 C1386 1.349 1_545 S
C1387 C1403 1.349 . S
C1388 C1386 1.327 . S
C1388 C1407 1.429 1_565 S
C1388 H1412 0.950 . S
C1389 C1406 1.574 . S
C1389 C1408 1.368 . S
C1389 H1413 0.949 . S
H1390 C1394 0.949 . S
C1391 C1392 1.349 . S
C1391 C1393 1.327 . S
C1391 H1414 0.950 . S
C1392 C1391 1.349 . S
C1392 C1404 1.349 1_545 S
C1393 C1391 1.327 . S
C1393 C1409 1.429 . S
C1393 H1415 0.950 . S
C1394 H1390 0.949 . S
C1394 C1402 1.574 . S
C1394 C1410 1.368 1_565 S
H1395 C1403 0.950 . S
H1396 C1401 0.950 . S
H1397 C1402 0.949 . S
H1398 C1404 0.950 . S
H1399 C1405 0.950 . S
H1400 C1406 0.949 . S
C1401 H1396 0.950 . S
C1401 C1403 1.327 . S
C1401 C1407 1.429 . S
C1402 C1394 1.574 . S
C1402 H1397 0.949 . S
C1402 C1408 1.368 1_565 S
C1403 C1387 1.349 . S
C1403 H1395 0.950 . S
C1403 C1401 1.327 . S
C1404 C1392 1.349 1_565 S
C1404 H1398 0.950 . S
C1404 C1405 1.327 . S
C1405 H1399 0.950 . S
C1405 C1404 1.327 . S
C1405 C1409 1.429 1_565 S
C1406 C1389 1.574 . S
C1406 H1400 0.949 . S
C1406 C1410 1.368 . S
C1407 C1388 1.429 1_545 S
C1407 C1401 1.429 . S
C1407 C1408 1.523 . S
C1408 C1389 1.368 . S
C1408 C1402 1.368 1_545 S
C1408 C1407 1.523 . S
C1409 C1393 1.429 . S
C1409 C1405 1.429 1_545 S
C1409 C1410 1.523 . S
C1410 C1394 1.368 1_545 S
C1410 C1406 1.368 . S
C1410 C1409 1.523 . S
H1411 C1386 0.950 . S
H1412 C1388 0.950 . S
H1413 C1389 0.949 . S
H1414 C1391 0.950 . S
H1415 C1393 0.950 . S
C1416 C1417 1.349 . S
C1416 C1418 1.327 . S
C1416 H1441 0.950 . S
C1417 C1416 1.349 . S
C1417 C1433 1.349 1_655 S
C1418 C1416 1.327 . S
C1418 C1437 1.429 . S
C1418 H1442 0.950 . S
C1419 C1436 1.574 . S
C1419 C1438 1.368 1_455 S
C1419 H1443 0.949 . S
H1420 C1424 0.949 . S
C1421 C1422 1.375 1_455 S
C1421 C1423 1.294 . S
C1421 H1444 0.967 . S
C1422 C1421 1.375 1_655 S
C1422 C1434 1.349 . S
C1423 C1421 1.294 . S
C1423 C1439 1.429 1_455 S
C1423 H1445 0.950 . S
C1424 H1420 0.949 . S
C1424 C1432 1.574 . S
C1424 C1440 1.368 . S
H1425 C1433 0.950 . S
H1426 C1431 0.950 . S
H1427 C1432 0.949 . S
H1428 C1434 0.950 . S
H1429 C1435 0.950 . S
H1430 C1436 0.949 . S
C1431 H1426 0.950 . S
C1431 C1433 1.327 . S
C1431 C1437 1.429 1_455 S
C1432 C1424 1.574 . S
C1432 H1427 0.949 . S
C1432 C1438 1.368 . S
C1433 C1417 1.349 1_455 S
C1433 H1425 0.950 . S
C1433 C1431 1.327 . S
C1434 C1422 1.349 . S
C1434 H1428 0.950 . S
C1434 C1435 1.327 . S
C1435 H1429 0.950 . S
C1435 C1434 1.327 . S
C1435 C1439 1.429 . S
C1436 C1419 1.574 . S
C1436 H1430 0.949 . S
C1436 C1440 1.368 1_455 S
C1437 C1418 1.429 . S
C1437 C1431 1.429 1_655 S
C1437 C1438 1.523 . S
C1438 C1419 1.368 1_655 S
C1438 C1432 1.368 . S
C1438 C1437 1.523 . S
C1439 C1423 1.429 1_655 S
C1439 C1435 1.429 . S
C1439 C1440 1.523 . S
C1440 C1424 1.368 . S
C1440 C1436 1.368 1_655 S
C1440 C1439 1.523 . S
H1441 C1416 0.950 . S
H1442 C1418 0.950 . S
H1443 C1419 0.949 . S
H1444 C1421 0.967 . S
H1445 C1423 0.950 . S
C1446 C1447 1.349 . S
C1446 C1448 1.327 . S
C1446 H1471 0.950 . S
C1447 C1446 1.349 . S
C1447 C1463 1.349 . S
C1448 C1446 1.327 . S
C1448 C1467 1.429 . S
C1448 H1472 0.950 . S
C1449 C1466 1.574 . S
C1449 C1468 1.368 . S
C1449 H1473 0.949 . S
H1450 C1454 0.949 . S
C1451 C1452 1.349 . S
C1451 C1453 1.327 . S
C1451 H1474 0.950 . S
C1452 C1451 1.349 . S
C1452 C1464 1.349 . S
C1453 C1451 1.327 . S
C1453 C1469 1.429 . S
C1453 H1475 0.950 . S
C1454 H1450 0.949 . S
C1454 C1462 1.574 . S
C1454 C1470 1.368 . S
H1455 C1463 0.950 . S
H1456 C1461 0.950 . S
H1457 C1462 0.949 . S
H1458 C1464 0.950 . S
H1459 C1465 0.950 . S
H1460 C1466 0.949 . S
C1461 H1456 0.950 . S
C1461 C1463 1.327 . S
C1461 C1467 1.429 . S
C1462 C1454 1.574 . S
C1462 H1457 0.949 . S
C1462 C1468 1.368 . S
C1463 C1447 1.349 . S
C1463 H1455 0.950 . S
C1463 C1461 1.327 . S
C1464 C1452 1.349 . S
C1464 H1458 0.950 . S
C1464 C1465 1.327 . S
C1465 H1459 0.950 . S
C1465 C1464 1.327 . S
C1465 C1469 1.429 . S
C1466 C1449 1.574 . S
C1466 H1460 0.949 . S
C1466 C1470 1.368 . S
C1467 C1448 1.429 . S
C1467 C1461 1.429 . S
C1467 C1468 1.523 . S
C1468 C1449 1.368 . S
C1468 C1462 1.368 . S
C1468 C1467 1.523 . S
C1469 C1453 1.429 . S
C1469 C1465 1.429 . S
C1469 C1470 1.523 . S
C1470 C1454 1.368 . S
C1470 C1466 1.368 . S
C1470 C1469 1.523 . S
H1471 C1446 0.950 . S
H1472 C1448 0.950 . S
H1473 C1449 0.949 . S
H1474 C1451 0.950 . S
H1475 C1453 0.950 . S
C1476 C1477 1.349 . S
C1476 C1478 1.327 . S
C1476 H1501 0.950 . S
C1477 C1476 1.349 . S
C1477 C1493 1.349 . S
C1478 C1476 1.327 . S
C1478 C1497 1.429 . S
C1478 H1502 0.950 . S
C1479 C1496 1.574 . S
C1479 C1498 1.368 . S
C1479 H1503 0.949 . S
H1480 C1484 0.949 . S
C1481 C1482 1.349 . S
C1481 C1483 1.327 . S
C1481 H1504 0.950 . S
C1482 C1481 1.349 . S
C1482 C1494 1.349 . S
C1483 C1481 1.327 . S
C1483 C1499 1.429 . S
C1483 H1505 0.950 . S
C1484 H1480 0.949 . S
C1484 C1492 1.574 . S
C1484 C1500 1.368 . S
H1485 C1493 0.950 . S
H1486 C1491 0.950 . S
H1487 C1492 0.949 . S
H1488 C1494 0.950 . S
H1489 C1495 0.950 . S
H1490 C1496 0.949 . S
C1491 H1486 0.950 . S
C1491 C1493 1.327 . S
C1491 C1497 1.429 . S
C1492 C1484 1.574 . S
C1492 H1487 0.949 . S
C1492 C1498 1.368 . S
C1493 C1477 1.349 . S
C1493 H1485 0.950 . S
C1493 C1491 1.327 . S
C1494 C1482 1.349 . S
C1494 H1488 0.950 . S
C1494 C1495 1.327 . S
C1495 H1489 0.950 . S
C1495 C1494 1.327 . S
C1495 C1499 1.429 . S
C1496 C1479 1.574 . S
C1496 H1490 0.949 . S
C1496 C1500 1.368 . S
C1497 C1478 1.429 . S
C1497 C1491 1.429 . S
C1497 C1498 1.523 . S
C1498 C1479 1.368 . S
C1498 C1492 1.368 . S
C1498 C1497 1.523 . S
C1499 C1483 1.429 . S
C1499 C1495 1.429 . S
C1499 C1500 1.523 . S
C1500 C1484 1.368 . S
C1500 C1496 1.368 . S
C1500 C1499 1.523 . S
H1501 C1476 0.950 . S
H1502 C1478 0.950 . S
H1503 C1479 0.949 . S
H1504 C1481 0.950 . S
H1505 C1483 0.950 . S
C1506 C1507 1.349 . S
C1506 C1508 1.327 . S
C1506 H1531 0.950 . S
C1507 C1506 1.349 . S
C1507 C1523 1.349 . S
C1508 C1506 1.327 . S
C1508 C1527 1.429 . S
C1508 H1532 0.950 . S
C1509 C1526 1.574 . S
C1509 C1528 1.368 . S
C1509 H1533 0.949 . S
H1510 C1514 0.949 . S
C1511 C1512 1.349 . S
C1511 C1513 1.327 . S
C1511 H1534 0.950 . S
C1512 C1511 1.349 . S
C1512 C1524 1.349 . S
C1513 C1511 1.327 . S
C1513 C1529 1.429 . S
C1513 H1535 0.950 . S
C1514 H1510 0.949 . S
C1514 C1522 1.574 . S
C1514 C1530 1.368 . S
H1515 C1523 0.950 . S
H1516 C1521 0.950 . S
H1517 C1522 0.949 . S
H1518 C1524 0.950 . S
H1519 C1525 0.950 . S
H1520 C1526 0.949 . S
C1521 H1516 0.950 . S
C1521 C1523 1.327 . S
C1521 C1527 1.429 . S
C1522 C1514 1.574 . S
C1522 H1517 0.949 . S
C1522 C1528 1.368 . S
C1523 C1507 1.349 . S
C1523 H1515 0.950 . S
C1523 C1521 1.327 . S
C1524 C1512 1.349 . S
C1524 H1518 0.950 . S
C1524 C1525 1.327 . S
C1525 H1519 0.950 . S
C1525 C1524 1.327 . S
C1525 C1529 1.429 . S
C1526 C1509 1.574 . S
C1526 H1520 0.949 . S
C1526 C1530 1.368 . S
C1527 C1508 1.429 . S
C1527 C1521 1.429 . S
C1527 C1528 1.523 . S
C1528 C1509 1.368 . S
C1528 C1522 1.368 . S
C1528 C1527 1.523 . S
C1529 C1513 1.429 . S
C1529 C1525 1.429 . S
C1529 C1530 1.523 . S
C1530 C1514 1.368 . S
C1530 C1526 1.368 . S
C1530 C1529 1.523 . S
H1531 C1506 0.950 . S
H1532 C1508 0.950 . S
H1533 C1509 0.949 . S
H1534 C1511 0.950 . S
H1535 C1513 0.950 . S
C1536 C1537 1.349 . S
C1536 C1538 1.327 . S
C1536 H1561 0.950 . S
C1537 C1536 1.349 . S
C1537 C1553 1.349 . S
C1538 C1536 1.327 . S
C1538 C1557 1.429 . S
C1538 H1562 0.950 . S
C1539 C1556 1.574 . S
C1539 C1558 1.368 . S
C1539 H1563 0.949 . S
H1540 C1544 0.949 . S
C1541 C1542 1.349 . S
C1541 C1543 1.327 . S
C1541 H1564 0.950 . S
C1542 C1541 1.349 . S
C1542 C1554 1.349 . S
C1543 C1541 1.327 . S
C1543 C1559 1.429 . S
C1543 H1565 0.950 . S
C1544 H1540 0.949 . S
C1544 C1552 1.574 . S
C1544 C1560 1.368 . S
H1545 C1553 0.950 . S
H1546 C1551 0.950 . S
H1547 C1552 0.949 . S
H1548 C1554 0.950 . S
H1549 C1555 0.950 . S
H1550 C1556 0.949 . S
C1551 H1546 0.950 . S
C1551 C1553 1.327 . S
C1551 C1557 1.429 . S
C1552 C1544 1.574 . S
C1552 H1547 0.949 . S
C1552 C1558 1.368 . S
C1553 C1537 1.349 . S
C1553 H1545 0.950 . S
C1553 C1551 1.327 . S
C1554 C1542 1.349 . S
C1554 H1548 0.950 . S
C1554 C1555 1.327 . S
C1555 H1549 0.950 . S
C1555 C1554 1.327 . S
C1555 C1559 1.429 . S
C1556 C1539 1.574 . S
C1556 H1550 0.949 . S
C1556 C1560 1.368 . S
C1557 C1538 1.429 . S
C1557 C1551 1.429 . S
C1557 C1558 1.523 . S
C1558 C1539 1.368 . S
C1558 C1552 1.368 . S
C1558 C1557 1.523 . S
C1559 C1543 1.429 . S
C1559 C1555 1.429 . S
C1559 C1560 1.523 . S
C1560 C1544 1.368 . S
C1560 C1556 1.368 . S
C1560 C1559 1.523 . S
H1561 C1536 0.950 . S
H1562 C1538 0.950 . S
H1563 C1539 0.949 . S
H1564 C1541 0.950 . S
H1565 C1543 0.950 . S
C1566 C1567 1.349 . S
C1566 C1568 1.327 . S
C1566 H1591 0.950 . S
C1567 C1566 1.349 . S
C1567 C1583 1.349 . S
C1568 C1566 1.327 . S
C1568 C1587 1.429 . S
C1568 H1592 0.950 . S
C1569 C1586 1.574 . S
C1569 C1588 1.368 . S
C1569 H1593 0.949 . S
H1570 C1574 0.949 . S
C1571 C1572 1.349 . S
C1571 C1573 1.327 . S
C1571 H1594 0.950 . S
C1572 C1571 1.349 . S
C1572 C1584 1.349 . S
C1573 C1571 1.327 . S
C1573 C1589 1.429 . S
C1573 H1595 0.950 . S
C1574 H1570 0.949 . S
C1574 C1582 1.574 . S
C1574 C1590 1.368 . S
H1575 C1583 0.950 . S
H1576 C1581 0.950 . S
H1577 C1582 0.949 . S
H1578 C1584 0.950 . S
H1579 C1585 0.950 . S
H1580 C1586 0.949 . S
C1581 H1576 0.950 . S
C1581 C1583 1.327 . S
C1581 C1587 1.429 . S
C1582 C1574 1.574 . S
C1582 H1577 0.949 . S
C1582 C1588 1.368 . S
C1583 C1567 1.349 . S
C1583 H1575 0.950 . S
C1583 C1581 1.327 . S
C1584 C1572 1.349 . S
C1584 H1578 0.950 . S
C1584 C1585 1.327 . S
C1585 H1579 0.950 . S
C1585 C1584 1.327 . S
C1585 C1589 1.429 . S
C1586 C1569 1.574 . S
C1586 H1580 0.949 . S
C1586 C1590 1.368 . S
C1587 C1568 1.429 . S
C1587 C1581 1.429 . S
C1587 C1588 1.523 . S
C1588 C1569 1.368 . S
C1588 C1582 1.368 . S
C1588 C1587 1.523 . S
C1589 C1573 1.429 . S
C1589 C1585 1.429 . S
C1589 C1590 1.523 . S
C1590 C1574 1.368 . S
C1590 C1586 1.368 . S
C1590 C1589 1.523 . S
H1591 C1566 0.950 . S
H1592 C1568 0.950 . S
H1593 C1569 0.949 . S
H1594 C1571 0.950 . S
H1595 C1573 0.950 . S
C1596 C1597 1.349 . S
C1596 C1598 1.327 . S
C1596 H1621 0.950 . S
C1597 C1596 1.349 . S
C1597 C1613 1.349 . S
C1598 C1596 1.327 . S
C1598 C1617 1.429 . S
C1598 H1622 0.950 . S
C1599 C1616 1.574 . S
C1599 C1618 1.368 . S
C1599 H1623 0.949 . S
H1600 C1604 0.949 . S
C1601 C1602 1.349 . S
C1601 C1603 1.327 . S
C1601 H1624 0.950 . S
C1602 C1601 1.349 . S
C1602 C1614 1.349 . S
C1603 C1601 1.327 . S
C1603 C1619 1.429 . S
C1603 H1625 0.950 . S
C1604 H1600 0.949 . S
C1604 C1612 1.574 . S
C1604 C1620 1.368 . S
H1605 C1613 0.950 . S
H1606 C1611 0.950 . S
H1607 C1612 0.949 . S
H1608 C1614 0.950 . S
H1609 C1615 0.950 . S
H1610 C1616 0.949 . S
C1611 H1606 0.950 . S
C1611 C1613 1.327 . S
C1611 C1617 1.429 . S
C1612 C1604 1.574 . S
C1612 H1607 0.949 . S
C1612 C1618 1.368 . S
C1613 C1597 1.349 . S
C1613 H1605 0.950 . S
C1613 C1611 1.327 . S
C1614 C1602 1.349 . S
C1614 H1608 0.950 . S
C1614 C1615 1.327 . S
C1615 H1609 0.950 . S
C1615 C1614 1.327 . S
C1615 C1619 1.429 . S
C1616 C1599 1.574 . S
C1616 H1610 0.949 . S
C1616 C1620 1.368 . S
C1617 C1598 1.429 . S
C1617 C1611 1.429 . S
C1617 C1618 1.523 . S
C1618 C1599 1.368 . S
C1618 C1612 1.368 . S
C1618 C1617 1.523 . S
C1619 C1603 1.429 . S
C1619 C1615 1.429 . S
C1619 C1620 1.523 . S
C1620 C1604 1.368 . S
C1620 C1616 1.368 . S
C1620 C1619 1.523 . S
H1621 C1596 0.950 . S
H1622 C1598 0.950 . S
H1623 C1599 0.949 . S
H1624 C1601 0.950 . S
H1625 C1603 0.950 . S
C1626 C1627 1.349 . S
C1626 C1628 1.327 . S
C1626 H1651 0.950 . S
C1627 C1626 1.349 . S
C1627 C1643 1.349 . S
C1628 C1626 1.327 . S
C1628 C1647 1.429 . S
C1628 H1652 0.950 . S
C1629 C1646 1.574 . S
C1629 C1648 1.368 . S
C1629 H1653 0.949 . S
H1630 C1634 0.949 . S
C1631 C1632 1.349 . S
C1631 C1633 1.327 . S
C1631 H1654 0.950 . S
C1632 C1631 1.349 . S
C1632 C1644 1.349 . S
C1633 C1631 1.327 . S
C1633 C1649 1.429 . S
C1633 H1655 0.950 . S
C1634 H1630 0.949 . S
C1634 C1642 1.574 . S
C1634 C1650 1.368 . S
H1635 C1643 0.950 . S
H1636 C1641 0.950 . S
H1637 C1642 0.949 . S
H1638 C1644 0.950 . S
H1639 C1645 0.950 . S
H1640 C1646 0.949 . S
C1641 H1636 0.950 . S
C1641 C1643 1.327 . S
C1641 C1647 1.429 . S
C1642 C1634 1.574 . S
C1642 H1637 0.949 . S
C1642 C1648 1.368 . S
C1643 C1627 1.349 . S
C1643 H1635 0.950 . S
C1643 C1641 1.327 . S
C1644 C1632 1.349 . S
C1644 H1638 0.950 . S
C1644 C1645 1.327 . S
C1645 H1639 0.950 . S
C1645 C1644 1.327 . S
C1645 C1649 1.429 . S
C1646 C1629 1.574 . S
C1646 H1640 0.949 . S
C1646 C1650 1.368 . S
C1647 C1628 1.429 . S
C1647 C1641 1.429 . S
C1647 C1648 1.523 . S
C1648 C1629 1.368 . S
C1648 C1642 1.368 . S
C1648 C1647 1.523 . S
C1649 C1633 1.429 . S
C1649 C1645 1.429 . S
C1649 C1650 1.523 . S
C1650 C1634 1.368 . S
C1650 C1646 1.368 . S
C1650 C1649 1.523 . S
H1651 C1626 0.950 . S
H1652 C1628 0.950 . S
H1653 C1629 0.949 . S
H1654 C1631 0.950 . S
H1655 C1633 0.950 . S
C1656 C1657 1.349 . S
C1656 C1658 1.327 . S
C1656 H1681 0.950 . S
C1657 C1656 1.349 . S
C1657 C1673 1.349 . S
C1658 C1656 1.327 . S
C1658 C1677 1.429 . S
C1658 H1682 0.950 . S
C1659 C1676 1.574 . S
C1659 C1678 1.368 . S
C1659 H1683 0.949 . S
H1660 C1664 0.949 . S
C1661 C1662 1.349 . S
C1661 C1663 1.327 . S
C1661 H1684 0.950 . S
C1662 C1661 1.349 . S
C1662 C1674 1.349 . S
C1663 C1661 1.327 . S
C1663 C1679 1.429 . S
C1663 H1685 0.950 . S
C1664 H1660 0.949 . S
C1664 C1672 1.574 . S
C1664 C1680 1.368 . S
H1665 C1673 0.950 . S
H1666 C1671 0.950 . S
H1667 C1672 0.949 . S
H1668 C1674 0.950 . S
H1669 C1675 0.950 . S
H1670 C1676 0.949 . S
C1671 H1666 0.950 . S
C1671 C1673 1.327 . S
C1671 C1677 1.429 . S
C1672 C1664 1.574 . S
C1672 H1667 0.949 . S
C1672 C1678 1.368 . S
C1673 C1657 1.349 . S
C1673 H1665 0.950 . S
C1673 C1671 1.327 . S
C1674 C1662 1.349 . S
C1674 H1668 0.950 . S
C1674 C1675 1.327 . S
C1675 H1669 0.950 . S
C1675 C1674 1.327 . S
C1675 C1679 1.429 . S
C1676 C1659 1.574 . S
C1676 H1670 0.949 . S
C1676 C1680 1.368 . S
C1677 C1658 1.429 . S
C1677 C1671 1.429 . S
C1677 C1678 1.523 . S
C1678 C1659 1.368 . S
C1678 C1672 1.368 . S
C1678 C1677 1.523 . S
C1679 C1663 1.429 . S
C1679 C1675 1.429 . S
C1679 C1680 1.523 . S
C1680 C1664 1.368 . S
C1680 C1676 1.368 . S
C1680 C1679 1.523 . S
H1681 C1656 0.950 . S
H1682 C1658 0.950 . S
H1683 C1659 0.949 . S
H1684 C1661 0.950 . S
H1685 C1663 0.950 . S
C1686 C1687 1.349 . S
C1686 C1688 1.327 . S
C1686 H1711 0.950 . S
C1687 C1686 1.349 . S
C1687 C1703 1.349 . S
C1688 C1686 1.327 . S
C1688 C1707 1.429 . S
C1688 H1712 0.950 . S
C1689 C1706 1.574 . S
C1689 C1708 1.368 . S
C1689 H1713 0.949 . S
H1690 C1694 0.949 . S
C1691 C1692 1.349 . S
C1691 C1693 1.327 . S
C1691 H1714 0.950 . S
C1692 C1691 1.349 . S
C1692 C1704 1.349 . S
C1693 C1691 1.327 . S
C1693 C1709 1.429 . S
C1693 H1715 0.950 . S
C1694 H1690 0.949 . S
C1694 C1702 1.574 . S
C1694 C1710 1.368 . S
H1695 C1703 0.950 . S
H1696 C1701 0.950 . S
H1697 C1702 0.949 . S
H1698 C1704 0.950 . S
H1699 C1705 0.950 . S
H1700 C1706 0.949 . S
C1701 H1696 0.950 . S
C1701 C1703 1.327 . S
C1701 C1707 1.429 . S
C1702 C1694 1.574 . S
C1702 H1697 0.949 . S
C1702 C1708 1.368 . S
C1703 C1687 1.349 . S
C1703 H1695 0.950 . S
C1703 C1701 1.327 . S
C1704 C1692 1.349 . S
C1704 H1698 0.950 . S
C1704 C1705 1.327 . S
C1705 H1699 0.950 . S
C1705 C1704 1.327 . S
C1705 C1709 1.429 . S
C1706 C1689 1.574 . S
C1706 H1700 0.949 . S
C1706 C1710 1.368 . S
C1707 C1688 1.429 . S
C1707 C1701 1.429 . S
C1707 C1708 1.523 . S
C1708 C1689 1.368 . S
C1708 C1702 1.368 . S
C1708 C1707 1.523 . S
C1709 C1693 1.429 . S
C1709 C1705 1.429 . S
C1709 C1710 1.523 . S
C1710 C1694 1.368 . S
C1710 C1706 1.368 . S
C1710 C1709 1.523 . S
H1711 C1686 0.950 . S
H1712 C1688 0.950 . S
H1713 C1689 0.949 . S
H1714 C1691 0.950 . S
H1715 C1693 0.950 . S
C1716 C1717 1.349 . S
C1716 C1718 1.327 . S
C1716 H1741 0.950 . S
C1717 C1716 1.349 . S
C1717 C1733 1.349 . S
C1718 C1716 1.327 . S
C1718 C1737 1.429 . S
C1718 H1742 0.950 . S
C1719 C1736 1.574 . S
C1719 C1738 1.368 . S
C1719 H1743 0.949 . S
H1720 C1724 0.949 . S
C1721 C1722 1.349 . S
C1721 C1723 1.327 . S
C1721 H1744 0.950 . S
C1722 C1721 1.349 . S
C1722 C1734 1.349 . S
C1723 C1721 1.327 . S
C1723 C1739 1.429 . S
C1723 H1745 0.950 . S
C1724 H1720 0.949 . S
C1724 C1732 1.574 . S
C1724 C1740 1.368 . S
H1725 C1733 0.950 . S
H1726 C1731 0.950 . S
H1727 C1732 0.949 . S
H1728 C1734 0.950 . S
H1729 C1735 0.950 . S
H1730 C1736 0.949 . S
C1731 H1726 0.950 . S
C1731 C1733 1.327 . S
C1731 C1737 1.429 . S
C1732 C1724 1.574 . S
C1732 H1727 0.949 . S
C1732 C1738 1.368 . S
C1733 C1717 1.349 . S
C1733 H1725 0.950 . S
C1733 C1731 1.327 . S
C1734 C1722 1.349 . S
C1734 H1728 0.950 . S
C1734 C1735 1.327 . S
C1735 H1729 0.950 . S
C1735 C1734 1.327 . S
C1735 C1739 1.429 . S
C1736 C1719 1.574 . S
C1736 H1730 0.949 . S
C1736 C1740 1.368 . S
C1737 C1718 1.429 . S
C1737 C1731 1.429 . S
C1737 C1738 1.523 . S
C1738 C1719 1.368 . S
C1738 C1732 1.368 . S
C1738 C1737 1.523 . S
C1739 C1723 1.429 . S
C1739 C1735 1.429 . S
C1739 C1740 1.523 . S
C1740 C1724 1.368 . S
C1740 C1736 1.368 . S
C1740 C1739 1.523 . S
H1741 C1716 0.950 . S
H1742 C1718 0.950 . S
H1743 C1719 0.949 . S
H1744 C1721 0.950 . S
H1745 C1723 0.950 . S
C1746 C1747 1.349 . S
C1746 C1748 1.327 . S
C1746 H1771 0.950 . S
C1747 C1746 1.349 . S
C1747 C1763 1.349 . S
C1748 C1746 1.327 . S
C1748 C1767 1.429 . S
C1748 H1772 0.950 . S
C1749 C1766 1.574 . S
C1749 C1768 1.368 . S
C1749 H1773 0.949 . S
H1750 C1754 0.949 . S
C1751 C1752 1.349 . S
C1751 C1753 1.327 . S
C1751 H1774 0.950 . S
C1752 C1751 1.349 . S
C1752 C1764 1.349 . S
C1753 C1751 1.327 . S
C1753 C1769 1.429 . S
C1753 H1775 0.950 . S
C1754 H1750 0.949 . S
C1754 C1762 1.574 . S
C1754 C1770 1.368 . S
H1755 C1763 0.950 . S
H1756 C1761 0.950 . S
H1757 C1762 0.949 . S
H1758 C1764 0.950 . S
H1759 C1765 0.950 . S
H1760 C1766 0.949 . S
C1761 H1756 0.950 . S
C1761 C1763 1.327 . S
C1761 C1767 1.429 . S
C1762 C1754 1.574 . S
C1762 H1757 0.949 . S
C1762 C1768 1.368 . S
C1763 C1747 1.349 . S
C1763 H1755 0.950 . S
C1763 C1761 1.327 . S
C1764 C1752 1.349 . S
C1764 H1758 0.950 . S
C1764 C1765 1.327 . S
C1765 H1759 0.950 . S
C1765 C1764 1.327 . S
C1765 C1769 1.429 . S
C1766 C1749 1.574 . S
C1766 H1760 0.949 . S
C1766 C1770 1.368 . S
C1767 C1748 1.429 . S
C1767 C1761 1.429 . S
C1767 C1768 1.523 . S
C1768 C1749 1.368 . S
C1768 C1762 1.368 . S
C1768 C1767 1.523 . S
C1769 C1753 1.429 . S
C1769 C1765 1.429 . S
C1769 C1770 1.523 . S
C1770 C1754 1.368 . S
C1770 C1766 1.368 . S
C1770 C1769 1.523 . S
H1771 C1746 0.950 . S
H1772 C1748 0.950 . S
H1773 C1749 0.949 . S
H1774 C1751 0.950 . S
H1775 C1753 0.950 . S
C1776 C1777 1.349 . S
C1776 C1778 1.327 . S
C1776 H1801 0.950 . S
C1777 C1776 1.349 . S
C1777 C1793 1.349 . S
C1778 C1776 1.327 . S
C1778 C1797 1.429 . S
C1778 H1802 0.950 . S
C1779 C1796 1.574 . S
C1779 C1798 1.368 . S
C1779 H1803 0.949 . S
H1780 C1784 0.949 . S
C1781 C1782 1.349 . S
C1781 C1783 1.327 . S
C1781 H1804 0.950 . S
C1782 C1781 1.349 . S
C1782 C1794 1.349 . S
C1783 C1781 1.327 . S
C1783 C1799 1.429 . S
C1783 H1805 0.950 . S
C1784 H1780 0.949 . S
C1784 C1792 1.574 . S
C1784 C1800 1.368 . S
H1785 C1793 0.950 . S
H1786 C1791 0.950 . S
H1787 C1792 0.949 . S
H1788 C1794 0.950 . S
H1789 C1795 0.950 . S
H1790 C1796 0.949 . S
C1791 H1786 0.950 . S
C1791 C1793 1.327 . S
C1791 C1797 1.429 . S
C1792 C1784 1.574 . S
C1792 H1787 0.949 . S
C1792 C1798 1.368 . S
C1793 C1777 1.349 . S
C1793 H1785 0.950 . S
C1793 C1791 1.327 . S
C1794 C1782 1.349 . S
C1794 H1788 0.950 . S
C1794 C1795 1.327 . S
C1795 H1789 0.950 . S
C1795 C1794 1.327 . S
C1795 C1799 1.429 . S
C1796 C1779 1.574 . S
C1796 H1790 0.949 . S
C1796 C1800 1.368 . S
C1797 C1778 1.429 . S
C1797 C1791 1.429 . S
C1797 C1798 1.523 . S
C1798 C1779 1.368 . S
C1798 C1792 1.368 . S
C1798 C1797 1.523 . S
C1799 C1783 1.429 . S
C1799 C1795 1.429 . S
C1799 C1800 1.523 . S
C1800 C1784 1.368 . S
C1800 C1796 1.368 . S
C1800 C1799 1.523 . S
H1801 C1776 0.950 . S
H1802 C1778 0.950 . S
H1803 C1779 0.949 . S
H1804 C1781 0.950 . S
H1805 C1783 0.950 . S
C1806 C1807 1.349 . S
C1806 C1808 1.327 . S
C1806 H1831 0.950 . S
C1807 C1806 1.349 . S
C1807 C1823 1.349 . S
C1808 C1806 1.327 . S
C1808 C1827 1.429 . S
C1808 H1832 0.950 . S
C1809 C1826 1.574 . S
C1809 C1828 1.368 . S
C1809 H1833 0.949 . S
H1810 C1814 0.949 . S
C1811 C1812 1.349 . S
C1811 C1813 1.327 . S
C1811 H1834 0.950 . S
C1812 C1811 1.349 . S
C1812 C1824 1.349 . S
C1813 C1811 1.327 . S
C1813 C1829 1.429 . S
C1813 H1835 0.950 . S
C1814 H1810 0.949 . S
C1814 C1822 1.574 . S
C1814 C1830 1.368 . S
H1815 C1823 0.950 . S
H1816 C1821 0.950 . S
H1817 C1822 0.949 . S
H1818 C1824 0.950 . S
H1819 C1825 0.950 . S
H1820 C1826 0.949 . S
C1821 H1816 0.950 . S
C1821 C1823 1.327 . S
C1821 C1827 1.429 . S
C1822 C1814 1.574 . S
C1822 H1817 0.949 . S
C1822 C1828 1.368 . S
C1823 C1807 1.349 . S
C1823 H1815 0.950 . S
C1823 C1821 1.327 . S
C1824 C1812 1.349 . S
C1824 H1818 0.950 . S
C1824 C1825 1.327 . S
C1825 H1819 0.950 . S
C1825 C1824 1.327 . S
C1825 C1829 1.429 . S
C1826 C1809 1.574 . S
C1826 H1820 0.949 . S
C1826 C1830 1.368 . S
C1827 C1808 1.429 . S
C1827 C1821 1.429 . S
C1827 C1828 1.523 . S
C1828 C1809 1.368 . S
C1828 C1822 1.368 . S
C1828 C1827 1.523 . S
C1829 C1813 1.429 . S
C1829 C1825 1.429 . S
C1829 C1830 1.523 . S
C1830 C1814 1.368 . S
C1830 C1826 1.368 . S
C1830 C1829 1.523 . S
H1831 C1806 0.950 . S
H1832 C1808 0.950 . S
H1833 C1809 0.949 . S
H1834 C1811 0.950 . S
H1835 C1813 0.950 . S
C1836 C1837 1.349 . S
C1836 C1838 1.327 . S
C1836 H1861 0.950 . S
C1837 C1836 1.349 . S
C1837 C1853 1.349 . S
C1838 C1836 1.327 . S
C1838 C1857 1.429 . S
C1838 H1862 0.950 . S
C1839 C1856 1.574 . S
C1839 C1858 1.368 . S
C1839 H1863 0.949 . S
H1840 C1844 0.949 . S
C1841 C1842 1.349 . S
C1841 C1843 1.327 . S
C1841 H1864 0.950 . S
C1842 C1841 1.349 . S
C1842 C1854 1.349 . S
C1843 C1841 1.327 . S
C1843 C1859 1.429 . S
C1843 H1865 0.950 . S
C1844 H1840 0.949 . S
C1844 C1852 1.574 . S
C1844 C1860 1.368 . S
H1845 C1853 0.950 . S
H1846 C1851 0.950 . S
H1847 C1852 0.949 . S
H1848 C1854 0.950 . S
H1849 C1855 0.950 . S
H1850 C1856 0.949 . S
C1851 H1846 0.950 . S
C1851 C1853 1.327 . S
C1851 C1857 1.429 . S
C1852 C1844 1.574 . S
C1852 H1847 0.949 . S
C1852 C1858 1.368 . S
C1853 C1837 1.349 . S
C1853 H1845 0.950 . S
C1853 C1851 1.327 . S
C1854 C1842 1.349 . S
C1854 H1848 0.950 . S
C1854 C1855 1.327 . S
C1855 H1849 0.950 . S
C1855 C1854 1.327 . S
C1855 C1859 1.429 . S
C1856 C1839 1.574 . S
C1856 H1850 0.949 . S
C1856 C1860 1.368 . S
C1857 C1838 1.429 . S
C1857 C1851 1.429 . S
C1857 C1858 1.523 . S
C1858 C1839 1.368 . S
C1858 C1852 1.368 . S
C1858 C1857 1.523 . S
C1859 C1843 1.429 . S
C1859 C1855 1.429 . S
C1859 C1860 1.523 . S
C1860 C1844 1.368 . S
C1860 C1856 1.368 . S
C1860 C1859 1.523 . S
H1861 C1836 0.950 . S
H1862 C1838 0.950 . S
H1863 C1839 0.949 . S
H1864 C1841 0.950 . S
H1865 C1843 0.950 . S
C1866 C1867 1.349 . S
C1866 C1868 1.327 . S
C1866 H1891 0.950 . S
C1867 C1866 1.349 . S
C1867 C1883 1.349 . S
C1868 C1866 1.327 . S
C1868 C1887 1.429 . S
C1868 H1892 0.950 . S
C1869 C1886 1.574 . S
C1869 C1888 1.368 . S
C1869 H1893 0.949 . S
H1870 C1874 0.949 . S
C1871 C1872 1.349 . S
C1871 C1873 1.327 . S
C1871 H1894 0.950 . S
C1872 C1871 1.349 . S
C1872 C1884 1.349 . S
C1873 C1871 1.327 . S
C1873 C1889 1.429 . S
C1873 H1895 0.950 . S
C1874 H1870 0.949 . S
C1874 C1882 1.574 . S
C1874 C1890 1.368 . S
H1875 C1883 0.950 . S
H1876 C1881 0.950 . S
H1877 C1882 0.949 . S
H1878 C1884 0.950 . S
H1879 C1885 0.950 . S
H1880 C1886 0.949 . S
C1881 H1876 0.950 . S
C1881 C1883 1.327 . S
C1881 C1887 1.429 . S
C1882 C1874 1.574 . S
C1882 H1877 0.949 . S
C1882 C1888 1.368 . S
C1883 C1867 1.349 . S
C1883 H1875 0.950 . S
C1883 C1881 1.327 . S
C1884 C1872 1.349 . S
C1884 H1878 0.950 . S
C1884 C1885 1.327 . S
C1885 H1879 0.950 . S
C1885 C1884 1.327 . S
C1885 C1889 1.429 . S
C1886 C1869 1.574 . S
C1886 H1880 0.949 . S
C1886 C1890 1.368 . S
C1887 C1868 1.429 . S
C1887 C1881 1.429 . S
C1887 C1888 1.523 . S
C1888 C1869 1.368 . S
C1888 C1882 1.368 . S
C1888 C1887 1.523 . S
C1889 C1873 1.429 . S
C1889 C1885 1.429 . S
C1889 C1890 1.523 . S
C1890 C1874 1.368 . S
C1890 C1886 1.368 . S
C1890 C1889 1.523 . S
H1891 C1866 0.950 . S
H1892 C1868 0.950 . S
H1893 C1869 0.949 . S
H1894 C1871 0.950 . S
H1895 C1873 0.950 . S
C1896 C1897 1.349 . S
C1896 C1898 1.327 . S
C1896 H1921 0.950 . S
C1897 C1896 1.349 . S
C1897 C1913 1.349 . S
C1898 C1896 1.327 . S
C1898 C1917 1.429 . S
C1898 H1922 0.950 . S
C1899 C1916 1.574 . S
C1899 C1918 1.368 . S
C1899 H1923 0.949 . S
H1900 C1904 0.949 . S
C1901 C1902 1.349 . S
C1901 C1903 1.327 . S
C1901 H1924 0.950 . S
C1902 C1901 1.349 . S
C1902 C1914 1.349 . S
C1903 C1901 1.327 . S
C1903 C1919 1.429 . S
C1903 H1925 0.950 . S
C1904 H1900 0.949 . S
C1904 C1912 1.574 . S
C1904 C1920 1.368 . S
H1905 C1913 0.950 . S
H1906 C1911 0.950 . S
H1907 C1912 0.949 . S
H1908 C1914 0.950 . S
H1909 C1915 0.950 . S
H1910 C1916 0.949 . S
C1911 H1906 0.950 . S
C1911 C1913 1.327 . S
C1911 C1917 1.429 . S
C1912 C1904 1.574 . S
C1912 H1907 0.949 . S
C1912 C1918 1.368 . S
C1913 C1897 1.349 . S
C1913 H1905 0.950 . S
C1913 C1911 1.327 . S
C1914 C1902 1.349 . S
C1914 H1908 0.950 . S
C1914 C1915 1.327 . S
C1915 H1909 0.950 . S
C1915 C1914 1.327 . S
C1915 C1919 1.429 . S
C1916 C1899 1.574 . S
C1916 H1910 0.949 . S
C1916 C1920 1.368 . S
C1917 C1898 1.429 . S
C1917 C1911 1.429 . S
C1917 C1918 1.523 . S
C1918 C1899 1.368 . S
C1918 C1912 1.368 . S
C1918 C1917 1.523 . S
C1919 C1903 1.429 . S
C1919 C1915 1.429 . S
C1919 C1920 1.523 . S
C1920 C1904 1.368 . S
C1920 C1916 1.368 . S
C1920 C1919 1.523 . S
H1921 C1896 0.950 . S
H1922 C1898 0.950 . S
H1923 C1899 0.949 . S
H1924 C1901 0.950 . S
H1925 C1903 0.950 . S
C1926 C1927 1.349 . S
C1926 C1928 1.327 . S
C1926 H1951 0.950 . S
C1927 C1926 1.349 . S
C1927 C1943 1.349 . S
C1928 C1926 1.327 . S
C1928 C1947 1.429 . S
C1928 H1952 0.950 . S
C1929 C1946 1.574 . S
C1929 C1948 1.368 . S
C1929 H1953 0.949 . S
H1930 C1934 0.949 . S
C1931 C1932 1.349 . S
C1931 C1933 1.327 . S
C1931 H1954 0.950 . S
C1932 C1931 1.349 . S
C1932 C1944 1.349 . S
C1933 C1931 1.327 . S
C1933 C1949 1.429 . S
C1933 H1955 0.950 . S
C1934 H1930 0.949 . S
C1934 C1942 1.574 . S
C1934 C1950 1.368 . S
H1935 C1943 0.950 . S
H1936 C1941 0.950 . S
H1937 C1942 0.949 . S
H1938 C1944 0.950 . S
H1939 C1945 0.950 . S
H1940 C1946 0.949 . S
C1941 H1936 0.950 . S
C1941 C1943 1.327 . S
C1941 C1947 1.429 . S
C1942 C1934 1.574 . S
C1942 H1937 0.949 . S
C1942 C1948 1.368 . S
C1943 C1927 1.349 . S
C1943 H1935 0.950 . S
C1943 C1941 1.327 . S
C1944 C1932 1.349 . S
C1944 H1938 0.950 . S
C1944 C1945 1.327 . S
C1945 H1939 0.950 . S
C1945 C1944 1.327 . S
C1945 C1949 1.429 . S
C1946 C1929 1.574 . S
C1946 H1940 0.949 . S
C1946 C1950 1.368 . S
C1947 C1928 1.429 . S
C1947 C1941 1.429 . S
C1947 C1948 1.523 . S
C1948 C1929 1.368 . S
C1948 C1942 1.368 . S
C1948 C1947 1.523 . S
C1949 C1933 1.429 . S
C1949 C1945 1.429 . S
C1949 C1950 1.523 . S
C1950 C1934 1.368 . S
C1950 C1946 1.368 . S
C1950 C1949 1.523 . S
H1951 C1926 0.950 . S
H1952 C1928 0.950 . S
H1953 C1929 0.949 . S
H1954 C1931 0.950 . S
H1955 C1933 0.950 . S
C1956 C1957 1.349 . S
C1956 C1958 1.327 . S
C1956 H1981 0.950 . S
C1957 C1956 1.349 . S
C1957 C1973 1.349 . S
C1958 C1956 1.327 . S
C1958 C1977 1.429 . S
C1958 H1982 0.950 . S
C1959 C1976 1.574 . S
C1959 C1978 1.368 . S
C1959 H1983 0.949 . S
H1960 C1964 0.949 . S
C1961 C1962 1.349 . S
C1961 C1963 1.327 . S
C1961 H1984 0.950 . S
C1962 C1961 1.349 . S
C1962 C1974 1.349 . S
C1963 C1961 1.327 . S
C1963 C1979 1.429 . S
C1963 H1985 0.950 . S
C1964 H1960 0.949 . S
C1964 C1972 1.574 . S
C1964 C1980 1.368 . S
H1965 C1973 0.950 . S
H1966 C1971 0.950 . S
H1967 C1972 0.949 . S
H1968 C1974 0.950 . S
H1969 C1975 0.950 . S
H1970 C1976 0.949 . S
C1971 H1966 0.950 . S
C1971 C1973 1.327 . S
C1971 C1977 1.429 . S
C1972 C1964 1.574 . S
C1972 H1967 0.949 . S
C1972 C1978 1.368 . S
C1973 C1957 1.349 . S
C1973 H1965 0.950 . S
C1973 C1971 1.327 . S
C1974 C1962 1.349 . S
C1974 H1968 0.950 . S
C1974 C1975 1.327 . S
C1975 H1969 0.950 . S
C1975 C1974 1.327 . S
C1975 C1979 1.429 . S
C1976 C1959 1.574 . S
C1976 H1970 0.949 . S
C1976 C1980 1.368 . S
C1977 C1958 1.429 . S
C1977 C1971 1.429 . S
C1977 C1978 1.523 . S
C1978 C1959 1.368 . S
C1978 C1972 1.368 . S
C1978 C1977 1.523 . S
C1979 C1963 1.429 . S
C1979 C1975 1.429 . S
C1979 C1980 1.523 . S
C1980 C1964 1.368 . S
C1980 C1976 1.368 . S
C1980 C1979 1.523 . S
H1981 C1956 0.950 . S
H1982 C1958 0.950 . S
H1983 C1959 0.949 . S
H1984 C1961 0.950 . S
H1985 C1963 0.950 . S
C1986 C1987 1.349 . S
C1986 C1988 1.327 . S
C1986 H2011 0.950 . S
C1987 C1986 1.349 . S
C1987 C2003 1.349 . S
C1988 C1986 1.327 . S
C1988 C2007 1.429 . S
C1988 H2012 0.950 . S
C1989 C2006 1.574 . S
C1989 C2008 1.368 . S
C1989 H2013 0.949 . S
H1990 C1994 0.949 . S
C1991 C1992 1.349 . S
C1991 C1993 1.327 . S
C1991 H2014 0.950 . S
C1992 C1991 1.349 . S
C1992 C2004 1.349 . S
C1993 C1991 1.327 . S
C1993 C2009 1.429 . S
C1993 H2015 0.950 . S
C1994 H1990 0.949 . S
C1994 C2002 1.574 . S
C1994 C2010 1.368 . S
H1995 C2003 0.950 . S
H1996 C2001 0.950 . S
H1997 C2002 0.949 . S
H1998 C2004 0.950 . S
H1999 C2005 0.950 . S
H2000 C2006 0.949 . S
C2001 H1996 0.950 . S
C2001 C2003 1.327 . S
C2001 C2007 1.429 . S
C2002 C1994 1.574 . S
C2002 H1997 0.949 . S
C2002 C2008 1.368 . S
C2003 C1987 1.349 . S
C2003 H1995 0.950 . S
C2003 C2001 1.327 . S
C2004 C1992 1.349 . S
C2004 H1998 0.950 . S
C2004 C2005 1.327 . S
C2005 H1999 0.950 . S
C2005 C2004 1.327 . S
C2005 C2009 1.429 . S
C2006 C1989 1.574 . S
C2006 H2000 0.949 . S
C2006 C2010 1.368 . S
C2007 C1988 1.429 . S
C2007 C2001 1.429 . S
C2007 C2008 1.523 . S
C2008 C1989 1.368 . S
C2008 C2002 1.368 . S
C2008 C2007 1.523 . S
C2009 C1993 1.429 . S
C2009 C2005 1.429 . S
C2009 C2010 1.523 . S
C2010 C1994 1.368 . S
C2010 C2006 1.368 . S
C2010 C2009 1.523 . S
H2011 C1986 0.950 . S
H2012 C1988 0.950 . S
H2013 C1989 0.949 . S
H2014 C1991 0.950 . S
H2015 C1993 0.950 . S
C2016 C2017 1.349 . S
C2016 C2018 1.327 . S
C2016 H2041 0.950 . S
C2017 C2016 1.349 . S
C2017 C2033 1.349 . S
C2018 C2016 1.327 . S
C2018 C2037 1.429 . S
C2018 H2042 0.950 . S
C2019 C2036 1.574 . S
C2019 C2038 1.368 . S
C2019 H2043 0.949 . S
H2020 C2024 0.949 . S
C2021 C2022 1.349 . S
C2021 C2023 1.327 . S
C2021 H2044 0.950 . S
C2022 C2021 1.349 . S
C2022 C2034 1.349 . S
C2023 C2021 1.327 . S
C2023 C2039 1.429 . S
C2023 H2045 0.950 . S
C2024 H2020 0.949 . S
C2024 C2032 1.574 . S
C2024 C2040 1.368 . S
H2025 C2033 0.950 . S
H2026 C2031 0.950 . S
H2027 C2032 0.949 . S
H2028 C2034 0.950 . S
H2029 C2035 0.950 . S
H2030 C2036 0.949 . S
C2031 H2026 0.950 . S
C2031 C2033 1.327 . S
C2031 C2037 1.429 . S
C2032 C2024 1.574 . S
C2032 H2027 0.949 . S
C2032 C2038 1.368 . S
C2033 C2017 1.349 . S
C2033 H2025 0.950 . S
C2033 C2031 1.327 . S
C2034 C2022 1.349 . S
C2034 H2028 0.950 . S
C2034 C2035 1.327 . S
C2035 H2029 0.950 . S
C2035 C2034 1.327 . S
C2035 C2039 1.429 . S
C2036 C2019 1.574 . S
C2036 H2030 0.949 . S
C2036 C2040 1.368 . S
C2037 C2018 1.429 . S
C2037 C2031 1.429 . S
C2037 C2038 1.523 . S
C2038 C2019 1.368 . S
C2038 C2032 1.368 . S
C2038 C2037 1.523 . S
C2039 C2023 1.429 . S
C2039 C2035 1.429 . S
C2039 C2040 1.523 . S
C2040 C2024 1.368 . S
C2040 C2036 1.368 . S
C2040 C2039 1.523 . S
H2041 C2016 0.950 . S
H2042 C2018 0.950 . S
H2043 C2019 0.949 . S
H2044 C2021 0.950 . S
H2045 C2023 0.950 . S
C2046 C2047 1.349 . S
C2046 C2048 1.327 . S
C2046 H2071 0.950 . S
C2047 C2046 1.349 . S
C2047 C2063 1.349 . S
C2048 C2046 1.327 . S
C2048 C2067 1.429 . S
C2048 H2072 0.950 . S
C2049 C2066 1.574 . S
C2049 C2068 1.368 . S
C2049 H2073 0.949 . S
H2050 C2054 0.949 . S
C2051 C2052 1.349 . S
C2051 C2053 1.327 . S
C2051 H2074 0.950 . S
C2052 C2051 1.349 . S
C2052 C2064 1.349 . S
C2053 C2051 1.327 . S
C2053 C2069 1.429 . S
C2053 H2075 0.950 . S
C2054 H2050 0.949 . S
C2054 C2062 1.574 . S
C2054 C2070 1.368 . S
H2055 C2063 0.950 . S
H2056 C2061 0.950 . S
H2057 C2062 0.949 . S
H2058 C2064 0.950 . S
H2059 C2065 0.950 . S
H2060 C2066 0.949 . S
C2061 H2056 0.950 . S
C2061 C2063 1.327 . S
C2061 C2067 1.429 . S
C2062 C2054 1.574 . S
C2062 H2057 0.949 . S
C2062 C2068 1.368 . S
C2063 C2047 1.349 . S
C2063 H2055 0.950 . S
C2063 C2061 1.327 . S
C2064 C2052 1.349 . S
C2064 H2058 0.950 . S
C2064 C2065 1.327 . S
C2065 H2059 0.950 . S
C2065 C2064 1.327 . S
C2065 C2069 1.429 . S
C2066 C2049 1.574 . S
C2066 H2060 0.949 . S
C2066 C2070 1.368 . S
C2067 C2048 1.429 . S
C2067 C2061 1.429 . S
C2067 C2068 1.523 . S
C2068 C2049 1.368 . S
C2068 C2062 1.368 . S
C2068 C2067 1.523 . S
C2069 C2053 1.429 . S
C2069 C2065 1.429 . S
C2069 C2070 1.523 . S
C2070 C2054 1.368 . S
C2070 C2066 1.368 . S
C2070 C2069 1.523 . S
H2071 C2046 0.950 . S
H2072 C2048 0.950 . S
H2073 C2049 0.949 . S
H2074 C2051 0.950 . S
H2075 C2053 0.950 . S
C2076 C2077 1.349 . S
C2076 C2078 1.327 . S
C2076 H2101 0.950 . S
C2077 C2076 1.349 . S
C2077 C2093 1.349 . S
C2078 C2076 1.327 . S
C2078 C2097 1.429 . S
C2078 H2102 0.950 . S
C2079 C2096 1.574 . S
C2079 C2098 1.368 . S
C2079 H2103 0.949 . S
H2080 C2084 0.949 . S
C2081 C2082 1.349 . S
C2081 C2083 1.327 . S
C2081 H2104 0.950 . S
C2082 C2081 1.349 . S
C2082 C2094 1.349 . S
C2083 C2081 1.327 . S
C2083 C2099 1.429 . S
C2083 H2105 0.950 . S
C2084 H2080 0.949 . S
C2084 C2092 1.574 . S
C2084 C2100 1.368 . S
H2085 C2093 0.950 . S
H2086 C2091 0.950 . S
H2087 C2092 0.949 . S
H2088 C2094 0.950 . S
H2089 C2095 0.950 . S
H2090 C2096 0.949 . S
C2091 H2086 0.950 . S
C2091 C2093 1.327 . S
C2091 C2097 1.429 . S
C2092 C2084 1.574 . S
C2092 H2087 0.949 . S
C2092 C2098 1.368 . S
C2093 C2077 1.349 . S
C2093 H2085 0.950 . S
C2093 C2091 1.327 . S
C2094 C2082 1.349 . S
C2094 H2088 0.950 . S
C2094 C2095 1.327 . S
C2095 H2089 0.950 . S
C2095 C2094 1.327 . S
C2095 C2099 1.429 . S
C2096 C2079 1.574 . S
C2096 H2090 0.949 . S
C2096 C2100 1.368 . S
C2097 C2078 1.429 . S
C2097 C2091 1.429 . S
C2097 C2098 1.523 . S
C2098 C2079 1.368 . S
C2098 C2092 1.368 . S
C2098 C2097 1.523 . S
C2099 C2083 1.429 . S
C2099 C2095 1.429 . S
C2099 C2100 1.523 . S
C2100 C2084 1.368 . S
C2100 C2096 1.368 . S
C2100 C2099 1.523 . S
H2101 C2076 0.950 . S
H2102 C2078 0.950 . S
H2103 C2079 0.949 . S
H2104 C2081 0.950 . S
H2105 C2083 0.950 . S
C2106 C2107 1.349 . S
C2106 C2108 1.327 . S
C2106 H2131 0.950 . S
C2107 C2106 1.349 . S
C2107 C2123 1.349 . S
C2108 C2106 1.327 . S
C2108 C2127 1.429 . S
C2108 H2132 0.950 . S
C2109 C2126 1.574 . S
C2109 C2128 1.368 . S
C2109 H2133 0.949 . S
H2110 C2114 0.949 . S
C2111 C2112 1.349 . S
C2111 C2113 1.327 . S
C2111 H2134 0.950 . S
C2112 C2111 1.349 . S
C2112 C2124 1.349 . S
C2113 C2111 1.327 . S
C2113 C2129 1.429 . S
C2113 H2135 0.950 . S
C2114 H2110 0.949 . S
C2114 C2122 1.574 . S
C2114 C2130 1.368 . S
H2115 C2123 0.950 . S
H2116 C2121 0.950 . S
H2117 C2122 0.949 . S
H2118 C2124 0.950 . S
H2119 C2125 0.950 . S
H2120 C2126 0.949 . S
C2121 H2116 0.950 . S
C2121 C2123 1.327 . S
C2121 C2127 1.429 . S
C2122 C2114 1.574 . S
C2122 H2117 0.949 . S
C2122 C2128 1.368 . S
C2123 C2107 1.349 . S
C2123 H2115 0.950 . S
C2123 C2121 1.327 . S
C2124 C2112 1.349 . S
C2124 H2118 0.950 . S
C2124 C2125 1.327 . S
C2125 H2119 0.950 . S
C2125 C2124 1.327 . S
C2125 C2129 1.429 . S
C2126 C2109 1.574 . S
C2126 H2120 0.949 . S
C2126 C2130 1.368 . S
C2127 C2108 1.429 . S
C2127 C2121 1.429 . S
C2127 C2128 1.523 . S
C2128 C2109 1.368 . S
C2128 C2122 1.368 . S
C2128 C2127 1.523 . S
C2129 C2113 1.429 . S
C2129 C2125 1.429 . S
C2129 C2130 1.523 . S
C2130 C2114 1.368 . S
C2130 C2126 1.368 . S
C2130 C2129 1.523 . S
H2131 C2106 0.950 . S
H2132 C2108 0.950 . S
H2133 C2109 0.949 . S
H2134 C2111 0.950 . S
H2135 C2113 0.950 . S
C2136 C2137 1.349 . S
C2136 C2138 1.327 . S
C2136 H2161 0.950 . S
C2137 C2136 1.349 . S
C2137 C2153 1.349 . S
C2138 C2136 1.327 . S
C2138 C2157 1.429 . S
C2138 H2162 0.950 . S
C2139 C2156 1.574 . S
C2139 C2158 1.368 . S
C2139 H2163 0.949 . S
H2140 C2144 0.949 . S
C2141 C2142 1.349 . S
C2141 C2143 1.327 . S
C2141 H2164 0.950 . S
C2142 C2141 1.349 . S
C2142 C2154 1.349 . S
C2143 C2141 1.327 . S
C2143 C2159 1.429 . S
C2143 H2165 0.950 . S
C2144 H2140 0.949 . S
C2144 C2152 1.574 . S
C2144 C2160 1.368 . S
H2145 C2153 0.950 . S
H2146 C2151 0.950 . S
H2147 C2152 0.949 . S
H2148 C2154 0.950 . S
H2149 C2155 0.950 . S
H2150 C2156 0.949 . S
C2151 H2146 0.950 . S
C2151 C2153 1.327 . S
C2151 C2157 1.429 . S
C2152 C2144 1.574 . S
C2152 H2147 0.949 . S
C2152 C2158 1.368 . S
C2153 C2137 1.349 . S
C2153 H2145 0.950 . S
C2153 C2151 1.327 . S
C2154 C2142 1.349 . S
C2154 H2148 0.950 . S
C2154 C2155 1.327 . S
C2155 H2149 0.950 . S
C2155 C2154 1.327 . S
C2155 C2159 1.429 . S
C2156 C2139 1.574 . S
C2156 H2150 0.949 . S
C2156 C2160 1.368 . S
C2157 C2138 1.429 . S
C2157 C2151 1.429 . S
C2157 C2158 1.523 . S
C2158 C2139 1.368 . S
C2158 C2152 1.368 . S
C2158 C2157 1.523 . S
C2159 C2143 1.429 . S
C2159 C2155 1.429 . S
C2159 C2160 1.523 . S
C2160 C2144 1.368 . S
C2160 C2156 1.368 . S
C2160 C2159 1.523 . S
H2161 C2136 0.950 . S
H2162 C2138 0.950 . S
H2163 C2139 0.949 . S
H2164 C2141 0.950 . S
H2165 C2143 0.950 . S
C2166 C2167 1.349 . S
C2166 C2168 1.327 . S
C2166 H2191 0.950 . S
C2167 C2166 1.349 . S
C2167 C2183 1.349 . S
C2168 C2166 1.327 . S
C2168 C2187 1.429 . S
C2168 H2192 0.950 . S
C2169 C2186 1.574 . S
C2169 C2188 1.368 . S
C2169 H2193 0.949 . S
H2170 C2174 0.949 . S
C2171 C2172 1.349 . S
C2171 C2173 1.327 . S
C2171 H2194 0.950 . S
C2172 C2171 1.349 . S
C2172 C2184 1.349 . S
C2173 C2171 1.327 . S
C2173 C2189 1.429 . S
C2173 H2195 0.950 . S
C2174 H2170 0.949 . S
C2174 C2182 1.574 . S
C2174 C2190 1.368 . S
H2175 C2183 0.950 . S
H2176 C2181 0.950 . S
H2177 C2182 0.949 . S
H2178 C2184 0.950 . S
H2179 C2185 0.950 . S
H2180 C2186 0.949 . S
C2181 H2176 0.950 . S
C2181 C2183 1.327 . S
C2181 C2187 1.429 . S
C2182 C2174 1.574 . S
C2182 H2177 0.949 . S
C2182 C2188 1.368 . S
C2183 C2167 1.349 . S
C2183 H2175 0.950 . S
C2183 C2181 1.327 . S
C2184 C2172 1.349 . S
C2184 H2178 0.950 . S
C2184 C2185 1.327 . S
C2185 H2179 0.950 . S
C2185 C2184 1.327 . S
C2185 C2189 1.429 . S
C2186 C2169 1.574 . S
C2186 H2180 0.949 . S
C2186 C2190 1.368 . S
C2187 C2168 1.429 . S
C2187 C2181 1.429 . S
C2187 C2188 1.523 . S
C2188 C2169 1.368 . S
C2188 C2182 1.368 . S
C2188 C2187 1.523 . S
C2189 C2173 1.429 . S
C2189 C2185 1.429 . S
C2189 C2190 1.523 . S
C2190 C2174 1.368 . S
C2190 C2186 1.368 . S
C2190 C2189 1.523 . S
H2191 C2166 0.950 . S
H2192 C2168 0.950 . S
H2193 C2169 0.949 . S
H2194 C2171 0.950 . S
H2195 C2173 0.950 . S
C2196 C2197 1.349 . S
C2196 C2198 1.327 . S
C2196 H2221 0.950 . S
C2197 C2196 1.349 . S
C2197 C2213 1.349 . S
C2198 C2196 1.327 . S
C2198 C2217 1.429 . S
C2198 H2222 0.950 . S
C2199 C2216 1.574 . S
C2199 C2218 1.368 . S
C2199 H2223 0.949 . S
H2200 C2204 0.949 . S
C2201 C2202 1.349 . S
C2201 C2203 1.327 . S
C2201 H2224 0.950 . S
C2202 C2201 1.349 . S
C2202 C2214 1.349 . S
C2203 C2201 1.327 . S
C2203 C2219 1.429 . S
C2203 H2225 0.950 . S
C2204 H2200 0.949 . S
C2204 C2212 1.574 . S
C2204 C2220 1.368 . S
H2205 C2213 0.950 . S
H2206 C2211 0.950 . S
H2207 C2212 0.949 . S
H2208 C2214 0.950 . S
H2209 C2215 0.950 . S
H2210 C2216 0.949 . S
C2211 H2206 0.950 . S
C2211 C2213 1.327 . S
C2211 C2217 1.429 . S
C2212 C2204 1.574 . S
C2212 H2207 0.949 . S
C2212 C2218 1.368 . S
C2213 C2197 1.349 . S
C2213 H2205 0.950 . S
C2213 C2211 1.327 . S
C2214 C2202 1.349 . S
C2214 H2208 0.950 . S
C2214 C2215 1.327 . S
C2215 H2209 0.950 . S
C2215 C2214 1.327 . S
C2215 C2219 1.429 . S
C2216 C2199 1.574 . S
C2216 H2210 0.949 . S
C2216 C2220 1.368 . S
C2217 C2198 1.429 . S
C2217 C2211 1.429 . S
C2217 C2218 1.523 . S
C2218 C2199 1.368 . S
C2218 C2212 1.368 . S
C2218 C2217 1.523 . S
C2219 C2203 1.429 . S
C2219 C2215 1.429 . S
C2219 C2220 1.523 . S
C2220 C2204 1.368 . S
C2220 C2216 1.368 . S
C2220 C2219 1.523 . S
H2221 C2196 0.950 . S
H2222 C2198 0.950 . S
H2223 C2199 0.949 . S
H2224 C2201 0.950 . S
H2225 C2203 0.950 . S
C2226 C2227 1.349 . S
C2226 C2228 1.327 . S
C2226 H2251 0.950 . S
C2227 C2226 1.349 . S
C2227 C2243 1.349 . S
C2228 C2226 1.327 . S
C2228 C2247 1.429 . S
C2228 H2252 0.950 . S
C2229 C2246 1.574 . S
C2229 C2248 1.368 . S
C2229 H2253 0.949 . S
H2230 C2234 0.949 . S
C2231 C2232 1.349 . S
C2231 C2233 1.327 . S
C2231 H2254 0.950 . S
C2232 C2231 1.349 . S
C2232 C2244 1.349 . S
C2233 C2231 1.327 . S
C2233 C2249 1.429 . S
C2233 H2255 0.950 . S
C2234 H2230 0.949 . S
C2234 C2242 1.574 . S
C2234 C2250 1.368 . S
H2235 C2243 0.950 . S
H2236 C2241 0.950 . S
H2237 C2242 0.949 . S
H2238 C2244 0.950 . S
H2239 C2245 0.950 . S
H2240 C2246 0.949 . S
C2241 H2236 0.950 . S
C2241 C2243 1.327 . S
C2241 C2247 1.429 . S
C2242 C2234 1.574 . S
C2242 H2237 0.949 . S
C2242 C2248 1.368 . S
C2243 C2227 1.349 . S
C2243 H2235 0.950 . S
C2243 C2241 1.327 . S
C2244 C2232 1.349 . S
C2244 H2238 0.950 . S
C2244 C2245 1.327 . S
C2245 H2239 0.950 . S
C2245 C2244 1.327 . S
C2245 C2249 1.429 . S
C2246 C2229 1.574 . S
C2246 H2240 0.949 . S
C2246 C2250 1.368 . S
C2247 C2228 1.429 . S
C2247 C2241 1.429 . S
C2247 C2248 1.523 . S
C2248 C2229 1.368 . S
C2248 C2242 1.368 . S
C2248 C2247 1.523 . S
C2249 C2233 1.429 . S
C2249 C2245 1.429 . S
C2249 C2250 1.523 . S
C2250 C2234 1.368 . S
C2250 C2246 1.368 . S
C2250 C2249 1.523 . S
H2251 C2226 0.950 . S
H2252 C2228 0.950 . S
H2253 C2229 0.949 . S
H2254 C2231 0.950 . S
H2255 C2233 0.950 . S
C2256 C2257 1.349 . S
C2256 C2258 1.327 . S
C2256 H2281 0.950 . S
C2257 C2256 1.349 . S
C2257 C2273 1.349 . S
C2258 C2256 1.327 . S
C2258 C2277 1.429 . S
C2258 H2282 0.950 . S
C2259 C2276 1.574 . S
C2259 C2278 1.368 . S
C2259 H2283 0.949 . S
H2260 C2264 0.949 . S
C2261 C2262 1.349 . S
C2261 C2263 1.327 . S
C2261 H2284 0.950 . S
C2262 C2261 1.349 . S
C2262 C2274 1.349 . S
C2263 C2261 1.327 . S
C2263 C2279 1.429 . S
C2263 H2285 0.950 . S
C2264 H2260 0.949 . S
C2264 C2272 1.574 . S
C2264 C2280 1.368 . S
H2265 C2273 0.950 . S
H2266 C2271 0.950 . S
H2267 C2272 0.949 . S
H2268 C2274 0.950 . S
H2269 C2275 0.950 . S
H2270 C2276 0.949 . S
C2271 H2266 0.950 . S
C2271 C2273 1.327 . S
C2271 C2277 1.429 . S
C2272 C2264 1.574 . S
C2272 H2267 0.949 . S
C2272 C2278 1.368 . S
C2273 C2257 1.349 . S
C2273 H2265 0.950 . S
C2273 C2271 1.327 . S
C2274 C2262 1.349 . S
C2274 H2268 0.950 . S
C2274 C2275 1.327 . S
C2275 H2269 0.950 . S
C2275 C2274 1.327 . S
C2275 C2279 1.429 . S
C2276 C2259 1.574 . S
C2276 H2270 0.949 . S
C2276 C2280 1.368 . S
C2277 C2258 1.429 . S
C2277 C2271 1.429 . S
C2277 C2278 1.523 . S
C2278 C2259 1.368 . S
C2278 C2272 1.368 . S
C2278 C2277 1.523 . S
C2279 C2263 1.429 . S
C2279 C2275 1.429 . S
C2279 C2280 1.523 . S
C2280 C2264 1.368 . S
C2280 C2276 1.368 . S
C2280 C2279 1.523 . S
H2281 C2256 0.950 . S
H2282 C2258 0.950 . S
H2283 C2259 0.949 . S
H2284 C2261 0.950 . S
H2285 C2263 0.950 . S
C2286 C2287 1.349 . S
C2286 C2288 1.327 . S
C2286 H2311 0.950 . S
C2287 C2286 1.349 . S
C2287 C2303 1.349 . S
C2288 C2286 1.327 . S
C2288 C2307 1.429 . S
C2288 H2312 0.950 . S
C2289 C2306 1.574 . S
C2289 C2308 1.368 . S
C2289 H2313 0.949 . S
H2290 C2294 0.949 . S
C2291 C2292 1.349 . S
C2291 C2293 1.327 . S
C2291 H2314 0.950 . S
C2292 C2291 1.349 . S
C2292 C2304 1.349 . S
C2293 C2291 1.327 . S
C2293 C2309 1.429 . S
C2293 H2315 0.950 . S
C2294 H2290 0.949 . S
C2294 C2302 1.574 . S
C2294 C2310 1.368 . S
H2295 C2303 0.950 . S
H2296 C2301 0.950 . S
H2297 C2302 0.949 . S
H2298 C2304 0.950 . S
H2299 C2305 0.950 . S
H2300 C2306 0.949 . S
C2301 H2296 0.950 . S
C2301 C2303 1.327 . S
C2301 C2307 1.429 . S
C2302 C2294 1.574 . S
C2302 H2297 0.949 . S
C2302 C2308 1.368 . S
C2303 C2287 1.349 . S
C2303 H2295 0.950 . S
C2303 C2301 1.327 . S
C2304 C2292 1.349 . S
C2304 H2298 0.950 . S
C2304 C2305 1.327 . S
C2305 H2299 0.950 . S
C2305 C2304 1.327 . S
C2305 C2309 1.429 . S
C2306 C2289 1.574 . S
C2306 H2300 0.949 . S
C2306 C2310 1.368 . S
C2307 C2288 1.429 . S
C2307 C2301 1.429 . S
C2307 C2308 1.523 . S
C2308 C2289 1.368 . S
C2308 C2302 1.368 . S
C2308 C2307 1.523 . S
C2309 C2293 1.429 . S
C2309 C2305 1.429 . S
C2309 C2310 1.523 . S
C2310 C2294 1.368 . S
C2310 C2306 1.368 . S
C2310 C2309 1.523 . S
H2311 C2286 0.950 . S
H2312 C2288 0.950 . S
H2313 C2289 0.949 . S
H2314 C2291 0.950 . S
H2315 C2293 0.950 . S
C2316 C2317 1.349 . S
C2316 C2318 1.327 . S
C2316 H2341 0.950 1_556 S
C2317 C2316 1.349 . S
C2317 C2333 1.349 . S
C2318 C2316 1.327 . S
C2318 C2337 1.429 . S
C2318 H2342 0.950 . S
C2319 C2336 1.574 . S
C2319 C2338 1.368 . S
C2319 H2343 0.949 . S
H2320 C2324 0.949 . S
C2321 C2322 1.349 . S
C2321 C2323 1.327 . S
C2321 H2344 0.950 . S
C2322 C2321 1.349 . S
C2322 C2334 1.349 . S
C2323 C2321 1.327 . S
C2323 C2339 1.429 . S
C2323 H2345 0.950 . S
C2324 H2320 0.949 . S
C2324 C2332 1.574 . S
C2324 C2340 1.368 . S
H2325 C2333 0.950 . S
H2326 C2331 0.950 . S
H2327 C2332 0.949 . S
H2328 C2334 0.950 . S
H2329 C2335 0.950 . S
H2330 C2336 0.949 . S
C2331 H2326 0.950 . S
C2331 C2333 1.327 . S
C2331 C2337 1.429 . S
C2332 C2324 1.574 . S
C2332 H2327 0.949 . S
C2332 C2338 1.368 . S
C2333 C2317 1.349 . S
C2333 H2325 0.950 . S
C2333 C2331 1.327 . S
C2334 C2322 1.349 . S
C2334 H2328 0.950 . S
C2334 C2335 1.327 . S
C2335 H2329 0.950 . S
C2335 C2334 1.327 . S
C2335 C2339 1.429 . S
C2336 C2319 1.574 . S
C2336 H2330 0.949 . S
C2336 C2340 1.368 . S
C2337 C2318 1.429 . S
C2337 C2331 1.429 . S
C2337 C2338 1.523 . S
C2338 C2319 1.368 . S
C2338 C2332 1.368 . S
C2338 C2337 1.523 . S
C2339 C2323 1.429 . S
C2339 C2335 1.429 . S
C2339 C2340 1.523 . S
C2340 C2324 1.368 . S
C2340 C2336 1.368 . S
C2340 C2339 1.523 . S
H2341 C2316 0.950 1_554 S
H2342 C2318 0.950 . S
H2343 C2319 0.949 . S
H2344 C2321 0.950 . S
H2345 C2323 0.950 . S
C2346 C2347 1.349 . S
C2346 C2348 1.327 . S
C2346 H2371 0.950 1_556 S
C2347 C2346 1.349 . S
C2347 C2363 1.349 . S
C2348 C2346 1.327 . S
C2348 C2367 1.429 . S
C2348 H2372 0.950 . S
C2349 C2366 1.574 . S
C2349 C2368 1.368 . S
C2349 H2373 0.949 . S
H2350 C2354 0.949 . S
C2351 C2352 1.349 . S
C2351 C2353 1.327 . S
C2351 H2374 0.950 . S
C2352 C2351 1.349 . S
C2352 C2364 1.349 . S
C2353 C2351 1.327 . S
C2353 C2369 1.429 . S
C2353 H2375 0.950 . S
C2354 H2350 0.949 . S
C2354 C2362 1.574 . S
C2354 C2370 1.368 . S
H2355 C2363 0.950 . S
H2356 C2361 0.950 . S
H2357 C2362 0.949 . S
H2358 C2364 0.950 . S
H2359 C2365 0.950 . S
H2360 C2366 0.949 . S
C2361 H2356 0.950 . S
C2361 C2363 1.327 . S
C2361 C2367 1.429 . S
C2362 C2354 1.574 . S
C2362 H2357 0.949 . S
C2362 C2368 1.368 . S
C2363 C2347 1.349 . S
C2363 H2355 0.950 . S
C2363 C2361 1.327 . S
C2364 C2352 1.349 . S
C2364 H2358 0.950 . S
C2364 C2365 1.327 . S
C2365 H2359 0.950 . S
C2365 C2364 1.327 . S
C2365 C2369 1.429 . S
C2366 C2349 1.574 . S
C2366 H2360 0.949 . S
C2366 C2370 1.368 . S
C2367 C2348 1.429 . S
C2367 C2361 1.429 . S
C2367 C2368 1.523 . S
C2368 C2349 1.368 . S
C2368 C2362 1.368 . S
C2368 C2367 1.523 . S
C2369 C2353 1.429 . S
C2369 C2365 1.429 . S
C2369 C2370 1.523 . S
C2370 C2354 1.368 . S
C2370 C2366 1.368 . S
C2370 C2369 1.523 . S
H2371 C2346 0.950 1_554 S
H2372 C2348 0.950 . S
H2373 C2349 0.949 . S
H2374 C2351 0.950 . S
H2375 C2353 0.950 . S
C2376 C2377 1.349 . S
C2376 C2378 1.327 . S
C2376 H2401 0.950 . S
C2377 C2376 1.349 . S
C2377 C2393 1.349 . S
C2378 C2376 1.327 . S
C2378 C2397 1.429 . S
C2378 H2402 0.950 . S
C2379 C2396 1.574 . S
C2379 C2398 1.368 . S
C2379 H2403 0.949 . S
H2380 C2384 0.949 . S
C2381 C2382 1.349 . S
C2381 C2383 1.327 . S
C2381 H2404 0.950 . S
C2382 C2381 1.349 . S
C2382 C2394 1.349 . S
C2383 C2381 1.327 . S
C2383 C2399 1.429 . S
C2383 H2405 0.950 . S
C2384 H2380 0.949 . S
C2384 C2392 1.574 . S
C2384 C2400 1.368 . S
H2385 C2393 0.950 . S
H2386 C2391 0.950 . S
H2387 C2392 0.949 . S
H2388 C2394 0.950 . S
H2389 C2395 0.950 . S
H2390 C2396 0.949 . S
C2391 H2386 0.950 . S
C2391 C2393 1.327 . S
C2391 C2397 1.429 . S
C2392 C2384 1.574 . S
C2392 H2387 0.949 . S
C2392 C2398 1.368 . S
C2393 C2377 1.349 . S
C2393 H2385 0.950 . S
C2393 C2391 1.327 . S
C2394 C2382 1.349 . S
C2394 H2388 0.950 . S
C2394 C2395 1.327 . S
C2395 H2389 0.950 . S
C2395 C2394 1.327 . S
C2395 C2399 1.429 . S
C2396 C2379 1.574 . S
C2396 H2390 0.949 . S
C2396 C2400 1.368 . S
C2397 C2378 1.429 . S
C2397 C2391 1.429 . S
C2397 C2398 1.523 . S
C2398 C2379 1.368 . S
C2398 C2392 1.368 . S
C2398 C2397 1.523 . S
C2399 C2383 1.429 . S
C2399 C2395 1.429 . S
C2399 C2400 1.523 . S
C2400 C2384 1.368 . S
C2400 C2396 1.368 . S
C2400 C2399 1.523 . S
H2401 C2376 0.950 . S
H2402 C2378 0.950 . S
H2403 C2379 0.949 . S
H2404 C2381 0.950 . S
H2405 C2383 0.950 . S
C2406 C2407 1.349 . S
C2406 C2408 1.327 . S
C2406 H2431 0.950 . S
C2407 C2406 1.349 . S
C2407 C2423 1.349 . S
C2408 C2406 1.327 . S
C2408 C2427 1.429 . S
C2408 H2432 0.950 . S
C2409 C2426 1.574 . S
C2409 C2428 1.368 . S
C2409 H2433 0.949 . S
H2410 C2414 0.949 . S
C2411 C2412 1.349 . S
C2411 C2413 1.327 . S
C2411 H2434 0.950 . S
C2412 C2411 1.349 . S
C2412 C2424 1.349 . S
C2413 C2411 1.327 . S
C2413 C2429 1.429 . S
C2413 H2435 0.950 . S
C2414 H2410 0.949 . S
C2414 C2422 1.574 . S
C2414 C2430 1.368 . S
H2415 C2423 0.987 . S
H2416 C2421 0.950 . S
H2417 C2422 0.949 . S
H2418 C2424 0.950 . S
H2419 C2425 0.950 . S
H2420 C2426 0.949 . S
C2421 H2416 0.950 . S
C2421 C2423 1.327 . S
C2421 C2427 1.429 . S
C2422 C2414 1.574 . S
C2422 H2417 0.949 . S
C2422 C2428 1.368 . S
C2423 C2407 1.349 . S
C2423 H2415 0.987 . S
C2423 C2421 1.327 . S
C2424 C2412 1.349 . S
C2424 H2418 0.950 . S
C2424 C2425 1.327 . S
C2425 H2419 0.950 . S
C2425 C2424 1.327 . S
C2425 C2429 1.429 . S
C2426 C2409 1.574 . S
C2426 H2420 0.949 . S
C2426 C2430 1.368 . S
C2427 C2408 1.429 . S
C2427 C2421 1.429 . S
C2427 C2428 1.523 . S
C2428 C2409 1.368 . S
C2428 C2422 1.368 . S
C2428 C2427 1.523 . S
C2429 C2413 1.429 . S
C2429 C2425 1.429 . S
C2429 C2430 1.523 . S
C2430 C2414 1.368 . S
C2430 C2426 1.368 . S
C2430 C2429 1.523 . S
H2431 C2406 0.950 . S
H2432 C2408 0.950 . S
H2433 C2409 0.949 . S
H2434 C2411 0.950 . S
H2435 C2413 0.950 . S
C2436 C2437 1.349 . S
C2436 C2438 1.327 . S
C2436 H2461 0.950 . S
C2437 C2436 1.349 . S
C2437 C2453 1.349 . S
C2438 C2436 1.327 . S
C2438 C2457 1.429 . S
C2438 H2462 0.950 . S
C2439 C2456 1.574 . S
C2439 C2458 1.368 . S
C2439 H2463 0.949 . S
H2440 C2444 0.949 . S
C2441 C2442 1.349 . S
C2441 C2443 1.327 . S
C2441 H2464 0.950 . S
C2442 C2441 1.349 . S
C2442 C2454 1.349 . S
C2443 C2441 1.327 . S
C2443 C2459 1.429 . S
C2443 H2465 0.950 . S
C2444 H2440 0.949 . S
C2444 C2452 1.574 . S
C2444 C2460 1.368 . S
H2445 C2453 0.950 1_554 S
H2446 C2451 0.950 . S
H2447 C2452 0.949 . S
H2448 C2454 0.950 . S
H2449 C2455 0.950 . S
H2450 C2456 0.949 . S
C2451 H2446 0.950 . S
C2451 C2453 1.327 . S
C2451 C2457 1.429 . S
C2452 C2444 1.574 . S
C2452 H2447 0.949 . S
C2452 C2458 1.368 . S
C2453 C2437 1.349 . S
C2453 H2445 0.950 1_556 S
C2453 C2451 1.327 . S
C2454 C2442 1.349 . S
C2454 H2448 0.950 . S
C2454 C2455 1.327 . S
C2455 H2449 0.950 . S
C2455 C2454 1.327 . S
C2455 C2459 1.429 . S
C2456 C2439 1.574 . S
C2456 H2450 0.949 . S
C2456 C2460 1.368 . S
C2457 C2438 1.429 . S
C2457 C2451 1.429 . S
C2457 C2458 1.523 . S
C2458 C2439 1.368 . S
C2458 C2452 1.368 . S
C2458 C2457 1.523 . S
C2459 C2443 1.429 . S
C2459 C2455 1.429 . S
C2459 C2460 1.523 . S
C2460 C2444 1.368 . S
C2460 C2456 1.368 . S
C2460 C2459 1.523 . S
H2461 C2436 0.950 . S
H2462 C2438 0.950 . S
H2463 C2439 0.949 . S
H2464 C2441 0.950 . S
H2465 C2443 0.950 . S
C2466 C2467 1.349 . S
C2466 C2468 1.327 . S
C2466 H2491 0.950 . S
C2467 C2466 1.349 . S
C2467 C2483 1.349 . S
C2468 C2466 1.327 . S
C2468 C2487 1.429 . S
C2468 H2492 0.950 . S
C2469 C2486 1.574 . S
C2469 C2488 1.368 . S
C2469 H2493 0.949 . S
H2470 C2474 0.949 . S
C2471 C2472 1.349 . S
C2471 C2473 1.327 . S
C2471 H2494 0.950 . S
C2472 C2471 1.349 . S
C2472 C2484 1.349 . S
C2473 C2471 1.327 . S
C2473 C2489 1.429 . S
C2473 H2495 0.950 . S
C2474 H2470 0.949 . S
C2474 C2482 1.574 . S
C2474 C2490 1.368 . S
H2475 C2483 0.950 . S
H2476 C2481 0.950 . S
H2477 C2482 0.949 . S
H2478 C2484 0.950 . S
H2479 C2485 0.950 . S
H2480 C2486 0.949 . S
C2481 H2476 0.950 . S
C2481 C2483 1.327 . S
C2481 C2487 1.429 . S
C2482 C2474 1.574 . S
C2482 H2477 0.949 . S
C2482 C2488 1.368 . S
C2483 C2467 1.349 . S
C2483 H2475 0.950 . S
C2483 C2481 1.327 . S
C2484 C2472 1.349 . S
C2484 H2478 0.950 . S
C2484 C2485 1.327 . S
C2485 H2479 0.950 . S
C2485 C2484 1.327 . S
C2485 C2489 1.429 . S
C2486 C2469 1.574 . S
C2486 H2480 0.949 . S
C2486 C2490 1.368 . S
C2487 C2468 1.429 . S
C2487 C2481 1.429 . S
C2487 C2488 1.523 . S
C2488 C2469 1.368 . S
C2488 C2482 1.368 . S
C2488 C2487 1.523 . S
C2489 C2473 1.429 . S
C2489 C2485 1.429 . S
C2489 C2490 1.523 . S
C2490 C2474 1.368 . S
C2490 C2486 1.368 . S
C2490 C2489 1.523 . S
H2491 C2466 0.950 . S
H2492 C2468 0.950 . S
H2493 C2469 0.949 . S
H2494 C2471 0.950 . S
H2495 C2473 0.950 . S
C2496 C2497 1.349 . S
C2496 C2498 1.327 . S
C2496 H2521 0.950 . S
C2497 C2496 1.349 . S
C2497 C2513 1.349 . S
C2498 C2496 1.327 . S
C2498 C2517 1.429 . S
C2498 H2522 0.950 . S
C2499 C2516 1.574 . S
C2499 C2518 1.368 . S
C2499 H2523 0.949 . S
H2500 C2504 0.949 . S
C2501 C2502 1.349 . S
C2501 C2503 1.327 . S
C2501 H2524 0.950 . S
C2502 C2501 1.349 . S
C2502 C2514 1.349 . S
C2503 C2501 1.327 . S
C2503 C2519 1.429 . S
C2503 H2525 0.950 . S
C2504 H2500 0.949 . S
C2504 C2512 1.574 . S
C2504 C2520 1.368 . S
H2505 C2513 0.950 . S
H2506 C2511 0.950 . S
H2507 C2512 0.949 . S
H2508 C2514 0.950 . S
H2509 C2515 0.950 . S
H2510 C2516 0.949 . S
C2511 H2506 0.950 . S
C2511 C2513 1.327 . S
C2511 C2517 1.429 . S
C2512 C2504 1.574 . S
C2512 H2507 0.949 . S
C2512 C2518 1.368 . S
C2513 C2497 1.349 . S
C2513 H2505 0.950 . S
C2513 C2511 1.327 . S
C2514 C2502 1.349 . S
C2514 H2508 0.950 . S
C2514 C2515 1.327 . S
C2515 H2509 0.950 . S
C2515 C2514 1.327 . S
C2515 C2519 1.429 . S
C2516 C2499 1.574 . S
C2516 H2510 0.949 . S
C2516 C2520 1.368 . S
C2517 C2498 1.429 . S
C2517 C2511 1.429 . S
C2517 C2518 1.523 . S
C2518 C2499 1.368 . S
C2518 C2512 1.368 . S
C2518 C2517 1.523 . S
C2519 C2503 1.429 . S
C2519 C2515 1.429 . S
C2519 C2520 1.523 . S
C2520 C2504 1.368 . S
C2520 C2516 1.368 . S
C2520 C2519 1.523 . S
H2521 C2496 0.950 . S
H2522 C2498 0.950 . S
H2523 C2499 0.949 . S
H2524 C2501 0.950 . S
H2525 C2503 0.950 . S
C2526 C2527 1.349 . S
C2526 C2528 1.327 . S
C2526 H2551 0.950 . S
C2527 C2526 1.349 . S
C2527 C2543 1.349 . S
C2528 C2526 1.327 . S
C2528 C2547 1.429 . S
C2528 H2552 0.950 . S
C2529 C2546 1.574 . S
C2529 C2548 1.368 . S
C2529 H2553 0.949 . S
H2530 C2534 0.949 . S
C2531 C2532 1.349 . S
C2531 C2533 1.327 . S
C2531 H2554 0.950 . S
C2532 C2531 1.349 . S
C2532 C2544 1.349 . S
C2533 C2531 1.327 . S
C2533 C2549 1.429 . S
C2533 H2555 0.950 . S
C2534 H2530 0.949 . S
C2534 C2542 1.574 . S
C2534 C2550 1.368 . S
H2535 C2543 0.950 . S
H2536 C2541 0.950 . S
H2537 C2542 0.949 . S
H2538 C2544 0.950 . S
H2539 C2545 0.950 . S
H2540 C2546 0.949 . S
C2541 H2536 0.950 . S
C2541 C2543 1.327 . S
C2541 C2547 1.429 . S
C2542 C2534 1.574 . S
C2542 H2537 0.949 . S
C2542 C2548 1.368 . S
C2543 C2527 1.349 . S
C2543 H2535 0.950 . S
C2543 C2541 1.327 . S
C2544 C2532 1.349 . S
C2544 H2538 0.950 . S
C2544 C2545 1.327 . S
C2545 H2539 0.950 . S
C2545 C2544 1.327 . S
C2545 C2549 1.429 . S
C2546 C2529 1.574 . S
C2546 H2540 0.949 . S
C2546 C2550 1.368 . S
C2547 C2528 1.429 . S
C2547 C2541 1.429 . S
C2547 C2548 1.523 . S
C2548 C2529 1.368 . S
C2548 C2542 1.368 . S
C2548 C2547 1.523 . S
C2549 C2533 1.429 . S
C2549 C2545 1.429 . S
C2549 C2550 1.523 . S
C2550 C2534 1.368 . S
C2550 C2546 1.368 . S
C2550 C2549 1.523 . S
H2551 C2526 0.950 . S
H2552 C2528 0.950 . S
H2553 C2529 0.949 . S
H2554 C2531 0.950 . S
H2555 C2533 0.950 . S
C2556 C2557 1.349 . S
C2556 C2558 1.327 . S
C2556 H2581 0.950 . S
C2557 C2556 1.349 . S
C2557 C2573 1.349 . S
C2558 C2556 1.327 . S
C2558 C2577 1.429 . S
C2558 H2582 0.950 . S
C2559 C2576 1.574 . S
C2559 C2578 1.368 . S
C2559 H2583 0.949 . S
H2560 C2564 0.949 . S
C2561 C2562 1.349 . S
C2561 C2563 1.327 . S
C2561 H2584 0.950 . S
C2562 C2561 1.349 . S
C2562 C2574 1.349 . S
C2563 C2561 1.327 . S
C2563 C2579 1.429 . S
C2563 H2585 0.950 . S
C2564 H2560 0.949 . S
C2564 C2572 1.574 . S
C2564 C2580 1.368 . S
H2565 C2573 0.950 . S
H2566 C2571 0.950 . S
H2567 C2572 0.949 . S
H2568 C2574 0.950 . S
H2569 C2575 0.950 . S
H2570 C2576 0.949 . S
C2571 H2566 0.950 . S
C2571 C2573 1.327 . S
C2571 C2577 1.429 . S
C2572 C2564 1.574 . S
C2572 H2567 0.949 . S
C2572 C2578 1.368 . S
C2573 C2557 1.349 . S
C2573 H2565 0.950 . S
C2573 C2571 1.327 . S
C2574 C2562 1.349 . S
C2574 H2568 0.950 . S
C2574 C2575 1.327 . S
C2575 H2569 0.950 . S
C2575 C2574 1.327 . S
C2575 C2579 1.429 . S
C2576 C2559 1.574 . S
C2576 H2570 0.949 . S
C2576 C2580 1.368 . S
C2577 C2558 1.429 . S
C2577 C2571 1.429 . S
C2577 C2578 1.523 . S
C2578 C2559 1.368 . S
C2578 C2572 1.368 . S
C2578 C2577 1.523 . S
C2579 C2563 1.429 . S
C2579 C2575 1.429 . S
C2579 C2580 1.523 . S
C2580 C2564 1.368 . S
C2580 C2576 1.368 . S
C2580 C2579 1.523 . S
H2581 C2556 0.950 . S
H2582 C2558 0.950 . S
H2583 C2559 0.949 . S
H2584 C2561 0.950 . S
H2585 C2563 0.950 . S
C2586 C2587 1.349 . S
C2586 C2588 1.327 . S
C2586 H2611 0.950 . S
C2587 C2586 1.349 . S
C2587 C2603 1.349 . S
C2588 C2586 1.327 . S
C2588 C2607 1.429 . S
C2588 H2612 0.950 . S
C2589 C2606 1.574 . S
C2589 C2608 1.368 . S
C2589 H2613 0.949 . S
H2590 C2594 0.949 . S
C2591 C2592 1.349 . S
C2591 C2593 1.327 . S
C2591 H2614 0.950 . S
C2592 C2591 1.349 . S
C2592 C2604 1.349 . S
C2593 C2591 1.327 . S
C2593 C2609 1.429 . S
C2593 H2615 0.950 . S
C2594 H2590 0.949 . S
C2594 C2602 1.574 . S
C2594 C2610 1.368 . S
H2595 C2603 0.950 . S
H2596 C2601 0.950 . S
H2597 C2602 0.949 . S
H2598 C2604 0.950 . S
H2599 C2605 0.950 . S
H2600 C2606 0.949 . S
C2601 H2596 0.950 . S
C2601 C2603 1.327 . S
C2601 C2607 1.429 . S
C2602 C2594 1.574 . S
C2602 H2597 0.949 . S
C2602 C2608 1.368 . S
C2603 C2587 1.349 . S
C2603 H2595 0.950 . S
C2603 C2601 1.327 . S
C2604 C2592 1.349 . S
C2604 H2598 0.950 . S
C2604 C2605 1.327 . S
C2605 H2599 0.950 . S
C2605 C2604 1.327 . S
C2605 C2609 1.429 . S
C2606 C2589 1.574 . S
C2606 H2600 0.949 . S
C2606 C2610 1.368 . S
C2607 C2588 1.429 . S
C2607 C2601 1.429 . S
C2607 C2608 1.523 . S
C2608 C2589 1.368 . S
C2608 C2602 1.368 . S
C2608 C2607 1.523 . S
C2609 C2593 1.429 . S
C2609 C2605 1.429 . S
C2609 C2610 1.523 . S
C2610 C2594 1.368 . S
C2610 C2606 1.368 . S
C2610 C2609 1.523 . S
H2611 C2586 0.950 . S
H2612 C2588 0.950 . S
H2613 C2589 0.949 . S
H2614 C2591 0.950 . S
H2615 C2593 0.950 . S
C2616 C2617 1.349 . S
C2616 C2618 1.327 . S
C2616 H2641 0.950 . S
C2617 C2616 1.349 . S
C2617 C2633 1.349 . S
C2618 C2616 1.327 . S
C2618 C2637 1.429 . S
C2618 H2642 0.950 . S
C2619 C2636 1.574 . S
C2619 C2638 1.368 . S
C2619 H2643 0.949 . S
H2620 C2624 0.949 . S
C2621 C2622 1.349 . S
C2621 C2623 1.327 . S
C2621 H2644 0.950 . S
C2622 C2621 1.349 . S
C2622 C2634 1.349 . S
C2623 C2621 1.327 . S
C2623 C2639 1.429 . S
C2623 H2645 0.950 . S
C2624 H2620 0.949 . S
C2624 C2632 1.574 . S
C2624 C2640 1.368 . S
H2625 C2633 0.950 . S
H2626 C2631 0.950 . S
H2627 C2632 0.949 . S
H2628 C2634 0.950 . S
H2629 C2635 0.950 . S
H2630 C2636 0.949 . S
C2631 H2626 0.950 . S
C2631 C2633 1.327 . S
C2631 C2637 1.429 . S
C2632 C2624 1.574 . S
C2632 H2627 0.949 . S
C2632 C2638 1.368 . S
C2633 C2617 1.349 . S
C2633 H2625 0.950 . S
C2633 C2631 1.327 . S
C2634 C2622 1.349 . S
C2634 H2628 0.950 . S
C2634 C2635 1.327 . S
C2635 H2629 0.950 . S
C2635 C2634 1.327 . S
C2635 C2639 1.429 . S
C2636 C2619 1.574 . S
C2636 H2630 0.949 . S
C2636 C2640 1.368 . S
C2637 C2618 1.429 . S
C2637 C2631 1.429 . S
C2637 C2638 1.523 . S
C2638 C2619 1.368 . S
C2638 C2632 1.368 . S
C2638 C2637 1.523 . S
C2639 C2623 1.429 . S
C2639 C2635 1.429 . S
C2639 C2640 1.523 . S
C2640 C2624 1.368 . S
C2640 C2636 1.368 . S
C2640 C2639 1.523 . S
H2641 C2616 0.950 . S
H2642 C2618 0.950 . S
H2643 C2619 0.949 . S
H2644 C2621 0.950 . S
H2645 C2623 0.950 . S
C2646 C2647 1.349 . S
C2646 C2648 1.327 . S
C2646 H2671 0.950 1_455 S
C2647 C2646 1.349 . S
C2647 C2663 1.349 . S
C2648 C2646 1.327 . S
C2648 C2667 1.429 . S
C2648 H2672 0.950 1_455 S
C2649 C2666 1.574 . S
C2649 C2668 1.368 . S
C2649 H2673 0.949 . S
H2650 C2654 0.949 . S
C2651 C2652 1.349 . S
C2651 C2653 1.327 . S
C2651 H2674 0.950 . S
C2652 C2651 1.349 . S
C2652 C2664 1.349 1_455 S
C2653 C2651 1.327 . S
C2653 C2669 1.429 . S
C2653 H2675 0.950 . S
C2654 H2650 0.949 . S
C2654 C2662 1.574 . S
C2654 C2670 1.368 1_655 S
H2655 C2663 0.950 . S
H2656 C2661 0.950 . S
H2657 C2662 0.949 . S
H2658 C2664 0.950 . S
H2659 C2665 0.950 . S
H2660 C2666 0.949 . S
C2661 H2656 0.950 . S
C2661 C2663 1.327 . S
C2661 C2667 1.429 . S
C2662 C2654 1.574 . S
C2662 H2657 0.949 . S
C2662 C2668 1.368 1_655 S
C2663 C2647 1.349 . S
C2663 H2655 0.950 . S
C2663 C2661 1.327 . S
C2664 C2652 1.349 1_655 S
C2664 H2658 0.950 . S
C2664 C2665 1.327 . S
C2665 H2659 0.950 . S
C2665 C2664 1.327 . S
C2665 C2669 1.429 1_655 S
C2666 C2649 1.574 . S
C2666 H2660 0.949 . S
C2666 C2670 1.368 . S
C2667 C2648 1.429 . S
C2667 C2661 1.429 . S
C2667 C2668 1.523 . S
C2668 C2649 1.368 . S
C2668 C2662 1.368 1_455 S
C2668 C2667 1.523 . S
C2669 C2653 1.429 . S
C2669 C2665 1.429 1_455 S
C2669 C2670 1.523 . S
C2670 C2654 1.368 1_455 S
C2670 C2666 1.368 . S
C2670 C2669 1.523 . S
H2671 C2646 0.950 1_655 S
H2672 C2648 0.950 1_655 S
H2673 C2649 0.949 . S
H2674 C2651 0.950 . S
H2675 C2653 0.950 . S
C2676 C2677 1.349 . S
C2676 C2678 1.327 . S
C2676 H2701 0.950 . S
C2677 C2676 1.349 . S
C2677 C2693 1.349 . S
C2678 C2676 1.327 . S
C2678 C2697 1.429 . S
C2678 H2702 0.950 . S
C2679 C2696 1.574 . S
C2679 C2698 1.368 . S
C2679 H2703 0.949 . S
H2680 C2684 0.949 . S
C2681 C2682 1.349 . S
C2681 C2683 1.327 . S
C2681 H2704 0.950 . S
C2682 C2681 1.349 . S
C2682 C2694 1.349 . S
C2683 C2681 1.327 . S
C2683 C2699 1.429 . S
C2683 H2705 0.950 . S
C2684 H2680 0.949 . S
C2684 C2692 1.574 . S
C2684 C2700 1.368 . S
H2685 C2693 0.950 . S
H2686 C2691 0.950 . S
H2687 C2692 0.949 . S
H2688 C2694 0.950 . S
H2689 C2695 0.950 . S
H2690 C2696 0.949 . S
C2691 H2686 0.950 . S
C2691 C2693 1.327 . S
C2691 C2697 1.429 . S
C2692 C2684 1.574 . S
C2692 H2687 0.949 . S
C2692 C2698 1.368 . S
C2693 C2677 1.349 . S
C2693 H2685 0.950 . S
C2693 C2691 1.327 . S
C2694 C2682 1.349 . S
C2694 H2688 0.950 . S
C2694 C2695 1.327 . S
C2695 H2689 0.950 . S
C2695 C2694 1.327 . S
C2695 C2699 1.429 . S
C2696 C2679 1.574 . S
C2696 H2690 0.949 . S
C2696 C2700 1.368 . S
C2697 C2678 1.429 . S
C2697 C2691 1.429 . S
C2697 C2698 1.523 . S
C2698 C2679 1.368 . S
C2698 C2692 1.368 . S
C2698 C2697 1.523 . S
C2699 C2683 1.429 . S
C2699 C2695 1.429 . S
C2699 C2700 1.523 . S
C2700 C2684 1.368 . S
C2700 C2696 1.368 . S
C2700 C2699 1.523 . S
H2701 C2676 0.950 . S
H2702 C2678 0.950 . S
H2703 C2679 0.949 . S
H2704 C2681 0.950 . S
H2705 C2683 0.950 . S
C2706 C2707 1.349 . S
C2706 C2708 1.327 . S
C2706 H2731 0.950 . S
C2707 C2706 1.349 . S
C2707 C2723 1.349 1_565 S
C2708 C2706 1.327 . S
C2708 C2727 1.429 . S
C2708 H2732 0.950 . S
C2709 C2726 1.574 . S
C2709 C2728 1.368 1_545 S
C2709 H2733 0.949 . S
H2710 C2714 0.949 . S
C2711 C2712 1.349 1_545 S
C2711 C2713 1.327 . S
C2711 H2734 0.950 . S
C2712 C2711 1.349 1_565 S
C2712 C2724 1.349 . S
C2713 C2711 1.327 . S
C2713 C2729 1.429 1_545 S
C2713 H2735 0.950 . S
C2714 H2710 0.949 . S
C2714 C2722 1.574 . S
C2714 C2730 1.368 . S
H2715 C2723 0.950 . S
H2716 C2721 0.950 . S
H2717 C2722 0.949 . S
H2718 C2724 0.950 . S
H2719 C2725 0.950 . S
H2720 C2726 0.949 . S
C2721 H2716 0.950 . S
C2721 C2723 1.327 . S
C2721 C2727 1.429 1_545 S
C2722 C2714 1.574 . S
C2722 H2717 0.949 . S
C2722 C2728 1.368 . S
C2723 C2707 1.349 1_545 S
C2723 H2715 0.950 . S
C2723 C2721 1.327 . S
C2724 C2712 1.349 . S
C2724 H2718 0.950 . S
C2724 C2725 1.327 . S
C2725 H2719 0.950 . S
C2725 C2724 1.327 . S
C2725 C2729 1.429 . S
C2726 C2709 1.574 . S
C2726 H2720 0.949 . S
C2726 C2730 1.368 1_545 S
C2727 C2708 1.429 . S
C2727 C2721 1.429 1_565 S
C2727 C2728 1.523 . S
C2728 C2709 1.368 1_565 S
C2728 C2722 1.368 . S
C2728 C2727 1.523 . S
C2729 C2713 1.429 1_565 S
C2729 C2725 1.429 . S
C2729 C2730 1.523 . S
C2730 C2714 1.368 . S
C2730 C2726 1.368 1_565 S
C2730 C2729 1.523 . S
H2731 C2706 0.950 . S
H2732 C2708 0.950 . S
H2733 C2709 0.949 . S
H2734 C2711 0.950 . S
H2735 C2713 0.950 . S
C2736 C2737 1.349 . S
C2736 C2738 1.327 . S
C2736 H2761 0.950 . S
C2737 C2736 1.349 . S
C2737 C2753 1.332 1_565 S
C2738 C2736 1.327 . S
C2738 C2757 1.429 . S
C2738 H2762 0.950 . S
C2739 C2756 1.574 . S
C2739 C2758 1.368 1_545 S
C2739 H2763 0.949 . S
H2740 C2744 0.949 . S
C2741 C2742 1.349 1_545 S
C2741 C2743 1.327 . S
C2741 H2764 0.950 . S
C2742 C2741 1.349 1_565 S
C2742 C2754 1.349 . S
C2743 C2741 1.327 . S
C2743 C2759 1.429 1_545 S
C2743 H2765 0.950 . S
C2744 H2740 0.949 . S
C2744 C2752 1.574 . S
C2744 C2760 1.368 . S
H2745 C2753 0.955 . S
H2746 C2751 0.950 . S
H2747 C2752 0.949 . S
H2748 C2754 0.950 . S
H2749 C2755 0.950 . S
H2750 C2756 0.949 . S
C2751 H2746 0.950 . S
C2751 C2753 1.339 . S
C2751 C2757 1.429 1_545 S
C2752 C2744 1.574 . S
C2752 H2747 0.949 . S
C2752 C2758 1.368 . S
C2753 C2737 1.332 1_545 S
C2753 H2745 0.955 . S
C2753 C2751 1.339 . S
C2754 C2742 1.349 . S
C2754 H2748 0.950 . S
C2754 C2755 1.327 . S
C2755 H2749 0.950 . S
C2755 C2754 1.327 . S
C2755 C2759 1.429 . S
C2756 C2739 1.574 . S
C2756 H2750 0.949 . S
C2756 C2760 1.368 1_545 S
C2757 C2738 1.429 . S
C2757 C2751 1.429 1_565 S
C2757 C2758 1.523 . S
C2758 C2739 1.368 1_565 S
C2758 C2752 1.368 . S
C2758 C2757 1.523 . S
C2759 C2743 1.429 1_565 S
C2759 C2755 1.429 . S
C2759 C2760 1.523 . S
C2760 C2744 1.368 . S
C2760 C2756 1.368 1_565 S
C2760 C2759 1.523 . S
H2761 C2736 0.950 . S
H2762 C2738 0.950 . S
H2763 C2739 0.949 . S
H2764 C2741 0.950 . S
H2765 C2743 0.950 . S
C2766 C2767 1.328 1_655 S
C2766 C2768 1.311 . S
C2766 H2791 0.989 . S
C2767 C2766 1.328 1_455 S
C2767 C2783 1.349 . S
C2768 C2766 1.311 . S
C2768 C2787 1.429 1_655 S
C2768 H2792 0.950 . S
C2769 C2786 1.574 . S
C2769 C2788 1.368 . S
C2769 H2793 0.949 . S
H2770 C2774 0.949 . S
C2771 C2772 1.349 . S
C2771 C2773 1.327 . S
C2771 H2794 0.950 . S
C2772 C2771 1.349 . S
C2772 C2784 1.349 1_455 S
C2773 C2771 1.327 . S
C2773 C2789 1.429 . S
C2773 H2795 0.950 . S
C2774 H2770 0.949 . S
C2774 C2782 1.574 . S
C2774 C2790 1.368 1_655 S
H2775 C2783 0.950 . S
H2776 C2781 0.950 . S
H2777 C2782 0.949 . S
H2778 C2784 0.950 . S
H2779 C2785 0.950 . S
H2780 C2786 0.949 . S
C2781 H2776 0.950 . S
C2781 C2783 1.327 . S
C2781 C2787 1.429 . S
C2782 C2774 1.574 . S
C2782 H2777 0.949 . S
C2782 C2788 1.368 1_655 S
C2783 C2767 1.349 . S
C2783 H2775 0.950 . S
C2783 C2781 1.327 . S
C2784 C2772 1.349 1_655 S
C2784 H2778 0.950 . S
C2784 C2785 1.327 . S
C2785 H2779 0.950 . S
C2785 C2784 1.327 . S
C2785 C2789 1.429 1_655 S
C2786 C2769 1.574 . S
C2786 H2780 0.949 . S
C2786 C2790 1.368 . S
C2787 C2768 1.429 1_455 S
C2787 C2781 1.429 . S
C2787 C2788 1.523 . S
C2788 C2769 1.368 . S
C2788 C2782 1.368 1_455 S
C2788 C2787 1.523 . S
C2789 C2773 1.429 . S
C2789 C2785 1.429 1_455 S
C2789 C2790 1.523 . S
C2790 C2774 1.368 1_455 S
C2790 C2786 1.368 . S
C2790 C2789 1.523 . S
H2791 C2766 0.989 . S
H2792 C2768 0.950 . S
H2793 C2769 0.949 . S
H2794 C2771 0.950 . S
H2795 C2773 0.950 . S
C2796 C2797 1.349 . S
C2796 C2798 1.327 . S
C2796 H2821 0.950 . S
C2797 C2796 1.349 . S
C2797 C2813 1.349 . S
C2798 C2796 1.327 . S
C2798 C2817 1.429 . S
C2798 H2822 0.950 . S
C2799 C2816 1.574 . S
C2799 C2818 1.368 . S
C2799 H2823 0.949 . S
H2800 C2804 0.949 . S
C2801 C2802 1.349 . S
C2801 C2803 1.327 . S
C2801 H2824 0.950 . S
C2802 C2801 1.349 . S
C2802 C2814 1.349 . S
C2803 C2801 1.327 . S
C2803 C2819 1.429 . S
C2803 H2825 0.950 . S
C2804 H2800 0.949 . S
C2804 C2812 1.574 . S
C2804 C2820 1.368 . S
H2805 C2813 0.950 . S
H2806 C2811 0.950 . S
H2807 C2812 0.949 . S
H2808 C2814 0.950 . S
H2809 C2815 0.950 . S
H2810 C2816 0.949 . S
C2811 H2806 0.950 . S
C2811 C2813 1.327 . S
C2811 C2817 1.429 . S
C2812 C2804 1.574 . S
C2812 H2807 0.949 . S
C2812 C2818 1.368 . S
C2813 C2797 1.349 . S
C2813 H2805 0.950 . S
C2813 C2811 1.327 . S
C2814 C2802 1.349 . S
C2814 H2808 0.950 . S
C2814 C2815 1.327 . S
C2815 H2809 0.950 . S
C2815 C2814 1.327 . S
C2815 C2819 1.429 . S
C2816 C2799 1.574 . S
C2816 H2810 0.949 . S
C2816 C2820 1.368 . S
C2817 C2798 1.429 . S
C2817 C2811 1.429 . S
C2817 C2818 1.523 . S
C2818 C2799 1.368 . S
C2818 C2812 1.368 . S
C2818 C2817 1.523 . S
C2819 C2803 1.429 . S
C2819 C2815 1.429 . S
C2819 C2820 1.523 . S
C2820 C2804 1.368 . S
C2820 C2816 1.368 . S
C2820 C2819 1.523 . S
H2821 C2796 0.950 . S
H2822 C2798 0.950 . S
H2823 C2799 0.949 . S
H2824 C2801 0.950 . S
H2825 C2803 0.950 . S
C2826 C2827 1.349 . S
C2826 C2828 1.327 . S
C2826 H2851 0.950 . S
C2827 C2826 1.349 . S
C2827 C2843 1.349 . S
C2828 C2826 1.327 . S
C2828 C2847 1.429 . S
C2828 H2852 0.950 . S
C2829 C2846 1.574 . S
C2829 C2848 1.368 . S
C2829 H2853 0.949 . S
H2830 C2834 0.949 . S
C2831 C2832 1.349 . S
C2831 C2833 1.327 . S
C2831 H2854 0.950 . S
C2832 C2831 1.349 . S
C2832 C2844 1.349 . S
C2833 C2831 1.327 . S
C2833 C2849 1.429 . S
C2833 H2855 0.950 . S
C2834 H2830 0.949 . S
C2834 C2842 1.574 . S
C2834 C2850 1.368 . S
H2835 C2843 0.950 . S
H2836 C2841 0.950 . S
H2837 C2842 0.949 . S
H2838 C2844 0.950 . S
H2839 C2845 0.950 . S
H2840 C2846 0.949 . S
C2841 H2836 0.950 . S
C2841 C2843 1.327 . S
C2841 C2847 1.429 . S
C2842 C2834 1.574 . S
C2842 H2837 0.949 . S
C2842 C2848 1.368 . S
C2843 C2827 1.349 . S
C2843 H2835 0.950 . S
C2843 C2841 1.327 . S
C2844 C2832 1.349 . S
C2844 H2838 0.950 . S
C2844 C2845 1.327 . S
C2845 H2839 0.950 . S
C2845 C2844 1.327 . S
C2845 C2849 1.429 . S
C2846 C2829 1.574 . S
C2846 H2840 0.949 . S
C2846 C2850 1.368 . S
C2847 C2828 1.429 . S
C2847 C2841 1.429 . S
C2847 C2848 1.523 . S
C2848 C2829 1.368 . S
C2848 C2842 1.368 . S
C2848 C2847 1.523 . S
C2849 C2833 1.429 . S
C2849 C2845 1.429 . S
C2849 C2850 1.523 . S
C2850 C2834 1.368 . S
C2850 C2846 1.368 . S
C2850 C2849 1.523 . S
H2851 C2826 0.950 . S
H2852 C2828 0.950 . S
H2853 C2829 0.949 . S
H2854 C2831 0.950 . S
H2855 C2833 0.950 . S
C2856 C2857 1.349 . S
C2856 C2858 1.327 . S
C2856 H2881 0.950 . S
C2857 C2856 1.349 . S
C2857 C2873 1.349 . S
C2858 C2856 1.327 . S
C2858 C2877 1.429 . S
C2858 H2882 0.950 . S
C2859 C2876 1.574 . S
C2859 C2878 1.368 . S
C2859 H2883 0.949 . S
H2860 C2864 0.949 . S
C2861 C2862 1.349 . S
C2861 C2863 1.327 . S
C2861 H2884 0.950 . S
C2862 C2861 1.349 . S
C2862 C2874 1.349 . S
C2863 C2861 1.327 . S
C2863 C2879 1.429 . S
C2863 H2885 0.950 . S
C2864 H2860 0.949 . S
C2864 C2872 1.574 . S
C2864 C2880 1.368 . S
H2865 C2873 0.950 . S
H2866 C2871 0.950 . S
H2867 C2872 0.949 . S
H2868 C2874 0.950 . S
H2869 C2875 0.950 . S
H2870 C2876 0.949 . S
C2871 H2866 0.950 . S
C2871 C2873 1.327 . S
C2871 C2877 1.429 . S
C2872 C2864 1.574 . S
C2872 H2867 0.949 . S
C2872 C2878 1.368 . S
C2873 C2857 1.349 . S
C2873 H2865 0.950 . S
C2873 C2871 1.327 . S
C2874 C2862 1.349 . S
C2874 H2868 0.950 . S
C2874 C2875 1.327 . S
C2875 H2869 0.950 . S
C2875 C2874 1.327 . S
C2875 C2879 1.429 . S
C2876 C2859 1.574 . S
C2876 H2870 0.949 . S
C2876 C2880 1.368 . S
C2877 C2858 1.429 . S
C2877 C2871 1.429 . S
C2877 C2878 1.523 . S
C2878 C2859 1.368 . S
C2878 C2872 1.368 . S
C2878 C2877 1.523 . S
C2879 C2863 1.429 . S
C2879 C2875 1.429 . S
C2879 C2880 1.523 . S
C2880 C2864 1.368 . S
C2880 C2876 1.368 . S
C2880 C2879 1.523 . S
H2881 C2856 0.950 . S
H2882 C2858 0.950 . S
H2883 C2859 0.949 . S
H2884 C2861 0.950 . S
H2885 C2863 0.950 . S
C2886 C2887 1.349 . S
C2886 C2888 1.327 . S
C2886 H2911 0.950 . S
C2887 C2886 1.349 . S
C2887 C2903 1.349 . S
C2888 C2886 1.327 . S
C2888 C2907 1.429 . S
C2888 H2912 0.950 . S
C2889 C2906 1.574 . S
C2889 C2908 1.368 . S
C2889 H2913 0.949 . S
H2890 C2894 0.949 . S
C2891 C2892 1.349 . S
C2891 C2893 1.327 . S
C2891 H2914 0.950 . S
C2892 C2891 1.349 . S
C2892 C2904 1.349 . S
C2893 C2891 1.327 . S
C2893 C2909 1.429 . S
C2893 H2915 0.950 . S
C2894 H2890 0.949 . S
C2894 C2902 1.574 . S
C2894 C2910 1.368 . S
H2895 C2903 0.950 . S
H2896 C2901 0.950 . S
H2897 C2902 0.949 . S
H2898 C2904 0.950 . S
H2899 C2905 0.950 . S
H2900 C2906 0.949 . S
C2901 H2896 0.950 . S
C2901 C2903 1.327 . S
C2901 C2907 1.429 . S
C2902 C2894 1.574 . S
C2902 H2897 0.949 . S
C2902 C2908 1.368 . S
C2903 C2887 1.349 . S
C2903 H2895 0.950 . S
C2903 C2901 1.327 . S
C2904 C2892 1.349 . S
C2904 H2898 0.950 . S
C2904 C2905 1.327 . S
C2905 H2899 0.950 . S
C2905 C2904 1.327 . S
C2905 C2909 1.429 . S
C2906 C2889 1.574 . S
C2906 H2900 0.949 . S
C2906 C2910 1.368 . S
C2907 C2888 1.429 . S
C2907 C2901 1.429 . S
C2907 C2908 1.523 . S
C2908 C2889 1.368 . S
C2908 C2902 1.368 . S
C2908 C2907 1.523 . S
C2909 C2893 1.429 . S
C2909 C2905 1.429 . S
C2909 C2910 1.523 . S
C2910 C2894 1.368 . S
C2910 C2906 1.368 . S
C2910 C2909 1.523 . S
H2911 C2886 0.950 . S
H2912 C2888 0.950 . S
H2913 C2889 0.949 . S
H2914 C2891 0.950 . S
H2915 C2893 0.950 . S
C2916 C2917 1.349 . S
C2916 C2918 1.327 . S
C2916 H2941 0.950 . S
C2917 C2916 1.349 . S
C2917 C2933 1.375 . S
C2918 C2916 1.327 . S
C2918 C2937 1.429 . S
C2918 H2942 0.950 . S
C2919 C2936 1.574 . S
C2919 C2938 1.368 1_565 S
C2919 H2943 0.949 . S
H2920 C2924 0.949 . S
C2921 C2922 1.349 1_565 S
C2921 C2923 1.327 . S
C2921 H2944 0.950 . S
C2922 C2921 1.349 1_545 S
C2922 C2934 1.349 . S
C2923 C2921 1.327 . S
C2923 C2939 1.429 1_565 S
C2923 H2945 0.950 . S
C2924 H2920 0.949 . S
C2924 C2932 1.574 . S
C2924 C2940 1.368 . S
H2925 C2933 0.942 1_565 S
H2926 C2931 1.011 . S
H2927 C2932 0.949 . S
H2928 C2934 0.950 . S
H2929 C2935 0.950 . S
H2930 C2936 0.949 . S
C2931 H2926 1.011 . S
C2931 C2933 1.271 1_565 S
C2931 C2937 1.413 1_565 S
C2932 C2924 1.574 . S
C2932 H2927 0.949 . S
C2932 C2938 1.368 . S
C2933 C2917 1.375 . S
C2933 H2925 0.942 1_545 S
C2933 C2931 1.271 1_545 S
C2934 C2922 1.349 . S
C2934 H2928 0.950 . S
C2934 C2935 1.327 . S
C2935 H2929 0.950 . S
C2935 C2934 1.327 . S
C2935 C2939 1.429 . S
C2936 C2919 1.574 . S
C2936 H2930 0.949 . S
C2936 C2940 1.368 1_565 S
C2937 C2918 1.429 . S
C2937 C2931 1.413 1_545 S
C2937 C2938 1.523 . S
C2938 C2919 1.368 1_545 S
C2938 C2932 1.368 . S
C2938 C2937 1.523 . S
C2939 C2923 1.429 1_545 S
C2939 C2935 1.429 . S
C2939 C2940 1.523 . S
C2940 C2924 1.368 . S
C2940 C2936 1.368 1_545 S
C2940 C2939 1.523 . S
H2941 C2916 0.950 . S
H2942 C2918 0.950 . S
H2943 C2919 0.949 . S
H2944 C2921 0.950 . S
H2945 C2923 0.950 . S
C2946 C2947 1.349 1_455 S
C2946 C2948 1.327 . S
C2946 H2971 0.950 . S
C2947 C2946 1.349 1_655 S
C2947 C2963 1.349 . S
C2948 C2946 1.327 . S
C2948 C2967 1.429 1_455 S
C2948 H2972 0.950 . S
C2949 C2966 1.574 . S
C2949 C2968 1.368 . S
C2949 H2973 0.949 . S
H2950 C2954 0.949 . S
C2951 C2952 1.349 . S
C2951 C2953 1.327 . S
C2951 H2974 0.950 . S
C2952 C2951 1.349 . S
C2952 C2964 1.349 1_655 S
C2953 C2951 1.327 . S
C2953 C2969 1.429 . S
C2953 H2975 0.950 . S
C2954 H2950 0.949 . S
C2954 C2962 1.574 . S
C2954 C2970 1.368 1_455 S
H2955 C2963 0.950 . S
H2956 C2961 0.950 . S
H2957 C2962 0.949 . S
H2958 C2964 0.950 . S
H2959 C2965 0.950 . S
H2960 C2966 0.949 . S
C2961 H2956 0.950 . S
C2961 C2963 1.327 . S
C2961 C2967 1.429 . S
C2962 C2954 1.574 . S
C2962 H2957 0.949 . S
C2962 C2968 1.368 1_455 S
C2963 C2947 1.349 . S
C2963 H2955 0.950 . S
C2963 C2961 1.327 . S
C2964 C2952 1.349 1_455 S
C2964 H2958 0.950 . S
C2964 C2965 1.327 . S
C2965 H2959 0.950 . S
C2965 C2964 1.327 . S
C2965 C2969 1.429 1_455 S
C2966 C2949 1.574 . S
C2966 H2960 0.949 . S
C2966 C2970 1.368 . S
C2967 C2948 1.429 1_655 S
C2967 C2961 1.429 . S
C2967 C2968 1.523 . S
C2968 C2949 1.368 . S
C2968 C2962 1.368 1_655 S
C2968 C2967 1.523 . S
C2969 C2953 1.429 . S
C2969 C2965 1.429 1_655 S
C2969 C2970 1.523 . S
C2970 C2954 1.368 1_655 S
C2970 C2966 1.368 . S
C2970 C2969 1.523 . S
H2971 C2946 0.950 . S
H2972 C2948 0.950 . S
H2973 C2949 0.949 . S
H2974 C2951 0.950 . S
H2975 C2953 0.950 . S
C2976 C2977 1.349 . S
C2976 C2978 1.327 . S
C2976 H3001 0.950 . S
C2977 C2976 1.349 . S
C2977 C2993 1.349 . S
C2978 C2976 1.327 . S
C2978 C2997 1.429 . S
C2978 H3002 0.950 . S
C2979 C2996 1.574 . S
C2979 C2998 1.368 . S
C2979 H3003 0.949 . S
H2980 C2984 0.949 . S
C2981 C2982 1.349 . S
C2981 C2983 1.327 . S
C2981 H3004 0.950 . S
C2982 C2981 1.349 . S
C2982 C2994 1.349 . S
C2983 C2981 1.327 . S
C2983 C2999 1.429 . S
C2983 H3005 0.950 . S
C2984 H2980 0.949 . S
C2984 C2992 1.574 . S
C2984 C3000 1.368 . S
H2985 C2993 0.950 . S
H2986 C2991 0.950 . S
H2987 C2992 0.949 . S
H2988 C2994 0.950 . S
H2989 C2995 0.950 . S
H2990 C2996 0.949 . S
C2991 H2986 0.950 . S
C2991 C2993 1.327 . S
C2991 C2997 1.429 . S
C2992 C2984 1.574 . S
C2992 H2987 0.949 . S
C2992 C2998 1.368 . S
C2993 C2977 1.349 . S
C2993 H2985 0.950 . S
C2993 C2991 1.327 . S
C2994 C2982 1.349 . S
C2994 H2988 0.950 . S
C2994 C2995 1.327 . S
C2995 H2989 0.950 . S
C2995 C2994 1.327 . S
C2995 C2999 1.429 . S
C2996 C2979 1.574 . S
C2996 H2990 0.949 . S
C2996 C3000 1.368 . S
C2997 C2978 1.429 . S
C2997 C2991 1.429 . S
C2997 C2998 1.523 . S
C2998 C2979 1.368 . S
C2998 C2992 1.368 . S
C2998 C2997 1.523 . S
C2999 C2983 1.429 . S
C2999 C2995 1.429 . S
C2999 C3000 1.523 . S
C3000 C2984 1.368 . S
C3000 C2996 1.368 . S
C3000 C2999 1.523 . S
H3001 C2976 0.950 . S
H3002 C2978 0.950 . S
H3003 C2979 0.949 . S
H3004 C2981 0.950 . S
H3005 C2983 0.950 . S
C3006 C3007 1.349 . S
C3006 C3008 1.327 . S
C3006 H3031 0.950 . S
C3007 C3006 1.349 . S
C3007 C3023 1.349 . S
C3008 C3006 1.327 . S
C3008 C3027 1.429 . S
C3008 H3032 0.950 . S
C3009 C3026 1.574 . S
C3009 C3028 1.368 . S
C3009 H3033 0.949 . S
H3010 C3014 0.949 . S
C3011 C3012 1.349 . S
C3011 C3013 1.327 . S
C3011 H3034 0.950 . S
C3012 C3011 1.349 . S
C3012 C3024 1.349 . S
C3013 C3011 1.327 . S
C3013 C3029 1.429 . S
C3013 H3035 0.950 . S
C3014 H3010 0.949 . S
C3014 C3022 1.574 . S
C3014 C3030 1.368 . S
H3015 C3023 0.950 . S
H3016 C3021 0.950 . S
H3017 C3022 0.949 . S
H3018 C3024 0.950 . S
H3019 C3025 0.950 . S
H3020 C3026 0.949 . S
C3021 H3016 0.950 . S
C3021 C3023 1.327 . S
C3021 C3027 1.429 . S
C3022 C3014 1.574 . S
C3022 H3017 0.949 . S
C3022 C3028 1.368 . S
C3023 C3007 1.349 . S
C3023 H3015 0.950 . S
C3023 C3021 1.327 . S
C3024 C3012 1.349 . S
C3024 H3018 0.950 . S
C3024 C3025 1.327 . S
C3025 H3019 0.950 . S
C3025 C3024 1.327 . S
C3025 C3029 1.429 . S
C3026 C3009 1.574 . S
C3026 H3020 0.949 . S
C3026 C3030 1.368 . S
C3027 C3008 1.429 . S
C3027 C3021 1.429 . S
C3027 C3028 1.523 . S
C3028 C3009 1.368 . S
C3028 C3022 1.368 . S
C3028 C3027 1.523 . S
C3029 C3013 1.429 . S
C3029 C3025 1.429 . S
C3029 C3030 1.523 . S
C3030 C3014 1.368 . S
C3030 C3026 1.368 . S
C3030 C3029 1.523 . S
H3031 C3006 0.950 . S
H3032 C3008 0.950 . S
H3033 C3009 0.949 . S
H3034 C3011 0.950 . S
H3035 C3013 0.950 . S
C3036 C3037 1.349 . S
C3036 C3038 1.327 . S
C3036 H3061 0.950 . S
C3037 C3036 1.349 . S
C3037 C3053 1.349 . S
C3038 C3036 1.327 . S
C3038 C3057 1.429 . S
C3038 H3062 0.950 . S
C3039 C3056 1.574 . S
C3039 C3058 1.368 . S
C3039 H3063 0.949 . S
H3040 C3044 0.949 . S
C3041 C3042 1.349 . S
C3041 C3043 1.327 . S
C3041 H3064 0.950 . S
C3042 C3041 1.349 . S
C3042 C3054 1.349 . S
C3043 C3041 1.327 . S
C3043 C3059 1.429 . S
C3043 H3065 0.950 . S
C3044 H3040 0.949 . S
C3044 C3052 1.574 . S
C3044 C3060 1.368 . S
H3045 C3053 0.950 . S
H3046 C3051 0.950 . S
H3047 C3052 0.949 . S
H3048 C3054 0.950 . S
H3049 C3055 0.950 . S
H3050 C3056 0.949 . S
C3051 H3046 0.950 . S
C3051 C3053 1.327 . S
C3051 C3057 1.429 . S
C3052 C3044 1.574 . S
C3052 H3047 0.949 . S
C3052 C3058 1.368 . S
C3053 C3037 1.349 . S
C3053 H3045 0.950 . S
C3053 C3051 1.327 . S
C3054 C3042 1.349 . S
C3054 H3048 0.950 . S
C3054 C3055 1.327 . S
C3055 H3049 0.950 . S
C3055 C3054 1.327 . S
C3055 C3059 1.429 . S
C3056 C3039 1.574 . S
C3056 H3050 0.949 . S
C3056 C3060 1.368 . S
C3057 C3038 1.429 . S
C3057 C3051 1.429 . S
C3057 C3058 1.523 . S
C3058 C3039 1.368 . S
C3058 C3052 1.368 . S
C3058 C3057 1.523 . S
C3059 C3043 1.429 . S
C3059 C3055 1.429 . S
C3059 C3060 1.523 . S
C3060 C3044 1.368 . S
C3060 C3056 1.368 . S
C3060 C3059 1.523 . S
H3061 C3036 0.950 . S
H3062 C3038 0.950 . S
H3063 C3039 0.949 . S
H3064 C3041 0.950 . S
H3065 C3043 0.950 . S
C3066 C3067 1.349 . S
C3066 C3068 1.327 . S
C3066 H3091 0.950 . S
C3067 C3066 1.349 . S
C3067 C3083 1.349 . S
C3068 C3066 1.327 . S
C3068 C3087 1.429 . S
C3068 H3092 0.950 . S
C3069 C3086 1.574 . S
C3069 C3088 1.368 . S
C3069 H3093 0.949 . S
H3070 C3074 0.949 . S
C3071 C3072 1.349 . S
C3071 C3073 1.327 . S
C3071 H3094 0.950 . S
C3072 C3071 1.349 . S
C3072 C3084 1.349 . S
C3073 C3071 1.327 . S
C3073 C3089 1.429 . S
C3073 H3095 0.950 . S
C3074 H3070 0.949 . S
C3074 C3082 1.574 . S
C3074 C3090 1.368 . S
H3075 C3083 0.950 . S
H3076 C3081 0.950 . S
H3077 C3082 0.949 . S
H3078 C3084 0.950 . S
H3079 C3085 0.950 . S
H3080 C3086 0.949 . S
C3081 H3076 0.950 . S
C3081 C3083 1.327 . S
C3081 C3087 1.429 . S
C3082 C3074 1.574 . S
C3082 H3077 0.949 . S
C3082 C3088 1.368 . S
C3083 C3067 1.349 . S
C3083 H3075 0.950 . S
C3083 C3081 1.327 . S
C3084 C3072 1.349 . S
C3084 H3078 0.950 . S
C3084 C3085 1.327 . S
C3085 H3079 0.950 . S
C3085 C3084 1.327 . S
C3085 C3089 1.429 . S
C3086 C3069 1.574 . S
C3086 H3080 0.949 . S
C3086 C3090 1.368 . S
C3087 C3068 1.429 . S
C3087 C3081 1.429 . S
C3087 C3088 1.523 . S
C3088 C3069 1.368 . S
C3088 C3082 1.368 . S
C3088 C3087 1.523 . S
C3089 C3073 1.429 . S
C3089 C3085 1.429 . S
C3089 C3090 1.523 . S
C3090 C3074 1.368 . S
C3090 C3086 1.368 . S
C3090 C3089 1.523 . S
H3091 C3066 0.950 . S
H3092 C3068 0.950 . S
H3093 C3069 0.949 . S
H3094 C3071 0.950 . S
H3095 C3073 0.950 . S
C3096 C3097 1.349 . S
C3096 C3098 1.327 . S
C3096 H3121 0.950 . S
C3097 C3096 1.349 . S
C3097 C3113 1.349 . S
C3098 C3096 1.327 . S
C3098 C3117 1.429 . S
C3098 H3122 0.950 . S
C3099 C3116 1.574 . S
C3099 C3118 1.368 . S
C3099 H3123 0.949 . S
H3100 C3104 0.949 . S
C3101 C3102 1.349 . S
C3101 C3103 1.327 . S
C3101 H3124 0.950 . S
C3102 C3101 1.349 . S
C3102 C3114 1.349 . S
C3103 C3101 1.327 . S
C3103 C3119 1.429 . S
C3103 H3125 0.950 . S
C3104 H3100 0.949 . S
C3104 C3112 1.574 . S
C3104 C3120 1.368 . S
H3105 C3113 0.950 . S
H3106 C3111 0.950 . S
H3107 C3112 0.949 . S
H3108 C3114 0.950 . S
H3109 C3115 0.950 . S
H3110 C3116 0.949 . S
C3111 H3106 0.950 . S
C3111 C3113 1.327 . S
C3111 C3117 1.429 . S
C3112 C3104 1.574 . S
C3112 H3107 0.949 . S
C3112 C3118 1.368 . S
C3113 C3097 1.349 . S
C3113 H3105 0.950 . S
C3113 C3111 1.327 . S
C3114 C3102 1.349 . S
C3114 H3108 0.950 . S
C3114 C3115 1.327 . S
C3115 H3109 0.950 . S
C3115 C3114 1.327 . S
C3115 C3119 1.429 . S
C3116 C3099 1.574 . S
C3116 H3110 0.949 . S
C3116 C3120 1.368 . S
C3117 C3098 1.429 . S
C3117 C3111 1.429 . S
C3117 C3118 1.523 . S
C3118 C3099 1.368 . S
C3118 C3112 1.368 . S
C3118 C3117 1.523 . S
C3119 C3103 1.429 . S
C3119 C3115 1.429 . S
C3119 C3120 1.523 . S
C3120 C3104 1.368 . S
C3120 C3116 1.368 . S
C3120 C3119 1.523 . S
H3121 C3096 0.950 . S
H3122 C3098 0.950 . S
H3123 C3099 0.949 . S
H3124 C3101 0.950 . S
H3125 C3103 0.950 . S
C3126 C3127 1.349 . S
C3126 C3128 1.327 . S
C3126 H3151 0.950 . S
C3127 C3126 1.349 . S
C3127 C3143 1.349 . S
C3128 C3126 1.327 . S
C3128 C3147 1.429 . S
C3128 H3152 0.950 . S
C3129 C3146 1.574 . S
C3129 C3148 1.368 . S
C3129 H3153 0.949 . S
H3130 C3134 0.949 . S
C3131 C3132 1.349 . S
C3131 C3133 1.327 . S
C3131 H3154 0.950 . S
C3132 C3131 1.349 . S
C3132 C3144 1.349 . S
C3133 C3131 1.327 . S
C3133 C3149 1.429 . S
C3133 H3155 0.950 . S
C3134 H3130 0.949 . S
C3134 C3142 1.574 . S
C3134 C3150 1.368 . S
H3135 C3143 0.950 . S
H3136 C3141 0.950 . S
H3137 C3142 0.949 . S
H3138 C3144 0.950 . S
H3139 C3145 0.950 . S
H3140 C3146 0.949 . S
C3141 H3136 0.950 . S
C3141 C3143 1.327 . S
C3141 C3147 1.429 . S
C3142 C3134 1.574 . S
C3142 H3137 0.949 . S
C3142 C3148 1.368 . S
C3143 C3127 1.349 . S
C3143 H3135 0.950 . S
C3143 C3141 1.327 . S
C3144 C3132 1.349 . S
C3144 H3138 0.950 . S
C3144 C3145 1.327 . S
C3145 H3139 0.950 . S
C3145 C3144 1.327 . S
C3145 C3149 1.429 . S
C3146 C3129 1.574 . S
C3146 H3140 0.949 . S
C3146 C3150 1.368 . S
C3147 C3128 1.429 . S
C3147 C3141 1.429 . S
C3147 C3148 1.523 . S
C3148 C3129 1.368 . S
C3148 C3142 1.368 . S
C3148 C3147 1.523 . S
C3149 C3133 1.429 . S
C3149 C3145 1.429 . S
C3149 C3150 1.523 . S
C3150 C3134 1.368 . S
C3150 C3146 1.368 . S
C3150 C3149 1.523 . S
H3151 C3126 0.950 . S
H3152 C3128 0.950 . S
H3153 C3129 0.949 . S
H3154 C3131 0.950 . S
H3155 C3133 0.950 . S
C3156 C3157 1.349 . S
C3156 C3158 1.327 . S
C3156 H3181 0.950 . S
C3157 C3156 1.349 . S
C3157 C3173 1.349 . S
C3158 C3156 1.327 . S
C3158 C3177 1.429 . S
C3158 H3182 0.950 . S
C3159 C3176 1.574 . S
C3159 C3178 1.368 . S
C3159 H3183 0.949 . S
H3160 C3164 0.949 . S
C3161 C3162 1.349 . S
C3161 C3163 1.327 . S
C3161 H3184 0.950 . S
C3162 C3161 1.349 . S
C3162 C3174 1.349 . S
C3163 C3161 1.327 . S
C3163 C3179 1.429 . S
C3163 H3185 0.950 . S
C3164 H3160 0.949 . S
C3164 C3172 1.574 . S
C3164 C3180 1.368 . S
H3165 C3173 0.950 . S
H3166 C3171 0.950 . S
H3167 C3172 0.949 . S
H3168 C3174 0.950 . S
H3169 C3175 0.950 . S
H3170 C3176 0.949 . S
C3171 H3166 0.950 . S
C3171 C3173 1.327 . S
C3171 C3177 1.429 . S
C3172 C3164 1.574 . S
C3172 H3167 0.949 . S
C3172 C3178 1.368 . S
C3173 C3157 1.349 . S
C3173 H3165 0.950 . S
C3173 C3171 1.327 . S
C3174 C3162 1.349 . S
C3174 H3168 0.950 . S
C3174 C3175 1.327 . S
C3175 H3169 0.950 . S
C3175 C3174 1.327 . S
C3175 C3179 1.429 . S
C3176 C3159 1.574 . S
C3176 H3170 0.949 . S
C3176 C3180 1.368 . S
C3177 C3158 1.429 . S
C3177 C3171 1.429 . S
C3177 C3178 1.523 . S
C3178 C3159 1.368 . S
C3178 C3172 1.368 . S
C3178 C3177 1.523 . S
C3179 C3163 1.429 . S
C3179 C3175 1.429 . S
C3179 C3180 1.523 . S
C3180 C3164 1.368 . S
C3180 C3176 1.368 . S
C3180 C3179 1.523 . S
H3181 C3156 0.950 . S
H3182 C3158 0.950 . S
H3183 C3159 0.949 . S
H3184 C3161 0.950 . S
H3185 C3163 0.950 . S
C3186 C3187 1.420 . S
C3186 C3188 1.284 . S
C3186 H3211 0.924 1_655 S
C3187 C3186 1.420 . S
C3187 C3203 1.349 . S
C3188 C3186 1.284 . S
C3188 C3207 1.426 . S
C3188 H3212 0.955 1_655 S
C3189 C3206 1.574 . S
C3189 C3208 1.368 . S
C3189 H3213 0.949 . S
H3190 C3194 0.949 . S
C3191 C3192 1.349 . S
C3191 C3193 1.327 . S
C3191 H3214 0.950 . S
C3192 C3191 1.349 . S
C3192 C3204 1.349 1_655 S
C3193 C3191 1.327 . S
C3193 C3209 1.429 . S
C3193 H3215 0.950 . S
C3194 H3190 0.949 . S
C3194 C3202 1.574 . S
C3194 C3210 1.368 1_455 S
H3195 C3203 0.950 . S
H3196 C3201 0.950 . S
H3197 C3202 0.949 . S
H3198 C3204 0.950 . S
H3199 C3205 0.950 . S
H3200 C3206 0.949 . S
C3201 H3196 0.950 . S
C3201 C3203 1.327 . S
C3201 C3207 1.429 . S
C3202 C3194 1.574 . S
C3202 H3197 0.949 . S
C3202 C3208 1.368 1_455 S
C3203 C3187 1.349 . S
C3203 H3195 0.950 . S
C3203 C3201 1.327 . S
C3204 C3192 1.349 1_455 S
C3204 H3198 0.950 . S
C3204 C3205 1.327 . S
C3205 H3199 0.950 . S
C3205 C3204 1.327 . S
C3205 C3209 1.429 1_455 S
C3206 C3189 1.574 . S
C3206 H3200 0.949 . S
C3206 C3210 1.368 . S
C3207 C3188 1.426 . S
C3207 C3201 1.429 . S
C3207 C3208 1.523 . S
C3208 C3189 1.368 . S
C3208 C3202 1.368 1_655 S
C3208 C3207 1.523 . S
C3209 C3193 1.429 . S
C3209 C3205 1.429 1_655 S
C3209 C3210 1.523 . S
C3210 C3194 1.368 1_655 S
C3210 C3206 1.368 . S
C3210 C3209 1.523 . S
H3211 C3186 0.924 1_455 S
H3212 C3188 0.955 1_455 S
H3213 C3189 0.949 . S
H3214 C3191 0.950 . S
H3215 C3193 0.950 . S
C3216 C3217 1.349 . S
C3216 C3218 1.327 . S
C3216 H3241 0.950 . S
C3217 C3216 1.349 . S
C3217 C3233 1.349 . S
C3218 C3216 1.327 . S
C3218 C3237 1.429 . S
C3218 H3242 0.950 . S
C3219 C3236 1.574 . S
C3219 C3238 1.368 . S
C3219 H3243 0.949 . S
H3220 C3224 0.949 . S
C3221 C3222 1.349 . S
C3221 C3223 1.327 . S
C3221 H3244 0.950 . S
C3222 C3221 1.349 . S
C3222 C3234 1.349 . S
C3223 C3221 1.327 . S
C3223 C3239 1.429 . S
C3223 H3245 0.950 . S
C3224 H3220 0.949 . S
C3224 C3232 1.574 . S
C3224 C3240 1.368 . S
H3225 C3233 0.950 . S
H3226 C3231 0.950 . S
H3227 C3232 0.949 . S
H3228 C3234 0.950 . S
H3229 C3235 0.950 . S
H3230 C3236 0.949 . S
C3231 H3226 0.950 . S
C3231 C3233 1.327 . S
C3231 C3237 1.429 . S
C3232 C3224 1.574 . S
C3232 H3227 0.949 . S
C3232 C3238 1.368 . S
C3233 C3217 1.349 . S
C3233 H3225 0.950 . S
C3233 C3231 1.327 . S
C3234 C3222 1.349 . S
C3234 H3228 0.950 . S
C3234 C3235 1.327 . S
C3235 H3229 0.950 . S
C3235 C3234 1.327 . S
C3235 C3239 1.429 . S
C3236 C3219 1.574 . S
C3236 H3230 0.949 . S
C3236 C3240 1.368 . S
C3237 C3218 1.429 . S
C3237 C3231 1.429 . S
C3237 C3238 1.523 . S
C3238 C3219 1.368 . S
C3238 C3232 1.368 . S
C3238 C3237 1.523 . S
C3239 C3223 1.429 . S
C3239 C3235 1.429 . S
C3239 C3240 1.523 . S
C3240 C3224 1.368 . S
C3240 C3236 1.368 . S
C3240 C3239 1.523 . S
H3241 C3216 0.950 . S
H3242 C3218 0.950 . S
H3243 C3219 0.949 . S
H3244 C3221 0.950 . S
H3245 C3223 0.950 . S
C3246 C3247 1.349 . S
C3246 C3248 1.327 . S
C3246 H3271 0.950 . S
C3247 C3246 1.349 . S
C3247 C3263 1.349 . S
C3248 C3246 1.327 . S
C3248 C3267 1.429 . S
C3248 H3272 0.950 . S
C3249 C3266 1.574 . S
C3249 C3268 1.368 . S
C3249 H3273 0.949 . S
H3250 C3254 0.949 . S
C3251 C3252 1.349 . S
C3251 C3253 1.327 . S
C3251 H3274 0.950 . S
C3252 C3251 1.349 . S
C3252 C3264 1.379 . S
C3253 C3251 1.327 . S
C3253 C3269 1.429 . S
C3253 H3275 0.950 . S
C3254 H3250 0.949 . S
C3254 C3262 1.574 . S
C3254 C3270 1.368 . S
H3255 C3263 0.950 . S
H3256 C3261 0.950 . S
H3257 C3262 0.949 . S
H3258 C3264 0.941 1_565 S
H3259 C3265 0.957 . S
H3260 C3266 0.949 . S
C3261 H3256 0.950 . S
C3261 C3263 1.327 . S
C3261 C3267 1.429 . S
C3262 C3254 1.574 . S
C3262 H3257 0.949 . S
C3262 C3268 1.368 . S
C3263 C3247 1.349 . S
C3263 H3255 0.950 . S
C3263 C3261 1.327 . S
C3264 C3252 1.379 . S
C3264 H3258 0.941 1_545 S
C3264 C3265 1.308 . S
C3265 H3259 0.957 . S
C3265 C3264 1.308 . S
C3265 C3269 1.429 . S
C3266 C3249 1.574 . S
C3266 H3260 0.949 . S
C3266 C3270 1.368 . S
C3267 C3248 1.429 . S
C3267 C3261 1.429 . S
C3267 C3268 1.523 . S
C3268 C3249 1.368 . S
C3268 C3262 1.368 . S
C3268 C3267 1.523 . S
C3269 C3253 1.429 . S
C3269 C3265 1.429 . S
C3269 C3270 1.523 . S
C3270 C3254 1.368 . S
C3270 C3266 1.368 . S
C3270 C3269 1.523 . S
H3271 C3246 0.950 . S
H3272 C3248 0.950 . S
H3273 C3249 0.949 . S
H3274 C3251 0.950 . S
H3275 C3253 0.950 . S
C1117 C9 1.443 1_655 S
C1122 C729 1.470 . S
C1147 C19 1.571 . S
C1152 C777 1.568 . S
C1182 C825 1.522 . S
C1177 C33 1.524 . S
C1207 C37 1.504 . S
C1212 C849 1.494 . S
C1237 C5 1.468 . S
C1242 C921 1.471 . S
C1267 C23 1.602 . S
C1272 C969 1.598 . S
C1297 C47 1.491 . S
C1302 C897 1.495 . S
C1332 C945 1.622 . S
C1327 C65 1.625 . S
C1362 C873 1.534 . S
C1357 C75 1.488 . S
C1387 C79 1.418 . S
C1392 C801 1.422 . S
C1422 C705 1.517 . S
C1417 C51 1.505 . S
C1447 C61 1.595 . S
C1452 C753 1.592 . S
C1477 C93 1.709 . S
C1482 C1017 1.705 . S
C1507 C103 1.644 . S
C1512 C1065 1.638 . S
C1542 C1089 1.651 . S
C1537 C117 1.666 . S
C1567 C121 1.618 . S
C1572 C273 1.602 . S
C1597 C89 1.641 . S
C1602 C345 1.636 . S
C1627 C107 1.652 . S
C1632 C393 1.645 . S
C1657 C131 1.604 . S
C1662 C321 1.599 . S
C1687 C149 1.666 . S
C1692 C369 1.660 . S
C1722 C297 1.594 . S
C1717 C159 1.629 . S
C1752 C1113 1.633 . S
C1747 C163 1.673 . S
C1782 C993 1.676 . S
C1777 C135 1.685 . S
C1812 C1041 1.664 . S
C1807 C145 1.670 . S
C1837 C177 1.613 . S
C1842 C441 1.609 . S
C1867 C187 1.607 . S
C1872 C489 1.600 . S
C1897 C201 1.675 . S
C1902 C513 1.660 . S
C1927 C205 1.716 . S
C1932 C561 1.698 . S
C1962 C633 1.630 . S
C1957 C173 1.635 . S
C1992 C681 1.681 . S
C1987 C191 1.690 . S
C2022 C609 1.707 . S
C2017 C215 1.711 . S
C2052 C657 1.702 . S
C2047 C233 1.710 . S
C2077 C243 1.617 . S
C2082 C585 1.581 . S
C2112 C537 1.528 . S
C2107 C247 1.565 . S
C2137 C219 1.694 . S
C2142 C417 1.688 . S
C2172 C465 1.640 . S
C2167 C229 1.647 . S
C2202 C282 1.562 . S
C2197 C11 1.563 . S
C2227 C14 1.490 . S
C2232 C336 1.470 . S
C2262 C384 1.619 . S
C2257 C28 1.642 . S
C2292 C432 1.611 . S
C2287 C39 1.635 . S
C2322 C480 1.555 . S
C2317 C0 1.574 . S
C2352 C522 1.450 . S
C2347 C25 1.451 . S
C2377 C42 1.635 . S
C2382 C528 1.628 . S
C2407 C67 1.512 . S
C2412 C426 1.478 . S
C2437 C70 1.517 . S
C2442 C474 1.485 . S
C2467 C81 1.558 . S
C2472 C330 1.537 . S
C2502 C378 1.573 . S
C2497 C53 1.611 . S
C2527 C56 1.530 . S
C2532 C288 1.519 . S
C2562 C570 1.525 . S
C2557 C95 1.525 . S
C2587 C98 1.631 . S
C2592 C624 1.614 . S
C2617 C112 1.710 . S
C2622 C672 1.689 . S
C2652 C720 1.422 . S
C2647 C123 1.415 . S
C2677 C84 1.551 . S
C2682 C768 1.535 . S
C2707 C109 1.350 . S
C2712 C816 1.359 . S
C2737 C126 1.442 . S
C2742 C810 1.445 . S
C2767 C151 1.394 . S
C2772 C714 1.400 . S
C2802 C762 1.500 . S
C2797 C154 1.522 . S
C2827 C165 1.510 . S
C2832 C618 1.480 . S
C2857 C137 1.660 . S
C2862 C666 1.627 . S
C2892 C576 1.661 . S
C2887 C140 1.669 . S
C2922 C858 1.394 . S
C2917 C179 1.382 . S
C2947 C182 1.386 . S
C2952 C912 1.400 . S
C2977 C196 1.618 . S
C2982 C960 1.599 . S
C3012 C1008 1.570 . S
C3007 C207 1.595 . S
C3042 C1056 1.613 . S
C3037 C168 1.630 . S
C3067 C193 1.601 . S
C3072 C1098 1.603 . S
C3097 C210 1.609 . S
C3102 C1104 1.600 . S
C3127 C235 1.653 . S
C3132 C1002 1.620 . S
C3162 C1050 1.574 . S
C3157 C238 1.595 . S
C3192 C906 1.348 . S
C3187 C249 1.338 . S
C3222 C954 1.547 . S
C3217 C221 1.578 . S
C3247 C224 1.420 . S
C3252 C864 1.432 . S
