# Generated by pormake.
# Topology zzz, (3,6)-cn, num edge types: 1
# Building blocks:
#     Node 0, Type 0, BuildingBlock: BELTOD_clean_linker_0, # of connection points: 3
#     Node 1, Type 0, BuildingBlock: BELTOD_clean_linker_0, # of connection points: 3
#     Node 2, Type 0, BuildingBlock: BELTOD_clean_linker_0, # of connection points: 3
#     Node 3, Type 0, BuildingBlock: BELTOD_clean_linker_0, # of connection points: 3
#     Node 4, Type 0, BuildingBlock: BELTOD_clean_linker_0, # of connection points: 3
#     Node 5, Type 0, BuildingBlock: BELTOD_clean_linker_0, # of connection points: 3
#     Node 6, Type 0, BuildingBlock: BELTOD_clean_linker_0, # of connection points: 3
#     Node 7, Type 0, BuildingBlock: BELTOD_clean_linker_0, # of connection points: 3
#     Node 8, Type 1, BuildingBlock: HISSIN_clean_sbu_0, # of connection points: 6
#     Node 9, Type 1, BuildingBlock: HISSIN_clean_sbu_0, # of connection points: 6
#     Node 10, Type 1, BuildingBlock: HISSIN_clean_sbu_0, # of connection points: 6
#     Node 11, Type 1, BuildingBlock: HISSIN_clean_sbu_0, # of connection points: 6
#     Edge 12, Type (0, 1), BuildingBlock: XUDNAN_clean_linker_2, # of connection points: 2
#     Edge 13, Type (0, 1), BuildingBlock: XUDNAN_clean_linker_2, # of connection points: 2
#     Edge 14, Type (0, 1), BuildingBlock: XUDNAN_clean_linker_2, # of connection points: 2
#     Edge 15, Type (0, 1), BuildingBlock: XUDNAN_clean_linker_2, # of connection points: 2
#     Edge 16, Type (0, 1), BuildingBlock: XUDNAN_clean_linker_2, # of connection points: 2
#     Edge 17, Type (0, 1), BuildingBlock: XUDNAN_clean_linker_2, # of connection points: 2
#     Edge 18, Type (0, 1), BuildingBlock: XUDNAN_clean_linker_2, # of connection points: 2
#     Edge 19, Type (0, 1), BuildingBlock: XUDNAN_clean_linker_2, # of connection points: 2
#     Edge 20, Type (0, 1), BuildingBlock: XUDNAN_clean_linker_2, # of connection points: 2
#     Edge 21, Type (0, 1), BuildingBlock: XUDNAN_clean_linker_2, # of connection points: 2
#     Edge 22, Type (0, 1), BuildingBlock: XUDNAN_clean_linker_2, # of connection points: 2
#     Edge 23, Type (0, 1), BuildingBlock: XUDNAN_clean_linker_2, # of connection points: 2
#     Edge 24, Type (0, 1), BuildingBlock: XUDNAN_clean_linker_2, # of connection points: 2
#     Edge 25, Type (0, 1), BuildingBlock: XUDNAN_clean_linker_2, # of connection points: 2
#     Edge 26, Type (0, 1), BuildingBlock: XUDNAN_clean_linker_2, # of connection points: 2
#     Edge 27, Type (0, 1), BuildingBlock: XUDNAN_clean_linker_2, # of connection points: 2
#     Edge 28, Type (0, 1), BuildingBlock: XUDNAN_clean_linker_2, # of connection points: 2
#     Edge 29, Type (0, 1), BuildingBlock: XUDNAN_clean_linker_2, # of connection points: 2
#     Edge 30, Type (0, 1), BuildingBlock: XUDNAN_clean_linker_2, # of connection points: 2
#     Edge 31, Type (0, 1), BuildingBlock: XUDNAN_clean_linker_2, # of connection points: 2
#     Edge 32, Type (0, 1), BuildingBlock: XUDNAN_clean_linker_2, # of connection points: 2
#     Edge 33, Type (0, 1), BuildingBlock: XUDNAN_clean_linker_2, # of connection points: 2
#     Edge 34, Type (0, 1), BuildingBlock: XUDNAN_clean_linker_2, # of connection points: 2
#     Edge 35, Type (0, 1), BuildingBlock: XUDNAN_clean_linker_2, # of connection points: 2
# Relax obj value: 0.384
# Max RMSD: 0.224
# Mean RMSD: 0.181
data_MOF--net-zzz--node1-HISSIN_clean_sbu_0--node2-BELTOD_clean_linker_0--edge1-XUDNAN_clean_linker_2
_symmetry_space_group_name_H-M    P1
_symmetry_Int_Tables_number       1
_symmetry_cell_setting            triclinic
loop_
_symmetry_equiv_pos_as_xyz
'x, y, z'
_cell_length_a     52.63338
_cell_length_b     52.7921
_cell_length_c     20.134423
_cell_angle_alpha  89.699128
_cell_angle_beta   92.16484
_cell_angle_gamma 91.372453
loop_
_atom_site_label
_atom_site_type_symbol
_atom_site_fract_x
_atom_site_fract_y
_atom_site_fract_z
_atom_type_partial_charge
P0 P 0.71808 0.49575 0.3203 0.0
H1 H 0.71902 0.51637 0.45565 0.0
H2 H 0.75461 0.52664 0.53262 0.0
H3 H 0.80629 0.52143 0.37151 0.0
H4 H 0.77049 0.51322 0.29463 0.0
H5 H 0.66873 0.48277 0.2608 0.0
H6 H 0.64393 0.49964 0.16725 0.0
H7 H 0.69877 0.56141 0.15025 0.0
H8 H 0.72402 0.5437 0.2438 0.0
H9 H 0.73944 0.44772 0.36339 0.0
H10 H 0.73706 0.49355 0.18548 0.0
O11 O 0.69909 0.48053 0.37263 0.0
H12 H 0.7721 0.42177 0.31649 0.0
H13 H 0.77014 0.46855 0.13948 0.0
C14 C 0.742 0.51341 0.36943 0.0
C15 C 0.7379 0.51842 0.43643 0.0
C16 C 0.75848 0.52383 0.4808 0.0
C17 C 0.78371 0.52389 0.45937 0.0
C18 C 0.78737 0.52147 0.39071 0.0
C19 C 0.76671 0.51662 0.34623 0.0
C20 C 0.69799 0.51222 0.26024 0.0
C21 C 0.67513 0.50033 0.23813 0.0
C22 C 0.66085 0.5101 0.1844 0.0
C23 C 0.66915 0.53203 0.1508 0.0
C24 C 0.69182 0.54437 0.17437 0.0
C25 C 0.70618 0.53447 0.22839 0.0
C26 C 0.73556 0.47235 0.27764 0.0
C27 C 0.74533 0.45168 0.31335 0.0
C28 C 0.76424 0.43706 0.2868 0.0
C29 C 0.77399 0.44319 0.22445 0.0
C30 C 0.7629 0.46295 0.18712 0.0
C31 C 0.74387 0.47738 0.21351 0.0
P32 P 0.01548 0.75763 0.22301 0.0
H33 H 0.05143 0.79019 0.29872 0.0
H34 H 0.04487 0.82507 0.37224 0.0
H35 H 0.96644 0.80059 0.39083 0.0
H36 H 0.97304 0.76604 0.31285 0.0
H37 H 0.05053 0.71674 0.20047 0.0
H38 H 0.04259 0.67526 0.15074 0.0
H39 H 0.96253 0.68119 0.18444 0.0
H40 H 0.97046 0.72341 0.23307 0.0
H41 H 0.98983 0.80641 0.2104 0.0
H42 H 0.996 0.73846 0.09398 0.0
O43 O 0.04452 0.76407 0.1958 0.0
H44 H 0.96833 0.82684 0.11752 0.0
H45 H 0.97397 0.75897 1.00051 0.0
C46 C 0.01273 0.7753 0.29963 0.0
C47 C 0.03294 0.79167 0.31991 0.0
C48 C 0.02911 0.8119 0.36267 0.0
C49 C 1.00494 0.81631 0.38732 0.0
C50 C 0.98521 0.7984 0.37177 0.0
C51 C 0.98906 0.77817 0.32821 0.0
C52 C 0.01107 0.72346 0.22037 0.0
C53 C 0.03131 0.70894 0.19956 0.0
C54 C 0.02675 0.68524 0.17024 0.0
C55 C 1.00188 0.67525 0.16218 0.0
C56 C 0.9819 0.68848 0.1897 0.0
C57 C 0.98646 0.71249 0.21841 0.0
C58 C 0.99413 0.77058 0.16027 0.0
C59 C 0.98555 0.79536 0.16617 0.0
C60 C 0.97299 0.80707 0.11268 0.0
C61 C 0.96923 0.79445 0.05163 0.0
C62 C 0.97645 0.7691 0.04705 0.0
C63 C 0.98904 0.75736 0.10071 0.0
P64 P 0.80626 0.05114 0.21544 0.0
H65 H 0.80522 0.03464 0.35372 0.0
H66 H 0.77015 0.0252 0.42606 0.0
H67 H 0.71794 0.02291 0.25543 0.0
H68 H 0.75363 0.03106 0.1826 0.0
H69 H 0.8616 0.05598 0.21851 0.0
H70 H 0.89281 0.04167 0.14167 0.0
H71 H 0.83603 0.99241 0.04696 0.0
H72 H 0.80421 0.00747 0.12349 0.0
H73 H 0.75886 0.07969 0.20297 0.0
H74 H 0.825 0.06896 0.08685 0.0
O75 O 0.82104 0.07124 0.26862 0.0
H76 H 0.73902 0.10299 0.11135 0.0
H77 H 0.80619 0.09383 0.99724 0.0
C78 C 0.78207 0.03454 0.26277 0.0
C79 C 0.7864 0.03134 0.33138 0.0
C80 C 0.76614 0.02623 0.37297 0.0
C81 C 0.7409 0.02436 0.34713 0.0
C82 C 0.73699 0.02458 0.27746 0.0
C83 C 0.75747 0.02936 0.23561 0.0
C84 C 0.83047 0.03254 0.17785 0.0
C85 C 0.85586 0.04142 0.18305 0.0
C86 C 0.87373 0.03347 0.13841 0.0
C87 C 0.8668 0.01615 0.08791 0.0
C88 C 0.84189 1.00574 0.08559 0.0
C89 C 0.82378 0.01409 0.12982 0.0
C90 C 0.79261 0.07082 0.15029 0.0
C91 C 0.76909 0.08214 0.1577 0.0
C92 C 0.75801 0.09611 0.10556 0.0
C93 C 0.77078 0.09996 0.04591 0.0
C94 C 0.79539 0.09053 0.0413 0.0
C95 C 0.80616 0.07613 0.09287 0.0
P96 P 0.50233 0.79927 0.25261 0.0
H97 H 0.53387 0.79456 0.37571 0.0
H98 H 0.54924 0.75714 0.43695 0.0
H99 H 0.52555 0.70973 0.27123 0.0
H100 H 0.51137 0.74681 0.20932 0.0
H101 H 0.48529 0.84818 0.20902 0.0
H102 H 0.49976 0.87833 0.12566 0.0
H103 H 0.5656 0.83309 0.09606 0.0
H104 H 0.55065 0.80246 0.17991 0.0
H105 H 0.45068 0.78057 0.27893 0.0
H106 H 0.50005 0.78511 0.11304 0.0
O107 O 0.48891 0.81393 0.31512 0.0
H108 H 0.42053 0.75403 0.21345 0.0
H109 H 0.47135 0.75757 0.04925 0.0
C110 C 0.52106 0.7737 0.28804 0.0
C111 C 0.53277 0.77626 0.3516 0.0
C112 C 0.54138 0.75485 0.38678 0.0
C113 C 0.53807 0.73051 0.35923 0.0
C114 C 0.52796 0.72822 0.29399 0.0
C115 C 0.5199 0.7496 0.25844 0.0
C116 C 0.51716 0.82334 0.2018 0.0
C117 C 0.50316 0.84496 0.1858 0.0
C118 C 0.51127 0.86205 0.13744 0.0
C119 C 0.5337 0.85801 0.10383 0.0
C120 C 0.54828 0.83676 0.12139 0.0
C121 C 0.53989 0.81935 0.16953 0.0
C122 C 0.47748 0.78497 0.20064 0.0
C123 C 0.45475 0.77632 0.22792 0.0
C124 C 0.43767 0.7609 0.19056 0.0
C125 C 0.44344 0.7533 0.12595 0.0
C126 C 0.4657 0.76328 0.09796 0.0
C127 C 0.4824 0.77906 0.13476 0.0
P128 P 0.28053 0.43152 0.1102 0.0
H129 H 0.2556 0.41107 0.98968 0.0
H130 H 0.22209 0.42785 0.91648 0.0
H131 H 0.23334 0.50136 1.0073 0.0
H132 H 0.26708 0.48443 0.08038 0.0
H133 H 0.31203 0.41273 0.21791 0.0
H134 H 0.35002 0.42876 0.27792 0.0
H135 H 0.35237 0.49366 0.14654 0.0
H136 H 0.31408 0.47711 0.08563 0.0
H137 H 0.23799 0.39852 0.14953 0.0
H138 H 0.27155 0.4711 0.20511 0.0
O139 O 0.28444 0.40097 0.09319 0.0
H140 H 0.20212 0.40632 0.22093 0.0
H141 H 0.2358 0.47901 0.27505 0.0
C142 C 0.26445 0.44655 0.0399 0.0
C143 C 0.25168 0.43107 0.99225 0.0
C144 C 0.23208 0.44058 0.95103 0.0
C145 C 0.22468 0.46587 0.95653 0.0
C146 C 0.23861 0.48183 1.00127 0.0
C147 C 0.25819 0.47222 0.04277 0.0
C148 C 0.31028 0.4436 0.147 0.0
C149 C 0.32083 0.43031 0.20144 0.0
C150 C 0.34244 0.43967 0.23633 0.0
C151 C 0.35417 0.46267 0.21772 0.0
C152 C 0.34386 0.47584 0.16211 0.0
C153 C 0.32195 0.46643 0.1272 0.0
C154 C 0.25762 0.43402 0.17321 0.0
C155 C 0.23801 0.41574 0.17849 0.0
C156 C 0.21754 0.42023 0.21883 0.0
C157 C 0.21631 0.4433 0.25275 0.0
C158 C 0.23637 0.46115 0.24894 0.0
C159 C 0.25687 0.45653 0.20951 0.0
P160 P 0.07111 0.31337 0.06793 0.0
H161 H 0.06631 0.29984 0.92625 0.0
H162 H 0.05715 0.2589 0.87375 0.0
H163 H 0.02871 0.23003 0.05833 0.0
H164 H 0.03876 0.2705 0.11099 0.0
H165 H 0.08243 0.36567 0.10753 0.0
H166 H 0.06596 0.39318 0.19165 0.0
H167 H 0.01078 0.33457 0.24034 0.0
H168 H 0.02614 0.30824 0.15274 0.0
H169 H 0.11392 0.28334 0.03079 0.0
H170 H 0.07504 0.29963 0.20977 0.0
O171 O 0.08758 0.33066 0.014 0.0
H172 H 0.12817 0.24347 0.07941 0.0
H173 H 0.088 0.2599 0.25708 0.0
C174 C 0.05288 0.28878 0.02276 0.0
C175 C 0.05703 0.28513 0.95486 0.0
C176 C 0.05189 0.26151 0.9247 0.0
C177 C 0.04262 0.24087 0.96193 0.0
C178 C 0.03625 0.24529 0.02819 0.0
C179 C 0.04143 0.26885 0.05823 0.0
C180 C 0.05532 0.3349 0.12248 0.0
C181 C 0.06627 0.35902 0.13503 0.0
C182 C 0.05707 0.37466 0.18442 0.0
C183 C 0.03696 0.36638 0.22405 0.0
C184 C 0.02586 0.34219 0.21056 0.0
C185 C 0.03476 0.32682 0.16014 0.0
C186 C 0.09296 0.29429 0.11597 0.0
C187 C 0.10953 0.27903 0.08182 0.0
C188 C 0.11737 0.256 0.10935 0.0
C189 C 0.1085 0.24792 0.1712 0.0
C190 C 0.09524 0.26521 0.20923 0.0
C191 C 0.08758 0.2882 0.18181 0.0
P192 P 0.2901 0.03075 0.17061 0.0
H193 H 0.32195 0.06882 0.10498 0.0
H194 H 0.34759 0.06669 1.00707 0.0
H195 H 0.31026 0.99562 0.95288 0.0
H196 H 0.28414 0.99823 0.05078 0.0
H197 H 0.27219 0.06754 0.26525 0.0
H198 H 0.2312 0.07267 0.3147 0.0
H199 H 0.19669 0.02023 0.17241 0.0
H200 H 0.23825 0.01488 0.12296 0.0
H201 H 0.32598 0.99094 0.14219 0.0
H202 H 0.26339 1.00082 0.27161 0.0
O203 O 0.31071 0.04788 0.21797 0.0
H204 H 0.33536 0.95087 0.19655 0.0
H205 H 0.27316 0.96087 0.32683 0.0
C206 C 0.30128 0.03349 0.08623 0.0
C207 C 0.31868 0.05308 0.07122 0.0
C208 C 0.33371 0.05165 0.01539 0.0
C209 C 0.33171 0.03058 0.97271 0.0
C210 C 0.31254 0.01211 0.98449 0.0
C211 C 0.2974 0.01363 0.04048 0.0
C212 C 0.25845 0.04103 0.18942 0.0
C213 C 0.2558 0.05761 0.24303 0.0
C214 C 0.2323 0.06029 0.27221 0.0
C215 C 0.21068 0.04657 0.24841 0.0
C216 C 0.21294 0.03114 0.19198 0.0
C217 C 0.23665 0.02827 0.16308 0.0
C218 C 0.29339 0.9987 0.20086 0.0
C219 C 0.31349 0.98406 0.18012 0.0
C220 C 0.31886 0.96104 0.21131 0.0
C221 C 0.30471 0.95256 0.26526 0.0
C222 C 0.28409 0.96679 0.28471 0.0
C223 C 0.27852 0.98969 0.2529 0.0
P224 P 0.48035 0.23181 0.0264 0.0
H225 H 0.474 0.25117 0.88941 0.0
H226 H 0.48624 0.29213 0.84149 0.0
H227 H 0.53542 0.30745 0.01366 0.0
H228 H 0.52266 0.26696 0.06199 0.0
H229 H 0.46435 0.17934 0.04879 0.0
H230 H 0.47958 0.1491 0.13193 0.0
H231 H 0.54837 0.19435 0.16252 0.0
H232 H 0.53299 0.22462 0.07917 0.0
H233 H 0.45599 0.28061 0.04162 0.0
H234 H 0.4817 0.22022 0.17116 0.0
O235 O 0.45461 0.22197 0.982 0.0
H236 H 0.45457 0.30867 0.13735 0.0
H237 H 0.48207 0.24813 0.2646 0.0
C238 C 0.49754 0.25565 0.97929 0.0
C239 C 0.48824 0.26282 0.91574 0.0
C240 C 0.49521 0.28638 0.88827 0.0
C241 C 0.51148 0.30331 0.92418 0.0
C242 C 0.52258 0.29503 0.985 0.0
C243 C 0.51565 0.27152 0.01225 0.0
C244 C 0.49742 0.20446 0.0574 0.0
C245 C 0.48331 0.18217 0.07064 0.0
C246 C 0.492 0.16485 0.11885 0.0
C247 C 0.51493 0.16958 0.1552 0.0
C248 C 0.53036 0.1904 0.1364 0.0
C249 C 0.52169 0.20765 0.0879 0.0
C250 C 0.47016 0.24863 0.09825 0.0
C251 C 0.46086 0.27319 0.09059 0.0
C252 C 0.46031 0.2893 0.14539 0.0
C253 C 0.46916 0.28106 0.20858 0.0
C254 C 0.47527 0.25543 0.21703 0.0
C255 C 0.47548 0.23933 0.16254 0.0
Eu256 Eu 1.00981 0.04653 0.604 0.0
Eu257 Eu 0.05266 0.01799 0.69321 0.0
C258 C 0.04177 0.07723 0.71964 0.0
C259 C 0.98974 0.08418 0.4587 0.0
C260 C 0.9906 0.11077 0.45927 0.0
C261 C 0.01651 0.08488 0.3626 0.0
C262 C 1.0053 0.12421 0.41408 0.0
C263 C 1.00193 0.07141 0.40798 0.0
C264 C 0.01925 0.1113 0.36719 0.0
C265 C 0.98094 0.07018 0.5177 0.0
O266 O 0.01443 1.00615 0.73464 0.0
O267 O 0.9905 0.03988 0.70081 0.0
C268 C 0.99438 0.02036 0.7403 0.0
O269 O 0.99914 1.00461 0.596 0.0
O270 O 0.06981 0.00861 0.79027 0.0
O271 O 0.08404 0.99164 0.7022 0.0
O272 O 0.03918 0.99008 0.61436 0.0
C273 C 0.01566 0.98641 0.59229 0.0
O274 O 0.04377 0.04173 0.54015 0.0
O275 O 0.07594 0.03994 0.61892 0.0
O276 O 0.04936 0.05549 0.74413 0.0
O277 O 0.98359 0.04571 0.51731 0.0
O278 O 0.98826 0.07994 0.57482 0.0
O279 O 0.03055 0.07865 0.66025 0.0
C280 C 0.07335 0.96446 0.79109 0.0
C281 C 0.0683 0.9445 0.74593 0.0
C282 C 0.04669 0.94292 0.87052 0.0
C283 C 0.05148 0.92474 0.76172 0.0
C284 C 0.06368 0.96256 0.85509 0.0
C285 C 0.03954 0.9246 0.8227 0.0
C286 C 0.08181 0.98956 0.76636 0.0
C287 C 0.06811 0.04319 0.5568 0.0
H288 H 0.98134 0.1211 0.49753 0.0
H289 H 0.02699 0.07445 0.32684 0.0
H290 H 1.00659 0.14468 0.41759 0.0
H291 H 1.0017 0.05092 0.4059 0.0
H292 H 0.07551 0.94518 0.69626 0.0
H293 H 0.03823 0.94272 0.91876 0.0
H294 H 0.04644 0.91058 0.7246 0.0
H295 H 0.06738 0.97751 0.89111 0.0
Eu296 Eu 0.54049 0.04139 0.69838 0.0
Eu297 Eu 0.52302 0.99689 0.59267 0.0
C298 C 0.54238 0.9834 0.74032 0.0
C299 C 0.57649 0.09532 0.78475 0.0
C300 C 0.58908 0.1025 0.72711 0.0
C301 C 0.61021 0.11534 0.85215 0.0
C302 C 0.61251 0.11551 0.73214 0.0
C303 C 0.58671 0.1026 0.847 0.0
C304 C 0.62388 0.12112 0.79491 0.0
C305 C 0.5549 0.07728 0.78141 0.0
O306 O 0.48603 0.01058 0.63441 0.0
O307 O 0.50217 0.02774 0.73194 0.0
C308 C 0.48281 0.01914 0.69496 0.0
O309 O 0.52371 0.06162 0.60852 0.0
O310 O 0.52652 0.95763 0.56148 0.0
O311 O 0.5011 0.98261 0.50648 0.0
O312 O 0.5278 0.03167 0.52802 0.0
C313 C 0.52484 0.05527 0.54571 0.0
O314 O 0.57359 0.04004 0.63115 0.0
O315 O 0.56596 1.0012 0.58205 0.0
O316 O 0.52425 0.97911 0.69514 0.0
O317 O 0.53811 0.08036 0.73304 0.0
O318 O 0.56089 0.05365 0.78921 0.0
O319 O 0.55584 1.00459 0.73925 0.0
C320 C 0.48893 0.93977 0.51201 0.0
C321 C 0.48337 0.92714 0.4522 0.0
C322 C 0.45147 0.9202 0.55916 0.0
C323 C 0.4614 0.91195 0.44482 0.0
C324 C 0.47342 0.93556 0.56632 0.0
C325 C 0.44458 0.90918 0.4973 0.0
C326 C 0.50898 0.95949 0.51423 0.0
C327 C 0.5809 0.02116 0.59466 0.0
H328 H 0.58148 0.09689 0.67847 0.0
H329 H 0.61841 0.11882 0.90147 0.0
H330 H 0.62233 0.11994 0.68706 0.0
H331 H 0.57732 0.09701 0.89194 0.0
H332 H 0.49516 0.93027 0.40982 0.0
H333 H 0.4391 0.91824 0.60076 0.0
H334 H 0.45666 0.90418 0.39614 0.0
H335 H 0.47753 0.94522 0.613 0.0
Eu336 Eu 0.50012 0.53063 0.68877 0.0
Eu337 Eu 0.54812 0.50755 0.61265 0.0
C338 C 0.55704 0.53748 0.75402 0.0
C339 C 0.44873 0.56817 0.77656 0.0
C340 C 0.46278 0.59095 0.78336 0.0
C341 C 0.41563 0.58535 0.84244 0.0
C342 C 0.45335 0.61081 0.82011 0.0
C343 C 0.42504 0.56557 0.80556 0.0
C344 C 0.42981 0.60807 0.85072 0.0
C345 C 0.45864 0.54661 0.7412 0.0
O346 O 0.52661 0.47414 0.65744 0.0
O347 O 0.51066 0.49512 0.74416 0.0
C348 C 0.51779 0.47401 0.71749 0.0
O349 O 0.48455 0.50456 0.60711 0.0
O350 O 0.58333 0.48645 0.61536 0.0
O351 O 0.56619 0.49745 0.52072 0.0
O352 O 0.51617 0.51298 0.5367 0.0
C353 C 0.49255 0.50611 0.54634 0.0
O354 O 0.51405 0.56234 0.62162 0.0
O355 O 0.55448 0.54965 0.5993 0.0
O356 O 0.56535 0.52165 0.70998 0.0
O357 O 0.46416 0.5503 0.67931 0.0
O358 O 0.47565 0.53333 0.7734 0.0
O359 O 0.5336 0.54582 0.75202 0.0
C360 C 0.57943 0.45566 0.53128 0.0
C361 C 0.56605 0.4386 0.57154 0.0
C362 C 0.57686 0.42474 0.44234 0.0
C363 C 0.55678 0.4156 0.54624 0.0
C364 C 0.58556 0.44824 0.46725 0.0
C365 C 0.56131 0.40863 0.48056 0.0
C366 C 0.58204 0.48238 0.55145 0.0
C367 C 0.53679 0.56688 0.59826 0.0
H368 H 0.48117 0.59316 0.76134 0.0
H369 H 0.39739 0.58278 0.86504 0.0
H370 H 0.46488 0.62795 0.82647 0.0
H371 H 0.41397 0.54806 0.80051 0.0
H372 H 0.56116 0.44372 0.62131 0.0
H373 H 0.5814 0.41977 0.39214 0.0
H374 H 0.54454 0.40422 0.57704 0.0
H375 H 0.59583 0.46114 0.4353 0.0
Eu376 Eu 0.01078 0.52995 0.67276 0.0
Eu377 Eu 0.99581 0.48211 0.76854 0.0
C378 C 0.05421 0.50085 0.75764 0.0
C379 C 0.04994 0.55951 0.54916 0.0
C380 C 0.0728 0.55303 0.58289 0.0
C381 C 0.06598 0.54243 0.44745 0.0
C382 C 0.09122 0.5399 0.5503 0.0
C383 C 0.04736 0.55545 0.48029 0.0
C384 C 0.0873 0.53334 0.4833 0.0
C385 C 0.02698 0.56296 0.58758 0.0
O386 O 0.99634 0.51595 0.83706 0.0
O387 O 0.99635 0.54954 0.7631 0.0
C388 C 0.99466 0.54033 0.82378 0.0
O389 O 0.9688 0.52257 0.65185 0.0
O390 O 1.00197 0.45965 0.85871 0.0
O391 O 0.97466 0.44656 0.78267 0.0
O392 O 0.95832 0.50108 0.74674 0.0
C393 C 0.95171 0.51323 0.69173 0.0
O394 O 0.02325 0.49432 0.62139 0.0
O395 O 0.9925 0.46854 0.66251 0.0
O396 O 0.03875 0.48098 0.76076 0.0
O397 O 1.00862 0.54662 0.5734 0.0
O398 O 0.03056 0.56583 0.65166 0.0
O399 O 0.04592 0.52276 0.73636 0.0
C400 C 0.96536 0.43664 0.89381 0.0
C401 C 0.94667 0.41775 0.88031 0.0
C402 C 0.94746 0.44322 1.00175 0.0
C403 C 0.92824 0.41198 0.92651 0.0
C404 C 0.96576 0.44916 0.95531 0.0
C405 C 0.92835 0.42479 0.98747 0.0
C406 C 0.98393 0.44314 0.84291 0.0
C407 C 1.00864 0.47392 0.61629 0.0
H408 H 0.07553 0.55594 0.63588 0.0
H409 H 0.06269 0.53765 0.39552 0.0
H410 H 0.10781 0.53349 0.57851 0.0
H411 H 0.02988 0.56011 0.45328 0.0
H412 H 0.94611 0.40768 0.83349 0.0
H413 H 0.9478 0.45363 0.04802 0.0
H414 H 0.91382 0.39757 0.91447 0.0
H415 H 0.97993 0.46381 0.96726 0.0
H416 H 0.20373 0.04407 0.38358 0.0
H417 H 0.16228 0.05129 0.19434 0.0
H418 H 0.12195 0.0531 0.25322 0.0
H419 H 0.15773 1.00365 0.46078 0.0
H420 H 0.16238 0.01763 0.54194 0.0
H421 H 0.18805 0.01799 0.48526 0.0
H422 H 0.19221 0.0668 0.49561 0.0
H423 H 0.16651 0.06659 0.55227 0.0
H424 H 0.16476 0.08585 0.47813 0.0
H425 H 0.08609 0.05409 0.33257 0.0
H426 H 0.05696 0.05132 0.42497 0.0
H427 H 0.12115 0.04247 0.56444 0.0
C428 C 0.18619 0.04631 0.35452 0.0
C429 C 0.18626 0.04771 0.28407 0.0
C430 C 0.16278 0.05008 0.24807 0.0
C431 C 0.13977 0.05127 0.2812 0.0
C432 C 0.14042 0.04988 0.35053 0.0
C433 C 0.163 0.04727 0.38682 0.0
C434 C 0.15828 0.0452 0.46079 0.0
C435 C 0.16713 0.01959 0.48882 0.0
C436 C 0.17121 0.06744 0.49894 0.0
C437 C 0.12948 0.04691 0.4605 0.0
C438 C 0.11966 0.04985 0.39631 0.0
C439 C 0.09363 0.05174 0.38294 0.0
C440 C 0.07718 0.05017 0.43613 0.0
C441 C 0.08658 0.04664 0.50252 0.0
C442 C 0.11323 0.04525 0.51459 0.0
H443 H 0.51005 0.11787 0.18084 0.0
H444 H 0.53134 0.18965 0.27408 0.0
H445 H 0.53641 0.16811 0.38229 0.0
H446 H 0.47377 0.09301 0.31285 0.0
H447 H 0.48409 0.06087 0.30531 0.0
H448 H 0.48329 0.08146 0.23366 0.0
H449 H 0.53089 0.07345 0.21574 0.0
H450 H 0.53178 0.05265 0.287 0.0
H451 H 0.55389 0.07917 0.28296 0.0
H452 H 0.53604 0.13983 0.48183 0.0
H453 H 0.53436 0.1057 0.56546 0.0
H454 H 0.51482 0.05123 0.40977 0.0
C455 C 0.51608 0.12898 0.22392 0.0
C456 C 0.52059 0.1555 0.21848 0.0
C457 C 0.52833 0.1693 0.27631 0.0
C458 C 0.53103 0.15725 0.33831 0.0
C459 C 0.52612 0.13126 0.3421 0.0
C460 C 0.51916 0.11715 0.28645 0.0
C461 C 0.51497 0.08942 0.30487 0.0
C462 C 0.48739 0.08068 0.28818 0.0
C463 C 0.53402 0.07269 0.27061 0.0
C464 C 0.52031 0.09029 0.37959 0.0
C465 C 0.52653 0.11469 0.39984 0.0
C466 C 0.53142 0.1206 0.46651 0.0
C467 C 0.53024 0.10105 0.51378 0.0
C468 C 0.52445 0.07571 0.49445 0.0
C469 C 0.51942 0.07035 0.42621 0.0
H470 H 0.36247 0.46307 0.35372 0.0
H471 H 0.39796 0.48415 0.16974 0.0
H472 H 0.43692 0.49779 0.23371 0.0
H473 H 0.38993 0.5146 0.45342 0.0
H474 H 0.39385 0.49533 0.52708 0.0
H475 H 0.3686 0.48799 0.46686 0.0
H476 H 0.38512 0.44239 0.4567 0.0
H477 H 0.41048 0.44962 0.51665 0.0
H478 H 0.41769 0.43782 0.43582 0.0
H479 H 0.47283 0.50715 0.31775 0.0
H480 H 0.50199 0.51398 0.41505 0.0
H481 H 0.44301 0.48722 0.54508 0.0
C482 C 0.37843 0.47054 0.32676 0.0
C483 C 0.37711 0.47246 0.25643 0.0
C484 C 0.39835 0.48271 0.22343 0.0
C485 C 0.42064 0.49036 0.25939 0.0
C486 C 0.42139 0.48782 0.32849 0.0
C487 C 0.40076 0.47837 0.36188 0.0
C488 C 0.40646 0.47756 0.43636 0.0
C489 C 0.38865 0.49491 0.47309 0.0
C490 C 0.40484 0.45022 0.46292 0.0
C491 C 0.43364 0.48785 0.43975 0.0
C492 C 0.4419 0.49357 0.37691 0.0
C493 C 0.46647 0.50287 0.36715 0.0
C494 C 0.48295 0.50662 0.42291 0.0
C495 C 0.47487 0.50121 0.48803 0.0
C496 C 0.44981 0.49165 0.49618 0.0
H497 H 0.06431 0.40192 0.30312 0.0
H498 H 0.98855 0.36828 0.27173 0.0
H499 H 0.97397 0.39202 0.36685 0.0
H500 H 0.06619 0.40393 0.47791 0.0
H501 H 0.08128 0.4348 0.48613 0.0
H502 H 0.08683 0.41566 0.41459 0.0
H503 H 0.07217 0.4515 0.3368 0.0
H504 H 0.06601 0.47138 0.40656 0.0
H505 H 0.04114 0.46464 0.34502 0.0
H506 H 0.96784 0.41685 0.46943 0.0
H507 H 0.96941 0.44446 0.56759 0.0
H508 H 0.04754 0.46625 0.52867 0.0
C509 C 0.04452 0.39974 0.31514 0.0
C510 C 0.02784 0.38251 0.2796 0.0
C511 C 1.00216 0.38044 0.29859 0.0
C512 C 0.99352 0.39414 0.35247 0.0
C513 C 0.0105 0.41047 0.38666 0.0
C514 C 0.03535 0.41376 0.3682 0.0
C515 C 0.04942 0.43306 0.41307 0.0
C516 C 0.07229 0.42114 0.45009 0.0
C517 C 0.05768 0.45652 0.37295 0.0
C518 C 0.02874 0.43948 0.46068 0.0
C519 C 1.00651 0.42608 0.44434 0.0
C520 C 0.98503 0.42767 0.48225 0.0
C521 C 0.98618 0.44335 0.53827 0.0
C522 C 1.00855 0.45762 0.55602 0.0
C523 C 0.03008 0.45578 0.51613 0.0
H524 H 0.88991 0.05034 1.00627 0.0
H525 H 0.88481 0.97005 0.05055 0.0
H526 H 0.91696 0.96195 0.96633 0.0
H527 H 0.89576 0.0432 0.82819 0.0
H528 H 0.91723 0.07013 0.82144 0.0
H529 H 0.89417 0.06924 0.88535 0.0
H530 H 0.93028 0.07616 0.97493 0.0
H531 H 0.95344 0.07698 0.91134 0.0
H532 H 0.95648 0.05476 0.97929 0.0
H533 H 0.95218 0.96351 0.88107 0.0
H534 H 0.98361 0.97383 0.79571 0.0
H535 H 0.96288 0.05275 0.80199 0.0
C536 C 0.89557 0.03105 0.99809 0.0
C537 C 0.88508 0.0108 0.03523 0.0
C538 C 0.89265 0.98579 0.0226 0.0
C539 C 0.91094 0.98107 0.97505 0.0
C540 C 0.92113 1.00154 0.93966 0.0
C541 C 0.91337 0.02599 0.95 0.0
C542 C 0.92662 0.04464 0.9045 0.0
C543 C 0.90729 0.05756 0.85705 0.0
C544 C 0.94266 0.06429 0.94494 0.0
C545 C 0.94333 0.027 0.86732 0.0
C546 C 0.94015 1.00222 0.8887 0.0
C547 C 0.95452 0.9828 0.86352 0.0
C548 C 0.9724 0.98885 0.81518 0.0
C549 C 0.97551 0.01403 0.79153 0.0
C550 C 0.96066 0.03324 0.81812 0.0
H551 H 0.50364 0.87536 0.99997 0.0
H552 H 0.58038 0.8809 0.08556 0.0
H553 H 0.59157 0.9128 0.99994 0.0
H554 H 0.52118 0.88164 0.82686 0.0
H555 H 0.4936 0.89974 0.80366 0.0
H556 H 0.49211 0.87692 0.87034 0.0
H557 H 0.47748 0.91185 0.94934 0.0
H558 H 0.47901 0.93478 0.88302 0.0
H559 H 0.49665 0.94039 0.96022 0.0
H560 H 0.59307 0.94684 0.90966 0.0
H561 H 0.58592 0.97731 0.81732 0.0
H562 H 0.5088 0.94764 0.78748 0.0
C563 C 0.52285 0.88321 1.0005 0.0
C564 C 0.54115 0.87575 0.04966 0.0
C565 C 0.56613 0.88624 0.0482 0.0
C566 C 0.5726 0.90444 0.99994 0.0
C567 C 0.55396 0.91167 0.95281 0.0
C568 C 0.52968 0.90109 0.95223 0.0
C569 C 0.51312 0.91202 0.89637 0.0
C570 C 0.5045 0.89135 0.84634 0.0
C571 C 0.49022 0.92556 0.9239 0.0
C572 C 0.53172 0.93073 0.86608 0.0
C573 C 0.55514 0.93038 0.89954 0.0
C574 C 0.57491 0.94699 0.88263 0.0
C575 C 0.57065 0.96429 0.83022 0.0
C576 C 0.54691 0.96469 0.79466 0.0
C577 C 0.52731 0.94752 0.81288 0.0
H578 H 0.61716 0.531 0.1218 0.0
H579 H 0.68956 0.55119 0.03683 0.0
H580 H 0.66745 0.56038 0.92981 0.0
H581 H 0.59221 0.49784 0.98402 0.0
H582 H 0.55992 0.50781 0.99135 0.0
H583 H 0.58081 0.50639 0.06401 0.0
H584 H 0.57242 0.5535 0.08869 0.0
H585 H 0.55148 0.55507 0.01589 0.0
H586 H 0.578 0.57716 0.02566 0.0
H587 H 0.6387 0.56151 0.82818 0.0
H588 H 0.60514 0.5554 0.74016 0.0
H589 H 0.55084 0.53511 0.88899 0.0
C590 C 0.6284 0.53768 0.08103 0.0
C591 C 0.65525 0.5405 0.08849 0.0
C592 C 0.66903 0.54936 0.03345 0.0
C593 C 0.65661 0.55451 0.97207 0.0
C594 C 0.63029 0.55093 0.96615 0.0
C595 C 0.61628 0.54289 0.01926 0.0
C596 C 0.58844 0.53874 0.99828 0.0
C597 C 0.57985 0.51105 1.01011 0.0
C598 C 0.57159 0.55722 0.03428 0.0
C599 C 0.58913 0.54489 0.92459 0.0
C600 C 0.61347 0.55208 0.90732 0.0
C601 C 0.61948 0.55648 0.84136 0.0
C602 C 0.60031 0.55298 0.79169 0.0
C603 C 0.57533 0.54542 0.80801 0.0
C604 C 0.56957 0.5418 0.87547 0.0
H605 H 0.01756 0.66731 0.03614 0.0
H606 H 0.97449 0.63193 0.19227 0.0
H607 H 0.96703 0.59382 0.12184 0.0
H608 H 0.97725 0.64352 0.89907 0.0
H609 H 1.00337 0.63942 0.84508 0.0
H610 H 1.00534 0.6636 0.90798 0.0
H611 H 0.04723 0.64482 0.95598 0.0
H612 H 0.04541 0.62062 0.89319 0.0
H613 H 0.04778 0.61187 0.97982 0.0
H614 H 0.96671 0.55851 0.03593 0.0
H615 H 0.97078 0.53021 0.93958 0.0
H616 H 0.01156 0.58993 0.83637 0.0
C617 C 1.00663 0.65148 0.05556 0.0
C618 C 0.99682 0.65242 0.12002 0.0
C619 C 0.9822 0.63156 0.14317 0.0
C620 C 0.97793 0.60986 0.10352 0.0
C621 C 0.98802 0.60949 0.04031 0.0
C622 C 1.00181 0.62992 0.01621 0.0
C623 C 0.0102 0.62502 0.94621 0.0
C624 C 0.99833 0.64402 0.89666 0.0
C625 C 0.03939 0.62561 0.94369 0.0
C626 C 0.9993 0.59847 0.93479 0.0
C627 C 0.98673 0.58977 0.98987 0.0
C628 C 0.97623 0.56529 0.99233 0.0
C629 C 0.97868 0.54932 0.93736 0.0
C630 C 0.99121 0.55793 0.88006 0.0
C631 C 1.00144 0.58295 0.87885 0.0
H632 H 0.11185 0.22616 0.29561 0.0
H633 H 0.10022 0.20786 0.08666 0.0
H634 H 0.08323 0.16592 0.1166 0.0
H635 H 0.12142 0.15763 0.35966 0.0
H636 H 0.10356 0.16442 0.43183 0.0
H637 H 0.12309 0.18892 0.39528 0.0
H638 H 0.08387 0.21758 0.38517 0.0
H639 H 0.06409 0.19312 0.41971 0.0
H640 H 0.05573 0.2064 0.33938 0.0
H641 H 0.05712 0.13153 0.16664 0.0
H642 H 0.02721 0.10635 0.23391 0.0
H643 H 0.05359 0.14761 0.40996 0.0
C644 C 0.10673 0.21293 0.25617 0.0
C645 C 0.10731 0.22051 0.18885 0.0
C646 C 0.10041 0.20258 0.13868 0.0
C647 C 0.09052 0.17861 0.15523 0.0
C648 C 0.08792 0.17267 0.22212 0.0
C649 C 0.09637 0.18911 0.27199 0.0
C650 C 0.08756 0.18025 0.33915 0.0
C651 C 0.11026 0.17233 0.38413 0.0
C652 C 0.07188 0.20054 0.37273 0.0
C653 C 0.07118 0.15751 0.31849 0.0
C654 C 0.07222 0.15295 0.25116 0.0
C655 C 0.05671 0.13446 0.21974 0.0
C656 C 0.03968 0.12036 0.25816 0.0
C657 C 0.03801 0.1252 0.3269 0.0
C658 C 0.05435 0.14367 0.35735 0.0
H659 H 0.31447 0.9551 0.39725 0.0
H660 H 0.32002 0.90548 0.22857 0.0
H661 H 0.349 0.87824 0.29442 0.0
H662 H 0.3732 0.96107 0.42992 0.0
H663 H 0.37351 0.96195 0.51951 0.0
H664 H 0.34547 0.97041 0.4729 0.0
H665 H 0.31931 0.93639 0.53563 0.0
H666 H 0.34761 0.92779 0.58301 0.0
H667 H 0.32928 0.90396 0.53725 0.0
H668 H 0.38614 0.86502 0.36159 0.0
H669 H 0.42849 0.86928 0.41702 0.0
H670 H 0.40101 0.92887 0.5407 0.0
C671 C 0.32053 0.93757 0.37589 0.0
C672 C 0.31483 0.93211 0.30846 0.0
C673 C 0.32397 0.90974 0.28056 0.0
C674 C 0.34033 0.8941 0.31788 0.0
C675 C 0.34733 0.9011 0.38297 0.0
C676 C 0.33737 0.92223 0.41214 0.0
C677 C 0.35217 0.92938 0.47553 0.0
C678 C 0.36166 0.95731 0.47421 0.0
C679 C 0.33613 0.92405 0.53646 0.0
C680 C 0.37381 0.91108 0.47295 0.0
C681 C 0.36993 0.89395 0.42152 0.0
C682 C 0.38908 0.87788 0.40299 0.0
C683 C 0.4132 0.88056 0.43446 0.0
C684 C 0.41815 0.89963 0.48275 0.0
C685 C 0.39772 0.91376 0.50512 0.0
H686 H 0.48814 0.32957 0.19429 0.0
H687 H 0.46729 0.27426 0.34461 0.0
H688 H 0.48915 0.30075 0.4306 0.0
H689 H 0.54766 0.34509 0.2543 0.0
H690 H 0.54651 0.37863 0.2376 0.0
H691 H 0.52716 0.35687 0.18791 0.0
H692 H 0.48639 0.38044 0.21644 0.0
H693 H 0.50567 0.40288 0.26439 0.0
H694 H 0.47971 0.38605 0.30222 0.0
H695 H 0.5191 0.32979 0.49634 0.0
H696 H 0.54734 0.36371 0.54211 0.0
H697 H 0.54364 0.40244 0.35083 0.0
C698 C 0.48714 0.32335 0.24544 0.0
C699 C 0.47622 0.29952 0.26218 0.0
C700 C 0.47601 0.29211 0.33002 0.0
C701 C 0.48831 0.30707 0.37936 0.0
C702 C 0.50009 0.32971 0.36034 0.0
C703 C 0.49881 0.33826 0.2954 0.0
C704 C 0.51329 0.36315 0.28779 0.0
C705 C 0.53493 0.36076 0.23902 0.0
C706 C 0.49518 0.38439 0.26648 0.0
C707 C 0.5236 0.36683 0.35825 0.0
C708 C 0.51597 0.34725 0.3992 0.0
C709 C 0.52455 0.34566 0.46528 0.0
C710 C 0.54059 0.36511 0.4908 0.0
C711 C 0.54751 0.38622 0.45072 0.0
C712 C 0.53907 0.38669 0.38319 0.0
H713 H 0.1873 0.48438 0.2316 0.0
H714 H 0.1947 0.4172 0.35469 0.0
H715 H 0.15944 0.43143 0.4228 0.0
H716 H 0.17723 0.52685 0.35617 0.0
H717 H 0.15413 0.54541 0.31044 0.0
H718 H 0.17747 0.5284 0.26671 0.0
H719 H 0.14172 0.50513 0.19701 0.0
H720 H 0.11822 0.52233 0.24005 0.0
H721 H 0.11677 0.48819 0.23875 0.0
H722 H 0.12808 0.45602 0.48557 0.0
H723 H 0.09985 0.48728 0.53363 0.0
H724 H 0.1119 0.53765 0.36638 0.0
C725 C 0.18111 0.4725 0.27224 0.0
C726 C 0.19355 0.44983 0.28857 0.0
C727 C 0.18516 0.43458 0.34168 0.0
C728 C 0.16524 0.44253 0.38041 0.0
C729 C 0.15381 0.46544 0.36415 0.0
C730 C 0.16114 0.47997 0.31058 0.0
C731 C 0.14675 0.5044 0.30546 0.0
C732 C 0.16499 0.52762 0.31 0.0
C733 C 0.12986 0.50504 0.24152 0.0
C734 C 0.13094 0.50193 0.36629 0.0
C735 C 0.13518 0.47926 0.39928 0.0
C736 C 0.12425 0.4736 0.4596 0.0
C737 C 0.10853 0.49154 0.48678 0.0
C738 C 0.10387 0.51476 0.45347 0.0
C739 C 0.11497 0.51986 0.39218 0.0
H740 H 0.99435 0.79303 0.93731 0.0
H741 H 0.93386 0.83148 0.03236 0.0
H742 H 0.93861 0.86731 0.95486 0.0
H743 H 0.03355 0.83708 0.93676 0.0
H744 H 0.04771 0.83376 0.85721 0.0
H745 H 0.03271 0.8069 0.89489 0.0
H746 H 1.00262 0.80023 0.79175 0.0
H747 H 0.01816 0.82675 0.75189 0.0
H748 H 0.98414 0.82617 0.75951 0.0
H749 H 0.96014 0.90324 0.9032 0.0
H750 H 0.99295 0.93436 0.86981 0.0
H751 H 0.03985 0.87352 0.80575 0.0
C752 C 0.98085 0.80815 0.93856 0.0
C753 C 0.96387 0.80963 0.9909 0.0
C754 C 0.94706 0.83008 0.99263 0.0
C755 C 0.9496 0.85049 0.94854 0.0
C756 C 0.96866 0.84983 0.9023 0.0
C757 C 0.98345 0.82872 0.89523 0.0
C758 C 1.00592 0.83454 0.85225 0.0
C759 C 0.03143 0.82769 0.88748 0.0
C760 C 1.00249 0.82113 0.78484 0.0
C761 C 1.00341 0.86283 0.84408 0.0
C762 C 0.98127 0.87116 0.87097 0.0
C763 C 0.97697 0.89688 0.8796 0.0
C764 C 0.99585 0.91441 0.86146 0.0
C765 C 0.01878 0.90615 0.8353 0.0
C766 C 0.02218 0.88017 0.82441 0.0
H767 H 0.73609 0.13824 0.0432 0.0
H768 H 0.77437 0.0867 0.91519 0.0
H769 H 0.74629 0.09899 0.82154 0.0
H770 H 0.6787 0.11985 0.99811 0.0
H771 H 0.66325 0.14994 1.00018 0.0
H772 H 0.69171 0.14519 0.04969 0.0
H773 H 0.71307 0.1842 0.99406 0.0
H774 H 0.68443 0.18906 0.94398 0.0
H775 H 0.7144 0.18579 0.9048 0.0
H776 H 0.70798 0.1058 0.75351 0.0
H777 H 0.66277 0.10489 0.72052 0.0
H778 H 0.64713 0.15256 0.88831 0.0
C779 C 0.73907 0.13014 0.99495 0.0
C780 C 0.75755 0.11152 0.98695 0.0
C781 C 0.76083 0.10142 0.92284 0.0
C782 C 0.74487 0.10832 0.86895 0.0
C783 C 0.72575 0.12547 0.8795 0.0
C784 C 0.72295 0.13653 0.94087 0.0
C785 C 0.69803 0.15025 0.943 0.0
C786 C 0.682 0.1407 1.0011 0.0
C787 C 0.70277 0.17904 0.94666 0.0
C788 C 0.68607 0.14273 0.87615 0.0
C789 C 0.70284 0.12943 0.83907 0.0
C790 C 0.69493 0.11693 0.78085 0.0
C791 C 0.66904 0.11662 0.76223 0.0
C792 C 0.65126 0.1286 0.80202 0.0
C793 C 0.66027 0.1432 0.85704 0.0
H794 H 0.43498 0.74653 0.99114 0.0
H795 H 0.4198 0.71189 0.18222 0.0
H796 H 0.40492 0.67301 0.1258 0.0
H797 H 0.38518 0.70928 0.88591 0.0
H798 H 0.40711 0.70659 0.81981 0.0
H799 H 0.40819 0.73438 0.87167 0.0
H800 H 0.45593 0.72713 0.89953 0.0
H801 H 0.45496 0.69926 0.84878 0.0
H802 H 0.4655 0.69721 0.93483 0.0
H803 H 0.40149 0.63525 0.05417 0.0
H804 H 0.41017 0.60193 0.97346 0.0
H805 H 0.43083 0.65941 0.82925 0.0
C806 C 0.42789 0.73105 0.02118 0.0
C807 C 0.42865 0.73251 0.09137 0.0
C808 C 0.41898 0.71173 0.12845 0.0
C809 C 0.41055 0.68936 0.09672 0.0
C810 C 0.41186 0.68796 0.02789 0.0
C811 C 0.4201 0.70835 0.99039 0.0
C812 C 0.4242 0.70067 0.91925 0.0
C813 C 0.40502 0.71349 0.87133 0.0
C814 C 0.45178 0.7064 0.89953 0.0
C815 C 0.41872 0.67247 0.92388 0.0
C816 C 0.41077 0.66566 0.98631 0.0
C817 C 0.40702 0.6404 1.00457 0.0
C818 C 0.412 0.62158 0.95837 0.0
C819 C 0.42104 0.62813 0.89503 0.0
C820 C 0.42382 0.65391 0.87723 0.0
H821 H 0.78612 0.43073 0.09708 0.0
H822 H 0.81608 0.4309 0.30097 0.0
H823 H 0.85799 0.41929 0.26239 0.0
H824 H 0.82751 0.37969 0.03313 0.0
H825 H 0.83107 0.39619 0.95531 0.0
H826 H 0.80213 0.39883 0.99965 0.0
H827 H 0.80767 0.44775 0.99863 0.0
H828 H 0.83662 0.44528 0.95489 0.0
H829 H 0.83674 0.46207 0.03262 0.0
H830 H 0.89807 0.41553 0.20155 0.0
H831 H 0.93287 0.41837 0.12251 0.0
H832 H 0.87733 0.4219 0.95827 0.0
C833 C 0.80132 0.4277 0.13379 0.0
C834 C 0.79764 0.43155 0.20214 0.0
C835 C 0.81812 0.42749 0.24849 0.0
C836 C 0.84212 0.42101 0.22701 0.0
C837 C 0.84535 0.41848 0.15907 0.0
C838 C 0.82543 0.42142 0.11313 0.0
C839 C 0.83453 0.42066 0.04274 0.0
C840 C 0.82313 0.39745 1.00552 0.0
C841 C 0.82854 0.44541 1.00506 0.0
C842 C 0.86281 0.41805 0.05635 0.0
C843 C 0.86864 0.41641 0.12373 0.0
C844 C 0.89372 0.41624 0.14862 0.0
C845 C 0.91334 0.41806 0.1035 0.0
C846 C 0.90774 0.42013 0.03439 0.0
C847 C 0.88214 0.41966 1.01071 0.0
H848 H 0.0288 0.22304 0.83465 0.0
H849 H 0.05785 0.1984 0.02853 0.0
H850 H 0.06131 0.1551 0.98647 0.0
H851 H 0.99135 0.16528 0.798 0.0
H852 H 0.99801 0.16545 0.71084 0.0
H853 H 0.99755 0.19486 0.75576 0.0
H854 H 0.04318 0.20578 0.71927 0.0
H855 H 0.04383 0.17632 0.67461 0.0
H856 H 0.06824 0.18379 0.73711 0.0
H857 H 0.06336 0.11489 0.92409 0.0
H858 H 0.06078 0.07892 0.84744 0.0
H859 H 0.02916 0.12756 0.69187 0.0
C860 C 0.03583 0.20851 0.86824 0.0
C861 C 0.0429 0.21434 0.93539 0.0
C862 C 0.0519 0.19459 0.97747 0.0
C863 C 0.05414 0.16985 0.95382 0.0
C864 C 0.04719 0.16481 0.88771 0.0
C865 C 0.03794 0.18342 0.84549 0.0
C866 C 0.03144 0.17246 0.77682 0.0
C867 C 1.00289 0.17464 0.75934 0.0
C868 C 0.04764 0.18536 0.72382 0.0
C869 C 0.03869 0.1449 0.78718 0.0
C870 C 0.04787 0.14112 0.85157 0.0
C871 C 0.05609 0.11758 0.87362 0.0
C872 C 0.05459 0.09719 0.82926 0.0
C873 C 0.04476 0.10014 0.76309 0.0
C874 C 0.03682 0.12453 0.74186 0.0
H875 H 0.38319 0.04198 0.97855 0.0
H876 H 0.32349 0.01112 0.84593 0.0
H877 H 0.35515 1.0047 0.76006 0.0
H878 H 0.41812 0.07585 0.85373 0.0
H879 H 0.44869 0.06907 0.89223 0.0
H880 H 0.42122 0.07118 0.94241 0.0
H881 H 0.42944 0.0262 0.98934 0.0
H882 H 0.45689 0.02393 0.93917 0.0
H883 H 0.43185 1.00009 0.93276 0.0
H884 H 0.39451 1.00156 0.68767 0.0
H885 H 0.43688 1.00205 0.63783 0.0
H886 H 0.47001 0.03546 0.81859 0.0
C887 C 0.37657 0.03421 0.93117 0.0
C888 C 0.3506 0.02725 0.9193 0.0
C889 C 0.34317 0.01651 0.85684 0.0
C890 C 0.36107 0.01288 0.80749 0.0
C891 C 0.38647 0.01998 0.82105 0.0
C892 C 0.39414 0.03043 0.88155 0.0
C893 C 0.42253 0.03623 0.88452 0.0
C894 C 0.42795 0.06478 0.89375 0.0
C895 C 0.43596 0.02068 0.93972 0.0
C896 C 0.42973 0.02754 0.81619 0.0
C897 C 0.40875 0.01818 0.7801 0.0
C898 C 0.41099 0.00893 0.71567 0.0
C899 C 0.4352 0.0093 0.68764 0.0
C900 C 0.45697 0.01886 0.72383 0.0
C901 C 0.45392 0.02806 0.78906 0.0
H902 H 0.51923 0.32389 0.79842 0.0
H903 H 0.50822 0.3445 1.00369 0.0
H904 H 0.50939 0.38958 0.97249 0.0
H905 H 0.56291 0.37721 0.7641 0.0
H906 H 0.55086 0.38171 0.68013 0.0
H907 H 0.54964 0.35066 0.71747 0.0
H908 H 0.50111 0.3475 0.69278 0.0
H909 H 0.5021 0.37844 0.65474 0.0
H910 H 0.48109 0.37204 0.72183 0.0
H911 H 0.50929 0.43203 0.92013 0.0
H912 H 0.51056 0.47024 0.85023 0.0
H913 H 0.52267 0.42392 0.67706 0.0
C914 C 0.5172 0.33793 0.83673 0.0
C915 C 0.51391 0.33052 0.90381 0.0
C916 C 0.51132 0.34956 0.95237 0.0
C917 C 0.51174 0.37528 0.93504 0.0
C918 C 0.51492 0.38193 0.86883 0.0
C919 C 0.51786 0.36393 0.82034 0.0
C920 C 0.52129 0.37659 0.75297 0.0
C921 C 0.54774 0.37122 0.72715 0.0
C922 C 0.50013 0.36814 0.70262 0.0
C923 C 0.51904 0.40439 0.77113 0.0
C924 C 0.51542 0.40687 0.83838 0.0
C925 C 0.51226 0.43038 0.86745 0.0
C926 C 0.51289 0.45203 0.82702 0.0
C927 C 0.51675 0.45027 0.75788 0.0
C928 C 0.5199 0.426 0.7297 0.0
H929 H 0.17837 0.44098 0.93593 0.0
H930 H 0.21837 0.5117 0.8933 0.0
H931 H 0.17964 0.5275 0.83519 0.0
H932 H 0.14123 0.43688 0.77948 0.0
H933 H 0.11329 0.42409 0.81787 0.0
H934 H 0.14439 0.41798 0.85404 0.0
H935 H 0.13095 0.43642 0.96602 0.0
H936 H 0.09984 0.44263 0.93019 0.0
H937 H 0.1187 0.46799 0.9681 0.0
H938 H 0.13636 0.53602 0.78398 0.0
H939 H 0.09157 0.53724 0.74503 0.0
H940 H 0.07905 0.46084 0.82007 0.0
C941 C 0.17915 0.45964 0.91343 0.0
C942 C 0.20159 0.47504 0.91895 0.0
C943 C 0.20147 0.49959 0.89014 0.0
C944 C 0.17957 0.50868 0.85673 0.0
C945 C 0.15781 0.49305 0.85252 0.0
C946 C 0.1574 0.46906 0.88011 0.0
C947 C 0.13126 0.45643 0.87037 0.0
C948 C 0.13263 0.43242 0.82791 0.0
C949 C 0.1195 0.45053 0.93767 0.0
C950 C 0.11698 0.47713 0.8332 0.0
C951 C 0.13274 0.49803 0.82329 0.0
C952 C 0.1239 0.51972 0.79131 0.0
C953 C 0.0983 0.52019 0.76931 0.0
C954 C 0.08158 0.49912 0.77917 0.0
C955 C 0.09125 0.47722 0.81128 0.0
H956 H 0.0381 0.84485 0.46983 0.0
H957 H 0.961 0.84408 0.38458 0.0
H958 H 0.95444 0.88601 0.43317 0.0
H959 H 0.0269 0.87999 0.62257 0.0
H960 H 0.05702 0.89681 0.61693 0.0
H961 H 0.05305 0.86544 0.58317 0.0
H962 H 0.06831 0.88397 0.47068 0.0
H963 H 0.07052 0.91537 0.50522 0.0
H964 H 0.05094 0.90936 0.43135 0.0
H965 H 0.95722 0.93006 0.48506 0.0
H966 H 0.96919 0.97147 0.5358 0.0
H967 H 0.04501 0.94418 0.58186 0.0
C968 C 0.01973 0.85328 0.46127 0.0
C969 C 1.00006 0.84062 0.42322 0.0
C970 C 0.97632 0.85271 0.41457 0.0
C971 C 0.97243 0.8768 0.44157 0.0
C972 C 0.99245 0.88889 0.47712 0.0
C973 C 0.01563 0.87747 0.48705 0.0
C974 C 0.03463 0.89506 0.52339 0.0
C975 C 0.04337 0.88363 0.59055 0.0
C976 C 0.05744 0.9013 0.48006 0.0
C977 C 0.01852 0.91817 0.53252 0.0
C978 C 0.99422 0.91426 0.50565 0.0
C979 C 0.97618 0.93323 0.50656 0.0
C980 C 0.98317 0.95675 0.53547 0.0
C981 C 1.00805 0.96128 0.56295 0.0
C982 C 0.02581 0.9415 0.56149 0.0
H983 H 0.69355 0.99862 0.33973 0.0
H984 H 0.73816 0.05336 0.45817 0.0
H985 H 0.70306 0.05689 0.53407 0.0
H986 H 0.63319 0.02887 0.35571 0.0
H987 H 0.61488 0.99972 0.3618 0.0
H988 H 0.64379 1.00056 0.31659 0.0
H989 H 0.66137 0.96402 0.38972 0.0
H990 H 0.63252 0.96309 0.43521 0.0
H991 H 0.66284 0.96732 0.47887 0.0
H992 H 0.66316 0.05634 0.59545 0.0
H993 H 0.62061 0.05094 0.64053 0.0
H994 H 0.60024 0.99608 0.48635 0.0
C995 C 0.69595 0.01128 0.38174 0.0
C996 C 0.71907 0.02536 0.39316 0.0
C997 C 0.72116 0.04178 0.44883 0.0
C998 C 0.70116 0.04412 0.49221 0.0
C999 C 0.67886 0.02995 0.4799 0.0
C1000 C 0.67603 0.01378 0.42627 0.0
C1001 C 0.6497 1.00101 0.42489 0.0
C1002 C 0.63449 0.00796 0.36094 0.0
C1003 C 0.65174 0.97214 0.43264 0.0
C1004 C 0.63829 0.0127 0.48579 0.0
C1005 C 0.65556 0.0294 0.51639 0.0
C1006 C 0.64952 0.04319 0.57217 0.0
C1007 C 0.62518 0.03999 0.59741 0.0
C1008 C 0.60694 0.02297 0.5675 0.0
C1009 C 0.61377 0.00899 0.511 0.0
H1010 H 0.50458 0.69221 0.38906 0.0
H1011 H 0.58315 0.7169 0.42087 0.0
H1012 H 0.59173 0.67766 0.48574 0.0
H1013 H 0.49752 0.66563 0.55376 0.0
H1014 H 0.47687 0.6399 0.52509 0.0
H1015 H 0.47735 0.66951 0.48022 0.0
H1016 H 0.48766 0.64583 0.37247 0.0
H1017 H 0.48724 0.61616 0.417 0.0
H1018 H 0.51491 0.62579 0.37231 0.0
H1019 H 0.59185 0.6341 0.54216 0.0
H1020 H 0.58277 0.59229 0.59379 0.0
H1021 H 0.50326 0.59807 0.53244 0.0
C1022 C 0.5236 0.68928 0.40964 0.0
C1023 C 0.54332 0.70739 0.39953 0.0
C1024 C 0.56786 0.70318 0.42801 0.0
C1025 C 0.57287 0.68095 0.46472 0.0
C1026 C 0.553 0.66335 0.47351 0.0
C1027 C 0.52876 0.6675 0.44751 0.0
C1028 C 0.51051 0.64612 0.46577 0.0
C1029 C 0.48931 0.65588 0.50877 0.0
C1030 C 0.49944 0.63269 0.40315 0.0
C1031 C 0.52827 0.6291 0.50552 0.0
C1032 C 0.55277 0.63919 0.50886 0.0
C1033 C 0.57267 0.62622 0.54044 0.0
C1034 C 0.56736 0.60245 0.56947 0.0
C1035 C 0.54228 0.59204 0.56781 0.0
C1036 C 0.52254 0.6057 0.53555 0.0
H1037 H 0.83302 0.54327 0.44549 0.0
H1038 H 0.78551 0.50277 0.58482 0.0
H1039 H 0.82233 0.49886 0.66234 0.0
H1040 H 0.88613 0.50403 0.47012 0.0
H1041 H 0.90956 0.52923 0.46228 0.0
H1042 H 0.87887 0.53164 0.42049 0.0
H1043 H 0.87212 0.57446 0.47879 0.0
H1044 H 0.90285 0.57219 0.52073 0.0
H1045 H 0.87487 0.57618 0.56818 0.0
H1046 H 0.86507 0.49636 0.72236 0.0
H1047 H 0.91036 0.49531 0.75877 0.0
H1048 H 0.93067 0.5356 0.57906 0.0
C1049 C 0.83017 0.53369 0.49235 0.0
C1050 C 0.8059 0.52369 0.50866 0.0
C1051 C 0.80344 0.51138 0.57113 0.0
C1052 C 0.82441 0.5088 0.61563 0.0
C1053 C 0.84799 0.51847 0.59738 0.0
C1054 C 0.85101 0.53069 0.53724 0.0
C1055 C 0.87874 0.53799 0.52802 0.0
C1056 C 0.88892 0.52494 0.4666 0.0
C1057 C 0.88235 0.56692 0.52369 0.0
C1058 C 0.89084 0.52761 0.59186 0.0
C1059 C 0.87274 0.51662 0.63146 0.0
C1060 C 0.8794 0.50508 0.69194 0.0
C1061 C 0.90523 0.50458 0.71224 0.0
C1062 C 0.92424 0.51542 0.6721 0.0
C1063 C 0.91673 0.52727 0.61134 0.0
loop_
_geom_bond_atom_site_label_1
_geom_bond_atom_site_label_2
_geom_bond_distance
_geom_bond_site_symmetry_2
_ccdc_geom_bond_type
P0 O11 1.490 . S
P0 C14 1.812 . S
P0 C20 1.803 . S
P0 C26 1.819 . S
H1 C15 0.941 . S
H2 C16 0.939 . S
H3 C18 0.940 . S
H4 C19 0.940 . S
H5 C21 0.939 . S
H6 C22 0.942 . S
H7 C24 0.940 . S
H8 C25 0.939 . S
H9 C27 0.941 . S
H10 C31 0.939 . S
O11 P0 1.490 . S
H12 C28 0.939 . S
H13 C30 0.940 . S
C14 P0 1.812 . S
C14 C15 1.389 . S
C14 C19 1.391 . S
C15 H1 0.941 . S
C15 C14 1.389 . S
C15 C16 1.397 . S
C16 H2 0.939 . S
C16 C15 1.397 . S
C16 C17 1.378 . S
C17 C16 1.378 . S
C17 C18 1.378 . S
C18 H3 0.940 . S
C18 C17 1.378 . S
C18 C19 1.396 . S
C19 H4 0.940 . S
C19 C14 1.391 . S
C19 C18 1.396 . S
C20 P0 1.803 . S
C20 C21 1.378 . S
C20 C25 1.400 . S
C21 H5 0.939 . S
C21 C20 1.378 . S
C21 C22 1.361 . S
C22 H6 0.942 . S
C22 C21 1.361 . S
C22 C23 1.369 . S
C23 C22 1.369 . S
C23 C24 1.404 . S
C24 H7 0.940 . S
C24 C23 1.404 . S
C24 C25 1.389 . S
C25 H8 0.939 . S
C25 C20 1.400 . S
C25 C24 1.389 . S
C26 P0 1.819 . S
C26 C27 1.391 . S
C26 C31 1.391 . S
C27 H9 0.941 . S
C27 C26 1.391 . S
C27 C28 1.396 . S
C28 H12 0.939 . S
C28 C27 1.396 . S
C28 C29 1.397 . S
C29 C28 1.397 . S
C29 C30 1.385 . S
C30 H13 0.940 . S
C30 C29 1.385 . S
C30 C31 1.388 . S
C31 H10 0.939 . S
C31 C26 1.391 . S
C31 C30 1.388 . S
P32 O43 1.490 1_655 S
P32 C46 1.812 . S
P32 C52 1.803 . S
P32 C58 1.819 . S
H33 C47 0.941 1_455 S
H34 C48 0.959 . S
H35 C50 0.940 . S
H36 C51 0.940 . S
H37 C53 0.900 1_455 S
H38 C54 0.917 1_455 S
H39 C56 0.940 . S
H40 C57 0.939 . S
H41 C59 0.941 1_455 S
H42 C63 0.939 . S
O43 P32 1.490 1_455 S
H44 C60 0.939 . S
H45 C62 0.940 . S
C46 P32 1.812 . S
C46 C47 1.389 . S
C46 C51 1.391 . S
C47 H33 0.941 1_655 S
C47 C46 1.389 . S
C47 C48 1.397 . S
C48 H34 0.959 . S
C48 C47 1.397 . S
C48 C49 1.378 . S
C49 C48 1.378 . S
C49 C50 1.378 . S
C50 H35 0.940 . S
C50 C49 1.378 . S
C50 C51 1.396 . S
C51 H36 0.940 . S
C51 C46 1.391 . S
C51 C50 1.396 . S
C52 P32 1.803 . S
C52 C53 1.403 . S
C52 C57 1.400 . S
C53 H37 0.900 1_655 S
C53 C52 1.403 . S
C53 C54 1.374 . S
C54 H38 0.917 1_655 S
C54 C53 1.374 . S
C54 C55 1.369 . S
C55 C54 1.369 . S
C55 C56 1.404 . S
C56 H39 0.940 . S
C56 C55 1.404 . S
C56 C57 1.389 . S
C57 H40 0.939 . S
C57 C52 1.400 . S
C57 C56 1.389 . S
C58 P32 1.819 . S
C58 C59 1.391 . S
C58 C63 1.391 . S
C59 H41 0.941 1_655 S
C59 C58 1.391 . S
C59 C60 1.396 . S
C60 H44 0.939 . S
C60 C59 1.396 . S
C60 C61 1.397 . S
C61 C60 1.397 . S
C61 C62 1.385 . S
C62 H45 0.940 . S
C62 C61 1.385 . S
C62 C63 1.388 . S
C63 H42 0.939 . S
C63 C58 1.391 . S
C63 C62 1.388 . S
P64 O75 1.490 1_565 S
P64 C78 1.812 . S
P64 C84 1.803 . S
P64 C90 1.819 . S
H65 C79 0.941 1_545 S
H66 C80 0.939 . S
H67 C82 0.940 . S
H68 C83 0.940 . S
H69 C85 0.939 1_545 S
H70 C86 0.942 . S
H71 C88 0.940 . S
H72 C89 0.939 . S
H73 C91 0.941 1_545 S
H74 C95 0.939 . S
O75 P64 1.490 1_545 S
H76 C92 0.939 . S
H77 C94 0.940 . S
C78 P64 1.812 . S
C78 C79 1.389 . S
C78 C83 1.391 . S
C79 H65 0.941 1_565 S
C79 C78 1.389 . S
C79 C80 1.397 . S
C80 H66 0.939 . S
C80 C79 1.397 . S
C80 C81 1.378 . S
C81 C80 1.378 . S
C81 C82 1.378 . S
C82 H67 0.940 . S
C82 C81 1.378 . S
C82 C83 1.396 . S
C83 H68 0.940 . S
C83 C78 1.391 . S
C83 C82 1.396 . S
C84 P64 1.803 . S
C84 C85 1.378 . S
C84 C89 1.400 . S
C85 H69 0.939 1_565 S
C85 C84 1.378 . S
C85 C86 1.361 . S
C86 H70 0.942 . S
C86 C85 1.361 . S
C86 C87 1.369 . S
C87 C86 1.369 . S
C87 C88 1.404 . S
C88 H71 0.940 . S
C88 C87 1.404 . S
C88 C89 1.389 . S
C89 H72 0.939 . S
C89 C84 1.400 . S
C89 C88 1.389 . S
C90 P64 1.819 . S
C90 C91 1.391 . S
C90 C95 1.391 . S
C91 H73 0.941 1_565 S
C91 C90 1.391 . S
C91 C92 1.396 . S
C92 H76 0.939 . S
C92 C91 1.396 . S
C92 C93 1.397 . S
C93 C92 1.397 . S
C93 C94 1.385 . S
C94 H77 0.940 . S
C94 C93 1.385 . S
C94 C95 1.388 . S
C95 H74 0.939 . S
C95 C90 1.391 . S
C95 C94 1.388 . S
P96 O107 1.490 . S
P96 C110 1.812 . S
P96 C116 1.803 . S
P96 C122 1.819 . S
H97 C111 0.941 . S
H98 C112 0.939 . S
H99 C114 0.940 . S
H100 C115 0.940 . S
H101 C117 0.939 . S
H102 C118 0.942 . S
H103 C120 0.940 . S
H104 C121 0.939 . S
H105 C123 0.941 . S
H106 C127 0.939 . S
O107 P96 1.490 . S
H108 C124 0.939 . S
H109 C126 0.940 . S
C110 P96 1.812 . S
C110 C111 1.389 . S
C110 C115 1.391 . S
C111 H97 0.941 . S
C111 C110 1.389 . S
C111 C112 1.397 . S
C112 H98 0.939 . S
C112 C111 1.397 . S
C112 C113 1.378 . S
C113 C112 1.378 . S
C113 C114 1.378 . S
C114 H99 0.940 . S
C114 C113 1.378 . S
C114 C115 1.396 . S
C115 H100 0.940 . S
C115 C110 1.391 . S
C115 C114 1.396 . S
C116 P96 1.803 . S
C116 C117 1.378 . S
C116 C121 1.400 . S
C117 H101 0.939 . S
C117 C116 1.378 . S
C117 C118 1.361 . S
C118 H102 0.942 . S
C118 C117 1.361 . S
C118 C119 1.369 . S
C119 C118 1.369 . S
C119 C120 1.404 . S
C120 H103 0.940 . S
C120 C119 1.404 . S
C120 C121 1.389 . S
C121 H104 0.939 . S
C121 C116 1.400 . S
C121 C120 1.389 . S
C122 P96 1.819 . S
C122 C123 1.391 . S
C122 C127 1.391 . S
C123 H105 0.941 . S
C123 C122 1.391 . S
C123 C124 1.396 . S
C124 H108 0.939 . S
C124 C123 1.396 . S
C124 C125 1.397 . S
C125 C124 1.397 . S
C125 C126 1.385 . S
C126 H109 0.940 . S
C126 C125 1.385 . S
C126 C127 1.388 . S
C127 H106 0.939 . S
C127 C122 1.391 . S
C127 C126 1.388 . S
P128 O139 1.490 . S
P128 C142 1.812 . S
P128 C148 1.803 . S
P128 C154 1.819 . S
H129 C143 0.941 . S
H130 C144 0.939 . S
H131 C146 0.940 . S
H132 C147 0.940 1_554 S
H133 C149 0.939 . S
H134 C150 0.942 . S
H135 C152 0.940 . S
H136 C153 0.939 . S
H137 C155 0.941 . S
H138 C159 0.939 . S
O139 P128 1.490 . S
H140 C156 0.939 . S
H141 C158 0.940 . S
C142 P128 1.812 . S
C142 C143 1.389 1_554 S
C142 C147 1.391 1_554 S
C143 H129 0.941 . S
C143 C142 1.389 1_556 S
C143 C144 1.397 . S
C144 H130 0.939 . S
C144 C143 1.397 . S
C144 C145 1.378 . S
C145 C144 1.378 . S
C145 C146 1.378 . S
C146 H131 0.940 . S
C146 C145 1.378 . S
C146 C147 1.396 . S
C147 H132 0.940 1_556 S
C147 C142 1.391 1_556 S
C147 C146 1.396 . S
C148 P128 1.803 . S
C148 C149 1.378 . S
C148 C153 1.400 . S
C149 H133 0.939 . S
C149 C148 1.378 . S
C149 C150 1.361 . S
C150 H134 0.942 . S
C150 C149 1.361 . S
C150 C151 1.369 . S
C151 C150 1.369 . S
C151 C152 1.404 . S
C152 H135 0.940 . S
C152 C151 1.404 . S
C152 C153 1.389 . S
C153 H136 0.939 . S
C153 C148 1.400 . S
C153 C152 1.389 . S
C154 P128 1.819 . S
C154 C155 1.391 . S
C154 C159 1.391 . S
C155 H137 0.941 . S
C155 C154 1.391 . S
C155 C156 1.396 . S
C156 H140 0.939 . S
C156 C155 1.396 . S
C156 C157 1.397 . S
C157 C156 1.397 . S
C157 C158 1.385 . S
C158 H141 0.940 . S
C158 C157 1.385 . S
C158 C159 1.388 . S
C159 H138 0.939 . S
C159 C154 1.391 . S
C159 C158 1.388 . S
P160 O171 1.490 . S
P160 C174 1.812 1_554 S
P160 C180 1.803 . S
P160 C186 1.819 . S
H161 C175 0.941 . S
H162 C176 0.939 . S
H163 C178 0.940 . S
H164 C179 0.940 . S
H165 C181 0.939 . S
H166 C182 0.942 . S
H167 C184 0.940 . S
H168 C185 0.939 . S
H169 C187 0.941 . S
H170 C191 0.939 . S
O171 P160 1.490 . S
H172 C188 0.939 . S
H173 C190 0.940 . S
C174 P160 1.812 1_556 S
C174 C175 1.389 . S
C174 C179 1.391 . S
C175 H161 0.941 . S
C175 C174 1.389 . S
C175 C176 1.397 . S
C176 H162 0.939 . S
C176 C175 1.397 . S
C176 C177 1.378 . S
C177 C176 1.378 . S
C177 C178 1.378 . S
C178 H163 0.940 . S
C178 C177 1.378 . S
C178 C179 1.396 . S
C179 H164 0.940 . S
C179 C174 1.391 . S
C179 C178 1.396 . S
C180 P160 1.803 . S
C180 C181 1.378 . S
C180 C185 1.400 . S
C181 H165 0.939 . S
C181 C180 1.378 . S
C181 C182 1.361 . S
C182 H166 0.942 . S
C182 C181 1.361 . S
C182 C183 1.369 . S
C183 C182 1.369 . S
C183 C184 1.404 . S
C184 H167 0.940 . S
C184 C183 1.404 . S
C184 C185 1.389 . S
C185 H168 0.939 . S
C185 C180 1.400 . S
C185 C184 1.389 . S
C186 P160 1.819 . S
C186 C187 1.391 . S
C186 C191 1.391 . S
C187 H169 0.941 . S
C187 C186 1.391 . S
C187 C188 1.396 . S
C188 H172 0.939 . S
C188 C187 1.396 . S
C188 C189 1.397 . S
C189 C188 1.397 . S
C189 C190 1.385 . S
C190 H173 0.940 . S
C190 C189 1.385 . S
C190 C191 1.388 . S
C191 H170 0.939 . S
C191 C186 1.391 . S
C191 C190 1.388 . S
P192 O203 1.490 . S
P192 C206 1.812 1_554 S
P192 C212 1.803 . S
P192 C218 1.819 . S
H193 C207 0.941 . S
H194 C208 0.939 . S
H195 C210 0.940 . S
H196 C211 0.940 . S
H197 C213 0.939 . S
H198 C214 0.942 . S
H199 C216 0.940 . S
H200 C217 0.939 1_556 S
H201 C219 0.941 . S
H202 C223 0.939 . S
O203 P192 1.490 . S
H204 C220 0.939 . S
H205 C222 0.940 . S
C206 P192 1.812 1_556 S
C206 C207 1.389 . S
C206 C211 1.391 . S
C207 H193 0.941 . S
C207 C206 1.389 . S
C207 C208 1.397 . S
C208 H194 0.939 . S
C208 C207 1.397 . S
C208 C209 1.378 . S
C209 C208 1.378 . S
C209 C210 1.378 . S
C210 H195 0.940 . S
C210 C209 1.378 . S
C210 C211 1.396 . S
C211 H196 0.940 . S
C211 C206 1.391 . S
C211 C210 1.396 . S
C212 P192 1.803 . S
C212 C213 1.378 . S
C212 C217 1.400 . S
C213 H197 0.939 . S
C213 C212 1.378 . S
C213 C214 1.361 . S
C214 H198 0.942 . S
C214 C213 1.361 . S
C214 C215 1.369 . S
C215 C214 1.369 . S
C215 C216 1.404 . S
C216 H199 0.940 . S
C216 C215 1.404 . S
C216 C217 1.389 . S
C217 H200 0.939 1_554 S
C217 C212 1.400 . S
C217 C216 1.389 . S
C218 P192 1.819 . S
C218 C219 1.391 . S
C218 C223 1.391 . S
C219 H201 0.941 . S
C219 C218 1.391 . S
C219 C220 1.396 . S
C220 H204 0.939 . S
C220 C219 1.396 . S
C220 C221 1.397 . S
C221 C220 1.397 . S
C221 C222 1.385 . S
C222 H205 0.940 . S
C222 C221 1.385 . S
C222 C223 1.388 . S
C223 H202 0.939 . S
C223 C218 1.391 . S
C223 C222 1.388 . S
P224 O235 1.490 . S
P224 C238 1.812 1_554 S
P224 C244 1.803 . S
P224 C250 1.819 . S
H225 C239 0.941 . S
H226 C240 0.939 . S
H227 C242 0.940 . S
H228 C243 0.940 1_554 S
H229 C245 0.939 . S
H230 C246 0.942 . S
H231 C248 0.940 . S
H232 C249 0.939 . S
H233 C251 0.941 . S
H234 C255 0.939 . S
O235 P224 1.490 . S
H236 C252 0.939 . S
H237 C254 0.940 . S
C238 P224 1.812 1_556 S
C238 C239 1.389 . S
C238 C243 1.391 . S
C239 H225 0.941 . S
C239 C238 1.389 . S
C239 C240 1.397 . S
C240 H226 0.939 . S
C240 C239 1.397 . S
C240 C241 1.378 . S
C241 C240 1.378 . S
C241 C242 1.378 . S
C242 H227 0.940 . S
C242 C241 1.378 . S
C242 C243 1.396 . S
C243 H228 0.940 1_556 S
C243 C238 1.391 . S
C243 C242 1.396 . S
C244 P224 1.803 . S
C244 C245 1.378 . S
C244 C249 1.400 . S
C245 H229 0.939 . S
C245 C244 1.378 . S
C245 C246 1.361 . S
C246 H230 0.942 . S
C246 C245 1.361 . S
C246 C247 1.369 . S
C247 C246 1.369 . S
C247 C248 1.404 . S
C248 H231 0.940 . S
C248 C247 1.404 . S
C248 C249 1.389 . S
C249 H232 0.939 . S
C249 C244 1.400 . S
C249 C248 1.389 . S
C250 P224 1.819 . S
C250 C251 1.391 . S
C250 C255 1.391 . S
C251 H233 0.941 . S
C251 C250 1.391 . S
C251 C252 1.396 . S
C252 H236 0.939 . S
C252 C251 1.396 . S
C252 C253 1.397 . S
C253 C252 1.397 . S
C253 C254 1.385 . S
C254 H237 0.940 . S
C254 C253 1.385 . S
C254 C255 1.388 . S
C255 H234 0.939 . S
C255 C250 1.391 . S
C255 C254 1.388 . S
Eu256 C265 2.828 . S
Eu256 O267 2.392 . S
Eu256 O269 2.418 1_545 S
Eu256 O274 2.373 1_655 S
Eu256 O277 2.488 . S
Eu256 O278 2.471 . S
Eu256 O279 2.349 1_655 S
Eu257 O266 2.373 1_455 S
Eu257 O270 2.488 . S
Eu257 O271 2.471 . S
Eu257 O272 2.349 . S
Eu257 O275 2.392 1_565 S
Eu257 O276 2.418 1_565 S
Eu257 C286 2.828 . S
C258 O276 1.244 . S
C258 O279 1.265 . S
C259 C260 1.379 1_655 S
C259 C263 1.373 . S
C259 C265 1.505 . S
C260 C259 1.379 1_455 S
C260 C262 1.369 . S
C260 H288 0.930 . S
C261 C263 1.383 . S
C261 C264 1.367 1_655 S
C261 H289 0.930 . S
C262 C260 1.369 . S
C262 C264 1.403 . S
C262 H290 0.930 . S
C263 C259 1.373 . S
C263 C261 1.383 . S
C263 H291 0.931 . S
C264 C261 1.367 1_455 S
C264 C262 1.403 . S
C265 Eu256 2.828 . S
C265 C259 1.505 . S
C265 O277 1.249 . S
C265 O278 1.244 . S
O266 Eu257 2.373 1_655 S
O266 C268 1.258 . S
O267 Eu256 2.392 . S
O267 C268 1.242 1_545 S
C268 O266 1.258 . S
C268 O267 1.242 1_565 S
O269 Eu256 2.418 1_565 S
O269 C273 1.244 . S
O270 Eu257 2.488 . S
O270 C286 1.249 . S
O271 Eu257 2.471 . S
O271 C286 1.244 . S
O272 Eu257 2.349 . S
O272 C273 1.265 1_455 S
C273 O269 1.244 . S
C273 O272 1.265 1_655 S
O274 Eu256 2.373 1_455 S
O274 C287 1.258 . S
O275 Eu257 2.392 1_545 S
O275 C287 1.242 . S
O276 Eu257 2.418 1_545 S
O276 C258 1.244 . S
O277 Eu256 2.488 . S
O277 C265 1.249 . S
O278 Eu256 2.471 . S
O278 C265 1.244 . S
O279 Eu256 2.349 1_455 S
O279 C258 1.265 . S
C280 C281 1.379 . S
C280 C284 1.373 . S
C280 C286 1.505 . S
C281 C280 1.379 . S
C281 C283 1.369 . S
C281 H292 0.930 1_455 S
C282 C284 1.383 . S
C282 C285 1.382 . S
C282 H293 0.930 1_556 S
C283 C281 1.369 . S
C283 C285 1.392 . S
C283 H294 0.930 1_455 S
C284 C280 1.373 . S
C284 C282 1.383 . S
C284 H295 0.931 . S
C285 C282 1.382 . S
C285 C283 1.392 . S
C286 Eu257 2.828 . S
C286 O270 1.249 . S
C286 O271 1.244 . S
C286 C280 1.505 . S
C287 O274 1.258 . S
C287 O275 1.242 . S
H288 C260 0.930 . S
H289 C261 0.930 . S
H290 C262 0.930 . S
H291 C263 0.931 . S
H292 C281 0.930 1_655 S
H293 C282 0.930 1_554 S
H294 C283 0.930 1_655 S
H295 C284 0.931 . S
Eu296 C305 2.828 . S
Eu296 O307 2.392 . S
Eu296 O309 2.418 . S
Eu296 O314 2.373 . S
Eu296 O317 2.488 . S
Eu296 O318 2.471 . S
Eu296 O319 2.349 1_545 S
Eu297 O306 2.373 1_565 S
Eu297 O310 2.488 . S
Eu297 O311 2.471 1_565 S
Eu297 O312 2.349 1_565 S
Eu297 O315 2.392 . S
Eu297 O316 2.418 . S
Eu297 C326 2.828 . S
C298 O316 1.244 . S
C298 O319 1.265 . S
C299 C300 1.338 1_545 S
C299 C303 1.373 . S
C299 C305 1.505 . S
C300 C299 1.338 1_565 S
C300 C302 1.374 . S
C300 H328 0.968 . S
C301 C303 1.383 . S
C301 C304 1.382 . S
C301 H329 0.930 . S
C302 C300 1.374 . S
C302 C304 1.392 1_565 S
C302 H330 0.930 . S
C303 C299 1.373 . S
C303 C301 1.383 . S
C303 H331 0.931 . S
C304 C301 1.382 . S
C304 C302 1.392 1_545 S
C305 Eu296 2.828 . S
C305 C299 1.505 . S
C305 O317 1.249 . S
C305 O318 1.244 . S
O306 Eu297 2.373 1_545 S
O306 C308 1.258 . S
O307 Eu296 2.392 . S
O307 C308 1.242 . S
C308 O306 1.258 . S
C308 O307 1.242 . S
O309 Eu296 2.418 . S
O309 C313 1.244 . S
O310 Eu297 2.488 . S
O310 C326 1.249 . S
O311 Eu297 2.471 1_545 S
O311 C326 1.244 1_545 S
O312 Eu297 2.349 1_545 S
O312 C313 1.265 . S
C313 O309 1.244 . S
C313 O312 1.265 . S
O314 Eu296 2.373 . S
O314 C327 1.258 1_545 S
O315 Eu297 2.392 . S
O315 C327 1.242 . S
O316 Eu297 2.418 . S
O316 C298 1.244 . S
O317 Eu296 2.488 . S
O317 C305 1.249 . S
O318 Eu296 2.471 . S
O318 C305 1.244 . S
O319 Eu296 2.349 1_565 S
O319 C298 1.265 . S
C320 C321 1.379 1_565 S
C320 C324 1.373 . S
C320 C326 1.505 . S
C321 C320 1.379 1_545 S
C321 C323 1.369 . S
C321 H332 0.930 . S
C322 C324 1.383 . S
C322 C325 1.382 . S
C322 H333 0.930 . S
C323 C321 1.369 . S
C323 C325 1.392 1_545 S
C323 H334 0.930 . S
C324 C320 1.373 . S
C324 C322 1.383 . S
C324 H335 0.931 . S
C325 C322 1.382 . S
C325 C323 1.392 1_565 S
C326 Eu297 2.828 . S
C326 O310 1.249 . S
C326 O311 1.244 1_565 S
C326 C320 1.505 . S
C327 O314 1.258 1_565 S
C327 O315 1.242 . S
H328 C300 0.968 . S
H329 C301 0.930 . S
H330 C302 0.930 . S
H331 C303 0.931 . S
H332 C321 0.930 . S
H333 C322 0.930 . S
H334 C323 0.930 . S
H335 C324 0.931 . S
Eu336 C345 2.828 . S
Eu336 O347 2.392 . S
Eu336 O349 2.418 . S
Eu336 O354 2.373 . S
Eu336 O357 2.488 . S
Eu336 O358 2.471 . S
Eu336 O359 2.349 . S
Eu337 O346 2.373 . S
Eu337 O350 2.488 . S
Eu337 O351 2.471 . S
Eu337 O352 2.349 . S
Eu337 O355 2.392 . S
Eu337 O356 2.418 . S
Eu337 C366 2.828 . S
C338 O356 1.244 . S
C338 O359 1.265 . S
C339 C340 1.379 . S
C339 C343 1.373 . S
C339 C345 1.505 . S
C340 C339 1.379 . S
C340 C342 1.369 . S
C340 H368 0.930 . S
C341 C343 1.383 . S
C341 C344 1.382 . S
C341 H369 0.930 . S
C342 C340 1.369 . S
C342 C344 1.392 . S
C342 H370 0.930 . S
C343 C339 1.373 . S
C343 C341 1.383 . S
C343 H371 0.931 . S
C344 C341 1.382 . S
C344 C342 1.392 . S
C345 Eu336 2.828 . S
C345 C339 1.505 . S
C345 O357 1.249 . S
C345 O358 1.244 . S
O346 Eu337 2.373 . S
O346 C348 1.258 . S
O347 Eu336 2.392 . S
O347 C348 1.242 . S
C348 O346 1.258 . S
C348 O347 1.242 . S
O349 Eu336 2.418 . S
O349 C353 1.244 . S
O350 Eu337 2.488 . S
O350 C366 1.249 . S
O351 Eu337 2.471 . S
O351 C366 1.244 . S
O352 Eu337 2.349 . S
O352 C353 1.265 . S
C353 O349 1.244 . S
C353 O352 1.265 . S
O354 Eu336 2.373 . S
O354 C367 1.258 . S
O355 Eu337 2.392 . S
O355 C367 1.242 . S
O356 Eu337 2.418 . S
O356 C338 1.244 . S
O357 Eu336 2.488 . S
O357 C345 1.249 . S
O358 Eu336 2.471 . S
O358 C345 1.244 . S
O359 Eu336 2.349 . S
O359 C338 1.265 . S
C360 C361 1.379 . S
C360 C364 1.373 . S
C360 C366 1.505 . S
C361 C360 1.379 . S
C361 C363 1.369 . S
C361 H372 0.930 . S
C362 C364 1.383 . S
C362 C365 1.382 . S
C362 H373 0.930 . S
C363 C361 1.369 . S
C363 C365 1.392 . S
C363 H374 0.930 . S
C364 C360 1.373 . S
C364 C362 1.383 . S
C364 H375 0.931 . S
C365 C362 1.382 . S
C365 C363 1.392 . S
C366 Eu337 2.828 . S
C366 O350 1.249 . S
C366 O351 1.244 . S
C366 C360 1.505 . S
C367 O354 1.258 . S
C367 O355 1.242 . S
H368 C340 0.930 . S
H369 C341 0.930 . S
H370 C342 0.930 . S
H371 C343 0.931 . S
H372 C361 0.930 . S
H373 C362 0.930 . S
H374 C363 0.930 . S
H375 C364 0.931 . S
Eu376 C385 2.828 . S
Eu376 O387 2.392 . S
Eu376 O389 2.418 1_455 S
Eu376 O394 2.373 . S
Eu376 O397 2.488 . S
Eu376 O398 2.471 . S
Eu376 O399 2.349 . S
Eu377 O386 2.373 . S
Eu377 O390 2.488 . S
Eu377 O391 2.471 . S
Eu377 O392 2.349 . S
Eu377 O395 2.392 1_655 S
Eu377 O396 2.418 1_655 S
Eu377 C406 2.828 . S
C378 O396 1.244 . S
C378 O399 1.265 . S
C379 C380 1.379 . S
C379 C383 1.373 . S
C379 C385 1.505 . S
C380 C379 1.379 . S
C380 C382 1.369 . S
C380 H408 0.930 . S
C381 C383 1.383 . S
C381 C384 1.382 . S
C381 H409 0.930 . S
C382 C380 1.369 . S
C382 C384 1.392 . S
C382 H410 0.930 . S
C383 C379 1.373 . S
C383 C381 1.383 . S
C383 H411 0.931 . S
C384 C381 1.382 . S
C384 C382 1.392 . S
C385 Eu376 2.828 . S
C385 C379 1.505 . S
C385 O397 1.249 . S
C385 O398 1.244 . S
O386 Eu377 2.373 . S
O386 C388 1.252 1_655 S
O387 Eu376 2.392 . S
O387 C388 1.254 . S
C388 O386 1.252 1_455 S
C388 O387 1.254 . S
O389 Eu376 2.418 1_655 S
O389 C393 1.244 . S
O390 Eu377 2.488 . S
O390 C406 1.249 . S
O391 Eu377 2.471 . S
O391 C406 1.244 . S
O392 Eu377 2.349 . S
O392 C393 1.265 . S
C393 O389 1.244 . S
C393 O392 1.265 . S
O394 Eu376 2.373 . S
O394 C407 1.258 . S
O395 Eu377 2.392 1_455 S
O395 C407 1.242 . S
O396 Eu377 2.418 1_455 S
O396 C378 1.244 . S
O397 Eu376 2.488 . S
O397 C385 1.249 . S
O398 Eu376 2.471 . S
O398 C385 1.244 . S
O399 Eu376 2.349 . S
O399 C378 1.265 . S
C400 C401 1.379 . S
C400 C404 1.373 . S
C400 C406 1.505 . S
C401 C400 1.379 . S
C401 C403 1.369 . S
C401 H412 0.930 . S
C402 C404 1.383 . S
C402 C405 1.382 . S
C402 H413 0.930 1_556 S
C403 C401 1.369 . S
C403 C405 1.392 . S
C403 H414 0.930 . S
C404 C400 1.373 . S
C404 C402 1.383 . S
C404 H415 0.931 . S
C405 C402 1.382 . S
C405 C403 1.392 . S
C406 Eu377 2.828 . S
C406 O390 1.249 . S
C406 O391 1.244 . S
C406 C400 1.505 . S
C407 O394 1.258 . S
C407 O395 1.242 . S
H408 C380 0.930 . S
H409 C381 0.930 . S
H410 C382 0.930 . S
H411 C383 0.931 . S
H412 C401 0.930 . S
H413 C402 0.930 1_554 S
H414 C403 0.930 . S
H415 C404 0.931 . S
H416 C428 0.930 . S
H417 C430 0.930 . S
H418 C431 0.930 . S
H419 C435 0.959 . S
H420 C435 0.959 . S
H421 C435 0.961 . S
H422 C436 0.960 . S
H423 C436 0.961 . S
H424 C436 0.959 . S
H425 C439 0.929 1_565 S
H426 C440 0.931 1_565 S
H427 C442 0.930 . S
C428 H416 0.930 . S
C428 C429 1.399 . S
C428 C433 1.399 . S
C429 C428 1.399 . S
C429 C430 1.376 . S
C430 H417 0.930 . S
C430 C429 1.376 . S
C430 C431 1.388 . S
C431 H418 0.930 . S
C431 C430 1.388 . S
C431 C432 1.390 . S
C432 C431 1.390 . S
C432 C433 1.394 . S
C432 C438 1.465 . S
C433 C428 1.399 . S
C433 C432 1.394 . S
C433 C434 1.516 . S
C434 C433 1.516 . S
C434 C435 1.502 . S
C434 C436 1.561 . S
C434 C437 1.526 . S
C435 H419 0.959 . S
C435 H420 0.959 . S
C435 H421 0.961 . S
C435 C434 1.502 . S
C436 H422 0.960 . S
C436 H423 0.961 . S
C436 H424 0.959 . S
C436 C434 1.561 . S
C437 C434 1.526 . S
C437 C438 1.396 . S
C437 C442 1.390 . S
C438 C432 1.465 . S
C438 C437 1.396 . S
C438 C439 1.399 . S
C439 H425 0.929 1_545 S
C439 C438 1.399 . S
C439 C440 1.385 . S
C440 H426 0.931 1_545 S
C440 C439 1.385 . S
C440 C441 1.389 . S
C441 C440 1.389 . S
C441 C442 1.387 . S
C442 H427 0.930 . S
C442 C437 1.390 . S
C442 C441 1.387 . S
H443 C455 0.930 . S
H444 C457 0.930 . S
H445 C458 0.930 . S
H446 C462 0.959 . S
H447 C462 0.959 . S
H448 C462 0.961 . S
H449 C463 0.960 . S
H450 C463 0.961 . S
H451 C463 0.959 . S
H452 C466 0.929 . S
H453 C467 0.931 . S
H454 C469 0.930 . S
C455 H443 0.930 . S
C455 C456 1.399 . S
C455 C460 1.399 . S
C456 C455 1.399 . S
C456 C457 1.376 . S
C457 H444 0.930 . S
C457 C456 1.376 . S
C457 C458 1.388 . S
C458 H445 0.930 . S
C458 C457 1.388 . S
C458 C459 1.390 . S
C459 C458 1.390 . S
C459 C460 1.394 . S
C459 C465 1.465 . S
C460 C455 1.399 . S
C460 C459 1.394 . S
C460 C461 1.516 . S
C461 C460 1.516 . S
C461 C462 1.502 . S
C461 C463 1.561 . S
C461 C464 1.526 . S
C462 H446 0.959 . S
C462 H447 0.959 . S
C462 H448 0.961 . S
C462 C461 1.502 . S
C463 H449 0.960 . S
C463 H450 0.961 . S
C463 H451 0.959 . S
C463 C461 1.561 . S
C464 C461 1.526 . S
C464 C465 1.396 . S
C464 C469 1.390 . S
C465 C459 1.465 . S
C465 C464 1.396 . S
C465 C466 1.399 . S
C466 H452 0.929 . S
C466 C465 1.399 . S
C466 C467 1.385 . S
C467 H453 0.931 . S
C467 C466 1.385 . S
C467 C468 1.389 . S
C468 C467 1.389 . S
C468 C469 1.387 . S
C469 H454 0.930 . S
C469 C464 1.390 . S
C469 C468 1.387 . S
H470 C482 0.930 . S
H471 C484 0.930 . S
H472 C485 0.930 . S
H473 C489 0.959 . S
H474 C489 0.959 . S
H475 C489 0.961 . S
H476 C490 0.960 . S
H477 C490 0.961 . S
H478 C490 0.959 . S
H479 C493 0.929 . S
H480 C494 0.931 . S
H481 C496 0.930 . S
C482 H470 0.930 . S
C482 C483 1.399 . S
C482 C487 1.399 . S
C483 C482 1.399 . S
C483 C484 1.376 . S
C484 H471 0.930 . S
C484 C483 1.376 . S
C484 C485 1.388 . S
C485 H472 0.930 . S
C485 C484 1.388 . S
C485 C486 1.390 . S
C486 C485 1.390 . S
C486 C487 1.394 . S
C486 C492 1.465 . S
C487 C482 1.399 . S
C487 C486 1.394 . S
C487 C488 1.516 . S
C488 C487 1.516 . S
C488 C489 1.502 . S
C488 C490 1.561 . S
C488 C491 1.526 . S
C489 H473 0.959 . S
C489 H474 0.959 . S
C489 H475 0.961 . S
C489 C488 1.502 . S
C490 H476 0.960 . S
C490 H477 0.961 . S
C490 H478 0.959 . S
C490 C488 1.561 . S
C491 C488 1.526 . S
C491 C492 1.396 . S
C491 C496 1.390 . S
C492 C486 1.465 . S
C492 C491 1.396 . S
C492 C493 1.399 . S
C493 H479 0.929 . S
C493 C492 1.399 . S
C493 C494 1.385 . S
C494 H480 0.931 . S
C494 C493 1.385 . S
C494 C495 1.389 . S
C495 C494 1.389 . S
C495 C496 1.387 . S
C496 H481 0.930 . S
C496 C491 1.390 . S
C496 C495 1.387 . S
H497 C509 0.930 . S
H498 C511 0.930 . S
H499 C512 0.930 1_655 S
H500 C516 0.959 . S
H501 C516 0.959 . S
H502 C516 0.961 . S
H503 C517 0.960 . S
H504 C517 0.961 . S
H505 C517 0.959 . S
H506 C520 0.961 . S
H507 C521 0.935 1_655 S
H508 C523 0.930 . S
C509 H497 0.930 . S
C509 C510 1.399 . S
C509 C514 1.399 . S
C510 C509 1.399 . S
C510 C511 1.376 . S
C511 H498 0.930 . S
C511 C510 1.376 . S
C511 C512 1.388 . S
C512 H499 0.930 1_455 S
C512 C511 1.388 . S
C512 C513 1.390 . S
C513 C512 1.390 . S
C513 C514 1.394 . S
C513 C519 1.465 . S
C514 C509 1.399 . S
C514 C513 1.394 . S
C514 C515 1.516 . S
C515 C514 1.516 . S
C515 C516 1.502 . S
C515 C517 1.561 . S
C515 C518 1.526 . S
C516 H500 0.959 . S
C516 H501 0.959 . S
C516 H502 0.961 . S
C516 C515 1.502 . S
C517 H503 0.960 . S
C517 H504 0.961 . S
C517 H505 0.959 . S
C517 C515 1.561 . S
C518 C515 1.526 . S
C518 C519 1.396 . S
C518 C523 1.390 . S
C519 C513 1.465 . S
C519 C518 1.396 . S
C519 C520 1.365 1_455 S
C520 H506 0.961 . S
C520 C519 1.365 1_655 S
C520 C521 1.387 1_655 S
C521 H507 0.935 1_455 S
C521 C520 1.387 1_455 S
C521 C522 1.385 . S
C522 C521 1.385 . S
C522 C523 1.387 . S
C523 H508 0.930 . S
C523 C518 1.390 . S
C523 C522 1.387 . S
H524 C536 0.897 1_545 S
H525 C538 0.930 . S
H526 C539 0.930 . S
H527 C543 0.959 . S
H528 C543 0.959 . S
H529 C543 0.961 1_554 S
H530 C544 0.960 . S
H531 C544 0.961 . S
H532 C544 0.959 . S
H533 C547 0.929 . S
H534 C548 0.931 . S
H535 C550 0.930 . S
C536 H524 0.897 1_565 S
C536 C537 1.399 . S
C536 C541 1.399 . S
C537 C536 1.399 . S
C537 C538 1.376 . S
C538 H525 0.930 . S
C538 C537 1.376 . S
C538 C539 1.388 . S
C539 H526 0.930 . S
C539 C538 1.388 . S
C539 C540 1.390 . S
C540 C539 1.390 . S
C540 C541 1.394 . S
C540 C546 1.465 1_554 S
C541 C536 1.399 . S
C541 C540 1.394 . S
C541 C542 1.516 1_565 S
C542 C541 1.516 1_545 S
C542 C543 1.502 1_554 S
C542 C544 1.561 . S
C542 C545 1.526 1_544 S
C543 H527 0.959 . S
C543 H528 0.959 . S
C543 H529 0.961 1_556 S
C543 C542 1.502 1_556 S
C544 H530 0.960 . S
C544 H531 0.961 . S
C544 H532 0.959 . S
C544 C542 1.561 . S
C545 C542 1.526 1_566 S
C545 C546 1.396 . S
C545 C550 1.390 1_565 S
C546 C540 1.465 1_556 S
C546 C545 1.396 . S
C546 C547 1.399 . S
C547 H533 0.929 . S
C547 C546 1.399 . S
C547 C548 1.385 . S
C548 H534 0.931 . S
C548 C547 1.385 . S
C548 C549 1.389 . S
C549 C548 1.389 . S
C549 C550 1.387 1_565 S
C550 H535 0.930 . S
C550 C545 1.390 1_545 S
C550 C549 1.387 1_545 S
H551 C563 0.930 . S
H552 C565 0.930 . S
H553 C566 0.930 . S
H554 C570 0.959 . S
H555 C570 0.959 . S
H556 C570 0.961 . S
H557 C571 0.960 . S
H558 C571 0.961 . S
H559 C571 0.959 . S
H560 C574 0.929 . S
H561 C575 0.931 . S
H562 C577 0.930 . S
C563 H551 0.930 . S
C563 C564 1.399 . S
C563 C568 1.399 . S
C564 C563 1.399 . S
C564 C565 1.376 . S
C565 H552 0.930 . S
C565 C564 1.376 . S
C565 C566 1.388 . S
C566 H553 0.930 . S
C566 C565 1.388 . S
C566 C567 1.390 1_554 S
C567 C566 1.390 1_556 S
C567 C568 1.394 1_556 S
C567 C573 1.465 . S
C568 C563 1.399 . S
C568 C567 1.394 1_554 S
C568 C569 1.516 1_554 S
C569 C568 1.516 1_556 S
C569 C570 1.502 . S
C569 C571 1.561 . S
C569 C572 1.526 . S
C570 H554 0.959 . S
C570 H555 0.959 . S
C570 H556 0.961 . S
C570 C569 1.502 . S
C571 H557 0.960 . S
C571 H558 0.961 . S
C571 H559 0.959 . S
C571 C569 1.561 . S
C572 C569 1.526 . S
C572 C573 1.396 . S
C572 C577 1.390 . S
C573 C567 1.465 . S
C573 C572 1.396 . S
C573 C574 1.399 . S
C574 H560 0.929 . S
C574 C573 1.399 . S
C574 C575 1.385 . S
C575 H561 0.931 . S
C575 C574 1.385 . S
C575 C576 1.389 . S
C576 C575 1.389 . S
C576 C577 1.387 . S
C577 H562 0.930 . S
C577 C572 1.390 . S
C577 C576 1.387 . S
H578 C590 0.930 . S
H579 C592 0.930 . S
H580 C593 0.930 . S
H581 C597 0.959 1_556 S
H582 C597 0.959 1_556 S
H583 C597 0.961 . S
H584 C598 0.960 . S
H585 C598 0.961 1_556 S
H586 C598 0.959 1_556 S
H587 C601 0.929 . S
H588 C602 0.931 . S
H589 C604 0.930 . S
C590 H578 0.930 . S
C590 C591 1.399 . S
C590 C595 1.399 . S
C591 C590 1.399 . S
C591 C592 1.376 . S
C592 H579 0.930 . S
C592 C591 1.376 . S
C592 C593 1.388 1_554 S
C593 H580 0.930 . S
C593 C592 1.388 1_556 S
C593 C594 1.390 . S
C594 C593 1.390 . S
C594 C595 1.394 1_556 S
C594 C600 1.465 . S
C595 C590 1.399 . S
C595 C594 1.394 1_554 S
C595 C596 1.516 1_554 S
C596 C595 1.516 1_556 S
C596 C597 1.502 1_556 S
C596 C598 1.561 1_556 S
C596 C599 1.526 . S
C597 H581 0.959 1_554 S
C597 H582 0.959 1_554 S
C597 H583 0.961 . S
C597 C596 1.502 1_554 S
C598 H584 0.960 . S
C598 H585 0.961 1_554 S
C598 H586 0.959 1_554 S
C598 C596 1.561 1_554 S
C599 C596 1.526 . S
C599 C600 1.396 . S
C599 C604 1.390 . S
C600 C594 1.465 . S
C600 C599 1.396 . S
C600 C601 1.399 . S
C601 H587 0.929 . S
C601 C600 1.399 . S
C601 C602 1.385 . S
C602 H588 0.931 . S
C602 C601 1.385 . S
C602 C603 1.389 . S
C603 C602 1.389 . S
C603 C604 1.387 . S
C604 H589 0.930 . S
C604 C599 1.390 . S
C604 C603 1.387 . S
H605 C617 0.930 . S
H606 C619 0.930 . S
H607 C620 0.914 1_455 S
H608 C624 0.959 . S
H609 C624 0.959 . S
H610 C624 0.961 . S
H611 C625 0.960 . S
H612 C625 0.961 . S
H613 C625 0.959 1_455 S
H614 C628 0.929 . S
H615 C629 0.931 . S
H616 C631 0.930 . S
C617 H605 0.930 . S
C617 C618 1.399 . S
C617 C622 1.399 . S
C618 C617 1.399 . S
C618 C619 1.376 . S
C619 H606 0.930 . S
C619 C618 1.376 . S
C619 C620 1.388 . S
C620 H607 0.914 1_655 S
C620 C619 1.388 . S
C620 C621 1.390 . S
C621 C620 1.390 . S
C621 C622 1.394 . S
C621 C627 1.465 1_554 S
C622 C617 1.399 . S
C622 C621 1.394 . S
C622 C623 1.516 1_554 S
C623 C622 1.516 1_556 S
C623 C624 1.502 . S
C623 C625 1.561 . S
C623 C626 1.526 . S
C624 H608 0.959 . S
C624 H609 0.959 . S
C624 H610 0.961 . S
C624 C623 1.502 . S
C625 H611 0.960 . S
C625 H612 0.961 . S
C625 H613 0.959 1_655 S
C625 C623 1.561 . S
C626 C623 1.526 . S
C626 C627 1.396 . S
C626 C631 1.390 . S
C627 C621 1.465 1_556 S
C627 C626 1.396 . S
C627 C628 1.399 1_655 S
C628 H614 0.929 . S
C628 C627 1.399 1_455 S
C628 C629 1.385 . S
C629 H615 0.931 . S
C629 C628 1.385 . S
C629 C630 1.389 1_455 S
C630 C629 1.389 1_655 S
C630 C631 1.387 . S
C631 H616 0.930 . S
C631 C626 1.390 . S
C631 C630 1.387 . S
H632 C644 0.930 . S
H633 C646 0.930 . S
H634 C647 0.930 . S
H635 C651 0.959 . S
H636 C651 0.959 . S
H637 C651 0.961 . S
H638 C652 0.960 . S
H639 C652 0.961 . S
H640 C652 0.959 . S
H641 C655 0.929 . S
H642 C656 0.931 . S
H643 C658 0.930 . S
C644 H632 0.930 . S
C644 C645 1.399 . S
C644 C649 1.399 . S
C645 C644 1.399 . S
C645 C646 1.376 . S
C646 H633 0.930 . S
C646 C645 1.376 . S
C646 C647 1.388 . S
C647 H634 0.930 . S
C647 C646 1.388 . S
C647 C648 1.390 . S
C648 C647 1.390 . S
C648 C649 1.394 . S
C648 C654 1.465 . S
C649 C644 1.399 . S
C649 C648 1.394 . S
C649 C650 1.516 . S
C650 C649 1.516 . S
C650 C651 1.502 . S
C650 C652 1.561 . S
C650 C653 1.526 . S
C651 H635 0.959 . S
C651 H636 0.959 . S
C651 H637 0.961 . S
C651 C650 1.502 . S
C652 H638 0.960 . S
C652 H639 0.961 . S
C652 H640 0.959 . S
C652 C650 1.561 . S
C653 C650 1.526 . S
C653 C654 1.396 . S
C653 C658 1.390 . S
C654 C648 1.465 . S
C654 C653 1.396 . S
C654 C655 1.399 1_455 S
C655 H641 0.929 . S
C655 C654 1.399 1_655 S
C655 C656 1.385 . S
C656 H642 0.931 . S
C656 C655 1.385 . S
C656 C657 1.389 . S
C657 C656 1.389 . S
C657 C658 1.387 1_655 S
C658 H643 0.930 . S
C658 C653 1.390 . S
C658 C657 1.387 1_455 S
H659 C671 0.930 . S
H660 C673 0.930 . S
H661 C674 0.930 1_565 S
H662 C678 0.959 . S
H663 C678 0.959 . S
H664 C678 0.961 . S
H665 C679 0.960 . S
H666 C679 0.961 . S
H667 C679 0.959 . S
H668 C682 0.929 . S
H669 C683 0.931 . S
H670 C685 0.930 . S
C671 H659 0.930 . S
C671 C672 1.399 . S
C671 C676 1.399 . S
C672 C671 1.399 . S
C672 C673 1.376 . S
C673 H660 0.930 . S
C673 C672 1.376 . S
C673 C674 1.388 . S
C674 H661 0.930 1_545 S
C674 C673 1.388 . S
C674 C675 1.390 . S
C675 C674 1.390 . S
C675 C676 1.394 . S
C675 C681 1.465 . S
C676 C671 1.399 . S
C676 C675 1.394 . S
C676 C677 1.516 . S
C677 C676 1.516 . S
C677 C678 1.502 . S
C677 C679 1.561 . S
C677 C680 1.526 . S
C678 H662 0.959 . S
C678 H663 0.959 . S
C678 H664 0.961 . S
C678 C677 1.502 . S
C679 H665 0.960 . S
C679 H666 0.961 . S
C679 H667 0.959 . S
C679 C677 1.561 . S
C680 C677 1.526 . S
C680 C681 1.396 . S
C680 C685 1.390 . S
C681 C675 1.465 . S
C681 C680 1.396 . S
C681 C682 1.399 1_545 S
C682 H668 0.929 . S
C682 C681 1.399 1_565 S
C682 C683 1.385 . S
C683 H669 0.931 . S
C683 C682 1.385 . S
C683 C684 1.389 . S
C684 C683 1.389 . S
C684 C685 1.387 1_565 S
C685 H670 0.930 . S
C685 C680 1.390 . S
C685 C684 1.387 1_545 S
H686 C698 0.930 . S
H687 C700 0.930 . S
H688 C701 0.930 . S
H689 C705 0.959 . S
H690 C705 0.959 . S
H691 C705 0.961 . S
H692 C706 0.960 . S
H693 C706 0.961 . S
H694 C706 0.959 . S
H695 C709 0.929 . S
H696 C710 0.931 . S
H697 C712 0.930 . S
C698 H686 0.930 . S
C698 C699 1.399 . S
C698 C703 1.399 . S
C699 C698 1.399 . S
C699 C700 1.376 . S
C700 H687 0.930 . S
C700 C699 1.376 . S
C700 C701 1.388 . S
C701 H688 0.930 . S
C701 C700 1.388 . S
C701 C702 1.390 . S
C702 C701 1.390 . S
C702 C703 1.394 . S
C702 C708 1.465 . S
C703 C698 1.399 . S
C703 C702 1.394 . S
C703 C704 1.516 . S
C704 C703 1.516 . S
C704 C705 1.502 . S
C704 C706 1.561 . S
C704 C707 1.526 . S
C705 H689 0.959 . S
C705 H690 0.959 . S
C705 H691 0.961 . S
C705 C704 1.502 . S
C706 H692 0.960 . S
C706 H693 0.961 . S
C706 H694 0.959 . S
C706 C704 1.561 . S
C707 C704 1.526 . S
C707 C708 1.396 . S
C707 C712 1.390 . S
C708 C702 1.465 . S
C708 C707 1.396 . S
C708 C709 1.399 . S
C709 H695 0.929 . S
C709 C708 1.399 . S
C709 C710 1.385 . S
C710 H696 0.931 . S
C710 C709 1.385 . S
C710 C711 1.389 . S
C711 C710 1.389 . S
C711 C712 1.387 . S
C712 H697 0.930 . S
C712 C707 1.390 . S
C712 C711 1.387 . S
H713 C725 0.930 . S
H714 C727 0.930 . S
H715 C728 0.930 . S
H716 C732 0.959 . S
H717 C732 0.959 . S
H718 C732 0.961 . S
H719 C733 0.960 . S
H720 C733 0.961 . S
H721 C733 0.959 . S
H722 C736 0.929 . S
H723 C737 0.931 . S
H724 C739 0.930 . S
C725 H713 0.930 . S
C725 C726 1.399 . S
C725 C730 1.399 . S
C726 C725 1.399 . S
C726 C727 1.376 . S
C727 H714 0.930 . S
C727 C726 1.376 . S
C727 C728 1.388 . S
C728 H715 0.930 . S
C728 C727 1.388 . S
C728 C729 1.390 . S
C729 C728 1.390 . S
C729 C730 1.394 . S
C729 C735 1.465 . S
C730 C725 1.399 . S
C730 C729 1.394 . S
C730 C731 1.516 . S
C731 C730 1.516 . S
C731 C732 1.502 . S
C731 C733 1.561 . S
C731 C734 1.526 . S
C732 H716 0.959 . S
C732 H717 0.959 . S
C732 H718 0.961 . S
C732 C731 1.502 . S
C733 H719 0.960 . S
C733 H720 0.961 . S
C733 H721 0.959 . S
C733 C731 1.561 . S
C734 C731 1.526 . S
C734 C735 1.396 . S
C734 C739 1.390 . S
C735 C729 1.465 . S
C735 C734 1.396 . S
C735 C736 1.399 . S
C736 H722 0.929 . S
C736 C735 1.399 . S
C736 C737 1.385 . S
C737 H723 0.931 . S
C737 C736 1.385 . S
C737 C738 1.389 . S
C738 C737 1.389 . S
C738 C739 1.387 . S
C739 H724 0.930 . S
C739 C734 1.390 . S
C739 C738 1.387 . S
H740 C752 0.930 . S
H741 C754 0.930 . S
H742 C755 0.930 . S
H743 C759 0.959 . S
H744 C759 0.959 1_556 S
H745 C759 0.961 . S
H746 C760 0.960 . S
H747 C760 0.961 1_455 S
H748 C760 0.959 . S
H749 C763 0.929 . S
H750 C764 0.936 . S
H751 C766 0.930 . S
C752 H740 0.930 . S
C752 C753 1.399 . S
C752 C757 1.399 . S
C753 C752 1.399 . S
C753 C754 1.376 . S
C754 H741 0.930 . S
C754 C753 1.376 . S
C754 C755 1.388 . S
C755 H742 0.930 . S
C755 C754 1.388 . S
C755 C756 1.390 . S
C756 C755 1.390 . S
C756 C757 1.394 . S
C756 C762 1.465 . S
C757 C752 1.399 . S
C757 C756 1.394 . S
C757 C758 1.528 1_655 S
C758 C757 1.528 1_455 S
C758 C759 1.503 . S
C758 C760 1.547 1_454 S
C758 C761 1.528 . S
C759 H743 0.959 . S
C759 H744 0.959 1_554 S
C759 H745 0.961 . S
C759 C758 1.503 . S
C760 H746 0.960 . S
C760 H747 0.961 1_655 S
C760 H748 0.959 . S
C760 C758 1.547 1_656 S
C761 C758 1.528 . S
C761 C762 1.396 1_455 S
C761 C766 1.390 1_554 S
C762 C756 1.465 . S
C762 C761 1.396 1_655 S
C762 C763 1.399 . S
C763 H749 0.929 . S
C763 C762 1.399 . S
C763 C764 1.410 . S
C764 H750 0.936 . S
C764 C763 1.410 . S
C764 C765 1.361 1_654 S
C765 C764 1.361 1_456 S
C765 C766 1.387 . S
C766 H751 0.930 . S
C766 C761 1.390 1_556 S
C766 C765 1.387 . S
H767 C779 0.930 . S
H768 C781 0.930 . S
H769 C782 0.930 1_545 S
H770 C786 0.959 . S
H771 C786 0.959 . S
H772 C786 0.961 . S
H773 C787 0.960 . S
H774 C787 0.961 . S
H775 C787 0.959 . S
H776 C790 0.929 . S
H777 C791 0.931 . S
H778 C793 0.949 . S
C779 H767 0.930 . S
C779 C780 1.399 . S
C779 C784 1.399 . S
C780 C779 1.399 . S
C780 C781 1.376 . S
C781 H768 0.930 . S
C781 C780 1.376 . S
C781 C782 1.388 . S
C782 H769 0.930 1_565 S
C782 C781 1.388 . S
C782 C783 1.390 . S
C783 C782 1.390 . S
C783 C784 1.394 . S
C783 C789 1.450 1_565 S
C784 C779 1.399 . S
C784 C783 1.394 . S
C784 C785 1.516 1_554 S
C785 C784 1.516 1_556 S
C785 C786 1.502 . S
C785 C787 1.561 . S
C785 C788 1.526 . S
C786 H770 0.959 . S
C786 H771 0.959 . S
C786 H772 0.961 . S
C786 C785 1.502 . S
C787 H773 0.960 . S
C787 H774 0.961 . S
C787 H775 0.959 . S
C787 C785 1.561 . S
C788 C785 1.526 . S
C788 C789 1.383 1_566 S
C788 C793 1.406 . S
C789 C783 1.450 1_545 S
C789 C788 1.383 1_544 S
C789 C790 1.423 . S
C790 H776 0.929 . S
C790 C789 1.423 . S
C790 C791 1.385 1_554 S
C791 H777 0.931 . S
C791 C790 1.385 1_556 S
C791 C792 1.389 . S
C792 C791 1.389 . S
C792 C793 1.353 1_545 S
C793 H778 0.949 . S
C793 C788 1.406 . S
C793 C792 1.353 1_565 S
H794 C806 0.930 . S
H795 C808 0.930 . S
H796 C809 0.930 . S
H797 C813 0.959 . S
H798 C813 0.959 . S
H799 C813 0.961 . S
H800 C814 0.960 . S
H801 C814 0.961 . S
H802 C814 0.959 . S
H803 C817 0.929 1_554 S
H804 C818 0.931 . S
H805 C820 0.930 . S
C806 H794 0.930 . S
C806 C807 1.399 . S
C806 C811 1.399 1_554 S
C807 C806 1.399 . S
C807 C808 1.376 . S
C808 H795 0.930 . S
C808 C807 1.376 . S
C808 C809 1.388 . S
C809 H796 0.930 . S
C809 C808 1.388 . S
C809 C810 1.390 . S
C810 C809 1.390 . S
C810 C811 1.394 1_554 S
C810 C816 1.465 1_554 S
C811 C806 1.399 1_556 S
C811 C810 1.394 1_556 S
C811 C812 1.516 . S
C812 C811 1.516 . S
C812 C813 1.502 . S
C812 C814 1.561 . S
C812 C815 1.526 . S
C813 H797 0.959 . S
C813 H798 0.959 . S
C813 H799 0.961 . S
C813 C812 1.502 . S
C814 H800 0.960 . S
C814 H801 0.961 . S
C814 H802 0.959 . S
C814 C812 1.561 . S
C815 C812 1.526 . S
C815 C816 1.396 . S
C815 C820 1.390 . S
C816 C810 1.465 1_556 S
C816 C815 1.396 . S
C816 C817 1.399 . S
C817 H803 0.929 1_556 S
C817 C816 1.399 . S
C817 C818 1.385 . S
C818 H804 0.931 . S
C818 C817 1.385 . S
C818 C819 1.389 . S
C819 C818 1.389 . S
C819 C820 1.387 . S
C820 H805 0.930 . S
C820 C815 1.390 . S
C820 C819 1.387 . S
H821 C833 0.929 . S
H822 C835 0.930 . S
H823 C836 0.930 . S
H824 C840 0.959 . S
H825 C840 0.959 . S
H826 C840 0.961 . S
H827 C841 0.960 . S
H828 C841 0.961 . S
H829 C841 0.959 1_554 S
H830 C844 0.929 . S
H831 C845 0.931 . S
H832 C847 0.930 . S
C833 H821 0.929 . S
C833 C834 1.399 . S
C833 C838 1.399 . S
C834 C833 1.399 . S
C834 C835 1.376 . S
C835 H822 0.930 . S
C835 C834 1.376 . S
C835 C836 1.388 . S
C836 H823 0.930 . S
C836 C835 1.388 . S
C836 C837 1.390 . S
C837 C836 1.390 . S
C837 C838 1.394 . S
C837 C843 1.465 . S
C838 C833 1.399 . S
C838 C837 1.394 . S
C838 C839 1.516 1_554 S
C839 C838 1.516 1_556 S
C839 C840 1.502 . S
C839 C841 1.561 . S
C839 C842 1.526 . S
C840 H824 0.959 . S
C840 H825 0.959 . S
C840 H826 0.961 . S
C840 C839 1.502 . S
C841 H827 0.960 . S
C841 H828 0.961 . S
C841 H829 0.959 1_556 S
C841 C839 1.561 . S
C842 C839 1.526 . S
C842 C843 1.396 1_556 S
C842 C847 1.390 . S
C843 C837 1.465 . S
C843 C842 1.396 1_554 S
C843 C844 1.399 . S
C844 H830 0.929 . S
C844 C843 1.399 . S
C844 C845 1.385 . S
C845 H831 0.931 . S
C845 C844 1.385 . S
C845 C846 1.389 1_554 S
C846 C845 1.389 1_556 S
C846 C847 1.387 . S
C847 H832 0.930 . S
C847 C842 1.390 . S
C847 C846 1.387 . S
H848 C860 0.930 . S
H849 C862 0.930 . S
H850 C863 0.930 . S
H851 C867 0.959 . S
H852 C867 0.959 . S
H853 C867 0.961 . S
H854 C868 0.960 . S
H855 C868 0.961 . S
H856 C868 0.959 . S
H857 C871 0.929 . S
H858 C872 0.931 . S
H859 C874 0.930 . S
C860 H848 0.930 . S
C860 C861 1.399 . S
C860 C865 1.399 . S
C861 C860 1.399 . S
C861 C862 1.376 . S
C862 H849 0.930 . S
C862 C861 1.376 . S
C862 C863 1.388 . S
C863 H850 0.930 . S
C863 C862 1.388 . S
C863 C864 1.390 . S
C864 C863 1.390 . S
C864 C865 1.394 . S
C864 C870 1.465 . S
C865 C860 1.399 . S
C865 C864 1.394 . S
C865 C866 1.516 . S
C866 C865 1.516 . S
C866 C867 1.502 . S
C866 C868 1.561 . S
C866 C869 1.526 . S
C867 H851 0.959 . S
C867 H852 0.959 . S
C867 H853 0.961 . S
C867 C866 1.502 . S
C868 H854 0.960 . S
C868 H855 0.961 . S
C868 H856 0.959 . S
C868 C866 1.561 . S
C869 C866 1.526 . S
C869 C870 1.396 . S
C869 C874 1.390 . S
C870 C864 1.465 . S
C870 C869 1.396 . S
C870 C871 1.399 . S
C871 H857 0.929 . S
C871 C870 1.399 . S
C871 C872 1.385 . S
C872 H858 0.931 . S
C872 C871 1.385 . S
C872 C873 1.389 . S
C873 C872 1.389 . S
C873 C874 1.387 . S
C874 H859 0.930 . S
C874 C869 1.390 . S
C874 C873 1.387 . S
H875 C887 0.930 . S
H876 C889 0.930 . S
H877 C890 0.930 . S
H878 C894 0.959 . S
H879 C894 0.959 . S
H880 C894 0.961 . S
H881 C895 0.960 . S
H882 C895 0.961 . S
H883 C895 0.959 . S
H884 C898 0.929 . S
H885 C899 0.931 . S
H886 C901 0.930 . S
C887 H875 0.930 . S
C887 C888 1.399 . S
C887 C892 1.399 . S
C888 C887 1.399 . S
C888 C889 1.376 . S
C889 H876 0.930 . S
C889 C888 1.376 . S
C889 C890 1.388 . S
C890 H877 0.930 . S
C890 C889 1.388 . S
C890 C891 1.390 . S
C891 C890 1.390 . S
C891 C892 1.394 . S
C891 C897 1.465 . S
C892 C887 1.399 . S
C892 C891 1.394 . S
C892 C893 1.516 . S
C893 C892 1.516 . S
C893 C894 1.502 . S
C893 C895 1.561 . S
C893 C896 1.526 . S
C894 H878 0.959 . S
C894 H879 0.959 . S
C894 H880 0.961 . S
C894 C893 1.502 . S
C895 H881 0.960 . S
C895 H882 0.961 . S
C895 H883 0.959 . S
C895 C893 1.561 . S
C896 C893 1.526 . S
C896 C897 1.396 . S
C896 C901 1.390 . S
C897 C891 1.465 . S
C897 C896 1.396 . S
C897 C898 1.399 . S
C898 H884 0.929 . S
C898 C897 1.399 . S
C898 C899 1.385 . S
C899 H885 0.931 . S
C899 C898 1.385 . S
C899 C900 1.389 . S
C900 C899 1.389 . S
C900 C901 1.387 . S
C901 H886 0.930 . S
C901 C896 1.390 . S
C901 C900 1.387 . S
H902 C914 0.930 . S
H903 C916 0.930 . S
H904 C917 0.930 . S
H905 C921 0.959 . S
H906 C921 0.959 . S
H907 C921 0.961 . S
H908 C922 0.960 . S
H909 C922 0.961 . S
H910 C922 0.959 . S
H911 C925 0.929 . S
H912 C926 0.931 . S
H913 C928 0.930 . S
C914 H902 0.930 . S
C914 C915 1.399 . S
C914 C919 1.399 . S
C915 C914 1.399 . S
C915 C916 1.376 . S
C916 H903 0.930 . S
C916 C915 1.376 . S
C916 C917 1.388 . S
C917 H904 0.930 . S
C917 C916 1.388 . S
C917 C918 1.390 . S
C918 C917 1.390 . S
C918 C919 1.394 . S
C918 C924 1.465 . S
C919 C914 1.399 . S
C919 C918 1.394 . S
C919 C920 1.516 . S
C920 C919 1.516 . S
C920 C921 1.502 . S
C920 C922 1.561 . S
C920 C923 1.526 . S
C921 H905 0.959 . S
C921 H906 0.959 . S
C921 H907 0.961 . S
C921 C920 1.502 . S
C922 H908 0.960 . S
C922 H909 0.961 . S
C922 H910 0.959 . S
C922 C920 1.561 . S
C923 C920 1.526 . S
C923 C924 1.396 . S
C923 C928 1.390 . S
C924 C918 1.465 . S
C924 C923 1.396 . S
C924 C925 1.399 . S
C925 H911 0.929 . S
C925 C924 1.399 . S
C925 C926 1.385 . S
C926 H912 0.931 . S
C926 C925 1.385 . S
C926 C927 1.389 . S
C927 C926 1.389 . S
C927 C928 1.387 . S
C928 H913 0.930 . S
C928 C923 1.390 . S
C928 C927 1.387 . S
H929 C941 0.930 . S
H930 C943 0.930 . S
H931 C944 0.930 . S
H932 C948 0.959 . S
H933 C948 0.959 . S
H934 C948 0.961 . S
H935 C949 0.960 . S
H936 C949 0.961 . S
H937 C949 0.959 . S
H938 C952 0.929 . S
H939 C953 0.931 . S
H940 C955 0.930 . S
C941 H929 0.930 . S
C941 C942 1.399 . S
C941 C946 1.399 . S
C942 C941 1.399 . S
C942 C943 1.376 . S
C943 H930 0.930 . S
C943 C942 1.376 . S
C943 C944 1.388 . S
C944 H931 0.930 . S
C944 C943 1.388 . S
C944 C945 1.390 . S
C945 C944 1.390 . S
C945 C946 1.394 . S
C945 C951 1.465 . S
C946 C941 1.399 . S
C946 C945 1.394 . S
C946 C947 1.516 . S
C947 C946 1.516 . S
C947 C948 1.502 . S
C947 C949 1.561 . S
C947 C950 1.526 . S
C948 H932 0.959 . S
C948 H933 0.959 . S
C948 H934 0.961 . S
C948 C947 1.502 . S
C949 H935 0.960 . S
C949 H936 0.961 . S
C949 H937 0.959 . S
C949 C947 1.561 . S
C950 C947 1.526 . S
C950 C951 1.396 . S
C950 C955 1.390 . S
C951 C945 1.465 . S
C951 C950 1.396 . S
C951 C952 1.399 . S
C952 H938 0.929 . S
C952 C951 1.399 . S
C952 C953 1.385 . S
C953 H939 0.931 . S
C953 C952 1.385 . S
C953 C954 1.389 . S
C954 C953 1.389 . S
C954 C955 1.387 . S
C955 H940 0.930 . S
C955 C950 1.390 . S
C955 C954 1.387 . S
H956 C968 0.930 . S
H957 C970 0.930 . S
H958 C971 0.930 . S
H959 C975 0.959 . S
H960 C975 0.959 . S
H961 C975 0.961 . S
H962 C976 0.960 . S
H963 C976 0.961 . S
H964 C976 0.959 1_455 S
H965 C979 0.929 1_455 S
H966 C980 0.931 1_455 S
H967 C982 0.930 . S
C968 H956 0.930 . S
C968 C969 1.399 . S
C968 C973 1.399 . S
C969 C968 1.399 . S
C969 C970 1.376 . S
C970 H957 0.930 . S
C970 C969 1.376 . S
C970 C971 1.388 . S
C971 H958 0.930 . S
C971 C970 1.388 . S
C971 C972 1.390 . S
C972 C971 1.390 . S
C972 C973 1.394 . S
C972 C978 1.465 . S
C973 C968 1.399 . S
C973 C972 1.394 . S
C973 C974 1.516 . S
C974 C973 1.516 . S
C974 C975 1.502 . S
C974 C976 1.561 . S
C974 C977 1.526 . S
C975 H959 0.959 . S
C975 H960 0.959 . S
C975 H961 0.961 . S
C975 C974 1.502 . S
C976 H962 0.960 . S
C976 H963 0.961 . S
C976 H964 0.959 1_655 S
C976 C974 1.561 . S
C977 C974 1.526 . S
C977 C978 1.396 . S
C977 C982 1.390 . S
C978 C972 1.465 . S
C978 C977 1.396 . S
C978 C979 1.399 . S
C979 H965 0.929 1_655 S
C979 C978 1.399 . S
C979 C980 1.385 . S
C980 H966 0.931 1_655 S
C980 C979 1.385 . S
C980 C981 1.389 . S
C981 C980 1.389 . S
C981 C982 1.387 . S
C982 H967 0.930 . S
C982 C977 1.390 . S
C982 C981 1.387 . S
H983 C995 0.930 . S
H984 C997 0.930 . S
H985 C998 0.930 1_545 S
H986 C1002 0.959 . S
H987 C1002 0.959 . S
H988 C1002 0.961 . S
H989 C1003 0.960 . S
H990 C1003 0.961 . S
H991 C1003 0.959 . S
H992 C1006 0.929 . S
H993 C1007 0.955 . S
H994 C1009 0.930 . S
C995 H983 0.930 . S
C995 C996 1.399 . S
C995 C1000 1.399 . S
C996 C995 1.399 . S
C996 C997 1.376 . S
C997 H984 0.930 . S
C997 C996 1.376 . S
C997 C998 1.388 . S
C998 H985 0.930 1_565 S
C998 C997 1.388 . S
C998 C999 1.390 . S
C999 C998 1.390 . S
C999 C1000 1.394 . S
C999 C1005 1.465 . S
C1000 C995 1.399 . S
C1000 C999 1.394 . S
C1000 C1001 1.516 . S
C1001 C1000 1.516 . S
C1001 C1002 1.502 . S
C1001 C1003 1.561 . S
C1001 C1004 1.526 . S
C1002 H986 0.959 . S
C1002 H987 0.959 . S
C1002 H988 0.961 . S
C1002 C1001 1.502 . S
C1003 H989 0.960 . S
C1003 H990 0.961 . S
C1003 H991 0.959 . S
C1003 C1001 1.561 . S
C1004 C1001 1.526 . S
C1004 C1005 1.396 . S
C1004 C1009 1.390 . S
C1005 C999 1.465 . S
C1005 C1004 1.396 . S
C1005 C1006 1.399 1_565 S
C1006 H992 0.929 . S
C1006 C1005 1.399 1_545 S
C1006 C1007 1.386 . S
C1007 H993 0.955 . S
C1007 C1006 1.386 . S
C1007 C1008 1.366 1_545 S
C1008 C1007 1.366 1_565 S
C1008 C1009 1.387 . S
C1009 H994 0.930 . S
C1009 C1004 1.390 . S
C1009 C1008 1.387 . S
H1010 C1022 0.930 . S
H1011 C1024 0.930 . S
H1012 C1025 0.930 . S
H1013 C1029 0.959 . S
H1014 C1029 0.959 . S
H1015 C1029 0.961 . S
H1016 C1030 0.960 . S
H1017 C1030 0.961 . S
H1018 C1030 0.959 . S
H1019 C1033 0.929 . S
H1020 C1034 0.931 . S
H1021 C1036 0.930 . S
C1022 H1010 0.930 . S
C1022 C1023 1.399 . S
C1022 C1027 1.399 . S
C1023 C1022 1.399 . S
C1023 C1024 1.376 . S
C1024 H1011 0.930 . S
C1024 C1023 1.376 . S
C1024 C1025 1.388 . S
C1025 H1012 0.930 . S
C1025 C1024 1.388 . S
C1025 C1026 1.390 . S
C1026 C1025 1.390 . S
C1026 C1027 1.394 . S
C1026 C1032 1.465 . S
C1027 C1022 1.399 . S
C1027 C1026 1.394 . S
C1027 C1028 1.516 . S
C1028 C1027 1.516 . S
C1028 C1029 1.502 . S
C1028 C1030 1.561 . S
C1028 C1031 1.526 . S
C1029 H1013 0.959 . S
C1029 H1014 0.959 . S
C1029 H1015 0.961 . S
C1029 C1028 1.502 . S
C1030 H1016 0.960 . S
C1030 H1017 0.961 . S
C1030 H1018 0.959 . S
C1030 C1028 1.561 . S
C1031 C1028 1.526 . S
C1031 C1032 1.396 . S
C1031 C1036 1.390 . S
C1032 C1026 1.465 . S
C1032 C1031 1.396 . S
C1032 C1033 1.399 . S
C1033 H1019 0.929 . S
C1033 C1032 1.399 . S
C1033 C1034 1.385 . S
C1034 H1020 0.931 . S
C1034 C1033 1.385 . S
C1034 C1035 1.389 . S
C1035 C1034 1.389 . S
C1035 C1036 1.387 . S
C1036 H1021 0.930 . S
C1036 C1031 1.390 . S
C1036 C1035 1.387 . S
H1037 C1049 0.930 . S
H1038 C1051 0.930 . S
H1039 C1052 0.930 . S
H1040 C1056 0.959 . S
H1041 C1056 0.959 . S
H1042 C1056 0.961 . S
H1043 C1057 0.960 . S
H1044 C1057 0.961 . S
H1045 C1057 0.959 . S
H1046 C1060 0.929 . S
H1047 C1061 0.931 . S
H1048 C1063 0.930 . S
C1049 H1037 0.930 . S
C1049 C1050 1.399 . S
C1049 C1054 1.399 . S
C1050 C1049 1.399 . S
C1050 C1051 1.376 . S
C1051 H1038 0.930 . S
C1051 C1050 1.376 . S
C1051 C1052 1.388 . S
C1052 H1039 0.930 . S
C1052 C1051 1.388 . S
C1052 C1053 1.390 . S
C1053 C1052 1.390 . S
C1053 C1054 1.394 . S
C1053 C1059 1.465 . S
C1054 C1049 1.399 . S
C1054 C1053 1.394 . S
C1054 C1055 1.516 . S
C1055 C1054 1.516 . S
C1055 C1056 1.502 . S
C1055 C1057 1.561 . S
C1055 C1058 1.526 . S
C1056 H1040 0.959 . S
C1056 H1041 0.959 . S
C1056 H1042 0.961 . S
C1056 C1055 1.502 . S
C1057 H1043 0.960 . S
C1057 H1044 0.961 . S
C1057 H1045 0.959 . S
C1057 C1055 1.561 . S
C1058 C1055 1.526 . S
C1058 C1059 1.396 . S
C1058 C1063 1.390 . S
C1059 C1053 1.465 . S
C1059 C1058 1.396 . S
C1059 C1060 1.399 . S
C1060 H1046 0.929 . S
C1060 C1059 1.399 . S
C1060 C1061 1.385 . S
C1061 H1047 0.931 . S
C1061 C1060 1.385 . S
C1061 C1062 1.389 . S
C1062 C1061 1.389 . S
C1062 C1063 1.387 . S
C1063 H1048 0.930 . S
C1063 C1058 1.390 . S
C1063 C1062 1.387 . S
C429 C215 2.559 . S
C441 C287 2.655 . S
C468 C313 2.149 . S
C456 C247 1.937 . S
C495 C353 2.160 . S
C483 C151 2.066 . S
C522 C407 2.636 . S
C510 C183 2.543 . S
C549 C268 2.666 . S
C537 C87 2.486 . S
C564 C119 2.001 . S
C576 C298 2.133 . S
C591 C23 1.964 . S
C603 C338 2.175 . S
C618 C55 2.446 . S
C630 C388 2.620 1_655 S
C657 C264 0.519 1_655 S
C645 C189 0.311 . S
C684 C325 0.734 . S
C672 C221 0.629 . S
C711 C365 0.504 . S
C699 C253 0.397 . S
C726 C157 0.271 . S
C738 C384 0.247 . S
C753 C61 0.708 . S
C765 C285 0.447 . S
C792 C304 0.650 . S
C780 C93 0.675 . S
C819 C344 0.400 . S
C807 C125 0.508 . S
C834 C29 0.512 . S
C846 C405 0.466 . S
C861 C177 2.241 . S
C873 C258 2.541 . S
C888 C209 2.840 . S
C900 C308 3.113 . S
C927 C348 2.872 . S
C915 C241 2.538 . S
C954 C378 2.286 . S
C942 C145 2.029 . S
C969 C49 2.179 . S
C981 C273 2.544 . S
C1008 C327 3.106 . S
C996 C81 2.833 . S
C1035 C367 2.868 . S
C1023 C113 2.686 . S
C1050 C17 2.003 . S
C1062 C393 2.284 . S
