# Generated by pormake.
# Topology tsx, (6,3)-cn, num edge types: 1
# Building blocks:
#     Node 0, Type 0, BuildingBlock: CIFDUS_clean_sbu_1, # of connection points: 6
#     Node 1, Type 0, BuildingBlock: CIFDUS_clean_sbu_1, # of connection points: 6
#     Node 2, Type 1, BuildingBlock: BELTOD_clean_linker_0, # of connection points: 3
#     Node 3, Type 1, BuildingBlock: BELTOD_clean_linker_0, # of connection points: 3
#     Node 4, Type 1, BuildingBlock: BELTOD_clean_linker_0, # of connection points: 3
#     Node 5, Type 1, BuildingBlock: BELTOD_clean_linker_0, # of connection points: 3
#     Edge 6, Type (0, 1), BuildingBlock: FUNLAD_clean_linker_0, # of connection points: 2
#     Edge 7, Type (0, 1), BuildingBlock: FUNLAD_clean_linker_0, # of connection points: 2
#     Edge 8, Type (0, 1), BuildingBlock: FUNLAD_clean_linker_0, # of connection points: 2
#     Edge 9, Type (0, 1), BuildingBlock: FUNLAD_clean_linker_0, # of connection points: 2
#     Edge 10, Type (0, 1), BuildingBlock: FUNLAD_clean_linker_0, # of connection points: 2
#     Edge 11, Type (0, 1), BuildingBlock: FUNLAD_clean_linker_0, # of connection points: 2
#     Edge 12, Type (0, 1), BuildingBlock: FUNLAD_clean_linker_0, # of connection points: 2
#     Edge 13, Type (0, 1), BuildingBlock: FUNLAD_clean_linker_0, # of connection points: 2
#     Edge 14, Type (0, 1), BuildingBlock: FUNLAD_clean_linker_0, # of connection points: 2
#     Edge 15, Type (0, 1), BuildingBlock: FUNLAD_clean_linker_0, # of connection points: 2
#     Edge 16, Type (0, 1), BuildingBlock: FUNLAD_clean_linker_0, # of connection points: 2
#     Edge 17, Type (0, 1), BuildingBlock: FUNLAD_clean_linker_0, # of connection points: 2
# Relax obj value: 0.115
# Max RMSD: 0.149
# Mean RMSD: 0.108
data_MOF--net-tsx--node1-CIFDUS_clean_sbu_1--node2-BELTOD_clean_linker_0--edge1-FUNLAD_clean_linker_0
_symmetry_space_group_name_H-M    P1
_symmetry_Int_Tables_number       1
_symmetry_cell_setting            triclinic
loop_
_symmetry_equiv_pos_as_xyz
'x, y, z'
_cell_length_a     23.546062
_cell_length_b     28.958465
_cell_length_c     47.042862
_cell_angle_alpha  97.702648
_cell_angle_beta   91.544262
_cell_angle_gamma 91.258616
loop_
_atom_site_label
_atom_site_type_symbol
_atom_site_fract_x
_atom_site_fract_y
_atom_site_fract_z
_atom_type_partial_charge
O0 O 0.98249 0.09245 0.00911 0.0
Mn1 Mn 0.02753 0.03031 0.00751 0.0
O2 O 0.90012 0.07387 0.98411 0.0
Mn3 Mn 0.9168 0.01318 0.96963 0.0
O4 O 0.07153 0.96752 0.00505 0.0
O5 O 0.09921 0.06855 0.01825 0.0
Mn6 Mn 0.14038 0.04203 0.04316 0.0
O7 O 0.01151 0.028 0.05103 0.0
O8 O 0.15862 0.98415 0.02493 0.0
O9 O 0.04438 0.03177 0.96391 0.0
O10 O 0.96447 0.00568 0.93877 0.0
O11 O 0.18032 0.09535 0.03753 0.0
O12 O 0.09606 0.04046 0.07495 0.0
C13 C 0.91637 0.96123 0.99821 0.0
C14 C 0.93312 0.103 0.99974 0.0
C15 C 0.12223 0.95567 0.01134 0.0
C16 C 0.13785 0.10131 0.0205 0.0
C17 C 0.04247 0.03285 0.07427 0.0
C18 C 0.01692 0.01796 0.94013 0.0
O19 O 0.95592 0.99237 0.99735 0.0
O20 O 0.87489 0.96346 0.97991 0.0
O21 O 0.48598 0.59647 0.51427 0.0
Mn22 Mn 0.52716 0.53237 0.50553 0.0
O23 O 0.39306 0.58237 0.50326 0.0
Mn24 Mn 0.40274 0.52462 0.48221 0.0
O25 O 0.56705 0.46771 0.49597 0.0
O26 O 0.60174 0.56924 0.50927 0.0
Mn27 Mn 0.65214 0.53652 0.52575 0.0
O28 O 0.53115 0.52617 0.54949 0.0
O29 O 0.66078 0.48235 0.50123 0.0
O30 O 0.52431 0.53773 0.46153 0.0
O31 O 0.43317 0.52538 0.44627 0.0
O32 O 0.69041 0.59001 0.51982 0.0
O33 O 0.62465 0.52914 0.56147 0.0
C34 C 0.41437 0.46402 0.50311 0.0
C35 C 0.43406 0.60963 0.51343 0.0
C36 C 0.61883 0.45516 0.49286 0.0
C37 C 0.64193 0.60058 0.50915 0.0
C38 C 0.57257 0.52474 0.56781 0.0
C39 C 0.48551 0.53264 0.44146 0.0
O40 O 0.45266 0.4963 0.50194 0.0
O41 O 0.36621 0.47145 0.49087 0.0
P42 P 0.09701 0.07351 0.43008 0.0
H43 H 0.05938 0.10069 0.48852 0.0
H44 H 0.97184 0.13605 0.50685 0.0
H45 H 0.89746 0.1149 0.42088 0.0
H46 H 0.98314 0.07825 0.40319 0.0
H47 H 0.21576 0.05011 0.43226 0.0
H48 H 0.2682 0.99219 0.45474 0.0
H49 H 0.11097 0.9406 0.48569 0.0
H50 H 0.0589 -0.00041 0.46355 0.0
H51 H 0.10347 0.12945 0.38325 0.0
H52 H 0.07198 0.98518 0.39265 0.0
O53 O 0.13687 0.12232 0.43694 0.0
H54 H 0.08468 0.11199 0.33167 0.0
H55 H 0.05212 0.96734 0.34079 0.0
C56 C 0.02818 0.08701 0.44449 0.0
C57 C 0.02344 0.10234 0.47385 0.0
C58 C 0.97348 0.12293 0.48423 0.0
C59 C 0.92767 0.12914 0.46529 0.0
C60 C 0.93132 0.11048 0.43624 0.0
C61 C 0.981 0.08967 0.42597 0.0
C62 C 0.13362 0.0294 0.44647 0.0
C63 C 0.1926 0.02639 0.44396 0.0
C64 C 0.22251 0.99305 0.45671 0.0
C65 C 0.19391 0.96168 0.47209 0.0
C66 C 0.13449 0.96467 0.47441 0.0
C67 C 0.10456 -0.00182 0.4616 0.0
C68 C 0.09047 0.05841 0.39167 0.0
C69 C 0.09334 0.0938 0.37412 0.0
C70 C 0.08175 0.08387 0.34464 0.0
C71 C 0.06652 0.0383 0.33207 0.0
C72 C 0.06427 0.0027 0.34973 0.0
C73 C 0.07577 0.01278 0.37934 0.0
P74 P 0.10319 0.9799 0.58545 0.0
H75 H 0.04736 0.97214 0.52836 0.0
H76 H 0.95342 0.94119 0.51029 0.0
H77 H 0.90717 0.92669 0.59702 0.0
H78 H 0.99966 0.95792 0.61466 0.0
H79 H 0.22246 -0.00265 0.57629 0.0
H80 H 0.27527 0.06302 0.56141 0.0
H81 H 0.11754 0.13234 0.54924 0.0
H82 H 0.06476 0.06593 0.56411 0.0
H83 H 0.14854 0.92783 0.62987 0.0
H84 H 0.06708 0.05884 0.62609 0.0
O85 O 0.13784 0.93097 0.57558 0.0
H86 H 0.1511 0.94242 0.68209 0.0
H87 H 0.06828 0.07339 0.67871 0.0
C88 C 0.03037 0.96834 0.57292 0.0
C89 C 0.01623 0.96357 0.54349 0.0
C90 C 0.96268 0.9454 0.53318 0.0
C91 C 0.92239 0.93136 0.55216 0.0
C92 C 0.9363 0.93791 0.58174 0.0
C93 C 0.98966 0.95589 0.59194 0.0
C94 C 0.13967 0.02647 0.57091 0.0
C95 C 0.19912 0.0264 0.57005 0.0
C96 C 0.22935 0.06421 0.5618 0.0
C97 C 0.20076 0.10319 0.55437 0.0
C98 C 0.14088 0.10275 0.55466 0.0
C99 C 0.11061 0.06484 0.56313 0.0
C100 C 0.10775 0.99234 0.62408 0.0
C101 C 0.13134 0.9599 0.64027 0.0
C102 C 0.13243 0.96816 0.67023 0.0
C103 C 0.10958 0.00896 0.68469 0.0
C104 C 0.0868 0.04185 0.66832 0.0
C105 C 0.08584 0.03353 0.63825 0.0
P106 P 0.58721 0.56908 0.92617 0.0
H107 H 0.56044 0.63226 0.97741 0.0
H108 H 0.47127 0.66478 0.99516 0.0
H109 H 0.37839 0.57519 0.92801 0.0
H110 H 0.46776 0.54286 0.91035 0.0
H111 H 0.67578 0.50554 0.90595 0.0
H112 H 0.726 0.44537 0.92761 0.0
H113 H 0.62107 0.46939 0.00184 0.0
H114 H 0.57045 0.52912 0.97985 0.0
H115 H 0.59229 0.6294 0.88156 0.0
H116 H 0.5533 0.48471 0.88668 0.0
O117 O 0.63333 0.614 0.93327 0.0
H118 H 0.57032 0.61693 0.83016 0.0
H119 H 0.52925 0.47202 0.83518 0.0
C120 C 0.52088 0.58616 0.9421 0.0
C121 C 0.52084 0.61918 0.96674 0.0
C122 C 0.46974 0.63749 0.97698 0.0
C123 C 0.41778 0.62298 0.96273 0.0
C124 C 0.41781 0.58764 0.93912 0.0
C125 C 0.46896 0.56912 0.92902 0.0
C126 C 0.61833 0.52086 0.94087 0.0
C127 C 0.66289 0.49726 0.92665 0.0
C128 C 0.69207 0.46332 0.93923 0.0
C129 C 0.67753 0.45263 0.96645 0.0
C130 C 0.63271 0.47636 0.98067 0.0
C131 C 0.60363 0.51046 0.96806 0.0
C132 C 0.57575 0.55775 0.88779 0.0
C133 C 0.57945 0.59476 0.87152 0.0
C134 C 0.56602 0.58768 0.84214 0.0
C135 C 0.54766 0.54348 0.82842 0.0
C136 C 0.54398 0.50636 0.84489 0.0
C137 C 0.55778 0.5135 0.87434 0.0
P138 P 0.59673 0.48174 0.0831 0.0
H139 H 0.58048 0.40619 0.03597 0.0
H140 H 0.49628 0.3692 0.01087 0.0
H141 H 0.39191 0.47355 0.05677 0.0
H142 H 0.47724 0.51018 0.08213 0.0
H143 H 0.71597 0.50956 0.08272 0.0
H144 H 0.76457 0.58036 0.07271 0.0
H145 H 0.60404 0.63374 0.04662 0.0
H146 H 0.5554 0.56294 0.05767 0.0
H147 H 0.52003 0.43679 0.11933 0.0
H148 H 0.63525 0.55616 0.12914 0.0
O149 O 0.64264 0.43847 0.08195 0.0
H150 H 0.49984 0.45157 0.17039 0.0
H151 H 0.61506 0.57117 0.18011 0.0
C152 C 0.53509 0.4605 0.06115 0.0
C153 C 0.53969 0.42168 0.04023 0.0
C154 C 0.49126 0.40066 0.02576 0.0
C155 C 0.43695 0.41809 0.0319 0.0
C156 C 0.43289 0.45874 0.05181 0.0
C157 C 0.48163 0.47988 0.06622 0.0
C158 C 0.63214 0.53071 0.07062 0.0
C159 C 0.6913 0.53608 0.07431 0.0
C160 C 0.71914 0.57669 0.06851 0.0
C161 C 0.68836 0.61301 0.05892 0.0
C162 C 0.62906 0.60684 0.05439 0.0
C163 C 0.60117 0.56615 0.06039 0.0
C164 C 0.5781 0.49592 0.12017 0.0
C165 C 0.54024 0.46666 0.13233 0.0
C166 C 0.52876 0.47514 0.16156 0.0
C167 C 0.55572 0.51267 0.17932 0.0
C168 C 0.5939 0.54181 0.16707 0.0
C169 C 0.60507 0.53344 0.13778 0.0
C170 C 0.16878 0.15096 0.98478 0.0
C171 C 0.1344 0.14489 0.00792 0.0
C172 C 0.18764 0.19565 0.98049 0.0
C173 C 0.17331 0.23497 0.9998 0.0
C174 C 0.13333 0.22897 0.02077 0.0
C175 C 0.11444 0.1843 0.02495 0.0
C176 C 0.20439 0.28098 0.00173 0.0
C177 C 0.25582 0.28661 0.99041 0.0
C178 C 0.29524 0.3273 0.99943 0.0
C179 C 0.34013 0.33572 0.98159 0.0
C180 C 0.38431 0.36744 0.99142 0.0
C181 C 0.38514 0.39119 0.01956 0.0
H182 H 0.2613 0.34707 0.04176 0.0
C183 C 0.33855 0.38479 0.03687 0.0
C184 C 0.29417 0.35321 0.02698 0.0
H185 H 0.33801 0.40189 0.05879 0.0
H186 H 0.18531 0.12094 0.97162 0.0
H187 H 0.21622 0.1985 0.96319 0.0
H188 H 0.12069 0.25846 0.03572 0.0
H189 H 0.08882 0.18038 0.04332 0.0
H190 H 0.18753 0.30973 0.01597 0.0
H191 H 0.27281 0.25876 0.97561 0.0
H192 H 0.34224 0.31628 0.96031 0.0
H193 H 0.41893 0.37208 0.97728 0.0
C194 C 0.18664 0.89088 0.01834 0.0
C195 C 0.1398 0.90689 0.00367 0.0
C196 C 0.2063 0.84609 0.01078 0.0
C197 C 0.17955 0.81574 0.98833 0.0
C198 C 0.1323 0.8314 0.97374 0.0
C199 C 0.11213 0.87647 0.98154 0.0
C200 C 0.20442 0.76992 0.97809 0.0
C201 C 0.23476 0.74606 0.99578 0.0
C202 C 0.27439 0.70794 0.98631 0.0
C203 C 0.30812 0.69065 0.00744 0.0
C204 C 0.35295 0.66111 0.99986 0.0
C205 C 0.3649 0.64783 0.97089 0.0
H206 H 0.25945 0.70408 0.94009 0.0
C207 C 0.32891 0.66244 0.94967 0.0
C208 C 0.2842 0.69222 0.95724 0.0
H209 H 0.33721 0.65302 0.92713 0.0
H210 H 0.20895 0.91327 0.03556 0.0
H211 H 0.24402 0.83619 0.0219 0.0
H212 H 0.11146 0.80897 0.95606 0.0
H213 H 0.07615 0.88793 0.96972 0.0
H214 H 0.20012 0.7577 0.95533 0.0
H215 H 0.23438 0.75772 0.01872 0.0
H216 H 0.30156 0.70178 0.03001 0.0
H217 H 0.37941 0.64985 0.0167 0.0
C218 C 0.87017 0.92608 0.03671 0.0
C219 C 0.91513 0.92585 0.01778 0.0
C220 C 0.85418 0.88553 0.0478 0.0
C221 C 0.88202 0.84355 0.03948 0.0
C222 C 0.93077 0.84468 0.0229 0.0
C223 C 0.94708 0.88557 0.01198 0.0
C224 C 0.85852 0.79779 0.04564 0.0
C225 C 0.80218 0.78981 0.04807 0.0
C226 C 0.77526 0.74376 0.05113 0.0
C227 C 0.72009 0.74286 0.06172 0.0
C228 C 0.69181 0.70061 0.06395 0.0
C229 C 0.71775 0.65795 0.05533 0.0
H230 H 0.84289 0.7001 0.03309 0.0
C231 C 0.77278 0.65876 0.04435 0.0
C232 C 0.80124 0.70112 0.04226 0.0
H233 H 0.79371 0.62659 0.03703 0.0
H234 H 0.84478 0.95682 0.04131 0.0
H235 H 0.8182 0.88676 0.06169 0.0
H236 H 0.95362 0.81307 0.01655 0.0
H237 H 0.98129 0.88446 0.99698 0.0
H238 H 0.88783 0.76946 0.04597 0.0
H239 H 0.77327 0.8183 0.04719 0.0
H240 H 0.69877 0.77509 0.06852 0.0
H241 H 0.64993 0.70151 0.07294 0.0
C242 C 0.85402 0.15861 0.00605 0.0
C243 C 0.91279 0.1512 0.00599 0.0
C244 C 0.83304 0.20341 0.00715 0.0
C245 C 0.87037 0.24229 0.00835 0.0
C246 C 0.92929 0.23509 0.00951 0.0
C247 C 0.95037 0.18996 0.00857 0.0
C248 C 0.84905 0.28938 0.00483 0.0
C249 C 0.79548 0.30243 0.01092 0.0
C250 C 0.76789 0.34414 0.00168 0.0
C251 C 0.70858 0.34731 0.00378 0.0
C252 C 0.67944 0.38292 0.99284 0.0
C253 C 0.70892 0.41658 0.97972 0.0
H254 H 0.84334 0.37883 0.98778 0.0
C255 C 0.76844 0.41461 0.97852 0.0
C256 C 0.79769 0.37891 0.9894 0.0
H257 H 0.79245 0.44061 0.96897 0.0
H258 H 0.82391 0.12943 0.0041 0.0
H259 H 0.78749 0.20677 0.00534 0.0
H260 H 0.95909 0.26427 0.01014 0.0
H261 H 0.99581 0.18524 0.0082 0.0
H262 H 0.87774 0.31226 0.9953 0.0
H263 H 0.76857 0.27972 0.02167 0.0
H264 H 0.68427 0.32118 0.01306 0.0
H265 H 0.63355 0.38307 0.99369 0.0
C266 C 0.62029 0.6838 0.52084 0.0
C267 C 0.6358 0.64696 0.50027 0.0
C268 C 0.63989 0.72943 0.51925 0.0
C269 C 0.67628 0.7387 0.49723 0.0
C270 C 0.68558 0.70262 0.47484 0.0
C271 C 0.66597 0.65712 0.47648 0.0
C272 C 0.7113 0.78274 0.49851 0.0
C273 C 0.72372 0.81143 0.52309 0.0
C274 C 0.77098 0.84718 0.52658 0.0
C275 C 0.77059 0.88292 0.54991 0.0
C276 C 0.81837 0.91218 0.55712 0.0
C277 C 0.86832 0.90606 0.54141 0.0
H278 H 0.82258 0.81503 0.49207 0.0
C279 C 0.86772 0.87189 0.51711 0.0
C280 C 0.81972 0.84276 0.50978 0.0
H281 H 0.90553 0.8656 0.50471 0.0
H282 H 0.59783 0.67668 0.53965 0.0
H283 H 0.62935 0.75642 0.53632 0.0
H284 H 0.71265 0.70861 0.45736 0.0
H285 H 0.67951 0.62913 0.46066 0.0
H286 H 0.73311 0.7885 0.4792 0.0
H287 H 0.70167 0.80662 0.54246 0.0
H288 H 0.73383 0.88719 0.56329 0.0
H289 H 0.81678 0.93863 0.57566 0.0
C290 C 0.68401 0.39796 0.46831 0.0
C291 C 0.63243 0.40648 0.48213 0.0
C292 C 0.70603 0.35345 0.46464 0.0
C293 C 0.67718 0.31636 0.47488 0.0
C294 C 0.62285 0.32363 0.48607 0.0
C295 C 0.60055 0.36862 0.48978 0.0
C296 C 0.70606 0.27142 0.47565 0.0
C297 C 0.76086 0.27154 0.48487 0.0
C298 C 0.79775 0.23031 0.48361 0.0
C299 C 0.85148 0.23648 0.49747 0.0
C300 C 0.89223 0.20224 0.49302 0.0
C301 C 0.88037 0.16064 0.47456 0.0
H302 H 0.74351 0.18134 0.45544 0.0
C303 C 0.82517 0.15298 0.46223 0.0
C304 C 0.78427 0.18751 0.46661 0.0
H305 H 0.81424 0.12106 0.44821 0.0
H306 H 0.70904 0.42635 0.46176 0.0
H307 H 0.74709 0.34848 0.45498 0.0
H308 H 0.59946 0.29531 0.49368 0.0
H309 H 0.56065 0.37428 0.5005 0.0
H310 H 0.68209 0.23906 0.46943 0.0
H311 H 0.78108 0.30493 0.49325 0.0
H312 H 0.86317 0.26904 0.51071 0.0
H313 H 0.93425 0.20994 0.50263 0.0
C314 C 0.41951 0.37859 0.49451 0.0
C315 C 0.42307 0.41953 0.51419 0.0
C316 C 0.40504 0.33591 0.5035 0.0
C317 C 0.39296 0.33352 0.5324 0.0
C318 C 0.40232 0.37369 0.55254 0.0
C319 C 0.4168 0.41657 0.54346 0.0
C320 C 0.36665 0.29076 0.54158 0.0
C321 C 0.32918 0.26301 0.52442 0.0
C322 C 0.29696 0.22238 0.53308 0.0
C323 C 0.24772 0.20567 0.517 0.0
C324 C 0.21625 0.16739 0.52398 0.0
C325 C 0.23362 0.14442 0.54708 0.0
H326 H 0.35263 0.2103 0.56881 0.0
C327 C 0.2831 0.16089 0.5631 0.0
C328 C 0.31443 0.19935 0.55621 0.0
H329 H 0.29748 0.14419 0.58117 0.0
H330 H 0.42359 0.3802 0.47176 0.0
H331 H 0.40049 0.30534 0.48755 0.0
H332 H 0.39416 0.3727 0.57501 0.0
H333 H 0.41823 0.44789 0.55894 0.0
H334 H 0.37388 0.285 0.56369 0.0
H335 H 0.31861 0.27214 0.50328 0.0
H336 H 0.23335 0.22239 0.49892 0.0
H337 H 0.17882 0.1553 0.51097 0.0
C338 C 0.36513 0.67172 0.52847 0.0
C339 C 0.42055 0.65949 0.52061 0.0
C340 C 0.34663 0.71711 0.528 0.0
C341 C 0.38329 0.75166 0.51967 0.0
C342 C 0.44001 0.74016 0.51389 0.0
C343 C 0.45854 0.69459 0.51444 0.0
C344 C 0.36217 0.79742 0.513 0.0
C345 C 0.3112 0.81469 0.5208 0.0
C346 C 0.28518 0.85492 0.50901 0.0
C347 C 0.24122 0.8787 0.52388 0.0
C348 C 0.21214 0.9137 0.51213 0.0
C349 C 0.22597 0.92551 0.4851 0.0
H350 H 0.33147 0.84862 0.46933 0.0
C351 C 0.27025 0.90196 0.47031 0.0
C352 C 0.2994 0.86707 0.48204 0.0
H353 H 0.28132 0.90945 0.44917 0.0
H354 H 0.3348 0.64538 0.5333 0.0
H355 H 0.30248 0.72368 0.53229 0.0
H356 H 0.46929 0.76585 0.50735 0.0
H357 H 0.50114 0.68612 0.50781 0.0
H358 H 0.38895 0.81649 0.4999 0.0
H359 H 0.2864 0.79841 0.53601 0.0
H360 H 0.2289 0.86986 0.54455 0.0
H361 H 0.17874 0.93153 0.52418 0.0
C362 C 0.03163 0.9875 0.11475 0.0
C363 C 0.0172 0.02663 0.10175 0.0
C364 C 0.02095 0.98593 0.14367 0.0
C365 C 0.99675 0.02414 0.16036 0.0
C366 C 0.97843 0.06175 0.14665 0.0
C367 C 0.98886 0.06313 0.11756 0.0
C368 C 0.9933 0.02732 0.1922 0.0
C369 C 0.02952 0.00535 0.20837 0.0
C370 C 0.03334 0.0127 0.24038 0.0
C371 C 0.06399 0.98086 0.25448 0.0
C372 C 0.07352 0.98843 0.28425 0.0
C373 C 0.05302 0.02836 0.30069 0.0
H374 H 0.98872 0.07816 0.24717 0.0
C375 C 0.02123 0.05974 0.28673 0.0
C376 C 0.01157 0.05213 0.25697 0.0
H377 H 1.00423 0.09059 0.29881 0.0
H378 H 0.05371 0.95902 0.10284 0.0
H379 H 0.03339 0.95535 0.15296 0.0
H380 H 0.95904 0.09139 0.15884 0.0
H381 H 0.9781 0.09391 0.10798 0.0
H382 H 0.96287 0.05117 0.20249 0.0
H383 H 0.06021 0.98198 0.19783 0.0
H384 H 0.08167 0.95035 0.24233 0.0
H385 H 0.09858 0.96376 0.29424 0.0
C386 C 0.07402 0.0523 0.90338 0.0
C387 C 0.04662 0.01378 0.91278 0.0
C388 C 0.0936 0.0491 0.87524 0.0
C389 C 0.08688 0.007 0.85644 0.0
C390 C 0.06255 0.968 0.86667 0.0
C391 C 0.04186 0.97153 0.89435 0.0
C392 C 0.10273 0.00204 0.82583 0.0
C393 C 0.09823 0.03643 0.80924 0.0
C394 C 0.10335 0.02841 0.77739 0.0
C395 C 0.11635 0.06622 0.76263 0.0
C396 C 0.11875 0.06012 0.73261 0.0
C397 C 0.10777 0.01602 0.71664 0.0
H398 H 0.07893 0.95469 0.7715 0.0
C399 C 0.09411 0.97836 0.73141 0.0
C400 C 0.09171 0.98443 0.76131 0.0
H401 H 0.08382 0.9442 0.71981 0.0
H402 H 0.07791 0.08529 0.91728 0.0
H403 H 0.11336 0.07954 0.86821 0.0
H404 H 0.05725 0.93509 0.85277 0.0
H405 H 0.02091 0.94136 0.90119 0.0
H406 H 0.11343 0.96731 0.81613 0.0
H407 H 0.08811 0.07131 0.81899 0.0
H408 H 0.12475 0.10062 0.77436 0.0
H409 H 0.12961 0.08987 0.72194 0.0
C410 C 0.50872 0.52619 0.61037 0.0
C411 C 0.56124 0.51648 0.59762 0.0
C412 C 0.50113 0.52066 0.63929 0.0
C413 C 0.54587 0.5048 0.65573 0.0
C414 C 0.59718 0.4933 0.64246 0.0
C415 C 0.60494 0.49934 0.61396 0.0
C416 C 0.54223 0.50018 0.68677 0.0
C417 C 0.50785 0.52531 0.705 0.0
C418 C 0.51341 0.52668 0.7368 0.0
C419 C 0.49564 0.56639 0.75444 0.0
C420 C 0.50535 0.57128 0.78416 0.0
C421 C 0.53301 0.53644 0.79706 0.0
H422 H 0.55049 0.45855 0.73726 0.0
C423 C 0.54811 0.49557 0.77957 0.0
C424 C 0.53813 0.49058 0.74984 0.0
H425 H 0.56926 0.46791 0.7887 0.0
H426 H 0.47407 0.53899 0.59825 0.0
H427 H 0.46041 0.52873 0.64858 0.0
H428 H 0.63219 0.48059 0.6544 0.0
H429 H 0.64568 0.49069 0.60477 0.0
H430 H 0.57411 0.4789 0.69536 0.0
H431 H 0.47918 0.54961 0.69681 0.0
H432 H 0.47571 0.59446 0.74513 0.0
H433 H 0.49166 0.60269 0.79701 0.0
C434 C 0.45993 0.52455 0.38898 0.0
C435 C 0.50138 0.53427 0.41122 0.0
C436 C 0.47397 0.52468 0.36037 0.0
C437 C 0.52993 0.53515 0.35307 0.0
C438 C 0.57155 0.54465 0.37523 0.0
C439 C 0.55748 0.54438 0.40401 0.0
C440 C 0.54661 0.53392 0.32259 0.0
C441 C 0.5092 0.53899 0.301 0.0
C442 C 0.52313 0.53349 0.27003 0.0
C443 C 0.47843 0.52346 0.24959 0.0
C444 C 0.48897 0.51694 0.22025 0.0
C445 C 0.54455 0.52083 0.21056 0.0
H446 H 0.61432 0.54703 0.27528 0.0
C447 C 0.58929 0.53193 0.23094 0.0
C448 C 0.57878 0.53817 0.26036 0.0
H449 H 0.63264 0.53507 0.22416 0.0
H450 H 0.41639 0.516 0.39355 0.0
H451 H 0.44085 0.51525 0.34414 0.0
H452 H 0.61515 0.55229 0.37028 0.0
H453 H 0.59058 0.55187 0.42053 0.0
H454 H 0.59093 0.52782 0.31801 0.0
H455 H 0.46518 0.54589 0.30588 0.0
H456 H 0.43507 0.52005 0.25633 0.0
H457 H 0.45345 0.50914 0.20513 0.0
loop_
_geom_bond_atom_site_label_1
_geom_bond_atom_site_label_2
_geom_bond_distance
_geom_bond_site_symmetry_2
_ccdc_geom_bond_type
O0 Mn1 2.163 . S
O0 C14 1.245 1_455 S
Mn1 O0 2.163 . S
Mn1 O4 2.160 1_544 S
Mn1 O5 2.221 . S
Mn1 O7 2.163 . S
Mn1 O9 2.160 1_554 S
Mn1 O19 2.221 1_444 S
O2 Mn3 2.087 . S
O2 C14 1.255 1_556 S
Mn3 O2 2.087 . S
Mn3 O10 2.089 . S
Mn3 O19 2.290 1_545 S
Mn3 O20 2.251 1_545 S
O4 Mn1 2.160 1_566 S
O4 C15 1.239 1_556 S
O5 Mn1 2.221 . S
O5 Mn6 2.290 . S
O5 C16 1.278 . S
Mn6 O5 2.290 . S
Mn6 O8 2.089 1_545 S
Mn6 O11 2.251 . S
Mn6 O12 2.087 . S
O7 Mn1 2.163 . S
O7 C17 1.244 . S
O8 Mn6 2.089 1_565 S
O8 C15 1.256 . S
O9 Mn1 2.160 1_556 S
O9 C18 1.239 . S
O10 Mn3 2.089 . S
O10 C18 1.256 1_655 S
O11 Mn6 2.251 . S
O11 C16 1.241 . S
O12 Mn6 2.087 . S
O12 C17 1.256 . S
C13 O19 1.278 1_554 S
C13 O20 1.241 1_554 S
C14 O0 1.245 1_655 S
C14 O2 1.255 1_554 S
C15 O4 1.239 1_554 S
C15 O8 1.256 . S
C16 O5 1.278 . S
C16 O11 1.241 . S
C17 O7 1.244 . S
C17 O12 1.256 . S
C18 O9 1.239 . S
C18 O10 1.256 1_455 S
O19 Mn1 2.221 1_666 S
O19 Mn3 2.290 1_565 S
O19 C13 1.278 1_556 S
O20 Mn3 2.251 1_565 S
O20 C13 1.241 1_556 S
O21 Mn22 2.163 . S
O21 C35 1.244 . S
Mn22 O21 2.163 . S
Mn22 O25 2.160 . S
Mn22 O26 2.221 . S
Mn22 O28 2.163 . S
Mn22 O30 2.160 . S
Mn22 O40 2.221 . S
O23 Mn24 2.087 . S
O23 C35 1.256 . S
Mn24 O23 2.087 . S
Mn24 O31 2.089 . S
Mn24 O40 2.290 . S
Mn24 O41 2.251 . S
O25 Mn22 2.160 . S
O25 C36 1.239 . S
O26 Mn22 2.221 . S
O26 Mn27 2.290 . S
O26 C37 1.278 . S
Mn27 O26 2.290 . S
Mn27 O29 2.089 . S
Mn27 O32 2.251 . S
Mn27 O33 2.087 . S
O28 Mn22 2.163 . S
O28 C38 1.244 . S
O29 Mn27 2.089 . S
O29 C36 1.256 . S
O30 Mn22 2.160 . S
O30 C39 1.239 . S
O31 Mn24 2.089 . S
O31 C39 1.256 . S
O32 Mn27 2.251 . S
O32 C37 1.241 . S
O33 Mn27 2.087 . S
O33 C38 1.256 . S
C34 O40 1.278 . S
C34 O41 1.241 . S
C35 O21 1.244 . S
C35 O23 1.256 . S
C36 O25 1.239 . S
C36 O29 1.256 . S
C37 O26 1.278 . S
C37 O32 1.241 . S
C38 O28 1.244 . S
C38 O33 1.256 . S
C39 O30 1.239 . S
C39 O31 1.256 . S
O40 Mn22 2.221 . S
O40 Mn24 2.290 . S
O40 C34 1.278 . S
O41 Mn24 2.251 . S
O41 C34 1.241 . S
P42 O53 1.490 . S
P42 C56 1.812 . S
P42 C62 1.803 1_545 S
P42 C68 1.819 . S
H43 C57 0.941 . S
H44 C58 0.939 1_455 S
H45 C60 0.940 . S
H46 C61 0.940 . S
H47 C63 0.939 . S
H48 C64 0.942 . S
H49 C66 0.940 . S
H50 C67 0.939 . S
H51 C69 0.941 . S
H52 C73 0.939 . S
O53 P42 1.490 . S
H54 C70 0.939 . S
H55 C72 0.940 . S
C56 P42 1.812 . S
C56 C57 1.389 . S
C56 C61 1.391 1_455 S
C57 H43 0.941 . S
C57 C56 1.389 . S
C57 C58 1.397 1_455 S
C58 H44 0.939 1_655 S
C58 C57 1.397 1_655 S
C58 C59 1.378 . S
C59 C58 1.378 . S
C59 C60 1.378 . S
C60 H45 0.940 . S
C60 C59 1.378 . S
C60 C61 1.396 . S
C61 H46 0.940 . S
C61 C56 1.391 1_655 S
C61 C60 1.396 . S
C62 P42 1.803 1_565 S
C62 C63 1.378 . S
C62 C67 1.400 . S
C63 H47 0.939 . S
C63 C62 1.378 . S
C63 C64 1.361 . S
C64 H48 0.942 . S
C64 C63 1.361 . S
C64 C65 1.369 . S
C65 C64 1.369 . S
C65 C66 1.404 . S
C66 H49 0.940 . S
C66 C65 1.404 . S
C66 C67 1.389 . S
C67 H50 0.939 . S
C67 C62 1.400 . S
C67 C66 1.389 . S
C68 P42 1.819 . S
C68 C69 1.391 . S
C68 C73 1.391 1_545 S
C69 H51 0.941 . S
C69 C68 1.391 . S
C69 C70 1.396 . S
C70 H54 0.939 . S
C70 C69 1.396 . S
C70 C71 1.397 . S
C71 C70 1.397 . S
C71 C72 1.385 1_545 S
C72 H55 0.940 . S
C72 C71 1.385 1_565 S
C72 C73 1.388 . S
C73 H52 0.939 . S
C73 C68 1.391 1_565 S
C73 C72 1.388 . S
P74 O85 1.487 1_545 S
P74 C88 1.807 1_455 S
P74 C94 1.803 . S
P74 C100 1.819 . S
H75 C89 0.941 . S
H76 C90 0.939 . S
H77 C92 0.946 . S
H78 C93 0.940 . S
H79 C95 0.939 . S
H80 C96 0.942 . S
H81 C98 0.940 . S
H82 C99 0.954 . S
H83 C101 0.941 1_565 S
H84 C105 0.939 . S
O85 P74 1.487 1_565 S
H86 C102 0.939 . S
H87 C104 0.940 . S
C88 P74 1.807 1_655 S
C88 C89 1.388 1_645 S
C88 C93 1.396 . S
C89 H75 0.941 . S
C89 C88 1.388 1_465 S
C89 C90 1.397 1_455 S
C90 H76 0.939 . S
C90 C89 1.397 1_655 S
C90 C91 1.378 . S
C91 C90 1.378 . S
C91 C92 1.364 1_565 S
C92 H77 0.946 . S
C92 C91 1.364 1_545 S
C92 C93 1.404 . S
C93 H78 0.940 . S
C93 C88 1.396 . S
C93 C92 1.404 . S
C94 P74 1.803 . S
C94 C95 1.378 . S
C94 C99 1.400 . S
C95 H79 0.939 . S
C95 C94 1.378 . S
C95 C96 1.361 . S
C96 H80 0.942 . S
C96 C95 1.361 . S
C96 C97 1.369 . S
C97 C96 1.369 . S
C97 C98 1.404 . S
C98 H81 0.940 . S
C98 C97 1.404 . S
C98 C99 1.389 . S
C99 H82 0.954 . S
C99 C94 1.400 . S
C99 C98 1.389 . S
C100 P74 1.819 . S
C100 C101 1.391 . S
C100 C105 1.391 . S
C101 H83 0.941 1_545 S
C101 C100 1.391 . S
C101 C102 1.396 . S
C102 H86 0.939 . S
C102 C101 1.396 . S
C102 C103 1.397 . S
C103 C102 1.397 . S
C103 C104 1.385 . S
C104 H87 0.940 . S
C104 C103 1.385 . S
C104 C105 1.388 . S
C105 H84 0.939 . S
C105 C100 1.391 . S
C105 C104 1.388 . S
P106 O117 1.490 . S
P106 C120 1.812 . S
P106 C126 1.803 . S
P106 C132 1.819 . S
H107 C121 0.941 . S
H108 C122 0.939 . S
H109 C124 0.940 . S
H110 C125 0.940 . S
H111 C127 0.939 . S
H112 C128 0.942 . S
H113 C130 0.940 . S
H114 C131 0.939 . S
H115 C133 0.941 . S
H116 C137 0.939 . S
O117 P106 1.490 . S
H118 C134 0.939 . S
H119 C136 0.940 . S
C120 P106 1.812 . S
C120 C121 1.389 . S
C120 C125 1.391 . S
C121 H107 0.941 . S
C121 C120 1.389 . S
C121 C122 1.397 . S
C122 H108 0.939 . S
C122 C121 1.397 . S
C122 C123 1.378 . S
C123 C122 1.378 . S
C123 C124 1.378 . S
C124 H109 0.940 . S
C124 C123 1.378 . S
C124 C125 1.396 . S
C125 H110 0.940 . S
C125 C120 1.391 . S
C125 C124 1.396 . S
C126 P106 1.803 . S
C126 C127 1.378 . S
C126 C131 1.400 . S
C127 H111 0.939 . S
C127 C126 1.378 . S
C127 C128 1.361 . S
C128 H112 0.942 . S
C128 C127 1.361 . S
C128 C129 1.369 . S
C129 C128 1.369 . S
C129 C130 1.404 . S
C130 H113 0.940 . S
C130 C129 1.404 . S
C130 C131 1.389 . S
C131 H114 0.939 . S
C131 C126 1.400 . S
C131 C130 1.389 . S
C132 P106 1.819 . S
C132 C133 1.391 . S
C132 C137 1.391 . S
C133 H115 0.941 . S
C133 C132 1.391 . S
C133 C134 1.396 . S
C134 H118 0.939 . S
C134 C133 1.396 . S
C134 C135 1.397 . S
C135 C134 1.397 . S
C135 C136 1.385 . S
C136 H119 0.940 . S
C136 C135 1.385 . S
C136 C137 1.388 . S
C137 H116 0.939 . S
C137 C132 1.391 . S
C137 C136 1.388 . S
P138 O149 1.490 . S
P138 C152 1.812 . S
P138 C158 1.803 . S
P138 C164 1.819 . S
H139 C153 0.941 . S
H140 C154 0.939 . S
H141 C156 0.940 . S
H142 C157 0.940 . S
H143 C159 0.939 . S
H144 C160 0.942 . S
H145 C162 0.940 . S
H146 C163 0.939 . S
H147 C165 0.941 . S
H148 C169 0.939 . S
O149 P138 1.490 . S
H150 C166 0.939 . S
H151 C168 0.940 . S
C152 P138 1.812 . S
C152 C153 1.389 . S
C152 C157 1.391 . S
C153 H139 0.941 . S
C153 C152 1.389 . S
C153 C154 1.397 . S
C154 H140 0.939 . S
C154 C153 1.397 . S
C154 C155 1.378 . S
C155 C154 1.378 . S
C155 C156 1.378 . S
C156 H141 0.940 . S
C156 C155 1.378 . S
C156 C157 1.396 . S
C157 H142 0.940 . S
C157 C152 1.391 . S
C157 C156 1.396 . S
C158 P138 1.803 . S
C158 C159 1.378 . S
C158 C163 1.400 . S
C159 H143 0.939 . S
C159 C158 1.378 . S
C159 C160 1.361 . S
C160 H144 0.942 . S
C160 C159 1.361 . S
C160 C161 1.369 . S
C161 C160 1.369 . S
C161 C162 1.404 . S
C162 H145 0.940 . S
C162 C161 1.404 . S
C162 C163 1.389 . S
C163 H146 0.939 . S
C163 C158 1.400 . S
C163 C162 1.389 . S
C164 P138 1.819 . S
C164 C165 1.391 . S
C164 C169 1.391 . S
C165 H147 0.941 . S
C165 C164 1.391 . S
C165 C166 1.396 . S
C166 H150 0.939 . S
C166 C165 1.396 . S
C166 C167 1.397 . S
C167 C166 1.397 . S
C167 C168 1.385 . S
C168 H151 0.940 . S
C168 C167 1.385 . S
C168 C169 1.388 . S
C169 H148 0.939 . S
C169 C164 1.391 . S
C169 C168 1.388 . S
C170 C171 1.386 1_556 S
C170 C172 1.384 . S
C170 H186 0.951 . S
C171 C170 1.386 1_554 S
C171 C175 1.383 . S
C172 C170 1.384 . S
C172 C173 1.393 1_556 S
C172 H187 0.958 . S
C173 C172 1.393 1_554 S
C173 C174 1.375 . S
C173 C176 1.481 . S
C174 C173 1.375 . S
C174 C175 1.367 . S
C174 H188 0.951 . S
C175 C171 1.383 . S
C175 C174 1.367 . S
C175 H189 0.950 . S
C176 C173 1.481 . S
C176 C177 1.297 . S
C176 H190 0.950 . S
C177 C176 1.297 . S
C177 C178 1.479 . S
C177 H191 0.970 . S
C178 C177 1.479 . S
C178 C179 1.375 . S
C178 C184 1.404 . S
C179 C178 1.375 . S
C179 C180 1.369 . S
C179 H192 0.950 1_554 S
C180 C179 1.369 . S
C180 C181 1.392 . S
C180 H193 0.951 1_554 S
C181 C180 1.392 . S
C181 C183 1.384 . S
H182 C184 0.949 . S
C183 C181 1.384 . S
C183 C184 1.385 . S
C183 H185 0.950 . S
C184 C178 1.404 . S
C184 H182 0.949 . S
C184 C183 1.385 . S
H185 C183 0.950 . S
H186 C170 0.951 . S
H187 C172 0.958 . S
H188 C174 0.951 . S
H189 C175 0.950 . S
H190 C176 0.950 . S
H191 C177 0.970 . S
H192 C179 0.950 1_556 S
H193 C180 0.951 1_556 S
C194 C195 1.386 . S
C194 C196 1.383 . S
C194 H210 0.951 . S
C195 C194 1.386 . S
C195 C199 1.383 1_554 S
C196 C194 1.383 . S
C196 C197 1.402 1_554 S
C196 H211 0.951 . S
C197 C196 1.402 1_556 S
C197 C198 1.375 . S
C197 C200 1.481 . S
C198 C197 1.375 . S
C198 C199 1.367 . S
C198 H212 0.951 . S
C199 C195 1.383 1_556 S
C199 C198 1.367 . S
C199 H213 0.950 . S
C200 C197 1.481 . S
C200 C201 1.296 . S
C200 H214 0.950 . S
C201 C200 1.296 . S
C201 C202 1.479 . S
C201 H215 0.952 1_556 S
C202 C201 1.479 . S
C202 C203 1.375 1_556 S
C202 C208 1.404 . S
C203 C202 1.375 1_554 S
C203 C204 1.369 1_554 S
C203 H216 0.950 . S
C204 C203 1.369 1_556 S
C204 C205 1.392 . S
C204 H217 0.951 1_556 S
C205 C204 1.392 . S
C205 C207 1.384 . S
H206 C208 0.949 . S
C207 C205 1.384 . S
C207 C208 1.385 . S
C207 H209 0.950 . S
C208 C202 1.404 . S
C208 H206 0.949 . S
C208 C207 1.385 . S
H209 C207 0.950 . S
H210 C194 0.951 . S
H211 C196 0.951 . S
H212 C198 0.951 . S
H213 C199 0.950 . S
H214 C200 0.950 . S
H215 C201 0.952 1_554 S
H216 C203 0.950 . S
H217 C204 0.951 1_554 S
C218 C219 1.386 . S
C218 C220 1.383 . S
C218 H234 0.951 . S
C219 C218 1.386 . S
C219 C223 1.383 1_554 S
C220 C218 1.383 . S
C220 C221 1.402 . S
C220 H235 0.951 . S
C221 C220 1.402 . S
C221 C222 1.375 1_554 S
C221 C224 1.481 . S
C222 C221 1.375 1_556 S
C222 C223 1.367 . S
C222 H236 0.951 . S
C223 C219 1.383 1_556 S
C223 C222 1.367 . S
C223 H237 0.950 . S
C224 C221 1.481 . S
C224 C225 1.297 . S
C224 H238 0.950 . S
C225 C224 1.297 . S
C225 C226 1.479 . S
C225 H239 0.950 . S
C226 C225 1.479 . S
C226 C227 1.375 . S
C226 C232 1.404 . S
C227 C226 1.375 . S
C227 C228 1.369 . S
C227 H240 0.950 . S
C228 C227 1.369 . S
C228 C229 1.392 . S
C228 H241 0.951 . S
C229 C228 1.392 . S
C229 C231 1.384 . S
H230 C232 0.949 1_556 S
C231 C229 1.384 . S
C231 C232 1.385 . S
C231 H233 0.950 . S
C232 C226 1.404 . S
C232 H230 0.949 1_554 S
C232 C231 1.385 . S
H233 C231 0.950 . S
H234 C218 0.951 . S
H235 C220 0.951 . S
H236 C222 0.951 . S
H237 C223 0.950 . S
H238 C224 0.950 . S
H239 C225 0.950 . S
H240 C227 0.950 . S
H241 C228 0.951 . S
C242 C243 1.386 1_556 S
C242 C244 1.383 . S
C242 H258 0.951 . S
C243 C242 1.386 1_554 S
C243 C247 1.383 . S
C244 C242 1.383 . S
C244 C245 1.402 1_556 S
C244 H259 0.951 . S
C245 C244 1.402 1_554 S
C245 C246 1.375 . S
C245 C248 1.481 . S
C246 C245 1.375 . S
C246 C247 1.367 . S
C246 H260 0.951 . S
C247 C243 1.383 . S
C247 C246 1.367 . S
C247 H261 0.950 . S
C248 C245 1.481 . S
C248 C249 1.297 1_554 S
C248 H262 0.950 . S
C249 C248 1.297 1_556 S
C249 C250 1.479 . S
C249 H263 0.950 . S
C250 C249 1.479 . S
C250 C251 1.375 . S
C250 C256 1.393 1_556 S
C251 C250 1.375 . S
C251 C252 1.369 . S
C251 H264 0.950 . S
C252 C251 1.369 . S
C252 C253 1.392 . S
C252 H265 0.951 . S
C253 C252 1.392 . S
C253 C255 1.384 . S
H254 C256 0.967 . S
C255 C253 1.384 . S
C255 C256 1.378 1_556 S
C255 H257 0.950 1_556 S
C256 C250 1.393 1_554 S
C256 H254 0.967 . S
C256 C255 1.378 1_554 S
H257 C255 0.950 1_554 S
H258 C242 0.951 . S
H259 C244 0.951 . S
H260 C246 0.951 . S
H261 C247 0.950 . S
H262 C248 0.950 . S
H263 C249 0.950 . S
H264 C251 0.950 . S
H265 C252 0.951 . S
C266 C267 1.386 . S
C266 C268 1.383 . S
C266 H282 0.951 . S
C267 C266 1.386 . S
C267 C271 1.383 . S
C268 C266 1.383 . S
C268 C269 1.402 . S
C268 H283 0.951 . S
C269 C268 1.402 . S
C269 C270 1.375 . S
C269 C272 1.481 . S
C270 C269 1.375 . S
C270 C271 1.367 . S
C270 H284 0.951 . S
C271 C267 1.383 . S
C271 C270 1.367 . S
C271 H285 0.950 . S
C272 C269 1.481 . S
C272 C273 1.297 . S
C272 H286 0.950 . S
C273 C272 1.297 . S
C273 C274 1.479 . S
C273 H287 0.950 . S
C274 C273 1.479 . S
C274 C275 1.375 . S
C274 C280 1.404 . S
C275 C274 1.375 . S
C275 C276 1.369 . S
C275 H288 0.950 . S
C276 C275 1.369 . S
C276 C277 1.392 . S
C276 H289 0.951 . S
C277 C276 1.392 . S
C277 C279 1.384 . S
H278 C280 0.949 . S
C279 C277 1.384 . S
C279 C280 1.385 . S
C279 H281 0.950 . S
C280 C274 1.404 . S
C280 H278 0.949 . S
C280 C279 1.385 . S
H281 C279 0.950 . S
H282 C266 0.951 . S
H283 C268 0.951 . S
H284 C270 0.951 . S
H285 C271 0.950 . S
H286 C272 0.950 . S
H287 C273 0.950 . S
H288 C275 0.950 . S
H289 C276 0.951 . S
C290 C291 1.386 . S
C290 C292 1.383 . S
C290 H306 0.951 . S
C291 C290 1.386 . S
C291 C295 1.383 . S
C292 C290 1.383 . S
C292 C293 1.402 . S
C292 H307 0.951 . S
C293 C292 1.402 . S
C293 C294 1.375 . S
C293 C296 1.481 . S
C294 C293 1.375 . S
C294 C295 1.367 . S
C294 H308 0.951 . S
C295 C291 1.383 . S
C295 C294 1.367 . S
C295 H309 0.950 . S
C296 C293 1.481 . S
C296 C297 1.297 . S
C296 H310 0.950 . S
C297 C296 1.297 . S
C297 C298 1.479 . S
C297 H311 0.950 . S
C298 C297 1.479 . S
C298 C299 1.375 . S
C298 C304 1.404 . S
C299 C298 1.375 . S
C299 C300 1.369 . S
C299 H312 0.950 . S
C300 C299 1.369 . S
C300 C301 1.392 . S
C300 H313 0.951 . S
C301 C300 1.392 . S
C301 C303 1.384 . S
H302 C304 0.949 . S
C303 C301 1.384 . S
C303 C304 1.385 . S
C303 H305 0.950 . S
C304 C298 1.404 . S
C304 H302 0.949 . S
C304 C303 1.385 . S
H305 C303 0.950 . S
H306 C290 0.951 . S
H307 C292 0.951 . S
H308 C294 0.951 . S
H309 C295 0.950 . S
H310 C296 0.950 . S
H311 C297 0.950 . S
H312 C299 0.950 . S
H313 C300 0.951 . S
C314 C315 1.386 . S
C314 C316 1.383 . S
C314 H330 0.951 . S
C315 C314 1.386 . S
C315 C319 1.383 . S
C316 C314 1.383 . S
C316 C317 1.402 . S
C316 H331 0.951 . S
C317 C316 1.402 . S
C317 C318 1.375 . S
C317 C320 1.481 . S
C318 C317 1.375 . S
C318 C319 1.367 . S
C318 H332 0.951 . S
C319 C315 1.383 . S
C319 C318 1.367 . S
C319 H333 0.950 . S
C320 C317 1.481 . S
C320 C321 1.297 . S
C320 H334 0.950 . S
C321 C320 1.297 . S
C321 C322 1.479 . S
C321 H335 0.950 . S
C322 C321 1.479 . S
C322 C323 1.375 . S
C322 C328 1.404 . S
C323 C322 1.375 . S
C323 C324 1.369 . S
C323 H336 0.950 . S
C324 C323 1.369 . S
C324 C325 1.392 . S
C324 H337 0.951 . S
C325 C324 1.392 . S
C325 C327 1.384 . S
H326 C328 0.949 . S
C327 C325 1.384 . S
C327 C328 1.385 . S
C327 H329 0.950 . S
C328 C322 1.404 . S
C328 H326 0.949 . S
C328 C327 1.385 . S
H329 C327 0.950 . S
H330 C314 0.951 . S
H331 C316 0.951 . S
H332 C318 0.951 . S
H333 C319 0.950 . S
H334 C320 0.950 . S
H335 C321 0.950 . S
H336 C323 0.950 . S
H337 C324 0.951 . S
C338 C339 1.386 . S
C338 C340 1.383 . S
C338 H354 0.951 . S
C339 C338 1.386 . S
C339 C343 1.383 . S
C340 C338 1.383 . S
C340 C341 1.402 . S
C340 H355 0.951 . S
C341 C340 1.402 . S
C341 C342 1.375 . S
C341 C344 1.481 . S
C342 C341 1.375 . S
C342 C343 1.367 . S
C342 H356 0.951 . S
C343 C339 1.383 . S
C343 C342 1.367 . S
C343 H357 0.950 . S
C344 C341 1.481 . S
C344 C345 1.297 . S
C344 H358 0.950 . S
C345 C344 1.297 . S
C345 C346 1.479 . S
C345 H359 0.950 . S
C346 C345 1.479 . S
C346 C347 1.375 . S
C346 C352 1.404 . S
C347 C346 1.375 . S
C347 C348 1.369 . S
C347 H360 0.950 . S
C348 C347 1.369 . S
C348 C349 1.392 . S
C348 H361 0.951 . S
C349 C348 1.392 . S
C349 C351 1.384 . S
H350 C352 0.949 . S
C351 C349 1.384 . S
C351 C352 1.385 . S
C351 H353 0.950 . S
C352 C346 1.404 . S
C352 H350 0.949 . S
C352 C351 1.385 . S
H353 C351 0.950 . S
H354 C338 0.951 . S
H355 C340 0.951 . S
H356 C342 0.951 . S
H357 C343 0.950 . S
H358 C344 0.950 . S
H359 C345 0.950 . S
H360 C347 0.950 . S
H361 C348 0.951 . S
C362 C363 1.386 1_565 S
C362 C364 1.383 . S
C362 H378 0.951 . S
C363 C362 1.386 1_545 S
C363 C367 1.383 . S
C364 C362 1.383 . S
C364 C365 1.402 1_565 S
C364 H379 0.951 . S
C365 C364 1.402 1_545 S
C365 C366 1.375 . S
C365 C368 1.481 . S
C366 C365 1.375 . S
C366 C367 1.367 . S
C366 H380 0.951 1_455 S
C367 C363 1.383 . S
C367 C366 1.367 . S
C367 H381 0.950 1_455 S
C368 C365 1.481 . S
C368 C369 1.297 . S
C368 H382 0.950 . S
C369 C368 1.297 . S
C369 C370 1.479 . S
C369 H383 0.949 . S
C370 C369 1.479 . S
C370 C371 1.375 1_545 S
C370 C376 1.404 . S
C371 C370 1.375 1_565 S
C371 C372 1.369 . S
C371 H384 0.950 . S
C372 C371 1.369 . S
C372 C373 1.392 1_565 S
C372 H385 0.951 . S
C373 C372 1.392 1_545 S
C373 C375 1.384 . S
H374 C376 0.949 . S
C375 C373 1.384 . S
C375 C376 1.385 . S
C375 H377 0.950 1_455 S
C376 C370 1.404 . S
C376 H374 0.949 . S
C376 C375 1.385 . S
H377 C375 0.950 1_655 S
H378 C362 0.951 . S
H379 C364 0.951 . S
H380 C366 0.951 1_655 S
H381 C367 0.950 1_655 S
H382 C368 0.950 . S
H383 C369 0.949 . S
H384 C371 0.950 . S
H385 C372 0.951 . S
C386 C387 1.386 . S
C386 C388 1.383 . S
C386 H402 0.951 . S
C387 C386 1.386 . S
C387 C391 1.383 . S
C388 C386 1.383 . S
C388 C389 1.402 . S
C388 H403 0.951 . S
C389 C388 1.402 . S
C389 C390 1.375 1_455 S
C389 C392 1.481 . S
C390 C389 1.375 1_655 S
C390 C391 1.367 1_655 S
C390 H404 0.951 1_545 S
C391 C387 1.383 . S
C391 C390 1.367 1_455 S
C391 H405 0.950 1_445 S
C392 C389 1.481 . S
C392 C393 1.297 . S
C392 H406 0.950 1_455 S
C393 C392 1.297 . S
C393 C394 1.479 . S
C393 H407 0.950 . S
C394 C393 1.479 . S
C394 C395 1.375 . S
C394 C400 1.404 . S
C395 C394 1.375 . S
C395 C396 1.369 . S
C395 H408 0.950 . S
C396 C395 1.369 . S
C396 C397 1.392 . S
C396 H409 0.951 . S
C397 C396 1.392 . S
C397 C399 1.384 1_455 S
H398 C400 0.949 1_655 S
C399 C397 1.384 1_655 S
C399 C400 1.385 1_655 S
C399 H401 0.950 . S
C400 C394 1.404 . S
C400 H398 0.949 1_455 S
C400 C399 1.385 1_455 S
H401 C399 0.950 . S
H402 C386 0.951 . S
H403 C388 0.951 . S
H404 C390 0.951 1_565 S
H405 C391 0.950 1_665 S
H406 C392 0.950 1_655 S
H407 C393 0.950 . S
H408 C395 0.950 . S
H409 C396 0.951 . S
C410 C411 1.386 . S
C410 C412 1.383 . S
C410 H426 0.951 . S
C411 C410 1.386 . S
C411 C415 1.383 . S
C412 C410 1.383 . S
C412 C413 1.402 . S
C412 H427 0.951 . S
C413 C412 1.402 . S
C413 C414 1.375 . S
C413 C416 1.481 . S
C414 C413 1.375 . S
C414 C415 1.367 . S
C414 H428 0.951 . S
C415 C411 1.383 . S
C415 C414 1.367 . S
C415 H429 0.950 . S
C416 C413 1.481 . S
C416 C417 1.297 . S
C416 H430 0.950 . S
C417 C416 1.297 . S
C417 C418 1.479 . S
C417 H431 0.950 . S
C418 C417 1.479 . S
C418 C419 1.375 . S
C418 C424 1.404 . S
C419 C418 1.375 . S
C419 C420 1.369 . S
C419 H432 0.950 . S
C420 C419 1.369 . S
C420 C421 1.392 . S
C420 H433 0.951 . S
C421 C420 1.392 . S
C421 C423 1.384 . S
H422 C424 0.949 . S
C423 C421 1.384 . S
C423 C424 1.385 . S
C423 H425 0.950 . S
C424 C418 1.404 . S
C424 H422 0.949 . S
C424 C423 1.385 . S
H425 C423 0.950 . S
H426 C410 0.951 . S
H427 C412 0.951 . S
H428 C414 0.951 . S
H429 C415 0.950 . S
H430 C416 0.950 . S
H431 C417 0.950 . S
H432 C419 0.950 . S
H433 C420 0.951 . S
C434 C435 1.386 . S
C434 C436 1.383 . S
C434 H450 0.951 . S
C435 C434 1.386 . S
C435 C439 1.383 . S
C436 C434 1.383 . S
C436 C437 1.402 . S
C436 H451 0.951 . S
C437 C436 1.402 . S
C437 C438 1.375 . S
C437 C440 1.481 . S
C438 C437 1.375 . S
C438 C439 1.367 . S
C438 H452 0.951 . S
C439 C435 1.383 . S
C439 C438 1.367 . S
C439 H453 0.950 . S
C440 C437 1.481 . S
C440 C441 1.297 . S
C440 H454 0.950 . S
C441 C440 1.297 . S
C441 C442 1.479 . S
C441 H455 0.950 . S
C442 C441 1.479 . S
C442 C443 1.375 . S
C442 C448 1.404 . S
C443 C442 1.375 . S
C443 C444 1.369 . S
C443 H456 0.950 . S
C444 C443 1.369 . S
C444 C445 1.392 . S
C444 H457 0.951 . S
C445 C444 1.392 . S
C445 C447 1.384 . S
H446 C448 0.949 . S
C447 C445 1.384 . S
C447 C448 1.385 . S
C447 H449 0.950 . S
C448 C442 1.404 . S
C448 H446 0.949 . S
C448 C447 1.385 . S
H449 C447 0.950 . S
H450 C434 0.951 . S
H451 C436 0.951 . S
H452 C438 0.951 . S
H453 C439 0.950 . S
H454 C440 0.950 . S
H455 C441 0.950 . S
H456 C443 0.950 . S
H457 C444 0.951 . S
C181 C155 1.407 . S
C171 C16 1.226 . S
C195 C15 1.476 . S
C205 C123 1.471 . S
C219 C13 1.235 . S
C229 C161 1.440 . S
C243 C14 1.307 . S
C253 C129 1.354 . S
C267 C37 1.182 . S
C277 C91 1.315 . S
C291 C36 1.455 . S
C301 C59 1.420 . S
C325 C97 1.373 . S
C315 C34 1.313 . S
C349 C65 1.254 . S
C339 C35 1.284 . S
C363 C17 1.500 . S
C373 C71 1.469 . S
C387 C18 1.362 . S
C397 C103 1.308 . S
C421 C135 1.549 . S
C411 C38 1.518 . S
C435 C39 1.348 . S
C445 C167 1.397 . S
