# Generated by pormake.
# Topology rtl, (3,6)-cn, num edge types: 1
# Building blocks:
#     Node 0, Type 0, BuildingBlock: PAMTOO_clean_linker_0, # of connection points: 3
#     Node 1, Type 0, BuildingBlock: PAMTOO_clean_linker_0, # of connection points: 3
#     Node 2, Type 0, BuildingBlock: PAMTOO_clean_linker_0, # of connection points: 3
#     Node 3, Type 0, BuildingBlock: PAMTOO_clean_linker_0, # of connection points: 3
#     Node 4, Type 1, BuildingBlock: FUNLAD_clean_sbu_0, # of connection points: 6
#     Node 5, Type 1, BuildingBlock: FUNLAD_clean_sbu_0, # of connection points: 6
#     Edge 6, Type (0, 1), BuildingBlock: ZUJKAS_clean_linker_0, # of connection points: 2
#     Edge 7, Type (0, 1), BuildingBlock: ZUJKAS_clean_linker_0, # of connection points: 2
#     Edge 8, Type (0, 1), BuildingBlock: ZUJKAS_clean_linker_0, # of connection points: 2
#     Edge 9, Type (0, 1), BuildingBlock: ZUJKAS_clean_linker_0, # of connection points: 2
#     Edge 10, Type (0, 1), BuildingBlock: ZUJKAS_clean_linker_0, # of connection points: 2
#     Edge 11, Type (0, 1), BuildingBlock: ZUJKAS_clean_linker_0, # of connection points: 2
#     Edge 12, Type (0, 1), BuildingBlock: ZUJKAS_clean_linker_0, # of connection points: 2
#     Edge 13, Type (0, 1), BuildingBlock: ZUJKAS_clean_linker_0, # of connection points: 2
#     Edge 14, Type (0, 1), BuildingBlock: ZUJKAS_clean_linker_0, # of connection points: 2
#     Edge 15, Type (0, 1), BuildingBlock: ZUJKAS_clean_linker_0, # of connection points: 2
#     Edge 16, Type (0, 1), BuildingBlock: ZUJKAS_clean_linker_0, # of connection points: 2
#     Edge 17, Type (0, 1), BuildingBlock: ZUJKAS_clean_linker_0, # of connection points: 2
# Relax obj value: 0.003
# Max RMSD: 0.051
# Mean RMSD: 0.038
data_MOF--net-rtl--node1-FUNLAD_clean_sbu_0--node2-PAMTOO_clean_linker_0--edge1-ZUJKAS_clean_linker_0
_symmetry_space_group_name_H-M    P1
_symmetry_Int_Tables_number       1
_symmetry_cell_setting            triclinic
loop_
_symmetry_equiv_pos_as_xyz
'x, y, z'
_cell_length_a     50.935221
_cell_length_b     50.938495
_cell_length_c     27.458858
_cell_angle_alpha  92.173396
_cell_angle_beta   91.022083
_cell_angle_gamma 90.008566
loop_
_atom_site_label
_atom_site_type_symbol
_atom_site_fract_x
_atom_site_fract_y
_atom_site_fract_z
_atom_type_partial_charge
H0 H 0.14924 0.87582 0.00347 0.0
H1 H 0.19537 0.82001 0.08211 0.0
H2 H 0.1984 0.82038 0.92601 0.0
H3 H 0.19744 0.76822 0.96391 0.0
C4 C 0.20748 0.77185 -0.00016 0.0
O5 O 0.21575 0.79764 0.00425 0.0
H6 H 0.19323 0.76795 0.02901 0.0
C7 C 0.16358 0.86009 0.00383 0.0
C8 C 0.17316 0.8498 0.95946 0.0
C9 C 0.17136 0.84961 0.04842 0.0
C10 C 0.18897 0.82837 0.0482 0.0
C11 C 0.19863 0.8179 0.00409 0.0
C12 C 0.19075 0.82859 0.95985 0.0
H13 H 0.6461 0.6342 0.5247 0.0
H14 H 0.695 0.68822 0.45064 0.0
H15 H 0.69448 0.6898 0.60708 0.0
H16 H 0.69421 0.74216 0.56177 0.0
C17 C 0.70633 0.73722 0.52934 0.0
O18 O 0.714 0.71127 0.53047 0.0
H19 H 0.6942 0.74039 0.49598 0.0
C20 C 0.66068 0.64973 0.52592 0.0
C21 C 0.66949 0.66031 0.57126 0.0
C22 C 0.66969 0.6595 0.48212 0.0
C23 C 0.68766 0.68045 0.48397 0.0
C24 C 0.69642 0.69138 0.52902 0.0
C25 C 0.68735 0.68136 0.57253 0.0
H26 H 0.85908 0.13085 0.01207 0.0
H27 H 0.81174 0.18774 0.9392 0.0
H28 H 0.80932 0.18358 0.09499 0.0
H29 H 0.75808 0.1887 0.04418 0.0
C30 C 0.76389 0.20165 0.01443 0.0
O31 O 0.79038 0.20714 0.01888 0.0
H32 H 0.75968 0.19112 0.97891 0.0
C33 C 0.84462 0.14647 0.01365 0.0
C34 C 0.83524 0.15562 0.05899 0.0
C35 C 0.83635 0.15788 0.9703 0.0
C36 C 0.81846 0.17882 0.97238 0.0
C37 C 0.80853 0.18779 0.0173 0.0
C38 C 0.81712 0.17643 0.06051 0.0
H39 H 0.36979 0.36411 0.49497 0.0
H40 H 0.31927 0.31099 0.56771 0.0
H41 H 0.31346 0.3169 0.41226 0.0
H42 H 0.26296 0.31422 0.46303 0.0
C43 C 0.26874 0.3012 0.49306 0.0
O44 O 0.2947 0.294 0.48809 0.0
H45 H 0.26611 0.31229 0.52833 0.0
C46 C 0.35433 0.34945 0.49351 0.0
C47 C 0.3427 0.34199 0.44836 0.0
C48 C 0.34619 0.33843 0.53682 0.0
C49 C 0.32594 0.31969 0.5347 0.0
C50 C 0.31424 0.31196 0.48979 0.0
C51 C 0.32276 0.32291 0.44669 0.0
C52 C 0.0303 0.97525 0.43875 0.0
N53 N 0.04708 0.0476 0.51111 0.0
C54 C 0.07295 0.04091 0.51165 0.0
C55 C 0.09232 0.06031 0.51073 0.0
C56 C 0.08501 0.08686 0.50898 0.0
C57 C 0.05817 0.09318 0.50864 0.0
C58 C 0.03946 0.07317 0.50983 0.0
Zn59 Zn 0.01899 0.0188 0.51135 0.0
C60 C 0.97504 0.02905 0.44158 0.0
N61 N 0.96035 0.95861 0.51086 0.0
C62 C 0.96721 0.93277 0.50853 0.0
C63 C 0.93476 0.96603 0.51412 0.0
C64 C 0.91493 0.94718 0.51566 0.0
C65 C 0.92141 0.92037 0.51361 0.0
C66 C 0.94796 0.91324 0.50969 0.0
Zn67 Zn 0.98868 0.98719 0.51056 0.0
O68 O 0.03919 0.99693 0.45661 0.0
C69 C 0.03264 0.97685 0.58016 0.0
O70 O 0.00872 0.96641 0.45402 0.0
H71 H 0.92968 0.98665 0.51568 0.0
H72 H 0.0786 0.02046 0.51247 0.0
H73 H 0.98767 0.92729 0.50612 0.0
O74 O 0.04046 0.9989 0.56569 0.0
O75 O 0.01126 0.96715 0.56295 0.0
H76 H 0.01881 0.0781 0.50962 0.0
O77 O 0.96925 0.0085 0.56727 0.0
O78 O 0.99833 0.04023 0.56603 0.0
O79 O 0.96657 0.00769 0.45797 0.0
O80 O 0.99702 0.03811 0.45706 0.0
C81 C 0.97749 0.03082 0.58324 0.0
H82 H 0.11278 0.05455 0.51053 0.0
H83 H 0.05166 0.1134 0.50794 0.0
H84 H 0.89469 0.95355 0.518 0.0
H85 H 0.95384 0.8928 0.50845 0.0
C86 C 0.47685 0.47587 0.93543 0.0
N87 N 0.54781 0.4599 0.00836 0.0
C88 C 0.54051 0.43419 0.00772 0.0
C89 C 0.55944 0.4144 0.00868 0.0
C90 C 0.58621 0.42107 0.01015 0.0
C91 C 0.59321 0.44775 0.01024 0.0
C92 C 0.5736 0.46694 0.00947 0.0
Zn93 Zn 0.51921 0.48818 0.00875 0.0
C94 C 0.53089 0.53116 0.94193 0.0
N95 N 0.45905 0.54684 0.01038 0.0
C96 C 0.43348 0.53908 0.00959 0.0
C97 C 0.46562 0.57276 0.01134 0.0
C98 C 0.44608 0.59202 0.01136 0.0
C99 C 0.41951 0.58456 0.01067 0.0
C100 C 0.41334 0.55767 0.00983 0.0
Zn101 Zn 0.48791 0.5188 0.00985 0.0
O102 O 0.49851 0.46728 0.95207 0.0
C103 C 0.47628 0.47582 0.07673 0.0
O104 O 0.4678 0.49748 0.95267 0.0
H105 H 0.48607 0.57852 0.01211 0.0
H106 H 0.51991 0.42899 0.00662 0.0
H107 H 0.42866 0.51838 0.00858 0.0
O108 O 0.49814 0.46741 0.06092 0.0
O109 O 0.46722 0.49736 0.06172 0.0
H110 H 0.579 0.48749 0.01013 0.0
O111 O 0.50855 0.53961 0.06707 0.0
O112 O 0.53941 0.50953 0.06538 0.0
O113 O 0.50911 0.53972 0.95796 0.0
O114 O 0.53982 0.50948 0.95668 0.0
C115 C 0.53034 0.531 0.0832 0.0
H116 H 0.55316 0.39407 0.00787 0.0
H117 H 0.61361 0.45376 0.0118 0.0
H118 H 0.45171 0.61254 0.01252 0.0
H119 H 0.39313 0.55103 0.00864 0.0
H120 H 0.27154 0.26001 0.55389 0.0
H121 H 0.24257 0.2215 0.55537 0.0
H122 H 0.19764 0.2507 0.43426 0.0
H123 H 0.22687 0.28878 0.43205 0.0
H124 H 0.18989 0.22047 0.57092 0.0
H125 H 0.21055 0.17534 0.38885 0.0
H126 H 0.23101 0.20074 0.41712 0.0
H127 H 0.2008 0.20912 0.38648 0.0
C128 C 0.25567 0.25791 0.52723 0.0
C129 C 0.2516 0.2771 0.49248 0.0
C130 C 0.23912 0.23602 0.52815 0.0
C131 C 0.21822 0.23297 0.49435 0.0
C132 C 0.21404 0.25226 0.45984 0.0
H133 H 0.08464 0.12987 0.45227 0.0
H134 H 0.1176 0.16477 0.45023 0.0
C135 C 0.23064 0.27408 0.45878 0.0
C136 C 0.19997 0.21034 0.49672 0.0
H137 H 0.17297 0.15918 0.42909 0.0
C138 C 0.18639 0.2069 0.54008 0.0
C139 C 0.19542 0.19266 0.45643 0.0
C140 C 0.2104 0.19445 0.40976 0.0
C141 C 0.16782 0.18672 0.54379 0.0
C142 C 0.16294 0.16939 0.50321 0.0
C143 C 0.17672 0.1726 0.46005 0.0
C144 C 0.14321 0.14808 0.50457 0.0
C145 C 0.15303 0.18453 0.59059 0.0
C146 C 0.14686 0.12701 0.53546 0.0
C147 C 0.12804 0.10707 0.53679 0.0
C148 C 0.10522 0.10785 0.50724 0.0
C149 C 0.1018 0.12889 0.476 0.0
C150 C 0.12068 0.14874 0.47454 0.0
H151 H 0.15517 0.20248 0.61461 0.0
H152 H 0.13182 0.18099 0.58288 0.0
H153 H 0.16078 0.16762 0.6107 0.0
H154 H 0.16429 0.12599 0.55848 0.0
H155 H 0.13118 0.09122 0.56145 0.0
H156 H 0.21498 0.73092 0.06089 0.0
H157 H 0.25207 0.70026 0.06344 0.0
H158 H 0.28884 0.74066 0.94744 0.0
H159 H 0.25171 0.77138 0.94476 0.0
H160 H 0.26987 0.66731 0.98296 0.0
H161 H 0.34725 0.73614 0.0549 0.0
H162 H 0.31263 0.7431 0.06037 0.0
H163 H 0.32852 0.74688 0.00322 0.0
C164 C 0.23111 0.73338 0.0363 0.0
C165 C 0.23073 0.75369 0.00305 0.0
C166 C 0.25222 0.71587 0.03772 0.0
C167 C 0.27334 0.71844 0.00611 0.0
C168 C 0.27297 0.73866 0.97276 0.0
H169 H 0.41683 0.62924 0.95833 0.0
H170 H 0.38131 0.66162 0.9569 0.0
C171 C 0.25179 0.75611 0.97116 0.0
C172 C 0.2952 0.69927 0.00671 0.0
H173 H 0.36092 0.69332 0.03046 0.0
C174 C 0.28977 0.67294 0.99349 0.0
C175 C 0.32113 0.70677 0.02014 0.0
C176 C 0.32784 0.73471 0.03585 0.0
C177 C 0.30968 0.65388 0.99277 0.0
C178 C 0.3356 0.66128 0.00682 0.0
C179 C 0.34104 0.68768 0.01979 0.0
C180 C 0.3573 0.64188 0.00849 0.0
C181 C 0.30286 0.62613 0.9759 0.0
C182 C 0.35582 0.62031 0.03865 0.0
C183 C 0.37604 0.60178 0.03949 0.0
C184 C 0.39831 0.60462 0.01059 0.0
C185 C 0.40002 0.62659 0.98127 0.0
C186 C 0.37971 0.64505 0.98027 0.0
H187 H 0.28443 0.62537 0.9536 0.0
H188 H 0.31889 0.61713 0.95406 0.0
H189 H 0.2999 0.61408 0.00817 0.0
H190 H 0.33904 0.61784 0.06172 0.0
H191 H 0.37436 0.58536 0.06317 0.0
H192 H 0.71875 0.77959 0.59026 0.0
H193 H 0.75655 0.80916 0.58629 0.0
H194 H 0.78525 0.76376 0.46253 0.0
H195 H 0.74704 0.73453 0.4657 0.0
H196 H 0.80934 0.79905 0.59411 0.0
H197 H 0.78507 0.83757 0.4123 0.0
H198 H 0.76201 0.81879 0.44597 0.0
H199 H 0.78774 0.80244 0.41262 0.0
C200 C 0.73316 0.77594 0.56228 0.0
C201 C 0.73013 0.75474 0.52842 0.0
C202 C 0.75473 0.79281 0.56004 0.0
C203 C 0.77354 0.78889 0.52371 0.0
C204 C 0.77071 0.76748 0.49025 0.0
H205 H 0.91647 0.87451 0.45872 0.0
H206 H 0.88162 0.84145 0.46205 0.0
C207 C 0.74906 0.75069 0.49232 0.0
C208 C 0.79616 0.80715 0.52124 0.0
H209 H 0.82607 0.85037 0.44781 0.0
C210 C 0.81297 0.81029 0.56215 0.0
C211 C 0.80089 0.8218 0.47948 0.0
C212 C 0.78286 0.82023 0.43524 0.0
C213 C 0.83445 0.82759 0.56234 0.0
C214 C 0.83907 0.8423 0.52071 0.0
C215 C 0.82249 0.83896 0.4796 0.0
C216 C 0.86052 0.86191 0.51965 0.0
C217 C 0.85219 0.82982 0.60689 0.0
C218 C 0.86005 0.88442 0.55068 0.0
C219 C 0.87988 0.9033 0.54886 0.0
C220 C 0.90056 0.90005 0.5159 0.0
C221 C 0.90098 0.87743 0.48489 0.0
C222 C 0.88104 0.85861 0.48656 0.0
H223 H 0.84988 0.81282 0.63065 0.0
H224 H 0.87309 0.83119 0.59641 0.0
H225 H 0.84719 0.84794 0.62847 0.0
H226 H 0.84418 0.88751 0.576 0.0
H227 H 0.8791 0.92038 0.57351 0.0
H228 H 0.72189 0.21412 0.07199 0.0
H229 H 0.69441 0.25355 0.07078 0.0
H230 H 0.74287 0.28487 0.95949 0.0
H231 H 0.77006 0.24506 0.95983 0.0
H232 H 0.70661 0.30584 0.08868 0.0
H233 H 0.66979 0.28887 0.8984 0.0
H234 H 0.68712 0.264 0.93121 0.0
H235 H 0.70491 0.29023 0.90473 0.0
C236 C 0.72674 0.2295 0.04749 0.0
C237 C 0.74818 0.22671 0.01625 0.0
C238 C 0.71105 0.25199 0.04681 0.0
C239 C 0.71638 0.27199 0.0146 0.0
C240 C 0.7381 0.26946 0.98399 0.0
H241 H 0.63214 0.41784 0.95976 0.0
H242 H 0.66533 0.38303 0.96207 0.0
C243 C 0.75374 0.24689 0.9845 0.0
C244 C 0.69898 0.29532 0.01304 0.0
H245 H 0.65693 0.32843 0.93896 0.0
C246 C 0.69578 0.3108 0.05593 0.0
C247 C 0.68486 0.30177 0.97025 0.0
C248 C 0.6866 0.28525 0.92362 0.0
C249 C 0.67883 0.33254 0.05721 0.0
C250 C 0.66449 0.33876 0.01462 0.0
C251 C 0.66802 0.32361 0.97151 0.0
C252 C 0.64492 0.36027 0.01452 0.0
C253 C 0.67649 0.34878 0.10404 0.0
C254 C 0.62239 0.35886 0.04295 0.0
C255 C 0.60344 0.37867 0.04173 0.0
C256 C 0.60662 0.40026 0.01192 0.0
C257 C 0.62927 0.40163 0.98351 0.0
C258 C 0.64817 0.38172 0.9846 0.0
H259 H 0.6935 0.34574 0.12908 0.0
H260 H 0.67499 0.37002 0.09669 0.0
H261 H 0.65843 0.34293 0.12289 0.0
H262 H 0.61931 0.34226 0.0657 0.0
H263 H 0.58635 0.37713 0.06435 0.0
H264 H 0.15319 0.82291 0.12603 0.0
H265 H 0.13025 0.84135 0.19738 0.0
H266 H 0.14087 0.91938 0.14547 0.0
H267 H 0.16421 0.90129 0.07483 0.0
H268 H 0.14703 0.88501 0.27077 0.0
H269 H 0.05861 0.90618 0.15717 0.0
H270 H 0.08322 0.88255 0.13828 0.0
H271 H 0.08944 0.91707 0.13408 0.0
C272 C 0.15111 0.84402 0.13035 0.0
C273 C 0.16023 0.86063 0.09449 0.0
C274 C 0.1379 0.85449 0.17094 0.0
C275 C 0.13358 0.88164 0.1761 0.0
C276 C 0.14371 0.89832 0.14164 0.0
H277 H 0.07878 0.98666 0.4041 0.0
H278 H 0.10367 0.96178 0.34268 0.0
C279 C 0.15696 0.88794 0.10128 0.0
C280 C 0.11748 0.89267 0.21616 0.0
H281 H 0.05944 0.92402 0.2382 0.0
C282 C 0.1278 0.89338 0.26387 0.0
C283 C 0.09231 0.90325 0.2069 0.0
C284 C 0.08004 0.90212 0.15643 0.0
C285 C 0.11386 0.90527 0.30249 0.0
C286 C 0.08914 0.91684 0.29284 0.0
C287 C 0.07847 0.91529 0.24538 0.0
C288 C 0.07433 0.93136 0.33113 0.0
C289 C 0.12566 0.90542 0.35327 0.0
C290 C 0.04934 0.92277 0.34421 0.0
C291 C 0.03499 0.93699 0.37923 0.0
C292 C 0.04529 0.96022 0.40136 0.0
C293 C 0.07027 0.96885 0.38782 0.0
C294 C 0.08463 0.95455 0.353 0.0
H295 H 0.14115 0.89021 0.35669 0.0
H296 H 0.13475 0.92489 0.36189 0.0
H297 H 0.11035 0.90207 0.38065 0.0
H298 H 0.04098 0.90501 0.32739 0.0
H299 H 0.01581 0.92982 0.3888 0.0
H300 H 0.66364 0.60868 0.59136 0.0
H301 H 0.6413 0.59039 0.66044 0.0
H302 H 0.63023 0.66837 0.72316 0.0
H303 H 0.65224 0.68701 0.65338 0.0
H304 H 0.64849 0.62235 0.78958 0.0
H305 H 0.55819 0.60572 0.67552 0.0
H306 H 0.58873 0.59555 0.64874 0.0
H307 H 0.58272 0.6298 0.66157 0.0
C308 C 0.65658 0.62197 0.61995 0.0
C309 C 0.65935 0.64932 0.61661 0.0
C310 C 0.64393 0.61148 0.65942 0.0
C311 C 0.63392 0.62808 0.69641 0.0
C312 C 0.63784 0.6553 0.69475 0.0
H313 H 0.51688 0.57747 0.90133 0.0
H314 H 0.54219 0.60312 0.84497 0.0
C315 C 0.65048 0.66588 0.65505 0.0
C316 C 0.61799 0.61686 0.73494 0.0
H317 H 0.55942 0.58647 0.75265 0.0
C318 C 0.62893 0.6147 0.78181 0.0
C319 C 0.59242 0.60717 0.72456 0.0
C320 C 0.57962 0.60976 0.675 0.0
C321 C 0.61516 0.60223 0.81836 0.0
C322 C 0.59001 0.59151 0.80734 0.0
C323 C 0.57877 0.59454 0.76089 0.0
C324 C 0.57523 0.57646 0.84295 0.0
C325 C 0.62762 0.60059 0.8684 0.0
C326 C 0.5853 0.55279 0.85993 0.0
C327 C 0.57086 0.53801 0.89194 0.0
C328 C 0.54601 0.54659 0.90741 0.0
C329 C 0.53594 0.57029 0.89014 0.0
C330 C 0.55038 0.58501 0.85802 0.0
H331 H 0.64333 0.61555 0.87462 0.0
H332 H 0.61274 0.60332 0.89723 0.0
H333 H 0.63659 0.5809 0.87199 0.0
H334 H 0.60419 0.54555 0.84789 0.0
H335 H 0.57918 0.51984 0.90448 0.0
H336 H 0.8508 0.18052 0.14503 0.0
H337 H 0.87235 0.16067 0.21534 0.0
H338 H 0.86404 0.08398 0.14489 0.0
H339 H 0.84218 0.10349 0.07503 0.0
H340 H 0.85582 0.11614 0.27738 0.0
H341 H 0.94536 0.09715 0.16864 0.0
H342 H 0.92053 0.1205 0.15134 0.0
H343 H 0.91499 0.08594 0.14066 0.0
C344 C 0.85307 0.15938 0.145 0.0
C345 C 0.84512 0.1436 0.10423 0.0
C346 C 0.86546 0.14811 0.18505 0.0
C347 C 0.87011 0.12096 0.18477 0.0
C348 C 0.86096 0.10503 0.14534 0.0
H349 H 0.92639 0.01629 0.40386 0.0
H350 H 0.90057 0.04011 0.34393 0.0
C351 C 0.84857 0.11622 0.10545 0.0
C352 C 0.88583 0.10928 0.22421 0.0
H353 H 0.94413 0.07857 0.2463 0.0
C354 C 0.87518 0.10802 0.2708 0.0
C355 C 0.91118 0.09904 0.21547 0.0
C356 C 0.92388 0.10085 0.16647 0.0
C357 C 0.88903 0.09607 0.30873 0.0
C358 C 0.91401 0.08498 0.29946 0.0
C359 C 0.9249 0.08691 0.25317 0.0
C360 C 0.9292 0.07108 0.33706 0.0
C361 C 0.87695 0.09554 0.35844 0.0
C362 C 0.95407 0.08033 0.35229 0.0
C363 C 0.96895 0.06671 0.38632 0.0
C364 C 0.9593 0.04343 0.40543 0.0
C365 C 0.93439 0.03417 0.38992 0.0
C366 C 0.9195 0.04786 0.35597 0.0
H367 H 0.86112 0.1104 0.36278 0.0
H368 H 0.86825 0.07587 0.36339 0.0
H369 H 0.89203 0.09915 0.38763 0.0
H370 H 0.96197 0.09812 0.33782 0.0
H371 H 0.98805 0.07438 0.39747 0.0
H372 H 0.32197 0.35254 0.62222 0.0
H373 H 0.34235 0.37372 0.69536 0.0
H374 H 0.41845 0.36637 0.63001 0.0
H375 H 0.39838 0.34503 0.55728 0.0
H376 H 0.38716 0.35774 0.76007 0.0
H377 H 0.40532 0.44735 0.65624 0.0
H378 H 0.38213 0.42228 0.63581 0.0
H379 H 0.4167 0.41713 0.62801 0.0
C380 C 0.3431 0.35493 0.62396 0.0
C381 C 0.35856 0.34748 0.58382 0.0
C382 C 0.35467 0.3671 0.6656 0.0
C383 C 0.3818 0.37197 0.66754 0.0
C384 C 0.39742 0.36314 0.62877 0.0
H385 H 0.48893 0.42747 0.89545 0.0
H386 H 0.46418 0.40205 0.83278 0.0
C387 C 0.38593 0.35101 0.58729 0.0
C388 C 0.39372 0.38772 0.70851 0.0
H389 H 0.42489 0.44597 0.73505 0.0
C390 C 0.3953 0.37708 0.75482 0.0
C391 C 0.40397 0.41308 0.70148 0.0
C392 C 0.40181 0.42582 0.65284 0.0
C393 C 0.40764 0.39091 0.79414 0.0
C394 C 0.41879 0.41585 0.78659 0.0
C395 C 0.41649 0.42676 0.7406 0.0
C396 C 0.43329 0.43087 0.82567 0.0
C397 C 0.40856 0.37883 0.84344 0.0
C398 C 0.4244 0.45575 0.84164 0.0
C399 C 0.43854 0.4704 0.87728 0.0
C400 C 0.462 0.46052 0.89725 0.0
C401 C 0.47093 0.43565 0.88087 0.0
C402 C 0.45671 0.42098 0.84535 0.0
H403 H 0.39364 0.36306 0.84614 0.0
H404 H 0.42823 0.37003 0.84948 0.0
H405 H 0.4053 0.39394 0.87294 0.0
H406 H 0.40646 0.46379 0.82656 0.0
H407 H 0.43112 0.48949 0.88907 0.0
H408 H 0.66356 0.60757 0.4569 0.0
H409 H 0.64153 0.58839 0.38424 0.0
H410 H 0.63077 0.66566 0.32818 0.0
H411 H 0.65261 0.68514 0.40136 0.0
H412 H 0.58831 0.60212 0.35759 0.0
H413 H 0.65979 0.61956 0.21118 0.0
H414 H 0.66934 0.61966 0.27488 0.0
H415 H 0.65193 0.64714 0.2512 0.0
C416 C 0.65669 0.6205 0.42895 0.0
C417 C 0.6596 0.64789 0.43502 0.0
C418 C 0.64419 0.6095 0.38743 0.0
C419 C 0.63457 0.62561 0.35093 0.0
C420 C 0.63835 0.65289 0.35577 0.0
H421 H 0.51566 0.57614 0.13284 0.0
H422 H 0.54061 0.60068 0.19662 0.0
C423 C 0.65086 0.66397 0.39749 0.0
C424 C 0.61891 0.61379 0.30983 0.0
H425 H 0.61928 0.59997 0.18721 0.0
C426 C 0.59499 0.60175 0.32027 0.0
C427 C 0.62782 0.61327 0.26138 0.0
C428 C 0.6537 0.62542 0.24869 0.0
C429 C 0.57976 0.58897 0.28351 0.0
C430 C 0.58864 0.58844 0.23501 0.0
C431 C 0.61251 0.6006 0.22446 0.0
C432 C 0.57389 0.57429 0.19522 0.0
C433 C 0.55466 0.5755 0.29698 0.0
C434 C 0.58455 0.55159 0.17295 0.0
C435 C 0.57035 0.53749 0.13667 0.0
C436 C 0.54528 0.54597 0.12176 0.0
C437 C 0.53484 0.569 0.14367 0.0
C438 C 0.54903 0.58303 0.18012 0.0
H439 H 0.55314 0.57354 0.33699 0.0
H440 H 0.53764 0.58716 0.28427 0.0
H441 H 0.5533 0.55564 0.27896 0.0
H442 H 0.60372 0.54457 0.18416 0.0
H443 H 0.57904 0.51993 0.12036 0.0
H444 H 0.85958 0.1856 0.89939 0.0
H445 H 0.8817 0.16757 0.82653 0.0
H446 H 0.8591 0.08932 0.86351 0.0
H447 H 0.83725 0.10713 0.9363 0.0
H448 H 0.92388 0.12461 0.83672 0.0
H449 H 0.83987 0.09818 0.71224 0.0
H450 H 0.8379 0.12394 0.7592 0.0
H451 H 0.8368 0.09014 0.77519 0.0
C452 C 0.85894 0.16462 0.89132 0.0
C453 C 0.84681 0.1477 0.92334 0.0
C454 C 0.87162 0.15437 0.84996 0.0
C455 C 0.87185 0.12718 0.83972 0.0
C456 C 0.8589 0.11038 0.87067 0.0
H457 H 0.93713 0.01353 0.63788 0.0
H458 H 0.91227 0.03862 0.69907 0.0
C459 C 0.84656 0.12055 0.91222 0.0
C460 C 0.88735 0.11587 0.7991 0.0
H461 H 0.88162 0.08137 0.69056 0.0
C462 C 0.91477 0.11543 0.80437 0.0
C463 C 0.87524 0.10372 0.75749 0.0
C464 C 0.84582 0.10406 0.75022 0.0
C465 C 0.93046 0.10225 0.76977 0.0
C466 C 0.91835 0.08985 0.72813 0.0
C467 C 0.89089 0.09087 0.72245 0.0
C468 C 0.93366 0.07487 0.69096 0.0
C469 C 0.95968 0.10075 0.77935 0.0
C470 C 0.95385 0.08695 0.66578 0.0
C471 C 0.96836 0.07255 0.63126 0.0
C472 C 0.96261 0.04591 0.62064 0.0
C473 C 0.9421 0.03399 0.64532 0.0
C474 C 0.92781 0.04832 0.6802 0.0
H475 H 0.96475 0.10484 0.81843 0.0
H476 H 0.96748 0.08108 0.7684 0.0
H477 H 0.96972 0.11566 0.75787 0.0
H478 H 0.95828 0.10757 0.67254 0.0
H479 H 0.98382 0.08239 0.61242 0.0
H480 H 0.35475 0.31802 0.36041 0.0
H481 H 0.37545 0.33836 0.29092 0.0
H482 H 0.37214 0.414 0.36648 0.0
H483 H 0.3513 0.394 0.43547 0.0
H484 H 0.35958 0.38478 0.2322 0.0
H485 H 0.45215 0.3981 0.3405 0.0
H486 H 0.42674 0.37544 0.35664 0.0
H487 H 0.42303 0.41001 0.37006 0.0
C488 C 0.35798 0.33905 0.3617 0.0
C489 C 0.35179 0.35438 0.40361 0.0
C490 C 0.36986 0.3506 0.32215 0.0
C491 C 0.37568 0.37755 0.32412 0.0
C492 C 0.36816 0.39308 0.36471 0.0
H493 H 0.42834 0.48735 0.11561 0.0
H494 H 0.40365 0.46162 0.17269 0.0
C495 C 0.35633 0.38162 0.40407 0.0
C496 C 0.39096 0.38944 0.28533 0.0
H497 H 0.44943 0.41956 0.26542 0.0
C498 C 0.37929 0.39223 0.23918 0.0
C499 C 0.41678 0.39879 0.29456 0.0
C500 C 0.43059 0.39529 0.34297 0.0
C501 C 0.39255 0.405 0.20235 0.0
C502 C 0.41794 0.41539 0.21233 0.0
C503 C 0.42988 0.41178 0.258 0.0
C504 C 0.43241 0.43046 0.17631 0.0
C505 C 0.37933 0.40718 0.15307 0.0
C506 C 0.45704 0.42176 0.16031 0.0
C507 C 0.4713 0.4365 0.12799 0.0
C508 C 0.46127 0.46035 0.11135 0.0
C509 C 0.43662 0.46906 0.12764 0.0
C510 C 0.42236 0.45427 0.15993 0.0
H511 H 0.36344 0.39239 0.14723 0.0
H512 H 0.37044 0.42698 0.1506 0.0
H513 H 0.39373 0.40462 0.12336 0.0
H514 H 0.46522 0.40353 0.17285 0.0
H515 H 0.49021 0.42921 0.11615 0.0
H516 H 0.16948 0.90147 0.93799 0.0
H517 H 0.14816 0.9201 0.86652 0.0
H518 H 0.13383 0.84216 0.80529 0.0
H519 H 0.15507 0.82325 0.877 0.0
H520 H 0.15754 0.89939 0.74686 0.0
H521 H 0.06071 0.89258 0.83737 0.0
H522 H 0.0903 0.89876 0.87317 0.0
H523 H 0.08514 0.86719 0.84363 0.0
C524 C 0.16207 0.8883 0.90902 0.0
C525 C 0.16374 0.86091 0.91316 0.0
C526 C 0.15003 0.89897 0.86824 0.0
C527 C 0.13944 0.88245 0.83099 0.0
C528 C 0.14204 0.85514 0.83379 0.0
H529 H 0.0247 0.92695 0.61021 0.0
H530 H 0.05156 0.90261 0.66772 0.0
C531 C 0.15423 0.84441 0.87458 0.0
C532 C 0.1238 0.8939 0.79134 0.0
H533 H 0.06165 0.91373 0.76289 0.0
C534 C 0.13655 0.90239 0.74998 0.0
C535 C 0.09647 0.89758 0.79576 0.0
C536 C 0.08213 0.8886 0.83976 0.0
C537 C 0.12256 0.91487 0.71283 0.0
C538 C 0.09529 0.91943 0.71801 0.0
C539 C 0.08254 0.91033 0.75904 0.0
C540 C 0.07961 0.93401 0.68189 0.0
C541 C 0.13707 0.9228 0.66828 0.0
C542 C 0.08625 0.95989 0.67122 0.0
C543 C 0.07101 0.97384 0.63819 0.0
C544 C 0.0486 0.96227 0.6157 0.0
C545 C 0.04181 0.93646 0.62694 0.0
C546 C 0.05716 0.92248 0.65973 0.0
H547 H 0.15525 0.91104 0.66307 0.0
H548 H 0.12454 0.92043 0.6349 0.0
H549 H 0.14288 0.94376 0.67283 0.0
H550 H 0.10306 0.96945 0.6889 0.0
H551 H 0.07669 0.99374 0.63056 0.0
loop_
_geom_bond_atom_site_label_1
_geom_bond_atom_site_label_2
_geom_bond_distance
_geom_bond_site_symmetry_2
_ccdc_geom_bond_type
H0 C7 0.929 . S
H1 C10 0.930 . S
H2 C12 0.929 . S
H3 C4 0.969 . S
C4 H3 0.969 . S
C4 O5 1.550 1_554 S
C4 H6 0.973 . S
O5 C4 1.550 1_556 S
O5 C11 1.411 1_556 S
H6 C4 0.973 . S
C7 H0 0.929 . S
C7 C8 1.400 1_554 S
C7 C9 1.364 . S
C8 C7 1.400 1_556 S
C8 C12 1.377 . S
C9 C7 1.364 . S
C9 C10 1.374 . S
C10 H1 0.930 . S
C10 C9 1.374 . S
C10 C11 1.387 . S
C11 O5 1.411 1_554 S
C11 C10 1.387 . S
C11 C12 1.391 1_554 S
C12 H2 0.929 . S
C12 C8 1.377 . S
C12 C11 1.391 1_556 S
H13 C20 0.929 . S
H14 C23 0.930 . S
H15 C25 0.929 . S
H16 C17 0.969 . S
C17 H16 0.969 . S
C17 O18 1.550 . S
C17 H19 0.973 . S
O18 C17 1.550 . S
O18 C24 1.412 . S
H19 C17 0.973 . S
C20 H13 0.929 . S
C20 C21 1.400 . S
C20 C22 1.364 . S
C21 C20 1.400 . S
C21 C25 1.377 . S
C22 C20 1.364 . S
C22 C23 1.374 . S
C23 H14 0.930 . S
C23 C22 1.374 . S
C23 C24 1.383 . S
C24 O18 1.412 . S
C24 C23 1.383 . S
C24 C25 1.394 . S
C25 H15 0.929 . S
C25 C21 1.377 . S
C25 C24 1.394 . S
H26 C33 0.929 . S
H27 C36 0.930 . S
H28 C38 0.929 . S
H29 C30 0.969 . S
C30 H29 0.969 . S
C30 O31 1.550 1_556 S
C30 H32 0.973 . S
O31 C30 1.550 1_554 S
O31 C37 1.412 . S
H32 C30 0.973 . S
C33 H26 0.929 . S
C33 C34 1.400 . S
C33 C35 1.364 1_554 S
C34 C33 1.400 . S
C34 C38 1.377 . S
C35 C33 1.364 1_556 S
C35 C36 1.374 . S
C36 H27 0.930 . S
C36 C35 1.374 . S
C36 C37 1.383 1_556 S
C37 O31 1.412 . S
C37 C36 1.383 1_554 S
C37 C38 1.394 . S
C38 H28 0.929 . S
C38 C34 1.377 . S
C38 C37 1.394 . S
H39 C46 0.929 . S
H40 C49 0.930 . S
H41 C51 0.929 . S
H42 C43 0.969 . S
C43 H42 0.969 . S
C43 O44 1.550 . S
C43 H45 0.973 . S
O44 C43 1.550 . S
O44 C50 1.412 . S
H45 C43 0.973 . S
C46 H39 0.929 . S
C46 C47 1.400 . S
C46 C48 1.364 . S
C47 C46 1.400 . S
C47 C51 1.377 . S
C48 C46 1.364 . S
C48 C49 1.374 . S
C49 H40 0.930 . S
C49 C48 1.374 . S
C49 C50 1.383 . S
C50 O44 1.412 . S
C50 C49 1.383 . S
C50 C51 1.394 . S
C51 H41 0.929 . S
C51 C47 1.377 . S
C51 C50 1.394 . S
C52 O68 1.251 . S
C52 O70 1.254 . S
N53 C54 1.333 . S
N53 C58 1.307 . S
N53 Zn59 2.020 . S
C54 N53 1.333 . S
C54 C55 1.379 . S
C54 H72 0.952 . S
C55 C54 1.379 . S
C55 C56 1.390 . S
C55 H82 0.949 . S
C56 C55 1.390 . S
C56 C57 1.357 . S
C57 C56 1.357 . S
C57 C58 1.370 . S
C57 H83 0.950 . S
C58 N53 1.307 . S
C58 C57 1.370 . S
C58 H76 0.948 . S
Zn59 N53 2.020 . S
Zn59 O68 2.039 1_545 S
Zn59 O74 2.034 1_545 S
Zn59 O78 2.025 1_455 S
Zn59 O80 2.024 1_455 S
C60 O79 1.246 . S
C60 O80 1.249 . S
N61 C62 1.307 . S
N61 C63 1.333 . S
N61 Zn67 2.020 . S
C62 N61 1.307 . S
C62 C66 1.370 . S
C62 H73 0.948 . S
C63 N61 1.333 . S
C63 C64 1.379 . S
C63 H71 0.952 . S
C64 C63 1.379 . S
C64 C65 1.390 . S
C64 H84 0.949 . S
C65 C64 1.390 . S
C65 C66 1.357 . S
C66 C62 1.370 . S
C66 C65 1.357 . S
C66 H85 0.950 . S
Zn67 N61 2.020 . S
Zn67 O70 2.025 1_655 S
Zn67 O75 2.024 1_655 S
Zn67 O77 2.039 1_565 S
Zn67 O79 2.034 1_565 S
O68 C52 1.251 . S
O68 Zn59 2.039 1_565 S
C69 O74 1.246 . S
C69 O75 1.249 . S
O70 C52 1.254 . S
O70 Zn67 2.025 1_455 S
H71 C63 0.952 . S
H72 C54 0.952 . S
H73 C62 0.948 . S
O74 Zn59 2.034 1_565 S
O74 C69 1.246 . S
O75 Zn67 2.024 1_455 S
O75 C69 1.249 . S
H76 C58 0.948 . S
O77 Zn67 2.039 1_545 S
O77 C81 1.251 . S
O78 Zn59 2.025 1_655 S
O78 C81 1.254 . S
O79 C60 1.246 . S
O79 Zn67 2.034 1_545 S
O80 Zn59 2.024 1_655 S
O80 C60 1.249 . S
C81 O77 1.251 . S
C81 O78 1.254 . S
H82 C55 0.949 . S
H83 C57 0.950 . S
H84 C64 0.949 . S
H85 C66 0.950 . S
C86 O102 1.251 . S
C86 O104 1.254 . S
N87 C88 1.333 1_554 S
N87 C92 1.307 . S
N87 Zn93 2.020 . S
C88 N87 1.333 1_556 S
C88 C89 1.379 . S
C88 H106 0.952 . S
C89 C88 1.379 . S
C89 C90 1.390 1_556 S
C89 H116 0.949 . S
C90 C89 1.390 1_554 S
C90 C91 1.357 . S
C91 C90 1.357 . S
C91 C92 1.370 . S
C91 H117 0.950 . S
C92 N87 1.307 . S
C92 C91 1.370 . S
C92 H110 0.948 . S
Zn93 N87 2.020 . S
Zn93 O102 2.039 1_554 S
Zn93 O108 2.034 . S
Zn93 O112 2.025 . S
Zn93 O114 2.024 1_554 S
C94 O113 1.246 . S
C94 O114 1.249 . S
N95 C96 1.307 1_554 S
N95 C97 1.333 . S
N95 Zn101 2.020 . S
C96 N95 1.307 1_556 S
C96 C100 1.370 . S
C96 H107 0.948 . S
C97 N95 1.333 . S
C97 C98 1.379 . S
C97 H105 0.952 . S
C98 C97 1.379 . S
C98 C99 1.390 . S
C98 H118 0.949 . S
C99 C98 1.390 . S
C99 C100 1.353 1_554 S
C100 C96 1.370 . S
C100 C99 1.353 1_556 S
C100 H119 0.954 . S
Zn101 N95 2.020 . S
Zn101 O104 2.025 1_554 S
Zn101 O109 2.024 . S
Zn101 O111 2.039 . S
Zn101 O113 2.034 1_554 S
O102 C86 1.251 . S
O102 Zn93 2.039 1_556 S
C103 O108 1.246 . S
C103 O109 1.249 . S
O104 C86 1.254 . S
O104 Zn101 2.025 1_556 S
H105 C97 0.952 . S
H106 C88 0.952 . S
H107 C96 0.948 . S
O108 Zn93 2.034 . S
O108 C103 1.246 . S
O109 Zn101 2.024 . S
O109 C103 1.249 . S
H110 C92 0.948 . S
O111 Zn101 2.039 . S
O111 C115 1.251 . S
O112 Zn93 2.025 . S
O112 C115 1.254 . S
O113 C94 1.246 . S
O113 Zn101 2.034 1_556 S
O114 Zn93 2.024 1_556 S
O114 C94 1.249 . S
C115 O111 1.251 . S
C115 O112 1.254 . S
H116 C89 0.949 . S
H117 C91 0.950 . S
H118 C98 0.949 . S
H119 C100 0.954 . S
H120 C128 0.929 . S
H121 C130 0.930 . S
H122 C132 0.930 . S
H123 C135 0.929 . S
H124 C138 0.930 . S
H125 C140 0.960 . S
H126 C140 0.960 . S
H127 C140 0.960 . S
C128 H120 0.929 . S
C128 C129 1.377 . S
C128 C130 1.384 . S
C129 C128 1.377 . S
C129 C135 1.390 . S
C130 H121 0.930 . S
C130 C128 1.384 . S
C130 C131 1.372 . S
C131 C130 1.372 . S
C131 C132 1.400 . S
C131 C136 1.490 . S
C132 H122 0.930 . S
C132 C131 1.400 . S
C132 C135 1.386 . S
H133 C149 0.930 . S
H134 C150 0.931 . S
C135 H123 0.929 . S
C135 C129 1.390 . S
C135 C132 1.386 . S
C136 C131 1.490 . S
C136 C138 1.395 . S
C136 C139 1.403 . S
H137 C143 0.930 . S
C138 H124 0.930 . S
C138 C136 1.395 . S
C138 C141 1.403 . S
C139 C136 1.403 . S
C139 C140 1.524 . S
C139 C143 1.400 . S
C140 H125 0.960 . S
C140 H126 0.960 . S
C140 H127 0.960 . S
C140 C139 1.524 . S
C141 C138 1.403 . S
C141 C142 1.392 . S
C141 C145 1.495 . S
C142 C141 1.392 . S
C142 C143 1.385 . S
C142 C144 1.478 . S
C143 H137 0.930 . S
C143 C139 1.400 . S
C143 C142 1.385 . S
C144 C142 1.478 . S
C144 C146 1.381 . S
C144 C150 1.383 . S
C145 C141 1.495 . S
C145 H151 0.959 . S
C145 H152 0.961 . S
C145 H153 0.960 . S
C146 C144 1.381 . S
C146 C147 1.394 . S
C146 H154 0.930 . S
C147 C146 1.394 . S
C147 C148 1.383 . S
C147 H155 0.929 . S
C148 C147 1.383 . S
C148 C149 1.377 . S
C149 H133 0.930 . S
C149 C148 1.377 . S
C149 C150 1.379 . S
C150 H134 0.931 . S
C150 C144 1.383 . S
C150 C149 1.379 . S
H151 C145 0.959 . S
H152 C145 0.961 . S
H153 C145 0.960 . S
H154 C146 0.930 . S
H155 C147 0.929 . S
H156 C164 0.929 . S
H157 C166 0.930 . S
H158 C168 0.930 1_556 S
H159 C171 0.929 1_556 S
H160 C174 0.930 . S
H161 C176 0.960 . S
H162 C176 0.960 . S
H163 C176 0.960 . S
C164 H156 0.929 . S
C164 C165 1.377 . S
C164 C166 1.384 . S
C165 C164 1.377 . S
C165 C171 1.390 . S
C166 H157 0.930 . S
C166 C164 1.384 . S
C166 C167 1.372 . S
C167 C166 1.372 . S
C167 C168 1.400 . S
C167 C172 1.490 . S
C168 H158 0.930 1_554 S
C168 C167 1.400 . S
C168 C171 1.386 . S
H169 C185 0.930 . S
H170 C186 0.931 . S
C171 H159 0.929 1_554 S
C171 C165 1.390 . S
C171 C168 1.386 . S
C172 C167 1.490 . S
C172 C174 1.395 1_554 S
C172 C175 1.403 . S
H173 C179 0.930 . S
C174 H160 0.930 . S
C174 C172 1.395 1_556 S
C174 C177 1.403 . S
C175 C172 1.403 . S
C175 C176 1.524 . S
C175 C179 1.400 . S
C176 H161 0.960 . S
C176 H162 0.960 . S
C176 H163 0.960 . S
C176 C175 1.524 . S
C177 C174 1.403 . S
C177 C178 1.392 1_556 S
C177 C181 1.495 . S
C178 C177 1.392 1_554 S
C178 C179 1.385 . S
C178 C180 1.478 . S
C179 H173 0.930 . S
C179 C175 1.400 . S
C179 C178 1.385 . S
C180 C178 1.478 . S
C180 C182 1.381 . S
C180 C186 1.383 1_554 S
C181 C177 1.495 . S
C181 H187 0.959 . S
C181 H188 0.961 . S
C181 H189 0.960 . S
C182 C180 1.381 . S
C182 C183 1.394 . S
C182 H190 0.930 . S
C183 C182 1.394 . S
C183 C184 1.383 . S
C183 H191 0.929 . S
C184 C183 1.383 . S
C184 C185 1.377 1_554 S
C185 H169 0.930 . S
C185 C184 1.377 1_556 S
C185 C186 1.379 . S
C186 H170 0.931 . S
C186 C180 1.383 1_556 S
C186 C185 1.379 . S
H187 C181 0.959 . S
H188 C181 0.961 . S
H189 C181 0.960 . S
H190 C182 0.930 . S
H191 C183 0.929 . S
H192 C200 0.929 . S
H193 C202 0.930 . S
H194 C204 0.930 . S
H195 C207 0.929 . S
H196 C210 0.930 . S
H197 C212 0.960 . S
H198 C212 0.960 . S
H199 C212 0.960 . S
C200 H192 0.929 . S
C200 C201 1.377 . S
C200 C202 1.384 . S
C201 C200 1.377 . S
C201 C207 1.390 . S
C202 H193 0.930 . S
C202 C200 1.384 . S
C202 C203 1.372 . S
C203 C202 1.372 . S
C203 C204 1.400 . S
C203 C208 1.490 . S
C204 H194 0.930 . S
C204 C203 1.400 . S
C204 C207 1.386 . S
H205 C221 0.930 . S
H206 C222 0.931 . S
C207 H195 0.929 . S
C207 C201 1.390 . S
C207 C204 1.386 . S
C208 C203 1.490 . S
C208 C210 1.395 . S
C208 C211 1.403 . S
H209 C215 0.930 . S
C210 H196 0.930 . S
C210 C208 1.395 . S
C210 C213 1.403 . S
C211 C208 1.403 . S
C211 C212 1.524 . S
C211 C215 1.400 . S
C212 H197 0.960 . S
C212 H198 0.960 . S
C212 H199 0.960 . S
C212 C211 1.524 . S
C213 C210 1.403 . S
C213 C214 1.392 . S
C213 C217 1.495 . S
C214 C213 1.392 . S
C214 C215 1.385 . S
C214 C216 1.478 . S
C215 H209 0.930 . S
C215 C211 1.400 . S
C215 C214 1.385 . S
C216 C214 1.478 . S
C216 C218 1.381 . S
C216 C222 1.383 . S
C217 C213 1.495 . S
C217 H223 0.959 . S
C217 H224 0.961 . S
C217 H225 0.960 . S
C218 C216 1.381 . S
C218 C219 1.394 . S
C218 H226 0.930 . S
C219 C218 1.394 . S
C219 C220 1.383 . S
C219 H227 0.929 . S
C220 C219 1.383 . S
C220 C221 1.377 . S
C221 H205 0.930 . S
C221 C220 1.377 . S
C221 C222 1.379 . S
C222 H206 0.931 . S
C222 C216 1.383 . S
C222 C221 1.379 . S
H223 C217 0.959 . S
H224 C217 0.961 . S
H225 C217 0.960 . S
H226 C218 0.930 . S
H227 C219 0.929 . S
H228 C236 0.929 . S
H229 C238 0.930 . S
H230 C240 0.930 . S
H231 C243 0.929 . S
H232 C246 0.930 . S
H233 C248 0.960 . S
H234 C248 0.960 . S
H235 C248 0.960 . S
C236 H228 0.929 . S
C236 C237 1.377 . S
C236 C238 1.384 . S
C237 C236 1.377 . S
C237 C243 1.390 1_556 S
C238 H229 0.930 . S
C238 C236 1.384 . S
C238 C239 1.373 . S
C239 C238 1.373 . S
C239 C240 1.398 1_556 S
C239 C244 1.490 1_556 S
C240 H230 0.930 . S
C240 C239 1.398 1_554 S
C240 C243 1.386 . S
H241 C257 0.930 . S
H242 C258 0.931 . S
C243 H231 0.929 . S
C243 C237 1.390 1_554 S
C243 C240 1.386 . S
C244 C239 1.490 1_554 S
C244 C246 1.395 . S
C244 C247 1.403 1_554 S
H245 C251 0.930 . S
C246 H232 0.930 . S
C246 C244 1.395 . S
C246 C249 1.403 . S
C247 C244 1.403 1_556 S
C247 C248 1.524 . S
C247 C251 1.400 . S
C248 H233 0.960 . S
C248 H234 0.960 . S
C248 H235 0.960 . S
C248 C247 1.524 . S
C249 C246 1.403 . S
C249 C250 1.392 . S
C249 C253 1.495 . S
C250 C249 1.392 . S
C250 C251 1.385 1_554 S
C250 C252 1.478 . S
C251 H245 0.930 . S
C251 C247 1.400 . S
C251 C250 1.385 1_556 S
C252 C250 1.478 . S
C252 C254 1.381 1_554 S
C252 C258 1.383 . S
C253 C249 1.495 . S
C253 H259 0.959 . S
C253 H260 0.961 . S
C253 H261 0.960 . S
C254 C252 1.381 1_556 S
C254 C255 1.394 . S
C254 H262 0.930 . S
C255 C254 1.394 . S
C255 C256 1.383 1_556 S
C255 H263 0.929 . S
C256 C255 1.383 1_554 S
C256 C257 1.377 . S
C257 H241 0.930 . S
C257 C256 1.377 . S
C257 C258 1.379 . S
C258 H242 0.931 . S
C258 C252 1.383 . S
C258 C257 1.379 . S
H259 C253 0.959 . S
H260 C253 0.961 . S
H261 C253 0.960 . S
H262 C254 0.930 . S
H263 C255 0.929 . S
H264 C272 0.929 . S
H265 C274 0.930 . S
H266 C276 0.930 . S
H267 C279 0.929 . S
H268 C282 0.930 . S
H269 C284 0.960 . S
H270 C284 0.960 . S
H271 C284 0.960 . S
C272 H264 0.929 . S
C272 C273 1.377 . S
C272 C274 1.384 . S
C273 C272 1.377 . S
C273 C279 1.390 . S
C274 H265 0.930 . S
C274 C272 1.384 . S
C274 C275 1.372 . S
C275 C274 1.372 . S
C275 C276 1.400 . S
C275 C280 1.490 . S
C276 H266 0.930 . S
C276 C275 1.400 . S
C276 C279 1.386 . S
H277 C293 0.930 . S
H278 C294 0.931 . S
C279 H267 0.929 . S
C279 C273 1.390 . S
C279 C276 1.386 . S
C280 C275 1.490 . S
C280 C282 1.395 . S
C280 C283 1.403 . S
H281 C287 0.930 . S
C282 H268 0.930 . S
C282 C280 1.395 . S
C282 C285 1.403 . S
C283 C280 1.403 . S
C283 C284 1.524 . S
C283 C287 1.400 . S
C284 H269 0.960 . S
C284 H270 0.960 . S
C284 H271 0.960 . S
C284 C283 1.524 . S
C285 C282 1.403 . S
C285 C286 1.392 . S
C285 C289 1.495 . S
C286 C285 1.392 . S
C286 C287 1.385 . S
C286 C288 1.478 . S
C287 H281 0.930 . S
C287 C283 1.400 . S
C287 C286 1.385 . S
C288 C286 1.478 . S
C288 C290 1.381 . S
C288 C294 1.383 . S
C289 C285 1.495 . S
C289 H295 0.959 . S
C289 H296 0.961 . S
C289 H297 0.960 . S
C290 C288 1.381 . S
C290 C291 1.394 . S
C290 H298 0.930 . S
C291 C290 1.394 . S
C291 C292 1.383 . S
C291 H299 0.929 . S
C292 C291 1.383 . S
C292 C293 1.377 . S
C293 H277 0.930 . S
C293 C292 1.377 . S
C293 C294 1.379 . S
C294 H278 0.931 . S
C294 C288 1.383 . S
C294 C293 1.379 . S
H295 C289 0.959 . S
H296 C289 0.961 . S
H297 C289 0.960 . S
H298 C290 0.930 . S
H299 C291 0.929 . S
H300 C308 0.929 . S
H301 C310 0.930 . S
H302 C312 0.930 . S
H303 C315 0.929 . S
H304 C318 0.930 . S
H305 C320 0.960 . S
H306 C320 0.960 . S
H307 C320 0.960 . S
C308 H300 0.929 . S
C308 C309 1.377 . S
C308 C310 1.384 . S
C309 C308 1.377 . S
C309 C315 1.390 . S
C310 H301 0.930 . S
C310 C308 1.384 . S
C310 C311 1.372 . S
C311 C310 1.372 . S
C311 C312 1.400 . S
C311 C316 1.490 . S
C312 H302 0.930 . S
C312 C311 1.400 . S
C312 C315 1.386 . S
H313 C329 0.930 . S
H314 C330 0.931 . S
C315 H303 0.929 . S
C315 C309 1.390 . S
C315 C312 1.386 . S
C316 C311 1.490 . S
C316 C318 1.395 . S
C316 C319 1.403 . S
H317 C323 0.930 . S
C318 H304 0.930 . S
C318 C316 1.395 . S
C318 C321 1.403 . S
C319 C316 1.403 . S
C319 C320 1.524 . S
C319 C323 1.400 . S
C320 H305 0.960 . S
C320 H306 0.960 . S
C320 H307 0.960 . S
C320 C319 1.524 . S
C321 C318 1.403 . S
C321 C322 1.392 . S
C321 C325 1.495 . S
C322 C321 1.392 . S
C322 C323 1.385 . S
C322 C324 1.478 . S
C323 H317 0.930 . S
C323 C319 1.400 . S
C323 C322 1.385 . S
C324 C322 1.478 . S
C324 C326 1.381 . S
C324 C330 1.383 . S
C325 C321 1.495 . S
C325 H331 0.959 . S
C325 H332 0.961 . S
C325 H333 0.960 . S
C326 C324 1.381 . S
C326 C327 1.394 . S
C326 H334 0.930 . S
C327 C326 1.394 . S
C327 C328 1.383 . S
C327 H335 0.929 . S
C328 C327 1.383 . S
C328 C329 1.377 . S
C329 H313 0.930 . S
C329 C328 1.377 . S
C329 C330 1.379 . S
C330 H314 0.931 . S
C330 C324 1.383 . S
C330 C329 1.379 . S
H331 C325 0.959 . S
H332 C325 0.961 . S
H333 C325 0.960 . S
H334 C326 0.930 . S
H335 C327 0.929 . S
H336 C344 0.929 . S
H337 C346 0.930 . S
H338 C348 0.930 . S
H339 C351 0.929 . S
H340 C354 0.930 . S
H341 C356 0.960 . S
H342 C356 0.960 . S
H343 C356 0.960 . S
C344 H336 0.929 . S
C344 C345 1.377 . S
C344 C346 1.384 . S
C345 C344 1.377 . S
C345 C351 1.390 . S
C346 H337 0.930 . S
C346 C344 1.384 . S
C346 C347 1.372 . S
C347 C346 1.372 . S
C347 C348 1.400 . S
C347 C352 1.490 . S
C348 H338 0.930 . S
C348 C347 1.400 . S
C348 C351 1.386 . S
H349 C365 0.930 . S
H350 C366 0.931 . S
C351 H339 0.929 . S
C351 C345 1.390 . S
C351 C348 1.386 . S
C352 C347 1.490 . S
C352 C354 1.395 . S
C352 C355 1.403 . S
H353 C359 0.930 . S
C354 H340 0.930 . S
C354 C352 1.395 . S
C354 C357 1.403 . S
C355 C352 1.403 . S
C355 C356 1.524 . S
C355 C359 1.400 . S
C356 H341 0.960 . S
C356 H342 0.960 . S
C356 H343 0.960 . S
C356 C355 1.524 . S
C357 C354 1.403 . S
C357 C358 1.392 . S
C357 C361 1.495 . S
C358 C357 1.392 . S
C358 C359 1.385 . S
C358 C360 1.478 . S
C359 H353 0.930 . S
C359 C355 1.400 . S
C359 C358 1.385 . S
C360 C358 1.478 . S
C360 C362 1.381 . S
C360 C366 1.383 . S
C361 C357 1.495 . S
C361 H367 0.959 . S
C361 H368 0.961 . S
C361 H369 0.960 . S
C362 C360 1.381 . S
C362 C363 1.394 . S
C362 H370 0.930 . S
C363 C362 1.394 . S
C363 C364 1.383 . S
C363 H371 0.929 . S
C364 C363 1.383 . S
C364 C365 1.377 . S
C365 H349 0.930 . S
C365 C364 1.377 . S
C365 C366 1.379 . S
C366 H350 0.931 . S
C366 C360 1.383 . S
C366 C365 1.379 . S
H367 C361 0.959 . S
H368 C361 0.961 . S
H369 C361 0.960 . S
H370 C362 0.930 . S
H371 C363 0.929 . S
H372 C380 0.929 . S
H373 C382 0.930 . S
H374 C384 0.930 . S
H375 C387 0.929 . S
H376 C390 0.930 . S
H377 C392 0.960 . S
H378 C392 0.960 . S
H379 C392 0.960 . S
C380 H372 0.929 . S
C380 C381 1.377 . S
C380 C382 1.384 . S
C381 C380 1.377 . S
C381 C387 1.390 . S
C382 H373 0.930 . S
C382 C380 1.384 . S
C382 C383 1.372 . S
C383 C382 1.372 . S
C383 C384 1.400 . S
C383 C388 1.490 . S
C384 H374 0.930 . S
C384 C383 1.400 . S
C384 C387 1.386 . S
H385 C401 0.930 . S
H386 C402 0.931 . S
C387 H375 0.929 . S
C387 C381 1.390 . S
C387 C384 1.386 . S
C388 C383 1.490 . S
C388 C390 1.395 . S
C388 C391 1.403 . S
H389 C395 0.930 . S
C390 H376 0.930 . S
C390 C388 1.395 . S
C390 C393 1.403 . S
C391 C388 1.403 . S
C391 C392 1.524 . S
C391 C395 1.400 . S
C392 H377 0.960 . S
C392 H378 0.960 . S
C392 H379 0.960 . S
C392 C391 1.524 . S
C393 C390 1.403 . S
C393 C394 1.392 . S
C393 C397 1.495 . S
C394 C393 1.392 . S
C394 C395 1.385 . S
C394 C396 1.478 . S
C395 H389 0.930 . S
C395 C391 1.400 . S
C395 C394 1.385 . S
C396 C394 1.478 . S
C396 C398 1.381 . S
C396 C402 1.383 . S
C397 C393 1.495 . S
C397 H403 0.959 . S
C397 H404 0.961 . S
C397 H405 0.960 . S
C398 C396 1.381 . S
C398 C399 1.394 . S
C398 H406 0.930 . S
C399 C398 1.394 . S
C399 C400 1.383 . S
C399 H407 0.929 . S
C400 C399 1.383 . S
C400 C401 1.377 . S
C401 H385 0.930 . S
C401 C400 1.377 . S
C401 C402 1.379 . S
C402 H386 0.931 . S
C402 C396 1.383 . S
C402 C401 1.379 . S
H403 C397 0.959 . S
H404 C397 0.961 . S
H405 C397 0.960 . S
H406 C398 0.930 . S
H407 C399 0.929 . S
H408 C416 0.929 . S
H409 C418 0.930 . S
H410 C420 0.930 . S
H411 C423 0.929 . S
H412 C426 0.930 . S
H413 C428 0.960 . S
H414 C428 0.960 . S
H415 C428 0.960 . S
C416 H408 0.929 . S
C416 C417 1.377 . S
C416 C418 1.384 . S
C417 C416 1.377 . S
C417 C423 1.390 . S
C418 H409 0.930 . S
C418 C416 1.384 . S
C418 C419 1.372 . S
C419 C418 1.372 . S
C419 C420 1.400 . S
C419 C424 1.490 . S
C420 H410 0.930 . S
C420 C419 1.400 . S
C420 C423 1.386 . S
H421 C437 0.930 . S
H422 C438 0.931 . S
C423 H411 0.929 . S
C423 C417 1.390 . S
C423 C420 1.386 . S
C424 C419 1.490 . S
C424 C426 1.395 . S
C424 C427 1.403 . S
H425 C431 0.930 . S
C426 H412 0.930 . S
C426 C424 1.395 . S
C426 C429 1.403 . S
C427 C424 1.403 . S
C427 C428 1.524 . S
C427 C431 1.400 . S
C428 H413 0.960 . S
C428 H414 0.960 . S
C428 H415 0.960 . S
C428 C427 1.524 . S
C429 C426 1.403 . S
C429 C430 1.392 . S
C429 C433 1.495 . S
C430 C429 1.392 . S
C430 C431 1.385 . S
C430 C432 1.478 . S
C431 H425 0.930 . S
C431 C427 1.400 . S
C431 C430 1.385 . S
C432 C430 1.478 . S
C432 C434 1.381 . S
C432 C438 1.383 . S
C433 C429 1.495 . S
C433 H439 0.959 . S
C433 H440 0.961 . S
C433 H441 0.960 . S
C434 C432 1.381 . S
C434 C435 1.394 . S
C434 H442 0.930 . S
C435 C434 1.394 . S
C435 C436 1.383 . S
C435 H443 0.929 . S
C436 C435 1.383 . S
C436 C437 1.377 . S
C437 H421 0.930 . S
C437 C436 1.377 . S
C437 C438 1.379 . S
C438 H422 0.931 . S
C438 C432 1.383 . S
C438 C437 1.379 . S
H439 C433 0.959 . S
H440 C433 0.961 . S
H441 C433 0.960 . S
H442 C434 0.930 . S
H443 C435 0.929 . S
H444 C452 0.929 . S
H445 C454 0.930 . S
H446 C456 0.930 . S
H447 C459 0.929 . S
H448 C462 0.930 . S
H449 C464 0.960 . S
H450 C464 0.960 . S
H451 C464 0.960 . S
C452 H444 0.929 . S
C452 C453 1.377 . S
C452 C454 1.384 . S
C453 C452 1.377 . S
C453 C459 1.390 . S
C454 H445 0.930 . S
C454 C452 1.384 . S
C454 C455 1.372 . S
C455 C454 1.372 . S
C455 C456 1.400 . S
C455 C460 1.490 . S
C456 H446 0.930 . S
C456 C455 1.400 . S
C456 C459 1.386 . S
H457 C473 0.930 . S
H458 C474 0.931 . S
C459 H447 0.929 . S
C459 C453 1.390 . S
C459 C456 1.386 . S
C460 C455 1.490 . S
C460 C462 1.395 . S
C460 C463 1.403 . S
H461 C467 0.930 . S
C462 H448 0.930 . S
C462 C460 1.395 . S
C462 C465 1.403 . S
C463 C460 1.403 . S
C463 C464 1.524 . S
C463 C467 1.400 . S
C464 H449 0.960 . S
C464 H450 0.960 . S
C464 H451 0.960 . S
C464 C463 1.524 . S
C465 C462 1.403 . S
C465 C466 1.392 . S
C465 C469 1.495 . S
C466 C465 1.392 . S
C466 C467 1.385 . S
C466 C468 1.478 . S
C467 H461 0.930 . S
C467 C463 1.400 . S
C467 C466 1.385 . S
C468 C466 1.478 . S
C468 C470 1.381 . S
C468 C474 1.383 . S
C469 C465 1.495 . S
C469 H475 0.959 . S
C469 H476 0.961 . S
C469 H477 0.960 . S
C470 C468 1.381 . S
C470 C471 1.394 . S
C470 H478 0.930 . S
C471 C470 1.394 . S
C471 C472 1.383 . S
C471 H479 0.929 . S
C472 C471 1.383 . S
C472 C473 1.377 . S
C473 H457 0.930 . S
C473 C472 1.377 . S
C473 C474 1.379 . S
C474 H458 0.931 . S
C474 C468 1.383 . S
C474 C473 1.379 . S
H475 C469 0.959 . S
H476 C469 0.961 . S
H477 C469 0.960 . S
H478 C470 0.930 . S
H479 C471 0.929 . S
H480 C488 0.929 . S
H481 C490 0.930 . S
H482 C492 0.930 . S
H483 C495 0.929 . S
H484 C498 0.930 . S
H485 C500 0.960 . S
H486 C500 0.960 . S
H487 C500 0.960 . S
C488 H480 0.929 . S
C488 C489 1.377 . S
C488 C490 1.384 . S
C489 C488 1.377 . S
C489 C495 1.390 . S
C490 H481 0.930 . S
C490 C488 1.384 . S
C490 C491 1.372 . S
C491 C490 1.372 . S
C491 C492 1.400 . S
C491 C496 1.490 . S
C492 H482 0.930 . S
C492 C491 1.400 . S
C492 C495 1.386 . S
H493 C509 0.930 . S
H494 C510 0.931 . S
C495 H483 0.929 . S
C495 C489 1.390 . S
C495 C492 1.386 . S
C496 C491 1.490 . S
C496 C498 1.395 . S
C496 C499 1.403 . S
H497 C503 0.930 . S
C498 H484 0.930 . S
C498 C496 1.395 . S
C498 C501 1.403 . S
C499 C496 1.403 . S
C499 C500 1.524 . S
C499 C503 1.400 . S
C500 H485 0.960 . S
C500 H486 0.960 . S
C500 H487 0.960 . S
C500 C499 1.524 . S
C501 C498 1.403 . S
C501 C502 1.392 . S
C501 C505 1.495 . S
C502 C501 1.392 . S
C502 C503 1.385 . S
C502 C504 1.478 . S
C503 H497 0.930 . S
C503 C499 1.400 . S
C503 C502 1.385 . S
C504 C502 1.478 . S
C504 C506 1.381 . S
C504 C510 1.383 . S
C505 C501 1.495 . S
C505 H511 0.959 . S
C505 H512 0.961 . S
C505 H513 0.960 . S
C506 C504 1.381 . S
C506 C507 1.394 . S
C506 H514 0.930 . S
C507 C506 1.394 . S
C507 C508 1.383 . S
C507 H515 0.929 . S
C508 C507 1.383 . S
C508 C509 1.377 . S
C509 H493 0.930 . S
C509 C508 1.377 . S
C509 C510 1.379 . S
C510 H494 0.931 . S
C510 C504 1.383 . S
C510 C509 1.379 . S
H511 C505 0.959 . S
H512 C505 0.961 . S
H513 C505 0.960 . S
H514 C506 0.930 . S
H515 C507 0.929 . S
H516 C524 0.929 . S
H517 C526 0.930 . S
H518 C528 0.930 . S
H519 C531 0.929 . S
H520 C534 0.930 . S
H521 C536 0.960 . S
H522 C536 0.960 . S
H523 C536 0.960 . S
C524 H516 0.929 . S
C524 C525 1.377 . S
C524 C526 1.384 . S
C525 C524 1.377 . S
C525 C531 1.390 . S
C526 H517 0.930 . S
C526 C524 1.384 . S
C526 C527 1.372 . S
C527 C526 1.372 . S
C527 C528 1.400 . S
C527 C532 1.490 . S
C528 H518 0.930 . S
C528 C527 1.400 . S
C528 C531 1.386 . S
H529 C545 0.930 . S
H530 C546 0.931 . S
C531 H519 0.929 . S
C531 C525 1.390 . S
C531 C528 1.386 . S
C532 C527 1.490 . S
C532 C534 1.395 . S
C532 C535 1.403 . S
H533 C539 0.930 . S
C534 H520 0.930 . S
C534 C532 1.395 . S
C534 C537 1.403 . S
C535 C532 1.403 . S
C535 C536 1.524 . S
C535 C539 1.400 . S
C536 H521 0.960 . S
C536 H522 0.960 . S
C536 H523 0.960 . S
C536 C535 1.524 . S
C537 C534 1.403 . S
C537 C538 1.392 . S
C537 C541 1.495 . S
C538 C537 1.392 . S
C538 C539 1.385 . S
C538 C540 1.478 . S
C539 H533 0.930 . S
C539 C535 1.400 . S
C539 C538 1.385 . S
C540 C538 1.478 . S
C540 C542 1.381 . S
C540 C546 1.383 . S
C541 C537 1.495 . S
C541 H547 0.959 . S
C541 H548 0.961 . S
C541 H549 0.960 . S
C542 C540 1.381 . S
C542 C543 1.394 . S
C542 H550 0.930 . S
C543 C542 1.394 . S
C543 C544 1.383 . S
C543 H551 0.929 . S
C544 C543 1.383 . S
C544 C545 1.377 . S
C545 H529 0.930 . S
C545 C544 1.377 . S
C545 C546 1.379 . S
C546 H530 0.931 . S
C546 C540 1.383 . S
C546 C545 1.379 . S
H547 C541 0.959 . S
H548 C541 0.961 . S
H549 C541 0.960 . S
H550 C542 0.930 . S
H551 C543 0.929 . S
C148 C56 1.503 . S
C129 C43 1.460 . S
C165 C4 1.458 . S
C184 C99 1.503 . S
C201 C17 1.460 . S
C220 C65 1.509 . S
C237 C30 1.463 . S
C256 C90 1.505 . S
C292 C52 1.506 . S
C273 C9 1.491 . S
C328 C94 1.501 . S
C309 C21 1.508 . S
C345 C34 1.510 . S
C364 C60 1.505 . S
C381 C48 1.490 . S
C400 C86 1.505 . S
C436 C115 1.509 . S
C417 C22 1.494 . S
C472 C81 1.509 . S
C453 C35 1.495 . S
C508 C103 1.502 . S
C489 C47 1.510 . S
C525 C8 1.508 . S
C544 C69 1.510 . S
