# Generated by pormake.
# Topology pto, (3,4)-cn, num edge types: 1
# Building blocks:
#     Node 0, Type 0, BuildingBlock: INOVEN_clean_linker_0, # of connection points: 3
#     Node 1, Type 0, BuildingBlock: INOVEN_clean_linker_0, # of connection points: 3
#     Node 2, Type 0, BuildingBlock: INOVEN_clean_linker_0, # of connection points: 3
#     Node 3, Type 0, BuildingBlock: INOVEN_clean_linker_0, # of connection points: 3
#     Node 4, Type 0, BuildingBlock: INOVEN_clean_linker_0, # of connection points: 3
#     Node 5, Type 0, BuildingBlock: INOVEN_clean_linker_0, # of connection points: 3
#     Node 6, Type 0, BuildingBlock: INOVEN_clean_linker_0, # of connection points: 3
#     Node 7, Type 0, BuildingBlock: INOVEN_clean_linker_0, # of connection points: 3
#     Node 8, Type 1, BuildingBlock: NAWXER_clean_sbu_0, # of connection points: 4
#     Node 9, Type 1, BuildingBlock: NAWXER_clean_sbu_0, # of connection points: 4
#     Node 10, Type 1, BuildingBlock: NAWXER_clean_sbu_0, # of connection points: 4
#     Node 11, Type 1, BuildingBlock: NAWXER_clean_sbu_0, # of connection points: 4
#     Node 12, Type 1, BuildingBlock: NAWXER_clean_sbu_0, # of connection points: 4
#     Node 13, Type 1, BuildingBlock: NAWXER_clean_sbu_0, # of connection points: 4
#     Edge 14, Type (0, 1), BuildingBlock: CIFDUS_clean_linker_0, # of connection points: 2
#     Edge 15, Type (0, 1), BuildingBlock: CIFDUS_clean_linker_0, # of connection points: 2
#     Edge 16, Type (0, 1), BuildingBlock: CIFDUS_clean_linker_0, # of connection points: 2
#     Edge 17, Type (0, 1), BuildingBlock: CIFDUS_clean_linker_0, # of connection points: 2
#     Edge 18, Type (0, 1), BuildingBlock: CIFDUS_clean_linker_0, # of connection points: 2
#     Edge 19, Type (0, 1), BuildingBlock: CIFDUS_clean_linker_0, # of connection points: 2
#     Edge 20, Type (0, 1), BuildingBlock: CIFDUS_clean_linker_0, # of connection points: 2
#     Edge 21, Type (0, 1), BuildingBlock: CIFDUS_clean_linker_0, # of connection points: 2
#     Edge 22, Type (0, 1), BuildingBlock: CIFDUS_clean_linker_0, # of connection points: 2
#     Edge 23, Type (0, 1), BuildingBlock: CIFDUS_clean_linker_0, # of connection points: 2
#     Edge 24, Type (0, 1), BuildingBlock: CIFDUS_clean_linker_0, # of connection points: 2
#     Edge 25, Type (0, 1), BuildingBlock: CIFDUS_clean_linker_0, # of connection points: 2
#     Edge 26, Type (0, 1), BuildingBlock: CIFDUS_clean_linker_0, # of connection points: 2
#     Edge 27, Type (0, 1), BuildingBlock: CIFDUS_clean_linker_0, # of connection points: 2
#     Edge 28, Type (0, 1), BuildingBlock: CIFDUS_clean_linker_0, # of connection points: 2
#     Edge 29, Type (0, 1), BuildingBlock: CIFDUS_clean_linker_0, # of connection points: 2
#     Edge 30, Type (0, 1), BuildingBlock: CIFDUS_clean_linker_0, # of connection points: 2
#     Edge 31, Type (0, 1), BuildingBlock: CIFDUS_clean_linker_0, # of connection points: 2
#     Edge 32, Type (0, 1), BuildingBlock: CIFDUS_clean_linker_0, # of connection points: 2
#     Edge 33, Type (0, 1), BuildingBlock: CIFDUS_clean_linker_0, # of connection points: 2
#     Edge 34, Type (0, 1), BuildingBlock: CIFDUS_clean_linker_0, # of connection points: 2
#     Edge 35, Type (0, 1), BuildingBlock: CIFDUS_clean_linker_0, # of connection points: 2
#     Edge 36, Type (0, 1), BuildingBlock: CIFDUS_clean_linker_0, # of connection points: 2
#     Edge 37, Type (0, 1), BuildingBlock: CIFDUS_clean_linker_0, # of connection points: 2
# Relax obj value: 0.010
# Max RMSD: 0.131
# Mean RMSD: 0.055
data_MOF--net-pto--node1-NAWXER_clean_sbu_0--node2-INOVEN_clean_linker_0--edge1-CIFDUS_clean_linker_0
_symmetry_space_group_name_H-M    P1
_symmetry_Int_Tables_number       1
_symmetry_cell_setting            triclinic
loop_
_symmetry_equiv_pos_as_xyz
'x, y, z'
_cell_length_a     37.00093
_cell_length_b     33.973353
_cell_length_c     33.027536
_cell_angle_alpha  108.95686
_cell_angle_beta   96.094918
_cell_angle_gamma 98.395865
loop_
_atom_site_label
_atom_site_type_symbol
_atom_site_fract_x
_atom_site_fract_y
_atom_site_fract_z
_atom_type_partial_charge
H0 H 0.24401 0.25805 0.46669 0.0
H1 H 0.34684 0.22443 0.43079 0.0
H2 H 0.29751 0.30877 0.37969 0.0
N3 N 0.23763 0.30778 0.41975 0.0
N4 N 0.23293 0.32234 0.38986 0.0
C5 C 0.26684 0.2607 0.44911 0.0
C6 C 0.29555 0.23838 0.45206 0.0
C7 C 0.26741 0.28631 0.42323 0.0
C8 C 0.2971 0.28958 0.40026 0.0
C9 C 0.32575 0.26719 0.40267 0.0
C10 C 0.32483 0.24195 0.42887 0.0
H11 H 0.24183 0.80739 0.86676 0.0
H12 H 0.32009 0.76388 0.94014 0.0
H13 H 0.35738 0.82979 0.85646 0.0
N14 N 0.28871 0.83848 0.82593 0.0
N15 N 0.31013 0.84395 0.80071 0.0
C16 C 0.27001 0.80468 0.87651 0.0
C17 C 0.27745 0.78388 0.90601 0.0
C18 C 0.29838 0.82075 0.85807 0.0
C19 C 0.33514 0.81744 0.87049 0.0
C20 C 0.34304 0.79717 0.90039 0.0
C21 C 0.31409 0.78046 0.91791 0.0
H22 H 0.8193 0.66599 0.3365 0.0
H23 H 0.85367 0.74389 0.4712 0.0
H24 H 0.7614 0.76445 0.39455 0.0
N25 N 0.76779 0.70687 0.31946 0.0
N26 N 0.75042 0.73343 0.31233 0.0
C27 C 0.81632 0.6918 0.36483 0.0
C28 C 0.83964 0.70145 0.40474 0.0
C29 C 0.78915 0.71548 0.36082 0.0
C30 C 0.78384 0.7479 0.39755 0.0
C31 C 0.80673 0.75858 0.43784 0.0
C32 C 0.83483 0.7352 0.44095 0.0
H33 H 0.81763 0.41641 0.04422 0.0
H34 H 0.86596 0.34179 0.93987 0.0
H35 H 0.76389 0.28803 0.96992 0.0
N36 N 0.75952 0.35899 0.03624 0.0
N37 N 0.73021 0.3325 0.02796 0.0
C38 C 0.8169 0.38698 0.01798 0.0
C39 C 0.84555 0.38298 0.9933 0.0
C40 C 0.7873 0.35323 0.00951 0.0
C41 C 0.78636 0.31454 0.97588 0.0
C42 C 0.81507 0.30973 0.95091 0.0
C43 C 0.84434 0.34441 0.95978 0.0
H44 H 0.76831 0.76473 0.85633 0.0
H45 H 0.8208 0.67071 0.88665 0.0
H46 H 0.87564 0.74942 0.82303 0.0
N47 N 0.82013 0.79453 0.82169 0.0
N48 N 0.84692 0.81337 0.81086 0.0
C49 C 0.7911 0.74777 0.85475 0.0
C50 C 0.79076 0.71606 0.87326 0.0
C51 C 0.82131 0.76002 0.83671 0.0
C52 C 0.8517 0.73948 0.83612 0.0
C53 C 0.85123 0.7063 0.85311 0.0
C54 C 0.82044 0.69447 0.87131 0.0
H55 H 0.74348 0.18701 0.38014 0.0
H56 H 0.78746 0.24614 0.29431 0.0
H57 H 0.85924 0.24124 0.40372 0.0
N58 N 0.80674 0.19604 0.43031 0.0
N59 N 0.83791 0.19766 0.45019 0.0
C60 C 0.76682 0.20338 0.37087 0.0
C61 C 0.76144 0.21601 0.33458 0.0
C62 C 0.80224 0.21106 0.39492 0.0
C63 C 0.83233 0.23341 0.38361 0.0
C64 C 0.8275 0.24686 0.34753 0.0
C65 C 0.7919 0.23689 0.32262 0.0
H66 H 0.28197 0.2763 0.83087 0.0
H67 H 0.35891 0.23171 0.90377 0.0
H68 H 0.30659 0.33493 0.96956 0.0
N69 N 0.26557 0.33431 0.8948 0.0
N70 N 0.25648 0.36158 0.92554 0.0
C71 C 0.29731 0.27864 0.8617 0.0
C72 C 0.32093 0.25034 0.86304 0.0
C73 C 0.29199 0.3091 0.89954 0.0
C74 C 0.31117 0.31192 0.93995 0.0
C75 C 0.33548 0.28381 0.94182 0.0
C76 C 0.3405 0.2536 0.90296 0.0
H77 H 0.28519 0.62283 0.22976 0.0
H78 H 0.24421 0.71659 0.32724 0.0
H79 H 0.3472 0.75078 0.28786 0.0
N80 N 0.34745 0.67403 0.22987 0.0
N81 N 0.378 0.69865 0.23881 0.0
C82 C 0.28793 0.65497 0.25201 0.0
C83 C 0.26076 0.66588 0.27837 0.0
C84 C 0.31951 0.68528 0.25565 0.0
C85 C 0.32333 0.72692 0.28525 0.0
C86 C 0.29631 0.73844 0.31102 0.0
C87 C 0.26511 0.70781 0.30715 0.0
C88 C 0.97479 0.42457 0.31496 0.0
C89 C 0.0819 0.53047 0.32049 0.0
O90 O 0.9889 0.44905 0.35364 0.0
Zn91 Zn 0.03188 0.50322 0.38519 0.0
O92 O 0.98753 0.43063 0.28278 0.0
Zn93 Zn 0.02674 0.47888 0.31594 0.0
O94 O 0.06258 0.45214 0.35088 0.0
O95 O 0.06278 0.48172 0.42123 0.0
O96 O 0.06182 0.50314 0.28648 0.0
O97 O 0.07309 0.53347 0.35781 0.0
O98 O 1.00502 0.54763 0.41177 0.0
O99 O 0.99698 0.52863 0.34047 0.0
C100 C 0.0742 0.45576 0.39017 0.0
C101 C 0.9906 0.55197 0.37716 0.0
C102 C 0.02335 0.53531 0.98522 0.0
C103 C 0.10878 0.63003 0.93964 0.0
O104 O 0.04034 0.57237 0.00889 0.0
Zn105 Zn 0.06656 0.58405 0.96459 0.0
O106 O 0.02724 0.52008 0.94544 0.0
Zn107 Zn 0.05563 0.53818 0.8999 0.0
O108 O 0.08644 0.49567 0.88429 0.0
O109 O 0.10184 0.53813 0.95259 0.0
O110 O 0.09333 0.59533 0.90909 0.0
O111 O 0.10189 0.63659 0.97798 0.0
O112 O 0.02272 0.59156 0.9215 0.0
O113 O 0.01467 0.53952 0.85835 0.0
C114 C 0.10685 0.50644 0.92115 0.0
C115 C 1.00548 0.57287 0.88254 0.0
C116 C 0.29927 0.94741 0.61886 0.0
C117 C 0.28362 0.04889 0.54437 0.0
O118 O 0.26843 0.95497 0.60522 0.0
Zn119 Zn 0.28856 0.99516 0.57848 0.0
O120 O 0.32946 0.966 0.61201 0.0
Zn121 Zn 0.34849 0.01111 0.58341 0.0
O122 O 0.37727 0.05744 0.63454 0.0
O123 O 0.31691 0.04598 0.6342 0.0
O124 O 0.31725 0.04579 0.55436 0.0
O125 O 0.25734 0.02434 0.55118 0.0
O126 O 0.31054 0.95742 0.526 0.0
O127 O 0.37129 0.97784 0.53649 0.0
C128 C 0.34939 0.06708 0.65252 0.0
C129 C 0.34172 0.95331 0.51325 0.0
C130 C 0.61754 0.73483 0.10892 0.0
C131 C 0.52298 0.73183 0.99289 0.0
O132 O 0.60378 0.69687 0.08303 0.0
Zn133 Zn 0.56326 0.66631 0.02409 0.0
O134 O 0.60705 0.76607 0.1012 0.0
Zn135 Zn 0.5725 0.73381 0.04941 0.0
O136 O 0.53218 0.70161 0.07554 0.0
O137 O 0.52642 0.63233 0.04381 0.0
O138 O 0.54403 0.76388 0.02145 0.0
O139 O 0.52769 0.6945 0.99051 0.0
O140 O 0.5931 0.63886 0.9816 0.0
O141 O 0.60837 0.70859 0.00578 0.0
C142 C 0.51713 0.66372 0.07125 0.0
C143 C 0.61393 0.67243 0.98233 0.0
C144 C 0.84999 1.00483 0.72306 0.0
C145 C 0.82962 0.09089 0.63132 0.0
O146 O 0.81603 0.00663 0.71274 0.0
Zn147 Zn 0.78333 0.03529 0.67738 0.0
O148 O 0.87532 0.02679 0.71179 0.0
Zn149 Zn 0.84223 0.05112 0.68045 0.0
O150 O 0.82031 0.09355 0.73132 0.0
O151 O 0.75985 0.07152 0.72089 0.0
O152 O 0.86087 0.08653 0.64771 0.0
O153 O 0.8 0.07362 0.64059 0.0
O154 O 0.75418 0.98502 0.63195 0.0
O155 O 0.81426 0.99422 0.62917 0.0
C156 C 0.78875 0.09806 0.74306 0.0
C157 C 0.78139 0.97255 0.61436 0.0
C158 C 0.56393 0.23561 0.23285 0.0
C159 C 0.46249 0.24848 0.13256 0.0
O160 O 0.54227 0.20546 0.20255 0.0
Zn161 Zn 0.51206 0.24002 0.18271 0.0
O162 O 0.56013 0.27401 0.23962 0.0
Zn163 Zn 0.52611 0.30796 0.21235 0.0
O164 O 0.50206 0.33619 0.26051 0.0
O165 O 0.48451 0.26654 0.23565 0.0
O166 O 0.4807 0.28424 0.15919 0.0
O167 O 0.47108 0.21428 0.13505 0.0
O168 O 0.54976 0.27086 0.15358 0.0
O169 O 0.56231 0.33981 0.18962 0.0
C170 C 0.48249 0.30291 0.26233 0.0
C171 C 0.56687 0.30804 0.15843 0.0
H172 H 0.18974 0.3562 0.44907 0.0
H173 H 0.21244 0.3391 0.31982 0.0
H174 H 0.16417 0.37808 0.30777 0.0
H175 H 0.11666 0.41749 0.33408 0.0
H176 H 0.095 0.43896 0.46457 0.0
H177 H 0.14188 0.39783 0.47634 0.0
C178 C 0.18384 0.36087 0.41828 0.0
C179 C 0.20414 0.34456 0.38489 0.0
C180 C 0.15647 0.3841 0.41199 0.0
C181 C 0.1968 0.35132 0.34552 0.0
C182 C 0.16934 0.37355 0.33873 0.0
C183 C 0.12193 0.41304 0.3651 0.0
C184 C 0.10216 0.43099 0.3983 0.0
C185 C 0.14911 0.39012 0.37173 0.0
C186 C 0.10984 0.42541 0.43847 0.0
C187 C 0.13659 0.40187 0.44516 0.0
H188 H 0.21312 0.73486 0.85779 0.0
H189 H 0.27341 0.78403 0.98853 0.0
H190 H 0.22482 0.74324 0.01184 0.0
H191 H 0.16686 0.68983 0.99357 0.0
H192 H 0.10878 0.63966 0.86162 0.0
H193 H 0.1544 0.68526 0.84052 0.0
C194 C 0.2153 0.73736 0.89159 0.0
C195 C 0.24673 0.76247 0.92139 0.0
C196 C 0.18765 0.71351 0.90452 0.0
C197 C 0.24953 0.76464 0.9649 0.0
C198 C 0.22175 0.74142 0.97824 0.0
C199 C 0.16402 0.68943 0.96041 0.0
C200 C 0.13466 0.66129 0.92917 0.0
C201 C 0.19092 0.71518 0.94815 0.0
C202 C 0.13136 0.66078 0.88619 0.0
C203 C 0.15741 0.68684 0.87405 0.0
H204 H 0.88402 0.67165 0.34543 0.0
H205 H 0.86192 0.67506 0.47211 0.0
H206 H 0.90851 0.6318 0.47638 0.0
H207 H 0.95338 0.58958 0.44228 0.0
H208 H 0.97205 0.58345 0.31374 0.0
H209 H 0.9287 0.63057 0.31194 0.0
C210 C 0.88905 0.66267 0.37387 0.0
C211 C 0.86915 0.67648 0.40823 0.0
C212 C 0.91528 0.63704 0.37574 0.0
C213 C 0.87695 0.66531 0.44527 0.0
C214 C 0.90346 0.64027 0.44764 0.0
C215 C 0.94817 0.59888 0.41408 0.0
C216 C 0.96591 0.58286 0.37817 0.0
C217 C 0.92255 0.62556 0.41286 0.0
C218 C 0.95865 0.59504 0.34174 0.0
C219 C 0.93384 0.62205 0.34065 0.0
H220 H 0.91894 0.38148 0.99941 0.0
H221 H 0.84139 0.46576 0.00641 0.0
H222 H 0.89179 0.52392 0.01311 0.0
H223 H 0.95671 0.54798 0.0072 0.0
H224 H 0.03285 0.4619 0.99516 0.0
H225 H 0.98461 0.40748 1.001 0.0
C226 C 0.91317 0.41267 0.00267 0.0
C227 C 0.87651 0.41921 0.00182 0.0
C228 C 0.94214 0.44569 0.00586 0.0
C229 C 0.86943 0.45996 0.00697 0.0
C230 C 0.89821 0.49318 0.01065 0.0
C231 C 0.96288 0.51783 0.00756 0.0
C232 C 0.99817 0.50889 0.00159 0.0
C233 C 0.93454 0.48613 0.00903 0.0
C234 C 1.00589 0.46941 1.00057 0.0
C235 C 0.97825 0.43822 0.00336 0.0
H236 H 0.24022 0.17438 0.44972 0.0
H237 H 0.35118 0.23938 0.5127 0.0
H238 H 0.35613 0.1873 0.54827 0.0
H239 H 0.33127 0.12088 0.55691 0.0
H240 H 0.22065 0.05397 0.49485 0.0
H241 H 0.21296 0.10943 0.46365 0.0
C242 C 0.26512 0.17745 0.47192 0.0
C243 C 0.29545 0.21041 0.47839 0.0
C244 C 0.26797 0.14688 0.49189 0.0
C245 C 0.32768 0.21402 0.50697 0.0
C246 C 0.33054 0.18425 0.52722 0.0
C247 C 0.30538 0.11831 0.53656 0.0
C248 C 0.2768 0.08299 0.5275 0.0
C249 C 0.30128 0.15005 0.51902 0.0
C250 C 0.24315 0.08073 0.502 0.0
C251 C 0.23881 0.11238 0.48416 0.0
H252 H 0.36657 0.72384 0.89178 0.0
H253 H 0.40447 0.85919 0.93749 0.0
H254 H 0.4654 0.85097 0.96741 0.0
H255 H 0.50552 0.80536 0.98641 0.0
H256 H 0.46694 0.66965 0.93911 0.0
H257 H 0.4089 0.67789 0.90355 0.0
C258 C 0.38841 0.75142 0.90786 0.0
C259 C 0.38119 0.79204 0.91295 0.0
C260 C 0.42313 0.74638 0.92485 0.0
C261 C 0.40961 0.82762 0.93329 0.0
C262 C 0.44429 0.82291 0.95054 0.0
C263 C 0.48464 0.77755 0.96781 0.0
C264 C 0.49051 0.73699 0.96597 0.0
C265 C 0.45107 0.78247 0.9474 0.0
C266 C 0.46322 0.70128 0.94134 0.0
C267 C 0.42987 0.70593 0.92107 0.0
H268 H 0.78309 0.83156 0.43804 0.0
H269 H 0.81822 0.76722 0.52444 0.0
H270 H 0.81123 0.82678 0.58655 0.0
H271 H 0.79729 0.89859 0.61667 0.0
H272 H 0.7576 0.95973 0.52995 0.0
H273 H 0.7624 0.89873 0.46721 0.0
C274 C 0.78833 0.82964 0.47018 0.0
C275 C 0.80141 0.79452 0.47605 0.0
C276 C 0.78287 0.86325 0.50573 0.0
C277 C 0.80901 0.79397 0.51855 0.0
C278 C 0.80458 0.82788 0.55422 0.0
C279 C 0.78876 0.89781 0.5839 0.0
C280 C 0.77651 0.93289 0.57749 0.0
C281 C 0.79176 0.86278 0.5482 0.0
C282 C 0.7663 0.93245 0.53526 0.0
C283 C 0.76948 0.89787 0.49956 0.0
H284 H 0.66547 0.28252 0.01171 0.0
H285 H 0.73423 0.3949 0.10622 0.0
H286 H 0.68764 0.39983 0.15412 0.0
H287 H 0.6286 0.36895 0.17106 0.0
H288 H 0.56109 0.25545 0.07589 0.0
H289 H 0.60531 0.25452 0.02631 0.0
C290 C 0.66989 0.30819 0.04269 0.0
C291 C 0.70297 0.33795 0.05548 0.0
C292 C 0.64315 0.31065 0.07 0.0
C293 C 0.70884 0.3714 0.09564 0.0
C294 C 0.68222 0.37424 0.12306 0.0
C295 C 0.6234 0.34452 0.1392 0.0
C296 C 0.5918 0.31217 0.12734 0.0
C297 C 0.64942 0.34366 0.11085 0.0
C298 C 0.58543 0.28049 0.08602 0.0
C299 C 0.6107 0.27984 0.05757 0.0
H300 H 0.34895 0.84905 0.74003 0.0
H301 H 0.24869 0.87719 0.78843 0.0
H302 H 0.23414 0.90813 0.73269 0.0
H303 H 0.2522 0.93112 0.67253 0.0
H304 H 0.35334 0.90328 0.62553 0.0
H305 H 0.36489 0.86768 0.67745 0.0
C306 C 0.32389 0.86186 0.73803 0.0
C307 C 0.30022 0.86116 0.76818 0.0
C308 C 0.31573 0.87944 0.70594 0.0
C309 C 0.26753 0.87752 0.76555 0.0
C310 C 0.25916 0.89516 0.73364 0.0
C311 C 0.2763 0.91646 0.67314 0.0
C312 C 0.30191 0.91993 0.64534 0.0
C313 C 0.28327 0.89669 0.70387 0.0
C314 C 0.33329 0.90123 0.64677 0.0
C315 C 0.34004 0.88099 0.67656 0.0
H316 H 0.72083 0.79081 0.29084 0.0
H317 H 0.7308 0.65957 0.24308 0.0
H318 H 0.69088 0.64888 0.17481 0.0
H319 H 0.65186 0.67669 0.12968 0.0
H320 H 0.64303 0.80872 0.17721 0.0
H321 H 0.68403 0.81946 0.2444 0.0
C322 C 0.71423 0.76001 0.26521 0.0
C323 C 0.72846 0.72618 0.27177 0.0
C324 C 0.69157 0.75429 0.22613 0.0
C325 C 0.72012 0.68618 0.23866 0.0
C326 C 0.69729 0.68007 0.1997 0.0
C327 C 0.659 0.70787 0.15465 0.0
C328 C 0.64421 0.7418 0.14846 0.0
C329 C 0.68267 0.71387 0.19321 0.0
C330 C 0.654 0.78205 0.18106 0.0
C331 C 0.67736 0.78821 0.21957 0.0
H332 H 0.75625 0.25502 0.89184 0.0
H333 H 0.87422 0.27178 0.93117 0.0
H334 H 0.8762 0.20808 0.87099 0.0
H335 H 0.84523 0.14886 0.80591 0.0
H336 H 0.72705 0.12948 0.76727 0.0
H337 H 0.72434 0.19239 0.82886 0.0
C338 C 0.78231 0.24445 0.88764 0.0
C339 C 0.81513 0.26878 0.9158 0.0
C340 C 0.78328 0.20727 0.85302 0.0
C341 C 0.84865 0.25448 0.90952 0.0
C342 C 0.84982 0.21781 0.87521 0.0
C343 C 0.81881 0.15828 0.81094 0.0
C344 C 0.78644 0.13463 0.78174 0.0
C345 C 0.81744 0.19428 0.84646 0.0
C346 C 0.75242 0.14709 0.78918 0.0
C347 C 0.75086 0.18315 0.82437 0.0
H348 H 0.36655 0.33608 0.39192 0.0
H349 H 0.35156 0.19979 0.35318 0.0
H350 H 0.39981 0.19949 0.3084 0.0
H351 H 0.44479 0.23708 0.27876 0.0
H352 H 0.46068 0.37326 0.31569 0.0
H353 H 0.41363 0.3745 0.36288 0.0
C354 C 0.37385 0.30638 0.37354 0.0
C355 C 0.35556 0.26801 0.37599 0.0
C356 C 0.40174 0.3064 0.34765 0.0
C357 C 0.36552 0.22978 0.35233 0.0
C358 C 0.39299 0.22955 0.32655 0.0
C359 C 0.43815 0.26718 0.29716 0.0
C360 C 0.45614 0.30502 0.29347 0.0
C361 C 0.41113 0.26758 0.32385 0.0
C362 C 0.44729 0.34366 0.31793 0.0
C363 C 0.42029 0.34435 0.34478 0.0
H364 H 0.8563 0.62279 0.82231 0.0
H365 H 0.92053 0.74791 0.89283 0.0
H366 H 0.97462 0.71758 0.90629 0.0
H367 H 1.00232 0.65544 0.90228 0.0
H368 H 0.94014 0.53007 0.82867 0.0
H369 H 0.88662 0.56034 0.81156 0.0
C370 C 0.88233 0.64325 0.84019 0.0
C371 C 0.88455 0.68745 0.85676 0.0
C372 C 0.91351 0.62555 0.84729 0.0
C373 C 0.91835 0.71383 0.87962 0.0
C374 C 0.94918 0.6965 0.88748 0.0
C375 C 0.97714 0.6348 0.88212 0.0
C376 C 0.9749 0.59064 0.86708 0.0
C377 C 0.94688 0.65243 0.8721 0.0
C378 C 0.94242 0.56419 0.8405 0.0
C379 C 0.91181 0.58148 0.83097 0.0
H380 H 0.82554 0.31051 0.3135 0.0
H381 H 0.90141 0.24213 0.35811 0.0
H382 H 0.95356 0.28985 0.34973 0.0
H383 H 0.97802 0.35428 0.33467 0.0
H384 H 0.90253 0.4189 0.28457 0.0
H385 H 0.84964 0.36828 0.28859 0.0
C386 C 0.85329 0.30504 0.32034 0.0
C387 C 0.85916 0.27291 0.33733 0.0
C388 C 0.8833 0.33188 0.31422 0.0
C389 C 0.89574 0.26726 0.34643 0.0
C390 C 0.92573 0.29434 0.34122 0.0
C391 C 0.94993 0.35646 0.32368 0.0
C392 C 0.94385 0.38976 0.30907 0.0
C393 C 0.91987 0.32723 0.32596 0.0
C394 C 0.90759 0.39297 0.29532 0.0
C395 C 0.87747 0.36431 0.298 0.0
H396 H 0.23449 0.42357 0.98431 0.0
H397 H 0.21565 0.35021 0.84764 0.0
H398 H 0.16759 0.3885 0.83445 0.0
H399 H 0.13037 0.44279 0.86147 0.0
H400 H 0.14935 0.51713 0.99808 0.0
H401 H 0.19747 0.47881 0.01139 0.0
C402 C 0.21981 0.41622 0.95175 0.0
C403 C 0.22873 0.38429 0.91728 0.0
C404 C 0.19208 0.43853 0.94424 0.0
C405 C 0.20953 0.37478 0.87497 0.0
C406 C 0.18191 0.39664 0.8673 0.0
C407 C 0.145 0.4506 0.89414 0.0
C408 C 0.13613 0.48281 0.92862 0.0
C409 C 0.17288 0.42855 0.90167 0.0
C410 C 0.15555 0.49255 0.97079 0.0
C411 C 0.18314 0.47061 0.97853 0.0
H412 H 0.23284 0.65585 0.34754 0.0
H413 H 0.21542 0.60426 0.20773 0.0
H414 H 0.1585 0.55705 0.20787 0.0
H415 H 0.11204 0.53303 0.24833 0.0
H416 H 0.1301 0.58879 0.38829 0.0
H417 H 0.18774 0.63248 0.38721 0.0
C418 C 0.21649 0.63454 0.31697 0.0
C419 C 0.22814 0.63407 0.27767 0.0
C420 C 0.18356 0.60854 0.3173 0.0
C421 C 0.20717 0.60523 0.23848 0.0
C422 C 0.17444 0.57851 0.23856 0.0
C423 C 0.12854 0.55484 0.27853 0.0
C424 C 0.11643 0.55761 0.3183 0.0
C425 C 0.16204 0.58033 0.27783 0.0
C426 C 0.13839 0.58595 0.35714 0.0
C427 C 0.17157 0.61097 0.35666 0.0
H428 H 0.8996 0.86182 0.78902 0.0
H429 H 0.78412 0.84436 0.80253 0.0
H430 H 0.77669 0.9042 0.77997 0.0
H431 H 0.80154 0.95992 0.75448 0.0
H432 H 0.91611 0.9789 0.73787 0.0
H433 H 0.92553 0.92085 0.7644 0.0
C434 C 0.87294 0.87133 0.78694 0.0
C435 C 0.8426 0.84845 0.79729 0.0
C436 C 0.86868 0.90622 0.77374 0.0
C437 C 0.80806 0.86111 0.7947 0.0
C438 C 0.80371 0.8955 0.78186 0.0
C439 C 0.82877 0.95175 0.75685 0.0
C440 C 0.85804 0.97375 0.74403 0.0
C441 C 0.83369 0.91808 0.77113 0.0
C442 C 0.89309 0.96264 0.74768 0.0
C443 C 0.8984 0.92923 0.76255 0.0
H444 H 0.70224 0.24504 0.36612 0.0
H445 H 0.73699 0.17333 0.2483 0.0
H446 H 0.67631 0.1678 0.20677 0.0
H447 H 0.6152 0.18886 0.20326 0.0
H448 H 0.58367 0.26741 0.32014 0.0
H449 H 0.6407 0.26434 0.36298 0.0
C450 C 0.69618 0.22765 0.33146 0.0
C451 C 0.72376 0.20941 0.31019 0.0
C452 C 0.66176 0.22592 0.30772 0.0
C453 C 0.71602 0.18758 0.2652 0.0
C454 C 0.6814 0.18445 0.24153 0.0
C455 C 0.62057 0.20439 0.23824 0.0
C456 C 0.59524 0.22782 0.25877 0.0
C457 C 0.65426 0.20416 0.2623 0.0
C458 C 0.60277 0.2489 0.30387 0.0
C459 C 0.63541 0.24733 0.32828 0.0
H460 H 0.38146 0.22342 0.82958 0.0
H461 H 0.26188 0.19704 0.80769 0.0
H462 H 0.2609 0.13841 0.74129 0.0
H463 H 0.29297 0.09551 0.68979 0.0
H464 H 0.41246 0.11929 0.70781 0.0
H465 H 0.4146 0.17836 0.77577 0.0
C466 C 0.35533 0.20462 0.81017 0.0
C467 C 0.32175 0.21472 0.82314 0.0
C468 C 0.35494 0.17077 0.77161 0.0
C469 C 0.28801 0.1903 0.7979 0.0
C470 C 0.28742 0.15668 0.76009 0.0
C471 C 0.31972 0.11332 0.70838 0.0
C472 C 0.35255 0.10285 0.69372 0.0
C473 C 0.32062 0.14683 0.74665 0.0
C474 C 0.38676 0.12669 0.71839 0.0
C475 C 0.38794 0.16039 0.75719 0.0
H476 H 0.37912 0.63421 0.16315 0.0
H477 H 0.44224 0.74922 0.25985 0.0
H478 H 0.49284 0.74668 0.21785 0.0
H479 H 0.51694 0.71528 0.1518 0.0
H480 H 0.4558 0.60017 0.05349 0.0
H481 H 0.4067 0.59857 0.09805 0.0
C482 C 0.40418 0.65826 0.17505 0.0
C483 C 0.40727 0.69221 0.21444 0.0
C484 C 0.43325 0.6566 0.15043 0.0
C485 C 0.43969 0.72309 0.22961 0.0
C486 C 0.46845 0.72167 0.20562 0.0
C487 C 0.49299 0.6896 0.1402 0.0
C488 C 0.48967 0.65821 0.09929 0.0
C489 C 0.46521 0.68911 0.16569 0.0
C490 C 0.45888 0.62471 0.08497 0.0
C491 C 0.43076 0.62398 0.11032 0.0
H492 H 0.78392 0.16923 0.48891 0.0
H493 H 0.90167 0.19105 0.49005 0.0
H494 H 0.91085 0.16134 0.54817 0.0
H495 H 0.88463 0.12651 0.59675 0.0
H496 H 0.76632 0.10605 0.59463 0.0
H497 H 0.75825 0.13797 0.53918 0.0
C498 C 0.81159 0.1676 0.50193 0.0
C499 C 0.84222 0.18196 0.48511 0.0
C500 C 0.81655 0.15065 0.53523 0.0
C501 C 0.87784 0.17997 0.50261 0.0
C502 C 0.88303 0.16299 0.53571 0.0
C503 C 0.85716 0.12936 0.58439 0.0
C504 C 0.8262 0.11357 0.59986 0.0
C505 C 0.85251 0.14784 0.55207 0.0
C506 C 0.79076 0.11764 0.58338 0.0
C507 C 0.78599 0.13591 0.5515 0.0
H508 H 0.34514 0.21661 0.96663 0.0
H509 H 0.37098 0.35335 0.01136 0.0
H510 H 0.41023 0.35437 0.07631 0.0
H511 H 0.44143 0.31624 0.11675 0.0
H512 H 0.41796 0.17928 0.06987 0.0
H513 H 0.37381 0.17857 0.00898 0.0
C514 C 0.3594 0.24669 0.99055 0.0
C515 C 0.35556 0.28487 0.98379 0.0
C516 C 0.3826 0.24696 0.02716 0.0
C517 C 0.37336 0.32355 0.01575 0.0
C518 C 0.39605 0.32411 0.05271 0.0
C519 C 0.42647 0.28615 0.09346 0.0
C520 C 0.43329 0.24781 0.09776 0.0
C521 C 0.40152 0.28597 0.05822 0.0
C522 C 0.41346 0.20923 0.0673 0.0
C523 C 0.38821 0.20881 0.03244 0.0
H524 H 0.359 0.78759 0.36611 0.0
H525 H 0.24378 0.78753 0.32737 0.0
H526 H 0.24897 0.85599 0.38438 0.0
H527 H 0.28457 0.91284 0.44823 0.0
H528 H 0.39977 0.91428 0.48803 0.0
H529 H 0.39658 0.84882 0.42658 0.0
C530 C 0.33522 0.80293 0.36964 0.0
C531 C 0.30087 0.78211 0.34289 0.0
C532 C 0.3384 0.84247 0.40256 0.0
C533 C 0.27029 0.80236 0.3481 0.0
C534 C 0.27328 0.84162 0.38053 0.0
C535 C 0.30916 0.89911 0.44328 0.0
C536 C 0.34225 0.91805 0.47291 0.0
C537 C 0.30693 0.86145 0.40847 0.0
C538 C 0.37397 0.90027 0.46566 0.0
C539 C 0.37206 0.86271 0.43072 0.0
H540 H 0.7388 0.64537 0.8632 0.0
H541 H 0.77843 0.77648 0.94327 0.0
H542 H 0.72776 0.77394 0.98434 0.0
H543 H 0.67093 0.73641 0.99519 0.0
H544 H 0.62908 0.60526 0.91664 0.0
H545 H 0.68181 0.60571 0.87724 0.0
C546 C 0.73641 0.67303 0.89002 0.0
C547 C 0.76204 0.71117 0.90015 0.0
C548 C 0.70669 0.6715 0.91335 0.0
C549 C 0.75879 0.74695 0.93482 0.0
C550 C 0.72983 0.74555 0.95822 0.0
C551 C 0.67312 0.7078 0.96938 0.0
C552 C 0.64579 0.67103 0.95849 0.0
C553 C 0.70331 0.70832 0.94727 0.0
C554 C 0.64962 0.63411 0.92549 0.0
C555 C 0.67978 0.63438 0.90299 0.0
loop_
_geom_bond_atom_site_label_1
_geom_bond_atom_site_label_2
_geom_bond_distance
_geom_bond_site_symmetry_2
_ccdc_geom_bond_type
H0 C5 0.929 . S
H1 C10 0.931 . S
H2 C8 0.930 . S
N3 N4 1.234 . S
N3 C7 1.453 . S
N4 N3 1.234 . S
C5 H0 0.929 . S
C5 C6 1.373 . S
C5 C7 1.368 . S
C6 C5 1.373 . S
C6 C10 1.397 . S
C7 N3 1.453 . S
C7 C5 1.368 . S
C7 C8 1.373 . S
C8 H2 0.930 . S
C8 C7 1.373 . S
C8 C9 1.371 . S
C9 C8 1.371 . S
C9 C10 1.383 . S
C10 H1 0.931 . S
C10 C6 1.397 . S
C10 C9 1.383 . S
H11 C16 0.929 . S
H12 C21 0.931 . S
H13 C19 0.930 . S
N14 N15 1.234 . S
N14 C18 1.453 . S
N15 N14 1.234 . S
C16 H11 0.929 . S
C16 C17 1.373 . S
C16 C18 1.368 . S
C17 C16 1.373 . S
C17 C21 1.397 . S
C18 N14 1.453 . S
C18 C16 1.368 . S
C18 C19 1.373 . S
C19 H13 0.930 . S
C19 C18 1.373 . S
C19 C20 1.371 . S
C20 C19 1.371 . S
C20 C21 1.383 . S
C21 H12 0.931 . S
C21 C17 1.397 . S
C21 C20 1.383 . S
H22 C27 0.929 . S
H23 C32 0.931 . S
H24 C30 0.930 . S
N25 N26 1.234 . S
N25 C29 1.453 . S
N26 N25 1.234 . S
C27 H22 0.929 . S
C27 C28 1.373 . S
C27 C29 1.368 . S
C28 C27 1.373 . S
C28 C32 1.397 . S
C29 N25 1.453 . S
C29 C27 1.368 . S
C29 C30 1.373 . S
C30 H24 0.930 . S
C30 C29 1.373 . S
C30 C31 1.371 . S
C31 C30 1.371 . S
C31 C32 1.383 . S
C32 H23 0.931 . S
C32 C28 1.397 . S
C32 C31 1.383 . S
H33 C38 0.929 1_554 S
H34 C43 0.931 . S
H35 C41 0.930 . S
N36 N37 1.234 . S
N36 C40 1.453 1_554 S
N37 N36 1.234 . S
C38 H33 0.929 1_556 S
C38 C39 1.373 . S
C38 C40 1.368 . S
C39 C38 1.373 . S
C39 C43 1.397 . S
C40 N36 1.453 1_556 S
C40 C38 1.368 . S
C40 C41 1.373 . S
C41 H35 0.930 . S
C41 C40 1.373 . S
C41 C42 1.371 . S
C42 C41 1.371 . S
C42 C43 1.383 . S
C43 H34 0.931 . S
C43 C39 1.397 . S
C43 C42 1.383 . S
H44 C49 0.929 . S
H45 C54 0.931 . S
H46 C52 0.930 . S
N47 N48 1.234 . S
N47 C51 1.453 . S
N48 N47 1.234 . S
C49 H44 0.929 . S
C49 C50 1.373 . S
C49 C51 1.368 . S
C50 C49 1.373 . S
C50 C54 1.397 . S
C51 N47 1.453 . S
C51 C49 1.368 . S
C51 C52 1.373 . S
C52 H46 0.930 . S
C52 C51 1.373 . S
C52 C53 1.371 . S
C53 C52 1.371 . S
C53 C54 1.383 . S
C54 H45 0.931 . S
C54 C50 1.397 . S
C54 C53 1.383 . S
H55 C60 0.929 . S
H56 C65 0.931 . S
H57 C63 0.930 . S
N58 N59 1.234 . S
N58 C62 1.453 . S
N59 N58 1.234 . S
C60 H55 0.929 . S
C60 C61 1.373 . S
C60 C62 1.368 . S
C61 C60 1.373 . S
C61 C65 1.397 . S
C62 N58 1.453 . S
C62 C60 1.368 . S
C62 C63 1.373 . S
C63 H57 0.930 . S
C63 C62 1.373 . S
C63 C64 1.371 . S
C64 C63 1.371 . S
C64 C65 1.383 . S
C65 H56 0.931 . S
C65 C61 1.397 . S
C65 C64 1.383 . S
H66 C71 0.929 . S
H67 C76 0.931 . S
H68 C74 0.930 . S
N69 N70 1.234 . S
N69 C73 1.453 . S
N70 N69 1.234 . S
C71 H66 0.929 . S
C71 C72 1.373 . S
C71 C73 1.368 . S
C72 C71 1.373 . S
C72 C76 1.397 . S
C73 N69 1.453 . S
C73 C71 1.368 . S
C73 C74 1.373 . S
C74 H68 0.930 . S
C74 C73 1.373 . S
C74 C75 1.371 . S
C75 C74 1.371 . S
C75 C76 1.383 . S
C76 H67 0.931 . S
C76 C72 1.397 . S
C76 C75 1.383 . S
H77 C82 0.929 . S
H78 C87 0.931 . S
H79 C85 0.930 . S
N80 N81 1.234 . S
N80 C84 1.453 . S
N81 N80 1.234 . S
C82 H77 0.929 . S
C82 C83 1.373 . S
C82 C84 1.368 . S
C83 C82 1.373 . S
C83 C87 1.397 . S
C84 N80 1.453 . S
C84 C82 1.368 . S
C84 C85 1.373 . S
C85 H79 0.930 . S
C85 C84 1.373 . S
C85 C86 1.371 . S
C86 C85 1.371 . S
C86 C87 1.383 . S
C87 H78 0.931 . S
C87 C83 1.397 . S
C87 C86 1.383 . S
C88 O90 1.247 1_655 S
C88 O92 1.258 . S
C89 O96 1.247 . S
C89 O97 1.258 . S
O90 C88 1.247 1_455 S
O90 Zn91 2.028 . S
Zn91 O90 2.028 . S
Zn91 O95 2.035 . S
Zn91 O97 2.035 . S
Zn91 O98 2.028 . S
O92 C88 1.258 . S
O92 Zn93 2.035 1_655 S
Zn93 O92 2.035 1_455 S
Zn93 O94 2.028 . S
Zn93 O96 2.028 . S
Zn93 O99 2.035 1_455 S
O94 Zn93 2.028 . S
O94 C100 1.247 . S
O95 Zn91 2.035 . S
O95 C100 1.258 . S
O96 C89 1.247 . S
O96 Zn93 2.028 . S
O97 C89 1.258 . S
O97 Zn91 2.035 . S
O98 Zn91 2.028 . S
O98 C101 1.247 1_455 S
O99 Zn93 2.035 1_655 S
O99 C101 1.258 . S
C100 O94 1.247 . S
C100 O95 1.258 . S
C101 O98 1.247 1_655 S
C101 O99 1.258 . S
C102 O104 1.247 1_656 S
C102 O106 1.258 . S
C103 O110 1.247 . S
C103 O111 1.258 . S
O104 C102 1.247 1_454 S
O104 Zn105 2.028 1_554 S
Zn105 O104 2.028 1_556 S
Zn105 O109 2.035 . S
Zn105 O111 2.035 . S
Zn105 O112 2.028 . S
O106 C102 1.258 . S
O106 Zn107 2.035 1_655 S
Zn107 O106 2.035 1_455 S
Zn107 O108 2.028 . S
Zn107 O110 2.028 . S
Zn107 O113 2.022 1_455 S
O108 Zn107 2.028 . S
O108 C114 1.247 . S
O109 Zn105 2.035 . S
O109 C114 1.258 . S
O110 C103 1.247 . S
O110 Zn107 2.028 . S
O111 C103 1.258 . S
O111 Zn105 2.035 . S
O112 Zn105 2.028 . S
O112 C115 1.247 1_455 S
O113 Zn107 2.022 1_655 S
O113 C115 1.264 . S
C114 O108 1.247 . S
C114 O109 1.258 . S
C115 O112 1.247 1_655 S
C115 O113 1.264 . S
C116 O118 1.247 . S
C116 O120 1.258 . S
C117 O124 1.247 . S
C117 O125 1.258 . S
O118 C116 1.247 . S
O118 Zn119 2.028 1_565 S
Zn119 O118 2.028 1_545 S
Zn119 O123 2.035 . S
Zn119 O125 2.035 . S
Zn119 O126 2.028 1_545 S
O120 C116 1.258 . S
O120 Zn121 2.035 1_565 S
Zn121 O120 2.035 1_545 S
Zn121 O122 2.028 . S
Zn121 O124 2.028 . S
Zn121 O127 2.035 1_545 S
O122 Zn121 2.028 . S
O122 C128 1.247 . S
O123 Zn119 2.035 . S
O123 C128 1.258 . S
O124 C117 1.247 . S
O124 Zn121 2.028 . S
O125 C117 1.258 . S
O125 Zn119 2.035 . S
O126 Zn119 2.028 1_565 S
O126 C129 1.247 . S
O127 Zn121 2.035 1_565 S
O127 C129 1.258 . S
C128 O122 1.247 . S
C128 O123 1.258 . S
C129 O126 1.247 . S
C129 O127 1.258 . S
C130 O132 1.247 . S
C130 O134 1.258 . S
C131 O138 1.247 . S
C131 O139 1.258 . S
O132 C130 1.247 . S
O132 Zn133 2.028 1_554 S
Zn133 O132 2.028 1_556 S
Zn133 O137 2.035 1_556 S
Zn133 O139 2.035 . S
Zn133 O140 2.028 . S
O134 C130 1.258 . S
O134 Zn135 2.035 . S
Zn135 O134 2.035 . S
Zn135 O136 2.028 . S
Zn135 O138 2.028 1_554 S
Zn135 O141 2.035 1_554 S
O136 Zn135 2.028 . S
O136 C142 1.247 . S
O137 Zn133 2.035 1_554 S
O137 C142 1.258 . S
O138 C131 1.247 . S
O138 Zn135 2.028 1_556 S
O139 C131 1.258 . S
O139 Zn133 2.035 . S
O140 Zn133 2.028 . S
O140 C143 1.247 . S
O141 Zn135 2.035 1_556 S
O141 C143 1.258 . S
C142 O136 1.247 . S
C142 O137 1.258 . S
C143 O140 1.247 . S
C143 O141 1.258 . S
C144 O146 1.247 . S
C144 O148 1.258 . S
C145 O152 1.247 . S
C145 O153 1.258 . S
O146 C144 1.247 . S
O146 Zn147 2.028 1_565 S
Zn147 O146 2.028 1_545 S
Zn147 O151 2.035 . S
Zn147 O153 2.035 . S
Zn147 O154 2.028 1_545 S
O148 C144 1.258 . S
O148 Zn149 2.035 1_565 S
Zn149 O148 2.035 1_545 S
Zn149 O150 2.028 . S
Zn149 O152 2.028 . S
Zn149 O155 2.035 1_545 S
O150 Zn149 2.028 . S
O150 C156 1.247 . S
O151 Zn147 2.035 . S
O151 C156 1.258 . S
O152 C145 1.247 . S
O152 Zn149 2.028 . S
O153 C145 1.258 . S
O153 Zn147 2.035 . S
O154 Zn147 2.028 1_565 S
O154 C157 1.247 . S
O155 Zn149 2.035 1_565 S
O155 C157 1.258 . S
C156 O150 1.247 . S
C156 O151 1.258 . S
C157 O154 1.247 . S
C157 O155 1.258 . S
C158 O160 1.247 . S
C158 O162 1.258 . S
C159 O166 1.247 . S
C159 O167 1.258 . S
O160 C158 1.247 . S
O160 Zn161 2.028 . S
Zn161 O160 2.028 . S
Zn161 O165 2.035 . S
Zn161 O167 2.035 . S
Zn161 O168 2.028 . S
O162 C158 1.258 . S
O162 Zn163 2.035 . S
Zn163 O162 2.035 . S
Zn163 O164 2.028 . S
Zn163 O166 2.028 . S
Zn163 O169 2.035 . S
O164 Zn163 2.028 . S
O164 C170 1.247 . S
O165 Zn161 2.035 . S
O165 C170 1.258 . S
O166 C159 1.247 . S
O166 Zn163 2.028 . S
O167 C159 1.258 . S
O167 Zn161 2.035 . S
O168 Zn161 2.028 . S
O168 C171 1.247 . S
O169 Zn163 2.035 . S
O169 C171 1.258 . S
C170 O164 1.247 . S
C170 O165 1.258 . S
C171 O168 1.247 . S
C171 O169 1.258 . S
H172 C178 0.930 . S
H173 C181 0.930 . S
H174 C182 0.930 . S
H175 C183 0.930 . S
H176 C186 0.930 . S
H177 C187 0.930 . S
C178 H172 0.930 . S
C178 C179 1.355 . S
C178 C180 1.415 . S
C179 C178 1.355 . S
C179 C181 1.419 . S
C180 C178 1.415 . S
C180 C185 1.425 . S
C180 C187 1.409 . S
C181 H173 0.930 . S
C181 C179 1.419 . S
C181 C182 1.362 . S
C182 H174 0.930 . S
C182 C181 1.362 . S
C182 C185 1.409 . S
C183 H175 0.930 . S
C183 C184 1.355 . S
C183 C185 1.415 . S
C184 C183 1.355 . S
C184 C186 1.419 . S
C185 C180 1.425 . S
C185 C182 1.409 . S
C185 C183 1.415 . S
C186 H176 0.930 . S
C186 C184 1.419 . S
C186 C187 1.362 . S
C187 H177 0.930 . S
C187 C180 1.409 . S
C187 C186 1.362 . S
H188 C194 0.930 . S
H189 C197 0.930 . S
H190 C198 0.930 . S
H191 C199 0.930 . S
H192 C202 0.930 . S
H193 C203 0.930 . S
C194 H188 0.930 . S
C194 C195 1.355 . S
C194 C196 1.415 . S
C195 C194 1.355 . S
C195 C197 1.419 . S
C196 C194 1.415 . S
C196 C201 1.425 . S
C196 C203 1.409 . S
C197 H189 0.930 . S
C197 C195 1.419 . S
C197 C198 1.362 . S
C198 H190 0.930 . S
C198 C197 1.362 . S
C198 C201 1.409 . S
C199 H191 0.930 . S
C199 C200 1.355 . S
C199 C201 1.415 . S
C200 C199 1.355 . S
C200 C202 1.419 . S
C201 C196 1.425 . S
C201 C198 1.409 . S
C201 C199 1.415 . S
C202 H192 0.930 . S
C202 C200 1.419 . S
C202 C203 1.362 . S
C203 H193 0.930 . S
C203 C196 1.409 . S
C203 C202 1.362 . S
H204 C210 0.930 . S
H205 C213 0.930 . S
H206 C214 0.930 . S
H207 C215 0.930 . S
H208 C218 0.930 . S
H209 C219 0.930 . S
C210 H204 0.930 . S
C210 C211 1.355 . S
C210 C212 1.415 . S
C211 C210 1.355 . S
C211 C213 1.419 . S
C212 C210 1.415 . S
C212 C217 1.425 . S
C212 C219 1.409 . S
C213 H205 0.930 . S
C213 C211 1.419 . S
C213 C214 1.362 . S
C214 H206 0.930 . S
C214 C213 1.362 . S
C214 C217 1.409 . S
C215 H207 0.930 . S
C215 C216 1.355 . S
C215 C217 1.415 . S
C216 C215 1.355 . S
C216 C218 1.419 . S
C217 C212 1.425 . S
C217 C214 1.409 . S
C217 C215 1.415 . S
C218 H208 0.930 . S
C218 C216 1.419 . S
C218 C219 1.362 . S
C219 H209 0.930 . S
C219 C212 1.409 . S
C219 C218 1.362 . S
H220 C226 0.930 . S
H221 C229 0.930 . S
H222 C230 0.930 . S
H223 C231 0.930 1_554 S
H224 C234 0.930 . S
H225 C235 0.930 . S
C226 H220 0.930 . S
C226 C227 1.355 . S
C226 C228 1.415 . S
C227 C226 1.355 . S
C227 C229 1.419 1_556 S
C228 C226 1.415 . S
C228 C233 1.425 . S
C228 C235 1.409 . S
C229 H221 0.930 . S
C229 C227 1.419 1_554 S
C229 C230 1.362 . S
C230 H222 0.930 . S
C230 C229 1.362 . S
C230 C233 1.409 1_554 S
C231 H223 0.930 1_556 S
C231 C232 1.355 . S
C231 C233 1.415 . S
C232 C231 1.355 . S
C232 C234 1.419 . S
C233 C228 1.425 . S
C233 C230 1.409 1_556 S
C233 C231 1.415 . S
C234 H224 0.930 . S
C234 C232 1.419 . S
C234 C235 1.362 . S
C235 H225 0.930 . S
C235 C228 1.409 . S
C235 C234 1.362 . S
H236 C242 0.930 . S
H237 C245 0.930 . S
H238 C246 0.930 . S
H239 C247 0.930 . S
H240 C250 0.930 . S
H241 C251 0.930 . S
C242 H236 0.930 . S
C242 C243 1.355 . S
C242 C244 1.415 . S
C243 C242 1.355 . S
C243 C245 1.419 . S
C244 C242 1.415 . S
C244 C249 1.425 . S
C244 C251 1.409 . S
C245 H237 0.930 . S
C245 C243 1.419 . S
C245 C246 1.362 . S
C246 H238 0.930 . S
C246 C245 1.362 . S
C246 C249 1.409 . S
C247 H239 0.930 . S
C247 C248 1.355 . S
C247 C249 1.415 . S
C248 C247 1.355 . S
C248 C250 1.419 . S
C249 C244 1.425 . S
C249 C246 1.409 . S
C249 C247 1.415 . S
C250 H240 0.930 . S
C250 C248 1.419 . S
C250 C251 1.362 . S
C251 H241 0.930 . S
C251 C244 1.409 . S
C251 C250 1.362 . S
H252 C258 0.930 . S
H253 C261 0.930 . S
H254 C262 0.930 . S
H255 C263 0.930 . S
H256 C266 0.930 . S
H257 C267 0.930 . S
C258 H252 0.930 . S
C258 C259 1.355 . S
C258 C260 1.415 . S
C259 C258 1.355 . S
C259 C261 1.419 . S
C260 C258 1.415 . S
C260 C265 1.425 . S
C260 C267 1.409 . S
C261 H253 0.930 . S
C261 C259 1.419 . S
C261 C262 1.362 . S
C262 H254 0.930 . S
C262 C261 1.362 . S
C262 C265 1.409 . S
C263 H255 0.930 . S
C263 C264 1.355 . S
C263 C265 1.415 . S
C264 C263 1.355 . S
C264 C266 1.419 . S
C265 C260 1.425 . S
C265 C262 1.409 . S
C265 C263 1.415 . S
C266 H256 0.930 . S
C266 C264 1.419 . S
C266 C267 1.362 . S
C267 H257 0.930 . S
C267 C260 1.409 . S
C267 C266 1.362 . S
H268 C274 0.930 . S
H269 C277 0.930 . S
H270 C278 0.930 . S
H271 C279 0.930 . S
H272 C282 0.930 . S
H273 C283 0.930 . S
C274 H268 0.930 . S
C274 C275 1.355 . S
C274 C276 1.415 . S
C275 C274 1.355 . S
C275 C277 1.419 . S
C276 C274 1.415 . S
C276 C281 1.425 . S
C276 C283 1.409 . S
C277 H269 0.930 . S
C277 C275 1.419 . S
C277 C278 1.362 . S
C278 H270 0.930 . S
C278 C277 1.362 . S
C278 C281 1.409 . S
C279 H271 0.930 . S
C279 C280 1.355 . S
C279 C281 1.415 . S
C280 C279 1.355 . S
C280 C282 1.419 . S
C281 C276 1.425 . S
C281 C278 1.409 . S
C281 C279 1.415 . S
C282 H272 0.930 . S
C282 C280 1.419 . S
C282 C283 1.362 . S
C283 H273 0.930 . S
C283 C276 1.409 . S
C283 C282 1.362 . S
H284 C290 0.930 . S
H285 C293 0.930 . S
H286 C294 0.930 . S
H287 C295 0.930 . S
H288 C298 0.930 . S
H289 C299 0.930 . S
C290 H284 0.930 . S
C290 C291 1.355 . S
C290 C292 1.415 . S
C291 C290 1.355 . S
C291 C293 1.419 . S
C292 C290 1.415 . S
C292 C297 1.425 . S
C292 C299 1.409 . S
C293 H285 0.930 . S
C293 C291 1.419 . S
C293 C294 1.362 . S
C294 H286 0.930 . S
C294 C293 1.362 . S
C294 C297 1.409 . S
C295 H287 0.930 . S
C295 C296 1.355 . S
C295 C297 1.415 . S
C296 C295 1.355 . S
C296 C298 1.419 . S
C297 C292 1.425 . S
C297 C294 1.409 . S
C297 C295 1.415 . S
C298 H288 0.930 . S
C298 C296 1.419 . S
C298 C299 1.362 . S
C299 H289 0.930 . S
C299 C292 1.409 . S
C299 C298 1.362 . S
H300 C306 0.930 . S
H301 C309 0.930 . S
H302 C310 0.930 . S
H303 C311 0.930 . S
H304 C314 0.930 . S
H305 C315 0.930 . S
C306 H300 0.930 . S
C306 C307 1.355 . S
C306 C308 1.415 . S
C307 C306 1.355 . S
C307 C309 1.419 . S
C308 C306 1.415 . S
C308 C313 1.425 . S
C308 C315 1.409 . S
C309 H301 0.930 . S
C309 C307 1.419 . S
C309 C310 1.362 . S
C310 H302 0.930 . S
C310 C309 1.362 . S
C310 C313 1.409 . S
C311 H303 0.930 . S
C311 C312 1.355 . S
C311 C313 1.415 . S
C312 C311 1.355 . S
C312 C314 1.419 . S
C313 C308 1.425 . S
C313 C310 1.409 . S
C313 C311 1.415 . S
C314 H304 0.930 . S
C314 C312 1.419 . S
C314 C315 1.362 . S
C315 H305 0.930 . S
C315 C308 1.409 . S
C315 C314 1.362 . S
H316 C322 0.930 . S
H317 C325 0.930 . S
H318 C326 0.930 . S
H319 C327 0.930 . S
H320 C330 0.930 . S
H321 C331 0.930 . S
C322 H316 0.930 . S
C322 C323 1.355 . S
C322 C324 1.415 . S
C323 C322 1.355 . S
C323 C325 1.419 . S
C324 C322 1.415 . S
C324 C329 1.425 . S
C324 C331 1.409 . S
C325 H317 0.930 . S
C325 C323 1.419 . S
C325 C326 1.362 . S
C326 H318 0.930 . S
C326 C325 1.362 . S
C326 C329 1.409 . S
C327 H319 0.930 . S
C327 C328 1.355 . S
C327 C329 1.415 . S
C328 C327 1.355 . S
C328 C330 1.419 . S
C329 C324 1.425 . S
C329 C326 1.409 . S
C329 C327 1.415 . S
C330 H320 0.930 . S
C330 C328 1.419 . S
C330 C331 1.362 . S
C331 H321 0.930 . S
C331 C324 1.409 . S
C331 C330 1.362 . S
H332 C338 0.930 . S
H333 C341 0.930 . S
H334 C342 0.930 . S
H335 C343 0.930 . S
H336 C346 0.930 . S
H337 C347 0.930 . S
C338 H332 0.930 . S
C338 C339 1.355 . S
C338 C340 1.415 . S
C339 C338 1.355 . S
C339 C341 1.419 . S
C340 C338 1.415 . S
C340 C345 1.425 . S
C340 C347 1.409 . S
C341 H333 0.930 . S
C341 C339 1.419 . S
C341 C342 1.362 . S
C342 H334 0.930 . S
C342 C341 1.362 . S
C342 C345 1.409 . S
C343 H335 0.930 . S
C343 C344 1.355 . S
C343 C345 1.415 . S
C344 C343 1.355 . S
C344 C346 1.419 . S
C345 C340 1.425 . S
C345 C342 1.409 . S
C345 C343 1.415 . S
C346 H336 0.930 . S
C346 C344 1.419 . S
C346 C347 1.362 . S
C347 H337 0.930 . S
C347 C340 1.409 . S
C347 C346 1.362 . S
H348 C354 0.930 . S
H349 C357 0.930 . S
H350 C358 0.930 . S
H351 C359 0.930 . S
H352 C362 0.930 . S
H353 C363 0.930 . S
C354 H348 0.930 . S
C354 C355 1.355 . S
C354 C356 1.415 . S
C355 C354 1.355 . S
C355 C357 1.419 . S
C356 C354 1.415 . S
C356 C361 1.425 . S
C356 C363 1.409 . S
C357 H349 0.930 . S
C357 C355 1.419 . S
C357 C358 1.362 . S
C358 H350 0.930 . S
C358 C357 1.362 . S
C358 C361 1.409 . S
C359 H351 0.930 . S
C359 C360 1.355 . S
C359 C361 1.415 . S
C360 C359 1.355 . S
C360 C362 1.419 . S
C361 C356 1.425 . S
C361 C358 1.409 . S
C361 C359 1.415 . S
C362 H352 0.930 . S
C362 C360 1.419 . S
C362 C363 1.362 . S
C363 H353 0.930 . S
C363 C356 1.409 . S
C363 C362 1.362 . S
H364 C370 0.930 . S
H365 C373 0.930 . S
H366 C374 0.930 . S
H367 C375 0.930 . S
H368 C378 0.930 . S
H369 C379 0.930 . S
C370 H364 0.930 . S
C370 C371 1.355 . S
C370 C372 1.415 . S
C371 C370 1.355 . S
C371 C373 1.419 . S
C372 C370 1.415 . S
C372 C377 1.425 . S
C372 C379 1.409 . S
C373 H365 0.930 . S
C373 C371 1.419 . S
C373 C374 1.362 . S
C374 H366 0.930 . S
C374 C373 1.362 . S
C374 C377 1.409 . S
C375 H367 0.930 . S
C375 C376 1.355 . S
C375 C377 1.415 . S
C376 C375 1.355 . S
C376 C378 1.419 . S
C377 C372 1.425 . S
C377 C374 1.409 . S
C377 C375 1.415 . S
C378 H368 0.930 . S
C378 C376 1.419 . S
C378 C379 1.362 . S
C379 H369 0.930 . S
C379 C372 1.409 . S
C379 C378 1.362 . S
H380 C386 0.930 . S
H381 C389 0.930 . S
H382 C390 0.930 . S
H383 C391 0.930 . S
H384 C394 0.930 . S
H385 C395 0.930 . S
C386 H380 0.930 . S
C386 C387 1.355 . S
C386 C388 1.415 . S
C387 C386 1.355 . S
C387 C389 1.419 . S
C388 C386 1.415 . S
C388 C393 1.425 . S
C388 C395 1.409 . S
C389 H381 0.930 . S
C389 C387 1.419 . S
C389 C390 1.362 . S
C390 H382 0.930 . S
C390 C389 1.362 . S
C390 C393 1.409 . S
C391 H383 0.930 . S
C391 C392 1.355 . S
C391 C393 1.415 . S
C392 C391 1.355 . S
C392 C394 1.419 . S
C393 C388 1.425 . S
C393 C390 1.409 . S
C393 C391 1.415 . S
C394 H384 0.930 . S
C394 C392 1.419 . S
C394 C395 1.362 . S
C395 H385 0.930 . S
C395 C388 1.409 . S
C395 C394 1.362 . S
H396 C402 0.930 . S
H397 C405 0.930 . S
H398 C406 0.930 . S
H399 C407 0.930 . S
H400 C410 0.929 1_554 S
H401 C411 0.930 . S
C402 H396 0.930 . S
C402 C403 1.355 . S
C402 C404 1.415 . S
C403 C402 1.355 . S
C403 C405 1.419 . S
C404 C402 1.415 . S
C404 C409 1.425 . S
C404 C411 1.409 1_556 S
C405 H397 0.930 . S
C405 C403 1.419 . S
C405 C406 1.362 . S
C406 H398 0.930 . S
C406 C405 1.362 . S
C406 C409 1.409 . S
C407 H399 0.930 . S
C407 C408 1.355 . S
C407 C409 1.415 . S
C408 C407 1.355 . S
C408 C410 1.420 . S
C409 C404 1.425 . S
C409 C406 1.409 . S
C409 C407 1.415 . S
C410 H400 0.929 1_556 S
C410 C408 1.420 . S
C410 C411 1.362 1_556 S
C411 H401 0.930 . S
C411 C404 1.409 1_554 S
C411 C410 1.362 1_554 S
H412 C418 0.930 . S
H413 C421 0.930 . S
H414 C422 0.930 . S
H415 C423 0.930 . S
H416 C426 0.930 . S
H417 C427 0.930 . S
C418 H412 0.930 . S
C418 C419 1.355 . S
C418 C420 1.415 . S
C419 C418 1.355 . S
C419 C421 1.419 . S
C420 C418 1.415 . S
C420 C425 1.425 . S
C420 C427 1.409 . S
C421 H413 0.930 . S
C421 C419 1.419 . S
C421 C422 1.362 . S
C422 H414 0.930 . S
C422 C421 1.362 . S
C422 C425 1.409 . S
C423 H415 0.930 . S
C423 C424 1.355 . S
C423 C425 1.415 . S
C424 C423 1.355 . S
C424 C426 1.419 . S
C425 C420 1.425 . S
C425 C422 1.409 . S
C425 C423 1.415 . S
C426 H416 0.930 . S
C426 C424 1.419 . S
C426 C427 1.362 . S
C427 H417 0.930 . S
C427 C420 1.409 . S
C427 C426 1.362 . S
H428 C434 0.930 . S
H429 C437 0.930 . S
H430 C438 0.930 . S
H431 C439 0.930 . S
H432 C442 0.930 . S
H433 C443 0.930 . S
C434 H428 0.930 . S
C434 C435 1.355 . S
C434 C436 1.415 . S
C435 C434 1.355 . S
C435 C437 1.419 . S
C436 C434 1.415 . S
C436 C441 1.425 . S
C436 C443 1.409 . S
C437 H429 0.930 . S
C437 C435 1.419 . S
C437 C438 1.362 . S
C438 H430 0.930 . S
C438 C437 1.362 . S
C438 C441 1.409 . S
C439 H431 0.930 . S
C439 C440 1.355 . S
C439 C441 1.415 . S
C440 C439 1.355 . S
C440 C442 1.419 . S
C441 C436 1.425 . S
C441 C438 1.409 . S
C441 C439 1.415 . S
C442 H432 0.930 . S
C442 C440 1.419 . S
C442 C443 1.362 . S
C443 H433 0.930 . S
C443 C436 1.409 . S
C443 C442 1.362 . S
H444 C450 0.930 . S
H445 C453 0.930 . S
H446 C454 0.930 . S
H447 C455 0.930 . S
H448 C458 0.930 . S
H449 C459 0.930 . S
C450 H444 0.930 . S
C450 C451 1.355 . S
C450 C452 1.415 . S
C451 C450 1.355 . S
C451 C453 1.419 . S
C452 C450 1.415 . S
C452 C457 1.425 . S
C452 C459 1.409 . S
C453 H445 0.930 . S
C453 C451 1.419 . S
C453 C454 1.362 . S
C454 H446 0.930 . S
C454 C453 1.362 . S
C454 C457 1.409 . S
C455 H447 0.930 . S
C455 C456 1.355 . S
C455 C457 1.415 . S
C456 C455 1.355 . S
C456 C458 1.419 . S
C457 C452 1.425 . S
C457 C454 1.409 . S
C457 C455 1.415 . S
C458 H448 0.930 . S
C458 C456 1.419 . S
C458 C459 1.362 . S
C459 H449 0.930 . S
C459 C452 1.409 . S
C459 C458 1.362 . S
H460 C466 0.930 . S
H461 C469 0.930 . S
H462 C470 0.930 . S
H463 C471 0.930 . S
H464 C474 0.930 . S
H465 C475 0.930 . S
C466 H460 0.930 . S
C466 C467 1.355 . S
C466 C468 1.415 . S
C467 C466 1.355 . S
C467 C469 1.419 . S
C468 C466 1.415 . S
C468 C473 1.425 . S
C468 C475 1.409 . S
C469 H461 0.930 . S
C469 C467 1.419 . S
C469 C470 1.362 . S
C470 H462 0.930 . S
C470 C469 1.362 . S
C470 C473 1.409 . S
C471 H463 0.930 . S
C471 C472 1.355 . S
C471 C473 1.415 . S
C472 C471 1.355 . S
C472 C474 1.419 . S
C473 C468 1.425 . S
C473 C470 1.409 . S
C473 C471 1.415 . S
C474 H464 0.930 . S
C474 C472 1.419 . S
C474 C475 1.362 . S
C475 H465 0.930 . S
C475 C468 1.409 . S
C475 C474 1.362 . S
H476 C482 0.930 . S
H477 C485 0.930 . S
H478 C486 0.930 . S
H479 C487 0.930 . S
H480 C490 0.930 . S
H481 C491 0.930 . S
C482 H476 0.930 . S
C482 C483 1.355 . S
C482 C484 1.415 . S
C483 C482 1.355 . S
C483 C485 1.419 . S
C484 C482 1.415 . S
C484 C489 1.425 . S
C484 C491 1.409 . S
C485 H477 0.930 . S
C485 C483 1.419 . S
C485 C486 1.362 . S
C486 H478 0.930 . S
C486 C485 1.362 . S
C486 C489 1.409 . S
C487 H479 0.930 . S
C487 C488 1.355 . S
C487 C489 1.415 . S
C488 C487 1.355 . S
C488 C490 1.419 . S
C489 C484 1.425 . S
C489 C486 1.409 . S
C489 C487 1.415 . S
C490 H480 0.930 . S
C490 C488 1.419 . S
C490 C491 1.362 . S
C491 H481 0.930 . S
C491 C484 1.409 . S
C491 C490 1.362 . S
H492 C498 0.930 . S
H493 C501 0.930 . S
H494 C502 0.930 . S
H495 C503 0.930 . S
H496 C506 0.930 . S
H497 C507 0.930 . S
C498 H492 0.930 . S
C498 C499 1.355 . S
C498 C500 1.415 . S
C499 C498 1.355 . S
C499 C501 1.419 . S
C500 C498 1.415 . S
C500 C505 1.425 . S
C500 C507 1.409 . S
C501 H493 0.930 . S
C501 C499 1.419 . S
C501 C502 1.362 . S
C502 H494 0.930 . S
C502 C501 1.362 . S
C502 C505 1.409 . S
C503 H495 0.930 . S
C503 C504 1.355 . S
C503 C505 1.415 . S
C504 C503 1.355 . S
C504 C506 1.419 . S
C505 C500 1.425 . S
C505 C502 1.409 . S
C505 C503 1.415 . S
C506 H496 0.930 . S
C506 C504 1.419 . S
C506 C507 1.362 . S
C507 H497 0.930 . S
C507 C500 1.409 . S
C507 C506 1.362 . S
H508 C514 0.930 . S
H509 C517 0.930 1_556 S
H510 C518 0.930 . S
H511 C519 0.930 . S
H512 C522 0.930 . S
H513 C523 0.930 . S
C514 H508 0.930 . S
C514 C515 1.355 . S
C514 C516 1.415 . S
C515 C514 1.355 . S
C515 C517 1.419 . S
C516 C514 1.415 . S
C516 C521 1.425 . S
C516 C523 1.409 . S
C517 H509 0.930 1_554 S
C517 C515 1.419 . S
C517 C518 1.362 . S
C518 H510 0.930 . S
C518 C517 1.362 . S
C518 C521 1.409 . S
C519 H511 0.930 . S
C519 C520 1.355 . S
C519 C521 1.415 . S
C520 C519 1.355 . S
C520 C522 1.419 . S
C521 C516 1.425 . S
C521 C518 1.409 . S
C521 C519 1.415 . S
C522 H512 0.930 . S
C522 C520 1.419 . S
C522 C523 1.362 . S
C523 H513 0.930 . S
C523 C516 1.409 . S
C523 C522 1.362 . S
H524 C530 0.930 . S
H525 C533 0.930 . S
H526 C534 0.930 . S
H527 C535 0.930 . S
H528 C538 0.930 . S
H529 C539 0.930 . S
C530 H524 0.930 . S
C530 C531 1.355 . S
C530 C532 1.415 . S
C531 C530 1.355 . S
C531 C533 1.419 . S
C532 C530 1.415 . S
C532 C537 1.425 . S
C532 C539 1.409 . S
C533 H525 0.930 . S
C533 C531 1.419 . S
C533 C534 1.362 . S
C534 H526 0.930 . S
C534 C533 1.362 . S
C534 C537 1.409 . S
C535 H527 0.930 . S
C535 C536 1.355 . S
C535 C537 1.415 . S
C536 C535 1.355 . S
C536 C538 1.419 . S
C537 C532 1.425 . S
C537 C534 1.409 . S
C537 C535 1.415 . S
C538 H528 0.930 . S
C538 C536 1.419 . S
C538 C539 1.362 . S
C539 H529 0.930 . S
C539 C532 1.409 . S
C539 C538 1.362 . S
H540 C546 0.930 . S
H541 C549 0.930 . S
H542 C550 0.930 . S
H543 C551 0.930 . S
H544 C554 0.930 . S
H545 C555 0.930 . S
C546 H540 0.930 . S
C546 C547 1.355 . S
C546 C548 1.415 . S
C547 C546 1.355 . S
C547 C549 1.419 . S
C548 C546 1.415 . S
C548 C553 1.425 . S
C548 C555 1.409 . S
C549 H541 0.930 . S
C549 C547 1.419 . S
C549 C550 1.362 . S
C550 H542 0.930 . S
C550 C549 1.362 . S
C550 C553 1.409 . S
C551 H543 0.930 . S
C551 C552 1.355 . S
C551 C553 1.415 . S
C552 C551 1.355 . S
C552 C554 1.419 . S
C553 C548 1.425 . S
C553 C550 1.409 . S
C553 C551 1.415 . S
C554 H544 0.930 . S
C554 C552 1.419 . S
C554 C555 1.362 . S
C555 H545 0.930 . S
C555 C548 1.409 . S
C555 C554 1.362 . S
C184 C100 1.503 . S
C179 N4 1.482 . S
C200 C103 1.643 . S
C195 C17 1.651 . S
C216 C101 1.410 . S
C211 C28 1.427 . S
C232 C102 1.473 . S
C227 C39 1.515 . S
C248 C117 1.698 . S
C243 C6 1.717 . S
C264 C131 1.650 . S
C259 C20 1.620 . S
C275 C31 1.573 . S
C280 C157 1.583 . S
C296 C171 1.410 . S
C291 N37 1.420 . S
C312 C116 1.640 . S
C307 N15 1.609 . S
C323 N26 1.466 . S
C328 C130 1.416 . S
C344 C156 1.568 . S
C339 C42 1.545 . S
C360 C170 1.563 . S
C355 C9 1.549 . S
C371 C53 1.718 . S
C376 C115 1.707 . S
C392 C88 1.590 . S
C387 C64 1.575 . S
C403 N70 1.566 . S
C408 C114 1.567 . S
C419 C83 1.540 . S
C424 C89 1.546 . S
C440 C144 1.500 . S
C435 N48 1.485 . S
C456 C158 1.567 . S
C451 C61 1.571 . S
C472 C128 1.590 . S
C467 C72 1.591 . S
C483 N81 1.587 . S
C488 C142 1.608 . S
C504 C145 1.519 . S
C499 N59 1.500 . S
C520 C159 1.606 . S
C515 C75 1.579 1_554 S
C536 C129 1.597 . S
C531 C86 1.601 . S
C547 C50 1.683 . S
C552 C143 1.682 . S
