# Generated by pormake.
# Topology wbl, (4,4)-cn, num edge types: 1
# Building blocks:
#     Node 0, Type 0, BuildingBlock: MUDLON_clean_linker_0, # of connection points: 4
#     Node 1, Type 0, BuildingBlock: MUDLON_clean_linker_0, # of connection points: 4
#     Node 2, Type 0, BuildingBlock: MUDLON_clean_linker_0, # of connection points: 4
#     Node 3, Type 0, BuildingBlock: MUDLON_clean_linker_0, # of connection points: 4
#     Node 4, Type 0, BuildingBlock: MUDLON_clean_linker_0, # of connection points: 4
#     Node 5, Type 0, BuildingBlock: MUDLON_clean_linker_0, # of connection points: 4
#     Node 6, Type 0, BuildingBlock: MUDLON_clean_linker_0, # of connection points: 4
#     Node 7, Type 0, BuildingBlock: MUDLON_clean_linker_0, # of connection points: 4
#     Node 8, Type 1, BuildingBlock: GALJAG_clean_sbu_0, # of connection points: 4
#     Node 9, Type 1, BuildingBlock: GALJAG_clean_sbu_0, # of connection points: 4
#     Node 10, Type 1, BuildingBlock: GALJAG_clean_sbu_0, # of connection points: 4
#     Node 11, Type 1, BuildingBlock: GALJAG_clean_sbu_0, # of connection points: 4
#     Node 12, Type 1, BuildingBlock: GALJAG_clean_sbu_0, # of connection points: 4
#     Node 13, Type 1, BuildingBlock: GALJAG_clean_sbu_0, # of connection points: 4
#     Node 14, Type 1, BuildingBlock: GALJAG_clean_sbu_0, # of connection points: 4
#     Node 15, Type 1, BuildingBlock: GALJAG_clean_sbu_0, # of connection points: 4
#     Edge 16, Type (0, 1), BuildingBlock: EZIPEK_clean_linker_0, # of connection points: 2
#     Edge 17, Type (0, 1), BuildingBlock: EZIPEK_clean_linker_0, # of connection points: 2
#     Edge 18, Type (0, 1), BuildingBlock: EZIPEK_clean_linker_0, # of connection points: 2
#     Edge 19, Type (0, 1), BuildingBlock: EZIPEK_clean_linker_0, # of connection points: 2
#     Edge 20, Type (0, 1), BuildingBlock: EZIPEK_clean_linker_0, # of connection points: 2
#     Edge 21, Type (0, 1), BuildingBlock: EZIPEK_clean_linker_0, # of connection points: 2
#     Edge 22, Type (0, 1), BuildingBlock: EZIPEK_clean_linker_0, # of connection points: 2
#     Edge 23, Type (0, 1), BuildingBlock: EZIPEK_clean_linker_0, # of connection points: 2
#     Edge 24, Type (0, 1), BuildingBlock: EZIPEK_clean_linker_0, # of connection points: 2
#     Edge 25, Type (0, 1), BuildingBlock: EZIPEK_clean_linker_0, # of connection points: 2
#     Edge 26, Type (0, 1), BuildingBlock: EZIPEK_clean_linker_0, # of connection points: 2
#     Edge 27, Type (0, 1), BuildingBlock: EZIPEK_clean_linker_0, # of connection points: 2
#     Edge 28, Type (0, 1), BuildingBlock: EZIPEK_clean_linker_0, # of connection points: 2
#     Edge 29, Type (0, 1), BuildingBlock: EZIPEK_clean_linker_0, # of connection points: 2
#     Edge 30, Type (0, 1), BuildingBlock: EZIPEK_clean_linker_0, # of connection points: 2
#     Edge 31, Type (0, 1), BuildingBlock: EZIPEK_clean_linker_0, # of connection points: 2
#     Edge 32, Type (0, 1), BuildingBlock: EZIPEK_clean_linker_0, # of connection points: 2
#     Edge 33, Type (0, 1), BuildingBlock: EZIPEK_clean_linker_0, # of connection points: 2
#     Edge 34, Type (0, 1), BuildingBlock: EZIPEK_clean_linker_0, # of connection points: 2
#     Edge 35, Type (0, 1), BuildingBlock: EZIPEK_clean_linker_0, # of connection points: 2
#     Edge 36, Type (0, 1), BuildingBlock: EZIPEK_clean_linker_0, # of connection points: 2
#     Edge 37, Type (0, 1), BuildingBlock: EZIPEK_clean_linker_0, # of connection points: 2
#     Edge 38, Type (0, 1), BuildingBlock: EZIPEK_clean_linker_0, # of connection points: 2
#     Edge 39, Type (0, 1), BuildingBlock: EZIPEK_clean_linker_0, # of connection points: 2
#     Edge 40, Type (0, 1), BuildingBlock: EZIPEK_clean_linker_0, # of connection points: 2
#     Edge 41, Type (0, 1), BuildingBlock: EZIPEK_clean_linker_0, # of connection points: 2
#     Edge 42, Type (0, 1), BuildingBlock: EZIPEK_clean_linker_0, # of connection points: 2
#     Edge 43, Type (0, 1), BuildingBlock: EZIPEK_clean_linker_0, # of connection points: 2
#     Edge 44, Type (0, 1), BuildingBlock: EZIPEK_clean_linker_0, # of connection points: 2
#     Edge 45, Type (0, 1), BuildingBlock: EZIPEK_clean_linker_0, # of connection points: 2
#     Edge 46, Type (0, 1), BuildingBlock: EZIPEK_clean_linker_0, # of connection points: 2
#     Edge 47, Type (0, 1), BuildingBlock: EZIPEK_clean_linker_0, # of connection points: 2
# Relax obj value: 0.114
# Max RMSD: 0.157
# Mean RMSD: 0.142
data_MOF--net-wbl--node1-GALJAG_clean_sbu_0--node2-MUDLON_clean_linker_0--edge1-EZIPEK_clean_linker_0
_symmetry_space_group_name_H-M    P1
_symmetry_Int_Tables_number       1
_symmetry_cell_setting            triclinic
loop_
_symmetry_equiv_pos_as_xyz
'x, y, z'
_cell_length_a     42.089015
_cell_length_b     42.203787
_cell_length_c     68.014394
_cell_angle_alpha  89.999293
_cell_angle_beta   90.043328
_cell_angle_gamma 90.095243
loop_
_atom_site_label
_atom_site_type_symbol
_atom_site_fract_x
_atom_site_fract_y
_atom_site_fract_z
_atom_type_partial_charge
H0 H 0.12875 0.93036 0.35092 0.0
N1 N 0.07532 0.91338 0.33046 0.0
H2 H 0.14135 0.91589 0.385 0.0
H3 H 0.03759 0.88439 0.35626 0.0
H4 H 0.04966 0.87103 0.39067 0.0
H5 H 0.10277 0.8567 0.32748 0.0
H6 H 0.15082 0.84259 0.30919 0.0
H7 H 0.1064 0.95076 0.30222 0.0
H8 H 0.15401 0.93626 0.28418 0.0
H9 H 0.0971 0.97419 0.33463 0.0
H10 H 0.01436 0.91823 0.32126 0.0
H11 H 0.06616 0.02241 0.33155 0.0
H12 H 0.98193 0.96573 0.32061 0.0
H13 H 0.92681 0.16399 0.3509 0.0
H14 H 0.90939 0.1734 0.38486 0.0
H15 H 0.91966 0.07378 0.39749 0.0
H16 H 0.93408 0.06389 0.3633 0.0
H17 H 0.88073 0.08208 0.3389 0.0
H18 H 0.83264 0.09537 0.32045 0.0
H19 H 0.88799 0.15395 0.28133 0.0
H20 H 0.93602 0.14223 0.3007 0.0
H21 H 0.99867 0.10152 0.34727 0.0
H22 H 0.03235 0.05528 0.34538 0.0
H23 H 0.96316 0.00985 0.30745 0.0
N24 N 0.9397 0.10855 0.33386 0.0
H25 H 0.92814 0.0545 0.31151 0.0
C26 C 0.08236 0.90788 0.35098 0.0
C27 C 0.11131 0.91752 0.35949 0.0
C28 C 0.11848 0.90933 0.37892 0.0
C29 C 0.09654 0.89214 0.39026 0.0
C30 C 0.06696 0.88408 0.38209 0.0
C31 C 0.06009 0.89168 0.36255 0.0
C32 C 0.10123 0.90522 0.31721 0.0
C33 C 0.1136 0.87426 0.31799 0.0
C34 C 0.14094 0.86613 0.30755 0.0
C35 C 0.15609 0.88857 0.29563 0.0
C36 C 0.14273 0.91879 0.29354 0.0
C37 C 0.11553 0.92711 0.30418 0.0
C38 C 0.0582 0.94261 0.32747 0.0
C39 C 0.07215 0.97237 0.33092 0.0
C40 C 0.05403 1.00004 0.32954 0.0
C41 C 0.02101 0.99865 0.3259 0.0
C42 C 0.00722 0.96854 0.3228 0.0
C43 C 0.02569 0.94105 0.32332 0.0
C44 C 0.93232 0.11346 0.35448 0.0
C45 C 0.92542 0.14423 0.36102 0.0
C46 C 0.91553 0.14957 0.38035 0.0
C47 C 0.91336 0.1243 0.39371 0.0
C48 C 0.92122 0.09361 0.38742 0.0
C49 C 0.92975 0.08806 0.36789 0.0
C50 C 0.91195 0.11186 0.32143 0.0
C51 C 0.88262 0.0978 0.32639 0.0
C52 C 0.85518 0.1053 0.31582 0.0
C53 C 0.85664 0.12606 0.2997 0.0
C54 C 0.88628 0.13823 0.29388 0.0
C55 C 0.91363 0.13145 0.30482 0.0
C56 C 0.96049 0.08179 0.32994 0.0
C57 C 0.99078 0.08149 0.33857 0.0
C58 C 0.01031 0.05486 0.33723 0.0
C59 C 1.00083 0.02802 0.32634 0.0
C60 C 0.97121 0.0292 0.31661 0.0
C61 C 0.95105 0.05535 0.31868 0.0
H62 H 0.91631 0.37659 0.59963 0.0
N63 N 0.90126 0.43179 0.5803 0.0
H64 H 0.90167 0.36245 0.63322 0.0
H65 H 0.8711 0.4676 0.60664 0.0
H66 H 0.85743 0.45371 0.6408 0.0
H67 H 0.84463 0.41611 0.56608 0.0
H68 H 0.83056 0.36808 0.54758 0.0
H69 H 0.94355 0.38962 0.56366 0.0
H70 H 0.92949 0.34226 0.54486 0.0
H71 H 0.96035 0.41868 0.59541 0.0
H72 H 0.90811 0.48493 0.55966 0.0
H73 H 0.00716 0.45234 0.59354 0.0
H74 H 0.95555 0.51835 0.55691 0.0
H75 H 0.15309 0.56392 0.59606 0.0
H76 H 0.17034 0.5781 0.62954 0.0
H77 H 0.07385 0.60193 0.64458 0.0
H78 H 0.05663 0.58802 0.6114 0.0
H79 H 0.07474 0.63032 0.5872 0.0
H80 H 0.08847 0.6767 0.56751 0.0
H81 H 0.1357 0.61672 0.52538 0.0
H82 H 0.12334 0.57008 0.54577 0.0
H83 H 0.09453 0.50683 0.57633 0.0
H84 H 0.04836 0.47187 0.57346 0.0
H85 H 0.98646 0.55342 0.57643 0.0
N86 N 0.09511 0.56925 0.5808 0.0
H87 H 0.03281 0.58807 0.57836 0.0
C88 C 0.89426 0.42313 0.60043 0.0
C89 C 0.90323 0.39358 0.60833 0.0
C90 C 0.895 0.38549 0.62755 0.0
C91 C 0.87824 0.40692 0.6394 0.0
C92 C 0.87013 0.43677 0.6318 0.0
C93 C 0.87793 0.44469 0.61241 0.0
C94 C 0.89503 0.40676 0.56626 0.0
C95 C 0.86335 0.40052 0.56105 0.0
C96 C 0.85533 0.37316 0.55058 0.0
C97 C 0.87899 0.35167 0.54493 0.0
C98 C 0.91094 0.35868 0.54907 0.0
C99 C 0.91893 0.38587 0.55976 0.0
C100 C 0.93043 0.44949 0.57782 0.0
C101 C 0.95901 0.44032 0.58693 0.0
C102 C 0.986 0.45956 0.58568 0.0
C103 C 0.98525 0.48827 0.57513 0.0
C104 C 0.95692 0.49676 0.56546 0.0
C105 C 0.92985 0.47757 0.56685 0.0
C106 C 0.10365 0.57464 0.60113 0.0
C107 C 0.13562 0.57168 0.60669 0.0
C108 C 0.14542 0.57976 0.6257 0.0
C109 C 0.12329 0.59096 0.63943 0.0
C110 C 0.09117 0.59315 0.63415 0.0
C111 C 0.08138 0.58509 0.61517 0.0
C112 C 0.09866 0.59657 0.56817 0.0
C113 C 0.08803 0.62689 0.57378 0.0
C114 C 0.09578 0.65346 0.5625 0.0
C115 C 0.11353 0.65022 0.54514 0.0
C116 C 0.12232 0.61977 0.53884 0.0
C117 C 0.11518 0.59323 0.55039 0.0
C118 C 0.06723 0.54994 0.57765 0.0
C119 C 0.07095 0.51708 0.57608 0.0
C120 C 0.04449 0.49715 0.57463 0.0
C121 C 0.01353 0.50969 0.57492 0.0
C122 C 0.00987 0.54284 0.57593 0.0
C123 C 0.03642 0.56278 0.57718 0.0
H124 H 0.63552 0.42661 0.85159 0.0
N125 N 0.57892 0.41685 0.83211 0.0
H126 H 0.64781 0.41105 0.88528 0.0
H127 H 0.53978 0.39159 0.85857 0.0
H128 H 0.55176 0.37755 0.89291 0.0
H129 H 0.5873 0.36073 0.81533 0.0
H130 H 0.63296 0.3433 0.79558 0.0
H131 H 0.62649 0.45522 0.81745 0.0
H132 H 0.67187 0.43775 0.79786 0.0
H133 H 0.59675 0.47591 0.84472 0.0
H134 H 0.52333 0.42425 0.81428 0.0
H135 H 0.56514 0.5242 0.84269 0.0
H136 H 0.49078 0.47217 0.81286 0.0
H137 H 0.44513 0.66646 0.84975 0.0
H138 H 0.42691 0.68094 0.88295 0.0
H139 H 0.39366 0.58538 0.89201 0.0
H140 H 0.41214 0.57081 0.85905 0.0
H141 H 0.3923 0.56753 0.8274 0.0
H142 H 0.34741 0.57247 0.80611 0.0
H143 H 0.38338 0.66281 0.78571 0.0
H144 H 0.42799 0.65742 0.80765 0.0
H145 H 0.48444 0.59074 0.85922 0.0
H146 H 0.51912 0.54525 0.8576 0.0
H147 H 0.48462 0.52419 0.79923 0.0
N148 N 0.44073 0.6102 0.83223 0.0
H149 H 0.44896 0.56906 0.80098 0.0
C150 C 0.58677 0.40947 0.8523 0.0
C151 C 0.61708 0.4156 0.86027 0.0
C152 C 0.6241 0.40692 0.87961 0.0
C153 C 0.60079 0.39287 0.89151 0.0
C154 C 0.57015 0.38808 0.88388 0.0
C155 C 0.56334 0.39604 0.86437 0.0
C156 C 0.60325 0.40918 0.8179 0.0
C157 C 0.60526 0.37785 0.81113 0.0
C158 C 0.63122 0.36793 0.79993 0.0
C159 C 0.65568 0.38928 0.79534 0.0
C160 C 0.65308 0.42102 0.80122 0.0
C161 C 0.62706 0.43097 0.81239 0.0
C162 C 0.56238 0.44645 0.82951 0.0
C163 C 0.57395 0.47505 0.83738 0.0
C164 C 0.55562 0.5026 0.83641 0.0
C165 C 0.5252 0.5021 0.82777 0.0
C166 C 0.51419 0.47362 0.8194 0.0
C167 C 0.53267 0.44616 0.82025 0.0
C168 C 0.42987 0.61775 0.85186 0.0
C169 C 0.43397 0.64868 0.85893 0.0
C170 C 0.4237 0.65686 0.87779 0.0
C171 C 0.4091 0.63414 0.88984 0.0
C172 C 0.40495 0.60314 0.88287 0.0
C173 C 0.41521 0.59496 0.86401 0.0
C174 C 0.41451 0.61147 0.81848 0.0
C175 C 0.39105 0.58786 0.81777 0.0
C176 C 0.36554 0.59034 0.80469 0.0
C177 C 0.36325 0.61569 0.79107 0.0
C178 C 0.38561 0.64059 0.79341 0.0
C179 C 0.4111 0.63812 0.80652 0.0
C180 C 0.46154 0.58256 0.83096 0.0
C181 C 0.48337 0.57602 0.8462 0.0
C182 C 0.50391 0.55015 0.84512 0.0
C183 C 0.50433 0.53058 0.82842 0.0
C184 C 0.48417 0.53809 0.81261 0.0
C185 C 0.46342 0.5639 0.81373 0.0
H186 H 0.42015 0.88205 0.1018 0.0
N187 N 0.4046 0.9374 0.0829 0.0
H188 H 0.40594 0.86742 0.13543 0.0
H189 H 0.37528 0.97304 0.10963 0.0
H190 H 0.36197 0.95865 0.14376 0.0
H191 H 0.34684 0.92279 0.07011 0.0
H192 H 0.33082 0.87543 0.05155 0.0
H193 H 0.44514 0.89507 0.06458 0.0
H194 H 0.42911 0.84852 0.0458 0.0
H195 H 0.46475 0.92068 0.09461 0.0
H196 H 0.41052 0.99343 0.06547 0.0
H197 H 0.51252 0.95329 0.09219 0.0
H198 H 0.45846 0.02637 0.06297 0.0
H199 H 0.63553 0.03814 0.10929 0.0
H200 H 0.6489 0.05437 0.14309 0.0
H201 H 0.59158 0.13822 0.13617 0.0
H202 H 0.57876 0.1224 0.1024 0.0
H203 H 0.6576 0.09803 0.07901 0.0
H204 H 0.67071 0.14532 0.05977 0.0
H205 H 0.57601 0.14607 0.03571 0.0
H206 H 0.56223 0.09974 0.05525 0.0
H207 H 0.59791 0.01065 0.07036 0.0
H208 H 0.55053 0.97685 0.06791 0.0
H209 H 0.49237 0.055 0.08737 0.0
N210 N 0.60118 0.07014 0.08306 0.0
H211 H 0.53951 0.08846 0.08964 0.0
C212 C 0.39828 0.92862 0.10306 0.0
C213 C 0.40735 0.89896 0.11073 0.0
C214 C 0.39932 0.89058 0.12994 0.0
C215 C 0.38267 0.91185 0.14197 0.0
C216 C 0.37459 0.94186 0.13461 0.0
C217 C 0.3822 0.95006 0.11525 0.0
C218 C 0.39709 0.91281 0.06881 0.0
C219 C 0.36498 0.9071 0.06442 0.0
C220 C 0.35585 0.88013 0.05391 0.0
C221 C 0.37881 0.85854 0.04739 0.0
C222 C 0.41109 0.86502 0.05071 0.0
C223 C 0.4202 0.89179 0.06143 0.0
C224 C 0.43393 0.95465 0.08014 0.0
C225 C 0.46316 0.94349 0.08744 0.0
C226 C 0.49055 0.96213 0.08598 0.0
C227 C 0.48924 0.99243 0.07742 0.0
C228 C 0.46015 0.00324 0.06978 0.0
C229 C 0.43284 0.98444 0.07109 0.0
C230 C 0.60614 0.0789 0.10338 0.0
C231 C 0.62554 0.05977 0.11519 0.0
C232 C 0.6331 0.06897 0.13439 0.0
C233 C 0.62112 0.09741 0.14205 0.0
C234 C 0.60084 0.1161 0.1305 0.0
C235 C 0.59344 0.10699 0.11129 0.0
C236 C 0.60869 0.09543 0.0693 0.0
C237 C 0.63961 0.10818 0.06953 0.0
C238 C 0.64716 0.13509 0.05854 0.0
C239 C 0.6242 0.14929 0.04654 0.0
C240 C 0.59393 0.13548 0.04506 0.0
C241 C 0.58608 0.10896 0.05644 0.0
C242 C 0.57239 0.05204 0.08008 0.0
C243 C 0.57485 0.02051 0.07383 0.0
C244 C 0.54784 1.00124 0.07257 0.0
C245 C 0.51773 0.01328 0.07745 0.0
C246 C 0.51517 0.04513 0.0833 0.0
C247 C 0.54221 0.06425 0.08475 0.0
H248 H 0.07383 0.64976 0.90029 0.0
N249 N 0.07419 0.59438 0.91892 0.0
H250 H 0.09233 0.66098 0.86669 0.0
H251 H 0.09502 0.55069 0.89198 0.0
H252 H 0.11296 0.56188 0.85834 0.0
H253 H 0.07423 0.63594 0.94837 0.0
H254 H 0.12026 0.65335 0.96802 0.0
H255 H 0.13321 0.56695 0.91922 0.0
H256 H 0.17889 0.58429 0.93876 0.0
H257 H 0.09038 0.53602 0.93474 0.0
H258 H 0.01286 0.59017 0.91046 0.0
H259 H 0.05583 0.49038 0.9381 0.0
H260 H 0.97845 0.54379 0.91261 0.0
H261 H 0.93777 0.34359 0.90548 0.0
H262 H 0.92291 0.32754 0.87188 0.0
H263 H 0.90489 0.42516 0.85703 0.0
H264 H 0.91949 0.44121 0.89041 0.0
H265 H 0.87389 0.42034 0.9128 0.0
H266 H 0.82672 0.40706 0.93179 0.0
H267 H 0.88542 0.36486 0.97668 0.0
H268 H 0.93303 0.37623 0.95683 0.0
H269 H 0.99798 0.40439 0.91811 0.0
H270 H 0.03188 0.45122 0.91932 0.0
H271 H 0.94962 0.50899 0.93213 0.0
N272 N 0.93523 0.40155 0.9209 0.0
H273 H 0.91582 0.46233 0.92959 0.0
C274 C 0.08276 0.5995 0.8986 0.0
C275 C 0.082 0.63045 0.89112 0.0
C276 C 0.09255 0.63682 0.87206 0.0
C277 C 0.10387 0.61221 0.86014 0.0
C278 C 0.10412 0.58108 0.86737 0.0
C279 C 0.09383 0.57474 0.88652 0.0
C280 C 0.10013 0.60019 0.93238 0.0
C281 C 0.09682 0.62405 0.94658 0.0
C282 C 0.12299 0.63398 0.95772 0.0
C283 C 0.15285 0.62005 0.95479 0.0
C284 C 0.15596 0.59518 0.94125 0.0
C285 C 0.12986 0.58532 0.93011 0.0
C286 C 0.05421 0.56699 0.92241 0.0
C287 C 0.06594 0.53834 0.93015 0.0
C288 C 0.04606 0.51187 0.93188 0.0
C289 C 0.0142 0.51308 0.92554 0.0
C290 C 0.00255 0.54189 0.91803 0.0
C291 C 0.02227 0.56847 0.91664 0.0
C292 C 0.92996 0.39348 0.90049 0.0
C293 C 0.9312 0.36154 0.89485 0.0
C294 C 0.92275 0.35242 0.87578 0.0
C295 C 0.91294 0.37525 0.86209 0.0
C296 C 0.91263 0.40732 0.86743 0.0
C297 C 0.92106 0.41643 0.88647 0.0
C298 C 0.90723 0.39842 0.93312 0.0
C299 C 0.87693 0.40806 0.92661 0.0
C300 C 0.84986 0.40065 0.93753 0.0
C301 C 0.85249 0.38449 0.95549 0.0
C302 C 0.88284 0.37694 0.96272 0.0
C303 C 0.90993 0.38352 0.95148 0.0
C304 C 0.95446 0.42957 0.9239 0.0
C305 C 0.98739 0.42716 0.92137 0.0
C306 C 0.00676 0.45404 0.92221 0.0
C307 C 0.99366 0.48415 0.92587 0.0
C308 C 0.96062 0.4864 0.92895 0.0
C309 C 0.94118 0.45952 0.92777 0.0
H310 H 0.57424 0.38114 0.15051 0.0
N311 N 0.5986 0.432 0.17057 0.0
H312 H 0.58792 0.36503 0.11699 0.0
H313 H 0.63658 0.46194 0.14544 0.0
H314 H 0.65071 0.44542 0.11183 0.0
H315 H 0.65586 0.41849 0.18441 0.0
H316 H 0.67168 0.37159 0.20343 0.0
H317 H 0.55784 0.38889 0.18795 0.0
H318 H 0.57361 0.34267 0.20718 0.0
H319 H 0.53632 0.41801 0.1617 0.0
H320 H 0.59805 0.49007 0.18552 0.0
H321 H 0.49125 0.45393 0.16419 0.0
H322 H 0.55278 0.5265 0.18781 0.0
H323 H 0.374 0.54556 0.14547 0.0
H324 H 0.35868 0.56075 0.11181 0.0
H325 H 0.4194 0.6429 0.11562 0.0
H326 H 0.43448 0.62793 0.14919 0.0
H327 H 0.35524 0.59669 0.18216 0.0
H328 H 0.34295 0.64425 0.20151 0.0
H329 H 0.44302 0.66287 0.20845 0.0
H330 H 0.45544 0.61628 0.18867 0.0
H331 H 0.41254 0.52012 0.1865 0.0
H332 H 0.4577 0.48358 0.18923 0.0
H333 H 0.51845 0.5535 0.16206 0.0
N334 N 0.41177 0.57718 0.17001 0.0
H335 H 0.47344 0.58955 0.15921 0.0
C336 C 0.60438 0.42294 0.15045 0.0
C337 C 0.59048 0.39569 0.14212 0.0
C338 C 0.59833 0.38642 0.12303 0.0
C339 C 0.62027 0.40409 0.11202 0.0
C340 C 0.63364 0.43161 0.12013 0.0
C341 C 0.62564 0.44098 0.1392 0.0
C342 C 0.60575 0.40751 0.18474 0.0
C343 C 0.6377 0.40244 0.18975 0.0
C344 C 0.64672 0.37574 0.20053 0.0
C345 C 0.6238 0.35373 0.20666 0.0
C346 C 0.5916 0.35951 0.20261 0.0
C347 C 0.58262 0.38605 0.19162 0.0
C348 C 0.57073 0.45126 0.17364 0.0
C349 C 0.54019 0.44132 0.16782 0.0
C350 C 0.51431 0.46193 0.16925 0.0
C351 C 0.5185 0.49303 0.17618 0.0
C352 C 0.54889 0.50272 0.18231 0.0
C353 C 0.57468 0.48194 0.18113 0.0
C354 C 0.40528 0.58551 0.14982 0.0
C355 C 0.38426 0.5666 0.13892 0.0
C356 C 0.37561 0.57521 0.1198 0.0
C357 C 0.38801 0.60286 0.1113 0.0
C358 C 0.40975 0.62139 0.12195 0.0
C359 C 0.41835 0.61282 0.14107 0.0
C360 C 0.40614 0.60256 0.18388 0.0
C361 C 0.37455 0.6107 0.18813 0.0
C362 C 0.36754 0.63777 0.19911 0.0
C363 C 0.3921 0.65698 0.20634 0.0
C364 C 0.42379 0.6482 0.20301 0.0
C365 C 0.43082 0.62144 0.19166 0.0
C366 C 0.4395 0.55759 0.17281 0.0
C367 C 0.43571 0.52761 0.18136 0.0
C368 C 0.46143 0.50678 0.18282 0.0
C369 C 0.4916 0.51574 0.1759 0.0
C370 C 0.49558 0.5461 0.16775 0.0
C371 C 0.46977 0.56672 0.16606 0.0
H372 H 0.37487 0.92305 0.40377 0.0
N373 N 0.42879 0.90878 0.42483 0.0
H374 H 0.36278 0.90655 0.37021 0.0
H375 H 0.466 0.87667 0.40021 0.0
H376 H 0.45421 0.86111 0.36604 0.0
H377 H 0.41614 0.85372 0.4419 0.0
H378 H 0.36807 0.83923 0.46034 0.0
H379 H 0.38305 0.95019 0.43803 0.0
H380 H 0.33518 0.93568 0.45652 0.0
H381 H 0.41719 0.96699 0.40822 0.0
H382 H 0.48033 0.91631 0.4469 0.0
H383 H 0.45207 0.01299 0.40939 0.0
H384 H 0.51474 0.96296 0.44906 0.0
H385 H 0.57362 0.15176 0.40236 0.0
H386 H 0.58972 0.16377 0.36838 0.0
H387 H 0.60814 0.06467 0.35828 0.0
H388 H 0.5926 0.05266 0.39204 0.0
H389 H 0.63265 0.06751 0.41789 0.0
H390 H 0.67718 0.07604 0.43898 0.0
H391 H 0.62216 0.14361 0.47252 0.0
H392 H 0.57762 0.1343 0.45112 0.0
H393 H 0.51137 0.09924 0.42327 0.0
H394 H 0.47352 0.05564 0.42746 0.0
H395 H 0.5517 0.98933 0.42893 0.0
N396 N 0.57422 0.0958 0.4203 0.0
H397 H 0.58899 0.03287 0.42568 0.0
C398 C 0.42129 0.90057 0.40471 0.0
C399 C 0.39231 0.90928 0.39586 0.0
C400 C 0.3854 0.89998 0.37664 0.0
C401 C 0.40748 0.88239 0.36575 0.0
C402 C 0.43677 0.87444 0.37431 0.0
C403 C 0.44349 0.88333 0.39369 0.0
C404 C 0.40335 0.90292 0.43861 0.0
C405 C 0.39899 0.87191 0.44552 0.0
C406 C 0.37165 0.86366 0.45597 0.0
C407 C 0.34824 0.88643 0.45974 0.0
C408 C 0.35319 0.9179 0.45382 0.0
C409 C 0.38056 0.92615 0.44331 0.0
C410 C 0.44649 0.93788 0.42725 0.0
C411 C 0.43833 0.96589 0.41724 0.0
C412 C 0.45827 0.99242 0.41808 0.0
C413 C 0.48656 0.99172 0.42915 0.0
C414 C 0.49363 0.96419 0.43999 0.0
C415 C 0.47385 0.93759 0.43896 0.0
C416 C 0.58162 0.10143 0.39984 0.0
C417 C 0.5808 0.13261 0.39275 0.0
C418 C 0.58995 0.13943 0.37344 0.0
C419 C 0.60003 0.11505 0.36091 0.0
C420 C 0.6003 0.08373 0.36777 0.0
C421 C 0.59132 0.07693 0.38709 0.0
C422 C 0.60094 0.099 0.43351 0.0
C423 C 0.62963 0.08297 0.43042 0.0
C424 C 0.65527 0.08737 0.44317 0.0
C425 C 0.6529 0.10675 0.46015 0.0
C426 C 0.62471 0.12489 0.4619 0.0
C427 C 0.59898 0.12039 0.44912 0.0
C428 C 0.55298 0.06955 0.42411 0.0
C429 C 0.52022 0.07528 0.42478 0.0
C430 C 0.49865 0.05027 0.42701 0.0
C431 C 0.50943 0.01879 0.42844 0.0
C432 C 0.5424 0.0132 0.42821 0.0
C433 C 0.56392 0.03825 0.42618 0.0
H434 H 0.06475 0.87218 0.65025 0.0
N435 N 0.09112 0.92011 0.67208 0.0
H436 H 0.07721 0.85921 0.61605 0.0
H437 H 0.12983 0.95115 0.64793 0.0
H438 H 0.14258 0.93785 0.61356 0.0
H439 H 0.14753 0.91172 0.68854 0.0
H440 H 0.1659 0.86534 0.70721 0.0
H441 H 0.05344 0.87133 0.68569 0.0
H442 H 0.07185 0.82512 0.70418 0.0
H443 H 0.02813 0.90677 0.66511 0.0
H444 H 0.09244 0.97791 0.68728 0.0
H445 H 0.98388 0.94352 0.66843 0.0
H446 H 0.04803 0.01514 0.69049 0.0
H447 H 0.8687 0.0394 0.649 0.0
H448 H 0.85361 0.05557 0.61547 0.0
H449 H 0.91803 0.13488 0.61919 0.0
H450 H 0.93282 0.11903 0.65261 0.0
H451 H 0.85213 0.08895 0.68636 0.0
H452 H 0.84065 0.13773 0.70469 0.0
H453 H 0.94098 0.15651 0.70975 0.0
H454 H 0.95257 0.10855 0.69103 0.0
H455 H 0.9074 0.01238 0.69024 0.0
H456 H 0.95155 0.97465 0.69303 0.0
H457 H 0.01396 0.04257 0.66534 0.0
N458 N 0.90806 0.06921 0.67345 0.0
H459 H 0.97004 0.07978 0.6625 0.0
C460 C 0.09646 0.91275 0.65166 0.0
C461 C 0.0814 0.88699 0.64237 0.0
C462 C 0.08847 0.87955 0.62285 0.0
C463 C 0.11071 0.89765 0.61236 0.0
C464 C 0.12523 0.92376 0.62144 0.0
C465 C 0.11806 0.93126 0.64096 0.0
C466 C 0.09921 0.89519 0.6857 0.0
C467 C 0.1307 0.89328 0.69234 0.0
C468 C 0.14117 0.86689 0.70291 0.0
C469 C 0.1202 0.8419 0.707 0.0
C470 C 0.08829 0.84429 0.7012 0.0
C471 C 0.07781 0.87075 0.69062 0.0
C472 C 0.06375 0.93951 0.67615 0.0
C473 C 0.03273 0.92999 0.67116 0.0
C474 C 0.00733 0.95111 0.67303 0.0
C475 C 0.0125 0.98225 0.67966 0.0
C476 C 0.04337 0.99138 0.68519 0.0
C477 C 0.06867 0.97013 0.68351 0.0
C478 C 0.90185 0.07785 0.65328 0.0
C479 C 0.87982 0.06002 0.64246 0.0
C480 C 0.87125 0.06921 0.62343 0.0
C481 C 0.88477 0.09636 0.61495 0.0
C482 C 0.90747 0.11379 0.62552 0.0
C483 C 0.91595 0.10467 0.64455 0.0
C484 C 0.90308 0.09477 0.68726 0.0
C485 C 0.87168 0.1032 0.69179 0.0
C486 C 0.86513 0.13099 0.70215 0.0
C487 C 0.88999 0.15064 0.70846 0.0
C488 C 0.92154 0.1415 0.705 0.0
C489 C 0.92809 0.11396 0.69429 0.0
C490 C 0.93528 0.04894 0.67631 0.0
C491 C 0.93073 0.01918 0.68502 0.0
C492 C 0.95588 0.99766 0.6865 0.0
C493 C 0.98622 0.0057 0.67945 0.0
C494 C 0.99096 0.03585 0.67116 0.0
C495 C 0.96575 0.05717 0.66947 0.0
In496 In 0.33011 0.67833 0.0013 0.0
O497 O 0.31535 0.72668 0.01355 0.0
O498 O 0.36446 0.71851 0.00777 0.0
C499 C 0.27068 0.664 0.98926 0.0
C500 C 0.34637 0.6489 0.03518 0.0
C501 C 0.35948 0.66655 0.96669 0.0
O502 O 0.28136 0.69201 0.98893 0.0
O503 O 0.28958 0.64355 0.99601 0.0
O504 O 0.3509 0.64471 0.9782 0.0
O505 O 0.35445 0.69414 0.97299 0.0
C506 C 0.34348 0.73723 0.01404 0.0
O507 O 0.36576 0.65273 0.02123 0.0
O508 O 0.31861 0.65844 0.03165 0.0
In509 In 0.337 0.83439 0.25312 0.0
O510 O 0.32765 0.78253 0.2451 0.0
O511 O 0.37565 0.79837 0.24578 0.0
C512 C 0.27776 0.85302 0.26281 0.0
C513 C 0.34858 0.86484 0.21906 0.0
C514 C 0.36579 0.8461 0.28781 0.0
O515 O 0.28503 0.82421 0.26072 0.0
O516 O 0.29993 0.8724 0.25943 0.0
O517 O 0.37485 0.85859 0.27192 0.0
O518 O 0.34317 0.82666 0.28609 0.0
C519 C 0.35656 0.77596 0.24248 0.0
O520 O 0.36165 0.87272 0.23503 0.0
O521 O 0.32874 0.84251 0.22041 0.0
In522 In 0.1666 0.83002 0.50049 0.0
O523 O 0.12887 0.85067 0.52101 0.0
O524 O 0.17706 0.8513 0.53053 0.0
C525 C 0.13858 0.84959 0.46699 0.0
C526 C 0.15229 0.7691 0.50972 0.0
C527 C 0.22642 0.84653 0.49061 0.0
O528 O 0.13152 0.86123 0.48354 0.0
O529 O 0.15884 0.82761 0.46751 0.0
O530 O 0.21766 0.81795 0.49179 0.0
O531 O 0.20544 0.86665 0.49492 0.0
C532 C 0.14843 0.85726 0.53449 0.0
O533 O 0.1742 0.78445 0.51802 0.0
O534 O 0.13871 0.7838 0.49596 0.0
In535 In 0.18161 0.66373 0.74977 0.0
O536 O 0.15729 0.62729 0.76962 0.0
O537 O 0.16348 0.67401 0.78072 0.0
C538 C 0.16402 0.63722 0.71548 0.0
C539 C 0.24223 0.64715 0.75814 0.0
C540 C 0.16493 0.72321 0.73953 0.0
O541 O 0.14917 0.63206 0.73129 0.0
O542 O 0.18789 0.65519 0.717 0.0
O543 O 0.19359 0.71503 0.74166 0.0
O544 O 0.1448 0.70188 0.74326 0.0
C545 C 0.15365 0.64622 0.78377 0.0
O546 O 0.23042 0.67303 0.7638 0.0
O547 O 0.22393 0.63025 0.74789 0.0
In548 In 0.83045 0.16846 0.50341 0.0
O549 O 0.81646 0.21783 0.51466 0.0
O550 O 0.86433 0.21054 0.50589 0.0
C551 C 0.77193 0.14763 0.49296 0.0
C552 C 0.84574 0.14304 0.53857 0.0
C553 C 0.8617 0.15094 0.47059 0.0
O554 O 0.78051 0.17604 0.49034 0.0
O555 O 0.7926 0.13018 0.50087 0.0
O556 O 0.86362 0.13543 0.4864 0.0
O557 O 0.84438 0.17527 0.47134 0.0
C558 C 0.84403 0.22924 0.51291 0.0
O559 O 0.86551 0.14557 0.52471 0.0
O560 O 0.81812 0.15264 0.53456 0.0
In561 In 0.8339 0.33036 0.7511 0.0
O562 O 0.85846 0.36841 0.73271 0.0
O563 O 0.82511 0.33836 0.71839 0.0
C564 C 0.86311 0.34113 0.78573 0.0
C565 C 0.85447 0.27223 0.74083 0.0
C566 C 0.77429 0.34731 0.76124 0.0
O567 O 0.86952 0.35684 0.77047 0.0
O568 O 0.84272 0.31953 0.78347 0.0
O569 O 0.78179 0.31897 0.75763 0.0
O570 O 0.79638 0.36718 0.75905 0.0
C571 C 0.84505 0.36056 0.71684 0.0
O572 O 0.8256 0.27802 0.74423 0.0
O573 O 0.87309 0.2954 0.74298 0.0
In574 In 0.67282 0.32971 0.00097 0.0
O575 O 0.68546 0.28003 0.01229 0.0
O576 O 0.63763 0.28876 0.00405 0.0
C577 C 0.73235 0.34628 0.9901 0.0
C578 C 0.65802 0.35684 0.03556 0.0
C579 C 0.64411 0.35109 0.96803 0.0
O580 O 0.71894 0.32127 0.98414 0.0
O581 O 0.71613 0.36232 0.0021 0.0
O582 O 0.64136 0.36505 0.98436 0.0
O583 O 0.66055 0.32618 0.96852 0.0
C584 C 0.65748 0.26954 0.01102 0.0
O585 O 0.63815 0.35418 0.02173 0.0
O586 O 0.68555 0.34677 0.03171 0.0
In587 In 0.67618 0.17421 0.25217 0.0
O588 O 0.65365 0.1341 0.27011 0.0
O589 O 0.65454 0.18047 0.2825 0.0
C590 C 0.65992 0.14548 0.21822 0.0
C591 C 0.73614 0.162 0.26442 0.0
C592 C 0.66159 0.23397 0.24103 0.0
O593 O 0.64014 0.15019 0.23187 0.0
O594 O 0.68795 0.15415 0.22202 0.0
O595 O 0.68962 0.2235 0.24041 0.0
O596 O 0.64134 0.2149 0.24777 0.0
C597 C 0.6471 0.15174 0.28453 0.0
O598 O 0.71909 0.1832 0.27213 0.0
O599 O 0.72347 0.14803 0.25002 0.0
C600 C 0.21559 0.88901 0.29665 0.0
C601 C 0.18722 0.88094 0.28651 0.0
C602 C 0.21846 0.85756 0.25971 0.0
C603 C 0.24661 0.86319 0.27068 0.0
N604 N 0.27201 0.8798 0.30082 0.0
N605 N 0.16078 0.8552 0.25943 0.0
C606 C 0.24524 0.87794 0.28943 0.0
C607 C 0.18841 0.86454 0.2683 0.0
N608 N 0.21419 0.90744 0.31318 0.0
N609 N 0.2206 0.84662 0.24084 0.0
H610 H 0.13839 0.8611 0.26488 0.0
H611 H 0.1599 0.84004 0.24737 0.0
H612 H 0.24223 0.84138 0.2341 0.0
H613 H 0.20132 0.84506 0.23129 0.0
H614 H 0.23412 0.91739 0.31985 0.0
H615 H 0.1929 0.91483 0.31952 0.0
H616 H 0.27189 0.88687 0.31548 0.0
H617 H 0.29419 0.87172 0.29624 0.0
C618 C 0.15633 0.68703 0.5325 0.0
C619 C 0.12362 0.67901 0.53406 0.0
C620 C 0.10936 0.73045 0.51991 0.0
C621 C 0.14208 0.73723 0.51666 0.0
N622 N 0.19596 0.71782 0.51518 0.0
N623 N 0.06952 0.68968 0.52447 0.0
C624 C 0.16536 0.71422 0.52151 0.0
C625 C 0.1003 0.69962 0.52617 0.0
N626 N 0.17874 0.66976 0.54232 0.0
N627 N 0.08701 0.7538 0.51843 0.0
H628 H 0.06214 0.66702 0.5286 0.0
H629 H 0.05218 0.70269 0.51709 0.0
H630 H 0.09241 0.77731 0.5152 0.0
H631 H 0.06342 0.75056 0.52262 0.0
H632 H 0.20247 0.67669 0.54329 0.0
H633 H 0.17322 0.65028 0.5511 0.0
H634 H 0.21316 0.70028 0.5168 0.0
H635 H 0.20322 0.73673 0.50638 0.0
C636 C 0.3105 0.59602 0.77629 0.0
C637 C 0.33566 0.61832 0.77653 0.0
C638 C 0.30162 0.65538 0.7584 0.0
C639 C 0.27472 0.63672 0.76354 0.0
N640 N 0.25391 0.58861 0.77824 0.0
N641 N 0.35859 0.65506 0.75358 0.0
C642 C 0.27923 0.60665 0.7725 0.0
C643 C 0.33253 0.6444 0.7635 0.0
N644 N 0.317 0.56441 0.7764 0.0
N645 N 0.29786 0.68338 0.74862 0.0
H646 H 0.38045 0.64352 0.7547 0.0
H647 H 0.35759 0.67203 0.74247 0.0
H648 H 0.276 0.69116 0.74327 0.0
H649 H 0.31637 0.69952 0.74666 0.0
H650 H 0.29952 0.54713 0.7745 0.0
H651 H 0.34032 0.55609 0.77548 0.0
H652 H 0.25669 0.56777 0.78631 0.0
H653 H 0.23037 0.59582 0.77664 0.0
C654 C 0.3553 0.82629 0.01972 0.0
C655 C 0.36897 0.82764 0.03879 0.0
C656 C 0.36789 0.76968 0.0409 0.0
C657 C 0.35179 0.76842 0.02257 0.0
N658 N 0.32661 0.79523 0.99542 0.0
N659 N 0.3818 0.80135 0.0693 0.0
C660 C 0.34423 0.79669 0.01229 0.0
C661 C 0.37347 0.79952 0.04988 0.0
N662 N 0.35412 0.85306 0.00842 0.0
N663 N 0.37826 0.74243 0.04966 0.0
H664 H 0.38553 0.82278 0.0766 0.0
H665 H 0.38199 0.78186 0.07869 0.0
H666 H 0.37405 0.71993 0.04392 0.0
H667 H 0.39327 0.7422 0.06185 0.0
H668 H 0.34757 0.85309 0.99366 0.0
H669 H 0.36216 0.87506 0.01335 0.0
H670 H 0.31731 0.81512 0.98844 0.0
H671 H 0.31944 0.77391 0.98904 0.0
C672 C 0.20238 0.65277 0.95312 0.0
C673 C 0.18164 0.63344 0.96435 0.0
C674 C 0.21675 0.63904 0.99296 0.0
C675 C 0.23927 0.65507 0.981 0.0
N676 N 0.25594 0.67219 0.94874 0.0
N677 N 0.17002 0.60527 0.99431 0.0
C678 C 0.23266 0.66084 0.96085 0.0
C679 C 0.189 0.62585 0.98415 0.0
N680 N 0.19297 0.66379 0.93513 0.0
N681 N 0.22145 0.63728 0.01283 0.0
H682 H 0.14926 0.59564 0.98842 0.0
H683 H 0.17598 0.59598 0.00801 0.0
H684 H 0.24128 0.64705 0.01978 0.0
H685 H 0.20448 0.6287 0.02261 0.0
H686 H 0.20567 0.68071 0.92721 0.0
H687 H 0.171 0.65826 0.92888 0.0
H688 H 0.25365 0.67345 0.93351 0.0
H689 H 0.27875 0.67745 0.95367 0.0
C690 C 0.37407 0.68803 0.23594 0.0
C691 C 0.38445 0.68761 0.21606 0.0
C692 C 0.37613 0.74506 0.21357 0.0
C693 C 0.36695 0.74564 0.23365 0.0
N694 N 0.36093 0.71938 0.26483 0.0
N695 N 0.3987 0.71555 0.18637 0.0
C696 C 0.36688 0.71755 0.24509 0.0
C697 C 0.38658 0.71614 0.20503 0.0
N698 N 0.37071 0.6601 0.24593 0.0
N699 N 0.3734 0.77192 0.20241 0.0
H700 H 0.4045 0.6947 0.17899 0.0
H701 H 0.40483 0.73578 0.17848 0.0
H702 H 0.3664 0.79372 0.20813 0.0
H703 H 0.37592 0.77241 0.1872 0.0
H704 H 0.35985 0.65817 0.25961 0.0
H705 H 0.37738 0.63827 0.24006 0.0
H706 H 0.36358 0.70049 0.27451 0.0
H707 H 0.35539 0.74061 0.27189 0.0
C708 C 0.31101 0.87895 0.48833 0.0
C709 C 0.31705 0.87643 0.46787 0.0
C710 C 0.26486 0.85176 0.46273 0.0
C711 C 0.258 0.85601 0.483 0.0
N712 N 0.27253 0.87629 0.5149 0.0
N713 N 0.29872 0.8649 0.43504 0.0
C714 C 0.28049 0.87047 0.49575 0.0
C715 C 0.29371 0.86398 0.45492 0.0
N716 N 0.33479 0.88863 0.50067 0.0
N717 N 0.2438 0.83596 0.45092 0.0
H718 H 0.31974 0.87315 0.42872 0.0
H719 H 0.28131 0.85977 0.42464 0.0
H720 H 0.22153 0.82836 0.45566 0.0
H721 H 0.24904 0.82855 0.43669 0.0
H722 H 0.33327 0.88782 0.51593 0.0
H723 H 0.35712 0.89566 0.49563 0.0
H724 H 0.28625 0.88994 0.52442 0.0
H725 H 0.25112 0.86885 0.52111 0.0
C726 C 0.12762 0.80539 0.73593 0.0
C727 C 0.13241 0.81197 0.71569 0.0
C728 C 0.1625 0.76257 0.71194 0.0
C729 C 0.15539 0.75463 0.73176 0.0
N730 N 0.12937 0.76683 0.76242 0.0
N731 N 0.15003 0.79517 0.68362 0.0
C732 C 0.13735 0.77557 0.74369 0.0
C733 C 0.14881 0.79017 0.70349 0.0
N734 N 0.11459 0.82807 0.74779 0.0
N735 N 0.18231 0.74373 0.70112 0.0
H736 H 0.14047 0.81515 0.67682 0.0
H737 H 0.15815 0.77839 0.6736 0.0
H738 H 0.19145 0.72232 0.7062 0.0
H739 H 0.1915 0.75027 0.68751 0.0
H740 H 0.11344 0.82628 0.76303 0.0
H741 H 0.10687 0.84995 0.7425 0.0
H742 H 0.11312 0.77907 0.77107 0.0
H743 H 0.13786 0.74624 0.76907 0.0
C744 C 0.7078 0.361 0.79794 0.0
C745 C 0.68551 0.37767 0.78619 0.0
C746 C 0.72166 0.3748 0.75793 0.0
C747 C 0.74296 0.35635 0.76936 0.0
N748 N 0.75457 0.32772 0.79927 0.0
N749 N 0.66862 0.39686 0.75453 0.0
C750 C 0.7354 0.34804 0.78904 0.0
C751 C 0.69172 0.38361 0.76602 0.0
N752 N 0.70331 0.35886 0.81783 0.0
N753 N 0.73019 0.38409 0.73941 0.0
H754 H 0.64659 0.4038 0.76006 0.0
H755 H 0.67024 0.3989 0.73932 0.0
H756 H 0.75106 0.37655 0.73262 0.0
H757 H 0.71755 0.40057 0.73115 0.0
H758 H 0.72047 0.35043 0.82753 0.0
H759 H 0.68344 0.36801 0.82498 0.0
H760 H 0.74834 0.31781 0.81275 0.0
H761 H 0.77584 0.31882 0.79376 0.0
C762 C 0.61953 0.2085 0.04489 0.0
C763 C 0.63137 0.17993 0.03665 0.0
C764 C 0.65793 0.21006 0.01042 0.0
C765 C 0.64783 0.23862 0.01942 0.0
N766 N 0.6218 0.26589 0.04609 0.0
N767 N 0.66318 0.1528 0.0125 0.0
C768 C 0.6291 0.23808 0.03679 0.0
C769 C 0.65097 0.18052 0.01964 0.0
N770 N 0.59907 0.20734 0.06051 0.0
N771 N 0.67317 0.21125 0.99267 0.0
H772 H 0.65703 0.13064 0.01812 0.0
H773 H 0.68055 0.15164 0.00165 0.0
H774 H 0.67866 0.2325 0.9856 0.0
H775 H 0.67846 0.19142 0.98422 0.0
H776 H 0.5862 0.22674 0.06555 0.0
H777 H 0.59338 0.1865 0.06794 0.0
H778 H 0.61191 0.26721 0.06008 0.0
H779 H 0.62753 0.28813 0.04045 0.0
C780 C 0.81707 0.16788 0.28931 0.0
C781 C 0.82683 0.13566 0.28942 0.0
C782 C 0.77592 0.12043 0.27471 0.0
C783 C 0.7678 0.15294 0.2724 0.0
N784 N 0.78497 0.20761 0.27316 0.0
N785 N 0.81856 0.08236 0.2776 0.0
C786 C 0.78965 0.17672 0.27841 0.0
C787 C 0.80721 0.11227 0.28063 0.0
N788 N 0.83296 0.1899 0.3003 0.0
N789 N 0.75344 0.09728 0.27254 0.0
H790 H 0.84168 0.0757 0.28126 0.0
H791 H 0.80616 0.0653 0.26957 0.0
H792 H 0.72959 0.10196 0.26967 0.0
H793 H 0.75773 0.07359 0.27594 0.0
H794 H 0.82477 0.21299 0.30221 0.0
H795 H 0.85238 0.18436 0.30916 0.0
H796 H 0.8018 0.2253 0.27568 0.0
H797 H 0.76608 0.21493 0.26435 0.0
C798 C 0.87385 0.29262 0.548 0.0
C799 C 0.87004 0.32038 0.53644 0.0
C800 C 0.84633 0.28857 0.50995 0.0
C801 C 0.85297 0.26068 0.52081 0.0
N802 N 0.8781 0.23546 0.54863 0.0
N803 N 0.85699 0.34468 0.5054 0.0
C804 C 0.86834 0.2625 0.53935 0.0
C805 C 0.85737 0.31836 0.51712 0.0
N806 N 0.88133 0.29508 0.56752 0.0
N807 N 0.82934 0.28658 0.49286 0.0
H808 H 0.86508 0.36677 0.51015 0.0
H809 H 0.85112 0.34417 0.49054 0.0
H810 H 0.82192 0.26503 0.48687 0.0
H811 H 0.82073 0.30625 0.48533 0.0
H812 H 0.88094 0.27591 0.57716 0.0
H813 H 0.88496 0.31671 0.5746 0.0
H814 H 0.89253 0.23551 0.56108 0.0
H815 H 0.87405 0.21283 0.54302 0.0
C816 C 0.68216 0.13409 0.48911 0.0
C817 C 0.6812 0.11081 0.47405 0.0
C818 C 0.73897 0.10691 0.47533 0.0
C819 C 0.74042 0.13499 0.48681 0.0
N820 N 0.71268 0.17433 0.50614 0.0
N821 N 0.70707 0.06097 0.46808 0.0
C822 C 0.71179 0.1484 0.49414 0.0
C823 C 0.70915 0.09272 0.47153 0.0
N824 N 0.65647 0.13783 0.50107 0.0
N825 N 0.76571 0.09453 0.46705 0.0
H826 H 0.68518 0.04926 0.46806 0.0
H827 H 0.72687 0.04614 0.46787 0.0
H828 H 0.7878 0.10542 0.46828 0.0
H829 H 0.76506 0.07554 0.45725 0.0
H830 H 0.65648 0.15236 0.51346 0.0
H831 H 0.63706 0.12243 0.50029 0.0
H832 H 0.69235 0.18698 0.50996 0.0
H833 H 0.73375 0.18409 0.51148 0.0
C834 C 0.87346 0.18427 0.73724 0.0
C835 C 0.88271 0.18207 0.71721 0.0
C836 C 0.87327 0.23902 0.71274 0.0
C837 C 0.86519 0.2414 0.73294 0.0
N838 N 0.86158 0.21818 0.76518 0.0
N839 N 0.89503 0.20727 0.68626 0.0
C840 C 0.86634 0.21451 0.74542 0.0
C841 C 0.88383 0.20949 0.7051 0.0
N842 N 0.87104 0.15731 0.74831 0.0
N843 N 0.86937 0.26467 0.70066 0.0
H844 H 0.90101 0.18584 0.67961 0.0
H845 H 0.9003 0.22678 0.6775 0.0
H846 H 0.86216 0.28685 0.7057 0.0
H847 H 0.8711 0.2637 0.68541 0.0
H848 H 0.86095 0.15658 0.76226 0.0
H849 H 0.87766 0.13503 0.7431 0.0
H850 H 0.86519 0.20032 0.77548 0.0
H851 H 0.85614 0.23999 0.77157 0.0
C852 C 0.8009 0.39819 0.97208 0.0
C853 C 0.82315 0.37482 0.96625 0.0
C854 C 0.78863 0.33382 0.98027 0.0
C855 C 0.76414 0.35655 0.98288 0.0
N856 N 0.74539 0.40997 0.97677 0.0
N857 N 0.83487 0.31926 0.96133 0.0
C858 C 0.76982 0.38873 0.9777 0.0
C859 C 0.8162 0.34227 0.96943 0.0
N860 N 0.80949 0.42941 0.97247 0.0
N861 N 0.78618 0.3045 0.98865 0.0
H862 H 0.85456 0.3242 0.95256 0.0
H863 H 0.82882 0.29531 0.96164 0.0
H864 H 0.76724 0.29791 0.99764 0.0
H865 H 0.80472 0.28815 0.98856 0.0
H866 H 0.79499 0.44704 0.97833 0.0
H867 H 0.83234 0.43714 0.96892 0.0
H868 H 0.74815 0.43285 0.97125 0.0
H869 H 0.72173 0.4039 0.97922 0.0
C870 C 0.64669 0.32248 0.23495 0.0
C871 C 0.63378 0.32318 0.21565 0.0
C872 C 0.63691 0.26526 0.21381 0.0
C873 C 0.65232 0.26477 0.23238 0.0
N874 N 0.67563 0.29271 0.25972 0.0
N875 N 0.62299 0.2961 0.18508 0.0
C876 C 0.65847 0.29338 0.24265 0.0
C877 C 0.63062 0.29478 0.20462 0.0
N878 N 0.64654 0.34937 0.24615 0.0
N879 N 0.6279 0.23752 0.20501 0.0
H880 H 0.61879 0.31728 0.17763 0.0
H881 H 0.62381 0.27651 0.17578 0.0
H882 H 0.6327 0.21527 0.21094 0.0
H883 H 0.61341 0.23657 0.19261 0.0
H884 H 0.65253 0.34977 0.261 0.0
H885 H 0.6379 0.371 0.24101 0.0
H886 H 0.6839 0.31299 0.2668 0.0
H887 H 0.68355 0.2717 0.26614 0.0
C888 C 0.11107 0.904 0.42544 0.0
C889 C 0.10516 0.88141 0.41043 0.0
C890 C 0.11425 0.83857 0.43406 0.0
C891 C 0.12491 0.86101 0.44814 0.0
N892 N 0.13909 0.9153 0.45567 0.0
N893 N 0.10717 0.82691 0.39955 0.0
C894 C 0.12467 0.89387 0.44351 0.0
C895 C 0.10833 0.84857 0.41448 0.0
N896 N 0.10319 0.93506 0.42259 0.0
N897 N 0.10875 0.80787 0.4395 0.0
H898 H 0.1039 0.83318 0.38486 0.0
H899 H 0.11264 0.80304 0.40151 0.0
H900 H 0.11142 0.7999 0.45393 0.0
H901 H 0.09815 0.79129 0.43022 0.0
H902 H 0.10407 0.95194 0.43376 0.0
H903 H 0.09278 0.94328 0.40964 0.0
H904 H 0.14241 0.93899 0.45187 0.0
H905 H 0.15069 0.90901 0.46862 0.0
C906 C 0.14044 0.58058 0.67429 0.0
C907 C 0.13397 0.60247 0.65898 0.0
C908 C 0.1436 0.64679 0.68148 0.0
C909 C 0.15303 0.62499 0.69624 0.0
N910 N 0.16471 0.57142 0.70617 0.0
N911 N 0.1343 0.65619 0.64682 0.0
C912 C 0.15253 0.59191 0.69255 0.0
C913 C 0.13699 0.63555 0.66223 0.0
N914 N 0.13431 0.54907 0.67152 0.0
N915 N 0.13951 0.67806 0.68608 0.0
H916 H 0.1292 0.64892 0.6325 0.0
H917 H 0.13978 0.6802 0.64787 0.0
H918 H 0.14305 0.68703 0.7002 0.0
H919 H 0.1296 0.69454 0.67648 0.0
H920 H 0.1352 0.53235 0.68276 0.0
H921 H 0.12593 0.53992 0.65824 0.0
H922 H 0.16822 0.54739 0.7035 0.0
H923 H 0.17376 0.57887 0.71969 0.0
C924 C 0.36846 0.66054 0.91109 0.0
C925 C 0.39711 0.64315 0.90958 0.0
C926 C 0.40146 0.64127 0.94556 0.0
C927 C 0.37361 0.66016 0.94706 0.0
N928 N 0.33432 0.69329 0.93104 0.0
N929 N 0.44374 0.62099 0.92476 0.0
C930 C 0.35833 0.67161 0.92978 0.0
C931 C 0.41441 0.63456 0.92666 0.0
N932 N 0.35016 0.66534 0.89472 0.0
N933 N 0.41572 0.62995 0.96221 0.0
H934 H 0.4538 0.61557 0.91116 0.0
H935 H 0.4592 0.6172 0.93647 0.0
H936 H 0.40907 0.63687 0.97634 0.0
H937 H 0.43338 0.61272 0.96213 0.0
H938 H 0.32714 0.67429 0.89521 0.0
H939 H 0.35679 0.65777 0.88071 0.0
H940 H 0.32511 0.7052 0.91891 0.0
H941 H 0.32517 0.70167 0.94423 0.0
C942 C 0.39777 0.89645 0.17635 0.0
C943 C 0.37366 0.90234 0.16226 0.0
C944 C 0.33311 0.88936 0.18683 0.0
C945 C 0.3573 0.87916 0.19991 0.0
N946 N 0.41279 0.86678 0.20524 0.0
N947 N 0.31831 0.89923 0.15299 0.0
C948 C 0.38974 0.88117 0.19425 0.0
C949 C 0.34124 0.89748 0.16719 0.0
N950 N 0.4283 0.9059 0.17277 0.0
N951 N 0.30251 0.89227 0.1933 0.0
H952 H 0.32326 0.90455 0.13834 0.0
H953 H 0.29479 0.89253 0.15538 0.0
H954 H 0.29578 0.88752 0.20776 0.0
H955 H 0.28454 0.90253 0.18492 0.0
H956 H 0.44617 0.905 0.18337 0.0
H957 H 0.43502 0.91758 0.1599 0.0
H958 H 0.43629 0.86482 0.2006 0.0
H959 H 0.40803 0.85377 0.21792 0.0
C960 C 0.09582 0.6215 0.824 0.0
C961 C 0.11675 0.61942 0.84032 0.0
C962 C 0.16187 0.63463 0.81948 0.0
C963 C 0.14102 0.63607 0.80306 0.0
N964 N 0.08938 0.62743 0.78867 0.0
N965 N 0.16979 0.62012 0.85371 0.0
C966 C 0.10834 0.62834 0.80502 0.0
C967 C 0.14985 0.62488 0.83808 0.0
N968 N 0.06385 0.61773 0.82683 0.0
N969 N 0.19315 0.64283 0.81725 0.0
H970 H 0.16175 0.61415 0.86773 0.0
H971 H 0.19444 0.62019 0.85273 0.0
H972 H 0.20344 0.6477 0.80364 0.0
H973 H 0.20886 0.64614 0.82888 0.0
H974 H 0.04676 0.6224 0.81617 0.0
H975 H 0.05401 0.61147 0.84036 0.0
H976 H 0.06628 0.61865 0.7886 0.0
H977 H 0.09733 0.63387 0.77471 0.0
C978 C 0.38693 0.59844 0.07436 0.0
C979 C 0.37654 0.61372 0.09177 0.0
C980 C 0.34784 0.65302 0.07213 0.0
C981 C 0.35597 0.63622 0.0547 0.0
N982 N 0.37754 0.58909 0.03969 0.0
N983 N 0.34162 0.65121 0.10749 0.0
C984 C 0.37399 0.60784 0.05592 0.0
C985 C 0.35531 0.63969 0.09072 0.0
N986 N 0.40976 0.5755 0.07538 0.0
N987 N 0.33453 0.68252 0.07106 0.0
H988 H 0.34646 0.64213 0.12144 0.0
H989 H 0.32325 0.66772 0.1074 0.0
H990 H 0.32907 0.69388 0.05791 0.0
H991 H 0.33176 0.6972 0.08325 0.0
H992 H 0.42081 0.56597 0.06303 0.0
H993 H 0.41956 0.56783 0.08864 0.0
H994 H 0.38771 0.56662 0.04015 0.0
H995 H 0.36743 0.5945 0.0261 0.0
C996 C 0.39469 0.84021 0.34066 0.0
C997 C 0.39968 0.87265 0.34529 0.0
C998 C 0.38112 0.88778 0.3125 0.0
C999 C 0.37895 0.85526 0.30723 0.0
N1000 N 0.39067 0.80069 0.31495 0.0
N1001 N 0.40511 0.92662 0.33409 0.0
C1002 C 0.38783 0.83148 0.32092 0.0
C1003 C 0.3953 0.89622 0.33069 0.0
N1004 N 0.39509 0.81787 0.3552 0.0
N1005 N 0.36783 0.91059 0.30084 0.0
H1006 H 0.41607 0.9336 0.34716 0.0
H1007 H 0.40531 0.94402 0.32322 0.0
H1008 H 0.35552 0.9056 0.28791 0.0
H1009 H 0.36596 0.93422 0.30512 0.0
H1010 H 0.38819 0.79442 0.35295 0.0
H1011 H 0.39951 0.82327 0.36991 0.0
H1012 H 0.40003 0.78292 0.32386 0.0
H1013 H 0.38681 0.79351 0.30047 0.0
C1014 C 0.10968 0.90494 0.57561 0.0
C1015 C 0.12043 0.88782 0.59229 0.0
C1016 C 0.14627 0.84906 0.57088 0.0
C1017 C 0.13835 0.86785 0.55427 0.0
N1018 N 0.11649 0.916 0.54085 0.0
N1019 N 0.1538 0.84705 0.60612 0.0
C1020 C 0.12103 0.89643 0.55661 0.0
C1021 C 0.14017 0.86088 0.59002 0.0
N1022 N 0.08801 0.92874 0.57788 0.0
N1023 N 0.15815 0.81918 0.56839 0.0
H1024 H 0.14997 0.85498 0.62045 0.0
H1025 H 0.17118 0.82957 0.60516 0.0
H1026 H 0.16201 0.80905 0.55463 0.0
H1027 H 0.16109 0.80319 0.57991 0.0
H1028 H 0.07667 0.93983 0.56615 0.0
H1029 H 0.07942 0.93575 0.59159 0.0
H1030 H 0.10702 0.9387 0.54201 0.0
H1031 H 0.12464 0.91064 0.52676 0.0
C1032 C 0.60811 0.35007 0.91697 0.0
C1033 C 0.60892 0.38267 0.91186 0.0
C1034 C 0.63313 0.3951 0.94372 0.0
C1035 C 0.62974 0.36287 0.94947 0.0
N1036 N 0.60544 0.3119 0.94342 0.0
N1037 N 0.61451 0.43701 0.92233 0.0
C1038 C 0.61458 0.34101 0.93666 0.0
C1039 C 0.61895 0.40546 0.92589 0.0
N1040 N 0.60272 0.32754 0.90292 0.0
N1041 N 0.65148 0.41545 0.95449 0.0
H1042 H 0.60362 0.44545 0.90958 0.0
H1043 H 0.61861 0.45445 0.93288 0.0
H1044 H 0.66365 0.4088 0.96717 0.0
H1045 H 0.65731 0.43818 0.94971 0.0
H1046 H 0.60519 0.30335 0.9056 0.0
H1047 H 0.59893 0.33293 0.88815 0.0
H1048 H 0.59174 0.29622 0.93513 0.0
H1049 H 0.60833 0.30491 0.95802 0.0
C1050 C 0.65299 0.13487 0.16276 0.0
C1051 C 0.63166 0.1089 0.16164 0.0
C1052 C 0.63242 0.10418 0.19757 0.0
C1053 C 0.65062 0.1325 0.19876 0.0
N1054 N 0.67294 0.17832 0.18231 0.0
N1055 N 0.59723 0.07147 0.17789 0.0
C1056 C 0.65959 0.14879 0.18131 0.0
C1057 C 0.62027 0.09426 0.17904 0.0
N1058 N 0.66765 0.14577 0.14614 0.0
N1059 N 0.62794 0.08597 0.21396 0.0
H1060 H 0.58789 0.0635 0.16456 0.0
H1061 H 0.58552 0.06241 0.19016 0.0
H1062 H 0.63738 0.0918 0.22768 0.0
H1063 H 0.61764 0.06353 0.21359 0.0
H1064 H 0.68604 0.16232 0.1464 0.0
H1065 H 0.66364 0.13612 0.13224 0.0
H1066 H 0.67642 0.19262 0.17001 0.0
H1067 H 0.67769 0.19003 0.19546 0.0
C1068 C 0.91798 0.1511 0.4268 0.0
C1069 C 0.9017 0.12977 0.41412 0.0
C1070 C 0.86549 0.11619 0.44097 0.0
C1071 C 0.87806 0.14137 0.4523 0.0
N1072 N 0.91521 0.18456 0.45574 0.0
N1073 N 0.85543 0.097 0.40814 0.0
C1074 C 0.90398 0.15945 0.44511 0.0
C1075 C 0.87425 0.11353 0.42094 0.0
N1076 N 0.94733 0.16235 0.42175 0.0
N1077 N 0.84549 0.09459 0.44934 0.0
H1078 H 0.85978 0.09594 0.39307 0.0
H1079 H 0.83358 0.08733 0.41216 0.0
H1080 H 0.84 0.09495 0.46426 0.0
H1081 H 0.83763 0.07432 0.44204 0.0
H1082 H 0.96152 0.17561 0.43123 0.0
H1083 H 0.95889 0.15575 0.40883 0.0
H1084 H 0.93157 0.2008 0.4502 0.0
H1085 H 0.90677 0.19018 0.46974 0.0
C1086 C 0.83706 0.39295 0.66491 0.0
C1087 C 0.86941 0.39778 0.6598 0.0
C1088 C 0.88589 0.37682 0.69177 0.0
C1089 C 0.85352 0.37478 0.69759 0.0
N1090 N 0.79868 0.38795 0.69123 0.0
N1091 N 0.92414 0.4016 0.6701 0.0
C1092 C 0.82918 0.38494 0.6846 0.0
C1093 C 0.89368 0.39206 0.67381 0.0
N1094 N 0.81395 0.3946 0.65082 0.0
N1095 N 0.9091 0.3625 0.70266 0.0
H1096 H 0.93066 0.41329 0.6572 0.0
H1097 H 0.94212 0.4008 0.68063 0.0
H1098 H 0.90452 0.34948 0.71537 0.0
H1099 H 0.93256 0.36058 0.69792 0.0
H1100 H 0.79047 0.38791 0.65334 0.0
H1101 H 0.8187 0.39987 0.63613 0.0
H1102 H 0.78061 0.39818 0.68291 0.0
H1103 H 0.79218 0.38335 0.70574 0.0
C1104 C 0.58987 0.13063 0.32579 0.0
C1105 C 0.61178 0.12257 0.34085 0.0
C1106 C 0.65605 0.12818 0.31768 0.0
C1107 C 0.63448 0.13945 0.30328 0.0
N1108 N 0.58148 0.15424 0.29364 0.0
N1109 N 0.66591 0.11752 0.35216 0.0
C1110 C 0.60151 0.14142 0.30732 0.0
C1111 C 0.64495 0.12217 0.33705 0.0
N1112 N 0.55799 0.12715 0.32901 0.0
N1113 N 0.68714 0.12307 0.31277 0.0
H1114 H 0.65877 0.11313 0.36659 0.0
H1115 H 0.69036 0.12051 0.3508 0.0
H1116 H 0.69632 0.128 0.29886 0.0
H1117 H 0.70329 0.11162 0.32192 0.0
H1118 H 0.54088 0.12951 0.31806 0.0
H1119 H 0.54869 0.11937 0.34239 0.0
H1120 H 0.55783 0.1598 0.29647 0.0
H1121 H 0.58905 0.16116 0.27967 0.0
C1122 C 0.88349 0.09146 0.5781 0.0
C1123 C 0.87393 0.1076 0.59538 0.0
C1124 C 0.84726 0.14796 0.57544 0.0
C1125 C 0.85455 0.1304 0.55819 0.0
N1126 N 0.87343 0.08181 0.54356 0.0
N1127 N 0.84128 0.14734 0.61085 0.0
C1128 C 0.871 0.10112 0.55962 0.0
C1129 C 0.85416 0.1347 0.59415 0.0
N1130 N 0.90516 0.06744 0.57926 0.0
N1131 N 0.83521 0.17795 0.57406 0.0
H1132 H 0.84573 0.13831 0.62486 0.0
H1133 H 0.8239 0.16489 0.61067 0.0
H1134 H 0.83006 0.18901 0.56075 0.0
H1135 H 0.83308 0.1931 0.58608 0.0
H1136 H 0.91568 0.05715 0.56697 0.0
H1137 H 0.9147 0.05958 0.59255 0.0
H1138 H 0.88234 0.05883 0.54422 0.0
H1139 H 0.86353 0.0874 0.52993 0.0
C1140 C 0.92177 0.35805 0.82711 0.0
C1141 C 0.9005 0.36545 0.84261 0.0
C1142 C 0.85519 0.35944 0.82033 0.0
C1143 C 0.87619 0.34939 0.80526 0.0
N1144 N 0.92882 0.33448 0.79485 0.0
N1145 N 0.84696 0.36773 0.85517 0.0
C1146 C 0.90936 0.34746 0.80877 0.0
C1147 C 0.86718 0.36447 0.83957 0.0
N1148 N 0.95373 0.36193 0.82977 0.0
N1149 N 0.82409 0.36579 0.81602 0.0
H1150 H 0.8548 0.37174 0.86952 0.0
H1151 H 0.82258 0.3637 0.85422 0.0
H1152 H 0.81457 0.36353 0.80194 0.0
H1153 H 0.80846 0.37632 0.82592 0.0
H1154 H 0.97025 0.36032 0.81843 0.0
H1155 H 0.96363 0.36911 0.84312 0.0
H1156 H 0.95268 0.32933 0.7973 0.0
H1157 H 0.92051 0.32639 0.78129 0.0
C1158 C 0.62079 0.4087 0.07513 0.0
C1159 C 0.63062 0.39265 0.0924 0.0
C1160 C 0.65663 0.35201 0.07241 0.0
C1161 C 0.6493 0.36957 0.05516 0.0
N1162 N 0.63033 0.41812 0.04051 0.0
N1163 N 0.66349 0.35291 0.10774 0.0
C1164 C 0.63297 0.39891 0.05661 0.0
C1165 C 0.65024 0.36545 0.09111 0.0
N1166 N 0.59914 0.43273 0.07634 0.0
N1167 N 0.66819 0.32182 0.07104 0.0
H1168 H 0.65954 0.36214 0.12175 0.0
H1169 H 0.68076 0.33525 0.10745 0.0
H1170 H 0.67277 0.31051 0.05774 0.0
H1171 H 0.67034 0.30676 0.08311 0.0
H1172 H 0.58847 0.44298 0.06408 0.0
H1173 H 0.58976 0.44061 0.08966 0.0
H1174 H 0.62149 0.44114 0.04116 0.0
H1175 H 0.63994 0.41239 0.02684 0.0
loop_
_geom_bond_atom_site_label_1
_geom_bond_atom_site_label_2
_geom_bond_distance
_geom_bond_site_symmetry_2
_ccdc_geom_bond_type
H0 C27 0.929 . S
N1 C26 1.433 . S
N1 C32 1.435 . S
N1 C38 1.423 . S
H2 C28 0.930 . S
H3 C31 0.931 . S
H4 C30 0.929 . S
H5 C33 0.930 . S
H6 C34 0.932 . S
H7 C37 0.929 . S
H8 C36 0.931 . S
H9 C39 0.929 . S
H10 C43 0.932 . S
H11 C40 0.931 . S
H12 C42 0.929 . S
H13 C45 0.929 . S
H14 C46 0.930 . S
H15 C48 0.929 . S
H16 C49 0.931 . S
H17 C51 0.930 . S
H18 C52 0.932 . S
H19 C54 0.931 . S
H20 C55 0.929 . S
H21 C57 0.929 . S
H22 C58 0.931 1_455 S
H23 C60 0.929 . S
N24 C44 1.433 . S
N24 C50 1.435 . S
N24 C56 1.423 . S
H25 C61 0.932 . S
C26 N1 1.433 . S
C26 C27 1.363 . S
C26 C31 1.370 . S
C27 H0 0.929 . S
C27 C26 1.363 . S
C27 C28 1.385 . S
C28 H2 0.930 . S
C28 C27 1.385 . S
C28 C29 1.357 . S
C29 C28 1.357 . S
C29 C30 1.406 . S
C30 H4 0.929 . S
C30 C29 1.406 . S
C30 C31 1.391 . S
C31 H3 0.931 . S
C31 C26 1.370 . S
C31 C30 1.391 . S
C32 N1 1.435 . S
C32 C33 1.358 . S
C32 C37 1.371 . S
C33 H5 0.930 . S
C33 C32 1.358 . S
C33 C34 1.405 . S
C34 H6 0.932 . S
C34 C33 1.405 . S
C34 C35 1.383 . S
C35 C34 1.383 . S
C35 C36 1.393 . S
C36 H8 0.931 . S
C36 C35 1.393 . S
C36 C37 1.382 . S
C37 H7 0.929 . S
C37 C32 1.371 . S
C37 C36 1.382 . S
C38 N1 1.423 . S
C38 C39 1.362 . S
C38 C43 1.388 . S
C39 H9 0.929 . S
C39 C38 1.362 . S
C39 C40 1.376 1_565 S
C40 H11 0.931 . S
C40 C39 1.376 1_545 S
C40 C41 1.396 . S
C41 C40 1.396 . S
C41 C42 1.348 1_545 S
C41 C59 1.472 . S
C42 H12 0.929 . S
C42 C41 1.348 1_565 S
C42 C43 1.443 . S
C43 H10 0.932 . S
C43 C38 1.388 . S
C43 C42 1.443 . S
C44 N24 1.433 . S
C44 C45 1.363 . S
C44 C49 1.370 . S
C45 H13 0.929 . S
C45 C44 1.363 . S
C45 C46 1.385 . S
C46 H14 0.930 . S
C46 C45 1.385 . S
C46 C47 1.357 . S
C47 C46 1.357 . S
C47 C48 1.406 . S
C48 H15 0.929 . S
C48 C47 1.406 . S
C48 C49 1.391 . S
C49 H16 0.931 . S
C49 C44 1.370 . S
C49 C48 1.391 . S
C50 N24 1.435 . S
C50 C51 1.358 . S
C50 C55 1.371 . S
C51 H17 0.930 . S
C51 C50 1.358 . S
C51 C52 1.405 . S
C52 H18 0.932 . S
C52 C51 1.405 . S
C52 C53 1.383 . S
C53 C52 1.383 . S
C53 C54 1.393 . S
C54 H19 0.931 . S
C54 C53 1.393 . S
C54 C55 1.382 . S
C55 H20 0.929 . S
C55 C50 1.371 . S
C55 C54 1.382 . S
C56 N24 1.423 . S
C56 C57 1.362 . S
C56 C61 1.388 . S
C57 H21 0.929 . S
C57 C56 1.362 . S
C57 C58 1.376 . S
C58 H22 0.931 1_655 S
C58 C57 1.376 . S
C58 C59 1.396 1_655 S
C59 C41 1.472 . S
C59 C58 1.396 1_455 S
C59 C60 1.348 1_455 S
C60 H23 0.929 . S
C60 C59 1.348 1_655 S
C60 C61 1.443 . S
C61 H25 0.932 . S
C61 C56 1.388 . S
C61 C60 1.443 . S
H62 C89 0.929 . S
N63 C88 1.433 . S
N63 C94 1.435 . S
N63 C100 1.423 . S
H64 C90 0.930 . S
H65 C93 0.931 . S
H66 C92 0.929 . S
H67 C95 0.930 . S
H68 C96 0.932 . S
H69 C99 0.929 . S
H70 C98 0.931 . S
H71 C101 0.929 . S
H72 C105 0.932 . S
H73 C102 0.931 . S
H74 C104 0.929 . S
H75 C107 0.929 . S
H76 C108 0.930 . S
H77 C110 0.929 . S
H78 C111 0.931 . S
H79 C113 0.930 . S
H80 C114 0.932 . S
H81 C116 0.931 . S
H82 C117 0.929 . S
H83 C119 0.929 . S
H84 C120 0.931 . S
H85 C122 0.929 . S
N86 C106 1.433 . S
N86 C112 1.435 . S
N86 C118 1.423 . S
H87 C123 0.932 . S
C88 N63 1.433 . S
C88 C89 1.363 . S
C88 C93 1.370 . S
C89 H62 0.929 . S
C89 C88 1.363 . S
C89 C90 1.385 . S
C90 H64 0.930 . S
C90 C89 1.385 . S
C90 C91 1.357 . S
C91 C90 1.357 . S
C91 C92 1.406 . S
C92 H66 0.929 . S
C92 C91 1.406 . S
C92 C93 1.391 . S
C93 H65 0.931 . S
C93 C88 1.370 . S
C93 C92 1.391 . S
C94 N63 1.435 . S
C94 C95 1.358 . S
C94 C99 1.371 . S
C95 H67 0.930 . S
C95 C94 1.358 . S
C95 C96 1.405 . S
C96 H68 0.932 . S
C96 C95 1.405 . S
C96 C97 1.383 . S
C97 C96 1.383 . S
C97 C98 1.393 . S
C98 H70 0.931 . S
C98 C97 1.393 . S
C98 C99 1.382 . S
C99 H69 0.929 . S
C99 C94 1.371 . S
C99 C98 1.382 . S
C100 N63 1.423 . S
C100 C101 1.362 . S
C100 C105 1.388 . S
C101 H71 0.929 . S
C101 C100 1.362 . S
C101 C102 1.376 1_655 S
C102 H73 0.931 . S
C102 C101 1.376 1_455 S
C102 C103 1.396 . S
C103 C102 1.396 . S
C103 C104 1.348 1_455 S
C103 C121 1.472 . S
C104 H74 0.929 . S
C104 C103 1.348 1_655 S
C104 C105 1.443 . S
C105 H72 0.932 . S
C105 C100 1.388 . S
C105 C104 1.443 . S
C106 N86 1.433 . S
C106 C107 1.363 . S
C106 C111 1.370 . S
C107 H75 0.929 . S
C107 C106 1.363 . S
C107 C108 1.385 . S
C108 H76 0.930 . S
C108 C107 1.385 . S
C108 C109 1.357 . S
C109 C108 1.357 . S
C109 C110 1.406 . S
C110 H77 0.929 . S
C110 C109 1.406 . S
C110 C111 1.391 . S
C111 H78 0.931 . S
C111 C106 1.370 . S
C111 C110 1.391 . S
C112 N86 1.435 . S
C112 C113 1.358 . S
C112 C117 1.371 . S
C113 H79 0.930 . S
C113 C112 1.358 . S
C113 C114 1.405 . S
C114 H80 0.932 . S
C114 C113 1.405 . S
C114 C115 1.383 . S
C115 C114 1.383 . S
C115 C116 1.393 . S
C116 H81 0.931 . S
C116 C115 1.393 . S
C116 C117 1.382 . S
C117 H82 0.929 . S
C117 C112 1.371 . S
C117 C116 1.382 . S
C118 N86 1.423 . S
C118 C119 1.362 . S
C118 C123 1.388 . S
C119 H83 0.929 . S
C119 C118 1.362 . S
C119 C120 1.376 . S
C120 H84 0.931 . S
C120 C119 1.376 . S
C120 C121 1.396 . S
C121 C103 1.472 . S
C121 C120 1.396 . S
C121 C122 1.348 . S
C122 H85 0.929 . S
C122 C121 1.348 . S
C122 C123 1.443 . S
C123 H87 0.932 . S
C123 C118 1.388 . S
C123 C122 1.443 . S
H124 C151 0.929 . S
N125 C150 1.433 . S
N125 C156 1.435 . S
N125 C162 1.423 . S
H126 C152 0.930 . S
H127 C155 0.931 . S
H128 C154 0.929 . S
H129 C157 0.930 . S
H130 C158 0.932 . S
H131 C161 0.929 . S
H132 C160 0.931 . S
H133 C163 0.929 . S
H134 C167 0.932 . S
H135 C164 0.931 . S
H136 C166 0.929 . S
H137 C169 0.929 . S
H138 C170 0.930 . S
H139 C172 0.929 . S
H140 C173 0.931 . S
H141 C175 0.930 . S
H142 C176 0.932 . S
H143 C178 0.931 . S
H144 C179 0.929 . S
H145 C181 0.929 . S
H146 C182 0.931 . S
H147 C184 0.929 . S
N148 C168 1.433 . S
N148 C174 1.435 . S
N148 C180 1.423 . S
H149 C185 0.932 . S
C150 N125 1.433 . S
C150 C151 1.363 . S
C150 C155 1.370 . S
C151 H124 0.929 . S
C151 C150 1.363 . S
C151 C152 1.385 . S
C152 H126 0.930 . S
C152 C151 1.385 . S
C152 C153 1.357 . S
C153 C152 1.357 . S
C153 C154 1.406 . S
C154 H128 0.929 . S
C154 C153 1.406 . S
C154 C155 1.391 . S
C155 H127 0.931 . S
C155 C150 1.370 . S
C155 C154 1.391 . S
C156 N125 1.435 . S
C156 C157 1.358 . S
C156 C161 1.371 . S
C157 H129 0.930 . S
C157 C156 1.358 . S
C157 C158 1.405 . S
C158 H130 0.932 . S
C158 C157 1.405 . S
C158 C159 1.383 . S
C159 C158 1.383 . S
C159 C160 1.393 . S
C160 H132 0.931 . S
C160 C159 1.393 . S
C160 C161 1.382 . S
C161 H131 0.929 . S
C161 C156 1.371 . S
C161 C160 1.382 . S
C162 N125 1.423 . S
C162 C163 1.362 . S
C162 C167 1.388 . S
C163 H133 0.929 . S
C163 C162 1.362 . S
C163 C164 1.376 . S
C164 H135 0.931 . S
C164 C163 1.376 . S
C164 C165 1.396 . S
C165 C164 1.396 . S
C165 C166 1.348 . S
C165 C183 1.472 . S
C166 H136 0.929 . S
C166 C165 1.348 . S
C166 C167 1.443 . S
C167 H134 0.932 . S
C167 C162 1.388 . S
C167 C166 1.443 . S
C168 N148 1.433 . S
C168 C169 1.363 . S
C168 C173 1.370 . S
C169 H137 0.929 . S
C169 C168 1.363 . S
C169 C170 1.385 . S
C170 H138 0.930 . S
C170 C169 1.385 . S
C170 C171 1.357 . S
C171 C170 1.357 . S
C171 C172 1.406 . S
C172 H139 0.929 . S
C172 C171 1.406 . S
C172 C173 1.391 . S
C173 H140 0.931 . S
C173 C168 1.370 . S
C173 C172 1.391 . S
C174 N148 1.435 . S
C174 C175 1.358 . S
C174 C179 1.371 . S
C175 H141 0.930 . S
C175 C174 1.358 . S
C175 C176 1.405 . S
C176 H142 0.932 . S
C176 C175 1.405 . S
C176 C177 1.383 . S
C177 C176 1.383 . S
C177 C178 1.393 . S
C178 H143 0.931 . S
C178 C177 1.393 . S
C178 C179 1.382 . S
C179 H144 0.929 . S
C179 C174 1.371 . S
C179 C178 1.382 . S
C180 N148 1.423 . S
C180 C181 1.362 . S
C180 C185 1.388 . S
C181 H145 0.929 . S
C181 C180 1.362 . S
C181 C182 1.376 . S
C182 H146 0.931 . S
C182 C181 1.376 . S
C182 C183 1.396 . S
C183 C165 1.472 . S
C183 C182 1.396 . S
C183 C184 1.348 . S
C184 H147 0.929 . S
C184 C183 1.348 . S
C184 C185 1.443 . S
C185 H149 0.932 . S
C185 C180 1.388 . S
C185 C184 1.443 . S
H186 C213 0.929 . S
N187 C212 1.433 . S
N187 C218 1.435 . S
N187 C224 1.423 . S
H188 C214 0.930 . S
H189 C217 0.931 . S
H190 C216 0.929 . S
H191 C219 0.930 . S
H192 C220 0.932 . S
H193 C223 0.929 . S
H194 C222 0.931 . S
H195 C225 0.929 . S
H196 C229 0.932 . S
H197 C226 0.931 . S
H198 C228 0.929 . S
H199 C231 0.929 . S
H200 C232 0.930 . S
H201 C234 0.929 . S
H202 C235 0.931 . S
H203 C237 0.930 . S
H204 C238 0.932 . S
H205 C240 0.931 . S
H206 C241 0.929 . S
H207 C243 0.929 . S
H208 C244 0.931 1_565 S
H209 C246 0.929 . S
N210 C230 1.433 . S
N210 C236 1.435 . S
N210 C242 1.423 . S
H211 C247 0.932 . S
C212 N187 1.433 . S
C212 C213 1.363 . S
C212 C217 1.370 . S
C213 H186 0.929 . S
C213 C212 1.363 . S
C213 C214 1.385 . S
C214 H188 0.930 . S
C214 C213 1.385 . S
C214 C215 1.357 . S
C215 C214 1.357 . S
C215 C216 1.406 . S
C216 H190 0.929 . S
C216 C215 1.406 . S
C216 C217 1.391 . S
C217 H189 0.931 . S
C217 C212 1.370 . S
C217 C216 1.391 . S
C218 N187 1.435 . S
C218 C219 1.358 . S
C218 C223 1.371 . S
C219 H191 0.930 . S
C219 C218 1.358 . S
C219 C220 1.405 . S
C220 H192 0.932 . S
C220 C219 1.405 . S
C220 C221 1.383 . S
C221 C220 1.383 . S
C221 C222 1.393 . S
C222 H194 0.931 . S
C222 C221 1.393 . S
C222 C223 1.382 . S
C223 H193 0.929 . S
C223 C218 1.371 . S
C223 C222 1.382 . S
C224 N187 1.423 . S
C224 C225 1.362 . S
C224 C229 1.388 . S
C225 H195 0.929 . S
C225 C224 1.362 . S
C225 C226 1.376 . S
C226 H197 0.931 . S
C226 C225 1.376 . S
C226 C227 1.396 . S
C227 C226 1.396 . S
C227 C228 1.348 . S
C227 C245 1.472 1_565 S
C228 H198 0.929 . S
C228 C227 1.348 . S
C228 C229 1.443 . S
C229 H196 0.932 . S
C229 C224 1.388 . S
C229 C228 1.443 . S
C230 N210 1.433 . S
C230 C231 1.363 . S
C230 C235 1.370 . S
C231 H199 0.929 . S
C231 C230 1.363 . S
C231 C232 1.385 . S
C232 H200 0.930 . S
C232 C231 1.385 . S
C232 C233 1.357 . S
C233 C232 1.357 . S
C233 C234 1.406 . S
C234 H201 0.929 . S
C234 C233 1.406 . S
C234 C235 1.391 . S
C235 H202 0.931 . S
C235 C230 1.370 . S
C235 C234 1.391 . S
C236 N210 1.435 . S
C236 C237 1.358 . S
C236 C241 1.371 . S
C237 H203 0.930 . S
C237 C236 1.358 . S
C237 C238 1.405 . S
C238 H204 0.932 . S
C238 C237 1.405 . S
C238 C239 1.383 . S
C239 C238 1.383 . S
C239 C240 1.393 . S
C240 H205 0.931 . S
C240 C239 1.393 . S
C240 C241 1.382 . S
C241 H206 0.929 . S
C241 C236 1.371 . S
C241 C240 1.382 . S
C242 N210 1.423 . S
C242 C243 1.362 . S
C242 C247 1.388 . S
C243 H207 0.929 . S
C243 C242 1.362 . S
C243 C244 1.376 . S
C244 H208 0.931 1_545 S
C244 C243 1.376 . S
C244 C245 1.396 . S
C245 C227 1.472 1_545 S
C245 C244 1.396 . S
C245 C246 1.348 . S
C246 H209 0.929 . S
C246 C245 1.348 . S
C246 C247 1.443 . S
C247 H211 0.932 . S
C247 C242 1.388 . S
C247 C246 1.443 . S
H248 C275 0.929 . S
N249 C274 1.433 . S
N249 C280 1.435 . S
N249 C286 1.423 . S
H250 C276 0.930 . S
H251 C279 0.931 . S
H252 C278 0.929 . S
H253 C281 0.930 . S
H254 C282 0.932 . S
H255 C285 0.929 . S
H256 C284 0.931 . S
H257 C287 0.929 . S
H258 C291 0.932 . S
H259 C288 0.931 . S
H260 C290 0.929 . S
H261 C293 0.929 . S
H262 C294 0.930 . S
H263 C296 0.929 . S
H264 C297 0.931 . S
H265 C299 0.930 . S
H266 C300 0.932 . S
H267 C302 0.931 . S
H268 C303 0.929 . S
H269 C305 0.929 . S
H270 C306 0.931 1_455 S
H271 C308 0.929 . S
N272 C292 1.433 . S
N272 C298 1.435 . S
N272 C304 1.423 . S
H273 C309 0.932 . S
C274 N249 1.433 . S
C274 C275 1.363 . S
C274 C279 1.370 . S
C275 H248 0.929 . S
C275 C274 1.363 . S
C275 C276 1.385 . S
C276 H250 0.930 . S
C276 C275 1.385 . S
C276 C277 1.357 . S
C277 C276 1.357 . S
C277 C278 1.406 . S
C278 H252 0.929 . S
C278 C277 1.406 . S
C278 C279 1.391 . S
C279 H251 0.931 . S
C279 C274 1.370 . S
C279 C278 1.391 . S
C280 N249 1.435 . S
C280 C281 1.358 . S
C280 C285 1.371 . S
C281 H253 0.930 . S
C281 C280 1.358 . S
C281 C282 1.405 . S
C282 H254 0.932 . S
C282 C281 1.405 . S
C282 C283 1.383 . S
C283 C282 1.383 . S
C283 C284 1.393 . S
C284 H256 0.931 . S
C284 C283 1.393 . S
C284 C285 1.382 . S
C285 H255 0.929 . S
C285 C280 1.371 . S
C285 C284 1.382 . S
C286 N249 1.423 . S
C286 C287 1.362 . S
C286 C291 1.388 . S
C287 H257 0.929 . S
C287 C286 1.362 . S
C287 C288 1.376 . S
C288 H259 0.931 . S
C288 C287 1.376 . S
C288 C289 1.396 . S
C289 C288 1.396 . S
C289 C290 1.348 . S
C289 C307 1.472 . S
C290 H260 0.929 . S
C290 C289 1.348 . S
C290 C291 1.443 . S
C291 H258 0.932 . S
C291 C286 1.388 . S
C291 C290 1.443 . S
C292 N272 1.433 . S
C292 C293 1.363 . S
C292 C297 1.370 . S
C293 H261 0.929 . S
C293 C292 1.363 . S
C293 C294 1.385 . S
C294 H262 0.930 . S
C294 C293 1.385 . S
C294 C295 1.357 . S
C295 C294 1.357 . S
C295 C296 1.406 . S
C296 H263 0.929 . S
C296 C295 1.406 . S
C296 C297 1.391 . S
C297 H264 0.931 . S
C297 C292 1.370 . S
C297 C296 1.391 . S
C298 N272 1.435 . S
C298 C299 1.358 . S
C298 C303 1.371 . S
C299 H265 0.930 . S
C299 C298 1.358 . S
C299 C300 1.405 . S
C300 H266 0.932 . S
C300 C299 1.405 . S
C300 C301 1.383 . S
C301 C300 1.383 . S
C301 C302 1.393 . S
C302 H267 0.931 . S
C302 C301 1.393 . S
C302 C303 1.382 . S
C303 H268 0.929 . S
C303 C298 1.371 . S
C303 C302 1.382 . S
C304 N272 1.423 . S
C304 C305 1.362 . S
C304 C309 1.388 . S
C305 H269 0.929 . S
C305 C304 1.362 . S
C305 C306 1.376 . S
C306 H270 0.931 1_655 S
C306 C305 1.376 . S
C306 C307 1.396 1_655 S
C307 C289 1.472 . S
C307 C306 1.396 1_455 S
C307 C308 1.348 1_455 S
C308 H271 0.929 . S
C308 C307 1.348 1_655 S
C308 C309 1.443 . S
C309 H273 0.932 . S
C309 C304 1.388 . S
C309 C308 1.443 . S
H310 C337 0.929 . S
N311 C336 1.433 . S
N311 C342 1.435 . S
N311 C348 1.423 . S
H312 C338 0.930 . S
H313 C341 0.931 . S
H314 C340 0.929 . S
H315 C343 0.930 . S
H316 C344 0.932 . S
H317 C347 0.929 . S
H318 C346 0.931 . S
H319 C349 0.929 . S
H320 C353 0.932 . S
H321 C350 0.931 . S
H322 C352 0.929 . S
H323 C355 0.929 . S
H324 C356 0.930 . S
H325 C358 0.929 . S
H326 C359 0.931 . S
H327 C361 0.930 . S
H328 C362 0.932 . S
H329 C364 0.931 . S
H330 C365 0.929 . S
H331 C367 0.929 . S
H332 C368 0.931 . S
H333 C370 0.929 . S
N334 C354 1.433 . S
N334 C360 1.435 . S
N334 C366 1.423 . S
H335 C371 0.932 . S
C336 N311 1.433 . S
C336 C337 1.363 . S
C336 C341 1.370 . S
C337 H310 0.929 . S
C337 C336 1.363 . S
C337 C338 1.385 . S
C338 H312 0.930 . S
C338 C337 1.385 . S
C338 C339 1.357 . S
C339 C338 1.357 . S
C339 C340 1.406 . S
C340 H314 0.929 . S
C340 C339 1.406 . S
C340 C341 1.391 . S
C341 H313 0.931 . S
C341 C336 1.370 . S
C341 C340 1.391 . S
C342 N311 1.435 . S
C342 C343 1.358 . S
C342 C347 1.371 . S
C343 H315 0.930 . S
C343 C342 1.358 . S
C343 C344 1.405 . S
C344 H316 0.932 . S
C344 C343 1.405 . S
C344 C345 1.383 . S
C345 C344 1.383 . S
C345 C346 1.393 . S
C346 H318 0.931 . S
C346 C345 1.393 . S
C346 C347 1.382 . S
C347 H317 0.929 . S
C347 C342 1.371 . S
C347 C346 1.382 . S
C348 N311 1.423 . S
C348 C349 1.362 . S
C348 C353 1.388 . S
C349 H319 0.929 . S
C349 C348 1.362 . S
C349 C350 1.376 . S
C350 H321 0.931 . S
C350 C349 1.376 . S
C350 C351 1.396 . S
C351 C350 1.396 . S
C351 C352 1.348 . S
C351 C369 1.472 . S
C352 H322 0.929 . S
C352 C351 1.348 . S
C352 C353 1.443 . S
C353 H320 0.932 . S
C353 C348 1.388 . S
C353 C352 1.443 . S
C354 N334 1.433 . S
C354 C355 1.363 . S
C354 C359 1.370 . S
C355 H323 0.929 . S
C355 C354 1.363 . S
C355 C356 1.385 . S
C356 H324 0.930 . S
C356 C355 1.385 . S
C356 C357 1.357 . S
C357 C356 1.357 . S
C357 C358 1.406 . S
C358 H325 0.929 . S
C358 C357 1.406 . S
C358 C359 1.391 . S
C359 H326 0.931 . S
C359 C354 1.370 . S
C359 C358 1.391 . S
C360 N334 1.435 . S
C360 C361 1.358 . S
C360 C365 1.371 . S
C361 H327 0.930 . S
C361 C360 1.358 . S
C361 C362 1.405 . S
C362 H328 0.932 . S
C362 C361 1.405 . S
C362 C363 1.383 . S
C363 C362 1.383 . S
C363 C364 1.393 . S
C364 H329 0.931 . S
C364 C363 1.393 . S
C364 C365 1.382 . S
C365 H330 0.929 . S
C365 C360 1.371 . S
C365 C364 1.382 . S
C366 N334 1.423 . S
C366 C367 1.362 . S
C366 C371 1.388 . S
C367 H331 0.929 . S
C367 C366 1.362 . S
C367 C368 1.376 . S
C368 H332 0.931 . S
C368 C367 1.376 . S
C368 C369 1.396 . S
C369 C351 1.472 . S
C369 C368 1.396 . S
C369 C370 1.348 . S
C370 H333 0.929 . S
C370 C369 1.348 . S
C370 C371 1.443 . S
C371 H335 0.932 . S
C371 C366 1.388 . S
C371 C370 1.443 . S
H372 C399 0.929 . S
N373 C398 1.433 . S
N373 C404 1.435 . S
N373 C410 1.423 . S
H374 C400 0.930 . S
H375 C403 0.931 . S
H376 C402 0.929 . S
H377 C405 0.930 . S
H378 C406 0.932 . S
H379 C409 0.929 . S
H380 C408 0.931 . S
H381 C411 0.929 . S
H382 C415 0.932 . S
H383 C412 0.931 . S
H384 C414 0.929 . S
H385 C417 0.929 . S
H386 C418 0.930 . S
H387 C420 0.929 . S
H388 C421 0.931 . S
H389 C423 0.930 . S
H390 C424 0.932 . S
H391 C426 0.931 . S
H392 C427 0.929 . S
H393 C429 0.929 . S
H394 C430 0.931 . S
H395 C432 0.929 . S
N396 C416 1.433 . S
N396 C422 1.435 . S
N396 C428 1.423 . S
H397 C433 0.932 . S
C398 N373 1.433 . S
C398 C399 1.363 . S
C398 C403 1.370 . S
C399 H372 0.929 . S
C399 C398 1.363 . S
C399 C400 1.385 . S
C400 H374 0.930 . S
C400 C399 1.385 . S
C400 C401 1.357 . S
C401 C400 1.357 . S
C401 C402 1.406 . S
C402 H376 0.929 . S
C402 C401 1.406 . S
C402 C403 1.391 . S
C403 H375 0.931 . S
C403 C398 1.370 . S
C403 C402 1.391 . S
C404 N373 1.435 . S
C404 C405 1.358 . S
C404 C409 1.371 . S
C405 H377 0.930 . S
C405 C404 1.358 . S
C405 C406 1.405 . S
C406 H378 0.932 . S
C406 C405 1.405 . S
C406 C407 1.383 . S
C407 C406 1.383 . S
C407 C408 1.393 . S
C408 H380 0.931 . S
C408 C407 1.393 . S
C408 C409 1.382 . S
C409 H379 0.929 . S
C409 C404 1.371 . S
C409 C408 1.382 . S
C410 N373 1.423 . S
C410 C411 1.362 . S
C410 C415 1.388 . S
C411 H381 0.929 . S
C411 C410 1.362 . S
C411 C412 1.376 1_565 S
C412 H383 0.931 . S
C412 C411 1.376 1_545 S
C412 C413 1.396 . S
C413 C412 1.396 . S
C413 C414 1.348 1_545 S
C413 C431 1.472 . S
C414 H384 0.929 . S
C414 C413 1.348 1_565 S
C414 C415 1.443 . S
C415 H382 0.932 . S
C415 C410 1.388 . S
C415 C414 1.443 . S
C416 N396 1.433 . S
C416 C417 1.363 . S
C416 C421 1.370 . S
C417 H385 0.929 . S
C417 C416 1.363 . S
C417 C418 1.385 . S
C418 H386 0.930 . S
C418 C417 1.385 . S
C418 C419 1.357 . S
C419 C418 1.357 . S
C419 C420 1.406 . S
C420 H387 0.929 . S
C420 C419 1.406 . S
C420 C421 1.391 . S
C421 H388 0.931 . S
C421 C416 1.370 . S
C421 C420 1.391 . S
C422 N396 1.435 . S
C422 C423 1.358 . S
C422 C427 1.371 . S
C423 H389 0.930 . S
C423 C422 1.358 . S
C423 C424 1.405 . S
C424 H390 0.932 . S
C424 C423 1.405 . S
C424 C425 1.383 . S
C425 C424 1.383 . S
C425 C426 1.393 . S
C426 H391 0.931 . S
C426 C425 1.393 . S
C426 C427 1.382 . S
C427 H392 0.929 . S
C427 C422 1.371 . S
C427 C426 1.382 . S
C428 N396 1.423 . S
C428 C429 1.362 . S
C428 C433 1.388 . S
C429 H393 0.929 . S
C429 C428 1.362 . S
C429 C430 1.376 . S
C430 H394 0.931 . S
C430 C429 1.376 . S
C430 C431 1.396 . S
C431 C413 1.472 . S
C431 C430 1.396 . S
C431 C432 1.348 . S
C432 H395 0.929 . S
C432 C431 1.348 . S
C432 C433 1.443 . S
C433 H397 0.932 . S
C433 C428 1.388 . S
C433 C432 1.443 . S
H434 C461 0.929 . S
N435 C460 1.433 . S
N435 C466 1.435 . S
N435 C472 1.423 . S
H436 C462 0.930 . S
H437 C465 0.931 . S
H438 C464 0.929 . S
H439 C467 0.930 . S
H440 C468 0.932 . S
H441 C471 0.929 . S
H442 C470 0.931 . S
H443 C473 0.929 . S
H444 C477 0.932 . S
H445 C474 0.931 . S
H446 C476 0.929 . S
H447 C479 0.929 . S
H448 C480 0.930 . S
H449 C482 0.929 . S
H450 C483 0.931 . S
H451 C485 0.930 . S
H452 C486 0.932 . S
H453 C488 0.931 . S
H454 C489 0.929 . S
H455 C491 0.929 . S
H456 C492 0.931 1_565 S
H457 C494 0.929 . S
N458 C478 1.433 . S
N458 C484 1.435 . S
N458 C490 1.423 . S
H459 C495 0.932 . S
C460 N435 1.433 . S
C460 C461 1.363 . S
C460 C465 1.370 . S
C461 H434 0.929 . S
C461 C460 1.363 . S
C461 C462 1.385 . S
C462 H436 0.930 . S
C462 C461 1.385 . S
C462 C463 1.357 . S
C463 C462 1.357 . S
C463 C464 1.406 . S
C464 H438 0.929 . S
C464 C463 1.406 . S
C464 C465 1.391 . S
C465 H437 0.931 . S
C465 C460 1.370 . S
C465 C464 1.391 . S
C466 N435 1.435 . S
C466 C467 1.358 . S
C466 C471 1.371 . S
C467 H439 0.930 . S
C467 C466 1.358 . S
C467 C468 1.405 . S
C468 H440 0.932 . S
C468 C467 1.405 . S
C468 C469 1.383 . S
C469 C468 1.383 . S
C469 C470 1.393 . S
C470 H442 0.931 . S
C470 C469 1.393 . S
C470 C471 1.382 . S
C471 H441 0.929 . S
C471 C466 1.371 . S
C471 C470 1.382 . S
C472 N435 1.423 . S
C472 C473 1.362 . S
C472 C477 1.388 . S
C473 H443 0.929 . S
C473 C472 1.362 . S
C473 C474 1.376 1_455 S
C474 H445 0.931 . S
C474 C473 1.376 1_655 S
C474 C475 1.396 . S
C475 C474 1.396 . S
C475 C476 1.348 1_655 S
C475 C493 1.467 1_565 S
C476 H446 0.929 . S
C476 C475 1.348 1_455 S
C476 C477 1.443 . S
C477 H444 0.932 . S
C477 C472 1.388 . S
C477 C476 1.443 . S
C478 N458 1.433 . S
C478 C479 1.363 . S
C478 C483 1.370 . S
C479 H447 0.929 . S
C479 C478 1.363 . S
C479 C480 1.385 . S
C480 H448 0.930 . S
C480 C479 1.385 . S
C480 C481 1.357 . S
C481 C480 1.357 . S
C481 C482 1.406 . S
C482 H449 0.929 . S
C482 C481 1.406 . S
C482 C483 1.391 . S
C483 H450 0.931 . S
C483 C478 1.370 . S
C483 C482 1.391 . S
C484 N458 1.435 . S
C484 C485 1.358 . S
C484 C489 1.371 . S
C485 H451 0.930 . S
C485 C484 1.358 . S
C485 C486 1.405 . S
C486 H452 0.932 . S
C486 C485 1.405 . S
C486 C487 1.383 . S
C487 C486 1.383 . S
C487 C488 1.393 . S
C488 H453 0.931 . S
C488 C487 1.393 . S
C488 C489 1.382 . S
C489 H454 0.929 . S
C489 C484 1.371 . S
C489 C488 1.382 . S
C490 N458 1.423 . S
C490 C491 1.362 . S
C490 C495 1.388 . S
C491 H455 0.929 . S
C491 C490 1.362 . S
C491 C492 1.376 . S
C492 H456 0.931 1_545 S
C492 C491 1.376 . S
C492 C493 1.397 . S
C493 C475 1.467 1_545 S
C493 C492 1.397 . S
C493 C494 1.353 . S
C494 H457 0.929 . S
C494 C493 1.353 . S
C494 C495 1.443 . S
C495 H459 0.932 . S
C495 C490 1.388 . S
C495 C494 1.443 . S
In496 O497 2.307 . S
In496 O498 2.341 . S
In496 O502 2.254 1_554 S
In496 O503 2.313 1_554 S
In496 O504 2.232 1_554 S
In496 O505 2.273 1_554 S
In496 O507 2.329 . S
In496 O508 2.379 . S
O497 In496 2.307 . S
O497 C506 1.240 . S
O498 In496 2.341 . S
O498 C506 1.252 . S
C499 O502 1.252 . S
C499 O503 1.260 . S
C500 O507 1.240 . S
C500 O508 1.252 . S
C501 O504 1.252 . S
C501 O505 1.260 . S
O502 In496 2.254 1_556 S
O502 C499 1.252 . S
O503 In496 2.313 1_556 S
O503 C499 1.260 . S
O504 In496 2.232 1_556 S
O504 C501 1.252 . S
O505 In496 2.273 1_556 S
O505 C501 1.260 . S
C506 O497 1.240 . S
C506 O498 1.252 . S
O507 In496 2.329 . S
O507 C500 1.240 . S
O508 In496 2.379 . S
O508 C500 1.252 . S
In509 O510 2.294 . S
In509 O511 2.326 . S
In509 O515 2.266 . S
In509 O516 2.326 . S
In509 O517 2.266 . S
In509 O518 2.326 . S
In509 O520 2.294 . S
In509 O521 2.326 . S
O510 In509 2.294 . S
O510 C519 1.240 . S
O511 In509 2.326 . S
O511 C519 1.252 . S
C512 O515 1.252 . S
C512 O516 1.260 . S
C513 O520 1.240 . S
C513 O521 1.252 . S
C514 O517 1.252 . S
C514 O518 1.260 . S
O515 In509 2.266 . S
O515 C512 1.252 . S
O516 In509 2.326 . S
O516 C512 1.260 . S
O517 In509 2.266 . S
O517 C514 1.252 . S
O518 In509 2.326 . S
O518 C514 1.260 . S
C519 O510 1.240 . S
C519 O511 1.252 . S
O520 In509 2.294 . S
O520 C513 1.240 . S
O521 In509 2.326 . S
O521 C513 1.252 . S
In522 O523 2.294 . S
In522 O524 2.326 . S
In522 O528 2.266 . S
In522 O529 2.326 . S
In522 O530 2.266 . S
In522 O531 2.326 . S
In522 O533 2.294 . S
In522 O534 2.326 . S
O523 In522 2.294 . S
O523 C532 1.240 . S
O524 In522 2.326 . S
O524 C532 1.252 . S
C525 O528 1.252 . S
C525 O529 1.260 . S
C526 O533 1.240 . S
C526 O534 1.252 . S
C527 O530 1.252 . S
C527 O531 1.260 . S
O528 In522 2.266 . S
O528 C525 1.252 . S
O529 In522 2.326 . S
O529 C525 1.260 . S
O530 In522 2.266 . S
O530 C527 1.252 . S
O531 In522 2.326 . S
O531 C527 1.260 . S
C532 O523 1.240 . S
C532 O524 1.252 . S
O533 In522 2.294 . S
O533 C526 1.240 . S
O534 In522 2.326 . S
O534 C526 1.252 . S
In535 O536 2.294 . S
In535 O537 2.326 . S
In535 O541 2.266 . S
In535 O542 2.326 . S
In535 O543 2.266 . S
In535 O544 2.326 . S
In535 O546 2.294 . S
In535 O547 2.326 . S
O536 In535 2.294 . S
O536 C545 1.240 . S
O537 In535 2.326 . S
O537 C545 1.252 . S
C538 O541 1.252 . S
C538 O542 1.260 . S
C539 O546 1.240 . S
C539 O547 1.252 . S
C540 O543 1.252 . S
C540 O544 1.260 . S
O541 In535 2.266 . S
O541 C538 1.252 . S
O542 In535 2.326 . S
O542 C538 1.260 . S
O543 In535 2.266 . S
O543 C540 1.252 . S
O544 In535 2.326 . S
O544 C540 1.260 . S
C545 O536 1.240 . S
C545 O537 1.252 . S
O546 In535 2.294 . S
O546 C539 1.240 . S
O547 In535 2.326 . S
O547 C539 1.252 . S
In548 O549 2.294 . S
In548 O550 2.326 . S
In548 O554 2.266 . S
In548 O555 2.326 . S
In548 O556 2.266 . S
In548 O557 2.326 . S
In548 O559 2.294 . S
In548 O560 2.326 . S
O549 In548 2.294 . S
O549 C558 1.240 . S
O550 In548 2.326 . S
O550 C558 1.252 . S
C551 O554 1.252 . S
C551 O555 1.260 . S
C552 O559 1.240 . S
C552 O560 1.252 . S
C553 O556 1.252 . S
C553 O557 1.260 . S
O554 In548 2.266 . S
O554 C551 1.252 . S
O555 In548 2.326 . S
O555 C551 1.260 . S
O556 In548 2.266 . S
O556 C553 1.252 . S
O557 In548 2.326 . S
O557 C553 1.260 . S
C558 O549 1.240 . S
C558 O550 1.252 . S
O559 In548 2.294 . S
O559 C552 1.240 . S
O560 In548 2.326 . S
O560 C552 1.252 . S
In561 O562 2.294 . S
In561 O563 2.326 . S
In561 O567 2.266 . S
In561 O568 2.326 . S
In561 O569 2.266 . S
In561 O570 2.326 . S
In561 O572 2.294 . S
In561 O573 2.326 . S
O562 In561 2.294 . S
O562 C571 1.240 . S
O563 In561 2.326 . S
O563 C571 1.252 . S
C564 O567 1.252 . S
C564 O568 1.260 . S
C565 O572 1.240 . S
C565 O573 1.252 . S
C566 O569 1.252 . S
C566 O570 1.260 . S
O567 In561 2.266 . S
O567 C564 1.252 . S
O568 In561 2.326 . S
O568 C564 1.260 . S
O569 In561 2.266 . S
O569 C566 1.252 . S
O570 In561 2.326 . S
O570 C566 1.260 . S
C571 O562 1.240 . S
C571 O563 1.252 . S
O572 In561 2.294 . S
O572 C565 1.240 . S
O573 In561 2.326 . S
O573 C565 1.252 . S
In574 O575 2.307 . S
In574 O576 2.341 . S
In574 O580 2.253 1_554 S
In574 O581 2.313 1_554 S
In574 O582 2.231 1_554 S
In574 O583 2.272 1_554 S
In574 O585 2.330 . S
In574 O586 2.380 . S
O575 In574 2.307 . S
O575 C584 1.240 . S
O576 In574 2.341 . S
O576 C584 1.252 . S
C577 O580 1.252 . S
C577 O581 1.260 . S
C578 O585 1.240 . S
C578 O586 1.252 . S
C579 O582 1.252 . S
C579 O583 1.260 . S
O580 In574 2.253 1_556 S
O580 C577 1.252 . S
O581 In574 2.313 1_556 S
O581 C577 1.260 . S
O582 In574 2.231 1_556 S
O582 C579 1.252 . S
O583 In574 2.272 1_556 S
O583 C579 1.260 . S
C584 O575 1.240 . S
C584 O576 1.252 . S
O585 In574 2.330 . S
O585 C578 1.240 . S
O586 In574 2.380 . S
O586 C578 1.252 . S
In587 O588 2.294 . S
In587 O589 2.326 . S
In587 O593 2.266 . S
In587 O594 2.326 . S
In587 O595 2.266 . S
In587 O596 2.326 . S
In587 O598 2.294 . S
In587 O599 2.326 . S
O588 In587 2.294 . S
O588 C597 1.240 . S
O589 In587 2.326 . S
O589 C597 1.252 . S
C590 O593 1.252 . S
C590 O594 1.260 . S
C591 O598 1.240 . S
C591 O599 1.252 . S
C592 O595 1.252 . S
C592 O596 1.260 . S
O593 In587 2.266 . S
O593 C590 1.252 . S
O594 In587 2.326 . S
O594 C590 1.260 . S
O595 In587 2.266 . S
O595 C592 1.252 . S
O596 In587 2.326 . S
O596 C592 1.260 . S
C597 O588 1.240 . S
C597 O589 1.252 . S
O598 In587 2.294 . S
O598 C591 1.240 . S
O599 In587 2.326 . S
O599 C591 1.252 . S
C600 C601 1.363 . S
C600 C606 1.379 . S
C600 N608 1.356 . S
C601 C600 1.363 . S
C601 C607 1.363 . S
C602 C603 1.363 . S
C602 C607 1.379 . S
C602 N609 1.356 . S
C603 C602 1.363 . S
C603 C606 1.363 . S
N604 C606 1.356 . S
N604 H616 0.984 . S
N604 H617 0.985 . S
N605 C607 1.356 . S
N605 H610 0.984 . S
N605 H611 0.985 . S
C606 C600 1.379 . S
C606 C603 1.363 . S
C606 N604 1.356 . S
C607 C601 1.363 . S
C607 C602 1.379 . S
C607 N605 1.356 . S
N608 C600 1.356 . S
N608 H614 0.984 . S
N608 H615 0.984 . S
N609 C602 1.356 . S
N609 H612 0.984 . S
N609 H613 0.985 . S
H610 N605 0.984 . S
H611 N605 0.985 . S
H612 N609 0.984 . S
H613 N609 0.985 . S
H614 N608 0.984 . S
H615 N608 0.984 . S
H616 N604 0.984 . S
H617 N604 0.985 . S
C618 C619 1.363 . S
C618 C624 1.379 . S
C618 N626 1.356 . S
C619 C618 1.363 . S
C619 C625 1.363 . S
C620 C621 1.363 . S
C620 C625 1.379 . S
C620 N627 1.356 . S
C621 C620 1.363 . S
C621 C624 1.363 . S
N622 C624 1.356 . S
N622 H634 0.984 . S
N622 H635 0.985 . S
N623 C625 1.356 . S
N623 H628 0.984 . S
N623 H629 0.985 . S
C624 C618 1.379 . S
C624 C621 1.363 . S
C624 N622 1.356 . S
C625 C619 1.363 . S
C625 C620 1.379 . S
C625 N623 1.356 . S
N626 C618 1.356 . S
N626 H632 0.984 . S
N626 H633 0.984 . S
N627 C620 1.356 . S
N627 H630 0.984 . S
N627 H631 0.985 . S
H628 N623 0.984 . S
H629 N623 0.985 . S
H630 N627 0.984 . S
H631 N627 0.985 . S
H632 N626 0.984 . S
H633 N626 0.984 . S
H634 N622 0.984 . S
H635 N622 0.985 . S
C636 C637 1.363 . S
C636 C642 1.379 . S
C636 N644 1.356 . S
C637 C636 1.363 . S
C637 C643 1.363 . S
C638 C639 1.363 . S
C638 C643 1.379 . S
C638 N645 1.356 . S
C639 C638 1.363 . S
C639 C642 1.363 . S
N640 C642 1.356 . S
N640 H652 0.984 . S
N640 H653 0.985 . S
N641 C643 1.356 . S
N641 H646 0.984 . S
N641 H647 0.985 . S
C642 C636 1.379 . S
C642 C639 1.363 . S
C642 N640 1.356 . S
C643 C637 1.363 . S
C643 C638 1.379 . S
C643 N641 1.356 . S
N644 C636 1.356 . S
N644 H650 0.984 . S
N644 H651 0.984 . S
N645 C638 1.356 . S
N645 H648 0.984 . S
N645 H649 0.985 . S
H646 N641 0.984 . S
H647 N641 0.985 . S
H648 N645 0.984 . S
H649 N645 0.985 . S
H650 N644 0.984 . S
H651 N644 0.984 . S
H652 N640 0.984 . S
H653 N640 0.985 . S
C654 C655 1.363 . S
C654 C660 1.379 . S
C654 N662 1.356 1_554 S
C655 C654 1.363 . S
C655 C661 1.363 . S
C656 C657 1.363 . S
C656 C661 1.379 . S
C656 N663 1.356 . S
C657 C656 1.363 . S
C657 C660 1.363 . S
N658 C660 1.356 1_556 S
N658 H670 0.984 . S
N658 H671 0.985 . S
N659 C661 1.356 . S
N659 H664 0.984 . S
N659 H665 0.985 . S
C660 C654 1.379 . S
C660 C657 1.363 . S
C660 N658 1.356 1_554 S
C661 C655 1.363 . S
C661 C656 1.379 . S
C661 N659 1.356 . S
N662 C654 1.356 1_556 S
N662 H668 0.984 . S
N662 H669 0.996 . S
N663 C656 1.356 . S
N663 H666 0.984 . S
N663 H667 0.985 . S
H664 N659 0.984 . S
H665 N659 0.985 . S
H666 N663 0.984 . S
H667 N663 0.985 . S
H668 N662 0.984 . S
H669 N662 0.996 . S
H670 N658 0.984 . S
H671 N658 0.985 . S
C672 C673 1.363 . S
C672 C678 1.379 . S
C672 N680 1.356 . S
C673 C672 1.363 . S
C673 C679 1.363 . S
C674 C675 1.385 . S
C674 C679 1.382 . S
C674 N681 1.336 1_556 S
C675 C674 1.385 . S
C675 C678 1.363 . S
N676 C678 1.356 . S
N676 H688 0.984 . S
N676 H689 0.985 . S
N677 C679 1.356 1_554 S
N677 H682 0.984 . S
N677 H683 0.985 . S
C678 C672 1.379 . S
C678 C675 1.363 . S
C678 N676 1.356 . S
C679 C673 1.363 . S
C679 C674 1.382 . S
C679 N677 1.356 1_556 S
N680 C672 1.356 . S
N680 H686 0.984 . S
N680 H687 0.984 . S
N681 C674 1.336 1_554 S
N681 H684 0.984 . S
N681 H685 0.985 . S
H682 N677 0.984 . S
H683 N677 0.985 . S
H684 N681 0.984 . S
H685 N681 0.985 . S
H686 N680 0.984 . S
H687 N680 0.984 . S
H688 N676 0.984 . S
H689 N676 0.985 . S
C690 C691 1.363 . S
C690 C696 1.379 . S
C690 N698 1.356 . S
C691 C690 1.363 . S
C691 C697 1.363 . S
C692 C693 1.363 . S
C692 C697 1.379 . S
C692 N699 1.356 . S
C693 C692 1.363 . S
C693 C696 1.363 . S
N694 C696 1.356 . S
N694 H706 0.984 . S
N694 H707 0.985 . S
N695 C697 1.356 . S
N695 H700 0.984 . S
N695 H701 0.985 . S
C696 C690 1.379 . S
C696 C693 1.363 . S
C696 N694 1.356 . S
C697 C691 1.363 . S
C697 C692 1.379 . S
C697 N695 1.356 . S
N698 C690 1.356 . S
N698 H704 0.984 . S
N698 H705 0.984 . S
N699 C692 1.356 . S
N699 H702 0.984 . S
N699 H703 0.985 . S
H700 N695 0.984 . S
H701 N695 0.985 . S
H702 N699 0.984 . S
H703 N699 0.985 . S
H704 N698 0.984 . S
H705 N698 0.984 . S
H706 N694 0.984 . S
H707 N694 0.985 . S
C708 C709 1.363 . S
C708 C714 1.379 . S
C708 N716 1.356 . S
C709 C708 1.363 . S
C709 C715 1.363 . S
C710 C711 1.363 . S
C710 C715 1.379 . S
C710 N717 1.356 . S
C711 C710 1.363 . S
C711 C714 1.363 . S
N712 C714 1.356 . S
N712 H724 0.984 . S
N712 H725 0.985 . S
N713 C715 1.356 . S
N713 H718 0.984 . S
N713 H719 0.985 . S
C714 C708 1.379 . S
C714 C711 1.363 . S
C714 N712 1.356 . S
C715 C709 1.363 . S
C715 C710 1.379 . S
C715 N713 1.356 . S
N716 C708 1.356 . S
N716 H722 0.984 . S
N716 H723 0.984 . S
N717 C710 1.356 . S
N717 H720 0.984 . S
N717 H721 0.985 . S
H718 N713 0.984 . S
H719 N713 0.985 . S
H720 N717 0.984 . S
H721 N717 0.985 . S
H722 N716 0.984 . S
H723 N716 0.984 . S
H724 N712 0.984 . S
H725 N712 0.985 . S
C726 C727 1.363 . S
C726 C732 1.379 . S
C726 N734 1.356 . S
C727 C726 1.363 . S
C727 C733 1.363 . S
C728 C729 1.363 . S
C728 C733 1.379 . S
C728 N735 1.356 . S
C729 C728 1.363 . S
C729 C732 1.363 . S
N730 C732 1.356 . S
N730 H742 0.984 . S
N730 H743 0.985 . S
N731 C733 1.356 . S
N731 H736 0.984 . S
N731 H737 0.985 . S
C732 C726 1.379 . S
C732 C729 1.363 . S
C732 N730 1.356 . S
C733 C727 1.363 . S
C733 C728 1.379 . S
C733 N731 1.356 . S
N734 C726 1.356 . S
N734 H740 0.984 . S
N734 H741 0.984 . S
N735 C728 1.356 . S
N735 H738 0.984 . S
N735 H739 0.985 . S
H736 N731 0.984 . S
H737 N731 0.985 . S
H738 N735 0.984 . S
H739 N735 0.985 . S
H740 N734 0.984 . S
H741 N734 0.984 . S
H742 N730 0.984 . S
H743 N730 0.985 . S
C744 C745 1.363 . S
C744 C750 1.379 . S
C744 N752 1.356 . S
C745 C744 1.363 . S
C745 C751 1.363 . S
C746 C747 1.363 . S
C746 C751 1.379 . S
C746 N753 1.356 . S
C747 C746 1.363 . S
C747 C750 1.363 . S
N748 C750 1.356 . S
N748 H760 0.984 . S
N748 H761 0.985 . S
N749 C751 1.356 . S
N749 H754 0.984 . S
N749 H755 0.985 . S
C750 C744 1.379 . S
C750 C747 1.363 . S
C750 N748 1.356 . S
C751 C745 1.363 . S
C751 C746 1.379 . S
C751 N749 1.356 . S
N752 C744 1.356 . S
N752 H758 0.984 . S
N752 H759 0.984 . S
N753 C746 1.356 . S
N753 H756 0.984 . S
N753 H757 0.985 . S
H754 N749 0.984 . S
H755 N749 0.985 . S
H756 N753 0.984 . S
H757 N753 0.985 . S
H758 N752 0.984 . S
H759 N752 0.984 . S
H760 N748 0.984 . S
H761 N748 0.985 . S
C762 C763 1.363 . S
C762 C768 1.379 . S
C762 N770 1.356 . S
C763 C762 1.363 . S
C763 C769 1.363 . S
C764 C765 1.363 . S
C764 C769 1.379 . S
C764 N771 1.356 1_554 S
C765 C764 1.363 . S
C765 C768 1.363 . S
N766 C768 1.356 . S
N766 H778 0.984 . S
N766 H779 0.985 . S
N767 C769 1.356 1_556 S
N767 H772 0.984 . S
N767 H773 0.985 . S
C768 C762 1.379 . S
C768 C765 1.363 . S
C768 N766 1.356 . S
C769 C763 1.363 . S
C769 C764 1.379 . S
C769 N767 1.356 1_554 S
N770 C762 1.356 . S
N770 H776 0.984 . S
N770 H777 0.984 . S
N771 C764 1.356 1_556 S
N771 H774 0.984 . S
N771 H775 0.985 . S
H772 N767 0.984 . S
H773 N767 0.985 . S
H774 N771 0.984 . S
H775 N771 0.985 . S
H776 N770 0.984 . S
H777 N770 0.984 . S
H778 N766 0.984 . S
H779 N766 0.985 . S
C780 C781 1.363 . S
C780 C786 1.379 . S
C780 N788 1.356 . S
C781 C780 1.363 . S
C781 C787 1.363 . S
C782 C783 1.363 . S
C782 C787 1.379 . S
C782 N789 1.356 . S
C783 C782 1.363 . S
C783 C786 1.363 . S
N784 C786 1.356 . S
N784 H796 0.984 . S
N784 H797 0.985 . S
N785 C787 1.356 . S
N785 H790 0.984 . S
N785 H791 0.985 . S
C786 C780 1.379 . S
C786 C783 1.363 . S
C786 N784 1.356 . S
C787 C781 1.363 . S
C787 C782 1.379 . S
C787 N785 1.356 . S
N788 C780 1.356 . S
N788 H794 0.984 . S
N788 H795 0.984 . S
N789 C782 1.356 . S
N789 H792 0.984 . S
N789 H793 0.985 . S
H790 N785 0.984 . S
H791 N785 0.985 . S
H792 N789 0.984 . S
H793 N789 0.985 . S
H794 N788 0.984 . S
H795 N788 0.984 . S
H796 N784 0.984 . S
H797 N784 0.985 . S
C798 C799 1.363 . S
C798 C804 1.379 . S
C798 N806 1.356 . S
C799 C798 1.363 . S
C799 C805 1.363 . S
C800 C801 1.363 . S
C800 C805 1.379 . S
C800 N807 1.356 . S
C801 C800 1.363 . S
C801 C804 1.363 . S
N802 C804 1.356 . S
N802 H814 0.984 . S
N802 H815 0.985 . S
N803 C805 1.356 . S
N803 H808 0.984 . S
N803 H809 0.985 . S
C804 C798 1.379 . S
C804 C801 1.363 . S
C804 N802 1.356 . S
C805 C799 1.363 . S
C805 C800 1.379 . S
C805 N803 1.356 . S
N806 C798 1.356 . S
N806 H812 0.984 . S
N806 H813 0.984 . S
N807 C800 1.356 . S
N807 H810 0.984 . S
N807 H811 0.985 . S
H808 N803 0.984 . S
H809 N803 0.985 . S
H810 N807 0.984 . S
H811 N807 0.985 . S
H812 N806 0.984 . S
H813 N806 0.984 . S
H814 N802 0.984 . S
H815 N802 0.985 . S
C816 C817 1.363 . S
C816 C822 1.379 . S
C816 N824 1.356 . S
C817 C816 1.363 . S
C817 C823 1.363 . S
C818 C819 1.363 . S
C818 C823 1.379 . S
C818 N825 1.356 . S
C819 C818 1.363 . S
C819 C822 1.363 . S
N820 C822 1.356 . S
N820 H832 0.984 . S
N820 H833 0.985 . S
N821 C823 1.356 . S
N821 H826 0.984 . S
N821 H827 0.985 . S
C822 C816 1.379 . S
C822 C819 1.363 . S
C822 N820 1.356 . S
C823 C817 1.363 . S
C823 C818 1.379 . S
C823 N821 1.356 . S
N824 C816 1.356 . S
N824 H830 0.984 . S
N824 H831 0.984 . S
N825 C818 1.356 . S
N825 H828 0.984 . S
N825 H829 0.985 . S
H826 N821 0.984 . S
H827 N821 0.985 . S
H828 N825 0.984 . S
H829 N825 0.985 . S
H830 N824 0.984 . S
H831 N824 0.984 . S
H832 N820 0.984 . S
H833 N820 0.985 . S
C834 C835 1.363 . S
C834 C840 1.379 . S
C834 N842 1.356 . S
C835 C834 1.363 . S
C835 C841 1.363 . S
C836 C837 1.363 . S
C836 C841 1.379 . S
C836 N843 1.356 . S
C837 C836 1.363 . S
C837 C840 1.363 . S
N838 C840 1.356 . S
N838 H850 0.984 . S
N838 H851 0.985 . S
N839 C841 1.356 . S
N839 H844 0.984 . S
N839 H845 0.985 . S
C840 C834 1.379 . S
C840 C837 1.363 . S
C840 N838 1.356 . S
C841 C835 1.363 . S
C841 C836 1.379 . S
C841 N839 1.356 . S
N842 C834 1.356 . S
N842 H848 0.984 . S
N842 H849 0.984 . S
N843 C836 1.356 . S
N843 H846 0.984 . S
N843 H847 0.985 . S
H844 N839 0.984 . S
H845 N839 0.985 . S
H846 N843 0.984 . S
H847 N843 0.985 . S
H848 N842 0.984 . S
H849 N842 0.984 . S
H850 N838 0.984 . S
H851 N838 0.985 . S
C852 C853 1.363 . S
C852 C858 1.379 . S
C852 N860 1.356 . S
C853 C852 1.363 . S
C853 C859 1.363 . S
C854 C855 1.363 . S
C854 C859 1.379 . S
C854 N861 1.356 1_556 S
C855 C854 1.363 . S
C855 C858 1.363 . S
N856 C858 1.356 . S
N856 H868 0.984 . S
N856 H869 0.985 . S
N857 C859 1.356 1_554 S
N857 H862 0.994 . S
N857 H863 0.985 . S
C858 C852 1.379 . S
C858 C855 1.363 . S
C858 N856 1.356 . S
C859 C853 1.363 . S
C859 C854 1.379 . S
C859 N857 1.356 1_556 S
N860 C852 1.356 . S
N860 H866 0.984 . S
N860 H867 0.984 . S
N861 C854 1.356 1_554 S
N861 H864 0.984 . S
N861 H865 0.985 . S
H862 N857 0.994 . S
H863 N857 0.985 . S
H864 N861 0.984 . S
H865 N861 0.985 . S
H866 N860 0.984 . S
H867 N860 0.984 . S
H868 N856 0.984 . S
H869 N856 0.985 . S
C870 C871 1.363 . S
C870 C876 1.379 . S
C870 N878 1.356 . S
C871 C870 1.363 . S
C871 C877 1.363 . S
C872 C873 1.363 . S
C872 C877 1.379 . S
C872 N879 1.356 . S
C873 C872 1.363 . S
C873 C876 1.363 . S
N874 C876 1.356 . S
N874 H886 0.984 . S
N874 H887 0.985 . S
N875 C877 1.356 . S
N875 H880 0.984 . S
N875 H881 0.985 . S
C876 C870 1.379 . S
C876 C873 1.363 . S
C876 N874 1.356 . S
C877 C871 1.363 . S
C877 C872 1.379 . S
C877 N875 1.356 . S
N878 C870 1.356 . S
N878 H884 0.984 . S
N878 H885 0.984 . S
N879 C872 1.356 . S
N879 H882 0.984 . S
N879 H883 0.985 . S
H880 N875 0.984 . S
H881 N875 0.985 . S
H882 N879 0.984 . S
H883 N879 0.985 . S
H884 N878 0.984 . S
H885 N878 0.984 . S
H886 N874 0.984 . S
H887 N874 0.985 . S
C888 C889 1.363 . S
C888 C894 1.379 . S
C888 N896 1.356 . S
C889 C888 1.363 . S
C889 C895 1.363 . S
C890 C891 1.363 . S
C890 C895 1.379 . S
C890 N897 1.356 . S
C891 C890 1.363 . S
C891 C894 1.363 . S
N892 C894 1.356 . S
N892 H904 0.984 . S
N892 H905 0.985 . S
N893 C895 1.356 . S
N893 H898 0.984 . S
N893 H899 0.985 . S
C894 C888 1.379 . S
C894 C891 1.363 . S
C894 N892 1.356 . S
C895 C889 1.363 . S
C895 C890 1.379 . S
C895 N893 1.356 . S
N896 C888 1.356 . S
N896 H902 0.984 . S
N896 H903 0.984 . S
N897 C890 1.356 . S
N897 H900 0.984 . S
N897 H901 0.985 . S
H898 N893 0.984 . S
H899 N893 0.985 . S
H900 N897 0.984 . S
H901 N897 0.985 . S
H902 N896 0.984 . S
H903 N896 0.984 . S
H904 N892 0.984 . S
H905 N892 0.985 . S
C906 C907 1.363 . S
C906 C912 1.379 . S
C906 N914 1.356 . S
C907 C906 1.363 . S
C907 C913 1.363 . S
C908 C909 1.363 . S
C908 C913 1.379 . S
C908 N915 1.356 . S
C909 C908 1.363 . S
C909 C912 1.363 . S
N910 C912 1.356 . S
N910 H922 0.984 . S
N910 H923 0.985 . S
N911 C913 1.356 . S
N911 H916 0.984 . S
N911 H917 0.985 . S
C912 C906 1.379 . S
C912 C909 1.363 . S
C912 N910 1.356 . S
C913 C907 1.363 . S
C913 C908 1.379 . S
C913 N911 1.356 . S
N914 C906 1.356 . S
N914 H920 0.984 . S
N914 H921 0.984 . S
N915 C908 1.356 . S
N915 H918 0.984 . S
N915 H919 0.985 . S
H916 N911 0.984 . S
H917 N911 0.985 . S
H918 N915 0.984 . S
H919 N915 0.985 . S
H920 N914 0.984 . S
H921 N914 0.984 . S
H922 N910 0.984 . S
H923 N910 0.985 . S
C924 C925 1.363 . S
C924 C930 1.379 . S
C924 N932 1.356 . S
C925 C924 1.363 . S
C925 C931 1.363 . S
C926 C927 1.363 . S
C926 C931 1.379 . S
C926 N933 1.356 . S
C927 C926 1.363 . S
C927 C930 1.363 . S
N928 C930 1.356 . S
N928 H940 0.984 . S
N928 H941 0.985 . S
N929 C931 1.356 . S
N929 H934 0.984 . S
N929 H935 0.985 . S
C930 C924 1.379 . S
C930 C927 1.363 . S
C930 N928 1.356 . S
C931 C925 1.363 . S
C931 C926 1.379 . S
C931 N929 1.356 . S
N932 C924 1.356 . S
N932 H938 0.984 . S
N932 H939 0.984 . S
N933 C926 1.356 . S
N933 H936 0.984 . S
N933 H937 0.985 . S
H934 N929 0.984 . S
H935 N929 0.985 . S
H936 N933 0.984 . S
H937 N933 0.985 . S
H938 N932 0.984 . S
H939 N932 0.984 . S
H940 N928 0.984 . S
H941 N928 0.985 . S
C942 C943 1.363 . S
C942 C948 1.379 . S
C942 N950 1.356 . S
C943 C942 1.363 . S
C943 C949 1.363 . S
C944 C945 1.363 . S
C944 C949 1.379 . S
C944 N951 1.356 . S
C945 C944 1.363 . S
C945 C948 1.363 . S
N946 C948 1.356 . S
N946 H958 0.984 . S
N946 H959 0.985 . S
N947 C949 1.356 . S
N947 H952 0.984 . S
N947 H953 0.985 . S
C948 C942 1.379 . S
C948 C945 1.363 . S
C948 N946 1.356 . S
C949 C943 1.363 . S
C949 C944 1.379 . S
C949 N947 1.356 . S
N950 C942 1.356 . S
N950 H956 0.984 . S
N950 H957 0.984 . S
N951 C944 1.356 . S
N951 H954 0.984 . S
N951 H955 0.985 . S
H952 N947 0.984 . S
H953 N947 0.985 . S
H954 N951 0.984 . S
H955 N951 0.985 . S
H956 N950 0.984 . S
H957 N950 0.984 . S
H958 N946 0.984 . S
H959 N946 0.985 . S
C960 C961 1.363 . S
C960 C966 1.379 . S
C960 N968 1.356 . S
C961 C960 1.363 . S
C961 C967 1.363 . S
C962 C963 1.363 . S
C962 C967 1.379 . S
C962 N969 1.356 . S
C963 C962 1.363 . S
C963 C966 1.363 . S
N964 C966 1.356 . S
N964 H976 0.984 . S
N964 H977 0.985 . S
N965 C967 1.356 . S
N965 H970 0.984 . S
N965 H971 0.985 . S
C966 C960 1.379 . S
C966 C963 1.363 . S
C966 N964 1.356 . S
C967 C961 1.363 . S
C967 C962 1.379 . S
C967 N965 1.356 . S
N968 C960 1.356 . S
N968 H974 0.984 . S
N968 H975 0.984 . S
N969 C962 1.356 . S
N969 H972 0.984 . S
N969 H973 0.985 . S
H970 N965 0.984 . S
H971 N965 0.985 . S
H972 N969 0.984 . S
H973 N969 0.985 . S
H974 N968 0.984 . S
H975 N968 0.984 . S
H976 N964 0.984 . S
H977 N964 0.985 . S
C978 C979 1.363 . S
C978 C984 1.379 . S
C978 N986 1.356 . S
C979 C978 1.363 . S
C979 C985 1.363 . S
C980 C981 1.363 . S
C980 C985 1.379 . S
C980 N987 1.356 . S
C981 C980 1.363 . S
C981 C984 1.363 . S
N982 C984 1.356 . S
N982 H994 0.984 . S
N982 H995 0.985 . S
N983 C985 1.356 . S
N983 H988 0.984 . S
N983 H989 0.985 . S
C984 C978 1.379 . S
C984 C981 1.363 . S
C984 N982 1.356 . S
C985 C979 1.363 . S
C985 C980 1.379 . S
C985 N983 1.356 . S
N986 C978 1.356 . S
N986 H992 0.984 . S
N986 H993 0.984 . S
N987 C980 1.356 . S
N987 H990 0.984 . S
N987 H991 0.985 . S
H988 N983 0.984 . S
H989 N983 0.985 . S
H990 N987 0.984 . S
H991 N987 0.985 . S
H992 N986 0.984 . S
H993 N986 0.984 . S
H994 N982 0.984 . S
H995 N982 0.985 . S
C996 C997 1.363 . S
C996 C1002 1.379 . S
C996 N1004 1.356 . S
C997 C996 1.363 . S
C997 C1003 1.363 . S
C998 C999 1.363 . S
C998 C1003 1.379 . S
C998 N1005 1.356 . S
C999 C998 1.363 . S
C999 C1002 1.363 . S
N1000 C1002 1.356 . S
N1000 H1012 0.984 . S
N1000 H1013 0.985 . S
N1001 C1003 1.356 . S
N1001 H1006 0.984 . S
N1001 H1007 0.985 . S
C1002 C996 1.379 . S
C1002 C999 1.363 . S
C1002 N1000 1.356 . S
C1003 C997 1.363 . S
C1003 C998 1.379 . S
C1003 N1001 1.356 . S
N1004 C996 1.356 . S
N1004 H1010 0.984 . S
N1004 H1011 0.984 . S
N1005 C998 1.356 . S
N1005 H1008 0.984 . S
N1005 H1009 0.985 . S
H1006 N1001 0.984 . S
H1007 N1001 0.985 . S
H1008 N1005 0.984 . S
H1009 N1005 0.985 . S
H1010 N1004 0.984 . S
H1011 N1004 0.984 . S
H1012 N1000 0.984 . S
H1013 N1000 0.985 . S
C1014 C1015 1.363 . S
C1014 C1020 1.379 . S
C1014 N1022 1.356 . S
C1015 C1014 1.363 . S
C1015 C1021 1.363 . S
C1016 C1017 1.363 . S
C1016 C1021 1.379 . S
C1016 N1023 1.356 . S
C1017 C1016 1.363 . S
C1017 C1020 1.363 . S
N1018 C1020 1.356 . S
N1018 H1030 0.984 . S
N1018 H1031 0.985 . S
N1019 C1021 1.356 . S
N1019 H1024 0.984 . S
N1019 H1025 0.985 . S
C1020 C1014 1.379 . S
C1020 C1017 1.363 . S
C1020 N1018 1.356 . S
C1021 C1015 1.363 . S
C1021 C1016 1.379 . S
C1021 N1019 1.356 . S
N1022 C1014 1.356 . S
N1022 H1028 0.984 . S
N1022 H1029 0.984 . S
N1023 C1016 1.356 . S
N1023 H1026 0.984 . S
N1023 H1027 0.985 . S
H1024 N1019 0.984 . S
H1025 N1019 0.985 . S
H1026 N1023 0.984 . S
H1027 N1023 0.985 . S
H1028 N1022 0.984 . S
H1029 N1022 0.984 . S
H1030 N1018 0.984 . S
H1031 N1018 0.985 . S
C1032 C1033 1.363 . S
C1032 C1038 1.379 . S
C1032 N1040 1.356 . S
C1033 C1032 1.363 . S
C1033 C1039 1.363 . S
C1034 C1035 1.363 . S
C1034 C1039 1.379 . S
C1034 N1041 1.356 . S
C1035 C1034 1.363 . S
C1035 C1038 1.363 . S
N1036 C1038 1.356 . S
N1036 H1048 0.984 . S
N1036 H1049 0.985 . S
N1037 C1039 1.356 . S
N1037 H1042 0.984 . S
N1037 H1043 0.985 . S
C1038 C1032 1.379 . S
C1038 C1035 1.363 . S
C1038 N1036 1.356 . S
C1039 C1033 1.363 . S
C1039 C1034 1.379 . S
C1039 N1037 1.356 . S
N1040 C1032 1.356 . S
N1040 H1046 0.984 . S
N1040 H1047 0.984 . S
N1041 C1034 1.356 . S
N1041 H1044 0.984 . S
N1041 H1045 0.985 . S
H1042 N1037 0.984 . S
H1043 N1037 0.985 . S
H1044 N1041 0.984 . S
H1045 N1041 0.985 . S
H1046 N1040 0.984 . S
H1047 N1040 0.984 . S
H1048 N1036 0.984 . S
H1049 N1036 0.985 . S
C1050 C1051 1.363 . S
C1050 C1056 1.379 . S
C1050 N1058 1.356 . S
C1051 C1050 1.363 . S
C1051 C1057 1.363 . S
C1052 C1053 1.363 . S
C1052 C1057 1.379 . S
C1052 N1059 1.356 . S
C1053 C1052 1.363 . S
C1053 C1056 1.363 . S
N1054 C1056 1.356 . S
N1054 H1066 0.984 . S
N1054 H1067 0.985 . S
N1055 C1057 1.356 . S
N1055 H1060 0.984 . S
N1055 H1061 0.985 . S
C1056 C1050 1.379 . S
C1056 C1053 1.363 . S
C1056 N1054 1.356 . S
C1057 C1051 1.363 . S
C1057 C1052 1.379 . S
C1057 N1055 1.356 . S
N1058 C1050 1.356 . S
N1058 H1064 0.984 . S
N1058 H1065 0.984 . S
N1059 C1052 1.356 . S
N1059 H1062 0.984 . S
N1059 H1063 0.985 . S
H1060 N1055 0.984 . S
H1061 N1055 0.985 . S
H1062 N1059 0.984 . S
H1063 N1059 0.985 . S
H1064 N1058 0.984 . S
H1065 N1058 0.984 . S
H1066 N1054 0.984 . S
H1067 N1054 0.985 . S
C1068 C1069 1.363 . S
C1068 C1074 1.379 . S
C1068 N1076 1.356 . S
C1069 C1068 1.363 . S
C1069 C1075 1.363 . S
C1070 C1071 1.363 . S
C1070 C1075 1.379 . S
C1070 N1077 1.356 . S
C1071 C1070 1.363 . S
C1071 C1074 1.363 . S
N1072 C1074 1.356 . S
N1072 H1084 0.984 . S
N1072 H1085 0.985 . S
N1073 C1075 1.356 . S
N1073 H1078 0.984 . S
N1073 H1079 0.985 . S
C1074 C1068 1.379 . S
C1074 C1071 1.363 . S
C1074 N1072 1.356 . S
C1075 C1069 1.363 . S
C1075 C1070 1.379 . S
C1075 N1073 1.356 . S
N1076 C1068 1.356 . S
N1076 H1082 0.984 . S
N1076 H1083 0.984 . S
N1077 C1070 1.356 . S
N1077 H1080 0.984 . S
N1077 H1081 0.985 . S
H1078 N1073 0.984 . S
H1079 N1073 0.985 . S
H1080 N1077 0.984 . S
H1081 N1077 0.985 . S
H1082 N1076 0.984 . S
H1083 N1076 0.984 . S
H1084 N1072 0.984 . S
H1085 N1072 0.985 . S
C1086 C1087 1.363 . S
C1086 C1092 1.379 . S
C1086 N1094 1.356 . S
C1087 C1086 1.363 . S
C1087 C1093 1.363 . S
C1088 C1089 1.363 . S
C1088 C1093 1.379 . S
C1088 N1095 1.356 . S
C1089 C1088 1.363 . S
C1089 C1092 1.363 . S
N1090 C1092 1.356 . S
N1090 H1102 0.984 . S
N1090 H1103 0.985 . S
N1091 C1093 1.356 . S
N1091 H1096 0.984 . S
N1091 H1097 0.985 . S
C1092 C1086 1.379 . S
C1092 C1089 1.363 . S
C1092 N1090 1.356 . S
C1093 C1087 1.363 . S
C1093 C1088 1.379 . S
C1093 N1091 1.356 . S
N1094 C1086 1.356 . S
N1094 H1100 0.984 . S
N1094 H1101 0.984 . S
N1095 C1088 1.356 . S
N1095 H1098 0.984 . S
N1095 H1099 0.985 . S
H1096 N1091 0.984 . S
H1097 N1091 0.985 . S
H1098 N1095 0.984 . S
H1099 N1095 0.985 . S
H1100 N1094 0.984 . S
H1101 N1094 0.984 . S
H1102 N1090 0.984 . S
H1103 N1090 0.985 . S
C1104 C1105 1.363 . S
C1104 C1110 1.379 . S
C1104 N1112 1.356 . S
C1105 C1104 1.363 . S
C1105 C1111 1.363 . S
C1106 C1107 1.363 . S
C1106 C1111 1.379 . S
C1106 N1113 1.356 . S
C1107 C1106 1.363 . S
C1107 C1110 1.363 . S
N1108 C1110 1.356 . S
N1108 H1120 0.984 . S
N1108 H1121 0.985 . S
N1109 C1111 1.356 . S
N1109 H1114 0.984 . S
N1109 H1115 0.985 . S
C1110 C1104 1.379 . S
C1110 C1107 1.363 . S
C1110 N1108 1.356 . S
C1111 C1105 1.363 . S
C1111 C1106 1.379 . S
C1111 N1109 1.356 . S
N1112 C1104 1.356 . S
N1112 H1118 0.984 . S
N1112 H1119 0.984 . S
N1113 C1106 1.356 . S
N1113 H1116 0.984 . S
N1113 H1117 0.985 . S
H1114 N1109 0.984 . S
H1115 N1109 0.985 . S
H1116 N1113 0.984 . S
H1117 N1113 0.985 . S
H1118 N1112 0.984 . S
H1119 N1112 0.984 . S
H1120 N1108 0.984 . S
H1121 N1108 0.985 . S
C1122 C1123 1.363 . S
C1122 C1128 1.379 . S
C1122 N1130 1.356 . S
C1123 C1122 1.363 . S
C1123 C1129 1.363 . S
C1124 C1125 1.363 . S
C1124 C1129 1.379 . S
C1124 N1131 1.356 . S
C1125 C1124 1.363 . S
C1125 C1128 1.363 . S
N1126 C1128 1.356 . S
N1126 H1138 0.984 . S
N1126 H1139 0.985 . S
N1127 C1129 1.356 . S
N1127 H1132 0.984 . S
N1127 H1133 0.985 . S
C1128 C1122 1.379 . S
C1128 C1125 1.363 . S
C1128 N1126 1.356 . S
C1129 C1123 1.363 . S
C1129 C1124 1.379 . S
C1129 N1127 1.356 . S
N1130 C1122 1.356 . S
N1130 H1136 0.984 . S
N1130 H1137 0.984 . S
N1131 C1124 1.356 . S
N1131 H1134 0.984 . S
N1131 H1135 0.985 . S
H1132 N1127 0.984 . S
H1133 N1127 0.985 . S
H1134 N1131 0.984 . S
H1135 N1131 0.985 . S
H1136 N1130 0.984 . S
H1137 N1130 0.984 . S
H1138 N1126 0.984 . S
H1139 N1126 0.985 . S
C1140 C1141 1.363 . S
C1140 C1146 1.379 . S
C1140 N1148 1.356 . S
C1141 C1140 1.363 . S
C1141 C1147 1.363 . S
C1142 C1143 1.363 . S
C1142 C1147 1.379 . S
C1142 N1149 1.356 . S
C1143 C1142 1.363 . S
C1143 C1146 1.363 . S
N1144 C1146 1.356 . S
N1144 H1156 0.984 . S
N1144 H1157 0.985 . S
N1145 C1147 1.356 . S
N1145 H1150 0.984 . S
N1145 H1151 0.985 . S
C1146 C1140 1.379 . S
C1146 C1143 1.363 . S
C1146 N1144 1.356 . S
C1147 C1141 1.363 . S
C1147 C1142 1.379 . S
C1147 N1145 1.356 . S
N1148 C1140 1.356 . S
N1148 H1154 0.984 . S
N1148 H1155 0.984 . S
N1149 C1142 1.356 . S
N1149 H1152 0.984 . S
N1149 H1153 0.985 . S
H1150 N1145 0.984 . S
H1151 N1145 0.985 . S
H1152 N1149 0.984 . S
H1153 N1149 0.985 . S
H1154 N1148 0.984 . S
H1155 N1148 0.984 . S
H1156 N1144 0.984 . S
H1157 N1144 0.985 . S
C1158 C1159 1.363 . S
C1158 C1164 1.379 . S
C1158 N1166 1.356 . S
C1159 C1158 1.363 . S
C1159 C1165 1.363 . S
C1160 C1161 1.363 . S
C1160 C1165 1.379 . S
C1160 N1167 1.356 . S
C1161 C1160 1.363 . S
C1161 C1164 1.363 . S
N1162 C1164 1.356 . S
N1162 H1174 0.984 . S
N1162 H1175 0.985 . S
N1163 C1165 1.356 . S
N1163 H1168 0.984 . S
N1163 H1169 0.985 . S
C1164 C1158 1.379 . S
C1164 C1161 1.363 . S
C1164 N1162 1.356 . S
C1165 C1159 1.363 . S
C1165 C1160 1.379 . S
C1165 N1163 1.356 . S
N1166 C1158 1.356 . S
N1166 H1172 0.984 . S
N1166 H1173 0.984 . S
N1167 C1160 1.356 . S
N1167 H1170 0.984 . S
N1167 H1171 0.985 . S
H1168 N1163 0.984 . S
H1169 N1163 0.985 . S
H1170 N1167 0.984 . S
H1171 N1167 0.985 . S
H1172 N1166 0.984 . S
H1173 N1166 0.984 . S
H1174 N1162 0.984 . S
H1175 N1162 0.985 . S
C603 C512 1.502 . S
C601 C35 1.356 . S
C621 C526 1.499 . S
C619 C115 1.368 . S
C639 C539 1.504 . S
C637 C177 1.372 . S
C655 C221 1.358 . S
C657 C506 1.510 . S
C673 C283 1.364 . S
C675 C499 1.513 . S
C691 C363 1.376 . S
C693 C519 1.510 . S
C711 C527 1.502 . S
C709 C407 1.356 . S
C729 C540 1.508 . S
C727 C469 1.360 . S
C745 C159 1.356 . S
C747 C566 1.502 . S
C765 C584 1.499 . S
C763 C239 1.368 . S
C781 C53 1.372 . S
C783 C591 1.504 . S
C801 C558 1.510 . S
C799 C97 1.359 . S
C817 C425 1.382 . S
C819 C551 1.513 . S
C835 C487 1.376 . S
C837 C565 1.510 . S
C855 C577 1.502 . S
C853 C301 1.373 . S
C871 C345 1.360 . S
C873 C592 1.508 . S
C891 C525 1.953 . S
C889 C29 1.962 . S
C909 C538 1.956 . S
C907 C109 1.914 . S
C925 C171 1.907 . S
C927 C501 1.949 . S
C943 C215 1.953 . S
C945 C513 1.937 . S
C961 C277 1.948 . S
C963 C545 1.932 . S
C981 C500 1.935 . S
C979 C357 1.901 . S
C999 C514 1.951 . S
C997 C401 1.959 . S
C1017 C532 1.939 . S
C1015 C463 1.956 . S
C1035 C579 1.954 . S
C1033 C153 1.962 . S
C1053 C590 1.956 . S
C1051 C233 1.914 . S
C1069 C47 1.908 . S
C1071 C553 1.949 . S
C1089 C571 1.937 . S
C1087 C91 1.953 . S
C1107 C597 1.932 . S
C1105 C419 1.899 . S
C1123 C481 1.901 . S
C1125 C552 1.934 . S
C1143 C564 1.951 . S
C1141 C295 1.909 . S
C1161 C578 1.939 . S
C1159 C339 1.956 . S
