# Generated by pormake.
# Topology eea, (3,6)-cn, num edge types: 1
# Building blocks:
#     Node 0, Type 0, BuildingBlock: PAMTOO_clean_linker_0, # of connection points: 3
#     Node 1, Type 0, BuildingBlock: PAMTOO_clean_linker_0, # of connection points: 3
#     Node 2, Type 0, BuildingBlock: PAMTOO_clean_linker_0, # of connection points: 3
#     Node 3, Type 0, BuildingBlock: PAMTOO_clean_linker_0, # of connection points: 3
#     Node 4, Type 0, BuildingBlock: PAMTOO_clean_linker_0, # of connection points: 3
#     Node 5, Type 0, BuildingBlock: PAMTOO_clean_linker_0, # of connection points: 3
#     Node 6, Type 0, BuildingBlock: PAMTOO_clean_linker_0, # of connection points: 3
#     Node 7, Type 0, BuildingBlock: PAMTOO_clean_linker_0, # of connection points: 3
#     Node 8, Type 0, BuildingBlock: PAMTOO_clean_linker_0, # of connection points: 3
#     Node 9, Type 0, BuildingBlock: PAMTOO_clean_linker_0, # of connection points: 3
#     Node 10, Type 0, BuildingBlock: PAMTOO_clean_linker_0, # of connection points: 3
#     Node 11, Type 0, BuildingBlock: PAMTOO_clean_linker_0, # of connection points: 3
#     Node 12, Type 0, BuildingBlock: PAMTOO_clean_linker_0, # of connection points: 3
#     Node 13, Type 0, BuildingBlock: PAMTOO_clean_linker_0, # of connection points: 3
#     Node 14, Type 0, BuildingBlock: PAMTOO_clean_linker_0, # of connection points: 3
#     Node 15, Type 0, BuildingBlock: PAMTOO_clean_linker_0, # of connection points: 3
#     Node 16, Type 0, BuildingBlock: PAMTOO_clean_linker_0, # of connection points: 3
#     Node 17, Type 0, BuildingBlock: PAMTOO_clean_linker_0, # of connection points: 3
#     Node 18, Type 1, BuildingBlock: CIFDUS_clean_sbu_1, # of connection points: 6
#     Node 19, Type 1, BuildingBlock: CIFDUS_clean_sbu_1, # of connection points: 6
#     Node 20, Type 1, BuildingBlock: CIFDUS_clean_sbu_1, # of connection points: 6
#     Node 21, Type 1, BuildingBlock: CIFDUS_clean_sbu_1, # of connection points: 6
#     Node 22, Type 1, BuildingBlock: CIFDUS_clean_sbu_1, # of connection points: 6
#     Node 23, Type 1, BuildingBlock: CIFDUS_clean_sbu_1, # of connection points: 6
#     Node 24, Type 1, BuildingBlock: CIFDUS_clean_sbu_1, # of connection points: 6
#     Node 25, Type 1, BuildingBlock: CIFDUS_clean_sbu_1, # of connection points: 6
#     Node 26, Type 1, BuildingBlock: CIFDUS_clean_sbu_1, # of connection points: 6
#     Edge 27, Type (0, 1), None
#     Edge 28, Type (0, 1), None
#     Edge 29, Type (0, 1), None
#     Edge 30, Type (0, 1), None
#     Edge 31, Type (0, 1), None
#     Edge 32, Type (0, 1), None
#     Edge 33, Type (0, 1), None
#     Edge 34, Type (0, 1), None
#     Edge 35, Type (0, 1), None
#     Edge 36, Type (0, 1), None
#     Edge 37, Type (0, 1), None
#     Edge 38, Type (0, 1), None
#     Edge 39, Type (0, 1), None
#     Edge 40, Type (0, 1), None
#     Edge 41, Type (0, 1), None
#     Edge 42, Type (0, 1), None
#     Edge 43, Type (0, 1), None
#     Edge 44, Type (0, 1), None
#     Edge 45, Type (0, 1), None
#     Edge 46, Type (0, 1), None
#     Edge 47, Type (0, 1), None
#     Edge 48, Type (0, 1), None
#     Edge 49, Type (0, 1), None
#     Edge 50, Type (0, 1), None
#     Edge 51, Type (0, 1), None
#     Edge 52, Type (0, 1), None
#     Edge 53, Type (0, 1), None
#     Edge 54, Type (0, 1), None
#     Edge 55, Type (0, 1), None
#     Edge 56, Type (0, 1), None
#     Edge 57, Type (0, 1), None
#     Edge 58, Type (0, 1), None
#     Edge 59, Type (0, 1), None
#     Edge 60, Type (0, 1), None
#     Edge 61, Type (0, 1), None
#     Edge 62, Type (0, 1), None
#     Edge 63, Type (0, 1), None
#     Edge 64, Type (0, 1), None
#     Edge 65, Type (0, 1), None
#     Edge 66, Type (0, 1), None
#     Edge 67, Type (0, 1), None
#     Edge 68, Type (0, 1), None
#     Edge 69, Type (0, 1), None
#     Edge 70, Type (0, 1), None
#     Edge 71, Type (0, 1), None
#     Edge 72, Type (0, 1), None
#     Edge 73, Type (0, 1), None
#     Edge 74, Type (0, 1), None
#     Edge 75, Type (0, 1), None
#     Edge 76, Type (0, 1), None
#     Edge 77, Type (0, 1), None
#     Edge 78, Type (0, 1), None
#     Edge 79, Type (0, 1), None
#     Edge 80, Type (0, 1), None
# Relax obj value: 0.093
# Max RMSD: 0.116
# Mean RMSD: 0.087
data_MOF--net-eea--node1-CIFDUS_clean_sbu_1--node2-PAMTOO_clean_linker_0--edge1-none
_symmetry_space_group_name_H-M    P1
_symmetry_Int_Tables_number       1
_symmetry_cell_setting            triclinic
loop_
_symmetry_equiv_pos_as_xyz
'x, y, z'
_cell_length_a     25.198457
_cell_length_b     24.755555
_cell_length_c     19.069709
_cell_angle_alpha  90.724674
_cell_angle_beta   91.60615
_cell_angle_gamma 120.45371
loop_
_atom_site_label
_atom_site_type_symbol
_atom_site_fract_x
_atom_site_fract_y
_atom_site_fract_z
_atom_type_partial_charge
H0 H 0.31836 0.07024 0.44427 0.0
H1 H 0.26995 0.21236 0.42132 0.0
H2 H 0.18977 0.05235 0.27998 0.0
H3 H 0.17489 0.20297 0.38588 0.0
C4 C 0.17938 0.2004 0.32825 0.0
O5 O 0.19401 0.15568 0.30903 0.0
H6 H 0.13408 0.18811 0.30353 0.0
C7 C 0.28916 0.086 0.42037 0.0
C8 C 0.2528 0.0544 0.35986 0.0
C9 C 0.29644 0.14359 0.44251 0.0
C10 C 0.26314 0.16691 0.40619 0.0
C11 C 0.22077 0.13145 0.35079 0.0
C12 C 0.21573 0.07503 0.3284 0.0
H13 H 0.9845 0.28611 0.4127 0.0
H14 H 0.90024 0.09685 0.47643 0.0
H15 H 0.98921 0.14773 0.27873 0.0
H16 H 0.84135 1.00563 0.41678 0.0
C17 C 0.85981 0.99916 0.36755 0.0
O18 O 0.91661 0.05205 0.3554 0.0
H19 H 0.86644 0.95855 0.3753 0.0
C20 C 0.97206 0.23805 0.40121 0.0
C21 C 0.99469 0.22382 0.34173 0.0
C22 C 0.94189 0.19431 0.45239 0.0
C23 C 0.9224 0.13113 0.43688 0.0
C24 C 0.93383 0.11296 0.37064 0.0
C25 C 0.97341 0.16028 0.32503 0.0
H26 H 0.80837 0.73269 0.44063 0.0
H27 H 1.00402 0.81024 0.43902 0.0
H28 H 0.91203 0.84707 0.26969 0.0
H29 H 0.05941 0.86725 0.22831 0.0
C30 C 0.03822 0.83586 0.27292 0.0
O31 O 1.01801 0.86435 0.31922 0.0
H32 H 0.99924 0.79097 0.25038 0.0
C33 C 0.85182 0.76137 0.416 0.0
C34 C 0.85355 0.78926 0.35079 0.0
C35 C 0.90546 0.76829 0.44865 0.0
C36 C 0.96164 0.80419 0.41546 0.0
C37 C 0.96389 0.8322 0.35126 0.0
C38 C 0.91002 0.82567 0.31951 0.0
H39 H 0.09132 0.33391 0.59391 0.0
H40 H 0.19904 0.25428 0.53226 0.0
H41 H 0.09455 0.19382 0.72061 0.0
H42 H 0.21931 0.1878 0.74639 0.0
C43 C 0.23302 0.22023 0.70195 0.0
O44 O 0.1851 0.19519 0.65153 0.0
H45 H 0.24219 0.26672 0.72234 0.0
C46 C 0.10522 0.29972 0.60238 0.0
C47 C 0.08311 0.26052 0.6598 0.0
C48 C 0.14081 0.29337 0.55183 0.0
C49 C 0.16814 0.25748 0.56821 0.0
C50 C 0.15434 0.2247 0.63176 0.0
C51 C 0.10814 0.22237 0.67463 0.0
H52 H 0.77847 0.77202 0.57951 0.0
H53 H 0.82207 0.95499 0.5157 0.0
H54 H 0.87938 0.92918 0.7214 0.0
H55 H 0.84429 0.0447 0.57236 0.0
C56 C 0.87547 0.05708 0.6195 0.0
O57 O 0.89282 1.01311 0.63071 0.0
H58 H 0.918 0.10179 0.60908 0.0
C59 C 0.80081 0.82226 0.58927 0.0
C60 C 0.83123 0.84638 0.65387 0.0
C61 C 0.79277 0.85985 0.54104 0.0
C62 C 0.82398 0.92485 0.55453 0.0
C63 C 0.85666 0.95041 0.61932 0.0
C64 C 0.85734 0.91035 0.67022 0.0
H65 H 0.26994 0.97222 0.55423 0.0
H66 H 0.0753 0.8398 0.56078 0.0
H67 H 0.16224 0.99029 0.71386 0.0
H68 H 1.02803 0.86078 0.77041 0.0
C69 C 0.0459 0.8471 0.72507 0.0
O70 O 0.05994 0.89077 0.67371 0.0
H71 H 0.08738 0.84529 0.74336 0.0
C72 C 0.2253 0.95793 0.57527 0.0
C73 C 0.22174 0.98968 0.63524 0.0
C74 C 0.17307 0.90276 0.54861 0.0
C75 C 0.11637 0.88207 0.58022 0.0
C76 C 0.11256 0.9147 0.63859 0.0
C77 C 0.16483 0.9688 0.66514 0.0
H78 H 0.98502 0.40365 0.77783 0.0
H79 H 0.93607 0.5454 0.75517 0.0
H80 H 0.85632 0.38556 0.61356 0.0
H81 H 0.84132 0.53624 0.71957 0.0
C82 C 0.84574 0.53355 0.66195 0.0
O83 O 0.86011 0.48862 0.64282 0.0
H84 H 0.80045 0.52138 0.63728 0.0
C85 C 0.95573 0.41932 0.75396 0.0
C86 C 0.9194 0.38772 0.69344 0.0
C87 C 0.96283 0.47682 0.77618 0.0
C88 C 0.92939 0.50003 0.73994 0.0
C89 C 0.88709 0.46455 0.68448 0.0
C90 C 0.88225 0.40824 0.66199 0.0
H91 H 0.65126 0.61958 0.74598 0.0
H92 H 0.56646 0.43025 0.80955 0.0
H93 H 0.65569 0.48106 0.61198 0.0
H94 H 0.50754 0.33914 0.74987 0.0
C95 C 0.52606 0.33256 0.70074 0.0
O96 O 0.58288 0.38541 0.68856 0.0
H97 H 0.53266 0.29196 0.70869 0.0
C98 C 0.63871 0.57149 0.73447 0.0
C99 C 0.66131 0.55721 0.675 0.0
C100 C 0.6084 0.52775 0.7856 0.0
C101 C 0.58876 0.46453 0.77005 0.0
C102 C 0.60021 0.44635 0.70383 0.0
C103 C 0.6399 0.49365 0.65827 0.0
H104 H 0.47511 0.06647 0.77385 0.0
H105 H 0.67081 0.14434 0.77225 0.0
H106 H 0.57856 0.18034 0.6025 0.0
H107 H 0.72639 0.20064 0.56187 0.0
C108 C 0.70489 0.16902 0.60622 0.0
O109 O 0.6846 0.19779 0.65204 0.0
H110 H 0.6657 0.12385 0.58453 0.0
C111 C 0.51853 0.09516 0.74919 0.0
C112 C 0.52019 0.12284 0.68385 0.0
C113 C 0.57223 0.10229 0.78193 0.0
C114 C 0.62838 0.13816 0.74865 0.0
C115 C 0.63054 0.16587 0.68427 0.0
C116 C 0.57662 0.15916 0.65246 0.0
H117 H 0.75785 0.66704 0.92714 0.0
H118 H 0.86579 0.58762 0.86564 0.0
H119 H 0.76114 0.527 0.05387 0.0
H120 H 0.88592 0.5214 0.08021 0.0
C121 C 0.89953 0.55353 0.03551 0.0
O122 O 0.85179 0.52849 -0.01512 0.0
H123 H 0.90851 0.5997 0.05675 0.0
C124 C 0.77177 0.63287 0.93562 0.0
C125 C 0.74966 0.59366 -0.00697 0.0
C126 C 0.80744 0.6266 0.88513 0.0
C127 C 0.83483 0.59076 0.90155 0.0
C128 C 0.82101 0.55796 0.96509 0.0
C129 C 0.77474 0.55556 0.0079 0.0
H130 H 0.44479 0.10527 0.91278 0.0
H131 H 0.48889 0.28828 0.84866 0.0
H132 H 0.54549 0.26239 0.05476 0.0
H133 H 0.51046 0.37735 0.9056 0.0
C134 C 0.54198 0.39041 0.95254 0.0
O135 O 0.5592 0.34638 0.96401 0.0
H136 H 0.58417 0.43517 0.94137 0.0
C137 C 0.46716 0.15551 0.92251 0.0
C138 C 0.49747 0.17962 -0.01283 0.0
C139 C 0.4593 0.19313 0.87418 0.0
C140 C 0.49059 0.25813 0.88764 0.0
C141 C 0.52307 0.28367 0.95254 0.0
C142 C 0.52357 0.24358 0.00352 0.0
H143 H 0.93662 0.30537 0.88802 0.0
H144 H 0.74186 0.17328 0.89403 0.0
H145 H 0.82864 0.32397 0.04689 0.0
H146 H 0.69434 0.19523 0.10374 0.0
C147 C 0.71212 0.18143 0.05842 0.0
O148 O 0.72629 0.22462 0.00649 0.0
H149 H 0.75344 0.17987 0.0779 0.0
C150 C 0.89194 0.29118 0.90888 0.0
C151 C 0.8883 0.32304 0.9687 0.0
C152 C 0.83971 0.23606 0.88215 0.0
C153 C 0.78294 0.21549 0.91354 0.0
C154 C 0.77904 0.24828 0.97171 0.0
C155 C 0.83132 0.30235 -0.00168 0.0
H156 H 0.65137 0.73656 0.11156 0.0
H157 H 0.60466 0.87983 0.08737 0.0
H158 H 0.52333 0.71929 0.94688 0.0
H159 H 0.50915 0.86978 0.05216 0.0
C160 C 0.51339 0.86746 -0.00556 0.0
O161 O 0.52886 0.82337 0.97517 0.0
H162 H 0.46821 0.8545 0.96885 0.0
C163 C 0.62246 0.75259 0.08746 0.0
C164 C 0.58609 0.72105 0.02693 0.0
C165 C 0.63023 0.81047 0.10928 0.0
C166 C 0.59741 0.83413 0.07261 0.0
C167 C 0.55492 0.79871 0.01732 0.0
C168 C 0.5493 0.74194 -0.00469 0.0
H169 H 0.31796 0.95272 0.07917 0.0
H170 H 0.2334 0.76343 0.14279 0.0
H171 H 0.32242 0.81427 0.9451 0.0
H172 H 0.17448 0.67228 0.08324 0.0
C173 C 0.19284 0.66575 0.03396 0.0
O174 O 0.24963 0.71859 0.02167 0.0
H175 H 0.19944 0.62512 0.04171 0.0
C176 C 0.30549 0.90466 0.06768 0.0
C177 C 0.3281 0.8904 0.00819 0.0
C178 C 0.27524 0.86092 0.11883 0.0
C179 C 0.25563 0.79771 0.10327 0.0
C180 C 0.26701 0.77953 0.037 0.0
C181 C 0.30669 0.82685 -0.00857 0.0
H182 H 0.14153 0.39939 0.10731 0.0
H183 H 0.33724 0.47739 0.10574 0.0
H184 H 0.24501 0.51375 0.93626 0.0
H185 H 0.39309 0.53463 0.89561 0.0
C186 C 0.37152 0.50278 0.93977 0.0
O187 O 0.35109 0.53127 -0.01421 0.0
H188 H 0.3324 0.45768 0.91782 0.0
C189 C 0.18496 0.42814 0.08266 0.0
C190 C 0.18662 0.45596 0.01743 0.0
C191 C 0.23865 0.43523 0.11535 0.0
C192 C 0.29481 0.47122 0.08215 0.0
C193 C 0.29699 0.49912 0.0179 0.0
C194 C 0.24307 0.49243 -0.01388 0.0
H195 H 0.4246 1.00053 0.26035 0.0
H196 H 0.53249 0.9211 0.19876 0.0
H197 H 0.42807 0.86062 0.38715 0.0
H198 H 0.55289 0.85487 0.41301 0.0
C199 C 0.56662 0.88722 0.36849 0.0
O200 O 0.51869 0.86211 0.31807 0.0
H201 H 0.57582 0.93375 0.38874 0.0
C202 C 0.43853 0.96637 0.26883 0.0
C203 C 0.41647 0.92719 0.32627 0.0
C204 C 0.47414 0.96006 0.21829 0.0
C205 C 0.50157 0.92426 0.2347 0.0
C206 C 0.48784 0.89152 0.29829 0.0
C207 C 0.4416 0.88914 0.34115 0.0
H208 H 0.1116 0.43864 0.24624 0.0
H209 H 0.15539 0.62161 0.18223 0.0
H210 H 0.21262 0.59586 0.38801 0.0
H211 H 0.17761 0.71135 0.23885 0.0
C212 C 0.20878 0.72373 0.286 0.0
O213 O 0.22612 0.67976 0.29724 0.0
H214 H 0.25132 0.76844 0.27558 0.0
C215 C 0.13397 0.48888 0.25595 0.0
C216 C 0.16441 0.51303 0.32054 0.0
C217 C 0.12598 0.52646 0.20769 0.0
C218 C 0.15725 0.59148 0.22111 0.0
C219 C 0.18994 0.61706 0.28589 0.0
C220 C 0.19057 0.57701 0.33684 0.0
H221 H 0.60337 0.63874 0.22121 0.0
H222 H 0.40866 0.50654 0.22758 0.0
H223 H 0.49562 0.65714 0.38053 0.0
H224 H 0.36114 0.5278 0.43701 0.0
C225 C 0.37911 0.51407 0.39181 0.0
O226 O 0.39328 0.55768 0.34035 0.0
H227 H 0.42055 0.51227 0.4103 0.0
C228 C 0.55872 0.62451 0.24219 0.0
C229 C 0.55515 0.65635 0.30208 0.0
C230 C 0.50647 0.56936 0.21553 0.0
C231 C 0.44975 0.54877 0.24704 0.0
C232 C 0.44593 0.58149 0.30533 0.0
C233 C 0.49823 0.63557 0.33188 0.0
O234 O 0.43297 0.94987 0.97792 0.0
Mn235 Mn 0.52212 0.0301 0.00057 0.0
O236 O 0.37771 0.99479 0.98123 0.0
Mn237 Mn 0.4163 0.03939 0.06437 0.0
O238 O 0.60813 0.10647 0.02771 0.0
O239 O 0.55914 0.97972 0.97368 0.0
Mn240 Mn 0.63014 1.02181 0.93351 0.0
O241 O 0.5324 0.0626 0.89638 0.0
O242 O 0.68105 0.08415 -0.00071 0.0
O243 O 0.51512 0.99795 0.10328 0.0
O244 O 0.431 0.99914 0.13752 0.0
O245 O 0.61084 0.93824 0.9397 0.0
O246 O 0.61119 0.05339 0.85469 0.0
C247 C 0.48111 0.13324 0.04073 0.0
C248 C 0.37968 0.94513 0.97391 0.0
C249 C 0.66398 0.1187 0.02968 0.0
C250 C 0.56161 0.92964 0.96907 0.0
C251 C 0.57087 0.07016 0.84815 0.0
C252 C 0.47445 0.98739 0.14869 0.0
O253 O 0.48918 0.08597 0.03222 0.0
O254 O 0.43274 0.12048 0.07488 0.0
O255 O 0.11967 0.49107 0.97616 0.0
Mn256 Mn 0.0435 0.50359 -0.00763 0.0
O257 O 0.08335 0.3899 -0.00606 0.0
Mn258 Mn 1.02964 0.38512 0.05926 0.0
O259 O 0.97041 0.51776 0.0146 0.0
O260 O 0.0961 0.59398 0.96928 0.0
Mn261 Mn 0.05756 0.62399 0.91936 0.0
O262 O 1.00928 0.48198 0.88845 0.0
O263 O 0.9917 0.61147 0.97311 0.0
O264 O 0.0788 0.52686 0.09592 0.0
O265 O 0.0646 0.43618 0.13794 0.0
O266 O 0.138 0.69044 0.94289 0.0
O267 O 1.02873 0.57251 0.83849 0.0
C268 C 0.94237 0.35329 0.01615 0.0
C269 C 0.12799 0.44411 -0.01624 0.0
C270 C 0.95768 0.56156 0.0061 0.0
C271 C 0.14382 0.64904 0.97737 0.0
C272 C 1.00464 0.51278 0.83691 0.0
C273 C 0.08675 0.4952 0.14371 0.0
O274 O 0.98675 0.41132 0.01335 0.0
O275 O 0.95301 0.31697 0.05501 0.0
O276 O 0.64559 0.5482 0.02593 0.0
Mn277 Mn 0.55908 0.54305 0.00432 0.0
O278 O 0.70591 0.64933 0.03222 0.0
Mn279 Mn 0.67022 0.66068 0.9516 0.0
O280 O 0.47485 0.53502 0.97682 0.0
O281 O 0.51838 0.45429 0.02703 0.0
Mn282 Mn 0.44788 0.42252 0.06813 0.0
O283 O 0.54858 0.56393 0.10727 0.0
O284 O 0.39919 0.4394 0.00698 0.0
O285 O 0.56698 0.52136 0.90033 0.0
O286 O 0.65305 0.60926 0.87141 0.0
O287 O 0.46246 0.35698 0.04065 0.0
O288 O 0.4706 0.47411 0.14963 0.0
C289 C 0.61116 0.69255 0.9815 0.0
C290 C 0.70047 0.59597 0.03272 0.0
C291 C 0.41804 0.49149 0.97677 0.0
C292 C 0.51107 0.40074 0.0127 0.0
C293 C 0.51014 0.53324 0.15493 0.0
C294 C 0.60877 0.55345 0.85685 0.0
O295 O 0.59775 0.63492 -0.01626 0.0
O296 O 0.66175 0.72972 0.95116 0.0
O297 O 0.09956 0.28319 0.31153 0.0
Mn298 Mn 0.18879 0.36327 0.33406 0.0
O299 O 0.04441 0.32825 0.31489 0.0
Mn300 Mn 0.08322 0.37292 0.39792 0.0
O301 O 0.27495 0.43949 0.36099 0.0
O302 O 0.22556 0.31264 0.30719 0.0
Mn303 Mn 0.29642 0.35435 0.26667 0.0
O304 O 0.199 0.39566 0.22986 0.0
O305 O 0.34756 0.41675 0.33228 0.0
O306 O 0.1818 0.33121 0.43681 0.0
O307 O 0.0978 0.33262 0.47109 0.0
O308 O 0.27675 0.27066 0.27304 0.0
O309 O 0.27743 0.38597 0.18787 0.0
C310 C 0.14808 0.46669 0.37415 0.0
C311 C 0.04631 0.27855 0.30753 0.0
C312 C 0.33081 0.45176 0.3622 0.0
C313 C 0.22779 0.26243 0.30276 0.0
C314 C 0.23728 0.403 0.18149 0.0
C315 C 0.14118 0.32075 0.48225 0.0
O316 O 0.15609 0.41937 0.36567 0.0
O317 O 0.09979 0.45404 0.40839 0.0
O318 O 0.78669 0.82452 0.30964 0.0
Mn319 Mn 0.71049 0.83704 0.32565 0.0
O320 O 0.75029 0.72332 0.32721 0.0
Mn321 Mn 0.69657 0.71858 0.39247 0.0
O322 O 0.63736 0.85124 0.34763 0.0
O323 O 0.76318 0.92745 0.30266 0.0
Mn324 Mn 0.72482 0.95751 0.25252 0.0
O325 O 0.67646 0.81549 0.22166 0.0
O326 O 0.65877 0.94493 0.30596 0.0
O327 O 0.7456 0.86027 0.42927 0.0
O328 O 0.73151 0.7696 0.47118 0.0
O329 O 0.80519 1.02394 0.27629 0.0
O330 O 0.69627 0.90609 0.17161 0.0
C331 C 0.60931 0.68667 0.3494 0.0
C332 C 0.79496 0.77752 0.31712 0.0
C333 C 0.62439 0.89479 0.33843 0.0
C334 C 0.81091 0.9825 0.31084 0.0
C335 C 0.67204 0.84634 0.17004 0.0
C336 C 0.75359 0.8286 0.47702 0.0
O337 O 0.65364 0.74474 0.34652 0.0
O338 O 0.61999 0.6504 0.3883 0.0
O339 O 0.31241 0.88166 0.35926 0.0
Mn340 Mn 0.22584 0.87635 0.33749 0.0
O341 O 0.37262 0.98279 0.36538 0.0
Mn342 Mn 0.3369 0.99398 0.28468 0.0
O343 O 0.14158 0.86814 0.30982 0.0
O344 O 0.18523 0.78763 0.36036 0.0
Mn345 Mn 0.11468 0.75583 0.40136 0.0
O346 O 0.21525 0.89732 0.44039 0.0
O347 O 0.06597 0.77249 0.33995 0.0
O348 O 0.23382 0.85454 0.23358 0.0
O349 O 0.31979 0.94249 0.20457 0.0
O350 O 0.12957 0.69042 0.37431 0.0
O351 O 0.13724 0.80752 0.48274 0.0
C352 C 0.27781 0.02584 0.31443 0.0
C353 C 0.36726 0.92947 0.36598 0.0
C354 C 0.08486 0.82431 0.30911 0.0
C355 C 0.17829 0.73416 0.34653 0.0
C356 C 0.17676 0.86665 0.48802 0.0
C357 C 0.27559 0.88663 0.19008 0.0
O358 O 0.26442 0.96821 0.31678 0.0
O359 O 0.32839 0.06299 0.28405 0.0
O360 O 0.76621 0.61646 0.64488 0.0
Mn361 Mn 0.85549 0.69648 0.66738 0.0
O362 O 0.71117 0.66164 0.64816 0.0
Mn363 Mn 0.75003 0.70627 0.73119 0.0
O364 O 0.94171 0.77263 0.69428 0.0
O365 O 0.89215 0.64576 0.64058 0.0
Mn366 Mn 0.96301 0.68728 0.60003 0.0
O367 O 0.86576 0.72883 0.56317 0.0
O368 O 1.01422 0.74973 0.66557 0.0
O369 O 0.84849 0.66445 0.77014 0.0
O370 O 0.76451 0.66591 0.80437 0.0
O371 O 0.94314 0.60352 0.60659 0.0
O372 O 0.94405 0.71888 0.52119 0.0
C373 C 0.8149 0.80002 0.70746 0.0
C374 C 0.713 0.6119 0.64083 0.0
C375 C 0.99755 0.78482 0.69547 0.0
C376 C 0.89424 0.59546 0.6363 0.0
C377 C 0.904 0.73604 0.5148 0.0
C378 C 0.80786 0.65401 0.81555 0.0
O379 O 0.82291 0.7527 0.69895 0.0
O380 O 0.76661 0.78739 0.74172 0.0
O381 O 0.45321 0.15788 0.6426 0.0
Mn382 Mn 0.37698 0.17031 0.65876 0.0
O383 O 0.41697 0.05672 0.66027 0.0
Mn384 Mn 0.36322 0.05187 0.72556 0.0
O385 O 0.30382 0.1844 0.6809 0.0
O386 O 0.42956 0.26072 0.63572 0.0
Mn387 Mn 0.39105 0.2907 0.58571 0.0
O388 O 0.34283 0.14872 0.55481 0.0
O389 O 0.32507 0.27806 0.6393 0.0
O390 O 0.4122 0.19356 0.76235 0.0
O391 O 0.39811 0.10289 0.80428 0.0
O392 O 0.4714 0.3572 0.60942 0.0
O393 O 0.3624 0.23927 0.5048 0.0
C394 C 0.27592 1.01996 0.68253 0.0
C395 C 0.46157 0.11095 0.65014 0.0
C396 C 0.29079 0.22791 0.6718 0.0
C397 C 0.47722 0.31581 0.64394 0.0
C398 C 0.33826 0.17953 0.50323 0.0
C399 C 0.42019 0.16189 0.81011 0.0
O400 O 0.32025 0.07801 0.67968 0.0
O401 O 0.28664 0.98367 0.72135 0.0
O402 O 0.97907 0.215 0.69279 0.0
Mn403 Mn 0.8925 0.20969 0.67107 0.0
O404 O 0.03929 0.31614 0.69893 0.0
Mn405 Mn 1.00356 0.32735 0.61825 0.0
O406 O 0.80823 0.20148 0.64346 0.0
O407 O 0.85192 0.12096 0.6939 0.0
Mn408 Mn 0.78138 0.08913 0.73494 0.0
O409 O 0.88193 0.23062 0.77398 0.0
O410 O 0.73267 0.10579 0.67357 0.0
O411 O 0.90048 0.18792 0.56714 0.0
O412 O 0.98646 0.27587 0.53813 0.0
O413 O 0.7963 1.02373 0.70785 0.0
O414 O 0.80395 0.1408 0.81634 0.0
C415 C 0.94446 0.35919 0.64803 0.0
C416 C 1.03392 0.26282 0.69951 0.0
C417 C 0.75145 0.15786 0.64333 0.0
C418 C 0.845 0.06749 0.68005 0.0
C419 C 0.84346 0.19994 0.82162 0.0
C420 C 0.94225 0.22002 0.52364 0.0
O421 O 0.93107 0.30156 0.65037 0.0
O422 O 0.99504 0.39635 0.61765 0.0
loop_
_geom_bond_atom_site_label_1
_geom_bond_atom_site_label_2
_geom_bond_distance
_geom_bond_site_symmetry_2
_ccdc_geom_bond_type
H0 C7 0.929 . S
H1 C10 0.930 . S
H2 C12 0.929 . S
H3 C4 0.969 . S
C4 H3 0.969 . S
C4 O5 1.550 . S
C4 H6 0.973 . S
O5 C4 1.550 . S
O5 C11 1.412 . S
H6 C4 0.973 . S
C7 H0 0.929 . S
C7 C8 1.400 . S
C7 C9 1.364 . S
C8 C7 1.400 . S
C8 C12 1.377 . S
C9 C7 1.364 . S
C9 C10 1.374 . S
C10 H1 0.930 . S
C10 C9 1.374 . S
C10 C11 1.383 . S
C11 O5 1.412 . S
C11 C10 1.383 . S
C11 C12 1.394 . S
C12 H2 0.929 . S
C12 C8 1.377 . S
C12 C11 1.394 . S
H13 C20 0.929 . S
H14 C23 0.930 . S
H15 C25 0.929 . S
H16 C17 0.969 1_545 S
C17 H16 0.969 1_565 S
C17 O18 1.550 1_565 S
C17 H19 0.973 . S
O18 C17 1.550 1_545 S
O18 C24 1.412 . S
H19 C17 0.973 . S
C20 H13 0.929 . S
C20 C21 1.400 . S
C20 C22 1.364 . S
C21 C20 1.400 . S
C21 C25 1.377 . S
C22 C20 1.364 . S
C22 C23 1.374 . S
C23 H14 0.930 . S
C23 C22 1.374 . S
C23 C24 1.383 . S
C24 O18 1.412 . S
C24 C23 1.383 . S
C24 C25 1.394 . S
C25 H15 0.929 . S
C25 C21 1.377 . S
C25 C24 1.394 . S
H26 C33 0.929 . S
H27 C36 0.930 . S
H28 C38 0.929 . S
H29 C30 0.969 . S
C30 H29 0.969 . S
C30 O31 1.550 . S
C30 H32 0.973 1_655 S
O31 C30 1.550 . S
O31 C37 1.412 . S
H32 C30 0.973 1_455 S
C33 H26 0.929 . S
C33 C34 1.400 . S
C33 C35 1.364 . S
C34 C33 1.400 . S
C34 C38 1.377 . S
C35 C33 1.364 . S
C35 C36 1.374 . S
C36 H27 0.930 . S
C36 C35 1.374 . S
C36 C37 1.383 . S
C37 O31 1.412 . S
C37 C36 1.383 . S
C37 C38 1.394 . S
C38 H28 0.929 . S
C38 C34 1.377 . S
C38 C37 1.394 . S
H39 C46 0.929 . S
H40 C49 0.930 . S
H41 C51 0.929 . S
H42 C43 0.969 . S
C43 H42 0.969 . S
C43 O44 1.550 . S
C43 H45 0.973 . S
O44 C43 1.550 . S
O44 C50 1.412 . S
H45 C43 0.973 . S
C46 H39 0.929 . S
C46 C47 1.400 . S
C46 C48 1.364 . S
C47 C46 1.400 . S
C47 C51 1.377 . S
C48 C46 1.364 . S
C48 C49 1.374 . S
C49 H40 0.930 . S
C49 C48 1.374 . S
C49 C50 1.383 . S
C50 O44 1.412 . S
C50 C49 1.383 . S
C50 C51 1.394 . S
C51 H41 0.929 . S
C51 C47 1.377 . S
C51 C50 1.394 . S
H52 C59 0.929 . S
H53 C62 0.930 . S
H54 C64 0.929 . S
H55 C56 0.969 1_565 S
C56 H55 0.969 1_545 S
C56 O57 1.550 1_545 S
C56 H58 0.973 . S
O57 C56 1.550 1_565 S
O57 C63 1.412 . S
H58 C56 0.973 . S
C59 H52 0.929 . S
C59 C60 1.400 . S
C59 C61 1.364 . S
C60 C59 1.400 . S
C60 C64 1.377 . S
C61 C59 1.364 . S
C61 C62 1.374 . S
C62 H53 0.930 . S
C62 C61 1.374 . S
C62 C63 1.383 . S
C63 O57 1.412 . S
C63 C62 1.383 . S
C63 C64 1.394 . S
C64 H54 0.929 . S
C64 C60 1.377 . S
C64 C63 1.394 . S
H65 C72 0.929 . S
H66 C75 0.930 . S
H67 C77 0.929 . S
H68 C69 0.969 . S
C69 H68 0.969 . S
C69 O70 1.550 . S
C69 H71 0.973 . S
O70 C69 1.550 . S
O70 C76 1.412 . S
H71 C69 0.973 . S
C72 H65 0.929 . S
C72 C73 1.400 . S
C72 C74 1.364 . S
C73 C72 1.400 . S
C73 C77 1.377 . S
C74 C72 1.364 . S
C74 C75 1.374 . S
C75 H66 0.930 . S
C75 C74 1.374 . S
C75 C76 1.383 . S
C76 O70 1.412 . S
C76 C75 1.383 . S
C76 C77 1.394 . S
C77 H67 0.929 . S
C77 C73 1.377 . S
C77 C76 1.394 . S
H78 C85 0.929 . S
H79 C88 0.930 . S
H80 C90 0.929 . S
H81 C82 0.969 . S
C82 H81 0.969 . S
C82 O83 1.550 . S
C82 H84 0.973 . S
O83 C82 1.550 . S
O83 C89 1.412 . S
H84 C82 0.973 . S
C85 H78 0.929 . S
C85 C86 1.400 . S
C85 C87 1.364 . S
C86 C85 1.400 . S
C86 C90 1.377 . S
C87 C85 1.364 . S
C87 C88 1.374 . S
C88 H79 0.930 . S
C88 C87 1.374 . S
C88 C89 1.383 . S
C89 O83 1.412 . S
C89 C88 1.383 . S
C89 C90 1.394 . S
C90 H80 0.929 . S
C90 C86 1.377 . S
C90 C89 1.394 . S
H91 C98 0.929 . S
H92 C101 0.930 . S
H93 C103 0.929 . S
H94 C95 0.969 . S
C95 H94 0.969 . S
C95 O96 1.550 . S
C95 H97 0.973 . S
O96 C95 1.550 . S
O96 C102 1.412 . S
H97 C95 0.973 . S
C98 H91 0.929 . S
C98 C99 1.400 . S
C98 C100 1.364 . S
C99 C98 1.400 . S
C99 C103 1.377 . S
C100 C98 1.364 . S
C100 C101 1.374 . S
C101 H92 0.930 . S
C101 C100 1.374 . S
C101 C102 1.383 . S
C102 O96 1.412 . S
C102 C101 1.383 . S
C102 C103 1.394 . S
C103 H93 0.929 . S
C103 C99 1.377 . S
C103 C102 1.394 . S
H104 C111 0.929 . S
H105 C114 0.930 . S
H106 C116 0.929 . S
H107 C108 0.969 . S
C108 H107 0.969 . S
C108 O109 1.550 . S
C108 H110 0.973 . S
O109 C108 1.550 . S
O109 C115 1.412 . S
H110 C108 0.973 . S
C111 H104 0.929 . S
C111 C112 1.400 . S
C111 C113 1.364 . S
C112 C111 1.400 . S
C112 C116 1.377 . S
C113 C111 1.364 . S
C113 C114 1.374 . S
C114 H105 0.930 . S
C114 C113 1.374 . S
C114 C115 1.383 . S
C115 O109 1.412 . S
C115 C114 1.383 . S
C115 C116 1.394 . S
C116 H106 0.929 . S
C116 C112 1.377 . S
C116 C115 1.394 . S
H117 C124 0.929 . S
H118 C127 0.930 . S
H119 C129 0.929 . S
H120 C121 0.969 . S
C121 H120 0.969 . S
C121 O122 1.550 . S
C121 H123 0.973 1_554 S
O122 C121 1.550 . S
O122 C128 1.412 . S
H123 C121 0.973 1_556 S
C124 H117 0.929 . S
C124 C125 1.400 1_556 S
C124 C126 1.364 . S
C125 C124 1.400 1_554 S
C125 C129 1.377 . S
C126 C124 1.364 . S
C126 C127 1.374 . S
C127 H118 0.930 . S
C127 C126 1.374 . S
C127 C128 1.383 1_556 S
C128 O122 1.412 . S
C128 C127 1.383 1_554 S
C128 C129 1.394 . S
C129 H119 0.929 . S
C129 C125 1.377 . S
C129 C128 1.394 . S
H130 C137 0.929 . S
H131 C140 0.930 . S
H132 C142 0.929 . S
H133 C134 0.969 . S
C134 H133 0.969 . S
C134 O135 1.550 . S
C134 H136 0.973 1_554 S
O135 C134 1.550 . S
O135 C141 1.412 . S
H136 C134 0.973 1_556 S
C137 H130 0.929 . S
C137 C138 1.400 1_556 S
C137 C139 1.364 . S
C138 C137 1.400 1_554 S
C138 C142 1.377 . S
C139 C137 1.364 . S
C139 C140 1.374 . S
C140 H131 0.930 . S
C140 C139 1.374 . S
C140 C141 1.383 1_556 S
C141 O135 1.412 . S
C141 C140 1.383 1_554 S
C141 C142 1.394 . S
C142 H132 0.929 . S
C142 C138 1.377 . S
C142 C141 1.394 . S
H143 C150 0.929 . S
H144 C153 0.930 . S
H145 C155 0.929 . S
H146 C147 0.969 . S
C147 H146 0.969 . S
C147 O148 1.550 . S
C147 H149 0.973 1_554 S
O148 C147 1.550 . S
O148 C154 1.412 . S
H149 C147 0.973 1_556 S
C150 H143 0.929 . S
C150 C151 1.400 1_556 S
C150 C152 1.364 . S
C151 C150 1.400 1_554 S
C151 C155 1.377 . S
C152 C150 1.364 . S
C152 C153 1.374 . S
C153 H144 0.930 . S
C153 C152 1.374 . S
C153 C154 1.383 1_556 S
C154 O148 1.412 . S
C154 C153 1.383 1_554 S
C154 C155 1.394 . S
C155 H145 0.929 . S
C155 C151 1.377 . S
C155 C154 1.394 . S
H156 C163 0.929 . S
H157 C166 0.930 . S
H158 C168 0.929 . S
H159 C160 0.975 . S
C160 H159 0.975 . S
C160 O161 1.553 . S
C160 H162 0.958 1_556 S
O161 C160 1.553 . S
O161 C167 1.412 1_556 S
H162 C160 0.958 1_554 S
C163 H156 0.929 . S
C163 C164 1.400 . S
C163 C165 1.364 . S
C164 C163 1.400 . S
C164 C168 1.377 1_554 S
C165 C163 1.364 . S
C165 C166 1.374 . S
C166 H157 0.930 . S
C166 C165 1.374 . S
C166 C167 1.383 . S
C167 O161 1.412 1_554 S
C167 C166 1.383 . S
C167 C168 1.394 1_554 S
C168 H158 0.929 . S
C168 C164 1.377 1_556 S
C168 C167 1.394 1_556 S
H169 C176 0.929 . S
H170 C179 0.930 . S
H171 C181 0.929 . S
H172 C173 0.969 . S
C173 H172 0.969 . S
C173 O174 1.550 . S
C173 H175 0.973 1_556 S
O174 C173 1.550 . S
O174 C180 1.412 1_556 S
H175 C173 0.973 1_554 S
C176 H169 0.929 . S
C176 C177 1.400 . S
C176 C178 1.364 . S
C177 C176 1.400 . S
C177 C181 1.377 1_554 S
C178 C176 1.364 . S
C178 C179 1.374 . S
C179 H170 0.930 . S
C179 C178 1.374 . S
C179 C180 1.383 . S
C180 O174 1.412 1_554 S
C180 C179 1.383 . S
C180 C181 1.394 1_554 S
C181 H171 0.929 . S
C181 C177 1.377 1_556 S
C181 C180 1.394 1_556 S
H182 C189 0.929 . S
H183 C192 0.930 . S
H184 C194 0.929 . S
H185 C186 0.969 1_556 S
C186 H185 0.969 1_554 S
C186 O187 1.550 1_554 S
C186 H188 0.973 . S
O187 C186 1.550 1_556 S
O187 C193 1.412 1_556 S
H188 C186 0.973 . S
C189 H182 0.929 . S
C189 C190 1.400 . S
C189 C191 1.364 . S
C190 C189 1.400 . S
C190 C194 1.377 1_554 S
C191 C189 1.364 . S
C191 C192 1.374 . S
C192 H183 0.930 . S
C192 C191 1.374 . S
C192 C193 1.383 . S
C193 O187 1.412 1_554 S
C193 C192 1.383 . S
C193 C194 1.394 1_554 S
C194 H184 0.929 . S
C194 C190 1.377 1_556 S
C194 C193 1.394 1_556 S
H195 C202 0.929 . S
H196 C205 0.930 . S
H197 C207 0.929 . S
H198 C199 0.969 . S
C199 H198 0.969 . S
C199 O200 1.550 . S
C199 H201 0.973 . S
O200 C199 1.550 . S
O200 C206 1.412 . S
H201 C199 0.973 . S
C202 H195 0.929 . S
C202 C203 1.400 . S
C202 C204 1.364 . S
C203 C202 1.400 . S
C203 C207 1.377 . S
C204 C202 1.364 . S
C204 C205 1.374 . S
C205 H196 0.930 . S
C205 C204 1.374 . S
C205 C206 1.383 . S
C206 O200 1.412 . S
C206 C205 1.383 . S
C206 C207 1.394 . S
C207 H197 0.929 . S
C207 C203 1.377 . S
C207 C206 1.394 . S
H208 C215 0.929 . S
H209 C218 0.930 . S
H210 C220 0.929 . S
H211 C212 0.969 . S
C212 H211 0.969 . S
C212 O213 1.550 . S
C212 H214 0.973 . S
O213 C212 1.550 . S
O213 C219 1.412 . S
H214 C212 0.973 . S
C215 H208 0.929 . S
C215 C216 1.400 . S
C215 C217 1.364 . S
C216 C215 1.400 . S
C216 C220 1.377 . S
C217 C215 1.364 . S
C217 C218 1.374 . S
C218 H209 0.930 . S
C218 C217 1.374 . S
C218 C219 1.383 . S
C219 O213 1.412 . S
C219 C218 1.383 . S
C219 C220 1.394 . S
C220 H210 0.929 . S
C220 C216 1.377 . S
C220 C219 1.394 . S
H221 C228 0.929 . S
H222 C231 0.930 . S
H223 C233 0.929 . S
H224 C225 0.969 . S
C225 H224 0.969 . S
C225 O226 1.550 . S
C225 H227 0.973 . S
O226 C225 1.550 . S
O226 C232 1.412 . S
H227 C225 0.973 . S
C228 H221 0.929 . S
C228 C229 1.400 . S
C228 C230 1.364 . S
C229 C228 1.400 . S
C229 C233 1.377 . S
C230 C228 1.364 . S
C230 C231 1.374 . S
C231 H222 0.930 . S
C231 C230 1.374 . S
C231 C232 1.383 . S
C232 O226 1.412 . S
C232 C231 1.383 . S
C232 C233 1.394 . S
C233 H223 0.929 . S
C233 C229 1.377 . S
C233 C232 1.394 . S
O234 Mn235 2.163 1_565 S
O234 C248 1.244 . S
Mn235 O234 2.163 1_545 S
Mn235 O238 2.160 . S
Mn235 O239 2.221 1_545 S
Mn235 O241 2.163 1_554 S
Mn235 O243 2.160 1_545 S
Mn235 O253 2.221 . S
O236 Mn237 2.087 1_565 S
O236 C248 1.256 . S
Mn237 O236 2.087 1_545 S
Mn237 O244 2.089 1_545 S
Mn237 O253 2.290 . S
Mn237 O254 2.251 . S
O238 Mn235 2.160 . S
O238 C249 1.239 . S
O239 Mn235 2.221 1_565 S
O239 Mn240 2.290 1_554 S
O239 C250 1.278 1_554 S
Mn240 O239 2.290 1_556 S
Mn240 O242 2.089 1_565 S
Mn240 O245 2.251 . S
Mn240 O246 2.087 1_565 S
O241 Mn235 2.163 1_556 S
O241 C251 1.244 . S
O242 Mn240 2.089 1_545 S
O242 C249 1.256 1_556 S
O243 Mn235 2.160 1_565 S
O243 C252 1.239 . S
O244 Mn237 2.089 1_565 S
O244 C252 1.256 . S
O245 Mn240 2.251 . S
O245 C250 1.241 . S
O246 Mn240 2.087 1_545 S
O246 C251 1.256 . S
C247 O253 1.278 . S
C247 O254 1.241 . S
C248 O234 1.244 . S
C248 O236 1.256 . S
C249 O238 1.239 . S
C249 O242 1.256 1_554 S
C250 O239 1.278 1_556 S
C250 O245 1.241 . S
C251 O241 1.244 . S
C251 O246 1.256 . S
C252 O243 1.239 . S
C252 O244 1.256 . S
O253 Mn235 2.221 . S
O253 Mn237 2.290 . S
O253 C247 1.278 . S
O254 Mn237 2.251 . S
O254 C247 1.241 . S
O255 Mn256 2.161 1_455 S
O255 C269 1.244 . S
Mn256 O255 2.161 1_655 S
Mn256 O259 2.162 . S
Mn256 O260 2.221 1_655 S
Mn256 O262 2.163 1_554 S
Mn256 O264 2.159 1_655 S
Mn256 O274 2.222 . S
O257 Mn258 2.087 1_455 S
O257 C269 1.256 . S
Mn258 O257 2.087 1_655 S
Mn258 O265 2.089 1_655 S
Mn258 O274 2.290 . S
Mn258 O275 2.251 . S
O259 Mn256 2.162 . S
O259 C270 1.239 . S
O260 Mn256 2.221 1_455 S
O260 Mn261 2.290 1_554 S
O260 C271 1.278 1_554 S
Mn261 O260 2.290 1_556 S
Mn261 O263 2.089 1_455 S
Mn261 O266 2.251 . S
Mn261 O267 2.087 1_455 S
O262 Mn256 2.163 1_556 S
O262 C272 1.244 . S
O263 Mn261 2.089 1_655 S
O263 C270 1.256 1_556 S
O264 Mn256 2.159 1_455 S
O264 C273 1.239 . S
O265 Mn258 2.089 1_455 S
O265 C273 1.256 . S
O266 Mn261 2.251 . S
O266 C271 1.241 . S
O267 Mn261 2.087 1_655 S
O267 C272 1.256 . S
C268 O274 1.278 . S
C268 O275 1.241 . S
C269 O255 1.244 . S
C269 O257 1.256 . S
C270 O259 1.239 . S
C270 O263 1.256 1_554 S
C271 O260 1.278 1_556 S
C271 O266 1.241 . S
C272 O262 1.244 . S
C272 O267 1.256 . S
C273 O264 1.239 . S
C273 O265 1.256 . S
O274 Mn256 2.222 . S
O274 Mn258 2.290 . S
O274 C268 1.278 . S
O275 Mn258 2.251 . S
O275 C268 1.241 . S
O276 Mn277 2.163 . S
O276 C290 1.244 . S
Mn277 O276 2.163 . S
Mn277 O280 2.160 1_554 S
Mn277 O281 2.221 . S
Mn277 O283 2.163 . S
Mn277 O285 2.160 1_554 S
Mn277 O295 2.221 1_554 S
O278 Mn279 2.087 . S
O278 C290 1.256 1_556 S
Mn279 O278 2.087 . S
Mn279 O286 2.089 . S
Mn279 O295 2.290 . S
Mn279 O296 2.251 . S
O280 Mn277 2.160 1_556 S
O280 C291 1.239 1_556 S
O281 Mn277 2.221 . S
O281 Mn282 2.290 . S
O281 C292 1.278 . S
Mn282 O281 2.290 . S
Mn282 O284 2.089 . S
Mn282 O287 2.251 . S
Mn282 O288 2.087 . S
O283 Mn277 2.163 . S
O283 C293 1.244 . S
O284 Mn282 2.089 . S
O284 C291 1.256 . S
O285 Mn277 2.160 1_556 S
O285 C294 1.239 . S
O286 Mn279 2.089 . S
O286 C294 1.256 . S
O287 Mn282 2.251 . S
O287 C292 1.241 . S
O288 Mn282 2.087 . S
O288 C293 1.256 . S
C289 O295 1.278 1_554 S
C289 O296 1.241 1_554 S
C290 O276 1.244 . S
C290 O278 1.256 1_554 S
C291 O280 1.239 1_554 S
C291 O284 1.256 . S
C292 O281 1.278 . S
C292 O287 1.241 . S
C293 O283 1.244 . S
C293 O288 1.256 . S
C294 O285 1.239 . S
C294 O286 1.256 . S
O295 Mn277 2.221 1_556 S
O295 Mn279 2.290 . S
O295 C289 1.278 1_556 S
O296 Mn279 2.251 . S
O296 C289 1.241 1_556 S
O297 Mn298 2.163 . S
O297 C311 1.244 . S
Mn298 O297 2.163 . S
Mn298 O301 2.160 . S
Mn298 O302 2.221 . S
Mn298 O304 2.163 . S
Mn298 O306 2.160 . S
Mn298 O316 2.221 . S
O299 Mn300 2.087 1_655 S
O299 C311 1.256 1_655 S
Mn300 O299 2.087 1_455 S
Mn300 O307 2.089 . S
Mn300 O316 2.290 . S
Mn300 O317 2.251 . S
O301 Mn298 2.160 . S
O301 C312 1.239 . S
O302 Mn298 2.221 . S
O302 Mn303 2.290 . S
O302 C313 1.278 . S
Mn303 O302 2.290 . S
Mn303 O305 2.089 . S
Mn303 O308 2.251 . S
Mn303 O309 2.087 . S
O304 Mn298 2.163 . S
O304 C314 1.244 . S
O305 Mn303 2.089 . S
O305 C312 1.256 . S
O306 Mn298 2.160 . S
O306 C315 1.239 . S
O307 Mn300 2.089 . S
O307 C315 1.256 . S
O308 Mn303 2.251 . S
O308 C313 1.241 . S
O309 Mn303 2.087 . S
O309 C314 1.256 . S
C310 O316 1.278 . S
C310 O317 1.241 . S
C311 O297 1.244 . S
C311 O299 1.256 1_455 S
C312 O301 1.239 . S
C312 O305 1.256 . S
C313 O302 1.278 . S
C313 O308 1.241 . S
C314 O304 1.244 . S
C314 O309 1.256 . S
C315 O306 1.239 . S
C315 O307 1.256 . S
O316 Mn298 2.221 . S
O316 Mn300 2.290 . S
O316 C310 1.278 . S
O317 Mn300 2.251 . S
O317 C310 1.241 . S
O318 Mn319 2.163 . S
O318 C332 1.244 . S
Mn319 O318 2.163 . S
Mn319 O322 2.160 . S
Mn319 O323 2.221 . S
Mn319 O325 2.163 . S
Mn319 O327 2.160 . S
Mn319 O337 2.221 . S
O320 Mn321 2.087 . S
O320 C332 1.256 . S
Mn321 O320 2.087 . S
Mn321 O328 2.089 . S
Mn321 O337 2.290 . S
Mn321 O338 2.251 . S
O322 Mn319 2.160 . S
O322 C333 1.239 . S
O323 Mn319 2.221 . S
O323 Mn324 2.290 . S
O323 C334 1.278 . S
Mn324 O323 2.290 . S
Mn324 O326 2.089 . S
Mn324 O329 2.251 . S
Mn324 O330 2.087 . S
O325 Mn319 2.163 . S
O325 C335 1.244 . S
O326 Mn324 2.089 . S
O326 C333 1.256 . S
O327 Mn319 2.160 . S
O327 C336 1.239 . S
O328 Mn321 2.089 . S
O328 C336 1.256 . S
O329 Mn324 2.251 . S
O329 C334 1.241 . S
O330 Mn324 2.087 . S
O330 C335 1.256 . S
C331 O337 1.278 . S
C331 O338 1.241 . S
C332 O318 1.244 . S
C332 O320 1.256 . S
C333 O322 1.239 . S
C333 O326 1.256 . S
C334 O323 1.278 . S
C334 O329 1.241 . S
C335 O325 1.244 . S
C335 O330 1.256 . S
C336 O327 1.239 . S
C336 O328 1.256 . S
O337 Mn319 2.221 . S
O337 Mn321 2.290 . S
O337 C331 1.278 . S
O338 Mn321 2.251 . S
O338 C331 1.241 . S
O339 Mn340 2.163 . S
O339 C353 1.244 . S
Mn340 O339 2.163 . S
Mn340 O343 2.160 . S
Mn340 O344 2.221 . S
Mn340 O346 2.163 . S
Mn340 O348 2.160 . S
Mn340 O358 2.221 . S
O341 Mn342 2.087 . S
O341 C353 1.256 . S
Mn342 O341 2.087 . S
Mn342 O349 2.089 . S
Mn342 O358 2.290 . S
Mn342 O359 2.251 1_565 S
O343 Mn340 2.160 . S
O343 C354 1.239 . S
O344 Mn340 2.221 . S
O344 Mn345 2.290 . S
O344 C355 1.278 . S
Mn345 O344 2.290 . S
Mn345 O347 2.089 . S
Mn345 O350 2.251 . S
Mn345 O351 2.087 . S
O346 Mn340 2.163 . S
O346 C356 1.244 . S
O347 Mn345 2.089 . S
O347 C354 1.256 . S
O348 Mn340 2.160 . S
O348 C357 1.239 . S
O349 Mn342 2.089 . S
O349 C357 1.256 . S
O350 Mn345 2.251 . S
O350 C355 1.241 . S
O351 Mn345 2.087 . S
O351 C356 1.256 . S
C352 O358 1.278 1_545 S
C352 O359 1.241 . S
C353 O339 1.244 . S
C353 O341 1.256 . S
C354 O343 1.239 . S
C354 O347 1.256 . S
C355 O344 1.278 . S
C355 O350 1.241 . S
C356 O346 1.244 . S
C356 O351 1.256 . S
C357 O348 1.239 . S
C357 O349 1.256 . S
O358 Mn340 2.221 . S
O358 Mn342 2.290 . S
O358 C352 1.278 1_565 S
O359 Mn342 2.251 1_545 S
O359 C352 1.241 . S
O360 Mn361 2.163 . S
O360 C374 1.244 . S
Mn361 O360 2.163 . S
Mn361 O364 2.160 . S
Mn361 O365 2.221 . S
Mn361 O367 2.163 . S
Mn361 O369 2.160 . S
Mn361 O379 2.221 . S
O362 Mn363 2.087 . S
O362 C374 1.256 . S
Mn363 O362 2.087 . S
Mn363 O370 2.089 . S
Mn363 O379 2.290 . S
Mn363 O380 2.251 . S
O364 Mn361 2.160 . S
O364 C375 1.239 . S
O365 Mn361 2.221 . S
O365 Mn366 2.290 . S
O365 C376 1.278 . S
Mn366 O365 2.290 . S
Mn366 O368 2.089 . S
Mn366 O371 2.251 . S
Mn366 O372 2.087 . S
O367 Mn361 2.163 . S
O367 C377 1.244 . S
O368 Mn366 2.089 . S
O368 C375 1.256 . S
O369 Mn361 2.160 . S
O369 C378 1.239 . S
O370 Mn363 2.089 . S
O370 C378 1.256 . S
O371 Mn366 2.251 . S
O371 C376 1.241 . S
O372 Mn366 2.087 . S
O372 C377 1.256 . S
C373 O379 1.278 . S
C373 O380 1.241 . S
C374 O360 1.244 . S
C374 O362 1.256 . S
C375 O364 1.239 . S
C375 O368 1.256 . S
C376 O365 1.278 . S
C376 O371 1.241 . S
C377 O367 1.244 . S
C377 O372 1.256 . S
C378 O369 1.239 . S
C378 O370 1.256 . S
O379 Mn361 2.221 . S
O379 Mn363 2.290 . S
O379 C373 1.278 . S
O380 Mn363 2.251 . S
O380 C373 1.241 . S
O381 Mn382 2.163 . S
O381 C395 1.244 . S
Mn382 O381 2.163 . S
Mn382 O385 2.160 . S
Mn382 O386 2.221 . S
Mn382 O388 2.163 . S
Mn382 O390 2.160 . S
Mn382 O400 2.221 . S
O383 Mn384 2.087 . S
O383 C395 1.256 . S
Mn384 O383 2.087 . S
Mn384 O391 2.089 . S
Mn384 O400 2.290 . S
Mn384 O401 2.251 1_545 S
O385 Mn382 2.160 . S
O385 C396 1.239 . S
O386 Mn382 2.221 . S
O386 Mn387 2.290 . S
O386 C397 1.278 . S
Mn387 O386 2.290 . S
Mn387 O389 2.089 . S
Mn387 O392 2.251 . S
Mn387 O393 2.087 . S
O388 Mn382 2.163 . S
O388 C398 1.244 . S
O389 Mn387 2.089 . S
O389 C396 1.256 . S
O390 Mn382 2.160 . S
O390 C399 1.239 . S
O391 Mn384 2.089 . S
O391 C399 1.256 . S
O392 Mn387 2.251 . S
O392 C397 1.241 . S
O393 Mn387 2.087 . S
O393 C398 1.256 . S
C394 O400 1.278 1_565 S
C394 O401 1.241 . S
C395 O381 1.244 . S
C395 O383 1.256 . S
C396 O385 1.239 . S
C396 O389 1.256 . S
C397 O386 1.278 . S
C397 O392 1.241 . S
C398 O388 1.244 . S
C398 O393 1.256 . S
C399 O390 1.239 . S
C399 O391 1.256 . S
O400 Mn382 2.221 . S
O400 Mn384 2.290 . S
O400 C394 1.278 1_545 S
O401 Mn384 2.251 1_565 S
O401 C394 1.241 . S
O402 Mn403 2.163 . S
O402 C416 1.244 . S
Mn403 O402 2.163 . S
Mn403 O406 2.160 . S
Mn403 O407 2.221 . S
Mn403 O409 2.163 . S
Mn403 O411 2.160 . S
Mn403 O421 2.221 . S
O404 Mn405 2.087 1_455 S
O404 C416 1.256 1_455 S
Mn405 O404 2.087 1_655 S
Mn405 O412 2.089 . S
Mn405 O421 2.290 . S
Mn405 O422 2.251 . S
O406 Mn403 2.160 . S
O406 C417 1.239 . S
O407 Mn403 2.221 . S
O407 Mn408 2.290 . S
O407 C418 1.278 . S
Mn408 O407 2.290 . S
Mn408 O410 2.089 . S
Mn408 O413 2.251 . S
Mn408 O414 2.087 . S
O409 Mn403 2.163 . S
O409 C419 1.244 . S
O410 Mn408 2.089 . S
O410 C417 1.256 . S
O411 Mn403 2.160 . S
O411 C420 1.239 . S
O412 Mn405 2.089 . S
O412 C420 1.256 . S
O413 Mn408 2.251 . S
O413 C418 1.241 . S
O414 Mn408 2.087 . S
O414 C419 1.256 . S
C415 O421 1.278 . S
C415 O422 1.241 . S
C416 O402 1.244 . S
C416 O404 1.256 1_655 S
C417 O406 1.239 . S
C417 O410 1.256 . S
C418 O407 1.278 . S
C418 O413 1.241 . S
C419 O409 1.244 . S
C419 O414 1.256 . S
C420 O411 1.239 . S
C420 O412 1.256 . S
O421 Mn403 2.221 . S
O421 Mn405 2.290 . S
O421 C415 1.278 . S
O422 Mn405 2.251 . S
O422 C415 1.241 . S
C177 C248 1.443 . S
C190 C269 1.366 . S
C164 C289 1.229 . S
C151 C268 1.158 . S
C290 C125 1.413 . S
C138 C247 1.221 . S
C249 C147 1.446 . S
C270 C121 1.449 . S
C134 C292 1.189 . S
C173 C271 1.135 . S
C186 C291 1.407 . S
C250 C160 1.264 . S
C311 C21 1.443 1_455 S
C34 C332 1.366 . S
C8 C352 1.229 . S
C229 C331 1.158 . S
C203 C353 1.413 . S
C216 C310 1.221 . S
C225 C312 1.446 . S
C199 C333 1.449 . S
C355 C212 1.189 . S
C17 C334 1.135 . S
C354 C30 1.407 1_455 S
C4 C313 1.259 . S
C374 C99 1.443 . S
C112 C395 1.366 . S
C415 C86 1.229 . S
C394 C73 1.158 . S
C416 C47 1.413 1_655 S
C60 C373 1.221 . S
C69 C375 1.446 1_455 S
C43 C396 1.449 . S
C418 C56 1.189 . S
C95 C397 1.135 . S
C108 C417 1.407 . S
C82 C376 1.259 . S
C204 C252 1.489 . S
C273 C217 1.539 . S
C230 C293 1.546 . S
C87 C272 1.622 . S
C100 C294 1.589 . S
C251 C113 1.603 . S
C48 C315 1.489 . S
C61 C336 1.539 . S
C74 C356 1.546 . S
C165 C335 1.622 . S
C357 C178 1.589 . S
C191 C314 1.604 . S
C126 C378 1.490 . S
C139 C399 1.537 . S
C419 C152 1.546 . S
C9 C398 1.622 . S
C22 C420 1.589 . S
C35 C377 1.603 . S
