# Generated by pormake.
# Topology apo, (3,6)-cn, num edge types: 1
# Building blocks:
#     Node 0, Type 0, BuildingBlock: CUQRIR_clean_linker_1, # of connection points: 3
#     Node 1, Type 0, BuildingBlock: CUQRIR_clean_linker_1, # of connection points: 3
#     Node 2, Type 0, BuildingBlock: CUQRIR_clean_linker_1, # of connection points: 3
#     Node 3, Type 0, BuildingBlock: CUQRIR_clean_linker_1, # of connection points: 3
#     Node 4, Type 0, BuildingBlock: CUQRIR_clean_linker_1, # of connection points: 3
#     Node 5, Type 0, BuildingBlock: CUQRIR_clean_linker_1, # of connection points: 3
#     Node 6, Type 0, BuildingBlock: CUQRIR_clean_linker_1, # of connection points: 3
#     Node 7, Type 0, BuildingBlock: CUQRIR_clean_linker_1, # of connection points: 3
#     Node 8, Type 1, BuildingBlock: MIDCAF_clean_sbu_0, # of connection points: 6
#     Node 9, Type 1, BuildingBlock: MIDCAF_clean_sbu_0, # of connection points: 6
#     Node 10, Type 1, BuildingBlock: MIDCAF_clean_sbu_0, # of connection points: 6
#     Node 11, Type 1, BuildingBlock: MIDCAF_clean_sbu_0, # of connection points: 6
#     Edge 12, Type (0, 1), BuildingBlock: AJUNOK_clean_linker_0, # of connection points: 2
#     Edge 13, Type (0, 1), BuildingBlock: AJUNOK_clean_linker_0, # of connection points: 2
#     Edge 14, Type (0, 1), BuildingBlock: AJUNOK_clean_linker_0, # of connection points: 2
#     Edge 15, Type (0, 1), BuildingBlock: AJUNOK_clean_linker_0, # of connection points: 2
#     Edge 16, Type (0, 1), BuildingBlock: AJUNOK_clean_linker_0, # of connection points: 2
#     Edge 17, Type (0, 1), BuildingBlock: AJUNOK_clean_linker_0, # of connection points: 2
#     Edge 18, Type (0, 1), BuildingBlock: AJUNOK_clean_linker_0, # of connection points: 2
#     Edge 19, Type (0, 1), BuildingBlock: AJUNOK_clean_linker_0, # of connection points: 2
#     Edge 20, Type (0, 1), BuildingBlock: AJUNOK_clean_linker_0, # of connection points: 2
#     Edge 21, Type (0, 1), BuildingBlock: AJUNOK_clean_linker_0, # of connection points: 2
#     Edge 22, Type (0, 1), BuildingBlock: AJUNOK_clean_linker_0, # of connection points: 2
#     Edge 23, Type (0, 1), BuildingBlock: AJUNOK_clean_linker_0, # of connection points: 2
#     Edge 24, Type (0, 1), BuildingBlock: AJUNOK_clean_linker_0, # of connection points: 2
#     Edge 25, Type (0, 1), BuildingBlock: AJUNOK_clean_linker_0, # of connection points: 2
#     Edge 26, Type (0, 1), BuildingBlock: AJUNOK_clean_linker_0, # of connection points: 2
#     Edge 27, Type (0, 1), BuildingBlock: AJUNOK_clean_linker_0, # of connection points: 2
#     Edge 28, Type (0, 1), BuildingBlock: AJUNOK_clean_linker_0, # of connection points: 2
#     Edge 29, Type (0, 1), BuildingBlock: AJUNOK_clean_linker_0, # of connection points: 2
#     Edge 30, Type (0, 1), BuildingBlock: AJUNOK_clean_linker_0, # of connection points: 2
#     Edge 31, Type (0, 1), BuildingBlock: AJUNOK_clean_linker_0, # of connection points: 2
#     Edge 32, Type (0, 1), BuildingBlock: AJUNOK_clean_linker_0, # of connection points: 2
#     Edge 33, Type (0, 1), BuildingBlock: AJUNOK_clean_linker_0, # of connection points: 2
#     Edge 34, Type (0, 1), BuildingBlock: AJUNOK_clean_linker_0, # of connection points: 2
#     Edge 35, Type (0, 1), BuildingBlock: AJUNOK_clean_linker_0, # of connection points: 2
# Relax obj value: 0.008
# Max RMSD: 0.059
# Mean RMSD: 0.056
data_MOF--net-apo--node1-MIDCAF_clean_sbu_0--node2-CUQRIR_clean_linker_1--edge1-AJUNOK_clean_linker_0
_symmetry_space_group_name_H-M    P1
_symmetry_Int_Tables_number       1
_symmetry_cell_setting            triclinic
loop_
_symmetry_equiv_pos_as_xyz
'x, y, z'
_cell_length_a     24.963563
_cell_length_b     28.052367
_cell_length_c     20.566593
_cell_angle_alpha  89.795806
_cell_angle_beta   89.480791
_cell_angle_gamma 90.511211
loop_
_atom_site_label
_atom_site_type_symbol
_atom_site_fract_x
_atom_site_fract_y
_atom_site_fract_z
_atom_type_partial_charge
C0 C 0.30957 0.24317 0.4494 0.0
N1 N 0.34443 0.27966 0.45822 0.0
N2 N 0.29162 0.24281 0.38725 0.0
C3 C 0.29119 0.20946 0.50225 0.0
C4 C 0.31664 0.28079 0.35915 0.0
N5 N 0.34955 0.30263 0.40192 0.0
C6 C 0.30734 0.29779 0.29091 0.0
H7 H 0.3183 0.17835 0.50313 0.0
H8 H 0.2498 0.19648 0.49339 0.0
H9 H 0.29282 0.22677 0.55059 0.0
H10 H 0.27457 0.32426 0.29145 0.0
H11 H 0.29542 0.2677 0.25911 0.0
H12 H 0.34392 0.31546 0.27093 0.0
C13 C 0.20864 0.22109 0.94431 0.0
N14 N 0.17085 0.18657 0.95308 0.0
N15 N 0.22299 0.22476 0.8807 0.0
C16 C 0.23576 0.24787 0.99828 0.0
C17 C 0.19314 0.19093 0.85124 0.0
N18 N 0.1614 0.16767 0.8949 0.0
C19 C 0.1985 0.17821 0.78056 0.0
H20 H 0.2172 0.28351 1.00279 0.0
H21 H 0.27894 0.25344 0.98722 0.0
H22 H 0.23147 0.22886 1.04545 0.0
H23 H 0.23358 0.15466 0.77391 0.0
H24 H 0.20567 0.21088 0.75101 0.0
H25 H 0.16211 0.15937 0.76309 0.0
C26 C 0.81881 0.24193 0.68354 0.0
N27 N 0.85087 0.20401 0.6727 0.0
N28 N 0.80527 0.24484 0.7475 0.0
C29 C 0.79556 0.27271 0.63092 0.0
C30 C 0.8296 0.20707 0.77493 0.0
N31 N 0.85757 0.18242 0.72977 0.0
C32 C 0.82503 0.19373 0.84561 0.0
H33 H 0.82057 0.30538 0.62543 0.0
H34 H 0.75424 0.28371 0.64385 0.0
H35 H 0.79494 0.25389 0.58359 0.0
H36 H 0.79057 0.16892 0.85245 0.0
H37 H 0.81797 0.2258 0.87586 0.0
H38 H 0.86182 0.1755 0.86204 0.0
C39 C 0.71357 0.28138 0.17302 0.0
N40 N 0.67207 0.31157 0.16591 0.0
N41 N 0.72189 0.27179 0.23673 0.0
C42 C 0.74723 0.26288 0.11767 0.0
C43 C 0.68375 0.29691 0.2682 0.0
N44 N 0.6536 0.32173 0.22532 0.0
C45 C 0.67604 0.29619 0.34078 0.0
H46 H 0.72335 0.23679 0.08946 0.0
H47 H 0.78388 0.24489 0.13475 0.0
H48 H 0.75845 0.29265 0.08442 0.0
H49 H 0.70922 0.31639 0.36379 0.0
H50 H 0.67806 0.25897 0.35894 0.0
H51 H 0.63707 0.31171 0.35546 0.0
C52 C 0.68138 0.74302 0.65433 0.0
N53 N 0.64155 0.71082 0.6463 0.0
N54 N 0.70571 0.73641 0.71214 0.0
C55 C 0.69809 0.77976 0.60462 0.0
C56 C 0.67988 0.69839 0.73875 0.0
N57 N 0.63968 0.68329 0.69941 0.0
C58 C 0.70008 0.67184 0.79734 0.0
H59 H 0.72761 0.76373 0.57069 0.0
H60 H 0.7172 0.81097 0.62835 0.0
H61 H 0.66312 0.7916 0.57602 0.0
H62 H 0.68156 0.68704 0.8418 0.0
H63 H 0.74413 0.67596 0.80181 0.0
H64 H 0.69018 0.63328 0.79489 0.0
C65 C 0.77783 0.76706 0.15896 0.0
N66 N 0.81057 0.80514 0.14825 0.0
N67 N 0.76201 0.76488 0.22231 0.0
C68 C 0.75864 0.73372 0.10688 0.0
C69 C 0.78673 0.80283 0.24979 0.0
N70 N 0.81627 0.82719 0.20499 0.0
C71 C 0.78365 0.81522 0.32078 0.0
H72 H 0.71734 0.72086 0.11773 0.0
H73 H 0.78544 0.7024 0.10517 0.0
H74 H 0.75956 0.75131 0.05847 0.0
H75 H 0.82251 0.83013 0.33735 0.0
H76 H 0.77275 0.7835 0.35062 0.0
H77 H 0.75268 0.84283 0.3282 0.0
C78 C 0.18632 0.75871 0.42785 0.0
N79 N 0.15094 0.79453 0.43636 0.0
N80 N 0.19132 0.7477 0.36401 0.0
C81 C 0.21812 0.73611 0.48131 0.0
C82 C 0.15767 0.77771 0.33377 0.0
N83 N 0.13318 0.80657 0.37752 0.0
C84 C 0.14659 0.77615 0.26207 0.0
H85 H 0.2252 0.76171 0.52138 0.0
H86 H 0.25712 0.72299 0.46264 0.0
H87 H 0.19514 0.70521 0.50113 0.0
H88 H 0.14389 0.73853 0.24576 0.0
H89 H 0.18053 0.79307 0.23521 0.0
H90 H 0.1089 0.79471 0.24994 0.0
C91 C 0.28475 0.71971 0.93354 0.0
N92 N 0.322 0.68622 0.94514 0.0
N93 N 0.26648 0.71618 0.87192 0.0
C94 C 0.2643 0.75443 0.98314 0.0
C95 C 0.29352 0.67894 0.84658 0.0
N96 N 0.32795 0.66105 0.89073 0.0
C97 C 0.28225 0.65697 0.78146 0.0
H98 H 0.23202 0.7369 1.01224 0.0
H99 H 0.24755 0.78648 0.95926 0.0
H100 H 0.29676 0.76522 1.01669 0.0
H101 H 0.31699 0.6636 0.74855 0.0
H102 H 0.24596 0.67212 0.75887 0.0
H103 H 0.27717 0.61779 0.78676 0.0
Zn104 Zn 0.0373 0.06909 0.41659 0.0
Zn105 Zn 0.9537 0.09619 0.20583 0.0
Zn106 Zn -0.00548 0.08785 0.30746 0.0
C107 C 0.05379 0.1155 0.17294 0.0
C108 C 0.92368 0.00784 0.23843 0.0
O109 O 0.9462 0.12405 0.38649 0.0
O110 O 0.98657 0.09961 0.47589 0.0
C111 C 0.11161 0.12399 0.34203 0.0
O112 O 0.05207 0.12244 0.23506 0.0
O113 O 0.01539 0.09442 0.14568 0.0
O114 O 0.90409 0.04124 0.20547 0.0
O115 O 0.96452 0.01631 0.27472 0.0
O116 O 0.10548 0.10324 0.39621 0.0
O117 O 0.07411 0.12262 0.29945 0.0
O118 O 0.0053 0.00879 0.32034 0.0
O119 O 0.0398 -0.00049 0.4183 0.0
C120 C 0.02397 0.98172 0.36569 0.0
O121 O 0.92365 0.13376 0.32362 0.0
O122 O 0.92072 0.15895 0.22207 0.0
C123 C 0.94985 0.12286 0.44912 0.0
C124 C 0.90504 0.16234 0.2803 0.0
Zn125 Zn 0.55746 0.40149 0.70318 0.0
Zn126 Zn 0.46525 0.39265 0.90117 0.0
Zn127 Zn 0.50781 0.40041 0.80383 0.0
C128 C 0.43484 0.47991 0.86156 0.0
C129 C 0.41633 0.32561 0.83527 0.0
O130 O 0.58726 0.36577 0.82234 0.0
O131 O 0.62631 0.37538 0.72641 0.0
C132 C 0.54441 0.49641 0.72965 0.0
O133 O 0.47805 0.47348 0.82786 0.0
O134 O 0.41448 0.44484 0.89139 0.0
O135 O 0.43418 0.32786 0.89232 0.0
O136 O 0.43497 0.35451 0.79148 0.0
O137 O 0.56101 0.46902 0.68567 0.0
O138 O 0.52044 0.47841 0.78013 0.0
O139 O 0.45979 0.36019 0.72777 0.0
O140 O 0.5154 0.36317 0.64398 0.0
C141 C 0.4713 0.3497 0.66813 0.0
O142 O 0.56157 0.37079 0.88305 0.0
O143 O 0.52052 0.40238 0.96754 0.0
C144 C 0.62823 0.36092 0.78425 0.0
C145 C 0.56045 0.38109 0.94434 0.0
Zn146 Zn 0.03279 0.89628 0.90118 0.0
Zn147 Zn 0.96033 0.9094 0.6959 0.0
Zn148 Zn -0.00431 0.8995 0.79728 0.0
C149 C 0.94237 0.99416 0.7458 0.0
C150 C 0.90041 0.83866 0.75245 0.0
O151 O 0.06666 0.85442 0.78409 0.0
O152 O 0.06898 0.83469 0.88781 0.0
C153 C 0.05949 0.98497 0.86339 0.0
O154 O 0.98061 0.97705 0.78033 0.0
O155 O 0.91777 0.9675 0.70683 0.0
O156 O 0.91987 0.84848 0.69713 0.0
O157 O 0.91893 0.86014 0.80282 0.0
O158 O 0.07854 0.95381 0.90065 0.0
O159 O 0.02119 0.97359 0.82452 0.0
O160 O 0.93653 0.86529 0.86876 0.0
O161 O 0.96979 0.89506 0.95915 0.0
C162 C 0.93299 0.87255 0.93074 0.0
O163 O 0.0486 0.86578 0.7194 0.0
O164 O 0.02453 0.91271 0.63903 0.0
C165 C 0.08457 0.82798 0.8301 0.0
C166 C 0.05543 0.88116 0.66046 0.0
Zn167 Zn 0.53109 0.57411 0.20302 0.0
Zn168 Zn 0.43195 0.58212 0.40625 0.0
Zn169 Zn 0.48092 0.58821 0.30458 0.0
C170 C 0.51262 0.64369 0.43744 0.0
C171 C 0.44069 0.49152 0.38703 0.0
O172 O 0.43382 0.623 0.2235 0.0
O173 O 0.49046 0.61216 0.14218 0.0
C174 C 0.59845 0.62951 0.28114 0.0
O175 O 0.52661 0.63265 0.3787 0.0
O176 O 0.47015 0.6262 0.46112 0.0
O177 O 0.42876 0.51644 0.43566 0.0
O178 O 0.46103 0.51178 0.33572 0.0
O179 O 0.59911 0.60371 0.23102 0.0
O180 O 0.55613 0.63037 0.31764 0.0
O181 O 0.50445 0.51127 0.28787 0.0
O182 O 0.5332 0.50552 0.18635 0.0
C183 C 0.52295 0.48602 0.24025 0.0
O184 O 0.40311 0.62313 0.28255 0.0
O185 O 0.36299 0.60488 0.37542 0.0
C186 C 0.44746 0.62965 0.16331 0.0
C187 C 0.36116 0.62337 0.31962 0.0
C188 C 0.05023 0.85235 0.39699 0.0
C189 C 0.09893 0.84639 0.36317 0.0
C190 C 0.02185 0.89525 0.3926 0.0
C191 C 0.04026 0.9326 0.35225 0.0
H192 H 0.03593 0.82487 0.43009 0.0
H193 H 0.98726 0.90039 0.42392 0.0
S194 S 0.16418 0.93425 0.25222 0.0
N195 N 0.1639 0.88151 0.28809 0.0
N196 N 0.10836 0.96032 0.27601 0.0
C197 C 0.08654 0.92562 0.31453 0.0
C198 C 0.11644 0.88289 0.32083 0.0
C199 C 0.39363 0.60944 0.83426 0.0
C200 C 0.35636 0.61672 0.88495 0.0
C201 C 0.41867 0.56506 0.82597 0.0
C202 C 0.40879 0.52715 0.86959 0.0
H203 H 0.40274 0.63803 0.80034 0.0
H204 H 0.44501 0.56023 0.78455 0.0
S205 S 0.31027 0.52777 1.00682 0.0
N206 N 0.30607 0.5813 0.97406 0.0
N207 N 0.35683 0.50013 0.96431 0.0
C208 C 0.37108 0.53441 0.9203 0.0
C209 C 0.34422 0.57869 0.92673 0.0
C210 C 0.60788 0.60655 0.65587 0.0
C211 C 0.60856 0.63972 0.70658 0.0
C212 C 0.58221 0.56255 0.6628 0.0
C213 C 0.55936 0.54767 0.72261 0.0
H214 H 0.62963 0.61334 0.61118 0.0
H215 H 0.58359 0.53879 0.62142 0.0
S216 S 0.55166 0.62099 0.87199 0.0
N217 N 0.58036 0.65659 0.81754 0.0
N218 N 0.54084 0.56982 0.83473 0.0
C219 C 0.55985 0.58036 0.7743 0.0
C220 C 0.58262 0.62708 0.76543 0.0
C221 C 0.89997 0.87475 0.21499 0.0
C222 C 0.84369 0.87183 0.21533 0.0
C223 C 0.92648 0.91858 0.22591 0.0
C224 C 0.89713 0.96058 0.23595 0.0
H225 H 0.92334 0.84305 0.20621 0.0
H226 H 0.96985 0.91992 0.22417 0.0
S227 S 0.74905 0.97048 0.24299 0.0
N228 N 0.75989 0.91345 0.22894 0.0
N229 N 0.80887 -0.00419 0.24734 0.0
C230 C 0.84085 0.95752 0.23717 0.0
C231 C 0.8143 0.91309 0.22745 0.0
C232 C 0.84881 0.09772 0.75775 0.0
C233 C 0.8814 0.13652 0.73936 0.0
C234 C 0.86999 0.05199 0.76328 0.0
C235 C 0.92466 0.04371 0.75167 0.0
H236 H 0.80625 0.10265 0.76547 0.0
H237 H 0.84309 0.02256 0.77484 0.0
S238 S 0.02699 0.13399 0.70431 0.0
N239 N 0.97087 0.16453 0.71117 0.0
N240 N 0.01123 0.07802 0.72208 0.0
C241 C 0.95812 0.08246 0.7353 0.0
C242 C 0.93627 0.1291 0.72886 0.0
C243 C 0.56508 0.35936 0.20972 0.0
C244 C 0.61521 0.35846 0.2405 0.0
C245 C 0.53194 0.39955 0.21424 0.0
C246 C 0.54701 0.43914 0.25185 0.0
H247 H 0.55305 0.33006 0.17885 0.0
H248 H 0.49581 0.40072 0.18554 0.0
S249 S 0.67354 0.45444 0.34211 0.0
N250 N 0.67825 0.40122 0.30868 0.0
N251 N 0.61415 0.47463 0.32145 0.0
C252 C 0.59524 0.43732 0.28612 0.0
C253 C 0.62979 0.39743 0.27955 0.0
C254 C 0.42753 0.35598 0.37996 0.0
C255 C 0.37276 0.34944 0.39461 0.0
C256 C 0.45009 0.4022 0.37515 0.0
C257 C 0.41822 0.44266 0.3853 0.0
H258 H 0.4529 0.32527 0.37311 0.0
H259 H 0.49261 0.4062 0.36581 0.0
S260 S 0.27256 0.44328 0.42348 0.0
N261 N 0.28762 0.38623 0.41804 0.0
N262 N 0.32904 0.47273 0.4091 0.0
C263 C 0.36331 0.43599 0.3991 0.0
C264 C 0.34078 0.38942 0.40374 0.0
C265 C 0.07886 0.11855 0.88441 0.0
C266 C 0.13503 0.12271 0.88356 0.0
C267 C 0.05365 0.07406 0.87414 0.0
C268 C 0.08425 0.03285 0.86361 0.0
H269 H 0.05463 0.14966 0.8936 0.0
H270 H 0.01035 0.07157 0.87682 0.0
S271 S 0.23243 0.02617 0.85565 0.0
N272 N 0.22003 0.08288 0.87005 0.0
N273 N 0.1733 -0.00042 0.85123 0.0
C274 C 0.14033 0.03718 0.86155 0.0
C275 C 0.1656 0.0821 0.87136 0.0
C276 C 0.15307 0.12287 1.0348 0.0
C277 C 0.14794 0.1705 1.01435 0.0
C278 C 0.12648 0.10595 0.09095 0.0
C279 C 0.09538 0.13644 0.12987 0.0
H280 H 0.17644 0.09819 1.00622 0.0
H281 H 0.12805 0.06824 0.10224 0.0
S282 S 0.07227 0.26481 0.09997 0.0
N283 N 0.11118 0.24823 1.03882 0.0
N284 N 0.06303 0.21685 0.14572 0.0
C285 C 0.09279 0.18472 0.11223 0.0
C286 C 0.11876 0.20169 1.05424 0.0
C287 C 0.42671 0.2798 0.52199 0.0
C288 C 0.37265 0.29164 0.51669 0.0
C289 C 0.45697 0.29552 0.5748 0.0
C290 C 0.43433 0.32397 0.62421 0.0
H291 H 0.44603 0.25966 0.48371 0.0
H292 H 0.49928 0.2872 0.57531 0.0
S293 S 0.29291 0.36253 0.63343 0.0
N294 N 0.29638 0.33116 0.56562 0.0
N295 N 0.35346 0.3614 0.66531 0.0
C296 C 0.37939 0.33408 0.62094 0.0
C297 C 0.34852 0.31793 0.56681 0.0
C298 C 0.63068 0.29797 0.05867 0.0
C299 C 0.65188 0.32961 0.10501 0.0
C300 C 0.60592 0.31491 1.00206 0.0
C301 C 0.60085 0.36406 0.99065 0.0
H302 H 0.63089 0.25997 0.06797 0.0
H303 H 0.58709 0.28952 0.96969 0.0
S304 S 0.6552 0.4613 0.09306 0.0
N305 N 0.67212 0.41196 0.13155 0.0
N306 N 0.6223 0.44401 1.02775 0.0
C307 C 0.62431 0.39589 1.03495 0.0
C308 C 0.65069 0.37862 0.09151 0.0
C309 C 0.85494 0.14093 0.5889 0.0
C310 C 0.86943 0.18673 0.61036 0.0
C311 C 0.87691 0.12202 0.53148 0.0
C312 C 0.91321 0.14864 0.49287 0.0
H313 H 0.82795 0.11901 0.61794 0.0
H314 H 0.86793 0.08529 0.51923 0.0
S315 S 0.96175 0.27114 0.52628 0.0
N316 N 0.92051 0.25887 0.58752 0.0
N317 N 0.96112 0.22363 0.47901 0.0
C318 C 0.92566 0.19538 0.51203 0.0
C319 C 0.90382 0.21441 0.57085 0.0
C320 C 0.87263 0.79021 1.0563 0.0
C321 C 0.83482 0.81957 0.08706 0.0
C322 C 0.90046 0.80564 1.00013 0.0
C323 C 0.89108 0.85078 0.97264 0.0
H324 H 0.88251 0.75614 0.07775 0.0
H325 H 0.93213 0.78349 0.98075 0.0
S326 S 0.79131 0.93835 1.03021 0.0
N327 N 0.78508 0.8933 0.08179 0.0
N328 N 0.83879 0.92314 0.97793 0.0
C329 C 0.85126 0.87922 1.00097 0.0
C330 C 0.8227 0.86337 0.05773 0.0
C331 C 0.63404 0.68881 0.52988 0.0
C332 C 0.61009 0.70423 0.58846 0.0
C333 C 0.60252 0.67274 0.47762 0.0
C334 C 0.54624 0.67259 0.48225 0.0
H335 H 0.67717 0.68563 0.52661 0.0
H336 H 0.62225 0.65727 0.43573 0.0
S337 S 0.46566 0.71967 0.62073 0.0
N338 N 0.52834 0.72466 0.64483 0.0
N339 N 0.46867 0.69732 0.54663 0.0
C340 C 0.52252 0.69299 0.53829 0.0
C341 C 0.55455 0.70807 0.59146 0.0
C342 C 0.32674 0.66344 0.06197 0.0
C343 C 0.35182 0.67972 1.00421 0.0
C344 C 0.35727 0.65031 0.11651 0.0
C345 C 0.4135 0.65448 0.11507 0.0
H346 H 0.28376 0.65792 0.06329 0.0
H347 H 0.33713 0.63416 0.15803 0.0
S348 S 0.49548 0.70754 0.98093 0.0
N349 N 0.43387 0.70664 0.95247 0.0
N350 N 0.49132 0.68491 1.05504 0.0
C351 C 0.43784 0.67576 0.05976 0.0
C352 C 0.40699 0.68769 1.00427 0.0
C353 C 0.11138 0.78779 0.54714 0.0
C354 C 0.13536 0.81584 0.4977 0.0
C355 C 0.09034 0.80866 0.60403 0.0
C356 C 0.09204 0.85837 0.61286 0.0
H357 H 0.10654 0.74977 0.54019 0.0
H358 H 0.06907 0.7862 0.63878 0.0
S359 S 0.15765 0.94643 0.50231 0.0
N360 N 0.16627 0.89473 0.46567 0.0
N361 N 0.12424 0.93439 0.57021 0.0
C362 C 0.11899 0.88626 0.56559 0.0
C363 C 0.14128 0.86491 0.5086 0.0
C364 C 0.20146 0.23212 0.34028 0.0
C365 C 0.25036 0.21263 0.36052 0.0
C366 C 0.15726 0.20253 0.32623 0.0
C367 C 0.16079 0.15274 0.33275 0.0
H368 H 0.19636 0.2704 0.33967 0.0
H369 H 0.11906 0.21882 0.31591 0.0
S370 S 0.28237 0.08449 0.37378 0.0
N371 N 0.3018 0.14087 0.37733 0.0
N372 N 0.21853 0.08526 0.35331 0.0
C373 C 0.21068 0.13298 0.34782 0.0
C374 C 0.25557 0.16296 0.3612 0.0
C375 C 0.2704 0.29401 0.83224 0.0
C376 C 0.2709 0.24682 0.85507 0.0
C377 C 0.31858 0.31818 0.81717 0.0
C378 C 0.36835 0.2958 0.82529 0.0
H379 H 0.23288 0.31294 0.82953 0.0
H380 H 0.31707 0.35572 0.80478 0.0
S381 S 0.38971 0.17099 0.87754 0.0
N382 N 0.32396 0.17725 0.87923 0.0
N383 N 0.4146 0.22281 0.85278 0.0
C384 C 0.36873 0.24765 0.844 0.0
C385 C 0.31989 0.22307 0.85847 0.0
C386 C 0.71652 0.25565 0.79886 0.0
C387 C 0.76543 0.27511 0.77627 0.0
C388 C 0.67253 0.28511 0.8121 0.0
C389 C 0.67647 0.33465 0.8026 0.0
H390 H 0.711 0.21734 0.80086 0.0
H391 H 0.63397 0.26866 0.82267 0.0
S392 S 0.79873 0.40292 0.75605 0.0
N393 N 0.81765 0.34664 0.75478 0.0
N394 N 0.735 0.40215 0.77848 0.0
C395 C 0.72682 0.35455 0.7869 0.0
C396 C 0.77135 0.32468 0.77371 0.0
C397 C 0.76292 0.20228 0.29012 0.0
C398 C 0.76749 0.24865 0.26456 0.0
C399 C 0.80892 0.17576 0.30457 0.0
C400 C 0.86046 0.19495 0.29319 0.0
H401 H 0.72385 0.18545 0.29451 0.0
H402 H 0.80416 0.13866 0.31849 0.0
S403 S 0.89269 0.31709 0.23522 0.0
N404 N 0.82653 0.31459 0.23613 0.0
N405 N 0.91298 0.26455 0.26136 0.0
C406 C 0.86504 0.24264 0.27291 0.0
C407 C 0.81846 0.2696 0.25901 0.0
C408 C 0.80209 0.74673 0.69421 0.0
C409 C 0.75624 0.75641 0.73131 0.0
C410 C 0.85023 0.77076 0.70583 0.0
C411 C 0.85414 0.80553 0.75488 0.0
H412 H 0.79989 0.72182 0.65418 0.0
H413 H 0.88394 0.76388 0.67374 0.0
S414 S 0.74624 0.83928 0.87037 0.0
N415 N 0.71809 0.79894 0.82287 0.0
N416 N 0.80892 0.84512 0.84468 0.0
C417 C 0.80945 0.81292 0.79555 0.0
C418 C 0.76024 0.78814 0.78362 0.0
C419 C 0.73465 0.68247 0.24899 0.0
C420 C 0.72467 0.73153 0.25189 0.0
C421 C 0.695 0.64905 0.26679 0.0
C422 C 0.64382 0.66347 0.28815 0.0
H423 H 0.77239 0.66996 0.22944 0.0
H424 H 0.70313 0.6116 0.25911 0.0
S425 S 0.59979 0.78816 0.31061 0.0
N426 N 0.66184 0.7932 0.28259 0.0
N427 N 0.58729 0.73037 0.31673 0.0
C428 C 0.63498 0.71248 0.2965 0.0
C429 C 0.67538 0.74657 0.27793 0.0
C430 C 0.2754 0.73118 0.30461 0.0
C431 C 0.22797 0.71464 0.33487 0.0
C432 C 0.31729 0.69962 0.28979 0.0
C433 C 0.31254 0.65085 0.30513 0.0
H434 H 0.28164 0.76908 0.29729 0.0
H435 H 0.35528 0.71419 0.27285 0.0
S436 S 0.19209 0.5896 0.37306 0.0
N437 N 0.17557 0.64647 0.37089 0.0
N438 N 0.25349 0.58687 0.3427 0.0
C439 C 0.26281 0.6336 0.32852 0.0
C440 C 0.22073 0.66566 0.34392 0.0
C441 C 0.22356 0.78089 0.81065 0.0
C442 C 0.21951 0.73835 0.84666 0.0
C443 C 0.17767 0.8078 0.7972 0.0
C444 C 0.12701 0.79278 0.82019 0.0
H445 H 0.26263 0.79475 0.79669 0.0
H446 H 0.1825 0.84242 0.77425 0.0
S447 S 0.09572 0.68071 0.90915 0.0
N448 N 0.16138 0.67989 0.89854 0.0
N449 N 0.07511 0.73035 0.87429 0.0
C450 C 0.12244 0.74831 0.85146 0.0
C451 C 0.16884 0.7211 0.86466 0.0
loop_
_geom_bond_atom_site_label_1
_geom_bond_atom_site_label_2
_geom_bond_distance
_geom_bond_site_symmetry_2
_ccdc_geom_bond_type
C0 N1 1.317 . S
C0 N2 1.348 . S
C0 C3 1.485 . S
N1 C0 1.317 . S
N1 N5 1.370 . S
N2 C0 1.348 . S
N2 C4 1.346 . S
C3 C0 1.485 . S
C3 H7 0.960 . S
C3 H8 0.961 . S
C3 H9 0.960 . S
C4 N2 1.346 . S
C4 N5 1.307 . S
C4 C6 1.486 . S
N5 N1 1.370 . S
N5 C4 1.307 . S
C6 C4 1.486 . S
C6 H10 0.960 . S
C6 H11 0.960 . S
C6 H12 0.959 . S
H7 C3 0.960 . S
H8 C3 0.961 . S
H9 C3 0.960 . S
H10 C6 0.960 . S
H11 C6 0.960 . S
H12 C6 0.959 . S
C13 N14 1.317 . S
C13 N15 1.348 . S
C13 C16 1.485 . S
N14 C13 1.317 . S
N14 N18 1.370 . S
N15 C13 1.348 . S
N15 C17 1.346 . S
C16 C13 1.485 . S
C16 H20 0.960 . S
C16 H21 0.961 . S
C16 H22 0.960 1_556 S
C17 N15 1.346 . S
C17 N18 1.307 . S
C17 C19 1.486 . S
N18 N14 1.370 . S
N18 C17 1.307 . S
C19 C17 1.486 . S
C19 H23 0.960 . S
C19 H24 0.960 . S
C19 H25 0.959 . S
H20 C16 0.960 . S
H21 C16 0.961 . S
H22 C16 0.960 1_554 S
H23 C19 0.960 . S
H24 C19 0.960 . S
H25 C19 0.959 . S
C26 N27 1.317 . S
C26 N28 1.348 . S
C26 C29 1.485 . S
N27 C26 1.317 . S
N27 N31 1.370 . S
N28 C26 1.348 . S
N28 C30 1.346 . S
C29 C26 1.485 . S
C29 H33 0.960 . S
C29 H34 0.961 . S
C29 H35 0.960 . S
C30 N28 1.346 . S
C30 N31 1.307 . S
C30 C32 1.486 . S
N31 N27 1.370 . S
N31 C30 1.307 . S
C32 C30 1.486 . S
C32 H36 0.960 . S
C32 H37 0.960 . S
C32 H38 0.959 . S
H33 C29 0.960 . S
H34 C29 0.961 . S
H35 C29 0.960 . S
H36 C32 0.960 . S
H37 C32 0.960 . S
H38 C32 0.959 . S
C39 N40 1.317 . S
C39 N41 1.348 . S
C39 C42 1.485 . S
N40 C39 1.317 . S
N40 N44 1.370 . S
N41 C39 1.348 . S
N41 C43 1.346 . S
C42 C39 1.485 . S
C42 H46 0.960 . S
C42 H47 0.961 . S
C42 H48 0.960 1_554 S
C43 N41 1.346 . S
C43 N44 1.307 . S
C43 C45 1.486 . S
N44 N40 1.370 . S
N44 C43 1.307 . S
C45 C43 1.486 . S
C45 H49 0.960 . S
C45 H50 0.960 . S
C45 H51 0.959 . S
H46 C42 0.960 . S
H47 C42 0.961 . S
H48 C42 0.960 1_556 S
H49 C45 0.960 . S
H50 C45 0.960 . S
H51 C45 0.959 . S
C52 N53 1.317 . S
C52 N54 1.348 . S
C52 C55 1.485 . S
N53 C52 1.317 . S
N53 N57 1.370 . S
N54 C52 1.348 . S
N54 C56 1.346 . S
C55 C52 1.485 . S
C55 H59 0.960 . S
C55 H60 0.961 . S
C55 H61 0.960 . S
C56 N54 1.346 . S
C56 N57 1.307 . S
C56 C58 1.486 . S
N57 N53 1.370 . S
N57 C56 1.307 . S
C58 C56 1.486 . S
C58 H62 0.960 . S
C58 H63 0.960 . S
C58 H64 0.959 . S
H59 C55 0.960 . S
H60 C55 0.961 . S
H61 C55 0.960 . S
H62 C58 0.960 . S
H63 C58 0.960 . S
H64 C58 0.959 . S
C65 N66 1.317 . S
C65 N67 1.348 . S
C65 C68 1.485 . S
N66 C65 1.317 . S
N66 N70 1.370 . S
N67 C65 1.348 . S
N67 C69 1.346 . S
C68 C65 1.485 . S
C68 H72 0.960 . S
C68 H73 0.961 . S
C68 H74 0.960 . S
C69 N67 1.346 . S
C69 N70 1.307 . S
C69 C71 1.486 . S
N70 N66 1.370 . S
N70 C69 1.307 . S
C71 C69 1.486 . S
C71 H75 0.960 . S
C71 H76 0.960 . S
C71 H77 0.959 . S
H72 C68 0.960 . S
H73 C68 0.961 . S
H74 C68 0.960 . S
H75 C71 0.960 . S
H76 C71 0.960 . S
H77 C71 0.959 . S
C78 N79 1.317 . S
C78 N80 1.348 . S
C78 C81 1.485 . S
N79 C78 1.317 . S
N79 N83 1.370 . S
N80 C78 1.348 . S
N80 C82 1.346 . S
C81 C78 1.485 . S
C81 H85 0.960 . S
C81 H86 0.961 . S
C81 H87 0.960 . S
C82 N80 1.346 . S
C82 N83 1.307 . S
C82 C84 1.486 . S
N83 N79 1.370 . S
N83 C82 1.307 . S
C84 C82 1.486 . S
C84 H88 0.960 . S
C84 H89 0.960 . S
C84 H90 0.959 . S
H85 C81 0.960 . S
H86 C81 0.961 . S
H87 C81 0.960 . S
H88 C84 0.960 . S
H89 C84 0.960 . S
H90 C84 0.959 . S
C91 N92 1.317 . S
C91 N93 1.348 . S
C91 C94 1.485 . S
N92 C91 1.317 . S
N92 N96 1.370 . S
N93 C91 1.348 . S
N93 C95 1.346 . S
C94 C91 1.485 . S
C94 H98 0.960 . S
C94 H99 0.961 . S
C94 H100 0.960 . S
C95 N93 1.346 . S
C95 N96 1.307 . S
C95 C97 1.486 . S
N96 N92 1.370 . S
N96 C95 1.307 . S
C97 C95 1.486 . S
C97 H101 0.960 . S
C97 H102 0.960 . S
C97 H103 0.959 . S
H98 C94 0.960 . S
H99 C94 0.961 . S
H100 C94 0.960 . S
H101 C97 0.960 . S
H102 C97 0.960 . S
H103 C97 0.959 . S
Zn104 O110 1.920 1_455 S
Zn104 O116 1.898 . S
Zn104 O119 1.905 . S
Zn105 O113 1.905 1_655 S
Zn105 O114 1.898 . S
Zn105 O122 1.920 . S
Zn106 O109 2.080 1_455 S
Zn106 O112 2.114 . S
Zn106 O115 2.120 1_455 S
Zn106 O117 2.120 . S
Zn106 O118 2.114 . S
Zn106 O121 2.080 1_455 S
C107 O112 1.166 . S
C107 O113 1.182 . S
C108 O114 1.167 . S
C108 O115 1.299 . S
O109 Zn106 2.080 1_655 S
O109 C123 1.305 . S
O110 Zn104 1.920 1_655 S
O110 C123 1.234 . S
C111 O116 1.167 . S
C111 O117 1.299 . S
O112 Zn106 2.114 . S
O112 C107 1.166 . S
O113 Zn105 1.905 1_455 S
O113 C107 1.182 . S
O114 Zn105 1.898 . S
O114 C108 1.167 . S
O115 Zn106 2.120 1_655 S
O115 C108 1.299 . S
O116 Zn104 1.898 . S
O116 C111 1.167 . S
O117 Zn106 2.120 . S
O117 C111 1.299 . S
O118 Zn106 2.114 . S
O118 C120 1.166 . S
O119 Zn104 1.905 . S
O119 C120 1.182 . S
C120 O118 1.166 . S
C120 O119 1.182 . S
O121 Zn106 2.080 1_655 S
O121 C124 1.305 . S
O122 Zn105 1.920 . S
O122 C124 1.234 . S
C123 O109 1.305 . S
C123 O110 1.234 . S
C124 O121 1.305 . S
C124 O122 1.234 . S
Zn125 O131 1.920 . S
Zn125 O137 1.898 . S
Zn125 O140 1.905 . S
Zn126 O134 1.905 . S
Zn126 O135 1.898 . S
Zn126 O143 1.920 . S
Zn127 O130 2.080 . S
Zn127 O133 2.114 . S
Zn127 O136 2.120 . S
Zn127 O138 2.120 . S
Zn127 O139 2.114 . S
Zn127 O142 2.080 . S
C128 O133 1.166 . S
C128 O134 1.182 . S
C129 O135 1.167 . S
C129 O136 1.299 . S
O130 Zn127 2.080 . S
O130 C144 1.305 . S
O131 Zn125 1.920 . S
O131 C144 1.234 . S
C132 O137 1.167 . S
C132 O138 1.299 . S
O133 Zn127 2.114 . S
O133 C128 1.166 . S
O134 Zn126 1.905 . S
O134 C128 1.182 . S
O135 Zn126 1.898 . S
O135 C129 1.167 . S
O136 Zn127 2.120 . S
O136 C129 1.299 . S
O137 Zn125 1.898 . S
O137 C132 1.167 . S
O138 Zn127 2.120 . S
O138 C132 1.299 . S
O139 Zn127 2.114 . S
O139 C141 1.166 . S
O140 Zn125 1.905 . S
O140 C141 1.182 . S
C141 O139 1.166 . S
C141 O140 1.182 . S
O142 Zn127 2.080 . S
O142 C145 1.305 . S
O143 Zn126 1.920 . S
O143 C145 1.234 . S
C144 O130 1.305 . S
C144 O131 1.234 . S
C145 O142 1.305 . S
C145 O143 1.234 . S
Zn146 O152 1.920 . S
Zn146 O158 1.898 . S
Zn146 O161 1.905 1_455 S
Zn147 O155 1.905 . S
Zn147 O156 1.898 . S
Zn147 O164 1.920 1_655 S
Zn148 O151 2.080 . S
Zn148 O154 2.114 1_455 S
Zn148 O157 2.120 1_455 S
Zn148 O159 2.120 . S
Zn148 O160 2.114 1_455 S
Zn148 O163 2.080 . S
C149 O154 1.166 . S
C149 O155 1.182 . S
C150 O156 1.167 . S
C150 O157 1.299 . S
O151 Zn148 2.080 . S
O151 C165 1.305 . S
O152 Zn146 1.920 . S
O152 C165 1.234 . S
C153 O158 1.167 . S
C153 O159 1.299 . S
O154 Zn148 2.114 1_655 S
O154 C149 1.166 . S
O155 Zn147 1.905 . S
O155 C149 1.182 . S
O156 Zn147 1.898 . S
O156 C150 1.167 . S
O157 Zn148 2.120 1_655 S
O157 C150 1.299 . S
O158 Zn146 1.898 . S
O158 C153 1.167 . S
O159 Zn148 2.120 . S
O159 C153 1.299 . S
O160 Zn148 2.114 1_655 S
O160 C162 1.166 . S
O161 Zn146 1.905 1_655 S
O161 C162 1.182 . S
C162 O160 1.166 . S
C162 O161 1.182 . S
O163 Zn148 2.080 . S
O163 C166 1.305 . S
O164 Zn147 1.920 1_455 S
O164 C166 1.234 . S
C165 O151 1.305 . S
C165 O152 1.234 . S
C166 O163 1.305 . S
C166 O164 1.234 . S
Zn167 O173 1.920 . S
Zn167 O179 1.898 . S
Zn167 O182 1.905 . S
Zn168 O176 1.905 . S
Zn168 O177 1.898 . S
Zn168 O185 1.920 . S
Zn169 O172 2.080 . S
Zn169 O175 2.114 . S
Zn169 O178 2.120 . S
Zn169 O180 2.120 . S
Zn169 O181 2.114 . S
Zn169 O184 2.080 . S
C170 O175 1.166 . S
C170 O176 1.182 . S
C171 O177 1.167 . S
C171 O178 1.299 . S
O172 Zn169 2.080 . S
O172 C186 1.305 . S
O173 Zn167 1.920 . S
O173 C186 1.234 . S
C174 O179 1.167 . S
C174 O180 1.299 . S
O175 Zn169 2.114 . S
O175 C170 1.166 . S
O176 Zn168 1.905 . S
O176 C170 1.182 . S
O177 Zn168 1.898 . S
O177 C171 1.167 . S
O178 Zn169 2.120 . S
O178 C171 1.299 . S
O179 Zn167 1.898 . S
O179 C174 1.167 . S
O180 Zn169 2.120 . S
O180 C174 1.299 . S
O181 Zn169 2.114 . S
O181 C183 1.166 . S
O182 Zn167 1.905 . S
O182 C183 1.182 . S
C183 O181 1.166 . S
C183 O182 1.182 . S
O184 Zn169 2.080 . S
O184 C187 1.305 . S
O185 Zn168 1.920 . S
O185 C187 1.234 . S
C186 O172 1.305 . S
C186 O173 1.234 . S
C187 O184 1.305 . S
C187 O185 1.234 . S
C188 C189 1.369 . S
C188 C190 1.419 . S
C188 H192 0.930 . S
C189 C188 1.369 . S
C189 C198 1.429 . S
C190 C188 1.419 . S
C190 C191 1.363 . S
C190 H193 0.929 . S
C191 C190 1.363 . S
C191 C197 1.428 . S
H192 C188 0.930 . S
H193 C190 0.929 . S
S194 N195 1.613 . S
S194 N196 1.606 1_565 S
N195 S194 1.613 . S
N195 C198 1.350 . S
N196 S194 1.606 1_545 S
N196 C197 1.346 1_545 S
C197 C191 1.428 . S
C197 N196 1.346 1_565 S
C197 C198 1.434 . S
C198 C189 1.429 . S
C198 N195 1.350 . S
C198 C197 1.434 . S
C199 C200 1.369 . S
C199 C201 1.419 . S
C199 H203 0.930 . S
C200 C199 1.369 . S
C200 C209 1.429 . S
C201 C199 1.419 . S
C201 C202 1.363 . S
C201 H204 0.929 . S
C202 C201 1.363 . S
C202 C208 1.428 . S
H203 C199 0.930 . S
H204 C201 0.929 . S
S205 N206 1.613 . S
S205 N207 1.610 . S
N206 S205 1.613 . S
N206 C209 1.350 . S
N207 S205 1.610 . S
N207 C208 1.351 . S
C208 C202 1.428 . S
C208 N207 1.351 . S
C208 C209 1.434 . S
C209 C200 1.429 . S
C209 N206 1.350 . S
C209 C208 1.434 . S
C210 C211 1.369 . S
C210 C212 1.419 . S
C210 H214 0.930 . S
C211 C210 1.369 . S
C211 C220 1.429 . S
C212 C210 1.419 . S
C212 C213 1.363 . S
C212 H215 0.929 . S
C213 C212 1.363 . S
C213 C219 1.428 . S
H214 C210 0.930 . S
H215 C212 0.929 . S
S216 N217 1.613 . S
S216 N218 1.610 . S
N217 S216 1.613 . S
N217 C220 1.350 . S
N218 S216 1.610 . S
N218 C219 1.351 . S
C219 C213 1.428 . S
C219 N218 1.351 . S
C219 C220 1.434 . S
C220 C211 1.429 . S
C220 N217 1.350 . S
C220 C219 1.434 . S
C221 C222 1.369 . S
C221 C223 1.419 . S
C221 H225 0.930 . S
C222 C221 1.369 . S
C222 C231 1.429 . S
C223 C221 1.419 . S
C223 C224 1.363 . S
C223 H226 0.929 . S
C224 C223 1.363 . S
C224 C230 1.428 . S
H225 C221 0.930 . S
H226 C223 0.929 . S
S227 N228 1.613 . S
S227 N229 1.610 . S
N228 S227 1.613 . S
N228 C231 1.350 . S
N229 S227 1.610 . S
N229 C230 1.351 . S
C230 C224 1.428 . S
C230 N229 1.351 . S
C230 C231 1.434 . S
C231 C222 1.429 . S
C231 N228 1.350 . S
C231 C230 1.434 . S
C232 C233 1.369 . S
C232 C234 1.419 . S
C232 H236 0.930 . S
C233 C232 1.369 . S
C233 C242 1.429 . S
C234 C232 1.419 . S
C234 C235 1.363 . S
C234 H237 0.929 . S
C235 C234 1.363 . S
C235 C241 1.428 . S
H236 C232 0.930 . S
H237 C234 0.929 . S
S238 N239 1.613 . S
S238 N240 1.610 . S
N239 S238 1.613 . S
N239 C242 1.350 . S
N240 S238 1.610 . S
N240 C241 1.351 . S
C241 C235 1.428 . S
C241 N240 1.351 . S
C241 C242 1.434 . S
C242 C233 1.429 . S
C242 N239 1.350 . S
C242 C241 1.434 . S
C243 C244 1.369 . S
C243 C245 1.419 . S
C243 H247 0.930 . S
C244 C243 1.369 . S
C244 C253 1.429 . S
C245 C243 1.419 . S
C245 C246 1.363 . S
C245 H248 0.929 . S
C246 C245 1.363 . S
C246 C252 1.428 . S
H247 C243 0.930 . S
H248 C245 0.929 . S
S249 N250 1.613 . S
S249 N251 1.610 . S
N250 S249 1.613 . S
N250 C253 1.350 . S
N251 S249 1.610 . S
N251 C252 1.351 . S
C252 C246 1.428 . S
C252 N251 1.351 . S
C252 C253 1.434 . S
C253 C244 1.429 . S
C253 N250 1.350 . S
C253 C252 1.434 . S
C254 C255 1.369 . S
C254 C256 1.419 . S
C254 H258 0.930 . S
C255 C254 1.369 . S
C255 C264 1.429 . S
C256 C254 1.419 . S
C256 C257 1.363 . S
C256 H259 0.929 . S
C257 C256 1.363 . S
C257 C263 1.428 . S
H258 C254 0.930 . S
H259 C256 0.929 . S
S260 N261 1.613 . S
S260 N262 1.610 . S
N261 S260 1.613 . S
N261 C264 1.350 . S
N262 S260 1.610 . S
N262 C263 1.351 . S
C263 C257 1.428 . S
C263 N262 1.351 . S
C263 C264 1.434 . S
C264 C255 1.429 . S
C264 N261 1.350 . S
C264 C263 1.434 . S
C265 C266 1.369 . S
C265 C267 1.419 . S
C265 H269 0.930 . S
C266 C265 1.369 . S
C266 C275 1.429 . S
C267 C265 1.419 . S
C267 C268 1.363 . S
C267 H270 0.929 . S
C268 C267 1.363 . S
C268 C274 1.428 . S
H269 C265 0.930 . S
H270 C267 0.929 . S
S271 N272 1.613 . S
S271 N273 1.610 1_545 S
N272 S271 1.613 . S
N272 C275 1.350 . S
N273 S271 1.610 1_565 S
N273 C274 1.351 1_565 S
C274 C268 1.428 . S
C274 N273 1.351 1_545 S
C274 C275 1.434 . S
C275 C266 1.429 . S
C275 N272 1.350 . S
C275 C274 1.434 . S
C276 C277 1.369 1_554 S
C276 C278 1.419 . S
C276 H280 0.930 . S
C277 C276 1.369 1_556 S
C277 C286 1.429 . S
C278 C276 1.419 . S
C278 C279 1.363 . S
C278 H281 0.929 . S
C279 C278 1.363 . S
C279 C285 1.428 . S
H280 C276 0.930 . S
H281 C278 0.929 . S
S282 N283 1.613 1_554 S
S282 N284 1.610 . S
N283 S282 1.613 1_556 S
N283 C286 1.350 . S
N284 S282 1.610 . S
N284 C285 1.351 . S
C285 C279 1.428 . S
C285 N284 1.351 . S
C285 C286 1.434 1_554 S
C286 C277 1.429 . S
C286 N283 1.350 . S
C286 C285 1.434 1_556 S
C287 C288 1.369 . S
C287 C289 1.419 . S
C287 H291 0.930 . S
C288 C287 1.369 . S
C288 C297 1.429 . S
C289 C287 1.419 . S
C289 C290 1.363 . S
C289 H292 0.929 . S
C290 C289 1.363 . S
C290 C296 1.428 . S
H291 C287 0.930 . S
H292 C289 0.929 . S
S293 N294 1.613 . S
S293 N295 1.610 . S
N294 S293 1.613 . S
N294 C297 1.350 . S
N295 S293 1.610 . S
N295 C296 1.351 . S
C296 C290 1.428 . S
C296 N295 1.351 . S
C296 C297 1.434 . S
C297 C288 1.429 . S
C297 N294 1.350 . S
C297 C296 1.434 . S
C298 C299 1.369 1_556 S
C298 C300 1.419 . S
C298 H302 0.930 . S
C299 C298 1.369 1_554 S
C299 C308 1.429 . S
C300 C298 1.419 . S
C300 C301 1.363 . S
C300 H303 0.929 . S
C301 C300 1.363 . S
C301 C307 1.428 . S
H302 C298 0.930 . S
H303 C300 0.929 . S
S304 N305 1.613 . S
S304 N306 1.610 1_554 S
N305 S304 1.613 . S
N305 C308 1.350 . S
N306 S304 1.610 1_556 S
N306 C307 1.351 . S
C307 C301 1.428 . S
C307 N306 1.351 . S
C307 C308 1.434 1_556 S
C308 C299 1.429 . S
C308 N305 1.350 . S
C308 C307 1.434 1_554 S
C309 C310 1.369 . S
C309 C311 1.419 . S
C309 H313 0.930 . S
C310 C309 1.369 . S
C310 C319 1.429 . S
C311 C309 1.419 . S
C311 C312 1.363 . S
C311 H314 0.929 . S
C312 C311 1.363 . S
C312 C318 1.428 . S
H313 C309 0.930 . S
H314 C311 0.929 . S
S315 N316 1.613 . S
S315 N317 1.610 . S
N316 S315 1.613 . S
N316 C319 1.350 . S
N317 S315 1.610 . S
N317 C318 1.351 . S
C318 C312 1.428 . S
C318 N317 1.351 . S
C318 C319 1.434 . S
C319 C310 1.429 . S
C319 N316 1.350 . S
C319 C318 1.434 . S
C320 C321 1.369 1_556 S
C320 C322 1.419 . S
C320 H324 0.930 . S
C321 C320 1.369 1_554 S
C321 C330 1.429 . S
C322 C320 1.419 . S
C322 C323 1.363 . S
C322 H325 0.929 . S
C323 C322 1.363 . S
C323 C329 1.428 . S
H324 C320 0.930 . S
H325 C322 0.929 . S
S326 N327 1.612 1_556 S
S326 N328 1.612 . S
N327 S326 1.612 1_554 S
N327 C330 1.350 . S
N328 S326 1.612 . S
N328 C329 1.351 . S
C329 C323 1.428 . S
C329 N328 1.351 . S
C329 C330 1.434 1_556 S
C330 C321 1.429 . S
C330 N327 1.350 . S
C330 C329 1.434 1_554 S
C331 C332 1.369 . S
C331 C333 1.419 . S
C331 H335 0.930 . S
C332 C331 1.369 . S
C332 C341 1.429 . S
C333 C331 1.419 . S
C333 C334 1.363 . S
C333 H336 0.929 . S
C334 C333 1.363 . S
C334 C340 1.428 . S
H335 C331 0.930 . S
H336 C333 0.929 . S
S337 N338 1.613 . S
S337 N339 1.610 . S
N338 S337 1.613 . S
N338 C341 1.350 . S
N339 S337 1.610 . S
N339 C340 1.351 . S
C340 C334 1.428 . S
C340 N339 1.351 . S
C340 C341 1.434 . S
C341 C332 1.429 . S
C341 N338 1.350 . S
C341 C340 1.434 . S
C342 C343 1.369 1_554 S
C342 C344 1.419 . S
C342 H346 0.930 1_554 S
C343 C342 1.369 1_556 S
C343 C352 1.429 . S
C344 C342 1.419 . S
C344 C345 1.363 . S
C344 H347 0.929 . S
C345 C344 1.363 . S
C345 C351 1.428 . S
H346 C342 0.930 1_556 S
H347 C344 0.929 . S
S348 N349 1.613 1_554 S
S348 N350 1.610 . S
N349 S348 1.613 1_556 S
N349 C352 1.350 . S
N350 S348 1.610 . S
N350 C351 1.351 . S
C351 C345 1.428 . S
C351 N350 1.351 . S
C351 C352 1.434 1_554 S
C352 C343 1.429 . S
C352 N349 1.350 . S
C352 C351 1.434 1_556 S
C353 C354 1.369 . S
C353 C355 1.419 . S
C353 H357 0.930 . S
C354 C353 1.369 . S
C354 C363 1.429 . S
C355 C353 1.419 . S
C355 C356 1.363 . S
C355 H358 0.929 . S
C356 C355 1.363 . S
C356 C362 1.428 . S
H357 C353 0.930 . S
H358 C355 0.929 . S
S359 N360 1.613 . S
S359 N361 1.610 . S
N360 S359 1.613 . S
N360 C363 1.350 . S
N361 S359 1.610 . S
N361 C362 1.351 . S
C362 C356 1.428 . S
C362 N361 1.351 . S
C362 C363 1.434 . S
C363 C354 1.429 . S
C363 N360 1.350 . S
C363 C362 1.434 . S
C364 C365 1.369 . S
C364 C366 1.419 . S
C364 H368 0.930 . S
C365 C364 1.369 . S
C365 C374 1.429 . S
C366 C364 1.419 . S
C366 C367 1.363 . S
C366 H369 0.929 . S
C367 C366 1.363 . S
C367 C373 1.428 . S
H368 C364 0.930 . S
H369 C366 0.929 . S
S370 N371 1.613 . S
S370 N372 1.610 . S
N371 S370 1.613 . S
N371 C374 1.350 . S
N372 S370 1.610 . S
N372 C373 1.351 . S
C373 C367 1.428 . S
C373 N372 1.351 . S
C373 C374 1.434 . S
C374 C365 1.429 . S
C374 N371 1.350 . S
C374 C373 1.434 . S
C375 C376 1.369 . S
C375 C377 1.419 . S
C375 H379 0.930 . S
C376 C375 1.369 . S
C376 C385 1.429 . S
C377 C375 1.419 . S
C377 C378 1.363 . S
C377 H380 0.929 . S
C378 C377 1.363 . S
C378 C384 1.428 . S
H379 C375 0.930 . S
H380 C377 0.929 . S
S381 N382 1.613 . S
S381 N383 1.610 . S
N382 S381 1.613 . S
N382 C385 1.350 . S
N383 S381 1.610 . S
N383 C384 1.351 . S
C384 C378 1.428 . S
C384 N383 1.351 . S
C384 C385 1.434 . S
C385 C376 1.429 . S
C385 N382 1.350 . S
C385 C384 1.434 . S
C386 C387 1.369 . S
C386 C388 1.419 . S
C386 H390 0.930 . S
C387 C386 1.369 . S
C387 C396 1.429 . S
C388 C386 1.419 . S
C388 C389 1.363 . S
C388 H391 0.929 . S
C389 C388 1.363 . S
C389 C395 1.428 . S
H390 C386 0.930 . S
H391 C388 0.929 . S
S392 N393 1.613 . S
S392 N394 1.610 . S
N393 S392 1.613 . S
N393 C396 1.350 . S
N394 S392 1.610 . S
N394 C395 1.351 . S
C395 C389 1.428 . S
C395 N394 1.351 . S
C395 C396 1.434 . S
C396 C387 1.429 . S
C396 N393 1.350 . S
C396 C395 1.434 . S
C397 C398 1.369 . S
C397 C399 1.419 . S
C397 H401 0.930 . S
C398 C397 1.369 . S
C398 C407 1.429 . S
C399 C397 1.419 . S
C399 C400 1.363 . S
C399 H402 0.929 . S
C400 C399 1.363 . S
C400 C406 1.428 . S
H401 C397 0.930 . S
H402 C399 0.929 . S
S403 N404 1.613 . S
S403 N405 1.610 . S
N404 S403 1.613 . S
N404 C407 1.350 . S
N405 S403 1.610 . S
N405 C406 1.351 . S
C406 C400 1.428 . S
C406 N405 1.351 . S
C406 C407 1.434 . S
C407 C398 1.429 . S
C407 N404 1.350 . S
C407 C406 1.434 . S
C408 C409 1.369 . S
C408 C410 1.419 . S
C408 H412 0.930 . S
C409 C408 1.369 . S
C409 C418 1.429 . S
C410 C408 1.419 . S
C410 C411 1.363 . S
C410 H413 0.929 . S
C411 C410 1.363 . S
C411 C417 1.428 . S
H412 C408 0.930 . S
H413 C410 0.929 . S
S414 N415 1.613 . S
S414 N416 1.610 . S
N415 S414 1.613 . S
N415 C418 1.350 . S
N416 S414 1.610 . S
N416 C417 1.351 . S
C417 C411 1.428 . S
C417 N416 1.351 . S
C417 C418 1.434 . S
C418 C409 1.429 . S
C418 N415 1.350 . S
C418 C417 1.434 . S
C419 C420 1.369 . S
C419 C421 1.419 . S
C419 H423 0.930 . S
C420 C419 1.369 . S
C420 C429 1.429 . S
C421 C419 1.419 . S
C421 C422 1.363 . S
C421 H424 0.929 . S
C422 C421 1.363 . S
C422 C428 1.428 . S
H423 C419 0.930 . S
H424 C421 0.929 . S
S425 N426 1.613 . S
S425 N427 1.610 . S
N426 S425 1.613 . S
N426 C429 1.350 . S
N427 S425 1.610 . S
N427 C428 1.351 . S
C428 C422 1.428 . S
C428 N427 1.351 . S
C428 C429 1.434 . S
C429 C420 1.429 . S
C429 N426 1.350 . S
C429 C428 1.434 . S
C430 C431 1.369 . S
C430 C432 1.419 . S
C430 H434 0.930 . S
C431 C430 1.369 . S
C431 C440 1.429 . S
C432 C430 1.419 . S
C432 C433 1.363 . S
C432 H435 0.929 . S
C433 C432 1.363 . S
C433 C439 1.428 . S
H434 C430 0.930 . S
H435 C432 0.929 . S
S436 N437 1.613 . S
S436 N438 1.610 . S
N437 S436 1.613 . S
N437 C440 1.350 . S
N438 S436 1.610 . S
N438 C439 1.351 . S
C439 C433 1.428 . S
C439 N438 1.351 . S
C439 C440 1.434 . S
C440 C431 1.429 . S
C440 N437 1.350 . S
C440 C439 1.434 . S
C441 C442 1.369 . S
C441 C443 1.419 . S
C441 H445 0.930 . S
C442 C441 1.369 . S
C442 C451 1.429 . S
C443 C441 1.419 . S
C443 C444 1.363 . S
C443 H446 0.929 . S
C444 C443 1.363 . S
C444 C450 1.428 . S
H445 C441 0.930 . S
H446 C443 0.929 . S
S447 N448 1.613 . S
S447 N449 1.610 . S
N448 S447 1.613 . S
N448 C451 1.350 . S
N449 S447 1.610 . S
N449 C450 1.351 . S
C450 C444 1.428 . S
C450 N449 1.351 . S
C450 C451 1.434 . S
C451 C442 1.429 . S
C451 N448 1.350 . S
C451 C450 1.434 . S
C189 N83 1.471 . S
C191 C120 1.383 1_565 S
C202 C128 1.383 . S
C200 N96 1.473 . S
C213 C132 1.380 . S
C211 N57 1.472 . S
C222 N70 1.471 . S
C224 C108 1.373 1_565 S
C235 C149 1.382 1_545 S
C233 N31 1.471 . S
C246 C183 1.383 . S
C244 N44 1.470 . S
C255 N5 1.468 . S
C257 C171 1.376 . S
C266 N18 1.468 . S
C268 C153 1.375 1_545 S
C279 C107 1.353 . S
C277 N14 1.486 . S
C290 C141 1.360 . S
C288 N1 1.483 . S
C301 C145 1.347 . S
C299 N40 1.485 . S
C312 C123 1.345 . S
C310 N27 1.486 . S
C323 C162 1.354 . S
C321 N66 1.493 . S
C332 N53 1.494 . S
C334 C170 1.349 . S
C345 C186 1.348 . S
C343 N92 1.490 . S
C354 N79 1.491 . S
C356 C166 1.348 . S
C367 C111 1.352 . S
C365 N2 1.527 . S
C378 C129 1.351 . S
C376 N15 1.524 . S
C387 N28 1.522 . S
C389 C144 1.351 . S
C400 C124 1.352 . S
C398 N41 1.521 . S
C411 C150 1.358 . S
C409 N54 1.529 . S
C420 N67 1.529 . S
C422 C174 1.350 . S
C431 N80 1.524 . S
C433 C187 1.361 . S
C442 N93 1.524 . S
C444 C165 1.359 . S
