# Generated by pormake.
# Topology zzz, (3,6)-cn, num edge types: 1
# Building blocks:
#     Node 0, Type 0, BuildingBlock: BETDAH_clean_linker_0, # of connection points: 3
#     Node 1, Type 0, BuildingBlock: BETDAH_clean_linker_0, # of connection points: 3
#     Node 2, Type 0, BuildingBlock: BETDAH_clean_linker_0, # of connection points: 3
#     Node 3, Type 0, BuildingBlock: BETDAH_clean_linker_0, # of connection points: 3
#     Node 4, Type 0, BuildingBlock: BETDAH_clean_linker_0, # of connection points: 3
#     Node 5, Type 0, BuildingBlock: BETDAH_clean_linker_0, # of connection points: 3
#     Node 6, Type 0, BuildingBlock: BETDAH_clean_linker_0, # of connection points: 3
#     Node 7, Type 0, BuildingBlock: BETDAH_clean_linker_0, # of connection points: 3
#     Node 8, Type 1, BuildingBlock: BETFEN_clean_sbu_0, # of connection points: 6
#     Node 9, Type 1, BuildingBlock: BETFEN_clean_sbu_0, # of connection points: 6
#     Node 10, Type 1, BuildingBlock: BETFEN_clean_sbu_0, # of connection points: 6
#     Node 11, Type 1, BuildingBlock: BETFEN_clean_sbu_0, # of connection points: 6
#     Edge 12, Type (0, 1), BuildingBlock: XIVTED_clean_linker_0, # of connection points: 2
#     Edge 13, Type (0, 1), BuildingBlock: XIVTED_clean_linker_0, # of connection points: 2
#     Edge 14, Type (0, 1), BuildingBlock: XIVTED_clean_linker_0, # of connection points: 2
#     Edge 15, Type (0, 1), BuildingBlock: XIVTED_clean_linker_0, # of connection points: 2
#     Edge 16, Type (0, 1), BuildingBlock: XIVTED_clean_linker_0, # of connection points: 2
#     Edge 17, Type (0, 1), BuildingBlock: XIVTED_clean_linker_0, # of connection points: 2
#     Edge 18, Type (0, 1), BuildingBlock: XIVTED_clean_linker_0, # of connection points: 2
#     Edge 19, Type (0, 1), BuildingBlock: XIVTED_clean_linker_0, # of connection points: 2
#     Edge 20, Type (0, 1), BuildingBlock: XIVTED_clean_linker_0, # of connection points: 2
#     Edge 21, Type (0, 1), BuildingBlock: XIVTED_clean_linker_0, # of connection points: 2
#     Edge 22, Type (0, 1), BuildingBlock: XIVTED_clean_linker_0, # of connection points: 2
#     Edge 23, Type (0, 1), BuildingBlock: XIVTED_clean_linker_0, # of connection points: 2
#     Edge 24, Type (0, 1), BuildingBlock: XIVTED_clean_linker_0, # of connection points: 2
#     Edge 25, Type (0, 1), BuildingBlock: XIVTED_clean_linker_0, # of connection points: 2
#     Edge 26, Type (0, 1), BuildingBlock: XIVTED_clean_linker_0, # of connection points: 2
#     Edge 27, Type (0, 1), BuildingBlock: XIVTED_clean_linker_0, # of connection points: 2
#     Edge 28, Type (0, 1), BuildingBlock: XIVTED_clean_linker_0, # of connection points: 2
#     Edge 29, Type (0, 1), BuildingBlock: XIVTED_clean_linker_0, # of connection points: 2
#     Edge 30, Type (0, 1), BuildingBlock: XIVTED_clean_linker_0, # of connection points: 2
#     Edge 31, Type (0, 1), BuildingBlock: XIVTED_clean_linker_0, # of connection points: 2
#     Edge 32, Type (0, 1), BuildingBlock: XIVTED_clean_linker_0, # of connection points: 2
#     Edge 33, Type (0, 1), BuildingBlock: XIVTED_clean_linker_0, # of connection points: 2
#     Edge 34, Type (0, 1), BuildingBlock: XIVTED_clean_linker_0, # of connection points: 2
#     Edge 35, Type (0, 1), BuildingBlock: XIVTED_clean_linker_0, # of connection points: 2
# Relax obj value: 0.279
# Max RMSD: 0.192
# Mean RMSD: 0.162
data_MOF--net-zzz--node1-BETFEN_clean_sbu_0--node2-BETDAH_clean_linker_0--edge1-XIVTED_clean_linker_0
_symmetry_space_group_name_H-M    P1
_symmetry_Int_Tables_number       1
_symmetry_cell_setting            triclinic
loop_
_symmetry_equiv_pos_as_xyz
'x, y, z'
_cell_length_a     52.05859
_cell_length_b     52.249087
_cell_length_c     13.553259
_cell_angle_alpha  89.680796
_cell_angle_beta   89.996511
_cell_angle_gamma 90.384631
loop_
_atom_site_label
_atom_site_type_symbol
_atom_site_fract_x
_atom_site_fract_y
_atom_site_fract_z
_atom_type_partial_charge
H0 H 0.81145 0.48593 0.43902 0.0
H1 H 0.73684 0.50299 0.32313 0.0
H2 H 0.76901 0.54866 0.55786 0.0
C3 C 0.79363 0.49653 0.44332 0.0
C4 C 0.79225 0.51713 0.50836 0.0
C5 C 0.77399 0.49162 0.37508 0.0
C6 C 0.75176 0.50661 0.37699 0.0
C7 C 0.74953 0.52696 0.44444 0.0
C8 C 0.77007 0.53234 0.5091 0.0
N9 N 0.72757 0.54308 0.44482 0.0
C10 C 0.70825 0.54179 0.37371 0.0
H11 H 0.06215 0.8065 0.43777 0.0
H12 H 0.05411 0.73365 0.29585 0.0
H13 H 0.99997 0.75655 0.51999 0.0
C14 C 0.05264 0.788 0.43236 0.0
C15 C 0.03054 0.78348 0.48826 0.0
C16 C 0.06108 0.77032 0.36233 0.0
C17 C 0.04778 0.74705 0.35132 0.0
C18 C 0.02606 0.74157 0.41045 0.0
C19 C 1.01726 0.76015 0.47749 0.0
N20 N 1.01223 0.71805 0.4022 0.0
C21 C 1.01781 0.69899 0.3339 0.0
H22 H 0.73686 0.99884 0.30508 0.0
H23 H 0.81799 1.00553 0.26449 0.0
H24 H 0.78479 1.01725 0.55342 0.0
C25 C 0.75581 1.00167 0.33665 0.0
C26 C 0.75798 1.00823 0.43636 0.0
C27 C 0.77728 1.00096 0.27468 0.0
C28 C 0.80165 1.0056 0.31389 0.0
C29 C 0.80472 1.01087 0.41532 0.0
C30 C 0.78271 1.0121 0.47651 0.0
N31 N 0.8295 1.01627 0.45549 0.0
C32 C 0.85128 1.01943 0.39634 0.0
H33 H 0.49122 0.7384 0.47941 0.0
H34 H 0.49817 0.81032 0.32649 0.0
H35 H 0.55517 0.78779 0.54125 0.0
C36 C 0.50078 0.75677 0.46964 0.0
C37 C 0.52375 0.76127 0.51985 0.0
C38 C 0.49155 0.77415 0.39916 0.0
C39 C 0.50506 0.79713 0.38228 0.0
C40 C 0.52772 0.80256 0.43589 0.0
C41 C 0.53717 0.78428 0.50335 0.0
N42 N 0.54193 0.82564 0.42141 0.0
C43 C 0.53638 0.84393 0.34942 0.0
H44 H 0.24528 0.56705 0.06045 0.0
H45 H 0.31579 0.55512 0.21772 0.0
H46 H 0.29064 0.50096 0.99782 0.0
C47 C 0.263 0.55649 0.07028 0.0
C48 C 0.26614 0.53362 0.01908 0.0
C49 C 0.28055 0.5642 0.14288 0.0
C50 C 0.30258 0.54945 0.16004 0.0
C51 C 0.3068 0.52697 0.10519 0.0
C52 C 0.28818 0.5189 0.03631 0.0
N53 N 0.32884 0.51146 0.12037 0.0
C54 C 0.34788 0.51626 0.1903 0.0
H55 H 0.98977 0.22868 0.07134 0.0
H56 H 1.0033 0.30108 0.21127 0.0
H57 H 0.05216 0.27624 0.97282 0.0
C58 C 1.00011 0.24677 0.07463 0.0
C59 C 1.02127 0.25049 0.01294 0.0
C60 C 0.99361 0.26474 0.14663 0.0
C61 C 1.00806 0.28743 0.15437 0.0
C62 C 0.02887 0.29207 0.08958 0.0
C63 C 0.03561 0.27326 0.02009 0.0
N64 N 0.04379 0.31498 0.09394 0.0
C65 C 0.04062 0.33416 0.16394 0.0
H66 H 0.30889 0.97795 0.08656 0.0
H67 H 0.23395 0.98902 0.20885 0.0
H68 H 0.26209 0.03932 0.97838 0.0
C69 C 0.29058 0.98778 0.08521 0.0
C70 C 0.2877 1.00905 0.02344 0.0
C71 C 0.27141 0.98064 0.15256 0.0
C72 C 0.24836 0.99431 0.155 0.0
C73 C 0.24444 1.01508 0.08976 0.0
C74 C 0.26449 0.0227 0.02561 0.0
N75 N 0.22101 0.02905 0.08894 0.0
C76 C 0.20013 0.0238 0.15068 0.0
H77 H 0.48238 0.31802 0.13948 0.0
H78 H 0.48775 0.24011 0.23719 0.0
H79 H 0.52458 0.26435 0.96615 0.0
C80 C 0.4881 0.2984 0.12574 0.0
C81 C 0.50364 0.29341 0.04446 0.0
C82 C 0.48243 0.27938 0.19567 0.0
C83 C 0.49147 0.25448 0.18122 0.0
C84 C 0.50599 0.24864 0.09625 0.0
C85 C 0.51224 0.26835 0.02851 0.0
N86 N 0.51563 0.22359 0.07942 0.0
C87 C 0.51324 0.20328 0.14609 0.0
Pr88 Pr 0.03918 1.0099 0.85417 0.0
Pr89 Pr 1.00328 0.0232 0.65564 0.0
C90 C 0.05674 0.99301 0.02792 0.0
C91 C 0.07277 0.97054 0.04701 0.0
C92 C 0.0832 0.95724 0.96686 0.0
C93 C 0.09487 0.93357 0.98113 0.0
C94 C 0.09615 0.92263 0.07586 0.0
C95 C 0.08695 0.93671 0.15686 0.0
C96 C 0.07526 0.96049 0.14241 0.0
C97 C 0.06846 1.00901 0.67942 0.0
C98 C 1.01479 0.96227 0.7138 0.0
C99 C 0.9857 0.04057 0.48262 0.0
C100 C 0.97101 0.06402 0.4649 0.0
C101 C 0.96307 0.07855 0.54608 0.0
C102 C 0.95309 0.103 0.53231 0.0
C103 C 0.95095 0.11344 0.437 0.0
C104 C 0.95746 0.09818 0.35533 0.0
C105 C 0.96752 0.07363 0.36928 0.0
C106 C 0.97418 0.02478 0.83135 0.0
C107 C 0.02845 0.07077 0.79322 0.0
O108 O 0.0336 0.98756 0.99559 0.0
O109 O 0.06791 1.01178 0.97908 0.0
O110 O 0.0449 1.01363 0.68811 0.0
O111 O 0.07805 1.0046 0.76614 0.0
O112 O 1.00729 0.97858 0.64422 0.0
O113 O 0.02468 0.96967 0.79937 0.0
O114 O 1.00933 0.04462 0.51246 0.0
O115 O 0.97374 0.02262 0.53318 0.0
O116 O 0.99767 0.01988 0.82219 0.0
O117 O 0.96455 0.02888 0.74445 0.0
O118 O 0.0352 0.05459 0.86443 0.0
O119 O 1.01882 0.0632 0.70756 0.0
H120 H 0.08125 0.96462 0.89243 0.0
H121 H 0.10196 0.92336 0.91745 0.0
H122 H 0.08732 0.92869 0.23069 0.0
H123 H 0.06713 0.97042 0.20493 0.0
H124 H 0.96577 0.07147 0.62061 0.0
H125 H 0.94805 0.11416 0.59652 0.0
H126 H 0.95632 0.10578 0.28097 0.0
H127 H 0.9737 0.06271 0.30592 0.0
Pr128 Pr 0.52975 0.03608 0.8212 0.0
Pr129 Pr 0.51397 1.00432 0.63584 0.0
C130 C 0.55752 0.05515 0.96911 0.0
C131 C 0.58582 0.05323 0.97777 0.0
C132 C 0.60195 0.0695 0.92172 0.0
C133 C 0.62802 0.064 0.91063 0.0
C134 C 0.63851 0.04218 0.95542 0.0
C135 C 0.62278 0.02682 0.01623 0.0
C136 C 0.59676 0.03233 0.02757 0.0
C137 C 0.51485 0.06489 0.65777 0.0
C138 C 0.57545 1.01426 0.66768 0.0
C139 C 0.49159 0.98936 0.46817 0.0
C140 C 0.46848 0.97343 0.45748 0.0
C141 C 0.45607 0.96413 0.54257 0.0
C142 C 0.43212 0.95215 0.53576 0.0
C143 C 0.42018 0.94921 0.44362 0.0
C144 C 0.43334 0.95736 0.35796 0.0
C145 C 0.45731 0.96949 0.36495 0.0
C146 C 0.51838 0.97011 0.79569 0.0
C147 C 0.469 0.02358 0.79924 0.0
O148 O 0.54461 0.03362 0.97806 0.0
O149 O 0.54913 0.06948 0.89666 0.0
O150 O 0.52917 0.04542 0.65455 0.0
O151 O 0.5078 0.06998 0.74756 0.0
O152 O 0.55773 1.00894 0.60097 0.0
O153 O 0.5693 0.02173 0.75752 0.0
O154 O 0.4874 1.0118 0.50768 0.0
O155 O 0.51173 0.97775 0.50485 0.0
O156 O 0.52207 0.99392 0.79783 0.0
O157 O 0.51289 0.96304 0.70677 0.0
O158 O 0.48696 0.0292 0.86478 0.0
O159 O 0.47476 1.01698 0.70769 0.0
H160 H 0.59423 0.08582 0.88233 0.0
H161 H 0.63974 0.07631 0.86411 0.0
H162 H 0.63053 1.01031 0.0543 0.0
H163 H 0.58497 1.01949 0.07168 0.0
H164 H 0.46443 0.96713 0.61483 0.0
H165 H 0.42255 0.94598 0.60286 0.0
H166 H 0.42447 0.95574 0.28596 0.0
H167 H 0.46657 0.9767 0.29873 0.0
Pr168 Pr 0.51215 0.53591 0.88322 0.0
Pr169 Pr 0.54096 0.52141 0.68322 0.0
C170 C 0.49159 0.54944 0.056 0.0
C171 C 0.48144 0.57474 0.0829 0.0
C172 C 0.45769 0.57709 0.13094 0.0
C173 C 0.447 0.60135 0.14601 0.0
C174 C 0.45984 0.62356 0.11228 0.0
C175 C 0.48374 0.62098 0.06529 0.0
C176 C 0.49434 0.59693 0.05057 0.0
C177 C 0.48262 0.53635 0.71145 0.0
C178 C 0.53606 0.58263 0.74397 0.0
C179 C 0.54732 0.50335 0.50142 0.0
C180 C 0.53548 0.47963 0.46243 0.0
C181 C 0.54994 0.45705 0.4604 0.0
C182 C 0.53773 0.43324 0.45472 0.0
C183 C 0.51077 0.43147 0.45085 0.0
C184 C 0.49648 0.45414 0.44341 0.0
C185 C 0.50876 0.47797 0.44814 0.0
C186 C 0.57747 0.52821 0.83409 0.0
C187 C 0.52224 0.47447 0.83386 0.0
O188 O 0.51649 0.54835 0.04177 0.0
O189 O 0.47838 0.53718 0.98876 0.0
O190 O 0.49884 0.51949 0.73448 0.0
O191 O 0.4813 0.55399 0.77815 0.0
O192 O 0.53841 0.56621 0.67029 0.0
O193 O 0.52984 0.57525 0.8345 0.0
O194 O 0.53179 0.52249 0.51976 0.0
O195 O 0.5642 0.49962 0.5717 0.0
O196 O 0.55351 0.53035 0.84059 0.0
O197 O 0.58369 0.5227 0.74385 0.0
O198 O 0.51763 0.49144 0.90388 0.0
O199 O 0.52841 0.48127 0.743 0.0
H200 H 0.44723 0.5602 0.15516 0.0
H201 H 0.42858 0.6027 0.18267 0.0
H202 H 0.49456 0.63761 0.04079 0.0
H203 H 0.51258 0.59576 0.01257 0.0
H204 H 0.5706 0.45769 0.46985 0.0
H205 H 0.54943 0.41619 0.45642 0.0
H206 H 0.47572 0.45356 0.43904 0.0
H207 H 0.49712 0.49504 0.4468 0.0
Pr208 Pr 0.0256 0.50166 0.83636 0.0
Pr209 Pr 0.0379 0.53329 0.64452 0.0
C210 C 1.00345 0.48242 1.00019 0.0
C211 C 0.97607 0.48021 0.02541 0.0
C212 C 0.96681 0.45954 0.08152 0.0
C213 C 0.9403 0.45581 0.09355 0.0
C214 C 0.92256 0.47229 0.04696 0.0
C215 C 0.93228 0.49304 0.99134 0.0
C216 C 0.95858 0.49724 0.98279 0.0
C217 C 0.0384 0.47259 0.67242 0.0
C218 C 0.97704 0.52296 0.69057 0.0
C219 C 0.05756 0.54667 0.46932 0.0
C220 C 0.08227 0.55953 0.44668 0.0
C221 C 0.08282 0.58344 0.39879 0.0
C222 C 0.10615 0.59661 0.38567 0.0
C223 C 0.12928 0.5861 0.42065 0.0
C224 C 0.12857 0.56206 0.46766 0.0
C225 C 0.10543 0.54899 0.48065 0.0
C226 C 0.03623 0.56776 0.80275 0.0
C227 C 0.08572 0.51536 0.79801 0.0
O228 O 1.01285 0.50571 0.99523 0.0
O229 O 1.01065 0.46814 0.92649 0.0
O230 O 0.02374 0.49187 0.67065 0.0
O231 O 0.04697 0.46798 0.76089 0.0
O232 O 0.99334 0.53187 0.62393 0.0
O233 O 0.98484 0.51212 0.77356 0.0
O234 O 0.05903 0.52332 0.50488 0.0
O235 O 0.0404 0.56066 0.51431 0.0
O236 O 0.0327 0.5439 0.80812 0.0
O237 O 0.04056 0.57454 0.71216 0.0
O238 O 0.06887 0.50946 0.86743 0.0
O239 O 0.07857 0.52192 0.70763 0.0
H240 H 0.98005 0.44611 0.11488 0.0
H241 H 0.9339 0.44003 0.1395 0.0
H242 H 0.91977 0.50599 0.95202 0.0
H243 H 0.96521 0.51354 0.94022 0.0
H244 H 0.0652 0.59209 0.37279 0.0
H245 H 0.10603 0.61507 0.34896 0.0
H246 H 0.14602 0.55298 0.49306 0.0
H247 H 0.10577 0.53066 0.51828 0.0
H248 H 0.19269 0.9832 0.27277 0.0
H249 H 0.06097 0.03509 0.50349 0.0
H250 H 0.15837 0.05382 0.17599 0.0
H251 H 0.11163 0.98207 0.64926 0.0
H252 H 0.09106 0.03694 0.36263 0.0
H253 H 0.15759 0.9772 0.39081 0.0
C254 C 0.17769 0.9974 0.27625 0.0
C255 C 0.1785 1.01919 0.21587 0.0
C256 C 0.09535 0.02472 0.42519 0.0
C257 C 0.13816 1.01242 0.35018 0.0
C258 C 0.07813 0.02352 0.50495 0.0
C259 C 0.08392 1.00848 0.58796 0.0
C260 C 0.11818 1.01042 0.42843 0.0
C261 C 0.10654 0.99405 0.58691 0.0
C262 C 0.15763 0.99397 0.34354 0.0
C263 C 0.1584 0.03685 0.22222 0.0
N264 N 0.12279 0.99539 0.50873 0.0
N265 N 0.13903 0.03316 0.28867 0.0
H266 H 0.54067 0.15963 0.1388 0.0
H267 H 0.48519 0.10759 0.65428 0.0
H268 H 0.48277 0.1984 0.30753 0.0
H269 H 0.53781 0.06456 0.47506 0.0
H270 H 0.48315 0.1403 0.52518 0.0
H271 H 0.53933 0.12403 0.25806 0.0
C272 C 0.52763 0.16053 0.20097 0.0
C273 C 0.5119 0.18187 0.21413 0.0
C274 C 0.49503 0.12366 0.51353 0.0
C275 C 0.51025 0.1415 0.35061 0.0
C276 C 0.49619 0.10494 0.58728 0.0
C277 C 0.5118 0.0834 0.57559 0.0
C278 C 0.50975 0.12097 0.42735 0.0
C279 C 0.52556 0.08092 0.4871 0.0
C280 C 0.52683 0.14026 0.26887 0.0
C281 C 0.4953 0.18229 0.29531 0.0
N282 N 0.52437 0.09958 0.41665 0.0
N283 N 0.49498 0.16245 0.36077 0.0
H284 H 0.37953 0.47961 0.25845 0.0
H285 H 0.45253 0.57382 0.63298 0.0
H286 H 0.36243 0.55983 0.28382 0.0
H287 H 0.47028 0.49375 0.60437 0.0
H288 H 0.42042 0.56947 0.5019 0.0
H289 H 0.41377 0.48464 0.38142 0.0
C290 C 0.38308 0.4983 0.29019 0.0
C291 C 0.36825 0.51933 0.26194 0.0
C292 C 0.43142 0.55286 0.52372 0.0
C293 C 0.40722 0.52534 0.40228 0.0
C294 C 0.44975 0.55534 0.59851 0.0
C295 C 0.4642 0.53415 0.62879 0.0
C296 C 0.42732 0.52892 0.47936 0.0
C297 C 0.45978 0.51065 0.58213 0.0
C298 C 0.4026 0.50119 0.3602 0.0
C299 C 0.37349 0.54316 0.30441 0.0
N300 N 0.4417 0.50864 0.50996 0.0
N301 N 0.39253 0.54553 0.37274 0.0
H302 H 1.01422 0.37868 0.14986 0.0
H303 H 0.06685 0.42915 0.67118 0.0
H304 H 0.0648 0.33595 0.33952 0.0
H305 H 1.014 0.47235 0.49174 0.0
H306 H 0.06739 0.39577 0.54626 0.0
H307 H 1.01428 0.41375 0.27049 0.0
C308 C 0.02521 0.37671 0.21734 0.0
C309 C 0.03942 0.35452 0.23572 0.0
C310 C 0.0557 0.41254 0.53367 0.0
C311 C 0.03986 0.39438 0.37302 0.0
C312 C 0.05545 0.43169 0.60502 0.0
C313 C 0.04027 0.45353 0.59212 0.0
C314 C 0.04063 0.41511 0.44825 0.0
C315 C 0.02596 0.45579 0.50468 0.0
C316 C 0.02532 0.3967 0.28591 0.0
C317 C 0.05351 0.3528 0.32332 0.0
N318 N 0.02639 0.43676 0.4362 0.0
N319 N 0.05339 0.37246 0.38869 0.0
H320 H 0.84843 0.04823 0.23275 0.0
H321 H 0.98702 1.00926 0.02145 0.0
H322 H 0.89938 0.99875 0.39432 0.0
H323 H 0.92624 0.04328 0.85022 0.0
H324 H 0.95877 1.01006 0.16792 0.0
H325 H 0.88045 0.05196 0.10139 0.0
C326 C 0.86657 0.03836 0.24069 0.0
C327 C 0.87139 0.02317 0.32369 0.0
C328 C 0.95176 1.01741 0.09816 0.0
C329 C 0.90813 0.02703 0.17347 0.0
C330 C 0.96787 1.017 0.01484 0.0
C331 C 0.95888 0.02601 0.92345 0.0
C332 C 0.92669 0.02718 0.08965 0.0
C333 C 0.93393 0.03593 0.9189 0.0
C334 C 0.88482 0.04038 0.16565 0.0
C335 C 0.89508 1.01065 0.33087 0.0
N336 N 0.91881 0.03622 1.00037 0.0
N337 N 0.91263 1.01276 0.25631 0.0
H338 H 0.54274 0.89525 0.36461 0.0
H339 H 0.50981 0.91895 0.7933 0.0
H340 H 0.52091 0.83569 0.16228 0.0
H341 H 0.53125 0.98016 0.98954 0.0
H342 H 0.51295 0.88865 0.92983 0.0
H343 H 0.53761 0.92707 0.2316 0.0
C344 C 0.53672 0.88898 0.29207 0.0
C345 C 0.53218 0.863 0.27357 0.0
C346 C 0.51697 0.90868 0.94356 0.0
C347 C 0.52647 0.89897 0.12159 0.0
C348 C 0.51521 0.92603 0.86541 0.0
C349 C 0.52035 0.95211 0.88003 0.0
C350 C 0.52399 0.91736 0.0377 0.0
C351 C 0.52718 0.96019 0.97515 0.0
C352 C 0.53385 0.90708 0.2163 0.0
C353 C 0.52453 0.85564 0.17898 0.0
N354 N 0.52885 0.94284 0.0505 0.0
N355 N 0.52197 0.87353 0.10641 0.0
H356 H 0.71707 0.53328 0.181 0.0
H357 H 0.56789 0.53822 0.0296 0.0
H358 H 0.65655 0.54662 0.39075 0.0
H359 H 0.62949 0.52459 0.82436 0.0
H360 H 0.59959 0.54192 0.16309 0.0
H361 H 0.68496 0.53043 0.04918 0.0
C362 C 0.69694 0.53561 0.19891 0.0
C363 C 0.68927 0.54018 0.29607 0.0
C364 C 0.60617 0.53817 0.08881 0.0
C365 C 0.6524 0.53699 0.14641 0.0
C366 C 0.58807 0.53609 0.01268 0.0
C367 C 0.59609 0.53112 0.91588 0.0
C368 C 0.63245 0.53523 0.0678 0.0
C369 C 0.62247 0.52845 0.89795 0.0
C370 C 0.6786 0.534 0.12388 0.0
C371 C 0.66307 0.54308 0.31622 0.0
N372 N 0.63966 0.53052 0.97301 0.0
N373 N 0.64551 0.54143 0.24193 0.0
H374 H 1.01355 0.64763 0.36054 0.0
H375 H 0.04501 0.61881 0.79248 0.0
H376 H 0.03192 0.70548 0.14382 0.0
H377 H 0.02462 0.55916 0.99979 0.0
H378 H 0.04206 0.6502 0.92376 0.0
H379 H 1.01931 0.61448 0.23411 0.0
C380 C 1.01893 0.65326 0.28626 0.0
C381 C 0.0223 0.67916 0.26185 0.0
C382 C 0.03824 0.63028 0.94115 0.0
C383 C 0.02874 0.64163 0.11729 0.0
C384 C 0.03993 0.61228 0.86598 0.0
C385 C 0.03496 0.5863 0.88506 0.0
C386 C 0.03147 0.62242 0.03694 0.0
C387 C 0.02855 0.57901 0.9819 0.0
C388 C 0.02216 0.63439 0.21422 0.0
C389 C 0.02919 0.68564 0.16515 0.0
N390 N 0.02691 0.597 0.05433 0.0
N391 N 0.03212 0.66702 0.09638 0.0
H392 H 1.00083 0.26082 0.34492 0.0
H393 H 0.9203 0.13638 0.29742 0.0
H394 H 0.9442 0.24851 0.11818 0.0
H395 H 0.96948 0.15354 0.54499 0.0
H396 H 0.91923 0.18196 0.25629 0.0
H397 H 0.97935 0.22868 0.44748 0.0
C398 C 0.9831 0.25226 0.31876 0.0
C399 C 0.97466 0.25668 0.22204 0.0
C400 C 0.92975 0.17587 0.32111 0.0
C401 C 0.9507 0.21909 0.33646 0.0
C402 C 0.93048 0.1498 0.34414 0.0
C403 C 0.94543 0.14107 0.42337 0.0
C404 C 0.94454 0.19326 0.37648 0.0
C405 C 0.9578 0.15935 0.48281 0.0
C406 C 0.97099 0.23358 0.37675 0.0
C407 C 0.95158 0.24512 0.19177 0.0
N408 N 0.95755 0.18448 0.45685 0.0
N409 N 0.94088 0.22616 0.24733 0.0
H410 H 0.28684 0.93124 0.12939 0.0
H411 H 0.38021 0.96334 0.56214 0.0
H412 H 0.27383 0.98864 0.35022 0.0
H413 H 0.3979 0.91653 0.31011 0.0
H414 H 0.33455 0.95818 0.52658 0.0
H415 H 0.31819 0.91088 0.23796 0.0
C416 C 0.28966 0.93877 0.20296 0.0
C417 C 0.27841 0.96201 0.23012 0.0
C418 C 0.34837 0.94844 0.48062 0.0
C419 C 0.31485 0.9396 0.35251 0.0
C420 C 0.3745 0.9513 0.50104 0.0
C421 C 0.39292 0.94091 0.43723 0.0
C422 C 0.34065 0.93531 0.39539 0.0
C423 C 0.38433 0.92552 0.35933 0.0
C424 C 0.30778 0.92736 0.26449 0.0
C425 C 0.2825 0.97096 0.32611 0.0
N426 N 0.35883 0.92362 0.33938 0.0
N427 N 0.3011 0.96024 0.38282 0.0
H428 H 0.43663 0.30263 0.23237 0.0
H429 H 0.52403 0.38976 0.56327 0.0
H430 H 0.50645 0.27824 0.37324 0.0
H431 H 0.46753 0.41522 0.35188 0.0
H432 H 0.50624 0.34646 0.55307 0.0
H433 H 0.43484 0.33913 0.34379 0.0
C434 C 0.45071 0.30408 0.29097 0.0
C435 C 0.4723 0.28815 0.29129 0.0
C436 C 0.49742 0.36167 0.51061 0.0
C437 C 0.47093 0.33007 0.41589 0.0
C438 C 0.50776 0.38633 0.51528 0.0
C439 C 0.49783 0.40604 0.45574 0.0
C440 C 0.47702 0.35662 0.4458 0.0
C441 C 0.47607 0.40065 0.3982 0.0
C442 C 0.44997 0.3252 0.35339 0.0
C443 C 0.48987 0.2906 0.36903 0.0
N444 N 0.4667 0.37636 0.39332 0.0
N445 N 0.48943 0.31191 0.42598 0.0
H446 H 0.2652 0.61318 0.10179 0.0
H447 H 0.14522 0.6117 0.25417 0.0
H448 H 0.27459 0.55957 0.34136 0.0
H449 H 0.17111 0.58909 0.54407 0.0
H450 H 0.18917 0.62185 0.20916 0.0
H451 H 0.231 0.63415 0.19407 0.0
C452 C 0.26081 0.60655 0.17582 0.0
C453 C 0.27194 0.58404 0.21263 0.0
C454 C 0.18535 0.61566 0.28405 0.0
C455 C 0.23202 0.60678 0.3155 0.0
C456 C 0.16004 0.60973 0.30971 0.0
C457 C 0.15451 0.59874 0.40199 0.0
C458 C 0.20535 0.61026 0.35083 0.0
C459 C 0.17464 0.59659 0.47066 0.0
C460 C 0.2409 0.61816 0.2276 0.0
C461 C 0.266 0.57651 0.30937 0.0
N462 N 0.19924 0.60154 0.44275 0.0
N463 N 0.24576 0.58731 0.35628 0.0
H464 H 0.10934 0.78848 0.40056 0.0
H465 H 0.08384 0.882 0.95787 0.0
H466 H 0.05625 0.77428 0.16309 0.0
H467 H 0.12529 0.9011 0.2236 0.0
H468 H 0.08818 0.83675 0.99829 0.0
H469 H 0.13022 0.82168 0.30068 0.0
C470 C 0.10292 0.79151 0.32538 0.0
C471 C 0.08064 0.77924 0.29078 0.0
C472 C 0.0969 0.8508 0.04654 0.0
C473 C 0.10372 0.81762 0.17783 0.0
C474 C 0.09454 0.87671 0.02335 0.0
C475 C 0.10372 0.89545 0.08874 0.0
C476 C 0.1083 0.84354 0.13617 0.0
C477 C 0.11727 0.88733 0.17259 0.0
C478 C 0.11462 0.81067 0.26881 0.0
C479 C 0.07315 0.78365 0.19291 0.0
N480 N 0.11873 0.86199 0.19487 0.0
N481 N 0.08415 0.80312 0.14078 0.0
H482 H 0.79052 0.03716 0.1383 0.0
H483 H 0.68025 0.07431 0.95889 0.0
H484 H 0.75224 0.96423 0.16824 0.0
H485 H 0.65918 0.99509 0.91949 0.0
H486 H 0.72481 0.06196 0.97495 0.0
H487 H 0.76406 0.04663 0.99432 0.0
C488 C 0.77724 0.02267 0.1119 0.0
C489 C 0.77264 1.00037 0.16729 0.0
C490 C 0.71083 0.04715 0.95934 0.0
C491 C 0.74106 1.01179 0.00814 0.0
C492 C 0.68516 0.05433 0.95067 0.0
C493 C 0.66592 0.0356 0.94188 0.0
C494 C 0.71721 0.02099 0.96024 0.0
C495 C 0.67338 1.01003 0.93057 0.0
C496 C 0.76162 0.02835 0.031 0.0
C497 C 0.75568 0.98204 0.12899 0.0
N498 N 0.69835 1.00341 0.94252 0.0
N499 N 0.73981 0.98851 0.05368 0.0
H500 H 0.44445 0.75464 0.44955 0.0
H501 H 0.46059 0.66528 0.9881 0.0
H502 H 0.4927 0.77113 0.19857 0.0
H503 H 0.43591 0.64146 0.27864 0.0
H504 H 0.45461 0.7099 0.03575 0.0
H505 H 0.42284 0.7211 0.35502 0.0
C506 C 0.4496 0.75206 0.37279 0.0
C507 C 0.47093 0.76501 0.33266 0.0
C508 C 0.44983 0.69485 0.08805 0.0
C509 C 0.44676 0.72651 0.22531 0.0
C510 C 0.45342 0.66939 0.06133 0.0
C511 C 0.44967 0.64962 0.1308 0.0
C512 C 0.44236 0.70059 0.18479 0.0
C513 C 0.43945 0.65603 0.22313 0.0
C514 C 0.43745 0.73274 0.31926 0.0
C515 C 0.47665 0.76122 0.23279 0.0
N516 N 0.43668 0.68101 0.24818 0.0
N517 N 0.46518 0.74169 0.18325 0.0
H518 H 0.79444 0.44325 0.37256 0.0
H519 H 0.88443 0.50878 0.03648 0.0
H520 H 0.76944 0.50426 0.18091 0.0
H521 H 0.89487 0.4275 0.08483 0.0
H522 H 0.8394 0.50353 0.06743 0.0
H523 H 0.82568 0.43057 0.24804 0.0
C524 C 0.79458 0.45312 0.30204 0.0
C525 C 0.78032 0.4756 0.28877 0.0
C526 C 0.85138 0.48666 0.06925 0.0
C527 C 0.8162 0.46168 0.14786 0.0
C528 C 0.87747 0.4896 0.05112 0.0
C529 C 0.89417 0.46862 0.05872 0.0
C530 C 0.84169 0.46283 0.09987 0.0
C531 C 0.88323 0.44454 0.08151 0.0
C532 C 0.81255 0.44597 0.23108 0.0
C533 C 0.78073 0.48732 0.1955 0.0
N534 N 0.85781 0.44243 0.10402 0.0
N535 N 0.79922 0.48088 0.12986 0.0
H536 H 0.99734 0.23304 0.84816 0.0
H537 H 1.01435 0.10998 0.66934 0.0
H538 H 0.06036 0.21713 0.04405 0.0
H539 H 0.04877 0.09586 0.95426 0.0
H540 H 1.01702 0.15577 0.69963 0.0
H541 H 1.00133 0.19027 0.77869 0.0
C542 C 1.0128 0.22084 0.8732 0.0
C543 C 0.02894 0.22877 0.95008 0.0
C544 C 0.02376 0.14275 0.75617 0.0
C545 C 0.03336 0.17931 0.87309 0.0
C546 C 0.02244 0.11645 0.73857 0.0
C547 C 0.03106 0.09883 0.80991 0.0
C548 C 0.03363 0.1517 0.8462 0.0
C549 C 0.04162 0.1086 0.8975 0.0
C550 C 1.01505 0.19628 0.83392 0.0
C551 C 0.04799 0.2119 0.98307 0.0
N552 N 0.04252 0.13433 0.91322 0.0
N553 N 0.04939 0.1878 0.9456 0.0
H554 H 0.31564 0.05299 0.0472 0.0
H555 H 0.44744 0.04633 0.96198 0.0
H556 H 0.31285 0.98348 0.87819 0.0
H557 H 0.42751 1.00388 0.70032 0.0
H558 H 0.40189 0.0478 0.00609 0.0
H559 H 0.35966 0.06066 0.98838 0.0
C560 C 0.32407 0.03978 0.99529 0.0
C561 C 0.3106 1.01769 0.96682 0.0
C562 C 0.40739 0.03862 0.93799 0.0
C563 C 0.36128 0.02558 0.90294 0.0
C564 C 0.43349 0.03748 0.91342 0.0
C565 C 0.44141 0.02501 0.8272 0.0
C566 C 0.389 0.02699 0.87632 0.0
C567 C 0.42238 1.01383 0.76726 0.0
C568 C 0.34939 0.04383 0.96348 0.0
C569 C 0.32256 1.00085 0.90114 0.0
N570 N 0.39718 1.01485 0.7935 0.0
N571 N 0.34723 1.00507 0.8718 0.0
H572 H 0.54131 0.32561 0.10143 0.0
H573 H 0.51115 0.43525 0.70731 0.0
H574 H 0.48603 0.31358 0.8697 0.0
H575 H 0.53045 0.45039 0.0112 0.0
H576 H 0.5102 0.3892 0.74497 0.0
H577 H 0.54761 0.36972 0.04377 0.0
C578 C 0.5313 0.33202 0.03576 0.0
C579 C 0.51346 0.3159 0.98908 0.0
C580 C 0.51471 0.40266 0.80301 0.0
C581 C 0.51997 0.36648 0.9246 0.0
C582 C 0.51523 0.4289 0.78191 0.0
C583 C 0.52075 0.44671 0.8566 0.0
C584 C 0.52047 0.39412 0.89868 0.0
C585 C 0.52587 0.43738 0.95174 0.0
C586 C 0.53456 0.35727 0.00403 0.0
C587 C 0.50032 0.32531 0.90626 0.0
N588 N 0.52582 0.41173 0.96986 0.0
N589 N 0.50374 0.3501 0.87674 0.0
H590 H 0.24599 0.55471 0.85203 0.0
H591 H 0.10938 0.49231 0.95605 0.0
H592 H 0.23486 0.49301 0.05988 0.0
H593 H 0.12576 0.5362 0.69253 0.0
H594 H 0.15534 0.49188 0.99402 0.0
H595 H 0.20272 0.54699 0.78695 0.0
C596 C 0.2347 0.53894 0.88145 0.0
C597 C 0.24406 0.52422 0.96031 0.0
C598 C 0.1489 0.5014 0.9274 0.0
C599 C 0.19412 0.51602 0.88982 0.0
C600 C 0.12261 0.50182 0.90601 0.0
C601 C 0.1136 0.51441 0.82113 0.0
C602 C 0.16635 0.514 0.86429 0.0
C603 C 0.13176 0.52622 0.75869 0.0
C604 C 0.20991 0.53469 0.84513 0.0
C605 C 0.22846 0.50446 0.99784 0.0
N606 N 0.15718 0.52595 0.78201 0.0
N607 N 0.20408 0.50121 0.96346 0.0
H608 H 0.98882 0.8131 0.45031 0.0
H609 H 0.03637 0.923 0.81975 0.0
H610 H 0.05175 0.80424 0.65345 0.0
H611 H 0.98907 0.93746 0.56398 0.0
H612 H 0.03525 0.87735 0.78226 0.0
H613 H 0.98115 0.85609 0.51646 0.0
C614 C 1.00033 0.81984 0.5116 0.0
C615 C 1.02069 0.80504 0.54762 0.0
C616 C 0.02495 0.89048 0.73477 0.0
C617 C 1.01262 0.85436 0.62148 0.0
C618 C 0.02553 0.91662 0.75614 0.0
C619 C 1.01293 0.93428 0.69454 0.0
C620 C 1.0115 0.88172 0.65157 0.0
C621 C 0.99925 0.92467 0.61315 0.0
C622 C 0.99623 0.8445 0.54824 0.0
C623 C 0.03562 0.81496 0.62485 0.0
N624 N 0.99897 0.8991 0.59391 0.0
N625 N 0.03142 0.83904 0.6587 0.0
H626 H 0.74137 0.9888 0.61726 0.0
H627 H 0.59646 1.01752 0.48331 0.0
H628 H 0.71881 0.03871 0.37855 0.0
H629 H 0.61748 1.009 0.7896 0.0
H630 H 0.642 1.0184 0.43952 0.0
H631 H 0.69706 0.99106 0.68313 0.0
C632 C 0.72731 1.00059 0.57995 0.0
C633 C 0.73367 1.01322 0.49134 0.0
C634 C 0.63666 1.01633 0.51641 0.0
C635 C 0.68317 1.01516 0.56378 0.0
C636 C 0.61064 1.01561 0.54135 0.0
C637 C 0.60309 1.01324 0.64026 0.0
C638 C 0.65544 1.01416 0.59047 0.0
C639 C 0.62246 1.01102 0.71241 0.0
C640 C 0.70206 1.00171 0.61699 0.0
C641 C 0.71465 0.0282 0.44587 0.0
N642 N 0.64778 1.01135 0.68612 0.0
N643 N 0.6903 0.02835 0.48134 0.0
H644 H 0.56349 0.73055 0.4698 0.0
H645 H 0.5219 0.62268 0.86128 0.0
H646 H 0.50624 0.74183 0.69438 0.0
H647 H 0.55787 0.60619 0.58198 0.0
H648 H 0.52494 0.66836 0.82357 0.0
H649 H 0.57123 0.68737 0.53551 0.0
C650 C 0.55336 0.72428 0.53557 0.0
C651 C 0.53447 0.73978 0.57779 0.0
C652 C 0.53239 0.65475 0.77099 0.0
C653 C 0.54258 0.69034 0.65134 0.0
C654 C 0.53071 0.62861 0.79245 0.0
C655 C 0.53946 0.61045 0.72435 0.0
C656 C 0.54315 0.66293 0.68114 0.0
C657 C 0.55064 0.61944 0.63628 0.0
C658 C 0.55746 0.69954 0.57202 0.0
C659 C 0.52123 0.73054 0.66088 0.0
N660 N 0.55209 0.64503 0.6171 0.0
N661 N 0.52538 0.70634 0.69451 0.0
H662 H 0.82319 0.55889 0.48082 0.0
H663 H 0.93933 0.49425 0.77724 0.0
H664 H 0.81628 0.48942 0.65136 0.0
H665 H 0.95046 0.55474 0.56339 0.0
H666 H 0.89309 0.49695 0.75263 0.0
H667 H 0.86821 0.56291 0.53379 0.0
C668 C 0.8309 0.54504 0.53249 0.0
C669 C 0.81598 0.52398 0.56297 0.0
C670 C 0.90556 0.50975 0.71127 0.0
C671 C 0.86753 0.52793 0.62125 0.0
C672 C 0.93204 0.50833 0.72575 0.0
C673 C 0.94889 0.52444 0.67299 0.0
C674 C 0.8956 0.52739 0.64301 0.0
C675 C 0.93823 0.54187 0.60542 0.0
C676 C 0.85668 0.5471 0.56139 0.0
C677 C 0.82708 0.50611 0.62738 0.0
N678 N 0.91226 0.54288 0.5923 0.0
N679 N 0.85219 0.50838 0.65377 0.0
loop_
_geom_bond_atom_site_label_1
_geom_bond_atom_site_label_2
_geom_bond_distance
_geom_bond_site_symmetry_2
_ccdc_geom_bond_type
H0 C3 0.929 . S
H1 C6 0.929 . S
H2 C8 0.930 . S
C3 H0 0.929 . S
C3 C4 1.398 . S
C3 C5 1.396 . S
C4 C3 1.398 . S
C4 C8 1.407 . S
C5 C3 1.396 . S
C5 C6 1.394 . S
C6 H1 0.929 . S
C6 C5 1.394 . S
C6 C7 1.382 . S
C7 C6 1.382 . S
C7 C8 1.392 . S
C7 N9 1.420 . S
C8 H2 0.930 . S
C8 C4 1.407 . S
C8 C7 1.392 . S
N9 C7 1.420 . S
N9 C10 1.244 . S
C10 N9 1.244 . S
H11 C14 0.929 . S
H12 C17 0.929 . S
H13 C19 0.930 . S
C14 H11 0.929 . S
C14 C15 1.395 1_655 S
C14 C16 1.395 1_655 S
C15 C14 1.395 1_455 S
C15 C19 1.413 . S
C16 C14 1.395 1_455 S
C16 C17 1.397 . S
C17 H12 0.929 . S
C17 C16 1.397 . S
C17 C18 1.382 . S
C18 C17 1.382 . S
C18 C19 1.392 . S
C18 N20 1.420 . S
C19 H13 0.930 . S
C19 C15 1.413 . S
C19 C18 1.392 . S
N20 C18 1.420 . S
N20 C21 1.232 1_455 S
C21 N20 1.232 1_655 S
H22 C25 0.929 . S
H23 C28 0.929 . S
H24 C30 0.930 . S
C25 H22 0.929 . S
C25 C26 1.395 1_565 S
C25 C27 1.395 1_565 S
C26 C25 1.395 1_545 S
C26 C30 1.413 . S
C27 C25 1.395 1_545 S
C27 C28 1.397 . S
C28 H23 0.929 . S
C28 C27 1.397 . S
C28 C29 1.382 . S
C29 C28 1.382 . S
C29 C30 1.392 . S
C29 N31 1.420 . S
C30 H24 0.930 . S
C30 C26 1.413 . S
C30 C29 1.392 . S
N31 C29 1.420 . S
N31 C32 1.232 1_545 S
C32 N31 1.232 1_565 S
H33 C36 0.929 . S
H34 C39 0.929 . S
H35 C41 0.930 . S
C36 H33 0.929 . S
C36 C37 1.398 . S
C36 C38 1.396 . S
C37 C36 1.398 . S
C37 C41 1.407 . S
C38 C36 1.396 . S
C38 C39 1.394 . S
C39 H34 0.929 . S
C39 C38 1.394 . S
C39 C40 1.382 . S
C40 C39 1.382 . S
C40 C41 1.392 . S
C40 N42 1.420 . S
C41 H35 0.930 . S
C41 C37 1.407 . S
C41 C40 1.392 . S
N42 C40 1.420 . S
N42 C43 1.244 . S
C43 N42 1.244 . S
H44 C47 0.929 . S
H45 C50 0.929 . S
H46 C52 0.930 . S
C47 H44 0.929 . S
C47 C48 1.398 1_554 S
C47 C49 1.396 . S
C48 C47 1.398 1_556 S
C48 C52 1.407 . S
C49 C47 1.396 . S
C49 C50 1.394 . S
C50 H45 0.929 . S
C50 C49 1.394 . S
C50 C51 1.382 . S
C51 C50 1.382 . S
C51 C52 1.392 1_554 S
C51 N53 1.420 . S
C52 H46 0.930 . S
C52 C48 1.407 . S
C52 C51 1.392 1_556 S
N53 C51 1.420 . S
N53 C54 1.244 . S
C54 N53 1.244 . S
H55 C58 0.929 . S
H56 C61 0.929 . S
H57 C63 0.930 . S
C58 H55 0.929 . S
C58 C59 1.395 1_654 S
C58 C60 1.394 1_655 S
C59 C58 1.395 1_456 S
C59 C63 1.416 . S
C60 C58 1.394 1_455 S
C60 C61 1.398 . S
C61 H56 0.929 . S
C61 C60 1.398 . S
C61 C62 1.382 . S
C62 C61 1.382 . S
C62 C63 1.392 1_554 S
C62 N64 1.420 . S
C63 H57 0.930 . S
C63 C59 1.416 . S
C63 C62 1.392 1_556 S
N64 C62 1.420 . S
N64 C65 1.237 1_455 S
C65 N64 1.237 1_655 S
H66 C69 0.929 . S
H67 C72 0.929 . S
H68 C74 0.930 . S
C69 H66 0.929 . S
C69 C70 1.395 1_564 S
C69 C71 1.394 1_565 S
C70 C69 1.395 1_546 S
C70 C74 1.416 . S
C71 C69 1.394 1_545 S
C71 C72 1.398 . S
C72 H67 0.929 . S
C72 C71 1.398 . S
C72 C73 1.382 . S
C73 C72 1.382 . S
C73 C74 1.392 1_554 S
C73 N75 1.420 . S
C74 H68 0.930 . S
C74 C70 1.416 . S
C74 C73 1.392 1_556 S
N75 C73 1.420 . S
N75 C76 1.237 1_545 S
C76 N75 1.237 1_565 S
H77 C80 0.929 . S
H78 C83 0.929 . S
H79 C85 0.930 . S
C80 H77 0.929 . S
C80 C81 1.398 1_554 S
C80 C82 1.396 . S
C81 C80 1.398 1_556 S
C81 C85 1.407 . S
C82 C80 1.396 . S
C82 C83 1.394 . S
C83 H78 0.929 . S
C83 C82 1.394 . S
C83 C84 1.382 . S
C84 C83 1.382 . S
C84 C85 1.392 1_554 S
C84 N86 1.420 . S
C85 H79 0.930 . S
C85 C81 1.407 . S
C85 C84 1.392 1_556 S
N86 C84 1.420 . S
N86 C87 1.244 . S
C87 N86 1.244 . S
Pr88 C90 2.880 . S
Pr88 O108 2.562 . S
Pr88 O109 2.490 . S
Pr88 O110 2.695 1_565 S
Pr88 O111 2.512 . S
Pr88 O113 2.437 . S
Pr88 O116 2.436 1_455 S
Pr88 O118 2.438 1_565 S
Pr89 C99 2.880 . S
Pr89 O110 2.436 1_655 S
Pr89 O112 2.438 1_545 S
Pr89 O114 2.562 . S
Pr89 O115 2.490 . S
Pr89 O116 2.695 1_545 S
Pr89 O117 2.512 . S
Pr89 O119 2.437 . S
C90 Pr88 2.880 . S
C90 C91 1.491 1_556 S
C90 O108 1.254 . S
C90 O109 1.225 . S
C91 C90 1.491 1_554 S
C91 C92 1.392 . S
C91 C96 1.356 . S
C92 C91 1.392 . S
C92 C93 1.368 . S
C92 H120 0.930 . S
C93 C92 1.368 . S
C93 C94 1.386 . S
C93 H121 0.929 . S
C94 C93 1.386 . S
C94 C95 1.373 . S
C95 C94 1.373 . S
C95 C96 1.409 . S
C95 H122 0.931 1_455 S
C96 C91 1.356 . S
C96 C95 1.409 . S
C96 H123 0.930 1_455 S
C97 O110 1.270 1_565 S
C97 O111 1.248 . S
C98 O112 1.267 . S
C98 O113 1.278 1_655 S
C99 Pr89 2.880 . S
C99 C100 1.491 . S
C99 O114 1.254 . S
C99 O115 1.225 . S
C100 C99 1.491 . S
C100 C101 1.392 . S
C100 C105 1.356 . S
C101 C100 1.392 . S
C101 C102 1.368 . S
C101 H124 0.929 . S
C102 C101 1.368 . S
C102 C103 1.386 . S
C102 H125 0.929 . S
C103 C102 1.386 . S
C103 C104 1.373 . S
C104 C103 1.373 . S
C104 C105 1.409 . S
C104 H126 0.931 1_655 S
C105 C100 1.356 . S
C105 C104 1.409 . S
C105 H127 0.930 1_655 S
C106 O116 1.270 1_545 S
C106 O117 1.248 . S
C107 O118 1.267 . S
C107 O119 1.278 1_455 S
O108 Pr88 2.562 . S
O108 C90 1.254 . S
O109 Pr88 2.490 . S
O109 C90 1.225 . S
O110 Pr88 2.695 1_545 S
O110 Pr89 2.436 1_455 S
O110 C97 1.270 1_545 S
O111 Pr88 2.512 . S
O111 C97 1.248 . S
O112 Pr89 2.438 1_565 S
O112 C98 1.267 . S
O113 Pr88 2.437 . S
O113 C98 1.278 1_455 S
O114 Pr89 2.562 . S
O114 C99 1.254 . S
O115 Pr89 2.490 . S
O115 C99 1.225 . S
O116 Pr88 2.436 1_655 S
O116 Pr89 2.695 1_565 S
O116 C106 1.270 1_565 S
O117 Pr89 2.512 . S
O117 C106 1.248 . S
O118 Pr88 2.438 1_545 S
O118 C107 1.267 . S
O119 Pr89 2.437 . S
O119 C107 1.278 1_655 S
H120 C92 0.930 . S
H121 C93 0.929 . S
H122 C95 0.931 1_655 S
H123 C96 0.930 1_655 S
H124 C101 0.929 . S
H125 C102 0.929 . S
H126 C104 0.931 1_455 S
H127 C105 0.930 1_455 S
Pr128 C130 2.880 . S
Pr128 O148 2.562 . S
Pr128 O149 2.490 . S
Pr128 O150 2.695 . S
Pr128 O151 2.512 . S
Pr128 O153 2.437 . S
Pr128 O156 2.436 1_545 S
Pr128 O158 2.438 . S
Pr129 C139 2.880 . S
Pr129 O150 2.436 1_565 S
Pr129 O152 2.438 . S
Pr129 O154 2.562 . S
Pr129 O155 2.490 . S
Pr129 O156 2.695 . S
Pr129 O157 2.512 . S
Pr129 O159 2.437 . S
C130 Pr128 2.880 . S
C130 C131 1.491 1_556 S
C130 O148 1.254 . S
C130 O149 1.225 . S
C131 C130 1.491 1_554 S
C131 C132 1.392 . S
C131 C136 1.356 . S
C132 C131 1.392 . S
C132 C133 1.368 . S
C132 H160 0.930 . S
C133 C132 1.368 . S
C133 C134 1.386 . S
C133 H161 0.929 . S
C134 C133 1.386 . S
C134 C135 1.373 . S
C135 C134 1.373 . S
C135 C136 1.409 . S
C135 H162 0.931 1_545 S
C136 C131 1.356 . S
C136 C135 1.409 . S
C136 H163 0.930 1_545 S
C137 O150 1.270 . S
C137 O151 1.248 . S
C138 O152 1.267 . S
C138 O153 1.278 1_565 S
C139 Pr129 2.880 . S
C139 C140 1.491 . S
C139 O154 1.254 . S
C139 O155 1.225 . S
C140 C139 1.491 . S
C140 C141 1.392 . S
C140 C145 1.356 . S
C141 C140 1.392 . S
C141 C142 1.368 . S
C141 H164 0.929 . S
C142 C141 1.368 . S
C142 C143 1.386 . S
C142 H165 0.929 . S
C143 C142 1.386 . S
C143 C144 1.373 . S
C144 C143 1.373 . S
C144 C145 1.409 . S
C144 H166 0.931 1_565 S
C145 C140 1.356 . S
C145 C144 1.409 . S
C145 H167 0.930 1_565 S
C146 O156 1.270 . S
C146 O157 1.248 . S
C147 O158 1.267 . S
C147 O159 1.278 1_545 S
O148 Pr128 2.562 . S
O148 C130 1.254 . S
O149 Pr128 2.490 . S
O149 C130 1.225 . S
O150 Pr128 2.695 . S
O150 Pr129 2.436 1_545 S
O150 C137 1.270 . S
O151 Pr128 2.512 . S
O151 C137 1.248 . S
O152 Pr129 2.438 . S
O152 C138 1.267 . S
O153 Pr128 2.437 . S
O153 C138 1.278 1_545 S
O154 Pr129 2.562 . S
O154 C139 1.254 . S
O155 Pr129 2.490 . S
O155 C139 1.225 . S
O156 Pr128 2.436 1_565 S
O156 Pr129 2.695 . S
O156 C146 1.270 . S
O157 Pr129 2.512 . S
O157 C146 1.248 . S
O158 Pr128 2.438 . S
O158 C147 1.267 . S
O159 Pr129 2.437 . S
O159 C147 1.278 1_565 S
H160 C132 0.930 . S
H161 C133 0.929 . S
H162 C135 0.931 1_565 S
H163 C136 0.930 1_565 S
H164 C141 0.929 . S
H165 C142 0.929 . S
H166 C144 0.931 1_545 S
H167 C145 0.930 1_545 S
Pr168 C170 2.880 . S
Pr168 O188 2.562 . S
Pr168 O189 2.490 . S
Pr168 O190 2.695 . S
Pr168 O191 2.512 . S
Pr168 O193 2.437 . S
Pr168 O196 2.436 . S
Pr168 O198 2.438 . S
Pr169 C179 2.880 . S
Pr169 O190 2.436 . S
Pr169 O192 2.438 . S
Pr169 O194 2.562 . S
Pr169 O195 2.490 . S
Pr169 O196 2.695 . S
Pr169 O197 2.512 . S
Pr169 O199 2.437 . S
C170 Pr168 2.880 . S
C170 C171 1.491 1_556 S
C170 O188 1.254 . S
C170 O189 1.225 . S
C171 C170 1.491 1_554 S
C171 C172 1.392 . S
C171 C176 1.356 . S
C172 C171 1.392 . S
C172 C173 1.368 . S
C172 H200 0.929 . S
C173 C172 1.368 . S
C173 C174 1.386 . S
C173 H201 0.929 . S
C174 C173 1.386 . S
C174 C175 1.373 . S
C175 C174 1.373 . S
C175 C176 1.409 . S
C175 H202 0.931 . S
C176 C171 1.356 . S
C176 C175 1.409 . S
C176 H203 0.930 . S
C177 O190 1.270 . S
C177 O191 1.248 . S
C178 O192 1.267 . S
C178 O193 1.278 . S
C179 Pr169 2.880 . S
C179 C180 1.491 . S
C179 O194 1.254 . S
C179 O195 1.225 . S
C180 C179 1.491 . S
C180 C181 1.392 . S
C180 C185 1.356 . S
C181 C180 1.392 . S
C181 C182 1.368 . S
C181 H204 0.929 . S
C182 C181 1.368 . S
C182 C183 1.386 . S
C182 H205 0.929 . S
C183 C182 1.386 . S
C183 C184 1.373 . S
C184 C183 1.373 . S
C184 C185 1.409 . S
C184 H206 0.931 . S
C185 C180 1.356 . S
C185 C184 1.409 . S
C185 H207 0.930 . S
C186 O196 1.270 . S
C186 O197 1.248 . S
C187 O198 1.267 . S
C187 O199 1.278 . S
O188 Pr168 2.562 . S
O188 C170 1.254 . S
O189 Pr168 2.490 . S
O189 C170 1.225 . S
O190 Pr168 2.695 . S
O190 Pr169 2.436 . S
O190 C177 1.270 . S
O191 Pr168 2.512 . S
O191 C177 1.248 . S
O192 Pr169 2.438 . S
O192 C178 1.267 . S
O193 Pr168 2.437 . S
O193 C178 1.278 . S
O194 Pr169 2.562 . S
O194 C179 1.254 . S
O195 Pr169 2.490 . S
O195 C179 1.225 . S
O196 Pr168 2.436 . S
O196 Pr169 2.695 . S
O196 C186 1.270 . S
O197 Pr169 2.512 . S
O197 C186 1.248 . S
O198 Pr168 2.438 . S
O198 C187 1.267 . S
O199 Pr169 2.437 . S
O199 C187 1.278 . S
H200 C172 0.929 . S
H201 C173 0.929 . S
H202 C175 0.931 . S
H203 C176 0.930 . S
H204 C181 0.929 . S
H205 C182 0.929 . S
H206 C184 0.931 . S
H207 C185 0.930 . S
Pr208 C210 2.880 . S
Pr208 O228 2.562 . S
Pr208 O229 2.490 . S
Pr208 O230 2.695 1_655 S
Pr208 O231 2.512 . S
Pr208 O233 2.437 . S
Pr208 O236 2.436 . S
Pr208 O238 2.438 1_655 S
Pr209 C219 2.880 . S
Pr209 O230 2.436 . S
Pr209 O232 2.438 1_455 S
Pr209 O234 2.562 . S
Pr209 O235 2.490 . S
Pr209 O236 2.695 1_455 S
Pr209 O237 2.512 . S
Pr209 O239 2.437 . S
C210 Pr208 2.880 . S
C210 C211 1.491 1_556 S
C210 O228 1.254 . S
C210 O229 1.225 . S
C211 C210 1.491 1_554 S
C211 C212 1.392 . S
C211 C216 1.356 . S
C212 C211 1.392 . S
C212 C213 1.368 . S
C212 H240 0.929 . S
C213 C212 1.368 . S
C213 C214 1.386 . S
C213 H241 0.929 . S
C214 C213 1.386 . S
C214 C215 1.373 . S
C215 C214 1.373 . S
C215 C216 1.409 . S
C215 H242 0.931 . S
C216 C211 1.356 . S
C216 C215 1.409 . S
C216 H243 0.930 . S
C217 O230 1.259 1_655 S
C217 O231 1.267 . S
C218 O232 1.267 . S
C218 O233 1.278 . S
C219 Pr209 2.880 . S
C219 C220 1.491 . S
C219 O234 1.254 . S
C219 O235 1.225 . S
C220 C219 1.491 . S
C220 C221 1.392 . S
C220 C225 1.356 . S
C221 C220 1.392 . S
C221 C222 1.368 . S
C221 H244 0.929 . S
C222 C221 1.368 . S
C222 C223 1.386 . S
C222 H245 0.929 . S
C223 C222 1.386 . S
C223 C224 1.373 . S
C224 C223 1.373 . S
C224 C225 1.409 . S
C224 H246 0.931 . S
C225 C220 1.356 . S
C225 C224 1.409 . S
C225 H247 0.930 . S
C226 O236 1.270 1_455 S
C226 O237 1.248 . S
C227 O238 1.267 . S
C227 O239 1.278 . S
O228 Pr208 2.562 . S
O228 C210 1.254 . S
O229 Pr208 2.490 . S
O229 C210 1.225 . S
O230 Pr208 2.695 1_455 S
O230 Pr209 2.436 . S
O230 C217 1.259 1_455 S
O231 Pr208 2.512 . S
O231 C217 1.267 . S
O232 Pr209 2.438 1_655 S
O232 C218 1.267 . S
O233 Pr208 2.437 . S
O233 C218 1.278 . S
O234 Pr209 2.562 . S
O234 C219 1.254 . S
O235 Pr209 2.490 . S
O235 C219 1.225 . S
O236 Pr208 2.436 . S
O236 Pr209 2.695 1_655 S
O236 C226 1.270 1_655 S
O237 Pr209 2.512 . S
O237 C226 1.248 . S
O238 Pr208 2.438 1_455 S
O238 C227 1.267 . S
O239 Pr209 2.437 . S
O239 C227 1.278 . S
H240 C212 0.929 . S
H241 C213 0.929 . S
H242 C215 0.931 . S
H243 C216 0.930 . S
H244 C221 0.929 . S
H245 C222 0.929 . S
H246 C224 0.931 . S
H247 C225 0.930 . S
H248 C254 0.930 . S
H249 C258 0.930 . S
H250 C263 0.929 . S
H251 C261 0.929 . S
H252 C256 0.929 . S
H253 C262 0.929 . S
C254 H248 0.930 . S
C254 C255 1.367 . S
C254 C262 1.378 . S
C255 C254 1.367 . S
C255 C263 1.433 1_565 S
C256 H252 0.929 . S
C256 C258 1.378 . S
C256 C260 1.350 . S
C257 C260 1.462 . S
C257 C262 1.352 1_545 S
C257 N265 1.426 . S
C258 H249 0.930 . S
C258 C256 1.378 . S
C258 C259 1.367 . S
C259 C258 1.367 . S
C259 C261 1.433 1_545 S
C260 C256 1.350 . S
C260 C257 1.462 . S
C260 N264 1.427 1_545 S
C261 H251 0.929 . S
C261 C259 1.433 1_565 S
C261 N264 1.384 . S
C262 H253 0.929 . S
C262 C254 1.378 . S
C262 C257 1.352 1_565 S
C263 H250 0.929 . S
C263 C255 1.433 1_545 S
C263 N265 1.384 . S
N264 C260 1.427 1_565 S
N264 C261 1.384 . S
N265 C257 1.426 . S
N265 C263 1.384 . S
H266 C272 0.930 . S
H267 C276 0.930 . S
H268 C281 0.929 . S
H269 C279 0.929 . S
H270 C274 0.929 . S
H271 C280 0.929 . S
C272 H266 0.930 . S
C272 C273 1.367 . S
C272 C280 1.378 . S
C273 C272 1.367 . S
C273 C281 1.433 . S
C274 H270 0.929 . S
C274 C276 1.378 . S
C274 C278 1.350 . S
C275 C278 1.463 . S
C275 C280 1.350 . S
C275 N283 1.427 . S
C276 H267 0.930 . S
C276 C274 1.378 . S
C276 C277 1.367 . S
C277 C276 1.367 . S
C277 C279 1.433 . S
C278 C274 1.350 . S
C278 C275 1.463 . S
C278 N282 1.427 . S
C279 H269 0.929 . S
C279 C277 1.433 . S
C279 N282 1.384 . S
C280 H271 0.929 . S
C280 C272 1.378 . S
C280 C275 1.350 . S
C281 H268 0.929 . S
C281 C273 1.433 . S
C281 N283 1.384 . S
N282 C278 1.427 . S
N282 C279 1.384 . S
N283 C275 1.427 . S
N283 C281 1.384 . S
H284 C290 0.930 . S
H285 C294 0.930 . S
H286 C299 0.929 . S
H287 C297 0.929 . S
H288 C292 0.929 . S
H289 C298 0.929 . S
C290 H284 0.930 . S
C290 C291 1.367 . S
C290 C298 1.378 . S
C291 C290 1.367 . S
C291 C299 1.433 . S
C292 H288 0.929 . S
C292 C294 1.378 . S
C292 C296 1.350 . S
C293 C296 1.463 . S
C293 C298 1.350 . S
C293 N301 1.427 . S
C294 H285 0.930 . S
C294 C292 1.378 . S
C294 C295 1.367 . S
C295 C294 1.367 . S
C295 C297 1.433 . S
C296 C292 1.350 . S
C296 C293 1.463 . S
C296 N300 1.427 . S
C297 H287 0.929 . S
C297 C295 1.433 . S
C297 N300 1.384 . S
C298 H289 0.929 . S
C298 C290 1.378 . S
C298 C293 1.350 . S
C299 H286 0.929 . S
C299 C291 1.433 . S
C299 N301 1.384 . S
N300 C296 1.427 . S
N300 C297 1.384 . S
N301 C293 1.427 . S
N301 C299 1.384 . S
H302 C308 0.930 . S
H303 C312 0.930 . S
H304 C317 0.929 . S
H305 C315 0.929 . S
H306 C310 0.929 . S
H307 C316 0.929 . S
C308 H302 0.930 . S
C308 C309 1.368 1_655 S
C308 C316 1.378 . S
C309 C308 1.368 1_455 S
C309 C317 1.432 . S
C310 H306 0.929 . S
C310 C312 1.378 . S
C310 C314 1.350 . S
C311 C314 1.463 . S
C311 C316 1.343 1_455 S
C311 N319 1.435 . S
C312 H303 0.930 . S
C312 C310 1.378 . S
C312 C313 1.367 . S
C313 C312 1.367 . S
C313 C315 1.433 1_455 S
C314 C310 1.350 . S
C314 C311 1.463 . S
C314 N318 1.427 1_455 S
C315 H305 0.929 . S
C315 C313 1.433 1_655 S
C315 N318 1.384 . S
C316 H307 0.929 . S
C316 C308 1.378 . S
C316 C311 1.343 1_655 S
C317 H304 0.929 . S
C317 C309 1.432 . S
C317 N319 1.384 . S
N318 C314 1.427 1_655 S
N318 C315 1.384 . S
N319 C311 1.435 . S
N319 C317 1.384 . S
H320 C326 0.930 . S
H321 C330 0.930 . S
H322 C335 0.929 . S
H323 C333 0.929 . S
H324 C328 0.929 . S
H325 C334 0.929 . S
C326 H320 0.930 . S
C326 C327 1.376 . S
C326 C334 1.378 . S
C327 C326 1.376 . S
C327 C335 1.424 1_545 S
C328 H324 0.929 . S
C328 C330 1.378 . S
C328 C332 1.350 . S
C329 C332 1.462 1_545 S
C329 C334 1.355 . S
C329 N337 1.423 1_545 S
C330 H321 0.930 . S
C330 C328 1.378 . S
C330 C331 1.367 1_554 S
C331 C330 1.367 1_556 S
C331 C333 1.433 1_565 S
C332 C328 1.350 . S
C332 C329 1.462 1_565 S
C332 N336 1.427 1_565 S
C333 H323 0.929 . S
C333 C331 1.433 1_545 S
C333 N336 1.384 1_556 S
C334 H325 0.929 . S
C334 C326 1.378 . S
C334 C329 1.355 . S
C335 H322 0.929 . S
C335 C327 1.424 1_565 S
C335 N337 1.384 . S
N336 C332 1.427 1_545 S
N336 C333 1.384 1_554 S
N337 C329 1.423 1_565 S
N337 C335 1.384 . S
H338 C344 0.930 . S
H339 C348 0.930 . S
H340 C353 0.929 . S
H341 C351 0.929 . S
H342 C346 0.929 . S
H343 C352 0.929 . S
C344 H338 0.930 . S
C344 C345 1.367 . S
C344 C352 1.378 . S
C345 C344 1.367 . S
C345 C353 1.433 . S
C346 H342 0.929 . S
C346 C348 1.378 . S
C346 C350 1.350 1_556 S
C347 C350 1.463 . S
C347 C352 1.350 . S
C347 N355 1.427 . S
C348 H339 0.930 . S
C348 C346 1.378 . S
C348 C349 1.367 . S
C349 C348 1.367 . S
C349 C351 1.433 1_556 S
C350 C346 1.350 1_554 S
C350 C347 1.463 . S
C350 N354 1.427 . S
C351 H341 0.929 . S
C351 C349 1.433 1_554 S
C351 N354 1.384 . S
C352 H343 0.929 . S
C352 C344 1.378 . S
C352 C347 1.350 . S
C353 H340 0.929 . S
C353 C345 1.433 . S
C353 N355 1.384 . S
N354 C350 1.427 . S
N354 C351 1.384 . S
N355 C347 1.427 . S
N355 C353 1.384 . S
H356 C362 0.930 . S
H357 C366 0.930 . S
H358 C371 0.929 . S
H359 C369 0.929 . S
H360 C364 0.929 . S
H361 C370 0.929 . S
C362 H356 0.930 . S
C362 C363 1.367 . S
C362 C370 1.378 . S
C363 C362 1.367 . S
C363 C371 1.433 . S
C364 H360 0.929 . S
C364 C366 1.378 . S
C364 C368 1.350 . S
C365 C368 1.463 . S
C365 C370 1.350 . S
C365 N373 1.427 . S
C366 H357 0.930 . S
C366 C364 1.378 . S
C366 C367 1.367 1_554 S
C367 C366 1.367 1_556 S
C367 C369 1.433 . S
C368 C364 1.350 . S
C368 C365 1.463 . S
C368 N372 1.427 . S
C369 H359 0.929 . S
C369 C367 1.433 . S
C369 N372 1.384 1_556 S
C370 H361 0.929 . S
C370 C362 1.378 . S
C370 C365 1.350 . S
C371 H358 0.929 . S
C371 C363 1.433 . S
C371 N373 1.384 . S
N372 C368 1.427 . S
N372 C369 1.384 1_554 S
N373 C365 1.427 . S
N373 C371 1.384 . S
H374 C380 0.930 . S
H375 C384 0.930 . S
H376 C389 0.929 . S
H377 C387 0.929 . S
H378 C382 0.929 . S
H379 C388 0.929 . S
C380 H374 0.930 . S
C380 C381 1.376 . S
C380 C388 1.378 . S
C381 C380 1.376 . S
C381 C389 1.425 1_655 S
C382 H378 0.929 . S
C382 C384 1.378 . S
C382 C386 1.338 1_456 S
C383 C386 1.463 . S
C383 C388 1.350 . S
C383 N391 1.427 1_655 S
C384 H375 0.930 . S
C384 C382 1.378 . S
C384 C385 1.367 1_455 S
C385 C384 1.367 1_655 S
C385 C387 1.433 1_556 S
C386 C382 1.338 1_654 S
C386 C383 1.463 . S
C386 N390 1.440 . S
C387 H377 0.929 . S
C387 C385 1.433 1_554 S
C387 N390 1.384 . S
C388 H379 0.929 . S
C388 C380 1.378 . S
C388 C383 1.350 . S
C389 H376 0.929 . S
C389 C381 1.425 1_455 S
C389 N391 1.384 . S
N390 C386 1.440 . S
N390 C387 1.384 . S
N391 C383 1.427 1_455 S
N391 C389 1.384 . S
H392 C398 0.930 . S
H393 C402 0.930 . S
H394 C407 0.929 . S
H395 C405 0.929 . S
H396 C400 0.929 . S
H397 C406 0.928 . S
C398 H392 0.930 . S
C398 C399 1.367 . S
C398 C406 1.378 1_455 S
C399 C398 1.367 . S
C399 C407 1.433 1_455 S
C400 H396 0.929 . S
C400 C402 1.378 . S
C400 C404 1.350 . S
C401 C404 1.463 . S
C401 C406 1.350 . S
C401 N409 1.427 . S
C402 H393 0.930 . S
C402 C400 1.378 . S
C402 C403 1.367 . S
C403 C402 1.367 . S
C403 C405 1.433 . S
C404 C400 1.350 . S
C404 C401 1.463 . S
C404 N408 1.427 . S
C405 H395 0.929 . S
C405 C403 1.433 . S
C405 N408 1.384 . S
C406 H397 0.928 . S
C406 C398 1.378 1_655 S
C406 C401 1.350 . S
C407 H394 0.929 . S
C407 C399 1.433 1_655 S
C407 N409 1.384 . S
N408 C404 1.427 . S
N408 C405 1.384 . S
N409 C401 1.427 . S
N409 C407 1.384 . S
H410 C416 0.930 . S
H411 C420 0.938 . S
H412 C425 0.929 . S
H413 C423 0.929 . S
H414 C418 0.929 1_545 S
H415 C424 0.929 . S
C416 H410 0.930 . S
C416 C417 1.367 1_565 S
C416 C424 1.378 . S
C417 C416 1.367 1_545 S
C417 C425 1.433 . S
C418 H414 0.929 1_565 S
C418 C420 1.378 . S
C418 C422 1.350 . S
C419 C422 1.463 . S
C419 C424 1.350 . S
C419 N427 1.427 1_565 S
C420 H411 0.938 . S
C420 C418 1.378 . S
C420 C421 1.367 . S
C421 C420 1.367 . S
C421 C423 1.433 . S
C422 C418 1.350 . S
C422 C419 1.463 . S
C422 N426 1.427 . S
C423 H413 0.929 . S
C423 C421 1.433 . S
C423 N426 1.384 . S
C424 H415 0.929 . S
C424 C416 1.378 . S
C424 C419 1.350 . S
C425 H412 0.929 . S
C425 C417 1.433 . S
C425 N427 1.384 . S
N426 C422 1.427 . S
N426 C423 1.384 . S
N427 C419 1.427 1_545 S
N427 C425 1.384 . S
H428 C434 0.930 . S
H429 C438 0.930 . S
H430 C443 0.929 . S
H431 C441 0.929 . S
H432 C436 0.929 . S
H433 C442 0.929 . S
C434 H428 0.930 . S
C434 C435 1.367 . S
C434 C442 1.378 . S
C435 C434 1.367 . S
C435 C443 1.433 . S
C436 H432 0.929 . S
C436 C438 1.378 . S
C436 C440 1.350 . S
C437 C440 1.463 . S
C437 C442 1.350 . S
C437 N445 1.427 . S
C438 H429 0.930 . S
C438 C436 1.378 . S
C438 C439 1.367 . S
C439 C438 1.367 . S
C439 C441 1.433 . S
C440 C436 1.350 . S
C440 C437 1.463 . S
C440 N444 1.427 . S
C441 H431 0.929 . S
C441 C439 1.433 . S
C441 N444 1.384 . S
C442 H433 0.929 . S
C442 C434 1.378 . S
C442 C437 1.350 . S
C443 H430 0.929 . S
C443 C435 1.433 . S
C443 N445 1.384 . S
N444 C440 1.427 . S
N444 C441 1.384 . S
N445 C437 1.427 . S
N445 C443 1.384 . S
H446 C452 0.930 . S
H447 C456 0.930 . S
H448 C461 0.929 . S
H449 C459 0.929 . S
H450 C454 0.929 . S
H451 C460 0.929 . S
C452 H446 0.930 . S
C452 C453 1.367 . S
C452 C460 1.378 . S
C453 C452 1.367 . S
C453 C461 1.433 . S
C454 H450 0.929 . S
C454 C456 1.378 . S
C454 C458 1.350 . S
C455 C458 1.463 . S
C455 C460 1.350 . S
C455 N463 1.427 . S
C456 H447 0.930 . S
C456 C454 1.378 . S
C456 C457 1.367 . S
C457 C456 1.367 . S
C457 C459 1.433 . S
C458 C454 1.350 . S
C458 C455 1.463 . S
C458 N462 1.427 . S
C459 H449 0.929 . S
C459 C457 1.433 . S
C459 N462 1.384 . S
C460 H451 0.929 . S
C460 C452 1.378 . S
C460 C455 1.350 . S
C461 H448 0.929 . S
C461 C453 1.433 . S
C461 N463 1.384 . S
N462 C458 1.427 . S
N462 C459 1.384 . S
N463 C455 1.427 . S
N463 C461 1.384 . S
H464 C470 0.930 . S
H465 C474 0.930 . S
H466 C479 0.929 . S
H467 C477 0.929 . S
H468 C472 0.929 1_655 S
H469 C478 0.929 . S
C470 H464 0.930 . S
C470 C471 1.367 1_455 S
C470 C478 1.378 . S
C471 C470 1.367 1_655 S
C471 C479 1.433 . S
C472 H468 0.929 1_455 S
C472 C474 1.378 . S
C472 C476 1.350 . S
C473 C476 1.463 . S
C473 C478 1.350 . S
C473 N481 1.427 1_455 S
C474 H465 0.930 . S
C474 C472 1.378 . S
C474 C475 1.367 . S
C475 C474 1.367 . S
C475 C477 1.433 . S
C476 C472 1.350 . S
C476 C473 1.463 . S
C476 N480 1.427 . S
C477 H467 0.929 . S
C477 C475 1.433 . S
C477 N480 1.384 . S
C478 H469 0.929 . S
C478 C470 1.378 . S
C478 C473 1.350 . S
C479 H466 0.929 . S
C479 C471 1.433 . S
C479 N481 1.384 . S
N480 C476 1.427 . S
N480 C477 1.384 . S
N481 C473 1.427 1_655 S
N481 C479 1.384 . S
H482 C488 0.930 . S
H483 C492 0.930 . S
H484 C497 0.929 . S
H485 C495 0.929 . S
H486 C490 0.929 . S
H487 C496 0.929 . S
C488 H482 0.930 . S
C488 C489 1.367 1_545 S
C488 C496 1.378 . S
C489 C488 1.367 1_565 S
C489 C497 1.433 . S
C490 H486 0.929 . S
C490 C492 1.378 . S
C490 C494 1.350 . S
C491 C494 1.463 . S
C491 C496 1.350 . S
C491 N499 1.427 . S
C492 H483 0.930 . S
C492 C490 1.378 . S
C492 C493 1.367 . S
C493 C492 1.367 . S
C493 C495 1.433 . S
C494 C490 1.350 . S
C494 C491 1.463 . S
C494 N498 1.427 . S
C495 H485 0.929 . S
C495 C493 1.433 . S
C495 N498 1.384 . S
C496 H487 0.929 . S
C496 C488 1.378 . S
C496 C491 1.350 . S
C497 H484 0.929 . S
C497 C489 1.433 . S
C497 N499 1.384 1_565 S
N498 C494 1.427 . S
N498 C495 1.384 . S
N499 C491 1.427 . S
N499 C497 1.384 1_545 S
H500 C506 0.930 . S
H501 C510 0.924 1_556 S
H502 C515 0.929 . S
H503 C513 0.929 . S
H504 C508 0.929 . S
H505 C514 0.929 . S
C506 H500 0.930 . S
C506 C507 1.367 . S
C506 C514 1.378 . S
C507 C506 1.367 . S
C507 C515 1.433 . S
C508 H504 0.929 . S
C508 C510 1.378 . S
C508 C512 1.350 . S
C509 C512 1.463 . S
C509 C514 1.350 . S
C509 N517 1.427 . S
C510 H501 0.924 1_554 S
C510 C508 1.378 . S
C510 C511 1.367 . S
C511 C510 1.367 . S
C511 C513 1.433 . S
C512 C508 1.350 . S
C512 C509 1.463 . S
C512 N516 1.427 . S
C513 H503 0.929 . S
C513 C511 1.433 . S
C513 N516 1.384 . S
C514 H505 0.929 . S
C514 C506 1.378 . S
C514 C509 1.350 . S
C515 H502 0.929 . S
C515 C507 1.433 . S
C515 N517 1.384 . S
N516 C512 1.427 . S
N516 C513 1.384 . S
N517 C509 1.427 . S
N517 C515 1.384 . S
H518 C524 0.930 . S
H519 C528 0.930 . S
H520 C533 0.929 . S
H521 C531 0.929 . S
H522 C526 0.929 . S
H523 C532 0.929 . S
C524 H518 0.930 . S
C524 C525 1.367 . S
C524 C532 1.378 . S
C525 C524 1.367 . S
C525 C533 1.433 . S
C526 H522 0.929 . S
C526 C528 1.378 . S
C526 C530 1.350 . S
C527 C530 1.463 . S
C527 C532 1.350 . S
C527 N535 1.427 . S
C528 H519 0.930 . S
C528 C526 1.378 . S
C528 C529 1.367 . S
C529 C528 1.367 . S
C529 C531 1.433 . S
C530 C526 1.350 . S
C530 C527 1.463 . S
C530 N534 1.427 . S
C531 H521 0.929 . S
C531 C529 1.433 . S
C531 N534 1.384 . S
C532 H523 0.929 . S
C532 C524 1.378 . S
C532 C527 1.350 . S
C533 H520 0.929 . S
C533 C525 1.433 . S
C533 N535 1.384 . S
N534 C530 1.427 . S
N534 C531 1.384 . S
N535 C527 1.427 . S
N535 C533 1.384 . S
H536 C542 0.930 1_554 S
H537 C546 0.930 . S
H538 C551 0.929 . S
H539 C549 0.934 . S
H540 C544 0.929 . S
H541 C550 0.929 . S
C542 H536 0.930 1_556 S
C542 C543 1.367 1_655 S
C542 C550 1.378 . S
C543 C542 1.367 1_455 S
C543 C551 1.433 . S
C544 H540 0.929 . S
C544 C546 1.378 . S
C544 C548 1.350 . S
C545 C548 1.463 . S
C545 C550 1.350 1_455 S
C545 N553 1.427 . S
C546 H537 0.930 . S
C546 C544 1.378 . S
C546 C547 1.367 . S
C547 C546 1.367 . S
C547 C549 1.428 1_455 S
C548 C544 1.350 . S
C548 C545 1.463 . S
C548 N552 1.427 1_455 S
C549 H539 0.934 . S
C549 C547 1.428 1_655 S
C549 N552 1.384 . S
C550 H541 0.929 . S
C550 C542 1.378 . S
C550 C545 1.350 1_655 S
C551 H538 0.929 . S
C551 C543 1.433 . S
C551 N553 1.384 . S
N552 C548 1.427 1_655 S
N552 C549 1.384 . S
N553 C545 1.427 . S
N553 C551 1.384 . S
H554 C560 0.930 . S
H555 C564 0.930 . S
H556 C569 0.929 . S
H557 C567 0.929 . S
H558 C562 0.929 . S
H559 C568 0.929 . S
C560 H554 0.930 . S
C560 C561 1.367 . S
C560 C568 1.378 . S
C561 C560 1.367 . S
C561 C569 1.433 1_545 S
C562 H558 0.929 . S
C562 C564 1.378 . S
C562 C566 1.350 1_565 S
C563 C566 1.463 . S
C563 C568 1.350 . S
C563 N571 1.427 1_545 S
C564 H555 0.930 . S
C564 C562 1.378 . S
C564 C565 1.367 1_565 S
C565 C564 1.367 1_545 S
C565 C567 1.433 . S
C566 C562 1.350 1_545 S
C566 C563 1.463 . S
C566 N570 1.427 . S
C567 H557 0.929 . S
C567 C565 1.433 . S
C567 N570 1.384 . S
C568 H559 0.929 . S
C568 C560 1.378 . S
C568 C563 1.350 . S
C569 H556 0.929 . S
C569 C561 1.433 1_565 S
C569 N571 1.384 . S
N570 C566 1.427 . S
N570 C567 1.384 . S
N571 C563 1.427 1_565 S
N571 C569 1.384 . S
H572 C578 0.930 . S
H573 C582 0.930 . S
H574 C587 0.929 . S
H575 C585 0.929 . S
H576 C580 0.929 . S
H577 C586 0.929 . S
C578 H572 0.930 . S
C578 C579 1.367 . S
C578 C586 1.378 . S
C579 C578 1.367 . S
C579 C587 1.433 . S
C580 H576 0.929 . S
C580 C582 1.378 . S
C580 C584 1.350 . S
C581 C584 1.463 . S
C581 C586 1.350 . S
C581 N589 1.427 . S
C582 H573 0.930 . S
C582 C580 1.378 . S
C582 C583 1.367 . S
C583 C582 1.367 . S
C583 C585 1.433 . S
C584 C580 1.350 . S
C584 C581 1.463 . S
C584 N588 1.427 . S
C585 H575 0.929 . S
C585 C583 1.433 . S
C585 N588 1.384 . S
C586 H577 0.929 . S
C586 C578 1.378 . S
C586 C581 1.350 . S
C587 H574 0.929 . S
C587 C579 1.433 . S
C587 N589 1.384 . S
N588 C584 1.427 . S
N588 C585 1.384 . S
N589 C581 1.427 . S
N589 C587 1.384 . S
H590 C596 0.930 . S
H591 C600 0.930 . S
H592 C605 0.929 1_554 S
H593 C603 0.929 . S
H594 C598 0.929 . S
H595 C604 0.929 . S
C596 H590 0.930 . S
C596 C597 1.367 . S
C596 C604 1.378 . S
C597 C596 1.367 . S
C597 C605 1.433 . S
C598 H594 0.929 . S
C598 C600 1.378 . S
C598 C602 1.350 . S
C599 C602 1.463 . S
C599 C604 1.350 . S
C599 N607 1.427 . S
C600 H591 0.930 . S
C600 C598 1.378 . S
C600 C601 1.367 . S
C601 C600 1.367 . S
C601 C603 1.433 . S
C602 C598 1.350 . S
C602 C599 1.463 . S
C602 N606 1.427 . S
C603 H593 0.929 . S
C603 C601 1.433 . S
C603 N606 1.384 . S
C604 H595 0.929 . S
C604 C596 1.378 . S
C604 C599 1.350 . S
C605 H592 0.929 1_556 S
C605 C597 1.433 . S
C605 N607 1.384 . S
N606 C602 1.427 . S
N606 C603 1.384 . S
N607 C599 1.427 . S
N607 C605 1.384 . S
H608 C614 0.930 . S
H609 C618 0.930 . S
H610 C623 0.934 . S
H611 C621 0.929 . S
H612 C616 0.929 . S
H613 C622 0.929 . S
C614 H608 0.930 . S
C614 C615 1.367 . S
C614 C622 1.378 . S
C615 C614 1.367 . S
C615 C623 1.431 1_655 S
C616 H612 0.929 . S
C616 C618 1.378 . S
C616 C620 1.350 . S
C617 C620 1.463 . S
C617 C622 1.350 . S
C617 N625 1.427 . S
C618 H609 0.930 . S
C618 C616 1.378 . S
C618 C619 1.367 . S
C619 C618 1.367 . S
C619 C621 1.433 . S
C620 C616 1.350 . S
C620 C617 1.463 . S
C620 N624 1.427 . S
C621 H611 0.929 . S
C621 C619 1.433 . S
C621 N624 1.384 . S
C622 H613 0.929 . S
C622 C614 1.378 . S
C622 C617 1.350 . S
C623 H610 0.934 . S
C623 C615 1.431 1_455 S
C623 N625 1.382 1_455 S
N624 C620 1.427 . S
N624 C621 1.384 . S
N625 C617 1.427 . S
N625 C623 1.382 1_655 S
H626 C632 0.930 . S
H627 C636 0.930 . S
H628 C641 0.929 . S
H629 C639 0.929 . S
H630 C634 0.929 1_545 S
H631 C640 0.929 . S
C632 H626 0.930 . S
C632 C633 1.367 . S
C632 C640 1.378 . S
C633 C632 1.367 . S
C633 C641 1.433 1_565 S
C634 H630 0.929 1_565 S
C634 C636 1.378 . S
C634 C638 1.350 . S
C635 C638 1.463 . S
C635 C640 1.350 . S
C635 N643 1.419 1_565 S
C636 H627 0.930 . S
C636 C634 1.378 . S
C636 C637 1.367 . S
C637 C636 1.367 . S
C637 C639 1.433 . S
C638 C634 1.350 . S
C638 C635 1.463 . S
C638 N642 1.427 . S
C639 H629 0.929 . S
C639 C637 1.433 . S
C639 N642 1.384 . S
C640 H631 0.929 . S
C640 C632 1.378 . S
C640 C635 1.350 . S
C641 H628 0.929 . S
C641 C633 1.433 1_545 S
C641 N643 1.387 . S
N642 C638 1.427 . S
N642 C639 1.384 . S
N643 C635 1.419 1_545 S
N643 C641 1.387 . S
H644 C650 0.930 . S
H645 C654 0.930 . S
H646 C659 0.929 . S
H647 C657 0.929 . S
H648 C652 0.929 . S
H649 C658 0.929 . S
C650 H644 0.930 . S
C650 C651 1.367 . S
C650 C658 1.378 . S
C651 C650 1.367 . S
C651 C659 1.433 . S
C652 H648 0.929 . S
C652 C654 1.378 . S
C652 C656 1.350 . S
C653 C656 1.463 . S
C653 C658 1.350 . S
C653 N661 1.427 . S
C654 H645 0.930 . S
C654 C652 1.378 . S
C654 C655 1.367 . S
C655 C654 1.367 . S
C655 C657 1.433 . S
C656 C652 1.350 . S
C656 C653 1.463 . S
C656 N660 1.427 . S
C657 H647 0.929 . S
C657 C655 1.433 . S
C657 N660 1.384 . S
C658 H649 0.929 . S
C658 C650 1.378 . S
C658 C653 1.350 . S
C659 H646 0.929 . S
C659 C651 1.433 . S
C659 N661 1.384 . S
N660 C656 1.427 . S
N660 C657 1.384 . S
N661 C653 1.427 . S
N661 C659 1.384 . S
H662 C668 0.930 . S
H663 C672 0.930 . S
H664 C677 0.929 . S
H665 C675 0.929 . S
H666 C670 0.929 . S
H667 C676 0.929 . S
C668 H662 0.930 . S
C668 C669 1.367 . S
C668 C676 1.378 . S
C669 C668 1.367 . S
C669 C677 1.433 . S
C670 H666 0.929 . S
C670 C672 1.378 . S
C670 C674 1.350 . S
C671 C674 1.463 . S
C671 C676 1.350 . S
C671 N679 1.427 . S
C672 H663 0.930 . S
C672 C670 1.378 . S
C672 C673 1.367 . S
C673 C672 1.367 . S
C673 C675 1.433 . S
C674 C670 1.350 . S
C674 C671 1.463 . S
C674 N678 1.427 . S
C675 H665 0.929 . S
C675 C673 1.433 . S
C675 N678 1.384 . S
C676 H667 0.929 . S
C676 C668 1.378 . S
C676 C671 1.350 . S
C677 H664 0.929 . S
C677 C669 1.433 . S
C677 N679 1.384 . S
N678 C674 1.427 . S
N678 C675 1.384 . S
N679 C671 1.427 . S
N679 C677 1.384 . S
C255 C76 1.815 . S
C259 C97 1.954 1_545 S
C277 C137 1.964 . S
C273 C87 1.833 . S
C295 C177 1.967 . S
C291 C54 1.840 . S
C313 C217 1.958 1_455 S
C309 C65 1.835 1_455 S
C331 C106 1.957 1_565 S
C327 C32 1.820 1_545 S
C345 C43 1.837 . S
C349 C146 1.964 . S
C363 C10 1.832 . S
C367 C186 1.971 . S
C381 C21 1.835 . S
C385 C226 1.959 1_655 S
C403 C103 0.518 . S
C399 C60 0.542 . S
C421 C143 0.497 . S
C417 C71 0.516 . S
C439 C183 0.527 . S
C435 C82 0.519 . S
C453 C49 0.540 . S
C457 C223 0.512 . S
C471 C16 0.506 1_655 S
C475 C94 0.493 . S
C493 C134 0.513 . S
C489 C27 0.544 1_565 S
C511 C174 0.517 . S
C507 C38 0.519 . S
C525 C5 0.535 . S
C529 C214 0.505 . S
C543 C59 2.034 . S
C547 C107 2.284 . S
C561 C70 2.025 . S
C565 C147 2.261 . S
C583 C187 2.256 . S
C579 C81 2.000 . S
C601 C227 2.278 . S
C597 C48 2.034 . S
C615 C15 2.034 1_655 S
C619 C98 2.293 . S
C637 C138 2.263 . S
C633 C26 2.029 1_565 S
C655 C178 2.249 . S
C651 C37 2.012 . S
C669 C4 2.032 . S
C673 C218 2.278 . S
