# Generated by pormake.
# Topology wbl, (4,4)-cn, num edge types: 1
# Building blocks:
#     Node 0, Type 0, BuildingBlock: NAWXER_clean_linker_0, # of connection points: 4
#     Node 1, Type 0, BuildingBlock: NAWXER_clean_linker_0, # of connection points: 4
#     Node 2, Type 0, BuildingBlock: NAWXER_clean_linker_0, # of connection points: 4
#     Node 3, Type 0, BuildingBlock: NAWXER_clean_linker_0, # of connection points: 4
#     Node 4, Type 0, BuildingBlock: NAWXER_clean_linker_0, # of connection points: 4
#     Node 5, Type 0, BuildingBlock: NAWXER_clean_linker_0, # of connection points: 4
#     Node 6, Type 0, BuildingBlock: NAWXER_clean_linker_0, # of connection points: 4
#     Node 7, Type 0, BuildingBlock: NAWXER_clean_linker_0, # of connection points: 4
#     Node 8, Type 1, BuildingBlock: QUQFOY_clean_sbu_3, # of connection points: 4
#     Node 9, Type 1, BuildingBlock: QUQFOY_clean_sbu_3, # of connection points: 4
#     Node 10, Type 1, BuildingBlock: QUQFOY_clean_sbu_3, # of connection points: 4
#     Node 11, Type 1, BuildingBlock: QUQFOY_clean_sbu_3, # of connection points: 4
#     Node 12, Type 1, BuildingBlock: QUQFOY_clean_sbu_3, # of connection points: 4
#     Node 13, Type 1, BuildingBlock: QUQFOY_clean_sbu_3, # of connection points: 4
#     Node 14, Type 1, BuildingBlock: QUQFOY_clean_sbu_3, # of connection points: 4
#     Node 15, Type 1, BuildingBlock: QUQFOY_clean_sbu_3, # of connection points: 4
#     Edge 16, Type (0, 1), None
#     Edge 17, Type (0, 1), None
#     Edge 18, Type (0, 1), None
#     Edge 19, Type (0, 1), None
#     Edge 20, Type (0, 1), None
#     Edge 21, Type (0, 1), None
#     Edge 22, Type (0, 1), None
#     Edge 23, Type (0, 1), None
#     Edge 24, Type (0, 1), None
#     Edge 25, Type (0, 1), None
#     Edge 26, Type (0, 1), None
#     Edge 27, Type (0, 1), None
#     Edge 28, Type (0, 1), None
#     Edge 29, Type (0, 1), None
#     Edge 30, Type (0, 1), None
#     Edge 31, Type (0, 1), None
#     Edge 32, Type (0, 1), None
#     Edge 33, Type (0, 1), None
#     Edge 34, Type (0, 1), None
#     Edge 35, Type (0, 1), None
#     Edge 36, Type (0, 1), None
#     Edge 37, Type (0, 1), None
#     Edge 38, Type (0, 1), None
#     Edge 39, Type (0, 1), None
#     Edge 40, Type (0, 1), None
#     Edge 41, Type (0, 1), None
#     Edge 42, Type (0, 1), None
#     Edge 43, Type (0, 1), None
#     Edge 44, Type (0, 1), None
#     Edge 45, Type (0, 1), None
#     Edge 46, Type (0, 1), None
#     Edge 47, Type (0, 1), None
# Relax obj value: 0.170
# Max RMSD: 0.176
# Mean RMSD: 0.147
data_MOF--net-wbl--node1-QUQFOY_clean_sbu_3--node2-NAWXER_clean_linker_0--edge1-none
_symmetry_space_group_name_H-M    P1
_symmetry_Int_Tables_number       1
_symmetry_cell_setting            triclinic
loop_
_symmetry_equiv_pos_as_xyz
'x, y, z'
_cell_length_a     25.274215
_cell_length_b     25.33565
_cell_length_c     42.336351
_cell_angle_alpha  90.838266
_cell_angle_beta   90.389175
_cell_angle_gamma 89.949821
loop_
_atom_site_label
_atom_site_type_symbol
_atom_site_fract_x
_atom_site_fract_y
_atom_site_fract_z
_atom_type_partial_charge
C0 C 0.14509 0.93788 0.4056 0.0
C1 C 0.1755 0.9711 0.42541 0.0
C2 C 0.12598 0.95632 0.37664 0.0
C3 C 0.13793 0.00771 0.36688 0.0
C4 C 0.19098 0.02076 0.41428 0.0
C5 C 0.17224 0.03889 0.38533 0.0
C6 C 0.10237 0.03429 0.3445 0.0
C7 C 0.21982 0.97125 0.27056 0.0
C8 C 0.21292 0.91621 0.27227 0.0
C9 C 0.18169 0.0057 0.28272 0.0
C10 C 0.13585 -0.01421 0.29649 0.0
C11 C 0.16548 0.89648 0.28459 0.0
C12 C 0.12701 0.93114 0.29643 0.0
C13 C 0.09865 0.02222 0.31209 0.0
C14 C 0.90279 0.15444 0.27767 0.0
C15 C 0.8814 0.11674 0.25655 0.0
C16 C 0.95127 0.14479 0.29283 0.0
C17 C 0.97822 0.09668 0.28773 0.0
C18 C 0.91192 0.07216 0.2485 0.0
C19 C 0.95947 0.06211 0.26401 0.0
C20 C 0.02366 0.07957 0.30766 0.0
C21 C 0.91636 0.09736 0.39651 0.0
C22 C 0.93074 0.14176 0.41481 0.0
C23 C 0.94354 0.08509 0.36877 0.0
C24 C -0.01372 0.11634 0.35949 0.0
C25 C 0.96949 0.17628 0.40365 0.0
C26 C -0.00219 0.16308 0.37637 0.0
C27 C 0.02783 0.09132 0.34035 0.0
H28 H 0.13253 0.89945 0.41353 0.0
H29 H 0.09787 0.93232 0.36346 0.0
H30 H 0.21506 0.04702 0.42878 0.0
H31 H 0.18101 0.07903 0.37859 0.0
H32 H 0.25586 -0.01217 0.26121 0.0
H33 H 0.18879 0.04786 0.28234 0.0
H34 H 0.15897 0.85436 0.28622 0.0
H35 H 0.09122 0.91526 0.3065 0.0
H36 H 0.88075 0.1897 0.28394 0.0
H37 H 0.96639 0.17414 0.30934 0.0
H38 H 0.89731 0.0428 0.23174 0.0
H39 H 0.97974 0.02537 0.25873 0.0
H40 H 0.88647 0.07029 0.40476 0.0
H41 H 0.93491 0.04822 0.35649 0.0
H42 H -0.01863 0.21053 0.41757 0.0
H43 H 0.03154 0.18693 0.36997 0.0
N44 N 0.0671 0.06848 0.35719 0.0
N45 N 0.05987 0.0456 0.29475 0.0
C46 C 0.84714 0.47807 0.64631 0.0
C47 C 0.87971 0.43803 0.65823 0.0
C48 C 0.8627 0.50599 0.61963 0.0
C49 C 0.9099 0.49283 0.60408 0.0
C50 C 0.92457 0.42221 0.64117 0.0
C51 C 0.93924 0.44909 0.61407 0.0
C52 C 0.93728 0.53306 0.58561 0.0
C53 C 0.9312 0.41187 0.50063 0.0
C54 C 0.88093 0.39266 0.5086 0.0
C55 C 0.94882 0.46035 0.51267 0.0
C56 C 0.91654 0.49031 0.5329 0.0
C57 C 0.84635 0.42561 0.52571 0.0
C58 C 0.86401 0.47429 0.53767 0.0
C59 C 0.9409 0.53285 0.55236 0.0
C60 C 0.13193 0.67259 0.53503 0.0
C61 C 0.11181 0.71489 0.51748 0.0
C62 C 0.09799 0.63357 0.54609 0.0
C63 C 0.04346 0.63621 0.53977 0.0
C64 C 0.05787 0.71487 0.50898 0.0
C65 C 0.02401 0.67565 0.51994 0.0
C66 C 0.00622 0.60105 0.556 0.0
C67 C 0.06837 0.70776 0.63842 0.0
C68 C 0.09152 0.6772 0.66225 0.0
C69 C 0.0422 0.68299 0.61289 0.0
C70 C 0.03964 0.62763 0.61112 0.0
C71 C 0.09145 0.62216 0.65938 0.0
C72 C 0.06591 0.59761 0.634 0.0
C73 C 0.00338 0.59962 0.58921 0.0
H74 H 0.81267 0.4912 0.65932 0.0
H75 H 0.84036 0.54053 0.61275 0.0
H76 H 0.95025 0.39144 0.65003 0.0
H77 H 0.97642 0.43918 0.60283 0.0
H78 H 0.95854 0.38773 0.48711 0.0
H79 H -0.0107 0.47214 0.50832 0.0
H80 H 0.80713 0.41221 0.53189 0.0
H81 H 0.83775 0.49772 0.55232 0.0
H82 H 0.17326 0.67131 0.5419 0.0
H83 H 0.11392 0.60275 0.56087 0.0
H84 H 0.04118 0.74678 0.49537 0.0
H85 H -0.0179 0.67801 0.51457 0.0
H86 H 0.06794 0.75043 0.64048 0.0
H87 H 0.02155 0.70681 0.59571 0.0
H88 H 0.10939 0.59803 0.67746 0.0
H89 H 0.06442 0.55486 0.63305 0.0
N90 N 0.9688 0.56607 0.60249 0.0
N91 N 0.97503 0.56738 0.53866 0.0
C92 C 0.53743 0.3528 0.89777 0.0
C93 C 0.57853 0.3844 0.90985 0.0
C94 C 0.51056 0.36777 0.87034 0.0
C95 C 0.5256 0.41351 0.85439 0.0
C96 C 0.59655 0.42734 0.89235 0.0
C97 C 0.57059 0.44145 0.86452 0.0
C98 C 0.48588 0.44141 0.83543 0.0
C99 C 0.60854 0.44411 0.74979 0.0
C100 C 0.62822 0.39331 0.75592 0.0
C101 C 0.56138 0.46134 0.76346 0.0
C102 C 0.53319 0.42814 0.78349 0.0
C103 C 0.59708 0.35827 0.77323 0.0
C104 C 0.54972 0.3755 0.78677 0.0
C105 C 0.48965 0.45034 0.80271 0.0
C106 C 0.33552 0.61852 0.76927 0.0
C107 C 0.28676 0.59281 0.76453 0.0
C108 C 0.3791 0.5906 0.78115 0.0
C109 C 0.37361 0.53742 0.7894 0.0
C110 C 0.28295 0.53859 0.77099 0.0
C111 C 0.32576 0.51141 0.7836 0.0
C112 C 0.41574 0.50892 0.80606 0.0
C113 C 0.33569 0.52894 0.91218 0.0
C114 C 0.33798 0.58421 0.91395 0.0
C115 C 0.35503 0.50196 0.88574 0.0
C116 C 0.37778 0.52965 0.86076 0.0
C117 C 0.3566 0.61228 0.88794 0.0
C118 C 0.3772 0.58516 0.86174 0.0
C119 C 0.41306 0.50065 0.83884 0.0
H120 H 0.52261 0.31995 0.91121 0.0
H121 H 0.47513 0.34652 0.86326 0.0
H122 H 0.62801 0.45238 0.90151 0.0
H123 H 0.58197 0.47754 0.85293 0.0
H124 H 0.63134 0.47192 0.73626 0.0
H125 H 0.54896 0.50183 0.76011 0.0
H126 H 0.61084 0.31867 0.77804 0.0
H127 H 0.52738 0.34838 0.80102 0.0
H128 H 0.33963 0.66015 0.76439 0.0
H129 H 0.41619 0.61102 0.78531 0.0
H130 H 0.24603 0.51745 0.76775 0.0
H131 H 0.32106 0.47027 0.7897 0.0
H132 H 0.32106 0.50644 0.93186 0.0
H133 H 0.3556 0.45919 0.88579 0.0
H134 H 0.35915 0.65495 0.8889 0.0
H135 H 0.39675 0.60766 0.84375 0.0
N136 N 0.44807 0.46704 0.85205 0.0
N137 N 0.45388 0.4835 0.78905 0.0
C138 C 0.46119 0.82373 0.00274 0.0
C139 C 0.41055 0.80977 0.01342 0.0
C140 C 0.48727 0.86775 0.01542 0.0
C141 C 0.46344 0.89858 0.0391 0.0
C142 C 0.38475 0.84351 0.03502 0.0
C143 C 0.411 0.88771 0.04769 0.0
C144 C 0.49567 0.93864 0.05614 0.0
C145 C 0.41599 0.89503 0.15495 0.0
C146 C 0.4483 0.8564 0.1687 0.0
C147 C 0.43065 0.91801 0.12646 0.0
C148 C 0.47662 0.90129 0.11078 0.0
C149 C 0.49233 0.83735 0.15193 0.0
C150 C 0.50619 0.85947 0.12312 0.0
C151 C 0.50297 0.93759 0.08915 0.0
C152 C 0.6294 0.11946 0.13082 0.0
C153 C 0.65846 0.09189 0.15368 0.0
C154 C 0.60282 0.09164 0.10665 0.0
C155 C 0.6066 0.03633 0.10476 0.0
C156 C 0.66473 0.0372 0.15058 0.0
C157 C 0.63947 0.00975 0.12614 0.0
C158 C 0.56876 0.00443 0.08597 0.0
C159 C 0.6602 0.10732 0.02404 0.0
C160 C 0.62687 0.14024 0.00635 0.0
C161 C 0.64037 0.06088 0.03704 0.0
C162 C 0.58658 0.04765 0.03329 0.0
C163 C 0.57525 0.12291 0.99912 0.0
C164 C 0.55528 0.07717 0.01255 0.0
C165 C 0.56074 0.00724 0.05297 0.0
H166 H 0.48197 0.79905 0.98579 0.0
H167 H 0.52743 0.87578 0.00807 0.0
H168 H 0.34554 0.83426 0.04347 0.0
H169 H 0.39089 0.9123 0.06491 0.0
H170 H 0.38202 0.91063 0.16747 0.0
H171 H 0.40848 0.95166 0.11801 0.0
H172 H 0.51772 0.80733 0.16191 0.0
H173 H 0.54266 0.8471 0.1119 0.0
H174 H 0.62362 0.1617 0.13319 0.0
H175 H 0.57665 0.11282 0.09091 0.0
H176 H 0.68691 0.01533 0.16806 0.0
H177 H 0.64257 0.96707 0.12527 0.0
H178 H 0.70042 0.1191 0.0296 0.0
H179 H 0.66623 0.03725 0.05163 0.0
H180 H 0.54869 0.14688 0.98515 0.0
H181 H 0.51405 0.06723 0.00862 0.0
N182 N 0.52468 0.97374 0.03925 0.0
N183 N 0.53942 0.96996 0.10247 0.0
C184 C 0.03182 0.67396 0.85616 0.0
C185 C 0.07401 0.64358 0.84457 0.0
C186 C 0.00523 0.65835 0.88335 0.0
C187 C 0.02153 0.61316 0.89961 0.0
C188 C 0.09278 0.60086 0.86217 0.0
C189 C 0.06704 0.58608 0.88976 0.0
C190 C -0.01685 0.58542 0.91937 0.0
C191 C 0.11134 0.58282 0.00352 0.0
C192 C 0.13073 0.6336 0.99724 0.0
C193 C 0.06353 0.5656 0.99027 0.0
C194 C 0.03434 0.59874 0.97044 0.0
C195 C 0.09897 0.66844 0.97987 0.0
C196 C 0.05098 0.65122 0.96673 0.0
C197 C -0.01077 0.57672 0.95204 0.0
C198 C 0.83444 0.4101 0.9876 0.0
C199 C 0.78702 0.43704 0.99428 0.0
C200 C 0.87764 0.43725 0.97496 0.0
C201 C 0.87312 0.49105 0.96786 0.0
C202 C 0.78454 0.49182 0.98917 0.0
C203 C 0.8269 0.51832 0.9758 0.0
C204 C 0.91436 0.51905 0.95029 0.0
C205 C 0.82857 0.49921 0.84506 0.0
C206 C 0.8323 0.44407 0.8427 0.0
C207 C 0.84819 0.52589 0.87169 0.0
C208 C 0.87273 0.49805 0.89622 0.0
C209 C 0.85236 0.41571 0.86839 0.0
C210 C 0.87329 0.44258 0.89475 0.0
C211 C 0.90949 0.52702 0.91752 0.0
H212 H 0.01636 0.70658 0.84263 0.0
H213 H 0.9694 0.67892 0.89019 0.0
H214 H 0.12503 0.57669 0.85337 0.0
H215 H 0.07939 0.55038 0.90153 0.0
H216 H 0.13462 0.55512 0.01706 0.0
H217 H 0.05116 0.52522 0.99391 0.0
H218 H 0.11251 0.70799 0.9749 0.0
H219 H 0.02802 0.67832 0.95261 0.0
H220 H 0.83766 0.36804 0.99138 0.0
H221 H 0.91353 0.4158 0.96933 0.0
H222 H 0.74877 0.51403 0.99395 0.0
H223 H 0.82295 0.55995 0.97071 0.0
H224 H 0.81283 0.52189 0.82564 0.0
H225 H 0.84792 0.56868 0.87201 0.0
H226 H 0.85603 0.37314 0.86697 0.0
H227 H 0.89426 0.42004 0.91232 0.0
N228 N 0.94387 0.56008 0.90358 0.0
N229 N 0.95404 0.5442 0.96648 0.0
C230 C 0.3442 0.5497 0.10927 0.0
C231 C 0.37923 0.58824 0.09839 0.0
C232 C 0.35732 0.52032 0.13593 0.0
C233 C 0.40451 0.53057 0.15257 0.0
C234 C 0.42431 0.60111 0.11645 0.0
C235 C 0.43656 0.57283 0.14359 0.0
C236 C 0.42824 0.48889 0.17188 0.0
C237 C 0.44945 0.60996 0.26055 0.0
C238 C 0.40409 0.63949 0.25287 0.0
C239 C 0.4588 0.56118 0.24612 0.0
C240 C 0.42289 0.54042 0.22382 0.0
C241 C 0.36539 0.61636 0.23314 0.0
C242 C 0.37448 0.56685 0.219 0.0
C243 C 0.43897 0.49363 0.20461 0.0
C244 C 0.61066 0.35201 0.24105 0.0
C245 C 0.5952 0.29874 0.24022 0.0
C246 C 0.5759 0.39121 0.23042 0.0
C247 C 0.52633 0.37719 0.21766 0.0
C248 C 0.5439 0.28566 0.22965 0.0
C249 C 0.51011 0.32443 0.21806 0.0
C250 C 0.4933 0.41635 0.2013 0.0
C251 C 0.51533 0.33959 0.0935 0.0
C252 C 0.57082 0.3415 0.0935 0.0
C253 C 0.48702 0.35766 0.11969 0.0
C254 C 0.51356 0.37859 0.14628 0.0
C255 C 0.59764 0.35829 0.12098 0.0
C256 C 0.56925 0.3775 0.14698 0.0
C257 C 0.4837 0.41294 0.16851 0.0
H258 H 0.30947 0.53885 0.09551 0.0
H259 H 0.3328 0.48702 0.14212 0.0
H260 H 0.45186 0.63072 0.10843 0.0
H261 H 0.47373 0.58052 0.15572 0.0
H262 H 0.47967 0.62602 0.2762 0.0
H263 H 0.49593 0.54138 0.25097 0.0
H264 H 0.32961 0.63766 0.22718 0.0
H265 H 0.34452 0.55041 0.20337 0.0
H266 H 0.64996 0.3631 0.24903 0.0
H267 H 0.58896 0.43191 0.23024 0.0
H268 H 0.53087 0.24495 0.22853 0.0
H269 H 0.4719 0.31299 0.20843 0.0
H270 H 0.49369 0.32628 0.07269 0.0
H271 H 0.4442 0.35864 0.11831 0.0
H272 H 0.64044 0.36043 0.1215 0.0
H273 H 0.59113 0.39558 0.1663 0.0
N274 N 0.45107 0.44896 0.15536 0.0
N275 N 0.47091 0.45664 0.21815 0.0
C276 C 0.47836 0.85053 0.35995 0.0
C277 C 0.42501 0.86287 0.35516 0.0
C278 C 0.50636 0.87398 0.38483 0.0
C279 C 0.48171 0.91094 0.40491 0.0
C280 C 0.39889 0.8964 0.37667 0.0
C281 C 0.42736 0.92099 0.40129 0.0
C282 C 0.51602 0.94723 0.42313 0.0
C283 C 0.40867 0.9575 0.51826 0.0
C284 C 0.3796 0.91182 0.51052 0.0
C285 C 0.4541 0.96997 0.50165 0.0
C286 C 0.47235 0.93665 0.47726 0.0
C287 C 0.40135 0.87506 0.48904 0.0
C288 C 0.44806 0.88699 0.47295 0.0
C289 C 0.51412 0.95716 0.45609 0.0
C290 C 0.67845 0.13144 0.47274 0.0
C291 C 0.71074 0.10704 0.49541 0.0
C292 C 0.63597 0.10391 0.45899 0.0
C293 C 0.62556 0.0516 0.46757 0.0
C294 C 0.69719 0.05638 0.50582 0.0
C295 C 0.65497 0.02903 0.49206 0.0
C296 C 0.58538 0.01899 0.45108 0.0
C297 C 0.68397 0.01887 0.35363 0.0
C298 C 0.66562 0.06372 0.33776 0.0
C299 C 0.66211 0.00484 0.38252 0.0
C300 C 0.62137 0.03517 0.39585 0.0
C301 C 0.6278 0.09638 0.35236 0.0
C302 C 0.60509 0.08159 0.38091 0.0
C303 C 0.58558 0.00996 0.41825 0.0
H304 H 0.49909 0.82495 0.34342 0.0
H305 H 0.54845 0.86638 0.38691 0.0
H306 H 0.35774 0.90679 0.37294 0.0
H307 H 0.40797 0.95047 0.41596 0.0
H308 H 0.394 -0.01387 0.53534 0.0
H309 H 0.47267 0.00777 0.50654 0.0
H310 H 0.38063 0.83881 0.48312 0.0
H311 H 0.46342 0.85832 0.45622 0.0
H312 H 0.68755 0.17062 0.46444 0.0
H313 H 0.61205 0.12319 0.44133 0.0
H314 H 0.72081 0.03668 0.52355 0.0
H315 H 0.64697 -0.0109 0.49953 0.0
H316 H 0.71333 -0.00683 0.34296 0.0
H317 H 0.67399 0.96799 0.39316 0.0
H318 H 0.61269 0.13095 0.34053 0.0
H319 H 0.57205 0.10424 0.39007 0.0
N320 N 0.55153 0.97413 0.40582 0.0
N321 N 0.54971 -0.00778 0.46868 0.0
C322 C 0.15623 -0.01252 0.60914 0.0
C323 C 0.15016 0.93262 0.60716 0.0
C324 C 0.13277 0.01613 0.63355 0.0
C325 C 0.10203 -0.00939 0.65615 0.0
C326 C 0.12313 0.9062 0.63112 0.0
C327 C 0.0984 0.93522 0.65535 0.0
C328 C 0.06552 0.02345 0.67504 0.0
C329 C 0.08011 0.91123 0.76362 0.0
C330 C 0.1307 0.89288 0.75523 0.0
C331 C 0.0596 0.95692 0.75025 0.0
C332 C 0.08931 0.98518 0.72836 0.0
C333 C 0.163 0.92497 0.73663 0.0
C334 C 0.14256 0.97121 0.72353 0.0
C335 C 0.06171 0.02413 0.7083 0.0
C336 C 0.88199 0.18378 0.7257 0.0
C337 C 0.90818 0.2193 0.74629 0.0
C338 C 0.90851 0.13933 0.71376 0.0
C339 C 0.96176 0.1303 0.72188 0.0
C340 C 0.95949 0.20679 0.75692 0.0
C341 C -0.01405 0.16272 0.74484 0.0
C342 C -0.0055 0.09077 0.70494 0.0
C343 C 0.93884 0.19881 0.62336 0.0
C344 C 0.91646 0.16945 0.59825 0.0
C345 C 0.96272 0.17278 0.6488 0.0
C346 C 0.96313 0.11731 0.64952 0.0
C347 C 0.91512 0.11435 0.59968 0.0
C348 C 0.93795 0.08856 0.62515 0.0
C349 C -0.00297 0.08784 0.67167 0.0
H350 H 0.17705 0.00854 0.59093 0.0
H351 H 0.13562 0.05882 0.63354 0.0
H352 H 0.11768 0.86382 0.62974 0.0
H353 H 0.07379 0.91485 0.6721 0.0
H354 H 0.05451 0.88792 0.77836 0.0
H355 H 0.01883 0.96748 0.75498 0.0
H356 H 0.20244 0.91233 0.73012 0.0
H357 H 0.1672 -0.00616 0.70788 0.0
H358 H 0.84223 0.19186 0.71737 0.0
H359 H 0.88831 0.11363 0.69696 0.0
H360 H 0.98057 0.23276 0.77318 0.0
H361 H 0.02666 0.15603 0.75192 0.0
H362 H 0.9405 0.24148 0.62242 0.0
H363 H -0.01694 0.19573 0.66692 0.0
H364 H 0.89787 0.0911 0.58057 0.0
H365 H 0.9382 0.04577 0.62507 0.0
N366 N 0.03274 0.05484 0.65834 0.0
N367 N 0.02663 0.05834 0.72201 0.0
C368 C 0.37418 0.60793 0.066 0.0
O369 O 0.41472 0.60666 0.04851 0.0
Cd370 Cd 0.41458 0.62707 0.99373 0.0
O371 O 0.32941 0.62234 0.05511 0.0
Cd372 Cd 0.29883 0.65817 0.00339 0.0
C373 C 0.38887 0.75687 0.00549 0.0
O374 O 0.33671 0.58967 0.97007 0.0
O375 O 0.31195 0.6594 0.94544 0.0
O376 O 0.21792 0.61126 0.0144 0.0
C377 C 0.32616 0.61143 0.94405 0.0
O378 O 0.42022 0.72233 0.99409 0.0
C379 C 0.18672 0.6464 0.00418 0.0
O380 O 0.3422 0.7441 0.01372 0.0
O381 O 0.2075 0.68971 0.99589 0.0
C382 C 0.44017 0.84058 0.20176 0.0
O383 O 0.48033 0.8293 0.21856 0.0
Cd384 Cd 0.4792 0.80627 0.27323 0.0
O385 O 0.39391 0.84099 0.2136 0.0
Cd386 Cd 0.35337 0.82091 0.26572 0.0
C387 C 0.40257 0.69637 0.26134 0.0
O388 O 0.41873 0.86304 0.29932 0.0
O389 O 0.36144 0.81549 0.32377 0.0
O390 O 0.30207 0.89951 0.25684 0.0
C391 C 0.39986 0.84752 0.32521 0.0
O392 O 0.44585 0.71764 0.27023 0.0
C393 C 0.258 0.88068 0.26532 0.0
O394 O 0.36175 0.72452 0.25558 0.0
O395 O 0.25688 0.83163 0.27146 0.0
C396 C 0.18649 0.95723 0.45866 0.0
O397 O 0.19641 -0.00561 0.47829 0.0
Cd398 Cd 0.21455 -0.01245 0.53335 0.0
O399 O 0.18396 0.90934 0.46763 0.0
Cd400 Cd 0.19812 0.8611 0.51857 0.0
C401 C 0.32332 0.90925 0.51982 0.0
O402 O 0.15399 0.92471 0.55144 0.0
O403 O 0.1962 0.86562 0.57759 0.0
O404 O 0.12348 0.80539 0.50368 0.0
C405 C 0.16556 0.90519 0.57789 0.0
O406 O 0.30257 0.95159 0.53056 0.0
C407 C 0.14444 0.76257 0.51272 0.0
O408 O 0.29462 0.86984 0.5117 0.0
O409 O 0.19243 0.76487 0.5219 0.0
C410 C 0.09101 0.64917 0.81172 0.0
O411 O 0.08091 0.6115 0.7925 0.0
Cd412 Cd 0.10493 0.60597 0.73825 0.0
O413 O 0.11461 0.69087 0.80288 0.0
Cd414 Cd 0.15364 0.72547 0.75287 0.0
C415 C 0.23827 0.62174 0.75549 0.0
O416 O 0.08776 0.69022 0.71757 0.0
O417 O 0.15601 0.72137 0.69418 0.0
O418 O 0.10848 0.80484 0.76868 0.0
C419 C 0.11029 0.70121 0.69191 0.0
O420 O 0.19885 0.59452 0.74588 0.0
C421 C 0.14408 0.83673 0.76007 0.0
O422 O 0.2339 0.67124 0.76117 0.0
O423 O 0.18741 0.81663 0.75051 0.0
C424 C 0.91192 0.14674 0.44748 0.0
O425 O 0.91473 0.10648 0.46494 0.0
Cd426 Cd 0.8924 0.1015 0.5196 0.0
O427 O 0.89546 0.19102 0.4582 0.0
Cd428 Cd 0.85762 0.22475 0.50887 0.0
C429 C 0.76244 0.12986 0.50465 0.0
O430 O 0.92026 0.18214 0.54302 0.0
O431 O 0.85593 0.21995 0.56754 0.0
O432 O 0.90534 0.30388 0.49619 0.0
C433 C 0.89921 0.19486 0.56906 0.0
O434 O 0.79743 0.09845 0.51525 0.0
C435 C 0.86903 0.33594 0.50416 0.0
O436 O 0.77386 0.17754 0.49809 0.0
O437 O 0.82519 0.31607 0.51258 0.0
C438 C 0.87303 0.41988 0.69079 0.0
O439 O 0.9127 0.42195 0.70928 0.0
Cd440 Cd 0.91056 0.40262 0.76421 0.0
O441 O 0.82793 0.40536 0.7007 0.0
Cd442 Cd 0.79619 0.3707 0.75223 0.0
C443 C 0.88607 0.27237 0.75311 0.0
O444 O 0.83188 0.43966 0.78653 0.0
O445 O 0.80766 0.36925 0.81038 0.0
O446 O 0.71518 0.41663 0.73979 0.0
C447 C 0.82096 0.41743 0.81226 0.0
O448 O 0.91678 0.30738 0.76483 0.0
C449 C 0.68426 0.381 0.74939 0.0
O450 O 0.83976 0.28473 0.74364 0.0
O451 O 0.70541 0.33791 0.75795 0.0
C452 C 0.59428 0.38018 0.94309 0.0
O453 O 0.58379 0.41865 0.96152 0.0
Cd454 Cd 0.60463 0.42218 0.01625 0.0
O455 O 0.61619 0.33837 0.95327 0.0
Cd456 Cd 0.65075 0.30783 0.00544 0.0
C457 C 0.73811 0.40881 0.00326 0.0
O458 O 0.57821 0.33975 0.03746 0.0
O459 O 0.6486 0.31942 0.06362 0.0
O460 O 0.60704 0.22737 0.98953 0.0
C461 C 0.59974 0.33087 0.06394 0.0
O462 O 0.69892 0.43644 0.01247 0.0
C463 C 0.64119 0.19594 1.00071 0.0
O464 O 0.73282 0.35945 0.99755 0.0
O465 O 0.68354 0.21651 0.01172 0.0
C466 C 0.68157 0.07296 0.30483 0.0
O467 O 0.69355 0.03354 0.28739 0.0
Cd468 Cd 0.71796 0.03611 0.23288 0.0
O469 O 0.68054 0.11956 0.29382 0.0
Cd470 Cd 0.69888 0.16462 0.24314 0.0
C471 C 0.82483 0.11767 0.24729 0.0
O472 O 0.66112 0.09806 0.2095 0.0
O473 O 0.70224 0.15927 0.18452 0.0
O474 O 0.61654 0.20959 0.2519 0.0
C475 C 0.67442 0.11767 0.18342 0.0
O476 O 0.8046 0.07401 0.23817 0.0
C477 C 0.63321 0.25572 0.24643 0.0
O478 O 0.79575 0.15801 0.25294 0.0
O479 O 0.68274 0.26097 0.24203 0.0
loop_
_geom_bond_atom_site_label_1
_geom_bond_atom_site_label_2
_geom_bond_distance
_geom_bond_site_symmetry_2
_ccdc_geom_bond_type
C0 C1 1.384 . S
C0 C2 1.384 . S
C0 H28 0.931 . S
C1 C0 1.384 . S
C1 C4 1.382 . S
C2 C0 1.384 . S
C2 C3 1.381 . S
C2 H29 0.930 . S
C3 C2 1.381 . S
C3 C5 1.381 1_565 S
C3 C6 1.487 1_565 S
C4 C1 1.382 . S
C4 C5 1.387 1_565 S
C4 H30 0.930 1_565 S
C5 C3 1.381 1_545 S
C5 C4 1.387 1_545 S
C5 H31 0.931 . S
C6 C3 1.487 1_545 S
C6 C13 1.399 . S
C6 N44 1.343 . S
C7 C8 1.384 . S
C7 C9 1.384 . S
C7 H32 0.931 . S
C8 C7 1.384 . S
C8 C11 1.382 . S
C9 C7 1.384 . S
C9 C10 1.381 . S
C9 H33 0.930 . S
C10 C9 1.381 . S
C10 C12 1.381 . S
C10 C13 1.487 1_565 S
C11 C8 1.382 . S
C11 C12 1.387 . S
C11 H34 0.930 . S
C12 C10 1.381 . S
C12 C11 1.387 . S
C12 H35 0.931 . S
C13 C6 1.399 . S
C13 C10 1.487 1_545 S
C13 N45 1.343 . S
C14 C15 1.384 . S
C14 C16 1.384 . S
C14 H36 0.931 . S
C15 C14 1.384 . S
C15 C18 1.382 . S
C16 C14 1.384 . S
C16 C17 1.381 . S
C16 H37 0.930 . S
C17 C16 1.381 . S
C17 C19 1.381 . S
C17 C20 1.487 . S
C18 C15 1.382 . S
C18 C19 1.387 . S
C18 H38 0.930 . S
C19 C17 1.381 . S
C19 C18 1.387 . S
C19 H39 0.931 . S
C20 C17 1.487 . S
C20 C27 1.398 1_655 S
C20 N45 1.343 1_655 S
C21 C22 1.384 . S
C21 C23 1.384 . S
C21 H40 0.931 . S
C22 C21 1.384 . S
C22 C25 1.382 . S
C23 C21 1.384 . S
C23 C24 1.381 . S
C23 H41 0.930 . S
C24 C23 1.381 . S
C24 C26 1.381 . S
C24 C27 1.479 1_655 S
C25 C22 1.382 . S
C25 C26 1.387 . S
C25 H42 0.930 . S
C26 C24 1.381 . S
C26 C25 1.387 . S
C26 H43 0.931 1_655 S
C27 C20 1.398 1_455 S
C27 C24 1.479 1_455 S
C27 N44 1.352 . S
H28 C0 0.931 . S
H29 C2 0.930 . S
H30 C4 0.930 1_545 S
H31 C5 0.931 . S
H32 C7 0.931 . S
H33 C9 0.930 . S
H34 C11 0.930 . S
H35 C12 0.931 . S
H36 C14 0.931 . S
H37 C16 0.930 . S
H38 C18 0.930 . S
H39 C19 0.931 . S
H40 C21 0.931 . S
H41 C23 0.930 . S
H42 C25 0.930 . S
H43 C26 0.931 1_455 S
N44 C6 1.343 . S
N44 C27 1.352 . S
N45 C13 1.343 . S
N45 C20 1.343 1_455 S
C46 C47 1.384 . S
C46 C48 1.384 . S
C46 H74 0.931 . S
C47 C46 1.384 . S
C47 C50 1.382 . S
C48 C46 1.384 . S
C48 C49 1.381 . S
C48 H75 0.930 . S
C49 C48 1.381 . S
C49 C51 1.381 . S
C49 C52 1.487 . S
C50 C47 1.382 . S
C50 C51 1.387 . S
C50 H76 0.930 . S
C51 C49 1.381 . S
C51 C50 1.387 . S
C51 H77 0.931 1_655 S
C52 C49 1.487 . S
C52 C59 1.399 . S
C52 N90 1.343 1_655 S
C53 C54 1.384 . S
C53 C55 1.384 . S
C53 H78 0.931 . S
C54 C53 1.384 . S
C54 C57 1.382 . S
C55 C53 1.384 . S
C55 C56 1.381 . S
C55 H79 0.930 . S
C56 C55 1.381 . S
C56 C58 1.381 . S
C56 C59 1.487 . S
C57 C54 1.382 . S
C57 C58 1.387 . S
C57 H80 0.930 . S
C58 C56 1.381 . S
C58 C57 1.387 . S
C58 H81 0.931 . S
C59 C52 1.399 . S
C59 C56 1.487 . S
C59 N91 1.343 1_655 S
C60 C61 1.384 . S
C60 C62 1.384 . S
C60 H82 0.931 . S
C61 C60 1.384 . S
C61 C64 1.382 . S
C62 C60 1.384 . S
C62 C63 1.381 . S
C62 H83 0.930 . S
C63 C62 1.381 . S
C63 C65 1.381 . S
C63 C66 1.487 . S
C64 C61 1.382 . S
C64 C65 1.387 . S
C64 H84 0.930 . S
C65 C63 1.381 . S
C65 C64 1.387 . S
C65 H85 0.931 . S
C66 C63 1.487 . S
C66 C73 1.399 . S
C66 N91 1.343 . S
C67 C68 1.384 . S
C67 C69 1.384 . S
C67 H86 0.931 . S
C68 C67 1.384 . S
C68 C71 1.382 . S
C69 C67 1.384 . S
C69 C70 1.381 . S
C69 H87 0.930 . S
C70 C69 1.381 . S
C70 C72 1.381 . S
C70 C73 1.487 . S
C71 C68 1.382 . S
C71 C72 1.387 . S
C71 H88 0.930 . S
C72 C70 1.381 . S
C72 C71 1.387 . S
C72 H89 0.931 . S
C73 C66 1.399 . S
C73 C70 1.487 . S
C73 N90 1.343 . S
H74 C46 0.931 . S
H75 C48 0.930 . S
H76 C50 0.930 . S
H77 C51 0.931 1_455 S
H78 C53 0.931 . S
H79 C55 0.930 . S
H80 C57 0.930 . S
H81 C58 0.931 . S
H82 C60 0.931 . S
H83 C62 0.930 . S
H84 C64 0.930 . S
H85 C65 0.931 . S
H86 C67 0.931 . S
H87 C69 0.930 . S
H88 C71 0.930 . S
H89 C72 0.931 . S
N90 C52 1.343 1_455 S
N90 C73 1.343 . S
N91 C59 1.343 1_455 S
N91 C66 1.343 . S
C92 C93 1.384 . S
C92 C94 1.384 . S
C92 H120 0.931 . S
C93 C92 1.384 . S
C93 C96 1.382 . S
C94 C92 1.384 . S
C94 C95 1.381 . S
C94 H121 0.930 . S
C95 C94 1.381 . S
C95 C97 1.381 . S
C95 C98 1.487 . S
C96 C93 1.382 . S
C96 C97 1.387 . S
C96 H122 0.930 . S
C97 C95 1.381 . S
C97 C96 1.387 . S
C97 H123 0.931 . S
C98 C95 1.487 . S
C98 C105 1.399 . S
C98 N136 1.343 . S
C99 C100 1.384 . S
C99 C101 1.384 . S
C99 H124 0.931 . S
C100 C99 1.384 . S
C100 C103 1.382 . S
C101 C99 1.384 . S
C101 C102 1.381 . S
C101 H125 0.930 . S
C102 C101 1.381 . S
C102 C104 1.381 . S
C102 C105 1.487 . S
C103 C100 1.382 . S
C103 C104 1.387 . S
C103 H126 0.930 . S
C104 C102 1.381 . S
C104 C103 1.387 . S
C104 H127 0.931 . S
C105 C98 1.399 . S
C105 C102 1.487 . S
C105 N137 1.343 . S
C106 C107 1.384 . S
C106 C108 1.384 . S
C106 H128 0.931 . S
C107 C106 1.384 . S
C107 C110 1.382 . S
C108 C106 1.384 . S
C108 C109 1.381 . S
C108 H129 0.930 . S
C109 C108 1.381 . S
C109 C111 1.381 . S
C109 C112 1.487 . S
C110 C107 1.382 . S
C110 C111 1.387 . S
C110 H130 0.930 . S
C111 C109 1.381 . S
C111 C110 1.387 . S
C111 H131 0.931 . S
C112 C109 1.487 . S
C112 C119 1.399 . S
C112 N137 1.343 . S
C113 C114 1.384 . S
C113 C115 1.384 . S
C113 H132 0.931 . S
C114 C113 1.384 . S
C114 C117 1.382 . S
C115 C113 1.384 . S
C115 C116 1.381 . S
C115 H133 0.930 . S
C116 C115 1.381 . S
C116 C118 1.381 . S
C116 C119 1.487 . S
C117 C114 1.382 . S
C117 C118 1.387 . S
C117 H134 0.930 . S
C118 C116 1.381 . S
C118 C117 1.387 . S
C118 H135 0.931 . S
C119 C112 1.399 . S
C119 C116 1.487 . S
C119 N136 1.343 . S
H120 C92 0.931 . S
H121 C94 0.930 . S
H122 C96 0.930 . S
H123 C97 0.931 . S
H124 C99 0.931 . S
H125 C101 0.930 . S
H126 C103 0.930 . S
H127 C104 0.931 . S
H128 C106 0.931 . S
H129 C108 0.930 . S
H130 C110 0.930 . S
H131 C111 0.931 . S
H132 C113 0.931 . S
H133 C115 0.930 . S
H134 C117 0.930 . S
H135 C118 0.931 . S
N136 C98 1.343 . S
N136 C119 1.343 . S
N137 C105 1.343 . S
N137 C112 1.343 . S
C138 C139 1.384 . S
C138 C140 1.384 . S
C138 H166 0.931 . S
C139 C138 1.384 . S
C139 C142 1.382 . S
C140 C138 1.384 . S
C140 C141 1.381 . S
C140 H167 0.930 . S
C141 C140 1.381 . S
C141 C143 1.381 . S
C141 C144 1.487 . S
C142 C139 1.382 . S
C142 C143 1.387 . S
C142 H168 0.930 1_554 S
C143 C141 1.381 . S
C143 C142 1.387 . S
C143 H169 0.931 . S
C144 C141 1.487 . S
C144 C151 1.399 . S
C144 N182 1.343 1_565 S
C145 C146 1.384 . S
C145 C147 1.384 . S
C145 H170 0.931 . S
C146 C145 1.384 . S
C146 C149 1.382 . S
C147 C145 1.384 . S
C147 C148 1.381 . S
C147 H171 0.930 . S
C148 C147 1.381 . S
C148 C150 1.381 . S
C148 C151 1.487 . S
C149 C146 1.382 . S
C149 C150 1.387 . S
C149 H172 0.930 . S
C150 C148 1.381 . S
C150 C149 1.387 . S
C150 H173 0.931 . S
C151 C144 1.399 . S
C151 C148 1.487 . S
C151 N183 1.343 . S
C152 C153 1.384 . S
C152 C154 1.384 . S
C152 H174 0.931 . S
C153 C152 1.384 . S
C153 C156 1.382 . S
C154 C152 1.384 . S
C154 C155 1.381 . S
C154 H175 0.930 . S
C155 C154 1.381 . S
C155 C157 1.381 . S
C155 C158 1.487 . S
C156 C153 1.382 . S
C156 C157 1.387 . S
C156 H176 0.930 . S
C157 C155 1.381 . S
C157 C156 1.387 . S
C157 H177 0.931 . S
C158 C155 1.487 . S
C158 C165 1.399 . S
C158 N183 1.343 1_545 S
C159 C160 1.384 . S
C159 C161 1.384 . S
C159 H178 0.931 . S
C160 C159 1.384 . S
C160 C163 1.382 . S
C161 C159 1.384 . S
C161 C162 1.381 . S
C161 H179 0.930 . S
C162 C161 1.381 . S
C162 C164 1.381 . S
C162 C165 1.487 . S
C163 C160 1.382 . S
C163 C164 1.387 . S
C163 H180 0.930 1_554 S
C164 C162 1.381 . S
C164 C163 1.387 . S
C164 H181 0.931 . S
C165 C158 1.399 . S
C165 C162 1.487 . S
C165 N182 1.343 . S
H166 C138 0.931 . S
H167 C140 0.930 . S
H168 C142 0.930 1_556 S
H169 C143 0.931 . S
H170 C145 0.931 . S
H171 C147 0.930 . S
H172 C149 0.930 . S
H173 C150 0.931 . S
H174 C152 0.931 . S
H175 C154 0.930 . S
H176 C156 0.930 . S
H177 C157 0.931 . S
H178 C159 0.931 . S
H179 C161 0.930 . S
H180 C163 0.930 1_556 S
H181 C164 0.931 . S
N182 C144 1.343 1_545 S
N182 C165 1.343 . S
N183 C151 1.343 . S
N183 C158 1.343 1_565 S
C184 C185 1.384 . S
C184 C186 1.384 . S
C184 H212 0.931 . S
C185 C184 1.384 . S
C185 C188 1.382 . S
C186 C184 1.384 . S
C186 C187 1.381 . S
C186 H213 0.930 . S
C187 C186 1.381 . S
C187 C189 1.381 . S
C187 C190 1.487 . S
C188 C185 1.382 . S
C188 C189 1.387 . S
C188 H214 0.930 . S
C189 C187 1.381 . S
C189 C188 1.387 . S
C189 H215 0.931 . S
C190 C187 1.487 . S
C190 C197 1.399 . S
C190 N228 1.343 . S
C191 C192 1.384 1_556 S
C191 C193 1.384 . S
C191 H216 0.931 . S
C192 C191 1.384 1_554 S
C192 C195 1.382 . S
C193 C191 1.384 . S
C193 C194 1.381 . S
C193 H217 0.930 . S
C194 C193 1.381 . S
C194 C196 1.381 . S
C194 C197 1.487 . S
C195 C192 1.382 . S
C195 C196 1.387 1_554 S
C195 H218 0.930 . S
C196 C194 1.381 . S
C196 C195 1.387 1_556 S
C196 H219 0.931 . S
C197 C190 1.399 . S
C197 C194 1.487 . S
C197 N229 1.343 1_455 S
C198 C199 1.384 . S
C198 C200 1.384 . S
C198 H220 0.931 . S
C199 C198 1.384 . S
C199 C202 1.382 1_556 S
C200 C198 1.384 . S
C200 C201 1.381 . S
C200 H221 0.930 . S
C201 C200 1.381 . S
C201 C203 1.381 . S
C201 C204 1.487 . S
C202 C199 1.382 1_554 S
C202 C203 1.387 1_554 S
C202 H222 0.930 . S
C203 C201 1.381 . S
C203 C202 1.387 1_556 S
C203 H223 0.931 . S
C204 C201 1.487 . S
C204 C211 1.399 . S
C204 N229 1.343 . S
C205 C206 1.384 . S
C205 C207 1.384 . S
C205 H224 0.931 . S
C206 C205 1.384 . S
C206 C209 1.382 . S
C207 C205 1.384 . S
C207 C208 1.381 . S
C207 H225 0.930 . S
C208 C207 1.381 . S
C208 C210 1.381 . S
C208 C211 1.487 . S
C209 C206 1.382 . S
C209 C210 1.387 . S
C209 H226 0.930 . S
C210 C208 1.381 . S
C210 C209 1.387 . S
C210 H227 0.931 . S
C211 C204 1.399 . S
C211 C208 1.487 . S
C211 N228 1.343 1_655 S
H212 C184 0.931 . S
H213 C186 0.930 . S
H214 C188 0.930 . S
H215 C189 0.931 . S
H216 C191 0.931 . S
H217 C193 0.930 . S
H218 C195 0.930 . S
H219 C196 0.931 . S
H220 C198 0.931 . S
H221 C200 0.930 . S
H222 C202 0.930 . S
H223 C203 0.931 . S
H224 C205 0.931 . S
H225 C207 0.930 . S
H226 C209 0.930 . S
H227 C210 0.931 . S
N228 C190 1.343 . S
N228 C211 1.343 1_455 S
N229 C197 1.343 1_655 S
N229 C204 1.343 . S
C230 C231 1.384 . S
C230 C232 1.384 . S
C230 H258 0.931 . S
C231 C230 1.384 . S
C231 C234 1.382 . S
C232 C230 1.384 . S
C232 C233 1.381 . S
C232 H259 0.930 . S
C233 C232 1.381 . S
C233 C235 1.381 . S
C233 C236 1.487 . S
C234 C231 1.382 . S
C234 C235 1.387 . S
C234 H260 0.930 . S
C235 C233 1.381 . S
C235 C234 1.387 . S
C235 H261 0.931 . S
C236 C233 1.487 . S
C236 C243 1.399 . S
C236 N274 1.343 . S
C237 C238 1.384 . S
C237 C239 1.384 . S
C237 H262 0.931 . S
C238 C237 1.384 . S
C238 C241 1.382 . S
C239 C237 1.384 . S
C239 C240 1.381 . S
C239 H263 0.930 . S
C240 C239 1.381 . S
C240 C242 1.381 . S
C240 C243 1.487 . S
C241 C238 1.382 . S
C241 C242 1.387 . S
C241 H264 0.930 . S
C242 C240 1.381 . S
C242 C241 1.387 . S
C242 H265 0.931 . S
C243 C236 1.399 . S
C243 C240 1.487 . S
C243 N275 1.343 . S
C244 C245 1.384 . S
C244 C246 1.384 . S
C244 H266 0.931 . S
C245 C244 1.384 . S
C245 C248 1.382 . S
C246 C244 1.384 . S
C246 C247 1.381 . S
C246 H267 0.930 . S
C247 C246 1.381 . S
C247 C249 1.381 . S
C247 C250 1.487 . S
C248 C245 1.382 . S
C248 C249 1.387 . S
C248 H268 0.930 . S
C249 C247 1.381 . S
C249 C248 1.387 . S
C249 H269 0.931 . S
C250 C247 1.487 . S
C250 C257 1.399 . S
C250 N275 1.343 . S
C251 C252 1.384 . S
C251 C253 1.384 . S
C251 H270 0.931 . S
C252 C251 1.384 . S
C252 C255 1.382 . S
C253 C251 1.384 . S
C253 C254 1.381 . S
C253 H271 0.930 . S
C254 C253 1.381 . S
C254 C256 1.381 . S
C254 C257 1.487 . S
C255 C252 1.382 . S
C255 C256 1.387 . S
C255 H272 0.930 . S
C256 C254 1.381 . S
C256 C255 1.387 . S
C256 H273 0.931 . S
C257 C250 1.399 . S
C257 C254 1.487 . S
C257 N274 1.343 . S
H258 C230 0.931 . S
H259 C232 0.930 . S
H260 C234 0.930 . S
H261 C235 0.931 . S
H262 C237 0.931 . S
H263 C239 0.930 . S
H264 C241 0.930 . S
H265 C242 0.931 . S
H266 C244 0.931 . S
H267 C246 0.930 . S
H268 C248 0.930 . S
H269 C249 0.931 . S
H270 C251 0.931 . S
H271 C253 0.930 . S
H272 C255 0.930 . S
H273 C256 0.931 . S
N274 C236 1.343 . S
N274 C257 1.343 . S
N275 C243 1.343 . S
N275 C250 1.343 . S
C276 C277 1.384 . S
C276 C278 1.384 . S
C276 H304 0.931 . S
C277 C276 1.384 . S
C277 C280 1.382 . S
C278 C276 1.384 . S
C278 C279 1.381 . S
C278 H305 0.930 . S
C279 C278 1.381 . S
C279 C281 1.381 . S
C279 C282 1.487 . S
C280 C277 1.382 . S
C280 C281 1.387 . S
C280 H306 0.930 . S
C281 C279 1.381 . S
C281 C280 1.387 . S
C281 H307 0.931 1_565 S
C282 C279 1.487 . S
C282 C289 1.399 . S
C282 N320 1.343 1_565 S
C283 C284 1.384 . S
C283 C285 1.384 . S
C283 H308 0.931 . S
C284 C283 1.384 . S
C284 C287 1.382 . S
C285 C283 1.384 . S
C285 C286 1.381 . S
C285 H309 0.930 . S
C286 C285 1.381 . S
C286 C288 1.381 . S
C286 C289 1.487 . S
C287 C284 1.382 . S
C287 C288 1.387 . S
C287 H310 0.930 . S
C288 C286 1.381 . S
C288 C287 1.387 . S
C288 H311 0.931 . S
C289 C282 1.399 . S
C289 C286 1.487 . S
C289 N321 1.343 1_565 S
C290 C291 1.384 . S
C290 C292 1.384 . S
C290 H312 0.931 . S
C291 C290 1.384 . S
C291 C294 1.382 . S
C292 C290 1.384 . S
C292 C293 1.381 . S
C292 H313 0.930 . S
C293 C292 1.381 . S
C293 C295 1.381 . S
C293 C296 1.487 . S
C294 C291 1.382 . S
C294 C295 1.387 . S
C294 H314 0.930 . S
C295 C293 1.381 . S
C295 C294 1.387 . S
C295 H315 0.931 . S
C296 C293 1.487 . S
C296 C303 1.399 . S
C296 N321 1.343 . S
C297 C298 1.384 . S
C297 C299 1.384 . S
C297 H316 0.931 . S
C298 C297 1.384 . S
C298 C301 1.382 . S
C299 C297 1.384 . S
C299 C300 1.381 . S
C299 H317 0.930 . S
C300 C299 1.381 . S
C300 C302 1.381 . S
C300 C303 1.487 . S
C301 C298 1.382 . S
C301 C302 1.387 . S
C301 H318 0.930 . S
C302 C300 1.381 . S
C302 C301 1.387 . S
C302 H319 0.931 . S
C303 C296 1.399 . S
C303 C300 1.487 . S
C303 N320 1.343 . S
H304 C276 0.931 . S
H305 C278 0.930 . S
H306 C280 0.930 . S
H307 C281 0.931 1_545 S
H308 C283 0.931 . S
H309 C285 0.930 . S
H310 C287 0.930 . S
H311 C288 0.931 . S
H312 C290 0.931 . S
H313 C292 0.930 . S
H314 C294 0.930 . S
H315 C295 0.931 . S
H316 C297 0.931 . S
H317 C299 0.930 . S
H318 C301 0.930 . S
H319 C302 0.931 . S
N320 C282 1.343 1_545 S
N320 C303 1.343 . S
N321 C289 1.343 1_545 S
N321 C296 1.343 . S
C322 C323 1.384 . S
C322 C324 1.384 . S
C322 H350 0.931 . S
C323 C322 1.384 . S
C323 C326 1.382 . S
C324 C322 1.384 . S
C324 C325 1.381 . S
C324 H351 0.930 . S
C325 C324 1.381 . S
C325 C327 1.381 . S
C325 C328 1.487 1_565 S
C326 C323 1.382 . S
C326 C327 1.387 . S
C326 H352 0.930 . S
C327 C325 1.381 . S
C327 C326 1.387 . S
C327 H353 0.931 . S
C328 C325 1.487 1_545 S
C328 C335 1.399 . S
C328 N366 1.343 . S
C329 C330 1.384 . S
C329 C331 1.384 . S
C329 H354 0.931 . S
C330 C329 1.384 . S
C330 C333 1.382 . S
C331 C329 1.384 . S
C331 C332 1.381 . S
C331 H355 0.930 . S
C332 C331 1.381 . S
C332 C334 1.386 . S
C332 C335 1.487 1_565 S
C333 C330 1.382 . S
C333 C334 1.397 . S
C333 H356 0.930 . S
C334 C332 1.386 . S
C334 C333 1.397 . S
C334 H357 0.916 1_565 S
C335 C328 1.399 . S
C335 C332 1.487 1_545 S
C335 N367 1.343 . S
C336 C337 1.384 . S
C336 C338 1.384 . S
C336 H358 0.931 . S
C337 C336 1.384 . S
C337 C340 1.382 . S
C338 C336 1.384 . S
C338 C339 1.381 . S
C338 H359 0.930 . S
C339 C338 1.381 . S
C339 C341 1.381 1_655 S
C339 C342 1.487 1_655 S
C340 C337 1.382 . S
C340 C341 1.387 1_655 S
C340 H360 0.930 . S
C341 C339 1.381 1_455 S
C341 C340 1.387 1_455 S
C341 H361 0.931 . S
C342 C339 1.487 1_455 S
C342 C349 1.399 . S
C342 N367 1.343 . S
C343 C344 1.384 . S
C343 C345 1.384 . S
C343 H362 0.931 . S
C344 C343 1.384 . S
C344 C347 1.382 . S
C345 C343 1.384 . S
C345 C346 1.381 . S
C345 H363 0.930 1_655 S
C346 C345 1.381 . S
C346 C348 1.381 . S
C346 C349 1.487 1_655 S
C347 C344 1.382 . S
C347 C348 1.387 . S
C347 H364 0.930 . S
C348 C346 1.381 . S
C348 C347 1.387 . S
C348 H365 0.931 . S
C349 C342 1.399 . S
C349 C346 1.487 1_455 S
C349 N366 1.343 . S
H350 C322 0.931 . S
H351 C324 0.930 . S
H352 C326 0.930 . S
H353 C327 0.931 . S
H354 C329 0.931 . S
H355 C331 0.930 . S
H356 C333 0.930 . S
H357 C334 0.916 1_545 S
H358 C336 0.931 . S
H359 C338 0.930 . S
H360 C340 0.930 . S
H361 C341 0.931 . S
H362 C343 0.931 . S
H363 C345 0.930 1_455 S
H364 C347 0.930 . S
H365 C348 0.931 . S
N366 C328 1.343 . S
N366 C349 1.343 . S
N367 C335 1.343 . S
N367 C342 1.343 . S
C368 O369 1.306 . S
C368 O371 1.160 . S
O369 C368 1.306 . S
O369 Cd370 2.228 . S
Cd370 O369 2.228 . S
Cd370 O374 2.273 1_554 S
Cd370 O378 2.277 . S
O371 C368 1.160 . S
O371 Cd372 2.203 . S
Cd372 O371 2.203 . S
Cd372 O374 2.411 1_554 S
Cd372 O375 2.333 1_554 S
Cd372 O376 2.352 1_554 S
Cd372 O380 2.277 . S
Cd372 O381 2.356 1_554 S
C373 O378 1.209 . S
C373 O380 1.226 . S
O374 Cd370 2.273 1_556 S
O374 Cd372 2.411 1_556 S
O374 C377 1.320 . S
O375 Cd372 2.333 1_556 S
O375 C377 1.214 . S
O376 Cd372 2.352 1_556 S
O376 C379 1.258 . S
C377 O374 1.320 . S
C377 O375 1.214 . S
O378 Cd370 2.277 . S
O378 C373 1.209 . S
C379 O376 1.258 . S
C379 O381 1.282 . S
O380 Cd372 2.277 . S
O380 C373 1.226 . S
O381 Cd372 2.356 1_556 S
O381 C379 1.282 . S
C382 O383 1.306 . S
C382 O385 1.160 . S
O383 C382 1.306 . S
O383 Cd384 2.228 . S
Cd384 O383 2.228 . S
Cd384 O388 2.273 . S
Cd384 O392 2.277 . S
O385 C382 1.160 . S
O385 Cd386 2.203 . S
Cd386 O385 2.203 . S
Cd386 O388 2.411 . S
Cd386 O389 2.333 . S
Cd386 O390 2.352 . S
Cd386 O394 2.277 . S
Cd386 O395 2.356 . S
C387 O392 1.209 . S
C387 O394 1.226 . S
O388 Cd384 2.273 . S
O388 Cd386 2.411 . S
O388 C391 1.320 . S
O389 Cd386 2.333 . S
O389 C391 1.214 . S
O390 Cd386 2.352 . S
O390 C393 1.258 . S
C391 O388 1.320 . S
C391 O389 1.214 . S
O392 Cd384 2.277 . S
O392 C387 1.209 . S
C393 O390 1.258 . S
C393 O395 1.282 . S
O394 Cd386 2.277 . S
O394 C387 1.226 . S
O395 Cd386 2.356 . S
O395 C393 1.282 . S
C396 O397 1.306 . S
C396 O399 1.160 . S
O397 C396 1.306 . S
O397 Cd398 2.228 . S
Cd398 O397 2.228 . S
Cd398 O402 2.273 . S
Cd398 O406 2.277 . S
O399 C396 1.160 . S
O399 Cd400 2.203 . S
Cd400 O399 2.203 . S
Cd400 O402 2.411 . S
Cd400 O403 2.333 . S
Cd400 O404 2.352 . S
Cd400 O408 2.277 . S
Cd400 O409 2.356 . S
C401 O406 1.209 . S
C401 O408 1.226 . S
O402 Cd398 2.273 . S
O402 Cd400 2.411 . S
O402 C405 1.320 . S
O403 Cd400 2.333 . S
O403 C405 1.214 . S
O404 Cd400 2.352 . S
O404 C407 1.258 . S
C405 O402 1.320 . S
C405 O403 1.214 . S
O406 Cd398 2.277 . S
O406 C401 1.209 . S
C407 O404 1.258 . S
C407 O409 1.282 . S
O408 Cd400 2.277 . S
O408 C401 1.226 . S
O409 Cd400 2.356 . S
O409 C407 1.282 . S
C410 O411 1.306 . S
C410 O413 1.160 . S
O411 C410 1.306 . S
O411 Cd412 2.228 . S
Cd412 O411 2.228 . S
Cd412 O416 2.273 . S
Cd412 O420 2.277 . S
O413 C410 1.160 . S
O413 Cd414 2.203 . S
Cd414 O413 2.203 . S
Cd414 O416 2.411 . S
Cd414 O417 2.333 . S
Cd414 O418 2.352 . S
Cd414 O422 2.277 . S
Cd414 O423 2.356 . S
C415 O420 1.209 . S
C415 O422 1.226 . S
O416 Cd412 2.273 . S
O416 Cd414 2.411 . S
O416 C419 1.320 . S
O417 Cd414 2.333 . S
O417 C419 1.214 . S
O418 Cd414 2.352 . S
O418 C421 1.258 . S
C419 O416 1.320 . S
C419 O417 1.214 . S
O420 Cd412 2.277 . S
O420 C415 1.209 . S
C421 O418 1.258 . S
C421 O423 1.282 . S
O422 Cd414 2.277 . S
O422 C415 1.226 . S
O423 Cd414 2.356 . S
O423 C421 1.282 . S
C424 O425 1.306 . S
C424 O427 1.160 . S
O425 C424 1.306 . S
O425 Cd426 2.228 . S
Cd426 O425 2.228 . S
Cd426 O430 2.273 . S
Cd426 O434 2.277 . S
O427 C424 1.160 . S
O427 Cd428 2.203 . S
Cd428 O427 2.203 . S
Cd428 O430 2.411 . S
Cd428 O431 2.333 . S
Cd428 O432 2.352 . S
Cd428 O436 2.277 . S
Cd428 O437 2.356 . S
C429 O434 1.209 . S
C429 O436 1.226 . S
O430 Cd426 2.273 . S
O430 Cd428 2.411 . S
O430 C433 1.320 . S
O431 Cd428 2.333 . S
O431 C433 1.214 . S
O432 Cd428 2.352 . S
O432 C435 1.258 . S
C433 O430 1.320 . S
C433 O431 1.214 . S
O434 Cd426 2.277 . S
O434 C429 1.209 . S
C435 O432 1.258 . S
C435 O437 1.282 . S
O436 Cd428 2.277 . S
O436 C429 1.226 . S
O437 Cd428 2.356 . S
O437 C435 1.282 . S
C438 O439 1.306 . S
C438 O441 1.160 . S
O439 C438 1.306 . S
O439 Cd440 2.228 . S
Cd440 O439 2.228 . S
Cd440 O444 2.273 . S
Cd440 O448 2.277 . S
O441 C438 1.160 . S
O441 Cd442 2.203 . S
Cd442 O441 2.203 . S
Cd442 O444 2.411 . S
Cd442 O445 2.333 . S
Cd442 O446 2.352 . S
Cd442 O450 2.277 . S
Cd442 O451 2.356 . S
C443 O448 1.209 . S
C443 O450 1.226 . S
O444 Cd440 2.273 . S
O444 Cd442 2.411 . S
O444 C447 1.320 . S
O445 Cd442 2.333 . S
O445 C447 1.214 . S
O446 Cd442 2.352 . S
O446 C449 1.258 . S
C447 O444 1.320 . S
C447 O445 1.214 . S
O448 Cd440 2.277 . S
O448 C443 1.209 . S
C449 O446 1.258 . S
C449 O451 1.282 . S
O450 Cd442 2.277 . S
O450 C443 1.226 . S
O451 Cd442 2.356 . S
O451 C449 1.282 . S
C452 O453 1.306 . S
C452 O455 1.160 . S
O453 C452 1.306 . S
O453 Cd454 2.228 . S
Cd454 O453 2.228 . S
Cd454 O458 2.273 1_556 S
Cd454 O462 2.277 . S
O455 C452 1.160 . S
O455 Cd456 2.203 1_556 S
Cd456 O455 2.203 1_554 S
Cd456 O458 2.411 . S
Cd456 O459 2.333 . S
Cd456 O460 2.352 . S
Cd456 O464 2.277 1_554 S
Cd456 O465 2.356 . S
C457 O462 1.209 . S
C457 O464 1.226 . S
O458 Cd454 2.273 1_554 S
O458 Cd456 2.411 . S
O458 C461 1.320 . S
O459 Cd456 2.333 . S
O459 C461 1.214 . S
O460 Cd456 2.352 . S
O460 C463 1.258 . S
C461 O458 1.320 . S
C461 O459 1.214 . S
O462 Cd454 2.277 . S
O462 C457 1.209 . S
C463 O460 1.258 . S
C463 O465 1.282 . S
O464 Cd456 2.277 1_556 S
O464 C457 1.226 . S
O465 Cd456 2.356 . S
O465 C463 1.282 . S
C466 O467 1.306 . S
C466 O469 1.160 . S
O467 C466 1.306 . S
O467 Cd468 2.228 . S
Cd468 O467 2.228 . S
Cd468 O472 2.273 . S
Cd468 O476 2.277 . S
O469 C466 1.160 . S
O469 Cd470 2.203 . S
Cd470 O469 2.203 . S
Cd470 O472 2.411 . S
Cd470 O473 2.333 . S
Cd470 O474 2.352 . S
Cd470 O478 2.277 . S
Cd470 O479 2.356 . S
C471 O476 1.209 . S
C471 O478 1.226 . S
O472 Cd468 2.273 . S
O472 Cd470 2.411 . S
O472 C475 1.320 . S
O473 Cd470 2.333 . S
O473 C475 1.214 . S
O474 Cd470 2.352 . S
O474 C477 1.258 . S
C475 O472 1.320 . S
C475 O473 1.214 . S
O476 Cd468 2.277 . S
O476 C471 1.209 . S
C477 O474 1.258 . S
C477 O479 1.282 . S
O478 Cd470 2.277 . S
O478 C471 1.226 . S
O479 Cd470 2.356 . S
O479 C477 1.282 . S
C393 C8 1.745 . S
C407 C61 1.681 . S
C415 C107 1.720 . S
C139 C373 1.720 . S
C192 C379 1.650 1_554 S
C238 C387 1.625 . S
C401 C284 1.817 . S
C421 C330 1.713 . S
C100 C449 1.666 . S
C463 C160 1.768 . S
C15 C471 1.656 . S
C435 C54 1.584 . S
C291 C429 1.739 . S
C337 C443 1.710 . S
C457 C199 1.694 . S
C245 C477 1.747 . S
C396 C1 2.042 . S
C419 C68 2.125 . S
C114 C377 2.232 . S
C146 C382 2.226 . S
C185 C410 1.852 . S
C368 C231 1.943 . S
C391 C277 1.977 . S
C405 C323 1.938 . S
C452 C93 1.844 . S
C475 C153 1.882 . S
C22 C424 1.871 . S
C438 C47 1.859 . S
C466 C298 2.143 . S
C344 C433 2.297 . S
C447 C206 2.230 . S
C461 C252 2.095 . S
