# Generated by pormake.
# Topology pth, (4,4)-cn, num edge types: 1
# Building blocks:
#     Node 0, Type 0, BuildingBlock: TATPOV_clean_sbu_0, # of connection points: 4
#     Node 1, Type 0, BuildingBlock: TATPOV_clean_sbu_0, # of connection points: 4
#     Node 2, Type 0, BuildingBlock: TATPOV_clean_sbu_0, # of connection points: 4
#     Node 3, Type 1, BuildingBlock: NAHDIM_clean_linker_0, # of connection points: 4
#     Node 4, Type 1, BuildingBlock: NAHDIM_clean_linker_0, # of connection points: 4
#     Node 5, Type 1, BuildingBlock: NAHDIM_clean_linker_0, # of connection points: 4
#     Edge 6, Type (0, 1), None
#     Edge 7, Type (0, 1), None
#     Edge 8, Type (0, 1), None
#     Edge 9, Type (0, 1), None
#     Edge 10, Type (0, 1), None
#     Edge 11, Type (0, 1), None
#     Edge 12, Type (0, 1), None
#     Edge 13, Type (0, 1), None
#     Edge 14, Type (0, 1), None
#     Edge 15, Type (0, 1), None
#     Edge 16, Type (0, 1), None
#     Edge 17, Type (0, 1), None
# Relax obj value: 0.054
# Max RMSD: 0.175
# Mean RMSD: 0.111
data_MOF--net-pth--node1-TATPOV_clean_sbu_0--node2-NAHDIM_clean_linker_0--edge1-none
_symmetry_space_group_name_H-M    P1
_symmetry_Int_Tables_number       1
_symmetry_cell_setting            triclinic
loop_
_symmetry_equiv_pos_as_xyz
'x, y, z'
_cell_length_a     19.270208
_cell_length_b     18.945085
_cell_length_c     47.429694
_cell_angle_alpha  92.156731
_cell_angle_beta   93.147066
_cell_angle_gamma 121.31814
loop_
_atom_site_label
_atom_site_type_symbol
_atom_site_fract_x
_atom_site_fract_y
_atom_site_fract_z
_atom_type_partial_charge
Zn0 Zn 0.21511 0.13472 0.05288 0.0
Zn1 Zn 0.07457 0.12184 0.06934 0.0
O2 O 0.10041 0.05648 0.09771 0.0
O3 O 0.2171 0.07266 0.08643 0.0
O4 O 0.96853 0.11026 0.08002 0.0
O5 O 0.2677 0.2594 0.05727 0.0
O6 O 0.15489 0.24747 0.07115 0.0
C7 C 0.15874 0.04378 0.10215 0.0
C8 C 0.08059 0.05475 0.00987 0.0
O9 O 0.04355 0.06922 0.02852 0.0
O10 O 0.15341 0.07295 0.01541 0.0
C11 C 0.94617 0.13592 0.10087 0.0
O12 O 0.86974 0.11575 0.10014 0.0
C13 C 0.22887 0.29241 0.06558 0.0
Zn14 Zn 0.10546 0.05205 0.37346 0.0
Zn15 Zn 0.05903 0.07143 0.42555 0.0
O16 O 0.15508 0.05781 0.435 0.0
O17 O 0.19721 0.04343 0.39411 0.0
O18 O 0.03514 0.09633 0.46407 0.0
O19 O 0.1203 0.1637 0.36402 0.0
O20 O 0.08007 0.17376 0.40576 0.0
C21 C 0.20318 0.04639 0.42096 0.0
C22 C 0.94354 0.91863 0.38612 0.0
O23 O 0.96031 0.961 0.40972 0.0
O24 O 0.99316 0.94496 0.36708 0.0
C25 C 0.02167 0.04906 0.484 0.0
O26 O 0.02048 0.97965 0.47931 0.0
C27 C 0.10293 0.20232 0.38194 0.0
Zn28 Zn 0.01591 0.87494 0.74281 0.0
Zn29 Zn 0.00757 0.00106 0.71841 0.0
O30 O 0.04824 0.95654 0.68741 0.0
O31 O 0.05546 0.85535 0.70614 0.0
O32 O 0.00348 0.09405 0.69998 0.0
O33 O 0.895 0.8186 0.74761 0.0
O34 O 0.89096 0.92029 0.72809 0.0
C35 C 0.06476 0.89961 0.68563 0.0
C36 C 0.12242 0.03662 0.77193 0.0
O37 O 0.09326 0.05999 0.75216 0.0
O38 O 0.09947 0.96085 0.77291 0.0
C39 C 0.96475 0.13009 0.7053 0.0
O40 O 0.97581 0.19128 0.69017 0.0
C41 C 0.85519 0.85119 0.73919 0.0
C42 C 0.79315 0.83485 0.38997 0.0
C43 C 0.86817 0.83296 0.38217 0.0
C44 C 0.88069 0.75002 0.34406 0.0
C45 C 0.95609 0.76041 0.35349 0.0
C46 C 0.9848 0.71394 0.34018 0.0
C47 C 0.93523 0.65299 0.3179 0.0
C48 C 0.85683 0.63904 0.30973 0.0
C49 C 0.83208 0.68971 0.32226 0.0
C50 C 0.06895 0.73183 0.3495 0.0
C51 C 0.79892 0.57141 0.28748 0.0
C52 C 0.20718 0.35175 0.38148 0.0
C53 C 0.11613 0.28591 0.37635 0.0
C54 C 0.06475 0.33734 0.33994 0.0
C55 C 0.98225 0.31145 0.3356 0.0
C56 C 0.95814 0.36367 0.32411 0.0
C57 C 0.01828 0.44339 0.31688 0.0
C58 C 0.10191 0.47024 0.32195 0.0
C59 C 0.12401 0.41623 0.33291 0.0
C60 C 0.86864 0.33255 0.31859 0.0
C61 C 0.16814 0.55489 0.31473 0.0
C62 C 0.03994 0.33025 0.13472 0.0
C63 C 0.96356 0.32008 0.13821 0.0
C64 C 0.9574 0.3815 0.15328 0.0
C65 C 0.0292 0.45437 0.16504 0.0
C66 C 0.10637 0.46567 0.16086 0.0
C67 C 0.11066 0.40329 0.14567 0.0
C68 C 0.87423 0.36805 0.15706 0.0
C69 C 0.1841 0.54267 0.17306 0.0
C70 C 0.18616 0.05958 0.15449 0.0
C71 C 0.16305 0.00129 0.12771 0.0
C72 C 0.07461 0.86213 0.1437 0.0
C73 C 0.99483 0.79388 0.14237 0.0
C74 C 0.97626 0.72269 0.15631 0.0
C75 C 0.03924 0.72007 0.17205 0.0
C76 C 0.12 0.78901 0.1737 0.0
C77 C 0.1369 0.85917 0.15954 0.0
C78 C 0.88957 0.65013 0.15416 0.0
C79 C 0.18879 0.78826 0.19028 0.0
C80 C 0.96568 0.60616 0.30214 0.0
C81 C 0.97482 0.54663 0.3158 0.0
C82 C 0.99506 0.49536 0.30094 0.0
C83 C 0.99991 0.49883 0.27134 0.0
C84 C 0.01028 0.44166 0.25518 0.0
C85 C 0.01635 0.44634 0.22616 0.0
C86 C 0.01496 0.50998 0.21231 0.0
C87 C 0.02332 0.51664 0.18294 0.0
C88 C 0.02764 0.58398 0.17023 0.0
C89 C 0.0222 0.64451 0.18601 0.0
C90 C 0.00817 0.63583 0.215 0.0
C91 C 0.9979 0.693 0.23117 0.0
C92 C 0.98396 0.68353 0.25969 0.0
C93 C 0.98151 0.61755 0.27328 0.0
C94 C 0.99537 0.56156 0.25763 0.0
C95 C 0.00573 0.5689 0.22826 0.0
C96 C 0.06238 0.16082 0.13562 0.0
C97 C 0.00285 0.18732 0.12646 0.0
O98 O 0.8541 0.7988 0.35457 0.0
O99 O 0.08853 0.92898 0.12952 0.0
O100 O 0.04682 0.2702 0.1211 0.0
O101 O 0.08651 0.28376 0.34883 0.0
H102 H 0.87588 0.79303 0.3971 0.0
H103 H 0.73822 0.77138 0.38682 0.0
H104 H 0.78335 0.87601 0.3764 0.0
H105 H 0.80038 0.85723 0.41256 0.0
H106 H 0.99402 0.8067 0.37051 0.0
H107 H 0.77366 0.68159 0.31529 0.0
H108 H 0.06355 0.68039 0.36157 0.0
H109 H 0.10491 0.79035 0.36331 0.0
H110 H 0.10303 0.73616 0.33086 0.0
H111 H 0.73464 0.55274 0.28983 0.0
H112 H 0.8039 0.51575 0.28859 0.0
H113 H 0.81381 0.59443 0.26616 0.0
H114 H 0.08237 0.3007 0.39149 0.0
H115 H 0.23241 0.34632 0.40238 0.0
H116 H 0.21655 0.41473 0.38186 0.0
H117 H 0.2415 0.34479 0.36462 0.0
H118 H 0.93684 0.24964 0.34069 0.0
H119 H 0.18761 0.43484 0.33527 0.0
H120 H 0.85353 0.33164 0.2956 0.0
H121 H 0.85442 0.37537 0.32985 0.0
H122 H 0.82936 0.26928 0.32559 0.0
H123 H 0.22914 0.57166 0.3244 0.0
H124 H 0.1551 0.6029 0.32203 0.0
H125 H 0.17023 0.5556 0.2914 0.0
H126 H 0.96485 0.17806 0.14449 0.0
H127 H 0.90888 0.26402 0.12925 0.0
H128 H 0.16927 0.41009 0.1432 0.0
H129 H 0.86372 0.36427 0.17988 0.0
H130 H 0.82457 0.31039 0.14518 0.0
H131 H 0.8712 0.42154 0.14982 0.0
H132 H 0.2393 0.54191 0.16795 0.0
H133 H 0.1841 0.54881 0.19643 0.0
H134 H 0.1875 0.59817 0.16463 0.0
H135 H 0.21139 0.98673 0.12499 0.0
H136 H 0.24413 0.11896 0.15251 0.0
H137 H 0.1949 0.03125 0.17334 0.0
H138 H 0.13742 0.07267 0.15814 0.0
H139 H 0.94702 0.79645 0.1302 0.0
H140 H 0.19904 0.91105 0.16104 0.0
H141 H 0.86915 0.63436 0.1757 0.0
H142 H 0.88649 0.59507 0.14365 0.0
H143 H 0.84691 0.66294 0.14197 0.0
H144 H 0.24844 0.84665 0.18938 0.0
H145 H 0.19374 0.73571 0.18186 0.0
H146 H 0.17568 0.77895 0.2128 0.0
H147 H 0.96659 0.54038 0.33819 0.0
H148 H 0.01266 0.39187 0.26474 0.0
H149 H 0.02353 0.40017 0.21481 0.0
H150 H 0.03739 0.59044 0.14792 0.0
H151 H 0.99949 0.74506 0.22184 0.0
H152 H 0.97614 0.72922 0.27105 0.0
H153 H 0.11053 0.18078 0.12077 0.0
H154 H 0.02952 0.09263 0.13697 0.0
H155 H 0.09277 0.19115 0.15691 0.0
C156 C 0.03761 0.85525 0.63408 0.0
C157 C 0.10048 0.888 0.65977 0.0
C158 C 0.24047 0.9799 0.6465 0.0
C159 C 0.30491 0.06238 0.64861 0.0
C160 C 0.38259 0.0839 0.6411 0.0
C161 C 0.39617 0.02098 0.63132 0.0
C162 C 0.33095 0.93736 0.62864 0.0
C163 C 0.25347 0.91768 0.63593 0.0
C164 C 0.45022 0.17387 0.64371 0.0
C165 C 0.34321 0.86882 0.61803 0.0
C166 C 0.95799 0.13566 0.75753 0.0
C167 C 0.90836 0.10556 0.72876 0.0
C168 C 0.79786 0.11951 0.70662 0.0
C169 C 0.75841 0.04449 0.68954 0.0
C170 C 0.69494 0.02637 0.66896 0.0
C171 C 0.67308 0.08611 0.66444 0.0
C172 C 0.71174 0.16097 0.682 0.0
C173 C 0.77261 0.17587 0.70317 0.0
C174 C 0.65282 0.94417 0.65159 0.0
C175 C 0.69008 0.22616 0.6781 0.0
C176 C 0.93019 0.13349 0.51401 0.0
C177 C 0.85683 0.05619 0.51021 0.0
C178 C 0.78189 0.04999 0.5133 0.0
C179 C 0.78018 0.12259 0.51977 0.0
C180 C 0.85333 0.20089 0.52173 0.0
C181 C 0.92753 0.20522 0.51888 0.0
C182 C 0.70473 0.96551 0.51063 0.0
C183 C 0.85341 0.27954 0.52807 0.0
C184 C 0.21872 0.92749 0.43016 0.0
C185 C 0.25601 0.021 0.43636 0.0
C186 C 0.39895 0.0771 0.4457 0.0
C187 C 0.41875 0.01592 0.44675 0.0
C188 C 0.476 0.02181 0.46779 0.0
C189 C 0.51641 0.09228 0.48751 0.0
C190 C 0.50106 0.15742 0.48495 0.0
C191 C 0.44133 0.14833 0.46428 0.0
C192 C 0.49127 0.95151 0.46938 0.0
C193 C 0.54569 0.23546 0.50455 0.0
C194 C 0.47858 0.04278 0.62384 0.0
C195 C 0.53521 0.05165 0.64563 0.0
C196 C 0.61425 0.07325 0.64018 0.0
C197 C 0.63732 0.08521 0.61211 0.0
C198 C 0.71598 0.10628 0.60576 0.0
C199 C 0.73731 0.11523 0.57805 0.0
C200 C 0.68198 0.10679 0.55564 0.0
C201 C 0.70315 0.11531 0.52737 0.0
C202 C 0.64881 0.11173 0.50578 0.0
C203 C 0.57173 0.09612 0.51147 0.0
C204 C 0.5476 0.08227 0.53944 0.0
C205 C 0.46885 0.06118 0.54575 0.0
C206 C 0.44611 0.04835 0.57334 0.0
C207 C 0.50104 0.05567 0.59572 0.0
C208 C 0.58053 0.07645 0.58984 0.0
C209 C 0.60348 0.08888 0.56164 0.0
C210 C 0.10595 0.11406 0.52948 0.0
C211 C 0.02193 0.07943 0.51374 0.0
O212 O 0.16732 0.96392 0.65464 0.0
O213 O 0.33482 0.06459 0.42827 0.0
O214 O 0.00456 0.14185 0.51346 0.0
O215 O 0.86085 0.14073 0.72638 0.0
H216 H 0.11808 0.84181 0.66404 0.0
H217 H 0.06435 0.84551 0.61526 0.0
H218 H 0.01854 0.90005 0.62936 0.0
H219 H 0.98306 0.79496 0.63806 0.0
H220 H 0.29417 0.1101 0.65642 0.0
H221 H 0.20368 0.85383 0.63307 0.0
H222 H 0.49843 0.18339 0.66003 0.0
H223 H 0.42836 0.21581 0.64971 0.0
H224 H 0.47841 0.19135 0.62333 0.0
H225 H 0.28759 0.80647 0.6186 0.0
H226 H 0.39413 0.87114 0.63106 0.0
H227 H 0.36024 0.87779 0.59589 0.0
H228 H 0.86938 0.03731 0.72851 0.0
H229 H 0.99292 0.10478 0.761 0.0
H230 H 0.91641 0.12017 0.77467 0.0
H231 H 0.00094 0.20391 0.759 0.0
H232 H 0.77669 0.99981 0.69202 0.0
H233 H 0.80288 0.23324 0.71659 0.0
H234 H 0.58612 0.91834 0.64841 0.0
H235 H 0.66337 0.89823 0.66174 0.0
H236 H 0.67676 0.95315 0.63043 0.0
H237 H 0.73219 0.28466 0.69127 0.0
H238 H 0.62725 0.20229 0.68414 0.0
H239 H 0.6913 0.2401 0.65553 0.0
H240 H 0.97755 0.02701 0.52545 0.0
H241 H 0.85751 0.00037 0.50525 0.0
H242 H 0.98428 0.26473 0.52126 0.0
H243 H 0.67663 0.95287 0.5311 0.0
H244 H 0.71593 0.91526 0.50462 0.0
H245 H 0.66012 0.96411 0.49445 0.0
H246 H 0.91398 0.33586 0.52609 0.0
H247 H 0.83645 0.28112 0.54998 0.0
H248 H 0.80717 0.28098 0.51346 0.0
H249 H 0.25612 0.03336 0.45957 0.0
H250 H 0.15303 0.89287 0.43398 0.0
H251 H 0.24944 0.90504 0.44446 0.0
H252 H 0.22485 0.91312 0.40783 0.0
H253 H 0.38693 0.96197 0.43174 0.0
H254 H 0.42595 0.19568 0.46303 0.0
H255 H 0.4888 0.93304 0.49142 0.0
H256 H 0.55316 0.97237 0.46293 0.0
H257 H 0.44637 0.89629 0.45526 0.0
H258 H 0.53979 0.28619 0.49611 0.0
H259 H 0.61142 0.25691 0.50801 0.0
H260 H 0.51992 0.22258 0.52541 0.0
H261 H 0.51777 0.04238 0.66717 0.0
H262 H 0.7619 0.11514 0.62207 0.0
H263 H 0.79827 0.12983 0.57452 0.0
H264 H 0.66618 0.11976 0.48422 0.0
H265 H 0.42368 0.05403 0.52943 0.0
H266 H 0.38479 0.03256 0.5769 0.0
H267 H 0.12128 0.06513 0.53052 0.0
H268 H 0.10611 0.13648 0.55148 0.0
H269 H 0.15361 0.16672 0.51873 0.0
C270 C 0.71519 0.80231 0.717 0.0
C271 C 0.76649 0.81095 0.74418 0.0
C272 C 0.69096 0.69831 0.77498 0.0
C273 C 0.63943 0.72419 0.78466 0.0
C274 C 0.59098 0.68654 0.80696 0.0
C275 C 0.5941 0.62184 0.81971 0.0
C276 C 0.64484 0.59477 0.80966 0.0
C277 C 0.6922 0.63313 0.78727 0.0
C278 C 0.5362 0.71556 0.81689 0.0
C279 C 0.64916 0.52547 0.82264 0.0
C280 C 0.27039 0.13654 0.77514 0.0
C281 C 0.19359 0.10024 0.79145 0.0
C282 C 0.22974 0.22917 0.8188 0.0
C283 C 0.29316 0.23418 0.8366 0.0
C284 C 0.35299 0.30961 0.85101 0.0
C285 C 0.34701 0.38065 0.84867 0.0
C286 C 0.27832 0.37338 0.83322 0.0
C287 C 0.22063 0.2976 0.81837 0.0
C288 C 0.4253 0.31424 0.86712 0.0
C289 C 0.26837 0.44689 0.83098 0.0
C290 C 0.39354 0.45916 0.0429 0.0
C291 C 0.45249 0.44319 0.03432 0.0
C292 C 0.49642 0.48008 0.01107 0.0
C293 C 0.48243 0.53626 0.99668 0.0
C294 C 0.42439 0.55454 0.00584 0.0
C295 C 0.38016 0.51539 0.02883 0.0
C296 C 0.55791 0.45918 0.00198 0.0
C297 C 0.40996 0.61624 0.99159 0.0
C298 C 0.09364 0.03564 0.95811 0.0
C299 C 0.0358 0.01189 0.98166 0.0
C300 C 0.91453 0.87099 0.97887 0.0
C301 C 0.88999 0.78888 0.97132 0.0
C302 C 0.80741 0.7279 0.96523 0.0
C303 C 0.74786 0.75002 0.96664 0.0
C304 C 0.77181 0.8323 0.97544 0.0
C305 C 0.85495 0.8919 0.98182 0.0
C306 C 0.78402 0.64008 0.95686 0.0
C307 C 0.70958 0.85733 0.97775 0.0
C308 C 0.54344 0.58136 0.8433 0.0
C309 C 0.46797 0.50877 0.83663 0.0
C310 C 0.41895 0.4639 0.85778 0.0
C311 C 0.44437 0.49408 0.88652 0.0
C312 C 0.39528 0.45273 0.90831 0.0
C313 C 0.42292 0.4808 0.93663 0.0
C314 C 0.50086 0.55104 0.94416 0.0
C315 C 0.53105 0.57845 0.97284 0.0
C316 C 0.61061 0.64545 0.97949 0.0
C317 C 0.66093 0.687 0.95825 0.0
C318 C 0.63041 0.66359 0.92951 0.0
C319 C 0.67827 0.70681 0.90767 0.0
C320 C 0.64927 0.68105 0.87941 0.0
C321 C 0.57173 0.61047 0.87193 0.0
C322 C 0.52182 0.56682 0.8936 0.0
C323 C 0.55069 0.59434 0.92244 0.0
C324 C 0.25325 0.41912 0.09376 0.0
C325 C 0.26899 0.38515 0.06677 0.0
O326 O 0.73941 0.73321 0.75366 0.0
O327 O 0.99587 0.92702 0.98351 0.0
O328 O 0.3522 0.42113 0.06531 0.0
O329 O 0.17918 0.1615 0.80073 0.0
H330 H 0.76224 0.85217 0.76041 0.0
H331 H 0.64986 0.77137 0.72104 0.0
H332 H 0.72182 0.76463 0.70005 0.0
H333 H 0.73425 0.86423 0.70959 0.0
H334 H 0.63585 0.77278 0.7747 0.0
H335 H 0.73146 0.61304 0.77943 0.0
H336 H 0.47206 0.66268 0.81514 0.0
H337 H 0.53961 0.7657 0.80449 0.0
H338 H 0.55357 0.73867 0.83956 0.0
H339 H 0.69408 0.51391 0.81311 0.0
H340 H 0.58826 0.46755 0.81969 0.0
H341 H 0.66616 0.54057 0.84578 0.0
H342 H 0.20049 0.069 0.80985 0.0
H343 H 0.26595 0.1716 0.75757 0.0
H344 H 0.3262 0.17891 0.78917 0.0
H345 H 0.27794 0.08611 0.76615 0.0
H346 H 0.29871 0.18049 0.8382 0.0
H347 H 0.17036 0.29276 0.80518 0.0
H348 H 0.42514 0.32825 0.89002 0.0
H349 H 0.48313 0.36481 0.85991 0.0
H350 H 0.42458 0.25534 0.86447 0.0
H351 H 0.20465 0.42761 0.82385 0.0
H352 H 0.30895 0.48755 0.81538 0.0
H353 H 0.28618 0.48382 0.8517 0.0
H354 H 0.24045 0.39933 0.04858 0.0
H355 H 0.46294 0.40044 0.04563 0.0
H356 H 0.33653 0.53004 0.03617 0.0
H357 H 0.54857 0.443 0.97877 0.0
H358 H 0.55413 0.40677 0.01303 0.0
H359 H 0.6203 0.51418 0.00672 0.0
H360 H 0.36675 0.62777 0.00245 0.0
H361 H 0.38488 0.59284 0.96932 0.0
H362 H 0.46861 0.67598 0.99113 0.0
H363 H 0.99329 0.03293 0.97572 0.0
H364 H 0.13729 0.01466 0.962 0.0
H365 H 0.12822 0.10388 0.95673 0.0
H366 H 0.05788 0.00573 0.93745 0.0
H367 H 0.9362 0.77294 0.96973 0.0
H368 H 0.87241 0.95406 0.98927 0.0
H369 H 0.76096 0.62449 0.93415 0.0
H370 H 0.73424 0.59598 0.96931 0.0
H371 H 0.83636 0.63107 0.9601 0.0
H372 H 0.73823 0.92465 0.98365 0.0
H373 H 0.6678 0.82211 0.99396 0.0
H374 H 0.6721 0.84152 0.95724 0.0
H375 H 0.44861 0.48495 0.81463 0.0
H376 H 0.3352 0.39788 0.90364 0.0
H377 H 0.38295 0.44604 0.95256 0.0
H378 H 0.63444 0.66411 0.00152 0.0
H379 H 0.73885 0.76097 0.91219 0.0
H380 H 0.68897 0.71641 0.8635 0.0
H381 H 0.18709 0.39528 0.09396 0.0
H382 H 0.2862 0.48784 0.09449 0.0
H383 H 0.27456 0.40085 0.11281 0.0
loop_
_geom_bond_atom_site_label_1
_geom_bond_atom_site_label_2
_geom_bond_distance
_geom_bond_site_symmetry_2
_ccdc_geom_bond_type
Zn0 O3 2.031 . S
Zn0 O5 2.049 1_565 S
Zn0 O10 2.067 . S
Zn1 O2 1.962 . S
Zn1 O4 1.986 . S
Zn1 O6 1.996 . S
Zn1 O9 1.943 1_455 S
O2 Zn1 1.962 . S
O2 C7 1.254 1_545 S
O3 Zn0 2.031 . S
O3 C7 1.269 . S
O4 Zn1 1.986 . S
O4 C11 1.262 . S
O5 Zn0 2.049 1_545 S
O5 C13 1.260 . S
O6 Zn1 1.996 . S
O6 C13 1.257 . S
C7 O2 1.254 1_565 S
C7 O3 1.269 . S
C8 O9 1.249 1_565 S
C8 O10 1.270 1_655 S
O9 Zn1 1.943 1_655 S
O9 C8 1.249 1_545 S
O10 Zn0 2.067 . S
O10 C8 1.270 1_455 S
C11 O4 1.262 . S
C11 O12 1.232 1_455 S
O12 C11 1.232 1_655 S
C13 O5 1.260 . S
C13 O6 1.257 . S
Zn14 O17 2.031 . S
Zn14 O19 2.049 . S
Zn14 O24 2.067 . S
Zn15 O16 1.962 . S
Zn15 O18 1.986 1_455 S
Zn15 O20 1.996 . S
Zn15 O23 1.943 1_455 S
O16 Zn15 1.962 . S
O16 C21 1.254 . S
O17 Zn14 2.031 . S
O17 C21 1.269 . S
O18 Zn15 1.986 1_655 S
O18 C25 1.262 . S
O19 Zn14 2.049 . S
O19 C27 1.260 . S
O20 Zn15 1.996 . S
O20 C27 1.257 . S
C21 O16 1.254 . S
C21 O17 1.269 . S
C22 O23 1.249 1_465 S
C22 O24 1.270 1_565 S
O23 Zn15 1.943 1_655 S
O23 C22 1.249 1_645 S
O24 Zn14 2.067 . S
O24 C22 1.270 1_545 S
C25 O18 1.262 . S
C25 O26 1.232 . S
O26 C25 1.232 . S
C27 O19 1.260 . S
C27 O20 1.257 . S
Zn28 O31 2.031 1_565 S
Zn28 O33 2.049 . S
Zn28 O38 2.067 1_565 S
Zn29 O30 1.954 1_545 S
Zn29 O32 1.986 1_455 S
Zn29 O34 1.996 1_445 S
Zn29 O37 1.943 . S
O30 Zn29 1.954 1_565 S
O30 C35 1.259 1_565 S
O31 Zn28 2.031 1_545 S
O31 C35 1.269 . S
O32 Zn29 1.986 1_655 S
O32 C39 1.262 . S
O33 Zn28 2.049 . S
O33 C41 1.260 1_455 S
O34 Zn29 1.996 1_665 S
O34 C41 1.257 . S
C35 O30 1.259 1_545 S
C35 O31 1.269 . S
C36 O37 1.249 . S
C36 O38 1.270 . S
O37 Zn29 1.943 . S
O37 C36 1.249 . S
O38 Zn28 2.067 1_545 S
O38 C36 1.270 . S
C39 O32 1.262 . S
C39 O40 1.232 . S
O40 C39 1.232 . S
C41 O33 1.260 1_655 S
C41 O34 1.257 . S
C42 C43 1.560 . S
C42 H103 0.959 . S
C42 H104 0.959 . S
C42 H105 0.960 . S
C43 C42 1.560 . S
C43 O98 1.426 . S
C43 H102 0.980 1_655 S
C44 C45 1.407 1_655 S
C44 C49 1.418 . S
C44 O98 1.334 . S
C45 C44 1.407 1_455 S
C45 C46 1.360 . S
C45 H106 0.929 . S
C46 C45 1.360 . S
C46 C47 1.401 . S
C46 C50 1.527 . S
C47 C46 1.401 . S
C47 C48 1.405 1_455 S
C47 C80 1.587 . S
C48 C47 1.405 1_655 S
C48 C49 1.332 . S
C48 C51 1.496 . S
C49 C44 1.418 . S
C49 C48 1.332 . S
C49 H107 0.929 . S
C50 C46 1.527 . S
C50 H108 0.959 . S
C50 H109 0.961 . S
C50 H110 0.961 . S
C51 C48 1.496 . S
C51 H111 0.960 . S
C51 H112 0.960 . S
C51 H113 0.961 . S
C52 C53 1.517 . S
C52 H115 0.961 . S
C52 H116 0.960 . S
C52 H117 0.959 . S
C53 C52 1.517 . S
C53 O101 1.468 . S
C53 H114 0.980 . S
C54 C55 1.349 . S
C54 C59 1.367 . S
C54 O101 1.408 . S
C55 C54 1.349 . S
C55 C56 1.407 . S
C55 H118 0.930 . S
C56 C55 1.407 . S
C56 C57 1.449 . S
C56 C60 1.535 1_455 S
C57 C56 1.449 . S
C57 C58 1.384 . S
C57 C82 1.553 . S
C58 C57 1.384 . S
C58 C59 1.364 . S
C58 C61 1.450 . S
C59 C54 1.367 . S
C59 C58 1.364 . S
C59 H119 0.931 . S
C60 C56 1.535 1_655 S
C60 H120 0.959 . S
C60 H121 0.961 . S
C60 H122 0.959 . S
C61 C58 1.450 . S
C61 H123 0.960 . S
C61 H124 0.960 . S
C61 H125 0.960 . S
C62 C63 1.309 . S
C62 C67 1.304 . S
C62 O100 1.435 . S
C63 C62 1.309 . S
C63 C64 1.476 . S
C63 H127 0.930 . S
C64 C63 1.476 . S
C64 C65 1.400 . S
C64 C68 1.567 1_455 S
C65 C64 1.400 . S
C65 C66 1.373 . S
C65 C87 1.432 . S
C66 C65 1.373 . S
C66 C67 1.339 . S
C66 C69 1.530 . S
C67 C62 1.304 . S
C67 C66 1.339 . S
C67 H128 0.930 . S
C68 C64 1.567 1_655 S
C68 H129 0.961 . S
C68 H130 0.960 . S
C68 H131 0.958 . S
C69 C66 1.530 . S
C69 H132 0.961 . S
C69 H133 0.960 . S
C69 H134 0.960 . S
C70 C71 1.530 1_655 S
C70 H136 0.961 1_665 S
C70 H137 0.961 . S
C70 H138 0.959 . S
C71 C70 1.530 1_455 S
C71 O99 1.412 1_455 S
C71 H135 0.980 . S
C72 C73 1.288 1_455 S
C72 C77 1.377 . S
C72 O99 1.393 1_455 S
C73 C72 1.288 1_655 S
C73 C74 1.369 . S
C73 H139 0.932 . S
C74 C73 1.369 . S
C74 C75 1.398 1_655 S
C74 C78 1.527 . S
C75 C74 1.398 1_455 S
C75 C76 1.380 . S
C75 C89 1.497 . S
C76 C75 1.380 . S
C76 C77 1.383 . S
C76 C79 1.603 . S
C77 C72 1.377 . S
C77 C76 1.383 . S
C77 H140 0.929 . S
C78 C74 1.527 . S
C78 H141 0.961 . S
C78 H142 0.959 . S
C78 H143 0.959 . S
C79 C76 1.603 . S
C79 H144 0.960 . S
C79 H145 0.962 . S
C79 H146 0.961 . S
C80 C47 1.587 . S
C80 C81 1.360 . S
C80 C93 1.412 . S
C81 C80 1.360 . S
C81 C82 1.365 . S
C81 H147 0.929 . S
C82 C57 1.553 . S
C82 C81 1.365 . S
C82 C83 1.404 . S
C83 C82 1.404 . S
C83 C84 1.395 . S
C83 C94 1.451 . S
C84 C83 1.395 . S
C84 C85 1.322 . S
C84 H148 0.930 . S
C85 C84 1.322 . S
C85 C86 1.459 . S
C85 H149 0.929 . S
C86 C85 1.459 . S
C86 C87 1.445 . S
C86 C95 1.395 . S
C87 C65 1.432 . S
C87 C86 1.445 . S
C87 C88 1.370 . S
C88 C87 1.370 . S
C88 C89 1.438 . S
C88 H150 0.930 . S
C89 C75 1.497 . S
C89 C88 1.438 . S
C89 C90 1.360 . S
C90 C89 1.360 . S
C90 C91 1.401 . S
C90 C95 1.446 . S
C91 C90 1.401 . S
C91 C92 1.347 . S
C91 H151 0.929 . S
C92 C91 1.347 . S
C92 C93 1.455 . S
C92 H152 0.930 . S
C93 C80 1.412 . S
C93 C92 1.455 . S
C93 C94 1.331 . S
C94 C83 1.451 . S
C94 C93 1.331 . S
C94 C95 1.497 . S
C95 C86 1.395 . S
C95 C90 1.446 . S
C95 C94 1.497 . S
C96 C97 1.582 . S
C96 H153 0.962 . S
C96 H154 0.959 . S
C96 H155 0.958 . S
C97 C96 1.582 . S
C97 O100 1.458 . S
C97 H126 0.980 . S
O98 C43 1.426 . S
O98 C44 1.334 . S
O99 C71 1.412 1_655 S
O99 C72 1.393 1_655 S
O100 C62 1.435 . S
O100 C97 1.458 . S
O101 C53 1.468 . S
O101 C54 1.408 . S
H102 C43 0.980 1_455 S
H103 C42 0.959 . S
H104 C42 0.959 . S
H105 C42 0.960 . S
H106 C45 0.929 . S
H107 C49 0.929 . S
H108 C50 0.959 . S
H109 C50 0.961 . S
H110 C50 0.961 . S
H111 C51 0.960 . S
H112 C51 0.960 . S
H113 C51 0.961 . S
H114 C53 0.980 . S
H115 C52 0.961 . S
H116 C52 0.960 . S
H117 C52 0.959 . S
H118 C55 0.930 . S
H119 C59 0.931 . S
H120 C60 0.959 . S
H121 C60 0.961 . S
H122 C60 0.959 . S
H123 C61 0.960 . S
H124 C61 0.960 . S
H125 C61 0.960 . S
H126 C97 0.980 . S
H127 C63 0.930 . S
H128 C67 0.930 . S
H129 C68 0.961 . S
H130 C68 0.960 . S
H131 C68 0.958 . S
H132 C69 0.961 . S
H133 C69 0.960 . S
H134 C69 0.960 . S
H135 C71 0.980 . S
H136 C70 0.961 1_445 S
H137 C70 0.961 . S
H138 C70 0.959 . S
H139 C73 0.932 . S
H140 C77 0.929 . S
H141 C78 0.961 . S
H142 C78 0.959 . S
H143 C78 0.959 . S
H144 C79 0.960 . S
H145 C79 0.962 . S
H146 C79 0.961 . S
H147 C81 0.929 . S
H148 C84 0.930 . S
H149 C85 0.929 . S
H150 C88 0.930 . S
H151 C91 0.929 . S
H152 C92 0.930 . S
H153 C96 0.962 . S
H154 C96 0.959 . S
H155 C96 0.958 . S
C156 C157 1.560 1_565 S
C156 H217 0.959 . S
C156 H218 0.959 . S
C156 H219 0.960 . S
C157 C156 1.560 1_545 S
C157 O212 1.426 1_545 S
C157 H216 0.980 . S
C158 C159 1.412 . S
C158 C163 1.413 1_545 S
C158 O212 1.334 1_545 S
C159 C158 1.412 . S
C159 C160 1.360 . S
C159 H220 0.929 . S
C160 C159 1.360 . S
C160 C161 1.401 . S
C160 C164 1.527 . S
C161 C160 1.401 . S
C161 C162 1.405 1_545 S
C161 C194 1.587 . S
C162 C161 1.405 1_565 S
C162 C163 1.332 . S
C162 C165 1.496 . S
C163 C158 1.413 1_565 S
C163 C162 1.332 . S
C163 H221 0.929 . S
C164 C160 1.527 . S
C164 H222 0.959 . S
C164 H223 0.961 . S
C164 H224 0.961 . S
C165 C162 1.496 . S
C165 H225 0.960 . S
C165 H226 0.960 . S
C165 H227 0.961 . S
C166 C167 1.517 . S
C166 H229 0.961 . S
C166 H230 0.960 . S
C166 H231 0.959 1_655 S
C167 C166 1.517 . S
C167 O215 1.468 . S
C167 H228 0.980 . S
C168 C169 1.349 . S
C168 C173 1.367 . S
C168 O215 1.408 . S
C169 C168 1.349 . S
C169 C170 1.407 . S
C169 H232 0.930 . S
C170 C169 1.407 . S
C170 C171 1.449 . S
C170 C174 1.535 1_545 S
C171 C170 1.449 . S
C171 C172 1.384 . S
C171 C196 1.553 . S
C172 C171 1.384 . S
C172 C173 1.364 . S
C172 C175 1.450 . S
C173 C168 1.367 . S
C173 C172 1.364 . S
C173 H233 0.931 . S
C174 C170 1.535 1_565 S
C174 H234 0.959 . S
C174 H235 0.961 . S
C174 H236 0.959 . S
C175 C172 1.450 . S
C175 H237 0.960 . S
C175 H238 0.960 . S
C175 H239 0.960 . S
C176 C177 1.309 . S
C176 C181 1.304 . S
C176 O214 1.435 . S
C177 C176 1.309 . S
C177 C178 1.476 . S
C177 H241 0.930 . S
C178 C177 1.476 . S
C178 C179 1.400 . S
C178 C182 1.567 1_545 S
C179 C178 1.400 . S
C179 C180 1.373 . S
C179 C201 1.432 . S
C180 C179 1.373 . S
C180 C181 1.339 . S
C180 C183 1.530 . S
C181 C176 1.304 . S
C181 C180 1.339 . S
C181 H242 0.930 . S
C182 C178 1.567 1_565 S
C182 H243 0.961 . S
C182 H244 0.960 . S
C182 H245 0.958 . S
C183 C180 1.530 . S
C183 H246 0.961 . S
C183 H247 0.960 . S
C183 H248 0.960 . S
C184 C185 1.530 . S
C184 H250 0.961 . S
C184 H251 0.961 1_545 S
C184 H252 0.959 1_545 S
C185 C184 1.530 . S
C185 O213 1.412 . S
C185 H249 0.980 . S
C186 C187 1.288 1_545 S
C186 C191 1.377 . S
C186 O213 1.393 . S
C187 C186 1.288 1_565 S
C187 C188 1.369 . S
C187 H253 0.932 . S
C188 C187 1.369 . S
C188 C189 1.398 1_565 S
C188 C192 1.527 . S
C189 C188 1.398 1_545 S
C189 C190 1.380 . S
C189 C203 1.497 . S
C190 C189 1.380 . S
C190 C191 1.383 . S
C190 C193 1.603 . S
C191 C186 1.377 . S
C191 C190 1.383 . S
C191 H254 0.929 . S
C192 C188 1.527 . S
C192 H255 0.961 . S
C192 H256 0.959 . S
C192 H257 0.959 . S
C193 C190 1.603 . S
C193 H258 0.960 . S
C193 H259 0.962 . S
C193 H260 0.961 . S
C194 C161 1.587 . S
C194 C195 1.360 . S
C194 C207 1.412 . S
C195 C194 1.360 . S
C195 C196 1.365 . S
C195 H261 0.929 . S
C196 C171 1.553 . S
C196 C195 1.365 . S
C196 C197 1.404 . S
C197 C196 1.404 . S
C197 C198 1.395 . S
C197 C208 1.451 . S
C198 C197 1.395 . S
C198 C199 1.322 . S
C198 H262 0.930 . S
C199 C198 1.322 . S
C199 C200 1.459 . S
C199 H263 0.929 . S
C200 C199 1.459 . S
C200 C201 1.445 . S
C200 C209 1.395 . S
C201 C179 1.432 . S
C201 C200 1.445 . S
C201 C202 1.370 . S
C202 C201 1.370 . S
C202 C203 1.438 . S
C202 H264 0.930 . S
C203 C189 1.497 . S
C203 C202 1.438 . S
C203 C204 1.360 . S
C204 C203 1.360 . S
C204 C205 1.401 . S
C204 C209 1.446 . S
C205 C204 1.401 . S
C205 C206 1.347 . S
C205 H265 0.929 . S
C206 C205 1.347 . S
C206 C207 1.455 . S
C206 H266 0.930 . S
C207 C194 1.412 . S
C207 C206 1.455 . S
C207 C208 1.331 . S
C208 C197 1.451 . S
C208 C207 1.331 . S
C208 C209 1.497 . S
C209 C200 1.395 . S
C209 C204 1.446 . S
C209 C208 1.497 . S
C210 C211 1.582 . S
C210 H267 0.962 . S
C210 H268 0.959 1_655 S
C210 H269 0.958 . S
C211 C210 1.582 . S
C211 O214 1.458 . S
C211 H240 0.980 . S
O212 C157 1.426 1_565 S
O212 C158 1.334 1_565 S
O213 C185 1.412 . S
O213 C186 1.393 . S
O214 C176 1.435 . S
O214 C211 1.458 . S
O215 C167 1.468 . S
O215 C168 1.408 . S
H216 C157 0.980 . S
H217 C156 0.959 . S
H218 C156 0.959 . S
H219 C156 0.960 . S
H220 C159 0.929 . S
H221 C163 0.929 . S
H222 C164 0.959 . S
H223 C164 0.961 . S
H224 C164 0.961 . S
H225 C165 0.960 . S
H226 C165 0.960 . S
H227 C165 0.961 . S
H228 C167 0.980 . S
H229 C166 0.961 . S
H230 C166 0.960 . S
H231 C166 0.959 1_455 S
H232 C169 0.930 . S
H233 C173 0.931 . S
H234 C174 0.959 . S
H235 C174 0.961 . S
H236 C174 0.959 . S
H237 C175 0.960 . S
H238 C175 0.960 . S
H239 C175 0.960 . S
H240 C211 0.980 . S
H241 C177 0.930 . S
H242 C181 0.930 . S
H243 C182 0.961 . S
H244 C182 0.960 . S
H245 C182 0.958 . S
H246 C183 0.961 . S
H247 C183 0.960 . S
H248 C183 0.960 . S
H249 C185 0.980 . S
H250 C184 0.961 . S
H251 C184 0.961 1_565 S
H252 C184 0.959 1_565 S
H253 C187 0.932 . S
H254 C191 0.929 . S
H255 C192 0.961 . S
H256 C192 0.959 . S
H257 C192 0.959 . S
H258 C193 0.960 . S
H259 C193 0.962 . S
H260 C193 0.961 . S
H261 C195 0.929 . S
H262 C198 0.930 . S
H263 C199 0.929 . S
H264 C202 0.930 . S
H265 C205 0.929 . S
H266 C206 0.930 . S
H267 C210 0.962 . S
H268 C210 0.959 1_455 S
H269 C210 0.958 . S
C270 C271 1.560 . S
C270 H331 0.959 . S
C270 H332 0.959 1_655 S
C270 H333 0.960 . S
C271 C270 1.560 . S
C271 O326 1.426 . S
C271 H330 0.980 . S
C272 C273 1.407 . S
C272 C277 1.418 . S
C272 O326 1.334 . S
C273 C272 1.407 . S
C273 C274 1.360 . S
C273 H334 0.929 . S
C274 C273 1.360 . S
C274 C275 1.401 . S
C274 C278 1.527 . S
C275 C274 1.401 . S
C275 C276 1.405 . S
C275 C308 1.587 . S
C276 C275 1.405 . S
C276 C277 1.332 . S
C276 C279 1.496 . S
C277 C272 1.418 . S
C277 C276 1.332 . S
C277 H335 0.929 . S
C278 C274 1.527 . S
C278 H336 0.959 . S
C278 H337 0.961 . S
C278 H338 0.961 . S
C279 C276 1.496 . S
C279 H339 0.960 . S
C279 H340 0.960 . S
C279 H341 0.961 . S
C280 C281 1.517 . S
C280 H343 0.961 . S
C280 H344 0.960 . S
C280 H345 0.959 . S
C281 C280 1.517 . S
C281 O329 1.468 . S
C281 H342 0.980 . S
C282 C283 1.349 . S
C282 C287 1.367 . S
C282 O329 1.408 . S
C283 C282 1.349 . S
C283 C284 1.407 . S
C283 H346 0.930 . S
C284 C283 1.407 . S
C284 C285 1.449 . S
C284 C288 1.535 . S
C285 C284 1.449 . S
C285 C286 1.384 . S
C285 C310 1.553 . S
C286 C285 1.384 . S
C286 C287 1.364 . S
C286 C289 1.450 . S
C287 C282 1.367 . S
C287 C286 1.364 . S
C287 H347 0.931 . S
C288 C284 1.535 . S
C288 H348 0.959 . S
C288 H349 0.961 . S
C288 H350 0.959 . S
C289 C286 1.450 . S
C289 H351 0.960 . S
C289 H352 0.960 . S
C289 H353 0.960 . S
C290 C291 1.309 1_554 S
C290 C295 1.304 1_554 S
C290 O328 1.435 . S
C291 C290 1.309 1_556 S
C291 C292 1.476 . S
C291 H355 0.930 . S
C292 C291 1.476 . S
C292 C293 1.400 . S
C292 C296 1.567 . S
C293 C292 1.400 . S
C293 C294 1.373 . S
C293 C315 1.432 . S
C294 C293 1.373 . S
C294 C295 1.339 . S
C294 C297 1.530 . S
C295 C290 1.304 1_556 S
C295 C294 1.339 . S
C295 H356 0.930 1_556 S
C296 C292 1.567 . S
C296 H357 0.961 . S
C296 H358 0.960 . S
C296 H359 0.958 . S
C297 C294 1.530 . S
C297 H360 0.961 . S
C297 H361 0.960 . S
C297 H362 0.960 . S
C298 C299 1.530 1_455 S
C298 H364 0.961 . S
C298 H365 0.961 . S
C298 H366 0.959 . S
C299 C298 1.530 1_655 S
C299 O327 1.412 . S
C299 H363 0.980 . S
C300 C301 1.288 . S
C300 C305 1.377 . S
C300 O327 1.393 . S
C301 C300 1.288 . S
C301 C302 1.369 1_554 S
C301 H367 0.932 . S
C302 C301 1.369 1_556 S
C302 C303 1.398 . S
C302 C306 1.527 . S
C303 C302 1.398 . S
C303 C304 1.380 . S
C303 C317 1.497 . S
C304 C303 1.380 . S
C304 C305 1.383 1_556 S
C304 C307 1.603 . S
C305 C300 1.377 . S
C305 C304 1.383 1_554 S
C305 H368 0.929 . S
C306 C302 1.527 . S
C306 H369 0.961 . S
C306 H370 0.959 . S
C306 H371 0.959 . S
C307 C304 1.603 . S
C307 H372 0.960 . S
C307 H373 0.962 . S
C307 H374 0.961 . S
C308 C275 1.587 . S
C308 C309 1.360 . S
C308 C321 1.412 . S
C309 C308 1.360 . S
C309 C310 1.365 . S
C309 H375 0.929 . S
C310 C285 1.553 . S
C310 C309 1.365 . S
C310 C311 1.404 . S
C311 C310 1.404 . S
C311 C312 1.395 . S
C311 C322 1.451 . S
C312 C311 1.395 . S
C312 C313 1.322 . S
C312 H376 0.930 . S
C313 C312 1.322 . S
C313 C314 1.459 . S
C313 H377 0.929 . S
C314 C313 1.459 . S
C314 C315 1.445 . S
C314 C323 1.395 . S
C315 C293 1.432 . S
C315 C314 1.445 . S
C315 C316 1.370 . S
C316 C315 1.370 . S
C316 C317 1.438 . S
C316 H378 0.930 . S
C317 C303 1.497 . S
C317 C316 1.438 . S
C317 C318 1.360 . S
C318 C317 1.360 . S
C318 C319 1.401 . S
C318 C323 1.446 . S
C319 C318 1.401 . S
C319 C320 1.347 . S
C319 H379 0.929 . S
C320 C319 1.347 . S
C320 C321 1.455 . S
C320 H380 0.930 . S
C321 C308 1.412 . S
C321 C320 1.455 . S
C321 C322 1.331 . S
C322 C311 1.451 . S
C322 C321 1.331 . S
C322 C323 1.497 . S
C323 C314 1.395 . S
C323 C318 1.446 . S
C323 C322 1.497 . S
C324 C325 1.582 . S
C324 H381 0.962 . S
C324 H382 0.959 . S
C324 H383 0.958 . S
C325 C324 1.582 . S
C325 O328 1.458 . S
C325 H354 0.980 . S
O326 C271 1.426 . S
O326 C272 1.334 . S
O327 C299 1.412 . S
O327 C300 1.393 . S
O328 C290 1.435 . S
O328 C325 1.458 . S
O329 C281 1.468 . S
O329 C282 1.408 . S
H330 C271 0.980 . S
H331 C270 0.959 . S
H332 C270 0.959 1_455 S
H333 C270 0.960 . S
H334 C273 0.929 . S
H335 C277 0.929 . S
H336 C278 0.959 . S
H337 C278 0.961 . S
H338 C278 0.961 . S
H339 C279 0.960 . S
H340 C279 0.960 . S
H341 C279 0.961 . S
H342 C281 0.980 . S
H343 C280 0.961 . S
H344 C280 0.960 . S
H345 C280 0.959 . S
H346 C283 0.930 . S
H347 C287 0.931 . S
H348 C288 0.959 . S
H349 C288 0.961 . S
H350 C288 0.959 . S
H351 C289 0.960 . S
H352 C289 0.960 . S
H353 C289 0.960 . S
H354 C325 0.980 . S
H355 C291 0.930 . S
H356 C295 0.930 1_554 S
H357 C296 0.961 . S
H358 C296 0.960 . S
H359 C296 0.958 . S
H360 C297 0.961 . S
H361 C297 0.960 . S
H362 C297 0.960 . S
H363 C299 0.980 . S
H364 C298 0.961 . S
H365 C298 0.961 . S
H366 C298 0.959 . S
H367 C301 0.932 . S
H368 C305 0.929 . S
H369 C306 0.961 . S
H370 C306 0.959 . S
H371 C306 0.959 . S
H372 C307 0.960 . S
H373 C307 0.962 . S
H374 C307 0.961 . S
H375 C309 0.929 . S
H376 C312 0.930 . S
H377 C313 0.929 . S
H378 C316 0.930 . S
H379 C319 0.929 . S
H380 C320 0.930 . S
H381 C324 0.962 . S
H382 C324 0.959 . S
H383 C324 0.958 . S
C97 C11 1.021 . S
C25 C211 1.168 . S
C41 C271 1.329 . S
C7 C71 1.090 . S
C185 C21 1.113 . S
C36 C281 0.649 . S
C167 C39 0.664 . S
C8 C299 1.330 . S
C43 C22 1.496 1_655 S
C157 C35 0.975 . S
C325 C13 0.986 . S
C27 C53 0.843 . S
