# Generated by pormake.
# Topology eea, (3,6)-cn, num edge types: 1
# Building blocks:
#     Node 0, Type 0, BuildingBlock: MIDCAF_clean_linker_0, # of connection points: 3
#     Node 1, Type 0, BuildingBlock: MIDCAF_clean_linker_0, # of connection points: 3
#     Node 2, Type 0, BuildingBlock: MIDCAF_clean_linker_0, # of connection points: 3
#     Node 3, Type 0, BuildingBlock: MIDCAF_clean_linker_0, # of connection points: 3
#     Node 4, Type 0, BuildingBlock: MIDCAF_clean_linker_0, # of connection points: 3
#     Node 5, Type 0, BuildingBlock: MIDCAF_clean_linker_0, # of connection points: 3
#     Node 6, Type 0, BuildingBlock: MIDCAF_clean_linker_0, # of connection points: 3
#     Node 7, Type 0, BuildingBlock: MIDCAF_clean_linker_0, # of connection points: 3
#     Node 8, Type 0, BuildingBlock: MIDCAF_clean_linker_0, # of connection points: 3
#     Node 9, Type 0, BuildingBlock: MIDCAF_clean_linker_0, # of connection points: 3
#     Node 10, Type 0, BuildingBlock: MIDCAF_clean_linker_0, # of connection points: 3
#     Node 11, Type 0, BuildingBlock: MIDCAF_clean_linker_0, # of connection points: 3
#     Node 12, Type 0, BuildingBlock: MIDCAF_clean_linker_0, # of connection points: 3
#     Node 13, Type 0, BuildingBlock: MIDCAF_clean_linker_0, # of connection points: 3
#     Node 14, Type 0, BuildingBlock: MIDCAF_clean_linker_0, # of connection points: 3
#     Node 15, Type 0, BuildingBlock: MIDCAF_clean_linker_0, # of connection points: 3
#     Node 16, Type 0, BuildingBlock: MIDCAF_clean_linker_0, # of connection points: 3
#     Node 17, Type 0, BuildingBlock: MIDCAF_clean_linker_0, # of connection points: 3
#     Node 18, Type 1, BuildingBlock: CUKXOW_clean_sbu_0, # of connection points: 6
#     Node 19, Type 1, BuildingBlock: CUKXOW_clean_sbu_0, # of connection points: 6
#     Node 20, Type 1, BuildingBlock: CUKXOW_clean_sbu_0, # of connection points: 6
#     Node 21, Type 1, BuildingBlock: CUKXOW_clean_sbu_0, # of connection points: 6
#     Node 22, Type 1, BuildingBlock: CUKXOW_clean_sbu_0, # of connection points: 6
#     Node 23, Type 1, BuildingBlock: CUKXOW_clean_sbu_0, # of connection points: 6
#     Node 24, Type 1, BuildingBlock: CUKXOW_clean_sbu_0, # of connection points: 6
#     Node 25, Type 1, BuildingBlock: CUKXOW_clean_sbu_0, # of connection points: 6
#     Node 26, Type 1, BuildingBlock: CUKXOW_clean_sbu_0, # of connection points: 6
#     Edge 27, Type (0, 1), BuildingBlock: EZIPEK_clean_linker_0, # of connection points: 2
#     Edge 28, Type (0, 1), BuildingBlock: EZIPEK_clean_linker_0, # of connection points: 2
#     Edge 29, Type (0, 1), BuildingBlock: EZIPEK_clean_linker_0, # of connection points: 2
#     Edge 30, Type (0, 1), BuildingBlock: EZIPEK_clean_linker_0, # of connection points: 2
#     Edge 31, Type (0, 1), BuildingBlock: EZIPEK_clean_linker_0, # of connection points: 2
#     Edge 32, Type (0, 1), BuildingBlock: EZIPEK_clean_linker_0, # of connection points: 2
#     Edge 33, Type (0, 1), BuildingBlock: EZIPEK_clean_linker_0, # of connection points: 2
#     Edge 34, Type (0, 1), BuildingBlock: EZIPEK_clean_linker_0, # of connection points: 2
#     Edge 35, Type (0, 1), BuildingBlock: EZIPEK_clean_linker_0, # of connection points: 2
#     Edge 36, Type (0, 1), BuildingBlock: EZIPEK_clean_linker_0, # of connection points: 2
#     Edge 37, Type (0, 1), BuildingBlock: EZIPEK_clean_linker_0, # of connection points: 2
#     Edge 38, Type (0, 1), BuildingBlock: EZIPEK_clean_linker_0, # of connection points: 2
#     Edge 39, Type (0, 1), BuildingBlock: EZIPEK_clean_linker_0, # of connection points: 2
#     Edge 40, Type (0, 1), BuildingBlock: EZIPEK_clean_linker_0, # of connection points: 2
#     Edge 41, Type (0, 1), BuildingBlock: EZIPEK_clean_linker_0, # of connection points: 2
#     Edge 42, Type (0, 1), BuildingBlock: EZIPEK_clean_linker_0, # of connection points: 2
#     Edge 43, Type (0, 1), BuildingBlock: EZIPEK_clean_linker_0, # of connection points: 2
#     Edge 44, Type (0, 1), BuildingBlock: EZIPEK_clean_linker_0, # of connection points: 2
#     Edge 45, Type (0, 1), BuildingBlock: EZIPEK_clean_linker_0, # of connection points: 2
#     Edge 46, Type (0, 1), BuildingBlock: EZIPEK_clean_linker_0, # of connection points: 2
#     Edge 47, Type (0, 1), BuildingBlock: EZIPEK_clean_linker_0, # of connection points: 2
#     Edge 48, Type (0, 1), BuildingBlock: EZIPEK_clean_linker_0, # of connection points: 2
#     Edge 49, Type (0, 1), BuildingBlock: EZIPEK_clean_linker_0, # of connection points: 2
#     Edge 50, Type (0, 1), BuildingBlock: EZIPEK_clean_linker_0, # of connection points: 2
#     Edge 51, Type (0, 1), BuildingBlock: EZIPEK_clean_linker_0, # of connection points: 2
#     Edge 52, Type (0, 1), BuildingBlock: EZIPEK_clean_linker_0, # of connection points: 2
#     Edge 53, Type (0, 1), BuildingBlock: EZIPEK_clean_linker_0, # of connection points: 2
#     Edge 54, Type (0, 1), BuildingBlock: EZIPEK_clean_linker_0, # of connection points: 2
#     Edge 55, Type (0, 1), BuildingBlock: EZIPEK_clean_linker_0, # of connection points: 2
#     Edge 56, Type (0, 1), BuildingBlock: EZIPEK_clean_linker_0, # of connection points: 2
#     Edge 57, Type (0, 1), BuildingBlock: EZIPEK_clean_linker_0, # of connection points: 2
#     Edge 58, Type (0, 1), BuildingBlock: EZIPEK_clean_linker_0, # of connection points: 2
#     Edge 59, Type (0, 1), BuildingBlock: EZIPEK_clean_linker_0, # of connection points: 2
#     Edge 60, Type (0, 1), BuildingBlock: EZIPEK_clean_linker_0, # of connection points: 2
#     Edge 61, Type (0, 1), BuildingBlock: EZIPEK_clean_linker_0, # of connection points: 2
#     Edge 62, Type (0, 1), BuildingBlock: EZIPEK_clean_linker_0, # of connection points: 2
#     Edge 63, Type (0, 1), BuildingBlock: EZIPEK_clean_linker_0, # of connection points: 2
#     Edge 64, Type (0, 1), BuildingBlock: EZIPEK_clean_linker_0, # of connection points: 2
#     Edge 65, Type (0, 1), BuildingBlock: EZIPEK_clean_linker_0, # of connection points: 2
#     Edge 66, Type (0, 1), BuildingBlock: EZIPEK_clean_linker_0, # of connection points: 2
#     Edge 67, Type (0, 1), BuildingBlock: EZIPEK_clean_linker_0, # of connection points: 2
#     Edge 68, Type (0, 1), BuildingBlock: EZIPEK_clean_linker_0, # of connection points: 2
#     Edge 69, Type (0, 1), BuildingBlock: EZIPEK_clean_linker_0, # of connection points: 2
#     Edge 70, Type (0, 1), BuildingBlock: EZIPEK_clean_linker_0, # of connection points: 2
#     Edge 71, Type (0, 1), BuildingBlock: EZIPEK_clean_linker_0, # of connection points: 2
#     Edge 72, Type (0, 1), BuildingBlock: EZIPEK_clean_linker_0, # of connection points: 2
#     Edge 73, Type (0, 1), BuildingBlock: EZIPEK_clean_linker_0, # of connection points: 2
#     Edge 74, Type (0, 1), BuildingBlock: EZIPEK_clean_linker_0, # of connection points: 2
#     Edge 75, Type (0, 1), BuildingBlock: EZIPEK_clean_linker_0, # of connection points: 2
#     Edge 76, Type (0, 1), BuildingBlock: EZIPEK_clean_linker_0, # of connection points: 2
#     Edge 77, Type (0, 1), BuildingBlock: EZIPEK_clean_linker_0, # of connection points: 2
#     Edge 78, Type (0, 1), BuildingBlock: EZIPEK_clean_linker_0, # of connection points: 2
#     Edge 79, Type (0, 1), BuildingBlock: EZIPEK_clean_linker_0, # of connection points: 2
#     Edge 80, Type (0, 1), BuildingBlock: EZIPEK_clean_linker_0, # of connection points: 2
# Relax obj value: 0.018
# Max RMSD: 0.125
# Mean RMSD: 0.059
data_MOF--net-eea--node1-CUKXOW_clean_sbu_0--node2-MIDCAF_clean_linker_0--edge1-EZIPEK_clean_linker_0
_symmetry_space_group_name_H-M    P1
_symmetry_Int_Tables_number       1
_symmetry_cell_setting            triclinic
loop_
_symmetry_equiv_pos_as_xyz
'x, y, z'
_cell_length_a     53.021357
_cell_length_b     49.812674
_cell_length_c     56.43064
_cell_angle_alpha  93.343283
_cell_angle_beta   93.035056
_cell_angle_gamma 120.03278
loop_
_atom_site_label
_atom_site_type_symbol
_atom_site_fract_x
_atom_site_fract_y
_atom_site_fract_z
_atom_type_partial_charge
C0 C 0.2537 0.03974 0.40901 0.0
C1 C 0.22771 0.02391 0.39371 0.0
C2 C 0.21099 0.03812 0.38966 0.0
C3 C 0.22001 0.06767 0.40085 0.0
H4 H 0.20669 0.14172 0.39761 0.0
H5 H 0.19133 0.17427 0.3779 0.0
H6 H 0.2612 0.25606 0.41902 0.0
H7 H 0.27641 0.2235 0.43937 0.0
H8 H 0.27498 0.1885 0.49969 0.0
H9 H 0.29432 0.19549 0.54154 0.0
H10 H 0.33145 0.13804 0.52379 0.0
H11 H 0.31186 0.13045 0.48225 0.0
H12 H 0.28228 0.08054 0.43265 0.0
H13 H 0.26687 0.02907 0.41234 0.0
H14 H 0.19079 0.02617 0.37802 0.0
H15 H 0.20651 0.07797 0.39757 0.0
N16 N 0.24538 0.1324 0.41981 0.0
N17 N 0.26783 0.16914 0.45329 0.0
N18 N 0.2699 0.12302 0.45103 0.0
C19 C 0.25233 0.16019 0.43143 0.0
C20 C 0.27664 0.15052 0.4632 0.0
C21 C 0.25419 0.1138 0.42938 0.0
C22 C 0.24276 0.18007 0.42011 0.0
C23 C 0.21884 0.16664 0.40251 0.0
C24 C 0.21003 0.18516 0.39116 0.0
C25 C 0.22526 0.21751 0.39688 0.0
C26 C 0.24927 0.23109 0.41434 0.0
C27 C 0.25779 0.21248 0.42603 0.0
C28 C 0.29168 0.1587 0.48767 0.0
C29 C 0.28774 0.17785 0.50463 0.0
C30 C 0.29875 0.18188 0.52853 0.0
C31 C 0.3143 0.16728 0.53571 0.0
C32 C 0.31954 0.14953 0.51857 0.0
C33 C 0.30822 0.14514 0.49486 0.0
C34 C 0.24558 0.08322 0.41672 0.0
C35 C 0.2624 0.06901 0.42065 0.0
C36 C 0.96912 0.21649 0.41932 0.0
C37 C 0.97128 0.20505 0.39663 0.0
C38 C 0.94792 0.17693 0.38574 0.0
C39 C 0.92285 0.16014 0.39744 0.0
H40 H 0.84934 0.07791 0.38975 0.0
H41 H 0.81199 0.02732 0.36993 0.0
H42 H 0.75786 0.01413 0.42749 0.0
H43 H 0.79523 0.06464 0.44776 0.0
H44 H 0.85854 0.10388 0.50379 0.0
H45 H 0.85007 0.11397 0.54476 0.0
H46 H 0.86454 0.20413 0.52921 0.0
H47 H 0.87475 0.19471 0.48844 0.0
H48 H 0.94312 0.20867 0.44882 0.0
H49 H 0.98708 0.2382 0.42798 0.0
H50 H 0.94927 0.16777 0.36826 0.0
H51 H 0.90542 0.13829 0.3885 0.0
N52 N 0.87248 0.12439 0.42193 0.0
N53 N 0.84757 0.1134 0.45626 0.0
N54 N 0.89266 0.15995 0.45622 0.0
C55 C 0.8489 0.10522 0.43318 0.0
C56 C 0.86922 0.14071 0.46783 0.0
C57 C 0.89447 0.15168 0.43317 0.0
C58 C 0.82545 0.07531 0.42051 0.0
C59 C 0.82942 0.06448 0.39819 0.0
C60 C 0.80806 0.0356 0.38673 0.0
C61 C 0.78222 0.01712 0.39724 0.0
C62 C 0.77768 0.0282 0.41911 0.0
C63 C 0.79914 0.05698 0.4307 0.0
C64 C 0.86726 0.14853 0.49306 0.0
C65 C 0.8605 0.1261 0.5093 0.0
C66 C 0.85568 0.13186 0.53268 0.0
C67 C 0.85648 0.15973 0.54006 0.0
C68 C 0.86395 0.18254 0.52398 0.0
C69 C 0.86975 0.17717 0.50074 0.0
C70 C 0.92064 0.17099 0.42046 0.0
C71 C 0.94402 0.19956 0.43118 0.0
C72 C 0.7957 0.7528 0.43084 0.0
C73 C 0.80101 0.76552 0.40889 0.0
C74 C 0.8251 0.76905 0.39741 0.0
C75 C 0.8438 0.76001 0.40775 0.0
H76 H 0.91141 0.75059 0.39376 0.0
H77 H 0.95539 0.76501 0.37379 0.0
H78 H 0.99274 0.74289 0.43392 0.0
H79 H 0.94859 0.72845 0.45448 0.0
H80 H 0.88634 0.67547 0.48929 0.0
H81 H 0.87403 0.65223 0.5273 0.0
H82 H 0.83843 0.71077 0.54653 0.0
H83 H 0.84964 0.73316 0.50843 0.0
H84 H 0.8099 0.73408 0.45827 0.0
H85 H 0.77714 0.75003 0.43989 0.0
H86 H 0.82944 0.77889 0.38045 0.0
H87 H 0.86226 0.76313 0.3984 0.0
N88 N 0.88187 0.74115 0.42921 0.0
N89 N 0.89663 0.72145 0.46041 0.0
N90 N 0.85509 0.72675 0.46239 0.0
C91 C 0.90085 0.73305 0.43878 0.0
C92 C 0.87371 0.71831 0.47229 0.0
C93 C 0.85896 0.73804 0.44076 0.0
C94 C 0.92649 0.73858 0.42592 0.0
C95 C 0.92876 0.74847 0.40283 0.0
C96 C 0.95385 0.75668 0.39127 0.0
C97 C 0.97716 0.75506 0.40244 0.0
C98 C 0.97479 0.74418 0.42508 0.0
C99 C 0.94959 0.73596 0.43676 0.0
C100 C 0.86879 0.70597 0.49587 0.0
C101 C 0.87611 0.68351 0.50174 0.0
C102 C 0.86907 0.67022 0.52338 0.0
C103 C 0.85533 0.67981 0.53969 0.0
C104 C 0.84897 0.70301 0.53416 0.0
C105 C 0.85534 0.71572 0.51238 0.0
C106 C 0.83878 0.74731 0.42985 0.0
C107 C 0.81446 0.74377 0.44127 0.0
C108 C 0.038 0.26001 0.58528 0.0
C109 C 0.03277 0.24505 0.60627 0.0
C110 C 0.05499 0.24215 0.61818 0.0
C111 C 0.08215 0.25387 0.60915 0.0
H112 H 0.15436 0.24809 0.61681 0.0
H113 H 0.18565 0.22901 0.63229 0.0
H114 H 0.24582 0.27416 0.57992 0.0
H115 H 0.21457 0.29348 0.56401 0.0
H116 H 0.19888 0.32965 0.5263 0.0
H117 H 0.20537 0.3477 0.48647 0.0
H118 H 0.11921 0.3365 0.48208 0.0
H119 H 0.11237 0.31859 0.52185 0.0
H120 H 0.06867 0.28317 0.55992 0.0
H121 H 0.02099 0.26249 0.57597 0.0
H122 H 0.05125 0.23076 0.63448 0.0
H123 H 0.0988 0.25112 0.61879 0.0
N124 N 0.13589 0.27318 0.588 0.0
N125 N 0.1681 0.29869 0.55947 0.0
N126 N 0.12288 0.29674 0.55883 0.0
C127 C 0.16178 0.2822 0.57882 0.0
C128 C 0.14882 0.30621 0.54942 0.0
C129 C 0.11633 0.28032 0.57821 0.0
C130 C 0.18185 0.27231 0.58905 0.0
C131 C 0.17428 0.25421 0.60855 0.0
C132 C 0.1921 0.24322 0.61747 0.0
C133 C 0.21786 0.25016 0.60716 0.0
C134 C 0.22592 0.26863 0.58803 0.0
C135 C 0.20805 0.27964 0.57901 0.0
C136 C 0.15486 0.32207 0.52717 0.0
C137 C 0.18152 0.33167 0.51716 0.0
C138 C 0.18544 0.34229 0.49448 0.0
C139 C 0.16279 0.34346 0.48148 0.0
C140 C 0.137 0.33597 0.49201 0.0
C141 C 0.13309 0.3255 0.51469 0.0
C142 C 0.08766 0.26885 0.58803 0.0
C143 C 0.06527 0.27189 0.57623 0.0
C144 C 0.77014 0.7784 0.59241 0.0
C145 C 0.7742 0.78104 0.6174 0.0
C146 C 0.77047 0.80328 0.6307 0.0
C147 C 0.76372 0.8233 0.61915 0.0
H148 H 0.78826 0.91786 0.62652 0.0
H149 H 0.80383 0.96958 0.64629 0.0
H150 H 0.76185 0.98817 0.58719 0.0
H151 H 0.74636 0.93682 0.56713 0.0
H152 H 0.754 0.89905 0.51366 0.0
H153 H 0.73164 0.88924 0.47268 0.0
H154 H 0.6742 0.79275 0.48325 0.0
H155 H 0.69748 0.80218 0.52406 0.0
H156 H 0.76035 0.79577 0.56154 0.0
H157 H 0.77287 0.7613 0.58186 0.0
H158 H 0.77333 0.8055 0.65 0.0
H159 H 0.76148 0.8406 0.62988 0.0
N160 N 0.76169 0.87127 0.59363 0.0
N161 N 0.74698 0.88584 0.55919 0.0
N162 N 0.74329 0.83685 0.55861 0.0
C163 C 0.75792 0.89259 0.58242 0.0
C164 C 0.73952 0.85808 0.54721 0.0
C165 C 0.75451 0.8434 0.58186 0.0
C166 C 0.76619 0.92319 0.59513 0.0
C167 C 0.78213 0.93282 0.61776 0.0
C168 C 0.79103 0.96232 0.62912 0.0
C169 C 0.78392 0.98253 0.61816 0.0
C170 C 0.76747 0.97279 0.59589 0.0
C171 C 0.75875 0.94346 0.58445 0.0
C172 C 0.72737 0.85137 0.52201 0.0
C173 C 0.73685 0.87566 0.50714 0.0
C174 C 0.72415 0.87009 0.48376 0.0
C175 C 0.70117 0.84033 0.47499 0.0
C176 C 0.69197 0.81586 0.48967 0.0
C177 C 0.70527 0.82125 0.51292 0.0
C178 C 0.76005 0.82105 0.59408 0.0
C179 C 0.76291 0.79806 0.58085 0.0
C180 C 0.21918 0.97085 0.59753 0.0
C181 C 0.21625 0.97889 0.62105 0.0
C182 C 0.19332 0.95701 0.633 0.0
C183 C 0.17318 0.9277 0.6214 0.0
H184 H 0.09274 0.85465 0.62645 0.0
H185 H 0.04641 0.82519 0.64367 0.0
H186 H 0.01036 0.7614 0.57991 0.0
H187 H 0.05688 0.79075 0.56226 0.0
H188 H 0.09798 0.80834 0.51645 0.0
H189 H 0.10699 0.7979 0.4757 0.0
H190 H 0.19921 0.86249 0.49229 0.0
H191 H 0.19056 0.87341 0.53293 0.0
H192 H 0.20192 0.93608 0.56775 0.0
H193 H 0.23681 0.98746 0.58807 0.0
H194 H 0.19086 0.9628 0.65121 0.0
H195 H 0.15553 0.91145 0.63102 0.0
N196 N 0.12797 0.87114 0.59423 0.0
N197 N 0.11196 0.83408 0.56097 0.0
N198 N 0.15856 0.87903 0.56379 0.0
C199 C 0.10693 0.8437 0.58241 0.0
C200 C 0.13792 0.85159 0.55164 0.0
C201 C 0.15376 0.88898 0.58507 0.0
C202 C 0.07868 0.82515 0.59287 0.0
C203 C 0.07508 0.83438 0.61594 0.0
C204 C 0.04859 0.81759 0.6259 0.0
C205 C 0.02506 0.79126 0.61304 0.0
C206 C 0.02837 0.78176 0.59006 0.0
C207 C 0.05498 0.79853 0.58005 0.0
C208 C 0.14347 0.842 0.52793 0.0
C209 C 0.12026 0.81989 0.51162 0.0
C210 C 0.12536 0.81379 0.48835 0.0
C211 C 0.15378 0.82932 0.4811 0.0
C212 C 0.17719 0.85009 0.49765 0.0
C213 C 0.1721 0.85646 0.52081 0.0
C214 C 0.17582 0.9196 0.5977 0.0
C215 C 0.19924 0.94144 0.58599 0.0
C216 C 0.91348 0.36652 0.75014 0.0
C217 C 0.90043 0.35791 0.7266 0.0
C218 C 0.89759 0.37973 0.71385 0.0
C219 C 0.90753 0.40977 0.72457 0.0
H220 H 0.88285 0.47808 0.72945 0.0
H221 H 0.86474 0.50942 0.71155 0.0
H222 H 0.93894 0.5931 0.74676 0.0
H223 H 0.95687 0.56173 0.76545 0.0
H224 H 0.97332 0.54249 0.82168 0.0
H225 H 0.99182 0.55236 0.86394 0.0
H226 H 0.99486 0.46743 0.85883 0.0
H227 H 0.97686 0.45742 0.81685 0.0
H228 H 0.93364 0.40253 0.77902 0.0
H229 H 0.91593 0.34995 0.76019 0.0
H230 H 0.88775 0.37351 0.69559 0.0
H231 H 0.90501 0.4261 0.71427 0.0
N232 N 0.92309 0.46927 0.74938 0.0
N233 N 0.94862 0.50813 0.78118 0.0
N234 N 0.9479 0.4606 0.78079 0.0
C235 C 0.93172 0.49811 0.75996 0.0
C236 C 0.95684 0.48943 0.79171 0.0
C237 C 0.93116 0.45041 0.75959 0.0
C238 C 0.92133 0.51746 0.74888 0.0
C239 C 0.89543 0.50316 0.73337 0.0
C240 C 0.885 0.52099 0.72311 0.0
C241 C 0.90055 0.55352 0.72777 0.0
C242 C 0.92666 0.56799 0.74297 0.0
C243 C 0.93681 0.55007 0.75366 0.0
C244 C 0.97296 0.49879 0.81589 0.0
C245 C 0.97864 0.52631 0.82935 0.0
C246 C 0.98943 0.53216 0.85346 0.0
C247 C 0.9946 0.51055 0.86441 0.0
C248 C 0.99108 0.4844 0.85062 0.0
C249 C 0.9805 0.47862 0.82661 0.0
C250 C 0.9208 0.41861 0.74816 0.0
C251 C 0.92369 0.39662 0.76081 0.0
C252 C 0.64141 0.54994 0.75986 0.0
C253 C 0.64051 0.54248 0.73532 0.0
C254 C 0.61417 0.5194 0.7229 0.0
C255 C 0.58927 0.50319 0.73494 0.0
H256 H 0.52544 0.41213 0.73312 0.0
H257 H 0.48961 0.36089 0.71333 0.0
H258 H 0.42982 0.35012 0.76579 0.0
H259 H 0.46573 0.40133 0.78608 0.0
H260 H 0.52354 0.44517 0.84413 0.0
H261 H 0.51316 0.45838 0.88354 0.0
H262 H 0.53074 0.54757 0.86248 0.0
H263 H 0.54282 0.53504 0.82336 0.0
H264 H 0.61779 0.53947 0.79099 0.0
H265 H 0.66165 0.56773 0.76971 0.0
H266 H 0.61311 0.5134 0.70396 0.0
H267 H 0.56944 0.48503 0.72484 0.0
N268 N 0.54379 0.46149 0.76198 0.0
N269 N 0.51768 0.45122 0.79564 0.0
N270 N 0.56117 0.49928 0.79486 0.0
C271 C 0.52045 0.44197 0.77329 0.0
C272 C 0.53783 0.47981 0.80648 0.0
C273 C 0.56426 0.49006 0.7725 0.0
C274 C 0.49852 0.41089 0.76127 0.0
C275 C 0.50468 0.39899 0.74051 0.0
C276 C 0.48424 0.3697 0.72912 0.0
C277 C 0.45714 0.35184 0.73809 0.0
C278 C 0.45069 0.36365 0.75864 0.0
C279 C 0.47127 0.39285 0.77022 0.0
C280 C 0.53403 0.48914 0.83079 0.0
C281 C 0.52567 0.4678 0.84808 0.0
C282 C 0.51972 0.47531 0.87056 0.0
C283 C 0.52107 0.50392 0.87598 0.0
C284 C 0.52973 0.52545 0.85877 0.0
C285 C 0.53665 0.51832 0.83648 0.0
C286 C 0.59012 0.50983 0.75969 0.0
C287 C 0.61634 0.53385 0.77196 0.0
C288 C 0.47424 0.10237 0.77055 0.0
C289 C 0.48324 0.12156 0.75188 0.0
C290 C 0.51177 0.13355 0.74529 0.0
C291 C 0.53092 0.12591 0.75689 0.0
H292 H 0.60516 0.12462 0.74767 0.0
H293 H 0.64989 0.13637 0.72959 0.0
H294 H 0.67018 0.08911 0.7823 0.0
H295 H 0.6253 0.07708 0.80079 0.0
H296 H 0.55323 0.01913 0.82588 0.0
H297 H 0.53517 0.98907 0.86042 0.0
H298 H 0.51687 0.05829 0.89085 0.0
H299 H 0.53328 0.08729 0.85589 0.0
H300 H 0.48576 0.07972 0.79647 0.0
H301 H 0.45224 0.09292 0.77582 0.0
H302 H 0.51902 0.14844 0.73091 0.0
H303 H 0.5527 0.13521 0.75117 0.0
N304 N 0.56654 0.10254 0.77704 0.0
N305 N 0.57703 0.07731 0.80654 0.0
N306 N 0.53497 0.08178 0.80688 0.0
C307 C 0.58435 0.09295 0.78673 0.0
C308 C 0.55246 0.07192 0.81674 0.0
C309 C 0.54177 0.09693 0.78689 0.0
C310 C 0.61151 0.09982 0.77574 0.0
C311 C 0.61901 0.11663 0.75554 0.0
C312 C 0.64459 0.12347 0.74515 0.0
C313 C 0.66317 0.11362 0.75469 0.0
C314 C 0.65597 0.09687 0.77479 0.0
C315 C 0.63033 0.09003 0.78527 0.0
C316 C 0.54447 0.05535 0.83832 0.0
C317 C 0.54555 0.02793 0.84009 0.0
C318 C 0.53527 0.01081 0.85972 0.0
C319 C 0.52479 0.02154 0.87819 0.0
C320 C 0.52484 0.04962 0.87678 0.0
C321 C 0.53418 0.06613 0.85686 0.0
C322 C 0.52193 0.10631 0.77543 0.0
C323 C 0.49346 0.09492 0.78232 0.0
C324 C 0.70108 0.59511 0.91952 0.0
C325 C 0.69258 0.5731 0.93627 0.0
C326 C 0.71091 0.56166 0.94305 0.0
C327 C 0.73761 0.57231 0.93348 0.0
H328 H 0.8055 0.56117 0.93854 0.0
H329 H 0.83555 0.54097 0.95454 0.0
H330 H 0.90662 0.603 0.9157 0.0
H331 H 0.87657 0.62355 0.8992 0.0
H332 H 0.86293 0.66302 0.86158 0.0
H333 H 0.87266 0.68353 0.82266 0.0
H334 H 0.78469 0.6668 0.81232 0.0
H335 H 0.77467 0.64652 0.85119 0.0
H336 H 0.73406 0.62292 0.89702 0.0
H337 H 0.6871 0.60421 0.91418 0.0
H338 H 0.70464 0.54469 0.95599 0.0
H339 H 0.75123 0.56299 0.93929 0.0
N340 N 0.79371 0.59681 0.91631 0.0
N341 N 0.82802 0.62485 0.8899 0.0
N342 N 0.78359 0.6248 0.88924 0.0
C343 C 0.81996 0.606 0.90785 0.0
C344 C 0.80998 0.63442 0.88049 0.0
C345 C 0.7754 0.60603 0.90728 0.0
C346 C 0.83863 0.59413 0.91757 0.0
C347 C 0.82751 0.5707 0.93331 0.0
C348 C 0.84457 0.55897 0.94246 0.0
C349 C 0.87311 0.5705 0.93621 0.0
C350 C 0.8845 0.59387 0.9206 0.0
C351 C 0.86733 0.60554 0.91124 0.0
C352 C 0.81779 0.65248 0.85935 0.0
C353 C 0.84584 0.66443 0.85135 0.0
C354 C 0.85161 0.6765 0.82922 0.0
C355 C 0.82939 0.67665 0.81471 0.0
C356 C 0.80216 0.66709 0.82341 0.0
C357 C 0.79644 0.65527 0.8456 0.0
C358 C 0.74659 0.59465 0.91684 0.0
C359 C 0.72789 0.60577 0.90979 0.0
C360 C 0.41772 0.10513 0.92798 0.0
C361 C 0.43552 0.11557 0.94966 0.0
C362 C 0.44503 0.1456 0.96034 0.0
C363 C 0.43738 0.16522 0.94927 0.0
H364 H 0.45501 0.25491 0.95517 0.0
H365 H 0.47143 0.30687 0.97474 0.0
H366 H 0.42015 0.32123 0.92055 0.0
H367 H 0.40385 0.26951 0.90058 0.0
H368 H 0.40993 0.22781 0.84488 0.0
H369 H 0.38712 0.21501 0.80384 0.0
H370 H 0.32747 0.12109 0.81928 0.0
H371 H 0.35131 0.13341 0.86016 0.0
H372 H 0.39685 0.11629 0.89986 0.0
H373 H 0.41024 0.08199 0.91948 0.0
H374 H 0.45885 0.15404 0.97704 0.0
H375 H 0.44553 0.18845 0.95785 0.0
N376 N 0.42284 0.2059 0.92552 0.0
N377 N 0.40519 0.21849 0.89153 0.0
N378 N 0.40027 0.16898 0.89218 0.0
C379 C 0.41841 0.22668 0.91414 0.0
C380 C 0.39603 0.18972 0.88047 0.0
C381 C 0.41387 0.17703 0.91474 0.0
C382 C 0.42815 0.25801 0.92623 0.0
C383 C 0.44712 0.26903 0.94739 0.0
C384 C 0.45655 0.2987 0.95863 0.0
C385 C 0.44693 0.31775 0.94908 0.0
C386 C 0.42777 0.30678 0.92816 0.0
C387 C 0.41857 0.27726 0.91675 0.0
C388 C 0.38233 0.18159 0.85566 0.0
C389 C 0.39207 0.20438 0.83947 0.0
C390 C 0.37911 0.19709 0.81604 0.0
C391 C 0.35559 0.16711 0.8085 0.0
C392 C 0.34569 0.1443 0.8247 0.0
C393 C 0.35929 0.15135 0.84799 0.0
C394 C 0.4202 0.15526 0.92717 0.0
C395 C 0.41017 0.12482 0.91679 0.0
C396 C 0.87472 0.28577 0.93758 0.0
C397 C 0.86579 0.30492 0.94919 0.0
C398 C 0.83585 0.29497 0.94839 0.0
C399 C 0.8152 0.26652 0.93585 0.0
H400 H 0.72715 0.19591 0.93077 0.0
H401 H 0.68271 0.16496 0.9502 0.0
H402 H 0.67327 0.08066 0.91538 0.0
H403 H 0.7178 0.11165 0.8954 0.0
H404 H 0.75301 0.14888 0.83428 0.0
H405 H 0.76787 0.14238 0.79472 0.0
H406 H 0.85837 0.19338 0.82326 0.0
H407 H 0.84395 0.20027 0.86244 0.0
H408 H 0.86166 0.24381 0.9152 0.0
H409 H 0.89773 0.29308 0.93798 0.0
H410 H 0.82856 0.30951 0.95707 0.0
H411 H 0.79225 0.25954 0.93524 0.0
N412 N 0.77526 0.20176 0.91569 0.0
N413 N 0.762 0.16594 0.88184 0.0
N414 N 0.80948 0.20961 0.88844 0.0
C415 C 0.75497 0.17509 0.90253 0.0
C416 C 0.78934 0.18337 0.87464 0.0
C417 C 0.80254 0.21897 0.90889 0.0
C418 C 0.72604 0.15619 0.9116 0.0
C419 C 0.71548 0.17079 0.92697 0.0
C420 C 0.69011 0.1532 0.93811 0.0
C421 C 0.67496 0.12063 0.93435 0.0
C422 C 0.68482 0.10584 0.9185 0.0
C423 C 0.71009 0.12354 0.90701 0.0
C424 C 0.7973 0.17527 0.85151 0.0
C425 C 0.77602 0.15816 0.83221 0.0
C426 C 0.78445 0.15444 0.80961 0.0
C427 C 0.81423 0.16738 0.80612 0.0
C428 C 0.8353 0.18318 0.8256 0.0
C429 C 0.82698 0.18717 0.84798 0.0
C430 C 0.82423 0.24801 0.92337 0.0
C431 C 0.85415 0.25778 0.92448 0.0
C432 C 0.57172 0.6979 0.08415 0.0
C433 C 0.55923 0.6901 0.06043 0.0
C434 C 0.55536 0.71186 0.04849 0.0
C435 C 0.56347 0.74091 0.06023 0.0
H436 H 0.53104 0.80515 0.07001 0.0
H437 H 0.51335 0.83642 0.05114 0.0
H438 H 0.59142 0.92052 0.08101 0.0
H439 H 0.6087 0.88929 0.10083 0.0
H440 H 0.6106 0.86102 0.16406 0.0
H441 H 0.63198 0.8713 0.20556 0.0
H442 H 0.66134 0.80591 0.19148 0.0
H443 H 0.63984 0.79513 0.15027 0.0
H444 H 0.58952 0.73234 0.1142 0.0
H445 H 0.57495 0.68137 0.09358 0.0
H446 H 0.54594 0.70627 0.03013 0.0
H447 H 0.56005 0.75713 0.05054 0.0
N448 N 0.57488 0.79779 0.08673 0.0
N449 N 0.59793 0.83554 0.11954 0.0
N450 N 0.60005 0.78948 0.11813 0.0
C451 C 0.58181 0.82576 0.098 0.0
C452 C 0.60711 0.81743 0.12975 0.0
C453 C 0.584 0.77954 0.09658 0.0
C454 C 0.57122 0.84485 0.0869 0.0
C455 C 0.5444 0.83031 0.0726 0.0
C456 C 0.53428 0.8481 0.0618 0.0
C457 C 0.55116 0.88073 0.06456 0.0
C458 C 0.57811 0.89534 0.07866 0.0
C459 C 0.58788 0.87753 0.09002 0.0
C460 C 0.62322 0.82697 0.15388 0.0
C461 C 0.6221 0.84927 0.16966 0.0
C462 C 0.63439 0.8553 0.19335 0.0
C463 C 0.64833 0.83947 0.20148 0.0
C464 C 0.65081 0.81848 0.18546 0.0
C465 C 0.63831 0.8122 0.16194 0.0
C466 C 0.5759 0.74887 0.08408 0.0
C467 C 0.58009 0.72707 0.09586 0.0
C468 C 0.29336 0.8886 0.0842 0.0
C469 C 0.29507 0.88214 0.05971 0.0
C470 C 0.27465 0.85169 0.04929 0.0
C471 C 0.25159 0.83074 0.06145 0.0
H472 H 0.18454 0.74116 0.05486 0.0
H473 H 0.14949 0.68964 0.03488 0.0
H474 H 0.09574 0.67082 0.09336 0.0
H475 H 0.13069 0.72216 0.1137 0.0
H476 H 0.18303 0.76623 0.16861 0.0
H477 H 0.17522 0.77888 0.20919 0.0
H478 H 0.19719 0.87088 0.19187 0.0
H479 H 0.20661 0.85883 0.15158 0.0
H480 H 0.26966 0.87412 0.11492 0.0
H481 H 0.31008 0.90921 0.09477 0.0
H482 H 0.2765 0.84308 0.03186 0.0
H483 H 0.23624 0.80801 0.05236 0.0
N484 N 0.20448 0.78777 0.0869 0.0
N485 N 0.17945 0.77469 0.12119 0.0
N486 N 0.22097 0.82422 0.12055 0.0
C487 C 0.18203 0.76682 0.09836 0.0
C488 C 0.19877 0.80334 0.13234 0.0
C489 C 0.22411 0.81644 0.09782 0.0
C490 C 0.16054 0.73582 0.08599 0.0
C491 C 0.16523 0.7262 0.06349 0.0
C492 C 0.14521 0.69682 0.05197 0.0
C493 C 0.12006 0.67665 0.06262 0.0
C494 C 0.11502 0.68624 0.08486 0.0
C495 C 0.13511 0.71553 0.09648 0.0
C496 C 0.19537 0.81157 0.15704 0.0
C497 C 0.18651 0.78926 0.17358 0.0
C498 C 0.1821 0.79647 0.19672 0.0
C499 C 0.18555 0.82578 0.20352 0.0
C500 C 0.19457 0.84819 0.18703 0.0
C501 C 0.19992 0.84131 0.16407 0.0
C502 C 0.24871 0.83874 0.085 0.0
C503 C 0.27024 0.86769 0.09637 0.0
C504 C 0.12074 0.40193 0.08329 0.0
C505 C 0.13232 0.4254 0.06778 0.0
C506 C 0.16141 0.43789 0.06258 0.0
C507 C 0.17877 0.42698 0.07268 0.0
H508 H 0.25323 0.42708 0.06486 0.0
H509 H 0.30089 0.44484 0.05019 0.0
H510 H 0.3206 0.39619 0.10202 0.0
H511 H 0.27262 0.3781 0.11716 0.0
H512 H 0.22394 0.34247 0.15527 0.0
H513 H 0.21311 0.32276 0.19452 0.0
H514 H 0.13724 0.33338 0.19186 0.0
H515 H 0.14732 0.35245 0.15275 0.0
H516 H 0.12869 0.37312 0.10558 0.0
H517 H 0.09823 0.39199 0.08738 0.0
H518 H 0.1706 0.45597 0.05057 0.0
H519 H 0.20119 0.43714 0.06832 0.0
N520 N 0.2122 0.40025 0.09115 0.0
N521 N 0.22161 0.37412 0.12052 0.0
N522 N 0.17783 0.37534 0.1183 0.0
C523 C 0.23009 0.39118 0.10145 0.0
C524 C 0.19538 0.36604 0.12902 0.0
C525 C 0.18607 0.39242 0.09938 0.0
C526 C 0.25895 0.40109 0.09229 0.0
C527 C 0.26749 0.41994 0.07323 0.0
C528 C 0.29478 0.4302 0.06476 0.0
C529 C 0.31411 0.4218 0.07504 0.0
C530 C 0.30581 0.40282 0.09389 0.0
C531 C 0.27842 0.39255 0.10249 0.0
C532 C 0.18685 0.34966 0.15097 0.0
C533 C 0.20459 0.34 0.16278 0.0
C534 C 0.19835 0.3285 0.18512 0.0
C535 C 0.1745 0.32687 0.19607 0.0
C536 C 0.15573 0.33449 0.18367 0.0
C537 C 0.16172 0.34562 0.16132 0.0
C538 C 0.16739 0.40354 0.08838 0.0
C539 C 0.13818 0.39121 0.09363 0.0
C540 C 0.36578 0.92735 0.25954 0.0
C541 C 0.36024 0.90934 0.27892 0.0
C542 C 0.38065 0.90111 0.28694 0.0
C543 C 0.4062 0.91053 0.27571 0.0
H544 H 0.47077 0.89248 0.27342 0.0
H545 H 0.50217 0.87319 0.28819 0.0
H546 H 0.56883 0.93193 0.24443 0.0
H547 H 0.53738 0.95139 0.22916 0.0
H548 H 0.52207 0.99201 0.19396 0.0
H549 H 0.53008 0.01209 0.15483 0.0
H550 H 0.44035 0.99003 0.14532 0.0
H551 H 0.43207 0.97018 0.18454 0.0
H552 H 0.39506 0.95051 0.23318 0.0
H553 H 0.35015 0.93386 0.25312 0.0
H554 H 0.37668 0.88718 0.30185 0.0
H555 H 0.42134 0.90355 0.28241 0.0
N556 N 0.45764 0.92811 0.25203 0.0
N557 N 0.48854 0.95264 0.22254 0.0
N558 N 0.44527 0.95451 0.22493 0.0
C559 C 0.48235 0.93542 0.24145 0.0
C560 C 0.47015 0.9623 0.21413 0.0
C561 C 0.43902 0.93755 0.24408 0.0
C562 C 0.50157 0.92366 0.25013 0.0
C563 C 0.49206 0.90138 0.26681 0.0
C564 C 0.50989 0.89017 0.27524 0.0
C565 C 0.53767 0.90108 0.26732 0.0
C566 C 0.54733 0.92316 0.2506 0.0
C567 C 0.52936 0.93427 0.24197 0.0
C568 C 0.47627 0.97903 0.19229 0.0
C569 C 0.50415 0.99202 0.18382 0.0
C570 C 0.50891 0.00382 0.16155 0.0
C571 C 0.48585 0.00263 0.14729 0.0
C572 C 0.45849 0.99142 0.15623 0.0
C573 C 0.45378 0.97993 0.17861 0.0
C574 C 0.41193 0.9284 0.25609 0.0
C575 C 0.39143 0.93682 0.24819 0.0
C576 C 0.08138 0.43615 0.26747 0.0
C577 C 0.10167 0.4479 0.28776 0.0
C578 C 0.11356 0.47903 0.29689 0.0
C579 C 0.10603 0.49849 0.28544 0.0
H580 H 0.11749 0.58543 0.29251 0.0
H581 H 0.13237 0.63712 0.3117 0.0
H582 H 0.08865 0.65344 0.2525 0.0
H583 H 0.0739 0.60191 0.2329 0.0
H584 H 0.0892 0.55918 0.17941 0.0
H585 H 0.06981 0.54818 0.13744 0.0
H586 H 0.00135 0.45707 0.15132 0.0
H587 H 0.02181 0.46742 0.19321 0.0
H588 H 0.05908 0.44625 0.23978 0.0
H589 H 0.07203 0.41213 0.26019 0.0
H590 H 0.12935 0.48849 0.31247 0.0
H591 H 0.11622 0.52266 0.2926 0.0
N592 N 0.08917 0.5375 0.26153 0.0
N593 N 0.07547 0.55059 0.22583 0.0
N594 N 0.07024 0.50107 0.22773 0.0
C595 C 0.08605 0.5584 0.24918 0.0
C596 C 0.06748 0.52198 0.21504 0.0
C597 C 0.08133 0.50884 0.25101 0.0
C598 C 0.09457 0.58951 0.26106 0.0
C599 C 0.11088 0.59988 0.28355 0.0
C600 C 0.11939 0.62939 0.2946 0.0
C601 C 0.11151 0.64894 0.28353 0.0
C602 C 0.09486 0.63856 0.26131 0.0
C603 C 0.08658 0.60917 0.25011 0.0
C604 C 0.05678 0.51424 0.1895 0.0
C605 C 0.07029 0.53663 0.1734 0.0
C606 C 0.05935 0.5303 0.14943 0.0
C607 C 0.03406 0.50185 0.14126 0.0
C608 C 0.02098 0.47906 0.1572 0.0
C609 C 0.03256 0.48505 0.18109 0.0
C610 C 0.08678 0.48725 0.26442 0.0
C611 C 0.07414 0.45571 0.25579 0.0
C612 C 0.54951 0.63207 0.27215 0.0
C613 C 0.54238 0.64271 0.2932 0.0
C614 C 0.5122 0.62996 0.29579 0.0
C615 C 0.4909 0.60455 0.28058 0.0
H616 H 0.39628 0.53667 0.26442 0.0
H617 H 0.3529 0.50419 0.28485 0.0
H618 H 0.35869 0.42314 0.26305 0.0
H619 H 0.40128 0.45539 0.24155 0.0
H620 H 0.42456 0.49177 0.17279 0.0
H621 H 0.4374 0.48388 0.13272 0.0
H622 H 0.529 0.53905 0.15757 0.0
H623 H 0.51654 0.54751 0.19724 0.0
H624 H 0.53501 0.59889 0.24146 0.0
H625 H 0.57158 0.6432 0.267 0.0
H626 H 0.50421 0.63944 0.30907 0.0
H627 H 0.46814 0.59485 0.28385 0.0
N628 N 0.44984 0.54549 0.25409 0.0
N629 N 0.43595 0.51003 0.21994 0.0
N630 N 0.48254 0.55512 0.22511 0.0
C631 C 0.42965 0.51858 0.24119 0.0
C632 C 0.46242 0.5285 0.2117 0.0
C633 C 0.47638 0.56382 0.24627 0.0
C634 C 0.40187 0.49841 0.25127 0.0
C635 C 0.38796 0.51182 0.26369 0.0
C636 C 0.36334 0.49338 0.27546 0.0
C637 C 0.35274 0.46133 0.27567 0.0
C638 C 0.36656 0.44785 0.26314 0.0
C639 C 0.39067 0.46617 0.25072 0.0
C640 C 0.46953 0.52046 0.18817 0.0
C641 C 0.44742 0.50181 0.16978 0.0
C642 C 0.45468 0.49727 0.14691 0.0
C643 C 0.48415 0.51086 0.14224 0.0
C644 C 0.50615 0.52834 0.16082 0.0
C645 C 0.49895 0.53324 0.18348 0.0
C646 C 0.49876 0.59214 0.26131 0.0
C647 C 0.52822 0.60691 0.25677 0.0
Tb648 Tb 0.52376 0.02168 0.00591 0.0
C649 C 0.50942 0.95501 0.02025 0.0
Tb650 Tb 0.45914 0.96997 0.00611 0.0
O651 O 0.52313 0.0437 0.04075 0.0
O652 O 0.49516 0.99702 0.03156 0.0
O653 O 0.52938 0.98225 0.01355 0.0
C654 C 0.40514 0.94455 0.02021 0.0
O655 O 0.4814 0.94668 0.0211 0.0
C656 C 0.48168 0.97179 0.96569 0.0
C657 C 0.47518 0.03795 0.99148 0.0
O658 O 0.41591 0.92914 0.00953 0.0
O659 O 0.42473 0.9739 0.0227 0.0
O660 O 0.45856 0.94708 0.97142 0.0
O661 O 0.4873 0.99412 0.98075 0.0
O662 O 0.4549 0.00996 0.99676 0.0
O663 O 0.50342 0.04706 0.99255 0.0
C664 C 0.5751 0.05248 0.98775 0.0
O665 O 0.55306 0.02604 0.97892 0.0
O666 O 0.56869 0.06165 0.00744 0.0
C667 C 0.50032 0.01892 0.04692 0.0
Tb668 Tb 0.97206 0.50038 1.00106 0.0
C669 C 0.03739 0.55121 0.02054 0.0
Tb670 Tb 0.0192 0.48091 0.00627 0.0
O671 O 0.97066 0.50791 0.03915 0.0
O672 O 0.98531 0.47876 0.02569 0.0
O673 O 0.01128 0.54578 0.01161 0.0
C674 C 0.05702 0.46561 0.0247 0.0
O675 O 0.04465 0.52934 0.02084 0.0
C676 C 0.00695 0.49103 0.96307 0.0
C677 C 0.95376 0.42859 0.99078 0.0
O678 O 0.03285 0.45996 0.03327 0.0
O679 O 0.0602 0.4802 0.00575 0.0
O680 O 0.01811 0.47356 0.96742 0.0
O681 O 0.00735 0.50509 0.98255 0.0
O682 O 0.98078 0.43493 0.99725 0.0
O683 O 0.94556 0.4499 0.99116 0.0
C684 C 0.9376 0.51816 0.97975 0.0
O685 O 0.93755 0.51232 1.00189 0.0
O686 O 0.95658 0.5135 0.96958 0.0
C687 C 0.98417 0.49301 0.04464 0.0
Tb688 Tb 0.47398 0.4948 0.01256 0.0
C689 C 0.48771 0.44237 0.99325 0.0
Tb690 Tb 0.53802 0.51324 0.00415 0.0
O691 O 0.47062 0.51736 0.98093 0.0
O692 O 0.49871 0.5 0.98345 0.0
O693 O 0.46808 0.44897 1.00142 0.0
C694 C 0.58616 0.52914 0.98268 0.0
O695 O 0.51583 0.46355 0.99245 0.0
C696 C 0.52552 0.50999 0.04887 0.0
C697 C 0.52371 0.56514 0.02017 0.0
O698 O 0.57809 0.51151 1.00017 0.0
O699 O 0.56728 0.53766 0.97743 0.0
O700 O 0.5519 0.52674 0.04267 0.0
O701 O 0.50914 0.49384 0.03056 0.0
O702 O 0.53968 0.55795 0.00683 0.0
O703 O 0.49872 0.54347 0.02742 0.0
C704 C 0.42407 0.47218 0.03299 0.0
O705 O 0.45009 0.48785 0.04416 0.0
O706 O 0.42606 0.4694 0.0102 0.0
C707 C 0.49162 0.51576 0.97111 0.0
Tb708 Tb 0.19529 0.35768 0.33894 0.0
C709 C 0.18361 0.2917 0.35239 0.0
Tb710 Tb 0.13313 0.30505 0.33885 0.0
O711 O 0.19536 0.37937 0.374 0.0
O712 O 0.16824 0.33249 0.36533 0.0
O713 O 0.20181 0.31803 0.34366 0.0
C714 C 0.07819 0.27093 0.35057 0.0
O715 O 0.15618 0.28372 0.35528 0.0
C716 C 0.15525 0.31 0.29673 0.0
C717 C 0.1446 0.37152 0.32641 0.0
O718 O 0.09176 0.26044 0.33788 0.0
O719 O 0.09521 0.3006 0.35599 0.0
O720 O 0.13633 0.28403 0.30453 0.0
O721 O 0.15941 0.33123 0.31236 0.0
O722 O 0.12589 0.3441 0.33353 0.0
O723 O 0.17239 0.38016 0.32416 0.0
C724 C 0.25004 0.38866 0.32551 0.0
O725 O 0.23571 0.40142 0.33397 0.0
O726 O 0.23382 0.3588 0.32548 0.0
C727 C 0.17305 0.35451 0.38044 0.0
Tb728 Tb 0.63879 0.835 0.33414 0.0
C729 C 0.70305 0.89116 0.35399 0.0
Tb730 Tb 0.69258 0.82337 0.34276 0.0
O731 O 0.62799 0.83319 0.37177 0.0
O732 O 0.66118 0.82696 0.36104 0.0
O733 O 0.67597 0.88221 0.3448 0.0
C734 C 0.728 0.80632 0.36283 0.0
O735 O 0.71376 0.87221 0.35541 0.0
C736 C 0.68366 0.83833 0.3003 0.0
C737 C 0.62762 0.76614 0.32952 0.0
O738 O 0.71969 0.82401 0.37342 0.0
O739 O 0.7167 0.79844 0.34075 0.0
O740 O 0.70892 0.84267 0.30887 0.0
O741 O 0.66523 0.82335 0.31446 0.0
O742 O 0.65458 0.77628 0.33949 0.0
O743 O 0.61764 0.78495 0.32356 0.0
C744 C 0.60623 0.85272 0.31018 0.0
O745 O 0.59692 0.8326 0.32597 0.0
O746 O 0.6337 0.86274 0.30786 0.0
C747 C 0.64915 0.82856 0.37917 0.0
Tb748 Tb 0.1367 0.82789 0.34015 0.0
C749 C 0.15134 0.7741 0.3259 0.0
Tb750 Tb 0.20057 0.84384 0.34068 0.0
O751 O 0.13677 0.84544 0.3055 0.0
O752 O 0.1647 0.82906 0.31466 0.0
O753 O 0.13128 0.78153 0.33123 0.0
C754 C 0.25346 0.86624 0.32516 0.0
O755 O 0.17963 0.79509 0.32675 0.0
C756 C 0.17652 0.82806 0.38149 0.0
C757 C 0.18713 0.89832 0.35265 0.0
O758 O 0.24474 0.84983 0.34326 0.0
O759 O 0.2327 0.87015 0.31626 0.0
O760 O 0.19891 0.82576 0.37568 0.0
O761 O 0.17223 0.84288 0.36604 0.0
O762 O 0.20695 0.89068 0.34726 0.0
O763 O 0.15894 0.87749 0.3531 0.0
C764 C 0.08348 0.80211 0.35534 0.0
O765 O 0.09317 0.82293 0.34013 0.0
O766 O 0.1035 0.79559 0.36163 0.0
C767 C 0.15918 0.84341 0.29943 0.0
Tb768 Tb 0.86352 0.68967 0.67166 0.0
C769 C 0.85314 0.62462 0.68652 0.0
Tb770 Tb 0.80083 0.63623 0.67374 0.0
O771 O 0.86353 0.71224 0.70645 0.0
O772 O 0.8372 0.66516 0.69871 0.0
O773 O 0.87128 0.65124 0.67799 0.0
C774 C 0.74674 0.6034 0.68763 0.0
O775 O 0.82546 0.61594 0.6894 0.0
C776 C 0.822 0.63823 0.6321 0.0
C777 C 0.81194 0.70147 0.65851 0.0
O778 O 0.76007 0.5918 0.67583 0.0
O779 O 0.7636 0.63336 0.69109 0.0
O780 O 0.80047 0.61323 0.63905 0.0
O781 O 0.82705 0.6606 0.64682 0.0
O782 O 0.79439 0.67592 0.66859 0.0
O783 O 0.83894 0.7087 0.65437 0.0
C784 C 0.91671 0.72394 0.65695 0.0
O785 O 0.90255 0.73506 0.66806 0.0
O786 O 0.90125 0.69386 0.65465 0.0
C787 C 0.84193 0.68734 0.71358 0.0
Tb788 Tb 0.31473 0.17505 0.66817 0.0
C789 C 0.37779 0.22872 0.69051 0.0
Tb790 Tb 0.36319 0.15896 0.67868 0.0
O791 O 0.29161 0.15043 0.69828 0.0
O792 O 0.33639 0.16996 0.69843 0.0
O793 O 0.3514 0.22143 0.68086 0.0
C794 C 0.4017 0.14737 0.70061 0.0
O795 O 0.38679 0.20821 0.69189 0.0
C796 C 0.35138 0.163 0.63356 0.0
C797 C 0.29964 0.10547 0.66057 0.0
O798 O 0.40711 0.16522 0.68339 0.0
O799 O 0.37474 0.13595 0.70531 0.0
O800 O 0.36257 0.14643 0.64046 0.0
O801 O 0.35074 0.17866 0.65158 0.0
O802 O 0.32356 0.11322 0.67465 0.0
O803 O 0.29396 0.12673 0.65276 0.0
C804 C 0.28335 0.19717 0.64794 0.0
O805 O 0.29373 0.18197 0.63659 0.0
O806 O 0.29034 0.19966 0.6707 0.0
C807 C 0.31494 0.153 0.70954 0.0
Tb808 Tb 0.81085 0.16037 0.68001 0.0
C809 C 0.82432 0.10862 0.65911 0.0
Tb810 Tb 0.87485 0.17957 0.67033 0.0
O811 O 0.79548 0.15289 0.64209 0.0
O812 O 0.83941 0.18191 0.65389 0.0
O813 O 0.80455 0.11485 0.66749 0.0
C814 C 0.92336 0.19507 0.6491 0.0
O815 O 0.85245 0.12989 0.65892 0.0
C816 C 0.8617 0.17209 0.71482 0.0
C817 C 0.86193 0.23143 0.68805 0.0
O818 O 0.92086 0.19206 0.67171 0.0
O819 O 0.89848 0.18872 0.63848 0.0
O820 O 0.88806 0.19029 0.70909 0.0
O821 O 0.84567 0.15723 0.69603 0.0
O822 O 0.8779 0.22474 0.67426 0.0
O823 O 0.83679 0.20939 0.695 0.0
C824 C 0.76464 0.14492 0.70415 0.0
O825 O 0.78305 0.13527 0.70747 0.0
O826 O 0.77207 0.16329 0.68717 0.0
C827 C 0.82186 0.16796 0.63544 0.0
C828 C 0.34348 0.93299 0.05763 0.0
C829 C 0.31996 0.90495 0.04614 0.0
C830 C 0.35015 0.90958 0.0134 0.0
C831 C 0.37548 0.93144 0.02859 0.0
N832 N 0.3955 0.9634 0.06662 0.0
N833 N 0.29748 0.88556 0.00614 0.0
C834 C 0.37199 0.94332 0.051 0.0
C835 C 0.32201 0.89819 0.02179 0.0
N836 N 0.33812 0.95229 0.07186 0.0
N837 N 0.35269 0.89992 0.99096 0.0
H838 H 0.27756 0.88188 0.01158 0.0
H839 H 0.29765 0.88271 0.98773 0.0
H840 H 0.37226 0.90994 0.983 0.0
H841 H 0.33534 0.88111 0.98053 0.0
H842 H 0.35457 0.97445 0.07899 0.0
H843 H 0.31681 0.9477 0.07342 0.0
H844 H 0.39314 0.97018 0.08382 0.0
H845 H 0.41706 0.97078 0.06353 0.0
C846 C 0.10802 0.45758 0.06993 0.0
C847 C 0.11374 0.43652 0.05649 0.0
C848 C 0.0835 0.43582 0.02168 0.0
C849 C 0.0775 0.45658 0.03522 0.0
N850 N 0.0866 0.49083 0.07063 0.0
N851 N 0.10499 0.40264 0.02096 0.0
C852 C 0.09027 0.46827 0.05901 0.0
C853 C 0.10121 0.42509 0.03262 0.0
N854 N 0.11923 0.46684 0.09328 0.0
N855 N 0.07222 0.42636 0.99836 0.0
H856 H 0.1178 0.39423 0.02839 0.0
H857 H 0.09421 0.39075 0.00451 0.0
H858 H 0.0573 0.43159 0.99023 0.0
H859 H 0.07839 0.41439 0.98652 0.0
H860 H 0.11344 0.4792 0.1051 0.0
H861 H 0.13367 0.46094 0.10143 0.0
H862 H 0.09705 0.50243 0.08724 0.0
H863 H 0.07438 0.4998 0.06299 0.0
C864 C 0.52059 0.63682 0.04195 0.0
C865 C 0.55054 0.65914 0.04802 0.0
C866 C 0.56406 0.62065 0.03493 0.0
C867 C 0.53397 0.59861 0.02755 0.0
N868 N 0.48592 0.59084 0.01641 0.0
N869 N 0.60101 0.67514 0.04397 0.0
C870 C 0.5129 0.60822 0.02878 0.0
C871 C 0.57234 0.65195 0.04244 0.0
N872 N 0.49937 0.64241 0.04934 0.0
N873 N 0.58467 0.61182 0.03631 0.0
H874 H 0.60789 0.69836 0.04935 0.0
H875 H 0.61747 0.67188 0.03758 0.0
H876 H 0.58041 0.58928 0.03206 0.0
H877 H 0.6059 0.6264 0.04426 0.0
H878 H 0.47723 0.62544 0.04749 0.0
H879 H 0.50403 0.66298 0.05923 0.0
H880 H 0.47069 0.59821 0.01517 0.0
H881 H 0.48024 0.57112 0.00489 0.0
C882 C 0.9079 0.35845 0.94593 0.0
C883 C 0.88806 0.33654 0.96038 0.0
C884 C 0.91012 0.37589 0.99499 0.0
C885 C 0.93192 0.39631 0.98096 0.0
N886 N 0.95561 0.40337 0.94451 0.0
N887 N 0.87345 0.32246 0.99968 0.0
C888 C 0.9321 0.38645 0.9569 0.0
C889 C 0.88997 0.34471 0.98525 0.0
N890 N 0.90297 0.35324 0.92162 0.0
N891 N 0.9086 0.38627 0.01752 0.0
H892 H 0.85898 0.29929 0.99325 0.0
H893 H 0.876 0.32631 0.01821 0.0
H894 H 0.92361 0.4086 0.02543 0.0
H895 H 0.89134 0.37354 0.02768 0.0
H896 H 0.91521 0.37003 0.91036 0.0
H897 H 0.88474 0.3336 0.91273 0.0
H898 H 0.95794 0.39549 0.9277 0.0
H899 H 0.9741 0.42373 0.95196 0.0
C900 C 0.66631 0.57427 0.97152 0.0
C901 C 0.66497 0.5626 0.94766 0.0
C902 C 0.61164 0.52965 0.94649 0.0
C903 C 0.61335 0.53947 0.97095 0.0
N904 N 0.64205 0.56864 0.00768 0.0
N905 N 0.63748 0.52671 0.91309 0.0
C906 C 0.64065 0.56094 0.98378 0.0
C907 C 0.6379 0.53969 0.93525 0.0
N908 N 0.69195 0.59896 0.98211 0.0
N909 N 0.5849 0.51076 0.93401 0.0
H910 H 0.65623 0.53379 0.90418 0.0
H911 H 0.61902 0.5075 0.90413 0.0
H912 H 0.56527 0.50125 0.94193 0.0
H913 H 0.5819 0.50587 0.91555 0.0
H914 H 0.69375 0.61084 0.99848 0.0
H915 H 0.71117 0.60945 0.97362 0.0
H916 H 0.66158 0.58116 0.01862 0.0
H917 H 0.62361 0.56084 0.01707 0.0
C918 C 0.46651 0.09062 0.94955 0.0
C919 C 0.44565 0.09573 0.96055 0.0
C920 C 0.44702 0.06622 0.99344 0.0
C921 C 0.46539 0.05828 0.98109 0.0
N922 N 0.48751 0.05762 0.94475 0.0
N923 N 0.41236 0.08446 0.99095 0.0
C924 C 0.47381 0.06906 0.95843 0.0
C925 C 0.43483 0.0824 0.98195 0.0
N926 N 0.48008 0.10706 0.93103 0.0
N927 N 0.44217 0.05945 0.01647 0.0
H928 H 0.40288 0.0961 0.98299 0.0
H929 H 0.40146 0.0724 0.00504 0.0
H930 H 0.45135 0.04837 0.02571 0.0
H931 H 0.4314 0.06743 0.02717 0.0
H932 H 0.4978 0.10679 0.9241 0.0
H933 H 0.47555 0.12328 0.92403 0.0
H934 H 0.49099 0.06198 0.92704 0.0
H935 H 0.49277 0.04124 0.9501 0.0
C936 C 0.65394 0.09695 0.97181 0.0
C937 C 0.64936 0.10226 0.94789 0.0
C938 C 0.59677 0.07864 0.95155 0.0
C939 C 0.60103 0.07114 0.9748 0.0
N940 N 0.63266 0.06943 0.00615 0.0
N941 N 0.61645 0.09482 0.91373 0.0
C942 C 0.62938 0.07945 0.98478 0.0
C943 C 0.62073 0.092 0.93736 0.0
N944 N 0.68183 0.10897 0.98221 0.0
N945 N 0.57007 0.07435 0.94347 0.0
H946 H 0.63359 0.10549 0.90299 0.0
H947 H 0.59589 0.08459 0.90428 0.0
H948 H 0.55217 0.06553 0.95357 0.0
H949 H 0.5662 0.08206 0.92768 0.0
H950 H 0.68687 0.10929 1.00034 0.0
H951 H 0.70031 0.12036 0.97293 0.0
H952 H 0.65219 0.07154 0.01318 0.0
H953 H 0.61522 0.05689 0.01624 0.0
C954 C 0.90852 0.57265 0.9685 0.0
C955 C 0.89106 0.5582 0.9466 0.0
C956 C 0.90242 0.51623 0.94738 0.0
C957 C 0.92131 0.53171 0.9685 0.0
N958 N 0.94731 0.5778 0.99642 0.0
N959 N 0.87476 0.51931 0.91304 0.0
C960 C 0.9257 0.56077 0.97838 0.0
C961 C 0.8891 0.53092 0.93534 0.0
N962 N 0.90822 0.59736 0.98009 0.0
N963 N 0.89616 0.48687 0.93946 0.0
H964 H 0.86423 0.52915 0.90393 0.0
H965 H 0.87524 0.50155 0.90278 0.0
H966 H 0.90508 0.47514 0.94808 0.0
H967 H 0.88027 0.47302 0.9256 0.0
H968 H 0.91761 0.60644 0.99746 0.0
H969 H 0.8968 0.60752 0.97299 0.0
H970 H 0.95367 0.60063 1.00256 0.0
H971 H 0.9609 0.57034 0.00385 0.0
C972 C 0.4483 0.35364 0.98312 0.0
C973 C 0.45749 0.3496 0.96068 0.0
C974 C 0.4833 0.40599 0.95852 0.0
C975 C 0.47716 0.41034 0.98221 0.0
N976 N 0.45766 0.38834 0.01856 0.0
N977 N 0.48855 0.37219 0.92918 0.0
C978 C 0.46065 0.38416 0.99495 0.0
C979 C 0.47643 0.37587 0.94901 0.0
N980 N 0.42707 0.32846 0.99278 0.0
N981 N 0.49426 0.43023 0.94457 0.0
H982 H 0.48438 0.35052 0.92178 0.0
H983 H 0.5049 0.39087 0.92147 0.0
H984 H 0.49845 0.45247 0.95031 0.0
H985 H 0.49619 0.42746 0.92643 0.0
H986 H 0.41726 0.33037 0.0078 0.0
H987 H 0.41734 0.30578 0.98457 0.0
H988 H 0.44852 0.37013 0.02936 0.0
H989 H 0.46671 0.41026 0.02796 0.0
C990 C 0.09884 0.61898 0.06146 0.0
C991 C 0.09978 0.64468 0.05119 0.0
C992 C 0.06417 0.60932 0.01848 0.0
C993 C 0.05971 0.58336 0.03074 0.0
N994 N 0.07035 0.56432 0.06647 0.0
N995 N 0.08035 0.66439 0.02169 0.0
C996 C 0.07646 0.58835 0.05289 0.0
C997 C 0.08157 0.63989 0.03019 0.0
N998 N 0.11982 0.62375 0.07905 0.0
N999 N 0.05324 0.605 0.99521 0.0
H1000 H 0.09281 0.68715 0.02977 0.0
H1001 H 0.06512 0.66163 0.00791 0.0
H1002 H 0.04221 0.58322 0.98537 0.0
H1003 H 0.05813 0.62335 0.98485 0.0
H1004 H 0.12214 0.60574 0.0853 0.0
H1005 H 0.13676 0.64586 0.08576 0.0
H1006 H 0.07956 0.56763 0.08393 0.0
H1007 H 0.05401 0.54141 0.06159 0.0
C1008 C 0.36582 0.46455 0.07324 0.0
C1009 C 0.34324 0.43355 0.06597 0.0
C1010 C 0.37535 0.42661 0.03972 0.0
C1011 C 0.39646 0.45878 0.04464 0.0
N1012 N 0.41023 0.5096 0.06361 0.0
N1013 N 0.32487 0.38577 0.04049 0.0
C1014 C 0.39143 0.47808 0.06091 0.0
C1015 C 0.34756 0.41472 0.04873 0.0
N1016 N 0.36288 0.48092 0.09213 0.0
N1017 N 0.38231 0.40711 0.02739 0.0
H1018 H 0.30443 0.37589 0.04715 0.0
H1019 H 0.32564 0.37245 0.02592 0.0
H1020 H 0.40275 0.41468 0.02114 0.0
H1021 H 0.36893 0.38297 0.02541 0.0
H1022 H 0.37984 0.50235 0.09995 0.0
H1023 H 0.34425 0.47181 0.1014 0.0
H1024 H 0.40603 0.52518 0.07325 0.0
H1025 H 0.42879 0.52067 0.05441 0.0
C1026 C 0.53557 0.89725 0.02776 0.0
C1027 C 0.54028 0.89961 0.05303 0.0
C1028 C 0.52786 0.94073 0.05628 0.0
C1029 C 0.51988 0.93576 0.03135 0.0
N1030 N 0.51073 0.90516 0.99391 0.0
N1031 N 0.5341 0.91846 0.09147 0.0
C1032 C 0.52207 0.91273 0.01722 0.0
C1033 C 0.53447 0.91989 0.06737 0.0
N1034 N 0.54501 0.88131 0.01381 0.0
N1035 N 0.52996 0.96585 0.06933 0.0
H1036 H 0.53788 0.90278 0.10026 0.0
H1037 H 0.52705 0.93053 0.10237 0.0
H1038 H 0.52614 0.98218 0.06172 0.0
H1039 H 0.53833 0.97217 0.08718 0.0
H1040 H 0.54468 0.88143 0.99535 0.0
H1041 H 0.55584 0.87049 0.02083 0.0
H1042 H 0.50928 0.88649 0.98334 0.0
H1043 H 0.50016 0.91566 0.98587 0.0
C1044 C 0.0009 0.24298 0.36789 0.0
C1045 C 0.99849 0.22168 0.38449 0.0
C1046 C 0.04645 0.22908 0.37605 0.0
C1047 C 0.04982 0.25207 0.36065 0.0
N1048 N 0.0315 0.28256 0.34277 0.0
N1049 N 0.01936 0.19623 0.40639 0.0
C1050 C 0.02737 0.25948 0.35684 0.0
C1051 C 0.02133 0.21511 0.38903 0.0
N1052 N 0.97756 0.24684 0.36232 0.0
N1053 N 0.06731 0.22066 0.37844 0.0
H1054 H 0.00094 0.18475 0.41571 0.0
H1055 H 0.03655 0.19341 0.41282 0.0
H1056 H 0.08715 0.23178 0.37097 0.0
H1057 H 0.06446 0.20139 0.3868 0.0
H1058 H 0.97639 0.25917 0.34846 0.0
H1059 H 0.9583 0.23606 0.37073 0.0
H1060 H 0.01795 0.29204 0.34166 0.0
H1061 H 0.04937 0.29333 0.33275 0.0
C1062 C 0.75492 0.75348 0.38466 0.0
C1063 C 0.78163 0.7757 0.39787 0.0
C1064 C 0.77425 0.8181 0.38642 0.0
C1065 C 0.74653 0.79575 0.37465 0.0
N1066 N 0.70767 0.74214 0.36673 0.0
N1067 N 0.81455 0.8284 0.41502 0.0
C1068 C 0.73606 0.76339 0.37484 0.0
C1069 C 0.79064 0.80782 0.39988 0.0
N1070 N 0.7479 0.72305 0.381 0.0
N1071 N 0.78554 0.84907 0.38381 0.0
H1072 H 0.82729 0.82173 0.42498 0.0
H1073 H 0.82034 0.85152 0.41925 0.0
H1074 H 0.77451 0.85755 0.37368 0.0
H1075 H 0.80692 0.86613 0.38984 0.0
H1076 H 0.73042 0.70652 0.36925 0.0
H1077 H 0.76088 0.71478 0.38834 0.0
H1078 H 0.69793 0.71846 0.3688 0.0
H1079 H 0.69289 0.74842 0.35992 0.0
C1080 C 0.2096 0.96743 0.39787 0.0
C1081 C 0.21723 0.99174 0.38287 0.0
C1082 C 0.20203 0.95393 0.34766 0.0
C1083 C 0.19774 0.93057 0.36278 0.0
N1084 N 0.20389 0.91677 0.4021 0.0
N1085 N 0.22573 0.00927 0.34353 0.0
C1086 C 0.20343 0.9378 0.38785 0.0
C1087 C 0.21483 0.98534 0.35772 0.0
N1088 N 0.20709 0.9722 0.42153 0.0
N1089 N 0.19333 0.94602 0.32384 0.0
H1090 H 0.23584 0.03262 0.35029 0.0
H1091 H 0.22718 0.00617 0.32534 0.0
H1092 H 0.1837 0.92316 0.31603 0.0
H1093 H 0.19328 0.96157 0.31229 0.0
H1094 H 0.19866 0.95428 0.43265 0.0
H1095 H 0.21053 0.99333 0.42951 0.0
H1096 H 0.21062 0.92199 0.42029 0.0
H1097 H 0.2005 0.89521 0.39533 0.0
C1098 C 0.56012 0.68537 0.32848 0.0
C1099 C 0.56621 0.66922 0.31029 0.0
C1100 C 0.61641 0.71273 0.31253 0.0
C1101 C 0.60759 0.73194 0.325 0.0
N1102 N 0.57212 0.73506 0.34863 0.0
N1103 N 0.60552 0.65976 0.30345 0.0
C1104 C 0.57973 0.71784 0.33415 0.0
C1105 C 0.59613 0.68041 0.3077 0.0
N1106 N 0.53931 0.66893 0.34327 0.0
N1107 N 0.64332 0.72505 0.30412 0.0
H1108 H 0.59118 0.63574 0.30276 0.0
H1109 H 0.62756 0.66639 0.3037 0.0
H1110 H 0.65944 0.74841 0.3071 0.0
H1111 H 0.64886 0.71208 0.29261 0.0
H1112 H 0.53552 0.67919 0.35825 0.0
H1113 H 0.52925 0.6447 0.34255 0.0
H1114 H 0.55084 0.72655 0.35326 0.0
H1115 H 0.58681 0.75803 0.35541 0.0
C1116 C 0.3336 0.91253 0.31357 0.0
C1117 C 0.33276 0.89833 0.29074 0.0
C1118 C 0.2799 0.86271 0.29073 0.0
C1119 C 0.28108 0.87582 0.31411 0.0
N1120 N 0.30912 0.91001 0.34926 0.0
N1121 N 0.30658 0.85699 0.25905 0.0
C1122 C 0.30802 0.89967 0.32603 0.0
C1123 C 0.30627 0.87266 0.27967 0.0
N1124 N 0.3586 0.93906 0.32287 0.0
N1125 N 0.25353 0.84073 0.27907 0.0
H1126 H 0.32539 0.86368 0.25031 0.0
H1127 H 0.28881 0.83601 0.25145 0.0
H1128 H 0.23401 0.83078 0.28716 0.0
H1129 H 0.2506 0.83331 0.26099 0.0
H1130 H 0.35988 0.95252 0.3382 0.0
H1131 H 0.37769 0.94916 0.3142 0.0
H1132 H 0.32853 0.92486 0.35983 0.0
H1133 H 0.29064 0.902 0.35864 0.0
C1134 C 0.12938 0.41958 0.2845 0.0
C1135 C 0.1125 0.42837 0.29809 0.0
C1136 C 0.11869 0.402 0.33143 0.0
C1137 C 0.13294 0.39062 0.3168 0.0
N1138 N 0.14394 0.38136 0.27722 0.0
N1139 N 0.08687 0.4239 0.33305 0.0
C1140 C 0.13613 0.39742 0.29271 0.0
C1141 C 0.10593 0.41845 0.32121 0.0
N1142 N 0.13971 0.43298 0.26404 0.0
N1143 N 0.11814 0.39797 0.35519 0.0
H1144 H 0.07703 0.4357 0.32603 0.0
H1145 H 0.07892 0.41445 0.34886 0.0
H1146 H 0.12732 0.38613 0.36327 0.0
H1147 H 0.11077 0.40855 0.36724 0.0
H1148 H 0.15459 0.42959 0.25485 0.0
H1149 H 0.13585 0.44991 0.25757 0.0
H1150 H 0.14404 0.38345 0.25895 0.0
H1151 H 0.14666 0.3631 0.28212 0.0
C1152 C 0.30129 0.41687 0.2764 0.0
C1153 C 0.32703 0.44184 0.28891 0.0
C1154 C 0.30255 0.43159 0.32587 0.0
C1155 C 0.2776 0.40508 0.31364 0.0
N1156 N 0.25767 0.36745 0.27846 0.0
N1157 N 0.35458 0.46827 0.32667 0.0
C1158 C 0.27835 0.39599 0.28936 0.0
C1159 C 0.32837 0.44794 0.314 0.0
N1160 N 0.29802 0.41385 0.25201 0.0
N1161 N 0.3018 0.44098 0.34894 0.0
H1162 H 0.37412 0.47983 0.31874 0.0
H1163 H 0.3575 0.47134 0.34523 0.0
H1164 H 0.28442 0.42817 0.35899 0.0
H1165 H 0.31785 0.46228 0.35772 0.0
H1166 H 0.27848 0.39789 0.24202 0.0
H1167 H 0.31374 0.4294 0.24174 0.0
H1168 H 0.25933 0.35902 0.26162 0.0
H1169 H 0.24054 0.35062 0.28677 0.0
C1170 C 0.56918 0.90034 0.3016 0.0
C1171 C 0.55695 0.89017 0.27757 0.0
C1172 C 0.58011 0.85823 0.27413 0.0
C1173 C 0.58937 0.86561 0.29887 0.0
N1174 N 0.59136 0.89183 0.33687 0.0
N1175 N 0.5478 0.85701 0.24146 0.0
C1176 C 0.58343 0.88607 0.31283 0.0
C1177 C 0.56178 0.86861 0.26387 0.0
N1178 N 0.56808 0.92449 0.31337 0.0
N1179 N 0.58892 0.84141 0.26045 0.0
H1180 H 0.53429 0.86412 0.23332 0.0
H1181 H 0.54781 0.83871 0.23156 0.0
H1182 H 0.60123 0.83224 0.26756 0.0
H1183 H 0.58581 0.83835 0.2419 0.0
H1184 H 0.57922 0.93525 0.33 0.0
H1185 H 0.55814 0.93579 0.30559 0.0
H1186 H 0.58446 0.90336 0.34846 0.0
H1187 H 0.60345 0.88345 0.34561 0.0
C1188 C 0.11043 0.68542 0.31582 0.0
C1189 C 0.12183 0.68092 0.29471 0.0
C1190 C 0.15005 0.73731 0.29281 0.0
C1191 C 0.14127 0.74199 0.31534 0.0
N1192 N 0.11718 0.72047 0.35035 0.0
N1193 N 0.15722 0.70263 0.26592 0.0
C1194 C 0.12253 0.71602 0.32744 0.0
C1195 C 0.14305 0.70689 0.28403 0.0
N1196 N 0.08748 0.66061 0.32438 0.0
N1197 N 0.16376 0.76153 0.27913 0.0
H1198 H 0.15303 0.68072 0.25911 0.0
H1199 H 0.1751 0.72097 0.25925 0.0
H1200 H 0.16854 0.78411 0.2843 0.0
H1201 H 0.16761 0.75858 0.26152 0.0
H1202 H 0.07625 0.66294 0.33821 0.0
H1203 H 0.07794 0.63789 0.31628 0.0
H1204 H 0.1061 0.70229 0.36087 0.0
H1205 H 0.1262 0.74247 0.35968 0.0
C1206 C 0.75862 0.95925 0.39747 0.0
C1207 C 0.76106 0.98506 0.38628 0.0
C1208 C 0.72665 0.94962 0.35282 0.0
C1209 C 0.72206 0.9237 0.36519 0.0
N1210 N 0.72851 0.9047 0.40231 0.0
N1211 N 0.74364 0.00499 0.35548 0.0
C1212 C 0.73655 0.92876 0.38839 0.0
C1213 C 0.74391 0.9803 0.36459 0.0
N1214 N 0.77808 0.96368 0.41629 0.0
N1215 N 0.71585 0.94522 0.32951 0.0
H1216 H 0.75602 0.02773 0.36363 0.0
H1217 H 0.72925 0.00253 0.3411 0.0
H1218 H 0.7037 0.92331 0.32001 0.0
H1219 H 0.72123 0.96343 0.31891 0.0
H1220 H 0.77927 0.94542 0.42335 0.0
H1221 H 0.79496 0.98562 0.42339 0.0
H1222 H 0.73606 0.90787 0.42026 0.0
H1223 H 0.71198 0.88201 0.39684 0.0
C1224 C 0.00894 0.74606 0.37547 0.0
C1225 C 0.0047 0.76676 0.39079 0.0
C1226 C 0.05045 0.81113 0.38065 0.0
C1227 C 0.05557 0.79019 0.36636 0.0
N1228 N 0.04167 0.73767 0.3517 0.0
N1229 N 0.0225 0.81796 0.41073 0.0
C1230 C 0.0354 0.7576 0.36428 0.0
C1231 C 0.02574 0.79904 0.3941 0.0
N1232 N 0.98723 0.71554 0.37112 0.0
N1233 N 0.06922 0.84257 0.38147 0.0
H1234 H 0.00443 0.81008 0.42061 0.0
H1235 H 0.03856 0.8409 0.41615 0.0
H1236 H 0.08869 0.8525 0.37337 0.0
H1237 H 0.06484 0.85918 0.38904 0.0
H1238 H 0.98731 0.69991 0.35809 0.0
H1239 H 0.968 0.70611 0.37961 0.0
H1240 H 0.0299 0.71358 0.35196 0.0
H1241 H 0.05965 0.74526 0.34175 0.0
C1242 C 0.21719 0.24024 0.36036 0.0
C1243 C 0.2153 0.23702 0.38519 0.0
C1244 C 0.19797 0.27404 0.38855 0.0
C1245 C 0.19577 0.27381 0.36339 0.0
N1246 N 0.20078 0.25463 0.3248 0.0
N1247 N 0.19811 0.24602 0.42198 0.0
C1248 C 0.20474 0.25636 0.34908 0.0
C1249 C 0.204 0.25251 0.39903 0.0
N1250 N 0.23173 0.22888 0.34777 0.0
N1251 N 0.19596 0.29604 0.40256 0.0
H1252 H 0.20154 0.22979 0.43026 0.0
H1253 H 0.18708 0.25446 0.43192 0.0
H1254 H 0.19408 0.31384 0.39546 0.0
H1255 H 0.19995 0.29899 0.42108 0.0
H1256 H 0.23631 0.23318 0.33022 0.0
H1257 H 0.24154 0.21744 0.35552 0.0
H1258 H 0.20398 0.23962 0.3134 0.0
H1259 H 0.19221 0.26663 0.31605 0.0
C1260 C 0.67322 0.58314 0.70951 0.0
C1261 C 0.66746 0.5576 0.72267 0.0
C1262 C 0.71357 0.56144 0.71266 0.0
C1263 C 0.71845 0.58573 0.69816 0.0
N1264 N 0.70008 0.61532 0.67889 0.0
N1265 N 0.67901 0.51854 0.73331 0.0
C1266 C 0.69746 0.59538 0.69552 0.0
C1267 C 0.68668 0.54554 0.72315 0.0
N1268 N 0.65584 0.59612 0.71079 0.0
N1269 N 0.73518 0.55466 0.71766 0.0
H1270 H 0.65992 0.50666 0.74179 0.0
H1271 H 0.69035 0.50655 0.73168 0.0
H1272 H 0.7553 0.56555 0.71062 0.0
H1273 H 0.73418 0.54003 0.73049 0.0
H1274 H 0.66077 0.61691 0.70381 0.0
H1275 H 0.63759 0.58738 0.7205 0.0
H1276 H 0.68404 0.62088 0.67443 0.0
H1277 H 0.717 0.62398 0.66777 0.0
C1278 C 0.45097 0.11443 0.71508 0.0
C1279 C 0.46246 0.12843 0.73871 0.0
C1280 C 0.43264 0.15338 0.73779 0.0
C1281 C 0.4231 0.14147 0.71352 0.0
N1282 N 0.42541 0.1138 0.67794 0.0
N1283 N 0.46806 0.1649 0.77146 0.0
C1284 C 0.43309 0.12308 0.70178 0.0
C1285 C 0.45427 0.14885 0.74983 0.0
N1286 N 0.45606 0.09178 0.70577 0.0
N1287 N 0.421 0.16896 0.74936 0.0
H1288 H 0.48413 0.16232 0.78076 0.0
H1289 H 0.46539 0.18263 0.77935 0.0
H1290 H 0.4065 0.17451 0.74085 0.0
H1291 H 0.42424 0.17471 0.76774 0.0
H1292 H 0.44571 0.07824 0.6897 0.0
H1293 H 0.46876 0.08452 0.71505 0.0
H1294 H 0.43475 0.10355 0.66777 0.0
H1295 H 0.41105 0.11817 0.66783 0.0
C1296 C 0.86052 0.3045 0.70939 0.0
C1297 C 0.8907 0.32626 0.71508 0.0
C1298 C 0.90262 0.28609 0.70348 0.0
C1299 C 0.87244 0.26474 0.69602 0.0
N1300 N 0.82474 0.25793 0.6849 0.0
N1301 N 0.94078 0.34019 0.71134 0.0
C1302 C 0.85194 0.27517 0.69695 0.0
C1303 C 0.91184 0.31781 0.71012 0.0
N1304 N 0.83996 0.3114 0.71637 0.0
N1305 N 0.92242 0.2762 0.70565 0.0
H1306 H 0.94838 0.36376 0.71597 0.0
H1307 H 0.95677 0.33582 0.70536 0.0
H1308 H 0.91725 0.25322 0.70214 0.0
H1309 H 0.94373 0.29042 0.71355 0.0
H1310 H 0.81767 0.295 0.71484 0.0
H1311 H 0.84534 0.33259 0.72564 0.0
H1312 H 0.80993 0.26586 0.68341 0.0
H1313 H 0.81834 0.23761 0.67388 0.0
C1314 C 0.22795 0.03198 0.63849 0.0
C1315 C 0.23729 0.01039 0.63308 0.0
C1316 C 0.28801 0.05068 0.64589 0.0
C1317 C 0.27838 0.07185 0.65293 0.0
N1318 N 0.23768 0.07799 0.66312 0.0
N1319 N 0.27475 0.99667 0.63764 0.0
C1320 C 0.24788 0.06113 0.65136 0.0
C1321 C 0.26687 0.01895 0.63874 0.0
N1322 N 0.20034 0.02518 0.63074 0.0
N1323 N 0.31704 0.06076 0.64451 0.0
H1324 H 0.25982 0.97316 0.63259 0.0
H1325 H 0.29538 0.00101 0.64407 0.0
H1326 H 0.33375 0.08372 0.64848 0.0
H1327 H 0.32446 0.04675 0.63685 0.0
H1328 H 0.19359 0.04155 0.63207 0.0
H1329 H 0.18509 0.00422 0.621 0.0
H1330 H 0.21547 0.06981 0.66416 0.0
H1331 H 0.25125 0.0982 0.67434 0.0
C1332 C 0.00075 0.25136 0.63439 0.0
C1333 C 0.00413 0.2328 0.61626 0.0
C1334 C 0.95359 0.19062 0.61807 0.0
C1335 C 0.95107 0.20806 0.63768 0.0
N1336 N 0.97173 0.25487 0.66491 0.0
N1337 N 0.98548 0.18421 0.59186 0.0
C1338 C 0.97456 0.23837 0.64601 0.0
C1339 C 0.98093 0.20234 0.60824 0.0
N1340 N 0.02229 0.28181 0.63987 0.0
N1341 N 0.92985 0.16287 0.60881 0.0
H1342 H 0.00495 0.19229 0.58382 0.0
H1343 H 0.97081 0.1606 0.58725 0.0
H1344 H 0.91007 0.15229 0.61649 0.0
H1345 H 0.92906 0.15101 0.59273 0.0
H1346 H 0.02017 0.29782 0.651 0.0
H1347 H 0.04189 0.29198 0.6319 0.0
H1348 H 0.98911 0.275 0.67398 0.0
H1349 H 0.95203 0.24799 0.67227 0.0
C1350 C 0.76331 0.72809 0.62773 0.0
C1351 C 0.78284 0.76072 0.62955 0.0
C1352 C 0.81814 0.75433 0.65483 0.0
C1353 C 0.80066 0.72148 0.64985 0.0
N1354 N 0.75845 0.67725 0.62766 0.0
N1355 N 0.83114 0.80461 0.64162 0.0
C1356 C 0.77359 0.70829 0.63539 0.0
C1357 C 0.81089 0.77383 0.64229 0.0
N1358 N 0.73475 0.71599 0.6191 0.0
N1359 N 0.84113 0.76695 0.67211 0.0
H1360 H 0.82702 0.81964 0.63223 0.0
H1361 H 0.8529 0.81449 0.64849 0.0
H1362 H 0.84644 0.75343 0.6824 0.0
H1363 H 0.85286 0.79062 0.67802 0.0
H1364 H 0.71885 0.6927 0.61967 0.0
H1365 H 0.72633 0.72982 0.61359 0.0
H1366 H 0.7404 0.66733 0.61497 0.0
H1367 H 0.76543 0.66185 0.63195 0.0
C1368 C 0.9943 0.75253 0.64082 0.0
C1369 C 0.997 0.77363 0.62393 0.0
C1370 C 0.94642 0.761 0.62782 0.0
C1371 C 0.94469 0.74216 0.64631 0.0
N1372 N 0.96795 0.72306 0.67281 0.0
N1373 N 0.97747 0.8015 0.60361 0.0
C1374 C 0.96889 0.73869 0.65343 0.0
C1375 C 0.97357 0.77889 0.61807 0.0
N1376 N 0.01574 0.74516 0.64435 0.0
N1377 N 0.9218 0.76059 0.6187 0.0
H1378 H 0.99681 0.81462 0.59572 0.0
H1379 H 0.96242 0.80891 0.60088 0.0
H1380 H 0.90142 0.7476 0.62514 0.0
H1381 H 0.92093 0.77091 0.60339 0.0
H1382 H 0.0137 0.72743 0.65442 0.0
H1383 H 0.03478 0.75508 0.6356 0.0
H1384 H 0.98595 0.7225 0.68049 0.0
H1385 H 0.94979 0.7128 0.68257 0.0
C1386 C 0.22745 0.20594 0.60917 0.0
C1387 C 0.23596 0.23732 0.6163 0.0
C1388 C 0.27792 0.24341 0.64146 0.0
C1389 C 0.26738 0.21105 0.63658 0.0
N1390 N 0.23001 0.1604 0.61833 0.0
N1391 N 0.26707 0.28524 0.64119 0.0
C1392 C 0.24169 0.192 0.62096 0.0
C1393 C 0.26062 0.25592 0.63298 0.0
N1394 N 0.20603 0.18961 0.59088 0.0
N1395 N 0.30505 0.26245 0.65325 0.0
H1396 H 0.25533 0.2955 0.63496 0.0
H1397 H 0.28265 0.29851 0.65541 0.0
H1398 H 0.3188 0.25438 0.65915 0.0
H1399 H 0.31515 0.28665 0.65515 0.0
H1400 H 0.20103 0.16783 0.58312 0.0
H1401 H 0.19488 0.19898 0.58204 0.0
H1402 H 0.20962 0.14499 0.60928 0.0
H1403 H 0.23943 0.14915 0.62697 0.0
C1404 C 0.78309 0.01968 0.64991 0.0
C1405 C 0.79494 0.01464 0.62933 0.0
C1406 C 0.82413 0.0709 0.62708 0.0
C1407 C 0.81452 0.0762 0.64908 0.0
N1408 N 0.7902 0.05495 0.6842 0.0
N1409 N 0.83168 0.03531 0.60155 0.0
C1410 C 0.79543 0.0504 0.66128 0.0
C1411 C 0.81699 0.04022 0.61892 0.0
N1412 N 0.75956 0.99528 0.65826 0.0
N1413 N 0.83879 0.09469 0.61322 0.0
H1414 H 0.82726 0.01315 0.59517 0.0
H1415 H 0.85015 0.05328 0.5952 0.0
H1416 H 0.84389 0.1175 0.61773 0.0
H1417 H 0.84316 0.09117 0.59588 0.0
H1418 H 0.74801 0.99816 0.6716 0.0
H1419 H 0.74995 0.97241 0.65045 0.0
H1420 H 0.77883 0.03677 0.69466 0.0
H1421 H 0.79989 0.07683 0.69373 0.0
C1422 C 0.42198 0.3173 0.7031 0.0
C1423 C 0.43579 0.32038 0.72616 0.0
C1424 C 0.40777 0.26378 0.72701 0.0
C1425 C 0.39708 0.26044 0.70274 0.0
N1426 N 0.39715 0.284 0.66653 0.0
N1427 N 0.44579 0.29624 0.75842 0.0
C1428 C 0.40491 0.28721 0.69046 0.0
C1429 C 0.42979 0.29353 0.73768 0.0
N1430 N 0.42452 0.34305 0.69355 0.0
N1431 N 0.39598 0.23887 0.74027 0.0
H1432 H 0.46243 0.31757 0.76674 0.0
H1433 H 0.44442 0.27711 0.76614 0.0
H1434 H 0.37894 0.21687 0.73353 0.0
H1435 H 0.40088 0.24082 0.75864 0.0
H1436 H 0.41249 0.34188 0.67793 0.0
H1437 H 0.43661 0.36543 0.70239 0.0
H1438 H 0.40493 0.3027 0.65616 0.0
H1439 H 0.38498 0.26241 0.65656 0.0
C1440 C 0.68946 0.0983 0.72613 0.0
C1441 C 0.69005 0.12072 0.74319 0.0
C1442 C 0.73962 0.15914 0.7346 0.0
C1443 C 0.73926 0.13645 0.71794 0.0
N1444 N 0.71648 0.08325 0.70043 0.0
N1445 N 0.71668 0.17025 0.76691 0.0
C1446 C 0.71502 0.10559 0.71459 0.0
C1447 C 0.71547 0.15054 0.74838 0.0
N1448 N 0.66407 0.0705 0.72029 0.0
N1449 N 0.763 0.18891 0.73709 0.0
H1450 H 0.69926 0.16471 0.77722 0.0
H1451 H 0.73552 0.19102 0.77333 0.0
H1452 H 0.78182 0.19561 0.72835 0.0
H1453 H 0.76332 0.20748 0.74683 0.0
H1454 H 0.66105 0.05464 0.70603 0.0
H1455 H 0.64511 0.06399 0.72878 0.0
H1456 H 0.70107 0.0596 0.69949 0.0
H1457 H 0.73416 0.08799 0.69065 0.0
C1458 C 0.8864 0.57276 0.69194 0.0
C1459 C 0.88895 0.57226 0.71709 0.0
C1460 C 0.87151 0.60919 0.72193 0.0
C1461 C 0.86555 0.60663 0.69685 0.0
N1462 N 0.86244 0.58172 0.65806 0.0
N1463 N 0.87789 0.58484 0.75576 0.0
C1464 C 0.87161 0.58719 0.68183 0.0
C1465 C 0.87979 0.58902 0.73205 0.0
N1466 N 0.89891 0.56037 0.67778 0.0
N1467 N 0.87037 0.63169 0.73607 0.0
H1468 H 0.88303 0.56966 0.76383 0.0
H1469 H 0.86844 0.59407 0.76687 0.0
H1470 H 0.86572 0.64781 0.72915 0.0
H1471 H 0.8771 0.63646 0.75427 0.0
H1472 H 0.90019 0.56281 0.6596 0.0
H1473 H 0.91052 0.55026 0.68458 0.0
H1474 H 0.86378 0.56539 0.64661 0.0
H1475 H 0.85085 0.5913 0.65028 0.0
C1476 C 0.4962 0.037 0.11347 0.0
C1477 C 0.48866 0.00769 0.12162 0.0
C1478 C 0.47854 0.9846 0.08048 0.0
C1479 C 0.49134 0.01464 0.07205 0.0
N1480 N 0.50743 0.06917 0.08035 0.0
N1481 N 0.47665 0.95435 0.11284 0.0
C1482 C 0.49876 0.04086 0.08857 0.0
C1483 C 0.48125 0.98183 0.10511 0.0
N1484 N 0.50033 0.0608 0.12953 0.0
N1485 N 0.4616 0.95845 0.06533 0.0
H1486 H 0.47723 0.9506 0.1308 0.0
H1487 H 0.47482 0.93616 0.10135 0.0
H1488 H 0.45466 0.95966 0.04819 0.0
H1489 H 0.45014 0.93615 0.07087 0.0
H1490 H 0.50333 0.08204 0.12488 0.0
H1491 H 0.49934 0.05872 0.1478 0.0
H1492 H 0.51689 0.09006 0.09123 0.0
H1493 H 0.50472 0.0717 0.06234 0.0
C1494 C 0.01102 0.51913 0.11044 0.0
C1495 C 0.01978 0.49774 0.11679 0.0
C1496 C 0.99991 0.46937 0.07711 0.0
C1497 C 0.99665 0.49426 0.06939 0.0
N1498 N 0.00756 0.54763 0.07888 0.0
N1499 N 0.02715 0.45516 0.10433 0.0
C1500 C 0.00437 0.52045 0.0861 0.0
C1501 C 0.01561 0.47359 0.09959 0.0
N1502 N 0.00858 0.538 0.12761 0.0
N1503 N 0.98669 0.44109 0.06394 0.0
H1504 H 0.03924 0.45791 0.12039 0.0
H1505 H 0.02705 0.43927 0.09139 0.0
H1506 H 0.97315 0.43603 0.04831 0.0
H1507 H 0.98659 0.42167 0.07001 0.0
H1508 H 0.99973 0.55199 0.12378 0.0
H1509 H 0.01215 0.53694 0.14581 0.0
H1510 H 0.01554 0.56779 0.09052 0.0
H1511 H 0.00683 0.5519 0.06112 0.0
C1512 C 0.48992 0.48154 0.10671 0.0
C1513 C 0.49255 0.50934 0.1176 0.0
C1514 C 0.52071 0.53821 0.08561 0.0
C1515 C 0.51578 0.51001 0.07329 0.0
N1516 N 0.494 0.45409 0.07151 0.0
N1517 N 0.50384 0.56214 0.11437 0.0
C1518 C 0.49959 0.48138 0.08357 0.0
C1519 C 0.50592 0.53704 0.10608 0.0
N1520 N 0.47953 0.45573 0.11895 0.0
N1521 N 0.54014 0.56635 0.07835 0.0
H1522 H 0.49274 0.56201 0.12914 0.0
H1523 H 0.51034 0.58177 0.10516 0.0
H1524 H 0.55236 0.56859 0.06412 0.0
H1525 H 0.54658 0.58756 0.08807 0.0
H1526 H 0.4801 0.4358 0.11326 0.0
H1527 H 0.47212 0.45497 0.1358 0.0
H1528 H 0.47905 0.43221 0.07636 0.0
H1529 H 0.50359 0.45321 0.05605 0.0
C1530 C 0.0265 0.52498 0.9033 0.0
C1531 C 0.99832 0.5116 0.8908 0.0
C1532 C 0.97572 0.48642 0.92584 0.0
C1533 C 0.00373 0.5003 0.93888 0.0
N1534 N 0.05533 0.53784 0.94157 0.0
N1535 N 0.94604 0.48666 0.89192 0.0
C1536 C 0.02902 0.5213 0.92808 0.0
C1537 C 0.97296 0.49485 0.90275 0.0
N1538 N 0.05074 0.54031 0.89128 0.0
N1539 N 0.95179 0.46357 0.93479 0.0
H1540 H 0.94289 0.49165 0.8747 0.0
H1541 H 0.92716 0.47752 0.90082 0.0
H1542 H 0.95292 0.45684 0.95154 0.0
H1543 H 0.93163 0.44956 0.9249 0.0
H1544 H 0.07188 0.54757 0.89855 0.0
H1545 H 0.04945 0.54436 0.87344 0.0
H1546 H 0.07406 0.55559 0.93538 0.0
H1547 H 0.05785 0.53556 0.95967 0.0
C1548 C 0.53171 0.53541 0.91601 0.0
C1549 C 0.51174 0.51019 0.89922 0.0
C1550 C 0.47587 0.49104 0.92885 0.0
C1551 C 0.49553 0.51681 0.94526 0.0
N1552 N 0.53746 0.56839 0.95164 0.0
N1553 N 0.46176 0.46978 0.88749 0.0
C1554 C 0.52195 0.54062 0.93788 0.0
C1555 C 0.4828 0.48982 0.90496 0.0
N1556 N 0.56036 0.55331 0.9118 0.0
N1557 N 0.45119 0.46701 0.93626 0.0
H1558 H 0.46578 0.46897 0.86964 0.0
H1559 H 0.43972 0.45641 0.89026 0.0
H1560 H 0.44481 0.46732 0.95338 0.0
H1561 H 0.43814 0.44589 0.92586 0.0
H1562 H 0.57637 0.56978 0.92463 0.0
H1563 H 0.56873 0.54966 0.89643 0.0
H1564 H 0.55591 0.58756 0.94637 0.0
H1565 H 0.52965 0.57319 0.96694 0.0
C1566 C 0.48217 0.99192 0.9018 0.0
C1567 C 0.512 0.00283 0.89848 0.0
C1568 C 0.51701 0.98148 0.93526 0.0
C1569 C 0.48957 0.97697 0.94095 0.0
N1570 N 0.44604 0.97926 0.93009 0.0
N1571 N 0.55892 0.01022 0.91325 0.0
C1572 C 0.47189 0.98209 0.9242 0.0
C1573 C 0.52968 0.99778 0.91533 0.0
N1574 N 0.46361 0.9906 0.88342 0.0
N1575 N 0.53094 0.97023 0.94897 0.0
H1576 H 0.56933 0.02305 0.89928 0.0
H1577 H 0.57333 0.01017 0.92651 0.0
H1578 H 0.52217 0.95858 0.96385 0.0
H1579 H 0.54975 0.97024 0.94444 0.0
H1580 H 0.44109 0.98024 0.88413 0.0
H1581 H 0.47032 0.99693 0.86656 0.0
H1582 H 0.43424 0.98666 0.91975 0.0
H1583 H 0.43737 0.97164 0.94615 0.0
C1584 C 0.15305 0.31942 0.43965 0.0
C1585 C 0.16363 0.34666 0.45551 0.0
C1586 C 0.17291 0.37804 0.42152 0.0
C1587 C 0.16463 0.35103 0.4057 0.0
N1588 N 0.13347 0.29494 0.40002 0.0
N1589 N 0.18467 0.40215 0.46245 0.0
C1590 C 0.15081 0.32136 0.4148 0.0
C1591 C 0.17362 0.37607 0.44669 0.0
N1592 N 0.14579 0.29156 0.44828 0.0
N1593 N 0.17777 0.40486 0.41235 0.0
H1594 H 0.18485 0.40122 0.48088 0.0
H1595 H 0.19532 0.42476 0.45751 0.0
H1596 H 0.17416 0.40592 0.39417 0.0
H1597 H 0.18187 0.42489 0.42264 0.0
H1598 H 0.14218 0.27203 0.43749 0.0
H1599 H 0.14573 0.28846 0.46639 0.0
H1600 H 0.12068 0.27308 0.40595 0.0
H1601 H 0.12829 0.29548 0.38228 0.0
C1602 C 0.68586 0.81453 0.43274 0.0
C1603 C 0.68584 0.83546 0.45087 0.0
C1604 C 0.66225 0.85271 0.4219 0.0
C1605 C 0.65965 0.82956 0.40436 0.0
N1606 N 0.66041 0.78196 0.39621 0.0
N1607 N 0.6664 0.86794 0.46402 0.0
C1608 C 0.669 0.80856 0.41066 0.0
C1609 C 0.67157 0.85247 0.44588 0.0
N1610 N 0.70258 0.80107 0.43617 0.0
N1611 N 0.65799 0.87635 0.41564 0.0
H1612 H 0.67208 0.86756 0.48193 0.0
H1613 H 0.65368 0.87826 0.46139 0.0
H1614 H 0.65323 0.87911 0.39813 0.0
H1615 H 0.66265 0.89538 0.42758 0.0
H1616 H 0.70543 0.78808 0.42252 0.0
H1617 H 0.71583 0.80542 0.4519 0.0
H1618 H 0.66511 0.76483 0.4007 0.0
H1619 H 0.64514 0.77522 0.38147 0.0
C1620 C 0.16386 0.80407 0.44541 0.0
C1621 C 0.15833 0.82723 0.45541 0.0
C1622 C 0.15444 0.84251 0.41569 0.0
C1623 C 0.16539 0.82374 0.40593 0.0
N1624 N 0.17572 0.7823 0.41095 0.0
N1625 N 0.15269 0.8718 0.45052 0.0
C1626 C 0.16873 0.80321 0.42071 0.0
C1627 C 0.15513 0.84753 0.4407 0.0
N1628 N 0.16382 0.78261 0.45948 0.0
N1629 N 0.14102 0.8536 0.40133 0.0
H1630 H 0.152 0.87586 0.46875 0.0
H1631 H 0.154 0.8895 0.44073 0.0
H1632 H 0.13521 0.84603 0.38344 0.0
H1633 H 0.13098 0.86561 0.40773 0.0
H1634 H 0.16496 0.76326 0.45315 0.0
H1635 H 0.16107 0.78328 0.47763 0.0
H1636 H 0.18248 0.7697 0.42089 0.0
H1637 H 0.17445 0.77725 0.39259 0.0
C1638 C 0.63984 0.81513 0.23975 0.0
C1639 C 0.65688 0.84125 0.2273 0.0
C1640 C 0.69095 0.86715 0.2634 0.0
C1641 C 0.67562 0.8394 0.2748 0.0
N1642 N 0.64086 0.78404 0.27036 0.0
N1643 N 0.70049 0.89105 0.22606 0.0
C1644 C 0.65142 0.81259 0.26209 0.0
C1645 C 0.68297 0.86709 0.2388 0.0
N1646 N 0.61241 0.79271 0.23031 0.0
N1647 N 0.71259 0.8937 0.27616 0.0
H1648 H 0.69497 0.89192 0.20822 0.0
H1649 H 0.72132 0.90893 0.23266 0.0
H1650 H 0.71939 0.8944 0.29397 0.0
H1651 H 0.72235 0.91546 0.26962 0.0
H1652 H 0.598 0.77482 0.23986 0.0
H1653 H 0.60294 0.79385 0.21399 0.0
H1654 H 0.62482 0.76338 0.26075 0.0
H1655 H 0.651 0.7805 0.28512 0.0
C1656 C 0.19989 0.85645 0.24412 0.0
C1657 C 0.17822 0.8322 0.22756 0.0
C1658 C 0.14378 0.81528 0.25823 0.0
C1659 C 0.16474 0.84093 0.27418 0.0
N1660 N 0.20949 0.89051 0.28 0.0
N1661 N 0.12712 0.79426 0.21707 0.0
C1662 C 0.19181 0.86299 0.26639 0.0
C1663 C 0.14939 0.81333 0.23407 0.0
N1664 N 0.22845 0.87223 0.23918 0.0
N1665 N 0.11904 0.79205 0.26626 0.0
H1666 H 0.13009 0.79303 0.199 0.0
H1667 H 0.10523 0.78227 0.22054 0.0
H1668 H 0.11395 0.79229 0.28382 0.0
H1669 H 0.10489 0.77115 0.25596 0.0
H1670 H 0.24547 0.88791 0.25169 0.0
H1671 H 0.23554 0.86743 0.22345 0.0
H1672 H 0.22818 0.90875 0.27413 0.0
H1673 H 0.204 0.89598 0.29633 0.0
C1674 C 0.14858 0.29335 0.22833 0.0
C1675 C 0.17123 0.32176 0.22172 0.0
C1676 C 0.18399 0.34319 0.26372 0.0
C1677 C 0.16055 0.31466 0.27065 0.0
N1678 N 0.11341 0.26918 0.25661 0.0
N1679 N 0.21184 0.37357 0.23255 0.0
C1680 C 0.14099 0.29126 0.25222 0.0
C1681 C 0.18914 0.34668 0.23926 0.0
N1682 N 0.13415 0.26817 0.21168 0.0
N1683 N 0.20027 0.36801 0.28022 0.0
H1684 H 0.21509 0.37821 0.21486 0.0
H1685 H 0.22861 0.39102 0.24427 0.0
H1686 H 0.20069 0.36614 0.29821 0.0
H1687 H 0.21292 0.39094 0.27632 0.0
H1688 H 0.11966 0.24582 0.21604 0.0
H1689 H 0.13889 0.26906 0.19392 0.0
H1690 H 0.09782 0.25314 0.24335 0.0
H1691 H 0.10402 0.27009 0.27212 0.0
C1692 C 0.84111 0.70931 0.77979 0.0
C1693 C 0.83219 0.68021 0.78887 0.0
C1694 C 0.8213 0.65475 0.74838 0.0
C1695 C 0.83389 0.68419 0.73897 0.0
N1696 N 0.84565 0.73764 0.74502 0.0
N1697 N 0.81825 0.62604 0.78211 0.0
C1698 C 0.84114 0.71114 0.75454 0.0
C1699 C 0.82373 0.65327 0.77325 0.0
N1700 N 0.85028 0.73518 0.7954 0.0
N1701 N 0.80449 0.62792 0.73391 0.0
H1702 H 0.81831 0.62311 0.80025 0.0
H1703 H 0.81619 0.60709 0.77147 0.0
H1704 H 0.79809 0.62803 0.71638 0.0
H1705 H 0.79287 0.60605 0.74011 0.0
H1706 H 0.85974 0.75777 0.79049 0.0
H1707 H 0.85001 0.73422 0.81382 0.0
H1708 H 0.84948 0.75776 0.75498 0.0
H1709 H 0.84227 0.73841 0.72676 0.0
C1710 C 0.34098 0.13738 0.76751 0.0
C1711 C 0.34098 0.16022 0.7838 0.0
C1712 C 0.32014 0.17626 0.75154 0.0
C1713 C 0.31868 0.15224 0.73566 0.0
N1714 N 0.31861 0.10398 0.73065 0.0
N1715 N 0.32259 0.19495 0.79264 0.0
C1716 C 0.32619 0.13085 0.74435 0.0
C1717 C 0.32799 0.17762 0.77623 0.0
N1718 N 0.35639 0.12313 0.77354 0.0
N1719 N 0.3155 0.19872 0.74304 0.0
H1720 H 0.32723 0.19576 0.81096 0.0
H1721 H 0.31076 0.2058 0.78826 0.0
H1722 H 0.30939 0.19858 0.72516 0.0
H1723 H 0.31988 0.21878 0.75351 0.0
H1724 H 0.35949 0.10877 0.76132 0.0
H1725 H 0.3685 0.12805 0.78998 0.0
H1726 H 0.3217 0.08639 0.73675 0.0
H1727 H 0.3059 0.09779 0.71437 0.0
C1728 C 0.83768 0.19551 0.77114 0.0
C1729 C 0.82411 0.16722 0.78188 0.0
C1730 C 0.83476 0.14166 0.74845 0.0
C1731 C 0.85092 0.17089 0.73897 0.0
N1732 N 0.87373 0.22703 0.74537 0.0
N1733 N 0.81223 0.1139 0.78246 0.0
C1734 C 0.85418 0.19823 0.75151 0.0
C1735 C 0.82314 0.14031 0.77092 0.0
N1736 N 0.83425 0.21974 0.77942 0.0
N1737 N 0.83099 0.11523 0.7362 0.0
H1738 H 0.80312 0.112 0.79865 0.0
H1739 H 0.81384 0.09456 0.77688 0.0
H1740 H 0.84178 0.11558 0.7212 0.0
H1741 H 0.81637 0.09285 0.74036 0.0
H1742 H 0.84084 0.23969 0.77061 0.0
H1743 H 0.82205 0.21851 0.79366 0.0
H1744 H 0.87884 0.24769 0.75533 0.0
H1745 H 0.8874 0.2304 0.73203 0.0
C1746 C 0.30826 0.1395 0.5723 0.0
C1747 C 0.32269 0.16762 0.5614 0.0
C1748 C 0.35456 0.19375 0.59854 0.0
C1749 C 0.34226 0.16459 0.60841 0.0
N1750 N 0.31161 0.10845 0.60205 0.0
N1751 N 0.36175 0.22092 0.56286 0.0
C1752 C 0.32039 0.1371 0.59452 0.0
C1753 C 0.3463 0.19472 0.57423 0.0
N1754 N 0.2824 0.11522 0.56169 0.0
N1755 N 0.37466 0.22044 0.61213 0.0
H1756 H 0.35624 0.22247 0.54518 0.0
H1757 H 0.38121 0.24032 0.57029 0.0
H1758 H 0.38384 0.22052 0.62894 0.0
H1759 H 0.3814 0.24267 0.60714 0.0
H1760 H 0.26924 0.09539 0.57006 0.0
H1761 H 0.2725 0.11627 0.54556 0.0
H1762 H 0.29796 0.08763 0.59148 0.0
H1763 H 0.32034 0.10534 0.61778 0.0
C1764 C 0.86612 0.18838 0.58126 0.0
C1765 C 0.84704 0.16352 0.56394 0.0
C1766 C 0.81213 0.14037 0.59371 0.0
C1767 C 0.8298 0.16694 0.61041 0.0
N1768 N 0.86864 0.22091 0.61579 0.0
N1769 N 0.79777 0.12153 0.55201 0.0
C1770 C 0.85536 0.1924 0.60295 0.0
C1771 C 0.8187 0.14137 0.56962 0.0
N1772 N 0.8947 0.20759 0.57751 0.0
N1773 N 0.7904 0.1132 0.60078 0.0
H1774 H 0.80132 0.12228 0.53399 0.0
H1775 H 0.77601 0.10691 0.55511 0.0
H1776 H 0.78632 0.10947 0.61843 0.0
H1777 H 0.77907 0.09271 0.58935 0.0
H1778 H 0.91002 0.2241 0.59072 0.0
H1779 H 0.90366 0.20493 0.56215 0.0
H1780 H 0.88618 0.2406 0.61006 0.0
H1781 H 0.85976 0.22577 0.63033 0.0
C1782 C 0.81603 0.64811 0.56581 0.0
C1783 C 0.84622 0.66481 0.5622 0.0
C1784 C 0.85791 0.65339 0.60149 0.0
C1785 C 0.82881 0.64257 0.60692 0.0
N1786 N 0.77983 0.63117 0.5943 0.0
N1787 N 0.89658 0.68689 0.57819 0.0
C1788 C 0.80763 0.64005 0.58904 0.0
C1789 C 0.86741 0.66821 0.58038 0.0
N1790 N 0.79537 0.63935 0.54694 0.0
N1791 N 0.87624 0.64858 0.61614 0.0
H1792 H 0.90456 0.69889 0.56329 0.0
H1793 H 0.91267 0.69269 0.59215 0.0
H1794 H 0.86946 0.6369 0.63135 0.0
H1795 H 0.89692 0.65341 0.61193 0.0
H1796 H 0.77308 0.62458 0.54808 0.0
H1797 H 0.80073 0.64418 0.52956 0.0
H1798 H 0.7648 0.63297 0.58283 0.0
H1799 H 0.77224 0.62391 0.61071 0.0
loop_
_geom_bond_atom_site_label_1
_geom_bond_atom_site_label_2
_geom_bond_distance
_geom_bond_site_symmetry_2
_ccdc_geom_bond_type
C0 C1 1.384 . S
C0 H13 0.947 . S
C0 C35 1.382 . S
C1 C0 1.384 . S
C1 C2 1.378 . S
C2 C1 1.378 . S
C2 C3 1.378 . S
C2 H14 0.952 . S
C3 C2 1.378 . S
C3 H15 0.950 . S
C3 C34 1.383 . S
H4 C23 0.947 . S
H5 C24 0.946 . S
H6 C26 0.953 . S
H7 C27 0.945 . S
H8 C29 0.952 . S
H9 C30 0.949 . S
H10 C32 0.950 . S
H11 C33 0.948 . S
H12 C35 0.951 . S
H13 C0 0.947 . S
H14 C2 0.952 . S
H15 C3 0.950 . S
N16 C19 1.382 . S
N16 C21 1.363 . S
N17 C19 1.371 . S
N17 C20 1.372 . S
N18 C20 1.361 . S
N18 C21 1.377 . S
C19 N16 1.382 . S
C19 N17 1.371 . S
C19 C22 1.480 . S
C20 N17 1.372 . S
C20 N18 1.361 . S
C20 C28 1.457 . S
C21 N16 1.363 . S
C21 N18 1.377 . S
C21 C34 1.479 . S
C22 C19 1.480 . S
C22 C23 1.383 . S
C22 C27 1.385 . S
C23 H4 0.947 . S
C23 C22 1.383 . S
C23 C24 1.388 . S
C24 H5 0.946 . S
C24 C23 1.388 . S
C24 C25 1.384 . S
C25 C24 1.384 . S
C25 C26 1.377 . S
C26 H6 0.953 . S
C26 C25 1.377 . S
C26 C27 1.369 . S
C27 H7 0.945 . S
C27 C22 1.385 . S
C27 C26 1.369 . S
C28 C20 1.457 . S
C28 C29 1.372 . S
C28 C33 1.364 . S
C29 H8 0.952 . S
C29 C28 1.372 . S
C29 C30 1.389 . S
C30 H9 0.949 . S
C30 C29 1.389 . S
C30 C31 1.387 . S
C31 C30 1.387 . S
C31 C32 1.372 . S
C32 H10 0.950 . S
C32 C31 1.372 . S
C32 C33 1.379 . S
C33 H11 0.948 . S
C33 C28 1.364 . S
C33 C32 1.379 . S
C34 C3 1.383 . S
C34 C21 1.479 . S
C34 C35 1.398 . S
C35 C0 1.382 . S
C35 H12 0.951 . S
C35 C34 1.398 . S
C36 C37 1.384 . S
C36 H49 0.947 . S
C36 C71 1.382 . S
C37 C36 1.384 . S
C37 C38 1.378 . S
C38 C37 1.378 . S
C38 C39 1.378 . S
C38 H50 0.952 . S
C39 C38 1.378 . S
C39 H51 0.950 . S
C39 C70 1.383 . S
H40 C59 0.947 . S
H41 C60 0.946 . S
H42 C62 0.953 . S
H43 C63 0.945 . S
H44 C65 0.952 . S
H45 C66 0.949 . S
H46 C68 0.950 . S
H47 C69 0.948 . S
H48 C71 0.951 . S
H49 C36 0.947 . S
H50 C38 0.952 . S
H51 C39 0.950 . S
N52 C55 1.382 . S
N52 C57 1.363 . S
N53 C55 1.371 . S
N53 C56 1.372 . S
N54 C56 1.361 . S
N54 C57 1.377 . S
C55 N52 1.382 . S
C55 N53 1.371 . S
C55 C58 1.480 . S
C56 N53 1.372 . S
C56 N54 1.361 . S
C56 C64 1.457 . S
C57 N52 1.363 . S
C57 N54 1.377 . S
C57 C70 1.479 . S
C58 C55 1.480 . S
C58 C59 1.383 . S
C58 C63 1.385 . S
C59 H40 0.947 . S
C59 C58 1.383 . S
C59 C60 1.388 . S
C60 H41 0.946 . S
C60 C59 1.388 . S
C60 C61 1.384 . S
C61 C60 1.384 . S
C61 C62 1.377 . S
C62 H42 0.953 . S
C62 C61 1.377 . S
C62 C63 1.369 . S
C63 H43 0.945 . S
C63 C58 1.385 . S
C63 C62 1.369 . S
C64 C56 1.457 . S
C64 C65 1.372 . S
C64 C69 1.364 . S
C65 H44 0.952 . S
C65 C64 1.372 . S
C65 C66 1.389 . S
C66 H45 0.949 . S
C66 C65 1.389 . S
C66 C67 1.387 . S
C67 C66 1.387 . S
C67 C68 1.372 . S
C68 H46 0.950 . S
C68 C67 1.372 . S
C68 C69 1.379 . S
C69 H47 0.948 . S
C69 C64 1.364 . S
C69 C68 1.379 . S
C70 C39 1.383 . S
C70 C57 1.479 . S
C70 C71 1.398 . S
C71 C36 1.382 . S
C71 H48 0.951 . S
C71 C70 1.398 . S
C72 C73 1.384 . S
C72 H85 0.947 . S
C72 C107 1.382 . S
C73 C72 1.384 . S
C73 C74 1.378 . S
C74 C73 1.378 . S
C74 C75 1.378 . S
C74 H86 0.952 . S
C75 C74 1.378 . S
C75 H87 0.950 . S
C75 C106 1.383 . S
H76 C95 0.947 . S
H77 C96 0.946 . S
H78 C98 0.953 . S
H79 C99 0.945 . S
H80 C101 0.952 . S
H81 C102 0.949 . S
H82 C104 0.950 . S
H83 C105 0.948 . S
H84 C107 0.951 . S
H85 C72 0.947 . S
H86 C74 0.952 . S
H87 C75 0.950 . S
N88 C91 1.382 . S
N88 C93 1.363 . S
N89 C91 1.371 . S
N89 C92 1.372 . S
N90 C92 1.361 . S
N90 C93 1.377 . S
C91 N88 1.382 . S
C91 N89 1.371 . S
C91 C94 1.480 . S
C92 N89 1.372 . S
C92 N90 1.361 . S
C92 C100 1.457 . S
C93 N88 1.363 . S
C93 N90 1.377 . S
C93 C106 1.479 . S
C94 C91 1.480 . S
C94 C95 1.383 . S
C94 C99 1.385 . S
C95 H76 0.947 . S
C95 C94 1.383 . S
C95 C96 1.388 . S
C96 H77 0.946 . S
C96 C95 1.388 . S
C96 C97 1.384 . S
C97 C96 1.384 . S
C97 C98 1.377 . S
C98 H78 0.953 . S
C98 C97 1.377 . S
C98 C99 1.369 . S
C99 H79 0.945 . S
C99 C94 1.385 . S
C99 C98 1.369 . S
C100 C92 1.457 . S
C100 C101 1.372 . S
C100 C105 1.364 . S
C101 H80 0.952 . S
C101 C100 1.372 . S
C101 C102 1.389 . S
C102 H81 0.949 . S
C102 C101 1.389 . S
C102 C103 1.387 . S
C103 C102 1.387 . S
C103 C104 1.372 . S
C104 H82 0.950 . S
C104 C103 1.372 . S
C104 C105 1.379 . S
C105 H83 0.948 . S
C105 C100 1.364 . S
C105 C104 1.379 . S
C106 C75 1.383 . S
C106 C93 1.479 . S
C106 C107 1.398 . S
C107 C72 1.382 . S
C107 H84 0.951 . S
C107 C106 1.398 . S
C108 C109 1.384 . S
C108 H121 0.947 . S
C108 C143 1.382 . S
C109 C108 1.384 . S
C109 C110 1.378 . S
C110 C109 1.378 . S
C110 C111 1.378 . S
C110 H122 0.952 . S
C111 C110 1.378 . S
C111 H123 0.950 . S
C111 C142 1.383 . S
H112 C131 0.947 . S
H113 C132 0.946 . S
H114 C134 0.953 . S
H115 C135 0.945 . S
H116 C137 0.952 . S
H117 C138 0.949 . S
H118 C140 0.950 . S
H119 C141 0.948 . S
H120 C143 0.951 . S
H121 C108 0.947 . S
H122 C110 0.952 . S
H123 C111 0.950 . S
N124 C127 1.382 . S
N124 C129 1.363 . S
N125 C127 1.371 . S
N125 C128 1.372 . S
N126 C128 1.361 . S
N126 C129 1.377 . S
C127 N124 1.382 . S
C127 N125 1.371 . S
C127 C130 1.480 . S
C128 N125 1.372 . S
C128 N126 1.361 . S
C128 C136 1.457 . S
C129 N124 1.363 . S
C129 N126 1.377 . S
C129 C142 1.479 . S
C130 C127 1.480 . S
C130 C131 1.383 . S
C130 C135 1.385 . S
C131 H112 0.947 . S
C131 C130 1.383 . S
C131 C132 1.388 . S
C132 H113 0.946 . S
C132 C131 1.388 . S
C132 C133 1.384 . S
C133 C132 1.384 . S
C133 C134 1.377 . S
C134 H114 0.953 . S
C134 C133 1.377 . S
C134 C135 1.369 . S
C135 H115 0.945 . S
C135 C130 1.385 . S
C135 C134 1.369 . S
C136 C128 1.457 . S
C136 C137 1.372 . S
C136 C141 1.364 . S
C137 H116 0.952 . S
C137 C136 1.372 . S
C137 C138 1.389 . S
C138 H117 0.949 . S
C138 C137 1.389 . S
C138 C139 1.387 . S
C139 C138 1.387 . S
C139 C140 1.372 . S
C140 H118 0.950 . S
C140 C139 1.372 . S
C140 C141 1.379 . S
C141 H119 0.948 . S
C141 C136 1.364 . S
C141 C140 1.379 . S
C142 C111 1.383 . S
C142 C129 1.479 . S
C142 C143 1.398 . S
C143 C108 1.382 . S
C143 H120 0.951 . S
C143 C142 1.398 . S
C144 C145 1.384 . S
C144 H157 0.947 . S
C144 C179 1.382 . S
C145 C144 1.384 . S
C145 C146 1.378 . S
C146 C145 1.378 . S
C146 C147 1.378 . S
C146 H158 0.952 . S
C147 C146 1.378 . S
C147 H159 0.950 . S
C147 C178 1.383 . S
H148 C167 0.947 . S
H149 C168 0.946 . S
H150 C170 0.953 . S
H151 C171 0.945 . S
H152 C173 0.952 . S
H153 C174 0.949 . S
H154 C176 0.950 . S
H155 C177 0.948 . S
H156 C179 0.951 . S
H157 C144 0.947 . S
H158 C146 0.952 . S
H159 C147 0.950 . S
N160 C163 1.382 . S
N160 C165 1.363 . S
N161 C163 1.371 . S
N161 C164 1.372 . S
N162 C164 1.361 . S
N162 C165 1.377 . S
C163 N160 1.382 . S
C163 N161 1.371 . S
C163 C166 1.480 . S
C164 N161 1.372 . S
C164 N162 1.361 . S
C164 C172 1.457 . S
C165 N160 1.363 . S
C165 N162 1.377 . S
C165 C178 1.479 . S
C166 C163 1.480 . S
C166 C167 1.383 . S
C166 C171 1.385 . S
C167 H148 0.947 . S
C167 C166 1.383 . S
C167 C168 1.388 . S
C168 H149 0.946 . S
C168 C167 1.388 . S
C168 C169 1.384 . S
C169 C168 1.384 . S
C169 C170 1.377 . S
C170 H150 0.953 . S
C170 C169 1.377 . S
C170 C171 1.369 . S
C171 H151 0.945 . S
C171 C166 1.385 . S
C171 C170 1.369 . S
C172 C164 1.457 . S
C172 C173 1.372 . S
C172 C177 1.364 . S
C173 H152 0.952 . S
C173 C172 1.372 . S
C173 C174 1.389 . S
C174 H153 0.949 . S
C174 C173 1.389 . S
C174 C175 1.387 . S
C175 C174 1.387 . S
C175 C176 1.372 . S
C176 H154 0.950 . S
C176 C175 1.372 . S
C176 C177 1.379 . S
C177 H155 0.948 . S
C177 C172 1.364 . S
C177 C176 1.379 . S
C178 C147 1.383 . S
C178 C165 1.479 . S
C178 C179 1.398 . S
C179 C144 1.382 . S
C179 H156 0.951 . S
C179 C178 1.398 . S
C180 C181 1.384 . S
C180 H193 0.947 . S
C180 C215 1.382 . S
C181 C180 1.384 . S
C181 C182 1.378 . S
C182 C181 1.378 . S
C182 C183 1.378 . S
C182 H194 0.952 . S
C183 C182 1.378 . S
C183 H195 0.950 . S
C183 C214 1.383 . S
H184 C203 0.947 . S
H185 C204 0.946 . S
H186 C206 0.953 . S
H187 C207 0.945 . S
H188 C209 0.952 . S
H189 C210 0.949 . S
H190 C212 0.950 . S
H191 C213 0.948 . S
H192 C215 0.951 . S
H193 C180 0.947 . S
H194 C182 0.952 . S
H195 C183 0.950 . S
N196 C199 1.382 . S
N196 C201 1.363 . S
N197 C199 1.371 . S
N197 C200 1.372 . S
N198 C200 1.361 . S
N198 C201 1.377 . S
C199 N196 1.382 . S
C199 N197 1.371 . S
C199 C202 1.480 . S
C200 N197 1.372 . S
C200 N198 1.361 . S
C200 C208 1.457 . S
C201 N196 1.363 . S
C201 N198 1.377 . S
C201 C214 1.479 . S
C202 C199 1.480 . S
C202 C203 1.383 . S
C202 C207 1.385 . S
C203 H184 0.947 . S
C203 C202 1.383 . S
C203 C204 1.388 . S
C204 H185 0.946 . S
C204 C203 1.388 . S
C204 C205 1.384 . S
C205 C204 1.384 . S
C205 C206 1.377 . S
C206 H186 0.953 . S
C206 C205 1.377 . S
C206 C207 1.369 . S
C207 H187 0.945 . S
C207 C202 1.385 . S
C207 C206 1.369 . S
C208 C200 1.457 . S
C208 C209 1.372 . S
C208 C213 1.364 . S
C209 H188 0.952 . S
C209 C208 1.372 . S
C209 C210 1.389 . S
C210 H189 0.949 . S
C210 C209 1.389 . S
C210 C211 1.387 . S
C211 C210 1.387 . S
C211 C212 1.372 . S
C212 H190 0.950 . S
C212 C211 1.372 . S
C212 C213 1.379 . S
C213 H191 0.948 . S
C213 C208 1.364 . S
C213 C212 1.379 . S
C214 C183 1.383 . S
C214 C201 1.479 . S
C214 C215 1.398 . S
C215 C180 1.382 . S
C215 H192 0.951 . S
C215 C214 1.398 . S
C216 C217 1.384 . S
C216 H229 0.947 . S
C216 C251 1.382 . S
C217 C216 1.384 . S
C217 C218 1.378 . S
C218 C217 1.378 . S
C218 C219 1.378 . S
C218 H230 0.952 . S
C219 C218 1.378 . S
C219 H231 0.950 . S
C219 C250 1.383 . S
H220 C239 0.947 . S
H221 C240 0.946 . S
H222 C242 0.953 . S
H223 C243 0.945 . S
H224 C245 0.952 . S
H225 C246 0.949 . S
H226 C248 0.950 . S
H227 C249 0.948 . S
H228 C251 0.951 . S
H229 C216 0.947 . S
H230 C218 0.952 . S
H231 C219 0.950 . S
N232 C235 1.382 . S
N232 C237 1.363 . S
N233 C235 1.371 . S
N233 C236 1.372 . S
N234 C236 1.361 . S
N234 C237 1.377 . S
C235 N232 1.382 . S
C235 N233 1.371 . S
C235 C238 1.480 . S
C236 N233 1.372 . S
C236 N234 1.361 . S
C236 C244 1.457 . S
C237 N232 1.363 . S
C237 N234 1.377 . S
C237 C250 1.479 . S
C238 C235 1.480 . S
C238 C239 1.383 . S
C238 C243 1.385 . S
C239 H220 0.947 . S
C239 C238 1.383 . S
C239 C240 1.388 . S
C240 H221 0.946 . S
C240 C239 1.388 . S
C240 C241 1.384 . S
C241 C240 1.384 . S
C241 C242 1.377 . S
C242 H222 0.953 . S
C242 C241 1.377 . S
C242 C243 1.369 . S
C243 H223 0.945 . S
C243 C238 1.385 . S
C243 C242 1.369 . S
C244 C236 1.457 . S
C244 C245 1.372 . S
C244 C249 1.364 . S
C245 H224 0.952 . S
C245 C244 1.372 . S
C245 C246 1.389 . S
C246 H225 0.949 . S
C246 C245 1.389 . S
C246 C247 1.387 . S
C247 C246 1.387 . S
C247 C248 1.372 . S
C248 H226 0.950 . S
C248 C247 1.372 . S
C248 C249 1.379 . S
C249 H227 0.948 . S
C249 C244 1.364 . S
C249 C248 1.379 . S
C250 C219 1.383 . S
C250 C237 1.479 . S
C250 C251 1.398 . S
C251 C216 1.382 . S
C251 H228 0.951 . S
C251 C250 1.398 . S
C252 C253 1.384 . S
C252 H265 0.947 . S
C252 C287 1.382 . S
C253 C252 1.384 . S
C253 C254 1.378 . S
C254 C253 1.378 . S
C254 C255 1.378 . S
C254 H266 0.952 . S
C255 C254 1.378 . S
C255 H267 0.950 . S
C255 C286 1.383 . S
H256 C275 0.947 . S
H257 C276 0.946 . S
H258 C278 0.953 . S
H259 C279 0.945 . S
H260 C281 0.952 . S
H261 C282 0.949 . S
H262 C284 0.950 . S
H263 C285 0.948 . S
H264 C287 0.951 . S
H265 C252 0.947 . S
H266 C254 0.952 . S
H267 C255 0.950 . S
N268 C271 1.382 . S
N268 C273 1.363 . S
N269 C271 1.371 . S
N269 C272 1.372 . S
N270 C272 1.361 . S
N270 C273 1.377 . S
C271 N268 1.382 . S
C271 N269 1.371 . S
C271 C274 1.480 . S
C272 N269 1.372 . S
C272 N270 1.361 . S
C272 C280 1.457 . S
C273 N268 1.363 . S
C273 N270 1.377 . S
C273 C286 1.479 . S
C274 C271 1.480 . S
C274 C275 1.383 . S
C274 C279 1.385 . S
C275 H256 0.947 . S
C275 C274 1.383 . S
C275 C276 1.388 . S
C276 H257 0.946 . S
C276 C275 1.388 . S
C276 C277 1.384 . S
C277 C276 1.384 . S
C277 C278 1.377 . S
C278 H258 0.953 . S
C278 C277 1.377 . S
C278 C279 1.369 . S
C279 H259 0.945 . S
C279 C274 1.385 . S
C279 C278 1.369 . S
C280 C272 1.457 . S
C280 C281 1.372 . S
C280 C285 1.364 . S
C281 H260 0.952 . S
C281 C280 1.372 . S
C281 C282 1.389 . S
C282 H261 0.949 . S
C282 C281 1.389 . S
C282 C283 1.387 . S
C283 C282 1.387 . S
C283 C284 1.372 . S
C284 H262 0.950 . S
C284 C283 1.372 . S
C284 C285 1.379 . S
C285 H263 0.948 . S
C285 C280 1.364 . S
C285 C284 1.379 . S
C286 C255 1.383 . S
C286 C273 1.479 . S
C286 C287 1.398 . S
C287 C252 1.382 . S
C287 H264 0.951 . S
C287 C286 1.398 . S
C288 C289 1.384 . S
C288 H301 0.947 . S
C288 C323 1.382 . S
C289 C288 1.384 . S
C289 C290 1.378 . S
C290 C289 1.378 . S
C290 C291 1.378 . S
C290 H302 0.952 . S
C291 C290 1.378 . S
C291 H303 0.950 . S
C291 C322 1.383 . S
H292 C311 0.947 . S
H293 C312 0.946 . S
H294 C314 0.953 . S
H295 C315 0.945 . S
H296 C317 0.952 . S
H297 C318 0.949 . S
H298 C320 0.950 . S
H299 C321 0.948 . S
H300 C323 0.951 . S
H301 C288 0.947 . S
H302 C290 0.952 . S
H303 C291 0.950 . S
N304 C307 1.382 . S
N304 C309 1.363 . S
N305 C307 1.371 . S
N305 C308 1.372 . S
N306 C308 1.361 . S
N306 C309 1.377 . S
C307 N304 1.382 . S
C307 N305 1.371 . S
C307 C310 1.480 . S
C308 N305 1.372 . S
C308 N306 1.361 . S
C308 C316 1.457 . S
C309 N304 1.363 . S
C309 N306 1.377 . S
C309 C322 1.479 . S
C310 C307 1.480 . S
C310 C311 1.383 . S
C310 C315 1.385 . S
C311 H292 0.947 . S
C311 C310 1.383 . S
C311 C312 1.388 . S
C312 H293 0.946 . S
C312 C311 1.388 . S
C312 C313 1.384 . S
C313 C312 1.384 . S
C313 C314 1.377 . S
C314 H294 0.953 . S
C314 C313 1.377 . S
C314 C315 1.369 . S
C315 H295 0.945 . S
C315 C310 1.385 . S
C315 C314 1.369 . S
C316 C308 1.457 . S
C316 C317 1.372 . S
C316 C321 1.364 . S
C317 H296 0.952 . S
C317 C316 1.372 . S
C317 C318 1.389 . S
C318 H297 0.949 . S
C318 C317 1.389 . S
C318 C319 1.387 . S
C319 C318 1.387 . S
C319 C320 1.372 . S
C320 H298 0.950 . S
C320 C319 1.372 . S
C320 C321 1.379 . S
C321 H299 0.948 . S
C321 C316 1.364 . S
C321 C320 1.379 . S
C322 C291 1.383 . S
C322 C309 1.479 . S
C322 C323 1.398 . S
C323 C288 1.382 . S
C323 H300 0.951 . S
C323 C322 1.398 . S
C324 C325 1.384 . S
C324 H337 0.947 . S
C324 C359 1.382 . S
C325 C324 1.384 . S
C325 C326 1.378 . S
C326 C325 1.378 . S
C326 C327 1.378 . S
C326 H338 0.952 . S
C327 C326 1.378 . S
C327 H339 0.950 . S
C327 C358 1.383 . S
H328 C347 0.947 . S
H329 C348 0.946 . S
H330 C350 0.953 . S
H331 C351 0.945 . S
H332 C353 0.952 . S
H333 C354 0.949 . S
H334 C356 0.950 . S
H335 C357 0.948 . S
H336 C359 0.951 . S
H337 C324 0.947 . S
H338 C326 0.952 . S
H339 C327 0.950 . S
N340 C343 1.382 . S
N340 C345 1.363 . S
N341 C343 1.371 . S
N341 C344 1.372 . S
N342 C344 1.361 . S
N342 C345 1.377 . S
C343 N340 1.382 . S
C343 N341 1.371 . S
C343 C346 1.480 . S
C344 N341 1.372 . S
C344 N342 1.361 . S
C344 C352 1.457 . S
C345 N340 1.363 . S
C345 N342 1.377 . S
C345 C358 1.479 . S
C346 C343 1.480 . S
C346 C347 1.383 . S
C346 C351 1.385 . S
C347 H328 0.947 . S
C347 C346 1.383 . S
C347 C348 1.388 . S
C348 H329 0.946 . S
C348 C347 1.388 . S
C348 C349 1.384 . S
C349 C348 1.384 . S
C349 C350 1.377 . S
C350 H330 0.953 . S
C350 C349 1.377 . S
C350 C351 1.369 . S
C351 H331 0.945 . S
C351 C346 1.385 . S
C351 C350 1.369 . S
C352 C344 1.457 . S
C352 C353 1.372 . S
C352 C357 1.364 . S
C353 H332 0.952 . S
C353 C352 1.372 . S
C353 C354 1.389 . S
C354 H333 0.949 . S
C354 C353 1.389 . S
C354 C355 1.387 . S
C355 C354 1.387 . S
C355 C356 1.372 . S
C356 H334 0.950 . S
C356 C355 1.372 . S
C356 C357 1.379 . S
C357 H335 0.948 . S
C357 C352 1.364 . S
C357 C356 1.379 . S
C358 C327 1.383 . S
C358 C345 1.479 . S
C358 C359 1.398 . S
C359 C324 1.382 . S
C359 H336 0.951 . S
C359 C358 1.398 . S
C360 C361 1.384 . S
C360 H373 0.947 . S
C360 C395 1.382 . S
C361 C360 1.384 . S
C361 C362 1.378 . S
C362 C361 1.378 . S
C362 C363 1.378 . S
C362 H374 0.952 . S
C363 C362 1.378 . S
C363 H375 0.950 . S
C363 C394 1.383 . S
H364 C383 0.947 . S
H365 C384 0.946 . S
H366 C386 0.953 . S
H367 C387 0.945 . S
H368 C389 0.952 . S
H369 C390 0.949 . S
H370 C392 0.950 . S
H371 C393 0.948 . S
H372 C395 0.951 . S
H373 C360 0.947 . S
H374 C362 0.952 . S
H375 C363 0.950 . S
N376 C379 1.382 . S
N376 C381 1.363 . S
N377 C379 1.371 . S
N377 C380 1.372 . S
N378 C380 1.361 . S
N378 C381 1.377 . S
C379 N376 1.382 . S
C379 N377 1.371 . S
C379 C382 1.480 . S
C380 N377 1.372 . S
C380 N378 1.361 . S
C380 C388 1.457 . S
C381 N376 1.363 . S
C381 N378 1.377 . S
C381 C394 1.479 . S
C382 C379 1.480 . S
C382 C383 1.383 . S
C382 C387 1.385 . S
C383 H364 0.947 . S
C383 C382 1.383 . S
C383 C384 1.388 . S
C384 H365 0.946 . S
C384 C383 1.388 . S
C384 C385 1.384 . S
C385 C384 1.384 . S
C385 C386 1.377 . S
C386 H366 0.953 . S
C386 C385 1.377 . S
C386 C387 1.369 . S
C387 H367 0.945 . S
C387 C382 1.385 . S
C387 C386 1.369 . S
C388 C380 1.457 . S
C388 C389 1.372 . S
C388 C393 1.364 . S
C389 H368 0.952 . S
C389 C388 1.372 . S
C389 C390 1.389 . S
C390 H369 0.949 . S
C390 C389 1.389 . S
C390 C391 1.387 . S
C391 C390 1.387 . S
C391 C392 1.372 . S
C392 H370 0.950 . S
C392 C391 1.372 . S
C392 C393 1.379 . S
C393 H371 0.948 . S
C393 C388 1.364 . S
C393 C392 1.379 . S
C394 C363 1.383 . S
C394 C381 1.479 . S
C394 C395 1.398 . S
C395 C360 1.382 . S
C395 H372 0.951 . S
C395 C394 1.398 . S
C396 C397 1.384 . S
C396 H409 0.947 . S
C396 C431 1.382 . S
C397 C396 1.384 . S
C397 C398 1.378 . S
C398 C397 1.378 . S
C398 C399 1.378 . S
C398 H410 0.952 . S
C399 C398 1.378 . S
C399 H411 0.950 . S
C399 C430 1.383 . S
H400 C419 0.947 . S
H401 C420 0.946 . S
H402 C422 0.953 . S
H403 C423 0.945 . S
H404 C425 0.952 . S
H405 C426 0.949 . S
H406 C428 0.950 . S
H407 C429 0.948 . S
H408 C431 0.951 . S
H409 C396 0.947 . S
H410 C398 0.952 . S
H411 C399 0.950 . S
N412 C415 1.382 . S
N412 C417 1.363 . S
N413 C415 1.371 . S
N413 C416 1.372 . S
N414 C416 1.361 . S
N414 C417 1.377 . S
C415 N412 1.382 . S
C415 N413 1.371 . S
C415 C418 1.480 . S
C416 N413 1.372 . S
C416 N414 1.361 . S
C416 C424 1.457 . S
C417 N412 1.363 . S
C417 N414 1.377 . S
C417 C430 1.479 . S
C418 C415 1.480 . S
C418 C419 1.383 . S
C418 C423 1.385 . S
C419 H400 0.947 . S
C419 C418 1.383 . S
C419 C420 1.388 . S
C420 H401 0.946 . S
C420 C419 1.388 . S
C420 C421 1.384 . S
C421 C420 1.384 . S
C421 C422 1.377 . S
C422 H402 0.953 . S
C422 C421 1.377 . S
C422 C423 1.369 . S
C423 H403 0.945 . S
C423 C418 1.385 . S
C423 C422 1.369 . S
C424 C416 1.457 . S
C424 C425 1.372 . S
C424 C429 1.364 . S
C425 H404 0.952 . S
C425 C424 1.372 . S
C425 C426 1.389 . S
C426 H405 0.949 . S
C426 C425 1.389 . S
C426 C427 1.387 . S
C427 C426 1.387 . S
C427 C428 1.372 . S
C428 H406 0.950 . S
C428 C427 1.372 . S
C428 C429 1.379 . S
C429 H407 0.948 . S
C429 C424 1.364 . S
C429 C428 1.379 . S
C430 C399 1.383 . S
C430 C417 1.479 . S
C430 C431 1.398 . S
C431 C396 1.382 . S
C431 H408 0.951 . S
C431 C430 1.398 . S
C432 C433 1.384 . S
C432 H445 0.947 . S
C432 C467 1.382 . S
C433 C432 1.384 . S
C433 C434 1.378 . S
C434 C433 1.378 . S
C434 C435 1.378 . S
C434 H446 0.952 . S
C435 C434 1.378 . S
C435 H447 0.950 . S
C435 C466 1.383 . S
H436 C455 0.947 . S
H437 C456 0.946 . S
H438 C458 0.953 . S
H439 C459 0.945 . S
H440 C461 0.952 . S
H441 C462 0.949 . S
H442 C464 0.950 . S
H443 C465 0.948 . S
H444 C467 0.951 . S
H445 C432 0.947 . S
H446 C434 0.952 . S
H447 C435 0.950 . S
N448 C451 1.382 . S
N448 C453 1.363 . S
N449 C451 1.371 . S
N449 C452 1.372 . S
N450 C452 1.361 . S
N450 C453 1.377 . S
C451 N448 1.382 . S
C451 N449 1.371 . S
C451 C454 1.480 . S
C452 N449 1.372 . S
C452 N450 1.361 . S
C452 C460 1.457 . S
C453 N448 1.363 . S
C453 N450 1.377 . S
C453 C466 1.479 . S
C454 C451 1.480 . S
C454 C455 1.383 . S
C454 C459 1.385 . S
C455 H436 0.947 . S
C455 C454 1.383 . S
C455 C456 1.388 . S
C456 H437 0.946 . S
C456 C455 1.388 . S
C456 C457 1.384 . S
C457 C456 1.384 . S
C457 C458 1.377 . S
C458 H438 0.953 . S
C458 C457 1.377 . S
C458 C459 1.369 . S
C459 H439 0.945 . S
C459 C454 1.385 . S
C459 C458 1.369 . S
C460 C452 1.457 . S
C460 C461 1.372 . S
C460 C465 1.364 . S
C461 H440 0.952 . S
C461 C460 1.372 . S
C461 C462 1.389 . S
C462 H441 0.949 . S
C462 C461 1.389 . S
C462 C463 1.387 . S
C463 C462 1.387 . S
C463 C464 1.372 . S
C464 H442 0.950 . S
C464 C463 1.372 . S
C464 C465 1.379 . S
C465 H443 0.948 . S
C465 C460 1.364 . S
C465 C464 1.379 . S
C466 C435 1.383 . S
C466 C453 1.479 . S
C466 C467 1.398 . S
C467 C432 1.382 . S
C467 H444 0.951 . S
C467 C466 1.398 . S
C468 C469 1.384 . S
C468 H481 0.947 . S
C468 C503 1.382 . S
C469 C468 1.384 . S
C469 C470 1.378 . S
C470 C469 1.378 . S
C470 C471 1.378 . S
C470 H482 0.952 . S
C471 C470 1.378 . S
C471 H483 0.950 . S
C471 C502 1.383 . S
H472 C491 0.947 . S
H473 C492 0.946 . S
H474 C494 0.953 . S
H475 C495 0.945 . S
H476 C497 0.952 . S
H477 C498 0.949 . S
H478 C500 0.950 . S
H479 C501 0.948 . S
H480 C503 0.951 . S
H481 C468 0.947 . S
H482 C470 0.952 . S
H483 C471 0.950 . S
N484 C487 1.382 . S
N484 C489 1.363 . S
N485 C487 1.371 . S
N485 C488 1.372 . S
N486 C488 1.361 . S
N486 C489 1.377 . S
C487 N484 1.382 . S
C487 N485 1.371 . S
C487 C490 1.480 . S
C488 N485 1.372 . S
C488 N486 1.361 . S
C488 C496 1.457 . S
C489 N484 1.363 . S
C489 N486 1.377 . S
C489 C502 1.479 . S
C490 C487 1.480 . S
C490 C491 1.383 . S
C490 C495 1.385 . S
C491 H472 0.947 . S
C491 C490 1.383 . S
C491 C492 1.388 . S
C492 H473 0.946 . S
C492 C491 1.388 . S
C492 C493 1.384 . S
C493 C492 1.384 . S
C493 C494 1.377 . S
C494 H474 0.953 . S
C494 C493 1.377 . S
C494 C495 1.369 . S
C495 H475 0.945 . S
C495 C490 1.385 . S
C495 C494 1.369 . S
C496 C488 1.457 . S
C496 C497 1.372 . S
C496 C501 1.364 . S
C497 H476 0.952 . S
C497 C496 1.372 . S
C497 C498 1.389 . S
C498 H477 0.949 . S
C498 C497 1.389 . S
C498 C499 1.387 . S
C499 C498 1.387 . S
C499 C500 1.372 . S
C500 H478 0.950 . S
C500 C499 1.372 . S
C500 C501 1.379 . S
C501 H479 0.948 . S
C501 C496 1.364 . S
C501 C500 1.379 . S
C502 C471 1.383 . S
C502 C489 1.479 . S
C502 C503 1.398 . S
C503 C468 1.382 . S
C503 H480 0.951 . S
C503 C502 1.398 . S
C504 C505 1.384 . S
C504 H517 0.947 . S
C504 C539 1.382 . S
C505 C504 1.384 . S
C505 C506 1.378 . S
C506 C505 1.378 . S
C506 C507 1.378 . S
C506 H518 0.952 . S
C507 C506 1.378 . S
C507 H519 0.950 . S
C507 C538 1.383 . S
H508 C527 0.947 . S
H509 C528 0.946 . S
H510 C530 0.953 . S
H511 C531 0.945 . S
H512 C533 0.952 . S
H513 C534 0.949 . S
H514 C536 0.950 . S
H515 C537 0.948 . S
H516 C539 0.951 . S
H517 C504 0.947 . S
H518 C506 0.952 . S
H519 C507 0.950 . S
N520 C523 1.382 . S
N520 C525 1.363 . S
N521 C523 1.371 . S
N521 C524 1.372 . S
N522 C524 1.361 . S
N522 C525 1.377 . S
C523 N520 1.382 . S
C523 N521 1.371 . S
C523 C526 1.480 . S
C524 N521 1.372 . S
C524 N522 1.361 . S
C524 C532 1.457 . S
C525 N520 1.363 . S
C525 N522 1.377 . S
C525 C538 1.479 . S
C526 C523 1.480 . S
C526 C527 1.383 . S
C526 C531 1.385 . S
C527 H508 0.947 . S
C527 C526 1.383 . S
C527 C528 1.388 . S
C528 H509 0.946 . S
C528 C527 1.388 . S
C528 C529 1.384 . S
C529 C528 1.384 . S
C529 C530 1.377 . S
C530 H510 0.953 . S
C530 C529 1.377 . S
C530 C531 1.369 . S
C531 H511 0.945 . S
C531 C526 1.385 . S
C531 C530 1.369 . S
C532 C524 1.457 . S
C532 C533 1.372 . S
C532 C537 1.364 . S
C533 H512 0.952 . S
C533 C532 1.372 . S
C533 C534 1.389 . S
C534 H513 0.949 . S
C534 C533 1.389 . S
C534 C535 1.387 . S
C535 C534 1.387 . S
C535 C536 1.372 . S
C536 H514 0.950 . S
C536 C535 1.372 . S
C536 C537 1.379 . S
C537 H515 0.948 . S
C537 C532 1.364 . S
C537 C536 1.379 . S
C538 C507 1.383 . S
C538 C525 1.479 . S
C538 C539 1.398 . S
C539 C504 1.382 . S
C539 H516 0.951 . S
C539 C538 1.398 . S
C540 C541 1.384 . S
C540 H553 0.947 . S
C540 C575 1.382 . S
C541 C540 1.384 . S
C541 C542 1.378 . S
C542 C541 1.378 . S
C542 C543 1.378 . S
C542 H554 0.952 . S
C543 C542 1.378 . S
C543 H555 0.950 . S
C543 C574 1.383 . S
H544 C563 0.947 . S
H545 C564 0.946 . S
H546 C566 0.953 . S
H547 C567 0.945 . S
H548 C569 0.952 . S
H549 C570 0.949 . S
H550 C572 0.950 . S
H551 C573 0.948 . S
H552 C575 0.951 . S
H553 C540 0.947 . S
H554 C542 0.952 . S
H555 C543 0.950 . S
N556 C559 1.382 . S
N556 C561 1.363 . S
N557 C559 1.371 . S
N557 C560 1.372 . S
N558 C560 1.361 . S
N558 C561 1.377 . S
C559 N556 1.382 . S
C559 N557 1.371 . S
C559 C562 1.480 . S
C560 N557 1.372 . S
C560 N558 1.361 . S
C560 C568 1.457 . S
C561 N556 1.363 . S
C561 N558 1.377 . S
C561 C574 1.479 . S
C562 C559 1.480 . S
C562 C563 1.383 . S
C562 C567 1.385 . S
C563 H544 0.947 . S
C563 C562 1.383 . S
C563 C564 1.388 . S
C564 H545 0.946 . S
C564 C563 1.388 . S
C564 C565 1.384 . S
C565 C564 1.384 . S
C565 C566 1.377 . S
C566 H546 0.953 . S
C566 C565 1.377 . S
C566 C567 1.369 . S
C567 H547 0.945 . S
C567 C562 1.385 . S
C567 C566 1.369 . S
C568 C560 1.457 . S
C568 C569 1.372 . S
C568 C573 1.364 . S
C569 H548 0.952 . S
C569 C568 1.372 . S
C569 C570 1.389 . S
C570 H549 0.949 . S
C570 C569 1.389 . S
C570 C571 1.387 . S
C571 C570 1.387 . S
C571 C572 1.372 . S
C572 H550 0.950 . S
C572 C571 1.372 . S
C572 C573 1.379 . S
C573 H551 0.948 . S
C573 C568 1.364 . S
C573 C572 1.379 . S
C574 C543 1.383 . S
C574 C561 1.479 . S
C574 C575 1.398 . S
C575 C540 1.382 . S
C575 H552 0.951 . S
C575 C574 1.398 . S
C576 C577 1.384 . S
C576 H589 0.947 . S
C576 C611 1.382 . S
C577 C576 1.384 . S
C577 C578 1.378 . S
C578 C577 1.378 . S
C578 C579 1.378 . S
C578 H590 0.952 . S
C579 C578 1.378 . S
C579 H591 0.950 . S
C579 C610 1.383 . S
H580 C599 0.947 . S
H581 C600 0.946 . S
H582 C602 0.953 . S
H583 C603 0.945 . S
H584 C605 0.952 . S
H585 C606 0.949 . S
H586 C608 0.950 . S
H587 C609 0.948 . S
H588 C611 0.951 . S
H589 C576 0.947 . S
H590 C578 0.952 . S
H591 C579 0.950 . S
N592 C595 1.382 . S
N592 C597 1.363 . S
N593 C595 1.371 . S
N593 C596 1.372 . S
N594 C596 1.361 . S
N594 C597 1.377 . S
C595 N592 1.382 . S
C595 N593 1.371 . S
C595 C598 1.480 . S
C596 N593 1.372 . S
C596 N594 1.361 . S
C596 C604 1.457 . S
C597 N592 1.363 . S
C597 N594 1.377 . S
C597 C610 1.479 . S
C598 C595 1.480 . S
C598 C599 1.383 . S
C598 C603 1.385 . S
C599 H580 0.947 . S
C599 C598 1.383 . S
C599 C600 1.388 . S
C600 H581 0.946 . S
C600 C599 1.388 . S
C600 C601 1.384 . S
C601 C600 1.384 . S
C601 C602 1.377 . S
C602 H582 0.953 . S
C602 C601 1.377 . S
C602 C603 1.369 . S
C603 H583 0.945 . S
C603 C598 1.385 . S
C603 C602 1.369 . S
C604 C596 1.457 . S
C604 C605 1.372 . S
C604 C609 1.364 . S
C605 H584 0.952 . S
C605 C604 1.372 . S
C605 C606 1.389 . S
C606 H585 0.949 . S
C606 C605 1.389 . S
C606 C607 1.387 . S
C607 C606 1.387 . S
C607 C608 1.372 . S
C608 H586 0.950 . S
C608 C607 1.372 . S
C608 C609 1.379 . S
C609 H587 0.948 . S
C609 C604 1.364 . S
C609 C608 1.379 . S
C610 C579 1.383 . S
C610 C597 1.479 . S
C610 C611 1.398 . S
C611 C576 1.382 . S
C611 H588 0.951 . S
C611 C610 1.398 . S
C612 C613 1.384 . S
C612 H625 0.947 . S
C612 C647 1.382 . S
C613 C612 1.384 . S
C613 C614 1.378 . S
C614 C613 1.378 . S
C614 C615 1.378 . S
C614 H626 0.952 . S
C615 C614 1.378 . S
C615 H627 0.950 . S
C615 C646 1.383 . S
H616 C635 0.947 . S
H617 C636 0.946 . S
H618 C638 0.953 . S
H619 C639 0.945 . S
H620 C641 0.952 . S
H621 C642 0.949 . S
H622 C644 0.950 . S
H623 C645 0.948 . S
H624 C647 0.951 . S
H625 C612 0.947 . S
H626 C614 0.952 . S
H627 C615 0.950 . S
N628 C631 1.382 . S
N628 C633 1.363 . S
N629 C631 1.371 . S
N629 C632 1.372 . S
N630 C632 1.361 . S
N630 C633 1.377 . S
C631 N628 1.382 . S
C631 N629 1.371 . S
C631 C634 1.480 . S
C632 N629 1.372 . S
C632 N630 1.361 . S
C632 C640 1.457 . S
C633 N628 1.363 . S
C633 N630 1.377 . S
C633 C646 1.479 . S
C634 C631 1.480 . S
C634 C635 1.383 . S
C634 C639 1.385 . S
C635 H616 0.947 . S
C635 C634 1.383 . S
C635 C636 1.388 . S
C636 H617 0.946 . S
C636 C635 1.388 . S
C636 C637 1.384 . S
C637 C636 1.384 . S
C637 C638 1.377 . S
C638 H618 0.953 . S
C638 C637 1.377 . S
C638 C639 1.369 . S
C639 H619 0.945 . S
C639 C634 1.385 . S
C639 C638 1.369 . S
C640 C632 1.457 . S
C640 C641 1.372 . S
C640 C645 1.364 . S
C641 H620 0.952 . S
C641 C640 1.372 . S
C641 C642 1.389 . S
C642 H621 0.949 . S
C642 C641 1.389 . S
C642 C643 1.387 . S
C643 C642 1.387 . S
C643 C644 1.372 . S
C644 H622 0.950 . S
C644 C643 1.372 . S
C644 C645 1.379 . S
C645 H623 0.948 . S
C645 C640 1.364 . S
C645 C644 1.379 . S
C646 C615 1.383 . S
C646 C633 1.479 . S
C646 C647 1.398 . S
C647 C612 1.382 . S
C647 H624 0.951 . S
C647 C646 1.398 . S
Tb648 O651 2.453 . S
Tb648 O652 2.596 1_545 S
Tb648 O653 2.374 1_545 S
Tb648 O661 2.343 1_554 S
Tb648 O663 2.353 . S
Tb648 O665 2.427 1_554 S
Tb648 O666 2.513 1_554 S
C649 O653 1.251 . S
C649 O655 1.271 . S
Tb650 O652 2.343 1_556 S
Tb650 O655 2.350 1_556 S
Tb650 O658 2.427 1_556 S
Tb650 O659 2.513 1_556 S
Tb650 O660 2.453 . S
Tb650 O661 2.596 1_565 S
Tb650 O662 2.374 1_565 S
O651 Tb648 2.453 . S
O651 C667 1.245 . S
O652 Tb648 2.596 1_565 S
O652 Tb650 2.343 1_554 S
O652 C667 1.259 1_565 S
O653 Tb648 2.374 1_565 S
O653 C649 1.251 . S
C654 O658 1.275 . S
C654 O659 1.246 . S
O655 C649 1.271 . S
O655 Tb650 2.350 1_554 S
C656 O660 1.245 . S
C656 O661 1.259 1_565 S
C657 O662 1.250 . S
C657 O663 1.263 1_556 S
O658 Tb650 2.427 1_554 S
O658 C654 1.275 . S
O659 Tb650 2.513 1_554 S
O659 C654 1.246 . S
O660 Tb650 2.453 . S
O660 C656 1.245 . S
O661 Tb648 2.343 1_556 S
O661 Tb650 2.596 1_545 S
O661 C656 1.259 1_545 S
O662 Tb650 2.374 1_545 S
O662 C657 1.250 . S
O663 Tb648 2.353 . S
O663 C657 1.263 1_554 S
C664 O665 1.275 . S
C664 O666 1.246 . S
O665 Tb648 2.427 1_556 S
O665 C664 1.275 . S
O666 Tb648 2.513 1_556 S
O666 C664 1.246 . S
C667 O651 1.245 . S
C667 O652 1.259 1_545 S
Tb668 O671 2.453 . S
Tb668 O672 2.596 1_655 S
Tb668 O673 2.374 1_655 S
Tb668 O681 2.343 1_554 S
Tb668 O683 2.353 . S
Tb668 O685 2.427 1_554 S
Tb668 O686 2.513 1_554 S
C669 O673 1.251 . S
C669 O675 1.263 . S
Tb670 O672 2.343 1_556 S
Tb670 O675 2.353 1_556 S
Tb670 O678 2.427 1_556 S
Tb670 O679 2.513 1_556 S
Tb670 O680 2.453 . S
Tb670 O681 2.596 1_455 S
Tb670 O682 2.374 1_455 S
O671 Tb668 2.453 . S
O671 C687 1.245 1_655 S
O672 Tb668 2.596 1_455 S
O672 Tb670 2.343 1_554 S
O672 C687 1.259 . S
O673 Tb668 2.374 1_455 S
O673 C669 1.251 . S
C674 O678 1.275 . S
C674 O679 1.246 . S
O675 C669 1.263 . S
O675 Tb670 2.353 1_554 S
C676 O680 1.219 1_655 S
C676 O681 1.269 . S
C677 O682 1.250 . S
C677 O683 1.263 1_556 S
O678 Tb670 2.427 1_554 S
O678 C674 1.275 . S
O679 Tb670 2.513 1_554 S
O679 C674 1.246 . S
O680 Tb670 2.453 . S
O680 C676 1.219 1_455 S
O681 Tb668 2.343 1_556 S
O681 Tb670 2.596 1_655 S
O681 C676 1.269 . S
O682 Tb670 2.374 1_655 S
O682 C677 1.250 . S
O683 Tb668 2.353 . S
O683 C677 1.263 1_554 S
C684 O685 1.275 . S
C684 O686 1.246 . S
O685 Tb668 2.427 1_556 S
O685 C684 1.275 . S
O686 Tb668 2.513 1_556 S
O686 C684 1.246 . S
C687 O671 1.245 1_455 S
C687 O672 1.259 . S
Tb688 O691 2.453 . S
Tb688 O692 2.596 . S
Tb688 O693 2.374 . S
Tb688 O701 2.343 1_556 S
Tb688 O703 2.353 1_556 S
Tb688 O705 2.427 1_556 S
Tb688 O706 2.513 1_556 S
C689 O693 1.251 . S
C689 O695 1.263 1_556 S
Tb690 O692 2.343 1_554 S
Tb690 O695 2.353 . S
Tb690 O698 2.427 1_554 S
Tb690 O699 2.513 1_554 S
Tb690 O700 2.453 . S
Tb690 O701 2.596 . S
Tb690 O702 2.374 . S
O691 Tb688 2.453 . S
O691 C707 1.245 . S
O692 Tb688 2.596 . S
O692 Tb690 2.343 1_556 S
O692 C707 1.259 . S
O693 Tb688 2.374 . S
O693 C689 1.251 . S
C694 O698 1.275 . S
C694 O699 1.246 . S
O695 C689 1.263 1_554 S
O695 Tb690 2.353 . S
C696 O700 1.245 . S
C696 O701 1.259 . S
C697 O702 1.250 . S
C697 O703 1.263 . S
O698 Tb690 2.427 1_556 S
O698 C694 1.275 . S
O699 Tb690 2.513 1_556 S
O699 C694 1.246 . S
O700 Tb690 2.453 . S
O700 C696 1.245 . S
O701 Tb688 2.343 1_554 S
O701 Tb690 2.596 . S
O701 C696 1.259 . S
O702 Tb690 2.374 . S
O702 C697 1.250 . S
O703 Tb688 2.353 1_554 S
O703 C697 1.263 . S
C704 O705 1.275 . S
C704 O706 1.246 . S
O705 Tb688 2.427 1_554 S
O705 C704 1.275 . S
O706 Tb688 2.513 1_554 S
O706 C704 1.246 . S
C707 O691 1.245 . S
C707 O692 1.259 . S
Tb708 O711 2.453 . S
Tb708 O712 2.596 . S
Tb708 O713 2.374 . S
Tb708 O721 2.343 . S
Tb708 O723 2.353 . S
Tb708 O725 2.427 . S
Tb708 O726 2.513 . S
C709 O713 1.251 . S
C709 O715 1.263 . S
Tb710 O712 2.343 . S
Tb710 O715 2.353 . S
Tb710 O718 2.427 . S
Tb710 O719 2.513 . S
Tb710 O720 2.453 . S
Tb710 O721 2.596 . S
Tb710 O722 2.374 . S
O711 Tb708 2.453 . S
O711 C727 1.245 . S
O712 Tb708 2.596 . S
O712 Tb710 2.343 . S
O712 C727 1.259 . S
O713 Tb708 2.374 . S
O713 C709 1.251 . S
C714 O718 1.275 . S
C714 O719 1.246 . S
O715 C709 1.263 . S
O715 Tb710 2.353 . S
C716 O720 1.245 . S
C716 O721 1.259 . S
C717 O722 1.250 . S
C717 O723 1.263 . S
O718 Tb710 2.427 . S
O718 C714 1.275 . S
O719 Tb710 2.513 . S
O719 C714 1.246 . S
O720 Tb710 2.453 . S
O720 C716 1.245 . S
O721 Tb708 2.343 . S
O721 Tb710 2.596 . S
O721 C716 1.259 . S
O722 Tb710 2.374 . S
O722 C717 1.250 . S
O723 Tb708 2.353 . S
O723 C717 1.263 . S
C724 O725 1.275 . S
C724 O726 1.246 . S
O725 Tb708 2.427 . S
O725 C724 1.275 . S
O726 Tb708 2.513 . S
O726 C724 1.246 . S
C727 O711 1.245 . S
C727 O712 1.259 . S
Tb728 O731 2.453 . S
Tb728 O732 2.596 . S
Tb728 O733 2.374 . S
Tb728 O741 2.343 . S
Tb728 O743 2.353 . S
Tb728 O745 2.427 . S
Tb728 O746 2.513 . S
C729 O733 1.251 . S
C729 O735 1.263 . S
Tb730 O732 2.343 . S
Tb730 O735 2.353 . S
Tb730 O738 2.427 . S
Tb730 O739 2.513 . S
Tb730 O740 2.453 . S
Tb730 O741 2.596 . S
Tb730 O742 2.374 . S
O731 Tb728 2.453 . S
O731 C747 1.245 . S
O732 Tb728 2.596 . S
O732 Tb730 2.343 . S
O732 C747 1.259 . S
O733 Tb728 2.374 . S
O733 C729 1.251 . S
C734 O738 1.275 . S
C734 O739 1.246 . S
O735 C729 1.263 . S
O735 Tb730 2.353 . S
C736 O740 1.245 . S
C736 O741 1.259 . S
C737 O742 1.250 . S
C737 O743 1.263 . S
O738 Tb730 2.427 . S
O738 C734 1.275 . S
O739 Tb730 2.513 . S
O739 C734 1.246 . S
O740 Tb730 2.453 . S
O740 C736 1.245 . S
O741 Tb728 2.343 . S
O741 Tb730 2.596 . S
O741 C736 1.259 . S
O742 Tb730 2.374 . S
O742 C737 1.250 . S
O743 Tb728 2.353 . S
O743 C737 1.263 . S
C744 O745 1.275 . S
C744 O746 1.246 . S
O745 Tb728 2.427 . S
O745 C744 1.275 . S
O746 Tb728 2.513 . S
O746 C744 1.246 . S
C747 O731 1.245 . S
C747 O732 1.259 . S
Tb748 O751 2.453 . S
Tb748 O752 2.596 . S
Tb748 O753 2.374 . S
Tb748 O761 2.343 . S
Tb748 O763 2.353 . S
Tb748 O765 2.427 . S
Tb748 O766 2.513 . S
C749 O753 1.251 . S
C749 O755 1.263 . S
Tb750 O752 2.343 . S
Tb750 O755 2.353 . S
Tb750 O758 2.427 . S
Tb750 O759 2.513 . S
Tb750 O760 2.453 . S
Tb750 O761 2.596 . S
Tb750 O762 2.374 . S
O751 Tb748 2.453 . S
O751 C767 1.245 . S
O752 Tb748 2.596 . S
O752 Tb750 2.343 . S
O752 C767 1.259 . S
O753 Tb748 2.374 . S
O753 C749 1.251 . S
C754 O758 1.275 . S
C754 O759 1.246 . S
O755 C749 1.263 . S
O755 Tb750 2.353 . S
C756 O760 1.245 . S
C756 O761 1.259 . S
C757 O762 1.250 . S
C757 O763 1.263 . S
O758 Tb750 2.427 . S
O758 C754 1.275 . S
O759 Tb750 2.513 . S
O759 C754 1.246 . S
O760 Tb750 2.453 . S
O760 C756 1.245 . S
O761 Tb748 2.343 . S
O761 Tb750 2.596 . S
O761 C756 1.259 . S
O762 Tb750 2.374 . S
O762 C757 1.250 . S
O763 Tb748 2.353 . S
O763 C757 1.263 . S
C764 O765 1.275 . S
C764 O766 1.246 . S
O765 Tb748 2.427 . S
O765 C764 1.275 . S
O766 Tb748 2.513 . S
O766 C764 1.246 . S
C767 O751 1.245 . S
C767 O752 1.259 . S
Tb768 O771 2.453 . S
Tb768 O772 2.596 . S
Tb768 O773 2.374 . S
Tb768 O781 2.343 . S
Tb768 O783 2.353 . S
Tb768 O785 2.427 . S
Tb768 O786 2.513 . S
C769 O773 1.251 . S
C769 O775 1.263 . S
Tb770 O772 2.343 . S
Tb770 O775 2.353 . S
Tb770 O778 2.427 . S
Tb770 O779 2.513 . S
Tb770 O780 2.453 . S
Tb770 O781 2.596 . S
Tb770 O782 2.374 . S
O771 Tb768 2.453 . S
O771 C787 1.245 . S
O772 Tb768 2.596 . S
O772 Tb770 2.343 . S
O772 C787 1.259 . S
O773 Tb768 2.374 . S
O773 C769 1.251 . S
C774 O778 1.275 . S
C774 O779 1.246 . S
O775 C769 1.263 . S
O775 Tb770 2.353 . S
C776 O780 1.245 . S
C776 O781 1.259 . S
C777 O782 1.250 . S
C777 O783 1.263 . S
O778 Tb770 2.427 . S
O778 C774 1.275 . S
O779 Tb770 2.513 . S
O779 C774 1.246 . S
O780 Tb770 2.453 . S
O780 C776 1.245 . S
O781 Tb768 2.343 . S
O781 Tb770 2.596 . S
O781 C776 1.259 . S
O782 Tb770 2.374 . S
O782 C777 1.250 . S
O783 Tb768 2.353 . S
O783 C777 1.263 . S
C784 O785 1.275 . S
C784 O786 1.246 . S
O785 Tb768 2.427 . S
O785 C784 1.275 . S
O786 Tb768 2.513 . S
O786 C784 1.246 . S
C787 O771 1.245 . S
C787 O772 1.259 . S
Tb788 O791 2.453 . S
Tb788 O792 2.596 . S
Tb788 O793 2.374 . S
Tb788 O801 2.343 . S
Tb788 O803 2.353 . S
Tb788 O805 2.427 . S
Tb788 O806 2.513 . S
C789 O793 1.251 . S
C789 O795 1.263 . S
Tb790 O792 2.343 . S
Tb790 O795 2.353 . S
Tb790 O798 2.427 . S
Tb790 O799 2.513 . S
Tb790 O800 2.453 . S
Tb790 O801 2.596 . S
Tb790 O802 2.374 . S
O791 Tb788 2.453 . S
O791 C807 1.245 . S
O792 Tb788 2.596 . S
O792 Tb790 2.343 . S
O792 C807 1.259 . S
O793 Tb788 2.374 . S
O793 C789 1.251 . S
C794 O798 1.275 . S
C794 O799 1.246 . S
O795 C789 1.263 . S
O795 Tb790 2.353 . S
C796 O800 1.245 . S
C796 O801 1.259 . S
C797 O802 1.250 . S
C797 O803 1.263 . S
O798 Tb790 2.427 . S
O798 C794 1.275 . S
O799 Tb790 2.513 . S
O799 C794 1.246 . S
O800 Tb790 2.453 . S
O800 C796 1.245 . S
O801 Tb788 2.343 . S
O801 Tb790 2.596 . S
O801 C796 1.259 . S
O802 Tb790 2.374 . S
O802 C797 1.250 . S
O803 Tb788 2.353 . S
O803 C797 1.263 . S
C804 O805 1.275 . S
C804 O806 1.246 . S
O805 Tb788 2.427 . S
O805 C804 1.275 . S
O806 Tb788 2.513 . S
O806 C804 1.246 . S
C807 O791 1.245 . S
C807 O792 1.259 . S
Tb808 O811 2.453 . S
Tb808 O812 2.596 . S
Tb808 O813 2.374 . S
Tb808 O821 2.343 . S
Tb808 O823 2.353 . S
Tb808 O825 2.427 . S
Tb808 O826 2.513 . S
C809 O813 1.251 . S
C809 O815 1.263 . S
Tb810 O812 2.343 . S
Tb810 O815 2.353 . S
Tb810 O818 2.427 . S
Tb810 O819 2.513 . S
Tb810 O820 2.453 . S
Tb810 O821 2.596 . S
Tb810 O822 2.374 . S
O811 Tb808 2.453 . S
O811 C827 1.245 . S
O812 Tb808 2.596 . S
O812 Tb810 2.343 . S
O812 C827 1.259 . S
O813 Tb808 2.374 . S
O813 C809 1.251 . S
C814 O818 1.275 . S
C814 O819 1.246 . S
O815 C809 1.263 . S
O815 Tb810 2.353 . S
C816 O820 1.245 . S
C816 O821 1.259 . S
C817 O822 1.250 . S
C817 O823 1.263 . S
O818 Tb810 2.427 . S
O818 C814 1.275 . S
O819 Tb810 2.513 . S
O819 C814 1.246 . S
O820 Tb810 2.453 . S
O820 C816 1.245 . S
O821 Tb808 2.343 . S
O821 Tb810 2.596 . S
O821 C816 1.259 . S
O822 Tb810 2.374 . S
O822 C817 1.250 . S
O823 Tb808 2.353 . S
O823 C817 1.263 . S
C824 O825 1.275 . S
C824 O826 1.246 . S
O825 Tb808 2.427 . S
O825 C824 1.275 . S
O826 Tb808 2.513 . S
O826 C824 1.246 . S
C827 O811 1.245 . S
C827 O812 1.259 . S
C828 C829 1.363 . S
C828 C834 1.379 . S
C828 N836 1.356 . S
C829 C828 1.363 . S
C829 C835 1.363 . S
C830 C831 1.363 . S
C830 C835 1.379 . S
C830 N837 1.356 . S
C831 C830 1.363 . S
C831 C834 1.363 . S
N832 C834 1.356 . S
N832 H844 0.984 . S
N832 H845 0.985 . S
N833 C835 1.356 . S
N833 H838 0.984 . S
N833 H839 0.985 . S
C834 C828 1.379 . S
C834 C831 1.363 . S
C834 N832 1.356 . S
C835 C829 1.363 . S
C835 C830 1.379 . S
C835 N833 1.356 . S
N836 C828 1.356 . S
N836 H842 0.984 . S
N836 H843 0.984 . S
N837 C830 1.356 . S
N837 H840 0.984 . S
N837 H841 0.985 1_554 S
H838 N833 0.984 . S
H839 N833 0.985 . S
H840 N837 0.984 . S
H841 N837 0.985 1_556 S
H842 N836 0.984 . S
H843 N836 0.984 . S
H844 N832 0.984 . S
H845 N832 0.985 . S
C846 C847 1.363 . S
C846 C852 1.379 . S
C846 N854 1.356 . S
C847 C846 1.363 . S
C847 C853 1.363 . S
C848 C849 1.363 . S
C848 C853 1.379 . S
C848 N855 1.356 . S
C849 C848 1.363 . S
C849 C852 1.363 . S
N850 C852 1.356 . S
N850 H862 0.984 . S
N850 H863 0.985 . S
N851 C853 1.356 . S
N851 H856 0.984 . S
N851 H857 0.985 . S
C852 C846 1.379 . S
C852 C849 1.363 . S
C852 N850 1.356 . S
C853 C847 1.363 . S
C853 C848 1.379 . S
C853 N851 1.356 . S
N854 C846 1.356 . S
N854 H860 0.984 . S
N854 H861 0.984 . S
N855 C848 1.356 . S
N855 H858 0.984 . S
N855 H859 0.985 1_554 S
H856 N851 0.984 . S
H857 N851 0.985 . S
H858 N855 0.984 . S
H859 N855 0.985 1_556 S
H860 N854 0.984 . S
H861 N854 0.984 . S
H862 N850 0.984 . S
H863 N850 0.985 . S
C864 C865 1.363 . S
C864 C870 1.379 . S
C864 N872 1.356 . S
C865 C864 1.363 . S
C865 C871 1.363 . S
C866 C867 1.363 . S
C866 C871 1.379 . S
C866 N873 1.356 . S
C867 C866 1.363 . S
C867 C870 1.363 . S
N868 C870 1.356 . S
N868 H880 0.984 1_554 S
N868 H881 0.985 . S
N869 C871 1.356 . S
N869 H874 0.984 . S
N869 H875 0.985 . S
C870 C864 1.379 . S
C870 C867 1.363 . S
C870 N868 1.356 . S
C871 C865 1.363 . S
C871 C866 1.379 . S
C871 N869 1.356 . S
N872 C864 1.356 . S
N872 H878 0.984 . S
N872 H879 0.984 . S
N873 C866 1.356 . S
N873 H876 0.984 . S
N873 H877 0.985 . S
H874 N869 0.984 . S
H875 N869 0.985 . S
H876 N873 0.984 . S
H877 N873 0.985 . S
H878 N872 0.984 . S
H879 N872 0.984 . S
H880 N868 0.984 1_556 S
H881 N868 0.985 . S
C882 C883 1.363 . S
C882 C888 1.379 . S
C882 N890 1.356 . S
C883 C882 1.363 . S
C883 C889 1.363 . S
C884 C885 1.363 . S
C884 C889 1.379 . S
C884 N891 1.356 1_556 S
C885 C884 1.363 . S
C885 C888 1.363 . S
N886 C888 1.356 . S
N886 H898 0.984 . S
N886 H899 0.985 . S
N887 C889 1.356 . S
N887 H892 0.984 . S
N887 H893 0.985 1_556 S
C888 C882 1.379 . S
C888 C885 1.363 . S
C888 N886 1.356 . S
C889 C883 1.363 . S
C889 C884 1.379 . S
C889 N887 1.356 . S
N890 C882 1.356 . S
N890 H896 0.984 . S
N890 H897 0.984 . S
N891 C884 1.356 1_554 S
N891 H894 0.984 . S
N891 H895 0.985 . S
H892 N887 0.984 . S
H893 N887 0.985 1_554 S
H894 N891 0.984 . S
H895 N891 0.985 . S
H896 N890 0.984 . S
H897 N890 0.984 . S
H898 N886 0.984 . S
H899 N886 0.985 . S
C900 C901 1.363 . S
C900 C906 1.379 . S
C900 N908 1.356 . S
C901 C900 1.363 . S
C901 C907 1.363 . S
C902 C903 1.363 . S
C902 C907 1.379 . S
C902 N909 1.356 . S
C903 C902 1.363 . S
C903 C906 1.363 . S
N904 C906 1.356 . S
N904 H916 0.984 1_556 S
N904 H917 0.985 . S
N905 C907 1.356 . S
N905 H910 0.984 . S
N905 H911 0.985 . S
C906 C900 1.379 . S
C906 C903 1.363 . S
C906 N904 1.356 . S
C907 C901 1.363 . S
C907 C902 1.379 . S
C907 N905 1.356 . S
N908 C900 1.356 . S
N908 H914 0.984 . S
N908 H915 0.984 . S
N909 C902 1.356 . S
N909 H912 0.984 . S
N909 H913 0.985 . S
H910 N905 0.984 . S
H911 N905 0.985 . S
H912 N909 0.984 . S
H913 N909 0.985 . S
H914 N908 0.984 . S
H915 N908 0.984 . S
H916 N904 0.984 1_554 S
H917 N904 0.985 . S
C918 C919 1.363 . S
C918 C924 1.379 . S
C918 N926 1.356 . S
C919 C918 1.363 . S
C919 C925 1.363 . S
C920 C921 1.363 . S
C920 C925 1.379 . S
C920 N927 1.356 1_556 S
C921 C920 1.363 . S
C921 C924 1.363 . S
N922 C924 1.356 . S
N922 H934 0.984 . S
N922 H935 0.985 . S
N923 C925 1.351 1_554 S
N923 H928 0.977 1_554 S
N923 H929 0.998 . S
C924 C918 1.379 . S
C924 C921 1.363 . S
C924 N922 1.356 . S
C925 C919 1.363 . S
C925 C920 1.379 . S
C925 N923 1.351 1_556 S
N926 C918 1.356 . S
N926 H932 0.984 . S
N926 H933 0.984 . S
N927 C920 1.356 1_554 S
N927 H930 0.984 . S
N927 H931 0.985 . S
H928 N923 0.977 1_556 S
H929 N923 0.998 . S
H930 N927 0.984 . S
H931 N927 0.985 . S
H932 N926 0.984 . S
H933 N926 0.984 . S
H934 N922 0.984 . S
H935 N922 0.985 . S
C936 C937 1.363 . S
C936 C942 1.379 . S
C936 N944 1.356 . S
C937 C936 1.363 . S
C937 C943 1.363 . S
C938 C939 1.363 . S
C938 C943 1.379 . S
C938 N945 1.356 . S
C939 C938 1.363 . S
C939 C942 1.363 . S
N940 C942 1.356 1_554 S
N940 H952 0.984 . S
N940 H953 0.985 . S
N941 C943 1.356 . S
N941 H946 0.984 . S
N941 H947 0.985 . S
C942 C936 1.379 . S
C942 C939 1.363 . S
C942 N940 1.356 1_556 S
C943 C937 1.363 . S
C943 C938 1.379 . S
C943 N941 1.356 . S
N944 C936 1.356 . S
N944 H950 0.984 1_556 S
N944 H951 0.984 . S
N945 C938 1.356 . S
N945 H948 0.984 . S
N945 H949 0.985 . S
H946 N941 0.984 . S
H947 N941 0.985 . S
H948 N945 0.984 . S
H949 N945 0.985 . S
H950 N944 0.984 1_554 S
H951 N944 0.984 . S
H952 N940 0.984 . S
H953 N940 0.985 . S
C954 C955 1.363 . S
C954 C960 1.379 . S
C954 N962 1.356 . S
C955 C954 1.363 . S
C955 C961 1.363 . S
C956 C957 1.363 . S
C956 C961 1.379 . S
C956 N963 1.356 . S
C957 C956 1.363 . S
C957 C960 1.363 . S
N958 C960 1.356 . S
N958 H970 0.984 1_556 S
N958 H971 0.985 . S
N959 C961 1.356 . S
N959 H964 0.984 . S
N959 H965 0.985 . S
C960 C954 1.379 . S
C960 C957 1.363 . S
C960 N958 1.356 . S
C961 C955 1.363 . S
C961 C956 1.379 . S
C961 N959 1.356 . S
N962 C954 1.356 . S
N962 H968 0.984 . S
N962 H969 0.984 . S
N963 C956 1.356 . S
N963 H966 0.984 . S
N963 H967 0.985 . S
H964 N959 0.984 . S
H965 N959 0.985 . S
H966 N963 0.984 . S
H967 N963 0.985 . S
H968 N962 0.984 . S
H969 N962 0.984 . S
H970 N958 0.984 1_554 S
H971 N958 0.985 . S
C972 C973 1.363 . S
C972 C978 1.379 . S
C972 N980 1.356 1_556 S
C973 C972 1.363 . S
C973 C979 1.363 . S
C974 C975 1.363 . S
C974 C979 1.379 . S
C974 N981 1.356 . S
C975 C974 1.363 . S
C975 C978 1.368 . S
N976 C978 1.351 1_554 S
N976 H988 0.984 . S
N976 H989 0.985 . S
N977 C979 1.356 . S
N977 H982 0.984 . S
N977 H983 0.985 . S
C978 C972 1.379 . S
C978 C975 1.368 . S
C978 N976 1.351 1_556 S
C979 C973 1.363 . S
C979 C974 1.379 . S
C979 N977 1.356 . S
N980 C972 1.356 1_554 S
N980 H986 0.984 . S
N980 H987 0.972 1_554 S
N981 C974 1.356 . S
N981 H984 0.984 . S
N981 H985 0.985 . S
H982 N977 0.984 . S
H983 N977 0.985 . S
H984 N981 0.984 . S
H985 N981 0.985 . S
H986 N980 0.984 . S
H987 N980 0.972 1_556 S
H988 N976 0.984 . S
H989 N976 0.985 . S
C990 C991 1.363 . S
C990 C996 1.379 . S
C990 N998 1.356 . S
C991 C990 1.363 . S
C991 C997 1.363 . S
C992 C993 1.363 . S
C992 C997 1.379 . S
C992 N999 1.356 . S
C993 C992 1.363 . S
C993 C996 1.363 . S
N994 C996 1.356 . S
N994 H1006 0.984 . S
N994 H1007 0.985 . S
N995 C997 1.356 . S
N995 H1000 0.984 . S
N995 H1001 0.985 . S
C996 C990 1.379 . S
C996 C993 1.363 . S
C996 N994 1.356 . S
C997 C991 1.363 . S
C997 C992 1.379 . S
C997 N995 1.356 . S
N998 C990 1.356 . S
N998 H1004 0.984 . S
N998 H1005 0.984 . S
N999 C992 1.356 . S
N999 H1002 0.984 . S
N999 H1003 0.985 . S
H1000 N995 0.984 . S
H1001 N995 0.985 . S
H1002 N999 0.984 . S
H1003 N999 0.985 . S
H1004 N998 0.984 . S
H1005 N998 0.984 . S
H1006 N994 0.984 . S
H1007 N994 0.985 . S
C1008 C1009 1.363 . S
C1008 C1014 1.379 . S
C1008 N1016 1.356 . S
C1009 C1008 1.363 . S
C1009 C1015 1.363 . S
C1010 C1011 1.363 . S
C1010 C1015 1.379 . S
C1010 N1017 1.356 . S
C1011 C1010 1.363 . S
C1011 C1014 1.363 . S
N1012 C1014 1.356 . S
N1012 H1024 0.984 . S
N1012 H1025 0.985 . S
N1013 C1015 1.356 . S
N1013 H1018 0.984 . S
N1013 H1019 0.985 . S
C1014 C1008 1.379 . S
C1014 C1011 1.363 . S
C1014 N1012 1.356 . S
C1015 C1009 1.363 . S
C1015 C1010 1.379 . S
C1015 N1013 1.356 . S
N1016 C1008 1.356 . S
N1016 H1022 0.984 . S
N1016 H1023 0.984 . S
N1017 C1010 1.356 . S
N1017 H1020 0.984 . S
N1017 H1021 0.985 . S
H1018 N1013 0.984 . S
H1019 N1013 0.985 . S
H1020 N1017 0.984 . S
H1021 N1017 0.985 . S
H1022 N1016 0.984 . S
H1023 N1016 0.984 . S
H1024 N1012 0.984 . S
H1025 N1012 0.985 . S
C1026 C1027 1.363 . S
C1026 C1032 1.379 . S
C1026 N1034 1.356 . S
C1027 C1026 1.363 . S
C1027 C1033 1.363 . S
C1028 C1029 1.363 . S
C1028 C1033 1.379 . S
C1028 N1035 1.356 . S
C1029 C1028 1.363 . S
C1029 C1032 1.363 . S
N1030 C1032 1.356 1_556 S
N1030 H1042 0.984 . S
N1030 H1043 0.985 . S
N1031 C1033 1.356 . S
N1031 H1036 0.984 . S
N1031 H1037 0.985 . S
C1032 C1026 1.379 . S
C1032 C1029 1.363 . S
C1032 N1030 1.356 1_554 S
C1033 C1027 1.363 . S
C1033 C1028 1.379 . S
C1033 N1031 1.356 . S
N1034 C1026 1.356 . S
N1034 H1040 0.984 1_554 S
N1034 H1041 0.984 . S
N1035 C1028 1.356 . S
N1035 H1038 0.984 . S
N1035 H1039 0.985 . S
H1036 N1031 0.984 . S
H1037 N1031 0.985 . S
H1038 N1035 0.984 . S
H1039 N1035 0.985 . S
H1040 N1034 0.984 1_556 S
H1041 N1034 0.984 . S
H1042 N1030 0.984 . S
H1043 N1030 0.985 . S
C1044 C1045 1.363 . S
C1044 C1050 1.379 . S
C1044 N1052 1.356 1_455 S
C1045 C1044 1.363 . S
C1045 C1051 1.363 . S
C1046 C1047 1.363 . S
C1046 C1051 1.379 . S
C1046 N1053 1.356 . S
C1047 C1046 1.363 . S
C1047 C1050 1.363 . S
N1048 C1050 1.356 . S
N1048 H1060 0.984 . S
N1048 H1061 0.985 . S
N1049 C1051 1.356 . S
N1049 H1054 0.984 1_455 S
N1049 H1055 0.985 . S
C1050 C1044 1.379 . S
C1050 C1047 1.363 . S
C1050 N1048 1.356 . S
C1051 C1045 1.363 . S
C1051 C1046 1.379 . S
C1051 N1049 1.356 . S
N1052 C1044 1.356 1_655 S
N1052 H1058 0.984 . S
N1052 H1059 0.984 . S
N1053 C1046 1.356 . S
N1053 H1056 0.984 . S
N1053 H1057 0.985 . S
H1054 N1049 0.984 1_655 S
H1055 N1049 0.985 . S
H1056 N1053 0.984 . S
H1057 N1053 0.985 . S
H1058 N1052 0.984 . S
H1059 N1052 0.984 . S
H1060 N1048 0.984 . S
H1061 N1048 0.985 . S
C1062 C1063 1.363 . S
C1062 C1068 1.379 . S
C1062 N1070 1.356 . S
C1063 C1062 1.363 . S
C1063 C1069 1.363 . S
C1064 C1065 1.363 . S
C1064 C1069 1.379 . S
C1064 N1071 1.356 . S
C1065 C1064 1.363 . S
C1065 C1068 1.363 . S
N1066 C1068 1.356 . S
N1066 H1078 0.984 . S
N1066 H1079 0.985 . S
N1067 C1069 1.356 . S
N1067 H1072 0.984 . S
N1067 H1073 0.985 . S
C1068 C1062 1.379 . S
C1068 C1065 1.363 . S
C1068 N1066 1.356 . S
C1069 C1063 1.363 . S
C1069 C1064 1.379 . S
C1069 N1067 1.356 . S
N1070 C1062 1.356 . S
N1070 H1076 0.984 . S
N1070 H1077 0.984 . S
N1071 C1064 1.356 . S
N1071 H1074 0.984 . S
N1071 H1075 0.985 . S
H1072 N1067 0.984 . S
H1073 N1067 0.985 . S
H1074 N1071 0.984 . S
H1075 N1071 0.985 . S
H1076 N1070 0.984 . S
H1077 N1070 0.984 . S
H1078 N1066 0.984 . S
H1079 N1066 0.985 . S
C1080 C1081 1.363 . S
C1080 C1086 1.379 . S
C1080 N1088 1.356 . S
C1081 C1080 1.363 . S
C1081 C1087 1.363 . S
C1082 C1083 1.363 . S
C1082 C1087 1.379 . S
C1082 N1089 1.356 . S
C1083 C1082 1.363 . S
C1083 C1086 1.363 . S
N1084 C1086 1.356 . S
N1084 H1096 0.984 . S
N1084 H1097 0.985 . S
N1085 C1087 1.356 1_545 S
N1085 H1090 0.984 . S
N1085 H1091 0.985 . S
C1086 C1080 1.379 . S
C1086 C1083 1.363 . S
C1086 N1084 1.356 . S
C1087 C1081 1.363 . S
C1087 C1082 1.379 . S
C1087 N1085 1.356 1_565 S
N1088 C1080 1.356 . S
N1088 H1094 0.984 . S
N1088 H1095 0.984 1_565 S
N1089 C1082 1.356 . S
N1089 H1092 0.984 . S
N1089 H1093 0.985 . S
H1090 N1085 0.984 . S
H1091 N1085 0.985 . S
H1092 N1089 0.984 . S
H1093 N1089 0.985 . S
H1094 N1088 0.984 . S
H1095 N1088 0.984 1_545 S
H1096 N1084 0.984 . S
H1097 N1084 0.985 . S
C1098 C1099 1.363 . S
C1098 C1104 1.379 . S
C1098 N1106 1.356 . S
C1099 C1098 1.363 . S
C1099 C1105 1.363 . S
C1100 C1101 1.363 . S
C1100 C1105 1.379 . S
C1100 N1107 1.356 . S
C1101 C1100 1.363 . S
C1101 C1104 1.363 . S
N1102 C1104 1.356 . S
N1102 H1114 0.984 . S
N1102 H1115 0.985 . S
N1103 C1105 1.356 . S
N1103 H1108 0.984 . S
N1103 H1109 0.985 . S
C1104 C1098 1.379 . S
C1104 C1101 1.363 . S
C1104 N1102 1.356 . S
C1105 C1099 1.363 . S
C1105 C1100 1.379 . S
C1105 N1103 1.356 . S
N1106 C1098 1.356 . S
N1106 H1112 0.984 . S
N1106 H1113 0.984 . S
N1107 C1100 1.356 . S
N1107 H1110 0.984 . S
N1107 H1111 0.985 . S
H1108 N1103 0.984 . S
H1109 N1103 0.985 . S
H1110 N1107 0.984 . S
H1111 N1107 0.985 . S
H1112 N1106 0.984 . S
H1113 N1106 0.984 . S
H1114 N1102 0.984 . S
H1115 N1102 0.985 . S
C1116 C1117 1.363 . S
C1116 C1122 1.379 . S
C1116 N1124 1.356 . S
C1117 C1116 1.363 . S
C1117 C1123 1.363 . S
C1118 C1119 1.363 . S
C1118 C1123 1.379 . S
C1118 N1125 1.356 . S
C1119 C1118 1.363 . S
C1119 C1122 1.363 . S
N1120 C1122 1.356 . S
N1120 H1132 0.984 . S
N1120 H1133 0.985 . S
N1121 C1123 1.356 . S
N1121 H1126 0.984 . S
N1121 H1127 0.985 . S
C1122 C1116 1.379 . S
C1122 C1119 1.363 . S
C1122 N1120 1.356 . S
C1123 C1117 1.363 . S
C1123 C1118 1.379 . S
C1123 N1121 1.356 . S
N1124 C1116 1.356 . S
N1124 H1130 0.984 . S
N1124 H1131 0.984 . S
N1125 C1118 1.356 . S
N1125 H1128 0.984 . S
N1125 H1129 0.985 . S
H1126 N1121 0.984 . S
H1127 N1121 0.985 . S
H1128 N1125 0.984 . S
H1129 N1125 0.985 . S
H1130 N1124 0.984 . S
H1131 N1124 0.984 . S
H1132 N1120 0.984 . S
H1133 N1120 0.985 . S
C1134 C1135 1.363 . S
C1134 C1140 1.379 . S
C1134 N1142 1.356 . S
C1135 C1134 1.363 . S
C1135 C1141 1.363 . S
C1136 C1137 1.363 . S
C1136 C1141 1.379 . S
C1136 N1143 1.356 . S
C1137 C1136 1.363 . S
C1137 C1140 1.363 . S
N1138 C1140 1.356 . S
N1138 H1150 0.984 . S
N1138 H1151 0.985 . S
N1139 C1141 1.356 . S
N1139 H1144 0.984 . S
N1139 H1145 0.985 . S
C1140 C1134 1.379 . S
C1140 C1137 1.363 . S
C1140 N1138 1.356 . S
C1141 C1135 1.363 . S
C1141 C1136 1.379 . S
C1141 N1139 1.356 . S
N1142 C1134 1.356 . S
N1142 H1148 0.984 . S
N1142 H1149 0.984 . S
N1143 C1136 1.356 . S
N1143 H1146 0.984 . S
N1143 H1147 0.985 . S
H1144 N1139 0.984 . S
H1145 N1139 0.985 . S
H1146 N1143 0.984 . S
H1147 N1143 0.985 . S
H1148 N1142 0.984 . S
H1149 N1142 0.984 . S
H1150 N1138 0.984 . S
H1151 N1138 0.985 . S
C1152 C1153 1.363 . S
C1152 C1158 1.379 . S
C1152 N1160 1.356 . S
C1153 C1152 1.363 . S
C1153 C1159 1.363 . S
C1154 C1155 1.363 . S
C1154 C1159 1.379 . S
C1154 N1161 1.356 . S
C1155 C1154 1.363 . S
C1155 C1158 1.363 . S
N1156 C1158 1.356 . S
N1156 H1168 0.984 . S
N1156 H1169 0.985 . S
N1157 C1159 1.356 . S
N1157 H1162 0.984 . S
N1157 H1163 0.985 . S
C1158 C1152 1.379 . S
C1158 C1155 1.363 . S
C1158 N1156 1.356 . S
C1159 C1153 1.363 . S
C1159 C1154 1.379 . S
C1159 N1157 1.356 . S
N1160 C1152 1.356 . S
N1160 H1166 0.984 . S
N1160 H1167 0.984 . S
N1161 C1154 1.356 . S
N1161 H1164 0.984 . S
N1161 H1165 0.985 . S
H1162 N1157 0.984 . S
H1163 N1157 0.985 . S
H1164 N1161 0.984 . S
H1165 N1161 0.985 . S
H1166 N1160 0.984 . S
H1167 N1160 0.984 . S
H1168 N1156 0.984 . S
H1169 N1156 0.985 . S
C1170 C1171 1.363 . S
C1170 C1176 1.379 . S
C1170 N1178 1.356 . S
C1171 C1170 1.363 . S
C1171 C1177 1.363 . S
C1172 C1173 1.363 . S
C1172 C1177 1.379 . S
C1172 N1179 1.356 . S
C1173 C1172 1.363 . S
C1173 C1176 1.363 . S
N1174 C1176 1.356 . S
N1174 H1186 0.984 . S
N1174 H1187 0.985 . S
N1175 C1177 1.356 . S
N1175 H1180 0.984 . S
N1175 H1181 0.985 . S
C1176 C1170 1.379 . S
C1176 C1173 1.363 . S
C1176 N1174 1.356 . S
C1177 C1171 1.363 . S
C1177 C1172 1.379 . S
C1177 N1175 1.356 . S
N1178 C1170 1.356 . S
N1178 H1184 0.984 . S
N1178 H1185 0.984 . S
N1179 C1172 1.356 . S
N1179 H1182 0.984 . S
N1179 H1183 0.985 . S
H1180 N1175 0.984 . S
H1181 N1175 0.985 . S
H1182 N1179 0.984 . S
H1183 N1179 0.985 . S
H1184 N1178 0.984 . S
H1185 N1178 0.984 . S
H1186 N1174 0.984 . S
H1187 N1174 0.985 . S
C1188 C1189 1.363 . S
C1188 C1194 1.379 . S
C1188 N1196 1.356 . S
C1189 C1188 1.363 . S
C1189 C1195 1.363 . S
C1190 C1191 1.363 . S
C1190 C1195 1.379 . S
C1190 N1197 1.356 . S
C1191 C1190 1.363 . S
C1191 C1194 1.363 . S
N1192 C1194 1.356 . S
N1192 H1204 0.984 . S
N1192 H1205 0.985 . S
N1193 C1195 1.356 . S
N1193 H1198 0.984 . S
N1193 H1199 0.985 . S
C1194 C1188 1.379 . S
C1194 C1191 1.363 . S
C1194 N1192 1.356 . S
C1195 C1189 1.363 . S
C1195 C1190 1.379 . S
C1195 N1193 1.356 . S
N1196 C1188 1.356 . S
N1196 H1202 0.984 . S
N1196 H1203 0.984 . S
N1197 C1190 1.356 . S
N1197 H1200 0.984 . S
N1197 H1201 0.985 . S
H1198 N1193 0.984 . S
H1199 N1193 0.985 . S
H1200 N1197 0.984 . S
H1201 N1197 0.985 . S
H1202 N1196 0.984 . S
H1203 N1196 0.984 . S
H1204 N1192 0.984 . S
H1205 N1192 0.985 . S
C1206 C1207 1.363 . S
C1206 C1212 1.379 . S
C1206 N1214 1.356 . S
C1207 C1206 1.363 . S
C1207 C1213 1.363 . S
C1208 C1209 1.363 . S
C1208 C1213 1.379 . S
C1208 N1215 1.356 . S
C1209 C1208 1.363 . S
C1209 C1212 1.363 . S
N1210 C1212 1.356 . S
N1210 H1222 0.984 . S
N1210 H1223 0.985 . S
N1211 C1213 1.356 1_545 S
N1211 H1216 0.984 . S
N1211 H1217 0.985 . S
C1212 C1206 1.379 . S
C1212 C1209 1.363 . S
C1212 N1210 1.356 . S
C1213 C1207 1.363 . S
C1213 C1208 1.379 . S
C1213 N1211 1.356 1_565 S
N1214 C1206 1.356 . S
N1214 H1220 0.984 . S
N1214 H1221 0.984 1_565 S
N1215 C1208 1.356 . S
N1215 H1218 0.984 . S
N1215 H1219 0.985 . S
H1216 N1211 0.984 . S
H1217 N1211 0.985 . S
H1218 N1215 0.984 . S
H1219 N1215 0.985 . S
H1220 N1214 0.984 . S
H1221 N1214 0.984 1_545 S
H1222 N1210 0.984 . S
H1223 N1210 0.985 . S
C1224 C1225 1.363 . S
C1224 C1230 1.379 . S
C1224 N1232 1.356 1_455 S
C1225 C1224 1.363 . S
C1225 C1231 1.363 . S
C1226 C1227 1.363 . S
C1226 C1231 1.379 . S
C1226 N1233 1.356 . S
C1227 C1226 1.363 . S
C1227 C1230 1.363 . S
N1228 C1230 1.356 . S
N1228 H1240 0.984 . S
N1228 H1241 0.985 . S
N1229 C1231 1.356 . S
N1229 H1234 0.984 1_455 S
N1229 H1235 0.985 . S
C1230 C1224 1.379 . S
C1230 C1227 1.363 . S
C1230 N1228 1.356 . S
C1231 C1225 1.363 . S
C1231 C1226 1.379 . S
C1231 N1229 1.356 . S
N1232 C1224 1.356 1_655 S
N1232 H1238 0.984 . S
N1232 H1239 0.984 . S
N1233 C1226 1.356 . S
N1233 H1236 0.984 . S
N1233 H1237 0.985 . S
H1234 N1229 0.984 1_655 S
H1235 N1229 0.985 . S
H1236 N1233 0.984 . S
H1237 N1233 0.985 . S
H1238 N1232 0.984 . S
H1239 N1232 0.984 . S
H1240 N1228 0.984 . S
H1241 N1228 0.985 . S
C1242 C1243 1.363 . S
C1242 C1248 1.379 . S
C1242 N1250 1.356 . S
C1243 C1242 1.363 . S
C1243 C1249 1.363 . S
C1244 C1245 1.363 . S
C1244 C1249 1.379 . S
C1244 N1251 1.356 . S
C1245 C1244 1.363 . S
C1245 C1248 1.363 . S
N1246 C1248 1.356 . S
N1246 H1258 0.984 . S
N1246 H1259 0.985 . S
N1247 C1249 1.356 . S
N1247 H1252 0.984 . S
N1247 H1253 0.985 . S
C1248 C1242 1.379 . S
C1248 C1245 1.363 . S
C1248 N1246 1.356 . S
C1249 C1243 1.363 . S
C1249 C1244 1.379 . S
C1249 N1247 1.356 . S
N1250 C1242 1.356 . S
N1250 H1256 0.984 . S
N1250 H1257 0.984 . S
N1251 C1244 1.356 . S
N1251 H1254 0.984 . S
N1251 H1255 0.985 . S
H1252 N1247 0.984 . S
H1253 N1247 0.985 . S
H1254 N1251 0.984 . S
H1255 N1251 0.985 . S
H1256 N1250 0.984 . S
H1257 N1250 0.984 . S
H1258 N1246 0.984 . S
H1259 N1246 0.985 . S
C1260 C1261 1.363 . S
C1260 C1266 1.379 . S
C1260 N1268 1.356 . S
C1261 C1260 1.363 . S
C1261 C1267 1.363 . S
C1262 C1263 1.363 . S
C1262 C1267 1.379 . S
C1262 N1269 1.356 . S
C1263 C1262 1.363 . S
C1263 C1266 1.363 . S
N1264 C1266 1.356 . S
N1264 H1276 0.984 . S
N1264 H1277 0.985 . S
N1265 C1267 1.356 . S
N1265 H1270 0.984 . S
N1265 H1271 0.985 . S
C1266 C1260 1.379 . S
C1266 C1263 1.363 . S
C1266 N1264 1.356 . S
C1267 C1261 1.363 . S
C1267 C1262 1.379 . S
C1267 N1265 1.356 . S
N1268 C1260 1.356 . S
N1268 H1274 0.984 . S
N1268 H1275 0.984 . S
N1269 C1262 1.356 . S
N1269 H1272 0.984 . S
N1269 H1273 0.985 . S
H1270 N1265 0.984 . S
H1271 N1265 0.985 . S
H1272 N1269 0.984 . S
H1273 N1269 0.985 . S
H1274 N1268 0.984 . S
H1275 N1268 0.984 . S
H1276 N1264 0.984 . S
H1277 N1264 0.985 . S
C1278 C1279 1.363 . S
C1278 C1284 1.379 . S
C1278 N1286 1.356 . S
C1279 C1278 1.363 . S
C1279 C1285 1.363 . S
C1280 C1281 1.363 . S
C1280 C1285 1.379 . S
C1280 N1287 1.356 . S
C1281 C1280 1.363 . S
C1281 C1284 1.363 . S
N1282 C1284 1.356 . S
N1282 H1294 0.984 . S
N1282 H1295 0.985 . S
N1283 C1285 1.356 . S
N1283 H1288 0.984 . S
N1283 H1289 0.985 . S
C1284 C1278 1.379 . S
C1284 C1281 1.363 . S
C1284 N1282 1.356 . S
C1285 C1279 1.363 . S
C1285 C1280 1.379 . S
C1285 N1283 1.356 . S
N1286 C1278 1.356 . S
N1286 H1292 0.984 . S
N1286 H1293 0.984 . S
N1287 C1280 1.356 . S
N1287 H1290 0.984 . S
N1287 H1291 0.985 . S
H1288 N1283 0.984 . S
H1289 N1283 0.985 . S
H1290 N1287 0.984 . S
H1291 N1287 0.985 . S
H1292 N1286 0.984 . S
H1293 N1286 0.984 . S
H1294 N1282 0.984 . S
H1295 N1282 0.985 . S
C1296 C1297 1.363 . S
C1296 C1302 1.379 . S
C1296 N1304 1.356 . S
C1297 C1296 1.363 . S
C1297 C1303 1.363 . S
C1298 C1299 1.363 . S
C1298 C1303 1.379 . S
C1298 N1305 1.356 . S
C1299 C1298 1.363 . S
C1299 C1302 1.363 . S
N1300 C1302 1.356 . S
N1300 H1312 0.984 . S
N1300 H1313 0.985 . S
N1301 C1303 1.356 . S
N1301 H1306 0.984 . S
N1301 H1307 0.985 . S
C1302 C1296 1.379 . S
C1302 C1299 1.363 . S
C1302 N1300 1.356 . S
C1303 C1297 1.363 . S
C1303 C1298 1.379 . S
C1303 N1301 1.356 . S
N1304 C1296 1.356 . S
N1304 H1310 0.984 . S
N1304 H1311 0.984 . S
N1305 C1298 1.356 . S
N1305 H1308 0.984 . S
N1305 H1309 0.985 . S
H1306 N1301 0.984 . S
H1307 N1301 0.985 . S
H1308 N1305 0.984 . S
H1309 N1305 0.985 . S
H1310 N1304 0.984 . S
H1311 N1304 0.984 . S
H1312 N1300 0.984 . S
H1313 N1300 0.985 . S
C1314 C1315 1.363 . S
C1314 C1320 1.379 . S
C1314 N1322 1.356 . S
C1315 C1314 1.363 . S
C1315 C1321 1.363 . S
C1316 C1317 1.363 . S
C1316 C1321 1.379 . S
C1316 N1323 1.356 . S
C1317 C1316 1.363 . S
C1317 C1320 1.363 . S
N1318 C1320 1.356 . S
N1318 H1330 0.984 . S
N1318 H1331 0.985 . S
N1319 C1321 1.356 1_565 S
N1319 H1324 0.984 . S
N1319 H1325 0.985 . S
C1320 C1314 1.379 . S
C1320 C1317 1.363 . S
C1320 N1318 1.356 . S
C1321 C1315 1.363 . S
C1321 C1316 1.379 . S
C1321 N1319 1.356 1_545 S
N1322 C1314 1.356 . S
N1322 H1328 0.984 . S
N1322 H1329 0.984 1_545 S
N1323 C1316 1.356 . S
N1323 H1326 0.984 . S
N1323 H1327 0.985 . S
H1324 N1319 0.984 . S
H1325 N1319 0.985 . S
H1326 N1323 0.984 . S
H1327 N1323 0.985 . S
H1328 N1322 0.984 . S
H1329 N1322 0.984 1_565 S
H1330 N1318 0.984 . S
H1331 N1318 0.985 . S
C1332 C1333 1.363 . S
C1332 C1338 1.379 . S
C1332 N1340 1.356 1_655 S
C1333 C1332 1.363 . S
C1333 C1339 1.363 . S
C1334 C1335 1.363 . S
C1334 C1339 1.379 . S
C1334 N1341 1.356 . S
C1335 C1334 1.363 . S
C1335 C1338 1.363 . S
N1336 C1338 1.356 . S
N1336 H1348 0.984 . S
N1336 H1349 0.985 . S
N1337 C1339 1.356 . S
N1337 H1342 0.986 1_655 S
N1337 H1343 0.985 . S
C1338 C1332 1.379 . S
C1338 C1335 1.363 . S
C1338 N1336 1.356 . S
C1339 C1333 1.363 . S
C1339 C1334 1.379 . S
C1339 N1337 1.356 . S
N1340 C1332 1.356 1_455 S
N1340 H1346 0.984 . S
N1340 H1347 0.984 . S
N1341 C1334 1.356 . S
N1341 H1344 0.984 . S
N1341 H1345 0.985 . S
H1342 N1337 0.986 1_455 S
H1343 N1337 0.985 . S
H1344 N1341 0.984 . S
H1345 N1341 0.985 . S
H1346 N1340 0.984 . S
H1347 N1340 0.984 . S
H1348 N1336 0.984 . S
H1349 N1336 0.985 . S
C1350 C1351 1.363 . S
C1350 C1356 1.379 . S
C1350 N1358 1.356 . S
C1351 C1350 1.363 . S
C1351 C1357 1.363 . S
C1352 C1353 1.363 . S
C1352 C1357 1.379 . S
C1352 N1359 1.356 . S
C1353 C1352 1.363 . S
C1353 C1356 1.363 . S
N1354 C1356 1.356 . S
N1354 H1366 0.984 . S
N1354 H1367 0.985 . S
N1355 C1357 1.356 . S
N1355 H1360 0.984 . S
N1355 H1361 0.985 . S
C1356 C1350 1.379 . S
C1356 C1353 1.363 . S
C1356 N1354 1.356 . S
C1357 C1351 1.363 . S
C1357 C1352 1.379 . S
C1357 N1355 1.356 . S
N1358 C1350 1.356 . S
N1358 H1364 0.984 . S
N1358 H1365 0.984 . S
N1359 C1352 1.356 . S
N1359 H1362 0.984 . S
N1359 H1363 0.985 . S
H1360 N1355 0.984 . S
H1361 N1355 0.985 . S
H1362 N1359 0.984 . S
H1363 N1359 0.985 . S
H1364 N1358 0.984 . S
H1365 N1358 0.984 . S
H1366 N1354 0.984 . S
H1367 N1354 0.985 . S
C1368 C1369 1.363 1_655 S
C1368 C1374 1.379 . S
C1368 N1376 1.356 1_655 S
C1369 C1368 1.363 1_455 S
C1369 C1375 1.363 1_455 S
C1370 C1371 1.363 . S
C1370 C1375 1.379 . S
C1370 N1377 1.356 . S
C1371 C1370 1.363 . S
C1371 C1374 1.363 . S
N1372 C1374 1.356 . S
N1372 H1384 0.984 . S
N1372 H1385 0.985 . S
N1373 C1375 1.356 . S
N1373 H1378 0.984 1_655 S
N1373 H1379 0.985 . S
C1374 C1368 1.379 . S
C1374 C1371 1.363 . S
C1374 N1372 1.356 . S
C1375 C1369 1.363 1_655 S
C1375 C1370 1.379 . S
C1375 N1373 1.356 . S
N1376 C1368 1.356 1_455 S
N1376 H1382 0.984 . S
N1376 H1383 0.984 . S
N1377 C1370 1.356 . S
N1377 H1380 0.984 . S
N1377 H1381 0.985 . S
H1378 N1373 0.984 1_455 S
H1379 N1373 0.985 . S
H1380 N1377 0.984 . S
H1381 N1377 0.985 . S
H1382 N1376 0.984 . S
H1383 N1376 0.984 . S
H1384 N1372 0.984 . S
H1385 N1372 0.985 . S
C1386 C1387 1.363 . S
C1386 C1392 1.379 . S
C1386 N1394 1.356 . S
C1387 C1386 1.363 . S
C1387 C1393 1.363 . S
C1388 C1389 1.363 . S
C1388 C1393 1.379 . S
C1388 N1395 1.356 . S
C1389 C1388 1.363 . S
C1389 C1392 1.363 . S
N1390 C1392 1.356 . S
N1390 H1402 0.984 . S
N1390 H1403 0.985 . S
N1391 C1393 1.356 . S
N1391 H1396 0.984 . S
N1391 H1397 0.985 . S
C1392 C1386 1.379 . S
C1392 C1389 1.363 . S
C1392 N1390 1.356 . S
C1393 C1387 1.363 . S
C1393 C1388 1.379 . S
C1393 N1391 1.356 . S
N1394 C1386 1.356 . S
N1394 H1400 0.984 . S
N1394 H1401 0.984 . S
N1395 C1388 1.356 . S
N1395 H1398 0.984 . S
N1395 H1399 0.985 . S
H1396 N1391 0.984 . S
H1397 N1391 0.985 . S
H1398 N1395 0.984 . S
H1399 N1395 0.985 . S
H1400 N1394 0.984 . S
H1401 N1394 0.984 . S
H1402 N1390 0.984 . S
H1403 N1390 0.985 . S
C1404 C1405 1.363 . S
C1404 C1410 1.379 . S
C1404 N1412 1.356 1_545 S
C1405 C1404 1.363 . S
C1405 C1411 1.363 . S
C1406 C1407 1.363 . S
C1406 C1411 1.379 . S
C1406 N1413 1.356 . S
C1407 C1406 1.363 . S
C1407 C1410 1.363 . S
N1408 C1410 1.356 . S
N1408 H1420 0.984 . S
N1408 H1421 0.985 . S
N1409 C1411 1.356 . S
N1409 H1414 0.984 1_545 S
N1409 H1415 0.985 . S
C1410 C1404 1.379 . S
C1410 C1407 1.363 . S
C1410 N1408 1.356 . S
C1411 C1405 1.363 . S
C1411 C1406 1.379 . S
C1411 N1409 1.356 . S
N1412 C1404 1.356 1_565 S
N1412 H1418 0.984 . S
N1412 H1419 0.984 . S
N1413 C1406 1.356 . S
N1413 H1416 0.984 . S
N1413 H1417 0.985 . S
H1414 N1409 0.984 1_565 S
H1415 N1409 0.985 . S
H1416 N1413 0.984 . S
H1417 N1413 0.985 . S
H1418 N1412 0.984 . S
H1419 N1412 0.984 . S
H1420 N1408 0.984 . S
H1421 N1408 0.985 . S
C1422 C1423 1.363 . S
C1422 C1428 1.379 . S
C1422 N1430 1.356 . S
C1423 C1422 1.363 . S
C1423 C1429 1.363 . S
C1424 C1425 1.363 . S
C1424 C1429 1.379 . S
C1424 N1431 1.356 . S
C1425 C1424 1.363 . S
C1425 C1428 1.363 . S
N1426 C1428 1.356 . S
N1426 H1438 0.984 . S
N1426 H1439 0.985 . S
N1427 C1429 1.356 . S
N1427 H1432 0.984 . S
N1427 H1433 0.985 . S
C1428 C1422 1.379 . S
C1428 C1425 1.363 . S
C1428 N1426 1.356 . S
C1429 C1423 1.363 . S
C1429 C1424 1.379 . S
C1429 N1427 1.356 . S
N1430 C1422 1.356 . S
N1430 H1436 0.984 . S
N1430 H1437 0.984 . S
N1431 C1424 1.356 . S
N1431 H1434 0.984 . S
N1431 H1435 0.985 . S
H1432 N1427 0.984 . S
H1433 N1427 0.985 . S
H1434 N1431 0.984 . S
H1435 N1431 0.985 . S
H1436 N1430 0.984 . S
H1437 N1430 0.984 . S
H1438 N1426 0.984 . S
H1439 N1426 0.985 . S
C1440 C1441 1.363 . S
C1440 C1446 1.379 . S
C1440 N1448 1.356 . S
C1441 C1440 1.363 . S
C1441 C1447 1.363 . S
C1442 C1443 1.363 . S
C1442 C1447 1.379 . S
C1442 N1449 1.356 . S
C1443 C1442 1.363 . S
C1443 C1446 1.363 . S
N1444 C1446 1.356 . S
N1444 H1456 0.984 . S
N1444 H1457 0.985 . S
N1445 C1447 1.356 . S
N1445 H1450 0.984 . S
N1445 H1451 0.985 . S
C1446 C1440 1.379 . S
C1446 C1443 1.363 . S
C1446 N1444 1.356 . S
C1447 C1441 1.363 . S
C1447 C1442 1.379 . S
C1447 N1445 1.356 . S
N1448 C1440 1.356 . S
N1448 H1454 0.984 . S
N1448 H1455 0.984 . S
N1449 C1442 1.356 . S
N1449 H1452 0.984 . S
N1449 H1453 0.985 . S
H1450 N1445 0.984 . S
H1451 N1445 0.985 . S
H1452 N1449 0.984 . S
H1453 N1449 0.985 . S
H1454 N1448 0.984 . S
H1455 N1448 0.984 . S
H1456 N1444 0.984 . S
H1457 N1444 0.985 . S
C1458 C1459 1.363 . S
C1458 C1464 1.379 . S
C1458 N1466 1.356 . S
C1459 C1458 1.363 . S
C1459 C1465 1.363 . S
C1460 C1461 1.363 . S
C1460 C1465 1.379 . S
C1460 N1467 1.356 . S
C1461 C1460 1.363 . S
C1461 C1464 1.363 . S
N1462 C1464 1.356 . S
N1462 H1474 0.984 . S
N1462 H1475 0.985 . S
N1463 C1465 1.356 . S
N1463 H1468 0.984 . S
N1463 H1469 0.985 . S
C1464 C1458 1.379 . S
C1464 C1461 1.363 . S
C1464 N1462 1.356 . S
C1465 C1459 1.363 . S
C1465 C1460 1.379 . S
C1465 N1463 1.356 . S
N1466 C1458 1.356 . S
N1466 H1472 0.984 . S
N1466 H1473 0.984 . S
N1467 C1460 1.356 . S
N1467 H1470 0.984 . S
N1467 H1471 0.985 . S
H1468 N1463 0.984 . S
H1469 N1463 0.985 . S
H1470 N1467 0.984 . S
H1471 N1467 0.985 . S
H1472 N1466 0.984 . S
H1473 N1466 0.984 . S
H1474 N1462 0.984 . S
H1475 N1462 0.985 . S
C1476 C1477 1.400 . S
C1476 C1482 1.373 1_565 S
C1476 N1484 1.334 1_565 S
C1477 C1476 1.400 . S
C1477 C1483 1.363 . S
C1478 C1479 1.363 . S
C1478 C1483 1.379 . S
C1478 N1485 1.356 . S
C1479 C1478 1.363 . S
C1479 C1482 1.363 1_565 S
N1480 C1482 1.356 . S
N1480 H1492 0.984 . S
N1480 H1493 0.985 . S
N1481 C1483 1.356 . S
N1481 H1486 0.984 . S
N1481 H1487 0.985 . S
C1482 C1476 1.373 1_545 S
C1482 C1479 1.363 1_545 S
C1482 N1480 1.356 . S
C1483 C1477 1.363 . S
C1483 C1478 1.379 . S
C1483 N1481 1.356 . S
N1484 C1476 1.334 1_545 S
N1484 H1490 0.984 . S
N1484 H1491 0.988 . S
N1485 C1478 1.356 . S
N1485 H1488 0.984 . S
N1485 H1489 0.985 . S
H1486 N1481 0.984 . S
H1487 N1481 0.985 . S
H1488 N1485 0.984 . S
H1489 N1485 0.985 . S
H1490 N1484 0.984 . S
H1491 N1484 0.988 . S
H1492 N1480 0.984 . S
H1493 N1480 0.985 . S
C1494 C1495 1.363 . S
C1494 C1500 1.379 . S
C1494 N1502 1.356 . S
C1495 C1494 1.363 . S
C1495 C1501 1.363 . S
C1496 C1497 1.363 . S
C1496 C1501 1.379 . S
C1496 N1503 1.356 . S
C1497 C1496 1.363 . S
C1497 C1500 1.363 . S
N1498 C1500 1.356 . S
N1498 H1510 0.984 . S
N1498 H1511 0.985 . S
N1499 C1501 1.356 . S
N1499 H1504 0.984 . S
N1499 H1505 0.985 . S
C1500 C1494 1.379 . S
C1500 C1497 1.363 . S
C1500 N1498 1.356 . S
C1501 C1495 1.363 . S
C1501 C1496 1.379 . S
C1501 N1499 1.356 . S
N1502 C1494 1.356 . S
N1502 H1508 0.984 . S
N1502 H1509 0.984 . S
N1503 C1496 1.356 . S
N1503 H1506 0.984 . S
N1503 H1507 0.985 . S
H1504 N1499 0.984 . S
H1505 N1499 0.985 . S
H1506 N1503 0.984 . S
H1507 N1503 0.985 . S
H1508 N1502 0.984 . S
H1509 N1502 0.984 . S
H1510 N1498 0.984 . S
H1511 N1498 0.985 . S
C1512 C1513 1.363 . S
C1512 C1518 1.379 . S
C1512 N1520 1.356 . S
C1513 C1512 1.363 . S
C1513 C1519 1.363 . S
C1514 C1515 1.363 . S
C1514 C1519 1.379 . S
C1514 N1521 1.356 . S
C1515 C1514 1.363 . S
C1515 C1518 1.363 . S
N1516 C1518 1.356 . S
N1516 H1528 0.984 . S
N1516 H1529 0.985 . S
N1517 C1519 1.356 . S
N1517 H1522 0.984 . S
N1517 H1523 0.985 . S
C1518 C1512 1.379 . S
C1518 C1515 1.363 . S
C1518 N1516 1.356 . S
C1519 C1513 1.363 . S
C1519 C1514 1.379 . S
C1519 N1517 1.356 . S
N1520 C1512 1.356 . S
N1520 H1526 0.984 . S
N1520 H1527 0.984 . S
N1521 C1514 1.356 . S
N1521 H1524 0.984 . S
N1521 H1525 0.985 . S
H1522 N1517 0.984 . S
H1523 N1517 0.985 . S
H1524 N1521 0.984 . S
H1525 N1521 0.985 . S
H1526 N1520 0.984 . S
H1527 N1520 0.984 . S
H1528 N1516 0.984 . S
H1529 N1516 0.985 . S
C1530 C1531 1.363 1_455 S
C1530 C1536 1.379 . S
C1530 N1538 1.356 . S
C1531 C1530 1.363 1_655 S
C1531 C1537 1.363 . S
C1532 C1533 1.363 . S
C1532 C1537 1.379 . S
C1532 N1539 1.356 . S
C1533 C1532 1.363 . S
C1533 C1536 1.363 1_655 S
N1534 C1536 1.356 . S
N1534 H1546 0.984 . S
N1534 H1547 0.985 . S
N1535 C1537 1.356 . S
N1535 H1540 0.984 . S
N1535 H1541 0.985 . S
C1536 C1530 1.379 . S
C1536 C1533 1.363 1_455 S
C1536 N1534 1.356 . S
C1537 C1531 1.363 . S
C1537 C1532 1.379 . S
C1537 N1535 1.356 . S
N1538 C1530 1.356 . S
N1538 H1544 0.984 . S
N1538 H1545 0.984 . S
N1539 C1532 1.356 . S
N1539 H1542 0.984 . S
N1539 H1543 0.985 . S
H1540 N1535 0.984 . S
H1541 N1535 0.985 . S
H1542 N1539 0.984 . S
H1543 N1539 0.985 . S
H1544 N1538 0.984 . S
H1545 N1538 0.984 . S
H1546 N1534 0.984 . S
H1547 N1534 0.985 . S
C1548 C1549 1.363 . S
C1548 C1554 1.379 . S
C1548 N1556 1.356 . S
C1549 C1548 1.363 . S
C1549 C1555 1.363 . S
C1550 C1551 1.363 . S
C1550 C1555 1.379 . S
C1550 N1557 1.356 . S
C1551 C1550 1.363 . S
C1551 C1554 1.363 . S
N1552 C1554 1.356 . S
N1552 H1564 0.984 . S
N1552 H1565 0.985 . S
N1553 C1555 1.356 . S
N1553 H1558 0.984 . S
N1553 H1559 0.985 . S
C1554 C1548 1.379 . S
C1554 C1551 1.363 . S
C1554 N1552 1.356 . S
C1555 C1549 1.363 . S
C1555 C1550 1.379 . S
C1555 N1553 1.356 . S
N1556 C1548 1.356 . S
N1556 H1562 0.984 . S
N1556 H1563 0.984 . S
N1557 C1550 1.356 . S
N1557 H1560 0.984 . S
N1557 H1561 0.985 . S
H1558 N1553 0.984 . S
H1559 N1553 0.985 . S
H1560 N1557 0.984 . S
H1561 N1557 0.985 . S
H1562 N1556 0.984 . S
H1563 N1556 0.984 . S
H1564 N1552 0.984 . S
H1565 N1552 0.985 . S
C1566 C1567 1.363 . S
C1566 C1572 1.379 1_545 S
C1566 N1574 1.356 1_545 S
C1567 C1566 1.363 . S
C1567 C1573 1.363 . S
C1568 C1569 1.363 . S
C1568 C1573 1.379 . S
C1568 N1575 1.356 . S
C1569 C1568 1.363 . S
C1569 C1572 1.363 1_545 S
N1570 C1572 1.356 . S
N1570 H1582 0.984 . S
N1570 H1583 0.985 . S
N1571 C1573 1.356 . S
N1571 H1576 0.984 . S
N1571 H1577 0.985 . S
C1572 C1566 1.379 1_565 S
C1572 C1569 1.363 1_565 S
C1572 N1570 1.356 . S
C1573 C1567 1.363 . S
C1573 C1568 1.379 . S
C1573 N1571 1.356 . S
N1574 C1566 1.356 1_565 S
N1574 H1580 0.984 . S
N1574 H1581 0.984 1_565 S
N1575 C1568 1.356 . S
N1575 H1578 0.984 . S
N1575 H1579 0.985 . S
H1576 N1571 0.984 . S
H1577 N1571 0.985 . S
H1578 N1575 0.984 . S
H1579 N1575 0.985 . S
H1580 N1574 0.984 . S
H1581 N1574 0.984 1_545 S
H1582 N1570 0.984 . S
H1583 N1570 0.985 . S
C1584 C1585 1.363 . S
C1584 C1590 1.379 . S
C1584 N1592 1.356 . S
C1585 C1584 1.363 . S
C1585 C1591 1.363 . S
C1586 C1587 1.363 . S
C1586 C1591 1.379 . S
C1586 N1593 1.356 . S
C1587 C1586 1.363 . S
C1587 C1590 1.363 . S
N1588 C1590 1.356 . S
N1588 H1600 0.984 . S
N1588 H1601 0.985 . S
N1589 C1591 1.356 . S
N1589 H1594 0.984 . S
N1589 H1595 0.985 . S
C1590 C1584 1.379 . S
C1590 C1587 1.363 . S
C1590 N1588 1.356 . S
C1591 C1585 1.363 . S
C1591 C1586 1.379 . S
C1591 N1589 1.356 . S
N1592 C1584 1.356 . S
N1592 H1598 0.984 . S
N1592 H1599 0.984 . S
N1593 C1586 1.356 . S
N1593 H1596 0.984 . S
N1593 H1597 0.985 . S
H1594 N1589 0.984 . S
H1595 N1589 0.985 . S
H1596 N1593 0.984 . S
H1597 N1593 0.985 . S
H1598 N1592 0.984 . S
H1599 N1592 0.984 . S
H1600 N1588 0.984 . S
H1601 N1588 0.985 . S
C1602 C1603 1.363 . S
C1602 C1608 1.379 . S
C1602 N1610 1.356 . S
C1603 C1602 1.363 . S
C1603 C1609 1.363 . S
C1604 C1605 1.363 . S
C1604 C1609 1.379 . S
C1604 N1611 1.356 . S
C1605 C1604 1.363 . S
C1605 C1608 1.363 . S
N1606 C1608 1.356 . S
N1606 H1618 0.984 . S
N1606 H1619 0.985 . S
N1607 C1609 1.356 . S
N1607 H1612 0.984 . S
N1607 H1613 0.985 . S
C1608 C1602 1.379 . S
C1608 C1605 1.363 . S
C1608 N1606 1.356 . S
C1609 C1603 1.363 . S
C1609 C1604 1.379 . S
C1609 N1607 1.356 . S
N1610 C1602 1.356 . S
N1610 H1616 0.984 . S
N1610 H1617 0.984 . S
N1611 C1604 1.356 . S
N1611 H1614 0.984 . S
N1611 H1615 0.985 . S
H1612 N1607 0.984 . S
H1613 N1607 0.985 . S
H1614 N1611 0.984 . S
H1615 N1611 0.985 . S
H1616 N1610 0.984 . S
H1617 N1610 0.984 . S
H1618 N1606 0.984 . S
H1619 N1606 0.985 . S
C1620 C1621 1.363 . S
C1620 C1626 1.379 . S
C1620 N1628 1.356 . S
C1621 C1620 1.363 . S
C1621 C1627 1.363 . S
C1622 C1623 1.363 . S
C1622 C1627 1.379 . S
C1622 N1629 1.356 . S
C1623 C1622 1.363 . S
C1623 C1626 1.363 . S
N1624 C1626 1.356 . S
N1624 H1636 0.984 . S
N1624 H1637 0.985 . S
N1625 C1627 1.356 . S
N1625 H1630 0.984 . S
N1625 H1631 0.985 . S
C1626 C1620 1.379 . S
C1626 C1623 1.363 . S
C1626 N1624 1.356 . S
C1627 C1621 1.363 . S
C1627 C1622 1.379 . S
C1627 N1625 1.356 . S
N1628 C1620 1.356 . S
N1628 H1634 0.984 . S
N1628 H1635 0.984 . S
N1629 C1622 1.356 . S
N1629 H1632 0.984 . S
N1629 H1633 0.985 . S
H1630 N1625 0.984 . S
H1631 N1625 0.985 . S
H1632 N1629 0.984 . S
H1633 N1629 0.985 . S
H1634 N1628 0.984 . S
H1635 N1628 0.984 . S
H1636 N1624 0.984 . S
H1637 N1624 0.985 . S
C1638 C1639 1.363 . S
C1638 C1644 1.379 . S
C1638 N1646 1.356 . S
C1639 C1638 1.363 . S
C1639 C1645 1.363 . S
C1640 C1641 1.363 . S
C1640 C1645 1.379 . S
C1640 N1647 1.356 . S
C1641 C1640 1.363 . S
C1641 C1644 1.363 . S
N1642 C1644 1.356 . S
N1642 H1654 0.984 . S
N1642 H1655 0.985 . S
N1643 C1645 1.356 . S
N1643 H1648 0.984 . S
N1643 H1649 0.985 . S
C1644 C1638 1.379 . S
C1644 C1641 1.363 . S
C1644 N1642 1.356 . S
C1645 C1639 1.363 . S
C1645 C1640 1.379 . S
C1645 N1643 1.356 . S
N1646 C1638 1.356 . S
N1646 H1652 0.984 . S
N1646 H1653 0.984 . S
N1647 C1640 1.356 . S
N1647 H1650 0.984 . S
N1647 H1651 0.985 . S
H1648 N1643 0.984 . S
H1649 N1643 0.985 . S
H1650 N1647 0.984 . S
H1651 N1647 0.985 . S
H1652 N1646 0.984 . S
H1653 N1646 0.984 . S
H1654 N1642 0.984 . S
H1655 N1642 0.985 . S
C1656 C1657 1.363 . S
C1656 C1662 1.379 . S
C1656 N1664 1.356 . S
C1657 C1656 1.363 . S
C1657 C1663 1.363 . S
C1658 C1659 1.363 . S
C1658 C1663 1.379 . S
C1658 N1665 1.356 . S
C1659 C1658 1.363 . S
C1659 C1662 1.363 . S
N1660 C1662 1.356 . S
N1660 H1672 0.984 . S
N1660 H1673 0.985 . S
N1661 C1663 1.356 . S
N1661 H1666 0.984 . S
N1661 H1667 0.985 . S
C1662 C1656 1.379 . S
C1662 C1659 1.363 . S
C1662 N1660 1.356 . S
C1663 C1657 1.363 . S
C1663 C1658 1.379 . S
C1663 N1661 1.356 . S
N1664 C1656 1.356 . S
N1664 H1670 0.984 . S
N1664 H1671 0.984 . S
N1665 C1658 1.356 . S
N1665 H1668 0.984 . S
N1665 H1669 0.985 . S
H1666 N1661 0.984 . S
H1667 N1661 0.985 . S
H1668 N1665 0.984 . S
H1669 N1665 0.985 . S
H1670 N1664 0.984 . S
H1671 N1664 0.984 . S
H1672 N1660 0.984 . S
H1673 N1660 0.985 . S
C1674 C1675 1.363 . S
C1674 C1680 1.379 . S
C1674 N1682 1.356 . S
C1675 C1674 1.363 . S
C1675 C1681 1.363 . S
C1676 C1677 1.363 . S
C1676 C1681 1.379 . S
C1676 N1683 1.356 . S
C1677 C1676 1.363 . S
C1677 C1680 1.363 . S
N1678 C1680 1.356 . S
N1678 H1690 0.984 . S
N1678 H1691 0.985 . S
N1679 C1681 1.356 . S
N1679 H1684 0.984 . S
N1679 H1685 0.985 . S
C1680 C1674 1.379 . S
C1680 C1677 1.363 . S
C1680 N1678 1.356 . S
C1681 C1675 1.363 . S
C1681 C1676 1.379 . S
C1681 N1679 1.356 . S
N1682 C1674 1.356 . S
N1682 H1688 0.984 . S
N1682 H1689 0.984 . S
N1683 C1676 1.356 . S
N1683 H1686 0.984 . S
N1683 H1687 0.985 . S
H1684 N1679 0.984 . S
H1685 N1679 0.985 . S
H1686 N1683 0.984 . S
H1687 N1683 0.985 . S
H1688 N1682 0.984 . S
H1689 N1682 0.984 . S
H1690 N1678 0.984 . S
H1691 N1678 0.985 . S
C1692 C1693 1.363 . S
C1692 C1698 1.379 . S
C1692 N1700 1.356 . S
C1693 C1692 1.363 . S
C1693 C1699 1.363 . S
C1694 C1695 1.363 . S
C1694 C1699 1.379 . S
C1694 N1701 1.356 . S
C1695 C1694 1.363 . S
C1695 C1698 1.363 . S
N1696 C1698 1.356 . S
N1696 H1708 0.984 . S
N1696 H1709 0.985 . S
N1697 C1699 1.356 . S
N1697 H1702 0.984 . S
N1697 H1703 0.985 . S
C1698 C1692 1.379 . S
C1698 C1695 1.363 . S
C1698 N1696 1.356 . S
C1699 C1693 1.363 . S
C1699 C1694 1.379 . S
C1699 N1697 1.356 . S
N1700 C1692 1.356 . S
N1700 H1706 0.984 . S
N1700 H1707 0.984 . S
N1701 C1694 1.356 . S
N1701 H1704 0.984 . S
N1701 H1705 0.985 . S
H1702 N1697 0.984 . S
H1703 N1697 0.985 . S
H1704 N1701 0.984 . S
H1705 N1701 0.985 . S
H1706 N1700 0.984 . S
H1707 N1700 0.984 . S
H1708 N1696 0.984 . S
H1709 N1696 0.985 . S
C1710 C1711 1.363 . S
C1710 C1716 1.379 . S
C1710 N1718 1.356 . S
C1711 C1710 1.363 . S
C1711 C1717 1.363 . S
C1712 C1713 1.363 . S
C1712 C1717 1.379 . S
C1712 N1719 1.356 . S
C1713 C1712 1.363 . S
C1713 C1716 1.363 . S
N1714 C1716 1.356 . S
N1714 H1726 0.984 . S
N1714 H1727 0.985 . S
N1715 C1717 1.356 . S
N1715 H1720 0.984 . S
N1715 H1721 0.985 . S
C1716 C1710 1.379 . S
C1716 C1713 1.363 . S
C1716 N1714 1.356 . S
C1717 C1711 1.363 . S
C1717 C1712 1.379 . S
C1717 N1715 1.356 . S
N1718 C1710 1.356 . S
N1718 H1724 0.984 . S
N1718 H1725 0.984 . S
N1719 C1712 1.356 . S
N1719 H1722 0.984 . S
N1719 H1723 0.985 . S
H1720 N1715 0.984 . S
H1721 N1715 0.985 . S
H1722 N1719 0.984 . S
H1723 N1719 0.985 . S
H1724 N1718 0.984 . S
H1725 N1718 0.984 . S
H1726 N1714 0.984 . S
H1727 N1714 0.985 . S
C1728 C1729 1.363 . S
C1728 C1734 1.379 . S
C1728 N1736 1.356 . S
C1729 C1728 1.363 . S
C1729 C1735 1.363 . S
C1730 C1731 1.363 . S
C1730 C1735 1.379 . S
C1730 N1737 1.356 . S
C1731 C1730 1.363 . S
C1731 C1734 1.363 . S
N1732 C1734 1.356 . S
N1732 H1744 0.984 . S
N1732 H1745 0.985 . S
N1733 C1735 1.356 . S
N1733 H1738 0.984 . S
N1733 H1739 0.985 . S
C1734 C1728 1.379 . S
C1734 C1731 1.363 . S
C1734 N1732 1.356 . S
C1735 C1729 1.363 . S
C1735 C1730 1.379 . S
C1735 N1733 1.356 . S
N1736 C1728 1.356 . S
N1736 H1742 0.984 . S
N1736 H1743 0.984 . S
N1737 C1730 1.356 . S
N1737 H1740 0.984 . S
N1737 H1741 0.985 . S
H1738 N1733 0.984 . S
H1739 N1733 0.985 . S
H1740 N1737 0.984 . S
H1741 N1737 0.985 . S
H1742 N1736 0.984 . S
H1743 N1736 0.984 . S
H1744 N1732 0.984 . S
H1745 N1732 0.985 . S
C1746 C1747 1.363 . S
C1746 C1752 1.379 . S
C1746 N1754 1.356 . S
C1747 C1746 1.363 . S
C1747 C1753 1.363 . S
C1748 C1749 1.363 . S
C1748 C1753 1.379 . S
C1748 N1755 1.356 . S
C1749 C1748 1.363 . S
C1749 C1752 1.363 . S
N1750 C1752 1.356 . S
N1750 H1762 0.984 . S
N1750 H1763 0.985 . S
N1751 C1753 1.356 . S
N1751 H1756 0.984 . S
N1751 H1757 0.985 . S
C1752 C1746 1.379 . S
C1752 C1749 1.363 . S
C1752 N1750 1.356 . S
C1753 C1747 1.363 . S
C1753 C1748 1.379 . S
C1753 N1751 1.356 . S
N1754 C1746 1.356 . S
N1754 H1760 0.984 . S
N1754 H1761 0.984 . S
N1755 C1748 1.356 . S
N1755 H1758 0.984 . S
N1755 H1759 0.985 . S
H1756 N1751 0.984 . S
H1757 N1751 0.985 . S
H1758 N1755 0.984 . S
H1759 N1755 0.985 . S
H1760 N1754 0.984 . S
H1761 N1754 0.984 . S
H1762 N1750 0.984 . S
H1763 N1750 0.985 . S
C1764 C1765 1.363 . S
C1764 C1770 1.379 . S
C1764 N1772 1.356 . S
C1765 C1764 1.363 . S
C1765 C1771 1.363 . S
C1766 C1767 1.363 . S
C1766 C1771 1.379 . S
C1766 N1773 1.356 . S
C1767 C1766 1.363 . S
C1767 C1770 1.363 . S
N1768 C1770 1.356 . S
N1768 H1780 0.984 . S
N1768 H1781 0.985 . S
N1769 C1771 1.356 . S
N1769 H1774 0.984 . S
N1769 H1775 0.985 . S
C1770 C1764 1.379 . S
C1770 C1767 1.363 . S
C1770 N1768 1.356 . S
C1771 C1765 1.363 . S
C1771 C1766 1.379 . S
C1771 N1769 1.356 . S
N1772 C1764 1.356 . S
N1772 H1778 0.984 . S
N1772 H1779 0.984 . S
N1773 C1766 1.356 . S
N1773 H1776 0.984 . S
N1773 H1777 0.985 . S
H1774 N1769 0.984 . S
H1775 N1769 0.985 . S
H1776 N1773 0.984 . S
H1777 N1773 0.985 . S
H1778 N1772 0.984 . S
H1779 N1772 0.984 . S
H1780 N1768 0.984 . S
H1781 N1768 0.985 . S
C1782 C1783 1.363 . S
C1782 C1788 1.379 . S
C1782 N1790 1.356 . S
C1783 C1782 1.363 . S
C1783 C1789 1.363 . S
C1784 C1785 1.363 . S
C1784 C1789 1.379 . S
C1784 N1791 1.356 . S
C1785 C1784 1.363 . S
C1785 C1788 1.363 . S
N1786 C1788 1.356 . S
N1786 H1798 0.984 . S
N1786 H1799 0.985 . S
N1787 C1789 1.356 . S
N1787 H1792 0.984 . S
N1787 H1793 0.985 . S
C1788 C1782 1.379 . S
C1788 C1785 1.363 . S
C1788 N1786 1.356 . S
C1789 C1783 1.363 . S
C1789 C1784 1.379 . S
C1789 N1787 1.356 . S
N1790 C1782 1.356 . S
N1790 H1796 0.984 . S
N1790 H1797 0.984 . S
N1791 C1784 1.356 . S
N1791 H1794 0.984 . S
N1791 H1795 0.985 . S
H1792 N1787 0.984 . S
H1793 N1787 0.985 . S
H1794 N1791 0.984 . S
H1795 N1791 0.985 . S
H1796 N1790 0.984 . S
H1797 N1790 0.984 . S
H1798 N1786 0.984 . S
H1799 N1786 0.985 . S
C829 C469 1.605 . S
C831 C654 1.573 . S
C847 C505 1.527 . S
C849 C674 1.484 . S
C865 C433 1.595 . S
C867 C697 1.571 . S
C883 C397 1.512 . S
C885 C677 1.493 . S
C903 C694 1.469 . S
C901 C325 1.486 . S
C919 C361 1.539 . S
C921 C657 1.520 . S
C939 C664 1.573 . S
C937 C421 1.614 . S
C957 C684 1.484 . S
C955 C349 1.527 . S
C973 C385 1.589 . S
C975 C689 1.572 . S
C991 C493 1.510 . S
C993 C669 1.493 . S
C1009 C529 1.497 . S
C1011 C704 1.469 . S
C1029 C649 1.521 . S
C1027 C457 1.545 . S
C1047 C714 1.573 . S
C1045 C37 1.605 1_455 S
C1063 C73 1.527 . S
C1065 C734 1.484 . S
C1081 C1 1.595 1_565 S
C1083 C757 1.571 . S
C1099 C613 1.512 . S
C1101 C737 1.493 . S
C1117 C541 1.487 . S
C1119 C754 1.470 . S
C1135 C577 1.539 . S
C1137 C717 1.520 . S
C1153 C637 1.614 . S
C1155 C724 1.573 . S
C1171 C565 1.527 . S
C1173 C744 1.484 . S
C1191 C749 1.572 . S
C1189 C601 1.589 . S
C1207 C61 1.511 1_565 S
C1209 C729 1.493 . S
C1227 C764 1.469 . S
C1225 C97 1.497 1_455 S
C1243 C25 1.545 . S
C1245 C709 1.521 . S
C1263 C774 1.573 . S
C1261 C253 1.605 . S
C1279 C289 1.527 . S
C1281 C794 1.484 . S
C1299 C817 1.571 . S
C1297 C217 1.595 . S
C1317 C797 1.493 . S
C1315 C181 1.512 1_545 S
C1335 C814 1.470 . S
C1333 C109 1.487 1_655 S
C1351 C145 1.539 . S
C1353 C777 1.520 . S
C1369 C205 1.614 . S
C1371 C784 1.573 . S
C1387 C133 1.527 . S
C1389 C804 1.484 . S
C1407 C809 1.572 . S
C1405 C169 1.589 1_545 S
C1423 C277 1.511 . S
C1425 C789 1.493 . S
C1441 C313 1.497 . S
C1443 C824 1.469 . S
C1459 C241 1.545 . S
C1461 C769 1.521 . S
C1477 C571 1.341 . S
C1479 C667 1.303 1_565 S
C1497 C687 1.591 . S
C1495 C607 1.675 . S
C1513 C643 1.528 . S
C1515 C696 1.472 . S
C1531 C247 1.670 . S
C1533 C676 1.599 . S
C1549 C283 1.534 . S
C1551 C707 1.473 . S
C1569 C656 1.302 1_545 S
C1567 C319 1.337 . S
C1585 C139 1.341 . S
C1587 C727 1.303 . S
C1603 C175 1.675 . S
C1605 C747 1.591 . S
C1621 C211 1.528 . S
C1623 C756 1.472 . S
C1639 C463 1.670 . S
C1641 C736 1.591 . S
C1659 C767 1.473 . S
C1657 C499 1.534 . S
C1675 C535 1.337 . S
C1677 C716 1.302 . S
C1693 C355 1.341 . S
C1695 C787 1.303 . S
C1711 C391 1.675 . S
C1713 C807 1.591 . S
C1731 C816 1.472 . S
C1729 C427 1.528 . S
C1747 C31 1.670 . S
C1749 C796 1.591 . S
C1765 C67 1.534 . S
C1767 C827 1.473 . S
C1783 C103 1.337 . S
C1785 C776 1.302 . S
