# Generated by pormake.
# Topology nom, (4,4)-cn, num edge types: 1
# Building blocks:
#     Node 0, Type 0, BuildingBlock: NAHDIM_clean_linker_0, # of connection points: 4
#     Node 1, Type 0, BuildingBlock: NAHDIM_clean_linker_0, # of connection points: 4
#     Node 2, Type 0, BuildingBlock: NAHDIM_clean_linker_0, # of connection points: 4
#     Node 3, Type 0, BuildingBlock: NAHDIM_clean_linker_0, # of connection points: 4
#     Node 4, Type 0, BuildingBlock: NAHDIM_clean_linker_0, # of connection points: 4
#     Node 5, Type 0, BuildingBlock: NAHDIM_clean_linker_0, # of connection points: 4
#     Node 6, Type 1, BuildingBlock: UXUYUI_clean_sbu_0, # of connection points: 4
#     Node 7, Type 1, BuildingBlock: UXUYUI_clean_sbu_0, # of connection points: 4
#     Node 8, Type 1, BuildingBlock: UXUYUI_clean_sbu_0, # of connection points: 4
#     Node 9, Type 1, BuildingBlock: UXUYUI_clean_sbu_0, # of connection points: 4
#     Node 10, Type 1, BuildingBlock: UXUYUI_clean_sbu_0, # of connection points: 4
#     Node 11, Type 1, BuildingBlock: UXUYUI_clean_sbu_0, # of connection points: 4
#     Edge 12, Type (0, 1), BuildingBlock: TEMPAE_clean_linker_10, # of connection points: 2
#     Edge 13, Type (0, 1), BuildingBlock: TEMPAE_clean_linker_10, # of connection points: 2
#     Edge 14, Type (0, 1), BuildingBlock: TEMPAE_clean_linker_10, # of connection points: 2
#     Edge 15, Type (0, 1), BuildingBlock: TEMPAE_clean_linker_10, # of connection points: 2
#     Edge 16, Type (0, 1), BuildingBlock: TEMPAE_clean_linker_10, # of connection points: 2
#     Edge 17, Type (0, 1), BuildingBlock: TEMPAE_clean_linker_10, # of connection points: 2
#     Edge 18, Type (0, 1), BuildingBlock: TEMPAE_clean_linker_10, # of connection points: 2
#     Edge 19, Type (0, 1), BuildingBlock: TEMPAE_clean_linker_10, # of connection points: 2
#     Edge 20, Type (0, 1), BuildingBlock: TEMPAE_clean_linker_10, # of connection points: 2
#     Edge 21, Type (0, 1), BuildingBlock: TEMPAE_clean_linker_10, # of connection points: 2
#     Edge 22, Type (0, 1), BuildingBlock: TEMPAE_clean_linker_10, # of connection points: 2
#     Edge 23, Type (0, 1), BuildingBlock: TEMPAE_clean_linker_10, # of connection points: 2
#     Edge 24, Type (0, 1), BuildingBlock: TEMPAE_clean_linker_10, # of connection points: 2
#     Edge 25, Type (0, 1), BuildingBlock: TEMPAE_clean_linker_10, # of connection points: 2
#     Edge 26, Type (0, 1), BuildingBlock: TEMPAE_clean_linker_10, # of connection points: 2
#     Edge 27, Type (0, 1), BuildingBlock: TEMPAE_clean_linker_10, # of connection points: 2
#     Edge 28, Type (0, 1), BuildingBlock: TEMPAE_clean_linker_10, # of connection points: 2
#     Edge 29, Type (0, 1), BuildingBlock: TEMPAE_clean_linker_10, # of connection points: 2
#     Edge 30, Type (0, 1), BuildingBlock: TEMPAE_clean_linker_10, # of connection points: 2
#     Edge 31, Type (0, 1), BuildingBlock: TEMPAE_clean_linker_10, # of connection points: 2
#     Edge 32, Type (0, 1), BuildingBlock: TEMPAE_clean_linker_10, # of connection points: 2
#     Edge 33, Type (0, 1), BuildingBlock: TEMPAE_clean_linker_10, # of connection points: 2
#     Edge 34, Type (0, 1), BuildingBlock: TEMPAE_clean_linker_10, # of connection points: 2
#     Edge 35, Type (0, 1), BuildingBlock: TEMPAE_clean_linker_10, # of connection points: 2
# Relax obj value: 0.085
# Max RMSD: 0.155
# Mean RMSD: 0.138
data_MOF--net-nom--node1-UXUYUI_clean_sbu_0--node2-NAHDIM_clean_linker_0--edge1-TEMPAE_clean_linker_10
_symmetry_space_group_name_H-M    P1
_symmetry_Int_Tables_number       1
_symmetry_cell_setting            triclinic
loop_
_symmetry_equiv_pos_as_xyz
'x, y, z'
_cell_length_a     67.623051
_cell_length_b     67.621952
_cell_length_c     82.699036
_cell_angle_alpha  90.101459
_cell_angle_beta   90.079101
_cell_angle_gamma 120.00081
loop_
_atom_site_label
_atom_site_type_symbol
_atom_site_fract_x
_atom_site_fract_y
_atom_site_fract_z
_atom_type_partial_charge
C0 C 0.15545 0.57332 0.26434 0.0
C1 C 0.16101 0.58782 0.27979 0.0
C2 C 0.12252 0.57857 0.28864 0.0
C3 C 0.11521 0.55602 0.29352 0.0
C4 C 0.09256 0.54145 0.29835 0.0
C5 C 0.07697 0.54962 0.2985 0.0
C6 C 0.08443 0.57249 0.29414 0.0
C7 C 0.10714 0.58666 0.28926 0.0
C8 C 0.08516 0.51715 0.30303 0.0
C9 C 0.06831 0.58181 0.29439 0.0
C10 C 0.9432 0.41472 0.24172 0.0
C11 C 0.95286 0.43733 0.23242 0.0
C12 C 0.96978 0.46735 0.25334 0.0
C13 C 0.96843 0.48541 0.26039 0.0
C14 C 0.98379 0.49898 0.2725 0.0
C15 C 0.00034 0.49366 0.27817 0.0
C16 C 0.00223 0.47576 0.2708 0.0
C17 C 0.9872 0.46306 0.25825 0.0
C18 C 0.98193 0.51865 0.27944 0.0
C19 C 0.01981 0.46971 0.27639 0.0
C20 C 0.90958 0.44092 0.36351 0.0
C21 C 0.91589 0.46277 0.35771 0.0
C22 C 0.93901 0.47941 0.35606 0.0
C23 C 0.95607 0.47382 0.35987 0.0
C24 C 0.94965 0.45201 0.36627 0.0
C25 C 0.92643 0.436 0.36829 0.0
C26 C 0.94513 0.50279 0.34992 0.0
C27 C 0.9672 0.44536 0.3707 0.0
C28 C 0.12214 0.57382 0.40242 0.0
C29 C 0.10592 0.55561 0.41435 0.0
C30 C 0.06797 0.54532 0.40466 0.0
C31 C 0.0571 0.55699 0.39915 0.0
C32 C 0.04016 0.54753 0.38712 0.0
C33 C 0.03398 0.52583 0.38062 0.0
C34 C 0.0439 0.51334 0.38691 0.0
C35 C 0.06062 0.52313 0.39899 0.0
C36 C 0.02955 0.56105 0.38089 0.0
C37 C 0.0373 0.4899 0.38053 0.0
C38 C 0.05259 0.53385 0.30238 0.0
C39 C 0.03782 0.52213 0.28956 0.0
C40 C 0.01491 0.50604 0.29229 0.0
C41 C 0.00629 0.50164 0.30825 0.0
C42 C 0.9835 0.48506 0.3115 0.0
C43 C 0.97501 0.48128 0.32717 0.0
C44 C 0.98903 0.49374 0.34028 0.0
C45 C 0.98045 0.49021 0.35626 0.0
C46 C 0.99528 0.5017 0.36912 0.0
C47 C 0.01851 0.51676 0.36644 0.0
C48 C 0.02712 0.52143 0.35048 0.0
C49 C 0.05025 0.53711 0.34733 0.0
C50 C 0.0586 0.54138 0.33159 0.0
C51 C 0.04423 0.5299 0.31841 0.0
C52 C 0.02093 0.51387 0.32132 0.0
C53 C 0.01231 0.5098 0.33736 0.0
C54 C 0.85633 0.3951 0.35013 0.0
C55 C 0.8701 0.42062 0.35402 0.0
O56 O 0.14394 0.59295 0.28302 0.0
O57 O 0.0856 0.55594 0.41526 0.0
O58 O 0.88742 0.42422 0.36469 0.0
O59 O 0.95366 0.45437 0.24218 0.0
H60 H 0.16263 0.57822 0.29013 0.0
H61 H 0.16952 0.56988 0.26155 0.0
H62 H 0.15305 0.58226 0.25392 0.0
H63 H 0.13957 0.55665 0.26585 0.0
H64 H 0.12689 0.54949 0.29342 0.0
H65 H 0.11293 0.60411 0.28563 0.0
H66 H 0.07126 0.50516 0.29485 0.0
H67 H 0.09939 0.51343 0.30244 0.0
H68 H 0.07825 0.51382 0.31552 0.0
H69 H 0.07706 0.60033 0.29155 0.0
H70 H 0.05444 0.57247 0.28542 0.0
H71 H 0.06023 0.57904 0.30648 0.0
H72 H 0.97035 0.44232 0.22817 0.0
H73 H 0.94121 0.40084 0.23347 0.0
H74 H 0.95483 0.41608 0.25166 0.0
H75 H 0.92637 0.40986 0.24715 0.0
H76 H 0.95516 0.48883 0.25637 0.0
H77 H 0.98894 0.44957 0.25264 0.0
H78 H 0.97327 0.51365 0.29134 0.0
H79 H 0.99913 0.53378 0.28135 0.0
H80 H 0.97189 0.52357 0.27144 0.0
H81 H 0.01726 0.45366 0.27078 0.0
H82 H 0.03712 0.48372 0.27315 0.0
H83 H 0.01921 0.46779 0.28974 0.0
H84 H 0.87743 0.42965 0.34239 0.0
H85 H 0.90279 0.46684 0.35452 0.0
H86 H 0.92129 0.41918 0.37303 0.0
H87 H 0.95035 0.50434 0.33706 0.0
H88 H 0.93049 0.50588 0.35072 0.0
H89 H 0.95973 0.5163 0.35687 0.0
H90 H 0.95933 0.42676 0.37304 0.0
H91 H 0.98003 0.45014 0.36092 0.0
H92 H 0.97631 0.4547 0.38182 0.0
H93 H 0.10299 0.53895 0.40969 0.0
H94 H 0.13882 0.57435 0.40213 0.0
H95 H 0.11466 0.56964 0.39006 0.0
H96 H 0.12501 0.59098 0.40577 0.0
H97 H 0.06255 0.57392 0.40387 0.0
H98 H 0.06793 0.51337 0.4039 0.0
H99 H 0.03471 0.56594 0.36812 0.0
H100 H 0.01064 0.55037 0.38111 0.0
H101 H 0.03479 0.5768 0.38808 0.0
H102 H 0.04652 0.48236 0.38678 0.0
H103 H 0.01868 0.4783 0.38209 0.0
H104 H 0.04102 0.49086 0.36739 0.0
H105 H 0.04434 0.52532 0.27729 0.0
H106 H 0.97188 0.47483 0.30196 0.0
H107 H 0.95731 0.46834 0.32887 0.0
H108 H 0.98882 0.49838 0.38141 0.0
H109 H 0.06216 0.54638 0.35699 0.0
H110 H 0.0765 0.55372 0.32988 0.0
H111 H 0.84831 0.38509 0.36126 0.0
H112 H 0.84275 0.39158 0.34111 0.0
H113 H 0.86775 0.38933 0.34495 0.0
C114 C 0.43067 0.85627 0.53924 0.0
C115 C 0.45189 0.87778 0.53511 0.0
C116 C 0.46631 0.91893 0.53421 0.0
C117 C 0.4874 0.92457 0.52716 0.0
C118 C 0.50343 0.94733 0.52349 0.0
C119 C 0.4981 0.9647 0.52666 0.0
C120 C 0.47677 0.95902 0.53353 0.0
C121 C 0.4612 0.93618 0.5373 0.0
C122 C 0.52616 0.95285 0.51635 0.0
C123 C 0.47048 0.97711 0.53698 0.0
C124 C 0.60149 0.04484 0.61317 0.0
C125 C 0.59061 0.05757 0.60531 0.0
C126 C 0.5867 0.05622 0.57603 0.0
C127 C 0.56525 0.05454 0.57451 0.0
C128 C 0.55206 0.04528 0.56047 0.0
C129 C 0.56046 0.03739 0.54783 0.0
C130 C 0.58246 0.03981 0.54916 0.0
C131 C 0.59547 0.04963 0.56317 0.0
C132 C 0.52895 0.04348 0.55932 0.0
C133 C 0.59191 0.03133 0.53605 0.0
C134 C 0.60668 0.13555 0.46615 0.0
C135 C 0.58431 0.12889 0.47096 0.0
C136 C 0.56774 0.1057 0.47217 0.0
C137 C 0.57379 0.08891 0.46864 0.0
C138 C 0.59603 0.09561 0.46307 0.0
C139 C 0.61214 0.11893 0.46171 0.0
C140 C 0.54392 0.09911 0.47757 0.0
C141 C 0.60299 0.07817 0.45906 0.0
C142 C 0.44517 0.93858 0.41275 0.0
C143 C 0.47027 0.9468 0.40904 0.0
C144 C 0.49393 0.98471 0.41994 0.0
C145 C 0.48769 0.0003 0.42558 0.0
C146 C 0.49897 0.01452 0.43885 0.0
C147 C 0.51734 0.01349 0.44624 0.0
C148 C 0.52444 0.99852 0.43995 0.0
C149 C 0.51243 0.98407 0.42697 0.0
C150 C 0.49094 0.03025 0.44518 0.0
C151 C 0.54454 0.99759 0.44703 0.0
C152 C 0.51512 0.9889 0.52329 0.0
C153 C 0.52907 0.00211 0.53603 0.0
C154 C 0.5456 0.02501 0.53381 0.0
C155 C 0.54825 0.0352 0.51846 0.0
C156 C 0.56429 0.05833 0.51587 0.0
C157 C 0.56719 0.068 0.5006 0.0
C158 C 0.55416 0.0549 0.48732 0.0
C159 C 0.55726 0.06445 0.47168 0.0
C160 C 0.54481 0.05068 0.45861 0.0
C161 C 0.52879 0.02758 0.46077 0.0
C162 C 0.52461 0.01801 0.47646 0.0
C163 C 0.50775 0.99517 0.47923 0.0
C164 C 0.50434 0.98568 0.49459 0.0
C165 C 0.51783 0.9986 0.50775 0.0
C166 C 0.53453 0.02182 0.50533 0.0
C167 C 0.53771 0.03161 0.4897 0.0
C168 C 0.64985 0.18878 0.48201 0.0
C169 C 0.6252 0.17486 0.47601 0.0
O170 O 0.45053 0.8972 0.53829 0.0
O171 O 0.48193 0.97039 0.40768 0.0
O172 O 0.62344 0.15778 0.46578 0.0
O173 O 0.59921 0.06396 0.5898 0.0
H174 H 0.46796 0.87892 0.53969 0.0
H175 H 0.42042 0.86114 0.54737 0.0
H176 H 0.4186 0.84025 0.51679 0.0
H177 H 0.43586 0.84847 0.54922 0.0
H178 H 0.49157 0.91138 0.52462 0.0
H179 H 0.44488 0.93166 0.54269 0.0
H180 H 0.54027 0.96597 0.52386 0.0
H181 H 0.52821 0.93757 0.51547 0.0
H182 H 0.52783 0.96008 0.50406 0.0
H183 H 0.45253 0.96969 0.5411 0.0
H184 H 0.48195 0.98883 0.5465 0.0
H185 H 0.47292 0.98744 0.52595 0.0
H186 H 0.57185 0.04545 0.60499 0.0
H187 H 0.59475 0.03937 0.6256 0.0
H188 H 0.59737 0.02937 0.60595 0.0
H189 H 0.62036 0.05587 0.61377 0.0
H190 H 0.55882 0.0604 0.5843 0.0
H191 H 0.6122 0.05131 0.56444 0.0
H192 H 0.51544 0.02532 0.56053 0.0
H193 H 0.52642 0.0535 0.56893 0.0
H194 H 0.52679 0.04954 0.54733 0.0
H195 H 0.60846 0.03279 0.53955 0.0
H196 H 0.57955 0.01318 0.53317 0.0
H197 H 0.59454 0.04137 0.52486 0.0
H198 H 0.61441 0.1673 0.48695 0.0
H199 H 0.57978 0.14177 0.47382 0.0
H200 H 0.62937 0.1243 0.45776 0.0
H201 H 0.54088 0.09148 0.48982 0.0
H202 H 0.5412 0.114 0.47799 0.0
H203 H 0.53111 0.08603 0.46927 0.0
H204 H 0.62115 0.0862 0.45531 0.0
H205 H 0.60032 0.06718 0.46974 0.0
H206 H 0.59208 0.06694 0.44912 0.0
H207 H 0.47733 0.94141 0.41922 0.0
H208 H 0.43548 0.91973 0.41429 0.0
H209 H 0.44385 0.94654 0.42415 0.0
H210 H 0.43729 0.94335 0.40281 0.0
H211 H 0.47348 0.00074 0.41988 0.0
H212 H 0.51747 0.9723 0.42222 0.0
H213 H 0.48752 0.02754 0.45836 0.0
H214 H 0.50457 0.04826 0.44344 0.0
H215 H 0.47522 0.0276 0.43896 0.0
H216 H 0.55018 0.98805 0.43913 0.0
H217 H 0.55915 0.01511 0.44898 0.0
H218 H 0.53972 0.98897 0.45896 0.0
H219 H 0.52717 0.99438 0.54783 0.0
H220 H 0.57484 0.06919 0.52563 0.0
H221 H 0.57996 0.08585 0.49933 0.0
H222 H 0.54779 0.05799 0.44658 0.0
H223 H 0.49699 0.98434 0.46953 0.0
H224 H 0.49117 0.968 0.49599 0.0
H225 H 0.65171 0.20247 0.4904 0.0
H226 H 0.65464 0.1775 0.48861 0.0
H227 H 0.66178 0.19668 0.4717 0.0
C228 C 0.59323 0.46143 0.72649 0.0
C229 C 0.59629 0.45441 0.70941 0.0
C230 C 0.57387 0.46813 0.69468 0.0
C231 C 0.59015 0.49154 0.6951 0.0
C232 C 0.58398 0.50794 0.69124 0.0
C233 C 0.5611 0.50078 0.68697 0.0
C234 C 0.54489 0.4772 0.68599 0.0
C235 C 0.55163 0.46118 0.68966 0.0
C236 C 0.60176 0.53296 0.69211 0.0
C237 C 0.52029 0.46892 0.68161 0.0
C238 C 0.48826 0.56896 0.77521 0.0
C239 C 0.49053 0.55608 0.76143 0.0
C240 C 0.51886 0.55848 0.74211 0.0
C241 C 0.50293 0.54065 0.7322 0.0
C242 C 0.50976 0.53485 0.71781 0.0
C243 C 0.53293 0.54729 0.71309 0.0
C244 C 0.54903 0.5652 0.72301 0.0
C245 C 0.54177 0.57049 0.73746 0.0
C246 C 0.49218 0.51538 0.70765 0.0
C247 C 0.57386 0.57876 0.71829 0.0
C248 C 0.49266 0.60897 0.63697 0.0
C249 C 0.47938 0.58506 0.63757 0.0
C250 C 0.48963 0.57149 0.63654 0.0
C251 C 0.51363 0.58208 0.63489 0.0
C252 C 0.52685 0.60607 0.63323 0.0
C253 C 0.5161 0.61922 0.63415 0.0
C254 C 0.47493 0.54588 0.63785 0.0
C255 C 0.55241 0.61784 0.63123 0.0
C256 C 0.54277 0.46621 0.5777 0.0
C257 C 0.56184 0.48932 0.57157 0.0
C258 C 0.54981 0.51514 0.58116 0.0
C259 C 0.52767 0.50725 0.5868 0.0
C260 C 0.52376 0.51723 0.6004 0.0
C261 C 0.54247 0.53597 0.60814 0.0
C262 C 0.56476 0.54485 0.60178 0.0
C263 C 0.56822 0.53409 0.58844 0.0
C264 C 0.49975 0.50735 0.60675 0.0
C265 C 0.58499 0.5653 0.60933 0.0
C266 C 0.55371 0.5179 0.68484 0.0
C267 C 0.54848 0.52604 0.69878 0.0
C268 C 0.54021 0.54123 0.69785 0.0
C269 C 0.53732 0.54885 0.68261 0.0
C270 C 0.52913 0.56422 0.68126 0.0
C271 C 0.52535 0.57082 0.66619 0.0
C272 C 0.52967 0.56236 0.65187 0.0
C273 C 0.52497 0.56823 0.63651 0.0
C274 C 0.52981 0.55986 0.6225 0.0
C275 C 0.53885 0.54527 0.62341 0.0
C276 C 0.54322 0.5388 0.63869 0.0
C277 C 0.55172 0.52364 0.64009 0.0
C278 C 0.55558 0.51709 0.65517 0.0
C279 C 0.55075 0.52515 0.66945 0.0
C280 C 0.54241 0.54061 0.66835 0.0
C281 C 0.53862 0.54741 0.65296 0.0
C282 C 0.47149 0.6382 0.66044 0.0
C283 C 0.46522 0.61764 0.64947 0.0
O284 O 0.57869 0.45172 0.69934 0.0
O285 O 0.55334 0.50392 0.56898 0.0
O286 O 0.48351 0.6226 0.63941 0.0
O287 O 0.51276 0.56462 0.7561 0.0
H288 H 0.61291 0.4677 0.70436 0.0
H289 H 0.5942 0.47829 0.7263 0.0
H290 H 0.5764 0.44863 0.73152 0.0
H291 H 0.60696 0.46287 0.73466 0.0
H292 H 0.60758 0.49717 0.69861 0.0
H293 H 0.53927 0.44308 0.68922 0.0
H294 H 0.5979 0.54096 0.70246 0.0
H295 H 0.61927 0.53571 0.69372 0.0
H296 H 0.60127 0.54179 0.68094 0.0
H297 H 0.50962 0.45001 0.68205 0.0
H298 H 0.513 0.47639 0.69004 0.0
H299 H 0.51931 0.47468 0.66923 0.0
H300 H 0.48115 0.53715 0.76293 0.0
H301 H 0.48175 0.55645 0.78552 0.0
H302 H 0.50589 0.57966 0.78049 0.0
H303 H 0.4695 0.58313 0.76539 0.0
H304 H 0.48513 0.5311 0.73562 0.0
H305 H 0.55394 0.5842 0.74515 0.0
H306 H 0.49036 0.522 0.6958 0.0
H307 H 0.49787 0.50283 0.70525 0.0
H308 H 0.47517 0.5064 0.71355 0.0
H309 H 0.58404 0.59293 0.72689 0.0
H310 H 0.5812 0.56731 0.71785 0.0
H311 H 0.57542 0.58599 0.706 0.0
H312 H 0.46182 0.60329 0.65775 0.0
H313 H 0.46105 0.57699 0.63906 0.0
H314 H 0.52612 0.63767 0.6334 0.0
H315 H 0.47845 0.54016 0.64953 0.0
H316 H 0.45642 0.54015 0.63724 0.0
H317 H 0.47915 0.53743 0.62802 0.0
H318 H 0.56016 0.63655 0.62949 0.0
H319 H 0.56015 0.61477 0.6421 0.0
H320 H 0.5567 0.61054 0.62067 0.0
H321 H 0.5756 0.49679 0.58091 0.0
H322 H 0.54932 0.45423 0.57955 0.0
H323 H 0.53624 0.46841 0.58948 0.0
H324 H 0.5284 0.45858 0.5689 0.0
H325 H 0.5136 0.49266 0.5809 0.0
H326 H 0.58526 0.5402 0.58376 0.0
H327 H 0.49922 0.50323 0.61979 0.0
H328 H 0.49418 0.52018 0.60555 0.0
H329 H 0.48741 0.49164 0.60013 0.0
H330 H 0.60035 0.57224 0.60151 0.0
H331 H 0.58086 0.579 0.61176 0.0
H332 H 0.58913 0.5603 0.62108 0.0
H333 H 0.5503 0.51999 0.71054 0.0
H334 H 0.52536 0.57117 0.69185 0.0
H335 H 0.51885 0.58255 0.66594 0.0
H336 H 0.52603 0.56436 0.61077 0.0
H337 H 0.55538 0.51655 0.62954 0.0
H338 H 0.56214 0.50541 0.65551 0.0
H339 H 0.45694 0.63469 0.66848 0.0
H340 H 0.48636 0.6416 0.66813 0.0
H341 H 0.47612 0.65375 0.65322 0.0
C342 C 0.14935 0.5829 0.8977 0.0
C343 C 0.1592 0.58517 0.88065 0.0
C344 C 0.12312 0.56312 0.86569 0.0
C345 C 0.11675 0.57998 0.8655 0.0
C346 C 0.09467 0.57462 0.8608 0.0
C347 C 0.07856 0.55192 0.85639 0.0
C348 C 0.0851 0.53505 0.85616 0.0
C349 C 0.10743 0.54099 0.86062 0.0
C350 C 0.08841 0.59314 0.86085 0.0
C351 C 0.06835 0.51062 0.85162 0.0
C352 C 0.94458 0.54724 0.91726 0.0
C353 C 0.95483 0.53445 0.92613 0.0
C354 C 0.97256 0.52376 0.90431 0.0
C355 C 0.97155 0.5053 0.89597 0.0
C356 C 0.98678 0.50865 0.88337 0.0
C357 C 0.00289 0.53116 0.87861 0.0
C358 C 0.00451 0.54996 0.88732 0.0
C359 C 0.9896 0.54606 0.90026 0.0
C360 C 0.98521 0.4881 0.87494 0.0
C361 C 0.02172 0.57421 0.88279 0.0
C362 C 0.90838 0.49319 0.79659 0.0
C363 C 0.91721 0.47868 0.79966 0.0
C364 C 0.94085 0.4873 0.80022 0.0
C365 C 0.95591 0.51092 0.79779 0.0
C366 C 0.94704 0.52532 0.79379 0.0
C367 C 0.9233 0.51615 0.79306 0.0
C368 C 0.94973 0.47128 0.80392 0.0
C369 C 0.96262 0.55051 0.79091 0.0
C370 C 0.05347 0.5161 0.7143 0.0
C371 C 0.07453 0.5343 0.72344 0.0
C372 C 0.05758 0.54439 0.74613 0.0
C373 C 0.04935 0.52378 0.75468 0.0
C374 C 0.03667 0.5199 0.76892 0.0
C375 C 0.03244 0.53706 0.77485 0.0
C376 C 0.04108 0.55797 0.76647 0.0
C377 C 0.0535 0.56131 0.75219 0.0
C378 C 0.02756 0.49736 0.77756 0.0
C379 C 0.03699 0.57669 0.77252 0.0
C380 C 0.05453 0.54554 0.85299 0.0
C381 C 0.04013 0.54141 0.86622 0.0
C382 C 0.01722 0.53508 0.86405 0.0
C383 C 0.00822 0.53243 0.84824 0.0
C384 C 0.98527 0.52618 0.8456 0.0
C385 C 0.97627 0.52247 0.83005 0.0
C386 C 0.98997 0.5253 0.81651 0.0
C387 C 0.98075 0.52075 0.80069 0.0
C388 C 0.99501 0.52471 0.78744 0.0
C389 C 0.01837 0.53293 0.78954 0.0
C390 C 0.02778 0.53682 0.8053 0.0
C391 C 0.0511 0.54455 0.80789 0.0
C392 C 0.05997 0.54759 0.82349 0.0
C393 C 0.0459 0.54317 0.83708 0.0
C394 C 0.02255 0.53619 0.83473 0.0
C395 C 0.01345 0.53284 0.81883 0.0
C396 C 0.85571 0.47758 0.81572 0.0
C397 C 0.8703 0.46898 0.80759 0.0
O398 O 0.14394 0.56726 0.8709 0.0
O399 O 0.06922 0.54868 0.73198 0.0
O400 O 0.88566 0.48569 0.79723 0.0
O401 O 0.95654 0.51917 0.91586 0.0
H402 H 0.16271 0.60166 0.87525 0.0
H403 H 0.13345 0.58385 0.89732 0.0
H404 H 0.14538 0.5663 0.90315 0.0
H405 H 0.16176 0.59698 0.9056 0.0
H406 H 0.12879 0.59731 0.86909 0.0
H407 H 0.11256 0.52815 0.86067 0.0
H408 H 0.07646 0.59013 0.87095 0.0
H409 H 0.10359 0.61042 0.86235 0.0
H410 H 0.07956 0.5927 0.84941 0.0
H411 H 0.07578 0.4993 0.85293 0.0
H412 H 0.05291 0.50396 0.85934 0.0
H413 H 0.06281 0.50984 0.83889 0.0
H414 H 0.97208 0.54717 0.93072 0.0
H415 H 0.9418 0.55822 0.9259 0.0
H416 H 0.95623 0.55841 0.90768 0.0
H417 H 0.92806 0.53512 0.91145 0.0
H418 H 0.95861 0.48815 0.89932 0.0
H419 H 0.99117 0.56056 0.90688 0.0
H420 H 0.97644 0.48558 0.86313 0.0
H421 H 0.00251 0.49069 0.87256 0.0
H422 H 0.97541 0.47227 0.88216 0.0
H423 H 0.01899 0.58691 0.88947 0.0
H424 H 0.03915 0.57747 0.88557 0.0
H425 H 0.02088 0.57686 0.86961 0.0
H426 H 0.87953 0.46588 0.81756 0.0
H427 H 0.90566 0.46067 0.80176 0.0
H428 H 0.91626 0.5271 0.79041 0.0
H429 H 0.95701 0.47471 0.81633 0.0
H430 H 0.93609 0.45307 0.80318 0.0
H431 H 0.96361 0.4742 0.7954 0.0
H432 H 0.95301 0.55948 0.78822 0.0
H433 H 0.97351 0.55849 0.80173 0.0
H434 H 0.97413 0.55299 0.7806 0.0
H435 H 0.0807 0.5258 0.73194 0.0
H436 H 0.05793 0.5049 0.70722 0.0
H437 H 0.03966 0.50519 0.72284 0.0
H438 H 0.04679 0.52423 0.70592 0.0
H439 H 0.05248 0.51053 0.75029 0.0
H440 H 0.05998 0.57716 0.74556 0.0
H441 H 0.03498 0.50031 0.7899 0.0
H442 H 0.00874 0.48914 0.77887 0.0
H443 H 0.0316 0.48541 0.77107 0.0
H444 H 0.04615 0.59251 0.76521 0.0
H445 H 0.01843 0.57071 0.77211 0.0
H446 H 0.04261 0.58079 0.78532 0.0
H447 H 0.04684 0.54314 0.87839 0.0
H448 H 0.97387 0.52378 0.85552 0.0
H449 H 0.95839 0.51735 0.82881 0.0
H450 H 0.98782 0.52126 0.77533 0.0
H451 H 0.06269 0.54808 0.79788 0.0
H452 H 0.07799 0.55334 0.82477 0.0
H453 H 0.84318 0.46441 0.82406 0.0
H454 H 0.86682 0.49322 0.82287 0.0
H455 H 0.84635 0.48182 0.80658 0.0
C456 C 0.46086 0.86193 0.93722 0.0
C457 C 0.46264 0.88467 0.93897 0.0
C458 C 0.48591 0.92123 0.95261 0.0
C459 C 0.4693 0.92794 0.95222 0.0
C460 C 0.47469 0.95001 0.95693 0.0
C461 C 0.49734 0.96598 0.96161 0.0
C462 C 0.51412 0.95929 0.96195 0.0
C463 C 0.50801 0.93682 0.95777 0.0
C464 C 0.45617 0.95629 0.9567 0.0
C465 C 0.53863 0.97595 0.96639 0.0
C466 C 0.47685 0.05078 0.87554 0.0
C467 C 0.50066 0.06095 0.88303 0.0
C468 C 0.5037 0.05926 0.9122 0.0
C469 C 0.52276 0.05641 0.91375 0.0
C470 C 0.52596 0.04659 0.92774 0.0
C471 C 0.50949 0.03913 0.94024 0.0
C472 C 0.49038 0.04233 0.93872 0.0
C473 C 0.48808 0.05289 0.92484 0.0
C474 C 0.54678 0.04396 0.92907 0.0
C475 C 0.472 0.034 0.95147 0.0
C476 C 0.55676 0.13628 0.02052 0.0
C477 C 0.57196 0.12796 0.01885 0.0
C478 C 0.56395 0.10442 0.01883 0.0
C479 C 0.54028 0.08896 0.02046 0.0
C480 C 0.52515 0.09733 0.02324 0.0
C481 C 0.53367 0.121 0.02339 0.0
C482 C 0.58065 0.09604 0.01637 0.0
C483 C 0.49986 0.08128 0.02525 0.0
C484 C 0.49222 0.93013 0.07025 0.0
C485 C 0.48342 0.94336 0.08007 0.0
C486 C 0.5047 0.98166 0.06906 0.0
C487 C 0.5272 0.99522 0.06385 0.0
C488 C 0.53244 0.01035 0.05084 0.0
C489 C 0.51471 0.01221 0.04319 0.0
C490 C 0.49209 0.99946 0.04906 0.0
C491 C 0.48731 0.98425 0.06192 0.0
C492 C 0.55675 0.02386 0.04498 0.0
C493 C 0.47292 0.00165 0.04155 0.0
C494 C 0.50371 0.98999 0.96517 0.0
C495 C 0.50534 0.00382 0.95212 0.0
C496 C 0.51127 0.0266 0.9544 0.0
C497 C 0.5169 0.0363 0.97005 0.0
C498 C 0.52452 0.05956 0.97264 0.0
C499 C 0.52938 0.0688 0.98815 0.0
C500 C 0.52662 0.05508 0.00169 0.0
C501 C 0.53121 0.06425 0.01754 0.0
C502 C 0.52745 0.05 0.03079 0.0
C503 C 0.51955 0.0267 0.02862 0.0
C504 C 0.51571 0.01738 0.01283 0.0
C505 C 0.50847 0.99417 0.01018 0.0
C506 C 0.50455 0.98514 0.9946 0.0
C507 C 0.50766 0.99894 0.98107 0.0
C508 C 0.51465 0.0223 0.98347 0.0
C509 C 0.51906 0.0316 0.99934 0.0
C510 C 0.57214 0.18728 0.99904 0.0
C511 C 0.58078 0.17377 0.00867 0.0
O512 O 0.48133 0.90003 0.94805 0.0
O513 O 0.50021 0.9662 0.08096 0.0
O514 O 0.56371 0.15881 0.01897 0.0
O515 O 0.49996 0.06811 0.89863 0.0
H516 H 0.46067 0.89228 0.92754 0.0
H517 H 0.46336 0.8603 0.92393 0.0
H518 H 0.47791 0.86414 0.94089 0.0
H519 H 0.43041 0.83983 0.94929 0.0
H520 H 0.45206 0.91604 0.94833 0.0
H521 H 0.52068 0.93148 0.95806 0.0
H522 H 0.45866 0.96734 0.9461 0.0
H523 H 0.43886 0.941 0.95584 0.0
H524 H 0.45705 0.96605 0.96776 0.0
H525 H 0.55013 0.96906 0.96371 0.0
H526 H 0.54482 0.99224 0.95973 0.0
H527 H 0.5398 0.97985 0.97951 0.0
H528 H 0.50521 0.04721 0.88316 0.0
H529 H 0.47665 0.0443 0.86315 0.0
H530 H 0.46433 0.03627 0.88301 0.0
H531 H 0.47145 0.06382 0.87493 0.0
H532 H 0.53513 0.06194 0.90404 0.0
H533 H 0.47353 0.0554 0.92349 0.0
H534 H 0.5416 0.02568 0.9276 0.0
H535 H 0.5597 0.05394 0.9197 0.0
H536 H 0.55476 0.04955 0.94121 0.0
H537 H 0.4567 0.03464 0.94729 0.0
H538 H 0.46665 0.01618 0.95499 0.0
H539 H 0.47877 0.04486 0.96243 0.0
H540 H 0.58468 0.16417 0.99944 0.0
H541 H 0.59001 0.13979 0.01729 0.0
H542 H 0.52216 0.12764 0.02497 0.0
H543 H 0.57782 0.08789 0.00428 0.0
H544 H 0.59868 0.11011 0.01715 0.0
H545 H 0.5778 0.08292 0.02556 0.0
H546 H 0.49048 0.09048 0.02796 0.0
H547 H 0.49276 0.07116 0.014 0.0
H548 H 0.49685 0.06908 0.0352 0.0
H549 H 0.46798 0.9415 0.07386 0.0
H550 H 0.47899 0.91176 0.06954 0.0
H551 H 0.49633 0.93695 0.05775 0.0
H552 H 0.50792 0.93176 0.07587 0.0
H553 H 0.54054 0.99331 0.06964 0.0
H554 H 0.47002 0.97449 0.06643 0.0
H555 H 0.55759 0.01988 0.03205 0.0
H556 H 0.56276 0.0424 0.04586 0.0
H557 H 0.56852 0.02017 0.05205 0.0
H558 H 0.45677 0.99228 0.0485 0.0
H559 H 0.47775 0.01992 0.0408 0.0
H560 H 0.46979 0.99474 0.02904 0.0
H561 H 0.50141 0.99659 0.94003 0.0
H562 H 0.52684 0.07088 0.96267 0.0
H563 H 0.53512 0.08682 0.98937 0.0
H564 H 0.53062 0.0571 0.04292 0.0
H565 H 0.5058 0.98272 0.02013 0.0
H566 H 0.4989 0.96715 0.9933 0.0
H567 H 0.58585 0.1999 0.99106 0.0
H568 H 0.55749 0.17541 0.99132 0.0
H569 H 0.56629 0.19639 0.00719 0.0
C570 C 0.61466 0.45573 0.10416 0.0
C571 C 0.59476 0.45922 0.10633 0.0
C572 C 0.57998 0.47646 0.12497 0.0
C573 C 0.55655 0.46091 0.12316 0.0
C574 C 0.54021 0.46672 0.12798 0.0
C575 C 0.54747 0.48882 0.13422 0.0
C576 C 0.57112 0.50451 0.1361 0.0
C577 C 0.58703 0.49782 0.13187 0.0
C578 C 0.51519 0.44928 0.12618 0.0
C579 C 0.57974 0.52857 0.1421 0.0
C580 C 0.47516 0.54046 0.0411 0.0
C581 C 0.48403 0.53134 0.05385 0.0
C582 C 0.48084 0.5236 0.08251 0.0
C583 C 0.50183 0.5399 0.0892 0.0
C584 C 0.50991 0.53544 0.10355 0.0
C585 C 0.49669 0.51422 0.11136 0.0
C586 C 0.47527 0.49791 0.10485 0.0
C587 C 0.46747 0.50295 0.09055 0.0
C588 C 0.53259 0.55341 0.11037 0.0
C589 C 0.46079 0.47511 0.11291 0.0
C590 C 0.44496 0.55908 0.19197 0.0
C591 C 0.46864 0.57266 0.18978 0.0
C592 C 0.48265 0.56284 0.18975 0.0
C593 C 0.47272 0.53897 0.19186 0.0
C594 C 0.44908 0.52551 0.19509 0.0
C595 C 0.43552 0.53585 0.19527 0.0
C596 C 0.50794 0.57783 0.18686 0.0
C597 C 0.43802 0.50009 0.19764 0.0
C598 C 0.56969 0.47213 0.23742 0.0
C599 C 0.55088 0.46839 0.24942 0.0
C600 C 0.53856 0.49442 0.23985 0.0
C601 C 0.54988 0.51673 0.23395 0.0
C602 C 0.54022 0.5234 0.22158 0.0
C603 C 0.51858 0.50735 0.21524 0.0
C604 C 0.50636 0.48523 0.22199 0.0
C605 C 0.51647 0.479 0.23428 0.0
C606 C 0.5535 0.54723 0.21481 0.0
C607 C 0.48295 0.46795 0.21583 0.0
C608 C 0.53044 0.4961 0.1375 0.0
C609 C 0.52067 0.50072 0.12419 0.0
C610 C 0.50561 0.509 0.12615 0.0
C611 C 0.50033 0.51326 0.14183 0.0
C612 C 0.4859 0.5224 0.1442 0.0
C613 C 0.48126 0.52705 0.15968 0.0
C614 C 0.49084 0.52271 0.17339 0.0
C615 C 0.48664 0.52789 0.18917 0.0
C616 C 0.49598 0.52288 0.20256 0.0
C617 C 0.50963 0.5129 0.20061 0.0
C618 C 0.51444 0.50806 0.18492 0.0
C619 C 0.5284 0.49834 0.18253 0.0
C620 C 0.53341 0.4941 0.16703 0.0
C621 C 0.52471 0.49945 0.15333 0.0
C622 C 0.50994 0.50848 0.15547 0.0
C623 C 0.50502 0.51303 0.17128 0.0
C624 C 0.41147 0.57633 0.17019 0.0
C625 C 0.43352 0.58468 0.1799 0.0
O626 O 0.59616 0.47143 0.12019 0.0
O627 O 0.54946 0.4881 0.25067 0.0
O628 O 0.43077 0.56777 0.19064 0.0
O629 O 0.47297 0.52775 0.06859 0.0
H630 H 0.58976 0.46545 0.09544 0.0
H631 H 0.62343 0.46561 0.09293 0.0
H632 H 0.62845 0.46798 0.11263 0.0
H633 H 0.60021 0.42018 0.10577 0.0
H634 H 0.55088 0.44414 0.11814 0.0
H635 H 0.60515 0.50965 0.1333 0.0
H636 H 0.50808 0.45383 0.11565 0.0
H637 H 0.51236 0.43179 0.12421 0.0
H638 H 0.50557 0.44918 0.13709 0.0
H639 H 0.59837 0.53969 0.1401 0.0
H640 H 0.57065 0.53632 0.13596 0.0
H641 H 0.57645 0.52825 0.15526 0.0
H642 H 0.48617 0.51665 0.05013 0.0
H643 H 0.50303 0.57309 0.03629 0.0
H644 H 0.46749 0.52658 0.03166 0.0
H645 H 0.45818 0.53767 0.0455 0.0
H646 H 0.51184 0.55627 0.0834 0.0
H647 H 0.45112 0.49062 0.08539 0.0
H648 H 0.53048 0.55715 0.12313 0.0
H649 H 0.54475 0.54689 0.1103 0.0
H650 H 0.54017 0.56956 0.10337 0.0
H651 H 0.44479 0.46406 0.1061 0.0
H652 H 0.47065 0.46609 0.11405 0.0
H653 H 0.45628 0.47778 0.12531 0.0
H654 H 0.447 0.5879 0.17085 0.0
H655 H 0.47614 0.59086 0.1879 0.0
H656 H 0.41728 0.52563 0.19725 0.0
H657 H 0.51222 0.57421 0.17466 0.0
H658 H 0.51344 0.59628 0.18759 0.0
H659 H 0.51778 0.574 0.19584 0.0
H660 H 0.41945 0.49205 0.20017 0.0
H661 H 0.44041 0.49196 0.18671 0.0
H662 H 0.44638 0.49657 0.20792 0.0
H663 H 0.5346 0.454 0.24472 0.0
H664 H 0.57141 0.45665 0.2367 0.0
H665 H 0.5653 0.47554 0.22518 0.0
H666 H 0.58635 0.48695 0.2411 0.0
H667 H 0.56675 0.52862 0.23858 0.0
H668 H 0.50716 0.46206 0.23942 0.0
H669 H 0.55795 0.54637 0.202 0.0
H670 H 0.54281 0.55545 0.21499 0.0
H671 H 0.56949 0.5581 0.22168 0.0
H672 H 0.47498 0.45208 0.22315 0.0
H673 H 0.47159 0.47542 0.21594 0.0
H674 H 0.48426 0.46344 0.20312 0.0
H675 H 0.52518 0.49821 0.11206 0.0
H676 H 0.47816 0.52621 0.13411 0.0
H677 H 0.47008 0.53414 0.16072 0.0
H678 H 0.49258 0.52676 0.21462 0.0
H679 H 0.53579 0.49407 0.1926 0.0
H680 H 0.5443 0.48668 0.16592 0.0
H681 H 0.4132 0.58977 0.16164 0.0
H682 H 0.4079 0.56093 0.16308 0.0
H683 H 0.39672 0.57176 0.1783 0.0
Li684 Li 0.6353 0.41556 0.42646 0.0
Li685 Li 0.63013 0.3788 0.41443 0.0
Li686 Li 0.66526 0.41761 0.4089 0.0
Li687 Li 0.62866 0.40788 0.39803 0.0
C688 C 0.66036 0.40226 0.44532 0.0
N689 N 0.67241 0.40516 0.47753 0.0
C690 C 0.64929 0.38309 0.45528 0.0
C691 C 0.67779 0.4228 0.45166 0.0
C692 C 0.65557 0.38494 0.47155 0.0
C693 C 0.68357 0.42395 0.468 0.0
C694 C 0.58755 0.38496 0.40983 0.0
C695 C 0.5544 0.3615 0.39344 0.0
N696 N 0.54722 0.37686 0.3956 0.0
C697 C 0.57982 0.40046 0.41198 0.0
C698 C 0.57475 0.36527 0.40056 0.0
C699 C 0.55939 0.39608 0.40465 0.0
C700 C 0.63113 0.4488 0.44463 0.0
N701 N 0.62845 0.42751 0.44502 0.0
C702 C 0.61345 0.42166 0.4718 0.0
C703 C 0.61957 0.41384 0.45815 0.0
C704 C 0.61587 0.44356 0.4718 0.0
C705 C 0.6249 0.45721 0.45795 0.0
H706 H 0.63763 0.45906 0.43384 0.0
H707 H 0.61693 0.39672 0.45794 0.0
C708 C 0.63913 0.34366 0.41577 0.0
N709 N 0.62205 0.34828 0.41847 0.0
C710 C 0.63661 0.32272 0.42033 0.0
C711 C 0.59855 0.31126 0.42984 0.0
C712 C 0.60186 0.33258 0.42513 0.0
C713 C 0.61633 0.30641 0.4278 0.0
H714 H 0.65504 0.35665 0.41058 0.0
H715 H 0.58872 0.33694 0.42733 0.0
C716 C 0.66833 0.45855 0.40594 0.0
N717 N 0.70412 0.50229 0.40079 0.0
C718 C 0.67232 0.46814 0.39049 0.0
C719 C 0.68239 0.47129 0.4188 0.0
C720 C 0.69053 0.49026 0.38813 0.0
C721 C 0.70045 0.49334 0.41594 0.0
C722 C 0.64754 0.38891 0.37788 0.0
C723 C 0.6589 0.40769 0.36762 0.0
C724 C 0.63739 0.36681 0.37151 0.0
C725 C 0.65977 0.40403 0.35107 0.0
C726 C 0.63866 0.36386 0.3549 0.0
N727 N 0.64971 0.38237 0.34511 0.0
C728 C 0.70607 0.4188 0.41413 0.0
C729 C 0.70922 0.44424 0.3933 0.0
C730 C 0.72769 0.42222 0.41056 0.0
N731 N 0.69708 0.42939 0.40533 0.0
C732 C 0.73106 0.44829 0.38938 0.0
C733 C 0.74016 0.4366 0.39775 0.0
H734 H 0.69593 0.40664 0.42334 0.0
H735 H 0.70157 0.45193 0.3861 0.0
C736 C 0.61289 0.43189 0.37965 0.0
N737 N 0.61363 0.41218 0.37992 0.0
C738 C 0.60356 0.43711 0.3664 0.0
C739 C 0.59508 0.40119 0.35419 0.0
C740 C 0.60432 0.39655 0.36778 0.0
C741 C 0.59497 0.42187 0.35331 0.0
H742 H 0.61992 0.44377 0.38965 0.0
H743 H 0.60427 0.38059 0.36854 0.0
O744 O 0.65436 0.40081 0.42939 0.0
O745 O 0.60781 0.38928 0.41651 0.0
O746 O 0.65051 0.43696 0.40851 0.0
O747 O 0.6462 0.39207 0.39407 0.0
H748 H 0.63584 0.36703 0.45053 0.0
H749 H 0.6868 0.43765 0.44404 0.0
H750 H 0.64704 0.37029 0.47943 0.0
H751 H 0.69695 0.43977 0.4731 0.0
H752 H 0.54436 0.3464 0.38615 0.0
H753 H 0.58964 0.41583 0.41908 0.0
H754 H 0.58063 0.35319 0.39874 0.0
H755 H 0.55324 0.40798 0.40611 0.0
H756 H 0.60684 0.41058 0.48222 0.0
H757 H 0.62664 0.47399 0.45722 0.0
H758 H 0.65061 0.31952 0.4184 0.0
H759 H 0.58275 0.29916 0.43567 0.0
H760 H 0.66165 0.45853 0.38037 0.0
H761 H 0.67933 0.46426 0.43086 0.0
H762 H 0.6939 0.49783 0.37622 0.0
H763 H 0.71151 0.50337 0.42578 0.0
H764 H 0.66662 0.42487 0.37236 0.0
H765 H 0.6285 0.35211 0.37932 0.0
H766 H 0.66837 0.4184 0.34297 0.0
H767 H 0.63082 0.34686 0.34978 0.0
H768 H 0.73418 0.41294 0.4173 0.0
H769 H 0.74007 0.45927 0.37927 0.0
H770 H 0.60376 0.45322 0.36616 0.0
H771 H 0.5882 0.38883 0.34444 0.0
Li772 Li 0.24322 0.63287 0.59304 0.0
Li773 Li 0.27144 0.62421 0.58177 0.0
Li774 Li 0.27263 0.66091 0.57461 0.0
Li775 Li 0.24356 0.62444 0.56348 0.0
C776 C 0.28439 0.66337 0.60972 0.0
N777 N 0.29994 0.69024 0.63721 0.0
C778 C 0.29438 0.65756 0.62229 0.0
C779 C 0.2827 0.68308 0.61104 0.0
C780 C 0.30201 0.67129 0.63612 0.0
C781 C 0.29056 0.69638 0.62505 0.0
C782 C 0.23409 0.58318 0.58693 0.0
C783 C 0.23167 0.54721 0.58058 0.0
N784 N 0.22715 0.541 0.59637 0.0
C785 C 0.22917 0.57634 0.60306 0.0
C786 C 0.23514 0.56842 0.57556 0.0
C787 C 0.22582 0.55499 0.6076 0.0
C788 C 0.20192 0.62209 0.60775 0.0
N789 N 0.22379 0.6276 0.611 0.0
C790 C 0.21532 0.62011 0.63911 0.0
C791 C 0.23077 0.62694 0.62631 0.0
C792 C 0.19244 0.61365 0.63605 0.0
C793 C 0.18588 0.61511 0.62017 0.0
H794 H 0.19679 0.62246 0.59541 0.0
H795 H 0.24801 0.63061 0.62852 0.0
C796 C 0.30716 0.6143 0.5772 0.0
N797 N 0.29032 0.61189 0.58736 0.0
C798 C 0.32375 0.60923 0.58254 0.0
C799 C 0.30475 0.59847 0.60843 0.0
C800 C 0.28857 0.60372 0.6026 0.0
C801 C 0.32305 0.60191 0.59852 0.0
H802 H 0.30849 0.62136 0.56528 0.0
H803 H 0.27536 0.60253 0.61056 0.0
C804 C 0.2323 0.66432 0.57381 0.0
N805 N 0.21801 0.69615 0.57354 0.0
C806 C 0.22509 0.6695 0.55938 0.0
C807 C 0.23172 0.67497 0.58816 0.0
C808 C 0.21809 0.68575 0.55947 0.0
C809 C 0.22458 0.69111 0.58777 0.0
C810 C 0.28038 0.63586 0.54484 0.0
C811 C 0.28853 0.65366 0.53362 0.0
C812 C 0.27539 0.6141 0.53983 0.0
C813 C 0.2911 0.64924 0.51748 0.0
C814 C 0.27817 0.61037 0.52358 0.0
N815 N 0.28587 0.62786 0.51283 0.0
C816 C 0.31339 0.70317 0.57644 0.0
C817 C 0.28681 0.70173 0.5571 0.0
C818 C 0.32957 0.72508 0.57141 0.0
N819 N 0.29252 0.692 0.56924 0.0
C820 C 0.3025 0.72357 0.55162 0.0
C821 C 0.32432 0.73539 0.55867 0.0
H822 H 0.31777 0.69475 0.58571 0.0
H823 H 0.27046 0.69217 0.55115 0.0
C824 C 0.20744 0.58974 0.54474 0.0
N825 N 0.22503 0.61166 0.5449 0.0
C826 C 0.19329 0.58118 0.53114 0.0
C827 C 0.21575 0.61789 0.51825 0.0
C828 C 0.22929 0.62575 0.53208 0.0
C829 C 0.19743 0.59537 0.51768 0.0
H830 H 0.2042 0.57904 0.55523 0.0
H831 H 0.24301 0.64326 0.53273 0.0
O832 O 0.27691 0.65013 0.59607 0.0
O833 O 0.23746 0.60404 0.58225 0.0
O834 O 0.23898 0.64825 0.57394 0.0
O835 O 0.27743 0.63977 0.56065 0.0
H836 H 0.29612 0.64256 0.62143 0.0
H837 H 0.27578 0.6883 0.60124 0.0
H838 H 0.30962 0.66689 0.64598 0.0
H839 H 0.28932 0.71166 0.62621 0.0
H840 H 0.23251 0.53565 0.57191 0.0
H841 H 0.22813 0.58744 0.612 0.0
H842 H 0.23844 0.57322 0.56297 0.0
H843 H 0.22215 0.54955 0.62007 0.0
H844 H 0.22097 0.61883 0.65112 0.0
H845 H 0.16843 0.61043 0.61733 0.0
H846 H 0.33774 0.61241 0.57459 0.0
H847 H 0.30352 0.59274 0.6208 0.0
H848 H 0.22502 0.66119 0.5482 0.0
H849 H 0.23647 0.67068 0.59954 0.0
H850 H 0.21267 0.69006 0.54836 0.0
H851 H 0.22415 0.69953 0.59878 0.0
H852 H 0.29268 0.67065 0.53731 0.0
H853 H 0.26945 0.60026 0.54839 0.0
H854 H 0.29723 0.66282 0.50865 0.0
H855 H 0.27423 0.59357 0.51952 0.0
H856 H 0.34635 0.73343 0.57696 0.0
H857 H 0.29779 0.73091 0.54176 0.0
H858 H 0.17933 0.5637 0.53114 0.0
H859 H 0.21925 0.62951 0.50826 0.0
Li860 Li 0.6686 0.26409 0.74748 0.0
Li861 Li 0.63384 0.23416 0.75924 0.0
Li862 Li 0.64284 0.23361 0.72942 0.0
Li863 Li 0.6329 0.26202 0.7409 0.0
C864 C 0.67716 0.22883 0.75233 0.0
N865 N 0.71433 0.22384 0.7594 0.0
C866 C 0.68502 0.23123 0.76825 0.0
C867 C 0.68806 0.22375 0.74002 0.0
C868 C 0.7039 0.22869 0.77157 0.0
C869 C 0.70686 0.22132 0.74384 0.0
C870 C 0.64611 0.2715 0.77805 0.0
C871 C 0.62444 0.27307 0.80065 0.0
N872 N 0.64296 0.27985 0.81039 0.0
C873 C 0.66497 0.27855 0.78827 0.0
C874 C 0.6257 0.26883 0.78425 0.0
C875 C 0.66303 0.28268 0.80459 0.0
C876 C 0.70015 0.30755 0.75547 0.0
N877 N 0.69935 0.28752 0.752 0.0
C878 C 0.73952 0.30464 0.75687 0.0
C879 C 0.71861 0.28587 0.75219 0.0
C880 C 0.74054 0.32527 0.76118 0.0
C881 C 0.72057 0.32668 0.76 0.0
H882 H 0.6847 0.30856 0.75489 0.0
H883 H 0.71785 0.27007 0.74893 0.0
C884 C 0.59891 0.19508 0.77372 0.0
N885 N 0.61911 0.21422 0.77702 0.0
C886 C 0.58697 0.17934 0.78589 0.0
C887 C 0.61679 0.20325 0.80475 0.0
C888 C 0.62836 0.21833 0.79212 0.0
C889 C 0.59573 0.18338 0.80174 0.0
H890 H 0.59217 0.19191 0.76154 0.0
H891 H 0.64475 0.23323 0.79441 0.0
C892 C 0.6769 0.28321 0.71874 0.0
N893 N 0.71743 0.31724 0.70604 0.0
C894 C 0.68107 0.30561 0.71793 0.0
C895 C 0.69321 0.27803 0.71298 0.0
C896 C 0.7017 0.3226 0.71149 0.0
C897 C 0.71363 0.29551 0.70664 0.0
C898 C 0.59255 0.22383 0.7359 0.0
C899 C 0.58446 0.21718 0.72013 0.0
C900 C 0.57882 0.22632 0.7474 0.0
C901 C 0.56276 0.21337 0.71607 0.0
C902 C 0.55724 0.22238 0.74285 0.0
N903 N 0.54973 0.21605 0.72741 0.0
C904 C 0.62928 0.19135 0.71556 0.0
C905 C 0.64347 0.22155 0.69652 0.0
C906 C 0.62465 0.17546 0.70328 0.0
N907 N 0.6385 0.21384 0.71198 0.0
C908 C 0.63913 0.20621 0.68383 0.0
C909 C 0.62956 0.18279 0.68715 0.0
H910 H 0.6253 0.18579 0.72799 0.0
H911 H 0.65064 0.23955 0.69406 0.0
C912 C 0.62619 0.29857 0.74683 0.0
N913 N 0.62006 0.28079 0.7365 0.0
C914 C 0.61988 0.3149 0.74371 0.0
C915 C 0.60081 0.29427 0.71938 0.0
C916 C 0.60764 0.27836 0.72294 0.0
C917 C 0.60718 0.31303 0.72976 0.0
H918 H 0.63678 0.30061 0.7572 0.0
H919 H 0.60364 0.2645 0.71463 0.0
O920 O 0.65851 0.23085 0.74887 0.0
O921 O 0.6477 0.26756 0.76201 0.0
O922 O 0.65707 0.26647 0.72536 0.0
O923 O 0.61377 0.22778 0.74009 0.0
H924 H 0.67672 0.23513 0.7779 0.0
H925 H 0.68205 0.22171 0.72765 0.0
H926 H 0.71025 0.23059 0.78381 0.0
H927 H 0.71552 0.21744 0.73444 0.0
H928 H 0.60873 0.27101 0.80562 0.0
H929 H 0.68084 0.28051 0.78373 0.0
H930 H 0.61102 0.26355 0.77648 0.0
H931 H 0.67744 0.28804 0.81265 0.0
H932 H 0.75453 0.30283 0.75753 0.0
H933 H 0.72064 0.34238 0.7627 0.0
H934 H 0.57117 0.16401 0.7828 0.0
H935 H 0.62423 0.20726 0.81674 0.0
H936 H 0.66858 0.30985 0.72237 0.0
H937 H 0.69021 0.26076 0.71359 0.0
H938 H 0.70525 0.34005 0.71087 0.0
H939 H 0.72649 0.29181 0.70223 0.0
H940 H 0.59489 0.21513 0.71112 0.0
H941 H 0.5848 0.23127 0.75969 0.0
H942 H 0.5563 0.20831 0.70389 0.0
H943 H 0.54645 0.22432 0.7516 0.0
H944 H 0.61691 0.15755 0.70637 0.0
H945 H 0.64334 0.21261 0.67159 0.0
H946 H 0.62575 0.32935 0.75184 0.0
H947 H 0.59099 0.29212 0.7085 0.0
Li948 Li 0.42035 0.62697 0.92607 0.0
Li949 Li 0.42427 0.66208 0.91447 0.0
Li950 Li 0.38943 0.62391 0.90943 0.0
Li951 Li 0.42545 0.63394 0.89611 0.0
C952 C 0.39818 0.64124 0.9463 0.0
N953 N 0.39256 0.64197 0.97934 0.0
C954 C 0.4117 0.66121 0.95514 0.0
C955 C 0.38158 0.62175 0.95423 0.0
C956 C 0.40866 0.6612 0.97185 0.0
C957 C 0.37907 0.62242 0.97095 0.0
C958 C 0.4689 0.66951 0.91399 0.0
C959 C 0.50038 0.70067 0.90011 0.0
N960 N 0.5131 0.70596 0.91386 0.0
C961 C 0.48237 0.67512 0.92795 0.0
C962 C 0.47804 0.68226 0.89992 0.0
C963 C 0.50464 0.69365 0.92765 0.0
C964 C 0.42343 0.59302 0.94422 0.0
N965 N 0.42816 0.61507 0.94425 0.0
C966 C 0.44639 0.6216 0.97002 0.0
C967 C 0.43931 0.62931 0.95683 0.0
C968 C 0.44215 0.59904 0.97022 0.0
C969 C 0.43024 0.58456 0.95719 0.0
H970 H 0.41484 0.58213 0.93396 0.0
H971 H 0.44313 0.64683 0.95648 0.0
C972 C 0.41472 0.69662 0.91518 0.0
N973 N 0.43241 0.69297 0.91809 0.0
C974 C 0.41682 0.71778 0.91847 0.0
C975 C 0.45559 0.73139 0.92741 0.0
C976 C 0.45268 0.70982 0.92402 0.0
C977 C 0.43735 0.7354 0.92487 0.0
H978 H 0.39876 0.68283 0.91058 0.0
H979 H 0.46636 0.70645 0.92656 0.0
C980 C 0.38659 0.58355 0.90597 0.0
N981 N 0.34964 0.54012 0.90194 0.0
C982 C 0.38289 0.57229 0.89113 0.0
C983 C 0.37169 0.5726 0.91881 0.0
C984 C 0.36406 0.55036 0.88932 0.0
C985 C 0.35305 0.55069 0.91652 0.0
C986 C 0.40939 0.65963 0.87966 0.0
C987 C 0.39248 0.64933 0.8678 0.0
C988 C 0.42849 0.68101 0.8767 0.0
C989 C 0.39528 0.66031 0.85298 0.0
C990 C 0.43066 0.69146 0.86175 0.0
N991 N 0.41417 0.68096 0.85028 0.0
C992 C 0.34592 0.61604 0.91698 0.0
C993 C 0.34703 0.59746 0.89295 0.0
C994 C 0.32305 0.60926 0.91429 0.0
N995 N 0.35744 0.61026 0.9063 0.0
C996 C 0.32407 0.59015 0.88984 0.0
C997 C 0.31186 0.59641 0.90043 0.0
H998 H 0.35478 0.62676 0.92725 0.0
H999 H 0.35674 0.59362 0.88442 0.0
C1000 C 0.45964 0.63387 0.87577 0.0
N1001 N 0.43775 0.62955 0.87668 0.0
C1002 C 0.46795 0.63009 0.86131 0.0
C1003 C 0.43088 0.61701 0.8492 0.0
C1004 C 0.42335 0.62109 0.86383 0.0
C1005 C 0.45347 0.62157 0.84776 0.0
H1006 H 0.47059 0.64007 0.8863 0.0
H1007 H 0.40581 0.61699 0.86506 0.0
O1008 O 0.40091 0.64092 0.92992 0.0
O1009 O 0.44704 0.65141 0.91409 0.0
O1010 O 0.40477 0.60513 0.90793 0.0
O1011 O 0.40693 0.64906 0.89423 0.0
H1012 H 0.42458 0.67648 0.94923 0.0
H1013 H 0.37069 0.60629 0.94755 0.0
H1014 H 0.41911 0.67649 0.97886 0.0
H1015 H 0.36636 0.60743 0.97725 0.0
H1016 H 0.50764 0.7107 0.8893 0.0
H1017 H 0.47573 0.66533 0.9389 0.0
H1018 H 0.4681 0.67787 0.88891 0.0
H1019 H 0.5152 0.69824 0.93839 0.0
H1020 H 0.45531 0.63327 0.97989 0.0
H1021 H 0.42689 0.56715 0.95677 0.0
H1022 H 0.40244 0.72028 0.91618 0.0
H1023 H 0.47161 0.74451 0.93249 0.0
H1024 H 0.39439 0.58038 0.88111 0.0
H1025 H 0.37449 0.58096 0.93042 0.0
H1026 H 0.36092 0.54149 0.87788 0.0
H1027 H 0.34131 0.54207 0.92634 0.0
H1028 H 0.37744 0.63292 0.86995 0.0
H1029 H 0.44141 0.68957 0.88589 0.0
H1030 H 0.38243 0.65242 0.84364 0.0
H1031 H 0.44541 0.70796 0.85928 0.0
H1032 H 0.31456 0.61495 0.92261 0.0
H1033 H 0.31613 0.58015 0.87907 0.0
H1034 H 0.48547 0.6338 0.86075 0.0
H1035 H 0.41891 0.60981 0.83924 0.0
Li1036 Li 0.77201 0.40919 0.08108 0.0
Li1037 Li 0.80186 0.40316 0.09289 0.0
Li1038 Li 0.80269 0.41217 0.06341 0.0
Li1039 Li 0.77518 0.37473 0.07425 0.0
C1040 C 0.80829 0.45288 0.0845 0.0
N1041 N 0.81383 0.49599 0.08837 0.0
C1042 C 0.81502 0.464 0.09945 0.0
C1043 C 0.80476 0.46387 0.07146 0.0
C1044 C 0.81764 0.48574 0.10118 0.0
C1045 C 0.80754 0.4856 0.07367 0.0
C1046 C 0.76488 0.37986 0.11158 0.0
C1047 C 0.76335 0.35834 0.13525 0.0
N1048 N 0.7585 0.37205 0.14446 0.0
C1049 C 0.75967 0.3936 0.12126 0.0
C1050 C 0.76653 0.36195 0.1186 0.0
C1051 C 0.75658 0.38942 0.13787 0.0
C1052 C 0.72933 0.4039 0.07677 0.0
N1053 N 0.74945 0.41789 0.08433 0.0
C1054 C 0.73357 0.43898 0.09647 0.0
C1055 C 0.75194 0.4353 0.094 0.0
C1056 C 0.71246 0.42452 0.08898 0.0
C1057 C 0.71063 0.40702 0.07882 0.0
H1058 H 0.7277 0.39001 0.06931 0.0
H1059 H 0.76785 0.44583 0.10026 0.0
C1060 C 0.83684 0.40157 0.11004 0.0
N1061 N 0.82077 0.40796 0.11129 0.0
C1062 C 0.8514 0.40479 0.12298 0.0
C1063 C 0.83314 0.4218 0.13815 0.0
C1064 C 0.81871 0.41797 0.12497 0.0
C1065 C 0.84966 0.41507 0.13722 0.0
H1066 H 0.83856 0.39417 0.09894 0.0
H1067 H 0.80599 0.42312 0.12565 0.0
C1068 C 0.76438 0.39915 0.04461 0.0
N1069 N 0.75434 0.40839 0.01409 0.0
C1070 C 0.76103 0.38439 0.03172 0.0
C1071 C 0.76213 0.41835 0.04202 0.0
C1072 C 0.75611 0.38943 0.01636 0.0
C1073 C 0.75717 0.4228 0.0265 0.0
C1074 C 0.81214 0.37129 0.07094 0.0
C1075 C 0.8216 0.36976 0.0563 0.0
C1076 C 0.80593 0.35416 0.08252 0.0
C1077 C 0.8243 0.35089 0.05338 0.0
C1078 C 0.80889 0.33556 0.07915 0.0
N1079 N 0.81791 0.33431 0.06476 0.0
C1080 C 0.83831 0.44995 0.04727 0.0
C1081 C 0.8198 0.41602 0.03162 0.0
C1082 C 0.8529 0.46166 0.03447 0.0
N1083 N 0.82196 0.42765 0.04556 0.0
C1084 C 0.83429 0.42696 0.01859 0.0
C1085 C 0.85099 0.45009 0.01994 0.0
H1086 H 0.84023 0.45861 0.05864 0.0
H1087 H 0.80707 0.39815 0.03071 0.0
C1088 C 0.73873 0.33016 0.07884 0.0
N1089 N 0.75675 0.34326 0.06908 0.0
C1090 C 0.72215 0.30826 0.07397 0.0
C1091 C 0.74351 0.31344 0.04938 0.0
C1092 C 0.75978 0.33514 0.0548 0.0
C1093 C 0.72406 0.30004 0.0588 0.0
H1094 H 0.73652 0.3372 0.08999 0.0
H1095 H 0.77416 0.34597 0.04721 0.0
O1096 O 0.80553 0.43151 0.08262 0.0
O1097 O 0.76808 0.38377 0.09531 0.0
O1098 O 0.76925 0.39449 0.05974 0.0
O1099 O 0.80918 0.38955 0.074 0.0
H1100 H 0.81817 0.45597 0.10963 0.0
H1101 H 0.80022 0.45585 0.0597 0.0
H1102 H 0.8227 0.49447 0.11271 0.0
H1103 H 0.80479 0.49425 0.06367 0.0
H1104 H 0.76468 0.3446 0.14084 0.0
H1105 H 0.7583 0.4075 0.11607 0.0
H1106 H 0.77013 0.35088 0.11128 0.0
H1107 H 0.75271 0.40004 0.14551 0.0
H1108 H 0.73563 0.45247 0.1046 0.0
H1109 H 0.6948 0.39566 0.07262 0.0
H1110 H 0.86416 0.39968 0.12175 0.0
H1111 H 0.83127 0.42972 0.149 0.0
H1112 H 0.76241 0.36932 0.03347 0.0
H1113 H 0.76392 0.42959 0.05191 0.0
H1114 H 0.7537 0.37824 0.00626 0.0
H1115 H 0.75549 0.43766 0.02434 0.0
H1116 H 0.82685 0.383 0.0473 0.0
H1117 H 0.7989 0.35525 0.09398 0.0
H1118 H 0.8315 0.34944 0.04207 0.0
H1119 H 0.80405 0.32214 0.08798 0.0
H1120 H 0.86584 0.47943 0.036 0.0
H1121 H 0.83237 0.4175 0.00756 0.0
H1122 H 0.70724 0.29853 0.08146 0.0
H1123 H 0.74557 0.3076 0.03763 0.0
Li1124 Li 0.42739 0.80913 0.26147 0.0
Li1125 Li 0.39262 0.78042 0.24864 0.0
Li1126 Li 0.42908 0.78207 0.24326 0.0
Li1127 Li 0.42111 0.81119 0.23152 0.0
C1128 C 0.41418 0.7714 0.27958 0.0
N1129 N 0.41822 0.76407 0.31197 0.0
C1130 C 0.39491 0.76184 0.28952 0.0
C1131 C 0.43546 0.77705 0.28608 0.0
C1132 C 0.39732 0.75831 0.30587 0.0
C1133 C 0.43717 0.77328 0.30249 0.0
C1134 C 0.38795 0.82024 0.24944 0.0
C1135 C 0.36233 0.82812 0.23409 0.0
N1136 N 0.35569 0.83387 0.248 0.0
C1137 C 0.38099 0.82637 0.26357 0.0
C1138 C 0.37867 0.82125 0.23456 0.0
C1139 C 0.36461 0.83315 0.26259 0.0
C1140 C 0.45949 0.84573 0.28153 0.0
N1141 N 0.43823 0.8271 0.2806 0.0
C1142 C 0.42885 0.83499 0.30673 0.0
C1143 C 0.423 0.82158 0.29282 0.0
C1144 C 0.45039 0.85483 0.30793 0.0
C1145 C 0.46596 0.85997 0.29515 0.0
H1146 H 0.47114 0.84994 0.27148 0.0
H1147 H 0.40601 0.80705 0.2916 0.0
C1148 C 0.35653 0.73692 0.25373 0.0
N1149 N 0.36095 0.75875 0.252 0.0
C1150 C 0.3343 0.71917 0.25625 0.0
C1151 C 0.32144 0.74668 0.25578 0.0
C1152 C 0.34393 0.7639 0.25295 0.0
C1153 C 0.31646 0.724 0.25737 0.0
H1154 H 0.37041 0.73333 0.25321 0.0
H1155 H 0.34762 0.78124 0.2516 0.0
C1156 C 0.4696 0.81861 0.23853 0.0
N1157 N 0.51036 0.82248 0.22856 0.0
C1158 C 0.47598 0.8227 0.22228 0.0
C1159 C 0.48405 0.81674 0.24975 0.0
C1160 C 0.49663 0.82454 0.21747 0.0
C1161 C 0.50455 0.81867 0.24446 0.0
C1162 C 0.3872 0.76014 0.22004 0.0
C1163 C 0.38519 0.73853 0.2201 0.0
C1164 C 0.37014 0.76305 0.2128 0.0
C1165 C 0.36603 0.72014 0.21302 0.0
C1166 C 0.35122 0.74423 0.20588 0.0
N1167 N 0.34957 0.72335 0.20614 0.0
C1168 C 0.44128 0.74794 0.24849 0.0
C1169 C 0.44763 0.76359 0.22211 0.0
C1170 C 0.4459 0.731 0.24324 0.0
N1171 N 0.44178 0.76346 0.23784 0.0
C1172 C 0.45237 0.74701 0.21635 0.0
C1173 C 0.45077 0.72996 0.22685 0.0
H1174 H 0.43593 0.74779 0.26081 0.0
H1175 H 0.44721 0.7757 0.2138 0.0
C1176 C 0.43813 0.85327 0.21492 0.0
N1177 N 0.4268 0.83018 0.2133 0.0
C1178 C 0.444 0.86717 0.20123 0.0
C1179 C 0.42599 0.83316 0.18459 0.0
C1180 C 0.42056 0.81998 0.19856 0.0
C1181 C 0.43818 0.85711 0.18577 0.0
H1182 H 0.44307 0.86087 0.22683 0.0
H1183 H 0.41177 0.80157 0.19764 0.0
O1184 O 0.41219 0.77515 0.26357 0.0
O1185 O 0.40414 0.81379 0.25016 0.0
O1186 O 0.44932 0.81643 0.24344 0.0
O1187 O 0.40562 0.77828 0.22719 0.0
H1188 H 0.37831 0.75741 0.2847 0.0
H1189 H 0.4505 0.78436 0.27853 0.0
H1190 H 0.38258 0.75103 0.31373 0.0
H1191 H 0.45355 0.77767 0.30769 0.0
H1192 H 0.35494 0.82891 0.22266 0.0
H1193 H 0.3881 0.82585 0.27517 0.0
H1194 H 0.38395 0.81674 0.2235 0.0
H1195 H 0.35901 0.83787 0.27343 0.0
H1196 H 0.4164 0.82996 0.31633 0.0
H1197 H 0.48264 0.8752 0.29541 0.0
H1198 H 0.33114 0.7019 0.25762 0.0
H1199 H 0.30804 0.75099 0.25654 0.0
H1200 H 0.46501 0.82421 0.21344 0.0
H1201 H 0.47948 0.81384 0.2624 0.0
H1202 H 0.50173 0.82756 0.20491 0.0
H1203 H 0.51586 0.81716 0.25299 0.0
H1204 H 0.3981 0.73586 0.22575 0.0
H1205 H 0.37139 0.77962 0.21265 0.0
H1206 H 0.3642 0.70331 0.21306 0.0
H1207 H 0.33783 0.74622 0.20033 0.0
H1208 H 0.44417 0.71799 0.25167 0.0
H1209 H 0.4562 0.7469 0.20365 0.0
H1210 H 0.4536 0.88555 0.20269 0.0
H1211 H 0.42086 0.82467 0.17296 0.0
C1212 C 0.18497 0.62724 0.26772 0.0
C1213 C 0.18353 0.60976 0.27764 0.0
C1214 C 0.20607 0.64681 0.26454 0.0
C1215 C 0.22621 0.6489 0.27143 0.0
C1216 C 0.22482 0.6315 0.28168 0.0
C1217 C 0.20352 0.61207 0.28457 0.0
C1218 C 0.2069 0.66491 0.25345 0.0
C1219 C 0.24591 0.63316 0.28929 0.0
C1220 C 0.28334 0.68556 0.25093 0.0
C1221 C 0.29287 0.70538 0.26045 0.0
C1222 C 0.2614 0.66729 0.25412 0.0
C1223 C 0.24889 0.66875 0.26734 0.0
C1224 C 0.25835 0.68885 0.27689 0.0
C1225 C 0.2802 0.70704 0.27324 0.0
C1226 C 0.25175 0.64631 0.24349 0.0
C1227 C 0.24565 0.6909 0.29121 0.0
H1228 H 0.16958 0.62535 0.26217 0.0
H1229 H 0.20251 0.59847 0.29207 0.0
H1230 H 0.21571 0.68183 0.25951 0.0
H1231 H 0.21687 0.66618 0.24246 0.0
H1232 H 0.1896 0.66121 0.24967 0.0
H1233 H 0.24177 0.61879 0.29769 0.0
H1234 H 0.25738 0.63314 0.27972 0.0
H1235 H 0.25552 0.64946 0.29606 0.0
H1236 H 0.2931 0.6844 0.24095 0.0
H1237 H 0.28768 0.72231 0.28067 0.0
H1238 H 0.23492 0.64245 0.23856 0.0
H1239 H 0.24895 0.63134 0.25075 0.0
H1240 H 0.26321 0.64835 0.23324 0.0
H1241 H 0.22864 0.68789 0.28736 0.0
H1242 H 0.2551 0.70793 0.29711 0.0
H1243 H 0.24275 0.67765 0.30028 0.0
C1244 C 0.60746 0.19996 0.47596 0.0
C1245 C 0.61841 0.19029 0.46736 0.0
C1246 C 0.60405 0.21695 0.46901 0.0
C1247 C 0.61194 0.22453 0.45312 0.0
C1248 C 0.62199 0.21402 0.4441 0.0
C1249 C 0.62527 0.19714 0.45138 0.0
C1250 C 0.59334 0.22777 0.47905 0.0
C1251 C 0.63054 0.22156 0.42711 0.0
C1252 C 0.59518 0.26384 0.43171 0.0
C1253 C 0.61461 0.28523 0.43441 0.0
C1254 C 0.59394 0.24381 0.43773 0.0
C1255 C 0.61247 0.24535 0.44677 0.0
C1256 C 0.63193 0.26697 0.44974 0.0
C1257 C 0.63277 0.2866 0.4435 0.0
C1258 C 0.57299 0.22102 0.43427 0.0
C1259 C 0.65196 0.26941 0.45949 0.0
H1260 H 0.60236 0.19486 0.48837 0.0
H1261 H 0.63401 0.18992 0.44477 0.0
H1262 H 0.60656 0.24542 0.48238 0.0
H1263 H 0.57998 0.22892 0.47202 0.0
H1264 H 0.5856 0.21809 0.49034 0.0
H1265 H 0.63522 0.20981 0.42104 0.0
H1266 H 0.61739 0.2226 0.41972 0.0
H1267 H 0.64584 0.23888 0.42745 0.0
H1268 H 0.58115 0.26276 0.42465 0.0
H1269 H 0.64764 0.30316 0.44586 0.0
H1270 H 0.56532 0.21201 0.44577 0.0
H1271 H 0.57784 0.2101 0.42726 0.0
H1272 H 0.55987 0.22278 0.42735 0.0
H1273 H 0.64617 0.26196 0.47169 0.0
H1274 H 0.66563 0.28751 0.46089 0.0
H1275 H 0.65935 0.25986 0.45354 0.0
C1276 C 0.42338 0.592 0.6429 0.0
C1277 C 0.44416 0.61182 0.63956 0.0
C1278 C 0.40315 0.58766 0.63509 0.0
C1279 C 0.40371 0.60372 0.62388 0.0
C1280 C 0.42482 0.62324 0.61992 0.0
C1281 C 0.44482 0.62698 0.62774 0.0
C1282 C 0.38104 0.56647 0.63943 0.0
C1283 C 0.42611 0.64086 0.60812 0.0
C1284 C 0.35305 0.59039 0.5967 0.0
C1285 C 0.3426 0.60052 0.60539 0.0
C1286 C 0.37262 0.59066 0.60276 0.0
C1287 C 0.38205 0.60157 0.61772 0.0
C1288 C 0.3713 0.61144 0.62665 0.0
C1289 C 0.35171 0.61074 0.6204 0.0
C1290 C 0.38344 0.57967 0.59304 0.0
C1291 C 0.38091 0.62341 0.64259 0.0
H1292 H 0.42284 0.58019 0.65197 0.0
H1293 H 0.4609 0.64224 0.62509 0.0
H1294 H 0.37026 0.57132 0.64661 0.0
H1295 H 0.37132 0.55767 0.62835 0.0
H1296 H 0.38392 0.55428 0.64664 0.0
H1297 H 0.44401 0.65402 0.60533 0.0
H1298 H 0.41729 0.63256 0.59666 0.0
H1299 H 0.41725 0.6495 0.61327 0.0
H1300 H 0.34597 0.58237 0.58514 0.0
H1301 H 0.34396 0.61896 0.62703 0.0
H1302 H 0.3857 0.56745 0.60065 0.0
H1303 H 0.40066 0.59291 0.58896 0.0
H1304 H 0.37311 0.57048 0.58224 0.0
H1305 H 0.38241 0.61166 0.65119 0.0
H1306 H 0.37016 0.6297 0.64821 0.0
H1307 H 0.39832 0.63817 0.64075 0.0
C1308 C 0.84392 0.4473 0.78431 0.0
C1309 C 0.8553 0.44706 0.79842 0.0
C1310 C 0.8274 0.42688 0.77705 0.0
C1311 C 0.82223 0.40574 0.78406 0.0
C1312 C 0.83471 0.40539 0.79771 0.0
C1313 C 0.85099 0.42608 0.80481 0.0
C1314 C 0.81441 0.42799 0.76255 0.0
C1315 C 0.8299 0.3832 0.80541 0.0
C1316 C 0.76082 0.35818 0.78021 0.0
C1317 C 0.76192 0.34514 0.76739 0.0
C1318 C 0.78036 0.37777 0.78576 0.0
C1319 C 0.80173 0.38436 0.77854 0.0
C1320 C 0.80319 0.3709 0.76597 0.0
C1321 C 0.78321 0.35145 0.76048 0.0
C1322 C 0.77803 0.39163 0.79921 0.0
C1323 C 0.82575 0.37726 0.75816 0.0
H1324 H 0.84725 0.46352 0.77937 0.0
H1325 H 0.85978 0.42584 0.81571 0.0
H1326 H 0.81366 0.41619 0.75292 0.0
H1327 H 0.79658 0.42248 0.76611 0.0
H1328 H 0.82221 0.44551 0.75747 0.0
H1329 H 0.84324 0.38572 0.81436 0.0
H1330 H 0.81321 0.37543 0.81171 0.0
H1331 H 0.82876 0.37087 0.79608 0.0
H1332 H 0.74456 0.3531 0.78592 0.0
H1333 H 0.7842 0.34152 0.75055 0.0
H1334 H 0.7839 0.40926 0.79496 0.0
H1335 H 0.789 0.39289 0.8096 0.0
H1336 H 0.76016 0.38412 0.80353 0.0
H1337 H 0.83241 0.39378 0.75176 0.0
H1338 H 0.82426 0.36415 0.74936 0.0
H1339 H 0.83852 0.37958 0.76752 0.0
C1340 C 0.42417 0.85415 0.93127 0.0
C1341 C 0.44272 0.87216 0.94811 0.0
C1342 C 0.42629 0.82917 0.92698 0.0
C1343 C 0.4417 0.82063 0.94048 0.0
C1344 C 0.45414 0.83551 0.9592 0.0
C1345 C 0.45299 0.86075 0.96456 0.0
C1346 C 0.4155 0.81562 0.91205 0.0
C1347 C 0.46505 0.82661 0.97048 0.0
C1348 C 0.4215 0.75767 0.9381 0.0
C1349 C 0.43919 0.75747 0.92941 0.0
C1350 C 0.42242 0.77826 0.94207 0.0
C1351 C 0.44137 0.7991 0.93712 0.0
C1352 C 0.45949 0.79912 0.92861 0.0
C1353 C 0.45826 0.77824 0.92491 0.0
C1354 C 0.40307 0.77769 0.95154 0.0
C1355 C 0.4799 0.82113 0.92315 0.0
H1356 H 0.41683 0.86061 0.92257 0.0
H1357 H 0.46172 0.87077 0.97515 0.0
H1358 H 0.42826 0.81316 0.90528 0.0
H1359 H 0.40136 0.79849 0.91546 0.0
H1360 H 0.4088 0.82439 0.90435 0.0
H1361 H 0.47149 0.83749 0.98145 0.0
H1362 H 0.4524 0.80882 0.97389 0.0
H1363 H 0.47931 0.82617 0.9642 0.0
H1364 H 0.40693 0.74165 0.94187 0.0
H1365 H 0.47192 0.77812 0.91814 0.0
H1366 H 0.39456 0.78497 0.94414 0.0
H1367 H 0.40985 0.78842 0.96257 0.0
H1368 H 0.39008 0.7601 0.95518 0.0
H1369 H 0.47424 0.83005 0.91468 0.0
H1370 H 0.49287 0.81829 0.91701 0.0
H1371 H 0.48799 0.83255 0.93371 0.0
C1372 C 0.5872 0.42782 0.08761 0.0
C1373 C 0.58309 0.43549 0.10846 0.0
C1374 C 0.61399 0.42878 0.0844 0.0
C1375 C 0.63249 0.43226 0.10126 0.0
C1376 C 0.62447 0.43333 0.12193 0.0
C1377 C 0.59804 0.43255 0.12642 0.0
C1378 C 0.62103 0.42688 0.06766 0.0
C1379 C 0.63958 0.43433 0.13542 0.0
C1380 C 0.67075 0.40724 0.09471 0.0
C1381 C 0.6921 0.42683 0.09227 0.0
C1382 C 0.65123 0.40888 0.09767 0.0
C1383 C 0.65306 0.43061 0.09825 0.0
C1384 C 0.6745 0.45048 0.09596 0.0
C1385 C 0.69384 0.44839 0.09299 0.0
C1386 C 0.62862 0.38733 0.10024 0.0
C1387 C 0.6769 0.47388 0.09652 0.0
H1388 H 0.57698 0.42784 0.07754 0.0
H1389 H 0.59372 0.43477 0.13862 0.0
H1390 H 0.6384 0.44145 0.06532 0.0
H1391 H 0.62189 0.41098 0.06658 0.0
H1392 H 0.60874 0.4267 0.05868 0.0
H1393 H 0.63243 0.43536 0.14725 0.0
H1394 H 0.64137 0.41891 0.135 0.0
H1395 H 0.65683 0.44941 0.13378 0.0
H1396 H 0.66932 0.39055 0.09451 0.0
H1397 H 0.71024 0.46359 0.09101 0.0
H1398 H 0.61617 0.38604 0.09095 0.0
H1399 H 0.62158 0.38794 0.11223 0.0
H1400 H 0.63011 0.37172 0.0996 0.0
H1401 H 0.66591 0.47514 0.08707 0.0
H1402 H 0.69481 0.48772 0.09461 0.0
H1403 H 0.67097 0.47654 0.10841 0.0
C1404 C 0.44837 0.84384 0.52121 0.0
C1405 C 0.44537 0.86961 0.51926 0.0
C1406 C 0.42394 0.81936 0.52978 0.0
C1407 C 0.39749 0.81937 0.53285 0.0
C1408 C 0.39373 0.84283 0.52647 0.0
C1409 C 0.41714 0.8681 0.51776 0.0
C1410 C 0.42562 0.79897 0.53445 0.0
C1411 C 0.37117 0.8414 0.52857 0.0
C1412 C 0.34526 0.76067 0.5353 0.0
C1413 C 0.34207 0.75764 0.55206 0.0
C1414 C 0.36303 0.78099 0.52887 0.0
C1415 C 0.37785 0.79868 0.53945 0.0
C1416 C 0.37439 0.79601 0.55634 0.0
C1417 C 0.35655 0.77547 0.56247 0.0
C1418 C 0.36636 0.78328 0.51079 0.0
C1419 C 0.38976 0.81466 0.56794 0.0
H1420 H 0.46483 0.84485 0.52064 0.0
H1421 H 0.41569 0.88298 0.51505 0.0
H1422 H 0.42168 0.79548 0.5475 0.0
H1423 H 0.41268 0.78386 0.52763 0.0
H1424 H 0.44296 0.80182 0.53192 0.0
H1425 H 0.37201 0.85748 0.52464 0.0
H1426 H 0.35809 0.82683 0.52139 0.0
H1427 H 0.36608 0.83801 0.54146 0.0
H1428 H 0.33433 0.74684 0.52719 0.0
H1429 H 0.35399 0.7733 0.57542 0.0
H1430 H 0.38318 0.78518 0.50767 0.0
H1431 H 0.36643 0.79888 0.50656 0.0
H1432 H 0.35282 0.76829 0.50416 0.0
H1433 H 0.40741 0.81764 0.56696 0.0
H1434 H 0.38408 0.81036 0.58069 0.0
H1435 H 0.3902 0.83081 0.56474 0.0
C1436 C 0.57623 0.41103 0.70956 0.0
C1437 C 0.59656 0.43218 0.71041 0.0
C1438 C 0.57634 0.3905 0.71167 0.0
C1439 C 0.59714 0.39116 0.71519 0.0
C1440 C 0.61768 0.41242 0.71613 0.0
C1441 C 0.61713 0.43266 0.71369 0.0
C1442 C 0.55414 0.36813 0.71043 0.0
C1443 C 0.64015 0.41384 0.72015 0.0
C1444 C 0.59659 0.34225 0.73793 0.0
C1445 C 0.60207 0.33143 0.72568 0.0
C1446 C 0.59439 0.36139 0.73461 0.0
C1447 C 0.5974 0.36972 0.71859 0.0
C1448 C 0.60185 0.35825 0.70602 0.0
C1449 C 0.60427 0.33932 0.70973 0.0
C1450 C 0.58971 0.3732 0.74835 0.0
C1451 C 0.60487 0.36648 0.68876 0.0
H1452 H 0.56017 0.41053 0.70742 0.0
H1453 H 0.63276 0.44899 0.71471 0.0
H1454 H 0.55587 0.35661 0.7017 0.0
H1455 H 0.54986 0.35945 0.72233 0.0
H1456 H 0.53973 0.37049 0.70653 0.0
H1457 H 0.65464 0.43169 0.72008 0.0
H1458 H 0.63917 0.40645 0.73229 0.0
H1459 H 0.64377 0.40368 0.71134 0.0
H1460 H 0.59442 0.33601 0.75023 0.0
H1461 H 0.60876 0.33126 0.7002 0.0
H1462 H 0.57446 0.37472 0.74561 0.0
H1463 H 0.60437 0.39078 0.74984 0.0
H1464 H 0.58686 0.364 0.76 0.0
H1465 H 0.5903 0.36864 0.68501 0.0
H1466 H 0.60624 0.35453 0.68021 0.0
H1467 H 0.62058 0.38342 0.68778 0.0
C1468 C 0.20177 0.60583 0.88496 0.0
C1469 C 0.18161 0.58527 0.88176 0.0
C1470 C 0.22254 0.60634 0.8874 0.0
C1471 C 0.2232 0.58576 0.88655 0.0
C1472 C 0.20298 0.56495 0.88314 0.0
C1473 C 0.18235 0.56489 0.88103 0.0
C1474 C 0.24368 0.62883 0.89127 0.0
C1475 C 0.20309 0.54272 0.88197 0.0
C1476 C 0.28214 0.59309 0.88066 0.0
C1477 C 0.28821 0.59113 0.89658 0.0
C1478 C 0.26065 0.59045 0.87711 0.0
C1479 C 0.24497 0.58606 0.88979 0.0
C1480 C 0.25067 0.5833 0.90578 0.0
C1481 C 0.27214 0.58571 0.90896 0.0
C1482 C 0.25507 0.59324 0.85987 0.0
C1483 C 0.23443 0.57869 0.91966 0.0
H1484 H 0.20115 0.62151 0.88587 0.0
H1485 H 0.16675 0.54884 0.87895 0.0
H1486 H 0.25035 0.62792 0.90335 0.0
H1487 H 0.25726 0.6324 0.88233 0.0
H1488 H 0.24032 0.64333 0.89127 0.0
H1489 H 0.18621 0.52826 0.87828 0.0
H1490 H 0.2161 0.54431 0.8731 0.0
H1491 H 0.20783 0.53863 0.89383 0.0
H1492 H 0.2945 0.59756 0.87103 0.0
H1493 H 0.27652 0.58375 0.92124 0.0
H1494 H 0.25387 0.60896 0.85885 0.0
H1495 H 0.23825 0.57864 0.8563 0.0
H1496 H 0.26818 0.59445 0.85122 0.0
H1497 H 0.23154 0.59336 0.92118 0.0
H1498 H 0.24101 0.57593 0.93125 0.0
H1499 H 0.21762 0.56343 0.91703 0.0
C1500 C 0.60172 0.20441 0.02987 0.0
C1501 C 0.6021 0.18955 0.0182 0.0
C1502 C 0.62188 0.22077 0.0375 0.0
C1503 C 0.64279 0.22178 0.03372 0.0
C1504 C 0.643 0.20575 0.0228 0.0
C1505 C 0.62268 0.18999 0.01502 0.0
C1506 C 0.62098 0.23775 0.04892 0.0
C1507 C 0.66483 0.20586 0.01882 0.0
C1508 C 0.69603 0.27999 0.03671 0.0
C1509 C 0.70453 0.27911 0.05198 0.0
C1510 C 0.67613 0.26131 0.03057 0.0
C1511 C 0.66463 0.24108 0.03984 0.0
C1512 C 0.67356 0.23978 0.05505 0.0
C1513 C 0.69331 0.25896 0.06105 0.0
C1514 C 0.66698 0.26352 0.01441 0.0
C1515 C 0.66205 0.21831 0.06508 0.0
H1516 H 0.58575 0.20379 0.03259 0.0
H1517 H 0.62299 0.1783 0.00618 0.0
H1518 H 0.62928 0.23815 0.06058 0.0
H1519 H 0.63056 0.25513 0.04365 0.0
H1520 H 0.6032 0.23375 0.05135 0.0
H1521 H 0.66162 0.19046 0.01186 0.0
H1522 H 0.67607 0.2212 0.01155 0.0
H1523 H 0.67424 0.20676 0.03006 0.0
H1524 H 0.70446 0.29569 0.0298 0.0
H1525 H 0.69993 0.25829 0.07286 0.0
H1526 H 0.64968 0.26128 0.01597 0.0
H1527 H 0.66534 0.24994 0.00605 0.0
H1528 H 0.6781 0.28036 0.00867 0.0
H1529 H 0.64509 0.21518 0.06912 0.0
H1530 H 0.67225 0.21939 0.07593 0.0
H1531 H 0.65913 0.20335 0.05772 0.0
C1532 C 0.42549 0.60633 0.20146 0.0
C1533 C 0.4395 0.60647 0.18893 0.0
C1534 C 0.42926 0.62677 0.2086 0.0
C1535 C 0.44766 0.64781 0.20321 0.0
C1536 C 0.46262 0.64795 0.19119 0.0
C1537 C 0.45825 0.62727 0.1841 0.0
C1538 C 0.41283 0.6259 0.2213 0.0
C1539 C 0.4826 0.67001 0.18527 0.0
C1540 C 0.43934 0.69909 0.20626 0.0
C1541 C 0.45153 0.70986 0.22038 0.0
C1542 C 0.43829 0.67912 0.20045 0.0
C1543 C 0.44979 0.66966 0.20893 0.0
C1544 C 0.46255 0.68067 0.22301 0.0
C1545 C 0.46316 0.70061 0.22863 0.0
C1546 C 0.42434 0.66782 0.18546 0.0
C1547 C 0.47523 0.6712 0.23224 0.0
H1548 H 0.41105 0.59024 0.20525 0.0
H1549 H 0.46918 0.62743 0.17447 0.0
H1550 H 0.42227 0.63586 0.23213 0.0
H1551 H 0.40307 0.63379 0.21648 0.0
H1552 H 0.40052 0.60814 0.22507 0.0
H1553 H 0.49412 0.66704 0.17734 0.0
H1554 H 0.47624 0.67975 0.17834 0.0
H1555 H 0.49264 0.68083 0.19564 0.0
H1556 H 0.42994 0.70589 0.2 0.0
H1557 H 0.47269 0.70895 0.2395 0.0
H1558 H 0.41028 0.65043 0.18845 0.0
H1559 H 0.43514 0.6659 0.17621 0.0
H1560 H 0.41684 0.67765 0.18009 0.0
H1561 H 0.46293 0.65413 0.23714 0.0
H1562 H 0.48536 0.68246 0.24243 0.0
H1563 H 0.48689 0.66891 0.22402 0.0
C1564 C 0.84021 0.43205 0.35061 0.0
C1565 C 0.85454 0.42857 0.36104 0.0
C1566 C 0.82317 0.43607 0.35666 0.0
C1567 C 0.82062 0.43697 0.37359 0.0
C1568 C 0.83587 0.43477 0.38418 0.0
C1569 C 0.85241 0.43022 0.3778 0.0
C1570 C 0.80699 0.43787 0.34496 0.0
C1571 C 0.83396 0.43604 0.4023 0.0
C1572 C 0.78115 0.45792 0.38885 0.0
C1573 C 0.7612 0.4372 0.39202 0.0
C1574 C 0.80087 0.45823 0.38311 0.0
C1575 C 0.80035 0.43732 0.38018 0.0
C1576 C 0.78015 0.41639 0.38328 0.0
C1577 C 0.7609 0.4166 0.38925 0.0
C1578 C 0.82223 0.48085 0.38018 0.0
C1579 C 0.77872 0.3937 0.38004 0.0
H1580 H 0.84169 0.43056 0.33767 0.0
H1581 H 0.86323 0.42733 0.38599 0.0
H1582 H 0.78972 0.42266 0.3462 0.0
H1583 H 0.80546 0.4531 0.34773 0.0
H1584 H 0.81255 0.43894 0.3322 0.0
H1585 H 0.84898 0.43729 0.40871 0.0
H1586 H 0.83222 0.451 0.40566 0.0
H1587 H 0.81842 0.42053 0.40659 0.0
H1588 H 0.78136 0.47384 0.39101 0.0
H1589 H 0.74535 0.40056 0.39143 0.0
H1590 H 0.82703 0.48241 0.36723 0.0
H1591 H 0.83665 0.4818 0.38725 0.0
H1592 H 0.82006 0.49556 0.38356 0.0
H1593 H 0.78245 0.39252 0.36713 0.0
H1594 H 0.76163 0.37899 0.38294 0.0
H1595 H 0.7917 0.39226 0.38735 0.0
C1596 C 0.12237 0.57958 0.43963 0.0
C1597 C 0.11664 0.55956 0.43097 0.0
C1598 C 0.1341 0.58427 0.45441 0.0
C1599 C 0.13986 0.56838 0.46079 0.0
C1600 C 0.1331 0.54763 0.4525 0.0
C1601 C 0.12169 0.54353 0.43764 0.0
C1602 C 0.14111 0.60663 0.46288 0.0
C1603 C 0.13861 0.5301 0.45905 0.0
C1604 C 0.19223 0.59217 0.4877 0.0
C1605 C 0.18253 0.58711 0.50318 0.0
C1606 C 0.17849 0.58587 0.47383 0.0
C1607 C 0.15444 0.57423 0.47546 0.0
C1608 C 0.14449 0.56862 0.49104 0.0
C1609 C 0.15869 0.57511 0.50474 0.0
C1610 C 0.18972 0.59201 0.45741 0.0
C1611 C 0.11891 0.55619 0.49323 0.0
H1612 H 0.1182 0.59184 0.43461 0.0
H1613 H 0.11708 0.52792 0.43107 0.0
H1614 H 0.13519 0.60354 0.47561 0.0
H1615 H 0.16001 0.61719 0.46313 0.0
H1616 H 0.13416 0.61653 0.45683 0.0
H1617 H 0.13038 0.51401 0.4519 0.0
H1618 H 0.15736 0.53714 0.45889 0.0
H1619 H 0.13298 0.52605 0.47181 0.0
H1620 H 0.21066 0.60117 0.48646 0.0
H1621 H 0.15114 0.57138 0.51669 0.0
H1622 H 0.18492 0.60341 0.45101 0.0
H1623 H 0.18364 0.57639 0.44992 0.0
H1624 H 0.20864 0.60073 0.45823 0.0
H1625 H 0.11194 0.56687 0.48861 0.0
H1626 H 0.11388 0.55206 0.5061 0.0
H1627 H 0.11086 0.5401 0.48611 0.0
C1628 C 0.57962 0.0768 0.62678 0.0
C1629 C 0.59559 0.0783 0.61534 0.0
C1630 C 0.58481 0.09482 0.63754 0.0
C1631 C 0.60659 0.11477 0.63692 0.0
C1632 C 0.62256 0.11667 0.62509 0.0
C1633 C 0.61694 0.09834 0.61452 0.0
C1634 C 0.56734 0.0921 0.65002 0.0
C1635 C 0.64592 0.1377 0.62403 0.0
C1636 C 0.6147 0.16749 0.65934 0.0
C1637 C 0.6245 0.16598 0.67393 0.0
C1638 C 0.60904 0.15112 0.64706 0.0
C1639 C 0.61324 0.13282 0.64945 0.0
C1640 C 0.62342 0.1314 0.66405 0.0
C1641 C 0.62897 0.14802 0.67607 0.0
C1642 C 0.59823 0.15319 0.63164 0.0
C1643 C 0.62819 0.11215 0.66706 0.0
H1644 H 0.56324 0.06122 0.62759 0.0
H1645 H 0.62946 0.09941 0.60587 0.0
H1646 H 0.57371 0.09151 0.66228 0.0
H1647 H 0.56463 0.10698 0.64971 0.0
H1648 H 0.55065 0.07629 0.64811 0.0
H1649 H 0.65559 0.13731 0.61329 0.0
H1650 H 0.6444 0.15327 0.62344 0.0
H1651 H 0.65591 0.1391 0.63505 0.0
H1652 H 0.61095 0.18117 0.65766 0.0
H1653 H 0.63689 0.14695 0.68719 0.0
H1654 H 0.58084 0.13818 0.63029 0.0
H1655 H 0.60832 0.1533 0.62104 0.0
H1656 H 0.59693 0.16893 0.6314 0.0
H1657 H 0.612 0.09554 0.66659 0.0
H1658 H 0.63645 0.11368 0.67898 0.0
H1659 H 0.63946 0.11183 0.65745 0.0
C1660 C 0.45171 0.5501 0.7644 0.0
C1661 C 0.479 0.56536 0.75308 0.0
C1662 C 0.45123 0.56351 0.78307 0.0
C1663 C 0.47405 0.59182 0.78814 0.0
C1664 C 0.49728 0.6085 0.77441 0.0
C1665 C 0.4993 0.59659 0.75537 0.0
C1666 C 0.43176 0.55116 0.79443 0.0
C1667 C 0.51502 0.63221 0.77889 0.0
C1668 C 0.45449 0.62114 0.8175 0.0
C1669 C 0.46135 0.6165 0.83236 0.0
C1670 C 0.45949 0.61407 0.80288 0.0
C1671 C 0.47184 0.60232 0.80312 0.0
C1672 C 0.47988 0.59862 0.81794 0.0
C1673 C 0.4745 0.60571 0.83243 0.0
C1674 C 0.45063 0.61825 0.78725 0.0
C1675 C 0.49334 0.58635 0.81854 0.0
H1676 H 0.43921 0.53247 0.76187 0.0
H1677 H 0.51399 0.60564 0.7476 0.0
H1678 H 0.43837 0.54957 0.80635 0.0
H1679 H 0.42312 0.56127 0.79625 0.0
H1680 H 0.41943 0.53398 0.78962 0.0
H1681 H 0.52873 0.63948 0.76966 0.0
H1682 H 0.50698 0.64298 0.77996 0.0
H1683 H 0.52227 0.63203 0.79089 0.0
H1684 H 0.44474 0.62989 0.81732 0.0
H1685 H 0.47977 0.60193 0.84385 0.0
H1686 H 0.43768 0.60166 0.78195 0.0
H1687 H 0.46472 0.62667 0.77838 0.0
H1688 H 0.44269 0.62905 0.789 0.0
H1689 H 0.48211 0.56822 0.81502 0.0
H1690 H 0.50037 0.5869 0.83079 0.0
H1691 H 0.50764 0.59409 0.80977 0.0
C1692 C 0.91727 0.50375 0.93761 0.0
C1693 C 0.93984 0.52124 0.94027 0.0
C1694 C 0.90288 0.49187 0.95057 0.0
C1695 C 0.91146 0.49718 0.96657 0.0
C1696 C 0.93443 0.5143 0.96932 0.0
C1697 C 0.9483 0.52627 0.95613 0.0
C1698 C 0.87841 0.47391 0.94716 0.0
C1699 C 0.94429 0.52007 0.98619 0.0
C1700 C 0.86928 0.48295 0.00087 0.0
C1701 C 0.86651 0.46212 0.00631 0.0
C1702 C 0.88381 0.49451 0.98789 0.0
C1703 C 0.89618 0.48518 0.98042 0.0
C1704 C 0.89365 0.46427 0.98603 0.0
C1705 C 0.87864 0.45285 0.99883 0.0
C1706 C 0.88574 0.51655 0.98205 0.0
C1707 C 0.90687 0.45402 0.97856 0.0
H1708 H 0.91078 0.49955 0.92535 0.0
H1709 H 0.9658 0.5396 0.95824 0.0
H1710 H 0.87485 0.45721 0.95209 0.0
H1711 H 0.8667 0.47855 0.9533 0.0
H1712 H 0.87441 0.47187 0.93402 0.0
H1713 H 0.96278 0.53302 0.98621 0.0
H1714 H 0.93511 0.52674 0.99345 0.0
H1715 H 0.94194 0.50445 0.99232 0.0
H1716 H 0.85973 0.48999 0.0066 0.0
H1717 H 0.87664 0.43683 0.00318 0.0
H1718 H 0.88075 0.51491 0.96912 0.0
H1719 H 0.90371 0.53062 0.98298 0.0
H1720 H 0.87479 0.52137 0.98908 0.0
H1721 H 0.90241 0.45034 0.96557 0.0
H1722 H 0.90341 0.43796 0.98462 0.0
H1723 H 0.92546 0.4664 0.97926 0.0
C1724 C 0.49325 0.93902 0.10901 0.0
C1725 C 0.47673 0.9333 0.09686 0.0
C1726 C 0.48736 0.92819 0.12413 0.0
C1727 C 0.46451 0.91094 0.12705 0.0
C1728 C 0.44774 0.90529 0.1149 0.0
C1729 C 0.45407 0.91649 0.09995 0.0
C1730 C 0.50571 0.93469 0.13679 0.0
C1731 C 0.42324 0.88684 0.11749 0.0
C1732 C 0.45357 0.86478 0.15756 0.0
C1733 C 0.44538 0.87135 0.17092 0.0
C1734 C 0.46002 0.87764 0.14329 0.0
C1735 C 0.45841 0.89768 0.14235 0.0
C1736 C 0.45052 0.90465 0.15585 0.0
C1737 C 0.44406 0.89138 0.16998 0.0
C1738 C 0.46837 0.86963 0.12916 0.0
C1739 C 0.44863 0.92596 0.15529 0.0
H1740 H 0.51087 0.95167 0.10656 0.0
H1741 H 0.44136 0.91175 0.09049 0.0
H1742 H 0.50031 0.9388 0.14838 0.0
H1743 H 0.50842 0.92005 0.13907 0.0
H1744 H 0.52223 0.94961 0.13309 0.0
H1745 H 0.41204 0.88543 0.10719 0.0
H1746 H 0.42237 0.87013 0.11907 0.0
H1747 H 0.41644 0.89029 0.12868 0.0
H1748 H 0.45509 0.8496 0.15829 0.0
H1749 H 0.43759 0.89646 0.1802 0.0
H1750 H 0.48579 0.88312 0.12567 0.0
H1751 H 0.4571 0.86638 0.11853 0.0
H1752 H 0.46878 0.85377 0.13191 0.0
H1753 H 0.46539 0.94091 0.15211 0.0
H1754 H 0.44291 0.92946 0.16699 0.0
H1755 H 0.43633 0.92422 0.14573 0.0
C1756 C 0.57417 0.478 0.2752 0.0
C1757 C 0.55576 0.46198 0.26585 0.0
C1758 C 0.57986 0.47173 0.2899 0.0
C1759 C 0.56672 0.44894 0.2954 0.0
C1760 C 0.54775 0.43286 0.28623 0.0
C1761 C 0.54259 0.43954 0.27151 0.0
C1762 C 0.60032 0.4893 0.2993 0.0
C1763 C 0.53323 0.40846 0.29177 0.0
C1764 C 0.59501 0.426 0.32335 0.0
C1765 C 0.58697 0.42804 0.33851 0.0
C1766 C 0.58859 0.43281 0.30924 0.0
C1767 C 0.57352 0.4416 0.31031 0.0
C1768 C 0.56507 0.44338 0.32557 0.0
C1769 C 0.57204 0.43673 0.33953 0.0
C1770 C 0.59819 0.43091 0.2932 0.0
C1771 C 0.54872 0.45237 0.32714 0.0
H1772 H 0.58439 0.49533 0.27082 0.0
H1773 H 0.5284 0.4271 0.26429 0.0
H1774 H 0.59532 0.49053 0.31187 0.0
H1775 H 0.61339 0.48398 0.30002 0.0
H1776 H 0.6082 0.50649 0.29369 0.0
H1777 H 0.51821 0.3985 0.28378 0.0
H1778 H 0.54361 0.39994 0.29197 0.0
H1779 H 0.5271 0.40803 0.30428 0.0
H1780 H 0.60681 0.41957 0.32259 0.0
H1781 H 0.56572 0.43817 0.35126 0.0
H1782 H 0.60786 0.44801 0.28753 0.0
H1783 H 0.5841 0.41987 0.28483 0.0
H1784 H 0.60972 0.42372 0.29447 0.0
H1785 H 0.5569 0.47018 0.32264 0.0
H1786 H 0.54325 0.45209 0.33983 0.0
H1787 H 0.53335 0.44202 0.31958 0.0
C1788 C 0.46797 0.91314 0.39429 0.0
C1789 C 0.47212 0.93562 0.39365 0.0
C1790 C 0.46672 0.9011 0.38015 0.0
C1791 C 0.46995 0.91188 0.36495 0.0
C1792 C 0.47511 0.9349 0.36423 0.0
C1793 C 0.47576 0.94639 0.37856 0.0
C1794 C 0.46072 0.87644 0.38144 0.0
C1795 C 0.47906 0.94711 0.34827 0.0
C1796 C 0.4781 0.88183 0.32875 0.0
C1797 C 0.45598 0.87033 0.32215 0.0
C1798 C 0.48314 0.89598 0.34243 0.0
C1799 C 0.46556 0.89832 0.34984 0.0
C1800 C 0.44332 0.88703 0.34313 0.0
C1801 C 0.43891 0.87348 0.32928 0.0
C1802 C 0.50717 0.90814 0.34907 0.0
C1803 C 0.42401 0.88889 0.35074 0.0
H1804 H 0.46485 0.90469 0.40591 0.0
H1805 H 0.47864 0.96363 0.37789 0.0
H1806 H 0.44372 0.8653 0.37589 0.0
H1807 H 0.47325 0.87359 0.3747 0.0
H1808 H 0.46025 0.87105 0.39418 0.0
H1809 H 0.48579 0.96571 0.34989 0.0
H1810 H 0.49127 0.94464 0.34078 0.0
H1811 H 0.46276 0.93982 0.34144 0.0
H1812 H 0.49141 0.87947 0.32344 0.0
H1813 H 0.42194 0.86531 0.32404 0.0
H1814 H 0.50741 0.90143 0.36126 0.0
H1815 H 0.5133 0.92665 0.35045 0.0
H1816 H 0.51926 0.906 0.34119 0.0
H1817 H 0.4215 0.88271 0.36341 0.0
H1818 H 0.40765 0.87885 0.34409 0.0
H1819 H 0.42829 0.907 0.35112 0.0
C1820 C 0.56307 0.48674 0.54093 0.0
C1821 C 0.5718 0.48587 0.55615 0.0
C1822 C 0.57107 0.4816 0.52679 0.0
C1823 C 0.58765 0.47472 0.52795 0.0
C1824 C 0.59658 0.47388 0.54326 0.0
C1825 C 0.5886 0.47954 0.55716 0.0
C1826 C 0.56135 0.48294 0.51065 0.0
C1827 C 0.61394 0.46619 0.54503 0.0
C1828 C 0.58898 0.4366 0.49479 0.0
C1829 C 0.60848 0.4518 0.48601 0.0
C1830 C 0.58206 0.44387 0.50844 0.0
C1831 C 0.59465 0.46703 0.51329 0.0
C1832 C 0.61405 0.4826 0.50434 0.0
C1833 C 0.62085 0.47477 0.49088 0.0
C1834 C 0.56137 0.42667 0.51776 0.0
C1835 C 0.62771 0.50749 0.50904 0.0
H1836 H 0.54973 0.49113 0.54007 0.0
H1837 H 0.59502 0.47841 0.56893 0.0
H1838 H 0.57535 0.49338 0.50208 0.0
H1839 H 0.55132 0.4656 0.50534 0.0
H1840 H 0.55007 0.49046 0.51168 0.0
H1841 H 0.61986 0.46738 0.55772 0.0
H1842 H 0.60638 0.44821 0.54091 0.0
H1843 H 0.62898 0.47668 0.53728 0.0
H1844 H 0.57897 0.41896 0.49094 0.0
H1845 H 0.63608 0.48662 0.48433 0.0
H1846 H 0.54824 0.43193 0.51794 0.0
H1847 H 0.56618 0.42602 0.5305 0.0
H1848 H 0.55364 0.40923 0.51251 0.0
H1849 H 0.61637 0.51496 0.50966 0.0
H1850 H 0.64173 0.51761 0.50039 0.0
H1851 H 0.6352 0.50917 0.52126 0.0
C1852 C 0.09255 0.56517 0.70217 0.0
C1853 C 0.09334 0.54825 0.7115 0.0
C1854 C 0.10908 0.57722 0.69034 0.0
C1855 C 0.12666 0.57203 0.68764 0.0
C1856 C 0.12767 0.55513 0.6971 0.0
C1857 C 0.11093 0.54337 0.70887 0.0
C1858 C 0.10742 0.59509 0.68045 0.0
C1859 C 0.14612 0.54907 0.69451 0.0
C1860 C 0.15427 0.58391 0.64626 0.0
C1861 C 0.1752 0.60384 0.64912 0.0
C1862 C 0.13825 0.57354 0.65866 0.0
C1863 C 0.14325 0.58337 0.67431 0.0
C1864 C 0.16419 0.60369 0.67724 0.0
C1865 C 0.17997 0.61366 0.66461 0.0
C1866 C 0.11616 0.5518 0.65508 0.0
C1867 C 0.17001 0.61474 0.69376 0.0
H1868 H 0.07876 0.56872 0.70399 0.0
H1869 H 0.11138 0.53009 0.7159 0.0
H1870 H 0.1238 0.61151 0.68097 0.0
H1871 H 0.10419 0.58969 0.66759 0.0
H1872 H 0.09352 0.59803 0.68471 0.0
H1873 H 0.14512 0.5363 0.70339 0.0
H1874 H 0.14464 0.54203 0.68216 0.0
H1875 H 0.16321 0.5646 0.69548 0.0
H1876 H 0.15067 0.57603 0.63438 0.0
H1877 H 0.19607 0.62916 0.66683 0.0
H1878 H 0.1014 0.55397 0.6582 0.0
H1879 H 0.11495 0.53771 0.66265 0.0
H1880 H 0.11467 0.54665 0.64217 0.0
H1881 H 0.15656 0.61847 0.69777 0.0
H1882 H 0.18671 0.63087 0.69393 0.0
H1883 H 0.17059 0.60282 0.7027 0.0
C1884 C 0.52664 0.07585 0.85892 0.0
C1885 C 0.51784 0.08059 0.87279 0.0
C1886 C 0.54052 0.0932 0.84809 0.0
C1887 C 0.54591 0.11593 0.85128 0.0
C1888 C 0.53769 0.121 0.86552 0.0
C1889 C 0.52345 0.10321 0.87599 0.0
C1890 C 0.54861 0.08704 0.83289 0.0
C1891 C 0.5434 0.1451 0.86946 0.0
C1892 C 0.59481 0.16243 0.82715 0.0
C1893 C 0.58307 0.16681 0.81492 0.0
C1894 C 0.58297 0.1464 0.83935 0.0
C1895 C 0.55881 0.13407 0.83913 0.0
C1896 C 0.54685 0.13851 0.82694 0.0
C1897 C 0.5591 0.155 0.81514 0.0
C1898 C 0.5963 0.14241 0.85234 0.0
C1899 C 0.52107 0.12552 0.82619 0.0
H1900 H 0.52202 0.05833 0.8563 0.0
H1901 H 0.5164 0.107 0.88652 0.0
H1902 H 0.54114 0.09072 0.82215 0.0
H1903 H 0.56744 0.09759 0.83185 0.0
H1904 H 0.54376 0.06874 0.83256 0.0
H1905 H 0.53762 0.14651 0.88176 0.0
H1906 H 0.56209 0.1569 0.86862 0.0
H1907 H 0.53511 0.15088 0.86054 0.0
H1908 H 0.6133 0.17117 0.82704 0.0
H1909 H 0.5498 0.15859 0.80603 0.0
H1910 H 0.59337 0.12479 0.85133 0.0
H1911 H 0.59029 0.14407 0.86448 0.0
H1912 H 0.61494 0.15459 0.85151 0.0
H1913 H 0.51478 0.10696 0.82498 0.0
H1914 H 0.51436 0.13095 0.81588 0.0
H1915 H 0.51391 0.12803 0.83755 0.0
C1916 C 0.51074 0.5498 0.03112 0.0
C1917 C 0.50352 0.55295 0.0523 0.0
C1918 C 0.49564 0.55616 0.01598 0.0
C1919 C 0.47879 0.56902 0.02154 0.0
C1920 C 0.47754 0.5775 0.04205 0.0
C1921 C 0.49204 0.57191 0.05809 0.0
C1922 C 0.49731 0.55103 0.99867 0.0
C1923 C 0.46457 0.58942 0.04573 0.0
C1924 C 0.47347 0.60543 0.9893 0.0
C1925 C 0.45121 0.59115 0.98354 0.0
C1926 C 0.48256 0.59834 0.00174 0.0
C1927 C 0.4691 0.57646 0.00858 0.0
C1928 C 0.44667 0.56191 0.00288 0.0
C1929 C 0.43794 0.5694 0.99037 0.0
C1930 C 0.50666 0.61421 0.00748 0.0
C1931 C 0.43197 0.53851 0.01004 0.0
H1932 H 0.51927 0.54034 0.02816 0.0
H1933 H 0.49003 0.57531 0.07058 0.0
H1934 H 0.47989 0.5401 0.99369 0.0
H1935 H 0.50542 0.56719 0.9917 0.0
H1936 H 0.50747 0.54235 0.99741 0.0
H1937 H 0.4641 0.5919 0.05896 0.0
H1938 H 0.47281 0.60622 0.03957 0.0
H1939 H 0.44697 0.57926 0.04086 0.0
H1940 H 0.48397 0.62207 0.98389 0.0
H1941 H 0.42068 0.55836 0.98605 0.0
H1942 H 0.51717 0.60596 0.00579 0.0
H1943 H 0.50664 0.61769 0.0206 0.0
H1944 H 0.51487 0.63074 0.00092 0.0
H1945 H 0.44046 0.5282 0.00844 0.0
H1946 H 0.41476 0.52928 0.00437 0.0
H1947 H 0.43 0.54006 0.02323 0.0
C1948 C 0.91513 0.42892 0.22022 0.0
C1949 C 0.9379 0.43449 0.21796 0.0
C1950 C 0.90092 0.426 0.20701 0.0
C1951 C 0.90984 0.42929 0.19116 0.0
C1952 C 0.93296 0.43547 0.18879 0.0
C1953 C 0.94669 0.43784 0.20223 0.0
C1954 C 0.87628 0.41916 0.21002 0.0
C1955 C 0.94317 0.43956 0.17206 0.0
C1956 C 0.86805 0.40089 0.15659 0.0
C1957 C 0.86513 0.41881 0.151 0.0
C1958 C 0.88262 0.4041 0.16964 0.0
C1959 C 0.8948 0.42585 0.17708 0.0
C1960 C 0.89213 0.4441 0.17133 0.0
C1961 C 0.87713 0.44029 0.15843 0.0
C1962 C 0.88475 0.38415 0.1756 0.0
C1963 C 0.90513 0.46762 0.1788 0.0
H1964 H 0.90839 0.42672 0.23238 0.0
H1965 H 0.96434 0.4424 0.20044 0.0
H1966 H 0.87268 0.43225 0.20503 0.0
H1967 H 0.86485 0.40284 0.20371 0.0
H1968 H 0.87196 0.41702 0.22309 0.0
H1969 H 0.96165 0.44508 0.17232 0.0
H1970 H 0.93412 0.42371 0.16474 0.0
H1971 H 0.94096 0.45284 0.16582 0.0
H1972 H 0.85861 0.38423 0.1509 0.0
H1973 H 0.87505 0.4542 0.15396 0.0
H1974 H 0.87947 0.38069 0.18846 0.0
H1975 H 0.90281 0.3883 0.17499 0.0
H1976 H 0.87413 0.36836 0.16846 0.0
H1977 H 0.90041 0.46687 0.19171 0.0
H1978 H 0.9017 0.48013 0.17255 0.0
H1979 H 0.92374 0.47391 0.17836 0.0
loop_
_geom_bond_atom_site_label_1
_geom_bond_atom_site_label_2
_geom_bond_distance
_geom_bond_site_symmetry_2
_ccdc_geom_bond_type
C0 C1 1.560 . S
C0 H61 0.959 . S
C0 H62 0.959 . S
C0 H63 0.960 . S
C1 C0 1.560 . S
C1 O56 1.426 . S
C1 H60 0.980 . S
C2 C3 1.407 . S
C2 C7 1.418 . S
C2 O56 1.334 . S
C3 C2 1.407 . S
C3 C4 1.360 . S
C3 H64 0.929 . S
C4 C3 1.360 . S
C4 C5 1.401 . S
C4 C8 1.527 . S
C5 C4 1.401 . S
C5 C6 1.405 . S
C5 C38 1.587 . S
C6 C5 1.405 . S
C6 C7 1.332 . S
C6 C9 1.496 . S
C7 C2 1.418 . S
C7 C6 1.332 . S
C7 H65 0.929 . S
C8 C4 1.527 . S
C8 H66 0.959 . S
C8 H67 0.961 . S
C8 H68 0.961 . S
C9 C6 1.496 . S
C9 H69 0.960 . S
C9 H70 0.960 . S
C9 H71 0.961 . S
C10 C11 1.517 . S
C10 H73 0.961 . S
C10 H74 0.960 . S
C10 H75 0.959 . S
C11 C10 1.517 . S
C11 O59 1.468 . S
C11 H72 0.980 . S
C12 C13 1.349 . S
C12 C17 1.367 . S
C12 O59 1.408 . S
C13 C12 1.349 . S
C13 C14 1.407 1_655 S
C13 H76 0.930 . S
C14 C13 1.407 1_455 S
C14 C15 1.449 . S
C14 C18 1.535 . S
C15 C14 1.449 . S
C15 C16 1.384 . S
C15 C40 1.553 . S
C16 C15 1.384 . S
C16 C17 1.364 1_455 S
C16 C19 1.450 . S
C17 C12 1.367 . S
C17 C16 1.364 1_655 S
C17 H77 0.931 . S
C18 C14 1.535 . S
C18 H78 0.959 . S
C18 H79 0.961 . S
C18 H80 0.959 1_455 S
C19 C16 1.450 . S
C19 H81 0.960 . S
C19 H82 0.960 . S
C19 H83 0.960 . S
C20 C21 1.309 . S
C20 C25 1.304 . S
C20 O58 1.435 . S
C21 C20 1.309 . S
C21 C22 1.476 . S
C21 H85 0.930 . S
C22 C21 1.476 . S
C22 C23 1.400 . S
C22 C26 1.567 . S
C23 C22 1.400 . S
C23 C24 1.373 . S
C23 C45 1.432 . S
C24 C23 1.373 . S
C24 C25 1.339 . S
C24 C27 1.530 . S
C25 C20 1.304 . S
C25 C24 1.339 . S
C25 H86 0.930 . S
C26 C22 1.567 . S
C26 H87 0.961 . S
C26 H88 0.960 . S
C26 H89 0.958 . S
C27 C24 1.530 . S
C27 H90 0.961 . S
C27 H91 0.960 . S
C27 H92 0.960 . S
C28 C29 1.530 . S
C28 H94 0.961 . S
C28 H95 0.961 . S
C28 H96 0.959 . S
C29 C28 1.530 . S
C29 O57 1.412 . S
C29 H93 0.980 . S
C30 C31 1.288 . S
C30 C35 1.377 . S
C30 O57 1.393 . S
C31 C30 1.288 . S
C31 C32 1.369 . S
C31 H97 0.932 . S
C32 C31 1.369 . S
C32 C33 1.398 . S
C32 C36 1.527 . S
C33 C32 1.398 . S
C33 C34 1.380 . S
C33 C47 1.497 . S
C34 C33 1.380 . S
C34 C35 1.383 . S
C34 C37 1.603 . S
C35 C30 1.377 . S
C35 C34 1.383 . S
C35 H98 0.929 . S
C36 C32 1.527 . S
C36 H99 0.961 . S
C36 H100 0.959 . S
C36 H101 0.959 . S
C37 C34 1.603 . S
C37 H102 0.960 . S
C37 H103 0.962 . S
C37 H104 0.961 . S
C38 C5 1.587 . S
C38 C39 1.360 . S
C38 C51 1.412 . S
C39 C38 1.360 . S
C39 C40 1.365 . S
C39 H105 0.929 . S
C40 C15 1.553 . S
C40 C39 1.365 . S
C40 C41 1.404 . S
C41 C40 1.404 . S
C41 C42 1.395 1_455 S
C41 C52 1.451 . S
C42 C41 1.395 1_655 S
C42 C43 1.322 . S
C42 H106 0.930 . S
C43 C42 1.322 . S
C43 C44 1.459 . S
C43 H107 0.929 . S
C44 C43 1.459 . S
C44 C45 1.445 . S
C44 C53 1.395 1_655 S
C45 C23 1.432 . S
C45 C44 1.445 . S
C45 C46 1.370 1_655 S
C46 C45 1.370 1_455 S
C46 C47 1.438 . S
C46 H108 0.930 1_455 S
C47 C33 1.497 . S
C47 C46 1.438 . S
C47 C48 1.360 . S
C48 C47 1.360 . S
C48 C49 1.401 . S
C48 C53 1.446 . S
C49 C48 1.401 . S
C49 C50 1.347 . S
C49 H109 0.929 . S
C50 C49 1.347 . S
C50 C51 1.455 . S
C50 H110 0.930 . S
C51 C38 1.412 . S
C51 C50 1.455 . S
C51 C52 1.331 . S
C52 C41 1.451 . S
C52 C51 1.331 . S
C52 C53 1.497 . S
C53 C44 1.395 1_455 S
C53 C48 1.446 . S
C53 C52 1.497 . S
C54 C55 1.582 . S
C54 H111 0.962 . S
C54 H112 0.959 . S
C54 H113 0.958 . S
C55 C54 1.582 . S
C55 O58 1.458 . S
C55 H84 0.980 . S
O56 C1 1.426 . S
O56 C2 1.334 . S
O57 C29 1.412 . S
O57 C30 1.393 . S
O58 C20 1.435 . S
O58 C55 1.458 . S
O59 C11 1.468 . S
O59 C12 1.408 . S
H60 C1 0.980 . S
H61 C0 0.959 . S
H62 C0 0.959 . S
H63 C0 0.960 . S
H64 C3 0.929 . S
H65 C7 0.929 . S
H66 C8 0.959 . S
H67 C8 0.961 . S
H68 C8 0.961 . S
H69 C9 0.960 . S
H70 C9 0.960 . S
H71 C9 0.961 . S
H72 C11 0.980 . S
H73 C10 0.961 . S
H74 C10 0.960 . S
H75 C10 0.959 . S
H76 C13 0.930 . S
H77 C17 0.931 . S
H78 C18 0.959 . S
H79 C18 0.961 . S
H80 C18 0.959 1_655 S
H81 C19 0.960 . S
H82 C19 0.960 . S
H83 C19 0.960 . S
H84 C55 0.980 . S
H85 C21 0.930 . S
H86 C25 0.930 . S
H87 C26 0.961 . S
H88 C26 0.960 . S
H89 C26 0.958 . S
H90 C27 0.961 . S
H91 C27 0.960 . S
H92 C27 0.960 . S
H93 C29 0.980 . S
H94 C28 0.961 . S
H95 C28 0.961 . S
H96 C28 0.959 . S
H97 C31 0.932 . S
H98 C35 0.929 . S
H99 C36 0.961 . S
H100 C36 0.959 . S
H101 C36 0.959 . S
H102 C37 0.960 . S
H103 C37 0.962 . S
H104 C37 0.961 . S
H105 C39 0.929 . S
H106 C42 0.930 . S
H107 C43 0.929 . S
H108 C46 0.930 1_655 S
H109 C49 0.929 . S
H110 C50 0.930 . S
H111 C54 0.962 . S
H112 C54 0.959 . S
H113 C54 0.958 . S
C114 C115 1.560 . S
C114 H175 0.959 . S
C114 H176 0.959 . S
C114 H177 0.960 . S
C115 C114 1.560 . S
C115 O170 1.426 . S
C115 H174 0.980 . S
C116 C117 1.407 . S
C116 C121 1.418 . S
C116 O170 1.334 . S
C117 C116 1.407 . S
C117 C118 1.360 . S
C117 H178 0.929 . S
C118 C117 1.360 . S
C118 C119 1.401 . S
C118 C122 1.527 . S
C119 C118 1.401 . S
C119 C120 1.405 . S
C119 C152 1.587 . S
C120 C119 1.405 . S
C120 C121 1.332 . S
C120 C123 1.496 . S
C121 C116 1.418 . S
C121 C120 1.332 . S
C121 H179 0.929 . S
C122 C118 1.527 . S
C122 H180 0.959 . S
C122 H181 0.961 . S
C122 H182 0.961 . S
C123 C120 1.496 . S
C123 H183 0.960 . S
C123 H184 0.960 . S
C123 H185 0.961 . S
C124 C125 1.517 . S
C124 H187 0.961 . S
C124 H188 0.960 . S
C124 H189 0.959 . S
C125 C124 1.517 . S
C125 O173 1.468 . S
C125 H186 0.980 . S
C126 C127 1.349 . S
C126 C131 1.367 . S
C126 O173 1.408 . S
C127 C126 1.349 . S
C127 C128 1.407 . S
C127 H190 0.930 . S
C128 C127 1.407 . S
C128 C129 1.449 . S
C128 C132 1.535 . S
C129 C128 1.449 . S
C129 C130 1.384 . S
C129 C154 1.553 . S
C130 C129 1.384 . S
C130 C131 1.364 . S
C130 C133 1.450 . S
C131 C126 1.367 . S
C131 C130 1.364 . S
C131 H191 0.931 . S
C132 C128 1.535 . S
C132 H192 0.959 . S
C132 H193 0.961 . S
C132 H194 0.959 . S
C133 C130 1.450 . S
C133 H195 0.960 . S
C133 H196 0.960 . S
C133 H197 0.960 . S
C134 C135 1.309 . S
C134 C139 1.304 . S
C134 O172 1.435 . S
C135 C134 1.309 . S
C135 C136 1.476 . S
C135 H199 0.930 . S
C136 C135 1.476 . S
C136 C137 1.400 . S
C136 C140 1.567 . S
C137 C136 1.400 . S
C137 C138 1.373 . S
C137 C159 1.432 . S
C138 C137 1.373 . S
C138 C139 1.339 . S
C138 C141 1.530 . S
C139 C134 1.304 . S
C139 C138 1.339 . S
C139 H200 0.930 . S
C140 C136 1.567 . S
C140 H201 0.961 . S
C140 H202 0.960 . S
C140 H203 0.958 . S
C141 C138 1.530 . S
C141 H204 0.961 . S
C141 H205 0.960 . S
C141 H206 0.960 . S
C142 C143 1.530 . S
C142 H208 0.961 . S
C142 H209 0.961 . S
C142 H210 0.959 . S
C143 C142 1.530 . S
C143 O171 1.412 . S
C143 H207 0.980 . S
C144 C145 1.288 . S
C144 C149 1.377 . S
C144 O171 1.393 . S
C145 C144 1.288 . S
C145 C146 1.369 1_565 S
C145 H211 0.932 . S
C146 C145 1.369 1_545 S
C146 C147 1.398 . S
C146 C150 1.527 . S
C147 C146 1.398 . S
C147 C148 1.380 1_545 S
C147 C161 1.497 . S
C148 C147 1.380 1_565 S
C148 C149 1.383 . S
C148 C151 1.603 . S
C149 C144 1.377 . S
C149 C148 1.383 . S
C149 H212 0.929 . S
C150 C146 1.527 . S
C150 H213 0.961 . S
C150 H214 0.959 . S
C150 H215 0.959 . S
C151 C148 1.603 . S
C151 H216 0.960 . S
C151 H217 0.962 1_565 S
C151 H218 0.961 . S
C152 C119 1.587 . S
C152 C153 1.360 . S
C152 C165 1.412 . S
C153 C152 1.360 . S
C153 C154 1.365 1_565 S
C153 H219 0.929 . S
C154 C129 1.553 . S
C154 C153 1.365 1_545 S
C154 C155 1.404 . S
C155 C154 1.404 . S
C155 C156 1.395 . S
C155 C166 1.451 . S
C156 C155 1.395 . S
C156 C157 1.322 . S
C156 H220 0.930 . S
C157 C156 1.322 . S
C157 C158 1.459 . S
C157 H221 0.929 . S
C158 C157 1.459 . S
C158 C159 1.445 . S
C158 C167 1.395 . S
C159 C137 1.432 . S
C159 C158 1.445 . S
C159 C160 1.370 . S
C160 C159 1.370 . S
C160 C161 1.438 . S
C160 H222 0.930 . S
C161 C147 1.497 . S
C161 C160 1.438 . S
C161 C162 1.360 . S
C162 C161 1.360 . S
C162 C163 1.401 1_545 S
C162 C167 1.446 . S
C163 C162 1.401 1_565 S
C163 C164 1.347 . S
C163 H223 0.929 . S
C164 C163 1.347 . S
C164 C165 1.455 . S
C164 H224 0.930 . S
C165 C152 1.412 . S
C165 C164 1.455 . S
C165 C166 1.331 1_565 S
C166 C155 1.451 . S
C166 C165 1.331 1_545 S
C166 C167 1.497 . S
C167 C158 1.395 . S
C167 C162 1.446 . S
C167 C166 1.497 . S
C168 C169 1.582 . S
C168 H225 0.962 . S
C168 H226 0.959 . S
C168 H227 0.958 . S
C169 C168 1.582 . S
C169 O172 1.458 . S
C169 H198 0.980 . S
O170 C115 1.426 . S
O170 C116 1.334 . S
O171 C143 1.412 . S
O171 C144 1.393 . S
O172 C134 1.435 . S
O172 C169 1.458 . S
O173 C125 1.468 . S
O173 C126 1.408 . S
H174 C115 0.980 . S
H175 C114 0.959 . S
H176 C114 0.959 . S
H177 C114 0.960 . S
H178 C117 0.929 . S
H179 C121 0.929 . S
H180 C122 0.959 . S
H181 C122 0.961 . S
H182 C122 0.961 . S
H183 C123 0.960 . S
H184 C123 0.960 . S
H185 C123 0.961 . S
H186 C125 0.980 . S
H187 C124 0.961 . S
H188 C124 0.960 . S
H189 C124 0.959 . S
H190 C127 0.930 . S
H191 C131 0.931 . S
H192 C132 0.959 . S
H193 C132 0.961 . S
H194 C132 0.959 . S
H195 C133 0.960 . S
H196 C133 0.960 . S
H197 C133 0.960 . S
H198 C169 0.980 . S
H199 C135 0.930 . S
H200 C139 0.930 . S
H201 C140 0.961 . S
H202 C140 0.960 . S
H203 C140 0.958 . S
H204 C141 0.961 . S
H205 C141 0.960 . S
H206 C141 0.960 . S
H207 C143 0.980 . S
H208 C142 0.961 . S
H209 C142 0.961 . S
H210 C142 0.959 . S
H211 C145 0.932 . S
H212 C149 0.929 . S
H213 C150 0.961 . S
H214 C150 0.959 . S
H215 C150 0.959 . S
H216 C151 0.960 . S
H217 C151 0.962 1_545 S
H218 C151 0.961 . S
H219 C153 0.929 . S
H220 C156 0.930 . S
H221 C157 0.929 . S
H222 C160 0.930 . S
H223 C163 0.929 . S
H224 C164 0.930 . S
H225 C168 0.962 . S
H226 C168 0.959 . S
H227 C168 0.958 . S
C228 C229 1.560 . S
C228 H289 0.959 . S
C228 H290 0.959 . S
C228 H291 0.960 . S
C229 C228 1.560 . S
C229 O284 1.426 . S
C229 H288 0.980 . S
C230 C231 1.407 . S
C230 C235 1.418 . S
C230 O284 1.334 . S
C231 C230 1.407 . S
C231 C232 1.360 . S
C231 H292 0.929 . S
C232 C231 1.360 . S
C232 C233 1.401 . S
C232 C236 1.527 . S
C233 C232 1.401 . S
C233 C234 1.405 . S
C233 C266 1.587 . S
C234 C233 1.405 . S
C234 C235 1.332 . S
C234 C237 1.496 . S
C235 C230 1.418 . S
C235 C234 1.332 . S
C235 H293 0.929 . S
C236 C232 1.527 . S
C236 H294 0.959 . S
C236 H295 0.961 . S
C236 H296 0.961 . S
C237 C234 1.496 . S
C237 H297 0.960 . S
C237 H298 0.960 . S
C237 H299 0.961 . S
C238 C239 1.517 . S
C238 H301 0.961 . S
C238 H302 0.960 . S
C238 H303 0.959 . S
C239 C238 1.517 . S
C239 O287 1.468 . S
C239 H300 0.980 . S
C240 C241 1.349 . S
C240 C245 1.367 . S
C240 O287 1.408 . S
C241 C240 1.349 . S
C241 C242 1.407 . S
C241 H304 0.930 . S
C242 C241 1.407 . S
C242 C243 1.449 . S
C242 C246 1.535 . S
C243 C242 1.449 . S
C243 C244 1.384 . S
C243 C268 1.553 . S
C244 C243 1.384 . S
C244 C245 1.364 . S
C244 C247 1.450 . S
C245 C240 1.367 . S
C245 C244 1.364 . S
C245 H305 0.931 . S
C246 C242 1.535 . S
C246 H306 0.959 . S
C246 H307 0.961 . S
C246 H308 0.959 . S
C247 C244 1.450 . S
C247 H309 0.960 . S
C247 H310 0.960 . S
C247 H311 0.960 . S
C248 C249 1.309 . S
C248 C253 1.304 . S
C248 O286 1.435 . S
C249 C248 1.309 . S
C249 C250 1.476 . S
C249 H313 0.930 . S
C250 C249 1.476 . S
C250 C251 1.400 . S
C250 C254 1.567 . S
C251 C250 1.400 . S
C251 C252 1.373 . S
C251 C273 1.432 . S
C252 C251 1.373 . S
C252 C253 1.339 . S
C252 C255 1.530 . S
C253 C248 1.304 . S
C253 C252 1.339 . S
C253 H314 0.930 . S
C254 C250 1.567 . S
C254 H315 0.961 . S
C254 H316 0.960 . S
C254 H317 0.958 . S
C255 C252 1.530 . S
C255 H318 0.961 . S
C255 H319 0.960 . S
C255 H320 0.960 . S
C256 C257 1.530 . S
C256 H322 0.961 . S
C256 H323 0.961 . S
C256 H324 0.959 . S
C257 C256 1.530 . S
C257 O285 1.412 . S
C257 H321 0.980 . S
C258 C259 1.288 . S
C258 C263 1.377 . S
C258 O285 1.393 . S
C259 C258 1.288 . S
C259 C260 1.369 . S
C259 H325 0.932 . S
C260 C259 1.369 . S
C260 C261 1.398 . S
C260 C264 1.527 . S
C261 C260 1.398 . S
C261 C262 1.380 . S
C261 C275 1.497 . S
C262 C261 1.380 . S
C262 C263 1.383 . S
C262 C265 1.603 . S
C263 C258 1.377 . S
C263 C262 1.383 . S
C263 H326 0.929 . S
C264 C260 1.527 . S
C264 H327 0.961 . S
C264 H328 0.959 . S
C264 H329 0.959 . S
C265 C262 1.603 . S
C265 H330 0.960 . S
C265 H331 0.962 . S
C265 H332 0.961 . S
C266 C233 1.587 . S
C266 C267 1.360 . S
C266 C279 1.412 . S
C267 C266 1.360 . S
C267 C268 1.365 . S
C267 H333 0.929 . S
C268 C243 1.553 . S
C268 C267 1.365 . S
C268 C269 1.404 . S
C269 C268 1.404 . S
C269 C270 1.395 . S
C269 C280 1.451 . S
C270 C269 1.395 . S
C270 C271 1.322 . S
C270 H334 0.930 . S
C271 C270 1.322 . S
C271 C272 1.459 . S
C271 H335 0.929 . S
C272 C271 1.459 . S
C272 C273 1.445 . S
C272 C281 1.395 . S
C273 C251 1.432 . S
C273 C272 1.445 . S
C273 C274 1.370 . S
C274 C273 1.370 . S
C274 C275 1.438 . S
C274 H336 0.930 . S
C275 C261 1.497 . S
C275 C274 1.438 . S
C275 C276 1.360 . S
C276 C275 1.360 . S
C276 C277 1.401 . S
C276 C281 1.446 . S
C277 C276 1.401 . S
C277 C278 1.347 . S
C277 H337 0.929 . S
C278 C277 1.347 . S
C278 C279 1.455 . S
C278 H338 0.930 . S
C279 C266 1.412 . S
C279 C278 1.455 . S
C279 C280 1.331 . S
C280 C269 1.451 . S
C280 C279 1.331 . S
C280 C281 1.497 . S
C281 C272 1.395 . S
C281 C276 1.446 . S
C281 C280 1.497 . S
C282 C283 1.582 . S
C282 H339 0.962 . S
C282 H340 0.959 . S
C282 H341 0.958 . S
C283 C282 1.582 . S
C283 O286 1.458 . S
C283 H312 0.980 . S
O284 C229 1.426 . S
O284 C230 1.334 . S
O285 C257 1.412 . S
O285 C258 1.393 . S
O286 C248 1.435 . S
O286 C283 1.458 . S
O287 C239 1.468 . S
O287 C240 1.408 . S
H288 C229 0.980 . S
H289 C228 0.959 . S
H290 C228 0.959 . S
H291 C228 0.960 . S
H292 C231 0.929 . S
H293 C235 0.929 . S
H294 C236 0.959 . S
H295 C236 0.961 . S
H296 C236 0.961 . S
H297 C237 0.960 . S
H298 C237 0.960 . S
H299 C237 0.961 . S
H300 C239 0.980 . S
H301 C238 0.961 . S
H302 C238 0.960 . S
H303 C238 0.959 . S
H304 C241 0.930 . S
H305 C245 0.931 . S
H306 C246 0.959 . S
H307 C246 0.961 . S
H308 C246 0.959 . S
H309 C247 0.960 . S
H310 C247 0.960 . S
H311 C247 0.960 . S
H312 C283 0.980 . S
H313 C249 0.930 . S
H314 C253 0.930 . S
H315 C254 0.961 . S
H316 C254 0.960 . S
H317 C254 0.958 . S
H318 C255 0.961 . S
H319 C255 0.960 . S
H320 C255 0.960 . S
H321 C257 0.980 . S
H322 C256 0.961 . S
H323 C256 0.961 . S
H324 C256 0.959 . S
H325 C259 0.932 . S
H326 C263 0.929 . S
H327 C264 0.961 . S
H328 C264 0.959 . S
H329 C264 0.959 . S
H330 C265 0.960 . S
H331 C265 0.962 . S
H332 C265 0.961 . S
H333 C267 0.929 . S
H334 C270 0.930 . S
H335 C271 0.929 . S
H336 C274 0.930 . S
H337 C277 0.929 . S
H338 C278 0.930 . S
H339 C282 0.962 . S
H340 C282 0.959 . S
H341 C282 0.958 . S
C342 C343 1.560 . S
C342 H403 0.959 . S
C342 H404 0.959 . S
C342 H405 0.960 . S
C343 C342 1.560 . S
C343 O398 1.426 . S
C343 H402 0.980 . S
C344 C345 1.407 . S
C344 C349 1.418 . S
C344 O398 1.334 . S
C345 C344 1.407 . S
C345 C346 1.360 . S
C345 H406 0.929 . S
C346 C345 1.360 . S
C346 C347 1.401 . S
C346 C350 1.527 . S
C347 C346 1.401 . S
C347 C348 1.405 . S
C347 C380 1.587 . S
C348 C347 1.405 . S
C348 C349 1.332 . S
C348 C351 1.496 . S
C349 C344 1.418 . S
C349 C348 1.332 . S
C349 H407 0.929 . S
C350 C346 1.527 . S
C350 H408 0.959 . S
C350 H409 0.961 . S
C350 H410 0.961 . S
C351 C348 1.496 . S
C351 H411 0.960 . S
C351 H412 0.960 . S
C351 H413 0.961 . S
C352 C353 1.517 . S
C352 H415 0.961 . S
C352 H416 0.960 . S
C352 H417 0.959 . S
C353 C352 1.517 . S
C353 O401 1.468 . S
C353 H414 0.980 . S
C354 C355 1.349 . S
C354 C359 1.367 . S
C354 O401 1.408 . S
C355 C354 1.349 . S
C355 C356 1.407 1_655 S
C355 H418 0.930 . S
C356 C355 1.407 1_455 S
C356 C357 1.449 . S
C356 C360 1.535 . S
C357 C356 1.449 . S
C357 C358 1.384 . S
C357 C382 1.553 . S
C358 C357 1.384 . S
C358 C359 1.364 1_455 S
C358 C361 1.450 . S
C359 C354 1.367 . S
C359 C358 1.364 1_655 S
C359 H419 0.931 . S
C360 C356 1.535 . S
C360 H420 0.959 . S
C360 H421 0.961 . S
C360 H422 0.959 1_455 S
C361 C358 1.450 . S
C361 H423 0.960 . S
C361 H424 0.960 . S
C361 H425 0.960 . S
C362 C363 1.309 . S
C362 C367 1.304 . S
C362 O400 1.435 . S
C363 C362 1.309 . S
C363 C364 1.476 . S
C363 H427 0.930 . S
C364 C363 1.476 . S
C364 C365 1.400 . S
C364 C368 1.567 . S
C365 C364 1.400 . S
C365 C366 1.373 . S
C365 C387 1.432 . S
C366 C365 1.373 . S
C366 C367 1.339 . S
C366 C369 1.530 . S
C367 C362 1.304 . S
C367 C366 1.339 . S
C367 H428 0.930 . S
C368 C364 1.567 . S
C368 H429 0.961 . S
C368 H430 0.960 . S
C368 H431 0.958 . S
C369 C366 1.530 . S
C369 H432 0.961 . S
C369 H433 0.960 . S
C369 H434 0.960 . S
C370 C371 1.530 . S
C370 H436 0.961 . S
C370 H437 0.961 . S
C370 H438 0.959 . S
C371 C370 1.530 . S
C371 O399 1.412 . S
C371 H435 0.980 . S
C372 C373 1.288 . S
C372 C377 1.377 . S
C372 O399 1.393 . S
C373 C372 1.288 . S
C373 C374 1.369 . S
C373 H439 0.932 . S
C374 C373 1.369 . S
C374 C375 1.398 . S
C374 C378 1.527 . S
C375 C374 1.398 . S
C375 C376 1.380 . S
C375 C389 1.497 . S
C376 C375 1.380 . S
C376 C377 1.383 . S
C376 C379 1.603 . S
C377 C372 1.377 . S
C377 C376 1.383 . S
C377 H440 0.929 . S
C378 C374 1.527 . S
C378 H441 0.961 . S
C378 H442 0.959 . S
C378 H443 0.959 . S
C379 C376 1.603 . S
C379 H444 0.960 . S
C379 H445 0.962 . S
C379 H446 0.961 . S
C380 C347 1.587 . S
C380 C381 1.360 . S
C380 C393 1.412 . S
C381 C380 1.360 . S
C381 C382 1.365 . S
C381 H447 0.929 . S
C382 C357 1.553 . S
C382 C381 1.365 . S
C382 C383 1.404 . S
C383 C382 1.404 . S
C383 C384 1.395 1_455 S
C383 C394 1.451 . S
C384 C383 1.395 1_655 S
C384 C385 1.322 . S
C384 H448 0.930 . S
C385 C384 1.322 . S
C385 C386 1.459 . S
C385 H449 0.929 . S
C386 C385 1.459 . S
C386 C387 1.445 . S
C386 C395 1.395 1_655 S
C387 C365 1.432 . S
C387 C386 1.445 . S
C387 C388 1.370 1_655 S
C388 C387 1.370 1_455 S
C388 C389 1.438 . S
C388 H450 0.930 1_455 S
C389 C375 1.497 . S
C389 C388 1.438 . S
C389 C390 1.360 . S
C390 C389 1.360 . S
C390 C391 1.401 . S
C390 C395 1.446 . S
C391 C390 1.401 . S
C391 C392 1.347 . S
C391 H451 0.929 . S
C392 C391 1.347 . S
C392 C393 1.455 . S
C392 H452 0.930 . S
C393 C380 1.412 . S
C393 C392 1.455 . S
C393 C394 1.331 . S
C394 C383 1.451 . S
C394 C393 1.331 . S
C394 C395 1.497 . S
C395 C386 1.395 1_455 S
C395 C390 1.446 . S
C395 C394 1.497 . S
C396 C397 1.582 . S
C396 H453 0.962 . S
C396 H454 0.959 . S
C396 H455 0.958 . S
C397 C396 1.582 . S
C397 O400 1.458 . S
C397 H426 0.980 . S
O398 C343 1.426 . S
O398 C344 1.334 . S
O399 C371 1.412 . S
O399 C372 1.393 . S
O400 C362 1.435 . S
O400 C397 1.458 . S
O401 C353 1.468 . S
O401 C354 1.408 . S
H402 C343 0.980 . S
H403 C342 0.959 . S
H404 C342 0.959 . S
H405 C342 0.960 . S
H406 C345 0.929 . S
H407 C349 0.929 . S
H408 C350 0.959 . S
H409 C350 0.961 . S
H410 C350 0.961 . S
H411 C351 0.960 . S
H412 C351 0.960 . S
H413 C351 0.961 . S
H414 C353 0.980 . S
H415 C352 0.961 . S
H416 C352 0.960 . S
H417 C352 0.959 . S
H418 C355 0.930 . S
H419 C359 0.931 . S
H420 C360 0.959 . S
H421 C360 0.961 . S
H422 C360 0.959 1_655 S
H423 C361 0.960 . S
H424 C361 0.960 . S
H425 C361 0.960 . S
H426 C397 0.980 . S
H427 C363 0.930 . S
H428 C367 0.930 . S
H429 C368 0.961 . S
H430 C368 0.960 . S
H431 C368 0.958 . S
H432 C369 0.961 . S
H433 C369 0.960 . S
H434 C369 0.960 . S
H435 C371 0.980 . S
H436 C370 0.961 . S
H437 C370 0.961 . S
H438 C370 0.959 . S
H439 C373 0.932 . S
H440 C377 0.929 . S
H441 C378 0.961 . S
H442 C378 0.959 . S
H443 C378 0.959 . S
H444 C379 0.960 . S
H445 C379 0.962 . S
H446 C379 0.961 . S
H447 C381 0.929 . S
H448 C384 0.930 . S
H449 C385 0.929 . S
H450 C388 0.930 1_655 S
H451 C391 0.929 . S
H452 C392 0.930 . S
H453 C396 0.962 . S
H454 C396 0.959 . S
H455 C396 0.958 . S
C456 C457 1.560 . S
C456 H517 0.959 . S
C456 H518 0.959 . S
C456 H519 0.960 . S
C457 C456 1.560 . S
C457 O512 1.426 . S
C457 H516 0.980 . S
C458 C459 1.407 . S
C458 C463 1.418 . S
C458 O512 1.334 . S
C459 C458 1.407 . S
C459 C460 1.360 . S
C459 H520 0.929 . S
C460 C459 1.360 . S
C460 C461 1.401 . S
C460 C464 1.527 . S
C461 C460 1.401 . S
C461 C462 1.405 . S
C461 C494 1.587 . S
C462 C461 1.405 . S
C462 C463 1.332 . S
C462 C465 1.496 . S
C463 C458 1.418 . S
C463 C462 1.332 . S
C463 H521 0.929 . S
C464 C460 1.527 . S
C464 H522 0.959 . S
C464 H523 0.961 . S
C464 H524 0.961 . S
C465 C462 1.496 . S
C465 H525 0.960 . S
C465 H526 0.960 . S
C465 H527 0.961 . S
C466 C467 1.517 . S
C466 H529 0.961 . S
C466 H530 0.960 . S
C466 H531 0.959 . S
C467 C466 1.517 . S
C467 O515 1.468 . S
C467 H528 0.980 . S
C468 C469 1.349 . S
C468 C473 1.367 . S
C468 O515 1.408 . S
C469 C468 1.349 . S
C469 C470 1.407 . S
C469 H532 0.930 . S
C470 C469 1.407 . S
C470 C471 1.449 . S
C470 C474 1.535 . S
C471 C470 1.449 . S
C471 C472 1.384 . S
C471 C496 1.553 . S
C472 C471 1.384 . S
C472 C473 1.364 . S
C472 C475 1.450 . S
C473 C468 1.367 . S
C473 C472 1.364 . S
C473 H533 0.931 . S
C474 C470 1.535 . S
C474 H534 0.959 . S
C474 H535 0.961 . S
C474 H536 0.959 . S
C475 C472 1.450 . S
C475 H537 0.960 . S
C475 H538 0.960 . S
C475 H539 0.960 . S
C476 C477 1.309 . S
C476 C481 1.304 . S
C476 O514 1.435 . S
C477 C476 1.309 . S
C477 C478 1.476 . S
C477 H541 0.930 . S
C478 C477 1.476 . S
C478 C479 1.400 . S
C478 C482 1.567 . S
C479 C478 1.400 . S
C479 C480 1.373 . S
C479 C501 1.432 . S
C480 C479 1.373 . S
C480 C481 1.339 . S
C480 C483 1.530 . S
C481 C476 1.304 . S
C481 C480 1.339 . S
C481 H542 0.930 . S
C482 C478 1.567 . S
C482 H543 0.961 . S
C482 H544 0.960 . S
C482 H545 0.958 . S
C483 C480 1.530 . S
C483 H546 0.961 . S
C483 H547 0.960 . S
C483 H548 0.960 . S
C484 C485 1.530 . S
C484 H550 0.961 . S
C484 H551 0.961 . S
C484 H552 0.959 . S
C485 C484 1.530 . S
C485 O513 1.412 . S
C485 H549 0.980 . S
C486 C487 1.288 . S
C486 C491 1.377 . S
C486 O513 1.393 . S
C487 C486 1.288 . S
C487 C488 1.369 1_565 S
C487 H553 0.932 . S
C488 C487 1.369 1_545 S
C488 C489 1.398 . S
C488 C492 1.527 . S
C489 C488 1.398 . S
C489 C490 1.380 1_545 S
C489 C503 1.497 . S
C490 C489 1.380 1_565 S
C490 C491 1.383 . S
C490 C493 1.603 . S
C491 C486 1.377 . S
C491 C490 1.383 . S
C491 H554 0.929 . S
C492 C488 1.527 . S
C492 H555 0.961 . S
C492 H556 0.959 . S
C492 H557 0.959 . S
C493 C490 1.603 . S
C493 H558 0.960 . S
C493 H559 0.962 1_565 S
C493 H560 0.961 . S
C494 C461 1.587 . S
C494 C495 1.360 . S
C494 C507 1.412 . S
C495 C494 1.360 . S
C495 C496 1.365 1_565 S
C495 H561 0.929 . S
C496 C471 1.553 . S
C496 C495 1.365 1_545 S
C496 C497 1.404 . S
C497 C496 1.404 . S
C497 C498 1.395 . S
C497 C508 1.451 . S
C498 C497 1.395 . S
C498 C499 1.322 . S
C498 H562 0.930 . S
C499 C498 1.322 . S
C499 C500 1.447 1_556 S
C499 H563 0.929 . S
C500 C499 1.447 1_554 S
C500 C501 1.459 . S
C500 C509 1.393 1_554 S
C501 C479 1.432 . S
C501 C500 1.459 . S
C501 C502 1.370 . S
C502 C501 1.370 . S
C502 C503 1.438 . S
C502 H564 0.930 . S
C503 C489 1.497 . S
C503 C502 1.438 . S
C503 C504 1.360 . S
C504 C503 1.360 . S
C504 C505 1.401 1_545 S
C504 C509 1.446 1_554 S
C505 C504 1.401 1_565 S
C505 C506 1.347 1_554 S
C505 H565 0.929 . S
C506 C505 1.347 1_556 S
C506 C507 1.455 . S
C506 H566 0.930 . S
C507 C494 1.412 . S
C507 C506 1.455 . S
C507 C508 1.331 1_565 S
C508 C497 1.451 . S
C508 C507 1.331 1_545 S
C508 C509 1.497 . S
C509 C500 1.393 1_556 S
C509 C504 1.446 1_556 S
C509 C508 1.497 . S
C510 C511 1.582 . S
C510 H567 0.962 . S
C510 H568 0.959 . S
C510 H569 0.958 . S
C511 C510 1.582 . S
C511 O514 1.458 . S
C511 H540 0.980 . S
O512 C457 1.426 . S
O512 C458 1.334 . S
O513 C485 1.412 . S
O513 C486 1.393 . S
O514 C476 1.435 . S
O514 C511 1.458 . S
O515 C467 1.468 . S
O515 C468 1.408 . S
H516 C457 0.980 . S
H517 C456 0.959 . S
H518 C456 0.959 . S
H519 C456 0.960 . S
H520 C459 0.929 . S
H521 C463 0.929 . S
H522 C464 0.959 . S
H523 C464 0.961 . S
H524 C464 0.961 . S
H525 C465 0.960 . S
H526 C465 0.960 . S
H527 C465 0.961 . S
H528 C467 0.980 . S
H529 C466 0.961 . S
H530 C466 0.960 . S
H531 C466 0.959 . S
H532 C469 0.930 . S
H533 C473 0.931 . S
H534 C474 0.959 . S
H535 C474 0.961 . S
H536 C474 0.959 . S
H537 C475 0.960 . S
H538 C475 0.960 . S
H539 C475 0.960 . S
H540 C511 0.980 . S
H541 C477 0.930 . S
H542 C481 0.930 . S
H543 C482 0.961 . S
H544 C482 0.960 . S
H545 C482 0.958 . S
H546 C483 0.961 . S
H547 C483 0.960 . S
H548 C483 0.960 . S
H549 C485 0.980 . S
H550 C484 0.961 . S
H551 C484 0.961 . S
H552 C484 0.959 . S
H553 C487 0.932 . S
H554 C491 0.929 . S
H555 C492 0.961 . S
H556 C492 0.959 . S
H557 C492 0.959 . S
H558 C493 0.960 . S
H559 C493 0.962 1_545 S
H560 C493 0.961 . S
H561 C495 0.929 . S
H562 C498 0.930 . S
H563 C499 0.929 . S
H564 C502 0.930 . S
H565 C505 0.929 . S
H566 C506 0.930 . S
H567 C510 0.962 . S
H568 C510 0.959 . S
H569 C510 0.958 . S
C570 C571 1.560 . S
C570 H631 0.959 . S
C570 H632 0.959 . S
C570 H633 0.960 . S
C571 C570 1.560 . S
C571 O626 1.426 . S
C571 H630 0.980 . S
C572 C573 1.407 . S
C572 C577 1.418 . S
C572 O626 1.334 . S
C573 C572 1.407 . S
C573 C574 1.360 . S
C573 H634 0.929 . S
C574 C573 1.360 . S
C574 C575 1.401 . S
C574 C578 1.527 . S
C575 C574 1.401 . S
C575 C576 1.405 . S
C575 C608 1.587 . S
C576 C575 1.405 . S
C576 C577 1.332 . S
C576 C579 1.496 . S
C577 C572 1.418 . S
C577 C576 1.332 . S
C577 H635 0.929 . S
C578 C574 1.527 . S
C578 H636 0.959 . S
C578 H637 0.961 . S
C578 H638 0.961 . S
C579 C576 1.496 . S
C579 H639 0.960 . S
C579 H640 0.960 . S
C579 H641 0.961 . S
C580 C581 1.517 . S
C580 H643 0.961 . S
C580 H644 0.960 . S
C580 H645 0.959 . S
C581 C580 1.517 . S
C581 O629 1.468 . S
C581 H642 0.980 . S
C582 C583 1.349 . S
C582 C587 1.367 . S
C582 O629 1.408 . S
C583 C582 1.349 . S
C583 C584 1.407 . S
C583 H646 0.930 . S
C584 C583 1.407 . S
C584 C585 1.449 . S
C584 C588 1.535 . S
C585 C584 1.449 . S
C585 C586 1.384 . S
C585 C610 1.553 . S
C586 C585 1.384 . S
C586 C587 1.364 . S
C586 C589 1.450 . S
C587 C582 1.367 . S
C587 C586 1.364 . S
C587 H647 0.931 . S
C588 C584 1.535 . S
C588 H648 0.959 . S
C588 H649 0.961 . S
C588 H650 0.959 . S
C589 C586 1.450 . S
C589 H651 0.960 . S
C589 H652 0.960 . S
C589 H653 0.960 . S
C590 C591 1.309 . S
C590 C595 1.304 . S
C590 O628 1.435 . S
C591 C590 1.309 . S
C591 C592 1.476 . S
C591 H655 0.930 . S
C592 C591 1.476 . S
C592 C593 1.400 . S
C592 C596 1.567 . S
C593 C592 1.400 . S
C593 C594 1.373 . S
C593 C615 1.432 . S
C594 C593 1.373 . S
C594 C595 1.339 . S
C594 C597 1.530 . S
C595 C590 1.304 . S
C595 C594 1.339 . S
C595 H656 0.930 . S
C596 C592 1.567 . S
C596 H657 0.961 . S
C596 H658 0.960 . S
C596 H659 0.958 . S
C597 C594 1.530 . S
C597 H660 0.961 . S
C597 H661 0.960 . S
C597 H662 0.960 . S
C598 C599 1.530 . S
C598 H664 0.961 . S
C598 H665 0.961 . S
C598 H666 0.959 . S
C599 C598 1.530 . S
C599 O627 1.412 . S
C599 H663 0.980 . S
C600 C601 1.288 . S
C600 C605 1.377 . S
C600 O627 1.393 . S
C601 C600 1.288 . S
C601 C602 1.369 . S
C601 H667 0.932 . S
C602 C601 1.369 . S
C602 C603 1.398 . S
C602 C606 1.527 . S
C603 C602 1.398 . S
C603 C604 1.380 . S
C603 C617 1.497 . S
C604 C603 1.380 . S
C604 C605 1.383 . S
C604 C607 1.603 . S
C605 C600 1.377 . S
C605 C604 1.383 . S
C605 H668 0.929 . S
C606 C602 1.527 . S
C606 H669 0.961 . S
C606 H670 0.959 . S
C606 H671 0.959 . S
C607 C604 1.603 . S
C607 H672 0.960 . S
C607 H673 0.962 . S
C607 H674 0.961 . S
C608 C575 1.587 . S
C608 C609 1.360 . S
C608 C621 1.412 . S
C609 C608 1.360 . S
C609 C610 1.365 . S
C609 H675 0.929 . S
C610 C585 1.553 . S
C610 C609 1.365 . S
C610 C611 1.404 . S
C611 C610 1.404 . S
C611 C612 1.395 . S
C611 C622 1.451 . S
C612 C611 1.395 . S
C612 C613 1.322 . S
C612 H676 0.930 . S
C613 C612 1.322 . S
C613 C614 1.459 . S
C613 H677 0.929 . S
C614 C613 1.459 . S
C614 C615 1.445 . S
C614 C623 1.395 . S
C615 C593 1.432 . S
C615 C614 1.445 . S
C615 C616 1.370 . S
C616 C615 1.370 . S
C616 C617 1.438 . S
C616 H678 0.930 . S
C617 C603 1.497 . S
C617 C616 1.438 . S
C617 C618 1.360 . S
C618 C617 1.360 . S
C618 C619 1.401 . S
C618 C623 1.446 . S
C619 C618 1.401 . S
C619 C620 1.347 . S
C619 H679 0.929 . S
C620 C619 1.347 . S
C620 C621 1.455 . S
C620 H680 0.930 . S
C621 C608 1.412 . S
C621 C620 1.455 . S
C621 C622 1.331 . S
C622 C611 1.451 . S
C622 C621 1.331 . S
C622 C623 1.497 . S
C623 C614 1.395 . S
C623 C618 1.446 . S
C623 C622 1.497 . S
C624 C625 1.582 . S
C624 H681 0.962 . S
C624 H682 0.959 . S
C624 H683 0.958 . S
C625 C624 1.582 . S
C625 O628 1.458 . S
C625 H654 0.980 . S
O626 C571 1.426 . S
O626 C572 1.334 . S
O627 C599 1.412 . S
O627 C600 1.393 . S
O628 C590 1.435 . S
O628 C625 1.458 . S
O629 C581 1.468 . S
O629 C582 1.408 . S
H630 C571 0.980 . S
H631 C570 0.959 . S
H632 C570 0.959 . S
H633 C570 0.960 . S
H634 C573 0.929 . S
H635 C577 0.929 . S
H636 C578 0.959 . S
H637 C578 0.961 . S
H638 C578 0.961 . S
H639 C579 0.960 . S
H640 C579 0.960 . S
H641 C579 0.961 . S
H642 C581 0.980 . S
H643 C580 0.961 . S
H644 C580 0.960 . S
H645 C580 0.959 . S
H646 C583 0.930 . S
H647 C587 0.931 . S
H648 C588 0.959 . S
H649 C588 0.961 . S
H650 C588 0.959 . S
H651 C589 0.960 . S
H652 C589 0.960 . S
H653 C589 0.960 . S
H654 C625 0.980 . S
H655 C591 0.930 . S
H656 C595 0.930 . S
H657 C596 0.961 . S
H658 C596 0.960 . S
H659 C596 0.958 . S
H660 C597 0.961 . S
H661 C597 0.960 . S
H662 C597 0.960 . S
H663 C599 0.980 . S
H664 C598 0.961 . S
H665 C598 0.961 . S
H666 C598 0.959 . S
H667 C601 0.932 . S
H668 C605 0.929 . S
H669 C606 0.961 . S
H670 C606 0.959 . S
H671 C606 0.959 . S
H672 C607 0.960 . S
H673 C607 0.962 . S
H674 C607 0.961 . S
H675 C609 0.929 . S
H676 C612 0.930 . S
H677 C613 0.929 . S
H678 C616 0.930 . S
H679 C619 0.929 . S
H680 C620 0.930 . S
H681 C624 0.962 . S
H682 C624 0.959 . S
H683 C624 0.958 . S
Li684 N701 1.990 . S
Li684 O744 1.956 . S
Li684 O745 1.970 . S
Li684 O746 1.961 . S
Li685 N709 1.990 . S
Li685 O744 1.970 . S
Li685 O745 1.956 . S
Li685 O747 1.961 . S
Li686 N731 1.990 . S
Li686 O744 1.961 . S
Li686 O746 1.956 . S
Li686 O747 1.970 . S
Li687 N737 1.990 . S
Li687 O745 1.961 . S
Li687 O746 1.970 . S
Li687 O747 1.956 . S
C688 C690 1.348 . S
C688 C691 1.356 . S
C688 O744 1.325 . S
N689 C692 1.314 . S
N689 C693 1.279 . S
C690 C688 1.348 . S
C690 C692 1.353 . S
C690 H748 0.929 . S
C691 C688 1.356 . S
C691 C693 1.358 . S
C691 H749 0.930 . S
C692 N689 1.314 . S
C692 C690 1.353 . S
C692 H750 0.930 . S
C693 N689 1.279 . S
C693 C691 1.358 . S
C693 H751 0.930 . S
C694 C697 1.348 . S
C694 C698 1.356 . S
C694 O745 1.325 . S
C695 N696 1.279 . S
C695 C698 1.358 . S
C695 H752 0.930 . S
N696 C695 1.279 . S
N696 C699 1.314 . S
C697 C694 1.348 . S
C697 C699 1.353 . S
C697 H753 0.929 . S
C698 C694 1.356 . S
C698 C695 1.358 . S
C698 H754 0.930 . S
C699 N696 1.314 . S
C699 C697 1.353 . S
C699 H755 0.930 . S
C700 N701 1.314 . S
C700 C705 1.353 . S
C700 H706 0.930 . S
N701 Li684 1.990 . S
N701 C700 1.314 . S
N701 C703 1.279 . S
C702 C703 1.358 . S
C702 C704 1.356 . S
C702 H756 0.930 . S
C703 N701 1.279 . S
C703 C702 1.358 . S
C703 H707 0.930 . S
C704 C702 1.356 . S
C704 C705 1.348 . S
C705 C700 1.353 . S
C705 C704 1.348 . S
C705 H757 0.929 . S
H706 C700 0.930 . S
H707 C703 0.930 . S
C708 N709 1.314 . S
C708 C710 1.353 . S
C708 H714 0.930 . S
N709 Li685 1.990 . S
N709 C708 1.314 . S
N709 C712 1.279 . S
C710 C708 1.353 . S
C710 C713 1.348 . S
C710 H758 0.929 . S
C711 C712 1.358 . S
C711 C713 1.356 . S
C711 H759 0.930 . S
C712 N709 1.279 . S
C712 C711 1.358 . S
C712 H715 0.930 . S
C713 C710 1.348 . S
C713 C711 1.356 . S
H714 C708 0.930 . S
H715 C712 0.930 . S
C716 C718 1.348 . S
C716 C719 1.356 . S
C716 O746 1.325 . S
N717 C720 1.314 . S
N717 C721 1.279 . S
C718 C716 1.348 . S
C718 C720 1.353 . S
C718 H760 0.929 . S
C719 C716 1.356 . S
C719 C721 1.358 . S
C719 H761 0.930 . S
C720 N717 1.314 . S
C720 C718 1.353 . S
C720 H762 0.930 . S
C721 N717 1.279 . S
C721 C719 1.358 . S
C721 H763 0.930 . S
C722 C723 1.348 . S
C722 C724 1.356 . S
C722 O747 1.325 . S
C723 C722 1.348 . S
C723 C725 1.353 . S
C723 H764 0.929 . S
C724 C722 1.356 . S
C724 C726 1.358 . S
C724 H765 0.930 . S
C725 C723 1.353 . S
C725 N727 1.314 . S
C725 H766 0.930 . S
C726 C724 1.358 . S
C726 N727 1.279 . S
C726 H767 0.930 . S
N727 C725 1.314 . S
N727 C726 1.279 . S
C728 C730 1.353 . S
C728 N731 1.314 . S
C728 H734 0.930 . S
C729 N731 1.279 . S
C729 C732 1.358 . S
C729 H735 0.930 . S
C730 C728 1.353 . S
C730 C733 1.348 . S
C730 H768 0.929 . S
N731 Li686 1.990 . S
N731 C728 1.314 . S
N731 C729 1.279 . S
C732 C729 1.358 . S
C732 C733 1.356 . S
C732 H769 0.930 . S
C733 C730 1.348 . S
C733 C732 1.356 . S
H734 C728 0.930 . S
H735 C729 0.930 . S
C736 N737 1.314 . S
C736 C738 1.353 . S
C736 H742 0.930 . S
N737 Li687 1.990 . S
N737 C736 1.314 . S
N737 C740 1.279 . S
C738 C736 1.353 . S
C738 C741 1.348 . S
C738 H770 0.929 . S
C739 C740 1.358 . S
C739 C741 1.356 . S
C739 H771 0.930 . S
C740 N737 1.279 . S
C740 C739 1.358 . S
C740 H743 0.930 . S
C741 C738 1.348 . S
C741 C739 1.356 . S
H742 C736 0.930 . S
H743 C740 0.930 . S
O744 Li684 1.956 . S
O744 Li685 1.970 . S
O744 Li686 1.961 . S
O744 C688 1.325 . S
O745 Li684 1.970 . S
O745 Li685 1.956 . S
O745 Li687 1.961 . S
O745 C694 1.325 . S
O746 Li684 1.961 . S
O746 Li686 1.956 . S
O746 Li687 1.970 . S
O746 C716 1.325 . S
O747 Li685 1.961 . S
O747 Li686 1.970 . S
O747 Li687 1.956 . S
O747 C722 1.325 . S
H748 C690 0.929 . S
H749 C691 0.930 . S
H750 C692 0.930 . S
H751 C693 0.930 . S
H752 C695 0.930 . S
H753 C697 0.929 . S
H754 C698 0.930 . S
H755 C699 0.930 . S
H756 C702 0.930 . S
H757 C705 0.929 . S
H758 C710 0.929 . S
H759 C711 0.930 . S
H760 C718 0.929 . S
H761 C719 0.930 . S
H762 C720 0.930 . S
H763 C721 0.930 . S
H764 C723 0.929 . S
H765 C724 0.930 . S
H766 C725 0.930 . S
H767 C726 0.930 . S
H768 C730 0.929 . S
H769 C732 0.930 . S
H770 C738 0.929 . S
H771 C739 0.930 . S
Li772 N789 1.990 . S
Li772 O832 1.956 . S
Li772 O833 1.970 . S
Li772 O834 1.961 . S
Li773 N797 1.990 . S
Li773 O832 1.970 . S
Li773 O833 1.956 . S
Li773 O835 1.961 . S
Li774 N819 1.990 . S
Li774 O832 1.961 . S
Li774 O834 1.956 . S
Li774 O835 1.970 . S
Li775 N825 1.990 . S
Li775 O833 1.961 . S
Li775 O834 1.970 . S
Li775 O835 1.956 . S
C776 C778 1.348 . S
C776 C779 1.356 . S
C776 O832 1.325 . S
N777 C780 1.314 . S
N777 C781 1.279 . S
C778 C776 1.348 . S
C778 C780 1.353 . S
C778 H836 0.929 . S
C779 C776 1.356 . S
C779 C781 1.358 . S
C779 H837 0.930 . S
C780 N777 1.314 . S
C780 C778 1.353 . S
C780 H838 0.930 . S
C781 N777 1.279 . S
C781 C779 1.358 . S
C781 H839 0.930 . S
C782 C785 1.348 . S
C782 C786 1.356 . S
C782 O833 1.325 . S
C783 N784 1.279 . S
C783 C786 1.358 . S
C783 H840 0.930 . S
N784 C783 1.279 . S
N784 C787 1.314 . S
C785 C782 1.348 . S
C785 C787 1.353 . S
C785 H841 0.929 . S
C786 C782 1.356 . S
C786 C783 1.358 . S
C786 H842 0.930 . S
C787 N784 1.314 . S
C787 C785 1.353 . S
C787 H843 0.930 . S
C788 N789 1.314 . S
C788 C793 1.353 . S
C788 H794 0.930 . S
N789 Li772 1.990 . S
N789 C788 1.314 . S
N789 C791 1.279 . S
C790 C791 1.358 . S
C790 C792 1.356 . S
C790 H844 0.930 . S
C791 N789 1.279 . S
C791 C790 1.358 . S
C791 H795 0.930 . S
C792 C790 1.356 . S
C792 C793 1.348 . S
C793 C788 1.353 . S
C793 C792 1.348 . S
C793 H845 0.929 . S
H794 C788 0.930 . S
H795 C791 0.930 . S
C796 N797 1.314 . S
C796 C798 1.353 . S
C796 H802 0.930 . S
N797 Li773 1.990 . S
N797 C796 1.314 . S
N797 C800 1.279 . S
C798 C796 1.353 . S
C798 C801 1.348 . S
C798 H846 0.929 . S
C799 C800 1.358 . S
C799 C801 1.356 . S
C799 H847 0.930 . S
C800 N797 1.279 . S
C800 C799 1.358 . S
C800 H803 0.930 . S
C801 C798 1.348 . S
C801 C799 1.356 . S
H802 C796 0.930 . S
H803 C800 0.930 . S
C804 C806 1.348 . S
C804 C807 1.356 . S
C804 O834 1.325 . S
N805 C808 1.314 . S
N805 C809 1.279 . S
C806 C804 1.348 . S
C806 C808 1.353 . S
C806 H848 0.929 . S
C807 C804 1.356 . S
C807 C809 1.358 . S
C807 H849 0.930 . S
C808 N805 1.314 . S
C808 C806 1.353 . S
C808 H850 0.930 . S
C809 N805 1.279 . S
C809 C807 1.358 . S
C809 H851 0.930 . S
C810 C811 1.348 . S
C810 C812 1.356 . S
C810 O835 1.325 . S
C811 C810 1.348 . S
C811 C813 1.353 . S
C811 H852 0.929 . S
C812 C810 1.356 . S
C812 C814 1.358 . S
C812 H853 0.930 . S
C813 C811 1.353 . S
C813 N815 1.314 . S
C813 H854 0.930 . S
C814 C812 1.358 . S
C814 N815 1.279 . S
C814 H855 0.930 . S
N815 C813 1.314 . S
N815 C814 1.279 . S
C816 C818 1.353 . S
C816 N819 1.314 . S
C816 H822 0.930 . S
C817 N819 1.279 . S
C817 C820 1.358 . S
C817 H823 0.930 . S
C818 C816 1.353 . S
C818 C821 1.348 . S
C818 H856 0.929 . S
N819 Li774 1.990 . S
N819 C816 1.314 . S
N819 C817 1.279 . S
C820 C817 1.358 . S
C820 C821 1.356 . S
C820 H857 0.930 . S
C821 C818 1.348 . S
C821 C820 1.356 . S
H822 C816 0.930 . S
H823 C817 0.930 . S
C824 N825 1.314 . S
C824 C826 1.353 . S
C824 H830 0.930 . S
N825 Li775 1.990 . S
N825 C824 1.314 . S
N825 C828 1.279 . S
C826 C824 1.353 . S
C826 C829 1.348 . S
C826 H858 0.929 . S
C827 C828 1.358 . S
C827 C829 1.356 . S
C827 H859 0.930 . S
C828 N825 1.279 . S
C828 C827 1.358 . S
C828 H831 0.930 . S
C829 C826 1.348 . S
C829 C827 1.356 . S
H830 C824 0.930 . S
H831 C828 0.930 . S
O832 Li772 1.956 . S
O832 Li773 1.970 . S
O832 Li774 1.961 . S
O832 C776 1.325 . S
O833 Li772 1.970 . S
O833 Li773 1.956 . S
O833 Li775 1.961 . S
O833 C782 1.325 . S
O834 Li772 1.961 . S
O834 Li774 1.956 . S
O834 Li775 1.970 . S
O834 C804 1.325 . S
O835 Li773 1.961 . S
O835 Li774 1.970 . S
O835 Li775 1.956 . S
O835 C810 1.325 . S
H836 C778 0.929 . S
H837 C779 0.930 . S
H838 C780 0.930 . S
H839 C781 0.930 . S
H840 C783 0.930 . S
H841 C785 0.929 . S
H842 C786 0.930 . S
H843 C787 0.930 . S
H844 C790 0.930 . S
H845 C793 0.929 . S
H846 C798 0.929 . S
H847 C799 0.930 . S
H848 C806 0.929 . S
H849 C807 0.930 . S
H850 C808 0.930 . S
H851 C809 0.930 . S
H852 C811 0.929 . S
H853 C812 0.930 . S
H854 C813 0.930 . S
H855 C814 0.930 . S
H856 C818 0.929 . S
H857 C820 0.930 . S
H858 C826 0.929 . S
H859 C827 0.930 . S
Li860 N877 1.990 . S
Li860 O920 1.956 . S
Li860 O921 1.970 . S
Li860 O922 1.961 . S
Li861 N885 1.990 . S
Li861 O920 1.970 . S
Li861 O921 1.956 . S
Li861 O923 1.961 . S
Li862 N907 1.990 . S
Li862 O920 1.961 . S
Li862 O922 1.956 . S
Li862 O923 1.970 . S
Li863 N913 1.990 . S
Li863 O921 1.961 . S
Li863 O922 1.970 . S
Li863 O923 1.956 . S
C864 C866 1.348 . S
C864 C867 1.356 . S
C864 O920 1.325 . S
N865 C868 1.314 . S
N865 C869 1.279 . S
C866 C864 1.348 . S
C866 C868 1.353 . S
C866 H924 0.929 . S
C867 C864 1.356 . S
C867 C869 1.358 . S
C867 H925 0.930 . S
C868 N865 1.314 . S
C868 C866 1.353 . S
C868 H926 0.930 . S
C869 N865 1.279 . S
C869 C867 1.358 . S
C869 H927 0.930 . S
C870 C873 1.348 . S
C870 C874 1.356 . S
C870 O921 1.325 . S
C871 N872 1.279 . S
C871 C874 1.358 . S
C871 H928 0.930 . S
N872 C871 1.279 . S
N872 C875 1.314 . S
C873 C870 1.348 . S
C873 C875 1.353 . S
C873 H929 0.929 . S
C874 C870 1.356 . S
C874 C871 1.358 . S
C874 H930 0.930 . S
C875 N872 1.314 . S
C875 C873 1.353 . S
C875 H931 0.930 . S
C876 N877 1.314 . S
C876 C881 1.353 . S
C876 H882 0.930 . S
N877 Li860 1.990 . S
N877 C876 1.314 . S
N877 C879 1.279 . S
C878 C879 1.358 . S
C878 C880 1.356 . S
C878 H932 0.930 . S
C879 N877 1.279 . S
C879 C878 1.358 . S
C879 H883 0.930 . S
C880 C878 1.356 . S
C880 C881 1.348 . S
C881 C876 1.353 . S
C881 C880 1.348 . S
C881 H933 0.929 . S
H882 C876 0.930 . S
H883 C879 0.930 . S
C884 N885 1.314 . S
C884 C886 1.353 . S
C884 H890 0.930 . S
N885 Li861 1.990 . S
N885 C884 1.314 . S
N885 C888 1.279 . S
C886 C884 1.353 . S
C886 C889 1.348 . S
C886 H934 0.929 . S
C887 C888 1.358 . S
C887 C889 1.356 . S
C887 H935 0.930 . S
C888 N885 1.279 . S
C888 C887 1.358 . S
C888 H891 0.930 . S
C889 C886 1.348 . S
C889 C887 1.356 . S
H890 C884 0.930 . S
H891 C888 0.930 . S
C892 C894 1.348 . S
C892 C895 1.356 . S
C892 O922 1.325 . S
N893 C896 1.314 . S
N893 C897 1.279 . S
C894 C892 1.348 . S
C894 C896 1.353 . S
C894 H936 0.929 . S
C895 C892 1.356 . S
C895 C897 1.358 . S
C895 H937 0.930 . S
C896 N893 1.314 . S
C896 C894 1.353 . S
C896 H938 0.930 . S
C897 N893 1.279 . S
C897 C895 1.358 . S
C897 H939 0.930 . S
C898 C899 1.348 . S
C898 C900 1.356 . S
C898 O923 1.325 . S
C899 C898 1.348 . S
C899 C901 1.353 . S
C899 H940 0.929 . S
C900 C898 1.356 . S
C900 C902 1.358 . S
C900 H941 0.930 . S
C901 C899 1.353 . S
C901 N903 1.314 . S
C901 H942 0.930 . S
C902 C900 1.358 . S
C902 N903 1.279 . S
C902 H943 0.930 . S
N903 C901 1.314 . S
N903 C902 1.279 . S
C904 C906 1.353 . S
C904 N907 1.314 . S
C904 H910 0.930 . S
C905 N907 1.279 . S
C905 C908 1.358 . S
C905 H911 0.930 . S
C906 C904 1.353 . S
C906 C909 1.348 . S
C906 H944 0.929 . S
N907 Li862 1.990 . S
N907 C904 1.314 . S
N907 C905 1.279 . S
C908 C905 1.358 . S
C908 C909 1.356 . S
C908 H945 0.930 . S
C909 C906 1.348 . S
C909 C908 1.356 . S
H910 C904 0.930 . S
H911 C905 0.930 . S
C912 N913 1.314 . S
C912 C914 1.353 . S
C912 H918 0.930 . S
N913 Li863 1.990 . S
N913 C912 1.314 . S
N913 C916 1.279 . S
C914 C912 1.353 . S
C914 C917 1.348 . S
C914 H946 0.929 . S
C915 C916 1.358 . S
C915 C917 1.356 . S
C915 H947 0.930 . S
C916 N913 1.279 . S
C916 C915 1.358 . S
C916 H919 0.930 . S
C917 C914 1.348 . S
C917 C915 1.356 . S
H918 C912 0.930 . S
H919 C916 0.930 . S
O920 Li860 1.956 . S
O920 Li861 1.970 . S
O920 Li862 1.961 . S
O920 C864 1.325 . S
O921 Li860 1.970 . S
O921 Li861 1.956 . S
O921 Li863 1.961 . S
O921 C870 1.325 . S
O922 Li860 1.961 . S
O922 Li862 1.956 . S
O922 Li863 1.970 . S
O922 C892 1.325 . S
O923 Li861 1.961 . S
O923 Li862 1.970 . S
O923 Li863 1.956 . S
O923 C898 1.325 . S
H924 C866 0.929 . S
H925 C867 0.930 . S
H926 C868 0.930 . S
H927 C869 0.930 . S
H928 C871 0.930 . S
H929 C873 0.929 . S
H930 C874 0.930 . S
H931 C875 0.930 . S
H932 C878 0.930 . S
H933 C881 0.929 . S
H934 C886 0.929 . S
H935 C887 0.930 . S
H936 C894 0.929 . S
H937 C895 0.930 . S
H938 C896 0.930 . S
H939 C897 0.930 . S
H940 C899 0.929 . S
H941 C900 0.930 . S
H942 C901 0.930 . S
H943 C902 0.930 . S
H944 C906 0.929 . S
H945 C908 0.930 . S
H946 C914 0.929 . S
H947 C915 0.930 . S
Li948 N965 1.990 . S
Li948 O1008 1.956 . S
Li948 O1009 1.970 . S
Li948 O1010 1.961 . S
Li949 N973 1.990 . S
Li949 O1008 1.970 . S
Li949 O1009 1.956 . S
Li949 O1011 1.961 . S
Li950 N995 1.990 . S
Li950 O1008 1.961 . S
Li950 O1010 1.956 . S
Li950 O1011 1.970 . S
Li951 N1001 1.990 . S
Li951 O1009 1.961 . S
Li951 O1010 1.970 . S
Li951 O1011 1.956 . S
C952 C954 1.348 . S
C952 C955 1.356 . S
C952 O1008 1.325 . S
N953 C956 1.314 . S
N953 C957 1.279 . S
C954 C952 1.348 . S
C954 C956 1.353 . S
C954 H1012 0.929 . S
C955 C952 1.356 . S
C955 C957 1.358 . S
C955 H1013 0.930 . S
C956 N953 1.314 . S
C956 C954 1.353 . S
C956 H1014 0.930 . S
C957 N953 1.279 . S
C957 C955 1.358 . S
C957 H1015 0.930 . S
C958 C961 1.348 . S
C958 C962 1.356 . S
C958 O1009 1.325 . S
C959 N960 1.279 . S
C959 C962 1.358 . S
C959 H1016 0.930 . S
N960 C959 1.279 . S
N960 C963 1.314 . S
C961 C958 1.348 . S
C961 C963 1.353 . S
C961 H1017 0.929 . S
C962 C958 1.356 . S
C962 C959 1.358 . S
C962 H1018 0.930 . S
C963 N960 1.314 . S
C963 C961 1.353 . S
C963 H1019 0.930 . S
C964 N965 1.314 . S
C964 C969 1.353 . S
C964 H970 0.930 . S
N965 Li948 1.990 . S
N965 C964 1.314 . S
N965 C967 1.279 . S
C966 C967 1.358 . S
C966 C968 1.356 . S
C966 H1020 0.930 . S
C967 N965 1.279 . S
C967 C966 1.358 . S
C967 H971 0.930 . S
C968 C966 1.356 . S
C968 C969 1.348 . S
C969 C964 1.353 . S
C969 C968 1.348 . S
C969 H1021 0.929 . S
H970 C964 0.930 . S
H971 C967 0.930 . S
C972 N973 1.314 . S
C972 C974 1.353 . S
C972 H978 0.930 . S
N973 Li949 1.990 . S
N973 C972 1.314 . S
N973 C976 1.279 . S
C974 C972 1.353 . S
C974 C977 1.348 . S
C974 H1022 0.929 . S
C975 C976 1.358 . S
C975 C977 1.356 . S
C975 H1023 0.930 . S
C976 N973 1.279 . S
C976 C975 1.358 . S
C976 H979 0.930 . S
C977 C974 1.348 . S
C977 C975 1.356 . S
H978 C972 0.930 . S
H979 C976 0.930 . S
C980 C982 1.348 . S
C980 C983 1.356 . S
C980 O1010 1.325 . S
N981 C984 1.314 . S
N981 C985 1.279 . S
C982 C980 1.348 . S
C982 C984 1.353 . S
C982 H1024 0.929 . S
C983 C980 1.356 . S
C983 C985 1.358 . S
C983 H1025 0.930 . S
C984 N981 1.314 . S
C984 C982 1.353 . S
C984 H1026 0.930 . S
C985 N981 1.279 . S
C985 C983 1.358 . S
C985 H1027 0.930 . S
C986 C987 1.348 . S
C986 C988 1.356 . S
C986 O1011 1.325 . S
C987 C986 1.348 . S
C987 C989 1.353 . S
C987 H1028 0.929 . S
C988 C986 1.356 . S
C988 C990 1.358 . S
C988 H1029 0.930 . S
C989 C987 1.353 . S
C989 N991 1.314 . S
C989 H1030 0.930 . S
C990 C988 1.358 . S
C990 N991 1.279 . S
C990 H1031 0.930 . S
N991 C989 1.314 . S
N991 C990 1.279 . S
C992 C994 1.353 . S
C992 N995 1.314 . S
C992 H998 0.930 . S
C993 N995 1.279 . S
C993 C996 1.358 . S
C993 H999 0.930 . S
C994 C992 1.353 . S
C994 C997 1.348 . S
C994 H1032 0.929 . S
N995 Li950 1.990 . S
N995 C992 1.314 . S
N995 C993 1.279 . S
C996 C993 1.358 . S
C996 C997 1.356 . S
C996 H1033 0.930 . S
C997 C994 1.348 . S
C997 C996 1.356 . S
H998 C992 0.930 . S
H999 C993 0.930 . S
C1000 N1001 1.314 . S
C1000 C1002 1.353 . S
C1000 H1006 0.930 . S
N1001 Li951 1.990 . S
N1001 C1000 1.314 . S
N1001 C1004 1.279 . S
C1002 C1000 1.353 . S
C1002 C1005 1.348 . S
C1002 H1034 0.929 . S
C1003 C1004 1.358 . S
C1003 C1005 1.356 . S
C1003 H1035 0.930 . S
C1004 N1001 1.279 . S
C1004 C1003 1.358 . S
C1004 H1007 0.930 . S
C1005 C1002 1.348 . S
C1005 C1003 1.356 . S
H1006 C1000 0.930 . S
H1007 C1004 0.930 . S
O1008 Li948 1.956 . S
O1008 Li949 1.970 . S
O1008 Li950 1.961 . S
O1008 C952 1.325 . S
O1009 Li948 1.970 . S
O1009 Li949 1.956 . S
O1009 Li951 1.961 . S
O1009 C958 1.325 . S
O1010 Li948 1.961 . S
O1010 Li950 1.956 . S
O1010 Li951 1.970 . S
O1010 C980 1.325 . S
O1011 Li949 1.961 . S
O1011 Li950 1.970 . S
O1011 Li951 1.956 . S
O1011 C986 1.325 . S
H1012 C954 0.929 . S
H1013 C955 0.930 . S
H1014 C956 0.930 . S
H1015 C957 0.930 . S
H1016 C959 0.930 . S
H1017 C961 0.929 . S
H1018 C962 0.930 . S
H1019 C963 0.930 . S
H1020 C966 0.930 . S
H1021 C969 0.929 . S
H1022 C974 0.929 . S
H1023 C975 0.930 . S
H1024 C982 0.929 . S
H1025 C983 0.930 . S
H1026 C984 0.930 . S
H1027 C985 0.930 . S
H1028 C987 0.929 . S
H1029 C988 0.930 . S
H1030 C989 0.930 . S
H1031 C990 0.930 . S
H1032 C994 0.929 . S
H1033 C996 0.930 . S
H1034 C1002 0.929 . S
H1035 C1003 0.930 . S
Li1036 N1053 1.990 . S
Li1036 O1096 1.956 . S
Li1036 O1097 1.970 . S
Li1036 O1098 1.961 . S
Li1037 N1061 1.990 . S
Li1037 O1096 1.970 . S
Li1037 O1097 1.956 . S
Li1037 O1099 1.961 . S
Li1038 N1083 1.990 . S
Li1038 O1096 1.961 . S
Li1038 O1098 1.956 . S
Li1038 O1099 1.970 . S
Li1039 N1089 1.990 . S
Li1039 O1097 1.961 . S
Li1039 O1098 1.970 . S
Li1039 O1099 1.956 . S
C1040 C1042 1.348 . S
C1040 C1043 1.356 . S
C1040 O1096 1.325 . S
N1041 C1044 1.314 . S
N1041 C1045 1.279 . S
C1042 C1040 1.348 . S
C1042 C1044 1.353 . S
C1042 H1100 0.929 . S
C1043 C1040 1.356 . S
C1043 C1045 1.358 . S
C1043 H1101 0.930 . S
C1044 N1041 1.314 . S
C1044 C1042 1.353 . S
C1044 H1102 0.930 . S
C1045 N1041 1.279 . S
C1045 C1043 1.358 . S
C1045 H1103 0.930 . S
C1046 C1049 1.348 . S
C1046 C1050 1.356 . S
C1046 O1097 1.325 . S
C1047 N1048 1.279 . S
C1047 C1050 1.358 . S
C1047 H1104 0.930 . S
N1048 C1047 1.279 . S
N1048 C1051 1.314 . S
C1049 C1046 1.348 . S
C1049 C1051 1.353 . S
C1049 H1105 0.929 . S
C1050 C1046 1.356 . S
C1050 C1047 1.358 . S
C1050 H1106 0.930 . S
C1051 N1048 1.314 . S
C1051 C1049 1.353 . S
C1051 H1107 0.930 . S
C1052 N1053 1.314 . S
C1052 C1057 1.353 . S
C1052 H1058 0.930 . S
N1053 Li1036 1.990 . S
N1053 C1052 1.314 . S
N1053 C1055 1.279 . S
C1054 C1055 1.358 . S
C1054 C1056 1.356 . S
C1054 H1108 0.930 . S
C1055 N1053 1.279 . S
C1055 C1054 1.358 . S
C1055 H1059 0.930 . S
C1056 C1054 1.356 . S
C1056 C1057 1.348 . S
C1057 C1052 1.353 . S
C1057 C1056 1.348 . S
C1057 H1109 0.929 . S
H1058 C1052 0.930 . S
H1059 C1055 0.930 . S
C1060 N1061 1.314 . S
C1060 C1062 1.353 . S
C1060 H1066 0.930 . S
N1061 Li1037 1.990 . S
N1061 C1060 1.314 . S
N1061 C1064 1.279 . S
C1062 C1060 1.353 . S
C1062 C1065 1.348 . S
C1062 H1110 0.929 . S
C1063 C1064 1.358 . S
C1063 C1065 1.356 . S
C1063 H1111 0.930 . S
C1064 N1061 1.279 . S
C1064 C1063 1.358 . S
C1064 H1067 0.930 . S
C1065 C1062 1.348 . S
C1065 C1063 1.356 . S
H1066 C1060 0.930 . S
H1067 C1064 0.930 . S
C1068 C1070 1.348 . S
C1068 C1071 1.356 . S
C1068 O1098 1.325 . S
N1069 C1072 1.314 . S
N1069 C1073 1.279 . S
C1070 C1068 1.348 . S
C1070 C1072 1.353 . S
C1070 H1112 0.929 . S
C1071 C1068 1.356 . S
C1071 C1073 1.358 . S
C1071 H1113 0.930 . S
C1072 N1069 1.314 . S
C1072 C1070 1.353 . S
C1072 H1114 0.930 . S
C1073 N1069 1.279 . S
C1073 C1071 1.358 . S
C1073 H1115 0.930 . S
C1074 C1075 1.348 . S
C1074 C1076 1.356 . S
C1074 O1099 1.325 . S
C1075 C1074 1.348 . S
C1075 C1077 1.353 . S
C1075 H1116 0.929 . S
C1076 C1074 1.356 . S
C1076 C1078 1.358 . S
C1076 H1117 0.930 . S
C1077 C1075 1.353 . S
C1077 N1079 1.314 . S
C1077 H1118 0.930 . S
C1078 C1076 1.358 . S
C1078 N1079 1.279 . S
C1078 H1119 0.930 . S
N1079 C1077 1.314 . S
N1079 C1078 1.279 . S
C1080 C1082 1.353 . S
C1080 N1083 1.314 . S
C1080 H1086 0.930 . S
C1081 N1083 1.279 . S
C1081 C1084 1.358 . S
C1081 H1087 0.930 . S
C1082 C1080 1.353 . S
C1082 C1085 1.348 . S
C1082 H1120 0.929 . S
N1083 Li1038 1.990 . S
N1083 C1080 1.314 . S
N1083 C1081 1.279 . S
C1084 C1081 1.358 . S
C1084 C1085 1.356 . S
C1084 H1121 0.930 . S
C1085 C1082 1.348 . S
C1085 C1084 1.356 . S
H1086 C1080 0.930 . S
H1087 C1081 0.930 . S
C1088 N1089 1.314 . S
C1088 C1090 1.353 . S
C1088 H1094 0.930 . S
N1089 Li1039 1.990 . S
N1089 C1088 1.314 . S
N1089 C1092 1.279 . S
C1090 C1088 1.353 . S
C1090 C1093 1.348 . S
C1090 H1122 0.929 . S
C1091 C1092 1.358 . S
C1091 C1093 1.356 . S
C1091 H1123 0.930 . S
C1092 N1089 1.279 . S
C1092 C1091 1.358 . S
C1092 H1095 0.930 . S
C1093 C1090 1.348 . S
C1093 C1091 1.356 . S
H1094 C1088 0.930 . S
H1095 C1092 0.930 . S
O1096 Li1036 1.956 . S
O1096 Li1037 1.970 . S
O1096 Li1038 1.961 . S
O1096 C1040 1.325 . S
O1097 Li1036 1.970 . S
O1097 Li1037 1.956 . S
O1097 Li1039 1.961 . S
O1097 C1046 1.325 . S
O1098 Li1036 1.961 . S
O1098 Li1038 1.956 . S
O1098 Li1039 1.970 . S
O1098 C1068 1.325 . S
O1099 Li1037 1.961 . S
O1099 Li1038 1.970 . S
O1099 Li1039 1.956 . S
O1099 C1074 1.325 . S
H1100 C1042 0.929 . S
H1101 C1043 0.930 . S
H1102 C1044 0.930 . S
H1103 C1045 0.930 . S
H1104 C1047 0.930 . S
H1105 C1049 0.929 . S
H1106 C1050 0.930 . S
H1107 C1051 0.930 . S
H1108 C1054 0.930 . S
H1109 C1057 0.929 . S
H1110 C1062 0.929 . S
H1111 C1063 0.930 . S
H1112 C1070 0.929 . S
H1113 C1071 0.930 . S
H1114 C1072 0.930 . S
H1115 C1073 0.930 . S
H1116 C1075 0.929 . S
H1117 C1076 0.930 . S
H1118 C1077 0.930 . S
H1119 C1078 0.930 . S
H1120 C1082 0.929 . S
H1121 C1084 0.930 . S
H1122 C1090 0.929 . S
H1123 C1091 0.930 . S
Li1124 N1141 1.990 . S
Li1124 O1184 1.956 . S
Li1124 O1185 1.970 . S
Li1124 O1186 1.961 . S
Li1125 N1149 1.990 . S
Li1125 O1184 1.970 . S
Li1125 O1185 1.956 . S
Li1125 O1187 1.961 . S
Li1126 N1171 1.990 . S
Li1126 O1184 1.961 . S
Li1126 O1186 1.956 . S
Li1126 O1187 1.970 . S
Li1127 N1177 1.990 . S
Li1127 O1185 1.961 . S
Li1127 O1186 1.970 . S
Li1127 O1187 1.956 . S
C1128 C1130 1.348 . S
C1128 C1131 1.356 . S
C1128 O1184 1.325 . S
N1129 C1132 1.314 . S
N1129 C1133 1.279 . S
C1130 C1128 1.348 . S
C1130 C1132 1.353 . S
C1130 H1188 0.929 . S
C1131 C1128 1.356 . S
C1131 C1133 1.358 . S
C1131 H1189 0.930 . S
C1132 N1129 1.314 . S
C1132 C1130 1.353 . S
C1132 H1190 0.930 . S
C1133 N1129 1.279 . S
C1133 C1131 1.358 . S
C1133 H1191 0.930 . S
C1134 C1137 1.348 . S
C1134 C1138 1.356 . S
C1134 O1185 1.325 . S
C1135 N1136 1.279 . S
C1135 C1138 1.358 . S
C1135 H1192 0.930 . S
N1136 C1135 1.279 . S
N1136 C1139 1.314 . S
C1137 C1134 1.348 . S
C1137 C1139 1.353 . S
C1137 H1193 0.929 . S
C1138 C1134 1.356 . S
C1138 C1135 1.358 . S
C1138 H1194 0.930 . S
C1139 N1136 1.314 . S
C1139 C1137 1.353 . S
C1139 H1195 0.930 . S
C1140 N1141 1.314 . S
C1140 C1145 1.353 . S
C1140 H1146 0.930 . S
N1141 Li1124 1.990 . S
N1141 C1140 1.314 . S
N1141 C1143 1.279 . S
C1142 C1143 1.358 . S
C1142 C1144 1.356 . S
C1142 H1196 0.930 . S
C1143 N1141 1.279 . S
C1143 C1142 1.358 . S
C1143 H1147 0.930 . S
C1144 C1142 1.356 . S
C1144 C1145 1.348 . S
C1145 C1140 1.353 . S
C1145 C1144 1.348 . S
C1145 H1197 0.929 . S
H1146 C1140 0.930 . S
H1147 C1143 0.930 . S
C1148 N1149 1.314 . S
C1148 C1150 1.353 . S
C1148 H1154 0.930 . S
N1149 Li1125 1.990 . S
N1149 C1148 1.314 . S
N1149 C1152 1.279 . S
C1150 C1148 1.353 . S
C1150 C1153 1.348 . S
C1150 H1198 0.929 . S
C1151 C1152 1.358 . S
C1151 C1153 1.356 . S
C1151 H1199 0.930 . S
C1152 N1149 1.279 . S
C1152 C1151 1.358 . S
C1152 H1155 0.930 . S
C1153 C1150 1.348 . S
C1153 C1151 1.356 . S
H1154 C1148 0.930 . S
H1155 C1152 0.930 . S
C1156 C1158 1.348 . S
C1156 C1159 1.356 . S
C1156 O1186 1.325 . S
N1157 C1160 1.314 . S
N1157 C1161 1.279 . S
C1158 C1156 1.348 . S
C1158 C1160 1.353 . S
C1158 H1200 0.929 . S
C1159 C1156 1.356 . S
C1159 C1161 1.358 . S
C1159 H1201 0.930 . S
C1160 N1157 1.314 . S
C1160 C1158 1.353 . S
C1160 H1202 0.930 . S
C1161 N1157 1.279 . S
C1161 C1159 1.358 . S
C1161 H1203 0.930 . S
C1162 C1163 1.348 . S
C1162 C1164 1.356 . S
C1162 O1187 1.325 . S
C1163 C1162 1.348 . S
C1163 C1165 1.353 . S
C1163 H1204 0.929 . S
C1164 C1162 1.356 . S
C1164 C1166 1.358 . S
C1164 H1205 0.930 . S
C1165 C1163 1.353 . S
C1165 N1167 1.314 . S
C1165 H1206 0.930 . S
C1166 C1164 1.358 . S
C1166 N1167 1.279 . S
C1166 H1207 0.930 . S
N1167 C1165 1.314 . S
N1167 C1166 1.279 . S
C1168 C1170 1.353 . S
C1168 N1171 1.314 . S
C1168 H1174 0.930 . S
C1169 N1171 1.279 . S
C1169 C1172 1.358 . S
C1169 H1175 0.930 . S
C1170 C1168 1.353 . S
C1170 C1173 1.348 . S
C1170 H1208 0.929 . S
N1171 Li1126 1.990 . S
N1171 C1168 1.314 . S
N1171 C1169 1.279 . S
C1172 C1169 1.358 . S
C1172 C1173 1.356 . S
C1172 H1209 0.930 . S
C1173 C1170 1.348 . S
C1173 C1172 1.356 . S
H1174 C1168 0.930 . S
H1175 C1169 0.930 . S
C1176 N1177 1.314 . S
C1176 C1178 1.353 . S
C1176 H1182 0.930 . S
N1177 Li1127 1.990 . S
N1177 C1176 1.314 . S
N1177 C1180 1.279 . S
C1178 C1176 1.353 . S
C1178 C1181 1.348 . S
C1178 H1210 0.929 . S
C1179 C1180 1.358 . S
C1179 C1181 1.356 . S
C1179 H1211 0.930 . S
C1180 N1177 1.279 . S
C1180 C1179 1.358 . S
C1180 H1183 0.930 . S
C1181 C1178 1.348 . S
C1181 C1179 1.356 . S
H1182 C1176 0.930 . S
H1183 C1180 0.930 . S
O1184 Li1124 1.956 . S
O1184 Li1125 1.970 . S
O1184 Li1126 1.961 . S
O1184 C1128 1.325 . S
O1185 Li1124 1.970 . S
O1185 Li1125 1.956 . S
O1185 Li1127 1.961 . S
O1185 C1134 1.325 . S
O1186 Li1124 1.961 . S
O1186 Li1126 1.956 . S
O1186 Li1127 1.970 . S
O1186 C1156 1.325 . S
O1187 Li1125 1.961 . S
O1187 Li1126 1.970 . S
O1187 Li1127 1.956 . S
O1187 C1162 1.325 . S
H1188 C1130 0.929 . S
H1189 C1131 0.930 . S
H1190 C1132 0.930 . S
H1191 C1133 0.930 . S
H1192 C1135 0.930 . S
H1193 C1137 0.929 . S
H1194 C1138 0.930 . S
H1195 C1139 0.930 . S
H1196 C1142 0.930 . S
H1197 C1145 0.929 . S
H1198 C1150 0.929 . S
H1199 C1151 0.930 . S
H1200 C1158 0.929 . S
H1201 C1159 0.930 . S
H1202 C1160 0.930 . S
H1203 C1161 0.930 . S
H1204 C1163 0.929 . S
H1205 C1164 0.930 . S
H1206 C1165 0.930 . S
H1207 C1166 0.930 . S
H1208 C1170 0.929 . S
H1209 C1172 0.930 . S
H1210 C1178 0.929 . S
H1211 C1179 0.930 . S
C1212 C1213 1.391 . S
C1212 C1214 1.394 . S
C1212 H1228 0.931 . S
C1213 C1212 1.391 . S
C1213 C1217 1.376 . S
C1214 C1212 1.394 . S
C1214 C1215 1.369 . S
C1214 C1218 1.531 . S
C1215 C1214 1.369 . S
C1215 C1216 1.410 . S
C1215 C1223 1.503 . S
C1216 C1215 1.410 . S
C1216 C1217 1.392 . S
C1216 C1219 1.511 . S
C1217 C1213 1.376 . S
C1217 C1216 1.392 . S
C1217 H1229 0.929 . S
C1218 C1214 1.531 . S
C1218 H1230 0.960 . S
C1218 H1231 0.962 . S
C1218 H1232 0.960 . S
C1219 C1216 1.511 . S
C1219 H1233 0.961 . S
C1219 H1234 0.961 . S
C1219 H1235 0.961 . S
C1220 C1221 1.370 . S
C1220 C1222 1.363 . S
C1220 H1236 0.931 . S
C1221 C1220 1.370 . S
C1221 C1225 1.408 . S
C1222 C1220 1.363 . S
C1222 C1223 1.370 . S
C1222 C1226 1.524 . S
C1223 C1215 1.503 . S
C1223 C1222 1.370 . S
C1223 C1224 1.403 . S
C1224 C1223 1.403 . S
C1224 C1225 1.404 . S
C1224 C1227 1.539 . S
C1225 C1221 1.408 . S
C1225 C1224 1.404 . S
C1225 H1237 0.930 . S
C1226 C1222 1.524 . S
C1226 H1238 0.956 . S
C1226 H1239 0.961 . S
C1226 H1240 0.961 . S
C1227 C1224 1.539 . S
C1227 H1241 0.958 . S
C1227 H1242 0.961 . S
C1227 H1243 0.960 . S
H1228 C1212 0.931 . S
H1229 C1217 0.929 . S
H1230 C1218 0.960 . S
H1231 C1218 0.962 . S
H1232 C1218 0.960 . S
H1233 C1219 0.961 . S
H1234 C1219 0.961 . S
H1235 C1219 0.961 . S
H1236 C1220 0.931 . S
H1237 C1225 0.930 . S
H1238 C1226 0.956 . S
H1239 C1226 0.961 . S
H1240 C1226 0.961 . S
H1241 C1227 0.958 . S
H1242 C1227 0.961 . S
H1243 C1227 0.960 . S
C1244 C1245 1.391 . S
C1244 C1246 1.394 . S
C1244 H1260 0.931 . S
C1245 C1244 1.391 . S
C1245 C1249 1.376 . S
C1246 C1244 1.394 . S
C1246 C1247 1.369 . S
C1246 C1250 1.531 . S
C1247 C1246 1.369 . S
C1247 C1248 1.410 . S
C1247 C1255 1.503 . S
C1248 C1247 1.410 . S
C1248 C1249 1.392 . S
C1248 C1251 1.511 . S
C1249 C1245 1.376 . S
C1249 C1248 1.392 . S
C1249 H1261 0.929 . S
C1250 C1246 1.531 . S
C1250 H1262 0.960 . S
C1250 H1263 0.962 . S
C1250 H1264 0.960 . S
C1251 C1248 1.511 . S
C1251 H1265 0.961 . S
C1251 H1266 0.961 . S
C1251 H1267 0.961 . S
C1252 C1253 1.370 . S
C1252 C1254 1.363 . S
C1252 H1268 0.931 . S
C1253 C1252 1.370 . S
C1253 C1257 1.408 . S
C1254 C1252 1.363 . S
C1254 C1255 1.370 . S
C1254 C1258 1.524 . S
C1255 C1247 1.503 . S
C1255 C1254 1.370 . S
C1255 C1256 1.403 . S
C1256 C1255 1.403 . S
C1256 C1257 1.404 . S
C1256 C1259 1.539 . S
C1257 C1253 1.408 . S
C1257 C1256 1.404 . S
C1257 H1269 0.930 . S
C1258 C1254 1.524 . S
C1258 H1270 0.956 . S
C1258 H1271 0.961 . S
C1258 H1272 0.961 . S
C1259 C1256 1.539 . S
C1259 H1273 0.958 . S
C1259 H1274 0.961 . S
C1259 H1275 0.960 . S
H1260 C1244 0.931 . S
H1261 C1249 0.929 . S
H1262 C1250 0.960 . S
H1263 C1250 0.962 . S
H1264 C1250 0.960 . S
H1265 C1251 0.961 . S
H1266 C1251 0.961 . S
H1267 C1251 0.961 . S
H1268 C1252 0.931 . S
H1269 C1257 0.930 . S
H1270 C1258 0.956 . S
H1271 C1258 0.961 . S
H1272 C1258 0.961 . S
H1273 C1259 0.958 . S
H1274 C1259 0.961 . S
H1275 C1259 0.960 . S
C1276 C1277 1.391 . S
C1276 C1278 1.394 . S
C1276 H1292 0.931 . S
C1277 C1276 1.391 . S
C1277 C1281 1.376 . S
C1278 C1276 1.394 . S
C1278 C1279 1.369 . S
C1278 C1282 1.531 . S
C1279 C1278 1.369 . S
C1279 C1280 1.410 . S
C1279 C1287 1.503 . S
C1280 C1279 1.410 . S
C1280 C1281 1.392 . S
C1280 C1283 1.511 . S
C1281 C1277 1.376 . S
C1281 C1280 1.392 . S
C1281 H1293 0.929 . S
C1282 C1278 1.531 . S
C1282 H1294 0.960 . S
C1282 H1295 0.962 . S
C1282 H1296 0.960 . S
C1283 C1280 1.511 . S
C1283 H1297 0.961 . S
C1283 H1298 0.961 . S
C1283 H1299 0.961 . S
C1284 C1285 1.370 . S
C1284 C1286 1.363 . S
C1284 H1300 0.931 . S
C1285 C1284 1.370 . S
C1285 C1289 1.408 . S
C1286 C1284 1.363 . S
C1286 C1287 1.370 . S
C1286 C1290 1.524 . S
C1287 C1279 1.503 . S
C1287 C1286 1.370 . S
C1287 C1288 1.403 . S
C1288 C1287 1.403 . S
C1288 C1289 1.404 . S
C1288 C1291 1.539 . S
C1289 C1285 1.408 . S
C1289 C1288 1.404 . S
C1289 H1301 0.930 . S
C1290 C1286 1.524 . S
C1290 H1302 0.956 . S
C1290 H1303 0.961 . S
C1290 H1304 0.961 . S
C1291 C1288 1.539 . S
C1291 H1305 0.958 . S
C1291 H1306 0.961 . S
C1291 H1307 0.960 . S
H1292 C1276 0.931 . S
H1293 C1281 0.929 . S
H1294 C1282 0.960 . S
H1295 C1282 0.962 . S
H1296 C1282 0.960 . S
H1297 C1283 0.961 . S
H1298 C1283 0.961 . S
H1299 C1283 0.961 . S
H1300 C1284 0.931 . S
H1301 C1289 0.930 . S
H1302 C1290 0.956 . S
H1303 C1290 0.961 . S
H1304 C1290 0.961 . S
H1305 C1291 0.958 . S
H1306 C1291 0.961 . S
H1307 C1291 0.960 . S
C1308 C1309 1.391 . S
C1308 C1310 1.394 . S
C1308 H1324 0.931 . S
C1309 C1308 1.391 . S
C1309 C1313 1.376 . S
C1310 C1308 1.394 . S
C1310 C1311 1.369 . S
C1310 C1314 1.531 . S
C1311 C1310 1.369 . S
C1311 C1312 1.410 . S
C1311 C1319 1.503 . S
C1312 C1311 1.410 . S
C1312 C1313 1.392 . S
C1312 C1315 1.511 . S
C1313 C1309 1.376 . S
C1313 C1312 1.392 . S
C1313 H1325 0.929 . S
C1314 C1310 1.531 . S
C1314 H1326 0.960 . S
C1314 H1327 0.962 . S
C1314 H1328 0.960 . S
C1315 C1312 1.511 . S
C1315 H1329 0.961 . S
C1315 H1330 0.961 . S
C1315 H1331 0.961 . S
C1316 C1317 1.370 . S
C1316 C1318 1.363 . S
C1316 H1332 0.931 . S
C1317 C1316 1.370 . S
C1317 C1321 1.408 . S
C1318 C1316 1.363 . S
C1318 C1319 1.370 . S
C1318 C1322 1.524 . S
C1319 C1311 1.503 . S
C1319 C1318 1.370 . S
C1319 C1320 1.403 . S
C1320 C1319 1.403 . S
C1320 C1321 1.404 . S
C1320 C1323 1.539 . S
C1321 C1317 1.408 . S
C1321 C1320 1.404 . S
C1321 H1333 0.930 . S
C1322 C1318 1.524 . S
C1322 H1334 0.956 . S
C1322 H1335 0.961 . S
C1322 H1336 0.961 . S
C1323 C1320 1.539 . S
C1323 H1337 0.958 . S
C1323 H1338 0.961 . S
C1323 H1339 0.960 . S
H1324 C1308 0.931 . S
H1325 C1313 0.929 . S
H1326 C1314 0.960 . S
H1327 C1314 0.962 . S
H1328 C1314 0.960 . S
H1329 C1315 0.961 . S
H1330 C1315 0.961 . S
H1331 C1315 0.961 . S
H1332 C1316 0.931 . S
H1333 C1321 0.930 . S
H1334 C1322 0.956 . S
H1335 C1322 0.961 . S
H1336 C1322 0.961 . S
H1337 C1323 0.958 . S
H1338 C1323 0.961 . S
H1339 C1323 0.960 . S
C1340 C1341 1.391 . S
C1340 C1342 1.394 . S
C1340 H1356 0.931 . S
C1341 C1340 1.391 . S
C1341 C1345 1.376 . S
C1342 C1340 1.394 . S
C1342 C1343 1.369 . S
C1342 C1346 1.531 . S
C1343 C1342 1.369 . S
C1343 C1344 1.410 . S
C1343 C1351 1.503 . S
C1344 C1343 1.410 . S
C1344 C1345 1.392 . S
C1344 C1347 1.511 . S
C1345 C1341 1.376 . S
C1345 C1344 1.392 . S
C1345 H1357 0.929 . S
C1346 C1342 1.531 . S
C1346 H1358 0.960 . S
C1346 H1359 0.962 . S
C1346 H1360 0.960 . S
C1347 C1344 1.511 . S
C1347 H1361 0.961 . S
C1347 H1362 0.961 . S
C1347 H1363 0.961 . S
C1348 C1349 1.370 . S
C1348 C1350 1.363 . S
C1348 H1364 0.931 . S
C1349 C1348 1.370 . S
C1349 C1353 1.408 . S
C1350 C1348 1.363 . S
C1350 C1351 1.370 . S
C1350 C1354 1.524 . S
C1351 C1343 1.503 . S
C1351 C1350 1.370 . S
C1351 C1352 1.403 . S
C1352 C1351 1.403 . S
C1352 C1353 1.404 . S
C1352 C1355 1.539 . S
C1353 C1349 1.408 . S
C1353 C1352 1.404 . S
C1353 H1365 0.930 . S
C1354 C1350 1.524 . S
C1354 H1366 0.956 . S
C1354 H1367 0.961 . S
C1354 H1368 0.961 . S
C1355 C1352 1.539 . S
C1355 H1369 0.958 . S
C1355 H1370 0.961 . S
C1355 H1371 0.960 . S
H1356 C1340 0.931 . S
H1357 C1345 0.929 . S
H1358 C1346 0.960 . S
H1359 C1346 0.962 . S
H1360 C1346 0.960 . S
H1361 C1347 0.961 . S
H1362 C1347 0.961 . S
H1363 C1347 0.961 . S
H1364 C1348 0.931 . S
H1365 C1353 0.930 . S
H1366 C1354 0.956 . S
H1367 C1354 0.961 . S
H1368 C1354 0.961 . S
H1369 C1355 0.958 . S
H1370 C1355 0.961 . S
H1371 C1355 0.960 . S
C1372 C1373 1.391 . S
C1372 C1374 1.394 . S
C1372 H1388 0.931 . S
C1373 C1372 1.391 . S
C1373 C1377 1.376 . S
C1374 C1372 1.394 . S
C1374 C1375 1.369 . S
C1374 C1378 1.531 . S
C1375 C1374 1.369 . S
C1375 C1376 1.410 . S
C1375 C1383 1.503 . S
C1376 C1375 1.410 . S
C1376 C1377 1.392 . S
C1376 C1379 1.511 . S
C1377 C1373 1.376 . S
C1377 C1376 1.392 . S
C1377 H1389 0.929 . S
C1378 C1374 1.531 . S
C1378 H1390 0.960 . S
C1378 H1391 0.962 . S
C1378 H1392 0.960 . S
C1379 C1376 1.511 . S
C1379 H1393 0.961 . S
C1379 H1394 0.961 . S
C1379 H1395 0.961 . S
C1380 C1381 1.370 . S
C1380 C1382 1.363 . S
C1380 H1396 0.931 . S
C1381 C1380 1.370 . S
C1381 C1385 1.408 . S
C1382 C1380 1.363 . S
C1382 C1383 1.370 . S
C1382 C1386 1.524 . S
C1383 C1375 1.503 . S
C1383 C1382 1.370 . S
C1383 C1384 1.403 . S
C1384 C1383 1.403 . S
C1384 C1385 1.404 . S
C1384 C1387 1.539 . S
C1385 C1381 1.408 . S
C1385 C1384 1.404 . S
C1385 H1397 0.930 . S
C1386 C1382 1.524 . S
C1386 H1398 0.956 . S
C1386 H1399 0.961 . S
C1386 H1400 0.961 . S
C1387 C1384 1.539 . S
C1387 H1401 0.958 . S
C1387 H1402 0.961 . S
C1387 H1403 0.960 . S
H1388 C1372 0.931 . S
H1389 C1377 0.929 . S
H1390 C1378 0.960 . S
H1391 C1378 0.962 . S
H1392 C1378 0.960 . S
H1393 C1379 0.961 . S
H1394 C1379 0.961 . S
H1395 C1379 0.961 . S
H1396 C1380 0.931 . S
H1397 C1385 0.930 . S
H1398 C1386 0.956 . S
H1399 C1386 0.961 . S
H1400 C1386 0.961 . S
H1401 C1387 0.958 . S
H1402 C1387 0.961 . S
H1403 C1387 0.960 . S
C1404 C1405 1.391 . S
C1404 C1406 1.394 . S
C1404 H1420 0.931 . S
C1405 C1404 1.391 . S
C1405 C1409 1.376 . S
C1406 C1404 1.394 . S
C1406 C1407 1.369 . S
C1406 C1410 1.531 . S
C1407 C1406 1.369 . S
C1407 C1408 1.410 . S
C1407 C1415 1.503 . S
C1408 C1407 1.410 . S
C1408 C1409 1.392 . S
C1408 C1411 1.511 . S
C1409 C1405 1.376 . S
C1409 C1408 1.392 . S
C1409 H1421 0.929 . S
C1410 C1406 1.531 . S
C1410 H1422 0.960 . S
C1410 H1423 0.962 . S
C1410 H1424 0.960 . S
C1411 C1408 1.511 . S
C1411 H1425 0.961 . S
C1411 H1426 0.961 . S
C1411 H1427 0.961 . S
C1412 C1413 1.370 . S
C1412 C1414 1.363 . S
C1412 H1428 0.931 . S
C1413 C1412 1.370 . S
C1413 C1417 1.408 . S
C1414 C1412 1.363 . S
C1414 C1415 1.370 . S
C1414 C1418 1.524 . S
C1415 C1407 1.503 . S
C1415 C1414 1.370 . S
C1415 C1416 1.403 . S
C1416 C1415 1.403 . S
C1416 C1417 1.404 . S
C1416 C1419 1.539 . S
C1417 C1413 1.408 . S
C1417 C1416 1.404 . S
C1417 H1429 0.930 . S
C1418 C1414 1.524 . S
C1418 H1430 0.956 . S
C1418 H1431 0.961 . S
C1418 H1432 0.961 . S
C1419 C1416 1.539 . S
C1419 H1433 0.958 . S
C1419 H1434 0.961 . S
C1419 H1435 0.960 . S
H1420 C1404 0.931 . S
H1421 C1409 0.929 . S
H1422 C1410 0.960 . S
H1423 C1410 0.962 . S
H1424 C1410 0.960 . S
H1425 C1411 0.961 . S
H1426 C1411 0.961 . S
H1427 C1411 0.961 . S
H1428 C1412 0.931 . S
H1429 C1417 0.930 . S
H1430 C1418 0.956 . S
H1431 C1418 0.961 . S
H1432 C1418 0.961 . S
H1433 C1419 0.958 . S
H1434 C1419 0.961 . S
H1435 C1419 0.960 . S
C1436 C1437 1.391 . S
C1436 C1438 1.394 . S
C1436 H1452 0.931 . S
C1437 C1436 1.391 . S
C1437 C1441 1.376 . S
C1438 C1436 1.394 . S
C1438 C1439 1.369 . S
C1438 C1442 1.531 . S
C1439 C1438 1.369 . S
C1439 C1440 1.410 . S
C1439 C1447 1.503 . S
C1440 C1439 1.410 . S
C1440 C1441 1.392 . S
C1440 C1443 1.511 . S
C1441 C1437 1.376 . S
C1441 C1440 1.392 . S
C1441 H1453 0.929 . S
C1442 C1438 1.531 . S
C1442 H1454 0.960 . S
C1442 H1455 0.962 . S
C1442 H1456 0.960 . S
C1443 C1440 1.511 . S
C1443 H1457 0.961 . S
C1443 H1458 0.961 . S
C1443 H1459 0.961 . S
C1444 C1445 1.370 . S
C1444 C1446 1.363 . S
C1444 H1460 0.931 . S
C1445 C1444 1.370 . S
C1445 C1449 1.408 . S
C1446 C1444 1.363 . S
C1446 C1447 1.370 . S
C1446 C1450 1.524 . S
C1447 C1439 1.503 . S
C1447 C1446 1.370 . S
C1447 C1448 1.403 . S
C1448 C1447 1.403 . S
C1448 C1449 1.404 . S
C1448 C1451 1.539 . S
C1449 C1445 1.408 . S
C1449 C1448 1.404 . S
C1449 H1461 0.930 . S
C1450 C1446 1.524 . S
C1450 H1462 0.956 . S
C1450 H1463 0.961 . S
C1450 H1464 0.961 . S
C1451 C1448 1.539 . S
C1451 H1465 0.958 . S
C1451 H1466 0.961 . S
C1451 H1467 0.960 . S
H1452 C1436 0.931 . S
H1453 C1441 0.929 . S
H1454 C1442 0.960 . S
H1455 C1442 0.962 . S
H1456 C1442 0.960 . S
H1457 C1443 0.961 . S
H1458 C1443 0.961 . S
H1459 C1443 0.961 . S
H1460 C1444 0.931 . S
H1461 C1449 0.930 . S
H1462 C1450 0.956 . S
H1463 C1450 0.961 . S
H1464 C1450 0.961 . S
H1465 C1451 0.958 . S
H1466 C1451 0.961 . S
H1467 C1451 0.960 . S
C1468 C1469 1.391 . S
C1468 C1470 1.394 . S
C1468 H1484 0.931 . S
C1469 C1468 1.391 . S
C1469 C1473 1.376 . S
C1470 C1468 1.394 . S
C1470 C1471 1.369 . S
C1470 C1474 1.531 . S
C1471 C1470 1.369 . S
C1471 C1472 1.410 . S
C1471 C1479 1.503 . S
C1472 C1471 1.410 . S
C1472 C1473 1.392 . S
C1472 C1475 1.511 . S
C1473 C1469 1.376 . S
C1473 C1472 1.392 . S
C1473 H1485 0.929 . S
C1474 C1470 1.531 . S
C1474 H1486 0.960 . S
C1474 H1487 0.962 . S
C1474 H1488 0.960 . S
C1475 C1472 1.511 . S
C1475 H1489 0.961 . S
C1475 H1490 0.961 . S
C1475 H1491 0.961 . S
C1476 C1477 1.370 . S
C1476 C1478 1.363 . S
C1476 H1492 0.931 . S
C1477 C1476 1.370 . S
C1477 C1481 1.408 . S
C1478 C1476 1.363 . S
C1478 C1479 1.370 . S
C1478 C1482 1.524 . S
C1479 C1471 1.503 . S
C1479 C1478 1.370 . S
C1479 C1480 1.403 . S
C1480 C1479 1.403 . S
C1480 C1481 1.404 . S
C1480 C1483 1.539 . S
C1481 C1477 1.408 . S
C1481 C1480 1.404 . S
C1481 H1493 0.930 . S
C1482 C1478 1.524 . S
C1482 H1494 0.956 . S
C1482 H1495 0.961 . S
C1482 H1496 0.961 . S
C1483 C1480 1.539 . S
C1483 H1497 0.958 . S
C1483 H1498 0.961 . S
C1483 H1499 0.960 . S
H1484 C1468 0.931 . S
H1485 C1473 0.929 . S
H1486 C1474 0.960 . S
H1487 C1474 0.962 . S
H1488 C1474 0.960 . S
H1489 C1475 0.961 . S
H1490 C1475 0.961 . S
H1491 C1475 0.961 . S
H1492 C1476 0.931 . S
H1493 C1481 0.930 . S
H1494 C1482 0.956 . S
H1495 C1482 0.961 . S
H1496 C1482 0.961 . S
H1497 C1483 0.958 . S
H1498 C1483 0.961 . S
H1499 C1483 0.960 . S
C1500 C1501 1.391 . S
C1500 C1502 1.394 . S
C1500 H1516 0.931 . S
C1501 C1500 1.391 . S
C1501 C1505 1.376 . S
C1502 C1500 1.394 . S
C1502 C1503 1.369 . S
C1502 C1506 1.531 . S
C1503 C1502 1.369 . S
C1503 C1504 1.410 . S
C1503 C1511 1.503 . S
C1504 C1503 1.410 . S
C1504 C1505 1.392 . S
C1504 C1507 1.511 . S
C1505 C1501 1.376 . S
C1505 C1504 1.392 . S
C1505 H1517 0.929 . S
C1506 C1502 1.531 . S
C1506 H1518 0.960 . S
C1506 H1519 0.962 . S
C1506 H1520 0.960 . S
C1507 C1504 1.511 . S
C1507 H1521 0.961 . S
C1507 H1522 0.961 . S
C1507 H1523 0.961 . S
C1508 C1509 1.370 . S
C1508 C1510 1.363 . S
C1508 H1524 0.931 . S
C1509 C1508 1.370 . S
C1509 C1513 1.408 . S
C1510 C1508 1.363 . S
C1510 C1511 1.370 . S
C1510 C1514 1.524 . S
C1511 C1503 1.503 . S
C1511 C1510 1.370 . S
C1511 C1512 1.403 . S
C1512 C1511 1.403 . S
C1512 C1513 1.404 . S
C1512 C1515 1.539 . S
C1513 C1509 1.408 . S
C1513 C1512 1.404 . S
C1513 H1525 0.930 . S
C1514 C1510 1.524 . S
C1514 H1526 0.956 . S
C1514 H1527 0.961 . S
C1514 H1528 0.961 . S
C1515 C1512 1.539 . S
C1515 H1529 0.958 . S
C1515 H1530 0.961 . S
C1515 H1531 0.960 . S
H1516 C1500 0.931 . S
H1517 C1505 0.929 . S
H1518 C1506 0.960 . S
H1519 C1506 0.962 . S
H1520 C1506 0.960 . S
H1521 C1507 0.961 . S
H1522 C1507 0.961 . S
H1523 C1507 0.961 . S
H1524 C1508 0.931 . S
H1525 C1513 0.930 . S
H1526 C1514 0.956 . S
H1527 C1514 0.961 . S
H1528 C1514 0.961 . S
H1529 C1515 0.958 . S
H1530 C1515 0.961 . S
H1531 C1515 0.960 . S
C1532 C1533 1.391 . S
C1532 C1534 1.394 . S
C1532 H1548 0.931 . S
C1533 C1532 1.391 . S
C1533 C1537 1.376 . S
C1534 C1532 1.394 . S
C1534 C1535 1.369 . S
C1534 C1538 1.531 . S
C1535 C1534 1.369 . S
C1535 C1536 1.410 . S
C1535 C1543 1.503 . S
C1536 C1535 1.410 . S
C1536 C1537 1.392 . S
C1536 C1539 1.511 . S
C1537 C1533 1.376 . S
C1537 C1536 1.392 . S
C1537 H1549 0.929 . S
C1538 C1534 1.531 . S
C1538 H1550 0.960 . S
C1538 H1551 0.962 . S
C1538 H1552 0.960 . S
C1539 C1536 1.511 . S
C1539 H1553 0.961 . S
C1539 H1554 0.961 . S
C1539 H1555 0.961 . S
C1540 C1541 1.370 . S
C1540 C1542 1.363 . S
C1540 H1556 0.931 . S
C1541 C1540 1.370 . S
C1541 C1545 1.408 . S
C1542 C1540 1.363 . S
C1542 C1543 1.370 . S
C1542 C1546 1.524 . S
C1543 C1535 1.503 . S
C1543 C1542 1.370 . S
C1543 C1544 1.403 . S
C1544 C1543 1.403 . S
C1544 C1545 1.404 . S
C1544 C1547 1.539 . S
C1545 C1541 1.408 . S
C1545 C1544 1.404 . S
C1545 H1557 0.930 . S
C1546 C1542 1.524 . S
C1546 H1558 0.956 . S
C1546 H1559 0.961 . S
C1546 H1560 0.961 . S
C1547 C1544 1.539 . S
C1547 H1561 0.958 . S
C1547 H1562 0.961 . S
C1547 H1563 0.960 . S
H1548 C1532 0.931 . S
H1549 C1537 0.929 . S
H1550 C1538 0.960 . S
H1551 C1538 0.962 . S
H1552 C1538 0.960 . S
H1553 C1539 0.961 . S
H1554 C1539 0.961 . S
H1555 C1539 0.961 . S
H1556 C1540 0.931 . S
H1557 C1545 0.930 . S
H1558 C1546 0.956 . S
H1559 C1546 0.961 . S
H1560 C1546 0.961 . S
H1561 C1547 0.958 . S
H1562 C1547 0.961 . S
H1563 C1547 0.960 . S
C1564 C1565 1.391 . S
C1564 C1566 1.394 . S
C1564 H1580 0.931 . S
C1565 C1564 1.391 . S
C1565 C1569 1.376 . S
C1566 C1564 1.394 . S
C1566 C1567 1.369 . S
C1566 C1570 1.531 . S
C1567 C1566 1.369 . S
C1567 C1568 1.410 . S
C1567 C1575 1.503 . S
C1568 C1567 1.410 . S
C1568 C1569 1.392 . S
C1568 C1571 1.511 . S
C1569 C1565 1.376 . S
C1569 C1568 1.392 . S
C1569 H1581 0.929 . S
C1570 C1566 1.531 . S
C1570 H1582 0.960 . S
C1570 H1583 0.962 . S
C1570 H1584 0.960 . S
C1571 C1568 1.511 . S
C1571 H1585 0.961 . S
C1571 H1586 0.961 . S
C1571 H1587 0.961 . S
C1572 C1573 1.370 . S
C1572 C1574 1.363 . S
C1572 H1588 0.931 . S
C1573 C1572 1.370 . S
C1573 C1577 1.408 . S
C1574 C1572 1.363 . S
C1574 C1575 1.370 . S
C1574 C1578 1.524 . S
C1575 C1567 1.503 . S
C1575 C1574 1.370 . S
C1575 C1576 1.403 . S
C1576 C1575 1.403 . S
C1576 C1577 1.404 . S
C1576 C1579 1.539 . S
C1577 C1573 1.408 . S
C1577 C1576 1.404 . S
C1577 H1589 0.930 . S
C1578 C1574 1.524 . S
C1578 H1590 0.956 . S
C1578 H1591 0.961 . S
C1578 H1592 0.961 . S
C1579 C1576 1.539 . S
C1579 H1593 0.958 . S
C1579 H1594 0.961 . S
C1579 H1595 0.960 . S
H1580 C1564 0.931 . S
H1581 C1569 0.929 . S
H1582 C1570 0.960 . S
H1583 C1570 0.962 . S
H1584 C1570 0.960 . S
H1585 C1571 0.961 . S
H1586 C1571 0.961 . S
H1587 C1571 0.961 . S
H1588 C1572 0.931 . S
H1589 C1577 0.930 . S
H1590 C1578 0.956 . S
H1591 C1578 0.961 . S
H1592 C1578 0.961 . S
H1593 C1579 0.958 . S
H1594 C1579 0.961 . S
H1595 C1579 0.960 . S
C1596 C1597 1.391 . S
C1596 C1598 1.394 . S
C1596 H1612 0.931 . S
C1597 C1596 1.391 . S
C1597 C1601 1.376 . S
C1598 C1596 1.394 . S
C1598 C1599 1.369 . S
C1598 C1602 1.531 . S
C1599 C1598 1.369 . S
C1599 C1600 1.410 . S
C1599 C1607 1.503 . S
C1600 C1599 1.410 . S
C1600 C1601 1.392 . S
C1600 C1603 1.511 . S
C1601 C1597 1.376 . S
C1601 C1600 1.392 . S
C1601 H1613 0.929 . S
C1602 C1598 1.531 . S
C1602 H1614 0.960 . S
C1602 H1615 0.962 . S
C1602 H1616 0.960 . S
C1603 C1600 1.511 . S
C1603 H1617 0.961 . S
C1603 H1618 0.961 . S
C1603 H1619 0.961 . S
C1604 C1605 1.370 . S
C1604 C1606 1.363 . S
C1604 H1620 0.931 . S
C1605 C1604 1.370 . S
C1605 C1609 1.408 . S
C1606 C1604 1.363 . S
C1606 C1607 1.370 . S
C1606 C1610 1.524 . S
C1607 C1599 1.503 . S
C1607 C1606 1.370 . S
C1607 C1608 1.403 . S
C1608 C1607 1.403 . S
C1608 C1609 1.404 . S
C1608 C1611 1.539 . S
C1609 C1605 1.408 . S
C1609 C1608 1.404 . S
C1609 H1621 0.930 . S
C1610 C1606 1.524 . S
C1610 H1622 0.956 . S
C1610 H1623 0.961 . S
C1610 H1624 0.961 . S
C1611 C1608 1.539 . S
C1611 H1625 0.958 . S
C1611 H1626 0.961 . S
C1611 H1627 0.960 . S
H1612 C1596 0.931 . S
H1613 C1601 0.929 . S
H1614 C1602 0.960 . S
H1615 C1602 0.962 . S
H1616 C1602 0.960 . S
H1617 C1603 0.961 . S
H1618 C1603 0.961 . S
H1619 C1603 0.961 . S
H1620 C1604 0.931 . S
H1621 C1609 0.930 . S
H1622 C1610 0.956 . S
H1623 C1610 0.961 . S
H1624 C1610 0.961 . S
H1625 C1611 0.958 . S
H1626 C1611 0.961 . S
H1627 C1611 0.960 . S
C1628 C1629 1.391 . S
C1628 C1630 1.394 . S
C1628 H1644 0.931 . S
C1629 C1628 1.391 . S
C1629 C1633 1.376 . S
C1630 C1628 1.394 . S
C1630 C1631 1.369 . S
C1630 C1634 1.531 . S
C1631 C1630 1.369 . S
C1631 C1632 1.410 . S
C1631 C1639 1.503 . S
C1632 C1631 1.410 . S
C1632 C1633 1.392 . S
C1632 C1635 1.511 . S
C1633 C1629 1.376 . S
C1633 C1632 1.392 . S
C1633 H1645 0.929 . S
C1634 C1630 1.531 . S
C1634 H1646 0.960 . S
C1634 H1647 0.962 . S
C1634 H1648 0.960 . S
C1635 C1632 1.511 . S
C1635 H1649 0.961 . S
C1635 H1650 0.961 . S
C1635 H1651 0.961 . S
C1636 C1637 1.370 . S
C1636 C1638 1.363 . S
C1636 H1652 0.931 . S
C1637 C1636 1.370 . S
C1637 C1641 1.408 . S
C1638 C1636 1.363 . S
C1638 C1639 1.370 . S
C1638 C1642 1.524 . S
C1639 C1631 1.503 . S
C1639 C1638 1.370 . S
C1639 C1640 1.403 . S
C1640 C1639 1.403 . S
C1640 C1641 1.404 . S
C1640 C1643 1.539 . S
C1641 C1637 1.408 . S
C1641 C1640 1.404 . S
C1641 H1653 0.930 . S
C1642 C1638 1.524 . S
C1642 H1654 0.956 . S
C1642 H1655 0.961 . S
C1642 H1656 0.961 . S
C1643 C1640 1.539 . S
C1643 H1657 0.958 . S
C1643 H1658 0.961 . S
C1643 H1659 0.960 . S
H1644 C1628 0.931 . S
H1645 C1633 0.929 . S
H1646 C1634 0.960 . S
H1647 C1634 0.962 . S
H1648 C1634 0.960 . S
H1649 C1635 0.961 . S
H1650 C1635 0.961 . S
H1651 C1635 0.961 . S
H1652 C1636 0.931 . S
H1653 C1641 0.930 . S
H1654 C1642 0.956 . S
H1655 C1642 0.961 . S
H1656 C1642 0.961 . S
H1657 C1643 0.958 . S
H1658 C1643 0.961 . S
H1659 C1643 0.960 . S
C1660 C1661 1.391 . S
C1660 C1662 1.394 . S
C1660 H1676 0.931 . S
C1661 C1660 1.391 . S
C1661 C1665 1.376 . S
C1662 C1660 1.394 . S
C1662 C1663 1.369 . S
C1662 C1666 1.531 . S
C1663 C1662 1.369 . S
C1663 C1664 1.410 . S
C1663 C1671 1.503 . S
C1664 C1663 1.410 . S
C1664 C1665 1.392 . S
C1664 C1667 1.511 . S
C1665 C1661 1.376 . S
C1665 C1664 1.392 . S
C1665 H1677 0.929 . S
C1666 C1662 1.531 . S
C1666 H1678 0.960 . S
C1666 H1679 0.962 . S
C1666 H1680 0.960 . S
C1667 C1664 1.511 . S
C1667 H1681 0.961 . S
C1667 H1682 0.961 . S
C1667 H1683 0.961 . S
C1668 C1669 1.370 . S
C1668 C1670 1.363 . S
C1668 H1684 0.931 . S
C1669 C1668 1.370 . S
C1669 C1673 1.408 . S
C1670 C1668 1.363 . S
C1670 C1671 1.370 . S
C1670 C1674 1.524 . S
C1671 C1663 1.503 . S
C1671 C1670 1.370 . S
C1671 C1672 1.403 . S
C1672 C1671 1.403 . S
C1672 C1673 1.404 . S
C1672 C1675 1.539 . S
C1673 C1669 1.408 . S
C1673 C1672 1.404 . S
C1673 H1685 0.930 . S
C1674 C1670 1.524 . S
C1674 H1686 0.956 . S
C1674 H1687 0.961 . S
C1674 H1688 0.961 . S
C1675 C1672 1.539 . S
C1675 H1689 0.958 . S
C1675 H1690 0.961 . S
C1675 H1691 0.960 . S
H1676 C1660 0.931 . S
H1677 C1665 0.929 . S
H1678 C1666 0.960 . S
H1679 C1666 0.962 . S
H1680 C1666 0.960 . S
H1681 C1667 0.961 . S
H1682 C1667 0.961 . S
H1683 C1667 0.961 . S
H1684 C1668 0.931 . S
H1685 C1673 0.930 . S
H1686 C1674 0.956 . S
H1687 C1674 0.961 . S
H1688 C1674 0.961 . S
H1689 C1675 0.958 . S
H1690 C1675 0.961 . S
H1691 C1675 0.960 . S
C1692 C1693 1.391 . S
C1692 C1694 1.394 . S
C1692 H1708 0.931 . S
C1693 C1692 1.391 . S
C1693 C1697 1.376 . S
C1694 C1692 1.394 . S
C1694 C1695 1.369 . S
C1694 C1698 1.531 . S
C1695 C1694 1.369 . S
C1695 C1696 1.410 . S
C1695 C1703 1.503 . S
C1696 C1695 1.410 . S
C1696 C1697 1.392 . S
C1696 C1699 1.511 . S
C1697 C1693 1.376 . S
C1697 C1696 1.392 . S
C1697 H1709 0.929 . S
C1698 C1694 1.531 . S
C1698 H1710 0.960 . S
C1698 H1711 0.962 . S
C1698 H1712 0.960 . S
C1699 C1696 1.511 . S
C1699 H1713 0.961 . S
C1699 H1714 0.961 . S
C1699 H1715 0.961 . S
C1700 C1701 1.374 1_556 S
C1700 C1702 1.363 . S
C1700 H1716 0.931 . S
C1701 C1700 1.374 1_554 S
C1701 C1705 1.410 1_554 S
C1702 C1700 1.363 . S
C1702 C1703 1.370 . S
C1702 C1706 1.524 . S
C1703 C1695 1.503 . S
C1703 C1702 1.370 . S
C1703 C1704 1.403 . S
C1704 C1703 1.403 . S
C1704 C1705 1.404 . S
C1704 C1707 1.539 . S
C1705 C1701 1.410 1_556 S
C1705 C1704 1.404 . S
C1705 H1717 0.930 1_556 S
C1706 C1702 1.524 . S
C1706 H1718 0.956 . S
C1706 H1719 0.961 . S
C1706 H1720 0.961 . S
C1707 C1704 1.539 . S
C1707 H1721 0.958 . S
C1707 H1722 0.961 . S
C1707 H1723 0.960 . S
H1708 C1692 0.931 . S
H1709 C1697 0.929 . S
H1710 C1698 0.960 . S
H1711 C1698 0.962 . S
H1712 C1698 0.960 . S
H1713 C1699 0.961 . S
H1714 C1699 0.961 . S
H1715 C1699 0.961 . S
H1716 C1700 0.931 . S
H1717 C1705 0.930 1_554 S
H1718 C1706 0.956 . S
H1719 C1706 0.961 . S
H1720 C1706 0.961 . S
H1721 C1707 0.958 . S
H1722 C1707 0.961 . S
H1723 C1707 0.960 . S
C1724 C1725 1.391 . S
C1724 C1726 1.394 . S
C1724 H1740 0.931 . S
C1725 C1724 1.391 . S
C1725 C1729 1.376 . S
C1726 C1724 1.394 . S
C1726 C1727 1.369 . S
C1726 C1730 1.531 . S
C1727 C1726 1.369 . S
C1727 C1728 1.410 . S
C1727 C1735 1.503 . S
C1728 C1727 1.410 . S
C1728 C1729 1.392 . S
C1728 C1731 1.511 . S
C1729 C1725 1.376 . S
C1729 C1728 1.392 . S
C1729 H1741 0.929 . S
C1730 C1726 1.531 . S
C1730 H1742 0.960 . S
C1730 H1743 0.962 . S
C1730 H1744 0.960 . S
C1731 C1728 1.511 . S
C1731 H1745 0.961 . S
C1731 H1746 0.961 . S
C1731 H1747 0.961 . S
C1732 C1733 1.370 . S
C1732 C1734 1.363 . S
C1732 H1748 0.931 . S
C1733 C1732 1.370 . S
C1733 C1737 1.408 . S
C1734 C1732 1.363 . S
C1734 C1735 1.370 . S
C1734 C1738 1.524 . S
C1735 C1727 1.503 . S
C1735 C1734 1.370 . S
C1735 C1736 1.403 . S
C1736 C1735 1.403 . S
C1736 C1737 1.404 . S
C1736 C1739 1.539 . S
C1737 C1733 1.408 . S
C1737 C1736 1.404 . S
C1737 H1749 0.930 . S
C1738 C1734 1.524 . S
C1738 H1750 0.956 . S
C1738 H1751 0.961 . S
C1738 H1752 0.961 . S
C1739 C1736 1.539 . S
C1739 H1753 0.958 . S
C1739 H1754 0.961 . S
C1739 H1755 0.960 . S
H1740 C1724 0.931 . S
H1741 C1729 0.929 . S
H1742 C1730 0.960 . S
H1743 C1730 0.962 . S
H1744 C1730 0.960 . S
H1745 C1731 0.961 . S
H1746 C1731 0.961 . S
H1747 C1731 0.961 . S
H1748 C1732 0.931 . S
H1749 C1737 0.930 . S
H1750 C1738 0.956 . S
H1751 C1738 0.961 . S
H1752 C1738 0.961 . S
H1753 C1739 0.958 . S
H1754 C1739 0.961 . S
H1755 C1739 0.960 . S
C1756 C1757 1.391 . S
C1756 C1758 1.394 . S
C1756 H1772 0.931 . S
C1757 C1756 1.391 . S
C1757 C1761 1.376 . S
C1758 C1756 1.394 . S
C1758 C1759 1.369 . S
C1758 C1762 1.531 . S
C1759 C1758 1.369 . S
C1759 C1760 1.410 . S
C1759 C1767 1.503 . S
C1760 C1759 1.410 . S
C1760 C1761 1.392 . S
C1760 C1763 1.511 . S
C1761 C1757 1.376 . S
C1761 C1760 1.392 . S
C1761 H1773 0.929 . S
C1762 C1758 1.531 . S
C1762 H1774 0.960 . S
C1762 H1775 0.962 . S
C1762 H1776 0.960 . S
C1763 C1760 1.511 . S
C1763 H1777 0.961 . S
C1763 H1778 0.961 . S
C1763 H1779 0.961 . S
C1764 C1765 1.370 . S
C1764 C1766 1.363 . S
C1764 H1780 0.931 . S
C1765 C1764 1.370 . S
C1765 C1769 1.408 . S
C1766 C1764 1.363 . S
C1766 C1767 1.370 . S
C1766 C1770 1.524 . S
C1767 C1759 1.503 . S
C1767 C1766 1.370 . S
C1767 C1768 1.403 . S
C1768 C1767 1.403 . S
C1768 C1769 1.404 . S
C1768 C1771 1.539 . S
C1769 C1765 1.408 . S
C1769 C1768 1.404 . S
C1769 H1781 0.930 . S
C1770 C1766 1.524 . S
C1770 H1782 0.956 . S
C1770 H1783 0.961 . S
C1770 H1784 0.961 . S
C1771 C1768 1.539 . S
C1771 H1785 0.958 . S
C1771 H1786 0.961 . S
C1771 H1787 0.960 . S
H1772 C1756 0.931 . S
H1773 C1761 0.929 . S
H1774 C1762 0.960 . S
H1775 C1762 0.962 . S
H1776 C1762 0.960 . S
H1777 C1763 0.961 . S
H1778 C1763 0.961 . S
H1779 C1763 0.961 . S
H1780 C1764 0.931 . S
H1781 C1769 0.930 . S
H1782 C1770 0.956 . S
H1783 C1770 0.961 . S
H1784 C1770 0.961 . S
H1785 C1771 0.958 . S
H1786 C1771 0.961 . S
H1787 C1771 0.960 . S
C1788 C1789 1.391 . S
C1788 C1790 1.394 . S
C1788 H1804 0.931 . S
C1789 C1788 1.391 . S
C1789 C1793 1.376 . S
C1790 C1788 1.394 . S
C1790 C1791 1.369 . S
C1790 C1794 1.531 . S
C1791 C1790 1.369 . S
C1791 C1792 1.410 . S
C1791 C1799 1.503 . S
C1792 C1791 1.410 . S
C1792 C1793 1.392 . S
C1792 C1795 1.511 . S
C1793 C1789 1.376 . S
C1793 C1792 1.392 . S
C1793 H1805 0.929 . S
C1794 C1790 1.531 . S
C1794 H1806 0.960 . S
C1794 H1807 0.962 . S
C1794 H1808 0.960 . S
C1795 C1792 1.511 . S
C1795 H1809 0.961 . S
C1795 H1810 0.961 . S
C1795 H1811 0.961 . S
C1796 C1797 1.370 . S
C1796 C1798 1.363 . S
C1796 H1812 0.931 . S
C1797 C1796 1.370 . S
C1797 C1801 1.408 . S
C1798 C1796 1.363 . S
C1798 C1799 1.370 . S
C1798 C1802 1.524 . S
C1799 C1791 1.503 . S
C1799 C1798 1.370 . S
C1799 C1800 1.403 . S
C1800 C1799 1.403 . S
C1800 C1801 1.404 . S
C1800 C1803 1.539 . S
C1801 C1797 1.408 . S
C1801 C1800 1.404 . S
C1801 H1813 0.930 . S
C1802 C1798 1.524 . S
C1802 H1814 0.956 . S
C1802 H1815 0.961 . S
C1802 H1816 0.961 . S
C1803 C1800 1.539 . S
C1803 H1817 0.958 . S
C1803 H1818 0.961 . S
C1803 H1819 0.960 . S
H1804 C1788 0.931 . S
H1805 C1793 0.929 . S
H1806 C1794 0.960 . S
H1807 C1794 0.962 . S
H1808 C1794 0.960 . S
H1809 C1795 0.961 . S
H1810 C1795 0.961 . S
H1811 C1795 0.961 . S
H1812 C1796 0.931 . S
H1813 C1801 0.930 . S
H1814 C1802 0.956 . S
H1815 C1802 0.961 . S
H1816 C1802 0.961 . S
H1817 C1803 0.958 . S
H1818 C1803 0.961 . S
H1819 C1803 0.960 . S
C1820 C1821 1.391 . S
C1820 C1822 1.394 . S
C1820 H1836 0.931 . S
C1821 C1820 1.391 . S
C1821 C1825 1.376 . S
C1822 C1820 1.394 . S
C1822 C1823 1.369 . S
C1822 C1826 1.531 . S
C1823 C1822 1.369 . S
C1823 C1824 1.410 . S
C1823 C1831 1.503 . S
C1824 C1823 1.410 . S
C1824 C1825 1.392 . S
C1824 C1827 1.511 . S
C1825 C1821 1.376 . S
C1825 C1824 1.392 . S
C1825 H1837 0.929 . S
C1826 C1822 1.531 . S
C1826 H1838 0.960 . S
C1826 H1839 0.962 . S
C1826 H1840 0.960 . S
C1827 C1824 1.511 . S
C1827 H1841 0.961 . S
C1827 H1842 0.961 . S
C1827 H1843 0.961 . S
C1828 C1829 1.370 . S
C1828 C1830 1.363 . S
C1828 H1844 0.931 . S
C1829 C1828 1.370 . S
C1829 C1833 1.408 . S
C1830 C1828 1.363 . S
C1830 C1831 1.370 . S
C1830 C1834 1.524 . S
C1831 C1823 1.503 . S
C1831 C1830 1.370 . S
C1831 C1832 1.403 . S
C1832 C1831 1.403 . S
C1832 C1833 1.404 . S
C1832 C1835 1.539 . S
C1833 C1829 1.408 . S
C1833 C1832 1.404 . S
C1833 H1845 0.930 . S
C1834 C1830 1.524 . S
C1834 H1846 0.956 . S
C1834 H1847 0.961 . S
C1834 H1848 0.961 . S
C1835 C1832 1.539 . S
C1835 H1849 0.958 . S
C1835 H1850 0.961 . S
C1835 H1851 0.960 . S
H1836 C1820 0.931 . S
H1837 C1825 0.929 . S
H1838 C1826 0.960 . S
H1839 C1826 0.962 . S
H1840 C1826 0.960 . S
H1841 C1827 0.961 . S
H1842 C1827 0.961 . S
H1843 C1827 0.961 . S
H1844 C1828 0.931 . S
H1845 C1833 0.930 . S
H1846 C1834 0.956 . S
H1847 C1834 0.961 . S
H1848 C1834 0.961 . S
H1849 C1835 0.958 . S
H1850 C1835 0.961 . S
H1851 C1835 0.960 . S
C1852 C1853 1.391 . S
C1852 C1854 1.394 . S
C1852 H1868 0.931 . S
C1853 C1852 1.391 . S
C1853 C1857 1.376 . S
C1854 C1852 1.394 . S
C1854 C1855 1.369 . S
C1854 C1858 1.531 . S
C1855 C1854 1.369 . S
C1855 C1856 1.410 . S
C1855 C1863 1.503 . S
C1856 C1855 1.410 . S
C1856 C1857 1.392 . S
C1856 C1859 1.511 . S
C1857 C1853 1.376 . S
C1857 C1856 1.392 . S
C1857 H1869 0.929 . S
C1858 C1854 1.531 . S
C1858 H1870 0.960 . S
C1858 H1871 0.962 . S
C1858 H1872 0.960 . S
C1859 C1856 1.511 . S
C1859 H1873 0.961 . S
C1859 H1874 0.961 . S
C1859 H1875 0.961 . S
C1860 C1861 1.370 . S
C1860 C1862 1.363 . S
C1860 H1876 0.931 . S
C1861 C1860 1.370 . S
C1861 C1865 1.408 . S
C1862 C1860 1.363 . S
C1862 C1863 1.370 . S
C1862 C1866 1.524 . S
C1863 C1855 1.503 . S
C1863 C1862 1.370 . S
C1863 C1864 1.403 . S
C1864 C1863 1.403 . S
C1864 C1865 1.404 . S
C1864 C1867 1.539 . S
C1865 C1861 1.408 . S
C1865 C1864 1.404 . S
C1865 H1877 0.930 . S
C1866 C1862 1.524 . S
C1866 H1878 0.956 . S
C1866 H1879 0.961 . S
C1866 H1880 0.961 . S
C1867 C1864 1.539 . S
C1867 H1881 0.958 . S
C1867 H1882 0.961 . S
C1867 H1883 0.960 . S
H1868 C1852 0.931 . S
H1869 C1857 0.929 . S
H1870 C1858 0.960 . S
H1871 C1858 0.962 . S
H1872 C1858 0.960 . S
H1873 C1859 0.961 . S
H1874 C1859 0.961 . S
H1875 C1859 0.961 . S
H1876 C1860 0.931 . S
H1877 C1865 0.930 . S
H1878 C1866 0.956 . S
H1879 C1866 0.961 . S
H1880 C1866 0.961 . S
H1881 C1867 0.958 . S
H1882 C1867 0.961 . S
H1883 C1867 0.960 . S
C1884 C1885 1.391 . S
C1884 C1886 1.394 . S
C1884 H1900 0.931 . S
C1885 C1884 1.391 . S
C1885 C1889 1.376 . S
C1886 C1884 1.394 . S
C1886 C1887 1.369 . S
C1886 C1890 1.531 . S
C1887 C1886 1.369 . S
C1887 C1888 1.410 . S
C1887 C1895 1.503 . S
C1888 C1887 1.410 . S
C1888 C1889 1.392 . S
C1888 C1891 1.511 . S
C1889 C1885 1.376 . S
C1889 C1888 1.392 . S
C1889 H1901 0.929 . S
C1890 C1886 1.531 . S
C1890 H1902 0.960 . S
C1890 H1903 0.962 . S
C1890 H1904 0.960 . S
C1891 C1888 1.511 . S
C1891 H1905 0.961 . S
C1891 H1906 0.961 . S
C1891 H1907 0.961 . S
C1892 C1893 1.370 . S
C1892 C1894 1.363 . S
C1892 H1908 0.931 . S
C1893 C1892 1.370 . S
C1893 C1897 1.408 . S
C1894 C1892 1.363 . S
C1894 C1895 1.370 . S
C1894 C1898 1.524 . S
C1895 C1887 1.503 . S
C1895 C1894 1.370 . S
C1895 C1896 1.403 . S
C1896 C1895 1.403 . S
C1896 C1897 1.404 . S
C1896 C1899 1.539 . S
C1897 C1893 1.408 . S
C1897 C1896 1.404 . S
C1897 H1909 0.930 . S
C1898 C1894 1.524 . S
C1898 H1910 0.956 . S
C1898 H1911 0.961 . S
C1898 H1912 0.961 . S
C1899 C1896 1.539 . S
C1899 H1913 0.958 . S
C1899 H1914 0.961 . S
C1899 H1915 0.960 . S
H1900 C1884 0.931 . S
H1901 C1889 0.929 . S
H1902 C1890 0.960 . S
H1903 C1890 0.962 . S
H1904 C1890 0.960 . S
H1905 C1891 0.961 . S
H1906 C1891 0.961 . S
H1907 C1891 0.961 . S
H1908 C1892 0.931 . S
H1909 C1897 0.930 . S
H1910 C1898 0.956 . S
H1911 C1898 0.961 . S
H1912 C1898 0.961 . S
H1913 C1899 0.958 . S
H1914 C1899 0.961 . S
H1915 C1899 0.960 . S
C1916 C1917 1.391 . S
C1916 C1918 1.394 . S
C1916 H1932 0.931 . S
C1917 C1916 1.391 . S
C1917 C1921 1.376 . S
C1918 C1916 1.394 . S
C1918 C1919 1.369 . S
C1918 C1922 1.531 . S
C1919 C1918 1.369 . S
C1919 C1920 1.410 . S
C1919 C1927 1.503 . S
C1920 C1919 1.410 . S
C1920 C1921 1.392 . S
C1920 C1923 1.511 . S
C1921 C1917 1.376 . S
C1921 C1920 1.392 . S
C1921 H1933 0.929 . S
C1922 C1918 1.531 . S
C1922 H1934 0.960 . S
C1922 H1935 0.962 . S
C1922 H1936 0.960 . S
C1923 C1920 1.511 . S
C1923 H1937 0.961 . S
C1923 H1938 0.961 . S
C1923 H1939 0.961 . S
C1924 C1925 1.370 . S
C1924 C1926 1.363 1_556 S
C1924 H1940 0.931 . S
C1925 C1924 1.370 . S
C1925 C1929 1.408 . S
C1926 C1924 1.363 1_554 S
C1926 C1927 1.370 . S
C1926 C1930 1.524 . S
C1927 C1919 1.503 . S
C1927 C1926 1.370 . S
C1927 C1928 1.403 . S
C1928 C1927 1.403 . S
C1928 C1929 1.404 1_554 S
C1928 C1931 1.539 . S
C1929 C1925 1.408 . S
C1929 C1928 1.404 1_556 S
C1929 H1941 0.930 . S
C1930 C1926 1.524 . S
C1930 H1942 0.956 . S
C1930 H1943 0.961 . S
C1930 H1944 0.961 . S
C1931 C1928 1.539 . S
C1931 H1945 0.958 . S
C1931 H1946 0.961 . S
C1931 H1947 0.960 . S
H1932 C1916 0.931 . S
H1933 C1921 0.929 . S
H1934 C1922 0.960 . S
H1935 C1922 0.962 . S
H1936 C1922 0.960 . S
H1937 C1923 0.961 . S
H1938 C1923 0.961 . S
H1939 C1923 0.961 . S
H1940 C1924 0.931 . S
H1941 C1929 0.930 . S
H1942 C1930 0.956 . S
H1943 C1930 0.961 . S
H1944 C1930 0.961 . S
H1945 C1931 0.958 . S
H1946 C1931 0.961 . S
H1947 C1931 0.960 . S
C1948 C1949 1.391 . S
C1948 C1950 1.394 . S
C1948 H1964 0.931 . S
C1949 C1948 1.391 . S
C1949 C1953 1.376 . S
C1950 C1948 1.394 . S
C1950 C1951 1.369 . S
C1950 C1954 1.531 . S
C1951 C1950 1.369 . S
C1951 C1952 1.410 . S
C1951 C1959 1.503 . S
C1952 C1951 1.410 . S
C1952 C1953 1.392 . S
C1952 C1955 1.511 . S
C1953 C1949 1.376 . S
C1953 C1952 1.392 . S
C1953 H1965 0.929 . S
C1954 C1950 1.531 . S
C1954 H1966 0.960 . S
C1954 H1967 0.962 . S
C1954 H1968 0.960 . S
C1955 C1952 1.511 . S
C1955 H1969 0.961 . S
C1955 H1970 0.961 . S
C1955 H1971 0.961 . S
C1956 C1957 1.370 . S
C1956 C1958 1.363 . S
C1956 H1972 0.931 . S
C1957 C1956 1.370 . S
C1957 C1961 1.408 . S
C1958 C1956 1.363 . S
C1958 C1959 1.370 . S
C1958 C1962 1.524 . S
C1959 C1951 1.503 . S
C1959 C1958 1.370 . S
C1959 C1960 1.403 . S
C1960 C1959 1.403 . S
C1960 C1961 1.404 . S
C1960 C1963 1.539 . S
C1961 C1957 1.408 . S
C1961 C1960 1.404 . S
C1961 H1973 0.930 . S
C1962 C1958 1.524 . S
C1962 H1974 0.956 . S
C1962 H1975 0.961 . S
C1962 H1976 0.961 . S
C1963 C1960 1.539 . S
C1963 H1977 0.958 . S
C1963 H1978 0.961 . S
C1963 H1979 0.960 . S
H1964 C1948 0.931 . S
H1965 C1953 0.929 . S
H1966 C1954 0.960 . S
H1967 C1954 0.962 . S
H1968 C1954 0.960 . S
H1969 C1955 0.961 . S
H1970 C1955 0.961 . S
H1971 C1955 0.961 . S
H1972 C1956 0.931 . S
H1973 C1961 0.930 . S
H1974 C1962 0.956 . S
H1975 C1962 0.961 . S
H1976 C1962 0.961 . S
H1977 C1963 0.958 . S
H1978 C1963 0.961 . S
H1979 C1963 0.960 . S
C1221 C1153 1.788 . S
C1213 C1 1.257 . S
C1245 C169 1.697 . S
C1253 C713 1.923 . S
C1277 C283 1.673 . S
C1285 C801 1.896 . S
C1309 C397 1.625 . S
C1317 C880 1.768 . S
C1349 C977 1.626 . S
C1341 C457 1.084 . S
C1373 C571 1.120 . S
C1381 C1056 1.652 . S
C1405 C115 1.221 . S
C1413 C821 1.783 . S
C1437 C229 1.221 . S
C1445 C917 1.636 . S
C1469 C343 1.054 . S
C1477 C997 1.624 . S
C1509 C1093 1.764 . S
C1501 C511 1.615 . S
C1541 C1173 1.907 . S
C1533 C625 1.749 . S
C1573 C733 1.925 . S
C1565 C55 1.719 . S
C1597 C29 1.135 . S
C1605 C829 1.393 . S
C1629 C125 0.827 . S
C1637 C909 1.494 . S
C1669 C1005 1.423 . S
C1661 C239 0.814 . S
C1693 C353 0.939 . S
C1701 C1085 1.398 . S
C1733 C1181 1.322 . S
C1725 C485 1.130 . S
C1765 C741 1.391 . S
C1757 C599 1.171 . S
C1797 C1144 1.389 . S
C1789 C143 1.071 . S
C1821 C257 1.164 . S
C1829 C704 1.394 . S
C1861 C792 1.319 . S
C1853 C371 1.023 . S
C1885 C467 0.798 . S
C1893 C889 1.413 . S
C1917 C581 0.842 . S
C1925 C968 1.423 . S
C1949 C11 0.958 . S
C1957 C1065 1.485 . S
