# Generated by pormake.
# Topology dag, (6,3)-cn, num edge types: 1
# Building blocks:
#     Node 0, Type 0, BuildingBlock: MIDCAF_clean_sbu_0, # of connection points: 6
#     Node 1, Type 0, BuildingBlock: MIDCAF_clean_sbu_0, # of connection points: 6
#     Node 2, Type 0, BuildingBlock: MIDCAF_clean_sbu_0, # of connection points: 6
#     Node 3, Type 0, BuildingBlock: MIDCAF_clean_sbu_0, # of connection points: 6
#     Node 4, Type 1, BuildingBlock: PAMTOO_clean_linker_0, # of connection points: 3
#     Node 5, Type 1, BuildingBlock: PAMTOO_clean_linker_0, # of connection points: 3
#     Node 6, Type 1, BuildingBlock: PAMTOO_clean_linker_0, # of connection points: 3
#     Node 7, Type 1, BuildingBlock: PAMTOO_clean_linker_0, # of connection points: 3
#     Node 8, Type 1, BuildingBlock: PAMTOO_clean_linker_0, # of connection points: 3
#     Node 9, Type 1, BuildingBlock: PAMTOO_clean_linker_0, # of connection points: 3
#     Node 10, Type 1, BuildingBlock: PAMTOO_clean_linker_0, # of connection points: 3
#     Node 11, Type 1, BuildingBlock: PAMTOO_clean_linker_0, # of connection points: 3
#     Edge 12, Type (0, 1), BuildingBlock: UVAHIK_clean_linker_0, # of connection points: 2
#     Edge 13, Type (0, 1), BuildingBlock: UVAHIK_clean_linker_0, # of connection points: 2
#     Edge 14, Type (0, 1), BuildingBlock: UVAHIK_clean_linker_0, # of connection points: 2
#     Edge 15, Type (0, 1), BuildingBlock: UVAHIK_clean_linker_0, # of connection points: 2
#     Edge 16, Type (0, 1), BuildingBlock: UVAHIK_clean_linker_0, # of connection points: 2
#     Edge 17, Type (0, 1), BuildingBlock: UVAHIK_clean_linker_0, # of connection points: 2
#     Edge 18, Type (0, 1), BuildingBlock: UVAHIK_clean_linker_0, # of connection points: 2
#     Edge 19, Type (0, 1), BuildingBlock: UVAHIK_clean_linker_0, # of connection points: 2
#     Edge 20, Type (0, 1), BuildingBlock: UVAHIK_clean_linker_0, # of connection points: 2
#     Edge 21, Type (0, 1), BuildingBlock: UVAHIK_clean_linker_0, # of connection points: 2
#     Edge 22, Type (0, 1), BuildingBlock: UVAHIK_clean_linker_0, # of connection points: 2
#     Edge 23, Type (0, 1), BuildingBlock: UVAHIK_clean_linker_0, # of connection points: 2
#     Edge 24, Type (0, 1), BuildingBlock: UVAHIK_clean_linker_0, # of connection points: 2
#     Edge 25, Type (0, 1), BuildingBlock: UVAHIK_clean_linker_0, # of connection points: 2
#     Edge 26, Type (0, 1), BuildingBlock: UVAHIK_clean_linker_0, # of connection points: 2
#     Edge 27, Type (0, 1), BuildingBlock: UVAHIK_clean_linker_0, # of connection points: 2
#     Edge 28, Type (0, 1), BuildingBlock: UVAHIK_clean_linker_0, # of connection points: 2
#     Edge 29, Type (0, 1), BuildingBlock: UVAHIK_clean_linker_0, # of connection points: 2
#     Edge 30, Type (0, 1), BuildingBlock: UVAHIK_clean_linker_0, # of connection points: 2
#     Edge 31, Type (0, 1), BuildingBlock: UVAHIK_clean_linker_0, # of connection points: 2
#     Edge 32, Type (0, 1), BuildingBlock: UVAHIK_clean_linker_0, # of connection points: 2
#     Edge 33, Type (0, 1), BuildingBlock: UVAHIK_clean_linker_0, # of connection points: 2
#     Edge 34, Type (0, 1), BuildingBlock: UVAHIK_clean_linker_0, # of connection points: 2
#     Edge 35, Type (0, 1), BuildingBlock: UVAHIK_clean_linker_0, # of connection points: 2
# Relax obj value: 0.136
# Max RMSD: 0.138
# Mean RMSD: 0.107
data_MOF--net-dag--node1-MIDCAF_clean_sbu_0--node2-PAMTOO_clean_linker_0--edge1-UVAHIK_clean_linker_0
_symmetry_space_group_name_H-M    P1
_symmetry_Int_Tables_number       1
_symmetry_cell_setting            triclinic
loop_
_symmetry_equiv_pos_as_xyz
'x, y, z'
_cell_length_a     52.923416
_cell_length_b     53.828978
_cell_length_c     39.308494
_cell_angle_alpha  90.411744
_cell_angle_beta   92.917234
_cell_angle_gamma 90.697429
loop_
_atom_site_label
_atom_site_type_symbol
_atom_site_fract_x
_atom_site_fract_y
_atom_site_fract_z
_atom_type_partial_charge
Zn0 Zn 0.11342 0.85068 0.09146 0.0
Zn1 Zn 0.10569 0.86226 0.92628 0.0
Zn2 Zn 0.1154 0.8561 0.02811 0.0
C3 C 0.08347 0.89698 0.97238 0.0
C4 C 0.10314 0.82272 0.97383 0.0
O5 O 0.11358 0.81543 0.0378 0.0
O6 O 0.12008 0.81444 0.09377 0.0
C7 C 0.15618 0.88 0.08046 0.0
O8 O 0.09502 0.88558 0.9975 0.0
O9 O 0.08049 0.88686 0.94295 0.0
O10 O 0.11717 0.83947 0.9626 0.0
O11 O 0.10452 0.82025 1.00603 0.0
O12 O 0.14169 0.87401 0.1037 0.0
O13 O 0.15085 0.87323 0.04948 0.0
O14 O 0.08049 0.87548 0.03524 0.0
O15 O 0.07761 0.86174 0.08774 0.0
C16 C 0.06773 0.87229 0.06179 0.0
O17 O 0.15297 0.8661 1.01433 0.0
O18 O 0.13746 0.86454 0.96137 0.0
C19 C 0.1179 0.8032 0.06548 0.0
C20 C 0.15664 0.8659 0.98236 0.0
Zn21 Zn 0.6011 0.60411 0.4779 0.0
Zn22 Zn 0.61208 0.6303 0.58925 0.0
Zn23 Zn 0.60953 0.62058 0.53055 0.0
C24 C 0.60369 0.57884 0.58289 0.0
C25 C 0.57386 0.66017 0.56113 0.0
O26 O 0.63727 0.6403 0.50086 0.0
O27 O 0.60963 0.63859 0.4573 0.0
C28 C 0.64914 0.59165 0.49559 0.0
O29 O 0.6084 0.58388 0.55217 0.0
O30 O 0.60178 0.59632 0.60422 0.0
O31 O 0.58709 0.65796 0.58857 0.0
O32 O 0.57824 0.64637 0.53536 0.0
O33 O 0.62945 0.58011 0.48441 0.0
O34 O 0.64695 0.61334 0.5091 0.0
O35 O 0.57129 0.63017 0.5068 0.0
O36 O 0.56491 0.59408 0.48099 0.0
C37 C 0.5562 0.61441 0.49111 0.0
O38 O 0.6464 0.64063 0.53613 0.0
O39 O 0.64874 0.63987 0.59238 0.0
C40 C 0.62881 0.6491 0.47207 0.0
C41 C 0.65863 0.64519 0.56473 0.0
Zn42 Zn 0.84744 0.15942 0.96675 0.0
Zn43 Zn 0.86641 0.12322 0.12046 0.0
Zn44 Zn 0.86012 0.12938 0.05803 0.0
C45 C 0.90979 0.10537 0.08768 0.0
C46 C 0.82292 0.09604 0.10123 0.0
O47 O 0.8229 0.11537 0.04054 0.0
O48 O 0.84065 0.13164 0.99828 0.0
C49 C 0.87129 0.18039 1.01943 0.0
O50 O 0.89756 0.11216 0.0603 0.0
O51 O 0.90012 0.10782 0.11625 0.0
O52 O 0.83635 0.10137 0.12781 0.0
O53 O 0.82859 0.10501 0.07232 0.0
O54 O 0.85904 0.19055 0.99476 0.0
O55 O 0.85822 0.16759 0.04005 0.0
O56 O 0.88604 0.11132 1.02487 0.0
O57 O 0.86913 0.12551 0.97546 0.0
C58 C 0.88287 0.10968 0.99217 0.0
O59 O 0.85748 0.16679 0.07894 0.0
O60 O 0.86462 0.15905 0.13352 0.0
C61 C 0.82046 0.12462 1.01086 0.0
C62 C 0.8596 0.17433 0.10996 0.0
Zn63 Zn 0.35339 0.37103 0.62833 0.0
Zn64 Zn 0.36616 0.3559 0.49989 0.0
Zn65 Zn 0.36468 0.36142 0.55975 0.0
C66 C 0.41492 0.3652 0.52013 0.0
C67 C 0.32938 0.39177 0.51171 0.0
O68 O 0.33656 0.33435 0.58035 0.0
O69 O 0.31756 0.36252 0.61091 0.0
C70 C 0.37866 0.3271 0.61984 0.0
O71 O 0.40431 0.36038 0.54785 0.0
O72 O 0.40133 0.36859 0.49326 0.0
O73 O 0.33595 0.37688 0.48892 0.0
O74 O 0.34032 0.39126 0.54158 0.0
O75 O 0.37733 0.34449 0.64132 0.0
O76 O 0.36533 0.32846 0.59166 0.0
O77 O 0.35398 0.40069 0.57146 0.0
O78 O 0.36771 0.4046 0.62522 0.0
C79 C 0.36129 0.41443 0.59719 0.0
O80 O 0.34701 0.32446 0.55085 0.0
O81 O 0.36069 0.3191 0.49919 0.0
C82 C 0.31692 0.34157 0.59611 0.0
C83 C 0.34976 0.31054 0.52451 0.0
H84 H 0.14809 0.06331 0.25214 0.0
H85 H 0.14422 0.13496 0.3006 0.0
H86 H 0.21042 0.09005 0.31723 0.0
H87 H 0.18363 0.11272 0.37749 0.0
C88 C 0.18442 0.13207 0.36763 0.0
O89 O 0.18867 0.13174 0.33325 0.0
H90 H 0.16596 0.14097 0.37165 0.0
C91 C 0.15631 0.07743 0.26932 0.0
C92 C 0.18058 0.07396 0.2843 0.0
C93 C 0.14307 0.09935 0.27467 0.0
C94 C 0.15422 0.11791 0.29599 0.0
C95 C 0.17826 0.11424 0.31194 0.0
C96 C 0.19163 0.09248 0.30557 0.0
H97 H 0.36601 0.66894 0.67945 0.0
H98 H 0.30152 0.66392 0.74142 0.0
H99 H 0.34258 0.73317 0.73471 0.0
H100 H 0.33109 0.70872 0.80382 0.0
C101 C 0.31028 0.70803 0.79781 0.0
O102 O 0.30511 0.7102 0.76319 0.0
H103 H 0.30308 0.68975 0.80642 0.0
C104 C 0.35297 0.67763 0.69621 0.0
C105 C 0.3562 0.70272 0.70491 0.0
C106 C 0.33337 0.6635 0.70915 0.0
C107 C 0.31658 0.67476 0.73085 0.0
C108 C 0.32009 0.69984 0.74034 0.0
C109 C 0.33982 0.71389 0.72716 0.0
H110 H 0.8146 0.87795 0.16602 0.0
H111 H 0.75812 0.85039 0.23113 0.0
H112 H 0.82277 0.80568 0.21158 0.0
H113 H 0.7727 0.77646 0.21682 0.0
C114 C 0.76312 0.79031 0.23272 0.0
O115 O 0.78053 0.80817 0.24409 0.0
H116 H 0.74771 0.79888 0.2166 0.0
C117 C 0.80743 0.86304 0.18142 0.0
C118 C 0.82147 0.84126 0.18615 0.0
C119 C 0.78465 0.86639 0.19733 0.0
C120 C 0.77556 0.84778 0.21831 0.0
C121 C 0.78925 0.82584 0.22327 0.0
C122 C 0.81224 0.82261 0.20737 0.0
H123 H 0.59692 0.36197 0.76461 0.0
H124 H 0.62229 0.29922 0.82339 0.0
H125 H 0.66986 0.36445 0.81824 0.0
H126 H 0.70046 0.31734 0.82508 0.0
C127 C 0.68419 0.30514 0.83099 0.0
O128 O 0.66563 0.31964 0.84418 0.0
H129 H 0.67701 0.29579 0.80695 0.0
C130 C 0.61103 0.35347 0.78167 0.0
C131 C 0.63362 0.36629 0.79039 0.0
C132 C 0.60695 0.32932 0.79315 0.0
C133 C 0.62528 0.31799 0.81452 0.0
C134 C 0.64785 0.33079 0.82391 0.0
C135 C 0.65217 0.35485 0.81153 0.0
H136 H 0.66654 0.37947 0.41937 0.0
H137 H 0.66423 0.30521 0.37747 0.0
H138 H 0.72339 0.3564 0.35218 0.0
H139 H 0.68881 0.3267 0.29785 0.0
C140 C 0.69639 0.30886 0.30808 0.0
O141 O 0.70459 0.31154 0.34186 0.0
H142 H 0.68068 0.29495 0.30613 0.0
C143 C 0.67463 0.36501 0.4041 0.0
C144 C 0.69638 0.37048 0.38664 0.0
C145 C 0.66286 0.34152 0.40141 0.0
C146 C 0.67311 0.3234 0.38027 0.0
C147 C 0.69496 0.3288 0.36259 0.0
C148 C 0.7067 0.35226 0.36607 0.0
H149 H 0.11222 0.15032 0.92541 0.0
H150 H 0.12217 0.21584 0.86538 0.0
H151 H 0.16516 0.15025 0.84602 0.0
H152 H 0.19423 0.19978 0.84873 0.0
C153 C 0.17926 0.21134 0.83604 0.0
O154 O 0.15776 0.19704 0.82905 0.0
H155 H 0.17498 0.22668 0.85391 0.0
C156 C 0.1222 0.16021 0.90609 0.0
C157 C 0.13966 0.14748 0.88717 0.0
C158 C 0.11555 0.18468 0.89827 0.0
C159 C 0.12743 0.19703 0.87201 0.0
C160 C 0.146 0.1849 0.85394 0.0
C161 C 0.1517 0.15992 0.86102 0.0
H162 H 0.31571 0.56357 0.32569 0.0
H163 H 0.31553 0.63667 0.28122 0.0
H164 H 0.25416 0.58552 0.2578 0.0
H165 H 0.28081 0.61047 0.20026 0.0
C166 C 0.27859 0.62968 0.21032 0.0
O167 O 0.27357 0.62909 0.24443 0.0
H168 H 0.29657 0.64009 0.20716 0.0
C169 C 0.30707 0.57758 0.30937 0.0
C170 C 0.28372 0.57208 0.29242 0.0
C171 C 0.31872 0.60103 0.30654 0.0
C172 C 0.30724 0.61838 0.28414 0.0
C173 C 0.28439 0.61246 0.26596 0.0
C174 C 0.27231 0.58957 0.2708 0.0
H175 H 0.87977 0.86913 0.83925 0.0
H176 H 0.85135 0.8164 0.76379 0.0
H177 H 0.80967 0.88298 0.78243 0.0
H178 H 0.77304 0.84015 0.7565 0.0
C179 C 0.78929 0.82744 0.75432 0.0
O180 O 0.81041 0.84125 0.74666 0.0
H181 H 0.79215 0.81809 0.77942 0.0
C182 C 0.86508 0.86335 0.82048 0.0
C183 C 0.84427 0.8787 0.81359 0.0
C184 C 0.86782 0.84107 0.80262 0.0
C185 C 0.84933 0.83362 0.77778 0.0
C186 C 0.82821 0.84861 0.77072 0.0
C187 C 0.82585 0.87134 0.78826 0.0
C188 C 0.17465 0.92218 0.07668 0.0
C189 C 0.17652 0.89799 0.08951 0.0
C190 C 0.1858 0.94209 0.09519 0.0
C191 C 0.22603 0.96231 0.17025 0.0
H192 H 0.16661 -0.00088 0.19327 0.0
C193 C 0.21417 0.05355 0.25254 0.0
C194 C 0.1943 0.05151 0.27475 0.0
C195 C 0.22047 0.03317 0.23245 0.0
C196 C 0.18339 0.98903 0.18702 0.0
H197 H 0.19376 0.8751 0.12906 0.0
H198 H 0.21405 0.90977 0.16071 0.0
H199 H 0.16354 0.96913 0.14664 0.0
H200 H 0.16768 0.02627 0.29685 0.0
H201 H 0.17876 0.99068 0.26198 0.0
H202 H 0.24571 0.98257 0.21125 0.0
C203 C 0.20393 0.91345 0.13666 0.0
C204 C 0.18173 0.97215 0.16005 0.0
C205 C 0.19238 0.89361 0.11852 0.0
C206 C 0.18311 0.02818 0.2799 0.0
C207 C 0.18937 0.0079 0.25992 0.0
C208 C 0.22783 0.97975 0.19702 0.0
C209 C 0.19926 0.93795 0.12639 0.0
C210 C 0.20289 0.95837 0.15161 0.0
C211 C 0.2069 0.01072 0.23456 0.0
C212 C 0.2063 -0.00722 0.20598 0.0
H213 H 0.16211 0.92603 0.05474 0.0
H214 H 0.18195 0.96087 0.0868 0.0
H215 H 0.24252 0.95168 0.16437 0.0
H216 H 0.22284 0.07148 0.24799 0.0
H217 H 0.23396 0.03573 0.21291 0.0
C218 C 0.55363 0.69992 0.57575 0.0
C219 C 0.55149 0.67604 0.56133 0.0
C220 C 0.53203 0.71279 0.58415 0.0
C221 C 0.46104 0.70923 0.58073 0.0
H222 H 0.47051 0.73765 0.67148 0.0
C223 C 0.40194 0.71225 0.70637 0.0
C224 C 0.37777 0.7161 0.69135 0.0
C225 C 0.42335 0.71707 0.68812 0.0
C226 C 0.46751 0.72992 0.64606 0.0
H227 H 0.52535 0.64711 0.54337 0.0
H228 H 0.48766 0.66904 0.55872 0.0
H229 H 0.50712 0.72639 0.64043 0.0
H230 H 0.35664 0.72952 0.64685 0.0
H231 H 0.39417 0.73886 0.61505 0.0
H232 H 0.42135 0.71068 0.58776 0.0
C233 C 0.50579 0.67843 0.56253 0.0
C234 C 0.48858 0.72374 0.62793 0.0
C235 C 0.52741 0.6658 0.55353 0.0
C236 C 0.37524 0.72682 0.659 0.0
C237 C 0.39668 0.73179 0.64071 0.0
C238 C 0.43995 0.71514 0.59905 0.0
C239 C 0.50789 0.70169 0.57924 0.0
C240 C 0.48563 0.71251 0.59547 0.0
C241 C 0.42091 0.72577 0.65441 0.0
C242 C 0.44295 0.72474 0.63244 0.0
H243 H 0.57209 0.70811 0.58205 0.0
H244 H 0.53438 0.7309 0.59614 0.0
H245 H 0.45801 0.70108 0.55556 0.0
H246 H 0.40417 0.70347 0.73105 0.0
H247 H 0.44159 0.71189 0.69943 0.0
C248 C 0.78576 0.07868 0.12956 0.0
C249 C 0.80266 0.07735 0.10335 0.0
C250 C 0.77048 0.05823 0.13673 0.0
C251 C 0.75676 0.99137 0.11075 0.0
H252 H 0.75677 0.98326 0.20861 0.0
C253 C 0.75295 0.8938 0.16773 0.0
C254 C 0.77193 0.89043 0.19343 0.0
C255 C 0.74564 0.91782 0.15827 0.0
C256 C 0.75657 0.98516 0.18118 0.0
H257 H 0.81603 0.05453 0.0627 0.0
H258 H 0.79097 0.01827 0.07644 0.0
H259 H 0.76476 0.0238 0.18552 0.0
H260 H 0.79729 0.90881 0.2306 0.0
H261 H 0.78508 0.9505 0.21418 0.0
H262 H 0.75139 0.95204 0.10689 0.0
C263 C 0.78833 0.03518 0.0908 0.0
C264 C 0.76075 0.00867 0.16772 0.0
C265 C 0.80291 0.05597 0.08289 0.0
C266 C 0.78233 0.91111 0.21104 0.0
C267 C 0.77518 0.93501 0.2016 0.0
C268 C 0.75319 0.9677 0.12431 0.0
C269 C 0.77269 0.03564 0.11883 0.0
C270 C 0.76213 0.01198 0.13232 0.0
C271 C 0.75743 0.93876 0.17422 0.0
C272 C 0.75434 0.96415 0.15979 0.0
H273 H 0.78517 0.09518 0.14545 0.0
H274 H 0.75801 0.05978 0.1576 0.0
H275 H 0.75672 -0.00682 0.08335 0.0
H276 H 0.74493 0.87797 0.15363 0.0
H277 H 0.73168 0.91998 0.13743 0.0
C278 C 0.4065 0.29257 0.63979 0.0
C279 C 0.40304 0.3145 0.62119 0.0
C280 C 0.43065 0.28667 0.65366 0.0
C281 C 0.48073 0.32375 0.69164 0.0
H282 H 0.52072 0.26425 0.70307 0.0
C283 C 0.56061 0.32264 0.79249 0.0
C284 C 0.584 0.31606 0.78024 0.0
C285 C 0.53827 0.3163 0.77393 0.0
C286 C 0.50963 0.28093 0.70009 0.0
H287 H 0.42196 0.34696 0.60203 0.0
H288 H 0.46366 0.33606 0.62383 0.0
H289 H 0.48344 0.26398 0.66286 0.0
H290 H 0.60281 0.29681 0.74041 0.0
H291 H 0.56364 0.28577 0.7076 0.0
H292 H 0.5065 0.34093 0.72826 0.0
C293 C 0.44812 0.32321 0.6275 0.0
C294 C 0.4884 0.28074 0.67721 0.0
C295 C 0.42421 0.32913 0.61409 0.0
C296 C 0.58481 0.30156 0.75053 0.0
C297 C 0.56244 0.29533 0.73179 0.0
C298 C 0.50159 0.32386 0.71455 0.0
C299 C 0.45125 0.3029 0.64927 0.0
C300 C 0.47396 0.30226 0.67267 0.0
C301 C 0.53907 0.30365 0.74256 0.0
C302 C 0.51626 0.30249 0.71915 0.0
H303 H 0.39032 0.28145 0.64647 0.0
H304 H 0.43265 0.27096 0.6706 0.0
H305 H 0.4697 0.34052 0.68896 0.0
H306 H 0.55971 0.33415 0.81511 0.0
H307 H 0.52047 0.32264 0.78306 0.0
C308 C 0.67759 0.5577 0.51164 0.0
C309 C 0.67342 0.57918 0.49241 0.0
C310 C 0.69296 0.53889 0.50004 0.0
C311 C 0.71187 0.51531 0.41657 0.0
H312 H 0.73249 0.45979 0.47319 0.0
C313 C 0.69306 0.41541 0.37463 0.0
C314 C 0.70697 0.3959 0.38924 0.0
C315 C 0.69907 0.43999 0.38346 0.0
C316 C 0.72746 0.47517 0.4567 0.0
H317 H 0.68389 0.59915 0.44767 0.0
H318 H 0.71239 0.56711 0.42833 0.0
H319 H 0.72792 0.50041 0.49891 0.0
H320 H 0.73884 0.38641 0.42302 0.0
H321 H 0.74998 0.42962 0.43808 0.0
H322 H 0.71187 0.49011 0.3743 0.0
C323 C 0.70303 0.56419 0.45185 0.0
C324 C 0.72437 0.49854 0.47165 0.0
C325 C 0.68718 0.58288 0.46328 0.0
C326 C 0.72807 0.40131 0.41119 0.0
C327 C 0.73418 0.42601 0.42007 0.0
C328 C 0.71553 0.49209 0.40154 0.0
C329 C 0.70483 0.54123 0.46892 0.0
C330 C 0.71505 0.51863 0.45213 0.0
C331 C 0.71916 0.44565 0.40727 0.0
C332 C 0.72192 0.47137 0.42165 0.0
H333 H 0.66686 0.55431 0.53387 0.0
H334 H 0.69338 0.52166 0.51403 0.0
H335 H 0.70475 0.53007 0.40034 0.0
H336 H 0.6765 0.41153 0.35797 0.0
H337 H 0.68673 0.45434 0.37338 0.0
C338 C 0.91657 0.1772 0.04051 0.0
C339 C 0.89796 0.17442 1.01394 0.0
C340 C 0.94232 0.17785 0.03336 0.0
C341 C 0.98628 0.16295 0.96549 0.0
H342 H 0.0251 0.22056 0.99876 0.0
C343 C 0.07054 0.19679 0.89511 0.0
C344 C 0.09339 0.19494 0.91453 0.0
C345 C 0.0476 0.19706 0.91117 0.0
C346 C 0.01444 0.20437 0.98949 0.0
H347 H 0.89176 0.16897 0.95938 0.0
H348 H 0.93598 0.16871 0.94734 0.0
H349 H 0.98383 0.21114 1.022 0.0
H350 H 0.11062 0.19447 0.96564 0.0
H351 H 0.07037 0.1959 0.99388 0.0
H352 H 0.01625 0.15672 0.93206 0.0
C353 C 0.93104 0.17061 0.97363 0.0
C354 C -0.00897 0.1988 1.00299 0.0
C355 C 0.90556 0.17069 0.98058 0.0
C356 C 0.09316 0.19616 0.95025 0.0
C357 C 0.07021 0.19684 0.96635 0.0
C358 C 0.00938 0.16868 0.95179 0.0
C359 C 0.94973 0.17493 0.99968 0.0
C360 C 0.97641 0.17837 0.99044 0.0
C361 C 0.04726 0.19585 0.94686 0.0
C362 C 0.02336 0.18975 0.96302 0.0
H363 H 0.91121 0.18054 0.06637 0.0
H364 H 0.95636 0.18113 0.05396 0.0
H365 H 0.97571 0.14683 0.95575 0.0
H366 H 0.07025 0.1955 0.86757 0.0
H367 H 0.03008 0.19651 0.89567 0.0
C368 C 0.28952 0.40542 0.48264 0.0
C369 C 0.3121 0.41163 0.5012 0.0
C370 C 0.2774 0.42301 0.46184 0.0
C371 C 0.29986 0.47064 0.40846 0.0
H372 H 0.22972 0.48544 0.38412 0.0
C373 C 0.28143 0.5262 0.29234 0.0
C374 C 0.27077 0.54889 0.30118 0.0
C375 C 0.27754 0.50525 0.31216 0.0
C376 C 0.24933 0.48118 0.39055 0.0
H377 H 0.3389 0.44116 0.51464 0.0
H378 H 0.31748 0.47214 0.47885 0.0
H379 H 0.24035 0.46074 0.4353 0.0
H380 H 0.24514 0.56706 0.3342 0.0
H381 H 0.23871 0.53061 0.3694 0.0
H382 H 0.30921 0.49088 0.36449 0.0
C383 C 0.30904 0.45377 0.4805 0.0
C384 C 0.25539 0.46728 0.41982 0.0
C385 C 0.32111 0.4362 0.50135 0.0
C386 C 0.25337 0.5496 0.32691 0.0
C387 C 0.24973 0.52872 0.34707 0.0
C388 C 0.29385 0.48411 0.37924 0.0
C389 C 0.28801 0.44686 0.45902 0.0
C390 C 0.2808 0.4623 0.42925 0.0
C391 C 0.26348 0.50704 0.34149 0.0
C392 C 0.26858 0.48969 0.36999 0.0
H393 H 0.28252 0.38641 0.48192 0.0
H394 H 0.2613 0.41719 0.44544 0.0
H395 H 0.31956 0.46656 0.41464 0.0
H396 H 0.29498 0.52537 0.27261 0.0
H397 H 0.28791 0.48854 0.30691 0.0
C398 C 0.05821 0.80671 0.96875 0.0
C399 C 0.08046 0.81411 0.95325 0.0
C400 C 0.03561 0.80305 0.94905 0.0
C401 C 0.00421 0.82912 0.87538 0.0
H402 H 0.95803 0.77256 0.8725 0.0
C403 C 0.91296 0.83363 0.79308 0.0
C404 C 0.89109 0.82691 0.8096 0.0
C405 C 0.93672 0.82651 0.8064 0.0
C406 C 0.9707 0.78852 0.87317 0.0
H407 H 0.09704 0.82102 0.90485 0.0
H408 H 0.05751 0.81548 0.87081 0.0
H409 H -0.00162 0.77042 0.90611 0.0
H410 H 0.87637 0.8064 0.85146 0.0
H411 H 0.9179 0.79376 0.87489 0.0
H412 H 0.97654 0.8478 0.84402 0.0
C413 C 0.05752 0.8127 0.89808 0.0
C414 C -0.00628 0.78726 0.89237 0.0
C415 C 0.08008 0.81597 0.91761 0.0
C416 C 0.89307 0.8114 0.83809 0.0
C417 C 0.91687 0.80426 0.85149 0.0
C418 C 0.98121 0.8305 0.85662 0.0
C419 C 0.03498 0.8069 0.9137 0.0
C420 C 0.01065 0.80756 0.89348 0.0
C421 C 0.93903 0.81278 0.83674 0.0
C422 C 0.96415 0.81023 0.85513 0.0
H423 H 0.05792 0.80504 0.99617 0.0
H424 H 0.01839 0.79864 0.96162 0.0
H425 H 0.01678 0.84518 0.87637 0.0
H426 H 0.91179 0.84592 0.77135 0.0
H427 H 0.95337 0.83296 0.794 0.0
C428 C 0.88984 0.06353 0.99263 0.0
C429 C 0.88817 0.08594 0.97448 0.0
C430 C 0.8871 0.04062 0.9755 0.0
C431 C 0.88382 0.01067 0.88899 0.0
H432 H 0.83909 0.96384 0.93125 0.0
C433 C 0.84162 0.92531 0.81497 0.0
C434 C 0.84319 0.90267 0.83243 0.0
C435 C 0.84612 0.94786 0.83252 0.0
C436 C 0.85174 0.97662 0.91916 0.0
H437 H 0.88462 0.10165 0.92386 0.0
H438 H 0.87991 0.06203 0.8942 0.0
H439 H 0.85254 0.0017 0.96169 0.0
H440 H 0.84895 0.8859 0.8821 0.0
H441 H 0.85663 0.92501 0.91265 0.0
H442 H 0.88278 0.98562 0.84632 0.0
C443 C 0.88326 0.06195 0.9216 0.0
C444 C 0.85963 -0.0017 0.93674 0.0
C445 C 0.88597 0.08478 0.93868 0.0
C446 C 0.84768 0.9031 0.86799 0.0
C447 C 0.85202 0.92555 0.88551 0.0
C448 C 0.87585 0.98902 0.87137 0.0
C449 C 0.88275 0.03958 0.93984 0.0
C450 C 0.87575 0.01568 0.9219 0.0
C451 C 0.85206 0.94818 0.8679 0.0
C452 C 0.85966 0.97172 0.88618 0.0
H453 H 0.89144 0.06366 1.02022 0.0
H454 H 0.88742 0.02374 0.99034 0.0
H455 H 0.89647 0.02341 0.87686 0.0
H456 H 0.83835 0.92551 0.78755 0.0
H457 H 0.84556 0.965 0.81826 0.0
C458 C 0.45487 0.37949 0.49513 0.0
C459 C 0.44262 0.3637 0.5175 0.0
C460 C 0.48008 0.37558 0.48775 0.0
C461 C 0.52544 0.32641 0.47906 0.0
H462 H 0.57513 0.37994 0.47894 0.0
C463 C 0.61766 0.3264 0.40328 0.0
C464 C 0.6394 0.337 0.41989 0.0
C465 C 0.59443 0.32652 0.41898 0.0
C466 C 0.56155 0.36473 0.47908 0.0
H467 H 0.44708 0.33135 0.54956 0.0
H468 H 0.49128 0.32434 0.53643 0.0
H469 H 0.53347 0.38757 0.50062 0.0
H470 H 0.6543 0.35391 0.4671 0.0
H471 H 0.61388 0.35437 0.49413 0.0
H472 H 0.55337 0.30379 0.45641 0.0
C473 C 0.48139 0.33997 0.52505 0.0
C474 C 0.53768 0.36915 0.49133 0.0
C475 C 0.45627 0.34421 0.53299 0.0
C476 C 0.63778 0.34609 0.45334 0.0
C477 C 0.61464 0.34637 0.46884 0.0
C478 C 0.54925 0.32208 0.46622 0.0
C479 C 0.49341 0.35543 0.50198 0.0
C480 C 0.51933 0.3501 0.49132 0.0
C481 C 0.59256 0.33733 0.45145 0.0
C482 C 0.56753 0.34123 0.46605 0.0
H483 H 0.44468 0.39446 0.48254 0.0
H484 H 0.48881 0.38769 0.46971 0.0
H485 H 0.51154 0.31146 0.47845 0.0
H486 H 0.61827 0.31935 0.37746 0.0
H487 H 0.57769 0.31944 0.40495 0.0
C488 C 0.09927 0.93853 0.99492 0.0
C489 C 0.08277 0.92469 0.97258 0.0
C490 C 0.10584 0.9632 0.98743 0.0
C491 C 0.11312 0.00228 0.91249 0.0
H492 H 0.11884 0.05749 0.97622 0.0
C493 C 0.13059 0.1036 0.86971 0.0
C494 C 0.14225 0.1205 0.89305 0.0
C495 C 0.12593 0.07899 0.87924 0.0
C496 C 0.11792 0.0422 0.95815 0.0
H497 H 0.05831 0.92705 0.92669 0.0
H498 H 0.06969 0.96982 0.91394 0.0
H499 H 0.10359 0.01724 0.99515 0.0
H500 H 0.1596 0.12479 0.94375 0.0
H501 H 0.15298 0.08157 0.95986 0.0
H502 H 0.12791 0.02686 0.87563 0.0
C503 C 0.07793 0.96145 0.93683 0.0
C504 C 0.10893 0.01914 0.96905 0.0
C505 C 0.07116 0.93699 0.94447 0.0
C506 C 0.15082 0.11198 0.9252 0.0
C507 C 0.14654 0.08731 0.93458 0.0
C508 C 0.12245 0.02522 0.9017 0.0
C509 C 0.09614 0.97448 0.95741 0.0
C510 C 0.10611 -0.001 0.94625 0.0
C511 C 0.13305 0.07071 0.91229 0.0
C512 C 0.12477 0.04565 0.92426 0.0
H513 H 0.10884 0.92973 1.01658 0.0
H514 H 0.11983 0.97282 1.00391 0.0
H515 H 0.11164 0.98697 0.89444 0.0
H516 H 0.12329 0.10991 0.84505 0.0
H517 H 0.11531 0.06701 0.86135 0.0
C518 C 0.51086 0.60186 0.48536 0.0
C519 C 0.52961 0.62018 0.48177 0.0
C520 C 0.48655 0.60492 0.47055 0.0
C521 C 0.45651 0.62871 0.39503 0.0
H522 H 0.39334 0.61951 0.43927 0.0
C523 C 0.3609 0.62336 0.31647 0.0
C524 C 0.34207 0.60731 0.3281 0.0
C525 C 0.38285 0.62869 0.33681 0.0
C526 C 0.41077 0.62174 0.4263 0.0
H527 H 0.53768 0.65637 0.46099 0.0
H528 H 0.49514 0.66135 0.43377 0.0
H529 H 0.43298 0.62226 0.47356 0.0
H530 H 0.33154 0.58514 0.37135 0.0
H531 H 0.37017 0.59261 0.405 0.0
H532 H 0.43494 0.62639 0.3477 0.0
C533 C 0.49921 0.64489 0.44868 0.0
C534 C 0.43343 0.62363 0.44611 0.0
C535 C 0.5234 0.64214 0.46437 0.0
C536 C 0.34577 0.59702 0.36079 0.0
C537 C 0.36788 0.60184 0.38069 0.0
C538 C 0.43393 0.62622 0.37512 0.0
C539 C 0.48078 0.62604 0.45106 0.0
C540 C 0.45651 0.62693 0.43063 0.0
C541 C 0.3868 0.61779 0.36913 0.0
C542 C 0.41071 0.62236 0.39041 0.0
H543 H 0.51531 0.58472 0.49852 0.0
H544 H 0.47271 0.59007 0.47259 0.0
H545 H 0.47416 0.63088 0.38249 0.0
H546 H 0.35895 0.63157 0.29144 0.0
H547 H 0.39668 0.64141 0.32708 0.0
C548 C 0.33714 0.45347 0.58628 0.0
C549 C 0.35961 0.44167 0.59704 0.0
C550 C 0.33327 0.47836 0.59522 0.0
C551 C 0.35128 0.52008 0.66573 0.0
H552 H 0.32368 0.5731 0.60953 0.0
C553 C 0.35245 0.62169 0.71039 0.0
C554 C 0.33192 0.63677 0.70087 0.0
C555 C 0.35357 0.5974 0.69811 0.0
C556 C 0.33098 0.55833 0.62565 0.0
H557 H 0.39613 0.44664 0.62382 0.0
H558 H 0.38944 0.48987 0.63934 0.0
H559 H 0.33128 0.53241 0.58384 0.0
H560 H 0.29618 0.63851 0.67182 0.0
H561 H 0.29793 0.59562 0.65026 0.0
H562 H 0.35097 0.54566 0.70752 0.0
C563 C 0.3748 0.48008 0.62413 0.0
C564 C 0.33546 0.53514 0.61088 0.0
C565 C 0.37871 0.45544 0.61498 0.0
C566 C 0.31202 0.62699 0.67976 0.0
C567 C 0.31322 0.60264 0.66716 0.0
C568 C 0.34668 0.54311 0.68047 0.0
C569 C 0.35166 0.49148 0.61552 0.0
C570 C 0.34604 0.51594 0.63072 0.0
C571 C 0.33423 0.58774 0.67579 0.0
C572 C 0.33683 0.56263 0.66055 0.0
H573 H 0.32181 0.44298 0.57354 0.0
H574 H 0.31522 0.48672 0.58841 0.0
H575 H 0.3589 0.50542 0.68181 0.0
H576 H 0.36811 0.62903 0.72642 0.0
H577 H 0.37016 0.58658 0.70494 0.0
C578 C 0.02827 0.89217 0.07973 0.0
C579 C 0.03996 0.87379 0.06075 0.0
C580 C 0.00364 0.88841 0.09049 0.0
C581 C 0.96201 0.83775 0.11559 0.0
H582 H 0.90844 0.88616 0.10853 0.0
C583 C 0.86821 0.83222 0.18844 0.0
C584 C 0.8461 0.83921 0.16972 0.0
C585 C 0.89195 0.83467 0.1743 0.0
C586 C 0.92319 0.87239 0.11062 0.0
H587 H 0.03517 0.83715 0.03813 0.0
H588 H -0.00768 0.8305 0.05701 0.0
H589 H 0.94898 0.89523 0.0839 0.0
H590 H 0.83137 0.85224 0.12066 0.0
H591 H 0.87253 0.85654 0.0962 0.0
H592 H 0.93624 0.81502 0.14268 0.0
C593 C 0.00192 0.84799 0.06304 0.0
C594 C 0.94644 0.87769 0.09669 0.0
C595 C 0.02622 0.85204 0.05159 0.0
C596 C 0.8481 0.84717 0.13597 0.0
C597 C 0.87169 0.84973 0.12199 0.0
C598 C 0.93883 0.83259 0.12999 0.0
C599 C -0.00937 0.86583 0.08342 0.0
C600 C 0.96601 0.86034 0.09867 0.0
C601 C 0.89396 0.84423 0.14127 0.0
C602 C 0.91903 0.84974 0.12726 0.0
H603 H 0.03882 0.90863 0.08827 0.0
H604 H -0.00456 0.90245 0.10628 0.0
H605 H 0.97691 0.82416 0.11794 0.0
H606 H 0.86729 0.82615 0.21456 0.0
H607 H 0.90878 0.83024 0.18978 0.0
C608 C 0.58876 0.54755 0.62342 0.0
C609 C 0.60355 0.55318 0.59581 0.0
C610 C 0.59338 0.52629 0.64265 0.0
C611 C 0.628 0.46694 0.64866 0.0
H612 H 0.62768 0.48184 0.7454 0.0
C613 C 0.65594 0.39391 0.75062 0.0
C614 C 0.63766 0.39083 0.77493 0.0
C615 C 0.65545 0.41477 0.72951 0.0
C616 C 0.62785 0.47736 0.7185 0.0
H617 H 0.63315 0.53988 0.56466 0.0
H618 H 0.64174 0.50271 0.59881 0.0
H619 H 0.61728 0.51413 0.70427 0.0
H620 H 0.60554 0.40745 0.79778 0.0
H621 H 0.60493 0.44407 0.76165 0.0
H622 H 0.63839 0.42998 0.66321 0.0
C623 C 0.62646 0.51473 0.60549 0.0
C624 C 0.6217 0.49581 0.69487 0.0
C625 C 0.62154 0.53596 0.58586 0.0
C626 C 0.62 0.40963 0.77944 0.0
C627 C 0.61966 0.43055 0.75869 0.0
C628 C 0.63422 0.44841 0.67241 0.0
C629 C 0.6132 0.51036 0.63507 0.0
C630 C 0.6211 0.4907 0.65968 0.0
C631 C 0.63683 0.43296 0.73272 0.0
C632 C 0.63368 0.45332 0.7076 0.0
H633 H 0.57454 0.56038 0.63138 0.0
H634 H 0.58219 0.523 0.66454 0.0
H635 H 0.62778 0.46242 0.62175 0.0
H636 H 0.6695 0.37942 0.74643 0.0
H637 H 0.66907 0.41627 0.70995 0.0
C638 C 0.94379 0.07749 0.1081 0.0
C639 C 0.93651 0.09808 0.08843 0.0
C640 C 0.96822 0.07618 0.12307 0.0
C641 C 0.03202 0.10639 0.13161 0.0
H642 H 0.02542 0.09021 0.22681 0.0
C643 C 0.11355 0.12258 0.23465 0.0
C644 C 0.11807 0.10247 0.2566 0.0
C645 C 0.09164 0.12297 0.21304 0.0
C646 C 0.0277 0.09459 0.20028 0.0
H647 H 0.94963 0.13206 0.066 0.0
H648 H -0.00757 0.13004 0.09232 0.0
H649 H -0.01112 0.08638 0.18721 0.0
H650 H 0.10289 0.06767 0.27445 0.0
H651 H 0.06472 0.06838 0.23724 0.0
H652 H 0.07103 0.11475 0.14514 0.0
C653 C 0.97938 0.11476 0.09605 0.0
C654 C 0.00675 0.09224 0.17744 0.0
C655 C 0.95492 0.11585 0.08064 0.0
C656 C 0.0998 0.08341 0.25778 0.0
C657 C 0.07792 0.08387 0.23649 0.0
C658 C 0.05311 0.10873 0.15459 0.0
C659 C 0.98573 0.0957 0.11918 0.0
C660 C 0.00865 0.09781 0.14273 0.0
C661 C 0.07378 0.10338 0.21335 0.0
C662 C 0.0512 0.10263 0.18915 0.0
H663 H 0.92986 0.06364 0.11467 0.0
H664 H 0.97274 0.06083 0.13989 0.0
H665 H 0.0341 0.11092 0.10509 0.0
H666 H 0.1275 0.13738 0.23306 0.0
H667 H 0.08883 0.13841 0.1958 0.0
C668 C 0.1466 0.76972 0.04916 0.0
C669 C 0.12442 0.77682 0.06449 0.0
C670 C 0.15821 0.74731 0.0581 0.0
C671 C 0.16294 0.70964 0.13496 0.0
H672 H 0.21121 0.67236 0.08479 0.0
C673 C 0.25067 0.66666 0.20041 0.0
C674 C 0.25746 0.64261 0.19081 0.0
C675 C 0.23127 0.67897 0.18234 0.0
C676 C 0.19755 0.68237 0.09903 0.0
H677 H 0.0953 0.76533 0.0978 0.0
H678 H 0.11457 0.72546 0.11182 0.0
H679 H 0.18078 0.69903 0.05402 0.0
H680 H 0.2497 0.61263 0.15454 0.0
H681 H 0.21575 0.63435 0.12258 0.0
H682 H 0.17998 0.69355 0.17993 0.0
C683 C 0.12366 0.73747 0.09401 0.0
C684 C 0.18025 0.69776 0.08146 0.0
C685 C 0.11243 0.76012 0.08573 0.0
C686 C 0.2447 0.63116 0.16252 0.0
C687 C 0.22538 0.64358 0.1442 0.0
C688 C 0.1802 0.69439 0.15241 0.0
C689 C 0.14755 0.7316 0.08218 0.0
C690 C 0.1631 0.71202 0.09934 0.0
C691 C 0.21842 0.66758 0.15404 0.0
C692 C 0.19814 0.68114 0.13479 0.0
H693 H 0.15633 0.78258 0.03306 0.0
H694 H 0.17662 0.74351 0.04856 0.0
H695 H 0.15038 0.72059 0.14977 0.0
H696 H 0.26044 0.67593 0.22191 0.0
H697 H 0.22661 0.69763 0.19018 0.0
C698 C 0.7023 0.65152 0.58899 0.0
C699 C 0.68242 0.65963 0.56704 0.0
C700 C 0.72081 0.66828 0.60186 0.0
C701 C 0.74249 0.73512 0.60031 0.0
H702 H 0.75406 0.72402 0.69719 0.0
C703 C 0.76689 0.81353 0.69888 0.0
C704 C 0.78327 0.80811 0.727 0.0
C705 C 0.75957 0.79496 0.67513 0.0
C706 C 0.75146 0.72729 0.67008 0.0
H707 H 0.66709 0.69106 0.53939 0.0
H708 H 0.69892 0.7206 0.5624 0.0
H709 H 0.73346 0.692 0.66185 0.0
H710 H 0.8064 0.77968 0.75104 0.0
H711 H 0.79365 0.74713 0.70959 0.0
H712 H 0.75952 0.77111 0.60937 0.0
C713 C 0.7008 0.70124 0.5692 0.0
C714 C 0.73969 0.70879 0.64961 0.0
C715 C 0.68256 0.68428 0.55577 0.0
C716 C 0.79338 0.78417 0.72988 0.0
C717 C 0.78601 0.76557 0.70622 0.0
C718 C 0.75411 0.75377 0.62095 0.0
C719 C 0.71937 0.69371 0.59387 0.0
C720 C 0.7347 0.7125 0.61447 0.0
C721 C 0.76859 0.7706 0.67895 0.0
C722 C 0.75842 0.75018 0.65618 0.0
H723 H 0.70245 0.63259 0.59818 0.0
H724 H 0.73528 0.66156 0.61984 0.0
H725 H 0.7393 0.7386 0.57335 0.0
H726 H 0.75909 0.83195 0.69593 0.0
H727 H 0.74603 0.79945 0.65458 0.0
C728 C 0.86267 0.21093 0.14875 0.0
C729 C 0.85115 0.1992 0.11989 0.0
C730 C 0.84999 0.22938 0.16603 0.0
C731 C 0.79019 0.26632 0.16565 0.0
H732 H 0.79654 0.25337 0.26262 0.0
C733 C 0.72746 0.31524 0.26191 0.0
C734 C 0.71771 0.30007 0.28719 0.0
C735 C 0.74623 0.30645 0.24125 0.0
C736 C 0.79444 0.25718 0.23562 0.0
H737 H 0.81839 0.19895 0.08461 0.0
H738 H 0.79583 0.23057 0.11518 0.0
H739 H 0.82518 0.23368 0.22486 0.0
H740 H 0.72026 0.26417 0.31135 0.0
H741 H 0.75293 0.24861 0.27522 0.0
H742 H 0.75837 0.28874 0.1765 0.0
C743 C 0.81484 0.22605 0.12432 0.0
C744 C 0.81121 0.24621 0.21388 0.0
C745 C 0.82782 0.20794 0.10661 0.0
C746 C 0.72751 0.27619 0.29202 0.0
C747 C 0.74631 0.26739 0.27143 0.0
C748 C 0.77327 0.27723 0.18744 0.0
C749 C 0.82521 0.23601 0.1553 0.0
C750 C 0.80914 0.25031 0.1785 0.0
C751 C 0.75575 0.28233 0.24555 0.0
C752 C 0.77492 0.27243 0.22265 0.0
H753 H 0.88071 0.20454 0.15941 0.0
H754 H 0.85897 0.23725 0.18908 0.0
H755 H 0.7881 0.27012 0.13864 0.0
H756 H 0.7203 0.3338 0.2578 0.0
H757 H 0.7533 0.31857 0.22192 0.0
C758 C 0.3026 0.29957 0.61442 0.0
C759 C 0.29673 0.32403 0.60511 0.0
C760 C 0.28535 0.28519 0.63193 0.0
C761 C 0.23503 0.29569 0.69115 0.0
H762 H 0.22842 0.22391 0.68893 0.0
C763 C 0.1773 0.24353 0.7895 0.0
C764 C 0.1886 0.22227 0.80369 0.0
C765 C 0.18702 0.25465 0.76075 0.0
C766 C 0.23017 0.24397 0.68999 0.0
H767 H 0.26755 0.3519 0.60391 0.0
H768 H 0.23718 0.32666 0.63359 0.0
H769 H 0.25098 0.24509 0.6446 0.0
H770 H 0.21804 0.19521 0.79816 0.0
H771 H 0.23536 0.21474 0.74839 0.0
H772 H 0.21499 0.29465 0.73697 0.0
C773 C 0.25528 0.31873 0.62825 0.0
C774 C 0.24305 0.2561 0.66452 0.0
C775 C 0.27256 0.3331 0.61097 0.0
C776 C 0.20912 0.21171 0.78782 0.0
C777 C 0.21889 0.22282 0.75915 0.0
C778 C 0.22221 0.28359 0.71659 0.0
C779 C 0.26192 0.29506 0.6404 0.0
C780 C 0.24594 0.28209 0.66506 0.0
C781 C 0.2082 0.24464 0.7455 0.0
C782 C 0.21994 0.25754 0.71667 0.0
H783 H 0.32122 0.29224 0.61053 0.0
H784 H 0.29115 0.26708 0.64098 0.0
H785 H 0.2373 0.31569 0.69285 0.0
H786 H 0.16125 0.25182 0.8011 0.0
H787 H 0.17804 0.27119 0.75063 0.0
C788 C 0.6302 0.68227 0.42826 0.0
C789 C 0.64257 0.66896 0.45467 0.0
C790 C 0.64365 0.69897 0.40888 0.0
C791 C 0.68401 0.70805 0.35695 0.0
H792 H 0.72345 0.76686 0.38362 0.0
C793 C 0.75346 0.75235 0.26738 0.0
C794 C 0.75143 0.77806 0.26258 0.0
C795 C 0.74122 0.74074 0.29373 0.0
C796 C 0.71247 0.75048 0.37591 0.0
H797 H 0.67839 0.66381 0.4829 0.0
H798 H 0.70201 0.6932 0.44866 0.0
H799 H 0.69944 0.74459 0.42628 0.0
H800 H 0.73547 0.81193 0.2817 0.0
H801 H 0.71402 0.79157 0.3282 0.0
H802 H 0.69702 0.71344 0.30694 0.0
C803 C 0.68186 0.69068 0.44328 0.0
C804 C 0.6989 0.73775 0.40026 0.0
C805 C 0.66837 0.67386 0.46273 0.0
C806 C 0.73739 0.79207 0.2851 0.0
C807 C 0.72525 0.78047 0.31168 0.0
C808 C 0.69782 0.72043 0.33289 0.0
C809 C 0.6697 0.70276 0.41557 0.0
C810 C 0.68446 0.71653 0.39079 0.0
C811 C 0.72675 0.75461 0.31591 0.0
C812 C 0.7122 0.74177 0.34203 0.0
H813 H 0.61024 0.67921 0.42188 0.0
H814 H 0.63391 0.70825 0.38775 0.0
H815 H 0.6731 0.69163 0.34918 0.0
H816 H 0.76417 0.74113 0.25039 0.0
H817 H 0.7429 0.72082 0.2966 0.0
C818 C 0.77847 0.14479 1.01704 0.0
C819 C 0.79633 0.13413 0.9963 0.0
C820 C 0.75936 0.15985 1.00261 0.0
C821 C 0.72989 0.18026 0.91882 0.0
H822 H 0.72576 0.24443 0.96362 0.0
C823 C 0.71503 0.27219 0.84862 0.0
C824 C 0.69302 0.28519 0.8555 0.0
C825 C 0.72292 0.25233 0.86898 0.0
C826 C 0.72643 0.22645 0.95114 0.0
H827 H 0.8073 0.12919 0.94444 0.0
H828 H 0.77431 0.15505 0.91936 0.0
H829 H 0.74658 0.20998 0.99373 0.0
H830 H 0.66171 0.28723 0.88911 0.0
H831 H 0.6762 0.25283 0.9255 0.0
H832 H 0.71144 0.1974 0.87537 0.0
C833 C 0.7746 0.15192 0.94655 0.0
C834 C 0.73818 0.20666 0.96838 0.0
C835 C 0.79363 0.13709 0.96092 0.0
C836 C 0.67904 0.27793 0.88345 0.0
C837 C 0.68723 0.25824 0.90423 0.0
C838 C 0.71855 0.20009 0.9015 0.0
C839 C 0.75776 0.16424 0.96726 0.0
C840 C 0.7408 0.18354 0.95197 0.0
C841 C 0.70905 0.24513 0.89681 0.0
C842 C 0.71735 0.22349 0.91718 0.0
H843 H 0.78037 0.14299 0.04448 0.0
H844 H 0.74652 0.16886 1.01924 0.0
H845 H 0.73107 0.1626 0.90565 0.0
H846 H 0.72593 0.27719 0.82704 0.0
H847 H 0.73987 0.24247 0.8629 0.0
C848 C 0.34949 0.26715 0.50271 0.0
C849 C 0.3377 0.28584 0.52102 0.0
C850 C 0.33593 0.24595 0.49167 0.0
C851 C 0.27532 0.211 0.49743 0.0
H852 H 0.28281 0.19981 0.40086 0.0
C853 C 0.21534 0.1382 0.4182 0.0
C854 C 0.20502 0.14671 0.38682 0.0
C855 C 0.23363 0.15236 0.4368 0.0
C856 C 0.28053 0.20268 0.42783 0.0
H857 H 0.30283 0.29685 0.54283 0.0
H858 H 0.27912 0.25968 0.52409 0.0
H859 H 0.31147 0.22852 0.43206 0.0
H860 H 0.205 0.177 0.35086 0.0
H861 H 0.23714 0.20167 0.38312 0.0
H862 H 0.24368 0.18577 0.49269 0.0
C863 C 0.29898 0.26108 0.51885 0.0
C864 C 0.29715 0.21889 0.44584 0.0
C865 C 0.31261 0.28229 0.52995 0.0
C866 C 0.21307 0.16978 0.3746 0.0
C867 C 0.23149 0.18383 0.39303 0.0
C868 C 0.25874 0.19464 0.4794 0.0
C869 C 0.31023 0.24318 0.49842 0.0
C870 C 0.29447 0.22358 0.48071 0.0
C871 C 0.24192 0.1753 0.42436 0.0
C872 C 0.26087 0.19074 0.44426 0.0
H873 H 0.36883 0.26957 0.4954 0.0
H874 H 0.34523 0.2323 0.47643 0.0
H875 H 0.27287 0.21415 0.5243 0.0
H876 H 0.20915 0.12065 0.42842 0.0
H877 H 0.24138 0.14532 0.46083 0.0
C878 C 0.1973 0.84308 0.98595 0.0
C879 C 0.18161 0.86054 0.96934 0.0
C880 C 0.21587 0.83093 0.96816 0.0
C881 C 0.22511 0.81284 0.87937 0.0
H882 H 0.28704 0.78389 0.91692 0.0
C883 C 0.271 0.72882 0.81681 0.0
C884 C 0.29747 0.72843 0.81647 0.0
C885 C 0.25897 0.74726 0.83499 0.0
C886 C 0.26993 0.79207 0.90591 0.0
H887 H 0.17475 0.88109 0.92274 0.0
H888 H 0.20792 0.86094 0.89229 0.0
H889 H 0.26473 0.81415 0.95057 0.0
H890 H 0.33221 0.74717 0.83405 0.0
H891 H 0.31122 0.77954 0.86579 0.0
H892 H 0.23024 0.79088 0.83478 0.0
C893 C 0.20536 0.85583 0.9185 0.0
C894 C 0.25704 0.80924 0.92532 0.0
C895 C 0.18661 0.86766 0.93607 0.0
C896 C 0.31175 0.74701 0.83415 0.0
C897 C 0.29974 0.76543 0.85243 0.0
C898 C 0.23797 0.79575 0.86003 0.0
C899 C 0.21918 0.8363 0.93364 0.0
C900 C 0.23435 0.8197 0.91236 0.0
C901 C 0.27321 0.7657 0.8532 0.0
C902 C 0.26037 0.78492 0.87319 0.0
H903 H 0.19358 0.837 1.01145 0.0
H904 H 0.22612 0.81597 0.98064 0.0
H905 H 0.20744 0.82008 0.86873 0.0
H906 H 0.25966 0.71466 0.8033 0.0
H907 H 0.23852 0.74675 0.83535 0.0
loop_
_geom_bond_atom_site_label_1
_geom_bond_atom_site_label_2
_geom_bond_distance
_geom_bond_site_symmetry_2
_ccdc_geom_bond_type
Zn0 O6 1.920 . S
Zn0 O12 1.898 . S
Zn0 O15 1.905 . S
Zn1 O9 1.905 . S
Zn1 O10 1.898 . S
Zn1 O18 1.920 . S
Zn2 O5 2.081 . S
Zn2 O8 2.114 1_554 S
Zn2 O11 2.120 1_554 S
Zn2 O13 2.120 . S
Zn2 O14 2.114 . S
Zn2 O17 2.080 1_554 S
C3 O8 1.166 . S
C3 O9 1.182 . S
C4 O10 1.167 . S
C4 O11 1.299 . S
O5 Zn2 2.081 . S
O5 C19 1.305 . S
O6 Zn0 1.920 . S
O6 C19 1.234 . S
C7 O12 1.167 . S
C7 O13 1.299 . S
O8 Zn2 2.114 1_556 S
O8 C3 1.166 . S
O9 Zn1 1.905 . S
O9 C3 1.182 . S
O10 Zn1 1.898 . S
O10 C4 1.167 . S
O11 Zn2 2.120 1_556 S
O11 C4 1.299 . S
O12 Zn0 1.898 . S
O12 C7 1.167 . S
O13 Zn2 2.120 . S
O13 C7 1.299 . S
O14 Zn2 2.114 . S
O14 C16 1.166 . S
O15 Zn0 1.905 . S
O15 C16 1.182 . S
C16 O14 1.166 . S
C16 O15 1.182 . S
O17 Zn2 2.080 1_556 S
O17 C20 1.305 . S
O18 Zn1 1.920 . S
O18 C20 1.234 . S
C19 O5 1.305 . S
C19 O6 1.234 . S
C20 O17 1.305 . S
C20 O18 1.234 . S
Zn21 O27 1.920 . S
Zn21 O33 1.898 . S
Zn21 O36 1.905 . S
Zn22 O30 1.905 . S
Zn22 O31 1.898 . S
Zn22 O39 1.920 . S
Zn23 O26 2.080 . S
Zn23 O29 2.114 . S
Zn23 O32 2.120 . S
Zn23 O34 2.120 . S
Zn23 O35 2.114 . S
Zn23 O38 2.080 . S
C24 O29 1.166 . S
C24 O30 1.182 . S
C25 O31 1.167 . S
C25 O32 1.299 . S
O26 Zn23 2.080 . S
O26 C40 1.305 . S
O27 Zn21 1.920 . S
O27 C40 1.234 . S
C28 O33 1.167 . S
C28 O34 1.299 . S
O29 Zn23 2.114 . S
O29 C24 1.166 . S
O30 Zn22 1.905 . S
O30 C24 1.182 . S
O31 Zn22 1.898 . S
O31 C25 1.167 . S
O32 Zn23 2.120 . S
O32 C25 1.299 . S
O33 Zn21 1.898 . S
O33 C28 1.167 . S
O34 Zn23 2.120 . S
O34 C28 1.299 . S
O35 Zn23 2.114 . S
O35 C37 1.166 . S
O36 Zn21 1.905 . S
O36 C37 1.182 . S
C37 O35 1.166 . S
C37 O36 1.182 . S
O38 Zn23 2.080 . S
O38 C41 1.305 . S
O39 Zn22 1.920 . S
O39 C41 1.234 . S
C40 O26 1.305 . S
C40 O27 1.234 . S
C41 O38 1.305 . S
C41 O39 1.234 . S
Zn42 O48 1.920 . S
Zn42 O54 1.898 . S
Zn42 O57 1.905 . S
Zn43 O51 1.905 . S
Zn43 O52 1.898 . S
Zn43 O60 1.920 . S
Zn44 O47 2.080 . S
Zn44 O50 2.114 . S
Zn44 O53 2.120 . S
Zn44 O55 2.120 . S
Zn44 O56 2.098 1_554 S
Zn44 O59 2.080 . S
C45 O50 1.166 . S
C45 O51 1.182 . S
C46 O52 1.167 . S
C46 O53 1.299 . S
O47 Zn44 2.080 . S
O47 C61 1.305 1_554 S
O48 Zn42 1.920 . S
O48 C61 1.234 . S
C49 O54 1.167 . S
C49 O55 1.299 1_556 S
O50 Zn44 2.114 . S
O50 C45 1.166 . S
O51 Zn43 1.905 . S
O51 C45 1.182 . S
O52 Zn43 1.898 . S
O52 C46 1.167 . S
O53 Zn44 2.120 . S
O53 C46 1.299 . S
O54 Zn42 1.898 . S
O54 C49 1.167 . S
O55 Zn44 2.120 . S
O55 C49 1.299 1_554 S
O56 Zn44 2.098 1_556 S
O56 C58 1.187 . S
O57 Zn42 1.905 . S
O57 C58 1.182 . S
C58 O56 1.187 . S
C58 O57 1.182 . S
O59 Zn44 2.080 . S
O59 C62 1.305 . S
O60 Zn43 1.920 . S
O60 C62 1.234 . S
C61 O47 1.305 1_556 S
C61 O48 1.234 . S
C62 O59 1.305 . S
C62 O60 1.234 . S
Zn63 O69 1.920 . S
Zn63 O75 1.898 . S
Zn63 O78 1.905 . S
Zn64 O72 1.905 . S
Zn64 O73 1.898 . S
Zn64 O81 1.920 . S
Zn65 O68 2.080 . S
Zn65 O71 2.114 . S
Zn65 O74 2.120 . S
Zn65 O76 2.120 . S
Zn65 O77 2.114 . S
Zn65 O80 2.080 . S
C66 O71 1.166 . S
C66 O72 1.182 . S
C67 O73 1.167 . S
C67 O74 1.299 . S
O68 Zn65 2.080 . S
O68 C82 1.305 . S
O69 Zn63 1.920 . S
O69 C82 1.234 . S
C70 O75 1.167 . S
C70 O76 1.299 . S
O71 Zn65 2.114 . S
O71 C66 1.166 . S
O72 Zn64 1.905 . S
O72 C66 1.182 . S
O73 Zn64 1.898 . S
O73 C67 1.167 . S
O74 Zn65 2.120 . S
O74 C67 1.299 . S
O75 Zn63 1.898 . S
O75 C70 1.167 . S
O76 Zn65 2.120 . S
O76 C70 1.299 . S
O77 Zn65 2.114 . S
O77 C79 1.166 . S
O78 Zn63 1.905 . S
O78 C79 1.182 . S
C79 O77 1.166 . S
C79 O78 1.182 . S
O80 Zn65 2.080 . S
O80 C83 1.305 . S
O81 Zn64 1.920 . S
O81 C83 1.234 . S
C82 O68 1.305 . S
C82 O69 1.234 . S
C83 O80 1.305 . S
C83 O81 1.234 . S
H84 C91 0.929 . S
H85 C94 0.930 . S
H86 C96 0.929 . S
H87 C88 0.969 . S
C88 H87 0.969 . S
C88 O89 1.550 . S
C88 H90 0.973 . S
O89 C88 1.550 . S
O89 C95 1.412 . S
H90 C88 0.973 . S
C91 H84 0.929 . S
C91 C92 1.400 . S
C91 C93 1.364 . S
C92 C91 1.400 . S
C92 C96 1.377 . S
C93 C91 1.364 . S
C93 C94 1.374 . S
C94 H85 0.930 . S
C94 C93 1.374 . S
C94 C95 1.383 . S
C95 O89 1.412 . S
C95 C94 1.383 . S
C95 C96 1.394 . S
C96 H86 0.929 . S
C96 C92 1.377 . S
C96 C95 1.394 . S
H97 C104 0.929 . S
H98 C107 0.930 . S
H99 C109 0.929 . S
H100 C101 0.969 . S
C101 H100 0.969 . S
C101 O102 1.550 . S
C101 H103 0.973 . S
O102 C101 1.550 . S
O102 C108 1.412 . S
H103 C101 0.973 . S
C104 H97 0.929 . S
C104 C105 1.400 . S
C104 C106 1.364 . S
C105 C104 1.400 . S
C105 C109 1.377 . S
C106 C104 1.364 . S
C106 C107 1.374 . S
C107 H98 0.930 . S
C107 C106 1.374 . S
C107 C108 1.383 . S
C108 O102 1.412 . S
C108 C107 1.383 . S
C108 C109 1.394 . S
C109 H99 0.929 . S
C109 C105 1.377 . S
C109 C108 1.394 . S
H110 C117 0.929 . S
H111 C120 0.930 . S
H112 C122 0.929 . S
H113 C114 0.969 . S
C114 H113 0.969 . S
C114 O115 1.550 . S
C114 H116 0.973 . S
O115 C114 1.550 . S
O115 C121 1.412 . S
H116 C114 0.973 . S
C117 H110 0.929 . S
C117 C118 1.400 . S
C117 C119 1.364 . S
C118 C117 1.400 . S
C118 C122 1.377 . S
C119 C117 1.364 . S
C119 C120 1.374 . S
C120 H111 0.930 . S
C120 C119 1.374 . S
C120 C121 1.383 . S
C121 O115 1.412 . S
C121 C120 1.383 . S
C121 C122 1.394 . S
C122 H112 0.929 . S
C122 C118 1.377 . S
C122 C121 1.394 . S
H123 C130 0.929 . S
H124 C133 0.930 . S
H125 C135 0.929 . S
H126 C127 0.969 . S
C127 H126 0.969 . S
C127 O128 1.550 . S
C127 H129 0.973 . S
O128 C127 1.550 . S
O128 C134 1.412 . S
H129 C127 0.973 . S
C130 H123 0.929 . S
C130 C131 1.400 . S
C130 C132 1.364 . S
C131 C130 1.400 . S
C131 C135 1.377 . S
C132 C130 1.364 . S
C132 C133 1.374 . S
C133 H124 0.930 . S
C133 C132 1.374 . S
C133 C134 1.383 . S
C134 O128 1.412 . S
C134 C133 1.383 . S
C134 C135 1.394 . S
C135 H125 0.929 . S
C135 C131 1.377 . S
C135 C134 1.394 . S
H136 C143 0.929 . S
H137 C146 0.930 . S
H138 C148 0.929 . S
H139 C140 0.969 . S
C140 H139 0.969 . S
C140 O141 1.550 . S
C140 H142 0.973 . S
O141 C140 1.550 . S
O141 C147 1.412 . S
H142 C140 0.973 . S
C143 H136 0.929 . S
C143 C144 1.400 . S
C143 C145 1.364 . S
C144 C143 1.400 . S
C144 C148 1.377 . S
C145 C143 1.364 . S
C145 C146 1.374 . S
C146 H137 0.930 . S
C146 C145 1.374 . S
C146 C147 1.383 . S
C147 O141 1.412 . S
C147 C146 1.383 . S
C147 C148 1.394 . S
C148 H138 0.929 . S
C148 C144 1.377 . S
C148 C147 1.394 . S
H149 C156 0.929 . S
H150 C159 0.930 . S
H151 C161 0.929 . S
H152 C153 0.969 . S
C153 H152 0.969 . S
C153 O154 1.550 . S
C153 H155 0.973 . S
O154 C153 1.550 . S
O154 C160 1.412 . S
H155 C153 0.973 . S
C156 H149 0.929 . S
C156 C157 1.400 . S
C156 C158 1.364 . S
C157 C156 1.400 . S
C157 C161 1.377 . S
C158 C156 1.364 . S
C158 C159 1.374 . S
C159 H150 0.930 . S
C159 C158 1.374 . S
C159 C160 1.383 . S
C160 O154 1.412 . S
C160 C159 1.383 . S
C160 C161 1.394 . S
C161 H151 0.929 . S
C161 C157 1.377 . S
C161 C160 1.394 . S
H162 C169 0.929 . S
H163 C172 0.930 . S
H164 C174 0.929 . S
H165 C166 0.969 . S
C166 H165 0.969 . S
C166 O167 1.550 . S
C166 H168 0.973 . S
O167 C166 1.550 . S
O167 C173 1.412 . S
H168 C166 0.973 . S
C169 H162 0.929 . S
C169 C170 1.400 . S
C169 C171 1.364 . S
C170 C169 1.400 . S
C170 C174 1.377 . S
C171 C169 1.364 . S
C171 C172 1.374 . S
C172 H163 0.930 . S
C172 C171 1.374 . S
C172 C173 1.383 . S
C173 O167 1.412 . S
C173 C172 1.383 . S
C173 C174 1.394 . S
C174 H164 0.929 . S
C174 C170 1.377 . S
C174 C173 1.394 . S
H175 C182 0.929 . S
H176 C185 0.930 . S
H177 C187 0.929 . S
H178 C179 0.969 . S
C179 H178 0.969 . S
C179 O180 1.550 . S
C179 H181 0.973 . S
O180 C179 1.550 . S
O180 C186 1.412 . S
H181 C179 0.973 . S
C182 H175 0.929 . S
C182 C183 1.400 . S
C182 C184 1.364 . S
C183 C182 1.400 . S
C183 C187 1.377 . S
C184 C182 1.364 . S
C184 C185 1.374 . S
C185 H176 0.930 . S
C185 C184 1.374 . S
C185 C186 1.383 . S
C186 O180 1.412 . S
C186 C185 1.383 . S
C186 C187 1.394 . S
C187 H177 0.929 . S
C187 C183 1.377 . S
C187 C186 1.394 . S
C188 C189 1.349 . S
C188 C190 1.327 . S
C188 H213 0.950 . S
C189 C188 1.349 . S
C189 C205 1.349 . S
C190 C188 1.327 . S
C190 C209 1.429 . S
C190 H214 0.950 . S
C191 C208 1.574 . S
C191 C210 1.368 . S
C191 H215 0.949 . S
H192 C196 0.949 1_545 S
C193 C194 1.349 . S
C193 C195 1.327 . S
C193 H216 0.950 . S
C194 C193 1.349 . S
C194 C206 1.349 . S
C195 C193 1.327 . S
C195 C211 1.429 . S
C195 H217 0.950 . S
C196 H192 0.949 1_565 S
C196 C204 1.574 . S
C196 C212 1.368 . S
H197 C205 0.950 . S
H198 C203 0.950 . S
H199 C204 0.949 . S
H200 C206 0.950 . S
H201 C207 0.950 . S
H202 C208 0.949 . S
C203 H198 0.950 . S
C203 C205 1.327 . S
C203 C209 1.429 . S
C204 C196 1.574 . S
C204 H199 0.949 . S
C204 C210 1.368 . S
C205 C189 1.349 . S
C205 H197 0.950 . S
C205 C203 1.327 . S
C206 C194 1.349 . S
C206 H200 0.950 . S
C206 C207 1.327 . S
C207 H201 0.950 . S
C207 C206 1.327 . S
C207 C211 1.429 . S
C208 C191 1.574 . S
C208 H202 0.949 . S
C208 C212 1.368 . S
C209 C190 1.429 . S
C209 C203 1.429 . S
C209 C210 1.523 . S
C210 C191 1.368 . S
C210 C204 1.368 . S
C210 C209 1.523 . S
C211 C195 1.429 . S
C211 C207 1.429 . S
C211 C212 1.523 1_545 S
C212 C196 1.368 . S
C212 C208 1.368 . S
C212 C211 1.523 1_565 S
H213 C188 0.950 . S
H214 C190 0.950 . S
H215 C191 0.949 . S
H216 C193 0.950 . S
H217 C195 0.950 . S
C218 C219 1.349 . S
C218 C220 1.327 . S
C218 H243 0.950 . S
C219 C218 1.349 . S
C219 C235 1.349 . S
C220 C218 1.327 . S
C220 C239 1.429 . S
C220 H244 0.950 . S
C221 C238 1.574 . S
C221 C240 1.368 . S
C221 H245 0.949 . S
H222 C226 0.949 . S
C223 C224 1.349 . S
C223 C225 1.327 . S
C223 H246 0.950 . S
C224 C223 1.349 . S
C224 C236 1.349 . S
C225 C223 1.327 . S
C225 C241 1.429 . S
C225 H247 0.950 . S
C226 H222 0.949 . S
C226 C234 1.574 . S
C226 C242 1.368 . S
H227 C235 0.950 . S
H228 C233 0.950 . S
H229 C234 0.949 . S
H230 C236 0.950 . S
H231 C237 0.950 . S
H232 C238 0.949 . S
C233 H228 0.950 . S
C233 C235 1.327 . S
C233 C239 1.429 . S
C234 C226 1.574 . S
C234 H229 0.949 . S
C234 C240 1.368 . S
C235 C219 1.349 . S
C235 H227 0.950 . S
C235 C233 1.327 . S
C236 C224 1.349 . S
C236 H230 0.950 . S
C236 C237 1.327 . S
C237 H231 0.950 . S
C237 C236 1.327 . S
C237 C241 1.429 . S
C238 C221 1.574 . S
C238 H232 0.949 . S
C238 C242 1.368 . S
C239 C220 1.429 . S
C239 C233 1.429 . S
C239 C240 1.523 . S
C240 C221 1.368 . S
C240 C234 1.368 . S
C240 C239 1.523 . S
C241 C225 1.429 . S
C241 C237 1.429 . S
C241 C242 1.523 . S
C242 C226 1.368 . S
C242 C238 1.368 . S
C242 C241 1.523 . S
H243 C218 0.950 . S
H244 C220 0.950 . S
H245 C221 0.949 . S
H246 C223 0.950 . S
H247 C225 0.950 . S
C248 C249 1.349 . S
C248 C250 1.327 . S
C248 H273 0.950 . S
C249 C248 1.349 . S
C249 C265 1.349 . S
C250 C248 1.327 . S
C250 C269 1.429 . S
C250 H274 0.950 . S
C251 C268 1.574 . S
C251 C270 1.368 1_565 S
C251 H275 0.949 . S
H252 C256 0.949 . S
C253 C254 1.349 . S
C253 C255 1.327 . S
C253 H276 0.950 . S
C254 C253 1.349 . S
C254 C266 1.349 . S
C255 C253 1.327 . S
C255 C271 1.429 . S
C255 H277 0.950 . S
C256 H252 0.949 . S
C256 C264 1.574 1_565 S
C256 C272 1.368 . S
H257 C265 0.950 . S
H258 C263 0.950 . S
H259 C264 0.949 . S
H260 C266 0.950 . S
H261 C267 0.950 . S
H262 C268 0.949 . S
C263 H258 0.950 . S
C263 C265 1.327 . S
C263 C269 1.429 . S
C264 C256 1.574 1_545 S
C264 H259 0.949 . S
C264 C270 1.368 . S
C265 C249 1.349 . S
C265 H257 0.950 . S
C265 C263 1.327 . S
C266 C254 1.349 . S
C266 H260 0.950 . S
C266 C267 1.327 . S
C267 H261 0.950 . S
C267 C266 1.327 . S
C267 C271 1.429 . S
C268 C251 1.574 . S
C268 H262 0.949 . S
C268 C272 1.368 . S
C269 C250 1.429 . S
C269 C263 1.429 . S
C269 C270 1.523 . S
C270 C251 1.368 1_545 S
C270 C264 1.368 . S
C270 C269 1.523 . S
C271 C255 1.429 . S
C271 C267 1.429 . S
C271 C272 1.523 . S
C272 C256 1.368 . S
C272 C268 1.368 . S
C272 C271 1.523 . S
H273 C248 0.950 . S
H274 C250 0.950 . S
H275 C251 0.949 . S
H276 C253 0.950 . S
H277 C255 0.950 . S
C278 C279 1.349 . S
C278 C280 1.327 . S
C278 H303 0.950 . S
C279 C278 1.349 . S
C279 C295 1.349 . S
C280 C278 1.327 . S
C280 C299 1.429 . S
C280 H304 0.950 . S
C281 C298 1.574 . S
C281 C300 1.368 . S
C281 H305 0.949 . S
H282 C286 0.949 . S
C283 C284 1.349 . S
C283 C285 1.327 . S
C283 H306 0.950 . S
C284 C283 1.349 . S
C284 C296 1.349 . S
C285 C283 1.327 . S
C285 C301 1.429 . S
C285 H307 0.950 . S
C286 H282 0.949 . S
C286 C294 1.574 . S
C286 C302 1.368 . S
H287 C295 0.950 . S
H288 C293 0.950 . S
H289 C294 0.949 . S
H290 C296 0.950 . S
H291 C297 0.950 . S
H292 C298 0.949 . S
C293 H288 0.950 . S
C293 C295 1.327 . S
C293 C299 1.429 . S
C294 C286 1.574 . S
C294 H289 0.949 . S
C294 C300 1.368 . S
C295 C279 1.349 . S
C295 H287 0.950 . S
C295 C293 1.327 . S
C296 C284 1.349 . S
C296 H290 0.950 . S
C296 C297 1.327 . S
C297 H291 0.950 . S
C297 C296 1.327 . S
C297 C301 1.429 . S
C298 C281 1.574 . S
C298 H292 0.949 . S
C298 C302 1.368 . S
C299 C280 1.429 . S
C299 C293 1.429 . S
C299 C300 1.523 . S
C300 C281 1.368 . S
C300 C294 1.368 . S
C300 C299 1.523 . S
C301 C285 1.429 . S
C301 C297 1.429 . S
C301 C302 1.523 . S
C302 C286 1.368 . S
C302 C298 1.368 . S
C302 C301 1.523 . S
H303 C278 0.950 . S
H304 C280 0.950 . S
H305 C281 0.949 . S
H306 C283 0.950 . S
H307 C285 0.950 . S
C308 C309 1.349 . S
C308 C310 1.327 . S
C308 H333 0.950 . S
C309 C308 1.349 . S
C309 C325 1.349 . S
C310 C308 1.327 . S
C310 C329 1.429 . S
C310 H334 0.950 . S
C311 C328 1.574 . S
C311 C330 1.368 . S
C311 H335 0.949 . S
H312 C316 0.949 . S
C313 C314 1.349 . S
C313 C315 1.327 . S
C313 H336 0.950 . S
C314 C313 1.349 . S
C314 C326 1.349 . S
C315 C313 1.327 . S
C315 C331 1.429 . S
C315 H337 0.950 . S
C316 H312 0.949 . S
C316 C324 1.574 . S
C316 C332 1.368 . S
H317 C325 0.950 . S
H318 C323 0.950 . S
H319 C324 0.949 . S
H320 C326 0.950 . S
H321 C327 0.950 . S
H322 C328 0.949 . S
C323 H318 0.950 . S
C323 C325 1.327 . S
C323 C329 1.429 . S
C324 C316 1.574 . S
C324 H319 0.949 . S
C324 C330 1.368 . S
C325 C309 1.349 . S
C325 H317 0.950 . S
C325 C323 1.327 . S
C326 C314 1.349 . S
C326 H320 0.950 . S
C326 C327 1.327 . S
C327 H321 0.950 . S
C327 C326 1.327 . S
C327 C331 1.429 . S
C328 C311 1.574 . S
C328 H322 0.949 . S
C328 C332 1.368 . S
C329 C310 1.429 . S
C329 C323 1.429 . S
C329 C330 1.523 . S
C330 C311 1.368 . S
C330 C324 1.368 . S
C330 C329 1.523 . S
C331 C315 1.429 . S
C331 C327 1.429 . S
C331 C332 1.523 . S
C332 C316 1.368 . S
C332 C328 1.368 . S
C332 C331 1.523 . S
H333 C308 0.950 . S
H334 C310 0.950 . S
H335 C311 0.949 . S
H336 C313 0.950 . S
H337 C315 0.950 . S
C338 C339 1.349 1_554 S
C338 C340 1.327 1_554 S
C338 H363 0.950 . S
C339 C338 1.349 1_556 S
C339 C355 1.349 . S
C340 C338 1.327 1_556 S
C340 C359 1.429 . S
C340 H364 0.935 1_556 S
C341 C358 1.574 1_655 S
C341 C360 1.368 . S
C341 H365 0.949 . S
H342 C346 0.949 . S
C343 C344 1.349 . S
C343 C345 1.327 . S
C343 H366 0.950 . S
C344 C343 1.349 . S
C344 C356 1.349 . S
C345 C343 1.327 . S
C345 C361 1.429 . S
C345 H367 0.950 . S
C346 H342 0.949 . S
C346 C354 1.574 . S
C346 C362 1.368 . S
H347 C355 0.950 . S
H348 C353 0.950 . S
H349 C354 0.949 . S
H350 C356 0.950 . S
H351 C357 0.950 . S
H352 C358 0.949 . S
C353 H348 0.950 . S
C353 C355 1.327 . S
C353 C359 1.429 . S
C354 C346 1.574 . S
C354 H349 0.949 . S
C354 C360 1.368 1_455 S
C355 C339 1.349 . S
C355 H347 0.950 . S
C355 C353 1.327 . S
C356 C344 1.349 . S
C356 H350 0.950 . S
C356 C357 1.327 . S
C357 H351 0.950 . S
C357 C356 1.327 . S
C357 C361 1.429 . S
C358 C341 1.574 1_455 S
C358 H352 0.949 . S
C358 C362 1.368 . S
C359 C340 1.429 . S
C359 C353 1.429 . S
C359 C360 1.523 . S
C360 C341 1.368 . S
C360 C354 1.368 1_655 S
C360 C359 1.523 . S
C361 C345 1.429 . S
C361 C357 1.429 . S
C361 C362 1.523 . S
C362 C346 1.368 . S
C362 C358 1.368 . S
C362 C361 1.523 . S
H363 C338 0.950 . S
H364 C340 0.935 1_554 S
H365 C341 0.949 . S
H366 C343 0.950 . S
H367 C345 0.950 . S
C368 C369 1.349 . S
C368 C370 1.327 . S
C368 H393 0.950 . S
C369 C368 1.349 . S
C369 C385 1.349 . S
C370 C368 1.327 . S
C370 C389 1.429 . S
C370 H394 0.950 . S
C371 C388 1.574 . S
C371 C390 1.368 . S
C371 H395 0.949 . S
H372 C376 0.949 . S
C373 C374 1.349 . S
C373 C375 1.327 . S
C373 H396 0.950 . S
C374 C373 1.349 . S
C374 C386 1.349 . S
C375 C373 1.327 . S
C375 C391 1.429 . S
C375 H397 0.950 . S
C376 H372 0.949 . S
C376 C384 1.574 . S
C376 C392 1.368 . S
H377 C385 0.950 . S
H378 C383 0.950 . S
H379 C384 0.949 . S
H380 C386 0.950 . S
H381 C387 0.950 . S
H382 C388 0.949 . S
C383 H378 0.950 . S
C383 C385 1.327 . S
C383 C389 1.429 . S
C384 C376 1.574 . S
C384 H379 0.949 . S
C384 C390 1.368 . S
C385 C369 1.349 . S
C385 H377 0.950 . S
C385 C383 1.327 . S
C386 C374 1.349 . S
C386 H380 0.950 . S
C386 C387 1.327 . S
C387 H381 0.950 . S
C387 C386 1.327 . S
C387 C391 1.429 . S
C388 C371 1.574 . S
C388 H382 0.949 . S
C388 C392 1.368 . S
C389 C370 1.429 . S
C389 C383 1.429 . S
C389 C390 1.523 . S
C390 C371 1.368 . S
C390 C384 1.368 . S
C390 C389 1.523 . S
C391 C375 1.429 . S
C391 C387 1.429 . S
C391 C392 1.523 . S
C392 C376 1.368 . S
C392 C388 1.368 . S
C392 C391 1.523 . S
H393 C368 0.950 . S
H394 C370 0.950 . S
H395 C371 0.949 . S
H396 C373 0.950 . S
H397 C375 0.950 . S
C398 C399 1.349 . S
C398 C400 1.327 . S
C398 H423 0.950 . S
C399 C398 1.349 . S
C399 C415 1.349 . S
C400 C398 1.327 . S
C400 C419 1.429 . S
C400 H424 0.950 . S
C401 C418 1.574 1_455 S
C401 C420 1.368 . S
C401 H425 0.949 . S
H402 C406 0.949 . S
C403 C404 1.349 . S
C403 C405 1.327 . S
C403 H426 0.950 . S
C404 C403 1.349 . S
C404 C416 1.349 . S
C405 C403 1.327 . S
C405 C421 1.429 . S
C405 H427 0.950 . S
C406 H402 0.949 . S
C406 C414 1.574 . S
C406 C422 1.368 . S
H407 C415 0.950 . S
H408 C413 0.950 . S
H409 C414 0.949 1_455 S
H410 C416 0.950 . S
H411 C417 0.950 . S
H412 C418 0.949 . S
C413 H408 0.950 . S
C413 C415 1.327 . S
C413 C419 1.429 . S
C414 C406 1.574 . S
C414 H409 0.949 1_655 S
C414 C420 1.368 1_655 S
C415 C399 1.349 . S
C415 H407 0.950 . S
C415 C413 1.327 . S
C416 C404 1.349 . S
C416 H410 0.950 . S
C416 C417 1.327 . S
C417 H411 0.950 . S
C417 C416 1.327 . S
C417 C421 1.429 . S
C418 C401 1.574 1_655 S
C418 H412 0.949 . S
C418 C422 1.368 . S
C419 C400 1.429 . S
C419 C413 1.429 . S
C419 C420 1.523 . S
C420 C401 1.368 . S
C420 C414 1.368 1_455 S
C420 C419 1.523 . S
C421 C405 1.429 . S
C421 C417 1.429 . S
C421 C422 1.523 . S
C422 C406 1.368 . S
C422 C418 1.368 . S
C422 C421 1.523 . S
H423 C398 0.950 . S
H424 C400 0.950 . S
H425 C401 0.949 . S
H426 C403 0.950 . S
H427 C405 0.950 . S
C428 C429 1.349 . S
C428 C430 1.327 . S
C428 H453 0.950 . S
C429 C428 1.349 . S
C429 C445 1.349 . S
C430 C428 1.327 . S
C430 C449 1.429 . S
C430 H454 0.950 . S
C431 C448 1.574 1_545 S
C431 C450 1.368 . S
C431 H455 0.949 . S
H432 C436 0.949 . S
C433 C434 1.349 . S
C433 C435 1.327 . S
C433 H456 0.950 . S
C434 C433 1.349 . S
C434 C446 1.349 . S
C435 C433 1.327 . S
C435 C451 1.429 . S
C435 H457 0.950 . S
C436 H432 0.949 . S
C436 C444 1.574 . S
C436 C452 1.368 . S
H437 C445 0.950 . S
H438 C443 0.950 . S
H439 C444 0.949 . S
H440 C446 0.950 . S
H441 C447 0.950 . S
H442 C448 0.949 . S
C443 H438 0.950 . S
C443 C445 1.327 . S
C443 C449 1.429 . S
C444 C436 1.574 . S
C444 H439 0.949 . S
C444 C450 1.368 1_565 S
C445 C429 1.349 . S
C445 H437 0.950 . S
C445 C443 1.327 . S
C446 C434 1.349 . S
C446 H440 0.950 . S
C446 C447 1.327 . S
C447 H441 0.950 . S
C447 C446 1.327 . S
C447 C451 1.429 . S
C448 C431 1.574 1_565 S
C448 H442 0.949 . S
C448 C452 1.368 . S
C449 C430 1.429 . S
C449 C443 1.429 . S
C449 C450 1.523 . S
C450 C431 1.368 . S
C450 C444 1.368 1_545 S
C450 C449 1.523 . S
C451 C435 1.429 . S
C451 C447 1.429 . S
C451 C452 1.523 . S
C452 C436 1.368 . S
C452 C448 1.368 . S
C452 C451 1.523 . S
H453 C428 0.950 . S
H454 C430 0.950 . S
H455 C431 0.949 . S
H456 C433 0.950 . S
H457 C435 0.950 . S
C458 C459 1.349 . S
C458 C460 1.327 . S
C458 H483 0.950 . S
C459 C458 1.349 . S
C459 C475 1.349 . S
C460 C458 1.327 . S
C460 C479 1.429 . S
C460 H484 0.950 . S
C461 C478 1.574 . S
C461 C480 1.368 . S
C461 H485 0.949 . S
H462 C466 0.949 . S
C463 C464 1.349 . S
C463 C465 1.327 . S
C463 H486 0.950 . S
C464 C463 1.349 . S
C464 C476 1.349 . S
C465 C463 1.327 . S
C465 C481 1.429 . S
C465 H487 0.950 . S
C466 H462 0.949 . S
C466 C474 1.574 . S
C466 C482 1.368 . S
H467 C475 0.950 . S
H468 C473 0.950 . S
H469 C474 0.949 . S
H470 C476 0.950 . S
H471 C477 0.950 . S
H472 C478 0.949 . S
C473 H468 0.950 . S
C473 C475 1.327 . S
C473 C479 1.429 . S
C474 C466 1.574 . S
C474 H469 0.949 . S
C474 C480 1.368 . S
C475 C459 1.349 . S
C475 H467 0.950 . S
C475 C473 1.327 . S
C476 C464 1.349 . S
C476 H470 0.950 . S
C476 C477 1.327 . S
C477 H471 0.950 . S
C477 C476 1.327 . S
C477 C481 1.429 . S
C478 C461 1.574 . S
C478 H472 0.949 . S
C478 C482 1.368 . S
C479 C460 1.429 . S
C479 C473 1.429 . S
C479 C480 1.523 . S
C480 C461 1.368 . S
C480 C474 1.368 . S
C480 C479 1.523 . S
C481 C465 1.429 . S
C481 C477 1.429 . S
C481 C482 1.523 . S
C482 C466 1.368 . S
C482 C478 1.368 . S
C482 C481 1.523 . S
H483 C458 0.950 . S
H484 C460 0.950 . S
H485 C461 0.949 . S
H486 C463 0.950 . S
H487 C465 0.950 . S
C488 C489 1.349 . S
C488 C490 1.327 . S
C488 H513 0.950 . S
C489 C488 1.349 . S
C489 C505 1.349 . S
C490 C488 1.327 . S
C490 C509 1.429 . S
C490 H514 0.950 . S
C491 C508 1.574 . S
C491 C510 1.368 . S
C491 H515 0.949 . S
H492 C496 0.949 . S
C493 C494 1.349 . S
C493 C495 1.327 . S
C493 H516 0.950 . S
C494 C493 1.349 . S
C494 C506 1.349 . S
C495 C493 1.327 . S
C495 C511 1.429 . S
C495 H517 0.950 . S
C496 H492 0.949 . S
C496 C504 1.574 . S
C496 C512 1.368 . S
H497 C505 0.950 . S
H498 C503 0.950 . S
H499 C504 0.949 . S
H500 C506 0.950 . S
H501 C507 0.950 . S
H502 C508 0.949 . S
C503 H498 0.950 . S
C503 C505 1.327 . S
C503 C509 1.429 . S
C504 C496 1.574 . S
C504 H499 0.949 . S
C504 C510 1.368 . S
C505 C489 1.349 . S
C505 H497 0.950 . S
C505 C503 1.327 . S
C506 C494 1.349 . S
C506 H500 0.950 . S
C506 C507 1.327 . S
C507 H501 0.950 . S
C507 C506 1.327 . S
C507 C511 1.429 . S
C508 C491 1.574 . S
C508 H502 0.949 . S
C508 C512 1.368 . S
C509 C490 1.429 . S
C509 C503 1.429 . S
C509 C510 1.523 1_565 S
C510 C491 1.368 . S
C510 C504 1.368 . S
C510 C509 1.523 1_545 S
C511 C495 1.429 . S
C511 C507 1.429 . S
C511 C512 1.523 . S
C512 C496 1.368 . S
C512 C508 1.368 . S
C512 C511 1.523 . S
H513 C488 0.950 . S
H514 C490 0.950 . S
H515 C491 0.949 . S
H516 C493 0.950 . S
H517 C495 0.950 . S
C518 C519 1.349 . S
C518 C520 1.327 . S
C518 H543 0.950 . S
C519 C518 1.349 . S
C519 C535 1.349 . S
C520 C518 1.327 . S
C520 C539 1.429 . S
C520 H544 0.950 . S
C521 C538 1.574 . S
C521 C540 1.368 . S
C521 H545 0.949 . S
H522 C526 0.949 . S
C523 C524 1.349 . S
C523 C525 1.327 . S
C523 H546 0.950 . S
C524 C523 1.349 . S
C524 C536 1.349 . S
C525 C523 1.327 . S
C525 C541 1.429 . S
C525 H547 0.950 . S
C526 H522 0.949 . S
C526 C534 1.574 . S
C526 C542 1.368 . S
H527 C535 0.950 . S
H528 C533 0.950 . S
H529 C534 0.949 . S
H530 C536 0.950 . S
H531 C537 0.950 . S
H532 C538 0.949 . S
C533 H528 0.950 . S
C533 C535 1.327 . S
C533 C539 1.429 . S
C534 C526 1.574 . S
C534 H529 0.949 . S
C534 C540 1.368 . S
C535 C519 1.349 . S
C535 H527 0.950 . S
C535 C533 1.327 . S
C536 C524 1.349 . S
C536 H530 0.950 . S
C536 C537 1.327 . S
C537 H531 0.950 . S
C537 C536 1.327 . S
C537 C541 1.429 . S
C538 C521 1.574 . S
C538 H532 0.949 . S
C538 C542 1.368 . S
C539 C520 1.429 . S
C539 C533 1.429 . S
C539 C540 1.523 . S
C540 C521 1.368 . S
C540 C534 1.368 . S
C540 C539 1.523 . S
C541 C525 1.429 . S
C541 C537 1.429 . S
C541 C542 1.523 . S
C542 C526 1.368 . S
C542 C538 1.368 . S
C542 C541 1.523 . S
H543 C518 0.950 . S
H544 C520 0.950 . S
H545 C521 0.949 . S
H546 C523 0.950 . S
H547 C525 0.950 . S
C548 C549 1.349 . S
C548 C550 1.327 . S
C548 H573 0.950 . S
C549 C548 1.349 . S
C549 C565 1.349 . S
C550 C548 1.327 . S
C550 C569 1.429 . S
C550 H574 0.950 . S
C551 C568 1.574 . S
C551 C570 1.368 . S
C551 H575 0.949 . S
H552 C556 0.949 . S
C553 C554 1.349 . S
C553 C555 1.327 . S
C553 H576 0.950 . S
C554 C553 1.349 . S
C554 C566 1.349 . S
C555 C553 1.327 . S
C555 C571 1.429 . S
C555 H577 0.950 . S
C556 H552 0.949 . S
C556 C564 1.574 . S
C556 C572 1.368 . S
H557 C565 0.950 . S
H558 C563 0.950 . S
H559 C564 0.949 . S
H560 C566 0.950 . S
H561 C567 0.950 . S
H562 C568 0.949 . S
C563 H558 0.950 . S
C563 C565 1.327 . S
C563 C569 1.429 . S
C564 C556 1.574 . S
C564 H559 0.949 . S
C564 C570 1.368 . S
C565 C549 1.349 . S
C565 H557 0.950 . S
C565 C563 1.327 . S
C566 C554 1.349 . S
C566 H560 0.950 . S
C566 C567 1.327 . S
C567 H561 0.950 . S
C567 C566 1.327 . S
C567 C571 1.429 . S
C568 C551 1.574 . S
C568 H562 0.949 . S
C568 C572 1.368 . S
C569 C550 1.429 . S
C569 C563 1.429 . S
C569 C570 1.523 . S
C570 C551 1.368 . S
C570 C564 1.368 . S
C570 C569 1.523 . S
C571 C555 1.429 . S
C571 C567 1.429 . S
C571 C572 1.523 . S
C572 C556 1.368 . S
C572 C568 1.368 . S
C572 C571 1.523 . S
H573 C548 0.950 . S
H574 C550 0.950 . S
H575 C551 0.949 . S
H576 C553 0.950 . S
H577 C555 0.950 . S
C578 C579 1.349 . S
C578 C580 1.327 . S
C578 H603 0.950 . S
C579 C578 1.349 . S
C579 C595 1.349 . S
C580 C578 1.327 . S
C580 C599 1.430 1_455 S
C580 H604 0.950 1_455 S
C581 C598 1.574 . S
C581 C600 1.368 . S
C581 H605 0.949 . S
H582 C586 0.949 . S
C583 C584 1.349 . S
C583 C585 1.327 . S
C583 H606 0.950 . S
C584 C583 1.349 . S
C584 C596 1.349 . S
C585 C583 1.327 . S
C585 C601 1.429 . S
C585 H607 0.950 . S
C586 H582 0.949 . S
C586 C594 1.574 . S
C586 C602 1.368 . S
H587 C595 0.950 . S
H588 C593 0.950 . S
H589 C594 0.949 . S
H590 C596 0.950 . S
H591 C597 0.950 . S
H592 C598 0.949 . S
C593 H588 0.950 . S
C593 C595 1.327 . S
C593 C599 1.432 1_455 S
C594 C586 1.574 . S
C594 H589 0.949 . S
C594 C600 1.368 . S
C595 C579 1.349 . S
C595 H587 0.950 . S
C595 C593 1.327 . S
C596 C584 1.349 . S
C596 H590 0.950 . S
C596 C597 1.327 . S
C597 H591 0.950 . S
C597 C596 1.327 . S
C597 C601 1.429 . S
C598 C581 1.574 . S
C598 H592 0.949 . S
C598 C602 1.368 . S
C599 C580 1.430 1_655 S
C599 C593 1.432 1_655 S
C599 C600 1.519 . S
C600 C581 1.368 . S
C600 C594 1.368 . S
C600 C599 1.519 . S
C601 C585 1.429 . S
C601 C597 1.429 . S
C601 C602 1.523 . S
C602 C586 1.368 . S
C602 C598 1.368 . S
C602 C601 1.523 . S
H603 C578 0.950 . S
H604 C580 0.950 1_655 S
H605 C581 0.949 . S
H606 C583 0.950 . S
H607 C585 0.950 . S
C608 C609 1.349 . S
C608 C610 1.327 . S
C608 H633 0.950 . S
C609 C608 1.349 . S
C609 C625 1.349 . S
C610 C608 1.327 . S
C610 C629 1.429 . S
C610 H634 0.950 . S
C611 C628 1.574 . S
C611 C630 1.368 . S
C611 H635 0.949 . S
H612 C616 0.949 . S
C613 C614 1.349 . S
C613 C615 1.327 . S
C613 H636 0.950 . S
C614 C613 1.349 . S
C614 C626 1.349 . S
C615 C613 1.327 . S
C615 C631 1.429 . S
C615 H637 0.950 . S
C616 H612 0.949 . S
C616 C624 1.574 . S
C616 C632 1.368 . S
H617 C625 0.950 . S
H618 C623 0.950 . S
H619 C624 0.949 . S
H620 C626 0.950 . S
H621 C627 0.950 . S
H622 C628 0.949 . S
C623 H618 0.950 . S
C623 C625 1.327 . S
C623 C629 1.429 . S
C624 C616 1.574 . S
C624 H619 0.949 . S
C624 C630 1.368 . S
C625 C609 1.349 . S
C625 H617 0.950 . S
C625 C623 1.327 . S
C626 C614 1.349 . S
C626 H620 0.950 . S
C626 C627 1.327 . S
C627 H621 0.950 . S
C627 C626 1.327 . S
C627 C631 1.429 . S
C628 C611 1.574 . S
C628 H622 0.949 . S
C628 C632 1.368 . S
C629 C610 1.429 . S
C629 C623 1.429 . S
C629 C630 1.523 . S
C630 C611 1.368 . S
C630 C624 1.368 . S
C630 C629 1.523 . S
C631 C615 1.429 . S
C631 C627 1.429 . S
C631 C632 1.523 . S
C632 C616 1.368 . S
C632 C628 1.368 . S
C632 C631 1.523 . S
H633 C608 0.950 . S
H634 C610 0.950 . S
H635 C611 0.949 . S
H636 C613 0.950 . S
H637 C615 0.950 . S
C638 C639 1.349 . S
C638 C640 1.327 . S
C638 H663 0.950 . S
C639 C638 1.349 . S
C639 C655 1.349 . S
C640 C638 1.327 . S
C640 C659 1.438 . S
C640 H664 0.950 . S
C641 C658 1.574 . S
C641 C660 1.368 . S
C641 H665 0.949 . S
H642 C646 0.949 . S
C643 C644 1.349 . S
C643 C645 1.327 . S
C643 H666 0.950 . S
C644 C643 1.349 . S
C644 C656 1.349 . S
C645 C643 1.327 . S
C645 C661 1.429 . S
C645 H667 0.950 . S
C646 H642 0.949 . S
C646 C654 1.574 . S
C646 C662 1.368 . S
H647 C655 0.950 . S
H648 C653 0.950 1_455 S
H649 C654 0.949 . S
H650 C656 0.950 . S
H651 C657 0.950 . S
H652 C658 0.949 . S
C653 H648 0.950 1_655 S
C653 C655 1.327 . S
C653 C659 1.429 . S
C654 C646 1.574 . S
C654 H649 0.949 . S
C654 C660 1.368 . S
C655 C639 1.349 . S
C655 H647 0.950 . S
C655 C653 1.327 . S
C656 C644 1.349 . S
C656 H650 0.950 . S
C656 C657 1.327 . S
C657 H651 0.950 . S
C657 C656 1.327 . S
C657 C661 1.429 . S
C658 C641 1.574 . S
C658 H652 0.949 . S
C658 C662 1.368 . S
C659 C640 1.438 . S
C659 C653 1.429 . S
C659 C660 1.514 1_655 S
C660 C641 1.368 . S
C660 C654 1.368 . S
C660 C659 1.514 1_455 S
C661 C645 1.429 . S
C661 C657 1.429 . S
C661 C662 1.523 . S
C662 C646 1.368 . S
C662 C658 1.368 . S
C662 C661 1.523 . S
H663 C638 0.950 . S
H664 C640 0.950 . S
H665 C641 0.949 . S
H666 C643 0.950 . S
H667 C645 0.950 . S
C668 C669 1.349 . S
C668 C670 1.327 . S
C668 H693 0.950 . S
C669 C668 1.349 . S
C669 C685 1.349 . S
C670 C668 1.327 . S
C670 C689 1.429 . S
C670 H694 0.950 . S
C671 C688 1.574 . S
C671 C690 1.368 . S
C671 H695 0.949 . S
H672 C676 0.949 . S
C673 C674 1.349 . S
C673 C675 1.327 . S
C673 H696 0.950 . S
C674 C673 1.349 . S
C674 C686 1.349 . S
C675 C673 1.327 . S
C675 C691 1.429 . S
C675 H697 0.950 . S
C676 H672 0.949 . S
C676 C684 1.574 . S
C676 C692 1.368 . S
H677 C685 0.950 . S
H678 C683 0.950 . S
H679 C684 0.949 . S
H680 C686 0.950 . S
H681 C687 0.950 . S
H682 C688 0.949 . S
C683 H678 0.950 . S
C683 C685 1.327 . S
C683 C689 1.429 . S
C684 C676 1.574 . S
C684 H679 0.949 . S
C684 C690 1.368 . S
C685 C669 1.349 . S
C685 H677 0.950 . S
C685 C683 1.327 . S
C686 C674 1.349 . S
C686 H680 0.950 . S
C686 C687 1.327 . S
C687 H681 0.950 . S
C687 C686 1.327 . S
C687 C691 1.429 . S
C688 C671 1.574 . S
C688 H682 0.949 . S
C688 C692 1.368 . S
C689 C670 1.429 . S
C689 C683 1.429 . S
C689 C690 1.523 . S
C690 C671 1.368 . S
C690 C684 1.368 . S
C690 C689 1.523 . S
C691 C675 1.429 . S
C691 C687 1.429 . S
C691 C692 1.523 . S
C692 C676 1.368 . S
C692 C688 1.368 . S
C692 C691 1.523 . S
H693 C668 0.950 . S
H694 C670 0.950 . S
H695 C671 0.949 . S
H696 C673 0.950 . S
H697 C675 0.950 . S
C698 C699 1.349 . S
C698 C700 1.327 . S
C698 H723 0.950 . S
C699 C698 1.349 . S
C699 C715 1.349 . S
C700 C698 1.327 . S
C700 C719 1.429 . S
C700 H724 0.950 . S
C701 C718 1.574 . S
C701 C720 1.368 . S
C701 H725 0.949 . S
H702 C706 0.949 . S
C703 C704 1.349 . S
C703 C705 1.327 . S
C703 H726 0.950 . S
C704 C703 1.349 . S
C704 C716 1.349 . S
C705 C703 1.327 . S
C705 C721 1.429 . S
C705 H727 0.950 . S
C706 H702 0.949 . S
C706 C714 1.574 . S
C706 C722 1.368 . S
H707 C715 0.950 . S
H708 C713 0.950 . S
H709 C714 0.949 . S
H710 C716 0.950 . S
H711 C717 0.950 . S
H712 C718 0.949 . S
C713 H708 0.950 . S
C713 C715 1.327 . S
C713 C719 1.429 . S
C714 C706 1.574 . S
C714 H709 0.949 . S
C714 C720 1.368 . S
C715 C699 1.349 . S
C715 H707 0.950 . S
C715 C713 1.327 . S
C716 C704 1.349 . S
C716 H710 0.950 . S
C716 C717 1.327 . S
C717 H711 0.950 . S
C717 C716 1.327 . S
C717 C721 1.429 . S
C718 C701 1.574 . S
C718 H712 0.949 . S
C718 C722 1.368 . S
C719 C700 1.429 . S
C719 C713 1.429 . S
C719 C720 1.523 . S
C720 C701 1.368 . S
C720 C714 1.368 . S
C720 C719 1.523 . S
C721 C705 1.429 . S
C721 C717 1.429 . S
C721 C722 1.523 . S
C722 C706 1.368 . S
C722 C718 1.368 . S
C722 C721 1.523 . S
H723 C698 0.950 . S
H724 C700 0.950 . S
H725 C701 0.949 . S
H726 C703 0.950 . S
H727 C705 0.950 . S
C728 C729 1.349 . S
C728 C730 1.327 . S
C728 H753 0.950 . S
C729 C728 1.349 . S
C729 C745 1.349 . S
C730 C728 1.327 . S
C730 C749 1.429 . S
C730 H754 0.950 . S
C731 C748 1.574 . S
C731 C750 1.368 . S
C731 H755 0.949 . S
H732 C736 0.949 . S
C733 C734 1.349 . S
C733 C735 1.327 . S
C733 H756 0.950 . S
C734 C733 1.349 . S
C734 C746 1.349 . S
C735 C733 1.327 . S
C735 C751 1.429 . S
C735 H757 0.950 . S
C736 H732 0.949 . S
C736 C744 1.574 . S
C736 C752 1.368 . S
H737 C745 0.950 . S
H738 C743 0.950 . S
H739 C744 0.949 . S
H740 C746 0.950 . S
H741 C747 0.950 . S
H742 C748 0.949 . S
C743 H738 0.950 . S
C743 C745 1.327 . S
C743 C749 1.429 . S
C744 C736 1.574 . S
C744 H739 0.949 . S
C744 C750 1.368 . S
C745 C729 1.349 . S
C745 H737 0.950 . S
C745 C743 1.327 . S
C746 C734 1.349 . S
C746 H740 0.950 . S
C746 C747 1.327 . S
C747 H741 0.950 . S
C747 C746 1.327 . S
C747 C751 1.429 . S
C748 C731 1.574 . S
C748 H742 0.949 . S
C748 C752 1.368 . S
C749 C730 1.429 . S
C749 C743 1.429 . S
C749 C750 1.523 . S
C750 C731 1.368 . S
C750 C744 1.368 . S
C750 C749 1.523 . S
C751 C735 1.429 . S
C751 C747 1.429 . S
C751 C752 1.523 . S
C752 C736 1.368 . S
C752 C748 1.368 . S
C752 C751 1.523 . S
H753 C728 0.950 . S
H754 C730 0.950 . S
H755 C731 0.949 . S
H756 C733 0.950 . S
H757 C735 0.950 . S
C758 C759 1.349 . S
C758 C760 1.327 . S
C758 H783 0.950 . S
C759 C758 1.349 . S
C759 C775 1.349 . S
C760 C758 1.327 . S
C760 C779 1.429 . S
C760 H784 0.950 . S
C761 C778 1.574 . S
C761 C780 1.368 . S
C761 H785 0.949 . S
H762 C766 0.949 . S
C763 C764 1.349 . S
C763 C765 1.327 . S
C763 H786 0.950 . S
C764 C763 1.349 . S
C764 C776 1.349 . S
C765 C763 1.327 . S
C765 C781 1.429 . S
C765 H787 0.950 . S
C766 H762 0.949 . S
C766 C774 1.574 . S
C766 C782 1.368 . S
H767 C775 0.950 . S
H768 C773 0.950 . S
H769 C774 0.949 . S
H770 C776 0.950 . S
H771 C777 0.950 . S
H772 C778 0.949 . S
C773 H768 0.950 . S
C773 C775 1.327 . S
C773 C779 1.429 . S
C774 C766 1.574 . S
C774 H769 0.949 . S
C774 C780 1.368 . S
C775 C759 1.349 . S
C775 H767 0.950 . S
C775 C773 1.327 . S
C776 C764 1.349 . S
C776 H770 0.950 . S
C776 C777 1.327 . S
C777 H771 0.950 . S
C777 C776 1.327 . S
C777 C781 1.429 . S
C778 C761 1.574 . S
C778 H772 0.949 . S
C778 C782 1.368 . S
C779 C760 1.429 . S
C779 C773 1.429 . S
C779 C780 1.523 . S
C780 C761 1.368 . S
C780 C774 1.368 . S
C780 C779 1.523 . S
C781 C765 1.429 . S
C781 C777 1.429 . S
C781 C782 1.523 . S
C782 C766 1.368 . S
C782 C778 1.368 . S
C782 C781 1.523 . S
H783 C758 0.950 . S
H784 C760 0.950 . S
H785 C761 0.949 . S
H786 C763 0.950 . S
H787 C765 0.950 . S
C788 C789 1.349 . S
C788 C790 1.327 . S
C788 H813 0.950 . S
C789 C788 1.349 . S
C789 C805 1.349 . S
C790 C788 1.327 . S
C790 C809 1.429 . S
C790 H814 0.950 . S
C791 C808 1.574 . S
C791 C810 1.368 . S
C791 H815 0.949 . S
H792 C796 0.949 . S
C793 C794 1.349 . S
C793 C795 1.327 . S
C793 H816 0.950 . S
C794 C793 1.349 . S
C794 C806 1.349 . S
C795 C793 1.327 . S
C795 C811 1.429 . S
C795 H817 0.950 . S
C796 H792 0.949 . S
C796 C804 1.574 . S
C796 C812 1.368 . S
H797 C805 0.950 . S
H798 C803 0.950 . S
H799 C804 0.949 . S
H800 C806 0.950 . S
H801 C807 0.950 . S
H802 C808 0.949 . S
C803 H798 0.950 . S
C803 C805 1.327 . S
C803 C809 1.429 . S
C804 C796 1.574 . S
C804 H799 0.949 . S
C804 C810 1.368 . S
C805 C789 1.349 . S
C805 H797 0.950 . S
C805 C803 1.327 . S
C806 C794 1.349 . S
C806 H800 0.950 . S
C806 C807 1.327 . S
C807 H801 0.950 . S
C807 C806 1.327 . S
C807 C811 1.429 . S
C808 C791 1.574 . S
C808 H802 0.949 . S
C808 C812 1.368 . S
C809 C790 1.429 . S
C809 C803 1.429 . S
C809 C810 1.523 . S
C810 C791 1.368 . S
C810 C804 1.368 . S
C810 C809 1.523 . S
C811 C795 1.429 . S
C811 C807 1.429 . S
C811 C812 1.523 . S
C812 C796 1.368 . S
C812 C808 1.368 . S
C812 C811 1.523 . S
H813 C788 0.950 . S
H814 C790 0.950 . S
H815 C791 0.949 . S
H816 C793 0.950 . S
H817 C795 0.950 . S
C818 C819 1.349 . S
C818 C820 1.327 . S
C818 H843 0.950 1_556 S
C819 C818 1.349 . S
C819 C835 1.349 . S
C820 C818 1.327 . S
C820 C839 1.429 . S
C820 H844 0.950 . S
C821 C838 1.574 . S
C821 C840 1.368 . S
C821 H845 0.949 . S
H822 C826 0.949 . S
C823 C824 1.349 . S
C823 C825 1.327 . S
C823 H846 0.950 . S
C824 C823 1.349 . S
C824 C836 1.349 . S
C825 C823 1.327 . S
C825 C841 1.429 . S
C825 H847 0.950 . S
C826 H822 0.949 . S
C826 C834 1.574 . S
C826 C842 1.368 . S
H827 C835 0.950 . S
H828 C833 0.950 . S
H829 C834 0.949 . S
H830 C836 0.950 . S
H831 C837 0.950 . S
H832 C838 0.949 . S
C833 H828 0.950 . S
C833 C835 1.327 . S
C833 C839 1.429 . S
C834 C826 1.574 . S
C834 H829 0.949 . S
C834 C840 1.368 . S
C835 C819 1.349 . S
C835 H827 0.950 . S
C835 C833 1.327 . S
C836 C824 1.349 . S
C836 H830 0.950 . S
C836 C837 1.327 . S
C837 H831 0.950 . S
C837 C836 1.327 . S
C837 C841 1.429 . S
C838 C821 1.574 . S
C838 H832 0.949 . S
C838 C842 1.368 . S
C839 C820 1.429 . S
C839 C833 1.429 . S
C839 C840 1.523 . S
C840 C821 1.368 . S
C840 C834 1.368 . S
C840 C839 1.523 . S
C841 C825 1.429 . S
C841 C837 1.429 . S
C841 C842 1.523 . S
C842 C826 1.368 . S
C842 C838 1.368 . S
C842 C841 1.523 . S
H843 C818 0.950 1_554 S
H844 C820 0.950 . S
H845 C821 0.949 . S
H846 C823 0.950 . S
H847 C825 0.950 . S
C848 C849 1.349 . S
C848 C850 1.327 . S
C848 H873 0.950 . S
C849 C848 1.349 . S
C849 C865 1.349 . S
C850 C848 1.327 . S
C850 C869 1.429 . S
C850 H874 0.950 . S
C851 C868 1.574 . S
C851 C870 1.368 . S
C851 H875 0.949 . S
H852 C856 0.949 . S
C853 C854 1.349 . S
C853 C855 1.327 . S
C853 H876 0.950 . S
C854 C853 1.349 . S
C854 C866 1.349 . S
C855 C853 1.327 . S
C855 C871 1.429 . S
C855 H877 0.950 . S
C856 H852 0.949 . S
C856 C864 1.574 . S
C856 C872 1.368 . S
H857 C865 0.950 . S
H858 C863 0.950 . S
H859 C864 0.949 . S
H860 C866 0.950 . S
H861 C867 0.950 . S
H862 C868 0.949 . S
C863 H858 0.950 . S
C863 C865 1.327 . S
C863 C869 1.429 . S
C864 C856 1.574 . S
C864 H859 0.949 . S
C864 C870 1.368 . S
C865 C849 1.349 . S
C865 H857 0.950 . S
C865 C863 1.327 . S
C866 C854 1.349 . S
C866 H860 0.950 . S
C866 C867 1.327 . S
C867 H861 0.950 . S
C867 C866 1.327 . S
C867 C871 1.429 . S
C868 C851 1.574 . S
C868 H862 0.949 . S
C868 C872 1.368 . S
C869 C850 1.429 . S
C869 C863 1.429 . S
C869 C870 1.523 . S
C870 C851 1.368 . S
C870 C864 1.368 . S
C870 C869 1.523 . S
C871 C855 1.429 . S
C871 C867 1.429 . S
C871 C872 1.523 . S
C872 C856 1.368 . S
C872 C868 1.368 . S
C872 C871 1.523 . S
H873 C848 0.950 . S
H874 C850 0.950 . S
H875 C851 0.949 . S
H876 C853 0.950 . S
H877 C855 0.950 . S
C878 C879 1.349 . S
C878 C880 1.327 . S
C878 H903 0.950 . S
C879 C878 1.349 . S
C879 C895 1.349 . S
C880 C878 1.327 . S
C880 C899 1.429 . S
C880 H904 0.950 . S
C881 C898 1.574 . S
C881 C900 1.368 . S
C881 H905 0.949 . S
H882 C886 0.949 . S
C883 C884 1.349 . S
C883 C885 1.327 . S
C883 H906 0.950 . S
C884 C883 1.349 . S
C884 C896 1.349 . S
C885 C883 1.327 . S
C885 C901 1.429 . S
C885 H907 0.950 . S
C886 H882 0.949 . S
C886 C894 1.574 . S
C886 C902 1.368 . S
H887 C895 0.950 . S
H888 C893 0.950 . S
H889 C894 0.949 . S
H890 C896 0.950 . S
H891 C897 0.950 . S
H892 C898 0.949 . S
C893 H888 0.950 . S
C893 C895 1.327 . S
C893 C899 1.429 . S
C894 C886 1.574 . S
C894 H889 0.949 . S
C894 C900 1.368 . S
C895 C879 1.349 . S
C895 H887 0.950 . S
C895 C893 1.327 . S
C896 C884 1.349 . S
C896 H890 0.950 . S
C896 C897 1.327 . S
C897 H891 0.950 . S
C897 C896 1.327 . S
C897 C901 1.429 . S
C898 C881 1.574 . S
C898 H892 0.949 . S
C898 C902 1.368 . S
C899 C880 1.429 . S
C899 C893 1.429 . S
C899 C900 1.523 . S
C900 C881 1.368 . S
C900 C894 1.368 . S
C900 C899 1.523 . S
C901 C885 1.429 . S
C901 C897 1.429 . S
C901 C902 1.523 . S
C902 C886 1.368 . S
C902 C898 1.368 . S
C902 C901 1.523 . S
H903 C878 0.950 . S
H904 C880 0.950 . S
H905 C881 0.949 . S
H906 C883 0.950 . S
H907 C885 0.950 . S
C189 C7 0.712 . S
C194 C92 0.697 . S
C219 C25 0.606 . S
C224 C105 0.527 . S
C249 C46 0.700 . S
C254 C119 0.695 . S
C284 C132 0.556 . S
C279 C70 0.611 . S
C314 C144 0.559 . S
C309 C28 0.606 . S
C339 C49 0.707 . S
C344 C158 0.700 . S
C369 C67 0.683 . S
C374 C170 0.658 . S
C399 C4 0.613 . S
C404 C184 0.556 . S
C429 C58 1.558 . S
C434 C183 1.649 . S
C464 C145 1.832 . S
C459 C66 1.783 . S
C494 C157 1.741 . S
C489 C3 1.644 . S
C519 C37 1.734 . S
C524 C171 1.823 . S
C554 C106 1.873 . S
C549 C79 1.800 . S
C579 C16 1.591 . S
C584 C118 1.668 . S
C614 C131 1.677 . S
C609 C24 1.588 . S
C644 C93 1.824 . S
C639 C45 1.736 . S
C674 C166 1.312 . S
C669 C19 1.251 . S
C704 C179 1.190 . S
C699 C41 1.125 . S
C729 C62 1.199 . S
C734 C140 1.266 . S
C764 C153 1.394 . S
C759 C82 1.255 . S
C794 C114 1.298 . S
C789 C40 1.184 . S
C819 C61 1.168 . S
C824 C127 1.236 . S
C854 C88 1.354 . S
C849 C83 1.291 . S
C884 C101 1.257 . S
C879 C20 1.187 . S
