# Generated by pormake.
# Topology pto, (3,4)-cn, num edge types: 1
# Building blocks:
#     Node 0, Type 0, BuildingBlock: BETDIP_clean_linker_0, # of connection points: 3
#     Node 1, Type 0, BuildingBlock: BETDIP_clean_linker_0, # of connection points: 3
#     Node 2, Type 0, BuildingBlock: BETDIP_clean_linker_0, # of connection points: 3
#     Node 3, Type 0, BuildingBlock: BETDIP_clean_linker_0, # of connection points: 3
#     Node 4, Type 0, BuildingBlock: BETDIP_clean_linker_0, # of connection points: 3
#     Node 5, Type 0, BuildingBlock: BETDIP_clean_linker_0, # of connection points: 3
#     Node 6, Type 0, BuildingBlock: BETDIP_clean_linker_0, # of connection points: 3
#     Node 7, Type 0, BuildingBlock: BETDIP_clean_linker_0, # of connection points: 3
#     Node 8, Type 1, BuildingBlock: NAWXER_clean_sbu_0, # of connection points: 4
#     Node 9, Type 1, BuildingBlock: NAWXER_clean_sbu_0, # of connection points: 4
#     Node 10, Type 1, BuildingBlock: NAWXER_clean_sbu_0, # of connection points: 4
#     Node 11, Type 1, BuildingBlock: NAWXER_clean_sbu_0, # of connection points: 4
#     Node 12, Type 1, BuildingBlock: NAWXER_clean_sbu_0, # of connection points: 4
#     Node 13, Type 1, BuildingBlock: NAWXER_clean_sbu_0, # of connection points: 4
#     Edge 14, Type (0, 1), BuildingBlock: TEMPAE_clean_linker_10, # of connection points: 2
#     Edge 15, Type (0, 1), BuildingBlock: TEMPAE_clean_linker_10, # of connection points: 2
#     Edge 16, Type (0, 1), BuildingBlock: TEMPAE_clean_linker_10, # of connection points: 2
#     Edge 17, Type (0, 1), BuildingBlock: TEMPAE_clean_linker_10, # of connection points: 2
#     Edge 18, Type (0, 1), BuildingBlock: TEMPAE_clean_linker_10, # of connection points: 2
#     Edge 19, Type (0, 1), BuildingBlock: TEMPAE_clean_linker_10, # of connection points: 2
#     Edge 20, Type (0, 1), BuildingBlock: TEMPAE_clean_linker_10, # of connection points: 2
#     Edge 21, Type (0, 1), BuildingBlock: TEMPAE_clean_linker_10, # of connection points: 2
#     Edge 22, Type (0, 1), BuildingBlock: TEMPAE_clean_linker_10, # of connection points: 2
#     Edge 23, Type (0, 1), BuildingBlock: TEMPAE_clean_linker_10, # of connection points: 2
#     Edge 24, Type (0, 1), BuildingBlock: TEMPAE_clean_linker_10, # of connection points: 2
#     Edge 25, Type (0, 1), BuildingBlock: TEMPAE_clean_linker_10, # of connection points: 2
#     Edge 26, Type (0, 1), BuildingBlock: TEMPAE_clean_linker_10, # of connection points: 2
#     Edge 27, Type (0, 1), BuildingBlock: TEMPAE_clean_linker_10, # of connection points: 2
#     Edge 28, Type (0, 1), BuildingBlock: TEMPAE_clean_linker_10, # of connection points: 2
#     Edge 29, Type (0, 1), BuildingBlock: TEMPAE_clean_linker_10, # of connection points: 2
#     Edge 30, Type (0, 1), BuildingBlock: TEMPAE_clean_linker_10, # of connection points: 2
#     Edge 31, Type (0, 1), BuildingBlock: TEMPAE_clean_linker_10, # of connection points: 2
#     Edge 32, Type (0, 1), BuildingBlock: TEMPAE_clean_linker_10, # of connection points: 2
#     Edge 33, Type (0, 1), BuildingBlock: TEMPAE_clean_linker_10, # of connection points: 2
#     Edge 34, Type (0, 1), BuildingBlock: TEMPAE_clean_linker_10, # of connection points: 2
#     Edge 35, Type (0, 1), BuildingBlock: TEMPAE_clean_linker_10, # of connection points: 2
#     Edge 36, Type (0, 1), BuildingBlock: TEMPAE_clean_linker_10, # of connection points: 2
#     Edge 37, Type (0, 1), BuildingBlock: TEMPAE_clean_linker_10, # of connection points: 2
# Relax obj value: 0.016
# Max RMSD: 0.144
# Mean RMSD: 0.062
data_MOF--net-pto--node1-NAWXER_clean_sbu_0--node2-BETDIP_clean_linker_0--edge1-TEMPAE_clean_linker_10
_symmetry_space_group_name_H-M    P1
_symmetry_Int_Tables_number       1
_symmetry_cell_setting            triclinic
loop_
_symmetry_equiv_pos_as_xyz
'x, y, z'
_cell_length_a     42.677829
_cell_length_b     40.888087
_cell_length_c     38.664841
_cell_angle_alpha  101.05882
_cell_angle_beta   100.98766
_cell_angle_gamma 102.46238
loop_
_atom_site_label
_atom_site_type_symbol
_atom_site_fract_x
_atom_site_fract_y
_atom_site_fract_z
_atom_type_partial_charge
H0 H 0.25789 0.35938 0.35274 0.0
H1 H 0.34116 0.34174 0.31293 0.0
H2 H 0.30467 0.42876 0.29525 0.0
H3 H 0.31918 0.28694 0.31563 0.0
C4 C 0.30925 0.28984 0.33956 0.0
C5 C 0.27708 0.36774 0.33919 0.0
C6 C 0.27838 0.39706 0.32496 0.0
C7 C 0.29938 0.34774 0.33494 0.0
C8 C 0.32378 0.35712 0.31634 0.0
C9 C 0.32561 0.38615 0.30156 0.0
C10 C 0.30293 0.4061 0.30613 0.0
N11 N 0.29651 0.31855 0.35011 0.0
H12 H 0.24351 0.76665 0.68145 0.0
H13 H 0.34779 0.80199 0.73025 0.0
H14 H 0.28839 0.71532 0.75666 0.0
H15 H 0.34579 0.82218 0.67506 0.0
C16 C 0.32428 0.83233 0.67525 0.0
C17 C 0.26521 0.76372 0.69908 0.0
C18 C 0.2622 0.73774 0.71812 0.0
C19 C 0.29591 0.78643 0.70267 0.0
C20 C 0.32427 0.7834 0.72596 0.0
C21 C 0.32165 0.75785 0.74585 0.0
C22 C 0.29062 0.7348 0.74116 0.0
N23 N 0.2965 0.81384 0.685 0.0
H24 H 0.78558 0.73138 0.24812 0.0
H25 H 0.85261 0.79787 0.346 0.0
H26 H 0.76761 0.82752 0.29559 0.0
H27 H 0.88958 0.77321 0.31974 0.0
C28 C 0.87536 0.74635 0.31194 0.0
C29 C 0.79277 0.75516 0.26919 0.0
C30 C 0.77363 0.77902 0.26828 0.0
C31 C 0.82179 0.76226 0.29646 0.0
C32 C 0.83082 0.79281 0.32415 0.0
C33 C 0.81135 0.81651 0.32437 0.0
C34 C 0.7831 0.80972 0.29576 0.0
N35 N 0.84084 0.73773 0.29609 0.0
H36 H 0.71967 0.26283 0.82989 0.0
H37 H 0.75996 0.37325 0.86701 0.0
H38 H 0.80084 0.31364 0.79204 0.0
H39 H 0.74304 0.35995 0.91901 0.0
C40 C 0.71813 0.34447 0.90508 0.0
C41 C 0.73745 0.28622 0.83002 0.0
C42 C 0.76051 0.28466 0.80863 0.0
C43 C 0.73724 0.31807 0.85151 0.0
C44 C 0.76019 0.34846 0.85114 0.0
C45 C 0.78344 0.34688 0.83002 0.0
C46 C 0.78324 0.31496 0.80881 0.0
N47 N 0.71314 0.31911 0.87229 0.0
H48 H 0.80355 0.82052 0.8988 0.0
H49 H 0.83536 0.84314 0.80488 0.0
H50 H 0.75471 0.87894 0.83536 0.0
H51 H 0.88476 0.83764 0.83675 0.0
C52 C 0.87662 0.81588 0.84812 0.0
C53 C 0.8014 0.83297 0.87642 0.0
C54 C 0.77656 0.85026 0.87005 0.0
C55 C 0.82316 0.83083 0.85363 0.0
C56 C 0.81948 0.84552 0.82345 0.0
C57 C 0.79482 0.86303 0.81686 0.0
C58 C 0.7738 0.86555 0.84048 0.0
N59 N 0.84717 0.81211 0.86077 0.0
H60 H 0.69128 0.23838 0.30102 0.0
H61 H 0.7957 0.27606 0.34885 0.0
H62 H 0.75106 0.3141 0.26069 0.0
H63 H 0.77943 0.2575 0.3972 0.0
C64 C 0.7592 0.23451 0.38462 0.0
C65 C 0.71512 0.25484 0.30174 0.0
C66 C 0.71762 0.27659 0.27788 0.0
C67 C 0.74284 0.25466 0.32753 0.0
C68 C 0.77398 0.27631 0.32931 0.0
C69 C 0.77703 0.29827 0.30547 0.0
C70 C 0.74872 0.29803 0.27981 0.0
N71 N 0.7382 0.23156 0.35035 0.0
H72 H 0.15559 0.33048 0.76962 0.0
H73 H 0.23418 0.28844 0.81312 0.0
H74 H 0.21977 0.37972 0.87609 0.0
H75 H 0.23761 0.27688 0.75643 0.0
C76 C 0.21189 0.26689 0.74148 0.0
C77 C 0.17601 0.33128 0.79154 0.0
C78 C 0.18478 0.35753 0.82394 0.0
C79 C 0.19462 0.30708 0.78663 0.0
C80 C 0.22086 0.30816 0.81531 0.0
C81 C 0.23062 0.33465 0.84709 0.0
C82 C 0.21232 0.35915 0.85149 0.0
N83 N 0.18748 0.2825 0.75265 0.0
H84 H 0.26983 0.83551 0.21262 0.0
H85 H 0.23555 0.7279 0.15754 0.0
H86 H 0.18526 0.77123 0.23392 0.0
H87 H 0.29645 0.74005 0.1718 0.0
C88 C 0.30103 0.76257 0.16057 0.0
C89 C 0.25192 0.81077 0.20716 0.0
C90 C 0.22706 0.80679 0.22627 0.0
C91 C 0.25552 0.78237 0.18302 0.0
C92 C 0.23308 0.74983 0.17656 0.0
C93 C 0.2071 0.74579 0.19424 0.0
C94 C 0.20447 0.77439 0.21916 0.0
N95 N 0.28247 0.78717 0.16633 0.0
C96 C 0.982 0.46046 0.28195 0.0
C97 C 0.05981 0.54748 0.24698 0.0
O98 O 1.00106 0.48368 0.30949 0.0
Zn99 Zn 0.04069 0.52936 0.3193 0.0
O100 O 0.98551 0.46188 0.25033 0.0
Zn101 Zn 0.02141 0.5034 0.26374 0.0
O102 O 0.06305 0.48865 0.29102 0.0
O103 O 0.07857 0.52006 0.34764 0.0
O104 O 0.03864 0.52087 0.22588 0.0
O105 O 0.06247 0.55299 0.28134 0.0
O106 O 0.02282 0.56498 0.34194 0.0
O107 O 0.99896 0.54337 0.28362 0.0
C108 C 0.08278 0.49745 0.32269 0.0
C109 C 0.00183 0.56483 0.31373 0.0
C110 C 0.96144 0.53267 0.79501 0.0
C111 C 0.05639 0.60367 0.767 0.0
O112 O 0.98373 0.55093 0.82328 0.0
Zn113 Zn 0.03094 0.58716 0.83661 0.0
O114 O 0.9658 0.53406 0.76363 0.0
Zn115 Zn 0.00833 0.56788 0.77961 0.0
O116 O 0.04031 0.53957 0.80201 0.0
O117 O 0.05961 0.56279 0.86081 0.0
O118 O 0.03046 0.58391 0.74431 0.0
O119 O 0.05887 0.60674 0.80112 0.0
O120 O 0.02233 0.62854 0.86325 0.0
O121 O 0.99601 0.61288 0.80535 0.0
C122 C 0.05827 0.5399 0.83274 0.0
C123 C 0.00255 0.63347 0.83682 0.0
C124 C 0.28192 0.01416 0.54297 0.0
C125 C 0.27937 0.09842 0.47018 0.0
O126 O 0.25234 0.01085 0.52508 0.0
Zn127 Zn 0.22827 0.03803 0.48996 0.0
O128 O 0.30522 0.03865 0.54154 0.0
Zn129 Zn 0.2798 0.05733 0.50748 0.0
O130 O 0.25245 0.08432 0.53868 0.0
O131 O 0.19967 0.05702 0.51679 0.0
O132 O 0.30403 0.09359 0.4908 0.0
O133 O 0.25014 0.07986 0.46743 0.0
O134 O 0.20732 0.00207 0.44677 0.0
O135 O 0.26186 0.01585 0.45844 0.0
C136 C 0.22207 0.08143 0.53938 0.0
C137 C 0.23364 0.99742 0.43827 0.0
C138 C 0.57771 0.75549 0.06677 0.0
C139 C 0.50531 0.76191 0.9548 0.0
O140 O 0.56238 0.73058 0.03945 0.0
Zn141 Zn 0.54077 0.75713 0.01047 0.0
O142 O 0.57454 0.78594 0.06681 0.0
Zn143 Zn 0.5498 0.81169 0.03153 0.0
O144 O 0.5212 0.82916 0.05953 0.0
O145 O 0.50604 0.77236 0.03925 0.0
O146 O 0.51751 0.79104 0.97817 0.0
O147 O 0.51258 0.73503 0.96222 0.0
O148 O 0.58222 0.78842 0.99878 0.0
O149 O 0.58677 0.84333 0.02236 0.0
C150 C 0.50117 0.80019 0.05642 0.0
C151 C 0.59745 0.82032 0.00462 0.0
C152 C 0.76168 0.9825 0.61354 0.0
C153 C 0.74466 0.05749 0.53053 0.0
O154 O 0.73381 0.98252 0.59448 0.0
Zn155 Zn 0.75042 0.01941 0.57193 0.0
O156 O 0.78801 0.00373 0.61212 0.0
Zn157 Zn 0.80348 0.04354 0.58624 0.0
O158 O 0.82067 0.08445 0.62731 0.0
O159 O 0.76686 0.06254 0.61682 0.0
O160 O 0.7748 0.06178 0.54693 0.0
O161 O 0.72163 0.03597 0.53732 0.0
O162 O 0.77818 0.99632 0.53891 0.0
O163 O 0.8312 0.02396 0.55758 0.0
C164 C 0.79328 0.08517 0.6356 0.0
C165 C 0.80791 0.99973 0.53547 0.0
C166 C 0.52118 0.30218 0.10719 0.0
C167 C 0.43538 0.32527 0.02042 0.0
O168 O 0.49622 0.2802 0.08519 0.0
Zn169 Zn 0.47895 0.31302 0.06317 0.0
O170 O 0.52605 0.33442 0.10803 0.0
Zn171 Zn 0.50227 0.36695 0.08038 0.0
O172 O 0.49103 0.39586 0.11989 0.0
O173 O 0.46341 0.34104 0.10668 0.0
O174 O 0.45727 0.35293 0.03896 0.0
O175 O 0.4389 0.29623 0.02504 0.0
O176 O 0.51702 0.33034 0.03687 0.0
O177 O 0.53576 0.38689 0.05697 0.0
C178 C 0.46953 0.37205 0.12577 0.0
C179 C 0.53685 0.35879 0.03695 0.0
C180 C 0.24021 0.43084 0.30022 0.0
C181 C 0.25299 0.41678 0.32851 0.0
C182 C 0.21406 0.44641 0.30186 0.0
C183 C 0.19956 0.44698 0.33194 0.0
C184 C 0.21286 0.4338 0.36102 0.0
C185 C 0.23979 0.41957 0.3593 0.0
C186 C 0.20122 0.46121 0.2708 0.0
C187 C 0.19772 0.4333 0.39326 0.0
C188 C 0.14304 0.50583 0.34732 0.0
C189 C 0.11202 0.4837 0.32855 0.0
C190 C 0.17186 0.4943 0.3487 0.0
C191 C 0.16932 0.45952 0.33196 0.0
C192 C 0.1378 0.43672 0.31438 0.0
C193 C 0.10957 0.4493 0.31226 0.0
C194 C 0.20506 0.51966 0.36661 0.0
C195 C 0.13392 0.39918 0.29727 0.0
H196 H 0.24979 0.42867 0.27612 0.0
H197 H 0.25002 0.40988 0.3819 0.0
H198 H 0.17621 0.44504 0.25555 0.0
H199 H 0.1989 0.4876 0.28129 0.0
H200 H 0.21755 0.46242 0.25163 0.0
H201 H 0.21156 0.42297 0.41411 0.0
H202 H 0.1969 0.45969 0.4061 0.0
H203 H 0.17182 0.41705 0.38402 0.0
H204 H 0.14492 0.53263 0.35935 0.0
H205 H 0.08552 0.43225 0.29772 0.0
H206 H 0.21976 0.52258 0.34607 0.0
H207 H 0.21921 0.50991 0.38769 0.0
H208 H 0.20271 0.5455 0.37937 0.0
H209 H 0.14581 0.39706 0.2741 0.0
H210 H 0.10755 0.38432 0.28723 0.0
H211 H 0.1465 0.38709 0.31724 0.0
C212 C 0.20244 0.73028 0.71837 0.0
C213 C 0.22911 0.71563 0.71653 0.0
C214 C 0.17213 0.7108 0.72129 0.0
C215 C 0.16849 0.67589 0.7227 0.0
C216 C 0.19467 0.6604 0.71883 0.0
C217 C 0.22468 0.68046 0.71575 0.0
C218 C 0.14479 0.72825 0.72528 0.0
C219 C 0.19172 0.62322 0.72015 0.0
C220 C 0.11305 0.64278 0.78088 0.0
C221 C 0.08441 0.62242 0.75487 0.0
C222 C 0.14046 0.66011 0.7706 0.0
C223 C 0.1393 0.65721 0.73331 0.0
C224 C 0.11048 0.63692 0.70678 0.0
C225 C 0.0833 0.61967 0.71789 0.0
C226 C 0.17076 0.68147 0.79978 0.0
C227 C 0.10842 0.63342 0.66679 0.0
H228 H 0.20571 0.75751 0.71937 0.0
H229 H 0.24501 0.66884 0.71369 0.0
H230 H 0.12082 0.71189 0.70738 0.0
H231 H 0.14215 0.73197 0.75367 0.0
H232 H 0.14979 0.75387 0.7187 0.0
H233 H 0.21258 0.61391 0.7123 0.0
H234 H 0.19144 0.62057 0.74813 0.0
H235 H 0.16816 0.60629 0.70189 0.0
H236 H 0.11425 0.64508 0.80953 0.0
H237 H 0.06129 0.60396 0.69763 0.0
H238 H 0.17625 0.70872 0.79772 0.0
H239 H 0.19255 0.67182 0.79596 0.0
H240 H 0.16768 0.68087 0.82756 0.0
H241 H 0.11228 0.65926 0.66078 0.0
H242 H 0.0842 0.61678 0.64959 0.0
H243 H 0.12834 0.62226 0.6591 0.0
C244 C 0.92753 0.72788 0.31956 0.0
C245 C 0.89307 0.71919 0.3139 0.0
C246 C 0.94504 0.70259 0.32063 0.0
C247 C 0.92765 0.6679 0.3167 0.0
C248 C 0.89287 0.65914 0.31188 0.0
C249 C 0.87592 0.68488 0.31022 0.0
C250 C 0.98205 0.71286 0.3252 0.0
C251 C 0.87356 0.62254 0.3082 0.0
C252 C 0.96718 0.59744 0.28238 0.0
C253 C 0.98186 0.59027 0.31478 0.0
C254 C 0.94944 0.62259 0.28267 0.0
C255 C 0.94574 0.64059 0.31612 0.0
C256 C 0.9599 0.633 0.34889 0.0
C257 C 0.9781 0.60814 0.34786 0.0
C258 C 0.93521 0.63035 0.24721 0.0
C259 C 0.95597 0.65127 0.385 0.0
H260 H 0.94075 0.75446 0.32245 0.0
H261 H 0.84928 0.67814 0.30625 0.0
H262 H 0.99462 0.70563 0.34935 0.0
H263 H 0.98853 0.69871 0.30122 0.0
H264 H 0.99189 0.74101 0.32836 0.0
H265 H 0.84689 0.62036 0.30661 0.0
H266 H 0.87586 0.60541 0.28336 0.0
H267 H 0.88384 0.61291 0.33168 0.0
H268 H 0.97021 0.58394 0.25672 0.0
H269 H 0.98927 0.60259 0.37296 0.0
H270 H 0.94584 0.65786 0.24808 0.0
H271 H 0.90807 0.62622 0.24298 0.0
H272 H 0.94027 0.614 0.22354 0.0
H273 H 0.96772 0.67934 0.39055 0.0
H274 H 0.96725 0.64132 0.40779 0.0
H275 H 0.92935 0.64819 0.38423 0.0
C276 C 0.79825 0.40716 0.82178 0.0
C277 C 0.80807 0.37816 0.82921 0.0
C278 C 0.82101 0.43501 0.81637 0.0
C279 C 0.8542 0.43364 0.81857 0.0
C280 C 0.86441 0.40493 0.82742 0.0
C281 C 0.84122 0.3776 0.83269 0.0
C282 C 0.80938 0.46535 0.80723 0.0
C283 C 0.89966 0.40264 0.83042 0.0
C284 C 0.91025 0.48356 0.7705 0.0
C285 C 0.93154 0.50958 0.79971 0.0
C286 C 0.8838 0.45954 0.77592 0.0
C287 C 0.87852 0.46183 0.81131 0.0
C288 C 0.89887 0.48913 0.84047 0.0
C289 C 0.92516 0.51261 0.83434 0.0
C290 C 0.86255 0.43071 0.74416 0.0
C291 C 0.89392 0.49257 0.87853 0.0
H292 H 0.77254 0.40746 0.81882 0.0
H293 H 0.84888 0.35532 0.83886 0.0
H294 H 0.82538 0.48981 0.82599 0.0
H295 H 0.81134 0.46681 0.77934 0.0
H296 H 0.78335 0.46345 0.8088 0.0
H297 H 0.90366 0.37882 0.83826 0.0
H298 H 0.90618 0.40298 0.80403 0.0
H299 H 0.9169 0.42533 0.85089 0.0
H300 H 0.91495 0.48117 0.74367 0.0
H301 H 0.94124 0.53294 0.85701 0.0
H302 H 0.83597 0.42876 0.74264 0.0
H303 H 0.86706 0.40576 0.748 0.0
H304 H 0.86781 0.43443 0.71792 0.0
H305 H 0.86761 0.49089 0.87843 0.0
H306 H 0.90945 0.5173 0.8973 0.0
H307 H 0.9004 0.471 0.88933 0.0
C308 C 0.3122 0.23049 0.34381 0.0
C309 C 0.30546 0.26155 0.35847 0.0
C310 C 0.30816 0.20302 0.36089 0.0
C311 C 0.29747 0.20697 0.39359 0.0
C312 C 0.29094 0.23846 0.40868 0.0
C313 C 0.29492 0.26535 0.39087 0.0
C314 C 0.31514 0.16974 0.34389 0.0
C315 C 0.27978 0.24374 0.44367 0.0
C316 C 0.25785 0.12809 0.42347 0.0
C317 C 0.28422 0.12555 0.4498 0.0
C318 C 0.26199 0.15408 0.40444 0.0
C319 C 0.29315 0.17827 0.41218 0.0
C320 C 0.31993 0.1757 0.43851 0.0
C321 C 0.31518 0.14928 0.45689 0.0
C322 C 0.23292 0.15586 0.37634 0.0
C323 C 0.35345 0.2012 0.4477 0.0
H324 H 0.32033 0.22758 0.31874 0.0
H325 H 0.28986 0.28939 0.40249 0.0
H326 H 0.3348 0.16394 0.36315 0.0
H327 H 0.29266 0.14802 0.33796 0.0
H328 H 0.32307 0.17076 0.31828 0.0
H329 H 0.27605 0.26991 0.45199 0.0
H330 H 0.25621 0.2243 0.4406 0.0
H331 H 0.29837 0.23997 0.46581 0.0
H332 H 0.2339 0.10975 0.41768 0.0
H333 H 0.33567 0.14755 0.47724 0.0
H334 H 0.23952 0.15518 0.34985 0.0
H335 H 0.2265 0.18062 0.38458 0.0
H336 H 0.21071 0.13429 0.37253 0.0
H337 H 0.36286 0.20142 0.42288 0.0
H338 H 0.3719 0.19518 0.46828 0.0
H339 H 0.35131 0.22763 0.45833 0.0
C340 C 0.38179 0.75971 0.76687 0.0
C341 C 0.35039 0.75686 0.77393 0.0
C342 C 0.40889 0.75896 0.79367 0.0
C343 C 0.40447 0.7556 0.82836 0.0
C344 C 0.37279 0.75259 0.8355 0.0
C345 C 0.34623 0.7533 0.80828 0.0
C346 C 0.44228 0.76214 0.78504 0.0
C347 C 0.36703 0.74935 0.87221 0.0
C348 C 0.46501 0.72831 0.89573 0.0
C349 C 0.48183 0.76006 0.92032 0.0
C350 C 0.44073 0.72654 0.86465 0.0
C351 C 0.43311 0.7572 0.85811 0.0
C352 C 0.45095 0.7894 0.88207 0.0
C353 C 0.47505 0.79042 0.91277 0.0
C354 C 0.42234 0.69174 0.83962 0.0
C355 C 0.4436 0.82272 0.87617 0.0
H356 H 0.38508 0.76226 0.74032 0.0
H357 H 0.3222 0.75175 0.81419 0.0
H358 H 0.46012 0.78605 0.80287 0.0
H359 H 0.452 0.7401 0.79054 0.0
H360 H 0.44128 0.7629 0.75629 0.0
H361 H 0.34064 0.74593 0.87291 0.0
H362 H 0.3751 0.72703 0.87956 0.0
H363 H 0.38202 0.77282 0.8933 0.0
H364 H 0.47015 0.70473 0.90122 0.0
H365 H 0.48804 0.81515 0.93139 0.0
H366 H 0.42214 0.69228 0.811 0.0
H367 H 0.39622 0.68545 0.84161 0.0
H368 H 0.43338 0.67082 0.84635 0.0
H369 H 0.44428 0.82496 0.84817 0.0
H370 H 0.46139 0.84578 0.89568 0.0
H371 H 0.41831 0.82281 0.87933 0.0
C372 C 0.8157 0.87912 0.35026 0.0
C373 C 0.81914 0.84699 0.35568 0.0
C374 C 0.8193 0.90684 0.37981 0.0
C375 C 0.82641 0.90227 0.41561 0.0
C376 C 0.83189 0.87059 0.42132 0.0
C377 C 0.82811 0.84334 0.39132 0.0
C378 C 0.81342 0.94027 0.37256 0.0
C379 C 0.83936 0.86454 0.459 0.0
C380 C 0.84512 0.97846 0.49779 0.0
C381 C 0.81382 0.97528 0.50522 0.0
C382 C 0.84978 0.95512 0.46846 0.0
C383 C 0.82253 0.92809 0.44628 0.0
C384 C 0.79099 0.92489 0.45374 0.0
C385 C 0.78707 0.9484 0.48296 0.0
C386 C 0.88375 0.95927 0.46121 0.0
C387 C 0.76122 0.89642 0.43091 0.0
H388 H 0.80935 0.88234 0.32283 0.0
H389 H 0.83052 0.81854 0.39585 0.0
H390 H 0.78927 0.94274 0.37784 0.0
H391 H 0.83278 0.96267 0.39107 0.0
H392 H 0.81306 0.94154 0.34405 0.0
H393 H 0.84764 0.8406 0.45925 0.0
H394 H 0.85876 0.88668 0.47785 0.0
H395 H 0.81677 0.86221 0.46958 0.0
H396 H 0.86589 0.99919 0.51475 0.0
H397 H 0.76273 0.94555 0.48831 0.0
H398 H 0.88283 0.96227 0.43315 0.0
H399 H 0.89221 0.93574 0.46328 0.0
H400 H 0.90224 0.98195 0.48053 0.0
H401 H 0.75696 0.89793 0.40212 0.0
H402 H 0.73833 0.89776 0.44017 0.0
H403 H 0.76575 0.87086 0.43192 0.0
C404 C 0.69829 0.36338 0.96019 0.0
C405 C 0.69084 0.34748 0.92309 0.0
C406 C 0.67308 0.36629 0.97832 0.0
C407 C 0.63957 0.35382 0.95859 0.0
C408 C 0.63194 0.33852 0.92083 0.0
C409 C 0.65768 0.33515 0.90359 0.0
C410 C 0.6823 0.38195 0.01874 0.0
C411 C 0.59659 0.32558 0.89869 0.0
C412 C 0.57422 0.32827 0.00982 0.0
C413 C 0.56248 0.35786 0.01605 0.0
C414 C 0.59937 0.32677 0.99139 0.0
C415 C 0.61256 0.3552 0.97788 0.0
C416 C 0.6004 0.38496 0.9835 0.0
C417 C 0.57582 0.38616 0.00305 0.0
C418 C 0.61224 0.29494 0.98699 0.0
C419 C 0.61332 0.41548 0.96882 0.0
H420 H 0.72395 0.37296 0.97525 0.0
H421 H 0.65185 0.32323 0.87477 0.0
H422 H 0.67183 0.40436 0.02488 0.0
H423 H 0.67161 0.36272 0.03291 0.0
H424 H 0.70951 0.39065 0.03003 0.0
H425 H 0.59489 0.31648 0.86925 0.0
H426 H 0.58319 0.30394 0.90816 0.0
H427 H 0.58372 0.34639 0.9025 0.0
H428 H 0.56431 0.30648 0.02026 0.0
H429 H 0.56673 0.40902 0.00775 0.0
H430 H 0.63922 0.30219 0.99939 0.0
H431 H 0.60853 0.28292 0.95775 0.0
H432 H 0.59981 0.27539 0.99979 0.0
H433 H 0.6401 0.42674 0.98145 0.0
H434 H 0.60024 0.43597 0.97404 0.0
H435 H 0.61053 0.40697 0.93911 0.0
C436 C 0.29951 0.88126 0.66765 0.0
C437 C 0.32093 0.86132 0.6584 0.0
C438 C 0.29456 0.90761 0.65044 0.0
C439 C 0.31077 0.91352 0.62262 0.0
C440 C 0.33282 0.89372 0.61354 0.0
C441 C 0.33803 0.86815 0.63199 0.0
C442 C 0.27158 0.92876 0.66163 0.0
C443 C 0.35001 0.89873 0.58352 0.0
C444 C 0.26895 0.9548 0.55326 0.0
C445 C 0.28903 0.98875 0.56383 0.0
C446 C 0.27616 0.92992 0.57173 0.0
C447 C 0.30358 0.93947 0.60215 0.0
C448 C 0.32364 0.97389 0.6133 0.0
C449 C 0.3164 0.99801 0.59366 0.0
C450 C 0.2546 0.89331 0.55849 0.0
C451 C 0.35252 0.98531 0.64618 0.0
H452 H 0.28657 0.87626 0.68843 0.0
H453 H 0.35451 0.8526 0.62482 0.0
H454 H 0.28423 0.95671 0.66827 0.0
H455 H 0.24969 0.92386 0.63878 0.0
H456 H 0.26288 0.92266 0.68554 0.0
H457 H 0.36689 0.88174 0.58028 0.0
H458 H 0.33131 0.89312 0.55744 0.0
H459 H 0.3645 0.92597 0.589 0.0
H460 H 0.24799 0.94746 0.52995 0.0
H461 H 0.33189 0.0243 0.60198 0.0
H462 H 0.24251 0.88608 0.5799 0.0
H463 H 0.26999 0.8752 0.55272 0.0
H464 H 0.23509 0.88976 0.53351 0.0
H465 H 0.34383 0.98048 0.67048 0.0
H466 H 0.36532 0.01315 0.65163 0.0
H467 H 0.37067 0.97003 0.6423 0.0
C468 C 0.74162 0.79397 0.21529 0.0
C469 C 0.74363 0.77186 0.23864 0.0
C470 C 0.71341 0.78759 0.18693 0.0
C471 C 0.68621 0.75893 0.18252 0.0
C472 C 0.68814 0.73658 0.20623 0.0
C473 C 0.71708 0.74308 0.23376 0.0
C474 C 0.71267 0.81165 0.16181 0.0
C475 C 0.6594 0.70635 0.20306 0.0
C476 C 0.60537 0.7705 0.13252 0.0
C477 C 0.60166 0.75097 0.09731 0.0
C478 C 0.63163 0.77148 0.16106 0.0
C479 C 0.65542 0.7534 0.15392 0.0
C480 C 0.65104 0.7325 0.11866 0.0
C481 C 0.62388 0.73117 0.09081 0.0
C482 C 0.63479 0.79324 0.19845 0.0
C483 C 0.67619 0.71345 0.10972 0.0
H484 H 0.76234 0.81608 0.21903 0.0
H485 H 0.71871 0.72612 0.25205 0.0
H486 H 0.70664 0.7967 0.13314 0.0
H487 H 0.69305 0.82514 0.16471 0.0
H488 H 0.73663 0.83137 0.16745 0.0
H489 H 0.66505 0.69111 0.22322 0.0
H490 H 0.63754 0.71578 0.20716 0.0
H491 H 0.65243 0.68903 0.17542 0.0
H492 H 0.58813 0.78579 0.13753 0.0
H493 H 0.62128 0.71647 0.06345 0.0
H494 H 0.65607 0.81633 0.20494 0.0
H495 H 0.63965 0.77849 0.21927 0.0
H496 H 0.6122 0.80206 0.20052 0.0
H497 H 0.6997 0.73239 0.11135 0.0
H498 H 0.66774 0.69595 0.08206 0.0
H499 H 0.68164 0.69806 0.12973 0.0
C500 C 0.75707 0.24845 0.74798 0.0
C501 C 0.76162 0.25191 0.78546 0.0
C502 C 0.76314 0.22027 0.72583 0.0
C503 C 0.77451 0.19518 0.74167 0.0
C504 C 0.77856 0.19823 0.77951 0.0
C505 C 0.77188 0.22659 0.80101 0.0
C506 C 0.75789 0.21768 0.68554 0.0
C507 C 0.7908 0.1721 0.79736 0.0
C508 C 0.76014 0.10906 0.67567 0.0
C509 C 0.79049 0.11207 0.6658 0.0
C510 C 0.75512 0.13527 0.70146 0.0
C511 C 0.78114 0.16536 0.71812 0.0
C512 C 0.81239 0.16799 0.70969 0.0
C513 C 0.81671 0.14127 0.68352 0.0
C514 C 0.72142 0.13142 0.70953 0.0
C515 C 0.84082 0.19961 0.72724 0.0
H516 H 0.74943 0.26833 0.73616 0.0
H517 H 0.77598 0.22976 0.83014 0.0
H518 H 0.78152 0.21814 0.67742 0.0
H519 H 0.74002 0.1928 0.67011 0.0
H520 H 0.74843 0.23907 0.67747 0.0
H521 H 0.79195 0.17777 0.82692 0.0
H522 H 0.7744 0.14582 0.78439 0.0
H523 H 0.81585 0.17178 0.79353 0.0
H524 H 0.73975 0.08644 0.66252 0.0
H525 H 0.84025 0.14373 0.67622 0.0
H526 H 0.70983 0.15079 0.69963 0.0
H527 H 0.72369 0.13638 0.73924 0.0
H528 H 0.70462 0.10531 0.69643 0.0
H529 H 0.83506 0.22214 0.71789 0.0
H530 H 0.8643 0.19627 0.72056 0.0
H531 H 0.84445 0.20572 0.75718 0.0
C532 C 0.38259 0.39183 0.29123 0.0
C533 C 0.35006 0.394 0.27957 0.0
C534 C 0.4044 0.39357 0.26827 0.0
C535 C 0.39341 0.39753 0.23276 0.0
C536 C 0.36136 0.40214 0.22176 0.0
C537 C 0.34006 0.40034 0.24532 0.0
C538 C 0.43842 0.38877 0.28119 0.0
C539 C 0.34868 0.40647 0.18416 0.0
C540 C 0.45525 0.41299 0.1743 0.0
C541 C 0.45083 0.37934 0.15376 0.0
C542 C 0.43677 0.41951 0.2002 0.0
C543 C 0.41342 0.39174 0.20561 0.0
C544 C 0.40902 0.35779 0.18505 0.0
C545 C 0.42772 0.35204 0.1595 0.0
C546 C 0.44212 0.45603 0.22168 0.0
C547 C 0.38443 0.32738 0.18994 0.0
H548 H 0.39064 0.38755 0.31794 0.0
H549 H 0.31491 0.40188 0.23607 0.0
H550 H 0.43946 0.36293 0.26681 0.0
H551 H 0.45746 0.40828 0.2748 0.0
H552 H 0.44478 0.39072 0.31088 0.0
H553 H 0.32529 0.41459 0.18159 0.0
H554 H 0.36736 0.42582 0.17709 0.0
H555 H 0.34403 0.38158 0.16401 0.0
H556 H 0.473 0.43423 0.17003 0.0
H557 H 0.42406 0.32592 0.14387 0.0
H558 H 0.44965 0.45759 0.25117 0.0
H559 H 0.41863 0.46384 0.21682 0.0
H560 H 0.46133 0.47474 0.21445 0.0
H561 H 0.39061 0.32515 0.21845 0.0
H562 H 0.38395 0.30261 0.17173 0.0
H563 H 0.35923 0.33136 0.18438 0.0
C564 C 0.9275 0.79725 0.84153 0.0
C565 C 0.89725 0.79122 0.85145 0.0
C566 C 0.94678 0.77344 0.84243 0.0
C567 C 0.93536 0.7427 0.85323 0.0
C568 C 0.90524 0.73696 0.86428 0.0
C569 C 0.88657 0.76133 0.86334 0.0
C570 C 0.9788 0.78062 0.83059 0.0
C571 C 0.89207 0.70441 0.87571 0.0
C572 C 0.96168 0.66394 0.81269 0.0
C573 C 0.9861 0.66198 0.84166 0.0
C574 C 0.94511 0.69002 0.81624 0.0
C575 C 0.95318 0.7151 0.84955 0.0
C576 C 0.97793 0.71353 0.87892 0.0
C577 C 0.99404 0.68688 0.87469 0.0
C578 C 0.91876 0.69057 0.78427 0.0
C579 C 0.98732 0.73997 0.91477 0.0
H580 H 0.93585 0.82041 0.83246 0.0
H581 H 0.86322 0.75648 0.87109 0.0
H582 H 0.99919 0.77752 0.85121 0.0
H583 H 0.97642 0.76169 0.80486 0.0
H584 H 0.98571 0.80704 0.82621 0.0
H585 H 0.86967 0.70506 0.88622 0.0
H586 H 0.88569 0.68181 0.85215 0.0
H587 H 0.91126 0.70038 0.89703 0.0
H588 H 0.9552 0.64482 0.78706 0.0
H589 H 0.01287 0.6856 0.89719 0.0
H590 H 0.92537 0.71535 0.77631 0.0
H591 H 0.8948 0.68872 0.79195 0.0
H592 H 0.91534 0.66908 0.76028 0.0
H593 H 0.99568 0.76625 0.91058 0.0
H594 H 0.00733 0.73544 0.9348 0.0
H595 H 0.96543 0.73944 0.9264 0.0
C596 C 0.83788 0.30919 0.30812 0.0
C597 C 0.80951 0.32146 0.30659 0.0
C598 C 0.86784 0.33018 0.30576 0.0
C599 C 0.86941 0.36422 0.30184 0.0
C600 C 0.84111 0.37705 0.30149 0.0
C601 C 0.81159 0.35557 0.30392 0.0
C602 C 0.89753 0.31565 0.3064 0.0
C603 C 0.84174 0.41325 0.29765 0.0
C604 C 0.95095 0.43256 0.32216 0.0
C605 C 0.95495 0.43353 0.28711 0.0
C606 C 0.92391 0.40923 0.32746 0.0
C607 C 0.9002 0.3863 0.29699 0.0
C608 C 0.9047 0.38629 0.26161 0.0
C609 C 0.93201 0.40986 0.2571 0.0
C610 C 0.92008 0.41002 0.36561 0.0
C611 C 0.87998 0.36223 0.22841 0.0
H612 H 0.83637 0.28279 0.30993 0.0
H613 H 0.78989 0.36539 0.30333 0.0
H614 H 0.90424 0.31399 0.27989 0.0
H615 H 0.91915 0.33304 0.32751 0.0
H616 H 0.89288 0.28952 0.31181 0.0
H617 H 0.81792 0.41964 0.29898 0.0
H618 H 0.86173 0.43229 0.31942 0.0
H619 H 0.84715 0.41622 0.2713 0.0
H620 H 0.96858 0.45061 0.34558 0.0
H621 H 0.93489 0.41031 0.22993 0.0
H622 H 0.91605 0.38366 0.3703 0.0
H623 H 0.89801 0.41916 0.36936 0.0
H624 H 0.94201 0.42729 0.38648 0.0
H625 H 0.87576 0.33518 0.23107 0.0
H626 H 0.8882 0.36372 0.20304 0.0
H627 H 0.85589 0.36883 0.22595 0.0
C628 C 0.1835 0.41948 0.83899 0.0
C629 C 0.16637 0.38441 0.82832 0.0
C630 C 0.16652 0.44533 0.84223 0.0
C631 C 0.13156 0.43588 0.83515 0.0
C632 C 0.11419 0.40046 0.82531 0.0
C633 C 0.13179 0.37514 0.82164 0.0
C634 C 0.18595 0.48273 0.85203 0.0
C635 C 0.07696 0.38932 0.81803 0.0
C636 C 0.08847 0.50474 0.86683 0.0
C637 C 0.0777 0.51399 0.83438 0.0
C638 C 0.10581 0.47909 0.86755 0.0
C639 C 0.11307 0.46295 0.83524 0.0
C640 C 0.10276 0.47275 0.80264 0.0
C641 C 0.08498 0.49784 0.80255 0.0
C642 C 0.11598 0.46894 0.90269 0.0
C643 C 0.11054 0.45677 0.76775 0.0
H644 H 0.21023 0.42671 0.84385 0.0
H645 H 0.11855 0.34803 0.81374 0.0
H646 H 0.17928 0.4946 0.82909 0.0
H647 H 0.17963 0.49732 0.87584 0.0
H648 H 0.21309 0.4858 0.85837 0.0
H649 H 0.06741 0.36094 0.81355 0.0
H650 H 0.06863 0.40237 0.84117 0.0
H651 H 0.06576 0.3971 0.7936 0.0
H652 H 0.08277 0.517 0.89145 0.0
H653 H 0.07703 0.50508 0.77742 0.0
H654 H 0.14322 0.47327 0.91036 0.0
H655 H 0.10485 0.44098 0.89912 0.0
H656 H 0.10826 0.48371 0.92536 0.0
H657 H 0.13765 0.46059 0.77175 0.0
H658 H 0.10152 0.46794 0.74496 0.0
H659 H 0.09903 0.42853 0.75987 0.0
C660 C 0.19565 0.68251 0.19185 0.0
C661 C 0.18379 0.71156 0.18916 0.0
C662 C 0.17472 0.65192 0.19453 0.0
C663 C 0.14127 0.65054 0.1946 0.0
C664 C 0.12858 0.67878 0.18865 0.0
C665 C 0.14999 0.70892 0.18595 0.0
C666 C 0.18914 0.62226 0.20042 0.0
C667 C 0.09307 0.67839 0.18836 0.0
C668 C 0.07984 0.56789 0.19553 0.0
C669 C 0.08123 0.57268 0.23279 0.0
C670 C 0.09979 0.59257 0.1825 0.0
C671 C 0.12136 0.62271 0.20732 0.0
C672 C 0.12314 0.62735 0.24493 0.0
C673 C 0.10319 0.60233 0.25714 0.0
C674 C 0.09744 0.5867 0.14225 0.0
C675 C 0.14572 0.65916 0.27239 0.0
H676 H 0.22176 0.6844 0.19435 0.0
H677 H 0.1406 0.73114 0.18314 0.0
H678 H 0.19296 0.62169 0.22948 0.0
H679 H 0.17195 0.59725 0.18428 0.0
H680 H 0.21332 0.6247 0.19305 0.0
H681 H 0.08586 0.69995 0.17808 0.0
H682 H 0.07607 0.65363 0.17133 0.0
H683 H 0.08967 0.6808 0.2164 0.0
H684 H 0.06304 0.54501 0.17654 0.0
H685 H 0.10458 0.60634 0.28599 0.0
H686 H 0.12238 0.58907 0.13696 0.0
H687 H 0.0875 0.60679 0.13178 0.0
H688 H 0.08119 0.56092 0.12681 0.0
H689 H 0.17166 0.66182 0.27025 0.0
H690 H 0.14468 0.65844 0.30074 0.0
H691 H 0.13872 0.68256 0.26673 0.0
C692 C 0.78642 0.91186 0.78929 0.0
C693 C 0.79005 0.87816 0.78494 0.0
C694 C 0.78012 0.92615 0.75934 0.0
C695 C 0.77717 0.90617 0.72408 0.0
C696 C 0.78073 0.87206 0.71946 0.0
C697 C 0.78732 0.85849 0.75003 0.0
C698 C 0.77704 0.96282 0.76552 0.0
C699 C 0.7776 0.84996 0.68226 0.0
C700 C 0.73683 0.94019 0.64678 0.0
C701 C 0.76467 0.95959 0.63875 0.0
C702 C 0.74041 0.92132 0.67351 0.0
C703 C 0.77252 0.92204 0.69256 0.0
C704 C 0.80058 0.94038 0.68342 0.0
C705 C 0.79631 0.95879 0.65664 0.0
C706 C 0.70991 0.90174 0.68235 0.0
C707 C 0.83525 0.9419 0.70308 0.0
H708 H 0.78874 0.92717 0.81631 0.0
H709 H 0.78967 0.83226 0.74658 0.0
H710 H 0.79671 0.97898 0.75633 0.0
H711 H 0.75292 0.96357 0.74925 0.0
H712 H 0.77908 0.97452 0.79453 0.0
H713 H 0.77973 0.82351 0.68314 0.0
H714 H 0.75342 0.84799 0.6641 0.0
H715 H 0.79713 0.86215 0.66999 0.0
H716 H 0.71233 0.94056 0.63302 0.0
H717 H 0.81804 0.97336 0.65042 0.0
H718 H 0.70864 0.91423 0.71 0.0
H719 H 0.71112 0.87491 0.68238 0.0
H720 H 0.68685 0.90089 0.66277 0.0
H721 H 0.84002 0.9557 0.73199 0.0
H722 H 0.85436 0.95539 0.69105 0.0
H723 H 0.83806 0.91548 0.70253 0.0
C724 C 0.68323 0.30888 0.24507 0.0
C725 C 0.68768 0.27736 0.25144 0.0
C726 C 0.65495 0.31019 0.22066 0.0
C727 C 0.63027 0.27927 0.20248 0.0
C728 C 0.63448 0.24737 0.20879 0.0
C729 C 0.66324 0.24676 0.23304 0.0
C730 C 0.65142 0.34473 0.21446 0.0
C731 C 0.60859 0.21392 0.19 0.0
C732 C 0.54586 0.29201 0.16624 0.0
C733 C 0.54622 0.29103 0.13001 0.0
C734 C 0.5725 0.28656 0.18987 0.0
C735 C 0.60014 0.28059 0.17683 0.0
C736 C 0.59995 0.2785 0.13979 0.0
C737 C 0.57286 0.28378 0.11675 0.0
C738 C 0.57174 0.28874 0.22911 0.0
C739 C 0.62903 0.27249 0.12494 0.0
H740 H 0.70168 0.3327 0.25961 0.0
H741 H 0.66668 0.22224 0.23741 0.0
H742 H 0.6482 0.34426 0.18519 0.0
H743 H 0.62902 0.35008 0.22236 0.0
H744 H 0.67318 0.36627 0.23018 0.0
H745 H 0.61542 0.19133 0.19826 0.0
H746 H 0.58454 0.21534 0.19629 0.0
H747 H 0.60491 0.20966 0.16013 0.0
H748 H 0.52524 0.29812 0.1763 0.0
H749 H 0.57306 0.28363 0.08871 0.0
H750 H 0.59076 0.31195 0.24669 0.0
H751 H 0.57776 0.26591 0.23749 0.0
H752 H 0.54725 0.29035 0.23408 0.0
H753 H 0.65086 0.29484 0.13775 0.0
H754 H 0.62393 0.26903 0.09501 0.0
H755 H 0.6357 0.24931 0.13169 0.0
C756 C 0.22282 0.21187 0.71534 0.0
C757 C 0.20403 0.23567 0.71174 0.0
C758 C 0.22 0.18428 0.68623 0.0
C759 C 0.19869 0.18114 0.65221 0.0
C760 C 0.17848 0.20429 0.64883 0.0
C761 C 0.18109 0.23119 0.67896 0.0
C762 C 0.24137 0.15971 0.6914 0.0
C763 C 0.15593 0.20218 0.61287 0.0
C764 C 0.23288 0.14148 0.57585 0.0
C765 C 0.21357 0.10725 0.56573 0.0
C766 C 0.22664 0.16631 0.60219 0.0
C767 C 0.2011 0.15643 0.61971 0.0
C768 C 0.18084 0.12208 0.60881 0.0
C769 C 0.18704 0.09793 0.58149 0.0
C770 C 0.24834 0.20284 0.61231 0.0
C771 C 0.15388 0.11035 0.62738 0.0
H772 H 0.24044 0.21539 0.74088 0.0
H773 H 0.16679 0.24988 0.6762 0.0
H774 H 0.22652 0.13257 0.6799 0.0
H775 H 0.26124 0.16444 0.67675 0.0
H776 H 0.2531 0.16287 0.7205 0.0
H777 H 0.13852 0.21859 0.61586 0.0
H778 H 0.17108 0.21094 0.59438 0.0
H779 H 0.1415 0.17515 0.59973 0.0
H780 H 0.25307 0.14884 0.56322 0.0
H781 H 0.1721 0.07142 0.57362 0.0
H782 H 0.26457 0.2083 0.63995 0.0
H783 H 0.23299 0.22156 0.61285 0.0
H784 H 0.26424 0.20728 0.59312 0.0
H785 H 0.16524 0.10977 0.6555 0.0
H786 H 0.13784 0.08419 0.61293 0.0
H787 H 0.13826 0.12875 0.62935 0.0
C788 C 0.35562 0.75401 0.15358 0.0
C789 C 0.33047 0.77039 0.1457 0.0
C790 C 0.38407 0.7612 0.14025 0.0
C791 C 0.38694 0.78464 0.11767 0.0
C792 C 0.36147 0.80116 0.1095 0.0
C793 C 0.33365 0.79412 0.12398 0.0
C794 C 0.41095 0.74352 0.15012 0.0
C795 C 0.36322 0.82559 0.08476 0.0
C796 C 0.47207 0.82135 0.10322 0.0
C797 C 0.47166 0.79793 0.07142 0.0
C798 C 0.44455 0.81756 0.11858 0.0
C799 C 0.41578 0.7903 0.10109 0.0
C800 C 0.41493 0.76743 0.06822 0.0
C801 C 0.44303 0.77125 0.05408 0.0
C802 C 0.4466 0.84199 0.15405 0.0
C803 C 0.38449 0.7386 0.0482 0.0
H804 H 0.35318 0.7358 0.17055 0.0
H805 H 0.31407 0.80665 0.11766 0.0
H806 H 0.41326 0.72628 0.12535 0.0
H807 H 0.43511 0.76298 0.16185 0.0
H808 H 0.40596 0.72788 0.16996 0.0
H809 H 0.34171 0.83691 0.08175 0.0
H810 H 0.38621 0.84688 0.09539 0.0
H811 H 0.36409 0.81167 0.05747 0.0
H812 H 0.49427 0.8419 0.11671 0.0
H813 H 0.44253 0.75335 0.02922 0.0
H814 H 0.44398 0.82732 0.17516 0.0
H815 H 0.42599 0.85457 0.15111 0.0
H816 H 0.47037 0.86236 0.1637 0.0
H817 H 0.37963 0.71978 0.06498 0.0
H818 H 0.38706 0.72465 0.02168 0.0
H819 H 0.36254 0.74905 0.0433 0.0
C820 C 0.76945 0.2131 0.44081 0.0
C821 C 0.75177 0.20765 0.40489 0.0
C822 C 0.76363 0.18762 0.46025 0.0
C823 C 0.73979 0.15577 0.44314 0.0
C824 C 0.72126 0.15048 0.40713 0.0
C825 C 0.72741 0.17653 0.38844 0.0
C826 C 0.78378 0.19436 0.49872 0.0
C827 C 0.69589 0.1168 0.38784 0.0
C828 C 0.75908 0.0812 0.47992 0.0
C829 C 0.73818 0.07772 0.5036 0.0
C830 C 0.75849 0.10525 0.45865 0.0
C831 C 0.73689 0.12692 0.46169 0.0
C832 C 0.71453 0.12239 0.48431 0.0
C833 C 0.71526 0.09751 0.50491 0.0
C834 C 0.78229 0.10869 0.43439 0.0
C835 C 0.69134 0.14519 0.48845 0.0
H836 H 0.78813 0.23722 0.45361 0.0
H837 H 0.71358 0.1721 0.36064 0.0
H838 H 0.76729 0.18878 0.51702 0.0
H839 H 0.80037 0.1769 0.49989 0.0
H840 H 0.79915 0.22145 0.50915 0.0
H841 H 0.68148 0.11791 0.36114 0.0
H842 H 0.70847 0.09583 0.38335 0.0
H843 H 0.67848 0.10981 0.40481 0.0
H844 H 0.77679 0.06579 0.47898 0.0
H845 H 0.69945 0.09509 0.52366 0.0
H846 H 0.80116 0.13386 0.44509 0.0
H847 H 0.76902 0.10819 0.4066 0.0
H848 H 0.7952 0.08778 0.4326 0.0
H849 H 0.70585 0.17183 0.50321 0.0
H850 H 0.67307 0.13592 0.50372 0.0
H851 H 0.67785 0.14654 0.46146 0.0
C852 C 0.28973 0.33377 0.86283 0.0
C853 C 0.2611 0.33708 0.87439 0.0
C854 C 0.31817 0.33296 0.88724 0.0
C855 C 0.31804 0.33558 0.92421 0.0
C856 C 0.28955 0.33998 0.93634 0.0
C857 C 0.26135 0.34079 0.91122 0.0
C858 C 0.34813 0.32858 0.87327 0.0
C859 C 0.28861 0.34291 0.97562 0.0
C860 C 0.37994 0.29801 0.9771 0.0
C861 C 0.40549 0.32768 0.9954 0.0
C862 C 0.35102 0.3003 0.9544 0.0
C863 C 0.34764 0.33301 0.94983 0.0
C864 C 0.37327 0.36305 0.96828 0.0
C865 C 0.40187 0.36002 0.99083 0.0
C866 C 0.3242 0.26768 0.93505 0.0
C867 C 0.37062 0.39835 0.9639 0.0
H868 H 0.28973 0.33143 0.83441 0.0
H869 H 0.23918 0.34322 0.92012 0.0
H870 H 0.37005 0.35001 0.88861 0.0
H871 H 0.35377 0.30419 0.87756 0.0
H872 H 0.34448 0.32794 0.8439 0.0
H873 H 0.26509 0.34763 0.98094 0.0
H874 H 0.29155 0.31877 0.98333 0.0
H875 H 0.3095 0.36426 0.99343 0.0
H876 H 0.38243 0.27295 0.98062 0.0
H877 H 0.42141 0.38313 0.00495 0.0
H878 H 0.32053 0.26405 0.90524 0.0
H879 H 0.30041 0.26981 0.94162 0.0
H880 H 0.33013 0.2444 0.9425 0.0
H881 H 0.3686 0.39936 0.93511 0.0
H882 H 0.39228 0.41926 0.9811 0.0
H883 H 0.34789 0.40345 0.97111 0.0
C884 C 0.22288 0.82943 0.2895 0.0
C885 C 0.22626 0.83556 0.25575 0.0
C886 C 0.2233 0.85631 0.3183 0.0
C887 C 0.22714 0.89019 0.31325 0.0
C888 C 0.23019 0.89654 0.27913 0.0
C889 C 0.22986 0.86912 0.25078 0.0
C890 C 0.22027 0.84854 0.35436 0.0
C891 C 0.23408 0.93231 0.27271 0.0
C892 C 0.20144 0.95286 0.38134 0.0
C893 C 0.23195 0.97082 0.40553 0.0
C894 C 0.19957 0.92713 0.35063 0.0
C895 C 0.22887 0.91902 0.34413 0.0
C896 C 0.25977 0.93735 0.36817 0.0
C897 C 0.26094 0.96309 0.3985 0.0
C898 C 0.1662 0.90823 0.32548 0.0
C899 C 0.29153 0.92926 0.36226 0.0
H900 H 0.22067 0.80364 0.29367 0.0
H901 H 0.23228 0.87388 0.22466 0.0
H902 H 0.24288 0.86336 0.37569 0.0
H903 H 0.19908 0.85676 0.36253 0.0
H904 H 0.21671 0.82065 0.35355 0.0
H905 H 0.23509 0.93272 0.24429 0.0
H906 H 0.21317 0.94252 0.27888 0.0
H907 H 0.2571 0.95007 0.29126 0.0
H908 H 0.17894 0.95879 0.38645 0.0
H909 H 0.28463 0.97682 0.41702 0.0
H910 H 0.16063 0.88049 0.3257 0.0
H911 H 0.16645 0.90976 0.29719 0.0
H912 H 0.14598 0.91883 0.33329 0.0
H913 H 0.29071 0.90224 0.36361 0.0
H914 H 0.31363 0.94669 0.38278 0.0
H915 H 0.29442 0.93151 0.33484 0.0
C916 C 0.76269 0.85755 0.93092 0.0
C917 C 0.75237 0.85098 0.893 0.0
C918 C 0.73964 0.85687 0.95249 0.0
C919 C 0.70554 0.84929 0.93567 0.0
C920 C 0.69511 0.84363 0.89751 0.0
C921 C 0.71862 0.84446 0.87667 0.0
C922 C 0.75166 0.86309 0.99312 0.0
C923 C 0.65895 0.83519 0.87846 0.0
C924 C 0.64134 0.803 0.97718 0.0
C925 C 0.62707 0.82927 0.99019 0.0
C926 C 0.66776 0.8096 0.96076 0.0
C927 C 0.68034 0.84338 0.95712 0.0
C928 C 0.667 0.87041 0.97144 0.0
C929 C 0.64046 0.86304 0.98793 0.0
C930 C 0.68134 0.78004 0.94601 0.0
C931 C 0.67991 0.90676 0.96809 0.0
H932 H 0.7888 0.86305 0.9437 0.0
H933 H 0.71041 0.83888 0.84735 0.0
H934 H 0.74093 0.88258 0.00729 0.0
H935 H 0.74329 0.83883 0.0015 0.0
H936 H 0.77905 0.87206 0.0023 0.0
H937 H 0.65518 0.83439 0.84905 0.0
H938 H 0.64591 0.80965 0.88141 0.0
H939 H 0.64724 0.85456 0.89107 0.0
H940 H 0.63148 0.77688 0.97926 0.0
H941 H 0.62962 0.88347 0.99804 0.0
H942 H 0.70854 0.78673 0.95666 0.0
H943 H 0.67633 0.77513 0.91598 0.0
H944 H 0.67022 0.75581 0.95314 0.0
H945 H 0.70725 0.91519 0.97782 0.0
H946 H 0.6692 0.92542 0.98369 0.0
H947 H 0.67376 0.90754 0.93911 0.0
loop_
_geom_bond_atom_site_label_1
_geom_bond_atom_site_label_2
_geom_bond_distance
_geom_bond_site_symmetry_2
_ccdc_geom_bond_type
H0 C5 0.930 . S
H1 C8 0.930 . S
H2 C10 0.930 . S
H3 C4 1.016 . S
C4 H3 1.016 . S
C4 N11 1.286 . S
C5 H0 0.930 . S
C5 C6 1.397 . S
C5 C7 1.361 . S
C6 C5 1.397 . S
C6 C10 1.390 . S
C7 C5 1.361 . S
C7 C8 1.393 . S
C7 N11 1.413 . S
C8 H1 0.930 . S
C8 C7 1.393 . S
C8 C9 1.399 . S
C9 C8 1.399 . S
C9 C10 1.381 . S
C10 H2 0.930 . S
C10 C6 1.390 . S
C10 C9 1.381 . S
N11 C4 1.286 . S
N11 C7 1.413 . S
H12 C17 0.930 . S
H13 C20 0.930 . S
H14 C22 0.930 . S
H15 C16 1.016 . S
C16 H15 1.016 . S
C16 N23 1.286 . S
C17 H12 0.930 . S
C17 C18 1.397 . S
C17 C19 1.361 . S
C18 C17 1.397 . S
C18 C22 1.390 . S
C19 C17 1.361 . S
C19 C20 1.393 . S
C19 N23 1.413 . S
C20 H13 0.930 . S
C20 C19 1.393 . S
C20 C21 1.399 . S
C21 C20 1.399 . S
C21 C22 1.381 . S
C22 H14 0.930 . S
C22 C18 1.390 . S
C22 C21 1.381 . S
N23 C16 1.286 . S
N23 C19 1.413 . S
H24 C29 0.930 . S
H25 C32 0.930 . S
H26 C34 0.930 . S
H27 C28 1.016 . S
C28 H27 1.016 . S
C28 N35 1.286 . S
C29 H24 0.930 . S
C29 C30 1.397 . S
C29 C31 1.361 . S
C30 C29 1.397 . S
C30 C34 1.390 . S
C31 C29 1.361 . S
C31 C32 1.393 . S
C31 N35 1.413 . S
C32 H25 0.930 . S
C32 C31 1.393 . S
C32 C33 1.399 . S
C33 C32 1.399 . S
C33 C34 1.381 . S
C34 H26 0.930 . S
C34 C30 1.390 . S
C34 C33 1.381 . S
N35 C28 1.286 . S
N35 C31 1.413 . S
H36 C41 0.930 . S
H37 C44 0.930 . S
H38 C46 0.930 . S
H39 C40 1.016 . S
C40 H39 1.016 . S
C40 N47 1.286 . S
C41 H36 0.930 . S
C41 C42 1.397 . S
C41 C43 1.361 . S
C42 C41 1.397 . S
C42 C46 1.390 . S
C43 C41 1.361 . S
C43 C44 1.393 . S
C43 N47 1.413 . S
C44 H37 0.930 . S
C44 C43 1.393 . S
C44 C45 1.399 . S
C45 C44 1.399 . S
C45 C46 1.381 . S
C46 H38 0.930 . S
C46 C42 1.390 . S
C46 C45 1.381 . S
N47 C40 1.286 . S
N47 C43 1.413 . S
H48 C53 0.930 . S
H49 C56 0.930 . S
H50 C58 0.930 . S
H51 C52 1.016 . S
C52 H51 1.016 . S
C52 N59 1.286 . S
C53 H48 0.930 . S
C53 C54 1.397 . S
C53 C55 1.361 . S
C54 C53 1.397 . S
C54 C58 1.390 . S
C55 C53 1.361 . S
C55 C56 1.393 . S
C55 N59 1.413 . S
C56 H49 0.930 . S
C56 C55 1.393 . S
C56 C57 1.399 . S
C57 C56 1.399 . S
C57 C58 1.381 . S
C58 H50 0.930 . S
C58 C54 1.390 . S
C58 C57 1.381 . S
N59 C52 1.286 . S
N59 C55 1.413 . S
H60 C65 0.930 . S
H61 C68 0.930 . S
H62 C70 0.930 . S
H63 C64 1.016 . S
C64 H63 1.016 . S
C64 N71 1.286 . S
C65 H60 0.930 . S
C65 C66 1.397 . S
C65 C67 1.361 . S
C66 C65 1.397 . S
C66 C70 1.390 . S
C67 C65 1.361 . S
C67 C68 1.393 . S
C67 N71 1.413 . S
C68 H61 0.930 . S
C68 C67 1.393 . S
C68 C69 1.399 . S
C69 C68 1.399 . S
C69 C70 1.381 . S
C70 H62 0.930 . S
C70 C66 1.390 . S
C70 C69 1.381 . S
N71 C64 1.286 . S
N71 C67 1.413 . S
H72 C77 0.930 . S
H73 C80 0.930 . S
H74 C82 0.930 . S
H75 C76 1.016 . S
C76 H75 1.016 . S
C76 N83 1.286 . S
C77 H72 0.930 . S
C77 C78 1.397 . S
C77 C79 1.361 . S
C78 C77 1.397 . S
C78 C82 1.390 . S
C79 C77 1.361 . S
C79 C80 1.393 . S
C79 N83 1.413 . S
C80 H73 0.930 . S
C80 C79 1.393 . S
C80 C81 1.399 . S
C81 C80 1.399 . S
C81 C82 1.381 . S
C82 H74 0.930 . S
C82 C78 1.390 . S
C82 C81 1.381 . S
N83 C76 1.286 . S
N83 C79 1.413 . S
H84 C89 0.930 . S
H85 C92 0.930 . S
H86 C94 0.930 . S
H87 C88 1.016 . S
C88 H87 1.016 . S
C88 N95 1.286 . S
C89 H84 0.930 . S
C89 C90 1.397 . S
C89 C91 1.361 . S
C90 C89 1.397 . S
C90 C94 1.390 . S
C91 C89 1.361 . S
C91 C92 1.393 . S
C91 N95 1.413 . S
C92 H85 0.930 . S
C92 C91 1.393 . S
C92 C93 1.399 . S
C93 C92 1.399 . S
C93 C94 1.381 . S
C94 H86 0.930 . S
C94 C90 1.390 . S
C94 C93 1.381 . S
N95 C88 1.286 . S
N95 C91 1.413 . S
C96 O98 1.247 . S
C96 O100 1.258 . S
C97 O104 1.247 . S
C97 O105 1.258 . S
O98 C96 1.247 . S
O98 Zn99 2.028 1_655 S
Zn99 O98 2.028 1_455 S
Zn99 O103 2.035 . S
Zn99 O105 2.035 . S
Zn99 O106 2.028 . S
O100 C96 1.258 . S
O100 Zn101 2.035 1_655 S
Zn101 O100 2.035 1_455 S
Zn101 O102 2.028 . S
Zn101 O104 2.028 . S
Zn101 O107 2.035 1_455 S
O102 Zn101 2.028 . S
O102 C108 1.247 . S
O103 Zn99 2.035 . S
O103 C108 1.258 . S
O104 C97 1.247 . S
O104 Zn101 2.028 . S
O105 C97 1.258 . S
O105 Zn99 2.035 . S
O106 Zn99 2.028 . S
O106 C109 1.247 1_455 S
O107 Zn101 2.035 1_655 S
O107 C109 1.258 . S
C108 O102 1.247 . S
C108 O103 1.258 . S
C109 O106 1.247 1_655 S
C109 O107 1.258 . S
C110 O112 1.247 . S
C110 O114 1.258 . S
C111 O118 1.247 . S
C111 O119 1.258 . S
O112 C110 1.247 . S
O112 Zn113 2.028 . S
Zn113 O112 2.028 . S
Zn113 O117 2.035 . S
Zn113 O119 2.035 . S
Zn113 O120 2.028 . S
O114 C110 1.258 . S
O114 Zn115 2.035 . S
Zn115 O114 2.035 . S
Zn115 O116 2.028 . S
Zn115 O118 2.028 . S
Zn115 O121 2.035 . S
O116 Zn115 2.028 . S
O116 C122 1.247 . S
O117 Zn113 2.035 . S
O117 C122 1.258 . S
O118 C111 1.247 . S
O118 Zn115 2.028 . S
O119 C111 1.258 . S
O119 Zn113 2.035 . S
O120 Zn113 2.028 . S
O120 C123 1.247 . S
O121 Zn115 2.035 . S
O121 C123 1.258 . S
C122 O116 1.247 . S
C122 O117 1.258 . S
C123 O120 1.247 . S
C123 O121 1.258 . S
C124 O126 1.247 . S
C124 O128 1.258 . S
C125 O132 1.247 . S
C125 O133 1.258 . S
O126 C124 1.247 . S
O126 Zn127 2.028 . S
Zn127 O126 2.028 . S
Zn127 O131 2.035 1_565 S
Zn127 O133 2.035 1_565 S
Zn127 O134 2.028 . S
O128 C124 1.258 . S
O128 Zn129 2.035 1_565 S
Zn129 O128 2.035 1_545 S
Zn129 O130 2.028 . S
Zn129 O132 2.028 . S
Zn129 O135 2.035 1_545 S
O130 Zn129 2.028 . S
O130 C136 1.247 . S
O131 Zn127 2.035 1_545 S
O131 C136 1.258 . S
O132 C125 1.247 . S
O132 Zn129 2.028 . S
O133 C125 1.258 . S
O133 Zn127 2.035 1_545 S
O134 Zn127 2.028 . S
O134 C137 1.247 . S
O135 Zn129 2.035 1_565 S
O135 C137 1.258 . S
C136 O130 1.247 . S
C136 O131 1.258 . S
C137 O134 1.247 . S
C137 O135 1.258 . S
C138 O140 1.247 . S
C138 O142 1.258 . S
C139 O146 1.247 . S
C139 O147 1.258 . S
O140 C138 1.247 . S
O140 Zn141 2.028 1_554 S
Zn141 O140 2.028 1_556 S
Zn141 O145 2.035 1_556 S
Zn141 O147 2.035 . S
Zn141 O148 2.028 . S
O142 C138 1.258 . S
O142 Zn143 2.035 . S
Zn143 O142 2.035 . S
Zn143 O144 2.028 . S
Zn143 O146 2.028 1_554 S
Zn143 O149 2.035 1_554 S
O144 Zn143 2.028 . S
O144 C150 1.247 . S
O145 Zn141 2.035 1_554 S
O145 C150 1.258 . S
O146 C139 1.247 . S
O146 Zn143 2.028 1_556 S
O147 C139 1.258 . S
O147 Zn141 2.035 . S
O148 Zn141 2.028 . S
O148 C151 1.247 . S
O149 Zn143 2.035 1_556 S
O149 C151 1.258 . S
C150 O144 1.247 . S
C150 O145 1.258 . S
C151 O148 1.247 . S
C151 O149 1.258 . S
C152 O154 1.247 . S
C152 O156 1.258 1_565 S
C153 O160 1.247 . S
C153 O161 1.258 . S
O154 C152 1.247 . S
O154 Zn155 2.028 1_565 S
Zn155 O154 2.028 1_545 S
Zn155 O159 2.035 . S
Zn155 O161 2.035 . S
Zn155 O162 2.028 1_545 S
O156 C152 1.258 1_545 S
O156 Zn157 2.035 . S
Zn157 O156 2.035 . S
Zn157 O158 2.028 . S
Zn157 O160 2.028 . S
Zn157 O163 2.035 . S
O158 Zn157 2.028 . S
O158 C164 1.247 . S
O159 Zn155 2.035 . S
O159 C164 1.258 . S
O160 C153 1.247 . S
O160 Zn157 2.028 . S
O161 C153 1.258 . S
O161 Zn155 2.035 . S
O162 Zn155 2.028 1_565 S
O162 C165 1.247 . S
O163 Zn157 2.035 . S
O163 C165 1.258 1_545 S
C164 O158 1.247 . S
C164 O159 1.258 . S
C165 O162 1.247 . S
C165 O163 1.258 1_565 S
C166 O168 1.247 . S
C166 O170 1.258 . S
C167 O174 1.247 . S
C167 O175 1.258 . S
O168 C166 1.247 . S
O168 Zn169 2.028 . S
Zn169 O168 2.028 . S
Zn169 O173 2.035 . S
Zn169 O175 2.035 . S
Zn169 O176 2.028 . S
O170 C166 1.258 . S
O170 Zn171 2.035 . S
Zn171 O170 2.035 . S
Zn171 O172 2.028 . S
Zn171 O174 2.028 . S
Zn171 O177 2.035 . S
O172 Zn171 2.028 . S
O172 C178 1.247 . S
O173 Zn169 2.035 . S
O173 C178 1.258 . S
O174 C167 1.247 . S
O174 Zn171 2.028 . S
O175 C167 1.258 . S
O175 Zn169 2.035 . S
O176 Zn169 2.028 . S
O176 C179 1.247 . S
O177 Zn171 2.035 . S
O177 C179 1.258 . S
C178 O172 1.247 . S
C178 O173 1.258 . S
C179 O176 1.247 . S
C179 O177 1.258 . S
C180 C181 1.391 . S
C180 C182 1.394 . S
C180 H196 0.931 . S
C181 C180 1.391 . S
C181 C185 1.376 . S
C182 C180 1.394 . S
C182 C183 1.369 . S
C182 C186 1.531 . S
C183 C182 1.369 . S
C183 C184 1.410 . S
C183 C191 1.503 . S
C184 C183 1.410 . S
C184 C185 1.392 . S
C184 C187 1.511 . S
C185 C181 1.376 . S
C185 C184 1.392 . S
C185 H197 0.929 . S
C186 C182 1.531 . S
C186 H198 0.960 . S
C186 H199 0.962 . S
C186 H200 0.960 . S
C187 C184 1.511 . S
C187 H201 0.961 . S
C187 H202 0.961 . S
C187 H203 0.961 . S
C188 C189 1.370 . S
C188 C190 1.363 . S
C188 H204 0.931 . S
C189 C188 1.370 . S
C189 C193 1.408 . S
C190 C188 1.363 . S
C190 C191 1.370 . S
C190 C194 1.524 . S
C191 C183 1.503 . S
C191 C190 1.370 . S
C191 C192 1.403 . S
C192 C191 1.403 . S
C192 C193 1.404 . S
C192 C195 1.539 . S
C193 C189 1.408 . S
C193 C192 1.404 . S
C193 H205 0.930 . S
C194 C190 1.524 . S
C194 H206 0.956 . S
C194 H207 0.961 . S
C194 H208 0.961 . S
C195 C192 1.539 . S
C195 H209 0.958 . S
C195 H210 0.961 . S
C195 H211 0.960 . S
H196 C180 0.931 . S
H197 C185 0.929 . S
H198 C186 0.960 . S
H199 C186 0.962 . S
H200 C186 0.960 . S
H201 C187 0.961 . S
H202 C187 0.961 . S
H203 C187 0.961 . S
H204 C188 0.931 . S
H205 C193 0.930 . S
H206 C194 0.956 . S
H207 C194 0.961 . S
H208 C194 0.961 . S
H209 C195 0.958 . S
H210 C195 0.961 . S
H211 C195 0.960 . S
C212 C213 1.391 . S
C212 C214 1.394 . S
C212 H228 0.931 . S
C213 C212 1.391 . S
C213 C217 1.376 . S
C214 C212 1.394 . S
C214 C215 1.369 . S
C214 C218 1.531 . S
C215 C214 1.369 . S
C215 C216 1.410 . S
C215 C223 1.503 . S
C216 C215 1.410 . S
C216 C217 1.392 . S
C216 C219 1.511 . S
C217 C213 1.376 . S
C217 C216 1.392 . S
C217 H229 0.929 . S
C218 C214 1.531 . S
C218 H230 0.960 . S
C218 H231 0.962 . S
C218 H232 0.960 . S
C219 C216 1.511 . S
C219 H233 0.961 . S
C219 H234 0.961 . S
C219 H235 0.961 . S
C220 C221 1.370 . S
C220 C222 1.363 . S
C220 H236 0.931 . S
C221 C220 1.370 . S
C221 C225 1.408 . S
C222 C220 1.363 . S
C222 C223 1.370 . S
C222 C226 1.524 . S
C223 C215 1.503 . S
C223 C222 1.370 . S
C223 C224 1.403 . S
C224 C223 1.403 . S
C224 C225 1.404 . S
C224 C227 1.539 . S
C225 C221 1.408 . S
C225 C224 1.404 . S
C225 H237 0.930 . S
C226 C222 1.524 . S
C226 H238 0.956 . S
C226 H239 0.961 . S
C226 H240 0.961 . S
C227 C224 1.539 . S
C227 H241 0.958 . S
C227 H242 0.961 . S
C227 H243 0.960 . S
H228 C212 0.931 . S
H229 C217 0.929 . S
H230 C218 0.960 . S
H231 C218 0.962 . S
H232 C218 0.960 . S
H233 C219 0.961 . S
H234 C219 0.961 . S
H235 C219 0.961 . S
H236 C220 0.931 . S
H237 C225 0.930 . S
H238 C226 0.956 . S
H239 C226 0.961 . S
H240 C226 0.961 . S
H241 C227 0.958 . S
H242 C227 0.961 . S
H243 C227 0.960 . S
C244 C245 1.391 . S
C244 C246 1.394 . S
C244 H260 0.931 . S
C245 C244 1.391 . S
C245 C249 1.376 . S
C246 C244 1.394 . S
C246 C247 1.369 . S
C246 C250 1.531 . S
C247 C246 1.369 . S
C247 C248 1.410 . S
C247 C255 1.503 . S
C248 C247 1.410 . S
C248 C249 1.392 . S
C248 C251 1.511 . S
C249 C245 1.376 . S
C249 C248 1.392 . S
C249 H261 0.929 . S
C250 C246 1.531 . S
C250 H262 0.960 . S
C250 H263 0.962 . S
C250 H264 0.960 . S
C251 C248 1.511 . S
C251 H265 0.961 . S
C251 H266 0.961 . S
C251 H267 0.961 . S
C252 C253 1.370 . S
C252 C254 1.363 . S
C252 H268 0.931 . S
C253 C252 1.370 . S
C253 C257 1.408 . S
C254 C252 1.363 . S
C254 C255 1.370 . S
C254 C258 1.524 . S
C255 C247 1.503 . S
C255 C254 1.370 . S
C255 C256 1.403 . S
C256 C255 1.403 . S
C256 C257 1.404 . S
C256 C259 1.539 . S
C257 C253 1.408 . S
C257 C256 1.404 . S
C257 H269 0.930 . S
C258 C254 1.524 . S
C258 H270 0.956 . S
C258 H271 0.961 . S
C258 H272 0.961 . S
C259 C256 1.539 . S
C259 H273 0.958 . S
C259 H274 0.961 . S
C259 H275 0.960 . S
H260 C244 0.931 . S
H261 C249 0.929 . S
H262 C250 0.960 . S
H263 C250 0.962 . S
H264 C250 0.960 . S
H265 C251 0.961 . S
H266 C251 0.961 . S
H267 C251 0.961 . S
H268 C252 0.931 . S
H269 C257 0.930 . S
H270 C258 0.956 . S
H271 C258 0.961 . S
H272 C258 0.961 . S
H273 C259 0.958 . S
H274 C259 0.961 . S
H275 C259 0.960 . S
C276 C277 1.391 . S
C276 C278 1.394 . S
C276 H292 0.931 . S
C277 C276 1.391 . S
C277 C281 1.376 . S
C278 C276 1.394 . S
C278 C279 1.369 . S
C278 C282 1.531 . S
C279 C278 1.369 . S
C279 C280 1.410 . S
C279 C287 1.503 . S
C280 C279 1.410 . S
C280 C281 1.392 . S
C280 C283 1.511 . S
C281 C277 1.376 . S
C281 C280 1.392 . S
C281 H293 0.929 . S
C282 C278 1.531 . S
C282 H294 0.960 . S
C282 H295 0.962 . S
C282 H296 0.960 . S
C283 C280 1.511 . S
C283 H297 0.961 . S
C283 H298 0.961 . S
C283 H299 0.961 . S
C284 C285 1.370 . S
C284 C286 1.363 . S
C284 H300 0.931 . S
C285 C284 1.370 . S
C285 C289 1.408 . S
C286 C284 1.363 . S
C286 C287 1.370 . S
C286 C290 1.524 . S
C287 C279 1.503 . S
C287 C286 1.370 . S
C287 C288 1.403 . S
C288 C287 1.403 . S
C288 C289 1.404 . S
C288 C291 1.539 . S
C289 C285 1.408 . S
C289 C288 1.404 . S
C289 H301 0.930 . S
C290 C286 1.524 . S
C290 H302 0.956 . S
C290 H303 0.961 . S
C290 H304 0.961 . S
C291 C288 1.539 . S
C291 H305 0.958 . S
C291 H306 0.961 . S
C291 H307 0.960 . S
H292 C276 0.931 . S
H293 C281 0.929 . S
H294 C282 0.960 . S
H295 C282 0.962 . S
H296 C282 0.960 . S
H297 C283 0.961 . S
H298 C283 0.961 . S
H299 C283 0.961 . S
H300 C284 0.931 . S
H301 C289 0.930 . S
H302 C290 0.956 . S
H303 C290 0.961 . S
H304 C290 0.961 . S
H305 C291 0.958 . S
H306 C291 0.961 . S
H307 C291 0.960 . S
C308 C309 1.391 . S
C308 C310 1.394 . S
C308 H324 0.931 . S
C309 C308 1.391 . S
C309 C313 1.376 . S
C310 C308 1.394 . S
C310 C311 1.369 . S
C310 C314 1.531 . S
C311 C310 1.369 . S
C311 C312 1.410 . S
C311 C319 1.503 . S
C312 C311 1.410 . S
C312 C313 1.392 . S
C312 C315 1.511 . S
C313 C309 1.376 . S
C313 C312 1.392 . S
C313 H325 0.929 . S
C314 C310 1.531 . S
C314 H326 0.960 . S
C314 H327 0.962 . S
C314 H328 0.960 . S
C315 C312 1.511 . S
C315 H329 0.961 . S
C315 H330 0.961 . S
C315 H331 0.961 . S
C316 C317 1.370 . S
C316 C318 1.363 . S
C316 H332 0.931 . S
C317 C316 1.370 . S
C317 C321 1.408 . S
C318 C316 1.363 . S
C318 C319 1.370 . S
C318 C322 1.524 . S
C319 C311 1.503 . S
C319 C318 1.370 . S
C319 C320 1.403 . S
C320 C319 1.403 . S
C320 C321 1.404 . S
C320 C323 1.539 . S
C321 C317 1.408 . S
C321 C320 1.404 . S
C321 H333 0.930 . S
C322 C318 1.524 . S
C322 H334 0.956 . S
C322 H335 0.961 . S
C322 H336 0.961 . S
C323 C320 1.539 . S
C323 H337 0.958 . S
C323 H338 0.961 . S
C323 H339 0.960 . S
H324 C308 0.931 . S
H325 C313 0.929 . S
H326 C314 0.960 . S
H327 C314 0.962 . S
H328 C314 0.960 . S
H329 C315 0.961 . S
H330 C315 0.961 . S
H331 C315 0.961 . S
H332 C316 0.931 . S
H333 C321 0.930 . S
H334 C322 0.956 . S
H335 C322 0.961 . S
H336 C322 0.961 . S
H337 C323 0.958 . S
H338 C323 0.961 . S
H339 C323 0.960 . S
C340 C341 1.391 . S
C340 C342 1.394 . S
C340 H356 0.931 . S
C341 C340 1.391 . S
C341 C345 1.376 . S
C342 C340 1.394 . S
C342 C343 1.369 . S
C342 C346 1.531 . S
C343 C342 1.369 . S
C343 C344 1.410 . S
C343 C351 1.503 . S
C344 C343 1.410 . S
C344 C345 1.392 . S
C344 C347 1.511 . S
C345 C341 1.376 . S
C345 C344 1.392 . S
C345 H357 0.929 . S
C346 C342 1.531 . S
C346 H358 0.960 . S
C346 H359 0.962 . S
C346 H360 0.960 . S
C347 C344 1.511 . S
C347 H361 0.961 . S
C347 H362 0.961 . S
C347 H363 0.961 . S
C348 C349 1.370 . S
C348 C350 1.363 . S
C348 H364 0.931 . S
C349 C348 1.370 . S
C349 C353 1.408 . S
C350 C348 1.363 . S
C350 C351 1.370 . S
C350 C354 1.524 . S
C351 C343 1.503 . S
C351 C350 1.370 . S
C351 C352 1.403 . S
C352 C351 1.403 . S
C352 C353 1.404 . S
C352 C355 1.539 . S
C353 C349 1.408 . S
C353 C352 1.404 . S
C353 H365 0.930 . S
C354 C350 1.524 . S
C354 H366 0.956 . S
C354 H367 0.961 . S
C354 H368 0.961 . S
C355 C352 1.539 . S
C355 H369 0.958 . S
C355 H370 0.961 . S
C355 H371 0.960 . S
H356 C340 0.931 . S
H357 C345 0.929 . S
H358 C346 0.960 . S
H359 C346 0.962 . S
H360 C346 0.960 . S
H361 C347 0.961 . S
H362 C347 0.961 . S
H363 C347 0.961 . S
H364 C348 0.931 . S
H365 C353 0.930 . S
H366 C354 0.956 . S
H367 C354 0.961 . S
H368 C354 0.961 . S
H369 C355 0.958 . S
H370 C355 0.961 . S
H371 C355 0.960 . S
C372 C373 1.391 . S
C372 C374 1.394 . S
C372 H388 0.931 . S
C373 C372 1.391 . S
C373 C377 1.376 . S
C374 C372 1.394 . S
C374 C375 1.369 . S
C374 C378 1.531 . S
C375 C374 1.369 . S
C375 C376 1.410 . S
C375 C383 1.503 . S
C376 C375 1.410 . S
C376 C377 1.392 . S
C376 C379 1.511 . S
C377 C373 1.376 . S
C377 C376 1.392 . S
C377 H389 0.929 . S
C378 C374 1.531 . S
C378 H390 0.960 . S
C378 H391 0.962 . S
C378 H392 0.960 . S
C379 C376 1.511 . S
C379 H393 0.961 . S
C379 H394 0.961 . S
C379 H395 0.961 . S
C380 C381 1.370 . S
C380 C382 1.363 . S
C380 H396 0.931 . S
C381 C380 1.370 . S
C381 C385 1.408 . S
C382 C380 1.363 . S
C382 C383 1.370 . S
C382 C386 1.524 . S
C383 C375 1.503 . S
C383 C382 1.370 . S
C383 C384 1.403 . S
C384 C383 1.403 . S
C384 C385 1.404 . S
C384 C387 1.539 . S
C385 C381 1.408 . S
C385 C384 1.404 . S
C385 H397 0.930 . S
C386 C382 1.524 . S
C386 H398 0.956 . S
C386 H399 0.961 . S
C386 H400 0.961 . S
C387 C384 1.539 . S
C387 H401 0.958 . S
C387 H402 0.961 . S
C387 H403 0.960 . S
H388 C372 0.931 . S
H389 C377 0.929 . S
H390 C378 0.960 . S
H391 C378 0.962 . S
H392 C378 0.960 . S
H393 C379 0.961 . S
H394 C379 0.961 . S
H395 C379 0.961 . S
H396 C380 0.931 . S
H397 C385 0.930 . S
H398 C386 0.956 . S
H399 C386 0.961 . S
H400 C386 0.961 . S
H401 C387 0.958 . S
H402 C387 0.961 . S
H403 C387 0.960 . S
C404 C405 1.391 . S
C404 C406 1.394 1_556 S
C404 H420 0.931 . S
C405 C404 1.391 . S
C405 C409 1.376 . S
C406 C404 1.394 1_554 S
C406 C407 1.369 1_554 S
C406 C410 1.531 . S
C407 C406 1.369 1_556 S
C407 C408 1.410 . S
C407 C415 1.503 1_556 S
C408 C407 1.410 . S
C408 C409 1.392 . S
C408 C411 1.511 . S
C409 C405 1.376 . S
C409 C408 1.392 . S
C409 H421 0.929 . S
C410 C406 1.531 . S
C410 H422 0.960 . S
C410 H423 0.962 . S
C410 H424 0.960 . S
C411 C408 1.511 . S
C411 H425 0.961 . S
C411 H426 0.961 . S
C411 H427 0.961 . S
C412 C413 1.370 . S
C412 C414 1.363 . S
C412 H428 0.931 . S
C413 C412 1.370 . S
C413 C417 1.408 . S
C414 C412 1.363 . S
C414 C415 1.370 . S
C414 C418 1.524 . S
C415 C407 1.503 1_554 S
C415 C414 1.370 . S
C415 C416 1.403 . S
C416 C415 1.403 . S
C416 C417 1.404 . S
C416 C419 1.539 1_554 S
C417 C413 1.408 . S
C417 C416 1.404 . S
C417 H429 0.930 . S
C418 C414 1.524 . S
C418 H430 0.956 . S
C418 H431 0.961 . S
C418 H432 0.961 . S
C419 C416 1.539 1_556 S
C419 H433 0.958 . S
C419 H434 0.961 . S
C419 H435 0.960 . S
H420 C404 0.931 . S
H421 C409 0.929 . S
H422 C410 0.960 . S
H423 C410 0.962 . S
H424 C410 0.960 . S
H425 C411 0.961 . S
H426 C411 0.961 . S
H427 C411 0.961 . S
H428 C412 0.931 . S
H429 C417 0.930 . S
H430 C418 0.956 . S
H431 C418 0.961 . S
H432 C418 0.961 . S
H433 C419 0.958 . S
H434 C419 0.961 . S
H435 C419 0.960 . S
C436 C437 1.391 . S
C436 C438 1.394 . S
C436 H452 0.931 . S
C437 C436 1.391 . S
C437 C441 1.376 . S
C438 C436 1.394 . S
C438 C439 1.369 . S
C438 C442 1.531 . S
C439 C438 1.369 . S
C439 C440 1.410 . S
C439 C447 1.503 . S
C440 C439 1.410 . S
C440 C441 1.392 . S
C440 C443 1.511 . S
C441 C437 1.376 . S
C441 C440 1.392 . S
C441 H453 0.929 . S
C442 C438 1.531 . S
C442 H454 0.960 . S
C442 H455 0.962 . S
C442 H456 0.960 . S
C443 C440 1.511 . S
C443 H457 0.961 . S
C443 H458 0.961 . S
C443 H459 0.961 . S
C444 C445 1.370 . S
C444 C446 1.363 . S
C444 H460 0.931 . S
C445 C444 1.370 . S
C445 C449 1.408 . S
C446 C444 1.363 . S
C446 C447 1.370 . S
C446 C450 1.524 . S
C447 C439 1.503 . S
C447 C446 1.370 . S
C447 C448 1.403 . S
C448 C447 1.403 . S
C448 C449 1.404 . S
C448 C451 1.539 . S
C449 C445 1.408 . S
C449 C448 1.404 . S
C449 H461 0.930 . S
C450 C446 1.524 . S
C450 H462 0.956 . S
C450 H463 0.961 . S
C450 H464 0.961 . S
C451 C448 1.539 . S
C451 H465 0.958 . S
C451 H466 0.961 . S
C451 H467 0.960 . S
H452 C436 0.931 . S
H453 C441 0.929 . S
H454 C442 0.960 . S
H455 C442 0.962 . S
H456 C442 0.960 . S
H457 C443 0.961 . S
H458 C443 0.961 . S
H459 C443 0.961 . S
H460 C444 0.931 . S
H461 C449 0.930 . S
H462 C450 0.956 . S
H463 C450 0.961 . S
H464 C450 0.961 . S
H465 C451 0.958 . S
H466 C451 0.961 . S
H467 C451 0.960 . S
C468 C469 1.391 . S
C468 C470 1.394 . S
C468 H484 0.931 . S
C469 C468 1.391 . S
C469 C473 1.376 . S
C470 C468 1.394 . S
C470 C471 1.369 . S
C470 C474 1.531 . S
C471 C470 1.369 . S
C471 C472 1.410 . S
C471 C479 1.503 . S
C472 C471 1.410 . S
C472 C473 1.392 . S
C472 C475 1.511 . S
C473 C469 1.376 . S
C473 C472 1.392 . S
C473 H485 0.929 . S
C474 C470 1.531 . S
C474 H486 0.960 . S
C474 H487 0.962 . S
C474 H488 0.960 . S
C475 C472 1.511 . S
C475 H489 0.961 . S
C475 H490 0.961 . S
C475 H491 0.961 . S
C476 C477 1.370 . S
C476 C478 1.363 . S
C476 H492 0.931 . S
C477 C476 1.370 . S
C477 C481 1.408 . S
C478 C476 1.363 . S
C478 C479 1.370 . S
C478 C482 1.524 . S
C479 C471 1.503 . S
C479 C478 1.370 . S
C479 C480 1.403 . S
C480 C479 1.403 . S
C480 C481 1.404 . S
C480 C483 1.539 . S
C481 C477 1.408 . S
C481 C480 1.404 . S
C481 H493 0.930 . S
C482 C478 1.524 . S
C482 H494 0.956 . S
C482 H495 0.961 . S
C482 H496 0.961 . S
C483 C480 1.539 . S
C483 H497 0.958 . S
C483 H498 0.961 . S
C483 H499 0.960 . S
H484 C468 0.931 . S
H485 C473 0.929 . S
H486 C474 0.960 . S
H487 C474 0.962 . S
H488 C474 0.960 . S
H489 C475 0.961 . S
H490 C475 0.961 . S
H491 C475 0.961 . S
H492 C476 0.931 . S
H493 C481 0.930 . S
H494 C482 0.956 . S
H495 C482 0.961 . S
H496 C482 0.961 . S
H497 C483 0.958 . S
H498 C483 0.961 . S
H499 C483 0.960 . S
C500 C501 1.391 . S
C500 C502 1.394 . S
C500 H516 0.931 . S
C501 C500 1.391 . S
C501 C505 1.376 . S
C502 C500 1.394 . S
C502 C503 1.369 . S
C502 C506 1.531 . S
C503 C502 1.369 . S
C503 C504 1.410 . S
C503 C511 1.503 . S
C504 C503 1.410 . S
C504 C505 1.392 . S
C504 C507 1.511 . S
C505 C501 1.376 . S
C505 C504 1.392 . S
C505 H517 0.929 . S
C506 C502 1.531 . S
C506 H518 0.960 . S
C506 H519 0.962 . S
C506 H520 0.960 . S
C507 C504 1.511 . S
C507 H521 0.961 . S
C507 H522 0.961 . S
C507 H523 0.961 . S
C508 C509 1.370 . S
C508 C510 1.363 . S
C508 H524 0.931 . S
C509 C508 1.370 . S
C509 C513 1.408 . S
C510 C508 1.363 . S
C510 C511 1.370 . S
C510 C514 1.524 . S
C511 C503 1.503 . S
C511 C510 1.370 . S
C511 C512 1.403 . S
C512 C511 1.403 . S
C512 C513 1.404 . S
C512 C515 1.539 . S
C513 C509 1.408 . S
C513 C512 1.404 . S
C513 H525 0.930 . S
C514 C510 1.524 . S
C514 H526 0.956 . S
C514 H527 0.961 . S
C514 H528 0.961 . S
C515 C512 1.539 . S
C515 H529 0.958 . S
C515 H530 0.961 . S
C515 H531 0.960 . S
H516 C500 0.931 . S
H517 C505 0.929 . S
H518 C506 0.960 . S
H519 C506 0.962 . S
H520 C506 0.960 . S
H521 C507 0.961 . S
H522 C507 0.961 . S
H523 C507 0.961 . S
H524 C508 0.931 . S
H525 C513 0.930 . S
H526 C514 0.956 . S
H527 C514 0.961 . S
H528 C514 0.961 . S
H529 C515 0.958 . S
H530 C515 0.961 . S
H531 C515 0.960 . S
C532 C533 1.391 . S
C532 C534 1.394 . S
C532 H548 0.931 . S
C533 C532 1.391 . S
C533 C537 1.376 . S
C534 C532 1.394 . S
C534 C535 1.369 . S
C534 C538 1.531 . S
C535 C534 1.369 . S
C535 C536 1.410 . S
C535 C543 1.503 . S
C536 C535 1.410 . S
C536 C537 1.392 . S
C536 C539 1.511 . S
C537 C533 1.376 . S
C537 C536 1.392 . S
C537 H549 0.929 . S
C538 C534 1.531 . S
C538 H550 0.960 . S
C538 H551 0.962 . S
C538 H552 0.960 . S
C539 C536 1.511 . S
C539 H553 0.961 . S
C539 H554 0.961 . S
C539 H555 0.961 . S
C540 C541 1.370 . S
C540 C542 1.363 . S
C540 H556 0.931 . S
C541 C540 1.370 . S
C541 C545 1.408 . S
C542 C540 1.363 . S
C542 C543 1.370 . S
C542 C546 1.524 . S
C543 C535 1.503 . S
C543 C542 1.370 . S
C543 C544 1.403 . S
C544 C543 1.403 . S
C544 C545 1.404 . S
C544 C547 1.539 . S
C545 C541 1.408 . S
C545 C544 1.404 . S
C545 H557 0.930 . S
C546 C542 1.524 . S
C546 H558 0.956 . S
C546 H559 0.961 . S
C546 H560 0.961 . S
C547 C544 1.539 . S
C547 H561 0.958 . S
C547 H562 0.961 . S
C547 H563 0.960 . S
H548 C532 0.931 . S
H549 C537 0.929 . S
H550 C538 0.960 . S
H551 C538 0.962 . S
H552 C538 0.960 . S
H553 C539 0.961 . S
H554 C539 0.961 . S
H555 C539 0.961 . S
H556 C540 0.931 . S
H557 C545 0.930 . S
H558 C546 0.956 . S
H559 C546 0.961 . S
H560 C546 0.961 . S
H561 C547 0.958 . S
H562 C547 0.961 . S
H563 C547 0.960 . S
C564 C565 1.391 . S
C564 C566 1.394 . S
C564 H580 0.931 . S
C565 C564 1.391 . S
C565 C569 1.376 . S
C566 C564 1.394 . S
C566 C567 1.369 . S
C566 C570 1.531 . S
C567 C566 1.369 . S
C567 C568 1.410 . S
C567 C575 1.503 . S
C568 C567 1.410 . S
C568 C569 1.392 . S
C568 C571 1.511 . S
C569 C565 1.376 . S
C569 C568 1.392 . S
C569 H581 0.929 . S
C570 C566 1.531 . S
C570 H582 0.960 . S
C570 H583 0.962 . S
C570 H584 0.960 . S
C571 C568 1.511 . S
C571 H585 0.961 . S
C571 H586 0.961 . S
C571 H587 0.961 . S
C572 C573 1.370 . S
C572 C574 1.363 . S
C572 H588 0.931 . S
C573 C572 1.370 . S
C573 C577 1.408 . S
C574 C572 1.363 . S
C574 C575 1.370 . S
C574 C578 1.524 . S
C575 C567 1.503 . S
C575 C574 1.370 . S
C575 C576 1.403 . S
C576 C575 1.403 . S
C576 C577 1.404 . S
C576 C579 1.539 . S
C577 C573 1.408 . S
C577 C576 1.404 . S
C577 H589 0.929 . S
C578 C574 1.524 . S
C578 H590 0.956 . S
C578 H591 0.961 . S
C578 H592 0.961 . S
C579 C576 1.539 . S
C579 H593 0.958 . S
C579 H594 0.961 . S
C579 H595 0.960 . S
H580 C564 0.931 . S
H581 C569 0.929 . S
H582 C570 0.960 . S
H583 C570 0.962 . S
H584 C570 0.960 . S
H585 C571 0.961 . S
H586 C571 0.961 . S
H587 C571 0.961 . S
H588 C572 0.931 . S
H589 C577 0.929 . S
H590 C578 0.956 . S
H591 C578 0.961 . S
H592 C578 0.961 . S
H593 C579 0.958 . S
H594 C579 0.961 . S
H595 C579 0.960 . S
C596 C597 1.391 . S
C596 C598 1.394 . S
C596 H612 0.931 . S
C597 C596 1.391 . S
C597 C601 1.376 . S
C598 C596 1.394 . S
C598 C599 1.369 . S
C598 C602 1.531 . S
C599 C598 1.369 . S
C599 C600 1.410 . S
C599 C607 1.503 . S
C600 C599 1.410 . S
C600 C601 1.392 . S
C600 C603 1.511 . S
C601 C597 1.376 . S
C601 C600 1.392 . S
C601 H613 0.929 . S
C602 C598 1.531 . S
C602 H614 0.960 . S
C602 H615 0.962 . S
C602 H616 0.960 . S
C603 C600 1.511 . S
C603 H617 0.961 . S
C603 H618 0.961 . S
C603 H619 0.961 . S
C604 C605 1.370 . S
C604 C606 1.363 . S
C604 H620 0.931 . S
C605 C604 1.370 . S
C605 C609 1.408 . S
C606 C604 1.363 . S
C606 C607 1.370 . S
C606 C610 1.524 . S
C607 C599 1.503 . S
C607 C606 1.370 . S
C607 C608 1.403 . S
C608 C607 1.403 . S
C608 C609 1.404 . S
C608 C611 1.539 . S
C609 C605 1.408 . S
C609 C608 1.404 . S
C609 H621 0.930 . S
C610 C606 1.524 . S
C610 H622 0.956 . S
C610 H623 0.961 . S
C610 H624 0.961 . S
C611 C608 1.539 . S
C611 H625 0.958 . S
C611 H626 0.961 . S
C611 H627 0.960 . S
H612 C596 0.931 . S
H613 C601 0.929 . S
H614 C602 0.960 . S
H615 C602 0.962 . S
H616 C602 0.960 . S
H617 C603 0.961 . S
H618 C603 0.961 . S
H619 C603 0.961 . S
H620 C604 0.931 . S
H621 C609 0.930 . S
H622 C610 0.956 . S
H623 C610 0.961 . S
H624 C610 0.961 . S
H625 C611 0.958 . S
H626 C611 0.961 . S
H627 C611 0.960 . S
C628 C629 1.391 . S
C628 C630 1.394 . S
C628 H644 0.931 . S
C629 C628 1.391 . S
C629 C633 1.376 . S
C630 C628 1.394 . S
C630 C631 1.369 . S
C630 C634 1.531 . S
C631 C630 1.369 . S
C631 C632 1.410 . S
C631 C639 1.503 . S
C632 C631 1.410 . S
C632 C633 1.392 . S
C632 C635 1.511 . S
C633 C629 1.376 . S
C633 C632 1.392 . S
C633 H645 0.929 . S
C634 C630 1.531 . S
C634 H646 0.960 . S
C634 H647 0.962 . S
C634 H648 0.960 . S
C635 C632 1.511 . S
C635 H649 0.961 . S
C635 H650 0.961 . S
C635 H651 0.961 . S
C636 C637 1.370 . S
C636 C638 1.363 . S
C636 H652 0.931 . S
C637 C636 1.370 . S
C637 C641 1.408 . S
C638 C636 1.363 . S
C638 C639 1.370 . S
C638 C642 1.524 . S
C639 C631 1.503 . S
C639 C638 1.370 . S
C639 C640 1.403 . S
C640 C639 1.403 . S
C640 C641 1.404 . S
C640 C643 1.539 . S
C641 C637 1.408 . S
C641 C640 1.404 . S
C641 H653 0.930 . S
C642 C638 1.524 . S
C642 H654 0.956 . S
C642 H655 0.961 . S
C642 H656 0.961 . S
C643 C640 1.539 . S
C643 H657 0.958 . S
C643 H658 0.961 . S
C643 H659 0.960 . S
H644 C628 0.931 . S
H645 C633 0.929 . S
H646 C634 0.960 . S
H647 C634 0.962 . S
H648 C634 0.960 . S
H649 C635 0.961 . S
H650 C635 0.961 . S
H651 C635 0.961 . S
H652 C636 0.931 . S
H653 C641 0.930 . S
H654 C642 0.956 . S
H655 C642 0.961 . S
H656 C642 0.961 . S
H657 C643 0.958 . S
H658 C643 0.961 . S
H659 C643 0.960 . S
C660 C661 1.391 . S
C660 C662 1.394 . S
C660 H676 0.931 . S
C661 C660 1.391 . S
C661 C665 1.376 . S
C662 C660 1.394 . S
C662 C663 1.369 . S
C662 C666 1.531 . S
C663 C662 1.369 . S
C663 C664 1.410 . S
C663 C671 1.503 . S
C664 C663 1.410 . S
C664 C665 1.392 . S
C664 C667 1.511 . S
C665 C661 1.376 . S
C665 C664 1.392 . S
C665 H677 0.929 . S
C666 C662 1.531 . S
C666 H678 0.960 . S
C666 H679 0.962 . S
C666 H680 0.960 . S
C667 C664 1.511 . S
C667 H681 0.961 . S
C667 H682 0.961 . S
C667 H683 0.961 . S
C668 C669 1.370 . S
C668 C670 1.363 . S
C668 H684 0.931 . S
C669 C668 1.370 . S
C669 C673 1.408 . S
C670 C668 1.363 . S
C670 C671 1.370 . S
C670 C674 1.524 . S
C671 C663 1.503 . S
C671 C670 1.370 . S
C671 C672 1.403 . S
C672 C671 1.403 . S
C672 C673 1.404 . S
C672 C675 1.539 . S
C673 C669 1.408 . S
C673 C672 1.404 . S
C673 H685 0.930 . S
C674 C670 1.524 . S
C674 H686 0.956 . S
C674 H687 0.961 . S
C674 H688 0.961 . S
C675 C672 1.539 . S
C675 H689 0.958 . S
C675 H690 0.961 . S
C675 H691 0.960 . S
H676 C660 0.931 . S
H677 C665 0.929 . S
H678 C666 0.960 . S
H679 C666 0.962 . S
H680 C666 0.960 . S
H681 C667 0.961 . S
H682 C667 0.961 . S
H683 C667 0.961 . S
H684 C668 0.931 . S
H685 C673 0.930 . S
H686 C674 0.956 . S
H687 C674 0.961 . S
H688 C674 0.961 . S
H689 C675 0.958 . S
H690 C675 0.961 . S
H691 C675 0.960 . S
C692 C693 1.391 . S
C692 C694 1.394 . S
C692 H708 0.931 . S
C693 C692 1.391 . S
C693 C697 1.376 . S
C694 C692 1.394 . S
C694 C695 1.369 . S
C694 C698 1.531 . S
C695 C694 1.369 . S
C695 C696 1.410 . S
C695 C703 1.503 . S
C696 C695 1.410 . S
C696 C697 1.392 . S
C696 C699 1.511 . S
C697 C693 1.376 . S
C697 C696 1.392 . S
C697 H709 0.929 . S
C698 C694 1.531 . S
C698 H710 0.960 . S
C698 H711 0.962 . S
C698 H712 0.960 . S
C699 C696 1.511 . S
C699 H713 0.961 . S
C699 H714 0.961 . S
C699 H715 0.961 . S
C700 C701 1.370 . S
C700 C702 1.363 . S
C700 H716 0.931 . S
C701 C700 1.370 . S
C701 C705 1.408 . S
C702 C700 1.363 . S
C702 C703 1.370 . S
C702 C706 1.524 . S
C703 C695 1.503 . S
C703 C702 1.370 . S
C703 C704 1.403 . S
C704 C703 1.403 . S
C704 C705 1.404 . S
C704 C707 1.539 . S
C705 C701 1.408 . S
C705 C704 1.404 . S
C705 H717 0.930 . S
C706 C702 1.524 . S
C706 H718 0.956 . S
C706 H719 0.961 . S
C706 H720 0.961 . S
C707 C704 1.539 . S
C707 H721 0.958 . S
C707 H722 0.961 . S
C707 H723 0.960 . S
H708 C692 0.931 . S
H709 C697 0.929 . S
H710 C698 0.960 . S
H711 C698 0.962 . S
H712 C698 0.960 . S
H713 C699 0.961 . S
H714 C699 0.961 . S
H715 C699 0.961 . S
H716 C700 0.931 . S
H717 C705 0.930 . S
H718 C706 0.956 . S
H719 C706 0.961 . S
H720 C706 0.961 . S
H721 C707 0.958 . S
H722 C707 0.961 . S
H723 C707 0.960 . S
C724 C725 1.391 . S
C724 C726 1.394 . S
C724 H740 0.931 . S
C725 C724 1.391 . S
C725 C729 1.376 . S
C726 C724 1.394 . S
C726 C727 1.369 . S
C726 C730 1.531 . S
C727 C726 1.369 . S
C727 C728 1.410 . S
C727 C735 1.503 . S
C728 C727 1.410 . S
C728 C729 1.392 . S
C728 C731 1.511 . S
C729 C725 1.376 . S
C729 C728 1.392 . S
C729 H741 0.929 . S
C730 C726 1.531 . S
C730 H742 0.960 . S
C730 H743 0.962 . S
C730 H744 0.960 . S
C731 C728 1.511 . S
C731 H745 0.961 . S
C731 H746 0.961 . S
C731 H747 0.961 . S
C732 C733 1.370 . S
C732 C734 1.363 . S
C732 H748 0.931 . S
C733 C732 1.370 . S
C733 C737 1.408 . S
C734 C732 1.363 . S
C734 C735 1.370 . S
C734 C738 1.524 . S
C735 C727 1.503 . S
C735 C734 1.370 . S
C735 C736 1.403 . S
C736 C735 1.403 . S
C736 C737 1.404 . S
C736 C739 1.539 . S
C737 C733 1.408 . S
C737 C736 1.404 . S
C737 H749 0.930 . S
C738 C734 1.524 . S
C738 H750 0.956 . S
C738 H751 0.961 . S
C738 H752 0.961 . S
C739 C736 1.539 . S
C739 H753 0.958 . S
C739 H754 0.961 . S
C739 H755 0.960 . S
H740 C724 0.931 . S
H741 C729 0.929 . S
H742 C730 0.960 . S
H743 C730 0.962 . S
H744 C730 0.960 . S
H745 C731 0.961 . S
H746 C731 0.961 . S
H747 C731 0.961 . S
H748 C732 0.931 . S
H749 C737 0.930 . S
H750 C738 0.956 . S
H751 C738 0.961 . S
H752 C738 0.961 . S
H753 C739 0.958 . S
H754 C739 0.961 . S
H755 C739 0.960 . S
C756 C757 1.391 . S
C756 C758 1.394 . S
C756 H772 0.931 . S
C757 C756 1.391 . S
C757 C761 1.376 . S
C758 C756 1.394 . S
C758 C759 1.369 . S
C758 C762 1.531 . S
C759 C758 1.369 . S
C759 C760 1.410 . S
C759 C767 1.503 . S
C760 C759 1.410 . S
C760 C761 1.392 . S
C760 C763 1.511 . S
C761 C757 1.376 . S
C761 C760 1.392 . S
C761 H773 0.929 . S
C762 C758 1.531 . S
C762 H774 0.960 . S
C762 H775 0.962 . S
C762 H776 0.960 . S
C763 C760 1.511 . S
C763 H777 0.961 . S
C763 H778 0.961 . S
C763 H779 0.961 . S
C764 C765 1.370 . S
C764 C766 1.363 . S
C764 H780 0.931 . S
C765 C764 1.370 . S
C765 C769 1.408 . S
C766 C764 1.363 . S
C766 C767 1.370 . S
C766 C770 1.524 . S
C767 C759 1.503 . S
C767 C766 1.370 . S
C767 C768 1.403 . S
C768 C767 1.403 . S
C768 C769 1.404 . S
C768 C771 1.539 . S
C769 C765 1.408 . S
C769 C768 1.404 . S
C769 H781 0.930 . S
C770 C766 1.524 . S
C770 H782 0.956 . S
C770 H783 0.961 . S
C770 H784 0.961 . S
C771 C768 1.539 . S
C771 H785 0.958 . S
C771 H786 0.961 . S
C771 H787 0.960 . S
H772 C756 0.931 . S
H773 C761 0.929 . S
H774 C762 0.960 . S
H775 C762 0.962 . S
H776 C762 0.960 . S
H777 C763 0.961 . S
H778 C763 0.961 . S
H779 C763 0.961 . S
H780 C764 0.931 . S
H781 C769 0.930 . S
H782 C770 0.956 . S
H783 C770 0.961 . S
H784 C770 0.961 . S
H785 C771 0.958 . S
H786 C771 0.961 . S
H787 C771 0.960 . S
C788 C789 1.391 . S
C788 C790 1.394 . S
C788 H804 0.931 . S
C789 C788 1.391 . S
C789 C793 1.376 . S
C790 C788 1.394 . S
C790 C791 1.369 . S
C790 C794 1.531 . S
C791 C790 1.369 . S
C791 C792 1.410 . S
C791 C799 1.503 . S
C792 C791 1.410 . S
C792 C793 1.392 . S
C792 C795 1.511 . S
C793 C789 1.376 . S
C793 C792 1.392 . S
C793 H805 0.929 . S
C794 C790 1.531 . S
C794 H806 0.960 . S
C794 H807 0.962 . S
C794 H808 0.960 . S
C795 C792 1.511 . S
C795 H809 0.961 . S
C795 H810 0.961 . S
C795 H811 0.961 . S
C796 C797 1.370 . S
C796 C798 1.363 . S
C796 H812 0.931 . S
C797 C796 1.370 . S
C797 C801 1.408 . S
C798 C796 1.363 . S
C798 C799 1.370 . S
C798 C802 1.524 . S
C799 C791 1.503 . S
C799 C798 1.370 . S
C799 C800 1.403 . S
C800 C799 1.403 . S
C800 C801 1.404 . S
C800 C803 1.539 . S
C801 C797 1.408 . S
C801 C800 1.404 . S
C801 H813 0.930 . S
C802 C798 1.524 . S
C802 H814 0.956 . S
C802 H815 0.961 . S
C802 H816 0.961 . S
C803 C800 1.539 . S
C803 H817 0.958 . S
C803 H818 0.961 . S
C803 H819 0.960 . S
H804 C788 0.931 . S
H805 C793 0.929 . S
H806 C794 0.960 . S
H807 C794 0.962 . S
H808 C794 0.960 . S
H809 C795 0.961 . S
H810 C795 0.961 . S
H811 C795 0.961 . S
H812 C796 0.931 . S
H813 C801 0.930 . S
H814 C802 0.956 . S
H815 C802 0.961 . S
H816 C802 0.961 . S
H817 C803 0.958 . S
H818 C803 0.961 . S
H819 C803 0.960 . S
C820 C821 1.391 . S
C820 C822 1.394 . S
C820 H836 0.931 . S
C821 C820 1.391 . S
C821 C825 1.376 . S
C822 C820 1.394 . S
C822 C823 1.369 . S
C822 C826 1.531 . S
C823 C822 1.369 . S
C823 C824 1.410 . S
C823 C831 1.503 . S
C824 C823 1.410 . S
C824 C825 1.392 . S
C824 C827 1.511 . S
C825 C821 1.376 . S
C825 C824 1.392 . S
C825 H837 0.929 . S
C826 C822 1.531 . S
C826 H838 0.960 . S
C826 H839 0.962 . S
C826 H840 0.960 . S
C827 C824 1.511 . S
C827 H841 0.961 . S
C827 H842 0.961 . S
C827 H843 0.961 . S
C828 C829 1.370 . S
C828 C830 1.363 . S
C828 H844 0.931 . S
C829 C828 1.370 . S
C829 C833 1.408 . S
C830 C828 1.363 . S
C830 C831 1.370 . S
C830 C834 1.524 . S
C831 C823 1.503 . S
C831 C830 1.370 . S
C831 C832 1.403 . S
C832 C831 1.403 . S
C832 C833 1.404 . S
C832 C835 1.539 . S
C833 C829 1.408 . S
C833 C832 1.404 . S
C833 H845 0.930 . S
C834 C830 1.524 . S
C834 H846 0.956 . S
C834 H847 0.961 . S
C834 H848 0.961 . S
C835 C832 1.539 . S
C835 H849 0.958 . S
C835 H850 0.961 . S
C835 H851 0.960 . S
H836 C820 0.931 . S
H837 C825 0.929 . S
H838 C826 0.960 . S
H839 C826 0.962 . S
H840 C826 0.960 . S
H841 C827 0.961 . S
H842 C827 0.961 . S
H843 C827 0.961 . S
H844 C828 0.931 . S
H845 C833 0.930 . S
H846 C834 0.956 . S
H847 C834 0.961 . S
H848 C834 0.961 . S
H849 C835 0.958 . S
H850 C835 0.961 . S
H851 C835 0.960 . S
C852 C853 1.391 . S
C852 C854 1.394 . S
C852 H868 0.931 . S
C853 C852 1.391 . S
C853 C857 1.376 . S
C854 C852 1.394 . S
C854 C855 1.369 . S
C854 C858 1.531 . S
C855 C854 1.369 . S
C855 C856 1.410 . S
C855 C863 1.503 . S
C856 C855 1.410 . S
C856 C857 1.392 . S
C856 C859 1.511 . S
C857 C853 1.376 . S
C857 C856 1.392 . S
C857 H869 0.929 . S
C858 C854 1.531 . S
C858 H870 0.960 . S
C858 H871 0.962 . S
C858 H872 0.960 . S
C859 C856 1.511 . S
C859 H873 0.961 . S
C859 H874 0.961 . S
C859 H875 0.961 . S
C860 C861 1.370 1_556 S
C860 C862 1.363 . S
C860 H876 0.931 . S
C861 C860 1.370 1_554 S
C861 C865 1.408 . S
C862 C860 1.363 . S
C862 C863 1.370 . S
C862 C866 1.524 . S
C863 C855 1.503 . S
C863 C862 1.370 . S
C863 C864 1.403 . S
C864 C863 1.403 . S
C864 C865 1.404 1_556 S
C864 C867 1.539 . S
C865 C861 1.408 . S
C865 C864 1.404 1_554 S
C865 H877 0.930 . S
C866 C862 1.524 . S
C866 H878 0.956 . S
C866 H879 0.961 . S
C866 H880 0.961 . S
C867 C864 1.539 . S
C867 H881 0.958 . S
C867 H882 0.961 1_556 S
C867 H883 0.960 . S
H868 C852 0.931 . S
H869 C857 0.929 . S
H870 C858 0.960 . S
H871 C858 0.962 . S
H872 C858 0.960 . S
H873 C859 0.961 . S
H874 C859 0.961 . S
H875 C859 0.961 . S
H876 C860 0.931 . S
H877 C865 0.930 . S
H878 C866 0.956 . S
H879 C866 0.961 . S
H880 C866 0.961 . S
H881 C867 0.958 . S
H882 C867 0.961 1_554 S
H883 C867 0.960 . S
C884 C885 1.391 . S
C884 C886 1.394 . S
C884 H900 0.931 . S
C885 C884 1.391 . S
C885 C889 1.376 . S
C886 C884 1.394 . S
C886 C887 1.369 . S
C886 C890 1.531 . S
C887 C886 1.369 . S
C887 C888 1.410 . S
C887 C895 1.503 . S
C888 C887 1.410 . S
C888 C889 1.392 . S
C888 C891 1.511 . S
C889 C885 1.376 . S
C889 C888 1.392 . S
C889 H901 0.929 . S
C890 C886 1.531 . S
C890 H902 0.960 . S
C890 H903 0.962 . S
C890 H904 0.960 . S
C891 C888 1.511 . S
C891 H905 0.961 . S
C891 H906 0.961 . S
C891 H907 0.961 . S
C892 C893 1.370 . S
C892 C894 1.363 . S
C892 H908 0.931 . S
C893 C892 1.370 . S
C893 C897 1.408 . S
C894 C892 1.363 . S
C894 C895 1.370 . S
C894 C898 1.524 . S
C895 C887 1.503 . S
C895 C894 1.370 . S
C895 C896 1.403 . S
C896 C895 1.403 . S
C896 C897 1.404 . S
C896 C899 1.539 . S
C897 C893 1.408 . S
C897 C896 1.404 . S
C897 H909 0.930 . S
C898 C894 1.524 . S
C898 H910 0.956 . S
C898 H911 0.961 . S
C898 H912 0.961 . S
C899 C896 1.539 . S
C899 H913 0.958 . S
C899 H914 0.961 . S
C899 H915 0.960 . S
H900 C884 0.931 . S
H901 C889 0.929 . S
H902 C890 0.960 . S
H903 C890 0.962 . S
H904 C890 0.960 . S
H905 C891 0.961 . S
H906 C891 0.961 . S
H907 C891 0.961 . S
H908 C892 0.931 . S
H909 C897 0.930 . S
H910 C898 0.956 . S
H911 C898 0.961 . S
H912 C898 0.961 . S
H913 C899 0.958 . S
H914 C899 0.961 . S
H915 C899 0.960 . S
C916 C917 1.391 . S
C916 C918 1.394 . S
C916 H932 0.931 . S
C917 C916 1.391 . S
C917 C921 1.376 . S
C918 C916 1.394 . S
C918 C919 1.369 . S
C918 C922 1.531 . S
C919 C918 1.369 . S
C919 C920 1.410 . S
C919 C927 1.503 . S
C920 C919 1.410 . S
C920 C921 1.392 . S
C920 C923 1.511 . S
C921 C917 1.376 . S
C921 C920 1.392 . S
C921 H933 0.929 . S
C922 C918 1.531 . S
C922 H934 0.960 . S
C922 H935 0.962 . S
C922 H936 0.960 . S
C923 C920 1.511 . S
C923 H937 0.961 . S
C923 H938 0.961 . S
C923 H939 0.961 . S
C924 C925 1.370 . S
C924 C926 1.363 . S
C924 H940 0.931 . S
C925 C924 1.370 . S
C925 C929 1.408 . S
C926 C924 1.363 . S
C926 C927 1.370 . S
C926 C930 1.524 . S
C927 C919 1.503 . S
C927 C926 1.370 . S
C927 C928 1.403 . S
C928 C927 1.403 . S
C928 C929 1.404 . S
C928 C931 1.539 . S
C929 C925 1.408 . S
C929 C928 1.404 . S
C929 H941 0.930 . S
C930 C926 1.524 . S
C930 H942 0.956 . S
C930 H943 0.961 . S
C930 H944 0.961 . S
C931 C928 1.539 . S
C931 H945 0.958 . S
C931 H946 0.961 . S
C931 H947 0.960 . S
H932 C916 0.931 . S
H933 C921 0.929 . S
H934 C922 0.960 . S
H935 C922 0.962 . S
H936 C922 0.960 . S
H937 C923 0.961 . S
H938 C923 0.961 . S
H939 C923 0.961 . S
H940 C924 0.931 . S
H941 C929 0.930 . S
H942 C930 0.956 . S
H943 C930 0.961 . S
H944 C930 0.961 . S
H945 C931 0.958 . S
H946 C931 0.961 . S
H947 C931 0.960 . S
C189 C108 1.559 . S
C181 C6 1.565 . S
C221 C111 1.591 . S
C213 C18 1.608 . S
C253 C109 1.536 . S
C245 C28 1.541 . S
C285 C110 1.655 1_655 S
C277 C45 1.664 . S
C317 C125 1.410 . S
C309 C4 1.413 . S
C349 C139 1.622 . S
C341 C21 1.608 . S
C373 C33 1.655 . S
C381 C165 1.690 . S
C413 C179 1.692 . S
C405 C40 1.673 . S
C445 C124 1.541 . S
C437 C16 1.498 . S
C469 C30 1.602 . S
C477 C138 1.593 . S
C509 C164 1.660 . S
C501 C42 1.643 . S
C541 C178 1.685 . S
C533 C9 1.708 . S
C565 C52 1.656 . S
C573 C123 1.651 1_655 S
C605 C96 1.711 . S
C597 C69 1.673 . S
C629 C78 1.551 . S
C637 C122 1.535 . S
C661 C93 1.306 . S
C669 C97 1.352 . S
C701 C152 1.738 . S
C693 C57 1.715 . S
C733 C166 1.733 . S
C725 C66 1.742 . S
C765 C136 1.433 . S
C757 C76 1.431 . S
C789 C88 1.407 . S
C797 C150 1.393 . S
C829 C153 1.663 . S
C821 C64 1.656 . S
C861 C167 1.643 . S
C853 C81 1.629 . S
C893 C137 1.337 . S
C885 C90 1.354 . S
C917 C54 1.591 . S
C925 C151 1.596 . S
