# Generated by pormake.
# Topology pyr, (3,6)-cn, num edge types: 1
# Building blocks:
#     Node 0, Type 0, BuildingBlock: MIDCAF_clean_linker_0, # of connection points: 3
#     Node 1, Type 0, BuildingBlock: MIDCAF_clean_linker_0, # of connection points: 3
#     Node 2, Type 0, BuildingBlock: MIDCAF_clean_linker_0, # of connection points: 3
#     Node 3, Type 0, BuildingBlock: MIDCAF_clean_linker_0, # of connection points: 3
#     Node 4, Type 0, BuildingBlock: MIDCAF_clean_linker_0, # of connection points: 3
#     Node 5, Type 0, BuildingBlock: MIDCAF_clean_linker_0, # of connection points: 3
#     Node 6, Type 0, BuildingBlock: MIDCAF_clean_linker_0, # of connection points: 3
#     Node 7, Type 0, BuildingBlock: MIDCAF_clean_linker_0, # of connection points: 3
#     Node 8, Type 1, BuildingBlock: JUFBIX_clean_sbu_0, # of connection points: 6
#     Node 9, Type 1, BuildingBlock: JUFBIX_clean_sbu_0, # of connection points: 6
#     Node 10, Type 1, BuildingBlock: JUFBIX_clean_sbu_0, # of connection points: 6
#     Node 11, Type 1, BuildingBlock: JUFBIX_clean_sbu_0, # of connection points: 6
#     Edge 12, Type (0, 1), BuildingBlock: ZUJKAS_clean_linker_0, # of connection points: 2
#     Edge 13, Type (0, 1), BuildingBlock: ZUJKAS_clean_linker_0, # of connection points: 2
#     Edge 14, Type (0, 1), BuildingBlock: ZUJKAS_clean_linker_0, # of connection points: 2
#     Edge 15, Type (0, 1), BuildingBlock: ZUJKAS_clean_linker_0, # of connection points: 2
#     Edge 16, Type (0, 1), BuildingBlock: ZUJKAS_clean_linker_0, # of connection points: 2
#     Edge 17, Type (0, 1), BuildingBlock: ZUJKAS_clean_linker_0, # of connection points: 2
#     Edge 18, Type (0, 1), BuildingBlock: ZUJKAS_clean_linker_0, # of connection points: 2
#     Edge 19, Type (0, 1), BuildingBlock: ZUJKAS_clean_linker_0, # of connection points: 2
#     Edge 20, Type (0, 1), BuildingBlock: ZUJKAS_clean_linker_0, # of connection points: 2
#     Edge 21, Type (0, 1), BuildingBlock: ZUJKAS_clean_linker_0, # of connection points: 2
#     Edge 22, Type (0, 1), BuildingBlock: ZUJKAS_clean_linker_0, # of connection points: 2
#     Edge 23, Type (0, 1), BuildingBlock: ZUJKAS_clean_linker_0, # of connection points: 2
#     Edge 24, Type (0, 1), BuildingBlock: ZUJKAS_clean_linker_0, # of connection points: 2
#     Edge 25, Type (0, 1), BuildingBlock: ZUJKAS_clean_linker_0, # of connection points: 2
#     Edge 26, Type (0, 1), BuildingBlock: ZUJKAS_clean_linker_0, # of connection points: 2
#     Edge 27, Type (0, 1), BuildingBlock: ZUJKAS_clean_linker_0, # of connection points: 2
#     Edge 28, Type (0, 1), BuildingBlock: ZUJKAS_clean_linker_0, # of connection points: 2
#     Edge 29, Type (0, 1), BuildingBlock: ZUJKAS_clean_linker_0, # of connection points: 2
#     Edge 30, Type (0, 1), BuildingBlock: ZUJKAS_clean_linker_0, # of connection points: 2
#     Edge 31, Type (0, 1), BuildingBlock: ZUJKAS_clean_linker_0, # of connection points: 2
#     Edge 32, Type (0, 1), BuildingBlock: ZUJKAS_clean_linker_0, # of connection points: 2
#     Edge 33, Type (0, 1), BuildingBlock: ZUJKAS_clean_linker_0, # of connection points: 2
#     Edge 34, Type (0, 1), BuildingBlock: ZUJKAS_clean_linker_0, # of connection points: 2
#     Edge 35, Type (0, 1), BuildingBlock: ZUJKAS_clean_linker_0, # of connection points: 2
# Relax obj value: 0.035
# Max RMSD: 0.087
# Mean RMSD: 0.029
data_MOF--net-pry--node1-JUFBIX_clean_sbu_0--node2-MIDCAF_clean_linker_0--edge1-ZUJKAS_clean_linker_0
_symmetry_space_group_name_H-M    P1
_symmetry_Int_Tables_number       1
_symmetry_cell_setting            triclinic
loop_
_symmetry_equiv_pos_as_xyz
'x, y, z'
_cell_length_a     56.826524
_cell_length_b     54.509558
_cell_length_c     56.662665
_cell_angle_alpha  86.530639
_cell_angle_beta   90.271168
_cell_angle_gamma 91.68554
loop_
_atom_site_label
_atom_site_type_symbol
_atom_site_fract_x
_atom_site_fract_y
_atom_site_fract_z
_atom_type_partial_charge
C0 C 0.13308 0.14213 0.23798 0.0
C1 C 0.14327 0.12209 0.25063 0.0
C2 C 0.16421 0.1129 0.24187 0.0
C3 C 0.17456 0.12335 0.22099 0.0
H4 H 0.23252 0.11923 0.17611 0.0
H5 H 0.26775 0.10243 0.1596 0.0
H6 H 0.26187 0.15241 0.09793 0.0
H7 H 0.22653 0.16906 0.11424 0.0
H8 H 0.19043 0.21387 0.1156 0.0
H9 H 0.17212 0.24981 0.09644 0.0
H10 H 0.11399 0.24073 0.14534 0.0
H11 H 0.13252 0.20536 0.16485 0.0
H12 H 0.13494 0.16801 0.20811 0.0
H13 H 0.1172 0.15002 0.2443 0.0
H14 H 0.17247 0.09734 0.25094 0.0
H15 H 0.19059 0.11565 0.21479 0.0
N16 N 0.195 0.14552 0.17695 0.0
N17 N 0.19432 0.17551 0.14535 0.0
N18 N 0.16503 0.17429 0.17446 0.0
C19 C 0.20474 0.1558 0.15657 0.0
C20 C 0.17445 0.18491 0.15416 0.0
C21 C 0.1751 0.15463 0.18603 0.0
C22 C 0.22649 0.14557 0.14659 0.0
C23 C 0.23867 0.12668 0.15902 0.0
C24 C 0.25903 0.11711 0.14959 0.0
C25 C 0.26776 0.126 0.12737 0.0
C26 C 0.25557 0.14485 0.11494 0.0
C27 C 0.2353 0.15454 0.12442 0.0
C28 C 0.1631 0.20661 0.14192 0.0
C29 C 0.17374 0.2195 0.12229 0.0
C30 C 0.16313 0.24011 0.11117 0.0
C31 C 0.14152 0.2484 0.1193 0.0
C32 C 0.13081 0.23531 0.13877 0.0
C33 C 0.14143 0.21481 0.14993 0.0
C34 C 0.1643 0.14336 0.20832 0.0
C35 C 0.14342 0.15259 0.21719 0.0
C36 C 0.33059 0.91678 0.60014 0.0
C37 C 0.31669 0.90097 0.58675 0.0
C38 C 0.32669 0.87976 0.57872 0.0
C39 C 0.34988 0.87409 0.58454 0.0
H40 H 0.39424 0.81929 0.58211 0.0
H41 H 0.40597 0.77813 0.57439 0.0
H42 H 0.46892 0.78791 0.61614 0.0
H43 H 0.45732 0.82949 0.62391 0.0
H44 H 0.45589 0.87262 0.66119 0.0
H45 H 0.47098 0.89315 0.69535 0.0
H46 H 0.42828 0.95567 0.67645 0.0
H47 H 0.4127 0.93494 0.64265 0.0
H48 H 0.36377 0.92336 0.61688 0.0
H49 H 0.3233 0.93317 0.60673 0.0
H50 H 0.31652 0.86744 0.56805 0.0
H51 H 0.35683 0.85734 0.57837 0.0
N52 N 0.39589 0.86041 0.60068 0.0
N53 N 0.42892 0.86607 0.62487 0.0
N54 N 0.39976 0.89573 0.62199 0.0
C55 C 0.41668 0.85228 0.60952 0.0
C56 C 0.42063 0.88793 0.63106 0.0
C57 C 0.3873 0.88208 0.60676 0.0
C58 C 0.42477 0.82775 0.60378 0.0
C59 C 0.41065 0.81285 0.58964 0.0
C60 C 0.41727 0.78914 0.58531 0.0
C61 C 0.4382 0.77974 0.59489 0.0
C62 C 0.4527 0.79475 0.6085 0.0
C63 C 0.44601 0.81853 0.61298 0.0
C64 C 0.43274 0.90192 0.64941 0.0
C65 C 0.45 0.89092 0.66406 0.0
C66 C 0.45877 0.90276 0.68361 0.0
C67 C 0.45058 0.92591 0.68882 0.0
C68 C 0.43455 0.9376 0.67322 0.0
C69 C 0.42568 0.92573 0.65379 0.0
C70 C 0.36357 0.88945 0.59863 0.0
C71 C 0.35377 0.91108 0.60603 0.0
C72 C 0.65535 0.27677 0.89091 0.0
C73 C 0.63164 0.27133 0.88575 0.0
C74 C 0.61916 0.28776 0.87071 0.0
C75 C 0.63022 0.3092 0.86089 0.0
H76 H 0.62951 0.35568 0.80094 0.0
H77 H 0.6137 0.37525 0.76497 0.0
H78 H 0.66586 0.43423 0.76822 0.0
H79 H 0.68219 0.4143 0.80415 0.0
H80 H 0.71887 0.41283 0.84817 0.0
H81 H 0.75339 0.42927 0.8684 0.0
H82 H 0.7549 0.36325 0.91445 0.0
H83 H 0.72074 0.34665 0.89422 0.0
H84 H 0.68458 0.30216 0.88583 0.0
H85 H 0.6653 0.26446 0.90259 0.0
H86 H 0.60089 0.28388 0.86637 0.0
H87 H 0.62012 0.32151 0.84934 0.0
N88 N 0.65654 0.3498 0.83666 0.0
N89 N 0.6866 0.38014 0.83796 0.0
N90 N 0.68511 0.34711 0.86652 0.0
C91 C 0.66701 0.3709 0.82731 0.0
C92 C 0.69574 0.36832 0.85762 0.0
C93 C 0.66548 0.33779 0.85621 0.0
C94 C 0.65718 0.38337 0.80556 0.0
C95 C 0.63767 0.37285 0.79412 0.0
C96 C 0.62845 0.38418 0.77349 0.0
C97 C 0.63841 0.4064 0.76374 0.0
C98 C 0.65791 0.41699 0.77514 0.0
C99 C 0.66719 0.40562 0.79582 0.0
C100 C 0.71695 0.37839 0.86952 0.0
C101 C 0.72659 0.40176 0.86255 0.0
C102 C 0.74629 0.41127 0.87424 0.0
C103 C 0.75687 0.39756 0.89303 0.0
C104 C 0.74732 0.37416 0.89987 0.0
C105 C 0.72761 0.36472 0.88832 0.0
C106 C 0.65388 0.31485 0.86625 0.0
C107 C 0.66631 0.29842 0.88141 0.0
C108 C 0.84879 0.6083 0.46068 0.0
C109 C 0.83535 0.58939 0.45082 0.0
C110 C 0.84282 0.58028 0.42951 0.0
C111 C 0.86246 0.59075 0.41766 0.0
H112 H 0.88957 0.59581 0.35192 0.0
H113 H 0.89174 0.5884 0.31014 0.0
H114 H 0.9409 0.64999 0.29941 0.0
H115 H 0.93917 0.65719 0.34136 0.0
H116 H 0.95588 0.68609 0.38491 0.0
H117 H 0.97569 0.7223 0.39955 0.0
H118 H 0.94152 0.70821 0.46714 0.0
H119 H 0.92129 0.67217 0.45245 0.0
H120 H 0.87798 0.63389 0.45651 0.0
H121 H 0.84365 0.61551 0.47723 0.0
H122 H 0.83275 0.56592 0.42127 0.0
H123 H 0.86714 0.58379 0.40085 0.0
N124 N 0.89665 0.61886 0.3895 0.0
N125 N 0.92559 0.65021 0.38479 0.0
N126 N 0.90713 0.6422 0.42152 0.0
C127 C 0.91242 0.63193 0.37551 0.0
C128 C 0.92315 0.6554 0.40781 0.0
C129 C 0.89389 0.62379 0.41251 0.0
C130 C 0.91423 0.6271 0.35011 0.0
C131 C 0.9009 0.6078 0.34073 0.0
C132 C 0.90197 0.60365 0.31669 0.0
C133 C 0.91639 0.61868 0.3014 0.0
C134 C 0.92979 0.63792 0.31075 0.0
C135 C 0.92874 0.64208 0.33482 0.0
C136 C 0.93676 0.67626 0.4174 0.0
C137 C 0.95267 0.69053 0.40297 0.0
C138 C 0.9642 0.71125 0.41141 0.0
C139 C 0.96011 0.71822 0.43448 0.0
C140 C 0.9448 0.70353 0.44916 0.0
C141 C 0.93327 0.68279 0.44074 0.0
C142 C 0.87516 0.6106 0.42681 0.0
C143 C 0.86853 0.61877 0.44883 0.0
C144 C 0.7632 0.89695 0.8628 0.0
C145 C 0.75474 0.88795 0.88509 0.0
C146 C 0.76703 0.86899 0.89724 0.0
C147 C 0.78714 0.85934 0.88744 0.0
H148 H 0.83186 0.80042 0.89596 0.0
H149 H 0.85032 0.76477 0.91542 0.0
H150 H 0.90808 0.77319 0.86603 0.0
H151 H 0.88936 0.80831 0.8462 0.0
H152 H 0.88647 0.84562 0.80261 0.0
H153 H 0.90384 0.86344 0.76616 0.0
H154 H 0.84873 0.91634 0.76006 0.0
H155 H 0.83098 0.89819 0.79647 0.0
H156 H 0.78938 0.89493 0.8359 0.0
H157 H 0.75439 0.91171 0.85299 0.0
H158 H 0.76093 0.86133 0.91428 0.0
H159 H 0.79599 0.84473 0.89742 0.0
N160 N 0.82783 0.83848 0.86608 0.0
N161 N 0.8568 0.83955 0.83667 0.0
N162 N 0.82685 0.86838 0.83442 0.0
C163 C 0.84757 0.82902 0.8571 0.0
C164 C 0.84663 0.85919 0.82514 0.0
C165 C 0.81732 0.85816 0.85493 0.0
C166 C 0.859 0.80737 0.86937 0.0
C167 C 0.8485 0.7947 0.88921 0.0
C168 C 0.8592 0.77425 0.90051 0.0
C169 C 0.88077 0.76588 0.89238 0.0
C170 C 0.89131 0.77868 0.87263 0.0
C171 C 0.88058 0.79904 0.86129 0.0
C172 C 0.85722 0.87038 0.8027 0.0
C173 C 0.87795 0.86105 0.79359 0.0
C174 C 0.88807 0.87142 0.77265 0.0
C175 C 0.87783 0.89147 0.76006 0.0
C176 C 0.85703 0.90077 0.76907 0.0
C177 C 0.8469 0.89041 0.7901 0.0
C178 C 0.79571 0.86841 0.8652 0.0
C179 C 0.78342 0.88739 0.85303 0.0
C180 C 0.58284 0.06488 0.34449 0.0
C181 C 0.5681 0.07763 0.32831 0.0
C182 C 0.56056 0.10101 0.33356 0.0
C183 C 0.56844 0.11185 0.35401 0.0
H184 H 0.55858 0.17127 0.39958 0.0
H185 H 0.54876 0.21326 0.40762 0.0
H186 H 0.61655 0.22313 0.44127 0.0
H187 H 0.62585 0.18114 0.43419 0.0
H188 H 0.64818 0.132 0.45679 0.0
H189 H 0.68486 0.11748 0.47404 0.0
H190 H 0.68331 0.05728 0.42781 0.0
H191 H 0.64637 0.07146 0.41077 0.0
H192 H 0.60257 0.06555 0.37661 0.0
H193 H 0.58862 0.04665 0.34116 0.0
H194 H 0.54937 0.11142 0.32138 0.0
H195 H 0.56288 0.13023 0.35707 0.0
N196 N 0.58802 0.13504 0.39465 0.0
N197 N 0.61687 0.13651 0.42427 0.0
N198 N 0.61263 0.10162 0.40235 0.0
C199 C 0.59905 0.14731 0.41193 0.0
C200 C 0.62371 0.11366 0.41972 0.0
C201 C 0.5947 0.11212 0.38979 0.0
C202 C 0.59289 0.17278 0.41643 0.0
C203 C 0.57132 0.18244 0.40875 0.0
C204 C 0.56577 0.20656 0.41322 0.0
C205 C 0.58181 0.2216 0.42522 0.0
C206 C 0.60352 0.21196 0.43251 0.0
C207 C 0.60891 0.18784 0.42833 0.0
C208 C 0.64443 0.10309 0.43213 0.0
C209 C 0.65546 0.11548 0.45045 0.0
C210 C 0.67655 0.10722 0.46032 0.0
C211 C 0.68712 0.0864 0.45212 0.0
C212 C 0.67552 0.07328 0.43466 0.0
C213 C 0.65438 0.08151 0.42479 0.0
C214 C 0.5841 0.09957 0.36962 0.0
C215 C 0.59076 0.07571 0.36488 0.0
C216 C 0.27372 0.60244 0.14029 0.0
C217 C 0.26713 0.61256 0.11789 0.0
C218 C 0.28087 0.63202 0.10734 0.0
C219 C 0.30061 0.64132 0.11895 0.0
H220 H 0.3438 0.70275 0.11838 0.0
H221 H 0.36321 0.74036 0.10217 0.0
H222 H 0.41967 0.73054 0.15292 0.0
H223 H 0.39995 0.69331 0.16963 0.0
H224 H 0.3912 0.65667 0.21317 0.0
H225 H 0.40621 0.63772 0.24977 0.0
H226 H 0.35493 0.57802 0.24578 0.0
H227 H 0.33939 0.59731 0.20915 0.0
H228 H 0.29813 0.60348 0.16915 0.0
H229 H 0.26359 0.58728 0.1488 0.0
H230 H 0.2761 0.64043 0.09024 0.0
H231 H 0.31063 0.65646 0.11026 0.0
N232 N 0.33921 0.66241 0.14455 0.0
N233 N 0.36605 0.66105 0.176 0.0
N234 N 0.33605 0.63069 0.17437 0.0
C235 C 0.35823 0.67223 0.15552 0.0
C236 C 0.35511 0.64032 0.18559 0.0
C237 C 0.32802 0.64166 0.15377 0.0
C238 C 0.37025 0.69496 0.14536 0.0
C239 C 0.36036 0.70856 0.1261 0.0
C240 C 0.37158 0.7301 0.11669 0.0
C241 C 0.39304 0.7385 0.1262 0.0
C242 C 0.40299 0.72483 0.14538 0.0
C243 C 0.39171 0.70336 0.15489 0.0
C244 C 0.36407 0.62852 0.20806 0.0
C245 C 0.38304 0.63949 0.21998 0.0
C246 C 0.3918 0.62852 0.24097 0.0
C247 C 0.38192 0.60623 0.25064 0.0
C248 C 0.36282 0.59529 0.23889 0.0
C249 C 0.35399 0.60631 0.21782 0.0
C250 C 0.30721 0.63133 0.14142 0.0
C251 C 0.29359 0.61167 0.1519 0.0
C252 C 0.07625 0.3092 0.56382 0.0
C253 C 0.06086 0.29412 0.57807 0.0
C254 C 0.0572 0.29999 0.60155 0.0
C255 C 0.06907 0.3201 0.61075 0.0
H256 H 0.08091 0.35264 0.67308 0.0
H257 H 0.07884 0.3587 0.71528 0.0
H258 H 0.13042 0.41835 0.70695 0.0
H259 H 0.13287 0.41215 0.66495 0.0
H260 H 0.14744 0.43191 0.6121 0.0
H261 H 0.1816 0.45218 0.59296 0.0
H262 H 0.18411 0.39422 0.54433 0.0
H263 H 0.14939 0.37435 0.563 0.0
H264 H 0.10009 0.34034 0.56159 0.0
H265 H 0.07922 0.30536 0.54556 0.0
H266 H 0.0457 0.28859 0.61311 0.0
H267 H 0.06609 0.32374 0.62906 0.0
N268 N 0.096 0.35977 0.63014 0.0
N269 N 0.12455 0.39158 0.62631 0.0
N270 N 0.1145 0.36905 0.5936 0.0
C271 C 0.10894 0.37788 0.63996 0.0
C272 C 0.12743 0.38735 0.60316 0.0
C273 C 0.09857 0.3553 0.60695 0.0
C274 C 0.10704 0.3819 0.66552 0.0
C275 C 0.09181 0.36707 0.6802 0.0
C276 C 0.09058 0.37056 0.70441 0.0
C277 C 0.10455 0.38892 0.71448 0.0
C278 C 0.11973 0.40376 0.69982 0.0
C279 C 0.12096 0.40031 0.67565 0.0
C280 C 0.14593 0.40132 0.5893 0.0
C281 C 0.15506 0.42366 0.5971 0.0
C282 C 0.17471 0.43525 0.58618 0.0
C283 C 0.18588 0.42461 0.56739 0.0
C284 C 0.17588 0.40302 0.55866 0.0
C285 C 0.15602 0.39155 0.56945 0.0
C286 C 0.08494 0.33485 0.5967 0.0
C287 C 0.08814 0.32934 0.57301 0.0
Co288 Co 0.9922 0.00941 0.49598 0.0
C289 C 0.01289 0.9637 0.49259 0.0
Co290 Co 0.02657 0.00566 0.51379 0.0
C291 C 0.94285 0.01836 0.48838 0.0
C292 C 0.95911 1.00348 0.4586 0.0
N293 N 0.9636 0.01067 0.48055 0.0
N294 N 0.92552 0.01621 0.47216 0.0
C295 C 0.93577 0.00688 0.45338 0.0
H296 H 0.94051 0.0251 0.50577 0.0
H297 H 0.97201 0.99622 0.44712 0.0
C298 C 1.0055 0.05135 0.51714 0.0
N299 N 0.05565 0.00468 0.52879 0.0
C300 C 0.06779 0.98506 0.5372 0.0
C301 C 0.07013 0.02427 0.53206 0.0
N302 N 0.08918 0.99172 0.54558 0.0
C303 C 0.09062 0.01639 0.54244 0.0
C304 C 0.03008 0.02399 0.46666 0.0
O305 O 0.98916 0.04227 0.50472 0.0
O306 O 0.02294 0.03827 0.52303 0.0
O307 O 0.04186 0.01814 0.48519 0.0
O308 O 0.00776 0.0215 0.46741 0.0
O309 O 0.02963 0.97295 0.5044 0.0
H310 H 0.0665 0.04308 0.5264 0.0
H311 H 0.06132 0.96622 0.53673 0.0
O312 O 0.99521 0.97663 0.48723 0.0
O313 O 0.97695 0.99729 0.52483 0.0
O314 O 0.01126 0.9932 0.54229 0.0
C315 C 0.98889 0.99107 0.54322 0.0
H316 H 0.92715 1.00312 0.43686 0.0
H317 H 0.10591 0.02784 0.54618 0.0
Co318 Co 0.50124 1.00303 0.99113 0.0
C319 C 0.49714 0.96457 0.02572 0.0
Co320 Co 0.52146 0.00907 0.02362 0.0
C321 C 0.49049 0.99769 0.94179 0.0
C322 C 0.46042 0.99078 0.96409 0.0
N323 N 0.48348 0.99732 0.96453 0.0
N324 N 0.4727 0.99162 0.92716 0.0
C325 C 0.45375 0.98732 0.94118 0.0
H326 H 0.50835 1.00219 0.93612 0.0
H327 H 0.4493 0.98815 0.97953 0.0
C328 C 0.52548 0.04751 0.98903 0.0
N329 N 0.53906 0.01473 0.05033 0.0
C330 C 0.53175 0.0135 0.073 0.0
C331 C 0.56192 0.02194 0.0512 0.0
N332 N 0.54913 0.01975 0.08802 0.0
C333 C 0.56818 0.02499 0.07434 0.0
C334 C 0.54689 0.98591 0.98927 0.0
O335 O 0.51189 0.03386 0.97727 0.0
O336 O 0.53166 0.04019 0.0098 0.0
O337 O 0.54798 0.99396 0.00989 0.0
O338 O 0.52768 0.98776 0.97777 0.0
O339 O 0.51107 0.97802 0.03732 0.0
H340 H 0.57319 0.02523 0.03594 0.0
H341 H 0.51396 0.0082 0.07833 0.0
O342 O 0.49073 0.97211 1.00509 0.0
O343 O 0.47488 0.01847 1.00471 0.0
O344 O 0.49487 0.02405 0.03711 0.0
C345 C 0.47581 0.02624 0.02542 0.0
H346 H 0.43647 0.98123 0.93542 0.0
H347 H 0.58522 0.03137 0.08049 0.0
Co348 Co 0.52689 0.51167 0.49906 0.0
C349 C 0.48881 0.51479 0.4677 0.0
Co350 Co 0.49399 0.49382 0.51283 0.0
C351 C 0.57639 0.52378 0.49103 0.0
C352 C 0.5535 0.55038 0.47473 0.0
N353 N 0.55344 0.52864 0.48743 0.0
N354 N 0.59072 0.5418 0.48127 0.0
C355 C 0.57633 0.55848 0.4709 0.0
H356 H 0.58242 0.50781 0.50135 0.0
H357 H 0.53789 0.56006 0.46912 0.0
C358 C 0.53202 0.49076 0.54423 0.0
N359 N 0.46737 0.47707 0.52442 0.0
C360 C 0.44465 0.48333 0.52203 0.0
C361 C 0.46671 0.4549 0.53634 0.0
N362 N 0.42979 0.46589 0.53196 0.0
C363 C 0.44369 0.448 0.54101 0.0
C364 C 0.52306 0.46353 0.4884 0.0
O365 O 0.54296 0.50292 0.52766 0.0
O366 O 0.51045 0.48482 0.54131 0.0
O367 O 0.50371 0.46486 0.49932 0.0
O368 O 0.53676 0.48238 0.48613 0.0
O369 O 0.47776 0.50298 0.48441 0.0
H370 H 0.482 0.44421 0.54091 0.0
H371 H 0.43917 0.50033 0.51309 0.0
O372 O 0.5105 0.52025 0.47044 0.0
O373 O 0.51692 0.5408 0.51219 0.0
O374 O 0.48441 0.52292 0.52617 0.0
C375 C 0.4978 0.54195 0.52354 0.0
H376 H 0.58188 0.57544 0.46135 0.0
H377 H 0.43767 0.43078 0.54978 0.0
Co378 Co 0.01759 0.50509 0.9883 0.0
C379 C 0.97092 0.48756 0.99688 0.0
Co380 Co 1.00392 0.50917 0.02425 0.0
C381 C 0.04135 0.48793 0.94699 0.0
C382 C 0.01322 0.51219 0.93832 0.0
N383 N 0.02548 0.50225 0.95681 0.0
N384 N 0.03913 0.4884 0.92322 0.0
C385 C 0.02158 0.50382 0.91776 0.0
H386 H 0.05328 0.47624 0.9571 0.0
H387 H 0.99823 0.52377 0.93966 0.0
C388 C 0.05061 0.52669 0.01565 0.0
N389 N 0.99611 0.51195 0.05576 0.0
C390 C 0.9798 0.52559 0.06579 0.0
C391 C 0.00892 0.5025 0.07407 0.0
N392 N 0.98229 0.52514 0.08954 0.0
C393 C 1.00047 0.51048 0.09475 0.0
C394 C 0.02724 0.4647 0.01799 0.0
O395 O 0.04747 0.51983 0.99477 0.0
O396 O 0.0339 0.52377 0.03048 0.0
O397 O 0.0161 0.47719 0.03227 0.0
O398 O 0.0299 0.47333 0.99679 0.0
O399 O 0.97397 0.49462 0.01771 0.0
H400 H 0.0243 0.49151 0.0725 0.0
H401 H 0.96732 0.53676 0.05584 0.0
O402 O 0.9877 0.49033 0.9821 0.0
O403 O 1.00529 0.53698 0.98027 0.0
O404 O 0.99174 0.54106 0.01582 0.0
C405 C 0.99431 0.54959 0.99457 0.0
H406 H 0.01473 0.50808 0.90017 0.0
H407 H 0.00764 0.50647 0.11225 0.0
H408 H 0.16474 0.10519 0.29195 0.0
H409 H 0.1461 0.08744 0.32823 0.0
H410 H 0.07769 0.09675 0.29636 0.0
H411 H 0.09613 0.1138 0.25985 0.0
H412 H 0.11435 0.10853 0.35782 0.0
H413 H 0.07393 0.02506 0.32133 0.0
H414 H 0.09641 0.04366 0.30582 0.0
H415 H 0.06636 0.05315 0.30529 0.0
C416 C 0.14574 0.10314 0.29249 0.0
C417 C 0.13201 0.11092 0.27281 0.0
C418 C 0.13509 0.09313 0.31336 0.0
C419 C 0.11046 0.0904 0.31501 0.0
C420 C 0.09672 0.09821 0.29546 0.0
H421 H 0.01009 0.0389 0.42417 0.0
H422 H 0.02998 0.05517 0.38805 0.0
C423 C 0.10733 0.10826 0.27462 0.0
C424 C 0.09912 0.08006 0.33736 0.0
H425 H 0.06197 0.03403 0.35993 0.0
C426 C 0.10303 0.09214 0.35831 0.0
C427 C 0.08426 0.0587 0.33807 0.0
C428 C 0.08012 0.04422 0.31649 0.0
C429 C 0.09209 0.08385 0.37971 0.0
C430 C 0.07714 0.06253 0.38041 0.0
C431 C 0.07334 0.05038 0.35948 0.0
C432 C 0.06516 0.05262 0.40258 0.0
C433 C 0.09611 0.09845 0.40123 0.0
C434 C 0.07823 0.0454 0.42282 0.0
C435 C 0.06689 0.03614 0.44358 0.0
C436 C 0.04216 0.03368 0.44455 0.0
C437 C 0.02913 0.0406 0.42415 0.0
C438 C 0.0405 0.04989 0.40342 0.0
H439 H 0.10245 0.11755 0.39635 0.0
H440 H 0.07973 0.09921 0.41173 0.0
H441 H 0.10972 0.0895 0.41261 0.0
H442 H 0.09728 0.04673 0.42254 0.0
H443 H 0.07754 0.03086 0.45885 0.0
H444 H 0.42132 0.94828 0.71823 0.0
H445 H 0.43004 0.96224 0.75744 0.0
H446 H 0.50199 0.94055 0.75118 0.0
H447 H 0.49357 0.92704 0.71139 0.0
H448 H 0.44706 0.92893 0.79456 0.0
H449 H 0.50672 0.01091 0.77724 0.0
H450 H 0.48721 0.9995 0.75486 0.0
H451 H 0.5134 0.98339 0.76287 0.0
C452 C 0.43919 0.94708 0.72483 0.0
C453 C 0.45679 0.93662 0.7116 0.0
C454 C 0.44408 0.95492 0.74733 0.0
C455 C 0.46667 0.95257 0.75708 0.0
C456 C 0.48451 0.94279 0.74379 0.0
H457 H 0.51066 0.97896 0.90208 0.0
H458 H 0.51124 0.9699 0.86023 0.0
C459 C 0.47962 0.93489 0.72118 0.0
C460 C 0.47067 0.95839 0.78194 0.0
H461 H 0.49806 0.99922 0.81716 0.0
C462 C 0.45828 0.94423 0.79952 0.0
C463 C 0.48552 0.97819 0.78829 0.0
C464 C 0.49893 0.99405 0.7699 0.0
C465 C 0.45997 0.94963 0.82332 0.0
C466 C 0.47409 0.97001 0.82961 0.0
C467 C 0.48714 0.98371 0.81217 0.0
C468 C 0.47456 0.97779 0.85415 0.0
C469 C 0.44654 0.93352 0.84155 0.0
C470 C 0.45394 0.98592 0.86425 0.0
C471 C 0.45356 0.99114 0.88803 0.0
C472 C 0.47383 0.98843 0.90215 0.0
C473 C 0.49479 0.98136 0.89167 0.0
C474 C 0.49515 0.9761 0.86781 0.0
H475 H 0.44167 0.91529 0.83487 0.0
H476 H 0.45702 0.93063 0.85803 0.0
H477 H 0.43006 0.94261 0.84602 0.0
H478 H 0.43799 0.98776 0.85383 0.0
H479 H 0.4373 0.99705 0.89544 0.0
H480 H 0.66237 0.42874 0.72595 0.0
H481 H 0.64588 0.44654 0.68897 0.0
H482 H 0.5758 0.42733 0.71402 0.0
H483 H 0.59201 0.41046 0.7513 0.0
H484 H 0.61931 0.4229 0.65637 0.0
H485 H 0.56887 0.49841 0.69073 0.0
H486 H 0.59087 0.48228 0.70815 0.0
H487 H 0.56164 0.46911 0.70543 0.0
C488 C 0.64342 0.42876 0.72378 0.0
C489 C 0.62852 0.41819 0.74163 0.0
C490 C 0.63404 0.43878 0.70257 0.0
C491 C 0.6096 0.43858 0.69886 0.0
C492 C 0.59469 0.42816 0.71667 0.0
H493 H 0.51294 0.46744 0.58402 0.0
H494 H 0.53302 0.45558 0.62106 0.0
C495 C 0.60402 0.41822 0.73787 0.0
C496 C 0.59965 0.44803 0.67593 0.0
H497 H 0.55955 0.48758 0.65138 0.0
C498 C 0.60646 0.43725 0.65522 0.0
C499 C 0.58289 0.46677 0.67447 0.0
C500 C 0.5758 0.47999 0.69586 0.0
C501 C 0.59635 0.4441 0.63323 0.0
C502 C 0.57917 0.46237 0.63191 0.0
C503 C 0.57266 0.47348 0.65251 0.0
C504 C 0.56724 0.46975 0.6094 0.0
C505 C 0.60353 0.43121 0.61168 0.0
C506 C 0.57984 0.48185 0.59067 0.0
C507 C 0.56841 0.48872 0.56947 0.0
C508 C 0.54418 0.48361 0.56667 0.0
C509 C 0.53162 0.4716 0.58556 0.0
C510 C 0.54304 0.46484 0.60676 0.0
H511 H 0.6135 0.41438 0.61643 0.0
H512 H 0.58783 0.42605 0.60113 0.0
H513 H 0.61492 0.44385 0.60033 0.0
H514 H 0.59847 0.48608 0.5925 0.0
H515 H 0.57859 0.498 0.5553 0.0
H516 H 0.95566 0.61995 0.27369 0.0
H517 H 0.95842 0.61012 0.2324 0.0
H518 H 0.88337 0.59617 0.2301 0.0
H519 H 0.8804 0.6062 0.27154 0.0
H520 H 0.90847 0.55892 0.21308 0.0
H521 H 0.94018 0.64786 0.17134 0.0
H522 H 0.95767 0.63889 0.19666 0.0
H523 H 0.92701 0.64519 0.20038 0.0
C524 C 0.93965 0.61532 0.2643 0.0
C525 C 0.91781 0.61392 0.27591 0.0
C526 C 0.94124 0.60976 0.24066 0.0
C527 C 0.92103 0.60289 0.22804 0.0
C528 C 0.89915 0.60164 0.23947 0.0
H529 H 0.93599 0.53598 0.08973 0.0
H530 H 0.91557 0.55766 0.12031 0.0
C531 C 0.89753 0.60721 0.26317 0.0
C532 C 0.92333 0.59496 0.20363 0.0
H533 H 0.94985 0.61151 0.15093 0.0
C534 C 0.9169 0.57059 0.19922 0.0
C535 C 0.93412 0.6103 0.18552 0.0
C536 C 0.9399 0.6371 0.18863 0.0
C537 C 0.92286 0.56056 0.17788 0.0
C538 C 0.9354 0.57537 0.16059 0.0
C539 C 0.94027 0.60021 0.1643 0.0
C540 C 0.94713 0.56435 0.14075 0.0
C541 C 0.91737 0.53372 0.17466 0.0
C542 C 0.97152 0.56152 0.14199 0.0
C543 C 0.98301 0.54916 0.12484 0.0
C544 C 0.97037 0.53952 0.10598 0.0
C545 C 0.94605 0.54326 0.10413 0.0
C546 C 0.93443 0.55551 0.12155 0.0
H547 H 0.90839 0.52446 0.19029 0.0
H548 H 0.90584 0.5319 0.15896 0.0
H549 H 0.93386 0.52403 0.17142 0.0
H550 H 0.98161 0.56828 0.15665 0.0
H551 H 1.00183 0.54695 0.12644 0.0
H552 H 0.27595 0.11541 0.08131 0.0
H553 H 0.3113 0.09859 0.06473 0.0
H554 H 0.34424 0.09666 0.13348 0.0
H555 H 0.30889 0.11329 0.15022 0.0
H556 H 0.35608 0.1162 0.06178 0.0
H557 H 0.35492 0.02768 0.11531 0.0
H558 H 0.33027 0.04783 0.11426 0.0
H559 H 0.3552 0.05392 0.13295 0.0
C560 C 0.29072 0.11148 0.09293 0.0
C561 C 0.28941 0.11564 0.11719 0.0
C562 C 0.31095 0.10175 0.08341 0.0
C563 C 0.33042 0.09586 0.09786 0.0
C564 C 0.3293 0.10033 0.12201 0.0
H565 H 0.47045 0.04105 0.07056 0.0
H566 H 0.43561 0.05839 0.08784 0.0
C567 C 0.30902 0.10993 0.13158 0.0
C568 C 0.35201 0.08565 0.0875 0.0
H569 H 0.38927 0.03732 0.09241 0.0
C570 C 0.36323 0.09888 0.06843 0.0
C571 C 0.3615 0.06303 0.0961 0.0
C572 C 0.34974 0.04715 0.11562 0.0
C573 C 0.38372 0.09038 0.05805 0.0
C574 C 0.39322 0.06784 0.06671 0.0
C575 C 0.38209 0.05463 0.0858 0.0
C576 C 0.41451 0.05751 0.05601 0.0
C577 C 0.39529 0.10586 0.03815 0.0
C578 C 0.41428 0.05095 0.0324 0.0
C579 C 0.43416 0.04096 0.02247 0.0
C580 C 0.4548 0.03725 0.03592 0.0
C581 C 0.45496 0.04375 0.05961 0.0
C582 C 0.435 0.05363 0.06955 0.0
H583 H 0.38948 0.12517 0.03754 0.0
H584 H 0.41476 0.10587 0.03991 0.0
H585 H 0.39049 0.09808 0.02107 0.0
H586 H 0.39859 0.05332 0.02168 0.0
H587 H 0.4333 0.03605 1.00424 0.0
H588 H 0.29773 0.94508 0.57299 0.0
H589 H 0.2561 0.95388 0.56674 0.0
H590 H 0.23746 0.87746 0.5828 0.0
H591 H 0.27903 0.86856 0.5896 0.0
H592 H 0.22352 0.93185 0.53422 0.0
H593 H 0.19707 0.91605 0.62858 0.0
H594 H 0.2274 0.92106 0.61973 0.0
H595 H 0.21277 0.89199 0.61572 0.0
C596 C 0.28476 0.93018 0.57531 0.0
C597 C 0.29162 0.90616 0.58188 0.0
C598 C 0.26104 0.93519 0.57161 0.0
C599 C 0.24379 0.91634 0.57455 0.0
C600 C 0.25055 0.89227 0.58071 0.0
H601 H 0.0984 0.94675 0.53038 0.0
H602 H 0.13415 0.92354 0.53857 0.0
C603 C 0.27429 0.88721 0.58436 0.0
C604 C 0.21872 0.92213 0.57128 0.0
H605 H 0.16761 0.92844 0.60143 0.0
C606 C 0.21117 0.93083 0.5488 0.0
C607 C 0.20281 0.92083 0.59045 0.0
C608 C 0.21033 0.91214 0.61506 0.0
C609 C 0.1882 0.93899 0.54509 0.0
C610 C 0.1724 0.93812 0.56435 0.0
C611 C 0.17976 0.92879 0.5867 0.0
C612 C 0.1492 0.94959 0.56215 0.0
C613 C 0.18138 0.94959 0.52087 0.0
C614 C 0.14546 0.97123 0.57356 0.0
C615 C 0.12511 0.98439 0.56902 0.0
C616 C 0.1081 0.9761 0.55305 0.0
C617 C 0.11117 0.95354 0.54282 0.0
C618 C 0.13163 0.94038 0.54732 0.0
H619 H 0.19678 0.95237 0.5089 0.0
H620 H 0.16857 0.93684 0.51273 0.0
H621 H 0.17279 0.96749 0.5222 0.0
H622 H 0.1588 0.97854 0.58516 0.0
H623 H 0.123 1.00151 0.57743 0.0
H624 H 0.7967 0.37351 0.90668 0.0
H625 H 0.83092 0.38975 0.92758 0.0
H626 H 0.79863 0.4603 0.92864 0.0
H627 H 0.76433 0.44419 0.90757 0.0
H628 H 0.84408 0.46461 0.91483 0.0
H629 H 0.83752 0.40402 0.99667 0.0
H630 H 0.83798 0.38702 0.97054 0.0
H631 H 0.81379 0.40667 0.97545 0.0
C632 C 0.79676 0.39241 0.9116 0.0
C633 C 0.77775 0.40754 0.90557 0.0
C634 C 0.81629 0.40164 0.92364 0.0
C635 C 0.81712 0.42609 0.93014 0.0
C636 C 0.79828 0.44132 0.92395 0.0
H637 H 0.92872 0.48534 0.02061 0.0
H638 H 0.89028 0.47135 1.00563 0.0
C639 C 0.77877 0.43213 0.91179 0.0
C640 C 0.83819 0.43606 0.94231 0.0
H641 H 0.87441 0.42586 0.98999 0.0
C642 C 0.85056 0.45629 0.93139 0.0
C643 C 0.84644 0.42548 0.96413 0.0
C644 C 0.8331 0.40476 0.97752 0.0
C645 C 0.87145 0.4656 0.94119 0.0
C646 C 0.88048 0.45404 0.96223 0.0
C647 C 0.86762 0.43448 0.9737 0.0
C648 C 0.90372 0.46142 0.97194 0.0
C649 C 0.88369 0.48771 0.92887 0.0
C650 C 0.92403 0.45976 0.95826 0.0
C651 C 0.94587 0.46774 0.96668 0.0
C652 C 0.94793 0.47733 0.98913 0.0
C653 C 0.9277 0.47809 1.00324 0.0
C654 C 0.90575 0.47015 0.99471 0.0
H655 H 0.87129 0.49863 0.91757 0.0
H656 H 0.89194 0.49986 0.94181 0.0
H657 H 0.89773 0.48144 0.91729 0.0
H658 H 0.92296 0.4525 0.94089 0.0
H659 H 0.96111 0.46665 0.95542 0.0
H660 H 0.81654 0.54234 0.45558 0.0
H661 H 0.7757 0.53017 0.46554 0.0
H662 H 0.76118 0.60522 0.47891 0.0
H663 H 0.80163 0.61766 0.46859 0.0
H664 H 0.74371 0.54155 0.50886 0.0
H665 H 0.7193 0.58221 0.41994 0.0
H666 H 0.7488 0.57276 0.42715 0.0
H667 H 0.73823 0.60082 0.43762 0.0
C668 C 0.80473 0.55617 0.46099 0.0
C669 C 0.81227 0.58101 0.46108 0.0
C670 C 0.7815 0.54915 0.46682 0.0
C671 C 0.76553 0.56686 0.47277 0.0
C672 C 0.77335 0.59133 0.47434 0.0
H673 H 0.61745 0.58359 0.48141 0.0
H674 H 0.6603 0.58726 0.481 0.0
C675 C 0.79652 0.59837 0.46856 0.0
C676 C 0.74015 0.56054 0.47468 0.0
H677 H 0.68815 0.56959 0.44568 0.0
C678 C 0.73149 0.54746 0.49504 0.0
C679 C 0.72445 0.5682 0.45649 0.0
C680 C 0.73306 0.58163 0.43394 0.0
C681 C 0.7072 0.54267 0.49806 0.0
C682 C 0.69144 0.55092 0.48008 0.0
C683 C 0.70028 0.56339 0.45947 0.0
C684 C 0.66557 0.54805 0.48251 0.0
C685 C 0.69849 0.52964 0.52073 0.0
C686 C 0.65432 0.52474 0.48367 0.0
C687 C 0.6297 0.52258 0.48382 0.0
C688 C 0.61602 0.54372 0.48255 0.0
C689 C 0.62745 0.56697 0.48192 0.0
C690 C 0.65194 0.5691 0.48187 0.0
H691 H 0.71236 0.52884 0.53462 0.0
H692 H 0.68302 0.53895 0.52757 0.0
H693 H 0.69287 0.51053 0.51724 0.0
H694 H 0.66453 0.50827 0.48374 0.0
H695 H 0.62138 0.50445 0.48413 0.0
H696 H 0.14007 0.26337 0.07191 0.0
H697 H 0.12184 0.29988 0.05336 0.0
H698 H 0.09815 0.31978 0.12159 0.0
H699 H 0.11716 0.28407 0.14037 0.0
H700 H 0.07611 0.31353 0.05177 0.0
H701 H 0.12938 0.38343 0.09685 0.0
H702 H 0.13714 0.35153 0.09761 0.0
H703 H 0.11503 0.3615 0.11728 0.0
C704 C 0.13132 0.2757 0.08306 0.0
C705 C 0.13028 0.27066 0.10774 0.0
C706 C 0.12071 0.29651 0.07237 0.0
C707 C 0.1089 0.31292 0.08606 0.0
C708 C 0.10757 0.30779 0.11062 0.0
H709 H 0.0265 0.44314 0.06286 0.0
H710 H 0.04614 0.40606 0.07781 0.0
C711 C 0.11822 0.28707 0.12133 0.0
C712 C 0.09755 0.33508 0.07468 0.0
H713 H 0.095 0.39759 0.07658 0.0
C714 C 0.08041 0.33193 0.05705 0.0
C715 C 0.10315 0.35919 0.08144 0.0
C716 C 0.12235 0.3642 0.09915 0.0
C717 C 0.06823 0.35202 0.04662 0.0
C718 C 0.07347 0.37601 0.0538 0.0
C719 C 0.09085 0.37921 0.07115 0.0
C720 C 0.06076 0.398 0.04407 0.0
C721 C 0.04934 0.34732 0.02853 0.0
C722 C 0.06236 0.40595 0.02003 0.0
C723 C 0.05112 0.4273 0.01136 0.0
C724 C 0.03804 0.44117 0.02657 0.0
C725 C 0.03631 0.43296 0.05057 0.0
C726 C 0.0476 0.41173 0.0592 0.0
H727 H 0.04392 0.32756 0.02868 0.0
H728 H 0.03358 0.35823 0.03171 0.0
H729 H 0.05614 0.35303 0.01064 0.0
H730 H 0.07271 0.39593 0.00805 0.0
H731 H 0.05298 0.43313 0.99283 0.0
H732 H 0.58962 0.26708 0.90887 0.0
H733 H 0.57079 0.22967 0.92716 0.0
H734 H 0.62797 0.187 0.9035 0.0
H735 H 0.64721 0.22449 0.88598 0.0
H736 H 0.55424 0.18903 0.90957 0.0
H737 H 0.62632 0.16477 0.9719 0.0
H738 H 0.62579 0.19397 0.9552 0.0
H739 H 0.63622 0.16718 0.94184 0.0
C740 C 0.59813 0.24968 0.90763 0.0
C741 C 0.61994 0.24864 0.89622 0.0
C742 C 0.5874 0.22835 0.91809 0.0
C743 C 0.59819 0.20558 0.91715 0.0
C744 C 0.61966 0.20444 0.90513 0.0
H745 H 0.52706 0.06298 0.94229 0.0
H746 H 0.54394 0.10169 0.92495 0.0
C747 C 0.63058 0.22582 0.89501 0.0
C748 C 0.58678 0.18299 0.92841 0.0
H749 H 0.59652 0.13377 0.96696 0.0
C750 C 0.56342 0.17703 0.92225 0.0
C751 C 0.5986 0.16755 0.94529 0.0
C752 C 0.62302 0.17382 0.95414 0.0
C753 C 0.55171 0.15585 0.93219 0.0
C754 C 0.56397 0.13975 0.94812 0.0
C755 C 0.58719 0.14594 0.95455 0.0
C756 C 0.55311 0.11647 0.95853 0.0
C757 C 0.52619 0.15133 0.92586 0.0
C758 C 0.55326 0.11151 0.98315 0.0
C759 C 0.54415 0.08916 0.99305 0.0
C760 C 0.53448 0.07141 0.97855 0.0
C761 C 0.53412 0.07645 0.95393 0.0
C762 C 0.54362 0.09865 0.944 0.0
H763 H 0.51757 0.16871 0.92004 0.0
H764 H 0.52508 0.13899 0.911 0.0
H765 H 0.51619 0.14252 0.94106 0.0
H766 H 0.56055 0.12492 0.99473 0.0
H767 H 0.54464 0.0858 0.01209 0.0
H768 H 0.93883 0.75246 0.45967 0.0
H769 H 0.95502 0.7922 0.47053 0.0
H770 H 0.02121 0.77685 0.43841 0.0
H771 H 1.00514 0.73685 0.42752 0.0
H772 H 0.99465 0.80523 0.49764 0.0
H773 H 1.00191 0.84185 0.404 0.0
H774 H 0.9854 0.81395 0.41248 0.0
H775 H 0.01697 0.81389 0.41151 0.0
C776 C 0.95697 0.75731 0.45525 0.0
C777 C 0.97067 0.74152 0.44263 0.0
C778 C 0.96616 0.78009 0.46139 0.0
C779 C 0.9892 0.78759 0.455 0.0
C780 C 1.00324 0.77158 0.44313 0.0
H781 H 0.04522 0.92859 0.50497 0.0
H782 H 0.04356 0.88514 0.49566 0.0
C783 C 0.99403 0.74876 0.43691 0.0
C784 C 0.99792 0.81262 0.46005 0.0
H785 H 0.01223 0.86887 0.43334 0.0
C786 C 0.99882 0.81911 0.48364 0.0
C787 C 1.00315 0.83066 0.44167 0.0
C788 C 1.00168 0.82492 0.41596 0.0
C789 C 1.00409 0.84338 0.48934 0.0
C790 C 0.00887 0.86151 0.47093 0.0
C791 C 0.00874 0.85484 0.44739 0.0
C792 C 0.01122 0.88794 0.47548 0.0
C793 C 1.00331 0.84971 0.51488 0.0
C794 C 0.99399 0.90396 0.46664 0.0
C795 C 0.99492 0.92864 0.4718 0.0
C796 C 0.01318 0.93789 0.48588 0.0
C797 C 0.03088 0.92199 0.49415 0.0
C798 C 0.0299 0.89717 0.48896 0.0
H799 H 0.99563 0.83441 0.5265 0.0
H800 H 0.02145 0.85378 0.52114 0.0
H801 H 0.99281 0.86634 0.51677 0.0
H802 H 0.97945 0.8972 0.45616 0.0
H803 H 0.98106 0.94038 0.46504 0.0
H804 H 0.48108 0.76331 0.58213 0.0
H805 H 0.49065 0.72143 0.57271 0.0
H806 H 0.41942 0.69687 0.58911 0.0
H807 H 0.40972 0.73861 0.59837 0.0
H808 H 0.4876 0.67663 0.59971 0.0
H809 H 0.42805 0.67616 0.52168 0.0
H810 H 0.43612 0.70393 0.53591 0.0
H811 H 0.4139 0.68307 0.54865 0.0
C812 C 0.46755 0.74891 0.58392 0.0
C813 C 0.44459 0.75423 0.59069 0.0
C814 C 0.473 0.72506 0.57848 0.0
C815 C 0.45559 0.70623 0.57977 0.0
C816 C 0.43292 0.7113 0.58743 0.0
H817 H 0.45641 0.55269 0.54468 0.0
H818 H 0.44593 0.59191 0.56027 0.0
C819 C 0.42743 0.73512 0.59273 0.0
C820 C 0.46103 0.68135 0.57273 0.0
H821 H 0.44621 0.63874 0.53307 0.0
C822 C 0.47858 0.66833 0.58514 0.0
C823 C 0.44918 0.67062 0.55371 0.0
C824 C 0.43091 0.68421 0.53905 0.0
C825 C 0.48454 0.64472 0.57909 0.0
C826 C 0.47277 0.63409 0.56002 0.0
C827 C 0.45505 0.64697 0.54778 0.0
C828 C 0.4794 0.61013 0.55166 0.0
C829 C 0.50325 0.63125 0.59321 0.0
C830 C 0.50157 0.60761 0.54152 0.0
C831 C 0.50754 0.58538 0.5325 0.0
C832 C 0.49142 0.56527 0.53347 0.0
C833 C 0.46922 0.56783 0.54375 0.0
C834 C 0.46321 0.59017 0.55265 0.0
H835 H 0.50641 0.6392 0.61058 0.0
H836 H 0.49826 0.61146 0.59623 0.0
H837 H 0.52001 0.63262 0.58318 0.0
H838 H 0.51412 0.62298 0.54023 0.0
H839 H 0.52477 0.58404 0.52467 0.0
H840 H 0.85592 0.90873 0.71905 0.0
H841 H 0.87421 0.92574 0.68231 0.0
H842 H 0.94294 0.91641 0.71346 0.0
H843 H 0.92487 0.89953 0.75021 0.0
H844 H 0.90375 0.96637 0.67302 0.0
H845 H 0.94939 0.88181 0.65245 0.0
H846 H 0.92675 0.88184 0.67466 0.0
H847 H 0.95632 0.89204 0.68125 0.0
C848 C 0.87493 0.91042 0.71819 0.0
C849 C 0.88886 0.90248 0.73768 0.0
C850 C 0.88538 0.92007 0.69707 0.0
C851 C 0.91001 0.92194 0.69484 0.0
C852 C 0.92394 0.91456 0.71441 0.0
H853 H 0.0092 0.97502 0.5852 0.0
H854 H 0.9896 0.95897 0.62154 0.0
C855 C 0.91353 0.90488 0.73549 0.0
C856 C 0.92114 0.93189 0.67221 0.0
H857 H 0.95981 0.91817 0.62911 0.0
C858 C 0.91589 0.95576 0.66335 0.0
C859 C 0.93702 0.91811 0.65949 0.0
C860 C 0.94257 0.89195 0.66728 0.0
C861 C 0.92647 0.96639 0.64256 0.0
C862 C 0.94249 0.95268 0.62995 0.0
C863 C 0.94763 0.92876 0.63874 0.0
C864 C 0.95426 0.9628 0.60772 0.0
C865 C 0.92088 0.99251 0.63465 0.0
C866 C 0.94102 0.97012 0.58762 0.0
C867 C 0.9522 0.97934 0.56675 0.0
C868 C 0.97694 0.98136 0.56542 0.0
C869 C 0.99015 0.97383 0.58553 0.0
C870 C 0.97895 0.9646 0.60637 0.0
H871 H 0.91343 1.00253 0.64926 0.0
H872 H 0.93685 1.00277 0.62784 0.0
H873 H 0.90766 0.99233 0.6202 0.0
H874 H 0.92199 0.96846 0.58796 0.0
H875 H 0.94143 0.98481 0.55162 0.0
H876 H 0.52569 0.07852 0.30484 0.0
H877 H 0.51706 0.06432 0.26539 0.0
H878 H 0.58828 0.03999 0.26022 0.0
H879 H 0.59706 0.05416 0.29936 0.0
H880 H 0.53906 0.08113 0.22411 0.0
H881 H 0.55035 0.98089 0.23894 0.0
H882 H 0.54679 1.00081 0.26293 0.0
H883 H 0.5751 0.99846 0.24926 0.0
C884 C 0.53944 0.06997 0.29535 0.0
C885 C 0.56203 0.06735 0.30529 0.0
C886 C 0.53445 0.06177 0.27289 0.0
C887 C 0.5519 0.0507 0.26007 0.0
C888 C 0.57435 0.04783 0.27007 0.0
H889 H 0.58425 0.01491 0.12025 0.0
H890 H 0.58203 0.02139 0.16249 0.0
C891 C 0.57934 0.05597 0.29247 0.0
C892 C 0.54745 0.044 0.23548 0.0
H893 H 0.55242 0.9972 0.19856 0.0
C894 C 0.54154 0.06269 0.21855 0.0
C895 C 0.55074 0.01992 0.22832 0.0
C896 C 0.55586 0.99882 0.24587 0.0
C897 C 0.54003 0.05824 0.19445 0.0
C898 C 0.54423 0.03439 0.18721 0.0
C899 C 0.54931 0.01549 0.20421 0.0
C900 C 0.54491 0.02914 0.16192 0.0
C901 C 0.53506 0.07934 0.17681 0.0
C902 C 0.52466 0.03092 0.14776 0.0
C903 C 0.5259 0.02736 0.12357 0.0
C904 C 0.54744 0.02193 0.11317 0.0
C905 C 0.56751 0.01947 0.12763 0.0
C906 C 0.56623 0.02297 0.15178 0.0
H907 H 0.53655 0.09741 0.18487 0.0
H908 H 0.54739 0.07953 0.16165 0.0
H909 H 0.5169 0.07708 0.16984 0.0
H910 H 0.50798 0.03538 0.15535 0.0
H911 H 0.51015 0.02956 0.11294 0.0
H912 H 0.35775 0.58357 0.2882 0.0
H913 H 0.3741 0.56648 0.32561 0.0
H914 H 0.44424 0.58579 0.3009 0.0
H915 H 0.42819 0.60249 0.26343 0.0
H916 H 0.40927 0.52873 0.33396 0.0
H917 H 0.43819 0.61979 0.3644 0.0
H918 H 0.41689 0.6164 0.34097 0.0
H919 H 0.44775 0.61376 0.33518 0.0
C920 C 0.37667 0.58391 0.29062 0.0
C921 C 0.39165 0.59464 0.27291 0.0
C922 C 0.38595 0.57425 0.31203 0.0
C923 C 0.41032 0.57528 0.31612 0.0
C924 C 0.42534 0.58529 0.29825 0.0
H925 H 0.50793 0.53832 0.42809 0.0
H926 H 0.48771 0.55177 0.39165 0.0
C927 C 0.41612 0.59488 0.27688 0.0
C928 C 0.42021 0.56616 0.33912 0.0
H929 H 0.45186 0.58467 0.38653 0.0
C930 C 0.41842 0.54092 0.3456 0.0
C931 C 0.4321 0.58218 0.3542 0.0
C932 C 0.43373 0.60958 0.34851 0.0
C933 C 0.42897 0.53113 0.36646 0.0
C934 C 0.44121 0.54713 0.38136 0.0
C935 C 0.44256 0.57243 0.37504 0.0
C936 C 0.45331 0.53804 0.40329 0.0
C937 C 0.42763 0.50369 0.37193 0.0
C938 C 0.44065 0.52595 0.422 0.0
C939 C 0.45219 0.51812 0.44287 0.0
C940 C 0.47658 0.52246 0.44545 0.0
C941 C 0.48916 0.53464 0.42668 0.0
C942 C 0.47763 0.54237 0.40584 0.0
H943 H 0.4228 0.49359 0.35607 0.0
H944 H 0.44469 0.49692 0.37893 0.0
H945 H 0.41399 0.49929 0.3856 0.0
H946 H 0.42179 0.52289 0.42062 0.0
H947 H 0.44196 0.50895 0.45706 0.0
H948 H 0.14042 0.39859 0.74542 0.0
H949 H 0.13706 0.40859 0.78683 0.0
H950 H 0.06156 0.39925 0.78245 0.0
H951 H 0.06475 0.38933 0.74122 0.0
H952 H 0.11432 0.44737 0.80271 0.0
H953 H 0.07539 0.3616 0.84445 0.0
H954 H 0.08921 0.3628 0.81573 0.0
H955 H 0.05905 0.37149 0.81863 0.0
C956 C 0.12312 0.39851 0.75336 0.0
C957 C 0.10284 0.39316 0.74005 0.0
C958 C 0.12126 0.40406 0.77704 0.0
C959 C 0.09911 0.4042 0.78786 0.0
C960 C 0.07889 0.39851 0.7747 0.0
H961 H 0.01947 0.4682 0.88542 0.0
H962 H 0.03909 0.44503 0.85617 0.0
C963 C 0.08073 0.39293 0.75108 0.0
C964 C 0.09666 0.41266 0.81206 0.0
H965 H 0.06735 0.39916 0.86385 0.0
C966 C 0.10466 0.43659 0.81638 0.0
C967 C 0.08424 0.39848 0.82994 0.0
C968 C 0.07672 0.37207 0.82703 0.0
C969 C 0.09874 0.44748 0.83728 0.0
C970 C 0.08462 0.43399 0.85424 0.0
C971 C 0.07812 0.40946 0.85072 0.0
C972 C 0.0731 0.4463 0.87341 0.0
C973 C 0.10605 0.47394 0.84035 0.0
C974 C 0.08573 0.45433 0.893 0.0
C975 C 0.07447 0.46768 0.90985 0.0
C976 C 0.0506 0.47333 0.90705 0.0
C977 C 0.03799 0.46457 0.88775 0.0
C978 C 0.04911 0.45114 0.87116 0.0
H979 H 0.11623 0.48218 0.82501 0.0
H980 H 0.09025 0.48502 0.84274 0.0
H981 H 0.11708 0.47509 0.85649 0.0
H982 H 0.10427 0.45064 0.89501 0.0
H983 H 0.08452 0.47422 0.9246 0.0
H984 H 0.71332 0.90107 0.86294 0.0
H985 H 0.67831 0.91782 0.88043 0.0
H986 H 0.71207 0.91443 0.94875 0.0
H987 H 0.74727 0.89814 0.93138 0.0
H988 H 0.64936 0.89659 0.91774 0.0
H989 H 0.68982 0.98575 0.94139 0.0
H990 H 0.70328 0.96641 0.92081 0.0
H991 H 0.70546 0.95912 0.95208 0.0
C992 C 0.71344 0.90414 0.88165 0.0
C993 C 0.73328 0.89828 0.89568 0.0
C994 C 0.69331 0.91359 0.89166 0.0
C995 C 0.69257 0.91771 0.91589 0.0
C996 C 0.71227 0.9118 0.92996 0.0
H997 H 0.58971 0.97635 0.01001 0.0
H998 H 0.62427 0.95915 0.99221 0.0
C999 C 0.73235 0.90222 0.92001 0.0
C1000 C 0.67109 0.92774 0.92651 0.0
H1001 H 0.65134 0.97624 0.95573 0.0
C1002 C 0.64976 0.91407 0.92594 0.0
C1003 C 0.67156 0.95049 0.93735 0.0
C1004 C 0.69368 0.96646 0.93783 0.0
C1005 C 0.6291 0.92223 0.9363 0.0
C1006 C 0.62953 0.94507 0.94706 0.0
C1007 C 0.65089 0.95875 0.94756 0.0
C1008 C 0.60811 0.95512 0.95794 0.0
C1009 C 0.60722 0.90588 0.93621 0.0
C1010 C 0.58741 0.95889 0.94467 0.0
C1011 C 0.56751 0.96857 0.95489 0.0
C1012 C 0.56787 0.97505 0.97858 0.0
C1013 C 0.5887 0.97151 0.99176 0.0
C1014 C 0.60855 0.9617 0.98157 0.0
H1015 H 0.61151 0.88641 0.93393 0.0
H1016 H 0.59712 0.90675 0.95285 0.0
H1017 H 0.59577 0.91204 0.92121 0.0
H1018 H 0.5867 0.95466 0.92625 0.0
H1019 H 0.55191 0.97126 0.94408 0.0
H1020 H 0.70358 0.04026 0.46306 0.0
H1021 H 0.7443 0.02925 0.47191 0.0
H1022 H 0.76532 0.10604 0.46835 0.0
H1023 H 0.72491 0.11718 0.45892 0.0
H1024 H 0.79118 0.07728 0.43922 0.0
H1025 H 0.78647 0.03564 0.53103 0.0
H1026 H 0.76481 0.02375 0.51115 0.0
H1027 H 0.76404 0.05534 0.51843 0.0
C1028 C 0.71685 0.05479 0.4644 0.0
C1029 C 0.71103 0.07958 0.46028 0.0
C1030 C 0.74003 0.04849 0.46971 0.0
C1031 C 0.75771 0.06686 0.47105 0.0
C1032 C 0.75184 0.09162 0.46761 0.0
H1033 H 0.90759 0.0496 0.50044 0.0
H1034 H 0.86661 0.06211 0.50196 0.0
C1035 C 0.72872 0.09794 0.46235 0.0
C1036 C 0.78267 0.06025 0.47353 0.0
H1037 H 0.82172 0.02956 0.5096 0.0
C1038 C 0.79791 0.06704 0.45469 0.0
C1039 C 0.79137 0.04703 0.49381 0.0
C1040 C 0.77591 0.04017 0.51488 0.0
C1041 C 0.82151 0.06035 0.45529 0.0
C1042 C 0.82998 0.04636 0.47517 0.0
C1043 C 0.815 0.04015 0.49434 0.0
C1044 C 0.85424 0.03746 0.4758 0.0
C1045 C 0.83722 0.0681 0.43461 0.0
C1046 C 0.86057 0.01915 0.46094 0.0
C1047 C 0.88385 0.01185 0.46013 0.0
C1048 C 0.90126 0.02279 0.47413 0.0
C1049 C 0.89464 0.04067 0.48955 0.0
C1050 C 0.87127 0.0479 0.49041 0.0
H1051 H 0.82934 0.08275 0.42288 0.0
H1052 H 0.85466 0.07483 0.44086 0.0
H1053 H 0.84012 0.05199 0.42401 0.0
H1054 H 0.84753 0.01074 0.44973 0.0
H1055 H 0.88817 0.99766 0.44845 0.0
H1056 H 0.26197 0.60331 0.07115 0.0
H1057 H 0.22607 0.59002 0.0508 0.0
H1058 H 0.1882 0.58726 0.1167 0.0
H1059 H 0.22386 0.60094 0.1371 0.0
H1060 H 0.19692 0.54623 0.06069 0.0
H1061 H 0.1489 0.63222 0.07069 0.0
H1062 H 0.18041 0.63049 0.0744 0.0
H1063 H 0.16101 0.6188 0.09767 0.0
C1064 C 0.24596 0.59999 0.08128 0.0
C1065 C 0.24571 0.60331 0.10572 0.0
C1066 C 0.22553 0.5923 0.06965 0.0
C1067 C 0.20445 0.58801 0.0822 0.0
C1068 C 0.20423 0.59082 0.10665 0.0
H1069 H 0.06211 0.54179 0.05926 0.0
H1070 H 0.10014 0.55706 0.07297 0.0
C1071 C 0.22467 0.5984 0.11832 0.0
C1072 C 0.18264 0.58052 0.06981 0.0
H1073 H 0.12659 0.59816 0.05734 0.0
C1074 C 0.18158 0.55764 0.05971 0.0
C1075 C 0.16276 0.59554 0.06851 0.0
C1076 C 0.16328 0.62074 0.07819 0.0
C1077 C 0.16076 0.54888 0.04922 0.0
C1078 C 0.14068 0.56367 0.04844 0.0
C1079 C 0.142 0.58685 0.05797 0.0
C1080 C 0.11763 0.55479 0.03938 0.0
C1081 C 0.16013 0.52347 0.04 0.0
C1082 C 0.1147 0.54875 0.01577 0.0
C1083 C 0.09286 0.53988 0.0078 0.0
C1084 C 0.07358 0.53709 0.02331 0.0
C1085 C 0.07654 0.54367 0.0468 0.0
C1086 C 0.0983 0.55244 0.05471 0.0
H1087 H 0.17531 0.51254 0.04647 0.0
H1088 H 0.14359 0.5133 0.04534 0.0
H1089 H 0.16077 0.52505 0.0204 0.0
H1090 H 0.1293 0.55088 1.00352 0.0
H1091 H 0.09112 0.53507 0.98959 0.0
H1092 H 0.2024 0.4286 0.52162 0.0
H1093 H 0.2424 0.44075 0.50853 0.0
H1094 H 0.26168 0.45505 0.58019 0.0
H1095 H 0.22221 0.44265 0.59347 0.0
H1096 H 0.27926 0.49118 0.54481 0.0
H1097 H 0.29783 0.39459 0.52542 0.0
H1098 H 0.2727 0.40833 0.51111 0.0
H1099 H 0.2727 0.40221 0.54259 0.0
C1100 C 0.21514 0.43445 0.53456 0.0
C1101 C 0.20908 0.43457 0.55861 0.0
C1102 C 0.23793 0.44145 0.52703 0.0
C1103 C 0.25498 0.44859 0.54346 0.0
C1104 C 0.24872 0.44971 0.56724 0.0
H1105 H 0.40094 0.4412 0.56363 0.0
H1106 H 0.35804 0.439 0.56286 0.0
C1107 C 0.22606 0.4427 0.57476 0.0
C1108 C 0.27987 0.45317 0.53659 0.0
H1109 H 0.32944 0.4232 0.52294 0.0
C1110 C 0.29021 0.47649 0.53959 0.0
C1111 C 0.29405 0.43382 0.53003 0.0
C1112 C 0.28392 0.40825 0.5272 0.0
C1113 C 0.31458 0.48074 0.53702 0.0
C1114 C 0.32882 0.46117 0.53123 0.0
C1115 C 0.31836 0.43814 0.52732 0.0
C1116 C 0.35479 0.46339 0.53155 0.0
C1117 C 0.32516 0.50569 0.54171 0.0
C1118 C 0.36713 0.47792 0.51419 0.0
C1119 C 0.39177 0.4791 0.51448 0.0
C1120 C 0.40441 0.46569 0.53211 0.0
C1121 C 0.39184 0.45143 0.5496 0.0
C1122 C 0.36731 0.45024 0.54926 0.0
H1123 H 0.31199 0.51808 0.54862 0.0
H1124 H 0.33983 0.50378 0.55464 0.0
H1125 H 0.33251 0.51443 0.52504 0.0
H1126 H 0.35772 0.48799 0.50023 0.0
H1127 H 0.40086 0.49 0.50057 0.0
H1128 H 0.90538 0.72989 0.87198 0.0
H1129 H 0.92467 0.69463 0.89148 0.0
H1130 H 0.90135 0.7162 0.95923 0.0
H1131 H 0.88238 0.75187 0.93998 0.0
H1132 H 0.9605 0.69453 0.92691 0.0
H1133 H 0.87982 0.64313 0.959 0.0
H1134 H 0.87901 0.66784 0.93632 0.0
H1135 H 0.88247 0.67457 0.9668 0.0
C1136 C 0.90446 0.72735 0.89106 0.0
C1137 C 0.89222 0.74393 0.90431 0.0
C1138 C 0.91542 0.70702 0.90218 0.0
C1139 C 0.91427 0.70252 0.92682 0.0
C1140 C 0.90213 0.71896 0.94016 0.0
H1141 H 0.96871 0.58147 0.01956 0.0
H1142 H 0.95022 0.61944 1.00437 0.0
C1143 C 0.89122 0.73939 0.92906 0.0
C1144 C 0.92627 0.68096 0.93847 0.0
H1145 H 0.91628 0.62644 0.97055 0.0
C1146 C 0.95082 0.67965 0.93646 0.0
C1147 C 0.91372 0.66159 0.95112 0.0
C1148 C 0.88728 0.66162 0.95336 0.0
C1149 C 0.96313 0.65962 0.94672 0.0
C1150 C 0.95053 0.63993 0.95889 0.0
C1151 C 0.926 0.64144 0.96125 0.0
C1152 C 0.96234 0.61721 0.96843 0.0
C1153 C 0.98961 0.66 0.94471 0.0
C1154 C 0.97517 0.6031 0.95335 0.0
C1155 C 0.98585 0.58153 0.96199 0.0
C1156 C 0.98379 0.57326 0.98595 0.0
C1157 C 0.97082 0.58733 1.00106 0.0
C1158 C 0.96016 0.60903 0.99238 0.0
H1159 H 0.99693 0.67908 0.94195 0.0
H1160 H 0.99785 0.65121 0.96076 0.0
H1161 H 0.99462 0.64977 0.92924 0.0
H1162 H 0.97664 0.60855 0.9347 0.0
H1163 H 0.99548 0.57113 0.94972 0.0
H1164 H 0.39684 0.75486 0.07961 0.0
H1165 H 0.41558 0.79315 0.06339 0.0
H1166 H 0.43527 0.81226 0.13365 0.0
H1167 H 0.41606 0.77434 0.15017 0.0
H1168 H 0.40433 0.84296 0.07677 0.0
H1169 H 0.49762 0.81871 0.09369 0.0
H1170 H 0.47412 0.79574 0.09258 0.0
H1171 H 0.47756 0.81351 0.11808 0.0
C1172 C 0.40499 0.76726 0.09167 0.0
C1173 C 0.40493 0.76149 0.11622 0.0
C1174 C 0.41582 0.78904 0.08234 0.0
C1175 C 0.42699 0.80532 0.09732 0.0
C1176 C 0.42706 0.79968 0.12179 0.0
H1177 H 0.50226 0.94564 0.07127 0.0
H1178 H 0.48506 0.90714 0.08895 0.0
C1179 C 0.41612 0.77797 0.13117 0.0
C1180 C 0.4379 0.82863 0.08737 0.0
H1181 H 0.4907 0.85912 0.07833 0.0
C1182 C 0.42321 0.84652 0.07704 0.0
C1183 C 0.46249 0.83319 0.08798 0.0
C1184 C 0.47898 0.81427 0.09852 0.0
C1185 C 0.43247 0.86907 0.06742 0.0
C1186 C 0.45715 0.87351 0.06761 0.0
C1187 C 0.47181 0.85564 0.07815 0.0
C1188 C 0.46806 0.89648 0.05673 0.0
C1189 C 0.41569 0.8881 0.05761 0.0
C1190 C 0.46462 0.90297 0.03265 0.0
C1191 C 0.47427 0.92498 0.02254 0.0
C1192 C 0.48784 0.94078 0.03626 0.0
C1193 C 0.49186 0.93388 0.06023 0.0
C1194 C 0.48205 0.91191 0.07037 0.0
H1195 H 0.3977 0.88487 0.06497 0.0
H1196 H 0.4219 0.90695 0.06148 0.0
H1197 H 0.41447 0.8871 0.03814 0.0
H1198 H 0.45439 0.89102 0.02165 0.0
H1199 H 0.47102 0.92963 1.00398 0.0
H1200 H 0.08082 0.26081 0.55074 0.0
H1201 H 0.06353 0.22215 0.53837 0.0
H1202 H 0.99847 0.23723 0.57283 0.0
H1203 H 0.01565 0.27618 0.58521 0.0
H1204 H 0.01443 0.19141 0.58546 0.0
H1205 H 0.01496 0.20651 0.48807 0.0
H1206 H 0.04317 0.2134 0.50082 0.0
H1207 H 0.0183 0.23143 0.50755 0.0
C1208 C 0.06265 0.25623 0.55522 0.0
C1209 C 0.0496 0.27162 0.56893 0.0
C1210 C 0.05277 0.23412 0.54809 0.0
C1211 C 0.02959 0.227 0.55435 0.0
C1212 C 0.01635 0.24247 0.5677 0.0
H1213 H 0.97439 0.08698 0.50292 0.0
H1214 H 0.97572 0.13028 0.51274 0.0
C1215 C 0.02623 0.26463 0.57486 0.0
C1216 C 0.02009 0.20242 0.5487 0.0
H1217 H 0.01335 0.1642 0.50346 0.0
C1218 C 0.01377 0.18558 0.56749 0.0
C1219 C 0.01886 0.19493 0.52525 0.0
C1220 C 0.02395 0.21261 0.50426 0.0
C1221 C 0.00772 0.16103 0.56355 0.0
C1222 C 0.00833 0.15309 0.54027 0.0
C1223 C 0.01315 0.17027 0.52134 0.0
C1224 C 1.00628 0.12672 0.53547 0.0
C1225 C 1.00125 0.14368 0.58441 0.0
C1226 C 0.02306 0.1105 0.54492 0.0
C1227 C 0.02241 0.08594 0.53934 0.0
C1228 C 1.005 0.07706 0.52406 0.0
C1229 C 0.98797 0.09325 0.51482 0.0
C1230 C 0.98871 0.11796 0.52037 0.0
H1231 H 0.99434 0.15373 0.59927 0.0
H1232 H 0.98784 0.12966 0.57946 0.0
H1233 H 0.0172 0.13403 0.59081 0.0
H1234 H 0.03707 0.117 0.55621 0.0
H1235 H 0.03584 0.07401 0.54673 0.0
H1236 H 0.55764 0.25547 0.39732 0.0
H1237 H 0.54805 0.29728 0.4064 0.0
H1238 H 0.5843 0.28783 0.47325 0.0
H1239 H 0.59256 0.24562 0.46509 0.0
H1240 H 0.54366 0.30818 0.47879 0.0
H1241 H 0.59011 0.35787 0.40368 0.0
H1242 H 0.56861 0.33569 0.39436 0.0
H1243 H 0.59388 0.32558 0.41115 0.0
C1244 C 0.56337 0.26219 0.41406 0.0
C1245 C 0.57601 0.24716 0.4304 0.0
C1246 C 0.55822 0.28626 0.41904 0.0
C1247 C 0.56593 0.29588 0.44026 0.0
C1248 C 0.57838 0.28088 0.45664 0.0
H1249 H 0.56677 0.44923 0.47561 0.0
H1250 H 0.57743 0.40863 0.46333 0.0
C1251 C 0.58328 0.25678 0.45184 0.0
C1252 C 0.56018 0.32117 0.44605 0.0
H1253 H 0.56491 0.38156 0.42631 0.0
C1254 C 0.54841 0.32422 0.46735 0.0
C1255 C 0.56671 0.34213 0.4313 0.0
C1256 C 0.58074 0.34023 0.40897 0.0
C1257 C 0.54278 0.34759 0.47422 0.0
C1258 C 0.54833 0.36845 0.45896 0.0
C1259 C 0.5604 0.36549 0.43781 0.0
C1260 C 0.54178 0.39346 0.4648 0.0
C1261 C 0.53139 0.34966 0.49801 0.0
C1262 C 0.51817 0.39856 0.46899 0.0
C1263 C 0.51212 0.4215 0.47631 0.0
C1264 C 0.52952 0.43997 0.47906 0.0
C1265 C 0.55302 0.4353 0.47369 0.0
C1266 C 0.55911 0.41215 0.46668 0.0
H1267 H 0.53494 0.33344 0.51021 0.0
H1268 H 0.53775 0.36648 0.50647 0.0
H1269 H 0.51203 0.35058 0.49566 0.0
H1270 H 0.50443 0.38464 0.46696 0.0
H1271 H 0.4938 0.42469 0.47996 0.0
loop_
_geom_bond_atom_site_label_1
_geom_bond_atom_site_label_2
_geom_bond_distance
_geom_bond_site_symmetry_2
_ccdc_geom_bond_type
C0 C1 1.384 . S
C0 H13 0.947 . S
C0 C35 1.382 . S
C1 C0 1.384 . S
C1 C2 1.378 . S
C2 C1 1.378 . S
C2 C3 1.378 . S
C2 H14 0.952 . S
C3 C2 1.378 . S
C3 H15 0.950 . S
C3 C34 1.383 . S
H4 C23 0.947 . S
H5 C24 0.946 . S
H6 C26 0.953 . S
H7 C27 0.945 . S
H8 C29 0.952 . S
H9 C30 0.949 . S
H10 C32 0.950 . S
H11 C33 0.948 . S
H12 C35 0.951 . S
H13 C0 0.947 . S
H14 C2 0.952 . S
H15 C3 0.950 . S
N16 C19 1.382 . S
N16 C21 1.363 . S
N17 C19 1.371 . S
N17 C20 1.372 . S
N18 C20 1.361 . S
N18 C21 1.377 . S
C19 N16 1.382 . S
C19 N17 1.371 . S
C19 C22 1.480 . S
C20 N17 1.372 . S
C20 N18 1.361 . S
C20 C28 1.457 . S
C21 N16 1.363 . S
C21 N18 1.377 . S
C21 C34 1.479 . S
C22 C19 1.480 . S
C22 C23 1.383 . S
C22 C27 1.385 . S
C23 H4 0.947 . S
C23 C22 1.383 . S
C23 C24 1.388 . S
C24 H5 0.946 . S
C24 C23 1.388 . S
C24 C25 1.384 . S
C25 C24 1.384 . S
C25 C26 1.377 . S
C26 H6 0.953 . S
C26 C25 1.377 . S
C26 C27 1.369 . S
C27 H7 0.945 . S
C27 C22 1.385 . S
C27 C26 1.369 . S
C28 C20 1.457 . S
C28 C29 1.372 . S
C28 C33 1.364 . S
C29 H8 0.952 . S
C29 C28 1.372 . S
C29 C30 1.389 . S
C30 H9 0.949 . S
C30 C29 1.389 . S
C30 C31 1.387 . S
C31 C30 1.387 . S
C31 C32 1.372 . S
C32 H10 0.950 . S
C32 C31 1.372 . S
C32 C33 1.379 . S
C33 H11 0.948 . S
C33 C28 1.364 . S
C33 C32 1.379 . S
C34 C3 1.383 . S
C34 C21 1.479 . S
C34 C35 1.398 . S
C35 C0 1.382 . S
C35 H12 0.951 . S
C35 C34 1.398 . S
C36 C37 1.384 . S
C36 H49 0.947 . S
C36 C71 1.382 . S
C37 C36 1.384 . S
C37 C38 1.378 . S
C38 C37 1.378 . S
C38 C39 1.378 . S
C38 H50 0.952 . S
C39 C38 1.378 . S
C39 H51 0.950 . S
C39 C70 1.383 . S
H40 C59 0.947 . S
H41 C60 0.946 . S
H42 C62 0.953 . S
H43 C63 0.945 . S
H44 C65 0.952 . S
H45 C66 0.949 . S
H46 C68 0.950 . S
H47 C69 0.948 . S
H48 C71 0.951 . S
H49 C36 0.947 . S
H50 C38 0.952 . S
H51 C39 0.950 . S
N52 C55 1.382 . S
N52 C57 1.363 . S
N53 C55 1.371 . S
N53 C56 1.372 . S
N54 C56 1.361 . S
N54 C57 1.377 . S
C55 N52 1.382 . S
C55 N53 1.371 . S
C55 C58 1.480 . S
C56 N53 1.372 . S
C56 N54 1.361 . S
C56 C64 1.457 . S
C57 N52 1.363 . S
C57 N54 1.377 . S
C57 C70 1.479 . S
C58 C55 1.480 . S
C58 C59 1.383 . S
C58 C63 1.385 . S
C59 H40 0.947 . S
C59 C58 1.383 . S
C59 C60 1.388 . S
C60 H41 0.946 . S
C60 C59 1.388 . S
C60 C61 1.384 . S
C61 C60 1.384 . S
C61 C62 1.377 . S
C62 H42 0.953 . S
C62 C61 1.377 . S
C62 C63 1.369 . S
C63 H43 0.945 . S
C63 C58 1.385 . S
C63 C62 1.369 . S
C64 C56 1.457 . S
C64 C65 1.372 . S
C64 C69 1.364 . S
C65 H44 0.952 . S
C65 C64 1.372 . S
C65 C66 1.389 . S
C66 H45 0.949 . S
C66 C65 1.389 . S
C66 C67 1.387 . S
C67 C66 1.387 . S
C67 C68 1.372 . S
C68 H46 0.950 . S
C68 C67 1.372 . S
C68 C69 1.379 . S
C69 H47 0.948 . S
C69 C64 1.364 . S
C69 C68 1.379 . S
C70 C39 1.383 . S
C70 C57 1.479 . S
C70 C71 1.398 . S
C71 C36 1.382 . S
C71 H48 0.951 . S
C71 C70 1.398 . S
C72 C73 1.384 . S
C72 H85 0.947 . S
C72 C107 1.382 . S
C73 C72 1.384 . S
C73 C74 1.378 . S
C74 C73 1.378 . S
C74 C75 1.378 . S
C74 H86 0.952 . S
C75 C74 1.378 . S
C75 H87 0.950 . S
C75 C106 1.383 . S
H76 C95 0.947 . S
H77 C96 0.946 . S
H78 C98 0.953 . S
H79 C99 0.945 . S
H80 C101 0.952 . S
H81 C102 0.949 . S
H82 C104 0.950 . S
H83 C105 0.948 . S
H84 C107 0.951 . S
H85 C72 0.947 . S
H86 C74 0.952 . S
H87 C75 0.950 . S
N88 C91 1.382 . S
N88 C93 1.363 . S
N89 C91 1.371 . S
N89 C92 1.372 . S
N90 C92 1.361 . S
N90 C93 1.377 . S
C91 N88 1.382 . S
C91 N89 1.371 . S
C91 C94 1.480 . S
C92 N89 1.372 . S
C92 N90 1.361 . S
C92 C100 1.457 . S
C93 N88 1.363 . S
C93 N90 1.377 . S
C93 C106 1.479 . S
C94 C91 1.480 . S
C94 C95 1.383 . S
C94 C99 1.385 . S
C95 H76 0.947 . S
C95 C94 1.383 . S
C95 C96 1.388 . S
C96 H77 0.946 . S
C96 C95 1.388 . S
C96 C97 1.384 . S
C97 C96 1.384 . S
C97 C98 1.377 . S
C98 H78 0.953 . S
C98 C97 1.377 . S
C98 C99 1.369 . S
C99 H79 0.945 . S
C99 C94 1.385 . S
C99 C98 1.369 . S
C100 C92 1.457 . S
C100 C101 1.372 . S
C100 C105 1.364 . S
C101 H80 0.952 . S
C101 C100 1.372 . S
C101 C102 1.389 . S
C102 H81 0.949 . S
C102 C101 1.389 . S
C102 C103 1.387 . S
C103 C102 1.387 . S
C103 C104 1.372 . S
C104 H82 0.950 . S
C104 C103 1.372 . S
C104 C105 1.379 . S
C105 H83 0.948 . S
C105 C100 1.364 . S
C105 C104 1.379 . S
C106 C75 1.383 . S
C106 C93 1.479 . S
C106 C107 1.398 . S
C107 C72 1.382 . S
C107 H84 0.951 . S
C107 C106 1.398 . S
C108 C109 1.384 . S
C108 H121 0.947 . S
C108 C143 1.382 . S
C109 C108 1.384 . S
C109 C110 1.378 . S
C110 C109 1.378 . S
C110 C111 1.378 . S
C110 H122 0.952 . S
C111 C110 1.378 . S
C111 H123 0.950 . S
C111 C142 1.383 . S
H112 C131 0.947 . S
H113 C132 0.946 . S
H114 C134 0.953 . S
H115 C135 0.945 . S
H116 C137 0.952 . S
H117 C138 0.949 . S
H118 C140 0.950 . S
H119 C141 0.948 . S
H120 C143 0.951 . S
H121 C108 0.947 . S
H122 C110 0.952 . S
H123 C111 0.950 . S
N124 C127 1.382 . S
N124 C129 1.363 . S
N125 C127 1.371 . S
N125 C128 1.372 . S
N126 C128 1.361 . S
N126 C129 1.377 . S
C127 N124 1.382 . S
C127 N125 1.371 . S
C127 C130 1.480 . S
C128 N125 1.372 . S
C128 N126 1.361 . S
C128 C136 1.457 . S
C129 N124 1.363 . S
C129 N126 1.377 . S
C129 C142 1.479 . S
C130 C127 1.480 . S
C130 C131 1.383 . S
C130 C135 1.385 . S
C131 H112 0.947 . S
C131 C130 1.383 . S
C131 C132 1.388 . S
C132 H113 0.946 . S
C132 C131 1.388 . S
C132 C133 1.384 . S
C133 C132 1.384 . S
C133 C134 1.377 . S
C134 H114 0.953 . S
C134 C133 1.377 . S
C134 C135 1.369 . S
C135 H115 0.945 . S
C135 C130 1.385 . S
C135 C134 1.369 . S
C136 C128 1.457 . S
C136 C137 1.372 . S
C136 C141 1.364 . S
C137 H116 0.952 . S
C137 C136 1.372 . S
C137 C138 1.389 . S
C138 H117 0.949 . S
C138 C137 1.389 . S
C138 C139 1.387 . S
C139 C138 1.387 . S
C139 C140 1.372 . S
C140 H118 0.950 . S
C140 C139 1.372 . S
C140 C141 1.379 . S
C141 H119 0.948 . S
C141 C136 1.364 . S
C141 C140 1.379 . S
C142 C111 1.383 . S
C142 C129 1.479 . S
C142 C143 1.398 . S
C143 C108 1.382 . S
C143 H120 0.951 . S
C143 C142 1.398 . S
C144 C145 1.384 . S
C144 H157 0.947 . S
C144 C179 1.382 . S
C145 C144 1.384 . S
C145 C146 1.378 . S
C146 C145 1.378 . S
C146 C147 1.378 . S
C146 H158 0.952 . S
C147 C146 1.378 . S
C147 H159 0.950 . S
C147 C178 1.383 . S
H148 C167 0.947 . S
H149 C168 0.946 . S
H150 C170 0.953 . S
H151 C171 0.945 . S
H152 C173 0.952 . S
H153 C174 0.949 . S
H154 C176 0.950 . S
H155 C177 0.948 . S
H156 C179 0.951 . S
H157 C144 0.947 . S
H158 C146 0.952 . S
H159 C147 0.950 . S
N160 C163 1.382 . S
N160 C165 1.363 . S
N161 C163 1.371 . S
N161 C164 1.372 . S
N162 C164 1.361 . S
N162 C165 1.377 . S
C163 N160 1.382 . S
C163 N161 1.371 . S
C163 C166 1.480 . S
C164 N161 1.372 . S
C164 N162 1.361 . S
C164 C172 1.457 . S
C165 N160 1.363 . S
C165 N162 1.377 . S
C165 C178 1.479 . S
C166 C163 1.480 . S
C166 C167 1.383 . S
C166 C171 1.385 . S
C167 H148 0.947 . S
C167 C166 1.383 . S
C167 C168 1.388 . S
C168 H149 0.946 . S
C168 C167 1.388 . S
C168 C169 1.384 . S
C169 C168 1.384 . S
C169 C170 1.377 . S
C170 H150 0.953 . S
C170 C169 1.377 . S
C170 C171 1.369 . S
C171 H151 0.945 . S
C171 C166 1.385 . S
C171 C170 1.369 . S
C172 C164 1.457 . S
C172 C173 1.372 . S
C172 C177 1.364 . S
C173 H152 0.952 . S
C173 C172 1.372 . S
C173 C174 1.389 . S
C174 H153 0.949 . S
C174 C173 1.389 . S
C174 C175 1.387 . S
C175 C174 1.387 . S
C175 C176 1.372 . S
C176 H154 0.950 . S
C176 C175 1.372 . S
C176 C177 1.379 . S
C177 H155 0.948 . S
C177 C172 1.364 . S
C177 C176 1.379 . S
C178 C147 1.383 . S
C178 C165 1.479 . S
C178 C179 1.398 . S
C179 C144 1.382 . S
C179 H156 0.951 . S
C179 C178 1.398 . S
C180 C181 1.384 . S
C180 H193 0.947 . S
C180 C215 1.382 . S
C181 C180 1.384 . S
C181 C182 1.378 . S
C182 C181 1.378 . S
C182 C183 1.378 . S
C182 H194 0.952 . S
C183 C182 1.378 . S
C183 H195 0.950 . S
C183 C214 1.383 . S
H184 C203 0.947 . S
H185 C204 0.946 . S
H186 C206 0.953 . S
H187 C207 0.945 . S
H188 C209 0.952 . S
H189 C210 0.949 . S
H190 C212 0.950 . S
H191 C213 0.948 . S
H192 C215 0.951 . S
H193 C180 0.947 . S
H194 C182 0.952 . S
H195 C183 0.950 . S
N196 C199 1.382 . S
N196 C201 1.363 . S
N197 C199 1.371 . S
N197 C200 1.372 . S
N198 C200 1.361 . S
N198 C201 1.377 . S
C199 N196 1.382 . S
C199 N197 1.371 . S
C199 C202 1.480 . S
C200 N197 1.372 . S
C200 N198 1.361 . S
C200 C208 1.457 . S
C201 N196 1.363 . S
C201 N198 1.377 . S
C201 C214 1.479 . S
C202 C199 1.480 . S
C202 C203 1.383 . S
C202 C207 1.385 . S
C203 H184 0.947 . S
C203 C202 1.383 . S
C203 C204 1.388 . S
C204 H185 0.946 . S
C204 C203 1.388 . S
C204 C205 1.384 . S
C205 C204 1.384 . S
C205 C206 1.377 . S
C206 H186 0.953 . S
C206 C205 1.377 . S
C206 C207 1.369 . S
C207 H187 0.945 . S
C207 C202 1.385 . S
C207 C206 1.369 . S
C208 C200 1.457 . S
C208 C209 1.372 . S
C208 C213 1.364 . S
C209 H188 0.952 . S
C209 C208 1.372 . S
C209 C210 1.389 . S
C210 H189 0.949 . S
C210 C209 1.389 . S
C210 C211 1.387 . S
C211 C210 1.387 . S
C211 C212 1.372 . S
C212 H190 0.950 . S
C212 C211 1.372 . S
C212 C213 1.379 . S
C213 H191 0.948 . S
C213 C208 1.364 . S
C213 C212 1.379 . S
C214 C183 1.383 . S
C214 C201 1.479 . S
C214 C215 1.398 . S
C215 C180 1.382 . S
C215 H192 0.951 . S
C215 C214 1.398 . S
C216 C217 1.384 . S
C216 H229 0.947 . S
C216 C251 1.382 . S
C217 C216 1.384 . S
C217 C218 1.378 . S
C218 C217 1.378 . S
C218 C219 1.378 . S
C218 H230 0.952 . S
C219 C218 1.378 . S
C219 H231 0.950 . S
C219 C250 1.383 . S
H220 C239 0.947 . S
H221 C240 0.946 . S
H222 C242 0.953 . S
H223 C243 0.945 . S
H224 C245 0.952 . S
H225 C246 0.949 . S
H226 C248 0.950 . S
H227 C249 0.948 . S
H228 C251 0.951 . S
H229 C216 0.947 . S
H230 C218 0.952 . S
H231 C219 0.950 . S
N232 C235 1.382 . S
N232 C237 1.363 . S
N233 C235 1.371 . S
N233 C236 1.372 . S
N234 C236 1.361 . S
N234 C237 1.377 . S
C235 N232 1.382 . S
C235 N233 1.371 . S
C235 C238 1.480 . S
C236 N233 1.372 . S
C236 N234 1.361 . S
C236 C244 1.457 . S
C237 N232 1.363 . S
C237 N234 1.377 . S
C237 C250 1.479 . S
C238 C235 1.480 . S
C238 C239 1.383 . S
C238 C243 1.385 . S
C239 H220 0.947 . S
C239 C238 1.383 . S
C239 C240 1.388 . S
C240 H221 0.946 . S
C240 C239 1.388 . S
C240 C241 1.384 . S
C241 C240 1.384 . S
C241 C242 1.377 . S
C242 H222 0.953 . S
C242 C241 1.377 . S
C242 C243 1.369 . S
C243 H223 0.945 . S
C243 C238 1.385 . S
C243 C242 1.369 . S
C244 C236 1.457 . S
C244 C245 1.372 . S
C244 C249 1.364 . S
C245 H224 0.952 . S
C245 C244 1.372 . S
C245 C246 1.389 . S
C246 H225 0.949 . S
C246 C245 1.389 . S
C246 C247 1.387 . S
C247 C246 1.387 . S
C247 C248 1.372 . S
C248 H226 0.950 . S
C248 C247 1.372 . S
C248 C249 1.379 . S
C249 H227 0.948 . S
C249 C244 1.364 . S
C249 C248 1.379 . S
C250 C219 1.383 . S
C250 C237 1.479 . S
C250 C251 1.398 . S
C251 C216 1.382 . S
C251 H228 0.951 . S
C251 C250 1.398 . S
C252 C253 1.384 . S
C252 H265 0.947 . S
C252 C287 1.382 . S
C253 C252 1.384 . S
C253 C254 1.378 . S
C254 C253 1.378 . S
C254 C255 1.378 . S
C254 H266 0.952 . S
C255 C254 1.378 . S
C255 H267 0.950 . S
C255 C286 1.383 . S
H256 C275 0.947 . S
H257 C276 0.946 . S
H258 C278 0.953 . S
H259 C279 0.945 . S
H260 C281 0.952 . S
H261 C282 0.949 . S
H262 C284 0.950 . S
H263 C285 0.948 . S
H264 C287 0.951 . S
H265 C252 0.947 . S
H266 C254 0.952 . S
H267 C255 0.950 . S
N268 C271 1.382 . S
N268 C273 1.363 . S
N269 C271 1.371 . S
N269 C272 1.372 . S
N270 C272 1.361 . S
N270 C273 1.377 . S
C271 N268 1.382 . S
C271 N269 1.371 . S
C271 C274 1.480 . S
C272 N269 1.372 . S
C272 N270 1.361 . S
C272 C280 1.457 . S
C273 N268 1.363 . S
C273 N270 1.377 . S
C273 C286 1.479 . S
C274 C271 1.480 . S
C274 C275 1.383 . S
C274 C279 1.385 . S
C275 H256 0.947 . S
C275 C274 1.383 . S
C275 C276 1.388 . S
C276 H257 0.946 . S
C276 C275 1.388 . S
C276 C277 1.384 . S
C277 C276 1.384 . S
C277 C278 1.377 . S
C278 H258 0.953 . S
C278 C277 1.377 . S
C278 C279 1.369 . S
C279 H259 0.945 . S
C279 C274 1.385 . S
C279 C278 1.369 . S
C280 C272 1.457 . S
C280 C281 1.372 . S
C280 C285 1.364 . S
C281 H260 0.952 . S
C281 C280 1.372 . S
C281 C282 1.389 . S
C282 H261 0.949 . S
C282 C281 1.389 . S
C282 C283 1.387 . S
C283 C282 1.387 . S
C283 C284 1.372 . S
C284 H262 0.950 . S
C284 C283 1.372 . S
C284 C285 1.379 . S
C285 H263 0.948 . S
C285 C280 1.364 . S
C285 C284 1.379 . S
C286 C255 1.383 . S
C286 C273 1.479 . S
C286 C287 1.398 . S
C287 C252 1.382 . S
C287 H264 0.951 . S
C287 C286 1.398 . S
Co288 N293 2.057 . S
Co288 O305 2.021 . S
Co288 O308 2.062 . S
Co288 O312 2.117 1_545 S
Co288 O313 2.020 1_545 S
C289 O309 1.259 1_655 S
C289 O312 1.258 . S
Co290 N299 2.057 . S
Co290 O306 2.117 1_565 S
Co290 O307 2.020 1_565 S
Co290 O309 2.021 . S
Co290 O314 2.062 . S
C291 N293 1.316 . S
C291 N294 1.347 . S
C291 H296 0.931 . S
C292 N293 1.375 1_565 S
C292 C295 1.350 1_565 S
C292 H297 0.930 . S
N293 Co288 2.057 . S
N293 C291 1.316 . S
N293 C292 1.375 1_545 S
N294 C291 1.347 . S
N294 C295 1.373 . S
C295 C292 1.350 1_545 S
C295 N294 1.373 . S
C295 H316 0.931 1_545 S
H296 C291 0.931 . S
H297 C292 0.930 . S
C298 O305 1.259 1_455 S
C298 O306 1.258 . S
N299 Co290 2.057 . S
N299 C300 1.316 . S
N299 C301 1.375 1_565 S
C300 N299 1.316 . S
C300 N302 1.347 . S
C300 H311 0.931 . S
C301 N299 1.375 1_545 S
C301 C303 1.350 1_545 S
C301 H310 0.930 . S
N302 C300 1.347 . S
N302 C303 1.373 . S
C303 C301 1.350 1_565 S
C303 N302 1.373 . S
C303 H317 0.931 1_565 S
C304 O307 1.256 . S
C304 O308 1.255 1_455 S
O305 Co288 2.021 . S
O305 C298 1.259 1_655 S
O306 Co290 2.117 1_545 S
O306 C298 1.258 . S
O307 Co290 2.020 1_545 S
O307 C304 1.256 . S
O308 Co288 2.062 . S
O308 C304 1.255 1_655 S
O309 C289 1.259 1_455 S
O309 Co290 2.021 . S
H310 C301 0.930 . S
H311 C300 0.931 . S
O312 Co288 2.117 1_565 S
O312 C289 1.258 . S
O313 Co288 2.020 1_565 S
O313 C315 1.256 . S
O314 Co290 2.062 . S
O314 C315 1.255 1_455 S
C315 O313 1.256 . S
C315 O314 1.255 1_655 S
H316 C295 0.931 1_565 S
H317 C303 0.931 1_545 S
Co318 N323 2.057 . S
Co318 O335 2.021 1_565 S
Co318 O338 2.062 . S
Co318 O342 2.117 . S
Co318 O343 2.020 1_565 S
C319 O339 1.259 . S
C319 O342 1.258 1_554 S
Co320 N329 2.057 . S
Co320 O336 2.117 . S
Co320 O337 2.020 1_545 S
Co320 O339 2.021 1_545 S
Co320 O344 2.062 . S
C321 N323 1.316 . S
C321 N324 1.347 . S
C321 H326 0.931 1_565 S
C322 N323 1.375 . S
C322 C325 1.350 . S
C322 H327 0.930 . S
N323 Co318 2.057 . S
N323 C321 1.316 . S
N323 C322 1.375 . S
N324 C321 1.347 . S
N324 C325 1.373 . S
C325 C322 1.350 . S
C325 N324 1.373 . S
C325 H346 0.931 . S
H326 C321 0.931 1_545 S
H327 C322 0.930 . S
C328 O335 1.259 . S
C328 O336 1.258 1_556 S
N329 Co320 2.057 . S
N329 C330 1.316 . S
N329 C331 1.375 . S
C330 N329 1.316 . S
C330 N332 1.347 . S
C330 H341 0.931 1_545 S
C331 N329 1.375 . S
C331 C333 1.350 . S
C331 H340 0.930 . S
N332 C330 1.347 . S
N332 C333 1.373 . S
C333 C331 1.350 . S
C333 N332 1.373 . S
C333 H347 0.931 . S
C334 O337 1.256 1_556 S
C334 O338 1.255 . S
O335 Co318 2.021 1_545 S
O335 C328 1.259 . S
O336 Co320 2.117 . S
O336 C328 1.258 1_554 S
O337 Co320 2.020 1_565 S
O337 C334 1.256 1_554 S
O338 Co318 2.062 . S
O338 C334 1.255 . S
O339 C319 1.259 . S
O339 Co320 2.021 1_565 S
H340 C331 0.930 . S
H341 C330 0.931 1_565 S
O342 Co318 2.117 . S
O342 C319 1.258 1_556 S
O343 Co318 2.020 1_545 S
O343 C345 1.256 1_556 S
O344 Co320 2.062 . S
O344 C345 1.255 . S
C345 O343 1.256 1_554 S
C345 O344 1.255 . S
H346 C325 0.931 . S
H347 C333 0.931 . S
Co348 N353 2.057 . S
Co348 O365 2.021 . S
Co348 O368 2.062 . S
Co348 O372 2.117 . S
Co348 O373 2.020 . S
C349 O369 1.259 . S
C349 O372 1.258 . S
Co350 N359 2.057 . S
Co350 O366 2.117 . S
Co350 O367 2.020 . S
Co350 O369 2.021 . S
Co350 O374 2.062 . S
C351 N353 1.316 . S
C351 N354 1.347 . S
C351 H356 0.931 . S
C352 N353 1.375 . S
C352 C355 1.350 . S
C352 H357 0.930 . S
N353 Co348 2.057 . S
N353 C351 1.316 . S
N353 C352 1.375 . S
N354 C351 1.347 . S
N354 C355 1.373 . S
C355 C352 1.350 . S
C355 N354 1.373 . S
C355 H376 0.931 . S
H356 C351 0.931 . S
H357 C352 0.930 . S
C358 O365 1.259 . S
C358 O366 1.258 . S
N359 Co350 2.057 . S
N359 C360 1.316 . S
N359 C361 1.375 . S
C360 N359 1.316 . S
C360 N362 1.347 . S
C360 H371 0.931 . S
C361 N359 1.375 . S
C361 C363 1.350 . S
C361 H370 0.930 . S
N362 C360 1.347 . S
N362 C363 1.373 . S
C363 C361 1.350 . S
C363 N362 1.373 . S
C363 H377 0.931 . S
C364 O367 1.256 . S
C364 O368 1.255 . S
O365 Co348 2.021 . S
O365 C358 1.259 . S
O366 Co350 2.117 . S
O366 C358 1.258 . S
O367 Co350 2.020 . S
O367 C364 1.256 . S
O368 Co348 2.062 . S
O368 C364 1.255 . S
O369 C349 1.259 . S
O369 Co350 2.021 . S
H370 C361 0.930 . S
H371 C360 0.931 . S
O372 Co348 2.117 . S
O372 C349 1.258 . S
O373 Co348 2.020 . S
O373 C375 1.256 . S
O374 Co350 2.062 . S
O374 C375 1.255 . S
C375 O373 1.256 . S
C375 O374 1.255 . S
H376 C355 0.931 . S
H377 C363 0.931 . S
Co378 N383 2.057 . S
Co378 O395 2.021 . S
Co378 O398 2.062 . S
Co378 O402 2.117 1_455 S
Co378 O403 2.027 . S
C379 O399 1.259 1_556 S
C379 O402 1.258 . S
Co380 N389 2.057 . S
Co380 O396 2.117 1_655 S
Co380 O397 2.020 1_655 S
Co380 O399 2.021 . S
Co380 O404 2.062 . S
C381 N383 1.316 . S
C381 N384 1.347 . S
C381 H386 0.931 . S
C382 N383 1.375 1_655 S
C382 C385 1.350 1_655 S
C382 H387 0.930 . S
N383 Co378 2.057 . S
N383 C381 1.316 . S
N383 C382 1.375 1_455 S
N384 C381 1.347 . S
N384 C385 1.373 . S
C385 C382 1.350 1_455 S
C385 N384 1.373 . S
C385 H406 0.931 1_455 S
H386 C381 0.931 . S
H387 C382 0.930 . S
C388 O395 1.259 1_554 S
C388 O396 1.258 . S
N389 Co380 2.057 . S
N389 C390 1.316 . S
N389 C391 1.375 1_655 S
C390 N389 1.316 . S
C390 N392 1.347 . S
C390 H401 0.931 . S
C391 N389 1.375 1_455 S
C391 C393 1.350 1_455 S
C391 H400 0.930 . S
N392 C390 1.347 . S
N392 C393 1.373 . S
C393 C391 1.350 1_655 S
C393 N392 1.373 . S
C393 H407 0.931 1_655 S
C394 O397 1.256 . S
C394 O398 1.255 1_554 S
O395 Co378 2.021 . S
O395 C388 1.259 1_556 S
O396 Co380 2.117 1_455 S
O396 C388 1.258 . S
O397 Co380 2.020 1_455 S
O397 C394 1.256 . S
O398 Co378 2.062 . S
O398 C394 1.255 1_556 S
O399 C379 1.259 1_554 S
O399 Co380 2.021 . S
H400 C391 0.930 . S
H401 C390 0.931 . S
O402 Co378 2.117 1_655 S
O402 C379 1.258 . S
O403 Co378 2.027 . S
O403 C405 1.246 1_455 S
O404 Co380 2.062 . S
O404 C405 1.255 1_554 S
C405 O403 1.246 1_655 S
C405 O404 1.255 1_556 S
H406 C385 0.931 1_655 S
H407 C393 0.931 1_455 S
H408 C416 0.929 . S
H409 C418 0.930 . S
H410 C420 0.930 . S
H411 C423 0.929 . S
H412 C426 0.930 . S
H413 C428 0.960 . S
H414 C428 0.960 . S
H415 C428 0.960 . S
C416 H408 0.929 . S
C416 C417 1.377 . S
C416 C418 1.384 . S
C417 C416 1.377 . S
C417 C423 1.390 . S
C418 H409 0.930 . S
C418 C416 1.384 . S
C418 C419 1.372 . S
C419 C418 1.372 . S
C419 C420 1.400 . S
C419 C424 1.490 . S
C420 H410 0.930 . S
C420 C419 1.400 . S
C420 C423 1.386 . S
H421 C437 0.930 1_655 S
H422 C438 0.931 . S
C423 H411 0.929 . S
C423 C417 1.390 . S
C423 C420 1.386 . S
C424 C419 1.490 . S
C424 C426 1.395 . S
C424 C427 1.403 . S
H425 C431 0.930 . S
C426 H412 0.930 . S
C426 C424 1.395 . S
C426 C429 1.403 . S
C427 C424 1.403 . S
C427 C428 1.524 . S
C427 C431 1.400 . S
C428 H413 0.960 . S
C428 H414 0.960 . S
C428 H415 0.960 . S
C428 C427 1.524 . S
C429 C426 1.403 . S
C429 C430 1.392 . S
C429 C433 1.495 . S
C430 C429 1.392 . S
C430 C431 1.385 . S
C430 C432 1.478 . S
C431 H425 0.930 . S
C431 C427 1.400 . S
C431 C430 1.385 . S
C432 C430 1.478 . S
C432 C434 1.381 . S
C432 C438 1.383 . S
C433 C429 1.495 . S
C433 H439 0.959 . S
C433 H440 0.961 . S
C433 H441 0.960 . S
C434 C432 1.381 . S
C434 C435 1.394 . S
C434 H442 0.930 . S
C435 C434 1.394 . S
C435 C436 1.383 . S
C435 H443 0.929 . S
C436 C435 1.383 . S
C436 C437 1.377 . S
C437 H421 0.930 1_455 S
C437 C436 1.377 . S
C437 C438 1.379 . S
C438 H422 0.931 . S
C438 C432 1.383 . S
C438 C437 1.379 . S
H439 C433 0.959 . S
H440 C433 0.961 . S
H441 C433 0.960 . S
H442 C434 0.930 . S
H443 C435 0.929 . S
H444 C452 0.929 . S
H445 C454 0.930 . S
H446 C456 0.930 . S
H447 C459 0.929 . S
H448 C462 0.930 . S
H449 C464 0.960 . S
H450 C464 0.960 . S
H451 C464 0.960 . S
C452 H444 0.929 . S
C452 C453 1.377 . S
C452 C454 1.384 . S
C453 C452 1.377 . S
C453 C459 1.390 . S
C454 H445 0.930 . S
C454 C452 1.384 . S
C454 C455 1.372 . S
C455 C454 1.372 . S
C455 C456 1.400 . S
C455 C460 1.490 . S
C456 H446 0.930 . S
C456 C455 1.400 . S
C456 C459 1.386 . S
H457 C473 0.930 . S
H458 C474 0.931 . S
C459 H447 0.929 . S
C459 C453 1.390 . S
C459 C456 1.386 . S
C460 C455 1.490 . S
C460 C462 1.395 . S
C460 C463 1.403 . S
H461 C467 0.930 . S
C462 H448 0.930 . S
C462 C460 1.395 . S
C462 C465 1.403 . S
C463 C460 1.403 . S
C463 C464 1.524 . S
C463 C467 1.400 . S
C464 H449 0.960 . S
C464 H450 0.960 . S
C464 H451 0.960 . S
C464 C463 1.524 . S
C465 C462 1.403 . S
C465 C466 1.392 . S
C465 C469 1.495 . S
C466 C465 1.392 . S
C466 C467 1.385 . S
C466 C468 1.478 . S
C467 H461 0.930 . S
C467 C463 1.400 . S
C467 C466 1.385 . S
C468 C466 1.478 . S
C468 C470 1.381 . S
C468 C474 1.383 . S
C469 C465 1.495 . S
C469 H475 0.959 . S
C469 H476 0.961 . S
C469 H477 0.960 . S
C470 C468 1.381 . S
C470 C471 1.394 . S
C470 H478 0.930 . S
C471 C470 1.394 . S
C471 C472 1.383 . S
C471 H479 0.929 . S
C472 C471 1.383 . S
C472 C473 1.377 . S
C473 H457 0.930 . S
C473 C472 1.377 . S
C473 C474 1.379 . S
C474 H458 0.931 . S
C474 C468 1.383 . S
C474 C473 1.379 . S
H475 C469 0.959 . S
H476 C469 0.961 . S
H477 C469 0.960 . S
H478 C470 0.930 . S
H479 C471 0.929 . S
H480 C488 0.929 . S
H481 C490 0.930 . S
H482 C492 0.930 . S
H483 C495 0.929 . S
H484 C498 0.930 . S
H485 C500 0.960 . S
H486 C500 0.960 . S
H487 C500 0.960 . S
C488 H480 0.929 . S
C488 C489 1.377 . S
C488 C490 1.384 . S
C489 C488 1.377 . S
C489 C495 1.390 . S
C490 H481 0.930 . S
C490 C488 1.384 . S
C490 C491 1.372 . S
C491 C490 1.372 . S
C491 C492 1.400 . S
C491 C496 1.490 . S
C492 H482 0.930 . S
C492 C491 1.400 . S
C492 C495 1.386 . S
H493 C509 0.930 . S
H494 C510 0.931 . S
C495 H483 0.929 . S
C495 C489 1.390 . S
C495 C492 1.386 . S
C496 C491 1.490 . S
C496 C498 1.395 . S
C496 C499 1.403 . S
H497 C503 0.930 . S
C498 H484 0.930 . S
C498 C496 1.395 . S
C498 C501 1.403 . S
C499 C496 1.403 . S
C499 C500 1.524 . S
C499 C503 1.400 . S
C500 H485 0.960 . S
C500 H486 0.960 . S
C500 H487 0.960 . S
C500 C499 1.524 . S
C501 C498 1.403 . S
C501 C502 1.392 . S
C501 C505 1.495 . S
C502 C501 1.392 . S
C502 C503 1.385 . S
C502 C504 1.478 . S
C503 H497 0.930 . S
C503 C499 1.400 . S
C503 C502 1.385 . S
C504 C502 1.478 . S
C504 C506 1.381 . S
C504 C510 1.383 . S
C505 C501 1.495 . S
C505 H511 0.959 . S
C505 H512 0.961 . S
C505 H513 0.960 . S
C506 C504 1.381 . S
C506 C507 1.394 . S
C506 H514 0.930 . S
C507 C506 1.394 . S
C507 C508 1.383 . S
C507 H515 0.929 . S
C508 C507 1.383 . S
C508 C509 1.377 . S
C509 H493 0.930 . S
C509 C508 1.377 . S
C509 C510 1.379 . S
C510 H494 0.931 . S
C510 C504 1.383 . S
C510 C509 1.379 . S
H511 C505 0.959 . S
H512 C505 0.961 . S
H513 C505 0.960 . S
H514 C506 0.930 . S
H515 C507 0.929 . S
H516 C524 0.929 . S
H517 C526 0.930 . S
H518 C528 0.930 . S
H519 C531 0.929 . S
H520 C534 0.930 . S
H521 C536 0.960 . S
H522 C536 0.960 . S
H523 C536 0.960 . S
C524 H516 0.929 . S
C524 C525 1.377 . S
C524 C526 1.384 . S
C525 C524 1.377 . S
C525 C531 1.390 . S
C526 H517 0.930 . S
C526 C524 1.384 . S
C526 C527 1.372 . S
C527 C526 1.372 . S
C527 C528 1.400 . S
C527 C532 1.490 . S
C528 H518 0.930 . S
C528 C527 1.400 . S
C528 C531 1.386 . S
H529 C545 0.930 . S
H530 C546 0.931 . S
C531 H519 0.929 . S
C531 C525 1.390 . S
C531 C528 1.386 . S
C532 C527 1.490 . S
C532 C534 1.395 . S
C532 C535 1.403 . S
H533 C539 0.930 . S
C534 H520 0.930 . S
C534 C532 1.395 . S
C534 C537 1.403 . S
C535 C532 1.403 . S
C535 C536 1.524 . S
C535 C539 1.400 . S
C536 H521 0.960 . S
C536 H522 0.960 . S
C536 H523 0.960 . S
C536 C535 1.524 . S
C537 C534 1.403 . S
C537 C538 1.392 . S
C537 C541 1.495 . S
C538 C537 1.392 . S
C538 C539 1.385 . S
C538 C540 1.478 . S
C539 H533 0.930 . S
C539 C535 1.400 . S
C539 C538 1.385 . S
C540 C538 1.478 . S
C540 C542 1.381 . S
C540 C546 1.383 . S
C541 C537 1.495 . S
C541 H547 0.959 . S
C541 H548 0.961 . S
C541 H549 0.960 . S
C542 C540 1.381 . S
C542 C543 1.394 . S
C542 H550 0.930 . S
C543 C542 1.394 . S
C543 C544 1.383 . S
C543 H551 0.966 . S
C544 C543 1.383 . S
C544 C545 1.377 . S
C545 H529 0.930 . S
C545 C544 1.377 . S
C545 C546 1.379 . S
C546 H530 0.931 . S
C546 C540 1.383 . S
C546 C545 1.379 . S
H547 C541 0.959 . S
H548 C541 0.961 . S
H549 C541 0.960 . S
H550 C542 0.930 . S
H551 C543 0.966 . S
H552 C560 0.929 . S
H553 C562 0.930 . S
H554 C564 0.930 . S
H555 C567 0.929 . S
H556 C570 0.930 . S
H557 C572 0.960 1_565 S
H558 C572 0.960 . S
H559 C572 0.960 . S
C560 H552 0.929 . S
C560 C561 1.377 . S
C560 C562 1.384 . S
C561 C560 1.377 . S
C561 C567 1.390 . S
C562 H553 0.930 . S
C562 C560 1.384 . S
C562 C563 1.372 . S
C563 C562 1.372 . S
C563 C564 1.400 . S
C563 C568 1.490 . S
C564 H554 0.930 . S
C564 C563 1.400 . S
C564 C567 1.386 . S
H565 C581 0.930 . S
H566 C582 0.931 . S
C567 H555 0.929 . S
C567 C561 1.390 . S
C567 C564 1.386 . S
C568 C563 1.490 . S
C568 C570 1.395 . S
C568 C571 1.403 . S
H569 C575 0.930 . S
C570 H556 0.930 . S
C570 C568 1.395 . S
C570 C573 1.403 . S
C571 C568 1.403 . S
C571 C572 1.524 . S
C571 C575 1.400 . S
C572 H557 0.960 1_545 S
C572 H558 0.960 . S
C572 H559 0.960 . S
C572 C571 1.524 . S
C573 C570 1.403 . S
C573 C574 1.392 . S
C573 C577 1.495 . S
C574 C573 1.392 . S
C574 C575 1.385 . S
C574 C576 1.478 . S
C575 H569 0.930 . S
C575 C571 1.400 . S
C575 C574 1.385 . S
C576 C574 1.478 . S
C576 C578 1.381 . S
C576 C582 1.383 . S
C577 C573 1.495 . S
C577 H583 0.959 . S
C577 H584 0.961 . S
C577 H585 0.960 . S
C578 C576 1.381 . S
C578 C579 1.394 . S
C578 H586 0.930 . S
C579 C578 1.394 . S
C579 C580 1.383 . S
C579 H587 0.929 1_554 S
C580 C579 1.383 . S
C580 C581 1.377 . S
C581 H565 0.930 . S
C581 C580 1.377 . S
C581 C582 1.379 . S
C582 H566 0.931 . S
C582 C576 1.383 . S
C582 C581 1.379 . S
H583 C577 0.959 . S
H584 C577 0.961 . S
H585 C577 0.960 . S
H586 C578 0.930 . S
H587 C579 0.929 1_556 S
H588 C596 0.929 . S
H589 C598 0.930 . S
H590 C600 0.930 . S
H591 C603 0.929 . S
H592 C606 0.930 . S
H593 C608 0.960 . S
H594 C608 0.960 . S
H595 C608 0.960 . S
C596 H588 0.929 . S
C596 C597 1.377 . S
C596 C598 1.384 . S
C597 C596 1.377 . S
C597 C603 1.390 . S
C598 H589 0.930 . S
C598 C596 1.384 . S
C598 C599 1.372 . S
C599 C598 1.372 . S
C599 C600 1.400 . S
C599 C604 1.490 . S
C600 H590 0.930 . S
C600 C599 1.400 . S
C600 C603 1.386 . S
H601 C617 0.930 . S
H602 C618 0.931 . S
C603 H591 0.929 . S
C603 C597 1.390 . S
C603 C600 1.386 . S
C604 C599 1.490 . S
C604 C606 1.395 . S
C604 C607 1.403 . S
H605 C611 0.930 . S
C606 H592 0.930 . S
C606 C604 1.395 . S
C606 C609 1.403 . S
C607 C604 1.403 . S
C607 C608 1.524 . S
C607 C611 1.400 . S
C608 H593 0.960 . S
C608 H594 0.960 . S
C608 H595 0.960 . S
C608 C607 1.524 . S
C609 C606 1.403 . S
C609 C610 1.392 . S
C609 C613 1.495 . S
C610 C609 1.392 . S
C610 C611 1.385 . S
C610 C612 1.478 . S
C611 H605 0.930 . S
C611 C607 1.400 . S
C611 C610 1.385 . S
C612 C610 1.478 . S
C612 C614 1.381 . S
C612 C618 1.383 . S
C613 C609 1.495 . S
C613 H619 0.959 . S
C613 H620 0.961 . S
C613 H621 0.960 . S
C614 C612 1.381 . S
C614 C615 1.394 . S
C614 H622 0.930 . S
C615 C614 1.394 . S
C615 C616 1.383 . S
C615 H623 0.929 . S
C616 C615 1.383 . S
C616 C617 1.377 . S
C617 H601 0.930 . S
C617 C616 1.377 . S
C617 C618 1.379 . S
C618 H602 0.931 . S
C618 C612 1.383 . S
C618 C617 1.379 . S
H619 C613 0.959 . S
H620 C613 0.961 . S
H621 C613 0.960 . S
H622 C614 0.930 . S
H623 C615 0.929 . S
H624 C632 0.929 . S
H625 C634 0.930 . S
H626 C636 0.930 . S
H627 C639 0.929 . S
H628 C642 0.930 . S
H629 C644 0.960 1_554 S
H630 C644 0.960 . S
H631 C644 0.960 . S
C632 H624 0.929 . S
C632 C633 1.377 . S
C632 C634 1.384 . S
C633 C632 1.377 . S
C633 C639 1.390 . S
C634 H625 0.930 . S
C634 C632 1.384 . S
C634 C635 1.372 . S
C635 C634 1.372 . S
C635 C636 1.400 . S
C635 C640 1.490 . S
C636 H626 0.930 . S
C636 C635 1.400 . S
C636 C639 1.386 . S
H637 C653 0.930 . S
H638 C654 0.931 . S
C639 H627 0.929 . S
C639 C633 1.390 . S
C639 C636 1.386 . S
C640 C635 1.490 . S
C640 C642 1.395 . S
C640 C643 1.403 . S
H641 C647 0.930 . S
C642 H628 0.930 . S
C642 C640 1.395 . S
C642 C645 1.403 . S
C643 C640 1.403 . S
C643 C644 1.524 . S
C643 C647 1.400 . S
C644 H629 0.960 1_556 S
C644 H630 0.960 . S
C644 H631 0.960 . S
C644 C643 1.524 . S
C645 C642 1.403 . S
C645 C646 1.392 . S
C645 C649 1.495 . S
C646 C645 1.392 . S
C646 C647 1.385 . S
C646 C648 1.478 . S
C647 H641 0.930 . S
C647 C643 1.400 . S
C647 C646 1.385 . S
C648 C646 1.478 . S
C648 C650 1.381 . S
C648 C654 1.383 . S
C649 C645 1.495 . S
C649 H655 0.959 . S
C649 H656 0.961 . S
C649 H657 0.960 . S
C650 C648 1.381 . S
C650 C651 1.394 . S
C650 H658 0.930 . S
C651 C650 1.394 . S
C651 C652 1.383 . S
C651 H659 0.929 . S
C652 C651 1.383 . S
C652 C653 1.377 . S
C653 H637 0.930 . S
C653 C652 1.377 . S
C653 C654 1.379 . S
C654 H638 0.931 . S
C654 C648 1.383 . S
C654 C653 1.379 . S
H655 C649 0.959 . S
H656 C649 0.961 . S
H657 C649 0.960 . S
H658 C650 0.930 . S
H659 C651 0.929 . S
H660 C668 0.929 . S
H661 C670 0.930 . S
H662 C672 0.930 . S
H663 C675 0.929 . S
H664 C678 0.930 . S
H665 C680 0.960 . S
H666 C680 0.960 . S
H667 C680 0.960 . S
C668 H660 0.929 . S
C668 C669 1.377 . S
C668 C670 1.384 . S
C669 C668 1.377 . S
C669 C675 1.390 . S
C670 H661 0.930 . S
C670 C668 1.384 . S
C670 C671 1.372 . S
C671 C670 1.372 . S
C671 C672 1.400 . S
C671 C676 1.490 . S
C672 H662 0.930 . S
C672 C671 1.400 . S
C672 C675 1.386 . S
H673 C689 0.930 . S
H674 C690 0.931 . S
C675 H663 0.929 . S
C675 C669 1.390 . S
C675 C672 1.386 . S
C676 C671 1.490 . S
C676 C678 1.395 . S
C676 C679 1.403 . S
H677 C683 0.930 . S
C678 H664 0.930 . S
C678 C676 1.395 . S
C678 C681 1.403 . S
C679 C676 1.403 . S
C679 C680 1.524 . S
C679 C683 1.400 . S
C680 H665 0.960 . S
C680 H666 0.960 . S
C680 H667 0.960 . S
C680 C679 1.524 . S
C681 C678 1.403 . S
C681 C682 1.392 . S
C681 C685 1.495 . S
C682 C681 1.392 . S
C682 C683 1.385 . S
C682 C684 1.478 . S
C683 H677 0.930 . S
C683 C679 1.400 . S
C683 C682 1.385 . S
C684 C682 1.478 . S
C684 C686 1.381 . S
C684 C690 1.383 . S
C685 C681 1.495 . S
C685 H691 0.959 . S
C685 H692 0.961 . S
C685 H693 0.960 . S
C686 C684 1.381 . S
C686 C687 1.394 . S
C686 H694 0.930 . S
C687 C686 1.394 . S
C687 C688 1.383 . S
C687 H695 0.929 . S
C688 C687 1.383 . S
C688 C689 1.377 . S
C689 H673 0.930 . S
C689 C688 1.377 . S
C689 C690 1.379 . S
C690 H674 0.931 . S
C690 C684 1.383 . S
C690 C689 1.379 . S
H691 C685 0.959 . S
H692 C685 0.961 . S
H693 C685 0.960 . S
H694 C686 0.930 . S
H695 C687 0.929 . S
H696 C704 0.929 . S
H697 C706 0.930 . S
H698 C708 0.930 . S
H699 C711 0.929 . S
H700 C714 0.930 . S
H701 C716 0.960 . S
H702 C716 0.960 . S
H703 C716 0.960 . S
C704 H696 0.929 . S
C704 C705 1.377 . S
C704 C706 1.384 . S
C705 C704 1.377 . S
C705 C711 1.390 . S
C706 H697 0.930 . S
C706 C704 1.384 . S
C706 C707 1.372 . S
C707 C706 1.372 . S
C707 C708 1.400 . S
C707 C712 1.490 . S
C708 H698 0.930 . S
C708 C707 1.400 . S
C708 C711 1.386 . S
H709 C725 0.930 . S
H710 C726 0.931 . S
C711 H699 0.929 . S
C711 C705 1.390 . S
C711 C708 1.386 . S
C712 C707 1.490 . S
C712 C714 1.395 . S
C712 C715 1.403 . S
H713 C719 0.930 . S
C714 H700 0.930 . S
C714 C712 1.395 . S
C714 C717 1.403 . S
C715 C712 1.403 . S
C715 C716 1.524 . S
C715 C719 1.400 . S
C716 H701 0.960 . S
C716 H702 0.960 . S
C716 H703 0.960 . S
C716 C715 1.524 . S
C717 C714 1.403 . S
C717 C718 1.392 . S
C717 C721 1.495 . S
C718 C717 1.392 . S
C718 C719 1.385 . S
C718 C720 1.478 . S
C719 H713 0.930 . S
C719 C715 1.400 . S
C719 C718 1.385 . S
C720 C718 1.478 . S
C720 C722 1.381 . S
C720 C726 1.383 . S
C721 C717 1.495 . S
C721 H727 0.959 1_455 S
C721 H728 0.961 1_455 S
C721 H729 0.961 . S
C722 C720 1.381 . S
C722 C723 1.394 . S
C722 H730 0.930 1_554 S
C723 C722 1.394 . S
C723 C724 1.383 . S
C723 H731 0.929 1_554 S
C724 C723 1.383 . S
C724 C725 1.377 . S
C725 H709 0.930 . S
C725 C724 1.377 . S
C725 C726 1.379 . S
C726 H710 0.931 . S
C726 C720 1.383 . S
C726 C725 1.379 . S
H727 C721 0.959 1_655 S
H728 C721 0.961 1_655 S
H729 C721 0.961 . S
H730 C722 0.930 1_556 S
H731 C723 0.929 1_556 S
H732 C740 0.929 . S
H733 C742 0.930 . S
H734 C744 0.930 . S
H735 C747 0.929 . S
H736 C750 0.930 . S
H737 C752 0.960 . S
H738 C752 0.960 . S
H739 C752 0.960 . S
C740 H732 0.929 . S
C740 C741 1.377 . S
C740 C742 1.384 . S
C741 C740 1.377 . S
C741 C747 1.390 . S
C742 H733 0.930 . S
C742 C740 1.384 . S
C742 C743 1.372 . S
C743 C742 1.372 . S
C743 C744 1.400 . S
C743 C748 1.490 . S
C744 H734 0.930 . S
C744 C743 1.400 . S
C744 C747 1.386 . S
H745 C761 0.930 . S
H746 C762 0.931 . S
C747 H735 0.929 . S
C747 C741 1.390 . S
C747 C744 1.386 . S
C748 C743 1.490 . S
C748 C750 1.395 . S
C748 C751 1.403 . S
H749 C755 0.930 . S
C750 H736 0.930 . S
C750 C748 1.395 . S
C750 C753 1.403 . S
C751 C748 1.403 . S
C751 C752 1.524 . S
C751 C755 1.400 . S
C752 H737 0.960 . S
C752 H738 0.960 . S
C752 H739 0.960 . S
C752 C751 1.524 . S
C753 C750 1.403 . S
C753 C754 1.392 . S
C753 C757 1.495 . S
C754 C753 1.392 . S
C754 C755 1.385 . S
C754 C756 1.478 . S
C755 H749 0.930 . S
C755 C751 1.400 . S
C755 C754 1.385 . S
C756 C754 1.478 . S
C756 C758 1.381 . S
C756 C762 1.383 . S
C757 C753 1.495 . S
C757 H763 0.959 . S
C757 H764 0.961 . S
C757 H765 0.960 . S
C758 C756 1.381 . S
C758 C759 1.394 . S
C758 H766 0.930 . S
C759 C758 1.394 . S
C759 C760 1.383 . S
C759 H767 0.929 . S
C760 C759 1.383 . S
C760 C761 1.377 . S
C761 H745 0.930 . S
C761 C760 1.377 . S
C761 C762 1.379 . S
C762 H746 0.931 . S
C762 C756 1.383 . S
C762 C761 1.379 . S
H763 C757 0.959 . S
H764 C757 0.961 . S
H765 C757 0.960 . S
H766 C758 0.930 . S
H767 C759 0.929 . S
H768 C776 0.929 . S
H769 C778 0.930 . S
H770 C780 0.930 . S
H771 C783 0.929 . S
H772 C786 0.930 . S
H773 C788 0.960 . S
H774 C788 0.960 . S
H775 C788 0.960 . S
C776 H768 0.929 . S
C776 C777 1.377 . S
C776 C778 1.384 . S
C777 C776 1.377 . S
C777 C783 1.390 . S
C778 H769 0.930 . S
C778 C776 1.384 . S
C778 C779 1.372 . S
C779 C778 1.372 . S
C779 C780 1.400 . S
C779 C784 1.490 . S
C780 H770 0.930 . S
C780 C779 1.400 . S
C780 C783 1.386 . S
H781 C797 0.930 1_455 S
H782 C798 0.931 1_455 S
C783 H771 0.929 . S
C783 C777 1.390 . S
C783 C780 1.386 . S
C784 C779 1.490 . S
C784 C786 1.395 . S
C784 C787 1.403 . S
H785 C791 0.930 . S
C786 H772 0.930 . S
C786 C784 1.395 . S
C786 C789 1.403 . S
C787 C784 1.403 . S
C787 C788 1.524 . S
C787 C791 1.400 . S
C788 H773 0.960 . S
C788 H774 0.960 . S
C788 H775 0.960 . S
C788 C787 1.524 . S
C789 C786 1.403 . S
C789 C790 1.392 . S
C789 C793 1.495 . S
C790 C789 1.392 . S
C790 C791 1.385 . S
C790 C792 1.478 . S
C791 H785 0.930 . S
C791 C787 1.400 . S
C791 C790 1.385 . S
C792 C790 1.478 . S
C792 C794 1.381 . S
C792 C798 1.383 . S
C793 C789 1.495 . S
C793 H799 0.959 . S
C793 H800 0.929 1_655 S
C793 H801 0.960 . S
C794 C792 1.381 . S
C794 C795 1.394 . S
C794 H802 0.930 . S
C795 C794 1.394 . S
C795 C796 1.383 . S
C795 H803 0.929 . S
C796 C795 1.383 . S
C796 C797 1.377 . S
C797 H781 0.930 1_655 S
C797 C796 1.377 . S
C797 C798 1.379 . S
C798 H782 0.931 1_655 S
C798 C792 1.383 . S
C798 C797 1.379 . S
H799 C793 0.959 . S
H800 C793 0.929 1_455 S
H801 C793 0.960 . S
H802 C794 0.930 . S
H803 C795 0.929 . S
H804 C812 0.929 . S
H805 C814 0.930 . S
H806 C816 0.930 . S
H807 C819 0.929 . S
H808 C822 0.930 . S
H809 C824 0.960 . S
H810 C824 0.960 . S
H811 C824 0.960 . S
C812 H804 0.929 . S
C812 C813 1.377 . S
C812 C814 1.384 . S
C813 C812 1.377 . S
C813 C819 1.390 . S
C814 H805 0.930 . S
C814 C812 1.384 . S
C814 C815 1.372 . S
C815 C814 1.372 . S
C815 C816 1.400 . S
C815 C820 1.490 . S
C816 H806 0.930 . S
C816 C815 1.400 . S
C816 C819 1.386 . S
H817 C833 0.930 . S
H818 C834 0.931 . S
C819 H807 0.929 . S
C819 C813 1.390 . S
C819 C816 1.386 . S
C820 C815 1.490 . S
C820 C822 1.395 . S
C820 C823 1.403 . S
H821 C827 0.930 . S
C822 H808 0.930 . S
C822 C820 1.395 . S
C822 C825 1.403 . S
C823 C820 1.403 . S
C823 C824 1.524 . S
C823 C827 1.400 . S
C824 H809 0.960 . S
C824 H810 0.960 . S
C824 H811 0.960 . S
C824 C823 1.524 . S
C825 C822 1.403 . S
C825 C826 1.392 . S
C825 C829 1.495 . S
C826 C825 1.392 . S
C826 C827 1.385 . S
C826 C828 1.478 . S
C827 H821 0.930 . S
C827 C823 1.400 . S
C827 C826 1.385 . S
C828 C826 1.478 . S
C828 C830 1.381 . S
C828 C834 1.383 . S
C829 C825 1.495 . S
C829 H835 0.959 . S
C829 H836 0.961 . S
C829 H837 0.960 . S
C830 C828 1.381 . S
C830 C831 1.394 . S
C830 H838 0.930 . S
C831 C830 1.394 . S
C831 C832 1.383 . S
C831 H839 0.929 . S
C832 C831 1.383 . S
C832 C833 1.377 . S
C833 H817 0.930 . S
C833 C832 1.377 . S
C833 C834 1.379 . S
C834 H818 0.931 . S
C834 C828 1.383 . S
C834 C833 1.379 . S
H835 C829 0.959 . S
H836 C829 0.961 . S
H837 C829 0.960 . S
H838 C830 0.930 . S
H839 C831 0.929 . S
H840 C848 0.929 . S
H841 C850 0.930 . S
H842 C852 0.930 . S
H843 C855 0.929 . S
H844 C858 0.930 . S
H845 C860 0.960 . S
H846 C860 0.960 . S
H847 C860 0.960 . S
C848 H840 0.929 . S
C848 C849 1.377 . S
C848 C850 1.384 . S
C849 C848 1.377 . S
C849 C855 1.390 . S
C850 H841 0.930 . S
C850 C848 1.384 . S
C850 C851 1.372 . S
C851 C850 1.372 . S
C851 C852 1.400 . S
C851 C856 1.490 . S
C852 H842 0.930 . S
C852 C851 1.400 . S
C852 C855 1.386 . S
H853 C869 0.930 1_455 S
H854 C870 0.933 1_455 S
C855 H843 0.929 . S
C855 C849 1.390 . S
C855 C852 1.386 . S
C856 C851 1.490 . S
C856 C858 1.395 . S
C856 C859 1.403 . S
H857 C863 0.930 . S
C858 H844 0.930 . S
C858 C856 1.395 . S
C858 C861 1.403 . S
C859 C856 1.403 . S
C859 C860 1.524 . S
C859 C863 1.400 . S
C860 H845 0.960 . S
C860 H846 0.960 . S
C860 H847 0.960 . S
C860 C859 1.524 . S
C861 C858 1.403 . S
C861 C862 1.392 . S
C861 C865 1.495 1_565 S
C862 C861 1.392 . S
C862 C863 1.385 . S
C862 C864 1.478 . S
C863 H857 0.930 . S
C863 C859 1.400 . S
C863 C862 1.385 . S
C864 C862 1.478 . S
C864 C866 1.381 . S
C864 C870 1.383 . S
C865 C861 1.495 1_545 S
C865 H871 0.959 . S
C865 H872 0.961 . S
C865 H873 0.960 . S
C866 C864 1.381 . S
C866 C867 1.394 . S
C866 H874 0.930 . S
C867 C866 1.394 . S
C867 C868 1.383 . S
C867 H875 0.929 . S
C868 C867 1.383 . S
C868 C869 1.377 . S
C869 H853 0.930 1_655 S
C869 C868 1.377 . S
C869 C870 1.379 . S
C870 H854 0.933 1_655 S
C870 C864 1.383 . S
C870 C869 1.379 . S
H871 C865 0.959 . S
H872 C865 0.961 . S
H873 C865 0.960 . S
H874 C866 0.930 . S
H875 C867 0.929 . S
H876 C884 0.929 . S
H877 C886 0.930 . S
H878 C888 0.930 . S
H879 C891 0.929 . S
H880 C894 0.930 . S
H881 C896 0.960 . S
H882 C896 0.960 . S
H883 C896 0.960 . S
C884 H876 0.929 . S
C884 C885 1.377 . S
C884 C886 1.384 . S
C885 C884 1.377 . S
C885 C891 1.390 . S
C886 H877 0.930 . S
C886 C884 1.384 . S
C886 C887 1.372 . S
C887 C886 1.372 . S
C887 C888 1.400 . S
C887 C892 1.490 . S
C888 H878 0.930 . S
C888 C887 1.400 . S
C888 C891 1.386 . S
H889 C905 0.930 . S
H890 C906 0.931 . S
C891 H879 0.929 . S
C891 C885 1.390 . S
C891 C888 1.386 . S
C892 C887 1.490 . S
C892 C894 1.395 . S
C892 C895 1.403 . S
H893 C899 0.930 . S
C894 H880 0.930 . S
C894 C892 1.395 . S
C894 C897 1.403 . S
C895 C892 1.403 . S
C895 C896 1.524 . S
C895 C899 1.400 . S
C896 H881 0.960 . S
C896 H882 0.960 . S
C896 H883 0.960 . S
C896 C895 1.524 . S
C897 C894 1.403 . S
C897 C898 1.392 . S
C897 C901 1.495 . S
C898 C897 1.392 . S
C898 C899 1.385 . S
C898 C900 1.478 . S
C899 H893 0.930 . S
C899 C895 1.400 . S
C899 C898 1.385 . S
C900 C898 1.478 . S
C900 C902 1.381 . S
C900 C906 1.383 . S
C901 C897 1.495 . S
C901 H907 0.959 . S
C901 H908 0.961 . S
C901 H909 0.960 . S
C902 C900 1.381 . S
C902 C903 1.394 . S
C902 H910 0.930 . S
C903 C902 1.394 . S
C903 C904 1.383 . S
C903 H911 0.929 . S
C904 C903 1.383 . S
C904 C905 1.377 . S
C905 H889 0.930 . S
C905 C904 1.377 . S
C905 C906 1.379 . S
C906 H890 0.931 . S
C906 C900 1.383 . S
C906 C905 1.379 . S
H907 C901 0.959 . S
H908 C901 0.961 . S
H909 C901 0.960 . S
H910 C902 0.930 . S
H911 C903 0.929 . S
H912 C920 0.929 . S
H913 C922 0.930 . S
H914 C924 0.930 . S
H915 C927 0.929 . S
H916 C930 0.930 . S
H917 C932 0.960 . S
H918 C932 0.960 . S
H919 C932 0.960 . S
C920 H912 0.929 . S
C920 C921 1.377 . S
C920 C922 1.384 . S
C921 C920 1.377 . S
C921 C927 1.390 . S
C922 H913 0.930 . S
C922 C920 1.384 . S
C922 C923 1.372 . S
C923 C922 1.372 . S
C923 C924 1.400 . S
C923 C928 1.490 . S
C924 H914 0.930 . S
C924 C923 1.400 . S
C924 C927 1.386 . S
H925 C941 0.930 . S
H926 C942 0.931 . S
C927 H915 0.929 . S
C927 C921 1.390 . S
C927 C924 1.386 . S
C928 C923 1.490 . S
C928 C930 1.395 . S
C928 C931 1.403 . S
H929 C935 0.930 . S
C930 H916 0.930 . S
C930 C928 1.395 . S
C930 C933 1.403 . S
C931 C928 1.403 . S
C931 C932 1.524 . S
C931 C935 1.400 . S
C932 H917 0.960 . S
C932 H918 0.960 . S
C932 H919 0.960 . S
C932 C931 1.524 . S
C933 C930 1.403 . S
C933 C934 1.392 . S
C933 C937 1.495 . S
C934 C933 1.392 . S
C934 C935 1.385 . S
C934 C936 1.478 . S
C935 H929 0.930 . S
C935 C931 1.400 . S
C935 C934 1.385 . S
C936 C934 1.478 . S
C936 C938 1.381 . S
C936 C942 1.383 . S
C937 C933 1.495 . S
C937 H943 0.959 . S
C937 H944 0.961 . S
C937 H945 0.960 . S
C938 C936 1.381 . S
C938 C939 1.394 . S
C938 H946 0.930 . S
C939 C938 1.394 . S
C939 C940 1.383 . S
C939 H947 0.929 . S
C940 C939 1.383 . S
C940 C941 1.377 . S
C941 H925 0.930 . S
C941 C940 1.377 . S
C941 C942 1.379 . S
C942 H926 0.931 . S
C942 C936 1.383 . S
C942 C941 1.379 . S
H943 C937 0.959 . S
H944 C937 0.961 . S
H945 C937 0.960 . S
H946 C938 0.930 . S
H947 C939 0.929 . S
H948 C956 0.929 . S
H949 C958 0.930 . S
H950 C960 0.930 . S
H951 C963 0.929 . S
H952 C966 0.930 . S
H953 C968 0.960 . S
H954 C968 0.960 . S
H955 C968 0.960 . S
C956 H948 0.929 . S
C956 C957 1.377 . S
C956 C958 1.384 . S
C957 C956 1.377 . S
C957 C963 1.390 . S
C958 H949 0.930 . S
C958 C956 1.384 . S
C958 C959 1.372 . S
C959 C958 1.372 . S
C959 C960 1.400 . S
C959 C964 1.490 . S
C960 H950 0.930 . S
C960 C959 1.400 . S
C960 C963 1.386 . S
H961 C977 0.930 . S
H962 C978 0.931 . S
C963 H951 0.929 . S
C963 C957 1.390 . S
C963 C960 1.386 . S
C964 C959 1.490 . S
C964 C966 1.395 . S
C964 C967 1.403 . S
H965 C971 0.930 . S
C966 H952 0.930 . S
C966 C964 1.395 . S
C966 C969 1.403 . S
C967 C964 1.403 . S
C967 C968 1.524 . S
C967 C971 1.400 . S
C968 H953 0.960 . S
C968 H954 0.960 . S
C968 H955 0.960 . S
C968 C967 1.524 . S
C969 C966 1.403 . S
C969 C970 1.392 . S
C969 C973 1.495 . S
C970 C969 1.392 . S
C970 C971 1.385 . S
C970 C972 1.478 . S
C971 H965 0.930 . S
C971 C967 1.400 . S
C971 C970 1.385 . S
C972 C970 1.478 . S
C972 C974 1.381 . S
C972 C978 1.383 . S
C973 C969 1.495 . S
C973 H979 0.959 . S
C973 H980 0.961 . S
C973 H981 0.960 . S
C974 C972 1.381 . S
C974 C975 1.394 . S
C974 H982 0.930 . S
C975 C974 1.394 . S
C975 C976 1.383 . S
C975 H983 0.929 . S
C976 C975 1.383 . S
C976 C977 1.377 . S
C977 H961 0.930 . S
C977 C976 1.377 . S
C977 C978 1.379 . S
C978 H962 0.931 . S
C978 C972 1.383 . S
C978 C977 1.379 . S
H979 C973 0.959 . S
H980 C973 0.961 . S
H981 C973 0.960 . S
H982 C974 0.930 . S
H983 C975 0.929 . S
H984 C992 0.929 . S
H985 C994 0.930 . S
H986 C996 0.930 . S
H987 C999 0.929 . S
H988 C1002 0.930 . S
H989 C1004 0.960 . S
H990 C1004 0.960 . S
H991 C1004 0.960 . S
C992 H984 0.929 . S
C992 C993 1.377 . S
C992 C994 1.384 . S
C993 C992 1.377 . S
C993 C999 1.390 . S
C994 H985 0.930 . S
C994 C992 1.384 . S
C994 C995 1.372 . S
C995 C994 1.372 . S
C995 C996 1.400 . S
C995 C1000 1.490 . S
C996 H986 0.930 . S
C996 C995 1.400 . S
C996 C999 1.386 . S
H997 C1013 0.930 1_554 S
H998 C1014 0.931 . S
C999 H987 0.929 . S
C999 C993 1.390 . S
C999 C996 1.386 . S
C1000 C995 1.490 . S
C1000 C1002 1.395 . S
C1000 C1003 1.403 . S
H1001 C1007 0.930 . S
C1002 H988 0.930 . S
C1002 C1000 1.395 . S
C1002 C1005 1.403 . S
C1003 C1000 1.403 . S
C1003 C1004 1.524 . S
C1003 C1007 1.400 . S
C1004 H989 0.960 . S
C1004 H990 0.960 . S
C1004 H991 0.960 . S
C1004 C1003 1.524 . S
C1005 C1002 1.403 . S
C1005 C1006 1.392 . S
C1005 C1009 1.495 . S
C1006 C1005 1.392 . S
C1006 C1007 1.385 . S
C1006 C1008 1.478 . S
C1007 H1001 0.930 . S
C1007 C1003 1.400 . S
C1007 C1006 1.385 . S
C1008 C1006 1.478 . S
C1008 C1010 1.381 . S
C1008 C1014 1.383 . S
C1009 C1005 1.495 . S
C1009 H1015 0.959 . S
C1009 H1016 0.961 . S
C1009 H1017 0.960 . S
C1010 C1008 1.381 . S
C1010 C1011 1.394 . S
C1010 H1018 0.930 . S
C1011 C1010 1.394 . S
C1011 C1012 1.383 . S
C1011 H1019 0.929 . S
C1012 C1011 1.383 . S
C1012 C1013 1.377 . S
C1013 H997 0.930 1_556 S
C1013 C1012 1.377 . S
C1013 C1014 1.379 . S
C1014 H998 0.931 . S
C1014 C1008 1.383 . S
C1014 C1013 1.379 . S
H1015 C1009 0.959 . S
H1016 C1009 0.961 . S
H1017 C1009 0.960 . S
H1018 C1010 0.930 . S
H1019 C1011 0.929 . S
H1020 C1028 0.929 . S
H1021 C1030 0.930 . S
H1022 C1032 0.930 . S
H1023 C1035 0.929 . S
H1024 C1038 0.930 . S
H1025 C1040 0.960 . S
H1026 C1040 0.960 . S
H1027 C1040 0.960 . S
C1028 H1020 0.929 . S
C1028 C1029 1.377 . S
C1028 C1030 1.384 . S
C1029 C1028 1.377 . S
C1029 C1035 1.390 . S
C1030 H1021 0.930 . S
C1030 C1028 1.384 . S
C1030 C1031 1.372 . S
C1031 C1030 1.372 . S
C1031 C1032 1.400 . S
C1031 C1036 1.490 . S
C1032 H1022 0.930 . S
C1032 C1031 1.400 . S
C1032 C1035 1.386 . S
H1033 C1049 0.930 . S
H1034 C1050 0.931 . S
C1035 H1023 0.929 . S
C1035 C1029 1.390 . S
C1035 C1032 1.386 . S
C1036 C1031 1.490 . S
C1036 C1038 1.395 . S
C1036 C1039 1.403 . S
H1037 C1043 0.930 . S
C1038 H1024 0.930 . S
C1038 C1036 1.395 . S
C1038 C1041 1.403 . S
C1039 C1036 1.403 . S
C1039 C1040 1.524 . S
C1039 C1043 1.400 . S
C1040 H1025 0.960 . S
C1040 H1026 0.960 . S
C1040 H1027 0.960 . S
C1040 C1039 1.524 . S
C1041 C1038 1.403 . S
C1041 C1042 1.392 . S
C1041 C1045 1.495 . S
C1042 C1041 1.392 . S
C1042 C1043 1.385 . S
C1042 C1044 1.478 . S
C1043 H1037 0.930 . S
C1043 C1039 1.400 . S
C1043 C1042 1.385 . S
C1044 C1042 1.478 . S
C1044 C1046 1.381 . S
C1044 C1050 1.383 . S
C1045 C1041 1.495 . S
C1045 H1051 0.959 . S
C1045 H1052 0.961 . S
C1045 H1053 0.960 . S
C1046 C1044 1.381 . S
C1046 C1047 1.394 . S
C1046 H1054 0.930 . S
C1047 C1046 1.394 . S
C1047 C1048 1.383 . S
C1047 H1055 0.929 . S
C1048 C1047 1.383 . S
C1048 C1049 1.377 . S
C1049 H1033 0.930 . S
C1049 C1048 1.377 . S
C1049 C1050 1.379 . S
C1050 H1034 0.931 . S
C1050 C1044 1.383 . S
C1050 C1049 1.379 . S
H1051 C1045 0.959 . S
H1052 C1045 0.961 . S
H1053 C1045 0.960 . S
H1054 C1046 0.930 . S
H1055 C1047 0.929 . S
H1056 C1064 0.929 . S
H1057 C1066 0.930 . S
H1058 C1068 0.930 . S
H1059 C1071 0.929 . S
H1060 C1074 0.930 . S
H1061 C1076 0.960 . S
H1062 C1076 0.960 . S
H1063 C1076 0.960 . S
C1064 H1056 0.929 . S
C1064 C1065 1.377 . S
C1064 C1066 1.384 . S
C1065 C1064 1.377 . S
C1065 C1071 1.390 . S
C1066 H1057 0.930 . S
C1066 C1064 1.384 . S
C1066 C1067 1.372 . S
C1067 C1066 1.372 . S
C1067 C1068 1.400 . S
C1067 C1072 1.490 . S
C1068 H1058 0.930 . S
C1068 C1067 1.400 . S
C1068 C1071 1.386 . S
H1069 C1085 0.930 . S
H1070 C1086 0.931 . S
C1071 H1059 0.929 . S
C1071 C1065 1.390 . S
C1071 C1068 1.386 . S
C1072 C1067 1.490 . S
C1072 C1074 1.395 . S
C1072 C1075 1.403 . S
H1073 C1079 0.930 . S
C1074 H1060 0.930 . S
C1074 C1072 1.395 . S
C1074 C1077 1.403 . S
C1075 C1072 1.403 . S
C1075 C1076 1.524 . S
C1075 C1079 1.400 . S
C1076 H1061 0.960 . S
C1076 H1062 0.960 . S
C1076 H1063 0.960 . S
C1076 C1075 1.524 . S
C1077 C1074 1.403 . S
C1077 C1078 1.392 . S
C1077 C1081 1.495 . S
C1078 C1077 1.392 . S
C1078 C1079 1.385 . S
C1078 C1080 1.478 . S
C1079 H1073 0.930 . S
C1079 C1075 1.400 . S
C1079 C1078 1.385 . S
C1080 C1078 1.478 . S
C1080 C1082 1.381 . S
C1080 C1086 1.383 . S
C1081 C1077 1.495 . S
C1081 H1087 0.959 . S
C1081 H1088 0.961 . S
C1081 H1089 0.960 . S
C1082 C1080 1.381 . S
C1082 C1083 1.394 . S
C1082 H1090 0.930 . S
C1083 C1082 1.394 . S
C1083 C1084 1.383 . S
C1083 H1091 0.929 1_554 S
C1084 C1083 1.383 . S
C1084 C1085 1.377 . S
C1085 H1069 0.930 . S
C1085 C1084 1.377 . S
C1085 C1086 1.379 . S
C1086 H1070 0.931 . S
C1086 C1080 1.383 . S
C1086 C1085 1.379 . S
H1087 C1081 0.959 . S
H1088 C1081 0.961 . S
H1089 C1081 0.960 . S
H1090 C1082 0.930 . S
H1091 C1083 0.929 1_556 S
H1092 C1100 0.929 . S
H1093 C1102 0.930 . S
H1094 C1104 0.930 . S
H1095 C1107 0.929 . S
H1096 C1110 0.930 . S
H1097 C1112 0.960 . S
H1098 C1112 0.960 . S
H1099 C1112 0.960 . S
C1100 H1092 0.929 . S
C1100 C1101 1.377 . S
C1100 C1102 1.384 . S
C1101 C1100 1.377 . S
C1101 C1107 1.390 . S
C1102 H1093 0.930 . S
C1102 C1100 1.384 . S
C1102 C1103 1.372 . S
C1103 C1102 1.372 . S
C1103 C1104 1.400 . S
C1103 C1108 1.490 . S
C1104 H1094 0.930 . S
C1104 C1103 1.400 . S
C1104 C1107 1.386 . S
H1105 C1121 0.930 . S
H1106 C1122 0.931 . S
C1107 H1095 0.929 . S
C1107 C1101 1.390 . S
C1107 C1104 1.386 . S
C1108 C1103 1.490 . S
C1108 C1110 1.395 . S
C1108 C1111 1.403 . S
H1109 C1115 0.930 . S
C1110 H1096 0.930 . S
C1110 C1108 1.395 . S
C1110 C1113 1.403 . S
C1111 C1108 1.403 . S
C1111 C1112 1.524 . S
C1111 C1115 1.400 . S
C1112 H1097 0.960 . S
C1112 H1098 0.960 . S
C1112 H1099 0.960 . S
C1112 C1111 1.524 . S
C1113 C1110 1.403 . S
C1113 C1114 1.392 . S
C1113 C1117 1.495 . S
C1114 C1113 1.392 . S
C1114 C1115 1.385 . S
C1114 C1116 1.478 . S
C1115 H1109 0.930 . S
C1115 C1111 1.400 . S
C1115 C1114 1.385 . S
C1116 C1114 1.478 . S
C1116 C1118 1.381 . S
C1116 C1122 1.383 . S
C1117 C1113 1.495 . S
C1117 H1123 0.959 . S
C1117 H1124 0.961 . S
C1117 H1125 0.960 . S
C1118 C1116 1.381 . S
C1118 C1119 1.394 . S
C1118 H1126 0.930 . S
C1119 C1118 1.394 . S
C1119 C1120 1.383 . S
C1119 H1127 0.929 . S
C1120 C1119 1.383 . S
C1120 C1121 1.377 . S
C1121 H1105 0.930 . S
C1121 C1120 1.377 . S
C1121 C1122 1.379 . S
C1122 H1106 0.931 . S
C1122 C1116 1.383 . S
C1122 C1121 1.379 . S
H1123 C1117 0.959 . S
H1124 C1117 0.961 . S
H1125 C1117 0.960 . S
H1126 C1118 0.930 . S
H1127 C1119 0.929 . S
H1128 C1136 0.929 . S
H1129 C1138 0.930 . S
H1130 C1140 0.930 . S
H1131 C1143 0.929 . S
H1132 C1146 0.930 . S
H1133 C1148 0.960 . S
H1134 C1148 0.960 . S
H1135 C1148 0.960 . S
C1136 H1128 0.929 . S
C1136 C1137 1.377 . S
C1136 C1138 1.384 . S
C1137 C1136 1.377 . S
C1137 C1143 1.390 . S
C1138 H1129 0.930 . S
C1138 C1136 1.384 . S
C1138 C1139 1.372 . S
C1139 C1138 1.372 . S
C1139 C1140 1.400 . S
C1139 C1144 1.490 . S
C1140 H1130 0.930 . S
C1140 C1139 1.400 . S
C1140 C1143 1.386 . S
H1141 C1157 0.930 1_554 S
H1142 C1158 0.931 1_554 S
C1143 H1131 0.929 . S
C1143 C1137 1.390 . S
C1143 C1140 1.386 . S
C1144 C1139 1.490 . S
C1144 C1146 1.395 . S
C1144 C1147 1.403 . S
H1145 C1151 0.930 . S
C1146 H1132 0.930 . S
C1146 C1144 1.395 . S
C1146 C1149 1.403 . S
C1147 C1144 1.403 . S
C1147 C1148 1.524 . S
C1147 C1151 1.400 . S
C1148 H1133 0.960 . S
C1148 H1134 0.960 . S
C1148 H1135 0.960 . S
C1148 C1147 1.524 . S
C1149 C1146 1.403 . S
C1149 C1150 1.392 . S
C1149 C1153 1.495 1_655 S
C1150 C1149 1.392 . S
C1150 C1151 1.385 . S
C1150 C1152 1.478 . S
C1151 H1145 0.930 . S
C1151 C1147 1.400 . S
C1151 C1150 1.385 . S
C1152 C1150 1.478 . S
C1152 C1154 1.381 . S
C1152 C1158 1.383 . S
C1153 C1149 1.495 1_455 S
C1153 H1159 0.959 . S
C1153 H1160 0.961 . S
C1153 H1161 0.960 . S
C1154 C1152 1.381 . S
C1154 C1155 1.394 . S
C1154 H1162 0.930 . S
C1155 C1154 1.394 . S
C1155 C1156 1.383 . S
C1155 H1163 0.929 . S
C1156 C1155 1.383 . S
C1156 C1157 1.377 . S
C1157 H1141 0.930 1_556 S
C1157 C1156 1.377 . S
C1157 C1158 1.379 . S
C1158 H1142 0.931 1_556 S
C1158 C1152 1.383 . S
C1158 C1157 1.379 . S
H1159 C1153 0.959 . S
H1160 C1153 0.961 . S
H1161 C1153 0.960 . S
H1162 C1154 0.930 . S
H1163 C1155 0.929 . S
H1164 C1172 0.929 . S
H1165 C1174 0.930 . S
H1166 C1176 0.930 . S
H1167 C1179 0.929 . S
H1168 C1182 0.930 . S
H1169 C1184 0.960 . S
H1170 C1184 0.960 . S
H1171 C1184 0.960 . S
C1172 H1164 0.929 . S
C1172 C1173 1.377 . S
C1172 C1174 1.384 . S
C1173 C1172 1.377 . S
C1173 C1179 1.390 . S
C1174 H1165 0.930 . S
C1174 C1172 1.384 . S
C1174 C1175 1.372 . S
C1175 C1174 1.372 . S
C1175 C1176 1.400 . S
C1175 C1180 1.490 . S
C1176 H1166 0.930 . S
C1176 C1175 1.400 . S
C1176 C1179 1.386 . S
H1177 C1193 0.930 . S
H1178 C1194 0.931 . S
C1179 H1167 0.929 . S
C1179 C1173 1.390 . S
C1179 C1176 1.386 . S
C1180 C1175 1.490 . S
C1180 C1182 1.395 . S
C1180 C1183 1.403 . S
H1181 C1187 0.930 . S
C1182 H1168 0.930 . S
C1182 C1180 1.395 . S
C1182 C1185 1.403 . S
C1183 C1180 1.403 . S
C1183 C1184 1.524 . S
C1183 C1187 1.400 . S
C1184 H1169 0.960 . S
C1184 H1170 0.960 . S
C1184 H1171 0.960 . S
C1184 C1183 1.524 . S
C1185 C1182 1.403 . S
C1185 C1186 1.392 . S
C1185 C1189 1.495 . S
C1186 C1185 1.392 . S
C1186 C1187 1.385 . S
C1186 C1188 1.478 . S
C1187 H1181 0.930 . S
C1187 C1183 1.400 . S
C1187 C1186 1.385 . S
C1188 C1186 1.478 . S
C1188 C1190 1.381 . S
C1188 C1194 1.383 . S
C1189 C1185 1.495 . S
C1189 H1195 0.959 . S
C1189 H1196 0.961 . S
C1189 H1197 0.960 . S
C1190 C1188 1.381 . S
C1190 C1191 1.394 . S
C1190 H1198 0.930 . S
C1191 C1190 1.394 . S
C1191 C1192 1.383 . S
C1191 H1199 0.929 1_554 S
C1192 C1191 1.383 . S
C1192 C1193 1.377 . S
C1193 H1177 0.930 . S
C1193 C1192 1.377 . S
C1193 C1194 1.379 . S
C1194 H1178 0.931 . S
C1194 C1188 1.383 . S
C1194 C1193 1.379 . S
H1195 C1189 0.959 . S
H1196 C1189 0.961 . S
H1197 C1189 0.960 . S
H1198 C1190 0.930 . S
H1199 C1191 0.929 1_556 S
H1200 C1208 0.929 . S
H1201 C1210 0.930 . S
H1202 C1212 0.930 . S
H1203 C1215 0.929 . S
H1204 C1218 0.930 . S
H1205 C1220 0.960 1_655 S
H1206 C1220 0.960 . S
H1207 C1220 0.960 . S
C1208 H1200 0.929 . S
C1208 C1209 1.377 . S
C1208 C1210 1.384 . S
C1209 C1208 1.377 . S
C1209 C1215 1.390 . S
C1210 H1201 0.930 . S
C1210 C1208 1.384 . S
C1210 C1211 1.372 . S
C1211 C1210 1.372 . S
C1211 C1212 1.400 . S
C1211 C1216 1.490 . S
C1212 H1202 0.930 . S
C1212 C1211 1.400 . S
C1212 C1215 1.386 . S
H1213 C1229 0.930 1_655 S
H1214 C1230 0.931 . S
C1215 H1203 0.929 . S
C1215 C1209 1.390 . S
C1215 C1212 1.386 . S
C1216 C1211 1.490 . S
C1216 C1218 1.395 . S
C1216 C1219 1.403 . S
H1217 C1223 0.930 . S
C1218 H1204 0.930 . S
C1218 C1216 1.395 . S
C1218 C1221 1.403 . S
C1219 C1216 1.403 . S
C1219 C1220 1.524 . S
C1219 C1223 1.400 . S
C1220 H1205 0.960 1_455 S
C1220 H1206 0.960 . S
C1220 H1207 0.960 . S
C1220 C1219 1.524 . S
C1221 C1218 1.403 . S
C1221 C1222 1.392 . S
C1221 C1225 1.495 . S
C1222 C1221 1.392 . S
C1222 C1223 1.385 . S
C1222 C1224 1.478 . S
C1223 H1217 0.930 . S
C1223 C1219 1.400 . S
C1223 C1222 1.385 . S
C1224 C1222 1.478 . S
C1224 C1226 1.381 . S
C1224 C1230 1.383 . S
C1225 C1221 1.495 . S
C1225 H1231 0.959 . S
C1225 H1232 0.961 . S
C1225 H1233 0.960 . S
C1226 C1224 1.381 . S
C1226 C1227 1.394 . S
C1226 H1234 0.930 . S
C1227 C1226 1.394 . S
C1227 C1228 1.383 . S
C1227 H1235 0.929 . S
C1228 C1227 1.383 . S
C1228 C1229 1.377 . S
C1229 H1213 0.930 1_455 S
C1229 C1228 1.377 . S
C1229 C1230 1.379 . S
C1230 H1214 0.931 . S
C1230 C1224 1.383 . S
C1230 C1229 1.379 . S
H1231 C1225 0.959 . S
H1232 C1225 0.961 . S
H1233 C1225 0.960 . S
H1234 C1226 0.930 . S
H1235 C1227 0.929 . S
H1236 C1244 0.929 . S
H1237 C1246 0.930 . S
H1238 C1248 0.930 . S
H1239 C1251 0.929 . S
H1240 C1254 0.930 . S
H1241 C1256 0.960 . S
H1242 C1256 0.960 . S
H1243 C1256 0.960 . S
C1244 H1236 0.929 . S
C1244 C1245 1.377 . S
C1244 C1246 1.384 . S
C1245 C1244 1.377 . S
C1245 C1251 1.390 . S
C1246 H1237 0.930 . S
C1246 C1244 1.384 . S
C1246 C1247 1.372 . S
C1247 C1246 1.372 . S
C1247 C1248 1.400 . S
C1247 C1252 1.490 . S
C1248 H1238 0.930 . S
C1248 C1247 1.400 . S
C1248 C1251 1.386 . S
H1249 C1265 0.930 . S
H1250 C1266 0.931 . S
C1251 H1239 0.929 . S
C1251 C1245 1.390 . S
C1251 C1248 1.386 . S
C1252 C1247 1.490 . S
C1252 C1254 1.395 . S
C1252 C1255 1.403 . S
H1253 C1259 0.930 . S
C1254 H1240 0.930 . S
C1254 C1252 1.395 . S
C1254 C1257 1.403 . S
C1255 C1252 1.403 . S
C1255 C1256 1.524 . S
C1255 C1259 1.400 . S
C1256 H1241 0.960 . S
C1256 H1242 0.960 . S
C1256 H1243 0.960 . S
C1256 C1255 1.524 . S
C1257 C1254 1.403 . S
C1257 C1258 1.392 . S
C1257 C1261 1.495 . S
C1258 C1257 1.392 . S
C1258 C1259 1.385 . S
C1258 C1260 1.478 . S
C1259 H1253 0.930 . S
C1259 C1255 1.400 . S
C1259 C1258 1.385 . S
C1260 C1258 1.478 . S
C1260 C1262 1.381 . S
C1260 C1266 1.383 . S
C1261 C1257 1.495 . S
C1261 H1267 0.959 . S
C1261 H1268 0.961 . S
C1261 H1269 0.960 . S
C1262 C1260 1.381 . S
C1262 C1263 1.394 . S
C1262 H1270 0.930 . S
C1263 C1262 1.394 . S
C1263 C1264 1.383 . S
C1263 H1271 0.929 . S
C1264 C1263 1.383 . S
C1264 C1265 1.377 . S
C1265 H1249 0.930 . S
C1265 C1264 1.377 . S
C1265 C1266 1.379 . S
C1266 H1250 0.931 . S
C1266 C1260 1.383 . S
C1266 C1265 1.379 . S
H1267 C1261 0.959 . S
H1268 C1261 0.961 . S
H1269 C1261 0.960 . S
H1270 C1262 0.930 . S
H1271 C1263 0.929 . S
C417 C1 2.156 . S
C436 C304 2.183 . S
C453 C67 1.090 . S
C472 N324 1.052 . S
C508 C358 1.967 . S
C489 C97 1.934 . S
C525 C133 1.342 . S
C544 N392 1.247 . S
C580 C345 2.378 . S
C561 C25 2.343 . S
C616 N302 1.128 . S
C597 C37 1.190 . S
C652 C379 1.967 . S
C633 C103 1.934 . S
C688 N354 1.024 . S
C669 C109 1.010 . S
C705 C31 1.827 . S
C724 C394 1.860 . S
C760 C328 1.689 . S
C741 C73 1.670 . S
C777 C139 1.491 . S
C796 C289 1.484 . S
C813 C61 1.435 . S
C832 C375 1.459 . S
C868 C315 2.191 . S
C849 C175 2.194 . S
C885 C181 1.085 . S
C904 N332 1.069 . S
C921 C247 1.989 . S
C940 C349 1.978 . S
C957 C277 1.329 . S
C976 N384 1.247 . S
C993 C145 2.371 . S
C1012 C334 2.372 . S
C1048 N294 1.174 . S
C1029 C211 1.198 . S
C1084 C388 1.944 . S
C1065 C217 1.944 . S
C1120 N362 1.045 . S
C1101 C283 1.030 . S
C1137 C169 1.849 . S
C1156 C405 1.853 . S
C1192 C319 1.699 . S
C1173 C241 1.697 . S
C1228 C298 1.486 . S
C1209 C253 1.479 . S
C1245 C205 1.437 . S
C1264 C364 1.465 . S
