# Generated by pormake.
# Topology pyr, (3,6)-cn, num edge types: 1
# Building blocks:
#     Node 0, Type 0, BuildingBlock: QEWDON_clean_linker_0, # of connection points: 3
#     Node 1, Type 0, BuildingBlock: QEWDON_clean_linker_0, # of connection points: 3
#     Node 2, Type 0, BuildingBlock: QEWDON_clean_linker_0, # of connection points: 3
#     Node 3, Type 0, BuildingBlock: QEWDON_clean_linker_0, # of connection points: 3
#     Node 4, Type 0, BuildingBlock: QEWDON_clean_linker_0, # of connection points: 3
#     Node 5, Type 0, BuildingBlock: QEWDON_clean_linker_0, # of connection points: 3
#     Node 6, Type 0, BuildingBlock: QEWDON_clean_linker_0, # of connection points: 3
#     Node 7, Type 0, BuildingBlock: QEWDON_clean_linker_0, # of connection points: 3
#     Node 8, Type 1, BuildingBlock: BETFEN_clean_sbu_0, # of connection points: 6
#     Node 9, Type 1, BuildingBlock: BETFEN_clean_sbu_0, # of connection points: 6
#     Node 10, Type 1, BuildingBlock: BETFEN_clean_sbu_0, # of connection points: 6
#     Node 11, Type 1, BuildingBlock: BETFEN_clean_sbu_0, # of connection points: 6
#     Edge 12, Type (0, 1), BuildingBlock: UVAHIK_clean_linker_0, # of connection points: 2
#     Edge 13, Type (0, 1), BuildingBlock: UVAHIK_clean_linker_0, # of connection points: 2
#     Edge 14, Type (0, 1), BuildingBlock: UVAHIK_clean_linker_0, # of connection points: 2
#     Edge 15, Type (0, 1), BuildingBlock: UVAHIK_clean_linker_0, # of connection points: 2
#     Edge 16, Type (0, 1), BuildingBlock: UVAHIK_clean_linker_0, # of connection points: 2
#     Edge 17, Type (0, 1), BuildingBlock: UVAHIK_clean_linker_0, # of connection points: 2
#     Edge 18, Type (0, 1), BuildingBlock: UVAHIK_clean_linker_0, # of connection points: 2
#     Edge 19, Type (0, 1), BuildingBlock: UVAHIK_clean_linker_0, # of connection points: 2
#     Edge 20, Type (0, 1), BuildingBlock: UVAHIK_clean_linker_0, # of connection points: 2
#     Edge 21, Type (0, 1), BuildingBlock: UVAHIK_clean_linker_0, # of connection points: 2
#     Edge 22, Type (0, 1), BuildingBlock: UVAHIK_clean_linker_0, # of connection points: 2
#     Edge 23, Type (0, 1), BuildingBlock: UVAHIK_clean_linker_0, # of connection points: 2
#     Edge 24, Type (0, 1), BuildingBlock: UVAHIK_clean_linker_0, # of connection points: 2
#     Edge 25, Type (0, 1), BuildingBlock: UVAHIK_clean_linker_0, # of connection points: 2
#     Edge 26, Type (0, 1), BuildingBlock: UVAHIK_clean_linker_0, # of connection points: 2
#     Edge 27, Type (0, 1), BuildingBlock: UVAHIK_clean_linker_0, # of connection points: 2
#     Edge 28, Type (0, 1), BuildingBlock: UVAHIK_clean_linker_0, # of connection points: 2
#     Edge 29, Type (0, 1), BuildingBlock: UVAHIK_clean_linker_0, # of connection points: 2
#     Edge 30, Type (0, 1), BuildingBlock: UVAHIK_clean_linker_0, # of connection points: 2
#     Edge 31, Type (0, 1), BuildingBlock: UVAHIK_clean_linker_0, # of connection points: 2
#     Edge 32, Type (0, 1), BuildingBlock: UVAHIK_clean_linker_0, # of connection points: 2
#     Edge 33, Type (0, 1), BuildingBlock: UVAHIK_clean_linker_0, # of connection points: 2
#     Edge 34, Type (0, 1), BuildingBlock: UVAHIK_clean_linker_0, # of connection points: 2
#     Edge 35, Type (0, 1), BuildingBlock: UVAHIK_clean_linker_0, # of connection points: 2
# Relax obj value: 0.148
# Max RMSD: 0.291
# Mean RMSD: 0.179
data_MOF--net-pyr--node1-BETFEN_clean_sbu_0--node2-QEWDON_clean_linker_0--edge1-UVAHIK_clean_linker_0
_symmetry_space_group_name_H-M    P1
_symmetry_Int_Tables_number       1
_symmetry_cell_setting            triclinic
loop_
_symmetry_equiv_pos_as_xyz
'x, y, z'
_cell_length_a     46.955667
_cell_length_b     50.632955
_cell_length_c     51.694822
_cell_angle_alpha  90.924758
_cell_angle_beta   99.538669
_cell_angle_gamma 116.08247
loop_
_atom_site_label
_atom_site_type_symbol
_atom_site_fract_x
_atom_site_fract_y
_atom_site_fract_z
_atom_type_partial_charge
H0 H 0.39364 0.37934 0.23519 0.0
C1 C 0.38398 0.37205 0.25284 0.0
C2 C 0.37278 0.34231 0.25769 0.0
C3 C 0.38225 0.39232 0.27058 0.0
H4 H 0.35137 0.31009 0.28413 0.0
C5 C 0.3601 0.33312 0.28046 0.0
C6 C 0.35862 0.35324 0.29855 0.0
C7 C 0.36963 0.38293 0.29341 0.0
C8 C 0.39249 0.42313 0.26469 0.0
H9 H 0.36843 0.39871 0.30708 0.0
C10 C 0.3717 0.43028 0.24678 0.0
C11 C 0.38078 0.4597 0.2412 0.0
C12 C 0.42269 0.4454 0.27707 0.0
H13 H 0.43895 0.44015 0.29098 0.0
C14 C 0.43208 0.47462 0.27143 0.0
H15 H 0.34809 0.41295 0.2378 0.0
C16 C 0.41129 0.48181 0.25365 0.0
H17 H 0.41912 0.50461 0.24959 0.0
H18 H 0.45549 0.49178 0.28092 0.0
H19 H 0.28709 0.8789 0.77253 0.0
C20 C 0.30134 0.87083 0.7634 0.0
C21 C 0.33212 0.87589 0.77687 0.0
C22 C 0.28849 0.85443 0.73855 0.0
H23 H 0.37345 0.86799 0.776 0.0
C24 C 0.35014 0.86482 0.76518 0.0
C25 C 0.33736 0.84794 0.74055 0.0
C26 C 0.30651 0.84295 0.72734 0.0
C27 C 0.25517 0.84693 0.72506 0.0
H28 H 0.29633 0.82997 0.70831 0.0
C29 C 0.24639 0.86896 0.7161 0.0
C30 C 0.21516 0.86101 0.70142 0.0
C31 C 0.23231 0.81711 0.72001 0.0
H32 H 0.23864 0.79988 0.72677 0.0
C33 C 0.20115 0.80924 0.7062 0.0
H34 H 0.26415 0.89198 0.71955 0.0
C35 C 0.19264 0.83095 0.69684 0.0
H36 H 0.16833 0.82423 0.68598 0.0
H37 H 0.18363 0.78619 0.70249 0.0
H38 H 0.65005 0.36709 0.83223 0.0
C39 C 0.64235 0.34581 0.84002 0.0
C40 C 0.66349 0.34174 0.86031 0.0
C41 C 0.61115 0.32292 0.83039 0.0
H42 H 0.6686 0.31216 0.88806 0.0
C43 C 0.65305 0.3147 0.87132 0.0
C44 C 0.62194 0.29177 0.86233 0.0
C45 C 0.60141 0.29581 0.84147 0.0
C46 C 0.58812 0.32789 0.80994 0.0
H47 H 0.57763 0.27784 0.83413 0.0
C48 C 0.59913 0.34585 0.78972 0.0
C49 C 0.57777 0.35211 0.77138 0.0
C50 C 0.55508 0.31562 0.81114 0.0
H51 H 0.54578 0.30231 0.82675 0.0
C52 C 0.53365 0.32113 0.79262 0.0
H53 H 0.62434 0.35495 0.78815 0.0
C54 C 0.54485 0.33935 0.77296 0.0
H55 H 0.52784 0.34411 0.75947 0.0
H56 H 0.50835 0.31175 0.79387 0.0
H57 H 0.86232 0.75436 0.32534 0.0
C58 C 0.84882 0.74142 0.33955 0.0
C59 C 0.85347 0.75472 0.365 0.0
C60 C 0.82447 0.71228 0.33172 0.0
H61 H 0.83895 0.74844 0.40262 0.0
C62 C 0.83489 0.73823 0.38289 0.0
C63 C 0.81009 0.70954 0.3754 0.0
C64 C 0.80541 0.69647 0.3499 0.0
C65 C 0.8151 0.70001 0.30358 0.0
H66 H 0.78577 0.67456 0.34366 0.0
C67 C 0.83769 0.69891 0.28913 0.0
C68 C 0.8277 0.68752 0.26227 0.0
C69 C 0.78271 0.68972 0.29088 0.0
H70 H 0.76496 0.69065 0.30137 0.0
C71 C 0.77286 0.67854 0.26445 0.0
H72 H 0.86273 0.7068 0.29869 0.0
C73 C 0.79509 0.67742 0.25024 0.0
H74 H 0.7866 0.66819 0.2298 0.0
H75 H 0.74784 0.67067 0.25492 0.0
H76 H 0.6321 0.71058 0.8317 0.0
C77 C 0.6455 0.72119 0.81657 0.0
C78 C 0.67751 0.72569 0.81841 0.0
C79 C 0.63114 0.73143 0.79572 0.0
H80 H 0.71933 0.74335 0.80017 0.0
C81 C 0.69482 0.74034 0.79908 0.0
C82 C 0.6809 0.75112 0.77837 0.0
C83 C 0.64877 0.74622 0.77666 0.0
C84 C 0.59908 0.72992 0.79541 0.0
H85 H 0.6379 0.7551 0.76126 0.0
C86 C 0.59637 0.7509 0.81148 0.0
C87 C 0.56656 0.75164 0.81012 0.0
C88 C 0.57173 0.70906 0.77811 0.0
H89 H 0.57358 0.69291 0.76537 0.0
C90 C 0.54181 0.7091 0.7771 0.0
H91 H 0.61773 0.76692 0.82481 0.0
C92 C 0.53917 0.73028 0.79293 0.0
H93 H 0.51592 0.73037 0.79127 0.0
H94 H 0.5207 0.69296 0.76371 0.0
H95 H 0.79387 0.23723 0.45766 0.0
C96 C 0.78313 0.2353 0.43704 0.0
C97 C 0.79382 0.22369 0.41806 0.0
C98 C 0.75827 0.24363 0.42984 0.0
H99 H 0.78745 0.21101 0.37688 0.0
C100 C 0.78016 0.22127 0.39134 0.0
C101 C 0.75538 0.22972 0.38351 0.0
C102 C 0.74497 0.24134 0.40297 0.0
C103 C 0.74447 0.25201 0.4507 0.0
H104 H 0.72561 0.24749 0.39731 0.0
C105 C 0.73537 0.27514 0.44852 0.0
C106 C 0.723 0.2829 0.46888 0.0
C107 C 0.74009 0.23634 0.47315 0.0
H108 H 0.74589 0.21791 0.47515 0.0
C109 C 0.7277 0.24388 0.49318 0.0
H110 H 0.73865 0.28752 0.43144 0.0
C111 C 0.71932 0.26702 0.49116 0.0
H112 H 0.7094 0.27221 0.5069 0.0
H113 H 0.72443 0.2316 0.5103 0.0
H114 H 0.43247 0.80177 0.30913 0.0
C115 C 0.408 0.79393 0.29815 0.0
C116 C 0.39836 0.81379 0.28533 0.0
C117 C 0.38685 0.76362 0.29507 0.0
H118 H 0.35997 0.81809 0.25931 0.0
C119 C 0.3671 0.80305 0.27004 0.0
C120 C 0.34608 0.77271 0.26641 0.0
C121 C 0.35597 0.7532 0.27937 0.0
C122 C 0.39818 0.74206 0.30475 0.0
H123 H 0.34048 0.72957 0.27592 0.0
C124 C 0.4033 0.73849 0.33172 0.0
C125 C 0.41064 0.71556 0.34018 0.0
C126 C 0.4016 0.72339 0.28643 0.0
H127 H 0.39765 0.72587 0.26554 0.0
C128 C 0.40973 0.70116 0.29488 0.0
H129 H 0.40017 0.75257 0.34587 0.0
C130 C 0.41397 0.69706 0.32158 0.0
H131 H 0.41988 0.67942 0.32776 0.0
H132 H 0.4123 0.68681 0.28066 0.0
H133 H 0.23233 0.45099 0.7866 0.0
C134 C 0.21604 0.43031 0.77479 0.0
C135 C 0.22044 0.42503 0.74925 0.0
C136 C 0.19167 0.40825 0.7856 0.0
H137 H 0.20493 0.39293 0.71577 0.0
C138 C 0.20016 0.39749 0.73472 0.0
C139 C 0.17568 0.37511 0.74517 0.0
C140 C 0.17139 0.381 0.77055 0.0
C141 C 0.19028 0.4114 0.81389 0.0
H142 H 0.15278 0.36409 0.7791 0.0
C143 C 0.18338 0.43327 0.82466 0.0
C144 C 0.18132 0.43477 0.85162 0.0
C145 C 0.19542 0.39141 0.83023 0.0
H146 H 0.20083 0.37452 0.82239 0.0
C147 C 0.19366 0.39294 0.85677 0.0
H148 H 0.17936 0.44872 0.81211 0.0
C149 C 0.18654 0.41428 0.86738 0.0
H150 H 0.18447 0.41429 0.88794 0.0
H151 H 0.1975 0.37731 0.86914 0.0
Pr152 Pr 0.99882 0.0386 0.55888 0.0
Pr153 Pr 0.06948 0.09138 0.54505 0.0
C154 C 0.94385 0.98872 0.55661 0.0
C155 C 0.92385 0.96949 0.57407 0.0
C156 C 0.92584 0.98014 0.59985 0.0
C157 C 0.90587 0.96173 0.61592 0.0
C158 C 0.88367 0.93234 0.6065 0.0
C159 C 0.88216 0.92175 0.58072 0.0
C160 C 0.90208 0.9402 0.56466 0.0
C161 C 0.03012 0.0883 0.59657 0.0
C162 C 0.06929 0.039 0.58431 0.0
C163 C 0.12366 0.14149 0.54541 0.0
C164 C 0.14314 0.15947 0.52696 0.0
C165 C 0.14837 0.14632 0.50529 0.0
C166 C 0.16699 0.1639 0.48804 0.0
C167 C 0.18041 0.19489 0.49204 0.0
C168 C 0.1748 0.20793 0.5136 0.0
C169 C 0.15639 0.19034 0.53096 0.0
C170 C 0.03741 0.04177 0.50722 0.0
C171 C 0.99878 0.09132 0.52065 0.0
O172 O 0.97183 0.98874 0.55674 0.0
O173 O 0.94483 0.01498 0.55555 0.0
O174 O 0.03895 0.08273 0.57647 0.0
O175 O 1.00301 0.06591 0.59882 0.0
O176 O 0.08579 0.06601 0.5775 0.0
O177 O 0.03746 0.02353 0.57735 0.0
O178 O 0.09535 0.14096 0.54439 0.0
O179 O 0.12358 0.11582 0.54882 0.0
O180 O 0.02878 0.048 0.52713 0.0
O181 O 0.06541 0.06325 0.50556 0.0
O182 O 0.98269 0.06411 0.52702 0.0
O183 O 0.03065 0.1069 0.52718 0.0
H184 H 0.9426 1.00275 0.60743 0.0
H185 H 0.90741 0.97068 0.63556 0.0
H186 H 0.86575 0.89912 0.57301 0.0
H187 H 0.90039 0.93163 0.54483 0.0
H188 H 0.13804 0.12249 0.50165 0.0
H189 H 0.17057 0.15325 0.47138 0.0
H190 H 0.18505 0.23174 0.51727 0.0
H191 H 0.15251 0.20085 0.54755 0.0
Pr192 Pr 0.49832 0.05155 0.0936 0.0
Pr193 Pr 0.56329 0.05295 0.07669 0.0
C194 C 0.45156 0.04567 0.11988 0.0
C195 C 0.44305 0.06802 0.12974 0.0
C196 C 0.45977 0.09734 0.12425 0.0
C197 C 0.45189 0.11897 0.13305 0.0
C198 C 0.4273 0.11178 0.14779 0.0
C199 C 0.41063 0.08229 0.15336 0.0
C200 C 0.41846 0.06053 0.14435 0.0
C201 C 0.52376 0.09561 0.05997 0.0
C202 C 0.57322 0.09956 0.12533 0.0
C203 C 0.60605 0.0504 0.04949 0.0
C204 C 0.60313 0.02706 0.03038 0.0
C205 C 0.58503 0.99717 0.03388 0.0
C206 C 0.58028 0.97498 0.01493 0.0
C207 C 0.59312 0.98222 0.99191 0.0
C208 C 0.61109 0.01214 0.98833 0.0
C209 C 0.61613 0.03441 1.00749 0.0
C210 C 0.54043 0.01952 0.11736 0.0
C211 C 0.48862 0.00718 0.04201 0.0
O212 O 0.47956 0.04773 0.13161 0.0
O213 O 0.44651 0.04114 0.09413 0.0
O214 O 0.53468 0.07871 0.06966 0.0
O215 O 0.49735 0.09029 0.06836 0.0
O216 O 0.58651 0.09597 0.10568 0.0
O217 O 0.54235 0.08305 0.12624 0.0
O218 O 0.58836 0.06386 0.04168 0.0
O219 O 0.60583 0.04406 0.07395 0.0
O220 O 0.52289 0.02103 0.09666 0.0
O221 O 0.571 0.03378 0.11661 0.0
O222 O 0.47414 0.01391 0.05907 0.0
O223 O 0.52044 0.01885 0.04456 0.0
H224 H 0.47888 0.10348 0.113 0.0
H225 H 0.46484 0.14128 0.12798 0.0
H226 H 0.39181 0.07609 0.1649 0.0
H227 H 0.40541 0.03796 0.1488 0.0
H228 H 0.57408 0.99093 0.0511 0.0
H229 H 0.56592 0.95213 0.018 0.0
H230 H 0.62134 0.01829 0.97078 0.0
H231 H 0.62977 0.05735 1.00427 0.0
Pr232 Pr 0.55164 0.60717 0.59902 0.0
Pr233 Pr 0.51968 0.54609 0.56618 0.0
C234 C 0.56549 0.65928 0.62494 0.0
C235 C 0.54729 0.67387 0.63384 0.0
C236 C 0.56156 0.69525 0.65563 0.0
C237 C 0.54455 0.70932 0.66431 0.0
C238 C 0.51291 0.70229 0.65127 0.0
C239 C 0.49864 0.68063 0.62949 0.0
C240 C 0.51563 0.66648 0.62091 0.0
C241 C 0.57717 0.56876 0.61616 0.0
C242 C 0.48147 0.55444 0.60991 0.0
C243 C 0.50662 0.4944 0.53984 0.0
C244 C 0.52609 0.48148 0.53047 0.0
C245 C 0.511 0.45505 0.51383 0.0
C246 C 0.52945 0.44264 0.50492 0.0
C247 C 0.56337 0.45653 0.51248 0.0
C248 C 0.57835 0.48322 0.52906 0.0
C249 C 0.55987 0.49553 0.53801 0.0
C250 C 0.49388 0.58439 0.54924 0.0
C251 C 0.58943 0.59867 0.55489 0.0
O252 O 0.56316 0.65545 0.59945 0.0
O253 O 0.56443 0.63644 0.63698 0.0
O254 O 0.54768 0.56175 0.60839 0.0
O255 O 0.59487 0.59711 0.61707 0.0
O256 O 0.48666 0.53457 0.59733 0.0
O257 O 0.49963 0.58312 0.60957 0.0
O258 O 0.50962 0.49807 0.56541 0.0
O259 O 0.5062 0.51692 0.52808 0.0
O260 O 0.52347 0.59157 0.55674 0.0
O261 O 0.47641 0.55601 0.54852 0.0
O262 O 0.58452 0.61859 0.56768 0.0
O263 O 0.57134 0.57006 0.55538 0.0
H264 H 0.58588 0.70103 0.66597 0.0
H265 H 0.55609 0.72548 0.6814 0.0
H266 H 0.4745 0.67489 0.61879 0.0
H267 H 0.50411 0.64989 0.60411 0.0
H268 H 0.48493 0.4439 0.50786 0.0
H269 H 0.51707 0.42187 0.4925 0.0
H270 H 0.6044 0.49474 0.53501 0.0
H271 H 0.57195 0.516 0.55086 0.0
Pr272 Pr 1.00896 0.60598 0.02508 0.0
Pr273 Pr 0.01668 0.56268 0.063 0.0
C274 C 0.98883 0.63737 0.99172 0.0
C275 C 0.96033 0.64245 0.98388 0.0
C276 C 0.95764 0.65634 0.96107 0.0
C277 C 0.92986 0.65981 0.95227 0.0
C278 C 0.90426 0.64939 0.96615 0.0
C279 C 0.90733 0.63596 0.98937 0.0
C280 C 0.93516 0.63238 0.99812 0.0
C281 C 0.06884 0.62823 0.05901 0.0
C282 C 0.98055 0.59971 0.08104 0.0
C283 C 0.03617 0.52981 0.09485 0.0
C284 C 0.06451 0.52409 0.10139 0.0
C285 C 0.06 0.49543 0.10586 0.0
C286 C 0.08658 0.48962 0.11278 0.0
C287 C 0.11825 0.51246 0.11552 0.0
C288 C 0.12264 0.54112 0.11049 0.0
C289 C 0.096 0.54686 0.10339 0.0
C290 C 0.95612 0.54101 0.03011 0.0
C291 C 0.04752 0.57063 1.00842 0.0
O292 O 0.98503 0.61086 0.98504 0.0
O293 O 1.0058 0.64817 0.01544 0.0
O294 O 0.04194 0.61286 0.06509 0.0
O295 O 0.06561 0.63438 0.03471 0.0
O296 O 0.99867 0.58676 0.09 0.0
O297 O 0.97643 0.6048 0.05596 0.0
O298 O 0.04012 0.55615 0.1025 0.0
O299 O 0.01844 0.51953 0.07129 0.0
O300 O 0.98274 0.55556 0.02312 0.0
O301 O 0.96024 0.53578 0.0546 0.0
O302 O 0.02869 0.58265 0.99883 0.0
O303 O 0.05125 0.56579 0.03353 0.0
H304 H 0.97688 0.6642 0.94987 0.0
H305 H 0.92841 0.67065 0.93455 0.0
H306 H 0.88792 0.62756 1.00036 0.0
H307 H 0.93683 0.62139 0.0157 0.0
H308 H 0.03586 0.47754 0.10415 0.0
H309 H 0.08229 0.46721 0.116 0.0
H310 H 0.14665 0.55928 0.11266 0.0
H311 H 0.10005 0.56915 0.09981 0.0
C312 C 0.32173 0.35015 0.32972 0.0
C313 C 0.3449 0.34257 0.32235 0.0
C314 C 0.30579 0.33681 0.35005 0.0
C315 C 0.28198 0.26798 0.38126 0.0
H316 H 0.26325 0.30829 0.43556 0.0
C317 C 0.224 0.20727 0.46568 0.0
C318 C 0.20034 0.21351 0.47383 0.0
C319 C 0.24258 0.22452 0.4483 0.0
C320 C 0.26797 0.29667 0.42033 0.0
H321 H 0.37134 0.31692 0.33174 0.0
H322 H 0.3435 0.29363 0.36704 0.0
H323 H 0.2947 0.33672 0.40366 0.0
H324 H 0.17751 0.24266 0.47016 0.0
H325 H 0.2096 0.27257 0.43937 0.0
H326 H 0.25491 0.22794 0.39735 0.0
C327 C 0.33715 0.30936 0.3568 0.0
C328 C 0.28604 0.31297 0.40214 0.0
C329 C 0.35308 0.3227 0.33662 0.0
C330 C 0.1958 0.23753 0.46439 0.0
C331 C 0.21425 0.25469 0.44682 0.0
C332 C 0.26379 0.2517 0.39926 0.0
C333 C 0.31275 0.31566 0.36326 0.0
C334 C 0.29343 0.29878 0.38257 0.0
C335 C 0.23774 0.24828 0.43846 0.0
C336 C 0.25675 0.26583 0.41914 0.0
H337 H 0.31483 0.36529 0.31897 0.0
H338 H 0.28701 0.34201 0.3546 0.0
H339 H 0.2867 0.25634 0.36603 0.0
H340 H 0.22839 0.1892 0.47299 0.0
H341 H 0.26091 0.21932 0.4427 0.0
C342 C 0.37505 0.9151 0.81057 0.0
C343 C 0.34471 0.89043 0.80415 0.0
C344 C 0.38861 0.92684 0.83681 0.0
C345 C 0.36975 0.92351 0.90477 0.0
H346 H 0.46292 0.95699 0.92476 0.0
C347 C 0.43849 0.9868 1.00719 0.0
C348 C 0.46862 0.9879 0.01761 0.0
C349 C 0.42186 0.97264 0.98205 0.0
C350 C 0.43682 0.94725 0.91979 0.0
H351 H 0.30458 0.85864 0.8198 0.0
H352 H 0.32862 0.87819 0.86574 0.0
H353 H 0.43708 0.93733 0.8796 0.0
H354 H 0.50402 0.97341 1.0106 0.0
H355 H 0.47423 0.9472 0.96748 0.0
H356 H 0.36942 0.93191 0.94533 0.0
C357 C 0.34168 0.8893 0.85064 0.0
C358 C 0.42194 0.93651 0.89355 0.0
C359 C 0.32785 0.87798 0.82431 0.0
C360 C 0.48093 0.97311 1.003 0.0
C361 C 0.46396 0.95837 0.97809 0.0
C362 C 0.3846 0.93372 0.93115 0.0
C363 C 0.3725 0.91369 0.85734 0.0
C364 C 0.3882 0.92478 0.88554 0.0
C365 C 0.43463 0.95869 0.96687 0.0
C366 C 0.41842 0.94604 0.93904 0.0
H367 H 0.38844 0.92508 0.79527 0.0
H368 H 0.41191 0.94611 0.84095 0.0
H369 H 0.34377 0.91496 0.89949 0.0
H370 H 0.42855 0.99829 0.01784 0.0
H371 H 0.39969 0.97386 0.97414 0.0
C372 C 0.57146 0.36845 0.72611 0.0
C373 C 0.58991 0.37326 0.75161 0.0
C374 C 0.5807 0.39008 0.70865 0.0
C375 C 0.62555 0.4706 0.71053 0.0
H376 H 0.60024 0.45275 0.63459 0.0
C377 C 0.62017 0.55771 0.64189 0.0
C378 C 0.58883 0.5478 0.62699 0.0
C379 C 0.6296 0.53763 0.65426 0.0
C380 C 0.60783 0.45811 0.65575 0.0
H381 H 0.63363 0.40399 0.77821 0.0
H382 H 0.65025 0.44137 0.74743 0.0
H383 H 0.60083 0.41421 0.66217 0.0
H384 H 0.54334 0.50925 0.61248 0.0
H385 H 0.55995 0.4743 0.63331 0.0
H386 H 0.63145 0.51422 0.70408 0.0
C387 C 0.62826 0.42108 0.74112 0.0
C388 C 0.60798 0.43605 0.67156 0.0
C389 C 0.61889 0.39948 0.75867 0.0
C390 C 0.56771 0.51747 0.62361 0.0
C391 C 0.57729 0.49743 0.63548 0.0
C392 C 0.62571 0.49273 0.69468 0.0
C393 C 0.60877 0.417 0.71618 0.0
C394 C 0.61543 0.44168 0.6992 0.0
C395 C 0.60803 0.50734 0.65141 0.0
C396 C 0.61551 0.48632 0.66725 0.0
H397 H 0.54931 0.34827 0.71988 0.0
H398 H 0.56485 0.38622 0.68974 0.0
H399 H 0.63115 0.47574 0.73172 0.0
H400 H 0.63692 0.58102 0.64478 0.0
H401 H 0.65343 0.54579 0.66652 0.0
C402 C 0.86963 0.67112 0.25527 0.0
C403 C 0.85028 0.68509 0.24633 0.0
C404 C 0.88634 0.66425 0.23821 0.0
C405 C 0.88157 0.65018 0.1667 0.0
H406 H 0.96614 0.65327 0.18814 0.0
C407 C 0.94792 0.62539 0.09172 0.0
C408 C 0.9654 0.60947 0.09981 0.0
C409 C 0.93492 0.63559 0.10983 0.0
C410 C 0.94234 0.65196 0.18188 0.0
H411 H 0.83529 0.70484 0.21325 0.0
H412 H 0.8647 0.6934 0.1838 0.0
H413 H 0.94312 0.67041 0.2198 0.0
H414 H 0.98253 0.59156 0.1334 0.0
H415 H 0.9595 0.60885 0.16469 0.0
H416 H 0.88053 0.63148 0.12893 0.0
C417 C 0.8663 0.6869 0.20364 0.0
C418 C 0.92917 0.66185 0.20006 0.0
C419 C 0.84961 0.69365 0.22058 0.0
C420 C 0.96929 0.6038 0.1264 0.0
C421 C 0.95628 0.61395 0.14447 0.0
C422 C 0.89469 0.64027 0.14857 0.0
C423 C 0.88409 0.6713 0.21192 0.0
C424 C 0.89862 0.66115 0.19269 0.0
C425 C 0.93903 0.63011 0.13649 0.0
C426 C 0.92526 0.641 0.15587 0.0
H427 H 0.87042 0.66408 0.27493 0.0
H428 H 0.89973 0.65217 0.24526 0.0
H429 H 0.85769 0.64868 0.16043 0.0
H430 H 0.94457 0.63033 0.07145 0.0
H431 H 0.92211 0.64823 0.10298 0.0
C432 C 0.34798 0.29316 0.23122 0.0
C433 C 0.37491 0.32059 0.23963 0.0
C434 C 0.35098 0.27095 0.21733 0.0
C435 C 0.40618 0.25561 0.18232 0.0
H436 H 0.36326 0.17764 0.2056 0.0
C437 C 0.44392 0.16375 0.16602 0.0
C438 C 0.41925 0.13514 0.15711 0.0
C439 C 0.43649 0.18616 0.17371 0.0
C440 C 0.37505 0.19919 0.19864 0.0
H441 H 0.4257 0.34688 0.23928 0.0
H442 H 0.43128 0.30791 0.21548 0.0
H443 H 0.35372 0.21773 0.22217 0.0
H444 H 0.36737 0.10767 0.14947 0.0
H445 H 0.35448 0.1468 0.16354 0.0
H446 H 0.42836 0.23707 0.15949 0.0
C447 C 0.40766 0.30362 0.21915 0.0
C448 C 0.36951 0.22218 0.20804 0.0
C449 C 0.40454 0.32596 0.23282 0.0
C450 C 0.38697 0.12934 0.15655 0.0
C451 C 0.37957 0.15176 0.16446 0.0
C452 C 0.41191 0.23264 0.17309 0.0
C453 C 0.38108 0.27559 0.21182 0.0
C454 C 0.38525 0.25076 0.2002 0.0
C455 C 0.40426 0.18043 0.17291 0.0
C456 C 0.39667 0.2043 0.18139 0.0
H457 H 0.32476 0.28866 0.23599 0.0
H458 H 0.32984 0.24991 0.21144 0.0
H459 H 0.41828 0.2772 0.17553 0.0
H460 H 0.46908 0.16885 0.16726 0.0
H461 H 0.45605 0.20791 0.18065 0.0
C462 C 0.21144 0.90907 0.70526 0.0
C463 C 0.20586 0.88347 0.68994 0.0
C464 C 0.19948 0.92843 0.69479 0.0
C465 C 0.13521 0.92801 0.64233 0.0
H466 H 0.17985 0.01325 0.65754 0.0
C467 C 0.07023 0.99859 0.61123 0.0
C468 C 0.08716 0.02467 0.59987 0.0
C469 C 0.0863 0.9835 0.62403 0.0
C470 C 0.16715 0.98948 0.65298 0.0
H471 H 0.18551 0.8592 0.65116 0.0
H472 H 0.16526 0.893 0.63282 0.0
H473 H 0.20619 0.98329 0.67537 0.0
H474 H 0.13465 0.05585 0.59393 0.0
H475 H 0.16268 0.02914 0.61595 0.0
H476 H 0.09659 0.93395 0.6195 0.0
C477 C 0.17786 0.89776 0.65315 0.0
C478 C 0.18212 0.97229 0.66342 0.0
C479 C 0.18957 0.87842 0.66362 0.0
C480 C 0.12084 0.03584 0.60246 0.0
C481 C 0.13695 0.02058 0.61519 0.0
C482 C 0.12034 0.94509 0.63193 0.0
C483 C 0.1819 0.92261 0.66875 0.0
C484 C 0.16636 0.94132 0.65809 0.0
C485 C 0.11974 0.99389 0.62568 0.0
C486 C 0.13602 0.97604 0.63713 0.0
H487 H 0.22388 0.91347 0.72562 0.0
H488 H 0.20293 0.9473 0.7074 0.0
H489 H 0.12207 0.90421 0.63813 0.0
H490 H 0.04435 0.98951 0.60997 0.0
H491 H 0.07236 0.96343 0.63243 0.0
C492 C 0.69894 0.39457 0.87858 0.0
C493 C 0.6956 0.36622 0.87175 0.0
C494 C 0.72818 0.41632 0.89297 0.0
C495 C 0.79702 0.42118 0.941 0.0
H496 H 0.83613 0.50467 0.93123 0.0
C497 C 0.92336 0.52954 0.98444 0.0
C498 C 0.92516 0.52572 1.01142 0.0
C499 C 0.89474 0.51267 0.9664 0.0
C500 C 0.82546 0.48139 0.93411 0.0
H501 H 0.72078 0.3391 0.87278 0.0
H502 H 0.77177 0.37703 0.89783 0.0
H503 H 0.7885 0.46999 0.89946 0.0
H504 H 0.89816 0.5027 0.04096 0.0
H505 H 0.8482 0.47328 1.0095 0.0
H506 H 0.83378 0.43229 0.97543 0.0
C507 C 0.75167 0.38227 0.89254 0.0
C508 C 0.79818 0.46162 0.91605 0.0
C509 C 0.72254 0.3606 0.87819 0.0
C510 C 0.89751 0.50584 0.02023 0.0
C511 C 0.86899 0.48893 1.00222 0.0
C512 C 0.82401 0.44088 0.95906 0.0
C513 C 0.75449 0.41004 0.90078 0.0
C514 C 0.7838 0.43129 0.9193 0.0
C515 C 0.86754 0.49166 0.97508 0.0
C516 C 0.8385 0.47118 0.95587 0.0
H517 H 0.6785 0.39945 0.87406 0.0
H518 H 0.72962 0.43748 0.89917 0.0
H519 H 0.7862 0.39801 0.94426 0.0
H520 H 0.94433 0.54487 0.97718 0.0
H521 H 0.89434 0.51516 0.9456 0.0
C522 C 0.7769 0.71197 0.40778 0.0
C523 C 0.78731 0.69507 0.39353 0.0
C524 C 0.75689 0.69946 0.42583 0.0
C525 C 0.69789 0.62981 0.44427 0.0
H526 H 0.71894 0.67603 0.51137 0.0
C527 C 0.62127 0.5876 0.5255 0.0
C528 C 0.61495 0.6084 0.53871 0.0
C529 C 0.64389 0.5966 0.50891 0.0
C530 C 0.7125 0.66293 0.49267 0.0
H531 H 0.78359 0.65127 0.38641 0.0
H532 H 0.74795 0.62912 0.418 0.0
H533 H 0.75474 0.694 0.47981 0.0
H534 H 0.62787 0.65506 0.54498 0.0
H535 H 0.66686 0.67066 0.5159 0.0
H536 H 0.65518 0.59906 0.45689 0.0
C537 C 0.75573 0.65224 0.41519 0.0
C538 C 0.7331 0.6732 0.4746 0.0
C539 C 0.77607 0.66489 0.39711 0.0
C540 C 0.63221 0.63844 0.53527 0.0
C541 C 0.65475 0.64741 0.51865 0.0
C542 C 0.67712 0.61957 0.46235 0.0
C543 C 0.74638 0.66958 0.43005 0.0
C544 C 0.72577 0.65704 0.45 0.0
C545 C 0.66074 0.6266 0.50509 0.0
C546 C 0.68391 0.63626 0.48661 0.0
H547 H 0.78417 0.73503 0.40494 0.0
H548 H 0.74943 0.71323 0.43641 0.0
H549 H 0.69147 0.61697 0.42543 0.0
H550 H 0.60851 0.56426 0.52772 0.0
H551 H 0.64819 0.58 0.4991 0.0
C552 C 0.35384 0.49234 0.22979 0.0
C553 C 0.35781 0.46724 0.22332 0.0
C554 C 0.33019 0.498 0.21425 0.0
C555 C 0.25191 0.45886 0.16974 0.0
H556 H 0.26375 0.53782 0.15625 0.0
C557 C 0.17478 0.5204 0.11393 0.0
C558 C 0.14651 0.50657 0.12443 0.0
C559 C 0.20159 0.5154 0.12303 0.0
C560 C 0.26016 0.5156 0.15959 0.0
H561 H 0.34125 0.42934 0.19459 0.0
H562 H 0.2998 0.43913 0.16757 0.0
H563 H 0.31009 0.53036 0.1768 0.0
H564 H 0.12454 0.47689 0.15297 0.0
H565 H 0.171 0.46793 0.16849 0.0
H566 H 0.20197 0.44413 0.15286 0.0
C567 C 0.31469 0.45417 0.1849 0.0
C568 C 0.28662 0.51137 0.17157 0.0
C569 C 0.33839 0.44854 0.2004 0.0
C570 C 0.14561 0.48744 0.14404 0.0
C571 C 0.17228 0.48233 0.15299 0.0
C572 C 0.22547 0.46311 0.15792 0.0
C573 C 0.30995 0.47867 0.19192 0.0
C574 C 0.28267 0.483 0.1771 0.0
C575 C 0.2006 0.49633 0.14268 0.0
C576 C 0.22921 0.49158 0.1531 0.0
H577 H 0.36811 0.50699 0.24747 0.0
H578 H 0.32688 0.51686 0.22036 0.0
H579 H 0.248 0.43676 0.17394 0.0
H580 H 0.17614 0.53494 0.09855 0.0
H581 H 0.223 0.52629 0.11456 0.0
C582 C 0.57936 0.25431 0.88358 0.0
C583 C 0.60999 0.26508 0.87675 0.0
C584 C 0.56984 0.23211 0.90048 0.0
C585 C 0.60532 0.20323 0.95422 0.0
H586 H 0.51701 0.14289 0.94828 0.0
C587 C 0.56472 0.11974 0.03174 0.0
C588 C 0.53519 0.11431 0.0388 0.0
C589 C 0.5744 0.136 1.01051 0.0
C590 C 0.54173 0.15975 0.95027 0.0
H591 H 0.65378 0.25965 0.8809 0.0
H592 H 0.6371 0.22077 0.9105 0.0
H593 H 0.53225 0.17352 0.91222 0.0
H594 H 0.49299 0.12218 0.02992 0.0
H595 H 0.51003 0.15095 0.99314 0.0
H596 H 0.61465 0.1899 0.9925 0.0
C597 C 0.62071 0.22989 0.90309 0.0
C598 C 0.55046 0.17722 0.92961 0.0
C599 C 0.63022 0.25209 0.88612 0.0
C600 C 0.51583 0.12595 0.02476 0.0
C601 C 0.52544 0.14215 1.00356 0.0
C602 C 0.59659 0.18576 0.97489 0.0
C603 C 0.59074 0.22019 0.91095 0.0
C604 C 0.58222 0.19948 0.93154 0.0
C605 C 0.55467 0.14712 0.99603 0.0
C606 C 0.56457 0.16418 0.97333 0.0
H607 H 0.5634 0.26413 0.87702 0.0
H608 H 0.54677 0.22538 0.90641 0.0
H609 H 0.62988 0.22049 0.95648 0.0
H610 H 0.58025 0.11137 0.04257 0.0
H611 H 0.59705 0.13945 1.00518 0.0
C612 C 0.90759 0.80007 0.37218 0.0
C613 C 0.8744 0.78676 0.37271 0.0
C614 C 0.92758 0.82907 0.38399 0.0
C615 C 0.93164 0.87725 0.43855 0.0
H616 H 0.99111 0.94376 0.40792 0.0
C617 C 0.98816 0.99431 0.49131 0.0
C618 C 0.02019 0.01365 0.49005 0.0
C619 C 0.972 0.96726 0.47566 0.0
C620 C 0.97498 0.92531 0.41693 0.0
H621 H 0.83563 0.79402 0.38375 0.0
H622 H 0.87029 0.84408 0.40437 0.0
H623 H 0.96086 0.89542 0.38193 0.0
H624 H 0.06044 0.02024 0.47129 0.0
H625 H 0.03259 0.97256 0.44441 0.0
H626 H 0.94574 0.90636 0.47359 0.0
C627 C 0.88105 0.83216 0.39534 0.0
C628 C 0.95766 0.89769 0.40199 0.0
C629 C 0.86124 0.80355 0.38351 0.0
C630 C 0.03569 0.00567 0.47259 0.0
C631 C 0.01963 0.97842 0.4571 0.0
C632 C 0.94913 0.90458 0.45353 0.0
C633 C 0.91451 0.84489 0.39648 0.0
C634 C 0.93535 0.8736 0.41253 0.0
C635 C 0.98762 0.95871 0.45858 0.0
C636 C 0.97056 0.9292 0.4428 0.0
H637 H 0.91827 0.78757 0.36395 0.0
H638 H 0.95335 0.83852 0.38456 0.0
H639 H 0.91496 0.85887 0.44731 0.0
H640 H 0.97549 1.00015 0.5043 0.0
H641 H 0.94712 0.95312 0.4769 0.0
C642 C 0.33938 0.80435 0.71861 0.0
C643 C 0.35539 0.83399 0.72952 0.0
C644 C 0.35652 0.79068 0.70948 0.0
C645 C 0.43915 0.79715 0.71619 0.0
H646 H 0.40147 0.74138 0.65343 0.0
C647 C 0.51098 0.74799 0.66889 0.0
C648 C 0.49497 0.71762 0.66024 0.0
C649 C 0.49412 0.76244 0.67714 0.0
C650 C 0.41219 0.75669 0.67114 0.0
H651 H 0.40184 0.87275 0.73878 0.0
H652 H 0.43175 0.84903 0.72256 0.0
H653 H 0.3719 0.76654 0.66756 0.0
H654 H 0.44863 0.67858 0.654 0.0
H655 H 0.41921 0.70389 0.66813 0.0
H656 H 0.47951 0.78735 0.71965 0.0
C657 C 0.40601 0.83614 0.72152 0.0
C658 C 0.39524 0.77111 0.67926 0.0
C659 C 0.38888 0.84978 0.73075 0.0
C660 C 0.46165 0.70208 0.66009 0.0
C661 C 0.44477 0.71657 0.66822 0.0
C662 C 0.45615 0.78281 0.708 0.0
C663 C 0.39009 0.80634 0.71095 0.0
C664 C 0.40845 0.79146 0.70194 0.0
C665 C 0.4608 0.74692 0.67683 0.0
C666 C 0.44283 0.76234 0.68543 0.0
H667 H 0.31369 0.79141 0.7178 0.0
H668 H 0.34353 0.76758 0.70188 0.0
H669 H 0.44984 0.81228 0.734 0.0
H670 H 0.53649 0.76079 0.66886 0.0
H671 H 0.50709 0.78593 0.68332 0.0
C672 C 0.73295 0.78967 0.76872 0.0
C673 C 0.70064 0.76885 0.75955 0.0
C674 C 0.75186 0.8063 0.75127 0.0
C675 C 0.74737 0.83371 0.68618 0.0
H676 H 0.83571 0.84496 0.69418 0.0
C677 C 0.82963 0.89348 0.6127 0.0
C678 C 0.86208 0.91284 0.6234 0.0
C679 C 0.80933 0.87511 0.62858 0.0
C680 C 0.81122 0.84231 0.69185 0.0
H681 H 0.66279 0.74936 0.72479 0.0
H682 H 0.69592 0.77871 0.6942 0.0
H683 H 0.80115 0.81425 0.72303 0.0
H684 H 0.89865 0.92788 0.6592 0.0
H685 H 0.86306 0.89641 0.68703 0.0
H686 H 0.75757 0.8621 0.65521 0.0
C687 C 0.70648 0.78214 0.71499 0.0
C688 C 0.7914 0.82466 0.70835 0.0
C689 C 0.68753 0.76536 0.73249 0.0
C690 C 0.87371 0.91345 0.65038 0.0
C691 C 0.8534 0.89512 0.66626 0.0
C692 C 0.76725 0.85147 0.66971 0.0
C693 C 0.73891 0.80265 0.72421 0.0
C694 C 0.75936 0.82036 0.70584 0.0
C695 C 0.82099 0.87569 0.65555 0.0
C696 C 0.79949 0.85616 0.6725 0.0
H697 H 0.74359 0.79345 0.78952 0.0
H698 H 0.77656 0.82236 0.75905 0.0
H699 H 0.72288 0.83105 0.68397 0.0
H700 H 0.81978 0.89271 0.59206 0.0
H701 H 0.78457 0.86022 0.61965 0.0
C702 C 0.70443 0.21252 0.34932 0.0
C703 C 0.7382 0.22339 0.35545 0.0
C704 C 0.68776 0.20364 0.32328 0.0
C705 C 0.69749 0.20566 0.25307 0.0
H706 H 0.61699 0.13368 0.24388 0.0
C707 C 0.62767 0.13308 0.15295 0.0
C708 C 0.59376 0.12077 0.14865 0.0
C709 C 0.64644 0.14946 0.17697 0.0
C710 C 0.63922 0.154 0.24609 0.0
H711 H 0.78097 0.23474 0.33856 0.0
H712 H 0.75171 0.21816 0.29319 0.0
H713 H 0.6474 0.15485 0.28798 0.0
H714 H 0.55319 0.11794 0.16549 0.0
H715 H 0.58579 0.14639 0.20699 0.0
H716 H 0.68935 0.20402 0.2108 0.0
C717 C 0.73816 0.21689 0.30855 0.0
C718 C 0.65666 0.16624 0.27143 0.0
C719 C 0.75493 0.22607 0.33465 0.0
C720 C 0.5792 0.12667 0.16821 0.0
C721 C 0.59787 0.14292 0.19209 0.0
C722 C 0.68006 0.19321 0.22757 0.0
C723 C 0.70427 0.20496 0.30261 0.0
C724 C 0.68592 0.19235 0.27534 0.0
C725 C 0.63159 0.15373 0.19708 0.0
C726 C 0.6506 0.16735 0.22386 0.0
H727 H 0.69054 0.20972 0.3647 0.0
H728 H 0.66173 0.19516 0.31942 0.0
H729 H 0.71982 0.22588 0.25533 0.0
H730 H 0.63965 0.12897 0.1383 0.0
H731 H 0.6724 0.15751 0.18028 0.0
C732 C 0.39567 0.68166 0.37524 0.0
C733 C 0.41396 0.71001 0.36819 0.0
C734 C 0.40134 0.67501 0.40107 0.0
C735 C 0.46804 0.69415 0.45496 0.0
H736 H 0.4023 0.64071 0.49097 0.0
C737 C 0.50227 0.63489 0.53871 0.0
C738 C 0.48183 0.60446 0.53686 0.0
C739 C 0.49222 0.6535 0.52446 0.0
C740 C 0.42098 0.65562 0.48118 0.0
H741 H 0.45133 0.7541 0.38257 0.0
H742 H 0.4619 0.74226 0.42797 0.0
H743 H 0.38698 0.66371 0.45352 0.0
H744 H 0.4343 0.56975 0.51993 0.0
H745 H 0.41716 0.6018 0.4942 0.0
H746 H 0.50175 0.68462 0.48106 0.0
C747 C 0.44302 0.7253 0.41349 0.0
C748 C 0.4122 0.66891 0.45987 0.0
C749 C 0.43697 0.73208 0.38765 0.0
C750 C 0.45058 0.59315 0.52163 0.0
C751 C 0.44067 0.61165 0.50707 0.0
C752 C 0.47678 0.68063 0.47603 0.0
C753 C 0.42571 0.6965 0.42027 0.0
C754 C 0.43552 0.68752 0.44603 0.0
C755 C 0.4617 0.64193 0.50773 0.0
C756 C 0.45319 0.66039 0.48883 0.0
H757 H 0.37765 0.66437 0.36054 0.0
H758 H 0.3879 0.65255 0.40563 0.0
H759 H 0.48648 0.70814 0.44447 0.0
H760 H 0.5264 0.64421 0.55055 0.0
H761 H 0.5088 0.67679 0.52591 0.0
C762 C 0.14711 0.46192 0.85073 0.0
C763 C 0.17252 0.45649 0.86369 0.0
C764 C 0.1358 0.47874 0.86393 0.0
C765 C 0.15522 0.52855 0.92581 0.0
H766 H 0.06227 0.49937 0.91425 0.0
C767 C 0.08908 0.55423 1.00062 0.0
C768 C 0.06413 0.56166 0.99049 0.0
C769 C 0.10377 0.54464 0.98363 0.0
C770 C 0.0883 0.508 0.91752 0.0
H771 H 0.20746 0.4664 0.90006 0.0
H772 H 0.18729 0.49455 0.92319 0.0
H773 H 0.0856 0.47774 0.88676 0.0
H774 H 0.0352 0.56488 0.95445 0.0
H775 H 0.06051 0.54772 0.92491 0.0
H776 H 0.1576 0.55795 0.95736 0.0
C777 C 0.17608 0.48622 0.90281 0.0
C778 C 0.10177 0.49571 0.90164 0.0
C779 C 0.18747 0.46967 0.88959 0.0
C780 C 0.0544 0.55944 0.96296 0.0
C781 C 0.06876 0.54944 0.946 0.0
C782 C 0.1417 0.54054 0.94191 0.0
C783 C 0.14959 0.49049 0.89043 0.0
C784 C 0.13544 0.50552 0.90574 0.0
C785 C 0.09354 0.54183 0.95612 0.0
C786 C 0.10807 0.5302 0.93814 0.0
H787 H 0.13499 0.45208 0.83081 0.0
H788 H 0.1158 0.482 0.8535 0.0
H789 H 0.18125 0.53725 0.92929 0.0
H790 H 0.0972 0.55568 0.0217 0.0
H791 H 0.12262 0.53872 0.99205 0.0
C792 C 0.5895 0.80427 0.82922 0.0
C793 C 0.56459 0.77521 0.82611 0.0
C794 C 0.58875 0.8263 0.84522 0.0
C795 C 0.55331 0.83643 0.90083 0.0
H796 H 0.58938 0.91766 0.88385 0.0
C797 C 0.59177 0.93376 0.97917 0.0
C798 C 0.58742 0.95847 0.9717 0.0
C799 C 0.58593 0.91107 0.96027 0.0
C800 C 0.5788 0.89506 0.88878 0.0
H801 H 0.51883 0.74672 0.83687 0.0
H802 H 0.51706 0.78548 0.86434 0.0
H803 H 0.58301 0.87871 0.85194 0.0
H804 H 0.57301 0.97865 0.93871 0.0
H805 H 0.56224 0.93876 0.90562 0.0
H806 H 0.54853 0.85272 0.93747 0.0
C807 C 0.53753 0.79105 0.85475 0.0
C808 C 0.57554 0.87274 0.8706 0.0
C809 C 0.53836 0.76891 0.83878 0.0
C810 C 0.57699 0.96002 0.94494 0.0
C811 C 0.57084 0.93717 0.92602 0.0
C812 C 0.55635 0.85873 0.91894 0.0
C813 C 0.56291 0.81996 0.85837 0.0
C814 C 0.56336 0.84323 0.8766 0.0
C815 C 0.5753 0.91242 0.93345 0.0
C816 C 0.56971 0.88841 0.91336 0.0
H817 H 0.60978 0.81004 0.81936 0.0
H818 H 0.60892 0.84818 0.84777 0.0
H819 H 0.54405 0.814 0.90622 0.0
H820 H 0.60014 0.93217 0.99964 0.0
H821 H 0.59031 0.8927 0.96667 0.0
C822 C 0.81073 0.19141 0.44592 0.0
C823 C 0.81684 0.21136 0.42665 0.0
C824 C 0.83225 0.17986 0.45466 0.0
C825 C 0.90115 0.16937 0.43827 0.0
H826 H 0.91074 0.15379 0.51162 0.0
C827 C 0.9942 0.13105 0.49406 0.0
C828 C 0.97965 0.10546 0.50684 0.0
C829 C 0.9761 0.14519 0.48262 0.0
C830 C 0.90828 0.15804 0.49109 0.0
H831 H 0.84998 0.23462 0.40104 0.0
H832 H 0.88848 0.21517 0.41694 0.0
H833 H 0.87676 0.17722 0.49533 0.0
H834 H 0.93457 0.07454 0.51732 0.0
H835 H 0.90348 0.09958 0.49797 0.0
H836 H 0.9336 0.15059 0.43458 0.0
C837 C 0.86669 0.20799 0.42499 0.0
C838 C 0.8886 0.17126 0.48164 0.0
C839 C 0.84477 0.21925 0.41595 0.0
C840 C 0.94658 0.09411 0.50757 0.0
C841 C 0.92875 0.1085 0.49661 0.0
C842 C 0.92135 0.15654 0.44792 0.0
C843 C 0.86081 0.1883 0.44466 0.0
C844 C 0.88409 0.17648 0.45495 0.0
C845 C 0.94338 0.1343 0.48427 0.0
C846 C 0.92449 0.15021 0.47428 0.0
H847 H 0.78902 0.18447 0.45411 0.0
H848 H 0.82625 0.16408 0.46917 0.0
H849 H 0.89815 0.17283 0.41758 0.0
H850 H 0.0196 0.1403 0.49311 0.0
H851 H 0.98788 0.16511 0.47322 0.0
C852 C 0.28767 0.73727 0.25054 0.0
C853 C 0.31609 0.76086 0.24605 0.0
C854 C 0.26079 0.72371 0.23013 0.0
C855 C 0.22466 0.73294 0.16367 0.0
H856 H 0.18134 0.64723 0.15669 0.0
C857 C 0.12722 0.66442 0.07277 0.0
C858 C 0.09901 0.64193 0.07876 0.0
C859 C 0.15485 0.67877 0.09248 0.0
C860 C 0.1931 0.67117 0.15847 0.0
H861 H 0.33848 0.78903 0.21676 0.0
H862 H 0.29166 0.76547 0.18126 0.0
H863 H 0.22605 0.67374 0.19345 0.0
H864 H 0.07767 0.61611 0.10961 0.0
H865 H 0.1257 0.64086 0.14381 0.0
H866 H 0.19163 0.73026 0.12861 0.0
C867 C 0.28991 0.7577 0.20061 0.0
C868 C 0.21858 0.68636 0.17959 0.0
C869 C 0.31672 0.77127 0.221 0.0
C870 C 0.09913 0.63335 0.10444 0.0
C871 C 0.12669 0.64745 0.12401 0.0
C872 C 0.1992 0.71772 0.14249 0.0
C873 C 0.26188 0.73341 0.2048 0.0
C874 C 0.23451 0.71741 0.18252 0.0
C875 C 0.15469 0.67058 0.11836 0.0
C876 C 0.18304 0.68669 0.13979 0.0
H877 H 0.28644 0.72897 0.26971 0.0
H878 H 0.2393 0.70537 0.23408 0.0
H879 H 0.23629 0.75687 0.16552 0.0
H880 H 0.12771 0.67138 0.05307 0.0
H881 H 0.17626 0.69634 0.08755 0.0
C882 C 0.24338 0.45265 0.71191 0.0
C883 C 0.24807 0.4466 0.7383 0.0
C884 C 0.26977 0.46888 0.70009 0.0
C885 C 0.3306 0.51335 0.68227 0.0
H886 H 0.39776 0.48753 0.69393 0.0
C887 C 0.44594 0.56458 0.63598 0.0
C888 C 0.45491 0.54437 0.62509 0.0
C889 C 0.42146 0.55507 0.65088 0.0
C890 C 0.37919 0.49497 0.69044 0.0
H891 H 0.28412 0.45386 0.77331 0.0
H892 H 0.33035 0.48237 0.7527 0.0
H893 H 0.35402 0.46824 0.71864 0.0
H894 H 0.445 0.49824 0.62132 0.0
H895 H 0.40253 0.48177 0.6473 0.0
H896 H 0.35553 0.53963 0.65362 0.0
C897 C 0.30619 0.4744 0.74111 0.0
C898 C 0.35432 0.48419 0.70484 0.0
C899 C 0.27973 0.45837 0.75301 0.0
C900 C 0.43874 0.51444 0.62937 0.0
C901 C 0.41453 0.505 0.64445 0.0
C902 C 0.35568 0.52437 0.66802 0.0
C903 C 0.30153 0.47924 0.71433 0.0
C904 C 0.32947 0.49293 0.70069 0.0
C905 C 0.40566 0.52519 0.65546 0.0
C906 C 0.38 0.51494 0.67166 0.0
H907 H 0.21923 0.44391 0.70012 0.0
H908 H 0.2653 0.47202 0.67941 0.0
H909 H 0.31192 0.52065 0.67871 0.0
H910 H 0.45786 0.58781 0.63308 0.0
H911 H 0.41531 0.57119 0.65921 0.0
C912 C 0.67849 0.6873 0.84829 0.0
C913 C 0.69363 0.716 0.84072 0.0
C914 C 0.69543 0.67736 0.86731 0.0
C915 C 0.77048 0.70258 0.91856 0.0
H916 H 0.76716 0.62751 0.89672 0.0
C917 C 0.85958 0.66193 0.97283 0.0
C918 C 0.87433 0.65213 0.95595 0.0
C919 C 0.83249 0.66615 0.96267 0.0
C920 C 0.76827 0.64846 0.90316 0.0
H921 H 0.7374 0.75747 0.84838 0.0
H922 H 0.76701 0.74013 0.88109 0.0
H923 H 0.72867 0.64282 0.87268 0.0
H924 H 0.87139 0.63772 0.91545 0.0
H925 H 0.82468 0.64549 0.89772 0.0
H926 H 0.81133 0.70897 0.94807 0.0
C927 C 0.74212 0.72523 0.87255 0.0
C928 C 0.74594 0.65708 0.88959 0.0
C929 C 0.7253 0.73507 0.85354 0.0
C930 C 0.86083 0.64569 0.9289 0.0
C931 C 0.83377 0.64976 0.9188 0.0
C932 C 0.79283 0.69395 0.93214 0.0
C933 C 0.72769 0.69604 0.87923 0.0
C934 C 0.74746 0.68468 0.89658 0.0
C935 C 0.8195 0.66039 0.93548 0.0
C936 C 0.79262 0.66723 0.92403 0.0
H937 H 0.65408 0.67216 0.83873 0.0
H938 H 0.68354 0.65484 0.87223 0.0
H939 H 0.77199 0.72379 0.92467 0.0
H940 H 0.86953 0.66715 0.99376 0.0
H941 H 0.82192 0.6742 0.97604 0.0
C942 C 0.41417 0.86787 0.28484 0.0
C943 C 0.4222 0.84435 0.283 0.0
C944 C 0.43222 0.89464 0.27523 0.0
C945 C 0.50487 0.93448 0.24437 0.0
H946 H 0.44735 0.95886 0.20011 0.0
C947 C 0.5496 0.01304 0.16512 0.0
C948 C 0.52832 0.00602 0.14074 0.0
C949 C 0.53871 0.99963 0.18727 0.0
C950 C 0.46377 0.95226 0.21224 0.0
H951 H 0.45677 0.83108 0.27168 0.0
H952 H 0.48775 0.87717 0.2545 0.0
H953 H 0.42701 0.92463 0.23244 0.0
H954 H 0.4789 0.98023 0.12034 0.0
H955 H 0.46002 0.9556 0.15862 0.0
H956 H 0.54085 0.96008 0.22263 0.0
C957 C 0.46803 0.87552 0.26373 0.0
C958 C 0.45225 0.933 0.23124 0.0
C959 C 0.45024 0.84895 0.27363 0.0
C960 C 0.49578 0.98591 0.13895 0.0
C961 C 0.48496 0.97207 0.16101 0.0
C962 C 0.51624 0.95336 0.2251 0.0
C963 C 0.45834 0.8982 0.26325 0.0
C964 C 0.47238 0.9231 0.24699 0.0
C965 C 0.50639 0.9785 0.18541 0.0
C966 C 0.49555 0.96179 0.20823 0.0
H967 H 0.39275 0.86489 0.29219 0.0
H968 H 0.42459 0.91191 0.27585 0.0
H969 H 0.52126 0.92783 0.25649 0.0
H970 H 0.57476 0.0289 0.16709 0.0
H971 H 0.55576 0.00568 0.20579 0.0
C972 C 0.1491 0.34154 0.70264 0.0
C973 C 0.15673 0.34501 0.73041 0.0
C974 C 0.13441 0.31343 0.68875 0.0
C975 C 0.08362 0.23544 0.69179 0.0
H976 H 0.12978 0.22162 0.64172 0.0
C977 C 0.04046 0.11879 0.63882 0.0
C978 C 0.04554 0.11691 0.61301 0.0
C979 C 0.05421 0.14622 0.65392 0.0
C980 C 0.11613 0.22507 0.65521 0.0
H981 H 0.15375 0.32095 0.76514 0.0
H982 H 0.12666 0.27199 0.74076 0.0
H983 H 0.15129 0.27027 0.66568 0.0
H984 H 0.0678 0.14204 0.58241 0.0
H985 H 0.09071 0.18983 0.60796 0.0
H986 H 0.04773 0.19078 0.68073 0.0
C987 C 0.13252 0.29125 0.72991 0.0
C988 C 0.12866 0.25299 0.66906 0.0
C989 C 0.14785 0.31939 0.74385 0.0
C990 C 0.06427 0.14285 0.60247 0.0
C991 C 0.07745 0.17029 0.61727 0.0
C992 C 0.07066 0.20763 0.67751 0.0
C993 C 0.12627 0.28806 0.70226 0.0
C994 C 0.11256 0.25844 0.68748 0.0
C995 C 0.07274 0.17247 0.6433 0.0
C996 C 0.08672 0.20199 0.65897 0.0
H997 H 0.15479 0.36056 0.69153 0.0
H998 H 0.12947 0.3115 0.6674 0.0
H999 H 0.0707 0.23918 0.70584 0.0
H1000 H 0.02603 0.09903 0.64738 0.0
H1001 H 0.0504 0.14672 0.67397 0.0
C1002 C 0.72226 0.32764 0.4893 0.0
C1003 C 0.71324 0.30711 0.46725 0.0
C1004 C 0.70947 0.34782 0.48953 0.0
C1005 C 0.63697 0.35516 0.46064 0.0
H1006 H 0.68449 0.43362 0.49811 0.0
C1007 C 0.57496 0.42895 0.47788 0.0
C1008 C 0.58297 0.44291 0.50361 0.0
C1009 C 0.59278 0.41532 0.46993 0.0
C1010 C 0.67085 0.41172 0.48766 0.0
H1011 H 0.68501 0.29258 0.42762 0.0
H1012 H 0.66265 0.32814 0.4279 0.0
H1013 H 0.71328 0.40536 0.48949 0.0
H1014 H 0.61612 0.45336 0.54113 0.0
H1015 H 0.64717 0.42974 0.52728 0.0
H1016 H 0.59443 0.3612 0.45942 0.0
C1017 C 0.67942 0.32836 0.44513 0.0
C1018 C 0.68736 0.39555 0.48268 0.0
C1019 C 0.69243 0.30821 0.44485 0.0
C1020 C 0.60956 0.44327 0.52104 0.0
C1021 C 0.62741 0.42972 0.51308 0.0
C1022 C 0.62046 0.37135 0.4656 0.0
C1023 C 0.68724 0.34795 0.46773 0.0
C1024 C 0.67052 0.36679 0.46966 0.0
C1025 C 0.61912 0.4154 0.4875 0.0
C1026 C 0.6371 0.39955 0.47972 0.0
H1027 H 0.7385 0.32747 0.50675 0.0
H1028 H 0.71584 0.36236 0.50735 0.0
H1029 H 0.62316 0.33294 0.45086 0.0
H1030 H 0.55496 0.42867 0.4638 0.0
H1031 H 0.586 0.40478 0.44999 0.0
loop_
_geom_bond_atom_site_label_1
_geom_bond_atom_site_label_2
_geom_bond_distance
_geom_bond_site_symmetry_2
_ccdc_geom_bond_type
H0 C1 0.949 . S
C1 H0 0.949 . S
C1 C2 1.395 . S
C1 C3 1.391 . S
C2 C1 1.395 . S
C2 C5 1.390 . S
C3 C1 1.391 . S
C3 C7 1.387 . S
C3 C8 1.491 . S
H4 C5 0.950 . S
C5 C2 1.390 . S
C5 H4 0.950 . S
C5 C6 1.378 . S
C6 C5 1.378 . S
C6 C7 1.409 . S
C7 C3 1.387 . S
C7 C6 1.409 . S
C7 H9 0.951 . S
C8 C3 1.491 . S
C8 C10 1.382 . S
C8 C12 1.404 . S
H9 C7 0.951 . S
C10 C8 1.382 . S
C10 C11 1.390 . S
C10 H15 0.949 . S
C11 C10 1.390 . S
C11 C16 1.399 . S
C12 C8 1.404 . S
C12 H13 0.950 . S
C12 C14 1.375 . S
H13 C12 0.950 . S
C14 C12 1.375 . S
C14 C16 1.382 . S
C14 H18 0.950 . S
H15 C10 0.949 . S
C16 C11 1.399 . S
C16 C14 1.382 . S
C16 H17 0.952 . S
H17 C16 0.952 . S
H18 C14 0.950 . S
H19 C20 0.949 . S
C20 H19 0.949 . S
C20 C21 1.395 . S
C20 C22 1.391 . S
C21 C20 1.395 . S
C21 C24 1.390 . S
C22 C20 1.391 . S
C22 C26 1.387 . S
C22 C27 1.491 . S
H23 C24 0.950 . S
C24 C21 1.390 . S
C24 H23 0.950 . S
C24 C25 1.378 . S
C25 C24 1.378 . S
C25 C26 1.409 . S
C26 C22 1.387 . S
C26 C25 1.409 . S
C26 H28 0.951 . S
C27 C22 1.491 . S
C27 C29 1.382 . S
C27 C31 1.404 . S
H28 C26 0.951 . S
C29 C27 1.382 . S
C29 C30 1.390 . S
C29 H34 0.949 . S
C30 C29 1.390 . S
C30 C35 1.399 . S
C31 C27 1.404 . S
C31 H32 0.950 . S
C31 C33 1.375 . S
H32 C31 0.950 . S
C33 C31 1.375 . S
C33 C35 1.382 . S
C33 H37 0.950 . S
H34 C29 0.949 . S
C35 C30 1.399 . S
C35 C33 1.382 . S
C35 H36 0.952 . S
H36 C35 0.952 . S
H37 C33 0.950 . S
H38 C39 0.949 . S
C39 H38 0.949 . S
C39 C40 1.395 . S
C39 C41 1.391 . S
C40 C39 1.395 . S
C40 C43 1.390 . S
C41 C39 1.391 . S
C41 C45 1.387 . S
C41 C46 1.491 . S
H42 C43 0.950 . S
C43 C40 1.390 . S
C43 H42 0.950 . S
C43 C44 1.378 . S
C44 C43 1.378 . S
C44 C45 1.409 . S
C45 C41 1.387 . S
C45 C44 1.409 . S
C45 H47 0.951 . S
C46 C41 1.491 . S
C46 C48 1.382 . S
C46 C50 1.404 . S
H47 C45 0.951 . S
C48 C46 1.382 . S
C48 C49 1.390 . S
C48 H53 0.949 . S
C49 C48 1.390 . S
C49 C54 1.399 . S
C50 C46 1.404 . S
C50 H51 0.950 . S
C50 C52 1.375 . S
H51 C50 0.950 . S
C52 C50 1.375 . S
C52 C54 1.382 . S
C52 H56 0.950 . S
H53 C48 0.949 . S
C54 C49 1.399 . S
C54 C52 1.382 . S
C54 H55 0.952 . S
H55 C54 0.952 . S
H56 C52 0.950 . S
H57 C58 0.949 . S
C58 H57 0.949 . S
C58 C59 1.395 . S
C58 C60 1.391 . S
C59 C58 1.395 . S
C59 C62 1.390 . S
C60 C58 1.391 . S
C60 C64 1.387 . S
C60 C65 1.491 . S
H61 C62 0.950 . S
C62 C59 1.390 . S
C62 H61 0.950 . S
C62 C63 1.378 . S
C63 C62 1.378 . S
C63 C64 1.409 . S
C64 C60 1.387 . S
C64 C63 1.409 . S
C64 H66 0.951 . S
C65 C60 1.491 . S
C65 C67 1.382 . S
C65 C69 1.404 . S
H66 C64 0.951 . S
C67 C65 1.382 . S
C67 C68 1.390 . S
C67 H72 0.949 . S
C68 C67 1.390 . S
C68 C73 1.399 . S
C69 C65 1.404 . S
C69 H70 0.950 . S
C69 C71 1.375 . S
H70 C69 0.950 . S
C71 C69 1.375 . S
C71 C73 1.382 . S
C71 H75 0.950 . S
H72 C67 0.949 . S
C73 C68 1.399 . S
C73 C71 1.382 . S
C73 H74 0.952 . S
H74 C73 0.952 . S
H75 C71 0.950 . S
H76 C77 0.949 . S
C77 H76 0.949 . S
C77 C78 1.395 . S
C77 C79 1.391 . S
C78 C77 1.395 . S
C78 C81 1.390 . S
C79 C77 1.391 . S
C79 C83 1.387 . S
C79 C84 1.491 . S
H80 C81 0.950 . S
C81 C78 1.390 . S
C81 H80 0.950 . S
C81 C82 1.378 . S
C82 C81 1.378 . S
C82 C83 1.409 . S
C83 C79 1.387 . S
C83 C82 1.409 . S
C83 H85 0.951 . S
C84 C79 1.491 . S
C84 C86 1.382 . S
C84 C88 1.404 . S
H85 C83 0.951 . S
C86 C84 1.382 . S
C86 C87 1.390 . S
C86 H91 0.949 . S
C87 C86 1.390 . S
C87 C92 1.399 . S
C88 C84 1.404 . S
C88 H89 0.950 . S
C88 C90 1.375 . S
H89 C88 0.950 . S
C90 C88 1.375 . S
C90 C92 1.382 . S
C90 H94 0.950 . S
H91 C86 0.949 . S
C92 C87 1.399 . S
C92 C90 1.382 . S
C92 H93 0.952 . S
H93 C92 0.952 . S
H94 C90 0.950 . S
H95 C96 0.949 . S
C96 H95 0.949 . S
C96 C97 1.395 . S
C96 C98 1.391 . S
C97 C96 1.395 . S
C97 C100 1.390 . S
C98 C96 1.391 . S
C98 C102 1.387 . S
C98 C103 1.491 . S
H99 C100 0.950 . S
C100 C97 1.390 . S
C100 H99 0.950 . S
C100 C101 1.378 . S
C101 C100 1.378 . S
C101 C102 1.409 . S
C102 C98 1.387 . S
C102 C101 1.409 . S
C102 H104 0.951 . S
C103 C98 1.491 . S
C103 C105 1.382 . S
C103 C107 1.404 . S
H104 C102 0.951 . S
C105 C103 1.382 . S
C105 C106 1.390 . S
C105 H110 0.949 . S
C106 C105 1.390 . S
C106 C111 1.399 . S
C107 C103 1.404 . S
C107 H108 0.950 . S
C107 C109 1.375 . S
H108 C107 0.950 . S
C109 C107 1.375 . S
C109 C111 1.382 . S
C109 H113 0.950 . S
H110 C105 0.949 . S
C111 C106 1.399 . S
C111 C109 1.382 . S
C111 H112 0.952 . S
H112 C111 0.952 . S
H113 C109 0.950 . S
H114 C115 0.949 . S
C115 H114 0.949 . S
C115 C116 1.395 . S
C115 C117 1.391 . S
C116 C115 1.395 . S
C116 C119 1.390 . S
C117 C115 1.391 . S
C117 C121 1.387 . S
C117 C122 1.491 . S
H118 C119 0.950 . S
C119 C116 1.390 . S
C119 H118 0.950 . S
C119 C120 1.378 . S
C120 C119 1.378 . S
C120 C121 1.409 . S
C121 C117 1.387 . S
C121 C120 1.409 . S
C121 H123 0.951 . S
C122 C117 1.491 . S
C122 C124 1.382 . S
C122 C126 1.404 . S
H123 C121 0.951 . S
C124 C122 1.382 . S
C124 C125 1.390 . S
C124 H129 0.949 . S
C125 C124 1.390 . S
C125 C130 1.399 . S
C126 C122 1.404 . S
C126 H127 0.950 . S
C126 C128 1.375 . S
H127 C126 0.950 . S
C128 C126 1.375 . S
C128 C130 1.382 . S
C128 H132 0.950 . S
H129 C124 0.949 . S
C130 C125 1.399 . S
C130 C128 1.382 . S
C130 H131 0.952 . S
H131 C130 0.952 . S
H132 C128 0.950 . S
H133 C134 0.949 . S
C134 H133 0.949 . S
C134 C135 1.395 . S
C134 C136 1.391 . S
C135 C134 1.395 . S
C135 C138 1.390 . S
C136 C134 1.391 . S
C136 C140 1.387 . S
C136 C141 1.491 . S
H137 C138 0.950 . S
C138 C135 1.390 . S
C138 H137 0.950 . S
C138 C139 1.378 . S
C139 C138 1.378 . S
C139 C140 1.409 . S
C140 C136 1.387 . S
C140 C139 1.409 . S
C140 H142 0.951 . S
C141 C136 1.491 . S
C141 C143 1.382 . S
C141 C145 1.404 . S
H142 C140 0.951 . S
C143 C141 1.382 . S
C143 C144 1.390 . S
C143 H148 0.949 . S
C144 C143 1.390 . S
C144 C149 1.399 . S
C145 C141 1.404 . S
C145 H146 0.950 . S
C145 C147 1.375 . S
H146 C145 0.950 . S
C147 C145 1.375 . S
C147 C149 1.382 . S
C147 H151 0.950 . S
H148 C143 0.949 . S
C149 C144 1.399 . S
C149 C147 1.382 . S
C149 H150 0.952 . S
H150 C149 0.952 . S
H151 C147 0.950 . S
Pr152 C154 2.880 1_545 S
Pr152 O172 2.562 1_545 S
Pr152 O173 2.490 . S
Pr152 O174 2.695 1_655 S
Pr152 O175 2.512 1_655 S
Pr152 O177 2.437 1_655 S
Pr152 O180 2.436 . S
Pr152 O182 2.438 . S
Pr153 C163 2.880 . S
Pr153 O174 2.436 . S
Pr153 O176 2.438 . S
Pr153 O178 2.562 . S
Pr153 O179 2.490 . S
Pr153 O180 2.695 1_455 S
Pr153 O181 2.512 . S
Pr153 O183 2.435 1_455 S
C154 Pr152 2.880 1_565 S
C154 C155 1.491 . S
C154 O172 1.254 . S
C154 O173 1.225 1_565 S
C155 C154 1.491 . S
C155 C156 1.392 . S
C155 C160 1.356 . S
C156 C155 1.392 . S
C156 C157 1.368 . S
C156 H184 0.929 . S
C157 C156 1.368 . S
C157 C158 1.386 . S
C157 H185 0.929 . S
C158 C157 1.386 . S
C158 C159 1.373 . S
C159 C158 1.373 . S
C159 C160 1.409 . S
C159 H186 0.931 . S
C160 C155 1.356 . S
C160 C159 1.409 . S
C160 H187 0.930 . S
C161 O174 1.270 . S
C161 O175 1.248 . S
C162 O176 1.267 . S
C162 O177 1.278 . S
C163 Pr153 2.880 . S
C163 C164 1.491 . S
C163 O178 1.254 . S
C163 O179 1.225 . S
C164 C163 1.491 . S
C164 C165 1.392 . S
C164 C169 1.356 . S
C165 C164 1.392 . S
C165 C166 1.368 . S
C165 H188 0.929 . S
C166 C165 1.368 . S
C166 C167 1.386 . S
C166 H189 0.929 . S
C167 C166 1.386 . S
C167 C168 1.373 . S
C168 C167 1.373 . S
C168 C169 1.409 . S
C168 H190 0.931 . S
C169 C164 1.356 . S
C169 C168 1.409 . S
C169 H191 0.930 . S
C170 O180 1.270 1_565 S
C170 O181 1.248 1_665 S
C171 O182 1.267 . S
C171 O183 1.280 . S
O172 Pr152 2.562 1_565 S
O172 C154 1.254 . S
O173 Pr152 2.490 . S
O173 C154 1.225 1_545 S
O174 Pr152 2.695 1_455 S
O174 Pr153 2.436 . S
O174 C161 1.270 . S
O175 Pr152 2.512 1_455 S
O175 C161 1.248 . S
O176 Pr153 2.438 . S
O176 C162 1.267 . S
O177 Pr152 2.437 1_455 S
O177 C162 1.278 . S
O178 Pr153 2.562 . S
O178 C163 1.254 . S
O179 Pr153 2.490 . S
O179 C163 1.225 . S
O180 Pr152 2.436 . S
O180 Pr153 2.695 1_655 S
O180 C170 1.270 1_545 S
O181 Pr153 2.512 . S
O181 C170 1.248 1_445 S
O182 Pr152 2.438 . S
O182 C171 1.267 . S
O183 Pr153 2.435 1_655 S
O183 C171 1.280 . S
H184 C156 0.929 . S
H185 C157 0.929 . S
H186 C159 0.931 . S
H187 C160 0.930 . S
H188 C165 0.929 . S
H189 C166 0.929 . S
H190 C168 0.931 . S
H191 C169 0.930 . S
Pr192 C194 2.880 . S
Pr192 O212 2.562 . S
Pr192 O213 2.490 . S
Pr192 O214 2.695 . S
Pr192 O215 2.512 . S
Pr192 O217 2.437 . S
Pr192 O220 2.436 . S
Pr192 O222 2.438 . S
Pr193 C203 2.880 1_545 S
Pr193 O214 2.436 . S
Pr193 O216 2.438 . S
Pr193 O218 2.562 . S
Pr193 O219 2.490 1_545 S
Pr193 O220 2.695 . S
Pr193 O221 2.512 1_545 S
Pr193 O223 2.437 1_545 S
C194 Pr192 2.880 . S
C194 C195 1.491 . S
C194 O212 1.254 . S
C194 O213 1.225 . S
C195 C194 1.491 . S
C195 C196 1.392 . S
C195 C200 1.356 . S
C196 C195 1.392 . S
C196 C197 1.368 . S
C196 H224 0.929 . S
C197 C196 1.368 . S
C197 C198 1.386 . S
C197 H225 0.929 . S
C198 C197 1.386 . S
C198 C199 1.373 . S
C199 C198 1.373 . S
C199 C200 1.409 . S
C199 H226 0.931 . S
C200 C195 1.356 . S
C200 C199 1.409 . S
C200 H227 0.930 . S
C201 O214 1.270 . S
C201 O215 1.248 . S
C202 O216 1.267 . S
C202 O217 1.278 . S
C203 Pr193 2.880 1_565 S
C203 C204 1.491 . S
C203 O218 1.254 1_565 S
C203 O219 1.225 . S
C204 C203 1.491 . S
C204 C205 1.392 . S
C204 C209 1.378 . S
C205 C204 1.392 . S
C205 C206 1.368 . S
C205 H228 0.929 . S
C206 C205 1.368 . S
C206 C207 1.386 1_554 S
C206 H229 0.929 . S
C207 C206 1.386 1_556 S
C207 C208 1.373 . S
C208 C207 1.373 . S
C208 C209 1.394 1_556 S
C208 H230 0.931 . S
C209 C204 1.378 . S
C209 C208 1.394 1_554 S
C209 H231 0.923 1_554 S
C210 O220 1.270 1_565 S
C210 O221 1.248 . S
C211 O222 1.267 1_565 S
C211 O223 1.278 . S
O212 Pr192 2.562 . S
O212 C194 1.254 . S
O213 Pr192 2.490 . S
O213 C194 1.225 . S
O214 Pr192 2.695 . S
O214 Pr193 2.436 . S
O214 C201 1.270 . S
O215 Pr192 2.512 . S
O215 C201 1.248 . S
O216 Pr193 2.438 . S
O216 C202 1.267 . S
O217 Pr192 2.437 . S
O217 C202 1.278 . S
O218 Pr193 2.562 . S
O218 C203 1.254 1_545 S
O219 Pr193 2.490 1_565 S
O219 C203 1.225 . S
O220 Pr192 2.436 . S
O220 Pr193 2.695 . S
O220 C210 1.270 1_545 S
O221 Pr193 2.512 1_565 S
O221 C210 1.248 . S
O222 Pr192 2.438 . S
O222 C211 1.267 1_545 S
O223 Pr193 2.437 1_565 S
O223 C211 1.278 . S
H224 C196 0.929 . S
H225 C197 0.929 . S
H226 C199 0.931 . S
H227 C200 0.930 . S
H228 C205 0.929 . S
H229 C206 0.929 . S
H230 C208 0.931 . S
H231 C209 0.923 1_556 S
Pr232 C234 2.880 . S
Pr232 O252 2.562 . S
Pr232 O253 2.490 . S
Pr232 O254 2.695 . S
Pr232 O255 2.512 . S
Pr232 O257 2.437 . S
Pr232 O260 2.436 . S
Pr232 O262 2.438 . S
Pr233 C243 2.880 . S
Pr233 O254 2.436 . S
Pr233 O256 2.438 . S
Pr233 O258 2.562 . S
Pr233 O259 2.490 . S
Pr233 O260 2.695 . S
Pr233 O261 2.512 . S
Pr233 O263 2.437 . S
C234 Pr232 2.880 . S
C234 C235 1.491 . S
C234 O252 1.254 . S
C234 O253 1.225 . S
C235 C234 1.491 . S
C235 C236 1.392 . S
C235 C240 1.356 . S
C236 C235 1.392 . S
C236 C237 1.368 . S
C236 H264 0.929 . S
C237 C236 1.368 . S
C237 C238 1.386 . S
C237 H265 0.929 . S
C238 C237 1.386 . S
C238 C239 1.373 . S
C239 C238 1.373 . S
C239 C240 1.409 . S
C239 H266 0.931 . S
C240 C235 1.356 . S
C240 C239 1.409 . S
C240 H267 0.930 . S
C241 O254 1.270 . S
C241 O255 1.248 . S
C242 O256 1.267 . S
C242 O257 1.278 . S
C243 Pr233 2.880 . S
C243 C244 1.491 . S
C243 O258 1.254 . S
C243 O259 1.225 . S
C244 C243 1.491 . S
C244 C245 1.392 . S
C244 C249 1.356 . S
C245 C244 1.392 . S
C245 C246 1.368 . S
C245 H268 0.929 . S
C246 C245 1.368 . S
C246 C247 1.386 . S
C246 H269 0.929 . S
C247 C246 1.386 . S
C247 C248 1.373 . S
C248 C247 1.373 . S
C248 C249 1.409 . S
C248 H270 0.931 . S
C249 C244 1.356 . S
C249 C248 1.409 . S
C249 H271 0.930 . S
C250 O260 1.270 . S
C250 O261 1.248 . S
C251 O262 1.267 . S
C251 O263 1.278 . S
O252 Pr232 2.562 . S
O252 C234 1.254 . S
O253 Pr232 2.490 . S
O253 C234 1.225 . S
O254 Pr232 2.695 . S
O254 Pr233 2.436 . S
O254 C241 1.270 . S
O255 Pr232 2.512 . S
O255 C241 1.248 . S
O256 Pr233 2.438 . S
O256 C242 1.267 . S
O257 Pr232 2.437 . S
O257 C242 1.278 . S
O258 Pr233 2.562 . S
O258 C243 1.254 . S
O259 Pr233 2.490 . S
O259 C243 1.225 . S
O260 Pr232 2.436 . S
O260 Pr233 2.695 . S
O260 C250 1.270 . S
O261 Pr233 2.512 . S
O261 C250 1.248 . S
O262 Pr232 2.438 . S
O262 C251 1.267 . S
O263 Pr233 2.437 . S
O263 C251 1.278 . S
H264 C236 0.929 . S
H265 C237 0.929 . S
H266 C239 0.931 . S
H267 C240 0.930 . S
H268 C245 0.929 . S
H269 C246 0.929 . S
H270 C248 0.931 . S
H271 C249 0.930 . S
Pr272 C274 2.880 . S
Pr272 O292 2.562 1_455 S
Pr272 O293 2.490 . S
Pr272 O294 2.695 1_556 S
Pr272 O295 2.512 1_556 S
Pr272 O297 2.437 1_556 S
Pr272 O300 2.436 . S
Pr272 O302 2.438 . S
Pr273 C283 2.880 . S
Pr273 O294 2.436 . S
Pr273 O296 2.438 . S
Pr273 O298 2.562 . S
Pr273 O299 2.490 . S
Pr273 O300 2.695 1_554 S
Pr273 O301 2.526 1_455 S
Pr273 O303 2.437 1_554 S
C274 Pr272 2.880 . S
C274 C275 1.491 1_455 S
C274 O292 1.254 1_455 S
C274 O293 1.225 . S
C275 C274 1.491 1_655 S
C275 C276 1.392 1_655 S
C275 C280 1.356 . S
C276 C275 1.392 1_455 S
C276 C277 1.368 1_455 S
C276 H304 0.929 . S
C277 C276 1.368 1_655 S
C277 C278 1.386 . S
C277 H305 0.929 1_655 S
C278 C277 1.386 . S
C278 C279 1.373 . S
C279 C278 1.373 . S
C279 C280 1.409 . S
C279 H306 0.931 . S
C280 C275 1.356 . S
C280 C279 1.409 . S
C280 H307 0.930 . S
C281 O294 1.270 . S
C281 O295 1.248 . S
C282 O296 1.265 1_655 S
C282 O297 1.277 1_655 S
C283 Pr273 2.880 . S
C283 C284 1.491 . S
C283 O298 1.254 . S
C283 O299 1.225 . S
C284 C283 1.491 . S
C284 C285 1.392 . S
C284 C289 1.356 . S
C285 C284 1.392 . S
C285 C286 1.368 . S
C285 H308 0.929 . S
C286 C285 1.368 . S
C286 C287 1.386 . S
C286 H309 0.929 . S
C287 C286 1.386 . S
C287 C288 1.373 . S
C288 C287 1.373 . S
C288 C289 1.409 . S
C288 H310 0.931 . S
C289 C284 1.356 . S
C289 C288 1.409 . S
C289 H311 0.930 . S
C290 O300 1.270 1_655 S
C290 O301 1.236 1_556 S
C291 O302 1.267 . S
C291 O303 1.278 . S
O292 Pr272 2.562 1_655 S
O292 C274 1.254 1_655 S
O293 Pr272 2.490 . S
O293 C274 1.225 . S
O294 Pr272 2.695 1_554 S
O294 Pr273 2.436 . S
O294 C281 1.270 . S
O295 Pr272 2.512 1_554 S
O295 C281 1.248 . S
O296 Pr273 2.438 . S
O296 C282 1.265 1_455 S
O297 Pr272 2.437 1_554 S
O297 C282 1.277 1_455 S
O298 Pr273 2.562 . S
O298 C283 1.254 . S
O299 Pr273 2.490 . S
O299 C283 1.225 . S
O300 Pr272 2.436 . S
O300 Pr273 2.695 1_556 S
O300 C290 1.270 1_455 S
O301 Pr273 2.526 1_655 S
O301 C290 1.236 1_554 S
O302 Pr272 2.438 . S
O302 C291 1.267 . S
O303 Pr273 2.437 1_556 S
O303 C291 1.278 . S
H304 C276 0.929 . S
H305 C277 0.929 1_455 S
H306 C279 0.931 . S
H307 C280 0.930 . S
H308 C285 0.929 . S
H309 C286 0.929 . S
H310 C288 0.931 . S
H311 C289 0.930 . S
C312 C313 1.349 . S
C312 C314 1.327 . S
C312 H337 0.950 . S
C313 C312 1.349 . S
C313 C329 1.349 . S
C314 C312 1.327 . S
C314 C333 1.429 . S
C314 H338 0.950 . S
C315 C332 1.574 . S
C315 C334 1.368 . S
C315 H339 0.949 . S
H316 C320 0.949 . S
C317 C318 1.349 . S
C317 C319 1.327 . S
C317 H340 0.950 . S
C318 C317 1.349 . S
C318 C330 1.349 . S
C319 C317 1.327 . S
C319 C335 1.429 . S
C319 H341 0.950 . S
C320 H316 0.949 . S
C320 C328 1.574 . S
C320 C336 1.368 . S
H321 C329 0.950 . S
H322 C327 0.950 . S
H323 C328 0.949 . S
H324 C330 0.950 . S
H325 C331 0.950 . S
H326 C332 0.949 . S
C327 H322 0.950 . S
C327 C329 1.327 . S
C327 C333 1.429 . S
C328 C320 1.574 . S
C328 H323 0.949 . S
C328 C334 1.368 . S
C329 C313 1.349 . S
C329 H321 0.950 . S
C329 C327 1.327 . S
C330 C318 1.349 . S
C330 H324 0.950 . S
C330 C331 1.327 . S
C331 H325 0.950 . S
C331 C330 1.327 . S
C331 C335 1.429 . S
C332 C315 1.574 . S
C332 H326 0.949 . S
C332 C336 1.368 . S
C333 C314 1.429 . S
C333 C327 1.429 . S
C333 C334 1.523 . S
C334 C315 1.368 . S
C334 C328 1.368 . S
C334 C333 1.523 . S
C335 C319 1.429 . S
C335 C331 1.429 . S
C335 C336 1.523 . S
C336 C320 1.368 . S
C336 C332 1.368 . S
C336 C335 1.523 . S
H337 C312 0.950 . S
H338 C314 0.950 . S
H339 C315 0.949 . S
H340 C317 0.950 . S
H341 C319 0.950 . S
C342 C343 1.349 . S
C342 C344 1.327 . S
C342 H367 0.950 . S
C343 C342 1.349 . S
C343 C359 1.349 . S
C344 C342 1.327 . S
C344 C363 1.429 . S
C344 H368 0.950 . S
C345 C362 1.574 . S
C345 C364 1.368 . S
C345 H369 0.949 . S
H346 C350 0.949 . S
C347 C348 1.354 1_556 S
C347 C349 1.358 . S
C347 H370 0.914 1_556 S
C348 C347 1.354 1_554 S
C348 C360 1.349 1_554 S
C349 C347 1.358 . S
C349 C365 1.429 . S
C349 H371 0.950 . S
C350 H346 0.949 . S
C350 C358 1.574 . S
C350 C366 1.368 . S
H351 C359 0.950 . S
H352 C357 0.950 . S
H353 C358 0.949 . S
H354 C360 0.950 . S
H355 C361 0.950 . S
H356 C362 0.949 . S
C357 H352 0.950 . S
C357 C359 1.327 . S
C357 C363 1.429 . S
C358 C350 1.574 . S
C358 H353 0.949 . S
C358 C364 1.368 . S
C359 C343 1.349 . S
C359 H351 0.950 . S
C359 C357 1.327 . S
C360 C348 1.349 1_556 S
C360 H354 0.950 . S
C360 C361 1.327 . S
C361 H355 0.950 . S
C361 C360 1.327 . S
C361 C365 1.429 . S
C362 C345 1.574 . S
C362 H356 0.949 . S
C362 C366 1.368 . S
C363 C344 1.429 . S
C363 C357 1.429 . S
C363 C364 1.523 . S
C364 C345 1.368 . S
C364 C358 1.368 . S
C364 C363 1.523 . S
C365 C349 1.429 . S
C365 C361 1.429 . S
C365 C366 1.523 . S
C366 C350 1.368 . S
C366 C362 1.368 . S
C366 C365 1.523 . S
H367 C342 0.950 . S
H368 C344 0.950 . S
H369 C345 0.949 . S
H370 C347 0.914 1_554 S
H371 C349 0.950 . S
C372 C373 1.349 . S
C372 C374 1.327 . S
C372 H397 0.950 . S
C373 C372 1.349 . S
C373 C389 1.349 . S
C374 C372 1.327 . S
C374 C393 1.429 . S
C374 H398 0.950 . S
C375 C392 1.574 . S
C375 C394 1.368 . S
C375 H399 0.949 . S
H376 C380 0.949 . S
C377 C378 1.349 . S
C377 C379 1.327 . S
C377 H400 0.950 . S
C378 C377 1.349 . S
C378 C390 1.349 . S
C379 C377 1.327 . S
C379 C395 1.429 . S
C379 H401 0.950 . S
C380 H376 0.949 . S
C380 C388 1.574 . S
C380 C396 1.368 . S
H381 C389 0.950 . S
H382 C387 0.950 . S
H383 C388 0.949 . S
H384 C390 0.950 . S
H385 C391 0.950 . S
H386 C392 0.949 . S
C387 H382 0.950 . S
C387 C389 1.327 . S
C387 C393 1.429 . S
C388 C380 1.574 . S
C388 H383 0.949 . S
C388 C394 1.368 . S
C389 C373 1.349 . S
C389 H381 0.950 . S
C389 C387 1.327 . S
C390 C378 1.349 . S
C390 H384 0.950 . S
C390 C391 1.327 . S
C391 H385 0.950 . S
C391 C390 1.327 . S
C391 C395 1.429 . S
C392 C375 1.574 . S
C392 H386 0.949 . S
C392 C396 1.368 . S
C393 C374 1.429 . S
C393 C387 1.429 . S
C393 C394 1.523 . S
C394 C375 1.368 . S
C394 C388 1.368 . S
C394 C393 1.523 . S
C395 C379 1.429 . S
C395 C391 1.429 . S
C395 C396 1.523 . S
C396 C380 1.368 . S
C396 C392 1.368 . S
C396 C395 1.523 . S
H397 C372 0.950 . S
H398 C374 0.950 . S
H399 C375 0.949 . S
H400 C377 0.950 . S
H401 C379 0.950 . S
C402 C403 1.349 . S
C402 C404 1.327 . S
C402 H427 0.950 . S
C403 C402 1.349 . S
C403 C419 1.349 . S
C404 C402 1.327 . S
C404 C423 1.429 . S
C404 H428 0.950 . S
C405 C422 1.574 . S
C405 C424 1.368 . S
C405 H429 0.949 . S
H406 C410 0.949 . S
C407 C408 1.349 . S
C407 C409 1.327 . S
C407 H430 0.950 . S
C408 C407 1.349 . S
C408 C420 1.349 . S
C409 C407 1.327 . S
C409 C425 1.429 . S
C409 H431 0.950 . S
C410 H406 0.949 . S
C410 C418 1.574 . S
C410 C426 1.368 . S
H411 C419 0.950 . S
H412 C417 0.950 . S
H413 C418 0.949 . S
H414 C420 0.950 . S
H415 C421 0.950 . S
H416 C422 0.949 . S
C417 H412 0.950 . S
C417 C419 1.327 . S
C417 C423 1.429 . S
C418 C410 1.574 . S
C418 H413 0.949 . S
C418 C424 1.368 . S
C419 C403 1.349 . S
C419 H411 0.950 . S
C419 C417 1.327 . S
C420 C408 1.349 . S
C420 H414 0.950 . S
C420 C421 1.327 . S
C421 H415 0.950 . S
C421 C420 1.327 . S
C421 C425 1.429 . S
C422 C405 1.574 . S
C422 H416 0.949 . S
C422 C426 1.368 . S
C423 C404 1.429 . S
C423 C417 1.429 . S
C423 C424 1.523 . S
C424 C405 1.368 . S
C424 C418 1.368 . S
C424 C423 1.523 . S
C425 C409 1.429 . S
C425 C421 1.429 . S
C425 C426 1.523 . S
C426 C410 1.368 . S
C426 C422 1.368 . S
C426 C425 1.523 . S
H427 C402 0.950 . S
H428 C404 0.950 . S
H429 C405 0.949 . S
H430 C407 0.950 . S
H431 C409 0.950 . S
C432 C433 1.349 . S
C432 C434 1.327 . S
C432 H457 0.950 . S
C433 C432 1.349 . S
C433 C449 1.349 . S
C434 C432 1.327 . S
C434 C453 1.429 . S
C434 H458 0.950 . S
C435 C452 1.574 . S
C435 C454 1.368 . S
C435 H459 0.949 . S
H436 C440 0.949 . S
C437 C438 1.349 . S
C437 C439 1.327 . S
C437 H460 0.950 . S
C438 C437 1.349 . S
C438 C450 1.349 . S
C439 C437 1.327 . S
C439 C455 1.429 . S
C439 H461 0.950 . S
C440 H436 0.949 . S
C440 C448 1.574 . S
C440 C456 1.368 . S
H441 C449 0.950 . S
H442 C447 0.950 . S
H443 C448 0.949 . S
H444 C450 0.950 . S
H445 C451 0.950 . S
H446 C452 0.949 . S
C447 H442 0.950 . S
C447 C449 1.327 . S
C447 C453 1.429 . S
C448 C440 1.574 . S
C448 H443 0.949 . S
C448 C454 1.368 . S
C449 C433 1.349 . S
C449 H441 0.950 . S
C449 C447 1.327 . S
C450 C438 1.349 . S
C450 H444 0.950 . S
C450 C451 1.327 . S
C451 H445 0.950 . S
C451 C450 1.327 . S
C451 C455 1.429 . S
C452 C435 1.574 . S
C452 H446 0.949 . S
C452 C456 1.368 . S
C453 C434 1.429 . S
C453 C447 1.429 . S
C453 C454 1.523 . S
C454 C435 1.368 . S
C454 C448 1.368 . S
C454 C453 1.523 . S
C455 C439 1.429 . S
C455 C451 1.429 . S
C455 C456 1.523 . S
C456 C440 1.368 . S
C456 C452 1.368 . S
C456 C455 1.523 . S
H457 C432 0.950 . S
H458 C434 0.950 . S
H459 C435 0.949 . S
H460 C437 0.950 . S
H461 C439 0.950 . S
C462 C463 1.349 . S
C462 C464 1.327 . S
C462 H487 0.950 . S
C463 C462 1.349 . S
C463 C479 1.349 . S
C464 C462 1.327 . S
C464 C483 1.429 . S
C464 H488 0.950 . S
C465 C482 1.574 . S
C465 C484 1.368 . S
C465 H489 0.949 . S
H466 C470 0.949 . S
C467 C468 1.349 . S
C467 C469 1.327 . S
C467 H490 0.950 . S
C468 C467 1.349 . S
C468 C480 1.349 . S
C469 C467 1.327 . S
C469 C485 1.429 . S
C469 H491 0.950 . S
C470 H466 0.949 . S
C470 C478 1.574 . S
C470 C486 1.368 . S
H471 C479 0.950 . S
H472 C477 0.950 . S
H473 C478 0.949 . S
H474 C480 0.950 1_545 S
H475 C481 0.950 . S
H476 C482 0.949 . S
C477 H472 0.950 . S
C477 C479 1.327 . S
C477 C483 1.429 . S
C478 C470 1.574 . S
C478 H473 0.949 . S
C478 C484 1.368 . S
C479 C463 1.349 . S
C479 H471 0.950 . S
C479 C477 1.327 . S
C480 C468 1.349 . S
C480 H474 0.950 1_565 S
C480 C481 1.327 . S
C481 H475 0.950 . S
C481 C480 1.327 . S
C481 C485 1.429 . S
C482 C465 1.574 . S
C482 H476 0.949 . S
C482 C486 1.368 . S
C483 C464 1.429 . S
C483 C477 1.429 . S
C483 C484 1.523 . S
C484 C465 1.368 . S
C484 C478 1.368 . S
C484 C483 1.523 . S
C485 C469 1.429 . S
C485 C481 1.429 . S
C485 C486 1.523 . S
C486 C470 1.368 . S
C486 C482 1.368 . S
C486 C485 1.523 . S
H487 C462 0.950 . S
H488 C464 0.950 . S
H489 C465 0.949 . S
H490 C467 0.950 . S
H491 C469 0.950 . S
C492 C493 1.349 . S
C492 C494 1.327 . S
C492 H517 0.950 . S
C493 C492 1.349 . S
C493 C509 1.349 . S
C494 C492 1.327 . S
C494 C513 1.429 . S
C494 H518 0.950 . S
C495 C512 1.574 . S
C495 C514 1.368 . S
C495 H519 0.949 . S
H496 C500 0.949 . S
C497 C498 1.349 . S
C497 C499 1.327 . S
C497 H520 0.950 . S
C498 C497 1.349 . S
C498 C510 1.349 . S
C499 C497 1.327 . S
C499 C515 1.429 . S
C499 H521 0.950 . S
C500 H496 0.949 . S
C500 C508 1.574 . S
C500 C516 1.368 . S
H501 C509 0.950 . S
H502 C507 0.950 . S
H503 C508 0.949 . S
H504 C510 0.950 . S
H505 C511 0.950 . S
H506 C512 0.949 . S
C507 H502 0.950 . S
C507 C509 1.327 . S
C507 C513 1.429 . S
C508 C500 1.574 . S
C508 H503 0.949 . S
C508 C514 1.368 . S
C509 C493 1.349 . S
C509 H501 0.950 . S
C509 C507 1.327 . S
C510 C498 1.349 . S
C510 H504 0.950 . S
C510 C511 1.327 . S
C511 H505 0.950 . S
C511 C510 1.327 . S
C511 C515 1.429 . S
C512 C495 1.574 . S
C512 H506 0.949 . S
C512 C516 1.368 . S
C513 C494 1.429 . S
C513 C507 1.429 . S
C513 C514 1.523 . S
C514 C495 1.368 . S
C514 C508 1.368 . S
C514 C513 1.523 . S
C515 C499 1.429 . S
C515 C511 1.429 . S
C515 C516 1.523 . S
C516 C500 1.368 . S
C516 C512 1.368 . S
C516 C515 1.523 . S
H517 C492 0.950 . S
H518 C494 0.950 . S
H519 C495 0.949 . S
H520 C497 0.950 . S
H521 C499 0.950 . S
C522 C523 1.349 . S
C522 C524 1.327 . S
C522 H547 0.950 . S
C523 C522 1.349 . S
C523 C539 1.349 . S
C524 C522 1.327 . S
C524 C543 1.429 . S
C524 H548 0.950 . S
C525 C542 1.574 . S
C525 C544 1.368 . S
C525 H549 0.949 . S
H526 C530 0.949 . S
C527 C528 1.349 . S
C527 C529 1.327 . S
C527 H550 0.950 . S
C528 C527 1.349 . S
C528 C540 1.349 . S
C529 C527 1.327 . S
C529 C545 1.429 . S
C529 H551 0.950 . S
C530 H526 0.949 . S
C530 C538 1.574 . S
C530 C546 1.368 . S
H531 C539 0.950 . S
H532 C537 0.950 . S
H533 C538 0.949 . S
H534 C540 0.950 . S
H535 C541 0.950 . S
H536 C542 0.949 . S
C537 H532 0.950 . S
C537 C539 1.327 . S
C537 C543 1.429 . S
C538 C530 1.574 . S
C538 H533 0.949 . S
C538 C544 1.368 . S
C539 C523 1.349 . S
C539 H531 0.950 . S
C539 C537 1.327 . S
C540 C528 1.349 . S
C540 H534 0.950 . S
C540 C541 1.327 . S
C541 H535 0.950 . S
C541 C540 1.327 . S
C541 C545 1.429 . S
C542 C525 1.574 . S
C542 H536 0.949 . S
C542 C546 1.368 . S
C543 C524 1.429 . S
C543 C537 1.429 . S
C543 C544 1.523 . S
C544 C525 1.368 . S
C544 C538 1.368 . S
C544 C543 1.523 . S
C545 C529 1.429 . S
C545 C541 1.429 . S
C545 C546 1.523 . S
C546 C530 1.368 . S
C546 C542 1.368 . S
C546 C545 1.523 . S
H547 C522 0.950 . S
H548 C524 0.950 . S
H549 C525 0.949 . S
H550 C527 0.950 . S
H551 C529 0.950 . S
C552 C553 1.349 . S
C552 C554 1.327 . S
C552 H577 0.950 . S
C553 C552 1.349 . S
C553 C569 1.349 . S
C554 C552 1.327 . S
C554 C573 1.429 . S
C554 H578 0.950 . S
C555 C572 1.574 . S
C555 C574 1.368 . S
C555 H579 0.949 . S
H556 C560 0.949 . S
C557 C558 1.349 . S
C557 C559 1.327 . S
C557 H580 0.950 . S
C558 C557 1.349 . S
C558 C570 1.349 . S
C559 C557 1.327 . S
C559 C575 1.429 . S
C559 H581 0.950 . S
C560 H556 0.949 . S
C560 C568 1.574 . S
C560 C576 1.368 . S
H561 C569 0.950 . S
H562 C567 0.950 . S
H563 C568 0.949 . S
H564 C570 0.950 . S
H565 C571 0.950 . S
H566 C572 0.949 . S
C567 H562 0.950 . S
C567 C569 1.327 . S
C567 C573 1.429 . S
C568 C560 1.574 . S
C568 H563 0.949 . S
C568 C574 1.368 . S
C569 C553 1.349 . S
C569 H561 0.950 . S
C569 C567 1.327 . S
C570 C558 1.349 . S
C570 H564 0.950 . S
C570 C571 1.327 . S
C571 H565 0.950 . S
C571 C570 1.327 . S
C571 C575 1.429 . S
C572 C555 1.574 . S
C572 H566 0.949 . S
C572 C576 1.368 . S
C573 C554 1.429 . S
C573 C567 1.429 . S
C573 C574 1.523 . S
C574 C555 1.368 . S
C574 C568 1.368 . S
C574 C573 1.523 . S
C575 C559 1.429 . S
C575 C571 1.429 . S
C575 C576 1.523 . S
C576 C560 1.368 . S
C576 C572 1.368 . S
C576 C575 1.523 . S
H577 C552 0.950 . S
H578 C554 0.950 . S
H579 C555 0.949 . S
H580 C557 0.950 . S
H581 C559 0.950 . S
C582 C583 1.349 . S
C582 C584 1.327 . S
C582 H607 0.950 . S
C583 C582 1.349 . S
C583 C599 1.349 . S
C584 C582 1.327 . S
C584 C603 1.429 . S
C584 H608 0.950 . S
C585 C602 1.574 . S
C585 C604 1.368 . S
C585 H609 0.949 . S
H586 C590 0.949 . S
C587 C588 1.311 1_556 S
C587 C589 1.361 . S
C587 H610 0.955 . S
C588 C587 1.311 1_554 S
C588 C600 1.349 . S
C589 C587 1.361 . S
C589 C605 1.429 . S
C589 H611 0.950 . S
C590 H586 0.949 . S
C590 C598 1.574 . S
C590 C606 1.368 . S
H591 C599 0.950 . S
H592 C597 0.950 . S
H593 C598 0.949 . S
H594 C600 0.950 . S
H595 C601 0.950 . S
H596 C602 0.949 . S
C597 H592 0.950 . S
C597 C599 1.327 . S
C597 C603 1.429 . S
C598 C590 1.574 . S
C598 H593 0.949 . S
C598 C604 1.368 . S
C599 C583 1.349 . S
C599 H591 0.950 . S
C599 C597 1.327 . S
C600 C588 1.349 . S
C600 H594 0.950 . S
C600 C601 1.327 . S
C601 H595 0.950 . S
C601 C600 1.327 . S
C601 C605 1.429 1_554 S
C602 C585 1.574 . S
C602 H596 0.949 . S
C602 C606 1.368 . S
C603 C584 1.429 . S
C603 C597 1.429 . S
C603 C604 1.523 . S
C604 C585 1.368 . S
C604 C598 1.368 . S
C604 C603 1.523 . S
C605 C589 1.429 . S
C605 C601 1.429 1_556 S
C605 C606 1.523 . S
C606 C590 1.368 . S
C606 C602 1.368 . S
C606 C605 1.523 . S
H607 C582 0.950 . S
H608 C584 0.950 . S
H609 C585 0.949 . S
H610 C587 0.955 . S
H611 C589 0.950 . S
C612 C613 1.349 . S
C612 C614 1.327 . S
C612 H637 0.950 . S
C613 C612 1.349 . S
C613 C629 1.349 . S
C614 C612 1.327 . S
C614 C633 1.429 . S
C614 H638 0.950 . S
C615 C632 1.574 . S
C615 C634 1.368 . S
C615 H639 0.949 . S
H616 C620 0.949 . S
C617 C618 1.349 . S
C617 C619 1.327 . S
C617 H640 0.950 . S
C618 C617 1.349 . S
C618 C630 1.349 . S
C619 C617 1.327 . S
C619 C635 1.429 . S
C619 H641 0.950 . S
C620 H616 0.949 . S
C620 C628 1.574 . S
C620 C636 1.368 . S
H621 C629 0.950 . S
H622 C627 0.950 . S
H623 C628 0.949 . S
H624 C630 0.950 . S
H625 C631 0.950 . S
H626 C632 0.949 . S
C627 H622 0.950 . S
C627 C629 1.327 . S
C627 C633 1.429 . S
C628 C620 1.574 . S
C628 H623 0.949 . S
C628 C634 1.368 . S
C629 C613 1.349 . S
C629 H621 0.950 . S
C629 C627 1.327 . S
C630 C618 1.349 . S
C630 H624 0.950 . S
C630 C631 1.327 . S
C631 H625 0.950 . S
C631 C630 1.327 . S
C631 C635 1.429 . S
C632 C615 1.574 . S
C632 H626 0.949 . S
C632 C636 1.368 . S
C633 C614 1.429 . S
C633 C627 1.429 . S
C633 C634 1.523 . S
C634 C615 1.368 . S
C634 C628 1.368 . S
C634 C633 1.523 . S
C635 C619 1.429 . S
C635 C631 1.429 . S
C635 C636 1.523 . S
C636 C620 1.368 . S
C636 C632 1.368 . S
C636 C635 1.523 . S
H637 C612 0.950 . S
H638 C614 0.950 . S
H639 C615 0.949 . S
H640 C617 0.950 . S
H641 C619 0.950 . S
C642 C643 1.349 . S
C642 C644 1.327 . S
C642 H667 0.950 . S
C643 C642 1.349 . S
C643 C659 1.349 . S
C644 C642 1.327 . S
C644 C663 1.429 . S
C644 H668 0.950 . S
C645 C662 1.574 . S
C645 C664 1.368 . S
C645 H669 0.949 . S
H646 C650 0.949 . S
C647 C648 1.349 . S
C647 C649 1.327 . S
C647 H670 0.950 . S
C648 C647 1.349 . S
C648 C660 1.349 . S
C649 C647 1.327 . S
C649 C665 1.429 . S
C649 H671 0.950 . S
C650 H646 0.949 . S
C650 C658 1.574 . S
C650 C666 1.368 . S
H651 C659 0.950 . S
H652 C657 0.950 . S
H653 C658 0.949 . S
H654 C660 0.950 . S
H655 C661 0.950 . S
H656 C662 0.949 . S
C657 H652 0.950 . S
C657 C659 1.327 . S
C657 C663 1.429 . S
C658 C650 1.574 . S
C658 H653 0.949 . S
C658 C664 1.368 . S
C659 C643 1.349 . S
C659 H651 0.950 . S
C659 C657 1.327 . S
C660 C648 1.349 . S
C660 H654 0.950 . S
C660 C661 1.327 . S
C661 H655 0.950 . S
C661 C660 1.327 . S
C661 C665 1.429 . S
C662 C645 1.574 . S
C662 H656 0.949 . S
C662 C666 1.368 . S
C663 C644 1.429 . S
C663 C657 1.429 . S
C663 C664 1.523 . S
C664 C645 1.368 . S
C664 C658 1.368 . S
C664 C663 1.523 . S
C665 C649 1.429 . S
C665 C661 1.429 . S
C665 C666 1.523 . S
C666 C650 1.368 . S
C666 C662 1.368 . S
C666 C665 1.523 . S
H667 C642 0.950 . S
H668 C644 0.950 . S
H669 C645 0.949 . S
H670 C647 0.950 . S
H671 C649 0.950 . S
C672 C673 1.349 . S
C672 C674 1.327 . S
C672 H697 0.950 . S
C673 C672 1.349 . S
C673 C689 1.349 . S
C674 C672 1.327 . S
C674 C693 1.429 . S
C674 H698 0.950 . S
C675 C692 1.574 . S
C675 C694 1.368 . S
C675 H699 0.949 . S
H676 C680 0.949 . S
C677 C678 1.349 . S
C677 C679 1.327 . S
C677 H700 0.950 . S
C678 C677 1.349 . S
C678 C690 1.349 . S
C679 C677 1.327 . S
C679 C695 1.429 . S
C679 H701 0.950 . S
C680 H676 0.949 . S
C680 C688 1.574 . S
C680 C696 1.368 . S
H681 C689 0.950 . S
H682 C687 0.950 . S
H683 C688 0.949 . S
H684 C690 0.950 . S
H685 C691 0.950 . S
H686 C692 0.949 . S
C687 H682 0.950 . S
C687 C689 1.327 . S
C687 C693 1.429 . S
C688 C680 1.574 . S
C688 H683 0.949 . S
C688 C694 1.368 . S
C689 C673 1.349 . S
C689 H681 0.950 . S
C689 C687 1.327 . S
C690 C678 1.349 . S
C690 H684 0.950 . S
C690 C691 1.327 . S
C691 H685 0.950 . S
C691 C690 1.327 . S
C691 C695 1.429 . S
C692 C675 1.574 . S
C692 H686 0.949 . S
C692 C696 1.368 . S
C693 C674 1.429 . S
C693 C687 1.429 . S
C693 C694 1.523 . S
C694 C675 1.368 . S
C694 C688 1.368 . S
C694 C693 1.523 . S
C695 C679 1.429 . S
C695 C691 1.429 . S
C695 C696 1.523 . S
C696 C680 1.368 . S
C696 C692 1.368 . S
C696 C695 1.523 . S
H697 C672 0.950 . S
H698 C674 0.950 . S
H699 C675 0.949 . S
H700 C677 0.950 . S
H701 C679 0.950 . S
C702 C703 1.349 . S
C702 C704 1.327 . S
C702 H727 0.950 . S
C703 C702 1.349 . S
C703 C719 1.349 . S
C704 C702 1.327 . S
C704 C723 1.429 . S
C704 H728 0.950 . S
C705 C722 1.574 . S
C705 C724 1.368 . S
C705 H729 0.949 . S
H706 C710 0.949 . S
C707 C708 1.349 . S
C707 C709 1.327 . S
C707 H730 0.950 . S
C708 C707 1.349 . S
C708 C720 1.349 . S
C709 C707 1.327 . S
C709 C725 1.429 . S
C709 H731 0.950 . S
C710 H706 0.949 . S
C710 C718 1.574 . S
C710 C726 1.368 . S
H711 C719 0.950 . S
H712 C717 0.950 . S
H713 C718 0.949 . S
H714 C720 0.950 . S
H715 C721 0.950 . S
H716 C722 0.949 . S
C717 H712 0.950 . S
C717 C719 1.327 . S
C717 C723 1.429 . S
C718 C710 1.574 . S
C718 H713 0.949 . S
C718 C724 1.368 . S
C719 C703 1.349 . S
C719 H711 0.950 . S
C719 C717 1.327 . S
C720 C708 1.349 . S
C720 H714 0.950 . S
C720 C721 1.327 . S
C721 H715 0.950 . S
C721 C720 1.327 . S
C721 C725 1.429 . S
C722 C705 1.574 . S
C722 H716 0.949 . S
C722 C726 1.368 . S
C723 C704 1.429 . S
C723 C717 1.429 . S
C723 C724 1.523 . S
C724 C705 1.368 . S
C724 C718 1.368 . S
C724 C723 1.523 . S
C725 C709 1.429 . S
C725 C721 1.429 . S
C725 C726 1.523 . S
C726 C710 1.368 . S
C726 C722 1.368 . S
C726 C725 1.523 . S
H727 C702 0.950 . S
H728 C704 0.950 . S
H729 C705 0.949 . S
H730 C707 0.950 . S
H731 C709 0.950 . S
C732 C733 1.349 . S
C732 C734 1.327 . S
C732 H757 0.950 . S
C733 C732 1.349 . S
C733 C749 1.349 . S
C734 C732 1.327 . S
C734 C753 1.429 . S
C734 H758 0.950 . S
C735 C752 1.574 . S
C735 C754 1.368 . S
C735 H759 0.949 . S
H736 C740 0.949 . S
C737 C738 1.349 . S
C737 C739 1.327 . S
C737 H760 0.950 . S
C738 C737 1.349 . S
C738 C750 1.349 . S
C739 C737 1.327 . S
C739 C755 1.429 . S
C739 H761 0.950 . S
C740 H736 0.949 . S
C740 C748 1.574 . S
C740 C756 1.368 . S
H741 C749 0.950 . S
H742 C747 0.950 . S
H743 C748 0.949 . S
H744 C750 0.950 . S
H745 C751 0.950 . S
H746 C752 0.949 . S
C747 H742 0.950 . S
C747 C749 1.327 . S
C747 C753 1.429 . S
C748 C740 1.574 . S
C748 H743 0.949 . S
C748 C754 1.368 . S
C749 C733 1.349 . S
C749 H741 0.950 . S
C749 C747 1.327 . S
C750 C738 1.349 . S
C750 H744 0.950 . S
C750 C751 1.327 . S
C751 H745 0.950 . S
C751 C750 1.327 . S
C751 C755 1.429 . S
C752 C735 1.574 . S
C752 H746 0.949 . S
C752 C756 1.368 . S
C753 C734 1.429 . S
C753 C747 1.429 . S
C753 C754 1.523 . S
C754 C735 1.368 . S
C754 C748 1.368 . S
C754 C753 1.523 . S
C755 C739 1.429 . S
C755 C751 1.429 . S
C755 C756 1.523 . S
C756 C740 1.368 . S
C756 C752 1.368 . S
C756 C755 1.523 . S
H757 C732 0.950 . S
H758 C734 0.950 . S
H759 C735 0.949 . S
H760 C737 0.950 . S
H761 C739 0.950 . S
C762 C763 1.349 . S
C762 C764 1.327 . S
C762 H787 0.950 . S
C763 C762 1.349 . S
C763 C779 1.349 . S
C764 C762 1.327 . S
C764 C783 1.429 . S
C764 H788 0.950 . S
C765 C782 1.574 . S
C765 C784 1.368 . S
C765 H789 0.949 . S
H766 C770 0.949 . S
C767 C768 1.349 . S
C767 C769 1.327 . S
C767 H790 0.950 . S
C768 C767 1.349 . S
C768 C780 1.349 . S
C769 C767 1.327 . S
C769 C785 1.429 . S
C769 H791 0.950 . S
C770 H766 0.949 . S
C770 C778 1.574 . S
C770 C786 1.368 . S
H771 C779 0.950 . S
H772 C777 0.950 . S
H773 C778 0.949 . S
H774 C780 0.950 . S
H775 C781 0.950 . S
H776 C782 0.949 . S
C777 H772 0.950 . S
C777 C779 1.327 . S
C777 C783 1.429 . S
C778 C770 1.574 . S
C778 H773 0.949 . S
C778 C784 1.368 . S
C779 C763 1.349 . S
C779 H771 0.950 . S
C779 C777 1.327 . S
C780 C768 1.349 . S
C780 H774 0.950 . S
C780 C781 1.327 . S
C781 H775 0.950 . S
C781 C780 1.327 . S
C781 C785 1.429 . S
C782 C765 1.574 . S
C782 H776 0.949 . S
C782 C786 1.368 . S
C783 C764 1.429 . S
C783 C777 1.429 . S
C783 C784 1.523 . S
C784 C765 1.368 . S
C784 C778 1.368 . S
C784 C783 1.523 . S
C785 C769 1.429 . S
C785 C781 1.429 . S
C785 C786 1.523 . S
C786 C770 1.368 . S
C786 C782 1.368 . S
C786 C785 1.523 . S
H787 C762 0.950 . S
H788 C764 0.950 . S
H789 C765 0.949 . S
H790 C767 0.950 . S
H791 C769 0.950 . S
C792 C793 1.349 . S
C792 C794 1.327 . S
C792 H817 0.950 . S
C793 C792 1.349 . S
C793 C809 1.349 . S
C794 C792 1.327 . S
C794 C813 1.429 . S
C794 H818 0.950 . S
C795 C812 1.574 . S
C795 C814 1.368 . S
C795 H819 0.949 . S
H796 C800 0.949 . S
C797 C798 1.362 . S
C797 C799 1.346 . S
C797 H820 0.918 1_556 S
C798 C797 1.362 . S
C798 C810 1.349 . S
C799 C797 1.346 . S
C799 C815 1.429 . S
C799 H821 0.950 . S
C800 H796 0.949 . S
C800 C808 1.574 . S
C800 C816 1.368 . S
H801 C809 0.950 . S
H802 C807 0.950 . S
H803 C808 0.949 . S
H804 C810 0.950 . S
H805 C811 0.950 . S
H806 C812 0.949 . S
C807 H802 0.950 . S
C807 C809 1.327 . S
C807 C813 1.429 . S
C808 C800 1.574 . S
C808 H803 0.949 . S
C808 C814 1.368 . S
C809 C793 1.349 . S
C809 H801 0.950 . S
C809 C807 1.327 . S
C810 C798 1.349 . S
C810 H804 0.950 . S
C810 C811 1.327 . S
C811 H805 0.950 . S
C811 C810 1.327 . S
C811 C815 1.429 . S
C812 C795 1.574 . S
C812 H806 0.949 . S
C812 C816 1.368 . S
C813 C794 1.429 . S
C813 C807 1.429 . S
C813 C814 1.523 . S
C814 C795 1.368 . S
C814 C808 1.368 . S
C814 C813 1.523 . S
C815 C799 1.429 . S
C815 C811 1.429 . S
C815 C816 1.523 . S
C816 C800 1.368 . S
C816 C812 1.368 . S
C816 C815 1.523 . S
H817 C792 0.950 . S
H818 C794 0.950 . S
H819 C795 0.949 . S
H820 C797 0.918 1_554 S
H821 C799 0.950 . S
C822 C823 1.349 . S
C822 C824 1.327 . S
C822 H847 0.950 . S
C823 C822 1.349 . S
C823 C839 1.349 . S
C824 C822 1.327 . S
C824 C843 1.429 . S
C824 H848 0.950 . S
C825 C842 1.574 . S
C825 C844 1.368 . S
C825 H849 0.949 . S
H826 C830 0.949 . S
C827 C828 1.349 . S
C827 C829 1.327 . S
C827 H850 0.950 . S
C828 C827 1.349 . S
C828 C840 1.349 . S
C829 C827 1.327 . S
C829 C845 1.429 . S
C829 H851 0.950 . S
C830 H826 0.949 . S
C830 C838 1.574 . S
C830 C846 1.368 . S
H831 C839 0.950 . S
H832 C837 0.950 . S
H833 C838 0.949 . S
H834 C840 0.950 . S
H835 C841 0.950 . S
H836 C842 0.949 . S
C837 H832 0.950 . S
C837 C839 1.327 . S
C837 C843 1.429 . S
C838 C830 1.574 . S
C838 H833 0.949 . S
C838 C844 1.368 . S
C839 C823 1.349 . S
C839 H831 0.950 . S
C839 C837 1.327 . S
C840 C828 1.349 . S
C840 H834 0.950 . S
C840 C841 1.327 . S
C841 H835 0.950 . S
C841 C840 1.327 . S
C841 C845 1.429 . S
C842 C825 1.574 . S
C842 H836 0.949 . S
C842 C846 1.368 . S
C843 C824 1.429 . S
C843 C837 1.429 . S
C843 C844 1.523 . S
C844 C825 1.368 . S
C844 C838 1.368 . S
C844 C843 1.523 . S
C845 C829 1.429 . S
C845 C841 1.429 . S
C845 C846 1.523 . S
C846 C830 1.368 . S
C846 C842 1.368 . S
C846 C845 1.523 . S
H847 C822 0.950 . S
H848 C824 0.950 . S
H849 C825 0.949 . S
H850 C827 0.950 . S
H851 C829 0.950 . S
C852 C853 1.349 . S
C852 C854 1.327 . S
C852 H877 0.950 . S
C853 C852 1.349 . S
C853 C869 1.349 . S
C854 C852 1.327 . S
C854 C873 1.429 . S
C854 H878 0.950 . S
C855 C872 1.574 . S
C855 C874 1.368 . S
C855 H879 0.949 . S
H856 C860 0.949 . S
C857 C858 1.349 . S
C857 C859 1.327 . S
C857 H880 0.950 . S
C858 C857 1.349 . S
C858 C870 1.349 . S
C859 C857 1.327 . S
C859 C875 1.429 . S
C859 H881 0.950 . S
C860 H856 0.949 . S
C860 C868 1.574 . S
C860 C876 1.368 . S
H861 C869 0.950 . S
H862 C867 0.950 . S
H863 C868 0.949 . S
H864 C870 0.950 . S
H865 C871 0.950 . S
H866 C872 0.949 . S
C867 H862 0.950 . S
C867 C869 1.327 . S
C867 C873 1.429 . S
C868 C860 1.574 . S
C868 H863 0.949 . S
C868 C874 1.368 . S
C869 C853 1.349 . S
C869 H861 0.950 . S
C869 C867 1.327 . S
C870 C858 1.349 . S
C870 H864 0.950 . S
C870 C871 1.327 . S
C871 H865 0.950 . S
C871 C870 1.327 . S
C871 C875 1.429 . S
C872 C855 1.574 . S
C872 H866 0.949 . S
C872 C876 1.368 . S
C873 C854 1.429 . S
C873 C867 1.429 . S
C873 C874 1.523 . S
C874 C855 1.368 . S
C874 C868 1.368 . S
C874 C873 1.523 . S
C875 C859 1.429 . S
C875 C871 1.429 . S
C875 C876 1.523 . S
C876 C860 1.368 . S
C876 C872 1.368 . S
C876 C875 1.523 . S
H877 C852 0.950 . S
H878 C854 0.950 . S
H879 C855 0.949 . S
H880 C857 0.950 . S
H881 C859 0.950 . S
C882 C883 1.349 . S
C882 C884 1.327 . S
C882 H907 0.950 . S
C883 C882 1.349 . S
C883 C899 1.349 . S
C884 C882 1.327 . S
C884 C903 1.429 . S
C884 H908 0.950 . S
C885 C902 1.574 . S
C885 C904 1.368 . S
C885 H909 0.949 . S
H886 C890 0.949 . S
C887 C888 1.349 . S
C887 C889 1.327 . S
C887 H910 0.950 . S
C888 C887 1.349 . S
C888 C900 1.349 . S
C889 C887 1.327 . S
C889 C905 1.429 . S
C889 H911 0.950 . S
C890 H886 0.949 . S
C890 C898 1.574 . S
C890 C906 1.368 . S
H891 C899 0.950 . S
H892 C897 0.950 . S
H893 C898 0.949 . S
H894 C900 0.950 . S
H895 C901 0.950 . S
H896 C902 0.949 . S
C897 H892 0.950 . S
C897 C899 1.327 . S
C897 C903 1.429 . S
C898 C890 1.574 . S
C898 H893 0.949 . S
C898 C904 1.368 . S
C899 C883 1.349 . S
C899 H891 0.950 . S
C899 C897 1.327 . S
C900 C888 1.349 . S
C900 H894 0.950 . S
C900 C901 1.327 . S
C901 H895 0.950 . S
C901 C900 1.327 . S
C901 C905 1.429 . S
C902 C885 1.574 . S
C902 H896 0.949 . S
C902 C906 1.368 . S
C903 C884 1.429 . S
C903 C897 1.429 . S
C903 C904 1.523 . S
C904 C885 1.368 . S
C904 C898 1.368 . S
C904 C903 1.523 . S
C905 C889 1.429 . S
C905 C901 1.429 . S
C905 C906 1.523 . S
C906 C890 1.368 . S
C906 C902 1.368 . S
C906 C905 1.523 . S
H907 C882 0.950 . S
H908 C884 0.950 . S
H909 C885 0.949 . S
H910 C887 0.950 . S
H911 C889 0.950 . S
C912 C913 1.349 . S
C912 C914 1.327 . S
C912 H937 0.950 . S
C913 C912 1.349 . S
C913 C929 1.349 . S
C914 C912 1.327 . S
C914 C933 1.429 . S
C914 H938 0.950 . S
C915 C932 1.574 . S
C915 C934 1.368 . S
C915 H939 0.949 . S
H916 C920 0.949 . S
C917 C918 1.349 . S
C917 C919 1.327 . S
C917 H940 0.950 . S
C918 C917 1.349 . S
C918 C930 1.349 . S
C919 C917 1.327 . S
C919 C935 1.429 . S
C919 H941 0.950 . S
C920 H916 0.949 . S
C920 C928 1.574 . S
C920 C936 1.368 . S
H921 C929 0.950 . S
H922 C927 0.950 . S
H923 C928 0.949 . S
H924 C930 0.950 . S
H925 C931 0.950 . S
H926 C932 0.949 . S
C927 H922 0.950 . S
C927 C929 1.327 . S
C927 C933 1.429 . S
C928 C920 1.574 . S
C928 H923 0.949 . S
C928 C934 1.368 . S
C929 C913 1.349 . S
C929 H921 0.950 . S
C929 C927 1.327 . S
C930 C918 1.349 . S
C930 H924 0.950 . S
C930 C931 1.327 . S
C931 H925 0.950 . S
C931 C930 1.327 . S
C931 C935 1.429 . S
C932 C915 1.574 . S
C932 H926 0.949 . S
C932 C936 1.368 . S
C933 C914 1.429 . S
C933 C927 1.429 . S
C933 C934 1.523 . S
C934 C915 1.368 . S
C934 C928 1.368 . S
C934 C933 1.523 . S
C935 C919 1.429 . S
C935 C931 1.429 . S
C935 C936 1.523 . S
C936 C920 1.368 . S
C936 C932 1.368 . S
C936 C935 1.523 . S
H937 C912 0.950 . S
H938 C914 0.950 . S
H939 C915 0.949 . S
H940 C917 0.950 . S
H941 C919 0.950 . S
C942 C943 1.349 . S
C942 C944 1.327 . S
C942 H967 0.950 . S
C943 C942 1.349 . S
C943 C959 1.349 . S
C944 C942 1.327 . S
C944 C963 1.429 . S
C944 H968 0.950 . S
C945 C962 1.574 . S
C945 C964 1.368 . S
C945 H969 0.949 . S
H946 C950 0.949 . S
C947 C948 1.349 . S
C947 C949 1.327 . S
C947 H970 0.950 . S
C948 C947 1.349 . S
C948 C960 1.349 . S
C949 C947 1.327 . S
C949 C965 1.429 . S
C949 H971 0.950 . S
C950 H946 0.949 . S
C950 C958 1.574 . S
C950 C966 1.368 . S
H951 C959 0.950 . S
H952 C957 0.950 . S
H953 C958 0.949 . S
H954 C960 0.950 . S
H955 C961 0.950 . S
H956 C962 0.949 . S
C957 H952 0.950 . S
C957 C959 1.327 . S
C957 C963 1.429 . S
C958 C950 1.574 . S
C958 H953 0.949 . S
C958 C964 1.368 . S
C959 C943 1.349 . S
C959 H951 0.950 . S
C959 C957 1.327 . S
C960 C948 1.349 . S
C960 H954 0.950 . S
C960 C961 1.327 . S
C961 H955 0.950 . S
C961 C960 1.327 . S
C961 C965 1.429 . S
C962 C945 1.574 . S
C962 H956 0.949 . S
C962 C966 1.368 . S
C963 C944 1.429 . S
C963 C957 1.429 . S
C963 C964 1.523 . S
C964 C945 1.368 . S
C964 C958 1.368 . S
C964 C963 1.523 . S
C965 C949 1.429 . S
C965 C961 1.429 . S
C965 C966 1.523 . S
C966 C950 1.368 . S
C966 C962 1.368 . S
C966 C965 1.523 . S
H967 C942 0.950 . S
H968 C944 0.950 . S
H969 C945 0.949 . S
H970 C947 0.950 . S
H971 C949 0.950 . S
C972 C973 1.349 . S
C972 C974 1.327 . S
C972 H997 0.950 . S
C973 C972 1.349 . S
C973 C989 1.349 . S
C974 C972 1.327 . S
C974 C993 1.429 . S
C974 H998 0.950 . S
C975 C992 1.574 . S
C975 C994 1.368 . S
C975 H999 0.949 . S
H976 C980 0.949 . S
C977 C978 1.349 . S
C977 C979 1.327 . S
C977 H1000 0.950 . S
C978 C977 1.349 . S
C978 C990 1.349 . S
C979 C977 1.327 . S
C979 C995 1.429 . S
C979 H1001 0.950 . S
C980 H976 0.949 . S
C980 C988 1.574 . S
C980 C996 1.368 . S
H981 C989 0.950 . S
H982 C987 0.950 . S
H983 C988 0.949 . S
H984 C990 0.950 . S
H985 C991 0.950 . S
H986 C992 0.949 . S
C987 H982 0.950 . S
C987 C989 1.327 . S
C987 C993 1.429 . S
C988 C980 1.574 . S
C988 H983 0.949 . S
C988 C994 1.368 . S
C989 C973 1.349 . S
C989 H981 0.950 . S
C989 C987 1.327 . S
C990 C978 1.349 . S
C990 H984 0.950 . S
C990 C991 1.327 . S
C991 H985 0.950 . S
C991 C990 1.327 . S
C991 C995 1.429 . S
C992 C975 1.574 . S
C992 H986 0.949 . S
C992 C996 1.368 . S
C993 C974 1.429 . S
C993 C987 1.429 . S
C993 C994 1.523 . S
C994 C975 1.368 . S
C994 C988 1.368 . S
C994 C993 1.523 . S
C995 C979 1.429 . S
C995 C991 1.429 . S
C995 C996 1.523 . S
C996 C980 1.368 . S
C996 C992 1.368 . S
C996 C995 1.523 . S
H997 C972 0.950 . S
H998 C974 0.950 . S
H999 C975 0.949 . S
H1000 C977 0.950 . S
H1001 C979 0.950 . S
C1002 C1003 1.349 . S
C1002 C1004 1.327 . S
C1002 H1027 0.950 . S
C1003 C1002 1.349 . S
C1003 C1019 1.349 . S
C1004 C1002 1.327 . S
C1004 C1023 1.429 . S
C1004 H1028 0.950 . S
C1005 C1022 1.574 . S
C1005 C1024 1.368 . S
C1005 H1029 0.949 . S
H1006 C1010 0.949 . S
C1007 C1008 1.349 . S
C1007 C1009 1.327 . S
C1007 H1030 0.950 . S
C1008 C1007 1.349 . S
C1008 C1020 1.349 . S
C1009 C1007 1.327 . S
C1009 C1025 1.429 . S
C1009 H1031 0.950 . S
C1010 H1006 0.949 . S
C1010 C1018 1.574 . S
C1010 C1026 1.368 . S
H1011 C1019 0.950 . S
H1012 C1017 0.950 . S
H1013 C1018 0.949 . S
H1014 C1020 0.950 . S
H1015 C1021 0.950 . S
H1016 C1022 0.949 . S
C1017 H1012 0.950 . S
C1017 C1019 1.327 . S
C1017 C1023 1.429 . S
C1018 C1010 1.574 . S
C1018 H1013 0.949 . S
C1018 C1024 1.368 . S
C1019 C1003 1.349 . S
C1019 H1011 0.950 . S
C1019 C1017 1.327 . S
C1020 C1008 1.349 . S
C1020 H1014 0.950 . S
C1020 C1021 1.327 . S
C1021 H1015 0.950 . S
C1021 C1020 1.327 . S
C1021 C1025 1.429 . S
C1022 C1005 1.574 . S
C1022 H1016 0.949 . S
C1022 C1026 1.368 . S
C1023 C1004 1.429 . S
C1023 C1017 1.429 . S
C1023 C1024 1.523 . S
C1024 C1005 1.368 . S
C1024 C1018 1.368 . S
C1024 C1023 1.523 . S
C1025 C1009 1.429 . S
C1025 C1021 1.429 . S
C1025 C1026 1.523 . S
C1026 C1010 1.368 . S
C1026 C1022 1.368 . S
C1026 C1025 1.523 . S
H1027 C1002 0.950 . S
H1028 C1004 0.950 . S
H1029 C1005 0.949 . S
H1030 C1007 0.950 . S
H1031 C1009 0.950 . S
C313 C6 1.162 . S
C318 C167 1.170 . S
C343 C21 2.033 . S
C348 C211 2.063 . S
C378 C241 1.512 . S
C373 C49 1.412 . S
C403 C68 2.528 . S
C408 C282 2.560 . S
C438 C198 1.633 . S
C433 C2 1.595 . S
C468 C162 2.161 1_565 S
C463 C30 2.103 . S
C498 C290 1.017 . S
C493 C40 1.046 . S
C528 C251 2.056 . S
C523 C63 2.127 . S
C553 C11 0.791 . S
C558 C287 0.798 . S
C588 C201 2.272 . S
C583 C44 2.329 . S
C613 C59 1.645 . S
C618 C170 1.637 . S
C643 C25 2.533 . S
C648 C238 2.497 . S
C678 C158 1.516 . S
C673 C82 1.518 . S
C703 C101 1.477 . S
C708 C202 1.480 . S
C733 C125 1.526 . S
C738 C250 1.708 . S
C763 C144 2.081 . S
C768 C291 2.116 . S
C793 C87 0.626 . S
C798 C207 0.574 . S
C828 C171 3.399 . S
C823 C97 3.358 . S
C858 C281 0.925 . S
C853 C120 0.912 . S
C888 C242 1.659 . S
C883 C135 1.666 . S
C913 C78 1.397 . S
C918 C278 1.424 . S
C948 C210 1.214 . S
C943 C116 1.208 . S
C978 C161 2.286 . S
C973 C139 2.359 . S
C1003 C106 1.634 . S
C1008 C247 1.924 . S
