# Generated by pormake.
# Topology ptr, (4,4)-cn, num edge types: 1
# Building blocks:
#     Node 0, Type 0, BuildingBlock: QUQFOY_clean_sbu_3, # of connection points: 4
#     Node 1, Type 0, BuildingBlock: QUQFOY_clean_sbu_3, # of connection points: 4
#     Node 2, Type 0, BuildingBlock: QUQFOY_clean_sbu_3, # of connection points: 4
#     Node 3, Type 0, BuildingBlock: QUQFOY_clean_sbu_3, # of connection points: 4
#     Node 4, Type 0, BuildingBlock: QUQFOY_clean_sbu_3, # of connection points: 4
#     Node 5, Type 0, BuildingBlock: QUQFOY_clean_sbu_3, # of connection points: 4
#     Node 6, Type 0, BuildingBlock: QUQFOY_clean_sbu_3, # of connection points: 4
#     Node 7, Type 0, BuildingBlock: QUQFOY_clean_sbu_3, # of connection points: 4
#     Node 8, Type 0, BuildingBlock: QUQFOY_clean_sbu_3, # of connection points: 4
#     Node 9, Type 0, BuildingBlock: QUQFOY_clean_sbu_3, # of connection points: 4
#     Node 10, Type 0, BuildingBlock: QUQFOY_clean_sbu_3, # of connection points: 4
#     Node 11, Type 0, BuildingBlock: QUQFOY_clean_sbu_3, # of connection points: 4
#     Node 12, Type 0, BuildingBlock: QUQFOY_clean_sbu_3, # of connection points: 4
#     Node 13, Type 0, BuildingBlock: QUQFOY_clean_sbu_3, # of connection points: 4
#     Node 14, Type 0, BuildingBlock: QUQFOY_clean_sbu_3, # of connection points: 4
#     Node 15, Type 0, BuildingBlock: QUQFOY_clean_sbu_3, # of connection points: 4
#     Node 16, Type 0, BuildingBlock: QUQFOY_clean_sbu_3, # of connection points: 4
#     Node 17, Type 0, BuildingBlock: QUQFOY_clean_sbu_3, # of connection points: 4
#     Node 18, Type 1, BuildingBlock: KUFVIS_clean_linker_0, # of connection points: 4
#     Node 19, Type 1, BuildingBlock: KUFVIS_clean_linker_0, # of connection points: 4
#     Node 20, Type 1, BuildingBlock: KUFVIS_clean_linker_0, # of connection points: 4
#     Node 21, Type 1, BuildingBlock: KUFVIS_clean_linker_0, # of connection points: 4
#     Node 22, Type 1, BuildingBlock: KUFVIS_clean_linker_0, # of connection points: 4
#     Node 23, Type 1, BuildingBlock: KUFVIS_clean_linker_0, # of connection points: 4
#     Node 24, Type 1, BuildingBlock: KUFVIS_clean_linker_0, # of connection points: 4
#     Node 25, Type 1, BuildingBlock: KUFVIS_clean_linker_0, # of connection points: 4
#     Node 26, Type 1, BuildingBlock: KUFVIS_clean_linker_0, # of connection points: 4
#     Node 27, Type 1, BuildingBlock: KUFVIS_clean_linker_0, # of connection points: 4
#     Node 28, Type 1, BuildingBlock: KUFVIS_clean_linker_0, # of connection points: 4
#     Node 29, Type 1, BuildingBlock: KUFVIS_clean_linker_0, # of connection points: 4
#     Node 30, Type 1, BuildingBlock: KUFVIS_clean_linker_0, # of connection points: 4
#     Node 31, Type 1, BuildingBlock: KUFVIS_clean_linker_0, # of connection points: 4
#     Node 32, Type 1, BuildingBlock: KUFVIS_clean_linker_0, # of connection points: 4
#     Node 33, Type 1, BuildingBlock: KUFVIS_clean_linker_0, # of connection points: 4
#     Node 34, Type 1, BuildingBlock: KUFVIS_clean_linker_0, # of connection points: 4
#     Node 35, Type 1, BuildingBlock: KUFVIS_clean_linker_0, # of connection points: 4
#     Edge 36, Type (0, 1), None
#     Edge 37, Type (0, 1), None
#     Edge 38, Type (0, 1), None
#     Edge 39, Type (0, 1), None
#     Edge 40, Type (0, 1), None
#     Edge 41, Type (0, 1), None
#     Edge 42, Type (0, 1), None
#     Edge 43, Type (0, 1), None
#     Edge 44, Type (0, 1), None
#     Edge 45, Type (0, 1), None
#     Edge 46, Type (0, 1), None
#     Edge 47, Type (0, 1), None
#     Edge 48, Type (0, 1), None
#     Edge 49, Type (0, 1), None
#     Edge 50, Type (0, 1), None
#     Edge 51, Type (0, 1), None
#     Edge 52, Type (0, 1), None
#     Edge 53, Type (0, 1), None
#     Edge 54, Type (0, 1), None
#     Edge 55, Type (0, 1), None
#     Edge 56, Type (0, 1), None
#     Edge 57, Type (0, 1), None
#     Edge 58, Type (0, 1), None
#     Edge 59, Type (0, 1), None
#     Edge 60, Type (0, 1), None
#     Edge 61, Type (0, 1), None
#     Edge 62, Type (0, 1), None
#     Edge 63, Type (0, 1), None
#     Edge 64, Type (0, 1), None
#     Edge 65, Type (0, 1), None
#     Edge 66, Type (0, 1), None
#     Edge 67, Type (0, 1), None
#     Edge 68, Type (0, 1), None
#     Edge 69, Type (0, 1), None
#     Edge 70, Type (0, 1), None
#     Edge 71, Type (0, 1), None
#     Edge 72, Type (0, 1), None
#     Edge 73, Type (0, 1), None
#     Edge 74, Type (0, 1), None
#     Edge 75, Type (0, 1), None
#     Edge 76, Type (0, 1), None
#     Edge 77, Type (0, 1), None
#     Edge 78, Type (0, 1), None
#     Edge 79, Type (0, 1), None
#     Edge 80, Type (0, 1), None
#     Edge 81, Type (0, 1), None
#     Edge 82, Type (0, 1), None
#     Edge 83, Type (0, 1), None
#     Edge 84, Type (0, 1), None
#     Edge 85, Type (0, 1), None
#     Edge 86, Type (0, 1), None
#     Edge 87, Type (0, 1), None
#     Edge 88, Type (0, 1), None
#     Edge 89, Type (0, 1), None
#     Edge 90, Type (0, 1), None
#     Edge 91, Type (0, 1), None
#     Edge 92, Type (0, 1), None
#     Edge 93, Type (0, 1), None
#     Edge 94, Type (0, 1), None
#     Edge 95, Type (0, 1), None
#     Edge 96, Type (0, 1), None
#     Edge 97, Type (0, 1), None
#     Edge 98, Type (0, 1), None
#     Edge 99, Type (0, 1), None
#     Edge 100, Type (0, 1), None
#     Edge 101, Type (0, 1), None
#     Edge 102, Type (0, 1), None
#     Edge 103, Type (0, 1), None
#     Edge 104, Type (0, 1), None
#     Edge 105, Type (0, 1), None
#     Edge 106, Type (0, 1), None
#     Edge 107, Type (0, 1), None
# Relax obj value: 0.042
# Max RMSD: 0.111
# Mean RMSD: 0.080
data_MOF--net-ptr--node1-QUQFOY_clean_sbu_3--node2-KUFVIS_clean_linker_0--edge1-none
_symmetry_space_group_name_H-M    P1
_symmetry_Int_Tables_number       1
_symmetry_cell_setting            triclinic
loop_
_symmetry_equiv_pos_as_xyz
'x, y, z'
_cell_length_a     37.465654
_cell_length_b     37.633634
_cell_length_c     24.293241
_cell_angle_alpha  90.686381
_cell_angle_beta   89.562854
_cell_angle_gamma 120.71629
loop_
_atom_site_label
_atom_site_type_symbol
_atom_site_fract_x
_atom_site_fract_y
_atom_site_fract_z
_atom_type_partial_charge
C0 C 0.93819 0.29656 0.9268 0.0
O1 O 0.91726 0.30559 0.95911 0.0
Cd2 Cd 0.95376 0.37643 -0.01318 0.0
O3 O 0.97741 0.32046 0.92274 0.0
Cd4 Cd 0.03745 0.37997 0.96977 0.0
C5 C 0.01863 0.42485 0.87135 0.0
O6 O 0.00323 0.38363 0.0512 0.0
O7 O 0.05604 0.44246 0.02746 0.0
O8 O 0.04342 0.32475 0.00473 0.0
C9 C 0.02908 0.42088 0.06343 0.0
O10 O 0.98758 0.41498 0.9028 0.0
C11 C 0.08207 0.34511 0.01439 0.0
O12 O 0.04541 0.41476 0.88268 0.0
O13 O 0.10251 0.3814 -0.00542 0.0
C14 C 0.63972 0.73149 0.01369 0.0
O15 O 0.60748 0.72571 -0.01103 0.0
Cd16 Cd 0.56523 0.65535 0.95541 0.0
O17 O 0.65137 0.70546 0.00775 0.0
Cd18 Cd 0.63399 0.64371 0.95499 0.0
C19 C 0.57752 0.60503 0.06313 0.0
O20 O 0.58867 0.63339 0.87585 0.0
O21 O 0.57845 0.57856 0.9181 0.0
O22 O 0.69741 0.6802 0.90492 0.0
C23 C 0.57266 0.59433 0.87567 0.0
O24 O 0.5527 0.61284 0.03779 0.0
C25 C 0.7097 0.65505 0.91431 0.0
O26 O 0.61285 0.61519 0.04346 0.0
O27 O 0.68746 0.62502 0.94603 0.0
C28 C 0.26234 0.89921 0.01859 0.0
O29 O 0.26866 0.87293 -0.0058 0.0
Cd30 Cd 0.3362 0.9 0.95124 0.0
O31 O 0.28683 0.93752 0.01052 0.0
Cd32 Cd 0.34759 0.98343 0.95554 0.0
C33 C 0.39309 0.96388 0.05594 0.0
O34 O 0.35375 0.94677 0.87472 0.0
O35 O 0.41068 0.99258 0.91465 0.0
O36 O 0.31354 0.01544 0.91174 0.0
C37 C 0.3931 0.96976 0.87297 0.0
O38 O 0.38469 0.93122 0.02917 0.0
C39 C 0.34144 0.05262 0.92201 0.0
O40 O 0.38071 0.98772 0.03967 0.0
O41 O 0.37162 0.05782 0.95153 0.0
C42 C 0.90238 0.63436 0.95168 0.0
O43 O 0.87387 0.60299 -0.02381 0.0
Cd44 Cd 0.89633 0.55807 0.01323 0.0
O45 O 0.93997 0.64468 0.95881 0.0
Cd46 Cd 0.98164 0.62535 0.01299 0.0
C47 C 0.95782 0.56451 0.90585 0.0
O48 O 0.94268 0.58219 0.09208 0.0
O49 O 0.98675 0.56914 0.05227 0.0
O50 O 0.014 0.69115 0.05904 0.0
C51 C 0.96425 0.56482 0.0939 0.0
O52 O 0.9239 0.5411 0.93097 0.0
C53 C 0.05124 0.70019 0.05104 0.0
O54 O 0.98485 0.59924 0.92575 0.0
O55 O 0.05656 0.675 0.02185 0.0
C56 C 0.29103 0.35633 0.04614 0.0
O57 O 0.30265 0.38703 0.01486 0.0
Cd58 Cd 0.37316 0.41893 -0.01491 0.0
O59 O 0.31243 0.33877 0.04968 0.0
Cd60 Cd 0.37046 0.33583 0.00267 0.0
C61 C 0.42242 0.40329 0.09819 0.0
O62 O 0.37743 0.37416 0.92171 0.0
O63 O 0.43471 0.37876 0.94849 0.0
O64 O 0.31576 0.27428 0.96196 0.0
C65 C 0.41471 0.38473 0.91148 0.0
O66 O 0.41412 0.425 0.0667 0.0
C67 C 0.33566 0.25559 0.95517 0.0
O68 O 0.40808 0.36497 0.08855 0.0
O69 O 0.37072 0.27122 -0.02086 0.0
C70 C 0.73381 0.09346 0.95518 0.0
O71 O 0.72777 0.12037 -0.02185 0.0
Cd72 Cd 0.65875 0.09255 0.01678 0.0
O73 O 0.70813 0.05542 0.96258 0.0
Cd74 Cd 0.64589 0.01075 0.01373 0.0
C75 C 0.60312 0.02965 0.90978 0.0
O76 O 0.64043 0.04716 0.09545 0.0
O77 O 0.58333 0.002 0.05513 0.0
O78 O 0.6801 0.98078 0.06057 0.0
C79 C 0.60118 0.02374 0.09754 0.0
O80 O 0.61164 0.0622 0.93693 0.0
C81 C 0.653 0.94348 0.04974 0.0
O82 O 0.61457 0.00523 0.92662 0.0
O83 O 0.62313 0.93726 0.01878 0.0
C84 C 0.60481 0.63017 0.25988 0.0
O85 O 0.58392 0.63927 0.29217 0.0
Cd86 Cd 0.62053 0.7101 0.31985 0.0
O87 O 0.64404 0.65402 0.25581 0.0
Cd88 Cd 0.70412 0.71346 0.30285 0.0
C89 C 0.68543 0.75839 0.20436 0.0
O90 O 0.66992 0.71718 0.38426 0.0
O91 O 0.72286 0.77595 0.36061 0.0
O92 O 0.70985 0.65811 0.33785 0.0
C93 C 0.69584 0.7544 0.39655 0.0
O94 O 0.65439 0.74858 0.23581 0.0
C95 C 0.7485 0.67836 0.34753 0.0
O96 O 0.71217 0.74826 0.21573 0.0
O97 O 0.76905 0.71464 0.32771 0.0
C98 C 0.30648 0.06477 0.34709 0.0
O99 O 0.27429 0.05906 0.32231 0.0
Cd100 Cd 0.23192 0.98873 0.28873 0.0
O101 O 0.31805 0.03867 0.34119 0.0
Cd102 Cd 0.30058 0.97689 0.28843 0.0
C103 C 0.24401 0.93834 0.39654 0.0
O104 O 0.25534 0.96669 0.20924 0.0
O105 O 0.24497 0.9118 0.25149 0.0
O106 O 0.36406 0.0133 0.23844 0.0
C107 C 0.23926 0.92761 0.20905 0.0
O108 O 0.21926 0.94621 0.37115 0.0
C109 C 0.37626 0.98808 0.24782 0.0
O110 O 0.27932 0.94841 0.37692 0.0
O111 O 0.35394 0.95804 0.27949 0.0
C112 C 0.92949 0.23263 0.35208 0.0
O113 O 0.93595 0.20643 0.32773 0.0
Cd114 Cd 0.00353 0.23378 0.28476 0.0
O115 O 0.95386 0.27096 0.34397 0.0
Cd116 Cd 0.01455 0.31707 0.28901 0.0
C117 C 0.06031 0.29787 0.38938 0.0
O118 O 0.02087 0.2805 0.20822 0.0
O119 O 0.07773 0.32649 0.24811 0.0
O120 O 0.98026 0.34884 0.24521 0.0
C121 C 0.06021 0.30361 0.20647 0.0
O122 O 0.05204 0.26524 0.36264 0.0
C123 C 0.00807 0.38607 0.25546 0.0
O124 O 0.04777 0.32158 0.37311 0.0
O125 O 0.03829 0.39139 0.285 0.0
C126 C 0.56927 0.96791 0.28498 0.0
O127 O 0.54079 0.93652 0.30949 0.0
Cd128 Cd 0.56324 0.89159 0.34648 0.0
O129 O 0.60687 0.97826 0.29205 0.0
Cd130 Cd 0.64859 0.95893 0.34618 0.0
C131 C 0.62472 0.89804 0.23908 0.0
O132 O 0.60963 0.91579 0.42528 0.0
O133 O 0.65368 0.90272 0.38547 0.0
O134 O 0.68097 0.02473 0.39222 0.0
C135 C 0.63118 0.8984 0.4271 0.0
O136 O 0.59081 0.87464 0.26421 0.0
C137 C 0.71821 0.03375 0.38426 0.0
O138 O 0.65176 0.93278 0.25895 0.0
O139 O 0.72351 0.00856 0.35506 0.0
C140 C 0.95735 0.68946 0.37939 0.0
O141 O 0.96891 0.72016 0.34814 0.0
Cd142 Cd 0.03943 0.75218 0.31837 0.0
O143 O 0.9788 0.67196 0.38293 0.0
Cd144 Cd 0.0369 0.66915 0.33594 0.0
C145 C 0.08875 0.73663 0.43147 0.0
O146 O 0.04376 0.70745 0.25501 0.0
O147 O 0.1011 0.71216 0.28173 0.0
O148 O 0.98223 0.60756 0.29528 0.0
C149 C 0.08105 0.71809 0.24475 0.0
O150 O 0.0804 0.7583 0.39999 0.0
C151 C 0.00217 0.58892 0.28846 0.0
O152 O 0.07448 0.69833 0.42182 0.0
O153 O 0.03725 0.6046 0.31239 0.0
C154 C 0.40085 0.42677 0.2886 0.0
O155 O 0.39483 0.45369 0.31159 0.0
Cd156 Cd 0.32587 0.42599 0.35031 0.0
O157 O 0.37517 0.38873 0.296 0.0
Cd158 Cd 0.31291 0.34416 0.34722 0.0
C159 C 0.27018 0.36317 0.24329 0.0
O160 O 0.30754 0.3806 0.42896 0.0
O161 O 0.2504 0.33552 0.38864 0.0
O162 O 0.34699 0.31405 0.39407 0.0
C163 C 0.26828 0.35724 0.43106 0.0
O164 O 0.27872 0.39571 0.27048 0.0
C165 C 0.31983 0.27677 0.38322 0.0
O166 O 0.2816 0.33872 0.26011 0.0
O167 O 0.28999 0.27063 0.35224 0.0
C168 C 0.27122 0.96341 0.59333 0.0
O169 O 0.25037 0.97256 0.62562 0.0
Cd170 Cd 0.28712 0.04339 0.65332 0.0
O171 O 0.31046 0.98718 0.58928 0.0
Cd172 Cd 0.3706 0.04656 0.63633 0.0
C173 C 0.35206 0.09158 0.53783 0.0
O174 O 0.33646 0.05037 0.71777 0.0
O175 O 0.38946 0.10909 0.69407 0.0
O176 O 0.3763 0.9912 0.67138 0.0
C177 C 0.36245 0.08758 0.73003 0.0
O178 O 0.32103 0.08183 0.56928 0.0
C179 C 0.41496 0.01142 0.68097 0.0
O180 O 0.37874 0.08137 0.5492 0.0
O181 O 0.43552 0.04768 0.66109 0.0
C182 C 0.97309 0.39801 0.68061 0.0
O183 O 0.94084 0.39218 0.65586 0.0
Cd184 Cd 0.89872 0.32182 0.62225 0.0
O185 O 0.98482 0.37204 0.67468 0.0
Cd186 Cd 0.96763 0.31034 0.62194 0.0
C187 C 0.91111 0.27156 0.73001 0.0
O188 O 0.92233 0.29998 0.54278 0.0
O189 O 0.91221 0.24516 0.58496 0.0
O190 O 0.03108 0.34703 0.57196 0.0
C191 C 0.90638 0.26092 0.54256 0.0
O192 O 0.88627 0.2793 0.70461 0.0
C193 C 0.04346 0.32195 0.5813 0.0
O194 O 0.94648 0.2818 0.71041 0.0
O195 O 0.02126 0.29186 0.61297 0.0
C196 C 0.59575 0.56597 0.6852 0.0
O197 O 0.60215 0.53974 0.66082 0.0
Cd198 Cd 0.66967 0.5669 0.61778 0.0
O199 O 0.62016 0.60429 0.67709 0.0
Cd200 Cd 0.68088 0.65026 0.62207 0.0
C201 C 0.72652 0.63086 0.72243 0.0
O202 O 0.68711 0.61364 0.54126 0.0
O203 O 0.744 0.65951 0.5812 0.0
O204 O 0.64678 0.68221 0.57822 0.0
C205 C 0.72645 0.63668 0.53953 0.0
O206 O 0.71819 0.59822 0.69566 0.0
C207 C 0.67465 0.7194 0.58852 0.0
O208 O 0.71405 0.65463 0.70617 0.0
O209 O 0.70482 0.72463 0.61809 0.0
C210 C 0.23615 0.30127 0.61843 0.0
O211 O 0.2076 0.26993 0.64294 0.0
Cd212 Cd 0.2299 0.22486 0.67988 0.0
O213 O 0.27371 0.3115 0.62552 0.0
Cd214 Cd 0.31525 0.29198 0.67969 0.0
C215 C 0.29134 0.23119 0.5725 0.0
O216 O 0.2762 0.24887 0.75878 0.0
O217 O 0.32019 0.23569 0.71898 0.0
O218 O 0.34769 0.35777 0.72578 0.0
C219 C 0.29771 0.23143 0.76062 0.0
O220 O 0.25738 0.20784 0.59757 0.0
C221 C 0.38491 0.36674 0.7178 0.0
O222 O 0.31843 0.26587 0.59244 0.0
O223 O 0.39018 0.34151 0.68863 0.0
C224 C 0.62403 0.02287 0.71264 0.0
O225 O 0.63562 0.05357 0.68138 0.0
Cd226 Cd 0.70615 0.08555 0.65168 0.0
O227 O 0.64549 0.00536 0.7162 0.0
Cd228 Cd 0.70359 0.00255 0.66922 0.0
C229 C 0.75545 0.06997 0.76479 0.0
O230 O 0.71053 0.04086 0.58826 0.0
O231 O 0.76785 0.04559 0.61509 0.0
O232 O 0.64895 0.94096 0.62854 0.0
C233 C 0.74782 0.0515 0.57805 0.0
O234 O 0.74712 0.09167 0.73332 0.0
C235 C 0.66891 0.92234 0.62172 0.0
O236 O 0.74116 0.03167 0.75512 0.0
O237 O 0.70398 0.93803 0.64567 0.0
C238 C 0.0671 0.76002 0.62188 0.0
O239 O 0.06099 0.78688 0.64485 0.0
Cd240 Cd 0.99199 0.75902 0.68355 0.0
O241 O 0.04147 0.72196 0.62929 0.0
Cd242 Cd 0.97924 0.67725 0.68045 0.0
C243 C 0.93639 0.69612 0.57654 0.0
O244 O 0.97373 0.71362 0.76218 0.0
O245 O 0.91665 0.66845 0.72182 0.0
O246 O 0.01342 0.64728 0.72736 0.0
C247 C 0.93448 0.69019 0.76425 0.0
O248 O 0.94485 0.72865 0.60373 0.0
C249 C 0.98632 0.60997 0.71651 0.0
O250 O 0.9479 0.67174 0.59334 0.0
O251 O 0.95649 0.60376 0.68548 0.0
H252 H 0.30515 0.35651 0.15212 0.0
H253 H 0.21118 0.34119 0.03805 0.0
H254 H 0.19934 0.35908 0.2124 0.0
H255 H 0.1348 0.31132 0.19919 0.0
H256 H 0.03901 0.30872 0.10384 0.0
H257 H 0.16105 0.35933 0.03321 0.0
C258 C 0.27516 0.35334 0.14418 0.0
C259 C 0.25285 0.35682 0.18783 0.0
C260 C 0.2613 0.34988 0.09013 0.0
C261 C 0.22237 0.3457 0.07998 0.0
C262 C 0.1979 0.34621 0.12432 0.0
C263 C 0.21526 0.35487 0.17783 0.0
C264 C 0.15387 0.3357 0.11645 0.0
C265 C 0.12545 0.31794 0.16044 0.0
C266 C 0.08467 0.30931 0.1562 0.0
C267 C 0.07047 0.31452 0.10602 0.0
C268 C 0.09779 0.33249 0.06129 0.0
C269 C 0.13972 0.34371 0.0668 0.0
H270 H 0.63133 0.94189 0.15192 0.0
H271 H 0.66633 0.87799 0.03569 0.0
H272 H 0.6321 0.83429 0.20307 0.0
H273 H 0.69018 0.83036 0.19088 0.0
H274 H 0.67725 0.72556 0.10372 0.0
H275 H 0.63642 0.8018 0.02845 0.0
C276 C 0.63587 0.91623 0.14192 0.0
C277 C 0.63076 0.88853 0.18277 0.0
C278 C 0.64743 0.91188 0.08872 0.0
C279 C 0.65535 0.88002 0.07633 0.0
C280 C 0.65107 0.85227 0.11806 0.0
C281 C 0.63669 0.85574 0.17059 0.0
C282 C 0.6636 0.82109 0.10936 0.0
C283 C 0.68217 0.81229 0.15309 0.0
C284 C 0.68607 0.77743 0.15168 0.0
C285 C 0.67614 0.7538 0.10338 0.0
C286 C 0.6586 0.76267 0.05818 0.0
C287 C 0.65235 0.79643 0.06145 0.0
H288 H 0.26928 0.94577 0.10668 0.0
H289 H 0.19387 0.82348 0.03816 0.0
H290 H 0.17093 0.85266 0.2025 0.0
H291 H 0.15237 0.78776 0.21604 0.0
H292 H 0.04538 0.68017 0.15312 0.0
H293 H 0.12175 0.77808 0.04219 0.0
C294 C 0.24244 0.9148 0.10921 0.0
C295 C 0.22124 0.90191 0.1592 0.0
C296 C 0.23293 0.88661 0.06532 0.0
C297 C 0.2001 0.84553 0.07111 0.0
C298 C 0.17681 0.83257 0.12032 0.0
C299 C 0.18777 0.86145 0.16392 0.0
C300 C 0.1424 0.78881 0.12773 0.0
C301 C 0.13329 0.77114 0.1809 0.0
C302 C 0.0977 0.73272 0.18979 0.0
C303 C 0.07304 0.71006 0.14567 0.0
C304 C 0.08199 0.72577 0.09263 0.0
C305 C 0.11648 0.76528 0.08315 0.0
H306 H 0.36193 0.05094 0.82101 0.0
H307 H 0.33017 0.12019 0.93193 0.0
H308 H 0.36111 0.15641 0.76098 0.0
H309 H 0.30922 0.16726 0.77012 0.0
H310 H 0.29973 0.25842 0.86329 0.0
H311 H 0.35231 0.19245 0.93884 0.0
C312 C 0.35831 0.07743 0.82901 0.0
C313 C 0.36195 0.10271 0.78568 0.0
C314 C 0.34794 0.08406 0.88172 0.0
C315 C 0.34069 0.11681 0.89163 0.0
C316 C 0.34461 0.14329 0.84791 0.0
C317 C 0.3573 0.13677 0.79541 0.0
C318 C 0.33141 0.17466 0.85441 0.0
C319 C 0.31404 0.18351 0.80892 0.0
C320 C 0.30359 0.21421 0.81179 0.0
C321 C 0.30681 0.23385 0.86201 0.0
C322 C 0.32443 0.22635 0.90821 0.0
C323 C 0.33711 0.19695 0.90415 0.0
H324 H 0.72452 0.04783 0.86574 0.0
H325 H 0.80545 0.16709 0.939 0.0
H326 H 0.83063 0.1362 0.77688 0.0
H327 H 0.84649 0.19982 0.76176 0.0
H328 H 0.95271 0.30995 0.82031 0.0
H329 H 0.87546 0.21556 0.93581 0.0
C330 C 0.75362 0.07716 0.86545 0.0
C331 C 0.77646 0.08949 0.81677 0.0
C332 C 0.76426 0.1049 0.91018 0.0
C333 C 0.79909 0.14497 0.90611 0.0
C334 C 0.82374 0.15698 0.8581 0.0
C335 C 0.8128 0.12801 0.8147 0.0
C336 C 0.85802 0.20049 0.84967 0.0
C337 C 0.86647 0.21688 0.79606 0.0
C338 C 0.90123 0.25532 0.78565 0.0
C339 C 0.92658 0.27931 0.8288 0.0
C340 C 0.91622 0.26594 0.88307 0.0
C341 C 0.88232 0.2262 0.89373 0.0
H342 H 0.69205 0.64096 0.81065 0.0
H343 H 0.78689 0.6631 0.92729 0.0
H344 H 0.79724 0.63453 0.75641 0.0
H345 H 0.86273 0.68792 0.77249 0.0
H346 H 0.95152 0.67522 0.86561 0.0
H347 H 0.82914 0.63137 0.93244 0.0
C348 C 0.72162 0.64347 0.81986 0.0
C349 C 0.74345 0.63754 0.77795 0.0
C350 C 0.73645 0.65141 0.87361 0.0
C351 C 0.77476 0.65518 0.88578 0.0
C352 C 0.79805 0.65071 0.84307 0.0
C353 C 0.78091 0.63977 0.78957 0.0
C354 C 0.84108 0.65985 0.85242 0.0
C355 C 0.87072 0.67866 0.81035 0.0
C356 C 0.91012 0.6837 0.81476 0.0
C357 C 0.92148 0.67287 0.86362 0.0
C358 C 0.89237 0.65385 0.90654 0.0
C359 C 0.85219 0.64757 0.90073 0.0
H360 H 0.9714 0.68952 0.48538 0.0
H361 H 0.87749 0.67426 0.37125 0.0
H362 H 0.86552 0.69196 0.54562 0.0
H363 H 0.80097 0.64424 0.53229 0.0
H364 H 0.70533 0.64189 0.43689 0.0
H365 H 0.8274 0.69244 0.36642 0.0
C366 C 0.9414 0.68633 0.47743 0.0
C367 C 0.91906 0.68975 0.52107 0.0
C368 C 0.92758 0.68292 0.42337 0.0
C369 C 0.88865 0.67872 0.41319 0.0
C370 C 0.86414 0.67918 0.45753 0.0
C371 C 0.88146 0.68779 0.51106 0.0
C372 C 0.82013 0.6687 0.4496 0.0
C373 C 0.79167 0.65092 0.49354 0.0
C374 C 0.75091 0.64235 0.48927 0.0
C375 C 0.73677 0.64763 0.43909 0.0
C376 C 0.76413 0.66563 0.39441 0.0
C377 C 0.80604 0.67679 0.39997 0.0
H378 H 0.29799 0.27508 0.48536 0.0
H379 H 0.33317 0.2113 0.36917 0.0
H380 H 0.29874 0.16746 0.53646 0.0
H381 H 0.35686 0.16357 0.52435 0.0
H382 H 0.34394 0.05877 0.43717 0.0
H383 H 0.30322 0.1351 0.36184 0.0
C384 C 0.30253 0.24943 0.47535 0.0
C385 C 0.29739 0.2217 0.51618 0.0
C386 C 0.31417 0.24513 0.42217 0.0
C387 C 0.32213 0.21329 0.40978 0.0
C388 C 0.31779 0.18551 0.45149 0.0
C389 C 0.30335 0.18893 0.504 0.0
C390 C 0.33034 0.15434 0.44279 0.0
C391 C 0.34887 0.14551 0.48655 0.0
C392 C 0.35275 0.11064 0.48514 0.0
C393 C 0.34285 0.08703 0.43682 0.0
C394 C 0.32536 0.09593 0.3916 0.0
C395 C 0.31913 0.12971 0.39486 0.0
H396 H 0.93643 0.27911 0.44024 0.0
H397 H 0.86102 0.15686 0.37158 0.0
H398 H 0.83806 0.18597 0.53598 0.0
H399 H 0.81931 0.12103 0.54944 0.0
H400 H 0.71212 0.01372 0.48636 0.0
H401 H 0.78889 0.11153 0.37552 0.0
C402 C 0.9096 0.24814 0.44274 0.0
C403 C 0.88839 0.23523 0.49271 0.0
C404 C 0.90009 0.21997 0.39882 0.0
C405 C 0.86726 0.17889 0.40457 0.0
C406 C 0.84394 0.16591 0.45377 0.0
C407 C 0.85491 0.19477 0.4974 0.0
C408 C 0.80945 0.12217 0.46111 0.0
C409 C 0.80022 0.10448 0.51427 0.0
C410 C 0.76452 0.06614 0.52311 0.0
C411 C 0.73985 0.04356 0.47895 0.0
C412 C 0.74892 0.05926 0.42592 0.0
C413 C 0.78353 0.09872 0.41648 0.0
H414 H 0.02849 0.38429 0.15446 0.0
H415 H -0.00327 0.45361 0.26526 0.0
H416 H 0.02764 0.48969 0.09425 0.0
H417 H 0.97583 0.50068 0.10335 0.0
H418 H 0.96626 0.59178 0.19658 0.0
H419 H 0.01884 0.5258 0.27211 0.0
C420 C 0.02484 0.41077 0.16242 0.0
C421 C 0.02848 0.43601 0.11904 0.0
C422 C 0.01448 0.41744 0.21511 0.0
C423 C 0.00723 0.45019 0.22496 0.0
C424 C 0.01114 0.47664 0.1812 0.0
C425 C 0.02382 0.47008 0.12871 0.0
C426 C -0.00203 0.50803 0.18766 0.0
C427 C 0.98063 0.51691 0.14216 0.0
C428 C 0.97016 0.54759 0.14505 0.0
C429 C 0.97335 0.56721 0.19528 0.0
C430 C 0.99097 0.55971 0.24148 0.0
C431 C 0.00365 0.53031 0.23741 0.0
H432 H 0.39163 0.38109 0.19921 0.0
H433 H 0.47236 0.50046 0.27231 0.0
H434 H 0.49753 0.46964 0.11017 0.0
H435 H 0.51312 0.53317 0.09499 0.0
H436 H 0.61907 0.64362 0.15337 0.0
H437 H 0.54231 0.5491 0.26899 0.0
C438 C 0.42068 0.41047 0.19887 0.0
C439 C 0.44347 0.42283 0.15014 0.0
C440 C 0.43129 0.43822 0.24358 0.0
C441 C 0.46603 0.47833 0.23945 0.0
C442 C 0.49063 0.49039 0.19139 0.0
C443 C 0.47974 0.46141 0.14803 0.0
C444 C 0.52477 0.53395 0.18289 0.0
C445 C 0.53308 0.55031 0.12926 0.0
C446 C 0.5677 0.58884 0.11879 0.0
C447 C 0.59304 0.61293 0.1619 0.0
C448 C 0.58281 0.59954 0.21618 0.0
C449 C 0.54905 0.55974 0.2269 0.0
H450 H 0.35848 0.97371 0.14422 0.0
H451 H 0.45355 -0.00363 0.26074 0.0
H452 H 0.46392 0.96779 0.08986 0.0
H453 H 0.52935 0.02132 0.10589 0.0
H454 H 0.61834 0.00886 0.19889 0.0
H455 H 0.49596 0.96478 0.26585 0.0
C456 C 0.3881 0.97634 0.15341 0.0
C457 C 0.40999 0.97053 0.11147 0.0
C458 C 0.40298 0.9844 0.20713 0.0
C459 C 0.44139 0.98835 0.21925 0.0
C460 C 0.46471 0.98396 0.17652 0.0
C461 C 0.44754 0.97294 0.12304 0.0
C462 C 0.5078 0.99325 0.18583 0.0
C463 C 0.5374 0.0121 0.14373 0.0
C464 C 0.57684 0.01723 0.1481 0.0
C465 C 0.58827 0.00645 0.19693 0.0
C466 C 0.5592 0.98738 0.23988 0.0
C467 C 0.51898 0.98102 0.23413 0.0
H468 H 0.63818 0.02312 0.81862 0.0
H469 H 0.54411 0.00752 0.70453 0.0
H470 H 0.53218 0.02534 0.87887 0.0
H471 H 0.46767 0.97744 0.86562 0.0
H472 H 0.37186 0.97488 0.77036 0.0
H473 H 0.49391 0.02561 0.69974 0.0
C474 C 0.60815 0.01986 0.81067 0.0
C475 C 0.58579 0.02326 0.85431 0.0
C476 C 0.59428 0.01635 0.75662 0.0
C477 C 0.5553 0.01205 0.74646 0.0
C478 C 0.53079 0.01249 0.7908 0.0
C479 C 0.54814 0.02118 0.84431 0.0
C480 C 0.48673 0.00189 0.78292 0.0
C481 C 0.45831 0.98408 0.82689 0.0
C482 C 0.41753 0.97544 0.82268 0.0
C483 C 0.40332 0.98068 0.77251 0.0
C484 C 0.43064 -0.0013 0.7278 0.0
C485 C 0.47258 0.00993 0.7333 0.0
H486 H 0.96458 0.60841 0.81866 0.0
H487 H -0.00039 0.54444 0.70257 0.0
H488 H 0.96514 0.50072 0.86991 0.0
H489 H 0.02322 0.49676 0.8579 0.0
H490 H 0.01056 0.39209 0.7707 0.0
H491 H 0.96969 0.46827 0.69533 0.0
C492 C 0.96909 0.58273 0.8087 0.0
C493 C 0.9639 0.555 0.84956 0.0
C494 C 0.9807 0.57838 0.75553 0.0
C495 C 0.98859 0.54648 0.74318 0.0
C496 C 0.98423 0.51872 0.78494 0.0
C497 C 0.96979 0.52219 0.83743 0.0
C498 C -0.00324 0.48753 0.77631 0.0
C499 C 0.01527 0.47871 0.8201 0.0
C500 C 0.01924 0.44389 0.81868 0.0
C501 C 0.0094 0.4203 0.77036 0.0
C502 C 0.99189 0.42916 0.72513 0.0
C503 C 0.98559 0.4629 0.72838 0.0
H504 H 0.60262 0.61252 0.77328 0.0
H505 H 0.52741 0.49017 0.70483 0.0
H506 H 0.50444 0.5193 0.86919 0.0
H507 H 0.48598 0.45444 0.88277 0.0
H508 H 0.37913 0.3467 0.81987 0.0
H509 H 0.45533 0.44465 0.70891 0.0
C510 C 0.57583 0.58152 0.77583 0.0
C511 C 0.55466 0.56861 0.82584 0.0
C512 C 0.56635 0.55333 0.73195 0.0
C513 C 0.53361 0.51222 0.73778 0.0
C514 C 0.51034 0.49923 0.78701 0.0
C515 C 0.52126 0.52811 0.83059 0.0
C516 C 0.47601 0.45543 0.79445 0.0
C517 C 0.46692 0.43778 0.84762 0.0
C518 C 0.43138 0.39933 0.85652 0.0
C519 C 0.40676 0.37661 0.81241 0.0
C520 C 0.41568 0.39231 0.75936 0.0
C521 C 0.4501 0.43186 0.74987 0.0
H522 H 0.69516 0.7177 0.48753 0.0
H523 H 0.66343 0.787 0.59838 0.0
H524 H 0.69453 0.82325 0.42747 0.0
H525 H 0.64273 0.83424 0.43651 0.0
H526 H 0.63311 0.92528 0.5298 0.0
H527 H 0.68558 0.85921 0.60535 0.0
C528 C 0.69156 0.7442 0.49552 0.0
C529 C 0.69527 0.7695 0.45218 0.0
C530 C 0.68117 0.75084 0.54821 0.0
C531 C 0.67396 0.78361 0.5581 0.0
C532 C 0.67794 0.81012 0.51438 0.0
C533 C 0.69066 0.80359 0.46189 0.0
C534 C 0.66479 0.84152 0.52085 0.0
C535 C 0.6475 0.85045 0.47534 0.0
C536 C 0.63705 0.88114 0.47824 0.0
C537 C 0.64019 0.90071 0.5285 0.0
C538 C 0.65775 0.89316 0.57471 0.0
C539 C 0.67043 0.86376 0.57063 0.0
H540 H 0.05793 0.7144 0.53246 0.0
H541 H 0.13859 0.83376 0.60565 0.0
H542 H 0.16383 0.80301 0.4435 0.0
H543 H 0.17947 0.86656 0.42836 0.0
H544 H 0.28554 0.97686 0.48683 0.0
H545 H 0.20857 0.88238 0.60238 0.0
C546 C 0.08696 0.74379 0.53214 0.0
C547 C 0.10977 0.75617 0.48343 0.0
C548 C 0.09755 0.77152 0.57687 0.0
C549 C 0.13228 0.81165 0.57277 0.0
C550 C 0.1569 0.82373 0.52473 0.0
C551 C 0.14603 0.79477 0.48134 0.0
C552 C 0.19106 0.86729 0.51627 0.0
C553 C 0.19943 0.88366 0.46265 0.0
C554 C 0.23411 0.92215 0.45221 0.0
C555 C 0.25946 0.9462 0.49534 0.0
C556 C 0.24918 0.93281 0.54961 0.0
C557 C 0.21535 0.89303 0.5603 0.0
H558 H 0.02583 0.30792 0.47763 0.0
H559 H 0.12072 0.33014 0.59423 0.0
H560 H 0.13111 0.30169 0.4233 0.0
H561 H 0.1966 0.3551 0.43942 0.0
H562 H 0.28531 0.34217 0.53238 0.0
H563 H 0.16298 0.29842 0.59928 0.0
C564 C 0.05542 0.31049 0.48682 0.0
C565 C 0.07728 0.30461 0.44489 0.0
C566 C 0.07026 0.31842 0.54057 0.0
C567 C 0.1086 0.32224 0.55271 0.0
C568 C 0.13191 0.31784 0.50997 0.0
C569 C 0.11476 0.3069 0.45648 0.0
C570 C 0.17494 0.32698 0.51931 0.0
C571 C 0.20458 0.3458 0.47724 0.0
C572 C 0.24396 0.35077 0.48161 0.0
C573 C 0.2553 0.33988 0.53043 0.0
C574 C 0.22618 0.32085 0.57335 0.0
C575 C 0.18603 0.31464 0.56759 0.0
loop_
_geom_bond_atom_site_label_1
_geom_bond_atom_site_label_2
_geom_bond_distance
_geom_bond_site_symmetry_2
_ccdc_geom_bond_type
C0 O1 1.306 . S
C0 O3 1.160 . S
O1 C0 1.306 . S
O1 Cd2 2.228 1_556 S
Cd2 O1 2.228 1_554 S
Cd2 O6 2.273 . S
Cd2 O10 2.277 1_554 S
O3 C0 1.160 . S
O3 Cd4 2.203 1_656 S
Cd4 O3 2.203 1_454 S
Cd4 O6 2.411 1_455 S
Cd4 O7 2.333 . S
Cd4 O8 2.352 . S
Cd4 O12 2.277 1_554 S
Cd4 O13 2.356 . S
C5 O10 1.209 1_455 S
C5 O12 1.226 . S
O6 Cd2 2.273 . S
O6 Cd4 2.411 1_655 S
O6 C9 1.320 . S
O7 Cd4 2.333 . S
O7 C9 1.214 1_455 S
O8 Cd4 2.352 . S
O8 C11 1.258 . S
C9 O6 1.320 . S
C9 O7 1.214 1_655 S
O10 Cd2 2.277 1_556 S
O10 C5 1.209 1_655 S
C11 O8 1.258 . S
C11 O13 1.282 . S
O12 Cd4 2.277 1_556 S
O12 C5 1.226 . S
O13 Cd4 2.356 . S
O13 C11 1.282 . S
C14 O15 1.306 . S
C14 O17 1.160 . S
O15 C14 1.306 . S
O15 Cd16 2.228 . S
Cd16 O15 2.228 . S
Cd16 O20 2.273 1_554 S
Cd16 O24 2.277 . S
O17 C14 1.160 . S
O17 Cd18 2.203 . S
Cd18 O17 2.203 . S
Cd18 O20 2.411 1_554 S
Cd18 O21 2.333 1_554 S
Cd18 O22 2.352 1_554 S
Cd18 O26 2.277 . S
Cd18 O27 2.358 . S
C19 O24 1.209 . S
C19 O26 1.226 . S
O20 Cd16 2.273 1_556 S
O20 Cd18 2.411 1_556 S
O20 C23 1.320 . S
O21 Cd18 2.333 1_556 S
O21 C23 1.214 . S
O22 Cd18 2.352 1_556 S
O22 C25 1.258 . S
C23 O20 1.320 . S
C23 O21 1.214 . S
O24 Cd16 2.277 . S
O24 C19 1.209 . S
C25 O22 1.258 . S
C25 O27 1.275 1_556 S
O26 Cd18 2.277 . S
O26 C19 1.226 . S
O27 Cd18 2.358 . S
O27 C25 1.275 1_554 S
C28 O29 1.306 . S
C28 O31 1.160 . S
O29 C28 1.306 . S
O29 Cd30 2.228 . S
Cd30 O29 2.228 . S
Cd30 O34 2.273 1_554 S
Cd30 O38 2.277 . S
O31 C28 1.160 . S
O31 Cd32 2.203 1_565 S
Cd32 O31 2.203 1_545 S
Cd32 O34 2.411 1_544 S
Cd32 O35 2.333 1_554 S
Cd32 O36 2.352 1_554 S
Cd32 O40 2.277 . S
Cd32 O41 2.356 . S
C33 O38 1.209 1_545 S
C33 O40 1.226 . S
O34 Cd30 2.273 1_556 S
O34 Cd32 2.411 1_566 S
O34 C37 1.332 . S
O35 Cd32 2.333 1_556 S
O35 C37 1.187 1_545 S
O36 Cd32 2.352 1_556 S
O36 C39 1.258 . S
C37 O34 1.332 . S
C37 O35 1.187 1_565 S
O38 Cd30 2.277 . S
O38 C33 1.209 1_565 S
C39 O36 1.258 . S
C39 O41 1.282 1_556 S
O40 Cd32 2.277 . S
O40 C33 1.226 . S
O41 Cd32 2.356 . S
O41 C39 1.282 1_554 S
C42 O43 1.306 . S
C42 O45 1.160 . S
O43 C42 1.306 . S
O43 Cd44 2.228 1_556 S
Cd44 O43 2.228 1_554 S
Cd44 O48 2.273 . S
Cd44 O52 2.277 1_554 S
O45 C42 1.160 . S
O45 Cd46 2.203 1_656 S
Cd46 O45 2.203 1_454 S
Cd46 O48 2.411 1_455 S
Cd46 O49 2.333 . S
Cd46 O50 2.352 . S
Cd46 O54 2.277 1_554 S
Cd46 O55 2.356 . S
C47 O52 1.209 1_455 S
C47 O54 1.226 . S
O48 Cd44 2.273 . S
O48 Cd46 2.411 1_655 S
O48 C51 1.320 . S
O49 Cd46 2.333 . S
O49 C51 1.214 1_455 S
O50 Cd46 2.352 . S
O50 C53 1.258 . S
C51 O48 1.320 . S
C51 O49 1.214 1_655 S
O52 Cd44 2.277 1_556 S
O52 C47 1.209 1_655 S
C53 O50 1.258 . S
C53 O55 1.282 . S
O54 Cd46 2.277 1_556 S
O54 C47 1.226 . S
O55 Cd46 2.356 . S
O55 C53 1.282 . S
C56 O57 1.306 . S
C56 O59 1.160 . S
O57 C56 1.306 . S
O57 Cd58 2.228 . S
Cd58 O57 2.228 . S
Cd58 O62 2.273 1_554 S
Cd58 O66 2.277 . S
O59 C56 1.160 . S
O59 Cd60 2.203 . S
Cd60 O59 2.203 . S
Cd60 O62 2.411 1_554 S
Cd60 O63 2.333 1_554 S
Cd60 O64 2.352 1_554 S
Cd60 O68 2.277 . S
Cd60 O69 2.356 1_554 S
C61 O66 1.209 . S
C61 O68 1.226 . S
O62 Cd58 2.273 1_556 S
O62 Cd60 2.411 1_556 S
O62 C65 1.320 . S
O63 Cd60 2.333 1_556 S
O63 C65 1.214 . S
O64 Cd60 2.352 1_556 S
O64 C67 1.258 . S
C65 O62 1.320 . S
C65 O63 1.214 . S
O66 Cd58 2.277 . S
O66 C61 1.209 . S
C67 O64 1.258 . S
C67 O69 1.282 . S
O68 Cd60 2.277 . S
O68 C61 1.226 . S
O69 Cd60 2.356 1_556 S
O69 C67 1.282 . S
C70 O71 1.306 . S
C70 O73 1.160 . S
O71 C70 1.306 . S
O71 Cd72 2.228 1_556 S
Cd72 O71 2.228 1_554 S
Cd72 O76 2.273 . S
Cd72 O80 2.277 1_554 S
O73 C70 1.160 . S
O73 Cd74 2.203 1_546 S
Cd74 O73 2.203 1_564 S
Cd74 O76 2.411 1_565 S
Cd74 O77 2.333 . S
Cd74 O78 2.352 . S
Cd74 O82 2.277 1_554 S
Cd74 O83 2.356 . S
C75 O80 1.209 1_565 S
C75 O82 1.226 . S
O76 Cd72 2.273 . S
O76 Cd74 2.411 1_545 S
O76 C79 1.320 . S
O77 Cd74 2.333 . S
O77 C79 1.214 1_565 S
O78 Cd74 2.352 . S
O78 C81 1.258 . S
C79 O76 1.320 . S
C79 O77 1.214 1_545 S
O80 Cd72 2.277 1_556 S
O80 C75 1.209 1_545 S
C81 O78 1.258 . S
C81 O83 1.282 . S
O82 Cd74 2.277 1_556 S
O82 C75 1.226 . S
O83 Cd74 2.356 . S
O83 C81 1.282 . S
C84 O85 1.306 . S
C84 O87 1.160 . S
O85 C84 1.306 . S
O85 Cd86 2.228 . S
Cd86 O85 2.228 . S
Cd86 O90 2.273 . S
Cd86 O94 2.277 . S
O87 C84 1.160 . S
O87 Cd88 2.203 . S
Cd88 O87 2.203 . S
Cd88 O90 2.411 . S
Cd88 O91 2.333 . S
Cd88 O92 2.352 . S
Cd88 O96 2.277 . S
Cd88 O97 2.356 . S
C89 O94 1.209 . S
C89 O96 1.226 . S
O90 Cd86 2.273 . S
O90 Cd88 2.411 . S
O90 C93 1.320 . S
O91 Cd88 2.333 . S
O91 C93 1.214 . S
O92 Cd88 2.352 . S
O92 C95 1.258 . S
C93 O90 1.320 . S
C93 O91 1.214 . S
O94 Cd86 2.277 . S
O94 C89 1.209 . S
C95 O92 1.258 . S
C95 O97 1.282 . S
O96 Cd88 2.277 . S
O96 C89 1.226 . S
O97 Cd88 2.356 . S
O97 C95 1.282 . S
C98 O99 1.306 . S
C98 O101 1.160 . S
O99 C98 1.306 . S
O99 Cd100 2.228 1_545 S
Cd100 O99 2.228 1_565 S
Cd100 O104 2.273 . S
Cd100 O108 2.277 . S
O101 C98 1.160 . S
O101 Cd102 2.203 1_545 S
Cd102 O101 2.203 1_565 S
Cd102 O104 2.411 . S
Cd102 O105 2.333 . S
Cd102 O106 2.352 1_565 S
Cd102 O110 2.277 . S
Cd102 O111 2.356 . S
C103 O108 1.209 . S
C103 O110 1.226 . S
O104 Cd100 2.273 . S
O104 Cd102 2.411 . S
O104 C107 1.320 . S
O105 Cd102 2.333 . S
O105 C107 1.214 . S
O106 Cd102 2.352 1_545 S
O106 C109 1.258 1_545 S
C107 O104 1.320 . S
C107 O105 1.214 . S
O108 Cd100 2.277 . S
O108 C103 1.209 . S
C109 O106 1.258 1_565 S
C109 O111 1.282 . S
O110 Cd102 2.277 . S
O110 C103 1.226 . S
O111 Cd102 2.356 . S
O111 C109 1.282 . S
C112 O113 1.306 . S
C112 O115 1.160 . S
O113 C112 1.306 . S
O113 Cd114 2.228 1_655 S
Cd114 O113 2.228 1_455 S
Cd114 O118 2.273 . S
Cd114 O122 2.277 . S
O115 C112 1.160 . S
O115 Cd116 2.203 1_655 S
Cd116 O115 2.203 1_455 S
Cd116 O118 2.411 . S
Cd116 O119 2.333 . S
Cd116 O120 2.352 1_455 S
Cd116 O124 2.277 . S
Cd116 O125 2.356 . S
C117 O122 1.209 . S
C117 O124 1.226 . S
O118 Cd114 2.273 . S
O118 Cd116 2.411 . S
O118 C121 1.320 . S
O119 Cd116 2.333 . S
O119 C121 1.214 . S
O120 Cd116 2.352 1_655 S
O120 C123 1.258 1_655 S
C121 O118 1.320 . S
C121 O119 1.214 . S
O122 Cd114 2.277 . S
O122 C117 1.209 . S
C123 O120 1.258 1_455 S
C123 O125 1.282 . S
O124 Cd116 2.277 . S
O124 C117 1.226 . S
O125 Cd116 2.356 . S
O125 C123 1.282 . S
C126 O127 1.306 . S
C126 O129 1.160 1_565 S
O127 C126 1.306 . S
O127 Cd128 2.228 . S
Cd128 O127 2.228 . S
Cd128 O132 2.273 . S
Cd128 O136 2.277 . S
O129 C126 1.160 1_545 S
O129 Cd130 2.203 1_545 S
Cd130 O129 2.203 1_565 S
Cd130 O132 2.411 . S
Cd130 O133 2.333 . S
Cd130 O134 2.352 1_565 S
Cd130 O138 2.277 . S
Cd130 O139 2.356 1_565 S
C131 O136 1.209 . S
C131 O138 1.226 . S
O132 Cd128 2.273 . S
O132 Cd130 2.411 . S
O132 C135 1.320 . S
O133 Cd130 2.333 . S
O133 C135 1.214 . S
O134 Cd130 2.352 1_545 S
O134 C137 1.258 . S
C135 O132 1.320 . S
C135 O133 1.214 . S
O136 Cd128 2.277 . S
O136 C131 1.209 . S
C137 O134 1.258 . S
C137 O139 1.282 . S
O138 Cd130 2.277 . S
O138 C131 1.226 . S
O139 Cd130 2.356 1_545 S
O139 C137 1.282 . S
C140 O141 1.306 . S
C140 O143 1.160 . S
O141 C140 1.306 . S
O141 Cd142 2.228 1_655 S
Cd142 O141 2.228 1_455 S
Cd142 O146 2.273 . S
Cd142 O150 2.277 . S
O143 C140 1.160 . S
O143 Cd144 2.203 1_655 S
Cd144 O143 2.203 1_455 S
Cd144 O146 2.411 . S
Cd144 O147 2.333 . S
Cd144 O148 2.352 1_455 S
Cd144 O152 2.277 . S
Cd144 O153 2.356 . S
C145 O150 1.209 . S
C145 O152 1.226 . S
O146 Cd142 2.273 . S
O146 Cd144 2.411 . S
O146 C149 1.320 . S
O147 Cd144 2.333 . S
O147 C149 1.214 . S
O148 Cd144 2.352 1_655 S
O148 C151 1.258 1_655 S
C149 O146 1.320 . S
C149 O147 1.214 . S
O150 Cd142 2.277 . S
O150 C145 1.209 . S
C151 O148 1.258 1_455 S
C151 O153 1.282 . S
O152 Cd144 2.277 . S
O152 C145 1.226 . S
O153 Cd144 2.356 . S
O153 C151 1.282 . S
C154 O155 1.306 . S
C154 O157 1.160 . S
O155 C154 1.306 . S
O155 Cd156 2.228 . S
Cd156 O155 2.228 . S
Cd156 O160 2.273 . S
Cd156 O164 2.277 . S
O157 C154 1.160 . S
O157 Cd158 2.203 . S
Cd158 O157 2.203 . S
Cd158 O160 2.411 . S
Cd158 O161 2.333 . S
Cd158 O162 2.352 . S
Cd158 O166 2.277 . S
Cd158 O167 2.356 . S
C159 O164 1.209 . S
C159 O166 1.226 . S
O160 Cd156 2.273 . S
O160 Cd158 2.411 . S
O160 C163 1.320 . S
O161 Cd158 2.333 . S
O161 C163 1.214 . S
O162 Cd158 2.352 . S
O162 C165 1.258 . S
C163 O160 1.320 . S
C163 O161 1.214 . S
O164 Cd156 2.277 . S
O164 C159 1.209 . S
C165 O162 1.258 . S
C165 O167 1.282 . S
O166 Cd158 2.277 . S
O166 C159 1.226 . S
O167 Cd158 2.356 . S
O167 C165 1.282 . S
C168 O169 1.306 . S
C168 O171 1.160 . S
O169 C168 1.306 . S
O169 Cd170 2.228 1_565 S
Cd170 O169 2.228 1_545 S
Cd170 O174 2.273 . S
Cd170 O178 2.277 . S
O171 C168 1.160 . S
O171 Cd172 2.203 1_565 S
Cd172 O171 2.203 1_545 S
Cd172 O174 2.411 . S
Cd172 O175 2.333 . S
Cd172 O176 2.352 1_545 S
Cd172 O180 2.277 . S
Cd172 O181 2.356 . S
C173 O178 1.209 . S
C173 O180 1.226 . S
O174 Cd170 2.273 . S
O174 Cd172 2.411 . S
O174 C177 1.320 . S
O175 Cd172 2.333 . S
O175 C177 1.214 . S
O176 Cd172 2.352 1_565 S
O176 C179 1.258 1_565 S
C177 O174 1.320 . S
C177 O175 1.214 . S
O178 Cd170 2.277 . S
O178 C173 1.209 . S
C179 O176 1.258 1_545 S
C179 O181 1.282 . S
O180 Cd172 2.277 . S
O180 C173 1.226 . S
O181 Cd172 2.356 . S
O181 C179 1.282 . S
C182 O183 1.306 . S
C182 O185 1.160 1_655 S
O183 C182 1.306 . S
O183 Cd184 2.228 . S
Cd184 O183 2.228 . S
Cd184 O188 2.273 . S
Cd184 O192 2.277 . S
O185 C182 1.160 1_455 S
O185 Cd186 2.203 1_455 S
Cd186 O185 2.203 1_655 S
Cd186 O188 2.411 . S
Cd186 O189 2.333 . S
Cd186 O190 2.352 1_655 S
Cd186 O194 2.277 . S
Cd186 O195 2.356 1_655 S
C187 O192 1.209 . S
C187 O194 1.226 . S
O188 Cd184 2.273 . S
O188 Cd186 2.411 . S
O188 C191 1.320 . S
O189 Cd186 2.333 . S
O189 C191 1.214 . S
O190 Cd186 2.352 1_455 S
O190 C193 1.258 . S
C191 O188 1.320 . S
C191 O189 1.214 . S
O192 Cd184 2.277 . S
O192 C187 1.209 . S
C193 O190 1.258 . S
C193 O195 1.282 . S
O194 Cd186 2.277 . S
O194 C187 1.226 . S
O195 Cd186 2.356 1_455 S
O195 C193 1.282 . S
C196 O197 1.306 . S
C196 O199 1.160 . S
O197 C196 1.306 . S
O197 Cd198 2.228 . S
Cd198 O197 2.228 . S
Cd198 O202 2.273 . S
Cd198 O206 2.277 . S
O199 C196 1.160 . S
O199 Cd200 2.203 . S
Cd200 O199 2.203 . S
Cd200 O202 2.411 . S
Cd200 O203 2.333 . S
Cd200 O204 2.352 . S
Cd200 O208 2.277 . S
Cd200 O209 2.356 . S
C201 O206 1.209 . S
C201 O208 1.226 . S
O202 Cd198 2.273 . S
O202 Cd200 2.411 . S
O202 C205 1.320 . S
O203 Cd200 2.333 . S
O203 C205 1.214 . S
O204 Cd200 2.352 . S
O204 C207 1.258 . S
C205 O202 1.320 . S
C205 O203 1.214 . S
O206 Cd198 2.277 . S
O206 C201 1.209 . S
C207 O204 1.258 . S
C207 O209 1.282 . S
O208 Cd200 2.277 . S
O208 C201 1.226 . S
O209 Cd200 2.356 . S
O209 C207 1.282 . S
C210 O211 1.306 . S
C210 O213 1.160 . S
O211 C210 1.306 . S
O211 Cd212 2.228 . S
Cd212 O211 2.228 . S
Cd212 O216 2.273 . S
Cd212 O220 2.277 . S
O213 C210 1.160 . S
O213 Cd214 2.203 . S
Cd214 O213 2.203 . S
Cd214 O216 2.411 . S
Cd214 O217 2.333 . S
Cd214 O218 2.352 . S
Cd214 O222 2.277 . S
Cd214 O223 2.356 . S
C215 O220 1.209 . S
C215 O222 1.226 . S
O216 Cd212 2.273 . S
O216 Cd214 2.411 . S
O216 C219 1.320 . S
O217 Cd214 2.333 . S
O217 C219 1.214 . S
O218 Cd214 2.352 . S
O218 C221 1.258 . S
C219 O216 1.320 . S
C219 O217 1.214 . S
O220 Cd212 2.277 . S
O220 C215 1.209 . S
C221 O218 1.258 . S
C221 O223 1.282 . S
O222 Cd214 2.277 . S
O222 C215 1.226 . S
O223 Cd214 2.356 . S
O223 C221 1.282 . S
C224 O225 1.306 . S
C224 O227 1.160 1_545 S
O225 C224 1.306 . S
O225 Cd226 2.228 . S
Cd226 O225 2.228 . S
Cd226 O230 2.273 . S
Cd226 O234 2.277 . S
O227 C224 1.160 1_565 S
O227 Cd228 2.203 1_565 S
Cd228 O227 2.203 1_545 S
Cd228 O230 2.411 . S
Cd228 O231 2.333 . S
Cd228 O232 2.352 1_545 S
Cd228 O236 2.277 . S
Cd228 O237 2.356 1_545 S
C229 O234 1.209 . S
C229 O236 1.226 . S
O230 Cd226 2.273 . S
O230 Cd228 2.411 . S
O230 C233 1.320 . S
O231 Cd228 2.333 . S
O231 C233 1.214 . S
O232 Cd228 2.352 1_565 S
O232 C235 1.258 . S
C233 O230 1.320 . S
C233 O231 1.214 . S
O234 Cd226 2.277 . S
O234 C229 1.209 . S
C235 O232 1.258 . S
C235 O237 1.282 . S
O236 Cd228 2.277 . S
O236 C229 1.226 . S
O237 Cd228 2.356 1_565 S
O237 C235 1.282 . S
C238 O239 1.306 . S
C238 O241 1.160 . S
O239 C238 1.306 . S
O239 Cd240 2.228 1_455 S
Cd240 O239 2.228 1_655 S
Cd240 O244 2.273 . S
Cd240 O248 2.277 . S
O241 C238 1.160 . S
O241 Cd242 2.203 1_455 S
Cd242 O241 2.203 1_655 S
Cd242 O244 2.411 . S
Cd242 O245 2.333 . S
Cd242 O246 2.352 1_655 S
Cd242 O250 2.277 . S
Cd242 O251 2.356 . S
C243 O248 1.209 . S
C243 O250 1.226 . S
O244 Cd240 2.273 . S
O244 Cd242 2.411 . S
O244 C247 1.320 . S
O245 Cd242 2.333 . S
O245 C247 1.214 . S
O246 Cd242 2.352 1_455 S
O246 C249 1.259 1_455 S
C247 O244 1.320 . S
C247 O245 1.214 . S
O248 Cd240 2.277 . S
O248 C243 1.209 . S
C249 O246 1.259 1_655 S
C249 O251 1.299 . S
O250 Cd242 2.277 . S
O250 C243 1.226 . S
O251 Cd242 2.356 . S
O251 C249 1.299 . S
H252 C258 0.930 . S
H253 C261 0.931 . S
H254 C263 0.931 . S
H255 C265 0.930 . S
H256 C267 0.930 . S
H257 C269 0.931 . S
C258 H252 0.930 . S
C258 C259 1.380 . S
C258 C260 1.394 . S
C259 C258 1.380 . S
C259 C263 1.382 . S
C260 C258 1.394 . S
C260 C261 1.400 . S
C261 H253 0.931 . S
C261 C260 1.400 . S
C261 C262 1.375 . S
C262 C261 1.375 . S
C262 C263 1.415 . S
C262 C264 1.501 . S
C263 H254 0.931 . S
C263 C259 1.382 . S
C263 C262 1.415 . S
C264 C262 1.501 . S
C264 C265 1.384 . S
C264 C269 1.408 . S
C265 H255 0.930 . S
C265 C264 1.384 . S
C265 C266 1.389 . S
C266 C265 1.389 . S
C266 C267 1.405 . S
C267 H256 0.930 . S
C267 C266 1.405 . S
C267 C268 1.364 . S
C268 C267 1.364 . S
C268 C269 1.400 . S
C269 H257 0.931 . S
C269 C264 1.408 . S
C269 C268 1.400 . S
H270 C276 0.930 . S
H271 C279 0.931 . S
H272 C281 0.931 . S
H273 C283 0.930 . S
H274 C285 0.930 . S
H275 C287 0.931 . S
C276 H270 0.930 . S
C276 C277 1.380 . S
C276 C278 1.394 . S
C277 C276 1.380 . S
C277 C281 1.382 . S
C278 C276 1.394 . S
C278 C279 1.400 . S
C279 H271 0.931 . S
C279 C278 1.400 . S
C279 C280 1.375 . S
C280 C279 1.375 . S
C280 C281 1.415 . S
C280 C282 1.501 . S
C281 H272 0.931 . S
C281 C277 1.382 . S
C281 C280 1.415 . S
C282 C280 1.501 . S
C282 C283 1.384 . S
C282 C287 1.408 . S
C283 H273 0.930 . S
C283 C282 1.384 . S
C283 C284 1.389 . S
C284 C283 1.389 . S
C284 C285 1.405 . S
C285 H274 0.930 . S
C285 C284 1.405 . S
C285 C286 1.364 . S
C286 C285 1.364 . S
C286 C287 1.400 . S
C287 H275 0.931 . S
C287 C282 1.408 . S
C287 C286 1.400 . S
H288 C294 0.930 . S
H289 C297 0.931 . S
H290 C299 0.931 . S
H291 C301 0.930 . S
H292 C303 0.930 . S
H293 C305 0.931 . S
C294 H288 0.930 . S
C294 C295 1.380 . S
C294 C296 1.394 . S
C295 C294 1.380 . S
C295 C299 1.382 . S
C296 C294 1.394 . S
C296 C297 1.400 . S
C297 H289 0.931 . S
C297 C296 1.400 . S
C297 C298 1.375 . S
C298 C297 1.375 . S
C298 C299 1.415 . S
C298 C300 1.501 . S
C299 H290 0.931 . S
C299 C295 1.382 . S
C299 C298 1.415 . S
C300 C298 1.501 . S
C300 C301 1.384 . S
C300 C305 1.408 . S
C301 H291 0.930 . S
C301 C300 1.384 . S
C301 C302 1.389 . S
C302 C301 1.389 . S
C302 C303 1.405 . S
C303 H292 0.930 . S
C303 C302 1.405 . S
C303 C304 1.364 . S
C304 C303 1.364 . S
C304 C305 1.400 . S
C305 H293 0.931 . S
C305 C300 1.408 . S
C305 C304 1.400 . S
H306 C312 0.930 . S
H307 C315 0.931 . S
H308 C317 0.931 . S
H309 C319 0.930 . S
H310 C321 0.930 . S
H311 C323 0.931 . S
C312 H306 0.930 . S
C312 C313 1.380 . S
C312 C314 1.394 . S
C313 C312 1.380 . S
C313 C317 1.382 . S
C314 C312 1.394 . S
C314 C315 1.400 . S
C315 H307 0.931 . S
C315 C314 1.400 . S
C315 C316 1.375 . S
C316 C315 1.375 . S
C316 C317 1.415 . S
C316 C318 1.501 . S
C317 H308 0.931 . S
C317 C313 1.382 . S
C317 C316 1.415 . S
C318 C316 1.501 . S
C318 C319 1.384 . S
C318 C323 1.408 . S
C319 H309 0.930 . S
C319 C318 1.384 . S
C319 C320 1.389 . S
C320 C319 1.389 . S
C320 C321 1.405 . S
C321 H310 0.930 . S
C321 C320 1.405 . S
C321 C322 1.364 . S
C322 C321 1.364 . S
C322 C323 1.400 . S
C323 H311 0.931 . S
C323 C318 1.408 . S
C323 C322 1.400 . S
H324 C330 0.930 . S
H325 C333 0.931 . S
H326 C335 0.931 . S
H327 C337 0.930 . S
H328 C339 0.930 . S
H329 C341 0.931 . S
C330 H324 0.930 . S
C330 C331 1.380 . S
C330 C332 1.394 . S
C331 C330 1.380 . S
C331 C335 1.382 . S
C332 C330 1.394 . S
C332 C333 1.400 . S
C333 H325 0.931 . S
C333 C332 1.400 . S
C333 C334 1.375 . S
C334 C333 1.375 . S
C334 C335 1.415 . S
C334 C336 1.501 . S
C335 H326 0.931 . S
C335 C331 1.382 . S
C335 C334 1.415 . S
C336 C334 1.501 . S
C336 C337 1.384 . S
C336 C341 1.408 . S
C337 H327 0.930 . S
C337 C336 1.384 . S
C337 C338 1.389 . S
C338 C337 1.389 . S
C338 C339 1.405 . S
C339 H328 0.930 . S
C339 C338 1.405 . S
C339 C340 1.364 . S
C340 C339 1.364 . S
C340 C341 1.400 . S
C341 H329 0.931 . S
C341 C336 1.408 . S
C341 C340 1.400 . S
H342 C348 0.930 . S
H343 C351 0.931 . S
H344 C353 0.931 . S
H345 C355 0.930 . S
H346 C357 0.930 . S
H347 C359 0.931 . S
C348 H342 0.930 . S
C348 C349 1.380 . S
C348 C350 1.394 . S
C349 C348 1.380 . S
C349 C353 1.382 . S
C350 C348 1.394 . S
C350 C351 1.400 . S
C351 H343 0.931 . S
C351 C350 1.400 . S
C351 C352 1.375 . S
C352 C351 1.375 . S
C352 C353 1.415 . S
C352 C354 1.501 . S
C353 H344 0.931 . S
C353 C349 1.382 . S
C353 C352 1.415 . S
C354 C352 1.501 . S
C354 C355 1.384 . S
C354 C359 1.408 . S
C355 H345 0.930 . S
C355 C354 1.384 . S
C355 C356 1.389 . S
C356 C355 1.389 . S
C356 C357 1.405 . S
C357 H346 0.930 . S
C357 C356 1.405 . S
C357 C358 1.364 . S
C358 C357 1.364 . S
C358 C359 1.400 . S
C359 H347 0.931 . S
C359 C354 1.408 . S
C359 C358 1.400 . S
H360 C366 0.930 . S
H361 C369 0.931 . S
H362 C371 0.931 . S
H363 C373 0.930 . S
H364 C375 0.930 . S
H365 C377 0.931 . S
C366 H360 0.930 . S
C366 C367 1.380 . S
C366 C368 1.394 . S
C367 C366 1.380 . S
C367 C371 1.382 . S
C368 C366 1.394 . S
C368 C369 1.400 . S
C369 H361 0.931 . S
C369 C368 1.400 . S
C369 C370 1.375 . S
C370 C369 1.375 . S
C370 C371 1.415 . S
C370 C372 1.501 . S
C371 H362 0.931 . S
C371 C367 1.382 . S
C371 C370 1.415 . S
C372 C370 1.501 . S
C372 C373 1.384 . S
C372 C377 1.408 . S
C373 H363 0.930 . S
C373 C372 1.384 . S
C373 C374 1.389 . S
C374 C373 1.389 . S
C374 C375 1.405 . S
C375 H364 0.930 . S
C375 C374 1.405 . S
C375 C376 1.364 . S
C376 C375 1.364 . S
C376 C377 1.400 . S
C377 H365 0.931 . S
C377 C372 1.408 . S
C377 C376 1.400 . S
H378 C384 0.930 . S
H379 C387 0.931 . S
H380 C389 0.931 . S
H381 C391 0.930 . S
H382 C393 0.930 . S
H383 C395 0.931 . S
C384 H378 0.930 . S
C384 C385 1.380 . S
C384 C386 1.394 . S
C385 C384 1.380 . S
C385 C389 1.382 . S
C386 C384 1.394 . S
C386 C387 1.400 . S
C387 H379 0.931 . S
C387 C386 1.400 . S
C387 C388 1.375 . S
C388 C387 1.375 . S
C388 C389 1.415 . S
C388 C390 1.501 . S
C389 H380 0.931 . S
C389 C385 1.382 . S
C389 C388 1.415 . S
C390 C388 1.501 . S
C390 C391 1.384 . S
C390 C395 1.408 . S
C391 H381 0.930 . S
C391 C390 1.384 . S
C391 C392 1.389 . S
C392 C391 1.389 . S
C392 C393 1.405 . S
C393 H382 0.930 . S
C393 C392 1.405 . S
C393 C394 1.364 . S
C394 C393 1.364 . S
C394 C395 1.400 . S
C395 H383 0.931 . S
C395 C390 1.408 . S
C395 C394 1.400 . S
H396 C402 0.930 . S
H397 C405 0.931 . S
H398 C407 0.931 . S
H399 C409 0.930 . S
H400 C411 0.930 . S
H401 C413 0.931 . S
C402 H396 0.930 . S
C402 C403 1.380 . S
C402 C404 1.394 . S
C403 C402 1.380 . S
C403 C407 1.382 . S
C404 C402 1.394 . S
C404 C405 1.400 . S
C405 H397 0.931 . S
C405 C404 1.400 . S
C405 C406 1.375 . S
C406 C405 1.375 . S
C406 C407 1.415 . S
C406 C408 1.501 . S
C407 H398 0.931 . S
C407 C403 1.382 . S
C407 C406 1.415 . S
C408 C406 1.501 . S
C408 C409 1.384 . S
C408 C413 1.408 . S
C409 H399 0.930 . S
C409 C408 1.384 . S
C409 C410 1.389 . S
C410 C409 1.389 . S
C410 C411 1.405 . S
C411 H400 0.930 . S
C411 C410 1.405 . S
C411 C412 1.364 . S
C412 C411 1.364 . S
C412 C413 1.400 . S
C413 H401 0.931 . S
C413 C408 1.408 . S
C413 C412 1.400 . S
H414 C420 0.919 . S
H415 C423 0.931 . S
H416 C425 0.931 . S
H417 C427 0.930 . S
H418 C429 0.930 . S
H419 C431 0.928 . S
C420 H414 0.919 . S
C420 C421 1.390 . S
C420 C422 1.396 1_655 S
C421 C420 1.390 . S
C421 C425 1.382 . S
C422 C420 1.396 1_455 S
C422 C423 1.400 . S
C423 H415 0.931 . S
C423 C422 1.400 . S
C423 C424 1.375 . S
C424 C423 1.375 . S
C424 C425 1.415 1_455 S
C424 C426 1.501 . S
C425 H416 0.931 . S
C425 C421 1.382 . S
C425 C424 1.415 1_655 S
C426 C424 1.501 . S
C426 C427 1.384 . S
C426 C431 1.408 . S
C427 H417 0.930 . S
C427 C426 1.384 . S
C427 C428 1.389 . S
C428 C427 1.389 . S
C428 C429 1.405 . S
C429 H418 0.930 . S
C429 C428 1.405 . S
C429 C430 1.364 . S
C430 C429 1.364 . S
C430 C431 1.400 . S
C431 H419 0.928 . S
C431 C426 1.408 . S
C431 C430 1.400 . S
H432 C438 0.930 . S
H433 C441 0.931 . S
H434 C443 0.931 . S
H435 C445 0.930 . S
H436 C447 0.930 . S
H437 C449 0.931 . S
C438 H432 0.930 . S
C438 C439 1.380 . S
C438 C440 1.394 . S
C439 C438 1.380 . S
C439 C443 1.382 . S
C440 C438 1.394 . S
C440 C441 1.400 . S
C441 H433 0.931 . S
C441 C440 1.400 . S
C441 C442 1.375 . S
C442 C441 1.375 . S
C442 C443 1.415 . S
C442 C444 1.501 . S
C443 H434 0.931 . S
C443 C439 1.382 . S
C443 C442 1.415 . S
C444 C442 1.501 . S
C444 C445 1.384 . S
C444 C449 1.408 . S
C445 H435 0.930 . S
C445 C444 1.384 . S
C445 C446 1.389 . S
C446 C445 1.389 . S
C446 C447 1.405 . S
C447 H436 0.930 . S
C447 C446 1.405 . S
C447 C448 1.364 . S
C448 C447 1.364 . S
C448 C449 1.400 . S
C449 H437 0.931 . S
C449 C444 1.408 . S
C449 C448 1.400 . S
H450 C456 0.930 . S
H451 C459 0.931 . S
H452 C461 0.931 . S
H453 C463 0.930 . S
H454 C465 0.930 . S
H455 C467 0.933 . S
C456 H450 0.930 . S
C456 C457 1.380 . S
C456 C458 1.394 1_545 S
C457 C456 1.380 . S
C457 C461 1.382 . S
C458 C456 1.394 1_565 S
C458 C459 1.400 . S
C459 H451 0.931 . S
C459 C458 1.400 . S
C459 C460 1.375 . S
C460 C459 1.375 . S
C460 C461 1.415 1_565 S
C460 C462 1.501 . S
C461 H452 0.931 . S
C461 C457 1.382 . S
C461 C460 1.415 1_545 S
C462 C460 1.501 . S
C462 C463 1.384 . S
C462 C467 1.408 . S
C463 H453 0.930 . S
C463 C462 1.384 . S
C463 C464 1.389 . S
C464 C463 1.389 . S
C464 C465 1.405 . S
C465 H454 0.930 . S
C465 C464 1.405 . S
C465 C466 1.364 . S
C466 C465 1.364 . S
C466 C467 1.400 . S
C467 H455 0.933 . S
C467 C462 1.408 . S
C467 C466 1.400 . S
H468 C474 0.930 . S
H469 C477 0.931 . S
H470 C479 0.925 . S
H471 C481 0.930 . S
H472 C483 0.930 . S
H473 C485 0.931 . S
C474 H468 0.930 . S
C474 C475 1.373 . S
C474 C476 1.394 1_545 S
C475 C474 1.373 . S
C475 C479 1.408 1_545 S
C476 C474 1.394 1_565 S
C476 C477 1.400 . S
C477 H469 0.931 . S
C477 C476 1.400 . S
C477 C478 1.375 . S
C478 C477 1.375 . S
C478 C479 1.410 . S
C478 C480 1.501 . S
C479 H470 0.925 . S
C479 C475 1.408 1_565 S
C479 C478 1.410 . S
C480 C478 1.501 . S
C480 C481 1.384 . S
C480 C485 1.408 1_565 S
C481 H471 0.930 . S
C481 C480 1.384 . S
C481 C482 1.389 . S
C482 C481 1.389 . S
C482 C483 1.405 . S
C483 H472 0.930 . S
C483 C482 1.405 . S
C483 C484 1.364 1_565 S
C484 C483 1.364 1_545 S
C484 C485 1.400 . S
C485 H473 0.931 . S
C485 C480 1.408 1_545 S
C485 C484 1.400 . S
H486 C492 0.948 . S
H487 C495 0.931 . S
H488 C497 0.938 1_655 S
H489 C499 0.930 . S
H490 C501 0.930 . S
H491 C503 0.931 . S
C492 H486 0.948 . S
C492 C493 1.372 . S
C492 C494 1.385 1_655 S
C493 C492 1.372 . S
C493 C497 1.376 1_655 S
C494 C492 1.385 1_455 S
C494 C495 1.400 . S
C495 H487 0.931 . S
C495 C494 1.400 . S
C495 C496 1.375 . S
C496 C495 1.375 . S
C496 C497 1.418 . S
C496 C498 1.501 . S
C497 H488 0.938 1_455 S
C497 C493 1.376 1_455 S
C497 C496 1.418 . S
C498 C496 1.501 . S
C498 C499 1.384 . S
C498 C503 1.408 1_455 S
C499 H489 0.930 . S
C499 C498 1.384 . S
C499 C500 1.389 . S
C500 C499 1.389 . S
C500 C501 1.405 . S
C501 H490 0.930 . S
C501 C500 1.405 . S
C501 C502 1.364 1_455 S
C502 C501 1.364 1_655 S
C502 C503 1.400 . S
C503 H491 0.931 . S
C503 C498 1.408 1_655 S
C503 C502 1.400 . S
H504 C510 0.930 . S
H505 C513 0.931 . S
H506 C515 0.931 . S
H507 C517 0.930 . S
H508 C519 0.930 . S
H509 C521 0.931 . S
C510 H504 0.930 . S
C510 C511 1.380 . S
C510 C512 1.394 . S
C511 C510 1.380 . S
C511 C515 1.382 . S
C512 C510 1.394 . S
C512 C513 1.400 . S
C513 H505 0.931 . S
C513 C512 1.400 . S
C513 C514 1.375 . S
C514 C513 1.375 . S
C514 C515 1.415 . S
C514 C516 1.501 . S
C515 H506 0.931 . S
C515 C511 1.382 . S
C515 C514 1.415 . S
C516 C514 1.501 . S
C516 C517 1.384 . S
C516 C521 1.408 . S
C517 H507 0.930 . S
C517 C516 1.384 . S
C517 C518 1.389 . S
C518 C517 1.389 . S
C518 C519 1.405 . S
C519 H508 0.930 . S
C519 C518 1.405 . S
C519 C520 1.364 . S
C520 C519 1.364 . S
C520 C521 1.400 . S
C521 H509 0.931 . S
C521 C516 1.408 . S
C521 C520 1.400 . S
H522 C528 0.930 . S
H523 C531 0.931 . S
H524 C533 0.931 . S
H525 C535 0.930 . S
H526 C537 0.930 . S
H527 C539 0.931 . S
C528 H522 0.930 . S
C528 C529 1.380 . S
C528 C530 1.394 . S
C529 C528 1.380 . S
C529 C533 1.382 . S
C530 C528 1.394 . S
C530 C531 1.400 . S
C531 H523 0.931 . S
C531 C530 1.400 . S
C531 C532 1.375 . S
C532 C531 1.375 . S
C532 C533 1.415 . S
C532 C534 1.501 . S
C533 H524 0.931 . S
C533 C529 1.382 . S
C533 C532 1.415 . S
C534 C532 1.501 . S
C534 C535 1.384 . S
C534 C539 1.408 . S
C535 H525 0.930 . S
C535 C534 1.384 . S
C535 C536 1.389 . S
C536 C535 1.389 . S
C536 C537 1.405 . S
C537 H526 0.930 . S
C537 C536 1.405 . S
C537 C538 1.364 . S
C538 C537 1.364 . S
C538 C539 1.400 . S
C539 H527 0.931 . S
C539 C534 1.408 . S
C539 C538 1.400 . S
H540 C546 0.930 . S
H541 C549 0.931 . S
H542 C551 0.931 . S
H543 C553 0.930 . S
H544 C555 0.930 . S
H545 C557 0.931 . S
C546 H540 0.930 . S
C546 C547 1.380 . S
C546 C548 1.394 . S
C547 C546 1.380 . S
C547 C551 1.382 . S
C548 C546 1.394 . S
C548 C549 1.400 . S
C549 H541 0.931 . S
C549 C548 1.400 . S
C549 C550 1.375 . S
C550 C549 1.375 . S
C550 C551 1.415 . S
C550 C552 1.501 . S
C551 H542 0.931 . S
C551 C547 1.382 . S
C551 C550 1.415 . S
C552 C550 1.501 . S
C552 C553 1.384 . S
C552 C557 1.408 . S
C553 H543 0.930 . S
C553 C552 1.384 . S
C553 C554 1.389 . S
C554 C553 1.389 . S
C554 C555 1.405 . S
C555 H544 0.930 . S
C555 C554 1.405 . S
C555 C556 1.364 . S
C556 C555 1.364 . S
C556 C557 1.400 . S
C557 H545 0.931 . S
C557 C552 1.408 . S
C557 C556 1.400 . S
H558 C564 0.930 . S
H559 C567 0.931 . S
H560 C569 0.931 . S
H561 C571 0.930 . S
H562 C573 0.930 . S
H563 C575 0.931 . S
C564 H558 0.930 . S
C564 C565 1.380 . S
C564 C566 1.394 . S
C565 C564 1.380 . S
C565 C569 1.382 . S
C566 C564 1.394 . S
C566 C567 1.400 . S
C567 H559 0.931 . S
C567 C566 1.400 . S
C567 C568 1.375 . S
C568 C567 1.375 . S
C568 C569 1.415 . S
C568 C570 1.501 . S
C569 H560 0.931 . S
C569 C565 1.382 . S
C569 C568 1.415 . S
C570 C568 1.501 . S
C570 C571 1.384 . S
C570 C575 1.408 . S
C571 H561 0.930 . S
C571 C570 1.384 . S
C571 C572 1.389 . S
C572 C571 1.389 . S
C572 C573 1.405 . S
C573 H562 0.930 . S
C573 C572 1.405 . S
C573 C574 1.364 . S
C574 C573 1.364 . S
C574 C575 1.400 . S
C575 H563 0.931 . S
C575 C570 1.408 . S
C575 C574 1.400 . S
C9 C421 1.578 . S
C19 C446 1.683 . S
C457 C33 1.604 . S
C37 C482 1.639 . S
C5 C500 1.589 . S
C23 C511 1.717 . S
C47 C493 1.560 1_455 S
C518 C65 1.622 . S
C475 C75 1.541 1_545 S
C79 C464 1.547 1_545 S
C428 C51 1.600 1_455 S
C61 C439 1.621 . S
C93 C529 1.767 . S
C103 C554 1.757 . S
C565 C117 1.744 . S
C121 C266 1.767 . S
C89 C284 1.768 . S
C107 C295 1.769 . S
C131 C277 1.618 . S
C149 C302 1.659 . S
C259 C159 1.625 . S
C572 C163 1.649 . S
C536 C135 1.687 . S
C547 C145 1.680 . S
C177 C313 1.725 . S
C187 C338 1.729 . S
C201 C349 1.732 . S
C205 C374 1.808 . S
C392 C173 1.784 . S
C403 C191 1.798 . S
C385 C215 1.658 . S
C410 C233 1.683 . S
C243 C367 1.631 . S
C356 C247 1.606 . S
C219 C320 1.677 . S
C331 C229 1.667 . S
C268 C11 1.420 . S
C14 C286 1.384 . S
C296 C28 1.515 . S
C314 C39 1.516 . S
C340 C0 1.449 . S
C350 C25 1.312 . S
C42 C358 1.612 . S
C67 C322 1.459 . S
C70 C332 1.466 . S
C81 C278 1.473 . S
C304 C53 1.540 . S
C56 C260 1.568 . S
C376 C95 1.373 . S
C98 C394 1.425 . S
C112 C404 1.505 . S
C422 C123 1.395 . S
C84 C448 1.405 . S
C109 C458 1.332 . S
C126 C466 1.409 . S
C151 C430 1.357 . S
C440 C154 1.427 . S
C165 C386 1.429 . S
C137 C412 1.503 . S
C368 C140 1.594 . S
C484 C179 1.333 . S
C182 C502 1.315 . S
C196 C512 1.476 . S
C530 C207 1.465 . S
C556 C168 1.428 . S
C193 C566 1.374 . S
C210 C574 1.561 . S
C235 C538 1.496 . S
C548 C238 1.450 . S
C494 C249 1.289 1_455 S
C520 C221 1.477 . S
C224 C476 1.415 1_545 S
