# Generated by pormake.
# Topology pts, (4,4)-cn, num edge types: 1
# Building blocks:
#     Node 0, Type 0, BuildingBlock: NAHDIM_clean_linker_0, # of connection points: 4
#     Node 1, Type 0, BuildingBlock: NAHDIM_clean_linker_0, # of connection points: 4
#     Node 2, Type 1, BuildingBlock: AZAVOO_clean_sbu_0, # of connection points: 4
#     Node 3, Type 1, BuildingBlock: AZAVOO_clean_sbu_0, # of connection points: 4
#     Edge 4, Type (0, 1), BuildingBlock: FUNLAD_clean_linker_1, # of connection points: 2
#     Edge 5, Type (0, 1), BuildingBlock: FUNLAD_clean_linker_1, # of connection points: 2
#     Edge 6, Type (0, 1), BuildingBlock: FUNLAD_clean_linker_1, # of connection points: 2
#     Edge 7, Type (0, 1), BuildingBlock: FUNLAD_clean_linker_1, # of connection points: 2
#     Edge 8, Type (0, 1), BuildingBlock: FUNLAD_clean_linker_1, # of connection points: 2
#     Edge 9, Type (0, 1), BuildingBlock: FUNLAD_clean_linker_1, # of connection points: 2
#     Edge 10, Type (0, 1), BuildingBlock: FUNLAD_clean_linker_1, # of connection points: 2
#     Edge 11, Type (0, 1), BuildingBlock: FUNLAD_clean_linker_1, # of connection points: 2
# Relax obj value: 0.016
# Max RMSD: 0.067
# Mean RMSD: 0.062
data_MOF--net-pts--node1-AZAVOO_clean_sbu_0--node2-NAHDIM_clean_linker_0--edge1-FUNLAD_clean_linker_1
_symmetry_space_group_name_H-M    P1
_symmetry_Int_Tables_number       1
_symmetry_cell_setting            triclinic
loop_
_symmetry_equiv_pos_as_xyz
'x, y, z'
_cell_length_a     32.822252
_cell_length_b     33.390833
_cell_length_c     54.636815
_cell_angle_alpha  90.446583
_cell_angle_beta   95.632198
_cell_angle_gamma 89.934048
loop_
_atom_site_label
_atom_site_type_symbol
_atom_site_fract_x
_atom_site_fract_y
_atom_site_fract_z
_atom_type_partial_charge
C0 C 0.77061 0.10627 0.10431 0.0
C1 C 0.74849 0.08261 0.12297 0.0
C2 C 0.69445 0.04483 0.09818 0.0
C3 C 0.68241 0.00679 0.08946 0.0
C4 C 0.64504 0.00086 0.07506 0.0
C5 C 0.61897 0.03392 0.06934 0.0
C6 C 0.63089 0.07259 0.07803 0.0
C7 C 0.66859 0.07774 0.09223 0.0
C8 C 0.63334 0.95925 0.066 0.0
C9 C 0.60366 0.10847 0.07236 0.0
C10 C 0.33097 0.92066 0.09207 0.0
C11 C 0.35747 0.93755 0.11445 0.0
C12 C 0.40601 0.98204 0.09626 0.0
C13 C 0.4159 0.022 0.09231 0.0
C14 C 0.4487 0.03216 0.07891 0.0
C15 C 0.47225 0.00143 0.06923 0.0
C16 C 0.46277 0.96088 0.07331 0.0
C17 C 0.42974 0.95154 0.08675 0.0
C18 C 0.45804 0.07573 0.07493 0.0
C19 C 0.48745 0.92743 0.0633 0.0
C20 C 0.36283 0.02361 0.91378 0.0
C21 C 0.37614 0.05999 0.92505 0.0
C22 C 0.41597 0.06399 0.93675 0.0
C23 C 0.44308 0.03097 0.93737 0.0
C24 C 0.43024 0.9947 0.92549 0.0
C25 C 0.39031 0.99161 0.91375 0.0
C26 C 0.42886 0.10333 0.94893 0.0
C27 C 0.45841 0.95896 0.92575 0.0
C28 C 0.74964 0.1317 0.92256 0.0
C29 C 0.72878 0.09759 0.90723 0.0
C30 C 0.65621 0.09261 0.91296 0.0
C31 C 0.62613 0.1192 0.91939 0.0
C32 C 0.59329 0.10594 0.93182 0.0
C33 C 0.58993 0.06475 0.93726 0.0
C34 C 0.61928 0.03735 0.92969 0.0
C35 C 0.6523 0.05163 0.91772 0.0
C36 C 0.56249 0.13603 0.93942 0.0
C37 C 0.61585 0.99307 0.93438 0.0
C38 C 0.57886 0.02797 0.05465 0.0
C39 C 0.54536 0.01735 0.06716 0.0
C40 C 0.50657 0.01174 0.05463 0.0
C41 C 0.50084 0.01654 0.02883 0.0
C42 C 0.46227 0.01085 0.01564 0.0
C43 C 0.4568 0.01613 0.9903 0.0
C44 C 0.48964 0.02752 0.97715 0.0
C45 C 0.48411 0.03393 0.95146 0.0
C46 C 0.51745 0.04514 0.93895 0.0
C47 C 0.55635 0.05068 0.95146 0.0
C48 C 0.5624 0.04463 0.97718 0.0
C49 C 0.60096 0.05035 0.99043 0.0
C50 C 0.60655 0.0445 0.01573 0.0
C51 C 0.57367 0.03329 0.02886 0.0
C52 C 0.5345 0.02748 0.01592 0.0
C53 C 0.52889 0.03301 0.99004 0.0
C54 C 0.27561 0.04084 0.93031 0.0
C55 C 0.29052 0.04291 0.9046 0.0
O56 O 0.73105 0.04819 0.11214 0.0
O57 O 0.68788 0.10724 0.90154 0.0
O58 O 0.32392 0.01784 0.90312 0.0
O59 O 0.37337 0.97456 0.10911 0.0
H60 H 0.72466 0.10183 0.13019 0.0
H61 H 0.7486 0.11582 0.08873 0.0
H62 H 0.79467 0.08762 0.09687 0.0
H63 H 0.78502 0.13353 0.11315 0.0
H64 H 0.7025 0.98159 0.09403 0.0
H65 H 0.67739 0.10754 0.09852 0.0
H66 H 0.60504 0.94973 0.07393 0.0
H67 H 0.65783 0.93697 0.07106 0.0
H68 H 0.6266 0.95928 0.04568 0.0
H69 H 0.61664 0.13637 0.08116 0.0
H70 H 0.57308 0.10309 0.07879 0.0
H71 H 0.59912 0.11294 0.05217 0.0
H72 H 0.38262 0.9162 0.12006 0.0
H73 H 0.31779 0.8913 0.09659 0.0
H74 H 0.34962 0.916 0.07641 0.0
H75 H 0.30562 0.9416 0.08616 0.0
H76 H 0.39756 0.04534 0.09971 0.0
H77 H 0.42272 0.9204 0.08955 0.0
H78 H 0.48993 0.08246 0.08256 0.0
H79 H 0.43688 0.09609 0.08371 0.0
H80 H 0.45578 0.08201 0.05491 0.0
H81 H 0.47659 0.89737 0.06832 0.0
H82 H 0.52015 0.93063 0.07043 0.0
H83 H 0.48564 0.9294 0.04294 0.0
H84 H 0.29872 0.07441 0.90079 0.0
H85 H 0.35567 0.08536 0.92507 0.0
H86 H 0.38002 0.96375 0.9049 0.0
H87 H 0.43428 0.09918 0.96912 0.0
H88 H 0.40543 0.12711 0.94518 0.0
H89 H 0.45807 0.11358 0.9424 0.0
H90 H 0.4439 0.93289 0.91559 0.0
H91 H 0.4676 0.95002 0.94504 0.0
H92 H 0.48672 0.96707 0.91736 0.0
H93 H 0.73238 0.06965 0.91821 0.0
H94 H 0.78238 0.12456 0.92784 0.0
H95 H 0.7344 0.13603 0.93966 0.0
H96 H 0.7476 0.16012 0.91204 0.0
H97 H 0.62909 0.15067 0.91519 0.0
H98 H 0.67467 0.03074 0.91178 0.0
H99 H 0.55917 0.13332 0.95937 0.0
H100 H 0.53214 0.12975 0.92931 0.0
H101 H 0.57126 0.16732 0.93557 0.0
H102 H 0.63841 0.97528 0.92498 0.0
H103 H 0.58453 0.98236 0.92803 0.0
H104 H 0.6211 0.98749 0.95444 0.0
H105 H 0.54949 0.01365 0.08697 0.0
H106 H 0.43581 0.00231 0.02477 0.0
H107 H 0.4264 0.01133 0.98116 0.0
H108 H 0.51289 0.05036 0.9193 0.0
H109 H 0.62733 0.0594 0.98139 0.0
H110 H 0.63695 0.04918 0.02491 0.0
H111 H 0.24808 0.05998 0.93125 0.0
H112 H 0.29964 0.05175 0.94449 0.0
H113 H 0.26784 0.0095 0.93476 0.0
C114 C 0.17359 0.36625 0.65642 0.0
C115 C 0.13764 0.35586 0.63752 0.0
C116 C 0.13171 0.38632 0.59715 0.0
C117 C 0.08904 0.38837 0.5923 0.0
C118 C 0.0708 0.41688 0.57595 0.0
C119 C 0.09583 0.44421 0.56454 0.0
C120 C 0.139 0.44111 0.56874 0.0
C121 C 0.15638 0.41154 0.58466 0.0
C122 C 0.02473 0.41871 0.57155 0.0
C123 C 0.16672 0.47016 0.55736 0.0
C124 C 0.04779 0.64473 0.66522 0.0
C125 C 0.05309 0.67242 0.64356 0.0
C126 C 0.02793 0.63796 0.6057 0.0
C127 C 0.06321 0.63786 0.59314 0.0
C128 C 0.06876 0.60867 0.57518 0.0
C129 C 0.03813 0.57933 0.56949 0.0
C130 C 0.00144 0.58089 0.58105 0.0
C131 C 0.99666 0.61053 0.59892 0.0
C132 C 0.10792 0.60838 0.56282 0.0
C133 C 0.96796 0.55045 0.5751 0.0
C134 C 0.95966 0.65125 0.41299 0.0
C135 C 0.00071 0.65524 0.4226 0.0
C136 C 0.02204 0.62275 0.43388 0.0
C137 C 0.00151 0.58586 0.43609 0.0
C138 C 0.96041 0.58156 0.42583 0.0
C139 C 0.94025 0.61423 0.41403 0.0
C140 C 0.06641 0.62794 0.44354 0.0
C141 C 0.93761 0.54264 0.42763 0.0
C142 C 0.17927 0.32491 0.40955 0.0
C143 C 0.13535 0.33049 0.39792 0.0
C144 C 0.11151 0.39842 0.40286 0.0
C145 C 0.13198 0.43443 0.40845 0.0
C146 C 0.11479 0.46403 0.42264 0.0
C147 C 0.07567 0.45767 0.43079 0.0
C148 C 0.05393 0.42203 0.42406 0.0
C149 C 0.07226 0.39259 0.41027 0.0
C150 C 0.13872 0.50178 0.42931 0.0
C151 C 0.01159 0.41494 0.43166 0.0
C152 C 0.0768 0.47873 0.55074 0.0
C153 C 0.06461 0.51116 0.56458 0.0
C154 C 0.04644 0.54499 0.55332 0.0
C155 C 0.0392 0.54643 0.52743 0.0
C156 C 0.01931 0.57924 0.51556 0.0
C157 C 0.01302 0.5807 0.49002 0.0
C158 C 0.02745 0.54993 0.47537 0.0
C159 C 0.02272 0.55189 0.44937 0.0
C160 C 0.03828 0.52118 0.43544 0.0
C161 C 0.05802 0.48804 0.44671 0.0
C162 C 0.06205 0.48499 0.47265 0.0
C163 C 0.08077 0.45155 0.48462 0.0
C164 C 0.08476 0.44895 0.51016 0.0
C165 C 0.07145 0.48027 0.52475 0.0
C166 C 0.05245 0.51425 0.51308 0.0
C167 C 0.04718 0.51632 0.48701 0.0
C168 C 0.89594 0.72862 0.42107 0.0
C169 C 0.93777 0.7209 0.41185 0.0
O170 O 0.14977 0.36086 0.61414 0.0
O171 O 0.13017 0.36976 0.39025 0.0
O172 O 0.93826 0.68235 0.40227 0.0
O173 O 0.02329 0.66404 0.6244 0.0
H174 H 0.11199 0.37655 0.6408 0.0
H175 H 0.18327 0.39769 0.65388 0.0
H176 H 0.20004 0.34616 0.65422 0.0
H177 H 0.16453 0.3633 0.6754 0.0
H178 H 0.07006 0.36795 0.60151 0.0
H179 H 0.18934 0.40931 0.5884 0.0
H180 H 0.01355 0.44539 0.58113 0.0
H181 H 0.01 0.39167 0.57847 0.0
H182 H 0.015 0.42187 0.5516 0.0
H183 H 0.19955 0.46501 0.56357 0.0
H184 H 0.15865 0.50138 0.56215 0.0
H185 H 0.16241 0.46724 0.53703 0.0
H186 H 0.08439 0.6674 0.63804 0.0
H187 H 0.07102 0.65172 0.68085 0.0
H188 H 0.05197 0.61309 0.65955 0.0
H189 H 0.01671 0.64795 0.67143 0.0
H190 H 0.08656 0.6604 0.59743 0.0
H191 H 0.96915 0.61143 0.60838 0.0
H192 H 0.10074 0.60941 0.54255 0.0
H193 H 0.12488 0.58013 0.5672 0.0
H194 H 0.12816 0.63405 0.5687 0.0
H195 H 0.93984 0.55785 0.58399 0.0
H196 H 0.97901 0.52049 0.58147 0.0
H197 H 0.96013 0.54846 0.55489 0.0
H198 H 0.96122 0.72498 0.42782 0.0
H199 H 0.01624 0.68356 0.42106 0.0
H200 H 0.90874 0.61137 0.40618 0.0
H201 H 0.06919 0.6283 0.46394 0.0
H202 H 0.07948 0.65627 0.43719 0.0
H203 H 0.08491 0.60242 0.43759 0.0
H204 H 0.90483 0.54519 0.4205 0.0
H205 H 0.93958 0.53274 0.44707 0.0
H206 H 0.95201 0.51906 0.41691 0.0
H207 H 0.11433 0.32314 0.41208 0.0
H208 H 0.18399 0.29378 0.41629 0.0
H209 H 0.18535 0.3457 0.42546 0.0
H210 H 0.2015 0.3313 0.39599 0.0
H211 H 0.16207 0.43873 0.40231 0.0
H212 H 0.05597 0.36511 0.40517 0.0
H213 H 0.14236 0.50589 0.4496 0.0
H214 H 0.12161 0.52806 0.42133 0.0
H215 H 0.16954 0.5013 0.42253 0.0
H216 H 0.99732 0.38741 0.4231 0.0
H217 H 0.99156 0.44095 0.42645 0.0
H218 H 0.01326 0.41201 0.45195 0.0
H219 H 0.06993 0.5103 0.5845 0.0
H220 H 0.00819 0.60405 0.52593 0.0
H221 H 0.99722 0.60657 0.48191 0.0
H222 H 0.03518 0.52321 0.41553 0.0
H223 H 0.09238 0.42689 0.47436 0.0
H224 H 0.09905 0.42238 0.51837 0.0
H225 H 0.87121 0.72583 0.40572 0.0
H226 H 0.89488 0.75909 0.42932 0.0
H227 H 0.89032 0.70643 0.43541 0.0
Mg228 Mg 0.08162 0.98898 0.27825 0.0
O229 O 0.02295 0.99633 0.25217 0.0
O230 O 0.9695 0.99586 0.27459 0.0
Mg231 Mg 0.99397 0.98703 0.3149 0.0
C232 C 0.98455 0.99845 0.25398 0.0
C233 C 0.15273 0.98641 0.24613 0.0
O234 O 0.16274 0.95893 0.26274 0.0
O235 O 0.07638 0.05368 0.29149 0.0
O236 O 0.02462 0.04908 0.31519 0.0
O237 O 0.07687 0.92227 0.27532 0.0
O238 O 0.04965 0.95872 0.30347 0.0
C239 C 0.05262 0.06916 0.30618 0.0
C240 C 0.05523 0.92408 0.29385 0.0
O241 O 0.12 0.00633 0.24739 0.0
Mg242 Mg 0.9821 0.02005 0.73322 0.0
O243 O 0.04559 0.01253 0.75471 0.0
O244 O 0.08967 0.99442 0.72784 0.0
Mg245 Mg 0.05457 0.98993 0.6896 0.0
C246 C 0.08162 0.00314 0.74963 0.0
C247 C 0.91945 0.04401 0.76796 0.0
O248 O 0.89821 0.02369 0.75038 0.0
O249 O 0.00321 0.07922 0.71816 0.0
O250 O 0.04496 0.05839 0.69059 0.0
O251 O 0.9681 0.95576 0.73834 0.0
O252 O 0.99782 0.97913 0.70674 0.0
C253 C 0.02687 0.08632 0.70151 0.0
C254 C 0.98543 0.94884 0.71847 0.0
O255 O 0.95733 0.04995 0.76639 0.0
H256 H 0.33657 0.91903 0.15038 0.0
C257 C 0.33242 0.9415 0.13605 0.0
H258 H 0.29909 0.99256 0.12317 0.0
H259 H 0.18165 0.90619 0.2008 0.0
H260 H 0.17227 0.85336 0.17006 0.0
H261 H 0.20975 0.85449 0.13308 0.0
H262 H 0.25708 0.90821 0.12675 0.0
C263 C 0.30341 0.96973 0.13725 0.0
C264 C 0.27752 0.97111 0.15814 0.0
C265 C 0.24922 0.9399 0.16124 0.0
C266 C 0.22698 0.9397 0.1823 0.0
C267 C 0.19937 0.90786 0.18515 0.0
C268 C 0.19357 0.87739 0.16761 0.0
C269 C 0.21471 0.87799 0.14681 0.0
C270 C 0.24209 0.90887 0.14351 0.0
H271 H 0.16767 0.01443 0.21154 0.0
C272 C 0.17751 0.99221 0.22531 0.0
H273 H 0.21957 0.94597 0.23557 0.0
H274 H 0.32696 0.03682 0.15671 0.0
H275 H 0.33467 0.09081 0.18681 0.0
H276 H 0.29595 0.09053 0.22329 0.0
H277 H 0.2492 0.03631 0.2299 0.0
C278 C 0.21043 0.96934 0.22242 0.0
C279 C 0.23221 0.97122 0.19985 0.0
C280 C 0.25923 0.00327 0.19624 0.0
C281 C 0.28178 0.00329 0.17527 0.0
C282 C 0.30899 0.03536 0.17226 0.0
C283 C 0.31376 0.06651 0.18941 0.0
C284 C 0.29194 0.06636 0.20995 0.0
C285 C 0.26507 0.03512 0.21347 0.0
H286 H 0.13927 0.28947 0.63107 0.0
C287 C 0.12455 0.31315 0.64077 0.0
H288 H 0.08386 0.32718 0.66718 0.0
H289 H 0.99033 0.16084 0.65464 0.0
H290 H 0.94006 0.20479 0.63328 0.0
H291 H 0.95702 0.27508 0.6251 0.0
H292 H 0.02448 0.3018 0.63815 0.0
C293 C 0.09854 0.30366 0.65734 0.0
C294 C 0.08848 0.26134 0.66251 0.0
C295 C 0.04873 0.24639 0.65516 0.0
C296 C 0.0388 0.20598 0.66013 0.0
C297 C 0.99927 0.1915 0.65184 0.0
C298 C 0.97017 0.21636 0.63943 0.0
C299 C 0.97972 0.25593 0.63481 0.0
C300 C 0.01853 0.27091 0.64246 0.0
H301 H 0.01926 0.15194 0.7048 0.0
C302 C 0.03407 0.12843 0.69501 0.0
H303 H 0.07495 0.11526 0.66844 0.0
H304 H 0.16645 0.28152 0.68125 0.0
H305 H 0.21662 0.23766 0.70263 0.0
H306 H 0.19985 0.16723 0.71052 0.0
H307 H 0.13264 0.14038 0.69721 0.0
C308 C 0.05887 0.13833 0.67782 0.0
C309 C 0.06856 0.18079 0.67275 0.0
C310 C 0.10828 0.19579 0.68019 0.0
C311 C 0.11815 0.23622 0.6753 0.0
C312 C 0.15757 0.2508 0.68384 0.0
C313 C 0.18664 0.22599 0.6963 0.0
C314 C 0.17718 0.18636 0.70077 0.0
C315 C 0.13849 0.17131 0.69295 0.0
H316 H 0.77636 0.08855 0.16181 0.0
C317 C 0.77795 0.07166 0.14483 0.0
H318 H 0.80887 0.02624 0.1269 0.0
H319 H 0.9384 0.08282 0.22312 0.0
H320 H 0.94339 0.14516 0.20124 0.0
H321 H 0.90093 0.15707 0.16216 0.0
H322 H 0.85267 0.10696 0.14503 0.0
C323 C 0.80721 0.0437 0.14363 0.0
C324 C 0.83655 0.03465 0.16543 0.0
C325 C 0.86597 0.06354 0.17461 0.0
C326 C 0.89184 0.05588 0.19651 0.0
C327 C 0.91915 0.08628 0.20605 0.0
C328 C 0.92216 0.12238 0.19374 0.0
C329 C 0.89815 0.12915 0.1718 0.0
C330 C 0.87035 0.1002 0.16225 0.0
H331 H 0.97073 0.00776 0.21404 0.0
C332 C 0.95711 0.00537 0.23133 0.0
H333 H 0.90209 0.00689 0.24848 0.0
H334 H 0.78468 0.97235 0.15221 0.0
H335 H 0.78178 0.90867 0.17306 0.0
H336 H 0.82837 0.89438 0.2102 0.0
H337 H 0.87801 0.94375 0.2268 0.0
C338 C 0.91647 0.0102 0.23152 0.0
C339 C 0.88958 0.01855 0.20856 0.0
C340 C 0.86098 0.98925 0.19897 0.0
C341 C 0.83443 0.99731 0.1774 0.0
C342 C 0.80581 0.96768 0.16842 0.0
C343 C 0.80379 0.93101 0.18022 0.0
C344 C 0.83 0.92297 0.20114 0.0
C345 C 0.85831 0.95161 0.21049 0.0
H346 H 0.07845 0.73354 0.65217 0.0
C347 C 0.0506 0.71573 0.65115 0.0
H348 H 0.98775 0.71498 0.6563 0.0
H349 H 0.06439 0.87139 0.72275 0.0
H350 H 0.1029 0.82232 0.74802 0.0
H351 H 0.09989 0.7506 0.7368 0.0
H352 H 0.05918 0.72773 0.69996 0.0
C353 C 0.01595 0.73223 0.65777 0.0
C354 C 0.01471 0.77473 0.66603 0.0
C355 C 0.0371 0.78724 0.68832 0.0
C356 C 0.03697 0.82823 0.69556 0.0
C357 C 0.06178 0.84036 0.71701 0.0
C358 C 0.08432 0.81253 0.7316 0.0
C359 C 0.08277 0.77219 0.72522 0.0
C360 C 0.05948 0.75951 0.70389 0.0
H361 H 0.98112 0.88331 0.72143 0.0
C362 C 0.9918 0.90736 0.71037 0.0
H363 H 0.01855 0.92214 0.67801 0.0
H364 H 0.96887 0.76073 0.62219 0.0
H365 H 0.92813 0.80939 0.5978 0.0
H366 H 0.92504 0.87984 0.61141 0.0
H367 H 0.96291 0.90216 0.64938 0.0
C368 C 0.00923 0.89844 0.68977 0.0
C369 C 0.01247 0.85619 0.68127 0.0
C370 C 0.98988 0.84362 0.65908 0.0
C371 C 0.99112 0.80287 0.65142 0.0
C372 C 0.96865 0.79122 0.62904 0.0
C373 C 0.94517 0.81885 0.61483 0.0
C374 C 0.94346 0.85852 0.62248 0.0
C375 C 0.96544 0.87093 0.64433 0.0
H376 H 0.23277 0.01019 0.89074 0.0
C377 C 0.25649 0.03025 0.8855 0.0
H378 H 0.27789 0.06392 0.85698 0.0
H379 H 0.13693 0.9416 0.79951 0.0
H380 H 0.18299 0.88729 0.81253 0.0
H381 H 0.24642 0.90028 0.83953 0.0
H382 H 0.2638 0.96755 0.854 0.0
C383 C 0.25465 0.0434 0.86226 0.0
C384 C 0.21822 0.03542 0.84439 0.0
C385 C 0.20928 0.99609 0.83541 0.0
C386 C 0.17359 0.98886 0.81897 0.0
C387 C 0.16437 0.94903 0.81126 0.0
C388 C 0.19043 0.91752 0.81872 0.0
C389 C 0.22607 0.92481 0.83398 0.0
C390 C 0.23556 0.96356 0.84227 0.0
H391 H 0.14663 0.99812 0.7639 0.0
C392 C 0.1161 0.00425 0.76914 0.0
H393 H 0.08147 0.02222 0.79791 0.0
H394 H 0.22594 0.11426 0.8584 0.0
H395 H 0.18117 0.16883 0.84426 0.0
H396 H 0.12097 0.15674 0.81443 0.0
H397 H 0.10498 0.08997 0.79873 0.0
C398 C 0.11154 0.01455 0.79254 0.0
C399 C 0.1478 0.0212 0.81078 0.0
C400 C 0.15692 0.06054 0.81964 0.0
C401 C 0.19206 0.06762 0.8365 0.0
C402 C 0.20004 0.10717 0.8453 0.0
C403 C 0.17453 0.13882 0.83737 0.0
C404 C 0.14061 0.13201 0.82061 0.0
C405 C 0.13176 0.09344 0.81178 0.0
H406 H 0.1344 0.31215 0.3582 0.0
C407 C 0.12699 0.30255 0.37622 0.0
H408 H 0.10969 0.25454 0.39767 0.0
H409 H 0.03687 0.18226 0.2898 0.0
H410 H 0.98907 0.2381 0.2878 0.0
H411 H 0.99643 0.29256 0.31871 0.0
H412 H 0.05178 0.29185 0.35158 0.0
C413 C 0.11443 0.26486 0.37934 0.0
C414 C 0.11166 0.2347 0.3591 0.0
C415 C 0.07883 0.23554 0.3402 0.0
C416 C 0.07381 0.20355 0.32282 0.0
C417 C 0.04127 0.2053 0.30385 0.0
C418 C 0.01382 0.23724 0.30242 0.0
C419 C 0.01803 0.26796 0.3198 0.0
C420 C 0.05003 0.26724 0.33854 0.0
H421 H 0.03837 0.1221 0.32786 0.0
C422 C 0.05899 0.11072 0.31501 0.0
H423 H 0.11326 0.12168 0.29834 0.0
H424 H 0.18065 0.22661 0.39111 0.0
H425 H 0.22887 0.17136 0.39264 0.0
H426 H 0.21919 0.11504 0.36315 0.0
H427 H 0.16143 0.11372 0.33192 0.0
C428 C 0.09119 0.13312 0.31023 0.0
C429 C 0.10094 0.17039 0.32479 0.0
C430 C 0.13528 0.17089 0.34268 0.0
C431 C 0.1406 0.20308 0.35987 0.0
C432 C 0.17487 0.20265 0.37778 0.0
C433 C 0.20285 0.17118 0.37883 0.0
C434 C 0.19742 0.13949 0.36222 0.0
C435 C 0.16407 0.13913 0.34436 0.0
H436 H 0.7335 0.10315 0.86666 0.0
C437 C 0.74878 0.09175 0.88376 0.0
H438 H 0.80093 0.06262 0.90079 0.0
H439 H 0.8505 0.97679 0.80492 0.0
H440 H 0.82776 0.92054 0.82781 0.0
H441 H 0.79434 0.93126 0.86584 0.0
H442 H 0.78369 0.99832 0.88129 0.0
C443 C 0.78583 0.07456 0.8838 0.0
C444 C 0.80579 0.06861 0.86072 0.0
C445 C 0.8115 0.02922 0.85183 0.0
C446 C 0.83013 0.02309 0.82967 0.0
C447 C 0.83593 0.98332 0.82142 0.0
C448 C 0.82313 0.95069 0.83443 0.0
C449 C 0.80437 0.95672 0.85585 0.0
C450 C 0.79852 0.99542 0.86454 0.0
H451 H 0.91971 0.07065 0.80519 0.0
C452 C 0.90049 0.05666 0.79019 0.0
H453 H 0.84187 0.03406 0.77808 0.0
H454 H 0.80428 0.14782 0.87423 0.0
H455 H 0.82508 0.20423 0.85073 0.0
H456 H 0.85275 0.19384 0.81078 0.0
H457 H 0.86052 0.12693 0.79434 0.0
C458 C 0.86084 0.04929 0.7927 0.0
C459 C 0.8428 0.05637 0.81633 0.0
C460 C 0.83711 0.09582 0.82521 0.0
C461 C 0.81938 0.1019 0.84771 0.0
C462 C 0.81601 0.1415 0.85679 0.0
C463 C 0.82809 0.17417 0.84356 0.0
C464 C 0.8438 0.16831 0.82111 0.0
C465 C 0.8483 0.12969 0.81195 0.0
H466 H 0.92675 0.77726 0.38991 0.0
C467 C 0.94631 0.75099 0.39253 0.0
H468 H 0.00113 0.72378 0.38385 0.0
H469 H 0.95835 0.86246 0.29697 0.0
H470 H 0.90174 0.81928 0.28202 0.0
H471 H 0.88646 0.75814 0.30449 0.0
H472 H 0.92744 0.74005 0.34222 0.0
C473 C 0.97992 0.74856 0.38044 0.0
C474 C 0.99187 0.78235 0.36507 0.0
C475 C 0.96839 0.79179 0.34266 0.0
C476 C 0.97798 0.82639 0.32931 0.0
C477 C 0.95305 0.83602 0.30752 0.0
C478 C 0.92037 0.81157 0.29878 0.0
C479 C 0.9117 0.77719 0.31146 0.0
C480 C 0.93532 0.76726 0.33316 0.0
H481 H 0.04392 0.85891 0.29512 0.0
C482 C 0.03872 0.88742 0.30404 0.0
H483 H 0.01759 0.91639 0.33486 0.0
H484 H 0.04429 0.77157 0.40674 0.0
H485 H 0.10241 0.81329 0.42085 0.0
H486 H 0.12002 0.87237 0.3972 0.0
H487 H 0.07951 0.89017 0.35934 0.0
C488 C 0.02093 0.88822 0.32516 0.0
C489 C 0.01162 0.85085 0.33812 0.0
C490 C 0.03596 0.84057 0.36006 0.0
C491 C 0.0261 0.80626 0.37354 0.0
C492 C 0.05056 0.79709 0.39562 0.0
C493 C 0.08403 0.82081 0.40397 0.0
C494 C 0.09392 0.85409 0.39067 0.0
C495 C 0.07031 0.86401 0.36898 0.0
loop_
_geom_bond_atom_site_label_1
_geom_bond_atom_site_label_2
_geom_bond_distance
_geom_bond_site_symmetry_2
_ccdc_geom_bond_type
C0 C1 1.560 . S
C0 H61 0.959 . S
C0 H62 0.959 . S
C0 H63 0.960 . S
C1 C0 1.560 . S
C1 O56 1.426 . S
C1 H60 0.980 . S
C2 C3 1.407 1_545 S
C2 C7 1.418 . S
C2 O56 1.334 . S
C3 C2 1.407 1_565 S
C3 C4 1.360 . S
C3 H64 0.929 . S
C4 C3 1.360 . S
C4 C5 1.401 1_565 S
C4 C8 1.527 . S
C5 C4 1.401 1_545 S
C5 C6 1.405 . S
C5 C38 1.587 1_545 S
C6 C5 1.405 . S
C6 C7 1.332 . S
C6 C9 1.496 . S
C7 C2 1.418 . S
C7 C6 1.332 . S
C7 H65 0.929 . S
C8 C4 1.527 . S
C8 H66 0.959 . S
C8 H67 0.961 . S
C8 H68 0.961 . S
C9 C6 1.496 . S
C9 H69 0.960 . S
C9 H70 0.960 . S
C9 H71 0.961 . S
C10 C11 1.517 . S
C10 H73 0.945 1_565 S
C10 H74 0.960 . S
C10 H75 0.959 . S
C11 C10 1.517 . S
C11 O59 1.468 . S
C11 H72 0.980 1_565 S
C12 C13 1.338 1_565 S
C12 C17 1.367 . S
C12 O59 1.408 . S
C13 C12 1.338 1_545 S
C13 C14 1.410 . S
C13 H76 0.939 . S
C14 C13 1.410 . S
C14 C15 1.449 1_545 S
C14 C18 1.535 . S
C15 C14 1.449 1_565 S
C15 C16 1.384 . S
C15 C40 1.553 . S
C16 C15 1.384 . S
C16 C17 1.364 . S
C16 C19 1.450 . S
C17 C12 1.367 . S
C17 C16 1.364 . S
C17 H77 0.931 . S
C18 C14 1.535 . S
C18 H78 0.959 . S
C18 H79 0.961 . S
C18 H80 0.959 . S
C19 C16 1.450 . S
C19 H81 0.960 . S
C19 H82 0.960 . S
C19 H83 0.960 . S
C20 C21 1.309 1_565 S
C20 C25 1.304 . S
C20 O58 1.435 . S
C21 C20 1.309 1_545 S
C21 C22 1.476 . S
C21 H85 0.930 . S
C22 C21 1.476 . S
C22 C23 1.400 1_545 S
C22 C26 1.567 . S
C23 C22 1.400 1_565 S
C23 C24 1.373 . S
C23 C45 1.432 . S
C24 C23 1.373 . S
C24 C25 1.339 . S
C24 C27 1.530 . S
C25 C20 1.304 . S
C25 C24 1.339 . S
C25 H86 0.930 . S
C26 C22 1.567 . S
C26 H87 0.961 . S
C26 H88 0.960 . S
C26 H89 0.958 . S
C27 C24 1.530 . S
C27 H90 0.961 . S
C27 H91 0.960 . S
C27 H92 0.960 . S
C28 C29 1.530 . S
C28 H94 0.961 . S
C28 H95 0.961 . S
C28 H96 0.959 . S
C29 C28 1.530 . S
C29 O57 1.412 . S
C29 H93 0.980 . S
C30 C31 1.288 . S
C30 C35 1.377 1_545 S
C30 O57 1.393 . S
C31 C30 1.288 . S
C31 C32 1.369 . S
C31 H97 0.932 . S
C32 C31 1.369 . S
C32 C33 1.398 . S
C32 C36 1.527 . S
C33 C32 1.398 . S
C33 C34 1.380 1_545 S
C33 C47 1.497 . S
C34 C33 1.380 1_565 S
C34 C35 1.383 . S
C34 C37 1.603 . S
C35 C30 1.377 1_565 S
C35 C34 1.383 . S
C35 H98 0.929 . S
C36 C32 1.527 . S
C36 H99 0.961 . S
C36 H100 0.959 . S
C36 H101 0.959 . S
C37 C34 1.603 . S
C37 H102 0.960 . S
C37 H103 0.962 . S
C37 H104 0.961 . S
C38 C5 1.587 1_565 S
C38 C39 1.360 . S
C38 C51 1.412 . S
C39 C38 1.360 . S
C39 C40 1.365 . S
C39 H105 0.929 . S
C40 C15 1.553 . S
C40 C39 1.365 . S
C40 C41 1.404 . S
C41 C40 1.404 . S
C41 C42 1.395 . S
C41 C52 1.451 . S
C42 C41 1.395 . S
C42 C43 1.322 1_554 S
C42 H106 0.930 . S
C43 C42 1.322 1_556 S
C43 C44 1.459 . S
C43 H107 0.929 . S
C44 C43 1.459 . S
C44 C45 1.445 . S
C44 C53 1.395 . S
C45 C23 1.432 . S
C45 C44 1.445 . S
C45 C46 1.370 . S
C46 C45 1.370 . S
C46 C47 1.438 1_565 S
C46 H108 0.930 . S
C47 C33 1.497 . S
C47 C46 1.438 1_545 S
C47 C48 1.360 1_545 S
C48 C47 1.360 1_565 S
C48 C49 1.401 1_565 S
C48 C53 1.446 . S
C49 C48 1.401 1_545 S
C49 C50 1.347 1_556 S
C49 H109 0.929 . S
C50 C49 1.347 1_554 S
C50 C51 1.455 1_545 S
C50 H110 0.930 . S
C51 C38 1.412 . S
C51 C50 1.455 1_565 S
C51 C52 1.331 . S
C52 C41 1.451 . S
C52 C51 1.331 . S
C52 C53 1.497 1_554 S
C53 C44 1.395 . S
C53 C48 1.446 . S
C53 C52 1.497 1_556 S
C54 C55 1.576 1_565 S
C54 H111 0.962 . S
C54 H112 0.959 . S
C54 H113 0.958 . S
C55 C54 1.576 1_545 S
C55 O58 1.450 1_545 S
C55 H84 0.983 . S
O56 C1 1.426 . S
O56 C2 1.334 . S
O57 C29 1.412 . S
O57 C30 1.393 . S
O58 C20 1.435 . S
O58 C55 1.450 1_565 S
O59 C11 1.468 . S
O59 C12 1.408 . S
H60 C1 0.980 . S
H61 C0 0.959 . S
H62 C0 0.959 . S
H63 C0 0.960 . S
H64 C3 0.929 . S
H65 C7 0.929 . S
H66 C8 0.959 . S
H67 C8 0.961 . S
H68 C8 0.961 . S
H69 C9 0.960 . S
H70 C9 0.960 . S
H71 C9 0.961 . S
H72 C11 0.980 1_545 S
H73 C10 0.945 1_545 S
H74 C10 0.960 . S
H75 C10 0.959 . S
H76 C13 0.939 . S
H77 C17 0.931 . S
H78 C18 0.959 . S
H79 C18 0.961 . S
H80 C18 0.959 . S
H81 C19 0.960 . S
H82 C19 0.960 . S
H83 C19 0.960 . S
H84 C55 0.983 . S
H85 C21 0.930 . S
H86 C25 0.930 . S
H87 C26 0.961 . S
H88 C26 0.960 . S
H89 C26 0.958 . S
H90 C27 0.961 . S
H91 C27 0.960 . S
H92 C27 0.960 . S
H93 C29 0.980 . S
H94 C28 0.961 . S
H95 C28 0.961 . S
H96 C28 0.959 . S
H97 C31 0.932 . S
H98 C35 0.929 . S
H99 C36 0.961 . S
H100 C36 0.959 . S
H101 C36 0.959 . S
H102 C37 0.960 . S
H103 C37 0.962 . S
H104 C37 0.961 . S
H105 C39 0.929 . S
H106 C42 0.930 . S
H107 C43 0.929 . S
H108 C46 0.930 . S
H109 C49 0.929 . S
H110 C50 0.930 . S
H111 C54 0.962 . S
H112 C54 0.959 . S
H113 C54 0.958 . S
C114 C115 1.560 . S
C114 H175 0.959 . S
C114 H176 0.959 . S
C114 H177 0.960 . S
C115 C114 1.560 . S
C115 O170 1.426 . S
C115 H174 0.980 . S
C116 C117 1.407 . S
C116 C121 1.418 . S
C116 O170 1.334 . S
C117 C116 1.407 . S
C117 C118 1.360 . S
C117 H178 0.929 1_455 S
C118 C117 1.360 . S
C118 C119 1.401 . S
C118 C122 1.527 1_455 S
C119 C118 1.401 . S
C119 C120 1.405 . S
C119 C152 1.587 . S
C120 C119 1.405 . S
C120 C121 1.332 . S
C120 C123 1.496 . S
C121 C116 1.418 . S
C121 C120 1.332 . S
C121 H179 0.929 . S
C122 C118 1.527 1_655 S
C122 H180 0.959 . S
C122 H181 0.961 . S
C122 H182 0.961 . S
C123 C120 1.496 . S
C123 H183 0.960 . S
C123 H184 0.960 . S
C123 H185 0.961 . S
C124 C125 1.517 1_655 S
C124 H187 0.961 1_655 S
C124 H188 0.960 . S
C124 H189 0.959 . S
C125 C124 1.517 1_455 S
C125 O173 1.468 1_455 S
C125 H186 0.980 . S
C126 C127 1.349 1_655 S
C126 C131 1.367 . S
C126 O173 1.408 . S
C127 C126 1.349 1_455 S
C127 C128 1.407 . S
C127 H190 0.930 . S
C128 C127 1.407 . S
C128 C129 1.449 1_455 S
C128 C132 1.535 . S
C129 C128 1.449 1_655 S
C129 C130 1.384 . S
C129 C154 1.553 1_655 S
C130 C129 1.384 . S
C130 C131 1.364 . S
C130 C133 1.450 . S
C131 C126 1.367 . S
C131 C130 1.364 . S
C131 H191 0.931 . S
C132 C128 1.535 . S
C132 H192 0.959 . S
C132 H193 0.961 . S
C132 H194 0.959 . S
C133 C130 1.450 . S
C133 H195 0.960 . S
C133 H196 0.960 . S
C133 H197 0.960 . S
C134 C135 1.309 . S
C134 C139 1.304 1_455 S
C134 O172 1.435 . S
C135 C134 1.309 . S
C135 C136 1.476 . S
C135 H199 0.930 . S
C136 C135 1.476 . S
C136 C137 1.400 . S
C136 C140 1.567 . S
C137 C136 1.400 . S
C137 C138 1.373 1_455 S
C137 C159 1.432 . S
C138 C137 1.373 1_655 S
C138 C139 1.339 . S
C138 C141 1.530 . S
C139 C134 1.304 1_655 S
C139 C138 1.339 . S
C139 H200 0.930 . S
C140 C136 1.567 . S
C140 H201 0.961 . S
C140 H202 0.960 . S
C140 H203 0.958 . S
C141 C138 1.530 . S
C141 H204 0.961 . S
C141 H205 0.960 . S
C141 H206 0.960 . S
C142 C143 1.530 . S
C142 H208 0.961 . S
C142 H209 0.961 . S
C142 H210 0.959 . S
C143 C142 1.530 . S
C143 O171 1.412 . S
C143 H207 0.980 . S
C144 C145 1.288 . S
C144 C149 1.377 . S
C144 O171 1.393 . S
C145 C144 1.288 . S
C145 C146 1.369 . S
C145 H211 0.932 . S
C146 C145 1.369 . S
C146 C147 1.398 . S
C146 C150 1.527 . S
C147 C146 1.398 . S
C147 C148 1.380 . S
C147 C161 1.497 . S
C148 C147 1.380 . S
C148 C149 1.383 . S
C148 C151 1.603 1_455 S
C149 C144 1.377 . S
C149 C148 1.383 . S
C149 H212 0.929 . S
C150 C146 1.527 . S
C150 H213 0.961 . S
C150 H214 0.959 . S
C150 H215 0.959 . S
C151 C148 1.603 1_655 S
C151 H216 0.960 . S
C151 H217 0.962 . S
C151 H218 0.961 . S
C152 C119 1.587 . S
C152 C153 1.360 . S
C152 C165 1.412 . S
C153 C152 1.360 . S
C153 C154 1.365 . S
C153 H219 0.929 . S
C154 C129 1.553 1_455 S
C154 C153 1.365 . S
C154 C155 1.404 . S
C155 C154 1.404 . S
C155 C156 1.395 . S
C155 C166 1.451 . S
C156 C155 1.395 . S
C156 C157 1.322 . S
C156 H220 0.930 . S
C157 C156 1.322 . S
C157 C158 1.459 . S
C157 H221 0.929 . S
C158 C157 1.459 . S
C158 C159 1.445 . S
C158 C167 1.395 . S
C159 C137 1.432 . S
C159 C158 1.445 . S
C159 C160 1.370 . S
C160 C159 1.370 . S
C160 C161 1.438 . S
C160 H222 0.930 . S
C161 C147 1.497 . S
C161 C160 1.438 . S
C161 C162 1.360 . S
C162 C161 1.360 . S
C162 C163 1.401 . S
C162 C167 1.446 . S
C163 C162 1.401 . S
C163 C164 1.347 . S
C163 H223 0.929 . S
C164 C163 1.347 . S
C164 C165 1.455 . S
C164 H224 0.930 . S
C165 C152 1.412 . S
C165 C164 1.455 . S
C165 C166 1.331 . S
C166 C155 1.451 . S
C166 C165 1.331 . S
C166 C167 1.497 . S
C167 C158 1.395 . S
C167 C162 1.446 . S
C167 C166 1.497 . S
C168 C169 1.582 . S
C168 H225 0.962 . S
C168 H226 0.959 . S
C168 H227 0.958 . S
C169 C168 1.582 . S
C169 O172 1.458 . S
C169 H198 0.980 . S
O170 C115 1.426 . S
O170 C116 1.334 . S
O171 C143 1.412 . S
O171 C144 1.393 . S
O172 C134 1.435 . S
O172 C169 1.458 . S
O173 C125 1.468 1_655 S
O173 C126 1.408 . S
H174 C115 0.980 . S
H175 C114 0.959 . S
H176 C114 0.959 . S
H177 C114 0.960 . S
H178 C117 0.929 1_655 S
H179 C121 0.929 . S
H180 C122 0.959 . S
H181 C122 0.961 . S
H182 C122 0.961 . S
H183 C123 0.960 . S
H184 C123 0.960 . S
H185 C123 0.961 . S
H186 C125 0.980 . S
H187 C124 0.961 1_455 S
H188 C124 0.960 . S
H189 C124 0.959 . S
H190 C127 0.930 . S
H191 C131 0.931 . S
H192 C132 0.959 . S
H193 C132 0.961 . S
H194 C132 0.959 . S
H195 C133 0.960 . S
H196 C133 0.960 . S
H197 C133 0.960 . S
H198 C169 0.980 . S
H199 C135 0.930 . S
H200 C139 0.930 . S
H201 C140 0.961 . S
H202 C140 0.960 . S
H203 C140 0.958 . S
H204 C141 0.961 . S
H205 C141 0.960 . S
H206 C141 0.960 . S
H207 C143 0.980 . S
H208 C142 0.961 . S
H209 C142 0.961 . S
H210 C142 0.959 . S
H211 C145 0.932 . S
H212 C149 0.929 . S
H213 C150 0.961 . S
H214 C150 0.959 . S
H215 C150 0.959 . S
H216 C151 0.960 . S
H217 C151 0.962 . S
H218 C151 0.961 . S
H219 C153 0.929 . S
H220 C156 0.930 . S
H221 C157 0.929 . S
H222 C160 0.930 . S
H223 C163 0.929 . S
H224 C164 0.930 . S
H225 C168 0.962 . S
H226 C168 0.959 . S
H227 C168 0.958 . S
Mg228 O229 2.028 . S
Mg228 O235 1.986 . S
Mg228 O237 2.114 1_545 S
Mg228 O238 2.251 1_545 S
Mg228 O241 2.010 . S
O229 Mg228 2.028 . S
O229 C232 1.250 . S
O230 Mg231 2.028 1_655 S
O230 C232 1.248 1_655 S
Mg231 O230 2.028 1_455 S
Mg231 O236 2.032 . S
Mg231 O238 2.079 1_545 S
C232 O229 1.250 . S
C232 O230 1.248 1_455 S
C233 O234 1.264 . S
C233 O241 1.249 . S
O234 C233 1.264 . S
O235 Mg228 1.986 . S
O235 C239 1.246 . S
O236 Mg231 2.032 . S
O236 C239 1.259 . S
O237 Mg228 2.114 1_565 S
O237 C240 1.252 . S
O238 Mg228 2.251 1_565 S
O238 Mg231 2.079 1_565 S
O238 C240 1.273 . S
C239 O235 1.246 . S
C239 O236 1.259 . S
C240 O237 1.252 . S
C240 O238 1.273 . S
O241 Mg228 2.010 . S
O241 C233 1.249 . S
Mg242 O243 2.028 1_655 S
Mg242 O249 1.990 . S
Mg242 O251 2.114 1_545 S
Mg242 O252 2.251 1_645 S
Mg242 O255 2.010 . S
O243 Mg242 2.028 1_455 S
O243 C246 1.250 . S
O244 Mg245 2.028 . S
O244 C246 1.248 . S
Mg245 O244 2.028 . S
Mg245 O250 2.032 . S
Mg245 O252 2.079 1_545 S
C246 O243 1.250 . S
C246 O244 1.248 . S
C247 O248 1.264 . S
C247 O255 1.249 . S
O248 C247 1.264 . S
O249 Mg242 1.990 . S
O249 C253 1.226 1_655 S
O250 Mg245 2.032 . S
O250 C253 1.259 . S
O251 Mg242 2.114 1_565 S
O251 C254 1.252 1_655 S
O252 Mg242 2.251 1_465 S
O252 Mg245 2.079 1_565 S
O252 C254 1.273 . S
C253 O249 1.226 1_455 S
C253 O250 1.259 . S
C254 O251 1.252 1_455 S
C254 O252 1.273 . S
O255 Mg242 2.010 . S
O255 C247 1.249 . S
H256 C257 0.951 . S
C257 H256 0.951 . S
C257 C263 1.265 . S
H258 C263 0.950 . S
H259 C267 0.949 . S
H260 C268 0.950 . S
H261 C269 0.951 . S
H262 C270 0.951 . S
C263 C257 1.265 . S
C263 H258 0.950 . S
C263 C264 1.478 . S
C264 C263 1.478 . S
C264 C265 1.397 1_545 S
C264 C281 1.394 . S
C265 C264 1.397 1_565 S
C265 C266 1.438 . S
C265 C270 1.429 . S
C266 C265 1.438 . S
C266 C267 1.428 . S
C266 C279 1.394 1_565 S
C267 H259 0.949 . S
C267 C266 1.428 . S
C267 C268 1.345 . S
C268 H260 0.950 . S
C268 C267 1.345 . S
C268 C269 1.424 . S
C269 H261 0.951 . S
C269 C268 1.424 . S
C269 C270 1.347 . S
C270 H262 0.951 . S
C270 C265 1.429 . S
C270 C269 1.347 . S
H271 C272 0.951 . S
C272 H271 0.951 . S
C272 C278 1.265 . S
H273 C278 0.950 . S
H274 C282 0.949 . S
H275 C283 0.950 . S
H276 C284 0.951 . S
H277 C285 0.951 . S
C278 C272 1.265 . S
C278 H273 0.950 . S
C278 C279 1.478 . S
C279 C266 1.394 1_545 S
C279 C278 1.478 . S
C279 C280 1.397 . S
C280 C279 1.397 . S
C280 C281 1.438 . S
C280 C285 1.429 . S
C281 C264 1.394 . S
C281 C280 1.438 . S
C281 C282 1.428 . S
C282 H274 0.949 . S
C282 C281 1.428 . S
C282 C283 1.345 . S
C283 H275 0.950 . S
C283 C282 1.345 . S
C283 C284 1.424 . S
C284 H276 0.951 . S
C284 C283 1.424 . S
C284 C285 1.347 . S
C285 H277 0.951 . S
C285 C280 1.429 . S
C285 C284 1.347 . S
H286 C287 0.951 . S
C287 H286 0.951 . S
C287 C293 1.265 . S
H288 C293 0.950 . S
H289 C297 0.949 . S
H290 C298 0.950 . S
H291 C299 0.951 . S
H292 C300 0.951 . S
C293 C287 1.265 . S
C293 H288 0.950 . S
C293 C294 1.478 . S
C294 C293 1.478 . S
C294 C295 1.397 . S
C294 C311 1.394 . S
C295 C294 1.397 . S
C295 C296 1.438 . S
C295 C300 1.429 1_455 S
C296 C295 1.438 . S
C296 C297 1.428 1_455 S
C296 C309 1.394 . S
C297 H289 0.949 . S
C297 C296 1.428 1_655 S
C297 C298 1.345 . S
C298 H290 0.950 . S
C298 C297 1.345 . S
C298 C299 1.424 . S
C299 H291 0.951 . S
C299 C298 1.424 . S
C299 C300 1.347 . S
C300 H292 0.951 . S
C300 C295 1.429 1_655 S
C300 C299 1.347 . S
H301 C302 0.951 . S
C302 H301 0.951 . S
C302 C308 1.265 . S
H303 C308 0.950 1_655 S
H304 C312 0.949 . S
H305 C313 0.950 . S
H306 C314 0.951 . S
H307 C315 0.951 . S
C308 C302 1.265 . S
C308 H303 0.950 1_455 S
C308 C309 1.478 . S
C309 C296 1.394 . S
C309 C308 1.478 . S
C309 C310 1.397 . S
C310 C309 1.397 . S
C310 C311 1.438 . S
C310 C315 1.429 . S
C311 C294 1.394 . S
C311 C310 1.438 . S
C311 C312 1.428 . S
C312 H304 0.949 . S
C312 C311 1.428 . S
C312 C313 1.345 . S
C313 H305 0.950 . S
C313 C312 1.345 . S
C313 C314 1.424 . S
C314 H306 0.951 . S
C314 C313 1.424 . S
C314 C315 1.347 . S
C315 H307 0.951 . S
C315 C310 1.429 . S
C315 C314 1.347 . S
H316 C317 0.951 . S
C317 H316 0.951 . S
C317 C323 1.265 . S
H318 C323 0.950 . S
H319 C327 0.949 . S
H320 C328 0.950 . S
H321 C329 0.951 . S
H322 C330 0.951 . S
C323 C317 1.265 . S
C323 H318 0.950 . S
C323 C324 1.478 . S
C324 C323 1.478 . S
C324 C325 1.397 . S
C324 C341 1.394 1_545 S
C325 C324 1.397 . S
C325 C326 1.438 . S
C325 C330 1.429 . S
C326 C325 1.438 . S
C326 C327 1.428 . S
C326 C339 1.394 . S
C327 H319 0.949 . S
C327 C326 1.428 . S
C327 C328 1.345 . S
C328 H320 0.950 . S
C328 C327 1.345 . S
C328 C329 1.424 . S
C329 H321 0.951 . S
C329 C328 1.424 . S
C329 C330 1.347 . S
C330 H322 0.951 . S
C330 C325 1.429 . S
C330 C329 1.347 . S
H331 C332 0.951 . S
C332 H331 0.951 . S
C332 C338 1.265 . S
H333 C338 0.950 . S
H334 C342 0.949 . S
H335 C343 0.950 . S
H336 C344 0.951 . S
H337 C345 0.951 . S
C338 C332 1.265 . S
C338 H333 0.950 . S
C338 C339 1.478 . S
C339 C326 1.394 . S
C339 C338 1.478 . S
C339 C340 1.397 1_545 S
C340 C339 1.397 1_565 S
C340 C341 1.438 . S
C340 C345 1.429 . S
C341 C324 1.394 1_565 S
C341 C340 1.438 . S
C341 C342 1.428 . S
C342 H334 0.949 . S
C342 C341 1.428 . S
C342 C343 1.345 . S
C343 H335 0.950 . S
C343 C342 1.345 . S
C343 C344 1.424 . S
C344 H336 0.951 . S
C344 C343 1.424 . S
C344 C345 1.347 . S
C345 H337 0.951 . S
C345 C340 1.429 . S
C345 C344 1.347 . S
H346 C347 0.951 . S
C347 H346 0.951 . S
C347 C353 1.265 . S
H348 C353 0.950 1_655 S
H349 C357 0.949 1_455 S
H350 C358 0.950 . S
H351 C359 0.951 . S
H352 C360 0.951 . S
C353 C347 1.265 . S
C353 H348 0.950 1_455 S
C353 C354 1.478 . S
C354 C353 1.478 . S
C354 C355 1.397 . S
C354 C371 1.394 . S
C355 C354 1.397 . S
C355 C356 1.438 . S
C355 C360 1.429 1_455 S
C356 C355 1.438 . S
C356 C357 1.428 1_455 S
C356 C369 1.394 . S
C357 H349 0.949 1_655 S
C357 C356 1.428 1_655 S
C357 C358 1.345 . S
C358 H350 0.950 . S
C358 C357 1.345 . S
C358 C359 1.424 . S
C359 H351 0.951 . S
C359 C358 1.424 . S
C359 C360 1.347 . S
C360 H352 0.951 . S
C360 C355 1.429 1_655 S
C360 C359 1.347 . S
H361 C362 0.951 1_655 S
C362 H361 0.951 1_455 S
C362 C368 1.265 . S
H363 C368 0.950 . S
H364 C372 0.949 . S
H365 C373 0.950 . S
H366 C374 0.951 . S
H367 C375 0.951 . S
C368 C362 1.265 . S
C368 H363 0.950 . S
C368 C369 1.478 . S
C369 C356 1.394 . S
C369 C368 1.478 . S
C369 C370 1.397 . S
C370 C369 1.397 . S
C370 C371 1.438 . S
C370 C375 1.429 . S
C371 C354 1.394 . S
C371 C370 1.438 . S
C371 C372 1.428 . S
C372 H364 0.949 . S
C372 C371 1.428 . S
C372 C373 1.345 . S
C373 H365 0.950 . S
C373 C372 1.345 . S
C373 C374 1.424 . S
C374 H366 0.951 . S
C374 C373 1.424 . S
C374 C375 1.347 . S
C375 H367 0.951 . S
C375 C370 1.429 . S
C375 C374 1.347 . S
H376 C377 0.951 . S
C377 H376 0.951 . S
C377 C383 1.265 . S
H378 C383 0.950 . S
H379 C387 0.949 . S
H380 C388 0.950 . S
H381 C389 0.951 . S
H382 C390 0.951 . S
C383 C377 1.265 . S
C383 H378 0.950 . S
C383 C384 1.478 . S
C384 C383 1.478 . S
C384 C385 1.397 1_545 S
C384 C401 1.394 . S
C385 C384 1.397 1_565 S
C385 C386 1.438 . S
C385 C390 1.429 . S
C386 C385 1.438 . S
C386 C387 1.428 . S
C386 C399 1.394 1_565 S
C387 H379 0.949 . S
C387 C386 1.428 . S
C387 C388 1.345 . S
C388 H380 0.950 . S
C388 C387 1.345 . S
C388 C389 1.424 . S
C389 H381 0.951 . S
C389 C388 1.424 . S
C389 C390 1.347 . S
C390 H382 0.951 . S
C390 C385 1.429 . S
C390 C389 1.347 . S
H391 C392 0.951 . S
C392 H391 0.951 . S
C392 C398 1.265 . S
H393 C398 0.950 . S
H394 C402 0.949 . S
H395 C403 0.950 . S
H396 C404 0.951 . S
H397 C405 0.951 . S
C398 C392 1.265 . S
C398 H393 0.950 . S
C398 C399 1.478 . S
C399 C386 1.394 1_545 S
C399 C398 1.478 . S
C399 C400 1.397 . S
C400 C399 1.397 . S
C400 C401 1.438 . S
C400 C405 1.429 . S
C401 C384 1.394 . S
C401 C400 1.438 . S
C401 C402 1.428 . S
C402 H394 0.949 . S
C402 C401 1.428 . S
C402 C403 1.345 . S
C403 H395 0.950 . S
C403 C402 1.345 . S
C403 C404 1.424 . S
C404 H396 0.951 . S
C404 C403 1.424 . S
C404 C405 1.347 . S
C405 H397 0.951 . S
C405 C400 1.429 . S
C405 C404 1.347 . S
H406 C407 0.951 . S
C407 H406 0.951 . S
C407 C413 1.265 . S
H408 C413 0.950 . S
H409 C417 0.949 . S
H410 C418 0.950 . S
H411 C419 0.951 . S
H412 C420 0.951 . S
C413 C407 1.265 . S
C413 H408 0.950 . S
C413 C414 1.478 . S
C414 C413 1.478 . S
C414 C415 1.397 . S
C414 C431 1.394 . S
C415 C414 1.397 . S
C415 C416 1.438 . S
C415 C420 1.429 . S
C416 C415 1.438 . S
C416 C417 1.428 . S
C416 C429 1.394 . S
C417 H409 0.949 . S
C417 C416 1.428 . S
C417 C418 1.345 . S
C418 H410 0.950 . S
C418 C417 1.345 . S
C418 C419 1.424 . S
C419 H411 0.951 . S
C419 C418 1.424 . S
C419 C420 1.347 . S
C420 H412 0.951 . S
C420 C415 1.429 . S
C420 C419 1.347 . S
H421 C422 0.951 . S
C422 H421 0.951 . S
C422 C428 1.265 . S
H423 C428 0.950 . S
H424 C432 0.949 . S
H425 C433 0.950 . S
H426 C434 0.951 . S
H427 C435 0.951 . S
C428 C422 1.265 . S
C428 H423 0.950 . S
C428 C429 1.478 . S
C429 C416 1.394 . S
C429 C428 1.478 . S
C429 C430 1.397 . S
C430 C429 1.397 . S
C430 C431 1.438 . S
C430 C435 1.429 . S
C431 C414 1.394 . S
C431 C430 1.438 . S
C431 C432 1.428 . S
C432 H424 0.949 . S
C432 C431 1.428 . S
C432 C433 1.345 . S
C433 H425 0.950 . S
C433 C432 1.345 . S
C433 C434 1.424 . S
C434 H426 0.951 . S
C434 C433 1.424 . S
C434 C435 1.347 . S
C435 H427 0.951 . S
C435 C430 1.429 . S
C435 C434 1.347 . S
H436 C437 0.951 . S
C437 H436 0.951 . S
C437 C443 1.265 . S
H438 C443 0.950 1_565 S
H439 C447 0.949 . S
H440 C448 0.950 . S
H441 C449 0.951 . S
H442 C450 0.951 . S
C443 C437 1.265 . S
C443 H438 0.950 1_545 S
C443 C444 1.478 . S
C444 C443 1.478 . S
C444 C445 1.397 1_545 S
C444 C461 1.394 . S
C445 C444 1.397 1_565 S
C445 C446 1.438 . S
C445 C450 1.429 . S
C446 C445 1.438 . S
C446 C447 1.428 . S
C446 C459 1.394 1_565 S
C447 H439 0.949 . S
C447 C446 1.428 . S
C447 C448 1.345 . S
C448 H440 0.950 . S
C448 C447 1.345 . S
C448 C449 1.424 . S
C449 H441 0.951 . S
C449 C448 1.424 . S
C449 C450 1.347 . S
C450 H442 0.951 . S
C450 C445 1.429 . S
C450 C449 1.347 . S
H451 C452 0.951 . S
C452 H451 0.951 . S
C452 C458 1.265 . S
H453 C458 0.950 . S
H454 C462 0.949 . S
H455 C463 0.950 . S
H456 C464 0.951 . S
H457 C465 0.951 . S
C458 C452 1.265 . S
C458 H453 0.950 . S
C458 C459 1.478 . S
C459 C446 1.394 1_545 S
C459 C458 1.478 . S
C459 C460 1.397 . S
C460 C459 1.397 . S
C460 C461 1.438 . S
C460 C465 1.429 . S
C461 C444 1.394 . S
C461 C460 1.438 . S
C461 C462 1.428 . S
C462 H454 0.949 . S
C462 C461 1.428 . S
C462 C463 1.345 . S
C463 H455 0.950 . S
C463 C462 1.345 . S
C463 C464 1.424 . S
C464 H456 0.951 . S
C464 C463 1.424 . S
C464 C465 1.347 . S
C465 H457 0.951 . S
C465 C460 1.429 . S
C465 C464 1.347 . S
H466 C467 0.951 . S
C467 H466 0.951 . S
C467 C473 1.265 . S
H468 C473 0.950 . S
H469 C477 0.949 . S
H470 C478 0.950 . S
H471 C479 0.951 . S
H472 C480 0.951 . S
C473 C467 1.265 . S
C473 H468 0.950 . S
C473 C474 1.478 . S
C474 C473 1.478 . S
C474 C475 1.397 . S
C474 C491 1.394 . S
C475 C474 1.397 . S
C475 C476 1.438 . S
C475 C480 1.429 . S
C476 C475 1.438 . S
C476 C477 1.428 . S
C476 C489 1.394 . S
C477 H469 0.949 . S
C477 C476 1.428 . S
C477 C478 1.345 . S
C478 H470 0.950 . S
C478 C477 1.345 . S
C478 C479 1.424 . S
C479 H471 0.951 . S
C479 C478 1.424 . S
C479 C480 1.347 . S
C480 H472 0.951 . S
C480 C475 1.429 . S
C480 C479 1.347 . S
H481 C482 0.951 . S
C482 H481 0.951 . S
C482 C488 1.265 . S
H483 C488 0.950 . S
H484 C492 0.949 . S
H485 C493 0.950 . S
H486 C494 0.951 . S
H487 C495 0.951 . S
C488 C482 1.265 . S
C488 H483 0.950 . S
C488 C489 1.478 . S
C489 C476 1.394 . S
C489 C488 1.478 . S
C489 C490 1.397 . S
C490 C489 1.397 . S
C490 C491 1.438 . S
C490 C495 1.429 . S
C491 C474 1.394 . S
C491 C490 1.438 . S
C491 C492 1.428 . S
C492 H484 0.949 . S
C492 C491 1.428 . S
C492 C493 1.345 1_455 S
C493 H485 0.950 . S
C493 C492 1.345 1_655 S
C493 C494 1.424 . S
C494 H486 0.951 . S
C494 C493 1.424 . S
C494 C495 1.347 1_655 S
C495 H487 0.951 . S
C495 C490 1.429 . S
C495 C494 1.347 1_455 S
C272 C233 1.364 . S
C257 C11 0.830 1_545 S
C302 C253 1.299 . S
C287 C115 1.191 . S
C332 C232 1.348 1_655 S
C317 C1 0.982 . S
C362 C254 1.482 . S
C347 C125 1.014 . S
C392 C246 1.505 . S
C377 C55 1.096 . S
C422 C239 1.361 . S
C407 C143 1.030 . S
C452 C247 1.294 . S
C437 C29 1.186 . S
C467 C169 1.074 . S
C482 C240 1.570 . S
