# Generated by pormake.
# Topology hwx, (6,3)-cn, num edge types: 1
# Building blocks:
#     Node 0, Type 0, BuildingBlock: IZENUY_clean_sbu_0, # of connection points: 6
#     Node 1, Type 0, BuildingBlock: IZENUY_clean_sbu_0, # of connection points: 6
#     Node 2, Type 0, BuildingBlock: IZENUY_clean_sbu_0, # of connection points: 6
#     Node 3, Type 0, BuildingBlock: IZENUY_clean_sbu_0, # of connection points: 6
#     Node 4, Type 1, BuildingBlock: KAKCAD_clean_linker_0, # of connection points: 3
#     Node 5, Type 1, BuildingBlock: KAKCAD_clean_linker_0, # of connection points: 3
#     Node 6, Type 1, BuildingBlock: KAKCAD_clean_linker_0, # of connection points: 3
#     Node 7, Type 1, BuildingBlock: KAKCAD_clean_linker_0, # of connection points: 3
#     Node 8, Type 1, BuildingBlock: KAKCAD_clean_linker_0, # of connection points: 3
#     Node 9, Type 1, BuildingBlock: KAKCAD_clean_linker_0, # of connection points: 3
#     Node 10, Type 1, BuildingBlock: KAKCAD_clean_linker_0, # of connection points: 3
#     Node 11, Type 1, BuildingBlock: KAKCAD_clean_linker_0, # of connection points: 3
#     Edge 12, Type (0, 1), BuildingBlock: MIFKUJ_clean_linker_0, # of connection points: 2
#     Edge 13, Type (0, 1), BuildingBlock: MIFKUJ_clean_linker_0, # of connection points: 2
#     Edge 14, Type (0, 1), BuildingBlock: MIFKUJ_clean_linker_0, # of connection points: 2
#     Edge 15, Type (0, 1), BuildingBlock: MIFKUJ_clean_linker_0, # of connection points: 2
#     Edge 16, Type (0, 1), BuildingBlock: MIFKUJ_clean_linker_0, # of connection points: 2
#     Edge 17, Type (0, 1), BuildingBlock: MIFKUJ_clean_linker_0, # of connection points: 2
#     Edge 18, Type (0, 1), BuildingBlock: MIFKUJ_clean_linker_0, # of connection points: 2
#     Edge 19, Type (0, 1), BuildingBlock: MIFKUJ_clean_linker_0, # of connection points: 2
#     Edge 20, Type (0, 1), BuildingBlock: MIFKUJ_clean_linker_0, # of connection points: 2
#     Edge 21, Type (0, 1), BuildingBlock: MIFKUJ_clean_linker_0, # of connection points: 2
#     Edge 22, Type (0, 1), BuildingBlock: MIFKUJ_clean_linker_0, # of connection points: 2
#     Edge 23, Type (0, 1), BuildingBlock: MIFKUJ_clean_linker_0, # of connection points: 2
#     Edge 24, Type (0, 1), BuildingBlock: MIFKUJ_clean_linker_0, # of connection points: 2
#     Edge 25, Type (0, 1), BuildingBlock: MIFKUJ_clean_linker_0, # of connection points: 2
#     Edge 26, Type (0, 1), BuildingBlock: MIFKUJ_clean_linker_0, # of connection points: 2
#     Edge 27, Type (0, 1), BuildingBlock: MIFKUJ_clean_linker_0, # of connection points: 2
#     Edge 28, Type (0, 1), BuildingBlock: MIFKUJ_clean_linker_0, # of connection points: 2
#     Edge 29, Type (0, 1), BuildingBlock: MIFKUJ_clean_linker_0, # of connection points: 2
#     Edge 30, Type (0, 1), BuildingBlock: MIFKUJ_clean_linker_0, # of connection points: 2
#     Edge 31, Type (0, 1), BuildingBlock: MIFKUJ_clean_linker_0, # of connection points: 2
#     Edge 32, Type (0, 1), BuildingBlock: MIFKUJ_clean_linker_0, # of connection points: 2
#     Edge 33, Type (0, 1), BuildingBlock: MIFKUJ_clean_linker_0, # of connection points: 2
#     Edge 34, Type (0, 1), BuildingBlock: MIFKUJ_clean_linker_0, # of connection points: 2
#     Edge 35, Type (0, 1), BuildingBlock: MIFKUJ_clean_linker_0, # of connection points: 2
# Relax obj value: 0.051
# Max RMSD: 0.075
# Mean RMSD: 0.067
data_MOF--net-hwx--node1-IZENUY_clean_sbu_0--node2-KAKCAD_clean_linker_0--edge1-MIFKUJ_clean_linker_0
_symmetry_space_group_name_H-M    P1
_symmetry_Int_Tables_number       1
_symmetry_cell_setting            triclinic
loop_
_symmetry_equiv_pos_as_xyz
'x, y, z'
_cell_length_a     71.960119
_cell_length_b     72.011533
_cell_length_c     34.876143
_cell_angle_alpha  89.921335
_cell_angle_beta   90.087639
_cell_angle_gamma 90.011528
loop_
_atom_site_label
_atom_site_type_symbol
_atom_site_fract_x
_atom_site_fract_y
_atom_site_fract_z
_atom_type_partial_charge
Fe0 Fe 0.23634 0.20747 0.0429 0.0
Fe1 Fe 0.23704 0.20696 0.95506 0.0
O2 O 0.23139 0.19615 0.9991 0.0
Fe3 Fe 0.22066 0.17402 0.99947 0.0
O4 O 0.20727 0.17815 0.04348 0.0
O5 O 0.21195 0.20767 0.05597 0.0
O6 O 0.23298 0.23103 0.02409 0.0
C7 C 0.22411 0.23686 0.99512 0.0
C8 C 0.24524 0.16984 0.05833 0.0
O9 O 0.22237 0.22685 0.96569 0.0
C10 C 0.24678 0.17118 0.9389 0.0
O11 O 0.26095 0.20806 0.03245 0.0
O12 O 0.25794 0.21863 0.97356 0.0
O13 O 0.23985 0.16399 0.0261 0.0
O14 O 0.24075 0.18592 0.06978 0.0
C15 C 0.2019 0.1905 0.94056 0.0
O16 O 0.25206 0.18784 0.94139 0.0
O17 O 0.23208 0.16583 0.95553 0.0
C18 C 0.26789 0.21536 0.00286 0.0
O19 O 0.21719 0.19715 0.92881 0.0
O20 O 0.2008 0.1827 0.97288 0.0
C21 C 0.20216 0.19323 0.05884 0.0
Fe22 Fe 0.26527 0.70618 0.54438 0.0
Fe23 Fe 0.28008 0.67215 0.50141 0.0
O24 O 0.27007 0.69466 0.50067 0.0
Fe25 Fe 0.26479 0.70566 0.45648 0.0
O26 O 0.2798 0.72524 0.46731 0.0
O27 O 0.26924 0.72964 0.52556 0.0
O28 O 0.28956 0.70581 0.5579 0.0
C29 C 0.29918 0.69123 0.56068 0.0
C30 C 0.23398 0.71449 0.50352 0.0
O31 O 0.29391 0.67626 0.54495 0.0
C32 C 0.25377 0.67 0.44097 0.0
O33 O 0.26044 0.68494 0.57162 0.0
O34 O 0.26074 0.66278 0.52859 0.0
O35 O 0.24414 0.71772 0.47463 0.0
O36 O 0.24069 0.70723 0.53343 0.0
C37 C 0.29938 0.68815 0.44247 0.0
O38 O 0.26812 0.66405 0.45807 0.0
O39 O 0.24939 0.68694 0.4423 0.0
C40 C 0.25569 0.66886 0.56079 0.0
O41 O 0.30008 0.67985 0.47427 0.0
O42 O 0.28446 0.69553 0.43062 0.0
C43 C 0.27833 0.73525 0.49677 0.0
Fe44 Fe 0.76605 0.8002 0.95163 0.0
Fe45 Fe 0.76575 0.7992 0.03929 0.0
O46 O 0.77143 0.81068 0.99609 0.0
Fe47 Fe 0.78243 0.83264 0.99723 0.0
O48 O 0.77143 0.84112 0.95294 0.0
O49 O 0.75108 0.81947 0.93838 0.0
O50 O 0.74513 0.78823 0.96891 0.0
C51 C 0.73472 0.79178 0.99718 0.0
C52 C 0.8013 0.81652 0.9385 0.0
O53 O 0.74125 0.79907 0.02714 0.0
C54 C 0.79979 0.81304 0.05791 0.0
O55 O 0.78068 0.78031 0.96237 0.0
O56 O 0.7692 0.77573 0.02 0.0
O57 O 0.80243 0.82381 0.9713 0.0
O58 O 0.78596 0.81027 0.92621 0.0
C59 C 0.75713 0.83684 0.05476 0.0
O60 O 0.78994 0.79868 0.05421 0.0
O61 O 0.79526 0.82815 0.04186 0.0
C62 C 0.77846 0.77009 0.99142 0.0
O63 O 0.76117 0.82061 0.06619 0.0
O64 O 0.76317 0.84286 0.02316 0.0
C65 C 0.75654 0.83609 0.93653 0.0
Fe66 Fe 0.71919 0.3312 0.50201 0.0
Fe67 Fe 0.7364 0.29878 0.54706 0.0
O68 O 0.73064 0.30943 0.50285 0.0
Fe69 Fe 0.7363 0.2982 0.45921 0.0
O70 O 0.75106 0.3174 0.44458 0.0
O71 O 0.73053 0.33911 0.45777 0.0
O72 O 0.73783 0.34235 0.52818 0.0
C73 C 0.74413 0.33689 0.55999 0.0
C74 C 0.70107 0.31414 0.44334 0.0
O75 O 0.74097 0.32065 0.57227 0.0
C76 C 0.72368 0.26883 0.50118 0.0
O77 O 0.7059 0.3272 0.54606 0.0
O78 O 0.71234 0.29841 0.56223 0.0
O79 O 0.71649 0.3076 0.43232 0.0
O80 O 0.69962 0.32165 0.4758 0.0
C81 C 0.76747 0.29045 0.50613 0.0
O82 O 0.73283 0.27496 0.52959 0.0
O83 O 0.72181 0.27846 0.47117 0.0
C84 C 0.7019 0.31245 0.56399 0.0
O85 O 0.7609 0.29848 0.53513 0.0
O86 O 0.75721 0.28658 0.47776 0.0
C87 C 0.74527 0.33387 0.44107 0.0
C88 C 0.18113 0.53681 0.8669 0.0
C89 C 0.19395 0.55157 0.8663 0.0
C90 C 0.17813 0.52667 0.90064 0.0
C91 C 0.18786 0.53113 0.93438 0.0
C92 C 0.20094 0.54561 0.93345 0.0
C93 C 0.20397 0.55566 0.89987 0.0
C94 C 0.18445 0.52097 0.97077 0.0
C95 C 0.18367 0.50151 0.97156 0.0
C96 C 0.1816 0.49184 0.00646 0.0
C97 C 0.1805 0.5021 0.04085 0.0
C98 C 0.18156 0.52162 0.0406 0.0
C99 C 0.18301 0.53085 0.00523 0.0
C100 C 0.18228 0.53247 0.07701 0.0
C101 C 0.17187 0.5272 0.10943 0.0
C102 C 0.19379 0.54823 0.07965 0.0
C103 C 0.19465 0.5586 0.11332 0.0
C104 C 0.18429 0.55333 0.14557 0.0
C105 C 0.18158 0.47107 0.00697 0.0
C106 C 0.17377 0.46091 0.97649 0.0
C107 C 0.1899 0.4612 0.03733 0.0
C108 C 0.19054 0.44181 0.03703 0.0
C109 C 0.18327 0.43166 0.00596 0.0
C110 C 0.17477 0.44152 0.97579 0.0
C111 C 0.17299 0.53745 0.1435 0.0
H112 H 0.17314 0.53336 0.84155 0.0
H113 H 0.16793 0.51561 0.90057 0.0
H114 H 0.20897 0.5491 0.95874 0.0
H115 H 0.21431 0.56659 0.90017 0.0
H116 H 0.1855 0.49393 0.94503 0.0
H117 H 0.18316 0.54589 0.00442 0.0
H118 H 0.1792 0.49489 0.06796 0.0
H119 H 0.16273 0.51526 0.10845 0.0
H120 H 0.20248 0.55246 0.05586 0.0
H121 H 0.20379 0.57055 0.11444 0.0
H122 H 0.16693 0.46791 0.95288 0.0
H123 H 0.19634 0.4684 0.0611 0.0
H124 H 0.16488 0.53312 0.16808 0.0
H125 H 0.16919 0.43434 0.95108 0.0
H126 H 0.19684 0.43482 0.06127 0.0
C127 C 0.9447 0.808 0.37113 0.0
C128 C 0.93411 0.82375 0.36135 0.0
C129 C 0.95541 0.80774 0.40452 0.0
C130 C 0.95559 0.82311 0.42923 0.0
C131 C 0.94514 0.83889 0.41961 0.0
C132 C 0.93464 0.83928 0.38585 0.0
C133 C 0.96625 0.8223 0.46553 0.0
C134 C 0.98473 0.81615 0.4655 0.0
C135 C 0.99456 0.81386 0.50002 0.0
C136 C 0.98566 0.81811 0.53478 0.0
C137 C 0.96713 0.82428 0.53538 0.0
C138 C 0.95758 0.82649 0.50046 0.0
C139 C 0.95734 0.82716 0.57245 0.0
C140 C 0.96029 0.8149 0.60333 0.0
C141 C 0.94437 0.84162 0.57676 0.0
C142 C 0.93418 0.8434 0.61064 0.0
C143 C 0.93688 0.83088 0.64106 0.0
C144 C 0.01375 0.80618 0.49992 0.0
C145 C 0.01866 0.79198 0.47417 0.0
C146 C 0.02716 0.81258 0.52618 0.0
C147 C 0.04493 0.80477 0.52702 0.0
C148 C 0.04973 0.7906 0.50128 0.0
C149 C 0.03649 0.78438 0.47467 0.0
C150 C 0.95024 0.81681 0.63731 0.0
H151 H 0.94437 0.79563 0.35356 0.0
H152 H 0.96315 0.7953 0.41159 0.0
H153 H 0.94519 0.85096 0.43811 0.0
H154 H 0.92695 0.85178 0.37899 0.0
H155 H 0.99143 0.81315 0.43839 0.0
H156 H 0.94308 0.83055 0.50046 0.0
H157 H 0.99304 0.81617 0.56158 0.0
H158 H 0.96988 0.80338 0.60085 0.0
H159 H 0.94197 0.85148 0.55381 0.0
H160 H 0.92405 0.85447 0.61295 0.0
H161 H 0.00861 0.78642 0.4541 0.0
H162 H 0.02399 0.8237 0.54599 0.0
H163 H 0.95239 0.80678 0.66007 0.0
H164 H 0.03982 0.77332 0.45479 0.0
H165 H 0.055 0.80995 0.54751 0.0
C166 C 0.80231 0.47116 0.13476 0.0
C167 C 0.80853 0.45266 0.13661 0.0
C168 C 0.80564 0.48202 0.10224 0.0
C169 C 0.81546 0.47471 0.07086 0.0
C170 C 0.82236 0.45648 0.07338 0.0
C171 C 0.81886 0.44556 0.10572 0.0
C172 C 0.81749 0.48564 0.0348 0.0
C173 C 0.82035 0.50493 0.03578 0.0
C174 C 0.82065 0.51551 0.00179 0.0
C175 C 0.81898 0.50629 0.96636 0.0
C176 C 0.81651 0.48693 0.96469 0.0
C177 C 0.8155 0.47684 0.99912 0.0
C178 C 0.81424 0.4772 0.92726 0.0
C179 C 0.80436 0.48546 0.89685 0.0
C180 C 0.82145 0.45923 0.92211 0.0
C181 C 0.81829 0.44951 0.88813 0.0
C182 C 0.80813 0.4576 0.85794 0.0
C183 C 0.82152 0.53621 0.00335 0.0
C184 C 0.81245 0.54593 0.03286 0.0
C185 C 0.83052 0.5465 0.97447 0.0
C186 C 0.82979 0.56592 0.97428 0.0
C187 C 0.82032 0.57559 0.00333 0.0
C188 C 0.81204 0.56531 0.03307 0.0
C189 C 0.80148 0.47585 0.86254 0.0
H190 H 0.79461 0.47723 0.15827 0.0
H191 H 0.79997 0.49593 0.10126 0.0
H192 H 0.83025 0.45049 0.05004 0.0
H193 H 0.82376 0.43135 0.10588 0.0
H194 H 0.8223 0.51173 0.06317 0.0
H195 H 0.81242 0.46212 0.99821 0.0
H196 H 0.81924 0.51421 0.94 0.0
H197 H 0.79841 0.49919 0.89977 0.0
H198 H 0.82943 0.45252 0.94454 0.0
H199 H 0.82344 0.43542 0.88609 0.0
H200 H 0.80513 0.53862 0.05539 0.0
H201 H 0.83797 0.53959 0.95164 0.0
H202 H 0.79389 0.48271 0.83977 0.0
H203 H 0.80499 0.57219 0.05648 0.0
H204 H 0.83624 0.57327 0.9507 0.0
C205 C 0.05125 0.1727 0.63476 0.0
C206 C 0.06882 0.18111 0.63849 0.0
C207 C 0.041 0.17464 0.6008 0.0
C208 C 0.0482 0.1849 0.5699 0.0
C209 C 0.06569 0.19334 0.57375 0.0
C210 C 0.07582 0.19154 0.60761 0.0
C211 C 0.0375 0.18744 0.53389 0.0
C212 C 0.01878 0.19281 0.53492 0.0
C213 C 0.00937 0.19754 0.50098 0.0
C214 C 0.0188 0.19666 0.46576 0.0
C215 C 0.03743 0.19083 0.46405 0.0
C216 C 0.04653 0.186 0.49836 0.0
C217 C 0.04766 0.19045 0.42687 0.0
C218 C 0.0386 0.18562 0.39243 0.0
C219 C 0.06668 0.19506 0.42552 0.0
C220 C 0.07643 0.19442 0.39102 0.0
C221 C 0.06734 0.18962 0.35692 0.0
C222 C 0.99 0.20441 0.5026 0.0
C223 C 0.97641 0.19466 0.52335 0.0
C224 C 0.98508 0.22099 0.4839 0.0
C225 C 0.96695 0.22778 0.48618 0.0
C226 C 0.95334 0.21801 0.50681 0.0
C227 C 0.95819 0.20132 0.52517 0.0
C228 C 0.04832 0.18539 0.35771 0.0
H229 H 0.04551 0.16448 0.6579 0.0
H230 H 0.02756 0.16796 0.59853 0.0
H231 H 0.07141 0.20171 0.55078 0.0
H232 H 0.08904 0.19866 0.60977 0.0
H233 H 0.0118 0.19428 0.56228 0.0
H234 H 0.06079 0.1812 0.49767 0.0
H235 H 0.01162 0.20082 0.43981 0.0
H236 H 0.02406 0.18175 0.39229 0.0
H237 H 0.07407 0.19938 0.45105 0.0
H238 H 0.09107 0.19796 0.39086 0.0
H239 H 0.97987 0.18181 0.53791 0.0
H240 H 0.99534 0.22885 0.46801 0.0
H241 H 0.0411 0.18159 0.3316 0.0
H242 H 0.94796 0.19359 0.54142 0.0
H243 H 0.96352 0.2406 0.47152 0.0
C244 C 0.67972 0.96779 0.63374 0.0
C245 C 0.69425 0.95484 0.63706 0.0
C246 C 0.67709 0.97768 0.59955 0.0
C247 C 0.68878 0.97456 0.56795 0.0
C248 C 0.70324 0.96156 0.57133 0.0
C249 C 0.70597 0.95185 0.60549 0.0
C250 C 0.68605 0.98476 0.53139 0.0
C251 C 0.68382 0.00413 0.53111 0.0
C252 C 0.68256 0.01397 0.49625 0.0
C253 C 0.68314 0.00401 0.46155 0.0
C254 C 0.6857 0.98469 0.46142 0.0
C255 C 0.68689 0.97518 0.49645 0.0
C256 C 0.68872 0.97462 0.42488 0.0
C257 C 0.67745 0.97795 0.39262 0.0
C258 C 0.70344 0.96189 0.42188 0.0
C259 C 0.70691 0.95278 0.38741 0.0
C260 C 0.69574 0.95613 0.35507 0.0
C261 C 0.68212 0.03468 0.496 0.0
C262 C 0.67257 0.04462 0.52459 0.0
C263 C 0.69195 0.0447 0.46788 0.0
C264 C 0.69232 0.06407 0.46844 0.0
C265 C 0.68313 0.07391 0.49746 0.0
C266 C 0.6732 0.06403 0.52548 0.0
C267 C 0.68086 0.96869 0.35806 0.0
H268 H 0.67056 0.97044 0.65773 0.0
H269 H 0.6658 0.98758 0.59765 0.0
H270 H 0.7126 0.95902 0.54759 0.0
H271 H 0.71718 0.94183 0.60708 0.0
H272 H 0.68408 0.01159 0.55806 0.0
H273 H 0.68863 0.96022 0.49651 0.0
H274 H 0.68226 0.01133 0.43446 0.0
H275 H 0.66597 0.98764 0.39419 0.0
H276 H 0.71252 0.9592 0.44607 0.0
H277 H 0.71831 0.94297 0.38615 0.0
H278 H 0.66464 0.03742 0.54638 0.0
H279 H 0.69987 0.03762 0.44597 0.0
H280 H 0.67206 0.97156 0.33354 0.0
H281 H 0.66589 0.07134 0.54801 0.0
H282 H 0.70031 0.07136 0.44684 0.0
C283 C 0.55355 0.32233 0.14081 0.0
C284 C 0.56818 0.33521 0.14083 0.0
C285 C 0.54262 0.31989 0.10807 0.0
C286 C 0.54592 0.33048 0.0748 0.0
C287 C 0.56011 0.34395 0.07559 0.0
C288 C 0.57123 0.34616 0.10813 0.0
C289 C 0.53536 0.32674 0.03885 0.0
C290 C 0.51655 0.32144 0.04006 0.0
C291 C 0.50697 0.31666 0.00636 0.0
C292 C 0.51623 0.31756 0.97101 0.0
C293 C 0.53496 0.3229 0.96918 0.0
C294 C 0.54439 0.32745 0.00315 0.0
C295 C 0.54507 0.32276 0.93217 0.0
C296 C 0.54357 0.3075 0.9073 0.0
C297 C 0.55694 0.3375 0.9223 0.0
C298 C 0.56736 0.33683 0.88857 0.0
C299 C 0.56624 0.32134 0.86421 0.0
C300 C 0.48757 0.30981 0.00822 0.0
C301 C 0.48261 0.29614 0.03508 0.0
C302 C 0.4741 0.31632 0.98234 0.0
C303 C 0.45604 0.30919 0.98309 0.0
C304 C 0.45112 0.29523 0.00948 0.0
C305 C 0.46462 0.28888 0.03561 0.0
C306 C 0.5541 0.30676 0.87373 0.0
H307 H 0.55108 0.31358 0.16558 0.0
H308 H 0.53206 0.30917 0.10846 0.0
H309 H 0.5628 0.35264 0.05087 0.0
H310 H 0.58235 0.3563 0.10764 0.0
H311 H 0.50928 0.32104 0.06723 0.0
H312 H 0.55907 0.33073 0.00182 0.0
H313 H 0.50896 0.31372 0.94494 0.0
H314 H 0.53465 0.29587 0.91435 0.0
H315 H 0.55827 0.34948 0.94085 0.0
H316 H 0.5767 0.34821 0.88212 0.0
H317 H 0.4928 0.29067 0.055 0.0
H318 H 0.47752 0.327 0.9616 0.0
H319 H 0.55285 0.29473 0.85531 0.0
H320 H 0.46145 0.27793 0.05589 0.0
H321 H 0.44592 0.31466 0.96303 0.0
C322 C 0.2995 0.03502 0.36623 0.0
C323 C 0.30894 0.05195 0.36117 0.0
C324 C 0.30187 0.02465 0.39977 0.0
C325 C 0.31371 0.03096 0.42908 0.0
C326 C 0.32338 0.04773 0.42379 0.0
C327 C 0.32104 0.05809 0.39021 0.0
C328 C 0.31553 0.02035 0.46548 0.0
C329 C 0.31689 0.00092 0.46504 0.0
C330 C 0.31777 0.9907 0.49937 0.0
C331 C 0.31772 1.00028 0.53453 0.0
C332 C 0.31634 0.01978 0.53565 0.0
C333 C 0.31521 0.02963 0.50085 0.0
C334 C 0.31516 0.02992 0.57289 0.0
C335 C 0.30529 0.02238 0.60404 0.0
C336 C 0.32319 0.04762 0.57704 0.0
C337 C 0.3208 0.05781 0.61076 0.0
C338 C 0.31054 0.05047 0.64158 0.0
C339 C 0.31798 0.97003 0.49833 0.0
C340 C 0.30665 0.96042 0.47211 0.0
C341 C 0.32916 0.95973 0.52374 0.0
C342 C 0.32893 0.9403 0.52304 0.0
C343 C 0.31756 0.93073 0.49684 0.0
C344 C 0.30648 0.94103 0.47132 0.0
C345 C 0.30313 0.03246 0.63799 0.0
H346 H 0.28984 0.03003 0.34474 0.0
H347 H 0.29401 0.01192 0.4032 0.0
H348 H 0.33281 0.05283 0.44562 0.0
H349 H 0.32874 0.07093 0.38697 0.0
H350 H 0.3174 0.99372 0.43779 0.0
H351 H 0.31332 0.04456 0.50119 0.0
H352 H 0.31843 0.99249 0.56107 0.0
H353 H 0.29873 0.00889 0.60194 0.0
H354 H 0.33119 0.05377 0.55402 0.0
H355 H 0.32657 0.07168 0.6121 0.0
H356 H 0.29758 0.96787 0.45265 0.0
H357 H 0.33822 0.96669 0.54396 0.0
H358 H 0.29546 0.02615 0.66129 0.0
H359 H 0.29729 0.9341 0.4513 0.0
H360 H 0.33776 0.93275 0.54282 0.0
C361 C 0.45117 0.68074 0.86439 0.0
C362 C 0.43372 0.68947 0.86232 0.0
C363 C 0.46133 0.68087 0.89863 0.0
C364 C 0.45412 0.68953 0.93147 0.0
C365 C 0.43667 0.69823 0.92933 0.0
C366 C 0.4266 0.69822 0.89514 0.0
C367 C 0.46472 0.68974 0.96795 0.0
C368 C 0.48359 0.69461 0.96837 0.0
C369 C 0.49341 0.69608 0.00318 0.0
C370 C 0.48401 0.69239 0.03777 0.0
C371 C 0.46503 0.68787 0.03783 0.0
C372 C 0.45562 0.68622 0.00273 0.0
C373 C 0.45461 0.68649 0.07446 0.0
C374 C 0.46224 0.67755 0.10672 0.0
C375 C 0.43704 0.69486 0.07764 0.0
C376 C 0.42738 0.69443 0.11219 0.0
C377 C 0.43507 0.68575 0.14464 0.0
C378 C 0.513 0.70278 0.00349 0.0
C379 C 0.52533 0.69801 0.97381 0.0
C380 C 0.51934 0.71466 0.0327 0.0
C381 C 0.5374 0.72171 0.03209 0.0
C382 C 0.54954 0.71741 0.00181 0.0
C383 C 0.5433 0.70536 0.9728 0.0
C384 C 0.45254 0.67714 0.14148 0.0
H385 H 0.45703 0.67399 0.83946 0.0
H386 H 0.47473 0.67402 0.89955 0.0
H387 H 0.43086 0.70522 0.95405 0.0
H388 H 0.41311 0.70488 0.89453 0.0
H389 H 0.49033 0.69818 0.9416 0.0
H390 H 0.44105 0.68238 0.00247 0.0
H391 H 0.4913 0.69365 0.06482 0.0
H392 H 0.4757 0.67086 0.10509 0.0
H393 H 0.43086 0.70211 0.05357 0.0
H394 H 0.41381 0.7009 0.11343 0.0
H395 H 0.52107 0.68869 0.95111 0.0
H396 H 0.51024 0.71895 0.05574 0.0
H397 H 0.45883 0.67037 0.16602 0.0
H398 H 0.55212 0.70185 0.94877 0.0
H399 H 0.54177 0.73061 0.05541 0.0
H400 H 0.18982 0.16474 0.10302 0.0
H401 H 0.16381 0.16485 0.14761 0.0
H402 H 0.15122 0.22148 0.1159 0.0
H403 H 0.17818 0.22176 0.07302 0.0
H404 H 0.1476 0.21928 0.18669 0.0
H405 H 0.12382 0.18165 0.08686 0.0
H406 H 0.12334 0.15661 0.03871 0.0
H407 H 0.12715 0.11575 0.12815 0.0
H408 H 0.12792 0.14054 0.17684 0.0
H409 H 0.06184 0.21065 0.29296 0.0
H410 H 0.08155 0.21176 0.23535 0.0
H411 H 0.11601 0.16828 0.28222 0.0
H412 H 0.0967 0.16754 0.34017 0.0
H413 H 0.10441 0.16581 0.1977 0.0
H414 H 0.13196 0.20663 0.29531 0.0
H415 H 0.13033 0.23294 0.34039 0.0
H416 H 0.11582 0.26961 0.24788 0.0
H417 H 0.11708 0.24342 0.20234 0.0
C418 C 0.18142 0.17717 0.10541 0.0
C419 C 0.18592 0.19322 0.08452 0.0
C420 C 0.16642 0.17718 0.13068 0.0
C421 C 0.15514 0.19301 0.13453 0.0
C422 C 0.15961 0.20906 0.11341 0.0
C423 C 0.17498 0.20922 0.08889 0.0
C424 C 0.13937 0.19302 0.16211 0.0
C425 C 0.13795 0.20774 0.18837 0.0
C426 C 0.12666 0.17799 0.16467 0.0
C427 C 0.12604 0.16299 0.13551 0.0
C428 C 0.12466 0.16733 0.09626 0.0
C429 C 0.12433 0.15318 0.06887 0.0
C430 C 0.12524 0.13461 0.08036 0.0
C431 C 0.12644 0.13014 0.11929 0.0
C432 C 0.1268 0.14424 0.14681 0.0
C433 C 0.07349 0.20121 0.29057 0.0
C434 C 0.07788 0.18904 0.32073 0.0
C435 C 0.08469 0.20185 0.25784 0.0
C436 C 0.10016 0.19008 0.25471 0.0
C437 C 0.10406 0.17739 0.28416 0.0
C438 C 0.09313 0.17702 0.31716 0.0
C439 C 0.11311 0.19179 0.2221 0.0
C440 C 0.11394 0.17742 0.19515 0.0
C441 C 0.12494 0.20733 0.21821 0.0
C442 C 0.12437 0.22305 0.24555 0.0
C443 C 0.12824 0.22027 0.28466 0.0
C444 C 0.12742 0.23516 0.31028 0.0
C445 C 0.12291 0.25292 0.29703 0.0
C446 C 0.11927 0.25584 0.25811 0.0
C447 C 0.12004 0.24098 0.2324 0.0
H448 H 0.12229 0.26444 0.3169 0.0
H449 H 0.125 0.12367 0.05911 0.0
H450 H 0.24336 0.63317 0.54911 0.0
H451 H 0.2303 0.61194 0.59705 0.0
H452 H 0.23415 0.65491 0.68273 0.0
H453 H 0.24715 0.67612 0.6354 0.0
H454 H 0.24981 0.62242 0.70631 0.0
H455 H 0.19288 0.64299 0.64823 0.0
H456 H 0.17134 0.64872 0.59452 0.0
H457 H 0.17012 0.59037 0.56935 0.0
H458 H 0.1919 0.58433 0.62268 0.0
H459 H 0.19834 0.58913 0.86116 0.0
H460 H 0.20667 0.60733 0.80473 0.0
H461 H 0.20445 0.55801 0.73494 0.0
H462 H 0.19646 0.53948 0.7917 0.0
H463 H 0.18852 0.59093 0.69973 0.0
H464 H 0.24459 0.57073 0.76162 0.0
H465 H 0.26593 0.56595 0.8161 0.0
H466 H 0.26863 0.62484 0.83438 0.0
H467 H 0.24702 0.62996 0.78042 0.0
C468 C 0.24127 0.63813 0.57809 0.0
C469 C 0.24643 0.6563 0.58847 0.0
C470 C 0.23375 0.62601 0.60538 0.0
C471 C 0.23129 0.63188 0.64341 0.0
C472 C 0.23602 0.6501 0.65355 0.0
C473 C 0.24341 0.66222 0.62638 0.0
C474 C 0.22473 0.61886 0.67337 0.0
C475 C 0.23634 0.61567 0.70502 0.0
C476 C 0.20737 0.60967 0.67107 0.0
C477 C 0.19419 0.61323 0.63915 0.0
C478 C 0.18815 0.6314 0.63103 0.0
C479 C 0.17587 0.6347 0.60069 0.0
C480 C 0.16941 0.61992 0.57843 0.0
C481 C 0.17517 0.60181 0.58657 0.0
C482 C 0.18747 0.59843 0.61687 0.0
C483 C 0.19964 0.5821 0.83386 0.0
C484 C 0.19705 0.56278 0.83107 0.0
C485 C 0.20428 0.59255 0.80161 0.0
C486 C 0.20639 0.58396 0.76584 0.0
C487 C 0.20288 0.56487 0.76237 0.0
C488 C 0.1983 0.55433 0.79479 0.0
C489 C 0.21347 0.59486 0.73295 0.0
C490 C 0.20204 0.59758 0.70078 0.0
C491 C 0.23099 0.60374 0.73475 0.0
C492 C 0.24403 0.60071 0.76719 0.0
C493 C 0.24959 0.58265 0.77748 0.0
C494 C 0.26176 0.57988 0.80824 0.0
C495 C 0.26859 0.59508 0.82876 0.0
C496 C 0.2633 0.61308 0.8185 0.0
C497 C 0.2511 0.61593 0.78782 0.0
H498 H 0.27802 0.59291 0.85255 0.0
H499 H 0.1599 0.6225 0.55494 0.0
H500 H 0.82858 0.78867 0.06616 0.0
H501 H 0.85383 0.79023 0.11343 0.0
H502 H 0.82837 0.8388 0.1637 0.0
H503 H 0.8042 0.83804 0.11464 0.0
H504 H 0.86184 0.84505 0.16257 0.0
H505 H 0.82749 0.79064 0.20255 0.0
H506 H 0.81376 0.75929 0.19826 0.0
H507 H 0.86745 0.73626 0.1737 0.0
H508 H 0.88147 0.76747 0.17734 0.0
H509 H 0.89972 0.83967 0.35192 0.0
H510 H 0.87952 0.83823 0.29574 0.0
H511 H 0.92034 0.80535 0.23629 0.0
H512 H 0.94116 0.80747 0.29156 0.0
H513 H 0.88242 0.79051 0.23842 0.0
H514 H 0.91618 0.84612 0.20632 0.0
H515 H 0.92876 0.87739 0.21877 0.0
H516 H 0.87352 0.8983 0.23592 0.0
H517 H 0.86062 0.86708 0.22411 0.0
C518 C 0.82853 0.79964 0.08739 0.0
C519 C 0.81462 0.81328 0.0869 0.0
C520 C 0.84283 0.80047 0.1146 0.0
C521 C 0.84297 0.81449 0.14273 0.0
C522 C 0.82878 0.82791 0.14231 0.0
C523 C 0.81491 0.82746 0.11438 0.0
C524 C 0.85795 0.81566 0.17218 0.0
C525 C 0.8661 0.83309 0.17936 0.0
C526 C 0.86407 0.80005 0.1936 0.0
C527 C 0.85549 0.78141 0.18985 0.0
C528 C 0.83633 0.77892 0.1958 0.0
C529 C 0.8285 0.76117 0.1936 0.0
C530 C 0.83974 0.74581 0.1858 0.0
C531 C 0.85878 0.74817 0.17979 0.0
C532 C 0.86666 0.76588 0.1819 0.0
C533 C 0.90467 0.83249 0.32668 0.0
C534 C 0.92213 0.82366 0.32647 0.0
C535 C 0.89302 0.83158 0.29468 0.0
C536 C 0.89849 0.82169 0.26201 0.0
C537 C 0.91589 0.81299 0.26139 0.0
C538 C 0.92769 0.81412 0.29315 0.0
C539 C 0.88564 0.81984 0.22913 0.0
C540 C 0.87807 0.80233 0.2213 0.0
C541 C 0.87971 0.83541 0.20776 0.0
C542 C 0.88745 0.85422 0.21464 0.0
C543 C 0.90672 0.85735 0.21306 0.0
C544 C 0.91391 0.87507 0.21994 0.0
C545 C 0.90195 0.88981 0.22821 0.0
C546 C 0.88277 0.88686 0.22953 0.0
C547 C 0.87551 0.86916 0.22271 0.0
H548 H 0.90754 0.90352 0.23353 0.0
H549 H 0.83374 0.73205 0.18457 0.0
H550 H 0.77365 0.33055 0.60673 0.0
H551 H 0.7876 0.35205 0.65277 0.0
H552 H 0.7482 0.3943 0.61901 0.0
H553 H 0.73518 0.37319 0.57106 0.0
H554 H 0.77858 0.4104 0.63253 0.0
H555 H 0.74358 0.36466 0.70263 0.0
H556 H 0.73461 0.33308 0.72312 0.0
H557 H 0.78965 0.32361 0.76639 0.0
H558 H 0.79909 0.35497 0.74559 0.0
H559 H 0.7764 0.45868 0.81393 0.0
H560 H 0.76871 0.43955 0.75844 0.0
H561 H 0.82156 0.4118 0.76762 0.0
H562 H 0.83 0.43162 0.8217 0.0
H563 H 0.7863 0.38859 0.76661 0.0
H564 H 0.81965 0.43644 0.69827 0.0
H565 H 0.82652 0.46881 0.68007 0.0
H566 H 0.77099 0.47525 0.63686 0.0
H567 H 0.76369 0.44298 0.65536 0.0
C568 C 0.76816 0.34452 0.60896 0.0
C569 C 0.75333 0.35025 0.58565 0.0
C570 C 0.77601 0.35675 0.63545 0.0
C571 C 0.76863 0.37468 0.64026 0.0
C572 C 0.75414 0.38056 0.61603 0.0
C573 C 0.74668 0.3685 0.58867 0.0
C574 C 0.77561 0.38713 0.6711 0.0
C575 C 0.78006 0.40561 0.66188 0.0
C576 C 0.77782 0.38094 0.70949 0.0
C577 C 0.7721 0.36211 0.7222 0.0
C578 C 0.75381 0.3558 0.71629 0.0
C579 C 0.74863 0.33795 0.72798 0.0
C580 C 0.76155 0.32636 0.74597 0.0
C581 C 0.77967 0.3326 0.7524 0.0
C582 C 0.78494 0.3504 0.74067 0.0
C583 C 0.78666 0.4489 0.80368 0.0
C584 C 0.80384 0.44674 0.82262 0.0
C585 C 0.78215 0.43788 0.77209 0.0
C586 C 0.79457 0.4243 0.75915 0.0
C587 C 0.81179 0.42219 0.77742 0.0
C588 C 0.81649 0.43346 0.80855 0.0
C589 C 0.78911 0.41165 0.72782 0.0
C590 C 0.78487 0.3932 0.73712 0.0
C591 C 0.7867 0.41797 0.68981 0.0
C592 C 0.79107 0.43736 0.67858 0.0
C593 C 0.80885 0.44482 0.68525 0.0
C594 C 0.81283 0.46313 0.67479 0.0
C595 C 0.79919 0.4741 0.65742 0.0
C596 C 0.78154 0.46675 0.65037 0.0
C597 C 0.77748 0.44844 0.6608 0.0
H598 H 0.8023 0.48828 0.64933 0.0
H599 H 0.7575 0.31256 0.755 0.0
H600 H 0.70219 0.30656 0.3668 0.0
H601 H 0.67811 0.31242 0.31912 0.0
H602 H 0.64121 0.33177 0.40778 0.0
H603 H 0.66537 0.32606 0.45607 0.0
H604 H 0.6248 0.30701 0.35221 0.0
H605 H 0.66167 0.36269 0.35751 0.0
H606 H 0.69114 0.38016 0.35677 0.0
H607 H 0.70211 0.36115 0.24242 0.0
H608 H 0.6729 0.34319 0.24277 0.0
H609 H 0.55939 0.33958 0.21644 0.0
H610 H 0.58069 0.33887 0.27134 0.0
H611 H 0.62699 0.33131 0.1943 0.0
H612 H 0.60583 0.33287 0.13953 0.0
H613 H 0.63751 0.35267 0.2488 0.0
H614 H 0.60507 0.29435 0.24398 0.0
H615 H 0.57767 0.27378 0.24273 0.0
H616 H 0.56047 0.29462 0.35238 0.0
H617 H 0.58766 0.3155 0.35404 0.0
C618 C 0.68892 0.31191 0.37637 0.0
C619 C 0.68575 0.31597 0.41527 0.0
C620 C 0.67521 0.31532 0.349 0.0
C621 C 0.65804 0.32277 0.35995 0.0
C622 C 0.65446 0.32612 0.39886 0.0
C623 C 0.66827 0.32286 0.42633 0.0
C624 C 0.64401 0.3273 0.3304 0.0
C625 C 0.62736 0.31724 0.32997 0.0
C626 C 0.64774 0.34029 0.30092 0.0
C627 C 0.66513 0.35144 0.30031 0.0
C628 C 0.67042 0.3621 0.3323 0.0
C629 C 0.68709 0.3721 0.33195 0.0
C630 C 0.69851 0.37172 0.29961 0.0
C631 C 0.69326 0.3614 0.26748 0.0
C632 C 0.67664 0.35131 0.26774 0.0
C633 C 0.57415 0.33797 0.21139 0.0
C634 C 0.58101 0.33623 0.1739 0.0
C635 C 0.58629 0.33747 0.24269 0.0
C636 C 0.60543 0.33466 0.23705 0.0
C637 C 0.61231 0.3335 0.19946 0.0
C638 C 0.60023 0.33438 0.16817 0.0
C639 C 0.61826 0.33216 0.2701 0.0
C640 C 0.63475 0.3426 0.27124 0.0
C641 C 0.61459 0.31921 0.29981 0.0
C642 C 0.59827 0.30664 0.29892 0.0
C643 C 0.59537 0.29464 0.26769 0.0
C644 C 0.57989 0.28291 0.26693 0.0
C645 C 0.56731 0.28293 0.2974 0.0
C646 C 0.57021 0.29464 0.32876 0.0
C647 C 0.58565 0.30643 0.32964 0.0
H648 H 0.55533 0.27384 0.29676 0.0
H649 H 0.71142 0.37945 0.29943 0.0
H650 H 0.23519 0.13699 0.91523 0.0
H651 H 0.25008 0.11641 0.86936 0.0
H652 H 0.29543 0.15518 0.85721 0.0
H653 H 0.28025 0.17624 0.90254 0.0
H654 H 0.28514 0.14364 0.78961 0.0
H655 H 0.30075 0.11329 0.90572 0.0
H656 H 0.29574 0.09972 0.9698 0.0
H657 H 0.25882 0.05911 0.92157 0.0
H658 H 0.26337 0.07262 0.85725 0.0
H659 H 0.33375 0.07571 0.67688 0.0
H660 H 0.32658 0.09601 0.73104 0.0
H661 H 0.27236 0.07104 0.74069 0.0
H662 H 0.27893 0.05134 0.68558 0.0
H663 H 0.29203 0.07596 0.81259 0.0
H664 H 0.27468 0.10998 0.69733 0.0
H665 H 0.28096 0.12387 0.63399 0.0
H666 H 0.32385 0.15783 0.68317 0.0
H667 H 0.318 0.14392 0.74675 0.0
C668 C 0.24841 0.14113 0.90311 0.0
C669 C 0.25651 0.15829 0.91259 0.0
C670 C 0.25698 0.12926 0.87697 0.0
C671 C 0.27405 0.13407 0.86021 0.0
C672 C 0.2823 0.15113 0.86984 0.0
C673 C 0.27361 0.16314 0.8958 0.0
C674 C 0.28267 0.12162 0.83126 0.0
C675 C 0.28702 0.12892 0.795 0.0
C676 C 0.28502 0.10235 0.83803 0.0
C677 C 0.28231 0.09406 0.87665 0.0
C678 C 0.29146 0.10154 0.90879 0.0
C679 C 0.28871 0.09385 0.94517 0.0
C680 C 0.27694 0.07858 0.94977 0.0
C681 C 0.26793 0.07094 0.91797 0.0
C682 C 0.2706 0.0786 0.88153 0.0
C683 C 0.32023 0.07459 0.69025 0.0
C684 C 0.3069 0.06187 0.67651 0.0
C685 C 0.31624 0.08611 0.72143 0.0
C686 C 0.29894 0.08502 0.73975 0.0
C687 C 0.28584 0.07199 0.72705 0.0
C688 C 0.2897 0.06065 0.69559 0.0
C689 C 0.29404 0.09799 0.77109 0.0
C690 C 0.29041 0.09075 0.80766 0.0
C691 C 0.29262 0.11734 0.76482 0.0
C692 C 0.29607 0.12575 0.72667 0.0
C693 C 0.28557 0.12028 0.69456 0.0
C694 C 0.28903 0.12818 0.65863 0.0
C695 C 0.30284 0.14168 0.65453 0.0
C696 C 0.31318 0.14734 0.68637 0.0
C697 C 0.3098 0.13946 0.72236 0.0
H698 H 0.30549 0.14778 0.62669 0.0
H699 H 0.27483 0.07265 0.97796 0.0
H700 H 0.32783 0.66293 0.4407 0.0
H701 H 0.35341 0.66161 0.39457 0.0
H702 H 0.33356 0.71209 0.34158 0.0
H703 H 0.3076 0.71298 0.38642 0.0
H704 H 0.34038 0.6884 0.28919 0.0
H705 H 0.37403 0.70945 0.40018 0.0
H706 H 0.38494 0.70825 0.46721 0.0
H707 H 0.41095 0.6556 0.44605 0.0
H708 H 0.39999 0.65638 0.37899 0.0
H709 H 0.41597 0.71455 0.17644 0.0
H710 H 0.39558 0.71369 0.23224 0.0
H711 H 0.4105 0.65654 0.25257 0.0
H712 H 0.43071 0.6571 0.19594 0.0
H713 H 0.40713 0.68087 0.32168 0.0
H714 H 0.3734 0.66137 0.2087 0.0
H715 H 0.36314 0.66448 0.1415 0.0
H716 H 0.3376 0.71684 0.16756 0.0
H717 H 0.34797 0.71418 0.23482 0.0
C718 C 0.32906 0.67381 0.41937 0.0
C719 C 0.31568 0.68798 0.4169 0.0
C720 C 0.34373 0.6731 0.39315 0.0
C721 C 0.34551 0.68683 0.3647 0.0
C722 C 0.33243 0.70128 0.36307 0.0
C723 C 0.31761 0.70178 0.38872 0.0
C724 C 0.3603 0.68572 0.33516 0.0
C725 C 0.35497 0.68697 0.2965 0.0
C726 C 0.37934 0.68333 0.34445 0.0
C727 C 0.38602 0.68288 0.38469 0.0
C728 C 0.38196 0.69756 0.4099 0.0
C729 C 0.38817 0.69696 0.44789 0.0
C730 C 0.39859 0.68183 0.46091 0.0
C731 C 0.40286 0.6673 0.43594 0.0
C732 C 0.39667 0.66781 0.39793 0.0
C733 C 0.41498 0.70179 0.19279 0.0
C734 C 0.42468 0.68578 0.18136 0.0
C735 C 0.40345 0.70138 0.22482 0.0
C736 C 0.40145 0.68501 0.24616 0.0
C737 C 0.41194 0.66931 0.23638 0.0
C738 C 0.42346 0.66966 0.20408 0.0
C739 C 0.38709 0.68399 0.27628 0.0
C740 C 0.39249 0.68223 0.31475 0.0
C741 C 0.36809 0.68616 0.26701 0.0
C742 C 0.3616 0.68764 0.22671 0.0
C743 C 0.36571 0.67361 0.20003 0.0
C744 C 0.35986 0.67529 0.16194 0.0
C745 C 0.34976 0.69087 0.15025 0.0
C746 C 0.34544 0.70479 0.17665 0.0
C747 C 0.35129 0.70319 0.21477 0.0
H748 H 0.34525 0.69215 0.12074 0.0
H749 H 0.40338 0.6814 0.49033 0.0
H750 H 0.71979 0.83646 0.91629 0.0
H751 H 0.70423 0.85827 0.87279 0.0
H752 H 0.75644 0.88641 0.85387 0.0
H753 H 0.77167 0.86542 0.89879 0.0
H754 H 0.73106 0.9109 0.85866 0.0
H755 H 0.7359 0.8523 0.78878 0.0
H756 H 0.73007 0.81876 0.78059 0.0
H757 H 0.67125 0.82826 0.78713 0.0
H758 H 0.67677 0.86187 0.79554 0.0
H759 H 0.72714 0.94904 0.67387 0.0
H760 H 0.7328 0.9303 0.73108 0.0
H761 H 0.67422 0.91829 0.73937 0.0
H762 H 0.66846 0.93696 0.68154 0.0
H763 H 0.69636 0.88682 0.7462 0.0
H764 H 0.6927 0.94689 0.80305 0.0
H765 H 0.69957 0.98026 0.80995 0.0
H766 H 0.75738 0.9679 0.82691 0.0
H767 H 0.7509 0.93446 0.81955 0.0
C768 C 0.72786 0.84738 0.90289 0.0
C769 C 0.74693 0.84923 0.91076 0.0
C770 C 0.719 0.85978 0.87792 0.0
C771 C 0.7292 0.87384 0.85944 0.0
C772 C 0.74821 0.87576 0.86778 0.0
C773 C 0.75694 0.8637 0.89339 0.0
C774 C 0.72047 0.8864 0.8307 0.0
C775 C 0.72357 0.90559 0.83398 0.0
C776 C 0.71007 0.87962 0.79913 0.0
C777 C 0.70675 0.85953 0.79311 0.0
C778 C 0.72174 0.84721 0.78854 0.0
C779 C 0.71849 0.8282 0.78385 0.0
C780 C 0.7003 0.82138 0.78342 0.0
C781 C 0.68533 0.83357 0.78748 0.0
C782 C 0.6885 0.8526 0.79213 0.0
C783 C 0.71546 0.94244 0.6879 0.0
C784 C 0.69737 0.94442 0.6732 0.0
C785 C 0.71868 0.93186 0.72074 0.0
C786 C 0.7039 0.92304 0.73964 0.0
C787 C 0.68579 0.92506 0.72526 0.0
C788 C 0.68252 0.9358 0.69244 0.0
C789 C 0.70773 0.91114 0.77345 0.0
C790 C 0.70361 0.89213 0.7712 0.0
C791 C 0.71737 0.91804 0.80579 0.0
C792 C 0.72131 0.93816 0.81054 0.0
C793 C 0.7069 0.95129 0.808 0.0
C794 C 0.71072 0.97022 0.81203 0.0
C795 C 0.7289 0.9762 0.81882 0.0
C796 C 0.7433 0.96325 0.82166 0.0
C797 C 0.73955 0.9443 0.81762 0.0
H798 H 0.73184 0.99086 0.82191 0.0
H799 H 0.69782 0.80666 0.77987 0.0
H800 H 0.8381 0.82253 0.95556 0.0
H801 H 0.86405 0.82468 0.91022 0.0
H802 H 0.82603 0.81589 0.8161 0.0
H803 H 0.8004 0.81303 0.86095 0.0
H804 H 0.85528 0.79645 0.8045 0.0
H805 H 0.84395 0.86004 0.84251 0.0
H806 H 0.84102 0.88583 0.88859 0.0
H807 H 0.89746 0.87749 0.92488 0.0
H808 H 0.90065 0.85149 0.87931 0.0
H809 H 0.89925 0.83414 0.64319 0.0
H810 H 0.87904 0.832 0.69933 0.0
H811 H 0.92703 0.82662 0.77269 0.0
H812 H 0.94744 0.82871 0.71641 0.0
H813 H 0.89672 0.85151 0.80017 0.0
H814 H 0.90789 0.78933 0.75496 0.0
H815 H 0.90978 0.76495 0.70556 0.0
H816 H 0.85186 0.77221 0.67978 0.0
H817 H 0.8497 0.79686 0.72862 0.0
C818 C 0.83535 0.82101 0.92518 0.0
C819 C 0.81721 0.81762 0.91184 0.0
C820 C 0.85015 0.82233 0.8993 0.0
C821 C 0.84698 0.82065 0.85966 0.0
C822 C 0.82888 0.81715 0.8465 0.0
C823 C 0.8142 0.81555 0.87225 0.0
C824 C 0.86229 0.82249 0.8314 0.0
C825 C 0.86424 0.80856 0.80355 0.0
C826 C 0.87435 0.83805 0.83057 0.0
C827 C 0.87247 0.8537 0.85785 0.0
C828 C 0.85569 0.86362 0.86052 0.0
C829 C 0.85399 0.87829 0.88651 0.0
C830 C 0.86903 0.88325 0.90973 0.0
C831 C 0.88581 0.8736 0.90693 0.0
C832 C 0.88758 0.85891 0.88102 0.0
C833 C 0.90552 0.83286 0.67133 0.0
C834 C 0.92489 0.83155 0.67549 0.0
C835 C 0.89397 0.83154 0.70329 0.0
C836 C 0.9016 0.82903 0.73997 0.0
C837 C 0.92095 0.82855 0.74453 0.0
C838 C 0.93253 0.82964 0.71244 0.0
C839 C 0.88917 0.82578 0.77298 0.0
C840 C 0.88785 0.83934 0.80163 0.0
C841 C 0.87748 0.81003 0.77432 0.0
C842 C 0.87868 0.79505 0.74525 0.0
C843 C 0.89559 0.78583 0.73856 0.0
C844 C 0.8967 0.77194 0.71069 0.0
C845 C 0.88096 0.76706 0.68949 0.0
C846 C 0.86405 0.77602 0.6962 0.0
C847 C 0.86287 0.78994 0.724 0.0
H848 H 0.88185 0.7563 0.66792 0.0
H849 H 0.86769 0.89461 0.92984 0.0
H850 H 0.77871 0.32975 0.40413 0.0
H851 H 0.79149 0.34961 0.35338 0.0
H852 H 0.74383 0.38566 0.362 0.0
H853 H 0.73105 0.36612 0.41253 0.0
H854 H 0.75153 0.37465 0.28758 0.0
H855 H 0.78412 0.3995 0.3975 0.0
H856 H 0.80438 0.39742 0.45443 0.0
H857 H 0.849 0.37703 0.38456 0.0
H858 H 0.82891 0.37875 0.32726 0.0
H859 H 0.77579 0.45199 0.17662 0.0
H860 H 0.76709 0.43152 0.2292 0.0
H861 H 0.82049 0.40449 0.22273 0.0
H862 H 0.82979 0.42575 0.17157 0.0
H863 H 0.81141 0.40864 0.29442 0.0
H864 H 0.78025 0.38523 0.184 0.0
H865 H 0.76022 0.38555 0.12659 0.0
H866 H 0.7133 0.40076 0.19566 0.0
H867 H 0.73311 0.40092 0.25339 0.0
C868 C 0.77105 0.342 0.39542 0.0
C869 C 0.75387 0.34634 0.41238 0.0
C870 C 0.77839 0.35334 0.36653 0.0
C871 C 0.7686 0.3691 0.35407 0.0
C872 C 0.75159 0.37355 0.37125 0.0
C873 C 0.74436 0.36238 0.40027 0.0
C874 C 0.77558 0.38067 0.3221 0.0
C875 C 0.76452 0.38227 0.28914 0.0
C876 C 0.79284 0.39 0.32378 0.0
C877 C 0.80495 0.38905 0.35817 0.0
C878 C 0.7982 0.39441 0.39433 0.0
C879 C 0.80967 0.39334 0.42666 0.0
C880 C 0.82795 0.38704 0.42314 0.0
C881 C 0.83483 0.38187 0.38725 0.0
C882 C 0.82341 0.38291 0.35484 0.0
C883 C 0.78586 0.44195 0.18676 0.0
C884 C 0.80351 0.44054 0.16966 0.0
C885 C 0.78074 0.43004 0.21652 0.0
C886 C 0.79297 0.41617 0.2294 0.0
C887 C 0.81075 0.41497 0.21307 0.0
C888 C 0.81598 0.42704 0.18354 0.0
C889 C 0.78716 0.40299 0.25993 0.0
C890 C 0.79845 0.401 0.2926 0.0
C891 C 0.77015 0.39311 0.25782 0.0
C892 C 0.75824 0.39329 0.223 0.0
C893 C 0.76571 0.38885 0.18691 0.0
C894 C 0.75438 0.38892 0.1543 0.0
C895 C 0.73552 0.39323 0.15745 0.0
C896 C 0.72793 0.39747 0.19323 0.0
C897 C 0.7392 0.39749 0.22591 0.0
H898 H 0.72677 0.39324 0.13218 0.0
H899 H 0.83681 0.38622 0.44819 0.0
H900 H 0.16555 0.18235 0.95742 0.0
H901 H 0.13931 0.18081 0.91267 0.0
H902 H 0.17592 0.19518 0.81928 0.0
H903 H 0.2019 0.19735 0.86374 0.0
H904 H 0.1453 0.21352 0.81202 0.0
H905 H 0.16085 0.14932 0.83861 0.0
H906 H 0.1658 0.12208 0.88035 0.0
H907 H 0.10938 0.12562 0.91965 0.0
H908 H 0.10417 0.15303 0.87842 0.0
H909 H 0.10638 0.17659 0.64536 0.0
H910 H 0.12503 0.17798 0.7037 0.0
H911 H 0.07527 0.18244 0.77166 0.0
H912 H 0.05634 0.18185 0.71306 0.0
H913 H 0.10755 0.15619 0.79872 0.0
H914 H 0.09211 0.21931 0.76425 0.0
H915 H 0.08845 0.24522 0.71858 0.0
H916 H 0.1465 0.24234 0.69093 0.0
H917 H 0.15044 0.21618 0.73599 0.0
C918 C 0.16796 0.18523 0.92734 0.0
C919 C 0.18582 0.18992 0.91411 0.0
C920 C 0.15297 0.18427 0.90178 0.0
C921 C 0.15567 0.18767 0.8625 0.0
C922 C 0.17346 0.19256 0.84945 0.0
C923 C 0.18834 0.19375 0.87494 0.0
C924 C 0.14018 0.18608 0.83449 0.0
C925 C 0.1371 0.20095 0.80921 0.0
C926 C 0.12911 0.16987 0.83125 0.0
C927 C 0.13219 0.15334 0.8558 0.0
C928 C 0.14954 0.14436 0.85636 0.0
C929 C 0.15239 0.12888 0.87988 0.0
C930 C 0.13793 0.12216 0.90273 0.0
C931 C 0.12058 0.13087 0.90199 0.0
C932 C 0.11767 0.14636 0.87854 0.0
C933 C 0.09933 0.17791 0.67263 0.0
C934 C 0.07986 0.17946 0.67442 0.0
C935 C 0.11002 0.17852 0.70594 0.0
C936 C 0.10148 0.18045 0.74177 0.0
C937 C 0.08204 0.18091 0.74413 0.0
C938 C 0.07128 0.18052 0.71064 0.0
C939 C 0.11319 0.1834 0.77603 0.0
C940 C 0.11554 0.16885 0.8023 0.0
C941 C 0.12379 0.1998 0.77999 0.0
C942 C 0.12153 0.2157 0.75327 0.0
C943 C 0.10406 0.2241 0.7482 0.0
C944 C 0.10194 0.23885 0.72246 0.0
C945 C 0.11722 0.2454 0.70181 0.0
C946 C 0.13467 0.23725 0.70693 0.0
C947 C 0.13686 0.22247 0.7326 0.0
H948 H 0.11556 0.25682 0.68189 0.0
H949 H 0.14016 0.11018 0.92094 0.0
H950 H 0.22875 0.67877 0.38445 0.0
H951 H 0.21308 0.65746 0.34061 0.0
H952 H 0.23853 0.61087 0.39829 0.0
H953 H 0.25472 0.63213 0.44136 0.0
H954 H 0.24239 0.60677 0.32566 0.0
H955 H 0.19086 0.62093 0.40577 0.0
H956 H 0.16898 0.6409 0.44107 0.0
H957 H 0.15061 0.66532 0.33522 0.0
H958 H 0.17256 0.64563 0.29927 0.0
H959 H 0.19216 0.54041 0.21739 0.0
H960 H 0.1997 0.55895 0.27437 0.0
H961 H 0.1881 0.60918 0.21128 0.0
H962 H 0.18073 0.59074 0.15424 0.0
H963 H 0.17555 0.60933 0.29083 0.0
H964 H 0.23011 0.59651 0.21314 0.0
H965 H 0.25188 0.57577 0.1794 0.0
H966 H 0.264 0.54757 0.28509 0.0
H967 H 0.24205 0.56799 0.31935 0.0
C968 C 0.23087 0.66398 0.38803 0.0
C969 C 0.24309 0.65715 0.41622 0.0
C970 C 0.2218 0.65178 0.36308 0.0
C971 C 0.22446 0.6325 0.36631 0.0
C972 C 0.23628 0.62567 0.39512 0.0
C973 C 0.24553 0.63785 0.41974 0.0
C974 C 0.21597 0.61956 0.33807 0.0
C975 C 0.22769 0.60711 0.31874 0.0
C976 C 0.19684 0.62014 0.32842 0.0
C977 C 0.18347 0.6319 0.34985 0.0
C978 C 0.18225 0.63064 0.39003 0.0
C979 C 0.16981 0.6419 0.41016 0.0
C980 C 0.15845 0.65442 0.39041 0.0
C981 C 0.15944 0.65564 0.35047 0.0
C982 C 0.17185 0.6444 0.3302 0.0
C983 C 0.19081 0.55538 0.21602 0.0
C984 C 0.18601 0.56419 0.18144 0.0
C985 C 0.19515 0.56593 0.24848 0.0
C986 C 0.19454 0.58542 0.24688 0.0
C987 C 0.1886 0.59417 0.21308 0.0
C988 C 0.18452 0.58365 0.18052 0.0
C989 C 0.20201 0.59673 0.2788 0.0
C990 C 0.19016 0.60888 0.29847 0.0
C991 C 0.22098 0.59578 0.2892 0.0
C992 C 0.23428 0.58362 0.26869 0.0
C993 C 0.23729 0.58578 0.22911 0.0
C994 C 0.24969 0.57411 0.20991 0.0
C995 C 0.25928 0.56032 0.23007 0.0
C996 C 0.25653 0.55823 0.2695 0.0
C997 C 0.24412 0.56985 0.28882 0.0
H998 H 0.26887 0.5513 0.21516 0.0
H999 H 0.14884 0.66314 0.40605 0.0
H1000 H 0.32173 0.66178 0.57777 0.0
H1001 H 0.34723 0.66084 0.62398 0.0
H1002 H 0.33903 0.71894 0.64868 0.0
H1003 H 0.31362 0.72011 0.60219 0.0
H1004 H 0.37578 0.71013 0.64406 0.0
H1005 H 0.32119 0.68654 0.70694 0.0
H1006 H 0.29401 0.66602 0.71469 0.0
H1007 H 0.32982 0.61835 0.71717 0.0
H1008 H 0.35721 0.63858 0.70881 0.0
H1009 H 0.41512 0.71842 0.82946 0.0
H1010 H 0.39506 0.7177 0.77289 0.0
H1011 H 0.40752 0.65961 0.75707 0.0
H1012 H 0.42737 0.66016 0.81425 0.0
H1013 H 0.37032 0.66665 0.754 0.0
H1014 H 0.42535 0.69116 0.69641 0.0
H1015 H 0.45213 0.71228 0.68983 0.0
H1016 H 0.41519 0.75881 0.67886 0.0
H1017 H 0.38817 0.738 0.68593 0.0
C1018 C 0.32541 0.67441 0.59281 0.0
C1019 C 0.31548 0.69097 0.5866 0.0
C1020 C 0.33997 0.67382 0.61926 0.0
C1021 C 0.34482 0.68975 0.64011 0.0
C1022 C 0.33545 0.70648 0.63293 0.0
C1023 C 0.32088 0.70709 0.60646 0.0
C1024 C 0.35916 0.68882 0.67054 0.0
C1025 C 0.37454 0.70073 0.66828 0.0
C1026 C 0.35769 0.67625 0.70164 0.0
C1027 C 0.34124 0.66406 0.70681 0.0
C1028 C 0.32326 0.67167 0.7088 0.0
C1029 C 0.30782 0.6601 0.71336 0.0
C1030 C 0.31018 0.64089 0.71632 0.0
C1031 C 0.328 0.63323 0.71481 0.0
C1032 C 0.3435 0.64474 0.71017 0.0
C1033 C 0.41362 0.7055 0.81387 0.0
C1034 C 0.42275 0.68932 0.82633 0.0
C1035 C 0.40229 0.70515 0.78138 0.0
C1036 C 0.39993 0.68863 0.76064 0.0
C1037 C 0.40923 0.67251 0.77264 0.0
C1038 C 0.42064 0.67287 0.8051 0.0
C1039 C 0.38692 0.68806 0.72772 0.0
C1040 C 0.37172 0.67588 0.72957 0.0
C1041 C 0.38851 0.70046 0.69639 0.0
C1042 C 0.40473 0.71302 0.69201 0.0
C1043 C 0.42293 0.70592 0.6929 0.0
C1044 C 0.43816 0.71783 0.68902 0.0
C1045 C 0.43536 0.73688 0.68401 0.0
C1046 C 0.41733 0.74405 0.68277 0.0
C1047 C 0.40206 0.7322 0.68667 0.0
H1048 H 0.44717 0.74608 0.68101 0.0
H1049 H 0.2982 0.63195 0.71988 0.0
H1050 H 0.73748 0.8275 0.11862 0.0
H1051 H 0.72306 0.84835 0.16492 0.0
H1052 H 0.74029 0.8956 0.09753 0.0
H1053 H 0.75435 0.87477 0.05047 0.0
H1054 H 0.73951 0.87212 0.20869 0.0
H1055 H 0.71141 0.9323 0.11396 0.0
H1056 H 0.69781 0.93682 0.04964 0.0
H1057 H 0.67834 0.88045 0.04966 0.0
H1058 H 0.69158 0.87567 0.11417 0.0
H1059 H 0.72943 0.95122 0.32107 0.0
H1060 H 0.73662 0.93199 0.2654 0.0
H1061 H 0.67838 0.91961 0.25101 0.0
H1062 H 0.67106 0.93892 0.3069 0.0
H1063 H 0.69647 0.92434 0.1813 0.0
H1064 H 0.70419 0.8894 0.29714 0.0
H1065 H 0.71586 0.88345 0.36253 0.0
H1066 H 0.77206 0.88584 0.32159 0.0
H1067 H 0.76072 0.89211 0.25603 0.0
C1068 C 0.73804 0.84233 0.11341 0.0
C1069 C 0.74718 0.84949 0.08102 0.0
C1070 C 0.72979 0.85422 0.13992 0.0
C1071 C 0.73054 0.87354 0.13471 0.0
C1072 C 0.73926 0.88074 0.10189 0.0
C1073 C 0.74738 0.86881 0.0751 0.0
C1074 C 0.72345 0.88607 0.16509 0.0
C1075 C 0.73004 0.88348 0.2026 0.0
C1076 C 0.71091 0.90078 0.15735 0.0
C1077 C 0.70265 0.90359 0.11877 0.0
C1078 C 0.70415 0.92089 0.10031 0.0
C1079 C 0.69652 0.9235 0.06381 0.0
C1080 C 0.68727 0.90891 0.04553 0.0
C1081 C 0.68557 0.89171 0.06379 0.0
C1082 C 0.69316 0.88905 0.1003 0.0
C1083 C 0.71814 0.94449 0.30591 0.0
C1084 C 0.69971 0.94632 0.31866 0.0
C1085 C 0.72226 0.93358 0.27405 0.0
C1086 C 0.70806 0.92415 0.25452 0.0
C1087 C 0.68953 0.92677 0.26577 0.0
C1088 C 0.68537 0.93778 0.29766 0.0
C1089 C 0.71283 0.91048 0.22442 0.0
C1090 C 0.70586 0.9129 0.18715 0.0
C1091 C 0.72473 0.89533 0.23241 0.0
C1092 C 0.73161 0.89138 0.27174 0.0
C1093 C 0.71904 0.88879 0.30213 0.0
C1094 C 0.72559 0.88535 0.33922 0.0
C1095 C 0.74469 0.88431 0.34623 0.0
C1096 C 0.75727 0.88667 0.31613 0.0
C1097 C 0.75079 0.89015 0.27899 0.0
H1098 H 0.74973 0.88164 0.37496 0.0
H1099 H 0.68139 0.91095 0.01725 0.0
H1100 H 0.67625 0.33994 0.57435 0.0
H1101 H 0.65129 0.34102 0.62157 0.0
H1102 H 0.66643 0.28638 0.66165 0.0
H1103 H 0.69132 0.28502 0.61406 0.0
H1104 H 0.62872 0.29083 0.65708 0.0
H1105 H 0.68107 0.32464 0.70844 0.0
H1106 H 0.70548 0.34867 0.707 0.0
H1107 H 0.66392 0.39124 0.69886 0.0
H1108 H 0.63924 0.36745 0.69945 0.0
H1109 H 0.58673 0.29165 0.84056 0.0
H1110 H 0.60779 0.28998 0.78583 0.0
H1111 H 0.59406 0.34648 0.75556 0.0
H1112 H 0.57315 0.3483 0.81075 0.0
H1113 H 0.63013 0.3417 0.75288 0.0
H1114 H 0.57771 0.30882 0.70315 0.0
H1115 H 0.55279 0.28532 0.70266 0.0
H1116 H 0.59349 0.24175 0.70622 0.0
H1117 H 0.61867 0.265 0.70727 0.0
C1118 C 0.67423 0.32808 0.59301 0.0
C1119 C 0.68594 0.31247 0.59071 0.0
C1120 C 0.65997 0.32875 0.62003 0.0
C1121 C 0.65722 0.31391 0.6455 0.0
C1122 C 0.66838 0.29801 0.64233 0.0
C1123 C 0.68263 0.29729 0.61519 0.0
C1124 C 0.64318 0.31526 0.67638 0.0
C1125 C 0.62911 0.30182 0.67831 0.0
C1126 C 0.64345 0.32992 0.70339 0.0
C1127 C 0.6583 0.34424 0.70361 0.0
C1128 C 0.67713 0.33911 0.70607 0.0
C1129 C 0.69102 0.35269 0.70544 0.0
C1130 C 0.68626 0.37145 0.7028 0.0
C1131 C 0.66759 0.37669 0.70086 0.0
C1132 C 0.65364 0.36317 0.70134 0.0
C1133 C 0.588 0.30363 0.82192 0.0
C1134 C 0.57825 0.32009 0.82983 0.0
C1135 C 0.60003 0.30265 0.79062 0.0
C1136 C 0.60234 0.31803 0.76626 0.0
C1137 C 0.5925 0.33444 0.77395 0.0
C1138 C 0.58058 0.33548 0.80547 0.0
C1139 C 0.61561 0.31721 0.73377 0.0
C1140 C 0.62961 0.33074 0.73157 0.0
C1141 C 0.61518 0.3027 0.70639 0.0
C1142 C 0.60007 0.28867 0.70563 0.0
C1143 C 0.58135 0.29423 0.70412 0.0
C1144 C 0.56718 0.28096 0.7037 0.0
C1145 C 0.57155 0.26206 0.7045 0.0
C1146 C 0.59012 0.2564 0.70564 0.0
C1147 C 0.60435 0.26962 0.7061 0.0
H1148 H 0.56056 0.2518 0.70417 0.0
H1149 H 0.69705 0.38193 0.70231 0.0
H1150 H 0.25826 0.17759 0.13012 0.0
H1151 H 0.27251 0.15627 0.17578 0.0
H1152 H 0.26867 0.11189 0.09319 0.0
H1153 H 0.25411 0.13314 0.04724 0.0
H1154 H 0.25597 0.10121 0.1623 0.0
H1155 H 0.31051 0.13077 0.11505 0.0
H1156 H 0.33051 0.15708 0.09654 0.0
H1157 H 0.33057 0.17664 0.21278 0.0
H1158 H 0.31032 0.1506 0.23192 0.0
H1159 H 0.30538 0.04027 0.28667 0.0
H1160 H 0.29781 0.05911 0.23032 0.0
H1161 H 0.29749 0.10838 0.30048 0.0
H1162 H 0.30485 0.08967 0.35694 0.0
H1163 H 0.31466 0.11449 0.23193 0.0
H1164 H 0.25734 0.08714 0.27686 0.0
H1165 H 0.23676 0.06127 0.29542 0.0
H1166 H 0.24188 0.03783 0.18279 0.0
H1167 H 0.26272 0.06345 0.16371 0.0
C1168 C 0.26054 0.16334 0.12145 0.0
C1169 C 0.25495 0.15707 0.08503 0.0
C1170 C 0.26881 0.15118 0.14757 0.0
C1171 C 0.27182 0.13253 0.13778 0.0
C1172 C 0.2665 0.12625 0.10129 0.0
C1173 C 0.25821 0.13842 0.07506 0.0
C1174 C 0.2796 0.11946 0.16654 0.0
C1175 C 0.26901 0.1039 0.17694 0.0
C1176 C 0.29644 0.12317 0.18616 0.0
C1177 C 0.30878 0.13878 0.17487 0.0
C1178 C 0.31468 0.14075 0.13663 0.0
C1179 C 0.32608 0.15561 0.12603 0.0
C1180 C 0.33178 0.16854 0.15345 0.0
C1181 C 0.32614 0.16661 0.19156 0.0
C1182 C 0.31471 0.15179 0.20232 0.0
C1183 C 0.30367 0.05511 0.29012 0.0
C1184 C 0.30561 0.06344 0.32638 0.0
C1185 C 0.29941 0.06586 0.25787 0.0
C1186 C 0.29691 0.08512 0.2613 0.0
C1187 C 0.29942 0.09355 0.29717 0.0
C1188 C 0.30367 0.08283 0.32942 0.0
C1189 C 0.29088 0.09644 0.22797 0.0
C1190 C 0.30178 0.11168 0.21681 0.0
C1191 C 0.27432 0.09245 0.20762 0.0
C1192 C 0.26176 0.07708 0.21901 0.0
C1193 C 0.2542 0.07639 0.25615 0.0
C1194 C 0.24247 0.06179 0.26675 0.0
C1195 C 0.23806 0.04788 0.24034 0.0
C1196 C 0.24534 0.04859 0.20324 0.0
C1197 C 0.2571 0.06315 0.19251 0.0
H1198 H 0.22897 0.03659 0.24859 0.0
H1199 H 0.3406 0.18004 0.14517 0.0
H1200 H 0.23388 0.26467 0.04396 0.0
H1201 H 0.22327 0.29671 0.04382 0.0
H1202 H 0.18808 0.28531 0.94634 0.0
H1203 H 0.19924 0.25312 0.94547 0.0
H1204 H 0.20412 0.31722 0.93631 0.0
H1205 H 0.16998 0.29092 0.0383 0.0
H1206 H 0.16426 0.27269 0.09698 0.0
H1207 H 0.19928 0.30962 0.16123 0.0
H1208 H 0.20548 0.3279 0.10279 0.0
H1209 H 0.15896 0.40616 0.97447 0.0
H1210 H 0.16277 0.37248 0.97018 0.0
H1211 H 0.21456 0.37626 0.03173 0.0
H1212 H 0.21168 0.40994 0.034 0.0
H1213 H 0.1848 0.34758 0.05756 0.0
H1214 H 0.221 0.37088 0.9486 0.0
H1215 H 0.22428 0.3888 0.88868 0.0
H1216 H 0.18075 0.35664 0.83677 0.0
H1217 H 0.17704 0.33872 0.89666 0.0
C1218 C 0.22382 0.2689 0.02252 0.0
C1219 C 0.21734 0.25629 0.99481 0.0
C1220 C 0.21766 0.28725 0.02263 0.0
C1221 C 0.20454 0.29339 0.99561 0.0
C1222 C 0.19813 0.28089 0.96763 0.0
C1223 C 0.2045 0.2625 0.96718 0.0
C1224 C 0.19808 0.31301 0.99628 0.0
C1225 C 0.19955 0.32372 0.96271 0.0
C1226 C 0.19205 0.32161 0.03065 0.0
C1227 C 0.18829 0.31073 0.06604 0.0
C1228 C 0.17657 0.29509 0.06487 0.0
C1229 C 0.17323 0.28475 0.09811 0.0
C1230 C 0.18142 0.28998 0.1328 0.0
C1231 C 0.19294 0.30558 0.13433 0.0
C1232 C 0.19636 0.31596 0.10116 0.0
C1233 C 0.17133 0.39995 0.98665 0.0
C1234 C 0.18501 0.41098 0.0046 0.0
C1235 C 0.17336 0.38065 0.98445 0.0
C1236 C 0.18891 0.37197 0.00074 0.0
C1237 C 0.20239 0.38276 0.01926 0.0
C1238 C 0.2006 0.40205 0.02077 0.0
C1239 C 0.19142 0.35164 0.99805 0.0
C1240 C 0.18913 0.34088 0.0312 0.0
C1241 C 0.19626 0.34293 0.9632 0.0
C1242 C 0.19857 0.35365 0.92723 0.0
C1243 C 0.21199 0.36778 0.92455 0.0
C1244 C 0.21396 0.3779 0.89056 0.0
C1245 C 0.20268 0.37391 0.85898 0.0
C1246 C 0.18945 0.35975 0.86128 0.0
C1247 C 0.18741 0.3496 0.89523 0.0
H1248 H 0.20423 0.38176 0.83269 0.0
H1249 H 0.17881 0.28196 0.1585 0.0
H1250 H 0.2086 0.71282 0.562 0.0
H1251 H 0.17679 0.72473 0.5618 0.0
H1252 H 0.18338 0.7425 0.4444 0.0
H1253 H 0.21521 0.7309 0.44445 0.0
H1254 H 0.1683 0.76929 0.48632 0.0
H1255 H 0.15747 0.7047 0.46594 0.0
H1256 H 0.16007 0.67113 0.47875 0.0
H1257 H 0.13397 0.67849 0.58829 0.0
H1258 H 0.13146 0.7122 0.5764 0.0
H1259 H 0.07314 0.78499 0.44111 0.0
H1260 H 0.10425 0.77116 0.44271 0.0
H1261 H 0.09954 0.76331 0.56493 0.0
H1262 H 0.06843 0.77729 0.56356 0.0
H1263 H 0.1133 0.7314 0.52171 0.0
H1264 H 0.12435 0.79696 0.53906 0.0
H1265 H 0.12141 0.83013 0.52246 0.0
H1266 H 0.14687 0.81995 0.41322 0.0
H1267 H 0.14971 0.78665 0.42895 0.0
C1268 C 0.20327 0.7192 0.53609 0.0
C1269 C 0.21449 0.72099 0.5033 0.0
C1270 C 0.18506 0.72592 0.53598 0.0
C1271 C 0.17771 0.73441 0.50301 0.0
C1272 C 0.18881 0.73604 0.47017 0.0
C1273 C 0.207 0.72937 0.47026 0.0
C1274 C 0.15864 0.74212 0.50302 0.0
C1275 C 0.15627 0.76092 0.4936 0.0
C1276 C 0.14298 0.73128 0.51314 0.0
C1277 C 0.14444 0.71101 0.52044 0.0
C1278 C 0.15242 0.6992 0.49291 0.0
C1279 C 0.15385 0.68014 0.49996 0.0
C1280 C 0.1472 0.67269 0.53431 0.0
C1281 C 0.13912 0.68429 0.56169 0.0
C1282 C 0.13768 0.70338 0.55481 0.0
C1283 C 0.07874 0.78025 0.46826 0.0
C1284 C 0.06848 0.78224 0.50224 0.0
C1285 C 0.09647 0.77241 0.46915 0.0
C1286 C 0.10412 0.76629 0.50395 0.0
C1287 C 0.0938 0.76797 0.53784 0.0
C1288 C 0.07616 0.77605 0.53705 0.0
C1289 C 0.12308 0.75847 0.50494 0.0
C1290 C 0.1254 0.73969 0.51454 0.0
C1291 C 0.13869 0.76925 0.49448 0.0
C1292 C 0.13706 0.78928 0.48503 0.0
C1293 C 0.12916 0.80176 0.51135 0.0
C1294 C 0.12755 0.82059 0.50213 0.0
C1295 C 0.1339 0.82713 0.46677 0.0
C1296 C 0.14193 0.81486 0.44059 0.0
C1297 C 0.14356 0.79601 0.44965 0.0
H1298 H 0.13264 0.84172 0.45969 0.0
H1299 H 0.14827 0.65792 0.53965 0.0
H1300 H 0.76362 0.74096 0.0302 0.0
H1301 H 0.77388 0.70877 0.03006 0.0
H1302 H 0.81814 0.7228 0.95179 0.0
H1303 H 0.80725 0.75512 0.9504 0.0
H1304 H 0.804 0.69082 0.93228 0.0
H1305 H 0.82583 0.71598 0.04987 0.0
H1306 H 0.82317 0.7336 0.1101 0.0
H1307 H 0.78357 0.69406 0.15274 0.0
H1308 H 0.78565 0.67642 0.09235 0.0
H1309 H 0.84566 0.60149 0.97732 0.0
H1310 H 0.84168 0.6352 0.97329 0.0
H1311 H 0.78723 0.6303 0.02353 0.0
H1312 H 0.7905 0.59667 0.02573 0.0
H1313 H 0.81186 0.65852 0.05708 0.0
H1314 H 0.78795 0.63623 0.93485 0.0
H1315 H 0.79052 0.61943 0.87352 0.0
H1316 H 0.83635 0.65413 0.84057 0.0
H1317 H 0.83421 0.67096 0.90203 0.0
C1318 C 0.77556 0.73722 0.01297 0.0
C1319 C 0.78477 0.75058 0.99061 0.0
C1320 C 0.78148 0.71881 0.01304 0.0
C1321 C 0.79712 0.71341 0.99175 0.0
C1322 C 0.80613 0.72665 0.96869 0.0
C1323 C 0.79994 0.74509 0.96796 0.0
C1324 C 0.80384 0.69392 0.99378 0.0
C1325 C 0.8061 0.68389 0.95959 0.0
C1326 C 0.80655 0.68478 0.0294 0.0
C1327 C 0.80582 0.69493 0.06643 0.0
C1328 C 0.81651 0.71106 0.07204 0.0
C1329 C 0.81509 0.72107 0.10621 0.0
C1330 C 0.80318 0.71497 0.13522 0.0
C1331 C 0.79277 0.69877 0.13022 0.0
C1332 C 0.79407 0.68876 0.09602 0.0
C1333 C 0.83273 0.6075 0.9871 0.0
C1334 C 0.81843 0.59622 0.00197 0.0
C1335 C 0.83056 0.6268 0.98503 0.0
C1336 C 0.81419 0.63516 0.99823 0.0
C1337 C 0.80003 0.62406 0.01352 0.0
C1338 C 0.80203 0.60481 0.015 0.0
C1339 C 0.81151 0.65549 0.99574 0.0
C1340 C 0.81008 0.66562 0.02987 0.0
C1341 C 0.80984 0.66475 0.96015 0.0
C1342 C 0.81108 0.65468 0.92322 0.0
C1343 C 0.7987 0.64014 0.9147 0.0
C1344 C 0.80005 0.63065 0.87988 0.0
C1345 C 0.81364 0.63567 0.85322 0.0
C1346 C 0.82586 0.65023 0.86129 0.0
C1347 C 0.82459 0.65975 0.8961 0.0
H1348 H 0.81465 0.62831 0.82627 0.0
H1349 H 0.802 0.72279 0.16158 0.0
H1350 H 0.78097 0.25937 0.47164 0.0
H1351 H 0.81265 0.24699 0.47529 0.0
H1352 H 0.82901 0.29318 0.5463 0.0
H1353 H 0.79714 0.30536 0.54385 0.0
H1354 H 0.85239 0.28319 0.47537 0.0
H1355 H 0.82461 0.25885 0.59077 0.0
H1356 H 0.80107 0.24181 0.62809 0.0
H1357 H 0.81386 0.19182 0.56665 0.0
H1358 H 0.83699 0.20872 0.52789 0.0
H1359 H 0.94252 0.25315 0.52504 0.0
H1360 H 0.91088 0.26547 0.52738 0.0
H1361 H 0.88929 0.21175 0.49525 0.0
H1362 H 0.92095 0.19926 0.49407 0.0
H1363 H 0.86813 0.22591 0.54767 0.0
H1364 H 0.89338 0.24835 0.42994 0.0
H1365 H 0.91606 0.26393 0.38784 0.0
H1366 H 0.90741 0.31527 0.44769 0.0
H1367 H 0.88486 0.29993 0.49053 0.0
C1368 C 0.79133 0.2669 0.48796 0.0
C1369 C 0.78667 0.28333 0.50742 0.0
C1370 C 0.80935 0.25978 0.49014 0.0
C1371 C 0.82303 0.26918 0.51116 0.0
C1372 C 0.81854 0.28575 0.53005 0.0
C1373 C 0.80039 0.29265 0.52868 0.0
C1374 C 0.84214 0.26178 0.51282 0.0
C1375 C 0.85596 0.27083 0.49161 0.0
C1376 C 0.84647 0.24528 0.53296 0.0
C1377 C 0.83235 0.23516 0.55594 0.0
C1378 C 0.82218 0.24431 0.58468 0.0
C1379 C 0.80892 0.23466 0.60616 0.0
C1380 C 0.80588 0.21577 0.59957 0.0
C1381 C 0.81615 0.20648 0.57158 0.0
C1382 C 0.82929 0.21611 0.54975 0.0
C1383 C 0.931 0.244 0.51845 0.0
C1384 C 0.93414 0.2253 0.50912 0.0
C1385 C 0.91294 0.25105 0.51969 0.0
C1386 C 0.89771 0.23963 0.51079 0.0
C1387 C 0.90082 0.22083 0.50218 0.0
C1388 C 0.91888 0.21371 0.50149 0.0
C1389 C 0.87856 0.24732 0.5102 0.0
C1390 C 0.86466 0.23831 0.53148 0.0
C1391 C 0.87404 0.26365 0.48944 0.0
C1392 C 0.88758 0.27294 0.4637 0.0
C1393 C 0.89642 0.26293 0.43432 0.0
C1394 C 0.90924 0.27173 0.4103 0.0
C1395 C 0.91321 0.29057 0.41516 0.0
C1396 C 0.90434 0.30067 0.444 0.0
C1397 C 0.89153 0.29193 0.46815 0.0
H1398 H 0.92313 0.29735 0.39652 0.0
H1399 H 0.79564 0.20831 0.61627 0.0
H1400 H 0.72737 0.24341 0.55891 0.0
H1401 H 0.71822 0.21081 0.55832 0.0
H1402 H 0.69595 0.21733 0.44421 0.0
H1403 H 0.70492 0.25012 0.44458 0.0
H1404 H 0.67343 0.19571 0.48915 0.0
H1405 H 0.73691 0.19793 0.4534 0.0
H1406 H 0.76971 0.20748 0.45823 0.0
H1407 H 0.77441 0.17986 0.56698 0.0
H1408 H 0.74147 0.17033 0.56306 0.0
H1409 H 0.67725 0.09876 0.43955 0.0
H1410 H 0.68188 0.1325 0.44135 0.0
H1411 H 0.69757 0.12885 0.56052 0.0
H1412 H 0.69277 0.09513 0.55898 0.0
H1413 H 0.72303 0.14901 0.51156 0.0
H1414 H 0.65765 0.14609 0.54245 0.0
H1415 H 0.62511 0.13669 0.53171 0.0
H1416 H 0.62477 0.16546 0.42379 0.0
H1417 H 0.65741 0.17481 0.43364 0.0
C1418 C 0.72043 0.23799 0.53371 0.0
C1419 C 0.71707 0.24935 0.5016 0.0
C1420 C 0.71523 0.21933 0.53343 0.0
C1421 C 0.70663 0.21161 0.50103 0.0
C1422 C 0.70261 0.22303 0.46946 0.0
C1423 C 0.70783 0.24174 0.46968 0.0
C1424 C 0.70262 0.19144 0.49968 0.0
C1425 C 0.68429 0.18548 0.49363 0.0
C1426 C 0.71681 0.17813 0.50565 0.0
C1427 C 0.73668 0.18357 0.5081 0.0
C1428 C 0.74489 0.194 0.47848 0.0
C1429 C 0.7635 0.19939 0.48102 0.0
C1430 C 0.77411 0.1943 0.5129 0.0
C1431 C 0.76614 0.18378 0.54231 0.0
C1432 C 0.74751 0.17836 0.53992 0.0
C1433 C 0.68155 0.10521 0.46617 0.0
C1434 C 0.68463 0.0944 0.49915 0.0
C1435 C 0.68413 0.12443 0.46719 0.0
C1436 C 0.69003 0.1331 0.50108 0.0
C1437 C 0.69298 0.12237 0.53413 0.0
C1438 C 0.69013 0.10318 0.53329 0.0
C1439 C 0.6938 0.15329 0.50163 0.0
C1440 C 0.71215 0.15925 0.50731 0.0
C1441 C 0.67969 0.16654 0.49449 0.0
C1442 C 0.66004 0.16099 0.48861 0.0
C1443 C 0.6507 0.15027 0.51627 0.0
C1444 C 0.63222 0.14498 0.51038 0.0
C1445 C 0.62289 0.15043 0.47704 0.0
C1446 C 0.63201 0.16123 0.44958 0.0
C1447 C 0.6505 0.16654 0.45532 0.0
H1448 H 0.60859 0.14632 0.47253 0.0
H1449 H 0.78852 0.19847 0.51466 0.0
H1450 H 0.28849 0.22877 0.94318 0.0
H1451 H 0.32002 0.24132 0.94542 0.0
H1452 H 0.32276 0.23001 0.06676 0.0
H1453 H 0.2912 0.2174 0.06489 0.0
H1454 H 0.33417 0.26588 0.04727 0.0
H1455 H 0.34605 0.20305 0.008 0.0
H1456 H 0.34178 0.1753 0.96761 0.0
H1457 H 0.35963 0.206 0.86866 0.0
H1458 H 0.36374 0.23404 0.90838 0.0
H1459 H 0.43003 0.28453 0.07119 0.0
H1460 H 0.39941 0.27001 0.07052 0.0
H1461 H 0.39814 0.27359 0.94704 0.0
H1462 H 0.42923 0.28714 0.9473 0.0
H1463 H 0.38591 0.24105 0.9687 0.0
H1464 H 0.37313 0.30387 0.00529 0.0
H1465 H 0.37637 0.33248 0.04349 0.0
H1466 H 0.35929 0.30304 0.14464 0.0
H1467 H 0.3562 0.27418 0.10712 0.0
C1468 C 0.29581 0.22886 0.97034 0.0
C1469 C 0.2873 0.22212 0.00388 0.0
C1470 C 0.31384 0.23599 0.97152 0.0
C1471 C 0.32371 0.23652 0.00623 0.0
C1472 C 0.31534 0.22972 0.03972 0.0
C1473 C 0.29734 0.22246 0.03853 0.0
C1474 C 0.3426 0.2446 0.00766 0.0
C1475 C 0.34559 0.26031 0.03059 0.0
C1476 C 0.35728 0.2376 0.98498 0.0
C1477 C 0.35504 0.22069 0.96112 0.0
C1478 C 0.34893 0.20393 0.97758 0.0
C1479 C 0.34656 0.18814 0.95481 0.0
C1480 C 0.35038 0.1889 0.91558 0.0
C1481 C 0.35665 0.20544 0.89905 0.0
C1482 C 0.35902 0.22128 0.92169 0.0
C1483 C 0.42334 0.28208 0.04383 0.0
C1484 C 0.43213 0.28705 0.00929 0.0
C1485 C 0.40571 0.27396 0.04353 0.0
C1486 C 0.39634 0.27094 0.00876 0.0
C1487 C 0.40507 0.27585 0.97424 0.0
C1488 C 0.42277 0.2838 0.97448 0.0
C1489 C 0.37755 0.26243 0.0083 0.0
C1490 C 0.37455 0.24664 0.98552 0.0
C1491 C 0.36279 0.26948 0.03083 0.0
C1492 C 0.36462 0.28682 0.05346 0.0
C1493 C 0.37021 0.30346 0.03573 0.0
C1494 C 0.37199 0.31973 0.05725 0.0
C1495 C 0.36809 0.31957 0.09649 0.0
C1496 C 0.36234 0.30314 0.11426 0.0
C1497 C 0.36055 0.28683 0.09288 0.0
H1498 H 0.36947 0.33218 0.1131 0.0
H1499 H 0.34853 0.17667 0.89799 0.0
H1500 H 0.28972 0.75603 0.435 0.0
H1501 H 0.29904 0.78872 0.43488 0.0
H1502 H 0.29269 0.79064 0.55783 0.0
H1503 H 0.2829 0.75822 0.55803 0.0
H1504 H 0.27628 0.81914 0.52728 0.0
H1505 H 0.33614 0.79077 0.51257 0.0
H1506 H 0.35942 0.77021 0.48287 0.0
H1507 H 0.35451 0.80019 0.37683 0.0
H1508 H 0.331 0.82078 0.40575 0.0
H1509 H 0.31608 0.90734 0.55867 0.0
H1510 H 0.31239 0.87357 0.55834 0.0
H1511 H 0.31293 0.87372 0.43468 0.0
H1512 H 0.31705 0.90747 0.43478 0.0
H1513 H 0.33292 0.84431 0.4651 0.0
H1514 H 0.27248 0.87204 0.48019 0.0
H1515 H 0.24929 0.89253 0.51039 0.0
H1516 H 0.25573 0.86332 0.61702 0.0
H1517 H 0.27917 0.84282 0.58756 0.0
C1518 C 0.29048 0.76338 0.46203 0.0
C1519 C 0.28544 0.75456 0.49649 0.0
C1520 C 0.29589 0.78205 0.46196 0.0
C1521 C 0.29669 0.79215 0.4964 0.0
C1522 C 0.29211 0.78319 0.53088 0.0
C1523 C 0.28653 0.76463 0.53094 0.0
C1524 C 0.30131 0.81228 0.49653 0.0
C1525 C 0.28883 0.82456 0.5142 0.0
C1526 C 0.31744 0.81948 0.47862 0.0
C1527 C 0.33167 0.8072 0.46123 0.0
C1528 C 0.33992 0.79289 0.48284 0.0
C1529 C 0.35318 0.78125 0.46616 0.0
C1530 C 0.3584 0.78386 0.42796 0.0
C1531 C 0.35043 0.79817 0.4064 0.0
C1532 C 0.33715 0.80984 0.42293 0.0
C1533 C 0.31574 0.90016 0.53141 0.0
C1534 C 0.31672 0.9101 0.49674 0.0
C1535 C 0.3135 0.88088 0.53126 0.0
C1536 C 0.31216 0.87117 0.49647 0.0
C1537 C 0.31388 0.88095 0.46184 0.0
C1538 C 0.31606 0.90024 0.46196 0.0
C1539 C 0.30799 0.85099 0.4962 0.0
C1540 C 0.32046 0.83878 0.47835 0.0
C1541 C 0.29189 0.84379 0.51408 0.0
C1542 C 0.27771 0.85602 0.53177 0.0
C1543 C 0.26906 0.87008 0.51015 0.0
C1544 C 0.25585 0.88168 0.52712 0.0
C1545 C 0.25108 0.87926 0.56563 0.0
C1546 C 0.25946 0.8652 0.58721 0.0
C1547 C 0.2727 0.85358 0.57039 0.0
H1548 H 0.24085 0.88825 0.57871 0.0
H1549 H 0.36866 0.77482 0.41509 0.0
H1550 H 0.71946 0.76523 0.95137 0.0
H1551 H 0.6875 0.75405 0.95143 0.0
H1552 H 0.67374 0.79318 0.04067 0.0
H1553 H 0.70603 0.80389 0.04187 0.0
H1554 H 0.65874 0.76194 0.05689 0.0
H1555 H 0.66006 0.79921 0.94449 0.0
H1556 H 0.67164 0.81088 0.88245 0.0
H1557 H 0.66285 0.75727 0.83186 0.0
H1558 H 0.65148 0.74518 0.89374 0.0
H1559 H 0.56031 0.75229 0.02471 0.0
H1560 H 0.59147 0.76563 0.02368 0.0
H1561 H 0.61274 0.71566 0.97204 0.0
H1562 H 0.58185 0.70161 0.97505 0.0
H1563 H 0.62269 0.7539 0.93661 0.0
H1564 H 0.62265 0.71752 0.05463 0.0
H1565 H 0.60968 0.7083 0.11723 0.0
H1566 H 0.61425 0.76452 0.15708 0.0
H1567 H 0.627 0.77412 0.09445 0.0
C1568 C 0.70961 0.77153 0.97089 0.0
C1569 C 0.71522 0.78546 0.99658 0.0
C1570 C 0.6913 0.76519 0.97074 0.0
C1571 C 0.6781 0.773 0.99556 0.0
C1572 C 0.68367 0.78697 0.02121 0.0
C1573 C 0.7021 0.79309 0.02185 0.0
C1574 C 0.65867 0.76608 0.99559 0.0
C1575 C 0.6508 0.76048 0.03059 0.0
C1576 C 0.64828 0.76401 0.96127 0.0
C1577 C 0.65505 0.77124 0.92389 0.0
C1578 C 0.66072 0.78986 0.92022 0.0
C1579 C 0.66723 0.79656 0.88506 0.0
C1580 C 0.66801 0.78482 0.85327 0.0
C1581 C 0.66225 0.76635 0.85653 0.0
C1582 C 0.65575 0.75957 0.89163 0.0
C1583 C 0.5716 0.74393 0.01373 0.0
C1584 C 0.56848 0.72575 0.00023 0.0
C1585 C 0.58936 0.7517 0.0128 0.0
C1586 C 0.60428 0.74159 0.99776 0.0
C1587 C 0.60128 0.72366 0.98354 0.0
C1588 C 0.58358 0.71572 0.98512 0.0
C1589 C 0.62311 0.74967 0.99765 0.0
C1590 C 0.63075 0.7555 0.96272 0.0
C1591 C 0.63313 0.75236 0.03204 0.0
C1592 C 0.62556 0.74657 0.06972 0.0
C1593 C 0.62071 0.72795 0.07661 0.0
C1594 C 0.61344 0.72265 0.11212 0.0
C1595 C 0.61108 0.73583 0.14108 0.0
C1596 C 0.61605 0.75433 0.1346 0.0
C1597 C 0.62331 0.7597 0.09912 0.0
H1598 H 0.60546 0.7317 0.16856 0.0
H1599 H 0.67304 0.79003 0.82608 0.0
loop_
_geom_bond_atom_site_label_1
_geom_bond_atom_site_label_2
_geom_bond_distance
_geom_bond_site_symmetry_2
_ccdc_geom_bond_type
Fe0 O2 1.940 . S
Fe0 O5 1.997 . S
Fe0 O6 2.002 . S
Fe0 O11 1.976 . S
Fe0 O14 1.996 . S
Fe1 O2 1.897 1_556 S
Fe1 O9 1.997 . S
Fe1 O12 1.996 . S
Fe1 O16 1.976 . S
Fe1 O19 2.002 . S
O2 Fe0 1.940 . S
O2 Fe1 1.897 1_554 S
O2 Fe3 1.918 . S
Fe3 O2 1.918 . S
Fe3 O4 2.011 . S
Fe3 O13 1.985 . S
Fe3 O17 1.986 1_554 S
Fe3 O20 1.987 1_554 S
O4 Fe3 2.011 . S
O4 C21 1.295 . S
O5 Fe0 1.997 . S
O5 C21 1.235 . S
O6 Fe0 2.002 . S
O6 C7 1.295 . S
C7 O6 1.295 . S
C7 O9 1.235 1_554 S
C8 O13 1.287 . S
C8 O14 1.255 . S
O9 Fe1 1.997 . S
O9 C7 1.235 1_556 S
C10 O16 1.287 . S
C10 O17 1.255 . S
O11 Fe0 1.976 . S
O11 C18 1.280 1_554 S
O12 Fe1 1.996 . S
O12 C18 1.261 . S
O13 Fe3 1.985 . S
O13 C8 1.287 . S
O14 Fe0 1.996 . S
O14 C8 1.255 . S
C15 O19 1.295 . S
C15 O20 1.235 . S
O16 Fe1 1.976 . S
O16 C10 1.287 . S
O17 Fe3 1.986 1_556 S
O17 C10 1.255 . S
C18 O11 1.280 1_556 S
C18 O12 1.261 . S
O19 Fe1 2.002 . S
O19 C15 1.295 . S
O20 Fe3 1.987 1_556 S
O20 C15 1.235 . S
C21 O4 1.295 . S
C21 O5 1.235 . S
Fe22 O24 1.918 . S
Fe22 O27 1.997 . S
Fe22 O28 2.002 . S
Fe22 O33 1.976 . S
Fe22 O36 1.996 . S
Fe23 O24 1.918 . S
Fe23 O31 1.997 . S
Fe23 O34 1.996 . S
Fe23 O38 1.976 . S
Fe23 O41 2.002 . S
O24 Fe22 1.918 . S
O24 Fe23 1.918 . S
O24 Fe25 1.918 . S
Fe25 O24 1.918 . S
Fe25 O26 2.002 . S
Fe25 O35 1.976 . S
Fe25 O39 1.996 . S
Fe25 O42 1.997 . S
O26 Fe25 2.002 . S
O26 C43 1.295 . S
O27 Fe22 1.997 . S
O27 C43 1.235 . S
O28 Fe22 2.002 . S
O28 C29 1.295 . S
C29 O28 1.295 . S
C29 O31 1.235 . S
C30 O35 1.287 . S
C30 O36 1.255 . S
O31 Fe23 1.997 . S
O31 C29 1.235 . S
C32 O38 1.287 . S
C32 O39 1.255 . S
O33 Fe22 1.976 . S
O33 C40 1.287 . S
O34 Fe23 1.996 . S
O34 C40 1.255 . S
O35 Fe25 1.976 . S
O35 C30 1.287 . S
O36 Fe22 1.996 . S
O36 C30 1.255 . S
C37 O41 1.295 . S
C37 O42 1.235 . S
O38 Fe23 1.976 . S
O38 C32 1.287 . S
O39 Fe25 1.996 . S
O39 C32 1.255 . S
C40 O33 1.287 . S
C40 O34 1.255 . S
O41 Fe23 2.002 . S
O41 C37 1.295 . S
O42 Fe25 1.997 . S
O42 C37 1.235 . S
C43 O26 1.295 . S
C43 O27 1.235 . S
Fe44 O46 1.905 1_556 S
Fe44 O49 1.997 . S
Fe44 O50 2.002 . S
Fe44 O55 1.976 . S
Fe44 O58 1.996 . S
Fe45 O46 1.931 . S
Fe45 O53 1.997 . S
Fe45 O56 1.996 . S
Fe45 O60 1.976 . S
Fe45 O63 2.002 . S
O46 Fe44 1.905 1_554 S
O46 Fe45 1.931 . S
O46 Fe47 1.918 . S
Fe47 O46 1.918 . S
Fe47 O48 1.984 1_554 S
Fe47 O57 1.957 1_554 S
Fe47 O61 2.014 . S
Fe47 O64 2.015 . S
O48 Fe47 1.984 1_556 S
O48 C65 1.295 . S
O49 Fe44 1.997 . S
O49 C65 1.235 . S
O50 Fe44 2.002 . S
O50 C51 1.307 . S
C51 O50 1.307 . S
C51 O53 1.224 1_556 S
C52 O57 1.287 . S
C52 O58 1.255 . S
O53 Fe45 1.997 . S
O53 C51 1.224 1_554 S
C54 O60 1.287 . S
C54 O61 1.255 . S
O55 Fe44 1.976 . S
O55 C62 1.287 1_556 S
O56 Fe45 1.996 . S
O56 C62 1.255 . S
O57 Fe47 1.957 1_556 S
O57 C52 1.287 . S
O58 Fe44 1.996 . S
O58 C52 1.255 . S
C59 O63 1.295 . S
C59 O64 1.235 . S
O60 Fe45 1.976 . S
O60 C54 1.287 . S
O61 Fe47 2.014 . S
O61 C54 1.255 . S
C62 O55 1.287 1_554 S
C62 O56 1.255 . S
O63 Fe45 2.002 . S
O63 C59 1.295 . S
O64 Fe47 2.015 . S
O64 C59 1.235 . S
C65 O48 1.295 . S
C65 O49 1.235 . S
Fe66 O68 1.918 . S
Fe66 O71 1.997 . S
Fe66 O72 2.002 . S
Fe66 O77 1.976 . S
Fe66 O80 1.996 . S
Fe67 O68 1.918 . S
Fe67 O75 1.997 . S
Fe67 O78 1.996 . S
Fe67 O82 1.976 . S
Fe67 O85 2.002 . S
O68 Fe66 1.918 . S
O68 Fe67 1.918 . S
O68 Fe69 1.918 . S
Fe69 O68 1.918 . S
Fe69 O70 2.002 . S
Fe69 O79 1.976 . S
Fe69 O83 1.996 . S
Fe69 O86 1.997 . S
O70 Fe69 2.002 . S
O70 C87 1.295 . S
O71 Fe66 1.997 . S
O71 C87 1.235 . S
O72 Fe66 2.002 . S
O72 C73 1.295 . S
C73 O72 1.295 . S
C73 O75 1.235 . S
C74 O79 1.287 . S
C74 O80 1.255 . S
O75 Fe67 1.997 . S
O75 C73 1.235 . S
C76 O82 1.287 . S
C76 O83 1.255 . S
O77 Fe66 1.976 . S
O77 C84 1.287 . S
O78 Fe67 1.996 . S
O78 C84 1.255 . S
O79 Fe69 1.976 . S
O79 C74 1.287 . S
O80 Fe66 1.996 . S
O80 C74 1.255 . S
C81 O85 1.295 . S
C81 O86 1.235 . S
O82 Fe67 1.976 . S
O82 C76 1.287 . S
O83 Fe69 1.996 . S
O83 C76 1.255 . S
C84 O77 1.287 . S
C84 O78 1.255 . S
O85 Fe67 2.002 . S
O85 C81 1.295 . S
O86 Fe69 1.997 . S
O86 C81 1.235 . S
C87 O70 1.295 . S
C87 O71 1.235 . S
C88 C89 1.386 . S
C88 C90 1.397 . S
C88 H112 0.931 . S
C89 C88 1.386 . S
C89 C93 1.397 . S
C90 C88 1.397 . S
C90 C91 1.384 . S
C90 H113 0.930 . S
C91 C90 1.384 . S
C91 C92 1.377 . S
C91 C94 1.481 . S
C92 C91 1.377 . S
C92 C93 1.389 . S
C92 H114 0.929 . S
C93 C89 1.397 . S
C93 C92 1.389 . S
C93 H115 0.931 . S
C94 C91 1.481 . S
C94 C95 1.387 . S
C94 C99 1.390 1_556 S
C95 C94 1.387 . S
C95 C96 1.401 1_556 S
C95 H116 0.930 . S
C96 C95 1.401 1_554 S
C96 C97 1.376 . S
C96 C105 1.511 . S
C97 C96 1.376 . S
C97 C98 1.392 . S
C97 H118 0.931 . S
C98 C97 1.392 . S
C98 C99 1.361 . S
C98 C100 1.500 . S
C99 C94 1.390 1_554 S
C99 C98 1.361 . S
C99 H117 0.931 . S
C100 C98 1.500 . S
C100 C101 1.371 . S
C100 C102 1.365 . S
C101 C100 1.371 . S
C101 C111 1.386 . S
C101 H119 0.931 . S
C102 C100 1.365 . S
C102 C103 1.409 . S
C102 H120 0.929 . S
C103 C102 1.409 . S
C103 C104 1.380 . S
C103 H121 0.930 . S
C104 C103 1.380 . S
C104 C111 1.357 . S
C105 C96 1.511 . S
C105 C106 1.341 1_554 S
C105 C107 1.371 . S
C106 C105 1.341 1_556 S
C106 C110 1.394 . S
C106 H122 0.930 . S
C107 C105 1.371 . S
C107 C108 1.392 . S
C107 H123 0.931 . S
C108 C107 1.392 . S
C108 C109 1.356 . S
C108 H126 0.932 . S
C109 C108 1.356 . S
C109 C110 1.311 1_554 S
C110 C106 1.394 . S
C110 C109 1.311 1_556 S
C110 H125 0.929 . S
C111 C101 1.386 . S
C111 C104 1.357 . S
C111 H124 0.928 . S
H112 C88 0.931 . S
H113 C90 0.930 . S
H114 C92 0.929 . S
H115 C93 0.931 . S
H116 C95 0.930 . S
H117 C99 0.931 . S
H118 C97 0.931 . S
H119 C101 0.931 . S
H120 C102 0.929 . S
H121 C103 0.930 . S
H122 C106 0.930 . S
H123 C107 0.931 . S
H124 C111 0.928 . S
H125 C110 0.929 . S
H126 C108 0.932 . S
C127 C128 1.386 . S
C127 C129 1.397 . S
C127 H151 0.931 . S
C128 C127 1.386 . S
C128 C132 1.397 . S
C129 C127 1.397 . S
C129 C130 1.384 . S
C129 H152 0.930 . S
C130 C129 1.384 . S
C130 C131 1.377 . S
C130 C133 1.481 . S
C131 C130 1.377 . S
C131 C132 1.389 . S
C131 H153 0.929 . S
C132 C128 1.397 . S
C132 C131 1.389 . S
C132 H154 0.931 . S
C133 C130 1.481 . S
C133 C134 1.387 . S
C133 C138 1.390 . S
C134 C133 1.387 . S
C134 C135 1.387 1_655 S
C134 H155 0.930 . S
C135 C134 1.387 1_455 S
C135 C136 1.361 1_455 S
C135 C144 1.539 . S
C136 C135 1.361 1_655 S
C136 C137 1.392 . S
C136 H157 0.931 . S
C137 C136 1.392 . S
C137 C138 1.361 . S
C137 C139 1.500 . S
C138 C133 1.390 . S
C138 C137 1.361 . S
C138 H156 0.931 . S
C139 C137 1.500 . S
C139 C140 1.371 . S
C139 C141 1.365 . S
C140 C139 1.371 . S
C140 C150 1.386 . S
C140 H158 0.931 . S
C141 C139 1.365 . S
C141 C142 1.409 . S
C141 H159 0.929 . S
C142 C141 1.409 . S
C142 C143 1.380 . S
C142 H160 0.930 . S
C143 C142 1.380 . S
C143 C150 1.357 . S
C144 C135 1.539 . S
C144 C145 1.341 . S
C144 C146 1.371 . S
C145 C144 1.341 . S
C145 C149 1.394 . S
C145 H161 0.930 . S
C146 C144 1.371 . S
C146 C147 1.392 . S
C146 H162 0.931 . S
C147 C146 1.392 . S
C147 C148 1.331 . S
C147 H165 0.932 . S
C148 C147 1.331 . S
C148 C149 1.336 . S
C149 C145 1.394 . S
C149 C148 1.336 . S
C149 H164 0.929 . S
C150 C140 1.386 . S
C150 C143 1.357 . S
C150 H163 0.928 . S
H151 C127 0.931 . S
H152 C129 0.930 . S
H153 C131 0.929 . S
H154 C132 0.931 . S
H155 C134 0.930 . S
H156 C138 0.931 . S
H157 C136 0.931 . S
H158 C140 0.931 . S
H159 C141 0.929 . S
H160 C142 0.930 . S
H161 C145 0.930 . S
H162 C146 0.931 . S
H163 C150 0.928 . S
H164 C149 0.929 . S
H165 C147 0.932 . S
C166 C167 1.386 . S
C166 C168 1.397 . S
C166 H190 0.931 . S
C167 C166 1.386 . S
C167 C171 1.397 . S
C168 C166 1.397 . S
C168 C169 1.384 . S
C168 H191 0.930 . S
C169 C168 1.384 . S
C169 C170 1.377 . S
C169 C172 1.481 . S
C170 C169 1.377 . S
C170 C171 1.389 . S
C170 H192 0.929 . S
C171 C167 1.397 . S
C171 C170 1.389 . S
C171 H193 0.931 . S
C172 C169 1.481 . S
C172 C173 1.387 . S
C172 C177 1.391 . S
C173 C172 1.387 . S
C173 C174 1.383 1_554 S
C173 H194 0.930 . S
C174 C173 1.383 1_556 S
C174 C175 1.394 . S
C174 C183 1.511 . S
C175 C174 1.394 . S
C175 C176 1.392 . S
C175 H196 0.931 . S
C176 C175 1.392 . S
C176 C177 1.360 1_556 S
C176 C178 1.500 . S
C177 C172 1.391 . S
C177 C176 1.360 1_554 S
C177 H195 0.931 . S
C178 C176 1.500 . S
C178 C179 1.371 . S
C178 C180 1.365 . S
C179 C178 1.371 . S
C179 C189 1.386 . S
C179 H197 0.931 . S
C180 C178 1.365 . S
C180 C181 1.409 . S
C180 H198 0.929 . S
C181 C180 1.409 . S
C181 C182 1.380 . S
C181 H199 0.930 . S
C182 C181 1.380 . S
C182 C189 1.357 . S
C183 C174 1.511 . S
C183 C184 1.328 1_556 S
C183 C185 1.384 . S
C184 C183 1.328 1_554 S
C184 C188 1.394 . S
C184 H200 0.930 . S
C185 C183 1.384 . S
C185 C186 1.392 . S
C185 H201 0.931 . S
C186 C185 1.392 . S
C186 C187 1.324 1_556 S
C186 H204 0.932 . S
C187 C186 1.324 1_554 S
C187 C188 1.343 . S
C188 C184 1.394 . S
C188 C187 1.343 . S
C188 H203 0.929 . S
C189 C179 1.386 . S
C189 C182 1.357 . S
C189 H202 0.928 . S
H190 C166 0.931 . S
H191 C168 0.930 . S
H192 C170 0.929 . S
H193 C171 0.931 . S
H194 C173 0.930 . S
H195 C177 0.931 . S
H196 C175 0.931 . S
H197 C179 0.931 . S
H198 C180 0.929 . S
H199 C181 0.930 . S
H200 C184 0.930 . S
H201 C185 0.931 . S
H202 C189 0.928 . S
H203 C188 0.929 . S
H204 C186 0.932 . S
C205 C206 1.386 . S
C205 C207 1.397 . S
C205 H229 0.931 . S
C206 C205 1.386 . S
C206 C210 1.397 . S
C207 C205 1.397 . S
C207 C208 1.384 . S
C207 H230 0.930 . S
C208 C207 1.384 . S
C208 C209 1.377 . S
C208 C211 1.481 . S
C209 C208 1.377 . S
C209 C210 1.389 . S
C209 H231 0.929 . S
C210 C206 1.397 . S
C210 C209 1.389 . S
C210 H232 0.931 . S
C211 C208 1.481 . S
C211 C212 1.387 . S
C211 C216 1.390 . S
C212 C211 1.387 . S
C212 C213 1.401 . S
C212 H233 0.930 . S
C213 C212 1.401 . S
C213 C214 1.376 . S
C213 C222 1.511 1_455 S
C214 C213 1.376 . S
C214 C215 1.392 . S
C214 H235 0.931 . S
C215 C214 1.392 . S
C215 C216 1.361 . S
C215 C217 1.500 . S
C216 C211 1.390 . S
C216 C215 1.361 . S
C216 H234 0.931 . S
C217 C215 1.500 . S
C217 C218 1.371 . S
C217 C219 1.365 . S
C218 C217 1.371 . S
C218 C228 1.386 . S
C218 H236 0.931 . S
C219 C217 1.365 . S
C219 C220 1.409 . S
C219 H237 0.929 . S
C220 C219 1.409 . S
C220 C221 1.380 . S
C220 H238 0.930 . S
C221 C220 1.380 . S
C221 C228 1.357 . S
C222 C213 1.511 1_655 S
C222 C223 1.341 . S
C222 C224 1.371 . S
C223 C222 1.341 . S
C223 C227 1.394 . S
C223 H239 0.930 . S
C224 C222 1.371 . S
C224 C225 1.392 . S
C224 H240 0.931 . S
C225 C224 1.392 . S
C225 C226 1.331 . S
C225 H243 0.932 . S
C226 C225 1.331 . S
C226 C227 1.336 . S
C227 C223 1.394 . S
C227 C226 1.336 . S
C227 H242 0.929 . S
C228 C218 1.386 . S
C228 C221 1.357 . S
C228 H241 0.928 . S
H229 C205 0.931 . S
H230 C207 0.930 . S
H231 C209 0.929 . S
H232 C210 0.931 . S
H233 C212 0.930 . S
H234 C216 0.931 . S
H235 C214 0.931 . S
H236 C218 0.931 . S
H237 C219 0.929 . S
H238 C220 0.930 . S
H239 C223 0.930 . S
H240 C224 0.931 . S
H241 C228 0.928 . S
H242 C227 0.929 . S
H243 C225 0.932 . S
C244 C245 1.386 . S
C244 C246 1.397 . S
C244 H268 0.931 . S
C245 C244 1.386 . S
C245 C249 1.397 . S
C246 C244 1.397 . S
C246 C247 1.384 . S
C246 H269 0.930 . S
C247 C246 1.384 . S
C247 C248 1.377 . S
C247 C250 1.481 . S
C248 C247 1.377 . S
C248 C249 1.389 . S
C248 H270 0.929 . S
C249 C245 1.397 . S
C249 C248 1.389 . S
C249 H271 0.931 . S
C250 C247 1.481 . S
C250 C251 1.387 1_565 S
C250 C255 1.390 . S
C251 C250 1.387 1_545 S
C251 C252 1.401 . S
C251 H272 0.930 . S
C252 C251 1.401 . S
C252 C253 1.376 . S
C252 C261 1.511 . S
C253 C252 1.376 . S
C253 C254 1.392 1_545 S
C253 H274 0.931 . S
C254 C253 1.392 1_565 S
C254 C255 1.361 . S
C254 C256 1.500 . S
C255 C250 1.390 . S
C255 C254 1.361 . S
C255 H273 0.931 . S
C256 C254 1.500 . S
C256 C257 1.371 . S
C256 C258 1.365 . S
C257 C256 1.371 . S
C257 C267 1.386 . S
C257 H275 0.931 . S
C258 C256 1.365 . S
C258 C259 1.409 . S
C258 H276 0.929 . S
C259 C258 1.409 . S
C259 C260 1.380 . S
C259 H277 0.930 . S
C260 C259 1.380 . S
C260 C267 1.357 . S
C261 C252 1.511 . S
C261 C262 1.341 . S
C261 C263 1.371 . S
C262 C261 1.341 . S
C262 C266 1.394 . S
C262 H278 0.930 . S
C263 C261 1.371 . S
C263 C264 1.392 . S
C263 H279 0.931 . S
C264 C263 1.392 . S
C264 C265 1.331 . S
C264 H282 0.932 . S
C265 C264 1.331 . S
C265 C266 1.336 . S
C266 C262 1.394 . S
C266 C265 1.336 . S
C266 H281 0.929 . S
C267 C257 1.386 . S
C267 C260 1.357 . S
C267 H280 0.928 . S
H268 C244 0.931 . S
H269 C246 0.930 . S
H270 C248 0.929 . S
H271 C249 0.931 . S
H272 C251 0.930 . S
H273 C255 0.931 . S
H274 C253 0.931 . S
H275 C257 0.931 . S
H276 C258 0.929 . S
H277 C259 0.930 . S
H278 C262 0.930 . S
H279 C263 0.931 . S
H280 C267 0.928 . S
H281 C266 0.929 . S
H282 C264 0.932 . S
C283 C284 1.386 . S
C283 C285 1.397 . S
C283 H307 0.931 . S
C284 C283 1.386 . S
C284 C288 1.397 . S
C285 C283 1.397 . S
C285 C286 1.384 . S
C285 H308 0.930 . S
C286 C285 1.384 . S
C286 C287 1.377 . S
C286 C289 1.481 . S
C287 C286 1.377 . S
C287 C288 1.389 . S
C287 H309 0.929 . S
C288 C284 1.397 . S
C288 C287 1.389 . S
C288 H310 0.931 . S
C289 C286 1.481 . S
C289 C290 1.387 . S
C289 C294 1.382 1_554 S
C290 C289 1.387 . S
C290 C291 1.401 1_554 S
C290 H311 0.930 . S
C291 C290 1.401 1_556 S
C291 C292 1.376 . S
C291 C300 1.511 . S
C292 C291 1.376 . S
C292 C293 1.392 . S
C292 H313 0.931 . S
C293 C292 1.392 . S
C293 C294 1.370 . S
C293 C295 1.500 . S
C294 C289 1.382 1_556 S
C294 C293 1.370 . S
C294 H312 0.931 . S
C295 C293 1.500 . S
C295 C296 1.371 . S
C295 C297 1.365 . S
C296 C295 1.371 . S
C296 C306 1.386 . S
C296 H314 0.931 . S
C297 C295 1.365 . S
C297 C298 1.409 . S
C297 H315 0.929 . S
C298 C297 1.409 . S
C298 C299 1.380 . S
C298 H316 0.930 . S
C299 C298 1.380 . S
C299 C306 1.357 . S
C300 C291 1.511 . S
C300 C301 1.341 1_556 S
C300 C302 1.371 . S
C301 C300 1.341 1_554 S
C301 C305 1.394 . S
C301 H317 0.930 . S
C302 C300 1.371 . S
C302 C303 1.392 . S
C302 H318 0.931 . S
C303 C302 1.392 . S
C303 C304 1.331 . S
C303 H321 0.932 . S
C304 C303 1.331 . S
C304 C305 1.336 1_556 S
C305 C301 1.394 . S
C305 C304 1.336 1_554 S
C305 H320 0.929 . S
C306 C296 1.386 . S
C306 C299 1.357 . S
C306 H319 0.928 . S
H307 C283 0.931 . S
H308 C285 0.930 . S
H309 C287 0.929 . S
H310 C288 0.931 . S
H311 C290 0.930 . S
H312 C294 0.931 . S
H313 C292 0.931 . S
H314 C296 0.931 . S
H315 C297 0.929 . S
H316 C298 0.930 . S
H317 C301 0.930 . S
H318 C302 0.931 . S
H319 C306 0.928 . S
H320 C305 0.929 . S
H321 C303 0.932 . S
C322 C323 1.386 . S
C322 C324 1.397 . S
C322 H346 0.931 . S
C323 C322 1.386 . S
C323 C327 1.397 . S
C324 C322 1.397 . S
C324 C325 1.384 . S
C324 H347 0.930 . S
C325 C324 1.384 . S
C325 C326 1.377 . S
C325 C328 1.481 . S
C326 C325 1.377 . S
C326 C327 1.389 . S
C326 H348 0.929 . S
C327 C323 1.397 . S
C327 C326 1.389 . S
C327 H349 0.931 . S
C328 C325 1.481 . S
C328 C329 1.387 . S
C328 C333 1.390 . S
C329 C328 1.387 . S
C329 C330 1.401 1_545 S
C329 H350 0.930 1_545 S
C330 C329 1.401 1_565 S
C330 C331 1.376 1_565 S
C330 C339 1.511 . S
C331 C330 1.376 1_545 S
C331 C332 1.392 . S
C331 H352 0.931 1_545 S
C332 C331 1.392 . S
C332 C333 1.361 . S
C332 C334 1.500 . S
C333 C328 1.390 . S
C333 C332 1.361 . S
C333 H351 0.931 . S
C334 C332 1.500 . S
C334 C335 1.371 . S
C334 C336 1.365 . S
C335 C334 1.371 . S
C335 C345 1.386 . S
C335 H353 0.931 . S
C336 C334 1.365 . S
C336 C337 1.409 . S
C336 H354 0.929 . S
C337 C336 1.409 . S
C337 C338 1.380 . S
C337 H355 0.930 . S
C338 C337 1.380 . S
C338 C345 1.357 . S
C339 C330 1.511 . S
C339 C340 1.341 . S
C339 C341 1.371 . S
C340 C339 1.341 . S
C340 C344 1.394 . S
C340 H356 0.930 . S
C341 C339 1.371 . S
C341 C342 1.392 . S
C341 H357 0.931 . S
C342 C341 1.392 . S
C342 C343 1.331 . S
C342 H360 0.932 . S
C343 C342 1.331 . S
C343 C344 1.336 . S
C344 C340 1.394 . S
C344 C343 1.336 . S
C344 H359 0.929 . S
C345 C335 1.386 . S
C345 C338 1.357 . S
C345 H358 0.928 . S
H346 C322 0.931 . S
H347 C324 0.930 . S
H348 C326 0.929 . S
H349 C327 0.931 . S
H350 C329 0.930 1_565 S
H351 C333 0.931 . S
H352 C331 0.931 1_565 S
H353 C335 0.931 . S
H354 C336 0.929 . S
H355 C337 0.930 . S
H356 C340 0.930 . S
H357 C341 0.931 . S
H358 C345 0.928 . S
H359 C344 0.929 . S
H360 C342 0.932 . S
C361 C362 1.386 . S
C361 C363 1.397 . S
C361 H385 0.931 . S
C362 C361 1.386 . S
C362 C366 1.397 . S
C363 C361 1.397 . S
C363 C364 1.384 . S
C363 H386 0.930 . S
C364 C363 1.384 . S
C364 C365 1.377 . S
C364 C367 1.481 . S
C365 C364 1.377 . S
C365 C366 1.389 . S
C365 H387 0.929 . S
C366 C362 1.397 . S
C366 C365 1.389 . S
C366 H388 0.931 . S
C367 C364 1.481 . S
C367 C368 1.387 . S
C367 C372 1.390 1_556 S
C368 C367 1.387 . S
C368 C369 1.401 1_556 S
C368 H389 0.930 . S
C369 C368 1.401 1_554 S
C369 C370 1.376 . S
C369 C378 1.511 . S
C370 C369 1.376 . S
C370 C371 1.392 . S
C370 H391 0.931 . S
C371 C370 1.392 . S
C371 C372 1.361 . S
C371 C373 1.500 . S
C372 C367 1.390 1_554 S
C372 C371 1.361 . S
C372 H390 0.931 . S
C373 C371 1.500 . S
C373 C374 1.371 . S
C373 C375 1.365 . S
C374 C373 1.371 . S
C374 C384 1.386 . S
C374 H392 0.931 . S
C375 C373 1.365 . S
C375 C376 1.409 . S
C375 H393 0.929 . S
C376 C375 1.409 . S
C376 C377 1.380 . S
C376 H394 0.930 . S
C377 C376 1.380 . S
C377 C384 1.357 . S
C378 C369 1.511 . S
C378 C379 1.341 1_554 S
C378 C380 1.371 . S
C379 C378 1.341 1_556 S
C379 C383 1.394 . S
C379 H395 0.930 . S
C380 C378 1.371 . S
C380 C381 1.392 . S
C380 H396 0.931 . S
C381 C380 1.392 . S
C381 C382 1.331 . S
C381 H399 0.932 . S
C382 C381 1.331 . S
C382 C383 1.336 1_554 S
C383 C379 1.394 . S
C383 C382 1.336 1_556 S
C383 H398 0.929 . S
C384 C374 1.386 . S
C384 C377 1.357 . S
C384 H397 0.928 . S
H385 C361 0.931 . S
H386 C363 0.930 . S
H387 C365 0.929 . S
H388 C366 0.931 . S
H389 C368 0.930 . S
H390 C372 0.931 . S
H391 C370 0.931 . S
H392 C374 0.931 . S
H393 C375 0.929 . S
H394 C376 0.930 . S
H395 C379 0.930 . S
H396 C380 0.931 . S
H397 C384 0.928 . S
H398 C383 0.929 . S
H399 C381 0.932 . S
H400 C418 0.951 . S
H401 C420 0.951 . S
H402 C422 0.950 . S
H403 C423 0.950 . S
H404 C425 0.950 . S
H405 C428 0.950 . S
H406 C429 0.950 . S
H407 C431 0.950 . S
H408 C432 0.950 . S
H409 C433 0.951 . S
H410 C435 0.951 . S
H411 C437 0.950 . S
H412 C438 0.950 . S
H413 C440 0.950 . S
H414 C443 0.950 . S
H415 C444 0.950 . S
H416 C446 0.950 . S
H417 C447 0.950 . S
C418 H400 0.951 . S
C418 C419 1.366 . S
C418 C420 1.388 . S
C419 C418 1.366 . S
C419 C423 1.385 . S
C420 H401 0.951 . S
C420 C418 1.388 . S
C420 C421 1.366 . S
C421 C420 1.366 . S
C421 C422 1.414 . S
C421 C424 1.499 . S
C422 H402 0.950 . S
C422 C421 1.414 . S
C422 C423 1.374 . S
C423 H403 0.950 . S
C423 C419 1.385 . S
C423 C422 1.374 . S
C424 C421 1.499 . S
C424 C425 1.373 . S
C424 C426 1.389 . S
C425 H404 0.950 . S
C425 C424 1.373 . S
C425 C441 1.377 . S
C426 C424 1.389 . S
C426 C427 1.524 . S
C426 C440 1.377 . S
C427 C426 1.524 . S
C427 C428 1.397 . S
C427 C432 1.363 . S
C428 H405 0.950 . S
C428 C427 1.397 . S
C428 C429 1.334 . S
C429 H406 0.950 . S
C429 C428 1.334 . S
C429 C430 1.287 . S
C430 C429 1.287 . S
C430 C431 1.524 . S
C430 H449 0.913 . S
C431 H407 0.950 . S
C431 C430 1.524 . S
C431 C432 1.415 . S
C432 H408 0.950 . S
C432 C427 1.363 . S
C432 C431 1.415 . S
C433 H409 0.951 . S
C433 C434 1.366 . S
C433 C435 1.388 . S
C434 C433 1.366 . S
C434 C438 1.385 . S
C435 H410 0.951 . S
C435 C433 1.388 . S
C435 C436 1.366 . S
C436 C435 1.366 . S
C436 C437 1.414 . S
C436 C439 1.499 . S
C437 H411 0.950 . S
C437 C436 1.414 . S
C437 C438 1.374 . S
C438 H412 0.950 . S
C438 C434 1.385 . S
C438 C437 1.374 . S
C439 C436 1.499 . S
C439 C440 1.373 . S
C439 C441 1.389 . S
C440 H413 0.950 . S
C440 C426 1.377 . S
C440 C439 1.373 . S
C441 C425 1.377 . S
C441 C439 1.389 . S
C441 C442 1.524 . S
C442 C441 1.524 . S
C442 C443 1.397 . S
C442 C447 1.363 . S
C443 H414 0.950 . S
C443 C442 1.397 . S
C443 C444 1.334 . S
C444 H415 0.950 . S
C444 C443 1.334 . S
C444 C445 1.287 . S
C445 C444 1.287 . S
C445 C446 1.524 . S
C445 H448 0.999 . S
C446 H416 0.950 . S
C446 C445 1.524 . S
C446 C447 1.415 . S
C447 H417 0.950 . S
C447 C442 1.363 . S
C447 C446 1.415 . S
H448 C445 0.999 . S
H449 C430 0.913 . S
H450 C468 0.951 . S
H451 C470 0.951 . S
H452 C472 0.950 . S
H453 C473 0.950 . S
H454 C475 0.950 . S
H455 C478 0.950 . S
H456 C479 0.950 . S
H457 C481 0.950 . S
H458 C482 0.950 . S
H459 C483 0.951 . S
H460 C485 0.951 . S
H461 C487 0.950 . S
H462 C488 0.950 . S
H463 C490 0.950 . S
H464 C493 0.950 . S
H465 C494 0.950 . S
H466 C496 0.950 . S
H467 C497 0.950 . S
C468 H450 0.951 . S
C468 C469 1.366 . S
C468 C470 1.388 . S
C469 C468 1.366 . S
C469 C473 1.385 . S
C470 H451 0.951 . S
C470 C468 1.388 . S
C470 C471 1.366 . S
C471 C470 1.366 . S
C471 C472 1.414 . S
C471 C474 1.499 . S
C472 H452 0.950 . S
C472 C471 1.414 . S
C472 C473 1.374 . S
C473 H453 0.950 . S
C473 C469 1.385 . S
C473 C472 1.374 . S
C474 C471 1.499 . S
C474 C475 1.373 . S
C474 C476 1.389 . S
C475 H454 0.950 . S
C475 C474 1.373 . S
C475 C491 1.377 . S
C476 C474 1.389 . S
C476 C477 1.524 . S
C476 C490 1.377 . S
C477 C476 1.524 . S
C477 C478 1.397 . S
C477 C482 1.363 . S
C478 H455 0.950 . S
C478 C477 1.397 . S
C478 C479 1.334 . S
C479 H456 0.950 . S
C479 C478 1.334 . S
C479 C480 1.287 . S
C480 C479 1.287 . S
C480 C481 1.524 . S
C480 H499 0.913 . S
C481 H457 0.950 . S
C481 C480 1.524 . S
C481 C482 1.415 . S
C482 H458 0.950 . S
C482 C477 1.363 . S
C482 C481 1.415 . S
C483 H459 0.951 . S
C483 C484 1.366 . S
C483 C485 1.388 . S
C484 C483 1.366 . S
C484 C488 1.385 . S
C485 H460 0.951 . S
C485 C483 1.388 . S
C485 C486 1.366 . S
C486 C485 1.366 . S
C486 C487 1.414 . S
C486 C489 1.499 . S
C487 H461 0.950 . S
C487 C486 1.414 . S
C487 C488 1.374 . S
C488 H462 0.950 . S
C488 C484 1.385 . S
C488 C487 1.374 . S
C489 C486 1.499 . S
C489 C490 1.373 . S
C489 C491 1.389 . S
C490 H463 0.950 . S
C490 C476 1.377 . S
C490 C489 1.373 . S
C491 C475 1.377 . S
C491 C489 1.389 . S
C491 C492 1.524 . S
C492 C491 1.524 . S
C492 C493 1.397 . S
C492 C497 1.363 . S
C493 H464 0.950 . S
C493 C492 1.397 . S
C493 C494 1.334 . S
C494 H465 0.950 . S
C494 C493 1.334 . S
C494 C495 1.287 . S
C495 C494 1.287 . S
C495 C496 1.524 . S
C495 H498 0.999 . S
C496 H466 0.950 . S
C496 C495 1.524 . S
C496 C497 1.415 . S
C497 H467 0.950 . S
C497 C492 1.363 . S
C497 C496 1.415 . S
H498 C495 0.999 . S
H499 C480 0.913 . S
H500 C518 0.951 . S
H501 C520 0.951 . S
H502 C522 0.950 . S
H503 C523 0.950 . S
H504 C525 0.950 . S
H505 C528 0.950 . S
H506 C529 0.950 . S
H507 C531 0.950 . S
H508 C532 0.950 . S
H509 C533 0.951 . S
H510 C535 0.951 . S
H511 C537 0.950 . S
H512 C538 0.950 . S
H513 C540 0.950 . S
H514 C543 0.950 . S
H515 C544 0.950 . S
H516 C546 0.950 . S
H517 C547 0.950 . S
C518 H500 0.951 . S
C518 C519 1.366 . S
C518 C520 1.388 . S
C519 C518 1.366 . S
C519 C523 1.385 . S
C520 H501 0.951 . S
C520 C518 1.388 . S
C520 C521 1.366 . S
C521 C520 1.366 . S
C521 C522 1.414 . S
C521 C524 1.499 . S
C522 H502 0.950 . S
C522 C521 1.414 . S
C522 C523 1.374 . S
C523 H503 0.950 . S
C523 C519 1.385 . S
C523 C522 1.374 . S
C524 C521 1.499 . S
C524 C525 1.373 . S
C524 C526 1.389 . S
C525 H504 0.950 . S
C525 C524 1.373 . S
C525 C541 1.377 . S
C526 C524 1.389 . S
C526 C527 1.524 . S
C526 C540 1.377 . S
C527 C526 1.524 . S
C527 C528 1.397 . S
C527 C532 1.363 . S
C528 H505 0.950 . S
C528 C527 1.397 . S
C528 C529 1.334 . S
C529 H506 0.950 . S
C529 C528 1.334 . S
C529 C530 1.287 . S
C530 C529 1.287 . S
C530 C531 1.524 . S
C530 H549 0.913 . S
C531 H507 0.950 . S
C531 C530 1.524 . S
C531 C532 1.415 . S
C532 H508 0.950 . S
C532 C527 1.363 . S
C532 C531 1.415 . S
C533 H509 0.951 . S
C533 C534 1.366 . S
C533 C535 1.388 . S
C534 C533 1.366 . S
C534 C538 1.385 . S
C535 H510 0.951 . S
C535 C533 1.388 . S
C535 C536 1.366 . S
C536 C535 1.366 . S
C536 C537 1.414 . S
C536 C539 1.499 . S
C537 H511 0.950 . S
C537 C536 1.414 . S
C537 C538 1.374 . S
C538 H512 0.950 . S
C538 C534 1.385 . S
C538 C537 1.374 . S
C539 C536 1.499 . S
C539 C540 1.373 . S
C539 C541 1.389 . S
C540 H513 0.950 . S
C540 C526 1.377 . S
C540 C539 1.373 . S
C541 C525 1.377 . S
C541 C539 1.389 . S
C541 C542 1.524 . S
C542 C541 1.524 . S
C542 C543 1.397 . S
C542 C547 1.363 . S
C543 H514 0.950 . S
C543 C542 1.397 . S
C543 C544 1.334 . S
C544 H515 0.950 . S
C544 C543 1.334 . S
C544 C545 1.287 . S
C545 C544 1.287 . S
C545 C546 1.524 . S
C545 H548 0.999 . S
C546 H516 0.950 . S
C546 C545 1.524 . S
C546 C547 1.415 . S
C547 H517 0.950 . S
C547 C542 1.363 . S
C547 C546 1.415 . S
H548 C545 0.999 . S
H549 C530 0.913 . S
H550 C568 0.951 . S
H551 C570 0.951 . S
H552 C572 0.950 . S
H553 C573 0.950 . S
H554 C575 0.950 . S
H555 C578 0.950 . S
H556 C579 0.950 . S
H557 C581 0.950 . S
H558 C582 0.950 . S
H559 C583 0.951 . S
H560 C585 0.951 . S
H561 C587 0.950 . S
H562 C588 0.950 . S
H563 C590 0.950 . S
H564 C593 0.950 . S
H565 C594 0.950 . S
H566 C596 0.950 . S
H567 C597 0.950 . S
C568 H550 0.951 . S
C568 C569 1.366 . S
C568 C570 1.388 . S
C569 C568 1.366 . S
C569 C573 1.385 . S
C570 H551 0.951 . S
C570 C568 1.388 . S
C570 C571 1.366 . S
C571 C570 1.366 . S
C571 C572 1.414 . S
C571 C574 1.499 . S
C572 H552 0.950 . S
C572 C571 1.414 . S
C572 C573 1.374 . S
C573 H553 0.950 . S
C573 C569 1.385 . S
C573 C572 1.374 . S
C574 C571 1.499 . S
C574 C575 1.373 . S
C574 C576 1.389 . S
C575 H554 0.950 . S
C575 C574 1.373 . S
C575 C591 1.377 . S
C576 C574 1.389 . S
C576 C577 1.524 . S
C576 C590 1.377 . S
C577 C576 1.524 . S
C577 C578 1.397 . S
C577 C582 1.363 . S
C578 H555 0.950 . S
C578 C577 1.397 . S
C578 C579 1.334 . S
C579 H556 0.950 . S
C579 C578 1.334 . S
C579 C580 1.287 . S
C580 C579 1.287 . S
C580 C581 1.524 . S
C580 H599 0.913 . S
C581 H557 0.950 . S
C581 C580 1.524 . S
C581 C582 1.415 . S
C582 H558 0.950 . S
C582 C577 1.363 . S
C582 C581 1.415 . S
C583 H559 0.951 . S
C583 C584 1.366 . S
C583 C585 1.388 . S
C584 C583 1.366 . S
C584 C588 1.385 . S
C585 H560 0.951 . S
C585 C583 1.388 . S
C585 C586 1.366 . S
C586 C585 1.366 . S
C586 C587 1.414 . S
C586 C589 1.499 . S
C587 H561 0.950 . S
C587 C586 1.414 . S
C587 C588 1.374 . S
C588 H562 0.950 . S
C588 C584 1.385 . S
C588 C587 1.374 . S
C589 C586 1.499 . S
C589 C590 1.373 . S
C589 C591 1.389 . S
C590 H563 0.950 . S
C590 C576 1.377 . S
C590 C589 1.373 . S
C591 C575 1.377 . S
C591 C589 1.389 . S
C591 C592 1.524 . S
C592 C591 1.524 . S
C592 C593 1.397 . S
C592 C597 1.363 . S
C593 H564 0.950 . S
C593 C592 1.397 . S
C593 C594 1.334 . S
C594 H565 0.950 . S
C594 C593 1.334 . S
C594 C595 1.287 . S
C595 C594 1.287 . S
C595 C596 1.524 . S
C595 H598 0.999 . S
C596 H566 0.950 . S
C596 C595 1.524 . S
C596 C597 1.415 . S
C597 H567 0.950 . S
C597 C592 1.363 . S
C597 C596 1.415 . S
H598 C595 0.999 . S
H599 C580 0.913 . S
H600 C618 0.951 . S
H601 C620 0.951 . S
H602 C622 0.950 . S
H603 C623 0.950 . S
H604 C625 0.950 . S
H605 C628 0.950 . S
H606 C629 0.950 . S
H607 C631 0.950 . S
H608 C632 0.950 . S
H609 C633 0.951 . S
H610 C635 0.951 . S
H611 C637 0.950 . S
H612 C638 0.950 . S
H613 C640 0.950 . S
H614 C643 0.950 . S
H615 C644 0.950 . S
H616 C646 0.950 . S
H617 C647 0.950 . S
C618 H600 0.951 . S
C618 C619 1.366 . S
C618 C620 1.388 . S
C619 C618 1.366 . S
C619 C623 1.385 . S
C620 H601 0.951 . S
C620 C618 1.388 . S
C620 C621 1.366 . S
C621 C620 1.366 . S
C621 C622 1.414 . S
C621 C624 1.499 . S
C622 H602 0.950 . S
C622 C621 1.414 . S
C622 C623 1.374 . S
C623 H603 0.950 . S
C623 C619 1.385 . S
C623 C622 1.374 . S
C624 C621 1.499 . S
C624 C625 1.373 . S
C624 C626 1.389 . S
C625 H604 0.950 . S
C625 C624 1.373 . S
C625 C641 1.377 . S
C626 C624 1.389 . S
C626 C627 1.524 . S
C626 C640 1.377 . S
C627 C626 1.524 . S
C627 C628 1.397 . S
C627 C632 1.363 . S
C628 H605 0.950 . S
C628 C627 1.397 . S
C628 C629 1.334 . S
C629 H606 0.950 . S
C629 C628 1.334 . S
C629 C630 1.287 . S
C630 C629 1.287 . S
C630 C631 1.524 . S
C630 H649 0.913 . S
C631 H607 0.950 . S
C631 C630 1.524 . S
C631 C632 1.415 . S
C632 H608 0.950 . S
C632 C627 1.363 . S
C632 C631 1.415 . S
C633 H609 0.951 . S
C633 C634 1.366 . S
C633 C635 1.388 . S
C634 C633 1.366 . S
C634 C638 1.385 . S
C635 H610 0.951 . S
C635 C633 1.388 . S
C635 C636 1.366 . S
C636 C635 1.366 . S
C636 C637 1.414 . S
C636 C639 1.499 . S
C637 H611 0.950 . S
C637 C636 1.414 . S
C637 C638 1.374 . S
C638 H612 0.950 . S
C638 C634 1.385 . S
C638 C637 1.374 . S
C639 C636 1.499 . S
C639 C640 1.373 . S
C639 C641 1.389 . S
C640 H613 0.950 . S
C640 C626 1.377 . S
C640 C639 1.373 . S
C641 C625 1.377 . S
C641 C639 1.389 . S
C641 C642 1.524 . S
C642 C641 1.524 . S
C642 C643 1.397 . S
C642 C647 1.363 . S
C643 H614 0.950 . S
C643 C642 1.397 . S
C643 C644 1.334 . S
C644 H615 0.950 . S
C644 C643 1.334 . S
C644 C645 1.287 . S
C645 C644 1.287 . S
C645 C646 1.524 . S
C645 H648 0.999 . S
C646 H616 0.950 . S
C646 C645 1.524 . S
C646 C647 1.415 . S
C647 H617 0.950 . S
C647 C642 1.363 . S
C647 C646 1.415 . S
H648 C645 0.999 . S
H649 C630 0.913 . S
H650 C668 0.951 . S
H651 C670 0.951 . S
H652 C672 0.950 . S
H653 C673 0.950 . S
H654 C675 0.950 . S
H655 C678 0.950 . S
H656 C679 0.950 . S
H657 C681 0.950 . S
H658 C682 0.950 . S
H659 C683 0.951 . S
H660 C685 0.951 . S
H661 C687 0.950 . S
H662 C688 0.950 . S
H663 C690 0.950 . S
H664 C693 0.950 . S
H665 C694 0.950 . S
H666 C696 0.950 . S
H667 C697 0.950 . S
C668 H650 0.951 . S
C668 C669 1.366 . S
C668 C670 1.388 . S
C669 C668 1.366 . S
C669 C673 1.385 . S
C670 H651 0.951 . S
C670 C668 1.388 . S
C670 C671 1.366 . S
C671 C670 1.366 . S
C671 C672 1.414 . S
C671 C674 1.499 . S
C672 H652 0.950 . S
C672 C671 1.414 . S
C672 C673 1.374 . S
C673 H653 0.950 . S
C673 C669 1.385 . S
C673 C672 1.374 . S
C674 C671 1.499 . S
C674 C675 1.373 . S
C674 C676 1.389 . S
C675 H654 0.950 . S
C675 C674 1.373 . S
C675 C691 1.377 . S
C676 C674 1.389 . S
C676 C677 1.524 . S
C676 C690 1.377 . S
C677 C676 1.524 . S
C677 C678 1.397 . S
C677 C682 1.363 . S
C678 H655 0.950 . S
C678 C677 1.397 . S
C678 C679 1.334 . S
C679 H656 0.950 . S
C679 C678 1.334 . S
C679 C680 1.287 . S
C680 C679 1.287 . S
C680 C681 1.524 . S
C680 H699 0.913 . S
C681 H657 0.950 . S
C681 C680 1.524 . S
C681 C682 1.415 . S
C682 H658 0.950 . S
C682 C677 1.363 . S
C682 C681 1.415 . S
C683 H659 0.951 . S
C683 C684 1.366 . S
C683 C685 1.388 . S
C684 C683 1.366 . S
C684 C688 1.385 . S
C685 H660 0.951 . S
C685 C683 1.388 . S
C685 C686 1.366 . S
C686 C685 1.366 . S
C686 C687 1.414 . S
C686 C689 1.499 . S
C687 H661 0.950 . S
C687 C686 1.414 . S
C687 C688 1.374 . S
C688 H662 0.950 . S
C688 C684 1.385 . S
C688 C687 1.374 . S
C689 C686 1.499 . S
C689 C690 1.373 . S
C689 C691 1.389 . S
C690 H663 0.950 . S
C690 C676 1.377 . S
C690 C689 1.373 . S
C691 C675 1.377 . S
C691 C689 1.389 . S
C691 C692 1.524 . S
C692 C691 1.524 . S
C692 C693 1.397 . S
C692 C697 1.363 . S
C693 H664 0.950 . S
C693 C692 1.397 . S
C693 C694 1.334 . S
C694 H665 0.950 . S
C694 C693 1.334 . S
C694 C695 1.287 . S
C695 C694 1.287 . S
C695 C696 1.524 . S
C695 H698 0.999 . S
C696 H666 0.950 . S
C696 C695 1.524 . S
C696 C697 1.415 . S
C697 H667 0.950 . S
C697 C692 1.363 . S
C697 C696 1.415 . S
H698 C695 0.999 . S
H699 C680 0.913 . S
H700 C718 0.951 . S
H701 C720 0.951 . S
H702 C722 0.950 . S
H703 C723 0.950 . S
H704 C725 0.950 . S
H705 C728 0.950 . S
H706 C729 0.950 . S
H707 C731 0.950 . S
H708 C732 0.950 . S
H709 C733 0.951 . S
H710 C735 0.951 . S
H711 C737 0.950 . S
H712 C738 0.950 . S
H713 C740 0.950 . S
H714 C743 0.950 . S
H715 C744 0.950 . S
H716 C746 0.950 . S
H717 C747 0.950 . S
C718 H700 0.951 . S
C718 C719 1.366 . S
C718 C720 1.388 . S
C719 C718 1.366 . S
C719 C723 1.385 . S
C720 H701 0.951 . S
C720 C718 1.388 . S
C720 C721 1.366 . S
C721 C720 1.366 . S
C721 C722 1.414 . S
C721 C724 1.499 . S
C722 H702 0.950 . S
C722 C721 1.414 . S
C722 C723 1.374 . S
C723 H703 0.950 . S
C723 C719 1.385 . S
C723 C722 1.374 . S
C724 C721 1.499 . S
C724 C725 1.373 . S
C724 C726 1.389 . S
C725 H704 0.950 . S
C725 C724 1.373 . S
C725 C741 1.377 . S
C726 C724 1.389 . S
C726 C727 1.524 . S
C726 C740 1.377 . S
C727 C726 1.524 . S
C727 C728 1.397 . S
C727 C732 1.363 . S
C728 H705 0.950 . S
C728 C727 1.397 . S
C728 C729 1.334 . S
C729 H706 0.950 . S
C729 C728 1.334 . S
C729 C730 1.287 . S
C730 C729 1.287 . S
C730 C731 1.524 . S
C730 H749 0.913 . S
C731 H707 0.950 . S
C731 C730 1.524 . S
C731 C732 1.415 . S
C732 H708 0.950 . S
C732 C727 1.363 . S
C732 C731 1.415 . S
C733 H709 0.951 . S
C733 C734 1.366 . S
C733 C735 1.388 . S
C734 C733 1.366 . S
C734 C738 1.385 . S
C735 H710 0.951 . S
C735 C733 1.388 . S
C735 C736 1.366 . S
C736 C735 1.366 . S
C736 C737 1.414 . S
C736 C739 1.499 . S
C737 H711 0.950 . S
C737 C736 1.414 . S
C737 C738 1.374 . S
C738 H712 0.950 . S
C738 C734 1.385 . S
C738 C737 1.374 . S
C739 C736 1.499 . S
C739 C740 1.373 . S
C739 C741 1.389 . S
C740 H713 0.950 . S
C740 C726 1.377 . S
C740 C739 1.373 . S
C741 C725 1.377 . S
C741 C739 1.389 . S
C741 C742 1.524 . S
C742 C741 1.524 . S
C742 C743 1.397 . S
C742 C747 1.363 . S
C743 H714 0.950 . S
C743 C742 1.397 . S
C743 C744 1.334 . S
C744 H715 0.950 . S
C744 C743 1.334 . S
C744 C745 1.287 . S
C745 C744 1.287 . S
C745 C746 1.524 . S
C745 H748 0.999 . S
C746 H716 0.950 . S
C746 C745 1.524 . S
C746 C747 1.415 . S
C747 H717 0.950 . S
C747 C742 1.363 . S
C747 C746 1.415 . S
H748 C745 0.999 . S
H749 C730 0.913 . S
H750 C768 0.951 . S
H751 C770 0.951 . S
H752 C772 0.950 . S
H753 C773 0.950 . S
H754 C775 0.950 . S
H755 C778 0.950 . S
H756 C779 0.950 . S
H757 C781 0.950 . S
H758 C782 0.950 . S
H759 C783 0.951 . S
H760 C785 0.951 . S
H761 C787 0.950 . S
H762 C788 0.950 . S
H763 C790 0.950 . S
H764 C793 0.950 . S
H765 C794 0.950 . S
H766 C796 0.950 . S
H767 C797 0.950 . S
C768 H750 0.951 . S
C768 C769 1.366 . S
C768 C770 1.388 . S
C769 C768 1.366 . S
C769 C773 1.385 . S
C770 H751 0.951 . S
C770 C768 1.388 . S
C770 C771 1.366 . S
C771 C770 1.366 . S
C771 C772 1.414 . S
C771 C774 1.499 . S
C772 H752 0.950 . S
C772 C771 1.414 . S
C772 C773 1.374 . S
C773 H753 0.950 . S
C773 C769 1.385 . S
C773 C772 1.374 . S
C774 C771 1.499 . S
C774 C775 1.373 . S
C774 C776 1.389 . S
C775 H754 0.950 . S
C775 C774 1.373 . S
C775 C791 1.377 . S
C776 C774 1.389 . S
C776 C777 1.524 . S
C776 C790 1.377 . S
C777 C776 1.524 . S
C777 C778 1.397 . S
C777 C782 1.363 . S
C778 H755 0.950 . S
C778 C777 1.397 . S
C778 C779 1.334 . S
C779 H756 0.950 . S
C779 C778 1.334 . S
C779 C780 1.287 . S
C780 C779 1.287 . S
C780 C781 1.524 . S
C780 H799 0.913 . S
C781 H757 0.950 . S
C781 C780 1.524 . S
C781 C782 1.415 . S
C782 H758 0.950 . S
C782 C777 1.363 . S
C782 C781 1.415 . S
C783 H759 0.951 . S
C783 C784 1.366 . S
C783 C785 1.388 . S
C784 C783 1.366 . S
C784 C788 1.385 . S
C785 H760 0.951 . S
C785 C783 1.388 . S
C785 C786 1.366 . S
C786 C785 1.366 . S
C786 C787 1.414 . S
C786 C789 1.499 . S
C787 H761 0.950 . S
C787 C786 1.414 . S
C787 C788 1.374 . S
C788 H762 0.950 . S
C788 C784 1.385 . S
C788 C787 1.374 . S
C789 C786 1.499 . S
C789 C790 1.373 . S
C789 C791 1.389 . S
C790 H763 0.950 . S
C790 C776 1.377 . S
C790 C789 1.373 . S
C791 C775 1.377 . S
C791 C789 1.389 . S
C791 C792 1.524 . S
C792 C791 1.524 . S
C792 C793 1.397 . S
C792 C797 1.363 . S
C793 H764 0.950 . S
C793 C792 1.397 . S
C793 C794 1.334 . S
C794 H765 0.950 . S
C794 C793 1.334 . S
C794 C795 1.287 . S
C795 C794 1.287 . S
C795 C796 1.524 . S
C795 H798 0.999 . S
C796 H766 0.950 . S
C796 C795 1.524 . S
C796 C797 1.415 . S
C797 H767 0.950 . S
C797 C792 1.363 . S
C797 C796 1.415 . S
H798 C795 0.999 . S
H799 C780 0.913 . S
H800 C818 0.951 . S
H801 C820 0.951 . S
H802 C822 0.950 . S
H803 C823 0.950 . S
H804 C825 0.950 . S
H805 C828 0.950 . S
H806 C829 0.950 . S
H807 C831 0.950 . S
H808 C832 0.950 . S
H809 C833 0.951 . S
H810 C835 0.951 . S
H811 C837 0.950 . S
H812 C838 0.950 . S
H813 C840 0.950 . S
H814 C843 0.950 . S
H815 C844 0.950 . S
H816 C846 0.950 . S
H817 C847 0.950 . S
C818 H800 0.951 . S
C818 C819 1.366 . S
C818 C820 1.388 . S
C819 C818 1.366 . S
C819 C823 1.385 . S
C820 H801 0.951 . S
C820 C818 1.388 . S
C820 C821 1.366 . S
C821 C820 1.366 . S
C821 C822 1.414 . S
C821 C824 1.499 . S
C822 H802 0.950 . S
C822 C821 1.414 . S
C822 C823 1.374 . S
C823 H803 0.950 . S
C823 C819 1.385 . S
C823 C822 1.374 . S
C824 C821 1.499 . S
C824 C825 1.373 . S
C824 C826 1.389 . S
C825 H804 0.950 . S
C825 C824 1.373 . S
C825 C841 1.377 . S
C826 C824 1.389 . S
C826 C827 1.524 . S
C826 C840 1.377 . S
C827 C826 1.524 . S
C827 C828 1.397 . S
C827 C832 1.363 . S
C828 H805 0.950 . S
C828 C827 1.397 . S
C828 C829 1.334 . S
C829 H806 0.950 . S
C829 C828 1.334 . S
C829 C830 1.287 . S
C830 C829 1.287 . S
C830 C831 1.524 . S
C830 H849 0.913 . S
C831 H807 0.950 . S
C831 C830 1.524 . S
C831 C832 1.415 . S
C832 H808 0.950 . S
C832 C827 1.363 . S
C832 C831 1.415 . S
C833 H809 0.951 . S
C833 C834 1.366 . S
C833 C835 1.388 . S
C834 C833 1.366 . S
C834 C838 1.385 . S
C835 H810 0.951 . S
C835 C833 1.388 . S
C835 C836 1.366 . S
C836 C835 1.366 . S
C836 C837 1.414 . S
C836 C839 1.499 . S
C837 H811 0.950 . S
C837 C836 1.414 . S
C837 C838 1.374 . S
C838 H812 0.950 . S
C838 C834 1.385 . S
C838 C837 1.374 . S
C839 C836 1.499 . S
C839 C840 1.373 . S
C839 C841 1.389 . S
C840 H813 0.950 . S
C840 C826 1.377 . S
C840 C839 1.373 . S
C841 C825 1.377 . S
C841 C839 1.389 . S
C841 C842 1.524 . S
C842 C841 1.524 . S
C842 C843 1.397 . S
C842 C847 1.363 . S
C843 H814 0.950 . S
C843 C842 1.397 . S
C843 C844 1.334 . S
C844 H815 0.950 . S
C844 C843 1.334 . S
C844 C845 1.287 . S
C845 C844 1.287 . S
C845 C846 1.524 . S
C845 H848 0.999 . S
C846 H816 0.950 . S
C846 C845 1.524 . S
C846 C847 1.415 . S
C847 H817 0.950 . S
C847 C842 1.363 . S
C847 C846 1.415 . S
H848 C845 0.999 . S
H849 C830 0.913 . S
H850 C868 0.951 . S
H851 C870 0.951 . S
H852 C872 0.950 . S
H853 C873 0.950 . S
H854 C875 0.950 . S
H855 C878 0.950 . S
H856 C879 0.950 . S
H857 C881 0.950 . S
H858 C882 0.950 . S
H859 C883 0.951 . S
H860 C885 0.951 . S
H861 C887 0.950 . S
H862 C888 0.950 . S
H863 C890 0.950 . S
H864 C893 0.950 . S
H865 C894 0.950 . S
H866 C896 0.950 . S
H867 C897 0.950 . S
C868 H850 0.951 . S
C868 C869 1.366 . S
C868 C870 1.388 . S
C869 C868 1.366 . S
C869 C873 1.385 . S
C870 H851 0.951 . S
C870 C868 1.388 . S
C870 C871 1.366 . S
C871 C870 1.366 . S
C871 C872 1.414 . S
C871 C874 1.499 . S
C872 H852 0.950 . S
C872 C871 1.414 . S
C872 C873 1.374 . S
C873 H853 0.950 . S
C873 C869 1.385 . S
C873 C872 1.374 . S
C874 C871 1.499 . S
C874 C875 1.373 . S
C874 C876 1.389 . S
C875 H854 0.950 . S
C875 C874 1.373 . S
C875 C891 1.377 . S
C876 C874 1.389 . S
C876 C877 1.524 . S
C876 C890 1.377 . S
C877 C876 1.524 . S
C877 C878 1.397 . S
C877 C882 1.363 . S
C878 H855 0.950 . S
C878 C877 1.397 . S
C878 C879 1.334 . S
C879 H856 0.950 . S
C879 C878 1.334 . S
C879 C880 1.287 . S
C880 C879 1.287 . S
C880 C881 1.524 . S
C880 H899 0.913 . S
C881 H857 0.950 . S
C881 C880 1.524 . S
C881 C882 1.415 . S
C882 H858 0.950 . S
C882 C877 1.363 . S
C882 C881 1.415 . S
C883 H859 0.951 . S
C883 C884 1.366 . S
C883 C885 1.388 . S
C884 C883 1.366 . S
C884 C888 1.385 . S
C885 H860 0.951 . S
C885 C883 1.388 . S
C885 C886 1.366 . S
C886 C885 1.366 . S
C886 C887 1.414 . S
C886 C889 1.499 . S
C887 H861 0.950 . S
C887 C886 1.414 . S
C887 C888 1.374 . S
C888 H862 0.950 . S
C888 C884 1.385 . S
C888 C887 1.374 . S
C889 C886 1.499 . S
C889 C890 1.373 . S
C889 C891 1.389 . S
C890 H863 0.950 . S
C890 C876 1.377 . S
C890 C889 1.373 . S
C891 C875 1.377 . S
C891 C889 1.389 . S
C891 C892 1.524 . S
C892 C891 1.524 . S
C892 C893 1.397 . S
C892 C897 1.363 . S
C893 H864 0.950 . S
C893 C892 1.397 . S
C893 C894 1.334 . S
C894 H865 0.950 . S
C894 C893 1.334 . S
C894 C895 1.287 . S
C895 C894 1.287 . S
C895 C896 1.524 . S
C895 H898 0.999 . S
C896 H866 0.950 . S
C896 C895 1.524 . S
C896 C897 1.415 . S
C897 H867 0.950 . S
C897 C892 1.363 . S
C897 C896 1.415 . S
H898 C895 0.999 . S
H899 C880 0.913 . S
H900 C918 0.951 . S
H901 C920 0.951 . S
H902 C922 0.950 . S
H903 C923 0.950 . S
H904 C925 0.950 . S
H905 C928 0.950 . S
H906 C929 0.950 . S
H907 C931 0.950 . S
H908 C932 0.950 . S
H909 C933 0.951 . S
H910 C935 0.951 . S
H911 C937 0.950 . S
H912 C938 0.950 . S
H913 C940 0.950 . S
H914 C943 0.950 . S
H915 C944 0.950 . S
H916 C946 0.950 . S
H917 C947 0.950 . S
C918 H900 0.951 . S
C918 C919 1.366 . S
C918 C920 1.388 . S
C919 C918 1.366 . S
C919 C923 1.385 . S
C920 H901 0.951 . S
C920 C918 1.388 . S
C920 C921 1.366 . S
C921 C920 1.366 . S
C921 C922 1.414 . S
C921 C924 1.499 . S
C922 H902 0.950 . S
C922 C921 1.414 . S
C922 C923 1.374 . S
C923 H903 0.950 . S
C923 C919 1.385 . S
C923 C922 1.374 . S
C924 C921 1.499 . S
C924 C925 1.373 . S
C924 C926 1.389 . S
C925 H904 0.950 . S
C925 C924 1.373 . S
C925 C941 1.377 . S
C926 C924 1.389 . S
C926 C927 1.524 . S
C926 C940 1.377 . S
C927 C926 1.524 . S
C927 C928 1.397 . S
C927 C932 1.363 . S
C928 H905 0.950 . S
C928 C927 1.397 . S
C928 C929 1.334 . S
C929 H906 0.950 . S
C929 C928 1.334 . S
C929 C930 1.287 . S
C930 C929 1.287 . S
C930 C931 1.524 . S
C930 H949 0.913 . S
C931 H907 0.950 . S
C931 C930 1.524 . S
C931 C932 1.415 . S
C932 H908 0.950 . S
C932 C927 1.363 . S
C932 C931 1.415 . S
C933 H909 0.951 . S
C933 C934 1.366 . S
C933 C935 1.388 . S
C934 C933 1.366 . S
C934 C938 1.385 . S
C935 H910 0.951 . S
C935 C933 1.388 . S
C935 C936 1.366 . S
C936 C935 1.366 . S
C936 C937 1.414 . S
C936 C939 1.499 . S
C937 H911 0.950 . S
C937 C936 1.414 . S
C937 C938 1.374 . S
C938 H912 0.950 . S
C938 C934 1.385 . S
C938 C937 1.374 . S
C939 C936 1.499 . S
C939 C940 1.373 . S
C939 C941 1.389 . S
C940 H913 0.950 . S
C940 C926 1.377 . S
C940 C939 1.373 . S
C941 C925 1.377 . S
C941 C939 1.389 . S
C941 C942 1.524 . S
C942 C941 1.524 . S
C942 C943 1.397 . S
C942 C947 1.363 . S
C943 H914 0.950 . S
C943 C942 1.397 . S
C943 C944 1.334 . S
C944 H915 0.950 . S
C944 C943 1.334 . S
C944 C945 1.287 . S
C945 C944 1.287 . S
C945 C946 1.524 . S
C945 H948 0.999 . S
C946 H916 0.950 . S
C946 C945 1.524 . S
C946 C947 1.415 . S
C947 H917 0.950 . S
C947 C942 1.363 . S
C947 C946 1.415 . S
H948 C945 0.999 . S
H949 C930 0.913 . S
H950 C968 0.951 . S
H951 C970 0.951 . S
H952 C972 0.950 . S
H953 C973 0.950 . S
H954 C975 0.950 . S
H955 C978 0.950 . S
H956 C979 0.950 . S
H957 C981 0.950 . S
H958 C982 0.950 . S
H959 C983 0.951 . S
H960 C985 0.951 . S
H961 C987 0.950 . S
H962 C988 0.950 . S
H963 C990 0.950 . S
H964 C993 0.950 . S
H965 C994 0.950 . S
H966 C996 0.950 . S
H967 C997 0.950 . S
C968 H950 0.951 . S
C968 C969 1.366 . S
C968 C970 1.388 . S
C969 C968 1.366 . S
C969 C973 1.385 . S
C970 H951 0.951 . S
C970 C968 1.388 . S
C970 C971 1.366 . S
C971 C970 1.366 . S
C971 C972 1.414 . S
C971 C974 1.499 . S
C972 H952 0.950 . S
C972 C971 1.414 . S
C972 C973 1.374 . S
C973 H953 0.950 . S
C973 C969 1.385 . S
C973 C972 1.374 . S
C974 C971 1.499 . S
C974 C975 1.373 . S
C974 C976 1.389 . S
C975 H954 0.950 . S
C975 C974 1.373 . S
C975 C991 1.377 . S
C976 C974 1.389 . S
C976 C977 1.524 . S
C976 C990 1.377 . S
C977 C976 1.524 . S
C977 C978 1.397 . S
C977 C982 1.363 . S
C978 H955 0.950 . S
C978 C977 1.397 . S
C978 C979 1.334 . S
C979 H956 0.950 . S
C979 C978 1.334 . S
C979 C980 1.287 . S
C980 C979 1.287 . S
C980 C981 1.524 . S
C980 H999 0.913 . S
C981 H957 0.950 . S
C981 C980 1.524 . S
C981 C982 1.415 . S
C982 H958 0.950 . S
C982 C977 1.363 . S
C982 C981 1.415 . S
C983 H959 0.951 . S
C983 C984 1.366 . S
C983 C985 1.388 . S
C984 C983 1.366 . S
C984 C988 1.385 . S
C985 H960 0.951 . S
C985 C983 1.388 . S
C985 C986 1.366 . S
C986 C985 1.366 . S
C986 C987 1.414 . S
C986 C989 1.499 . S
C987 H961 0.950 . S
C987 C986 1.414 . S
C987 C988 1.374 . S
C988 H962 0.950 . S
C988 C984 1.385 . S
C988 C987 1.374 . S
C989 C986 1.499 . S
C989 C990 1.373 . S
C989 C991 1.389 . S
C990 H963 0.950 . S
C990 C976 1.377 . S
C990 C989 1.373 . S
C991 C975 1.377 . S
C991 C989 1.389 . S
C991 C992 1.524 . S
C992 C991 1.524 . S
C992 C993 1.397 . S
C992 C997 1.363 . S
C993 H964 0.950 . S
C993 C992 1.397 . S
C993 C994 1.334 . S
C994 H965 0.950 . S
C994 C993 1.334 . S
C994 C995 1.287 . S
C995 C994 1.287 . S
C995 C996 1.524 . S
C995 H998 0.999 . S
C996 H966 0.950 . S
C996 C995 1.524 . S
C996 C997 1.415 . S
C997 H967 0.950 . S
C997 C992 1.363 . S
C997 C996 1.415 . S
H998 C995 0.999 . S
H999 C980 0.913 . S
H1000 C1018 0.951 . S
H1001 C1020 0.951 . S
H1002 C1022 0.950 . S
H1003 C1023 0.950 . S
H1004 C1025 0.950 . S
H1005 C1028 0.950 . S
H1006 C1029 0.950 . S
H1007 C1031 0.950 . S
H1008 C1032 0.950 . S
H1009 C1033 0.951 . S
H1010 C1035 0.951 . S
H1011 C1037 0.950 . S
H1012 C1038 0.950 . S
H1013 C1040 0.950 . S
H1014 C1043 0.950 . S
H1015 C1044 0.950 . S
H1016 C1046 0.950 . S
H1017 C1047 0.950 . S
C1018 H1000 0.951 . S
C1018 C1019 1.366 . S
C1018 C1020 1.388 . S
C1019 C1018 1.366 . S
C1019 C1023 1.385 . S
C1020 H1001 0.951 . S
C1020 C1018 1.388 . S
C1020 C1021 1.366 . S
C1021 C1020 1.366 . S
C1021 C1022 1.414 . S
C1021 C1024 1.499 . S
C1022 H1002 0.950 . S
C1022 C1021 1.414 . S
C1022 C1023 1.374 . S
C1023 H1003 0.950 . S
C1023 C1019 1.385 . S
C1023 C1022 1.374 . S
C1024 C1021 1.499 . S
C1024 C1025 1.373 . S
C1024 C1026 1.389 . S
C1025 H1004 0.950 . S
C1025 C1024 1.373 . S
C1025 C1041 1.377 . S
C1026 C1024 1.389 . S
C1026 C1027 1.524 . S
C1026 C1040 1.377 . S
C1027 C1026 1.524 . S
C1027 C1028 1.397 . S
C1027 C1032 1.363 . S
C1028 H1005 0.950 . S
C1028 C1027 1.397 . S
C1028 C1029 1.334 . S
C1029 H1006 0.950 . S
C1029 C1028 1.334 . S
C1029 C1030 1.287 . S
C1030 C1029 1.287 . S
C1030 C1031 1.524 . S
C1030 H1049 0.913 . S
C1031 H1007 0.950 . S
C1031 C1030 1.524 . S
C1031 C1032 1.415 . S
C1032 H1008 0.950 . S
C1032 C1027 1.363 . S
C1032 C1031 1.415 . S
C1033 H1009 0.951 . S
C1033 C1034 1.366 . S
C1033 C1035 1.388 . S
C1034 C1033 1.366 . S
C1034 C1038 1.385 . S
C1035 H1010 0.951 . S
C1035 C1033 1.388 . S
C1035 C1036 1.366 . S
C1036 C1035 1.366 . S
C1036 C1037 1.414 . S
C1036 C1039 1.499 . S
C1037 H1011 0.950 . S
C1037 C1036 1.414 . S
C1037 C1038 1.374 . S
C1038 H1012 0.950 . S
C1038 C1034 1.385 . S
C1038 C1037 1.374 . S
C1039 C1036 1.499 . S
C1039 C1040 1.373 . S
C1039 C1041 1.389 . S
C1040 H1013 0.950 . S
C1040 C1026 1.377 . S
C1040 C1039 1.373 . S
C1041 C1025 1.377 . S
C1041 C1039 1.389 . S
C1041 C1042 1.524 . S
C1042 C1041 1.524 . S
C1042 C1043 1.397 . S
C1042 C1047 1.363 . S
C1043 H1014 0.950 . S
C1043 C1042 1.397 . S
C1043 C1044 1.334 . S
C1044 H1015 0.950 . S
C1044 C1043 1.334 . S
C1044 C1045 1.287 . S
C1045 C1044 1.287 . S
C1045 C1046 1.524 . S
C1045 H1048 0.999 . S
C1046 H1016 0.950 . S
C1046 C1045 1.524 . S
C1046 C1047 1.415 . S
C1047 H1017 0.950 . S
C1047 C1042 1.363 . S
C1047 C1046 1.415 . S
H1048 C1045 0.999 . S
H1049 C1030 0.913 . S
H1050 C1068 0.951 . S
H1051 C1070 0.951 . S
H1052 C1072 0.950 . S
H1053 C1073 0.950 . S
H1054 C1075 0.950 . S
H1055 C1078 0.950 . S
H1056 C1079 0.950 . S
H1057 C1081 0.950 . S
H1058 C1082 0.950 . S
H1059 C1083 0.951 . S
H1060 C1085 0.951 . S
H1061 C1087 0.950 . S
H1062 C1088 0.950 . S
H1063 C1090 0.950 . S
H1064 C1093 0.950 . S
H1065 C1094 0.950 . S
H1066 C1096 0.950 . S
H1067 C1097 0.950 . S
C1068 H1050 0.951 . S
C1068 C1069 1.366 . S
C1068 C1070 1.388 . S
C1069 C1068 1.366 . S
C1069 C1073 1.385 . S
C1070 H1051 0.951 . S
C1070 C1068 1.388 . S
C1070 C1071 1.366 . S
C1071 C1070 1.366 . S
C1071 C1072 1.414 . S
C1071 C1074 1.499 . S
C1072 H1052 0.950 . S
C1072 C1071 1.414 . S
C1072 C1073 1.374 . S
C1073 H1053 0.950 . S
C1073 C1069 1.385 . S
C1073 C1072 1.374 . S
C1074 C1071 1.499 . S
C1074 C1075 1.373 . S
C1074 C1076 1.389 . S
C1075 H1054 0.950 . S
C1075 C1074 1.373 . S
C1075 C1091 1.377 . S
C1076 C1074 1.389 . S
C1076 C1077 1.524 . S
C1076 C1090 1.377 . S
C1077 C1076 1.524 . S
C1077 C1078 1.397 . S
C1077 C1082 1.363 . S
C1078 H1055 0.950 . S
C1078 C1077 1.397 . S
C1078 C1079 1.334 . S
C1079 H1056 0.950 . S
C1079 C1078 1.334 . S
C1079 C1080 1.287 . S
C1080 C1079 1.287 . S
C1080 C1081 1.524 . S
C1080 H1099 0.913 . S
C1081 H1057 0.950 . S
C1081 C1080 1.524 . S
C1081 C1082 1.415 . S
C1082 H1058 0.950 . S
C1082 C1077 1.363 . S
C1082 C1081 1.415 . S
C1083 H1059 0.951 . S
C1083 C1084 1.366 . S
C1083 C1085 1.388 . S
C1084 C1083 1.366 . S
C1084 C1088 1.385 . S
C1085 H1060 0.951 . S
C1085 C1083 1.388 . S
C1085 C1086 1.366 . S
C1086 C1085 1.366 . S
C1086 C1087 1.414 . S
C1086 C1089 1.499 . S
C1087 H1061 0.950 . S
C1087 C1086 1.414 . S
C1087 C1088 1.374 . S
C1088 H1062 0.950 . S
C1088 C1084 1.385 . S
C1088 C1087 1.374 . S
C1089 C1086 1.499 . S
C1089 C1090 1.373 . S
C1089 C1091 1.389 . S
C1090 H1063 0.950 . S
C1090 C1076 1.377 . S
C1090 C1089 1.373 . S
C1091 C1075 1.377 . S
C1091 C1089 1.389 . S
C1091 C1092 1.524 . S
C1092 C1091 1.524 . S
C1092 C1093 1.397 . S
C1092 C1097 1.363 . S
C1093 H1064 0.950 . S
C1093 C1092 1.397 . S
C1093 C1094 1.334 . S
C1094 H1065 0.950 . S
C1094 C1093 1.334 . S
C1094 C1095 1.287 . S
C1095 C1094 1.287 . S
C1095 C1096 1.524 . S
C1095 H1098 0.999 . S
C1096 H1066 0.950 . S
C1096 C1095 1.524 . S
C1096 C1097 1.415 . S
C1097 H1067 0.950 . S
C1097 C1092 1.363 . S
C1097 C1096 1.415 . S
H1098 C1095 0.999 . S
H1099 C1080 0.913 . S
H1100 C1118 0.951 . S
H1101 C1120 0.951 . S
H1102 C1122 0.950 . S
H1103 C1123 0.950 . S
H1104 C1125 0.950 . S
H1105 C1128 0.950 . S
H1106 C1129 0.950 . S
H1107 C1131 0.950 . S
H1108 C1132 0.950 . S
H1109 C1133 0.951 . S
H1110 C1135 0.951 . S
H1111 C1137 0.950 . S
H1112 C1138 0.950 . S
H1113 C1140 0.950 . S
H1114 C1143 0.950 . S
H1115 C1144 0.950 . S
H1116 C1146 0.950 . S
H1117 C1147 0.950 . S
C1118 H1100 0.951 . S
C1118 C1119 1.366 . S
C1118 C1120 1.388 . S
C1119 C1118 1.366 . S
C1119 C1123 1.385 . S
C1120 H1101 0.951 . S
C1120 C1118 1.388 . S
C1120 C1121 1.366 . S
C1121 C1120 1.366 . S
C1121 C1122 1.414 . S
C1121 C1124 1.499 . S
C1122 H1102 0.950 . S
C1122 C1121 1.414 . S
C1122 C1123 1.374 . S
C1123 H1103 0.950 . S
C1123 C1119 1.385 . S
C1123 C1122 1.374 . S
C1124 C1121 1.499 . S
C1124 C1125 1.373 . S
C1124 C1126 1.389 . S
C1125 H1104 0.950 . S
C1125 C1124 1.373 . S
C1125 C1141 1.377 . S
C1126 C1124 1.389 . S
C1126 C1127 1.524 . S
C1126 C1140 1.377 . S
C1127 C1126 1.524 . S
C1127 C1128 1.397 . S
C1127 C1132 1.363 . S
C1128 H1105 0.950 . S
C1128 C1127 1.397 . S
C1128 C1129 1.334 . S
C1129 H1106 0.950 . S
C1129 C1128 1.334 . S
C1129 C1130 1.287 . S
C1130 C1129 1.287 . S
C1130 C1131 1.524 . S
C1130 H1149 0.913 . S
C1131 H1107 0.950 . S
C1131 C1130 1.524 . S
C1131 C1132 1.415 . S
C1132 H1108 0.950 . S
C1132 C1127 1.363 . S
C1132 C1131 1.415 . S
C1133 H1109 0.951 . S
C1133 C1134 1.366 . S
C1133 C1135 1.388 . S
C1134 C1133 1.366 . S
C1134 C1138 1.385 . S
C1135 H1110 0.951 . S
C1135 C1133 1.388 . S
C1135 C1136 1.366 . S
C1136 C1135 1.366 . S
C1136 C1137 1.414 . S
C1136 C1139 1.499 . S
C1137 H1111 0.950 . S
C1137 C1136 1.414 . S
C1137 C1138 1.374 . S
C1138 H1112 0.950 . S
C1138 C1134 1.385 . S
C1138 C1137 1.374 . S
C1139 C1136 1.499 . S
C1139 C1140 1.373 . S
C1139 C1141 1.389 . S
C1140 H1113 0.950 . S
C1140 C1126 1.377 . S
C1140 C1139 1.373 . S
C1141 C1125 1.377 . S
C1141 C1139 1.389 . S
C1141 C1142 1.524 . S
C1142 C1141 1.524 . S
C1142 C1143 1.397 . S
C1142 C1147 1.363 . S
C1143 H1114 0.950 . S
C1143 C1142 1.397 . S
C1143 C1144 1.334 . S
C1144 H1115 0.950 . S
C1144 C1143 1.334 . S
C1144 C1145 1.287 . S
C1145 C1144 1.287 . S
C1145 C1146 1.524 . S
C1145 H1148 0.999 . S
C1146 H1116 0.950 . S
C1146 C1145 1.524 . S
C1146 C1147 1.415 . S
C1147 H1117 0.950 . S
C1147 C1142 1.363 . S
C1147 C1146 1.415 . S
H1148 C1145 0.999 . S
H1149 C1130 0.913 . S
H1150 C1168 0.951 . S
H1151 C1170 0.951 . S
H1152 C1172 0.950 . S
H1153 C1173 0.950 . S
H1154 C1175 0.950 . S
H1155 C1178 0.950 . S
H1156 C1179 0.950 . S
H1157 C1181 0.950 . S
H1158 C1182 0.950 . S
H1159 C1183 0.951 . S
H1160 C1185 0.951 . S
H1161 C1187 0.950 . S
H1162 C1188 0.950 . S
H1163 C1190 0.950 . S
H1164 C1193 0.950 . S
H1165 C1194 0.950 . S
H1166 C1196 0.950 . S
H1167 C1197 0.950 . S
C1168 H1150 0.951 . S
C1168 C1169 1.366 . S
C1168 C1170 1.388 . S
C1169 C1168 1.366 . S
C1169 C1173 1.385 . S
C1170 H1151 0.951 . S
C1170 C1168 1.388 . S
C1170 C1171 1.366 . S
C1171 C1170 1.366 . S
C1171 C1172 1.414 . S
C1171 C1174 1.499 . S
C1172 H1152 0.950 . S
C1172 C1171 1.414 . S
C1172 C1173 1.374 . S
C1173 H1153 0.950 . S
C1173 C1169 1.385 . S
C1173 C1172 1.374 . S
C1174 C1171 1.499 . S
C1174 C1175 1.373 . S
C1174 C1176 1.389 . S
C1175 H1154 0.950 . S
C1175 C1174 1.373 . S
C1175 C1191 1.377 . S
C1176 C1174 1.389 . S
C1176 C1177 1.524 . S
C1176 C1190 1.377 . S
C1177 C1176 1.524 . S
C1177 C1178 1.397 . S
C1177 C1182 1.363 . S
C1178 H1155 0.950 . S
C1178 C1177 1.397 . S
C1178 C1179 1.334 . S
C1179 H1156 0.950 . S
C1179 C1178 1.334 . S
C1179 C1180 1.287 . S
C1180 C1179 1.287 . S
C1180 C1181 1.524 . S
C1180 H1199 0.913 . S
C1181 H1157 0.950 . S
C1181 C1180 1.524 . S
C1181 C1182 1.415 . S
C1182 H1158 0.950 . S
C1182 C1177 1.363 . S
C1182 C1181 1.415 . S
C1183 H1159 0.951 . S
C1183 C1184 1.366 . S
C1183 C1185 1.388 . S
C1184 C1183 1.366 . S
C1184 C1188 1.385 . S
C1185 H1160 0.951 . S
C1185 C1183 1.388 . S
C1185 C1186 1.366 . S
C1186 C1185 1.366 . S
C1186 C1187 1.414 . S
C1186 C1189 1.499 . S
C1187 H1161 0.950 . S
C1187 C1186 1.414 . S
C1187 C1188 1.374 . S
C1188 H1162 0.950 . S
C1188 C1184 1.385 . S
C1188 C1187 1.374 . S
C1189 C1186 1.499 . S
C1189 C1190 1.373 . S
C1189 C1191 1.389 . S
C1190 H1163 0.950 . S
C1190 C1176 1.377 . S
C1190 C1189 1.373 . S
C1191 C1175 1.377 . S
C1191 C1189 1.389 . S
C1191 C1192 1.524 . S
C1192 C1191 1.524 . S
C1192 C1193 1.397 . S
C1192 C1197 1.363 . S
C1193 H1164 0.950 . S
C1193 C1192 1.397 . S
C1193 C1194 1.334 . S
C1194 H1165 0.950 . S
C1194 C1193 1.334 . S
C1194 C1195 1.287 . S
C1195 C1194 1.287 . S
C1195 C1196 1.524 . S
C1195 H1198 0.999 . S
C1196 H1166 0.950 . S
C1196 C1195 1.524 . S
C1196 C1197 1.415 . S
C1197 H1167 0.950 . S
C1197 C1192 1.363 . S
C1197 C1196 1.415 . S
H1198 C1195 0.999 . S
H1199 C1180 0.913 . S
H1200 C1218 0.951 . S
H1201 C1220 0.951 . S
H1202 C1222 0.950 . S
H1203 C1223 0.950 . S
H1204 C1225 0.950 . S
H1205 C1228 0.950 . S
H1206 C1229 0.950 . S
H1207 C1231 0.950 . S
H1208 C1232 0.950 . S
H1209 C1233 0.951 . S
H1210 C1235 0.951 . S
H1211 C1237 0.950 . S
H1212 C1238 0.950 . S
H1213 C1240 0.950 . S
H1214 C1243 0.950 . S
H1215 C1244 0.950 . S
H1216 C1246 0.950 . S
H1217 C1247 0.950 . S
C1218 H1200 0.951 . S
C1218 C1219 1.388 . S
C1218 C1220 1.388 . S
C1219 C1218 1.388 . S
C1219 C1223 1.362 1_554 S
C1220 H1201 0.951 . S
C1220 C1218 1.388 . S
C1220 C1221 1.366 . S
C1221 C1220 1.366 . S
C1221 C1222 1.414 1_554 S
C1221 C1224 1.499 . S
C1222 H1202 0.950 . S
C1222 C1221 1.414 1_556 S
C1222 C1223 1.374 . S
C1223 H1203 0.950 . S
C1223 C1219 1.362 1_556 S
C1223 C1222 1.374 . S
C1224 C1221 1.499 . S
C1224 C1225 1.358 1_554 S
C1224 C1226 1.404 . S
C1225 H1204 0.950 . S
C1225 C1224 1.358 1_556 S
C1225 C1241 1.377 . S
C1226 C1224 1.404 . S
C1226 C1227 1.524 . S
C1226 C1240 1.377 . S
C1227 C1226 1.524 . S
C1227 C1228 1.397 . S
C1227 C1232 1.363 . S
C1228 H1205 0.950 . S
C1228 C1227 1.397 . S
C1228 C1229 1.334 . S
C1229 H1206 0.950 . S
C1229 C1228 1.334 . S
C1229 C1230 1.287 . S
C1230 C1229 1.287 . S
C1230 C1231 1.524 . S
C1230 H1249 0.913 . S
C1231 H1207 0.950 . S
C1231 C1230 1.524 . S
C1231 C1232 1.415 . S
C1232 H1208 0.950 . S
C1232 C1227 1.363 . S
C1232 C1231 1.415 . S
C1233 H1209 0.951 . S
C1233 C1234 1.356 1_556 S
C1233 C1235 1.388 . S
C1234 C1233 1.356 1_554 S
C1234 C1238 1.394 . S
C1235 H1210 0.951 . S
C1235 C1233 1.388 . S
C1235 C1236 1.371 . S
C1236 C1235 1.371 . S
C1236 C1237 1.409 1_556 S
C1236 C1239 1.498 1_556 S
C1237 H1211 0.950 . S
C1237 C1236 1.409 1_554 S
C1237 C1238 1.374 . S
C1238 H1212 0.950 . S
C1238 C1234 1.394 . S
C1238 C1237 1.374 . S
C1239 C1236 1.498 1_554 S
C1239 C1240 1.391 . S
C1239 C1241 1.372 1_554 S
C1240 H1213 0.950 . S
C1240 C1226 1.377 . S
C1240 C1239 1.391 . S
C1241 C1225 1.377 . S
C1241 C1239 1.372 1_556 S
C1241 C1242 1.524 . S
C1242 C1241 1.524 . S
C1242 C1243 1.397 . S
C1242 C1247 1.363 . S
C1243 H1214 0.950 . S
C1243 C1242 1.397 . S
C1243 C1244 1.334 . S
C1244 H1215 0.950 . S
C1244 C1243 1.334 . S
C1244 C1245 1.287 . S
C1245 C1244 1.287 . S
C1245 C1246 1.524 . S
C1245 H1248 0.999 . S
C1246 H1216 0.950 . S
C1246 C1245 1.524 . S
C1246 C1247 1.415 . S
C1247 H1217 0.950 . S
C1247 C1242 1.363 . S
C1247 C1246 1.415 . S
H1248 C1245 0.999 . S
H1249 C1230 0.913 . S
H1250 C1268 0.951 . S
H1251 C1270 0.951 . S
H1252 C1272 0.950 . S
H1253 C1273 0.950 . S
H1254 C1275 0.950 . S
H1255 C1278 0.950 . S
H1256 C1279 0.950 . S
H1257 C1281 0.950 . S
H1258 C1282 0.950 . S
H1259 C1283 0.951 . S
H1260 C1285 0.951 . S
H1261 C1287 0.950 . S
H1262 C1288 0.950 . S
H1263 C1290 0.950 . S
H1264 C1293 0.950 . S
H1265 C1294 0.950 . S
H1266 C1296 0.950 . S
H1267 C1297 0.950 . S
C1268 H1250 0.951 . S
C1268 C1269 1.366 . S
C1268 C1270 1.388 . S
C1269 C1268 1.366 . S
C1269 C1273 1.385 . S
C1270 H1251 0.951 . S
C1270 C1268 1.388 . S
C1270 C1271 1.366 . S
C1271 C1270 1.366 . S
C1271 C1272 1.414 . S
C1271 C1274 1.499 . S
C1272 H1252 0.950 . S
C1272 C1271 1.414 . S
C1272 C1273 1.374 . S
C1273 H1253 0.950 . S
C1273 C1269 1.385 . S
C1273 C1272 1.374 . S
C1274 C1271 1.499 . S
C1274 C1275 1.373 . S
C1274 C1276 1.389 . S
C1275 H1254 0.950 . S
C1275 C1274 1.373 . S
C1275 C1291 1.377 . S
C1276 C1274 1.389 . S
C1276 C1277 1.524 . S
C1276 C1290 1.377 . S
C1277 C1276 1.524 . S
C1277 C1278 1.397 . S
C1277 C1282 1.363 . S
C1278 H1255 0.950 . S
C1278 C1277 1.397 . S
C1278 C1279 1.334 . S
C1279 H1256 0.950 . S
C1279 C1278 1.334 . S
C1279 C1280 1.287 . S
C1280 C1279 1.287 . S
C1280 C1281 1.524 . S
C1280 H1299 0.913 . S
C1281 H1257 0.950 . S
C1281 C1280 1.524 . S
C1281 C1282 1.415 . S
C1282 H1258 0.950 . S
C1282 C1277 1.363 . S
C1282 C1281 1.415 . S
C1283 H1259 0.951 . S
C1283 C1284 1.366 . S
C1283 C1285 1.388 . S
C1284 C1283 1.366 . S
C1284 C1288 1.385 . S
C1285 H1260 0.951 . S
C1285 C1283 1.388 . S
C1285 C1286 1.366 . S
C1286 C1285 1.366 . S
C1286 C1287 1.414 . S
C1286 C1289 1.499 . S
C1287 H1261 0.950 . S
C1287 C1286 1.414 . S
C1287 C1288 1.374 . S
C1288 H1262 0.950 . S
C1288 C1284 1.385 . S
C1288 C1287 1.374 . S
C1289 C1286 1.499 . S
C1289 C1290 1.373 . S
C1289 C1291 1.389 . S
C1290 H1263 0.950 . S
C1290 C1276 1.377 . S
C1290 C1289 1.373 . S
C1291 C1275 1.377 . S
C1291 C1289 1.389 . S
C1291 C1292 1.524 . S
C1292 C1291 1.524 . S
C1292 C1293 1.397 . S
C1292 C1297 1.363 . S
C1293 H1264 0.950 . S
C1293 C1292 1.397 . S
C1293 C1294 1.334 . S
C1294 H1265 0.950 . S
C1294 C1293 1.334 . S
C1294 C1295 1.287 . S
C1295 C1294 1.287 . S
C1295 C1296 1.524 . S
C1295 H1298 0.999 . S
C1296 H1266 0.950 . S
C1296 C1295 1.524 . S
C1296 C1297 1.415 . S
C1297 H1267 0.950 . S
C1297 C1292 1.363 . S
C1297 C1296 1.415 . S
H1298 C1295 0.999 . S
H1299 C1280 0.913 . S
H1300 C1318 0.951 . S
H1301 C1320 0.951 . S
H1302 C1322 0.950 . S
H1303 C1323 0.950 . S
H1304 C1325 0.950 . S
H1305 C1328 0.950 . S
H1306 C1329 0.950 . S
H1307 C1331 0.950 . S
H1308 C1332 0.950 . S
H1309 C1333 0.951 . S
H1310 C1335 0.951 . S
H1311 C1337 0.950 . S
H1312 C1338 0.950 . S
H1313 C1340 0.950 . S
H1314 C1343 0.950 . S
H1315 C1344 0.950 . S
H1316 C1346 0.950 . S
H1317 C1347 0.950 . S
C1318 H1300 0.951 . S
C1318 C1319 1.366 . S
C1318 C1320 1.388 . S
C1319 C1318 1.366 . S
C1319 C1323 1.385 1_554 S
C1320 H1301 0.951 . S
C1320 C1318 1.388 . S
C1320 C1321 1.366 . S
C1321 C1320 1.366 . S
C1321 C1322 1.414 1_554 S
C1321 C1324 1.499 . S
C1322 H1302 0.950 . S
C1322 C1321 1.414 1_556 S
C1322 C1323 1.374 . S
C1323 H1303 0.950 . S
C1323 C1319 1.385 1_556 S
C1323 C1322 1.374 . S
C1324 C1321 1.499 . S
C1324 C1325 1.373 1_554 S
C1324 C1326 1.389 . S
C1325 H1304 0.950 . S
C1325 C1324 1.373 1_556 S
C1325 C1341 1.377 . S
C1326 C1324 1.389 . S
C1326 C1327 1.524 . S
C1326 C1340 1.377 . S
C1327 C1326 1.524 . S
C1327 C1328 1.397 . S
C1327 C1332 1.363 . S
C1328 H1305 0.950 . S
C1328 C1327 1.397 . S
C1328 C1329 1.334 . S
C1329 H1306 0.950 . S
C1329 C1328 1.334 . S
C1329 C1330 1.287 . S
C1330 C1329 1.287 . S
C1330 C1331 1.524 . S
C1330 H1349 0.913 . S
C1331 H1307 0.950 . S
C1331 C1330 1.524 . S
C1331 C1332 1.415 . S
C1332 H1308 0.950 . S
C1332 C1327 1.363 . S
C1332 C1331 1.415 . S
C1333 H1309 0.951 . S
C1333 C1334 1.366 1_556 S
C1333 C1335 1.388 . S
C1334 C1333 1.366 1_554 S
C1334 C1338 1.385 . S
C1335 H1310 0.951 . S
C1335 C1333 1.388 . S
C1335 C1336 1.366 1_556 S
C1336 C1335 1.366 1_554 S
C1336 C1337 1.413 . S
C1336 C1339 1.499 . S
C1337 H1311 0.950 . S
C1337 C1336 1.413 . S
C1337 C1338 1.374 . S
C1338 H1312 0.950 . S
C1338 C1334 1.385 . S
C1338 C1337 1.374 . S
C1339 C1336 1.499 . S
C1339 C1340 1.373 . S
C1339 C1341 1.389 1_554 S
C1340 H1313 0.950 . S
C1340 C1326 1.377 . S
C1340 C1339 1.373 . S
C1341 C1325 1.377 . S
C1341 C1339 1.389 1_556 S
C1341 C1342 1.524 . S
C1342 C1341 1.524 . S
C1342 C1343 1.397 . S
C1342 C1347 1.363 . S
C1343 H1314 0.950 . S
C1343 C1342 1.397 . S
C1343 C1344 1.334 . S
C1344 H1315 0.950 . S
C1344 C1343 1.334 . S
C1344 C1345 1.287 . S
C1345 C1344 1.287 . S
C1345 C1346 1.524 . S
C1345 H1348 0.999 . S
C1346 H1316 0.950 . S
C1346 C1345 1.524 . S
C1346 C1347 1.415 . S
C1347 H1317 0.950 . S
C1347 C1342 1.363 . S
C1347 C1346 1.415 . S
H1348 C1345 0.999 . S
H1349 C1330 0.913 . S
H1350 C1368 0.951 . S
H1351 C1370 0.951 . S
H1352 C1372 0.950 . S
H1353 C1373 0.950 . S
H1354 C1375 0.950 . S
H1355 C1378 0.950 . S
H1356 C1379 0.950 . S
H1357 C1381 0.950 . S
H1358 C1382 0.950 . S
H1359 C1383 0.951 . S
H1360 C1385 0.951 . S
H1361 C1387 0.950 . S
H1362 C1388 0.950 . S
H1363 C1390 0.950 . S
H1364 C1393 0.950 . S
H1365 C1394 0.950 . S
H1366 C1396 0.950 . S
H1367 C1397 0.950 . S
C1368 H1350 0.951 . S
C1368 C1369 1.366 . S
C1368 C1370 1.388 . S
C1369 C1368 1.366 . S
C1369 C1373 1.385 . S
C1370 H1351 0.951 . S
C1370 C1368 1.388 . S
C1370 C1371 1.366 . S
C1371 C1370 1.366 . S
C1371 C1372 1.414 . S
C1371 C1374 1.499 . S
C1372 H1352 0.950 . S
C1372 C1371 1.414 . S
C1372 C1373 1.374 . S
C1373 H1353 0.950 . S
C1373 C1369 1.385 . S
C1373 C1372 1.374 . S
C1374 C1371 1.499 . S
C1374 C1375 1.373 . S
C1374 C1376 1.389 . S
C1375 H1354 0.950 . S
C1375 C1374 1.373 . S
C1375 C1391 1.377 . S
C1376 C1374 1.389 . S
C1376 C1377 1.524 . S
C1376 C1390 1.377 . S
C1377 C1376 1.524 . S
C1377 C1378 1.397 . S
C1377 C1382 1.363 . S
C1378 H1355 0.950 . S
C1378 C1377 1.397 . S
C1378 C1379 1.334 . S
C1379 H1356 0.950 . S
C1379 C1378 1.334 . S
C1379 C1380 1.287 . S
C1380 C1379 1.287 . S
C1380 C1381 1.524 . S
C1380 H1399 0.913 . S
C1381 H1357 0.950 . S
C1381 C1380 1.524 . S
C1381 C1382 1.415 . S
C1382 H1358 0.950 . S
C1382 C1377 1.363 . S
C1382 C1381 1.415 . S
C1383 H1359 0.951 . S
C1383 C1384 1.366 . S
C1383 C1385 1.388 . S
C1384 C1383 1.366 . S
C1384 C1388 1.385 . S
C1385 H1360 0.951 . S
C1385 C1383 1.388 . S
C1385 C1386 1.366 . S
C1386 C1385 1.366 . S
C1386 C1387 1.414 . S
C1386 C1389 1.499 . S
C1387 H1361 0.950 . S
C1387 C1386 1.414 . S
C1387 C1388 1.374 . S
C1388 H1362 0.950 . S
C1388 C1384 1.385 . S
C1388 C1387 1.374 . S
C1389 C1386 1.499 . S
C1389 C1390 1.373 . S
C1389 C1391 1.389 . S
C1390 H1363 0.950 . S
C1390 C1376 1.377 . S
C1390 C1389 1.373 . S
C1391 C1375 1.377 . S
C1391 C1389 1.389 . S
C1391 C1392 1.524 . S
C1392 C1391 1.524 . S
C1392 C1393 1.397 . S
C1392 C1397 1.363 . S
C1393 H1364 0.950 . S
C1393 C1392 1.397 . S
C1393 C1394 1.334 . S
C1394 H1365 0.950 . S
C1394 C1393 1.334 . S
C1394 C1395 1.287 . S
C1395 C1394 1.287 . S
C1395 C1396 1.524 . S
C1395 H1398 0.999 . S
C1396 H1366 0.950 . S
C1396 C1395 1.524 . S
C1396 C1397 1.415 . S
C1397 H1367 0.950 . S
C1397 C1392 1.363 . S
C1397 C1396 1.415 . S
H1398 C1395 0.999 . S
H1399 C1380 0.913 . S
H1400 C1418 0.951 . S
H1401 C1420 0.951 . S
H1402 C1422 0.950 . S
H1403 C1423 0.950 . S
H1404 C1425 0.950 . S
H1405 C1428 0.950 . S
H1406 C1429 0.950 . S
H1407 C1431 0.950 . S
H1408 C1432 0.950 . S
H1409 C1433 0.951 . S
H1410 C1435 0.951 . S
H1411 C1437 0.950 . S
H1412 C1438 0.950 . S
H1413 C1440 0.950 . S
H1414 C1443 0.950 . S
H1415 C1444 0.950 . S
H1416 C1446 0.950 . S
H1417 C1447 0.950 . S
C1418 H1400 0.951 . S
C1418 C1419 1.366 . S
C1418 C1420 1.388 . S
C1419 C1418 1.366 . S
C1419 C1423 1.385 . S
C1420 H1401 0.951 . S
C1420 C1418 1.388 . S
C1420 C1421 1.366 . S
C1421 C1420 1.366 . S
C1421 C1422 1.414 . S
C1421 C1424 1.499 . S
C1422 H1402 0.950 . S
C1422 C1421 1.414 . S
C1422 C1423 1.374 . S
C1423 H1403 0.950 . S
C1423 C1419 1.385 . S
C1423 C1422 1.374 . S
C1424 C1421 1.499 . S
C1424 C1425 1.373 . S
C1424 C1426 1.389 . S
C1425 H1404 0.950 . S
C1425 C1424 1.373 . S
C1425 C1441 1.377 . S
C1426 C1424 1.389 . S
C1426 C1427 1.524 . S
C1426 C1440 1.377 . S
C1427 C1426 1.524 . S
C1427 C1428 1.397 . S
C1427 C1432 1.363 . S
C1428 H1405 0.950 . S
C1428 C1427 1.397 . S
C1428 C1429 1.334 . S
C1429 H1406 0.950 . S
C1429 C1428 1.334 . S
C1429 C1430 1.287 . S
C1430 C1429 1.287 . S
C1430 C1431 1.524 . S
C1430 H1449 0.913 . S
C1431 H1407 0.950 . S
C1431 C1430 1.524 . S
C1431 C1432 1.415 . S
C1432 H1408 0.950 . S
C1432 C1427 1.363 . S
C1432 C1431 1.415 . S
C1433 H1409 0.951 . S
C1433 C1434 1.366 . S
C1433 C1435 1.388 . S
C1434 C1433 1.366 . S
C1434 C1438 1.385 . S
C1435 H1410 0.951 . S
C1435 C1433 1.388 . S
C1435 C1436 1.366 . S
C1436 C1435 1.366 . S
C1436 C1437 1.414 . S
C1436 C1439 1.499 . S
C1437 H1411 0.950 . S
C1437 C1436 1.414 . S
C1437 C1438 1.374 . S
C1438 H1412 0.950 . S
C1438 C1434 1.385 . S
C1438 C1437 1.374 . S
C1439 C1436 1.499 . S
C1439 C1440 1.373 . S
C1439 C1441 1.389 . S
C1440 H1413 0.950 . S
C1440 C1426 1.377 . S
C1440 C1439 1.373 . S
C1441 C1425 1.377 . S
C1441 C1439 1.389 . S
C1441 C1442 1.524 . S
C1442 C1441 1.524 . S
C1442 C1443 1.397 . S
C1442 C1447 1.363 . S
C1443 H1414 0.950 . S
C1443 C1442 1.397 . S
C1443 C1444 1.334 . S
C1444 H1415 0.950 . S
C1444 C1443 1.334 . S
C1444 C1445 1.287 . S
C1445 C1444 1.287 . S
C1445 C1446 1.524 . S
C1445 H1448 0.999 . S
C1446 H1416 0.950 . S
C1446 C1445 1.524 . S
C1446 C1447 1.415 . S
C1447 H1417 0.950 . S
C1447 C1442 1.363 . S
C1447 C1446 1.415 . S
H1448 C1445 0.999 . S
H1449 C1430 0.913 . S
H1450 C1468 0.951 . S
H1451 C1470 0.951 . S
H1452 C1472 0.950 . S
H1453 C1473 0.950 . S
H1454 C1475 0.950 . S
H1455 C1478 0.950 . S
H1456 C1479 0.950 . S
H1457 C1481 0.950 . S
H1458 C1482 0.950 . S
H1459 C1483 0.951 . S
H1460 C1485 0.951 . S
H1461 C1487 0.950 . S
H1462 C1488 0.950 . S
H1463 C1490 0.950 . S
H1464 C1493 0.950 . S
H1465 C1494 0.950 . S
H1466 C1496 0.950 . S
H1467 C1497 0.950 . S
C1468 H1450 0.951 . S
C1468 C1469 1.355 1_556 S
C1468 C1470 1.388 . S
C1469 C1468 1.355 1_554 S
C1469 C1473 1.395 . S
C1470 H1451 0.951 . S
C1470 C1468 1.388 . S
C1470 C1471 1.365 . S
C1471 C1470 1.365 . S
C1471 C1472 1.414 1_556 S
C1471 C1474 1.498 1_556 S
C1472 H1452 0.950 . S
C1472 C1471 1.414 1_554 S
C1472 C1473 1.374 . S
C1473 H1453 0.950 . S
C1473 C1469 1.395 . S
C1473 C1472 1.374 . S
C1474 C1471 1.498 1_554 S
C1474 C1475 1.396 . S
C1474 C1476 1.367 1_554 S
C1475 H1454 0.950 . S
C1475 C1474 1.396 . S
C1475 C1491 1.377 . S
C1476 C1474 1.367 1_556 S
C1476 C1477 1.524 . S
C1476 C1490 1.377 . S
C1477 C1476 1.524 . S
C1477 C1478 1.397 . S
C1477 C1482 1.363 . S
C1478 H1455 0.950 . S
C1478 C1477 1.397 . S
C1478 C1479 1.334 . S
C1479 H1456 0.950 . S
C1479 C1478 1.334 . S
C1479 C1480 1.287 . S
C1480 C1479 1.287 . S
C1480 C1481 1.524 . S
C1480 H1499 0.913 . S
C1481 H1457 0.950 . S
C1481 C1480 1.524 . S
C1481 C1482 1.415 . S
C1482 H1458 0.950 . S
C1482 C1477 1.363 . S
C1482 C1481 1.415 . S
C1483 H1459 0.951 . S
C1483 C1484 1.377 . S
C1483 C1485 1.388 . S
C1484 C1483 1.377 . S
C1484 C1488 1.374 1_554 S
C1485 H1460 0.951 . S
C1485 C1483 1.388 . S
C1485 C1486 1.366 . S
C1486 C1485 1.366 . S
C1486 C1487 1.414 1_554 S
C1486 C1489 1.499 1_554 S
C1487 H1461 0.950 . S
C1487 C1486 1.414 1_556 S
C1487 C1488 1.374 . S
C1488 H1462 0.950 . S
C1488 C1484 1.374 1_556 S
C1488 C1487 1.374 . S
C1489 C1486 1.499 1_556 S
C1489 C1490 1.371 . S
C1489 C1491 1.391 1_556 S
C1490 H1463 0.950 . S
C1490 C1476 1.377 . S
C1490 C1489 1.371 . S
C1491 C1475 1.377 . S
C1491 C1489 1.391 1_554 S
C1491 C1492 1.524 . S
C1492 C1491 1.524 . S
C1492 C1493 1.397 . S
C1492 C1497 1.363 . S
C1493 H1464 0.950 . S
C1493 C1492 1.397 . S
C1493 C1494 1.334 . S
C1494 H1465 0.950 . S
C1494 C1493 1.334 . S
C1494 C1495 1.287 . S
C1495 C1494 1.287 . S
C1495 C1496 1.524 . S
C1495 H1498 0.999 . S
C1496 H1466 0.950 . S
C1496 C1495 1.524 . S
C1496 C1497 1.415 . S
C1497 H1467 0.950 . S
C1497 C1492 1.363 . S
C1497 C1496 1.415 . S
H1498 C1495 0.999 . S
H1499 C1480 0.913 . S
H1500 C1518 0.951 . S
H1501 C1520 0.951 . S
H1502 C1522 0.950 . S
H1503 C1523 0.950 . S
H1504 C1525 0.950 . S
H1505 C1528 0.950 . S
H1506 C1529 0.950 . S
H1507 C1531 0.950 . S
H1508 C1532 0.950 . S
H1509 C1533 0.951 . S
H1510 C1535 0.951 . S
H1511 C1537 0.950 . S
H1512 C1538 0.950 . S
H1513 C1540 0.950 . S
H1514 C1543 0.950 . S
H1515 C1544 0.950 . S
H1516 C1546 0.950 . S
H1517 C1547 0.950 . S
C1518 H1500 0.951 . S
C1518 C1519 1.366 . S
C1518 C1520 1.388 . S
C1519 C1518 1.366 . S
C1519 C1523 1.385 . S
C1520 H1501 0.951 . S
C1520 C1518 1.388 . S
C1520 C1521 1.366 . S
C1521 C1520 1.366 . S
C1521 C1522 1.414 . S
C1521 C1524 1.499 . S
C1522 H1502 0.950 . S
C1522 C1521 1.414 . S
C1522 C1523 1.374 . S
C1523 H1503 0.950 . S
C1523 C1519 1.385 . S
C1523 C1522 1.374 . S
C1524 C1521 1.499 . S
C1524 C1525 1.373 . S
C1524 C1526 1.389 . S
C1525 H1504 0.950 . S
C1525 C1524 1.373 . S
C1525 C1541 1.377 . S
C1526 C1524 1.389 . S
C1526 C1527 1.524 . S
C1526 C1540 1.377 . S
C1527 C1526 1.524 . S
C1527 C1528 1.397 . S
C1527 C1532 1.363 . S
C1528 H1505 0.950 . S
C1528 C1527 1.397 . S
C1528 C1529 1.334 . S
C1529 H1506 0.950 . S
C1529 C1528 1.334 . S
C1529 C1530 1.287 . S
C1530 C1529 1.287 . S
C1530 C1531 1.524 . S
C1530 H1549 0.913 . S
C1531 H1507 0.950 . S
C1531 C1530 1.524 . S
C1531 C1532 1.415 . S
C1532 H1508 0.950 . S
C1532 C1527 1.363 . S
C1532 C1531 1.415 . S
C1533 H1509 0.951 . S
C1533 C1534 1.366 . S
C1533 C1535 1.388 . S
C1534 C1533 1.366 . S
C1534 C1538 1.385 . S
C1535 H1510 0.951 . S
C1535 C1533 1.388 . S
C1535 C1536 1.366 . S
C1536 C1535 1.366 . S
C1536 C1537 1.414 . S
C1536 C1539 1.499 . S
C1537 H1511 0.950 . S
C1537 C1536 1.414 . S
C1537 C1538 1.374 . S
C1538 H1512 0.950 . S
C1538 C1534 1.385 . S
C1538 C1537 1.374 . S
C1539 C1536 1.499 . S
C1539 C1540 1.373 . S
C1539 C1541 1.389 . S
C1540 H1513 0.950 . S
C1540 C1526 1.377 . S
C1540 C1539 1.373 . S
C1541 C1525 1.377 . S
C1541 C1539 1.389 . S
C1541 C1542 1.524 . S
C1542 C1541 1.524 . S
C1542 C1543 1.397 . S
C1542 C1547 1.363 . S
C1543 H1514 0.950 . S
C1543 C1542 1.397 . S
C1543 C1544 1.334 . S
C1544 H1515 0.950 . S
C1544 C1543 1.334 . S
C1544 C1545 1.287 . S
C1545 C1544 1.287 . S
C1545 C1546 1.524 . S
C1545 H1548 0.999 . S
C1546 H1516 0.950 . S
C1546 C1545 1.524 . S
C1546 C1547 1.415 . S
C1547 H1517 0.950 . S
C1547 C1542 1.363 . S
C1547 C1546 1.415 . S
H1548 C1545 0.999 . S
H1549 C1530 0.913 . S
H1550 C1568 0.951 . S
H1551 C1570 0.951 . S
H1552 C1572 0.950 . S
H1553 C1573 0.950 . S
H1554 C1575 0.950 . S
H1555 C1578 0.950 . S
H1556 C1579 0.950 . S
H1557 C1581 0.950 . S
H1558 C1582 0.950 . S
H1559 C1583 0.951 . S
H1560 C1585 0.951 . S
H1561 C1587 0.950 . S
H1562 C1588 0.950 . S
H1563 C1590 0.950 . S
H1564 C1593 0.950 . S
H1565 C1594 0.950 . S
H1566 C1596 0.950 . S
H1567 C1597 0.950 . S
C1568 H1550 0.951 . S
C1568 C1569 1.363 1_556 S
C1568 C1570 1.388 . S
C1569 C1568 1.363 1_554 S
C1569 C1573 1.387 . S
C1570 H1551 0.951 . S
C1570 C1568 1.388 . S
C1570 C1571 1.366 . S
C1571 C1570 1.366 . S
C1571 C1572 1.414 1_556 S
C1571 C1574 1.499 . S
C1572 H1552 0.950 . S
C1572 C1571 1.414 1_554 S
C1572 C1573 1.374 . S
C1573 H1553 0.950 . S
C1573 C1569 1.387 . S
C1573 C1572 1.374 . S
C1574 C1571 1.499 . S
C1574 C1575 1.361 1_556 S
C1574 C1576 1.401 . S
C1575 H1554 0.950 . S
C1575 C1574 1.361 1_554 S
C1575 C1591 1.377 . S
C1576 C1574 1.401 . S
C1576 C1577 1.524 . S
C1576 C1590 1.377 . S
C1577 C1576 1.524 . S
C1577 C1578 1.397 . S
C1577 C1582 1.363 . S
C1578 H1555 0.950 . S
C1578 C1577 1.397 . S
C1578 C1579 1.334 . S
C1579 H1556 0.950 . S
C1579 C1578 1.334 . S
C1579 C1580 1.287 . S
C1580 C1579 1.287 . S
C1580 C1581 1.524 . S
C1580 H1599 0.913 . S
C1581 H1557 0.950 . S
C1581 C1580 1.524 . S
C1581 C1582 1.415 . S
C1582 H1558 0.950 . S
C1582 C1577 1.363 . S
C1582 C1581 1.415 . S
C1583 H1559 0.951 . S
C1583 C1584 1.377 . S
C1583 C1585 1.388 . S
C1584 C1583 1.377 . S
C1584 C1588 1.374 1_554 S
C1585 H1560 0.951 . S
C1585 C1583 1.388 . S
C1585 C1586 1.366 . S
C1586 C1585 1.366 . S
C1586 C1587 1.414 1_554 S
C1586 C1589 1.499 . S
C1587 H1561 0.950 . S
C1587 C1586 1.414 1_556 S
C1587 C1588 1.374 . S
C1588 H1562 0.950 . S
C1588 C1584 1.374 1_556 S
C1588 C1587 1.374 . S
C1589 C1586 1.499 . S
C1589 C1590 1.373 1_554 S
C1589 C1591 1.389 . S
C1590 H1563 0.950 . S
C1590 C1576 1.377 . S
C1590 C1589 1.373 1_556 S
C1591 C1575 1.377 . S
C1591 C1589 1.389 . S
C1591 C1592 1.524 . S
C1592 C1591 1.524 . S
C1592 C1593 1.397 . S
C1592 C1597 1.363 . S
C1593 H1564 0.950 . S
C1593 C1592 1.397 . S
C1593 C1594 1.334 . S
C1594 H1565 0.950 . S
C1594 C1593 1.334 . S
C1594 C1595 1.287 . S
C1595 C1594 1.287 . S
C1595 C1596 1.524 . S
C1595 H1598 0.999 . S
C1596 H1566 0.950 . S
C1596 C1595 1.524 . S
C1596 C1597 1.415 . S
C1597 H1567 0.950 . S
C1597 C1592 1.363 . S
C1597 C1596 1.415 . S
H1598 C1595 0.999 . S
H1599 C1580 0.913 . S
C419 C21 1.593 . S
C434 C221 1.586 . S
C469 C40 1.701 . S
C484 C89 1.661 . S
C534 C128 1.532 . S
C519 C54 1.556 . S
C569 C73 1.743 . S
C584 C182 1.707 . S
C634 C284 1.534 . S
C619 C74 1.557 . S
C684 C338 1.658 . S
C669 C10 1.700 . S
C734 C377 1.586 . S
C719 C37 1.592 . S
C784 C245 1.711 . S
C769 C65 1.744 . S
C819 C52 1.557 . S
C834 C143 1.536 . S
C869 C87 1.741 . S
C884 C167 1.703 . S
C919 C15 1.595 . S
C934 C206 1.592 . S
C984 C104 1.652 . S
C969 C32 1.695 . S
C1019 C29 1.596 . S
C1034 C362 1.592 . S
C1084 C260 1.703 . S
C1069 C59 1.740 . S
C1134 C299 1.535 . S
C1119 C84 1.557 . S
C1169 C8 1.696 . S
C1184 C323 1.652 . S
C1234 C109 1.811 . S
C1219 C7 1.844 . S
C1284 C148 1.657 . S
C1269 C30 1.679 . S
C1319 C62 1.865 . S
C1334 C187 1.813 . S
C1369 C81 1.666 . S
C1384 C226 1.674 . S
C1434 C265 1.828 . S
C1419 C76 1.865 . S
C1469 C18 1.679 1_554 S
C1484 C304 1.657 1_554 S
C1519 C43 1.843 . S
C1534 C343 1.796 . S
C1569 C51 1.666 1_554 S
C1584 C382 1.674 . S
