# Generated by pormake.
# Topology eea, (3,6)-cn, num edge types: 1
# Building blocks:
#     Node 0, Type 0, BuildingBlock: VETTIZ_charged_linker_0, # of connection points: 3
#     Node 1, Type 0, BuildingBlock: VETTIZ_charged_linker_0, # of connection points: 3
#     Node 2, Type 0, BuildingBlock: VETTIZ_charged_linker_0, # of connection points: 3
#     Node 3, Type 0, BuildingBlock: VETTIZ_charged_linker_0, # of connection points: 3
#     Node 4, Type 0, BuildingBlock: VETTIZ_charged_linker_0, # of connection points: 3
#     Node 5, Type 0, BuildingBlock: VETTIZ_charged_linker_0, # of connection points: 3
#     Node 6, Type 0, BuildingBlock: VETTIZ_charged_linker_0, # of connection points: 3
#     Node 7, Type 0, BuildingBlock: VETTIZ_charged_linker_0, # of connection points: 3
#     Node 8, Type 0, BuildingBlock: VETTIZ_charged_linker_0, # of connection points: 3
#     Node 9, Type 0, BuildingBlock: VETTIZ_charged_linker_0, # of connection points: 3
#     Node 10, Type 0, BuildingBlock: VETTIZ_charged_linker_0, # of connection points: 3
#     Node 11, Type 0, BuildingBlock: VETTIZ_charged_linker_0, # of connection points: 3
#     Node 12, Type 0, BuildingBlock: VETTIZ_charged_linker_0, # of connection points: 3
#     Node 13, Type 0, BuildingBlock: VETTIZ_charged_linker_0, # of connection points: 3
#     Node 14, Type 0, BuildingBlock: VETTIZ_charged_linker_0, # of connection points: 3
#     Node 15, Type 0, BuildingBlock: VETTIZ_charged_linker_0, # of connection points: 3
#     Node 16, Type 0, BuildingBlock: VETTIZ_charged_linker_0, # of connection points: 3
#     Node 17, Type 0, BuildingBlock: VETTIZ_charged_linker_0, # of connection points: 3
#     Node 18, Type 1, BuildingBlock: KUMBOL_clean_sbu_0, # of connection points: 6
#     Node 19, Type 1, BuildingBlock: KUMBOL_clean_sbu_0, # of connection points: 6
#     Node 20, Type 1, BuildingBlock: KUMBOL_clean_sbu_0, # of connection points: 6
#     Node 21, Type 1, BuildingBlock: KUMBOL_clean_sbu_0, # of connection points: 6
#     Node 22, Type 1, BuildingBlock: KUMBOL_clean_sbu_0, # of connection points: 6
#     Node 23, Type 1, BuildingBlock: KUMBOL_clean_sbu_0, # of connection points: 6
#     Node 24, Type 1, BuildingBlock: KUMBOL_clean_sbu_0, # of connection points: 6
#     Node 25, Type 1, BuildingBlock: KUMBOL_clean_sbu_0, # of connection points: 6
#     Node 26, Type 1, BuildingBlock: KUMBOL_clean_sbu_0, # of connection points: 6
#     Edge 27, Type (0, 1), BuildingBlock: MIFKUJ_clean_linker_0, # of connection points: 2
#     Edge 28, Type (0, 1), BuildingBlock: MIFKUJ_clean_linker_0, # of connection points: 2
#     Edge 29, Type (0, 1), BuildingBlock: MIFKUJ_clean_linker_0, # of connection points: 2
#     Edge 30, Type (0, 1), BuildingBlock: MIFKUJ_clean_linker_0, # of connection points: 2
#     Edge 31, Type (0, 1), BuildingBlock: MIFKUJ_clean_linker_0, # of connection points: 2
#     Edge 32, Type (0, 1), BuildingBlock: MIFKUJ_clean_linker_0, # of connection points: 2
#     Edge 33, Type (0, 1), BuildingBlock: MIFKUJ_clean_linker_0, # of connection points: 2
#     Edge 34, Type (0, 1), BuildingBlock: MIFKUJ_clean_linker_0, # of connection points: 2
#     Edge 35, Type (0, 1), BuildingBlock: MIFKUJ_clean_linker_0, # of connection points: 2
#     Edge 36, Type (0, 1), BuildingBlock: MIFKUJ_clean_linker_0, # of connection points: 2
#     Edge 37, Type (0, 1), BuildingBlock: MIFKUJ_clean_linker_0, # of connection points: 2
#     Edge 38, Type (0, 1), BuildingBlock: MIFKUJ_clean_linker_0, # of connection points: 2
#     Edge 39, Type (0, 1), BuildingBlock: MIFKUJ_clean_linker_0, # of connection points: 2
#     Edge 40, Type (0, 1), BuildingBlock: MIFKUJ_clean_linker_0, # of connection points: 2
#     Edge 41, Type (0, 1), BuildingBlock: MIFKUJ_clean_linker_0, # of connection points: 2
#     Edge 42, Type (0, 1), BuildingBlock: MIFKUJ_clean_linker_0, # of connection points: 2
#     Edge 43, Type (0, 1), BuildingBlock: MIFKUJ_clean_linker_0, # of connection points: 2
#     Edge 44, Type (0, 1), BuildingBlock: MIFKUJ_clean_linker_0, # of connection points: 2
#     Edge 45, Type (0, 1), BuildingBlock: MIFKUJ_clean_linker_0, # of connection points: 2
#     Edge 46, Type (0, 1), BuildingBlock: MIFKUJ_clean_linker_0, # of connection points: 2
#     Edge 47, Type (0, 1), BuildingBlock: MIFKUJ_clean_linker_0, # of connection points: 2
#     Edge 48, Type (0, 1), BuildingBlock: MIFKUJ_clean_linker_0, # of connection points: 2
#     Edge 49, Type (0, 1), BuildingBlock: MIFKUJ_clean_linker_0, # of connection points: 2
#     Edge 50, Type (0, 1), BuildingBlock: MIFKUJ_clean_linker_0, # of connection points: 2
#     Edge 51, Type (0, 1), BuildingBlock: MIFKUJ_clean_linker_0, # of connection points: 2
#     Edge 52, Type (0, 1), BuildingBlock: MIFKUJ_clean_linker_0, # of connection points: 2
#     Edge 53, Type (0, 1), BuildingBlock: MIFKUJ_clean_linker_0, # of connection points: 2
#     Edge 54, Type (0, 1), BuildingBlock: MIFKUJ_clean_linker_0, # of connection points: 2
#     Edge 55, Type (0, 1), BuildingBlock: MIFKUJ_clean_linker_0, # of connection points: 2
#     Edge 56, Type (0, 1), BuildingBlock: MIFKUJ_clean_linker_0, # of connection points: 2
#     Edge 57, Type (0, 1), BuildingBlock: MIFKUJ_clean_linker_0, # of connection points: 2
#     Edge 58, Type (0, 1), BuildingBlock: MIFKUJ_clean_linker_0, # of connection points: 2
#     Edge 59, Type (0, 1), BuildingBlock: MIFKUJ_clean_linker_0, # of connection points: 2
#     Edge 60, Type (0, 1), BuildingBlock: MIFKUJ_clean_linker_0, # of connection points: 2
#     Edge 61, Type (0, 1), BuildingBlock: MIFKUJ_clean_linker_0, # of connection points: 2
#     Edge 62, Type (0, 1), BuildingBlock: MIFKUJ_clean_linker_0, # of connection points: 2
#     Edge 63, Type (0, 1), BuildingBlock: MIFKUJ_clean_linker_0, # of connection points: 2
#     Edge 64, Type (0, 1), BuildingBlock: MIFKUJ_clean_linker_0, # of connection points: 2
#     Edge 65, Type (0, 1), BuildingBlock: MIFKUJ_clean_linker_0, # of connection points: 2
#     Edge 66, Type (0, 1), BuildingBlock: MIFKUJ_clean_linker_0, # of connection points: 2
#     Edge 67, Type (0, 1), BuildingBlock: MIFKUJ_clean_linker_0, # of connection points: 2
#     Edge 68, Type (0, 1), BuildingBlock: MIFKUJ_clean_linker_0, # of connection points: 2
#     Edge 69, Type (0, 1), BuildingBlock: MIFKUJ_clean_linker_0, # of connection points: 2
#     Edge 70, Type (0, 1), BuildingBlock: MIFKUJ_clean_linker_0, # of connection points: 2
#     Edge 71, Type (0, 1), BuildingBlock: MIFKUJ_clean_linker_0, # of connection points: 2
#     Edge 72, Type (0, 1), BuildingBlock: MIFKUJ_clean_linker_0, # of connection points: 2
#     Edge 73, Type (0, 1), BuildingBlock: MIFKUJ_clean_linker_0, # of connection points: 2
#     Edge 74, Type (0, 1), BuildingBlock: MIFKUJ_clean_linker_0, # of connection points: 2
#     Edge 75, Type (0, 1), BuildingBlock: MIFKUJ_clean_linker_0, # of connection points: 2
#     Edge 76, Type (0, 1), BuildingBlock: MIFKUJ_clean_linker_0, # of connection points: 2
#     Edge 77, Type (0, 1), BuildingBlock: MIFKUJ_clean_linker_0, # of connection points: 2
#     Edge 78, Type (0, 1), BuildingBlock: MIFKUJ_clean_linker_0, # of connection points: 2
#     Edge 79, Type (0, 1), BuildingBlock: MIFKUJ_clean_linker_0, # of connection points: 2
#     Edge 80, Type (0, 1), BuildingBlock: MIFKUJ_clean_linker_0, # of connection points: 2
# Relax obj value: 0.010
# Max RMSD: 0.099
# Mean RMSD: 0.054
data_MOF--net-eea--node1-KUMBOL_clean_sbu_0--node2-VETTIZ_charged_linker_0--edge1-MIFKUJ_clean_linker_0
_symmetry_space_group_name_H-M    P1
_symmetry_Int_Tables_number       1
_symmetry_cell_setting            triclinic
loop_
_symmetry_equiv_pos_as_xyz
'x, y, z'
_cell_length_a     77.742358
_cell_length_b     79.031258
_cell_length_c     107.30054
_cell_angle_alpha  90.269492
_cell_angle_beta   90.252476
_cell_angle_gamma 120.002
loop_
_atom_site_label
_atom_site_type_symbol
_atom_site_fract_x
_atom_site_fract_y
_atom_site_fract_z
_atom_type_partial_charge
C0 C 0.23579 0.16664 0.40331 0.0
C1 C 0.23927 0.18422 0.40889 0.0
C2 C 0.24703 0.18864 0.42114 0.0
C3 C 0.24706 0.15799 0.4221 0.0
C4 C 0.23975 0.15384 0.41004 0.0
C5 C 0.23639 0.13439 0.4055 0.0
H6 H 0.23717 0.05075 0.41692 0.0
C7 C 0.24889 0.14128 0.42659 0.0
C8 C 0.24267 0.12744 0.41687 0.0
H9 H 0.22081 0.06817 0.38275 0.0
H10 H 0.228 0.0987 0.39228 0.0
H11 H 0.27625 0.09274 0.42241 0.0
H12 H 0.21595 0.06569 0.43521 0.0
H13 H 0.23116 0.07839 0.44801 0.0
H14 H 0.23321 0.05871 0.44094 0.0
H15 H 0.2662 0.07301 0.43333 0.0
H16 H 0.27722 0.09813 0.43838 0.0
C17 C 0.25029 0.138 0.39428 0.0
C18 C 0.21396 0.12122 0.40252 0.0
C19 C 0.2732 0.14143 0.47076 0.0
C20 C 0.27588 0.1277 0.47755 0.0
C21 C 0.27121 0.10982 0.47175 0.0
C22 C 0.26422 0.10576 0.45944 0.0
C23 C 0.26175 0.11966 0.45277 0.0
C24 C 0.26612 0.1371 0.45845 0.0
C25 C 0.26224 0.14996 0.44994 0.0
C26 C 0.255 0.13739 0.43821 0.0
C27 C 0.25478 0.11968 0.43995 0.0
C28 C 0.28214 0.16909 0.44783 0.0
C29 C 0.24579 0.15294 0.45585 0.0
C30 C 0.23534 0.06122 0.41144 0.0
C31 C 0.22835 0.05697 0.39906 0.0
C32 C 0.2259 0.07094 0.39235 0.0
C33 C 0.2302 0.08873 0.39789 0.0
C34 C 0.23704 0.09269 0.41029 0.0
C35 C 0.2396 0.07908 0.41683 0.0
C36 C 0.24707 0.08582 0.42989 0.0
C37 C 0.24857 0.10573 0.43011 0.0
C38 C 0.24263 0.10963 0.41863 0.0
C39 C 0.2677 0.08743 0.43121 0.0
C40 C 0.2312 0.07143 0.43907 0.0
H41 H 0.25678 0.17984 0.43705 0.0
H42 H 0.22958 0.16262 0.39399 0.0
H43 H 0.20478 0.12384 0.40934 0.0
H44 H 0.20882 0.10547 0.40324 0.0
H45 H 0.21028 0.12424 0.39308 0.0
H46 H 0.2645 0.15206 0.39539 0.0
H47 H 0.24326 0.1387 0.38541 0.0
H48 H 0.25481 0.12684 0.39339 0.0
H49 H 0.27677 0.15537 0.47486 0.0
H50 H 0.27274 0.0988 0.4768 0.0
H51 H 0.26095 0.0919 0.45561 0.0
H52 H 0.29464 0.16607 0.44713 0.0
H53 H 0.28554 0.17955 0.45566 0.0
H54 H 0.28241 0.17633 0.439 0.0
H55 H 0.23461 0.13945 0.46063 0.0
H56 H 0.23717 0.15596 0.4489 0.0
H57 H 0.25213 0.16494 0.46287 0.0
H58 H 0.25008 0.20219 0.42562 0.0
C59 C 0.25096 0.17566 0.42776 0.0
C60 C 0.95086 0.16095 0.40242 0.0
C61 C 0.96574 0.17856 0.40776 0.0
C62 C 0.96364 0.18298 0.42021 0.0
C63 C 0.93208 0.15274 0.42168 0.0
C64 C 0.93431 0.14827 0.40953 0.0
C65 C 0.91742 0.12874 0.40536 0.0
H66 H 0.82858 0.04868 0.41759 0.0
C67 C 0.91312 0.13656 0.42643 0.0
C68 C 0.90452 0.12239 0.41692 0.0
H69 H 0.86429 0.06078 0.38443 0.0
H70 H 0.88907 0.09147 0.3933 0.0
H71 H 0.86429 0.06127 0.43634 0.0
H72 H 0.83645 0.09253 0.42205 0.0
H73 H 0.84049 0.09762 0.43811 0.0
H74 H 0.82458 0.0728 0.43288 0.0
H75 H 0.84082 0.05709 0.44201 0.0
H76 H 0.86403 0.07581 0.44865 0.0
C77 C 0.9259 0.1151 0.40246 0.0
C78 C 0.90688 0.13214 0.39419 0.0
C79 C 0.8899 0.14048 0.47017 0.0
C80 C 0.87304 0.12764 0.47709 0.0
C81 C 0.85872 0.10988 0.47153 0.0
C82 C 0.8611 0.10495 0.45936 0.0
C83 C 0.87804 0.11785 0.45258 0.0
C84 C 0.89212 0.13526 0.45801 0.0
C85 C 0.90931 0.14697 0.44943 0.0
C86 C 0.90317 0.13374 0.43799 0.0
C87 C 0.88479 0.11674 0.43989 0.0
C88 C 0.92842 0.14926 0.45562 0.0
C89 C 0.91 0.16652 0.44671 0.0
C90 C 0.84178 0.05778 0.41224 0.0
C91 C 0.84423 0.05213 0.40019 0.0
C92 C 0.86167 0.06477 0.3936 0.0
C93 C 0.87621 0.08259 0.39882 0.0
C94 C 0.8735 0.08793 0.41085 0.0
C95 C 0.85656 0.07553 0.41737 0.0
C96 C 0.85647 0.08326 0.4302 0.0
C97 C 0.87612 0.10239 0.43029 0.0
C98 C 0.88597 0.10514 0.41889 0.0
C99 C 0.85625 0.06864 0.43988 0.0
C100 C 0.83853 0.08666 0.43098 0.0
H101 H 0.94613 0.17451 0.43656 0.0
H102 H 0.95218 0.15698 0.39294 0.0
H103 H 0.90538 0.14526 0.39585 0.0
H104 H 0.8916 0.12 0.39262 0.0
H105 H 0.91547 0.13457 0.38548 0.0
H106 H 0.93909 0.11877 0.40841 0.0
H107 H 0.93061 0.11639 0.39258 0.0
H108 H 0.91529 0.09961 0.4045 0.0
H109 H 0.90127 0.15415 0.4742 0.0
H110 H 0.84547 0.09986 0.47657 0.0
H111 H 0.84961 0.09125 0.45569 0.0
H112 H 0.92509 0.13616 0.46123 0.0
H113 H 0.93535 0.16215 0.46197 0.0
H114 H 0.93952 0.15044 0.44877 0.0
H115 H 0.89474 0.16413 0.44537 0.0
H116 H 0.9179 0.17346 0.43804 0.0
H117 H 0.91703 0.17703 0.45457 0.0
H118 H 0.97482 0.19651 0.42451 0.0
C119 C 0.9469 0.17023 0.42717 0.0
C120 C 0.94959 0.7975 0.40289 0.0
C121 C 0.96345 0.79231 0.40732 0.0
C122 C 0.95959 0.78248 0.41885 0.0
C123 C 0.92912 0.78356 0.42126 0.0
C124 C 0.93256 0.7928 0.40989 0.0
C125 C 0.91594 0.79639 0.40618 0.0
H126 H 0.82524 0.78516 0.41826 0.0
C127 C 0.91003 0.78067 0.42614 0.0
C128 C 0.90212 0.78799 0.41726 0.0
H129 H 0.86247 0.8124 0.38623 0.0
H130 H 0.88765 0.80657 0.39488 0.0
H131 H 0.8342 0.74969 0.42132 0.0
H132 H 0.86019 0.80698 0.43792 0.0
H133 H 0.86055 0.79155 0.44948 0.0
H134 H 0.83704 0.78714 0.44321 0.0
H135 H 0.82138 0.75674 0.4322 0.0
H136 H 0.83713 0.74747 0.43741 0.0
C137 C 0.90635 0.78473 0.39402 0.0
C138 C 0.92453 0.81872 0.40508 0.0
C139 C 0.88605 0.75091 0.46913 0.0
C140 C 0.86905 0.74662 0.47613 0.0
C141 C 0.85484 0.75068 0.47086 0.0
C142 C 0.8574 0.75873 0.45894 0.0
C143 C 0.87442 0.76292 0.45208 0.0
C144 C 0.88841 0.75902 0.45719 0.0
C145 C 0.90553 0.76439 0.44847 0.0
C146 C 0.89968 0.77254 0.43744 0.0
C147 C 0.88138 0.77154 0.43959 0.0
C148 C 0.90584 0.7455 0.44496 0.0
C149 C 0.92474 0.78025 0.45495 0.0
C150 C 0.83885 0.79008 0.41311 0.0
C151 C 0.84156 0.79908 0.4014 0.0
C152 C 0.8596 0.80501 0.39509 0.0
C153 C 0.87434 0.80172 0.40018 0.0
C154 C 0.87122 0.79245 0.41177 0.0
C155 C 0.85381 0.78705 0.4181 0.0
C156 C 0.85336 0.77807 0.43053 0.0
C157 C 0.87311 0.77847 0.43046 0.0
C158 C 0.88349 0.78681 0.41941 0.0
C159 C 0.83555 0.7569 0.43049 0.0
C160 C 0.8526 0.79144 0.44089 0.0
H161 H 0.94075 0.77076 0.43448 0.0
H162 H 0.95188 0.80515 0.39418 0.0
H163 H 0.93611 0.82673 0.41235 0.0
H164 H 0.9133 0.82315 0.40662 0.0
H165 H 0.9315 0.82409 0.39584 0.0
H166 H 0.90588 0.77043 0.3941 0.0
H167 H 0.91495 0.79288 0.38573 0.0
H168 H 0.89074 0.78098 0.39278 0.0
H169 H 0.89717 0.74779 0.47278 0.0
H170 H 0.84176 0.74787 0.47605 0.0
H171 H 0.84601 0.76142 0.45552 0.0
H172 H 0.89062 0.73252 0.44506 0.0
H173 H 0.91511 0.74272 0.45161 0.0
H174 H 0.91115 0.74582 0.43538 0.0
H175 H 0.92208 0.79131 0.45964 0.0
H176 H 0.93697 0.78855 0.44839 0.0
H177 H 0.92991 0.77371 0.46215 0.0
H178 H 0.96946 0.77769 0.42245 0.0
C179 C 0.94269 0.77822 0.42582 0.0
C180 C 0.15564 0.20767 0.60593 0.0
C181 C 0.17314 0.20998 0.60041 0.0
C182 C 0.17668 0.21555 0.58777 0.0
C183 C 0.14638 0.21722 0.58664 0.0
C184 C 0.14251 0.21122 0.59889 0.0
C185 C 0.12307 0.20898 0.60324 0.0
H186 H 0.04364 0.22052 0.59219 0.0
C187 C 0.13007 0.22017 0.58204 0.0
C188 C 0.11628 0.21524 0.59171 0.0
H189 H 0.05535 0.19514 0.62456 0.0
H190 H 0.08563 0.20017 0.61533 0.0
H191 H 0.08871 0.25492 0.58735 0.0
H192 H 0.05435 0.19636 0.57268 0.0
H193 H 0.06822 0.21148 0.56034 0.0
H194 H 0.05001 0.21567 0.56795 0.0
H195 H 0.06831 0.24778 0.5767 0.0
H196 H 0.09308 0.2557 0.57124 0.0
C197 C 0.12743 0.2232 0.61433 0.0
C198 C 0.10888 0.18718 0.60637 0.0
C199 C 0.13348 0.24664 0.53839 0.0
C200 C 0.1212 0.25181 0.53166 0.0
C201 C 0.10384 0.24946 0.53742 0.0
C202 C 0.09886 0.24219 0.54958 0.0
C203 C 0.11132 0.23715 0.55616 0.0
C204 C 0.12831 0.23944 0.55055 0.0
C205 C 0.13992 0.23355 0.55897 0.0
C206 C 0.12706 0.22724 0.57055 0.0
C207 C 0.1103 0.22938 0.56886 0.0
C208 C 0.16049 0.25186 0.56147 0.0
C209 C 0.14079 0.21625 0.55275 0.0
C210 C 0.0525 0.21579 0.59731 0.0
C211 C 0.04689 0.20759 0.60929 0.0
C212 C 0.05931 0.20196 0.61551 0.0
C213 C 0.07689 0.20469 0.61006 0.0
C214 C 0.08221 0.21292 0.59814 0.0
C215 C 0.06995 0.21807 0.5919 0.0
C216 C 0.07746 0.22567 0.57904 0.0
C217 C 0.09628 0.22431 0.57863 0.0
C218 C 0.09913 0.21707 0.58993 0.0
C219 C 0.08205 0.24711 0.57842 0.0
C220 C 0.06174 0.21175 0.56943 0.0
H221 H 0.16719 0.22347 0.57138 0.0
H222 H 0.1523 0.20347 0.61559 0.0
H223 H 0.11253 0.17742 0.60088 0.0
H224 H 0.09324 0.18227 0.6039 0.0
H225 H 0.10985 0.18428 0.61639 0.0
H226 H 0.14048 0.23776 0.6123 0.0
H227 H 0.13082 0.21762 0.62293 0.0
H228 H 0.11509 0.22591 0.61628 0.0
H229 H 0.14679 0.248 0.53426 0.0
H230 H 0.09424 0.25358 0.53259 0.0
H231 H 0.08553 0.24088 0.55342 0.0
H232 H 0.15906 0.26512 0.56258 0.0
H233 H 0.17077 0.25449 0.55361 0.0
H234 H 0.16755 0.25101 0.5702 0.0
H235 H 0.12699 0.20683 0.5473 0.0
H236 H 0.14169 0.20632 0.5596 0.0
H237 H 0.15351 0.22153 0.54626 0.0
H238 H 0.18961 0.21692 0.58307 0.0
C239 C 0.16351 0.21922 0.58092 0.0
C240 C 0.77737 0.84011 0.60393 0.0
C241 C 0.77452 0.82274 0.59837 0.0
C242 C 0.76632 0.81783 0.58623 0.0
C243 C 0.76448 0.84755 0.58538 0.0
C244 C 0.77238 0.85225 0.59729 0.0
C245 C 0.77514 0.87149 0.60178 0.0
H246 H 0.76985 0.9528 0.59043 0.0
C247 C 0.76142 0.86357 0.581 0.0
C248 C 0.76773 0.87766 0.59056 0.0
H249 H 0.79003 0.93775 0.62402 0.0
H250 H 0.78317 0.90719 0.61471 0.0
H251 H 0.79047 0.93811 0.57133 0.0
H252 H 0.73136 0.90989 0.58627 0.0
H253 H 0.72916 0.90371 0.57038 0.0
H254 H 0.7397 0.92899 0.57495 0.0
H255 H 0.77219 0.94426 0.56643 0.0
H256 H 0.77422 0.92477 0.55906 0.0
C257 C 0.79762 0.88544 0.60425 0.0
C258 C 0.76175 0.86765 0.6133 0.0
C259 C 0.73207 0.86 0.53794 0.0
C260 C 0.72786 0.87286 0.5313 0.0
C261 C 0.73241 0.89084 0.53688 0.0
C262 C 0.74073 0.89583 0.54886 0.0
C263 C 0.74466 0.88277 0.5554 0.0
C264 C 0.74046 0.86525 0.54991 0.0
C265 C 0.74602 0.85339 0.55819 0.0
C266 C 0.75395 0.86656 0.56962 0.0
C267 C 0.75307 0.88372 0.56792 0.0
C268 C 0.7624 0.85101 0.55161 0.0
C269 C 0.72691 0.83388 0.56109 0.0
C270 C 0.77261 0.94284 0.59583 0.0
C271 C 0.78059 0.94777 0.60797 0.0
C272 C 0.78419 0.93446 0.61459 0.0
C273 C 0.78008 0.91665 0.60919 0.0
C274 C 0.7723 0.91202 0.59701 0.0
C275 C 0.76857 0.92497 0.59057 0.0
C276 C 0.76013 0.91751 0.57777 0.0
C277 C 0.75954 0.89802 0.57756 0.0
C278 C 0.76672 0.89493 0.58884 0.0
C279 C 0.77484 0.93188 0.56807 0.0
C280 C 0.73904 0.91496 0.57718 0.0
H281 H 0.75521 0.82562 0.57052 0.0
H282 H 0.78334 0.84422 0.6133 0.0
H283 H 0.74769 0.85342 0.61237 0.0
H284 H 0.75695 0.87857 0.61444 0.0
H285 H 0.76932 0.86717 0.62198 0.0
H286 H 0.80677 0.88281 0.59742 0.0
H287 H 0.80196 0.88325 0.61372 0.0
H288 H 0.80218 0.90101 0.60314 0.0
H289 H 0.72867 0.84602 0.53399 0.0
H290 H 0.72974 0.90122 0.53191 0.0
H291 H 0.74381 0.90971 0.55255 0.0
H292 H 0.77214 0.86411 0.54595 0.0
H293 H 0.75583 0.83814 0.54523 0.0
H294 H 0.77262 0.84974 0.55822 0.0
H295 H 0.71419 0.83635 0.56269 0.0
H296 H 0.72815 0.82694 0.56969 0.0
H297 H 0.72285 0.82336 0.55322 0.0
H298 H 0.76416 0.80466 0.58165 0.0
C299 C 0.76127 0.83011 0.57973 0.0
C300 C 0.05549 0.84183 0.60572 0.0
C301 C 0.03965 0.82511 0.60018 0.0
C302 C 0.04059 0.82139 0.58742 0.0
C303 C 0.07283 0.85076 0.58594 0.0
C304 C 0.07176 0.85452 0.59843 0.0
C305 C 0.08935 0.87347 0.60271 0.0
H306 H 0.1752 0.95598 0.58885 0.0
C307 C 0.09154 0.86698 0.58099 0.0
C308 C 0.10117 0.88045 0.59074 0.0
H309 H 0.1461 0.9387 0.62452 0.0
H310 H 0.12033 0.90847 0.6155 0.0
H311 H 0.1701 0.91448 0.58252 0.0
H312 H 0.13564 0.94103 0.57187 0.0
H313 H 0.13806 0.92927 0.5586 0.0
H314 H 0.15999 0.94883 0.5659 0.0
H315 H 0.17825 0.93289 0.57074 0.0
H316 H 0.16248 0.90729 0.56705 0.0
C317 C 0.10059 0.86885 0.61287 0.0
C318 C 0.0817 0.88724 0.60706 0.0
C319 C 0.11157 0.86462 0.53617 0.0
C320 C 0.12799 0.87763 0.52901 0.0
C321 C 0.14225 0.89561 0.53436 0.0
C322 C 0.1404 0.90043 0.54666 0.0
C323 C 0.12409 0.88718 0.55377 0.0
C324 C 0.10989 0.86971 0.54847 0.0
C325 C 0.09333 0.85768 0.55737 0.0
C326 C 0.10033 0.8705 0.569 0.0
C327 C 0.11836 0.88774 0.56682 0.0
C328 C 0.09278 0.83803 0.55939 0.0
C329 C 0.07379 0.85558 0.55201 0.0
C330 C 0.16315 0.94573 0.59466 0.0
C331 C 0.16255 0.94976 0.60738 0.0
C332 C 0.14688 0.93588 0.61471 0.0
C333 C 0.1319 0.91837 0.60944 0.0
C334 C 0.13261 0.91459 0.59669 0.0
C335 C 0.14818 0.92807 0.58956 0.0
C336 C 0.14701 0.92118 0.57633 0.0
C337 C 0.1279 0.90158 0.57661 0.0
C338 C 0.11946 0.89785 0.58853 0.0
C339 C 0.16541 0.91892 0.5739 0.0
C340 C 0.14521 0.93582 0.56763 0.0
H341 H 0.05701 0.83036 0.57065 0.0
H342 H 0.05502 0.84519 0.61547 0.0
H343 H 0.06924 0.88549 0.60101 0.0
H344 H 0.09301 0.90285 0.60644 0.0
H345 H 0.07615 0.88397 0.61678 0.0
H346 H 0.09994 0.85471 0.61089 0.0
H347 H 0.09399 0.86775 0.6222 0.0
H348 H 0.11661 0.87972 0.6133 0.0
H349 H 0.10023 0.85082 0.53228 0.0
H350 H 0.15513 0.9058 0.52909 0.0
H351 H 0.15185 0.91426 0.5502 0.0
H352 H 0.10808 0.84049 0.56067 0.0
H353 H 0.08599 0.82814 0.55122 0.0
H354 H 0.08462 0.83033 0.56783 0.0
H355 H 0.07676 0.86819 0.546 0.0
H356 H 0.06385 0.85557 0.55935 0.0
H357 H 0.06564 0.84211 0.54624 0.0
H358 H 0.02857 0.80853 0.58298 0.0
C359 C 0.05712 0.83405 0.58029 0.0
C360 C 0.88886 0.49387 0.73874 0.0
C361 C 0.89182 0.51128 0.7443 0.0
C362 C 0.8997 0.51603 0.7565 0.0
C363 C 0.90169 0.4864 0.7573 0.0
C364 C 0.89387 0.48173 0.74536 0.0
C365 C 0.89155 0.4627 0.74078 0.0
H366 H 0.90199 0.38396 0.75094 0.0
C367 C 0.90539 0.47071 0.76152 0.0
C368 C 0.89948 0.45681 0.75187 0.0
H369 H 0.8769 0.39647 0.7186 0.0
H370 H 0.8834 0.42689 0.72793 0.0
H371 H 0.93862 0.42705 0.75479 0.0
H372 H 0.88039 0.39725 0.77102 0.0
H373 H 0.8974 0.41035 0.78303 0.0
H374 H 0.89934 0.39143 0.77482 0.0
H375 H 0.932 0.40878 0.76654 0.0
H376 H 0.9415 0.43416 0.77054 0.0
C377 C 0.9048 0.46693 0.72914 0.0
C378 C 0.86913 0.4483 0.73843 0.0
C379 C 0.93446 0.47434 0.80464 0.0
C380 C 0.94005 0.46224 0.81094 0.0
C381 C 0.93766 0.44532 0.80489 0.0
C382 C 0.92972 0.44043 0.79281 0.0
C383 C 0.92411 0.4526 0.78666 0.0
C384 C 0.92666 0.46931 0.79253 0.0
C385 C 0.92035 0.48075 0.78441 0.0
C386 C 0.91337 0.46801 0.77277 0.0
C387 C 0.91552 0.45151 0.77417 0.0
C388 C 0.93884 0.50097 0.78192 0.0
C389 C 0.90309 0.48163 0.79095 0.0
C390 C 0.89775 0.39317 0.7459 0.0
C391 C 0.88891 0.38775 0.73399 0.0
C392 C 0.88396 0.40038 0.7277 0.0
C393 C 0.88762 0.418 0.73318 0.0
C394 C 0.89628 0.42311 0.74512 0.0
C395 C 0.90121 0.41079 0.75127 0.0
C396 C 0.91006 0.41849 0.76396 0.0
C397 C 0.90948 0.4374 0.76444 0.0
C398 C 0.90146 0.44003 0.75337 0.0
C399 C 0.93163 0.42224 0.7641 0.0
C400 C 0.89626 0.40366 0.77379 0.0
H401 H 0.91066 0.50816 0.77225 0.0
H402 H 0.88255 0.48964 0.72945 0.0
H403 H 0.8598 0.45115 0.74499 0.0
H404 H 0.86489 0.43291 0.74009 0.0
H405 H 0.86467 0.44969 0.72881 0.0
H406 H 0.91905 0.48093 0.73031 0.0
H407 H 0.89729 0.46815 0.72065 0.0
H408 H 0.90919 0.45582 0.7275 0.0
H409 H 0.93639 0.48759 0.80898 0.0
H410 H 0.9417 0.43569 0.8096 0.0
H411 H 0.9282 0.42732 0.78875 0.0
H412 H 0.95249 0.49981 0.78125 0.0
H413 H 0.94123 0.5115 0.78954 0.0
H414 H 0.93798 0.50728 0.77293 0.0
H415 H 0.89307 0.46757 0.79564 0.0
H416 H 0.89341 0.48385 0.78441 0.0
H417 H 0.9088 0.49336 0.79817 0.0
H418 H 0.90231 0.52945 0.76095 0.0
C419 C 0.90466 0.5037 0.76302 0.0
C420 C 0.61747 0.49352 0.73634 0.0
C421 C 0.6318 0.51196 0.74094 0.0
C422 C 0.62898 0.51817 0.7527 0.0
C423 C 0.59792 0.48772 0.7551 0.0
C424 C 0.60061 0.48179 0.74348 0.0
C425 C 0.5834 0.46229 0.73964 0.0
H426 H 0.49327 0.38461 0.75261 0.0
C427 C 0.57872 0.47221 0.76002 0.0
C428 C 0.57006 0.45736 0.75093 0.0
H429 H 0.52788 0.39531 0.71911 0.0
H430 H 0.55376 0.42566 0.72781 0.0
H431 H 0.5295 0.3983 0.77156 0.0
H432 H 0.50148 0.42854 0.75588 0.0
H433 H 0.5063 0.43539 0.77166 0.0
H434 H 0.48989 0.41009 0.76756 0.0
H435 H 0.50568 0.39394 0.77663 0.0
H436 H 0.52846 0.41301 0.78348 0.0
C437 C 0.59119 0.44782 0.73796 0.0
C438 C 0.57374 0.46524 0.72779 0.0
C439 C 0.55665 0.47851 0.80363 0.0
C440 C 0.53948 0.46651 0.81056 0.0
C441 C 0.5246 0.44888 0.80518 0.0
C442 C 0.5267 0.44327 0.79314 0.0
C443 C 0.54388 0.4554 0.78631 0.0
C444 C 0.55848 0.47272 0.79154 0.0
C445 C 0.5755 0.48391 0.78275 0.0
C446 C 0.56885 0.47026 0.77151 0.0
C447 C 0.55031 0.45359 0.77367 0.0
C448 C 0.59455 0.48601 0.78885 0.0
C449 C 0.5766 0.50361 0.77977 0.0
C450 C 0.50633 0.39358 0.74709 0.0
C451 C 0.50847 0.3875 0.73514 0.0
C452 C 0.52592 0.3995 0.72839 0.0
C453 C 0.5409 0.41721 0.73344 0.0
C454 C 0.53851 0.42309 0.74538 0.0
C455 C 0.52146 0.41131 0.75201 0.0
C456 C 0.52158 0.4198 0.76461 0.0
C457 C 0.5414 0.43872 0.76439 0.0
C458 C 0.55124 0.44058 0.75311 0.0
C459 C 0.52114 0.40557 0.77467 0.0
C460 C 0.50386 0.42359 0.76509 0.0
H461 H 0.61092 0.51164 0.76873 0.0
H462 H 0.61911 0.48854 0.72723 0.0
H463 H 0.57487 0.47984 0.72789 0.0
H464 H 0.55765 0.45475 0.72706 0.0
H465 H 0.58115 0.46425 0.71922 0.0
H466 H 0.60254 0.45036 0.7452 0.0
H467 H 0.59824 0.44961 0.72871 0.0
H468 H 0.57952 0.43241 0.73906 0.0
H469 H 0.56824 0.49226 0.80743 0.0
H470 H 0.51134 0.43927 0.81036 0.0
H471 H 0.51484 0.42967 0.78962 0.0
H472 H 0.59142 0.47204 0.79325 0.0
H473 H 0.60034 0.49749 0.79622 0.0
H474 H 0.60649 0.4894 0.7821 0.0
H475 H 0.56165 0.50222 0.78013 0.0
H476 H 0.58185 0.50868 0.77021 0.0
H477 H 0.58632 0.51517 0.78655 0.0
H478 H 0.63987 0.53234 0.75641 0.0
C479 C 0.61219 0.50612 0.75983 0.0
C480 C 0.61422 0.12716 0.73448 0.0
C481 C 0.6298 0.12518 0.73972 0.0
C482 C 0.62823 0.11939 0.7523 0.0
C483 C 0.59613 0.11732 0.75401 0.0
C484 C 0.59769 0.12329 0.74178 0.0
C485 C 0.5801 0.12512 0.73775 0.0
H486 H 0.49237 0.11947 0.75203 0.0
C487 C 0.57716 0.11453 0.75903 0.0
C488 C 0.56775 0.11924 0.74956 0.0
H489 H 0.52344 0.13579 0.71693 0.0
H490 H 0.54926 0.13071 0.72551 0.0
H491 H 0.49899 0.08317 0.75674 0.0
H492 H 0.53106 0.14278 0.76982 0.0
H493 H 0.52871 0.12765 0.78243 0.0
H494 H 0.50668 0.12551 0.77525 0.0
H495 H 0.48934 0.09221 0.76856 0.0
H496 H 0.5055 0.08268 0.77236 0.0
C497 C 0.56938 0.11044 0.72693 0.0
C498 C 0.5877 0.14675 0.73436 0.0
C499 C 0.55648 0.08941 0.80324 0.0
C500 C 0.53983 0.08541 0.8105 0.0
C501 C 0.52524 0.08901 0.80534 0.0
C502 C 0.52706 0.09622 0.7932 0.0
C503 C 0.54368 0.09995 0.78603 0.0
C504 C 0.55811 0.09666 0.79111 0.0
C505 C 0.57491 0.10178 0.7822 0.0
C506 C 0.56796 0.10826 0.77085 0.0
C507 C 0.54964 0.10714 0.77315 0.0
C508 C 0.57586 0.083 0.77951 0.0
C509 C 0.59417 0.11877 0.78799 0.0
C510 C 0.50483 0.12213 0.74623 0.0
C511 C 0.50587 0.12815 0.73379 0.0
C512 C 0.52218 0.13103 0.7265 0.0
C513 C 0.53723 0.12817 0.73153 0.0
C514 C 0.53603 0.12227 0.744 0.0
C515 C 0.51993 0.1192 0.75109 0.0
C516 C 0.52081 0.11238 0.76403 0.0
C517 C 0.54025 0.1122 0.76363 0.0
C518 C 0.54917 0.11808 0.75188 0.0
C519 C 0.5027 0.09159 0.76564 0.0
C520 C 0.52173 0.12772 0.77346 0.0
H521 H 0.61135 0.11104 0.76888 0.0
H522 H 0.61472 0.13143 0.72486 0.0
H523 H 0.59984 0.15674 0.74082 0.0
H524 H 0.57622 0.15098 0.73527 0.0
H525 H 0.59367 0.14992 0.72474 0.0
H526 H 0.56979 0.09671 0.72839 0.0
H527 H 0.57656 0.11663 0.71787 0.0
H528 H 0.55343 0.10576 0.72624 0.0
H529 H 0.56812 0.0871 0.80694 0.0
H530 H 0.51216 0.08589 0.81063 0.0
H531 H 0.51537 0.09851 0.78984 0.0
H532 H 0.56066 0.07022 0.77828 0.0
H533 H 0.58313 0.07974 0.78733 0.0
H534 H 0.5837 0.08375 0.77081 0.0
H535 H 0.59086 0.1282 0.79409 0.0
H536 H 0.60442 0.12882 0.7809 0.0
H537 H 0.60212 0.11317 0.79377 0.0
H538 H 0.64007 0.11816 0.75677 0.0
C539 C 0.61155 0.1154 0.75941 0.0
C540 C 0.82261 0.54177 0.93785 0.0
C541 C 0.84064 0.54525 0.93251 0.0
C542 C 0.84475 0.55216 0.92014 0.0
C543 C 0.81381 0.55265 0.91894 0.0
C544 C 0.80948 0.54548 0.93093 0.0
C545 C 0.78964 0.54234 0.93518 0.0
H546 H 0.71171 0.55653 0.92573 0.0
C547 C 0.79737 0.55549 0.91444 0.0
C548 C 0.78315 0.54948 0.92393 0.0
H549 H 0.7206 0.52514 0.95586 0.0
H550 H 0.75088 0.53083 0.94657 0.0
H551 H 0.75775 0.59032 0.92106 0.0
H552 H 0.72021 0.53299 0.9054 0.0
H553 H 0.73576 0.54737 0.89338 0.0
H554 H 0.7186 0.55373 0.90031 0.0
H555 H 0.73634 0.58405 0.91148 0.0
H556 H 0.76022 0.59159 0.9047 0.0
C557 C 0.79312 0.55532 0.94682 0.0
C558 C 0.77568 0.52019 0.93743 0.0
C559 C 0.80084 0.58376 0.87131 0.0
C560 C 0.78826 0.58869 0.86471 0.0
C561 C 0.77092 0.58609 0.87062 0.0
C562 C 0.76616 0.57871 0.88276 0.0
C563 C 0.7788 0.57374 0.88917 0.0
C564 C 0.79584 0.57634 0.88344 0.0
C565 C 0.80759 0.57039 0.8917 0.0
C566 C 0.79456 0.56333 0.9032 0.0
C567 C 0.77774 0.5654 0.90168 0.0
C568 C 0.82795 0.5888 0.8945 0.0
C569 C 0.80893 0.55359 0.88513 0.0
C570 C 0.71983 0.55059 0.93041 0.0
C571 C 0.71341 0.54074 0.94192 0.0
C572 C 0.72509 0.53351 0.94737 0.0
C573 C 0.74274 0.53656 0.94185 0.0
C574 C 0.74886 0.54655 0.93051 0.0
C575 C 0.73717 0.55289 0.92481 0.0
C576 C 0.7449 0.56135 0.91213 0.0
C577 C 0.76348 0.55959 0.91138 0.0
C578 C 0.76595 0.55128 0.92231 0.0
C579 C 0.75001 0.58295 0.91223 0.0
C580 C 0.7291 0.54838 0.90223 0.0
H581 H 0.83565 0.56118 0.90406 0.0
H582 H 0.81886 0.53654 0.94731 0.0
H583 H 0.78026 0.51117 0.9319 0.0
H584 H 0.76023 0.51512 0.93436 0.0
H585 H 0.7757 0.51647 0.9474 0.0
H586 H 0.80562 0.57039 0.94523 0.0
H587 H 0.79694 0.54938 0.95508 0.0
H588 H 0.78018 0.55687 0.94917 0.0
H589 H 0.81445 0.58582 0.86719 0.0
H590 H 0.76079 0.5895 0.86577 0.0
H591 H 0.75277 0.57712 0.88669 0.0
H592 H 0.82639 0.602 0.8954 0.0
H593 H 0.83867 0.59153 0.8869 0.0
H594 H 0.83455 0.58799 0.90344 0.0
H595 H 0.79486 0.54372 0.88005 0.0
H596 H 0.81097 0.54402 0.89171 0.0
H597 H 0.82115 0.55938 0.87824 0.0
H598 H 0.85818 0.55455 0.91559 0.0
C599 C 0.83153 0.5559 0.91338 0.0
C600 C 0.43492 0.16939 0.94229 0.0
C601 C 0.43342 0.15291 0.93624 0.0
C602 C 0.42707 0.14921 0.92369 0.0
C603 C 0.42406 0.17829 0.92343 0.0
C604 C 0.43027 0.18186 0.93574 0.0
C605 C 0.43182 0.2004 0.94069 0.0
H606 H 0.4231 0.28026 0.93113 0.0
C607 C 0.42079 0.19429 0.9193 0.0
C608 C 0.42536 0.2073 0.92936 0.0
H609 H 0.4439 0.26466 0.96425 0.0
H610 H 0.43811 0.23493 0.95433 0.0
H611 H 0.44721 0.26907 0.91222 0.0
H612 H 0.38663 0.23669 0.92467 0.0
H613 H 0.38659 0.23266 0.90854 0.0
H614 H 0.39524 0.2571 0.91433 0.0
H615 H 0.42861 0.27467 0.90712 0.0
H616 H 0.43243 0.25664 0.8992 0.0
C617 C 0.45383 0.21464 0.94429 0.0
C618 C 0.41699 0.195 0.95157 0.0
C619 C 0.39726 0.19427 0.87503 0.0
C620 C 0.39306 0.20717 0.86848 0.0
C621 C 0.39526 0.22393 0.87467 0.0
C622 C 0.40153 0.22778 0.88714 0.0
C623 C 0.40573 0.21478 0.89355 0.0
C624 C 0.40355 0.19835 0.88748 0.0
C625 C 0.40878 0.18622 0.89573 0.0
C626 C 0.41439 0.19805 0.90775 0.0
C627 C 0.41259 0.21477 0.90642 0.0
C628 C 0.42673 0.18567 0.88993 0.0
C629 C 0.38995 0.16591 0.89725 0.0
C630 C 0.42651 0.27051 0.93625 0.0
C631 C 0.43393 0.27492 0.94855 0.0
C632 C 0.43785 0.26157 0.95486 0.0
C633 C 0.43466 0.24434 0.94903 0.0
C634 C 0.4276 0.24035 0.93669 0.0
C635 C 0.42359 0.2533 0.93051 0.0
C636 C 0.41665 0.24686 0.91731 0.0
C637 C 0.41725 0.22797 0.91659 0.0
C638 C 0.42361 0.22423 0.92799 0.0
C639 C 0.43184 0.2626 0.90842 0.0
C640 C 0.39521 0.24322 0.91602 0.0
H641 H 0.4176 0.15816 0.90774 0.0
H642 H 0.44009 0.17282 0.95186 0.0
H643 H 0.40294 0.18119 0.94948 0.0
H644 H 0.41243 0.20599 0.95325 0.0
H645 H 0.42328 0.19283 0.96034 0.0
H646 H 0.46411 0.2123 0.93829 0.0
H647 H 0.45691 0.21256 0.95411 0.0
H648 H 0.45827 0.23014 0.94289 0.0
H649 H 0.39593 0.18137 0.87052 0.0
H650 H 0.39186 0.23397 0.8699 0.0
H651 H 0.40283 0.24074 0.89132 0.0
H652 H 0.43686 0.19968 0.88522 0.0
H653 H 0.42177 0.17378 0.88287 0.0
H654 H 0.43617 0.18396 0.89695 0.0
H655 H 0.37643 0.1673 0.89791 0.0
H656 H 0.3901 0.15847 0.90589 0.0
H657 H 0.38791 0.15624 0.88915 0.0
H658 H 0.42568 0.13651 0.91886 0.0
C659 C 0.42233 0.16177 0.91727 0.0
C660 C 0.72301 0.17256 0.93918 0.0
C661 C 0.70806 0.15495 0.93392 0.0
C662 C 0.71029 0.15018 0.92156 0.0
C663 C 0.74193 0.18028 0.92 0.0
C664 C 0.73966 0.18497 0.93208 0.0
C665 C 0.7566 0.20444 0.93622 0.0
H666 H 0.84424 0.28546 0.92349 0.0
C667 C 0.76086 0.19642 0.91519 0.0
C668 C 0.76945 0.21065 0.92466 0.0
H669 H 0.81041 0.27152 0.95754 0.0
H670 H 0.78537 0.24095 0.94855 0.0
H671 H 0.83773 0.24183 0.91896 0.0
H672 H 0.80817 0.27174 0.9052 0.0
H673 H 0.80855 0.25742 0.89278 0.0
H674 H 0.8317 0.27652 0.89925 0.0
H675 H 0.84882 0.26147 0.90801 0.0
H676 H 0.83328 0.23649 0.90297 0.0
C677 C 0.7671 0.20099 0.94741 0.0
C678 C 0.74821 0.21817 0.93908 0.0
C679 C 0.78424 0.19248 0.87146 0.0
C680 C 0.80112 0.20538 0.86454 0.0
C681 C 0.81493 0.22352 0.86996 0.0
C682 C 0.81228 0.22857 0.88203 0.0
C683 C 0.79556 0.21545 0.88886 0.0
C684 C 0.78176 0.19782 0.88354 0.0
C685 C 0.76467 0.18599 0.89217 0.0
C686 C 0.77068 0.19932 0.90357 0.0
C687 C 0.78884 0.21651 0.90156 0.0
C688 C 0.76429 0.16661 0.89498 0.0
C689 C 0.74542 0.18334 0.88598 0.0
C690 C 0.83155 0.27573 0.92906 0.0
C691 C 0.82935 0.28096 0.94126 0.0
C692 C 0.81238 0.26798 0.94808 0.0
C693 C 0.79789 0.25016 0.94286 0.0
C694 C 0.80027 0.24519 0.93065 0.0
C695 C 0.8169 0.2579 0.92397 0.0
C696 C 0.81688 0.25029 0.91109 0.0
C697 C 0.7975 0.23091 0.91114 0.0
C698 C 0.78786 0.22799 0.92262 0.0
C699 C 0.83515 0.24744 0.91007 0.0
C700 C 0.81644 0.2647 0.90151 0.0
H701 H 0.72799 0.1582 0.90529 0.0
H702 H 0.72162 0.1768 0.94858 0.0
H703 H 0.73562 0.21508 0.9327 0.0
H704 H 0.75914 0.23374 0.93758 0.0
H705 H 0.74262 0.21625 0.94878 0.0
H706 H 0.76746 0.18718 0.94615 0.0
H707 H 0.75923 0.19983 0.95626 0.0
H708 H 0.78283 0.21246 0.94846 0.0
H709 H 0.77333 0.17841 0.86765 0.0
H710 H 0.8278 0.23399 0.8648 0.0
H711 H 0.82339 0.24256 0.88555 0.0
H712 H 0.77964 0.16926 0.89639 0.0
H713 H 0.75744 0.15604 0.88714 0.0
H714 H 0.75636 0.15965 0.90364 0.0
H715 H 0.74851 0.1964 0.88041 0.0
H716 H 0.7342 0.18185 0.89283 0.0
H717 H 0.73874 0.17049 0.87959 0.0
H718 H 0.69908 0.13662 0.91732 0.0
C719 C 0.72713 0.1627 0.91461 0.0
C720 C 0.56727 0.83388 0.06953 0.0
C721 C 0.57099 0.85146 0.07525 0.0
C722 C 0.57943 0.85594 0.08733 0.0
C723 C 0.57968 0.82539 0.08786 0.0
C724 C 0.57177 0.8212 0.07594 0.0
C725 C 0.56867 0.80199 0.07112 0.0
H726 H 0.57379 0.72013 0.08059 0.0
C727 C 0.58206 0.80886 0.092 0.0
C728 C 0.57571 0.79516 0.0822 0.0
H729 H 0.55463 0.73699 0.04735 0.0
H730 H 0.56065 0.76681 0.05745 0.0
H731 H 0.61181 0.76342 0.08665 0.0
H732 H 0.55147 0.73214 0.09942 0.0
H733 H 0.56583 0.74591 0.11222 0.0
H734 H 0.57012 0.72735 0.1055 0.0
H735 H 0.60233 0.74235 0.09648 0.0
H736 H 0.6122 0.76658 0.10291 0.0
C737 C 0.58214 0.80606 0.05961 0.0
C738 C 0.54618 0.78843 0.0685 0.0
C739 C 0.60774 0.80874 0.13568 0.0
C740 C 0.61055 0.79493 0.14228 0.0
C741 C 0.60587 0.77717 0.13631 0.0
C742 C 0.5988 0.77332 0.12402 0.0
C743 C 0.5962 0.78729 0.11755 0.0
C744 C 0.60048 0.80458 0.12341 0.0
C745 C 0.59615 0.8174 0.11518 0.0
C746 C 0.58872 0.80498 0.10341 0.0
C747 C 0.58891 0.78743 0.10485 0.0
C748 C 0.61585 0.83671 0.11299 0.0
C749 C 0.57971 0.82003 0.12145 0.0
C750 C 0.57113 0.73037 0.07544 0.0
C751 C 0.56379 0.72624 0.06314 0.0
C752 C 0.56013 0.73977 0.05686 0.0
C753 C 0.56373 0.75712 0.06273 0.0
C754 C 0.57105 0.76103 0.07503 0.0
C755 C 0.57462 0.74776 0.08117 0.0
C756 C 0.58215 0.75423 0.09425 0.0
C757 C 0.58277 0.77372 0.09488 0.0
C758 C 0.57624 0.77759 0.08362 0.0
C759 C 0.60318 0.7567 0.09526 0.0
C760 C 0.56677 0.73915 0.1034 0.0
H761 H 0.59013 0.84725 0.10282 0.0
H762 H 0.56058 0.8298 0.06034 0.0
H763 H 0.53713 0.79061 0.07565 0.0
H764 H 0.54148 0.77276 0.06897 0.0
H765 H 0.54193 0.79151 0.05925 0.0
H766 H 0.59611 0.82038 0.06055 0.0
H767 H 0.57453 0.80647 0.05093 0.0
H768 H 0.58715 0.7953 0.05846 0.0
H769 H 0.61128 0.82259 0.1399 0.0
H770 H 0.60743 0.76605 0.14121 0.0
H771 H 0.59555 0.75955 0.12005 0.0
H772 H 0.62852 0.83396 0.11222 0.0
H773 H 0.61919 0.84717 0.12083 0.0
H774 H 0.61587 0.84385 0.10417 0.0
H775 H 0.56867 0.80633 0.1261 0.0
H776 H 0.57093 0.82323 0.11474 0.0
H777 H 0.58609 0.83178 0.12865 0.0
H778 H 0.58277 0.86952 0.09189 0.0
C779 C 0.58378 0.84303 0.09365 0.0
C780 C 0.27962 0.82952 0.06689 0.0
C781 C 0.29417 0.84792 0.07148 0.0
C782 C 0.29199 0.85367 0.08356 0.0
C783 C 0.26133 0.82293 0.08626 0.0
C784 C 0.26338 0.81737 0.07438 0.0
C785 C 0.24642 0.79755 0.0708 0.0
H786 H 0.15978 0.71702 0.08615 0.0
C787 C 0.24284 0.8069 0.09161 0.0
C788 C 0.23402 0.792 0.08255 0.0
H789 H 0.19095 0.7295 0.0511 0.0
H790 H 0.21671 0.76037 0.05932 0.0
H791 H 0.19729 0.7318 0.10342 0.0
H792 H 0.1661 0.76037 0.09015 0.0
H793 H 0.17166 0.76659 0.10598 0.0
H794 H 0.15608 0.74132 0.10155 0.0
H795 H 0.17428 0.72727 0.11011 0.0
H796 H 0.19789 0.74684 0.11568 0.0
C797 C 0.25493 0.78384 0.06831 0.0
C798 C 0.23536 0.80004 0.05952 0.0
C799 C 0.22261 0.81245 0.13592 0.0
C800 C 0.2067 0.79947 0.14346 0.0
C801 C 0.1926 0.78109 0.13853 0.0
C802 C 0.19424 0.77569 0.12635 0.0
C803 C 0.2102 0.78874 0.11893 0.0
C804 C 0.22413 0.80673 0.12375 0.0
C805 C 0.24035 0.81843 0.11456 0.0
C806 C 0.23375 0.80453 0.10344 0.0
C807 C 0.21601 0.78723 0.10606 0.0
C808 C 0.26027 0.82193 0.12018 0.0
C809 C 0.23986 0.83735 0.11162 0.0
C810 C 0.17204 0.72646 0.08019 0.0
C811 C 0.17326 0.72073 0.06794 0.0
C812 C 0.18972 0.73339 0.06062 0.0
C813 C 0.20462 0.75141 0.06538 0.0
C814 C 0.20313 0.75693 0.07762 0.0
C815 C 0.18702 0.74451 0.08479 0.0
C816 C 0.18784 0.75275 0.09758 0.0
C817 C 0.20699 0.77225 0.09687 0.0
C818 C 0.21591 0.77463 0.08518 0.0
C819 C 0.18926 0.73899 0.10728 0.0
C820 C 0.16945 0.75533 0.09903 0.0
H821 H 0.27496 0.84651 0.10008 0.0
H822 H 0.28069 0.82478 0.05758 0.0
H823 H 0.2357 0.81427 0.06004 0.0
H824 H 0.21941 0.78895 0.05921 0.0
H825 H 0.24231 0.79963 0.05059 0.0
H826 H 0.26692 0.7867 0.07513 0.0
H827 H 0.26137 0.78612 0.05882 0.0
H828 H 0.24382 0.76824 0.0694 0.0
H829 H 0.23378 0.82661 0.13948 0.0
H830 H 0.18007 0.77094 0.14407 0.0
H831 H 0.18296 0.76152 0.12318 0.0
H832 H 0.25808 0.80893 0.12548 0.0
H833 H 0.26672 0.83462 0.1267 0.0
H834 H 0.27138 0.82418 0.11303 0.0
H835 H 0.2243 0.83444 0.11129 0.0
H836 H 0.24602 0.8434 0.10239 0.0
H837 H 0.24796 0.84874 0.11887 0.0
H838 H 0.30305 0.86769 0.08736 0.0
C839 C 0.2757 0.8413 0.09097 0.0
C840 C 0.27754 0.45664 0.06795 0.0
C841 C 0.2929 0.45452 0.07339 0.0
C842 C 0.29108 0.44886 0.08601 0.0
C843 C 0.25917 0.44729 0.08738 0.0
C844 C 0.26098 0.4531 0.0751 0.0
C845 C 0.24363 0.45518 0.07084 0.0
H846 H 0.15617 0.45074 0.0842 0.0
C847 C 0.24024 0.44484 0.0922 0.0
C848 C 0.23111 0.44959 0.08257 0.0
H849 H 0.18793 0.46676 0.04934 0.0
H850 H 0.21335 0.46131 0.05821 0.0
H851 H 0.16202 0.41428 0.08921 0.0
H852 H 0.19458 0.47389 0.10218 0.0
H853 H 0.19185 0.45881 0.1149 0.0
H854 H 0.17005 0.45686 0.10749 0.0
H855 H 0.15258 0.42348 0.10107 0.0
H856 H 0.16849 0.41364 0.10482 0.0
C857 C 0.23292 0.44042 0.06006 0.0
C858 C 0.25158 0.47681 0.06731 0.0
C859 C 0.21867 0.42055 0.13646 0.0
C860 C 0.20178 0.41656 0.14347 0.0
C861 C 0.18735 0.42014 0.13802 0.0
C862 C 0.18952 0.42726 0.12584 0.0
C863 C 0.20632 0.4309 0.11892 0.0
C864 C 0.2206 0.42765 0.12427 0.0
C865 C 0.2375 0.43245 0.11551 0.0
C866 C 0.23084 0.43881 0.10398 0.0
C867 C 0.21256 0.43789 0.10604 0.0
C868 C 0.23831 0.41352 0.1131 0.0
C869 C 0.25675 0.44944 0.12131 0.0
C870 C 0.1687 0.45326 0.07851 0.0
C871 C 0.17005 0.4593 0.06605 0.0
C872 C 0.18643 0.46199 0.05892 0.0
C873 C 0.20125 0.45892 0.06412 0.0
C874 C 0.19975 0.45302 0.07661 0.0
C875 C 0.18358 0.45016 0.08354 0.0
C876 C 0.18413 0.44338 0.09655 0.0
C877 C 0.20345 0.44297 0.09636 0.0
C878 C 0.2126 0.44868 0.08467 0.0
C879 C 0.16584 0.42268 0.09813 0.0
C880 C 0.18507 0.45888 0.10585 0.0
H881 H 0.27396 0.44093 0.10249 0.0
H882 H 0.27822 0.46081 0.05829 0.0
H883 H 0.26376 0.48677 0.07376 0.0
H884 H 0.24027 0.48129 0.06811 0.0
H885 H 0.25759 0.47976 0.0577 0.0
H886 H 0.2329 0.42652 0.06174 0.0
H887 H 0.24043 0.44636 0.05104 0.0
H888 H 0.2171 0.43611 0.05915 0.0
H889 H 0.23 0.41788 0.14028 0.0
H890 H 0.17437 0.41758 0.14323 0.0
H891 H 0.17798 0.42962 0.12229 0.0
H892 H 0.22306 0.40075 0.112 0.0
H893 H 0.2456 0.41045 0.121 0.0
H894 H 0.24603 0.41393 0.10441 0.0
H895 H 0.25345 0.45921 0.12708 0.0
H896 H 0.26729 0.45915 0.11422 0.0
H897 H 0.26434 0.44386 0.12743 0.0
H898 H 0.30276 0.44752 0.09061 0.0
C899 C 0.27436 0.44519 0.09297 0.0
C900 C 0.48751 0.87293 0.27153 0.0
C901 C 0.50586 0.87674 0.26652 0.0
C902 C 0.51124 0.88556 0.25467 0.0
C903 C 0.48044 0.88622 0.25304 0.0
C904 C 0.4752 0.87791 0.26471 0.0
C905 C 0.4556 0.8755 0.26887 0.0
H906 H 0.37656 0.88783 0.25745 0.0
C907 C 0.46451 0.88975 0.24846 0.0
C908 C 0.44995 0.88365 0.25775 0.0
H909 H 0.38826 0.86347 0.29024 0.0
H910 H 0.41851 0.86789 0.28108 0.0
H911 H 0.42123 0.92308 0.25392 0.0
H912 H 0.38951 0.86538 0.23768 0.0
H913 H 0.40345 0.88165 0.2258 0.0
H914 H 0.38438 0.88439 0.23348 0.0
H915 H 0.40205 0.91639 0.24239 0.0
H916 H 0.42752 0.92516 0.23807 0.0
C917 C 0.45938 0.88809 0.28077 0.0
C918 C 0.44087 0.85342 0.27063 0.0
C919 C 0.46917 0.91771 0.20507 0.0
C920 C 0.45705 0.92311 0.19839 0.0
C921 C 0.43967 0.92077 0.20407 0.0
C922 C 0.43437 0.9131 0.21611 0.0
C923 C 0.4466 0.90775 0.22267 0.0
C924 C 0.46375 0.91021 0.21716 0.0
C925 C 0.4753 0.90436 0.2257 0.0
C926 C 0.46203 0.89756 0.2371 0.0
C927 C 0.44521 0.89952 0.23527 0.0
C928 C 0.4957 0.92274 0.22854 0.0
C929 C 0.47661 0.8874 0.21938 0.0
C930 C 0.38571 0.88359 0.26271 0.0
C931 C 0.37993 0.8753 0.27463 0.0
C932 C 0.39218 0.86969 0.28101 0.0
C933 C 0.40985 0.8724 0.2757 0.0
C934 C 0.41547 0.88081 0.26383 0.0
C935 C 0.40339 0.88613 0.25751 0.0
C936 C 0.41153 0.89453 0.2449 0.0
C937 C 0.4306 0.89361 0.24475 0.0
C938 C 0.43288 0.8856 0.25589 0.0
C939 C 0.41573 0.91587 0.24467 0.0
C940 C 0.39648 0.88097 0.23487 0.0
H941 H 0.50372 0.89681 0.23899 0.0
H942 H 0.48267 0.8661 0.28053 0.0
H943 H 0.44315 0.84461 0.26339 0.0
H944 H 0.4252 0.84957 0.26955 0.0
H945 H 0.44295 0.84843 0.27989 0.0
H946 H 0.47383 0.90198 0.28021 0.0
H947 H 0.45984 0.88024 0.2892 0.0
H948 H 0.44823 0.89269 0.2821 0.0
H949 H 0.48279 0.91963 0.20107 0.0
H950 H 0.43001 0.92469 0.19911 0.0
H951 H 0.42092 0.91164 0.21986 0.0
H952 H 0.49477 0.93632 0.22807 0.0
H953 H 0.50711 0.9242 0.22175 0.0
H954 H 0.5011 0.92279 0.2381 0.0
H955 H 0.4621 0.87675 0.21506 0.0
H956 H 0.48008 0.87885 0.22598 0.0
H957 H 0.48793 0.89293 0.2119 0.0
H958 H 0.52541 0.88925 0.25061 0.0
C959 C 0.49867 0.89018 0.24792 0.0
C960 C 0.10848 0.5036 0.27343 0.0
C961 C 0.10374 0.48531 0.26833 0.0
C962 C 0.0944 0.47997 0.25651 0.0
C963 C 0.09544 0.51105 0.25496 0.0
C964 C 0.1041 0.51609 0.26666 0.0
C965 C 0.10792 0.53587 0.27085 0.0
H966 H 0.10479 0.61818 0.25855 0.0
C967 C 0.09332 0.52749 0.25031 0.0
C968 C 0.10044 0.54201 0.25963 0.0
H969 H 0.12461 0.60337 0.29238 0.0
H970 H 0.11728 0.57247 0.28335 0.0
H971 H 0.12518 0.60228 0.23981 0.0
H972 H 0.06596 0.57598 0.25446 0.0
H973 H 0.06378 0.56944 0.23863 0.0
H974 H 0.07496 0.59488 0.24296 0.0
H975 H 0.10753 0.60911 0.23463 0.0
H976 H 0.10887 0.58906 0.22754 0.0
C977 C 0.1306 0.54922 0.27284 0.0
C978 C 0.09528 0.53314 0.28261 0.0
C979 C 0.06713 0.52496 0.20643 0.0
C980 C 0.06404 0.53825 0.19943 0.0
C981 C 0.06827 0.55615 0.20499 0.0
C982 C 0.07556 0.56081 0.21722 0.0
C983 C 0.0787 0.54746 0.22405 0.0
C984 C 0.07444 0.52986 0.21866 0.0
C985 C 0.07868 0.51747 0.22734 0.0
C986 C 0.08633 0.53062 0.23879 0.0
C987 C 0.08632 0.54816 0.23679 0.0
C988 C 0.09495 0.51427 0.22137 0.0
C989 C 0.05888 0.4984 0.22991 0.0
C990 C 0.10736 0.6082 0.26406 0.0
C991 C 0.1153 0.61327 0.2762 0.0
C992 C 0.11874 0.59996 0.28296 0.0
C993 C 0.11434 0.58194 0.27772 0.0
C994 C 0.10641 0.57711 0.26558 0.0
C995 C 0.10303 0.59014 0.25898 0.0
C996 C 0.09458 0.58256 0.2462 0.0
C997 C 0.09326 0.56274 0.24627 0.0
C998 C 0.10026 0.55966 0.25763 0.0
C999 C 0.10964 0.59644 0.23646 0.0
C1000 C 0.07378 0.58069 0.24539 0.0
H1001 H 0.08327 0.48783 0.24086 0.0
H1002 H 0.1158 0.50833 0.28242 0.0
H1003 H 0.08116 0.51888 0.28231 0.0
H1004 H 0.09055 0.54416 0.2834 0.0
H1005 H 0.10341 0.53348 0.29123 0.0
H1006 H 0.139 0.54643 0.26553 0.0
H1007 H 0.13536 0.5465 0.28203 0.0
H1008 H 0.13553 0.56491 0.27212 0.0
H1009 H 0.06418 0.51115 0.20243 0.0
H1010 H 0.0657 0.5665 0.19991 0.0
H1011 H 0.07845 0.57465 0.22089 0.0
H1012 H 0.1065 0.52793 0.21692 0.0
H1013 H 0.08853 0.50271 0.21405 0.0
H1014 H 0.10306 0.51044 0.2282 0.0
H1015 H 0.04606 0.50098 0.22957 0.0
H1016 H 0.05836 0.49261 0.23934 0.0
H1017 H 0.05607 0.48692 0.22288 0.0
H1018 H 0.09015 0.46584 0.25244 0.0
C1019 C 0.09028 0.49273 0.24981 0.0
C1020 C 0.39078 0.50604 0.27126 0.0
C1021 C 0.37674 0.48719 0.26695 0.0
C1022 C 0.37953 0.48119 0.25506 0.0
C1023 C 0.40967 0.51238 0.25213 0.0
C1024 C 0.40706 0.51822 0.26379 0.0
C1025 C 0.4235 0.5384 0.26721 0.0
H1026 H 0.51024 0.61937 0.25267 0.0
C1027 C 0.42817 0.52854 0.2468 0.0
C1028 C 0.43637 0.54378 0.25566 0.0
H1029 H 0.4762 0.60756 0.28651 0.0
H1030 H 0.45147 0.5763 0.27827 0.0
H1031 H 0.50456 0.57595 0.24964 0.0
H1032 H 0.47319 0.60303 0.23412 0.0
H1033 H 0.47459 0.58833 0.22233 0.0
H1034 H 0.49717 0.60849 0.22862 0.0
H1035 H 0.51515 0.59477 0.23811 0.0
H1036 H 0.50009 0.56939 0.23379 0.0
C1037 C 0.43437 0.53675 0.27889 0.0
C1038 C 0.41431 0.5517 0.26898 0.0
C1039 C 0.45035 0.52216 0.20316 0.0
C1040 C 0.46683 0.53475 0.19584 0.0
C1041 C 0.48077 0.55321 0.20081 0.0
C1042 C 0.47848 0.55898 0.21277 0.0
C1043 C 0.46205 0.54624 0.21997 0.0
C1044 C 0.44828 0.52818 0.21514 0.0
C1045 C 0.43179 0.51658 0.22421 0.0
C1046 C 0.43784 0.53073 0.23519 0.0
C1047 C 0.45563 0.54807 0.23265 0.0
C1048 C 0.43238 0.49784 0.22758 0.0
C1049 C 0.412 0.51272 0.2182 0.0
C1050 C 0.49754 0.60998 0.25835 0.0
C1051 C 0.49524 0.61605 0.27029 0.0
C1052 C 0.47827 0.60344 0.27724 0.0
C1053 C 0.46396 0.58517 0.27246 0.0
C1054 C 0.46651 0.57929 0.26056 0.0
C1055 C 0.48304 0.59166 0.25368 0.0
C1056 C 0.48311 0.58305 0.24114 0.0
C1057 C 0.46404 0.56339 0.24169 0.0
C1058 C 0.45441 0.56127 0.2531 0.0
C1059 C 0.50172 0.58073 0.2405 0.0
C1060 C 0.48211 0.59638 0.23095 0.0
H1061 H 0.39706 0.48815 0.23874 0.0
H1062 H 0.38913 0.51135 0.28023 0.0
H1063 H 0.40199 0.54777 0.26219 0.0
H1064 H 0.42496 0.56727 0.26722 0.0
H1065 H 0.40814 0.55021 0.27849 0.0
H1066 H 0.43475 0.52286 0.27871 0.0
H1067 H 0.42678 0.53697 0.28758 0.0
H1068 H 0.45012 0.54833 0.27944 0.0
H1069 H 0.43945 0.50781 0.19973 0.0
H1070 H 0.49342 0.56337 0.19536 0.0
H1071 H 0.48964 0.57321 0.21594 0.0
H1072 H 0.44793 0.50072 0.22784 0.0
H1073 H 0.42404 0.48602 0.22062 0.0
H1074 H 0.42654 0.49237 0.23697 0.0
H1075 H 0.41407 0.52589 0.21318 0.0
H1076 H 0.40029 0.50951 0.22509 0.0
H1077 H 0.40641 0.50048 0.21135 0.0
H1078 H 0.36928 0.4667 0.25153 0.0
C1079 C 0.39582 0.49365 0.24766 0.0
Gd1080 Gd 0.51025 0.01494 0.01859 0.0
Gd1081 Gd 0.49459 0.98693 0.98878 0.0
C1082 C 0.43363 0.93252 0.98297 0.0
C1083 C 0.44227 0.90728 0.9795 0.0
C1084 C 0.46811 0.94094 0.98326 0.0
C1085 C 0.45394 0.94642 0.98453 0.0
C1086 C 0.46251 0.92142 0.98038 0.0
C1087 C 0.42784 0.91284 0.98079 0.0
C1088 C 0.41983 0.93895 0.98314 0.0
C1089 C 0.42645 0.95884 0.98454 0.0
N1090 N 0.4601 0.96561 0.98644 0.0
C1091 C 0.44675 0.97206 0.98602 0.0
H1092 H 0.45154 0.98735 0.98705 0.0
C1093 C 0.50201 0.95098 0.98065 0.0
N1094 N 0.48747 0.95505 0.98386 0.0
C1095 C 0.49726 0.93181 0.97787 0.0
C1096 C 0.47742 0.91688 0.97793 0.0
H1097 H 0.51737 0.96248 0.98055 0.0
H1098 H 0.41229 0.90191 0.9797 0.0
H1099 H 0.55317 0.0144 0.02033 0.0
H1100 H 0.40415 0.92876 0.98178 0.0
H1101 H 0.41599 0.96408 0.98442 0.0
H1102 H 0.43765 0.89216 0.97742 0.0
H1103 H 0.48772 0.04005 0.02608 0.0
H1104 H 0.60103 0.07344 0.02245 0.0
H1105 H 0.58906 0.03797 0.02141 0.0
H1106 H 0.56771 0.11035 0.02676 0.0
H1107 H 0.50888 0.92857 0.97565 0.0
H1108 H 0.47375 0.90207 0.97567 0.0
H1109 H 0.59291 0.10043 0.02428 0.0
H1110 H 0.49658 0.07432 0.03009 0.0
N1111 N 0.54478 0.03624 0.02033 0.0
C1112 C 0.58523 0.06314 0.02196 0.0
C1113 C 0.57853 0.04314 0.02141 0.0
C1114 C 0.57142 0.06957 0.02233 0.0
C1115 C 0.55102 0.05555 0.02158 0.0
C1116 C 0.55812 0.0298 0.02081 0.0
N1117 N 0.51751 0.04707 0.02276 0.0
C1118 C 0.53692 0.06116 0.02286 0.0
C1119 C 0.50807 0.07084 0.028 0.0
C1120 C 0.52792 0.08567 0.02746 0.0
C1121 C 0.5031 0.05146 0.02575 0.0
C1122 C 0.54269 0.08089 0.02506 0.0
H1123 H 0.53174 0.10067 0.02922 0.0
O1124 O 0.49401 0.00995 0.0359 0.0
O1125 O 0.48642 0.98945 0.00829 0.0
O1126 O 0.48603 0.01047 0.99001 0.0
O1127 O 0.50711 0.03417 0.00439 0.0
O1128 O 0.47766 0.00517 0.01938 0.0
O1129 O 0.52017 0.00696 0.03541 0.0
O1130 O 0.51181 0.99333 0.97177 0.0
O1131 O 0.51826 0.01219 0.9992 0.0
O1132 O 0.51782 0.99067 0.01796 0.0
O1133 O 0.49832 0.96759 0.00262 0.0
O1134 O 0.52724 0.99659 0.98829 0.0
O1135 O 0.48542 0.99584 0.97204 0.0
C1136 C 0.47145 0.99007 0.01221 0.0
C1137 C 0.56296 0.09507 0.02522 0.0
C1138 C 0.57731 0.08942 0.02382 0.0
C1139 C 0.50627 0.00664 0.04233 0.0
C1140 C 0.51248 0.01641 0.05458 0.0
C1141 C 0.52343 0.03683 0.05544 0.0
C1142 C 0.50718 0.00523 0.06555 0.0
C1143 C 0.51264 0.0144 0.07739 0.0
C1144 C 0.52881 0.04603 0.06707 0.0
C1145 C 0.52341 0.03498 0.07795 0.0
C1146 C 0.49471 0.02842 0.99475 0.0
C1147 C 0.53334 0.01169 0.99545 0.0
C1148 C 0.49976 0.9968 0.96528 0.0
C1149 C 0.49427 0.98764 0.95283 0.0
C1150 C 0.48254 0.96731 0.95156 0.0
C1151 C 0.50122 0.99927 0.94208 0.0
C1152 C 0.49681 0.99057 0.93012 0.0
C1153 C 0.47799 0.95862 0.93976 0.0
C1154 C 0.48511 0.97011 0.92911 0.0
C1155 C 0.50977 0.97306 0.01273 0.0
H1156 H 0.52772 0.04567 0.04715 0.0
H1157 H 0.49898 0.98943 0.06481 0.0
H1158 H 0.5371 0.06183 0.06766 0.0
H1159 H 0.52746 0.04264 0.08682 0.0
H1160 H 0.47694 0.95815 0.95968 0.0
H1161 H 0.51033 0.015 0.94305 0.0
H1162 H 0.46892 0.9429 0.93886 0.0
H1163 H 0.48123 0.96299 0.92006 0.0
Gd1164 Gd 0.98319 0.4943 0.0196 0.0
Gd1165 Gd 0.01568 0.50657 0.99215 0.0
C1166 C 0.07238 0.5027 0.99334 0.0
C1167 C 0.09807 0.53683 0.99189 0.0
C1168 C 0.0632 0.52767 0.99137 0.0
C1169 C 0.05775 0.50826 0.99263 0.0
C1170 C 0.0834 0.54216 0.99066 0.0
C1171 C 0.09256 0.51713 0.99326 0.0
C1172 C 0.06626 0.4828 0.99384 0.0
C1173 C 0.04604 0.46901 0.9932 0.0
N1174 N 0.03812 0.49473 0.99265 0.0
C1175 C 0.03211 0.47526 0.99244 0.0
H1176 H 0.01654 0.46443 0.99206 0.0
C1177 C 0.0532 0.55087 0.98726 0.0
N1178 N 0.04864 0.53225 0.99014 0.0
C1179 C 0.07303 0.56579 0.98652 0.0
C1180 C 0.08821 0.56146 0.98839 0.0
H1181 H 0.04151 0.55431 0.9859 0.0
H1182 H 0.10401 0.51317 0.99395 0.0
H1183 H 0.98026 0.53508 0.02013 0.0
H1184 H 0.07702 0.47792 0.99446 0.0
H1185 H 0.04115 0.45357 0.99336 0.0
H1186 H 0.11368 0.54777 0.99152 0.0
H1187 H 0.95946 0.44593 0.02462 0.0
H1188 H 0.91892 0.51876 0.02066 0.0
H1189 H 0.95441 0.54443 0.02048 0.0
H1190 H 0.88511 0.44904 0.0224 0.0
H1191 H 0.07658 0.5806 0.98455 0.0
H1192 H 0.10356 0.57303 0.98779 0.0
H1193 H 0.89314 0.4833 0.0209 0.0
H1194 H 0.92504 0.41859 0.02625 0.0
N1195 N 0.95962 0.50454 0.01969 0.0
C1196 C 0.93022 0.51468 0.02032 0.0
C1197 C 0.95022 0.52916 0.0203 0.0
C1198 C 0.92499 0.49501 0.02033 0.0
C1199 C 0.94025 0.49033 0.02016 0.0
C1200 C 0.96483 0.52379 0.02012 0.0
N1201 N 0.95092 0.46735 0.02163 0.0
C1202 C 0.93574 0.47112 0.0211 0.0
C1203 C 0.92783 0.43329 0.02477 0.0
C1204 C 0.912 0.43684 0.02376 0.0
C1205 C 0.94732 0.44883 0.02388 0.0
C1206 C 0.91584 0.45597 0.0221 0.0
H1207 H 0.89691 0.42478 0.02454 0.0
O1208 O 0.98621 0.48401 0.0377 0.0
O1209 O 0.0105 0.49662 0.01168 0.0
O1210 O 0.99157 0.47438 0.99262 0.0
O1211 O 0.96572 0.47325 0.00418 0.0
O1212 O 0.99411 0.4729 0.02279 0.0
O1213 O 0.98822 0.51231 0.03607 0.0
O1214 O 0.01338 0.51732 0.97403 0.0
O1215 O 0.98852 0.50476 1.00011 0.0
O1216 O 0.00699 0.52669 0.01923 0.0
O1217 O 0.03283 0.52847 0.00723 0.0
O1218 O 0.00534 0.52846 0.98903 0.0
O1219 O 0.01014 0.48852 0.97562 0.0
C1220 C 0.01017 0.48193 0.01643 0.0
C1221 C 0.90051 0.46047 0.02173 0.0
C1222 C 0.90508 0.47997 0.02088 0.0
C1223 C 0.98786 0.49922 0.04359 0.0
C1224 C 0.97592 0.49514 0.05488 0.0
C1225 C 0.95516 0.4861 0.05424 0.0
C1226 C 0.98548 0.49972 0.06651 0.0
C1227 C 0.9744 0.49507 0.07754 0.0
C1228 C 0.94406 0.48149 0.06517 0.0
C1229 C 0.95358 0.48584 0.07678 0.0
C1230 C 0.97256 0.46583 0.99578 0.0
C1231 C 0.98929 0.51976 0.99546 0.0
C1232 C 0.01126 0.50195 0.96811 0.0
C1233 C 0.02351 0.50578 0.95698 0.0
C1234 C 0.0442 0.51438 0.95792 0.0
C1235 C 0.01436 0.50127 0.94521 0.0
C1236 C 0.02577 0.5056 0.9343 0.0
C1237 C 0.05565 0.51867 0.94719 0.0
C1238 C 0.04656 0.51443 0.93544 0.0
C1239 C 0.02594 0.53559 0.01581 0.0
H1240 H 0.94755 0.48248 0.04536 0.0
H1241 H 0.00154 0.50653 0.06698 0.0
H1242 H 0.92803 0.47446 0.06463 0.0
H1243 H 0.94473 0.48219 0.08515 0.0
H1244 H 0.05149 0.51788 0.96691 0.0
H1245 H 0.99832 0.49429 0.9446 0.0
H1246 H 0.07164 0.52546 0.94796 0.0
H1247 H 0.05587 0.51833 0.92727 0.0
Gd1248 Gd 0.49414 0.50518 0.99138 0.0
Gd1249 Gd 0.51124 0.49786 0.02178 0.0
C1250 C 0.56776 0.54429 0.04141 0.0
C1251 C 0.59259 0.5369 0.03358 0.0
C1252 C 0.55801 0.5171 0.02717 0.0
C1253 C 0.55317 0.52874 0.03419 0.0
C1254 C 0.57769 0.52067 0.02707 0.0
C1255 C 0.58762 0.54869 0.04077 0.0
C1256 C 0.56181 0.55441 0.04943 0.0
C1257 C 0.54165 0.54837 0.05048 0.0
N1258 N 0.53383 0.52394 0.03464 0.0
C1259 C 0.52773 0.53277 0.04315 0.0
H1260 H 0.51216 0.52818 0.04397 0.0
C1261 C 0.54664 0.48762 0.01596 0.0
N1262 N 0.54315 0.50137 0.02123 0.0
C1263 C 0.56593 0.4905 0.01558 0.0
C1264 C 0.58161 0.50734 0.02091 0.0
H1265 H 0.53469 0.47459 0.01175 0.0
H1266 H 0.59912 0.56074 0.04612 0.0
H1267 H 0.44808 0.46707 0.99229 0.0
H1268 H 0.57257 0.56644 0.05514 0.0
H1269 H 0.53682 0.55572 0.05691 0.0
H1270 H 0.60784 0.54003 0.0335 0.0
H1271 H 0.52221 0.55152 0.98163 0.0
H1272 H 0.40707 0.48802 0.98958 0.0
H1273 H 0.4137 0.46054 0.99165 0.0
H1274 H 0.44891 0.55655 0.98281 0.0
H1275 H 0.56868 0.4798 0.01109 0.0
H1276 H 0.59652 0.50954 0.0206 0.0
H1277 H 0.42027 0.52386 0.98666 0.0
H1278 H 0.51853 0.58017 0.9773 0.0
N1279 N 0.46091 0.49788 0.99077 0.0
C1280 C 0.42217 0.49089 0.98989 0.0
C1281 C 0.42586 0.47539 0.99101 0.0
C1282 C 0.43808 0.50994 0.98873 0.0
C1283 C 0.45753 0.51296 0.98908 0.0
C1284 C 0.44543 0.47915 0.99134 0.0
N1285 N 0.49186 0.53315 0.98649 0.0
C1286 C 0.47354 0.53123 0.98688 0.0
C1287 C 0.50577 0.56652 0.98006 0.0
C1288 C 0.48718 0.56506 0.98114 0.0
C1289 C 0.50779 0.55023 0.98253 0.0
C1290 C 0.47068 0.54714 0.98433 0.0
H1291 H 0.48562 0.57765 0.97914 0.0
O1292 O 0.50965 0.50995 0.97374 0.0
O1293 O 0.5174 0.50152 1.00144 0.0
O1294 O 0.52389 0.53021 0.01823 0.0
O1295 O 0.50106 0.53061 0.00418 0.0
O1296 O 0.52701 0.52493 0.98942 0.0
O1297 O 0.47931 0.48689 0.9752 0.0
O1298 O 0.51032 0.47338 0.03151 0.0
O1299 O 0.48485 0.4926 0.01028 0.0
O1300 O 0.48192 0.4729 0.99428 0.0
O1301 O 0.50165 0.47072 0.00988 0.0
O1302 O 0.48717 0.50377 0.02812 0.0
O1303 O 0.49445 0.48694 0.03894 0.0
C1304 C 0.53265 0.51583 0.99678 0.0
C1305 C 0.45141 0.54447 0.98463 0.0
C1306 C 0.43512 0.52587 0.98682 0.0
C1307 C 0.49418 0.49665 0.96777 0.0
C1308 C 0.4896 0.50262 0.95581 0.0
C1309 C 0.47832 0.51198 0.95552 0.0
C1310 C 0.49655 0.499 0.94459 0.0
C1311 C 0.49207 0.50457 0.9331 0.0
C1312 C 0.4741 0.51779 0.94422 0.0
C1313 C 0.48091 0.51415 0.93309 0.0
C1314 C 0.51528 0.53905 0.0127 0.0
C1315 C 0.47651 0.49808 0.01814 0.0
C1316 C 0.50092 0.47492 0.04107 0.0
C1317 C 0.50952 0.47587 0.05362 0.0
C1318 C 0.52394 0.47026 0.05519 0.0
C1319 C 0.50334 0.48221 0.06416 0.0
C1320 C 0.51164 0.48316 0.07606 0.0
C1321 C 0.53209 0.47105 0.06692 0.0
C1322 C 0.52602 0.47741 0.07727 0.0
C1323 C 0.48885 0.46314 1.00049 0.0
H1324 H 0.4727 0.51473 0.96401 0.0
H1325 H 0.50508 0.49157 0.94481 0.0
H1326 H 0.46549 0.52512 0.94409 0.0
H1327 H 0.47754 0.51897 0.92445 0.0
H1328 H 0.52894 0.46521 0.04735 0.0
H1329 H 0.4923 0.48665 0.06307 0.0
H1330 H 0.54313 0.46663 0.06801 0.0
H1331 H 0.53244 0.47754 0.08627 0.0
Gd1332 Gd 0.17848 0.34593 0.3524 0.0
Gd1333 Gd 0.16283 0.31971 0.32209 0.0
C1334 C 0.10045 0.26873 0.31426 0.0
C1335 C 0.10686 0.24216 0.31 0.0
C1336 C 0.13401 0.2744 0.31566 0.0
C1337 C 0.12082 0.28122 0.31683 0.0
C1338 C 0.12723 0.25488 0.31203 0.0
C1339 C 0.09355 0.24914 0.31097 0.0
C1340 C 0.08781 0.27655 0.31444 0.0
C1341 C 0.09559 0.2964 0.31691 0.0
N1342 N 0.12814 0.30043 0.31948 0.0
C1343 C 0.11593 0.30824 0.31922 0.0
H1344 H 0.12166 0.3236 0.3209 0.0
C1345 C 0.16743 0.28211 0.3139 0.0
N1346 N 0.15366 0.28736 0.31692 0.0
C1347 C 0.16146 0.26279 0.31063 0.0
C1348 C 0.14124 0.24903 0.30983 0.0
H1349 H 0.18308 0.29282 0.31427 0.0
H1350 H 0.0781 0.23948 0.30866 0.0
H1351 H 0.22 0.34246 0.35327 0.0
H1352 H 0.07218 0.26758 0.31226 0.0
H1353 H 0.08598 0.30266 0.31686 0.0
H1354 H 0.10137 0.22713 0.30716 0.0
H1355 H 0.15862 0.3725 0.36181 0.0
H1356 H 0.26997 0.39969 0.35838 0.0
H1357 H 0.25601 0.36407 0.35542 0.0
H1358 H 0.24048 0.43968 0.36427 0.0
H1359 H 0.17244 0.25859 0.30858 0.0
H1360 H 0.13663 0.23416 0.30706 0.0
H1361 H 0.26412 0.42792 0.36116 0.0
H1362 H 0.16939 0.40687 0.36724 0.0
N1363 N 0.21331 0.3655 0.35443 0.0
C1364 C 0.2541 0.39024 0.35724 0.0
C1365 C 0.24627 0.37017 0.35565 0.0
C1366 C 0.24128 0.39782 0.35786 0.0
C1367 C 0.22068 0.38487 0.35653 0.0
C1368 C 0.22573 0.35792 0.35445 0.0
N1369 N 0.18781 0.37826 0.35785 0.0
C1370 C 0.20748 0.3915 0.35822 0.0
C1371 C 0.18027 0.40279 0.36463 0.0
C1372 C 0.20042 0.41686 0.36433 0.0
C1373 C 0.17422 0.38337 0.36157 0.0
C1374 C 0.21436 0.41122 0.36137 0.0
H1375 H 0.2051 0.43186 0.3668 0.0
O1376 O 0.16254 0.34153 0.36982 0.0
O1377 O 0.15435 0.32135 0.34159 0.0
O1378 O 0.15658 0.34481 0.3232 0.0
O1379 O 0.17528 0.36645 0.33933 0.0
O1380 O 0.14602 0.33709 0.3529 0.0
O1381 O 0.18632 0.33497 0.36871 0.0
O1382 O 0.17893 0.32381 0.30479 0.0
O1383 O 0.18692 0.34439 0.33279 0.0
O1384 O 0.18496 0.32103 0.35122 0.0
O1385 O 0.1652 0.2991 0.33552 0.0
O1386 O 0.19513 0.32831 0.32169 0.0
O1387 O 0.1553 0.33064 0.30563 0.0
C1388 C 0.13952 0.32228 0.34544 0.0
C1389 C 0.23488 0.42442 0.362 0.0
C1390 C 0.24833 0.41772 0.36025 0.0
C1391 C 0.17348 0.3361 0.3759 0.0
C1392 C 0.18088 0.34516 0.38825 0.0
C1393 C 0.1954 0.36494 0.38926 0.0
C1394 C 0.1737 0.33386 0.39911 0.0
C1395 C 0.18111 0.34231 0.41096 0.0
C1396 C 0.20262 0.37344 0.40093 0.0
C1397 C 0.19557 0.36226 0.4117 0.0
C1398 C 0.16433 0.36193 0.32904 0.0
C1399 C 0.20171 0.34341 0.32889 0.0
C1400 C 0.16821 0.32939 0.29858 0.0
C1401 C 0.16107 0.3205 0.28616 0.0
C1402 C 0.1485 0.30028 0.28485 0.0
C1403 C 0.16662 0.33238 0.27551 0.0
C1404 C 0.15954 0.32409 0.26359 0.0
C1405 C 0.14155 0.29196 0.27311 0.0
C1406 C 0.14699 0.30373 0.26255 0.0
C1407 C 0.17654 0.30371 0.34563 0.0
H1408 H 0.20121 0.37381 0.38105 0.0
H1409 H 0.16267 0.31849 0.39832 0.0
H1410 H 0.21377 0.38876 0.40163 0.0
H1411 H 0.20134 0.36931 0.42064 0.0
H1412 H 0.14404 0.29092 0.29287 0.0
H1413 H 0.17615 0.34805 0.27654 0.0
H1414 H 0.1319 0.27632 0.27218 0.0
H1415 H 0.14155 0.29682 0.25353 0.0
Gd1416 Gd 0.65216 0.82919 0.35085 0.0
Gd1417 Gd 0.68416 0.8362 0.32358 0.0
C1418 C 0.73876 0.82876 0.32657 0.0
C1419 C 0.76564 0.86154 0.32219 0.0
C1420 C 0.73136 0.85437 0.3219 0.0
C1421 C 0.72496 0.83525 0.32504 0.0
C1422 C 0.75172 0.86763 0.32007 0.0
C1423 C 0.75916 0.84213 0.32546 0.0
C1424 C 0.73161 0.80894 0.32887 0.0
C1425 C 0.71116 0.79606 0.32909 0.0
N1426 N 0.70513 0.82275 0.32593 0.0
C1427 C 0.69807 0.80319 0.32741 0.0
H1428 H 0.68234 0.79299 0.32768 0.0
C1429 C 0.72279 0.87745 0.3148 0.0
N1430 N 0.7175 0.85965 0.3198 0.0
C1431 C 0.74281 0.89119 0.3129 0.0
C1432 C 0.75738 0.88637 0.31574 0.0
H1433 H 0.71155 0.88124 0.31265 0.0
H1434 H 0.77 0.83747 0.32676 0.0
H1435 H 0.65441 0.87262 0.34786 0.0
H1436 H 0.74171 0.80339 0.33018 0.0
H1437 H 0.70544 0.78064 0.33062 0.0
H1438 H 0.78137 0.87157 0.32098 0.0
H1439 H 0.6242 0.78245 0.35894 0.0
H1440 H 0.5951 0.86256 0.34551 0.0
H1441 H 0.63139 0.88529 0.34551 0.0
H1442 H 0.55499 0.79356 0.35195 0.0
H1443 H 0.74697 0.90547 0.30927 0.0
H1444 H 0.77287 0.89699 0.31421 0.0
H1445 H 0.56666 0.82823 0.34778 0.0
H1446 H 0.58856 0.75789 0.36109 0.0
N1447 N 0.63147 0.84286 0.34891 0.0
C1448 C 0.60514 0.85689 0.34658 0.0
C1449 C 0.62562 0.86976 0.34659 0.0
C1450 C 0.59788 0.83689 0.34821 0.0
C1451 C 0.61161 0.83026 0.34946 0.0
C1452 C 0.63864 0.8625 0.34794 0.0
N1453 N 0.61872 0.80513 0.35342 0.0
C1454 C 0.60502 0.81076 0.35174 0.0
C1455 C 0.59298 0.77269 0.3584 0.0
C1456 C 0.57862 0.77801 0.35609 0.0
C1457 C 0.61311 0.7866 0.35721 0.0
C1458 C 0.58457 0.79732 0.35291 0.0
H1459 H 0.56304 0.76723 0.35707 0.0
O1460 O 0.65287 0.81959 0.36967 0.0
O1461 O 0.67914 0.82976 0.34375 0.0
O1462 O 0.65931 0.8046 0.32583 0.0
O1463 O 0.63404 0.80564 0.33675 0.0
O1464 O 0.66215 0.80763 0.35594 0.0
O1465 O 0.65849 0.84904 0.36645 0.0
O1466 O 0.68176 0.84413 0.30456 0.0
O1467 O 0.65771 0.83644 0.33086 0.0
O1468 O 0.67768 0.86065 0.34973 0.0
O1469 O 0.70219 0.86181 0.33644 0.0
O1470 O 0.67445 0.85793 0.31832 0.0
O1471 O 0.67636 0.81504 0.3086 0.0
C1472 C 0.67841 0.81569 0.34967 0.0
C1473 C 0.57079 0.8037 0.3512 0.0
C1474 C 0.57744 0.82344 0.34884 0.0
C1475 C 0.65616 0.836 0.37471 0.0
C1476 C 0.64413 0.83435 0.38562 0.0
C1477 C 0.62438 0.82997 0.38432 0.0
C1478 C 0.65258 0.83705 0.39755 0.0
C1479 C 0.64139 0.83533 0.40824 0.0
C1480 C 0.61315 0.82821 0.39485 0.0
C1481 C 0.62154 0.83083 0.40675 0.0
C1482 C 0.64036 0.797 0.3289 0.0
C1483 C 0.65859 0.85059 0.32495 0.0
C1484 C 0.67816 0.82738 0.29998 0.0
C1485 C 0.68964 0.82822 0.28897 0.0
C1486 C 0.70904 0.83147 0.2901 0.0
C1487 C 0.68101 0.82579 0.27713 0.0
C1488 C 0.69163 0.82655 0.26636 0.0
C1489 C 0.71971 0.83231 0.27947 0.0
C1490 C 0.7111 0.82986 0.26766 0.0
C1491 C 0.69599 0.8694 0.34518 0.0
H1492 H 0.61766 0.82793 0.37521 0.0
H1493 H 0.66797 0.84073 0.39847 0.0
H1494 H 0.59787 0.82474 0.3938 0.0
H1495 H 0.61242 0.82911 0.41477 0.0
H1496 H 0.71589 0.8333 0.29916 0.0
H1497 H 0.6659 0.82301 0.27633 0.0
H1498 H 0.7347 0.83488 0.28039 0.0
H1499 H 0.71974 0.83075 0.25954 0.0
Gd1500 Gd 0.1601 0.84004 0.32275 0.0
Gd1501 Gd 0.17875 0.82942 0.35169 0.0
C1502 C 0.2387 0.8325 0.35574 0.0
C1503 C 0.22899 0.79838 0.35859 0.0
C1504 C 0.20386 0.80782 0.35584 0.0
C1505 C 0.21852 0.82712 0.35466 0.0
C1506 C 0.2089 0.79324 0.35805 0.0
C1507 C 0.24387 0.81798 0.35747 0.0
C1508 C 0.25305 0.85234 0.35543 0.0
C1509 C 0.24709 0.86625 0.35419 0.0
N1510 N 0.213 0.84077 0.35305 0.0
C1511 C 0.22691 0.86019 0.35311 0.0
H1512 H 0.22257 0.87112 0.35218 0.0
C1513 C 0.1697 0.78497 0.3581 0.0
N1514 N 0.18464 0.80345 0.35552 0.0
C1515 C 0.17393 0.76998 0.36023 0.0
C1516 C 0.19359 0.77406 0.36004 0.0
H1517 H 0.15445 0.78166 0.35825 0.0
H1518 H 0.25931 0.82182 0.35821 0.0
H1519 H 0.11644 0.79793 0.32275 0.0
H1520 H 0.26867 0.85707 0.35646 0.0
H1521 H 0.25798 0.88165 0.35415 0.0
H1522 H 0.23317 0.78738 0.36019 0.0
H1523 H 0.18327 0.88741 0.31539 0.0
H1524 H 0.06963 0.81147 0.32197 0.0
H1525 H 0.08073 0.78711 0.32283 0.0
H1526 H 0.10421 0.88103 0.31701 0.0
H1527 H 0.16202 0.75534 0.36208 0.0
H1528 H 0.19683 0.76244 0.36176 0.0
H1529 H 0.07855 0.84661 0.31992 0.0
H1530 H 0.17506 0.91355 0.31226 0.0
N1531 N 0.12565 0.82821 0.32218 0.0
C1532 C 0.08536 0.81632 0.32193 0.0
C1533 C 0.09157 0.80253 0.32238 0.0
C1534 C 0.09953 0.83617 0.32107 0.0
C1535 C 0.11982 0.84171 0.32113 0.0
C1536 C 0.11187 0.80875 0.32232 0.0
N1537 N 0.15345 0.86556 0.3191 0.0
C1538 C 0.13419 0.86102 0.31954 0.0
C1539 C 0.16343 0.89885 0.31435 0.0
C1540 C 0.14375 0.89459 0.31535 0.0
C1541 C 0.16802 0.88401 0.31609 0.0
C1542 C 0.12879 0.87543 0.31779 0.0
H1543 H 0.14022 0.90609 0.31396 0.0
O1544 O 0.1744 0.84975 0.30481 0.0
O1545 O 0.18499 0.83866 0.33196 0.0
O1546 O 0.1878 0.86155 0.35002 0.0
O1547 O 0.16428 0.86271 0.33703 0.0
O1548 O 0.19278 0.86185 0.32025 0.0
O1549 O 0.14813 0.82118 0.30645 0.0
O1550 O 0.16346 0.82006 0.36934 0.0
O1551 O 0.15405 0.83104 0.34248 0.0
O1552 O 0.15159 0.80799 0.3243 0.0
O1553 O 0.17533 0.80722 0.33729 0.0
O1554 O 0.14608 0.80752 0.3539 0.0
O1555 O 0.19057 0.84805 0.36814 0.0
C1556 C 0.19967 0.85343 0.32731 0.0
C1557 C 0.10866 0.87015 0.31821 0.0
C1558 C 0.09405 0.85055 0.31987 0.0
C1559 C 0.1612 0.83411 0.29895 0.0
C1560 C 0.15364 0.83735 0.28716 0.0
C1561 C 0.13977 0.84374 0.28707 0.0
C1562 C 0.16087 0.83452 0.27583 0.0
C1563 C 0.15442 0.8382 0.26441 0.0
C1564 C 0.13328 0.84741 0.27579 0.0
C1565 C 0.14057 0.84473 0.26451 0.0
C1566 C 0.17809 0.87026 0.34585 0.0
C1567 C 0.1393 0.81623 0.34702 0.0
C1568 C 0.17671 0.83544 0.3754 0.0
C1569 C 0.18308 0.83168 0.38746 0.0
C1570 C 0.19391 0.8219 0.38811 0.0
C1571 C 0.1774 0.83713 0.39849 0.0
C1572 C 0.18214 0.83251 0.41023 0.0
C1573 C 0.19874 0.81731 0.39965 0.0
C1574 C 0.19281 0.82242 0.41063 0.0
C1575 C 0.16148 0.79948 0.3285 0.0
H1576 H 0.134 0.84594 0.29569 0.0
H1577 H 0.17176 0.82977 0.27593 0.0
H1578 H 0.12256 0.85234 0.27577 0.0
H1579 H 0.13517 0.84749 0.25588 0.0
H1580 H 0.1984 0.8176 0.37972 0.0
H1581 H 0.16932 0.84498 0.39786 0.0
H1582 H 0.20692 0.80955 0.40009 0.0
H1583 H 0.19633 0.81813 0.41942 0.0
Gd1584 Gd 0.84239 0.68218 0.68556 0.0
Gd1585 Gd 0.82835 0.65414 0.65578 0.0
C1586 C 0.76845 0.59762 0.65277 0.0
C1587 C 0.77847 0.57321 0.65017 0.0
C1588 C 0.80332 0.60765 0.65183 0.0
C1589 C 0.78861 0.61235 0.65322 0.0
C1590 C 0.79847 0.5881 0.64992 0.0
C1591 C 0.76347 0.57796 0.65161 0.0
C1592 C 0.75394 0.60314 0.65305 0.0
C1593 C 0.75974 0.62296 0.65318 0.0
N1594 N 0.79402 0.6315 0.65414 0.0
C1595 C 0.77996 0.63702 0.65353 0.0
H1596 H 0.78415 0.65224 0.65373 0.0
C1597 C 0.83728 0.61889 0.64822 0.0
N1598 N 0.8224 0.62243 0.65148 0.0
C1599 C 0.83328 0.59972 0.64632 0.0
C1600 C 0.81382 0.58421 0.64738 0.0
H1601 H 0.85236 0.63085 0.6475 0.0
H1602 H 0.74807 0.56641 0.6514 0.0
H1603 H 0.88629 0.6841 0.68828 0.0
H1604 H 0.73828 0.59229 0.65277 0.0
H1605 H 0.74866 0.62742 0.65309 0.0
H1606 H 0.77443 0.55805 0.64887 0.0
H1607 H 0.81681 0.70533 0.69003 0.0
H1608 H 0.93131 0.74351 0.6946 0.0
H1609 H 0.92141 0.70871 0.69188 0.0
H1610 H 0.89448 0.77712 0.69729 0.0
H1611 H 0.8452 0.59693 0.64408 0.0
H1612 H 0.81073 0.56938 0.64585 0.0
H1613 H 0.92105 0.76882 0.69687 0.0
H1614 H 0.82343 0.73887 0.69409 0.0
N1615 N 0.87635 0.70477 0.68835 0.0
C1616 C 0.91585 0.73277 0.69289 0.0
C1617 C 0.91032 0.71315 0.69139 0.0
C1618 C 0.90128 0.73821 0.69259 0.0
C1619 C 0.88139 0.72368 0.69026 0.0
C1620 C 0.89035 0.69923 0.68931 0.0
N1621 N 0.84738 0.71366 0.68929 0.0
C1622 C 0.86644 0.72829 0.6907 0.0
C1623 C 0.83567 0.73611 0.69313 0.0
C1624 C 0.85523 0.75143 0.69429 0.0
C1625 C 0.83197 0.71714 0.69085 0.0
C1626 C 0.8709 0.74758 0.69331 0.0
H1627 H 0.85805 0.76607 0.69623 0.0
O1628 O 0.82541 0.67695 0.70255 0.0
O1629 O 0.81968 0.65614 0.6752 0.0
O1630 O 0.81859 0.67688 0.65697 0.0
O1631 O 0.84053 0.70117 0.67068 0.0
O1632 O 0.80943 0.67101 0.68579 0.0
O1633 O 0.85177 0.67418 0.70257 0.0
O1634 O 0.84434 0.65931 0.63833 0.0
O1635 O 0.85112 0.67957 0.66641 0.0
O1636 O 0.85172 0.65913 0.68533 0.0
O1637 O 0.83372 0.63601 0.66965 0.0
O1638 O 0.86158 0.66591 0.65513 0.0
O1639 O 0.81878 0.6632 0.63931 0.0
C1640 C 0.80414 0.65582 0.67885 0.0
C1641 C 0.89073 0.76221 0.69527 0.0
C1642 C 0.90587 0.7575 0.69501 0.0
C1643 C 0.83746 0.6736 0.7092 0.0
C1644 C 0.84294 0.68299 0.72157 0.0
C1645 C 0.85386 0.70338 0.72275 0.0
C1646 C 0.83675 0.6714 0.73234 0.0
C1647 C 0.84103 0.68015 0.74428 0.0
C1648 C 0.85839 0.71214 0.73454 0.0
C1649 C 0.85196 0.70066 0.74523 0.0
C1650 C 0.82764 0.69509 0.66131 0.0
C1651 C 0.86685 0.6804 0.66272 0.0
C1652 C 0.83229 0.66321 0.63216 0.0
C1653 C 0.82544 0.65361 0.61991 0.0
C1654 C 0.81268 0.63336 0.61906 0.0
C1655 C 0.83146 0.66482 0.60895 0.0
C1656 C 0.82462 0.65584 0.59717 0.0
C1657 C 0.80601 0.62436 0.60745 0.0
C1658 C 0.81188 0.63546 0.59658 0.0
C1659 C 0.84486 0.64181 0.67987 0.0
H1660 H 0.8588 0.71251 0.71459 0.0
H1661 H 0.82827 0.65564 0.73142 0.0
H1662 H 0.86683 0.72791 0.73539 0.0
H1663 H 0.8557 0.70783 0.75427 0.0
H1664 H 0.80784 0.62454 0.62737 0.0
H1665 H 0.84113 0.68051 0.60963 0.0
H1666 H 0.79621 0.6087 0.60686 0.0
H1667 H 0.80658 0.62804 0.58769 0.0
Gd1668 Gd 0.31833 0.16249 0.6869 0.0
Gd1669 Gd 0.35012 0.17255 0.65925 0.0
C1670 C 0.40717 0.16934 0.66092 0.0
C1671 C 0.43258 0.20339 0.65842 0.0
C1672 C 0.39763 0.19388 0.65796 0.0
C1673 C 0.3924 0.17467 0.65994 0.0
C1674 C 0.41775 0.20843 0.65689 0.0
C1675 C 0.4273 0.18387 0.66045 0.0
C1676 C 0.40125 0.14954 0.66206 0.0
C1677 C 0.38105 0.13561 0.66177 0.0
N1678 N 0.37282 0.16105 0.66032 0.0
C1679 C 0.36696 0.14163 0.66072 0.0
H1680 H 0.35142 0.1307 0.66061 0.0
C1681 C 0.3872 0.2165 0.65302 0.0
N1682 N 0.38291 0.19817 0.65647 0.0
C1683 C 0.40693 0.23145 0.65188 0.0
C1684 C 0.42231 0.22748 0.654 0.0
H1685 H 0.37538 0.2197 0.65149 0.0
H1686 H 0.43887 0.18009 0.66134 0.0
H1687 H 0.31544 0.20328 0.68623 0.0
H1688 H 0.41212 0.14484 0.6629 0.0
H1689 H 0.3763 0.12023 0.66242 0.0
H1690 H 0.44815 0.21438 0.65776 0.0
H1691 H 0.29475 0.1147 0.69359 0.0
H1692 H 0.25416 0.18713 0.68693 0.0
H1693 H 0.28967 0.2127 0.68625 0.0
H1694 H 0.22033 0.11758 0.69053 0.0
H1695 H 0.41024 0.24598 0.64934 0.0
H1696 H 0.43758 0.2391 0.65309 0.0
H1697 H 0.22834 0.1517 0.688 0.0
H1698 H 0.26045 0.08764 0.69614 0.0
N1699 N 0.29477 0.17276 0.68653 0.0
C1700 C 0.26543 0.183 0.68674 0.0
C1701 C 0.28543 0.19743 0.68644 0.0
C1702 C 0.26016 0.16333 0.68725 0.0
C1703 C 0.2754 0.15862 0.68729 0.0
C1704 C 0.30001 0.19202 0.68646 0.0
N1705 N 0.28611 0.13578 0.68961 0.0
C1706 C 0.2709 0.1395 0.6888 0.0
C1707 C 0.26314 0.10209 0.69395 0.0
C1708 C 0.24726 0.1055 0.69258 0.0
C1709 C 0.28259 0.11751 0.69257 0.0
C1710 C 0.25104 0.12446 0.6902 0.0
H1711 H 0.2322 0.09353 0.69372 0.0
O1712 O 0.32185 0.1536 0.70538 0.0
O1713 O 0.34548 0.16423 0.67912 0.0
O1714 O 0.32624 0.14044 0.66088 0.0
O1715 O 0.30054 0.14021 0.6721 0.0
O1716 O 0.32937 0.14141 0.69096 0.0
O1717 O 0.32388 0.18176 0.70278 0.0
O1718 O 0.34813 0.18185 0.64056 0.0
O1719 O 0.32326 0.17146 0.66712 0.0
O1720 O 0.34197 0.19481 0.68542 0.0
O1721 O 0.36759 0.19559 0.6737 0.0
O1722 O 0.33944 0.19393 0.65507 0.0
O1723 O 0.34294 0.15255 0.64363 0.0
C1724 C 0.34527 0.14993 0.68441 0.0
C1725 C 0.2357 0.12894 0.68958 0.0
C1726 C 0.24026 0.14836 0.68813 0.0
C1727 C 0.32365 0.16924 0.71076 0.0
C1728 C 0.31186 0.16598 0.72205 0.0
C1729 C 0.29117 0.1577 0.72139 0.0
C1730 C 0.32141 0.17054 0.7337 0.0
C1731 C 0.31035 0.16657 0.74471 0.0
C1732 C 0.28011 0.15379 0.73229 0.0
C1733 C 0.2896 0.15809 0.74391 0.0
C1734 C 0.30727 0.13219 0.66406 0.0
C1735 C 0.32372 0.1859 0.66182 0.0
C1736 C 0.34474 0.16547 0.63544 0.0
C1737 C 0.35638 0.16714 0.62432 0.0
C1738 C 0.37643 0.17241 0.62528 0.0
C1739 C 0.34722 0.16342 0.61256 0.0
C1740 C 0.35798 0.16488 0.60171 0.0
C1741 C 0.38723 0.17392 0.61458 0.0
C1742 C 0.3781 0.17018 0.60285 0.0
C1743 C 0.36083 0.20342 0.68187 0.0
H1744 H 0.28358 0.15413 0.71251 0.0
H1745 H 0.33739 0.17676 0.73421 0.0
H1746 H 0.26414 0.14735 0.73173 0.0
H1747 H 0.28077 0.15499 0.75226 0.0
H1748 H 0.38371 0.17532 0.63427 0.0
H1749 H 0.33163 0.15912 0.61189 0.0
H1750 H 0.40273 0.17803 0.61536 0.0
H1751 H 0.38686 0.17166 0.59468 0.0
Gd1752 Gd 0.82604 0.17348 0.65583 0.0
Gd1753 Gd 0.84537 0.16317 0.6848 0.0
C1754 C 0.90587 0.16697 0.68661 0.0
C1755 C 0.89666 0.13295 0.68934 0.0
C1756 C 0.87118 0.14213 0.68796 0.0
C1757 C 0.88559 0.16147 0.68647 0.0
C1758 C 0.87652 0.12768 0.68967 0.0
C1759 C 0.91131 0.15256 0.6878 0.0
C1760 C 0.92007 0.18682 0.68579 0.0
C1761 C 0.9139 0.20064 0.68526 0.0
N1762 N 0.87981 0.175 0.68537 0.0
C1763 C 0.8936 0.19445 0.68523 0.0
H1764 H 0.88907 0.2053 0.68475 0.0
C1765 C 0.83728 0.1191 0.69116 0.0
N1766 N 0.85191 0.13758 0.68829 0.0
C1767 C 0.84183 0.10424 0.69289 0.0
C1768 C 0.86151 0.10848 0.69197 0.0
H1769 H 0.82203 0.11573 0.69179 0.0
H1770 H 0.9268 0.15648 0.68781 0.0
H1771 H 0.78196 0.13171 0.65702 0.0
H1772 H 0.9358 0.19165 0.6858 0.0
H1773 H 0.92476 0.21605 0.68482 0.0
H1774 H 0.90107 0.12204 0.69053 0.0
H1775 H 0.84854 0.21937 0.64565 0.0
H1776 H 0.73579 0.14613 0.65738 0.0
H1777 H 0.74646 0.12144 0.65811 0.0
H1778 H 0.77078 0.21525 0.65032 0.0
H1779 H 0.83016 0.08956 0.69494 0.0
H1780 H 0.86499 0.09694 0.69333 0.0
H1781 H 0.74505 0.1813 0.65469 0.0
H1782 H 0.84064 0.24562 0.64197 0.0
N1783 N 0.79158 0.16207 0.65599 0.0
C1784 C 0.75144 0.15075 0.65686 0.0
C1785 C 0.75741 0.13677 0.65725 0.0
C1786 C 0.76572 0.17045 0.65541 0.0
C1787 C 0.7859 0.17566 0.65487 0.0
C1788 C 0.77762 0.14269 0.65661 0.0
N1789 N 0.8193 0.19872 0.65134 0.0
C1790 C 0.80028 0.19467 0.6525 0.0
C1791 C 0.82916 0.23139 0.64501 0.0
C1792 C 0.80985 0.22778 0.64692 0.0
C1793 C 0.83357 0.2165 0.64708 0.0
C1794 C 0.79502 0.20912 0.65048 0.0
H1795 H 0.80643 0.23929 0.64523 0.0
O1796 O 0.84046 0.18149 0.63781 0.0
O1797 O 0.85085 0.17196 0.66499 0.0
O1798 O 0.85397 0.19515 0.68367 0.0
O1799 O 0.83317 0.19835 0.66905 0.0
O1800 O 0.85867 0.19482 0.65294 0.0
O1801 O 0.81318 0.15396 0.63988 0.0
O1802 O 0.8315 0.15283 0.70281 0.0
O1803 O 0.82085 0.16538 0.67581 0.0
O1804 O 0.81684 0.14135 0.65797 0.0
O1805 O 0.8411 0.14066 0.67042 0.0
O1806 O 0.81263 0.14205 0.6875 0.0
O1807 O 0.85695 0.182 0.70111 0.0
C1808 C 0.8655 0.18647 0.66011 0.0
C1809 C 0.77509 0.20429 0.65166 0.0
C1810 C 0.76045 0.18497 0.65413 0.0
C1811 C 0.82669 0.16593 0.6322 0.0
C1812 C 0.81969 0.16916 0.62019 0.0
C1813 C 0.80664 0.17654 0.6197 0.0
C1814 C 0.82671 0.16541 0.60907 0.0
C1815 C 0.82093 0.16923 0.59744 0.0
C1816 C 0.80079 0.18031 0.60821 0.0
C1817 C 0.80792 0.17676 0.59715 0.0
C1818 C 0.84596 0.20485 0.6785 0.0
C1819 C 0.80608 0.15105 0.68071 0.0
C1820 C 0.84426 0.16876 0.70864 0.0
C1821 C 0.85231 0.16616 0.72043 0.0
C1822 C 0.86715 0.16103 0.72051 0.0
C1823 C 0.84509 0.16899 0.73177 0.0
C1824 C 0.85282 0.16695 0.7432 0.0
C1825 C 0.87478 0.15883 0.7318 0.0
C1826 C 0.86774 0.16181 0.74308 0.0
C1827 C 0.82691 0.13288 0.66185 0.0
H1828 H 0.80105 0.17946 0.62817 0.0
H1829 H 0.83697 0.15989 0.60948 0.0
H1830 H 0.79072 0.18602 0.60788 0.0
H1831 H 0.80305 0.17967 0.58835 0.0
H1832 H 0.87288 0.15881 0.71188 0.0
H1833 H 0.83376 0.17316 0.73168 0.0
H1834 H 0.88623 0.15485 0.73181 0.0
H1835 H 0.87385 0.15995 0.75171 0.0
H1836 H 0.31738 0.83844 0.05728 0.0
H1837 H 0.34615 0.86033 0.04467 0.0
H1838 H 0.339 0.90904 0.05557 0.0
H1839 H 0.31011 0.88721 0.06807 0.0
H1840 H 0.34592 0.9088 0.03039 0.0
H1841 H 0.3741 0.90286 0.06911 0.0
H1842 H 0.37968 0.88513 0.08605 0.0
H1843 H 0.40266 0.86041 0.05978 0.0
H1844 H 0.39696 0.87781 0.04265 0.0
H1845 H 0.4384 0.99135 0.01768 0.0
H1846 H 0.40685 0.96482 0.02493 0.0
H1847 H 0.42724 0.92385 0.0181 0.0
H1848 H 0.45963 0.95091 0.01183 0.0
H1849 H 0.41238 0.9172 0.03941 0.0
H1850 H 0.38418 0.92272 1.00054 0.0
H1851 H 0.37806 0.93991 0.9834 0.0
H1852 H 0.35525 0.96496 0.00953 0.0
H1853 H 0.36104 0.94775 0.02675 0.0
C1854 C 0.32185 0.85379 0.05691 0.0
C1855 C 0.31151 0.86111 0.06371 0.0
C1856 C 0.33836 0.86629 0.04977 0.0
C1857 C 0.3448 0.88634 0.04925 0.0
C1858 C 0.33431 0.89363 0.05585 0.0
C1859 C 0.3179 0.88117 0.06307 0.0
C1860 C 0.36259 0.89982 0.04193 0.0
C1861 C 0.36049 0.91073 0.03238 0.0
C1862 C 0.38148 0.90194 0.0443 0.0
C1863 C 0.38487 0.89144 0.05458 0.0
C1864 C 0.38016 0.8935 0.06693 0.0
C1865 C 0.38339 0.88354 0.07657 0.0
C1866 C 0.39146 0.8716 0.07399 0.0
C1867 C 0.39637 0.86963 0.06176 0.0
C1868 C 0.39315 0.87954 0.05209 0.0
C1869 C 0.43599 0.97661 0.01749 0.0
C1870 C 0.45135 0.97315 0.014 0.0
C1871 C 0.41779 0.96134 0.0215 0.0
C1872 C 0.41429 0.94209 0.02186 0.0
C1873 C 0.42943 0.9385 0.01788 0.0
C1874 C 0.44789 0.95393 0.01415 0.0
C1875 C 0.39587 0.92636 0.02776 0.0
C1876 C 0.39781 0.91506 0.03715 0.0
C1877 C 0.37679 0.9238 0.0252 0.0
C1878 C 0.37325 0.93414 0.0149 0.0
C1879 C 0.378 0.93202 0.0026 0.0
C1880 C 0.37451 0.94169 0.99288 0.0
C1881 C 0.36643 0.95364 0.99539 0.0
C1882 C 0.36157 0.95575 0.0076 0.0
C1883 C 0.36483 0.94595 0.01733 0.0
H1884 H 0.36385 0.9612 0.98787 0.0
H1885 H 0.39395 0.86391 0.08146 0.0
H1886 H 0.15242 0.4482 0.04298 0.0
H1887 H 0.12654 0.4536 0.0341 0.0
H1888 H 0.12668 0.48388 0.0677 0.0
H1889 H 0.15233 0.47824 0.07668 0.0
H1890 H 0.09043 0.46089 0.06102 0.0
H1891 H 0.14838 0.508 0.03986 0.0
H1892 H 0.17871 0.52039 0.02726 0.0
H1893 H 0.14427 0.48439 0.99641 0.0
H1894 H 0.11376 0.47154 0.00889 0.0
H1895 H 0.0487 0.51172 0.01936 0.0
H1896 H 0.07705 0.50926 0.02707 0.0
H1897 H 0.03951 0.44687 0.03043 0.0
H1898 H 0.01119 0.44923 0.02242 0.0
H1899 H 0.09561 0.4888 0.01895 0.0
H1900 H 0.05216 0.43438 0.05867 0.0
H1901 H 0.02361 0.42612 0.07234 0.0
H1902 H 0.03222 0.48379 0.06779 0.0
H1903 H 0.06102 0.49251 0.0543 0.0
C1904 C 0.14706 0.45615 0.04843 0.0
C1905 C 0.15448 0.4628 0.06054 0.0
C1906 C 0.13226 0.45927 0.04334 0.0
C1907 C 0.12475 0.46938 0.05015 0.0
C1908 C 0.13215 0.47601 0.06225 0.0
C1909 C 0.14681 0.47275 0.06739 0.0
C1910 C 0.10888 0.47264 0.04482 0.0
C1911 C 0.09162 0.46697 0.05181 0.0
C1912 C 0.11048 0.48098 0.0329 0.0
C1913 C 0.12881 0.48864 0.02537 0.0
C1914 C 0.1473 0.50259 0.03043 0.0
C1915 C 0.16452 0.50972 0.0233 0.0
C1916 C 0.16343 0.50314 0.01106 0.0
C1917 C 0.1451 0.48944 0.0059 0.0
C1918 C 0.12783 0.48224 0.013 0.0
C1919 C 0.0466 0.49743 0.02143 0.0
C1920 C 0.02785 0.48059 0.01999 0.0
C1921 C 0.06279 0.49606 0.02591 0.0
C1922 C 0.06038 0.4779 0.02937 0.0
C1923 C 0.04168 0.46105 0.02786 0.0
C1924 C 0.02556 0.4624 0.02327 0.0
C1925 C 0.07714 0.4766 0.03504 0.0
C1926 C 0.0945 0.48265 0.02813 0.0
C1927 C 0.07588 0.4691 0.04717 0.0
C1928 C 0.0586 0.464 0.05533 0.0
C1929 C 0.04799 0.44531 0.06061 0.0
C1930 C 0.03177 0.44055 0.06833 0.0
C1931 C 0.02605 0.45439 0.07087 0.0
C1932 C 0.03659 0.47305 0.06575 0.0
C1933 C 0.05286 0.4779 0.05806 0.0
H1934 H 0.0135 0.45068 0.07686 0.0
H1935 H 0.17678 0.50868 0.00555 0.0
H1936 H 0.53138 0.7016 0.04904 0.0
H1937 H 0.5241 0.67057 0.03943 0.0
H1938 H 0.57927 0.67785 0.05391 0.0
H1939 H 0.58687 0.70914 0.06333 0.0
H1940 H 0.57233 0.66463 0.0296 0.0
H1941 H 0.53724 0.64821 0.06839 0.0
H1942 H 0.51442 0.64854 0.08415 0.0
H1943 H 0.4662 0.62247 0.05777 0.0
H1944 H 0.48881 0.62225 0.04179 0.0
H1945 H 0.55005 0.56581 0.02394 0.0
H1946 H 0.55891 0.5984 0.03159 0.0
H1947 H 0.50319 0.5905 0.01762 0.0
H1948 H 0.49398 0.55771 0.01032 0.0
H1949 H 0.51057 0.60425 0.0414 0.0
H1950 H 0.5455 0.61981 0.00271 0.0
H1951 H 0.56825 0.619 0.9871 0.0
H1952 H 0.61669 0.64632 0.01326 0.0
H1953 H 0.59414 0.64701 0.02911 0.0
C1954 C 0.54208 0.69671 0.05004 0.0
C1955 C 0.55966 0.70775 0.05697 0.0
C1956 C 0.53783 0.67893 0.04463 0.0
C1957 C 0.55106 0.67185 0.04608 0.0
C1958 C 0.56886 0.68305 0.05272 0.0
C1959 C 0.57309 0.70082 0.05817 0.0
C1960 C 0.54607 0.65251 0.04092 0.0
C1961 C 0.55895 0.65138 0.03227 0.0
C1962 C 0.52841 0.63532 0.04425 0.0
C1963 C 0.51477 0.63541 0.05385 0.0
C1964 C 0.52181 0.64271 0.06591 0.0
C1965 C 0.5089 0.64285 0.07489 0.0
C1966 C 0.48888 0.63558 0.07195 0.0
C1967 C 0.48172 0.62812 0.06003 0.0
C1968 C 0.49457 0.62797 0.05101 0.0
C1969 C 0.53967 0.571 0.02254 0.0
C1970 C 0.52128 0.55918 0.01661 0.0
C1971 C 0.54482 0.58968 0.02681 0.0
C1972 C 0.53174 0.59688 0.0251 0.0
C1973 C 0.51349 0.58519 0.01903 0.0
C1974 C 0.50832 0.56653 0.01478 0.0
C1975 C 0.53678 0.61635 0.03003 0.0
C1976 C 0.52391 0.61749 0.03868 0.0
C1977 C 0.55445 0.63352 0.02669 0.0
C1978 C 0.56809 0.6333 0.01714 0.0
C1979 C 0.56097 0.62551 0.00517 0.0
C1980 C 0.57383 0.62509 0.99628 0.0
C1981 C 0.5939 0.63257 0.9992 0.0
C1982 C 0.60114 0.64052 0.01102 0.0
C1983 C 0.58833 0.64094 0.01996 0.0
H1984 H 0.60384 0.63223 0.9923 0.0
H1985 H 0.47891 0.63569 0.07892 0.0
H1986 H 0.82319 0.30657 0.95515 0.0
H1987 H 0.84815 0.33787 0.96413 0.0
H1988 H 0.89477 0.32989 0.94869 0.0
H1989 H 0.86986 0.29829 0.93992 0.0
H1990 H 0.90297 0.34323 0.9727 0.0
H1991 H 0.8824 0.3605 0.93499 0.0
H1992 H 0.85845 0.36062 0.9199 0.0
H1993 H 0.83849 0.38641 0.94743 0.0
H1994 H 0.86213 0.38619 0.96276 0.0
H1995 H 0.98067 0.44171 0.98162 0.0
H1996 H 0.95682 0.41037 0.97207 0.0
H1997 H 0.90839 0.41589 0.98695 0.0
H1998 H 0.93203 0.44731 0.99633 0.0
H1999 H 0.90183 0.40392 0.96273 0.0
H2000 H 0.92181 0.38618 1.00054 0.0
H2001 H 0.94583 0.38637 0.01569 0.0
H2002 H 0.96683 0.36158 0.98812 0.0
H2003 H 0.94313 0.36154 0.97273 0.0
C2004 C 0.83876 0.31137 0.95376 0.0
C2005 C 0.84454 0.29994 0.9468 0.0
C2006 C 0.853 0.32935 0.95881 0.0
C2007 C 0.87333 0.33632 0.95696 0.0
C2008 C 0.87917 0.32483 0.95019 0.0
C2009 C 0.86492 0.30685 0.9451 0.0
C2010 C 0.88844 0.35564 0.96209 0.0
C2011 C 0.90291 0.35655 0.97038 0.0
C2012 C 0.88811 0.37295 0.95926 0.0
C2013 C 0.87391 0.37315 0.95006 0.0
C2014 C 0.87279 0.36605 0.93786 0.0
C2015 C 0.85929 0.36616 0.92926 0.0
C2016 C 0.84692 0.37347 0.93271 0.0
C2017 C 0.84806 0.38073 0.94477 0.0
C2018 C 0.86152 0.38063 0.95342 0.0
C2019 C 0.96495 0.43628 0.98285 0.0
C2020 C 0.95828 0.44694 0.98985 0.0
C2021 C 0.95134 0.41833 0.97742 0.0
C2022 C 0.93083 0.41071 0.97891 0.0
C2023 C 0.92414 0.42147 0.98571 0.0
C2024 C 0.93771 0.43938 0.99115 0.0
C2025 C 0.91628 0.39149 0.97339 0.0
C2026 C 0.90193 0.39061 0.96502 0.0
C2027 C 0.91671 0.37421 0.97617 0.0
C2028 C 0.93084 0.37404 0.98544 0.0
C2029 C 0.93166 0.38091 0.99767 0.0
C2030 C 0.9452 0.38097 0.00631 0.0
C2031 C 0.95789 0.37404 0.00286 0.0
C2032 C 0.95702 0.36697 0.99077 0.0
C2033 C 0.94352 0.36692 0.98209 0.0
H2034 H 0.96837 0.3741 0.00956 0.0
H2035 H 0.83648 0.37354 0.92604 0.0
H2036 H 0.68053 0.54065 0.93133 0.0
H2037 H 0.6516 0.53774 0.94162 0.0
H2038 H 0.6725 0.52793 0.97665 0.0
H2039 H 0.70293 0.53398 0.96695 0.0
H2040 H 0.6221 0.51317 0.95125 0.0
H2041 H 0.65421 0.5374 1.00168 0.0
H2042 H 0.68579 0.56085 0.01196 0.0
H2043 H 0.70407 0.59599 0.97899 0.0
H2044 H 0.6725 0.57289 0.96857 0.0
H2045 H 0.53876 0.48678 0.98822 0.0
H2046 H 0.56997 0.49027 0.98051 0.0
H2047 H 0.6 0.55174 0.98991 0.0
H2048 H 0.56911 0.54775 0.99853 0.0
H2049 H 0.62494 0.54175 0.99296 0.0
H2050 H 0.58139 0.53184 0.95939 0.0
H2051 H 0.5503 0.51568 0.94712 0.0
H2052 H 0.55664 0.46511 0.94225 0.0
H2053 H 0.5876 0.48083 0.95472 0.0
C2054 C 0.67957 0.5386 0.94131 0.0
C2055 C 0.69475 0.53787 0.94815 0.0
C2056 C 0.66255 0.53649 0.94719 0.0
C2057 C 0.65972 0.53292 0.96006 0.0
C2058 C 0.67438 0.53135 0.96683 0.0
C2059 C 0.6918 0.53432 0.96107 0.0
C2060 C 0.64142 0.53062 0.96632 0.0
C2061 C 0.62286 0.51954 0.96035 0.0
C2062 C 0.64208 0.53927 0.97809 0.0
C2063 C 0.66108 0.55328 0.98431 0.0
C2064 C 0.66494 0.55016 0.99664 0.0
C2065 C 0.68285 0.56339 0.00249 0.0
C2066 C 0.69696 0.57986 0.99612 0.0
C2067 C 0.69316 0.58319 0.9839 0.0
C2068 C 0.67528 0.57002 0.97801 0.0
C2069 C 0.55225 0.50083 0.98905 0.0
C2070 C 0.55178 0.51686 0.99435 0.0
C2071 C 0.57003 0.50294 0.98442 0.0
C2072 C 0.58743 0.5214 0.98432 0.0
C2073 C 0.58695 0.53731 0.98989 0.0
C2074 C 0.5693 0.53506 0.99482 0.0
C2075 C 0.60578 0.52438 0.97787 0.0
C2076 C 0.62429 0.53549 0.98384 0.0
C2077 C 0.60522 0.51692 0.96573 0.0
C2078 C 0.58672 0.50744 0.9581 0.0
C2079 C 0.5761 0.51722 0.95576 0.0
C2080 C 0.55849 0.50814 0.94877 0.0
C2081 C 0.55148 0.48937 0.94391 0.0
C2082 C 0.56208 0.47965 0.94603 0.0
C2083 C 0.57966 0.48863 0.95307 0.0
H2084 H 0.53785 0.48237 0.9385 0.0
H2085 H 0.71081 0.59008 1.00066 0.0
H2086 H 0.42316 0.13847 0.95981 0.0
H2087 H 0.4337 0.11828 0.97111 0.0
H2088 H 0.4667 0.1179 0.939 0.0
H2089 H 0.45641 0.13825 0.92771 0.0
H2090 H 0.42819 0.08175 0.9661 0.0
H2091 H 0.51021 0.12179 0.94957 0.0
H2092 H 0.53597 0.15497 0.94349 0.0
H2093 H 0.50763 0.17961 0.96534 0.0
H2094 H 0.4819 0.14663 0.9717 0.0
H2095 H 0.46917 0.02166 0.97534 0.0
H2096 H 0.45932 0.04383 0.96657 0.0
H2097 H 0.49745 0.08859 0.99289 0.0
H2098 H 0.50847 0.06682 1.00121 0.0
H2099 H 0.49996 0.10434 0.97141 0.0
H2100 H 0.44571 0.0603 0.99682 0.0
H2101 H 0.42038 0.0279 0.0044 0.0
H2102 H 0.39303 0.01326 0.96812 0.0
H2103 H 0.41837 0.04546 0.96027 0.0
C2104 C 0.43269 0.1341 0.95518 0.0
C2105 C 0.43901 0.13996 0.9429 0.0
C2106 C 0.43859 0.12249 0.96161 0.0
C2107 C 0.45111 0.11677 0.95592 0.0
C2108 C 0.45719 0.12234 0.94359 0.0
C2109 C 0.45118 0.13382 0.93713 0.0
C2110 C 0.45802 0.1051 0.96287 0.0
C2111 C 0.44387 0.08668 0.96731 0.0
C2112 C 0.47847 0.11178 0.96468 0.0
C2113 C 0.49402 0.13171 0.961 0.0
C2114 C 0.50952 0.13429 0.95311 0.0
C2115 C 0.52411 0.15307 0.94961 0.0
C2116 C 0.5234 0.16938 0.95399 0.0
C2117 C 0.50812 0.16696 0.96191 0.0
C2118 C 0.49352 0.14823 0.96545 0.0
C2119 C 0.47555 0.03621 0.9793 0.0
C2120 C 0.48925 0.04225 0.98926 0.0
C2121 C 0.46976 0.04885 0.9743 0.0
C2122 C 0.47716 0.06768 0.97932 0.0
C2123 C 0.49132 0.07402 0.98899 0.0
C2124 C 0.49743 0.06146 0.99384 0.0
C2125 C 0.47015 0.0807 0.97437 0.0
C2126 C 0.48427 0.09941 0.9703 0.0
C2127 C 0.44965 0.07444 0.97315 0.0
C2128 C 0.43402 0.05527 0.97794 0.0
C2129 C 0.43433 0.05015 0.99045 0.0
C2130 C 0.41998 0.03181 0.99479 0.0
C2131 C 0.40513 0.01852 0.98674 0.0
C2132 C 0.40455 0.02357 0.97435 0.0
C2133 C 0.41888 0.04188 0.96995 0.0
H2134 H 0.39406 0.00431 0.99011 0.0
H2135 H 0.5347 0.18391 0.95127 0.0
H2136 H 0.66923 0.13616 0.92622 0.0
H2137 H 0.63981 0.11433 0.93828 0.0
H2138 H 0.67705 0.12157 0.97013 0.0
H2139 H 0.70646 0.14369 0.95816 0.0
H2140 H 0.62807 0.08069 0.94789 0.0
H2141 H 0.65216 0.11645 0.99715 0.0
H2142 H 0.67248 0.14924 0.0065 0.0
H2143 H 0.66364 0.17527 0.97385 0.0
H2144 H 0.64304 0.14264 0.96438 0.0
H2145 H 0.56774 0.01216 0.9913 0.0
H2146 H 0.59843 0.0391 0.98292 0.0
H2147 H 0.57337 0.07693 0.98508 0.0
H2148 H 0.5426 0.04996 0.99344 0.0
H2149 H 0.61443 0.0967 0.99018 0.0
H2150 H 0.56873 0.05514 0.95902 0.0
H2151 H 0.54571 0.02352 0.94907 0.0
H2152 H 0.59369 0.01215 0.9436 0.0
H2153 H 0.61696 0.04357 0.95375 0.0
C2154 C 0.67114 0.13306 0.93579 0.0
C2155 C 0.69017 0.14166 0.94124 0.0
C2156 C 0.65431 0.12062 0.94269 0.0
C2157 C 0.65612 0.11643 0.95518 0.0
C2158 C 0.67516 0.12488 0.96061 0.0
C2159 C 0.69198 0.13749 0.95375 0.0
C2160 C 0.63818 0.10269 0.96236 0.0
C2161 C 0.62517 0.08427 0.95712 0.0
C2162 C 0.63402 0.1074 0.97434 0.0
C2163 C 0.64624 0.12709 0.98 0.0
C2164 C 0.6545 0.12916 0.99198 0.0
C2165 C 0.66607 0.14773 0.9973 0.0
C2166 C 0.6694 0.16433 0.99075 0.0
C2167 C 0.66111 0.1624 0.97889 0.0
C2168 C 0.64951 0.14388 0.97354 0.0
C2169 C 0.569 0.02638 0.99028 0.0
C2170 C 0.55288 0.02902 0.99305 0.0
C2171 C 0.58649 0.04172 0.98549 0.0
C2172 C 0.58805 0.05991 0.98322 0.0
C2173 C 0.57247 0.063 0.98677 0.0
C2174 C 0.55491 0.0476 0.99157 0.0
C2175 C 0.60485 0.07473 0.97579 0.0
C2176 C 0.61752 0.09325 0.98095 0.0
C2177 C 0.60841 0.07039 0.96358 0.0
C2178 C 0.59456 0.05164 0.95725 0.0
C2179 C 0.57435 0.04584 0.95577 0.0
C2180 C 0.56126 0.02795 0.95009 0.0
C2181 C 0.56822 0.01581 0.94572 0.0
C2182 C 0.58831 0.02156 0.947 0.0
C2183 C 0.60147 0.03942 0.95272 0.0
H2184 H 0.55805 0.00197 0.94132 0.0
H2185 H 0.67838 0.17869 0.99489 0.0
H2186 H 0.88149 0.56647 0.93188 0.0
H2187 H 0.90519 0.56098 0.94362 0.0
H2188 H 0.85692 0.51168 0.96177 0.0
H2189 H 0.83298 0.51654 0.94972 0.0
H2190 H 0.88657 0.53764 0.97825 0.0
H2191 H 0.88196 0.50386 0.93984 0.0
H2192 H 0.88334 0.50051 0.91706 0.0
H2193 H 0.94448 0.54606 0.91716 0.0
H2194 H 0.94337 0.54993 0.93992 0.0
H2195 H 0.94961 0.49192 0.9934 0.0
H2196 H 0.92265 0.49666 0.9855 0.0
H2197 H 0.96392 0.55813 0.98121 0.0
H2198 H 0.99067 0.55366 0.98972 0.0
H2199 H 0.93681 0.52527 0.95849 0.0
H2200 H 0.94121 0.56266 0.99537 0.0
H2201 H 0.93936 0.57132 0.0172 0.0
H2202 H 0.8796 0.52328 0.0195 0.0
H2203 H 0.88134 0.51399 0.99776 0.0
C2204 C 0.8758 0.55422 0.93818 0.0
C2205 C 0.85518 0.54191 0.93975 0.0
C2206 C 0.88944 0.55117 0.94495 0.0
C2207 C 0.88285 0.53583 0.95351 0.0
C2208 C 0.86235 0.52362 0.95521 0.0
C2209 C 0.84867 0.52653 0.94835 0.0
C2210 C 0.89737 0.5329 0.96094 0.0
C2211 C 0.89735 0.5346 0.97396 0.0
C2212 C 0.91185 0.52959 0.95528 0.0
C2213 C 0.91251 0.52732 0.94158 0.0
C2214 C 0.89564 0.5133 0.93499 0.0
C2215 C 0.89639 0.51129 0.92209 0.0
C2216 C 0.91397 0.5231 0.91567 0.0
C2217 C 0.93086 0.53694 0.92215 0.0
C2218 C 0.93018 0.53905 0.93505 0.0
C2219 C 0.95275 0.50657 0.9913 0.0
C2220 C 0.97218 0.52252 0.99252 0.0
C2221 C 0.93734 0.50926 0.98674 0.0
C2222 C 0.94115 0.52785 0.98305 0.0
C2223 C 0.96049 0.54378 0.98436 0.0
C2224 C 0.97578 0.54117 0.98914 0.0
C2225 C 0.92601 0.53002 0.97584 0.0
C2226 C 0.92589 0.5281 0.96281 0.0
C2227 C 0.91164 0.5335 0.98148 0.0
C2228 C 0.91162 0.53731 0.99502 0.0
C2229 C 0.92792 0.55354 1.00064 0.0
C2230 C 0.92679 0.55873 0.01296 0.0
C2231 C 0.90936 0.54789 0.01974 0.0
C2232 C 0.89309 0.53169 0.01425 0.0
C2233 C 0.8942 0.52638 1.00195 0.0
H2234 H 0.90849 0.552 0.02925 0.0
H2235 H 0.91452 0.52151 0.90568 0.0
H2236 H 0.44915 0.31097 0.93782 0.0
H2237 H 0.45756 0.34186 0.94789 0.0
H2238 H 0.43846 0.31272 0.98325 0.0
H2239 H 0.4288 0.28146 0.97308 0.0
H2240 H 0.42719 0.33863 0.98143 0.0
H2241 H 0.48831 0.33975 0.97557 0.0
H2242 H 0.51416 0.33673 0.96421 0.0
H2243 H 0.52292 0.38351 0.94006 0.0
H2244 H 0.4969 0.38662 0.95116 0.0
H2245 H 0.48597 0.43269 0.01424 0.0
H2246 H 0.47577 0.39949 0.00669 0.0
H2247 H 0.46835 0.4157 0.9696 0.0
H2248 H 0.47784 0.44851 0.97707 0.0
H2249 H 0.49413 0.39585 0.97438 0.0
H2250 H 0.42976 0.3916 0.98025 0.0
H2251 H 0.40501 0.39455 0.99294 0.0
H2252 H 0.40437 0.35322 0.01904 0.0
H2253 H 0.42942 0.3503 0.00659 0.0
C2254 C 0.44636 0.311 0.94769 0.0
C2255 C 0.43837 0.29367 0.95463 0.0
C2256 C 0.45146 0.32877 0.95349 0.0
C2257 C 0.44907 0.32971 0.96639 0.0
C2258 C 0.44061 0.31239 0.9733 0.0
C2259 C 0.43528 0.29455 0.96749 0.0
C2260 C 0.45556 0.34881 0.97262 0.0
C2261 C 0.44193 0.35103 0.98002 0.0
C2262 C 0.47481 0.36507 0.97083 0.0
C2263 C 0.49052 0.3633 0.96413 0.0
C2264 C 0.49564 0.3493 0.96778 0.0
C2265 C 0.51034 0.34758 0.96139 0.0
C2266 C 0.52014 0.35989 0.9514 0.0
C2267 C 0.51529 0.37397 0.94779 0.0
C2268 C 0.50058 0.37573 0.95413 0.0
C2269 C 0.48205 0.42909 0.0045 0.0
C2270 C 0.48256 0.44309 0.99625 0.0
C2271 C 0.47624 0.41019 1.00022 0.0
C2272 C 0.47131 0.40527 0.98762 0.0
C2273 C 0.47206 0.41929 0.97936 0.0
C2274 C 0.47738 0.43796 0.98367 0.0
C2275 C 0.46564 0.38559 0.98288 0.0
C2276 C 0.47947 0.38332 0.97582 0.0
C2277 C 0.44676 0.36926 0.98516 0.0
C2278 C 0.43167 0.37096 0.9926 0.0
C2279 C 0.42453 0.38333 0.98877 0.0
C2280 C 0.4104 0.38495 0.9959 0.0
C2281 C 0.40318 0.37414 0.00681 0.0
C2282 C 0.41002 0.36163 0.0106 0.0
C2283 C 0.42418 0.35998 0.00351 0.0
H2284 H 0.39223 0.3754 0.01231 0.0
H2285 H 0.53152 0.35855 0.94647 0.0
H2286 H 0.17765 0.69465 0.05331 0.0
H2287 H 0.1516 0.66353 0.04477 0.0
H2288 H 0.10701 0.67233 0.06255 0.0
H2289 H 0.13298 0.70359 0.07105 0.0
H2290 H 0.09962 0.63513 0.06554 0.0
H2291 H 0.11492 0.67966 0.03164 0.0
H2292 H 0.13672 0.70485 0.01671 0.0
H2293 H 0.15524 0.66597 1.0019 0.0
H2294 H 0.13376 0.64064 0.01687 0.0
H2295 H 0.01806 0.55904 0.03094 0.0
H2296 H 0.04212 0.59056 0.0403 0.0
H2297 H 0.09011 0.58621 0.02353 0.0
H2298 H 0.06637 0.55483 0.01431 0.0
H2299 H 0.09448 0.62184 0.02004 0.0
H2300 H 0.08038 0.5778 0.05411 0.0
H2301 H 0.05966 0.55272 0.06941 0.0
H2302 H 0.03949 0.5904 0.08402 0.0
H2303 H 0.05985 0.6156 0.06866 0.0
C2304 C 0.1623 0.69008 0.05531 0.0
C2305 C 0.15742 0.70169 0.06282 0.0
C2306 C 0.14742 0.67225 0.05044 0.0
C2307 C 0.12734 0.66569 0.05291 0.0
C2308 C 0.12241 0.67709 0.06054 0.0
C2309 C 0.13729 0.69493 0.06541 0.0
C2310 C 0.1115 0.64695 0.04751 0.0
C2311 C 0.09827 0.63232 0.05557 0.0
C2312 C 0.11001 0.64315 0.03453 0.0
C2313 C 0.12286 0.65832 0.02546 0.0
C2314 C 0.12375 0.67653 0.02527 0.0
C2315 C 0.13603 0.69083 0.01679 0.0
C2316 C 0.14739 0.68703 0.00838 0.0
C2317 C 0.14645 0.6689 0.00842 0.0
C2318 C 0.13421 0.65456 0.0169 0.0
C2319 C 0.03374 0.56478 0.02928 0.0
C2320 C 0.04024 0.5545 0.02173 0.0
C2321 C 0.04747 0.58277 0.03465 0.0
C2322 C 0.06792 0.59073 0.03262 0.0
C2323 C 0.07441 0.58043 0.02515 0.0
C2324 C 0.06075 0.56248 0.01984 0.0
C2325 C 0.08269 0.60993 0.03807 0.0
C2326 C 0.09572 0.62467 0.03 0.0
C2327 C 0.08401 0.61378 0.05104 0.0
C2328 C 0.07147 0.59851 0.06014 0.0
C2329 C 0.07135 0.58065 0.06048 0.0
C2330 C 0.05971 0.56643 0.06919 0.0
C2331 C 0.04826 0.56996 0.07767 0.0
C2332 C 0.04836 0.58769 0.07744 0.0
C2333 C 0.05995 0.60194 0.06873 0.0
H2334 H 0.0394 0.55901 0.08447 0.0
H2335 H 0.15689 0.69811 1.00183 0.0
H2336 H 0.31428 0.43541 0.07478 0.0
H2337 H 0.34424 0.44244 0.06342 0.0
H2338 H 0.34189 0.48858 0.04364 0.0
H2339 H 0.31233 0.48224 0.05531 0.0
H2340 H 0.34886 0.46361 0.02813 0.0
H2341 H 0.37432 0.50071 0.06611 0.0
H2342 H 0.37771 0.50568 0.08888 0.0
H2343 H 0.39823 0.4645 0.09187 0.0
H2344 H 0.39466 0.45904 0.06911 0.0
H2345 H 0.46058 0.5217 0.01889 0.0
H2346 H 0.42649 0.5124 0.02483 0.0
H2347 H 0.41136 0.45204 0.02643 0.0
H2348 H 0.44526 0.46126 0.02009 0.0
H2349 H 0.41251 0.48375 0.05016 0.0
H2350 H 0.38145 0.44232 0.01321 0.0
H2351 H 0.37323 0.43357 0.99103 0.0
H2352 H 0.36164 0.48093 0.98653 0.0
H2353 H 0.36996 0.49002 0.00869 0.0
C2354 C 0.32021 0.44726 0.06816 0.0
C2355 C 0.31082 0.45833 0.06608 0.0
C2356 C 0.33732 0.45116 0.06161 0.0
C2357 C 0.34539 0.46612 0.05275 0.0
C2358 C 0.33589 0.47694 0.05043 0.0
C2359 C 0.31889 0.47319 0.05707 0.0
C2360 C 0.36376 0.47048 0.04594 0.0
C2361 C 0.36284 0.46822 0.03293 0.0
C2362 C 0.38188 0.47606 0.05223 0.0
C2363 C 0.38401 0.47931 0.06592 0.0
C2364 C 0.37937 0.49257 0.07163 0.0
C2365 C 0.38136 0.4955 0.08454 0.0
C2366 C 0.38813 0.48537 0.09182 0.0
C2367 C 0.39296 0.47231 0.08621 0.0
C2368 C 0.39096 0.4693 0.07331 0.0
C2369 C 0.44969 0.50637 0.01998 0.0
C2370 C 0.45528 0.49211 0.01867 0.0
C2371 C 0.43025 0.50107 0.02336 0.0
C2372 C 0.41623 0.48147 0.02578 0.0
C2373 C 0.4217 0.46714 0.0242 0.0
C2374 C 0.44106 0.47241 0.02062 0.0
C2375 C 0.39758 0.47673 0.03234 0.0
C2376 C 0.39852 0.47911 0.04535 0.0
C2377 C 0.37945 0.47105 0.02607 0.0
C2378 C 0.37686 0.46716 0.0125 0.0
C2379 C 0.37765 0.45116 0.00741 0.0
C2380 C 0.37271 0.44598 0.99488 0.0
C2381 C 0.36697 0.45672 0.98735 0.0
C2382 C 0.36614 0.47266 0.99235 0.0
C2383 C 0.37102 0.47786 0.00488 0.0
H2384 H 0.36316 0.45268 0.97766 0.0
H2385 H 0.38967 0.48768 0.10181 0.0
H2386 H 0.55483 0.87229 0.08528 0.0
H2387 H 0.54445 0.89276 0.07436 0.0
H2388 H 0.56345 0.88031 0.03949 0.0
H2389 H 0.57489 0.86069 0.05043 0.0
H2390 H 0.57328 0.91721 0.04033 0.0
H2391 H 0.514 0.85661 0.04804 0.0
H2392 H 0.48953 0.82906 0.06058 0.0
H2393 H 0.47864 0.86839 0.0824 0.0
H2394 H 0.50328 0.89623 0.0701 0.0
H2395 H 0.51864 0.9471 1.00168 0.0
H2396 H 0.52813 0.92543 0.01205 0.0
H2397 H 0.52084 0.94599 0.04785 0.0
H2398 H 0.5113 0.96765 0.0375 0.0
H2399 H 0.50439 0.90428 0.04588 0.0
H2400 H 0.56477 0.96495 0.03777 0.0
H2401 H 0.58816 0.99163 0.02424 0.0
H2402 H 0.59581 0.95058 1.00201 0.0
H2403 H 0.57215 0.92358 0.01528 0.0
C2404 C 0.55714 0.87417 0.07532 0.0
C2405 C 0.56558 0.86471 0.06873 0.0
C2406 C 0.55096 0.88568 0.06906 0.0
C2407 C 0.55279 0.88774 0.05607 0.0
C2408 C 0.56174 0.87881 0.04951 0.0
C2409 C 0.56809 0.86743 0.05577 0.0
C2410 C 0.5452 0.89903 0.0493 0.0
C2411 C 0.55813 0.91418 0.04142 0.0
C2412 C 0.52549 0.89525 0.05082 0.0
C2413 C 0.51063 0.87853 0.05822 0.0
C2414 C 0.50651 0.85941 0.05558 0.0
C2415 C 0.49259 0.84373 0.06263 0.0
C2416 C 0.48258 0.84698 0.0723 0.0
C2417 C 0.48643 0.8659 0.07491 0.0
C2418 C 0.50036 0.88163 0.0679 0.0
C2419 C 0.51863 0.94668 0.01173 0.0
C2420 C 0.51414 0.95894 0.01878 0.0
C2421 C 0.52423 0.93444 0.01765 0.0
C2422 C 0.52523 0.93421 0.0307 0.0
C2423 C 0.52012 0.94598 0.03777 0.0
C2424 C 0.5148 0.95839 0.03185 0.0
C2425 C 0.53249 0.92238 0.03702 0.0
C2426 C 0.5195 0.90718 0.04479 0.0
C2427 C 0.55205 0.92596 0.0353 0.0
C2428 C 0.56653 0.94222 0.02744 0.0
C2429 C 0.57131 0.96159 0.02993 0.0
C2430 C 0.58463 0.97677 0.02232 0.0
C2431 C 0.59343 0.9728 0.01225 0.0
C2432 C 0.58896 0.95363 0.0098 0.0
C2433 C 0.5756 0.93838 0.01737 0.0
H2434 H 0.60374 0.98457 0.00636 0.0
H2435 H 0.4718 0.83482 0.07775 0.0
H2436 H 0.00495 0.19744 0.41476 0.0
H2437 H 0.03368 0.22039 0.40253 0.0
H2438 H 0.99472 0.21426 0.37192 0.0
H2439 H 0.96608 0.19091 0.38399 0.0
H2440 H 0.02529 0.21442 0.363 0.0
H2441 H 0.01627 0.25511 0.39268 0.0
H2442 H 0.01314 0.2663 0.4136 0.0
H2443 H 0.07142 0.27711 0.42339 0.0
H2444 H 0.07479 0.26573 0.40257 0.0
H2445 H 0.10632 0.32375 0.35035 0.0
H2446 H 0.07484 0.29748 0.35826 0.0
H2447 H 0.09559 0.25651 0.35316 0.0
H2448 H 0.12732 0.28294 0.34534 0.0
H2449 H 0.07425 0.27974 0.37974 0.0
H2450 H 0.05868 0.21357 0.35026 0.0
H2451 H 0.05284 0.20042 0.32876 0.0
H2452 H 0.03633 0.24243 0.31742 0.0
H2453 H 0.04272 0.2562 0.33875 0.0
C2454 C 0.00254 0.20105 0.40543 0.0
C2455 C 0.98326 0.19241 0.40034 0.0
C2456 C 0.01897 0.21422 0.39845 0.0
C2457 C 0.01642 0.21933 0.38633 0.0
C2458 C 0.99715 0.21056 0.38122 0.0
C2459 C 0.98077 0.1972 0.38813 0.0
C2460 C 0.03372 0.23376 0.37891 0.0
C2461 C 0.03603 0.22867 0.36673 0.0
C2462 C 0.04767 0.25251 0.3836 0.0
C2463 C 0.04569 0.25938 0.39611 0.0
C2464 C 0.02835 0.25974 0.39932 0.0
C2465 C 0.02655 0.26614 0.41116 0.0
C2466 C 0.04205 0.27236 0.41983 0.0
C2467 C 0.05941 0.27225 0.41667 0.0
C2468 C 0.06128 0.26584 0.40485 0.0
C2469 C 0.10396 0.30903 0.35059 0.0
C2470 C 0.11927 0.30541 0.34723 0.0
C2471 C 0.08597 0.29402 0.35512 0.0
C2472 C 0.08284 0.27501 0.35639 0.0
C2473 C 0.09756 0.27101 0.35218 0.0
C2474 C 0.11571 0.28613 0.34769 0.0
C2475 C 0.06567 0.26043 0.3638 0.0
C2476 C 0.06356 0.26543 0.37607 0.0
C2477 C 0.05163 0.2418 0.35911 0.0
C2478 C 0.05143 0.23604 0.34599 0.0
C2479 C 0.05426 0.22026 0.34308 0.0
C2480 C 0.05076 0.21265 0.33096 0.0
C2481 C 0.04407 0.22049 0.32176 0.0
C2482 C 0.04149 0.23636 0.32456 0.0
C2483 C 0.04532 0.24426 0.33662 0.0
H2484 H 0.04103 0.21437 0.31243 0.0
H2485 H 0.04062 0.27731 0.42899 0.0
H2486 H 0.81558 0.80791 0.41326 0.0
H2487 H 0.7886 0.81111 0.40408 0.0
H2488 H 0.80522 0.80188 0.36746 0.0
H2489 H 0.8313 0.79727 0.37661 0.0
H2490 H 0.78589 0.83497 0.38906 0.0
H2491 H 0.76549 0.7796 0.34833 0.0
H2492 H 0.76629 0.74948 0.34337 0.0
H2493 H 0.76353 0.73634 0.38234 0.0
H2494 H 0.76246 0.76624 0.38752 0.0
H2495 H 0.71749 0.8448 0.35018 0.0
H2496 H 0.74603 0.84277 0.35781 0.0
H2497 H 0.70697 0.7828 0.36834 0.0
H2498 H 0.67865 0.78442 0.35971 0.0
H2499 H 0.73775 0.78457 0.3598 0.0
H2500 H 0.72783 0.82466 0.3896 0.0
H2501 H 0.72412 0.85267 0.39607 0.0
H2502 H 0.78263 0.89244 0.38267 0.0
H2503 H 0.78658 0.86465 0.37597 0.0
C2504 C 0.81336 0.80623 0.40326 0.0
C2505 C 0.82564 0.8021 0.39574 0.0
C2506 C 0.79802 0.80834 0.39799 0.0
C2507 C 0.79459 0.80648 0.38506 0.0
C2508 C 0.80722 0.803 0.37748 0.0
C2509 C 0.82239 0.80063 0.38275 0.0
C2510 C 0.77763 0.80785 0.37956 0.0
C2511 C 0.77537 0.82393 0.38267 0.0
C2512 C 0.76365 0.79337 0.37132 0.0
C2513 C 0.76413 0.77528 0.36831 0.0
C2514 C 0.765 0.77025 0.35583 0.0
C2515 C 0.7655 0.75322 0.35299 0.0
C2516 C 0.76503 0.74104 0.36254 0.0
C2517 C 0.76398 0.74583 0.37496 0.0
C2518 C 0.76344 0.76282 0.37785 0.0
C2519 C 0.71507 0.83107 0.35387 0.0
C2520 C 0.69592 0.81459 0.35402 0.0
C2521 C 0.73138 0.83 0.35845 0.0
C2522 C 0.72876 0.8127 0.36388 0.0
C2523 C 0.70953 0.7963 0.36416 0.0
C2524 C 0.6933 0.79724 0.35929 0.0
C2525 C 0.74587 0.8116 0.36938 0.0
C2526 C 0.74825 0.79563 0.3662 0.0
C2527 C 0.75957 0.82586 0.37786 0.0
C2528 C 0.75744 0.84257 0.3822 0.0
C2529 C 0.73988 0.83938 0.38801 0.0
C2530 C 0.73773 0.85521 0.3917 0.0
C2531 C 0.75311 0.87432 0.38975 0.0
C2532 C 0.77072 0.87763 0.38416 0.0
C2533 C 0.77293 0.86184 0.38043 0.0
H2534 H 0.75141 0.88656 0.39258 0.0
H2535 H 0.76544 0.72788 0.36032 0.0
H2536 H 0.19668 0.03369 0.38392 0.0
H2537 H 0.18844 0.00229 0.37451 0.0
H2538 H 0.24017 0.00553 0.39188 0.0
H2539 H 0.24893 0.03732 0.40095 0.0
H2540 H 0.23629 0.99313 0.36819 0.0
H2541 H 0.19399 0.9768 0.40383 0.0
H2542 H 0.16917 0.97793 0.41751 0.0
H2543 H 0.12625 0.95581 0.3877 0.0
H2544 H 0.15092 0.95481 0.37378 0.0
H2545 H 0.20946 0.8937 0.36113 0.0
H2546 H 0.21783 0.9255 0.36987 0.0
H2547 H 0.16684 0.92227 0.35144 0.0
H2548 H 0.15805 0.89024 0.34287 0.0
H2549 H 0.17028 0.9347 0.37541 0.0
H2550 H 0.21277 0.95063 0.33985 0.0
H2551 H 0.23749 0.9487 0.32651 0.0
H2552 H 0.2801 0.97106 0.35648 0.0
H2553 H 0.25552 0.97285 0.37007 0.0
C2554 C 0.20644 0.02784 0.38562 0.0
C2555 C 0.22344 0.03798 0.39322 0.0
C2556 C 0.2016 0.0098 0.38033 0.0
C2557 C 0.21354 0.00145 0.38263 0.0
C2558 C 0.2307 0.01167 0.39003 0.0
C2559 C 0.23558 0.02975 0.3953 0.0
C2560 C 0.20811 0.98201 0.37735 0.0
C2561 C 0.22195 0.9803 0.36989 0.0
C2562 C 0.18923 0.96537 0.37937 0.0
C2563 C 0.17437 0.96593 0.38773 0.0
C2564 C 0.17931 0.97234 0.40016 0.0
C2565 C 0.16526 0.97292 0.40796 0.0
C2566 C 0.14617 0.967 0.40347 0.0
C2567 C 0.14106 0.96042 0.39117 0.0
C2568 C 0.15507 0.95983 0.38332 0.0
C2569 C 0.2 0.89972 0.35892 0.0
C2570 C 0.18322 0.88952 0.35116 0.0
C2571 C 0.20487 0.91795 0.36389 0.0
C2572 C 0.19311 0.92636 0.36116 0.0
C2573 C 0.17617 0.91608 0.3536 0.0
C2574 C 0.17127 0.89784 0.34863 0.0
C2575 C 0.19845 0.94584 0.36625 0.0
C2576 C 0.1846 0.94755 0.37369 0.0
C2577 C 0.21732 0.96246 0.36423 0.0
C2578 C 0.23224 0.96172 0.35601 0.0
C2579 C 0.22737 0.95502 0.34362 0.0
C2580 C 0.24136 0.95397 0.33601 0.0
C2581 C 0.26034 0.95971 0.34066 0.0
C2582 C 0.26538 0.96659 0.3529 0.0
C2583 C 0.25144 0.96765 0.36056 0.0
H2584 H 0.27114 0.95886 0.33475 0.0
H2585 H 0.13531 0.96746 0.40953 0.0
H2586 H 0.48915 0.64233 0.28353 0.0
H2587 H 0.51408 0.67322 0.29299 0.0
H2588 H 0.56072 0.66453 0.2784 0.0
H2589 H 0.53582 0.63333 0.26915 0.0
H2590 H 0.56766 0.67584 0.30245 0.0
H2591 H 0.55017 0.69759 0.2655 0.0
H2592 H 0.52795 0.7005 0.25029 0.0
H2593 H 0.50835 0.72562 0.2785 0.0
H2594 H 0.53022 0.72257 0.29395 0.0
H2595 H 0.64733 0.77193 0.31494 0.0
H2596 H 0.62289 0.74158 0.30472 0.0
H2597 H 0.57546 0.74904 0.31926 0.0
H2598 H 0.59978 0.77961 0.32934 0.0
H2599 H 0.56935 0.73855 0.29494 0.0
H2600 H 0.5862 0.71607 0.33198 0.0
H2601 H 0.60884 0.71373 0.34713 0.0
H2602 H 0.62988 0.69035 0.31865 0.0
H2603 H 0.60756 0.69283 0.30328 0.0
C2604 C 0.50471 0.64694 0.28236 0.0
C2605 C 0.51046 0.63531 0.27558 0.0
C2606 C 0.51897 0.66471 0.28769 0.0
C2607 C 0.53932 0.67132 0.28633 0.0
C2608 C 0.54512 0.65978 0.27955 0.0
C2609 C 0.53086 0.64201 0.27418 0.0
C2610 C 0.5545 0.69 0.29227 0.0
C2611 C 0.5682 0.6896 0.30066 0.0
C2612 C 0.55494 0.7079 0.29018 0.0
C2613 C 0.54167 0.70963 0.28093 0.0
C2614 C 0.54097 0.70355 0.2685 0.0
C2615 C 0.52847 0.70526 0.25983 0.0
C2616 C 0.5167 0.71318 0.26344 0.0
C2617 C 0.51744 0.71944 0.27573 0.0
C2618 C 0.5299 0.71774 0.28444 0.0
C2619 C 0.6317 0.76711 0.31603 0.0
C2620 C 0.62555 0.77815 0.32309 0.0
C2621 C 0.61773 0.74969 0.31019 0.0
C2622 C 0.59731 0.74289 0.31132 0.0
C2623 C 0.59112 0.75395 0.31829 0.0
C2624 C 0.60507 0.77136 0.32414 0.0
C2625 C 0.58242 0.72434 0.30514 0.0
C2626 C 0.56879 0.72478 0.29671 0.0
C2627 C 0.58202 0.70647 0.3072 0.0
C2628 C 0.59534 0.70481 0.31645 0.0
C2629 C 0.59576 0.71057 0.32893 0.0
C2630 C 0.60852 0.7092 0.33756 0.0
C2631 C 0.62083 0.70194 0.33385 0.0
C2632 C 0.62035 0.69599 0.32151 0.0
C2633 C 0.60764 0.69736 0.31283 0.0
H2634 H 0.6307 0.70089 0.34055 0.0
H2635 H 0.50704 0.7145 0.2567 0.0
H2636 H 0.35219 0.84396 0.28793 0.0
H2637 H 0.32222 0.8401 0.29793 0.0
H2638 H 0.33537 0.89661 0.28443 0.0
H2639 H 0.3656 0.90075 0.27462 0.0
H2640 H 0.32494 0.89221 0.30873 0.0
H2641 H 0.29886 0.85492 0.27099 0.0
H2642 H 0.29336 0.82967 0.25538 0.0
H2643 H 0.26581 0.78514 0.2831 0.0
H2644 H 0.27139 0.81017 0.29893 0.0
H2645 H 0.23257 0.88651 0.32035 0.0
H2646 H 0.26372 0.89014 0.31278 0.0
H2647 H 0.24315 0.82964 0.3212 0.0
H2648 H 0.21124 0.82566 0.32778 0.0
H2649 H 0.25799 0.8357 0.29999 0.0
H2650 H 0.28787 0.87263 0.33813 0.0
H2651 H 0.29513 0.89768 0.35438 0.0
H2652 H 0.31573 0.9421 0.32637 0.0
H2653 H 0.30888 0.91731 0.31005 0.0
C2654 C 0.34877 0.85561 0.28713 0.0
C2655 C 0.36134 0.87267 0.28045 0.0
C2656 C 0.33151 0.85331 0.29277 0.0
C2657 C 0.3264 0.86799 0.29186 0.0
C2658 C 0.33895 0.88505 0.28524 0.0
C2659 C 0.35616 0.88733 0.27955 0.0
C2660 C 0.30822 0.86575 0.29801 0.0
C2661 C 0.31026 0.87995 0.30672 0.0
C2662 C 0.28911 0.84951 0.29568 0.0
C2663 C 0.28574 0.83444 0.28618 0.0
C2664 C 0.29178 0.83976 0.27379 0.0
C2665 C 0.28862 0.82549 0.26489 0.0
C2666 C 0.27929 0.80582 0.26826 0.0
C2667 C 0.27306 0.80038 0.28052 0.0
C2668 C 0.27621 0.81461 0.28945 0.0
C2669 C 0.23485 0.87407 0.3208 0.0
C2670 C 0.2196 0.85592 0.32495 0.0
C2671 C 0.25283 0.87621 0.31658 0.0
C2672 C 0.25623 0.86032 0.31662 0.0
C2673 C 0.2411 0.84223 0.32109 0.0
C2674 C 0.2229 0.83999 0.32504 0.0
C2675 C 0.27461 0.8621 0.31089 0.0
C2676 C 0.27264 0.84787 0.30215 0.0
C2677 C 0.29384 0.87826 0.31325 0.0
C2678 C 0.29755 0.89311 0.32293 0.0
C2679 C 0.29373 0.88772 0.33548 0.0
C2680 C 0.29789 0.90187 0.34468 0.0
C2681 C 0.30569 0.92144 0.34139 0.0
C2682 C 0.3096 0.92693 0.3289 0.0
C2683 C 0.3057 0.91286 0.31969 0.0
H2684 H 0.30882 0.93235 0.34852 0.0
H2685 H 0.27685 0.79479 0.26136 0.0
H2686 H 0.10243 0.47899 0.29358 0.0
H2687 H 0.11268 0.45857 0.30477 0.0
H2688 H 0.12619 0.44064 0.2699 0.0
H2689 H 0.11682 0.4616 0.25863 0.0
H2690 H 0.10392 0.40944 0.28702 0.0
H2691 H 0.16282 0.47355 0.28571 0.0
H2692 H 0.18167 0.50917 0.2893 0.0
H2693 H 0.17026 0.50045 0.32854 0.0
H2694 H 0.15107 0.46476 0.32515 0.0
H2695 H 0.16067 0.36753 0.30451 0.0
H2696 H 0.15054 0.3893 0.2952 0.0
H2697 H 0.14753 0.41064 0.33175 0.0
H2698 H 0.15792 0.38897 0.34108 0.0
H2699 H 0.16278 0.43991 0.31518 0.0
H2700 H 0.10584 0.3764 0.31735 0.0
H2701 H 0.08712 0.34063 0.31446 0.0
H2702 H 0.0933 0.34764 0.27479 0.0
H2703 H 0.11243 0.38347 0.27744 0.0
C2704 C 0.10776 0.47087 0.28827 0.0
C2705 C 0.10888 0.47206 0.27517 0.0
C2706 C 0.11347 0.4591 0.29469 0.0
C2707 C 0.12024 0.44819 0.28814 0.0
C2708 C 0.1209 0.4489 0.2751 0.0
C2709 C 0.11543 0.46083 0.26867 0.0
C2710 C 0.12716 0.43639 0.29489 0.0
C2711 C 0.11688 0.41607 0.29309 0.0
C2712 C 0.14368 0.44507 0.30311 0.0
C2713 C 0.15532 0.4665 0.30516 0.0
C2714 C 0.16418 0.47924 0.29509 0.0
C2715 C 0.17495 0.49944 0.29709 0.0
C2716 C 0.17711 0.50707 0.30913 0.0
C2717 C 0.16854 0.49452 0.31921 0.0
C2718 C 0.15773 0.4743 0.31726 0.0
C2719 C 0.15796 0.37693 0.31057 0.0
C2720 C 0.16001 0.37649 0.32356 0.0
C2721 C 0.15216 0.38935 0.30524 0.0
C2722 C 0.14789 0.4013 0.3128 0.0
C2723 C 0.15071 0.4015 0.32574 0.0
C2724 C 0.15674 0.38917 0.33108 0.0
C2725 C 0.13975 0.41294 0.30716 0.0
C2726 C 0.14973 0.43321 0.30919 0.0
C2727 C 0.12277 0.40418 0.29928 0.0
C2728 C 0.1107 0.38264 0.2976 0.0
C2729 C 0.10329 0.37032 0.30801 0.0
C2730 C 0.09261 0.35003 0.30642 0.0
C2731 C 0.08905 0.34187 0.29445 0.0
C2732 C 0.09609 0.35399 0.28405 0.0
C2733 C 0.10684 0.37429 0.28559 0.0
H2734 H 0.08081 0.32616 0.29324 0.0
H2735 H 0.18546 0.52272 0.31066 0.0
H2736 H 0.3386 0.46078 0.25937 0.0
H2737 H 0.31056 0.43867 0.2722 0.0
H2738 H 0.34687 0.46186 0.30528 0.0
H2739 H 0.37536 0.48312 0.29246 0.0
H2740 H 0.32589 0.42482 0.30758 0.0
H2741 H 0.31043 0.47396 0.29657 0.0
H2742 H 0.30518 0.49575 0.28266 0.0
H2743 H 0.25763 0.446 0.26406 0.0
H2744 H 0.26277 0.42389 0.27774 0.0
H2745 H 0.21376 0.38268 0.32983 0.0
H2746 H 0.24561 0.4098 0.32291 0.0
H2747 H 0.2649 0.36879 0.3133 0.0
H2748 H 0.2341 0.3422 0.32139 0.0
H2749 H 0.25961 0.41855 0.30186 0.0
H2750 H 0.31136 0.38645 0.30966 0.0
H2751 H 0.31736 0.36716 0.32531 0.0
H2752 H 0.29453 0.3884 0.354 0.0
H2753 H 0.28832 0.40779 0.33846 0.0
C2754 C 0.34077 0.46106 0.26936 0.0
C2755 C 0.35938 0.47387 0.27482 0.0
C2756 C 0.32456 0.44856 0.27673 0.0
C2757 C 0.3264 0.44877 0.28978 0.0
C2758 C 0.34496 0.46144 0.29526 0.0
C2759 C 0.36124 0.47379 0.28789 0.0
C2760 C 0.30911 0.43547 0.29766 0.0
C2761 C 0.31142 0.42355 0.30638 0.0
C2762 C 0.29027 0.43404 0.29637 0.0
C2763 C 0.2871 0.44727 0.28812 0.0
C2764 C 0.29894 0.46766 0.28945 0.0
C2765 C 0.29597 0.48007 0.28162 0.0
C2766 C 0.28111 0.47226 0.27246 0.0
C2767 C 0.26915 0.45202 0.27114 0.0
C2768 C 0.27207 0.43955 0.27894 0.0
C2769 C 0.2252 0.37963 0.32678 0.0
C2770 C 0.22165 0.36037 0.32647 0.0
C2771 C 0.24333 0.39511 0.32262 0.0
C2772 C 0.25802 0.39158 0.31769 0.0
C2773 C 0.25437 0.37226 0.31746 0.0
C2774 C 0.23657 0.35695 0.32197 0.0
C2775 C 0.27624 0.40759 0.3117 0.0
C2776 C 0.27411 0.41998 0.30325 0.0
C2777 C 0.29538 0.40986 0.31351 0.0
C2778 C 0.29922 0.39842 0.3229 0.0
C2779 C 0.30766 0.38703 0.31931 0.0
C2780 C 0.31102 0.37603 0.32815 0.0
C2781 C 0.3062 0.37646 0.34063 0.0
C2782 C 0.29807 0.38796 0.3443 0.0
C2783 C 0.29456 0.39888 0.33549 0.0
H2784 H 0.30881 0.36795 0.34745 0.0
H2785 H 0.27883 0.4819 0.26641 0.0
H2786 H 0.51198 0.87767 0.29198 0.0
H2787 H 0.5351 0.87079 0.30322 0.0
H2788 H 0.55503 0.85935 0.26839 0.0
H2789 H 0.53085 0.86456 0.25717 0.0
H2790 H 0.55451 0.83529 0.28396 0.0
H2791 H 0.58096 0.90476 0.28556 0.0
H2792 H 0.58081 0.93529 0.29018 0.0
H2793 H 0.57227 0.92075 0.32903 0.0
H2794 H 0.57212 0.89 0.32461 0.0
H2795 H 0.65937 0.88284 0.31587 0.0
H2796 H 0.6318 0.88561 0.30712 0.0
H2797 H 0.59127 0.82544 0.31654 0.0
H2798 H 0.6191 0.82225 0.32413 0.0
H2799 H 0.60081 0.88431 0.31458 0.0
H2800 H 0.5519 0.8048 0.29769 0.0
H2801 H 0.55554 0.77668 0.29135 0.0
H2802 H 0.61497 0.81575 0.27908 0.0
H2803 H 0.6116 0.84408 0.28522 0.0
C2804 C 0.52096 0.87331 0.28668 0.0
C2805 C 0.51956 0.87193 0.27357 0.0
C2806 C 0.53445 0.86964 0.29315 0.0
C2807 C 0.54725 0.86497 0.28668 0.0
C2808 C 0.54549 0.86305 0.27365 0.0
C2809 C 0.53178 0.86635 0.2672 0.0
C2810 C 0.56279 0.8625 0.29337 0.0
C2811 C 0.5646 0.84603 0.29066 0.0
C2812 C 0.57621 0.87652 0.30205 0.0
C2813 C 0.57629 0.89499 0.30473 0.0
C2814 C 0.5789 0.90801 0.29508 0.0
C2815 C 0.5789 0.92536 0.29766 0.0
C2816 C 0.57647 0.92993 0.30989 0.0
C2817 C 0.5741 0.91718 0.31956 0.0
C2818 C 0.57407 0.89979 0.31702 0.0
C2819 C 0.64454 0.87024 0.31607 0.0
C2820 C 0.64135 0.85247 0.32097 0.0
C2821 C 0.62874 0.87184 0.31113 0.0
C2822 C 0.60933 0.85569 0.31098 0.0
C2823 C 0.60608 0.83804 0.3162 0.0
C2824 C 0.62199 0.8363 0.32081 0.0
C2825 C 0.59279 0.85731 0.305 0.0
C2826 C 0.59069 0.87354 0.3079 0.0
C2827 C 0.57958 0.84343 0.29615 0.0
C2828 C 0.58154 0.82653 0.29202 0.0
C2829 C 0.56569 0.80738 0.29357 0.0
C2830 C 0.56772 0.79141 0.29003 0.0
C2831 C 0.5855 0.79443 0.28485 0.0
C2832 C 0.60123 0.81343 0.28312 0.0
C2833 C 0.59927 0.82944 0.28663 0.0
H2834 H 0.58706 0.78205 0.28217 0.0
H2835 H 0.57647 0.94337 0.31187 0.0
H2836 H 0.09337 0.63158 0.27484 0.0
H2837 H 0.10142 0.66324 0.28375 0.0
H2838 H 0.15572 0.66971 0.29922 0.0
H2839 H 0.14786 0.63812 0.29024 0.0
H2840 H 0.13622 0.67959 0.316 0.0
H2841 H 0.15676 0.69447 0.27343 0.0
H2842 H 0.15274 0.69089 0.2506 0.0
H2843 H 0.10603 0.70484 0.25211 0.0
H2844 H 0.10957 0.70823 0.27498 0.0
H2845 H 0.1825 0.78044 0.33111 0.0
H2846 H 0.17449 0.74873 0.32243 0.0
H2847 H 0.12151 0.74318 0.30539 0.0
H2848 H 0.12958 0.77507 0.31388 0.0
H2849 H 0.14044 0.73275 0.28944 0.0
H2850 H 0.11954 0.7175 0.33198 0.0
H2851 H 0.12327 0.7208 0.35484 0.0
H2852 H 0.17053 0.70762 0.35339 0.0
H2853 H 0.1672 0.70443 0.33049 0.0
C2854 C 0.10711 0.63981 0.28004 0.0
C2855 C 0.12002 0.63236 0.28179 0.0
C2856 C 0.11167 0.65788 0.28515 0.0
C2857 C 0.12927 0.66891 0.29204 0.0
C2858 C 0.14205 0.66141 0.29395 0.0
C2859 C 0.1375 0.64333 0.28884 0.0
C2860 C 0.13432 0.68826 0.29727 0.0
C2861 C 0.1374 0.69132 0.31018 0.0
C2862 C 0.13541 0.70338 0.2897 0.0
C2863 C 0.1333 0.70141 0.27594 0.0
C2864 C 0.14552 0.69661 0.26891 0.0
C2865 C 0.14335 0.69465 0.25595 0.0
C2866 C 0.12911 0.69758 0.24991 0.0
C2867 C 0.11704 0.70254 0.2568 0.0
C2868 C 0.11913 0.7045 0.26976 0.0
C2869 C 0.16906 0.77243 0.3256 0.0
C2870 C 0.15658 0.78022 0.32328 0.0
C2871 C 0.16449 0.75427 0.32065 0.0
C2872 C 0.14724 0.74344 0.3134 0.0
C2873 C 0.13487 0.75126 0.31097 0.0
C2874 C 0.13949 0.76949 0.31586 0.0
C2875 C 0.14227 0.72409 0.30818 0.0
C2876 C 0.13923 0.72103 0.29527 0.0
C2877 C 0.14119 0.70896 0.31575 0.0
C2878 C 0.14321 0.71087 0.32952 0.0
C2879 C 0.1308 0.71542 0.33653 0.0
C2880 C 0.13281 0.71722 0.3495 0.0
C2881 C 0.14711 0.71439 0.35556 0.0
C2882 C 0.15944 0.70977 0.34867 0.0
C2883 C 0.15748 0.70794 0.33571 0.0
H2884 H 0.14866 0.71582 0.3656 0.0
H2885 H 0.12745 0.69606 0.23988 0.0
H2886 H 0.82078 0.0171 0.41197 0.0
H2887 H 0.79529 0.98639 0.40282 0.0
H2888 H 0.80791 0.01275 0.36643 0.0
H2889 H 0.83243 0.04392 0.37563 0.0
H2890 H 0.7703 0.9915 0.36837 0.0
H2891 H 0.82421 0.98046 0.37696 0.0
H2892 H 0.85005 0.9789 0.38947 0.0
H2893 H 0.8053 0.93614 0.41326 0.0
H2894 H 0.7792 0.93766 0.401 0.0
H2895 H 0.72442 0.90196 0.33339 0.0
H2896 H 0.74936 0.93286 0.34296 0.0
H2897 H 0.72558 0.91043 0.37928 0.0
H2898 H 0.70053 0.8795 0.3697 0.0
H2899 H 0.76844 0.92908 0.37735 0.0
H2900 H 0.71466 0.94083 0.3678 0.0
H2901 H 0.68974 0.94176 0.35398 0.0
H2902 H 0.73613 0.98294 0.33037 0.0
H2903 H 0.76134 0.98201 0.34395 0.0
C2904 C 0.81799 0.01653 0.40204 0.0
C2905 C 0.82882 0.03314 0.39457 0.0
C2906 C 0.80356 0.99879 0.39677 0.0
C2907 C 0.79985 0.99705 0.38387 0.0
C2908 C 0.81052 0.01361 0.3764 0.0
C2909 C 0.82476 0.03144 0.38168 0.0
C2910 C 0.78466 0.9781 0.37816 0.0
C2911 C 0.77013 0.97794 0.37023 0.0
C2912 C 0.78408 0.96022 0.3807 0.0
C2913 C 0.79976 0.95937 0.38815 0.0
C2914 C 0.81989 0.97086 0.38493 0.0
C2915 C 0.83458 0.96996 0.39197 0.0
C2916 C 0.82932 0.95748 0.40218 0.0
C2917 C 0.80935 0.94584 0.40536 0.0
C2918 C 0.7946 0.94671 0.39837 0.0
C2919 C 0.72462 0.90357 0.3434 0.0
C2920 C 0.71063 0.88833 0.3508 0.0
C2921 C 0.73877 0.92126 0.34885 0.0
C2922 C 0.73929 0.92392 0.36183 0.0
C2923 C 0.72541 0.90866 0.36925 0.0
C2924 C 0.71105 0.89108 0.36377 0.0
C2925 C 0.75432 0.94266 0.36763 0.0
C2926 C 0.76874 0.94273 0.37555 0.0
C2927 C 0.755 0.96048 0.36494 0.0
C2928 C 0.73988 0.9612 0.35683 0.0
C2929 C 0.71955 0.94995 0.3596 0.0
C2930 C 0.70537 0.9505 0.35182 0.0
C2931 C 0.71135 0.96236 0.34128 0.0
C2932 C 0.73152 0.97374 0.33852 0.0
C2933 C 0.74576 0.97322 0.34627 0.0
H2934 H 0.70035 0.96277 0.33527 0.0
H2935 H 0.84072 0.95679 0.40761 0.0
H2936 H 0.96819 0.79416 0.38172 0.0
H2937 H 0.99757 0.80083 0.36994 0.0
H2938 H 0.02896 0.80556 0.4042 0.0
H2939 H 1.00039 0.80084 0.41608 0.0
H2940 H 0.05382 0.83049 0.38989 0.0
H2941 H 0.00613 0.7626 0.38408 0.0
H2942 H 0.97389 0.73401 0.37827 0.0
H2943 H 0.98066 0.7548 0.3407 0.0
H2944 H 0.01285 0.78364 0.34633 0.0
H2945 H 0.10571 0.78361 0.3537 0.0
H2946 H 0.07539 0.78113 0.36212 0.0
H2947 H 0.09886 0.84268 0.3557 0.0
H2948 H 0.1297 0.84537 0.34801 0.0
H2949 H 0.04654 0.78565 0.35518 0.0
H2950 H 0.08428 0.8623 0.3781 0.0
H2951 H 0.11742 0.88703 0.38596 0.0
H2952 H 0.13152 0.84198 0.39346 0.0
H2953 H 0.09841 0.817 0.38577 0.0
C2954 C 0.98142 0.79703 0.38683 0.0
C2955 C 0.9816 0.79672 0.39996 0.0
C2956 C 0.99822 0.80054 0.38001 0.0
C2957 C 0.01549 0.80326 0.3861 0.0
C2958 C 0.01588 0.8034 0.39919 0.0
C2959 C 0.99927 0.80035 0.40602 0.0
C2960 C 0.03302 0.80558 0.37892 0.0
C2961 C 0.05213 0.82068 0.38228 0.0
C2962 C 0.03111 0.79269 0.36907 0.0
C2963 C 0.01177 0.77538 0.36566 0.0
C2964 C 1.00067 0.76114 0.3746 0.0
C2965 C 0.98242 0.74488 0.37134 0.0
C2966 C 0.9752 0.74262 0.35913 0.0
C2967 C 0.98625 0.75659 0.35016 0.0
C2968 C 0.0045 0.77289 0.35338 0.0
C2969 C 0.10427 0.79655 0.35396 0.0
C2970 C 0.11998 0.81461 0.35005 0.0
C2971 C 0.0869 0.79512 0.35873 0.0
C2972 C 0.08484 0.81175 0.35975 0.0
C2973 C 0.10017 0.82968 0.35526 0.0
C2974 C 0.11772 0.83117 0.35068 0.0
C2975 C 0.06723 0.81041 0.36622 0.0
C2976 C 0.04814 0.79554 0.36271 0.0
C2977 C 0.06922 0.82297 0.37629 0.0
C2978 C 0.08895 0.83783 0.38124 0.0
C2979 C 0.09443 0.85768 0.38148 0.0
C2980 C 0.11321 0.87174 0.38589 0.0
C2981 C 0.12659 0.86608 0.39017 0.0
C2982 C 0.12117 0.84635 0.39011 0.0
C2983 C 0.10241 0.83225 0.38572 0.0
H2984 H 0.14113 0.87699 0.39354 0.0
H2985 H 0.96108 0.73003 0.35662 0.0
H2986 H 0.22134 0.2038 0.41818 0.0
H2987 H 0.21071 0.22366 0.40673 0.0
H2988 H 0.23393 0.21373 0.37276 0.0
H2989 H 0.24527 0.19439 0.38425 0.0
H2990 H 0.24196 0.25115 0.3744 0.0
H2991 H 0.18483 0.1875 0.37872 0.0
H2992 H 0.16045 0.15817 0.38998 0.0
H2993 H 0.14291 0.19294 0.41146 0.0
H2994 H 0.1674 0.22255 0.40045 0.0
H2995 H 0.1886 0.28051 0.33412 0.0
H2996 H 0.19839 0.2588 0.3442 0.0
H2997 H 0.18357 0.27277 0.38005 0.0
H2998 H 0.17381 0.29447 0.36998 0.0
H2999 H 0.17078 0.23226 0.37639 0.0
H3000 H 0.22884 0.296 0.37249 0.0
H3001 H 0.25256 0.32516 0.36081 0.0
H3002 H 0.26794 0.28982 0.33815 0.0
H3003 H 0.24398 0.26036 0.34954 0.0
C3004 C 0.22452 0.20612 0.40832 0.0
C3005 C 0.23405 0.19741 0.40211 0.0
C3006 C 0.21824 0.21731 0.40176 0.0
C3007 C 0.22122 0.21989 0.38885 0.0
C3008 C 0.23137 0.21182 0.3827 0.0
C3009 C 0.23769 0.20064 0.38926 0.0
C3010 C 0.21324 0.23054 0.38173 0.0
C3011 C 0.22635 0.24684 0.37469 0.0
C3012 C 0.1929 0.22507 0.38224 0.0
C3013 C 0.17808 0.20727 0.38884 0.0
C3014 C 0.17588 0.18892 0.38591 0.0
C3015 C 0.16203 0.17224 0.39224 0.0
C3016 C 0.15017 0.1737 0.40145 0.0
C3017 C 0.15212 0.19184 0.40433 0.0
C3018 C 0.16597 0.20857 0.39804 0.0
C3019 C 0.18694 0.27852 0.34408 0.0
C3020 C 0.18031 0.28897 0.35128 0.0
C3021 C 0.19271 0.2663 0.34985 0.0
C3022 C 0.19176 0.26429 0.36286 0.0
C3023 C 0.18437 0.27412 0.36999 0.0
C3024 C 0.17889 0.28653 0.36425 0.0
C3025 C 0.19951 0.25285 0.36917 0.0
C3026 C 0.18636 0.23644 0.37605 0.0
C3027 C 0.21977 0.25819 0.36849 0.0
C3028 C 0.23444 0.27593 0.36177 0.0
C3029 C 0.23715 0.29441 0.36494 0.0
C3030 C 0.25065 0.311 0.35839 0.0
C3031 C 0.26172 0.30934 0.34872 0.0
C3032 C 0.25933 0.29108 0.34562 0.0
C3033 C 0.24579 0.27443 0.35213 0.0
H3034 H 0.27217 0.3222 0.34366 0.0
H3035 H 0.13945 0.16076 0.40634 0.0
H3036 H 0.64492 0.54974 0.7345 0.0
H3037 H 0.67379 0.571 0.72169 0.0
H3038 H 0.68747 0.52469 0.71777 0.0
H3039 H 0.65827 0.50317 0.73033 0.0
H3040 H 0.7207 0.56598 0.72571 0.0
H3041 H 0.67037 0.5301 0.69425 0.0
H3042 H 0.63723 0.51725 0.68466 0.0
H3043 H 0.64762 0.57565 0.68061 0.0
H3044 H 0.68072 0.58883 0.69037 0.0
H3045 H 0.79767 0.61876 0.6823 0.0
H3046 H 0.76756 0.59091 0.6907 0.0
H3047 H 0.73831 0.6251 0.69031 0.0
H3048 H 0.76839 0.65294 0.68202 0.0
H3049 H 0.7129 0.58687 0.68351 0.0
H3050 H 0.75914 0.62342 0.71569 0.0
H3051 H 0.79088 0.63935 0.72724 0.0
H3052 H 0.78736 0.58387 0.73217 0.0
H3053 H 0.75572 0.56757 0.72035 0.0
C3054 C 0.65412 0.54414 0.73092 0.0
C3055 C 0.64943 0.52486 0.73339 0.0
C3056 C 0.67052 0.55623 0.72359 0.0
C3057 C 0.68267 0.54935 0.71879 0.0
C3058 C 0.67822 0.53021 0.72139 0.0
C3059 C 0.66156 0.51796 0.72851 0.0
C3060 C 0.70006 0.56231 0.71109 0.0
C3061 C 0.71911 0.57021 0.71636 0.0
C3062 C 0.69778 0.56832 0.69911 0.0
C3063 C 0.67795 0.56043 0.69315 0.0
C3064 C 0.66552 0.54019 0.69143 0.0
C3065 C 0.64676 0.53285 0.68593 0.0
C3066 C 0.6403 0.54562 0.68205 0.0
C3067 C 0.65263 0.56577 0.68363 0.0
C3068 C 0.6714 0.57318 0.68913 0.0
C3069 C 0.78463 0.62011 0.68369 0.0
C3070 C 0.78522 0.6379 0.68145 0.0
C3071 C 0.7675 0.60427 0.68856 0.0
C3072 C 0.75078 0.60603 0.69124 0.0
C3073 C 0.75102 0.62342 0.6883 0.0
C3074 C 0.76818 0.6393 0.68359 0.0
C3075 C 0.73365 0.59051 0.69808 0.0
C3076 C 0.71462 0.58228 0.69272 0.0
C3077 C 0.73591 0.58458 0.71013 0.0
C3078 C 0.75523 0.59431 0.71691 0.0
C3079 C 0.76529 0.61463 0.71903 0.0
C3080 C 0.78325 0.62372 0.72565 0.0
C3081 C 0.79122 0.61262 0.73034 0.0
C3082 C 0.78123 0.59242 0.72841 0.0
C3083 C 0.76329 0.58325 0.72174 0.0
H3084 H 0.80505 0.61964 0.73555 0.0
H3085 H 0.62577 0.53991 0.6778 0.0
H3086 H 0.48766 0.11657 0.71092 0.0
H3087 H 0.46162 0.12185 0.70219 0.0
H3088 H 0.46249 0.15271 0.73569 0.0
H3089 H 0.48825 0.1471 0.74454 0.0
H3090 H 0.42623 0.13013 0.7293 0.0
H3091 H 0.48382 0.17625 0.70744 0.0
H3092 H 0.51383 0.18812 0.69459 0.0
H3093 H 0.47855 0.15144 0.66421 0.0
H3094 H 0.44834 0.13912 0.67694 0.0
H3095 H 0.38396 0.17969 0.68657 0.0
H3096 H 0.41241 0.17749 0.69441 0.0
H3097 H 0.37461 0.11542 0.69936 0.0
H3098 H 0.34621 0.11754 0.69128 0.0
H3099 H 0.43062 0.15676 0.68691 0.0
H3100 H 0.38794 0.10387 0.72753 0.0
H3101 H 0.35986 0.09637 0.74145 0.0
H3102 H 0.36871 0.15397 0.73602 0.0
H3103 H 0.39703 0.16194 0.72226 0.0
C3104 C 0.4824 0.1246 0.71639 0.0
C3105 C 0.49007 0.13145 0.72842 0.0
C3106 C 0.46752 0.12766 0.71137 0.0
C3107 C 0.46019 0.13794 0.71818 0.0
C3108 C 0.46781 0.14472 0.73023 0.0
C3109 C 0.48254 0.14148 0.73529 0.0
C3110 C 0.44431 0.14124 0.7129 0.0
C3111 C 0.42725 0.13594 0.72002 0.0
C3112 C 0.44569 0.14925 0.70089 0.0
C3113 C 0.46384 0.15659 0.69321 0.0
C3114 C 0.48248 0.17058 0.69806 0.0
C3115 C 0.49952 0.17741 0.69079 0.0
C3116 C 0.49811 0.17049 0.67861 0.0
C3117 C 0.47963 0.15676 0.67366 0.0
C3118 C 0.46254 0.14985 0.6809 0.0
C3119 C 0.38182 0.16552 0.68904 0.0
C3120 C 0.36298 0.14869 0.68802 0.0
C3121 C 0.39807 0.16429 0.6936 0.0
C3122 C 0.39562 0.1463 0.69753 0.0
C3123 C 0.37682 0.12947 0.69644 0.0
C3124 C 0.36064 0.13067 0.6918 0.0
C3125 C 0.4125 0.14517 0.7032 0.0
C3126 C 0.42968 0.1509 0.69616 0.0
C3127 C 0.41149 0.13807 0.71542 0.0
C3128 C 0.39447 0.1334 0.72373 0.0
C3129 C 0.38392 0.11495 0.72933 0.0
C3130 C 0.36797 0.11062 0.7372 0.0
C3131 C 0.36245 0.12466 0.73957 0.0
C3132 C 0.37292 0.14308 0.73412 0.0
C3133 C 0.38892 0.1475 0.72627 0.0
H3134 H 0.35011 0.12128 0.74567 0.0
H3135 H 0.51133 0.17581 0.67299 0.0
H3136 H 0.87463 0.35231 0.74534 0.0
H3137 H 0.86773 0.32135 0.73585 0.0
H3138 H 0.88602 0.34934 0.70011 0.0
H3139 H 0.89334 0.38048 0.70956 0.0
H3140 H 0.85062 0.31374 0.69896 0.0
H3141 H 0.9167 0.33971 0.71632 0.0
H3142 H 0.94191 0.35303 0.7331 0.0
H3143 H 0.90824 0.30065 0.75425 0.0
H3144 H 0.88267 0.28712 0.73766 0.0
H3145 H 0.85675 0.23904 0.66658 0.0
H3146 H 0.86439 0.27027 0.67603 0.0
H3147 H 0.85436 0.24438 0.71255 0.0
H3148 H 0.84725 0.21329 0.70305 0.0
H3149 H 0.88527 0.27897 0.71343 0.0
H3150 H 0.81942 0.25231 0.69715 0.0
H3151 H 0.79325 0.2377 0.68099 0.0
H3152 H 0.82405 0.28959 0.65901 0.0
H3153 H 0.85064 0.30438 0.67493 0.0
C3154 C 0.87742 0.35195 0.73549 0.0
C3155 C 0.88463 0.3689 0.72822 0.0
C3156 C 0.87337 0.33423 0.73007 0.0
C3157 C 0.8765 0.33312 0.7173 0.0
C3158 C 0.88346 0.34991 0.70998 0.0
C3159 C 0.88758 0.36767 0.7154 0.0
C3160 C 0.87258 0.31443 0.71159 0.0
C3161 C 0.85835 0.30623 0.702 0.0
C3162 C 0.88226 0.3044 0.71585 0.0
C3163 C 0.89768 0.31249 0.7258 0.0
C3164 C 0.91459 0.3311 0.72459 0.0
C3165 C 0.92896 0.33867 0.73406 0.0
C3166 C 0.92666 0.32772 0.74475 0.0
C3167 C 0.90999 0.30913 0.74597 0.0
C3168 C 0.89557 0.3015 0.73653 0.0
C3169 C 0.85598 0.24001 0.67658 0.0
C3170 C 0.85112 0.22379 0.68409 0.0
C3171 C 0.8604 0.25784 0.682 0.0
C3172 C 0.85955 0.25957 0.69499 0.0
C3173 C 0.85506 0.24339 0.7025 0.0
C3174 C 0.851 0.22567 0.69709 0.0
C3175 C 0.8633 0.27821 0.70076 0.0
C3176 C 0.87749 0.28642 0.71038 0.0
C3177 C 0.85332 0.28807 0.69667 0.0
C3178 C 0.83711 0.27941 0.6872 0.0
C3179 C 0.82067 0.26058 0.68885 0.0
C3180 C 0.80577 0.25226 0.67973 0.0
C3181 C 0.80699 0.26271 0.66899 0.0
C3182 C 0.82313 0.28152 0.66734 0.0
C3183 C 0.83812 0.28988 0.67642 0.0
H3184 H 0.79542 0.25626 0.66195 0.0
H3185 H 0.9378 0.33361 0.75207 0.0
H3186 H 0.17677 0.98676 0.59864 0.0
H3187 H 0.20203 0.01744 0.60821 0.0
H3188 H 0.20929 0.98522 0.63818 0.0
H3189 H 0.18352 0.95459 0.62884 0.0
H3190 H 0.20872 0.01455 0.64761 0.0
H3191 H 0.24416 0.00714 0.61348 0.0
H3192 H 0.25034 0.00232 0.59157 0.0
H3193 H 0.25035 0.05478 0.58133 0.0
H3194 H 0.24408 0.05987 0.60316 0.0
H3195 H 0.31525 0.10696 0.65114 0.0
H3196 H 0.29141 0.07552 0.64177 0.0
H3197 H 0.24307 0.08323 0.65429 0.0
H3198 H 0.26674 0.11435 0.66396 0.0
H3199 H 0.26553 0.0655 0.62389 0.0
H3200 H 0.20294 0.041 0.6602 0.0
H3201 H 0.1991 0.04443 0.68273 0.0
H3202 H 0.25725 0.05267 0.68966 0.0
H3203 H 0.26143 0.04927 0.66718 0.0
C3204 C 0.18387 0.98627 0.60723 0.0
C3205 C 0.17822 0.96832 0.613 0.0
C3206 C 0.19836 0.0038 0.61268 0.0
C3207 C 0.20784 0.0037 0.62385 0.0
C3208 C 0.20221 0.98573 0.62958 0.0
C3209 C 0.18749 0.96823 0.62425 0.0
C3210 C 0.22321 0.0223 0.62976 0.0
C3211 C 0.22115 0.02564 0.6424 0.0
C3212 C 0.23963 0.03677 0.62307 0.0
C3213 C 0.24347 0.03378 0.60994 0.0
C3214 C 0.24537 0.01759 0.60654 0.0
C3215 C 0.24894 0.01484 0.59414 0.0
C3216 C 0.25073 0.02823 0.58506 0.0
C3217 C 0.24899 0.04443 0.58837 0.0
C3218 C 0.24547 0.04728 0.60076 0.0
C3219 C 0.29954 0.10192 0.65196 0.0
C3220 C 0.29291 0.11309 0.65841 0.0
C3221 C 0.28592 0.08395 0.64656 0.0
C3222 C 0.26541 0.07684 0.64744 0.0
C3223 C 0.25878 0.08814 0.65371 0.0
C3224 C 0.27237 0.10599 0.65922 0.0
C3225 C 0.25096 0.05772 0.64169 0.0
C3226 C 0.25313 0.05434 0.62908 0.0
C3227 C 0.23492 0.04299 0.64847 0.0
C3228 C 0.23253 0.04501 0.66201 0.0
C3229 C 0.21488 0.04349 0.66654 0.0
C3230 C 0.21265 0.04546 0.6793 0.0
C3231 C 0.22792 0.04877 0.68762 0.0
C3232 C 0.24545 0.05013 0.6832 0.0
C3233 C 0.24778 0.04826 0.67045 0.0
H3234 H 0.22618 0.05031 0.69749 0.0
H3235 H 0.25349 0.02608 0.57547 0.0
H3236 H 0.01156 0.19952 0.59797 0.0
H3237 H 0.98183 0.19627 0.60767 0.0
H3238 H 0.00898 0.2039 0.64396 0.0
H3239 H 0.03944 0.20911 0.6343 0.0
H3240 H 0.95532 0.17236 0.62171 0.0
H3241 H 0.9916 0.22306 0.66481 0.0
H3242 H 0.02293 0.2528 0.6706 0.0
H3243 H 0.03299 0.27001 0.63222 0.0
H3244 H 0.00162 0.24051 0.62623 0.0
H3245 H 0.87562 0.15771 0.65988 0.0
H3246 H 0.90715 0.16085 0.65333 0.0
H3247 H 0.92996 0.22208 0.64601 0.0
H3248 H 0.899 0.21921 0.65352 0.0
H3249 H 0.95861 0.21897 0.65404 0.0
H3250 H 0.90926 0.1845 0.62248 0.0
H3251 H 0.87705 0.15838 0.61435 0.0
H3252 H 0.89234 0.11517 0.62491 0.0
H3253 H 0.92457 0.14105 0.63323 0.0
C3254 C 0.01149 0.20099 0.608 0.0
C3255 C 0.02823 0.20482 0.61526 0.0
C3256 C 0.99425 0.1988 0.61358 0.0
C3257 C 0.99309 0.20009 0.62659 0.0
C3258 C 0.00952 0.20329 0.63389 0.0
C3259 C 0.02693 0.20593 0.62831 0.0
C3260 C 0.97477 0.19816 0.63246 0.0
C3261 C 0.95612 0.18259 0.62878 0.0
C3262 C 0.97554 0.21162 0.64155 0.0
C3263 C 0.99438 0.22946 0.64507 0.0
C3264 C 1.00048 0.23322 0.65762 0.0
C3265 C 0.01824 0.25003 0.66093 0.0
C3266 C 0.02998 0.26325 0.65177 0.0
C3267 C 0.02393 0.25972 0.63929 0.0
C3268 C 0.00617 0.24295 0.63593 0.0
C3269 C 0.88759 0.17195 0.65727 0.0
C3270 C 0.88503 0.18833 0.6575 0.0
C3271 C 0.90554 0.17369 0.6533 0.0
C3272 C 0.92093 0.19164 0.6489 0.0
C3273 C 0.91844 0.20807 0.64937 0.0
C3274 C 0.9007 0.20641 0.65361 0.0
C3275 C 0.93923 0.19327 0.64325 0.0
C3276 C 0.95786 0.20872 0.647 0.0
C3277 C 0.93839 0.18025 0.63382 0.0
C3278 C 0.91924 0.16469 0.62856 0.0
C3279 C 0.90572 0.16942 0.6231 0.0
C3280 C 0.88746 0.15467 0.61846 0.0
C3281 C 0.88264 0.13513 0.61914 0.0
C3282 C 0.8961 0.13032 0.6244 0.0
C3283 C 0.91437 0.14502 0.62907 0.0
H3284 H 0.86848 0.12372 0.61557 0.0
H3285 H 0.04373 0.27624 0.65436 0.0
H3286 H 0.8074 0.83396 0.61309 0.0
H3287 H 0.81667 0.81313 0.62457 0.0
H3288 H 0.76482 0.76191 0.61009 0.0
H3289 H 0.75489 0.78269 0.59904 0.0
H3290 H 0.76935 0.75785 0.63418 0.0
H3291 H 0.8117 0.77744 0.59837 0.0
H3292 H 0.83627 0.80069 0.5836 0.0
H3293 H 0.879 0.82691 0.61329 0.0
H3294 H 0.85459 0.80397 0.62827 0.0
H3295 H 0.79716 0.68684 0.64519 0.0
H3296 H 0.78895 0.70972 0.63546 0.0
H3297 H 0.83842 0.75776 0.65443 0.0
H3298 H 0.84694 0.73492 0.6642 0.0
H3299 H 0.8359 0.76454 0.62915 0.0
H3300 H 0.79342 0.74305 0.66472 0.0
H3301 H 0.76884 0.71861 0.67895 0.0
H3302 H 0.72611 0.69488 0.64909 0.0
H3303 H 0.75055 0.71899 0.63461 0.0
C3304 C 0.79782 0.81827 0.61244 0.0
C3305 C 0.78037 0.81 0.60514 0.0
C3306 C 0.80328 0.80637 0.61891 0.0
C3307 C 0.79158 0.78596 0.61806 0.0
C3308 C 0.77411 0.77764 0.61084 0.0
C3309 C 0.76856 0.78954 0.60443 0.0
C3310 C 0.79747 0.77327 0.6248 0.0
C3311 C 0.78382 0.75917 0.63296 0.0
C3312 C 0.81654 0.77532 0.62346 0.0
C3313 C 0.83125 0.78913 0.61446 0.0
C3314 C 0.82628 0.78827 0.60177 0.0
C3315 C 0.84019 0.80137 0.59335 0.0
C3316 C 0.85916 0.81531 0.59751 0.0
C3317 C 0.86429 0.81613 0.61008 0.0
C3318 C 0.85043 0.80307 0.61854 0.0
C3319 C 0.80632 0.70225 0.64734 0.0
C3320 C 0.82263 0.70904 0.65555 0.0
C3321 C 0.80154 0.7153 0.6418 0.0
C3322 C 0.81295 0.73538 0.64434 0.0
C3323 C 0.82939 0.74228 0.65241 0.0
C3324 C 0.83415 0.7292 0.65802 0.0
C3325 C 0.80772 0.74907 0.6384 0.0
C3326 C 0.82149 0.76334 0.6304 0.0
C3327 C 0.78872 0.74709 0.63983 0.0
C3328 C 0.77388 0.73275 0.64856 0.0
C3329 C 0.77883 0.73254 0.66116 0.0
C3330 C 0.76492 0.71875 0.66928 0.0
C3331 C 0.74594 0.70518 0.66492 0.0
C3332 C 0.74082 0.7054 0.65245 0.0
C3333 C 0.75469 0.71914 0.64428 0.0
H3334 H 0.73519 0.6945 0.67122 0.0
H3335 H 0.86991 0.82543 0.59098 0.0
H3336 H 0.03921 0.80859 0.62253 0.0
H3337 H 0.01009 0.78584 0.63466 0.0
H3338 H 0.97152 0.78895 0.60689 0.0
H3339 H 1.00058 0.81143 0.59462 0.0
H3340 H 0.96259 0.79284 0.6332 0.0
H3341 H 0.97433 0.75131 0.60555 0.0
H3342 H 0.99484 0.73909 0.59595 0.0
H3343 H 0.00603 0.72302 0.63198 0.0
H3344 H 0.98582 0.73543 0.64182 0.0
H3345 H 0.87009 0.71286 0.65211 0.0
H3346 H 0.8996 0.73937 0.64279 0.0
H3347 H 0.935 0.71646 0.65863 0.0
H3348 H 0.90472 0.68825 0.66621 0.0
H3349 H 0.94656 0.72417 0.63814 0.0
H3350 H 0.93857 0.7691 0.66657 0.0
H3351 H 0.92132 0.78475 0.67643 0.0
H3352 H 0.90387 0.79474 0.64051 0.0
H3353 H 0.92191 0.78016 0.63038 0.0
C3354 C 0.02451 0.80446 0.61906 0.0
C3355 C 0.0221 0.81168 0.60763 0.0
C3356 C 0.00793 0.79148 0.62596 0.0
C3357 C 0.9887 0.78574 0.62165 0.0
C3358 C 0.98626 0.79324 0.61037 0.0
C3359 C 0.00282 0.80595 0.60335 0.0
C3360 C 0.97111 0.77152 0.62875 0.0
C3361 C 0.95895 0.77777 0.63431 0.0
C3362 C 0.96668 0.75204 0.63034 0.0
C3363 C 0.97875 0.74451 0.62443 0.0
C3364 C 0.98132 0.74535 0.61144 0.0
C3365 C 0.99286 0.73835 0.60595 0.0
C3366 C 0.00178 0.73034 0.61336 0.0
C3367 C 0.99914 0.72926 0.62626 0.0
C3368 C 0.98764 0.73627 0.63179 0.0
C3369 C 0.88429 0.71384 0.65388 0.0
C3370 C 0.88527 0.69883 0.66018 0.0
C3371 C 0.90137 0.72924 0.64863 0.0
C3372 C 0.92001 0.73054 0.65013 0.0
C3373 C 0.92097 0.71598 0.65715 0.0
C3374 C 0.90371 0.69995 0.66168 0.0
C3375 C 0.93795 0.74542 0.64324 0.0
C3376 C 0.95018 0.73928 0.63746 0.0
C3377 C 0.94262 0.76512 0.64164 0.0
C3378 C 0.93137 0.77335 0.64775 0.0
C3379 C 0.93095 0.77453 0.6608 0.0
C3380 C 0.92108 0.78324 0.66643 0.0
C3381 C 0.91119 0.79036 0.65914 0.0
C3382 C 0.91145 0.78913 0.64616 0.0
C3383 C 0.92167 0.78086 0.64046 0.0
H3384 H 0.90347 0.79698 0.66355 0.0
H3385 H 0.0107 0.72492 0.60909 0.0
H3386 H 0.21389 0.22944 0.59848 0.0
H3387 H 0.23759 0.22388 0.61014 0.0
H3388 H 0.18973 0.1786 0.63114 0.0
H3389 H 0.16568 0.1833 0.6191 0.0
H3390 H 0.22266 0.20684 0.64584 0.0
H3391 H 0.20965 0.16473 0.61038 0.0
H3392 H 0.20681 0.15664 0.58797 0.0
H3393 H 0.26849 0.19886 0.58309 0.0
H3394 H 0.27162 0.20743 0.60545 0.0
H3395 H 0.28397 0.15811 0.66067 0.0
H3396 H 0.25664 0.16256 0.65317 0.0
H3397 H 0.29791 0.22355 0.64697 0.0
H3398 H 0.32502 0.21944 0.65521 0.0
H3399 H 0.2667 0.18623 0.62586 0.0
H3400 H 0.27861 0.23168 0.66041 0.0
H3401 H 0.28014 0.24348 0.68187 0.0
H3402 H 0.22007 0.19789 0.68791 0.0
H3403 H 0.21849 0.18533 0.6666 0.0
C3404 C 0.20824 0.21801 0.60539 0.0
C3405 C 0.1877 0.20676 0.60773 0.0
C3406 C 0.2219 0.21496 0.61212 0.0
C3407 C 0.21543 0.20076 0.62145 0.0
C3408 C 0.19504 0.18966 0.62397 0.0
C3409 C 0.18131 0.1925 0.61712 0.0
C3410 C 0.23003 0.19781 0.62873 0.0
C3411 C 0.23212 0.20206 0.64153 0.0
C3412 C 0.24265 0.19202 0.62301 0.0
C3413 C 0.24082 0.18685 0.60957 0.0
C3414 C 0.22257 0.17242 0.60451 0.0
C3415 C 0.22091 0.16772 0.59182 0.0
C3416 C 0.23745 0.17727 0.58411 0.0
C3417 C 0.25569 0.1915 0.58907 0.0
C3418 C 0.25741 0.19627 0.60176 0.0
C3419 C 0.28705 0.17263 0.65828 0.0
C3420 C 0.30655 0.18857 0.65895 0.0
C3421 C 0.27143 0.17516 0.65393 0.0
C3422 C 0.27508 0.19356 0.64992 0.0
C3423 C 0.29455 0.20943 0.65052 0.0
C3424 C 0.31007 0.20701 0.65511 0.0
C3425 C 0.25948 0.1954 0.64302 0.0
C3426 C 0.25715 0.19085 0.63023 0.0
C3427 C 0.24681 0.20118 0.64875 0.0
C3428 C 0.2487 0.20713 0.66202 0.0
C3429 C 0.266 0.22369 0.66644 0.0
C3430 C 0.26679 0.23069 0.67854 0.0
C3431 C 0.25026 0.22139 0.68628 0.0
C3432 C 0.2329 0.20504 0.68194 0.0
C3433 C 0.23212 0.19788 0.66988 0.0
H3434 H 0.25087 0.22689 0.69563 0.0
H3435 H 0.23614 0.1736 0.57428 0.0
H3436 H 0.75861 0.96607 0.6069 0.0
H3437 H 0.76674 0.99762 0.61604 0.0
H3438 H 0.82113 0.00388 0.63118 0.0
H3439 H 0.81323 0.97244 0.62197 0.0
H3440 H 0.8017 0.01345 0.6482 0.0
H3441 H 0.82222 0.02899 0.60574 0.0
H3442 H 0.81836 0.02587 0.58288 0.0
H3443 H 0.77176 0.03996 0.5846 0.0
H3444 H 0.77513 0.04287 0.6075 0.0
H3445 H 0.84832 0.11416 0.66373 0.0
H3446 H 0.84034 0.08268 0.65468 0.0
H3447 H 0.78664 0.07685 0.63861 0.0
H3448 H 0.79463 0.1085 0.64751 0.0
H3449 H 0.80588 0.06705 0.62211 0.0
H3450 H 0.7854 0.05133 0.66473 0.0
H3451 H 0.78968 0.05469 0.68757 0.0
H3452 H 0.83676 0.04132 0.68549 0.0
H3453 H 0.83292 0.03812 0.66261 0.0
C3454 C 0.77239 0.97424 0.61208 0.0
C3455 C 0.78531 0.96677 0.61368 0.0
C3456 C 0.77699 0.99224 0.61732 0.0
C3457 C 0.79463 0.00316 0.62419 0.0
C3458 C 0.80743 0.99565 0.62594 0.0
C3459 C 0.80285 0.97766 0.6207 0.0
C3460 C 0.79972 0.02242 0.62957 0.0
C3461 C 0.80286 0.02526 0.64248 0.0
C3462 C 0.80084 0.03766 0.62212 0.0
C3463 C 0.79879 0.03594 0.60835 0.0
C3464 C 0.81103 0.03125 0.60126 0.0
C3465 C 0.80895 0.02955 0.58829 0.0
C3466 C 0.79479 0.03266 0.5823 0.0
C3467 C 0.7827 0.03752 0.58926 0.0
C3468 C 0.7847 0.03921 0.60223 0.0
C3469 C 0.83471 0.10613 0.65837 0.0
C3470 C 0.82198 0.11374 0.65646 0.0
C3471 C 0.83018 0.08812 0.6532 0.0
C3472 C 0.81275 0.0773 0.64612 0.0
C3473 C 0.80014 0.08496 0.64407 0.0
C3474 C 0.80471 0.10302 0.64919 0.0
C3475 C 0.80776 0.05806 0.64075 0.0
C3476 C 0.80468 0.05522 0.62783 0.0
C3477 C 0.80672 0.04284 0.64819 0.0
C3478 C 0.80896 0.04462 0.66195 0.0
C3479 C 0.79674 0.04922 0.66914 0.0
C3480 C 0.79906 0.05105 0.68209 0.0
C3481 C 0.81347 0.04819 0.68797 0.0
C3482 C 0.82559 0.0435 0.68092 0.0
C3483 C 0.82333 0.04165 0.66796 0.0
H3484 H 0.81526 0.04965 0.698 0.0
H3485 H 0.79321 0.03135 0.57226 0.0
H3486 H 0.46816 0.37235 0.73592 0.0
H3487 H 0.44224 0.3415 0.72692 0.0
H3488 H 0.48702 0.32939 0.71307 0.0
H3489 H 0.513 0.36019 0.72204 0.0
H3490 H 0.45954 0.32186 0.6956 0.0
H3491 H 0.45934 0.30642 0.73895 0.0
H3492 H 0.45722 0.31065 0.76157 0.0
H3493 H 0.39857 0.30224 0.75682 0.0
H3494 H 0.40045 0.29824 0.73414 0.0
H3495 H 0.40128 0.22164 0.68125 0.0
H3496 H 0.42515 0.25325 0.69014 0.0
H3497 H 0.37717 0.26071 0.70369 0.0
H3498 H 0.35303 0.22874 0.69495 0.0
H3499 H 0.40506 0.27138 0.72105 0.0
H3500 H 0.40485 0.28579 0.67773 0.0
H3501 H 0.40711 0.28173 0.6551 0.0
H3502 H 0.46644 0.29195 0.65978 0.0
H3503 H 0.46448 0.29588 0.68246 0.0
C3504 C 0.47248 0.36303 0.73105 0.0
C3505 C 0.49266 0.36872 0.72972 0.0
C3506 C 0.45765 0.34541 0.7259 0.0
C3507 C 0.46267 0.33302 0.71942 0.0
C3508 C 0.48279 0.33872 0.71801 0.0
C3509 C 0.49763 0.35637 0.72311 0.0
C3510 C 0.44701 0.3142 0.71397 0.0
C3511 C 0.44775 0.31073 0.7012 0.0
C3512 C 0.4313 0.29989 0.72119 0.0
C3513 C 0.43013 0.30224 0.73483 0.0
C3514 C 0.44606 0.30564 0.74272 0.0
C3515 C 0.44489 0.30796 0.75555 0.0
C3516 C 0.4278 0.30677 0.76063 0.0
C3517 C 0.41181 0.3032 0.75288 0.0
C3518 C 0.41292 0.30088 0.74003 0.0
C3519 C 0.39573 0.23003 0.68602 0.0
C3520 C 0.37521 0.22273 0.68726 0.0
C3521 C 0.40945 0.24817 0.69109 0.0
C3522 C 0.40299 0.25957 0.6974 0.0
C3523 C 0.3825 0.25222 0.69881 0.0
C3524 C 0.36873 0.23396 0.6938 0.0
C3525 C 0.41769 0.27895 0.7027 0.0
C3526 C 0.41677 0.28254 0.71544 0.0
C3527 C 0.43325 0.29339 0.69545 0.0
C3528 C 0.43447 0.29103 0.68181 0.0
C3529 C 0.41834 0.28707 0.67394 0.0
C3530 C 0.41959 0.28484 0.6611 0.0
C3531 C 0.43693 0.28663 0.65601 0.0
C3532 C 0.45304 0.29062 0.66374 0.0
C3533 C 0.45188 0.29288 0.67659 0.0
H3534 H 0.43785 0.28487 0.64607 0.0
H3535 H 0.42692 0.30858 0.77057 0.0
H3536 H 0.6489 0.15307 0.72162 0.0
H3537 H 0.67847 0.15971 0.70981 0.0
H3538 H 0.68125 0.11357 0.72928 0.0
H3539 H 0.65135 0.10626 0.74075 0.0
H3540 H 0.71787 0.14847 0.72867 0.0
H3541 H 0.6648 0.10607 0.70044 0.0
H3542 H 0.63483 0.09616 0.68759 0.0
H3543 H 0.66592 0.14885 0.66637 0.0
H3544 H 0.69601 0.15921 0.67923 0.0
H3545 H 0.77214 0.11945 0.68819 0.0
H3546 H 0.74226 0.11844 0.69636 0.0
H3547 H 0.76769 0.17994 0.68913 0.0
H3548 H 0.79806 0.18123 0.68147 0.0
H3549 H 0.7183 0.14136 0.68268 0.0
H3550 H 0.76962 0.18599 0.71238 0.0
H3551 H 0.80003 0.19617 0.72484 0.0
H3552 H 0.77246 0.1403 0.74276 0.0
H3553 H 0.74196 0.12968 0.73019 0.0
C3554 C 0.65557 0.1441 0.72328 0.0
C3555 C 0.64764 0.12915 0.73224 0.0
C3556 C 0.67258 0.14802 0.71655 0.0
C3557 C 0.68211 0.13717 0.71868 0.0
C3558 C 0.67425 0.12224 0.72756 0.0
C3559 C 0.65716 0.11817 0.73417 0.0
C3560 C 0.70038 0.14137 0.71178 0.0
C3561 C 0.71789 0.14694 0.71861 0.0
C3562 C 0.70064 0.13976 0.69863 0.0
C3563 C 0.68257 0.13353 0.6909 0.0
C3564 C 0.66518 0.11563 0.69312 0.0
C3565 C 0.64819 0.10992 0.68581 0.0
C3566 C 0.64845 0.1219 0.6762 0.0
C3567 C 0.66573 0.1396 0.67384 0.0
C3568 C 0.68275 0.1454 0.68113 0.0
C3569 C 0.77125 0.1327 0.6882 0.0
C3570 C 0.78726 0.15033 0.68399 0.0
C3571 C 0.75419 0.13209 0.69283 0.0
C3572 C 0.7528 0.1491 0.69333 0.0
C3573 C 0.7685 0.16665 0.6888 0.0
C3574 C 0.78576 0.16734 0.68434 0.0
C3575 C 0.73557 0.14852 0.6996 0.0
C3576 C 0.71826 0.14334 0.6927 0.0
C3577 C 0.7355 0.15075 0.71266 0.0
C3578 C 0.75366 0.15698 0.72025 0.0
C3579 C 0.77014 0.1758 0.71887 0.0
C3580 C 0.78735 0.18167 0.72597 0.0
C3581 C 0.78818 0.16887 0.73457 0.0
C3582 C 0.77179 0.15017 0.73608 0.0
C3583 C 0.75454 0.14422 0.72897 0.0
H3584 H 0.80149 0.17351 0.74009 0.0
H3585 H 0.63528 0.11744 0.67055 0.0
H3586 H 0.89916 0.52187 0.71984 0.0
H3587 H 0.89054 0.54325 0.70834 0.0
H3588 H 0.86488 0.55213 0.74156 0.0
H3589 H 0.87298 0.5303 0.75305 0.0
H3590 H 0.84131 0.54549 0.7211 0.0
H3591 H 0.91013 0.58678 0.73218 0.0
H3592 H 0.9455 0.59622 0.73341 0.0
H3593 H 0.94834 0.59565 0.69346 0.0
H3594 H 0.91289 0.58593 0.692 0.0
H3595 H 0.84149 0.63283 0.70434 0.0
H3596 H 0.84873 0.60938 0.71459 0.0
H3597 H 0.86641 0.59666 0.67932 0.0
H3598 H 0.85902 0.61999 0.66905 0.0
H3599 H 0.89355 0.60446 0.69993 0.0
H3600 H 0.82527 0.56575 0.68886 0.0
H3601 H 0.79009 0.55685 0.68767 0.0
H3602 H 0.78579 0.5519 0.72749 0.0
H3603 H 0.82122 0.56165 0.72899 0.0
C3604 C 0.89153 0.52824 0.72468 0.0
C3605 C 0.88678 0.52443 0.73737 0.0
C3606 C 0.88675 0.54057 0.71812 0.0
C3607 C 0.87724 0.5494 0.72413 0.0
C3608 C 0.87227 0.54548 0.73676 0.0
C3609 C 0.87707 0.53316 0.74333 0.0
C3610 C 0.87258 0.56285 0.71727 0.0
C3611 C 0.85274 0.55852 0.7166 0.0
C3612 C 0.88747 0.57955 0.71113 0.0
C3613 C 0.9088 0.58542 0.71198 0.0
C3614 C 0.91825 0.5885 0.72366 0.0
C3615 C 0.93832 0.59394 0.7244 0.0
C3616 C 0.94915 0.59648 0.71352 0.0
C3617 C 0.93993 0.59364 0.70188 0.0
C3618 C 0.91985 0.58818 0.70109 0.0
C3619 C 0.84694 0.62501 0.69881 0.0
C3620 C 0.84953 0.62797 0.68591 0.0
C3621 C 0.85098 0.61162 0.70464 0.0
C3622 C 0.85796 0.60126 0.69767 0.0
C3623 C 0.86092 0.60447 0.68482 0.0
C3624 C 0.85653 0.61762 0.67895 0.0
C3625 C 0.86235 0.58719 0.70388 0.0
C3626 C 0.88212 0.5914 0.70441 0.0
C3627 C 0.84738 0.57041 0.7099 0.0
C3628 C 0.82606 0.56474 0.70905 0.0
C3629 C 0.81696 0.56313 0.69739 0.0
C3630 C 0.79695 0.55792 0.69666 0.0
C3631 C 0.78574 0.55394 0.70751 0.0
C3632 C 0.79453 0.55514 0.71911 0.0
C3633 C 0.81461 0.56058 0.71991 0.0
H3634 H 0.77023 0.54981 0.70691 0.0
H3635 H 0.96469 0.60069 0.71411 0.0
H3636 H 0.4698 0.90978 0.17888 0.0
H3637 H 0.47851 0.92321 0.15785 0.0
H3638 H 0.46583 0.96871 0.16807 0.0
H3639 H 0.45659 0.95499 0.18897 0.0
H3640 H 0.45197 0.95677 0.14605 0.0
H3641 H 0.51468 0.97612 0.16581 0.0
H3642 H 0.53945 0.97116 0.17716 0.0
H3643 H 0.53935 0.93457 0.14741 0.0
H3644 H 0.51437 0.93912 0.13596 0.0
H3645 H 0.53447 0.02234 0.09902 0.0
H3646 H 0.52433 0.00536 0.11882 0.0
H3647 H 0.46866 0.96227 0.10229 0.0
H3648 H 0.47818 0.97997 0.0826 0.0
H3649 H 0.51625 0.97208 0.1272 0.0
H3650 H 0.43217 0.9446 0.12386 0.0
H3651 H 0.4093 0.95357 0.11374 0.0
H3652 H 0.45565 0.01366 0.11281 0.0
H3653 H 0.4787 0.00508 0.12305 0.0
C3654 C 0.46896 0.9227 0.17664 0.0
C3655 C 0.46255 0.93134 0.18561 0.0
C3656 C 0.47397 0.9304 0.16461 0.0
C3657 C 0.4731 0.94718 0.16134 0.0
C3658 C 0.46658 0.95573 0.17029 0.0
C3659 C 0.46132 0.94789 0.18225 0.0
C3660 C 0.47902 0.95592 0.14866 0.0
C3661 C 0.46601 0.96005 0.14194 0.0
C3662 C 0.49744 0.96049 0.14326 0.0
C3663 C 0.51251 0.9578 0.15009 0.0
C3664 C 0.51984 0.96691 0.16173 0.0
C3665 C 0.53393 0.96418 0.16818 0.0
C3666 C 0.54093 0.95251 0.16302 0.0
C3667 C 0.53389 0.94358 0.1514 0.0
C3668 C 0.51978 0.94624 0.14492 0.0
C3669 C 0.51994 0.00939 0.09958 0.0
C3670 C 0.50704 0.0028 0.08918 0.0
C3671 C 0.51425 0.99952 0.11093 0.0
C3672 C 0.49557 0.98265 0.1122 0.0
C3673 C 0.48299 0.97548 0.10168 0.0
C3674 C 0.48858 0.98551 0.09034 0.0
C3675 C 0.48924 0.97303 0.12461 0.0
C3676 C 0.50214 0.96867 0.13128 0.0
C3677 C 0.47098 0.96879 0.13012 0.0
C3678 C 0.4572 0.97415 0.12409 0.0
C3679 C 0.43745 0.95973 0.12152 0.0
C3680 C 0.42446 0.96475 0.11576 0.0
C3681 C 0.43104 0.98416 0.1126 0.0
C3682 C 0.45059 0.99862 0.11523 0.0
C3683 C 0.46363 0.99368 0.121 0.0
H3684 H 0.42097 0.98801 0.10813 0.0
H3685 H 0.55183 0.95042 0.16803 0.0
H3686 H 0.07598 0.56259 0.17933 0.0
H3687 H 0.0622 0.55526 0.1582 0.0
H3688 H 0.02124 0.4959 0.16886 0.0
H3689 H 0.03479 0.50316 0.19009 0.0
H3690 H 0.03789 0.49805 0.14576 0.0
H3691 H 0.00551 0.52805 0.16725 0.0
H3692 H 0.00429 0.55374 0.17968 0.0
H3693 H 0.03608 0.59568 0.15114 0.0
H3694 H 0.03774 0.57027 0.13862 0.0
H3695 H 0.96559 0.47102 0.09756 0.0
H3696 H 0.98276 0.47871 0.11778 0.0
H3697 H 0.02338 0.53718 0.10533 0.0
H3698 H 0.00616 0.52955 0.0851 0.0
H3699 H 0.00819 0.53614 0.12887 0.0
H3700 H 0.03999 0.50678 0.10706 0.0
H3701 H 0.04173 0.48165 0.09432 0.0
H3702 H 0.01177 0.43923 0.12293 0.0
H3703 H 0.00968 0.46409 0.1358 0.0
C3704 C 0.06397 0.548 0.17721 0.0
C3705 C 0.05635 0.53351 0.18643 0.0
C3706 C 0.05618 0.54381 0.16511 0.0
C3707 C 0.04056 0.52509 0.16201 0.0
C3708 C 0.03332 0.51043 0.17107 0.0
C3709 C 0.0411 0.5146 0.18319 0.0
C3710 C 0.0313 0.52104 0.14944 0.0
C3711 C 0.03119 0.50621 0.14212 0.0
C3712 C 0.02303 0.53204 0.14458 0.0
C3713 C 0.02192 0.54731 0.15206 0.0
C3714 C 0.01238 0.54278 0.16367 0.0
C3715 C 0.01158 0.55729 0.17072 0.0
C3716 C 0.02015 0.57635 0.16621 0.0
C3717 C 0.02947 0.58092 0.15463 0.0
C3718 C 0.03034 0.56647 0.14754 0.0
C3719 C 0.97813 0.48552 0.09918 0.0
C3720 C 0.98461 0.49971 0.0898 0.0
C3721 C 0.988 0.48985 0.11067 0.0
C3722 C 0.00442 0.50846 0.11299 0.0
C3723 C 0.01078 0.52272 0.10369 0.0
C3724 C 1.00103 0.51833 0.09215 0.0
C3725 C 0.01468 0.5131 0.12523 0.0
C3726 C 0.01496 0.52802 0.1325 0.0
C3727 C 0.02318 0.50225 0.13 0.0
C3728 C 0.0245 0.48726 0.12234 0.0
C3729 C 0.03362 0.49205 0.11059 0.0
C3730 C 0.0347 0.47786 0.10335 0.0
C3731 C 0.02678 0.45883 0.10779 0.0
C3732 C 0.01786 0.45397 0.1195 0.0
C3733 C 0.01676 0.46812 0.12678 0.0
H3734 H 0.02762 0.44786 0.10216 0.0
H3735 H 0.01951 0.58756 0.17169 0.0
H3736 H 0.43868 0.51502 0.17758 0.0
H3737 H 0.44388 0.50649 0.15649 0.0
H3738 H 0.50661 0.53268 0.16417 0.0
H3739 H 0.50153 0.54112 0.18521 0.0
H3740 H 0.50043 0.54403 0.14193 0.0
H3741 H 0.47515 0.48258 0.16354 0.0
H3742 H 0.4507 0.4548 0.17595 0.0
H3743 H 0.40632 0.44099 0.14763 0.0
H3744 H 0.43046 0.46887 0.13512 0.0
H3745 H 0.53523 0.50659 0.09509 0.0
H3746 H 0.52512 0.51542 0.11435 0.0
H3747 H 0.46409 0.48479 0.10183 0.0
H3748 H 0.47405 0.47509 0.08265 0.0
H3749 H 0.46617 0.47616 0.12538 0.0
H3750 H 0.49177 0.53554 0.10285 0.0
H3751 H 0.51586 0.56324 0.09025 0.0
H3752 H 0.55887 0.58129 0.11991 0.0
H3753 H 0.53514 0.55352 0.13263 0.0
C3754 C 0.45355 0.51876 0.17483 0.0
C3755 C 0.46969 0.52883 0.18311 0.0
C3756 C 0.45651 0.51391 0.16274 0.0
C3757 C 0.47564 0.51887 0.15871 0.0
C3758 C 0.49172 0.5288 0.167 0.0
C3759 C 0.48879 0.53367 0.17904 0.0
C3760 C 0.47914 0.51401 0.14585 0.0
C3761 C 0.49307 0.52916 0.13835 0.0
C3762 C 0.46902 0.49472 0.14097 0.0
C3763 C 0.45454 0.47793 0.14846 0.0
C3764 C 0.46013 0.47371 0.16 0.0
C3765 C 0.44634 0.45794 0.16705 0.0
C3766 C 0.42695 0.44617 0.16259 0.0
C3767 C 0.42133 0.45014 0.15107 0.0
C3768 C 0.43506 0.46591 0.144 0.0
C3769 C 0.51962 0.50163 0.09641 0.0
C3770 C 0.50546 0.48998 0.08731 0.0
C3771 C 0.51388 0.50691 0.10741 0.0
C3772 C 0.49384 0.50099 0.10955 0.0
C3773 C 0.47965 0.48961 0.10041 0.0
C3774 C 0.48539 0.48422 0.08938 0.0
C3775 C 0.48782 0.50613 0.12154 0.0
C3776 C 0.4734 0.49107 0.12888 0.0
C3777 C 0.4974 0.52554 0.12626 0.0
C3778 C 0.5117 0.54235 0.11867 0.0
C3779 C 0.50641 0.54533 0.10666 0.0
C3780 C 0.52 0.56106 0.0995 0.0
C3781 C 0.5389 0.574 0.10427 0.0
C3782 C 0.54423 0.57125 0.11623 0.0
C3783 C 0.53071 0.55553 0.12342 0.0
H3784 H 0.5494 0.58616 0.09871 0.0
H3785 H 0.41629 0.43396 0.16806 0.0
H3786 H 0.97243 0.46154 0.82016 0.0
H3787 H 0.98564 0.46884 0.84143 0.0
H3788 H 0.93953 0.48123 0.85198 0.0
H3789 H 0.92642 0.4742 0.83062 0.0
H3790 H 0.97394 0.50756 0.86188 0.0
H3791 H 0.937 0.43784 0.85982 0.0
H3792 H 0.92673 0.40517 0.85114 0.0
H3793 H 0.98585 0.41508 0.85646 0.0
H3794 H 0.99655 0.44794 0.86501 0.0
H3795 H 0.99339 0.50829 0.92673 0.0
H3796 H 0.9772 0.50022 0.90633 0.0
H3797 H 0.02047 0.48569 0.89286 0.0
H3798 H 0.03593 0.4924 0.91347 0.0
H3799 H 0.98513 0.45963 0.88498 0.0
H3800 H 0.02206 0.53056 0.88609 0.0
H3801 H 0.03142 0.56288 0.89505 0.0
H3802 H 0.97093 0.54993 0.89201 0.0
H3803 H 0.96118 0.51747 0.88312 0.0
C3804 C 0.96506 0.46573 0.82703 0.0
C3805 C 0.94832 0.46716 0.82377 0.0
C3806 C 0.9726 0.46988 0.83918 0.0
C3807 C 0.96336 0.47525 0.84836 0.0
C3808 C 0.94686 0.47707 0.84506 0.0
C3809 C 0.93942 0.47308 0.83287 0.0
C3810 C 0.97097 0.47897 0.86138 0.0
C3811 C 0.97613 0.49698 0.867 0.0
C3812 C 0.97403 0.46524 0.86801 0.0
C3813 C 0.96761 0.44542 0.86296 0.0
C3814 C 0.94784 0.43311 0.85906 0.0
C3815 C 0.94194 0.41455 0.85418 0.0
C3816 C 0.95564 0.40807 0.85323 0.0
C3817 C 0.97526 0.42013 0.85719 0.0
C3818 C 0.98125 0.43871 0.86207 0.0
C3819 C 0.99933 0.50311 0.9195 0.0
C3820 C 0.01604 0.50104 0.92179 0.0
C3821 C 0.9902 0.49877 0.90777 0.0
C3822 C 0.99782 0.49267 0.89798 0.0
C3823 C 0.01438 0.49046 0.90025 0.0
C3824 C 0.02335 0.49454 0.91202 0.0
C3825 C 0.9885 0.4884 0.88539 0.0
C3826 C 0.98292 0.47022 0.87987 0.0
C3827 C 0.98495 0.50192 0.87889 0.0
C3828 C 0.99088 0.52155 0.88404 0.0
C3829 C 0.01075 0.53459 0.88739 0.0
C3830 C 0.01612 0.55293 0.89244 0.0
C3831 C 0.00178 0.55844 0.89412 0.0
C3832 C 0.98203 0.54565 0.8907 0.0
C3833 C 0.97658 0.52729 0.88564 0.0
H3834 H 0.00596 0.57263 0.89805 0.0
H3835 H 0.95104 0.3937 0.84944 0.0
H3836 H 0.56679 0.48124 0.82965 0.0
H3837 H 0.56178 0.48937 0.85093 0.0
H3838 H 0.50128 0.47263 0.84156 0.0
H3839 H 0.50626 0.46474 0.82031 0.0
H3840 H 0.51992 0.50693 0.8548 0.0
H3841 H 0.51135 0.44212 0.85754 0.0
H3842 H 0.5217 0.41745 0.85511 0.0
H3843 H 0.57151 0.45068 0.87954 0.0
H3844 H 0.5616 0.4757 0.88197 0.0
H3845 H 0.47067 0.49095 0.91151 0.0
H3846 H 0.48197 0.48624 0.89131 0.0
H3847 H 0.5396 0.50353 0.90711 0.0
H3848 H 0.52838 0.50847 0.92746 0.0
H3849 H 0.5268 0.4721 0.89115 0.0
H3850 H 0.53397 0.53553 0.8899 0.0
H3851 H 0.52372 0.56025 0.89245 0.0
H3852 H 0.47732 0.53031 0.86525 0.0
H3853 H 0.48709 0.50523 0.86268 0.0
C3854 C 0.55249 0.47947 0.83211 0.0
C3855 C 0.53688 0.47224 0.82333 0.0
C3856 C 0.54961 0.48399 0.84429 0.0
C3857 C 0.53109 0.48143 0.84787 0.0
C3858 C 0.51567 0.47466 0.83902 0.0
C3859 C 0.51849 0.47003 0.8269 0.0
C3860 C 0.52755 0.48556 0.86083 0.0
C3861 C 0.52129 0.49922 0.86274 0.0
C3862 C 0.52994 0.47594 0.87124 0.0
C3863 C 0.53587 0.46089 0.86981 0.0
C3864 C 0.52461 0.44425 0.8623 0.0
C3865 C 0.53037 0.43019 0.86094 0.0
C3866 C 0.54728 0.43253 0.86713 0.0
C3867 C 0.55843 0.44891 0.87473 0.0
C3868 C 0.55274 0.46303 0.87611 0.0
C3869 C 0.4858 0.49386 0.9107 0.0
C3870 C 0.49871 0.50036 0.92107 0.0
C3871 C 0.49222 0.49112 0.89915 0.0
C3872 C 0.51175 0.4949 0.89763 0.0
C3873 C 0.5245 0.50063 0.90805 0.0
C3874 C 0.51805 0.50338 0.91968 0.0
C3875 C 0.51873 0.49315 0.88507 0.0
C3876 C 0.52566 0.47999 0.88324 0.0
C3877 C 0.51704 0.50329 0.87471 0.0
C3878 C 0.51118 0.51841 0.87617 0.0
C3879 C 0.52149 0.53414 0.88453 0.0
C3880 C 0.51578 0.54822 0.88597 0.0
C3881 C 0.49986 0.54683 0.87904 0.0
C3882 C 0.48964 0.53136 0.87063 0.0
C3883 C 0.49527 0.51721 0.86916 0.0
H3884 H 0.49546 0.55775 0.88017 0.0
H3885 H 0.55172 0.42162 0.86607 0.0
H3886 H 0.52676 0.09535 0.83152 0.0
H3887 H 0.5214 0.08079 0.85223 0.0
H3888 H 0.5422 0.04249 0.83923 0.0
H3889 H 0.54722 0.05671 0.81843 0.0
H3890 H 0.50804 0.02276 0.85224 0.0
H3891 H 0.57104 0.08127 0.85814 0.0
H3892 H 0.59456 0.11674 0.85766 0.0
H3893 H 0.55767 0.12663 0.88285 0.0
H3894 H 0.53377 0.09122 0.88335 0.0
H3895 H 0.514 0.98414 0.90988 0.0
H3896 H 0.5233 0.00191 0.89023 0.0
H3897 H 0.50523 0.04171 0.90453 0.0
H3898 H 0.49621 0.02409 0.92436 0.0
H3899 H 0.53802 0.06114 0.89096 0.0
H3900 H 0.47481 0.00338 0.88491 0.0
H3901 H 0.45064 0.96807 0.88542 0.0
H3902 H 0.48689 0.95698 0.86038 0.0
H3903 H 0.51143 0.99223 0.85986 0.0
C3904 C 0.53016 0.0838 0.83305 0.0
C3905 C 0.53741 0.0772 0.82328 0.0
C3906 C 0.52725 0.0756 0.84494 0.0
C3907 C 0.53154 0.06063 0.84734 0.0
C3908 C 0.53884 0.05406 0.83763 0.0
C3909 C 0.54184 0.06231 0.82575 0.0
C3910 C 0.52778 0.05136 0.85985 0.0
C3911 C 0.51484 0.03112 0.86068 0.0
C3912 C 0.53614 0.06232 0.87094 0.0
C3913 C 0.55052 0.08361 0.87068 0.0
C3914 C 0.56786 0.09102 0.8635 0.0
C3915 C 0.58127 0.11111 0.86324 0.0
C3916 C 0.57758 0.12393 0.87019 0.0
C3917 C 0.56049 0.11668 0.87745 0.0
C3918 C 0.54702 0.0966 0.87774 0.0
C3919 C 0.51206 0.99672 0.90886 0.0
C3920 C 0.50413 0.00256 0.91863 0.0
C3921 C 0.51736 0.00686 0.8976 0.0
C3922 C 0.51456 0.02292 0.89575 0.0
C3923 C 0.50745 0.02932 0.90569 0.0
C3924 C 0.50231 0.01926 0.91703 0.0
C3925 C 0.51839 0.0325 0.88332 0.0
C3926 C 0.53126 0.05277 0.88251 0.0
C3927 C 0.50985 0.02161 0.87223 0.0
C3928 C 0.49504 0.00042 0.87244 0.0
C3929 C 0.47769 0.9934 0.87958 0.0
C3930 C 0.46392 0.9734 0.87986 0.0
C3931 C 0.46725 0.96028 0.87296 0.0
C3932 C 0.48434 0.96716 0.86573 0.0
C3933 C 0.49818 0.98714 0.86543 0.0
H3934 H 0.45657 0.9448 0.87319 0.0
H3935 H 0.58799 0.13949 0.86998 0.0
H3936 H 0.09646 0.24463 0.51148 0.0
H3937 H 0.10537 0.2586 0.49063 0.0
H3938 H 0.16707 0.29075 0.50167 0.0
H3939 H 0.15821 0.27749 0.52266 0.0
H3940 H 0.15754 0.3136 0.48915 0.0
H3941 H 0.14767 0.24899 0.48293 0.0
H3942 H 0.12916 0.21299 0.48367 0.0
H3943 H 0.08363 0.21152 0.46012 0.0
H3944 H 0.10175 0.24755 0.45937 0.0
H3945 H 0.20338 0.34286 0.43089 0.0
H3946 H 0.19182 0.32598 0.45071 0.0
H3947 H 0.1313 0.2982 0.43732 0.0
H3948 H 0.14284 0.31515 0.41736 0.0
H3949 H 0.13841 0.27286 0.45071 0.0
H3950 H 0.14864 0.33735 0.45651 0.0
H3951 H 0.16725 0.37334 0.45562 0.0
H3952 H 0.212 0.37495 0.48001 0.0
H3953 H 0.1938 0.33894 0.4809 0.0
C3954 C 0.11192 0.25479 0.50952 0.0
C3955 C 0.1266 0.25988 0.5188 0.0
C3956 C 0.11702 0.2626 0.49752 0.0
C3957 C 0.13694 0.27558 0.49449 0.0
C3958 C 0.15161 0.28072 0.50374 0.0
C3959 C 0.14652 0.27296 0.51573 0.0
C3960 C 0.14253 0.28422 0.4818 0.0
C3961 C 0.15356 0.30465 0.48077 0.0
C3962 C 0.13685 0.27263 0.47079 0.0
C3963 C 0.12596 0.25097 0.4712 0.0
C3964 C 0.13363 0.241 0.47799 0.0
C3965 C 0.12323 0.22059 0.47839 0.0
C3966 C 0.1052 0.20998 0.47197 0.0
C3967 C 0.09758 0.21976 0.4651 0.0
C3968 C 0.10791 0.24017 0.46468 0.0
C3969 C 0.1876 0.33319 0.43215 0.0
C3970 C 0.17401 0.33059 0.42259 0.0
C3971 C 0.181 0.32351 0.44349 0.0
C3972 C 0.16065 0.3111 0.44562 0.0
C3973 C 0.14707 0.30777 0.43592 0.0
C3974 C 0.15369 0.31744 0.42451 0.0
C3975 C 0.15366 0.30219 0.45811 0.0
C3976 C 0.14233 0.28177 0.4591 0.0
C3977 C 0.15904 0.31377 0.46911 0.0
C3978 C 0.16994 0.33544 0.46869 0.0
C3979 C 0.16252 0.34537 0.46162 0.0
C3980 C 0.17298 0.36578 0.46112 0.0
C3981 C 0.19081 0.37642 0.46773 0.0
C3982 C 0.19819 0.36669 0.47488 0.0
C3983 C 0.1878 0.34628 0.47539 0.0
H3984 H 0.1989 0.39222 0.46734 0.0
H3985 H 0.09717 0.19418 0.4723 0.0
H3986 H 0.73568 0.85419 0.51238 0.0
H3987 H 0.72078 0.84601 0.49154 0.0
H3988 H 0.68517 0.87221 0.50054 0.0
H3989 H 0.69923 0.87954 0.52156 0.0
H3990 H 0.66352 0.83916 0.4884 0.0
H3991 H 0.72799 0.89597 0.48272 0.0
H3992 H 0.76452 0.91536 0.48418 0.0
H3993 H 0.76922 0.87241 0.46209 0.0
H3994 H 0.73268 0.85263 0.46064 0.0
H3995 H 0.63686 0.85449 0.42815 0.0
H3996 H 0.65144 0.85907 0.44897 0.0
H3997 H 0.68125 0.82789 0.43775 0.0
H3998 H 0.66646 0.82294 0.41693 0.0
H3999 H 0.70588 0.8615 0.45078 0.0
H4000 H 0.64107 0.80561 0.45565 0.0
H4001 H 0.60453 0.78688 0.454 0.0
H4002 H 0.60054 0.82887 0.47752 0.0
H4003 H 0.63709 0.84802 0.47917 0.0
C4004 C 0.72449 0.85799 0.50998 0.0
C4005 C 0.71875 0.86764 0.51864 0.0
C4006 C 0.71615 0.8535 0.49801 0.0
C4007 C 0.70207 0.85876 0.49441 0.0
C4008 C 0.69608 0.86809 0.50309 0.0
C4009 C 0.7043 0.87246 0.51507 0.0
C4010 C 0.69354 0.85463 0.4816 0.0
C4011 C 0.6728 0.84423 0.48018 0.0
C4012 C 0.70563 0.86081 0.47086 0.0
C4013 C 0.7276 0.87272 0.47169 0.0
C4014 C 0.73681 0.89059 0.47825 0.0
C4015 C 0.75752 0.90166 0.47907 0.0
C4016 C 0.76918 0.89509 0.47326 0.0
C4017 C 0.76016 0.87746 0.4666 0.0
C4018 C 0.73946 0.86632 0.46578 0.0
C4019 C 0.64633 0.8484 0.43014 0.0
C4020 C 0.6504 0.83826 0.42088 0.0
C4021 C 0.65471 0.85109 0.44203 0.0
C4022 C 0.66726 0.84364 0.44494 0.0
C4023 C 0.6716 0.83375 0.43569 0.0
C4024 C 0.66319 0.83101 0.42379 0.0
C4025 C 0.6759 0.84629 0.45762 0.0
C4026 C 0.69664 0.85636 0.45901 0.0
C4027 C 0.66382 0.83989 0.46835 0.0
C4028 C 0.64183 0.82833 0.46745 0.0
C4029 C 0.63241 0.81093 0.4604 0.0
C4030 C 0.61169 0.80022 0.45947 0.0
C4031 C 0.60022 0.8067 0.46563 0.0
C4032 C 0.60945 0.82388 0.47275 0.0
C4033 C 0.63016 0.83465 0.47369 0.0
H4034 H 0.58419 0.7984 0.4649 0.0
H4035 H 0.78521 0.90369 0.4739 0.0
H4036 H 0.1233 0.84279 0.52071 0.0
H4037 H 0.13078 0.83515 0.5 0.0
H4038 H 0.14617 0.89283 0.48754 0.0
H4039 H 0.13898 0.90062 0.50828 0.0
H4040 H 0.11763 0.83306 0.47702 0.0
H4041 H 0.18511 0.90983 0.46795 0.0
H4042 H 0.21057 0.93812 0.47992 0.0
H4043 H 0.20468 0.90053 0.51035 0.0
H4044 H 0.17941 0.872 0.4985 0.0
H4045 H 0.14785 0.83379 0.41465 0.0
H4046 H 0.13761 0.84228 0.43402 0.0
H4047 H 0.19092 0.85052 0.4522 0.0
H4048 H 0.20207 0.84371 0.43266 0.0
H4049 H 0.18461 0.87712 0.45992 0.0
H4050 H 0.14297 0.80753 0.45534 0.0
H4051 H 0.11903 0.77692 0.44465 0.0
H4052 H 0.07597 0.79581 0.44379 0.0
H4053 H 0.09976 0.82665 0.45435 0.0
C4054 C 0.12802 0.85374 0.5135 0.0
C4055 C 0.13074 0.87237 0.51615 0.0
C4056 C 0.13231 0.84937 0.50167 0.0
C4057 C 0.13935 0.86351 0.49226 0.0
C4058 C 0.14117 0.88182 0.49472 0.0
C4059 C 0.13706 0.88626 0.50658 0.0
C4060 C 0.14563 0.85942 0.48007 0.0
C4061 C 0.13225 0.84272 0.47325 0.0
C4062 C 0.16484 0.8718 0.47525 0.0
C4063 C 0.18021 0.88883 0.48239 0.0
C4064 C 0.18931 0.90761 0.47718 0.0
C4065 C 0.2037 0.92368 0.48394 0.0
C4066 C 0.20919 0.92114 0.4959 0.0
C4067 C 0.20036 0.9025 0.50111 0.0
C4068 C 0.18599 0.88638 0.49437 0.0
C4069 C 0.15763 0.83776 0.42268 0.0
C4070 C 0.17579 0.8379 0.42202 0.0
C4071 C 0.15156 0.84233 0.43385 0.0
C4072 C 0.16327 0.84667 0.4447 0.0
C4073 C 0.18153 0.84713 0.44401 0.0
C4074 C 0.18777 0.84294 0.43281 0.0
C4075 C 0.15662 0.85071 0.45679 0.0
C4076 C 0.16993 0.86748 0.46361 0.0
C4077 C 0.13757 0.83805 0.46178 0.0
C4078 C 0.12321 0.81946 0.45552 0.0
C4079 C 0.12844 0.8052 0.4528 0.0
C4080 C 0.11489 0.78781 0.44678 0.0
C4081 C 0.09601 0.78445 0.44352 0.0
C4082 C 0.09061 0.79845 0.44631 0.0
C4083 C 0.10411 0.81588 0.45232 0.0
H4084 H 0.08554 0.77097 0.43885 0.0
H4085 H 0.22031 0.9336 0.50113 0.0
H4086 H 0.60224 0.81357 0.161 0.0
H4087 H 0.61487 0.81969 0.18244 0.0
H4088 H 0.6483 0.79082 0.17467 0.0
H4089 H 0.63641 0.78526 0.15313 0.0
H4090 H 0.62574 0.77833 0.19684 0.0
H4091 H 0.67209 0.83822 0.17608 0.0
H4092 H 0.68127 0.86753 0.1635 0.0
H4093 H 0.65461 0.88746 0.19049 0.0
H4094 H 0.64501 0.8581 0.20315 0.0
H4095 H 0.69325 0.80502 0.24687 0.0
H4096 H 0.67778 0.80015 0.22631 0.0
H4097 H 0.65302 0.83617 0.23706 0.0
H4098 H 0.66896 0.8416 0.25756 0.0
H4099 H 0.66838 0.84512 0.21407 0.0
H4100 H 0.62357 0.78741 0.23554 0.0
H4101 H 0.61288 0.75809 0.24839 0.0
H4102 H 0.63418 0.73379 0.22069 0.0
H4103 H 0.64527 0.76311 0.20774 0.0
C4104 C 0.6125 0.80876 0.16378 0.0
C4105 C 0.61827 0.79888 0.15531 0.0
C4106 C 0.61959 0.81217 0.17606 0.0
C4107 C 0.63249 0.80569 0.1801 0.0
C4108 C 0.63823 0.79581 0.17172 0.0
C4109 C 0.63133 0.79257 0.15943 0.0
C4110 C 0.64005 0.80913 0.19308 0.0
C4111 C 0.63523 0.79291 0.20059 0.0
C4112 C 0.6518 0.82818 0.19806 0.0
C4113 C 0.65763 0.84586 0.19048 0.0
C4114 C 0.66803 0.84877 0.17927 0.0
C4115 C 0.67334 0.8654 0.17214 0.0
C4116 C 0.66848 0.87932 0.17617 0.0
C4117 C 0.65834 0.87665 0.18737 0.0
C4118 C 0.65297 0.86002 0.19453 0.0
C4119 C 0.68467 0.81206 0.24483 0.0
C4120 C 0.68231 0.82368 0.25385 0.0
C4121 C 0.67566 0.80909 0.23312 0.0
C4122 C 0.66404 0.81759 0.23022 0.0
C4123 C 0.66185 0.8294 0.23914 0.0
C4124 C 0.67084 0.83237 0.25087 0.0
C4125 C 0.65442 0.81428 0.2178 0.0
C4126 C 0.65878 0.83052 0.21039 0.0
C4127 C 0.64202 0.79522 0.21296 0.0
C4128 C 0.63542 0.77756 0.22072 0.0
C4129 C 0.62614 0.7759 0.23223 0.0
C4130 C 0.61997 0.75926 0.23953 0.0
C4131 C 0.62289 0.7441 0.23537 0.0
C4132 C 0.63195 0.74555 0.2239 0.0
C4133 C 0.63816 0.76217 0.21657 0.0
H4134 H 0.6181 0.73123 0.24103 0.0
H4135 H 0.67261 0.8922 0.17064 0.0
H4136 H 0.19819 0.77726 0.16437 0.0
H4137 H 0.19175 0.78497 0.1853 0.0
H4138 H 0.20346 0.8415 0.17271 0.0
H4139 H 0.21023 0.83393 0.15173 0.0
H4140 H 0.21865 0.84436 0.19556 0.0
H4141 H 0.15577 0.80334 0.17564 0.0
H4142 H 0.13048 0.77424 0.16424 0.0
H4143 H 0.12851 0.73754 0.19422 0.0
H4144 H 0.15401 0.76641 0.20573 0.0
H4145 H 0.16687 0.86217 0.24411 0.0
H4146 H 0.17814 0.85651 0.22406 0.0
H4147 H 0.17044 0.80181 0.23751 0.0
H4148 H 0.15892 0.80727 0.25753 0.0
H4149 H 0.15367 0.79828 0.21439 0.0
H4150 H 0.21621 0.84009 0.23456 0.0
H4151 H 0.24113 0.86959 0.2458 0.0
H4152 H 0.24305 0.90534 0.21523 0.0
H4153 H 0.21793 0.87607 0.20387 0.0
C4154 C 0.19944 0.79135 0.16607 0.0
C4155 C 0.20448 0.8049 0.15638 0.0
C4156 C 0.19575 0.79575 0.17803 0.0
C4157 C 0.19671 0.81366 0.18053 0.0
C4158 C 0.20255 0.82756 0.17099 0.0
C4159 C 0.20643 0.82323 0.15902 0.0
C4160 C 0.19091 0.81754 0.19294 0.0
C4161 C 0.20435 0.83441 0.19961 0.0
C4162 C 0.17237 0.8044 0.19835 0.0
C4163 C 0.15694 0.78702 0.19149 0.0
C4164 C 0.15004 0.78905 0.17976 0.0
C4165 C 0.13566 0.7726 0.17328 0.0
C4166 C 0.12793 0.75405 0.17849 0.0
C4167 C 0.13453 0.75191 0.19019 0.0
C4168 C 0.14894 0.76832 0.1967 0.0
C4169 C 0.16757 0.84893 0.24279 0.0
C4170 C 0.16198 0.83515 0.2524 0.0
C4171 C 0.17416 0.84579 0.23137 0.0
C4172 C 0.17527 0.8288 0.22932 0.0
C4173 C 0.16976 0.81505 0.23891 0.0
C4174 C 0.1633 0.81824 0.25036 0.0
C4175 C 0.18144 0.82502 0.21703 0.0
C4176 C 0.16801 0.8082 0.21036 0.0
C4177 C 0.1999 0.83827 0.21161 0.0
C4178 C 0.21504 0.8559 0.21842 0.0
C4179 C 0.22182 0.85426 0.23028 0.0
C4180 C 0.23601 0.87094 0.23666 0.0
C4181 C 0.24363 0.88933 0.23125 0.0
C4182 C 0.23712 0.89109 0.21942 0.0
C4183 C 0.22291 0.87445 0.213 0.0
H4184 H 0.25462 0.90223 0.2362 0.0
H4185 H 0.1168 0.74133 0.17346 0.0
H4186 H 0.1674 0.38821 0.15399 0.0
H4187 H 0.16244 0.37554 0.17515 0.0
H4188 H 0.22469 0.41348 0.18327 0.0
H4189 H 0.22978 0.42642 0.16206 0.0
H4190 H 0.21164 0.37713 0.19231 0.0
H4191 H 0.19071 0.42443 0.19444 0.0
H4192 H 0.1723 0.44085 0.18794 0.0
H4193 H 0.11699 0.3881 0.19416 0.0
H4194 H 0.13508 0.37126 0.20052 0.0
H4195 H 0.19614 0.35475 0.25726 0.0
H4196 H 0.20535 0.37339 0.23783 0.0
H4197 H 0.14484 0.33957 0.22466 0.0
H4198 H 0.13546 0.32133 0.24412 0.0
H4199 H 0.1599 0.37732 0.21913 0.0
H4200 H 0.18098 0.32946 0.21521 0.0
H4201 H 0.19935 0.3129 0.22151 0.0
H4202 H 0.25451 0.36698 0.21869 0.0
H4203 H 0.23642 0.38392 0.21253 0.0
C4204 C 0.18004 0.39405 0.16029 0.0
C4205 C 0.19896 0.40851 0.15632 0.0
C4206 C 0.17717 0.38674 0.17241 0.0
C4207 C 0.19313 0.39376 0.18089 0.0
C4208 C 0.21214 0.40787 0.17691 0.0
C4209 C 0.21503 0.41521 0.16476 0.0
C4210 C 0.18983 0.38622 0.19387 0.0
C4211 C 0.20058 0.37749 0.19826 0.0
C4212 C 0.17521 0.38643 0.2016 0.0
C4213 C 0.16426 0.39654 0.19786 0.0
C4214 C 0.17462 0.41629 0.19434 0.0
C4215 C 0.16424 0.42568 0.19069 0.0
C4216 C 0.14349 0.41552 0.19061 0.0
C4217 C 0.13307 0.39595 0.19421 0.0
C4218 C 0.14338 0.38648 0.19785 0.0
C4219 C 0.18475 0.35148 0.25029 0.0
C4220 C 0.16509 0.33641 0.2522 0.0
C4221 C 0.19007 0.36203 0.23914 0.0
C4222 C 0.17585 0.3577 0.22969 0.0
C4223 C 0.1561 0.34313 0.23177 0.0
C4224 C 0.15079 0.33259 0.24287 0.0
C4225 C 0.18143 0.3679 0.21748 0.0
C4226 C 0.17111 0.37715 0.21323 0.0
C4227 C 0.19645 0.36818 0.2099 0.0
C4228 C 0.20733 0.358 0.21355 0.0
C4229 C 0.19701 0.33785 0.21603 0.0
C4230 C 0.20738 0.32839 0.21956 0.0
C4231 C 0.22808 0.33889 0.22054 0.0
C4232 C 0.23847 0.35887 0.21795 0.0
C4233 C 0.22817 0.36841 0.21443 0.0
H4234 H 0.23608 0.33154 0.22327 0.0
H4235 H 0.13548 0.42281 0.18778 0.0
H4236 H 0.80414 0.5774 0.84574 0.0
H4237 H 0.8121 0.59029 0.82457 0.0
H4238 H 0.79115 0.63027 0.833 0.0
H4239 H 0.78337 0.61766 0.85421 0.0
H4240 H 0.77767 0.61313 0.81041 0.0
H4241 H 0.84075 0.6456 0.83211 0.0
H4242 H 0.86817 0.64716 0.84466 0.0
H4243 H 0.87837 0.61443 0.81652 0.0
H4244 H 0.85081 0.61245 0.80387 0.0
H4245 H 0.82331 0.68588 0.76449 0.0
H4246 H 0.81317 0.66727 0.78383 0.0
H4247 H 0.83259 0.62856 0.76952 0.0
H4248 H 0.84284 0.64723 0.75006 0.0
H4249 H 0.84609 0.64181 0.79393 0.0
H4250 H 0.78523 0.61177 0.77132 0.0
H4251 H 0.75825 0.6105 0.75847 0.0
H4252 H 0.74377 0.63809 0.78794 0.0
H4253 H 0.77093 0.63987 0.80089 0.0
C4254 C 0.8014 0.58907 0.84315 0.0
C4255 C 0.79314 0.59649 0.85175 0.0
C4256 C 0.8059 0.59639 0.831 0.0
C4257 C 0.80236 0.61136 0.82718 0.0
C4258 C 0.79394 0.61866 0.83569 0.0
C4259 C 0.78945 0.61137 0.84783 0.0
C4260 C 0.80755 0.61961 0.81438 0.0
C4261 C 0.79267 0.61955 0.80686 0.0
C4262 C 0.82698 0.62745 0.80954 0.0
C4263 C 0.84358 0.62869 0.81711 0.0
C4264 C 0.84874 0.6386 0.82865 0.0
C4265 C 0.86432 0.63958 0.83577 0.0
C4266 C 0.87496 0.63085 0.83141 0.0
C4267 C 0.87008 0.62116 0.81989 0.0
C4268 C 0.8545 0.62011 0.81274 0.0
C4269 C 0.82543 0.67341 0.76545 0.0
C4270 C 0.83397 0.6681 0.75576 0.0
C4271 C 0.81952 0.66271 0.77648 0.0
C4272 C 0.82207 0.64648 0.77812 0.0
C4273 C 0.83049 0.64103 0.76846 0.0
C4274 C 0.83622 0.65163 0.75732 0.0
C4275 C 0.81629 0.63563 0.79009 0.0
C4276 C 0.83104 0.6352 0.79744 0.0
C4277 C 0.79673 0.62728 0.79475 0.0
C4278 C 0.78025 0.6261 0.78705 0.0
C4279 C 0.77641 0.61772 0.77503 0.0
C4280 C 0.76106 0.61688 0.76773 0.0
C4281 C 0.74932 0.62424 0.77238 0.0
C4282 C 0.75289 0.63241 0.78435 0.0
C4283 C 0.76825 0.63333 0.79168 0.0
H4284 H 0.73744 0.62358 0.76672 0.0
H4285 H 0.88702 0.63163 0.83693 0.0
H4286 H 0.40476 0.23304 0.84919 0.0
H4287 H 0.3927 0.22658 0.82764 0.0
H4288 H 0.35406 0.16578 0.83633 0.0
H4289 H 0.36608 0.17214 0.85791 0.0
H4290 H 0.37166 0.16968 0.81408 0.0
H4291 H 0.33608 0.19705 0.83452 0.0
H4292 H 0.33259 0.22153 0.84688 0.0
H4293 H 0.36541 0.26515 0.81943 0.0
H4294 H 0.36934 0.24098 0.80698 0.0
H4295 H 0.30071 0.14262 0.76481 0.0
H4296 H 0.31723 0.15023 0.78524 0.0
H4297 H 0.35908 0.20832 0.7728 0.0
H4298 H 0.34269 0.20073 0.75229 0.0
H4299 H 0.3415 0.20681 0.79631 0.0
H4300 H 0.37557 0.17883 0.77533 0.0
H4301 H 0.37821 0.15403 0.7628 0.0
H4302 H 0.34746 0.11121 0.79106 0.0
H4303 H 0.3444 0.13572 0.80372 0.0
C4304 C 0.39363 0.21831 0.84653 0.0
C4305 C 0.38626 0.20313 0.85528 0.0
C4306 C 0.3868 0.21463 0.8342 0.0
C4307 C 0.3723 0.19574 0.83041 0.0
C4308 C 0.36527 0.18046 0.83905 0.0
C4309 C 0.37216 0.18412 0.85137 0.0
C4310 C 0.36404 0.19201 0.81755 0.0
C4311 C 0.36489 0.17766 0.81024 0.0
C4312 C 0.35559 0.20272 0.81244 0.0
C4313 C 0.35318 0.21726 0.81989 0.0
C4314 C 0.34269 0.2119 0.83117 0.0
C4315 C 0.34061 0.22571 0.83818 0.0
C4316 C 0.34882 0.2449 0.83396 0.0
C4317 C 0.35909 0.25029 0.8227 0.0
C4318 C 0.36123 0.23654 0.81565 0.0
C4319 C 0.31342 0.15701 0.76645 0.0
C4320 C 0.32044 0.17111 0.75701 0.0
C4321 C 0.32289 0.16129 0.77807 0.0
C4322 C 0.33941 0.17979 0.78047 0.0
C4323 C 0.34638 0.19395 0.77109 0.0
C4324 C 0.33708 0.18958 0.7594 0.0
C4325 C 0.34905 0.18445 0.79291 0.0
C4326 C 0.34841 0.19894 0.80014 0.0
C4327 C 0.35762 0.17384 0.79794 0.0
C4328 C 0.35958 0.15908 0.79042 0.0
C4329 C 0.36922 0.16408 0.77884 0.0
C4330 C 0.37082 0.15009 0.77171 0.0
C4331 C 0.36295 0.13104 0.77611 0.0
C4332 C 0.35353 0.12597 0.78766 0.0
C4333 C 0.35188 0.13992 0.79482 0.0
H4334 H 0.36419 0.12021 0.77057 0.0
H4335 H 0.34719 0.25557 0.83941 0.0
H4336 H 0.77364 0.18575 0.84588 0.0
H4337 H 0.77984 0.17832 0.82474 0.0
H4338 H 0.8425 0.20611 0.83303 0.0
H4339 H 0.83644 0.21309 0.8542 0.0
H4340 H 0.83458 0.21836 0.81067 0.0
H4341 H 0.81528 0.15761 0.83194 0.0
H4342 H 0.79283 0.12871 0.84429 0.0
H4343 H 0.74754 0.11114 0.81612 0.0
H4344 H 0.76965 0.1401 0.80368 0.0
H4345 H 0.87515 0.1879 0.76327 0.0
H4346 H 0.86362 0.19374 0.78309 0.0
H4347 H 0.80293 0.16038 0.77013 0.0
H4348 H 0.81442 0.15392 0.75035 0.0
H4349 H 0.80638 0.15103 0.79377 0.0
H4350 H 0.82567 0.20959 0.77161 0.0
H4351 H 0.84727 0.23845 0.75897 0.0
H4352 H 0.89109 0.26046 0.78826 0.0
H4353 H 0.86989 0.23158 0.80101 0.0
C4354 C 0.78871 0.19005 0.84328 0.0
C4355 C 0.80455 0.20015 0.85177 0.0
C4356 C 0.79223 0.18586 0.83116 0.0
C4357 C 0.81165 0.1917 0.8273 0.0
C4358 C 0.82742 0.20162 0.83577 0.0
C4359 C 0.82392 0.20568 0.84787 0.0
C4360 C 0.81575 0.18774 0.81443 0.0
C4361 C 0.82855 0.20364 0.807 0.0
C4362 C 0.80731 0.16856 0.80949 0.0
C4363 C 0.79403 0.15114 0.81695 0.0
C4364 C 0.80047 0.14768 0.82843 0.0
C4365 C 0.78782 0.13127 0.83544 0.0
C4366 C 0.76875 0.11813 0.83101 0.0
C4367 C 0.7623 0.12135 0.81955 0.0
C4368 C 0.77489 0.13775 0.81251 0.0
C4369 C 0.85934 0.18169 0.76466 0.0
C4370 C 0.84569 0.17054 0.75522 0.0
C4371 C 0.85277 0.1852 0.77596 0.0
C4372 C 0.83241 0.17774 0.77805 0.0
C4373 C 0.8187 0.16638 0.7687 0.0
C4374 C 0.82529 0.16286 0.75737 0.0
C4375 C 0.82561 0.18165 0.7901 0.0
C4376 C 0.81227 0.16577 0.79736 0.0
C4377 C 0.83341 0.20088 0.79486 0.0
C4378 C 0.84624 0.21832 0.78723 0.0
C4379 C 0.83998 0.2205 0.77532 0.0
C4380 C 0.85215 0.23688 0.76814 0.0
C4381 C 0.87056 0.25126 0.7728 0.0
C4382 C 0.87683 0.2493 0.78466 0.0
C4383 C 0.86473 0.23294 0.79187 0.0
H4384 H 0.87996 0.26393 0.76723 0.0
H4385 H 0.75898 0.10543 0.83644 0.0
H4386 H 0.26678 0.14585 0.49615 0.0
H4387 H 0.27924 0.15226 0.51764 0.0
H4388 H 0.31433 0.12506 0.51003 0.0
H4389 H 0.30232 0.11896 0.48851 0.0
H4390 H 0.29366 0.11242 0.53202 0.0
H4391 H 0.33603 0.17373 0.5115 0.0
H4392 H 0.34295 0.20261 0.49909 0.0
H4393 H 0.31341 0.21895 0.52627 0.0
H4394 H 0.30607 0.19 0.53877 0.0
H4395 H 0.36168 0.14435 0.58232 0.0
H4396 H 0.34588 0.13797 0.56178 0.0
H4397 H 0.31602 0.16936 0.57244 0.0
H4398 H 0.33225 0.17631 0.59291 0.0
H4399 H 0.33142 0.17959 0.54957 0.0
H4400 H 0.29072 0.12006 0.57085 0.0
H4401 H 0.28302 0.09117 0.58348 0.0
H4402 H 0.30777 0.07108 0.5553 0.0
H4403 H 0.31594 0.10003 0.54258 0.0
C4404 C 0.27733 0.14143 0.499 0.0
C4405 C 0.28353 0.13186 0.49059 0.0
C4406 C 0.28436 0.14503 0.51131 0.0
C4407 C 0.29774 0.13917 0.51541 0.0
C4408 C 0.30391 0.12959 0.50707 0.0
C4409 C 0.29697 0.12606 0.49477 0.0
C4410 C 0.30542 0.14302 0.5284 0.0
C4411 C 0.30209 0.12711 0.53583 0.0
C4412 C 0.31584 0.16214 0.53348 0.0
C4413 C 0.32031 0.17959 0.526 0.0
C4414 C 0.33087 0.18339 0.51478 0.0
C4415 C 0.33489 0.19979 0.50774 0.0
C4416 C 0.32857 0.21258 0.51187 0.0
C4417 C 0.31827 0.20902 0.52307 0.0
C4418 C 0.31418 0.19262 0.53014 0.0
C4419 C 0.35186 0.15002 0.58027 0.0
C4420 C 0.34821 0.16083 0.58926 0.0
C4421 C 0.34268 0.14619 0.56857 0.0
C4422 C 0.32957 0.15298 0.56563 0.0
C4423 C 0.326 0.1639 0.57453 0.0
C4424 C 0.33517 0.16773 0.58625 0.0
C4425 C 0.31996 0.149 0.55315 0.0
C4426 C 0.32288 0.16487 0.54582 0.0
C4427 C 0.30902 0.12981 0.54819 0.0
C4428 C 0.30412 0.11234 0.55581 0.0
C4429 C 0.29468 0.10958 0.56739 0.0
C4430 C 0.29021 0.09317 0.57456 0.0
C4431 C 0.29495 0.07932 0.57021 0.0
C4432 C 0.30413 0.08183 0.55866 0.0
C4433 C 0.30868 0.09823 0.55147 0.0
H4434 H 0.29148 0.06663 0.57577 0.0
H4435 H 0.33171 0.22527 0.5064 0.0
H4436 H 0.8608 0.10385 0.49743 0.0
H4437 H 0.85406 0.11131 0.51835 0.0
H4438 H 0.8718 0.17005 0.50695 0.0
H4439 H 0.87881 0.1627 0.486 0.0
H4440 H 0.8854 0.17038 0.52986 0.0
H4441 H 0.82244 0.13451 0.50892 0.0
H4442 H 0.79592 0.10701 0.49699 0.0
H4443 H 0.78917 0.06765 0.52648 0.0
H4444 H 0.81586 0.09489 0.53851 0.0
H4445 H 0.83552 0.19297 0.57716 0.0
H4446 H 0.84655 0.18611 0.5574 0.0
H4447 H 0.83418 0.13001 0.57123 0.0
H4448 H 0.82305 0.13676 0.59103 0.0
H4449 H 0.81842 0.12804 0.54753 0.0
H4450 H 0.88076 0.16482 0.56885 0.0
H4451 H 0.90681 0.19279 0.58069 0.0
H4452 H 0.9141 0.23106 0.55039 0.0
H4453 H 0.88786 0.20335 0.53843 0.0
C4454 C 0.86325 0.11835 0.49937 0.0
C4455 C 0.87014 0.13262 0.49001 0.0
C4456 C 0.85939 0.12261 0.51134 0.0
C4457 C 0.86206 0.14114 0.51419 0.0
C4458 C 0.86958 0.15563 0.50498 0.0
C4459 C 0.8736 0.15142 0.49301 0.0
C4460 C 0.85649 0.14521 0.52665 0.0
C4461 C 0.87068 0.16125 0.53365 0.0
C4462 C 0.8374 0.13309 0.53175 0.0
C4463 C 0.82128 0.1167 0.52456 0.0
C4464 C 0.8154 0.11997 0.51282 0.0
C4465 C 0.80032 0.10443 0.50605 0.0
C4466 C 0.7909 0.08559 0.51096 0.0
C4467 C 0.79651 0.08225 0.52268 0.0
C4468 C 0.8116 0.09773 0.52948 0.0
C4469 C 0.83516 0.17917 0.57599 0.0
C4470 C 0.82838 0.16538 0.58564 0.0
C4471 C 0.84159 0.17533 0.56473 0.0
C4472 C 0.84129 0.15759 0.56287 0.0
C4473 C 0.83458 0.14381 0.57249 0.0
C4474 C 0.82834 0.14773 0.58381 0.0
C4475 C 0.84731 0.15318 0.55071 0.0
C4476 C 0.83317 0.1371 0.54375 0.0
C4477 C 0.86637 0.16533 0.54564 0.0
C4478 C 0.8822 0.18203 0.55279 0.0
C4479 C 0.88779 0.17922 0.56475 0.0
C4480 C 0.90262 0.19503 0.57148 0.0
C4481 C 0.91207 0.2137 0.56631 0.0
C4482 C 0.90675 0.2166 0.55438 0.0
C4483 C 0.89191 0.20084 0.54762 0.0
H4484 H 0.92355 0.22592 0.57153 0.0
H4485 H 0.77923 0.07358 0.5057 0.0
H4486 H 0.89677 0.75547 0.49479 0.0
H4487 H 0.89126 0.74206 0.51587 0.0
H4488 H 0.82895 0.70511 0.50747 0.0
H4489 H 0.83434 0.71826 0.48641 0.0
H4490 H 0.83401 0.72274 0.52969 0.0
H4491 H 0.86102 0.68701 0.50883 0.0
H4492 H 0.88598 0.68351 0.49673 0.0
H4493 H 0.92976 0.71461 0.52522 0.0
H4494 H 0.90511 0.71851 0.53742 0.0
H4495 H 0.801 0.65224 0.5772 0.0
H4496 H 0.81071 0.66992 0.55754 0.0
H4497 H 0.87112 0.70375 0.57086 0.0
H4498 H 0.86154 0.68574 0.59056 0.0
H4499 H 0.86969 0.69076 0.54716 0.0
H4500 H 0.84255 0.72471 0.56871 0.0
H4501 H 0.81796 0.72859 0.58095 0.0
H4502 H 0.77503 0.70166 0.55144 0.0
H4503 H 0.7993 0.69738 0.53908 0.0
C4504 C 0.88193 0.74431 0.49737 0.0
C4505 C 0.866 0.73802 0.48887 0.0
C4506 C 0.87879 0.73668 0.50946 0.0
C4507 C 0.85968 0.72249 0.51329 0.0
C4508 C 0.8438 0.71612 0.50479 0.0
C4509 C 0.84692 0.72372 0.49274 0.0
C4510 C 0.85602 0.7144 0.52616 0.0
C4511 C 0.84168 0.71557 0.53345 0.0
C4512 C 0.86648 0.70562 0.53128 0.0
C4513 C 0.88128 0.70324 0.52397 0.0
C4514 C 0.87601 0.69324 0.51247 0.0
C4515 C 0.89009 0.69116 0.5056 0.0
C4516 C 0.90946 0.69889 0.51019 0.0
C4517 C 0.91476 0.70866 0.52167 0.0
C4518 C 0.90074 0.7108 0.52857 0.0
C4519 C 0.81638 0.66341 0.57596 0.0
C4520 C 0.8305 0.66751 0.58547 0.0
C4521 C 0.82188 0.67364 0.56474 0.0
C4522 C 0.84163 0.68831 0.56272 0.0
C4523 C 0.85579 0.69253 0.5722 0.0
C4524 C 0.85026 0.68233 0.58349 0.0
C4525 C 0.8474 0.69877 0.55058 0.0
C4526 C 0.86214 0.69807 0.54344 0.0
C4527 C 0.83737 0.70807 0.54561 0.0
C4528 C 0.82271 0.71058 0.55301 0.0
C4529 C 0.82782 0.71947 0.56487 0.0
C4530 C 0.81395 0.72177 0.57182 0.0
C4531 C 0.79493 0.71533 0.56699 0.0
C4532 C 0.78976 0.70662 0.55518 0.0
C4533 C 0.80358 0.70428 0.54818 0.0
H4534 H 0.78421 0.71713 0.57238 0.0
H4535 H 0.92034 0.69726 0.50486 0.0
loop_
_geom_bond_atom_site_label_1
_geom_bond_atom_site_label_2
_geom_bond_distance
_geom_bond_site_symmetry_2
_ccdc_geom_bond_type
C0 C1 1.391 . S
C0 C4 1.391 . S
C0 H42 0.948 . S
C1 C0 1.391 . S
C1 C2 1.391 . S
C2 C1 1.391 . S
C2 H58 0.947 . S
C2 C59 1.392 . S
C3 C4 1.391 . S
C3 C7 1.397 . S
C3 C59 1.419 . S
C4 C0 1.391 . S
C4 C3 1.391 . S
C4 C5 1.399 . S
C5 C4 1.399 . S
C5 C8 1.396 . S
C5 C17 1.453 . S
C5 C18 1.684 . S
H6 C30 0.948 . S
C7 C3 1.397 . S
C7 C8 1.394 . S
C7 C26 1.723 . S
C8 C5 1.396 . S
C8 C7 1.394 . S
C8 C38 1.723 . S
H9 C32 0.947 . S
H10 C33 0.948 . S
H11 C39 0.982 . S
H12 C40 0.979 . S
H13 C40 0.980 . S
H14 C40 0.983 . S
H15 C39 0.979 . S
H16 C39 0.977 . S
C17 C5 1.453 . S
C17 H46 0.982 . S
C17 H47 0.979 . S
C17 H48 0.977 . S
C18 C5 1.684 . S
C18 H43 0.979 . S
C18 H44 0.980 . S
C18 H45 0.983 . S
C19 C20 1.391 . S
C19 C24 1.391 . S
C19 H49 0.948 . S
C20 C19 1.391 . S
C20 C21 1.391 . S
C21 C20 1.391 . S
C21 C22 1.392 . S
C21 H50 0.947 . S
C22 C21 1.392 . S
C22 C23 1.419 . S
C22 H51 0.948 . S
C23 C22 1.419 . S
C23 C24 1.391 . S
C23 C27 1.397 . S
C24 C19 1.391 . S
C24 C23 1.391 . S
C24 C25 1.399 . S
C25 C24 1.399 . S
C25 C26 1.396 . S
C25 C28 1.453 . S
C25 C29 1.684 . S
C26 C7 1.723 . S
C26 C25 1.396 . S
C26 C27 1.394 . S
C27 C23 1.397 . S
C27 C26 1.394 . S
C27 C37 1.723 . S
C28 C25 1.453 . S
C28 H52 0.982 . S
C28 H53 0.979 . S
C28 H54 0.977 . S
C29 C25 1.684 . S
C29 H55 0.979 . S
C29 H56 0.980 . S
C29 H57 0.983 . S
C30 H6 0.948 . S
C30 C31 1.391 . S
C30 C35 1.391 . S
C31 C30 1.391 . S
C31 C32 1.391 . S
C32 H9 0.947 . S
C32 C31 1.391 . S
C32 C33 1.392 . S
C33 H10 0.948 . S
C33 C32 1.392 . S
C33 C34 1.419 . S
C34 C33 1.419 . S
C34 C35 1.391 . S
C34 C38 1.397 . S
C35 C30 1.391 . S
C35 C34 1.391 . S
C35 C36 1.399 . S
C36 C35 1.399 . S
C36 C37 1.396 . S
C36 C39 1.453 . S
C36 C40 1.684 . S
C37 C27 1.723 . S
C37 C36 1.396 . S
C37 C38 1.394 . S
C38 C8 1.723 . S
C38 C34 1.397 . S
C38 C37 1.394 . S
C39 H11 0.982 . S
C39 H15 0.979 . S
C39 H16 0.977 . S
C39 C36 1.453 . S
C40 H12 0.979 . S
C40 H13 0.980 . S
C40 H14 0.983 . S
C40 C36 1.684 . S
H41 C59 0.948 . S
H42 C0 0.948 . S
H43 C18 0.979 . S
H44 C18 0.980 . S
H45 C18 0.983 . S
H46 C17 0.982 . S
H47 C17 0.979 . S
H48 C17 0.977 . S
H49 C19 0.948 . S
H50 C21 0.947 . S
H51 C22 0.948 . S
H52 C28 0.982 . S
H53 C28 0.979 . S
H54 C28 0.977 . S
H55 C29 0.979 . S
H56 C29 0.980 . S
H57 C29 0.983 . S
H58 C2 0.947 . S
C59 C2 1.392 . S
C59 C3 1.419 . S
C59 H41 0.948 . S
C60 C61 1.391 . S
C60 C64 1.391 . S
C60 H102 0.948 . S
C61 C60 1.391 . S
C61 C62 1.391 . S
C62 C61 1.391 . S
C62 H118 0.947 . S
C62 C119 1.392 . S
C63 C64 1.391 . S
C63 C67 1.397 . S
C63 C119 1.419 . S
C64 C60 1.391 . S
C64 C63 1.391 . S
C64 C65 1.399 . S
C65 C64 1.399 . S
C65 C68 1.396 . S
C65 C77 1.453 . S
C65 C78 1.684 . S
H66 C90 0.948 . S
C67 C63 1.397 . S
C67 C68 1.394 . S
C67 C86 1.723 . S
C68 C65 1.396 . S
C68 C67 1.394 . S
C68 C98 1.723 . S
H69 C92 0.947 . S
H70 C93 0.948 . S
H71 C99 0.982 . S
H72 C100 0.979 . S
H73 C100 0.980 . S
H74 C100 0.983 . S
H75 C99 0.979 . S
H76 C99 0.977 . S
C77 C65 1.453 . S
C77 H106 0.982 . S
C77 H107 0.979 . S
C77 H108 0.977 . S
C78 C65 1.684 . S
C78 H103 0.979 . S
C78 H104 0.980 . S
C78 H105 0.983 . S
C79 C80 1.391 . S
C79 C84 1.391 . S
C79 H109 0.948 . S
C80 C79 1.391 . S
C80 C81 1.391 . S
C81 C80 1.391 . S
C81 C82 1.392 . S
C81 H110 0.947 . S
C82 C81 1.392 . S
C82 C83 1.419 . S
C82 H111 0.948 . S
C83 C82 1.419 . S
C83 C84 1.391 . S
C83 C87 1.397 . S
C84 C79 1.391 . S
C84 C83 1.391 . S
C84 C85 1.399 . S
C85 C84 1.399 . S
C85 C86 1.396 . S
C85 C88 1.453 . S
C85 C89 1.684 . S
C86 C67 1.723 . S
C86 C85 1.396 . S
C86 C87 1.394 . S
C87 C83 1.397 . S
C87 C86 1.394 . S
C87 C97 1.723 . S
C88 C85 1.453 . S
C88 H112 0.982 . S
C88 H113 0.979 . S
C88 H114 0.977 . S
C89 C85 1.684 . S
C89 H115 0.979 . S
C89 H116 0.980 . S
C89 H117 0.983 . S
C90 H66 0.948 . S
C90 C91 1.391 . S
C90 C95 1.391 . S
C91 C90 1.391 . S
C91 C92 1.391 . S
C92 H69 0.947 . S
C92 C91 1.391 . S
C92 C93 1.392 . S
C93 H70 0.948 . S
C93 C92 1.392 . S
C93 C94 1.419 . S
C94 C93 1.419 . S
C94 C95 1.391 . S
C94 C98 1.397 . S
C95 C90 1.391 . S
C95 C94 1.391 . S
C95 C96 1.399 . S
C96 C95 1.399 . S
C96 C97 1.396 . S
C96 C99 1.453 . S
C96 C100 1.684 . S
C97 C87 1.723 . S
C97 C96 1.396 . S
C97 C98 1.394 . S
C98 C68 1.723 . S
C98 C94 1.397 . S
C98 C97 1.394 . S
C99 H71 0.982 . S
C99 H75 0.979 . S
C99 H76 0.977 . S
C99 C96 1.453 . S
C100 H72 0.979 . S
C100 H73 0.980 . S
C100 H74 0.983 . S
C100 C96 1.684 . S
H101 C119 0.948 . S
H102 C60 0.948 . S
H103 C78 0.979 . S
H104 C78 0.980 . S
H105 C78 0.983 . S
H106 C77 0.982 . S
H107 C77 0.979 . S
H108 C77 0.977 . S
H109 C79 0.948 . S
H110 C81 0.947 . S
H111 C82 0.948 . S
H112 C88 0.982 . S
H113 C88 0.979 . S
H114 C88 0.977 . S
H115 C89 0.979 . S
H116 C89 0.980 . S
H117 C89 0.983 . S
H118 C62 0.947 . S
C119 C62 1.392 . S
C119 C63 1.419 . S
C119 H101 0.948 . S
C120 C121 1.391 . S
C120 C124 1.391 . S
C120 H162 0.948 . S
C121 C120 1.391 . S
C121 C122 1.391 . S
C122 C121 1.391 . S
C122 H178 0.947 . S
C122 C179 1.392 . S
C123 C124 1.391 . S
C123 C127 1.397 . S
C123 C179 1.419 . S
C124 C120 1.391 . S
C124 C123 1.391 . S
C124 C125 1.399 . S
C125 C124 1.399 . S
C125 C128 1.396 . S
C125 C137 1.453 . S
C125 C138 1.684 . S
H126 C150 0.948 . S
C127 C123 1.397 . S
C127 C128 1.394 . S
C127 C146 1.723 . S
C128 C125 1.396 . S
C128 C127 1.394 . S
C128 C158 1.723 . S
H129 C152 0.947 . S
H130 C153 0.948 . S
H131 C159 0.982 . S
H132 C160 0.979 . S
H133 C160 0.980 . S
H134 C160 0.983 . S
H135 C159 0.979 . S
H136 C159 0.977 . S
C137 C125 1.453 . S
C137 H166 0.982 . S
C137 H167 0.979 . S
C137 H168 0.977 . S
C138 C125 1.684 . S
C138 H163 0.979 . S
C138 H164 0.980 . S
C138 H165 0.983 . S
C139 C140 1.391 . S
C139 C144 1.391 . S
C139 H169 0.948 . S
C140 C139 1.391 . S
C140 C141 1.391 . S
C141 C140 1.391 . S
C141 C142 1.392 . S
C141 H170 0.947 . S
C142 C141 1.392 . S
C142 C143 1.419 . S
C142 H171 0.948 . S
C143 C142 1.419 . S
C143 C144 1.391 . S
C143 C147 1.397 . S
C144 C139 1.391 . S
C144 C143 1.391 . S
C144 C145 1.399 . S
C145 C144 1.399 . S
C145 C146 1.396 . S
C145 C148 1.453 . S
C145 C149 1.684 . S
C146 C127 1.723 . S
C146 C145 1.396 . S
C146 C147 1.394 . S
C147 C143 1.397 . S
C147 C146 1.394 . S
C147 C157 1.723 . S
C148 C145 1.453 . S
C148 H172 0.982 . S
C148 H173 0.979 . S
C148 H174 0.977 . S
C149 C145 1.684 . S
C149 H175 0.979 . S
C149 H176 0.980 . S
C149 H177 0.983 . S
C150 H126 0.948 . S
C150 C151 1.391 . S
C150 C155 1.391 . S
C151 C150 1.391 . S
C151 C152 1.391 . S
C152 H129 0.947 . S
C152 C151 1.391 . S
C152 C153 1.392 . S
C153 H130 0.948 . S
C153 C152 1.392 . S
C153 C154 1.419 . S
C154 C153 1.419 . S
C154 C155 1.391 . S
C154 C158 1.397 . S
C155 C150 1.391 . S
C155 C154 1.391 . S
C155 C156 1.399 . S
C156 C155 1.399 . S
C156 C157 1.396 . S
C156 C159 1.453 . S
C156 C160 1.684 . S
C157 C147 1.723 . S
C157 C156 1.396 . S
C157 C158 1.394 . S
C158 C128 1.723 . S
C158 C154 1.397 . S
C158 C157 1.394 . S
C159 H131 0.982 . S
C159 H135 0.979 . S
C159 H136 0.977 . S
C159 C156 1.453 . S
C160 H132 0.979 . S
C160 H133 0.980 . S
C160 H134 0.983 . S
C160 C156 1.684 . S
H161 C179 0.948 . S
H162 C120 0.948 . S
H163 C138 0.979 . S
H164 C138 0.980 . S
H165 C138 0.983 . S
H166 C137 0.982 . S
H167 C137 0.979 . S
H168 C137 0.977 . S
H169 C139 0.948 . S
H170 C141 0.947 . S
H171 C142 0.948 . S
H172 C148 0.982 . S
H173 C148 0.979 . S
H174 C148 0.977 . S
H175 C149 0.979 . S
H176 C149 0.980 . S
H177 C149 0.983 . S
H178 C122 0.947 . S
C179 C122 1.392 . S
C179 C123 1.419 . S
C179 H161 0.948 . S
C180 C181 1.391 . S
C180 C184 1.391 . S
C180 H222 0.948 . S
C181 C180 1.391 . S
C181 C182 1.391 . S
C182 C181 1.391 . S
C182 H238 0.947 . S
C182 C239 1.392 . S
C183 C184 1.391 . S
C183 C187 1.397 . S
C183 C239 1.419 . S
C184 C180 1.391 . S
C184 C183 1.391 . S
C184 C185 1.399 . S
C185 C184 1.399 . S
C185 C188 1.396 . S
C185 C197 1.453 . S
C185 C198 1.684 . S
H186 C210 0.948 . S
C187 C183 1.397 . S
C187 C188 1.394 . S
C187 C206 1.723 . S
C188 C185 1.396 . S
C188 C187 1.394 . S
C188 C218 1.723 . S
H189 C212 0.947 . S
H190 C213 0.948 . S
H191 C219 0.982 . S
H192 C220 0.979 . S
H193 C220 0.980 . S
H194 C220 0.983 . S
H195 C219 0.979 . S
H196 C219 0.977 . S
C197 C185 1.453 . S
C197 H226 0.982 . S
C197 H227 0.979 . S
C197 H228 0.977 . S
C198 C185 1.684 . S
C198 H223 0.979 . S
C198 H224 0.980 . S
C198 H225 0.983 . S
C199 C200 1.391 . S
C199 C204 1.391 . S
C199 H229 0.948 . S
C200 C199 1.391 . S
C200 C201 1.391 . S
C201 C200 1.391 . S
C201 C202 1.392 . S
C201 H230 0.947 . S
C202 C201 1.392 . S
C202 C203 1.419 . S
C202 H231 0.948 . S
C203 C202 1.419 . S
C203 C204 1.391 . S
C203 C207 1.397 . S
C204 C199 1.391 . S
C204 C203 1.391 . S
C204 C205 1.399 . S
C205 C204 1.399 . S
C205 C206 1.396 . S
C205 C208 1.453 . S
C205 C209 1.684 . S
C206 C187 1.723 . S
C206 C205 1.396 . S
C206 C207 1.394 . S
C207 C203 1.397 . S
C207 C206 1.394 . S
C207 C217 1.723 . S
C208 C205 1.453 . S
C208 H232 0.982 . S
C208 H233 0.979 . S
C208 H234 0.977 . S
C209 C205 1.684 . S
C209 H235 0.979 . S
C209 H236 0.980 . S
C209 H237 0.983 . S
C210 H186 0.948 . S
C210 C211 1.391 . S
C210 C215 1.391 . S
C211 C210 1.391 . S
C211 C212 1.391 . S
C212 H189 0.947 . S
C212 C211 1.391 . S
C212 C213 1.392 . S
C213 H190 0.948 . S
C213 C212 1.392 . S
C213 C214 1.419 . S
C214 C213 1.419 . S
C214 C215 1.391 . S
C214 C218 1.397 . S
C215 C210 1.391 . S
C215 C214 1.391 . S
C215 C216 1.399 . S
C216 C215 1.399 . S
C216 C217 1.396 . S
C216 C219 1.453 . S
C216 C220 1.684 . S
C217 C207 1.723 . S
C217 C216 1.396 . S
C217 C218 1.394 . S
C218 C188 1.723 . S
C218 C214 1.397 . S
C218 C217 1.394 . S
C219 H191 0.982 . S
C219 H195 0.979 . S
C219 H196 0.977 . S
C219 C216 1.453 . S
C220 H192 0.979 . S
C220 H193 0.980 . S
C220 H194 0.983 . S
C220 C216 1.684 . S
H221 C239 0.948 . S
H222 C180 0.948 . S
H223 C198 0.979 . S
H224 C198 0.980 . S
H225 C198 0.983 . S
H226 C197 0.982 . S
H227 C197 0.979 . S
H228 C197 0.977 . S
H229 C199 0.948 . S
H230 C201 0.947 . S
H231 C202 0.948 . S
H232 C208 0.982 . S
H233 C208 0.979 . S
H234 C208 0.977 . S
H235 C209 0.979 . S
H236 C209 0.980 . S
H237 C209 0.983 . S
H238 C182 0.947 . S
C239 C182 1.392 . S
C239 C183 1.419 . S
C239 H221 0.948 . S
C240 C241 1.391 . S
C240 C244 1.391 . S
C240 H282 0.948 . S
C241 C240 1.391 . S
C241 C242 1.391 . S
C242 C241 1.391 . S
C242 H298 0.947 . S
C242 C299 1.392 . S
C243 C244 1.391 . S
C243 C247 1.397 . S
C243 C299 1.419 . S
C244 C240 1.391 . S
C244 C243 1.391 . S
C244 C245 1.399 . S
C245 C244 1.399 . S
C245 C248 1.396 . S
C245 C257 1.453 . S
C245 C258 1.684 . S
H246 C270 0.948 . S
C247 C243 1.397 . S
C247 C248 1.394 . S
C247 C266 1.723 . S
C248 C245 1.396 . S
C248 C247 1.394 . S
C248 C278 1.723 . S
H249 C272 0.947 . S
H250 C273 0.948 . S
H251 C279 0.982 . S
H252 C280 0.979 . S
H253 C280 0.980 . S
H254 C280 0.983 . S
H255 C279 0.979 . S
H256 C279 0.977 . S
C257 C245 1.453 . S
C257 H286 0.982 . S
C257 H287 0.979 . S
C257 H288 0.977 . S
C258 C245 1.684 . S
C258 H283 0.979 . S
C258 H284 0.980 . S
C258 H285 0.983 . S
C259 C260 1.391 . S
C259 C264 1.391 . S
C259 H289 0.948 . S
C260 C259 1.391 . S
C260 C261 1.391 . S
C261 C260 1.391 . S
C261 C262 1.392 . S
C261 H290 0.947 . S
C262 C261 1.392 . S
C262 C263 1.419 . S
C262 H291 0.948 . S
C263 C262 1.419 . S
C263 C264 1.391 . S
C263 C267 1.397 . S
C264 C259 1.391 . S
C264 C263 1.391 . S
C264 C265 1.399 . S
C265 C264 1.399 . S
C265 C266 1.396 . S
C265 C268 1.453 . S
C265 C269 1.684 . S
C266 C247 1.723 . S
C266 C265 1.396 . S
C266 C267 1.394 . S
C267 C263 1.397 . S
C267 C266 1.394 . S
C267 C277 1.723 . S
C268 C265 1.453 . S
C268 H292 0.982 . S
C268 H293 0.979 . S
C268 H294 0.977 . S
C269 C265 1.684 . S
C269 H295 0.979 . S
C269 H296 0.980 . S
C269 H297 0.983 . S
C270 H246 0.948 . S
C270 C271 1.391 . S
C270 C275 1.391 . S
C271 C270 1.391 . S
C271 C272 1.391 . S
C272 H249 0.947 . S
C272 C271 1.391 . S
C272 C273 1.392 . S
C273 H250 0.948 . S
C273 C272 1.392 . S
C273 C274 1.419 . S
C274 C273 1.419 . S
C274 C275 1.391 . S
C274 C278 1.397 . S
C275 C270 1.391 . S
C275 C274 1.391 . S
C275 C276 1.399 . S
C276 C275 1.399 . S
C276 C277 1.396 . S
C276 C279 1.453 . S
C276 C280 1.684 . S
C277 C267 1.723 . S
C277 C276 1.396 . S
C277 C278 1.394 . S
C278 C248 1.723 . S
C278 C274 1.397 . S
C278 C277 1.394 . S
C279 H251 0.982 . S
C279 H255 0.979 . S
C279 H256 0.977 . S
C279 C276 1.453 . S
C280 H252 0.979 . S
C280 H253 0.980 . S
C280 H254 0.983 . S
C280 C276 1.684 . S
H281 C299 0.948 . S
H282 C240 0.948 . S
H283 C258 0.979 . S
H284 C258 0.980 . S
H285 C258 0.983 . S
H286 C257 0.982 . S
H287 C257 0.979 . S
H288 C257 0.977 . S
H289 C259 0.948 . S
H290 C261 0.947 . S
H291 C262 0.948 . S
H292 C268 0.982 . S
H293 C268 0.979 . S
H294 C268 0.977 . S
H295 C269 0.979 . S
H296 C269 0.980 . S
H297 C269 0.983 . S
H298 C242 0.947 . S
C299 C242 1.392 . S
C299 C243 1.419 . S
C299 H281 0.948 . S
C300 C301 1.391 . S
C300 C304 1.391 . S
C300 H342 0.948 . S
C301 C300 1.391 . S
C301 C302 1.391 . S
C302 C301 1.391 . S
C302 H358 0.947 . S
C302 C359 1.392 . S
C303 C304 1.391 . S
C303 C307 1.397 . S
C303 C359 1.419 . S
C304 C300 1.391 . S
C304 C303 1.391 . S
C304 C305 1.399 . S
C305 C304 1.399 . S
C305 C308 1.396 . S
C305 C317 1.453 . S
C305 C318 1.684 . S
H306 C330 0.948 . S
C307 C303 1.397 . S
C307 C308 1.394 . S
C307 C326 1.723 . S
C308 C305 1.396 . S
C308 C307 1.394 . S
C308 C338 1.723 . S
H309 C332 0.947 . S
H310 C333 0.948 . S
H311 C339 0.982 . S
H312 C340 0.979 . S
H313 C340 0.980 . S
H314 C340 0.983 . S
H315 C339 0.979 . S
H316 C339 0.977 . S
C317 C305 1.453 . S
C317 H346 0.982 . S
C317 H347 0.979 . S
C317 H348 0.977 . S
C318 C305 1.684 . S
C318 H343 0.979 . S
C318 H344 0.980 . S
C318 H345 0.983 . S
C319 C320 1.391 . S
C319 C324 1.391 . S
C319 H349 0.948 . S
C320 C319 1.391 . S
C320 C321 1.391 . S
C321 C320 1.391 . S
C321 C322 1.392 . S
C321 H350 0.947 . S
C322 C321 1.392 . S
C322 C323 1.419 . S
C322 H351 0.948 . S
C323 C322 1.419 . S
C323 C324 1.391 . S
C323 C327 1.397 . S
C324 C319 1.391 . S
C324 C323 1.391 . S
C324 C325 1.399 . S
C325 C324 1.399 . S
C325 C326 1.396 . S
C325 C328 1.453 . S
C325 C329 1.684 . S
C326 C307 1.723 . S
C326 C325 1.396 . S
C326 C327 1.394 . S
C327 C323 1.397 . S
C327 C326 1.394 . S
C327 C337 1.723 . S
C328 C325 1.453 . S
C328 H352 0.982 . S
C328 H353 0.979 . S
C328 H354 0.977 . S
C329 C325 1.684 . S
C329 H355 0.979 . S
C329 H356 0.980 . S
C329 H357 0.983 . S
C330 H306 0.948 . S
C330 C331 1.391 . S
C330 C335 1.391 . S
C331 C330 1.391 . S
C331 C332 1.391 . S
C332 H309 0.947 . S
C332 C331 1.391 . S
C332 C333 1.392 . S
C333 H310 0.948 . S
C333 C332 1.392 . S
C333 C334 1.419 . S
C334 C333 1.419 . S
C334 C335 1.391 . S
C334 C338 1.397 . S
C335 C330 1.391 . S
C335 C334 1.391 . S
C335 C336 1.399 . S
C336 C335 1.399 . S
C336 C337 1.396 . S
C336 C339 1.453 . S
C336 C340 1.684 . S
C337 C327 1.723 . S
C337 C336 1.396 . S
C337 C338 1.394 . S
C338 C308 1.723 . S
C338 C334 1.397 . S
C338 C337 1.394 . S
C339 H311 0.982 . S
C339 H315 0.979 . S
C339 H316 0.977 . S
C339 C336 1.453 . S
C340 H312 0.979 . S
C340 H313 0.980 . S
C340 H314 0.983 . S
C340 C336 1.684 . S
H341 C359 0.948 . S
H342 C300 0.948 . S
H343 C318 0.979 . S
H344 C318 0.980 . S
H345 C318 0.983 . S
H346 C317 0.982 . S
H347 C317 0.979 . S
H348 C317 0.977 . S
H349 C319 0.948 . S
H350 C321 0.947 . S
H351 C322 0.948 . S
H352 C328 0.982 . S
H353 C328 0.979 . S
H354 C328 0.977 . S
H355 C329 0.979 . S
H356 C329 0.980 . S
H357 C329 0.983 . S
H358 C302 0.947 . S
C359 C302 1.392 . S
C359 C303 1.419 . S
C359 H341 0.948 . S
C360 C361 1.391 . S
C360 C364 1.391 . S
C360 H402 0.948 . S
C361 C360 1.391 . S
C361 C362 1.391 . S
C362 C361 1.391 . S
C362 H418 0.947 . S
C362 C419 1.392 . S
C363 C364 1.391 . S
C363 C367 1.397 . S
C363 C419 1.419 . S
C364 C360 1.391 . S
C364 C363 1.391 . S
C364 C365 1.399 . S
C365 C364 1.399 . S
C365 C368 1.396 . S
C365 C377 1.453 . S
C365 C378 1.684 . S
H366 C390 0.948 . S
C367 C363 1.397 . S
C367 C368 1.394 . S
C367 C386 1.723 . S
C368 C365 1.396 . S
C368 C367 1.394 . S
C368 C398 1.723 . S
H369 C392 0.947 . S
H370 C393 0.948 . S
H371 C399 0.982 . S
H372 C400 0.979 . S
H373 C400 0.980 . S
H374 C400 0.983 . S
H375 C399 0.979 . S
H376 C399 0.977 . S
C377 C365 1.453 . S
C377 H406 0.982 . S
C377 H407 0.979 . S
C377 H408 0.977 . S
C378 C365 1.684 . S
C378 H403 0.979 . S
C378 H404 0.980 . S
C378 H405 0.983 . S
C379 C380 1.391 . S
C379 C384 1.391 . S
C379 H409 0.948 . S
C380 C379 1.391 . S
C380 C381 1.391 . S
C381 C380 1.391 . S
C381 C382 1.392 . S
C381 H410 0.947 . S
C382 C381 1.392 . S
C382 C383 1.419 . S
C382 H411 0.948 . S
C383 C382 1.419 . S
C383 C384 1.391 . S
C383 C387 1.397 . S
C384 C379 1.391 . S
C384 C383 1.391 . S
C384 C385 1.399 . S
C385 C384 1.399 . S
C385 C386 1.396 . S
C385 C388 1.453 . S
C385 C389 1.684 . S
C386 C367 1.723 . S
C386 C385 1.396 . S
C386 C387 1.394 . S
C387 C383 1.397 . S
C387 C386 1.394 . S
C387 C397 1.723 . S
C388 C385 1.453 . S
C388 H412 0.982 . S
C388 H413 0.979 . S
C388 H414 0.977 . S
C389 C385 1.684 . S
C389 H415 0.979 . S
C389 H416 0.980 . S
C389 H417 0.983 . S
C390 H366 0.948 . S
C390 C391 1.391 . S
C390 C395 1.391 . S
C391 C390 1.391 . S
C391 C392 1.391 . S
C392 H369 0.947 . S
C392 C391 1.391 . S
C392 C393 1.392 . S
C393 H370 0.948 . S
C393 C392 1.392 . S
C393 C394 1.419 . S
C394 C393 1.419 . S
C394 C395 1.391 . S
C394 C398 1.397 . S
C395 C390 1.391 . S
C395 C394 1.391 . S
C395 C396 1.399 . S
C396 C395 1.399 . S
C396 C397 1.396 . S
C396 C399 1.453 . S
C396 C400 1.684 . S
C397 C387 1.723 . S
C397 C396 1.396 . S
C397 C398 1.394 . S
C398 C368 1.723 . S
C398 C394 1.397 . S
C398 C397 1.394 . S
C399 H371 0.982 . S
C399 H375 0.979 . S
C399 H376 0.977 . S
C399 C396 1.453 . S
C400 H372 0.979 . S
C400 H373 0.980 . S
C400 H374 0.983 . S
C400 C396 1.684 . S
H401 C419 0.948 . S
H402 C360 0.948 . S
H403 C378 0.979 . S
H404 C378 0.980 . S
H405 C378 0.983 . S
H406 C377 0.982 . S
H407 C377 0.979 . S
H408 C377 0.977 . S
H409 C379 0.948 . S
H410 C381 0.947 . S
H411 C382 0.948 . S
H412 C388 0.982 . S
H413 C388 0.979 . S
H414 C388 0.977 . S
H415 C389 0.979 . S
H416 C389 0.980 . S
H417 C389 0.983 . S
H418 C362 0.947 . S
C419 C362 1.392 . S
C419 C363 1.419 . S
C419 H401 0.948 . S
C420 C421 1.391 . S
C420 C424 1.391 . S
C420 H462 0.948 . S
C421 C420 1.391 . S
C421 C422 1.391 . S
C422 C421 1.391 . S
C422 H478 0.947 . S
C422 C479 1.392 . S
C423 C424 1.391 . S
C423 C427 1.397 . S
C423 C479 1.419 . S
C424 C420 1.391 . S
C424 C423 1.391 . S
C424 C425 1.399 . S
C425 C424 1.399 . S
C425 C428 1.396 . S
C425 C437 1.453 . S
C425 C438 1.684 . S
H426 C450 0.948 . S
C427 C423 1.397 . S
C427 C428 1.394 . S
C427 C446 1.723 . S
C428 C425 1.396 . S
C428 C427 1.394 . S
C428 C458 1.723 . S
H429 C452 0.947 . S
H430 C453 0.948 . S
H431 C459 0.982 . S
H432 C460 0.979 . S
H433 C460 0.980 . S
H434 C460 0.983 . S
H435 C459 0.979 . S
H436 C459 0.977 . S
C437 C425 1.453 . S
C437 H466 0.982 . S
C437 H467 0.979 . S
C437 H468 0.977 . S
C438 C425 1.684 . S
C438 H463 0.979 . S
C438 H464 0.980 . S
C438 H465 0.983 . S
C439 C440 1.391 . S
C439 C444 1.391 . S
C439 H469 0.948 . S
C440 C439 1.391 . S
C440 C441 1.391 . S
C441 C440 1.391 . S
C441 C442 1.392 . S
C441 H470 0.947 . S
C442 C441 1.392 . S
C442 C443 1.419 . S
C442 H471 0.948 . S
C443 C442 1.419 . S
C443 C444 1.391 . S
C443 C447 1.397 . S
C444 C439 1.391 . S
C444 C443 1.391 . S
C444 C445 1.399 . S
C445 C444 1.399 . S
C445 C446 1.396 . S
C445 C448 1.453 . S
C445 C449 1.684 . S
C446 C427 1.723 . S
C446 C445 1.396 . S
C446 C447 1.394 . S
C447 C443 1.397 . S
C447 C446 1.394 . S
C447 C457 1.723 . S
C448 C445 1.453 . S
C448 H472 0.982 . S
C448 H473 0.979 . S
C448 H474 0.977 . S
C449 C445 1.684 . S
C449 H475 0.979 . S
C449 H476 0.980 . S
C449 H477 0.983 . S
C450 H426 0.948 . S
C450 C451 1.391 . S
C450 C455 1.391 . S
C451 C450 1.391 . S
C451 C452 1.391 . S
C452 H429 0.947 . S
C452 C451 1.391 . S
C452 C453 1.392 . S
C453 H430 0.948 . S
C453 C452 1.392 . S
C453 C454 1.419 . S
C454 C453 1.419 . S
C454 C455 1.391 . S
C454 C458 1.397 . S
C455 C450 1.391 . S
C455 C454 1.391 . S
C455 C456 1.399 . S
C456 C455 1.399 . S
C456 C457 1.396 . S
C456 C459 1.453 . S
C456 C460 1.684 . S
C457 C447 1.723 . S
C457 C456 1.396 . S
C457 C458 1.394 . S
C458 C428 1.723 . S
C458 C454 1.397 . S
C458 C457 1.394 . S
C459 H431 0.982 . S
C459 H435 0.979 . S
C459 H436 0.977 . S
C459 C456 1.453 . S
C460 H432 0.979 . S
C460 H433 0.980 . S
C460 H434 0.983 . S
C460 C456 1.684 . S
H461 C479 0.948 . S
H462 C420 0.948 . S
H463 C438 0.979 . S
H464 C438 0.980 . S
H465 C438 0.983 . S
H466 C437 0.982 . S
H467 C437 0.979 . S
H468 C437 0.977 . S
H469 C439 0.948 . S
H470 C441 0.947 . S
H471 C442 0.948 . S
H472 C448 0.982 . S
H473 C448 0.979 . S
H474 C448 0.977 . S
H475 C449 0.979 . S
H476 C449 0.980 . S
H477 C449 0.983 . S
H478 C422 0.947 . S
C479 C422 1.392 . S
C479 C423 1.419 . S
C479 H461 0.948 . S
C480 C481 1.391 . S
C480 C484 1.391 . S
C480 H522 0.948 . S
C481 C480 1.391 . S
C481 C482 1.391 . S
C482 C481 1.391 . S
C482 H538 0.947 . S
C482 C539 1.392 . S
C483 C484 1.391 . S
C483 C487 1.397 . S
C483 C539 1.419 . S
C484 C480 1.391 . S
C484 C483 1.391 . S
C484 C485 1.399 . S
C485 C484 1.399 . S
C485 C488 1.396 . S
C485 C497 1.453 . S
C485 C498 1.684 . S
H486 C510 0.948 . S
C487 C483 1.397 . S
C487 C488 1.394 . S
C487 C506 1.723 . S
C488 C485 1.396 . S
C488 C487 1.394 . S
C488 C518 1.723 . S
H489 C512 0.947 . S
H490 C513 0.948 . S
H491 C519 0.982 . S
H492 C520 0.979 . S
H493 C520 0.980 . S
H494 C520 0.983 . S
H495 C519 0.979 . S
H496 C519 0.977 . S
C497 C485 1.453 . S
C497 H526 0.982 . S
C497 H527 0.979 . S
C497 H528 0.977 . S
C498 C485 1.684 . S
C498 H523 0.979 . S
C498 H524 0.980 . S
C498 H525 0.983 . S
C499 C500 1.391 . S
C499 C504 1.391 . S
C499 H529 0.948 . S
C500 C499 1.391 . S
C500 C501 1.391 . S
C501 C500 1.391 . S
C501 C502 1.392 . S
C501 H530 0.947 . S
C502 C501 1.392 . S
C502 C503 1.419 . S
C502 H531 0.948 . S
C503 C502 1.419 . S
C503 C504 1.391 . S
C503 C507 1.397 . S
C504 C499 1.391 . S
C504 C503 1.391 . S
C504 C505 1.399 . S
C505 C504 1.399 . S
C505 C506 1.396 . S
C505 C508 1.453 . S
C505 C509 1.684 . S
C506 C487 1.723 . S
C506 C505 1.396 . S
C506 C507 1.394 . S
C507 C503 1.397 . S
C507 C506 1.394 . S
C507 C517 1.723 . S
C508 C505 1.453 . S
C508 H532 0.982 . S
C508 H533 0.979 . S
C508 H534 0.977 . S
C509 C505 1.684 . S
C509 H535 0.979 . S
C509 H536 0.980 . S
C509 H537 0.983 . S
C510 H486 0.948 . S
C510 C511 1.391 . S
C510 C515 1.391 . S
C511 C510 1.391 . S
C511 C512 1.391 . S
C512 H489 0.947 . S
C512 C511 1.391 . S
C512 C513 1.392 . S
C513 H490 0.948 . S
C513 C512 1.392 . S
C513 C514 1.419 . S
C514 C513 1.419 . S
C514 C515 1.391 . S
C514 C518 1.397 . S
C515 C510 1.391 . S
C515 C514 1.391 . S
C515 C516 1.399 . S
C516 C515 1.399 . S
C516 C517 1.396 . S
C516 C519 1.453 . S
C516 C520 1.684 . S
C517 C507 1.723 . S
C517 C516 1.396 . S
C517 C518 1.394 . S
C518 C488 1.723 . S
C518 C514 1.397 . S
C518 C517 1.394 . S
C519 H491 0.982 . S
C519 H495 0.979 . S
C519 H496 0.977 . S
C519 C516 1.453 . S
C520 H492 0.979 . S
C520 H493 0.980 . S
C520 H494 0.983 . S
C520 C516 1.684 . S
H521 C539 0.948 . S
H522 C480 0.948 . S
H523 C498 0.979 . S
H524 C498 0.980 . S
H525 C498 0.983 . S
H526 C497 0.982 . S
H527 C497 0.979 . S
H528 C497 0.977 . S
H529 C499 0.948 . S
H530 C501 0.947 . S
H531 C502 0.948 . S
H532 C508 0.982 . S
H533 C508 0.979 . S
H534 C508 0.977 . S
H535 C509 0.979 . S
H536 C509 0.980 . S
H537 C509 0.983 . S
H538 C482 0.947 . S
C539 C482 1.392 . S
C539 C483 1.419 . S
C539 H521 0.948 . S
C540 C541 1.391 . S
C540 C544 1.391 . S
C540 H582 0.948 . S
C541 C540 1.391 . S
C541 C542 1.391 . S
C542 C541 1.391 . S
C542 H598 0.947 . S
C542 C599 1.392 . S
C543 C544 1.391 . S
C543 C547 1.397 . S
C543 C599 1.419 . S
C544 C540 1.391 . S
C544 C543 1.391 . S
C544 C545 1.399 . S
C545 C544 1.399 . S
C545 C548 1.396 . S
C545 C557 1.453 . S
C545 C558 1.684 . S
H546 C570 0.948 . S
C547 C543 1.397 . S
C547 C548 1.394 . S
C547 C566 1.723 . S
C548 C545 1.396 . S
C548 C547 1.394 . S
C548 C578 1.723 . S
H549 C572 0.947 . S
H550 C573 0.948 . S
H551 C579 0.982 . S
H552 C580 0.979 . S
H553 C580 0.980 . S
H554 C580 0.983 . S
H555 C579 0.979 . S
H556 C579 0.977 . S
C557 C545 1.453 . S
C557 H586 0.982 . S
C557 H587 0.979 . S
C557 H588 0.977 . S
C558 C545 1.684 . S
C558 H583 0.979 . S
C558 H584 0.980 . S
C558 H585 0.983 . S
C559 C560 1.391 . S
C559 C564 1.391 . S
C559 H589 0.948 . S
C560 C559 1.391 . S
C560 C561 1.391 . S
C561 C560 1.391 . S
C561 C562 1.392 . S
C561 H590 0.947 . S
C562 C561 1.392 . S
C562 C563 1.419 . S
C562 H591 0.948 . S
C563 C562 1.419 . S
C563 C564 1.391 . S
C563 C567 1.397 . S
C564 C559 1.391 . S
C564 C563 1.391 . S
C564 C565 1.399 . S
C565 C564 1.399 . S
C565 C566 1.396 . S
C565 C568 1.453 . S
C565 C569 1.684 . S
C566 C547 1.723 . S
C566 C565 1.396 . S
C566 C567 1.394 . S
C567 C563 1.397 . S
C567 C566 1.394 . S
C567 C577 1.723 . S
C568 C565 1.453 . S
C568 H592 0.982 . S
C568 H593 0.979 . S
C568 H594 0.977 . S
C569 C565 1.684 . S
C569 H595 0.979 . S
C569 H596 0.980 . S
C569 H597 0.983 . S
C570 H546 0.948 . S
C570 C571 1.391 . S
C570 C575 1.391 . S
C571 C570 1.391 . S
C571 C572 1.391 . S
C572 H549 0.947 . S
C572 C571 1.391 . S
C572 C573 1.392 . S
C573 H550 0.948 . S
C573 C572 1.392 . S
C573 C574 1.419 . S
C574 C573 1.419 . S
C574 C575 1.391 . S
C574 C578 1.397 . S
C575 C570 1.391 . S
C575 C574 1.391 . S
C575 C576 1.399 . S
C576 C575 1.399 . S
C576 C577 1.396 . S
C576 C579 1.453 . S
C576 C580 1.684 . S
C577 C567 1.723 . S
C577 C576 1.396 . S
C577 C578 1.394 . S
C578 C548 1.723 . S
C578 C574 1.397 . S
C578 C577 1.394 . S
C579 H551 0.982 . S
C579 H555 0.979 . S
C579 H556 0.977 . S
C579 C576 1.453 . S
C580 H552 0.979 . S
C580 H553 0.980 . S
C580 H554 0.983 . S
C580 C576 1.684 . S
H581 C599 0.948 . S
H582 C540 0.948 . S
H583 C558 0.979 . S
H584 C558 0.980 . S
H585 C558 0.983 . S
H586 C557 0.982 . S
H587 C557 0.979 . S
H588 C557 0.977 . S
H589 C559 0.948 . S
H590 C561 0.947 . S
H591 C562 0.948 . S
H592 C568 0.982 . S
H593 C568 0.979 . S
H594 C568 0.977 . S
H595 C569 0.979 . S
H596 C569 0.980 . S
H597 C569 0.983 . S
H598 C542 0.947 . S
C599 C542 1.392 . S
C599 C543 1.419 . S
C599 H581 0.948 . S
C600 C601 1.391 . S
C600 C604 1.391 . S
C600 H642 0.948 . S
C601 C600 1.391 . S
C601 C602 1.391 . S
C602 C601 1.391 . S
C602 H658 0.947 . S
C602 C659 1.392 . S
C603 C604 1.391 . S
C603 C607 1.397 . S
C603 C659 1.419 . S
C604 C600 1.391 . S
C604 C603 1.391 . S
C604 C605 1.399 . S
C605 C604 1.399 . S
C605 C608 1.396 . S
C605 C617 1.453 . S
C605 C618 1.684 . S
H606 C630 0.948 . S
C607 C603 1.397 . S
C607 C608 1.394 . S
C607 C626 1.723 . S
C608 C605 1.396 . S
C608 C607 1.394 . S
C608 C638 1.723 . S
H609 C632 0.947 . S
H610 C633 0.948 . S
H611 C639 0.982 . S
H612 C640 0.979 . S
H613 C640 0.980 . S
H614 C640 0.983 . S
H615 C639 0.979 . S
H616 C639 0.977 . S
C617 C605 1.453 . S
C617 H646 0.982 . S
C617 H647 0.979 . S
C617 H648 0.977 . S
C618 C605 1.684 . S
C618 H643 0.979 . S
C618 H644 0.980 . S
C618 H645 0.983 . S
C619 C620 1.391 . S
C619 C624 1.391 . S
C619 H649 0.948 . S
C620 C619 1.391 . S
C620 C621 1.391 . S
C621 C620 1.391 . S
C621 C622 1.392 . S
C621 H650 0.947 . S
C622 C621 1.392 . S
C622 C623 1.419 . S
C622 H651 0.948 . S
C623 C622 1.419 . S
C623 C624 1.391 . S
C623 C627 1.397 . S
C624 C619 1.391 . S
C624 C623 1.391 . S
C624 C625 1.399 . S
C625 C624 1.399 . S
C625 C626 1.396 . S
C625 C628 1.453 . S
C625 C629 1.684 . S
C626 C607 1.723 . S
C626 C625 1.396 . S
C626 C627 1.394 . S
C627 C623 1.397 . S
C627 C626 1.394 . S
C627 C637 1.723 . S
C628 C625 1.453 . S
C628 H652 0.982 . S
C628 H653 0.979 . S
C628 H654 0.977 . S
C629 C625 1.684 . S
C629 H655 0.979 . S
C629 H656 0.980 . S
C629 H657 0.983 . S
C630 H606 0.948 . S
C630 C631 1.391 . S
C630 C635 1.391 . S
C631 C630 1.391 . S
C631 C632 1.391 . S
C632 H609 0.947 . S
C632 C631 1.391 . S
C632 C633 1.392 . S
C633 H610 0.948 . S
C633 C632 1.392 . S
C633 C634 1.419 . S
C634 C633 1.419 . S
C634 C635 1.391 . S
C634 C638 1.397 . S
C635 C630 1.391 . S
C635 C634 1.391 . S
C635 C636 1.399 . S
C636 C635 1.399 . S
C636 C637 1.396 . S
C636 C639 1.453 . S
C636 C640 1.684 . S
C637 C627 1.723 . S
C637 C636 1.396 . S
C637 C638 1.394 . S
C638 C608 1.723 . S
C638 C634 1.397 . S
C638 C637 1.394 . S
C639 H611 0.982 . S
C639 H615 0.979 . S
C639 H616 0.977 . S
C639 C636 1.453 . S
C640 H612 0.979 . S
C640 H613 0.980 . S
C640 H614 0.983 . S
C640 C636 1.684 . S
H641 C659 0.948 . S
H642 C600 0.948 . S
H643 C618 0.979 . S
H644 C618 0.980 . S
H645 C618 0.983 . S
H646 C617 0.982 . S
H647 C617 0.979 . S
H648 C617 0.977 . S
H649 C619 0.948 . S
H650 C621 0.947 . S
H651 C622 0.948 . S
H652 C628 0.982 . S
H653 C628 0.979 . S
H654 C628 0.977 . S
H655 C629 0.979 . S
H656 C629 0.980 . S
H657 C629 0.983 . S
H658 C602 0.947 . S
C659 C602 1.392 . S
C659 C603 1.419 . S
C659 H641 0.948 . S
C660 C661 1.391 . S
C660 C664 1.391 . S
C660 H702 0.948 . S
C661 C660 1.391 . S
C661 C662 1.391 . S
C662 C661 1.391 . S
C662 H718 0.947 . S
C662 C719 1.392 . S
C663 C664 1.391 . S
C663 C667 1.397 . S
C663 C719 1.419 . S
C664 C660 1.391 . S
C664 C663 1.391 . S
C664 C665 1.399 . S
C665 C664 1.399 . S
C665 C668 1.396 . S
C665 C677 1.453 . S
C665 C678 1.684 . S
H666 C690 0.948 . S
C667 C663 1.397 . S
C667 C668 1.394 . S
C667 C686 1.723 . S
C668 C665 1.396 . S
C668 C667 1.394 . S
C668 C698 1.723 . S
H669 C692 0.947 . S
H670 C693 0.948 . S
H671 C699 0.982 . S
H672 C700 0.979 . S
H673 C700 0.980 . S
H674 C700 0.983 . S
H675 C699 0.979 . S
H676 C699 0.977 . S
C677 C665 1.453 . S
C677 H706 0.982 . S
C677 H707 0.979 . S
C677 H708 0.977 . S
C678 C665 1.684 . S
C678 H703 0.979 . S
C678 H704 0.980 . S
C678 H705 0.983 . S
C679 C680 1.391 . S
C679 C684 1.391 . S
C679 H709 0.948 . S
C680 C679 1.391 . S
C680 C681 1.391 . S
C681 C680 1.391 . S
C681 C682 1.392 . S
C681 H710 0.947 . S
C682 C681 1.392 . S
C682 C683 1.419 . S
C682 H711 0.948 . S
C683 C682 1.419 . S
C683 C684 1.391 . S
C683 C687 1.397 . S
C684 C679 1.391 . S
C684 C683 1.391 . S
C684 C685 1.399 . S
C685 C684 1.399 . S
C685 C686 1.396 . S
C685 C688 1.453 . S
C685 C689 1.684 . S
C686 C667 1.723 . S
C686 C685 1.396 . S
C686 C687 1.394 . S
C687 C683 1.397 . S
C687 C686 1.394 . S
C687 C697 1.723 . S
C688 C685 1.453 . S
C688 H712 0.982 . S
C688 H713 0.979 . S
C688 H714 0.977 . S
C689 C685 1.684 . S
C689 H715 0.979 . S
C689 H716 0.980 . S
C689 H717 0.983 . S
C690 H666 0.948 . S
C690 C691 1.391 . S
C690 C695 1.391 . S
C691 C690 1.391 . S
C691 C692 1.391 . S
C692 H669 0.947 . S
C692 C691 1.391 . S
C692 C693 1.392 . S
C693 H670 0.948 . S
C693 C692 1.392 . S
C693 C694 1.419 . S
C694 C693 1.419 . S
C694 C695 1.391 . S
C694 C698 1.397 . S
C695 C690 1.391 . S
C695 C694 1.391 . S
C695 C696 1.399 . S
C696 C695 1.399 . S
C696 C697 1.396 . S
C696 C699 1.453 . S
C696 C700 1.684 . S
C697 C687 1.723 . S
C697 C696 1.396 . S
C697 C698 1.394 . S
C698 C668 1.723 . S
C698 C694 1.397 . S
C698 C697 1.394 . S
C699 H671 0.982 . S
C699 H675 0.979 . S
C699 H676 0.977 . S
C699 C696 1.453 . S
C700 H672 0.979 . S
C700 H673 0.980 . S
C700 H674 0.983 . S
C700 C696 1.684 . S
H701 C719 0.948 . S
H702 C660 0.948 . S
H703 C678 0.979 . S
H704 C678 0.980 . S
H705 C678 0.983 . S
H706 C677 0.982 . S
H707 C677 0.979 . S
H708 C677 0.977 . S
H709 C679 0.948 . S
H710 C681 0.947 . S
H711 C682 0.948 . S
H712 C688 0.982 . S
H713 C688 0.979 . S
H714 C688 0.977 . S
H715 C689 0.979 . S
H716 C689 0.980 . S
H717 C689 0.983 . S
H718 C662 0.947 . S
C719 C662 1.392 . S
C719 C663 1.419 . S
C719 H701 0.948 . S
C720 C721 1.391 . S
C720 C724 1.391 . S
C720 H762 0.948 . S
C721 C720 1.391 . S
C721 C722 1.391 . S
C722 C721 1.391 . S
C722 H778 0.947 . S
C722 C779 1.392 . S
C723 C724 1.391 . S
C723 C727 1.397 . S
C723 C779 1.419 . S
C724 C720 1.391 . S
C724 C723 1.391 . S
C724 C725 1.399 . S
C725 C724 1.399 . S
C725 C728 1.396 . S
C725 C737 1.453 . S
C725 C738 1.684 . S
H726 C750 0.948 . S
C727 C723 1.397 . S
C727 C728 1.394 . S
C727 C746 1.723 . S
C728 C725 1.396 . S
C728 C727 1.394 . S
C728 C758 1.723 . S
H729 C752 0.947 . S
H730 C753 0.948 . S
H731 C759 0.982 . S
H732 C760 0.979 . S
H733 C760 0.980 . S
H734 C760 0.983 . S
H735 C759 0.979 . S
H736 C759 0.977 . S
C737 C725 1.453 . S
C737 H766 0.982 . S
C737 H767 0.979 . S
C737 H768 0.977 . S
C738 C725 1.684 . S
C738 H763 0.979 . S
C738 H764 0.980 . S
C738 H765 0.983 . S
C739 C740 1.391 . S
C739 C744 1.391 . S
C739 H769 0.948 . S
C740 C739 1.391 . S
C740 C741 1.391 . S
C741 C740 1.391 . S
C741 C742 1.392 . S
C741 H770 0.947 . S
C742 C741 1.392 . S
C742 C743 1.419 . S
C742 H771 0.948 . S
C743 C742 1.419 . S
C743 C744 1.391 . S
C743 C747 1.397 . S
C744 C739 1.391 . S
C744 C743 1.391 . S
C744 C745 1.399 . S
C745 C744 1.399 . S
C745 C746 1.396 . S
C745 C748 1.453 . S
C745 C749 1.684 . S
C746 C727 1.723 . S
C746 C745 1.396 . S
C746 C747 1.394 . S
C747 C743 1.397 . S
C747 C746 1.394 . S
C747 C757 1.723 . S
C748 C745 1.453 . S
C748 H772 0.982 . S
C748 H773 0.979 . S
C748 H774 0.977 . S
C749 C745 1.684 . S
C749 H775 0.979 . S
C749 H776 0.980 . S
C749 H777 0.983 . S
C750 H726 0.948 . S
C750 C751 1.391 . S
C750 C755 1.391 . S
C751 C750 1.391 . S
C751 C752 1.391 . S
C752 H729 0.947 . S
C752 C751 1.391 . S
C752 C753 1.392 . S
C753 H730 0.948 . S
C753 C752 1.392 . S
C753 C754 1.419 . S
C754 C753 1.419 . S
C754 C755 1.391 . S
C754 C758 1.397 . S
C755 C750 1.391 . S
C755 C754 1.391 . S
C755 C756 1.399 . S
C756 C755 1.399 . S
C756 C757 1.396 . S
C756 C759 1.453 . S
C756 C760 1.684 . S
C757 C747 1.723 . S
C757 C756 1.396 . S
C757 C758 1.394 . S
C758 C728 1.723 . S
C758 C754 1.397 . S
C758 C757 1.394 . S
C759 H731 0.982 . S
C759 H735 0.979 . S
C759 H736 0.977 . S
C759 C756 1.453 . S
C760 H732 0.979 . S
C760 H733 0.980 . S
C760 H734 0.983 . S
C760 C756 1.684 . S
H761 C779 0.948 . S
H762 C720 0.948 . S
H763 C738 0.979 . S
H764 C738 0.980 . S
H765 C738 0.983 . S
H766 C737 0.982 . S
H767 C737 0.979 . S
H768 C737 0.977 . S
H769 C739 0.948 . S
H770 C741 0.947 . S
H771 C742 0.948 . S
H772 C748 0.982 . S
H773 C748 0.979 . S
H774 C748 0.977 . S
H775 C749 0.979 . S
H776 C749 0.980 . S
H777 C749 0.983 . S
H778 C722 0.947 . S
C779 C722 1.392 . S
C779 C723 1.419 . S
C779 H761 0.948 . S
C780 C781 1.391 . S
C780 C784 1.391 . S
C780 H822 0.948 . S
C781 C780 1.391 . S
C781 C782 1.391 . S
C782 C781 1.391 . S
C782 H838 0.947 . S
C782 C839 1.392 . S
C783 C784 1.391 . S
C783 C787 1.397 . S
C783 C839 1.419 . S
C784 C780 1.391 . S
C784 C783 1.391 . S
C784 C785 1.399 . S
C785 C784 1.399 . S
C785 C788 1.396 . S
C785 C797 1.453 . S
C785 C798 1.684 . S
H786 C810 0.948 . S
C787 C783 1.397 . S
C787 C788 1.394 . S
C787 C806 1.723 . S
C788 C785 1.396 . S
C788 C787 1.394 . S
C788 C818 1.723 . S
H789 C812 0.947 . S
H790 C813 0.948 . S
H791 C819 0.982 . S
H792 C820 0.979 . S
H793 C820 0.980 . S
H794 C820 0.983 . S
H795 C819 0.979 . S
H796 C819 0.977 . S
C797 C785 1.453 . S
C797 H826 0.982 . S
C797 H827 0.979 . S
C797 H828 0.977 . S
C798 C785 1.684 . S
C798 H823 0.979 . S
C798 H824 0.980 . S
C798 H825 0.983 . S
C799 C800 1.391 . S
C799 C804 1.391 . S
C799 H829 0.948 . S
C800 C799 1.391 . S
C800 C801 1.391 . S
C801 C800 1.391 . S
C801 C802 1.392 . S
C801 H830 0.947 . S
C802 C801 1.392 . S
C802 C803 1.419 . S
C802 H831 0.948 . S
C803 C802 1.419 . S
C803 C804 1.391 . S
C803 C807 1.397 . S
C804 C799 1.391 . S
C804 C803 1.391 . S
C804 C805 1.399 . S
C805 C804 1.399 . S
C805 C806 1.396 . S
C805 C808 1.453 . S
C805 C809 1.684 . S
C806 C787 1.723 . S
C806 C805 1.396 . S
C806 C807 1.394 . S
C807 C803 1.397 . S
C807 C806 1.394 . S
C807 C817 1.723 . S
C808 C805 1.453 . S
C808 H832 0.982 . S
C808 H833 0.979 . S
C808 H834 0.977 . S
C809 C805 1.684 . S
C809 H835 0.979 . S
C809 H836 0.980 . S
C809 H837 0.983 . S
C810 H786 0.948 . S
C810 C811 1.391 . S
C810 C815 1.391 . S
C811 C810 1.391 . S
C811 C812 1.391 . S
C812 H789 0.947 . S
C812 C811 1.391 . S
C812 C813 1.392 . S
C813 H790 0.948 . S
C813 C812 1.392 . S
C813 C814 1.419 . S
C814 C813 1.419 . S
C814 C815 1.391 . S
C814 C818 1.397 . S
C815 C810 1.391 . S
C815 C814 1.391 . S
C815 C816 1.399 . S
C816 C815 1.399 . S
C816 C817 1.396 . S
C816 C819 1.453 . S
C816 C820 1.684 . S
C817 C807 1.723 . S
C817 C816 1.396 . S
C817 C818 1.394 . S
C818 C788 1.723 . S
C818 C814 1.397 . S
C818 C817 1.394 . S
C819 H791 0.982 . S
C819 H795 0.979 . S
C819 H796 0.977 . S
C819 C816 1.453 . S
C820 H792 0.979 . S
C820 H793 0.980 . S
C820 H794 0.983 . S
C820 C816 1.684 . S
H821 C839 0.948 . S
H822 C780 0.948 . S
H823 C798 0.979 . S
H824 C798 0.980 . S
H825 C798 0.983 . S
H826 C797 0.982 . S
H827 C797 0.979 . S
H828 C797 0.977 . S
H829 C799 0.948 . S
H830 C801 0.947 . S
H831 C802 0.948 . S
H832 C808 0.982 . S
H833 C808 0.979 . S
H834 C808 0.977 . S
H835 C809 0.979 . S
H836 C809 0.980 . S
H837 C809 0.983 . S
H838 C782 0.947 . S
C839 C782 1.392 . S
C839 C783 1.419 . S
C839 H821 0.948 . S
C840 C841 1.391 . S
C840 C844 1.391 . S
C840 H882 0.948 . S
C841 C840 1.391 . S
C841 C842 1.391 . S
C842 C841 1.391 . S
C842 H898 0.947 . S
C842 C899 1.392 . S
C843 C844 1.391 . S
C843 C847 1.397 . S
C843 C899 1.419 . S
C844 C840 1.391 . S
C844 C843 1.391 . S
C844 C845 1.399 . S
C845 C844 1.399 . S
C845 C848 1.396 . S
C845 C857 1.453 . S
C845 C858 1.684 . S
H846 C870 0.948 . S
C847 C843 1.397 . S
C847 C848 1.394 . S
C847 C866 1.723 . S
C848 C845 1.396 . S
C848 C847 1.394 . S
C848 C878 1.723 . S
H849 C872 0.947 . S
H850 C873 0.948 . S
H851 C879 0.982 . S
H852 C880 0.979 . S
H853 C880 0.980 . S
H854 C880 0.983 . S
H855 C879 0.979 . S
H856 C879 0.977 . S
C857 C845 1.453 . S
C857 H886 0.982 . S
C857 H887 0.979 . S
C857 H888 0.977 . S
C858 C845 1.684 . S
C858 H883 0.979 . S
C858 H884 0.980 . S
C858 H885 0.983 . S
C859 C860 1.391 . S
C859 C864 1.391 . S
C859 H889 0.948 . S
C860 C859 1.391 . S
C860 C861 1.391 . S
C861 C860 1.391 . S
C861 C862 1.392 . S
C861 H890 0.947 . S
C862 C861 1.392 . S
C862 C863 1.419 . S
C862 H891 0.948 . S
C863 C862 1.419 . S
C863 C864 1.391 . S
C863 C867 1.397 . S
C864 C859 1.391 . S
C864 C863 1.391 . S
C864 C865 1.399 . S
C865 C864 1.399 . S
C865 C866 1.396 . S
C865 C868 1.453 . S
C865 C869 1.684 . S
C866 C847 1.723 . S
C866 C865 1.396 . S
C866 C867 1.394 . S
C867 C863 1.397 . S
C867 C866 1.394 . S
C867 C877 1.723 . S
C868 C865 1.453 . S
C868 H892 0.982 . S
C868 H893 0.979 . S
C868 H894 0.977 . S
C869 C865 1.684 . S
C869 H895 0.979 . S
C869 H896 0.980 . S
C869 H897 0.983 . S
C870 H846 0.948 . S
C870 C871 1.391 . S
C870 C875 1.391 . S
C871 C870 1.391 . S
C871 C872 1.391 . S
C872 H849 0.947 . S
C872 C871 1.391 . S
C872 C873 1.392 . S
C873 H850 0.948 . S
C873 C872 1.392 . S
C873 C874 1.419 . S
C874 C873 1.419 . S
C874 C875 1.391 . S
C874 C878 1.397 . S
C875 C870 1.391 . S
C875 C874 1.391 . S
C875 C876 1.399 . S
C876 C875 1.399 . S
C876 C877 1.396 . S
C876 C879 1.453 . S
C876 C880 1.684 . S
C877 C867 1.723 . S
C877 C876 1.396 . S
C877 C878 1.394 . S
C878 C848 1.723 . S
C878 C874 1.397 . S
C878 C877 1.394 . S
C879 H851 0.982 . S
C879 H855 0.979 . S
C879 H856 0.977 . S
C879 C876 1.453 . S
C880 H852 0.979 . S
C880 H853 0.980 . S
C880 H854 0.983 . S
C880 C876 1.684 . S
H881 C899 0.948 . S
H882 C840 0.948 . S
H883 C858 0.979 . S
H884 C858 0.980 . S
H885 C858 0.983 . S
H886 C857 0.982 . S
H887 C857 0.979 . S
H888 C857 0.977 . S
H889 C859 0.948 . S
H890 C861 0.947 . S
H891 C862 0.948 . S
H892 C868 0.982 . S
H893 C868 0.979 . S
H894 C868 0.977 . S
H895 C869 0.979 . S
H896 C869 0.980 . S
H897 C869 0.983 . S
H898 C842 0.947 . S
C899 C842 1.392 . S
C899 C843 1.419 . S
C899 H881 0.948 . S
C900 C901 1.391 . S
C900 C904 1.391 . S
C900 H942 0.948 . S
C901 C900 1.391 . S
C901 C902 1.391 . S
C902 C901 1.391 . S
C902 H958 0.947 . S
C902 C959 1.392 . S
C903 C904 1.391 . S
C903 C907 1.397 . S
C903 C959 1.419 . S
C904 C900 1.391 . S
C904 C903 1.391 . S
C904 C905 1.399 . S
C905 C904 1.399 . S
C905 C908 1.396 . S
C905 C917 1.453 . S
C905 C918 1.684 . S
H906 C930 0.948 . S
C907 C903 1.397 . S
C907 C908 1.394 . S
C907 C926 1.723 . S
C908 C905 1.396 . S
C908 C907 1.394 . S
C908 C938 1.723 . S
H909 C932 0.947 . S
H910 C933 0.948 . S
H911 C939 0.982 . S
H912 C940 0.979 . S
H913 C940 0.980 . S
H914 C940 0.983 . S
H915 C939 0.979 . S
H916 C939 0.977 . S
C917 C905 1.453 . S
C917 H946 0.982 . S
C917 H947 0.979 . S
C917 H948 0.977 . S
C918 C905 1.684 . S
C918 H943 0.979 . S
C918 H944 0.980 . S
C918 H945 0.983 . S
C919 C920 1.391 . S
C919 C924 1.391 . S
C919 H949 0.948 . S
C920 C919 1.391 . S
C920 C921 1.391 . S
C921 C920 1.391 . S
C921 C922 1.392 . S
C921 H950 0.947 . S
C922 C921 1.392 . S
C922 C923 1.419 . S
C922 H951 0.948 . S
C923 C922 1.419 . S
C923 C924 1.391 . S
C923 C927 1.397 . S
C924 C919 1.391 . S
C924 C923 1.391 . S
C924 C925 1.399 . S
C925 C924 1.399 . S
C925 C926 1.396 . S
C925 C928 1.453 . S
C925 C929 1.684 . S
C926 C907 1.723 . S
C926 C925 1.396 . S
C926 C927 1.394 . S
C927 C923 1.397 . S
C927 C926 1.394 . S
C927 C937 1.723 . S
C928 C925 1.453 . S
C928 H952 0.982 . S
C928 H953 0.979 . S
C928 H954 0.977 . S
C929 C925 1.684 . S
C929 H955 0.979 . S
C929 H956 0.980 . S
C929 H957 0.983 . S
C930 H906 0.948 . S
C930 C931 1.391 . S
C930 C935 1.391 . S
C931 C930 1.391 . S
C931 C932 1.391 . S
C932 H909 0.947 . S
C932 C931 1.391 . S
C932 C933 1.392 . S
C933 H910 0.948 . S
C933 C932 1.392 . S
C933 C934 1.419 . S
C934 C933 1.419 . S
C934 C935 1.391 . S
C934 C938 1.397 . S
C935 C930 1.391 . S
C935 C934 1.391 . S
C935 C936 1.399 . S
C936 C935 1.399 . S
C936 C937 1.396 . S
C936 C939 1.453 . S
C936 C940 1.684 . S
C937 C927 1.723 . S
C937 C936 1.396 . S
C937 C938 1.394 . S
C938 C908 1.723 . S
C938 C934 1.397 . S
C938 C937 1.394 . S
C939 H911 0.982 . S
C939 H915 0.979 . S
C939 H916 0.977 . S
C939 C936 1.453 . S
C940 H912 0.979 . S
C940 H913 0.980 . S
C940 H914 0.983 . S
C940 C936 1.684 . S
H941 C959 0.948 . S
H942 C900 0.948 . S
H943 C918 0.979 . S
H944 C918 0.980 . S
H945 C918 0.983 . S
H946 C917 0.982 . S
H947 C917 0.979 . S
H948 C917 0.977 . S
H949 C919 0.948 . S
H950 C921 0.947 . S
H951 C922 0.948 . S
H952 C928 0.982 . S
H953 C928 0.979 . S
H954 C928 0.977 . S
H955 C929 0.979 . S
H956 C929 0.980 . S
H957 C929 0.983 . S
H958 C902 0.947 . S
C959 C902 1.392 . S
C959 C903 1.419 . S
C959 H941 0.948 . S
C960 C961 1.391 . S
C960 C964 1.391 . S
C960 H1002 0.948 . S
C961 C960 1.391 . S
C961 C962 1.391 . S
C962 C961 1.391 . S
C962 H1018 0.947 . S
C962 C1019 1.392 . S
C963 C964 1.391 . S
C963 C967 1.397 . S
C963 C1019 1.419 . S
C964 C960 1.391 . S
C964 C963 1.391 . S
C964 C965 1.399 . S
C965 C964 1.399 . S
C965 C968 1.396 . S
C965 C977 1.453 . S
C965 C978 1.684 . S
H966 C990 0.948 . S
C967 C963 1.397 . S
C967 C968 1.394 . S
C967 C986 1.723 . S
C968 C965 1.396 . S
C968 C967 1.394 . S
C968 C998 1.723 . S
H969 C992 0.947 . S
H970 C993 0.948 . S
H971 C999 0.982 . S
H972 C1000 0.979 . S
H973 C1000 0.980 . S
H974 C1000 0.983 . S
H975 C999 0.979 . S
H976 C999 0.977 . S
C977 C965 1.453 . S
C977 H1006 0.982 . S
C977 H1007 0.979 . S
C977 H1008 0.977 . S
C978 C965 1.684 . S
C978 H1003 0.979 . S
C978 H1004 0.980 . S
C978 H1005 0.983 . S
C979 C980 1.391 . S
C979 C984 1.391 . S
C979 H1009 0.948 . S
C980 C979 1.391 . S
C980 C981 1.391 . S
C981 C980 1.391 . S
C981 C982 1.392 . S
C981 H1010 0.947 . S
C982 C981 1.392 . S
C982 C983 1.419 . S
C982 H1011 0.948 . S
C983 C982 1.419 . S
C983 C984 1.391 . S
C983 C987 1.397 . S
C984 C979 1.391 . S
C984 C983 1.391 . S
C984 C985 1.399 . S
C985 C984 1.399 . S
C985 C986 1.396 . S
C985 C988 1.453 . S
C985 C989 1.684 . S
C986 C967 1.723 . S
C986 C985 1.396 . S
C986 C987 1.394 . S
C987 C983 1.397 . S
C987 C986 1.394 . S
C987 C997 1.723 . S
C988 C985 1.453 . S
C988 H1012 0.982 . S
C988 H1013 0.979 . S
C988 H1014 0.977 . S
C989 C985 1.684 . S
C989 H1015 0.979 . S
C989 H1016 0.980 . S
C989 H1017 0.983 . S
C990 H966 0.948 . S
C990 C991 1.391 . S
C990 C995 1.391 . S
C991 C990 1.391 . S
C991 C992 1.391 . S
C992 H969 0.947 . S
C992 C991 1.391 . S
C992 C993 1.392 . S
C993 H970 0.948 . S
C993 C992 1.392 . S
C993 C994 1.419 . S
C994 C993 1.419 . S
C994 C995 1.391 . S
C994 C998 1.397 . S
C995 C990 1.391 . S
C995 C994 1.391 . S
C995 C996 1.399 . S
C996 C995 1.399 . S
C996 C997 1.396 . S
C996 C999 1.453 . S
C996 C1000 1.684 . S
C997 C987 1.723 . S
C997 C996 1.396 . S
C997 C998 1.394 . S
C998 C968 1.723 . S
C998 C994 1.397 . S
C998 C997 1.394 . S
C999 H971 0.982 . S
C999 H975 0.979 . S
C999 H976 0.977 . S
C999 C996 1.453 . S
C1000 H972 0.979 . S
C1000 H973 0.980 . S
C1000 H974 0.983 . S
C1000 C996 1.684 . S
H1001 C1019 0.948 . S
H1002 C960 0.948 . S
H1003 C978 0.979 . S
H1004 C978 0.980 . S
H1005 C978 0.983 . S
H1006 C977 0.982 . S
H1007 C977 0.979 . S
H1008 C977 0.977 . S
H1009 C979 0.948 . S
H1010 C981 0.947 . S
H1011 C982 0.948 . S
H1012 C988 0.982 . S
H1013 C988 0.979 . S
H1014 C988 0.977 . S
H1015 C989 0.979 . S
H1016 C989 0.980 . S
H1017 C989 0.983 . S
H1018 C962 0.947 . S
C1019 C962 1.392 . S
C1019 C963 1.419 . S
C1019 H1001 0.948 . S
C1020 C1021 1.391 . S
C1020 C1024 1.391 . S
C1020 H1062 0.948 . S
C1021 C1020 1.391 . S
C1021 C1022 1.391 . S
C1022 C1021 1.391 . S
C1022 H1078 0.947 . S
C1022 C1079 1.392 . S
C1023 C1024 1.391 . S
C1023 C1027 1.397 . S
C1023 C1079 1.419 . S
C1024 C1020 1.391 . S
C1024 C1023 1.391 . S
C1024 C1025 1.399 . S
C1025 C1024 1.399 . S
C1025 C1028 1.396 . S
C1025 C1037 1.453 . S
C1025 C1038 1.684 . S
H1026 C1050 0.948 . S
C1027 C1023 1.397 . S
C1027 C1028 1.394 . S
C1027 C1046 1.723 . S
C1028 C1025 1.396 . S
C1028 C1027 1.394 . S
C1028 C1058 1.723 . S
H1029 C1052 0.947 . S
H1030 C1053 0.948 . S
H1031 C1059 0.982 . S
H1032 C1060 0.979 . S
H1033 C1060 0.980 . S
H1034 C1060 0.983 . S
H1035 C1059 0.979 . S
H1036 C1059 0.977 . S
C1037 C1025 1.453 . S
C1037 H1066 0.982 . S
C1037 H1067 0.979 . S
C1037 H1068 0.977 . S
C1038 C1025 1.684 . S
C1038 H1063 0.979 . S
C1038 H1064 0.980 . S
C1038 H1065 0.983 . S
C1039 C1040 1.391 . S
C1039 C1044 1.391 . S
C1039 H1069 0.948 . S
C1040 C1039 1.391 . S
C1040 C1041 1.391 . S
C1041 C1040 1.391 . S
C1041 C1042 1.392 . S
C1041 H1070 0.947 . S
C1042 C1041 1.392 . S
C1042 C1043 1.419 . S
C1042 H1071 0.948 . S
C1043 C1042 1.419 . S
C1043 C1044 1.391 . S
C1043 C1047 1.397 . S
C1044 C1039 1.391 . S
C1044 C1043 1.391 . S
C1044 C1045 1.399 . S
C1045 C1044 1.399 . S
C1045 C1046 1.396 . S
C1045 C1048 1.453 . S
C1045 C1049 1.684 . S
C1046 C1027 1.723 . S
C1046 C1045 1.396 . S
C1046 C1047 1.394 . S
C1047 C1043 1.397 . S
C1047 C1046 1.394 . S
C1047 C1057 1.723 . S
C1048 C1045 1.453 . S
C1048 H1072 0.982 . S
C1048 H1073 0.979 . S
C1048 H1074 0.977 . S
C1049 C1045 1.684 . S
C1049 H1075 0.979 . S
C1049 H1076 0.980 . S
C1049 H1077 0.983 . S
C1050 H1026 0.948 . S
C1050 C1051 1.391 . S
C1050 C1055 1.391 . S
C1051 C1050 1.391 . S
C1051 C1052 1.391 . S
C1052 H1029 0.947 . S
C1052 C1051 1.391 . S
C1052 C1053 1.392 . S
C1053 H1030 0.948 . S
C1053 C1052 1.392 . S
C1053 C1054 1.419 . S
C1054 C1053 1.419 . S
C1054 C1055 1.391 . S
C1054 C1058 1.397 . S
C1055 C1050 1.391 . S
C1055 C1054 1.391 . S
C1055 C1056 1.399 . S
C1056 C1055 1.399 . S
C1056 C1057 1.396 . S
C1056 C1059 1.453 . S
C1056 C1060 1.684 . S
C1057 C1047 1.723 . S
C1057 C1056 1.396 . S
C1057 C1058 1.394 . S
C1058 C1028 1.723 . S
C1058 C1054 1.397 . S
C1058 C1057 1.394 . S
C1059 H1031 0.982 . S
C1059 H1035 0.979 . S
C1059 H1036 0.977 . S
C1059 C1056 1.453 . S
C1060 H1032 0.979 . S
C1060 H1033 0.980 . S
C1060 H1034 0.983 . S
C1060 C1056 1.684 . S
H1061 C1079 0.948 . S
H1062 C1020 0.948 . S
H1063 C1038 0.979 . S
H1064 C1038 0.980 . S
H1065 C1038 0.983 . S
H1066 C1037 0.982 . S
H1067 C1037 0.979 . S
H1068 C1037 0.977 . S
H1069 C1039 0.948 . S
H1070 C1041 0.947 . S
H1071 C1042 0.948 . S
H1072 C1048 0.982 . S
H1073 C1048 0.979 . S
H1074 C1048 0.977 . S
H1075 C1049 0.979 . S
H1076 C1049 0.980 . S
H1077 C1049 0.983 . S
H1078 C1022 0.947 . S
C1079 C1022 1.392 . S
C1079 C1023 1.419 . S
C1079 H1061 0.948 . S
Gd1080 N1111 2.661 . S
Gd1080 N1117 2.601 . S
Gd1080 O1124 2.545 . S
Gd1080 O1125 2.606 1_545 S
Gd1080 O1127 2.429 . S
Gd1080 O1128 2.545 1_545 S
Gd1080 O1129 2.412 . S
Gd1080 O1131 2.362 1_554 S
Gd1080 O1132 2.324 1_545 S
Gd1080 C1139 2.828 . S
Gd1081 N1090 2.661 . S
Gd1081 N1094 2.601 . S
Gd1081 O1125 2.362 1_556 S
Gd1081 O1126 2.324 1_565 S
Gd1081 O1130 2.545 . S
Gd1081 O1131 2.606 1_565 S
Gd1081 O1133 2.429 . S
Gd1081 O1134 2.545 1_565 S
Gd1081 O1135 2.412 . S
Gd1081 C1148 2.828 . S
C1082 C1085 1.417 . S
C1082 C1087 1.431 . S
C1082 C1088 1.412 . S
C1083 C1086 1.437 . S
C1083 C1087 1.317 . S
C1083 H1102 0.929 . S
C1084 C1085 1.426 . S
C1084 C1086 1.413 . S
C1084 N1094 1.359 . S
C1085 C1082 1.417 . S
C1085 C1084 1.426 . S
C1085 N1090 1.350 . S
C1086 C1083 1.437 . S
C1086 C1084 1.413 . S
C1086 C1096 1.391 . S
C1087 C1082 1.431 . S
C1087 C1083 1.317 . S
C1087 H1098 0.930 . S
C1088 C1082 1.412 . S
C1088 C1089 1.355 . S
C1088 H1100 0.930 . S
C1089 C1088 1.355 . S
C1089 C1091 1.402 . S
C1089 H1101 0.930 . S
N1090 Gd1081 2.661 . S
N1090 C1085 1.350 . S
N1090 C1091 1.307 . S
C1091 C1089 1.402 . S
C1091 N1090 1.307 . S
C1091 H1092 0.930 . S
H1092 C1091 0.930 . S
C1093 N1094 1.334 . S
C1093 C1095 1.394 . S
C1093 H1097 0.930 . S
N1094 Gd1081 2.601 . S
N1094 C1084 1.359 . S
N1094 C1093 1.334 . S
C1095 C1093 1.394 . S
C1095 C1096 1.359 . S
C1095 H1107 0.930 . S
C1096 C1086 1.391 . S
C1096 C1095 1.359 . S
C1096 H1108 0.929 . S
H1097 C1093 0.930 . S
H1098 C1087 0.930 . S
H1099 C1116 0.930 . S
H1100 C1088 0.930 . S
H1101 C1089 0.930 . S
H1102 C1083 0.929 . S
H1103 C1121 0.930 . S
H1104 C1112 0.930 . S
H1105 C1113 0.930 . S
H1106 C1137 0.929 . S
H1107 C1095 0.930 . S
H1108 C1096 0.929 . S
H1109 C1138 0.930 . S
H1110 C1119 0.930 . S
N1111 Gd1080 2.661 . S
N1111 C1115 1.350 . S
N1111 C1116 1.307 . S
C1112 H1104 0.930 . S
C1112 C1113 1.355 . S
C1112 C1114 1.412 . S
C1113 H1105 0.930 . S
C1113 C1112 1.355 . S
C1113 C1116 1.402 . S
C1114 C1112 1.412 . S
C1114 C1115 1.417 . S
C1114 C1138 1.431 . S
C1115 N1111 1.350 . S
C1115 C1114 1.417 . S
C1115 C1118 1.426 . S
C1116 H1099 0.930 . S
C1116 N1111 1.307 . S
C1116 C1113 1.402 . S
N1117 Gd1080 2.601 . S
N1117 C1118 1.359 . S
N1117 C1121 1.334 . S
C1118 C1115 1.426 . S
C1118 N1117 1.359 . S
C1118 C1122 1.413 . S
C1119 H1110 0.930 . S
C1119 C1120 1.359 . S
C1119 C1121 1.394 . S
C1120 C1119 1.359 . S
C1120 C1122 1.391 . S
C1120 H1123 0.929 . S
C1121 H1103 0.930 . S
C1121 N1117 1.334 . S
C1121 C1119 1.394 . S
C1122 C1118 1.413 . S
C1122 C1120 1.391 . S
C1122 C1137 1.437 . S
H1123 C1120 0.929 . S
O1124 Gd1080 2.545 . S
O1124 C1139 1.258 . S
O1125 Gd1080 2.606 1_565 S
O1125 Gd1081 2.362 1_554 S
O1125 C1136 1.284 . S
O1126 Gd1081 2.324 1_545 S
O1126 C1146 1.254 . S
O1127 Gd1080 2.429 . S
O1127 C1146 1.268 1_554 S
O1128 Gd1080 2.545 1_565 S
O1128 C1136 1.250 . S
O1129 Gd1080 2.412 . S
O1129 C1139 1.252 . S
O1130 Gd1081 2.545 . S
O1130 C1148 1.258 . S
O1131 Gd1080 2.362 1_556 S
O1131 Gd1081 2.606 1_545 S
O1131 C1147 1.284 . S
O1132 Gd1080 2.324 1_565 S
O1132 C1155 1.254 . S
O1133 Gd1081 2.429 . S
O1133 C1155 1.268 1_556 S
O1134 Gd1081 2.545 1_545 S
O1134 C1147 1.250 . S
O1135 Gd1081 2.412 . S
O1135 C1148 1.252 . S
C1136 O1125 1.284 . S
C1136 O1128 1.250 . S
C1137 H1106 0.929 . S
C1137 C1122 1.437 . S
C1137 C1138 1.317 . S
C1138 H1109 0.930 . S
C1138 C1114 1.431 . S
C1138 C1137 1.317 . S
C1139 Gd1080 2.828 . S
C1139 O1124 1.258 . S
C1139 O1129 1.252 . S
C1139 C1140 1.497 . S
C1140 C1139 1.497 . S
C1140 C1141 1.395 . S
C1140 C1142 1.380 1_545 S
C1141 C1140 1.395 . S
C1141 C1144 1.398 . S
C1141 H1156 0.930 . S
C1142 C1140 1.380 1_565 S
C1142 C1143 1.391 . S
C1142 H1157 0.930 . S
C1143 C1142 1.391 . S
C1143 C1145 1.387 1_565 S
C1144 C1141 1.398 . S
C1144 C1145 1.380 . S
C1144 H1158 0.930 . S
C1145 C1143 1.387 1_545 S
C1145 C1144 1.380 . S
C1145 H1159 0.930 . S
C1146 O1126 1.254 . S
C1146 O1127 1.268 1_556 S
C1147 O1131 1.284 . S
C1147 O1134 1.250 . S
C1148 Gd1081 2.828 . S
C1148 O1130 1.258 . S
C1148 O1135 1.252 . S
C1148 C1149 1.497 . S
C1149 C1148 1.497 . S
C1149 C1150 1.395 . S
C1149 C1151 1.380 1_565 S
C1150 C1149 1.395 . S
C1150 C1153 1.398 . S
C1150 H1160 0.930 . S
C1151 C1149 1.380 1_545 S
C1151 C1152 1.391 . S
C1151 H1161 0.930 . S
C1152 C1151 1.391 . S
C1152 C1154 1.387 1_545 S
C1153 C1150 1.398 . S
C1153 C1154 1.380 . S
C1153 H1162 0.930 . S
C1154 C1152 1.387 1_565 S
C1154 C1153 1.380 . S
C1154 H1163 0.930 . S
C1155 O1132 1.254 . S
C1155 O1133 1.268 1_554 S
H1156 C1141 0.930 . S
H1157 C1142 0.930 . S
H1158 C1144 0.930 . S
H1159 C1145 0.930 . S
H1160 C1150 0.930 . S
H1161 C1151 0.930 . S
H1162 C1153 0.930 . S
H1163 C1154 0.930 . S
Gd1164 N1195 2.661 . S
Gd1164 N1201 2.601 . S
Gd1164 O1208 2.545 . S
Gd1164 O1209 2.606 1_655 S
Gd1164 O1211 2.429 . S
Gd1164 O1212 2.545 1_655 S
Gd1164 O1213 2.412 . S
Gd1164 O1215 2.362 1_554 S
Gd1164 O1216 2.324 1_655 S
Gd1164 C1223 2.828 . S
Gd1165 N1174 2.661 . S
Gd1165 N1178 2.601 . S
Gd1165 O1209 2.362 1_556 S
Gd1165 O1210 2.324 1_455 S
Gd1165 O1214 2.545 . S
Gd1165 O1215 2.606 1_455 S
Gd1165 O1217 2.429 . S
Gd1165 O1218 2.545 1_455 S
Gd1165 O1219 2.412 . S
Gd1165 C1232 2.828 . S
C1166 C1169 1.417 . S
C1166 C1171 1.431 . S
C1166 C1172 1.412 . S
C1167 C1170 1.437 . S
C1167 C1171 1.317 . S
C1167 H1186 0.929 . S
C1168 C1169 1.426 . S
C1168 C1170 1.413 . S
C1168 N1178 1.359 . S
C1169 C1166 1.417 . S
C1169 C1168 1.426 . S
C1169 N1174 1.350 . S
C1170 C1167 1.437 . S
C1170 C1168 1.413 . S
C1170 C1180 1.391 . S
C1171 C1166 1.431 . S
C1171 C1167 1.317 . S
C1171 H1182 0.930 . S
C1172 C1166 1.412 . S
C1172 C1173 1.355 . S
C1172 H1184 0.930 . S
C1173 C1172 1.355 . S
C1173 C1175 1.402 . S
C1173 H1185 0.930 . S
N1174 Gd1165 2.661 . S
N1174 C1169 1.350 . S
N1174 C1175 1.307 . S
C1175 C1173 1.402 . S
C1175 N1174 1.307 . S
C1175 H1176 0.930 . S
H1176 C1175 0.930 . S
C1177 N1178 1.334 . S
C1177 C1179 1.394 . S
C1177 H1181 0.930 . S
N1178 Gd1165 2.601 . S
N1178 C1168 1.359 . S
N1178 C1177 1.334 . S
C1179 C1177 1.394 . S
C1179 C1180 1.359 . S
C1179 H1191 0.930 . S
C1180 C1170 1.391 . S
C1180 C1179 1.359 . S
C1180 H1192 0.929 . S
H1181 C1177 0.930 . S
H1182 C1171 0.930 . S
H1183 C1200 0.930 . S
H1184 C1172 0.930 . S
H1185 C1173 0.930 . S
H1186 C1167 0.929 . S
H1187 C1205 0.930 . S
H1188 C1196 0.930 . S
H1189 C1197 0.930 . S
H1190 C1221 0.929 . S
H1191 C1179 0.930 . S
H1192 C1180 0.929 . S
H1193 C1222 0.930 . S
H1194 C1203 0.930 . S
N1195 Gd1164 2.661 . S
N1195 C1199 1.350 . S
N1195 C1200 1.307 . S
C1196 H1188 0.930 . S
C1196 C1197 1.355 . S
C1196 C1198 1.412 . S
C1197 H1189 0.930 . S
C1197 C1196 1.355 . S
C1197 C1200 1.402 . S
C1198 C1196 1.412 . S
C1198 C1199 1.417 . S
C1198 C1222 1.431 . S
C1199 N1195 1.350 . S
C1199 C1198 1.417 . S
C1199 C1202 1.426 . S
C1200 H1183 0.930 . S
C1200 N1195 1.307 . S
C1200 C1197 1.402 . S
N1201 Gd1164 2.601 . S
N1201 C1202 1.359 . S
N1201 C1205 1.334 . S
C1202 C1199 1.426 . S
C1202 N1201 1.359 . S
C1202 C1206 1.413 . S
C1203 H1194 0.930 . S
C1203 C1204 1.359 . S
C1203 C1205 1.394 . S
C1204 C1203 1.359 . S
C1204 C1206 1.391 . S
C1204 H1207 0.929 . S
C1205 H1187 0.930 . S
C1205 N1201 1.334 . S
C1205 C1203 1.394 . S
C1206 C1202 1.413 . S
C1206 C1204 1.391 . S
C1206 C1221 1.437 . S
H1207 C1204 0.929 . S
O1208 Gd1164 2.545 . S
O1208 C1223 1.258 . S
O1209 Gd1164 2.606 1_455 S
O1209 Gd1165 2.362 1_554 S
O1209 C1220 1.284 . S
O1210 Gd1165 2.324 1_655 S
O1210 C1230 1.254 . S
O1211 Gd1164 2.429 . S
O1211 C1230 1.268 1_554 S
O1212 Gd1164 2.545 1_455 S
O1212 C1220 1.250 . S
O1213 Gd1164 2.412 . S
O1213 C1223 1.252 . S
O1214 Gd1165 2.545 . S
O1214 C1232 1.258 . S
O1215 Gd1164 2.362 1_556 S
O1215 Gd1165 2.606 1_655 S
O1215 C1231 1.284 . S
O1216 Gd1164 2.324 1_455 S
O1216 C1239 1.254 . S
O1217 Gd1165 2.429 . S
O1217 C1239 1.268 1_556 S
O1218 Gd1165 2.545 1_655 S
O1218 C1231 1.250 . S
O1219 Gd1165 2.412 . S
O1219 C1232 1.252 . S
C1220 O1209 1.284 . S
C1220 O1212 1.250 . S
C1221 H1190 0.929 . S
C1221 C1206 1.437 . S
C1221 C1222 1.317 . S
C1222 H1193 0.930 . S
C1222 C1198 1.431 . S
C1222 C1221 1.317 . S
C1223 Gd1164 2.828 . S
C1223 O1208 1.258 . S
C1223 O1213 1.252 . S
C1223 C1224 1.497 . S
C1224 C1223 1.497 . S
C1224 C1225 1.395 . S
C1224 C1226 1.380 1_655 S
C1225 C1224 1.395 . S
C1225 C1228 1.398 . S
C1225 H1240 0.930 . S
C1226 C1224 1.380 1_455 S
C1226 C1227 1.391 . S
C1226 H1241 0.930 . S
C1227 C1226 1.391 . S
C1227 C1229 1.387 1_455 S
C1228 C1225 1.398 . S
C1228 C1229 1.380 . S
C1228 H1242 0.930 . S
C1229 C1227 1.387 1_655 S
C1229 C1228 1.380 . S
C1229 H1243 0.930 . S
C1230 O1210 1.254 . S
C1230 O1211 1.268 1_556 S
C1231 O1215 1.284 . S
C1231 O1218 1.250 . S
C1232 Gd1165 2.828 . S
C1232 O1214 1.258 . S
C1232 O1219 1.252 . S
C1232 C1233 1.497 . S
C1233 C1232 1.497 . S
C1233 C1234 1.395 . S
C1233 C1235 1.380 1_455 S
C1234 C1233 1.395 . S
C1234 C1237 1.398 . S
C1234 H1244 0.930 . S
C1235 C1233 1.380 1_655 S
C1235 C1236 1.391 . S
C1235 H1245 0.930 . S
C1236 C1235 1.391 . S
C1236 C1238 1.387 1_655 S
C1237 C1234 1.398 . S
C1237 C1238 1.380 . S
C1237 H1246 0.930 . S
C1238 C1236 1.387 1_455 S
C1238 C1237 1.380 . S
C1238 H1247 0.930 . S
C1239 O1216 1.254 . S
C1239 O1217 1.268 1_554 S
H1240 C1225 0.930 . S
H1241 C1226 0.930 . S
H1242 C1228 0.930 . S
H1243 C1229 0.930 . S
H1244 C1234 0.930 . S
H1245 C1235 0.930 . S
H1246 C1237 0.930 . S
H1247 C1238 0.930 . S
Gd1248 N1279 2.661 . S
Gd1248 N1285 2.601 . S
Gd1248 O1292 2.545 . S
Gd1248 O1293 2.606 . S
Gd1248 O1295 2.429 . S
Gd1248 O1296 2.545 . S
Gd1248 O1297 2.412 . S
Gd1248 O1299 2.362 1_556 S
Gd1248 O1300 2.324 . S
Gd1248 C1307 2.828 . S
Gd1249 N1258 2.661 . S
Gd1249 N1262 2.601 . S
Gd1249 O1293 2.362 1_554 S
Gd1249 O1294 2.324 . S
Gd1249 O1298 2.545 . S
Gd1249 O1299 2.606 . S
Gd1249 O1301 2.429 . S
Gd1249 O1302 2.545 . S
Gd1249 O1303 2.412 . S
Gd1249 C1316 2.828 . S
C1250 C1253 1.417 . S
C1250 C1255 1.431 . S
C1250 C1256 1.412 . S
C1251 C1254 1.437 . S
C1251 C1255 1.317 . S
C1251 H1270 0.929 . S
C1252 C1253 1.426 . S
C1252 C1254 1.413 . S
C1252 N1262 1.359 . S
C1253 C1250 1.417 . S
C1253 C1252 1.426 . S
C1253 N1258 1.350 . S
C1254 C1251 1.437 . S
C1254 C1252 1.413 . S
C1254 C1264 1.391 . S
C1255 C1250 1.431 . S
C1255 C1251 1.317 . S
C1255 H1266 0.930 . S
C1256 C1250 1.412 . S
C1256 C1257 1.355 . S
C1256 H1268 0.930 . S
C1257 C1256 1.355 . S
C1257 C1259 1.402 . S
C1257 H1269 0.930 . S
N1258 Gd1249 2.661 . S
N1258 C1253 1.350 . S
N1258 C1259 1.307 . S
C1259 C1257 1.402 . S
C1259 N1258 1.307 . S
C1259 H1260 0.930 . S
H1260 C1259 0.930 . S
C1261 N1262 1.334 . S
C1261 C1263 1.394 . S
C1261 H1265 0.930 . S
N1262 Gd1249 2.601 . S
N1262 C1252 1.359 . S
N1262 C1261 1.334 . S
C1263 C1261 1.394 . S
C1263 C1264 1.359 . S
C1263 H1275 0.930 . S
C1264 C1254 1.391 . S
C1264 C1263 1.359 . S
C1264 H1276 0.929 . S
H1265 C1261 0.930 . S
H1266 C1255 0.930 . S
H1267 C1284 0.930 . S
H1268 C1256 0.930 . S
H1269 C1257 0.930 . S
H1270 C1251 0.929 . S
H1271 C1289 0.930 . S
H1272 C1280 0.930 . S
H1273 C1281 0.930 . S
H1274 C1305 0.929 . S
H1275 C1263 0.930 . S
H1276 C1264 0.929 . S
H1277 C1306 0.930 . S
H1278 C1287 0.930 . S
N1279 Gd1248 2.661 . S
N1279 C1283 1.350 . S
N1279 C1284 1.307 . S
C1280 H1272 0.930 . S
C1280 C1281 1.355 . S
C1280 C1282 1.412 . S
C1281 H1273 0.930 . S
C1281 C1280 1.355 . S
C1281 C1284 1.402 . S
C1282 C1280 1.412 . S
C1282 C1283 1.417 . S
C1282 C1306 1.431 . S
C1283 N1279 1.350 . S
C1283 C1282 1.417 . S
C1283 C1286 1.426 . S
C1284 H1267 0.930 . S
C1284 N1279 1.307 . S
C1284 C1281 1.402 . S
N1285 Gd1248 2.601 . S
N1285 C1286 1.359 . S
N1285 C1289 1.334 . S
C1286 C1283 1.426 . S
C1286 N1285 1.359 . S
C1286 C1290 1.413 . S
C1287 H1278 0.930 . S
C1287 C1288 1.359 . S
C1287 C1289 1.394 . S
C1288 C1287 1.359 . S
C1288 C1290 1.391 . S
C1288 H1291 0.929 . S
C1289 H1271 0.930 . S
C1289 N1285 1.334 . S
C1289 C1287 1.394 . S
C1290 C1286 1.413 . S
C1290 C1288 1.391 . S
C1290 C1305 1.437 . S
H1291 C1288 0.929 . S
O1292 Gd1248 2.545 . S
O1292 C1307 1.258 . S
O1293 Gd1248 2.606 . S
O1293 Gd1249 2.362 1_556 S
O1293 C1304 1.284 . S
O1294 Gd1249 2.324 . S
O1294 C1314 1.254 . S
O1295 Gd1248 2.429 . S
O1295 C1314 1.268 1_556 S
O1296 Gd1248 2.545 . S
O1296 C1304 1.250 . S
O1297 Gd1248 2.412 . S
O1297 C1307 1.252 . S
O1298 Gd1249 2.545 . S
O1298 C1316 1.258 . S
O1299 Gd1248 2.362 1_554 S
O1299 Gd1249 2.606 . S
O1299 C1315 1.284 . S
O1300 Gd1248 2.324 . S
O1300 C1323 1.254 . S
O1301 Gd1249 2.429 . S
O1301 C1323 1.268 1_554 S
O1302 Gd1249 2.545 . S
O1302 C1315 1.250 . S
O1303 Gd1249 2.412 . S
O1303 C1316 1.252 . S
C1304 O1293 1.284 . S
C1304 O1296 1.250 . S
C1305 H1274 0.929 . S
C1305 C1290 1.437 . S
C1305 C1306 1.317 . S
C1306 H1277 0.930 . S
C1306 C1282 1.431 . S
C1306 C1305 1.317 . S
C1307 Gd1248 2.828 . S
C1307 O1292 1.258 . S
C1307 O1297 1.252 . S
C1307 C1308 1.497 . S
C1308 C1307 1.497 . S
C1308 C1309 1.395 . S
C1308 C1310 1.380 . S
C1309 C1308 1.395 . S
C1309 C1312 1.398 . S
C1309 H1324 0.930 . S
C1310 C1308 1.380 . S
C1310 C1311 1.391 . S
C1310 H1325 0.930 . S
C1311 C1310 1.391 . S
C1311 C1313 1.387 . S
C1312 C1309 1.398 . S
C1312 C1313 1.380 . S
C1312 H1326 0.930 . S
C1313 C1311 1.387 . S
C1313 C1312 1.380 . S
C1313 H1327 0.930 . S
C1314 O1294 1.254 . S
C1314 O1295 1.268 1_554 S
C1315 O1299 1.284 . S
C1315 O1302 1.250 . S
C1316 Gd1249 2.828 . S
C1316 O1298 1.258 . S
C1316 O1303 1.252 . S
C1316 C1317 1.497 . S
C1317 C1316 1.497 . S
C1317 C1318 1.395 . S
C1317 C1319 1.380 . S
C1318 C1317 1.395 . S
C1318 C1321 1.398 . S
C1318 H1328 0.930 . S
C1319 C1317 1.380 . S
C1319 C1320 1.391 . S
C1319 H1329 0.930 . S
C1320 C1319 1.391 . S
C1320 C1322 1.387 . S
C1321 C1318 1.398 . S
C1321 C1322 1.380 . S
C1321 H1330 0.930 . S
C1322 C1320 1.387 . S
C1322 C1321 1.380 . S
C1322 H1331 0.930 . S
C1323 O1300 1.254 . S
C1323 O1301 1.268 1_556 S
H1324 C1309 0.930 . S
H1325 C1310 0.930 . S
H1326 C1312 0.930 . S
H1327 C1313 0.930 . S
H1328 C1318 0.930 . S
H1329 C1319 0.930 . S
H1330 C1321 0.930 . S
H1331 C1322 0.930 . S
Gd1332 N1363 2.661 . S
Gd1332 N1369 2.601 . S
Gd1332 O1376 2.545 . S
Gd1332 O1377 2.606 . S
Gd1332 O1379 2.429 . S
Gd1332 O1380 2.545 . S
Gd1332 O1381 2.412 . S
Gd1332 O1383 2.362 . S
Gd1332 O1384 2.324 . S
Gd1332 C1391 2.828 . S
Gd1333 N1342 2.661 . S
Gd1333 N1346 2.601 . S
Gd1333 O1377 2.362 . S
Gd1333 O1378 2.324 . S
Gd1333 O1382 2.545 . S
Gd1333 O1383 2.606 . S
Gd1333 O1385 2.429 . S
Gd1333 O1386 2.545 . S
Gd1333 O1387 2.412 . S
Gd1333 C1400 2.828 . S
C1334 C1337 1.417 . S
C1334 C1339 1.431 . S
C1334 C1340 1.412 . S
C1335 C1338 1.437 . S
C1335 C1339 1.317 . S
C1335 H1354 0.929 . S
C1336 C1337 1.426 . S
C1336 C1338 1.413 . S
C1336 N1346 1.359 . S
C1337 C1334 1.417 . S
C1337 C1336 1.426 . S
C1337 N1342 1.350 . S
C1338 C1335 1.437 . S
C1338 C1336 1.413 . S
C1338 C1348 1.391 . S
C1339 C1334 1.431 . S
C1339 C1335 1.317 . S
C1339 H1350 0.930 . S
C1340 C1334 1.412 . S
C1340 C1341 1.355 . S
C1340 H1352 0.930 . S
C1341 C1340 1.355 . S
C1341 C1343 1.402 . S
C1341 H1353 0.930 . S
N1342 Gd1333 2.661 . S
N1342 C1337 1.350 . S
N1342 C1343 1.307 . S
C1343 C1341 1.402 . S
C1343 N1342 1.307 . S
C1343 H1344 0.930 . S
H1344 C1343 0.930 . S
C1345 N1346 1.334 . S
C1345 C1347 1.394 . S
C1345 H1349 0.930 . S
N1346 Gd1333 2.601 . S
N1346 C1336 1.359 . S
N1346 C1345 1.334 . S
C1347 C1345 1.394 . S
C1347 C1348 1.359 . S
C1347 H1359 0.930 . S
C1348 C1338 1.391 . S
C1348 C1347 1.359 . S
C1348 H1360 0.929 . S
H1349 C1345 0.930 . S
H1350 C1339 0.930 . S
H1351 C1368 0.930 . S
H1352 C1340 0.930 . S
H1353 C1341 0.930 . S
H1354 C1335 0.929 . S
H1355 C1373 0.930 . S
H1356 C1364 0.930 . S
H1357 C1365 0.930 . S
H1358 C1389 0.929 . S
H1359 C1347 0.930 . S
H1360 C1348 0.929 . S
H1361 C1390 0.930 . S
H1362 C1371 0.930 . S
N1363 Gd1332 2.661 . S
N1363 C1367 1.350 . S
N1363 C1368 1.307 . S
C1364 H1356 0.930 . S
C1364 C1365 1.355 . S
C1364 C1366 1.412 . S
C1365 H1357 0.930 . S
C1365 C1364 1.355 . S
C1365 C1368 1.402 . S
C1366 C1364 1.412 . S
C1366 C1367 1.417 . S
C1366 C1390 1.431 . S
C1367 N1363 1.350 . S
C1367 C1366 1.417 . S
C1367 C1370 1.426 . S
C1368 H1351 0.930 . S
C1368 N1363 1.307 . S
C1368 C1365 1.402 . S
N1369 Gd1332 2.601 . S
N1369 C1370 1.359 . S
N1369 C1373 1.334 . S
C1370 C1367 1.426 . S
C1370 N1369 1.359 . S
C1370 C1374 1.413 . S
C1371 H1362 0.930 . S
C1371 C1372 1.359 . S
C1371 C1373 1.394 . S
C1372 C1371 1.359 . S
C1372 C1374 1.391 . S
C1372 H1375 0.929 . S
C1373 H1355 0.930 . S
C1373 N1369 1.334 . S
C1373 C1371 1.394 . S
C1374 C1370 1.413 . S
C1374 C1372 1.391 . S
C1374 C1389 1.437 . S
H1375 C1372 0.929 . S
O1376 Gd1332 2.545 . S
O1376 C1391 1.258 . S
O1377 Gd1332 2.606 . S
O1377 Gd1333 2.362 . S
O1377 C1388 1.284 . S
O1378 Gd1333 2.324 . S
O1378 C1398 1.254 . S
O1379 Gd1332 2.429 . S
O1379 C1398 1.268 . S
O1380 Gd1332 2.545 . S
O1380 C1388 1.250 . S
O1381 Gd1332 2.412 . S
O1381 C1391 1.252 . S
O1382 Gd1333 2.545 . S
O1382 C1400 1.258 . S
O1383 Gd1332 2.362 . S
O1383 Gd1333 2.606 . S
O1383 C1399 1.284 . S
O1384 Gd1332 2.324 . S
O1384 C1407 1.254 . S
O1385 Gd1333 2.429 . S
O1385 C1407 1.268 . S
O1386 Gd1333 2.545 . S
O1386 C1399 1.250 . S
O1387 Gd1333 2.412 . S
O1387 C1400 1.252 . S
C1388 O1377 1.284 . S
C1388 O1380 1.250 . S
C1389 H1358 0.929 . S
C1389 C1374 1.437 . S
C1389 C1390 1.317 . S
C1390 H1361 0.930 . S
C1390 C1366 1.431 . S
C1390 C1389 1.317 . S
C1391 Gd1332 2.828 . S
C1391 O1376 1.258 . S
C1391 O1381 1.252 . S
C1391 C1392 1.497 . S
C1392 C1391 1.497 . S
C1392 C1393 1.395 . S
C1392 C1394 1.380 . S
C1393 C1392 1.395 . S
C1393 C1396 1.398 . S
C1393 H1408 0.930 . S
C1394 C1392 1.380 . S
C1394 C1395 1.391 . S
C1394 H1409 0.930 . S
C1395 C1394 1.391 . S
C1395 C1397 1.387 . S
C1396 C1393 1.398 . S
C1396 C1397 1.380 . S
C1396 H1410 0.930 . S
C1397 C1395 1.387 . S
C1397 C1396 1.380 . S
C1397 H1411 0.930 . S
C1398 O1378 1.254 . S
C1398 O1379 1.268 . S
C1399 O1383 1.284 . S
C1399 O1386 1.250 . S
C1400 Gd1333 2.828 . S
C1400 O1382 1.258 . S
C1400 O1387 1.252 . S
C1400 C1401 1.497 . S
C1401 C1400 1.497 . S
C1401 C1402 1.395 . S
C1401 C1403 1.380 . S
C1402 C1401 1.395 . S
C1402 C1405 1.398 . S
C1402 H1412 0.930 . S
C1403 C1401 1.380 . S
C1403 C1404 1.391 . S
C1403 H1413 0.930 . S
C1404 C1403 1.391 . S
C1404 C1406 1.387 . S
C1405 C1402 1.398 . S
C1405 C1406 1.380 . S
C1405 H1414 0.930 . S
C1406 C1404 1.387 . S
C1406 C1405 1.380 . S
C1406 H1415 0.930 . S
C1407 O1384 1.254 . S
C1407 O1385 1.268 . S
H1408 C1393 0.930 . S
H1409 C1394 0.930 . S
H1410 C1396 0.930 . S
H1411 C1397 0.930 . S
H1412 C1402 0.930 . S
H1413 C1403 0.930 . S
H1414 C1405 0.930 . S
H1415 C1406 0.930 . S
Gd1416 N1447 2.661 . S
Gd1416 N1453 2.601 . S
Gd1416 O1460 2.545 . S
Gd1416 O1461 2.606 . S
Gd1416 O1463 2.429 . S
Gd1416 O1464 2.545 . S
Gd1416 O1465 2.412 . S
Gd1416 O1467 2.362 . S
Gd1416 O1468 2.324 . S
Gd1416 C1475 2.828 . S
Gd1417 N1426 2.661 . S
Gd1417 N1430 2.601 . S
Gd1417 O1461 2.362 . S
Gd1417 O1462 2.324 . S
Gd1417 O1466 2.545 . S
Gd1417 O1467 2.606 . S
Gd1417 O1469 2.429 . S
Gd1417 O1470 2.545 . S
Gd1417 O1471 2.412 . S
Gd1417 C1484 2.828 . S
C1418 C1421 1.417 . S
C1418 C1423 1.431 . S
C1418 C1424 1.412 . S
C1419 C1422 1.437 . S
C1419 C1423 1.317 . S
C1419 H1438 0.929 . S
C1420 C1421 1.426 . S
C1420 C1422 1.413 . S
C1420 N1430 1.359 . S
C1421 C1418 1.417 . S
C1421 C1420 1.426 . S
C1421 N1426 1.350 . S
C1422 C1419 1.437 . S
C1422 C1420 1.413 . S
C1422 C1432 1.391 . S
C1423 C1418 1.431 . S
C1423 C1419 1.317 . S
C1423 H1434 0.930 . S
C1424 C1418 1.412 . S
C1424 C1425 1.355 . S
C1424 H1436 0.930 . S
C1425 C1424 1.355 . S
C1425 C1427 1.402 . S
C1425 H1437 0.930 . S
N1426 Gd1417 2.661 . S
N1426 C1421 1.350 . S
N1426 C1427 1.307 . S
C1427 C1425 1.402 . S
C1427 N1426 1.307 . S
C1427 H1428 0.930 . S
H1428 C1427 0.930 . S
C1429 N1430 1.334 . S
C1429 C1431 1.394 . S
C1429 H1433 0.930 . S
N1430 Gd1417 2.601 . S
N1430 C1420 1.359 . S
N1430 C1429 1.334 . S
C1431 C1429 1.394 . S
C1431 C1432 1.359 . S
C1431 H1443 0.930 . S
C1432 C1422 1.391 . S
C1432 C1431 1.359 . S
C1432 H1444 0.929 . S
H1433 C1429 0.930 . S
H1434 C1423 0.930 . S
H1435 C1452 0.930 . S
H1436 C1424 0.930 . S
H1437 C1425 0.930 . S
H1438 C1419 0.929 . S
H1439 C1457 0.930 . S
H1440 C1448 0.930 . S
H1441 C1449 0.930 . S
H1442 C1473 0.929 . S
H1443 C1431 0.930 . S
H1444 C1432 0.929 . S
H1445 C1474 0.930 . S
H1446 C1455 0.930 . S
N1447 Gd1416 2.661 . S
N1447 C1451 1.350 . S
N1447 C1452 1.307 . S
C1448 H1440 0.930 . S
C1448 C1449 1.355 . S
C1448 C1450 1.412 . S
C1449 H1441 0.930 . S
C1449 C1448 1.355 . S
C1449 C1452 1.402 . S
C1450 C1448 1.412 . S
C1450 C1451 1.417 . S
C1450 C1474 1.431 . S
C1451 N1447 1.350 . S
C1451 C1450 1.417 . S
C1451 C1454 1.426 . S
C1452 H1435 0.930 . S
C1452 N1447 1.307 . S
C1452 C1449 1.402 . S
N1453 Gd1416 2.601 . S
N1453 C1454 1.359 . S
N1453 C1457 1.334 . S
C1454 C1451 1.426 . S
C1454 N1453 1.359 . S
C1454 C1458 1.413 . S
C1455 H1446 0.930 . S
C1455 C1456 1.359 . S
C1455 C1457 1.394 . S
C1456 C1455 1.359 . S
C1456 C1458 1.391 . S
C1456 H1459 0.929 . S
C1457 H1439 0.930 . S
C1457 N1453 1.334 . S
C1457 C1455 1.394 . S
C1458 C1454 1.413 . S
C1458 C1456 1.391 . S
C1458 C1473 1.437 . S
H1459 C1456 0.929 . S
O1460 Gd1416 2.545 . S
O1460 C1475 1.258 . S
O1461 Gd1416 2.606 . S
O1461 Gd1417 2.362 . S
O1461 C1472 1.284 . S
O1462 Gd1417 2.324 . S
O1462 C1482 1.254 . S
O1463 Gd1416 2.429 . S
O1463 C1482 1.268 . S
O1464 Gd1416 2.545 . S
O1464 C1472 1.250 . S
O1465 Gd1416 2.412 . S
O1465 C1475 1.252 . S
O1466 Gd1417 2.545 . S
O1466 C1484 1.258 . S
O1467 Gd1416 2.362 . S
O1467 Gd1417 2.606 . S
O1467 C1483 1.284 . S
O1468 Gd1416 2.324 . S
O1468 C1491 1.254 . S
O1469 Gd1417 2.429 . S
O1469 C1491 1.268 . S
O1470 Gd1417 2.545 . S
O1470 C1483 1.250 . S
O1471 Gd1417 2.412 . S
O1471 C1484 1.252 . S
C1472 O1461 1.284 . S
C1472 O1464 1.250 . S
C1473 H1442 0.929 . S
C1473 C1458 1.437 . S
C1473 C1474 1.317 . S
C1474 H1445 0.930 . S
C1474 C1450 1.431 . S
C1474 C1473 1.317 . S
C1475 Gd1416 2.828 . S
C1475 O1460 1.258 . S
C1475 O1465 1.252 . S
C1475 C1476 1.497 . S
C1476 C1475 1.497 . S
C1476 C1477 1.395 . S
C1476 C1478 1.380 . S
C1477 C1476 1.395 . S
C1477 C1480 1.398 . S
C1477 H1492 0.930 . S
C1478 C1476 1.380 . S
C1478 C1479 1.391 . S
C1478 H1493 0.930 . S
C1479 C1478 1.391 . S
C1479 C1481 1.387 . S
C1480 C1477 1.398 . S
C1480 C1481 1.380 . S
C1480 H1494 0.930 . S
C1481 C1479 1.387 . S
C1481 C1480 1.380 . S
C1481 H1495 0.930 . S
C1482 O1462 1.254 . S
C1482 O1463 1.268 . S
C1483 O1467 1.284 . S
C1483 O1470 1.250 . S
C1484 Gd1417 2.828 . S
C1484 O1466 1.258 . S
C1484 O1471 1.252 . S
C1484 C1485 1.497 . S
C1485 C1484 1.497 . S
C1485 C1486 1.395 . S
C1485 C1487 1.380 . S
C1486 C1485 1.395 . S
C1486 C1489 1.398 . S
C1486 H1496 0.930 . S
C1487 C1485 1.380 . S
C1487 C1488 1.391 . S
C1487 H1497 0.930 . S
C1488 C1487 1.391 . S
C1488 C1490 1.387 . S
C1489 C1486 1.398 . S
C1489 C1490 1.380 . S
C1489 H1498 0.930 . S
C1490 C1488 1.387 . S
C1490 C1489 1.380 . S
C1490 H1499 0.930 . S
C1491 O1468 1.254 . S
C1491 O1469 1.268 . S
H1492 C1477 0.930 . S
H1493 C1478 0.930 . S
H1494 C1480 0.930 . S
H1495 C1481 0.930 . S
H1496 C1486 0.930 . S
H1497 C1487 0.930 . S
H1498 C1489 0.930 . S
H1499 C1490 0.930 . S
Gd1500 N1531 2.661 . S
Gd1500 N1537 2.601 . S
Gd1500 O1544 2.545 . S
Gd1500 O1545 2.606 . S
Gd1500 O1547 2.429 . S
Gd1500 O1548 2.545 . S
Gd1500 O1549 2.412 . S
Gd1500 O1551 2.362 . S
Gd1500 O1552 2.324 . S
Gd1500 C1559 2.828 . S
Gd1501 N1510 2.661 . S
Gd1501 N1514 2.601 . S
Gd1501 O1545 2.362 . S
Gd1501 O1546 2.324 . S
Gd1501 O1550 2.545 . S
Gd1501 O1551 2.606 . S
Gd1501 O1553 2.429 . S
Gd1501 O1554 2.545 . S
Gd1501 O1555 2.412 . S
Gd1501 C1568 2.828 . S
C1502 C1505 1.417 . S
C1502 C1507 1.431 . S
C1502 C1508 1.412 . S
C1503 C1506 1.437 . S
C1503 C1507 1.317 . S
C1503 H1522 0.929 . S
C1504 C1505 1.426 . S
C1504 C1506 1.413 . S
C1504 N1514 1.359 . S
C1505 C1502 1.417 . S
C1505 C1504 1.426 . S
C1505 N1510 1.350 . S
C1506 C1503 1.437 . S
C1506 C1504 1.413 . S
C1506 C1516 1.391 . S
C1507 C1502 1.431 . S
C1507 C1503 1.317 . S
C1507 H1518 0.930 . S
C1508 C1502 1.412 . S
C1508 C1509 1.355 . S
C1508 H1520 0.930 . S
C1509 C1508 1.355 . S
C1509 C1511 1.402 . S
C1509 H1521 0.930 . S
N1510 Gd1501 2.661 . S
N1510 C1505 1.350 . S
N1510 C1511 1.307 . S
C1511 C1509 1.402 . S
C1511 N1510 1.307 . S
C1511 H1512 0.930 . S
H1512 C1511 0.930 . S
C1513 N1514 1.334 . S
C1513 C1515 1.394 . S
C1513 H1517 0.930 . S
N1514 Gd1501 2.601 . S
N1514 C1504 1.359 . S
N1514 C1513 1.334 . S
C1515 C1513 1.394 . S
C1515 C1516 1.359 . S
C1515 H1527 0.930 . S
C1516 C1506 1.391 . S
C1516 C1515 1.359 . S
C1516 H1528 0.929 . S
H1517 C1513 0.930 . S
H1518 C1507 0.930 . S
H1519 C1536 0.930 . S
H1520 C1508 0.930 . S
H1521 C1509 0.930 . S
H1522 C1503 0.929 . S
H1523 C1541 0.930 . S
H1524 C1532 0.930 . S
H1525 C1533 0.930 . S
H1526 C1557 0.929 . S
H1527 C1515 0.930 . S
H1528 C1516 0.929 . S
H1529 C1558 0.930 . S
H1530 C1539 0.930 . S
N1531 Gd1500 2.661 . S
N1531 C1535 1.350 . S
N1531 C1536 1.307 . S
C1532 H1524 0.930 . S
C1532 C1533 1.355 . S
C1532 C1534 1.412 . S
C1533 H1525 0.930 . S
C1533 C1532 1.355 . S
C1533 C1536 1.402 . S
C1534 C1532 1.412 . S
C1534 C1535 1.417 . S
C1534 C1558 1.431 . S
C1535 N1531 1.350 . S
C1535 C1534 1.417 . S
C1535 C1538 1.426 . S
C1536 H1519 0.930 . S
C1536 N1531 1.307 . S
C1536 C1533 1.402 . S
N1537 Gd1500 2.601 . S
N1537 C1538 1.359 . S
N1537 C1541 1.334 . S
C1538 C1535 1.426 . S
C1538 N1537 1.359 . S
C1538 C1542 1.413 . S
C1539 H1530 0.930 . S
C1539 C1540 1.359 . S
C1539 C1541 1.394 . S
C1540 C1539 1.359 . S
C1540 C1542 1.391 . S
C1540 H1543 0.929 . S
C1541 H1523 0.930 . S
C1541 N1537 1.334 . S
C1541 C1539 1.394 . S
C1542 C1538 1.413 . S
C1542 C1540 1.391 . S
C1542 C1557 1.437 . S
H1543 C1540 0.929 . S
O1544 Gd1500 2.545 . S
O1544 C1559 1.258 . S
O1545 Gd1500 2.606 . S
O1545 Gd1501 2.362 . S
O1545 C1556 1.284 . S
O1546 Gd1501 2.324 . S
O1546 C1566 1.254 . S
O1547 Gd1500 2.429 . S
O1547 C1566 1.268 . S
O1548 Gd1500 2.545 . S
O1548 C1556 1.250 . S
O1549 Gd1500 2.412 . S
O1549 C1559 1.252 . S
O1550 Gd1501 2.545 . S
O1550 C1568 1.258 . S
O1551 Gd1500 2.362 . S
O1551 Gd1501 2.606 . S
O1551 C1567 1.284 . S
O1552 Gd1500 2.324 . S
O1552 C1575 1.254 . S
O1553 Gd1501 2.429 . S
O1553 C1575 1.268 . S
O1554 Gd1501 2.545 . S
O1554 C1567 1.250 . S
O1555 Gd1501 2.412 . S
O1555 C1568 1.252 . S
C1556 O1545 1.284 . S
C1556 O1548 1.250 . S
C1557 H1526 0.929 . S
C1557 C1542 1.437 . S
C1557 C1558 1.317 . S
C1558 H1529 0.930 . S
C1558 C1534 1.431 . S
C1558 C1557 1.317 . S
C1559 Gd1500 2.828 . S
C1559 O1544 1.258 . S
C1559 O1549 1.252 . S
C1559 C1560 1.497 . S
C1560 C1559 1.497 . S
C1560 C1561 1.395 . S
C1560 C1562 1.380 . S
C1561 C1560 1.395 . S
C1561 C1564 1.398 . S
C1561 H1576 0.930 . S
C1562 C1560 1.380 . S
C1562 C1563 1.391 . S
C1562 H1577 0.930 . S
C1563 C1562 1.391 . S
C1563 C1565 1.387 . S
C1564 C1561 1.398 . S
C1564 C1565 1.380 . S
C1564 H1578 0.930 . S
C1565 C1563 1.387 . S
C1565 C1564 1.380 . S
C1565 H1579 0.930 . S
C1566 O1546 1.254 . S
C1566 O1547 1.268 . S
C1567 O1551 1.284 . S
C1567 O1554 1.250 . S
C1568 Gd1501 2.828 . S
C1568 O1550 1.258 . S
C1568 O1555 1.252 . S
C1568 C1569 1.497 . S
C1569 C1568 1.497 . S
C1569 C1570 1.395 . S
C1569 C1571 1.380 . S
C1570 C1569 1.395 . S
C1570 C1573 1.398 . S
C1570 H1580 0.930 . S
C1571 C1569 1.380 . S
C1571 C1572 1.391 . S
C1571 H1581 0.930 . S
C1572 C1571 1.391 . S
C1572 C1574 1.387 . S
C1573 C1570 1.398 . S
C1573 C1574 1.380 . S
C1573 H1582 0.930 . S
C1574 C1572 1.387 . S
C1574 C1573 1.380 . S
C1574 H1583 0.930 . S
C1575 O1552 1.254 . S
C1575 O1553 1.268 . S
H1576 C1561 0.930 . S
H1577 C1562 0.930 . S
H1578 C1564 0.930 . S
H1579 C1565 0.930 . S
H1580 C1570 0.930 . S
H1581 C1571 0.930 . S
H1582 C1573 0.930 . S
H1583 C1574 0.930 . S
Gd1584 N1615 2.661 . S
Gd1584 N1621 2.601 . S
Gd1584 O1628 2.545 . S
Gd1584 O1629 2.606 . S
Gd1584 O1631 2.429 . S
Gd1584 O1632 2.545 . S
Gd1584 O1633 2.412 . S
Gd1584 O1635 2.362 . S
Gd1584 O1636 2.324 . S
Gd1584 C1643 2.828 . S
Gd1585 N1594 2.661 . S
Gd1585 N1598 2.601 . S
Gd1585 O1629 2.362 . S
Gd1585 O1630 2.324 . S
Gd1585 O1634 2.545 . S
Gd1585 O1635 2.606 . S
Gd1585 O1637 2.429 . S
Gd1585 O1638 2.545 . S
Gd1585 O1639 2.412 . S
Gd1585 C1652 2.828 . S
C1586 C1589 1.417 . S
C1586 C1591 1.431 . S
C1586 C1592 1.412 . S
C1587 C1590 1.437 . S
C1587 C1591 1.317 . S
C1587 H1606 0.929 . S
C1588 C1589 1.426 . S
C1588 C1590 1.413 . S
C1588 N1598 1.359 . S
C1589 C1586 1.417 . S
C1589 C1588 1.426 . S
C1589 N1594 1.350 . S
C1590 C1587 1.437 . S
C1590 C1588 1.413 . S
C1590 C1600 1.391 . S
C1591 C1586 1.431 . S
C1591 C1587 1.317 . S
C1591 H1602 0.930 . S
C1592 C1586 1.412 . S
C1592 C1593 1.355 . S
C1592 H1604 0.930 . S
C1593 C1592 1.355 . S
C1593 C1595 1.402 . S
C1593 H1605 0.930 . S
N1594 Gd1585 2.661 . S
N1594 C1589 1.350 . S
N1594 C1595 1.307 . S
C1595 C1593 1.402 . S
C1595 N1594 1.307 . S
C1595 H1596 0.930 . S
H1596 C1595 0.930 . S
C1597 N1598 1.334 . S
C1597 C1599 1.394 . S
C1597 H1601 0.930 . S
N1598 Gd1585 2.601 . S
N1598 C1588 1.359 . S
N1598 C1597 1.334 . S
C1599 C1597 1.394 . S
C1599 C1600 1.359 . S
C1599 H1611 0.930 . S
C1600 C1590 1.391 . S
C1600 C1599 1.359 . S
C1600 H1612 0.929 . S
H1601 C1597 0.930 . S
H1602 C1591 0.930 . S
H1603 C1620 0.930 . S
H1604 C1592 0.930 . S
H1605 C1593 0.930 . S
H1606 C1587 0.929 . S
H1607 C1625 0.930 . S
H1608 C1616 0.930 . S
H1609 C1617 0.930 . S
H1610 C1641 0.929 . S
H1611 C1599 0.930 . S
H1612 C1600 0.929 . S
H1613 C1642 0.930 . S
H1614 C1623 0.930 . S
N1615 Gd1584 2.661 . S
N1615 C1619 1.350 . S
N1615 C1620 1.307 . S
C1616 H1608 0.930 . S
C1616 C1617 1.355 . S
C1616 C1618 1.412 . S
C1617 H1609 0.930 . S
C1617 C1616 1.355 . S
C1617 C1620 1.402 . S
C1618 C1616 1.412 . S
C1618 C1619 1.417 . S
C1618 C1642 1.431 . S
C1619 N1615 1.350 . S
C1619 C1618 1.417 . S
C1619 C1622 1.426 . S
C1620 H1603 0.930 . S
C1620 N1615 1.307 . S
C1620 C1617 1.402 . S
N1621 Gd1584 2.601 . S
N1621 C1622 1.359 . S
N1621 C1625 1.334 . S
C1622 C1619 1.426 . S
C1622 N1621 1.359 . S
C1622 C1626 1.413 . S
C1623 H1614 0.930 . S
C1623 C1624 1.359 . S
C1623 C1625 1.394 . S
C1624 C1623 1.359 . S
C1624 C1626 1.391 . S
C1624 H1627 0.929 . S
C1625 H1607 0.930 . S
C1625 N1621 1.334 . S
C1625 C1623 1.394 . S
C1626 C1622 1.413 . S
C1626 C1624 1.391 . S
C1626 C1641 1.437 . S
H1627 C1624 0.929 . S
O1628 Gd1584 2.545 . S
O1628 C1643 1.258 . S
O1629 Gd1584 2.606 . S
O1629 Gd1585 2.362 . S
O1629 C1640 1.284 . S
O1630 Gd1585 2.324 . S
O1630 C1650 1.254 . S
O1631 Gd1584 2.429 . S
O1631 C1650 1.268 . S
O1632 Gd1584 2.545 . S
O1632 C1640 1.250 . S
O1633 Gd1584 2.412 . S
O1633 C1643 1.252 . S
O1634 Gd1585 2.545 . S
O1634 C1652 1.258 . S
O1635 Gd1584 2.362 . S
O1635 Gd1585 2.606 . S
O1635 C1651 1.284 . S
O1636 Gd1584 2.324 . S
O1636 C1659 1.254 . S
O1637 Gd1585 2.429 . S
O1637 C1659 1.268 . S
O1638 Gd1585 2.545 . S
O1638 C1651 1.250 . S
O1639 Gd1585 2.412 . S
O1639 C1652 1.252 . S
C1640 O1629 1.284 . S
C1640 O1632 1.250 . S
C1641 H1610 0.929 . S
C1641 C1626 1.437 . S
C1641 C1642 1.317 . S
C1642 H1613 0.930 . S
C1642 C1618 1.431 . S
C1642 C1641 1.317 . S
C1643 Gd1584 2.828 . S
C1643 O1628 1.258 . S
C1643 O1633 1.252 . S
C1643 C1644 1.497 . S
C1644 C1643 1.497 . S
C1644 C1645 1.395 . S
C1644 C1646 1.380 . S
C1645 C1644 1.395 . S
C1645 C1648 1.398 . S
C1645 H1660 0.930 . S
C1646 C1644 1.380 . S
C1646 C1647 1.391 . S
C1646 H1661 0.930 . S
C1647 C1646 1.391 . S
C1647 C1649 1.387 . S
C1648 C1645 1.398 . S
C1648 C1649 1.380 . S
C1648 H1662 0.930 . S
C1649 C1647 1.387 . S
C1649 C1648 1.380 . S
C1649 H1663 0.930 . S
C1650 O1630 1.254 . S
C1650 O1631 1.268 . S
C1651 O1635 1.284 . S
C1651 O1638 1.250 . S
C1652 Gd1585 2.828 . S
C1652 O1634 1.258 . S
C1652 O1639 1.252 . S
C1652 C1653 1.497 . S
C1653 C1652 1.497 . S
C1653 C1654 1.395 . S
C1653 C1655 1.380 . S
C1654 C1653 1.395 . S
C1654 C1657 1.398 . S
C1654 H1664 0.930 . S
C1655 C1653 1.380 . S
C1655 C1656 1.391 . S
C1655 H1665 0.930 . S
C1656 C1655 1.391 . S
C1656 C1658 1.387 . S
C1657 C1654 1.398 . S
C1657 C1658 1.380 . S
C1657 H1666 0.930 . S
C1658 C1656 1.387 . S
C1658 C1657 1.380 . S
C1658 H1667 0.930 . S
C1659 O1636 1.254 . S
C1659 O1637 1.268 . S
H1660 C1645 0.930 . S
H1661 C1646 0.930 . S
H1662 C1648 0.930 . S
H1663 C1649 0.930 . S
H1664 C1654 0.930 . S
H1665 C1655 0.930 . S
H1666 C1657 0.930 . S
H1667 C1658 0.930 . S
Gd1668 N1699 2.661 . S
Gd1668 N1705 2.601 . S
Gd1668 O1712 2.545 . S
Gd1668 O1713 2.606 . S
Gd1668 O1715 2.429 . S
Gd1668 O1716 2.545 . S
Gd1668 O1717 2.412 . S
Gd1668 O1719 2.362 . S
Gd1668 O1720 2.324 . S
Gd1668 C1727 2.828 . S
Gd1669 N1678 2.661 . S
Gd1669 N1682 2.601 . S
Gd1669 O1713 2.362 . S
Gd1669 O1714 2.324 . S
Gd1669 O1718 2.545 . S
Gd1669 O1719 2.606 . S
Gd1669 O1721 2.429 . S
Gd1669 O1722 2.545 . S
Gd1669 O1723 2.412 . S
Gd1669 C1736 2.828 . S
C1670 C1673 1.417 . S
C1670 C1675 1.431 . S
C1670 C1676 1.412 . S
C1671 C1674 1.437 . S
C1671 C1675 1.317 . S
C1671 H1690 0.929 . S
C1672 C1673 1.426 . S
C1672 C1674 1.413 . S
C1672 N1682 1.359 . S
C1673 C1670 1.417 . S
C1673 C1672 1.426 . S
C1673 N1678 1.350 . S
C1674 C1671 1.437 . S
C1674 C1672 1.413 . S
C1674 C1684 1.391 . S
C1675 C1670 1.431 . S
C1675 C1671 1.317 . S
C1675 H1686 0.930 . S
C1676 C1670 1.412 . S
C1676 C1677 1.355 . S
C1676 H1688 0.930 . S
C1677 C1676 1.355 . S
C1677 C1679 1.402 . S
C1677 H1689 0.930 . S
N1678 Gd1669 2.661 . S
N1678 C1673 1.350 . S
N1678 C1679 1.307 . S
C1679 C1677 1.402 . S
C1679 N1678 1.307 . S
C1679 H1680 0.930 . S
H1680 C1679 0.930 . S
C1681 N1682 1.334 . S
C1681 C1683 1.394 . S
C1681 H1685 0.930 . S
N1682 Gd1669 2.601 . S
N1682 C1672 1.359 . S
N1682 C1681 1.334 . S
C1683 C1681 1.394 . S
C1683 C1684 1.359 . S
C1683 H1695 0.930 . S
C1684 C1674 1.391 . S
C1684 C1683 1.359 . S
C1684 H1696 0.929 . S
H1685 C1681 0.930 . S
H1686 C1675 0.930 . S
H1687 C1704 0.930 . S
H1688 C1676 0.930 . S
H1689 C1677 0.930 . S
H1690 C1671 0.929 . S
H1691 C1709 0.930 . S
H1692 C1700 0.930 . S
H1693 C1701 0.930 . S
H1694 C1725 0.929 . S
H1695 C1683 0.930 . S
H1696 C1684 0.929 . S
H1697 C1726 0.930 . S
H1698 C1707 0.930 . S
N1699 Gd1668 2.661 . S
N1699 C1703 1.350 . S
N1699 C1704 1.307 . S
C1700 H1692 0.930 . S
C1700 C1701 1.355 . S
C1700 C1702 1.412 . S
C1701 H1693 0.930 . S
C1701 C1700 1.355 . S
C1701 C1704 1.402 . S
C1702 C1700 1.412 . S
C1702 C1703 1.417 . S
C1702 C1726 1.431 . S
C1703 N1699 1.350 . S
C1703 C1702 1.417 . S
C1703 C1706 1.426 . S
C1704 H1687 0.930 . S
C1704 N1699 1.307 . S
C1704 C1701 1.402 . S
N1705 Gd1668 2.601 . S
N1705 C1706 1.359 . S
N1705 C1709 1.334 . S
C1706 C1703 1.426 . S
C1706 N1705 1.359 . S
C1706 C1710 1.413 . S
C1707 H1698 0.930 . S
C1707 C1708 1.359 . S
C1707 C1709 1.394 . S
C1708 C1707 1.359 . S
C1708 C1710 1.391 . S
C1708 H1711 0.929 . S
C1709 H1691 0.930 . S
C1709 N1705 1.334 . S
C1709 C1707 1.394 . S
C1710 C1706 1.413 . S
C1710 C1708 1.391 . S
C1710 C1725 1.437 . S
H1711 C1708 0.929 . S
O1712 Gd1668 2.545 . S
O1712 C1727 1.258 . S
O1713 Gd1668 2.606 . S
O1713 Gd1669 2.362 . S
O1713 C1724 1.284 . S
O1714 Gd1669 2.324 . S
O1714 C1734 1.254 . S
O1715 Gd1668 2.429 . S
O1715 C1734 1.268 . S
O1716 Gd1668 2.545 . S
O1716 C1724 1.250 . S
O1717 Gd1668 2.412 . S
O1717 C1727 1.252 . S
O1718 Gd1669 2.545 . S
O1718 C1736 1.258 . S
O1719 Gd1668 2.362 . S
O1719 Gd1669 2.606 . S
O1719 C1735 1.284 . S
O1720 Gd1668 2.324 . S
O1720 C1743 1.254 . S
O1721 Gd1669 2.429 . S
O1721 C1743 1.268 . S
O1722 Gd1669 2.545 . S
O1722 C1735 1.250 . S
O1723 Gd1669 2.412 . S
O1723 C1736 1.252 . S
C1724 O1713 1.284 . S
C1724 O1716 1.250 . S
C1725 H1694 0.929 . S
C1725 C1710 1.437 . S
C1725 C1726 1.317 . S
C1726 H1697 0.930 . S
C1726 C1702 1.431 . S
C1726 C1725 1.317 . S
C1727 Gd1668 2.828 . S
C1727 O1712 1.258 . S
C1727 O1717 1.252 . S
C1727 C1728 1.497 . S
C1728 C1727 1.497 . S
C1728 C1729 1.395 . S
C1728 C1730 1.380 . S
C1729 C1728 1.395 . S
C1729 C1732 1.398 . S
C1729 H1744 0.930 . S
C1730 C1728 1.380 . S
C1730 C1731 1.391 . S
C1730 H1745 0.930 . S
C1731 C1730 1.391 . S
C1731 C1733 1.387 . S
C1732 C1729 1.398 . S
C1732 C1733 1.380 . S
C1732 H1746 0.930 . S
C1733 C1731 1.387 . S
C1733 C1732 1.380 . S
C1733 H1747 0.930 . S
C1734 O1714 1.254 . S
C1734 O1715 1.268 . S
C1735 O1719 1.284 . S
C1735 O1722 1.250 . S
C1736 Gd1669 2.828 . S
C1736 O1718 1.258 . S
C1736 O1723 1.252 . S
C1736 C1737 1.497 . S
C1737 C1736 1.497 . S
C1737 C1738 1.395 . S
C1737 C1739 1.380 . S
C1738 C1737 1.395 . S
C1738 C1741 1.398 . S
C1738 H1748 0.930 . S
C1739 C1737 1.380 . S
C1739 C1740 1.391 . S
C1739 H1749 0.930 . S
C1740 C1739 1.391 . S
C1740 C1742 1.387 . S
C1741 C1738 1.398 . S
C1741 C1742 1.380 . S
C1741 H1750 0.930 . S
C1742 C1740 1.387 . S
C1742 C1741 1.380 . S
C1742 H1751 0.930 . S
C1743 O1720 1.254 . S
C1743 O1721 1.268 . S
H1744 C1729 0.930 . S
H1745 C1730 0.930 . S
H1746 C1732 0.930 . S
H1747 C1733 0.930 . S
H1748 C1738 0.930 . S
H1749 C1739 0.930 . S
H1750 C1741 0.930 . S
H1751 C1742 0.930 . S
Gd1752 N1783 2.661 . S
Gd1752 N1789 2.601 . S
Gd1752 O1796 2.545 . S
Gd1752 O1797 2.606 . S
Gd1752 O1799 2.429 . S
Gd1752 O1800 2.545 . S
Gd1752 O1801 2.412 . S
Gd1752 O1803 2.362 . S
Gd1752 O1804 2.324 . S
Gd1752 C1811 2.828 . S
Gd1753 N1762 2.661 . S
Gd1753 N1766 2.601 . S
Gd1753 O1797 2.362 . S
Gd1753 O1798 2.324 . S
Gd1753 O1802 2.545 . S
Gd1753 O1803 2.606 . S
Gd1753 O1805 2.429 . S
Gd1753 O1806 2.545 . S
Gd1753 O1807 2.412 . S
Gd1753 C1820 2.828 . S
C1754 C1757 1.417 . S
C1754 C1759 1.431 . S
C1754 C1760 1.412 . S
C1755 C1758 1.437 . S
C1755 C1759 1.317 . S
C1755 H1774 0.929 . S
C1756 C1757 1.426 . S
C1756 C1758 1.413 . S
C1756 N1766 1.359 . S
C1757 C1754 1.417 . S
C1757 C1756 1.426 . S
C1757 N1762 1.350 . S
C1758 C1755 1.437 . S
C1758 C1756 1.413 . S
C1758 C1768 1.391 . S
C1759 C1754 1.431 . S
C1759 C1755 1.317 . S
C1759 H1770 0.930 . S
C1760 C1754 1.412 . S
C1760 C1761 1.355 . S
C1760 H1772 0.930 . S
C1761 C1760 1.355 . S
C1761 C1763 1.402 . S
C1761 H1773 0.930 . S
N1762 Gd1753 2.661 . S
N1762 C1757 1.350 . S
N1762 C1763 1.307 . S
C1763 C1761 1.402 . S
C1763 N1762 1.307 . S
C1763 H1764 0.930 . S
H1764 C1763 0.930 . S
C1765 N1766 1.334 . S
C1765 C1767 1.394 . S
C1765 H1769 0.930 . S
N1766 Gd1753 2.601 . S
N1766 C1756 1.359 . S
N1766 C1765 1.334 . S
C1767 C1765 1.394 . S
C1767 C1768 1.359 . S
C1767 H1779 0.930 . S
C1768 C1758 1.391 . S
C1768 C1767 1.359 . S
C1768 H1780 0.929 . S
H1769 C1765 0.930 . S
H1770 C1759 0.930 . S
H1771 C1788 0.930 . S
H1772 C1760 0.930 . S
H1773 C1761 0.930 . S
H1774 C1755 0.929 . S
H1775 C1793 0.930 . S
H1776 C1784 0.930 . S
H1777 C1785 0.930 . S
H1778 C1809 0.929 . S
H1779 C1767 0.930 . S
H1780 C1768 0.929 . S
H1781 C1810 0.930 . S
H1782 C1791 0.930 . S
N1783 Gd1752 2.661 . S
N1783 C1787 1.350 . S
N1783 C1788 1.307 . S
C1784 H1776 0.930 . S
C1784 C1785 1.355 . S
C1784 C1786 1.412 . S
C1785 H1777 0.930 . S
C1785 C1784 1.355 . S
C1785 C1788 1.402 . S
C1786 C1784 1.412 . S
C1786 C1787 1.417 . S
C1786 C1810 1.431 . S
C1787 N1783 1.350 . S
C1787 C1786 1.417 . S
C1787 C1790 1.426 . S
C1788 H1771 0.930 . S
C1788 N1783 1.307 . S
C1788 C1785 1.402 . S
N1789 Gd1752 2.601 . S
N1789 C1790 1.359 . S
N1789 C1793 1.334 . S
C1790 C1787 1.426 . S
C1790 N1789 1.359 . S
C1790 C1794 1.413 . S
C1791 H1782 0.930 . S
C1791 C1792 1.359 . S
C1791 C1793 1.394 . S
C1792 C1791 1.359 . S
C1792 C1794 1.391 . S
C1792 H1795 0.929 . S
C1793 H1775 0.930 . S
C1793 N1789 1.334 . S
C1793 C1791 1.394 . S
C1794 C1790 1.413 . S
C1794 C1792 1.391 . S
C1794 C1809 1.437 . S
H1795 C1792 0.929 . S
O1796 Gd1752 2.545 . S
O1796 C1811 1.258 . S
O1797 Gd1752 2.606 . S
O1797 Gd1753 2.362 . S
O1797 C1808 1.284 . S
O1798 Gd1753 2.324 . S
O1798 C1818 1.254 . S
O1799 Gd1752 2.429 . S
O1799 C1818 1.268 . S
O1800 Gd1752 2.545 . S
O1800 C1808 1.250 . S
O1801 Gd1752 2.412 . S
O1801 C1811 1.252 . S
O1802 Gd1753 2.545 . S
O1802 C1820 1.258 . S
O1803 Gd1752 2.362 . S
O1803 Gd1753 2.606 . S
O1803 C1819 1.284 . S
O1804 Gd1752 2.324 . S
O1804 C1827 1.254 . S
O1805 Gd1753 2.429 . S
O1805 C1827 1.268 . S
O1806 Gd1753 2.545 . S
O1806 C1819 1.250 . S
O1807 Gd1753 2.412 . S
O1807 C1820 1.252 . S
C1808 O1797 1.284 . S
C1808 O1800 1.250 . S
C1809 H1778 0.929 . S
C1809 C1794 1.437 . S
C1809 C1810 1.317 . S
C1810 H1781 0.930 . S
C1810 C1786 1.431 . S
C1810 C1809 1.317 . S
C1811 Gd1752 2.828 . S
C1811 O1796 1.258 . S
C1811 O1801 1.252 . S
C1811 C1812 1.497 . S
C1812 C1811 1.497 . S
C1812 C1813 1.395 . S
C1812 C1814 1.380 . S
C1813 C1812 1.395 . S
C1813 C1816 1.398 . S
C1813 H1828 0.930 . S
C1814 C1812 1.380 . S
C1814 C1815 1.391 . S
C1814 H1829 0.930 . S
C1815 C1814 1.391 . S
C1815 C1817 1.387 . S
C1816 C1813 1.398 . S
C1816 C1817 1.380 . S
C1816 H1830 0.930 . S
C1817 C1815 1.387 . S
C1817 C1816 1.380 . S
C1817 H1831 0.930 . S
C1818 O1798 1.254 . S
C1818 O1799 1.268 . S
C1819 O1803 1.284 . S
C1819 O1806 1.250 . S
C1820 Gd1753 2.828 . S
C1820 O1802 1.258 . S
C1820 O1807 1.252 . S
C1820 C1821 1.497 . S
C1821 C1820 1.497 . S
C1821 C1822 1.395 . S
C1821 C1823 1.380 . S
C1822 C1821 1.395 . S
C1822 C1825 1.398 . S
C1822 H1832 0.930 . S
C1823 C1821 1.380 . S
C1823 C1824 1.391 . S
C1823 H1833 0.930 . S
C1824 C1823 1.391 . S
C1824 C1826 1.387 . S
C1825 C1822 1.398 . S
C1825 C1826 1.380 . S
C1825 H1834 0.930 . S
C1826 C1824 1.387 . S
C1826 C1825 1.380 . S
C1826 H1835 0.930 . S
C1827 O1804 1.254 . S
C1827 O1805 1.268 . S
H1828 C1813 0.930 . S
H1829 C1814 0.930 . S
H1830 C1816 0.930 . S
H1831 C1817 0.930 . S
H1832 C1822 0.930 . S
H1833 C1823 0.930 . S
H1834 C1825 0.930 . S
H1835 C1826 0.930 . S
H1836 C1854 0.951 . S
H1837 C1856 0.951 . S
H1838 C1858 0.950 . S
H1839 C1859 0.950 . S
H1840 C1861 0.950 . S
H1841 C1864 0.950 . S
H1842 C1865 0.950 . S
H1843 C1867 0.950 . S
H1844 C1868 0.950 . S
H1845 C1869 0.951 . S
H1846 C1871 0.951 . S
H1847 C1873 0.950 . S
H1848 C1874 0.950 . S
H1849 C1876 0.950 . S
H1850 C1879 0.950 . S
H1851 C1880 0.950 . S
H1852 C1882 0.950 . S
H1853 C1883 0.950 . S
C1854 H1836 0.951 . S
C1854 C1855 1.366 . S
C1854 C1856 1.388 . S
C1855 C1854 1.366 . S
C1855 C1859 1.385 . S
C1856 H1837 0.951 . S
C1856 C1854 1.388 . S
C1856 C1857 1.366 . S
C1857 C1856 1.366 . S
C1857 C1858 1.414 . S
C1857 C1860 1.499 . S
C1858 H1838 0.950 . S
C1858 C1857 1.414 . S
C1858 C1859 1.374 . S
C1859 H1839 0.950 . S
C1859 C1855 1.385 . S
C1859 C1858 1.374 . S
C1860 C1857 1.499 . S
C1860 C1861 1.373 . S
C1860 C1862 1.389 . S
C1861 H1840 0.950 . S
C1861 C1860 1.373 . S
C1861 C1877 1.377 . S
C1862 C1860 1.389 . S
C1862 C1863 1.524 . S
C1862 C1876 1.377 . S
C1863 C1862 1.524 . S
C1863 C1864 1.397 . S
C1863 C1868 1.363 . S
C1864 H1841 0.950 . S
C1864 C1863 1.397 . S
C1864 C1865 1.334 . S
C1865 H1842 0.950 . S
C1865 C1864 1.334 . S
C1865 C1866 1.287 . S
C1866 C1865 1.287 . S
C1866 C1867 1.524 . S
C1866 H1885 0.913 . S
C1867 H1843 0.950 . S
C1867 C1866 1.524 . S
C1867 C1868 1.415 . S
C1868 H1844 0.950 . S
C1868 C1863 1.363 . S
C1868 C1867 1.415 . S
C1869 H1845 0.951 . S
C1869 C1870 1.366 . S
C1869 C1871 1.388 . S
C1870 C1869 1.366 . S
C1870 C1874 1.385 . S
C1871 H1846 0.951 . S
C1871 C1869 1.388 . S
C1871 C1872 1.366 . S
C1872 C1871 1.366 . S
C1872 C1873 1.414 . S
C1872 C1875 1.499 . S
C1873 H1847 0.950 . S
C1873 C1872 1.414 . S
C1873 C1874 1.374 . S
C1874 H1848 0.950 . S
C1874 C1870 1.385 . S
C1874 C1873 1.374 . S
C1875 C1872 1.499 . S
C1875 C1876 1.373 . S
C1875 C1877 1.389 . S
C1876 H1849 0.950 . S
C1876 C1862 1.377 . S
C1876 C1875 1.373 . S
C1877 C1861 1.377 . S
C1877 C1875 1.389 . S
C1877 C1878 1.524 . S
C1878 C1877 1.524 . S
C1878 C1879 1.397 . S
C1878 C1883 1.363 . S
C1879 H1850 0.950 . S
C1879 C1878 1.397 . S
C1879 C1880 1.334 1_554 S
C1880 H1851 0.950 . S
C1880 C1879 1.334 1_556 S
C1880 C1881 1.287 . S
C1881 C1880 1.287 . S
C1881 C1882 1.524 . S
C1881 H1884 0.999 . S
C1882 H1852 0.950 . S
C1882 C1881 1.524 . S
C1882 C1883 1.415 1_556 S
C1883 H1853 0.950 . S
C1883 C1878 1.363 . S
C1883 C1882 1.415 1_554 S
H1884 C1881 0.999 . S
H1885 C1866 0.913 . S
H1886 C1904 0.951 . S
H1887 C1906 0.951 . S
H1888 C1908 0.950 . S
H1889 C1909 0.950 . S
H1890 C1911 0.950 . S
H1891 C1914 0.950 . S
H1892 C1915 0.950 . S
H1893 C1917 0.950 . S
H1894 C1918 0.950 . S
H1895 C1919 0.951 . S
H1896 C1921 0.951 . S
H1897 C1923 0.950 . S
H1898 C1924 0.982 . S
H1899 C1926 0.950 . S
H1900 C1929 0.950 . S
H1901 C1930 0.950 . S
H1902 C1932 0.950 . S
H1903 C1933 0.950 . S
C1904 H1886 0.951 . S
C1904 C1905 1.366 . S
C1904 C1906 1.388 . S
C1905 C1904 1.366 . S
C1905 C1909 1.385 . S
C1906 H1887 0.951 . S
C1906 C1904 1.388 . S
C1906 C1907 1.366 . S
C1907 C1906 1.366 . S
C1907 C1908 1.414 . S
C1907 C1910 1.499 . S
C1908 H1888 0.950 . S
C1908 C1907 1.414 . S
C1908 C1909 1.374 . S
C1909 H1889 0.950 . S
C1909 C1905 1.385 . S
C1909 C1908 1.374 . S
C1910 C1907 1.499 . S
C1910 C1911 1.373 . S
C1910 C1912 1.389 . S
C1911 H1890 0.950 . S
C1911 C1910 1.373 . S
C1911 C1927 1.377 . S
C1912 C1910 1.389 . S
C1912 C1913 1.524 . S
C1912 C1926 1.377 . S
C1913 C1912 1.524 . S
C1913 C1914 1.397 . S
C1913 C1918 1.363 . S
C1914 H1891 0.950 . S
C1914 C1913 1.397 . S
C1914 C1915 1.334 . S
C1915 H1892 0.950 . S
C1915 C1914 1.334 . S
C1915 C1916 1.287 . S
C1916 C1915 1.287 . S
C1916 C1917 1.524 . S
C1916 H1935 0.913 . S
C1917 H1893 0.950 . S
C1917 C1916 1.524 . S
C1917 C1918 1.415 . S
C1918 H1894 0.950 . S
C1918 C1913 1.363 . S
C1918 C1917 1.415 . S
C1919 H1895 0.951 . S
C1919 C1920 1.366 . S
C1919 C1921 1.388 . S
C1920 C1919 1.366 . S
C1920 C1924 1.385 . S
C1921 H1896 0.951 . S
C1921 C1919 1.388 . S
C1921 C1922 1.366 . S
C1922 C1921 1.366 . S
C1922 C1923 1.414 . S
C1922 C1925 1.499 . S
C1923 H1897 0.950 . S
C1923 C1922 1.414 . S
C1923 C1924 1.374 . S
C1924 H1898 0.982 . S
C1924 C1920 1.385 . S
C1924 C1923 1.374 . S
C1925 C1922 1.499 . S
C1925 C1926 1.373 . S
C1925 C1927 1.389 . S
C1926 H1899 0.950 . S
C1926 C1912 1.377 . S
C1926 C1925 1.373 . S
C1927 C1911 1.377 . S
C1927 C1925 1.389 . S
C1927 C1928 1.524 . S
C1928 C1927 1.524 . S
C1928 C1929 1.397 . S
C1928 C1933 1.363 . S
C1929 H1900 0.950 . S
C1929 C1928 1.397 . S
C1929 C1930 1.334 . S
C1930 H1901 0.950 . S
C1930 C1929 1.334 . S
C1930 C1931 1.287 . S
C1931 C1930 1.287 . S
C1931 C1932 1.524 . S
C1931 H1934 0.999 . S
C1932 H1902 0.950 . S
C1932 C1931 1.524 . S
C1932 C1933 1.415 . S
C1933 H1903 0.950 . S
C1933 C1928 1.363 . S
C1933 C1932 1.415 . S
H1934 C1931 0.999 . S
H1935 C1916 0.913 . S
H1936 C1954 0.951 . S
H1937 C1956 0.951 . S
H1938 C1958 0.950 . S
H1939 C1959 0.950 . S
H1940 C1961 0.950 . S
H1941 C1964 0.950 . S
H1942 C1965 0.950 . S
H1943 C1967 0.950 . S
H1944 C1968 0.950 . S
H1945 C1969 0.951 . S
H1946 C1971 0.951 . S
H1947 C1973 0.950 . S
H1948 C1974 0.950 . S
H1949 C1976 0.950 . S
H1950 C1979 0.950 . S
H1951 C1980 0.950 . S
H1952 C1982 0.950 . S
H1953 C1983 0.950 . S
C1954 H1936 0.951 . S
C1954 C1955 1.366 . S
C1954 C1956 1.388 . S
C1955 C1954 1.366 . S
C1955 C1959 1.385 . S
C1956 H1937 0.951 . S
C1956 C1954 1.388 . S
C1956 C1957 1.366 . S
C1957 C1956 1.366 . S
C1957 C1958 1.414 . S
C1957 C1960 1.499 . S
C1958 H1938 0.950 . S
C1958 C1957 1.414 . S
C1958 C1959 1.374 . S
C1959 H1939 0.950 . S
C1959 C1955 1.385 . S
C1959 C1958 1.374 . S
C1960 C1957 1.499 . S
C1960 C1961 1.373 . S
C1960 C1962 1.389 . S
C1961 H1940 0.950 . S
C1961 C1960 1.373 . S
C1961 C1977 1.377 . S
C1962 C1960 1.389 . S
C1962 C1963 1.524 . S
C1962 C1976 1.377 . S
C1963 C1962 1.524 . S
C1963 C1964 1.397 . S
C1963 C1968 1.363 . S
C1964 H1941 0.950 . S
C1964 C1963 1.397 . S
C1964 C1965 1.334 . S
C1965 H1942 0.950 . S
C1965 C1964 1.334 . S
C1965 C1966 1.287 . S
C1966 C1965 1.287 . S
C1966 C1967 1.524 . S
C1966 H1985 0.913 . S
C1967 H1943 0.950 . S
C1967 C1966 1.524 . S
C1967 C1968 1.415 . S
C1968 H1944 0.950 . S
C1968 C1963 1.363 . S
C1968 C1967 1.415 . S
C1969 H1945 0.951 . S
C1969 C1970 1.366 . S
C1969 C1971 1.388 . S
C1970 C1969 1.366 . S
C1970 C1974 1.385 . S
C1971 H1946 0.951 . S
C1971 C1969 1.388 . S
C1971 C1972 1.366 . S
C1972 C1971 1.366 . S
C1972 C1973 1.414 . S
C1972 C1975 1.499 . S
C1973 H1947 0.950 . S
C1973 C1972 1.414 . S
C1973 C1974 1.374 . S
C1974 H1948 0.950 . S
C1974 C1970 1.385 . S
C1974 C1973 1.374 . S
C1975 C1972 1.499 . S
C1975 C1976 1.373 . S
C1975 C1977 1.389 . S
C1976 H1949 0.950 . S
C1976 C1962 1.377 . S
C1976 C1975 1.373 . S
C1977 C1961 1.377 . S
C1977 C1975 1.389 . S
C1977 C1978 1.524 . S
C1978 C1977 1.524 . S
C1978 C1979 1.397 . S
C1978 C1983 1.363 . S
C1979 H1950 0.950 . S
C1979 C1978 1.397 . S
C1979 C1980 1.334 1_554 S
C1980 H1951 0.950 . S
C1980 C1979 1.334 1_556 S
C1980 C1981 1.287 . S
C1981 C1980 1.287 . S
C1981 C1982 1.524 . S
C1981 H1984 0.999 . S
C1982 H1952 0.950 . S
C1982 C1981 1.524 . S
C1982 C1983 1.415 1_556 S
C1983 H1953 0.950 . S
C1983 C1978 1.363 . S
C1983 C1982 1.415 1_554 S
H1984 C1981 0.999 . S
H1985 C1966 0.913 . S
H1986 C2004 0.951 . S
H1987 C2006 0.951 . S
H1988 C2008 0.950 . S
H1989 C2009 0.950 . S
H1990 C2011 0.950 . S
H1991 C2014 0.950 . S
H1992 C2015 0.950 . S
H1993 C2017 0.950 . S
H1994 C2018 0.950 . S
H1995 C2019 0.951 . S
H1996 C2021 0.951 . S
H1997 C2023 0.950 . S
H1998 C2024 0.950 . S
H1999 C2026 0.950 . S
H2000 C2029 0.944 1_556 S
H2001 C2030 0.950 . S
H2002 C2032 0.950 . S
H2003 C2033 0.950 . S
C2004 H1986 0.951 . S
C2004 C2005 1.366 . S
C2004 C2006 1.388 . S
C2005 C2004 1.366 . S
C2005 C2009 1.385 . S
C2006 H1987 0.951 . S
C2006 C2004 1.388 . S
C2006 C2007 1.366 . S
C2007 C2006 1.366 . S
C2007 C2008 1.414 . S
C2007 C2010 1.499 . S
C2008 H1988 0.950 . S
C2008 C2007 1.414 . S
C2008 C2009 1.374 . S
C2009 H1989 0.950 . S
C2009 C2005 1.385 . S
C2009 C2008 1.374 . S
C2010 C2007 1.499 . S
C2010 C2011 1.373 . S
C2010 C2012 1.389 . S
C2011 H1990 0.950 . S
C2011 C2010 1.373 . S
C2011 C2027 1.377 . S
C2012 C2010 1.389 . S
C2012 C2013 1.524 . S
C2012 C2026 1.377 . S
C2013 C2012 1.524 . S
C2013 C2014 1.397 . S
C2013 C2018 1.363 . S
C2014 H1991 0.950 . S
C2014 C2013 1.397 . S
C2014 C2015 1.334 . S
C2015 H1992 0.950 . S
C2015 C2014 1.334 . S
C2015 C2016 1.287 . S
C2016 C2015 1.287 . S
C2016 C2017 1.524 . S
C2016 H2035 0.913 . S
C2017 H1993 0.950 . S
C2017 C2016 1.524 . S
C2017 C2018 1.415 . S
C2018 H1994 0.950 . S
C2018 C2013 1.363 . S
C2018 C2017 1.415 . S
C2019 H1995 0.951 . S
C2019 C2020 1.366 . S
C2019 C2021 1.388 . S
C2020 C2019 1.366 . S
C2020 C2024 1.385 . S
C2021 H1996 0.951 . S
C2021 C2019 1.388 . S
C2021 C2022 1.366 . S
C2022 C2021 1.366 . S
C2022 C2023 1.414 . S
C2022 C2025 1.499 . S
C2023 H1997 0.950 . S
C2023 C2022 1.414 . S
C2023 C2024 1.374 . S
C2024 H1998 0.950 . S
C2024 C2020 1.385 . S
C2024 C2023 1.374 . S
C2025 C2022 1.499 . S
C2025 C2026 1.373 . S
C2025 C2027 1.389 . S
C2026 H1999 0.950 . S
C2026 C2012 1.377 . S
C2026 C2025 1.373 . S
C2027 C2011 1.377 . S
C2027 C2025 1.389 . S
C2027 C2028 1.524 . S
C2028 C2027 1.524 . S
C2028 C2029 1.397 1_556 S
C2028 C2033 1.363 . S
C2029 H2000 0.944 1_554 S
C2029 C2028 1.397 1_554 S
C2029 C2030 1.334 . S
C2030 H2001 0.950 . S
C2030 C2029 1.334 . S
C2030 C2031 1.287 . S
C2031 C2030 1.287 . S
C2031 C2032 1.524 . S
C2031 H2034 0.999 . S
C2032 H2002 0.950 . S
C2032 C2031 1.524 . S
C2032 C2033 1.415 1_554 S
C2033 H2003 0.950 . S
C2033 C2028 1.363 . S
C2033 C2032 1.415 1_556 S
H2034 C2031 0.999 . S
H2035 C2016 0.913 . S
H2036 C2054 0.951 . S
H2037 C2056 0.951 . S
H2038 C2058 0.950 . S
H2039 C2059 0.950 . S
H2040 C2061 0.950 . S
H2041 C2064 0.950 . S
H2042 C2065 0.950 . S
H2043 C2067 0.950 . S
H2044 C2068 0.950 . S
H2045 C2069 0.951 1_554 S
H2046 C2071 0.951 . S
H2047 C2073 0.950 . S
H2048 C2074 0.950 . S
H2049 C2076 0.950 . S
H2050 C2079 0.950 . S
H2051 C2080 0.950 . S
H2052 C2082 0.950 . S
H2053 C2083 0.950 . S
C2054 H2036 0.951 . S
C2054 C2055 1.366 . S
C2054 C2056 1.388 . S
C2055 C2054 1.366 . S
C2055 C2059 1.385 . S
C2056 H2037 0.951 . S
C2056 C2054 1.388 . S
C2056 C2057 1.366 . S
C2057 C2056 1.366 . S
C2057 C2058 1.414 . S
C2057 C2060 1.499 . S
C2058 H2038 0.950 . S
C2058 C2057 1.414 . S
C2058 C2059 1.374 . S
C2059 H2039 0.950 . S
C2059 C2055 1.385 . S
C2059 C2058 1.374 . S
C2060 C2057 1.499 . S
C2060 C2061 1.373 . S
C2060 C2062 1.389 . S
C2061 H2040 0.950 . S
C2061 C2060 1.373 . S
C2061 C2077 1.377 . S
C2062 C2060 1.389 . S
C2062 C2063 1.524 . S
C2062 C2076 1.377 . S
C2063 C2062 1.524 . S
C2063 C2064 1.397 . S
C2063 C2068 1.363 . S
C2064 H2041 0.950 . S
C2064 C2063 1.397 . S
C2064 C2065 1.334 . S
C2065 H2042 0.950 . S
C2065 C2064 1.334 . S
C2065 C2066 1.287 . S
C2066 C2065 1.287 . S
C2066 C2067 1.524 . S
C2066 H2085 0.913 . S
C2067 H2043 0.950 . S
C2067 C2066 1.524 . S
C2067 C2068 1.415 . S
C2068 H2044 0.950 . S
C2068 C2063 1.363 . S
C2068 C2067 1.415 . S
C2069 H2045 0.951 1_556 S
C2069 C2070 1.366 . S
C2069 C2071 1.388 . S
C2070 C2069 1.366 . S
C2070 C2074 1.385 . S
C2071 H2046 0.951 . S
C2071 C2069 1.388 . S
C2071 C2072 1.366 . S
C2072 C2071 1.366 . S
C2072 C2073 1.414 . S
C2072 C2075 1.499 . S
C2073 H2047 0.950 . S
C2073 C2072 1.414 . S
C2073 C2074 1.374 . S
C2074 H2048 0.950 . S
C2074 C2070 1.385 . S
C2074 C2073 1.374 . S
C2075 C2072 1.499 . S
C2075 C2076 1.373 . S
C2075 C2077 1.389 . S
C2076 H2049 0.950 . S
C2076 C2062 1.377 . S
C2076 C2075 1.373 . S
C2077 C2061 1.377 . S
C2077 C2075 1.389 . S
C2077 C2078 1.524 . S
C2078 C2077 1.524 . S
C2078 C2079 1.397 . S
C2078 C2083 1.363 . S
C2079 H2050 0.950 . S
C2079 C2078 1.397 . S
C2079 C2080 1.334 . S
C2080 H2051 0.950 . S
C2080 C2079 1.334 . S
C2080 C2081 1.287 . S
C2081 C2080 1.287 . S
C2081 C2082 1.524 . S
C2081 H2084 0.999 . S
C2082 H2052 0.950 . S
C2082 C2081 1.524 . S
C2082 C2083 1.415 . S
C2083 H2053 0.950 . S
C2083 C2078 1.363 . S
C2083 C2082 1.415 . S
H2084 C2081 0.999 . S
H2085 C2066 0.913 . S
H2086 C2104 0.951 . S
H2087 C2106 0.951 . S
H2088 C2108 0.950 . S
H2089 C2109 0.950 . S
H2090 C2111 0.950 . S
H2091 C2114 0.950 . S
H2092 C2115 0.950 . S
H2093 C2117 0.950 . S
H2094 C2118 0.950 . S
H2095 C2119 0.951 . S
H2096 C2121 0.951 . S
H2097 C2123 0.950 . S
H2098 C2124 0.950 1_554 S
H2099 C2126 0.950 . S
H2100 C2129 0.950 . S
H2101 C2130 0.950 . S
H2102 C2132 0.950 . S
H2103 C2133 0.950 . S
C2104 H2086 0.951 . S
C2104 C2105 1.366 . S
C2104 C2106 1.388 . S
C2105 C2104 1.366 . S
C2105 C2109 1.385 . S
C2106 H2087 0.951 . S
C2106 C2104 1.388 . S
C2106 C2107 1.366 . S
C2107 C2106 1.366 . S
C2107 C2108 1.414 . S
C2107 C2110 1.499 . S
C2108 H2088 0.950 . S
C2108 C2107 1.414 . S
C2108 C2109 1.374 . S
C2109 H2089 0.950 . S
C2109 C2105 1.385 . S
C2109 C2108 1.374 . S
C2110 C2107 1.499 . S
C2110 C2111 1.373 . S
C2110 C2112 1.389 . S
C2111 H2090 0.950 . S
C2111 C2110 1.373 . S
C2111 C2127 1.377 . S
C2112 C2110 1.389 . S
C2112 C2113 1.524 . S
C2112 C2126 1.377 . S
C2113 C2112 1.524 . S
C2113 C2114 1.397 . S
C2113 C2118 1.363 . S
C2114 H2091 0.950 . S
C2114 C2113 1.397 . S
C2114 C2115 1.334 . S
C2115 H2092 0.950 . S
C2115 C2114 1.334 . S
C2115 C2116 1.287 . S
C2116 C2115 1.287 . S
C2116 C2117 1.524 . S
C2116 H2135 0.913 . S
C2117 H2093 0.950 . S
C2117 C2116 1.524 . S
C2117 C2118 1.415 . S
C2118 H2094 0.950 . S
C2118 C2113 1.363 . S
C2118 C2117 1.415 . S
C2119 H2095 0.951 . S
C2119 C2120 1.366 . S
C2119 C2121 1.388 . S
C2120 C2119 1.366 . S
C2120 C2124 1.385 . S
C2121 H2096 0.951 . S
C2121 C2119 1.388 . S
C2121 C2122 1.366 . S
C2122 C2121 1.366 . S
C2122 C2123 1.414 . S
C2122 C2125 1.499 . S
C2123 H2097 0.950 . S
C2123 C2122 1.414 . S
C2123 C2124 1.374 . S
C2124 H2098 0.950 1_556 S
C2124 C2120 1.385 . S
C2124 C2123 1.374 . S
C2125 C2122 1.499 . S
C2125 C2126 1.373 . S
C2125 C2127 1.389 . S
C2126 H2099 0.950 . S
C2126 C2112 1.377 . S
C2126 C2125 1.373 . S
C2127 C2111 1.377 . S
C2127 C2125 1.389 . S
C2127 C2128 1.524 . S
C2128 C2127 1.524 . S
C2128 C2129 1.397 . S
C2128 C2133 1.363 . S
C2129 H2100 0.950 . S
C2129 C2128 1.397 . S
C2129 C2130 1.334 . S
C2130 H2101 0.950 . S
C2130 C2129 1.334 . S
C2130 C2131 1.287 . S
C2131 C2130 1.287 . S
C2131 C2132 1.524 . S
C2131 H2134 0.998 . S
C2132 H2102 0.950 . S
C2132 C2131 1.524 . S
C2132 C2133 1.415 . S
C2133 H2103 0.950 . S
C2133 C2128 1.363 . S
C2133 C2132 1.415 . S
H2134 C2131 0.998 . S
H2135 C2116 0.913 . S
H2136 C2154 0.951 . S
H2137 C2156 0.951 . S
H2138 C2158 0.950 . S
H2139 C2159 0.950 . S
H2140 C2161 0.950 . S
H2141 C2164 0.950 . S
H2142 C2165 0.950 . S
H2143 C2167 0.950 . S
H2144 C2168 0.950 . S
H2145 C2169 0.875 1_554 S
H2146 C2171 0.951 . S
H2147 C2173 0.950 . S
H2148 C2174 0.950 . S
H2149 C2176 0.950 . S
H2150 C2179 0.950 . S
H2151 C2180 0.950 . S
H2152 C2182 0.950 . S
H2153 C2183 0.950 . S
C2154 H2136 0.951 . S
C2154 C2155 1.366 . S
C2154 C2156 1.388 . S
C2155 C2154 1.366 . S
C2155 C2159 1.385 . S
C2156 H2137 0.951 . S
C2156 C2154 1.388 . S
C2156 C2157 1.366 . S
C2157 C2156 1.366 . S
C2157 C2158 1.414 . S
C2157 C2160 1.499 . S
C2158 H2138 0.950 . S
C2158 C2157 1.414 . S
C2158 C2159 1.374 . S
C2159 H2139 0.950 . S
C2159 C2155 1.385 . S
C2159 C2158 1.374 . S
C2160 C2157 1.499 . S
C2160 C2161 1.373 . S
C2160 C2162 1.389 . S
C2161 H2140 0.950 . S
C2161 C2160 1.373 . S
C2161 C2177 1.377 . S
C2162 C2160 1.389 . S
C2162 C2163 1.524 . S
C2162 C2176 1.377 . S
C2163 C2162 1.524 . S
C2163 C2164 1.397 . S
C2163 C2168 1.363 . S
C2164 H2141 0.950 . S
C2164 C2163 1.397 . S
C2164 C2165 1.334 . S
C2165 H2142 0.950 . S
C2165 C2164 1.334 . S
C2165 C2166 1.287 . S
C2166 C2165 1.287 . S
C2166 C2167 1.524 . S
C2166 H2185 0.913 . S
C2167 H2143 0.950 . S
C2167 C2166 1.524 . S
C2167 C2168 1.415 . S
C2168 H2144 0.950 . S
C2168 C2163 1.363 . S
C2168 C2167 1.415 . S
C2169 H2145 0.875 1_556 S
C2169 C2170 1.366 . S
C2169 C2171 1.388 . S
C2170 C2169 1.366 . S
C2170 C2174 1.385 . S
C2171 H2146 0.951 . S
C2171 C2169 1.388 . S
C2171 C2172 1.366 . S
C2172 C2171 1.366 . S
C2172 C2173 1.414 . S
C2172 C2175 1.499 . S
C2173 H2147 0.950 . S
C2173 C2172 1.414 . S
C2173 C2174 1.374 . S
C2174 H2148 0.950 . S
C2174 C2170 1.385 . S
C2174 C2173 1.374 . S
C2175 C2172 1.499 . S
C2175 C2176 1.373 . S
C2175 C2177 1.389 . S
C2176 H2149 0.950 . S
C2176 C2162 1.377 . S
C2176 C2175 1.373 . S
C2177 C2161 1.377 . S
C2177 C2175 1.389 . S
C2177 C2178 1.524 . S
C2178 C2177 1.524 . S
C2178 C2179 1.397 . S
C2178 C2183 1.363 . S
C2179 H2150 0.950 . S
C2179 C2178 1.397 . S
C2179 C2180 1.334 . S
C2180 H2151 0.950 . S
C2180 C2179 1.334 . S
C2180 C2181 1.287 . S
C2181 C2180 1.287 . S
C2181 C2182 1.524 . S
C2181 H2184 0.999 . S
C2182 H2152 0.950 . S
C2182 C2181 1.524 . S
C2182 C2183 1.415 . S
C2183 H2153 0.950 . S
C2183 C2178 1.363 . S
C2183 C2182 1.415 . S
H2184 C2181 0.999 . S
H2185 C2166 0.913 . S
H2186 C2204 0.951 . S
H2187 C2206 0.951 . S
H2188 C2208 0.950 . S
H2189 C2209 0.950 . S
H2190 C2211 0.950 . S
H2191 C2214 0.950 . S
H2192 C2215 0.950 . S
H2193 C2217 0.950 . S
H2194 C2218 0.950 . S
H2195 C2219 0.951 . S
H2196 C2221 0.951 . S
H2197 C2223 0.950 . S
H2198 C2224 0.950 . S
H2199 C2226 0.950 . S
H2200 C2229 0.944 1_556 S
H2201 C2230 0.950 . S
H2202 C2232 0.950 . S
H2203 C2233 0.950 . S
C2204 H2186 0.951 . S
C2204 C2205 1.366 . S
C2204 C2206 1.388 . S
C2205 C2204 1.366 . S
C2205 C2209 1.385 . S
C2206 H2187 0.951 . S
C2206 C2204 1.388 . S
C2206 C2207 1.366 . S
C2207 C2206 1.366 . S
C2207 C2208 1.414 . S
C2207 C2210 1.499 . S
C2208 H2188 0.950 . S
C2208 C2207 1.414 . S
C2208 C2209 1.374 . S
C2209 H2189 0.950 . S
C2209 C2205 1.385 . S
C2209 C2208 1.374 . S
C2210 C2207 1.499 . S
C2210 C2211 1.373 . S
C2210 C2212 1.389 . S
C2211 H2190 0.950 . S
C2211 C2210 1.373 . S
C2211 C2227 1.377 . S
C2212 C2210 1.389 . S
C2212 C2213 1.524 . S
C2212 C2226 1.377 . S
C2213 C2212 1.524 . S
C2213 C2214 1.397 . S
C2213 C2218 1.363 . S
C2214 H2191 0.950 . S
C2214 C2213 1.397 . S
C2214 C2215 1.334 . S
C2215 H2192 0.950 . S
C2215 C2214 1.334 . S
C2215 C2216 1.287 . S
C2216 C2215 1.287 . S
C2216 C2217 1.524 . S
C2216 H2235 0.913 . S
C2217 H2193 0.950 . S
C2217 C2216 1.524 . S
C2217 C2218 1.415 . S
C2218 H2194 0.950 . S
C2218 C2213 1.363 . S
C2218 C2217 1.415 . S
C2219 H2195 0.951 . S
C2219 C2220 1.366 . S
C2219 C2221 1.388 . S
C2220 C2219 1.366 . S
C2220 C2224 1.385 . S
C2221 H2196 0.951 . S
C2221 C2219 1.388 . S
C2221 C2222 1.366 . S
C2222 C2221 1.366 . S
C2222 C2223 1.414 . S
C2222 C2225 1.499 . S
C2223 H2197 0.950 . S
C2223 C2222 1.414 . S
C2223 C2224 1.374 . S
C2224 H2198 0.950 . S
C2224 C2220 1.385 . S
C2224 C2223 1.374 . S
C2225 C2222 1.499 . S
C2225 C2226 1.373 . S
C2225 C2227 1.389 . S
C2226 H2199 0.950 . S
C2226 C2212 1.377 . S
C2226 C2225 1.373 . S
C2227 C2211 1.377 . S
C2227 C2225 1.389 . S
C2227 C2228 1.524 . S
C2228 C2227 1.524 . S
C2228 C2229 1.388 1_556 S
C2228 C2233 1.363 . S
C2229 H2200 0.944 1_554 S
C2229 C2228 1.388 1_554 S
C2229 C2230 1.348 . S
C2230 H2201 0.950 . S
C2230 C2229 1.348 . S
C2230 C2231 1.287 . S
C2231 C2230 1.287 . S
C2231 C2232 1.524 . S
C2231 H2234 0.999 . S
C2232 H2202 0.950 . S
C2232 C2231 1.524 . S
C2232 C2233 1.415 1_554 S
C2233 H2203 0.950 . S
C2233 C2228 1.363 . S
C2233 C2232 1.415 1_556 S
H2234 C2231 0.999 . S
H2235 C2216 0.913 . S
H2236 C2254 0.951 . S
H2237 C2256 0.951 . S
H2238 C2258 0.950 . S
H2239 C2259 0.950 . S
H2240 C2261 0.950 . S
H2241 C2264 0.950 . S
H2242 C2265 0.950 . S
H2243 C2267 0.950 . S
H2244 C2268 0.950 . S
H2245 C2269 0.951 1_554 S
H2246 C2271 0.951 . S
H2247 C2273 0.950 . S
H2248 C2274 0.950 . S
H2249 C2276 0.950 . S
H2250 C2279 0.950 . S
H2251 C2280 0.950 . S
H2252 C2282 0.950 . S
H2253 C2283 0.961 . S
C2254 H2236 0.951 . S
C2254 C2255 1.366 . S
C2254 C2256 1.388 . S
C2255 C2254 1.366 . S
C2255 C2259 1.385 . S
C2256 H2237 0.951 . S
C2256 C2254 1.388 . S
C2256 C2257 1.366 . S
C2257 C2256 1.366 . S
C2257 C2258 1.414 . S
C2257 C2260 1.499 . S
C2258 H2238 0.950 . S
C2258 C2257 1.414 . S
C2258 C2259 1.374 . S
C2259 H2239 0.950 . S
C2259 C2255 1.385 . S
C2259 C2258 1.374 . S
C2260 C2257 1.499 . S
C2260 C2261 1.373 . S
C2260 C2262 1.389 . S
C2261 H2240 0.950 . S
C2261 C2260 1.373 . S
C2261 C2277 1.377 . S
C2262 C2260 1.389 . S
C2262 C2263 1.524 . S
C2262 C2276 1.377 . S
C2263 C2262 1.524 . S
C2263 C2264 1.397 . S
C2263 C2268 1.363 . S
C2264 H2241 0.950 . S
C2264 C2263 1.397 . S
C2264 C2265 1.334 . S
C2265 H2242 0.950 . S
C2265 C2264 1.334 . S
C2265 C2266 1.287 . S
C2266 C2265 1.287 . S
C2266 C2267 1.524 . S
C2266 H2285 0.913 . S
C2267 H2243 0.950 . S
C2267 C2266 1.524 . S
C2267 C2268 1.415 . S
C2268 H2244 0.950 . S
C2268 C2263 1.363 . S
C2268 C2267 1.415 . S
C2269 H2245 0.951 1_556 S
C2269 C2270 1.366 . S
C2269 C2271 1.388 . S
C2270 C2269 1.366 . S
C2270 C2274 1.385 . S
C2271 H2246 0.951 . S
C2271 C2269 1.388 . S
C2271 C2272 1.366 . S
C2272 C2271 1.366 . S
C2272 C2273 1.414 . S
C2272 C2275 1.499 . S
C2273 H2247 0.950 . S
C2273 C2272 1.414 . S
C2273 C2274 1.374 . S
C2274 H2248 0.950 . S
C2274 C2270 1.385 . S
C2274 C2273 1.374 . S
C2275 C2272 1.499 . S
C2275 C2276 1.373 . S
C2275 C2277 1.389 . S
C2276 H2249 0.950 . S
C2276 C2262 1.377 . S
C2276 C2275 1.373 . S
C2277 C2261 1.377 . S
C2277 C2275 1.389 . S
C2277 C2278 1.524 . S
C2278 C2277 1.524 . S
C2278 C2279 1.397 . S
C2278 C2283 1.363 . S
C2279 H2250 0.950 . S
C2279 C2278 1.397 . S
C2279 C2280 1.334 . S
C2280 H2251 0.950 . S
C2280 C2279 1.334 . S
C2280 C2281 1.287 1_556 S
C2281 C2280 1.287 1_554 S
C2281 C2282 1.524 . S
C2281 H2284 0.999 . S
C2282 H2252 0.950 . S
C2282 C2281 1.524 . S
C2282 C2283 1.415 1_554 S
C2283 H2253 0.961 . S
C2283 C2278 1.363 . S
C2283 C2282 1.415 1_556 S
H2284 C2281 0.999 . S
H2285 C2266 0.913 . S
H2286 C2304 0.951 . S
H2287 C2306 0.951 . S
H2288 C2308 0.950 . S
H2289 C2309 0.950 . S
H2290 C2311 0.950 . S
H2291 C2314 0.950 . S
H2292 C2315 0.950 . S
H2293 C2317 0.950 . S
H2294 C2318 0.950 . S
H2295 C2319 0.951 . S
H2296 C2321 0.951 . S
H2297 C2323 0.950 . S
H2298 C2324 0.950 . S
H2299 C2326 0.950 . S
H2300 C2329 0.950 . S
H2301 C2330 0.950 . S
H2302 C2332 0.950 . S
H2303 C2333 0.950 . S
C2304 H2286 0.951 . S
C2304 C2305 1.366 . S
C2304 C2306 1.388 . S
C2305 C2304 1.366 . S
C2305 C2309 1.385 . S
C2306 H2287 0.951 . S
C2306 C2304 1.388 . S
C2306 C2307 1.366 . S
C2307 C2306 1.366 . S
C2307 C2308 1.414 . S
C2307 C2310 1.499 . S
C2308 H2288 0.950 . S
C2308 C2307 1.414 . S
C2308 C2309 1.374 . S
C2309 H2289 0.950 . S
C2309 C2305 1.385 . S
C2309 C2308 1.374 . S
C2310 C2307 1.499 . S
C2310 C2311 1.373 . S
C2310 C2312 1.389 . S
C2311 H2290 0.950 . S
C2311 C2310 1.373 . S
C2311 C2327 1.377 . S
C2312 C2310 1.389 . S
C2312 C2313 1.524 . S
C2312 C2326 1.377 . S
C2313 C2312 1.524 . S
C2313 C2314 1.397 . S
C2313 C2318 1.363 . S
C2314 H2291 0.950 . S
C2314 C2313 1.397 . S
C2314 C2315 1.334 . S
C2315 H2292 0.950 . S
C2315 C2314 1.334 . S
C2315 C2316 1.287 . S
C2316 C2315 1.287 . S
C2316 C2317 1.524 . S
C2316 H2335 0.913 . S
C2317 H2293 0.950 . S
C2317 C2316 1.524 . S
C2317 C2318 1.415 . S
C2318 H2294 0.950 . S
C2318 C2313 1.363 . S
C2318 C2317 1.415 . S
C2319 H2295 0.951 . S
C2319 C2320 1.366 . S
C2319 C2321 1.388 . S
C2320 C2319 1.366 . S
C2320 C2324 1.385 . S
C2321 H2296 0.951 . S
C2321 C2319 1.388 . S
C2321 C2322 1.366 . S
C2322 C2321 1.366 . S
C2322 C2323 1.414 . S
C2322 C2325 1.499 . S
C2323 H2297 0.950 . S
C2323 C2322 1.414 . S
C2323 C2324 1.374 . S
C2324 H2298 0.950 . S
C2324 C2320 1.385 . S
C2324 C2323 1.374 . S
C2325 C2322 1.499 . S
C2325 C2326 1.373 . S
C2325 C2327 1.389 . S
C2326 H2299 0.950 . S
C2326 C2312 1.377 . S
C2326 C2325 1.373 . S
C2327 C2311 1.377 . S
C2327 C2325 1.389 . S
C2327 C2328 1.524 . S
C2328 C2327 1.524 . S
C2328 C2329 1.397 . S
C2328 C2333 1.363 . S
C2329 H2300 0.950 . S
C2329 C2328 1.397 . S
C2329 C2330 1.334 . S
C2330 H2301 0.950 . S
C2330 C2329 1.334 . S
C2330 C2331 1.287 . S
C2331 C2330 1.287 . S
C2331 C2332 1.524 . S
C2331 H2334 0.999 . S
C2332 H2302 0.950 . S
C2332 C2331 1.524 . S
C2332 C2333 1.415 . S
C2333 H2303 0.950 . S
C2333 C2328 1.363 . S
C2333 C2332 1.415 . S
H2334 C2331 0.999 . S
H2335 C2316 0.913 . S
H2336 C2354 0.951 . S
H2337 C2356 0.951 . S
H2338 C2358 0.950 . S
H2339 C2359 0.950 . S
H2340 C2361 0.950 . S
H2341 C2364 0.950 . S
H2342 C2365 0.950 . S
H2343 C2367 0.950 . S
H2344 C2368 0.950 . S
H2345 C2369 0.951 . S
H2346 C2371 0.951 . S
H2347 C2373 0.950 . S
H2348 C2374 0.950 . S
H2349 C2376 0.950 . S
H2350 C2379 0.950 . S
H2351 C2380 0.950 . S
H2352 C2382 0.950 . S
H2353 C2383 0.950 . S
C2354 H2336 0.951 . S
C2354 C2355 1.366 . S
C2354 C2356 1.388 . S
C2355 C2354 1.366 . S
C2355 C2359 1.385 . S
C2356 H2337 0.951 . S
C2356 C2354 1.388 . S
C2356 C2357 1.366 . S
C2357 C2356 1.366 . S
C2357 C2358 1.414 . S
C2357 C2360 1.499 . S
C2358 H2338 0.950 . S
C2358 C2357 1.414 . S
C2358 C2359 1.374 . S
C2359 H2339 0.950 . S
C2359 C2355 1.385 . S
C2359 C2358 1.374 . S
C2360 C2357 1.499 . S
C2360 C2361 1.373 . S
C2360 C2362 1.389 . S
C2361 H2340 0.950 . S
C2361 C2360 1.373 . S
C2361 C2377 1.377 . S
C2362 C2360 1.389 . S
C2362 C2363 1.524 . S
C2362 C2376 1.377 . S
C2363 C2362 1.524 . S
C2363 C2364 1.397 . S
C2363 C2368 1.363 . S
C2364 H2341 0.950 . S
C2364 C2363 1.397 . S
C2364 C2365 1.334 . S
C2365 H2342 0.950 . S
C2365 C2364 1.334 . S
C2365 C2366 1.287 . S
C2366 C2365 1.287 . S
C2366 C2367 1.524 . S
C2366 H2385 0.913 . S
C2367 H2343 0.950 . S
C2367 C2366 1.524 . S
C2367 C2368 1.415 . S
C2368 H2344 0.950 . S
C2368 C2363 1.363 . S
C2368 C2367 1.415 . S
C2369 H2345 0.951 . S
C2369 C2370 1.366 . S
C2369 C2371 1.388 . S
C2370 C2369 1.366 . S
C2370 C2374 1.385 . S
C2371 H2346 0.951 . S
C2371 C2369 1.388 . S
C2371 C2372 1.366 . S
C2372 C2371 1.366 . S
C2372 C2373 1.414 . S
C2372 C2375 1.499 . S
C2373 H2347 0.950 . S
C2373 C2372 1.414 . S
C2373 C2374 1.374 . S
C2374 H2348 0.950 . S
C2374 C2370 1.385 . S
C2374 C2373 1.374 . S
C2375 C2372 1.499 . S
C2375 C2376 1.373 . S
C2375 C2377 1.389 . S
C2376 H2349 0.950 . S
C2376 C2362 1.377 . S
C2376 C2375 1.373 . S
C2377 C2361 1.377 . S
C2377 C2375 1.389 . S
C2377 C2378 1.524 . S
C2378 C2377 1.524 . S
C2378 C2379 1.397 . S
C2378 C2383 1.363 . S
C2379 H2350 0.950 . S
C2379 C2378 1.397 . S
C2379 C2380 1.334 1_554 S
C2380 H2351 0.950 . S
C2380 C2379 1.334 1_556 S
C2380 C2381 1.287 . S
C2381 C2380 1.287 . S
C2381 C2382 1.524 . S
C2381 H2384 0.999 . S
C2382 H2352 0.950 . S
C2382 C2381 1.524 . S
C2382 C2383 1.415 1_556 S
C2383 H2353 0.950 . S
C2383 C2378 1.363 . S
C2383 C2382 1.415 1_554 S
H2384 C2381 0.999 . S
H2385 C2366 0.913 . S
H2386 C2404 0.951 . S
H2387 C2406 0.951 . S
H2388 C2408 0.950 . S
H2389 C2409 0.950 . S
H2390 C2411 0.950 . S
H2391 C2414 0.950 . S
H2392 C2415 0.950 . S
H2393 C2417 0.950 . S
H2394 C2418 0.950 . S
H2395 C2419 0.895 1_556 S
H2396 C2421 0.951 . S
H2397 C2423 0.950 . S
H2398 C2424 0.950 . S
H2399 C2426 0.950 . S
H2400 C2429 0.950 . S
H2401 C2430 0.950 . S
H2402 C2432 0.990 . S
H2403 C2433 0.950 . S
C2404 H2386 0.951 . S
C2404 C2405 1.366 . S
C2404 C2406 1.388 . S
C2405 C2404 1.366 . S
C2405 C2409 1.385 . S
C2406 H2387 0.951 . S
C2406 C2404 1.388 . S
C2406 C2407 1.366 . S
C2407 C2406 1.366 . S
C2407 C2408 1.414 . S
C2407 C2410 1.499 . S
C2408 H2388 0.950 . S
C2408 C2407 1.414 . S
C2408 C2409 1.374 . S
C2409 H2389 0.950 . S
C2409 C2405 1.385 . S
C2409 C2408 1.374 . S
C2410 C2407 1.499 . S
C2410 C2411 1.373 . S
C2410 C2412 1.389 . S
C2411 H2390 0.950 . S
C2411 C2410 1.373 . S
C2411 C2427 1.377 . S
C2412 C2410 1.389 . S
C2412 C2413 1.524 . S
C2412 C2426 1.377 . S
C2413 C2412 1.524 . S
C2413 C2414 1.397 . S
C2413 C2418 1.363 . S
C2414 H2391 0.950 . S
C2414 C2413 1.397 . S
C2414 C2415 1.334 . S
C2415 H2392 0.950 . S
C2415 C2414 1.334 . S
C2415 C2416 1.287 . S
C2416 C2415 1.287 . S
C2416 C2417 1.524 . S
C2416 H2435 0.913 . S
C2417 H2393 0.950 . S
C2417 C2416 1.524 . S
C2417 C2418 1.415 . S
C2418 H2394 0.950 . S
C2418 C2413 1.363 . S
C2418 C2417 1.415 . S
C2419 H2395 0.895 1_554 S
C2419 C2420 1.366 . S
C2419 C2421 1.388 . S
C2420 C2419 1.366 . S
C2420 C2424 1.385 . S
C2421 H2396 0.951 . S
C2421 C2419 1.388 . S
C2421 C2422 1.366 . S
C2422 C2421 1.366 . S
C2422 C2423 1.414 . S
C2422 C2425 1.499 . S
C2423 H2397 0.950 . S
C2423 C2422 1.414 . S
C2423 C2424 1.374 . S
C2424 H2398 0.950 . S
C2424 C2420 1.385 . S
C2424 C2423 1.374 . S
C2425 C2422 1.499 . S
C2425 C2426 1.373 . S
C2425 C2427 1.389 . S
C2426 H2399 0.950 . S
C2426 C2412 1.377 . S
C2426 C2425 1.373 . S
C2427 C2411 1.377 . S
C2427 C2425 1.389 . S
C2427 C2428 1.524 . S
C2428 C2427 1.524 . S
C2428 C2429 1.397 . S
C2428 C2433 1.363 . S
C2429 H2400 0.950 . S
C2429 C2428 1.397 . S
C2429 C2430 1.334 . S
C2430 H2401 0.950 . S
C2430 C2429 1.334 . S
C2430 C2431 1.287 . S
C2431 C2430 1.287 . S
C2431 C2432 1.524 . S
C2431 H2434 0.999 . S
C2432 H2402 0.990 . S
C2432 C2431 1.524 . S
C2432 C2433 1.415 . S
C2433 H2403 0.950 . S
C2433 C2428 1.363 . S
C2433 C2432 1.415 . S
H2434 C2431 0.999 . S
H2435 C2416 0.913 . S
H2436 C2454 0.951 . S
H2437 C2456 0.951 . S
H2438 C2458 0.950 . S
H2439 C2459 0.950 . S
H2440 C2461 0.950 . S
H2441 C2464 0.950 . S
H2442 C2465 0.950 . S
H2443 C2467 0.950 . S
H2444 C2468 0.950 . S
H2445 C2469 0.951 . S
H2446 C2471 0.951 . S
H2447 C2473 0.950 . S
H2448 C2474 0.950 . S
H2449 C2476 0.950 . S
H2450 C2479 0.950 . S
H2451 C2480 0.950 . S
H2452 C2482 0.950 . S
H2453 C2483 0.950 . S
C2454 H2436 0.951 . S
C2454 C2455 1.366 . S
C2454 C2456 1.388 1_655 S
C2455 C2454 1.366 . S
C2455 C2459 1.385 . S
C2456 H2437 0.951 . S
C2456 C2454 1.388 1_455 S
C2456 C2457 1.366 . S
C2457 C2456 1.366 . S
C2457 C2458 1.414 1_455 S
C2457 C2460 1.499 . S
C2458 H2438 0.950 . S
C2458 C2457 1.414 1_655 S
C2458 C2459 1.374 . S
C2459 H2439 0.950 . S
C2459 C2455 1.385 . S
C2459 C2458 1.374 . S
C2460 C2457 1.499 . S
C2460 C2461 1.373 . S
C2460 C2462 1.389 . S
C2461 H2440 0.950 . S
C2461 C2460 1.373 . S
C2461 C2477 1.377 . S
C2462 C2460 1.389 . S
C2462 C2463 1.524 . S
C2462 C2476 1.377 . S
C2463 C2462 1.524 . S
C2463 C2464 1.397 . S
C2463 C2468 1.363 . S
C2464 H2441 0.950 . S
C2464 C2463 1.397 . S
C2464 C2465 1.334 . S
C2465 H2442 0.950 . S
C2465 C2464 1.334 . S
C2465 C2466 1.287 . S
C2466 C2465 1.287 . S
C2466 C2467 1.524 . S
C2466 H2485 0.913 . S
C2467 H2443 0.950 . S
C2467 C2466 1.524 . S
C2467 C2468 1.415 . S
C2468 H2444 0.950 . S
C2468 C2463 1.363 . S
C2468 C2467 1.415 . S
C2469 H2445 0.951 . S
C2469 C2470 1.366 . S
C2469 C2471 1.388 . S
C2470 C2469 1.366 . S
C2470 C2474 1.385 . S
C2471 H2446 0.951 . S
C2471 C2469 1.388 . S
C2471 C2472 1.366 . S
C2472 C2471 1.366 . S
C2472 C2473 1.414 . S
C2472 C2475 1.499 . S
C2473 H2447 0.950 . S
C2473 C2472 1.414 . S
C2473 C2474 1.374 . S
C2474 H2448 0.950 . S
C2474 C2470 1.385 . S
C2474 C2473 1.374 . S
C2475 C2472 1.499 . S
C2475 C2476 1.373 . S
C2475 C2477 1.389 . S
C2476 H2449 0.950 . S
C2476 C2462 1.377 . S
C2476 C2475 1.373 . S
C2477 C2461 1.377 . S
C2477 C2475 1.389 . S
C2477 C2478 1.524 . S
C2478 C2477 1.524 . S
C2478 C2479 1.397 . S
C2478 C2483 1.363 . S
C2479 H2450 0.950 . S
C2479 C2478 1.397 . S
C2479 C2480 1.334 . S
C2480 H2451 0.950 . S
C2480 C2479 1.334 . S
C2480 C2481 1.287 . S
C2481 C2480 1.287 . S
C2481 C2482 1.524 . S
C2481 H2484 0.999 . S
C2482 H2452 0.950 . S
C2482 C2481 1.524 . S
C2482 C2483 1.415 . S
C2483 H2453 0.950 . S
C2483 C2478 1.363 . S
C2483 C2482 1.415 . S
H2484 C2481 0.999 . S
H2485 C2466 0.913 . S
H2486 C2504 0.951 . S
H2487 C2506 0.951 . S
H2488 C2508 0.950 . S
H2489 C2509 0.950 . S
H2490 C2511 0.950 . S
H2491 C2514 0.950 . S
H2492 C2515 0.950 . S
H2493 C2517 0.950 . S
H2494 C2518 0.950 . S
H2495 C2519 0.951 . S
H2496 C2521 0.951 . S
H2497 C2523 0.950 . S
H2498 C2524 0.950 . S
H2499 C2526 0.950 . S
H2500 C2529 0.950 . S
H2501 C2530 0.950 . S
H2502 C2532 0.950 . S
H2503 C2533 0.950 . S
C2504 H2486 0.951 . S
C2504 C2505 1.366 . S
C2504 C2506 1.388 . S
C2505 C2504 1.366 . S
C2505 C2509 1.385 . S
C2506 H2487 0.951 . S
C2506 C2504 1.388 . S
C2506 C2507 1.366 . S
C2507 C2506 1.366 . S
C2507 C2508 1.414 . S
C2507 C2510 1.499 . S
C2508 H2488 0.950 . S
C2508 C2507 1.414 . S
C2508 C2509 1.374 . S
C2509 H2489 0.950 . S
C2509 C2505 1.385 . S
C2509 C2508 1.374 . S
C2510 C2507 1.499 . S
C2510 C2511 1.373 . S
C2510 C2512 1.389 . S
C2511 H2490 0.950 . S
C2511 C2510 1.373 . S
C2511 C2527 1.377 . S
C2512 C2510 1.389 . S
C2512 C2513 1.524 . S
C2512 C2526 1.377 . S
C2513 C2512 1.524 . S
C2513 C2514 1.397 . S
C2513 C2518 1.363 . S
C2514 H2491 0.950 . S
C2514 C2513 1.397 . S
C2514 C2515 1.334 . S
C2515 H2492 0.950 . S
C2515 C2514 1.334 . S
C2515 C2516 1.287 . S
C2516 C2515 1.287 . S
C2516 C2517 1.524 . S
C2516 H2535 0.913 . S
C2517 H2493 0.950 . S
C2517 C2516 1.524 . S
C2517 C2518 1.415 . S
C2518 H2494 0.950 . S
C2518 C2513 1.363 . S
C2518 C2517 1.415 . S
C2519 H2495 0.951 . S
C2519 C2520 1.366 . S
C2519 C2521 1.388 . S
C2520 C2519 1.366 . S
C2520 C2524 1.385 . S
C2521 H2496 0.951 . S
C2521 C2519 1.388 . S
C2521 C2522 1.366 . S
C2522 C2521 1.366 . S
C2522 C2523 1.414 . S
C2522 C2525 1.499 . S
C2523 H2497 0.950 . S
C2523 C2522 1.414 . S
C2523 C2524 1.374 . S
C2524 H2498 0.950 . S
C2524 C2520 1.385 . S
C2524 C2523 1.374 . S
C2525 C2522 1.499 . S
C2525 C2526 1.373 . S
C2525 C2527 1.389 . S
C2526 H2499 0.950 . S
C2526 C2512 1.377 . S
C2526 C2525 1.373 . S
C2527 C2511 1.377 . S
C2527 C2525 1.389 . S
C2527 C2528 1.524 . S
C2528 C2527 1.524 . S
C2528 C2529 1.397 . S
C2528 C2533 1.363 . S
C2529 H2500 0.950 . S
C2529 C2528 1.397 . S
C2529 C2530 1.334 . S
C2530 H2501 0.950 . S
C2530 C2529 1.334 . S
C2530 C2531 1.287 . S
C2531 C2530 1.287 . S
C2531 C2532 1.524 . S
C2531 H2534 0.999 . S
C2532 H2502 0.950 . S
C2532 C2531 1.524 . S
C2532 C2533 1.415 . S
C2533 H2503 0.950 . S
C2533 C2528 1.363 . S
C2533 C2532 1.415 . S
H2534 C2531 0.999 . S
H2535 C2516 0.913 . S
H2536 C2554 0.951 . S
H2537 C2556 0.951 . S
H2538 C2558 0.950 . S
H2539 C2559 0.950 . S
H2540 C2561 0.950 . S
H2541 C2564 0.950 . S
H2542 C2565 0.950 . S
H2543 C2567 0.950 . S
H2544 C2568 0.950 . S
H2545 C2569 0.951 . S
H2546 C2571 0.951 . S
H2547 C2573 0.950 . S
H2548 C2574 0.950 . S
H2549 C2576 0.950 . S
H2550 C2579 0.950 . S
H2551 C2580 0.950 . S
H2552 C2582 0.950 . S
H2553 C2583 0.950 . S
C2554 H2536 0.951 . S
C2554 C2555 1.366 . S
C2554 C2556 1.388 . S
C2555 C2554 1.366 . S
C2555 C2559 1.385 . S
C2556 H2537 0.951 . S
C2556 C2554 1.388 . S
C2556 C2557 1.366 . S
C2557 C2556 1.366 . S
C2557 C2558 1.414 . S
C2557 C2560 1.499 1_545 S
C2558 H2538 0.950 . S
C2558 C2557 1.414 . S
C2558 C2559 1.374 . S
C2559 H2539 0.950 . S
C2559 C2555 1.385 . S
C2559 C2558 1.374 . S
C2560 C2557 1.499 1_565 S
C2560 C2561 1.373 . S
C2560 C2562 1.389 . S
C2561 H2540 0.950 . S
C2561 C2560 1.373 . S
C2561 C2577 1.377 . S
C2562 C2560 1.389 . S
C2562 C2563 1.524 . S
C2562 C2576 1.377 . S
C2563 C2562 1.524 . S
C2563 C2564 1.397 . S
C2563 C2568 1.363 . S
C2564 H2541 0.950 . S
C2564 C2563 1.397 . S
C2564 C2565 1.334 . S
C2565 H2542 0.950 . S
C2565 C2564 1.334 . S
C2565 C2566 1.287 . S
C2566 C2565 1.287 . S
C2566 C2567 1.524 . S
C2566 H2585 0.913 . S
C2567 H2543 0.950 . S
C2567 C2566 1.524 . S
C2567 C2568 1.415 . S
C2568 H2544 0.950 . S
C2568 C2563 1.363 . S
C2568 C2567 1.415 . S
C2569 H2545 0.951 . S
C2569 C2570 1.366 . S
C2569 C2571 1.388 . S
C2570 C2569 1.366 . S
C2570 C2574 1.385 . S
C2571 H2546 0.951 . S
C2571 C2569 1.388 . S
C2571 C2572 1.366 . S
C2572 C2571 1.366 . S
C2572 C2573 1.414 . S
C2572 C2575 1.499 . S
C2573 H2547 0.950 . S
C2573 C2572 1.414 . S
C2573 C2574 1.374 . S
C2574 H2548 0.950 . S
C2574 C2570 1.385 . S
C2574 C2573 1.374 . S
C2575 C2572 1.499 . S
C2575 C2576 1.373 . S
C2575 C2577 1.389 . S
C2576 H2549 0.950 . S
C2576 C2562 1.377 . S
C2576 C2575 1.373 . S
C2577 C2561 1.377 . S
C2577 C2575 1.389 . S
C2577 C2578 1.524 . S
C2578 C2577 1.524 . S
C2578 C2579 1.397 . S
C2578 C2583 1.363 . S
C2579 H2550 0.950 . S
C2579 C2578 1.397 . S
C2579 C2580 1.334 . S
C2580 H2551 0.950 . S
C2580 C2579 1.334 . S
C2580 C2581 1.287 . S
C2581 C2580 1.287 . S
C2581 C2582 1.524 . S
C2581 H2584 0.999 . S
C2582 H2552 0.950 . S
C2582 C2581 1.524 . S
C2582 C2583 1.415 . S
C2583 H2553 0.950 . S
C2583 C2578 1.363 . S
C2583 C2582 1.415 . S
H2584 C2581 0.999 . S
H2585 C2566 0.913 . S
H2586 C2604 0.951 . S
H2587 C2606 0.951 . S
H2588 C2608 0.950 . S
H2589 C2609 0.950 . S
H2590 C2611 0.950 . S
H2591 C2614 0.950 . S
H2592 C2615 0.950 . S
H2593 C2617 0.950 . S
H2594 C2618 0.950 . S
H2595 C2619 0.951 . S
H2596 C2621 0.951 . S
H2597 C2623 0.950 . S
H2598 C2624 0.950 . S
H2599 C2626 0.950 . S
H2600 C2629 0.950 . S
H2601 C2630 0.950 . S
H2602 C2632 0.950 . S
H2603 C2633 0.950 . S
C2604 H2586 0.951 . S
C2604 C2605 1.366 . S
C2604 C2606 1.388 . S
C2605 C2604 1.366 . S
C2605 C2609 1.385 . S
C2606 H2587 0.951 . S
C2606 C2604 1.388 . S
C2606 C2607 1.366 . S
C2607 C2606 1.366 . S
C2607 C2608 1.414 . S
C2607 C2610 1.499 . S
C2608 H2588 0.950 . S
C2608 C2607 1.414 . S
C2608 C2609 1.374 . S
C2609 H2589 0.950 . S
C2609 C2605 1.385 . S
C2609 C2608 1.374 . S
C2610 C2607 1.499 . S
C2610 C2611 1.373 . S
C2610 C2612 1.389 . S
C2611 H2590 0.950 . S
C2611 C2610 1.373 . S
C2611 C2627 1.377 . S
C2612 C2610 1.389 . S
C2612 C2613 1.524 . S
C2612 C2626 1.377 . S
C2613 C2612 1.524 . S
C2613 C2614 1.397 . S
C2613 C2618 1.363 . S
C2614 H2591 0.950 . S
C2614 C2613 1.397 . S
C2614 C2615 1.334 . S
C2615 H2592 0.950 . S
C2615 C2614 1.334 . S
C2615 C2616 1.287 . S
C2616 C2615 1.287 . S
C2616 C2617 1.524 . S
C2616 H2635 0.913 . S
C2617 H2593 0.950 . S
C2617 C2616 1.524 . S
C2617 C2618 1.415 . S
C2618 H2594 0.950 . S
C2618 C2613 1.363 . S
C2618 C2617 1.415 . S
C2619 H2595 0.951 . S
C2619 C2620 1.366 . S
C2619 C2621 1.388 . S
C2620 C2619 1.366 . S
C2620 C2624 1.385 . S
C2621 H2596 0.951 . S
C2621 C2619 1.388 . S
C2621 C2622 1.366 . S
C2622 C2621 1.366 . S
C2622 C2623 1.414 . S
C2622 C2625 1.499 . S
C2623 H2597 0.950 . S
C2623 C2622 1.414 . S
C2623 C2624 1.374 . S
C2624 H2598 0.950 . S
C2624 C2620 1.385 . S
C2624 C2623 1.374 . S
C2625 C2622 1.499 . S
C2625 C2626 1.373 . S
C2625 C2627 1.389 . S
C2626 H2599 0.950 . S
C2626 C2612 1.377 . S
C2626 C2625 1.373 . S
C2627 C2611 1.377 . S
C2627 C2625 1.389 . S
C2627 C2628 1.524 . S
C2628 C2627 1.524 . S
C2628 C2629 1.397 . S
C2628 C2633 1.363 . S
C2629 H2600 0.950 . S
C2629 C2628 1.397 . S
C2629 C2630 1.334 . S
C2630 H2601 0.950 . S
C2630 C2629 1.334 . S
C2630 C2631 1.287 . S
C2631 C2630 1.287 . S
C2631 C2632 1.524 . S
C2631 H2634 0.999 . S
C2632 H2602 0.950 . S
C2632 C2631 1.524 . S
C2632 C2633 1.415 . S
C2633 H2603 0.950 . S
C2633 C2628 1.363 . S
C2633 C2632 1.415 . S
H2634 C2631 0.999 . S
H2635 C2616 0.913 . S
H2636 C2654 0.951 . S
H2637 C2656 0.951 . S
H2638 C2658 0.950 . S
H2639 C2659 0.950 . S
H2640 C2661 0.950 . S
H2641 C2664 0.950 . S
H2642 C2665 0.950 . S
H2643 C2667 0.950 . S
H2644 C2668 0.950 . S
H2645 C2669 0.951 . S
H2646 C2671 0.951 . S
H2647 C2673 0.950 . S
H2648 C2674 0.950 . S
H2649 C2676 0.950 . S
H2650 C2679 0.950 . S
H2651 C2680 0.950 . S
H2652 C2682 0.950 . S
H2653 C2683 0.950 . S
C2654 H2636 0.951 . S
C2654 C2655 1.366 . S
C2654 C2656 1.388 . S
C2655 C2654 1.366 . S
C2655 C2659 1.385 . S
C2656 H2637 0.951 . S
C2656 C2654 1.388 . S
C2656 C2657 1.366 . S
C2657 C2656 1.366 . S
C2657 C2658 1.414 . S
C2657 C2660 1.499 . S
C2658 H2638 0.950 . S
C2658 C2657 1.414 . S
C2658 C2659 1.374 . S
C2659 H2639 0.950 . S
C2659 C2655 1.385 . S
C2659 C2658 1.374 . S
C2660 C2657 1.499 . S
C2660 C2661 1.373 . S
C2660 C2662 1.389 . S
C2661 H2640 0.950 . S
C2661 C2660 1.373 . S
C2661 C2677 1.377 . S
C2662 C2660 1.389 . S
C2662 C2663 1.524 . S
C2662 C2676 1.377 . S
C2663 C2662 1.524 . S
C2663 C2664 1.397 . S
C2663 C2668 1.363 . S
C2664 H2641 0.950 . S
C2664 C2663 1.397 . S
C2664 C2665 1.334 . S
C2665 H2642 0.950 . S
C2665 C2664 1.334 . S
C2665 C2666 1.287 . S
C2666 C2665 1.287 . S
C2666 C2667 1.524 . S
C2666 H2685 0.913 . S
C2667 H2643 0.950 . S
C2667 C2666 1.524 . S
C2667 C2668 1.415 . S
C2668 H2644 0.950 . S
C2668 C2663 1.363 . S
C2668 C2667 1.415 . S
C2669 H2645 0.951 . S
C2669 C2670 1.366 . S
C2669 C2671 1.388 . S
C2670 C2669 1.366 . S
C2670 C2674 1.385 . S
C2671 H2646 0.951 . S
C2671 C2669 1.388 . S
C2671 C2672 1.366 . S
C2672 C2671 1.366 . S
C2672 C2673 1.414 . S
C2672 C2675 1.499 . S
C2673 H2647 0.950 . S
C2673 C2672 1.414 . S
C2673 C2674 1.374 . S
C2674 H2648 0.950 . S
C2674 C2670 1.385 . S
C2674 C2673 1.374 . S
C2675 C2672 1.499 . S
C2675 C2676 1.373 . S
C2675 C2677 1.389 . S
C2676 H2649 0.950 . S
C2676 C2662 1.377 . S
C2676 C2675 1.373 . S
C2677 C2661 1.377 . S
C2677 C2675 1.389 . S
C2677 C2678 1.524 . S
C2678 C2677 1.524 . S
C2678 C2679 1.397 . S
C2678 C2683 1.363 . S
C2679 H2650 0.950 . S
C2679 C2678 1.397 . S
C2679 C2680 1.334 . S
C2680 H2651 0.950 . S
C2680 C2679 1.334 . S
C2680 C2681 1.287 . S
C2681 C2680 1.287 . S
C2681 C2682 1.524 . S
C2681 H2684 0.999 . S
C2682 H2652 0.950 . S
C2682 C2681 1.524 . S
C2682 C2683 1.415 . S
C2683 H2653 0.950 . S
C2683 C2678 1.363 . S
C2683 C2682 1.415 . S
H2684 C2681 0.999 . S
H2685 C2666 0.913 . S
H2686 C2704 0.951 . S
H2687 C2706 0.951 . S
H2688 C2708 0.950 . S
H2689 C2709 0.950 . S
H2690 C2711 0.950 . S
H2691 C2714 0.950 . S
H2692 C2715 0.950 . S
H2693 C2717 0.950 . S
H2694 C2718 0.950 . S
H2695 C2719 0.951 . S
H2696 C2721 0.951 . S
H2697 C2723 0.950 . S
H2698 C2724 0.950 . S
H2699 C2726 0.950 . S
H2700 C2729 0.950 . S
H2701 C2730 0.950 . S
H2702 C2732 0.950 . S
H2703 C2733 0.950 . S
C2704 H2686 0.951 . S
C2704 C2705 1.366 . S
C2704 C2706 1.388 . S
C2705 C2704 1.366 . S
C2705 C2709 1.385 . S
C2706 H2687 0.951 . S
C2706 C2704 1.388 . S
C2706 C2707 1.366 . S
C2707 C2706 1.366 . S
C2707 C2708 1.414 . S
C2707 C2710 1.499 . S
C2708 H2688 0.950 . S
C2708 C2707 1.414 . S
C2708 C2709 1.374 . S
C2709 H2689 0.950 . S
C2709 C2705 1.385 . S
C2709 C2708 1.374 . S
C2710 C2707 1.499 . S
C2710 C2711 1.373 . S
C2710 C2712 1.389 . S
C2711 H2690 0.950 . S
C2711 C2710 1.373 . S
C2711 C2727 1.377 . S
C2712 C2710 1.389 . S
C2712 C2713 1.524 . S
C2712 C2726 1.377 . S
C2713 C2712 1.524 . S
C2713 C2714 1.397 . S
C2713 C2718 1.363 . S
C2714 H2691 0.950 . S
C2714 C2713 1.397 . S
C2714 C2715 1.334 . S
C2715 H2692 0.950 . S
C2715 C2714 1.334 . S
C2715 C2716 1.287 . S
C2716 C2715 1.287 . S
C2716 C2717 1.524 . S
C2716 H2735 0.913 . S
C2717 H2693 0.950 . S
C2717 C2716 1.524 . S
C2717 C2718 1.415 . S
C2718 H2694 0.950 . S
C2718 C2713 1.363 . S
C2718 C2717 1.415 . S
C2719 H2695 0.951 . S
C2719 C2720 1.366 . S
C2719 C2721 1.388 . S
C2720 C2719 1.366 . S
C2720 C2724 1.385 . S
C2721 H2696 0.951 . S
C2721 C2719 1.388 . S
C2721 C2722 1.366 . S
C2722 C2721 1.366 . S
C2722 C2723 1.414 . S
C2722 C2725 1.499 . S
C2723 H2697 0.950 . S
C2723 C2722 1.414 . S
C2723 C2724 1.374 . S
C2724 H2698 0.950 . S
C2724 C2720 1.385 . S
C2724 C2723 1.374 . S
C2725 C2722 1.499 . S
C2725 C2726 1.373 . S
C2725 C2727 1.389 . S
C2726 H2699 0.950 . S
C2726 C2712 1.377 . S
C2726 C2725 1.373 . S
C2727 C2711 1.377 . S
C2727 C2725 1.389 . S
C2727 C2728 1.524 . S
C2728 C2727 1.524 . S
C2728 C2729 1.397 . S
C2728 C2733 1.363 . S
C2729 H2700 0.950 . S
C2729 C2728 1.397 . S
C2729 C2730 1.334 . S
C2730 H2701 0.950 . S
C2730 C2729 1.334 . S
C2730 C2731 1.287 . S
C2731 C2730 1.287 . S
C2731 C2732 1.524 . S
C2731 H2734 0.999 . S
C2732 H2702 0.950 . S
C2732 C2731 1.524 . S
C2732 C2733 1.415 . S
C2733 H2703 0.950 . S
C2733 C2728 1.363 . S
C2733 C2732 1.415 . S
H2734 C2731 0.999 . S
H2735 C2716 0.913 . S
H2736 C2754 0.951 . S
H2737 C2756 0.951 . S
H2738 C2758 0.950 . S
H2739 C2759 0.950 . S
H2740 C2761 0.950 . S
H2741 C2764 0.950 . S
H2742 C2765 0.950 . S
H2743 C2767 0.950 . S
H2744 C2768 0.950 . S
H2745 C2769 0.951 . S
H2746 C2771 0.951 . S
H2747 C2773 0.950 . S
H2748 C2774 0.950 . S
H2749 C2776 0.950 . S
H2750 C2779 0.950 . S
H2751 C2780 0.950 . S
H2752 C2782 0.950 . S
H2753 C2783 0.950 . S
C2754 H2736 0.951 . S
C2754 C2755 1.366 . S
C2754 C2756 1.388 . S
C2755 C2754 1.366 . S
C2755 C2759 1.385 . S
C2756 H2737 0.951 . S
C2756 C2754 1.388 . S
C2756 C2757 1.366 . S
C2757 C2756 1.366 . S
C2757 C2758 1.414 . S
C2757 C2760 1.499 . S
C2758 H2738 0.950 . S
C2758 C2757 1.414 . S
C2758 C2759 1.374 . S
C2759 H2739 0.950 . S
C2759 C2755 1.385 . S
C2759 C2758 1.374 . S
C2760 C2757 1.499 . S
C2760 C2761 1.373 . S
C2760 C2762 1.389 . S
C2761 H2740 0.950 . S
C2761 C2760 1.373 . S
C2761 C2777 1.377 . S
C2762 C2760 1.389 . S
C2762 C2763 1.524 . S
C2762 C2776 1.377 . S
C2763 C2762 1.524 . S
C2763 C2764 1.397 . S
C2763 C2768 1.363 . S
C2764 H2741 0.950 . S
C2764 C2763 1.397 . S
C2764 C2765 1.334 . S
C2765 H2742 0.950 . S
C2765 C2764 1.334 . S
C2765 C2766 1.287 . S
C2766 C2765 1.287 . S
C2766 C2767 1.524 . S
C2766 H2785 0.913 . S
C2767 H2743 0.950 . S
C2767 C2766 1.524 . S
C2767 C2768 1.415 . S
C2768 H2744 0.950 . S
C2768 C2763 1.363 . S
C2768 C2767 1.415 . S
C2769 H2745 0.951 . S
C2769 C2770 1.366 . S
C2769 C2771 1.388 . S
C2770 C2769 1.366 . S
C2770 C2774 1.385 . S
C2771 H2746 0.951 . S
C2771 C2769 1.388 . S
C2771 C2772 1.366 . S
C2772 C2771 1.366 . S
C2772 C2773 1.414 . S
C2772 C2775 1.499 . S
C2773 H2747 0.950 . S
C2773 C2772 1.414 . S
C2773 C2774 1.374 . S
C2774 H2748 0.950 . S
C2774 C2770 1.385 . S
C2774 C2773 1.374 . S
C2775 C2772 1.499 . S
C2775 C2776 1.373 . S
C2775 C2777 1.389 . S
C2776 H2749 0.950 . S
C2776 C2762 1.377 . S
C2776 C2775 1.373 . S
C2777 C2761 1.377 . S
C2777 C2775 1.389 . S
C2777 C2778 1.524 . S
C2778 C2777 1.524 . S
C2778 C2779 1.397 . S
C2778 C2783 1.363 . S
C2779 H2750 0.950 . S
C2779 C2778 1.397 . S
C2779 C2780 1.334 . S
C2780 H2751 0.950 . S
C2780 C2779 1.334 . S
C2780 C2781 1.287 . S
C2781 C2780 1.287 . S
C2781 C2782 1.524 . S
C2781 H2784 0.999 . S
C2782 H2752 0.950 . S
C2782 C2781 1.524 . S
C2782 C2783 1.415 . S
C2783 H2753 0.950 . S
C2783 C2778 1.363 . S
C2783 C2782 1.415 . S
H2784 C2781 0.999 . S
H2785 C2766 0.913 . S
H2786 C2804 0.951 . S
H2787 C2806 0.951 . S
H2788 C2808 0.950 . S
H2789 C2809 0.950 . S
H2790 C2811 0.950 . S
H2791 C2814 0.950 . S
H2792 C2815 0.950 . S
H2793 C2817 0.950 . S
H2794 C2818 0.950 . S
H2795 C2819 0.951 . S
H2796 C2821 0.951 . S
H2797 C2823 0.950 . S
H2798 C2824 0.950 . S
H2799 C2826 0.950 . S
H2800 C2829 0.950 . S
H2801 C2830 0.950 . S
H2802 C2832 0.950 . S
H2803 C2833 0.950 . S
C2804 H2786 0.951 . S
C2804 C2805 1.366 . S
C2804 C2806 1.388 . S
C2805 C2804 1.366 . S
C2805 C2809 1.385 . S
C2806 H2787 0.951 . S
C2806 C2804 1.388 . S
C2806 C2807 1.366 . S
C2807 C2806 1.366 . S
C2807 C2808 1.414 . S
C2807 C2810 1.499 . S
C2808 H2788 0.950 . S
C2808 C2807 1.414 . S
C2808 C2809 1.374 . S
C2809 H2789 0.950 . S
C2809 C2805 1.385 . S
C2809 C2808 1.374 . S
C2810 C2807 1.499 . S
C2810 C2811 1.373 . S
C2810 C2812 1.389 . S
C2811 H2790 0.950 . S
C2811 C2810 1.373 . S
C2811 C2827 1.377 . S
C2812 C2810 1.389 . S
C2812 C2813 1.524 . S
C2812 C2826 1.377 . S
C2813 C2812 1.524 . S
C2813 C2814 1.397 . S
C2813 C2818 1.363 . S
C2814 H2791 0.950 . S
C2814 C2813 1.397 . S
C2814 C2815 1.334 . S
C2815 H2792 0.950 . S
C2815 C2814 1.334 . S
C2815 C2816 1.287 . S
C2816 C2815 1.287 . S
C2816 C2817 1.524 . S
C2816 H2835 0.913 . S
C2817 H2793 0.950 . S
C2817 C2816 1.524 . S
C2817 C2818 1.415 . S
C2818 H2794 0.950 . S
C2818 C2813 1.363 . S
C2818 C2817 1.415 . S
C2819 H2795 0.951 . S
C2819 C2820 1.366 . S
C2819 C2821 1.388 . S
C2820 C2819 1.366 . S
C2820 C2824 1.385 . S
C2821 H2796 0.951 . S
C2821 C2819 1.388 . S
C2821 C2822 1.366 . S
C2822 C2821 1.366 . S
C2822 C2823 1.414 . S
C2822 C2825 1.499 . S
C2823 H2797 0.950 . S
C2823 C2822 1.414 . S
C2823 C2824 1.374 . S
C2824 H2798 0.950 . S
C2824 C2820 1.385 . S
C2824 C2823 1.374 . S
C2825 C2822 1.499 . S
C2825 C2826 1.373 . S
C2825 C2827 1.389 . S
C2826 H2799 0.950 . S
C2826 C2812 1.377 . S
C2826 C2825 1.373 . S
C2827 C2811 1.377 . S
C2827 C2825 1.389 . S
C2827 C2828 1.524 . S
C2828 C2827 1.524 . S
C2828 C2829 1.397 . S
C2828 C2833 1.363 . S
C2829 H2800 0.950 . S
C2829 C2828 1.397 . S
C2829 C2830 1.334 . S
C2830 H2801 0.950 . S
C2830 C2829 1.334 . S
C2830 C2831 1.287 . S
C2831 C2830 1.287 . S
C2831 C2832 1.524 . S
C2831 H2834 0.999 . S
C2832 H2802 0.950 . S
C2832 C2831 1.524 . S
C2832 C2833 1.415 . S
C2833 H2803 0.950 . S
C2833 C2828 1.363 . S
C2833 C2832 1.415 . S
H2834 C2831 0.999 . S
H2835 C2816 0.913 . S
H2836 C2854 0.951 . S
H2837 C2856 0.951 . S
H2838 C2858 0.950 . S
H2839 C2859 0.950 . S
H2840 C2861 0.950 . S
H2841 C2864 0.950 . S
H2842 C2865 0.950 . S
H2843 C2867 0.950 . S
H2844 C2868 0.950 . S
H2845 C2869 0.951 . S
H2846 C2871 0.951 . S
H2847 C2873 0.950 . S
H2848 C2874 0.950 . S
H2849 C2876 0.950 . S
H2850 C2879 0.950 . S
H2851 C2880 0.950 . S
H2852 C2882 0.950 . S
H2853 C2883 0.950 . S
C2854 H2836 0.951 . S
C2854 C2855 1.366 . S
C2854 C2856 1.388 . S
C2855 C2854 1.366 . S
C2855 C2859 1.385 . S
C2856 H2837 0.951 . S
C2856 C2854 1.388 . S
C2856 C2857 1.366 . S
C2857 C2856 1.366 . S
C2857 C2858 1.414 . S
C2857 C2860 1.499 . S
C2858 H2838 0.950 . S
C2858 C2857 1.414 . S
C2858 C2859 1.374 . S
C2859 H2839 0.950 . S
C2859 C2855 1.385 . S
C2859 C2858 1.374 . S
C2860 C2857 1.499 . S
C2860 C2861 1.373 . S
C2860 C2862 1.389 . S
C2861 H2840 0.950 . S
C2861 C2860 1.373 . S
C2861 C2877 1.377 . S
C2862 C2860 1.389 . S
C2862 C2863 1.524 . S
C2862 C2876 1.377 . S
C2863 C2862 1.524 . S
C2863 C2864 1.397 . S
C2863 C2868 1.363 . S
C2864 H2841 0.950 . S
C2864 C2863 1.397 . S
C2864 C2865 1.334 . S
C2865 H2842 0.950 . S
C2865 C2864 1.334 . S
C2865 C2866 1.287 . S
C2866 C2865 1.287 . S
C2866 C2867 1.524 . S
C2866 H2885 0.913 . S
C2867 H2843 0.950 . S
C2867 C2866 1.524 . S
C2867 C2868 1.415 . S
C2868 H2844 0.950 . S
C2868 C2863 1.363 . S
C2868 C2867 1.415 . S
C2869 H2845 0.951 . S
C2869 C2870 1.366 . S
C2869 C2871 1.388 . S
C2870 C2869 1.366 . S
C2870 C2874 1.385 . S
C2871 H2846 0.951 . S
C2871 C2869 1.388 . S
C2871 C2872 1.366 . S
C2872 C2871 1.366 . S
C2872 C2873 1.414 . S
C2872 C2875 1.499 . S
C2873 H2847 0.950 . S
C2873 C2872 1.414 . S
C2873 C2874 1.374 . S
C2874 H2848 0.950 . S
C2874 C2870 1.385 . S
C2874 C2873 1.374 . S
C2875 C2872 1.499 . S
C2875 C2876 1.373 . S
C2875 C2877 1.389 . S
C2876 H2849 0.950 . S
C2876 C2862 1.377 . S
C2876 C2875 1.373 . S
C2877 C2861 1.377 . S
C2877 C2875 1.389 . S
C2877 C2878 1.524 . S
C2878 C2877 1.524 . S
C2878 C2879 1.397 . S
C2878 C2883 1.363 . S
C2879 H2850 0.950 . S
C2879 C2878 1.397 . S
C2879 C2880 1.334 . S
C2880 H2851 0.950 . S
C2880 C2879 1.334 . S
C2880 C2881 1.287 . S
C2881 C2880 1.287 . S
C2881 C2882 1.524 . S
C2881 H2884 0.999 . S
C2882 H2852 0.950 . S
C2882 C2881 1.524 . S
C2882 C2883 1.415 . S
C2883 H2853 0.950 . S
C2883 C2878 1.363 . S
C2883 C2882 1.415 . S
H2884 C2881 0.999 . S
H2885 C2866 0.913 . S
H2886 C2904 0.951 . S
H2887 C2906 0.951 1_565 S
H2888 C2908 0.950 . S
H2889 C2909 0.950 . S
H2890 C2911 0.950 . S
H2891 C2914 0.950 . S
H2892 C2915 0.950 . S
H2893 C2917 0.950 . S
H2894 C2918 0.950 . S
H2895 C2919 0.951 . S
H2896 C2921 0.951 . S
H2897 C2923 0.950 . S
H2898 C2924 0.950 . S
H2899 C2926 0.950 . S
H2900 C2929 0.950 . S
H2901 C2930 0.950 . S
H2902 C2932 0.950 . S
H2903 C2933 0.950 . S
C2904 H2886 0.951 . S
C2904 C2905 1.366 . S
C2904 C2906 1.388 . S
C2905 C2904 1.366 . S
C2905 C2909 1.385 . S
C2906 H2887 0.951 1_545 S
C2906 C2904 1.388 . S
C2906 C2907 1.372 . S
C2907 C2906 1.372 . S
C2907 C2908 1.451 . S
C2907 C2910 1.461 1_545 S
C2908 H2888 0.950 . S
C2908 C2907 1.451 . S
C2908 C2909 1.374 . S
C2909 H2889 0.950 . S
C2909 C2905 1.385 . S
C2909 C2908 1.374 . S
C2910 C2907 1.461 1_565 S
C2910 C2911 1.373 . S
C2910 C2912 1.389 . S
C2911 H2890 0.950 . S
C2911 C2910 1.373 . S
C2911 C2927 1.377 . S
C2912 C2910 1.389 . S
C2912 C2913 1.524 . S
C2912 C2926 1.377 . S
C2913 C2912 1.524 . S
C2913 C2914 1.397 . S
C2913 C2918 1.363 . S
C2914 H2891 0.950 . S
C2914 C2913 1.397 . S
C2914 C2915 1.334 . S
C2915 H2892 0.950 . S
C2915 C2914 1.334 . S
C2915 C2916 1.287 . S
C2916 C2915 1.287 . S
C2916 C2917 1.524 . S
C2916 H2935 0.913 . S
C2917 H2893 0.950 . S
C2917 C2916 1.524 . S
C2917 C2918 1.415 . S
C2918 H2894 0.950 . S
C2918 C2913 1.363 . S
C2918 C2917 1.415 . S
C2919 H2895 0.951 . S
C2919 C2920 1.366 . S
C2919 C2921 1.388 . S
C2920 C2919 1.366 . S
C2920 C2924 1.385 . S
C2921 H2896 0.951 . S
C2921 C2919 1.388 . S
C2921 C2922 1.366 . S
C2922 C2921 1.366 . S
C2922 C2923 1.414 . S
C2922 C2925 1.499 . S
C2923 H2897 0.950 . S
C2923 C2922 1.414 . S
C2923 C2924 1.374 . S
C2924 H2898 0.950 . S
C2924 C2920 1.385 . S
C2924 C2923 1.374 . S
C2925 C2922 1.499 . S
C2925 C2926 1.373 . S
C2925 C2927 1.389 . S
C2926 H2899 0.950 . S
C2926 C2912 1.377 . S
C2926 C2925 1.373 . S
C2927 C2911 1.377 . S
C2927 C2925 1.389 . S
C2927 C2928 1.524 . S
C2928 C2927 1.524 . S
C2928 C2929 1.397 . S
C2928 C2933 1.363 . S
C2929 H2900 0.950 . S
C2929 C2928 1.397 . S
C2929 C2930 1.334 . S
C2930 H2901 0.950 . S
C2930 C2929 1.334 . S
C2930 C2931 1.287 . S
C2931 C2930 1.287 . S
C2931 C2932 1.524 . S
C2931 H2934 0.999 . S
C2932 H2902 0.950 . S
C2932 C2931 1.524 . S
C2932 C2933 1.415 . S
C2933 H2903 0.950 . S
C2933 C2928 1.363 . S
C2933 C2932 1.415 . S
H2934 C2931 0.999 . S
H2935 C2916 0.913 . S
H2936 C2954 0.951 . S
H2937 C2956 0.951 . S
H2938 C2958 0.950 . S
H2939 C2959 0.950 . S
H2940 C2961 0.950 . S
H2941 C2964 0.940 1_455 S
H2942 C2965 0.950 . S
H2943 C2967 0.950 . S
H2944 C2968 0.950 . S
H2945 C2969 0.951 . S
H2946 C2971 0.951 . S
H2947 C2973 0.950 . S
H2948 C2974 0.950 . S
H2949 C2976 0.950 . S
H2950 C2979 0.950 . S
H2951 C2980 0.950 . S
H2952 C2982 0.950 . S
H2953 C2983 0.950 . S
C2954 H2936 0.951 . S
C2954 C2955 1.366 . S
C2954 C2956 1.388 . S
C2955 C2954 1.366 . S
C2955 C2959 1.385 . S
C2956 H2937 0.951 . S
C2956 C2954 1.388 . S
C2956 C2957 1.366 1_655 S
C2957 C2956 1.366 1_455 S
C2957 C2958 1.414 . S
C2957 C2960 1.499 . S
C2958 H2938 0.950 . S
C2958 C2957 1.414 . S
C2958 C2959 1.374 1_455 S
C2959 H2939 0.950 . S
C2959 C2955 1.385 . S
C2959 C2958 1.374 1_655 S
C2960 C2957 1.499 . S
C2960 C2961 1.373 . S
C2960 C2962 1.389 . S
C2961 H2940 0.950 . S
C2961 C2960 1.373 . S
C2961 C2977 1.377 . S
C2962 C2960 1.389 . S
C2962 C2963 1.524 . S
C2962 C2976 1.377 . S
C2963 C2962 1.524 . S
C2963 C2964 1.391 1_455 S
C2963 C2968 1.363 . S
C2964 H2941 0.940 1_655 S
C2964 C2963 1.391 1_655 S
C2964 C2965 1.351 . S
C2965 H2942 0.950 . S
C2965 C2964 1.351 . S
C2965 C2966 1.287 . S
C2966 C2965 1.287 . S
C2966 C2967 1.524 . S
C2966 H2985 0.913 . S
C2967 H2943 0.950 . S
C2967 C2966 1.524 . S
C2967 C2968 1.415 1_655 S
C2968 H2944 0.950 . S
C2968 C2963 1.363 . S
C2968 C2967 1.415 1_455 S
C2969 H2945 0.951 . S
C2969 C2970 1.366 . S
C2969 C2971 1.388 . S
C2970 C2969 1.366 . S
C2970 C2974 1.385 . S
C2971 H2946 0.951 . S
C2971 C2969 1.388 . S
C2971 C2972 1.366 . S
C2972 C2971 1.366 . S
C2972 C2973 1.414 . S
C2972 C2975 1.499 . S
C2973 H2947 0.950 . S
C2973 C2972 1.414 . S
C2973 C2974 1.374 . S
C2974 H2948 0.950 . S
C2974 C2970 1.385 . S
C2974 C2973 1.374 . S
C2975 C2972 1.499 . S
C2975 C2976 1.373 . S
C2975 C2977 1.389 . S
C2976 H2949 0.950 . S
C2976 C2962 1.377 . S
C2976 C2975 1.373 . S
C2977 C2961 1.377 . S
C2977 C2975 1.389 . S
C2977 C2978 1.524 . S
C2978 C2977 1.524 . S
C2978 C2979 1.397 . S
C2978 C2983 1.363 . S
C2979 H2950 0.950 . S
C2979 C2978 1.397 . S
C2979 C2980 1.334 . S
C2980 H2951 0.950 . S
C2980 C2979 1.334 . S
C2980 C2981 1.287 . S
C2981 C2980 1.287 . S
C2981 C2982 1.524 . S
C2981 H2984 0.999 . S
C2982 H2952 0.950 . S
C2982 C2981 1.524 . S
C2982 C2983 1.415 . S
C2983 H2953 0.950 . S
C2983 C2978 1.363 . S
C2983 C2982 1.415 . S
H2984 C2981 0.999 . S
H2985 C2966 0.913 . S
H2986 C3004 0.951 . S
H2987 C3006 0.951 . S
H2988 C3008 0.950 . S
H2989 C3009 0.950 . S
H2990 C3011 0.950 . S
H2991 C3014 0.950 . S
H2992 C3015 0.950 . S
H2993 C3017 0.950 . S
H2994 C3018 0.950 . S
H2995 C3019 0.951 . S
H2996 C3021 0.951 . S
H2997 C3023 0.950 . S
H2998 C3024 0.950 . S
H2999 C3026 0.950 . S
H3000 C3029 0.950 . S
H3001 C3030 0.950 . S
H3002 C3032 0.950 . S
H3003 C3033 0.950 . S
C3004 H2986 0.951 . S
C3004 C3005 1.366 . S
C3004 C3006 1.388 . S
C3005 C3004 1.366 . S
C3005 C3009 1.385 . S
C3006 H2987 0.951 . S
C3006 C3004 1.388 . S
C3006 C3007 1.366 . S
C3007 C3006 1.366 . S
C3007 C3008 1.414 . S
C3007 C3010 1.499 . S
C3008 H2988 0.950 . S
C3008 C3007 1.414 . S
C3008 C3009 1.374 . S
C3009 H2989 0.950 . S
C3009 C3005 1.385 . S
C3009 C3008 1.374 . S
C3010 C3007 1.499 . S
C3010 C3011 1.373 . S
C3010 C3012 1.389 . S
C3011 H2990 0.950 . S
C3011 C3010 1.373 . S
C3011 C3027 1.377 . S
C3012 C3010 1.389 . S
C3012 C3013 1.524 . S
C3012 C3026 1.377 . S
C3013 C3012 1.524 . S
C3013 C3014 1.397 . S
C3013 C3018 1.363 . S
C3014 H2991 0.950 . S
C3014 C3013 1.397 . S
C3014 C3015 1.334 . S
C3015 H2992 0.950 . S
C3015 C3014 1.334 . S
C3015 C3016 1.287 . S
C3016 C3015 1.287 . S
C3016 C3017 1.524 . S
C3016 H3035 0.913 . S
C3017 H2993 0.950 . S
C3017 C3016 1.524 . S
C3017 C3018 1.415 . S
C3018 H2994 0.950 . S
C3018 C3013 1.363 . S
C3018 C3017 1.415 . S
C3019 H2995 0.951 . S
C3019 C3020 1.366 . S
C3019 C3021 1.388 . S
C3020 C3019 1.366 . S
C3020 C3024 1.385 . S
C3021 H2996 0.951 . S
C3021 C3019 1.388 . S
C3021 C3022 1.366 . S
C3022 C3021 1.366 . S
C3022 C3023 1.414 . S
C3022 C3025 1.499 . S
C3023 H2997 0.950 . S
C3023 C3022 1.414 . S
C3023 C3024 1.374 . S
C3024 H2998 0.950 . S
C3024 C3020 1.385 . S
C3024 C3023 1.374 . S
C3025 C3022 1.499 . S
C3025 C3026 1.373 . S
C3025 C3027 1.389 . S
C3026 H2999 0.950 . S
C3026 C3012 1.377 . S
C3026 C3025 1.373 . S
C3027 C3011 1.377 . S
C3027 C3025 1.389 . S
C3027 C3028 1.524 . S
C3028 C3027 1.524 . S
C3028 C3029 1.397 . S
C3028 C3033 1.363 . S
C3029 H3000 0.950 . S
C3029 C3028 1.397 . S
C3029 C3030 1.334 . S
C3030 H3001 0.950 . S
C3030 C3029 1.334 . S
C3030 C3031 1.287 . S
C3031 C3030 1.287 . S
C3031 C3032 1.524 . S
C3031 H3034 0.999 . S
C3032 H3002 0.950 . S
C3032 C3031 1.524 . S
C3032 C3033 1.415 . S
C3033 H3003 0.950 . S
C3033 C3028 1.363 . S
C3033 C3032 1.415 . S
H3034 C3031 0.999 . S
H3035 C3016 0.913 . S
H3036 C3054 0.951 . S
H3037 C3056 0.951 . S
H3038 C3058 0.950 . S
H3039 C3059 0.950 . S
H3040 C3061 0.950 . S
H3041 C3064 0.950 . S
H3042 C3065 0.950 . S
H3043 C3067 0.950 . S
H3044 C3068 0.950 . S
H3045 C3069 0.951 . S
H3046 C3071 0.951 . S
H3047 C3073 0.950 . S
H3048 C3074 0.950 . S
H3049 C3076 0.950 . S
H3050 C3079 0.950 . S
H3051 C3080 0.950 . S
H3052 C3082 0.950 . S
H3053 C3083 0.950 . S
C3054 H3036 0.951 . S
C3054 C3055 1.366 . S
C3054 C3056 1.388 . S
C3055 C3054 1.366 . S
C3055 C3059 1.385 . S
C3056 H3037 0.951 . S
C3056 C3054 1.388 . S
C3056 C3057 1.366 . S
C3057 C3056 1.366 . S
C3057 C3058 1.414 . S
C3057 C3060 1.499 . S
C3058 H3038 0.950 . S
C3058 C3057 1.414 . S
C3058 C3059 1.374 . S
C3059 H3039 0.950 . S
C3059 C3055 1.385 . S
C3059 C3058 1.374 . S
C3060 C3057 1.499 . S
C3060 C3061 1.373 . S
C3060 C3062 1.389 . S
C3061 H3040 0.950 . S
C3061 C3060 1.373 . S
C3061 C3077 1.377 . S
C3062 C3060 1.389 . S
C3062 C3063 1.524 . S
C3062 C3076 1.377 . S
C3063 C3062 1.524 . S
C3063 C3064 1.397 . S
C3063 C3068 1.363 . S
C3064 H3041 0.950 . S
C3064 C3063 1.397 . S
C3064 C3065 1.334 . S
C3065 H3042 0.950 . S
C3065 C3064 1.334 . S
C3065 C3066 1.287 . S
C3066 C3065 1.287 . S
C3066 C3067 1.524 . S
C3066 H3085 0.913 . S
C3067 H3043 0.950 . S
C3067 C3066 1.524 . S
C3067 C3068 1.415 . S
C3068 H3044 0.950 . S
C3068 C3063 1.363 . S
C3068 C3067 1.415 . S
C3069 H3045 0.951 . S
C3069 C3070 1.366 . S
C3069 C3071 1.388 . S
C3070 C3069 1.366 . S
C3070 C3074 1.385 . S
C3071 H3046 0.951 . S
C3071 C3069 1.388 . S
C3071 C3072 1.366 . S
C3072 C3071 1.366 . S
C3072 C3073 1.414 . S
C3072 C3075 1.499 . S
C3073 H3047 0.950 . S
C3073 C3072 1.414 . S
C3073 C3074 1.374 . S
C3074 H3048 0.950 . S
C3074 C3070 1.385 . S
C3074 C3073 1.374 . S
C3075 C3072 1.499 . S
C3075 C3076 1.373 . S
C3075 C3077 1.389 . S
C3076 H3049 0.950 . S
C3076 C3062 1.377 . S
C3076 C3075 1.373 . S
C3077 C3061 1.377 . S
C3077 C3075 1.389 . S
C3077 C3078 1.524 . S
C3078 C3077 1.524 . S
C3078 C3079 1.397 . S
C3078 C3083 1.363 . S
C3079 H3050 0.950 . S
C3079 C3078 1.397 . S
C3079 C3080 1.334 . S
C3080 H3051 0.950 . S
C3080 C3079 1.334 . S
C3080 C3081 1.287 . S
C3081 C3080 1.287 . S
C3081 C3082 1.524 . S
C3081 H3084 0.999 . S
C3082 H3052 0.950 . S
C3082 C3081 1.524 . S
C3082 C3083 1.415 . S
C3083 H3053 0.950 . S
C3083 C3078 1.363 . S
C3083 C3082 1.415 . S
H3084 C3081 0.999 . S
H3085 C3066 0.913 . S
H3086 C3104 0.951 . S
H3087 C3106 0.951 . S
H3088 C3108 0.950 . S
H3089 C3109 0.950 . S
H3090 C3111 0.950 . S
H3091 C3114 0.950 . S
H3092 C3115 0.950 . S
H3093 C3117 0.950 . S
H3094 C3118 0.950 . S
H3095 C3119 0.951 . S
H3096 C3121 0.951 . S
H3097 C3123 0.950 . S
H3098 C3124 0.950 . S
H3099 C3126 0.950 . S
H3100 C3129 0.950 . S
H3101 C3130 0.950 . S
H3102 C3132 0.950 . S
H3103 C3133 0.950 . S
C3104 H3086 0.951 . S
C3104 C3105 1.366 . S
C3104 C3106 1.388 . S
C3105 C3104 1.366 . S
C3105 C3109 1.385 . S
C3106 H3087 0.951 . S
C3106 C3104 1.388 . S
C3106 C3107 1.366 . S
C3107 C3106 1.366 . S
C3107 C3108 1.414 . S
C3107 C3110 1.499 . S
C3108 H3088 0.950 . S
C3108 C3107 1.414 . S
C3108 C3109 1.374 . S
C3109 H3089 0.950 . S
C3109 C3105 1.385 . S
C3109 C3108 1.374 . S
C3110 C3107 1.499 . S
C3110 C3111 1.373 . S
C3110 C3112 1.389 . S
C3111 H3090 0.950 . S
C3111 C3110 1.373 . S
C3111 C3127 1.377 . S
C3112 C3110 1.389 . S
C3112 C3113 1.524 . S
C3112 C3126 1.377 . S
C3113 C3112 1.524 . S
C3113 C3114 1.397 . S
C3113 C3118 1.363 . S
C3114 H3091 0.950 . S
C3114 C3113 1.397 . S
C3114 C3115 1.334 . S
C3115 H3092 0.950 . S
C3115 C3114 1.334 . S
C3115 C3116 1.287 . S
C3116 C3115 1.287 . S
C3116 C3117 1.524 . S
C3116 H3135 0.913 . S
C3117 H3093 0.950 . S
C3117 C3116 1.524 . S
C3117 C3118 1.415 . S
C3118 H3094 0.950 . S
C3118 C3113 1.363 . S
C3118 C3117 1.415 . S
C3119 H3095 0.951 . S
C3119 C3120 1.366 . S
C3119 C3121 1.388 . S
C3120 C3119 1.366 . S
C3120 C3124 1.385 . S
C3121 H3096 0.951 . S
C3121 C3119 1.388 . S
C3121 C3122 1.366 . S
C3122 C3121 1.366 . S
C3122 C3123 1.414 . S
C3122 C3125 1.499 . S
C3123 H3097 0.950 . S
C3123 C3122 1.414 . S
C3123 C3124 1.374 . S
C3124 H3098 0.950 . S
C3124 C3120 1.385 . S
C3124 C3123 1.374 . S
C3125 C3122 1.499 . S
C3125 C3126 1.373 . S
C3125 C3127 1.389 . S
C3126 H3099 0.950 . S
C3126 C3112 1.377 . S
C3126 C3125 1.373 . S
C3127 C3111 1.377 . S
C3127 C3125 1.389 . S
C3127 C3128 1.524 . S
C3128 C3127 1.524 . S
C3128 C3129 1.397 . S
C3128 C3133 1.363 . S
C3129 H3100 0.950 . S
C3129 C3128 1.397 . S
C3129 C3130 1.334 . S
C3130 H3101 0.950 . S
C3130 C3129 1.334 . S
C3130 C3131 1.287 . S
C3131 C3130 1.287 . S
C3131 C3132 1.524 . S
C3131 H3134 0.999 . S
C3132 H3102 0.950 . S
C3132 C3131 1.524 . S
C3132 C3133 1.415 . S
C3133 H3103 0.950 . S
C3133 C3128 1.363 . S
C3133 C3132 1.415 . S
H3134 C3131 0.999 . S
H3135 C3116 0.913 . S
H3136 C3154 0.951 . S
H3137 C3156 0.951 . S
H3138 C3158 0.950 . S
H3139 C3159 0.950 . S
H3140 C3161 0.950 . S
H3141 C3164 0.950 . S
H3142 C3165 0.950 . S
H3143 C3167 0.950 . S
H3144 C3168 0.950 . S
H3145 C3169 0.951 . S
H3146 C3171 0.951 . S
H3147 C3173 0.950 . S
H3148 C3174 0.950 . S
H3149 C3176 0.950 . S
H3150 C3179 0.950 . S
H3151 C3180 0.950 . S
H3152 C3182 0.950 . S
H3153 C3183 0.950 . S
C3154 H3136 0.951 . S
C3154 C3155 1.366 . S
C3154 C3156 1.388 . S
C3155 C3154 1.366 . S
C3155 C3159 1.385 . S
C3156 H3137 0.951 . S
C3156 C3154 1.388 . S
C3156 C3157 1.366 . S
C3157 C3156 1.366 . S
C3157 C3158 1.414 . S
C3157 C3160 1.499 . S
C3158 H3138 0.950 . S
C3158 C3157 1.414 . S
C3158 C3159 1.374 . S
C3159 H3139 0.950 . S
C3159 C3155 1.385 . S
C3159 C3158 1.374 . S
C3160 C3157 1.499 . S
C3160 C3161 1.373 . S
C3160 C3162 1.389 . S
C3161 H3140 0.950 . S
C3161 C3160 1.373 . S
C3161 C3177 1.377 . S
C3162 C3160 1.389 . S
C3162 C3163 1.524 . S
C3162 C3176 1.377 . S
C3163 C3162 1.524 . S
C3163 C3164 1.397 . S
C3163 C3168 1.363 . S
C3164 H3141 0.950 . S
C3164 C3163 1.397 . S
C3164 C3165 1.334 . S
C3165 H3142 0.950 . S
C3165 C3164 1.334 . S
C3165 C3166 1.287 . S
C3166 C3165 1.287 . S
C3166 C3167 1.524 . S
C3166 H3185 0.913 . S
C3167 H3143 0.950 . S
C3167 C3166 1.524 . S
C3167 C3168 1.415 . S
C3168 H3144 0.950 . S
C3168 C3163 1.363 . S
C3168 C3167 1.415 . S
C3169 H3145 0.951 . S
C3169 C3170 1.366 . S
C3169 C3171 1.388 . S
C3170 C3169 1.366 . S
C3170 C3174 1.385 . S
C3171 H3146 0.951 . S
C3171 C3169 1.388 . S
C3171 C3172 1.366 . S
C3172 C3171 1.366 . S
C3172 C3173 1.414 . S
C3172 C3175 1.499 . S
C3173 H3147 0.950 . S
C3173 C3172 1.414 . S
C3173 C3174 1.374 . S
C3174 H3148 0.950 . S
C3174 C3170 1.385 . S
C3174 C3173 1.374 . S
C3175 C3172 1.499 . S
C3175 C3176 1.373 . S
C3175 C3177 1.389 . S
C3176 H3149 0.950 . S
C3176 C3162 1.377 . S
C3176 C3175 1.373 . S
C3177 C3161 1.377 . S
C3177 C3175 1.389 . S
C3177 C3178 1.524 . S
C3178 C3177 1.524 . S
C3178 C3179 1.397 . S
C3178 C3183 1.363 . S
C3179 H3150 0.950 . S
C3179 C3178 1.397 . S
C3179 C3180 1.334 . S
C3180 H3151 0.950 . S
C3180 C3179 1.334 . S
C3180 C3181 1.287 . S
C3181 C3180 1.287 . S
C3181 C3182 1.524 . S
C3181 H3184 0.999 . S
C3182 H3152 0.950 . S
C3182 C3181 1.524 . S
C3182 C3183 1.415 . S
C3183 H3153 0.950 . S
C3183 C3178 1.363 . S
C3183 C3182 1.415 . S
H3184 C3181 0.999 . S
H3185 C3166 0.913 . S
H3186 C3204 0.951 . S
H3187 C3206 0.890 1_545 S
H3188 C3208 0.950 . S
H3189 C3209 0.950 . S
H3190 C3211 0.950 . S
H3191 C3214 0.950 . S
H3192 C3215 0.950 . S
H3193 C3217 0.950 . S
H3194 C3218 0.950 . S
H3195 C3219 0.951 . S
H3196 C3221 0.951 . S
H3197 C3223 0.950 . S
H3198 C3224 0.950 . S
H3199 C3226 0.950 . S
H3200 C3229 0.950 . S
H3201 C3230 0.950 . S
H3202 C3232 0.950 . S
H3203 C3233 0.950 . S
C3204 H3186 0.951 . S
C3204 C3205 1.366 . S
C3204 C3206 1.431 . S
C3205 C3204 1.366 . S
C3205 C3209 1.385 . S
C3206 H3187 0.890 1_565 S
C3206 C3204 1.431 . S
C3206 C3207 1.384 1_565 S
C3207 C3206 1.384 1_545 S
C3207 C3208 1.414 1_545 S
C3207 C3210 1.499 . S
C3208 H3188 0.950 . S
C3208 C3207 1.414 1_565 S
C3208 C3209 1.374 . S
C3209 H3189 0.950 . S
C3209 C3205 1.385 . S
C3209 C3208 1.374 . S
C3210 C3207 1.499 . S
C3210 C3211 1.373 . S
C3210 C3212 1.389 . S
C3211 H3190 0.950 . S
C3211 C3210 1.373 . S
C3211 C3227 1.377 . S
C3212 C3210 1.389 . S
C3212 C3213 1.524 . S
C3212 C3226 1.377 . S
C3213 C3212 1.524 . S
C3213 C3214 1.397 . S
C3213 C3218 1.363 . S
C3214 H3191 0.950 . S
C3214 C3213 1.397 . S
C3214 C3215 1.334 . S
C3215 H3192 0.950 . S
C3215 C3214 1.334 . S
C3215 C3216 1.287 . S
C3216 C3215 1.287 . S
C3216 C3217 1.524 . S
C3216 H3235 0.913 . S
C3217 H3193 0.950 . S
C3217 C3216 1.524 . S
C3217 C3218 1.415 . S
C3218 H3194 0.950 . S
C3218 C3213 1.363 . S
C3218 C3217 1.415 . S
C3219 H3195 0.951 . S
C3219 C3220 1.366 . S
C3219 C3221 1.388 . S
C3220 C3219 1.366 . S
C3220 C3224 1.385 . S
C3221 H3196 0.951 . S
C3221 C3219 1.388 . S
C3221 C3222 1.366 . S
C3222 C3221 1.366 . S
C3222 C3223 1.414 . S
C3222 C3225 1.499 . S
C3223 H3197 0.950 . S
C3223 C3222 1.414 . S
C3223 C3224 1.374 . S
C3224 H3198 0.950 . S
C3224 C3220 1.385 . S
C3224 C3223 1.374 . S
C3225 C3222 1.499 . S
C3225 C3226 1.373 . S
C3225 C3227 1.389 . S
C3226 H3199 0.950 . S
C3226 C3212 1.377 . S
C3226 C3225 1.373 . S
C3227 C3211 1.377 . S
C3227 C3225 1.389 . S
C3227 C3228 1.524 . S
C3228 C3227 1.524 . S
C3228 C3229 1.397 . S
C3228 C3233 1.363 . S
C3229 H3200 0.950 . S
C3229 C3228 1.397 . S
C3229 C3230 1.334 . S
C3230 H3201 0.950 . S
C3230 C3229 1.334 . S
C3230 C3231 1.287 . S
C3231 C3230 1.287 . S
C3231 C3232 1.524 . S
C3231 H3234 0.999 . S
C3232 H3202 0.950 . S
C3232 C3231 1.524 . S
C3232 C3233 1.415 . S
C3233 H3203 0.950 . S
C3233 C3228 1.363 . S
C3233 C3232 1.415 . S
H3234 C3231 0.999 . S
H3235 C3216 0.913 . S
H3236 C3254 0.951 . S
H3237 C3256 0.951 . S
H3238 C3258 0.950 . S
H3239 C3259 0.950 . S
H3240 C3261 0.950 . S
H3241 C3264 0.950 1_455 S
H3242 C3265 0.950 . S
H3243 C3267 0.950 . S
H3244 C3268 0.950 . S
H3245 C3269 0.951 . S
H3246 C3271 0.951 . S
H3247 C3273 0.950 . S
H3248 C3274 0.950 . S
H3249 C3276 0.950 . S
H3250 C3279 0.950 . S
H3251 C3280 0.950 . S
H3252 C3282 0.950 . S
H3253 C3283 0.950 . S
C3254 H3236 0.951 . S
C3254 C3255 1.366 . S
C3254 C3256 1.388 1_455 S
C3255 C3254 1.366 . S
C3255 C3259 1.385 . S
C3256 H3237 0.951 . S
C3256 C3254 1.388 1_655 S
C3256 C3257 1.366 . S
C3257 C3256 1.366 . S
C3257 C3258 1.414 1_655 S
C3257 C3260 1.499 . S
C3258 H3238 0.950 . S
C3258 C3257 1.414 1_455 S
C3258 C3259 1.374 . S
C3259 H3239 0.950 . S
C3259 C3255 1.385 . S
C3259 C3258 1.374 . S
C3260 C3257 1.499 . S
C3260 C3261 1.373 . S
C3260 C3262 1.389 . S
C3261 H3240 0.950 . S
C3261 C3260 1.373 . S
C3261 C3277 1.377 . S
C3262 C3260 1.389 . S
C3262 C3263 1.524 . S
C3262 C3276 1.377 . S
C3263 C3262 1.524 . S
C3263 C3264 1.397 . S
C3263 C3268 1.363 . S
C3264 H3241 0.950 1_655 S
C3264 C3263 1.397 . S
C3264 C3265 1.334 1_655 S
C3265 H3242 0.950 . S
C3265 C3264 1.334 1_455 S
C3265 C3266 1.287 1_455 S
C3266 C3265 1.287 1_655 S
C3266 C3267 1.524 . S
C3266 H3285 0.913 1_655 S
C3267 H3243 0.950 . S
C3267 C3266 1.524 . S
C3267 C3268 1.415 . S
C3268 H3244 0.950 . S
C3268 C3263 1.363 . S
C3268 C3267 1.415 . S
C3269 H3245 0.951 . S
C3269 C3270 1.366 . S
C3269 C3271 1.388 . S
C3270 C3269 1.366 . S
C3270 C3274 1.385 . S
C3271 H3246 0.951 . S
C3271 C3269 1.388 . S
C3271 C3272 1.366 . S
C3272 C3271 1.366 . S
C3272 C3273 1.414 . S
C3272 C3275 1.499 . S
C3273 H3247 0.950 . S
C3273 C3272 1.414 . S
C3273 C3274 1.374 . S
C3274 H3248 0.950 . S
C3274 C3270 1.385 . S
C3274 C3273 1.374 . S
C3275 C3272 1.499 . S
C3275 C3276 1.373 . S
C3275 C3277 1.389 . S
C3276 H3249 0.950 . S
C3276 C3262 1.377 . S
C3276 C3275 1.373 . S
C3277 C3261 1.377 . S
C3277 C3275 1.389 . S
C3277 C3278 1.524 . S
C3278 C3277 1.524 . S
C3278 C3279 1.397 . S
C3278 C3283 1.363 . S
C3279 H3250 0.950 . S
C3279 C3278 1.397 . S
C3279 C3280 1.334 . S
C3280 H3251 0.950 . S
C3280 C3279 1.334 . S
C3280 C3281 1.287 . S
C3281 C3280 1.287 . S
C3281 C3282 1.524 . S
C3281 H3284 0.999 . S
C3282 H3252 0.950 . S
C3282 C3281 1.524 . S
C3282 C3283 1.415 . S
C3283 H3253 0.950 . S
C3283 C3278 1.363 . S
C3283 C3282 1.415 . S
H3284 C3281 0.999 . S
H3285 C3266 0.913 1_455 S
H3286 C3304 0.951 . S
H3287 C3306 0.951 . S
H3288 C3308 0.950 . S
H3289 C3309 0.950 . S
H3290 C3311 0.950 . S
H3291 C3314 0.950 . S
H3292 C3315 0.950 . S
H3293 C3317 0.950 . S
H3294 C3318 0.950 . S
H3295 C3319 0.951 . S
H3296 C3321 0.951 . S
H3297 C3323 0.950 . S
H3298 C3324 0.950 . S
H3299 C3326 0.950 . S
H3300 C3329 0.950 . S
H3301 C3330 0.950 . S
H3302 C3332 0.950 . S
H3303 C3333 0.950 . S
C3304 H3286 0.951 . S
C3304 C3305 1.366 . S
C3304 C3306 1.388 . S
C3305 C3304 1.366 . S
C3305 C3309 1.385 . S
C3306 H3287 0.951 . S
C3306 C3304 1.388 . S
C3306 C3307 1.366 . S
C3307 C3306 1.366 . S
C3307 C3308 1.414 . S
C3307 C3310 1.499 . S
C3308 H3288 0.950 . S
C3308 C3307 1.414 . S
C3308 C3309 1.374 . S
C3309 H3289 0.950 . S
C3309 C3305 1.385 . S
C3309 C3308 1.374 . S
C3310 C3307 1.499 . S
C3310 C3311 1.373 . S
C3310 C3312 1.389 . S
C3311 H3290 0.950 . S
C3311 C3310 1.373 . S
C3311 C3327 1.377 . S
C3312 C3310 1.389 . S
C3312 C3313 1.524 . S
C3312 C3326 1.377 . S
C3313 C3312 1.524 . S
C3313 C3314 1.397 . S
C3313 C3318 1.363 . S
C3314 H3291 0.950 . S
C3314 C3313 1.397 . S
C3314 C3315 1.334 . S
C3315 H3292 0.950 . S
C3315 C3314 1.334 . S
C3315 C3316 1.287 . S
C3316 C3315 1.287 . S
C3316 C3317 1.524 . S
C3316 H3335 0.913 . S
C3317 H3293 0.950 . S
C3317 C3316 1.524 . S
C3317 C3318 1.415 . S
C3318 H3294 0.950 . S
C3318 C3313 1.363 . S
C3318 C3317 1.415 . S
C3319 H3295 0.951 . S
C3319 C3320 1.366 . S
C3319 C3321 1.388 . S
C3320 C3319 1.366 . S
C3320 C3324 1.385 . S
C3321 H3296 0.951 . S
C3321 C3319 1.388 . S
C3321 C3322 1.366 . S
C3322 C3321 1.366 . S
C3322 C3323 1.414 . S
C3322 C3325 1.499 . S
C3323 H3297 0.950 . S
C3323 C3322 1.414 . S
C3323 C3324 1.374 . S
C3324 H3298 0.950 . S
C3324 C3320 1.385 . S
C3324 C3323 1.374 . S
C3325 C3322 1.499 . S
C3325 C3326 1.373 . S
C3325 C3327 1.389 . S
C3326 H3299 0.950 . S
C3326 C3312 1.377 . S
C3326 C3325 1.373 . S
C3327 C3311 1.377 . S
C3327 C3325 1.389 . S
C3327 C3328 1.524 . S
C3328 C3327 1.524 . S
C3328 C3329 1.397 . S
C3328 C3333 1.363 . S
C3329 H3300 0.950 . S
C3329 C3328 1.397 . S
C3329 C3330 1.334 . S
C3330 H3301 0.950 . S
C3330 C3329 1.334 . S
C3330 C3331 1.287 . S
C3331 C3330 1.287 . S
C3331 C3332 1.524 . S
C3331 H3334 0.999 . S
C3332 H3302 0.950 . S
C3332 C3331 1.524 . S
C3332 C3333 1.415 . S
C3333 H3303 0.950 . S
C3333 C3328 1.363 . S
C3333 C3332 1.415 . S
H3334 C3331 0.999 . S
H3335 C3316 0.913 . S
H3336 C3354 0.951 . S
H3337 C3356 0.951 . S
H3338 C3358 0.950 . S
H3339 C3359 0.950 . S
H3340 C3361 0.950 . S
H3341 C3364 0.950 . S
H3342 C3365 0.950 . S
H3343 C3367 0.950 . S
H3344 C3368 0.950 . S
H3345 C3369 0.951 . S
H3346 C3371 0.951 . S
H3347 C3373 0.950 . S
H3348 C3374 0.950 . S
H3349 C3376 0.950 . S
H3350 C3379 0.950 . S
H3351 C3380 0.950 . S
H3352 C3382 0.950 . S
H3353 C3383 0.950 . S
C3354 H3336 0.951 . S
C3354 C3355 1.366 . S
C3354 C3356 1.388 . S
C3355 C3354 1.366 . S
C3355 C3359 1.385 . S
C3356 H3337 0.951 . S
C3356 C3354 1.388 . S
C3356 C3357 1.366 1_455 S
C3357 C3356 1.366 1_655 S
C3357 C3358 1.414 . S
C3357 C3360 1.499 . S
C3358 H3338 0.950 . S
C3358 C3357 1.414 . S
C3358 C3359 1.374 1_655 S
C3359 H3339 0.950 . S
C3359 C3355 1.385 . S
C3359 C3358 1.374 1_455 S
C3360 C3357 1.499 . S
C3360 C3361 1.373 . S
C3360 C3362 1.389 . S
C3361 H3340 0.950 . S
C3361 C3360 1.373 . S
C3361 C3377 1.377 . S
C3362 C3360 1.389 . S
C3362 C3363 1.524 . S
C3362 C3376 1.377 . S
C3363 C3362 1.524 . S
C3363 C3364 1.397 . S
C3363 C3368 1.363 . S
C3364 H3341 0.950 . S
C3364 C3363 1.397 . S
C3364 C3365 1.334 1_655 S
C3365 H3342 0.950 . S
C3365 C3364 1.334 1_455 S
C3365 C3366 1.287 . S
C3366 C3365 1.287 . S
C3366 C3367 1.524 . S
C3366 H3385 0.913 . S
C3367 H3343 0.950 . S
C3367 C3366 1.524 . S
C3367 C3368 1.415 1_455 S
C3368 H3344 0.950 . S
C3368 C3363 1.363 . S
C3368 C3367 1.415 1_655 S
C3369 H3345 0.951 . S
C3369 C3370 1.366 . S
C3369 C3371 1.388 . S
C3370 C3369 1.366 . S
C3370 C3374 1.385 . S
C3371 H3346 0.951 . S
C3371 C3369 1.388 . S
C3371 C3372 1.366 . S
C3372 C3371 1.366 . S
C3372 C3373 1.414 . S
C3372 C3375 1.499 . S
C3373 H3347 0.950 . S
C3373 C3372 1.414 . S
C3373 C3374 1.374 . S
C3374 H3348 0.950 . S
C3374 C3370 1.385 . S
C3374 C3373 1.374 . S
C3375 C3372 1.499 . S
C3375 C3376 1.373 . S
C3375 C3377 1.389 . S
C3376 H3349 0.950 . S
C3376 C3362 1.377 . S
C3376 C3375 1.373 . S
C3377 C3361 1.377 . S
C3377 C3375 1.389 . S
C3377 C3378 1.524 . S
C3378 C3377 1.524 . S
C3378 C3379 1.397 . S
C3378 C3383 1.363 . S
C3379 H3350 0.950 . S
C3379 C3378 1.397 . S
C3379 C3380 1.334 . S
C3380 H3351 0.950 . S
C3380 C3379 1.334 . S
C3380 C3381 1.287 . S
C3381 C3380 1.287 . S
C3381 C3382 1.524 . S
C3381 H3384 0.999 . S
C3382 H3352 0.950 . S
C3382 C3381 1.524 . S
C3382 C3383 1.415 . S
C3383 H3353 0.950 . S
C3383 C3378 1.363 . S
C3383 C3382 1.415 . S
H3384 C3381 0.999 . S
H3385 C3366 0.913 . S
H3386 C3404 0.951 . S
H3387 C3406 0.951 . S
H3388 C3408 0.950 . S
H3389 C3409 0.950 . S
H3390 C3411 0.950 . S
H3391 C3414 0.950 . S
H3392 C3415 0.950 . S
H3393 C3417 0.950 . S
H3394 C3418 0.950 . S
H3395 C3419 0.951 . S
H3396 C3421 0.951 . S
H3397 C3423 0.950 . S
H3398 C3424 0.950 . S
H3399 C3426 0.950 . S
H3400 C3429 0.950 . S
H3401 C3430 0.950 . S
H3402 C3432 0.950 . S
H3403 C3433 0.950 . S
C3404 H3386 0.951 . S
C3404 C3405 1.366 . S
C3404 C3406 1.388 . S
C3405 C3404 1.366 . S
C3405 C3409 1.385 . S
C3406 H3387 0.951 . S
C3406 C3404 1.388 . S
C3406 C3407 1.366 . S
C3407 C3406 1.366 . S
C3407 C3408 1.414 . S
C3407 C3410 1.499 . S
C3408 H3388 0.950 . S
C3408 C3407 1.414 . S
C3408 C3409 1.374 . S
C3409 H3389 0.950 . S
C3409 C3405 1.385 . S
C3409 C3408 1.374 . S
C3410 C3407 1.499 . S
C3410 C3411 1.373 . S
C3410 C3412 1.389 . S
C3411 H3390 0.950 . S
C3411 C3410 1.373 . S
C3411 C3427 1.377 . S
C3412 C3410 1.389 . S
C3412 C3413 1.524 . S
C3412 C3426 1.377 . S
C3413 C3412 1.524 . S
C3413 C3414 1.397 . S
C3413 C3418 1.363 . S
C3414 H3391 0.950 . S
C3414 C3413 1.397 . S
C3414 C3415 1.334 . S
C3415 H3392 0.950 . S
C3415 C3414 1.334 . S
C3415 C3416 1.287 . S
C3416 C3415 1.287 . S
C3416 C3417 1.524 . S
C3416 H3435 0.913 . S
C3417 H3393 0.950 . S
C3417 C3416 1.524 . S
C3417 C3418 1.415 . S
C3418 H3394 0.950 . S
C3418 C3413 1.363 . S
C3418 C3417 1.415 . S
C3419 H3395 0.951 . S
C3419 C3420 1.366 . S
C3419 C3421 1.388 . S
C3420 C3419 1.366 . S
C3420 C3424 1.385 . S
C3421 H3396 0.951 . S
C3421 C3419 1.388 . S
C3421 C3422 1.366 . S
C3422 C3421 1.366 . S
C3422 C3423 1.414 . S
C3422 C3425 1.499 . S
C3423 H3397 0.950 . S
C3423 C3422 1.414 . S
C3423 C3424 1.374 . S
C3424 H3398 0.950 . S
C3424 C3420 1.385 . S
C3424 C3423 1.374 . S
C3425 C3422 1.499 . S
C3425 C3426 1.373 . S
C3425 C3427 1.389 . S
C3426 H3399 0.950 . S
C3426 C3412 1.377 . S
C3426 C3425 1.373 . S
C3427 C3411 1.377 . S
C3427 C3425 1.389 . S
C3427 C3428 1.524 . S
C3428 C3427 1.524 . S
C3428 C3429 1.397 . S
C3428 C3433 1.363 . S
C3429 H3400 0.950 . S
C3429 C3428 1.397 . S
C3429 C3430 1.334 . S
C3430 H3401 0.950 . S
C3430 C3429 1.334 . S
C3430 C3431 1.287 . S
C3431 C3430 1.287 . S
C3431 C3432 1.524 . S
C3431 H3434 0.999 . S
C3432 H3402 0.950 . S
C3432 C3431 1.524 . S
C3432 C3433 1.415 . S
C3433 H3403 0.950 . S
C3433 C3428 1.363 . S
C3433 C3432 1.415 . S
H3434 C3431 0.999 . S
H3435 C3416 0.913 . S
H3436 C3454 0.951 . S
H3437 C3456 0.927 1_545 S
H3438 C3458 0.950 . S
H3439 C3459 0.950 . S
H3440 C3461 0.950 . S
H3441 C3464 0.950 . S
H3442 C3465 0.950 . S
H3443 C3467 0.950 . S
H3444 C3468 0.950 . S
H3445 C3469 0.951 . S
H3446 C3471 0.951 . S
H3447 C3473 0.950 . S
H3448 C3474 0.950 . S
H3449 C3476 0.950 . S
H3450 C3479 0.950 . S
H3451 C3480 0.950 . S
H3452 C3482 0.950 . S
H3453 C3483 0.950 . S
C3454 H3436 0.951 . S
C3454 C3455 1.366 . S
C3454 C3456 1.388 . S
C3455 C3454 1.366 . S
C3455 C3459 1.385 . S
C3456 H3437 0.927 1_565 S
C3456 C3454 1.388 . S
C3456 C3457 1.366 1_565 S
C3457 C3456 1.366 1_545 S
C3457 C3458 1.418 1_545 S
C3457 C3460 1.494 . S
C3458 H3438 0.950 . S
C3458 C3457 1.418 1_565 S
C3458 C3459 1.374 . S
C3459 H3439 0.950 . S
C3459 C3455 1.385 . S
C3459 C3458 1.374 . S
C3460 C3457 1.494 . S
C3460 C3461 1.373 . S
C3460 C3462 1.389 . S
C3461 H3440 0.950 . S
C3461 C3460 1.373 . S
C3461 C3477 1.377 . S
C3462 C3460 1.389 . S
C3462 C3463 1.524 . S
C3462 C3476 1.377 . S
C3463 C3462 1.524 . S
C3463 C3464 1.397 . S
C3463 C3468 1.363 . S
C3464 H3441 0.950 . S
C3464 C3463 1.397 . S
C3464 C3465 1.334 . S
C3465 H3442 0.950 . S
C3465 C3464 1.334 . S
C3465 C3466 1.287 . S
C3466 C3465 1.287 . S
C3466 C3467 1.524 . S
C3466 H3485 0.913 . S
C3467 H3443 0.950 . S
C3467 C3466 1.524 . S
C3467 C3468 1.415 . S
C3468 H3444 0.950 . S
C3468 C3463 1.363 . S
C3468 C3467 1.415 . S
C3469 H3445 0.951 . S
C3469 C3470 1.366 . S
C3469 C3471 1.388 . S
C3470 C3469 1.366 . S
C3470 C3474 1.385 . S
C3471 H3446 0.951 . S
C3471 C3469 1.388 . S
C3471 C3472 1.366 . S
C3472 C3471 1.366 . S
C3472 C3473 1.414 . S
C3472 C3475 1.499 . S
C3473 H3447 0.950 . S
C3473 C3472 1.414 . S
C3473 C3474 1.374 . S
C3474 H3448 0.950 . S
C3474 C3470 1.385 . S
C3474 C3473 1.374 . S
C3475 C3472 1.499 . S
C3475 C3476 1.373 . S
C3475 C3477 1.389 . S
C3476 H3449 0.950 . S
C3476 C3462 1.377 . S
C3476 C3475 1.373 . S
C3477 C3461 1.377 . S
C3477 C3475 1.389 . S
C3477 C3478 1.524 . S
C3478 C3477 1.524 . S
C3478 C3479 1.397 . S
C3478 C3483 1.363 . S
C3479 H3450 0.950 . S
C3479 C3478 1.397 . S
C3479 C3480 1.334 . S
C3480 H3451 0.950 . S
C3480 C3479 1.334 . S
C3480 C3481 1.287 . S
C3481 C3480 1.287 . S
C3481 C3482 1.524 . S
C3481 H3484 0.999 . S
C3482 H3452 0.950 . S
C3482 C3481 1.524 . S
C3482 C3483 1.415 . S
C3483 H3453 0.950 . S
C3483 C3478 1.363 . S
C3483 C3482 1.415 . S
H3484 C3481 0.999 . S
H3485 C3466 0.913 . S
H3486 C3504 0.951 . S
H3487 C3506 0.951 . S
H3488 C3508 0.950 . S
H3489 C3509 0.950 . S
H3490 C3511 0.950 . S
H3491 C3514 0.950 . S
H3492 C3515 0.950 . S
H3493 C3517 0.950 . S
H3494 C3518 0.950 . S
H3495 C3519 0.951 . S
H3496 C3521 0.951 . S
H3497 C3523 0.950 . S
H3498 C3524 0.950 . S
H3499 C3526 0.950 . S
H3500 C3529 0.950 . S
H3501 C3530 0.950 . S
H3502 C3532 0.950 . S
H3503 C3533 0.950 . S
C3504 H3486 0.951 . S
C3504 C3505 1.366 . S
C3504 C3506 1.388 . S
C3505 C3504 1.366 . S
C3505 C3509 1.385 . S
C3506 H3487 0.951 . S
C3506 C3504 1.388 . S
C3506 C3507 1.366 . S
C3507 C3506 1.366 . S
C3507 C3508 1.414 . S
C3507 C3510 1.499 . S
C3508 H3488 0.950 . S
C3508 C3507 1.414 . S
C3508 C3509 1.374 . S
C3509 H3489 0.950 . S
C3509 C3505 1.385 . S
C3509 C3508 1.374 . S
C3510 C3507 1.499 . S
C3510 C3511 1.373 . S
C3510 C3512 1.389 . S
C3511 H3490 0.950 . S
C3511 C3510 1.373 . S
C3511 C3527 1.377 . S
C3512 C3510 1.389 . S
C3512 C3513 1.524 . S
C3512 C3526 1.377 . S
C3513 C3512 1.524 . S
C3513 C3514 1.397 . S
C3513 C3518 1.363 . S
C3514 H3491 0.950 . S
C3514 C3513 1.397 . S
C3514 C3515 1.334 . S
C3515 H3492 0.950 . S
C3515 C3514 1.334 . S
C3515 C3516 1.287 . S
C3516 C3515 1.287 . S
C3516 C3517 1.524 . S
C3516 H3535 0.913 . S
C3517 H3493 0.950 . S
C3517 C3516 1.524 . S
C3517 C3518 1.415 . S
C3518 H3494 0.950 . S
C3518 C3513 1.363 . S
C3518 C3517 1.415 . S
C3519 H3495 0.951 . S
C3519 C3520 1.366 . S
C3519 C3521 1.388 . S
C3520 C3519 1.366 . S
C3520 C3524 1.385 . S
C3521 H3496 0.951 . S
C3521 C3519 1.388 . S
C3521 C3522 1.366 . S
C3522 C3521 1.366 . S
C3522 C3523 1.414 . S
C3522 C3525 1.499 . S
C3523 H3497 0.950 . S
C3523 C3522 1.414 . S
C3523 C3524 1.374 . S
C3524 H3498 0.950 . S
C3524 C3520 1.385 . S
C3524 C3523 1.374 . S
C3525 C3522 1.499 . S
C3525 C3526 1.373 . S
C3525 C3527 1.389 . S
C3526 H3499 0.950 . S
C3526 C3512 1.377 . S
C3526 C3525 1.373 . S
C3527 C3511 1.377 . S
C3527 C3525 1.389 . S
C3527 C3528 1.524 . S
C3528 C3527 1.524 . S
C3528 C3529 1.397 . S
C3528 C3533 1.363 . S
C3529 H3500 0.950 . S
C3529 C3528 1.397 . S
C3529 C3530 1.334 . S
C3530 H3501 0.950 . S
C3530 C3529 1.334 . S
C3530 C3531 1.287 . S
C3531 C3530 1.287 . S
C3531 C3532 1.524 . S
C3531 H3534 0.999 . S
C3532 H3502 0.950 . S
C3532 C3531 1.524 . S
C3532 C3533 1.415 . S
C3533 H3503 0.950 . S
C3533 C3528 1.363 . S
C3533 C3532 1.415 . S
H3534 C3531 0.999 . S
H3535 C3516 0.913 . S
H3536 C3554 0.951 . S
H3537 C3556 0.951 . S
H3538 C3558 0.950 . S
H3539 C3559 0.950 . S
H3540 C3561 0.950 . S
H3541 C3564 0.950 . S
H3542 C3565 0.950 . S
H3543 C3567 0.950 . S
H3544 C3568 0.950 . S
H3545 C3569 0.951 . S
H3546 C3571 0.951 . S
H3547 C3573 0.950 . S
H3548 C3574 0.950 . S
H3549 C3576 0.950 . S
H3550 C3579 0.950 . S
H3551 C3580 0.950 . S
H3552 C3582 0.950 . S
H3553 C3583 0.950 . S
C3554 H3536 0.951 . S
C3554 C3555 1.366 . S
C3554 C3556 1.388 . S
C3555 C3554 1.366 . S
C3555 C3559 1.385 . S
C3556 H3537 0.951 . S
C3556 C3554 1.388 . S
C3556 C3557 1.366 . S
C3557 C3556 1.366 . S
C3557 C3558 1.414 . S
C3557 C3560 1.499 . S
C3558 H3538 0.950 . S
C3558 C3557 1.414 . S
C3558 C3559 1.374 . S
C3559 H3539 0.950 . S
C3559 C3555 1.385 . S
C3559 C3558 1.374 . S
C3560 C3557 1.499 . S
C3560 C3561 1.373 . S
C3560 C3562 1.389 . S
C3561 H3540 0.950 . S
C3561 C3560 1.373 . S
C3561 C3577 1.377 . S
C3562 C3560 1.389 . S
C3562 C3563 1.524 . S
C3562 C3576 1.377 . S
C3563 C3562 1.524 . S
C3563 C3564 1.397 . S
C3563 C3568 1.363 . S
C3564 H3541 0.950 . S
C3564 C3563 1.397 . S
C3564 C3565 1.334 . S
C3565 H3542 0.950 . S
C3565 C3564 1.334 . S
C3565 C3566 1.287 . S
C3566 C3565 1.287 . S
C3566 C3567 1.524 . S
C3566 H3585 0.913 . S
C3567 H3543 0.950 . S
C3567 C3566 1.524 . S
C3567 C3568 1.415 . S
C3568 H3544 0.950 . S
C3568 C3563 1.363 . S
C3568 C3567 1.415 . S
C3569 H3545 0.951 . S
C3569 C3570 1.366 . S
C3569 C3571 1.388 . S
C3570 C3569 1.366 . S
C3570 C3574 1.385 . S
C3571 H3546 0.951 . S
C3571 C3569 1.388 . S
C3571 C3572 1.366 . S
C3572 C3571 1.366 . S
C3572 C3573 1.414 . S
C3572 C3575 1.499 . S
C3573 H3547 0.950 . S
C3573 C3572 1.414 . S
C3573 C3574 1.374 . S
C3574 H3548 0.950 . S
C3574 C3570 1.385 . S
C3574 C3573 1.374 . S
C3575 C3572 1.499 . S
C3575 C3576 1.373 . S
C3575 C3577 1.389 . S
C3576 H3549 0.950 . S
C3576 C3562 1.377 . S
C3576 C3575 1.373 . S
C3577 C3561 1.377 . S
C3577 C3575 1.389 . S
C3577 C3578 1.524 . S
C3578 C3577 1.524 . S
C3578 C3579 1.397 . S
C3578 C3583 1.363 . S
C3579 H3550 0.950 . S
C3579 C3578 1.397 . S
C3579 C3580 1.334 . S
C3580 H3551 0.950 . S
C3580 C3579 1.334 . S
C3580 C3581 1.287 . S
C3581 C3580 1.287 . S
C3581 C3582 1.524 . S
C3581 H3584 0.999 . S
C3582 H3552 0.950 . S
C3582 C3581 1.524 . S
C3582 C3583 1.415 . S
C3583 H3553 0.950 . S
C3583 C3578 1.363 . S
C3583 C3582 1.415 . S
H3584 C3581 0.999 . S
H3585 C3566 0.913 . S
H3586 C3604 0.951 . S
H3587 C3606 0.951 . S
H3588 C3608 0.950 . S
H3589 C3609 0.950 . S
H3590 C3611 0.950 . S
H3591 C3614 0.950 . S
H3592 C3615 0.950 . S
H3593 C3617 0.950 . S
H3594 C3618 0.950 . S
H3595 C3619 0.951 . S
H3596 C3621 0.951 . S
H3597 C3623 0.950 . S
H3598 C3624 0.950 . S
H3599 C3626 0.950 . S
H3600 C3629 0.950 . S
H3601 C3630 0.950 . S
H3602 C3632 0.950 . S
H3603 C3633 0.950 . S
C3604 H3586 0.951 . S
C3604 C3605 1.366 . S
C3604 C3606 1.388 . S
C3605 C3604 1.366 . S
C3605 C3609 1.385 . S
C3606 H3587 0.951 . S
C3606 C3604 1.388 . S
C3606 C3607 1.366 . S
C3607 C3606 1.366 . S
C3607 C3608 1.414 . S
C3607 C3610 1.499 . S
C3608 H3588 0.950 . S
C3608 C3607 1.414 . S
C3608 C3609 1.374 . S
C3609 H3589 0.950 . S
C3609 C3605 1.385 . S
C3609 C3608 1.374 . S
C3610 C3607 1.499 . S
C3610 C3611 1.373 . S
C3610 C3612 1.389 . S
C3611 H3590 0.950 . S
C3611 C3610 1.373 . S
C3611 C3627 1.377 . S
C3612 C3610 1.389 . S
C3612 C3613 1.524 . S
C3612 C3626 1.377 . S
C3613 C3612 1.524 . S
C3613 C3614 1.397 . S
C3613 C3618 1.363 . S
C3614 H3591 0.950 . S
C3614 C3613 1.397 . S
C3614 C3615 1.334 . S
C3615 H3592 0.950 . S
C3615 C3614 1.334 . S
C3615 C3616 1.287 . S
C3616 C3615 1.287 . S
C3616 C3617 1.524 . S
C3616 H3635 0.913 . S
C3617 H3593 0.950 . S
C3617 C3616 1.524 . S
C3617 C3618 1.415 . S
C3618 H3594 0.950 . S
C3618 C3613 1.363 . S
C3618 C3617 1.415 . S
C3619 H3595 0.951 . S
C3619 C3620 1.366 . S
C3619 C3621 1.388 . S
C3620 C3619 1.366 . S
C3620 C3624 1.385 . S
C3621 H3596 0.951 . S
C3621 C3619 1.388 . S
C3621 C3622 1.366 . S
C3622 C3621 1.366 . S
C3622 C3623 1.414 . S
C3622 C3625 1.499 . S
C3623 H3597 0.950 . S
C3623 C3622 1.414 . S
C3623 C3624 1.374 . S
C3624 H3598 0.950 . S
C3624 C3620 1.385 . S
C3624 C3623 1.374 . S
C3625 C3622 1.499 . S
C3625 C3626 1.373 . S
C3625 C3627 1.389 . S
C3626 H3599 0.950 . S
C3626 C3612 1.377 . S
C3626 C3625 1.373 . S
C3627 C3611 1.377 . S
C3627 C3625 1.389 . S
C3627 C3628 1.524 . S
C3628 C3627 1.524 . S
C3628 C3629 1.397 . S
C3628 C3633 1.363 . S
C3629 H3600 0.950 . S
C3629 C3628 1.397 . S
C3629 C3630 1.334 . S
C3630 H3601 0.950 . S
C3630 C3629 1.334 . S
C3630 C3631 1.287 . S
C3631 C3630 1.287 . S
C3631 C3632 1.524 . S
C3631 H3634 0.999 . S
C3632 H3602 0.950 . S
C3632 C3631 1.524 . S
C3632 C3633 1.415 . S
C3633 H3603 0.950 . S
C3633 C3628 1.363 . S
C3633 C3632 1.415 . S
H3634 C3631 0.999 . S
H3635 C3616 0.913 . S
H3636 C3654 0.951 . S
H3637 C3656 0.951 . S
H3638 C3658 0.950 . S
H3639 C3659 0.950 . S
H3640 C3661 0.950 . S
H3641 C3664 0.950 . S
H3642 C3665 0.950 . S
H3643 C3667 0.950 . S
H3644 C3668 0.950 . S
H3645 C3669 0.951 1_545 S
H3646 C3671 0.951 . S
H3647 C3673 0.950 . S
H3648 C3674 0.950 . S
H3649 C3676 0.950 . S
H3650 C3679 0.950 . S
H3651 C3680 0.950 . S
H3652 C3682 0.985 . S
H3653 C3683 0.950 . S
C3654 H3636 0.951 . S
C3654 C3655 1.366 . S
C3654 C3656 1.388 . S
C3655 C3654 1.366 . S
C3655 C3659 1.385 . S
C3656 H3637 0.951 . S
C3656 C3654 1.388 . S
C3656 C3657 1.366 . S
C3657 C3656 1.366 . S
C3657 C3658 1.414 . S
C3657 C3660 1.499 . S
C3658 H3638 0.950 . S
C3658 C3657 1.414 . S
C3658 C3659 1.374 . S
C3659 H3639 0.950 . S
C3659 C3655 1.385 . S
C3659 C3658 1.374 . S
C3660 C3657 1.499 . S
C3660 C3661 1.373 . S
C3660 C3662 1.389 . S
C3661 H3640 0.950 . S
C3661 C3660 1.373 . S
C3661 C3677 1.377 . S
C3662 C3660 1.389 . S
C3662 C3663 1.524 . S
C3662 C3676 1.377 . S
C3663 C3662 1.524 . S
C3663 C3664 1.397 . S
C3663 C3668 1.363 . S
C3664 H3641 0.950 . S
C3664 C3663 1.397 . S
C3664 C3665 1.334 . S
C3665 H3642 0.950 . S
C3665 C3664 1.334 . S
C3665 C3666 1.287 . S
C3666 C3665 1.287 . S
C3666 C3667 1.524 . S
C3666 H3685 0.913 . S
C3667 H3643 0.950 . S
C3667 C3666 1.524 . S
C3667 C3668 1.415 . S
C3668 H3644 0.950 . S
C3668 C3663 1.363 . S
C3668 C3667 1.415 . S
C3669 H3645 0.951 1_565 S
C3669 C3670 1.366 . S
C3669 C3671 1.388 . S
C3670 C3669 1.366 . S
C3670 C3674 1.385 . S
C3671 H3646 0.951 . S
C3671 C3669 1.388 . S
C3671 C3672 1.366 . S
C3672 C3671 1.366 . S
C3672 C3673 1.414 . S
C3672 C3675 1.499 . S
C3673 H3647 0.950 . S
C3673 C3672 1.414 . S
C3673 C3674 1.374 . S
C3674 H3648 0.950 . S
C3674 C3670 1.385 . S
C3674 C3673 1.374 . S
C3675 C3672 1.499 . S
C3675 C3676 1.373 . S
C3675 C3677 1.389 . S
C3676 H3649 0.950 . S
C3676 C3662 1.377 . S
C3676 C3675 1.373 . S
C3677 C3661 1.377 . S
C3677 C3675 1.389 . S
C3677 C3678 1.524 . S
C3678 C3677 1.524 . S
C3678 C3679 1.397 . S
C3678 C3683 1.363 . S
C3679 H3650 0.950 . S
C3679 C3678 1.397 . S
C3679 C3680 1.334 . S
C3680 H3651 0.950 . S
C3680 C3679 1.334 . S
C3680 C3681 1.287 . S
C3681 C3680 1.287 . S
C3681 C3682 1.516 1_565 S
C3681 H3684 0.999 . S
C3682 H3652 0.985 . S
C3682 C3681 1.516 1_545 S
C3682 C3683 1.383 1_545 S
C3683 H3653 0.950 . S
C3683 C3678 1.363 . S
C3683 C3682 1.383 1_565 S
H3684 C3681 0.999 . S
H3685 C3666 0.913 . S
H3686 C3704 0.951 . S
H3687 C3706 0.951 . S
H3688 C3708 0.950 . S
H3689 C3709 0.950 . S
H3690 C3711 0.950 . S
H3691 C3714 0.950 . S
H3692 C3715 0.961 . S
H3693 C3717 0.950 . S
H3694 C3718 0.950 . S
H3695 C3719 0.951 . S
H3696 C3721 0.951 . S
H3697 C3723 0.950 . S
H3698 C3724 0.950 . S
H3699 C3726 0.950 . S
H3700 C3729 0.950 . S
H3701 C3730 0.950 . S
H3702 C3732 0.950 . S
H3703 C3733 0.950 . S
C3704 H3686 0.951 . S
C3704 C3705 1.366 . S
C3704 C3706 1.388 . S
C3705 C3704 1.366 . S
C3705 C3709 1.385 . S
C3706 H3687 0.951 . S
C3706 C3704 1.388 . S
C3706 C3707 1.366 . S
C3707 C3706 1.366 . S
C3707 C3708 1.414 . S
C3707 C3710 1.499 . S
C3708 H3688 0.950 . S
C3708 C3707 1.414 . S
C3708 C3709 1.374 . S
C3709 H3689 0.950 . S
C3709 C3705 1.385 . S
C3709 C3708 1.374 . S
C3710 C3707 1.499 . S
C3710 C3711 1.373 . S
C3710 C3712 1.389 . S
C3711 H3690 0.950 . S
C3711 C3710 1.373 . S
C3711 C3727 1.377 . S
C3712 C3710 1.389 . S
C3712 C3713 1.524 . S
C3712 C3726 1.377 . S
C3713 C3712 1.524 . S
C3713 C3714 1.397 . S
C3713 C3718 1.363 . S
C3714 H3691 0.950 . S
C3714 C3713 1.397 . S
C3714 C3715 1.313 1_455 S
C3715 H3692 0.961 . S
C3715 C3714 1.313 1_655 S
C3715 C3716 1.297 1_655 S
C3716 C3715 1.297 1_455 S
C3716 C3717 1.524 . S
C3716 H3735 0.913 1_455 S
C3717 H3693 0.950 . S
C3717 C3716 1.524 . S
C3717 C3718 1.415 . S
C3718 H3694 0.950 . S
C3718 C3713 1.363 . S
C3718 C3717 1.415 . S
C3719 H3695 0.951 . S
C3719 C3720 1.366 . S
C3719 C3721 1.388 . S
C3720 C3719 1.366 . S
C3720 C3724 1.385 . S
C3721 H3696 0.951 . S
C3721 C3719 1.388 . S
C3721 C3722 1.366 . S
C3722 C3721 1.366 . S
C3722 C3723 1.414 . S
C3722 C3725 1.499 . S
C3723 H3697 0.950 . S
C3723 C3722 1.414 . S
C3723 C3724 1.374 . S
C3724 H3698 0.950 . S
C3724 C3720 1.385 . S
C3724 C3723 1.374 . S
C3725 C3722 1.499 . S
C3725 C3726 1.373 . S
C3725 C3727 1.389 . S
C3726 H3699 0.950 . S
C3726 C3712 1.377 . S
C3726 C3725 1.373 . S
C3727 C3711 1.377 . S
C3727 C3725 1.389 . S
C3727 C3728 1.524 . S
C3728 C3727 1.524 . S
C3728 C3729 1.397 . S
C3728 C3733 1.363 . S
C3729 H3700 0.950 . S
C3729 C3728 1.397 . S
C3729 C3730 1.334 . S
C3730 H3701 0.950 . S
C3730 C3729 1.334 . S
C3730 C3731 1.287 . S
C3731 C3730 1.287 . S
C3731 C3732 1.524 . S
C3731 H3734 0.999 . S
C3732 H3702 0.950 . S
C3732 C3731 1.524 . S
C3732 C3733 1.415 . S
C3733 H3703 0.950 . S
C3733 C3728 1.363 . S
C3733 C3732 1.415 . S
H3734 C3731 0.999 . S
H3735 C3716 0.913 1_655 S
H3736 C3754 0.951 . S
H3737 C3756 0.951 . S
H3738 C3758 0.950 . S
H3739 C3759 0.950 . S
H3740 C3761 0.950 . S
H3741 C3764 0.950 . S
H3742 C3765 0.950 . S
H3743 C3767 0.950 . S
H3744 C3768 0.950 . S
H3745 C3769 0.951 . S
H3746 C3771 0.951 . S
H3747 C3773 0.950 . S
H3748 C3774 0.950 . S
H3749 C3776 0.950 . S
H3750 C3779 0.950 . S
H3751 C3780 0.950 . S
H3752 C3782 0.950 . S
H3753 C3783 0.950 . S
C3754 H3736 0.951 . S
C3754 C3755 1.366 . S
C3754 C3756 1.388 . S
C3755 C3754 1.366 . S
C3755 C3759 1.385 . S
C3756 H3737 0.951 . S
C3756 C3754 1.388 . S
C3756 C3757 1.366 . S
C3757 C3756 1.366 . S
C3757 C3758 1.414 . S
C3757 C3760 1.499 . S
C3758 H3738 0.950 . S
C3758 C3757 1.414 . S
C3758 C3759 1.374 . S
C3759 H3739 0.950 . S
C3759 C3755 1.385 . S
C3759 C3758 1.374 . S
C3760 C3757 1.499 . S
C3760 C3761 1.373 . S
C3760 C3762 1.389 . S
C3761 H3740 0.950 . S
C3761 C3760 1.373 . S
C3761 C3777 1.377 . S
C3762 C3760 1.389 . S
C3762 C3763 1.524 . S
C3762 C3776 1.377 . S
C3763 C3762 1.524 . S
C3763 C3764 1.397 . S
C3763 C3768 1.363 . S
C3764 H3741 0.950 . S
C3764 C3763 1.397 . S
C3764 C3765 1.334 . S
C3765 H3742 0.950 . S
C3765 C3764 1.334 . S
C3765 C3766 1.287 . S
C3766 C3765 1.287 . S
C3766 C3767 1.524 . S
C3766 H3785 0.913 . S
C3767 H3743 0.950 . S
C3767 C3766 1.524 . S
C3767 C3768 1.415 . S
C3768 H3744 0.950 . S
C3768 C3763 1.363 . S
C3768 C3767 1.415 . S
C3769 H3745 0.951 . S
C3769 C3770 1.366 . S
C3769 C3771 1.388 . S
C3770 C3769 1.366 . S
C3770 C3774 1.385 . S
C3771 H3746 0.951 . S
C3771 C3769 1.388 . S
C3771 C3772 1.366 . S
C3772 C3771 1.366 . S
C3772 C3773 1.414 . S
C3772 C3775 1.499 . S
C3773 H3747 0.950 . S
C3773 C3772 1.414 . S
C3773 C3774 1.374 . S
C3774 H3748 0.950 . S
C3774 C3770 1.385 . S
C3774 C3773 1.374 . S
C3775 C3772 1.499 . S
C3775 C3776 1.373 . S
C3775 C3777 1.389 . S
C3776 H3749 0.950 . S
C3776 C3762 1.377 . S
C3776 C3775 1.373 . S
C3777 C3761 1.377 . S
C3777 C3775 1.389 . S
C3777 C3778 1.524 . S
C3778 C3777 1.524 . S
C3778 C3779 1.397 . S
C3778 C3783 1.363 . S
C3779 H3750 0.950 . S
C3779 C3778 1.397 . S
C3779 C3780 1.334 . S
C3780 H3751 0.950 . S
C3780 C3779 1.334 . S
C3780 C3781 1.287 . S
C3781 C3780 1.287 . S
C3781 C3782 1.524 . S
C3781 H3784 0.999 . S
C3782 H3752 0.950 . S
C3782 C3781 1.524 . S
C3782 C3783 1.415 . S
C3783 H3753 0.950 . S
C3783 C3778 1.363 . S
C3783 C3782 1.415 . S
H3784 C3781 0.999 . S
H3785 C3766 0.913 . S
H3786 C3804 0.951 . S
H3787 C3806 0.951 . S
H3788 C3808 0.950 . S
H3789 C3809 0.950 . S
H3790 C3811 0.950 . S
H3791 C3814 0.950 . S
H3792 C3815 0.950 . S
H3793 C3817 0.950 . S
H3794 C3818 0.950 1_455 S
H3795 C3819 0.951 . S
H3796 C3821 0.951 . S
H3797 C3823 0.950 1_455 S
H3798 C3824 0.950 1_455 S
H3799 C3826 0.950 . S
H3800 C3829 0.950 . S
H3801 C3830 0.950 . S
H3802 C3832 0.950 . S
H3803 C3833 0.950 . S
C3804 H3786 0.951 . S
C3804 C3805 1.366 . S
C3804 C3806 1.388 . S
C3805 C3804 1.366 . S
C3805 C3809 1.385 . S
C3806 H3787 0.951 . S
C3806 C3804 1.388 . S
C3806 C3807 1.366 . S
C3807 C3806 1.366 . S
C3807 C3808 1.414 . S
C3807 C3810 1.499 . S
C3808 H3788 0.950 . S
C3808 C3807 1.414 . S
C3808 C3809 1.374 . S
C3809 H3789 0.950 . S
C3809 C3805 1.385 . S
C3809 C3808 1.374 . S
C3810 C3807 1.499 . S
C3810 C3811 1.373 . S
C3810 C3812 1.389 . S
C3811 H3790 0.950 . S
C3811 C3810 1.373 . S
C3811 C3827 1.377 . S
C3812 C3810 1.389 . S
C3812 C3813 1.524 . S
C3812 C3826 1.377 . S
C3813 C3812 1.524 . S
C3813 C3814 1.397 . S
C3813 C3818 1.363 . S
C3814 H3791 0.950 . S
C3814 C3813 1.397 . S
C3814 C3815 1.334 . S
C3815 H3792 0.950 . S
C3815 C3814 1.334 . S
C3815 C3816 1.287 . S
C3816 C3815 1.287 . S
C3816 C3817 1.524 1_655 S
C3816 H3835 0.913 . S
C3817 H3793 0.950 . S
C3817 C3816 1.524 1_455 S
C3817 C3818 1.415 1_455 S
C3818 H3794 0.950 1_655 S
C3818 C3813 1.363 . S
C3818 C3817 1.415 1_655 S
C3819 H3795 0.951 . S
C3819 C3820 1.366 . S
C3819 C3821 1.388 . S
C3820 C3819 1.366 . S
C3820 C3824 1.385 . S
C3821 H3796 0.951 . S
C3821 C3819 1.388 . S
C3821 C3822 1.366 . S
C3822 C3821 1.366 . S
C3822 C3823 1.414 . S
C3822 C3825 1.499 . S
C3823 H3797 0.950 1_655 S
C3823 C3822 1.414 . S
C3823 C3824 1.374 . S
C3824 H3798 0.950 1_655 S
C3824 C3820 1.385 . S
C3824 C3823 1.374 . S
C3825 C3822 1.499 . S
C3825 C3826 1.373 . S
C3825 C3827 1.389 . S
C3826 H3799 0.950 . S
C3826 C3812 1.377 . S
C3826 C3825 1.373 . S
C3827 C3811 1.377 . S
C3827 C3825 1.389 . S
C3827 C3828 1.524 . S
C3828 C3827 1.524 . S
C3828 C3829 1.397 . S
C3828 C3833 1.363 . S
C3829 H3800 0.950 . S
C3829 C3828 1.397 . S
C3829 C3830 1.334 . S
C3830 H3801 0.950 . S
C3830 C3829 1.334 . S
C3830 C3831 1.287 . S
C3831 C3830 1.287 . S
C3831 C3832 1.524 . S
C3831 H3834 0.999 . S
C3832 H3802 0.950 . S
C3832 C3831 1.524 . S
C3832 C3833 1.415 . S
C3833 H3803 0.950 . S
C3833 C3828 1.363 . S
C3833 C3832 1.415 . S
H3834 C3831 0.999 . S
H3835 C3816 0.913 . S
H3836 C3854 0.951 . S
H3837 C3856 0.951 . S
H3838 C3858 0.950 . S
H3839 C3859 0.950 . S
H3840 C3861 0.950 . S
H3841 C3864 0.950 . S
H3842 C3865 0.950 . S
H3843 C3867 0.950 . S
H3844 C3868 0.950 . S
H3845 C3869 0.951 . S
H3846 C3871 0.951 . S
H3847 C3873 0.950 . S
H3848 C3874 0.950 . S
H3849 C3876 0.950 . S
H3850 C3879 0.950 . S
H3851 C3880 0.950 . S
H3852 C3882 0.950 . S
H3853 C3883 0.950 . S
C3854 H3836 0.951 . S
C3854 C3855 1.366 . S
C3854 C3856 1.388 . S
C3855 C3854 1.366 . S
C3855 C3859 1.385 . S
C3856 H3837 0.951 . S
C3856 C3854 1.388 . S
C3856 C3857 1.366 . S
C3857 C3856 1.366 . S
C3857 C3858 1.414 . S
C3857 C3860 1.499 . S
C3858 H3838 0.950 . S
C3858 C3857 1.414 . S
C3858 C3859 1.374 . S
C3859 H3839 0.950 . S
C3859 C3855 1.385 . S
C3859 C3858 1.374 . S
C3860 C3857 1.499 . S
C3860 C3861 1.373 . S
C3860 C3862 1.389 . S
C3861 H3840 0.950 . S
C3861 C3860 1.373 . S
C3861 C3877 1.377 . S
C3862 C3860 1.389 . S
C3862 C3863 1.524 . S
C3862 C3876 1.377 . S
C3863 C3862 1.524 . S
C3863 C3864 1.397 . S
C3863 C3868 1.363 . S
C3864 H3841 0.950 . S
C3864 C3863 1.397 . S
C3864 C3865 1.334 . S
C3865 H3842 0.950 . S
C3865 C3864 1.334 . S
C3865 C3866 1.287 . S
C3866 C3865 1.287 . S
C3866 C3867 1.524 . S
C3866 H3885 0.913 . S
C3867 H3843 0.950 . S
C3867 C3866 1.524 . S
C3867 C3868 1.415 . S
C3868 H3844 0.950 . S
C3868 C3863 1.363 . S
C3868 C3867 1.415 . S
C3869 H3845 0.951 . S
C3869 C3870 1.366 . S
C3869 C3871 1.388 . S
C3870 C3869 1.366 . S
C3870 C3874 1.385 . S
C3871 H3846 0.951 . S
C3871 C3869 1.388 . S
C3871 C3872 1.366 . S
C3872 C3871 1.366 . S
C3872 C3873 1.414 . S
C3872 C3875 1.499 . S
C3873 H3847 0.950 . S
C3873 C3872 1.414 . S
C3873 C3874 1.374 . S
C3874 H3848 0.950 . S
C3874 C3870 1.385 . S
C3874 C3873 1.374 . S
C3875 C3872 1.499 . S
C3875 C3876 1.373 . S
C3875 C3877 1.389 . S
C3876 H3849 0.950 . S
C3876 C3862 1.377 . S
C3876 C3875 1.373 . S
C3877 C3861 1.377 . S
C3877 C3875 1.389 . S
C3877 C3878 1.524 . S
C3878 C3877 1.524 . S
C3878 C3879 1.397 . S
C3878 C3883 1.363 . S
C3879 H3850 0.950 . S
C3879 C3878 1.397 . S
C3879 C3880 1.334 . S
C3880 H3851 0.950 . S
C3880 C3879 1.334 . S
C3880 C3881 1.287 . S
C3881 C3880 1.287 . S
C3881 C3882 1.524 . S
C3881 H3884 0.999 . S
C3882 H3852 0.950 . S
C3882 C3881 1.524 . S
C3882 C3883 1.415 . S
C3883 H3853 0.950 . S
C3883 C3878 1.363 . S
C3883 C3882 1.415 . S
H3884 C3881 0.999 . S
H3885 C3866 0.913 . S
H3886 C3904 0.951 . S
H3887 C3906 0.951 . S
H3888 C3908 0.950 . S
H3889 C3909 0.950 . S
H3890 C3911 0.950 . S
H3891 C3914 0.950 . S
H3892 C3915 0.950 . S
H3893 C3917 0.950 . S
H3894 C3918 0.950 . S
H3895 C3919 0.951 . S
H3896 C3921 0.951 . S
H3897 C3923 0.950 . S
H3898 C3924 0.950 . S
H3899 C3926 0.950 . S
H3900 C3929 0.950 1_545 S
H3901 C3930 0.950 . S
H3902 C3932 0.950 . S
H3903 C3933 0.950 . S
C3904 H3886 0.951 . S
C3904 C3905 1.366 . S
C3904 C3906 1.388 . S
C3905 C3904 1.366 . S
C3905 C3909 1.385 . S
C3906 H3887 0.951 . S
C3906 C3904 1.388 . S
C3906 C3907 1.366 . S
C3907 C3906 1.366 . S
C3907 C3908 1.414 . S
C3907 C3910 1.499 . S
C3908 H3888 0.950 . S
C3908 C3907 1.414 . S
C3908 C3909 1.374 . S
C3909 H3889 0.950 . S
C3909 C3905 1.385 . S
C3909 C3908 1.374 . S
C3910 C3907 1.499 . S
C3910 C3911 1.373 . S
C3910 C3912 1.389 . S
C3911 H3890 0.950 . S
C3911 C3910 1.373 . S
C3911 C3927 1.377 . S
C3912 C3910 1.389 . S
C3912 C3913 1.524 . S
C3912 C3926 1.377 . S
C3913 C3912 1.524 . S
C3913 C3914 1.397 . S
C3913 C3918 1.363 . S
C3914 H3891 0.950 . S
C3914 C3913 1.397 . S
C3914 C3915 1.334 . S
C3915 H3892 0.950 . S
C3915 C3914 1.334 . S
C3915 C3916 1.287 . S
C3916 C3915 1.287 . S
C3916 C3917 1.524 . S
C3916 H3935 0.913 . S
C3917 H3893 0.950 . S
C3917 C3916 1.524 . S
C3917 C3918 1.415 . S
C3918 H3894 0.950 . S
C3918 C3913 1.363 . S
C3918 C3917 1.415 . S
C3919 H3895 0.951 . S
C3919 C3920 1.366 . S
C3919 C3921 1.388 . S
C3920 C3919 1.366 . S
C3920 C3924 1.385 . S
C3921 H3896 0.951 . S
C3921 C3919 1.388 . S
C3921 C3922 1.366 . S
C3922 C3921 1.366 . S
C3922 C3923 1.414 . S
C3922 C3925 1.499 . S
C3923 H3897 0.950 . S
C3923 C3922 1.414 . S
C3923 C3924 1.374 . S
C3924 H3898 0.950 . S
C3924 C3920 1.385 . S
C3924 C3923 1.374 . S
C3925 C3922 1.499 . S
C3925 C3926 1.373 . S
C3925 C3927 1.389 . S
C3926 H3899 0.950 . S
C3926 C3912 1.377 . S
C3926 C3925 1.373 . S
C3927 C3911 1.377 . S
C3927 C3925 1.389 . S
C3927 C3928 1.524 . S
C3928 C3927 1.524 . S
C3928 C3929 1.397 1_545 S
C3928 C3933 1.363 1_545 S
C3929 H3900 0.950 1_565 S
C3929 C3928 1.397 1_565 S
C3929 C3930 1.334 . S
C3930 H3901 0.950 . S
C3930 C3929 1.334 . S
C3930 C3931 1.287 . S
C3931 C3930 1.287 . S
C3931 C3932 1.524 . S
C3931 H3934 0.999 . S
C3932 H3902 0.950 . S
C3932 C3931 1.524 . S
C3932 C3933 1.415 . S
C3933 H3903 0.950 . S
C3933 C3928 1.363 1_565 S
C3933 C3932 1.415 . S
H3934 C3931 0.999 . S
H3935 C3916 0.913 . S
H3936 C3954 0.951 . S
H3937 C3956 0.951 . S
H3938 C3958 0.950 . S
H3939 C3959 0.950 . S
H3940 C3961 0.950 . S
H3941 C3964 0.950 . S
H3942 C3965 0.950 . S
H3943 C3967 0.950 . S
H3944 C3968 0.950 . S
H3945 C3969 0.951 . S
H3946 C3971 0.951 . S
H3947 C3973 0.950 . S
H3948 C3974 0.950 . S
H3949 C3976 0.950 . S
H3950 C3979 0.950 . S
H3951 C3980 0.950 . S
H3952 C3982 0.950 . S
H3953 C3983 0.950 . S
C3954 H3936 0.951 . S
C3954 C3955 1.366 . S
C3954 C3956 1.388 . S
C3955 C3954 1.366 . S
C3955 C3959 1.385 . S
C3956 H3937 0.951 . S
C3956 C3954 1.388 . S
C3956 C3957 1.366 . S
C3957 C3956 1.366 . S
C3957 C3958 1.414 . S
C3957 C3960 1.499 . S
C3958 H3938 0.950 . S
C3958 C3957 1.414 . S
C3958 C3959 1.374 . S
C3959 H3939 0.950 . S
C3959 C3955 1.385 . S
C3959 C3958 1.374 . S
C3960 C3957 1.499 . S
C3960 C3961 1.373 . S
C3960 C3962 1.389 . S
C3961 H3940 0.950 . S
C3961 C3960 1.373 . S
C3961 C3977 1.377 . S
C3962 C3960 1.389 . S
C3962 C3963 1.524 . S
C3962 C3976 1.377 . S
C3963 C3962 1.524 . S
C3963 C3964 1.397 . S
C3963 C3968 1.363 . S
C3964 H3941 0.950 . S
C3964 C3963 1.397 . S
C3964 C3965 1.334 . S
C3965 H3942 0.950 . S
C3965 C3964 1.334 . S
C3965 C3966 1.287 . S
C3966 C3965 1.287 . S
C3966 C3967 1.524 . S
C3966 H3985 0.913 . S
C3967 H3943 0.950 . S
C3967 C3966 1.524 . S
C3967 C3968 1.415 . S
C3968 H3944 0.950 . S
C3968 C3963 1.363 . S
C3968 C3967 1.415 . S
C3969 H3945 0.951 . S
C3969 C3970 1.366 . S
C3969 C3971 1.388 . S
C3970 C3969 1.366 . S
C3970 C3974 1.385 . S
C3971 H3946 0.951 . S
C3971 C3969 1.388 . S
C3971 C3972 1.366 . S
C3972 C3971 1.366 . S
C3972 C3973 1.414 . S
C3972 C3975 1.499 . S
C3973 H3947 0.950 . S
C3973 C3972 1.414 . S
C3973 C3974 1.374 . S
C3974 H3948 0.950 . S
C3974 C3970 1.385 . S
C3974 C3973 1.374 . S
C3975 C3972 1.499 . S
C3975 C3976 1.373 . S
C3975 C3977 1.389 . S
C3976 H3949 0.950 . S
C3976 C3962 1.377 . S
C3976 C3975 1.373 . S
C3977 C3961 1.377 . S
C3977 C3975 1.389 . S
C3977 C3978 1.524 . S
C3978 C3977 1.524 . S
C3978 C3979 1.397 . S
C3978 C3983 1.363 . S
C3979 H3950 0.950 . S
C3979 C3978 1.397 . S
C3979 C3980 1.334 . S
C3980 H3951 0.950 . S
C3980 C3979 1.334 . S
C3980 C3981 1.287 . S
C3981 C3980 1.287 . S
C3981 C3982 1.524 . S
C3981 H3984 0.999 . S
C3982 H3952 0.950 . S
C3982 C3981 1.524 . S
C3982 C3983 1.415 . S
C3983 H3953 0.950 . S
C3983 C3978 1.363 . S
C3983 C3982 1.415 . S
H3984 C3981 0.999 . S
H3985 C3966 0.913 . S
H3986 C4004 0.951 . S
H3987 C4006 0.951 . S
H3988 C4008 0.950 . S
H3989 C4009 0.950 . S
H3990 C4011 0.950 . S
H3991 C4014 0.950 . S
H3992 C4015 0.950 . S
H3993 C4017 0.950 . S
H3994 C4018 0.950 . S
H3995 C4019 0.951 . S
H3996 C4021 0.951 . S
H3997 C4023 0.950 . S
H3998 C4024 0.950 . S
H3999 C4026 0.950 . S
H4000 C4029 0.950 . S
H4001 C4030 0.950 . S
H4002 C4032 0.950 . S
H4003 C4033 0.950 . S
C4004 H3986 0.951 . S
C4004 C4005 1.366 . S
C4004 C4006 1.388 . S
C4005 C4004 1.366 . S
C4005 C4009 1.385 . S
C4006 H3987 0.951 . S
C4006 C4004 1.388 . S
C4006 C4007 1.366 . S
C4007 C4006 1.366 . S
C4007 C4008 1.414 . S
C4007 C4010 1.499 . S
C4008 H3988 0.950 . S
C4008 C4007 1.414 . S
C4008 C4009 1.374 . S
C4009 H3989 0.950 . S
C4009 C4005 1.385 . S
C4009 C4008 1.374 . S
C4010 C4007 1.499 . S
C4010 C4011 1.373 . S
C4010 C4012 1.389 . S
C4011 H3990 0.950 . S
C4011 C4010 1.373 . S
C4011 C4027 1.377 . S
C4012 C4010 1.389 . S
C4012 C4013 1.524 . S
C4012 C4026 1.377 . S
C4013 C4012 1.524 . S
C4013 C4014 1.397 . S
C4013 C4018 1.363 . S
C4014 H3991 0.950 . S
C4014 C4013 1.397 . S
C4014 C4015 1.334 . S
C4015 H3992 0.950 . S
C4015 C4014 1.334 . S
C4015 C4016 1.287 . S
C4016 C4015 1.287 . S
C4016 C4017 1.524 . S
C4016 H4035 0.913 . S
C4017 H3993 0.950 . S
C4017 C4016 1.524 . S
C4017 C4018 1.415 . S
C4018 H3994 0.950 . S
C4018 C4013 1.363 . S
C4018 C4017 1.415 . S
C4019 H3995 0.951 . S
C4019 C4020 1.366 . S
C4019 C4021 1.388 . S
C4020 C4019 1.366 . S
C4020 C4024 1.385 . S
C4021 H3996 0.951 . S
C4021 C4019 1.388 . S
C4021 C4022 1.366 . S
C4022 C4021 1.366 . S
C4022 C4023 1.414 . S
C4022 C4025 1.499 . S
C4023 H3997 0.950 . S
C4023 C4022 1.414 . S
C4023 C4024 1.374 . S
C4024 H3998 0.950 . S
C4024 C4020 1.385 . S
C4024 C4023 1.374 . S
C4025 C4022 1.499 . S
C4025 C4026 1.373 . S
C4025 C4027 1.389 . S
C4026 H3999 0.950 . S
C4026 C4012 1.377 . S
C4026 C4025 1.373 . S
C4027 C4011 1.377 . S
C4027 C4025 1.389 . S
C4027 C4028 1.524 . S
C4028 C4027 1.524 . S
C4028 C4029 1.397 . S
C4028 C4033 1.363 . S
C4029 H4000 0.950 . S
C4029 C4028 1.397 . S
C4029 C4030 1.334 . S
C4030 H4001 0.950 . S
C4030 C4029 1.334 . S
C4030 C4031 1.287 . S
C4031 C4030 1.287 . S
C4031 C4032 1.524 . S
C4031 H4034 0.999 . S
C4032 H4002 0.950 . S
C4032 C4031 1.524 . S
C4032 C4033 1.415 . S
C4033 H4003 0.950 . S
C4033 C4028 1.363 . S
C4033 C4032 1.415 . S
H4034 C4031 0.999 . S
H4035 C4016 0.913 . S
H4036 C4054 0.951 . S
H4037 C4056 0.951 . S
H4038 C4058 0.950 . S
H4039 C4059 0.950 . S
H4040 C4061 0.950 . S
H4041 C4064 0.950 . S
H4042 C4065 0.950 . S
H4043 C4067 0.950 . S
H4044 C4068 0.950 . S
H4045 C4069 0.951 . S
H4046 C4071 0.951 . S
H4047 C4073 0.950 . S
H4048 C4074 0.950 . S
H4049 C4076 0.950 . S
H4050 C4079 0.950 . S
H4051 C4080 0.950 . S
H4052 C4082 0.950 . S
H4053 C4083 0.950 . S
C4054 H4036 0.951 . S
C4054 C4055 1.366 . S
C4054 C4056 1.388 . S
C4055 C4054 1.366 . S
C4055 C4059 1.385 . S
C4056 H4037 0.951 . S
C4056 C4054 1.388 . S
C4056 C4057 1.366 . S
C4057 C4056 1.366 . S
C4057 C4058 1.414 . S
C4057 C4060 1.499 . S
C4058 H4038 0.950 . S
C4058 C4057 1.414 . S
C4058 C4059 1.374 . S
C4059 H4039 0.950 . S
C4059 C4055 1.385 . S
C4059 C4058 1.374 . S
C4060 C4057 1.499 . S
C4060 C4061 1.373 . S
C4060 C4062 1.389 . S
C4061 H4040 0.950 . S
C4061 C4060 1.373 . S
C4061 C4077 1.377 . S
C4062 C4060 1.389 . S
C4062 C4063 1.524 . S
C4062 C4076 1.377 . S
C4063 C4062 1.524 . S
C4063 C4064 1.397 . S
C4063 C4068 1.363 . S
C4064 H4041 0.950 . S
C4064 C4063 1.397 . S
C4064 C4065 1.334 . S
C4065 H4042 0.950 . S
C4065 C4064 1.334 . S
C4065 C4066 1.287 . S
C4066 C4065 1.287 . S
C4066 C4067 1.524 . S
C4066 H4085 0.913 . S
C4067 H4043 0.950 . S
C4067 C4066 1.524 . S
C4067 C4068 1.415 . S
C4068 H4044 0.950 . S
C4068 C4063 1.363 . S
C4068 C4067 1.415 . S
C4069 H4045 0.951 . S
C4069 C4070 1.366 . S
C4069 C4071 1.388 . S
C4070 C4069 1.366 . S
C4070 C4074 1.385 . S
C4071 H4046 0.951 . S
C4071 C4069 1.388 . S
C4071 C4072 1.366 . S
C4072 C4071 1.366 . S
C4072 C4073 1.414 . S
C4072 C4075 1.499 . S
C4073 H4047 0.950 . S
C4073 C4072 1.414 . S
C4073 C4074 1.374 . S
C4074 H4048 0.950 . S
C4074 C4070 1.385 . S
C4074 C4073 1.374 . S
C4075 C4072 1.499 . S
C4075 C4076 1.373 . S
C4075 C4077 1.389 . S
C4076 H4049 0.950 . S
C4076 C4062 1.377 . S
C4076 C4075 1.373 . S
C4077 C4061 1.377 . S
C4077 C4075 1.389 . S
C4077 C4078 1.524 . S
C4078 C4077 1.524 . S
C4078 C4079 1.397 . S
C4078 C4083 1.363 . S
C4079 H4050 0.950 . S
C4079 C4078 1.397 . S
C4079 C4080 1.334 . S
C4080 H4051 0.950 . S
C4080 C4079 1.334 . S
C4080 C4081 1.287 . S
C4081 C4080 1.287 . S
C4081 C4082 1.524 . S
C4081 H4084 0.999 . S
C4082 H4052 0.950 . S
C4082 C4081 1.524 . S
C4082 C4083 1.415 . S
C4083 H4053 0.950 . S
C4083 C4078 1.363 . S
C4083 C4082 1.415 . S
H4084 C4081 0.999 . S
H4085 C4066 0.913 . S
H4086 C4104 0.951 . S
H4087 C4106 0.951 . S
H4088 C4108 0.950 . S
H4089 C4109 0.950 . S
H4090 C4111 0.950 . S
H4091 C4114 0.950 . S
H4092 C4115 0.950 . S
H4093 C4117 0.950 . S
H4094 C4118 0.950 . S
H4095 C4119 0.951 . S
H4096 C4121 0.951 . S
H4097 C4123 0.950 . S
H4098 C4124 0.950 . S
H4099 C4126 0.950 . S
H4100 C4129 0.950 . S
H4101 C4130 0.950 . S
H4102 C4132 0.950 . S
H4103 C4133 0.950 . S
C4104 H4086 0.951 . S
C4104 C4105 1.366 . S
C4104 C4106 1.388 . S
C4105 C4104 1.366 . S
C4105 C4109 1.385 . S
C4106 H4087 0.951 . S
C4106 C4104 1.388 . S
C4106 C4107 1.366 . S
C4107 C4106 1.366 . S
C4107 C4108 1.414 . S
C4107 C4110 1.499 . S
C4108 H4088 0.950 . S
C4108 C4107 1.414 . S
C4108 C4109 1.374 . S
C4109 H4089 0.950 . S
C4109 C4105 1.385 . S
C4109 C4108 1.374 . S
C4110 C4107 1.499 . S
C4110 C4111 1.373 . S
C4110 C4112 1.389 . S
C4111 H4090 0.950 . S
C4111 C4110 1.373 . S
C4111 C4127 1.377 . S
C4112 C4110 1.389 . S
C4112 C4113 1.524 . S
C4112 C4126 1.377 . S
C4113 C4112 1.524 . S
C4113 C4114 1.397 . S
C4113 C4118 1.363 . S
C4114 H4091 0.950 . S
C4114 C4113 1.397 . S
C4114 C4115 1.334 . S
C4115 H4092 0.950 . S
C4115 C4114 1.334 . S
C4115 C4116 1.287 . S
C4116 C4115 1.287 . S
C4116 C4117 1.524 . S
C4116 H4135 0.913 . S
C4117 H4093 0.950 . S
C4117 C4116 1.524 . S
C4117 C4118 1.415 . S
C4118 H4094 0.950 . S
C4118 C4113 1.363 . S
C4118 C4117 1.415 . S
C4119 H4095 0.951 . S
C4119 C4120 1.366 . S
C4119 C4121 1.388 . S
C4120 C4119 1.366 . S
C4120 C4124 1.385 . S
C4121 H4096 0.951 . S
C4121 C4119 1.388 . S
C4121 C4122 1.366 . S
C4122 C4121 1.366 . S
C4122 C4123 1.414 . S
C4122 C4125 1.499 . S
C4123 H4097 0.950 . S
C4123 C4122 1.414 . S
C4123 C4124 1.374 . S
C4124 H4098 0.950 . S
C4124 C4120 1.385 . S
C4124 C4123 1.374 . S
C4125 C4122 1.499 . S
C4125 C4126 1.373 . S
C4125 C4127 1.389 . S
C4126 H4099 0.950 . S
C4126 C4112 1.377 . S
C4126 C4125 1.373 . S
C4127 C4111 1.377 . S
C4127 C4125 1.389 . S
C4127 C4128 1.524 . S
C4128 C4127 1.524 . S
C4128 C4129 1.397 . S
C4128 C4133 1.363 . S
C4129 H4100 0.950 . S
C4129 C4128 1.397 . S
C4129 C4130 1.334 . S
C4130 H4101 0.950 . S
C4130 C4129 1.334 . S
C4130 C4131 1.287 . S
C4131 C4130 1.287 . S
C4131 C4132 1.524 . S
C4131 H4134 0.999 . S
C4132 H4102 0.950 . S
C4132 C4131 1.524 . S
C4132 C4133 1.415 . S
C4133 H4103 0.950 . S
C4133 C4128 1.363 . S
C4133 C4132 1.415 . S
H4134 C4131 0.999 . S
H4135 C4116 0.913 . S
H4136 C4154 0.951 . S
H4137 C4156 0.951 . S
H4138 C4158 0.950 . S
H4139 C4159 0.950 . S
H4140 C4161 0.950 . S
H4141 C4164 0.950 . S
H4142 C4165 0.950 . S
H4143 C4167 0.950 . S
H4144 C4168 0.950 . S
H4145 C4169 0.951 . S
H4146 C4171 0.951 . S
H4147 C4173 0.950 . S
H4148 C4174 0.950 . S
H4149 C4176 0.950 . S
H4150 C4179 0.950 . S
H4151 C4180 0.950 . S
H4152 C4182 0.950 . S
H4153 C4183 0.950 . S
C4154 H4136 0.951 . S
C4154 C4155 1.366 . S
C4154 C4156 1.388 . S
C4155 C4154 1.366 . S
C4155 C4159 1.385 . S
C4156 H4137 0.951 . S
C4156 C4154 1.388 . S
C4156 C4157 1.366 . S
C4157 C4156 1.366 . S
C4157 C4158 1.414 . S
C4157 C4160 1.499 . S
C4158 H4138 0.950 . S
C4158 C4157 1.414 . S
C4158 C4159 1.374 . S
C4159 H4139 0.950 . S
C4159 C4155 1.385 . S
C4159 C4158 1.374 . S
C4160 C4157 1.499 . S
C4160 C4161 1.373 . S
C4160 C4162 1.389 . S
C4161 H4140 0.950 . S
C4161 C4160 1.373 . S
C4161 C4177 1.377 . S
C4162 C4160 1.389 . S
C4162 C4163 1.524 . S
C4162 C4176 1.377 . S
C4163 C4162 1.524 . S
C4163 C4164 1.397 . S
C4163 C4168 1.363 . S
C4164 H4141 0.950 . S
C4164 C4163 1.397 . S
C4164 C4165 1.334 . S
C4165 H4142 0.950 . S
C4165 C4164 1.334 . S
C4165 C4166 1.287 . S
C4166 C4165 1.287 . S
C4166 C4167 1.524 . S
C4166 H4185 0.913 . S
C4167 H4143 0.950 . S
C4167 C4166 1.524 . S
C4167 C4168 1.415 . S
C4168 H4144 0.950 . S
C4168 C4163 1.363 . S
C4168 C4167 1.415 . S
C4169 H4145 0.951 . S
C4169 C4170 1.366 . S
C4169 C4171 1.388 . S
C4170 C4169 1.366 . S
C4170 C4174 1.385 . S
C4171 H4146 0.951 . S
C4171 C4169 1.388 . S
C4171 C4172 1.366 . S
C4172 C4171 1.366 . S
C4172 C4173 1.414 . S
C4172 C4175 1.499 . S
C4173 H4147 0.950 . S
C4173 C4172 1.414 . S
C4173 C4174 1.374 . S
C4174 H4148 0.950 . S
C4174 C4170 1.385 . S
C4174 C4173 1.374 . S
C4175 C4172 1.499 . S
C4175 C4176 1.373 . S
C4175 C4177 1.389 . S
C4176 H4149 0.950 . S
C4176 C4162 1.377 . S
C4176 C4175 1.373 . S
C4177 C4161 1.377 . S
C4177 C4175 1.389 . S
C4177 C4178 1.524 . S
C4178 C4177 1.524 . S
C4178 C4179 1.397 . S
C4178 C4183 1.363 . S
C4179 H4150 0.950 . S
C4179 C4178 1.397 . S
C4179 C4180 1.334 . S
C4180 H4151 0.950 . S
C4180 C4179 1.334 . S
C4180 C4181 1.287 . S
C4181 C4180 1.287 . S
C4181 C4182 1.524 . S
C4181 H4184 0.999 . S
C4182 H4152 0.950 . S
C4182 C4181 1.524 . S
C4182 C4183 1.415 . S
C4183 H4153 0.950 . S
C4183 C4178 1.363 . S
C4183 C4182 1.415 . S
H4184 C4181 0.999 . S
H4185 C4166 0.913 . S
H4186 C4204 0.951 . S
H4187 C4206 0.951 . S
H4188 C4208 0.950 . S
H4189 C4209 0.950 . S
H4190 C4211 0.950 . S
H4191 C4214 0.950 . S
H4192 C4215 0.950 . S
H4193 C4217 0.950 . S
H4194 C4218 0.950 . S
H4195 C4219 0.951 . S
H4196 C4221 0.951 . S
H4197 C4223 0.950 . S
H4198 C4224 0.950 . S
H4199 C4226 0.950 . S
H4200 C4229 0.950 . S
H4201 C4230 0.950 . S
H4202 C4232 0.950 . S
H4203 C4233 0.950 . S
C4204 H4186 0.951 . S
C4204 C4205 1.366 . S
C4204 C4206 1.388 . S
C4205 C4204 1.366 . S
C4205 C4209 1.385 . S
C4206 H4187 0.951 . S
C4206 C4204 1.388 . S
C4206 C4207 1.366 . S
C4207 C4206 1.366 . S
C4207 C4208 1.414 . S
C4207 C4210 1.499 . S
C4208 H4188 0.950 . S
C4208 C4207 1.414 . S
C4208 C4209 1.374 . S
C4209 H4189 0.950 . S
C4209 C4205 1.385 . S
C4209 C4208 1.374 . S
C4210 C4207 1.499 . S
C4210 C4211 1.373 . S
C4210 C4212 1.389 . S
C4211 H4190 0.950 . S
C4211 C4210 1.373 . S
C4211 C4227 1.377 . S
C4212 C4210 1.389 . S
C4212 C4213 1.524 . S
C4212 C4226 1.377 . S
C4213 C4212 1.524 . S
C4213 C4214 1.397 . S
C4213 C4218 1.363 . S
C4214 H4191 0.950 . S
C4214 C4213 1.397 . S
C4214 C4215 1.334 . S
C4215 H4192 0.950 . S
C4215 C4214 1.334 . S
C4215 C4216 1.287 . S
C4216 C4215 1.287 . S
C4216 C4217 1.524 . S
C4216 H4235 0.913 . S
C4217 H4193 0.950 . S
C4217 C4216 1.524 . S
C4217 C4218 1.415 . S
C4218 H4194 0.950 . S
C4218 C4213 1.363 . S
C4218 C4217 1.415 . S
C4219 H4195 0.951 . S
C4219 C4220 1.366 . S
C4219 C4221 1.388 . S
C4220 C4219 1.366 . S
C4220 C4224 1.385 . S
C4221 H4196 0.951 . S
C4221 C4219 1.388 . S
C4221 C4222 1.366 . S
C4222 C4221 1.366 . S
C4222 C4223 1.414 . S
C4222 C4225 1.499 . S
C4223 H4197 0.950 . S
C4223 C4222 1.414 . S
C4223 C4224 1.374 . S
C4224 H4198 0.950 . S
C4224 C4220 1.385 . S
C4224 C4223 1.374 . S
C4225 C4222 1.499 . S
C4225 C4226 1.373 . S
C4225 C4227 1.389 . S
C4226 H4199 0.950 . S
C4226 C4212 1.377 . S
C4226 C4225 1.373 . S
C4227 C4211 1.377 . S
C4227 C4225 1.389 . S
C4227 C4228 1.524 . S
C4228 C4227 1.524 . S
C4228 C4229 1.397 . S
C4228 C4233 1.363 . S
C4229 H4200 0.950 . S
C4229 C4228 1.397 . S
C4229 C4230 1.334 . S
C4230 H4201 0.950 . S
C4230 C4229 1.334 . S
C4230 C4231 1.287 . S
C4231 C4230 1.287 . S
C4231 C4232 1.524 . S
C4231 H4234 0.999 . S
C4232 H4202 0.950 . S
C4232 C4231 1.524 . S
C4232 C4233 1.415 . S
C4233 H4203 0.950 . S
C4233 C4228 1.363 . S
C4233 C4232 1.415 . S
H4234 C4231 0.999 . S
H4235 C4216 0.913 . S
H4236 C4254 0.951 . S
H4237 C4256 0.951 . S
H4238 C4258 0.950 . S
H4239 C4259 0.950 . S
H4240 C4261 0.950 . S
H4241 C4264 0.950 . S
H4242 C4265 0.950 . S
H4243 C4267 0.950 . S
H4244 C4268 0.950 . S
H4245 C4269 0.951 . S
H4246 C4271 0.951 . S
H4247 C4273 0.950 . S
H4248 C4274 0.950 . S
H4249 C4276 0.950 . S
H4250 C4279 0.950 . S
H4251 C4280 0.950 . S
H4252 C4282 0.950 . S
H4253 C4283 0.950 . S
C4254 H4236 0.951 . S
C4254 C4255 1.366 . S
C4254 C4256 1.388 . S
C4255 C4254 1.366 . S
C4255 C4259 1.385 . S
C4256 H4237 0.951 . S
C4256 C4254 1.388 . S
C4256 C4257 1.366 . S
C4257 C4256 1.366 . S
C4257 C4258 1.414 . S
C4257 C4260 1.499 . S
C4258 H4238 0.950 . S
C4258 C4257 1.414 . S
C4258 C4259 1.374 . S
C4259 H4239 0.950 . S
C4259 C4255 1.385 . S
C4259 C4258 1.374 . S
C4260 C4257 1.499 . S
C4260 C4261 1.373 . S
C4260 C4262 1.389 . S
C4261 H4240 0.950 . S
C4261 C4260 1.373 . S
C4261 C4277 1.377 . S
C4262 C4260 1.389 . S
C4262 C4263 1.524 . S
C4262 C4276 1.377 . S
C4263 C4262 1.524 . S
C4263 C4264 1.397 . S
C4263 C4268 1.363 . S
C4264 H4241 0.950 . S
C4264 C4263 1.397 . S
C4264 C4265 1.334 . S
C4265 H4242 0.950 . S
C4265 C4264 1.334 . S
C4265 C4266 1.287 . S
C4266 C4265 1.287 . S
C4266 C4267 1.524 . S
C4266 H4285 0.913 . S
C4267 H4243 0.950 . S
C4267 C4266 1.524 . S
C4267 C4268 1.415 . S
C4268 H4244 0.950 . S
C4268 C4263 1.363 . S
C4268 C4267 1.415 . S
C4269 H4245 0.951 . S
C4269 C4270 1.366 . S
C4269 C4271 1.388 . S
C4270 C4269 1.366 . S
C4270 C4274 1.385 . S
C4271 H4246 0.951 . S
C4271 C4269 1.388 . S
C4271 C4272 1.366 . S
C4272 C4271 1.366 . S
C4272 C4273 1.414 . S
C4272 C4275 1.499 . S
C4273 H4247 0.950 . S
C4273 C4272 1.414 . S
C4273 C4274 1.374 . S
C4274 H4248 0.950 . S
C4274 C4270 1.385 . S
C4274 C4273 1.374 . S
C4275 C4272 1.499 . S
C4275 C4276 1.373 . S
C4275 C4277 1.389 . S
C4276 H4249 0.950 . S
C4276 C4262 1.377 . S
C4276 C4275 1.373 . S
C4277 C4261 1.377 . S
C4277 C4275 1.389 . S
C4277 C4278 1.524 . S
C4278 C4277 1.524 . S
C4278 C4279 1.397 . S
C4278 C4283 1.363 . S
C4279 H4250 0.950 . S
C4279 C4278 1.397 . S
C4279 C4280 1.334 . S
C4280 H4251 0.950 . S
C4280 C4279 1.334 . S
C4280 C4281 1.287 . S
C4281 C4280 1.287 . S
C4281 C4282 1.524 . S
C4281 H4284 0.999 . S
C4282 H4252 0.950 . S
C4282 C4281 1.524 . S
C4282 C4283 1.415 . S
C4283 H4253 0.950 . S
C4283 C4278 1.363 . S
C4283 C4282 1.415 . S
H4284 C4281 0.999 . S
H4285 C4266 0.913 . S
H4286 C4304 0.951 . S
H4287 C4306 0.951 . S
H4288 C4308 0.950 . S
H4289 C4309 0.950 . S
H4290 C4311 0.950 . S
H4291 C4314 0.950 . S
H4292 C4315 0.950 . S
H4293 C4317 0.950 . S
H4294 C4318 0.950 . S
H4295 C4319 0.951 . S
H4296 C4321 0.951 . S
H4297 C4323 0.950 . S
H4298 C4324 0.950 . S
H4299 C4326 0.950 . S
H4300 C4329 0.950 . S
H4301 C4330 0.950 . S
H4302 C4332 0.950 . S
H4303 C4333 0.950 . S
C4304 H4286 0.951 . S
C4304 C4305 1.366 . S
C4304 C4306 1.388 . S
C4305 C4304 1.366 . S
C4305 C4309 1.385 . S
C4306 H4287 0.951 . S
C4306 C4304 1.388 . S
C4306 C4307 1.366 . S
C4307 C4306 1.366 . S
C4307 C4308 1.414 . S
C4307 C4310 1.499 . S
C4308 H4288 0.950 . S
C4308 C4307 1.414 . S
C4308 C4309 1.374 . S
C4309 H4289 0.950 . S
C4309 C4305 1.385 . S
C4309 C4308 1.374 . S
C4310 C4307 1.499 . S
C4310 C4311 1.373 . S
C4310 C4312 1.389 . S
C4311 H4290 0.950 . S
C4311 C4310 1.373 . S
C4311 C4327 1.377 . S
C4312 C4310 1.389 . S
C4312 C4313 1.524 . S
C4312 C4326 1.377 . S
C4313 C4312 1.524 . S
C4313 C4314 1.397 . S
C4313 C4318 1.363 . S
C4314 H4291 0.950 . S
C4314 C4313 1.397 . S
C4314 C4315 1.334 . S
C4315 H4292 0.950 . S
C4315 C4314 1.334 . S
C4315 C4316 1.287 . S
C4316 C4315 1.287 . S
C4316 C4317 1.524 . S
C4316 H4335 0.913 . S
C4317 H4293 0.950 . S
C4317 C4316 1.524 . S
C4317 C4318 1.415 . S
C4318 H4294 0.950 . S
C4318 C4313 1.363 . S
C4318 C4317 1.415 . S
C4319 H4295 0.951 . S
C4319 C4320 1.366 . S
C4319 C4321 1.388 . S
C4320 C4319 1.366 . S
C4320 C4324 1.385 . S
C4321 H4296 0.951 . S
C4321 C4319 1.388 . S
C4321 C4322 1.366 . S
C4322 C4321 1.366 . S
C4322 C4323 1.414 . S
C4322 C4325 1.499 . S
C4323 H4297 0.950 . S
C4323 C4322 1.414 . S
C4323 C4324 1.374 . S
C4324 H4298 0.950 . S
C4324 C4320 1.385 . S
C4324 C4323 1.374 . S
C4325 C4322 1.499 . S
C4325 C4326 1.373 . S
C4325 C4327 1.389 . S
C4326 H4299 0.950 . S
C4326 C4312 1.377 . S
C4326 C4325 1.373 . S
C4327 C4311 1.377 . S
C4327 C4325 1.389 . S
C4327 C4328 1.524 . S
C4328 C4327 1.524 . S
C4328 C4329 1.397 . S
C4328 C4333 1.363 . S
C4329 H4300 0.950 . S
C4329 C4328 1.397 . S
C4329 C4330 1.334 . S
C4330 H4301 0.950 . S
C4330 C4329 1.334 . S
C4330 C4331 1.287 . S
C4331 C4330 1.287 . S
C4331 C4332 1.524 . S
C4331 H4334 0.999 . S
C4332 H4302 0.950 . S
C4332 C4331 1.524 . S
C4332 C4333 1.415 . S
C4333 H4303 0.950 . S
C4333 C4328 1.363 . S
C4333 C4332 1.415 . S
H4334 C4331 0.999 . S
H4335 C4316 0.913 . S
H4336 C4354 0.951 . S
H4337 C4356 0.951 . S
H4338 C4358 0.950 . S
H4339 C4359 0.950 . S
H4340 C4361 0.950 . S
H4341 C4364 0.950 . S
H4342 C4365 0.950 . S
H4343 C4367 0.950 . S
H4344 C4368 0.950 . S
H4345 C4369 0.951 . S
H4346 C4371 0.951 . S
H4347 C4373 0.950 . S
H4348 C4374 0.950 . S
H4349 C4376 0.950 . S
H4350 C4379 0.950 . S
H4351 C4380 0.950 . S
H4352 C4382 0.950 . S
H4353 C4383 0.950 . S
C4354 H4336 0.951 . S
C4354 C4355 1.366 . S
C4354 C4356 1.388 . S
C4355 C4354 1.366 . S
C4355 C4359 1.385 . S
C4356 H4337 0.951 . S
C4356 C4354 1.388 . S
C4356 C4357 1.366 . S
C4357 C4356 1.366 . S
C4357 C4358 1.414 . S
C4357 C4360 1.499 . S
C4358 H4338 0.950 . S
C4358 C4357 1.414 . S
C4358 C4359 1.374 . S
C4359 H4339 0.950 . S
C4359 C4355 1.385 . S
C4359 C4358 1.374 . S
C4360 C4357 1.499 . S
C4360 C4361 1.373 . S
C4360 C4362 1.389 . S
C4361 H4340 0.950 . S
C4361 C4360 1.373 . S
C4361 C4377 1.377 . S
C4362 C4360 1.389 . S
C4362 C4363 1.524 . S
C4362 C4376 1.377 . S
C4363 C4362 1.524 . S
C4363 C4364 1.397 . S
C4363 C4368 1.363 . S
C4364 H4341 0.950 . S
C4364 C4363 1.397 . S
C4364 C4365 1.334 . S
C4365 H4342 0.950 . S
C4365 C4364 1.334 . S
C4365 C4366 1.287 . S
C4366 C4365 1.287 . S
C4366 C4367 1.524 . S
C4366 H4385 0.913 . S
C4367 H4343 0.950 . S
C4367 C4366 1.524 . S
C4367 C4368 1.415 . S
C4368 H4344 0.950 . S
C4368 C4363 1.363 . S
C4368 C4367 1.415 . S
C4369 H4345 0.951 . S
C4369 C4370 1.366 . S
C4369 C4371 1.388 . S
C4370 C4369 1.366 . S
C4370 C4374 1.385 . S
C4371 H4346 0.951 . S
C4371 C4369 1.388 . S
C4371 C4372 1.366 . S
C4372 C4371 1.366 . S
C4372 C4373 1.414 . S
C4372 C4375 1.499 . S
C4373 H4347 0.950 . S
C4373 C4372 1.414 . S
C4373 C4374 1.374 . S
C4374 H4348 0.950 . S
C4374 C4370 1.385 . S
C4374 C4373 1.374 . S
C4375 C4372 1.499 . S
C4375 C4376 1.373 . S
C4375 C4377 1.389 . S
C4376 H4349 0.950 . S
C4376 C4362 1.377 . S
C4376 C4375 1.373 . S
C4377 C4361 1.377 . S
C4377 C4375 1.389 . S
C4377 C4378 1.524 . S
C4378 C4377 1.524 . S
C4378 C4379 1.397 . S
C4378 C4383 1.363 . S
C4379 H4350 0.950 . S
C4379 C4378 1.397 . S
C4379 C4380 1.334 . S
C4380 H4351 0.950 . S
C4380 C4379 1.334 . S
C4380 C4381 1.287 . S
C4381 C4380 1.287 . S
C4381 C4382 1.524 . S
C4381 H4384 0.999 . S
C4382 H4352 0.950 . S
C4382 C4381 1.524 . S
C4382 C4383 1.415 . S
C4383 H4353 0.950 . S
C4383 C4378 1.363 . S
C4383 C4382 1.415 . S
H4384 C4381 0.999 . S
H4385 C4366 0.913 . S
H4386 C4404 0.951 . S
H4387 C4406 0.951 . S
H4388 C4408 0.950 . S
H4389 C4409 0.950 . S
H4390 C4411 0.950 . S
H4391 C4414 0.950 . S
H4392 C4415 0.950 . S
H4393 C4417 0.950 . S
H4394 C4418 0.950 . S
H4395 C4419 0.951 . S
H4396 C4421 0.951 . S
H4397 C4423 0.950 . S
H4398 C4424 0.950 . S
H4399 C4426 0.950 . S
H4400 C4429 0.950 . S
H4401 C4430 0.950 . S
H4402 C4432 0.950 . S
H4403 C4433 0.950 . S
C4404 H4386 0.951 . S
C4404 C4405 1.366 . S
C4404 C4406 1.388 . S
C4405 C4404 1.366 . S
C4405 C4409 1.385 . S
C4406 H4387 0.951 . S
C4406 C4404 1.388 . S
C4406 C4407 1.366 . S
C4407 C4406 1.366 . S
C4407 C4408 1.414 . S
C4407 C4410 1.499 . S
C4408 H4388 0.950 . S
C4408 C4407 1.414 . S
C4408 C4409 1.374 . S
C4409 H4389 0.950 . S
C4409 C4405 1.385 . S
C4409 C4408 1.374 . S
C4410 C4407 1.499 . S
C4410 C4411 1.373 . S
C4410 C4412 1.389 . S
C4411 H4390 0.950 . S
C4411 C4410 1.373 . S
C4411 C4427 1.377 . S
C4412 C4410 1.389 . S
C4412 C4413 1.524 . S
C4412 C4426 1.377 . S
C4413 C4412 1.524 . S
C4413 C4414 1.397 . S
C4413 C4418 1.363 . S
C4414 H4391 0.950 . S
C4414 C4413 1.397 . S
C4414 C4415 1.334 . S
C4415 H4392 0.950 . S
C4415 C4414 1.334 . S
C4415 C4416 1.287 . S
C4416 C4415 1.287 . S
C4416 C4417 1.524 . S
C4416 H4435 0.913 . S
C4417 H4393 0.950 . S
C4417 C4416 1.524 . S
C4417 C4418 1.415 . S
C4418 H4394 0.950 . S
C4418 C4413 1.363 . S
C4418 C4417 1.415 . S
C4419 H4395 0.951 . S
C4419 C4420 1.366 . S
C4419 C4421 1.388 . S
C4420 C4419 1.366 . S
C4420 C4424 1.385 . S
C4421 H4396 0.951 . S
C4421 C4419 1.388 . S
C4421 C4422 1.366 . S
C4422 C4421 1.366 . S
C4422 C4423 1.414 . S
C4422 C4425 1.499 . S
C4423 H4397 0.950 . S
C4423 C4422 1.414 . S
C4423 C4424 1.374 . S
C4424 H4398 0.950 . S
C4424 C4420 1.385 . S
C4424 C4423 1.374 . S
C4425 C4422 1.499 . S
C4425 C4426 1.373 . S
C4425 C4427 1.389 . S
C4426 H4399 0.950 . S
C4426 C4412 1.377 . S
C4426 C4425 1.373 . S
C4427 C4411 1.377 . S
C4427 C4425 1.389 . S
C4427 C4428 1.524 . S
C4428 C4427 1.524 . S
C4428 C4429 1.397 . S
C4428 C4433 1.363 . S
C4429 H4400 0.950 . S
C4429 C4428 1.397 . S
C4429 C4430 1.334 . S
C4430 H4401 0.950 . S
C4430 C4429 1.334 . S
C4430 C4431 1.287 . S
C4431 C4430 1.287 . S
C4431 C4432 1.524 . S
C4431 H4434 0.999 . S
C4432 H4402 0.950 . S
C4432 C4431 1.524 . S
C4432 C4433 1.415 . S
C4433 H4403 0.950 . S
C4433 C4428 1.363 . S
C4433 C4432 1.415 . S
H4434 C4431 0.999 . S
H4435 C4416 0.913 . S
H4436 C4454 0.951 . S
H4437 C4456 0.951 . S
H4438 C4458 0.950 . S
H4439 C4459 0.950 . S
H4440 C4461 0.950 . S
H4441 C4464 0.950 . S
H4442 C4465 0.950 . S
H4443 C4467 0.950 . S
H4444 C4468 0.950 . S
H4445 C4469 0.951 . S
H4446 C4471 0.951 . S
H4447 C4473 0.950 . S
H4448 C4474 0.950 . S
H4449 C4476 0.950 . S
H4450 C4479 0.950 . S
H4451 C4480 0.950 . S
H4452 C4482 0.950 . S
H4453 C4483 0.950 . S
C4454 H4436 0.951 . S
C4454 C4455 1.366 . S
C4454 C4456 1.388 . S
C4455 C4454 1.366 . S
C4455 C4459 1.385 . S
C4456 H4437 0.951 . S
C4456 C4454 1.388 . S
C4456 C4457 1.366 . S
C4457 C4456 1.366 . S
C4457 C4458 1.414 . S
C4457 C4460 1.499 . S
C4458 H4438 0.950 . S
C4458 C4457 1.414 . S
C4458 C4459 1.374 . S
C4459 H4439 0.950 . S
C4459 C4455 1.385 . S
C4459 C4458 1.374 . S
C4460 C4457 1.499 . S
C4460 C4461 1.373 . S
C4460 C4462 1.389 . S
C4461 H4440 0.950 . S
C4461 C4460 1.373 . S
C4461 C4477 1.377 . S
C4462 C4460 1.389 . S
C4462 C4463 1.524 . S
C4462 C4476 1.377 . S
C4463 C4462 1.524 . S
C4463 C4464 1.397 . S
C4463 C4468 1.363 . S
C4464 H4441 0.950 . S
C4464 C4463 1.397 . S
C4464 C4465 1.334 . S
C4465 H4442 0.950 . S
C4465 C4464 1.334 . S
C4465 C4466 1.287 . S
C4466 C4465 1.287 . S
C4466 C4467 1.524 . S
C4466 H4485 0.913 . S
C4467 H4443 0.950 . S
C4467 C4466 1.524 . S
C4467 C4468 1.415 . S
C4468 H4444 0.950 . S
C4468 C4463 1.363 . S
C4468 C4467 1.415 . S
C4469 H4445 0.951 . S
C4469 C4470 1.366 . S
C4469 C4471 1.388 . S
C4470 C4469 1.366 . S
C4470 C4474 1.385 . S
C4471 H4446 0.951 . S
C4471 C4469 1.388 . S
C4471 C4472 1.366 . S
C4472 C4471 1.366 . S
C4472 C4473 1.414 . S
C4472 C4475 1.499 . S
C4473 H4447 0.950 . S
C4473 C4472 1.414 . S
C4473 C4474 1.374 . S
C4474 H4448 0.950 . S
C4474 C4470 1.385 . S
C4474 C4473 1.374 . S
C4475 C4472 1.499 . S
C4475 C4476 1.373 . S
C4475 C4477 1.389 . S
C4476 H4449 0.950 . S
C4476 C4462 1.377 . S
C4476 C4475 1.373 . S
C4477 C4461 1.377 . S
C4477 C4475 1.389 . S
C4477 C4478 1.524 . S
C4478 C4477 1.524 . S
C4478 C4479 1.397 . S
C4478 C4483 1.363 . S
C4479 H4450 0.950 . S
C4479 C4478 1.397 . S
C4479 C4480 1.334 . S
C4480 H4451 0.950 . S
C4480 C4479 1.334 . S
C4480 C4481 1.287 . S
C4481 C4480 1.287 . S
C4481 C4482 1.524 . S
C4481 H4484 0.999 . S
C4482 H4452 0.950 . S
C4482 C4481 1.524 . S
C4482 C4483 1.415 . S
C4483 H4453 0.950 . S
C4483 C4478 1.363 . S
C4483 C4482 1.415 . S
H4484 C4481 0.999 . S
H4485 C4466 0.913 . S
H4486 C4504 0.951 . S
H4487 C4506 0.951 . S
H4488 C4508 0.950 . S
H4489 C4509 0.950 . S
H4490 C4511 0.950 . S
H4491 C4514 0.950 . S
H4492 C4515 0.950 . S
H4493 C4517 0.950 . S
H4494 C4518 0.950 . S
H4495 C4519 0.951 . S
H4496 C4521 0.951 . S
H4497 C4523 0.950 . S
H4498 C4524 0.950 . S
H4499 C4526 0.950 . S
H4500 C4529 0.950 . S
H4501 C4530 0.950 . S
H4502 C4532 0.950 . S
H4503 C4533 0.950 . S
C4504 H4486 0.951 . S
C4504 C4505 1.366 . S
C4504 C4506 1.388 . S
C4505 C4504 1.366 . S
C4505 C4509 1.385 . S
C4506 H4487 0.951 . S
C4506 C4504 1.388 . S
C4506 C4507 1.366 . S
C4507 C4506 1.366 . S
C4507 C4508 1.414 . S
C4507 C4510 1.499 . S
C4508 H4488 0.950 . S
C4508 C4507 1.414 . S
C4508 C4509 1.374 . S
C4509 H4489 0.950 . S
C4509 C4505 1.385 . S
C4509 C4508 1.374 . S
C4510 C4507 1.499 . S
C4510 C4511 1.373 . S
C4510 C4512 1.389 . S
C4511 H4490 0.950 . S
C4511 C4510 1.373 . S
C4511 C4527 1.377 . S
C4512 C4510 1.389 . S
C4512 C4513 1.524 . S
C4512 C4526 1.377 . S
C4513 C4512 1.524 . S
C4513 C4514 1.397 . S
C4513 C4518 1.363 . S
C4514 H4491 0.950 . S
C4514 C4513 1.397 . S
C4514 C4515 1.334 . S
C4515 H4492 0.950 . S
C4515 C4514 1.334 . S
C4515 C4516 1.287 . S
C4516 C4515 1.287 . S
C4516 C4517 1.524 . S
C4516 H4535 0.913 . S
C4517 H4493 0.950 . S
C4517 C4516 1.524 . S
C4517 C4518 1.415 . S
C4518 H4494 0.950 . S
C4518 C4513 1.363 . S
C4518 C4517 1.415 . S
C4519 H4495 0.951 . S
C4519 C4520 1.366 . S
C4519 C4521 1.388 . S
C4520 C4519 1.366 . S
C4520 C4524 1.385 . S
C4521 H4496 0.951 . S
C4521 C4519 1.388 . S
C4521 C4522 1.366 . S
C4522 C4521 1.366 . S
C4522 C4523 1.414 . S
C4522 C4525 1.499 . S
C4523 H4497 0.950 . S
C4523 C4522 1.414 . S
C4523 C4524 1.374 . S
C4524 H4498 0.950 . S
C4524 C4520 1.385 . S
C4524 C4523 1.374 . S
C4525 C4522 1.499 . S
C4525 C4526 1.373 . S
C4525 C4527 1.389 . S
C4526 H4499 0.950 . S
C4526 C4512 1.377 . S
C4526 C4525 1.373 . S
C4527 C4511 1.377 . S
C4527 C4525 1.389 . S
C4527 C4528 1.524 . S
C4528 C4527 1.524 . S
C4528 C4529 1.397 . S
C4528 C4533 1.363 . S
C4529 H4500 0.950 . S
C4529 C4528 1.397 . S
C4529 C4530 1.334 . S
C4530 H4501 0.950 . S
C4530 C4529 1.334 . S
C4530 C4531 1.287 . S
C4531 C4530 1.287 . S
C4531 C4532 1.524 . S
C4531 H4534 0.999 . S
C4532 H4502 0.950 . S
C4532 C4531 1.524 . S
C4532 C4533 1.415 . S
C4533 H4503 0.950 . S
C4533 C4528 1.363 . S
C4533 C4532 1.415 . S
H4534 C4531 0.999 . S
H4535 C4516 0.913 . S
C1855 C781 1.395 . S
C1870 C1136 1.335 . S
C1905 C871 1.416 . S
C1920 C1220 1.369 . S
C1955 C751 1.417 . S
C1970 C1314 1.407 . S
C2005 C691 1.376 . S
C2020 C1230 1.366 . S
C2070 C1304 1.296 . S
C2055 C571 1.344 . S
C2105 C601 1.360 . S
C2120 C1146 1.340 . S
C2170 C1147 1.336 . S
C2155 C661 1.374 . S
C2220 C1231 1.368 . S
C2205 C541 1.407 . S
C2255 C631 1.442 . S
C2270 C1323 1.408 . S
C2305 C811 1.395 . S
C2320 C1239 1.366 . S
C2355 C841 1.340 . S
C2370 C1315 1.297 . S
C2420 C1155 1.340 . S
C2405 C721 1.337 . S
C2470 C1388 1.335 . S
C2455 C61 1.395 . S
C2505 C151 1.415 . S
C2520 C1472 1.368 . S
C2555 C31 1.417 . S
C2570 C1566 1.408 . S
C2605 C1051 1.376 . S
C2620 C1482 1.367 . S
C2655 C931 1.345 . S
C2670 C1556 1.297 . S
C2705 C961 1.360 . S
C2720 C1398 1.340 . S
C2755 C1021 1.375 . S
C2770 C1399 1.335 . S
C2805 C901 1.406 . S
C2820 C1483 1.369 . S
C2870 C1575 1.407 . S
C2855 C991 1.441 . S
C2905 C91 1.394 . S
C2920 C1491 1.367 . S
C2970 C1567 1.297 . S
C2955 C121 1.339 . S
C3005 C1 1.337 . S
C3020 C1407 1.340 . S
C3070 C1640 1.336 . S
C3055 C421 1.394 . S
C3105 C511 1.416 . S
C3120 C1724 1.369 . S
C3170 C1818 1.406 . S
C3155 C391 1.416 . S
C3220 C1734 1.366 . S
C3205 C331 1.376 . S
C3270 C1808 1.297 . S
C3255 C211 1.345 . S
C3305 C241 1.360 . S
C3320 C1650 1.340 . S
C3355 C301 1.374 . S
C3370 C1651 1.334 . S
C3405 C181 1.407 . S
C3420 C1735 1.369 . S
C3470 C1827 1.407 . S
C3455 C271 1.441 . S
C3505 C451 1.394 . S
C3520 C1743 1.366 . S
C3555 C481 1.339 . S
C3570 C1819 1.297 . S
C3605 C361 1.337 . S
C3620 C1659 1.339 . S
C3655 C920 1.398 . S
C3670 C1143 1.305 . S
C3720 C1227 1.351 . S
C3705 C980 1.476 . S
C3755 C1040 1.427 . S
C3770 C1320 1.323 . S
C3805 C380 1.465 . S
C3820 C1236 1.352 . S
C3855 C440 1.434 . S
C3870 C1311 1.324 . S
C3920 C1152 1.305 . S
C3905 C500 1.399 . S
C3955 C200 1.399 . S
C3970 C1395 1.305 . S
C4005 C260 1.476 . S
C4020 C1479 1.352 . S
C4055 C320 1.428 . S
C4070 C1572 1.323 . S
C4105 C740 1.464 . S
C4120 C1488 1.350 . S
C4170 C1563 1.323 . S
C4155 C800 1.434 . S
C4205 C860 1.400 . S
C4220 C1404 1.305 . S
C4255 C560 1.398 . S
C4270 C1647 1.304 . S
C4305 C620 1.476 . S
C4320 C1731 1.351 . S
C4370 C1824 1.322 . S
C4355 C680 1.427 . S
C4405 C20 1.464 . S
C4420 C1740 1.350 . S
C4455 C80 1.434 . S
C4470 C1815 1.323 . S
C4505 C140 1.399 . S
C4520 C1656 1.304 . S
