# Generated by pormake.
# Topology nom, (4,4)-cn, num edge types: 1
# Building blocks:
#     Node 0, Type 0, BuildingBlock: GIZVER_clean_linker_0, # of connection points: 4
#     Node 1, Type 0, BuildingBlock: GIZVER_clean_linker_0, # of connection points: 4
#     Node 2, Type 0, BuildingBlock: GIZVER_clean_linker_0, # of connection points: 4
#     Node 3, Type 0, BuildingBlock: GIZVER_clean_linker_0, # of connection points: 4
#     Node 4, Type 0, BuildingBlock: GIZVER_clean_linker_0, # of connection points: 4
#     Node 5, Type 0, BuildingBlock: GIZVER_clean_linker_0, # of connection points: 4
#     Node 6, Type 1, BuildingBlock: GALJAG_clean_sbu_0, # of connection points: 4
#     Node 7, Type 1, BuildingBlock: GALJAG_clean_sbu_0, # of connection points: 4
#     Node 8, Type 1, BuildingBlock: GALJAG_clean_sbu_0, # of connection points: 4
#     Node 9, Type 1, BuildingBlock: GALJAG_clean_sbu_0, # of connection points: 4
#     Node 10, Type 1, BuildingBlock: GALJAG_clean_sbu_0, # of connection points: 4
#     Node 11, Type 1, BuildingBlock: GALJAG_clean_sbu_0, # of connection points: 4
#     Edge 12, Type (0, 1), BuildingBlock: XUDNAN_clean_linker_2, # of connection points: 2
#     Edge 13, Type (0, 1), BuildingBlock: XUDNAN_clean_linker_2, # of connection points: 2
#     Edge 14, Type (0, 1), BuildingBlock: XUDNAN_clean_linker_2, # of connection points: 2
#     Edge 15, Type (0, 1), BuildingBlock: XUDNAN_clean_linker_2, # of connection points: 2
#     Edge 16, Type (0, 1), BuildingBlock: XUDNAN_clean_linker_2, # of connection points: 2
#     Edge 17, Type (0, 1), BuildingBlock: XUDNAN_clean_linker_2, # of connection points: 2
#     Edge 18, Type (0, 1), BuildingBlock: XUDNAN_clean_linker_2, # of connection points: 2
#     Edge 19, Type (0, 1), BuildingBlock: XUDNAN_clean_linker_2, # of connection points: 2
#     Edge 20, Type (0, 1), BuildingBlock: XUDNAN_clean_linker_2, # of connection points: 2
#     Edge 21, Type (0, 1), BuildingBlock: XUDNAN_clean_linker_2, # of connection points: 2
#     Edge 22, Type (0, 1), BuildingBlock: XUDNAN_clean_linker_2, # of connection points: 2
#     Edge 23, Type (0, 1), BuildingBlock: XUDNAN_clean_linker_2, # of connection points: 2
#     Edge 24, Type (0, 1), BuildingBlock: XUDNAN_clean_linker_2, # of connection points: 2
#     Edge 25, Type (0, 1), BuildingBlock: XUDNAN_clean_linker_2, # of connection points: 2
#     Edge 26, Type (0, 1), BuildingBlock: XUDNAN_clean_linker_2, # of connection points: 2
#     Edge 27, Type (0, 1), BuildingBlock: XUDNAN_clean_linker_2, # of connection points: 2
#     Edge 28, Type (0, 1), BuildingBlock: XUDNAN_clean_linker_2, # of connection points: 2
#     Edge 29, Type (0, 1), BuildingBlock: XUDNAN_clean_linker_2, # of connection points: 2
#     Edge 30, Type (0, 1), BuildingBlock: XUDNAN_clean_linker_2, # of connection points: 2
#     Edge 31, Type (0, 1), BuildingBlock: XUDNAN_clean_linker_2, # of connection points: 2
#     Edge 32, Type (0, 1), BuildingBlock: XUDNAN_clean_linker_2, # of connection points: 2
#     Edge 33, Type (0, 1), BuildingBlock: XUDNAN_clean_linker_2, # of connection points: 2
#     Edge 34, Type (0, 1), BuildingBlock: XUDNAN_clean_linker_2, # of connection points: 2
#     Edge 35, Type (0, 1), BuildingBlock: XUDNAN_clean_linker_2, # of connection points: 2
# Relax obj value: 0.013
# Max RMSD: 0.088
# Mean RMSD: 0.072
data_MOF--net-nom--node1-GALJAG_clean_sbu_0--node2-GIZVER_clean_linker_0--edge1-XUDNAN_clean_linker_2
_symmetry_space_group_name_H-M    P1
_symmetry_Int_Tables_number       1
_symmetry_cell_setting            triclinic
loop_
_symmetry_equiv_pos_as_xyz
'x, y, z'
_cell_length_a     46.241422
_cell_length_b     46.234043
_cell_length_c     47.681327
_cell_angle_alpha  90.053806
_cell_angle_beta   90.058847
_cell_angle_gamma 119.9836
loop_
_atom_site_label
_atom_site_type_symbol
_atom_site_fract_x
_atom_site_fract_y
_atom_site_fract_z
_atom_type_partial_charge
H0 H 0.96296 0.56305 0.35136 0.0
H1 H 1.00206 0.54155 0.27715 0.0
H2 H 0.90623 0.46889 0.30929 0.0
H3 H 0.01171 0.6066 0.33013 0.0
H4 H 0.01809 0.60105 0.29417 0.0
H5 H 0.03567 0.5808 0.3667 0.0
H6 H 0.13868 0.61698 0.34689 0.0
H7 H 0.06968 0.606 0.28165 0.0
C8 C 0.96121 0.54553 0.33541 0.0
C9 C 0.93161 0.51463 0.3328 0.0
C10 C 0.98726 0.55512 0.31575 0.0
C11 C 0.9833 0.53339 0.29348 0.0
C12 C 0.95416 0.50211 0.29126 0.0
C13 C 0.92924 0.49256 0.31159 0.0
C14 C 0.01625 0.59052 0.3155 0.0
C15 C 0.04912 0.59294 0.32332 0.0
C16 C 0.05556 0.58888 0.35142 0.0
C17 C 0.08776 0.59662 0.35997 0.0
C18 C 0.11337 0.60833 0.33991 0.0
C19 C 0.10737 0.61141 0.31147 0.0
C20 C 0.07485 0.60326 0.30333 0.0
H21 H 0.42507 0.96706 0.52716 0.0
H22 H 0.44924 0.99814 0.44134 0.0
H23 H 0.41583 0.89649 0.46395 0.0
H24 H 0.42606 0.01698 0.51174 0.0
H25 H 0.42731 0.02532 0.47515 0.0
H26 H 0.48124 0.0312 0.53667 0.0
H27 H 0.56322 0.12414 0.50837 0.0
H28 H 0.47569 0.07178 0.45679 0.0
C29 C 0.42798 0.96126 0.50569 0.0
C30 C 0.42043 0.92868 0.49844 0.0
C31 C 0.43784 0.98623 0.48509 0.0
C32 C 0.4418 0.97895 0.4572 0.0
C33 C 0.43483 0.94673 0.44963 0.0
C34 C 0.42387 0.9219 0.4703 0.0
C35 C 0.43988 0.01907 0.49206 0.0
C36 C 0.47545 0.04705 0.49538 0.0
C37 C 0.49294 0.0498 0.52034 0.0
C38 C 0.52474 0.07747 0.52484 0.0
C39 C 0.53906 0.10227 0.50432 0.0
C40 C 0.5213 0.10104 0.4801 0.0
C41 C 0.48988 0.07274 0.47523 0.0
H42 H 0.41336 0.46371 0.6175 0.0
H43 H 0.45035 0.46395 0.70021 0.0
H44 H 0.41704 0.53294 0.67954 0.0
H45 H 0.41277 0.41464 0.63464 0.0
H46 H 0.41908 0.41136 0.67098 0.0
H47 H 0.46438 0.44714 0.60343 0.0
H48 H 0.53573 0.41623 0.62191 0.0
H49 H 0.46863 0.41251 0.68605 0.0
C50 C 0.42043 0.47483 0.63818 0.0
C51 C 0.4153 0.50144 0.64556 0.0
C52 C 0.43272 0.46099 0.65796 0.0
C53 C 0.44144 0.47502 0.68492 0.0
C54 C 0.43632 0.50143 0.69278 0.0
C55 C 0.42341 0.51441 0.67292 0.0
C56 C 0.43027 0.42766 0.65232 0.0
C57 C 0.46343 0.43024 0.64563 0.0
C58 C 0.47636 0.43883 0.61838 0.0
C59 C 0.50298 0.43443 0.60982 0.0
C60 C 0.5171 0.42213 0.62918 0.0
C61 C 0.50532 0.41428 0.65688 0.0
C62 C 0.47868 0.41903 0.66503 0.0
H63 H 0.97419 0.42773 0.788 0.0
H64 H 1.00337 0.44269 0.87467 0.0
H65 H 0.90308 0.4148 0.85198 0.0
H66 H 0.02129 0.42304 0.80248 0.0
H67 H 0.02771 0.41953 0.8388 0.0
H68 H 0.04387 0.48064 0.781 0.0
H69 H 0.13948 0.55107 0.81447 0.0
H70 H 0.07192 0.46537 0.86341 0.0
C71 C 0.96794 0.42875 0.80971 0.0
C72 C 0.9355 0.42169 0.81701 0.0
C73 C 0.99218 0.43547 0.8305 0.0
C74 C 0.98467 0.43748 0.85871 0.0
C75 C 0.95274 0.43117 0.86644 0.0
C76 C 0.92839 0.42272 0.84555 0.0
C77 C 0.02382 0.43518 0.82321 0.0
C78 C 0.05422 0.46966 0.82263 0.0
C79 C 0.06137 0.48931 0.79838 0.0
C80 C 0.09177 0.51924 0.79597 0.0
C81 C 0.11512 0.52934 0.8178 0.0
C82 C 0.10867 0.5103 0.84236 0.0
C83 C 0.07755 0.4807 0.84482 0.0
H84 H 0.60858 0.06851 0.0213 0.0
H85 H 0.59146 0.03524 0.93538 0.0
H86 H 0.60283 0.13067 0.95757 0.0
H87 H 0.62071 0.02522 0.00515 0.0
H88 H 0.61602 0.01338 0.96917 0.0
H89 H 0.56905 1.00449 0.03555 0.0
H90 H 0.49503 0.90313 0.01638 0.0
H91 H 0.56806 0.96267 0.9546 0.0
C92 C 0.60398 0.07211 -0.00036 0.0
C93 C 0.60418 0.10148 0.99185 0.0
C94 C 0.59912 0.04795 0.97928 0.0
C95 C 0.59452 0.05357 0.95105 0.0
C96 C 0.59585 0.08344 0.94282 0.0
C97 C 0.6001 0.10683 0.96356 0.0
C98 C 0.60363 0.01872 0.98682 0.0
C99 C 0.57102 0.98763 0.99379 0.0
C100 C 0.5573 0.98398 0.02076 0.0
C101 C 0.52999 0.95339 0.02926 0.0
C102 C 0.5157 0.92698 0.00992 0.0
C103 C 0.52938 0.9297 0.98314 0.0
C104 C 0.55665 0.96047 0.97491 0.0
H105 H 0.63964 0.57687 0.12357 0.0
H106 H 0.58604 0.56193 0.20094 0.0
H107 H 0.61129 0.48919 0.17365 0.0
H108 H 0.63669 0.62249 0.14363 0.0
H109 H 0.62722 0.62022 0.18003 0.0
H110 H 0.58611 0.59457 0.10907 0.0
H111 H 0.51494 0.6249 0.1298 0.0
H112 H 0.57888 0.62198 0.19392 0.0
C113 C 0.62691 0.56132 0.1415 0.0
C114 C 0.62678 0.53102 0.14549 0.0
C115 C 0.61209 0.57258 0.16135 0.0
C116 C 0.59629 0.55288 0.18501 0.0
C117 C 0.59518 0.52232 0.18879 0.0
C118 C 0.61027 0.51163 0.16911 0.0
C119 C 0.61734 0.60751 0.15953 0.0
C120 C 0.58571 0.60796 0.15233 0.0
C121 C 0.57397 0.60208 0.12454 0.0
C122 C 0.54768 0.60725 0.11649 0.0
C123 C 0.53323 0.61829 0.13661 0.0
C124 C 0.54373 0.62338 0.16474 0.0
C125 C 0.56993 0.61774 0.17248 0.0
In126 In 0.63307 0.39398 0.39937 0.0
O127 O 0.68595 0.42252 0.41825 0.0
O128 O 0.68122 0.41143 0.37478 0.0
C129 C 0.60041 0.40934 0.4382 0.0
C130 C 0.61182 0.41465 0.3552 0.0
C131 C 0.61377 0.32863 0.40695 0.0
O132 O 0.58587 0.38896 0.41849 0.0
O133 O 0.63175 0.42194 0.4387 0.0
O134 O 0.61675 0.34127 0.38299 0.0
O135 O 0.62122 0.34902 0.42692 0.0
C136 C 0.70056 0.42479 0.39535 0.0
O137 O 0.60115 0.3842 0.36037 0.0
O138 O 0.63381 0.43482 0.37202 0.0
In139 In 0.25216 0.63648 0.57777 0.0
O140 O 0.25942 0.59213 0.56781 0.0
O141 O 0.29691 0.63145 0.59208 0.0
C142 C 0.20797 0.62477 0.53578 0.0
C143 C 0.21736 0.61696 0.62613 0.0
C144 C 0.29254 0.7033 0.57221 0.0
O145 O 0.20445 0.63255 0.5603 0.0
O146 O 0.23404 0.62298 0.53213 0.0
O147 O 0.26918 0.69014 0.58976 0.0
O148 O 0.29601 0.68271 0.55719 0.0
C149 C 0.28678 0.60335 0.58069 0.0
O150 O 0.24195 0.64581 0.62246 0.0
O151 O 0.21095 0.59724 0.60574 0.0
In152 In 0.64741 0.25857 0.73043 0.0
O153 O 0.70034 0.28843 0.7136 0.0
O154 O 0.69227 0.29858 0.7554 0.0
C155 C 0.62614 0.21601 0.6863 0.0
C156 C 0.6375 0.2149 0.77227 0.0
C157 C 0.61379 0.29253 0.72546 0.0
O158 O 0.65652 0.23561 0.69161 0.0
O159 O 0.60615 0.2187 0.7026 0.0
O160 O 0.60492 0.26813 0.74182 0.0
O161 O 0.63985 0.3001 0.71158 0.0
C162 C 0.71294 0.30464 0.73585 0.0
O163 O 0.65201 0.21607 0.74966 0.0
O164 O 0.6284 0.23639 0.77433 0.0
In165 In 0.40253 0.63301 0.90816 0.0
O166 O 0.35119 0.59492 0.92532 0.0
O167 O 0.35297 0.62902 0.89475 0.0
C168 C 0.44084 0.62569 0.9469 0.0
C169 C 0.41123 0.59983 0.86529 0.0
C170 C 0.4276 0.6996 0.91304 0.0
O171 O 0.41083 0.61763 0.95154 0.0
O172 O 0.45157 0.63789 0.92294 0.0
O173 O 0.42421 0.68567 0.88949 0.0
O174 O 0.41769 0.67991 0.93367 0.0
C175 C 0.33509 0.60454 0.91042 0.0
O176 O 0.42149 0.63077 0.86398 0.0
O177 O 0.39613 0.58604 0.8876 0.0
In178 In 0.7816 0.38606 0.0805 0.0
O179 O 0.79314 0.37399 0.12429 0.0
O180 O 0.82409 0.42291 0.10846 0.0
C181 C 0.73188 0.32279 0.07014 0.0
C182 C 0.7535 0.42494 0.08594 0.0
C183 C 0.82463 0.39502 0.03842 0.0
O184 O 0.75729 0.32917 0.0845 0.0
O185 O 0.73148 0.34818 0.06102 0.0
O186 O 0.82395 0.38121 0.0613 0.0
O187 O 0.80304 0.40398 0.03628 0.0
C188 C 0.81836 0.40251 0.12807 0.0
O189 O 0.74226 0.39722 0.09831 0.0
O190 O 0.77902 0.43316 0.07105 0.0
In191 In 0.40072 0.77602 0.23736 0.0
O192 O 0.43689 0.76012 0.25436 0.0
O193 O 0.40904 0.73531 0.21795 0.0
C194 C 0.40581 0.81785 0.27911 0.0
C195 C 0.43526 0.8212 0.19695 0.0
C196 C 0.33383 0.73393 0.23838 0.0
O197 O 0.41459 0.79621 0.28227 0.0
O198 O 0.39383 0.81768 0.25534 0.0
O199 O 0.34822 0.75527 0.21928 0.0
O200 O 0.35324 0.73315 0.25662 0.0
C201 C 0.43083 0.73856 0.23561 0.0
O202 O 0.40553 0.79801 0.19332 0.0
O203 O 0.4476 0.8208 0.22041 0.0
H204 H 0.16345 0.6047 0.31152 0.0
H205 H 0.11748 0.65301 0.26636 0.0
H206 H 0.16835 0.6835 0.23791 0.0
H207 H 0.23933 0.67704 0.31994 0.0
H208 H 0.26451 0.65744 0.3171 0.0
H209 H 0.22226 0.63383 0.32954 0.0
H210 H 0.20857 0.58967 0.2906 0.0
H211 H 0.25092 0.61313 0.27805 0.0
H212 H 0.21658 0.60266 0.25444 0.0
H213 H 0.22658 0.71373 0.21797 0.0
H214 H 0.28756 0.74309 0.21024 0.0
H215 H 0.29712 0.67965 0.27212 0.0
C216 C 0.16374 0.62141 0.2955 0.0
C217 C 0.13604 0.62617 0.29135 0.0
C218 C 0.13776 0.6481 0.26976 0.0
C219 C 0.16677 0.6658 0.25353 0.0
C220 C 0.19402 0.66155 0.25915 0.0
C221 C 0.19274 0.63991 0.27969 0.0
C222 C 0.22658 0.64288 0.28414 0.0
C223 C 0.23888 0.65344 0.31447 0.0
C224 C 0.22559 0.61013 0.27633 0.0
C225 C 0.24741 0.67034 0.26348 0.0
C226 C 0.22801 0.68019 0.24875 0.0
C227 C 0.24192 0.706 0.2292 0.0
C228 C 0.27659 0.72252 0.22494 0.0
C229 C 0.29704 0.71363 0.24058 0.0
C230 C 0.28209 0.68688 0.25978 0.0
H231 H 0.54638 0.16466 0.49884 0.0
H232 H 0.52355 0.10655 0.42224 0.0
H233 H 0.5457 0.1588 0.3944 0.0
H234 H 0.5248 0.22408 0.47444 0.0
H235 H 0.55797 0.25829 0.49349 0.0
H236 H 0.54022 0.21635 0.50666 0.0
H237 H 0.59902 0.22232 0.50767 0.0
H238 H 0.61698 0.26426 0.49443 0.0
H239 H 0.62376 0.23404 0.47612 0.0
H240 H 0.57121 0.21869 0.37545 0.0
H241 H 0.59565 0.27942 0.3672 0.0
H242 H 0.60206 0.29641 0.45705 0.0
C243 C 0.54639 0.16282 0.47619 0.0
C244 C 0.53376 0.13159 0.46266 0.0
C245 C 0.53323 0.13026 0.43299 0.0
C246 C 0.54587 0.15978 0.41708 0.0
C247 C 0.55872 0.19024 0.43125 0.0
C248 C 0.55888 0.19177 0.46019 0.0
C249 C 0.57359 0.22722 0.47068 0.0
C250 C 0.54759 0.23173 0.48729 0.0
C251 C 0.60521 0.23756 0.48826 0.0
C252 C 0.58184 0.24569 0.44314 0.0
C253 C 0.57315 0.22409 0.42056 0.0
C254 C 0.57814 0.23574 0.39302 0.0
C255 C 0.59207 0.27024 0.38853 0.0
C256 C 0.60084 0.2926 0.41149 0.0
C257 C 0.5958 0.28 0.43906 0.0
H258 H 0.42511 0.56508 0.63991 0.0
H259 H 0.36332 0.46366 0.60932 0.0
H260 H 0.3276 0.48085 0.58459 0.0
H261 H 0.35915 0.57647 0.65743 0.0
H262 H 0.3792 0.62003 0.6481 0.0
H263 H 0.40402 0.60186 0.65856 0.0
H264 H 0.43715 0.62117 0.61202 0.0
H265 H 0.4126 0.63972 0.60147 0.0
H266 H 0.41498 0.60954 0.57908 0.0
H267 H 0.29428 0.50709 0.56826 0.0
H268 H 0.26635 0.54026 0.5616 0.0
H269 H 0.34748 0.62345 0.60567 0.0
C270 C 0.40442 0.54651 0.62764 0.0
C271 C 0.39732 0.51296 0.62658 0.0
C272 C 0.36997 0.48965 0.61009 0.0
C273 C 0.34928 0.49914 0.59609 0.0
C274 C 0.35616 0.53202 0.59873 0.0
C275 C 0.3832 0.5554 0.61399 0.0
C276 C 0.38316 0.58811 0.61608 0.0
C277 C 0.38126 0.59712 0.64686 0.0
C278 C 0.41379 0.6163 0.60127 0.0
C279 C 0.35129 0.57916 0.60034 0.0
C280 C 0.33639 0.54688 0.59008 0.0
C281 C 0.30594 0.53252 0.57591 0.0
C282 C 0.29022 0.55154 0.57229 0.0
C283 C 0.30475 0.58444 0.58308 0.0
C284 C 0.33586 0.59844 0.59704 0.0
H285 H 0.87887 0.42794 0.81829 0.0
H286 H 0.92787 0.38652 0.76779 0.0
H287 H 0.87874 0.35996 0.7371 0.0
H288 H 0.80418 0.35356 0.82093 0.0
H289 H 0.77787 0.37204 0.82091 0.0
H290 H 0.8196 0.39507 0.83468 0.0
H291 H 0.833 0.44364 0.80043 0.0
H292 H 0.79116 0.42077 0.78656 0.0
H293 H 0.82644 0.43537 0.76333 0.0
H294 H 0.82208 0.33246 0.71481 0.0
H295 H 0.76147 0.30242 0.70546 0.0
H296 H 0.74659 0.35424 0.7749 0.0
C297 C 0.87968 0.41349 0.80077 0.0
C298 C 0.90785 0.40968 0.79579 0.0
C299 C 0.90741 0.3909 0.77203 0.0
C300 C 0.87932 0.37537 0.75443 0.0
C301 C 0.85155 0.37835 0.76094 0.0
C302 C 0.85143 0.39674 0.78369 0.0
C303 C 0.81692 0.39196 0.78873 0.0
C304 C 0.80389 0.37727 0.81804 0.0
C305 C 0.81689 0.4249 0.7845 0.0
C306 C 0.79737 0.36709 0.76578 0.0
C307 C 0.81806 0.36044 0.74942 0.0
C308 C 0.8057 0.33765 0.72735 0.0
C309 C 0.77123 0.32073 0.7222 0.0
C310 C 0.7494 0.32601 0.73949 0.0
C311 C 0.76275 0.34981 0.76133 0.0
H312 H 0.51333 0.86744 0.0011 0.0
H313 H 0.51801 0.92219 0.92578 0.0
H314 H 0.49397 0.86937 0.89843 0.0
H315 H 0.53161 0.80772 0.97001 0.0
H316 H 0.50259 0.77421 0.99221 0.0
H317 H 0.52254 0.81665 0.00467 0.0
H318 H 0.46458 0.81037 0.01481 0.0
H319 H 0.44443 0.76796 0.00232 0.0
H320 H 0.4341 0.79729 0.98702 0.0
H321 H 0.46732 0.80863 0.88002 0.0
H322 H 0.44057 0.74735 0.87281 0.0
H323 H 0.45059 0.7344 0.96166 0.0
C324 C 0.50912 0.86852 0.97888 0.0
C325 C 0.51712 0.89899 0.96567 0.0
C326 C 0.51213 0.89918 0.93636 0.0
C327 C 0.49836 0.86928 0.92072 0.0
C328 C 0.48978 0.83952 0.93476 0.0
C329 C 0.49505 0.83914 0.96324 0.0
C330 C 0.48266 0.80417 0.97398 0.0
C331 C 0.51157 0.80048 0.98591 0.0
C332 C 0.45479 0.79438 0.99581 0.0
C333 C 0.46928 0.78459 0.94714 0.0
C334 C 0.47383 0.80524 0.92459 0.0
C335 C 0.46362 0.79234 0.8976 0.0
C336 C 0.44846 0.75756 0.89369 0.0
C337 C 0.44329 0.73617 0.91672 0.0
C338 C 0.45388 0.75005 0.94368 0.0
H339 H 0.61356 0.46746 0.13173 0.0
H340 H 0.68728 0.57213 0.1198 0.0
H341 H 0.7252 0.5557 0.09808 0.0
H342 H 0.67038 0.4458 0.15641 0.0
H343 H 0.65046 0.40468 0.14099 0.0
H344 H 0.62607 0.42388 0.14969 0.0
H345 H 0.60476 0.41644 0.09845 0.0
H346 H 0.62886 0.39685 0.0896 0.0
H347 H 0.63442 0.43265 0.07009 0.0
H348 H 0.75783 0.52805 0.08241 0.0
H349 H 0.78249 0.49181 0.07544 0.0
H350 H 0.68999 0.40613 0.10303 0.0
C351 C 0.63749 0.48709 0.12431 0.0
C352 C 0.64714 0.52123 0.12762 0.0
C353 C 0.67867 0.54582 0.11711 0.0
C354 C 0.70063 0.53671 0.10489 0.0
C355 C 0.69091 0.50293 0.10343 0.0
C356 C 0.66002 0.4785 0.11284 0.0
C357 C 0.65697 0.44431 0.11204 0.0
C358 C 0.65061 0.42878 0.14153 0.0
C359 C 0.62963 0.4212 0.0913 0.0
C360 C 0.69133 0.4534 0.10145 0.0
C361 C 0.71029 0.48721 0.09597 0.0
C362 C 0.74312 0.50152 0.08647 0.0
C363 C 0.75693 0.48078 0.08262 0.0
C364 C 0.73819 0.44626 0.08884 0.0
C365 C 0.70493 0.43248 0.09823 0.0
H366 H 0.42742 0.87279 0.50068 0.0
H367 H 0.37749 0.9196 0.54203 0.0
H368 H 0.34517 0.86894 0.57023 0.0
H369 H 0.35552 0.79775 0.49028 0.0
H370 H 0.37404 0.7718 0.49498 0.0
H371 H 0.39918 0.81404 0.48288 0.0
H372 H 0.44049 0.82687 0.52404 0.0
H373 H 0.41561 0.78448 0.5362 0.0
H374 H 0.42508 0.8188 0.55954 0.0
H375 H 0.31281 0.81109 0.58933 0.0
H376 H 0.28203 0.75026 0.59706 0.0
H377 H 0.34857 0.73902 0.53969 0.0
C378 C 0.41005 0.87274 0.51591 0.0
C379 C 0.40526 0.90056 0.51899 0.0
C380 C 0.38242 0.8992 0.53951 0.0
C381 C 0.36366 0.87031 0.55557 0.0
C382 C 0.36781 0.84285 0.55085 0.0
C383 C 0.39049 0.84382 0.53153 0.0
C384 C 0.38713 0.8097 0.52774 0.0
C385 C 0.37844 0.79763 0.49717 0.0
C386 C 0.41897 0.80999 0.53747 0.0
C387 C 0.35819 0.78911 0.54725 0.0
C388 C 0.34798 0.8089 0.56086 0.0
C389 C 0.32082 0.79542 0.57904 0.0
C390 C 0.30345 0.76081 0.58323 0.0
C391 C 0.3129 0.73993 0.56895 0.0
C392 C 0.34087 0.75439 0.55096 0.0
H393 H 0.56934 0.42396 0.6596 0.0
H394 H 0.47049 0.36464 0.69582 0.0
H395 H 0.48984 0.3313 0.72141 0.0
H396 H 0.57952 0.35598 0.64471 0.0
H397 H 0.62375 0.37711 0.65169 0.0
H398 H 0.60442 0.4006 0.64045 0.0
H399 H 0.62735 0.43832 0.68447 0.0
H400 H 0.64698 0.41506 0.6958 0.0
H401 H 0.61855 0.41954 0.7188 0.0
H402 H 0.51799 0.3004 0.73927 0.0
H403 H 0.5523 0.27391 0.74712 0.0
H404 H 0.63107 0.34997 0.69591 0.0
C405 C 0.5517 0.40422 0.67311 0.0
C406 C 0.51828 0.3973 0.67563 0.0
C407 C 0.49639 0.37127 0.69387 0.0
C408 C 0.50709 0.35189 0.70839 0.0
C409 C 0.53973 0.35859 0.70444 0.0
C410 C 0.56173 0.38416 0.68725 0.0
C411 C 0.59434 0.38407 0.68426 0.0
C412 C 0.60087 0.37913 0.65345 0.0
C413 C 0.62353 0.41616 0.69657 0.0
C414 C 0.58693 0.3539 0.70191 0.0
C415 C 0.55553 0.33994 0.71378 0.0
C416 C 0.54271 0.31129 0.73027 0.0
C417 C 0.56238 0.29639 0.73457 0.0
C418 C 0.59433 0.30985 0.72211 0.0
C419 C 0.60678 0.33915 0.70576 0.0
H420 H 0.15974 0.57339 0.85654 0.0
H421 H 0.12173 0.46833 0.87451 0.0
H422 H 0.1728 0.48317 0.90117 0.0
H423 H 0.23726 0.58786 0.83805 0.0
H424 H 0.26011 0.63001 0.85127 0.0
H425 H 0.21738 0.61283 0.84045 0.0
H426 H 0.20217 0.6258 0.88936 0.0
H427 H 0.24503 0.64331 0.90032 0.0
H428 H 0.21212 0.61025 0.9204 0.0
H429 H 0.23123 0.50828 0.92018 0.0
H430 H 0.29235 0.54068 0.92718 0.0
H431 H 0.29475 0.62779 0.89085 0.0
C432 C 0.16173 0.55335 0.86631 0.0
C433 C 0.13626 0.51955 0.86317 0.0
C434 C 0.14016 0.49448 0.8769 0.0
C435 C 0.16936 0.50265 0.89202 0.0
C436 C 0.19468 0.53598 0.89312 0.0
C437 C 0.19114 0.56093 0.88055 0.0
C438 C 0.22369 0.59392 0.88088 0.0
C439 C 0.23528 0.60689 0.85089 0.0
C440 C 0.22055 0.61985 0.89882 0.0
C441 C 0.24647 0.58339 0.89468 0.0
C442 C 0.22904 0.55012 0.90239 0.0
C443 C 0.24502 0.53442 0.91451 0.0
C444 C 0.27974 0.55301 0.9184 0.0
C445 C 0.2982 0.58669 0.90953 0.0
C446 C 0.28121 0.60211 0.89791 0.0
H447 H 0.65987 0.13381 0.02482 0.0
H448 H 0.56874 0.13284 0.00185 0.0
H449 H 0.58915 0.18731 0.02527 0.0
H450 H 0.67413 0.18042 0.09414 0.0
H451 H 0.71861 0.20323 0.08851 0.0
H452 H 0.69397 0.16122 0.07532 0.0
H453 H 0.71742 0.18216 0.02555 0.0
H454 H 0.7416 0.22423 0.03838 0.0
H455 H 0.71259 0.215 0.0099 0.0
H456 H 0.62343 0.24575 0.04218 0.0
H457 H 0.6675 0.30253 0.05569 0.0
H458 H 0.73629 0.26588 0.06934 0.0
C459 C 0.64362 0.14437 0.026 0.0
C460 C 0.61254 0.12901 0.01197 0.0
C461 C 0.59243 0.14412 0.01284 0.0
C462 C 0.60385 0.17504 0.02604 0.0
C463 C 0.63535 0.19043 0.03849 0.0
C464 C 0.65475 0.17537 0.0391 0.0
C465 C 0.68905 0.1988 0.05121 0.0
C466 C 0.69424 0.1851 0.07895 0.0
C467 C 0.71677 0.20543 0.02999 0.0
C468 C 0.6864 0.2298 0.05608 0.0
C469 C 0.6551 0.22433 0.0488 0.0
C470 C 0.64772 0.25011 0.04868 0.0
C471 C 0.67294 0.28231 0.05618 0.0
C472 C 0.70507 0.28841 0.06387 0.0
C473 C 0.71167 0.26169 0.06418 0.0
H474 H 0.47927 0.6123 0.16621 0.0
H475 H 0.57534 0.66823 0.20802 0.0
H476 H 0.55356 0.69823 0.23559 0.0
H477 H 0.47031 0.68114 0.15501 0.0
H478 H 0.42561 0.65956 0.15928 0.0
H479 H 0.44579 0.63709 0.14753 0.0
H480 H 0.41924 0.59531 0.18859 0.0
H481 H 0.39876 0.61757 0.20043 0.0
H482 H 0.42518 0.61073 0.22409 0.0
H483 H 0.52353 0.72693 0.25473 0.0
H484 H 0.48908 0.75342 0.26202 0.0
H485 H 0.41529 0.68325 0.20365 0.0
C486 C 0.49581 0.63059 0.18133 0.0
C487 C 0.5292 0.63768 0.18476 0.0
C488 C 0.54952 0.66159 0.20521 0.0
C489 C 0.53741 0.67902 0.22092 0.0
C490 C 0.50497 0.6725 0.2159 0.0
C491 C 0.48447 0.64884 0.19655 0.0
C492 C 0.45223 0.64936 0.19242 0.0
C493 C 0.44828 0.65727 0.16175 0.0
C494 C 0.42207 0.61627 0.20196 0.0
C495 C 0.45817 0.67774 0.21185 0.0
C496 C 0.48836 0.6902 0.22575 0.0
C497 C 0.49973 0.71717 0.24415 0.0
C498 C 0.47999 0.73206 0.24815 0.0
C499 C 0.44955 0.7204 0.23338 0.0
C500 C 0.43841 0.69263 0.21527 0.0
H501 H 0.86989 0.49275 0.31109 0.0
H502 H 0.92387 0.51917 0.38997 0.0
H503 H 0.87057 0.5014 0.41534 0.0
H504 H 0.80909 0.51733 0.32898 0.0
H505 H 0.7761 0.48285 0.31003 0.0
H506 H 0.81876 0.50029 0.29875 0.0
H507 H 0.81324 0.44175 0.3019 0.0
H508 H 0.77066 0.42415 0.3133 0.0
H509 H 0.80008 0.4189 0.3344 0.0
H510 H 0.80946 0.47707 0.43166 0.0
H511 H 0.74799 0.4497 0.43721 0.0
H512 H 0.73612 0.43827 0.34694 0.0
C513 C 0.87062 0.49485 0.33374 0.0
C514 C 0.90092 0.50691 0.34866 0.0
C515 C 0.90088 0.50997 0.37819 0.0
C516 C 0.87074 0.49985 0.3927 0.0
C517 C 0.84111 0.48706 0.37725 0.0
C518 C 0.84105 0.48479 0.34836 0.0
C519 C 0.80619 0.4691 0.33636 0.0
C520 C 0.80232 0.49388 0.31742 0.0
C521 C 0.79701 0.43655 0.32057 0.0
C522 C 0.78625 0.46229 0.36301 0.0
C523 C 0.80666 0.473 0.38644 0.0
C524 C 0.79338 0.46877 0.41339 0.0
C525 C 0.75847 0.45318 0.41635 0.0
C526 C 0.73732 0.44181 0.3925 0.0
C527 C 0.75159 0.44662 0.36559 0.0
H528 H 0.13161 0.57869 0.38176 0.0
H529 H 0.06395 0.61378 0.4063 0.0
H530 H 0.08395 0.61975 0.45508 0.0
H531 H 0.12941 0.53579 0.44759 0.0
H532 H 0.17338 0.54965 0.44584 0.0
H533 H 0.14972 0.54273 0.41401 0.0
H534 H 0.19128 0.60317 0.39812 0.0
H535 H 0.21488 0.6104 0.42995 0.0
H536 H 0.19896 0.63763 0.42067 0.0
H537 H 0.11527 0.62732 0.50013 0.0
H538 H 0.15538 0.63588 0.5379 0.0
H539 H 0.20544 0.59992 0.48297 0.0
C540 C 0.12064 0.58727 0.3974 0.0
C541 C 0.09606 0.59566 0.39005 0.0
C542 C 0.08228 0.60654 0.41134 0.0
C543 C 0.09367 0.61025 0.43913 0.0
C544 C 0.11888 0.60305 0.44531 0.0
C545 C 0.13211 0.59167 0.42505 0.0
C546 C 0.16103 0.58857 0.43645 0.0
C547 C 0.15288 0.552 0.43594 0.0
C548 C 0.19344 0.6113 0.42034 0.0
C549 C 0.16257 0.60076 0.46616 0.0
C550 C 0.13771 0.60849 0.47098 0.0
C551 C 0.13464 0.62108 0.49666 0.0
C552 C 0.15759 0.62592 0.51795 0.0
C553 C 0.18352 0.6186 0.51332 0.0
C554 C 0.18587 0.60573 0.4871 0.0
H555 H 0.50131 0.08924 0.57286 0.0
H556 H 0.58608 0.08644 0.53761 0.0
H557 H 0.61995 0.11644 0.57913 0.0
H558 H 0.54375 0.16878 0.59387 0.0
H559 H 0.52163 0.16478 0.62605 0.0
H560 H 0.50116 0.1356 0.59795 0.0
H561 H 0.48825 0.08598 0.63073 0.0
H562 H 0.50785 0.11492 0.65932 0.0
H563 H 0.52167 0.08593 0.65021 0.0
H564 H 0.64719 0.15611 0.61859 0.0
H565 H 0.66498 0.19849 0.65604 0.0
H566 H 0.56269 0.17653 0.66579 0.0
C567 C 0.52639 0.09324 0.5748 0.0
C568 C 0.54097 0.08481 0.5526 0.0
C569 C 0.5744 0.09199 0.55487 0.0
C570 C 0.59379 0.10917 0.57827 0.0
C571 C 0.57929 0.11891 0.59912 0.0
C572 C 0.54614 0.1107 0.5979 0.0
C573 C 0.53786 0.12788 0.62105 0.0
C574 C 0.52538 0.1506 0.60899 0.0
C575 C 0.5124 0.10214 0.64155 0.0
C576 C 0.5718 0.14814 0.63469 0.0
C577 C 0.59525 0.14233 0.62191 0.0
C578 C 0.62891 0.16027 0.62921 0.0
C579 C 0.63882 0.18451 0.65031 0.0
C580 C 0.61517 0.19066 0.66385 0.0
C581 C 0.58122 0.17205 0.65601 0.0
H582 H 0.45827 0.56488 0.71312 0.0
H583 H 0.41908 0.46216 0.73982 0.0
H584 H 0.4141 0.47808 0.78802 0.0
H585 H 0.50212 0.60605 0.77981 0.0
H586 H 0.49018 0.63756 0.77691 0.0
H587 H 0.49681 0.6196 0.74571 0.0
H588 H 0.43743 0.60324 0.7284 0.0
H589 H 0.4304 0.62067 0.75964 0.0
H590 H 0.402 0.57775 0.7504 0.0
H591 H 0.4054 0.50264 0.83124 0.0
H592 H 0.39648 0.53514 0.86768 0.0
H593 H 0.4391 0.62178 0.81307 0.0
C594 C 0.44931 0.54585 0.72921 0.0
C595 C 0.43932 0.51227 0.72258 0.0
C596 C 0.42767 0.48817 0.74432 0.0
C597 C 0.42447 0.49693 0.7718 0.0
C598 C 0.43307 0.52987 0.77727 0.0
C599 C 0.44559 0.55408 0.75669 0.0
C600 C 0.44994 0.58689 0.76748 0.0
C601 C 0.48697 0.61413 0.76748 0.0
C602 C 0.42867 0.59775 0.75047 0.0
C603 C 0.43684 0.577 0.79709 0.0
C604 C 0.4276 0.54409 0.80233 0.0
C605 C 0.41303 0.52858 0.82756 0.0
C606 C 0.40788 0.54722 0.84806 0.0
C607 C 0.41716 0.58099 0.84321 0.0
C608 C 0.432 0.59608 0.81742 0.0
H609 H 0.91217 0.45247 0.88926 0.0
H610 H 0.97003 0.4052 0.91105 0.0
H611 H 0.94679 0.39509 0.9589 0.0
H612 H 0.91446 0.48932 0.95873 0.0
H613 H 0.8719 0.48031 0.95557 0.0
H614 H 0.89724 0.4887 0.92465 0.0
H615 H 0.8525 0.4323 0.90329 0.0
H616 H 0.82722 0.42353 0.93421 0.0
H617 H 0.83963 0.39424 0.92254 0.0
H618 H 0.91262 0.38443 0.00245 0.0
H619 H 0.87137 0.37555 0.0391 0.0
H620 H 0.83359 0.42717 0.98804 0.0
C621 C 0.9204 0.44046 0.90422 0.0
C622 C 0.94307 0.42976 0.89636 0.0
C623 C 0.95323 0.41423 0.91663 0.0
C624 C 0.93996 0.40815 0.94384 0.0
C625 C 0.91663 0.41779 0.95044 0.0
C626 C 0.90712 0.43385 0.93127 0.0
C627 C 0.87961 0.43917 0.94278 0.0
C628 C 0.89153 0.4766 0.94561 0.0
C629 C 0.84787 0.42123 0.92463 0.0
C630 C 0.8745 0.42283 0.97122 0.0
C631 C 0.89637 0.411 0.97533 0.0
C632 C 0.89563 0.3939 -0.00042 0.0
C633 C 0.87202 0.38887 0.02022 0.0
C634 C 0.8493 0.40067 0.01638 0.0
C635 C 0.85069 0.41794 0.99157 0.0
H636 H 0.46663 0.91417 0.05047 0.0
H637 H 0.57032 0.97484 0.07584 0.0
H638 H 0.55548 0.95192 0.12355 0.0
H639 H 0.42695 0.91198 0.11973 0.0
H640 H 0.39562 0.86877 0.11483 0.0
H641 H 0.41267 0.89593 0.0849 0.0
H642 H 0.42882 0.85468 0.06295 0.0
H643 H 0.41254 0.82777 0.09296 0.0
H644 H 0.45523 0.84347 0.08237 0.0
H645 H 0.53174 0.91577 0.1658 0.0
H646 H 0.50008 0.8713 0.20035 0.0
H647 H 0.41272 0.8309 0.14647 0.0
C648 C 0.48613 0.92334 0.06622 0.0
C649 C 0.51969 0.94644 0.05924 0.0
C650 C 0.54433 0.95777 0.0806 0.0
C651 C 0.53618 0.94461 0.1078 0.0
C652 C 0.50331 0.92019 0.11335 0.0
C653 C 0.47855 0.90992 0.09325 0.0
C654 C 0.44615 0.88045 0.1034 0.0
C655 C 0.41872 0.88986 0.10587 0.0
C656 C 0.43506 0.8498 0.08428 0.0
C657 C 0.45687 0.875 0.13198 0.0
C658 C 0.48978 0.89852 0.13749 0.0
C659 C 0.50581 0.89756 0.16192 0.0
C660 C 0.48767 0.87207 0.18132 0.0
C661 C 0.45396 0.84766 0.17606 0.0
C662 C 0.43842 0.84928 0.15108 0.0
H663 H 0.62092 0.54306 0.2408 0.0
H664 H 0.54516 0.45807 0.19482 0.0
H665 H 0.53566 0.42193 0.23602 0.0
H666 H 0.65811 0.50328 0.26846 0.0
H667 H 0.66847 0.52348 0.30227 0.0
H668 H 0.66357 0.5445 0.27255 0.0
H669 H 0.61853 0.55166 0.29881 0.0
H670 H 0.62379 0.53128 0.32902 0.0
H671 H 0.58298 0.51563 0.31371 0.0
H672 H 0.54195 0.39366 0.27803 0.0
H673 H 0.56143 0.37547 0.31901 0.0
H674 H 0.63432 0.47872 0.3375 0.0
C675 C 0.60111 0.51723 0.24008 0.0
C676 C 0.58307 0.50333 0.21512 0.0
C677 C 0.55854 0.46911 0.21414 0.0
C678 C 0.55311 0.44847 0.23737 0.0
C679 C 0.57248 0.46254 0.26132 0.0
C680 C 0.59571 0.49625 0.263 0.0
C681 C 0.61642 0.50427 0.28953 0.0
C682 C 0.65383 0.51978 0.28278 0.0
C683 C 0.61003 0.52706 0.30892 0.0
C684 C 0.60228 0.46965 0.30182 0.0
C685 C 0.57661 0.44601 0.28547 0.0
C686 C 0.56151 0.412 0.29133 0.0
C687 C 0.5729 0.4019 0.31453 0.0
C688 C 0.59928 0.42571 0.33144 0.0
C689 C 0.61385 0.46 0.32511 0.0
H690 H 0.45628 0.90531 0.42901 0.0
H691 H 0.41279 0.96536 0.40323 0.0
H692 H 0.40459 0.94182 0.35549 0.0
H693 H 0.49625 0.90629 0.36141 0.0
H694 H 0.48601 0.86342 0.36528 0.0
H695 H 0.49347 0.88913 0.39589 0.0
H696 H 0.43564 0.84544 0.41551 0.0
H697 H 0.42776 0.81985 0.38484 0.0
H698 H 0.39875 0.83335 0.39469 0.0
H699 H 0.39502 0.90693 0.31237 0.0
H700 H 0.38721 0.86524 0.27634 0.0
H701 H 0.43451 0.82604 0.33107 0.0
C702 C 0.44558 0.914 0.41319 0.0
C703 C 0.43528 0.9373 0.41988 0.0
C704 C 0.42145 0.94804 0.39855 0.0
C705 C 0.41645 0.9346 0.3714 0.0
C706 C 0.42552 0.91056 0.36594 0.0
C707 C 0.4401 0.9006 0.38617 0.0
C708 C 0.4451 0.87247 0.3757 0.0
C709 C 0.48243 0.8835 0.37449 0.0
C710 C 0.42565 0.84092 0.39376 0.0
C711 C 0.43027 0.86755 0.3466 0.0
C712 C 0.41942 0.88998 0.34128 0.0
C713 C 0.40376 0.8895 0.31618 0.0
C714 C 0.3993 0.86563 0.29592 0.0
C715 C 0.41024 0.84242 0.30094 0.0
C716 C 0.42594 0.84349 0.32664 0.0
H717 H 0.56628 0.45934 0.58865 0.0
H718 H 0.46249 0.41533 0.56339 0.0
H719 H 0.47805 0.41125 0.51481 0.0
H720 H 0.60466 0.50396 0.52122 0.0
H721 H 0.63773 0.49416 0.52372 0.0
H722 H 0.61967 0.50013 0.55515 0.0
H723 H 0.60658 0.44183 0.57281 0.0
H724 H 0.62419 0.4355 0.5414 0.0
H725 H 0.58192 0.40564 0.55118 0.0
H726 H 0.5027 0.40298 0.47134 0.0
H727 H 0.53539 0.39365 0.43528 0.0
H728 H 0.62317 0.44169 0.48859 0.0
C729 C 0.54694 0.44961 0.57276 0.0
C730 C 0.51318 0.4379 0.57988 0.0
C731 C 0.48861 0.42519 0.55846 0.0
C732 C 0.49718 0.42255 0.53077 0.0
C733 C 0.53044 0.43291 0.52478 0.0
C734 C 0.55503 0.44655 0.54509 0.0
C735 C 0.58821 0.45243 0.53389 0.0
C736 C 0.6141 0.4899 0.53347 0.0
C737 C 0.60095 0.43267 0.55083 0.0
C738 C 0.5781 0.43869 0.50446 0.0
C739 C 0.54476 0.42796 0.49954 0.0
C740 C 0.52898 0.41191 0.47472 0.0
C741 C 0.5477 0.40654 0.45444 0.0
C742 C 0.58181 0.41713 0.45912 0.0
C743 C 0.59726 0.43382 0.4843 0.0
H744 H 0.09416 0.49643 0.7437 0.0
H745 H 0.11485 0.58565 0.78968 0.0
H746 H 0.14504 0.62027 0.74875 0.0
H747 H 0.17066 0.52765 0.71436 0.0
H748 H 0.15758 0.50772 0.68057 0.0
H749 H 0.13164 0.48902 0.7108 0.0
H750 H 0.08185 0.48915 0.68603 0.0
H751 H 0.10739 0.50718 0.65535 0.0
H752 H 0.08712 0.52753 0.67162 0.0
H753 H 0.18109 0.64535 0.70717 0.0
H754 H 0.21619 0.65955 0.66485 0.0
H755 H 0.17173 0.55424 0.64477 0.0
C756 C 0.10369 0.5231 0.74456 0.0
C757 C 0.10187 0.53848 0.76956 0.0
C758 C 0.11574 0.57354 0.7705 0.0
C759 C 0.13295 0.59333 0.74741 0.0
C760 C 0.13581 0.57761 0.72351 0.0
C761 C 0.12105 0.54324 0.72165 0.0
C762 C 0.13067 0.53295 0.6946 0.0
C763 C 0.14871 0.51318 0.70046 0.0
C764 C 0.09992 0.51303 0.67578 0.0
C765 C 0.15421 0.56689 0.68217 0.0
C766 C 0.15662 0.59227 0.69914 0.0
C767 C 0.17886 0.62574 0.69337 0.0
C768 C 0.1989 0.63354 0.66944 0.0
C769 C 0.19651 0.60799 0.65154 0.0
C770 C 0.17373 0.57426 0.65794 0.0
H771 H 0.57074 0.12014 0.91782 0.0
H772 H 0.62659 0.06968 0.89969 0.0
H773 H 0.63846 0.09381 0.85231 0.0
H774 H 0.53893 0.11832 0.84589 0.0
H775 H 0.54505 0.15983 0.84943 0.0
H776 H 0.53527 0.13341 0.87983 0.0
H777 H 0.58827 0.17938 0.90468 0.0
H778 H 0.59849 0.20574 0.8743 0.0
H779 H 0.62835 0.19515 0.88803 0.0
H780 H 0.65047 0.12876 0.8093 0.0
H781 H 0.66037 0.17087 0.77318 0.0
H782 H 0.60051 0.20209 0.82051 0.0
C783 C 0.58501 0.11365 0.90379 0.0
C784 C 0.59755 0.09277 0.91268 0.0
C785 C 0.61596 0.08489 0.89341 0.0
C786 C 0.62314 0.09876 0.86644 0.0
C787 C 0.61182 0.12054 0.85898 0.0
C788 C 0.59296 0.12779 0.87702 0.0
C789 C 0.58671 0.15454 0.86501 0.0
C790 C 0.54926 0.14068 0.85972 0.0
C791 C 0.60134 0.18552 0.88414 0.0
C792 C 0.60581 0.16186 0.83772 0.0
C793 C 0.61968 0.14161 0.83449 0.0
C794 C 0.63942 0.14449 0.81145 0.0
C795 C 0.64502 0.16858 0.79111 0.0
C796 C 0.63124 0.18976 0.79408 0.0
C797 C 0.61134 0.18624 0.81769 0.0
H798 H 0.48402 0.58197 0.09653 0.0
H799 H 0.58718 0.62788 0.06936 0.0
H800 H 0.56991 0.63231 0.02127 0.0
H801 H 0.44403 0.53768 0.03015 0.0
H802 H 0.41053 0.54669 0.03389 0.0
H803 H 0.43019 0.54144 0.0646 0.0
H804 H 0.44292 0.59956 0.08263 0.0
H805 H 0.42374 0.60521 0.05188 0.0
H806 H 0.46619 0.6357 0.06071 0.0
H807 H 0.54244 0.63847 0.97783 0.0
H808 H 0.50684 0.64438 0.94225 0.0
H809 H 0.4223 0.5972 -0.00115 0.0
C810 C 0.50293 0.59236 0.08035 0.0
C811 C 0.53696 0.60449 0.08673 0.0
C812 C 0.5609 0.61787 0.06494 0.0
C813 C 0.55134 0.62069 0.03757 0.0
C814 C 0.51777 0.60991 0.03237 0.0
C815 C 0.4939 0.59574 0.05314 0.0
C816 C 0.4601 0.58912 0.04299 0.0
C817 C 0.43472 0.55149 0.0429 0.0
C818 C 0.44753 0.60856 0.0606 0.0
C819 C 0.46884 0.6027 0.01349 0.0
C820 C 0.50211 0.61415 0.00761 0.0
C821 C 0.51627 0.62918 0.98208 0.0
C822 C 0.49589 0.63254 0.96206 0.0
C823 C 0.46184 0.62123 0.96782 0.0
C824 C 0.44821 0.60596 0.99382 0.0
H825 H 0.95266 0.5234 0.23864 0.0
H826 H 0.9321 0.43542 0.28618 0.0
H827 H 0.89906 0.39961 0.24655 0.0
H828 H 0.87576 0.49421 0.2139 0.0
H829 H 0.88612 0.51231 0.17934 0.0
H830 H 0.91516 0.53165 0.20772 0.0
H831 H 0.9613 0.52783 0.18008 0.0
H832 H 0.93277 0.50944 0.15105 0.0
H833 H 0.95293 0.48821 0.16592 0.0
H834 H 0.85873 0.37373 0.20679 0.0
H835 H 0.82002 0.35956 0.16662 0.0
H836 H 0.86716 0.46447 0.14471 0.0
C837 C 0.9429 0.49672 0.23998 0.0
C838 C 0.94536 0.4821 0.26517 0.0
C839 C 0.93092 0.44699 0.2668 0.0
C840 C 0.91197 0.42651 0.24446 0.0
C841 C 0.90803 0.4416 0.2206 0.0
C842 C 0.92379 0.47596 0.2179 0.0
C843 C 0.91247 0.48586 0.19159 0.0
C844 C 0.89643 0.50725 0.19858 0.0
C845 C 0.9416 0.50389 0.17093 0.0
C846 C 0.88681 0.45181 0.18063 0.0
C847 C 0.88476 0.42657 0.19752 0.0
C848 C 0.86072 0.39322 0.193 0.0
C849 C 0.83862 0.38544 0.17034 0.0
C850 C 0.84075 0.41091 0.15254 0.0
C851 C 0.86524 0.44445 0.15779 0.0
loop_
_geom_bond_atom_site_label_1
_geom_bond_atom_site_label_2
_geom_bond_distance
_geom_bond_site_symmetry_2
_ccdc_geom_bond_type
H0 C8 0.930 . S
H1 C11 0.930 . S
H2 C13 0.930 . S
H3 C14 0.970 . S
H4 C14 0.970 . S
H5 C16 0.930 . S
H6 C18 0.930 . S
H7 C20 0.930 . S
C8 H0 0.930 . S
C8 C9 1.382 . S
C8 C10 1.426 . S
C9 C8 1.382 . S
C9 C13 1.389 . S
C10 C8 1.426 . S
C10 C11 1.375 . S
C10 C14 1.532 1_655 S
C11 H1 0.930 . S
C11 C10 1.375 . S
C11 C12 1.416 . S
C12 C11 1.416 . S
C12 C13 1.371 . S
C13 H2 0.930 . S
C13 C9 1.389 . S
C13 C12 1.371 . S
C14 H3 0.970 . S
C14 H4 0.970 . S
C14 C10 1.532 1_455 S
C14 C15 1.499 . S
C15 C14 1.499 . S
C15 C16 1.370 . S
C15 C20 1.415 . S
C16 H5 0.930 . S
C16 C15 1.370 . S
C16 C17 1.407 . S
C17 C16 1.407 . S
C17 C18 1.365 . S
C18 H6 0.930 . S
C18 C17 1.365 . S
C18 C19 1.393 . S
C19 C18 1.393 . S
C19 C20 1.387 . S
C20 H7 0.930 . S
C20 C15 1.415 . S
C20 C19 1.387 . S
H21 C29 0.930 . S
H22 C32 0.930 . S
H23 C34 0.930 . S
H24 C35 0.970 . S
H25 C35 0.970 . S
H26 C37 0.930 . S
H27 C39 0.930 . S
H28 C41 0.930 . S
C29 H21 0.930 . S
C29 C30 1.382 . S
C29 C31 1.426 . S
C30 C29 1.382 . S
C30 C34 1.389 . S
C31 C29 1.426 . S
C31 C32 1.375 . S
C31 C35 1.532 1_565 S
C32 H22 0.930 . S
C32 C31 1.375 . S
C32 C33 1.416 . S
C33 C32 1.416 . S
C33 C34 1.371 . S
C34 H23 0.930 . S
C34 C30 1.389 . S
C34 C33 1.371 . S
C35 H24 0.970 . S
C35 H25 0.970 . S
C35 C31 1.532 1_545 S
C35 C36 1.499 . S
C36 C35 1.499 . S
C36 C37 1.370 . S
C36 C41 1.415 . S
C37 H26 0.930 . S
C37 C36 1.370 . S
C37 C38 1.407 . S
C38 C37 1.407 . S
C38 C39 1.365 . S
C39 H27 0.930 . S
C39 C38 1.365 . S
C39 C40 1.393 . S
C40 C39 1.393 . S
C40 C41 1.387 . S
C41 H28 0.930 . S
C41 C36 1.415 . S
C41 C40 1.387 . S
H42 C50 0.930 . S
H43 C53 0.930 . S
H44 C55 0.930 . S
H45 C56 0.970 . S
H46 C56 0.970 . S
H47 C58 0.930 . S
H48 C60 0.930 . S
H49 C62 0.930 . S
C50 H42 0.930 . S
C50 C51 1.382 . S
C50 C52 1.426 . S
C51 C50 1.382 . S
C51 C55 1.389 . S
C52 C50 1.426 . S
C52 C53 1.375 . S
C52 C56 1.532 . S
C53 H43 0.930 . S
C53 C52 1.375 . S
C53 C54 1.416 . S
C54 C53 1.416 . S
C54 C55 1.371 . S
C55 H44 0.930 . S
C55 C51 1.389 . S
C55 C54 1.371 . S
C56 H45 0.970 . S
C56 H46 0.970 . S
C56 C52 1.532 . S
C56 C57 1.499 . S
C57 C56 1.499 . S
C57 C58 1.370 . S
C57 C62 1.415 . S
C58 H47 0.930 . S
C58 C57 1.370 . S
C58 C59 1.407 . S
C59 C58 1.407 . S
C59 C60 1.365 . S
C60 H48 0.930 . S
C60 C59 1.365 . S
C60 C61 1.393 . S
C61 C60 1.393 . S
C61 C62 1.387 . S
C62 H49 0.930 . S
C62 C57 1.415 . S
C62 C61 1.387 . S
H63 C71 0.930 . S
H64 C74 0.930 . S
H65 C76 0.930 . S
H66 C77 0.970 . S
H67 C77 0.970 . S
H68 C79 0.930 . S
H69 C81 0.930 . S
H70 C83 0.930 . S
C71 H63 0.930 . S
C71 C72 1.382 . S
C71 C73 1.426 . S
C72 C71 1.382 . S
C72 C76 1.389 . S
C73 C71 1.426 . S
C73 C74 1.375 . S
C73 C77 1.532 1_655 S
C74 H64 0.930 . S
C74 C73 1.375 . S
C74 C75 1.416 . S
C75 C74 1.416 . S
C75 C76 1.371 . S
C76 H65 0.930 . S
C76 C72 1.389 . S
C76 C75 1.371 . S
C77 H66 0.970 . S
C77 H67 0.970 . S
C77 C73 1.532 1_455 S
C77 C78 1.499 . S
C78 C77 1.499 . S
C78 C79 1.370 . S
C78 C83 1.415 . S
C79 H68 0.930 . S
C79 C78 1.370 . S
C79 C80 1.407 . S
C80 C79 1.407 . S
C80 C81 1.365 . S
C81 H69 0.930 . S
C81 C80 1.365 . S
C81 C82 1.393 . S
C82 C81 1.393 . S
C82 C83 1.387 . S
C83 H70 0.930 . S
C83 C78 1.415 . S
C83 C82 1.387 . S
H84 C92 0.930 . S
H85 C95 0.930 . S
H86 C97 0.930 . S
H87 C98 0.970 1_554 S
H88 C98 0.970 . S
H89 C100 0.930 . S
H90 C102 0.930 . S
H91 C104 0.930 . S
C92 H84 0.930 . S
C92 C93 1.382 1_554 S
C92 C94 1.426 1_554 S
C93 C92 1.382 1_556 S
C93 C97 1.389 . S
C94 C92 1.426 1_556 S
C94 C95 1.375 . S
C94 C98 1.532 . S
C95 H85 0.930 . S
C95 C94 1.375 . S
C95 C96 1.416 . S
C96 C95 1.416 . S
C96 C97 1.371 . S
C97 H86 0.930 . S
C97 C93 1.389 . S
C97 C96 1.371 . S
C98 H87 0.970 1_556 S
C98 H88 0.970 . S
C98 C94 1.532 . S
C98 C99 1.499 1_545 S
C99 C98 1.499 1_565 S
C99 C100 1.370 1_556 S
C99 C104 1.416 . S
C100 H89 0.930 . S
C100 C99 1.370 1_554 S
C100 C101 1.407 . S
C101 C100 1.407 . S
C101 C102 1.365 . S
C102 H90 0.930 . S
C102 C101 1.365 . S
C102 C103 1.393 1_554 S
C103 C102 1.393 1_556 S
C103 C104 1.387 . S
C104 H91 0.930 . S
C104 C99 1.416 . S
C104 C103 1.387 . S
H105 C113 0.930 . S
H106 C116 0.930 . S
H107 C118 0.930 . S
H108 C119 0.970 . S
H109 C119 0.970 . S
H110 C121 0.930 . S
H111 C123 0.930 . S
H112 C125 0.930 . S
C113 H105 0.930 . S
C113 C114 1.382 . S
C113 C115 1.426 . S
C114 C113 1.382 . S
C114 C118 1.389 . S
C115 C113 1.426 . S
C115 C116 1.375 . S
C115 C119 1.532 . S
C116 H106 0.930 . S
C116 C115 1.375 . S
C116 C117 1.416 . S
C117 C116 1.416 . S
C117 C118 1.371 . S
C118 H107 0.930 . S
C118 C114 1.389 . S
C118 C117 1.371 . S
C119 H108 0.970 . S
C119 H109 0.970 . S
C119 C115 1.532 . S
C119 C120 1.499 . S
C120 C119 1.499 . S
C120 C121 1.370 . S
C120 C125 1.415 . S
C121 H110 0.930 . S
C121 C120 1.370 . S
C121 C122 1.407 . S
C122 C121 1.407 . S
C122 C123 1.365 . S
C123 H111 0.930 . S
C123 C122 1.365 . S
C123 C124 1.393 . S
C124 C123 1.393 . S
C124 C125 1.387 . S
C125 H112 0.930 . S
C125 C120 1.415 . S
C125 C124 1.387 . S
In126 O127 2.294 . S
In126 O128 2.326 . S
In126 O132 2.266 . S
In126 O133 2.326 . S
In126 O134 2.266 . S
In126 O135 2.326 . S
In126 O137 2.294 . S
In126 O138 2.326 . S
O127 In126 2.294 . S
O127 C136 1.240 . S
O128 In126 2.326 . S
O128 C136 1.252 . S
C129 O132 1.252 . S
C129 O133 1.260 . S
C130 O137 1.240 . S
C130 O138 1.252 . S
C131 O134 1.252 . S
C131 O135 1.260 . S
O132 In126 2.266 . S
O132 C129 1.252 . S
O133 In126 2.326 . S
O133 C129 1.260 . S
O134 In126 2.266 . S
O134 C131 1.252 . S
O135 In126 2.326 . S
O135 C131 1.260 . S
C136 O127 1.240 . S
C136 O128 1.252 . S
O137 In126 2.294 . S
O137 C130 1.240 . S
O138 In126 2.326 . S
O138 C130 1.252 . S
In139 O140 2.294 . S
In139 O141 2.326 . S
In139 O145 2.266 . S
In139 O146 2.326 . S
In139 O147 2.266 . S
In139 O148 2.326 . S
In139 O150 2.294 . S
In139 O151 2.326 . S
O140 In139 2.294 . S
O140 C149 1.240 . S
O141 In139 2.326 . S
O141 C149 1.252 . S
C142 O145 1.252 . S
C142 O146 1.260 . S
C143 O150 1.240 . S
C143 O151 1.252 . S
C144 O147 1.252 . S
C144 O148 1.260 . S
O145 In139 2.266 . S
O145 C142 1.252 . S
O146 In139 2.326 . S
O146 C142 1.260 . S
O147 In139 2.266 . S
O147 C144 1.252 . S
O148 In139 2.326 . S
O148 C144 1.260 . S
C149 O140 1.240 . S
C149 O141 1.252 . S
O150 In139 2.294 . S
O150 C143 1.240 . S
O151 In139 2.326 . S
O151 C143 1.252 . S
In152 O153 2.294 . S
In152 O154 2.326 . S
In152 O158 2.266 . S
In152 O159 2.326 . S
In152 O160 2.266 . S
In152 O161 2.326 . S
In152 O163 2.294 . S
In152 O164 2.326 . S
O153 In152 2.294 . S
O153 C162 1.240 . S
O154 In152 2.326 . S
O154 C162 1.252 . S
C155 O158 1.252 . S
C155 O159 1.260 . S
C156 O163 1.240 . S
C156 O164 1.252 . S
C157 O160 1.252 . S
C157 O161 1.260 . S
O158 In152 2.266 . S
O158 C155 1.252 . S
O159 In152 2.326 . S
O159 C155 1.260 . S
O160 In152 2.266 . S
O160 C157 1.252 . S
O161 In152 2.326 . S
O161 C157 1.260 . S
C162 O153 1.240 . S
C162 O154 1.252 . S
O163 In152 2.294 . S
O163 C156 1.240 . S
O164 In152 2.326 . S
O164 C156 1.252 . S
In165 O166 2.294 . S
In165 O167 2.326 . S
In165 O171 2.266 . S
In165 O172 2.326 . S
In165 O173 2.266 . S
In165 O174 2.326 . S
In165 O176 2.294 . S
In165 O177 2.326 . S
O166 In165 2.294 . S
O166 C175 1.240 . S
O167 In165 2.326 . S
O167 C175 1.252 . S
C168 O171 1.252 . S
C168 O172 1.260 . S
C169 O176 1.240 . S
C169 O177 1.252 . S
C170 O173 1.252 . S
C170 O174 1.260 . S
O171 In165 2.266 . S
O171 C168 1.252 . S
O172 In165 2.326 . S
O172 C168 1.260 . S
O173 In165 2.266 . S
O173 C170 1.252 . S
O174 In165 2.326 . S
O174 C170 1.260 . S
C175 O166 1.240 . S
C175 O167 1.252 . S
O176 In165 2.294 . S
O176 C169 1.240 . S
O177 In165 2.326 . S
O177 C169 1.252 . S
In178 O179 2.294 . S
In178 O180 2.326 . S
In178 O184 2.266 . S
In178 O185 2.326 . S
In178 O186 2.266 . S
In178 O187 2.326 . S
In178 O189 2.294 . S
In178 O190 2.326 . S
O179 In178 2.294 . S
O179 C188 1.240 . S
O180 In178 2.326 . S
O180 C188 1.252 . S
C181 O184 1.252 . S
C181 O185 1.260 . S
C182 O189 1.240 . S
C182 O190 1.252 . S
C183 O186 1.252 . S
C183 O187 1.260 . S
O184 In178 2.266 . S
O184 C181 1.252 . S
O185 In178 2.326 . S
O185 C181 1.260 . S
O186 In178 2.266 . S
O186 C183 1.252 . S
O187 In178 2.326 . S
O187 C183 1.260 . S
C188 O179 1.240 . S
C188 O180 1.252 . S
O189 In178 2.294 . S
O189 C182 1.240 . S
O190 In178 2.326 . S
O190 C182 1.252 . S
In191 O192 2.294 . S
In191 O193 2.326 . S
In191 O197 2.266 . S
In191 O198 2.326 . S
In191 O199 2.266 . S
In191 O200 2.326 . S
In191 O202 2.294 . S
In191 O203 2.326 . S
O192 In191 2.294 . S
O192 C201 1.240 . S
O193 In191 2.326 . S
O193 C201 1.252 . S
C194 O197 1.252 . S
C194 O198 1.260 . S
C195 O202 1.240 . S
C195 O203 1.252 . S
C196 O199 1.252 . S
C196 O200 1.260 . S
O197 In191 2.266 . S
O197 C194 1.252 . S
O198 In191 2.326 . S
O198 C194 1.260 . S
O199 In191 2.266 . S
O199 C196 1.252 . S
O200 In191 2.326 . S
O200 C196 1.260 . S
C201 O192 1.240 . S
C201 O193 1.252 . S
O202 In191 2.294 . S
O202 C195 1.240 . S
O203 In191 2.326 . S
O203 C195 1.252 . S
H204 C216 0.930 . S
H205 C218 0.930 . S
H206 C219 0.930 . S
H207 C223 0.959 . S
H208 C223 0.959 . S
H209 C223 0.961 . S
H210 C224 0.960 . S
H211 C224 0.961 . S
H212 C224 0.959 . S
H213 C227 0.929 . S
H214 C228 0.931 . S
H215 C230 0.930 . S
C216 H204 0.930 . S
C216 C217 1.399 . S
C216 C221 1.399 . S
C217 C216 1.399 . S
C217 C218 1.376 . S
C218 H205 0.930 . S
C218 C217 1.376 . S
C218 C219 1.388 . S
C219 H206 0.930 . S
C219 C218 1.388 . S
C219 C220 1.390 . S
C220 C219 1.390 . S
C220 C221 1.394 . S
C220 C226 1.465 . S
C221 C216 1.399 . S
C221 C220 1.394 . S
C221 C222 1.516 . S
C222 C221 1.516 . S
C222 C223 1.502 . S
C222 C224 1.561 . S
C222 C225 1.526 . S
C223 H207 0.959 . S
C223 H208 0.959 . S
C223 H209 0.961 . S
C223 C222 1.502 . S
C224 H210 0.960 . S
C224 H211 0.961 . S
C224 H212 0.959 . S
C224 C222 1.561 . S
C225 C222 1.526 . S
C225 C226 1.396 . S
C225 C230 1.390 . S
C226 C220 1.465 . S
C226 C225 1.396 . S
C226 C227 1.399 . S
C227 H213 0.929 . S
C227 C226 1.399 . S
C227 C228 1.385 . S
C228 H214 0.931 . S
C228 C227 1.385 . S
C228 C229 1.389 . S
C229 C228 1.389 . S
C229 C230 1.387 . S
C230 H215 0.930 . S
C230 C225 1.390 . S
C230 C229 1.387 . S
H231 C243 0.930 . S
H232 C245 0.930 . S
H233 C246 0.930 . S
H234 C250 0.959 . S
H235 C250 0.959 . S
H236 C250 0.961 . S
H237 C251 0.960 . S
H238 C251 0.961 . S
H239 C251 0.959 . S
H240 C254 0.929 . S
H241 C255 0.931 . S
H242 C257 0.930 . S
C243 H231 0.930 . S
C243 C244 1.399 . S
C243 C248 1.399 . S
C244 C243 1.399 . S
C244 C245 1.376 . S
C245 H232 0.930 . S
C245 C244 1.376 . S
C245 C246 1.388 . S
C246 H233 0.930 . S
C246 C245 1.388 . S
C246 C247 1.390 . S
C247 C246 1.390 . S
C247 C248 1.394 . S
C247 C253 1.465 . S
C248 C243 1.399 . S
C248 C247 1.394 . S
C248 C249 1.516 . S
C249 C248 1.516 . S
C249 C250 1.502 . S
C249 C251 1.561 . S
C249 C252 1.526 . S
C250 H234 0.959 . S
C250 H235 0.959 . S
C250 H236 0.961 . S
C250 C249 1.502 . S
C251 H237 0.960 . S
C251 H238 0.961 . S
C251 H239 0.959 . S
C251 C249 1.561 . S
C252 C249 1.526 . S
C252 C253 1.396 . S
C252 C257 1.390 . S
C253 C247 1.465 . S
C253 C252 1.396 . S
C253 C254 1.399 . S
C254 H240 0.929 . S
C254 C253 1.399 . S
C254 C255 1.385 . S
C255 H241 0.931 . S
C255 C254 1.385 . S
C255 C256 1.389 . S
C256 C255 1.389 . S
C256 C257 1.387 . S
C257 H242 0.930 . S
C257 C252 1.390 . S
C257 C256 1.387 . S
H258 C270 0.930 . S
H259 C272 0.930 . S
H260 C273 0.930 . S
H261 C277 0.959 . S
H262 C277 0.959 . S
H263 C277 0.961 . S
H264 C278 0.960 . S
H265 C278 0.961 . S
H266 C278 0.959 . S
H267 C281 0.929 . S
H268 C282 0.931 . S
H269 C284 0.930 . S
C270 H258 0.930 . S
C270 C271 1.399 . S
C270 C275 1.399 . S
C271 C270 1.399 . S
C271 C272 1.376 . S
C272 H259 0.930 . S
C272 C271 1.376 . S
C272 C273 1.388 . S
C273 H260 0.930 . S
C273 C272 1.388 . S
C273 C274 1.390 . S
C274 C273 1.390 . S
C274 C275 1.394 . S
C274 C280 1.465 . S
C275 C270 1.399 . S
C275 C274 1.394 . S
C275 C276 1.516 . S
C276 C275 1.516 . S
C276 C277 1.502 . S
C276 C278 1.561 . S
C276 C279 1.526 . S
C277 H261 0.959 . S
C277 H262 0.959 . S
C277 H263 0.961 . S
C277 C276 1.502 . S
C278 H264 0.960 . S
C278 H265 0.961 . S
C278 H266 0.959 . S
C278 C276 1.561 . S
C279 C276 1.526 . S
C279 C280 1.396 . S
C279 C284 1.390 . S
C280 C274 1.465 . S
C280 C279 1.396 . S
C280 C281 1.399 . S
C281 H267 0.929 . S
C281 C280 1.399 . S
C281 C282 1.385 . S
C282 H268 0.931 . S
C282 C281 1.385 . S
C282 C283 1.389 . S
C283 C282 1.389 . S
C283 C284 1.387 . S
C284 H269 0.930 . S
C284 C279 1.390 . S
C284 C283 1.387 . S
H285 C297 0.930 . S
H286 C299 0.930 . S
H287 C300 0.930 . S
H288 C304 0.959 . S
H289 C304 0.959 . S
H290 C304 0.961 . S
H291 C305 0.960 . S
H292 C305 0.961 . S
H293 C305 0.959 . S
H294 C308 0.929 . S
H295 C309 0.931 . S
H296 C311 0.930 . S
C297 H285 0.930 . S
C297 C298 1.399 . S
C297 C302 1.399 . S
C298 C297 1.399 . S
C298 C299 1.376 . S
C299 H286 0.930 . S
C299 C298 1.376 . S
C299 C300 1.388 . S
C300 H287 0.930 . S
C300 C299 1.388 . S
C300 C301 1.390 . S
C301 C300 1.390 . S
C301 C302 1.394 . S
C301 C307 1.465 . S
C302 C297 1.399 . S
C302 C301 1.394 . S
C302 C303 1.516 . S
C303 C302 1.516 . S
C303 C304 1.502 . S
C303 C305 1.561 . S
C303 C306 1.526 . S
C304 H288 0.959 . S
C304 H289 0.959 . S
C304 H290 0.961 . S
C304 C303 1.502 . S
C305 H291 0.960 . S
C305 H292 0.961 . S
C305 H293 0.959 . S
C305 C303 1.561 . S
C306 C303 1.526 . S
C306 C307 1.396 . S
C306 C311 1.390 . S
C307 C301 1.465 . S
C307 C306 1.396 . S
C307 C308 1.399 . S
C308 H294 0.929 . S
C308 C307 1.399 . S
C308 C309 1.385 . S
C309 H295 0.931 . S
C309 C308 1.385 . S
C309 C310 1.389 . S
C310 C309 1.389 . S
C310 C311 1.387 . S
C311 H296 0.930 . S
C311 C306 1.390 . S
C311 C310 1.387 . S
H312 C324 0.930 1_554 S
H313 C326 0.930 . S
H314 C327 0.930 . S
H315 C331 0.959 . S
H316 C331 0.959 1_554 S
H317 C331 0.961 1_554 S
H318 C332 0.960 . S
H319 C332 0.961 . S
H320 C332 0.959 . S
H321 C335 0.929 . S
H322 C336 0.931 . S
H323 C338 0.930 . S
C324 H312 0.930 1_556 S
C324 C325 1.399 . S
C324 C329 1.399 . S
C325 C324 1.399 . S
C325 C326 1.376 . S
C326 H313 0.930 . S
C326 C325 1.376 . S
C326 C327 1.388 . S
C327 H314 0.930 . S
C327 C326 1.388 . S
C327 C328 1.390 . S
C328 C327 1.390 . S
C328 C329 1.394 . S
C328 C334 1.465 . S
C329 C324 1.399 . S
C329 C328 1.394 . S
C329 C330 1.516 . S
C330 C329 1.516 . S
C330 C331 1.502 . S
C330 C332 1.561 1_556 S
C330 C333 1.526 . S
C331 H315 0.959 . S
C331 H316 0.959 1_556 S
C331 H317 0.961 1_556 S
C331 C330 1.502 . S
C332 H318 0.960 . S
C332 H319 0.961 . S
C332 H320 0.959 . S
C332 C330 1.561 1_554 S
C333 C330 1.526 . S
C333 C334 1.396 . S
C333 C338 1.390 . S
C334 C328 1.465 . S
C334 C333 1.396 . S
C334 C335 1.399 . S
C335 H321 0.929 . S
C335 C334 1.399 . S
C335 C336 1.385 . S
C336 H322 0.931 . S
C336 C335 1.385 . S
C336 C337 1.389 . S
C337 C336 1.389 . S
C337 C338 1.387 . S
C338 H323 0.930 . S
C338 C333 1.390 . S
C338 C337 1.387 . S
H339 C351 0.930 . S
H340 C353 0.930 . S
H341 C354 0.930 . S
H342 C358 0.959 . S
H343 C358 0.959 . S
H344 C358 0.961 . S
H345 C359 0.960 . S
H346 C359 0.961 . S
H347 C359 0.959 . S
H348 C362 0.929 . S
H349 C363 0.931 . S
H350 C365 0.930 . S
C351 H339 0.930 . S
C351 C352 1.399 . S
C351 C356 1.399 . S
C352 C351 1.399 . S
C352 C353 1.376 . S
C353 H340 0.930 . S
C353 C352 1.376 . S
C353 C354 1.388 . S
C354 H341 0.930 . S
C354 C353 1.388 . S
C354 C355 1.390 . S
C355 C354 1.390 . S
C355 C356 1.394 . S
C355 C361 1.465 . S
C356 C351 1.399 . S
C356 C355 1.394 . S
C356 C357 1.516 . S
C357 C356 1.516 . S
C357 C358 1.502 . S
C357 C359 1.561 . S
C357 C360 1.526 . S
C358 H342 0.959 . S
C358 H343 0.959 . S
C358 H344 0.961 . S
C358 C357 1.502 . S
C359 H345 0.960 . S
C359 H346 0.961 . S
C359 H347 0.959 . S
C359 C357 1.561 . S
C360 C357 1.526 . S
C360 C361 1.396 . S
C360 C365 1.390 . S
C361 C355 1.465 . S
C361 C360 1.396 . S
C361 C362 1.399 . S
C362 H348 0.929 . S
C362 C361 1.399 . S
C362 C363 1.385 . S
C363 H349 0.931 . S
C363 C362 1.385 . S
C363 C364 1.389 . S
C364 C363 1.389 . S
C364 C365 1.387 . S
C365 H350 0.930 . S
C365 C360 1.390 . S
C365 C364 1.387 . S
H366 C378 0.930 . S
H367 C380 0.930 . S
H368 C381 0.930 . S
H369 C385 0.959 . S
H370 C385 0.959 . S
H371 C385 0.961 . S
H372 C386 0.960 . S
H373 C386 0.961 . S
H374 C386 0.959 . S
H375 C389 0.929 . S
H376 C390 0.931 . S
H377 C392 0.930 . S
C378 H366 0.930 . S
C378 C379 1.399 . S
C378 C383 1.399 . S
C379 C378 1.399 . S
C379 C380 1.376 . S
C380 H367 0.930 . S
C380 C379 1.376 . S
C380 C381 1.388 . S
C381 H368 0.930 . S
C381 C380 1.388 . S
C381 C382 1.390 . S
C382 C381 1.390 . S
C382 C383 1.394 . S
C382 C388 1.465 . S
C383 C378 1.399 . S
C383 C382 1.394 . S
C383 C384 1.516 . S
C384 C383 1.516 . S
C384 C385 1.502 . S
C384 C386 1.561 . S
C384 C387 1.526 . S
C385 H369 0.959 . S
C385 H370 0.959 . S
C385 H371 0.961 . S
C385 C384 1.502 . S
C386 H372 0.960 . S
C386 H373 0.961 . S
C386 H374 0.959 . S
C386 C384 1.561 . S
C387 C384 1.526 . S
C387 C388 1.396 . S
C387 C392 1.390 . S
C388 C382 1.465 . S
C388 C387 1.396 . S
C388 C389 1.399 . S
C389 H375 0.929 . S
C389 C388 1.399 . S
C389 C390 1.385 . S
C390 H376 0.931 . S
C390 C389 1.385 . S
C390 C391 1.389 . S
C391 C390 1.389 . S
C391 C392 1.387 . S
C392 H377 0.930 . S
C392 C387 1.390 . S
C392 C391 1.387 . S
H393 C405 0.930 . S
H394 C407 0.930 . S
H395 C408 0.930 . S
H396 C412 0.959 . S
H397 C412 0.959 . S
H398 C412 0.961 . S
H399 C413 0.960 . S
H400 C413 0.961 . S
H401 C413 0.959 . S
H402 C416 0.929 . S
H403 C417 0.931 . S
H404 C419 0.930 . S
C405 H393 0.930 . S
C405 C406 1.399 . S
C405 C410 1.399 . S
C406 C405 1.399 . S
C406 C407 1.376 . S
C407 H394 0.930 . S
C407 C406 1.376 . S
C407 C408 1.388 . S
C408 H395 0.930 . S
C408 C407 1.388 . S
C408 C409 1.390 . S
C409 C408 1.390 . S
C409 C410 1.394 . S
C409 C415 1.465 . S
C410 C405 1.399 . S
C410 C409 1.394 . S
C410 C411 1.516 . S
C411 C410 1.516 . S
C411 C412 1.502 . S
C411 C413 1.561 . S
C411 C414 1.526 . S
C412 H396 0.959 . S
C412 H397 0.959 . S
C412 H398 0.961 . S
C412 C411 1.502 . S
C413 H399 0.960 . S
C413 H400 0.961 . S
C413 H401 0.959 . S
C413 C411 1.561 . S
C414 C411 1.526 . S
C414 C415 1.396 . S
C414 C419 1.390 . S
C415 C409 1.465 . S
C415 C414 1.396 . S
C415 C416 1.399 . S
C416 H402 0.929 . S
C416 C415 1.399 . S
C416 C417 1.385 . S
C417 H403 0.931 . S
C417 C416 1.385 . S
C417 C418 1.389 . S
C418 C417 1.389 . S
C418 C419 1.387 . S
C419 H404 0.930 . S
C419 C414 1.390 . S
C419 C418 1.387 . S
H420 C432 0.930 . S
H421 C434 0.930 . S
H422 C435 0.930 . S
H423 C439 0.959 . S
H424 C439 0.959 . S
H425 C439 0.961 . S
H426 C440 0.960 . S
H427 C440 0.961 . S
H428 C440 0.959 . S
H429 C443 0.929 . S
H430 C444 0.931 . S
H431 C446 0.930 . S
C432 H420 0.930 . S
C432 C433 1.399 . S
C432 C437 1.399 . S
C433 C432 1.399 . S
C433 C434 1.376 . S
C434 H421 0.930 . S
C434 C433 1.376 . S
C434 C435 1.388 . S
C435 H422 0.930 . S
C435 C434 1.388 . S
C435 C436 1.390 . S
C436 C435 1.390 . S
C436 C437 1.394 . S
C436 C442 1.465 . S
C437 C432 1.399 . S
C437 C436 1.394 . S
C437 C438 1.516 . S
C438 C437 1.516 . S
C438 C439 1.502 . S
C438 C440 1.561 . S
C438 C441 1.526 . S
C439 H423 0.959 . S
C439 H424 0.959 . S
C439 H425 0.961 . S
C439 C438 1.502 . S
C440 H426 0.960 . S
C440 H427 0.961 . S
C440 H428 0.959 . S
C440 C438 1.561 . S
C441 C438 1.526 . S
C441 C442 1.396 . S
C441 C446 1.390 . S
C442 C436 1.465 . S
C442 C441 1.396 . S
C442 C443 1.399 . S
C443 H429 0.929 . S
C443 C442 1.399 . S
C443 C444 1.385 . S
C444 H430 0.931 . S
C444 C443 1.385 . S
C444 C445 1.389 . S
C445 C444 1.389 . S
C445 C446 1.387 . S
C446 H431 0.930 . S
C446 C441 1.390 . S
C446 C445 1.387 . S
H447 C459 0.930 . S
H448 C461 0.930 . S
H449 C462 0.930 . S
H450 C466 0.959 . S
H451 C466 0.959 . S
H452 C466 0.961 . S
H453 C467 0.960 . S
H454 C467 0.961 . S
H455 C467 0.959 . S
H456 C470 0.929 . S
H457 C471 0.931 . S
H458 C473 0.930 . S
C459 H447 0.930 . S
C459 C460 1.399 . S
C459 C464 1.399 . S
C460 C459 1.399 . S
C460 C461 1.376 . S
C461 H448 0.930 . S
C461 C460 1.376 . S
C461 C462 1.388 . S
C462 H449 0.930 . S
C462 C461 1.388 . S
C462 C463 1.390 . S
C463 C462 1.390 . S
C463 C464 1.394 . S
C463 C469 1.465 . S
C464 C459 1.399 . S
C464 C463 1.394 . S
C464 C465 1.516 . S
C465 C464 1.516 . S
C465 C466 1.502 . S
C465 C467 1.561 1_554 S
C465 C468 1.526 . S
C466 H450 0.959 . S
C466 H451 0.959 . S
C466 H452 0.961 . S
C466 C465 1.502 . S
C467 H453 0.960 . S
C467 H454 0.961 . S
C467 H455 0.959 . S
C467 C465 1.561 1_556 S
C468 C465 1.526 . S
C468 C469 1.396 . S
C468 C473 1.390 . S
C469 C463 1.465 . S
C469 C468 1.396 . S
C469 C470 1.399 . S
C470 H456 0.929 . S
C470 C469 1.399 . S
C470 C471 1.385 . S
C471 H457 0.931 . S
C471 C470 1.385 . S
C471 C472 1.389 . S
C472 C471 1.389 . S
C472 C473 1.387 . S
C473 H458 0.930 . S
C473 C468 1.390 . S
C473 C472 1.387 . S
H474 C486 0.930 . S
H475 C488 0.930 . S
H476 C489 0.930 . S
H477 C493 0.959 . S
H478 C493 0.959 . S
H479 C493 0.961 . S
H480 C494 0.960 . S
H481 C494 0.961 . S
H482 C494 0.959 . S
H483 C497 0.929 . S
H484 C498 0.931 . S
H485 C500 0.930 . S
C486 H474 0.930 . S
C486 C487 1.399 . S
C486 C491 1.399 . S
C487 C486 1.399 . S
C487 C488 1.376 . S
C488 H475 0.930 . S
C488 C487 1.376 . S
C488 C489 1.388 . S
C489 H476 0.930 . S
C489 C488 1.388 . S
C489 C490 1.390 . S
C490 C489 1.390 . S
C490 C491 1.394 . S
C490 C496 1.465 . S
C491 C486 1.399 . S
C491 C490 1.394 . S
C491 C492 1.516 . S
C492 C491 1.516 . S
C492 C493 1.502 . S
C492 C494 1.561 . S
C492 C495 1.526 . S
C493 H477 0.959 . S
C493 H478 0.959 . S
C493 H479 0.961 . S
C493 C492 1.502 . S
C494 H480 0.960 . S
C494 H481 0.961 . S
C494 H482 0.959 . S
C494 C492 1.561 . S
C495 C492 1.526 . S
C495 C496 1.396 . S
C495 C500 1.390 . S
C496 C490 1.465 . S
C496 C495 1.396 . S
C496 C497 1.399 . S
C497 H483 0.929 . S
C497 C496 1.399 . S
C497 C498 1.385 . S
C498 H484 0.931 . S
C498 C497 1.385 . S
C498 C499 1.389 . S
C499 C498 1.389 . S
C499 C500 1.387 . S
C500 H485 0.930 . S
C500 C495 1.390 . S
C500 C499 1.387 . S
H501 C513 0.930 . S
H502 C515 0.930 . S
H503 C516 0.930 . S
H504 C520 0.959 . S
H505 C520 0.959 . S
H506 C520 0.961 . S
H507 C521 0.960 . S
H508 C521 0.961 . S
H509 C521 0.959 . S
H510 C524 0.929 . S
H511 C525 0.931 . S
H512 C527 0.930 . S
C513 H501 0.930 . S
C513 C514 1.399 . S
C513 C518 1.399 . S
C514 C513 1.399 . S
C514 C515 1.376 . S
C515 H502 0.930 . S
C515 C514 1.376 . S
C515 C516 1.388 . S
C516 H503 0.930 . S
C516 C515 1.388 . S
C516 C517 1.390 . S
C517 C516 1.390 . S
C517 C518 1.394 . S
C517 C523 1.465 . S
C518 C513 1.399 . S
C518 C517 1.394 . S
C518 C519 1.516 . S
C519 C518 1.516 . S
C519 C520 1.502 . S
C519 C521 1.561 . S
C519 C522 1.526 . S
C520 H504 0.959 . S
C520 H505 0.959 . S
C520 H506 0.961 . S
C520 C519 1.502 . S
C521 H507 0.960 . S
C521 H508 0.961 . S
C521 H509 0.959 . S
C521 C519 1.561 . S
C522 C519 1.526 . S
C522 C523 1.396 . S
C522 C527 1.390 . S
C523 C517 1.465 . S
C523 C522 1.396 . S
C523 C524 1.399 . S
C524 H510 0.929 . S
C524 C523 1.399 . S
C524 C525 1.385 . S
C525 H511 0.931 . S
C525 C524 1.385 . S
C525 C526 1.389 . S
C526 C525 1.389 . S
C526 C527 1.387 . S
C527 H512 0.930 . S
C527 C522 1.390 . S
C527 C526 1.387 . S
H528 C540 0.930 . S
H529 C542 0.930 . S
H530 C543 0.930 . S
H531 C547 0.959 . S
H532 C547 0.959 . S
H533 C547 0.961 . S
H534 C548 0.960 . S
H535 C548 0.961 . S
H536 C548 0.959 . S
H537 C551 0.929 . S
H538 C552 0.931 . S
H539 C554 0.930 . S
C540 H528 0.930 . S
C540 C541 1.399 . S
C540 C545 1.399 . S
C541 C540 1.399 . S
C541 C542 1.376 . S
C542 H529 0.930 . S
C542 C541 1.376 . S
C542 C543 1.388 . S
C543 H530 0.930 . S
C543 C542 1.388 . S
C543 C544 1.390 . S
C544 C543 1.390 . S
C544 C545 1.394 . S
C544 C550 1.465 . S
C545 C540 1.399 . S
C545 C544 1.394 . S
C545 C546 1.516 . S
C546 C545 1.516 . S
C546 C547 1.502 . S
C546 C548 1.561 . S
C546 C549 1.526 . S
C547 H531 0.959 . S
C547 H532 0.959 . S
C547 H533 0.961 . S
C547 C546 1.502 . S
C548 H534 0.960 . S
C548 H535 0.961 . S
C548 H536 0.959 . S
C548 C546 1.561 . S
C549 C546 1.526 . S
C549 C550 1.396 . S
C549 C554 1.390 . S
C550 C544 1.465 . S
C550 C549 1.396 . S
C550 C551 1.399 . S
C551 H537 0.929 . S
C551 C550 1.399 . S
C551 C552 1.385 . S
C552 H538 0.931 . S
C552 C551 1.385 . S
C552 C553 1.389 . S
C553 C552 1.389 . S
C553 C554 1.387 . S
C554 H539 0.930 . S
C554 C549 1.390 . S
C554 C553 1.387 . S
H555 C567 0.930 . S
H556 C569 0.930 . S
H557 C570 0.930 . S
H558 C574 0.959 . S
H559 C574 0.959 . S
H560 C574 0.961 . S
H561 C575 0.960 . S
H562 C575 0.961 . S
H563 C575 0.959 . S
H564 C578 0.929 . S
H565 C579 0.931 . S
H566 C581 0.930 . S
C567 H555 0.930 . S
C567 C568 1.399 . S
C567 C572 1.399 . S
C568 C567 1.399 . S
C568 C569 1.376 . S
C569 H556 0.930 . S
C569 C568 1.376 . S
C569 C570 1.388 . S
C570 H557 0.930 . S
C570 C569 1.388 . S
C570 C571 1.390 . S
C571 C570 1.390 . S
C571 C572 1.394 . S
C571 C577 1.465 . S
C572 C567 1.399 . S
C572 C571 1.394 . S
C572 C573 1.516 . S
C573 C572 1.516 . S
C573 C574 1.502 . S
C573 C575 1.561 . S
C573 C576 1.526 . S
C574 H558 0.959 . S
C574 H559 0.959 . S
C574 H560 0.961 . S
C574 C573 1.502 . S
C575 H561 0.960 . S
C575 H562 0.961 . S
C575 H563 0.959 . S
C575 C573 1.561 . S
C576 C573 1.526 . S
C576 C577 1.396 . S
C576 C581 1.390 . S
C577 C571 1.465 . S
C577 C576 1.396 . S
C577 C578 1.399 . S
C578 H564 0.929 . S
C578 C577 1.399 . S
C578 C579 1.385 . S
C579 H565 0.931 . S
C579 C578 1.385 . S
C579 C580 1.389 . S
C580 C579 1.389 . S
C580 C581 1.387 . S
C581 H566 0.930 . S
C581 C576 1.390 . S
C581 C580 1.387 . S
H582 C594 0.930 . S
H583 C596 0.930 . S
H584 C597 0.930 . S
H585 C601 0.959 . S
H586 C601 0.959 . S
H587 C601 0.961 . S
H588 C602 0.960 . S
H589 C602 0.961 . S
H590 C602 0.959 . S
H591 C605 0.929 . S
H592 C606 0.931 . S
H593 C608 0.930 . S
C594 H582 0.930 . S
C594 C595 1.399 . S
C594 C599 1.399 . S
C595 C594 1.399 . S
C595 C596 1.376 . S
C596 H583 0.930 . S
C596 C595 1.376 . S
C596 C597 1.388 . S
C597 H584 0.930 . S
C597 C596 1.388 . S
C597 C598 1.390 . S
C598 C597 1.390 . S
C598 C599 1.394 . S
C598 C604 1.465 . S
C599 C594 1.399 . S
C599 C598 1.394 . S
C599 C600 1.516 . S
C600 C599 1.516 . S
C600 C601 1.502 . S
C600 C602 1.561 . S
C600 C603 1.526 . S
C601 H585 0.959 . S
C601 H586 0.959 . S
C601 H587 0.961 . S
C601 C600 1.502 . S
C602 H588 0.960 . S
C602 H589 0.961 . S
C602 H590 0.959 . S
C602 C600 1.561 . S
C603 C600 1.526 . S
C603 C604 1.396 . S
C603 C608 1.390 . S
C604 C598 1.465 . S
C604 C603 1.396 . S
C604 C605 1.399 . S
C605 H591 0.929 . S
C605 C604 1.399 . S
C605 C606 1.385 . S
C606 H592 0.931 . S
C606 C605 1.385 . S
C606 C607 1.389 . S
C607 C606 1.389 . S
C607 C608 1.387 . S
C608 H593 0.930 . S
C608 C603 1.390 . S
C608 C607 1.387 . S
H609 C621 0.930 . S
H610 C623 0.930 . S
H611 C624 0.930 . S
H612 C628 0.959 . S
H613 C628 0.959 1_554 S
H614 C628 0.961 . S
H615 C629 0.960 . S
H616 C629 0.961 . S
H617 C629 0.959 . S
H618 C632 0.929 . S
H619 C633 0.931 . S
H620 C635 0.942 . S
C621 H609 0.930 . S
C621 C622 1.399 . S
C621 C626 1.399 . S
C622 C621 1.399 . S
C622 C623 1.376 . S
C623 H610 0.930 . S
C623 C622 1.376 . S
C623 C624 1.388 . S
C624 H611 0.930 . S
C624 C623 1.388 . S
C624 C625 1.390 . S
C625 C624 1.390 . S
C625 C626 1.394 . S
C625 C631 1.465 . S
C626 C621 1.399 . S
C626 C625 1.394 . S
C626 C627 1.516 . S
C627 C626 1.516 . S
C627 C628 1.502 . S
C627 C629 1.561 . S
C627 C630 1.526 . S
C628 H612 0.959 . S
C628 H613 0.959 1_556 S
C628 H614 0.961 . S
C628 C627 1.502 . S
C629 H615 0.960 . S
C629 H616 0.961 . S
C629 H617 0.959 . S
C629 C627 1.561 . S
C630 C627 1.526 . S
C630 C631 1.396 . S
C630 C635 1.376 1_556 S
C631 C625 1.465 . S
C631 C630 1.396 . S
C631 C632 1.399 . S
C632 H618 0.929 . S
C632 C631 1.399 . S
C632 C633 1.385 . S
C633 H619 0.931 . S
C633 C632 1.385 . S
C633 C634 1.389 1_556 S
C634 C633 1.389 1_554 S
C634 C635 1.389 . S
C635 H620 0.942 . S
C635 C630 1.376 1_554 S
C635 C634 1.389 . S
H636 C648 0.930 . S
H637 C650 0.930 . S
H638 C651 0.930 . S
H639 C655 0.959 . S
H640 C655 0.959 . S
H641 C655 0.961 . S
H642 C656 0.960 . S
H643 C656 0.961 . S
H644 C656 0.959 . S
H645 C659 0.929 . S
H646 C660 0.931 . S
H647 C662 0.930 . S
C648 H636 0.930 . S
C648 C649 1.399 . S
C648 C653 1.399 . S
C649 C648 1.399 . S
C649 C650 1.376 . S
C650 H637 0.930 . S
C650 C649 1.376 . S
C650 C651 1.388 . S
C651 H638 0.930 . S
C651 C650 1.388 . S
C651 C652 1.390 . S
C652 C651 1.390 . S
C652 C653 1.394 . S
C652 C658 1.465 . S
C653 C648 1.399 . S
C653 C652 1.394 . S
C653 C654 1.516 . S
C654 C653 1.516 . S
C654 C655 1.502 . S
C654 C656 1.561 . S
C654 C657 1.526 . S
C655 H639 0.959 . S
C655 H640 0.959 . S
C655 H641 0.961 . S
C655 C654 1.502 . S
C656 H642 0.960 . S
C656 H643 0.961 . S
C656 H644 0.959 . S
C656 C654 1.561 . S
C657 C654 1.526 . S
C657 C658 1.396 . S
C657 C662 1.390 . S
C658 C652 1.465 . S
C658 C657 1.396 . S
C658 C659 1.399 . S
C659 H645 0.929 . S
C659 C658 1.399 . S
C659 C660 1.385 . S
C660 H646 0.931 . S
C660 C659 1.385 . S
C660 C661 1.389 . S
C661 C660 1.389 . S
C661 C662 1.387 . S
C662 H647 0.930 . S
C662 C657 1.390 . S
C662 C661 1.387 . S
H663 C675 0.930 . S
H664 C677 0.930 . S
H665 C678 0.930 . S
H666 C682 0.959 . S
H667 C682 0.959 . S
H668 C682 0.961 . S
H669 C683 0.960 . S
H670 C683 0.961 . S
H671 C683 0.959 . S
H672 C686 0.929 . S
H673 C687 0.931 . S
H674 C689 0.930 . S
C675 H663 0.930 . S
C675 C676 1.399 . S
C675 C680 1.399 . S
C676 C675 1.399 . S
C676 C677 1.376 . S
C677 H664 0.930 . S
C677 C676 1.376 . S
C677 C678 1.388 . S
C678 H665 0.930 . S
C678 C677 1.388 . S
C678 C679 1.390 . S
C679 C678 1.390 . S
C679 C680 1.394 . S
C679 C685 1.465 . S
C680 C675 1.399 . S
C680 C679 1.394 . S
C680 C681 1.516 . S
C681 C680 1.516 . S
C681 C682 1.502 . S
C681 C683 1.561 . S
C681 C684 1.526 . S
C682 H666 0.959 . S
C682 H667 0.959 . S
C682 H668 0.961 . S
C682 C681 1.502 . S
C683 H669 0.960 . S
C683 H670 0.961 . S
C683 H671 0.959 . S
C683 C681 1.561 . S
C684 C681 1.526 . S
C684 C685 1.396 . S
C684 C689 1.390 . S
C685 C679 1.465 . S
C685 C684 1.396 . S
C685 C686 1.399 . S
C686 H672 0.929 . S
C686 C685 1.399 . S
C686 C687 1.385 . S
C687 H673 0.931 . S
C687 C686 1.385 . S
C687 C688 1.389 . S
C688 C687 1.389 . S
C688 C689 1.387 . S
C689 H674 0.930 . S
C689 C684 1.390 . S
C689 C688 1.387 . S
H690 C702 0.930 . S
H691 C704 0.930 . S
H692 C705 0.930 . S
H693 C709 0.959 . S
H694 C709 0.959 . S
H695 C709 0.961 . S
H696 C710 0.960 . S
H697 C710 0.961 . S
H698 C710 0.959 . S
H699 C713 0.929 . S
H700 C714 0.931 . S
H701 C716 0.930 . S
C702 H690 0.930 . S
C702 C703 1.399 . S
C702 C707 1.399 . S
C703 C702 1.399 . S
C703 C704 1.376 . S
C704 H691 0.930 . S
C704 C703 1.376 . S
C704 C705 1.388 . S
C705 H692 0.930 . S
C705 C704 1.388 . S
C705 C706 1.390 . S
C706 C705 1.390 . S
C706 C707 1.394 . S
C706 C712 1.465 . S
C707 C702 1.399 . S
C707 C706 1.394 . S
C707 C708 1.516 . S
C708 C707 1.516 . S
C708 C709 1.502 . S
C708 C710 1.561 . S
C708 C711 1.526 . S
C709 H693 0.959 . S
C709 H694 0.959 . S
C709 H695 0.961 . S
C709 C708 1.502 . S
C710 H696 0.960 . S
C710 H697 0.961 . S
C710 H698 0.959 . S
C710 C708 1.561 . S
C711 C708 1.526 . S
C711 C712 1.396 . S
C711 C716 1.390 . S
C712 C706 1.465 . S
C712 C711 1.396 . S
C712 C713 1.399 . S
C713 H699 0.929 . S
C713 C712 1.399 . S
C713 C714 1.385 . S
C714 H700 0.931 . S
C714 C713 1.385 . S
C714 C715 1.389 . S
C715 C714 1.389 . S
C715 C716 1.387 . S
C716 H701 0.930 . S
C716 C711 1.390 . S
C716 C715 1.387 . S
H717 C729 0.930 . S
H718 C731 0.930 . S
H719 C732 0.930 . S
H720 C736 0.959 . S
H721 C736 0.959 . S
H722 C736 0.961 . S
H723 C737 0.960 . S
H724 C737 0.961 . S
H725 C737 0.959 . S
H726 C740 0.929 . S
H727 C741 0.931 . S
H728 C743 0.930 . S
C729 H717 0.930 . S
C729 C730 1.399 . S
C729 C734 1.399 . S
C730 C729 1.399 . S
C730 C731 1.376 . S
C731 H718 0.930 . S
C731 C730 1.376 . S
C731 C732 1.388 . S
C732 H719 0.930 . S
C732 C731 1.388 . S
C732 C733 1.390 . S
C733 C732 1.390 . S
C733 C734 1.394 . S
C733 C739 1.465 . S
C734 C729 1.399 . S
C734 C733 1.394 . S
C734 C735 1.516 . S
C735 C734 1.516 . S
C735 C736 1.502 . S
C735 C737 1.561 . S
C735 C738 1.526 . S
C736 H720 0.959 . S
C736 H721 0.959 . S
C736 H722 0.961 . S
C736 C735 1.502 . S
C737 H723 0.960 . S
C737 H724 0.961 . S
C737 H725 0.959 . S
C737 C735 1.561 . S
C738 C735 1.526 . S
C738 C739 1.396 . S
C738 C743 1.390 . S
C739 C733 1.465 . S
C739 C738 1.396 . S
C739 C740 1.399 . S
C740 H726 0.929 . S
C740 C739 1.399 . S
C740 C741 1.385 . S
C741 H727 0.931 . S
C741 C740 1.385 . S
C741 C742 1.389 . S
C742 C741 1.389 . S
C742 C743 1.387 . S
C743 H728 0.930 . S
C743 C738 1.390 . S
C743 C742 1.387 . S
H744 C756 0.930 . S
H745 C758 0.930 . S
H746 C759 0.930 . S
H747 C763 0.959 . S
H748 C763 0.959 . S
H749 C763 0.961 . S
H750 C764 0.960 . S
H751 C764 0.961 . S
H752 C764 0.959 . S
H753 C767 0.929 . S
H754 C768 0.931 . S
H755 C770 0.930 . S
C756 H744 0.930 . S
C756 C757 1.399 . S
C756 C761 1.399 . S
C757 C756 1.399 . S
C757 C758 1.376 . S
C758 H745 0.930 . S
C758 C757 1.376 . S
C758 C759 1.388 . S
C759 H746 0.930 . S
C759 C758 1.388 . S
C759 C760 1.390 . S
C760 C759 1.390 . S
C760 C761 1.394 . S
C760 C766 1.465 . S
C761 C756 1.399 . S
C761 C760 1.394 . S
C761 C762 1.516 . S
C762 C761 1.516 . S
C762 C763 1.502 . S
C762 C764 1.561 . S
C762 C765 1.526 . S
C763 H747 0.959 . S
C763 H748 0.959 . S
C763 H749 0.961 . S
C763 C762 1.502 . S
C764 H750 0.960 . S
C764 H751 0.961 . S
C764 H752 0.959 . S
C764 C762 1.561 . S
C765 C762 1.526 . S
C765 C766 1.396 . S
C765 C770 1.390 . S
C766 C760 1.465 . S
C766 C765 1.396 . S
C766 C767 1.399 . S
C767 H753 0.929 . S
C767 C766 1.399 . S
C767 C768 1.385 . S
C768 H754 0.931 . S
C768 C767 1.385 . S
C768 C769 1.389 . S
C769 C768 1.389 . S
C769 C770 1.387 . S
C770 H755 0.930 . S
C770 C765 1.390 . S
C770 C769 1.387 . S
H771 C783 0.930 . S
H772 C785 0.930 . S
H773 C786 0.930 . S
H774 C790 0.959 . S
H775 C790 0.959 . S
H776 C790 0.961 . S
H777 C791 0.960 . S
H778 C791 0.961 . S
H779 C791 0.959 . S
H780 C794 0.929 . S
H781 C795 0.931 . S
H782 C797 0.930 . S
C783 H771 0.930 . S
C783 C784 1.399 . S
C783 C788 1.399 . S
C784 C783 1.399 . S
C784 C785 1.376 . S
C785 H772 0.930 . S
C785 C784 1.376 . S
C785 C786 1.388 . S
C786 H773 0.930 . S
C786 C785 1.388 . S
C786 C787 1.390 . S
C787 C786 1.390 . S
C787 C788 1.394 . S
C787 C793 1.465 . S
C788 C783 1.399 . S
C788 C787 1.394 . S
C788 C789 1.516 . S
C789 C788 1.516 . S
C789 C790 1.502 . S
C789 C791 1.561 . S
C789 C792 1.526 . S
C790 H774 0.959 . S
C790 H775 0.959 . S
C790 H776 0.961 . S
C790 C789 1.502 . S
C791 H777 0.960 . S
C791 H778 0.961 . S
C791 H779 0.959 . S
C791 C789 1.561 . S
C792 C789 1.526 . S
C792 C793 1.396 . S
C792 C797 1.390 . S
C793 C787 1.465 . S
C793 C792 1.396 . S
C793 C794 1.399 . S
C794 H780 0.929 . S
C794 C793 1.399 . S
C794 C795 1.385 . S
C795 H781 0.931 . S
C795 C794 1.385 . S
C795 C796 1.389 . S
C796 C795 1.389 . S
C796 C797 1.387 . S
C797 H782 0.930 . S
C797 C792 1.390 . S
C797 C796 1.387 . S
H798 C810 0.930 . S
H799 C812 0.930 . S
H800 C813 0.930 . S
H801 C817 0.959 . S
H802 C817 0.959 . S
H803 C817 0.961 1_554 S
H804 C818 0.960 . S
H805 C818 0.961 1_556 S
H806 C818 0.959 . S
H807 C821 0.929 . S
H808 C822 0.931 . S
H809 C824 0.930 . S
C810 H798 0.930 . S
C810 C811 1.399 . S
C810 C815 1.399 . S
C811 C810 1.399 . S
C811 C812 1.376 . S
C812 H799 0.930 . S
C812 C811 1.376 . S
C812 C813 1.388 . S
C813 H800 0.930 . S
C813 C812 1.388 . S
C813 C814 1.390 . S
C814 C813 1.390 . S
C814 C815 1.394 . S
C814 C820 1.465 . S
C815 C810 1.399 . S
C815 C814 1.394 . S
C815 C816 1.516 . S
C816 C815 1.516 . S
C816 C817 1.502 1_554 S
C816 C818 1.561 . S
C816 C819 1.526 . S
C817 H801 0.959 . S
C817 H802 0.959 . S
C817 H803 0.961 1_556 S
C817 C816 1.502 1_556 S
C818 H804 0.960 . S
C818 H805 0.961 1_554 S
C818 H806 0.959 . S
C818 C816 1.561 . S
C819 C816 1.526 . S
C819 C820 1.396 . S
C819 C824 1.390 1_554 S
C820 C814 1.465 . S
C820 C819 1.396 . S
C820 C821 1.399 . S
C821 H807 0.929 . S
C821 C820 1.399 . S
C821 C822 1.385 . S
C822 H808 0.931 . S
C822 C821 1.385 . S
C822 C823 1.389 1_554 S
C823 C822 1.389 1_556 S
C823 C824 1.387 . S
C824 H809 0.930 . S
C824 C819 1.390 1_556 S
C824 C823 1.387 . S
H825 C837 0.930 . S
H826 C839 0.930 . S
H827 C840 0.930 . S
H828 C844 0.959 . S
H829 C844 0.959 . S
H830 C844 0.961 . S
H831 C845 0.960 . S
H832 C845 0.961 . S
H833 C845 0.959 . S
H834 C848 0.929 . S
H835 C849 0.931 . S
H836 C851 0.930 . S
C837 H825 0.930 . S
C837 C838 1.399 . S
C837 C842 1.399 . S
C838 C837 1.399 . S
C838 C839 1.376 . S
C839 H826 0.930 . S
C839 C838 1.376 . S
C839 C840 1.388 . S
C840 H827 0.930 . S
C840 C839 1.388 . S
C840 C841 1.390 . S
C841 C840 1.390 . S
C841 C842 1.394 . S
C841 C847 1.465 . S
C842 C837 1.399 . S
C842 C841 1.394 . S
C842 C843 1.516 . S
C843 C842 1.516 . S
C843 C844 1.502 . S
C843 C845 1.561 . S
C843 C846 1.526 . S
C844 H828 0.959 . S
C844 H829 0.959 . S
C844 H830 0.961 . S
C844 C843 1.502 . S
C845 H831 0.960 . S
C845 H832 0.961 . S
C845 H833 0.959 . S
C845 C843 1.561 . S
C846 C843 1.526 . S
C846 C847 1.396 . S
C846 C851 1.390 . S
C847 C841 1.465 . S
C847 C846 1.396 . S
C847 C848 1.399 . S
C848 H834 0.929 . S
C848 C847 1.399 . S
C848 C849 1.385 . S
C849 H835 0.931 . S
C849 C848 1.385 . S
C849 C850 1.389 . S
C850 C849 1.389 . S
C850 C851 1.387 . S
C851 H836 0.930 . S
C851 C846 1.390 . S
C851 C850 1.387 . S
C229 C196 1.595 . S
C217 C19 1.497 . S
C244 C40 1.576 . S
C256 C131 1.608 . S
C271 C51 1.495 . S
C283 C149 1.602 . S
C298 C72 1.545 . S
C310 C162 1.590 . S
C337 C170 1.607 . S
C325 C103 1.572 . S
C352 C114 1.479 . S
C364 C182 1.598 . S
C379 C30 1.509 . S
C391 C144 1.609 . S
C406 C61 1.529 . S
C418 C157 1.596 . S
C433 C82 1.495 . S
C445 C175 1.598 . S
C472 C181 1.614 . S
C460 C93 1.548 1_554 S
C499 C201 1.583 . S
C487 C124 1.492 . S
C526 C136 1.608 . S
C514 C9 1.561 . S
C541 C17 1.479 . S
C553 C142 1.597 . S
C568 C38 1.512 . S
C580 C155 1.596 . S
C607 C169 1.587 . S
C595 C54 1.488 . S
C622 C75 1.481 . S
C634 C183 1.601 . S
C661 C195 1.583 . S
C649 C101 1.509 . S
C688 C130 1.587 . S
C676 C117 1.536 . S
C715 C194 1.588 . S
C703 C33 1.492 . S
C730 C59 1.483 . S
C742 C129 1.594 . S
C769 C143 1.593 . S
C757 C80 1.506 . S
C784 C96 1.466 . S
C796 C156 1.583 . S
C811 C122 1.482 . S
C823 C168 1.597 . S
C838 C12 1.546 . S
C850 C188 1.593 . S
