# Generated by pormake.
# Topology pyr, (3,6)-cn, num edge types: 1
# Building blocks:
#     Node 0, Type 0, BuildingBlock: MIDCAF_clean_linker_0, # of connection points: 3
#     Node 1, Type 0, BuildingBlock: MIDCAF_clean_linker_0, # of connection points: 3
#     Node 2, Type 0, BuildingBlock: MIDCAF_clean_linker_0, # of connection points: 3
#     Node 3, Type 0, BuildingBlock: MIDCAF_clean_linker_0, # of connection points: 3
#     Node 4, Type 0, BuildingBlock: MIDCAF_clean_linker_0, # of connection points: 3
#     Node 5, Type 0, BuildingBlock: MIDCAF_clean_linker_0, # of connection points: 3
#     Node 6, Type 0, BuildingBlock: MIDCAF_clean_linker_0, # of connection points: 3
#     Node 7, Type 0, BuildingBlock: MIDCAF_clean_linker_0, # of connection points: 3
#     Node 8, Type 1, BuildingBlock: PAMTUU_clean_sbu_0, # of connection points: 6
#     Node 9, Type 1, BuildingBlock: PAMTUU_clean_sbu_0, # of connection points: 6
#     Node 10, Type 1, BuildingBlock: PAMTUU_clean_sbu_0, # of connection points: 6
#     Node 11, Type 1, BuildingBlock: PAMTUU_clean_sbu_0, # of connection points: 6
#     Edge 12, Type (0, 1), BuildingBlock: MIFKUJ_clean_linker_0, # of connection points: 2
#     Edge 13, Type (0, 1), BuildingBlock: MIFKUJ_clean_linker_0, # of connection points: 2
#     Edge 14, Type (0, 1), BuildingBlock: MIFKUJ_clean_linker_0, # of connection points: 2
#     Edge 15, Type (0, 1), BuildingBlock: MIFKUJ_clean_linker_0, # of connection points: 2
#     Edge 16, Type (0, 1), BuildingBlock: MIFKUJ_clean_linker_0, # of connection points: 2
#     Edge 17, Type (0, 1), BuildingBlock: MIFKUJ_clean_linker_0, # of connection points: 2
#     Edge 18, Type (0, 1), BuildingBlock: MIFKUJ_clean_linker_0, # of connection points: 2
#     Edge 19, Type (0, 1), BuildingBlock: MIFKUJ_clean_linker_0, # of connection points: 2
#     Edge 20, Type (0, 1), BuildingBlock: MIFKUJ_clean_linker_0, # of connection points: 2
#     Edge 21, Type (0, 1), BuildingBlock: MIFKUJ_clean_linker_0, # of connection points: 2
#     Edge 22, Type (0, 1), BuildingBlock: MIFKUJ_clean_linker_0, # of connection points: 2
#     Edge 23, Type (0, 1), BuildingBlock: MIFKUJ_clean_linker_0, # of connection points: 2
#     Edge 24, Type (0, 1), BuildingBlock: MIFKUJ_clean_linker_0, # of connection points: 2
#     Edge 25, Type (0, 1), BuildingBlock: MIFKUJ_clean_linker_0, # of connection points: 2
#     Edge 26, Type (0, 1), BuildingBlock: MIFKUJ_clean_linker_0, # of connection points: 2
#     Edge 27, Type (0, 1), BuildingBlock: MIFKUJ_clean_linker_0, # of connection points: 2
#     Edge 28, Type (0, 1), BuildingBlock: MIFKUJ_clean_linker_0, # of connection points: 2
#     Edge 29, Type (0, 1), BuildingBlock: MIFKUJ_clean_linker_0, # of connection points: 2
#     Edge 30, Type (0, 1), BuildingBlock: MIFKUJ_clean_linker_0, # of connection points: 2
#     Edge 31, Type (0, 1), BuildingBlock: MIFKUJ_clean_linker_0, # of connection points: 2
#     Edge 32, Type (0, 1), BuildingBlock: MIFKUJ_clean_linker_0, # of connection points: 2
#     Edge 33, Type (0, 1), BuildingBlock: MIFKUJ_clean_linker_0, # of connection points: 2
#     Edge 34, Type (0, 1), BuildingBlock: MIFKUJ_clean_linker_0, # of connection points: 2
#     Edge 35, Type (0, 1), BuildingBlock: MIFKUJ_clean_linker_0, # of connection points: 2
# Relax obj value: 0.064
# Max RMSD: 0.112
# Mean RMSD: 0.048
data_MOF--net-pyr--node1-PAMTUU_clean_sbu_0--node2-MIDCAF_clean_linker_0--edge1-MIFKUJ_clean_linker_0
_symmetry_space_group_name_H-M    P1
_symmetry_Int_Tables_number       1
_symmetry_cell_setting            triclinic
loop_
_symmetry_equiv_pos_as_xyz
'x, y, z'
_cell_length_a     57.994501
_cell_length_b     59.253071
_cell_length_c     58.037465
_cell_angle_alpha  90.230113
_cell_angle_beta   89.105444
_cell_angle_gamma 98.225016
loop_
_atom_site_label
_atom_site_type_symbol
_atom_site_fract_x
_atom_site_fract_y
_atom_site_fract_z
_atom_type_partial_charge
C0 C 0.25668 0.23014 0.2712 0.0
C1 C 0.26854 0.21575 0.2844 0.0
C2 C 0.29128 0.21266 0.27757 0.0
C3 C 0.30144 0.22285 0.25746 0.0
H4 H 0.35286 0.21621 0.20793 0.0
H5 H 0.37944 0.19445 0.18762 0.0
H6 H 0.36218 0.22336 0.12305 0.0
H7 H 0.33542 0.24513 0.14326 0.0
H8 H 0.30205 0.28407 0.14411 0.0
H9 H 0.27929 0.30922 0.12382 0.0
H10 H 0.2372 0.31411 0.18523 0.0
H11 H 0.26001 0.28972 0.20555 0.0
H12 H 0.2569 0.25094 0.24128 0.0
H13 H 0.23901 0.23265 0.2756 0.0
H14 H 0.30112 0.20204 0.28754 0.0
H15 H 0.31873 0.21964 0.25236 0.0
N16 N 0.31645 0.23671 0.21083 0.0
N17 N 0.31308 0.25927 0.1782 0.0
N18 N 0.28833 0.26133 0.21018 0.0
C19 C 0.32377 0.2435 0.18925 0.0
C20 C 0.29543 0.26841 0.1887 0.0
C21 C 0.29871 0.24557 0.22141 0.0
C22 C 0.34182 0.23229 0.17722 0.0
C23 C 0.35487 0.21816 0.18944 0.0
C24 C 0.37024 0.20579 0.17783 0.0
C25 C 0.37278 0.20715 0.15376 0.0
C26 C 0.36038 0.22185 0.1416 0.0
C27 C 0.34515 0.23439 0.15323 0.0
C28 C 0.28286 0.28477 0.17648 0.0
C29 C 0.28809 0.29073 0.15335 0.0
C30 C 0.27499 0.30504 0.14166 0.0
C31 C 0.25647 0.31372 0.15291 0.0
C32 C 0.2516 0.30809 0.17614 0.0
C33 C 0.26463 0.29388 0.18777 0.0
C34 C 0.28919 0.23659 0.2439 0.0
C35 C 0.26692 0.24054 0.25132 0.0
C36 C 0.15381 0.83102 0.67741 0.0
C37 C 0.14469 0.82377 0.65589 0.0
C38 C 0.15086 0.80366 0.64613 0.0
C39 C 0.16626 0.79142 0.65738 0.0
H40 H 0.2165 0.74816 0.6431 0.0
H41 H 0.24089 0.7244 0.62194 0.0
H42 H 0.27331 0.70943 0.68547 0.0
H43 H 0.24928 0.73302 0.70657 0.0
H44 H 0.25052 0.76656 0.74707 0.0
H45 H 0.27082 0.78368 0.78057 0.0
H46 H 0.22947 0.83875 0.77911 0.0
H47 H 0.20882 0.82152 0.74573 0.0
H48 H 0.17602 0.82517 0.70501 0.0
H49 H 0.14976 0.84662 0.68527 0.0
H50 H 0.1439 0.79743 0.62973 0.0
H51 H 0.17088 0.77617 0.64922 0.0
N52 N 0.20249 0.77 0.67896 0.0
N53 N 0.2269 0.76691 0.71024 0.0
N54 N 0.20116 0.79386 0.71122 0.0
C55 C 0.21932 0.75982 0.68907 0.0
C56 C 0.21796 0.78387 0.72146 0.0
C57 C 0.19319 0.78695 0.69007 0.0
C58 C 0.23119 0.74283 0.6765 0.0
C59 C 0.22855 0.73949 0.65261 0.0
C60 C 0.24247 0.72587 0.64047 0.0
C61 C 0.25925 0.71543 0.65204 0.0
C62 C 0.26086 0.71768 0.67605 0.0
C63 C 0.247 0.73118 0.68814 0.0
C64 C 0.22819 0.79279 0.74349 0.0
C65 C 0.24551 0.78219 0.75399 0.0
C66 C 0.25725 0.79203 0.77315 0.0
C67 C 0.25193 0.81268 0.78228 0.0
C68 C 0.23385 0.82274 0.77253 0.0
C69 C 0.22208 0.81289 0.75333 0.0
C70 C 0.17574 0.79897 0.67867 0.0
C71 C 0.16906 0.81875 0.68869 0.0
C72 C 0.64002 0.27715 0.88165 0.0
C73 C 0.6207 0.26324 0.87209 0.0
C74 C 0.61159 0.27134 0.85166 0.0
C75 C 0.62155 0.29221 0.84123 0.0
H76 H 0.61324 0.34365 0.78816 0.0
H77 H 0.59753 0.36065 0.75455 0.0
H78 H 0.65749 0.41289 0.7526 0.0
H79 H 0.67326 0.39577 0.78597 0.0
H80 H 0.71563 0.39649 0.82578 0.0
H81 H 0.75154 0.41376 0.84436 0.0
H82 H 0.73768 0.36571 0.90032 0.0
H83 H 0.70259 0.34817 0.88148 0.0
H84 H 0.66475 0.30761 0.87954 0.0
H85 H 0.6475 0.27227 0.89752 0.0
H86 H 0.59692 0.26136 0.84337 0.0
H87 H 0.61403 0.2975 0.82553 0.0
N88 N 0.64376 0.33748 0.82084 0.0
N89 N 0.67474 0.36815 0.82134 0.0
N90 N 0.67241 0.33931 0.8493 0.0
C91 C 0.65467 0.35757 0.81135 0.0
C92 C 0.68378 0.35919 0.8404 0.0
C93 C 0.65255 0.32814 0.83989 0.0
C94 C 0.64475 0.36807 0.79025 0.0
C95 C 0.6232 0.35876 0.78064 0.0
C96 C 0.61401 0.36872 0.76121 0.0
C97 C 0.62599 0.38843 0.7503 0.0
C98 C 0.64759 0.39766 0.75991 0.0
C99 C 0.65669 0.38779 0.7794 0.0
C100 C 0.70586 0.37067 0.85183 0.0
C101 C 0.72023 0.38956 0.84204 0.0
C102 C 0.74096 0.39963 0.8529 0.0
C103 C 0.74816 0.3913 0.87408 0.0
C104 C 0.73353 0.37257 0.88389 0.0
C105 C 0.713 0.36248 0.87302 0.0
C106 C 0.64105 0.30587 0.85078 0.0
C107 C 0.64994 0.29784 0.87126 0.0
C108 C 0.7772 0.64954 0.38116 0.0
C109 C 0.76604 0.62796 0.37411 0.0
C110 C 0.77636 0.61728 0.35559 0.0
C111 C 0.79693 0.62787 0.34448 0.0
H112 H 0.84702 0.61967 0.29193 0.0
H113 H 0.86282 0.60265 0.2579 0.0
H114 H 0.91121 0.66416 0.24695 0.0
H115 H 0.89531 0.6813 0.28104 0.0
H116 H 0.90356 0.71851 0.32809 0.0
H117 H 0.92104 0.75456 0.34564 0.0
H118 H 0.86051 0.75363 0.38997 0.0
H119 H 0.8431 0.71805 0.3725 0.0
H120 H 0.80555 0.6766 0.37638 0.0
H121 H 0.77025 0.65831 0.39552 0.0
H122 H 0.76835 0.6008 0.34937 0.0
H123 H 0.80412 0.61907 0.33029 0.0
N124 N 0.83968 0.65184 0.32116 0.0
N125 N 0.86996 0.68303 0.31954 0.0
N126 N 0.84077 0.68143 0.34831 0.0
C127 C 0.85958 0.6626 0.31067 0.0
C128 C 0.86066 0.69259 0.33845 0.0
C129 C 0.83007 0.66112 0.33999 0.0
C130 C 0.86972 0.65205 0.2896 0.0
C131 C 0.86105 0.62969 0.28237 0.0
C132 C 0.87029 0.61977 0.26275 0.0
C133 C 0.88847 0.63183 0.24932 0.0
C134 C 0.8971 0.65424 0.25648 0.0
C135 C 0.88801 0.66409 0.27628 0.0
C136 C 0.87176 0.71504 0.34868 0.0
C137 C 0.89392 0.726 0.34152 0.0
C138 C 0.90405 0.74672 0.35175 0.0
C139 C 0.89229 0.75737 0.36933 0.0
C140 C 0.87012 0.7464 0.37633 0.0
C141 C 0.86013 0.7257 0.3663 0.0
C142 C 0.80802 0.64948 0.35158 0.0
C143 C 0.79774 0.66005 0.37017 0.0
C144 C 0.66411 0.8292 0.85503 0.0
C145 C 0.64859 0.81861 0.87177 0.0
C146 C 0.64888 0.79553 0.87699 0.0
C147 C 0.66497 0.7834 0.86601 0.0
H148 H 0.71133 0.73484 0.88091 0.0
H149 H 0.7304 0.70647 0.90085 0.0
H150 H 0.77356 0.70002 0.84048 0.0
H151 H 0.75426 0.7275 0.82047 0.0
H152 H 0.76272 0.76578 0.78475 0.0
H153 H 0.78641 0.78538 0.7539 0.0
H154 H 0.74231 0.83826 0.7541 0.0
H155 H 0.71877 0.81898 0.78519 0.0
H156 H 0.6917 0.82589 0.83113 0.0
H157 H 0.66409 0.84696 0.85064 0.0
H158 H 0.63708 0.78707 0.88994 0.0
H159 H 0.66513 0.76572 0.87057 0.0
N160 N 0.70502 0.76306 0.84774 0.0
N161 N 0.73265 0.76166 0.81799 0.0
N162 N 0.70898 0.7904 0.81824 0.0
C163 C 0.72224 0.75283 0.83774 0.0
C164 C 0.72612 0.78036 0.80808 0.0
C165 C 0.69825 0.78185 0.83794 0.0
C166 C 0.7314 0.73367 0.84914 0.0
C167 C 0.7246 0.72703 0.87176 0.0
C168 C 0.73563 0.71089 0.88327 0.0
C169 C 0.7536 0.70103 0.87233 0.0
C170 C 0.75959 0.70697 0.84938 0.0
C171 C 0.74861 0.72298 0.83792 0.0
C172 C 0.73896 0.7909 0.78767 0.0
C173 C 0.7579 0.78146 0.77811 0.0
C174 C 0.77143 0.79263 0.76033 0.0
C175 C 0.76633 0.81345 0.75175 0.0
C176 C 0.74688 0.82243 0.76065 0.0
C177 C 0.73333 0.81127 0.7784 0.0
C178 C 0.68066 0.79409 0.84933 0.0
C179 C 0.67984 0.81706 0.84381 0.0
C180 C 0.78582 0.19962 0.23996 0.0
C181 C 0.7666 0.20783 0.23024 0.0
C182 C 0.75888 0.22728 0.23983 0.0
C183 C 0.76946 0.23766 0.25938 0.0
H184 H 0.76964 0.29219 0.30333 0.0
H185 H 0.74651 0.31816 0.32216 0.0
H186 H 0.77213 0.30093 0.38834 0.0
H187 H 0.7957 0.27496 0.36946 0.0
H188 H 0.84354 0.24674 0.36481 0.0
H189 H 0.86806 0.22421 0.38648 0.0
H190 H 0.8558 0.17028 0.33604 0.0
H191 H 0.83152 0.19252 0.31436 0.0
H192 H 0.81073 0.20276 0.26692 0.0
H193 H 0.79243 0.18489 0.23269 0.0
H194 H 0.74399 0.23391 0.23287 0.0
H195 H 0.76252 0.25215 0.26676 0.0
N196 N 0.78871 0.25576 0.30223 0.0
N197 N 0.81101 0.25218 0.33504 0.0
N198 N 0.81266 0.22728 0.30371 0.0
C199 C 0.79554 0.26307 0.32359 0.0
C200 C 0.81976 0.23431 0.32508 0.0
C201 C 0.79721 0.23793 0.29213 0.0
C202 C 0.78427 0.28119 0.33491 0.0
C203 C 0.7706 0.29405 0.32188 0.0
C204 C 0.75726 0.3089 0.33266 0.0
C205 C 0.75719 0.31125 0.35674 0.0
C206 C 0.77187 0.29947 0.36973 0.0
C207 C 0.78532 0.28456 0.3589 0.0
C208 C 0.8355 0.22144 0.33787 0.0
C209 C 0.84616 0.23012 0.35829 0.0
C210 C 0.86026 0.21731 0.37065 0.0
C211 C 0.86365 0.1955 0.36296 0.0
C212 C 0.85325 0.18696 0.34245 0.0
C213 C 0.83944 0.19981 0.32998 0.0
C214 C 0.78795 0.22876 0.26981 0.0
C215 C 0.79638 0.20995 0.25953 0.0
C216 C 0.26942 0.61684 0.16956 0.0
C217 C 0.26317 0.6239 0.14753 0.0
C218 C 0.27817 0.64197 0.13712 0.0
C219 C 0.29841 0.65255 0.14817 0.0
H220 H 0.34086 0.71322 0.1475 0.0
H221 H 0.35784 0.74877 0.12976 0.0
H222 H 0.41845 0.75042 0.17232 0.0
H223 H 0.40081 0.71486 0.19083 0.0
H224 H 0.40101 0.66774 0.22772 0.0
H225 H 0.41724 0.65111 0.26138 0.0
H226 H 0.35064 0.61078 0.27539 0.0
H227 H 0.33452 0.62708 0.24153 0.0
H228 H 0.29402 0.62117 0.19735 0.0
H229 H 0.25862 0.60293 0.17825 0.0
H230 H 0.2741 0.6483 0.12041 0.0
H231 H 0.30914 0.66639 0.13929 0.0
N232 N 0.33803 0.67709 0.17245 0.0
N233 N 0.36703 0.67904 0.20056 0.0
N234 N 0.33593 0.64847 0.20065 0.0
C235 C 0.35799 0.68832 0.18165 0.0
C236 C 0.35614 0.65911 0.21034 0.0
C237 C 0.32679 0.65723 0.18153 0.0
C238 C 0.36928 0.71066 0.17081 0.0
C239 C 0.35785 0.72099 0.15323 0.0
C240 C 0.36783 0.74161 0.14275 0.0
C241 C 0.38992 0.75298 0.14911 0.0
C242 C 0.40138 0.74271 0.16682 0.0
C243 C 0.39125 0.72203 0.17748 0.0
C244 C 0.36625 0.64895 0.23147 0.0
C245 C 0.38972 0.65532 0.23789 0.0
C246 C 0.39915 0.6456 0.2573 0.0
C247 C 0.38545 0.6294 0.27153 0.0
C248 C 0.36192 0.62324 0.26525 0.0
C249 C 0.35262 0.6326 0.24557 0.0
C250 C 0.30484 0.64544 0.17009 0.0
C251 C 0.28994 0.62728 0.18054 0.0
C252 C 0.13828 0.27828 0.63276 0.0
C253 C 0.12062 0.26308 0.64371 0.0
C254 C 0.11312 0.26924 0.66587 0.0
C255 C 0.12286 0.2899 0.67655 0.0
H256 H 0.11514 0.3391 0.73256 0.0
H257 H 0.09913 0.35633 0.76652 0.0
H258 H 0.1544 0.41326 0.76186 0.0
H259 H 0.17011 0.39629 0.72785 0.0
H260 H 0.21589 0.39295 0.69222 0.0
H261 H 0.25211 0.4104 0.67347 0.0
H262 H 0.23595 0.36743 0.6139 0.0
H263 H 0.20057 0.34953 0.63293 0.0
H264 H 0.16173 0.30956 0.63417 0.0
H265 H 0.14491 0.27425 0.61592 0.0
H266 H 0.09946 0.2582 0.67492 0.0
H267 H 0.11657 0.29392 0.69352 0.0
N268 N 0.14323 0.33578 0.69621 0.0
N269 N 0.17402 0.36656 0.69538 0.0
N270 N 0.17187 0.33822 0.66684 0.0
C271 C 0.15403 0.35577 0.70571 0.0
C272 C 0.1831 0.35792 0.67591 0.0
C273 C 0.15208 0.32686 0.67666 0.0
C274 C 0.14407 0.36611 0.72706 0.0
C275 C 0.12395 0.3553 0.73871 0.0
C276 C 0.11477 0.36522 0.75845 0.0
C277 C 0.12524 0.38644 0.76734 0.0
C278 C 0.14539 0.39717 0.75566 0.0
C279 C 0.1546 0.38724 0.73603 0.0
C280 C 0.2051 0.3696 0.66432 0.0
C281 C 0.22007 0.38721 0.67512 0.0
C282 C 0.24093 0.39737 0.6642 0.0
C283 C 0.2475 0.39043 0.64198 0.0
C284 C 0.23221 0.37308 0.63113 0.0
C285 C 0.21157 0.36282 0.6421 0.0
C286 C 0.14067 0.30497 0.66555 0.0
C287 C 0.14812 0.29868 0.64344 0.0
Tb288 Tb 0.02997 0.01259 0.48722 0.0
Tb289 Tb 0.98604 0.00816 0.52277 0.0
C290 C 0.98872 0.9712 0.4842 0.0
C291 C 0.081 0.03349 0.44906 0.0
C292 C 0.11464 0.06685 0.42907 0.0
C293 C 0.10954 0.04512 0.41898 0.0
C294 C 0.0929 0.02859 0.42894 0.0
C295 C 0.08565 0.05522 0.4591 0.0
C296 C 0.1024 0.07182 0.44916 0.0
C297 C 0.06393 0.0156 0.45922 0.0
O298 O 0.01138 0.04068 0.47905 0.0
O299 O 0.97566 0.02333 0.49126 0.0
O300 O 1.00428 0.0429 0.52766 0.0
O301 O 0.04063 0.03749 0.51478 0.0
O302 O 0.94999 0.99991 0.52832 0.0
O303 O 0.97258 0.01367 0.55572 0.0
O304 O 0.013 0.99345 0.54057 0.0
O305 O 0.03311 0.98354 0.5088 0.0
O306 O 1.00287 0.98676 0.47268 0.0
O307 O 0.98354 0.97459 0.50601 0.0
C308 C 0.98864 0.03907 0.47917 0.0
O309 O 0.06563 0.01222 0.48128 0.0
O310 O 0.0424 0.01545 0.45305 0.0
C311 C 0.02695 0.04952 0.52655 0.0
C312 C 0.93968 0.98774 0.56593 0.0
C313 C 0.91645 0.95534 0.59664 0.0
C314 C 0.90824 0.97626 0.59316 0.0
C315 C 0.91979 0.99233 0.57794 0.0
C316 C 0.94799 0.96689 0.56917 0.0
C317 C 0.9364 0.95074 0.58443 0.0
C318 C 0.9515 1.00493 0.55016 0.0
C319 C 0.02805 0.98172 0.53084 0.0
H320 H 0.11827 0.04092 0.40324 0.0
H321 H 0.08934 0.01194 0.42091 0.0
H322 H 0.07647 0.05927 0.47464 0.0
H323 H 0.10602 0.08838 0.45737 0.0
H324 H 0.89267 0.98011 0.602 0.0
H325 H 0.91316 0.00833 0.5755 0.0
H326 H 0.96341 0.96317 0.55995 0.0
H327 H 0.94318 0.93481 0.58687 0.0
Tb328 Tb 0.52786 0.01082 0.02852 0.0
Tb329 Tb 0.48229 1.00664 0.9956 0.0
C330 C 0.52345 0.97863 0.98476 0.0
C331 C 0.57961 0.03158 0.06438 0.0
C332 C 0.61255 0.06473 0.08491 0.0
C333 C 0.6179 0.04273 0.08029 0.0
C334 C 0.60154 0.0263 0.07017 0.0
C335 C 0.57431 0.05367 0.0683 0.0
C336 C 0.59067 0.07014 0.07855 0.0
C337 C 0.56255 0.01368 0.05454 0.0
O338 O 0.53793 0.03681 1.00163 0.0
O339 O 0.50176 0.04059 0.98782 0.0
O340 O 0.47367 0.02257 0.02771 0.0
O341 O 0.50989 0.03901 0.03842 0.0
O342 O 0.46732 0.01006 0.96334 0.0
O343 O 0.44585 1.00189 0.99371 0.0
O344 O 0.47887 0.97327 0.01282 0.0
O345 O 0.5019 0.98386 0.04393 0.0
O346 O 0.5317 0.9829 1.00544 0.0
O347 O 0.50618 0.98811 0.97658 0.0
C348 C 0.52428 0.04798 0.98929 0.0
O349 O 0.54108 0.01278 0.06195 0.0
O350 O 0.56383 0.011 0.03228 0.0
C351 C 0.48723 0.03811 0.03918 0.0
C352 C 0.43126 0.9869 0.95865 0.0
C353 C 0.4013 0.95343 0.93508 0.0
C354 C 0.39517 0.9753 0.93865 0.0
C355 C 0.41006 0.9919 0.95035 0.0
C356 C 0.43758 0.96515 0.95516 0.0
C357 C 0.42271 0.94852 0.94335 0.0
C358 C 0.44621 1.00443 0.97144 0.0
C359 C 0.48611 0.96906 0.0336 0.0
H360 H 0.63475 0.03817 0.08456 0.0
H361 H 0.60594 0.00937 0.06703 0.0
H362 H 0.55745 0.05806 0.06376 0.0
H363 H 0.58598 0.08688 0.08203 0.0
H364 H 0.37897 0.97968 0.93217 0.0
H365 H 0.40498 0.00864 0.95296 0.0
H366 H 0.45389 0.96105 0.96166 0.0
H367 H 0.42778 0.93175 0.94099 0.0
Tb368 Tb 0.50908 0.48688 0.49525 0.0
Tb369 Tb 0.50637 0.53307 0.52408 0.0
C370 C 0.48537 0.52768 0.4741 0.0
C371 C 0.53264 0.43981 0.46507 0.0
C372 C 0.57197 0.41978 0.45132 0.0
C373 C 0.55468 0.42294 0.43538 0.0
C374 C 0.53519 0.43277 0.44223 0.0
C375 C 0.54978 0.43668 0.48112 0.0
C376 C 0.5692 0.42662 0.47434 0.0
C377 C 0.51301 0.45194 0.47124 0.0
O378 O 0.54492 0.50458 0.49416 0.0
O379 O 0.53703 0.54069 0.50124 0.0
O380 O 0.52902 0.51469 0.5454 0.0
O381 O 0.52135 0.47884 0.52966 0.0
O382 O 0.50893 0.56877 0.52413 0.0
O383 O 0.50192 0.54968 0.55558 0.0
O384 O 0.47596 0.50996 0.5363 0.0
O385 O 0.47281 0.48251 0.50806 0.0
O386 O 0.49863 0.51168 0.47049 0.0
O387 O 0.48212 0.53482 0.49529 0.0
C388 C 0.5511 0.5268 0.4933 0.0
O389 O 0.50606 0.45116 0.4927 0.0
O390 O 0.51439 0.47241 0.46288 0.0
C391 C 0.53 0.49253 0.54638 0.0
C392 C 0.4825 0.58143 0.55092 0.0
C393 C 0.44333 0.60276 0.56225 0.0
C394 C 0.46091 0.6015 0.57846 0.0
C395 C 0.48033 0.591 0.57281 0.0
C396 C 0.46496 0.58248 0.5347 0.0
C397 C 0.44563 0.59316 0.54026 0.0
C398 C 0.50248 0.56942 0.54569 0.0
C399 C 0.4644 0.49186 0.52644 0.0
H400 H 0.55642 0.41834 0.41743 0.0
H401 H 0.52232 0.43536 0.42953 0.0
H402 H 0.54833 0.44226 0.49882 0.0
H403 H 0.58202 0.42422 0.48713 0.0
H404 H 0.45952 0.60831 0.59569 0.0
H405 H 0.49353 0.59007 0.58564 0.0
H406 H 0.46612 0.57499 0.51774 0.0
H407 H 0.43261 0.59405 0.52726 0.0
Tb408 Tb 0.00651 0.53167 0.99486 0.0
Tb409 Tb 0.00673 0.48466 0.02308 0.0
C410 C 0.02971 0.49093 0.97268 0.0
C411 C 0.98322 0.57744 0.9646 0.0
C412 C 0.94264 0.59579 0.95312 0.0
C413 C 0.94439 0.5728 0.94847 0.0
C414 C 0.96444 0.56371 0.95421 0.0
C415 C 0.98168 0.60047 0.96896 0.0
C416 C 0.96154 0.60958 0.96331 0.0
C417 C 1.00365 0.56752 0.97242 0.0
O418 O 0.9756 0.50925 0.9825 0.0
O419 O 0.97102 0.48082 0.00971 0.0
O420 O 0.99281 0.50748 0.04799 0.0
O421 O 0.98276 0.53512 0.02418 0.0
O422 O 1.00322 0.44886 0.02412 0.0
O423 O 0.01118 0.46889 0.05471 0.0
O424 O 0.04252 0.50283 0.0263 0.0
O425 O 0.03615 0.53921 0.01819 0.0
O426 O 0.03067 0.51322 0.97493 0.0
O427 O 0.01875 0.47707 0.98823 0.0
C428 C 0.96339 0.49091 0.99168 0.0
O429 O 0.00635 0.56718 0.99462 0.0
O430 O 0.00702 0.54828 0.96295 0.0
C431 C 0.98268 0.52569 0.04471 0.0
C432 C 0.02929 0.43638 0.05042 0.0
C433 C 0.06866 0.41661 0.06263 0.0
C434 C 0.04922 0.41526 0.07759 0.0
C435 C 0.02966 0.42504 0.0715 0.0
C436 C 0.04851 0.43746 0.03523 0.0
C437 C 0.068 0.42748 0.04123 0.0
C438 C 0.00974 0.44873 0.04547 0.0
C439 C 0.04916 0.52507 0.02714 0.0
H440 H 0.93002 0.56168 0.94089 0.0
H441 H 0.96504 0.54581 0.95085 0.0
H442 H 0.99591 0.61132 0.97708 0.0
H443 H 0.96076 0.62742 0.96687 0.0
H444 H 0.04922 0.40679 0.0941 0.0
H445 H 0.01505 0.42422 0.08348 0.0
H446 H 0.04868 0.44647 0.01901 0.0
H447 H 0.08285 0.42892 0.02949 0.0
H448 H 0.27175 0.17187 0.29729 0.0
H449 H 0.24832 0.14893 0.32614 0.0
H450 H 0.21303 0.20614 0.34367 0.0
H451 H 0.2376 0.2298 0.31592 0.0
H452 H 0.21771 0.18231 0.3811 0.0
H453 H 0.18962 0.16509 0.3052 0.0
H454 H 0.19171 0.15439 0.2642 0.0
H455 H 0.21234 0.09026 0.28298 0.0
H456 H 0.2107 0.10071 0.32411 0.0
H457 H 0.11306 0.11248 0.42291 0.0
H458 H 0.14155 0.13997 0.40225 0.0
H459 H 0.18491 0.0876 0.39017 0.0
H460 H 0.15686 0.0602 0.41108 0.0
H461 H 0.17505 0.1101 0.35051 0.0
H462 H 0.20116 0.12873 0.42794 0.0
H463 H 0.19502 0.13993 0.46829 0.0
H464 H 0.17374 0.20257 0.44559 0.0
H465 H 0.17939 0.19157 0.40506 0.0
C466 C 0.25954 0.17987 0.30771 0.0
C467 C 0.2564 0.20268 0.30399 0.0
C468 C 0.24591 0.16659 0.32402 0.0
C469 C 0.22847 0.17564 0.33659 0.0
C470 C 0.22621 0.19873 0.33397 0.0
C471 C 0.2401 0.21216 0.31789 0.0
C472 C 0.21167 0.1606 0.35125 0.0
C473 C 0.20823 0.16663 0.37436 0.0
C474 C 0.19924 0.14013 0.34246 0.0
C475 C 0.20027 0.13379 0.31773 0.0
C476 C 0.19478 0.14878 0.30058 0.0
C477 C 0.19585 0.14275 0.27732 0.0
C478 C 0.20221 0.12168 0.27099 0.0
C479 C 0.20745 0.10658 0.28791 0.0
C480 C 0.20644 0.11254 0.3112 0.0
C481 C 0.12888 0.10695 0.41623 0.0
C482 C 0.13261 0.08412 0.4184 0.0
C483 C 0.14509 0.12265 0.40441 0.0
C484 C 0.16527 0.11575 0.39469 0.0
C485 C 0.16935 0.09318 0.39744 0.0
C486 C 0.15325 0.07754 0.40928 0.0
C487 C 0.18153 0.13155 0.3804 0.0
C488 C 0.18467 0.12573 0.35726 0.0
C489 C 0.19327 0.15232 0.38908 0.0
C490 C 0.1905 0.15923 0.41346 0.0
C491 C 0.19504 0.14483 0.43154 0.0
C492 C 0.19165 0.15115 0.45445 0.0
C493 C 0.18393 0.17192 0.4595 0.0
C494 C 0.17969 0.18647 0.44165 0.0
C495 C 0.183 0.18021 0.41871 0.0
H496 H 0.18127 0.17675 0.47724 0.0
H497 H 0.20302 0.11704 0.25297 0.0
H498 H 0.23709 0.83403 0.82059 0.0
H499 H 0.2613 0.85546 0.84979 0.0
H500 H 0.32321 0.83958 0.81481 0.0
H501 H 0.2992 0.81817 0.78571 0.0
H502 H 0.32702 0.83581 0.8605 0.0
H503 H 0.30463 0.89094 0.80761 0.0
H504 H 0.27712 0.91039 0.78577 0.0
H505 H 0.24553 0.92933 0.84903 0.0
H506 H 0.27267 0.90971 0.87125 0.0
H507 H 0.41255 0.92447 0.90131 0.0
H508 H 0.38585 0.89761 0.87877 0.0
H509 H 0.32753 0.91634 0.91782 0.0
H510 H 0.35413 0.94322 0.9404 0.0
H511 H 0.32024 0.91757 0.87247 0.0
H512 H 0.34553 0.86456 0.92538 0.0
H513 H 0.37427 0.84595 0.94638 0.0
H514 H 0.40166 0.82376 0.88234 0.0
H515 H 0.37328 0.84251 0.86093 0.0
C516 C 0.25586 0.8351 0.81919 0.0
C517 C 0.26625 0.82445 0.80086 0.0
C518 C 0.26965 0.8473 0.83586 0.0
C519 C 0.29405 0.84928 0.83431 0.0
C520 C 0.30442 0.83819 0.81638 0.0
C521 C 0.29066 0.82591 0.79979 0.0
C522 C 0.30892 0.86358 0.85084 0.0
C523 C 0.32567 0.85373 0.86302 0.0
C524 C 0.30684 0.88684 0.85441 0.0
C525 C 0.2905 0.89863 0.84108 0.0
C526 C 0.29169 0.89909 0.81686 0.0
C527 C 0.27619 0.91017 0.80441 0.0
C528 C 0.25954 0.92103 0.816 0.0
C529 C 0.2584 0.92087 0.84007 0.0
C530 C 0.27385 0.90978 0.8526 0.0
C531 C 0.39408 0.92256 0.90533 0.0
C532 C 0.3854 0.93598 0.92253 0.0
C533 C 0.37885 0.90723 0.89246 0.0
C534 C 0.35473 0.9049 0.89674 0.0
C535 C 0.34608 0.91794 0.91422 0.0
C536 C 0.36128 0.93331 0.92703 0.0
C537 C 0.33841 0.88985 0.8821 0.0
C538 C 0.32142 0.89958 0.87019 0.0
C539 C 0.3404 0.86655 0.8787 0.0
C540 C 0.35738 0.8551 0.89154 0.0
C541 C 0.35778 0.85585 0.91576 0.0
C542 C 0.37399 0.84525 0.92774 0.0
C543 C 0.38981 0.83372 0.9157 0.0
C544 C 0.38941 0.83271 0.89165 0.0
C545 C 0.37324 0.8433 0.87958 0.0
H546 H 0.40235 0.82553 0.92501 0.0
H547 H 0.24756 0.92961 0.80634 0.0
H548 H 0.6495 0.41076 0.71264 0.0
H549 H 0.63388 0.42807 0.67925 0.0
H550 H 0.56415 0.40854 0.70581 0.0
H551 H 0.57969 0.39091 0.73915 0.0
H552 H 0.56086 0.40322 0.6628 0.0
H553 H 0.59652 0.46706 0.70584 0.0
H554 H 0.62784 0.49114 0.72649 0.0
H555 H 0.66973 0.49809 0.66457 0.0
H556 H 0.63876 0.47381 0.64362 0.0
H557 H 0.54371 0.5128 0.58835 0.0
H558 H 0.55918 0.4957 0.62221 0.0
H559 H 0.55725 0.4321 0.58554 0.0
H560 H 0.54103 0.44887 0.55211 0.0
H561 H 0.5949 0.47996 0.63505 0.0
H562 H 0.55347 0.38617 0.62034 0.0
H563 H 0.51816 0.36463 0.60343 0.0
H564 H 0.48124 0.42164 0.61478 0.0
H565 H 0.51623 0.44341 0.632 0.0
C566 C 0.63082 0.41025 0.71169 0.0
C567 C 0.61612 0.39926 0.72922 0.0
C568 C 0.62176 0.42034 0.69231 0.0
C569 C 0.59756 0.4203 0.68959 0.0
C570 C 0.58284 0.40909 0.70694 0.0
C571 C 0.59188 0.39883 0.72626 0.0
C572 C 0.58765 0.43162 0.66884 0.0
C573 C 0.56851 0.41998 0.65682 0.0
C574 C 0.59677 0.45385 0.66072 0.0
C575 C 0.61542 0.46843 0.67323 0.0
C576 C 0.61248 0.4736 0.69667 0.0
C577 C 0.63016 0.4873 0.70842 0.0
C578 C 0.65079 0.49609 0.69686 0.0
C579 C 0.65376 0.49124 0.67351 0.0
C580 C 0.63614 0.47752 0.66169 0.0
C581 C 0.54653 0.49514 0.58741 0.0
C582 C 0.54078 0.48239 0.56713 0.0
C583 C 0.55552 0.48525 0.60699 0.0
C584 C 0.55924 0.46216 0.60723 0.0
C585 C 0.55411 0.44964 0.58668 0.0
C586 C 0.5449 0.45943 0.56722 0.0
C587 C 0.56844 0.45135 0.62869 0.0
C588 C 0.58738 0.46312 0.6409 0.0
C589 C 0.55872 0.42949 0.63737 0.0
C590 C 0.53755 0.41648 0.62722 0.0
C591 C 0.53779 0.39407 0.61929 0.0
C592 C 0.51784 0.38183 0.60964 0.0
C593 C 0.49749 0.39179 0.60796 0.0
C594 C 0.49703 0.41398 0.61601 0.0
C595 C 0.51692 0.42628 0.62569 0.0
H596 H 0.48208 0.3823 0.60047 0.0
H597 H 0.66445 0.5067 0.70599 0.0
H598 H 0.90339 0.65194 0.2075 0.0
H599 H 0.91883 0.63449 0.1733 0.0
H600 H 0.91123 0.5697 0.20804 0.0
H601 H 0.89609 0.5871 0.24241 0.0
H602 H 0.95231 0.5764 0.18479 0.0
H603 H 0.87297 0.5819 0.16538 0.0
H604 H 0.83886 0.60169 0.15981 0.0
H605 H 0.87708 0.64537 0.10926 0.0
H606 H 0.91155 0.62602 0.11476 0.0
H607 H 0.97147 0.50726 0.08778 0.0
H608 H 0.95517 0.52475 0.12134 0.0
H609 H 0.95329 0.58631 0.0825 0.0
H610 H 0.96866 0.5684 0.04849 0.0
H611 H 0.91725 0.58193 0.10802 0.0
H612 H 0.9965 0.57806 0.12692 0.0
H613 H 0.03177 0.56002 0.13257 0.0
H614 H 0.99575 0.51578 0.18398 0.0
H615 H 0.96016 0.53336 0.17842 0.0
C616 C 0.9051 0.634 0.20804 0.0
C617 C 0.89825 0.6211 0.22806 0.0
C618 C 0.91381 0.6239 0.18822 0.0
C619 C 0.91611 0.60051 0.18762 0.0
C620 C 0.90966 0.58769 0.2077 0.0
C621 C 0.90076 0.59772 0.22745 0.0
C622 C 0.92525 0.58946 0.16628 0.0
C623 C 0.94439 0.5774 0.16809 0.0
C624 C 0.91563 0.5911 0.14406 0.0
C625 C 0.89491 0.60266 0.14065 0.0
C626 C 0.87416 0.59583 0.1532 0.0
C627 C 0.85475 0.60695 0.15004 0.0
C628 C 0.85582 0.62482 0.13424 0.0
C629 C 0.87629 0.63156 0.12152 0.0
C630 C 0.89576 0.62051 0.12464 0.0
C631 C 0.96753 0.52451 0.08624 0.0
C632 C 0.97159 0.53628 0.06514 0.0
C633 C 0.95833 0.5347 0.10571 0.0
C634 C 0.95334 0.55733 0.10513 0.0
C635 C 0.95693 0.56895 0.08387 0.0
C636 C 0.96581 0.55862 0.06426 0.0
C637 C 0.94439 0.56876 0.12645 0.0
C638 C 0.92527 0.58091 0.12467 0.0
C639 C 0.95423 0.56746 0.14866 0.0
C640 C 0.9756 0.55688 0.15208 0.0
C641 C 0.99606 0.56438 0.13932 0.0
C642 C 0.01611 0.55425 0.14252 0.0
C643 C 0.01598 0.53672 0.15858 0.0
C644 C 0.99581 0.52933 0.17152 0.0
C645 C 0.9757 0.53938 0.16836 0.0
H646 H 0.03152 0.5289 0.16103 0.0
H647 H 0.84078 0.63341 0.13182 0.0
H648 H 0.36082 0.18137 0.11569 0.0
H649 H 0.38262 0.15373 0.09711 0.0
H650 H 0.43835 0.17062 0.14529 0.0
H651 H 0.41661 0.19847 0.16398 0.0
H652 H 0.45316 0.16557 0.09786 0.0
H653 H 0.40311 0.12551 0.15607 0.0
H654 H 0.36558 0.11374 0.17619 0.0
H655 H 0.3366 0.08324 0.11387 0.0
H656 H 0.37388 0.09515 0.09328 0.0
H657 H 0.50794 0.06834 0.07109 0.0
H658 H 0.49037 0.09778 0.09187 0.0
H659 H 0.42542 0.07696 0.05726 0.0
H660 H 0.44256 0.04713 0.0371 0.0
H661 H 0.41688 0.08448 0.10023 0.0
H662 H 0.46444 0.12524 0.04106 0.0
H663 H 0.5008 0.13751 0.0191 0.0
H664 H 0.53311 0.16717 0.08031 0.0
H665 H 0.49702 0.15481 0.10271 0.0
C666 C 0.37789 0.1795 0.12208 0.0
C667 C 0.38702 0.19203 0.1413 0.0
C668 C 0.39024 0.16362 0.11155 0.0
C669 C 0.41196 0.16005 0.11999 0.0
C670 C 0.42158 0.17315 0.13859 0.0
C671 C 0.40911 0.18891 0.14929 0.0
C672 C 0.42398 0.14182 0.11005 0.0
C673 C 0.44546 0.14778 0.09863 0.0
C674 C 0.4136 0.11874 0.11069 0.0
C675 C 0.39122 0.1114 0.12309 0.0
C676 C 0.38868 0.11645 0.14661 0.0
C677 C 0.36746 0.10973 0.15811 0.0
C678 C 0.3487 0.0978 0.1463 0.0
C679 C 0.35114 0.09251 0.12299 0.0
C680 C 0.37232 0.09922 0.1114 0.0
C681 C 0.48989 0.06999 0.068 0.0
C682 C 0.47664 0.05542 0.05245 0.0
C683 C 0.47991 0.0869 0.07979 0.0
C684 C 0.45667 0.08981 0.07587 0.0
C685 C 0.44337 0.07505 0.06058 0.0
C686 C 0.45322 0.05799 0.04905 0.0
C687 C 0.44601 0.10815 0.08763 0.0
C688 C 0.42474 0.10222 0.09949 0.0
C689 C 0.45646 0.13128 0.08708 0.0
C690 C 0.47811 0.1389 0.07361 0.0
C691 C 0.47935 0.13425 0.04987 0.0
C692 C 0.4999 0.14123 0.03733 0.0
C693 C 0.51927 0.15306 0.04832 0.0
C694 C 0.5181 0.15798 0.07184 0.0
C695 C 0.4976 0.15101 0.08446 0.0
H696 H 0.53516 0.15845 0.03859 0.0
H697 H 0.33228 0.0926 0.15523 0.0
H698 H 0.1454 0.83294 0.60968 0.0
H699 H 0.12333 0.85862 0.58946 0.0
H700 H 0.08923 0.87324 0.65326 0.0
H701 H 0.11042 0.84668 0.67348 0.0
H702 H 0.05914 0.87012 0.61838 0.0
H703 H 0.13567 0.9096 0.63255 0.0
H704 H 0.17864 0.91531 0.63194 0.0
H705 H 0.17907 0.91253 0.55799 0.0
H706 H 0.13608 0.90649 0.55817 0.0
H707 H 0.02249 0.9728 0.57712 0.0
H708 H 0.04084 0.94554 0.59957 0.0
H709 H 0.07626 0.92619 0.53824 0.0
H710 H 0.05843 0.95354 0.51582 0.0
H711 H 0.10528 0.93276 0.57387 0.0
H712 H 0.02811 0.89268 0.56021 0.0
H713 H 0.98519 0.88869 0.56139 0.0
H714 H 0.98599 0.89403 0.63518 0.0
H715 H 0.02896 0.89839 0.63442 0.0
C716 C 0.13284 0.8412 0.61937 0.0
C717 C 0.12983 0.83788 0.64326 0.0
C718 C 0.12042 0.85609 0.60781 0.0
C719 C 0.105 0.8682 0.61995 0.0
C720 C 0.10118 0.8642 0.64359 0.0
C721 C 0.11348 0.84918 0.65515 0.0
C722 C 0.09363 0.88569 0.60811 0.0
C723 C 0.06922 0.88398 0.60887 0.0
C724 C 0.10679 0.90367 0.59556 0.0
C725 C 0.13265 0.90739 0.59539 0.0
C726 C 0.14493 0.91004 0.61616 0.0
C727 C 0.16929 0.91336 0.61589 0.0
C728 C 0.18158 0.91422 0.59494 0.0
C729 C 0.16953 0.91183 0.57421 0.0
C730 C 0.14517 0.90848 0.57438 0.0
C731 C 0.0342 0.96275 0.56842 0.0
C732 C 0.03898 0.96535 0.54467 0.0
C733 C 0.04459 0.94712 0.58125 0.0
C734 C 0.05974 0.93371 0.57051 0.0
C735 C 0.06463 0.93638 0.54686 0.0
C736 C 0.05435 0.95201 0.53407 0.0
C737 C 0.0708 0.91697 0.58378 0.0
C738 C 0.09519 0.9189 0.58338 0.0
C739 C 0.05761 0.89931 0.59672 0.0
C740 C 0.03176 0.89607 0.59724 0.0
C741 C 0.01914 0.89312 0.57668 0.0
C742 C 0.9948 0.89079 0.57727 0.0
C743 C 0.98287 0.89118 0.59834 0.0
C744 C 0.99526 0.89377 0.61887 0.0
C745 C 0.0196 0.89615 0.61837 0.0
H746 H 0.96403 0.88943 0.59876 0.0
H747 H 0.20044 0.9168 0.59477 0.0
H748 H 0.77764 0.37049 0.90197 0.0
H749 H 0.81267 0.38736 0.92186 0.0
H750 H 0.80615 0.45293 0.89301 0.0
H751 H 0.77062 0.43631 0.87339 0.0
H752 H 0.85121 0.44656 0.89135 0.0
H753 H 0.79233 0.43921 0.95097 0.0
H754 H 0.76063 0.41903 0.97514 0.0
H755 H 0.80655 0.37368 0.99909 0.0
H756 H 0.83846 0.3934 0.97481 0.0
H757 H 0.93691 0.51131 0.96095 0.0
H758 H 0.90095 0.49528 0.94197 0.0
H759 H 0.9019 0.43161 0.97737 0.0
H760 H 0.93751 0.44802 0.99716 0.0
H761 H 0.85936 0.43698 0.97552 0.0
H762 H 0.91789 0.44281 0.91591 0.0
H763 H 0.95 0.4619 0.89149 0.0
H764 H 0.90555 0.50842 0.867 0.0
H765 H 0.87325 0.48976 0.89149 0.0
C766 C 0.78323 0.3886 0.89998 0.0
C767 C 0.77057 0.40183 0.88594 0.0
C768 C 0.80359 0.39831 0.91145 0.0
C769 C 0.81231 0.42169 0.90944 0.0
C770 C 0.80009 0.43489 0.89508 0.0
C771 C 0.7796 0.42521 0.88367 0.0
C772 C 0.83405 0.43223 0.92216 0.0
C773 C 0.85276 0.44468 0.90982 0.0
C774 C 0.83685 0.42949 0.94626 0.0
C775 C 0.81772 0.41764 0.9609 0.0
C776 C 0.79562 0.42482 0.96125 0.0
C777 C 0.77762 0.41349 0.975 0.0
C778 C 0.78156 0.39505 0.9886 0.0
C779 C 0.80352 0.38794 0.98852 0.0
C780 C 0.82157 0.39921 0.97479 0.0
C781 C 0.92955 0.49388 0.96479 0.0
C782 C 0.94053 0.48107 0.98068 0.0
C783 C 0.90885 0.48455 0.95366 0.0
C784 C 0.8985 0.46179 0.95748 0.0
C785 C 0.9092 0.44912 0.97375 0.0
C786 C 0.92976 0.45858 0.98516 0.0
C787 C 0.87666 0.45133 0.94472 0.0
C788 C 0.85789 0.43888 0.95705 0.0
C789 C 0.8739 0.45387 0.92055 0.0
C790 C 0.89322 0.46502 0.90569 0.0
C791 C 0.91501 0.45719 0.90541 0.0
C792 C 0.93323 0.46793 0.89155 0.0
C793 C 0.92983 0.4864 0.87775 0.0
C794 C 0.90817 0.49413 0.87772 0.0
C795 C 0.88989 0.48347 0.89157 0.0
H796 H 0.94397 0.4947 0.86704 0.0
H797 H 0.7676 0.3863 0.99923 0.0
H798 H 0.72926 0.64824 0.39135 0.0
H799 H 0.69403 0.63066 0.41153 0.0
H800 H 0.71657 0.56473 0.40446 0.0
H801 H 0.75193 0.58225 0.38411 0.0
H802 H 0.67166 0.55983 0.39731 0.0
H803 H 0.71941 0.59628 0.45714 0.0
H804 H 0.74357 0.62799 0.47685 0.0
H805 H 0.68558 0.66563 0.47971 0.0
H806 H 0.66115 0.63426 0.45973 0.0
H807 H 0.5866 0.50418 0.47689 0.0
H808 H 0.62311 0.52023 0.4576 0.0
H809 H 0.60399 0.58767 0.46421 0.0
H810 H 0.56787 0.57181 0.4841 0.0
H811 H 0.64796 0.59085 0.4721 0.0
H812 H 0.60051 0.55457 0.41129 0.0
H813 H 0.57631 0.52245 0.3922 0.0
H814 H 0.63382 0.48413 0.39176 0.0
H815 H 0.65829 0.51595 0.41107 0.0
C816 C 0.72697 0.63001 0.39422 0.0
C817 C 0.74388 0.61685 0.38609 0.0
C818 C 0.70663 0.61989 0.40587 0.0
C819 C 0.70249 0.59624 0.41011 0.0
C820 C 0.7191 0.58297 0.40161 0.0
C821 C 0.73943 0.59308 0.38983 0.0
C822 C 0.68094 0.58545 0.42326 0.0
C823 C 0.66673 0.56649 0.41382 0.0
C824 C 0.67388 0.59413 0.44471 0.0
C825 C 0.68852 0.61301 0.45674 0.0
C826 C 0.71186 0.61139 0.46182 0.0
C827 C 0.7256 0.62929 0.47307 0.0
C828 C 0.71614 0.64884 0.47947 0.0
C829 C 0.6929 0.6505 0.4747 0.0
C830 C 0.67909 0.63265 0.46344 0.0
C831 C 0.59016 0.52246 0.47435 0.0
C832 C 0.57402 0.53659 0.48216 0.0
C833 C 0.6111 0.53167 0.46307 0.0
C834 C 0.61648 0.5553 0.45886 0.0
C835 C 0.60054 0.56943 0.46704 0.0
C836 C 0.57971 0.56026 0.47847 0.0
C837 C 0.63855 0.56536 0.44607 0.0
C838 C 0.65288 0.58418 0.45559 0.0
C839 C 0.64572 0.55654 0.42472 0.0
C840 C 0.63115 0.53755 0.41281 0.0
C841 C 0.60795 0.53925 0.40722 0.0
C842 C 0.5942 0.52111 0.39635 0.0
C843 C 0.60351 0.50124 0.39083 0.0
C844 C 0.62663 0.49952 0.39607 0.0
C845 C 0.64045 0.51761 0.40695 0.0
H846 H 0.59282 0.4872 0.38245 0.0
H847 H 0.7268 0.66267 0.48818 0.0
H848 H 0.23978 0.30746 0.10905 0.0
H849 H 0.2107 0.32734 0.09074 0.0
H850 H 0.20915 0.37056 0.15054 0.0
H851 H 0.23863 0.35128 0.16869 0.0
H852 H 0.16549 0.34761 0.13811 0.0
H853 H 0.23213 0.39306 0.10266 0.0
H854 H 0.26877 0.39919 0.07998 0.0
H855 H 0.23353 0.36712 0.02131 0.0
H856 H 0.19671 0.36049 0.04376 0.0
H857 H 0.09086 0.42336 0.10351 0.0
H858 H 0.12517 0.40747 0.11605 0.0
H859 H 0.1286 0.3732 0.05059 0.0
H860 H 0.09443 0.38956 0.03775 0.0
H861 H 0.17131 0.39014 0.06428 0.0
H862 H 0.10529 0.34424 0.0982 0.0
H863 H 0.06825 0.33631 0.12008 0.0
H864 H 0.10168 0.36634 0.18061 0.0
H865 H 0.13887 0.37475 0.15898 0.0
C866 C 0.23373 0.3216 0.11805 0.0
C867 C 0.24134 0.32764 0.14044 0.0
C868 C 0.21705 0.33286 0.1076 0.0
C869 C 0.20774 0.3503 0.11937 0.0
C870 C 0.21604 0.35702 0.14127 0.0
C871 C 0.23279 0.34591 0.15163 0.0
C872 C 0.18802 0.36032 0.1098 0.0
C873 C 0.16683 0.35719 0.12213 0.0
C874 C 0.18962 0.372 0.08852 0.0
C875 C 0.21172 0.37606 0.07498 0.0
C876 C 0.23223 0.38712 0.08499 0.0
C877 C 0.25303 0.39073 0.07216 0.0
C878 C 0.2535 0.38349 0.04924 0.0
C879 C 0.23315 0.37269 0.03908 0.0
C880 C 0.21231 0.36902 0.05184 0.0
C881 C 0.09891 0.41239 0.09183 0.0
C882 C 0.08985 0.40742 0.06979 0.0
C883 C 0.1185 0.40334 0.09898 0.0
C884 C 0.12917 0.38878 0.08442 0.0
C885 C 0.12059 0.38432 0.06212 0.0
C886 C 0.10109 0.39362 0.05484 0.0
C887 C 0.14885 0.3778 0.09283 0.0
C888 C 0.16996 0.38057 0.08026 0.0
C889 C 0.14713 0.36547 0.11378 0.0
C890 C 0.12482 0.3603 0.12691 0.0
C891 C 0.10471 0.3493 0.11613 0.0
C892 C 0.08369 0.3447 0.1285 0.0
C893 C 0.0826 0.35086 0.15171 0.0
C894 C 0.10255 0.36159 0.16262 0.0
C895 C 0.12361 0.36626 0.15032 0.0
H896 H 0.06631 0.34729 0.16125 0.0
H897 H 0.26961 0.3863 0.03933 0.0
H898 H 0.57469 0.24119 0.87309 0.0
H899 H 0.55858 0.20533 0.89175 0.0
H900 H 0.62663 0.19782 0.91666 0.0
H901 H 0.64306 0.23294 0.89712 0.0
H902 H 0.60761 0.1579 0.90533 0.0
H903 H 0.57893 0.21535 0.95172 0.0
H904 H 0.55855 0.24837 0.9598 0.0
H905 H 0.49488 0.21129 0.93451 0.0
H906 H 0.51496 0.17813 0.92602 0.0
H907 H 0.5698 0.0704 0.98855 0.0
H908 H 0.58567 0.10601 0.96908 0.0
H909 H 0.51775 0.11156 0.94254 0.0
H910 H 0.50174 0.07621 0.96229 0.0
H911 H 0.53646 0.15233 0.95459 0.0
H912 H 0.56539 0.09471 0.90856 0.0
H913 H 0.5859 0.06166 0.90106 0.0
H914 H 0.64936 0.09921 0.92629 0.0
H915 H 0.62914 0.1324 0.93421 0.0
C916 C 0.58643 0.23192 0.8823 0.0
C917 C 0.6104 0.24065 0.88347 0.0
C918 C 0.57701 0.21131 0.89338 0.0
C919 C 0.59107 0.19856 0.90632 0.0
C920 C 0.61505 0.207 0.90712 0.0
C921 C 0.62448 0.22753 0.89599 0.0
C922 C 0.58108 0.17652 0.91878 0.0
C923 C 0.59221 0.15694 0.91632 0.0
C924 C 0.56061 0.17446 0.93295 0.0
C925 C 0.54851 0.19436 0.93801 0.0
C926 C 0.56062 0.2143 0.94773 0.0
C927 C 0.54912 0.23303 0.95241 0.0
C928 C 0.52545 0.23196 0.94761 0.0
C929 C 0.51322 0.21212 0.93818 0.0
C930 C 0.52465 0.19335 0.93344 0.0
C931 C 0.55816 0.07909 0.97853 0.0
C932 C 0.53435 0.06997 0.97708 0.0
C933 C 0.56736 0.0996 0.96718 0.0
C934 C 0.5532 0.1118 0.95375 0.0
C935 C 0.52935 0.10283 0.95257 0.0
C936 C 0.52014 0.08235 0.96392 0.0
C937 C 0.56302 0.13378 0.94114 0.0
C938 C 0.55185 0.15332 0.94358 0.0
C939 C 0.58349 0.13583 0.92701 0.0
C940 C 0.5957 0.11595 0.92218 0.0
C941 C 0.58368 0.09586 0.91265 0.0
C942 C 0.59526 0.07711 0.9083 0.0
C943 C 0.61891 0.07831 0.91325 0.0
C944 C 0.63104 0.09829 0.9225 0.0
C945 C 0.61953 0.11708 0.9269 0.0
H946 H 0.62784 0.06378 0.90988 0.0
H947 H 0.51657 0.24647 0.95125 0.0
H948 H 0.9383 0.77195 0.38089 0.0
H949 H 0.95478 0.80724 0.40034 0.0
H950 H 0.88703 0.82913 0.40223 0.0
H951 H 0.87047 0.79383 0.38318 0.0
H952 H 0.96154 0.84984 0.39243 0.0
H953 H 0.87994 0.86378 0.44732 0.0
H954 H 0.84639 0.8409 0.46676 0.0
H955 H 0.88454 0.78407 0.47064 0.0
H956 H 0.91841 0.8067 0.45151 0.0
H957 H 0.98356 0.96264 0.4377 0.0
H958 H 0.96748 0.92717 0.41853 0.0
H959 H 0.95645 0.8939 0.48458 0.0
H960 H 0.97122 0.92982 0.5038 0.0
H961 H 0.92286 0.87735 0.46172 0.0
H962 H 1.00376 0.88678 0.44152 0.0
H963 H 0.04122 0.90634 0.42615 0.0
H964 H 0.01093 0.91075 0.35957 0.0
H965 H 0.9732 0.89145 0.37461 0.0
C966 C 0.92686 0.78429 0.3853 0.0
C967 C 0.90286 0.77962 0.38049 0.0
C968 C 0.93637 0.80461 0.39655 0.0
C969 C 0.92227 0.82108 0.40337 0.0
C970 C 0.89842 0.81671 0.39796 0.0
C971 C 0.88889 0.79634 0.38691 0.0
C972 C 0.9324 0.84269 0.41599 0.0
C973 C 0.95298 0.85579 0.40756 0.0
C974 C 0.9219 0.8506 0.43621 0.0
C975 C 0.90161 0.83687 0.44774 0.0
C976 C 0.88118 0.84642 0.45237 0.0
C977 C 0.86211 0.83349 0.46334 0.0
C978 C 0.8633 0.81102 0.46986 0.0
C979 C 0.8836 0.80145 0.4655 0.0
C980 C 0.90273 0.81431 0.45457 0.0
C981 C 0.9777 0.94778 0.44819 0.0
C982 C 0.97884 0.94928 0.4724 0.0
C983 C 0.96863 0.92725 0.43712 0.0
C984 C 0.96104 0.9072 0.44981 0.0
C985 C 0.96204 0.9088 0.47407 0.0
C986 C 0.97062 0.92948 0.48516 0.0
C987 C 0.95185 0.88479 0.43797 0.0
C988 C 0.93143 0.8715 0.44655 0.0
C989 C 0.96296 0.87631 0.41836 0.0
C990 C 0.98561 0.88786 0.40925 0.0
C991 C 1.00506 0.89204 0.42363 0.0
C992 C 0.02634 0.90307 0.41498 0.0
C993 C 0.02843 0.90983 0.39191 0.0
C994 C 0.00927 0.90553 0.37744 0.0
C995 C 0.98794 0.89453 0.38601 0.0
H996 H 0.04492 0.91837 0.38525 0.0
H997 H 0.84852 0.80104 0.47834 0.0
H998 H 0.25091 0.68376 0.61734 0.0
H999 H 0.2797 0.66398 0.59694 0.0
H1000 H 0.33451 0.70095 0.63738 0.0
H1001 H 0.30608 0.72078 0.65751 0.0
H1002 H 0.34602 0.69972 0.59115 0.0
H1003 H 0.31268 0.64747 0.65136 0.0
H1004 H 0.28028 0.62361 0.67152 0.0
H1005 H 0.26381 0.58543 0.60943 0.0
H1006 H 0.29595 0.60929 0.58882 0.0
H1007 H 0.44219 0.64127 0.5882 0.0
H1008 H 0.40844 0.65936 0.59885 0.0
H1009 H 0.36415 0.60897 0.55965 0.0
H1010 H 0.39772 0.58985 0.55007 0.0
H1011 H 0.34368 0.61605 0.5988 0.0
H1012 H 0.38001 0.66469 0.53967 0.0
H1013 H 0.41219 0.68838 0.51905 0.0
H1014 H 0.42242 0.73341 0.57729 0.0
H1015 H 0.39051 0.70982 0.5984 0.0
C1016 C 0.26913 0.6877 0.62172 0.0
C1017 C 0.27626 0.7036 0.63916 0.0
C1018 C 0.2855 0.67636 0.61016 0.0
C1019 C 0.30918 0.68094 0.61578 0.0
C1020 C 0.31632 0.69717 0.63281 0.0
C1021 C 0.30003 0.70833 0.64442 0.0
C1022 C 0.32677 0.66864 0.60447 0.0
C1023 C 0.34559 0.68143 0.59284 0.0
C1024 C 0.32573 0.64471 0.60606 0.0
C1025 C 0.30651 0.63033 0.61848 0.0
C1026 C 0.30202 0.63412 0.64196 0.0
C1027 C 0.28373 0.62057 0.65348 0.0
C1028 C 0.26994 0.60307 0.64175 0.0
C1029 C 0.27447 0.59903 0.61848 0.0
C1030 C 0.29272 0.61255 0.60688 0.0
C1031 C 0.42527 0.63384 0.58202 0.0
C1032 C 0.42274 0.61409 0.56824 0.0
C1033 C 0.40599 0.64443 0.58784 0.0
C1034 C 0.3838 0.63583 0.57964 0.0
C1035 C 0.38113 0.61604 0.566 0.0
C1036 C 0.4004 0.60526 0.56036 0.0
C1037 C 0.3634 0.64721 0.58599 0.0
C1038 C 0.344 0.63427 0.59666 0.0
C1039 C 0.36382 0.67103 0.58336 0.0
C1040 C 0.38293 0.68539 0.57066 0.0
C1041 C 0.38921 0.67957 0.54813 0.0
C1042 C 0.40739 0.69299 0.53635 0.0
C1043 C 0.41936 0.71237 0.54687 0.0
C1044 C 0.41313 0.7184 0.56917 0.0
C1045 C 0.39497 0.70502 0.58104 0.0
H1046 H 0.43344 0.72274 0.53772 0.0
H1047 H 0.2558 0.59259 0.65069 0.0
H1048 H 0.78612 0.79715 0.71304 0.0
H1049 H 0.8127 0.81882 0.68521 0.0
H1050 H 0.80851 0.88047 0.72391 0.0
H1051 H 0.78205 0.859 0.75167 0.0
H1052 H 0.80403 0.88736 0.679 0.0
H1053 H 0.8559 0.85234 0.72714 0.0
H1054 H 0.87104 0.82028 0.74585 0.0
H1055 H 0.88334 0.79134 0.67961 0.0
H1056 H 0.86797 0.82309 0.6605 0.0
H1057 H 0.89919 0.96328 0.63935 0.0
H1058 H 0.87464 0.93634 0.66419 0.0
H1059 H 0.88078 0.88224 0.61552 0.0
H1060 H 0.9053 0.90924 0.59035 0.0
H1061 H 0.88341 0.86897 0.66196 0.0
H1062 H 0.83368 0.90602 0.61403 0.0
H1063 H 0.81958 0.93899 0.59601 0.0
H1064 H 0.80373 0.96474 0.66279 0.0
H1065 H 0.81809 0.93209 0.68124 0.0
C1066 C 0.79097 0.81531 0.71562 0.0
C1067 C 0.78195 0.82641 0.73447 0.0
C1068 C 0.80614 0.82764 0.69975 0.0
C1069 C 0.81269 0.85121 0.70261 0.0
C1070 C 0.80359 0.86231 0.72134 0.0
C1071 C 0.7884 0.85004 0.73712 0.0
C1072 C 0.82884 0.86456 0.68608 0.0
C1073 C 0.82145 0.88344 0.67544 0.0
C1074 C 0.85132 0.85904 0.68095 0.0
C1075 C 0.86052 0.83994 0.69241 0.0
C1076 C 0.86164 0.83903 0.71657 0.0
C1077 C 0.8703 0.82094 0.72725 0.0
C1078 C 0.87808 0.80375 0.71393 0.0
C1079 C 0.87726 0.80465 0.6899 0.0
C1080 C 0.86859 0.82269 0.67914 0.0
C1081 C 0.89536 0.94564 0.63394 0.0
C1082 C 0.90384 0.93842 0.61275 0.0
C1083 C 0.88141 0.93028 0.64817 0.0
C1084 C 0.87561 0.90745 0.64144 0.0
C1085 C 0.88504 0.89985 0.62091 0.0
C1086 C 0.89905 0.91526 0.60661 0.0
C1087 C 0.85871 0.89198 0.65539 0.0
C1088 C 0.8659 0.87272 0.66542 0.0
C1089 C 0.83604 0.89716 0.66007 0.0
C1090 C 0.82713 0.91669 0.64902 0.0
C1091 C 0.82734 0.91879 0.62488 0.0
C1092 C 0.81928 0.93741 0.61459 0.0
C1093 C 0.8108 0.95397 0.62825 0.0
C1094 C 0.81032 0.95191 0.65223 0.0
C1095 C 0.81839 0.93333 0.66261 0.0
H1096 H 0.80457 0.96838 0.62025 0.0
H1097 H 0.88479 0.78976 0.72223 0.0
H1098 H 0.75491 0.16183 0.22609 0.0
H1099 H 0.73136 0.14087 0.19649 0.0
H1100 H 0.72443 0.20401 0.16229 0.0
H1101 H 0.74824 0.22524 0.19195 0.0
H1102 H 0.68291 0.17708 0.16721 0.0
H1103 H 0.75841 0.16797 0.13842 0.0
H1104 H 0.7986 0.15909 0.14013 0.0
H1105 H 0.77275 0.09013 0.15945 0.0
H1106 H 0.7324 0.09867 0.1582 0.0
H1107 H 0.62387 0.11048 0.07602 0.0
H1108 H 0.65198 0.13802 0.09647 0.0
H1109 H 0.66757 0.08454 0.14137 0.0
H1110 H 0.63943 0.05711 0.12136 0.0
H1111 H 0.70691 0.11087 0.12532 0.0
H1112 H 0.63245 0.12146 0.15939 0.0
H1113 H 0.59206 0.12994 0.15852 0.0
H1114 H 0.6161 0.19586 0.12961 0.0
H1115 H 0.65664 0.18763 0.13001 0.0
C1116 C 0.74882 0.17127 0.21203 0.0
C1117 C 0.75359 0.19519 0.21128 0.0
C1118 C 0.7353 0.15926 0.19514 0.0
C1119 C 0.7264 0.17088 0.17704 0.0
C1120 C 0.73121 0.19475 0.1761 0.0
C1121 C 0.74475 0.20682 0.19306 0.0
C1122 C 0.71113 0.15796 0.15987 0.0
C1123 C 0.68832 0.16292 0.15763 0.0
C1124 C 0.7181 0.13928 0.14768 0.0
C1125 C 0.74236 0.13402 0.14834 0.0
C1126 C 0.76129 0.15096 0.14319 0.0
C1127 C 0.78411 0.14597 0.14406 0.0
C1128 C 0.78823 0.12407 0.14993 0.0
C1129 C 0.76953 0.10709 0.15491 0.0
C1130 C 0.74668 0.11199 0.15409 0.0
C1131 C 0.63319 0.10466 0.09035 0.0
C1132 C 0.62951 0.08161 0.09702 0.0
C1133 C 0.64927 0.12037 0.10194 0.0
C1134 C 0.66181 0.11327 0.12041 0.0
C1135 C 0.6582 0.0903 0.12702 0.0
C1136 C 0.64216 0.07464 0.11552 0.0
C1137 C 0.6786 0.12963 0.13319 0.0
C1138 C 0.70169 0.12531 0.13457 0.0
C1139 C 0.67186 0.14884 0.14462 0.0
C1140 C 0.64753 0.15382 0.14446 0.0
C1141 C 0.6291 0.13768 0.15266 0.0
C1142 C 0.60619 0.14246 0.15228 0.0
C1143 C 0.60151 0.16339 0.14394 0.0
C1144 C 0.61975 0.17963 0.13602 0.0
C1145 C 0.64269 0.17492 0.13632 0.0
H1146 H 0.58376 0.16706 0.14366 0.0
H1147 H 0.8059 0.12025 0.15059 0.0
H1148 H 0.36541 0.61991 0.31496 0.0
H1149 H 0.3817 0.60335 0.34872 0.0
H1150 H 0.44478 0.59813 0.31027 0.0
H1151 H 0.42871 0.61498 0.27654 0.0
H1152 H 0.42974 0.55817 0.33584 0.0
H1153 H 0.44375 0.63891 0.35119 0.0
H1154 H 0.43248 0.67721 0.35643 0.0
H1155 H 0.38612 0.65233 0.412 0.0
H1156 H 0.39688 0.61379 0.40688 0.0
H1157 H 0.49854 0.5274 0.42818 0.0
H1158 H 0.48241 0.54472 0.39516 0.0
H1159 H 0.43067 0.56863 0.43953 0.0
H1160 H 0.44798 0.55251 0.47297 0.0
H1161 H 0.43879 0.59898 0.41058 0.0
H1162 H 0.42177 0.51913 0.39618 0.0
H1163 H 0.42941 0.4795 0.39116 0.0
H1164 H 0.47619 0.50014 0.33459 0.0
H1165 H 0.46904 0.53995 0.33945 0.0
C1166 C 0.38276 0.61524 0.31354 0.0
C1167 C 0.39557 0.61903 0.29262 0.0
C1168 C 0.39219 0.60579 0.33309 0.0
C1169 C 0.41474 0.59936 0.33253 0.0
C1170 C 0.42743 0.60282 0.31157 0.0
C1171 C 0.41818 0.61267 0.29215 0.0
C1172 C 0.42499 0.58908 0.35357 0.0
C1173 C 0.43197 0.56729 0.35207 0.0
C1174 C 0.42735 0.60026 0.37533 0.0
C1175 C 0.42095 0.62342 0.37849 0.0
C1176 C 0.43101 0.64157 0.3644 0.0
C1177 C 0.42474 0.66332 0.36737 0.0
C1178 C 0.40854 0.66718 0.38449 0.0
C1179 C 0.39864 0.64931 0.39872 0.0
C1180 C 0.40483 0.62751 0.39581 0.0
C1181 C 0.48366 0.53626 0.43104 0.0
C1182 C 0.47462 0.53818 0.4536 0.0
C1183 C 0.47412 0.54611 0.41183 0.0
C1184 C 0.4545 0.55773 0.41403 0.0
C1185 C 0.44561 0.55985 0.4367 0.0
C1186 C 0.45553 0.55044 0.45605 0.0
C1187 C 0.44369 0.56785 0.39302 0.0
C1188 C 0.43657 0.58968 0.39446 0.0
C1189 C 0.44067 0.55645 0.37131 0.0
C1190 C 0.44505 0.53255 0.36833 0.0
C1191 C 0.4338 0.51523 0.38277 0.0
C1192 C 0.43803 0.49274 0.37994 0.0
C1193 C 0.45333 0.48732 0.36261 0.0
C1194 C 0.46438 0.50437 0.34803 0.0
C1195 C 0.46023 0.5269 0.3508 0.0
H1196 H 0.45658 0.46989 0.36045 0.0
H1197 H 0.40371 0.68404 0.38677 0.0
H1198 H 0.10354 0.36563 0.80646 0.0
H1199 H 0.08805 0.3832 0.84044 0.0
H1200 H 0.10873 0.44978 0.81098 0.0
H1201 H 0.12435 0.43233 0.777 0.0
H1202 H 0.11788 0.45312 0.85443 0.0
H1203 H 0.04916 0.42116 0.81445 0.0
H1204 H 0.02227 0.39102 0.79541 0.0
H1205 H 0.0149 0.35231 0.85815 0.0
H1206 H 0.04198 0.3821 0.87748 0.0
H1207 H 0.0519 0.51289 0.93441 0.0
H1208 H 0.06796 0.49599 0.90015 0.0
H1209 H 0.04862 0.42893 0.92898 0.0
H1210 H 0.03224 0.44567 0.96299 0.0
H1211 H 0.03869 0.42624 0.88558 0.0
H1212 H 0.1076 0.45841 0.92548 0.0
H1213 H 0.13433 0.48878 0.94438 0.0
H1214 H 0.1411 0.5274 0.88158 0.0
H1215 H 0.11416 0.49738 0.86239 0.0
C1216 C 0.10463 0.38402 0.80694 0.0
C1217 C 0.11534 0.39733 0.78851 0.0
C1218 C 0.09566 0.39417 0.82661 0.0
C1219 C 0.0967 0.41806 0.82859 0.0
C1220 C 0.10755 0.43138 0.8103 0.0
C1221 C 0.11663 0.42126 0.79068 0.0
C1222 C 0.08675 0.42913 0.84961 0.0
C1223 C 0.10041 0.44735 0.86095 0.0
C1224 C 0.0641 0.42166 0.85889 0.0
C1225 C 0.04778 0.40376 0.84734 0.0
C1226 C 0.04193 0.40615 0.82413 0.0
C1227 C 0.02663 0.38914 0.8133 0.0
C1228 C 0.01693 0.36974 0.82554 0.0
C1229 C 0.02245 0.36733 0.84867 0.0
C1230 C 0.03776 0.38428 0.85958 0.0
C1231 C 0.05117 0.49455 0.93361 0.0
C1232 C 0.04071 0.48083 0.95184 0.0
C1233 C 0.06052 0.48479 0.91387 0.0
C1234 C 0.05995 0.46095 0.91165 0.0
C1235 C 0.04946 0.44729 0.92987 0.0
C1236 C 0.0401 0.457 0.94954 0.0
C1237 C 0.06984 0.45017 0.89044 0.0
C1238 C 0.05616 0.43201 0.87906 0.0
C1239 C 0.09245 0.45772 0.8811 0.0
C1240 C 0.10868 0.47576 0.89258 0.0
C1241 C 0.11466 0.47346 0.91576 0.0
C1242 C 0.12987 0.49059 0.92651 0.0
C1243 C 0.13935 0.51004 0.91421 0.0
C1244 C 0.1337 0.51235 0.8911 0.0
C1245 C 0.11848 0.49527 0.88027 0.0
H1246 H 0.15112 0.52329 0.92257 0.0
H1247 H 1.00509 0.35659 0.81713 0.0
H1248 H 0.66043 0.85845 0.89458 0.0
H1249 H 0.63441 0.88197 0.91372 0.0
H1250 H 0.57503 0.83309 0.89548 0.0
H1251 H 0.6012 0.80917 0.87653 0.0
H1252 H 0.57315 0.88263 0.88513 0.0
H1253 H 0.58605 0.83218 0.94675 0.0
H1254 H 0.61015 0.81174 0.97171 0.0
H1255 H 0.64676 0.87552 0.9954 0.0
H1256 H 0.62312 0.89635 0.97031 0.0
H1257 H 0.50171 0.9476 0.95416 0.0
H1258 H 0.51863 0.91688 0.93458 0.0
H1259 H 0.58544 0.94149 0.96416 0.0
H1260 H 0.56835 0.97125 0.98449 0.0
H1261 H 0.57789 0.8985 0.96904 0.0
H1262 H 0.57081 0.94906 0.90513 0.0
H1263 H 0.5498 0.97143 0.87895 0.0
H1264 H 0.50573 0.91041 0.85842 0.0
H1265 H 0.52632 0.88771 0.8847 0.0
C1266 C 0.64183 0.8527 0.89475 0.0
C1267 C 0.63274 0.83207 0.88414 0.0
C1268 C 0.62703 0.86608 0.90567 0.0
C1269 C 0.60287 0.8592 0.90596 0.0
C1270 C 0.59366 0.83861 0.89537 0.0
C1271 C 0.60856 0.82497 0.88473 0.0
C1272 C 0.58752 0.87387 0.91731 0.0
C1273 C 0.57372 0.88582 0.90355 0.0
C1274 C 0.58882 0.87829 0.9412 0.0
C1275 C 0.6029 0.86582 0.95652 0.0
C1276 C 0.59936 0.84184 0.95715 0.0
C1277 C 0.61292 0.83019 0.97134 0.0
C1278 C 0.63 0.84232 0.9851 0.0
C1279 C 0.63352 0.86614 0.98473 0.0
C1280 C 0.62002 0.87788 0.97055 0.0
C1281 C 0.52005 0.94651 0.9562 0.0
C1282 C 0.53376 0.96171 0.97081 0.0
C1283 C 0.52972 0.92899 0.94501 0.0
C1284 C 0.55338 0.92686 0.94781 0.0
C1285 C 0.56712 0.94257 0.96188 0.0
C1286 C 0.55738 0.95966 0.97341 0.0
C1287 C 0.56399 0.90804 0.9368 0.0
C1288 C 0.57691 0.89519 0.95066 0.0
C1289 C 0.56221 0.90314 0.91292 0.0
C1290 C 0.54991 0.91674 0.89706 0.0
C1291 C 0.55653 0.94044 0.89515 0.0
C1292 C 0.54472 0.95317 0.88028 0.0
C1293 C 0.52639 0.94236 0.86709 0.0
C1294 C 0.51989 0.91877 0.86869 0.0
C1295 C 0.53163 0.90596 0.88355 0.0
H1296 H 0.51727 0.95224 0.85559 0.0
H1297 H 0.64049 0.83326 0.99607 0.0
H1298 H 0.85135 0.15128 0.37562 0.0
H1299 H 0.87459 0.12712 0.39671 0.0
H1300 H 0.93048 0.18332 0.40162 0.0
H1301 H 0.90717 0.20769 0.38047 0.0
H1302 H 0.9443 0.14096 0.38628 0.0
H1303 H 0.90069 0.1702 0.44772 0.0
H1304 H 0.86514 0.17926 0.46737 0.0
H1305 H 0.83692 0.10821 0.46845 0.0
H1306 H 0.87216 0.09874 0.44848 0.0
H1307 H 0.00842 0.08084 0.46326 0.0
H1308 H 0.98883 0.10958 0.44453 0.0
H1309 H 0.92384 0.06385 0.44746 0.0
H1310 H 0.94313 0.03542 0.46688 0.0
H1311 H 0.91667 0.10424 0.46031 0.0
H1312 H 0.9571 0.0745 0.39666 0.0
H1313 H 0.99131 0.06397 0.37567 0.0
H1314 H 0.02388 0.13375 0.377 0.0
H1315 H 0.98997 0.14466 0.39828 0.0
C1316 C 0.86859 0.15847 0.3812 0.0
C1317 C 0.87753 0.1813 0.37643 0.0
C1318 C 0.88178 0.14472 0.39332 0.0
C1319 C 0.90416 0.15352 0.40076 0.0
C1320 C 0.9132 0.1763 0.396 0.0
C1321 C 0.89987 0.19018 0.38409 0.0
C1322 C 0.91811 0.13863 0.41321 0.0
C1323 C 0.93855 0.13321 0.40268 0.0
C1324 C 0.91017 0.12816 0.43426 0.0
C1325 C 0.88901 0.13379 0.44643 0.0
C1326 C 0.88683 0.15652 0.45198 0.0
C1327 C 0.86674 0.16173 0.46321 0.0
C1328 C 0.84876 0.14433 0.46911 0.0
C1329 C 0.85085 0.12167 0.46385 0.0
C1330 C 0.8709 0.11637 0.4526 0.0
C1331 C 0.98999 0.07686 0.45972 0.0
C1332 C 0.9773 0.05587 0.46648 0.0
C1333 C 0.97883 0.09328 0.44899 0.0
C1334 C 0.95489 0.0888 0.44439 0.0
C1335 C 0.9423 0.06772 0.4509 0.0
C1336 C 0.95336 0.05146 0.46192 0.0
C1337 C 0.94275 0.10614 0.43323 0.0
C1338 C 0.92261 0.11208 0.44401 0.0
C1339 C 0.95081 0.11683 0.41224 0.0
C1340 C 0.97112 0.11035 0.39927 0.0
C1341 C 0.97163 0.08757 0.39262 0.0
C1342 C 0.99095 0.08154 0.38065 0.0
C1343 C 0.00979 0.09817 0.37507 0.0
C1344 C 0.0093 0.12088 0.38137 0.0
C1345 C 0.99003 0.127 0.39337 0.0
H1346 H 0.02474 0.09346 0.36581 0.0
H1347 H 0.83322 0.1484 0.47781 0.0
H1348 H 0.21916 0.60844 0.16591 0.0
H1349 H 0.18388 0.5917 0.14597 0.0
H1350 H 0.2219 0.59661 0.08135 0.0
H1351 H 0.25695 0.61391 0.10113 0.0
H1352 H 0.18284 0.60636 0.07179 0.0
H1353 H 0.20303 0.54344 0.11425 0.0
H1354 H 0.2128 0.52233 0.14846 0.0
H1355 H 0.14656 0.52952 0.17955 0.0
H1356 H 0.13651 0.55092 0.14563 0.0
H1357 H 0.08373 0.50218 0.04456 0.0
H1358 H 0.11973 0.518 0.06404 0.0
H1359 H 0.10137 0.58561 0.05736 0.0
H1360 H 0.06596 0.56999 0.03722 0.0
H1361 H 0.13166 0.53817 0.10145 0.0
H1362 H 0.14768 0.62688 0.05733 0.0
H1363 H 0.14131 0.64423 0.0198 0.0
H1364 H 0.14087 0.57933 0.98649 0.0
H1365 H 0.14752 0.56166 0.02376 0.0
C1366 C 0.22016 0.6058 0.14747 0.0
C1367 C 0.2413 0.6127 0.13536 0.0
C1368 C 0.19977 0.59606 0.13594 0.0
C1369 C 0.19975 0.59231 0.11186 0.0
C1370 C 0.2209 0.59919 0.0998 0.0
C1371 C 0.24118 0.60919 0.11126 0.0
C1372 C 0.17791 0.58165 0.09918 0.0
C1373 C 0.17172 0.59148 0.07847 0.0
C1374 C 0.16316 0.5618 0.1071 0.0
C1375 C 0.16913 0.54897 0.12751 0.0
C1376 C 0.19062 0.54065 0.12845 0.0
C1377 C 0.19619 0.52862 0.14778 0.0
C1378 C 0.18034 0.52464 0.16619 0.0
C1379 C 0.15884 0.53265 0.16529 0.0
C1380 C 0.15319 0.54471 0.14602 0.0
C1381 C 0.08741 0.52046 0.04701 0.0
C1382 C 0.07172 0.53467 0.03888 0.0
C1383 C 0.10812 0.52958 0.05838 0.0
C1384 C 0.11399 0.55327 0.06214 0.0
C1385 C 0.09807 0.5674 0.05435 0.0
C1386 C 0.07752 0.55833 0.04281 0.0
C1387 C 0.13643 0.56312 0.07429 0.0
C1388 C 0.14273 0.55313 0.09487 0.0
C1389 C 0.15167 0.58241 0.06589 0.0
C1390 C 0.14784 0.59292 0.04338 0.0
C1391 C 0.14629 0.61633 0.04198 0.0
C1392 C 0.14262 0.62622 0.02076 0.0
C1393 C 0.14061 0.61287 1.00079 0.0
C1394 C 0.14234 0.58963 1.00198 0.0
C1395 C 0.14603 0.57967 0.02315 0.0
H1396 H 0.13775 0.62055 0.98438 0.0
H1397 H 0.18469 0.51532 0.18114 0.0
H1398 H 0.27574 0.37048 0.61122 0.0
H1399 H 0.311 0.38761 0.59116 0.0
H1400 H 0.30745 0.45124 0.62635 0.0
H1401 H 0.27111 0.43464 0.64537 0.0
H1402 H 0.32091 0.46139 0.58526 0.0
H1403 H 0.34786 0.41166 0.63991 0.0
H1404 H 0.34991 0.37565 0.66041 0.0
H1405 H 0.36795 0.34429 0.59709 0.0
H1406 H 0.3657 0.38004 0.57613 0.0
H1407 H 0.43881 0.50992 0.56034 0.0
H1408 H 0.40243 0.49296 0.57899 0.0
H1409 H 0.40096 0.43342 0.53588 0.0
H1410 H 0.4376 0.45033 0.51708 0.0
H1411 H 0.39033 0.42139 0.58066 0.0
H1412 H 0.36403 0.47351 0.52683 0.0
H1413 H 0.36402 0.51101 0.50855 0.0
H1414 H 0.3468 0.53954 0.57363 0.0
H1415 H 0.34698 0.50225 0.59237 0.0
C1416 C 0.28209 0.38823 0.6146 0.0
C1417 C 0.27005 0.40098 0.63015 0.0
C1418 C 0.30274 0.398 0.60326 0.0
C1419 C 0.31256 0.42079 0.60734 0.0
C1420 C 0.30059 0.43362 0.62277 0.0
C1421 C 0.27975 0.42393 0.63396 0.0
C1422 C 0.33498 0.43123 0.59536 0.0
C1423 C 0.33612 0.45266 0.58461 0.0
C1424 C 0.35508 0.42001 0.5939 0.0
C1425 C 0.35636 0.39846 0.60641 0.0
C1426 C 0.35208 0.39703 0.63032 0.0
C1427 C 0.35331 0.37667 0.64203 0.0
C1428 C 0.35899 0.35767 0.63005 0.0
C1429 C 0.36351 0.35901 0.60634 0.0
C1430 C 0.36228 0.37932 0.59454 0.0
C1431 C 0.43078 0.49325 0.55463 0.0
C1432 C 0.44135 0.48164 0.537 0.0
C1433 C 0.40978 0.48355 0.56535 0.0
C1434 C 0.39854 0.46187 0.55885 0.0
C1435 C 0.40907 0.45016 0.5413 0.0
C1436 C 0.43006 0.45994 0.53043 0.0
C1437 C 0.37612 0.45139 0.57061 0.0
C1438 C 0.37504 0.43 0.58132 0.0
C1439 C 0.35623 0.4628 0.57235 0.0
C1440 C 0.35571 0.48513 0.56104 0.0
C1441 C 0.36037 0.48781 0.53727 0.0
C1442 C 0.36031 0.50902 0.52682 0.0
C1443 C 0.35547 0.52766 0.53993 0.0
C1444 C 0.35057 0.52509 0.5635 0.0
C1445 C 0.35061 0.50391 0.57404 0.0
H1446 H 0.35548 0.54408 0.53182 0.0
H1447 H 0.35995 0.34193 0.63915 0.0
H1448 H 0.7706 0.66292 0.85649 0.0
H1449 H 0.79905 0.64275 0.87494 0.0
H1450 H 0.79606 0.68439 0.93579 0.0
H1451 H 0.76857 0.7056 0.91688 0.0
H1452 H 0.83913 0.68418 0.92341 0.0
H1453 H 0.77445 0.62572 0.93487 0.0
H1454 H 0.7397 0.59905 0.924 0.0
H1455 H 0.78094 0.56585 0.87603 0.0
H1456 H 0.8159 0.59253 0.88636 0.0
H1457 H 0.91923 0.62335 0.97992 0.0
H1458 H 0.88353 0.63878 0.97066 0.0
H1459 H 0.88152 0.60478 0.90469 0.0
H1460 H 0.9171 0.58921 0.9139 0.0
H1461 H 0.83885 0.60044 0.92452 0.0
H1462 H 0.90201 0.66172 0.91002 0.0
H1463 H 0.93677 0.68861 0.92047 0.0
H1464 H 0.89773 0.71648 0.97435 0.0
H1465 H 0.86279 0.68952 0.96441 0.0
C1466 C 0.77586 0.66771 0.87387 0.0
C1467 C 0.76746 0.68606 0.88509 0.0
C1468 C 0.79193 0.65594 0.88453 0.0
C1469 C 0.79962 0.66192 0.90685 0.0
C1470 C 0.79037 0.67946 0.91857 0.0
C1471 C 0.77445 0.69142 0.90781 0.0
C1472 C 0.81889 0.65138 0.91695 0.0
C1473 C 0.83881 0.66584 0.92414 0.0
C1474 C 0.81875 0.62746 0.91742 0.0
C1475 C 0.79779 0.61124 0.9113 0.0
C1476 C 0.77609 0.61283 0.92189 0.0
C1477 C 0.75636 0.59769 0.91584 0.0
C1478 C 0.7581 0.58079 0.89931 0.0
C1479 C 0.77961 0.57895 0.88883 0.0
C1480 C 0.7994 0.59406 0.89481 0.0
C1481 C 0.91125 0.6193 0.96338 0.0
C1482 C 0.92103 0.6052 0.94756 0.0
C1483 C 0.89082 0.62805 0.95816 0.0
C1484 C 0.87999 0.62308 0.9369 0.0
C1485 C 0.88954 0.60875 0.92122 0.0
C1486 C 0.90988 0.59989 0.92649 0.0
C1487 C 0.85904 0.63327 0.93062 0.0
C1488 C 0.8389 0.61875 0.92412 0.0
C1489 C 0.85893 0.65713 0.93078 0.0
C1490 C 0.87987 0.67345 0.93664 0.0
C1491 C 0.90089 0.67347 0.92421 0.0
C1492 C 0.92061 0.68874 0.93002 0.0
C1493 C 0.91948 0.70419 0.94811 0.0
C1494 C 0.89859 0.70447 0.96037 0.0
C1495 C 0.87882 0.68921 0.95465 0.0
H1496 H 0.93477 0.716 0.95259 0.0
H1497 H 0.7428 0.56909 0.89464 0.0
H1498 H 0.38406 0.76766 0.10425 0.0
H1499 H 0.39972 0.80348 0.08582 0.0
H1500 H 0.43727 0.8251 0.14737 0.0
H1501 H 0.42045 0.78971 0.16656 0.0
H1502 H 0.42251 0.86057 0.13143 0.0
H1503 H 0.46329 0.8057 0.09391 0.0
H1504 H 0.4678 0.77055 0.07245 0.0
H1505 H 0.42953 0.79271 0.0161 0.0
H1506 H 0.42454 0.82787 0.03735 0.0
H1507 H 0.49567 0.95421 0.07722 0.0
H1508 H 0.48026 0.91844 0.09656 0.0
H1509 H 0.4387 0.89748 0.03727 0.0
H1510 H 0.45432 0.93314 0.01771 0.0
H1511 H 0.45614 0.86182 0.05232 0.0
H1512 H 0.41558 0.91689 0.09043 0.0
H1513 H 0.41197 0.9522 0.11199 0.0
H1514 H 0.45114 0.92966 0.16747 0.0
H1515 H 0.45524 0.89434 0.14609 0.0
C1516 C 0.39539 0.77998 0.11421 0.0
C1517 C 0.40065 0.7752 0.13727 0.0
C1518 C 0.40478 0.80062 0.10332 0.0
C1519 C 0.42029 0.81737 0.11476 0.0
C1520 C 0.42554 0.81275 0.1378 0.0
C1521 C 0.41599 0.79213 0.1488 0.0
C1522 C 0.43064 0.83962 0.10288 0.0
C1523 C 0.43017 0.86065 0.11426 0.0
C1524 C 0.44036 0.84042 0.08015 0.0
C1525 C 0.44334 0.81931 0.06732 0.0
C1526 C 0.45569 0.803 0.07701 0.0
C1527 C 0.45836 0.78309 0.06488 0.0
C1528 C 0.4489 0.77937 0.04296 0.0
C1529 C 0.43682 0.79559 0.0331 0.0
C1530 C 0.43408 0.81553 0.04517 0.0
C1531 C 0.48319 0.94209 0.06821 0.0
C1532 C 0.47631 0.94698 0.04574 0.0
C1533 C 0.4742 0.92148 0.07945 0.0
C1534 C 0.45785 0.90491 0.06876 0.0
C1535 C 0.45116 0.90968 0.04621 0.0
C1536 C 0.46012 0.9303 0.03497 0.0
C1537 C 0.44795 0.88269 0.08085 0.0
C1538 C 0.44851 0.86169 0.06951 0.0
C1539 C 0.43843 0.88191 0.10364 0.0
C1540 C 0.43591 0.90308 0.11656 0.0
C1541 C 0.42357 0.91954 0.10715 0.0
C1542 C 0.42141 0.93954 0.11935 0.0
C1543 C 0.43138 0.9432 0.14106 0.0
C1544 C 0.44346 0.92683 0.15064 0.0
C1545 C 0.44569 0.9068 0.1385 0.0
H1546 H 0.42969 0.9587 0.15047 0.0
H1547 H 0.45099 0.76394 0.03359 0.0
H1548 H 0.1104 0.25556 0.59767 0.0
H1549 H 0.09496 0.22002 0.57834 0.0
H1550 H 0.09264 0.18443 0.64315 0.0
H1551 H 0.1077 0.22011 0.66265 0.0
H1552 H 0.10817 0.18201 0.56939 0.0
H1553 H 0.05166 0.13772 0.64421 0.0
H1554 H 0.02873 0.1481 0.67779 0.0
H1555 H 0.01947 0.21097 0.64502 0.0
H1556 H 0.04209 0.20083 0.61115 0.0
H1557 H 0.07311 0.06588 0.53562 0.0
H1558 H 0.08901 0.10114 0.55547 0.0
H1559 H 0.01971 0.11878 0.56342 0.0
H1560 H 1.00375 0.08316 0.54456 0.0
H1561 H 0.03958 0.13082 0.60007 0.0
H1562 H 0.06441 0.1442 0.52189 0.0
H1563 H 0.08339 0.13666 0.48488 0.0
H1564 H 0.14941 0.14085 0.51827 0.0
H1565 H 0.13075 0.14802 0.55559 0.0
C1566 C 0.10668 0.24021 0.60792 0.0
C1567 C 0.11038 0.24104 0.63193 0.0
C1568 C 0.09778 0.2197 0.59673 0.0
C1569 C 0.09222 0.19914 0.60905 0.0
C1570 C 0.09612 0.19988 0.63303 0.0
C1571 C 0.10482 0.22046 0.64428 0.0
C1572 C 0.08248 0.17716 0.5968 0.0
C1573 C 0.0932 0.17085 0.57624 0.0
C1574 C 0.06256 0.16245 0.60505 0.0
C1575 C 0.0488 0.16861 0.62527 0.0
C1576 C 0.04468 0.15372 0.64415 0.0
C1577 C 0.03174 0.15957 0.66324 0.0
C1578 C 0.02272 0.18022 0.66357 0.0
C1579 C 0.02655 0.19502 0.64479 0.0
C1580 C 0.03944 0.18925 0.62565 0.0
C1581 C 0.06122 0.07726 0.54157 0.0
C1582 C 0.03704 0.07143 0.53833 0.0
C1583 C 0.07039 0.09766 0.55288 0.0
C1584 C 0.05578 0.11326 0.56089 0.0
C1585 C 0.03162 0.10735 0.55765 0.0
C1586 C 0.02243 0.08683 0.54668 0.0
C1587 C 0.06541 0.13549 0.57276 0.0
C1588 C 0.05464 0.14188 0.59327 0.0
C1589 C 0.08482 0.15062 0.56402 0.0
C1590 C 0.09613 0.14641 0.54159 0.0
C1591 C 0.08295 0.14334 0.52138 0.0
C1592 C 0.09365 0.13915 0.50034 0.0
C1593 C 0.11758 0.13821 0.49924 0.0
C1594 C 0.13087 0.14152 0.51917 0.0
C1595 C 0.12024 0.14566 0.54027 0.0
H1596 H 0.12584 0.13496 0.48293 0.0
H1597 H 0.01273 0.18472 0.67837 0.0
H1598 H 0.71145 0.31045 0.347 0.0
H1599 H 0.68364 0.33235 0.36509 0.0
H1600 H 0.73692 0.36391 0.41071 0.0
H1601 H 0.76506 0.34173 0.39259 0.0
H1602 H 0.6962 0.35154 0.4336 0.0
H1603 H 0.72013 0.39407 0.36623 0.0
H1604 H 0.72951 0.40065 0.32501 0.0
H1605 H 0.65857 0.37616 0.30782 0.0
H1606 H 0.64882 0.36909 0.34891 0.0
H1607 H 0.61726 0.43173 0.46502 0.0
H1608 H 0.65176 0.41585 0.45141 0.0
H1609 H 0.60891 0.37012 0.40632 0.0
H1610 H 0.57428 0.38513 0.42039 0.0
H1611 H 0.64897 0.39543 0.38476 0.0
H1612 H 0.62718 0.34932 0.45274 0.0
H1613 H 0.61858 0.34345 0.4942 0.0
H1614 H 0.68706 0.37693 0.5104 0.0
H1615 H 0.69594 0.38329 0.469 0.0
C1616 C 0.71737 0.32224 0.3607 0.0
C1617 C 0.74053 0.32465 0.36814 0.0
C1618 C 0.70144 0.33473 0.37105 0.0
C1619 C 0.70833 0.35011 0.38892 0.0
C1620 C 0.73131 0.35223 0.39682 0.0
C1621 C 0.74732 0.33958 0.3865 0.0
C1622 C 0.69119 0.36361 0.3993 0.0
C1623 C 0.68621 0.36155 0.42301 0.0
C1624 C 0.67806 0.37656 0.38545 0.0
C1625 C 0.68378 0.38092 0.36068 0.0
C1626 C 0.70655 0.38993 0.35365 0.0
C1627 C 0.71193 0.39377 0.33031 0.0
C1628 C 0.69465 0.38879 0.3138 0.0
C1629 C 0.67194 0.38001 0.32062 0.0
C1630 C 0.66647 0.37611 0.34395 0.0
C1631 C 0.61509 0.41801 0.45251 0.0
C1632 C 0.59294 0.40976 0.44376 0.0
C1633 C 0.63485 0.40909 0.44466 0.0
C1634 C 0.63281 0.39189 0.42785 0.0
C1635 C 0.61081 0.38353 0.41919 0.0
C1636 C 0.59105 0.39223 0.42719 0.0
C1637 C 0.65358 0.38273 0.41882 0.0
C1638 C 0.65925 0.38572 0.39537 0.0
C1639 C 0.66746 0.37089 0.43295 0.0
C1640 C 0.66211 0.36705 0.4578 0.0
C1641 C 0.64032 0.35564 0.46515 0.0
C1642 C 0.63541 0.35217 0.48863 0.0
C1643 C 0.65223 0.35988 0.50493 0.0
C1644 C 0.67403 0.37101 0.49776 0.0
C1645 C 0.67901 0.37455 0.47429 0.0
H1646 H 0.6484 0.35718 0.5231 0.0
H1647 H 0.69885 0.39178 0.29574 0.0
loop_
_geom_bond_atom_site_label_1
_geom_bond_atom_site_label_2
_geom_bond_distance
_geom_bond_site_symmetry_2
_ccdc_geom_bond_type
C0 C1 1.384 . S
C0 H13 0.947 . S
C0 C35 1.382 . S
C1 C0 1.384 . S
C1 C2 1.378 . S
C2 C1 1.378 . S
C2 C3 1.378 . S
C2 H14 0.952 . S
C3 C2 1.378 . S
C3 H15 0.950 . S
C3 C34 1.383 . S
H4 C23 0.947 . S
H5 C24 0.946 . S
H6 C26 0.953 . S
H7 C27 0.945 . S
H8 C29 0.952 . S
H9 C30 0.949 . S
H10 C32 0.950 . S
H11 C33 0.948 . S
H12 C35 0.951 . S
H13 C0 0.947 . S
H14 C2 0.952 . S
H15 C3 0.950 . S
N16 C19 1.382 . S
N16 C21 1.363 . S
N17 C19 1.371 . S
N17 C20 1.372 . S
N18 C20 1.361 . S
N18 C21 1.377 . S
C19 N16 1.382 . S
C19 N17 1.371 . S
C19 C22 1.480 . S
C20 N17 1.372 . S
C20 N18 1.361 . S
C20 C28 1.457 . S
C21 N16 1.363 . S
C21 N18 1.377 . S
C21 C34 1.479 . S
C22 C19 1.480 . S
C22 C23 1.383 . S
C22 C27 1.385 . S
C23 H4 0.947 . S
C23 C22 1.383 . S
C23 C24 1.388 . S
C24 H5 0.946 . S
C24 C23 1.388 . S
C24 C25 1.384 . S
C25 C24 1.384 . S
C25 C26 1.377 . S
C26 H6 0.953 . S
C26 C25 1.377 . S
C26 C27 1.369 . S
C27 H7 0.945 . S
C27 C22 1.385 . S
C27 C26 1.369 . S
C28 C20 1.457 . S
C28 C29 1.372 . S
C28 C33 1.364 . S
C29 H8 0.952 . S
C29 C28 1.372 . S
C29 C30 1.389 . S
C30 H9 0.949 . S
C30 C29 1.389 . S
C30 C31 1.387 . S
C31 C30 1.387 . S
C31 C32 1.372 . S
C32 H10 0.950 . S
C32 C31 1.372 . S
C32 C33 1.379 . S
C33 H11 0.948 . S
C33 C28 1.364 . S
C33 C32 1.379 . S
C34 C3 1.383 . S
C34 C21 1.479 . S
C34 C35 1.398 . S
C35 C0 1.382 . S
C35 H12 0.951 . S
C35 C34 1.398 . S
C36 C37 1.384 . S
C36 H49 0.947 . S
C36 C71 1.382 . S
C37 C36 1.384 . S
C37 C38 1.378 . S
C38 C37 1.378 . S
C38 C39 1.378 . S
C38 H50 0.952 . S
C39 C38 1.378 . S
C39 H51 0.950 . S
C39 C70 1.383 . S
H40 C59 0.947 . S
H41 C60 0.946 . S
H42 C62 0.953 . S
H43 C63 0.945 . S
H44 C65 0.952 . S
H45 C66 0.949 . S
H46 C68 0.950 . S
H47 C69 0.948 . S
H48 C71 0.951 . S
H49 C36 0.947 . S
H50 C38 0.952 . S
H51 C39 0.950 . S
N52 C55 1.382 . S
N52 C57 1.363 . S
N53 C55 1.371 . S
N53 C56 1.372 . S
N54 C56 1.361 . S
N54 C57 1.377 . S
C55 N52 1.382 . S
C55 N53 1.371 . S
C55 C58 1.480 . S
C56 N53 1.372 . S
C56 N54 1.361 . S
C56 C64 1.457 . S
C57 N52 1.363 . S
C57 N54 1.377 . S
C57 C70 1.479 . S
C58 C55 1.480 . S
C58 C59 1.383 . S
C58 C63 1.385 . S
C59 H40 0.947 . S
C59 C58 1.383 . S
C59 C60 1.388 . S
C60 H41 0.946 . S
C60 C59 1.388 . S
C60 C61 1.384 . S
C61 C60 1.384 . S
C61 C62 1.377 . S
C62 H42 0.953 . S
C62 C61 1.377 . S
C62 C63 1.369 . S
C63 H43 0.945 . S
C63 C58 1.385 . S
C63 C62 1.369 . S
C64 C56 1.457 . S
C64 C65 1.372 . S
C64 C69 1.364 . S
C65 H44 0.952 . S
C65 C64 1.372 . S
C65 C66 1.389 . S
C66 H45 0.949 . S
C66 C65 1.389 . S
C66 C67 1.387 . S
C67 C66 1.387 . S
C67 C68 1.372 . S
C68 H46 0.950 . S
C68 C67 1.372 . S
C68 C69 1.379 . S
C69 H47 0.948 . S
C69 C64 1.364 . S
C69 C68 1.379 . S
C70 C39 1.383 . S
C70 C57 1.479 . S
C70 C71 1.398 . S
C71 C36 1.382 . S
C71 H48 0.951 . S
C71 C70 1.398 . S
C72 C73 1.384 . S
C72 H85 0.947 . S
C72 C107 1.382 . S
C73 C72 1.384 . S
C73 C74 1.378 . S
C74 C73 1.378 . S
C74 C75 1.378 . S
C74 H86 0.952 . S
C75 C74 1.378 . S
C75 H87 0.950 . S
C75 C106 1.383 . S
H76 C95 0.947 . S
H77 C96 0.946 . S
H78 C98 0.953 . S
H79 C99 0.945 . S
H80 C101 0.952 . S
H81 C102 0.949 . S
H82 C104 0.950 . S
H83 C105 0.948 . S
H84 C107 0.951 . S
H85 C72 0.947 . S
H86 C74 0.952 . S
H87 C75 0.950 . S
N88 C91 1.382 . S
N88 C93 1.363 . S
N89 C91 1.371 . S
N89 C92 1.372 . S
N90 C92 1.361 . S
N90 C93 1.377 . S
C91 N88 1.382 . S
C91 N89 1.371 . S
C91 C94 1.480 . S
C92 N89 1.372 . S
C92 N90 1.361 . S
C92 C100 1.457 . S
C93 N88 1.363 . S
C93 N90 1.377 . S
C93 C106 1.479 . S
C94 C91 1.480 . S
C94 C95 1.383 . S
C94 C99 1.385 . S
C95 H76 0.947 . S
C95 C94 1.383 . S
C95 C96 1.388 . S
C96 H77 0.946 . S
C96 C95 1.388 . S
C96 C97 1.384 . S
C97 C96 1.384 . S
C97 C98 1.377 . S
C98 H78 0.953 . S
C98 C97 1.377 . S
C98 C99 1.369 . S
C99 H79 0.945 . S
C99 C94 1.385 . S
C99 C98 1.369 . S
C100 C92 1.457 . S
C100 C101 1.372 . S
C100 C105 1.364 . S
C101 H80 0.952 . S
C101 C100 1.372 . S
C101 C102 1.389 . S
C102 H81 0.949 . S
C102 C101 1.389 . S
C102 C103 1.387 . S
C103 C102 1.387 . S
C103 C104 1.372 . S
C104 H82 0.950 . S
C104 C103 1.372 . S
C104 C105 1.379 . S
C105 H83 0.948 . S
C105 C100 1.364 . S
C105 C104 1.379 . S
C106 C75 1.383 . S
C106 C93 1.479 . S
C106 C107 1.398 . S
C107 C72 1.382 . S
C107 H84 0.951 . S
C107 C106 1.398 . S
C108 C109 1.384 . S
C108 H121 0.947 . S
C108 C143 1.382 . S
C109 C108 1.384 . S
C109 C110 1.378 . S
C110 C109 1.378 . S
C110 C111 1.378 . S
C110 H122 0.952 . S
C111 C110 1.378 . S
C111 H123 0.950 . S
C111 C142 1.383 . S
H112 C131 0.947 . S
H113 C132 0.946 . S
H114 C134 0.953 . S
H115 C135 0.945 . S
H116 C137 0.952 . S
H117 C138 0.949 . S
H118 C140 0.950 . S
H119 C141 0.948 . S
H120 C143 0.951 . S
H121 C108 0.947 . S
H122 C110 0.952 . S
H123 C111 0.950 . S
N124 C127 1.382 . S
N124 C129 1.363 . S
N125 C127 1.371 . S
N125 C128 1.372 . S
N126 C128 1.361 . S
N126 C129 1.377 . S
C127 N124 1.382 . S
C127 N125 1.371 . S
C127 C130 1.480 . S
C128 N125 1.372 . S
C128 N126 1.361 . S
C128 C136 1.457 . S
C129 N124 1.363 . S
C129 N126 1.377 . S
C129 C142 1.479 . S
C130 C127 1.480 . S
C130 C131 1.383 . S
C130 C135 1.385 . S
C131 H112 0.947 . S
C131 C130 1.383 . S
C131 C132 1.388 . S
C132 H113 0.946 . S
C132 C131 1.388 . S
C132 C133 1.384 . S
C133 C132 1.384 . S
C133 C134 1.377 . S
C134 H114 0.953 . S
C134 C133 1.377 . S
C134 C135 1.369 . S
C135 H115 0.945 . S
C135 C130 1.385 . S
C135 C134 1.369 . S
C136 C128 1.457 . S
C136 C137 1.372 . S
C136 C141 1.364 . S
C137 H116 0.952 . S
C137 C136 1.372 . S
C137 C138 1.389 . S
C138 H117 0.949 . S
C138 C137 1.389 . S
C138 C139 1.387 . S
C139 C138 1.387 . S
C139 C140 1.372 . S
C140 H118 0.950 . S
C140 C139 1.372 . S
C140 C141 1.379 . S
C141 H119 0.948 . S
C141 C136 1.364 . S
C141 C140 1.379 . S
C142 C111 1.383 . S
C142 C129 1.479 . S
C142 C143 1.398 . S
C143 C108 1.382 . S
C143 H120 0.951 . S
C143 C142 1.398 . S
C144 C145 1.384 . S
C144 H157 0.947 . S
C144 C179 1.382 . S
C145 C144 1.384 . S
C145 C146 1.378 . S
C146 C145 1.378 . S
C146 C147 1.378 . S
C146 H158 0.952 . S
C147 C146 1.378 . S
C147 H159 0.950 . S
C147 C178 1.383 . S
H148 C167 0.947 . S
H149 C168 0.946 . S
H150 C170 0.953 . S
H151 C171 0.945 . S
H152 C173 0.952 . S
H153 C174 0.949 . S
H154 C176 0.950 . S
H155 C177 0.948 . S
H156 C179 0.951 . S
H157 C144 0.947 . S
H158 C146 0.952 . S
H159 C147 0.950 . S
N160 C163 1.382 . S
N160 C165 1.363 . S
N161 C163 1.371 . S
N161 C164 1.372 . S
N162 C164 1.361 . S
N162 C165 1.377 . S
C163 N160 1.382 . S
C163 N161 1.371 . S
C163 C166 1.480 . S
C164 N161 1.372 . S
C164 N162 1.361 . S
C164 C172 1.457 . S
C165 N160 1.363 . S
C165 N162 1.377 . S
C165 C178 1.479 . S
C166 C163 1.480 . S
C166 C167 1.383 . S
C166 C171 1.385 . S
C167 H148 0.947 . S
C167 C166 1.383 . S
C167 C168 1.388 . S
C168 H149 0.946 . S
C168 C167 1.388 . S
C168 C169 1.384 . S
C169 C168 1.384 . S
C169 C170 1.377 . S
C170 H150 0.953 . S
C170 C169 1.377 . S
C170 C171 1.369 . S
C171 H151 0.945 . S
C171 C166 1.385 . S
C171 C170 1.369 . S
C172 C164 1.457 . S
C172 C173 1.372 . S
C172 C177 1.364 . S
C173 H152 0.952 . S
C173 C172 1.372 . S
C173 C174 1.389 . S
C174 H153 0.949 . S
C174 C173 1.389 . S
C174 C175 1.387 . S
C175 C174 1.387 . S
C175 C176 1.372 . S
C176 H154 0.950 . S
C176 C175 1.372 . S
C176 C177 1.379 . S
C177 H155 0.948 . S
C177 C172 1.364 . S
C177 C176 1.379 . S
C178 C147 1.383 . S
C178 C165 1.479 . S
C178 C179 1.398 . S
C179 C144 1.382 . S
C179 H156 0.951 . S
C179 C178 1.398 . S
C180 C181 1.384 . S
C180 H193 0.947 . S
C180 C215 1.382 . S
C181 C180 1.384 . S
C181 C182 1.378 . S
C182 C181 1.378 . S
C182 C183 1.378 . S
C182 H194 0.952 . S
C183 C182 1.378 . S
C183 H195 0.950 . S
C183 C214 1.383 . S
H184 C203 0.947 . S
H185 C204 0.946 . S
H186 C206 0.953 . S
H187 C207 0.945 . S
H188 C209 0.952 . S
H189 C210 0.949 . S
H190 C212 0.950 . S
H191 C213 0.948 . S
H192 C215 0.951 . S
H193 C180 0.947 . S
H194 C182 0.952 . S
H195 C183 0.950 . S
N196 C199 1.382 . S
N196 C201 1.363 . S
N197 C199 1.371 . S
N197 C200 1.372 . S
N198 C200 1.361 . S
N198 C201 1.377 . S
C199 N196 1.382 . S
C199 N197 1.371 . S
C199 C202 1.480 . S
C200 N197 1.372 . S
C200 N198 1.361 . S
C200 C208 1.457 . S
C201 N196 1.363 . S
C201 N198 1.377 . S
C201 C214 1.479 . S
C202 C199 1.480 . S
C202 C203 1.383 . S
C202 C207 1.385 . S
C203 H184 0.947 . S
C203 C202 1.383 . S
C203 C204 1.388 . S
C204 H185 0.946 . S
C204 C203 1.388 . S
C204 C205 1.384 . S
C205 C204 1.384 . S
C205 C206 1.377 . S
C206 H186 0.953 . S
C206 C205 1.377 . S
C206 C207 1.369 . S
C207 H187 0.945 . S
C207 C202 1.385 . S
C207 C206 1.369 . S
C208 C200 1.457 . S
C208 C209 1.372 . S
C208 C213 1.364 . S
C209 H188 0.952 . S
C209 C208 1.372 . S
C209 C210 1.389 . S
C210 H189 0.949 . S
C210 C209 1.389 . S
C210 C211 1.387 . S
C211 C210 1.387 . S
C211 C212 1.372 . S
C212 H190 0.950 . S
C212 C211 1.372 . S
C212 C213 1.379 . S
C213 H191 0.948 . S
C213 C208 1.364 . S
C213 C212 1.379 . S
C214 C183 1.383 . S
C214 C201 1.479 . S
C214 C215 1.398 . S
C215 C180 1.382 . S
C215 H192 0.951 . S
C215 C214 1.398 . S
C216 C217 1.384 . S
C216 H229 0.947 . S
C216 C251 1.382 . S
C217 C216 1.384 . S
C217 C218 1.378 . S
C218 C217 1.378 . S
C218 C219 1.378 . S
C218 H230 0.952 . S
C219 C218 1.378 . S
C219 H231 0.950 . S
C219 C250 1.383 . S
H220 C239 0.947 . S
H221 C240 0.946 . S
H222 C242 0.953 . S
H223 C243 0.945 . S
H224 C245 0.952 . S
H225 C246 0.949 . S
H226 C248 0.950 . S
H227 C249 0.948 . S
H228 C251 0.951 . S
H229 C216 0.947 . S
H230 C218 0.952 . S
H231 C219 0.950 . S
N232 C235 1.382 . S
N232 C237 1.363 . S
N233 C235 1.371 . S
N233 C236 1.372 . S
N234 C236 1.361 . S
N234 C237 1.377 . S
C235 N232 1.382 . S
C235 N233 1.371 . S
C235 C238 1.480 . S
C236 N233 1.372 . S
C236 N234 1.361 . S
C236 C244 1.457 . S
C237 N232 1.363 . S
C237 N234 1.377 . S
C237 C250 1.479 . S
C238 C235 1.480 . S
C238 C239 1.383 . S
C238 C243 1.385 . S
C239 H220 0.947 . S
C239 C238 1.383 . S
C239 C240 1.388 . S
C240 H221 0.946 . S
C240 C239 1.388 . S
C240 C241 1.384 . S
C241 C240 1.384 . S
C241 C242 1.377 . S
C242 H222 0.953 . S
C242 C241 1.377 . S
C242 C243 1.369 . S
C243 H223 0.945 . S
C243 C238 1.385 . S
C243 C242 1.369 . S
C244 C236 1.457 . S
C244 C245 1.372 . S
C244 C249 1.364 . S
C245 H224 0.952 . S
C245 C244 1.372 . S
C245 C246 1.389 . S
C246 H225 0.949 . S
C246 C245 1.389 . S
C246 C247 1.387 . S
C247 C246 1.387 . S
C247 C248 1.372 . S
C248 H226 0.950 . S
C248 C247 1.372 . S
C248 C249 1.379 . S
C249 H227 0.948 . S
C249 C244 1.364 . S
C249 C248 1.379 . S
C250 C219 1.383 . S
C250 C237 1.479 . S
C250 C251 1.398 . S
C251 C216 1.382 . S
C251 H228 0.951 . S
C251 C250 1.398 . S
C252 C253 1.384 . S
C252 H265 0.947 . S
C252 C287 1.382 . S
C253 C252 1.384 . S
C253 C254 1.378 . S
C254 C253 1.378 . S
C254 C255 1.378 . S
C254 H266 0.952 . S
C255 C254 1.378 . S
C255 H267 0.950 . S
C255 C286 1.383 . S
H256 C275 0.947 . S
H257 C276 0.946 . S
H258 C278 0.953 . S
H259 C279 0.945 . S
H260 C281 0.952 . S
H261 C282 0.949 . S
H262 C284 0.950 . S
H263 C285 0.948 . S
H264 C287 0.951 . S
H265 C252 0.947 . S
H266 C254 0.952 . S
H267 C255 0.950 . S
N268 C271 1.382 . S
N268 C273 1.363 . S
N269 C271 1.371 . S
N269 C272 1.372 . S
N270 C272 1.361 . S
N270 C273 1.377 . S
C271 N268 1.382 . S
C271 N269 1.371 . S
C271 C274 1.480 . S
C272 N269 1.372 . S
C272 N270 1.361 . S
C272 C280 1.457 . S
C273 N268 1.363 . S
C273 N270 1.377 . S
C273 C286 1.479 . S
C274 C271 1.480 . S
C274 C275 1.383 . S
C274 C279 1.385 . S
C275 H256 0.947 . S
C275 C274 1.383 . S
C275 C276 1.388 . S
C276 H257 0.946 . S
C276 C275 1.388 . S
C276 C277 1.384 . S
C277 C276 1.384 . S
C277 C278 1.377 . S
C278 H258 0.953 . S
C278 C277 1.377 . S
C278 C279 1.369 . S
C279 H259 0.945 . S
C279 C274 1.385 . S
C279 C278 1.369 . S
C280 C272 1.457 . S
C280 C281 1.372 . S
C280 C285 1.364 . S
C281 H260 0.952 . S
C281 C280 1.372 . S
C281 C282 1.389 . S
C282 H261 0.949 . S
C282 C281 1.389 . S
C282 C283 1.387 . S
C283 C282 1.387 . S
C283 C284 1.372 . S
C284 H262 0.950 . S
C284 C283 1.372 . S
C284 C285 1.379 . S
C285 H263 0.948 . S
C285 C280 1.364 . S
C285 C284 1.379 . S
C286 C255 1.383 . S
C286 C273 1.479 . S
C286 C287 1.398 . S
C287 C252 1.382 . S
C287 H264 0.951 . S
C287 C286 1.398 . S
Tb288 C297 2.764 . S
Tb288 O298 2.325 1_455 S
Tb288 O301 2.303 . S
Tb288 O305 2.322 1_545 S
Tb288 O306 2.349 1_545 S
Tb288 O309 2.415 . S
Tb288 O310 2.399 . S
Tb289 O299 2.341 . S
Tb289 O300 2.372 . S
Tb289 O302 2.391 1_545 S
Tb289 O303 2.396 1_545 S
Tb289 O304 2.310 1_645 S
Tb289 O307 2.286 1_545 S
Tb289 C318 2.749 1_545 S
C290 O306 1.261 1_655 S
C290 O307 1.257 . S
C291 C294 1.358 . S
C291 C295 1.332 . S
C291 C297 1.504 . S
C292 C293 1.373 . S
C292 C296 1.308 . S
C293 C292 1.373 . S
C293 C294 1.429 . S
C293 H320 0.932 . S
C294 C291 1.358 . S
C294 C293 1.429 . S
C294 H321 0.930 . S
C295 C291 1.332 . S
C295 C296 1.394 . S
C295 H322 0.932 . S
C296 C292 1.308 . S
C296 C295 1.394 . S
C296 H323 0.929 . S
C297 Tb288 2.764 . S
C297 C291 1.504 . S
C297 O309 1.239 . S
C297 O310 1.263 . S
O298 Tb288 2.325 1_655 S
O298 C308 1.236 . S
O299 Tb289 2.341 . S
O299 C308 1.257 . S
O300 Tb289 2.372 . S
O300 C311 1.261 1_655 S
O301 Tb288 2.303 . S
O301 C311 1.257 . S
O302 Tb289 2.391 1_565 S
O302 C318 1.239 . S
O303 Tb289 2.396 1_565 S
O303 C318 1.263 . S
O304 Tb289 2.310 1_465 S
O304 C319 1.236 . S
O305 Tb288 2.322 1_565 S
O305 C319 1.257 . S
O306 Tb288 2.349 1_565 S
O306 C290 1.261 1_455 S
O307 Tb289 2.286 1_565 S
O307 C290 1.257 . S
C308 O298 1.236 . S
C308 O299 1.257 . S
O309 Tb288 2.415 . S
O309 C297 1.239 . S
O310 Tb288 2.399 . S
O310 C297 1.263 . S
C311 O300 1.261 1_455 S
C311 O301 1.257 . S
C312 C315 1.358 . S
C312 C316 1.332 . S
C312 C318 1.504 . S
C313 C314 1.373 . S
C313 C317 1.308 . S
C314 C313 1.373 . S
C314 C315 1.429 . S
C314 H324 0.932 . S
C315 C312 1.358 . S
C315 C314 1.429 . S
C315 H325 0.930 . S
C316 C312 1.332 . S
C316 C317 1.394 . S
C316 H326 0.932 . S
C317 C313 1.308 . S
C317 C316 1.394 . S
C317 H327 0.929 . S
C318 Tb289 2.749 1_565 S
C318 O302 1.239 . S
C318 O303 1.263 . S
C318 C312 1.504 . S
C319 O304 1.236 . S
C319 O305 1.257 . S
H320 C293 0.932 . S
H321 C294 0.930 . S
H322 C295 0.932 . S
H323 C296 0.929 . S
H324 C314 0.932 . S
H325 C315 0.930 . S
H326 C316 0.932 . S
H327 C317 0.929 . S
Tb328 C337 2.764 . S
Tb328 O338 2.325 1_554 S
Tb328 O341 2.303 . S
Tb328 O345 2.322 1_545 S
Tb328 O346 2.370 1_545 S
Tb328 O349 2.415 . S
Tb328 O350 2.399 . S
Tb329 O339 2.288 1_565 S
Tb329 O340 2.319 1_566 S
Tb329 O342 2.450 . S
Tb329 O343 2.411 . S
Tb329 O344 2.355 1_556 S
Tb329 O347 2.322 . S
Tb329 C358 2.791 . S
C330 O346 1.234 1_556 S
C330 O347 1.257 . S
C331 C334 1.358 . S
C331 C335 1.332 . S
C331 C337 1.504 . S
C332 C333 1.373 . S
C332 C336 1.308 . S
C333 C332 1.373 . S
C333 C334 1.429 . S
C333 H360 0.932 . S
C334 C331 1.358 . S
C334 C333 1.429 . S
C334 H361 0.930 . S
C335 C331 1.332 . S
C335 C336 1.394 . S
C335 H362 0.932 . S
C336 C332 1.308 . S
C336 C335 1.394 . S
C336 H363 0.929 . S
C337 Tb328 2.764 . S
C337 C331 1.504 . S
C337 O349 1.239 . S
C337 O350 1.263 . S
O338 Tb328 2.325 1_556 S
O338 C348 1.236 . S
O339 Tb329 2.288 1_545 S
O339 C348 1.257 . S
O340 Tb329 2.319 1_544 S
O340 C351 1.269 . S
O341 Tb328 2.303 . S
O341 C351 1.257 . S
O342 Tb329 2.450 . S
O342 C358 1.239 . S
O343 Tb329 2.411 . S
O343 C358 1.263 . S
O344 Tb329 2.355 1_554 S
O344 C359 1.236 . S
O345 Tb328 2.322 1_565 S
O345 C359 1.257 . S
O346 Tb328 2.370 1_565 S
O346 C330 1.234 1_554 S
O347 Tb329 2.322 . S
O347 C330 1.257 . S
C348 O338 1.236 . S
C348 O339 1.257 . S
O349 Tb328 2.415 . S
O349 C337 1.239 . S
O350 Tb328 2.399 . S
O350 C337 1.263 . S
C351 O340 1.269 . S
C351 O341 1.257 . S
C352 C355 1.358 . S
C352 C356 1.332 . S
C352 C358 1.504 . S
C353 C354 1.373 . S
C353 C357 1.308 . S
C354 C353 1.373 . S
C354 C355 1.429 . S
C354 H364 0.932 . S
C355 C352 1.358 . S
C355 C354 1.429 . S
C355 H365 0.930 . S
C356 C352 1.332 . S
C356 C357 1.394 . S
C356 H366 0.932 . S
C357 C353 1.308 . S
C357 C356 1.394 . S
C357 H367 0.929 . S
C358 Tb329 2.791 . S
C358 O342 1.239 . S
C358 O343 1.263 . S
C358 C352 1.504 . S
C359 O344 1.236 . S
C359 O345 1.257 . S
H360 C333 0.932 . S
H361 C334 0.930 . S
H362 C335 0.932 . S
H363 C336 0.929 . S
H364 C354 0.932 . S
H365 C355 0.930 . S
H366 C356 0.932 . S
H367 C357 0.929 . S
Tb368 C377 2.764 . S
Tb368 O378 2.325 . S
Tb368 O381 2.303 . S
Tb368 O385 2.322 . S
Tb368 O386 2.349 . S
Tb368 O389 2.415 . S
Tb368 O390 2.399 . S
Tb369 O379 2.322 . S
Tb369 O380 2.349 . S
Tb369 O382 2.415 . S
Tb369 O383 2.399 . S
Tb369 O384 2.325 . S
Tb369 O387 2.303 . S
Tb369 C398 2.764 . S
C370 O386 1.261 . S
C370 O387 1.257 . S
C371 C374 1.358 . S
C371 C375 1.332 . S
C371 C377 1.504 . S
C372 C373 1.373 . S
C372 C376 1.308 . S
C373 C372 1.373 . S
C373 C374 1.429 . S
C373 H400 0.932 . S
C374 C371 1.358 . S
C374 C373 1.429 . S
C374 H401 0.930 . S
C375 C371 1.332 . S
C375 C376 1.394 . S
C375 H402 0.932 . S
C376 C372 1.308 . S
C376 C375 1.394 . S
C376 H403 0.929 . S
C377 Tb368 2.764 . S
C377 C371 1.504 . S
C377 O389 1.239 . S
C377 O390 1.263 . S
O378 Tb368 2.325 . S
O378 C388 1.236 . S
O379 Tb369 2.322 . S
O379 C388 1.257 . S
O380 Tb369 2.349 . S
O380 C391 1.261 . S
O381 Tb368 2.303 . S
O381 C391 1.257 . S
O382 Tb369 2.415 . S
O382 C398 1.239 . S
O383 Tb369 2.399 . S
O383 C398 1.263 . S
O384 Tb369 2.325 . S
O384 C399 1.236 . S
O385 Tb368 2.322 . S
O385 C399 1.257 . S
O386 Tb368 2.349 . S
O386 C370 1.261 . S
O387 Tb369 2.303 . S
O387 C370 1.257 . S
C388 O378 1.236 . S
C388 O379 1.257 . S
O389 Tb368 2.415 . S
O389 C377 1.239 . S
O390 Tb368 2.399 . S
O390 C377 1.263 . S
C391 O380 1.261 . S
C391 O381 1.257 . S
C392 C395 1.358 . S
C392 C396 1.332 . S
C392 C398 1.504 . S
C393 C394 1.373 . S
C393 C397 1.308 . S
C394 C393 1.373 . S
C394 C395 1.429 . S
C394 H404 0.932 . S
C395 C392 1.358 . S
C395 C394 1.429 . S
C395 H405 0.930 . S
C396 C392 1.332 . S
C396 C397 1.394 . S
C396 H406 0.932 . S
C397 C393 1.308 . S
C397 C396 1.394 . S
C397 H407 0.929 . S
C398 Tb369 2.764 . S
C398 O382 1.239 . S
C398 O383 1.263 . S
C398 C392 1.504 . S
C399 O384 1.236 . S
C399 O385 1.257 . S
H400 C373 0.932 . S
H401 C374 0.930 . S
H402 C375 0.932 . S
H403 C376 0.929 . S
H404 C394 0.932 . S
H405 C395 0.930 . S
H406 C396 0.932 . S
H407 C397 0.929 . S
Tb408 C417 2.776 . S
Tb408 O418 2.336 . S
Tb408 O421 2.306 1_556 S
Tb408 O425 2.291 1_656 S
Tb408 O426 2.342 1_655 S
Tb408 O429 2.428 . S
Tb408 O430 2.407 . S
Tb409 O419 2.322 1_455 S
Tb409 O420 2.349 1_455 S
Tb409 O422 2.415 . S
Tb409 O423 2.399 . S
Tb409 O424 2.325 . S
Tb409 O427 2.303 1_554 S
Tb409 C438 2.764 . S
C410 O426 1.261 . S
C410 O427 1.257 . S
C411 C414 1.358 . S
C411 C415 1.332 . S
C411 C417 1.504 . S
C412 C413 1.373 . S
C412 C416 1.308 . S
C413 C412 1.373 . S
C413 C414 1.429 . S
C413 H440 0.932 . S
C414 C411 1.358 . S
C414 C413 1.429 . S
C414 H441 0.930 . S
C415 C411 1.332 . S
C415 C416 1.394 . S
C415 H442 0.932 . S
C416 C412 1.308 . S
C416 C415 1.394 . S
C416 H443 0.929 . S
C417 Tb408 2.776 . S
C417 C411 1.504 . S
C417 O429 1.239 . S
C417 O430 1.263 . S
O418 Tb408 2.336 . S
O418 C428 1.236 . S
O419 Tb409 2.322 1_655 S
O419 C428 1.257 1_554 S
O420 Tb409 2.349 1_655 S
O420 C431 1.261 . S
O421 Tb408 2.306 1_554 S
O421 C431 1.257 . S
O422 Tb409 2.415 . S
O422 C438 1.239 . S
O423 Tb409 2.399 . S
O423 C438 1.263 . S
O424 Tb409 2.325 . S
O424 C439 1.236 . S
O425 Tb408 2.291 1_454 S
O425 C439 1.285 . S
O426 Tb408 2.342 1_455 S
O426 C410 1.261 . S
O427 Tb409 2.303 1_556 S
O427 C410 1.257 . S
C428 O418 1.236 . S
C428 O419 1.257 1_556 S
O429 Tb408 2.428 . S
O429 C417 1.239 . S
O430 Tb408 2.407 . S
O430 C417 1.263 . S
C431 O420 1.261 . S
C431 O421 1.257 . S
C432 C435 1.358 . S
C432 C436 1.332 . S
C432 C438 1.504 . S
C433 C434 1.373 . S
C433 C437 1.308 . S
C434 C433 1.373 . S
C434 C435 1.429 . S
C434 H444 0.932 . S
C435 C432 1.358 . S
C435 C434 1.429 . S
C435 H445 0.930 . S
C436 C432 1.332 . S
C436 C437 1.394 . S
C436 H446 0.932 . S
C437 C433 1.308 . S
C437 C436 1.394 . S
C437 H447 0.929 . S
C438 Tb409 2.764 . S
C438 O422 1.239 . S
C438 O423 1.263 . S
C438 C432 1.504 . S
C439 O424 1.236 . S
C439 O425 1.285 . S
H440 C413 0.932 . S
H441 C414 0.930 . S
H442 C415 0.932 . S
H443 C416 0.929 . S
H444 C434 0.932 . S
H445 C435 0.930 . S
H446 C436 0.932 . S
H447 C437 0.929 . S
H448 C466 0.951 . S
H449 C468 0.951 . S
H450 C470 0.950 . S
H451 C471 0.950 . S
H452 C473 0.950 . S
H453 C476 0.950 . S
H454 C477 0.950 . S
H455 C479 0.950 . S
H456 C480 0.950 . S
H457 C481 0.951 . S
H458 C483 0.951 . S
H459 C485 0.950 . S
H460 C486 0.950 . S
H461 C488 0.950 . S
H462 C491 0.950 . S
H463 C492 0.950 . S
H464 C494 0.950 . S
H465 C495 0.950 . S
C466 H448 0.951 . S
C466 C467 1.366 . S
C466 C468 1.388 . S
C467 C466 1.366 . S
C467 C471 1.385 . S
C468 H449 0.951 . S
C468 C466 1.388 . S
C468 C469 1.366 . S
C469 C468 1.366 . S
C469 C470 1.414 . S
C469 C472 1.499 . S
C470 H450 0.950 . S
C470 C469 1.414 . S
C470 C471 1.374 . S
C471 H451 0.950 . S
C471 C467 1.385 . S
C471 C470 1.374 . S
C472 C469 1.499 . S
C472 C473 1.373 . S
C472 C474 1.389 . S
C473 H452 0.950 . S
C473 C472 1.373 . S
C473 C489 1.377 . S
C474 C472 1.389 . S
C474 C475 1.524 . S
C474 C488 1.377 . S
C475 C474 1.524 . S
C475 C476 1.397 . S
C475 C480 1.363 . S
C476 H453 0.950 . S
C476 C475 1.397 . S
C476 C477 1.334 . S
C477 H454 0.950 . S
C477 C476 1.334 . S
C477 C478 1.287 . S
C478 C477 1.287 . S
C478 C479 1.524 . S
C478 H497 0.913 . S
C479 H455 0.950 . S
C479 C478 1.524 . S
C479 C480 1.415 . S
C480 H456 0.950 . S
C480 C475 1.363 . S
C480 C479 1.415 . S
C481 H457 0.951 . S
C481 C482 1.366 . S
C481 C483 1.388 . S
C482 C481 1.366 . S
C482 C486 1.385 . S
C483 H458 0.951 . S
C483 C481 1.388 . S
C483 C484 1.366 . S
C484 C483 1.366 . S
C484 C485 1.414 . S
C484 C487 1.499 . S
C485 H459 0.950 . S
C485 C484 1.414 . S
C485 C486 1.374 . S
C486 H460 0.950 . S
C486 C482 1.385 . S
C486 C485 1.374 . S
C487 C484 1.499 . S
C487 C488 1.373 . S
C487 C489 1.389 . S
C488 H461 0.950 . S
C488 C474 1.377 . S
C488 C487 1.373 . S
C489 C473 1.377 . S
C489 C487 1.389 . S
C489 C490 1.524 . S
C490 C489 1.524 . S
C490 C491 1.397 . S
C490 C495 1.363 . S
C491 H462 0.950 . S
C491 C490 1.397 . S
C491 C492 1.334 . S
C492 H463 0.950 . S
C492 C491 1.334 . S
C492 C493 1.287 . S
C493 C492 1.287 . S
C493 C494 1.524 . S
C493 H496 0.999 . S
C494 H464 0.950 . S
C494 C493 1.524 . S
C494 C495 1.415 . S
C495 H465 0.950 . S
C495 C490 1.363 . S
C495 C494 1.415 . S
H496 C493 0.999 . S
H497 C478 0.913 . S
H498 C516 0.951 . S
H499 C518 0.951 . S
H500 C520 0.950 . S
H501 C521 0.950 . S
H502 C523 0.950 . S
H503 C526 0.950 . S
H504 C527 0.950 . S
H505 C529 0.950 . S
H506 C530 0.950 . S
H507 C531 0.951 . S
H508 C533 0.951 . S
H509 C535 0.950 . S
H510 C536 0.950 . S
H511 C538 0.950 . S
H512 C541 0.950 . S
H513 C542 0.950 . S
H514 C544 0.950 . S
H515 C545 0.950 . S
C516 H498 0.951 . S
C516 C517 1.366 . S
C516 C518 1.388 . S
C517 C516 1.366 . S
C517 C521 1.385 . S
C518 H499 0.951 . S
C518 C516 1.388 . S
C518 C519 1.366 . S
C519 C518 1.366 . S
C519 C520 1.414 . S
C519 C522 1.499 . S
C520 H500 0.950 . S
C520 C519 1.414 . S
C520 C521 1.374 . S
C521 H501 0.950 . S
C521 C517 1.385 . S
C521 C520 1.374 . S
C522 C519 1.499 . S
C522 C523 1.373 . S
C522 C524 1.389 . S
C523 H502 0.950 . S
C523 C522 1.373 . S
C523 C539 1.377 . S
C524 C522 1.389 . S
C524 C525 1.524 . S
C524 C538 1.377 . S
C525 C524 1.524 . S
C525 C526 1.397 . S
C525 C530 1.363 . S
C526 H503 0.950 . S
C526 C525 1.397 . S
C526 C527 1.334 . S
C527 H504 0.950 . S
C527 C526 1.334 . S
C527 C528 1.287 . S
C528 C527 1.287 . S
C528 C529 1.524 . S
C528 H547 0.913 . S
C529 H505 0.950 . S
C529 C528 1.524 . S
C529 C530 1.415 . S
C530 H506 0.950 . S
C530 C525 1.363 . S
C530 C529 1.415 . S
C531 H507 0.951 . S
C531 C532 1.366 . S
C531 C533 1.388 . S
C532 C531 1.366 . S
C532 C536 1.385 . S
C533 H508 0.951 . S
C533 C531 1.388 . S
C533 C534 1.366 . S
C534 C533 1.366 . S
C534 C535 1.414 . S
C534 C537 1.499 . S
C535 H509 0.950 . S
C535 C534 1.414 . S
C535 C536 1.374 . S
C536 H510 0.950 . S
C536 C532 1.385 . S
C536 C535 1.374 . S
C537 C534 1.499 . S
C537 C538 1.373 . S
C537 C539 1.389 . S
C538 H511 0.950 . S
C538 C524 1.377 . S
C538 C537 1.373 . S
C539 C523 1.377 . S
C539 C537 1.389 . S
C539 C540 1.524 . S
C540 C539 1.524 . S
C540 C541 1.397 . S
C540 C545 1.363 . S
C541 H512 0.950 . S
C541 C540 1.397 . S
C541 C542 1.334 . S
C542 H513 0.950 . S
C542 C541 1.334 . S
C542 C543 1.287 . S
C543 C542 1.287 . S
C543 C544 1.524 . S
C543 H546 0.999 . S
C544 H514 0.950 . S
C544 C543 1.524 . S
C544 C545 1.415 . S
C545 H515 0.950 . S
C545 C540 1.363 . S
C545 C544 1.415 . S
H546 C543 0.999 . S
H547 C528 0.913 . S
H548 C566 0.951 . S
H549 C568 0.951 . S
H550 C570 0.950 . S
H551 C571 0.950 . S
H552 C573 0.950 . S
H553 C576 0.950 . S
H554 C577 0.950 . S
H555 C579 0.950 . S
H556 C580 0.950 . S
H557 C581 0.951 . S
H558 C583 0.951 . S
H559 C585 0.950 . S
H560 C586 0.950 . S
H561 C588 0.950 . S
H562 C591 0.950 . S
H563 C592 0.950 . S
H564 C594 0.950 . S
H565 C595 0.950 . S
C566 H548 0.951 . S
C566 C567 1.366 . S
C566 C568 1.388 . S
C567 C566 1.366 . S
C567 C571 1.385 . S
C568 H549 0.951 . S
C568 C566 1.388 . S
C568 C569 1.366 . S
C569 C568 1.366 . S
C569 C570 1.414 . S
C569 C572 1.499 . S
C570 H550 0.950 . S
C570 C569 1.414 . S
C570 C571 1.374 . S
C571 H551 0.950 . S
C571 C567 1.385 . S
C571 C570 1.374 . S
C572 C569 1.499 . S
C572 C573 1.373 . S
C572 C574 1.389 . S
C573 H552 0.950 . S
C573 C572 1.373 . S
C573 C589 1.377 . S
C574 C572 1.389 . S
C574 C575 1.524 . S
C574 C588 1.377 . S
C575 C574 1.524 . S
C575 C576 1.397 . S
C575 C580 1.363 . S
C576 H553 0.950 . S
C576 C575 1.397 . S
C576 C577 1.334 . S
C577 H554 0.950 . S
C577 C576 1.334 . S
C577 C578 1.287 . S
C578 C577 1.287 . S
C578 C579 1.524 . S
C578 H597 0.913 . S
C579 H555 0.950 . S
C579 C578 1.524 . S
C579 C580 1.415 . S
C580 H556 0.950 . S
C580 C575 1.363 . S
C580 C579 1.415 . S
C581 H557 0.951 . S
C581 C582 1.366 . S
C581 C583 1.388 . S
C582 C581 1.366 . S
C582 C586 1.385 . S
C583 H558 0.951 . S
C583 C581 1.388 . S
C583 C584 1.366 . S
C584 C583 1.366 . S
C584 C585 1.414 . S
C584 C587 1.499 . S
C585 H559 0.950 . S
C585 C584 1.414 . S
C585 C586 1.374 . S
C586 H560 0.950 . S
C586 C582 1.385 . S
C586 C585 1.374 . S
C587 C584 1.499 . S
C587 C588 1.373 . S
C587 C589 1.389 . S
C588 H561 0.950 . S
C588 C574 1.377 . S
C588 C587 1.373 . S
C589 C573 1.377 . S
C589 C587 1.389 . S
C589 C590 1.524 . S
C590 C589 1.524 . S
C590 C591 1.397 . S
C590 C595 1.363 . S
C591 H562 0.950 . S
C591 C590 1.397 . S
C591 C592 1.334 . S
C592 H563 0.950 . S
C592 C591 1.334 . S
C592 C593 1.287 . S
C593 C592 1.287 . S
C593 C594 1.524 . S
C593 H596 0.999 . S
C594 H564 0.950 . S
C594 C593 1.524 . S
C594 C595 1.415 . S
C595 H565 0.950 . S
C595 C590 1.363 . S
C595 C594 1.415 . S
H596 C593 0.999 . S
H597 C578 0.913 . S
H598 C616 0.951 . S
H599 C618 0.951 . S
H600 C620 0.950 . S
H601 C621 0.950 . S
H602 C623 0.950 . S
H603 C626 0.950 . S
H604 C627 0.950 . S
H605 C629 0.950 . S
H606 C630 0.950 . S
H607 C631 0.951 . S
H608 C633 0.951 . S
H609 C635 0.950 . S
H610 C636 0.950 . S
H611 C638 0.950 . S
H612 C641 0.950 . S
H613 C642 0.950 . S
H614 C644 0.950 . S
H615 C645 0.950 . S
C616 H598 0.951 . S
C616 C617 1.366 . S
C616 C618 1.388 . S
C617 C616 1.366 . S
C617 C621 1.385 . S
C618 H599 0.951 . S
C618 C616 1.388 . S
C618 C619 1.366 . S
C619 C618 1.366 . S
C619 C620 1.414 . S
C619 C622 1.499 . S
C620 H600 0.950 . S
C620 C619 1.414 . S
C620 C621 1.374 . S
C621 H601 0.950 . S
C621 C617 1.385 . S
C621 C620 1.374 . S
C622 C619 1.499 . S
C622 C623 1.373 . S
C622 C624 1.389 . S
C623 H602 0.950 . S
C623 C622 1.373 . S
C623 C639 1.377 . S
C624 C622 1.389 . S
C624 C625 1.524 . S
C624 C638 1.377 . S
C625 C624 1.524 . S
C625 C626 1.397 . S
C625 C630 1.363 . S
C626 H603 0.950 . S
C626 C625 1.397 . S
C626 C627 1.334 . S
C627 H604 0.950 . S
C627 C626 1.334 . S
C627 C628 1.287 . S
C628 C627 1.287 . S
C628 C629 1.524 . S
C628 H647 0.913 . S
C629 H605 0.950 . S
C629 C628 1.524 . S
C629 C630 1.415 . S
C630 H606 0.950 . S
C630 C625 1.363 . S
C630 C629 1.415 . S
C631 H607 0.951 . S
C631 C632 1.366 . S
C631 C633 1.388 . S
C632 C631 1.366 . S
C632 C636 1.385 . S
C633 H608 0.951 . S
C633 C631 1.388 . S
C633 C634 1.366 . S
C634 C633 1.366 . S
C634 C635 1.414 . S
C634 C637 1.499 . S
C635 H609 0.950 . S
C635 C634 1.414 . S
C635 C636 1.374 . S
C636 H610 0.950 . S
C636 C632 1.385 . S
C636 C635 1.374 . S
C637 C634 1.499 . S
C637 C638 1.373 . S
C637 C639 1.389 . S
C638 H611 0.950 . S
C638 C624 1.377 . S
C638 C637 1.373 . S
C639 C623 1.377 . S
C639 C637 1.389 . S
C639 C640 1.524 . S
C640 C639 1.524 . S
C640 C641 1.397 . S
C640 C645 1.363 . S
C641 H612 0.950 . S
C641 C640 1.397 . S
C641 C642 1.334 1_655 S
C642 H613 0.950 . S
C642 C641 1.334 1_455 S
C642 C643 1.287 . S
C643 C642 1.287 . S
C643 C644 1.524 . S
C643 H646 0.999 . S
C644 H614 0.950 . S
C644 C643 1.524 . S
C644 C645 1.415 1_455 S
C645 H615 0.950 . S
C645 C640 1.363 . S
C645 C644 1.415 1_655 S
H646 C643 0.999 . S
H647 C628 0.913 . S
H648 C666 0.951 . S
H649 C668 0.951 . S
H650 C670 0.950 . S
H651 C671 0.950 . S
H652 C673 0.950 . S
H653 C676 0.950 . S
H654 C677 0.950 . S
H655 C679 0.950 . S
H656 C680 0.950 . S
H657 C681 0.951 . S
H658 C683 0.951 . S
H659 C685 0.950 . S
H660 C686 0.950 . S
H661 C688 0.950 . S
H662 C691 0.950 . S
H663 C692 0.950 . S
H664 C694 0.950 . S
H665 C695 0.950 . S
C666 H648 0.951 . S
C666 C667 1.366 . S
C666 C668 1.388 . S
C667 C666 1.366 . S
C667 C671 1.385 . S
C668 H649 0.951 . S
C668 C666 1.388 . S
C668 C669 1.366 . S
C669 C668 1.366 . S
C669 C670 1.414 . S
C669 C672 1.499 . S
C670 H650 0.950 . S
C670 C669 1.414 . S
C670 C671 1.374 . S
C671 H651 0.950 . S
C671 C667 1.385 . S
C671 C670 1.374 . S
C672 C669 1.499 . S
C672 C673 1.373 . S
C672 C674 1.389 . S
C673 H652 0.950 . S
C673 C672 1.373 . S
C673 C689 1.377 . S
C674 C672 1.389 . S
C674 C675 1.524 . S
C674 C688 1.377 . S
C675 C674 1.524 . S
C675 C676 1.397 . S
C675 C680 1.363 . S
C676 H653 0.950 . S
C676 C675 1.397 . S
C676 C677 1.334 . S
C677 H654 0.950 . S
C677 C676 1.334 . S
C677 C678 1.287 . S
C678 C677 1.287 . S
C678 C679 1.524 . S
C678 H697 0.913 . S
C679 H655 0.950 . S
C679 C678 1.524 . S
C679 C680 1.415 . S
C680 H656 0.950 . S
C680 C675 1.363 . S
C680 C679 1.415 . S
C681 H657 0.951 . S
C681 C682 1.366 . S
C681 C683 1.388 . S
C682 C681 1.366 . S
C682 C686 1.385 . S
C683 H658 0.951 . S
C683 C681 1.388 . S
C683 C684 1.366 . S
C684 C683 1.366 . S
C684 C685 1.414 . S
C684 C687 1.499 . S
C685 H659 0.950 . S
C685 C684 1.414 . S
C685 C686 1.374 . S
C686 H660 0.950 . S
C686 C682 1.385 . S
C686 C685 1.374 . S
C687 C684 1.499 . S
C687 C688 1.373 . S
C687 C689 1.389 . S
C688 H661 0.950 . S
C688 C674 1.377 . S
C688 C687 1.373 . S
C689 C673 1.377 . S
C689 C687 1.389 . S
C689 C690 1.524 . S
C690 C689 1.524 . S
C690 C691 1.397 . S
C690 C695 1.363 . S
C691 H662 0.950 . S
C691 C690 1.397 . S
C691 C692 1.334 . S
C692 H663 0.950 . S
C692 C691 1.334 . S
C692 C693 1.287 . S
C693 C692 1.287 . S
C693 C694 1.524 . S
C693 H696 0.999 . S
C694 H664 0.950 . S
C694 C693 1.524 . S
C694 C695 1.415 . S
C695 H665 0.950 . S
C695 C690 1.363 . S
C695 C694 1.415 . S
H696 C693 0.999 . S
H697 C678 0.913 . S
H698 C716 0.951 . S
H699 C718 0.951 . S
H700 C720 0.950 . S
H701 C721 0.950 . S
H702 C723 0.950 . S
H703 C726 0.950 . S
H704 C727 0.950 . S
H705 C729 0.950 . S
H706 C730 0.950 . S
H707 C731 0.951 . S
H708 C733 0.951 . S
H709 C735 0.950 . S
H710 C736 0.950 . S
H711 C738 0.950 . S
H712 C741 0.950 . S
H713 C742 0.950 . S
H714 C744 0.950 . S
H715 C745 0.950 . S
C716 H698 0.951 . S
C716 C717 1.366 . S
C716 C718 1.388 . S
C717 C716 1.366 . S
C717 C721 1.385 . S
C718 H699 0.951 . S
C718 C716 1.388 . S
C718 C719 1.366 . S
C719 C718 1.366 . S
C719 C720 1.414 . S
C719 C722 1.499 . S
C720 H700 0.950 . S
C720 C719 1.414 . S
C720 C721 1.374 . S
C721 H701 0.950 . S
C721 C717 1.385 . S
C721 C720 1.374 . S
C722 C719 1.499 . S
C722 C723 1.373 . S
C722 C724 1.389 . S
C723 H702 0.950 . S
C723 C722 1.373 . S
C723 C739 1.377 . S
C724 C722 1.389 . S
C724 C725 1.524 . S
C724 C738 1.377 . S
C725 C724 1.524 . S
C725 C726 1.397 . S
C725 C730 1.363 . S
C726 H703 0.950 . S
C726 C725 1.397 . S
C726 C727 1.334 . S
C727 H704 0.950 . S
C727 C726 1.334 . S
C727 C728 1.287 . S
C728 C727 1.287 . S
C728 C729 1.524 . S
C728 H747 0.913 . S
C729 H705 0.950 . S
C729 C728 1.524 . S
C729 C730 1.415 . S
C730 H706 0.950 . S
C730 C725 1.363 . S
C730 C729 1.415 . S
C731 H707 0.951 . S
C731 C732 1.366 . S
C731 C733 1.388 . S
C732 C731 1.366 . S
C732 C736 1.385 . S
C733 H708 0.951 . S
C733 C731 1.388 . S
C733 C734 1.366 . S
C734 C733 1.366 . S
C734 C735 1.414 . S
C734 C737 1.499 . S
C735 H709 0.950 . S
C735 C734 1.414 . S
C735 C736 1.374 . S
C736 H710 0.950 . S
C736 C732 1.385 . S
C736 C735 1.374 . S
C737 C734 1.499 . S
C737 C738 1.373 . S
C737 C739 1.389 . S
C738 H711 0.950 . S
C738 C724 1.377 . S
C738 C737 1.373 . S
C739 C723 1.377 . S
C739 C737 1.389 . S
C739 C740 1.524 . S
C740 C739 1.524 . S
C740 C741 1.397 . S
C740 C745 1.363 . S
C741 H712 0.950 . S
C741 C740 1.397 . S
C741 C742 1.334 1_455 S
C742 H713 0.950 . S
C742 C741 1.334 1_655 S
C742 C743 1.287 . S
C743 C742 1.287 . S
C743 C744 1.524 1_655 S
C743 H746 0.999 . S
C744 H714 0.950 . S
C744 C743 1.524 1_455 S
C744 C745 1.415 . S
C745 H715 0.950 . S
C745 C740 1.363 . S
C745 C744 1.415 . S
H746 C743 0.999 . S
H747 C728 0.913 . S
H748 C766 0.951 . S
H749 C768 0.951 . S
H750 C770 0.950 . S
H751 C771 0.950 . S
H752 C773 0.950 . S
H753 C776 0.950 . S
H754 C777 0.950 . S
H755 C779 0.950 1_554 S
H756 C780 0.950 . S
H757 C781 0.951 . S
H758 C783 0.951 . S
H759 C785 0.950 . S
H760 C786 0.950 . S
H761 C788 0.950 . S
H762 C791 0.950 . S
H763 C792 0.950 . S
H764 C794 0.950 . S
H765 C795 0.950 . S
C766 H748 0.951 . S
C766 C767 1.366 . S
C766 C768 1.388 . S
C767 C766 1.366 . S
C767 C771 1.385 . S
C768 H749 0.951 . S
C768 C766 1.388 . S
C768 C769 1.366 . S
C769 C768 1.366 . S
C769 C770 1.414 . S
C769 C772 1.499 . S
C770 H750 0.950 . S
C770 C769 1.414 . S
C770 C771 1.374 . S
C771 H751 0.950 . S
C771 C767 1.385 . S
C771 C770 1.374 . S
C772 C769 1.499 . S
C772 C773 1.373 . S
C772 C774 1.389 . S
C773 H752 0.950 . S
C773 C772 1.373 . S
C773 C789 1.377 . S
C774 C772 1.389 . S
C774 C775 1.524 . S
C774 C788 1.377 . S
C775 C774 1.524 . S
C775 C776 1.397 . S
C775 C780 1.363 . S
C776 H753 0.950 . S
C776 C775 1.397 . S
C776 C777 1.334 . S
C777 H754 0.950 . S
C777 C776 1.334 . S
C777 C778 1.287 . S
C778 C777 1.287 . S
C778 C779 1.524 . S
C778 H797 0.913 1_556 S
C779 H755 0.950 1_556 S
C779 C778 1.524 . S
C779 C780 1.415 . S
C780 H756 0.950 . S
C780 C775 1.363 . S
C780 C779 1.415 . S
C781 H757 0.951 . S
C781 C782 1.366 . S
C781 C783 1.388 . S
C782 C781 1.366 . S
C782 C786 1.385 . S
C783 H758 0.951 . S
C783 C781 1.388 . S
C783 C784 1.366 . S
C784 C783 1.366 . S
C784 C785 1.414 . S
C784 C787 1.499 . S
C785 H759 0.950 . S
C785 C784 1.414 . S
C785 C786 1.374 . S
C786 H760 0.950 . S
C786 C782 1.385 . S
C786 C785 1.374 . S
C787 C784 1.499 . S
C787 C788 1.373 . S
C787 C789 1.389 . S
C788 H761 0.950 . S
C788 C774 1.377 . S
C788 C787 1.373 . S
C789 C773 1.377 . S
C789 C787 1.389 . S
C789 C790 1.524 . S
C790 C789 1.524 . S
C790 C791 1.397 . S
C790 C795 1.363 . S
C791 H762 0.950 . S
C791 C790 1.397 . S
C791 C792 1.334 . S
C792 H763 0.950 . S
C792 C791 1.334 . S
C792 C793 1.287 . S
C793 C792 1.287 . S
C793 C794 1.524 . S
C793 H796 0.999 . S
C794 H764 0.950 . S
C794 C793 1.524 . S
C794 C795 1.415 . S
C795 H765 0.950 . S
C795 C790 1.363 . S
C795 C794 1.415 . S
H796 C793 0.999 . S
H797 C778 0.913 1_554 S
H798 C816 0.951 . S
H799 C818 0.951 . S
H800 C820 0.950 . S
H801 C821 0.950 . S
H802 C823 0.950 . S
H803 C826 0.950 . S
H804 C827 0.950 . S
H805 C829 0.950 . S
H806 C830 0.950 . S
H807 C831 0.951 . S
H808 C833 0.951 . S
H809 C835 0.950 . S
H810 C836 0.950 . S
H811 C838 0.950 . S
H812 C841 0.950 . S
H813 C842 0.950 . S
H814 C844 0.950 . S
H815 C845 0.950 . S
C816 H798 0.951 . S
C816 C817 1.366 . S
C816 C818 1.388 . S
C817 C816 1.366 . S
C817 C821 1.385 . S
C818 H799 0.951 . S
C818 C816 1.388 . S
C818 C819 1.366 . S
C819 C818 1.366 . S
C819 C820 1.414 . S
C819 C822 1.499 . S
C820 H800 0.950 . S
C820 C819 1.414 . S
C820 C821 1.374 . S
C821 H801 0.950 . S
C821 C817 1.385 . S
C821 C820 1.374 . S
C822 C819 1.499 . S
C822 C823 1.373 . S
C822 C824 1.389 . S
C823 H802 0.950 . S
C823 C822 1.373 . S
C823 C839 1.377 . S
C824 C822 1.389 . S
C824 C825 1.524 . S
C824 C838 1.377 . S
C825 C824 1.524 . S
C825 C826 1.397 . S
C825 C830 1.363 . S
C826 H803 0.950 . S
C826 C825 1.397 . S
C826 C827 1.334 . S
C827 H804 0.950 . S
C827 C826 1.334 . S
C827 C828 1.287 . S
C828 C827 1.287 . S
C828 C829 1.524 . S
C828 H847 0.913 . S
C829 H805 0.950 . S
C829 C828 1.524 . S
C829 C830 1.415 . S
C830 H806 0.950 . S
C830 C825 1.363 . S
C830 C829 1.415 . S
C831 H807 0.951 . S
C831 C832 1.366 . S
C831 C833 1.388 . S
C832 C831 1.366 . S
C832 C836 1.385 . S
C833 H808 0.951 . S
C833 C831 1.388 . S
C833 C834 1.366 . S
C834 C833 1.366 . S
C834 C835 1.414 . S
C834 C837 1.499 . S
C835 H809 0.950 . S
C835 C834 1.414 . S
C835 C836 1.374 . S
C836 H810 0.950 . S
C836 C832 1.385 . S
C836 C835 1.374 . S
C837 C834 1.499 . S
C837 C838 1.373 . S
C837 C839 1.389 . S
C838 H811 0.950 . S
C838 C824 1.377 . S
C838 C837 1.373 . S
C839 C823 1.377 . S
C839 C837 1.389 . S
C839 C840 1.524 . S
C840 C839 1.524 . S
C840 C841 1.397 . S
C840 C845 1.363 . S
C841 H812 0.950 . S
C841 C840 1.397 . S
C841 C842 1.334 . S
C842 H813 0.950 . S
C842 C841 1.334 . S
C842 C843 1.287 . S
C843 C842 1.287 . S
C843 C844 1.524 . S
C843 H846 0.999 . S
C844 H814 0.950 . S
C844 C843 1.524 . S
C844 C845 1.415 . S
C845 H815 0.950 . S
C845 C840 1.363 . S
C845 C844 1.415 . S
H846 C843 0.999 . S
H847 C828 0.913 . S
H848 C866 0.951 . S
H849 C868 0.951 . S
H850 C870 0.950 . S
H851 C871 0.950 . S
H852 C873 0.950 . S
H853 C876 0.950 . S
H854 C877 0.950 . S
H855 C879 0.950 . S
H856 C880 0.950 . S
H857 C881 0.951 . S
H858 C883 0.951 . S
H859 C885 0.950 . S
H860 C886 0.950 . S
H861 C888 0.950 . S
H862 C891 0.950 . S
H863 C892 0.950 . S
H864 C894 0.950 . S
H865 C895 0.950 . S
C866 H848 0.951 . S
C866 C867 1.366 . S
C866 C868 1.388 . S
C867 C866 1.366 . S
C867 C871 1.385 . S
C868 H849 0.951 . S
C868 C866 1.388 . S
C868 C869 1.366 . S
C869 C868 1.366 . S
C869 C870 1.414 . S
C869 C872 1.499 . S
C870 H850 0.950 . S
C870 C869 1.414 . S
C870 C871 1.374 . S
C871 H851 0.950 . S
C871 C867 1.385 . S
C871 C870 1.374 . S
C872 C869 1.499 . S
C872 C873 1.373 . S
C872 C874 1.389 . S
C873 H852 0.950 . S
C873 C872 1.373 . S
C873 C889 1.377 . S
C874 C872 1.389 . S
C874 C875 1.524 . S
C874 C888 1.377 . S
C875 C874 1.524 . S
C875 C876 1.397 . S
C875 C880 1.363 . S
C876 H853 0.950 . S
C876 C875 1.397 . S
C876 C877 1.334 . S
C877 H854 0.950 . S
C877 C876 1.334 . S
C877 C878 1.287 . S
C878 C877 1.287 . S
C878 C879 1.524 . S
C878 H897 0.913 . S
C879 H855 0.950 . S
C879 C878 1.524 . S
C879 C880 1.415 . S
C880 H856 0.950 . S
C880 C875 1.363 . S
C880 C879 1.415 . S
C881 H857 0.951 . S
C881 C882 1.366 . S
C881 C883 1.388 . S
C882 C881 1.366 . S
C882 C886 1.385 . S
C883 H858 0.951 . S
C883 C881 1.388 . S
C883 C884 1.366 . S
C884 C883 1.366 . S
C884 C885 1.414 . S
C884 C887 1.499 . S
C885 H859 0.950 . S
C885 C884 1.414 . S
C885 C886 1.374 . S
C886 H860 0.950 . S
C886 C882 1.385 . S
C886 C885 1.374 . S
C887 C884 1.499 . S
C887 C888 1.373 . S
C887 C889 1.389 . S
C888 H861 0.950 . S
C888 C874 1.377 . S
C888 C887 1.373 . S
C889 C873 1.377 . S
C889 C887 1.389 . S
C889 C890 1.524 . S
C890 C889 1.524 . S
C890 C891 1.397 . S
C890 C895 1.363 . S
C891 H862 0.950 . S
C891 C890 1.397 . S
C891 C892 1.334 . S
C892 H863 0.950 . S
C892 C891 1.334 . S
C892 C893 1.287 . S
C893 C892 1.287 . S
C893 C894 1.524 . S
C893 H896 0.999 . S
C894 H864 0.950 . S
C894 C893 1.524 . S
C894 C895 1.415 . S
C895 H865 0.950 . S
C895 C890 1.363 . S
C895 C894 1.415 . S
H896 C893 0.999 . S
H897 C878 0.913 . S
H898 C916 0.951 . S
H899 C918 0.951 . S
H900 C920 0.950 . S
H901 C921 0.950 . S
H902 C923 0.950 . S
H903 C926 0.950 . S
H904 C927 0.950 . S
H905 C929 0.950 . S
H906 C930 0.950 . S
H907 C931 0.951 . S
H908 C933 0.951 . S
H909 C935 0.950 . S
H910 C936 0.950 . S
H911 C938 0.950 . S
H912 C941 0.950 . S
H913 C942 0.950 . S
H914 C944 0.950 . S
H915 C945 0.950 . S
C916 H898 0.951 . S
C916 C917 1.366 . S
C916 C918 1.388 . S
C917 C916 1.366 . S
C917 C921 1.385 . S
C918 H899 0.951 . S
C918 C916 1.388 . S
C918 C919 1.366 . S
C919 C918 1.366 . S
C919 C920 1.414 . S
C919 C922 1.499 . S
C920 H900 0.950 . S
C920 C919 1.414 . S
C920 C921 1.374 . S
C921 H901 0.950 . S
C921 C917 1.385 . S
C921 C920 1.374 . S
C922 C919 1.499 . S
C922 C923 1.373 . S
C922 C924 1.389 . S
C923 H902 0.950 . S
C923 C922 1.373 . S
C923 C939 1.377 . S
C924 C922 1.389 . S
C924 C925 1.524 . S
C924 C938 1.377 . S
C925 C924 1.524 . S
C925 C926 1.397 . S
C925 C930 1.363 . S
C926 H903 0.950 . S
C926 C925 1.397 . S
C926 C927 1.334 . S
C927 H904 0.950 . S
C927 C926 1.334 . S
C927 C928 1.287 . S
C928 C927 1.287 . S
C928 C929 1.524 . S
C928 H947 0.913 . S
C929 H905 0.950 . S
C929 C928 1.524 . S
C929 C930 1.415 . S
C930 H906 0.950 . S
C930 C925 1.363 . S
C930 C929 1.415 . S
C931 H907 0.951 . S
C931 C932 1.366 . S
C931 C933 1.388 . S
C932 C931 1.366 . S
C932 C936 1.385 . S
C933 H908 0.951 . S
C933 C931 1.388 . S
C933 C934 1.366 . S
C934 C933 1.366 . S
C934 C935 1.414 . S
C934 C937 1.499 . S
C935 H909 0.950 . S
C935 C934 1.414 . S
C935 C936 1.374 . S
C936 H910 0.950 . S
C936 C932 1.385 . S
C936 C935 1.374 . S
C937 C934 1.499 . S
C937 C938 1.373 . S
C937 C939 1.389 . S
C938 H911 0.950 . S
C938 C924 1.377 . S
C938 C937 1.373 . S
C939 C923 1.377 . S
C939 C937 1.389 . S
C939 C940 1.524 . S
C940 C939 1.524 . S
C940 C941 1.397 . S
C940 C945 1.363 . S
C941 H912 0.950 . S
C941 C940 1.397 . S
C941 C942 1.334 . S
C942 H913 0.950 . S
C942 C941 1.334 . S
C942 C943 1.287 . S
C943 C942 1.287 . S
C943 C944 1.524 . S
C943 H946 0.999 . S
C944 H914 0.950 . S
C944 C943 1.524 . S
C944 C945 1.415 . S
C945 H915 0.950 . S
C945 C940 1.363 . S
C945 C944 1.415 . S
H946 C943 0.999 . S
H947 C928 0.913 . S
H948 C966 0.951 . S
H949 C968 0.951 . S
H950 C970 0.950 . S
H951 C971 0.950 . S
H952 C973 0.950 . S
H953 C976 0.950 . S
H954 C977 0.950 . S
H955 C979 0.950 . S
H956 C980 0.950 . S
H957 C981 0.951 . S
H958 C983 0.951 . S
H959 C985 0.950 . S
H960 C986 0.950 . S
H961 C988 0.950 . S
H962 C991 0.950 . S
H963 C992 0.950 . S
H964 C994 0.950 . S
H965 C995 0.950 . S
C966 H948 0.951 . S
C966 C967 1.366 . S
C966 C968 1.388 . S
C967 C966 1.366 . S
C967 C971 1.385 . S
C968 H949 0.951 . S
C968 C966 1.388 . S
C968 C969 1.366 . S
C969 C968 1.366 . S
C969 C970 1.414 . S
C969 C972 1.499 . S
C970 H950 0.950 . S
C970 C969 1.414 . S
C970 C971 1.374 . S
C971 H951 0.950 . S
C971 C967 1.385 . S
C971 C970 1.374 . S
C972 C969 1.499 . S
C972 C973 1.373 . S
C972 C974 1.389 . S
C973 H952 0.950 . S
C973 C972 1.373 . S
C973 C989 1.377 . S
C974 C972 1.389 . S
C974 C975 1.524 . S
C974 C988 1.377 . S
C975 C974 1.524 . S
C975 C976 1.397 . S
C975 C980 1.363 . S
C976 H953 0.950 . S
C976 C975 1.397 . S
C976 C977 1.334 . S
C977 H954 0.950 . S
C977 C976 1.334 . S
C977 C978 1.287 . S
C978 C977 1.287 . S
C978 C979 1.524 . S
C978 H997 0.913 . S
C979 H955 0.950 . S
C979 C978 1.524 . S
C979 C980 1.415 . S
C980 H956 0.950 . S
C980 C975 1.363 . S
C980 C979 1.415 . S
C981 H957 0.951 . S
C981 C982 1.366 . S
C981 C983 1.388 . S
C982 C981 1.366 . S
C982 C986 1.385 . S
C983 H958 0.951 . S
C983 C981 1.388 . S
C983 C984 1.366 . S
C984 C983 1.366 . S
C984 C985 1.414 . S
C984 C987 1.499 . S
C985 H959 0.950 . S
C985 C984 1.414 . S
C985 C986 1.374 . S
C986 H960 0.950 . S
C986 C982 1.385 . S
C986 C985 1.374 . S
C987 C984 1.499 . S
C987 C988 1.373 . S
C987 C989 1.389 . S
C988 H961 0.950 . S
C988 C974 1.377 . S
C988 C987 1.373 . S
C989 C973 1.377 . S
C989 C987 1.389 . S
C989 C990 1.524 . S
C990 C989 1.524 . S
C990 C991 1.397 . S
C990 C995 1.363 . S
C991 H962 0.950 . S
C991 C990 1.397 . S
C991 C992 1.334 . S
C992 H963 0.950 . S
C992 C991 1.334 . S
C992 C993 1.287 . S
C993 C992 1.287 . S
C993 C994 1.524 . S
C993 H996 0.999 . S
C994 H964 0.950 . S
C994 C993 1.524 . S
C994 C995 1.415 . S
C995 H965 0.950 . S
C995 C990 1.363 . S
C995 C994 1.415 . S
H996 C993 0.999 . S
H997 C978 0.913 . S
H998 C1016 0.951 . S
H999 C1018 0.951 . S
H1000 C1020 0.950 . S
H1001 C1021 0.950 . S
H1002 C1023 0.950 . S
H1003 C1026 0.950 . S
H1004 C1027 0.950 . S
H1005 C1029 0.950 . S
H1006 C1030 0.950 . S
H1007 C1031 0.951 . S
H1008 C1033 0.951 . S
H1009 C1035 0.950 . S
H1010 C1036 0.950 . S
H1011 C1038 0.950 . S
H1012 C1041 0.950 . S
H1013 C1042 0.950 . S
H1014 C1044 0.950 . S
H1015 C1045 0.950 . S
C1016 H998 0.951 . S
C1016 C1017 1.366 . S
C1016 C1018 1.388 . S
C1017 C1016 1.366 . S
C1017 C1021 1.385 . S
C1018 H999 0.951 . S
C1018 C1016 1.388 . S
C1018 C1019 1.366 . S
C1019 C1018 1.366 . S
C1019 C1020 1.414 . S
C1019 C1022 1.499 . S
C1020 H1000 0.950 . S
C1020 C1019 1.414 . S
C1020 C1021 1.374 . S
C1021 H1001 0.950 . S
C1021 C1017 1.385 . S
C1021 C1020 1.374 . S
C1022 C1019 1.499 . S
C1022 C1023 1.373 . S
C1022 C1024 1.389 . S
C1023 H1002 0.950 . S
C1023 C1022 1.373 . S
C1023 C1039 1.377 . S
C1024 C1022 1.389 . S
C1024 C1025 1.524 . S
C1024 C1038 1.377 . S
C1025 C1024 1.524 . S
C1025 C1026 1.397 . S
C1025 C1030 1.363 . S
C1026 H1003 0.950 . S
C1026 C1025 1.397 . S
C1026 C1027 1.334 . S
C1027 H1004 0.950 . S
C1027 C1026 1.334 . S
C1027 C1028 1.287 . S
C1028 C1027 1.287 . S
C1028 C1029 1.524 . S
C1028 H1047 0.913 . S
C1029 H1005 0.950 . S
C1029 C1028 1.524 . S
C1029 C1030 1.415 . S
C1030 H1006 0.950 . S
C1030 C1025 1.363 . S
C1030 C1029 1.415 . S
C1031 H1007 0.951 . S
C1031 C1032 1.366 . S
C1031 C1033 1.388 . S
C1032 C1031 1.366 . S
C1032 C1036 1.385 . S
C1033 H1008 0.951 . S
C1033 C1031 1.388 . S
C1033 C1034 1.366 . S
C1034 C1033 1.366 . S
C1034 C1035 1.414 . S
C1034 C1037 1.499 . S
C1035 H1009 0.950 . S
C1035 C1034 1.414 . S
C1035 C1036 1.374 . S
C1036 H1010 0.950 . S
C1036 C1032 1.385 . S
C1036 C1035 1.374 . S
C1037 C1034 1.499 . S
C1037 C1038 1.373 . S
C1037 C1039 1.389 . S
C1038 H1011 0.950 . S
C1038 C1024 1.377 . S
C1038 C1037 1.373 . S
C1039 C1023 1.377 . S
C1039 C1037 1.389 . S
C1039 C1040 1.524 . S
C1040 C1039 1.524 . S
C1040 C1041 1.397 . S
C1040 C1045 1.363 . S
C1041 H1012 0.950 . S
C1041 C1040 1.397 . S
C1041 C1042 1.334 . S
C1042 H1013 0.950 . S
C1042 C1041 1.334 . S
C1042 C1043 1.287 . S
C1043 C1042 1.287 . S
C1043 C1044 1.524 . S
C1043 H1046 0.999 . S
C1044 H1014 0.950 . S
C1044 C1043 1.524 . S
C1044 C1045 1.415 . S
C1045 H1015 0.950 . S
C1045 C1040 1.363 . S
C1045 C1044 1.415 . S
H1046 C1043 0.999 . S
H1047 C1028 0.913 . S
H1048 C1066 0.951 . S
H1049 C1068 0.951 . S
H1050 C1070 0.950 . S
H1051 C1071 0.950 . S
H1052 C1073 0.950 . S
H1053 C1076 0.950 . S
H1054 C1077 0.950 . S
H1055 C1079 0.950 . S
H1056 C1080 0.950 . S
H1057 C1081 0.951 . S
H1058 C1083 0.951 . S
H1059 C1085 0.950 . S
H1060 C1086 0.950 . S
H1061 C1088 0.950 . S
H1062 C1091 0.950 . S
H1063 C1092 0.950 . S
H1064 C1094 0.950 . S
H1065 C1095 0.950 . S
C1066 H1048 0.951 . S
C1066 C1067 1.366 . S
C1066 C1068 1.388 . S
C1067 C1066 1.366 . S
C1067 C1071 1.385 . S
C1068 H1049 0.951 . S
C1068 C1066 1.388 . S
C1068 C1069 1.366 . S
C1069 C1068 1.366 . S
C1069 C1070 1.414 . S
C1069 C1072 1.499 . S
C1070 H1050 0.950 . S
C1070 C1069 1.414 . S
C1070 C1071 1.374 . S
C1071 H1051 0.950 . S
C1071 C1067 1.385 . S
C1071 C1070 1.374 . S
C1072 C1069 1.499 . S
C1072 C1073 1.373 . S
C1072 C1074 1.389 . S
C1073 H1052 0.950 . S
C1073 C1072 1.373 . S
C1073 C1089 1.377 . S
C1074 C1072 1.389 . S
C1074 C1075 1.524 . S
C1074 C1088 1.377 . S
C1075 C1074 1.524 . S
C1075 C1076 1.397 . S
C1075 C1080 1.363 . S
C1076 H1053 0.950 . S
C1076 C1075 1.397 . S
C1076 C1077 1.334 . S
C1077 H1054 0.950 . S
C1077 C1076 1.334 . S
C1077 C1078 1.287 . S
C1078 C1077 1.287 . S
C1078 C1079 1.524 . S
C1078 H1097 0.913 . S
C1079 H1055 0.950 . S
C1079 C1078 1.524 . S
C1079 C1080 1.415 . S
C1080 H1056 0.950 . S
C1080 C1075 1.363 . S
C1080 C1079 1.415 . S
C1081 H1057 0.951 . S
C1081 C1082 1.366 . S
C1081 C1083 1.388 . S
C1082 C1081 1.366 . S
C1082 C1086 1.385 . S
C1083 H1058 0.951 . S
C1083 C1081 1.388 . S
C1083 C1084 1.366 . S
C1084 C1083 1.366 . S
C1084 C1085 1.414 . S
C1084 C1087 1.499 . S
C1085 H1059 0.950 . S
C1085 C1084 1.414 . S
C1085 C1086 1.374 . S
C1086 H1060 0.950 . S
C1086 C1082 1.385 . S
C1086 C1085 1.374 . S
C1087 C1084 1.499 . S
C1087 C1088 1.373 . S
C1087 C1089 1.389 . S
C1088 H1061 0.950 . S
C1088 C1074 1.377 . S
C1088 C1087 1.373 . S
C1089 C1073 1.377 . S
C1089 C1087 1.389 . S
C1089 C1090 1.524 . S
C1090 C1089 1.524 . S
C1090 C1091 1.397 . S
C1090 C1095 1.363 . S
C1091 H1062 0.950 . S
C1091 C1090 1.397 . S
C1091 C1092 1.334 . S
C1092 H1063 0.950 . S
C1092 C1091 1.334 . S
C1092 C1093 1.287 . S
C1093 C1092 1.287 . S
C1093 C1094 1.524 . S
C1093 H1096 0.999 . S
C1094 H1064 0.950 . S
C1094 C1093 1.524 . S
C1094 C1095 1.415 . S
C1095 H1065 0.950 . S
C1095 C1090 1.363 . S
C1095 C1094 1.415 . S
H1096 C1093 0.999 . S
H1097 C1078 0.913 . S
H1098 C1116 0.951 . S
H1099 C1118 0.951 . S
H1100 C1120 0.950 . S
H1101 C1121 0.950 . S
H1102 C1123 0.950 . S
H1103 C1126 0.950 . S
H1104 C1127 0.950 . S
H1105 C1129 0.950 . S
H1106 C1130 0.950 . S
H1107 C1131 0.951 . S
H1108 C1133 0.951 . S
H1109 C1135 0.950 . S
H1110 C1136 0.950 . S
H1111 C1138 0.950 . S
H1112 C1141 0.950 . S
H1113 C1142 0.950 . S
H1114 C1144 0.950 . S
H1115 C1145 0.950 . S
C1116 H1098 0.951 . S
C1116 C1117 1.366 . S
C1116 C1118 1.388 . S
C1117 C1116 1.366 . S
C1117 C1121 1.385 . S
C1118 H1099 0.951 . S
C1118 C1116 1.388 . S
C1118 C1119 1.366 . S
C1119 C1118 1.366 . S
C1119 C1120 1.414 . S
C1119 C1122 1.499 . S
C1120 H1100 0.950 . S
C1120 C1119 1.414 . S
C1120 C1121 1.374 . S
C1121 H1101 0.950 . S
C1121 C1117 1.385 . S
C1121 C1120 1.374 . S
C1122 C1119 1.499 . S
C1122 C1123 1.373 . S
C1122 C1124 1.389 . S
C1123 H1102 0.950 . S
C1123 C1122 1.373 . S
C1123 C1139 1.377 . S
C1124 C1122 1.389 . S
C1124 C1125 1.524 . S
C1124 C1138 1.377 . S
C1125 C1124 1.524 . S
C1125 C1126 1.397 . S
C1125 C1130 1.363 . S
C1126 H1103 0.950 . S
C1126 C1125 1.397 . S
C1126 C1127 1.334 . S
C1127 H1104 0.950 . S
C1127 C1126 1.334 . S
C1127 C1128 1.287 . S
C1128 C1127 1.287 . S
C1128 C1129 1.524 . S
C1128 H1147 0.913 . S
C1129 H1105 0.950 . S
C1129 C1128 1.524 . S
C1129 C1130 1.415 . S
C1130 H1106 0.950 . S
C1130 C1125 1.363 . S
C1130 C1129 1.415 . S
C1131 H1107 0.951 . S
C1131 C1132 1.366 . S
C1131 C1133 1.388 . S
C1132 C1131 1.366 . S
C1132 C1136 1.385 . S
C1133 H1108 0.951 . S
C1133 C1131 1.388 . S
C1133 C1134 1.366 . S
C1134 C1133 1.366 . S
C1134 C1135 1.414 . S
C1134 C1137 1.499 . S
C1135 H1109 0.950 . S
C1135 C1134 1.414 . S
C1135 C1136 1.374 . S
C1136 H1110 0.950 . S
C1136 C1132 1.385 . S
C1136 C1135 1.374 . S
C1137 C1134 1.499 . S
C1137 C1138 1.373 . S
C1137 C1139 1.389 . S
C1138 H1111 0.950 . S
C1138 C1124 1.377 . S
C1138 C1137 1.373 . S
C1139 C1123 1.377 . S
C1139 C1137 1.389 . S
C1139 C1140 1.524 . S
C1140 C1139 1.524 . S
C1140 C1141 1.397 . S
C1140 C1145 1.363 . S
C1141 H1112 0.950 . S
C1141 C1140 1.397 . S
C1141 C1142 1.334 . S
C1142 H1113 0.950 . S
C1142 C1141 1.334 . S
C1142 C1143 1.287 . S
C1143 C1142 1.287 . S
C1143 C1144 1.524 . S
C1143 H1146 0.999 . S
C1144 H1114 0.950 . S
C1144 C1143 1.524 . S
C1144 C1145 1.415 . S
C1145 H1115 0.950 . S
C1145 C1140 1.363 . S
C1145 C1144 1.415 . S
H1146 C1143 0.999 . S
H1147 C1128 0.913 . S
H1148 C1166 0.951 . S
H1149 C1168 0.951 . S
H1150 C1170 0.950 . S
H1151 C1171 0.950 . S
H1152 C1173 0.950 . S
H1153 C1176 0.950 . S
H1154 C1177 0.950 . S
H1155 C1179 0.950 . S
H1156 C1180 0.950 . S
H1157 C1181 0.951 . S
H1158 C1183 0.951 . S
H1159 C1185 0.950 . S
H1160 C1186 0.950 . S
H1161 C1188 0.950 . S
H1162 C1191 0.950 . S
H1163 C1192 0.950 . S
H1164 C1194 0.950 . S
H1165 C1195 0.950 . S
C1166 H1148 0.951 . S
C1166 C1167 1.366 . S
C1166 C1168 1.388 . S
C1167 C1166 1.366 . S
C1167 C1171 1.385 . S
C1168 H1149 0.951 . S
C1168 C1166 1.388 . S
C1168 C1169 1.366 . S
C1169 C1168 1.366 . S
C1169 C1170 1.414 . S
C1169 C1172 1.499 . S
C1170 H1150 0.950 . S
C1170 C1169 1.414 . S
C1170 C1171 1.374 . S
C1171 H1151 0.950 . S
C1171 C1167 1.385 . S
C1171 C1170 1.374 . S
C1172 C1169 1.499 . S
C1172 C1173 1.373 . S
C1172 C1174 1.389 . S
C1173 H1152 0.950 . S
C1173 C1172 1.373 . S
C1173 C1189 1.377 . S
C1174 C1172 1.389 . S
C1174 C1175 1.524 . S
C1174 C1188 1.377 . S
C1175 C1174 1.524 . S
C1175 C1176 1.397 . S
C1175 C1180 1.363 . S
C1176 H1153 0.950 . S
C1176 C1175 1.397 . S
C1176 C1177 1.334 . S
C1177 H1154 0.950 . S
C1177 C1176 1.334 . S
C1177 C1178 1.287 . S
C1178 C1177 1.287 . S
C1178 C1179 1.524 . S
C1178 H1197 0.913 . S
C1179 H1155 0.950 . S
C1179 C1178 1.524 . S
C1179 C1180 1.415 . S
C1180 H1156 0.950 . S
C1180 C1175 1.363 . S
C1180 C1179 1.415 . S
C1181 H1157 0.951 . S
C1181 C1182 1.366 . S
C1181 C1183 1.388 . S
C1182 C1181 1.366 . S
C1182 C1186 1.385 . S
C1183 H1158 0.951 . S
C1183 C1181 1.388 . S
C1183 C1184 1.366 . S
C1184 C1183 1.366 . S
C1184 C1185 1.414 . S
C1184 C1187 1.499 . S
C1185 H1159 0.950 . S
C1185 C1184 1.414 . S
C1185 C1186 1.374 . S
C1186 H1160 0.950 . S
C1186 C1182 1.385 . S
C1186 C1185 1.374 . S
C1187 C1184 1.499 . S
C1187 C1188 1.373 . S
C1187 C1189 1.389 . S
C1188 H1161 0.950 . S
C1188 C1174 1.377 . S
C1188 C1187 1.373 . S
C1189 C1173 1.377 . S
C1189 C1187 1.389 . S
C1189 C1190 1.524 . S
C1190 C1189 1.524 . S
C1190 C1191 1.397 . S
C1190 C1195 1.363 . S
C1191 H1162 0.950 . S
C1191 C1190 1.397 . S
C1191 C1192 1.334 . S
C1192 H1163 0.950 . S
C1192 C1191 1.334 . S
C1192 C1193 1.287 . S
C1193 C1192 1.287 . S
C1193 C1194 1.524 . S
C1193 H1196 0.999 . S
C1194 H1164 0.950 . S
C1194 C1193 1.524 . S
C1194 C1195 1.415 . S
C1195 H1165 0.950 . S
C1195 C1190 1.363 . S
C1195 C1194 1.415 . S
H1196 C1193 0.999 . S
H1197 C1178 0.913 . S
H1198 C1216 0.951 . S
H1199 C1218 0.951 . S
H1200 C1220 0.950 . S
H1201 C1221 0.950 . S
H1202 C1223 0.950 . S
H1203 C1226 0.950 . S
H1204 C1227 0.950 . S
H1205 C1229 0.950 . S
H1206 C1230 0.950 . S
H1207 C1231 0.951 . S
H1208 C1233 0.951 . S
H1209 C1235 0.950 . S
H1210 C1236 0.950 . S
H1211 C1238 0.950 . S
H1212 C1241 0.950 . S
H1213 C1242 0.950 . S
H1214 C1244 0.950 . S
H1215 C1245 0.950 . S
C1216 H1198 0.951 . S
C1216 C1217 1.366 . S
C1216 C1218 1.388 . S
C1217 C1216 1.366 . S
C1217 C1221 1.385 . S
C1218 H1199 0.951 . S
C1218 C1216 1.388 . S
C1218 C1219 1.366 . S
C1219 C1218 1.366 . S
C1219 C1220 1.414 . S
C1219 C1222 1.499 . S
C1220 H1200 0.950 . S
C1220 C1219 1.414 . S
C1220 C1221 1.374 . S
C1221 H1201 0.950 . S
C1221 C1217 1.385 . S
C1221 C1220 1.374 . S
C1222 C1219 1.499 . S
C1222 C1223 1.373 . S
C1222 C1224 1.389 . S
C1223 H1202 0.950 . S
C1223 C1222 1.373 . S
C1223 C1239 1.377 . S
C1224 C1222 1.389 . S
C1224 C1225 1.524 . S
C1224 C1238 1.377 . S
C1225 C1224 1.524 . S
C1225 C1226 1.397 . S
C1225 C1230 1.363 . S
C1226 H1203 0.950 . S
C1226 C1225 1.397 . S
C1226 C1227 1.334 . S
C1227 H1204 0.950 . S
C1227 C1226 1.334 . S
C1227 C1228 1.287 . S
C1228 C1227 1.287 . S
C1228 C1229 1.524 . S
C1228 H1247 0.913 . S
C1229 H1205 0.950 . S
C1229 C1228 1.524 . S
C1229 C1230 1.415 . S
C1230 H1206 0.950 . S
C1230 C1225 1.363 . S
C1230 C1229 1.415 . S
C1231 H1207 0.951 . S
C1231 C1232 1.366 . S
C1231 C1233 1.388 . S
C1232 C1231 1.366 . S
C1232 C1236 1.385 . S
C1233 H1208 0.951 . S
C1233 C1231 1.388 . S
C1233 C1234 1.366 . S
C1234 C1233 1.366 . S
C1234 C1235 1.414 . S
C1234 C1237 1.499 . S
C1235 H1209 0.950 . S
C1235 C1234 1.414 . S
C1235 C1236 1.374 . S
C1236 H1210 0.950 . S
C1236 C1232 1.385 . S
C1236 C1235 1.374 . S
C1237 C1234 1.499 . S
C1237 C1238 1.373 . S
C1237 C1239 1.389 . S
C1238 H1211 0.950 . S
C1238 C1224 1.377 . S
C1238 C1237 1.373 . S
C1239 C1223 1.377 . S
C1239 C1237 1.389 . S
C1239 C1240 1.524 . S
C1240 C1239 1.524 . S
C1240 C1241 1.397 . S
C1240 C1245 1.363 . S
C1241 H1212 0.950 . S
C1241 C1240 1.397 . S
C1241 C1242 1.334 . S
C1242 H1213 0.950 . S
C1242 C1241 1.334 . S
C1242 C1243 1.287 . S
C1243 C1242 1.287 . S
C1243 C1244 1.524 . S
C1243 H1246 0.999 . S
C1244 H1214 0.950 . S
C1244 C1243 1.524 . S
C1244 C1245 1.415 . S
C1245 H1215 0.950 . S
C1245 C1240 1.363 . S
C1245 C1244 1.415 . S
H1246 C1243 0.999 . S
H1247 C1228 0.913 . S
H1248 C1266 0.951 . S
H1249 C1268 0.951 . S
H1250 C1270 0.950 . S
H1251 C1271 0.950 . S
H1252 C1273 0.950 . S
H1253 C1276 0.950 . S
H1254 C1277 0.950 . S
H1255 C1279 0.950 . S
H1256 C1280 0.950 . S
H1257 C1281 0.951 . S
H1258 C1283 0.951 . S
H1259 C1285 0.950 . S
H1260 C1286 0.950 . S
H1261 C1288 0.950 . S
H1262 C1291 0.950 . S
H1263 C1292 0.950 . S
H1264 C1294 0.950 . S
H1265 C1295 0.950 . S
C1266 H1248 0.951 . S
C1266 C1267 1.366 . S
C1266 C1268 1.388 . S
C1267 C1266 1.366 . S
C1267 C1271 1.385 . S
C1268 H1249 0.951 . S
C1268 C1266 1.388 . S
C1268 C1269 1.366 . S
C1269 C1268 1.366 . S
C1269 C1270 1.414 . S
C1269 C1272 1.499 . S
C1270 H1250 0.950 . S
C1270 C1269 1.414 . S
C1270 C1271 1.374 . S
C1271 H1251 0.950 . S
C1271 C1267 1.385 . S
C1271 C1270 1.374 . S
C1272 C1269 1.499 . S
C1272 C1273 1.373 . S
C1272 C1274 1.389 . S
C1273 H1252 0.950 . S
C1273 C1272 1.373 . S
C1273 C1289 1.377 . S
C1274 C1272 1.389 . S
C1274 C1275 1.524 . S
C1274 C1288 1.377 . S
C1275 C1274 1.524 . S
C1275 C1276 1.397 . S
C1275 C1280 1.363 . S
C1276 H1253 0.950 . S
C1276 C1275 1.397 . S
C1276 C1277 1.334 . S
C1277 H1254 0.950 . S
C1277 C1276 1.334 . S
C1277 C1278 1.287 . S
C1278 C1277 1.287 . S
C1278 C1279 1.524 . S
C1278 H1297 0.913 . S
C1279 H1255 0.950 . S
C1279 C1278 1.524 . S
C1279 C1280 1.415 . S
C1280 H1256 0.950 . S
C1280 C1275 1.363 . S
C1280 C1279 1.415 . S
C1281 H1257 0.951 . S
C1281 C1282 1.366 . S
C1281 C1283 1.388 . S
C1282 C1281 1.366 . S
C1282 C1286 1.385 . S
C1283 H1258 0.951 . S
C1283 C1281 1.388 . S
C1283 C1284 1.366 . S
C1284 C1283 1.366 . S
C1284 C1285 1.414 . S
C1284 C1287 1.499 . S
C1285 H1259 0.950 . S
C1285 C1284 1.414 . S
C1285 C1286 1.374 . S
C1286 H1260 0.950 . S
C1286 C1282 1.385 . S
C1286 C1285 1.374 . S
C1287 C1284 1.499 . S
C1287 C1288 1.373 . S
C1287 C1289 1.389 . S
C1288 H1261 0.950 . S
C1288 C1274 1.377 . S
C1288 C1287 1.373 . S
C1289 C1273 1.377 . S
C1289 C1287 1.389 . S
C1289 C1290 1.524 . S
C1290 C1289 1.524 . S
C1290 C1291 1.397 . S
C1290 C1295 1.363 . S
C1291 H1262 0.950 . S
C1291 C1290 1.397 . S
C1291 C1292 1.334 . S
C1292 H1263 0.950 . S
C1292 C1291 1.334 . S
C1292 C1293 1.287 . S
C1293 C1292 1.287 . S
C1293 C1294 1.524 . S
C1293 H1296 0.999 . S
C1294 H1264 0.950 . S
C1294 C1293 1.524 . S
C1294 C1295 1.415 . S
C1295 H1265 0.950 . S
C1295 C1290 1.363 . S
C1295 C1294 1.415 . S
H1296 C1293 0.999 . S
H1297 C1278 0.913 . S
H1298 C1316 0.951 . S
H1299 C1318 0.951 . S
H1300 C1320 0.950 . S
H1301 C1321 0.950 . S
H1302 C1323 0.950 . S
H1303 C1326 0.950 . S
H1304 C1327 0.950 . S
H1305 C1329 0.950 . S
H1306 C1330 0.950 . S
H1307 C1331 0.951 . S
H1308 C1333 0.951 . S
H1309 C1335 0.950 . S
H1310 C1336 0.950 . S
H1311 C1338 0.950 . S
H1312 C1341 0.950 . S
H1313 C1342 0.950 . S
H1314 C1344 0.950 . S
H1315 C1345 0.950 . S
C1316 H1298 0.951 . S
C1316 C1317 1.366 . S
C1316 C1318 1.388 . S
C1317 C1316 1.366 . S
C1317 C1321 1.385 . S
C1318 H1299 0.951 . S
C1318 C1316 1.388 . S
C1318 C1319 1.366 . S
C1319 C1318 1.366 . S
C1319 C1320 1.414 . S
C1319 C1322 1.499 . S
C1320 H1300 0.950 . S
C1320 C1319 1.414 . S
C1320 C1321 1.374 . S
C1321 H1301 0.950 . S
C1321 C1317 1.385 . S
C1321 C1320 1.374 . S
C1322 C1319 1.499 . S
C1322 C1323 1.373 . S
C1322 C1324 1.389 . S
C1323 H1302 0.950 . S
C1323 C1322 1.373 . S
C1323 C1339 1.377 . S
C1324 C1322 1.389 . S
C1324 C1325 1.524 . S
C1324 C1338 1.377 . S
C1325 C1324 1.524 . S
C1325 C1326 1.397 . S
C1325 C1330 1.363 . S
C1326 H1303 0.950 . S
C1326 C1325 1.397 . S
C1326 C1327 1.334 . S
C1327 H1304 0.950 . S
C1327 C1326 1.334 . S
C1327 C1328 1.287 . S
C1328 C1327 1.287 . S
C1328 C1329 1.524 . S
C1328 H1347 0.913 . S
C1329 H1305 0.950 . S
C1329 C1328 1.524 . S
C1329 C1330 1.415 . S
C1330 H1306 0.950 . S
C1330 C1325 1.363 . S
C1330 C1329 1.415 . S
C1331 H1307 0.951 . S
C1331 C1332 1.366 . S
C1331 C1333 1.388 . S
C1332 C1331 1.366 . S
C1332 C1336 1.385 . S
C1333 H1308 0.951 . S
C1333 C1331 1.388 . S
C1333 C1334 1.366 . S
C1334 C1333 1.366 . S
C1334 C1335 1.414 . S
C1334 C1337 1.499 . S
C1335 H1309 0.950 . S
C1335 C1334 1.414 . S
C1335 C1336 1.374 . S
C1336 H1310 0.950 . S
C1336 C1332 1.385 . S
C1336 C1335 1.374 . S
C1337 C1334 1.499 . S
C1337 C1338 1.373 . S
C1337 C1339 1.389 . S
C1338 H1311 0.950 . S
C1338 C1324 1.377 . S
C1338 C1337 1.373 . S
C1339 C1323 1.377 . S
C1339 C1337 1.389 . S
C1339 C1340 1.524 . S
C1340 C1339 1.524 . S
C1340 C1341 1.397 . S
C1340 C1345 1.363 . S
C1341 H1312 0.950 . S
C1341 C1340 1.397 . S
C1341 C1342 1.334 1_655 S
C1342 H1313 0.950 . S
C1342 C1341 1.334 1_455 S
C1342 C1343 1.287 . S
C1343 C1342 1.287 . S
C1343 C1344 1.524 . S
C1343 H1346 0.999 . S
C1344 H1314 0.950 . S
C1344 C1343 1.524 . S
C1344 C1345 1.415 1_455 S
C1345 H1315 0.950 . S
C1345 C1340 1.363 . S
C1345 C1344 1.415 1_655 S
H1346 C1343 0.999 . S
H1347 C1328 0.913 . S
H1348 C1366 0.951 . S
H1349 C1368 0.951 . S
H1350 C1370 0.950 . S
H1351 C1371 0.950 . S
H1352 C1373 0.950 . S
H1353 C1376 0.950 . S
H1354 C1377 0.950 . S
H1355 C1379 0.950 . S
H1356 C1380 0.950 . S
H1357 C1381 0.942 1_556 S
H1358 C1383 0.951 . S
H1359 C1385 0.950 . S
H1360 C1386 0.950 . S
H1361 C1388 0.950 . S
H1362 C1391 0.950 . S
H1363 C1392 0.950 . S
H1364 C1394 0.950 . S
H1365 C1395 0.950 . S
C1366 H1348 0.951 . S
C1366 C1367 1.366 . S
C1366 C1368 1.388 . S
C1367 C1366 1.366 . S
C1367 C1371 1.385 . S
C1368 H1349 0.951 . S
C1368 C1366 1.388 . S
C1368 C1369 1.366 . S
C1369 C1368 1.366 . S
C1369 C1370 1.414 . S
C1369 C1372 1.499 . S
C1370 H1350 0.950 . S
C1370 C1369 1.414 . S
C1370 C1371 1.374 . S
C1371 H1351 0.950 . S
C1371 C1367 1.385 . S
C1371 C1370 1.374 . S
C1372 C1369 1.499 . S
C1372 C1373 1.373 . S
C1372 C1374 1.389 . S
C1373 H1352 0.950 . S
C1373 C1372 1.373 . S
C1373 C1389 1.377 . S
C1374 C1372 1.389 . S
C1374 C1375 1.524 . S
C1374 C1388 1.377 . S
C1375 C1374 1.524 . S
C1375 C1376 1.397 . S
C1375 C1380 1.363 . S
C1376 H1353 0.950 . S
C1376 C1375 1.397 . S
C1376 C1377 1.334 . S
C1377 H1354 0.950 . S
C1377 C1376 1.334 . S
C1377 C1378 1.287 . S
C1378 C1377 1.287 . S
C1378 C1379 1.524 . S
C1378 H1397 0.913 . S
C1379 H1355 0.950 . S
C1379 C1378 1.524 . S
C1379 C1380 1.415 . S
C1380 H1356 0.950 . S
C1380 C1375 1.363 . S
C1380 C1379 1.415 . S
C1381 H1357 0.942 1_554 S
C1381 C1382 1.366 . S
C1381 C1383 1.388 . S
C1382 C1381 1.366 . S
C1382 C1386 1.385 . S
C1383 H1358 0.951 . S
C1383 C1381 1.388 . S
C1383 C1384 1.366 . S
C1384 C1383 1.366 . S
C1384 C1385 1.414 . S
C1384 C1387 1.499 . S
C1385 H1359 0.950 . S
C1385 C1384 1.414 . S
C1385 C1386 1.374 . S
C1386 H1360 0.950 . S
C1386 C1382 1.385 . S
C1386 C1385 1.374 . S
C1387 C1384 1.499 . S
C1387 C1388 1.373 . S
C1387 C1389 1.389 . S
C1388 H1361 0.950 . S
C1388 C1374 1.377 . S
C1388 C1387 1.373 . S
C1389 C1373 1.377 . S
C1389 C1387 1.389 . S
C1389 C1390 1.524 . S
C1390 C1389 1.524 . S
C1390 C1391 1.397 . S
C1390 C1395 1.363 . S
C1391 H1362 0.950 . S
C1391 C1390 1.397 . S
C1391 C1392 1.334 1_554 S
C1392 H1363 0.950 . S
C1392 C1391 1.334 1_556 S
C1392 C1393 1.287 . S
C1393 C1392 1.287 . S
C1393 C1394 1.524 . S
C1393 H1396 0.999 . S
C1394 H1364 0.950 . S
C1394 C1393 1.524 . S
C1394 C1395 1.415 1_556 S
C1395 H1365 0.950 . S
C1395 C1390 1.363 . S
C1395 C1394 1.415 1_554 S
H1396 C1393 0.999 . S
H1397 C1378 0.913 . S
H1398 C1416 0.951 . S
H1399 C1418 0.951 . S
H1400 C1420 0.950 . S
H1401 C1421 0.950 . S
H1402 C1423 0.950 . S
H1403 C1426 0.950 . S
H1404 C1427 0.950 . S
H1405 C1429 0.950 . S
H1406 C1430 0.950 . S
H1407 C1431 0.951 . S
H1408 C1433 0.951 . S
H1409 C1435 0.950 . S
H1410 C1436 0.950 . S
H1411 C1438 0.950 . S
H1412 C1441 0.950 . S
H1413 C1442 0.950 . S
H1414 C1444 0.950 . S
H1415 C1445 0.950 . S
C1416 H1398 0.951 . S
C1416 C1417 1.366 . S
C1416 C1418 1.388 . S
C1417 C1416 1.366 . S
C1417 C1421 1.385 . S
C1418 H1399 0.951 . S
C1418 C1416 1.388 . S
C1418 C1419 1.366 . S
C1419 C1418 1.366 . S
C1419 C1420 1.414 . S
C1419 C1422 1.499 . S
C1420 H1400 0.950 . S
C1420 C1419 1.414 . S
C1420 C1421 1.374 . S
C1421 H1401 0.950 . S
C1421 C1417 1.385 . S
C1421 C1420 1.374 . S
C1422 C1419 1.499 . S
C1422 C1423 1.373 . S
C1422 C1424 1.389 . S
C1423 H1402 0.950 . S
C1423 C1422 1.373 . S
C1423 C1439 1.377 . S
C1424 C1422 1.389 . S
C1424 C1425 1.524 . S
C1424 C1438 1.377 . S
C1425 C1424 1.524 . S
C1425 C1426 1.397 . S
C1425 C1430 1.363 . S
C1426 H1403 0.950 . S
C1426 C1425 1.397 . S
C1426 C1427 1.334 . S
C1427 H1404 0.950 . S
C1427 C1426 1.334 . S
C1427 C1428 1.287 . S
C1428 C1427 1.287 . S
C1428 C1429 1.524 . S
C1428 H1447 0.913 . S
C1429 H1405 0.950 . S
C1429 C1428 1.524 . S
C1429 C1430 1.415 . S
C1430 H1406 0.950 . S
C1430 C1425 1.363 . S
C1430 C1429 1.415 . S
C1431 H1407 0.951 . S
C1431 C1432 1.366 . S
C1431 C1433 1.388 . S
C1432 C1431 1.366 . S
C1432 C1436 1.385 . S
C1433 H1408 0.951 . S
C1433 C1431 1.388 . S
C1433 C1434 1.366 . S
C1434 C1433 1.366 . S
C1434 C1435 1.414 . S
C1434 C1437 1.499 . S
C1435 H1409 0.950 . S
C1435 C1434 1.414 . S
C1435 C1436 1.374 . S
C1436 H1410 0.950 . S
C1436 C1432 1.385 . S
C1436 C1435 1.374 . S
C1437 C1434 1.499 . S
C1437 C1438 1.373 . S
C1437 C1439 1.389 . S
C1438 H1411 0.950 . S
C1438 C1424 1.377 . S
C1438 C1437 1.373 . S
C1439 C1423 1.377 . S
C1439 C1437 1.389 . S
C1439 C1440 1.524 . S
C1440 C1439 1.524 . S
C1440 C1441 1.397 . S
C1440 C1445 1.363 . S
C1441 H1412 0.950 . S
C1441 C1440 1.397 . S
C1441 C1442 1.334 . S
C1442 H1413 0.950 . S
C1442 C1441 1.334 . S
C1442 C1443 1.287 . S
C1443 C1442 1.287 . S
C1443 C1444 1.524 . S
C1443 H1446 0.999 . S
C1444 H1414 0.950 . S
C1444 C1443 1.524 . S
C1444 C1445 1.415 . S
C1445 H1415 0.950 . S
C1445 C1440 1.363 . S
C1445 C1444 1.415 . S
H1446 C1443 0.999 . S
H1447 C1428 0.913 . S
H1448 C1466 0.951 . S
H1449 C1468 0.951 . S
H1450 C1470 0.950 . S
H1451 C1471 0.950 . S
H1452 C1473 0.950 . S
H1453 C1476 0.950 . S
H1454 C1477 0.950 . S
H1455 C1479 0.950 . S
H1456 C1480 0.950 . S
H1457 C1481 0.951 . S
H1458 C1483 0.951 . S
H1459 C1485 0.950 . S
H1460 C1486 0.950 . S
H1461 C1488 0.950 . S
H1462 C1491 0.950 . S
H1463 C1492 0.950 . S
H1464 C1494 0.950 1_554 S
H1465 C1495 0.950 . S
C1466 H1448 0.951 . S
C1466 C1467 1.366 . S
C1466 C1468 1.388 . S
C1467 C1466 1.366 . S
C1467 C1471 1.385 . S
C1468 H1449 0.951 . S
C1468 C1466 1.388 . S
C1468 C1469 1.366 . S
C1469 C1468 1.366 . S
C1469 C1470 1.414 . S
C1469 C1472 1.499 . S
C1470 H1450 0.950 . S
C1470 C1469 1.414 . S
C1470 C1471 1.374 . S
C1471 H1451 0.950 . S
C1471 C1467 1.385 . S
C1471 C1470 1.374 . S
C1472 C1469 1.499 . S
C1472 C1473 1.373 . S
C1472 C1474 1.389 . S
C1473 H1452 0.950 . S
C1473 C1472 1.373 . S
C1473 C1489 1.377 . S
C1474 C1472 1.389 . S
C1474 C1475 1.524 . S
C1474 C1488 1.377 . S
C1475 C1474 1.524 . S
C1475 C1476 1.397 . S
C1475 C1480 1.363 . S
C1476 H1453 0.950 . S
C1476 C1475 1.397 . S
C1476 C1477 1.334 . S
C1477 H1454 0.950 . S
C1477 C1476 1.334 . S
C1477 C1478 1.287 . S
C1478 C1477 1.287 . S
C1478 C1479 1.524 . S
C1478 H1497 0.913 . S
C1479 H1455 0.950 . S
C1479 C1478 1.524 . S
C1479 C1480 1.415 . S
C1480 H1456 0.950 . S
C1480 C1475 1.363 . S
C1480 C1479 1.415 . S
C1481 H1457 0.951 . S
C1481 C1482 1.366 . S
C1481 C1483 1.388 . S
C1482 C1481 1.366 . S
C1482 C1486 1.385 . S
C1483 H1458 0.951 . S
C1483 C1481 1.388 . S
C1483 C1484 1.366 . S
C1484 C1483 1.366 . S
C1484 C1485 1.414 . S
C1484 C1487 1.499 . S
C1485 H1459 0.950 . S
C1485 C1484 1.414 . S
C1485 C1486 1.374 . S
C1486 H1460 0.950 . S
C1486 C1482 1.385 . S
C1486 C1485 1.374 . S
C1487 C1484 1.499 . S
C1487 C1488 1.373 . S
C1487 C1489 1.389 . S
C1488 H1461 0.950 . S
C1488 C1474 1.377 . S
C1488 C1487 1.373 . S
C1489 C1473 1.377 . S
C1489 C1487 1.389 . S
C1489 C1490 1.524 . S
C1490 C1489 1.524 . S
C1490 C1491 1.397 . S
C1490 C1495 1.363 . S
C1491 H1462 0.950 . S
C1491 C1490 1.397 . S
C1491 C1492 1.334 . S
C1492 H1463 0.950 . S
C1492 C1491 1.334 . S
C1492 C1493 1.287 . S
C1493 C1492 1.287 . S
C1493 C1494 1.524 . S
C1493 H1496 0.999 1_556 S
C1494 H1464 0.950 1_556 S
C1494 C1493 1.524 . S
C1494 C1495 1.415 . S
C1495 H1465 0.950 . S
C1495 C1490 1.363 . S
C1495 C1494 1.415 . S
H1496 C1493 0.999 1_554 S
H1497 C1478 0.913 . S
H1498 C1516 0.951 . S
H1499 C1518 0.951 . S
H1500 C1520 0.950 . S
H1501 C1521 0.950 . S
H1502 C1523 0.950 . S
H1503 C1526 0.950 . S
H1504 C1527 0.950 . S
H1505 C1529 0.950 . S
H1506 C1530 0.950 . S
H1507 C1531 0.951 . S
H1508 C1533 0.951 . S
H1509 C1535 0.950 . S
H1510 C1536 0.950 . S
H1511 C1538 0.950 . S
H1512 C1541 0.950 . S
H1513 C1542 0.950 . S
H1514 C1544 0.950 . S
H1515 C1545 0.950 . S
C1516 H1498 0.951 . S
C1516 C1517 1.366 . S
C1516 C1518 1.388 . S
C1517 C1516 1.366 . S
C1517 C1521 1.385 . S
C1518 H1499 0.951 . S
C1518 C1516 1.388 . S
C1518 C1519 1.366 . S
C1519 C1518 1.366 . S
C1519 C1520 1.414 . S
C1519 C1522 1.499 . S
C1520 H1500 0.950 . S
C1520 C1519 1.414 . S
C1520 C1521 1.374 . S
C1521 H1501 0.950 . S
C1521 C1517 1.385 . S
C1521 C1520 1.374 . S
C1522 C1519 1.499 . S
C1522 C1523 1.373 . S
C1522 C1524 1.389 . S
C1523 H1502 0.950 . S
C1523 C1522 1.373 . S
C1523 C1539 1.377 . S
C1524 C1522 1.389 . S
C1524 C1525 1.524 . S
C1524 C1538 1.377 . S
C1525 C1524 1.524 . S
C1525 C1526 1.397 . S
C1525 C1530 1.363 . S
C1526 H1503 0.950 . S
C1526 C1525 1.397 . S
C1526 C1527 1.334 . S
C1527 H1504 0.950 . S
C1527 C1526 1.334 . S
C1527 C1528 1.287 . S
C1528 C1527 1.287 . S
C1528 C1529 1.524 1_554 S
C1528 H1547 0.913 1_554 S
C1529 H1505 0.950 . S
C1529 C1528 1.524 1_556 S
C1529 C1530 1.415 1_556 S
C1530 H1506 0.950 . S
C1530 C1525 1.363 . S
C1530 C1529 1.415 1_554 S
C1531 H1507 0.951 . S
C1531 C1532 1.366 . S
C1531 C1533 1.388 . S
C1532 C1531 1.366 . S
C1532 C1536 1.385 . S
C1533 H1508 0.951 . S
C1533 C1531 1.388 . S
C1533 C1534 1.366 . S
C1534 C1533 1.366 . S
C1534 C1535 1.414 . S
C1534 C1537 1.499 . S
C1535 H1509 0.950 . S
C1535 C1534 1.414 . S
C1535 C1536 1.374 . S
C1536 H1510 0.950 . S
C1536 C1532 1.385 . S
C1536 C1535 1.374 . S
C1537 C1534 1.499 . S
C1537 C1538 1.373 . S
C1537 C1539 1.389 . S
C1538 H1511 0.950 . S
C1538 C1524 1.377 . S
C1538 C1537 1.373 . S
C1539 C1523 1.377 . S
C1539 C1537 1.389 . S
C1539 C1540 1.524 . S
C1540 C1539 1.524 . S
C1540 C1541 1.397 . S
C1540 C1545 1.363 . S
C1541 H1512 0.950 . S
C1541 C1540 1.397 . S
C1541 C1542 1.334 . S
C1542 H1513 0.950 . S
C1542 C1541 1.334 . S
C1542 C1543 1.287 . S
C1543 C1542 1.287 . S
C1543 C1544 1.524 . S
C1543 H1546 0.999 . S
C1544 H1514 0.950 . S
C1544 C1543 1.524 . S
C1544 C1545 1.415 . S
C1545 H1515 0.950 . S
C1545 C1540 1.363 . S
C1545 C1544 1.415 . S
H1546 C1543 0.999 . S
H1547 C1528 0.913 1_556 S
H1548 C1566 0.951 . S
H1549 C1568 0.951 . S
H1550 C1570 0.950 . S
H1551 C1571 0.950 . S
H1552 C1573 0.950 . S
H1553 C1576 0.950 . S
H1554 C1577 0.950 . S
H1555 C1579 0.963 . S
H1556 C1580 0.950 . S
H1557 C1581 0.951 . S
H1558 C1583 0.951 . S
H1559 C1585 0.950 . S
H1560 C1586 0.950 . S
H1561 C1588 0.950 . S
H1562 C1591 0.950 . S
H1563 C1592 0.950 . S
H1564 C1594 0.950 . S
H1565 C1595 0.950 . S
C1566 H1548 0.951 . S
C1566 C1567 1.366 . S
C1566 C1568 1.388 . S
C1567 C1566 1.366 . S
C1567 C1571 1.385 . S
C1568 H1549 0.951 . S
C1568 C1566 1.388 . S
C1568 C1569 1.366 . S
C1569 C1568 1.366 . S
C1569 C1570 1.414 . S
C1569 C1572 1.499 . S
C1570 H1550 0.950 . S
C1570 C1569 1.414 . S
C1570 C1571 1.374 . S
C1571 H1551 0.950 . S
C1571 C1567 1.385 . S
C1571 C1570 1.374 . S
C1572 C1569 1.499 . S
C1572 C1573 1.373 . S
C1572 C1574 1.389 . S
C1573 H1552 0.950 . S
C1573 C1572 1.373 . S
C1573 C1589 1.377 . S
C1574 C1572 1.389 . S
C1574 C1575 1.524 . S
C1574 C1588 1.377 . S
C1575 C1574 1.524 . S
C1575 C1576 1.397 . S
C1575 C1580 1.363 . S
C1576 H1553 0.950 . S
C1576 C1575 1.397 . S
C1576 C1577 1.334 . S
C1577 H1554 0.950 . S
C1577 C1576 1.334 . S
C1577 C1578 1.287 1_455 S
C1578 C1577 1.287 1_655 S
C1578 C1579 1.527 . S
C1578 H1597 0.913 . S
C1579 H1555 0.963 . S
C1579 C1578 1.527 . S
C1579 C1580 1.397 1_655 S
C1580 H1556 0.950 . S
C1580 C1575 1.363 . S
C1580 C1579 1.397 1_455 S
C1581 H1557 0.951 . S
C1581 C1582 1.366 . S
C1581 C1583 1.388 . S
C1582 C1581 1.366 . S
C1582 C1586 1.385 . S
C1583 H1558 0.951 . S
C1583 C1581 1.388 . S
C1583 C1584 1.366 . S
C1584 C1583 1.366 . S
C1584 C1585 1.414 . S
C1584 C1587 1.499 . S
C1585 H1559 0.950 . S
C1585 C1584 1.414 . S
C1585 C1586 1.374 . S
C1586 H1560 0.950 . S
C1586 C1582 1.385 . S
C1586 C1585 1.374 . S
C1587 C1584 1.499 . S
C1587 C1588 1.373 . S
C1587 C1589 1.389 . S
C1588 H1561 0.950 . S
C1588 C1574 1.377 . S
C1588 C1587 1.373 . S
C1589 C1573 1.377 . S
C1589 C1587 1.389 . S
C1589 C1590 1.524 . S
C1590 C1589 1.524 . S
C1590 C1591 1.397 . S
C1590 C1595 1.363 . S
C1591 H1562 0.950 . S
C1591 C1590 1.397 . S
C1591 C1592 1.334 . S
C1592 H1563 0.950 . S
C1592 C1591 1.334 . S
C1592 C1593 1.287 . S
C1593 C1592 1.287 . S
C1593 C1594 1.524 . S
C1593 H1596 0.999 . S
C1594 H1564 0.950 . S
C1594 C1593 1.524 . S
C1594 C1595 1.415 . S
C1595 H1565 0.950 . S
C1595 C1590 1.363 . S
C1595 C1594 1.415 . S
H1596 C1593 0.999 . S
H1597 C1578 0.913 . S
H1598 C1616 0.951 . S
H1599 C1618 0.951 . S
H1600 C1620 0.950 . S
H1601 C1621 0.950 . S
H1602 C1623 0.950 . S
H1603 C1626 0.950 . S
H1604 C1627 0.950 . S
H1605 C1629 0.950 . S
H1606 C1630 0.950 . S
H1607 C1631 0.951 . S
H1608 C1633 0.951 . S
H1609 C1635 0.950 . S
H1610 C1636 0.950 . S
H1611 C1638 0.950 . S
H1612 C1641 0.950 . S
H1613 C1642 0.950 . S
H1614 C1644 0.950 . S
H1615 C1645 0.950 . S
C1616 H1598 0.951 . S
C1616 C1617 1.366 . S
C1616 C1618 1.388 . S
C1617 C1616 1.366 . S
C1617 C1621 1.385 . S
C1618 H1599 0.951 . S
C1618 C1616 1.388 . S
C1618 C1619 1.366 . S
C1619 C1618 1.366 . S
C1619 C1620 1.414 . S
C1619 C1622 1.499 . S
C1620 H1600 0.950 . S
C1620 C1619 1.414 . S
C1620 C1621 1.374 . S
C1621 H1601 0.950 . S
C1621 C1617 1.385 . S
C1621 C1620 1.374 . S
C1622 C1619 1.499 . S
C1622 C1623 1.373 . S
C1622 C1624 1.389 . S
C1623 H1602 0.950 . S
C1623 C1622 1.373 . S
C1623 C1639 1.377 . S
C1624 C1622 1.389 . S
C1624 C1625 1.524 . S
C1624 C1638 1.377 . S
C1625 C1624 1.524 . S
C1625 C1626 1.397 . S
C1625 C1630 1.363 . S
C1626 H1603 0.950 . S
C1626 C1625 1.397 . S
C1626 C1627 1.334 . S
C1627 H1604 0.950 . S
C1627 C1626 1.334 . S
C1627 C1628 1.287 . S
C1628 C1627 1.287 . S
C1628 C1629 1.524 . S
C1628 H1647 0.913 . S
C1629 H1605 0.950 . S
C1629 C1628 1.524 . S
C1629 C1630 1.415 . S
C1630 H1606 0.950 . S
C1630 C1625 1.363 . S
C1630 C1629 1.415 . S
C1631 H1607 0.951 . S
C1631 C1632 1.366 . S
C1631 C1633 1.388 . S
C1632 C1631 1.366 . S
C1632 C1636 1.385 . S
C1633 H1608 0.951 . S
C1633 C1631 1.388 . S
C1633 C1634 1.366 . S
C1634 C1633 1.366 . S
C1634 C1635 1.414 . S
C1634 C1637 1.499 . S
C1635 H1609 0.950 . S
C1635 C1634 1.414 . S
C1635 C1636 1.374 . S
C1636 H1610 0.950 . S
C1636 C1632 1.385 . S
C1636 C1635 1.374 . S
C1637 C1634 1.499 . S
C1637 C1638 1.373 . S
C1637 C1639 1.389 . S
C1638 H1611 0.950 . S
C1638 C1624 1.377 . S
C1638 C1637 1.373 . S
C1639 C1623 1.377 . S
C1639 C1637 1.389 . S
C1639 C1640 1.524 . S
C1640 C1639 1.524 . S
C1640 C1641 1.397 . S
C1640 C1645 1.363 . S
C1641 H1612 0.950 . S
C1641 C1640 1.397 . S
C1641 C1642 1.334 . S
C1642 H1613 0.950 . S
C1642 C1641 1.334 . S
C1642 C1643 1.287 . S
C1643 C1642 1.287 . S
C1643 C1644 1.524 . S
C1643 H1646 0.999 . S
C1644 H1614 0.950 . S
C1644 C1643 1.524 . S
C1644 C1645 1.415 . S
C1645 H1615 0.950 . S
C1645 C1640 1.363 . S
C1645 C1644 1.415 . S
H1646 C1643 0.999 . S
H1647 C1628 0.913 . S
C467 C1 0.848 . S
C482 C292 0.848 . S
C517 C67 1.229 . S
C532 C353 1.243 . S
C582 C391 2.475 . S
C567 C97 2.524 . S
C617 C133 2.293 . S
C632 C431 2.244 . S
C682 C351 1.236 . S
C667 C25 1.248 . S
C732 C319 2.129 . S
C717 C37 2.088 . S
C782 C428 1.677 . S
C767 C103 1.674 . S
C832 C388 1.790 . S
C817 C109 1.804 . S
C867 C31 0.980 . S
C882 C433 0.987 . S
C932 C348 2.384 . S
C917 C73 2.374 . S
C967 C139 2.152 . S
C982 C290 2.118 . S
C1017 C61 1.491 . S
C1032 C393 1.517 . S
C1082 C313 0.849 . S
C1067 C175 0.842 . S
C1117 C181 1.204 . S
C1132 C332 1.227 . S
C1167 C247 2.567 . S
C1182 C370 2.498 . S
C1217 C277 2.281 . S
C1232 C410 2.233 . S
C1267 C145 1.210 . S
C1282 C330 1.221 . S
C1332 C308 2.134 . S
C1317 C211 2.094 . S
C1382 C439 1.662 . S
C1367 C217 1.667 . S
C1432 C399 1.812 . S
C1417 C283 1.822 . S
C1467 C169 0.958 . S
C1482 C412 0.980 . S
C1532 C359 2.393 . S
C1517 C241 2.396 . S
C1582 C311 2.102 . S
C1567 C253 2.139 . S
C1617 C205 1.512 . S
C1632 C372 1.524 . S
