# Generated by pormake.
# Topology pto, (3,4)-cn, num edge types: 1
# Building blocks:
#     Node 0, Type 0, BuildingBlock: BETDAH_clean_linker_0, # of connection points: 3
#     Node 1, Type 0, BuildingBlock: BETDAH_clean_linker_0, # of connection points: 3
#     Node 2, Type 0, BuildingBlock: BETDAH_clean_linker_0, # of connection points: 3
#     Node 3, Type 0, BuildingBlock: BETDAH_clean_linker_0, # of connection points: 3
#     Node 4, Type 0, BuildingBlock: BETDAH_clean_linker_0, # of connection points: 3
#     Node 5, Type 0, BuildingBlock: BETDAH_clean_linker_0, # of connection points: 3
#     Node 6, Type 0, BuildingBlock: BETDAH_clean_linker_0, # of connection points: 3
#     Node 7, Type 0, BuildingBlock: BETDAH_clean_linker_0, # of connection points: 3
#     Node 8, Type 1, BuildingBlock: NAWXER_clean_sbu_0, # of connection points: 4
#     Node 9, Type 1, BuildingBlock: NAWXER_clean_sbu_0, # of connection points: 4
#     Node 10, Type 1, BuildingBlock: NAWXER_clean_sbu_0, # of connection points: 4
#     Node 11, Type 1, BuildingBlock: NAWXER_clean_sbu_0, # of connection points: 4
#     Node 12, Type 1, BuildingBlock: NAWXER_clean_sbu_0, # of connection points: 4
#     Node 13, Type 1, BuildingBlock: NAWXER_clean_sbu_0, # of connection points: 4
#     Edge 14, Type (0, 1), BuildingBlock: XUDNAN_clean_linker_2, # of connection points: 2
#     Edge 15, Type (0, 1), BuildingBlock: XUDNAN_clean_linker_2, # of connection points: 2
#     Edge 16, Type (0, 1), BuildingBlock: XUDNAN_clean_linker_2, # of connection points: 2
#     Edge 17, Type (0, 1), BuildingBlock: XUDNAN_clean_linker_2, # of connection points: 2
#     Edge 18, Type (0, 1), BuildingBlock: XUDNAN_clean_linker_2, # of connection points: 2
#     Edge 19, Type (0, 1), BuildingBlock: XUDNAN_clean_linker_2, # of connection points: 2
#     Edge 20, Type (0, 1), BuildingBlock: XUDNAN_clean_linker_2, # of connection points: 2
#     Edge 21, Type (0, 1), BuildingBlock: XUDNAN_clean_linker_2, # of connection points: 2
#     Edge 22, Type (0, 1), BuildingBlock: XUDNAN_clean_linker_2, # of connection points: 2
#     Edge 23, Type (0, 1), BuildingBlock: XUDNAN_clean_linker_2, # of connection points: 2
#     Edge 24, Type (0, 1), BuildingBlock: XUDNAN_clean_linker_2, # of connection points: 2
#     Edge 25, Type (0, 1), BuildingBlock: XUDNAN_clean_linker_2, # of connection points: 2
#     Edge 26, Type (0, 1), BuildingBlock: XUDNAN_clean_linker_2, # of connection points: 2
#     Edge 27, Type (0, 1), BuildingBlock: XUDNAN_clean_linker_2, # of connection points: 2
#     Edge 28, Type (0, 1), BuildingBlock: XUDNAN_clean_linker_2, # of connection points: 2
#     Edge 29, Type (0, 1), BuildingBlock: XUDNAN_clean_linker_2, # of connection points: 2
#     Edge 30, Type (0, 1), BuildingBlock: XUDNAN_clean_linker_2, # of connection points: 2
#     Edge 31, Type (0, 1), BuildingBlock: XUDNAN_clean_linker_2, # of connection points: 2
#     Edge 32, Type (0, 1), BuildingBlock: XUDNAN_clean_linker_2, # of connection points: 2
#     Edge 33, Type (0, 1), BuildingBlock: XUDNAN_clean_linker_2, # of connection points: 2
#     Edge 34, Type (0, 1), BuildingBlock: XUDNAN_clean_linker_2, # of connection points: 2
#     Edge 35, Type (0, 1), BuildingBlock: XUDNAN_clean_linker_2, # of connection points: 2
#     Edge 36, Type (0, 1), BuildingBlock: XUDNAN_clean_linker_2, # of connection points: 2
#     Edge 37, Type (0, 1), BuildingBlock: XUDNAN_clean_linker_2, # of connection points: 2
# Relax obj value: 0.010
# Max RMSD: 0.137
# Mean RMSD: 0.057
data_MOF--net-pto--node1-NAWXER_clean_sbu_0--node2-BETDAH_clean_linker_0--edge1-XUDNAN_clean_linker_2
_symmetry_space_group_name_H-M    P1
_symmetry_Int_Tables_number       1
_symmetry_cell_setting            triclinic
loop_
_symmetry_equiv_pos_as_xyz
'x, y, z'
_cell_length_a     42.623146
_cell_length_b     39.166483
_cell_length_c     37.729807
_cell_angle_alpha  108.88084
_cell_angle_beta   95.591287
_cell_angle_gamma 99.328404
loop_
_atom_site_label
_atom_site_type_symbol
_atom_site_fract_x
_atom_site_fract_y
_atom_site_fract_z
_atom_type_partial_charge
H0 H 0.33813 0.22007 0.40937 0.0
H1 H 0.3133 0.27379 0.33081 0.0
H2 H 0.24003 0.23152 0.3843 0.0
C3 C 0.32037 0.23013 0.39512 0.0
C4 C 0.28775 0.2228 0.39993 0.0
C5 C 0.33013 0.24946 0.37104 0.0
C6 C 0.30672 0.26062 0.35102 0.0
C7 C 0.27456 0.25461 0.35601 0.0
C8 C 0.26512 0.23628 0.3809 0.0
N9 N 0.25208 0.26494 0.33322 0.0
C10 C 0.22553 0.27893 0.34522 0.0
H11 H 0.28886 0.71175 0.86863 0.0
H12 H 0.35908 0.78307 0.83632 0.0
H13 H 0.25924 0.79099 0.82274 0.0
C14 C 0.29476 0.73304 0.85637 0.0
C15 C 0.27031 0.74957 0.84574 0.0
C16 C 0.32689 0.74499 0.8534 0.0
C17 C 0.33434 0.77357 0.83888 0.0
C18 C 0.31017 0.78977 0.82691 0.0
C19 C 0.27799 0.77802 0.8308 0.0
N20 N 0.31982 0.81845 0.81237 0.0
C21 C 0.30008 0.83312 0.79204 0.0
H22 H 0.86507 0.73541 0.39405 0.0
H23 H 0.76694 0.70989 0.33845 0.0
H24 H 0.82248 0.62516 0.31874 0.0
C25 C 0.84483 0.71554 0.37478 0.0
C26 C 0.84782 0.67884 0.35727 0.0
C27 C 0.8157 0.72688 0.36883 0.0
C28 C 0.78945 0.7014 0.34329 0.0
C29 C 0.7924 0.66485 0.32447 0.0
C30 C 0.82123 0.65378 0.33215 0.0
N31 N 0.76674 0.63782 0.29864 0.0
C32 C 0.73943 0.64476 0.28115 0.0
H33 H 0.85418 0.29974 0.91239 0.0
H34 H 0.76331 0.24455 0.92703 0.0
H35 H 0.79893 0.35954 0.99151 0.0
C36 C 0.83304 0.30034 0.92621 0.0
C37 C 0.82947 0.33369 0.95287 0.0
C38 C 0.80943 0.26794 0.91655 0.0
C39 C 0.78189 0.26921 0.93411 0.0
C40 C 0.77823 0.30177 0.9616 0.0
C41 C 0.80218 0.33405 0.97121 0.0
N42 N 0.74936 0.301 0.97745 0.0
C43 C 0.74469 0.32574 0.0115 0.0
H44 H 0.79774 0.6641 0.87531 0.0
H45 H 0.8071 0.6714 0.76544 0.0
H46 H 0.73225 0.71358 0.82263 0.0
C47 C 0.78986 0.67292 0.85213 0.0
C48 C 0.76283 0.68973 0.85327 0.0
C49 C 0.80587 0.66575 0.82042 0.0
C50 C 0.79519 0.67663 0.7902 0.0
C51 C 0.76948 0.69475 0.79148 0.0
C52 C 0.75334 0.70148 0.82301 0.0
N53 N 0.75869 0.70284 0.759 0.0
C54 C 0.74903 0.73533 0.76037 0.0
H55 H 0.80662 0.32107 0.40514 0.0
H56 H 0.83788 0.321 0.51706 0.0
H57 H 0.75168 0.24664 0.45001 0.0
C58 C 0.8034 0.30997 0.42768 0.0
C59 C 0.77642 0.28186 0.42312 0.0
C60 C 0.82573 0.32459 0.46156 0.0
C61 C 0.82091 0.31047 0.4908 0.0
C62 C 0.7948 0.28209 0.48651 0.0
C63 C 0.77263 0.26758 0.45259 0.0
N64 N 0.7909 0.27017 0.51776 0.0
C65 C 0.77516 0.23521 0.51474 0.0
H66 H 0.34555 0.27605 0.93704 0.0
H67 H 0.33191 0.37802 0.01544 0.0
H68 H 0.26928 0.32708 0.90817 0.0
C69 C 0.33228 0.29807 0.94437 0.0
C70 C 0.30622 0.29796 0.91833 0.0
C71 C 0.34199 0.3269 0.97935 0.0
C72 C 0.32484 0.35555 0.98849 0.0
C73 C 0.2984 0.35558 0.96335 0.0
C74 C 0.28907 0.32665 0.92822 0.0
N75 N 0.28257 0.38578 0.97409 0.0
C76 C 0.2535 0.38762 0.95521 0.0
H77 H 0.30629 0.76629 0.42871 0.0
H78 H 0.36619 0.77757 0.34616 0.0
H79 H 0.30775 0.67198 0.33146 0.0
C80 C 0.31588 0.754 0.40306 0.0
C81 C 0.30481 0.71633 0.38226 0.0
C82 C 0.33805 0.77633 0.3904 0.0
C83 C 0.34907 0.76055 0.35604 0.0
C84 C 0.33803 0.72285 0.33466 0.0
C85 C 0.31595 0.70105 0.3479 0.0
N86 N 0.34848 0.70585 0.29975 0.0
C87 C 0.37047 0.72363 0.28317 0.0
C88 C 0.02142 0.49071 0.451 0.0
C89 C 0.11894 0.56433 0.43322 0.0
O90 O 0.04322 0.51408 0.47679 0.0
Zn91 Zn 0.07018 0.52777 0.44326 0.0
O92 O 0.02382 0.48483 0.41597 0.0
Zn93 Zn 0.05625 0.50432 0.38292 0.0
O94 O 0.07014 0.45919 0.35512 0.0
O95 O 0.08533 0.47761 0.41712 0.0
O96 O 0.10098 0.54407 0.40169 0.0
O97 O 0.11022 0.56333 0.4642 0.0
O98 O 0.04063 0.55601 0.41912 0.0
O99 O 0.02842 0.52747 0.35723 0.0
C100 C 0.08402 0.45419 0.38394 0.0
C101 C 0.02597 0.55356 0.38684 0.0
C102 C 1.00414 0.5236 0.93863 0.0
C103 C 0.08729 0.60813 0.90876 0.0
O104 O 0.02083 0.55409 0.96178 0.0
Zn105 Zn 0.04622 0.56607 0.92548 0.0
O106 O 0.00922 0.51224 0.90417 0.0
Zn107 Zn 0.03943 0.5297 0.86808 0.0
O108 O 0.06403 0.4912 0.8538 0.0
O109 O 0.07441 0.52383 0.91515 0.0
O110 O 0.07507 0.57871 0.88046 0.0
O111 O 0.07762 0.61247 0.94046 0.0
O112 O 0.0091 0.57364 0.88769 0.0
O113 O 1.00722 0.53369 0.8304 0.0
C114 C 0.07897 0.49738 0.88678 0.0
C115 C 0.99642 0.55961 0.85256 0.0
C116 C 0.26835 0.98928 0.63954 0.0
C117 C 0.26602 0.07032 0.56319 0.0
O118 O 0.24459 0.99035 0.61702 0.0
Zn119 Zn 0.26615 0.02989 0.60155 0.0
O120 O 0.2953 0.01157 0.64427 0.0
Zn121 Zn 0.31523 0.05473 0.62398 0.0
O122 O 0.32662 0.09724 0.66974 0.0
O123 O 0.27411 0.07696 0.6528 0.0
O124 O 0.2935 0.07605 0.58369 0.0
O125 O 0.24306 0.04597 0.56484 0.0
O126 O 0.30062 1.00455 0.56995 0.0
O127 O 0.34951 0.03534 0.59947 0.0
C128 C 0.2982 0.10005 0.67589 0.0
C129 C 0.3313 0.00931 0.57214 0.0
C130 C 0.57453 0.66763 0.0958 0.0
C131 C 0.50138 0.68488 0.99729 0.0
O132 O 0.5525 0.64323 0.07122 0.0
Zn133 Zn 0.53844 0.67488 0.04552 0.0
O134 O 0.57941 0.70093 0.09605 0.0
Zn135 Zn 0.55978 0.73254 0.06512 0.0
O136 O 0.54266 0.76685 0.10558 0.0
O137 O 0.51683 0.70899 0.08805 0.0
O138 O 0.52056 0.715 0.01843 0.0
O139 O 0.50399 0.65494 1.00255 0.0
O140 O 0.58 0.68859 0.02214 0.0
O141 O 0.59716 0.74896 0.04338 0.0
C142 C 0.5202 0.74284 0.10887 0.0
C143 C 0.60029 0.717 0.02322 0.0
C144 C 0.74477 0.93695 0.66515 0.0
C145 C 0.74728 0.02457 0.59833 0.0
O146 O 0.72142 0.94692 0.65043 0.0
Zn147 Zn 0.74634 0.98068 0.6314 0.0
O148 O 0.7737 0.95073 0.66311 0.0
Zn149 Zn 0.79668 0.99036 0.64029 0.0
O150 O 0.82211 0.02819 0.68441 0.0
O151 O 0.77002 0.02617 0.68295 0.0
O152 O 0.7756 0.02153 0.61015 0.0
O153 O 0.72283 1.00535 0.60449 0.0
O154 O 0.76715 0.94494 0.58655 0.0
O155 O 0.81979 0.963 0.6039 0.0
C156 C 0.79919 0.04102 0.69944 0.0
C157 C 0.79577 0.94195 0.57992 0.0
C158 C 0.59707 0.26702 0.23285 0.0
C159 C 0.51527 0.29643 0.15219 0.0
O160 O 0.57962 0.24355 0.2027 0.0
Zn161 Zn 0.55411 0.27765 0.19208 0.0
O162 O 0.59223 0.29997 0.24522 0.0
Zn163 Zn 0.56278 0.33441 0.23147 0.0
O164 O 0.5368 0.34453 0.27266 0.0
O165 O 0.527 0.28564 0.23711 0.0
O166 O 0.52917 0.32292 0.18245 0.0
O167 O 0.52143 0.26448 0.14625 0.0
O168 O 0.59171 0.31585 0.18326 0.0
O169 O 0.59602 0.37196 0.22483 0.0
C170 C 0.52216 0.31148 0.26572 0.0
C171 C 0.60559 0.35 0.19689 0.0
H172 H 0.19711 0.31322 0.30386 0.0
H173 H 0.19653 0.28809 0.40747 0.0
H174 H 0.15525 0.3258 0.42547 0.0
H175 H 0.19217 0.40554 0.34318 0.0
H176 H 0.16648 0.40677 0.30292 0.0
H177 H 0.19283 0.37446 0.29618 0.0
H178 H 0.14413 0.32049 0.26267 0.0
H179 H 0.11757 0.3527 0.26924 0.0
H180 H 0.11007 0.3148 0.28657 0.0
H181 H 0.11903 0.37107 0.43504 0.0
H182 H 0.08963 0.4205 0.43594 0.0
H183 H 0.1126 0.41582 0.32518 0.0
C184 C 0.18763 0.31509 0.32989 0.0
C185 C 0.19938 0.29768 0.35425 0.0
C186 C 0.1873 0.30107 0.38845 0.0
C187 C 0.16393 0.32234 0.39877 0.0
C188 C 0.153 0.3397 0.37437 0.0
C189 C 0.1643 0.33614 0.3405 0.0
C190 C 0.15028 0.35966 0.32066 0.0
C191 C 0.17704 0.3883 0.31546 0.0
C192 C 0.12926 0.33546 0.28252 0.0
C193 C 0.13 0.37787 0.34915 0.0
C194 C 0.13177 0.3657 0.37975 0.0
C195 C 0.11706 0.38036 0.41099 0.0
C196 C 0.10052 0.40853 0.41128 0.0
C197 C 0.09867 0.42176 0.3805 0.0
C198 C 0.11309 0.4057 0.3487 0.0
H199 H 0.23255 0.68071 0.81659 0.0
H200 H 0.23581 0.79105 0.89362 0.0
H201 H 0.1874 0.76764 0.91718 0.0
H202 H 0.14283 0.65145 0.79507 0.0
H203 H 0.14448 0.60514 0.79292 0.0
H204 H 0.17668 0.63184 0.7795 0.0
H205 H 0.21763 0.62098 0.82813 0.0
H206 H 0.18556 0.59495 0.84229 0.0
H207 H 0.21239 0.63439 0.87726 0.0
H208 H 0.14345 0.72978 0.93863 0.0
H209 H 0.1032 0.68252 0.94972 0.0
H210 H 0.12774 0.59783 0.85625 0.0
C211 C 0.22231 0.70008 0.83745 0.0
C212 C 0.23748 0.73772 0.85299 0.0
C213 C 0.22403 0.76226 0.88087 0.0
C214 C 0.19676 0.74911 0.89461 0.0
C215 C 0.18306 0.71147 0.87971 0.0
C216 C 0.19497 0.68749 0.85104 0.0
C217 C 0.17684 0.64814 0.84079 0.0
C218 C 0.15915 0.63328 0.79963 0.0
C219 C 0.19946 0.62317 0.84754 0.0
C220 C 0.15339 0.65346 0.86879 0.0
C221 C 0.15736 0.6901 0.89119 0.0
C222 C 0.13973 0.70113 0.92073 0.0
C223 C 0.11712 0.67411 0.92704 0.0
C224 C 0.11214 0.63659 0.90365 0.0
C225 C 0.13063 0.62637 0.87425 0.0
H226 H 0.87575 0.62482 0.31105 0.0
H227 H 0.88821 0.70365 0.42582 0.0
H228 H 0.93785 0.68436 0.44214 0.0
H229 H 0.89928 0.55335 0.34026 0.0
H230 H 0.91921 0.5356 0.30022 0.0
H231 H 0.88637 0.55835 0.29558 0.0
H232 H 0.92292 0.60393 0.27278 0.0
H233 H 0.95598 0.58145 0.27761 0.0
H234 H 0.96069 0.63032 0.30196 0.0
H235 H 0.98469 0.65605 0.44767 0.0
H236 H 0.02363 0.61586 0.44429 0.0
H237 H 0.9799 0.55083 0.32783 0.0
C238 C 0.88881 0.63812 0.33965 0.0
C239 C 0.87808 0.66659 0.36676 0.0
C240 C 0.8962 0.68292 0.40387 0.0
C241 C 0.92446 0.67193 0.41363 0.0
C242 C 0.9343 0.64409 0.38628 0.0
C243 C 0.91691 0.62698 0.3502 0.0
C244 C 0.93169 0.5957 0.32732 0.0
C245 C 0.90771 0.55855 0.31514 0.0
C246 C 0.94352 0.60332 0.29287 0.0
C247 C 0.95977 0.59769 0.3565 0.0
C248 C 0.96097 0.6263 0.39002 0.0
C249 C 0.98406 0.63356 0.42159 0.0
C250 C 1.0061 0.61044 0.41931 0.0
C251 C 1.00486 0.57999 0.38582 0.0
C252 C 0.98168 0.574 0.35371 0.0
H253 H 0.85758 0.3561 0.9 0.0
H254 H 0.85666 0.38879 0.02118 0.0
H255 H 0.90013 0.44321 0.03166 0.0
H256 H 0.94184 0.37782 0.90568 0.0
H257 H 0.9402 0.3936 0.86579 0.0
H258 H 0.90752 0.35949 0.86826 0.0
H259 H 0.86724 0.40095 0.86168 0.0
H260 H 0.89981 0.43518 0.85905 0.0
H261 H 0.87417 0.44766 0.89441 0.0
H262 H 0.94651 0.49299 0.02805 0.0
H263 H 0.98978 0.53231 0.0107 0.0
H264 H 0.9597 0.46383 0.89221 0.0
C265 C 0.86647 0.37461 0.92883 0.0
C266 C 0.85387 0.36799 0.9598 0.0
C267 C 0.86581 0.39342 0.99697 0.0
C268 C 0.89059 0.42429 1.00318 0.0
C269 C 0.90299 0.42939 0.9719 0.0
C270 C 0.89109 0.40519 0.93546 0.0
C271 C 0.90889 0.41563 0.90656 0.0
C272 C 0.9256 0.38481 0.88534 0.0
C273 C 0.88617 0.42545 0.8788 0.0
C274 C 0.93309 0.44925 0.93233 0.0
C275 C 0.92935 0.45715 0.96992 0.0
C276 C 0.9495 0.48702 0.99865 0.0
C277 C 0.97402 0.50919 0.98856 0.0
C278 C 0.97828 0.50112 0.95013 0.0
C279 C 0.95733 0.47078 0.9219 0.0
H280 H 0.32064 0.21868 0.46522 0.0
H281 H 0.23101 0.17196 0.38576 0.0
H282 H 0.21438 0.13086 0.42095 0.0
H283 H 0.3334 0.13329 0.47219 0.0
H284 H 0.35059 0.15262 0.52179 0.0
H285 H 0.35428 0.18082 0.49243 0.0
H286 H 0.32794 0.2284 0.53846 0.0
H287 H 0.32415 0.20032 0.56798 0.0
H288 H 0.28909 0.21343 0.54972 0.0
H289 H 0.20822 0.09253 0.46347 0.0
H290 H 0.21395 0.05942 0.50875 0.0
H291 H 0.30867 0.12869 0.55821 0.0
C292 C 0.2975 0.19987 0.45504 0.0
C293 C 0.27711 0.19915 0.42266 0.0
C294 C 0.24689 0.17405 0.41089 0.0
C295 C 0.23726 0.15023 0.43057 0.0
C296 C 0.2581 0.15146 0.46199 0.0
C297 C 0.28763 0.17558 0.4741 0.0
C298 C 0.30621 0.17019 0.50761 0.0
C299 C 0.33799 0.15853 0.49791 0.0
C300 C 0.31219 0.20517 0.54304 0.0
C301 C 0.28265 0.13902 0.51219 0.0
C302 C 0.25491 0.12882 0.48583 0.0
C303 C 0.22982 0.10038 0.4843 0.0
C304 C 0.23329 0.08173 0.51018 0.0
C305 C 0.26174 0.09133 0.53711 0.0
C306 C 0.28658 0.12058 0.53805 0.0
H307 H 0.38512 0.78055 0.899 0.0
H308 H 0.32599 0.67168 0.83912 0.0
H309 H 0.36611 0.64394 0.86597 0.0
H310 H 0.46395 0.75381 0.89019 0.0
H311 H 0.48197 0.78504 0.9371 0.0
H312 H 0.45003 0.79595 0.91043 0.0
H313 H 0.4173 0.80266 0.96582 0.0
H314 H 0.44902 0.79164 0.99256 0.0
H315 H 0.40858 0.76492 0.98322 0.0
H316 H 0.41087 0.6284 0.90284 0.0
H317 H 0.45659 0.62634 0.94717 0.0
H318 H 0.48654 0.7454 0.98308 0.0
C319 C 0.38101 0.75082 0.89085 0.0
C320 C 0.35249 0.72825 0.86682 0.0
C321 C 0.3476 0.6895 0.85759 0.0
C322 C 0.37032 0.67349 0.87256 0.0
C323 C 0.39789 0.69656 0.89672 0.0
C324 C 0.40338 0.73439 0.90573 0.0
C325 C 0.43399 0.75314 0.93414 0.0
C326 C 0.45896 0.77317 0.91692 0.0
C327 C 0.42677 0.77964 0.97112 0.0
C328 C 0.44455 0.72003 0.9402 0.0
C329 C 0.42356 0.68762 0.91812 0.0
C330 C 0.42764 0.65359 0.91999 0.0
C331 C 0.45369 0.6527 0.9453 0.0
C332 C 0.47531 0.68565 0.96857 0.0
C333 C 0.47069 0.71964 0.96551 0.0
H334 H 0.76868 0.74803 0.41129 0.0
H335 H 0.85757 0.79113 0.37924 0.0
H336 H 0.85955 0.8523 0.42672 0.0
H337 H 0.73595 0.8352 0.4323 0.0
H338 H 0.71885 0.82804 0.47182 0.0
H339 H 0.72196 0.78901 0.43172 0.0
H340 H 0.75365 0.76433 0.47688 0.0
H341 H 0.75111 0.80347 0.517 0.0
H342 H 0.78988 0.79331 0.50767 0.0
H343 H 0.85677 0.90524 0.48358 0.0
H344 H 0.84632 0.94938 0.54249 0.0
H345 H 0.75767 0.87423 0.53689 0.0
C346 C 0.78787 0.77073 0.41334 0.0
C347 C 0.81297 0.76488 0.39153 0.0
C348 C 0.83817 0.79501 0.39572 0.0
C349 C 0.83947 0.82986 0.42257 0.0
C350 C 0.81515 0.83436 0.44478 0.0
C351 C 0.78946 0.80589 0.44004 0.0
C352 C 0.76766 0.81766 0.46937 0.0
C353 C 0.73411 0.81747 0.45015 0.0
C354 C 0.76547 0.79324 0.49419 0.0
C355 C 0.78575 0.85668 0.49206 0.0
C356 C 0.81305 0.86567 0.47725 0.0
C357 C 0.83511 0.89886 0.49496 0.0
C358 C 0.82909 0.92365 0.52856 0.0
C359 C 0.80107 0.91536 0.54403 0.0
C360 C 0.77897 0.88154 0.52527 0.0
H361 H 0.7354 0.29868 0.06695 0.0
H362 H 0.72571 0.39162 0.03176 0.0
H363 H 0.69582 0.41527 0.08488 0.0
H364 H 0.65918 0.28062 0.0833 0.0
H365 H 0.66813 0.26666 0.1236 0.0
H366 H 0.69471 0.26221 0.08903 0.0
H367 H 0.74262 0.3017 0.14186 0.0
H368 H 0.71606 0.30618 0.17676 0.0
H369 H 0.73973 0.34679 0.17254 0.0
H370 H 0.65964 0.42298 0.13616 0.0
H371 H 0.61963 0.41215 0.17718 0.0
H372 H 0.65254 0.31303 0.1764 0.0
C373 C 0.72816 0.32485 0.07157 0.0
C374 C 0.73339 0.34397 0.04621 0.0
C375 C 0.72249 0.37723 0.05172 0.0
C376 C 0.70551 0.39076 0.08176 0.0
C377 C 0.69979 0.37062 0.10587 0.0
C378 C 0.71108 0.33843 0.10113 0.0
C379 C 0.69832 0.31908 0.12715 0.0
C380 C 0.67893 0.27986 0.1044 0.0
C381 C 0.72583 0.31842 0.15631 0.0
C382 C 0.67684 0.34429 0.146 0.0
C383 C 0.67848 0.37443 0.13428 0.0
C384 C 0.65868 0.39985 0.14604 0.0
C385 C 0.63612 0.39365 0.16943 0.0
C386 C 0.63327 0.36192 0.17998 0.0
C387 C 0.65451 0.3377 0.16894 0.0
H388 H 0.33345 0.88987 0.77768 0.0
H389 H 0.23863 0.82025 0.75465 0.0
H390 H 0.21909 0.85321 0.71321 0.0
H391 H 0.30762 0.97424 0.78048 0.0
H392 H 0.34004 0.98876 0.75788 0.0
H393 H 0.34555 0.96033 0.78621 0.0
H394 H 0.36164 0.91234 0.72918 0.0
H395 H 0.35606 0.94056 0.70066 0.0
H396 H 0.3346 0.89329 0.68454 0.0
H397 H 0.21105 0.89395 0.67264 0.0
H398 H 0.21489 0.93805 0.6379 0.0
H399 H 0.31556 0.98004 0.68831 0.0
C400 C 0.30848 0.88187 0.76415 0.0
C401 C 0.28734 0.8529 0.76937 0.0
C402 C 0.25499 0.84268 0.75105 0.0
C403 C 0.2438 0.8612 0.72749 0.0
C404 C 0.26539 0.88972 0.72266 0.0
C405 C 0.29707 0.89996 0.74063 0.0
C406 C 0.31576 0.93085 0.73046 0.0
C407 C 0.32795 0.9656 0.76587 0.0
C408 C 0.34365 0.9185 0.70999 0.0
C409 C 0.28979 0.93652 0.70385 0.0
C410 C 0.26086 0.91264 0.6996 0.0
C411 C 0.2336 0.91279 0.67594 0.0
C412 C 0.23601 0.93794 0.65627 0.0
C413 C 0.26549 0.96266 0.66031 0.0
C414 C 0.2926 0.96169 0.68453 0.0
H415 H 0.72786 0.69677 0.25086 0.0
H416 H 0.68621 0.59141 0.25852 0.0
H417 H 0.63818 0.58624 0.21301 0.0
H418 H 0.65148 0.72862 0.24215 0.0
H419 H 0.66355 0.75062 0.20901 0.0
H420 H 0.69347 0.74701 0.24407 0.0
H421 H 0.72365 0.71439 0.1907 0.0
H422 H 0.69369 0.71758 0.1555 0.0
H423 H 0.70241 0.67333 0.15259 0.0
H424 H 0.59688 0.59028 0.16288 0.0
H425 H 0.56341 0.60522 0.11482 0.0
H426 H 0.63131 0.70876 0.1409 0.0
C427 C 0.70824 0.67307 0.24344 0.0
C428 C 0.71022 0.64462 0.25824 0.0
C429 C 0.68466 0.61361 0.24761 0.0
C430 C 0.65743 0.61041 0.22175 0.0
C431 C 0.65622 0.63861 0.20701 0.0
C432 C 0.68077 0.66956 0.21775 0.0
C433 C 0.67386 0.69535 0.19682 0.0
C434 C 0.67037 0.7326 0.22468 0.0
C435 C 0.69996 0.70044 0.17246 0.0
C436 C 0.64191 0.67382 0.1723 0.0
C437 C 0.63217 0.64115 0.17853 0.0
C438 C 0.60407 0.616 0.15806 0.0
C439 C 0.58529 0.62463 0.1307 0.0
C440 C 0.5946 0.65821 0.12422 0.0
C441 C 0.62331 0.68302 0.14543 0.0
H442 H 0.76379 0.21664 0.85898 0.0
H443 H 0.86449 0.24029 0.90907 0.0
H444 H 0.87229 0.18416 0.86011 0.0
H445 H 0.7512 0.11663 0.83375 0.0
H446 H 0.72482 0.10759 0.78996 0.0
H447 H 0.72688 0.14918 0.82957 0.0
H448 H 0.74092 0.18819 0.78724 0.0
H449 H 0.739 0.14676 0.74755 0.0
H450 H 0.77496 0.18246 0.76263 0.0
H451 H 0.86981 0.12688 0.80448 0.0
H452 H 0.85706 0.07178 0.74641 0.0
H453 H 0.75758 0.08397 0.73303 0.0
C454 C 0.78738 0.20975 0.86002 0.0
C455 C 0.81357 0.23307 0.88789 0.0
C456 C 0.84416 0.22325 0.88776 0.0
C457 C 0.84879 0.19126 0.86019 0.0
C458 C 0.82258 0.16914 0.83297 0.0
C459 C 0.79243 0.17783 0.83272 0.0
C460 C 0.76848 0.14969 0.79977 0.0
C461 C 0.74124 0.12958 0.81413 0.0
C462 C 0.75506 0.16787 0.7727 0.0
C463 C 0.78996 0.12402 0.78139 0.0
C464 C 0.82106 0.13578 0.80105 0.0
C465 C 0.84549 0.11727 0.78899 0.0
C466 C 0.838 0.086 0.75589 0.0
C467 C 0.80629 0.07337 0.73516 0.0
C468 C 0.78197 0.09265 0.74837 0.0
H469 H 0.36461 0.31146 0.36264 0.0
H470 H 0.37245 0.20244 0.36307 0.0
H471 H 0.42628 0.21088 0.34451 0.0
H472 H 0.39682 0.30431 0.28035 0.0
H473 H 0.41804 0.35162 0.29548 0.0
H474 H 0.38265 0.33982 0.3149 0.0
H475 H 0.41507 0.3702 0.3829 0.0
H476 H 0.45065 0.38221 0.36368 0.0
H477 H 0.45152 0.35575 0.39483 0.0
H478 H 0.47503 0.22697 0.31726 0.0
H479 H 0.5161 0.24995 0.28421 0.0
H480 H 0.47752 0.34885 0.30073 0.0
C481 C 0.37783 0.28954 0.35939 0.0
C482 C 0.36421 0.25628 0.36453 0.0
C483 C 0.38245 0.2284 0.36006 0.0
C484 C 0.41304 0.2329 0.34933 0.0
C485 C 0.42525 0.26554 0.34343 0.0
C486 C 0.40835 0.29354 0.34856 0.0
C487 C 0.42567 0.32452 0.33723 0.0
C488 C 0.40453 0.33039 0.30508 0.0
C489 C 0.43637 0.36029 0.37172 0.0
C490 C 0.45442 0.30897 0.32355 0.0
C491 C 0.4538 0.27508 0.32784 0.0
C492 C 0.47611 0.25376 0.31445 0.0
C493 C 0.49928 0.267 0.2956 0.0
C494 C 0.50017 0.30134 0.29034 0.0
C495 C 0.47786 0.32297 0.30524 0.0
H496 H 0.8563 0.67434 0.87637 0.0
H497 H 0.81627 0.61102 0.75851 0.0
H498 H 0.86157 0.57866 0.75304 0.0
H499 H 0.93961 0.68473 0.865 0.0
H500 H 0.95306 0.67952 0.9094 0.0
H501 H 0.91765 0.69816 0.90405 0.0
H502 H 0.88421 0.64775 0.9237 0.0
H503 H 0.91957 0.62913 0.92936 0.0
H504 H 0.88359 0.59988 0.8983 0.0
H505 H 0.91131 0.55276 0.76038 0.0
H506 H 0.96066 0.53398 0.78097 0.0
H507 H 0.96761 0.6136 0.89406 0.0
C508 C 0.85692 0.65349 0.84949 0.0
C509 C 0.83281 0.64553 0.81779 0.0
C510 C 0.83473 0.61818 0.78303 0.0
C511 C 0.86031 0.59948 0.77966 0.0
C512 C 0.88382 0.60827 0.81131 0.0
C513 C 0.88228 0.6345 0.84561 0.0
C514 C 0.91045 0.63843 0.8754 0.0
C515 C 0.93143 0.67753 0.88927 0.0
C516 C 0.89875 0.62818 0.90865 0.0
C517 C 0.92797 0.61026 0.85251 0.0
C518 C 0.9123 0.59323 0.81557 0.0
C519 C 0.92383 0.56595 0.78925 0.0
C520 C 0.95191 0.55552 0.80117 0.0
C521 C 0.96811 0.57231 0.83907 0.0
C522 C 0.95596 0.60025 0.86482 0.0
H523 H 0.86441 0.33315 0.40932 0.0
H524 H 0.85106 0.38445 0.52595 0.0
H525 H 0.89995 0.43201 0.53635 0.0
H526 H 0.94973 0.34846 0.42613 0.0
H527 H 0.95497 0.35863 0.38352 0.0
H528 H 0.91868 0.32868 0.38498 0.0
H529 H 0.88429 0.37056 0.36563 0.0
H530 H 0.92048 0.40048 0.36379 0.0
H531 H 0.89212 0.41906 0.39324 0.0
H532 H 0.95176 0.47273 0.53485 0.0
H533 H 1.00042 0.50585 0.51996 0.0
H534 H 0.9782 0.42959 0.40372 0.0
C535 C 0.87143 0.35466 0.4369 0.0
C536 C 0.85397 0.35471 0.4669 0.0
C537 C 0.86435 0.38325 0.50269 0.0
C538 C 0.89201 0.41057 0.50885 0.0
C539 C 0.90893 0.4093 0.47887 0.0
C540 C 0.89885 0.38233 0.44348 0.0
C541 C 0.92129 0.3873 0.41599 0.0
C542 C 0.9371 0.35377 0.40184 0.0
C543 C 0.90348 0.39481 0.3827 0.0
C544 C 0.94564 0.4211 0.44152 0.0
C545 C 0.93822 0.4333 0.47774 0.0
C546 C 0.9577 0.4636 0.50649 0.0
C547 C 0.98534 0.48214 0.49783 0.0
C548 C 0.99304 0.47045 0.46068 0.0
C549 C 0.97286 0.43944 0.43234 0.0
H550 H 0.24279 0.42742 0.9098 0.0
H551 H 0.19584 0.36258 0.97068 0.0
H552 H 0.14414 0.37943 0.95448 0.0
H553 H 0.2039 0.50086 0.93904 0.0
H554 H 0.19991 0.50916 0.89469 0.0
H555 H 0.23217 0.48849 0.90689 0.0
H556 H 0.21358 0.43282 0.84423 0.0
H557 H 0.18133 0.45348 0.83168 0.0
H558 H 0.17252 0.40744 0.83323 0.0
H559 H 0.09993 0.40962 0.93911 0.0
H560 H 0.06484 0.44839 0.92214 0.0
H561 H 0.13921 0.49207 0.86872 0.0
C562 C 0.22132 0.41603 0.91869 0.0
C563 C 0.22283 0.39334 0.94095 0.0
C564 C 0.19476 0.37957 0.95311 0.0
C565 C 0.1654 0.38905 0.94409 0.0
C566 C 0.16464 0.41211 0.92268 0.0
C567 C 0.19174 0.42509 0.90969 0.0
C568 C 0.18476 0.45119 0.8891 0.0
C569 C 0.20647 0.4897 0.90861 0.0
C570 C 0.18825 0.43527 0.84706 0.0
C571 C 0.14986 0.45181 0.89361 0.0
C572 C 0.13872 0.42891 0.91295 0.0
C573 C 0.10811 0.42697 0.92321 0.0
C574 C 0.0884 0.44906 0.91357 0.0
C575 C 0.09925 0.47241 0.89359 0.0
C576 C 0.13021 0.47361 0.88317 0.0
H577 H 0.25046 0.66437 0.34192 0.0
H578 H 0.30577 0.71721 0.4552 0.0
H579 H 0.26484 0.68339 0.48038 0.0
H580 H 0.1733 0.6663 0.36885 0.0
H581 H 0.15411 0.62182 0.33459 0.0
H582 H 0.18848 0.64875 0.32496 0.0
H583 H 0.21818 0.59441 0.31462 0.0
H584 H 0.18378 0.56721 0.32396 0.0
H585 H 0.22296 0.57452 0.35123 0.0
H586 H 0.21667 0.64608 0.49386 0.0
H587 H 0.16549 0.60628 0.49419 0.0
H588 H 0.14193 0.5769 0.37205 0.0
C589 C 0.25425 0.66832 0.3719 0.0
C590 C 0.28131 0.69357 0.39659 0.0
C591 C 0.28506 0.69837 0.43579 0.0
C592 C 0.26202 0.67916 0.45035 0.0
C593 C 0.23536 0.65503 0.42539 0.0
C594 C 0.23144 0.64934 0.38696 0.0
C595 C 0.20016 0.62253 0.36644 0.0
C596 C 0.17769 0.64096 0.34761 0.0
C597 C 0.20667 0.58759 0.33735 0.0
C598 C 0.18701 0.61434 0.39939 0.0
C599 C 0.20769 0.63333 0.43314 0.0
C600 C 0.20037 0.63086 0.46756 0.0
C601 C 0.17119 0.60825 0.46748 0.0
C602 C 0.14966 0.58836 0.43318 0.0
C603 C 0.15787 0.59156 0.39876 0.0
H604 H 0.79194 0.79014 0.75393 0.0
H605 H 0.69038 0.75277 0.75246 0.0
H606 H 0.67813 0.80452 0.73283 0.0
H607 H 0.79268 0.89102 0.78664 0.0
H608 H 0.82131 0.89888 0.75653 0.0
H609 H 0.82201 0.86235 0.77567 0.0
H610 H 0.81681 0.81549 0.70762 0.0
H611 H 0.8157 0.8517 0.68825 0.0
H612 H 0.78346 0.81155 0.67225 0.0
H613 H 0.67694 0.856 0.70631 0.0
H614 H 0.6867 0.90396 0.67698 0.0
H615 H 0.78939 0.90697 0.69569 0.0
C616 C 0.76727 0.79372 0.75064 0.0
C617 C 0.74205 0.76831 0.75525 0.0
C618 C 0.70993 0.77267 0.74964 0.0
C619 C 0.70283 0.80184 0.73844 0.0
C620 C 0.72824 0.82615 0.73315 0.0
C621 C 0.75987 0.82256 0.73943 0.0
C622 C 0.78252 0.85038 0.72892 0.0
C623 C 0.80602 0.87726 0.76404 0.0
C624 C 0.80067 0.83111 0.69739 0.0
C625 C 0.75867 0.86952 0.71467 0.0
C626 C 0.72752 0.85545 0.71763 0.0
C627 C 0.70128 0.86757 0.70436 0.0
C628 C 0.70706 0.89472 0.6876 0.0
C629 C 0.73882 0.90933 0.68411 0.0
C630 C 0.76486 0.89664 0.69818 0.0
H631 H 0.75243 0.32523 0.38793 0.0
H632 H 0.74182 0.21144 0.38217 0.0
H633 H 0.69666 0.19319 0.32875 0.0
H634 H 0.67118 0.32577 0.37202 0.0
H635 H 0.67532 0.35532 0.34402 0.0
H636 H 0.70839 0.35827 0.37904 0.0
H637 H 0.74547 0.34641 0.32761 0.0
H638 H 0.71246 0.34355 0.29237 0.0
H639 H 0.73347 0.30606 0.28534 0.0
H640 H 0.64976 0.18867 0.27736 0.0
H641 H 0.60586 0.1993 0.23612 0.0
H642 H 0.64949 0.31586 0.27727 0.0
C643 C 0.74131 0.29628 0.37486 0.0
C644 C 0.75094 0.26976 0.38908 0.0
C645 C 0.73482 0.23233 0.37185 0.0
C646 C 0.70928 0.22166 0.34133 0.0
C647 C 0.70024 0.24871 0.32827 0.0
C648 C 0.71598 0.28525 0.34456 0.0
C649 C 0.70077 0.30961 0.32729 0.0
C650 C 0.68817 0.33895 0.35738 0.0
C651 C 0.72445 0.32745 0.30694 0.0
C652 C 0.6735 0.28136 0.29932 0.0
C653 C 0.67358 0.24623 0.29969 0.0
C654 C 0.64968 0.21608 0.27672 0.0
C655 C 0.6249 0.22227 0.25335 0.0
C656 C 0.62416 0.25838 0.25373 0.0
C657 C 0.64917 0.28792 0.27654 0.0
H658 H 0.3478 0.26838 0.87192 0.0
H659 H 0.24599 0.26097 0.87887 0.0
H660 H 0.2327 0.21094 0.8163 0.0
H661 H 0.34123 0.2502 0.7712 0.0
H662 H 0.37213 0.2233 0.76551 0.0
H663 H 0.3734 0.25954 0.80994 0.0
H664 H 0.375 0.21297 0.84537 0.0
H665 H 0.37378 0.1766 0.8011 0.0
H666 H 0.34393 0.17178 0.83082 0.0
H667 H 0.23083 0.16024 0.75402 0.0
H668 H 0.24026 0.11286 0.69678 0.0
H669 H 0.34352 0.15301 0.7317 0.0
C670 C 0.32268 0.25614 0.86045 0.0
C671 C 0.29791 0.26851 0.88038 0.0
C672 C 0.26535 0.25218 0.86396 0.0
C673 C 0.25759 0.22366 0.82854 0.0
C674 C 0.28267 0.21191 0.80993 0.0
C675 C 0.31454 0.22769 0.82531 0.0
C676 C 0.33703 0.20959 0.80004 0.0
C677 C 0.35712 0.23731 0.78583 0.0
C678 C 0.3587 0.19167 0.82056 0.0
C679 C 0.31283 0.18085 0.7681 0.0
C680 C 0.2816 0.18273 0.77424 0.0
C681 C 0.25517 0.1586 0.74886 0.0
C682 C 0.26081 0.13176 0.71643 0.0
C683 C 0.29265 0.1292 0.7097 0.0
C684 C 0.3189 0.15427 0.73592 0.0
H685 H 0.3766 0.68857 0.21129 0.0
H686 H 0.41507 0.78812 0.30781 0.0
H687 H 0.45554 0.80811 0.2714 0.0
H688 H 0.45056 0.67158 0.18509 0.0
H689 H 0.43607 0.65396 0.13476 0.0
H690 H 0.40873 0.6501 0.16732 0.0
H691 H 0.37169 0.68419 0.13868 0.0
H692 H 0.39904 0.68823 0.10604 0.0
H693 H 0.38817 0.72889 0.13687 0.0
H694 H 0.49445 0.81428 0.2244 0.0
H695 H 0.52838 0.80481 0.17346 0.0
H696 H 0.46303 0.70096 0.10915 0.0
C697 C 0.39325 0.71487 0.22443 0.0
C698 C 0.39283 0.73708 0.26197 0.0
C699 C 0.4151 0.771 0.27879 0.0
C700 C 0.43804 0.78251 0.25831 0.0
C701 C 0.43811 0.75972 0.22115 0.0
C702 C 0.41614 0.72661 0.20446 0.0
C703 C 0.42222 0.70585 0.16525 0.0
C704 C 0.42986 0.66816 0.163 0.0
C705 C 0.39358 0.70155 0.13492 0.0
C706 C 0.45146 0.73191 0.16261 0.0
C707 C 0.46023 0.76309 0.19478 0.0
C708 C 0.48755 0.7901 0.19897 0.0
C709 C 0.50663 0.78461 0.16987 0.0
C710 C 0.4984 0.75217 0.13734 0.0
C711 C 0.47006 0.7261 0.13362 0.0
H712 H 0.81127 0.19029 0.52944 0.0
H713 H 0.71268 0.20218 0.50835 0.0
H714 H 0.69356 0.14499 0.52201 0.0
H715 H 0.79577 0.088 0.49138 0.0
H716 H 0.82559 0.08647 0.52784 0.0
H717 H 0.83055 0.12507 0.51137 0.0
H718 H 0.83548 0.16973 0.58047 0.0
H719 H 0.83029 0.13134 0.59709 0.0
H720 H 0.80375 0.16351 0.60751 0.0
H721 H 0.68632 0.09002 0.5445 0.0
H722 H 0.69129 0.04222 0.57327 0.0
H723 H 0.79514 0.06785 0.57985 0.0
C724 C 0.78561 0.18012 0.52669 0.0
C725 C 0.76324 0.19978 0.51737 0.0
C726 C 0.72995 0.18676 0.51495 0.0
C727 C 0.71899 0.15446 0.52267 0.0
C728 C 0.74178 0.13586 0.53264 0.0
C729 C 0.77441 0.14816 0.53439 0.0
C730 C 0.79422 0.12518 0.54864 0.0
C731 C 0.81261 0.10498 0.51797 0.0
C732 C 0.81728 0.14886 0.58562 0.0
C733 C 0.76779 0.09856 0.55562 0.0
C734 C 0.73766 0.10479 0.5459 0.0
C735 C 0.70977 0.08462 0.55175 0.0
C736 C 0.71283 0.05758 0.56816 0.0
C737 C 0.74359 0.05123 0.57877 0.0
C738 C 0.77125 0.07182 0.57191 0.0
H739 H 0.35969 0.27008 0.99978 0.0
H740 H 0.39019 0.38649 0.0175 0.0
H741 H 0.43863 0.38949 0.0606 0.0
H742 H 0.38586 0.27633 0.0951 0.0
H743 H 0.39944 0.23333 0.082 0.0
H744 H 0.36743 0.23964 0.05139 0.0
H745 H 0.39965 0.22327 0.99557 0.0
H746 H 0.43183 0.217 0.02606 0.0
H747 H 0.44007 0.24881 1.00104 0.0
H748 H 0.4824 0.38109 0.1024 0.0
H749 H 0.51937 0.36243 0.14319 0.0
H750 H 0.46244 0.25068 0.09913 0.0
C751 C 0.37673 0.2961 0.01251 0.0
C752 C 0.37103 0.32816 0.00541 0.0
C753 C 0.39373 0.36176 0.02295 0.0
C754 C 0.42148 0.36366 0.04721 0.0
C755 C 0.42631 0.3317 0.05364 0.0
C756 C 0.40467 0.29853 0.03697 0.0
C757 C 0.41548 0.26868 0.04985 0.0
C758 C 0.39057 0.25362 0.07083 0.0
C759 C 0.42216 0.2376 0.01612 0.0
C760 C 0.44642 0.29047 0.07669 0.0
C761 C 0.45209 0.32671 0.07808 0.0
C762 C 0.47833 0.35279 0.10149 0.0
C763 C 0.49914 0.34186 0.12466 0.0
C764 C 0.49379 0.30509 0.12443 0.0
C765 C 0.46731 0.27884 0.0996 0.0
H766 H 0.3533 0.80906 0.46758 0.0
H767 H 0.34431 0.83402 0.36356 0.0
H768 H 0.35237 0.90027 0.40115 0.0
H769 H 0.30649 0.86624 0.51197 0.0
H770 H 0.32899 0.88035 0.55913 0.0
H771 H 0.33015 0.83656 0.5248 0.0
H772 H 0.39245 0.85451 0.53437 0.0
H773 H 0.39147 0.89853 0.56892 0.0
H774 H 0.41141 0.89654 0.52851 0.0
H775 H 0.35064 0.96132 0.44884 0.0
H776 H 0.33974 0.01183 0.50273 0.0
H777 H 0.34917 0.94724 0.57551 0.0
C778 C 0.35378 0.82856 0.4527 0.0
C779 C 0.34822 0.81637 0.41263 0.0
C780 C 0.34902 0.84273 0.39423 0.0
C781 C 0.35353 0.88044 0.41538 0.0
C782 C 0.35756 0.89135 0.45487 0.0
C783 C 0.35803 0.86614 0.47336 0.0
C784 C 0.35864 0.88405 0.51556 0.0
C785 C 0.32932 0.86572 0.52859 0.0
C786 C 0.39039 0.88337 0.53817 0.0
C787 C 0.35671 0.92287 0.51773 0.0
C788 C 0.35678 0.92679 0.48256 0.0
C789 C 0.35158 0.95896 0.47671 0.0
C790 C 0.34547 0.98748 0.50735 0.0
C791 C 0.34471 0.98349 0.54315 0.0
C792 C 0.35097 0.95122 0.54861 0.0
H793 H 0.72971 0.74398 0.88814 0.0
H794 H 0.74862 0.63769 0.88638 0.0
H795 H 0.71312 0.63703 0.93356 0.0
H796 H 0.72263 0.78039 0.98966 0.0
H797 H 0.68991 0.80232 0.98159 0.0
H798 H 0.71955 0.79689 0.9503 0.0
H799 H 0.6743 0.76275 0.89265 0.0
H800 H 0.64455 0.76803 0.92371 0.0
H801 H 0.64646 0.72278 0.89251 0.0
H802 H 0.67275 0.64412 0.97593 0.0
H803 H 0.62912 0.65899 0.01247 0.0
H804 H 0.63411 0.76066 0.98826 0.0
C805 C 0.72662 0.72072 0.89792 0.0
C806 C 0.74266 0.6912 0.8838 0.0
C807 C 0.73766 0.66125 0.89737 0.0
C808 C 0.71724 0.66043 0.92406 0.0
C809 C 0.70174 0.68967 0.93707 0.0
C810 C 0.70609 0.71934 0.92464 0.0
C811 C 0.68488 0.74607 0.94192 0.0
C812 C 0.70548 0.78365 0.96738 0.0
C813 C 0.66114 0.75013 0.91084 0.0
C814 C 0.66748 0.72623 0.96526 0.0
C815 C 0.67789 0.69386 0.96203 0.0
C816 C 0.66459 0.66955 0.97903 0.0
C817 C 0.63968 0.6782 0.99959 0.0
C818 C 0.62824 0.71099 1.00326 0.0
C819 C 0.64269 0.73567 0.98634 0.0
loop_
_geom_bond_atom_site_label_1
_geom_bond_atom_site_label_2
_geom_bond_distance
_geom_bond_site_symmetry_2
_ccdc_geom_bond_type
H0 C3 0.929 . S
H1 C6 0.929 . S
H2 C8 0.930 . S
C3 H0 0.929 . S
C3 C4 1.398 . S
C3 C5 1.396 . S
C4 C3 1.398 . S
C4 C8 1.407 . S
C5 C3 1.396 . S
C5 C6 1.394 . S
C6 H1 0.929 . S
C6 C5 1.394 . S
C6 C7 1.382 . S
C7 C6 1.382 . S
C7 C8 1.392 . S
C7 N9 1.420 . S
C8 H2 0.930 . S
C8 C4 1.407 . S
C8 C7 1.392 . S
N9 C7 1.420 . S
N9 C10 1.244 . S
C10 N9 1.244 . S
H11 C14 0.929 . S
H12 C17 0.929 . S
H13 C19 0.930 . S
C14 H11 0.929 . S
C14 C15 1.398 . S
C14 C16 1.396 . S
C15 C14 1.398 . S
C15 C19 1.407 . S
C16 C14 1.396 . S
C16 C17 1.394 . S
C17 H12 0.929 . S
C17 C16 1.394 . S
C17 C18 1.382 . S
C18 C17 1.382 . S
C18 C19 1.392 . S
C18 N20 1.420 . S
C19 H13 0.930 . S
C19 C15 1.407 . S
C19 C18 1.392 . S
N20 C18 1.420 . S
N20 C21 1.244 . S
C21 N20 1.244 . S
H22 C25 0.929 . S
H23 C28 0.929 . S
H24 C30 0.930 . S
C25 H22 0.929 . S
C25 C26 1.398 . S
C25 C27 1.396 . S
C26 C25 1.398 . S
C26 C30 1.407 . S
C27 C25 1.396 . S
C27 C28 1.394 . S
C28 H23 0.929 . S
C28 C27 1.394 . S
C28 C29 1.382 . S
C29 C28 1.382 . S
C29 C30 1.392 . S
C29 N31 1.420 . S
C30 H24 0.930 . S
C30 C26 1.407 . S
C30 C29 1.392 . S
N31 C29 1.420 . S
N31 C32 1.244 . S
C32 N31 1.244 . S
H33 C36 0.929 . S
H34 C39 0.929 . S
H35 C41 0.930 1_554 S
C36 H33 0.929 . S
C36 C37 1.398 . S
C36 C38 1.396 . S
C37 C36 1.398 . S
C37 C41 1.407 . S
C38 C36 1.396 . S
C38 C39 1.394 . S
C39 H34 0.929 . S
C39 C38 1.394 . S
C39 C40 1.382 . S
C40 C39 1.382 . S
C40 C41 1.392 . S
C40 N42 1.420 1_556 S
C41 H35 0.930 1_556 S
C41 C37 1.407 . S
C41 C40 1.392 . S
N42 C40 1.420 1_554 S
N42 C43 1.244 . S
C43 N42 1.244 . S
H44 C47 0.929 . S
H45 C50 0.929 . S
H46 C52 0.930 . S
C47 H44 0.929 . S
C47 C48 1.398 . S
C47 C49 1.396 . S
C48 C47 1.398 . S
C48 C52 1.407 . S
C49 C47 1.396 . S
C49 C50 1.394 . S
C50 H45 0.929 . S
C50 C49 1.394 . S
C50 C51 1.382 . S
C51 C50 1.382 . S
C51 C52 1.392 . S
C51 N53 1.420 . S
C52 H46 0.930 . S
C52 C48 1.407 . S
C52 C51 1.392 . S
N53 C51 1.420 . S
N53 C54 1.244 . S
C54 N53 1.244 . S
H55 C58 0.929 . S
H56 C61 0.929 . S
H57 C63 0.930 . S
C58 H55 0.929 . S
C58 C59 1.398 . S
C58 C60 1.396 . S
C59 C58 1.398 . S
C59 C63 1.407 . S
C60 C58 1.396 . S
C60 C61 1.394 . S
C61 H56 0.929 . S
C61 C60 1.394 . S
C61 C62 1.382 . S
C62 C61 1.382 . S
C62 C63 1.392 . S
C62 N64 1.420 . S
C63 H57 0.930 . S
C63 C59 1.407 . S
C63 C62 1.392 . S
N64 C62 1.420 . S
N64 C65 1.244 . S
C65 N64 1.244 . S
H66 C69 0.929 . S
H67 C72 0.929 . S
H68 C74 0.930 . S
C69 H66 0.929 . S
C69 C70 1.398 . S
C69 C71 1.396 . S
C70 C69 1.398 . S
C70 C74 1.407 . S
C71 C69 1.396 . S
C71 C72 1.394 . S
C72 H67 0.929 . S
C72 C71 1.394 . S
C72 C73 1.382 . S
C73 C72 1.382 . S
C73 C74 1.392 . S
C73 N75 1.420 . S
C74 H68 0.930 . S
C74 C70 1.407 . S
C74 C73 1.392 . S
N75 C73 1.420 . S
N75 C76 1.244 . S
C76 N75 1.244 . S
H77 C80 0.929 . S
H78 C83 0.929 . S
H79 C85 0.930 . S
C80 H77 0.929 . S
C80 C81 1.398 . S
C80 C82 1.396 . S
C81 C80 1.398 . S
C81 C85 1.407 . S
C82 C80 1.396 . S
C82 C83 1.394 . S
C83 H78 0.929 . S
C83 C82 1.394 . S
C83 C84 1.382 . S
C84 C83 1.382 . S
C84 C85 1.392 . S
C84 N86 1.420 . S
C85 H79 0.930 . S
C85 C81 1.407 . S
C85 C84 1.392 . S
N86 C84 1.420 . S
N86 C87 1.244 . S
C87 N86 1.244 . S
C88 O90 1.247 1_655 S
C88 O92 1.258 . S
C89 O96 1.247 . S
C89 O97 1.258 . S
O90 C88 1.247 1_455 S
O90 Zn91 2.028 . S
Zn91 O90 2.028 . S
Zn91 O95 2.035 . S
Zn91 O97 2.035 . S
Zn91 O98 2.028 . S
O92 C88 1.258 . S
O92 Zn93 2.035 1_655 S
Zn93 O92 2.035 1_455 S
Zn93 O94 2.028 . S
Zn93 O96 2.028 . S
Zn93 O99 2.035 1_455 S
O94 Zn93 2.028 . S
O94 C100 1.247 . S
O95 Zn91 2.035 . S
O95 C100 1.258 . S
O96 C89 1.247 . S
O96 Zn93 2.028 . S
O97 C89 1.258 . S
O97 Zn91 2.035 . S
O98 Zn91 2.028 . S
O98 C101 1.247 1_455 S
O99 Zn93 2.035 1_655 S
O99 C101 1.258 . S
C100 O94 1.247 . S
C100 O95 1.258 . S
C101 O98 1.247 1_655 S
C101 O99 1.258 . S
C102 O104 1.247 1_655 S
C102 O106 1.264 . S
C103 O110 1.247 . S
C103 O111 1.258 . S
O104 C102 1.247 1_455 S
O104 Zn105 2.028 . S
Zn105 O104 2.028 . S
Zn105 O109 2.035 . S
Zn105 O111 2.035 . S
Zn105 O112 2.028 . S
O106 C102 1.264 . S
O106 Zn107 2.023 1_655 S
Zn107 O106 2.023 1_455 S
Zn107 O108 2.028 . S
Zn107 O110 2.028 . S
Zn107 O113 2.035 . S
O108 Zn107 2.028 . S
O108 C114 1.247 . S
O109 Zn105 2.035 . S
O109 C114 1.258 . S
O110 C103 1.247 . S
O110 Zn107 2.028 . S
O111 C103 1.258 . S
O111 Zn105 2.035 . S
O112 Zn105 2.028 . S
O112 C115 1.247 1_455 S
O113 Zn107 2.035 . S
O113 C115 1.258 1_455 S
C114 O108 1.247 . S
C114 O109 1.258 . S
C115 O112 1.247 1_655 S
C115 O113 1.258 1_655 S
C116 O118 1.247 . S
C116 O120 1.252 1_565 S
C117 O124 1.247 . S
C117 O125 1.258 . S
O118 C116 1.247 . S
O118 Zn119 2.028 1_565 S
Zn119 O118 2.028 1_545 S
Zn119 O123 2.035 . S
Zn119 O125 2.035 . S
Zn119 O126 2.028 1_545 S
O120 C116 1.252 1_545 S
O120 Zn121 2.048 . S
Zn121 O120 2.048 . S
Zn121 O122 2.028 . S
Zn121 O124 2.028 . S
Zn121 O127 2.035 1_545 S
O122 Zn121 2.028 . S
O122 C128 1.247 . S
O123 Zn119 2.035 . S
O123 C128 1.258 . S
O124 C117 1.247 . S
O124 Zn121 2.028 . S
O125 C117 1.258 . S
O125 Zn119 2.035 . S
O126 Zn119 2.028 1_565 S
O126 C129 1.247 . S
O127 Zn121 2.035 1_565 S
O127 C129 1.258 . S
C128 O122 1.247 . S
C128 O123 1.258 . S
C129 O126 1.247 . S
C129 O127 1.258 . S
C130 O132 1.247 . S
C130 O134 1.258 . S
C131 O138 1.247 . S
C131 O139 1.258 . S
O132 C130 1.247 . S
O132 Zn133 2.028 1_554 S
Zn133 O132 2.028 1_556 S
Zn133 O137 2.035 1_556 S
Zn133 O139 2.035 . S
Zn133 O140 2.028 . S
O134 C130 1.258 . S
O134 Zn135 2.035 . S
Zn135 O134 2.035 . S
Zn135 O136 2.028 . S
Zn135 O138 2.028 1_554 S
Zn135 O141 2.035 1_554 S
O136 Zn135 2.028 . S
O136 C142 1.247 . S
O137 Zn133 2.035 1_554 S
O137 C142 1.258 . S
O138 C131 1.247 . S
O138 Zn135 2.028 1_556 S
O139 C131 1.258 . S
O139 Zn133 2.035 . S
O140 Zn133 2.028 . S
O140 C143 1.247 . S
O141 Zn135 2.035 1_556 S
O141 C143 1.258 . S
C142 O136 1.247 . S
C142 O137 1.258 . S
C143 O140 1.247 . S
C143 O141 1.258 . S
C144 O146 1.247 . S
C144 O148 1.258 . S
C145 O152 1.247 . S
C145 O153 1.258 . S
O146 C144 1.247 . S
O146 Zn147 2.028 1_565 S
Zn147 O146 2.028 1_545 S
Zn147 O151 2.035 . S
Zn147 O153 2.035 . S
Zn147 O154 2.028 1_545 S
O148 C144 1.258 . S
O148 Zn149 2.035 1_565 S
Zn149 O148 2.035 1_545 S
Zn149 O150 2.028 . S
Zn149 O152 2.028 . S
Zn149 O155 2.035 1_545 S
O150 Zn149 2.028 . S
O150 C156 1.247 . S
O151 Zn147 2.035 . S
O151 C156 1.258 . S
O152 C145 1.247 . S
O152 Zn149 2.028 . S
O153 C145 1.258 . S
O153 Zn147 2.035 . S
O154 Zn147 2.028 1_565 S
O154 C157 1.247 . S
O155 Zn149 2.035 1_565 S
O155 C157 1.258 . S
C156 O150 1.247 . S
C156 O151 1.258 . S
C157 O154 1.247 . S
C157 O155 1.258 . S
C158 O160 1.247 . S
C158 O162 1.258 . S
C159 O166 1.247 . S
C159 O167 1.258 . S
O160 C158 1.247 . S
O160 Zn161 2.028 . S
Zn161 O160 2.028 . S
Zn161 O165 2.035 . S
Zn161 O167 2.035 . S
Zn161 O168 2.028 . S
O162 C158 1.258 . S
O162 Zn163 2.035 . S
Zn163 O162 2.035 . S
Zn163 O164 2.028 . S
Zn163 O166 2.028 . S
Zn163 O169 2.035 . S
O164 Zn163 2.028 . S
O164 C170 1.247 . S
O165 Zn161 2.035 . S
O165 C170 1.258 . S
O166 C159 1.247 . S
O166 Zn163 2.028 . S
O167 C159 1.258 . S
O167 Zn161 2.035 . S
O168 Zn161 2.028 . S
O168 C171 1.247 . S
O169 Zn163 2.035 . S
O169 C171 1.258 . S
C170 O164 1.247 . S
C170 O165 1.258 . S
C171 O168 1.247 . S
C171 O169 1.258 . S
H172 C184 0.930 . S
H173 C186 0.930 . S
H174 C187 0.930 . S
H175 C191 0.959 . S
H176 C191 0.959 . S
H177 C191 0.961 . S
H178 C192 0.960 . S
H179 C192 0.961 . S
H180 C192 0.959 . S
H181 C195 0.929 . S
H182 C196 0.931 . S
H183 C198 0.930 . S
C184 H172 0.930 . S
C184 C185 1.399 . S
C184 C189 1.399 . S
C185 C184 1.399 . S
C185 C186 1.376 . S
C186 H173 0.930 . S
C186 C185 1.376 . S
C186 C187 1.388 . S
C187 H174 0.930 . S
C187 C186 1.388 . S
C187 C188 1.390 . S
C188 C187 1.390 . S
C188 C189 1.394 . S
C188 C194 1.465 . S
C189 C184 1.399 . S
C189 C188 1.394 . S
C189 C190 1.516 . S
C190 C189 1.516 . S
C190 C191 1.502 . S
C190 C192 1.561 . S
C190 C193 1.526 . S
C191 H175 0.959 . S
C191 H176 0.959 . S
C191 H177 0.961 . S
C191 C190 1.502 . S
C192 H178 0.960 . S
C192 H179 0.961 . S
C192 H180 0.959 . S
C192 C190 1.561 . S
C193 C190 1.526 . S
C193 C194 1.396 . S
C193 C198 1.390 . S
C194 C188 1.465 . S
C194 C193 1.396 . S
C194 C195 1.399 . S
C195 H181 0.929 . S
C195 C194 1.399 . S
C195 C196 1.385 . S
C196 H182 0.931 . S
C196 C195 1.385 . S
C196 C197 1.389 . S
C197 C196 1.389 . S
C197 C198 1.387 . S
C198 H183 0.930 . S
C198 C193 1.390 . S
C198 C197 1.387 . S
H199 C211 0.930 . S
H200 C213 0.930 . S
H201 C214 0.930 . S
H202 C218 0.959 . S
H203 C218 0.959 . S
H204 C218 0.961 . S
H205 C219 0.960 . S
H206 C219 0.961 . S
H207 C219 0.959 . S
H208 C222 0.929 . S
H209 C223 0.931 . S
H210 C225 0.930 . S
C211 H199 0.930 . S
C211 C212 1.399 . S
C211 C216 1.399 . S
C212 C211 1.399 . S
C212 C213 1.376 . S
C213 H200 0.930 . S
C213 C212 1.376 . S
C213 C214 1.388 . S
C214 H201 0.930 . S
C214 C213 1.388 . S
C214 C215 1.390 . S
C215 C214 1.390 . S
C215 C216 1.394 . S
C215 C221 1.465 . S
C216 C211 1.399 . S
C216 C215 1.394 . S
C216 C217 1.516 . S
C217 C216 1.516 . S
C217 C218 1.502 . S
C217 C219 1.561 . S
C217 C220 1.526 . S
C218 H202 0.959 . S
C218 H203 0.959 . S
C218 H204 0.961 . S
C218 C217 1.502 . S
C219 H205 0.960 . S
C219 H206 0.961 . S
C219 H207 0.959 . S
C219 C217 1.561 . S
C220 C217 1.526 . S
C220 C221 1.396 . S
C220 C225 1.390 . S
C221 C215 1.465 . S
C221 C220 1.396 . S
C221 C222 1.399 . S
C222 H208 0.929 . S
C222 C221 1.399 . S
C222 C223 1.385 . S
C223 H209 0.931 . S
C223 C222 1.385 . S
C223 C224 1.389 . S
C224 C223 1.389 . S
C224 C225 1.387 . S
C225 H210 0.930 . S
C225 C220 1.390 . S
C225 C224 1.387 . S
H226 C238 0.930 . S
H227 C240 0.930 . S
H228 C241 0.930 . S
H229 C245 0.959 . S
H230 C245 0.959 . S
H231 C245 0.961 . S
H232 C246 0.960 . S
H233 C246 0.961 . S
H234 C246 0.959 . S
H235 C249 0.929 . S
H236 C250 0.931 . S
H237 C252 0.930 . S
C238 H226 0.930 . S
C238 C239 1.399 . S
C238 C243 1.399 . S
C239 C238 1.399 . S
C239 C240 1.376 . S
C240 H227 0.930 . S
C240 C239 1.376 . S
C240 C241 1.388 . S
C241 H228 0.930 . S
C241 C240 1.388 . S
C241 C242 1.390 . S
C242 C241 1.390 . S
C242 C243 1.394 . S
C242 C248 1.465 . S
C243 C238 1.399 . S
C243 C242 1.394 . S
C243 C244 1.516 . S
C244 C243 1.516 . S
C244 C245 1.502 . S
C244 C246 1.561 . S
C244 C247 1.526 . S
C245 H229 0.959 . S
C245 H230 0.959 . S
C245 H231 0.961 . S
C245 C244 1.502 . S
C246 H232 0.960 . S
C246 H233 0.961 . S
C246 H234 0.959 . S
C246 C244 1.561 . S
C247 C244 1.526 . S
C247 C248 1.396 . S
C247 C252 1.390 . S
C248 C242 1.465 . S
C248 C247 1.396 . S
C248 C249 1.399 . S
C249 H235 0.929 . S
C249 C248 1.399 . S
C249 C250 1.385 . S
C250 H236 0.931 . S
C250 C249 1.385 . S
C250 C251 1.389 . S
C251 C250 1.389 . S
C251 C252 1.387 . S
C252 H237 0.930 . S
C252 C247 1.390 . S
C252 C251 1.387 . S
H253 C265 0.930 . S
H254 C267 0.930 . S
H255 C268 0.930 . S
H256 C272 0.959 . S
H257 C272 0.959 . S
H258 C272 0.961 . S
H259 C273 0.960 . S
H260 C273 0.961 . S
H261 C273 0.959 . S
H262 C276 0.929 . S
H263 C277 0.931 . S
H264 C279 0.930 . S
C265 H253 0.930 . S
C265 C266 1.399 . S
C265 C270 1.399 . S
C266 C265 1.399 . S
C266 C267 1.376 1_556 S
C267 H254 0.930 . S
C267 C266 1.376 1_554 S
C267 C268 1.388 . S
C268 H255 0.930 . S
C268 C267 1.388 . S
C268 C269 1.390 1_554 S
C269 C268 1.390 1_556 S
C269 C270 1.394 . S
C269 C275 1.465 . S
C270 C265 1.399 . S
C270 C269 1.394 . S
C270 C271 1.516 . S
C271 C270 1.516 . S
C271 C272 1.502 . S
C271 C273 1.561 . S
C271 C274 1.526 . S
C272 H256 0.959 . S
C272 H257 0.959 . S
C272 H258 0.961 . S
C272 C271 1.502 . S
C273 H259 0.960 . S
C273 H260 0.961 . S
C273 H261 0.959 . S
C273 C271 1.561 . S
C274 C271 1.526 . S
C274 C275 1.396 . S
C274 C279 1.390 . S
C275 C269 1.465 . S
C275 C274 1.396 . S
C275 C276 1.399 1_556 S
C276 H262 0.929 . S
C276 C275 1.399 1_554 S
C276 C277 1.385 . S
C277 H263 0.931 . S
C277 C276 1.385 . S
C277 C278 1.389 1_554 S
C278 C277 1.389 1_556 S
C278 C279 1.387 . S
C279 H264 0.930 . S
C279 C274 1.390 . S
C279 C278 1.387 . S
H280 C292 0.930 . S
H281 C294 0.930 . S
H282 C295 0.930 . S
H283 C299 0.959 . S
H284 C299 0.959 . S
H285 C299 0.961 . S
H286 C300 0.960 . S
H287 C300 0.961 . S
H288 C300 0.959 . S
H289 C303 0.929 . S
H290 C304 0.931 . S
H291 C306 0.930 . S
C292 H280 0.930 . S
C292 C293 1.399 . S
C292 C297 1.399 . S
C293 C292 1.399 . S
C293 C294 1.376 . S
C294 H281 0.930 . S
C294 C293 1.376 . S
C294 C295 1.388 . S
C295 H282 0.930 . S
C295 C294 1.388 . S
C295 C296 1.390 . S
C296 C295 1.390 . S
C296 C297 1.394 . S
C296 C302 1.465 . S
C297 C292 1.399 . S
C297 C296 1.394 . S
C297 C298 1.516 . S
C298 C297 1.516 . S
C298 C299 1.502 . S
C298 C300 1.561 . S
C298 C301 1.526 . S
C299 H283 0.959 . S
C299 H284 0.959 . S
C299 H285 0.961 . S
C299 C298 1.502 . S
C300 H286 0.960 . S
C300 H287 0.961 . S
C300 H288 0.959 . S
C300 C298 1.561 . S
C301 C298 1.526 . S
C301 C302 1.396 . S
C301 C306 1.390 . S
C302 C296 1.465 . S
C302 C301 1.396 . S
C302 C303 1.399 . S
C303 H289 0.929 . S
C303 C302 1.399 . S
C303 C304 1.385 . S
C304 H290 0.931 . S
C304 C303 1.385 . S
C304 C305 1.389 . S
C305 C304 1.389 . S
C305 C306 1.387 . S
C306 H291 0.930 . S
C306 C301 1.390 . S
C306 C305 1.387 . S
H307 C319 0.930 . S
H308 C321 0.930 . S
H309 C322 0.930 . S
H310 C326 0.959 . S
H311 C326 0.959 . S
H312 C326 0.961 . S
H313 C327 0.960 . S
H314 C327 0.961 . S
H315 C327 0.959 . S
H316 C330 0.929 . S
H317 C331 0.931 . S
H318 C333 0.930 . S
C319 H307 0.930 . S
C319 C320 1.399 . S
C319 C324 1.399 . S
C320 C319 1.399 . S
C320 C321 1.376 . S
C321 H308 0.930 . S
C321 C320 1.376 . S
C321 C322 1.388 . S
C322 H309 0.930 . S
C322 C321 1.388 . S
C322 C323 1.390 . S
C323 C322 1.390 . S
C323 C324 1.394 . S
C323 C329 1.465 . S
C324 C319 1.399 . S
C324 C323 1.394 . S
C324 C325 1.516 . S
C325 C324 1.516 . S
C325 C326 1.502 . S
C325 C327 1.561 . S
C325 C328 1.526 . S
C326 H310 0.959 . S
C326 H311 0.959 . S
C326 H312 0.961 . S
C326 C325 1.502 . S
C327 H313 0.960 . S
C327 H314 0.961 . S
C327 H315 0.959 . S
C327 C325 1.561 . S
C328 C325 1.526 . S
C328 C329 1.396 . S
C328 C333 1.390 . S
C329 C323 1.465 . S
C329 C328 1.396 . S
C329 C330 1.399 . S
C330 H316 0.929 . S
C330 C329 1.399 . S
C330 C331 1.385 . S
C331 H317 0.931 . S
C331 C330 1.385 . S
C331 C332 1.389 . S
C332 C331 1.389 . S
C332 C333 1.387 . S
C333 H318 0.930 . S
C333 C328 1.390 . S
C333 C332 1.387 . S
H334 C346 0.930 . S
H335 C348 0.930 . S
H336 C349 0.930 . S
H337 C353 0.959 . S
H338 C353 0.959 . S
H339 C353 0.961 . S
H340 C354 0.960 . S
H341 C354 0.961 . S
H342 C354 0.959 . S
H343 C357 0.929 . S
H344 C358 0.931 . S
H345 C360 0.930 . S
C346 H334 0.930 . S
C346 C347 1.399 . S
C346 C351 1.399 . S
C347 C346 1.399 . S
C347 C348 1.376 . S
C348 H335 0.930 . S
C348 C347 1.376 . S
C348 C349 1.388 . S
C349 H336 0.930 . S
C349 C348 1.388 . S
C349 C350 1.390 . S
C350 C349 1.390 . S
C350 C351 1.394 . S
C350 C356 1.465 . S
C351 C346 1.399 . S
C351 C350 1.394 . S
C351 C352 1.516 . S
C352 C351 1.516 . S
C352 C353 1.502 . S
C352 C354 1.561 . S
C352 C355 1.526 . S
C353 H337 0.959 . S
C353 H338 0.959 . S
C353 H339 0.961 . S
C353 C352 1.502 . S
C354 H340 0.960 . S
C354 H341 0.961 . S
C354 H342 0.959 . S
C354 C352 1.561 . S
C355 C352 1.526 . S
C355 C356 1.396 . S
C355 C360 1.390 . S
C356 C350 1.465 . S
C356 C355 1.396 . S
C356 C357 1.399 . S
C357 H343 0.929 . S
C357 C356 1.399 . S
C357 C358 1.385 . S
C358 H344 0.931 . S
C358 C357 1.385 . S
C358 C359 1.389 . S
C359 C358 1.389 . S
C359 C360 1.387 . S
C360 H345 0.930 . S
C360 C355 1.390 . S
C360 C359 1.387 . S
H361 C373 0.930 . S
H362 C375 0.930 1_556 S
H363 C376 0.930 . S
H364 C380 0.959 . S
H365 C380 0.959 . S
H366 C380 0.961 . S
H367 C381 0.960 . S
H368 C381 0.961 . S
H369 C381 0.959 . S
H370 C384 0.929 . S
H371 C385 0.931 . S
H372 C387 0.930 . S
C373 H361 0.930 . S
C373 C374 1.399 . S
C373 C378 1.399 . S
C374 C373 1.399 . S
C374 C375 1.376 . S
C375 H362 0.930 1_554 S
C375 C374 1.376 . S
C375 C376 1.388 . S
C376 H363 0.930 . S
C376 C375 1.388 . S
C376 C377 1.390 . S
C377 C376 1.390 . S
C377 C378 1.394 . S
C377 C383 1.465 . S
C378 C373 1.399 . S
C378 C377 1.394 . S
C378 C379 1.516 . S
C379 C378 1.516 . S
C379 C380 1.502 . S
C379 C381 1.561 . S
C379 C382 1.526 . S
C380 H364 0.959 . S
C380 H365 0.959 . S
C380 H366 0.961 . S
C380 C379 1.502 . S
C381 H367 0.960 . S
C381 H368 0.961 . S
C381 H369 0.959 . S
C381 C379 1.561 . S
C382 C379 1.526 . S
C382 C383 1.396 . S
C382 C387 1.390 . S
C383 C377 1.465 . S
C383 C382 1.396 . S
C383 C384 1.399 . S
C384 H370 0.929 . S
C384 C383 1.399 . S
C384 C385 1.385 . S
C385 H371 0.931 . S
C385 C384 1.385 . S
C385 C386 1.389 . S
C386 C385 1.389 . S
C386 C387 1.387 . S
C387 H372 0.930 . S
C387 C382 1.390 . S
C387 C386 1.387 . S
H388 C400 0.930 . S
H389 C402 0.930 . S
H390 C403 0.930 . S
H391 C407 0.959 . S
H392 C407 0.959 . S
H393 C407 0.961 . S
H394 C408 0.960 . S
H395 C408 0.961 . S
H396 C408 0.959 . S
H397 C411 0.929 . S
H398 C412 0.931 . S
H399 C414 0.930 . S
C400 H388 0.930 . S
C400 C401 1.399 . S
C400 C405 1.399 . S
C401 C400 1.399 . S
C401 C402 1.376 . S
C402 H389 0.930 . S
C402 C401 1.376 . S
C402 C403 1.388 . S
C403 H390 0.930 . S
C403 C402 1.388 . S
C403 C404 1.390 . S
C404 C403 1.390 . S
C404 C405 1.394 . S
C404 C410 1.465 . S
C405 C400 1.399 . S
C405 C404 1.394 . S
C405 C406 1.516 . S
C406 C405 1.516 . S
C406 C407 1.502 . S
C406 C408 1.561 . S
C406 C409 1.526 . S
C407 H391 0.959 . S
C407 H392 0.959 . S
C407 H393 0.961 . S
C407 C406 1.502 . S
C408 H394 0.960 . S
C408 H395 0.961 . S
C408 H396 0.959 . S
C408 C406 1.561 . S
C409 C406 1.526 . S
C409 C410 1.396 . S
C409 C414 1.390 . S
C410 C404 1.465 . S
C410 C409 1.396 . S
C410 C411 1.399 . S
C411 H397 0.929 . S
C411 C410 1.399 . S
C411 C412 1.385 . S
C412 H398 0.931 . S
C412 C411 1.385 . S
C412 C413 1.389 . S
C413 C412 1.389 . S
C413 C414 1.387 . S
C414 H399 0.930 . S
C414 C409 1.390 . S
C414 C413 1.387 . S
H415 C427 0.930 . S
H416 C429 0.930 . S
H417 C430 0.930 . S
H418 C434 0.959 . S
H419 C434 0.959 . S
H420 C434 0.961 . S
H421 C435 0.960 . S
H422 C435 0.961 . S
H423 C435 0.959 . S
H424 C438 0.929 . S
H425 C439 0.931 . S
H426 C441 0.930 . S
C427 H415 0.930 . S
C427 C428 1.399 . S
C427 C432 1.399 . S
C428 C427 1.399 . S
C428 C429 1.376 . S
C429 H416 0.930 . S
C429 C428 1.376 . S
C429 C430 1.388 . S
C430 H417 0.930 . S
C430 C429 1.388 . S
C430 C431 1.390 . S
C431 C430 1.390 . S
C431 C432 1.394 . S
C431 C437 1.465 . S
C432 C427 1.399 . S
C432 C431 1.394 . S
C432 C433 1.516 . S
C433 C432 1.516 . S
C433 C434 1.502 . S
C433 C435 1.561 . S
C433 C436 1.526 . S
C434 H418 0.959 . S
C434 H419 0.959 . S
C434 H420 0.961 . S
C434 C433 1.502 . S
C435 H421 0.960 . S
C435 H422 0.961 . S
C435 H423 0.959 . S
C435 C433 1.561 . S
C436 C433 1.526 . S
C436 C437 1.396 . S
C436 C441 1.390 . S
C437 C431 1.465 . S
C437 C436 1.396 . S
C437 C438 1.399 . S
C438 H424 0.929 . S
C438 C437 1.399 . S
C438 C439 1.385 . S
C439 H425 0.931 . S
C439 C438 1.385 . S
C439 C440 1.389 . S
C440 C439 1.389 . S
C440 C441 1.387 . S
C441 H426 0.930 . S
C441 C436 1.390 . S
C441 C440 1.387 . S
H442 C454 0.930 . S
H443 C456 0.930 . S
H444 C457 0.930 . S
H445 C461 0.959 . S
H446 C461 0.959 . S
H447 C461 0.961 . S
H448 C462 0.960 . S
H449 C462 0.961 . S
H450 C462 0.959 . S
H451 C465 0.929 . S
H452 C466 0.931 . S
H453 C468 0.930 . S
C454 H442 0.930 . S
C454 C455 1.399 . S
C454 C459 1.399 . S
C455 C454 1.399 . S
C455 C456 1.376 . S
C456 H443 0.930 . S
C456 C455 1.376 . S
C456 C457 1.388 . S
C457 H444 0.930 . S
C457 C456 1.388 . S
C457 C458 1.390 . S
C458 C457 1.390 . S
C458 C459 1.394 . S
C458 C464 1.465 . S
C459 C454 1.399 . S
C459 C458 1.394 . S
C459 C460 1.516 . S
C460 C459 1.516 . S
C460 C461 1.502 . S
C460 C462 1.561 . S
C460 C463 1.526 . S
C461 H445 0.959 . S
C461 H446 0.959 . S
C461 H447 0.961 . S
C461 C460 1.502 . S
C462 H448 0.960 . S
C462 H449 0.961 . S
C462 H450 0.959 . S
C462 C460 1.561 . S
C463 C460 1.526 . S
C463 C464 1.396 . S
C463 C468 1.390 . S
C464 C458 1.465 . S
C464 C463 1.396 . S
C464 C465 1.399 . S
C465 H451 0.929 . S
C465 C464 1.399 . S
C465 C466 1.385 . S
C466 H452 0.931 . S
C466 C465 1.385 . S
C466 C467 1.389 . S
C467 C466 1.389 . S
C467 C468 1.387 . S
C468 H453 0.930 . S
C468 C463 1.390 . S
C468 C467 1.387 . S
H469 C481 0.930 . S
H470 C483 0.930 . S
H471 C484 0.930 . S
H472 C488 0.959 . S
H473 C488 0.959 . S
H474 C488 0.961 . S
H475 C489 0.960 . S
H476 C489 0.961 . S
H477 C489 0.959 . S
H478 C492 0.929 . S
H479 C493 0.931 . S
H480 C495 0.930 . S
C481 H469 0.930 . S
C481 C482 1.399 . S
C481 C486 1.399 . S
C482 C481 1.399 . S
C482 C483 1.376 . S
C483 H470 0.930 . S
C483 C482 1.376 . S
C483 C484 1.388 . S
C484 H471 0.930 . S
C484 C483 1.388 . S
C484 C485 1.390 . S
C485 C484 1.390 . S
C485 C486 1.394 . S
C485 C491 1.465 . S
C486 C481 1.399 . S
C486 C485 1.394 . S
C486 C487 1.516 . S
C487 C486 1.516 . S
C487 C488 1.502 . S
C487 C489 1.561 . S
C487 C490 1.526 . S
C488 H472 0.959 . S
C488 H473 0.959 . S
C488 H474 0.961 . S
C488 C487 1.502 . S
C489 H475 0.960 . S
C489 H476 0.961 . S
C489 H477 0.959 . S
C489 C487 1.561 . S
C490 C487 1.526 . S
C490 C491 1.396 . S
C490 C495 1.390 . S
C491 C485 1.465 . S
C491 C490 1.396 . S
C491 C492 1.399 . S
C492 H478 0.929 . S
C492 C491 1.399 . S
C492 C493 1.385 . S
C493 H479 0.931 . S
C493 C492 1.385 . S
C493 C494 1.389 . S
C494 C493 1.389 . S
C494 C495 1.387 . S
C495 H480 0.930 . S
C495 C490 1.390 . S
C495 C494 1.387 . S
H496 C508 0.930 . S
H497 C510 0.930 . S
H498 C511 0.930 . S
H499 C515 0.959 . S
H500 C515 0.959 . S
H501 C515 0.961 . S
H502 C516 0.960 . S
H503 C516 0.961 . S
H504 C516 0.959 . S
H505 C519 0.929 . S
H506 C520 0.931 . S
H507 C522 0.930 . S
C508 H496 0.930 . S
C508 C509 1.399 . S
C508 C513 1.399 . S
C509 C508 1.399 . S
C509 C510 1.376 . S
C510 H497 0.930 . S
C510 C509 1.376 . S
C510 C511 1.388 . S
C511 H498 0.930 . S
C511 C510 1.388 . S
C511 C512 1.390 . S
C512 C511 1.390 . S
C512 C513 1.394 . S
C512 C518 1.465 . S
C513 C508 1.399 . S
C513 C512 1.394 . S
C513 C514 1.516 . S
C514 C513 1.516 . S
C514 C515 1.502 . S
C514 C516 1.561 . S
C514 C517 1.526 . S
C515 H499 0.959 . S
C515 H500 0.959 . S
C515 H501 0.961 . S
C515 C514 1.502 . S
C516 H502 0.960 . S
C516 H503 0.961 . S
C516 H504 0.959 . S
C516 C514 1.561 . S
C517 C514 1.526 . S
C517 C518 1.396 . S
C517 C522 1.390 . S
C518 C512 1.465 . S
C518 C517 1.396 . S
C518 C519 1.399 . S
C519 H505 0.929 . S
C519 C518 1.399 . S
C519 C520 1.385 . S
C520 H506 0.931 . S
C520 C519 1.385 . S
C520 C521 1.389 . S
C521 C520 1.389 . S
C521 C522 1.387 . S
C522 H507 0.930 . S
C522 C517 1.390 . S
C522 C521 1.387 . S
H523 C535 0.930 . S
H524 C537 0.930 . S
H525 C538 0.930 . S
H526 C542 0.959 . S
H527 C542 0.959 . S
H528 C542 0.961 . S
H529 C543 0.960 . S
H530 C543 0.961 . S
H531 C543 0.959 . S
H532 C546 0.929 . S
H533 C547 0.931 . S
H534 C549 0.930 . S
C535 H523 0.930 . S
C535 C536 1.399 . S
C535 C540 1.399 . S
C536 C535 1.399 . S
C536 C537 1.376 . S
C537 H524 0.930 . S
C537 C536 1.376 . S
C537 C538 1.388 . S
C538 H525 0.930 . S
C538 C537 1.388 . S
C538 C539 1.390 . S
C539 C538 1.390 . S
C539 C540 1.394 . S
C539 C545 1.465 . S
C540 C535 1.399 . S
C540 C539 1.394 . S
C540 C541 1.516 . S
C541 C540 1.516 . S
C541 C542 1.502 . S
C541 C543 1.561 . S
C541 C544 1.526 . S
C542 H526 0.959 . S
C542 H527 0.959 . S
C542 H528 0.961 . S
C542 C541 1.502 . S
C543 H529 0.960 . S
C543 H530 0.961 . S
C543 H531 0.959 . S
C543 C541 1.561 . S
C544 C541 1.526 . S
C544 C545 1.396 . S
C544 C549 1.390 . S
C545 C539 1.465 . S
C545 C544 1.396 . S
C545 C546 1.399 . S
C546 H532 0.929 . S
C546 C545 1.399 . S
C546 C547 1.385 . S
C547 H533 0.931 . S
C547 C546 1.385 . S
C547 C548 1.389 . S
C548 C547 1.389 . S
C548 C549 1.387 . S
C549 H534 0.930 . S
C549 C544 1.390 . S
C549 C548 1.387 . S
H550 C562 0.930 . S
H551 C564 0.930 . S
H552 C565 0.930 1_554 S
H553 C569 0.959 . S
H554 C569 0.959 . S
H555 C569 0.961 . S
H556 C570 0.960 . S
H557 C570 0.961 . S
H558 C570 0.959 . S
H559 C573 0.939 . S
H560 C574 0.931 1_554 S
H561 C576 0.930 . S
C562 H550 0.930 . S
C562 C563 1.399 . S
C562 C567 1.399 . S
C563 C562 1.399 . S
C563 C564 1.376 . S
C564 H551 0.930 . S
C564 C563 1.376 . S
C564 C565 1.388 . S
C565 H552 0.930 1_556 S
C565 C564 1.388 . S
C565 C566 1.390 . S
C566 C565 1.390 . S
C566 C567 1.394 . S
C566 C572 1.465 . S
C567 C562 1.399 . S
C567 C566 1.394 . S
C567 C568 1.516 . S
C568 C567 1.516 . S
C568 C569 1.502 . S
C568 C570 1.561 . S
C568 C571 1.526 . S
C569 H553 0.959 . S
C569 H554 0.959 . S
C569 H555 0.961 . S
C569 C568 1.502 . S
C570 H556 0.960 . S
C570 H557 0.961 . S
C570 H558 0.959 . S
C570 C568 1.561 . S
C571 C568 1.526 . S
C571 C572 1.396 . S
C571 C576 1.390 . S
C572 C566 1.465 . S
C572 C571 1.396 . S
C572 C573 1.391 1_556 S
C573 H559 0.939 . S
C573 C572 1.391 1_554 S
C573 C574 1.382 1_554 S
C574 H560 0.931 1_556 S
C574 C573 1.382 1_556 S
C574 C575 1.389 . S
C575 C574 1.389 . S
C575 C576 1.387 . S
C576 H561 0.930 . S
C576 C571 1.390 . S
C576 C575 1.387 . S
H577 C589 0.930 . S
H578 C591 0.930 . S
H579 C592 0.930 . S
H580 C596 0.959 . S
H581 C596 0.959 . S
H582 C596 0.961 . S
H583 C597 0.960 . S
H584 C597 0.961 . S
H585 C597 0.959 . S
H586 C600 0.929 . S
H587 C601 0.931 . S
H588 C603 0.930 . S
C589 H577 0.930 . S
C589 C590 1.399 . S
C589 C594 1.399 . S
C590 C589 1.399 . S
C590 C591 1.376 . S
C591 H578 0.930 . S
C591 C590 1.376 . S
C591 C592 1.388 . S
C592 H579 0.930 . S
C592 C591 1.388 . S
C592 C593 1.390 . S
C593 C592 1.390 . S
C593 C594 1.394 . S
C593 C599 1.465 . S
C594 C589 1.399 . S
C594 C593 1.394 . S
C594 C595 1.516 . S
C595 C594 1.516 . S
C595 C596 1.502 . S
C595 C597 1.561 . S
C595 C598 1.526 . S
C596 H580 0.959 . S
C596 H581 0.959 . S
C596 H582 0.961 . S
C596 C595 1.502 . S
C597 H583 0.960 . S
C597 H584 0.961 . S
C597 H585 0.959 . S
C597 C595 1.561 . S
C598 C595 1.526 . S
C598 C599 1.396 . S
C598 C603 1.390 . S
C599 C593 1.465 . S
C599 C598 1.396 . S
C599 C600 1.399 . S
C600 H586 0.929 . S
C600 C599 1.399 . S
C600 C601 1.385 . S
C601 H587 0.931 . S
C601 C600 1.385 . S
C601 C602 1.389 . S
C602 C601 1.389 . S
C602 C603 1.387 . S
C603 H588 0.930 . S
C603 C598 1.390 . S
C603 C602 1.387 . S
H604 C616 0.930 . S
H605 C618 0.930 . S
H606 C619 0.930 . S
H607 C623 0.959 . S
H608 C623 0.959 . S
H609 C623 0.961 . S
H610 C624 0.960 . S
H611 C624 0.961 . S
H612 C624 0.959 . S
H613 C627 0.929 . S
H614 C628 0.931 . S
H615 C630 0.930 . S
C616 H604 0.930 . S
C616 C617 1.399 . S
C616 C621 1.399 . S
C617 C616 1.399 . S
C617 C618 1.376 . S
C618 H605 0.930 . S
C618 C617 1.376 . S
C618 C619 1.388 . S
C619 H606 0.930 . S
C619 C618 1.388 . S
C619 C620 1.390 . S
C620 C619 1.390 . S
C620 C621 1.394 . S
C620 C626 1.465 . S
C621 C616 1.399 . S
C621 C620 1.394 . S
C621 C622 1.516 . S
C622 C621 1.516 . S
C622 C623 1.502 . S
C622 C624 1.561 . S
C622 C625 1.526 . S
C623 H607 0.959 . S
C623 H608 0.959 . S
C623 H609 0.961 . S
C623 C622 1.502 . S
C624 H610 0.960 . S
C624 H611 0.961 . S
C624 H612 0.959 . S
C624 C622 1.561 . S
C625 C622 1.526 . S
C625 C626 1.396 . S
C625 C630 1.390 . S
C626 C620 1.465 . S
C626 C625 1.396 . S
C626 C627 1.399 . S
C627 H613 0.929 . S
C627 C626 1.399 . S
C627 C628 1.385 . S
C628 H614 0.931 . S
C628 C627 1.385 . S
C628 C629 1.389 . S
C629 C628 1.389 . S
C629 C630 1.387 . S
C630 H615 0.930 . S
C630 C625 1.390 . S
C630 C629 1.387 . S
H631 C643 0.930 . S
H632 C645 0.930 . S
H633 C646 0.930 . S
H634 C650 0.959 . S
H635 C650 0.959 . S
H636 C650 0.961 . S
H637 C651 0.960 . S
H638 C651 0.961 . S
H639 C651 0.959 . S
H640 C654 0.929 . S
H641 C655 0.931 . S
H642 C657 0.930 . S
C643 H631 0.930 . S
C643 C644 1.399 . S
C643 C648 1.399 . S
C644 C643 1.399 . S
C644 C645 1.376 . S
C645 H632 0.930 . S
C645 C644 1.376 . S
C645 C646 1.388 . S
C646 H633 0.930 . S
C646 C645 1.388 . S
C646 C647 1.390 . S
C647 C646 1.390 . S
C647 C648 1.394 . S
C647 C653 1.465 . S
C648 C643 1.399 . S
C648 C647 1.394 . S
C648 C649 1.516 . S
C649 C648 1.516 . S
C649 C650 1.502 . S
C649 C651 1.561 . S
C649 C652 1.526 . S
C650 H634 0.959 . S
C650 H635 0.959 . S
C650 H636 0.961 . S
C650 C649 1.502 . S
C651 H637 0.960 . S
C651 H638 0.961 . S
C651 H639 0.959 . S
C651 C649 1.561 . S
C652 C649 1.526 . S
C652 C653 1.396 . S
C652 C657 1.390 . S
C653 C647 1.465 . S
C653 C652 1.396 . S
C653 C654 1.399 . S
C654 H640 0.929 . S
C654 C653 1.399 . S
C654 C655 1.385 . S
C655 H641 0.931 . S
C655 C654 1.385 . S
C655 C656 1.389 . S
C656 C655 1.389 . S
C656 C657 1.387 . S
C657 H642 0.930 . S
C657 C652 1.390 . S
C657 C656 1.387 . S
H658 C670 0.930 . S
H659 C672 0.930 . S
H660 C673 0.930 . S
H661 C677 0.959 . S
H662 C677 0.959 . S
H663 C677 0.961 . S
H664 C678 0.960 . S
H665 C678 0.961 . S
H666 C678 0.959 . S
H667 C681 0.929 . S
H668 C682 0.931 . S
H669 C684 0.930 . S
C670 H658 0.930 . S
C670 C671 1.399 . S
C670 C675 1.399 . S
C671 C670 1.399 . S
C671 C672 1.376 . S
C672 H659 0.930 . S
C672 C671 1.376 . S
C672 C673 1.388 . S
C673 H660 0.930 . S
C673 C672 1.388 . S
C673 C674 1.390 . S
C674 C673 1.390 . S
C674 C675 1.394 . S
C674 C680 1.465 . S
C675 C670 1.399 . S
C675 C674 1.394 . S
C675 C676 1.516 . S
C676 C675 1.516 . S
C676 C677 1.502 . S
C676 C678 1.561 . S
C676 C679 1.526 . S
C677 H661 0.959 . S
C677 H662 0.959 . S
C677 H663 0.961 . S
C677 C676 1.502 . S
C678 H664 0.960 . S
C678 H665 0.961 . S
C678 H666 0.959 . S
C678 C676 1.561 . S
C679 C676 1.526 . S
C679 C680 1.396 . S
C679 C684 1.390 . S
C680 C674 1.465 . S
C680 C679 1.396 . S
C680 C681 1.399 . S
C681 H667 0.929 . S
C681 C680 1.399 . S
C681 C682 1.385 . S
C682 H668 0.931 . S
C682 C681 1.385 . S
C682 C683 1.389 . S
C683 C682 1.389 . S
C683 C684 1.387 . S
C684 H669 0.930 . S
C684 C679 1.390 . S
C684 C683 1.387 . S
H685 C697 0.930 . S
H686 C699 0.930 . S
H687 C700 0.930 . S
H688 C704 0.959 . S
H689 C704 0.959 . S
H690 C704 0.961 . S
H691 C705 0.960 . S
H692 C705 0.961 . S
H693 C705 0.959 . S
H694 C708 0.929 . S
H695 C709 0.931 . S
H696 C711 0.930 . S
C697 H685 0.930 . S
C697 C698 1.399 . S
C697 C702 1.399 . S
C698 C697 1.399 . S
C698 C699 1.376 . S
C699 H686 0.930 . S
C699 C698 1.376 . S
C699 C700 1.388 . S
C700 H687 0.930 . S
C700 C699 1.388 . S
C700 C701 1.390 . S
C701 C700 1.390 . S
C701 C702 1.394 . S
C701 C707 1.465 . S
C702 C697 1.399 . S
C702 C701 1.394 . S
C702 C703 1.516 . S
C703 C702 1.516 . S
C703 C704 1.502 . S
C703 C705 1.561 . S
C703 C706 1.526 . S
C704 H688 0.959 . S
C704 H689 0.959 . S
C704 H690 0.961 . S
C704 C703 1.502 . S
C705 H691 0.960 . S
C705 H692 0.961 . S
C705 H693 0.959 . S
C705 C703 1.561 . S
C706 C703 1.526 . S
C706 C707 1.396 . S
C706 C711 1.390 . S
C707 C701 1.465 . S
C707 C706 1.396 . S
C707 C708 1.399 . S
C708 H694 0.929 . S
C708 C707 1.399 . S
C708 C709 1.385 . S
C709 H695 0.931 . S
C709 C708 1.385 . S
C709 C710 1.389 . S
C710 C709 1.389 . S
C710 C711 1.387 . S
C711 H696 0.930 . S
C711 C706 1.390 . S
C711 C710 1.387 . S
H712 C724 0.930 . S
H713 C726 0.930 . S
H714 C727 0.930 . S
H715 C731 0.959 . S
H716 C731 0.959 . S
H717 C731 0.961 . S
H718 C732 0.960 . S
H719 C732 0.961 . S
H720 C732 0.959 . S
H721 C735 0.929 . S
H722 C736 0.931 . S
H723 C738 0.930 . S
C724 H712 0.930 . S
C724 C725 1.399 . S
C724 C729 1.399 . S
C725 C724 1.399 . S
C725 C726 1.376 . S
C726 H713 0.930 . S
C726 C725 1.376 . S
C726 C727 1.388 . S
C727 H714 0.930 . S
C727 C726 1.388 . S
C727 C728 1.390 . S
C728 C727 1.390 . S
C728 C729 1.394 . S
C728 C734 1.465 . S
C729 C724 1.399 . S
C729 C728 1.394 . S
C729 C730 1.516 . S
C730 C729 1.516 . S
C730 C731 1.502 . S
C730 C732 1.561 . S
C730 C733 1.526 . S
C731 H715 0.959 . S
C731 H716 0.959 . S
C731 H717 0.961 . S
C731 C730 1.502 . S
C732 H718 0.960 . S
C732 H719 0.961 . S
C732 H720 0.959 . S
C732 C730 1.561 . S
C733 C730 1.526 . S
C733 C734 1.396 . S
C733 C738 1.390 . S
C734 C728 1.465 . S
C734 C733 1.396 . S
C734 C735 1.399 . S
C735 H721 0.929 . S
C735 C734 1.399 . S
C735 C736 1.385 . S
C736 H722 0.931 . S
C736 C735 1.385 . S
C736 C737 1.389 . S
C737 C736 1.389 . S
C737 C738 1.387 . S
C738 H723 0.930 . S
C738 C733 1.390 . S
C738 C737 1.387 . S
H739 C751 0.930 . S
H740 C753 0.930 1_556 S
H741 C754 0.930 . S
H742 C758 0.959 . S
H743 C758 0.959 . S
H744 C758 0.961 . S
H745 C759 0.974 . S
H746 C759 0.961 . S
H747 C759 0.959 . S
H748 C762 0.929 . S
H749 C763 0.931 . S
H750 C765 0.930 . S
C751 H739 0.930 . S
C751 C752 1.399 1_554 S
C751 C756 1.399 . S
C752 C751 1.399 1_556 S
C752 C753 1.376 1_556 S
C753 H740 0.930 1_554 S
C753 C752 1.376 1_554 S
C753 C754 1.388 . S
C754 H741 0.930 . S
C754 C753 1.388 . S
C754 C755 1.390 . S
C755 C754 1.390 . S
C755 C756 1.394 . S
C755 C761 1.465 . S
C756 C751 1.399 . S
C756 C755 1.394 . S
C756 C757 1.516 . S
C757 C756 1.516 . S
C757 C758 1.502 . S
C757 C759 1.561 . S
C757 C760 1.526 . S
C758 H742 0.959 . S
C758 H743 0.959 . S
C758 H744 0.961 . S
C758 C757 1.502 . S
C759 H745 0.974 . S
C759 H746 0.961 . S
C759 H747 0.959 . S
C759 C757 1.561 . S
C760 C757 1.526 . S
C760 C761 1.396 . S
C760 C765 1.390 . S
C761 C755 1.465 . S
C761 C760 1.396 . S
C761 C762 1.399 . S
C762 H748 0.929 . S
C762 C761 1.399 . S
C762 C763 1.385 . S
C763 H749 0.931 . S
C763 C762 1.385 . S
C763 C764 1.389 . S
C764 C763 1.389 . S
C764 C765 1.387 . S
C765 H750 0.930 . S
C765 C760 1.390 . S
C765 C764 1.387 . S
H766 C778 0.930 . S
H767 C780 0.930 . S
H768 C781 0.930 . S
H769 C785 0.959 . S
H770 C785 0.959 . S
H771 C785 0.961 . S
H772 C786 0.960 . S
H773 C786 0.961 . S
H774 C786 0.959 . S
H775 C789 0.929 . S
H776 C790 0.931 . S
H777 C792 0.930 . S
C778 H766 0.930 . S
C778 C779 1.399 . S
C778 C783 1.399 . S
C779 C778 1.399 . S
C779 C780 1.376 . S
C780 H767 0.930 . S
C780 C779 1.376 . S
C780 C781 1.388 . S
C781 H768 0.930 . S
C781 C780 1.388 . S
C781 C782 1.390 . S
C782 C781 1.390 . S
C782 C783 1.394 . S
C782 C788 1.465 . S
C783 C778 1.399 . S
C783 C782 1.394 . S
C783 C784 1.516 . S
C784 C783 1.516 . S
C784 C785 1.502 . S
C784 C786 1.561 . S
C784 C787 1.526 . S
C785 H769 0.959 . S
C785 H770 0.959 . S
C785 H771 0.961 . S
C785 C784 1.502 . S
C786 H772 0.960 . S
C786 H773 0.961 . S
C786 H774 0.959 . S
C786 C784 1.561 . S
C787 C784 1.526 . S
C787 C788 1.396 . S
C787 C792 1.390 . S
C788 C782 1.465 . S
C788 C787 1.396 . S
C788 C789 1.399 . S
C789 H775 0.929 . S
C789 C788 1.399 . S
C789 C790 1.385 . S
C790 H776 0.931 . S
C790 C789 1.385 . S
C790 C791 1.389 . S
C791 C790 1.389 . S
C791 C792 1.387 . S
C792 H777 0.930 . S
C792 C787 1.390 . S
C792 C791 1.387 . S
H793 C805 0.930 . S
H794 C807 0.930 . S
H795 C808 0.930 . S
H796 C812 0.959 . S
H797 C812 0.959 . S
H798 C812 0.961 . S
H799 C813 0.960 . S
H800 C813 0.961 . S
H801 C813 0.959 . S
H802 C816 0.929 . S
H803 C817 0.931 . S
H804 C819 0.930 . S
C805 H793 0.930 . S
C805 C806 1.399 . S
C805 C810 1.399 . S
C806 C805 1.399 . S
C806 C807 1.376 . S
C807 H794 0.930 . S
C807 C806 1.376 . S
C807 C808 1.388 . S
C808 H795 0.930 . S
C808 C807 1.388 . S
C808 C809 1.390 . S
C809 C808 1.390 . S
C809 C810 1.394 . S
C809 C815 1.465 . S
C810 C805 1.399 . S
C810 C809 1.394 . S
C810 C811 1.516 . S
C811 C810 1.516 . S
C811 C812 1.502 . S
C811 C813 1.561 . S
C811 C814 1.526 . S
C812 H796 0.959 . S
C812 H797 0.959 . S
C812 H798 0.961 . S
C812 C811 1.502 . S
C813 H799 0.960 . S
C813 H800 0.961 . S
C813 H801 0.959 . S
C813 C811 1.561 . S
C814 C811 1.526 . S
C814 C815 1.396 . S
C814 C819 1.390 . S
C815 C809 1.465 . S
C815 C814 1.396 . S
C815 C816 1.399 . S
C816 H802 0.929 . S
C816 C815 1.399 . S
C816 C817 1.385 . S
C817 H803 0.931 . S
C817 C816 1.385 . S
C817 C818 1.389 . S
C818 C817 1.389 . S
C818 C819 1.387 . S
C819 H804 0.930 . S
C819 C814 1.390 . S
C819 C818 1.387 . S
C197 C100 1.511 . S
C185 C10 1.523 . S
C224 C103 1.698 . S
C212 C15 1.660 . S
C251 C101 1.423 . S
C239 C26 1.399 . S
C278 C102 1.508 . S
C266 C37 1.510 . S
C305 C117 1.736 . S
C293 C4 1.743 . S
C332 C131 1.677 . S
C320 C16 1.646 . S
C347 C27 1.595 . S
C359 C157 1.590 . S
C386 C171 1.401 . S
C374 C43 1.383 . S
C413 C116 1.655 . S
C401 C21 1.680 . S
C428 C32 1.451 . S
C440 C130 1.443 . S
C467 C156 1.585 . S
C455 C38 1.569 . S
C494 C170 1.567 . S
C482 C5 1.549 . S
C509 C49 1.740 . S
C521 C115 1.707 . S
C548 C88 1.585 . S
C536 C60 1.587 . S
C563 C76 1.562 . S
C575 C114 1.563 . S
C590 C81 1.495 . S
C602 C89 1.548 . S
C629 C144 1.467 . S
C617 C54 1.473 . S
C656 C158 1.601 . S
C644 C59 1.581 . S
C683 C128 1.571 . S
C671 C70 1.602 . S
C698 C87 1.628 . S
C710 C142 1.598 . S
C737 C145 1.523 . S
C725 C65 1.531 . S
C764 C159 1.603 . S
C752 C71 1.587 . S
C791 C129 1.603 . S
C779 C82 1.588 . S
C806 C48 1.709 . S
C818 C143 1.709 . S
