# Generated by pormake.
# Topology anh, (6,3)-cn, num edge types: 1
# Building blocks:
#     Node 0, Type 0, BuildingBlock: INOVEN_clean_sbu_0, # of connection points: 6
#     Node 1, Type 0, BuildingBlock: INOVEN_clean_sbu_0, # of connection points: 6
#     Node 2, Type 0, BuildingBlock: INOVEN_clean_sbu_0, # of connection points: 6
#     Node 3, Type 1, BuildingBlock: ESEHIV_clean_linker_0, # of connection points: 3
#     Node 4, Type 1, BuildingBlock: ESEHIV_clean_linker_0, # of connection points: 3
#     Node 5, Type 1, BuildingBlock: ESEHIV_clean_linker_0, # of connection points: 3
#     Node 6, Type 1, BuildingBlock: ESEHIV_clean_linker_0, # of connection points: 3
#     Node 7, Type 1, BuildingBlock: ESEHIV_clean_linker_0, # of connection points: 3
#     Node 8, Type 1, BuildingBlock: ESEHIV_clean_linker_0, # of connection points: 3
#     Edge 9, Type (0, 1), BuildingBlock: MIFKUJ_clean_linker_0, # of connection points: 2
#     Edge 10, Type (0, 1), BuildingBlock: MIFKUJ_clean_linker_0, # of connection points: 2
#     Edge 11, Type (0, 1), BuildingBlock: MIFKUJ_clean_linker_0, # of connection points: 2
#     Edge 12, Type (0, 1), BuildingBlock: MIFKUJ_clean_linker_0, # of connection points: 2
#     Edge 13, Type (0, 1), BuildingBlock: MIFKUJ_clean_linker_0, # of connection points: 2
#     Edge 14, Type (0, 1), BuildingBlock: MIFKUJ_clean_linker_0, # of connection points: 2
#     Edge 15, Type (0, 1), BuildingBlock: MIFKUJ_clean_linker_0, # of connection points: 2
#     Edge 16, Type (0, 1), BuildingBlock: MIFKUJ_clean_linker_0, # of connection points: 2
#     Edge 17, Type (0, 1), BuildingBlock: MIFKUJ_clean_linker_0, # of connection points: 2
#     Edge 18, Type (0, 1), BuildingBlock: MIFKUJ_clean_linker_0, # of connection points: 2
#     Edge 19, Type (0, 1), BuildingBlock: MIFKUJ_clean_linker_0, # of connection points: 2
#     Edge 20, Type (0, 1), BuildingBlock: MIFKUJ_clean_linker_0, # of connection points: 2
#     Edge 21, Type (0, 1), BuildingBlock: MIFKUJ_clean_linker_0, # of connection points: 2
#     Edge 22, Type (0, 1), BuildingBlock: MIFKUJ_clean_linker_0, # of connection points: 2
#     Edge 23, Type (0, 1), BuildingBlock: MIFKUJ_clean_linker_0, # of connection points: 2
#     Edge 24, Type (0, 1), BuildingBlock: MIFKUJ_clean_linker_0, # of connection points: 2
#     Edge 25, Type (0, 1), BuildingBlock: MIFKUJ_clean_linker_0, # of connection points: 2
#     Edge 26, Type (0, 1), BuildingBlock: MIFKUJ_clean_linker_0, # of connection points: 2
# Relax obj value: 0.178
# Max RMSD: 0.212
# Mean RMSD: 0.157
data_MOF--net-anh--node1-INOVEN_clean_sbu_0--node2-ESEHIV_clean_linker_0--edge1-MIFKUJ_clean_linker_0
_symmetry_space_group_name_H-M    P1
_symmetry_Int_Tables_number       1
_symmetry_cell_setting            triclinic
loop_
_symmetry_equiv_pos_as_xyz
'x, y, z'
_cell_length_a     38.57867
_cell_length_b     44.071064
_cell_length_c     67.558115
_cell_angle_alpha  92.980701
_cell_angle_beta   89.518839
_cell_angle_gamma 128.4222
loop_
_atom_site_label
_atom_site_type_symbol
_atom_site_fract_x
_atom_site_fract_y
_atom_site_fract_z
_atom_type_partial_charge
Gd0 Gd 0.08254 0.51745 0.14239 0.0
Gd1 Gd 1.03174 0.5492 0.15766 0.0
C2 C 0.13676 0.61063 0.15364 0.0
C3 C 0.12497 0.50078 0.12149 0.0
C4 C 0.16603 0.50681 0.12618 0.0
C5 C 0.17442 0.50157 0.14539 0.0
C6 C 0.19809 0.5197 0.11181 0.0
C7 C 0.24558 0.52017 0.13551 0.0
C8 C 0.23759 0.52626 0.1164 0.0
C9 C 0.21379 0.50816 0.15 0.0
C10 C 0.08443 0.5237 0.18281 0.0
C11 C 0.97893 0.45544 0.15071 0.0
C12 C 0.98315 0.56024 0.17781 0.0
C13 C 0.94723 0.53514 0.19131 0.0
C14 C 0.91686 0.54162 0.19591 0.0
C15 C 0.93964 0.50156 0.19746 0.0
C16 C 0.86684 0.47705 0.20852 0.0
C17 C 0.89997 0.47291 0.20619 0.0
C18 C 0.87707 0.51293 0.20463 0.0
C19 C 0.04716 0.55178 0.11829 0.0
O20 O 0.13545 0.58314 0.14363 0.0
O21 O 0.10164 0.60351 0.1623 0.0
O22 O 0.0907 0.47527 0.13187 0.0
O23 O 0.12943 0.53247 0.11939 0.0
O24 O 0.10309 0.51171 0.17283 0.0
O25 O 0.06746 0.53174 0.17057 0.0
O26 O 0.98112 0.48408 0.15969 0.0
O27 O 1.01239 0.46177 0.14074 0.0
O28 O 0.97437 0.54727 0.15916 0.0
O29 O 1.02279 0.57375 0.18389 0.0
O30 O 0.04622 0.5773 0.1283 0.0
O31 O 1.03674 0.52515 0.12924 0.0
H32 H 0.15055 0.49226 0.15688 0.0
H33 H 0.19246 0.52459 0.09708 0.0
H34 H 0.26135 0.53518 0.10487 0.0
H35 H 0.2193 0.50375 0.16492 0.0
H36 H 0.92232 0.56749 0.1914 0.0
H37 H 0.96278 0.49604 0.19424 0.0
H38 H 0.89376 0.44614 0.20945 0.0
H39 H 0.85265 0.51747 0.2063 0.0
Gd40 Gd 0.60305 0.02239 0.47739 0.0
Gd41 Gd 0.54553 0.04432 0.46993 0.0
C42 C 0.49663 0.95449 0.46919 0.0
C43 C 0.64035 0.99483 0.49119 0.0
C44 C 0.63122 0.95787 0.49489 0.0
C45 C 0.6668 0.95698 0.49605 0.0
C46 C 0.58812 0.92385 0.49762 0.0
C47 C 0.61675 0.88873 0.50331 0.0
C48 C 0.58091 0.88949 0.50175 0.0
C49 C 0.6597 0.92283 0.50022 0.0
C50 C 0.59589 0.03208 0.43892 0.0
C51 C 0.65327 0.11226 0.47411 0.0
C52 C 0.51042 0.0757 0.45937 0.0
C53 C 0.51752 0.11159 0.46606 0.0
C54 C 0.5356 0.12892 0.48507 0.0
C55 C 0.50643 0.12887 0.45348 0.0
C56 C 0.53053 0.18016 0.47904 0.0
C57 C 0.51291 0.16287 0.45989 0.0
C58 C 0.5418 0.16268 0.49153 0.0
C59 C 0.55519 0.03656 0.50853 0.0
O60 O 0.53306 0.96478 0.47839 0.0
O61 O 0.49601 0.98083 0.46111 0.0
O62 O 0.64201 1.00264 0.47265 0.0
O63 O 0.62041 1.00467 0.50228 0.0
O64 O 0.63208 0.04236 0.44738 0.0
O65 O 0.56454 0.01534 0.45081 0.0
O66 O 0.61465 0.1015 0.46755 0.0
O67 O 0.65657 0.08695 0.48149 0.0
O68 O 0.49305 0.04902 0.47227 0.0
O69 O 0.5431 0.08025 0.45007 0.0
O70 O 0.51844 0.02529 0.50039 0.0
O71 O 0.58554 0.05296 0.49621 0.0
H72 H 0.70027 0.9829 0.49389 0.0
H73 H 0.56023 0.92402 0.49681 0.0
H74 H 0.54747 0.86382 0.50417 0.0
H75 H 0.68794 0.92312 0.50097 0.0
H76 H 0.54461 0.11613 0.495 0.0
H77 H 0.49277 0.11607 0.4387 0.0
H78 H 0.50448 0.17576 0.44975 0.0
H79 H 0.55477 0.17468 0.50647 0.0
Gd80 Gd 0.60883 0.57655 0.84642 0.0
Gd81 Gd 0.54766 0.49101 0.84846 0.0
C82 C 0.49995 0.53148 0.85055 0.0
C83 C 0.65022 0.6476 0.83693 0.0
C84 C 0.64143 0.67441 0.83184 0.0
C85 C 0.6764 0.71112 0.82565 0.0
C86 C 0.59895 0.66403 0.83295 0.0
C87 C 0.62662 0.72694 0.82139 0.0
C88 C 0.59159 0.69007 0.82778 0.0
C89 C 0.66915 0.73713 0.82051 0.0
C90 C 0.59889 0.55151 0.88298 0.0
C91 C 0.65755 0.53674 0.84765 0.0
C92 C 0.50975 0.41951 0.85553 0.0
C93 C 0.51839 0.39235 0.84905 0.0
C94 C 0.54888 0.40193 0.83425 0.0
C95 C 0.49569 0.35638 0.8574 0.0
C96 C 0.53393 0.33955 0.83626 0.0
C97 C 0.50372 0.33045 0.85129 0.0
C98 C 0.55632 0.37575 0.82781 0.0
C99 C 0.55996 0.51514 0.81127 0.0
O100 O 0.53922 0.56221 0.84447 0.0
O101 O 0.49636 0.5008 0.8557 0.0
O102 O 0.64355 0.63727 0.85523 0.0
O103 O 0.63647 0.61881 0.82398 0.0
O104 O 0.63651 0.58083 0.87652 0.0
O105 O 0.56818 0.53799 0.87023 0.0
O106 O 0.61653 0.50429 0.8503 0.0
O107 O 0.66316 0.56911 0.84427 0.0
O108 O 0.49615 0.42964 0.84156 0.0
O109 O 0.53973 0.44891 0.86748 0.0
O110 O 0.52256 0.48556 0.81758 0.0
O111 O 0.58975 0.52945 0.82461 0.0
H112 H 0.70947 0.71973 0.82479 0.0
H113 H 0.57155 0.63581 0.83772 0.0
H114 H 0.55835 0.68108 0.82848 0.0
H115 H 0.69708 0.76544 0.81601 0.0
H116 H 0.56652 0.42951 0.82747 0.0
H117 H 0.47166 0.34829 0.86864 0.0
H118 H 0.48632 0.30336 0.85848 0.0
H119 H 0.57908 0.38377 0.81594 0.0
H120 H 0.50526 0.97699 0.22269 0.0
H121 H 0.62432 0.09552 0.22533 0.0
H122 H 0.56255 0.03522 0.1688 0.0
C123 C 0.53132 1.00269 0.21533 0.0
C124 C 0.53004 1.00189 0.19455 0.0
C125 C 0.56536 0.03602 0.22667 0.0
C126 C 0.59776 0.0695 0.21684 0.0
C127 C 0.59703 0.06968 0.19604 0.0
C128 C 0.56348 0.0354 0.18483 0.0
H129 H 0.59106 0.59244 0.59939 0.0
H130 H 0.58102 0.48968 0.5964 0.0
H131 H 0.57888 0.53682 0.5426 0.0
C132 C 0.58839 0.5697 0.59064 0.0
C133 C 0.58529 0.56821 0.56982 0.0
C134 C 0.58646 0.5413 0.60031 0.0
C135 C 0.58224 0.51153 0.58896 0.0
C136 C 0.57965 0.5097 0.56814 0.0
C137 C 0.58048 0.53783 0.55865 0.0
H138 H 1.02305 0.53899 0.90125 0.0
H139 H 0.13179 0.5359 0.90383 0.0
H140 H 0.07893 0.53298 0.84678 0.0
C141 C 0.0467 0.53744 0.89351 0.0
C142 C 0.04569 0.53578 0.87269 0.0
C143 C 0.07738 0.53761 0.90468 0.0
C144 C 0.10875 0.53616 0.89492 0.0
C145 C 0.11095 0.53442 0.87408 0.0
C146 C 0.07882 0.53461 0.86282 0.0
H147 H 1.00395 0.46889 0.39811 0.0
H148 H 0.1326 0.57946 0.39737 0.0
H149 H 0.07615 0.52938 0.45324 0.0
C150 C 1.03287 0.494 0.40614 0.0
C151 C 1.03546 0.49525 0.42697 0.0
C152 C 0.06802 0.52396 0.39547 0.0
C153 C 0.1059 0.55596 0.40572 0.0
C154 C 0.10927 0.55866 0.42654 0.0
C155 C 0.07385 0.52793 0.4372 0.0
H156 H 0.58757 0.08471 0.72466 0.0
H157 H 0.585 0.98588 0.7209 0.0
H158 H 0.5859 0.03479 0.7781 0.0
C159 C 0.58749 0.06332 0.73196 0.0
C160 C 0.5864 0.06286 0.75274 0.0
C161 C 0.58654 0.03542 0.72045 0.0
C162 C 0.5857 0.00737 0.72988 0.0
C163 C 0.58622 0.0071 0.75072 0.0
C164 C 0.58556 0.03455 0.76206 0.0
H165 H 0.49901 0.43763 0.0821 0.0
H166 H 0.5477 0.37256 0.07459 0.0
H167 H 0.51606 0.3935 0.13255 0.0
C168 C 0.50862 0.42142 0.08809 0.0
C169 C 0.50605 0.41704 0.10848 0.0
C170 C 0.5249 0.40662 0.07566 0.0
C171 C 0.53493 0.38407 0.08392 0.0
C172 C 0.53105 0.37825 0.10446 0.0
C173 C 0.51649 0.39508 0.11659 0.0
H174 H 0.2501 0.47085 0.15565 0.0
H175 H 0.31359 0.47228 0.15991 0.0
H176 H 0.39498 0.57873 0.12963 0.0
H177 H 0.33099 0.57734 0.12523 0.0
H178 H 0.39953 0.52684 0.11302 0.0
H179 H 0.41773 0.57629 0.17877 0.0
H180 H 0.39671 0.58294 0.21231 0.0
H181 H 0.35129 0.4688 0.22399 0.0
H182 H 0.37135 0.46114 0.1904 0.0
H183 H 0.55286 0.49477 0.112 0.0
H184 H 0.52806 0.53005 0.12663 0.0
H185 H 0.41168 0.42329 0.14754 0.0
H186 H 0.437 0.38798 0.13318 0.0
H187 H 0.44276 0.49325 0.17202 0.0
H188 H 0.40509 0.44051 0.10275 0.0
H189 H 0.42718 0.4337 0.06946 0.0
H190 H 0.51117 0.55726 0.06532 0.0
H191 H 0.48998 0.56477 0.09874 0.0
C192 C 0.28177 0.49518 0.15038 0.0
C193 C 0.28557 0.52389 0.14001 0.0
C194 C 0.31818 0.49609 0.15293 0.0
C195 C 0.35921 0.52589 0.14531 0.0
C196 C 0.36363 0.55557 0.1357 0.0
C197 C 0.32706 0.55459 0.13306 0.0
C198 C 0.39487 0.52229 0.14474 0.0
C199 C 0.41006 0.5208 0.12607 0.0
C200 C 0.40812 0.51377 0.1617 0.0
C201 C 0.39594 0.5181 0.18198 0.0
C202 C 0.40297 0.55247 0.18842 0.0
C203 C 0.39126 0.55644 0.20746 0.0
C204 C 0.37264 0.5263 0.22026 0.0
C205 C 0.36575 0.49214 0.21406 0.0
C206 C 0.37737 0.488 0.19502 0.0
C207 C 0.52276 0.47918 0.12033 0.0
C208 C 0.4962 0.43874 0.12123 0.0
C209 C 0.50884 0.49933 0.12877 0.0
C210 C 0.46782 0.47909 0.13786 0.0
C211 C 0.44352 0.43933 0.1406 0.0
C212 C 0.45773 0.41917 0.13231 0.0
C213 C 0.44594 0.49697 0.14037 0.0
C214 C 0.43327 0.50078 0.15924 0.0
C215 C 0.43497 0.50783 0.12364 0.0
C216 C 0.44632 0.50322 0.10327 0.0
C217 C 0.42836 0.46621 0.09474 0.0
C218 C 0.44072 0.46223 0.07587 0.0
C219 C 0.47068 0.49504 0.06531 0.0
C220 C 0.48806 0.53188 0.07354 0.0
C221 C 0.47586 0.53602 0.09244 0.0
H222 H 0.48036 0.49191 0.05073 0.0
H223 H 0.36361 0.52943 0.235 0.0
H224 H 0.73921 0.14713 0.48629 0.0
H225 H 0.80557 0.21362 0.48138 0.0
H226 H 0.72547 0.23692 0.45278 0.0
H227 H 0.65925 0.17076 0.45755 0.0
H228 H 0.79737 0.26156 0.43149 0.0
H229 H 0.76903 0.27378 0.49997 0.0
H230 H 0.75671 0.2569 0.53493 0.0
H231 H 0.88421 0.28373 0.53924 0.0
H232 H 0.89705 0.30028 0.50421 0.0
H233 H 0.94789 0.46156 0.4235 0.0
H234 H 0.88514 0.39877 0.43489 0.0
H235 H 0.97506 0.38735 0.4642 0.0
H236 H 1.03822 0.45099 0.45312 0.0
H237 H 0.90128 0.35573 0.48555 0.0
H238 H 0.93136 0.3444 0.41814 0.0
H239 H 0.94543 0.36099 0.38315 0.0
H240 H 0.81649 0.33058 0.37643 0.0
H241 H 0.80192 0.31444 0.41149 0.0
C242 C 0.73562 0.16647 0.4791 0.0
C243 C 0.69366 0.15336 0.47234 0.0
C244 C 0.77368 0.20461 0.47634 0.0
C245 C 0.77071 0.23056 0.46676 0.0
C246 C 0.72882 0.21759 0.46018 0.0
C247 C 0.69083 0.17963 0.463 0.0
C248 C 0.81113 0.2708 0.46298 0.0
C249 C 0.81971 0.28225 0.44337 0.0
C250 C 0.84138 0.2976 0.47833 0.0
C251 C 0.8338 0.28788 0.49941 0.0
C252 C 0.7943 0.27579 0.50833 0.0
C253 C 0.78724 0.26634 0.52816 0.0
C254 C 0.8196 0.26914 0.53928 0.0
C255 C 0.85915 0.28152 0.5306 0.0
C256 C 0.86635 0.29097 0.51076 0.0
C257 C 0.95428 0.44605 0.43273 0.0
C258 C 0.99802 0.46116 0.43734 0.0
C259 C 0.91836 0.40997 0.43913 0.0
C260 C 0.92518 0.38763 0.45 0.0
C261 C 0.9688 0.40378 0.45574 0.0
C262 C 1.00491 0.44025 0.44948 0.0
C263 C 0.88694 0.34667 0.4541 0.0
C264 C 0.87892 0.33502 0.47369 0.0
C265 C 0.85735 0.31942 0.4387 0.0
C266 C 0.8657 0.32853 0.41751 0.0
C267 C 0.9061 0.34148 0.40924 0.0
C268 C 0.91417 0.35079 0.38939 0.0
C269 C 0.88192 0.34692 0.37759 0.0
C270 C 0.84147 0.33361 0.3856 0.0
C271 C 0.83327 0.32435 0.40546 0.0
H272 H 0.88824 0.35417 0.36223 0.0
H273 H 0.81408 0.2618 0.55464 0.0
H274 H 0.57421 0.74253 0.83907 0.0
H275 H 0.56435 0.78982 0.82982 0.0
H276 H 0.65251 0.82176 0.78138 0.0
H277 H 0.66219 0.7745 0.79038 0.0
H278 H 0.67288 0.88502 0.80219 0.0
H279 H 0.53929 0.76415 0.77408 0.0
H280 H 0.47011 0.69719 0.77571 0.0
H281 H 0.4193 0.73667 0.8174 0.0
H282 H 0.48848 0.80382 0.81624 0.0
H283 H 0.63662 0.98526 0.73999 0.0
H284 H 0.64011 0.93799 0.7548 0.0
H285 H 0.54713 0.91839 0.79858 0.0
H286 H 0.54223 0.96503 0.7833 0.0
H287 H 0.52721 0.85055 0.78462 0.0
H288 H 0.65625 0.97111 0.81124 0.0
H289 H 0.72526 0.03842 0.81097 0.0
H290 H 0.78466 1.00053 0.77421 0.0
H291 H 0.71575 0.93302 0.77402 0.0
C292 C 0.59109 0.75929 0.8263 0.0
C293 C 0.61916 0.75474 0.81553 0.0
C294 C 0.58549 0.78641 0.82106 0.0
C295 C 0.60759 0.80934 0.80485 0.0
C296 C 0.63533 0.80463 0.79402 0.0
C297 C 0.64094 0.77762 0.79924 0.0
C298 C 0.60269 0.83878 0.7992 0.0
C299 C 0.64106 0.87739 0.79817 0.0
C300 C 0.56101 0.82921 0.79472 0.0
C301 C 0.51925 0.78893 0.79524 0.0
C302 C 0.5135 0.75851 0.78371 0.0
C303 C 0.47427 0.72052 0.78454 0.0
C304 C 0.4404 0.71265 0.79672 0.0
C305 C 0.44561 0.74279 0.80802 0.0
C306 C 0.48481 0.78081 0.80727 0.0
C307 C 0.61653 0.97071 0.75266 0.0
C308 C 0.58896 0.9789 0.76037 0.0
C309 C 0.61895 0.94392 0.76127 0.0
C310 C 0.59432 0.92489 0.77798 0.0
C311 C 0.56658 0.93279 0.78574 0.0
C312 C 0.56409 0.9597 0.77709 0.0
C313 C 0.59759 0.89658 0.78705 0.0
C314 C 0.559 0.85827 0.7888 0.0
C315 C 0.63905 0.90644 0.7924 0.0
C316 C 0.68067 0.94701 0.7925 0.0
C317 C 0.68391 0.97715 0.80298 0.0
C318 C 0.72303 0.01534 0.80292 0.0
C319 C 0.75929 0.02375 0.79255 0.0
C320 C 0.75653 0.99397 0.78223 0.0
C321 C 0.71746 0.95572 0.78222 0.0
H322 H 0.78955 0.05334 0.79252 0.0
H323 H 0.41007 0.68323 0.79736 0.0
H324 H 0.8269 0.40464 0.19131 0.0
H325 H 0.7501 0.35993 0.1803 0.0
H326 H 0.7221 0.42608 0.21577 0.0
H327 H 0.79914 0.47048 0.22767 0.0
H328 H 0.65115 0.31937 0.19048 0.0
H329 H 0.71798 0.47282 0.18148 0.0
H330 H 0.78795 0.5396 0.18006 0.0
H331 H 0.85197 0.49515 0.15478 0.0
H332 H 0.78233 0.42822 0.15602 0.0
H333 H 0.50108 0.33463 0.13734 0.0
H334 H 0.54507 0.3265 0.1587 0.0
H335 H 0.64345 0.37023 0.11391 0.0
H336 H 0.6023 0.38199 0.09339 0.0
H337 H 0.67641 0.41614 0.1452 0.0
H338 H 0.58979 0.27915 0.13286 0.0
H339 H 0.52204 0.21104 0.13009 0.0
H340 H 0.49921 0.21732 0.19194 0.0
H341 H 0.56652 0.28568 0.19504 0.0
C342 C 0.80415 0.40848 0.19791 0.0
C343 C 0.81969 0.4422 0.20976 0.0
C344 C 0.75986 0.38255 0.19158 0.0
C345 C 0.73089 0.39041 0.1968 0.0
C346 C 0.74427 0.4198 0.21147 0.0
C347 C 0.78852 0.44551 0.21803 0.0
C348 C 0.69554 0.37865 0.18235 0.0
C349 C 0.6561 0.34034 0.18063 0.0
C350 C 0.703 0.40577 0.1691 0.0
C351 C 0.74527 0.44572 0.16905 0.0
C352 C 0.74709 0.47741 0.17569 0.0
C353 C 0.7866 0.51523 0.17487 0.0
C354 C 0.82431 0.52161 0.16725 0.0
C355 C 0.82269 0.49017 0.1606 0.0
C356 C 0.78329 0.45231 0.16145 0.0
C357 C 0.5318 0.34202 0.13189 0.0
C358 C 0.54888 0.36052 0.11395 0.0
C359 C 0.55653 0.33662 0.14401 0.0
C360 C 0.59798 0.34847 0.13806 0.0
C361 C 0.61173 0.36134 0.11889 0.0
C362 C 0.58779 0.36781 0.10704 0.0
C363 C 0.63106 0.35644 0.15297 0.0
C364 C 0.67058 0.39461 0.15492 0.0
C365 C 0.62357 0.32877 0.16596 0.0
C366 C 0.58302 0.2877 0.16414 0.0
C367 C 0.57011 0.26615 0.14584 0.0
C368 C 0.53183 0.22745 0.14421 0.0
C369 C 0.50627 0.20989 0.16081 0.0
C370 C 0.51901 0.23097 0.17909 0.0
C371 C 0.55727 0.26969 0.18079 0.0
H372 H 0.47665 0.17993 0.15953 0.0
H373 H 0.85485 0.55091 0.16659 0.0
H374 H 0.48409 0.89158 0.48432 0.0
H375 H 0.41893 0.82311 0.48007 0.0
H376 H 0.35281 0.85431 0.44568 0.0
H377 H 0.41783 0.9226 0.44966 0.0
H378 H 0.33221 0.78117 0.48987 0.0
H379 H 0.29171 0.78551 0.40845 0.0
H380 H 0.33024 0.82263 0.37908 0.0
H381 H 0.45106 0.8488 0.40065 0.0
H382 H 0.41311 0.81138 0.42999 0.0
H383 H 0.11555 0.60769 0.4559 0.0
H384 H 0.18217 0.67327 0.46645 0.0
H385 H 0.2612 0.65667 0.42923 0.0
H386 H 0.195 0.59166 0.41865 0.0
H387 H 0.27735 0.72199 0.42161 0.0
H388 H 0.26974 0.66229 0.48056 0.0
H389 H 0.23481 0.62414 0.50999 0.0
H390 H 0.21614 0.70547 0.53325 0.0
H391 H 0.25046 0.74386 0.50383 0.0
C392 C 0.45573 0.88395 0.47586 0.0
C393 C 0.45659 0.91279 0.4672 0.0
C394 C 0.4183 0.8447 0.47354 0.0
C395 C 0.38093 0.8333 0.46239 0.0
C396 C 0.38133 0.86215 0.45413 0.0
C397 C 0.41866 0.90133 0.45646 0.0
C398 C 0.34222 0.79129 0.45875 0.0
C399 C 0.32015 0.76824 0.47494 0.0
C400 C 0.32668 0.77403 0.4393 0.0
C401 C 0.34963 0.79596 0.42151 0.0
C402 C 0.32644 0.79904 0.40688 0.0
C403 C 0.34819 0.82015 0.39024 0.0
C404 C 0.3931 0.83817 0.38803 0.0
C405 C 0.41632 0.83495 0.40241 0.0
C406 C 0.39471 0.81382 0.41905 0.0
C407 C 0.14736 0.61769 0.45045 0.0
C408 C 0.14997 0.59452 0.4364 0.0
C409 C 0.18547 0.65529 0.45641 0.0
C410 C 0.22693 0.67026 0.44855 0.0
C411 C 0.22973 0.64616 0.43539 0.0
C412 C 0.19184 0.60884 0.42942 0.0
C413 C 0.26683 0.71172 0.45272 0.0
C414 C 0.28917 0.7348 0.43657 0.0
C415 C 0.28288 0.72873 0.47219 0.0
C416 C 0.26227 0.70573 0.4899 0.0
C417 C 0.25786 0.67187 0.49188 0.0
C418 C 0.23823 0.65024 0.50857 0.0
C419 C 0.22315 0.66232 0.52346 0.0
C420 C 0.22778 0.69612 0.5217 0.0
C421 C 0.24736 0.71784 0.50503 0.0
H422 H 0.20797 0.64553 0.53637 0.0
H423 H 0.4099 0.85456 0.37517 0.0
H424 H 0.47439 0.25947 0.83395 0.0
H425 H 0.48692 0.21373 0.82235 0.0
H426 H 0.6217 0.30871 0.80963 0.0
H427 H 0.61072 0.35496 0.82239 0.0
H428 H 0.56587 0.2457 0.77733 0.0
H429 H 0.61427 0.26733 0.84592 0.0
H430 H 0.60568 0.27024 0.88201 0.0
H431 H 0.49181 0.14978 0.8786 0.0
H432 H 0.49933 0.14631 0.8424 0.0
H433 H 0.64255 0.14138 0.75048 0.0
H434 H 0.63662 0.18877 0.76679 0.0
H435 H 0.52103 0.09717 0.79683 0.0
H436 H 0.52804 0.04984 0.78103 0.0
H437 H 0.56671 0.15883 0.82086 0.0
H438 H 0.51423 0.13469 0.75379 0.0
H439 H 0.51674 0.12876 0.71741 0.0
H440 H 0.62926 0.24941 0.71711 0.0
H441 H 0.62785 0.25593 0.75355 0.0
C442 C 0.50709 0.27092 0.82914 0.0
C443 C 0.5415 0.31129 0.82922 0.0
C444 C 0.51401 0.24456 0.82233 0.0
C445 C 0.5552 0.25785 0.81514 0.0
C446 C 0.58957 0.2979 0.81505 0.0
C447 C 0.58301 0.32432 0.82222 0.0
C448 C 0.56205 0.22988 0.8073 0.0
C449 C 0.56676 0.22709 0.78684 0.0
C450 C 0.56154 0.20469 0.81967 0.0
C451 C 0.55707 0.20668 0.84142 0.0
C452 C 0.58713 0.24156 0.85283 0.0
C453 C 0.58251 0.24329 0.87332 0.0
C454 C 0.54814 0.21024 0.88259 0.0
C455 C 0.51838 0.17537 0.87139 0.0
C456 C 0.52282 0.1735 0.8509 0.0
C457 C 0.61618 0.13147 0.76074 0.0
C458 C 0.58554 0.09192 0.76439 0.0
C459 C 0.61262 0.15852 0.76998 0.0
C460 C 0.57765 0.14652 0.78268 0.0
C461 C 0.54816 0.10721 0.78703 0.0
C462 C 0.55217 0.08017 0.77802 0.0
C463 C 0.57103 0.17472 0.79076 0.0
C464 C 0.56606 0.17747 0.81126 0.0
C465 C 0.57041 0.19942 0.77836 0.0
C466 C 0.5712 0.1957 0.75643 0.0
C467 C 0.5397 0.1599 0.74599 0.0
C468 C 0.54091 0.15644 0.72535 0.0
C469 C 0.57321 0.18867 0.71496 0.0
C470 C 0.6043 0.22446 0.72519 0.0
C471 C 0.6033 0.22806 0.74583 0.0
H472 H 0.57408 0.18593 0.69899 0.0
H473 H 0.54463 0.21164 0.89845 0.0
H474 H 0.55174 0.81335 0.48941 0.0
H475 H 0.54266 0.75522 0.49755 0.0
H476 H 0.65714 0.82531 0.53722 0.0
H477 H 0.66639 0.88322 0.52916 0.0
H478 H 0.66106 0.77655 0.51454 0.0
H479 H 0.54976 0.76713 0.55402 0.0
H480 H 0.48392 0.76343 0.55936 0.0
H481 H 0.40589 0.65981 0.52102 0.0
H482 H 0.47145 0.6632 0.51525 0.0
H483 H 0.64324 0.64644 0.57808 0.0
H484 H 0.64484 0.69667 0.56328 0.0
H485 H 0.53415 0.60971 0.52446 0.0
H486 H 0.53205 0.55899 0.53946 0.0
H487 H 0.52388 0.66175 0.54211 0.0
H488 H 0.6334 0.66746 0.5054 0.0
H489 H 0.69901 0.67077 0.50031 0.0
H490 H 0.78023 0.78103 0.53319 0.0
H491 H 0.71497 0.77812 0.53875 0.0
C492 C 0.5747 0.81627 0.5 0.0
C493 C 0.60992 0.85297 0.50856 0.0
C494 C 0.56952 0.78303 0.50463 0.0
C495 C 0.59915 0.78582 0.51807 0.0
C496 C 0.63405 0.8224 0.52671 0.0
C497 C 0.63935 0.85554 0.52204 0.0
C498 C 0.59454 0.751 0.5231 0.0
C499 C 0.63116 0.7516 0.52071 0.0
C500 C 0.55503 0.71778 0.53051 0.0
C501 C 0.51561 0.71568 0.53403 0.0
C502 C 0.51864 0.74374 0.54661 0.0
C503 C 0.48136 0.74166 0.54973 0.0
C504 C 0.44078 0.71147 0.54049 0.0
C505 C 0.43736 0.68322 0.52814 0.0
C506 C 0.47456 0.68519 0.52495 0.0
C507 C 0.61921 0.63797 0.56639 0.0
C508 C 0.58746 0.59874 0.55996 0.0
C509 C 0.62034 0.66674 0.55785 0.0
C510 C 0.58981 0.657 0.54266 0.0
C511 C 0.55808 0.61787 0.53613 0.0
C512 C 0.55712 0.589 0.5446 0.0
C513 C 0.59083 0.68791 0.53405 0.0
C514 C 0.55358 0.68653 0.53572 0.0
C515 C 0.62976 0.72046 0.52596 0.0
C516 C 0.66918 0.72242 0.52261 0.0
C517 C 0.66518 0.69228 0.51168 0.0
C518 C 0.70233 0.6941 0.50869 0.0
C519 C 0.74374 0.72606 0.51645 0.0
C520 C 0.74812 0.75629 0.52719 0.0
C521 C 0.71106 0.75458 0.53025 0.0
H522 H 0.77247 0.72742 0.51411 0.0
H523 H 0.41196 0.70991 0.54293 0.0
H524 H 0.65968 0.47496 0.85249 0.0
H525 H 0.72254 0.47421 0.85438 0.0
H526 H 0.8123 0.5973 0.84756 0.0
H527 H 0.74909 0.59782 0.84512 0.0
H528 H 0.84996 0.57307 0.82958 0.0
H529 H 0.79176 0.54422 0.89476 0.0
H530 H 0.73448 0.50872 0.91971 0.0
H531 H 0.71275 0.40352 0.90052 0.0
H532 H 0.76952 0.43831 0.87528 0.0
H533 H 0.04704 0.59624 0.86025 0.0
H534 H 0.9846 0.59696 0.855 0.0
H535 H 0.89345 0.47394 0.86183 0.0
H536 H 0.95608 0.47366 0.86743 0.0
H537 H 0.85677 0.49856 0.8796 0.0
H538 H 0.91558 0.52783 0.81446 0.0
H539 H 0.97244 0.56351 0.78938 0.0
H540 H 0.99333 0.6683 0.80864 0.0
H541 H 0.93693 0.63332 0.834 0.0
C542 C 0.69267 0.50213 0.85141 0.0
C543 C 0.69786 0.5365 0.8487 0.0
C544 C 0.72948 0.50178 0.8527 0.0
C545 C 0.7742 0.53587 0.85164 0.0
C546 C 0.7793 0.57014 0.84859 0.0
C547 C 0.74242 0.57047 0.84722 0.0
C548 C 0.81485 0.53584 0.85356 0.0
C549 C 0.8512 0.55703 0.8408 0.0
C550 C 0.81833 0.51469 0.86773 0.0
C551 C 0.78457 0.49379 0.88301 0.0
C552 C 0.77459 0.51347 0.8958 0.0
C553 C 0.74224 0.49348 0.90999 0.0
C554 C 0.71992 0.45387 0.91166 0.0
C555 C 0.73002 0.43419 0.89919 0.0
C556 C 0.76231 0.45403 0.88494 0.0
C557 C 1.01384 0.56889 0.85975 0.0
C558 C 1.00801 0.53451 0.86327 0.0
C559 C 0.97728 0.56929 0.8569 0.0
C560 C 0.9323 0.53535 0.85756 0.0
C561 C 0.92662 0.50098 0.86098 0.0
C562 C 0.96314 0.50063 0.86382 0.0
C563 C 0.89185 0.53565 0.85556 0.0
C564 C 0.85555 0.51455 0.86835 0.0
C565 C 0.88848 0.55695 0.84145 0.0
C566 C 0.92238 0.57805 0.82626 0.0
C567 C 0.93252 0.55854 0.81344 0.0
C568 C 0.96463 0.57863 0.79915 0.0
C569 C 0.98657 0.61817 0.79745 0.0
C570 C 0.97636 0.63769 0.81 0.0
C571 C 0.94431 0.61774 0.82432 0.0
H572 H 1.01142 0.63367 0.78639 0.0
H573 H 0.69486 0.43844 0.92265 0.0
H574 H 0.2195 0.63737 0.14179 0.0
H575 H 0.2887 0.70413 0.14456 0.0
H576 H 0.21945 0.7427 0.17152 0.0
H577 H 0.15033 0.67633 0.16879 0.0
H578 H 0.2755 0.79151 0.14379 0.0
H579 H 0.28304 0.73139 0.19939 0.0
H580 H 0.28196 0.68194 0.21558 0.0
H581 H 0.39365 0.71197 0.18228 0.0
H582 H 0.39502 0.76128 0.16568 0.0
H583 H 0.4433 0.97002 0.19544 0.0
H584 H 0.37964 0.90441 0.18374 0.0
H585 H 0.46781 0.88443 0.15902 0.0
H586 H 0.53185 0.95057 0.1708 0.0
H587 H 0.40608 0.82566 0.18174 0.0
H588 H 0.40316 0.89054 0.12853 0.0
H589 H 0.40416 0.94004 0.11248 0.0
H590 H 0.2841 0.9013 0.14097 0.0
H591 H 0.2827 0.8519 0.15744 0.0
C592 C 0.21891 0.66003 0.14829 0.0
C593 C 0.17913 0.65122 0.15511 0.0
C594 C 0.25863 0.69825 0.14992 0.0
C595 C 0.25952 0.7286 0.15837 0.0
C596 C 0.21976 0.71993 0.16493 0.0
C597 C 0.18017 0.68178 0.16342 0.0
C598 C 0.30171 0.76934 0.16062 0.0
C599 C 0.30392 0.79899 0.15222 0.0
C600 C 0.33943 0.77917 0.1711 0.0
C601 C 0.3388 0.74969 0.18112 0.0
C602 C 0.30714 0.72722 0.1954 0.0
C603 C 0.30652 0.69927 0.20468 0.0
C604 C 0.33763 0.69373 0.19992 0.0
C605 C 0.36952 0.71624 0.18592 0.0
C606 C 0.37025 0.74421 0.17658 0.0
C607 C 0.44901 0.95199 0.18698 0.0
C608 C 0.49243 0.96556 0.18372 0.0
C609 C 0.41261 0.91441 0.18034 0.0
C610 C 0.4187 0.8893 0.17037 0.0
C611 C 0.46215 0.9032 0.16661 0.0
C612 C 0.49871 0.94109 0.17312 0.0
C613 C 0.37965 0.84799 0.16517 0.0
C614 C 0.37794 0.81819 0.17306 0.0
C615 C 0.34236 0.83802 0.15421 0.0
C616 C 0.34302 0.86769 0.14435 0.0
C617 C 0.37715 0.89277 0.13151 0.0
C618 C 0.37776 0.92078 0.12231 0.0
C619 C 0.34427 0.92386 0.12573 0.0
C620 C 0.31004 0.89889 0.13834 0.0
C621 C 0.3093 0.87084 0.14759 0.0
H622 H 0.34479 0.94556 0.11859 0.0
H623 H 0.3371 0.67208 0.20712 0.0
H624 H 0.59849 0.24207 0.50241 0.0
H625 H 0.60609 0.29856 0.51574 0.0
H626 H 0.48537 0.25696 0.48478 0.0
H627 H 0.47663 0.1996 0.4718 0.0
H628 H 0.55428 0.33758 0.48221 0.0
H629 H 0.48046 0.24384 0.53191 0.0
H630 H 0.47062 0.19708 0.55456 0.0
H631 H 0.59423 0.28775 0.58451 0.0
H632 H 0.60514 0.33497 0.56182 0.0
H633 H 0.52287 0.46244 0.53694 0.0
H634 H 0.51476 0.40779 0.51981 0.0
H635 H 0.62208 0.43237 0.55604 0.0
H636 H 0.62966 0.48634 0.57335 0.0
H637 H 0.55671 0.35859 0.55521 0.0
H638 H 0.6325 0.45234 0.50582 0.0
H639 H 0.64491 0.49984 0.48293 0.0
H640 H 0.52138 0.4111 0.45234 0.0
H641 H 0.50794 0.36316 0.47523 0.0
C642 C 0.57327 0.24464 0.49852 0.0
C643 C 0.53667 0.21591 0.48615 0.0
C644 C 0.57787 0.27714 0.50607 0.0
C645 C 0.5461 0.28179 0.50138 0.0
C646 C 0.51031 0.25396 0.48854 0.0
C647 C 0.50548 0.22123 0.48108 0.0
C648 C 0.54961 0.31506 0.51047 0.0
C649 C 0.55423 0.34199 0.49816 0.0
C650 C 0.55044 0.32115 0.53129 0.0
C651 C 0.54381 0.29286 0.54504 0.0
C652 C 0.50572 0.25375 0.54322 0.0
C653 C 0.49992 0.22717 0.55608 0.0
C654 C 0.53184 0.23941 0.57093 0.0
C655 C 0.56957 0.27829 0.57298 0.0
C656 C 0.57556 0.30498 0.56014 0.0
C657 C 0.54504 0.4564 0.54104 0.0
C658 C 0.57671 0.4785 0.55656 0.0
C659 C 0.54044 0.42521 0.53124 0.0
C660 C 0.56794 0.41596 0.53656 0.0
C661 C 0.60026 0.43867 0.55174 0.0
C662 C 0.60456 0.46953 0.56163 0.0
C663 C 0.56209 0.38173 0.527 0.0
C664 C 0.5568 0.35438 0.53925 0.0
C665 C 0.56101 0.3755 0.50614 0.0
C666 C 0.56899 0.40426 0.49237 0.0
C667 C 0.6078 0.44303 0.49432 0.0
C668 C 0.61506 0.47002 0.48132 0.0
C669 C 0.58389 0.45852 0.46623 0.0
C670 C 0.54545 0.41998 0.46406 0.0
C671 C 0.53801 0.39288 0.47703 0.0
H672 H 0.58957 0.47946 0.45618 0.0
H673 H 0.52729 0.21879 0.58088 0.0
H674 H 0.41675 0.47896 0.8673 0.0
H675 H 0.35382 0.47959 0.86969 0.0
H676 H 0.42566 0.58468 0.83853 0.0
H677 H 0.48937 0.5848 0.83688 0.0
H678 H 0.38059 0.5932 0.8611 0.0
H679 H 0.32465 0.47965 0.81954 0.0
H680 H 0.3065 0.41642 0.8097 0.0
H681 H 0.22461 0.36658 0.86025 0.0
H682 H 0.24268 0.42964 0.8705 0.0
H683 H 0.18509 0.58316 0.8498 0.0
H684 H 0.24845 0.58337 0.84385 0.0
H685 H 0.18569 0.48081 0.87655 0.0
H686 H 0.12243 0.48004 0.88185 0.0
H687 H 0.22669 0.47197 0.85149 0.0
H688 H 0.28482 0.58816 0.89273 0.0
H689 H 0.3033 0.65195 0.90123 0.0
H690 H 0.38103 0.69722 0.8492 0.0
H691 H 0.36255 0.63357 0.84027 0.0
C692 C 0.41955 0.50234 0.86084 0.0
C693 C 0.45958 0.53172 0.85179 0.0
C694 C 0.38254 0.50252 0.86204 0.0
C695 C 0.3825 0.53168 0.8539 0.0
C696 C 0.42284 0.56133 0.84505 0.0
C697 C 0.46005 0.56135 0.84403 0.0
C698 C 0.34152 0.53157 0.85476 0.0
C699 C 0.34716 0.56642 0.85868 0.0
C700 C 0.29634 0.49736 0.85199 0.0
C701 C 0.28539 0.45945 0.84589 0.0
C702 C 0.30299 0.45525 0.82861 0.0
C703 C 0.29269 0.41944 0.82296 0.0
C704 C 0.26452 0.38753 0.83437 0.0
C705 C 0.24648 0.39134 0.85144 0.0
C706 C 0.25671 0.42709 0.85717 0.0
C707 C 0.18395 0.55991 0.85527 0.0
C708 C 0.14677 0.5311 0.86607 0.0
C709 C 0.22137 0.56046 0.85223 0.0
C710 C 0.22428 0.53258 0.86005 0.0
C711 C 0.18628 0.50314 0.87016 0.0
C712 C 0.14917 0.50258 0.87315 0.0
C713 C 0.2657 0.5335 0.85805 0.0
C714 C 0.26013 0.49874 0.85392 0.0
C715 C 0.3109 0.56784 0.86042 0.0
C716 C 0.32189 0.60601 0.86573 0.0
C717 C 0.3056 0.61166 0.88304 0.0
C718 C 0.31611 0.64779 0.88794 0.0
C719 C 0.3432 0.67858 0.87573 0.0
C720 C 0.35995 0.67333 0.85862 0.0
C721 C 0.34948 0.63724 0.85363 0.0
H722 H 0.35131 0.70653 0.87955 0.0
H723 H 0.25659 0.35984 0.82997 0.0
H724 H 0.89813 0.43124 0.16363 0.0
H725 H 0.83162 0.3649 0.16808 0.0
H726 H 0.89939 0.32093 0.14704 0.0
H727 H 0.96575 0.3872 0.14181 0.0
H728 H 0.81537 0.27458 0.13308 0.0
H729 H 0.8869 0.33312 0.19703 0.0
H730 H 0.91926 0.38262 0.22486 0.0
H731 H 0.79406 0.35863 0.23318 0.0
H732 H 0.76122 0.30974 0.20505 0.0
H733 H 0.66494 0.08665 0.17272 0.0
H734 H 0.72816 0.15089 0.16247 0.0
H735 H 0.66947 0.20036 0.18848 0.0
H736 H 0.60759 0.13659 0.19941 0.0
H737 H 0.75006 0.24401 0.19961 0.0
H738 H 0.67823 0.18795 0.13572 0.0
H739 H 0.64441 0.1393 0.10747 0.0
H740 H 0.76702 0.15861 0.09887 0.0
H741 H 0.80143 0.20704 0.12724 0.0
C742 C 0.899 0.40753 0.15984 0.0
C743 C 0.93766 0.41479 0.15248 0.0
C744 C 0.86089 0.36954 0.16252 0.0
C745 C 0.8606 0.33779 0.15839 0.0
C746 C 0.89867 0.34482 0.15046 0.0
C747 C 0.93671 0.38283 0.14751 0.0
C748 C 0.82108 0.29755 0.16284 0.0
C749 C 0.8014 0.2678 0.1477 0.0
C750 C 0.80195 0.28862 0.18179 0.0
C751 C 0.82169 0.31796 0.19879 0.0
C752 C 0.86634 0.33862 0.20467 0.0
C753 C 0.88478 0.36658 0.22051 0.0
C754 C 0.85874 0.37378 0.23077 0.0
C755 C 0.81418 0.35298 0.22524 0.0
C756 C 0.79567 0.32521 0.20931 0.0
C757 C 0.66524 0.11118 0.17582 0.0
C758 C 0.63121 0.10664 0.18667 0.0
C759 C 0.7014 0.14798 0.16996 0.0
C760 C 0.70384 0.18088 0.17452 0.0
C761 C 0.66883 0.17579 0.18479 0.0
C762 C 0.6332 0.13925 0.1909 0.0
C763 C 0.74376 0.2209 0.16978 0.0
C764 C 0.76375 0.25067 0.18493 0.0
C765 C 0.76284 0.22987 0.15082 0.0
C766 C 0.74227 0.20084 0.13373 0.0
C767 C 0.69789 0.18161 0.1279 0.0
C768 C 0.67863 0.15411 0.11185 0.0
C769 C 0.70351 0.14579 0.10141 0.0
C770 C 0.74776 0.16504 0.10698 0.0
C771 C 0.76717 0.19254 0.12303 0.0
H772 H 0.68854 0.12449 0.08899 0.0
H773 H 0.87308 0.39548 0.243 0.0
H774 H 1.038 0.4948 0.09456 0.0
H775 H 0.04619 0.49334 0.0586 0.0
H776 H 0.08203 0.60749 0.05734 0.0
H777 H 0.07244 0.60841 0.09318 0.0
H778 H 1.02692 0.5652 0.02851 0.0
H779 H 0.15877 0.58739 0.05211 0.0
H780 H 0.20461 0.57529 0.06965 0.0
H781 H 0.13766 0.46531 0.03708 0.0
H782 H 0.09099 0.47645 0.01956 0.0
H783 H 0.14747 0.58035 0.93165 0.0
H784 H 0.1451 0.58368 0.96788 0.0
H785 H 1.00257 0.50155 0.96424 0.0
H786 H 1.00466 0.49779 0.92808 0.0
H787 H 0.11469 0.53114 0.9953 0.0
H788 H 0.96034 0.52415 0.00138 0.0
H789 H 0.92155 0.54177 0.98228 0.0
H790 H 0.04318 0.63053 0.95525 0.0
H791 H 0.08278 0.61381 0.97439 0.0
C792 C 0.04782 0.51964 0.0866 0.0
C793 C 0.05445 0.55169 0.09668 0.0
C794 C 0.05279 0.51891 0.06603 0.0
C795 C 0.06519 0.55047 0.05511 0.0
C796 C 0.07234 0.58269 0.0653 0.0
C797 C 0.06698 0.58327 0.08582 0.0
C798 C 0.06907 0.54948 0.03305 0.0
C799 C 0.04618 0.55774 0.02133 0.0
C800 C 0.09438 0.54004 0.02344 0.0
C801 C 0.12116 0.53265 0.03462 0.0
C802 C 0.15346 0.56043 0.04886 0.0
C803 C 0.17969 0.55378 0.05876 0.0
C804 C 0.17411 0.5196 0.05443 0.0
C805 C 0.14199 0.4918 0.04038 0.0
C806 C 0.11565 0.49826 0.03047 0.0
C807 C 0.11561 0.56269 0.93855 0.0
C808 C 0.07625 0.539 0.92686 0.0
C809 C 0.11431 0.5647 0.9593 0.0
C810 C 0.07365 0.54326 0.96886 0.0
C811 C 1.03435 0.51898 0.95726 0.0
C812 C 1.03561 0.51693 0.93654 0.0
C813 C 0.07228 0.54647 0.99093 0.0
C814 C 0.09545 0.53853 0.00258 0.0
C815 C 0.04775 0.55669 0.00051 0.0
C816 C 1.0244 0.56744 0.98918 0.0
C817 C 0.97883 0.54753 0.99142 0.0
C818 C 0.9567 0.55735 0.98058 0.0
C819 C 0.97986 0.58717 0.96751 0.0
C820 C 1.02524 0.60735 0.96532 0.0
C821 C 0.04753 0.59768 0.97615 0.0
H822 H 0.96265 0.59469 0.95911 0.0
H823 H 0.1948 0.51468 0.06188 0.0
H824 H 0.51936 0.99962 0.41738 0.0
H825 H 0.51123 0.99939 0.38138 0.0
H826 H 0.65289 0.06927 0.37635 0.0
H827 H 0.66098 0.06873 0.41215 0.0
H828 H 0.53879 0.0528 0.35556 0.0
H829 H 0.67792 0.04263 0.33471 0.0
H830 H 0.71269 0.01573 0.34779 0.0
H831 H 0.59432 0.93228 0.37849 0.0
H832 H 0.55866 0.9583 0.36538 0.0
H833 H 0.58992 0.0944 0.25468 0.0
H834 H 0.59318 0.09329 0.29069 0.0
H835 H 0.54532 0.9749 0.28473 0.0
H836 H 0.54484 0.97663 0.24878 0.0
H837 H 0.60685 0.01085 0.3112 0.0
H838 H 0.47798 1.00042 0.2995 0.0
H839 H 0.43415 0.01862 0.28633 0.0
H840 H 0.51554 0.12764 0.32032 0.0
H841 H 0.56025 0.11029 0.3335 0.0
C842 C 0.54871 0.01499 0.40856 0.0
C843 C 0.59076 0.03381 0.41748 0.0
C844 C 0.54406 0.01496 0.38802 0.0
C845 C 0.58138 0.03379 0.3761 0.0
C846 C 0.62352 0.05385 0.38516 0.0
C847 C 0.62813 0.05363 0.40563 0.0
C848 C 0.5764 0.03176 0.35416 0.0
C849 C 0.55366 0.04365 0.34584 0.0
C850 C 0.5948 0.01885 0.34145 0.0
C851 C 0.61582 1.0027 0.34921 0.0
C852 C 0.65927 0.01844 0.34419 0.0
C853 C 0.67914 1.00337 0.35162 0.0
C854 C 0.65578 0.97241 0.36401 0.0
C855 C 0.61244 0.95636 0.36895 0.0
C856 C 0.59241 0.97129 0.36154 0.0
C857 C 0.58062 0.06826 0.26099 0.0
C858 C 0.56694 0.03555 0.24872 0.0
C859 C 0.58189 0.06749 0.28165 0.0
C860 C 0.56879 0.03378 0.29052 0.0
C861 C 0.55542 1.00122 0.27831 0.0
C862 C 0.55467 1.00212 0.25769 0.0
C863 C 0.56986 0.03257 0.31249 0.0
C864 C 0.59194 0.02006 0.32085 0.0
C865 C 0.54958 0.04369 0.32518 0.0
C866 C 0.52271 0.0542 0.31734 0.0
C867 C 0.48673 0.02839 0.30405 0.0
C868 C 0.4617 0.03854 0.2966 0.0
C869 C 0.47212 0.07431 0.30244 0.0
C870 C 0.50754 0.09996 0.31579 0.0
C871 C 0.53271 0.08997 0.32327 0.0
H872 H 0.4527 0.08211 0.29666 0.0
H873 H 0.67124 0.9608 0.36976 0.0
H874 H 0.50108 0.47433 0.78044 0.0
H875 H 0.5142 0.48499 0.74513 0.0
H876 H 0.64931 0.58541 0.7587 0.0
H877 H 0.6368 0.57416 0.79427 0.0
H878 H 0.59253 0.59061 0.72855 0.0
H879 H 0.64628 0.52013 0.74306 0.0
H880 H 0.6412 0.46736 0.75761 0.0
H881 H 0.52414 0.3829 0.72186 0.0
H882 H 0.5281 0.43519 0.70734 0.0
H883 H 0.64541 0.603 0.62609 0.0
H884 H 0.64841 0.60407 0.66236 0.0
H885 H 0.5336 0.48312 0.66025 0.0
H886 H 0.53144 0.48176 0.62406 0.0
H887 H 0.59005 0.49423 0.68577 0.0
H888 H 0.53024 0.56021 0.67316 0.0
H889 H 0.52877 0.61006 0.65926 0.0
H890 H 0.64946 0.69966 0.6915 0.0
H891 H 0.65196 0.65033 0.70539 0.0
C892 C 0.53359 0.49879 0.77596 0.0
C893 C 0.56797 0.52343 0.7901 0.0
C894 C 0.54097 0.50482 0.75579 0.0
C895 C 0.58268 0.5359 0.74938 0.0
C896 C 0.61686 0.56131 0.76344 0.0
C897 C 0.60969 0.55487 0.78369 0.0
C898 C 0.59026 0.54056 0.72787 0.0
C899 C 0.59298 0.57013 0.71916 0.0
C900 C 0.5895 0.51308 0.71571 0.0
C901 C 0.58727 0.48158 0.72425 0.0
C902 C 0.61922 0.4903 0.73844 0.0
C903 C 0.61659 0.46048 0.74665 0.0
C904 C 0.5823 0.4218 0.74069 0.0
C905 C 0.55065 0.41288 0.72647 0.0
C906 C 0.5531 0.4426 0.71823 0.0
C907 C 0.62077 0.57674 0.63343 0.0
C908 C 0.58818 0.5423 0.62229 0.0
C909 C 0.62242 0.57737 0.65415 0.0
C910 C 0.59091 0.54378 0.66413 0.0
C911 C 0.5584 0.50939 0.65295 0.0
C912 C 0.55714 0.50861 0.63226 0.0
C913 C 0.59167 0.54407 0.68617 0.0
C914 C 0.59035 0.51524 0.69505 0.0
C915 C 0.59303 0.57193 0.69844 0.0
C916 C 0.59156 0.60161 0.69013 0.0
C917 C 0.55665 0.59056 0.67716 0.0
C918 C 0.5556 0.61872 0.66931 0.0
C919 C 0.58907 0.65801 0.67445 0.0
C920 C 0.6236 0.66922 0.6875 0.0
C921 C 0.62485 0.64118 0.69537 0.0
H922 H 0.58819 0.67977 0.66835 0.0
H923 H 0.58032 0.39875 0.74707 0.0
H924 H 0.49193 0.98876 0.53421 0.0
H925 H 0.50029 0.98826 0.56994 0.0
H926 H 0.64028 0.08258 0.56706 0.0
H927 H 0.63221 0.08148 0.53096 0.0
H928 H 0.63034 0.03728 0.59257 0.0
H929 H 0.56183 0.09556 0.58334 0.0
H930 H 0.50745 0.10212 0.57024 0.0
H931 H 0.4029 0.99946 0.59838 0.0
H932 H 0.4566 0.99198 0.61144 0.0
H933 H 0.64474 0.0951 0.69724 0.0
H934 H 0.64258 0.09506 0.66086 0.0
H935 H 0.52382 0.97603 0.65805 0.0
H936 H 0.52653 0.97559 0.69435 0.0
H937 H 0.52607 0.03719 0.63615 0.0
H938 H 0.6016 0.98215 0.64498 0.0
H939 H 0.6609 0.9828 0.65898 0.0
H940 H 0.75885 0.09022 0.63243 0.0
H941 H 0.70009 0.0905 0.61854 0.0
C942 C 0.52452 0.00923 0.54121 0.0
C943 C 0.56135 0.03543 0.52992 0.0
C944 C 0.52926 0.00914 0.56167 0.0
C945 C 0.57072 0.03616 0.5714 0.0
C946 C 0.60787 0.06162 0.55999 0.0
C947 C 0.60327 0.06107 0.53938 0.0
C948 C 0.57491 0.03798 0.59344 0.0
C949 C 0.60783 0.03777 0.60204 0.0
C950 C 0.54563 0.03859 0.60599 0.0
C951 C 0.5132 0.04303 0.59823 0.0
C952 C 0.5272 0.07424 0.58663 0.0
C953 C 0.49651 0.07814 0.57922 0.0
C954 C 0.45174 0.05117 0.58343 0.0
C955 C 0.43759 0.0203 0.59511 0.0
C956 C 0.46815 0.01624 0.60254 0.0
C957 C 0.61835 0.06893 0.6888 0.0
C958 C 0.58583 0.03531 0.69851 0.0
C959 C 0.61721 0.06891 0.6681 0.0
C960 C 0.58309 0.03552 0.65685 0.0
C961 C 0.55044 1.00202 0.66652 0.0
C962 C 0.5521 1.00176 0.68718 0.0
C963 C 0.58079 0.03583 0.635 0.0
C964 C 0.54842 0.0367 0.62654 0.0
C965 C 0.61123 0.03687 0.62267 0.0
C966 C 0.64649 0.03657 0.63093 0.0
C967 C 0.6358 1.00611 0.64231 0.0
C968 C 0.66931 1.00627 0.65018 0.0
C969 C 0.71363 0.03659 0.64665 0.0
C970 C 0.72451 0.06678 0.63519 0.0
C971 C 0.69112 0.06678 0.6273 0.0
H972 H 0.73952 0.03666 0.65275 0.0
H973 H 0.42802 0.05424 0.57768 0.0
H974 H 0.66335 0.559 0.90437 0.0
H975 H 0.65535 0.52799 0.93491 0.0
H976 H 0.51568 0.47297 0.93406 0.0
H977 H 0.52333 0.50217 0.90289 0.0
H978 H 0.63782 0.53617 0.96896 0.0
H979 H 0.4557 0.39281 0.95741 0.0
H980 H 0.40771 0.34322 0.93066 0.0
H981 H 0.52241 0.37542 0.89924 0.0
H982 H 0.57093 0.42509 0.92573 0.0
H983 H 0.55115 0.47472 0.0608 0.0
H984 H 0.56554 0.49319 0.02705 0.0
H985 H 0.54373 0.38702 0.00893 0.0
H986 H 0.52315 0.36554 0.04261 0.0
H987 H 0.51222 0.40001 0.98195 0.0
H988 H 0.6524 0.48132 0.01463 0.0
H989 H 0.70864 0.52643 0.04062 0.0
H990 H 0.69346 0.61204 0.02772 0.0
H991 H 0.6367 0.56728 0.00184 0.0
C992 C 0.63093 0.54007 0.91069 0.0
C993 C 0.59396 0.53305 0.90143 0.0
C994 C 0.62635 0.52232 0.92812 0.0
C995 C 0.58482 0.49773 0.93678 0.0
C996 C 0.54787 0.49091 0.92748 0.0
C997 C 0.55229 0.50794 0.90979 0.0
C998 C 0.5806 0.48131 0.95616 0.0
C999 C 0.61056 0.50629 0.97172 0.0
C1000 C 0.54605 0.442 0.95974 0.0
C1001 C 0.51692 0.41284 0.9435 0.0
C1002 C 0.47063 0.3893 0.94477 0.0
C1003 C 0.44332 0.36122 0.92963 0.0
C1004 C 0.46193 0.35623 0.91321 0.0
C1005 C 0.50792 0.37944 0.91186 0.0
C1006 C 0.53536 0.40766 0.9269 0.0
C1007 C 0.54791 0.4544 0.04972 0.0
C1008 C 0.53515 0.4181 0.05469 0.0
C1009 C 0.55753 0.46571 0.03033 0.0
C1010 C 0.55718 0.44217 0.01543 0.0
C1011 C 0.54467 0.40596 0.02019 0.0
C1012 C 0.5334 0.39389 0.03958 0.0
C1013 C 0.56855 0.45523 0.99486 0.0
C1014 C 0.53992 0.4297 0.9791 0.0
C1015 C 0.60566 0.49358 0.99088 0.0
C1016 C 0.64011 0.52082 0.00634 0.0
C1017 C 0.6609 0.5097 0.0174 0.0
C1018 C 0.69288 0.53521 0.03211 0.0
C1019 C 0.70458 0.57206 0.03583 0.0
C1020 C 0.68438 0.5835 0.02481 0.0
C1021 C 0.65235 0.55809 0.0101 0.0
H1022 H 0.72933 0.59176 0.04723 0.0
H1023 H 0.44066 0.33423 0.90161 0.0
H1024 H 1.03553 0.53705 0.20526 0.0
H1025 H 1.0273 0.5345 0.24116 0.0
H1026 H 0.12083 0.51181 0.24564 0.0
H1027 H 0.12684 0.5122 0.20956 0.0
H1028 H 0.05664 0.46738 0.2687 0.0
H1029 H 0.14733 0.60379 0.25821 0.0
H1030 H 0.16628 0.66214 0.24329 0.0
H1031 H 0.05025 0.6411 0.26747 0.0
H1032 H 1.03032 0.58232 0.28233 0.0
H1033 H 0.12734 0.53071 0.37015 0.0
H1034 H 0.12469 0.5284 0.3338 0.0
H1035 H 1.00181 0.51123 0.33497 0.0
H1036 H 1.00378 0.51258 0.37143 0.0
H1037 H 0.07495 0.57364 0.30956 0.0
H1038 H 0.98811 0.43831 0.32177 0.0
H1039 H 0.97321 0.38204 0.33736 0.0
H1040 H 0.08743 0.40392 0.31036 0.0
H1041 H 0.10348 0.46079 0.2949 0.0
C1042 C 0.05411 0.53146 0.21391 0.0
C1043 C 0.08159 0.52476 0.20462 0.0
C1044 C 0.04974 0.53028 0.23448 0.0
C1045 C 0.07391 0.52347 0.24626 0.0
C1046 C 0.10173 0.51704 0.23695 0.0
C1047 C 0.10537 0.51751 0.21633 0.0
C1048 C 0.07009 0.52273 0.26822 0.0
C1049 C 0.06112 0.49087 0.27759 0.0
C1050 C 0.07491 0.55288 0.27992 0.0
C1051 C 0.08713 0.58847 0.27122 0.0
C1052 C 0.12573 0.61149 0.26025 0.0
C1053 C 0.13666 0.64465 0.25182 0.0
C1054 C 0.10942 0.65526 0.25439 0.0
C1055 C 0.07128 0.63281 0.26547 0.0
C1056 C 0.06018 0.5996 0.27391 0.0
C1057 C 0.09974 0.52636 0.36262 0.0
C1058 C 0.06574 0.5218 0.37351 0.0
C1059 C 0.09824 0.525 0.34192 0.0
C1060 C 0.06308 0.51968 0.33177 0.0
C1061 C 1.02921 0.5154 0.34259 0.0
C1062 C 1.03024 0.51598 0.36332 0.0
C1063 C 0.0621 0.51867 0.30983 0.0
C1064 C 0.07021 0.55015 0.30054 0.0
C1065 C 0.05705 0.48847 0.29823 0.0
C1066 C 0.04725 0.45405 0.30734 0.0
C1067 C 1.0103 0.43135 0.31931 0.0
C1068 C 1.00159 0.3993 0.32809 0.0
C1069 C 1.02942 0.38946 0.32489 0.0
C1070 C 0.06594 0.4116 0.31285 0.0
C1071 C 0.07484 0.44374 0.30406 0.0
H1072 H 1.02263 0.36464 0.3317 0.0
H1073 H 0.11792 0.68093 0.24784 0.0
loop_
_geom_bond_atom_site_label_1
_geom_bond_atom_site_label_2
_geom_bond_distance
_geom_bond_site_symmetry_2
_ccdc_geom_bond_type
Gd0 C3 2.818 . S
Gd0 O20 2.377 . S
Gd0 O22 2.448 . S
Gd0 O23 2.506 . S
Gd0 O24 2.435 . S
Gd0 O25 2.717 . S
Gd0 O27 2.395 1_455 S
Gd0 O31 2.327 . S
Gd1 C12 2.818 1_455 S
Gd1 O21 2.395 . S
Gd1 O25 2.327 . S
Gd1 O26 2.377 1_455 S
Gd1 O28 2.448 1_455 S
Gd1 O29 2.506 1_455 S
Gd1 O30 2.435 . S
Gd1 O31 2.717 . S
C2 O20 1.240 . S
C2 O21 1.240 . S
C3 Gd0 2.818 . S
C3 C4 1.510 . S
C3 O22 1.249 . S
C3 O23 1.252 . S
C4 C3 1.510 . S
C4 C5 1.404 . S
C4 C6 1.352 . S
C5 C4 1.404 . S
C5 C9 1.389 . S
C5 H32 0.930 . S
C6 C4 1.352 . S
C6 C8 1.374 . S
C6 H33 0.931 . S
C7 C8 1.359 . S
C7 C9 1.364 . S
C8 C6 1.374 . S
C8 C7 1.359 . S
C8 H34 0.931 . S
C9 C5 1.389 . S
C9 C7 1.364 . S
C9 H35 0.931 . S
C10 O24 1.256 . S
C10 O25 1.257 . S
C11 O26 1.240 . S
C11 O27 1.240 . S
C12 Gd1 2.818 1_655 S
C12 C13 1.510 . S
C12 O28 1.249 . S
C12 O29 1.252 . S
C13 C12 1.510 . S
C13 C14 1.404 . S
C13 C15 1.352 . S
C14 C13 1.404 . S
C14 C18 1.389 . S
C14 H36 0.930 . S
C15 C13 1.352 . S
C15 C17 1.374 . S
C15 H37 0.931 . S
C16 C17 1.359 . S
C16 C18 1.364 . S
C17 C15 1.374 . S
C17 C16 1.359 . S
C17 H38 0.931 . S
C18 C14 1.389 . S
C18 C16 1.364 . S
C18 H39 0.931 . S
C19 O30 1.256 . S
C19 O31 1.257 . S
O20 Gd0 2.377 . S
O20 C2 1.240 . S
O21 Gd1 2.395 . S
O21 C2 1.240 . S
O22 Gd0 2.448 . S
O22 C3 1.249 . S
O23 Gd0 2.506 . S
O23 C3 1.252 . S
O24 Gd0 2.435 . S
O24 C10 1.256 . S
O25 Gd0 2.717 . S
O25 Gd1 2.327 . S
O25 C10 1.257 . S
O26 Gd1 2.377 1_655 S
O26 C11 1.240 . S
O27 Gd0 2.395 1_655 S
O27 C11 1.240 . S
O28 Gd1 2.448 1_655 S
O28 C12 1.249 . S
O29 Gd1 2.506 1_655 S
O29 C12 1.252 . S
O30 Gd1 2.435 . S
O30 C19 1.256 . S
O31 Gd0 2.327 . S
O31 Gd1 2.717 . S
O31 C19 1.257 . S
H32 C5 0.930 . S
H33 C6 0.931 . S
H34 C8 0.931 . S
H35 C9 0.931 . S
H36 C14 0.930 . S
H37 C15 0.931 . S
H38 C17 0.931 . S
H39 C18 0.931 . S
Gd40 C43 2.818 . S
Gd40 O60 2.377 . S
Gd40 O62 2.448 . S
Gd40 O63 2.506 . S
Gd40 O64 2.435 . S
Gd40 O65 2.717 1_565 S
Gd40 O67 2.395 1_565 S
Gd40 O71 2.327 1_565 S
Gd41 C52 2.818 . S
Gd41 O61 2.395 1_545 S
Gd41 O65 2.327 . S
Gd41 O66 2.377 . S
Gd41 O68 2.448 . S
Gd41 O69 2.506 . S
Gd41 O70 2.435 . S
Gd41 O71 2.717 . S
C42 O60 1.240 . S
C42 O61 1.240 . S
C43 Gd40 2.818 . S
C43 C44 1.510 . S
C43 O62 1.249 . S
C43 O63 1.252 . S
C44 C43 1.510 . S
C44 C45 1.404 . S
C44 C46 1.352 . S
C45 C44 1.404 . S
C45 C49 1.389 . S
C45 H72 0.930 . S
C46 C44 1.352 . S
C46 C48 1.374 . S
C46 H73 0.931 . S
C47 C48 1.359 . S
C47 C49 1.364 . S
C48 C46 1.374 . S
C48 C47 1.359 . S
C48 H74 0.931 . S
C49 C45 1.389 . S
C49 C47 1.364 . S
C49 H75 0.931 . S
C50 O64 1.256 1_545 S
C50 O65 1.257 . S
C51 O66 1.240 . S
C51 O67 1.240 . S
C52 Gd41 2.818 . S
C52 C53 1.510 . S
C52 O68 1.249 . S
C52 O69 1.252 . S
C53 C52 1.510 . S
C53 C54 1.404 . S
C53 C55 1.352 . S
C54 C53 1.404 . S
C54 C58 1.389 . S
C54 H76 0.930 . S
C55 C53 1.352 . S
C55 C57 1.374 . S
C55 H77 0.931 . S
C56 C57 1.359 . S
C56 C58 1.364 . S
C57 C55 1.374 . S
C57 C56 1.359 . S
C57 H78 0.931 . S
C58 C54 1.389 . S
C58 C56 1.364 . S
C58 H79 0.931 . S
C59 O70 1.256 . S
C59 O71 1.257 . S
O60 Gd40 2.377 . S
O60 C42 1.240 . S
O61 Gd41 2.395 1_565 S
O61 C42 1.240 . S
O62 Gd40 2.448 . S
O62 C43 1.249 . S
O63 Gd40 2.506 . S
O63 C43 1.252 . S
O64 Gd40 2.435 . S
O64 C50 1.256 1_565 S
O65 Gd40 2.717 1_545 S
O65 Gd41 2.327 . S
O65 C50 1.257 . S
O66 Gd41 2.377 . S
O66 C51 1.240 . S
O67 Gd40 2.395 1_545 S
O67 C51 1.240 . S
O68 Gd41 2.448 . S
O68 C52 1.249 . S
O69 Gd41 2.506 . S
O69 C52 1.252 . S
O70 Gd41 2.435 . S
O70 C59 1.256 . S
O71 Gd40 2.327 1_545 S
O71 Gd41 2.717 . S
O71 C59 1.257 . S
H72 C45 0.930 . S
H73 C46 0.931 . S
H74 C48 0.931 . S
H75 C49 0.931 . S
H76 C54 0.930 . S
H77 C55 0.931 . S
H78 C57 0.931 . S
H79 C58 0.931 . S
Gd80 C83 2.818 . S
Gd80 O100 2.377 . S
Gd80 O102 2.448 . S
Gd80 O103 2.506 . S
Gd80 O104 2.435 . S
Gd80 O105 2.717 . S
Gd80 O107 2.395 . S
Gd80 O111 2.327 . S
Gd81 C92 2.818 . S
Gd81 O101 2.395 . S
Gd81 O105 2.327 . S
Gd81 O106 2.377 . S
Gd81 O108 2.448 . S
Gd81 O109 2.506 . S
Gd81 O110 2.435 . S
Gd81 O111 2.717 . S
C82 O100 1.240 . S
C82 O101 1.240 . S
C83 Gd80 2.818 . S
C83 C84 1.510 . S
C83 O102 1.249 . S
C83 O103 1.252 . S
C84 C83 1.510 . S
C84 C85 1.404 . S
C84 C86 1.352 . S
C85 C84 1.404 . S
C85 C89 1.389 . S
C85 H112 0.930 . S
C86 C84 1.352 . S
C86 C88 1.374 . S
C86 H113 0.931 . S
C87 C88 1.359 . S
C87 C89 1.364 . S
C88 C86 1.374 . S
C88 C87 1.359 . S
C88 H114 0.931 . S
C89 C85 1.389 . S
C89 C87 1.364 . S
C89 H115 0.931 . S
C90 O104 1.256 . S
C90 O105 1.257 . S
C91 O106 1.240 . S
C91 O107 1.240 . S
C92 Gd81 2.818 . S
C92 C93 1.510 . S
C92 O108 1.249 . S
C92 O109 1.252 . S
C93 C92 1.510 . S
C93 C94 1.404 . S
C93 C95 1.352 . S
C94 C93 1.404 . S
C94 C98 1.389 . S
C94 H116 0.930 . S
C95 C93 1.352 . S
C95 C97 1.374 . S
C95 H117 0.931 . S
C96 C97 1.359 . S
C96 C98 1.364 . S
C97 C95 1.374 . S
C97 C96 1.359 . S
C97 H118 0.931 . S
C98 C94 1.389 . S
C98 C96 1.364 . S
C98 H119 0.931 . S
C99 O110 1.256 . S
C99 O111 1.257 . S
O100 Gd80 2.377 . S
O100 C82 1.240 . S
O101 Gd81 2.395 . S
O101 C82 1.240 . S
O102 Gd80 2.448 . S
O102 C83 1.249 . S
O103 Gd80 2.506 . S
O103 C83 1.252 . S
O104 Gd80 2.435 . S
O104 C90 1.256 . S
O105 Gd80 2.717 . S
O105 Gd81 2.327 . S
O105 C90 1.257 . S
O106 Gd81 2.377 . S
O106 C91 1.240 . S
O107 Gd80 2.395 . S
O107 C91 1.240 . S
O108 Gd81 2.448 . S
O108 C92 1.249 . S
O109 Gd81 2.506 . S
O109 C92 1.252 . S
O110 Gd81 2.435 . S
O110 C99 1.256 . S
O111 Gd80 2.327 . S
O111 Gd81 2.717 . S
O111 C99 1.257 . S
H112 C85 0.930 . S
H113 C86 0.931 . S
H114 C88 0.931 . S
H115 C89 0.931 . S
H116 C94 0.930 . S
H117 C95 0.931 . S
H118 C97 0.931 . S
H119 C98 0.931 . S
H120 C123 0.931 . S
H121 C126 0.928 . S
H122 C128 0.930 . S
C123 H120 0.931 . S
C123 C124 1.413 . S
C123 C125 1.360 1_565 S
C124 C123 1.413 . S
C124 C128 1.429 1_565 S
C125 C123 1.360 1_545 S
C125 C126 1.372 . S
C126 H121 0.928 . S
C126 C125 1.372 . S
C126 C127 1.404 . S
C127 C126 1.404 . S
C127 C128 1.391 . S
C128 H122 0.930 . S
C128 C124 1.429 1_545 S
C128 C127 1.391 . S
H129 C132 0.931 . S
H130 C135 0.928 . S
H131 C137 0.930 . S
C132 H129 0.931 . S
C132 C133 1.413 . S
C132 C134 1.360 . S
C133 C132 1.413 . S
C133 C137 1.429 . S
C134 C132 1.360 . S
C134 C135 1.372 . S
C135 H130 0.928 . S
C135 C134 1.372 . S
C135 C136 1.404 . S
C136 C135 1.404 . S
C136 C137 1.391 . S
C137 H131 0.930 . S
C137 C133 1.429 . S
C137 C136 1.391 . S
H138 C141 0.931 . S
H139 C144 0.928 . S
H140 C146 0.930 . S
C141 H138 0.931 . S
C141 C142 1.413 . S
C141 C143 1.360 . S
C142 C141 1.413 . S
C142 C146 1.429 . S
C143 C141 1.360 . S
C143 C144 1.372 . S
C144 H139 0.928 . S
C144 C143 1.372 . S
C144 C145 1.404 . S
C145 C144 1.404 . S
C145 C146 1.391 . S
C146 H140 0.930 . S
C146 C142 1.429 . S
C146 C145 1.391 . S
H147 C150 0.931 . S
H148 C153 0.928 . S
H149 C155 0.930 . S
C150 H147 0.931 . S
C150 C151 1.413 . S
C150 C152 1.360 . S
C151 C150 1.413 . S
C151 C155 1.429 1_655 S
C152 C150 1.360 . S
C152 C153 1.372 1_655 S
C153 H148 0.928 . S
C153 C152 1.372 1_455 S
C153 C154 1.404 . S
C154 C153 1.404 . S
C154 C155 1.391 . S
C155 H149 0.930 . S
C155 C151 1.429 1_455 S
C155 C154 1.391 . S
H156 C159 0.931 . S
H157 C162 0.928 . S
H158 C164 0.930 . S
C159 H156 0.931 . S
C159 C160 1.413 . S
C159 C161 1.360 . S
C160 C159 1.413 . S
C160 C164 1.429 . S
C161 C159 1.360 . S
C161 C162 1.372 1_545 S
C162 H157 0.928 . S
C162 C161 1.372 1_565 S
C162 C163 1.404 . S
C163 C162 1.404 . S
C163 C164 1.391 1_565 S
C164 H158 0.930 . S
C164 C160 1.429 . S
C164 C163 1.391 1_545 S
H165 C168 0.931 . S
H166 C171 0.928 . S
H167 C173 0.930 . S
C168 H165 0.931 . S
C168 C169 1.413 . S
C168 C170 1.360 . S
C169 C168 1.413 . S
C169 C173 1.429 . S
C170 C168 1.360 . S
C170 C171 1.372 . S
C171 H166 0.928 . S
C171 C170 1.372 . S
C171 C172 1.404 . S
C172 C171 1.404 . S
C172 C173 1.391 . S
C173 H167 0.930 . S
C173 C169 1.429 . S
C173 C172 1.391 . S
H174 C192 0.951 . S
H175 C194 0.951 . S
H176 C196 0.950 . S
H177 C197 0.950 . S
H178 C199 0.950 . S
H179 C202 0.950 . S
H180 C203 0.950 . S
H181 C205 0.950 . S
H182 C206 0.950 . S
H183 C207 0.951 . S
H184 C209 0.951 . S
H185 C211 0.950 . S
H186 C212 0.950 . S
H187 C214 0.950 . S
H188 C217 0.950 . S
H189 C218 0.950 . S
H190 C220 0.950 . S
H191 C221 0.950 . S
C192 H174 0.951 . S
C192 C193 1.366 . S
C192 C194 1.388 . S
C193 C192 1.366 . S
C193 C197 1.385 . S
C194 H175 0.951 . S
C194 C192 1.388 . S
C194 C195 1.366 . S
C195 C194 1.366 . S
C195 C196 1.414 . S
C195 C198 1.499 . S
C196 H176 0.950 . S
C196 C195 1.414 . S
C196 C197 1.374 . S
C197 H177 0.950 . S
C197 C193 1.385 . S
C197 C196 1.374 . S
C198 C195 1.499 . S
C198 C199 1.373 . S
C198 C200 1.389 . S
C199 H178 0.950 . S
C199 C198 1.373 . S
C199 C215 1.377 . S
C200 C198 1.389 . S
C200 C201 1.524 . S
C200 C214 1.377 . S
C201 C200 1.524 . S
C201 C202 1.397 . S
C201 C206 1.363 . S
C202 H179 0.950 . S
C202 C201 1.397 . S
C202 C203 1.334 . S
C203 H180 0.950 . S
C203 C202 1.334 . S
C203 C204 1.287 . S
C204 C203 1.287 . S
C204 C205 1.524 . S
C204 H223 0.913 . S
C205 H181 0.950 . S
C205 C204 1.524 . S
C205 C206 1.415 . S
C206 H182 0.950 . S
C206 C201 1.363 . S
C206 C205 1.415 . S
C207 H183 0.951 . S
C207 C208 1.366 . S
C207 C209 1.388 . S
C208 C207 1.366 . S
C208 C212 1.385 . S
C209 H184 0.951 . S
C209 C207 1.388 . S
C209 C210 1.366 . S
C210 C209 1.366 . S
C210 C211 1.414 . S
C210 C213 1.499 . S
C211 H185 0.950 . S
C211 C210 1.414 . S
C211 C212 1.374 . S
C212 H186 0.950 . S
C212 C208 1.385 . S
C212 C211 1.374 . S
C213 C210 1.499 . S
C213 C214 1.373 . S
C213 C215 1.389 . S
C214 H187 0.950 . S
C214 C200 1.377 . S
C214 C213 1.373 . S
C215 C199 1.377 . S
C215 C213 1.389 . S
C215 C216 1.524 . S
C216 C215 1.524 . S
C216 C217 1.397 . S
C216 C221 1.363 . S
C217 H188 0.950 . S
C217 C216 1.397 . S
C217 C218 1.334 . S
C218 H189 0.950 . S
C218 C217 1.334 . S
C218 C219 1.287 . S
C219 C218 1.287 . S
C219 C220 1.524 . S
C219 H222 0.999 . S
C220 H190 0.950 . S
C220 C219 1.524 . S
C220 C221 1.415 . S
C221 H191 0.950 . S
C221 C216 1.363 . S
C221 C220 1.415 . S
H222 C219 0.999 . S
H223 C204 0.913 . S
H224 C242 0.951 . S
H225 C244 0.951 . S
H226 C246 0.950 . S
H227 C247 0.950 . S
H228 C249 0.950 . S
H229 C252 0.950 . S
H230 C253 0.950 . S
H231 C255 0.950 . S
H232 C256 0.950 . S
H233 C257 0.951 . S
H234 C259 0.951 . S
H235 C261 0.950 . S
H236 C262 0.950 . S
H237 C264 0.950 . S
H238 C267 0.950 . S
H239 C268 0.950 . S
H240 C270 0.950 . S
H241 C271 0.950 . S
C242 H224 0.951 . S
C242 C243 1.366 . S
C242 C244 1.388 . S
C243 C242 1.366 . S
C243 C247 1.385 . S
C244 H225 0.951 . S
C244 C242 1.388 . S
C244 C245 1.366 . S
C245 C244 1.366 . S
C245 C246 1.414 . S
C245 C248 1.499 . S
C246 H226 0.950 . S
C246 C245 1.414 . S
C246 C247 1.374 . S
C247 H227 0.950 . S
C247 C243 1.385 . S
C247 C246 1.374 . S
C248 C245 1.499 . S
C248 C249 1.373 . S
C248 C250 1.389 . S
C249 H228 0.950 . S
C249 C248 1.373 . S
C249 C265 1.377 . S
C250 C248 1.389 . S
C250 C251 1.524 . S
C250 C264 1.377 . S
C251 C250 1.524 . S
C251 C252 1.397 . S
C251 C256 1.363 . S
C252 H229 0.950 . S
C252 C251 1.397 . S
C252 C253 1.334 . S
C253 H230 0.950 . S
C253 C252 1.334 . S
C253 C254 1.287 . S
C254 C253 1.287 . S
C254 C255 1.524 . S
C254 H273 0.913 . S
C255 H231 0.950 . S
C255 C254 1.524 . S
C255 C256 1.415 . S
C256 H232 0.950 . S
C256 C251 1.363 . S
C256 C255 1.415 . S
C257 H233 0.951 . S
C257 C258 1.366 . S
C257 C259 1.388 . S
C258 C257 1.366 . S
C258 C262 1.385 . S
C259 H234 0.951 . S
C259 C257 1.388 . S
C259 C260 1.366 . S
C260 C259 1.366 . S
C260 C261 1.414 . S
C260 C263 1.499 . S
C261 H235 0.950 . S
C261 C260 1.414 . S
C261 C262 1.374 . S
C262 H236 0.950 . S
C262 C258 1.385 . S
C262 C261 1.374 . S
C263 C260 1.499 . S
C263 C264 1.373 . S
C263 C265 1.389 . S
C264 H237 0.950 . S
C264 C250 1.377 . S
C264 C263 1.373 . S
C265 C249 1.377 . S
C265 C263 1.389 . S
C265 C266 1.524 . S
C266 C265 1.524 . S
C266 C267 1.397 . S
C266 C271 1.363 . S
C267 H238 0.950 . S
C267 C266 1.397 . S
C267 C268 1.334 . S
C268 H239 0.950 . S
C268 C267 1.334 . S
C268 C269 1.287 . S
C269 C268 1.287 . S
C269 C270 1.524 . S
C269 H272 0.999 . S
C270 H240 0.950 . S
C270 C269 1.524 . S
C270 C271 1.415 . S
C271 H241 0.950 . S
C271 C266 1.363 . S
C271 C270 1.415 . S
H272 C269 0.999 . S
H273 C254 0.913 . S
H274 C292 0.951 . S
H275 C294 0.951 . S
H276 C296 0.950 . S
H277 C297 0.950 . S
H278 C299 0.950 . S
H279 C302 0.950 . S
H280 C303 0.950 . S
H281 C305 0.950 . S
H282 C306 0.950 . S
H283 C307 0.951 . S
H284 C309 0.951 . S
H285 C311 0.950 . S
H286 C312 0.950 . S
H287 C314 0.950 . S
H288 C317 0.950 . S
H289 C318 0.950 1_545 S
H290 C320 0.950 1_545 S
H291 C321 0.950 . S
C292 H274 0.951 . S
C292 C293 1.366 . S
C292 C294 1.388 . S
C293 C292 1.366 . S
C293 C297 1.385 . S
C294 H275 0.951 . S
C294 C292 1.388 . S
C294 C295 1.366 . S
C295 C294 1.366 . S
C295 C296 1.414 . S
C295 C298 1.499 . S
C296 H276 0.950 . S
C296 C295 1.414 . S
C296 C297 1.374 . S
C297 H277 0.950 . S
C297 C293 1.385 . S
C297 C296 1.374 . S
C298 C295 1.499 . S
C298 C299 1.373 . S
C298 C300 1.389 . S
C299 H278 0.950 . S
C299 C298 1.373 . S
C299 C315 1.377 . S
C300 C298 1.389 . S
C300 C301 1.524 . S
C300 C314 1.377 . S
C301 C300 1.524 . S
C301 C302 1.397 . S
C301 C306 1.363 . S
C302 H279 0.950 . S
C302 C301 1.397 . S
C302 C303 1.334 . S
C303 H280 0.950 . S
C303 C302 1.334 . S
C303 C304 1.287 . S
C304 C303 1.287 . S
C304 C305 1.524 . S
C304 H323 0.913 . S
C305 H281 0.950 . S
C305 C304 1.524 . S
C305 C306 1.415 . S
C306 H282 0.950 . S
C306 C301 1.363 . S
C306 C305 1.415 . S
C307 H283 0.951 . S
C307 C308 1.366 . S
C307 C309 1.388 . S
C308 C307 1.366 . S
C308 C312 1.385 . S
C309 H284 0.951 . S
C309 C307 1.388 . S
C309 C310 1.366 . S
C310 C309 1.366 . S
C310 C311 1.414 . S
C310 C313 1.499 . S
C311 H285 0.950 . S
C311 C310 1.414 . S
C311 C312 1.374 . S
C312 H286 0.950 . S
C312 C308 1.385 . S
C312 C311 1.374 . S
C313 C310 1.499 . S
C313 C314 1.373 . S
C313 C315 1.389 . S
C314 H287 0.950 . S
C314 C300 1.377 . S
C314 C313 1.373 . S
C315 C299 1.377 . S
C315 C313 1.389 . S
C315 C316 1.524 . S
C316 C315 1.524 . S
C316 C317 1.397 . S
C316 C321 1.363 . S
C317 H288 0.950 . S
C317 C316 1.397 . S
C317 C318 1.334 . S
C318 H289 0.950 1_565 S
C318 C317 1.334 . S
C318 C319 1.287 1_565 S
C319 C318 1.287 1_545 S
C319 C320 1.524 1_545 S
C319 H322 0.999 . S
C320 H290 0.950 1_565 S
C320 C319 1.524 1_565 S
C320 C321 1.415 . S
C321 H291 0.950 . S
C321 C316 1.363 . S
C321 C320 1.415 . S
H322 C319 0.999 . S
H323 C304 0.913 . S
H324 C342 0.951 . S
H325 C344 0.951 . S
H326 C346 0.950 . S
H327 C347 0.950 . S
H328 C349 0.950 . S
H329 C352 0.950 . S
H330 C353 0.950 . S
H331 C355 0.950 . S
H332 C356 0.950 . S
H333 C357 0.951 . S
H334 C359 0.951 . S
H335 C361 0.950 . S
H336 C362 0.950 . S
H337 C364 0.950 . S
H338 C367 0.950 . S
H339 C368 0.950 . S
H340 C370 0.950 . S
H341 C371 0.950 . S
C342 H324 0.951 . S
C342 C343 1.366 . S
C342 C344 1.388 . S
C343 C342 1.366 . S
C343 C347 1.385 . S
C344 H325 0.951 . S
C344 C342 1.388 . S
C344 C345 1.366 . S
C345 C344 1.366 . S
C345 C346 1.414 . S
C345 C348 1.499 . S
C346 H326 0.950 . S
C346 C345 1.414 . S
C346 C347 1.374 . S
C347 H327 0.950 . S
C347 C343 1.385 . S
C347 C346 1.374 . S
C348 C345 1.499 . S
C348 C349 1.373 . S
C348 C350 1.389 . S
C349 H328 0.950 . S
C349 C348 1.373 . S
C349 C365 1.377 . S
C350 C348 1.389 . S
C350 C351 1.524 . S
C350 C364 1.377 . S
C351 C350 1.524 . S
C351 C352 1.397 . S
C351 C356 1.363 . S
C352 H329 0.950 . S
C352 C351 1.397 . S
C352 C353 1.334 . S
C353 H330 0.950 . S
C353 C352 1.334 . S
C353 C354 1.287 . S
C354 C353 1.287 . S
C354 C355 1.524 . S
C354 H373 0.913 . S
C355 H331 0.950 . S
C355 C354 1.524 . S
C355 C356 1.415 . S
C356 H332 0.950 . S
C356 C351 1.363 . S
C356 C355 1.415 . S
C357 H333 0.951 . S
C357 C358 1.366 . S
C357 C359 1.388 . S
C358 C357 1.366 . S
C358 C362 1.385 . S
C359 H334 0.951 . S
C359 C357 1.388 . S
C359 C360 1.366 . S
C360 C359 1.366 . S
C360 C361 1.414 . S
C360 C363 1.499 . S
C361 H335 0.950 . S
C361 C360 1.414 . S
C361 C362 1.374 . S
C362 H336 0.950 . S
C362 C358 1.385 . S
C362 C361 1.374 . S
C363 C360 1.499 . S
C363 C364 1.373 . S
C363 C365 1.389 . S
C364 H337 0.950 . S
C364 C350 1.377 . S
C364 C363 1.373 . S
C365 C349 1.377 . S
C365 C363 1.389 . S
C365 C366 1.524 . S
C366 C365 1.524 . S
C366 C367 1.397 . S
C366 C371 1.363 . S
C367 H338 0.950 . S
C367 C366 1.397 . S
C367 C368 1.334 . S
C368 H339 0.950 . S
C368 C367 1.334 . S
C368 C369 1.287 . S
C369 C368 1.287 . S
C369 C370 1.524 . S
C369 H372 0.999 . S
C370 H340 0.950 . S
C370 C369 1.524 . S
C370 C371 1.415 . S
C371 H341 0.950 . S
C371 C366 1.363 . S
C371 C370 1.415 . S
H372 C369 0.999 . S
H373 C354 0.913 . S
H374 C392 0.951 . S
H375 C394 0.951 . S
H376 C396 0.950 . S
H377 C397 0.950 . S
H378 C399 0.950 . S
H379 C402 0.950 . S
H380 C403 0.950 . S
H381 C405 0.950 . S
H382 C406 0.950 . S
H383 C407 0.951 . S
H384 C409 0.951 . S
H385 C411 0.950 . S
H386 C412 0.950 . S
H387 C414 0.950 . S
H388 C417 0.950 . S
H389 C418 0.950 . S
H390 C420 0.950 . S
H391 C421 0.950 . S
C392 H374 0.951 . S
C392 C393 1.366 . S
C392 C394 1.388 . S
C393 C392 1.366 . S
C393 C397 1.385 . S
C394 H375 0.951 . S
C394 C392 1.388 . S
C394 C395 1.366 . S
C395 C394 1.366 . S
C395 C396 1.414 . S
C395 C398 1.499 . S
C396 H376 0.950 . S
C396 C395 1.414 . S
C396 C397 1.374 . S
C397 H377 0.950 . S
C397 C393 1.385 . S
C397 C396 1.374 . S
C398 C395 1.499 . S
C398 C399 1.373 . S
C398 C400 1.389 . S
C399 H378 0.950 . S
C399 C398 1.373 . S
C399 C415 1.377 . S
C400 C398 1.389 . S
C400 C401 1.524 . S
C400 C414 1.377 . S
C401 C400 1.524 . S
C401 C402 1.397 . S
C401 C406 1.363 . S
C402 H379 0.950 . S
C402 C401 1.397 . S
C402 C403 1.334 . S
C403 H380 0.950 . S
C403 C402 1.334 . S
C403 C404 1.287 . S
C404 C403 1.287 . S
C404 C405 1.524 . S
C404 H423 0.913 . S
C405 H381 0.950 . S
C405 C404 1.524 . S
C405 C406 1.415 . S
C406 H382 0.950 . S
C406 C401 1.363 . S
C406 C405 1.415 . S
C407 H383 0.951 . S
C407 C408 1.366 . S
C407 C409 1.388 . S
C408 C407 1.366 . S
C408 C412 1.385 . S
C409 H384 0.951 . S
C409 C407 1.388 . S
C409 C410 1.366 . S
C410 C409 1.366 . S
C410 C411 1.414 . S
C410 C413 1.499 . S
C411 H385 0.950 . S
C411 C410 1.414 . S
C411 C412 1.374 . S
C412 H386 0.950 . S
C412 C408 1.385 . S
C412 C411 1.374 . S
C413 C410 1.499 . S
C413 C414 1.373 . S
C413 C415 1.389 . S
C414 H387 0.950 . S
C414 C400 1.377 . S
C414 C413 1.373 . S
C415 C399 1.377 . S
C415 C413 1.389 . S
C415 C416 1.524 . S
C416 C415 1.524 . S
C416 C417 1.397 . S
C416 C421 1.363 . S
C417 H388 0.950 . S
C417 C416 1.397 . S
C417 C418 1.334 . S
C418 H389 0.950 . S
C418 C417 1.334 . S
C418 C419 1.287 . S
C419 C418 1.287 . S
C419 C420 1.524 . S
C419 H422 0.999 . S
C420 H390 0.950 . S
C420 C419 1.524 . S
C420 C421 1.415 . S
C421 H391 0.950 . S
C421 C416 1.363 . S
C421 C420 1.415 . S
H422 C419 0.999 . S
H423 C404 0.913 . S
H424 C442 0.951 . S
H425 C444 0.951 . S
H426 C446 0.950 . S
H427 C447 0.950 . S
H428 C449 0.950 . S
H429 C452 0.950 . S
H430 C453 0.950 . S
H431 C455 0.950 . S
H432 C456 0.950 . S
H433 C457 0.951 . S
H434 C459 0.951 . S
H435 C461 0.950 . S
H436 C462 0.950 . S
H437 C464 0.950 . S
H438 C467 0.950 . S
H439 C468 0.950 . S
H440 C470 0.950 . S
H441 C471 0.950 . S
C442 H424 0.951 . S
C442 C443 1.366 . S
C442 C444 1.388 . S
C443 C442 1.366 . S
C443 C447 1.385 . S
C444 H425 0.951 . S
C444 C442 1.388 . S
C444 C445 1.366 . S
C445 C444 1.366 . S
C445 C446 1.414 . S
C445 C448 1.499 . S
C446 H426 0.950 . S
C446 C445 1.414 . S
C446 C447 1.374 . S
C447 H427 0.950 . S
C447 C443 1.385 . S
C447 C446 1.374 . S
C448 C445 1.499 . S
C448 C449 1.373 . S
C448 C450 1.389 . S
C449 H428 0.950 . S
C449 C448 1.373 . S
C449 C465 1.377 . S
C450 C448 1.389 . S
C450 C451 1.524 . S
C450 C464 1.377 . S
C451 C450 1.524 . S
C451 C452 1.397 . S
C451 C456 1.363 . S
C452 H429 0.950 . S
C452 C451 1.397 . S
C452 C453 1.334 . S
C453 H430 0.950 . S
C453 C452 1.334 . S
C453 C454 1.287 . S
C454 C453 1.287 . S
C454 C455 1.524 . S
C454 H473 0.913 . S
C455 H431 0.950 . S
C455 C454 1.524 . S
C455 C456 1.415 . S
C456 H432 0.950 . S
C456 C451 1.363 . S
C456 C455 1.415 . S
C457 H433 0.951 . S
C457 C458 1.366 . S
C457 C459 1.388 . S
C458 C457 1.366 . S
C458 C462 1.385 . S
C459 H434 0.951 . S
C459 C457 1.388 . S
C459 C460 1.366 . S
C460 C459 1.366 . S
C460 C461 1.414 . S
C460 C463 1.499 . S
C461 H435 0.950 . S
C461 C460 1.414 . S
C461 C462 1.374 . S
C462 H436 0.950 . S
C462 C458 1.385 . S
C462 C461 1.374 . S
C463 C460 1.499 . S
C463 C464 1.373 . S
C463 C465 1.389 . S
C464 H437 0.950 . S
C464 C450 1.377 . S
C464 C463 1.373 . S
C465 C449 1.377 . S
C465 C463 1.389 . S
C465 C466 1.524 . S
C466 C465 1.524 . S
C466 C467 1.397 . S
C466 C471 1.363 . S
C467 H438 0.950 . S
C467 C466 1.397 . S
C467 C468 1.334 . S
C468 H439 0.950 . S
C468 C467 1.334 . S
C468 C469 1.287 . S
C469 C468 1.287 . S
C469 C470 1.524 . S
C469 H472 0.999 . S
C470 H440 0.950 . S
C470 C469 1.524 . S
C470 C471 1.415 . S
C471 H441 0.950 . S
C471 C466 1.363 . S
C471 C470 1.415 . S
H472 C469 0.999 . S
H473 C454 0.913 . S
H474 C492 0.951 . S
H475 C494 0.951 . S
H476 C496 0.950 . S
H477 C497 0.950 . S
H478 C499 0.950 . S
H479 C502 0.950 . S
H480 C503 0.950 . S
H481 C505 0.950 . S
H482 C506 0.950 . S
H483 C507 0.951 . S
H484 C509 0.951 . S
H485 C511 0.950 . S
H486 C512 0.950 . S
H487 C514 0.950 . S
H488 C517 0.950 . S
H489 C518 0.950 . S
H490 C520 0.950 . S
H491 C521 0.950 . S
C492 H474 0.951 . S
C492 C493 1.366 . S
C492 C494 1.388 . S
C493 C492 1.366 . S
C493 C497 1.385 . S
C494 H475 0.951 . S
C494 C492 1.388 . S
C494 C495 1.366 . S
C495 C494 1.366 . S
C495 C496 1.414 . S
C495 C498 1.499 . S
C496 H476 0.950 . S
C496 C495 1.414 . S
C496 C497 1.374 . S
C497 H477 0.950 . S
C497 C493 1.385 . S
C497 C496 1.374 . S
C498 C495 1.499 . S
C498 C499 1.373 . S
C498 C500 1.389 . S
C499 H478 0.950 . S
C499 C498 1.373 . S
C499 C515 1.377 . S
C500 C498 1.389 . S
C500 C501 1.524 . S
C500 C514 1.377 . S
C501 C500 1.524 . S
C501 C502 1.397 . S
C501 C506 1.363 . S
C502 H479 0.950 . S
C502 C501 1.397 . S
C502 C503 1.334 . S
C503 H480 0.950 . S
C503 C502 1.334 . S
C503 C504 1.287 . S
C504 C503 1.287 . S
C504 C505 1.524 . S
C504 H523 0.913 . S
C505 H481 0.950 . S
C505 C504 1.524 . S
C505 C506 1.415 . S
C506 H482 0.950 . S
C506 C501 1.363 . S
C506 C505 1.415 . S
C507 H483 0.951 . S
C507 C508 1.366 . S
C507 C509 1.388 . S
C508 C507 1.366 . S
C508 C512 1.385 . S
C509 H484 0.951 . S
C509 C507 1.388 . S
C509 C510 1.366 . S
C510 C509 1.366 . S
C510 C511 1.414 . S
C510 C513 1.499 . S
C511 H485 0.950 . S
C511 C510 1.414 . S
C511 C512 1.374 . S
C512 H486 0.950 . S
C512 C508 1.385 . S
C512 C511 1.374 . S
C513 C510 1.499 . S
C513 C514 1.373 . S
C513 C515 1.389 . S
C514 H487 0.950 . S
C514 C500 1.377 . S
C514 C513 1.373 . S
C515 C499 1.377 . S
C515 C513 1.389 . S
C515 C516 1.524 . S
C516 C515 1.524 . S
C516 C517 1.397 . S
C516 C521 1.363 . S
C517 H488 0.950 . S
C517 C516 1.397 . S
C517 C518 1.334 . S
C518 H489 0.950 . S
C518 C517 1.334 . S
C518 C519 1.287 . S
C519 C518 1.287 . S
C519 C520 1.524 . S
C519 H522 0.999 . S
C520 H490 0.950 . S
C520 C519 1.524 . S
C520 C521 1.415 . S
C521 H491 0.950 . S
C521 C516 1.363 . S
C521 C520 1.415 . S
H522 C519 0.999 . S
H523 C504 0.913 . S
H524 C542 0.951 . S
H525 C544 0.951 . S
H526 C546 0.950 . S
H527 C547 0.950 . S
H528 C549 0.950 . S
H529 C552 0.950 . S
H530 C553 0.950 . S
H531 C555 0.950 . S
H532 C556 0.950 . S
H533 C557 0.951 . S
H534 C559 0.951 . S
H535 C561 0.950 . S
H536 C562 0.950 . S
H537 C564 0.950 . S
H538 C567 0.950 . S
H539 C568 0.950 . S
H540 C570 0.950 . S
H541 C571 0.950 . S
C542 H524 0.951 . S
C542 C543 1.366 . S
C542 C544 1.388 . S
C543 C542 1.366 . S
C543 C547 1.385 . S
C544 H525 0.951 . S
C544 C542 1.388 . S
C544 C545 1.366 . S
C545 C544 1.366 . S
C545 C546 1.414 . S
C545 C548 1.499 . S
C546 H526 0.950 . S
C546 C545 1.414 . S
C546 C547 1.374 . S
C547 H527 0.950 . S
C547 C543 1.385 . S
C547 C546 1.374 . S
C548 C545 1.499 . S
C548 C549 1.373 . S
C548 C550 1.389 . S
C549 H528 0.950 . S
C549 C548 1.373 . S
C549 C565 1.377 . S
C550 C548 1.389 . S
C550 C551 1.524 . S
C550 C564 1.377 . S
C551 C550 1.524 . S
C551 C552 1.397 . S
C551 C556 1.363 . S
C552 H529 0.950 . S
C552 C551 1.397 . S
C552 C553 1.334 . S
C553 H530 0.950 . S
C553 C552 1.334 . S
C553 C554 1.287 . S
C554 C553 1.287 . S
C554 C555 1.524 . S
C554 H573 0.913 . S
C555 H531 0.950 . S
C555 C554 1.524 . S
C555 C556 1.415 . S
C556 H532 0.950 . S
C556 C551 1.363 . S
C556 C555 1.415 . S
C557 H533 0.951 . S
C557 C558 1.366 . S
C557 C559 1.388 . S
C558 C557 1.366 . S
C558 C562 1.385 . S
C559 H534 0.951 . S
C559 C557 1.388 . S
C559 C560 1.366 . S
C560 C559 1.366 . S
C560 C561 1.414 . S
C560 C563 1.499 . S
C561 H535 0.950 . S
C561 C560 1.414 . S
C561 C562 1.374 . S
C562 H536 0.950 . S
C562 C558 1.385 . S
C562 C561 1.374 . S
C563 C560 1.499 . S
C563 C564 1.373 . S
C563 C565 1.389 . S
C564 H537 0.950 . S
C564 C550 1.377 . S
C564 C563 1.373 . S
C565 C549 1.377 . S
C565 C563 1.389 . S
C565 C566 1.524 . S
C566 C565 1.524 . S
C566 C567 1.397 . S
C566 C571 1.363 . S
C567 H538 0.950 . S
C567 C566 1.397 . S
C567 C568 1.334 . S
C568 H539 0.950 . S
C568 C567 1.334 . S
C568 C569 1.287 . S
C569 C568 1.287 . S
C569 C570 1.524 . S
C569 H572 0.999 . S
C570 H540 0.950 . S
C570 C569 1.524 . S
C570 C571 1.415 . S
C571 H541 0.950 . S
C571 C566 1.363 . S
C571 C570 1.415 . S
H572 C569 0.999 . S
H573 C554 0.913 . S
H574 C592 0.951 . S
H575 C594 0.951 . S
H576 C596 0.950 . S
H577 C597 0.950 . S
H578 C599 0.950 . S
H579 C602 0.950 . S
H580 C603 0.950 . S
H581 C605 0.950 . S
H582 C606 0.950 . S
H583 C607 0.951 . S
H584 C609 0.951 . S
H585 C611 0.950 . S
H586 C612 0.950 . S
H587 C614 0.950 . S
H588 C617 0.950 . S
H589 C618 0.950 . S
H590 C620 0.950 . S
H591 C621 0.950 . S
C592 H574 0.951 . S
C592 C593 1.366 . S
C592 C594 1.388 . S
C593 C592 1.366 . S
C593 C597 1.385 . S
C594 H575 0.951 . S
C594 C592 1.388 . S
C594 C595 1.366 . S
C595 C594 1.366 . S
C595 C596 1.414 . S
C595 C598 1.499 . S
C596 H576 0.950 . S
C596 C595 1.414 . S
C596 C597 1.374 . S
C597 H577 0.950 . S
C597 C593 1.385 . S
C597 C596 1.374 . S
C598 C595 1.499 . S
C598 C599 1.373 . S
C598 C600 1.389 . S
C599 H578 0.950 . S
C599 C598 1.373 . S
C599 C615 1.377 . S
C600 C598 1.389 . S
C600 C601 1.524 . S
C600 C614 1.377 . S
C601 C600 1.524 . S
C601 C602 1.397 . S
C601 C606 1.363 . S
C602 H579 0.950 . S
C602 C601 1.397 . S
C602 C603 1.334 . S
C603 H580 0.950 . S
C603 C602 1.334 . S
C603 C604 1.287 . S
C604 C603 1.287 . S
C604 C605 1.524 . S
C604 H623 0.913 . S
C605 H581 0.950 . S
C605 C604 1.524 . S
C605 C606 1.415 . S
C606 H582 0.950 . S
C606 C601 1.363 . S
C606 C605 1.415 . S
C607 H583 0.951 . S
C607 C608 1.366 . S
C607 C609 1.388 . S
C608 C607 1.366 . S
C608 C612 1.385 . S
C609 H584 0.951 . S
C609 C607 1.388 . S
C609 C610 1.366 . S
C610 C609 1.366 . S
C610 C611 1.414 . S
C610 C613 1.499 . S
C611 H585 0.950 . S
C611 C610 1.414 . S
C611 C612 1.374 . S
C612 H586 0.950 . S
C612 C608 1.385 . S
C612 C611 1.374 . S
C613 C610 1.499 . S
C613 C614 1.373 . S
C613 C615 1.389 . S
C614 H587 0.950 . S
C614 C600 1.377 . S
C614 C613 1.373 . S
C615 C599 1.377 . S
C615 C613 1.389 . S
C615 C616 1.524 . S
C616 C615 1.524 . S
C616 C617 1.397 . S
C616 C621 1.363 . S
C617 H588 0.950 . S
C617 C616 1.397 . S
C617 C618 1.334 . S
C618 H589 0.950 . S
C618 C617 1.334 . S
C618 C619 1.287 . S
C619 C618 1.287 . S
C619 C620 1.524 . S
C619 H622 0.999 . S
C620 H590 0.950 . S
C620 C619 1.524 . S
C620 C621 1.415 . S
C621 H591 0.950 . S
C621 C616 1.363 . S
C621 C620 1.415 . S
H622 C619 0.999 . S
H623 C604 0.913 . S
H624 C642 0.951 . S
H625 C644 0.951 . S
H626 C646 0.950 . S
H627 C647 0.950 . S
H628 C649 0.950 . S
H629 C652 0.950 . S
H630 C653 0.950 . S
H631 C655 0.950 . S
H632 C656 0.950 . S
H633 C657 0.951 . S
H634 C659 0.951 . S
H635 C661 0.950 . S
H636 C662 0.950 . S
H637 C664 0.950 . S
H638 C667 0.950 . S
H639 C668 0.950 . S
H640 C670 0.950 . S
H641 C671 0.950 . S
C642 H624 0.951 . S
C642 C643 1.366 . S
C642 C644 1.388 . S
C643 C642 1.366 . S
C643 C647 1.385 . S
C644 H625 0.951 . S
C644 C642 1.388 . S
C644 C645 1.366 . S
C645 C644 1.366 . S
C645 C646 1.414 . S
C645 C648 1.499 . S
C646 H626 0.950 . S
C646 C645 1.414 . S
C646 C647 1.374 . S
C647 H627 0.950 . S
C647 C643 1.385 . S
C647 C646 1.374 . S
C648 C645 1.499 . S
C648 C649 1.373 . S
C648 C650 1.389 . S
C649 H628 0.950 . S
C649 C648 1.373 . S
C649 C665 1.377 . S
C650 C648 1.389 . S
C650 C651 1.524 . S
C650 C664 1.377 . S
C651 C650 1.524 . S
C651 C652 1.397 . S
C651 C656 1.363 . S
C652 H629 0.950 . S
C652 C651 1.397 . S
C652 C653 1.334 . S
C653 H630 0.950 . S
C653 C652 1.334 . S
C653 C654 1.287 . S
C654 C653 1.287 . S
C654 C655 1.524 . S
C654 H673 0.913 . S
C655 H631 0.950 . S
C655 C654 1.524 . S
C655 C656 1.415 . S
C656 H632 0.950 . S
C656 C651 1.363 . S
C656 C655 1.415 . S
C657 H633 0.951 . S
C657 C658 1.366 . S
C657 C659 1.388 . S
C658 C657 1.366 . S
C658 C662 1.385 . S
C659 H634 0.951 . S
C659 C657 1.388 . S
C659 C660 1.366 . S
C660 C659 1.366 . S
C660 C661 1.414 . S
C660 C663 1.499 . S
C661 H635 0.950 . S
C661 C660 1.414 . S
C661 C662 1.374 . S
C662 H636 0.950 . S
C662 C658 1.385 . S
C662 C661 1.374 . S
C663 C660 1.499 . S
C663 C664 1.373 . S
C663 C665 1.389 . S
C664 H637 0.950 . S
C664 C650 1.377 . S
C664 C663 1.373 . S
C665 C649 1.377 . S
C665 C663 1.389 . S
C665 C666 1.524 . S
C666 C665 1.524 . S
C666 C667 1.397 . S
C666 C671 1.363 . S
C667 H638 0.950 . S
C667 C666 1.397 . S
C667 C668 1.334 . S
C668 H639 0.950 . S
C668 C667 1.334 . S
C668 C669 1.287 . S
C669 C668 1.287 . S
C669 C670 1.524 . S
C669 H672 0.999 . S
C670 H640 0.950 . S
C670 C669 1.524 . S
C670 C671 1.415 . S
C671 H641 0.950 . S
C671 C666 1.363 . S
C671 C670 1.415 . S
H672 C669 0.999 . S
H673 C654 0.913 . S
H674 C692 0.951 . S
H675 C694 0.951 . S
H676 C696 0.950 . S
H677 C697 0.950 . S
H678 C699 0.950 . S
H679 C702 0.950 . S
H680 C703 0.950 . S
H681 C705 0.950 . S
H682 C706 0.950 . S
H683 C707 0.951 . S
H684 C709 0.951 . S
H685 C711 0.950 . S
H686 C712 0.950 . S
H687 C714 0.950 . S
H688 C717 0.950 . S
H689 C718 0.950 . S
H690 C720 0.950 . S
H691 C721 0.950 . S
C692 H674 0.951 . S
C692 C693 1.366 . S
C692 C694 1.388 . S
C693 C692 1.366 . S
C693 C697 1.385 . S
C694 H675 0.951 . S
C694 C692 1.388 . S
C694 C695 1.366 . S
C695 C694 1.366 . S
C695 C696 1.414 . S
C695 C698 1.499 . S
C696 H676 0.950 . S
C696 C695 1.414 . S
C696 C697 1.374 . S
C697 H677 0.950 . S
C697 C693 1.385 . S
C697 C696 1.374 . S
C698 C695 1.499 . S
C698 C699 1.373 . S
C698 C700 1.389 . S
C699 H678 0.950 . S
C699 C698 1.373 . S
C699 C715 1.377 . S
C700 C698 1.389 . S
C700 C701 1.524 . S
C700 C714 1.377 . S
C701 C700 1.524 . S
C701 C702 1.397 . S
C701 C706 1.363 . S
C702 H679 0.950 . S
C702 C701 1.397 . S
C702 C703 1.334 . S
C703 H680 0.950 . S
C703 C702 1.334 . S
C703 C704 1.287 . S
C704 C703 1.287 . S
C704 C705 1.524 . S
C704 H723 0.913 . S
C705 H681 0.950 . S
C705 C704 1.524 . S
C705 C706 1.415 . S
C706 H682 0.950 . S
C706 C701 1.363 . S
C706 C705 1.415 . S
C707 H683 0.951 . S
C707 C708 1.366 . S
C707 C709 1.388 . S
C708 C707 1.366 . S
C708 C712 1.385 . S
C709 H684 0.951 . S
C709 C707 1.388 . S
C709 C710 1.366 . S
C710 C709 1.366 . S
C710 C711 1.414 . S
C710 C713 1.499 . S
C711 H685 0.950 . S
C711 C710 1.414 . S
C711 C712 1.374 . S
C712 H686 0.950 . S
C712 C708 1.385 . S
C712 C711 1.374 . S
C713 C710 1.499 . S
C713 C714 1.373 . S
C713 C715 1.389 . S
C714 H687 0.950 . S
C714 C700 1.377 . S
C714 C713 1.373 . S
C715 C699 1.377 . S
C715 C713 1.389 . S
C715 C716 1.524 . S
C716 C715 1.524 . S
C716 C717 1.397 . S
C716 C721 1.363 . S
C717 H688 0.950 . S
C717 C716 1.397 . S
C717 C718 1.334 . S
C718 H689 0.950 . S
C718 C717 1.334 . S
C718 C719 1.287 . S
C719 C718 1.287 . S
C719 C720 1.524 . S
C719 H722 0.999 . S
C720 H690 0.950 . S
C720 C719 1.524 . S
C720 C721 1.415 . S
C721 H691 0.950 . S
C721 C716 1.363 . S
C721 C720 1.415 . S
H722 C719 0.999 . S
H723 C704 0.913 . S
H724 C742 0.951 . S
H725 C744 0.951 . S
H726 C746 0.950 . S
H727 C747 0.950 . S
H728 C749 0.950 . S
H729 C752 0.950 . S
H730 C753 0.950 . S
H731 C755 0.950 . S
H732 C756 0.950 . S
H733 C757 0.951 . S
H734 C759 0.951 . S
H735 C761 0.950 . S
H736 C762 0.950 . S
H737 C764 0.950 . S
H738 C767 0.950 . S
H739 C768 0.950 . S
H740 C770 0.950 . S
H741 C771 0.950 . S
C742 H724 0.951 . S
C742 C743 1.366 . S
C742 C744 1.388 . S
C743 C742 1.366 . S
C743 C747 1.385 . S
C744 H725 0.951 . S
C744 C742 1.388 . S
C744 C745 1.366 . S
C745 C744 1.366 . S
C745 C746 1.414 . S
C745 C748 1.499 . S
C746 H726 0.950 . S
C746 C745 1.414 . S
C746 C747 1.374 . S
C747 H727 0.950 . S
C747 C743 1.385 . S
C747 C746 1.374 . S
C748 C745 1.499 . S
C748 C749 1.373 . S
C748 C750 1.389 . S
C749 H728 0.950 . S
C749 C748 1.373 . S
C749 C765 1.377 . S
C750 C748 1.389 . S
C750 C751 1.524 . S
C750 C764 1.377 . S
C751 C750 1.524 . S
C751 C752 1.397 . S
C751 C756 1.363 . S
C752 H729 0.950 . S
C752 C751 1.397 . S
C752 C753 1.334 . S
C753 H730 0.950 . S
C753 C752 1.334 . S
C753 C754 1.287 . S
C754 C753 1.287 . S
C754 C755 1.524 . S
C754 H773 0.913 . S
C755 H731 0.950 . S
C755 C754 1.524 . S
C755 C756 1.415 . S
C756 H732 0.950 . S
C756 C751 1.363 . S
C756 C755 1.415 . S
C757 H733 0.951 . S
C757 C758 1.366 . S
C757 C759 1.388 . S
C758 C757 1.366 . S
C758 C762 1.385 . S
C759 H734 0.951 . S
C759 C757 1.388 . S
C759 C760 1.366 . S
C760 C759 1.366 . S
C760 C761 1.414 . S
C760 C763 1.499 . S
C761 H735 0.950 . S
C761 C760 1.414 . S
C761 C762 1.374 . S
C762 H736 0.950 . S
C762 C758 1.385 . S
C762 C761 1.374 . S
C763 C760 1.499 . S
C763 C764 1.373 . S
C763 C765 1.389 . S
C764 H737 0.950 . S
C764 C750 1.377 . S
C764 C763 1.373 . S
C765 C749 1.377 . S
C765 C763 1.389 . S
C765 C766 1.524 . S
C766 C765 1.524 . S
C766 C767 1.397 . S
C766 C771 1.363 . S
C767 H738 0.950 . S
C767 C766 1.397 . S
C767 C768 1.334 . S
C768 H739 0.950 . S
C768 C767 1.334 . S
C768 C769 1.287 . S
C769 C768 1.287 . S
C769 C770 1.524 . S
C769 H772 0.999 . S
C770 H740 0.950 . S
C770 C769 1.524 . S
C770 C771 1.415 . S
C771 H741 0.950 . S
C771 C766 1.363 . S
C771 C770 1.415 . S
H772 C769 0.999 . S
H773 C754 0.913 . S
H774 C792 0.951 1_655 S
H775 C794 0.951 1_655 S
H776 C796 0.950 . S
H777 C797 0.950 . S
H778 C799 0.950 . S
H779 C802 0.950 . S
H780 C803 0.950 . S
H781 C805 0.950 . S
H782 C806 0.950 . S
H783 C807 0.951 . S
H784 C809 0.951 . S
H785 C811 0.950 . S
H786 C812 0.950 . S
H787 C814 0.981 . S
H788 C817 0.950 1_655 S
H789 C818 0.950 . S
H790 C820 0.950 . S
H791 C821 0.950 . S
C792 H774 0.951 1_455 S
C792 C793 1.366 . S
C792 C794 1.388 . S
C793 C792 1.366 . S
C793 C797 1.385 . S
C794 H775 0.951 1_455 S
C794 C792 1.388 . S
C794 C795 1.366 . S
C795 C794 1.366 . S
C795 C796 1.414 . S
C795 C798 1.499 . S
C796 H776 0.950 . S
C796 C795 1.414 . S
C796 C797 1.374 . S
C797 H777 0.950 . S
C797 C793 1.385 . S
C797 C796 1.374 . S
C798 C795 1.499 . S
C798 C799 1.373 . S
C798 C800 1.389 . S
C799 H778 0.950 . S
C799 C798 1.373 . S
C799 C815 1.377 . S
C800 C798 1.389 . S
C800 C801 1.524 . S
C800 C814 1.377 . S
C801 C800 1.524 . S
C801 C802 1.397 . S
C801 C806 1.363 . S
C802 H779 0.950 . S
C802 C801 1.397 . S
C802 C803 1.334 . S
C803 H780 0.950 . S
C803 C802 1.334 . S
C803 C804 1.287 . S
C804 C803 1.287 . S
C804 C805 1.524 . S
C804 H823 0.913 . S
C805 H781 0.950 . S
C805 C804 1.524 . S
C805 C806 1.415 . S
C806 H782 0.950 . S
C806 C801 1.363 . S
C806 C805 1.415 . S
C807 H783 0.951 . S
C807 C808 1.366 . S
C807 C809 1.388 . S
C808 C807 1.366 . S
C808 C812 1.385 . S
C809 H784 0.951 . S
C809 C807 1.388 . S
C809 C810 1.366 . S
C810 C809 1.366 . S
C810 C811 1.414 . S
C810 C813 1.499 1_556 S
C811 H785 0.950 . S
C811 C810 1.414 . S
C811 C812 1.374 . S
C812 H786 0.950 . S
C812 C808 1.385 . S
C812 C811 1.374 . S
C813 C810 1.499 1_554 S
C813 C814 1.373 . S
C813 C815 1.389 . S
C814 H787 0.981 . S
C814 C800 1.377 . S
C814 C813 1.373 . S
C815 C799 1.377 . S
C815 C813 1.389 . S
C815 C816 1.524 . S
C816 C815 1.524 . S
C816 C817 1.397 1_554 S
C816 C821 1.363 . S
C817 H788 0.950 1_455 S
C817 C816 1.397 1_556 S
C817 C818 1.334 1_455 S
C818 H789 0.950 . S
C818 C817 1.334 1_655 S
C818 C819 1.287 1_655 S
C819 C818 1.287 1_455 S
C819 C820 1.524 1_556 S
C819 H822 0.999 . S
C820 H790 0.950 . S
C820 C819 1.524 1_554 S
C820 C821 1.415 . S
C821 H791 0.950 . S
C821 C816 1.363 . S
C821 C820 1.415 . S
H822 C819 0.999 . S
H823 C804 0.913 . S
H824 C842 0.951 . S
H825 C844 0.951 . S
H826 C846 0.950 . S
H827 C847 0.950 . S
H828 C849 0.950 . S
H829 C852 0.950 1_545 S
H830 C853 0.950 . S
H831 C855 0.950 . S
H832 C856 0.950 . S
H833 C857 0.951 . S
H834 C859 0.951 . S
H835 C861 0.950 . S
H836 C862 0.950 . S
H837 C864 0.950 . S
H838 C867 0.950 . S
H839 C868 0.950 . S
H840 C870 0.950 . S
H841 C871 0.950 . S
C842 H824 0.951 . S
C842 C843 1.366 1_565 S
C842 C844 1.388 . S
C843 C842 1.366 1_545 S
C843 C847 1.385 . S
C844 H825 0.951 . S
C844 C842 1.388 . S
C844 C845 1.366 1_565 S
C845 C844 1.366 1_545 S
C845 C846 1.414 . S
C845 C848 1.499 . S
C846 H826 0.950 . S
C846 C845 1.414 . S
C846 C847 1.374 . S
C847 H827 0.950 . S
C847 C843 1.385 . S
C847 C846 1.374 . S
C848 C845 1.499 . S
C848 C849 1.373 . S
C848 C850 1.389 1_545 S
C849 H828 0.950 . S
C849 C848 1.373 . S
C849 C865 1.377 . S
C850 C848 1.389 1_565 S
C850 C851 1.524 . S
C850 C864 1.377 . S
C851 C850 1.524 . S
C851 C852 1.397 . S
C851 C856 1.363 . S
C852 H829 0.950 1_565 S
C852 C851 1.397 . S
C852 C853 1.334 . S
C853 H830 0.950 . S
C853 C852 1.334 . S
C853 C854 1.287 . S
C854 C853 1.287 . S
C854 C855 1.524 . S
C854 H873 0.913 . S
C855 H831 0.950 . S
C855 C854 1.524 . S
C855 C856 1.415 . S
C856 H832 0.950 . S
C856 C851 1.363 . S
C856 C855 1.415 . S
C857 H833 0.951 . S
C857 C858 1.366 . S
C857 C859 1.388 . S
C858 C857 1.366 . S
C858 C862 1.385 1_545 S
C859 H834 0.951 . S
C859 C857 1.388 . S
C859 C860 1.366 . S
C860 C859 1.366 . S
C860 C861 1.414 1_545 S
C860 C863 1.499 . S
C861 H835 0.950 . S
C861 C860 1.414 1_565 S
C861 C862 1.374 . S
C862 H836 0.950 . S
C862 C858 1.385 1_565 S
C862 C861 1.374 . S
C863 C860 1.499 . S
C863 C864 1.373 1_545 S
C863 C865 1.389 . S
C864 H837 0.950 . S
C864 C850 1.377 . S
C864 C863 1.373 1_565 S
C865 C849 1.377 . S
C865 C863 1.389 . S
C865 C866 1.524 . S
C866 C865 1.524 . S
C866 C867 1.397 . S
C866 C871 1.363 . S
C867 H838 0.950 . S
C867 C866 1.397 . S
C867 C868 1.334 . S
C868 H839 0.950 . S
C868 C867 1.334 . S
C868 C869 1.287 . S
C869 C868 1.287 . S
C869 C870 1.524 . S
C869 H872 0.999 . S
C870 H840 0.950 . S
C870 C869 1.524 . S
C870 C871 1.415 . S
C871 H841 0.950 . S
C871 C866 1.363 . S
C871 C870 1.415 . S
H872 C869 0.999 . S
H873 C854 0.913 . S
H874 C892 0.951 . S
H875 C894 0.951 . S
H876 C896 0.950 . S
H877 C897 0.950 . S
H878 C899 0.950 . S
H879 C902 0.950 . S
H880 C903 0.950 . S
H881 C905 0.950 . S
H882 C906 0.950 . S
H883 C907 0.951 . S
H884 C909 0.951 . S
H885 C911 0.950 . S
H886 C912 0.950 . S
H887 C914 0.950 . S
H888 C917 0.950 . S
H889 C918 0.950 . S
H890 C920 0.950 . S
H891 C921 0.950 . S
C892 H874 0.951 . S
C892 C893 1.366 . S
C892 C894 1.388 . S
C893 C892 1.366 . S
C893 C897 1.385 . S
C894 H875 0.951 . S
C894 C892 1.388 . S
C894 C895 1.366 . S
C895 C894 1.366 . S
C895 C896 1.414 . S
C895 C898 1.499 . S
C896 H876 0.950 . S
C896 C895 1.414 . S
C896 C897 1.374 . S
C897 H877 0.950 . S
C897 C893 1.385 . S
C897 C896 1.374 . S
C898 C895 1.499 . S
C898 C899 1.373 . S
C898 C900 1.389 . S
C899 H878 0.950 . S
C899 C898 1.373 . S
C899 C915 1.377 . S
C900 C898 1.389 . S
C900 C901 1.524 . S
C900 C914 1.377 . S
C901 C900 1.524 . S
C901 C902 1.397 . S
C901 C906 1.363 . S
C902 H879 0.950 . S
C902 C901 1.397 . S
C902 C903 1.334 . S
C903 H880 0.950 . S
C903 C902 1.334 . S
C903 C904 1.287 . S
C904 C903 1.287 . S
C904 C905 1.524 . S
C904 H923 0.913 . S
C905 H881 0.950 . S
C905 C904 1.524 . S
C905 C906 1.415 . S
C906 H882 0.950 . S
C906 C901 1.363 . S
C906 C905 1.415 . S
C907 H883 0.951 . S
C907 C908 1.366 . S
C907 C909 1.388 . S
C908 C907 1.366 . S
C908 C912 1.385 . S
C909 H884 0.951 . S
C909 C907 1.388 . S
C909 C910 1.366 . S
C910 C909 1.366 . S
C910 C911 1.414 . S
C910 C913 1.499 . S
C911 H885 0.950 . S
C911 C910 1.414 . S
C911 C912 1.374 . S
C912 H886 0.950 . S
C912 C908 1.385 . S
C912 C911 1.374 . S
C913 C910 1.499 . S
C913 C914 1.373 . S
C913 C915 1.389 . S
C914 H887 0.950 . S
C914 C900 1.377 . S
C914 C913 1.373 . S
C915 C899 1.377 . S
C915 C913 1.389 . S
C915 C916 1.524 . S
C916 C915 1.524 . S
C916 C917 1.397 . S
C916 C921 1.363 . S
C917 H888 0.950 . S
C917 C916 1.397 . S
C917 C918 1.334 . S
C918 H889 0.950 . S
C918 C917 1.334 . S
C918 C919 1.287 . S
C919 C918 1.287 . S
C919 C920 1.524 . S
C919 H922 0.999 . S
C920 H890 0.950 . S
C920 C919 1.524 . S
C920 C921 1.415 . S
C921 H891 0.950 . S
C921 C916 1.363 . S
C921 C920 1.415 . S
H922 C919 0.999 . S
H923 C904 0.913 . S
H924 C942 0.951 . S
H925 C944 0.951 . S
H926 C946 0.950 . S
H927 C947 0.950 . S
H928 C949 0.950 . S
H929 C952 0.950 . S
H930 C953 0.950 . S
H931 C955 0.950 . S
H932 C956 0.950 . S
H933 C957 0.951 . S
H934 C959 0.951 . S
H935 C961 0.950 . S
H936 C962 0.950 . S
H937 C964 0.950 . S
H938 C967 0.950 . S
H939 C968 0.950 . S
H940 C970 0.950 . S
H941 C971 0.950 . S
C942 H924 0.951 . S
C942 C943 1.366 1_565 S
C942 C944 1.388 . S
C943 C942 1.366 1_545 S
C943 C947 1.385 . S
C944 H925 0.951 . S
C944 C942 1.388 . S
C944 C945 1.366 1_565 S
C945 C944 1.366 1_545 S
C945 C946 1.414 . S
C945 C948 1.499 . S
C946 H926 0.950 . S
C946 C945 1.414 . S
C946 C947 1.374 . S
C947 H927 0.950 . S
C947 C943 1.385 . S
C947 C946 1.374 . S
C948 C945 1.499 . S
C948 C949 1.373 . S
C948 C950 1.389 1_545 S
C949 H928 0.950 . S
C949 C948 1.373 . S
C949 C965 1.377 . S
C950 C948 1.389 1_565 S
C950 C951 1.524 . S
C950 C964 1.377 . S
C951 C950 1.524 . S
C951 C952 1.397 1_565 S
C951 C956 1.363 . S
C952 H929 0.950 . S
C952 C951 1.397 1_545 S
C952 C953 1.334 . S
C953 H930 0.950 . S
C953 C952 1.334 . S
C953 C954 1.287 1_545 S
C954 C953 1.287 1_565 S
C954 C955 1.524 . S
C954 H973 0.913 . S
C955 H931 0.950 . S
C955 C954 1.524 . S
C955 C956 1.415 . S
C956 H932 0.950 . S
C956 C951 1.363 . S
C956 C955 1.415 . S
C957 H933 0.951 . S
C957 C958 1.380 . S
C957 C959 1.388 . S
C958 C957 1.380 . S
C958 C962 1.373 1_545 S
C959 H934 0.951 . S
C959 C957 1.388 . S
C959 C960 1.366 . S
C960 C959 1.366 . S
C960 C961 1.414 1_545 S
C960 C963 1.499 . S
C961 H935 0.950 . S
C961 C960 1.414 1_565 S
C961 C962 1.374 . S
C962 H936 0.950 . S
C962 C958 1.373 1_565 S
C962 C961 1.374 . S
C963 C960 1.499 . S
C963 C964 1.373 1_545 S
C963 C965 1.389 . S
C964 H937 0.950 . S
C964 C950 1.377 . S
C964 C963 1.373 1_565 S
C965 C949 1.377 . S
C965 C963 1.389 . S
C965 C966 1.524 . S
C966 C965 1.524 . S
C966 C967 1.397 1_545 S
C966 C971 1.363 . S
C967 H938 0.950 . S
C967 C966 1.397 1_565 S
C967 C968 1.334 . S
C968 H939 0.950 . S
C968 C967 1.334 . S
C968 C969 1.287 1_565 S
C969 C968 1.287 1_545 S
C969 C970 1.524 . S
C969 H972 0.999 . S
C970 H940 0.950 . S
C970 C969 1.524 . S
C970 C971 1.415 . S
C971 H941 0.950 . S
C971 C966 1.363 . S
C971 C970 1.415 . S
H972 C969 0.999 . S
H973 C954 0.913 . S
H974 C992 0.951 . S
H975 C994 0.951 . S
H976 C996 0.950 . S
H977 C997 0.950 . S
H978 C999 0.950 . S
H979 C1002 0.950 . S
H980 C1003 0.950 . S
H981 C1005 0.950 . S
H982 C1006 0.950 . S
H983 C1007 0.951 . S
H984 C1009 0.951 . S
H985 C1011 0.950 . S
H986 C1012 0.950 . S
H987 C1014 0.950 . S
H988 C1017 0.950 . S
H989 C1018 0.950 . S
H990 C1020 0.950 . S
H991 C1021 0.950 . S
C992 H974 0.951 . S
C992 C993 1.366 . S
C992 C994 1.388 . S
C993 C992 1.366 . S
C993 C997 1.385 . S
C994 H975 0.951 . S
C994 C992 1.388 . S
C994 C995 1.366 . S
C995 C994 1.366 . S
C995 C996 1.414 . S
C995 C998 1.499 . S
C996 H976 0.950 . S
C996 C995 1.414 . S
C996 C997 1.374 . S
C997 H977 0.950 . S
C997 C993 1.385 . S
C997 C996 1.374 . S
C998 C995 1.499 . S
C998 C999 1.373 . S
C998 C1000 1.389 . S
C999 H978 0.950 . S
C999 C998 1.373 . S
C999 C1015 1.377 . S
C1000 C998 1.389 . S
C1000 C1001 1.524 . S
C1000 C1014 1.377 . S
C1001 C1000 1.524 . S
C1001 C1002 1.397 . S
C1001 C1006 1.363 . S
C1002 H979 0.950 . S
C1002 C1001 1.397 . S
C1002 C1003 1.334 . S
C1003 H980 0.950 . S
C1003 C1002 1.334 . S
C1003 C1004 1.287 . S
C1004 C1003 1.287 . S
C1004 C1005 1.524 . S
C1004 H1023 0.913 . S
C1005 H981 0.950 . S
C1005 C1004 1.524 . S
C1005 C1006 1.415 . S
C1006 H982 0.950 . S
C1006 C1001 1.363 . S
C1006 C1005 1.415 . S
C1007 H983 0.951 . S
C1007 C1008 1.366 . S
C1007 C1009 1.388 . S
C1008 C1007 1.366 . S
C1008 C1012 1.385 . S
C1009 H984 0.951 . S
C1009 C1007 1.388 . S
C1009 C1010 1.366 . S
C1010 C1009 1.366 . S
C1010 C1011 1.414 . S
C1010 C1013 1.499 1_554 S
C1011 H985 0.950 . S
C1011 C1010 1.414 . S
C1011 C1012 1.374 . S
C1012 H986 0.950 . S
C1012 C1008 1.385 . S
C1012 C1011 1.374 . S
C1013 C1010 1.499 1_556 S
C1013 C1014 1.373 . S
C1013 C1015 1.389 . S
C1014 H987 0.950 . S
C1014 C1000 1.377 . S
C1014 C1013 1.373 . S
C1015 C999 1.377 . S
C1015 C1013 1.389 . S
C1015 C1016 1.524 . S
C1016 C1015 1.524 . S
C1016 C1017 1.397 1_556 S
C1016 C1021 1.363 . S
C1017 H988 0.950 . S
C1017 C1016 1.397 1_554 S
C1017 C1018 1.334 . S
C1018 H989 0.950 . S
C1018 C1017 1.334 . S
C1018 C1019 1.287 . S
C1019 C1018 1.287 . S
C1019 C1020 1.524 . S
C1019 H1022 0.999 . S
C1020 H990 0.950 . S
C1020 C1019 1.524 . S
C1020 C1021 1.415 1_554 S
C1021 H991 0.950 . S
C1021 C1016 1.363 . S
C1021 C1020 1.415 1_556 S
H1022 C1019 0.999 . S
H1023 C1004 0.913 . S
H1024 C1042 0.951 . S
H1025 C1044 0.951 . S
H1026 C1046 0.950 . S
H1027 C1047 0.950 . S
H1028 C1049 0.949 1_655 S
H1029 C1052 0.950 . S
H1030 C1053 0.950 . S
H1031 C1055 0.950 . S
H1032 C1056 0.950 . S
H1033 C1057 0.951 . S
H1034 C1059 0.951 . S
H1035 C1061 0.950 . S
H1036 C1062 0.950 . S
H1037 C1064 0.950 . S
H1038 C1067 0.950 . S
H1039 C1068 0.950 . S
H1040 C1070 0.950 . S
H1041 C1071 0.950 1_455 S
C1042 H1024 0.951 . S
C1042 C1043 1.366 1_655 S
C1042 C1044 1.388 . S
C1043 C1042 1.366 1_455 S
C1043 C1047 1.385 . S
C1044 H1025 0.951 . S
C1044 C1042 1.388 . S
C1044 C1045 1.366 1_655 S
C1045 C1044 1.366 1_455 S
C1045 C1046 1.414 . S
C1045 C1048 1.499 . S
C1046 H1026 0.950 . S
C1046 C1045 1.414 . S
C1046 C1047 1.374 . S
C1047 H1027 0.950 . S
C1047 C1043 1.385 . S
C1047 C1046 1.374 . S
C1048 C1045 1.499 . S
C1048 C1049 1.374 . S
C1048 C1050 1.389 . S
C1049 H1028 0.949 1_455 S
C1049 C1048 1.374 . S
C1049 C1065 1.377 1_455 S
C1050 C1048 1.389 . S
C1050 C1051 1.524 . S
C1050 C1064 1.377 . S
C1051 C1050 1.524 . S
C1051 C1052 1.397 . S
C1051 C1056 1.363 . S
C1052 H1029 0.950 . S
C1052 C1051 1.397 . S
C1052 C1053 1.334 . S
C1053 H1030 0.950 . S
C1053 C1052 1.334 . S
C1053 C1054 1.287 . S
C1054 C1053 1.287 . S
C1054 C1055 1.524 . S
C1054 H1073 0.913 . S
C1055 H1031 0.950 . S
C1055 C1054 1.524 . S
C1055 C1056 1.415 . S
C1056 H1032 0.950 . S
C1056 C1051 1.363 . S
C1056 C1055 1.415 . S
C1057 H1033 0.951 . S
C1057 C1058 1.369 1_455 S
C1057 C1059 1.388 . S
C1058 C1057 1.369 1_655 S
C1058 C1062 1.382 . S
C1059 H1034 0.951 . S
C1059 C1057 1.388 . S
C1059 C1060 1.366 . S
C1060 C1059 1.366 . S
C1060 C1061 1.414 1_455 S
C1060 C1063 1.499 . S
C1061 H1035 0.950 . S
C1061 C1060 1.414 1_655 S
C1061 C1062 1.374 . S
C1062 H1036 0.950 . S
C1062 C1058 1.382 . S
C1062 C1061 1.374 . S
C1063 C1060 1.499 . S
C1063 C1064 1.373 . S
C1063 C1065 1.389 1_455 S
C1064 H1037 0.950 . S
C1064 C1050 1.377 . S
C1064 C1063 1.373 . S
C1065 C1049 1.377 1_655 S
C1065 C1063 1.389 1_655 S
C1065 C1066 1.524 . S
C1066 C1065 1.524 . S
C1066 C1067 1.397 . S
C1066 C1071 1.363 . S
C1067 H1038 0.950 . S
C1067 C1066 1.397 . S
C1067 C1068 1.334 . S
C1068 H1039 0.950 . S
C1068 C1067 1.334 . S
C1068 C1069 1.287 . S
C1069 C1068 1.287 . S
C1069 C1070 1.524 . S
C1069 H1072 0.999 . S
C1070 H1040 0.950 . S
C1070 C1069 1.524 . S
C1070 C1071 1.415 . S
C1071 H1041 0.950 1_655 S
C1071 C1066 1.363 . S
C1071 C1070 1.415 . S
H1072 C1069 0.999 . S
H1073 C1054 0.913 . S
C193 C7 0.535 . S
C208 C169 0.491 . S
C243 C51 1.760 . S
C258 C151 1.742 . S
C293 C87 1.171 . S
C308 C163 1.191 . S
C343 C16 0.417 . S
C358 C172 0.300 . S
C408 C154 1.799 . S
C393 C42 1.812 . S
C458 C160 1.309 . S
C443 C96 1.293 . S
C493 C47 1.162 . S
C508 C133 1.181 . S
C543 C91 2.950 . S
C558 C142 2.917 1_655 S
C593 C2 1.857 . S
C608 C124 1.860 . S
C658 C136 1.279 . S
C643 C56 1.261 . S
C708 C145 2.803 . S
C693 C82 2.806 . S
C743 C11 1.738 . S
C758 C127 1.720 . S
C808 C143 1.773 . S
C793 C19 1.706 . S
C843 C50 1.334 . S
C858 C125 1.378 . S
C893 C99 1.459 . S
C908 C134 1.513 . S
C958 C161 1.485 . S
C943 C59 1.444 . S
C1008 C170 1.109 . S
C993 C90 1.090 . S
C1043 C10 1.331 . S
C1058 C152 1.368 . S
