# Generated by pormake.
# Topology pto, (3,4)-cn, num edge types: 1
# Building blocks:
#     Node 0, Type 0, BuildingBlock: OLANEW_clean_sbu_2, # of connection points: 3
#     Node 1, Type 0, BuildingBlock: OLANEW_clean_sbu_2, # of connection points: 3
#     Node 2, Type 0, BuildingBlock: OLANEW_clean_sbu_2, # of connection points: 3
#     Node 3, Type 0, BuildingBlock: OLANEW_clean_sbu_2, # of connection points: 3
#     Node 4, Type 0, BuildingBlock: OLANEW_clean_sbu_2, # of connection points: 3
#     Node 5, Type 0, BuildingBlock: OLANEW_clean_sbu_2, # of connection points: 3
#     Node 6, Type 0, BuildingBlock: OLANEW_clean_sbu_2, # of connection points: 3
#     Node 7, Type 0, BuildingBlock: OLANEW_clean_sbu_2, # of connection points: 3
#     Node 8, Type 1, BuildingBlock: KUFVIS_clean_linker_0, # of connection points: 4
#     Node 9, Type 1, BuildingBlock: KUFVIS_clean_linker_0, # of connection points: 4
#     Node 10, Type 1, BuildingBlock: KUFVIS_clean_linker_0, # of connection points: 4
#     Node 11, Type 1, BuildingBlock: KUFVIS_clean_linker_0, # of connection points: 4
#     Node 12, Type 1, BuildingBlock: KUFVIS_clean_linker_0, # of connection points: 4
#     Node 13, Type 1, BuildingBlock: KUFVIS_clean_linker_0, # of connection points: 4
#     Edge 14, Type (0, 1), BuildingBlock: TEMPAE_clean_linker_10, # of connection points: 2
#     Edge 15, Type (0, 1), BuildingBlock: TEMPAE_clean_linker_10, # of connection points: 2
#     Edge 16, Type (0, 1), BuildingBlock: TEMPAE_clean_linker_10, # of connection points: 2
#     Edge 17, Type (0, 1), BuildingBlock: TEMPAE_clean_linker_10, # of connection points: 2
#     Edge 18, Type (0, 1), BuildingBlock: TEMPAE_clean_linker_10, # of connection points: 2
#     Edge 19, Type (0, 1), BuildingBlock: TEMPAE_clean_linker_10, # of connection points: 2
#     Edge 20, Type (0, 1), BuildingBlock: TEMPAE_clean_linker_10, # of connection points: 2
#     Edge 21, Type (0, 1), BuildingBlock: TEMPAE_clean_linker_10, # of connection points: 2
#     Edge 22, Type (0, 1), BuildingBlock: TEMPAE_clean_linker_10, # of connection points: 2
#     Edge 23, Type (0, 1), BuildingBlock: TEMPAE_clean_linker_10, # of connection points: 2
#     Edge 24, Type (0, 1), BuildingBlock: TEMPAE_clean_linker_10, # of connection points: 2
#     Edge 25, Type (0, 1), BuildingBlock: TEMPAE_clean_linker_10, # of connection points: 2
#     Edge 26, Type (0, 1), BuildingBlock: TEMPAE_clean_linker_10, # of connection points: 2
#     Edge 27, Type (0, 1), BuildingBlock: TEMPAE_clean_linker_10, # of connection points: 2
#     Edge 28, Type (0, 1), BuildingBlock: TEMPAE_clean_linker_10, # of connection points: 2
#     Edge 29, Type (0, 1), BuildingBlock: TEMPAE_clean_linker_10, # of connection points: 2
#     Edge 30, Type (0, 1), BuildingBlock: TEMPAE_clean_linker_10, # of connection points: 2
#     Edge 31, Type (0, 1), BuildingBlock: TEMPAE_clean_linker_10, # of connection points: 2
#     Edge 32, Type (0, 1), BuildingBlock: TEMPAE_clean_linker_10, # of connection points: 2
#     Edge 33, Type (0, 1), BuildingBlock: TEMPAE_clean_linker_10, # of connection points: 2
#     Edge 34, Type (0, 1), BuildingBlock: TEMPAE_clean_linker_10, # of connection points: 2
#     Edge 35, Type (0, 1), BuildingBlock: TEMPAE_clean_linker_10, # of connection points: 2
#     Edge 36, Type (0, 1), BuildingBlock: TEMPAE_clean_linker_10, # of connection points: 2
#     Edge 37, Type (0, 1), BuildingBlock: TEMPAE_clean_linker_10, # of connection points: 2
# Relax obj value: 0.008
# Max RMSD: 0.120
# Mean RMSD: 0.069
data_MOF--net-pto--node1-OLANEW_clean_sbu_2--node2-KUFVIS_clean_linker_0--edge1-TEMPAE_clean_linker_10
_symmetry_space_group_name_H-M    P1
_symmetry_Int_Tables_number       1
_symmetry_cell_setting            triclinic
loop_
_symmetry_equiv_pos_as_xyz
'x, y, z'
_cell_length_a     30.513361
_cell_length_b     55.434247
_cell_length_c     43.114782
_cell_angle_alpha  92.426899
_cell_angle_beta   89.18759
_cell_angle_gamma 107.53741
loop_
_atom_site_label
_atom_site_type_symbol
_atom_site_fract_x
_atom_site_fract_y
_atom_site_fract_z
_atom_type_partial_charge
O0 O 0.31121 0.34604 0.28942 0.0
Cd1 Cd 0.27485 0.34265 0.34045 0.0
O2 O 0.37411 0.37559 0.30464 0.0
Cd3 Cd 0.34163 0.38531 0.34684 0.0
O4 O 0.30299 0.40811 0.37044 0.0
C5 C 0.31906 0.43209 0.36975 0.0
O6 O 0.3595 0.44199 0.35693 0.0
C7 C 0.35186 0.35985 0.28386 0.0
C8 C 0.28971 0.30204 0.37057 0.0
O9 O 0.2549 0.29872 0.35279 0.0
O10 O 0.31714 0.32458 0.37432 0.0
O11 O 0.22399 0.90673 0.81358 0.0
Cd12 Cd 0.17077 0.91862 0.77965 0.0
O13 O 0.20363 0.8712 0.78585 0.0
Cd14 Cd 0.1989 0.83176 0.77383 0.0
O15 O 0.18033 0.79245 0.75662 0.0
C16 C 0.18965 0.77486 0.77059 0.0
O17 O 0.21281 0.78029 0.79674 0.0
C18 C 0.22704 0.88458 0.80807 0.0
C19 C 0.21153 0.95392 0.7354 0.0
O20 O 0.19594 0.96082 0.76094 0.0
O21 O 0.20874 0.93049 0.73107 0.0
O22 O 0.78222 0.79522 0.33347 0.0
Cd23 Cd 0.75986 0.75248 0.30836 0.0
O24 O 0.79223 0.81345 0.28845 0.0
Cd25 Cd 0.77201 0.77886 0.25897 0.0
O26 O 0.73206 0.76185 0.21765 0.0
C27 C 0.70314 0.77328 0.21128 0.0
O28 O 0.70046 0.79219 0.22989 0.0
C29 C 0.79254 0.81524 0.31796 0.0
C30 C 0.80341 0.71804 0.32862 0.0
O31 O 0.82102 0.73353 0.30732 0.0
O32 O 0.76569 0.71925 0.34108 0.0
O33 O 0.7437 0.30412 0.59458 0.0
Cd34 Cd 0.69444 0.25975 0.59426 0.0
O35 O 0.73146 0.30434 0.64466 0.0
Cd36 Cd 0.74058 0.32144 0.69159 0.0
O37 O 0.73724 0.32944 0.74129 0.0
C38 C 0.7243 0.34805 0.75139 0.0
O39 O 0.71521 0.36313 0.73138 0.0
C40 C 0.74818 0.31627 0.6206 0.0
C41 C 0.73326 0.22016 0.5855 0.0
O42 O 0.72297 0.23129 0.56245 0.0
O43 O 0.72701 0.22843 0.61292 0.0
O44 O 0.81743 0.82415 0.63753 0.0
Cd45 Cd 0.78804 0.78647 0.66879 0.0
O46 O 0.851 0.84889 0.67712 0.0
Cd47 Cd 0.82527 0.82046 0.71185 0.0
O48 O 0.78202 0.80974 0.75285 0.0
C49 C 0.76744 0.82743 0.76423 0.0
O50 O 0.78022 0.84943 0.75106 0.0
C51 C 0.84119 0.84582 0.64837 0.0
C52 C 0.81418 0.74355 0.65071 0.0
O53 O 0.77787 0.74698 0.63957 0.0
O54 O 0.83859 0.7607 0.66956 0.0
O55 O 0.912 0.3092 0.30248 0.0
Cd56 Cd 0.91289 0.2692 0.27535 0.0
O57 O 0.84022 0.30628 0.29214 0.0
Cd58 Cd 0.82611 0.27041 0.26547 0.0
O59 O 0.78541 0.25395 0.22446 0.0
C60 C 0.80213 0.25973 0.19764 0.0
O61 O 0.84583 0.27263 0.19529 0.0
C62 C 0.87859 0.31849 0.30427 0.0
C63 C 0.89458 0.22512 0.30908 0.0
O64 O 0.9332 0.24254 0.31164 0.0
O65 O 0.86395 0.22878 0.29141 0.0
O66 O 0.24053 0.36914 0.8038 0.0
Cd67 Cd 0.20982 0.36739 0.75141 0.0
O68 O 0.28875 0.35432 0.77718 0.0
Cd69 Cd 0.34226 0.33578 0.77011 0.0
O70 O 0.37603 0.31114 0.74548 0.0
C71 C 0.367 0.28803 0.75216 0.0
O72 O 0.33988 0.27974 0.77586 0.0
C73 C 0.27504 0.36085 0.80327 0.0
C74 C 0.18958 0.41016 0.73231 0.0
O75 O 0.15965 0.39253 0.74621 0.0
O76 O 0.22996 0.408 0.72832 0.0
O77 O 0.44375 0.90064 0.26741 0.0
Cd78 Cd 0.45667 0.91243 0.32262 0.0
O79 O 0.38787 0.86718 0.28033 0.0
Cd80 Cd 0.3407 0.82913 0.27089 0.0
O81 O 0.29602 0.79007 0.27357 0.0
C82 C 0.31175 0.7732 0.28398 0.0
O83 O 0.35527 0.77948 0.29195 0.0
C84 C 0.41312 0.88014 0.25955 0.0
C85 C 0.43036 0.95352 0.34672 0.0
O86 O 0.47046 0.95674 0.33496 0.0
O87 O 0.40223 0.93102 0.34587 0.0
H88 H 0.03637 0.4761 0.36977 0.0
H89 H 0.9591 0.52677 0.3504 0.0
H90 H 0.10329 0.55578 0.37571 0.0
H91 H 0.10104 0.58521 0.34274 0.0
H92 H 0.03306 0.64217 0.35248 0.0
H93 H 0.95871 0.5655 0.37256 0.0
C94 C 0.03447 0.4953 0.36865 0.0
C95 C 0.07427 0.51557 0.37298 0.0
C96 C 0.99286 0.49923 0.36118 0.0
C97 C 0.99099 0.52404 0.35777 0.0
C98 C 0.03076 0.54505 0.36305 0.0
C99 C 0.07215 0.54035 0.37135 0.0
C100 C 0.03019 0.57174 0.35894 0.0
C101 C 0.07044 0.5903 0.3491 0.0
C102 C 0.07191 0.61575 0.34765 0.0
C103 C 0.03237 0.62262 0.3546 0.0
C104 C 0.99142 0.6046 0.36297 0.0
C105 C 0.99026 0.57915 0.36524 0.0
H106 H 0.96353 0.63572 0.67456 0.0
H107 H 0.03089 0.57933 0.68632 0.0
H108 H 0.91302 0.56387 0.62533 0.0
H109 H 0.9044 0.52266 0.64585 0.0
H110 H 0.99277 0.47548 0.63672 0.0
H111 H 0.05234 0.55568 0.64827 0.0
C112 C 0.96571 0.61676 0.66947 0.0
C113 C 0.93396 0.60051 0.64913 0.0
C114 C 0.00089 0.60932 0.68259 0.0
C115 C 0.00412 0.58506 0.67532 0.0
C116 C 0.97269 0.56823 0.65458 0.0
C117 C 0.93728 0.5762 0.64154 0.0
C118 C 0.97763 0.5426 0.64693 0.0
C119 C 0.93873 0.52091 0.64367 0.0
C120 C 0.94431 0.49665 0.63999 0.0
C121 C 0.98867 0.49427 0.63859 0.0
C122 C 0.02754 0.51534 0.64227 0.0
C123 C 0.02193 0.53946 0.64568 0.0
H124 H 0.35241 0.20755 0.54175 0.0
H125 H 0.37263 0.14281 0.58302 0.0
H126 H 0.33232 0.13869 0.48671 0.0
H127 H 0.37742 0.10951 0.48677 0.0
H128 H 0.33648 0.03778 0.53075 0.0
H129 H 0.31915 0.10326 0.57908 0.0
C130 C 0.35259 0.18801 0.53968 0.0
C131 C 0.34169 0.17459 0.51116 0.0
C132 C 0.36304 0.17657 0.56571 0.0
C133 C 0.36431 0.15153 0.56281 0.0
C134 C 0.35291 0.13741 0.53447 0.0
C135 C 0.34228 0.14931 0.50848 0.0
C136 C 0.34884 0.10988 0.53301 0.0
C137 C 0.36254 0.09827 0.5064 0.0
C138 C 0.35871 0.07229 0.50555 0.0
C139 C 0.3401 0.05786 0.53126 0.0
C140 C 0.3266 0.0691 0.55785 0.0
C141 C 0.33088 0.09497 0.55861 0.0
H142 H 0.47363 0.7767 0.09102 0.0
H143 H 0.51311 0.76667 0.99727 0.0
H144 H 0.42789 0.81499 0.0199 0.0
H145 H 0.40678 0.80701 0.97075 0.0
H146 H 0.48267 0.82221 0.88582 0.0
H147 H 0.53937 0.79395 0.96139 0.0
C148 C 0.47033 0.77975 0.06659 0.0
C149 C 0.44519 0.7957 0.05774 0.0
C150 C 0.49528 0.76969 0.04498 0.0
C151 C 0.4941 0.77502 0.0136 0.0
C152 C 0.46981 0.79143 0.00377 0.0
C153 C 0.44548 0.80169 0.02634 0.0
C154 C 0.47247 0.79916 0.97063 0.0
C155 C 0.43726 0.80721 0.95751 0.0
C156 C 0.44155 0.81624 0.92732 0.0
C157 C 0.47972 0.81559 0.90929 0.0
C158 C 0.51435 0.80685 0.92119 0.0
C159 C 0.51121 0.7994 0.95207 0.0
H160 H 0.82137 0.1078 0.47653 0.0
H161 H 0.81696 0.04077 0.52313 0.0
H162 H 0.85318 0.04723 0.42531 0.0
H163 H 0.82602 0.00477 0.4253 0.0
H164 H 0.86745 0.94916 0.47305 0.0
H165 H 0.86341 0.01682 0.52282 0.0
C166 C 0.82491 0.08886 0.4755 0.0
C167 C 0.83557 0.07854 0.44734 0.0
C168 C 0.81879 0.07548 0.50262 0.0
C169 C 0.82357 0.0511 0.50198 0.0
C170 C 0.83667 0.04038 0.4742 0.0
C171 C 0.84279 0.05458 0.44689 0.0
C172 C 0.84461 0.0148 0.47388 0.0
C173 C 0.83848 0.99916 0.44636 0.0
C174 C 0.84808 0.97588 0.44596 0.0
C175 C 0.86214 0.96768 0.47318 0.0
C176 C 0.86647 0.98203 0.50094 0.0
C177 C 0.85837 0.00568 0.50123 0.0
H178 H 0.55829 0.31326 0.12261 0.0
H179 H 0.58761 0.30403 0.02634 0.0
H180 H 0.48042 0.33678 0.05462 0.0
H181 H 0.45098 0.32091 0.00899 0.0
H182 H 0.49894 0.33165 0.91554 0.0
H183 H 0.59369 0.32897 0.98665 0.0
C184 C 0.55099 0.31532 0.09849 0.0
C185 C 0.51499 0.32483 0.09116 0.0
C186 C 0.57776 0.30835 0.07524 0.0
C187 C 0.56777 0.31048 0.04403 0.0
C188 C 0.53296 0.32108 0.03589 0.0
C189 C 0.50707 0.32843 0.05994 0.0
C190 C 0.52363 0.32431 0.00252 0.0
C191 C 0.47928 0.32383 0.99275 0.0
C192 C 0.47077 0.32667 0.96152 0.0
C193 C 0.50585 0.32926 0.93967 0.0
C194 C 0.54989 0.32957 0.94853 0.0
C195 C 0.55902 0.32778 0.98001 0.0
C196 C 0.24533 0.43758 0.39026 0.0
C197 C 0.28979 0.44833 0.37861 0.0
C198 C 0.2145 0.45187 0.39374 0.0
C199 C 0.22844 0.47749 0.38529 0.0
C200 C 0.27436 0.48897 0.37585 0.0
C201 C 0.30453 0.47425 0.37265 0.0
C202 C 0.16593 0.43896 0.40418 0.0
C203 C 0.29065 0.51627 0.36684 0.0
C204 C 0.13221 0.4971 0.35023 0.0
C205 C 0.11839 0.50997 0.37529 0.0
C206 C 0.16931 0.48746 0.35289 0.0
C207 C 0.19317 0.49071 0.38144 0.0
C208 C 0.18084 0.50488 0.40641 0.0
C209 C 0.14334 0.5144 0.40303 0.0
C210 C 0.18138 0.47265 0.32559 0.0
C211 C 0.20561 0.50883 0.43711 0.0
H212 H 0.2338 0.41766 0.39531 0.0
H213 H 0.33898 0.48283 0.36394 0.0
H214 H 0.15492 0.45089 0.4221 0.0
H215 H 0.14224 0.43624 0.38415 0.0
H216 H 0.16226 0.42016 0.41377 0.0
H217 H 0.32871 0.52348 0.36508 0.0
H218 H 0.27589 0.51798 0.34396 0.0
H219 H 0.27872 0.52848 0.3839 0.0
H220 H 0.11266 0.49375 0.32881 0.0
H221 H 0.13223 0.52421 0.42243 0.0
H222 H 0.17445 0.45256 0.33154 0.0
H223 H 0.21851 0.48017 0.32006 0.0
H224 H 0.16135 0.47329 0.30448 0.0
H225 H 0.19647 0.49068 0.44915 0.0
H226 H 0.19641 0.52317 0.45247 0.0
H227 H 0.24338 0.51489 0.43352 0.0
C228 C 0.14685 0.743 0.73048 0.0
C229 C 0.17095 0.74829 0.75865 0.0
C230 C 0.12469 0.71804 0.72019 0.0
C231 C 0.12668 0.69777 0.73846 0.0
C232 C 0.15289 0.70285 0.76612 0.0
C233 C 0.17472 0.72811 0.77594 0.0
C234 C 0.09728 0.71346 0.69043 0.0
C235 C 0.15613 0.68172 0.78603 0.0
C236 C 0.02048 0.64204 0.72571 0.0
C237 C 0.0353 0.62796 0.70234 0.0
C238 C 0.05099 0.66383 0.73958 0.0
C239 C 0.09747 0.67168 0.72981 0.0
C240 C 0.11351 0.65624 0.70827 0.0
C241 C 0.0821 0.63446 0.69472 0.0
C242 C 0.03246 0.6796 0.76264 0.0
C243 C 0.16288 0.66382 0.69751 0.0
H244 H 0.14414 0.75844 0.71678 0.0
H245 H 0.19352 0.732 0.79764 0.0
H246 H 0.1076 0.69972 0.67478 0.0
H247 H 0.06019 0.70514 0.69571 0.0
H248 H 0.10182 0.73114 0.67788 0.0
H249 H 0.18275 0.68851 0.80435 0.0
H250 H 0.1225 0.67315 0.79741 0.0
H251 H 0.16415 0.66654 0.77158 0.0
H252 H 0.98432 0.63681 0.73183 0.0
H253 H 0.09357 0.62361 0.67658 0.0
H254 H 0.03113 0.69711 0.75163 0.0
H255 H 0.05539 0.68541 0.78311 0.0
H256 H 0.99733 0.66929 0.77072 0.0
H257 H 0.16854 0.67928 0.68098 0.0
H258 H 0.17179 0.64775 0.68561 0.0
H259 H 0.18664 0.67108 0.71733 0.0
C260 C 0.86786 0.69885 0.32492 0.0
C261 C 0.82542 0.69888 0.3378 0.0
C262 C 0.88876 0.68053 0.33252 0.0
C263 C 0.86667 0.66159 0.35348 0.0
C264 C 0.82384 0.66148 0.36663 0.0
C265 C 0.80375 0.68016 0.3587 0.0
C266 C 0.93466 0.6815 0.3181 0.0
C267 C 0.79925 0.64161 0.38901 0.0
C268 C 0.9147 0.60598 0.34565 0.0
C269 C 0.95033 0.61332 0.36743 0.0
C270 C 0.88411 0.62033 0.34261 0.0
C271 C 0.88955 0.64245 0.36181 0.0
C272 C 0.92248 0.64829 0.38597 0.0
C273 C 0.95253 0.63365 0.38845 0.0
C274 C 0.8491 0.61323 0.31682 0.0
C275 C 0.92934 0.67151 0.40716 0.0
H276 H 0.8849 0.7132 0.30877 0.0
H277 H 0.77086 0.67995 0.36869 0.0
H278 H 0.96071 0.68369 0.33656 0.0
H279 H 0.93198 0.66349 0.3049 0.0
H280 H 0.94718 0.69737 0.30215 0.0
H281 H 0.76599 0.64399 0.39704 0.0
H282 H 0.79265 0.62246 0.3778 0.0
H283 H 0.82122 0.64247 0.40955 0.0
H284 H 0.9133 0.59043 0.32918 0.0
H285 H 0.98029 0.63937 0.40521 0.0
H286 H 0.86126 0.62615 0.29743 0.0
H287 H 0.81571 0.61532 0.32489 0.0
H288 H 0.84359 0.59348 0.30776 0.0
H289 H 0.947 0.68862 0.39418 0.0
H290 H 0.95057 0.67103 0.42772 0.0
H291 H 0.89586 0.67343 0.41527 0.0
C292 C 0.75392 0.35955 0.64238 0.0
C293 C 0.77151 0.34384 0.62278 0.0
C294 C 0.77568 0.38577 0.64503 0.0
C295 C 0.81658 0.39645 0.62815 0.0
C296 C 0.83382 0.38072 0.60771 0.0
C297 C 0.81067 0.35463 0.60495 0.0
C298 C 0.75551 0.40188 0.66651 0.0
C299 C 0.87775 0.39126 0.58968 0.0
C300 C 0.87044 0.46733 0.61817 0.0
C301 C 0.90519 0.473 0.64059 0.0
C302 C 0.83945 0.44271 0.61481 0.0
C303 C 0.84393 0.42346 0.63409 0.0
C304 C 0.87717 0.42965 0.65802 0.0
C305 C 0.90695 0.45436 0.66117 0.0
C306 C 0.80351 0.43698 0.58964 0.0
C307 C 0.88338 0.40982 0.67908 0.0
H308 H 0.72276 0.35135 0.65547 0.0
H309 H 0.82404 0.34252 0.58959 0.0
H310 H 0.77694 0.40752 0.68771 0.0
H311 H 0.75535 0.41948 0.65525 0.0
H312 H 0.71985 0.39163 0.67365 0.0
H313 H 0.88551 0.37676 0.57381 0.0
H314 H 0.8755 0.40723 0.57579 0.0
H315 H 0.9069 0.3988 0.60604 0.0
H316 H 0.86908 0.48171 0.60225 0.0
H317 H 0.93355 0.45884 0.67878 0.0
H318 H 0.76956 0.42597 0.59886 0.0
H319 H 0.81282 0.42522 0.57073 0.0
H320 H 0.80028 0.4545 0.57962 0.0
H321 H 0.90955 0.418 0.69737 0.0
H322 H 0.89426 0.39532 0.66513 0.0
H323 H 0.85038 0.4 0.69046 0.0
C324 C 0.33271 0.28509 0.40884 0.0
C325 C 0.29759 0.28061 0.38673 0.0
C326 C 0.33905 0.26527 0.42564 0.0
C327 C 0.3098 0.24027 0.42009 0.0
C328 C 0.27545 0.23544 0.39694 0.0
C329 C 0.2696 0.25569 0.38064 0.0
C330 C 0.37595 0.27127 0.45025 0.0
C331 C 0.24392 0.20903 0.39012 0.0
C332 C 0.35064 0.18945 0.45653 0.0
C333 C 0.32774 0.18734 0.48515 0.0
C334 C 0.34332 0.20561 0.43415 0.0
C335 C 0.31249 0.21987 0.44073 0.0
C336 C 0.28708 0.21639 0.46876 0.0
C337 C 0.29492 0.20012 0.49053 0.0
C338 C 0.37057 0.20856 0.40434 0.0
C339 C 0.25373 0.23108 0.47673 0.0
H340 H 0.35464 0.30425 0.41361 0.0
H341 H 0.24263 0.25201 0.36339 0.0
H342 H 0.35981 0.26734 0.47347 0.0
H343 H 0.39846 0.25899 0.44654 0.0
H344 H 0.39762 0.29137 0.4504 0.0
H345 H 0.22248 0.20798 0.3692 0.0
H346 H 0.26416 0.19552 0.38663 0.0
H347 H 0.22079 0.20276 0.41022 0.0
H348 H 0.37605 0.17959 0.45237 0.0
H349 H 0.27675 0.19821 0.51253 0.0
H350 H 0.3973 0.22727 0.40493 0.0
H351 H 0.34801 0.20793 0.38417 0.0
H352 H 0.38776 0.19361 0.40073 0.0
H353 H 0.27283 0.2515 0.47999 0.0
H354 H 0.23405 0.22467 0.49829 0.0
H355 H 0.22906 0.22916 0.45747 0.0
C356 C 0.26237 0.88172 0.8592 0.0
C357 C 0.25619 0.87441 0.82764 0.0
C358 C 0.28989 0.87213 0.87807 0.0
C359 C 0.312 0.85501 0.86494 0.0
C360 C 0.30578 0.84757 0.83307 0.0
C361 C 0.27825 0.85752 0.81479 0.0
C362 C 0.29581 0.88054 0.91192 0.0
C363 C 0.32908 0.82955 0.81809 0.0
C364 C 0.42229 0.85033 0.89971 0.0
C365 C 0.40723 0.82712 0.91431 0.0
C366 C 0.39138 0.86 0.88447 0.0
C367 C 0.34413 0.84613 0.88382 0.0
C368 C 0.32837 0.82317 0.89959 0.0
C369 C 0.36019 0.81393 0.91477 0.0
C370 C 0.4096 0.88462 0.86812 0.0
C371 C 0.27823 0.80789 0.89938 0.0
H372 H 0.24541 0.89483 0.86919 0.0
H373 H 0.27511 0.85261 0.79018 0.0
H374 H 0.28638 0.86382 0.92667 0.0
H375 H 0.33239 0.89101 0.91667 0.0
H376 H 0.27451 0.89297 0.91889 0.0
H377 H 0.31852 0.8245 0.79352 0.0
H378 H 0.36692 0.83827 0.81884 0.0
H379 H 0.32093 0.81189 0.83111 0.0
H380 H 0.45861 0.86075 0.89977 0.0
H381 H 0.34852 0.79595 0.92596 0.0
H382 H 0.39061 0.89801 0.87587 0.0
H383 H 0.40418 0.8811 0.84273 0.0
H384 H 0.44684 0.8938 0.87242 0.0
H385 H 0.25669 0.82001 0.90694 0.0
H386 H 0.27101 0.79154 0.91472 0.0
H387 H 0.26764 0.80065 0.87539 0.0
C388 C 0.80958 0.86238 0.31633 0.0
C389 C 0.80244 0.84068 0.33383 0.0
C390 C 0.8168 0.88646 0.33078 0.0
C391 C 0.81711 0.88902 0.36356 0.0
C392 C 0.81026 0.86726 0.38138 0.0
C393 C 0.80294 0.84337 0.36633 0.0
C394 C 0.82396 0.90916 0.31097 0.0
C395 C 0.81063 0.86921 0.41643 0.0
C396 C 0.8783 0.95055 0.40718 0.0
C397 C 0.84127 0.95847 0.41826 0.0
C398 C 0.87114 0.92875 0.38779 0.0
C399 C 0.82575 0.91446 0.37942 0.0
C400 C 0.78852 0.92348 0.38867 0.0
C401 C 0.79675 0.94545 0.40805 0.0
C402 C 0.91187 0.92001 0.37828 0.0
C403 C 0.73966 0.90891 0.38007 0.0
H404 H 0.80909 0.86057 0.29121 0.0
H405 H 0.79738 0.82678 0.38007 0.0
H406 H 0.79746 0.91867 0.31654 0.0
H407 H 0.85791 0.92312 0.31614 0.0
H408 H 0.82229 0.90396 0.28575 0.0
H409 H 0.80448 0.85051 0.42692 0.0
H410 H 0.84424 0.88193 0.42477 0.0
H411 H 0.78379 0.87764 0.42493 0.0
H412 H 0.91267 0.96051 0.41543 0.0
H413 H 0.76807 0.95134 0.41709 0.0
H414 H 0.91066 0.91495 0.35307 0.0
H415 H 0.91074 0.90275 0.39081 0.0
H416 H 0.94507 0.93467 0.3836 0.0
H417 H 0.73711 0.90348 0.35495 0.0
H418 H 0.71546 0.91997 0.38564 0.0
H419 H 0.72872 0.89118 0.39299 0.0
C420 C 0.72406 0.33472 0.80614 0.0
C421 C 0.71243 0.35008 0.78461 0.0
C422 C 0.70616 0.33313 0.83641 0.0
C423 C 0.6755 0.34695 0.84513 0.0
C424 C 0.6666 0.36399 0.82429 0.0
C425 C 0.68543 0.36546 0.79431 0.0
C426 C 0.71734 0.31521 0.8582 0.0
C427 C 0.63406 0.37907 0.83269 0.0
C428 C 0.57441 0.31691 0.89673 0.0
C429 C 0.58557 0.33182 0.92422 0.0
C430 C 0.60428 0.3211 0.87129 0.0
C431 C 0.6468 0.34051 0.87349 0.0
C432 C 0.65967 0.35459 0.90186 0.0
C433 C 0.62871 0.35012 0.92699 0.0
C434 C 0.58919 0.30555 0.84153 0.0
C435 C 0.70503 0.37514 0.9052 0.0
H436 H 0.74556 0.32308 0.79897 0.0
H437 H 0.67661 0.37755 0.77792 0.0
H438 H 0.72389 0.32392 0.88199 0.0
H439 H 0.68757 0.29784 0.85952 0.0
H440 H 0.74779 0.30958 0.85028 0.0
H441 H 0.63517 0.39365 0.81554 0.0
H442 H 0.59841 0.36609 0.83365 0.0
H443 H 0.64233 0.38855 0.85597 0.0
H444 H 0.54137 0.30243 0.89478 0.0
H445 H 0.63736 0.3617 0.94822 0.0
H446 H 0.61553 0.29653 0.83372 0.0
H447 H 0.58546 0.31805 0.82295 0.0
H448 H 0.55591 0.2905 0.84414 0.0
H449 H 0.73338 0.36855 0.89528 0.0
H450 H 0.71304 0.38139 0.92985 0.0
H451 H 0.70386 0.39174 0.89213 0.0
C452 C 0.26134 0.96752 0.68891 0.0
C453 C 0.2306 0.97226 0.71108 0.0
C454 C 0.27821 0.98424 0.66493 0.0
C455 C 0.26292 0.00582 0.66257 0.0
C456 C 0.23201 0.01074 0.68499 0.0
C457 C 0.21671 0.99407 0.70924 0.0
C458 C 0.31206 0.97868 0.64195 0.0
C459 C 0.21408 0.0332 0.68284 0.0
C460 C 0.33198 0.05978 0.61354 0.0
C461 C 0.30891 0.05373 0.58508 0.0
C462 C 0.31742 0.04436 0.63902 0.0
C463 C 0.27822 0.02277 0.63608 0.0
C464 C 0.25411 0.01703 0.60754 0.0
C465 C 0.27015 0.03242 0.58223 0.0
C466 C 0.34466 0.05077 0.6688 0.0
C467 C 0.21157 0.99455 0.60367 0.0
H468 H 0.27238 0.95076 0.6904 0.0
H469 H 0.19264 0.99768 0.7262 0.0
H470 H 0.29655 0.97497 0.61845 0.0
H471 H 0.34315 0.99535 0.64064 0.0
H472 H 0.32274 0.96204 0.64817 0.0
H473 H 0.1906 0.03453 0.70233 0.0
H474 H 0.24307 0.051 0.6828 0.0
H475 H 0.19528 0.03178 0.66066 0.0
H476 H 0.36224 0.07618 0.61552 0.0
H477 H 0.25234 0.02787 0.56016 0.0
H478 H 0.35802 0.03492 0.67436 0.0
H479 H 0.32218 0.05324 0.68835 0.0
H480 H 0.3741 0.06832 0.66737 0.0
H481 H 0.22043 0.97678 0.60654 0.0
H482 H 0.19535 0.99356 0.58055 0.0
H483 H 0.18599 0.99548 0.62188 0.0
C484 C 0.67795 0.7474 0.16164 0.0
C485 C 0.67416 0.76649 0.18304 0.0
C486 C 0.65125 0.74176 0.13439 0.0
C487 C 0.62047 0.75569 0.12845 0.0
C488 C 0.61623 0.77475 0.15021 0.0
C489 C 0.643 0.77984 0.17715 0.0
C490 C 0.65658 0.72128 0.11182 0.0
C491 C 0.58362 0.79005 0.14498 0.0
C492 C 0.57573 0.77003 0.05309 0.0
C493 C 0.52873 0.75785 0.05706 0.0
C494 C 0.60791 0.76683 0.07423 0.0
C495 C 0.59239 0.75104 0.09963 0.0
C496 C 0.54601 0.7357 0.10067 0.0
C497 C 0.51456 0.73937 0.07935 0.0
C498 C 0.6572 0.78317 0.07186 0.0
C499 C 0.52821 0.71808 0.12682 0.0
H500 H 0.70202 0.73701 0.16601 0.0
H501 H 0.63968 0.79456 0.19355 0.0
H502 H 0.6225 0.70864 0.1042 0.0
H503 H 0.67503 0.73004 0.09083 0.0
H504 H 0.67629 0.70965 0.12199 0.0
H505 H 0.5845 0.80416 0.16422 0.0
H506 H 0.59254 0.80025 0.12308 0.0
H507 H 0.5479 0.77729 0.14266 0.0
H508 H 0.58678 0.7843 0.03582 0.0
H509 H 0.47817 0.72976 0.08219 0.0
H510 H 0.68117 0.77273 0.07858 0.0
H511 H 0.66273 0.79995 0.088 0.0
H512 H 0.66581 0.78994 0.04799 0.0
H513 H 0.55355 0.70841 0.13323 0.0
H514 H 0.49521 0.70357 0.12058 0.0
H515 H 0.52221 0.72922 0.14758 0.0
C516 C 0.75998 0.1904 0.55034 0.0
C517 C 0.74946 0.19758 0.58042 0.0
C518 C 0.7721 0.16814 0.54455 0.0
C519 C 0.77352 0.15247 0.56943 0.0
C520 C 0.76384 0.15981 0.59998 0.0
C521 C 0.75202 0.18233 0.60514 0.0
C522 C 0.78268 0.16121 0.51159 0.0
C523 C 0.76484 0.1436 0.62705 0.0
C524 C 0.76104 0.08665 0.5363 0.0
C525 C 0.80714 0.08829 0.53084 0.0
C526 C 0.74921 0.10642 0.55232 0.0
C527 C 0.78446 0.12829 0.56272 0.0
C528 C 0.83091 0.12847 0.56062 0.0
C529 C 0.84171 0.1084 0.54463 0.0
C530 C 0.69921 0.10519 0.55457 0.0
C531 C 0.86961 0.15122 0.5716 0.0
H532 H 0.75824 0.20207 0.53112 0.0
H533 H 0.74373 0.18767 0.62845 0.0
H534 H 0.81745 0.15877 0.51034 0.0
H535 H 0.75774 0.1429 0.50395 0.0
H536 H 0.78121 0.17576 0.49503 0.0
H537 H 0.76033 0.15297 0.64965 0.0
H538 H 0.73694 0.1254 0.62444 0.0
H539 H 0.7978 0.13902 0.62746 0.0
H540 H 0.73438 0.07129 0.52517 0.0
H541 H 0.87739 0.10981 0.53993 0.0
H542 H 0.69127 0.11677 0.53631 0.0
H543 H 0.69155 0.11305 0.57738 0.0
H544 H 0.67623 0.08548 0.55124 0.0
H545 H 0.87531 0.16618 0.55437 0.0
H546 H 0.9022 0.14647 0.57421 0.0
H547 H 0.86101 0.15917 0.5941 0.0
C548 C 0.34633 0.34466 0.22817 0.0
C549 C 0.3734 0.35722 0.25344 0.0
C550 C 0.36648 0.34096 0.19961 0.0
C551 C 0.41487 0.34965 0.19646 0.0
C552 C 0.44227 0.36298 0.2216 0.0
C553 C 0.42116 0.36678 0.24973 0.0
C554 C 0.33609 0.32704 0.17316 0.0
C555 C 0.49405 0.37224 0.21925 0.0
C556 C 0.47191 0.31377 0.14078 0.0
C557 C 0.48581 0.33057 0.11658 0.0
C558 C 0.44818 0.31962 0.1666 0.0
C559 C 0.43719 0.34268 0.16806 0.0
C560 C 0.44918 0.35925 0.14309 0.0
C561 C 0.47362 0.35305 0.11763 0.0
C562 C 0.43611 0.30144 0.19275 0.0
C563 C 0.43732 0.3838 0.14366 0.0
H564 H 0.30933 0.3375 0.23076 0.0
H565 H 0.44227 0.37653 0.26914 0.0
H566 H 0.34512 0.33774 0.15161 0.0
H567 H 0.34164 0.30834 0.16854 0.0
H568 H 0.29905 0.32396 0.17824 0.0
H569 H 0.51019 0.38365 0.24018 0.0
H570 H 0.50754 0.3558 0.21623 0.0
H571 H 0.50475 0.3839 0.1986 0.0
H572 H 0.48027 0.29607 0.13975 0.0
H573 H 0.48439 0.36615 0.09906 0.0
H574 H 0.39856 0.29573 0.19719 0.0
H575 H 0.45342 0.3109 0.21441 0.0
H576 H 0.44647 0.2841 0.18772 0.0
H577 H 0.40025 0.3803 0.14884 0.0
H578 H 0.44538 0.39345 0.1213 0.0
H579 H 0.45688 0.39674 0.16241 0.0
C580 C 0.79892 0.7007 0.62358 0.0
C581 C 0.82654 0.71998 0.64328 0.0
C582 C 0.80893 0.67768 0.61816 0.0
C583 C 0.84726 0.67381 0.63295 0.0
C584 C 0.87582 0.69345 0.65227 0.0
C585 C 0.86517 0.71624 0.65712 0.0
C586 C 0.77796 0.65731 0.59723 0.0
C587 C 0.9172 0.69022 0.66848 0.0
C588 C 0.86195 0.61169 0.6554 0.0
C589 C 0.89879 0.61059 0.63627 0.0
C590 C 0.84088 0.63076 0.65232 0.0
C591 C 0.85731 0.6491 0.62959 0.0
C592 C 0.89046 0.64599 0.60769 0.0
C593 C 0.91101 0.62677 0.6114 0.0
C594 C 0.80535 0.63313 0.67598 0.0
C595 C 0.90843 0.66479 0.58276 0.0
H596 H 0.76902 0.70342 0.61273 0.0
H597 H 0.88678 0.731 0.67232 0.0
H598 H 0.79858 0.65042 0.57952 0.0
H599 H 0.75949 0.6409 0.6111 0.0
H600 H 0.75218 0.66409 0.58521 0.0
H601 H 0.93637 0.70748 0.68223 0.0
H602 H 0.90615 0.67422 0.68433 0.0
H603 H 0.94102 0.68557 0.6512 0.0
H604 H 0.85311 0.59945 0.67497 0.0
H605 H 0.94009 0.62618 0.59695 0.0
H606 H 0.77729 0.63855 0.66493 0.0
H607 H 0.82175 0.64823 0.69359 0.0
H608 H 0.79025 0.6152 0.68811 0.0
H609 H 0.88024 0.67063 0.57252 0.0
H610 H 0.92598 0.65691 0.56394 0.0
H611 H 0.93358 0.682 0.59313 0.0
C612 C 0.84914 0.35527 0.31867 0.0
C613 C 0.88564 0.34467 0.31734 0.0
C614 C 0.85654 0.38096 0.32727 0.0
C615 C 0.90155 0.39651 0.33449 0.0
C616 C 0.93818 0.38571 0.33435 0.0
C617 C 0.92976 0.35996 0.32592 0.0
C618 C 0.81649 0.39164 0.32762 0.0
C619 C 0.98676 0.40158 0.34205 0.0
C620 C 0.94691 0.4671 0.32332 0.0
C621 C 0.95397 0.47633 0.35414 0.0
C622 C 0.92581 0.44121 0.31637 0.0
C623 C 0.91145 0.42431 0.3409 0.0
C624 C 0.91384 0.43412 0.37191 0.0
C625 C 0.93542 0.46004 0.37818 0.0
C626 C 0.92368 0.43165 0.28297 0.0
C627 C 0.89821 0.41694 0.39874 0.0
H628 H 0.81484 0.34365 0.31219 0.0
H629 H 0.9582 0.35204 0.32502 0.0
H630 H 0.81585 0.40261 0.34966 0.0
H631 H 0.82037 0.40487 0.30845 0.0
H632 H 0.78304 0.37659 0.32481 0.0
H633 H 0.01112 0.39018 0.34174 0.0
H634 H 0.99877 0.41668 0.32505 0.0
H635 H 0.98786 0.41101 0.36536 0.0
H636 H 0.9621 0.47961 0.3048 0.0
H637 H 0.94162 0.46715 0.40205 0.0
H638 H 0.88994 0.41751 0.27778 0.0
H639 H 0.95054 0.42211 0.27882 0.0
H640 H 0.92948 0.44725 0.26659 0.0
H641 H 0.86528 0.40215 0.39331 0.0
H642 H 0.89383 0.42767 0.42032 0.0
H643 H 0.92427 0.40721 0.4032 0.0
C644 C 0.20933 0.45098 0.70444 0.0
C645 C 0.17678 0.43151 0.71958 0.0
C646 C 0.19626 0.47006 0.69004 0.0
C647 C 0.14951 0.46934 0.69046 0.0
C648 C 0.11682 0.45012 0.70648 0.0
C649 C 0.13092 0.43158 0.72096 0.0
C650 C 0.2322 0.49038 0.67356 0.0
C651 C 0.06649 0.44859 0.70751 0.0
C652 C 0.09497 0.52027 0.67648 0.0
C653 C 0.07213 0.51092 0.64847 0.0
C654 C 0.1257 0.50884 0.68893 0.0
C655 C 0.1332 0.48756 0.67302 0.0
C656 C 0.11543 0.48055 0.6427 0.0
C657 C 0.08521 0.49247 0.63068 0.0
C658 C 0.14535 0.51749 0.72083 0.0
C659 C 0.12321 0.45828 0.62463 0.0
H660 H 0.2449 0.4511 0.70332 0.0
H661 H 0.10556 0.41666 0.73263 0.0
H662 H 0.22938 0.48613 0.64817 0.0
H663 H 0.22694 0.50918 0.67795 0.0
H664 H 0.26754 0.49148 0.68086 0.0
H665 H 0.04571 0.43271 0.7214 0.0
H666 H 0.06232 0.4665 0.71765 0.0
H667 H 0.05235 0.44601 0.6836 0.0
H668 H 0.08522 0.53465 0.69029 0.0
H669 H 0.06819 0.48556 0.60871 0.0
H670 H 0.18099 0.51646 0.72248 0.0
H671 H 0.12419 0.50487 0.73829 0.0
H672 H 0.14535 0.53718 0.72683 0.0
H673 H 0.15946 0.45839 0.62647 0.0
H674 H 0.11438 0.45818 0.59971 0.0
H675 H 0.10126 0.44046 0.63446 0.0
C676 C 0.23402 0.74088 0.28156 0.0
C677 C 0.28063 0.74747 0.28963 0.0
C678 C 0.20327 0.7175 0.2894 0.0
C679 C 0.21945 0.70026 0.30578 0.0
C680 C 0.26679 0.7063 0.31279 0.0
C681 C 0.29684 0.72982 0.30461 0.0
C682 C 0.15305 0.71172 0.28134 0.0
C683 C 0.28536 0.68842 0.33019 0.0
C684 C 0.12935 0.65803 0.35719 0.0
C685 C 0.11424 0.63568 0.33875 0.0
C686 C 0.16499 0.67877 0.34728 0.0
C687 C 0.18597 0.67717 0.31809 0.0
C688 C 0.17245 0.65417 0.30002 0.0
C689 C 0.1367 0.6336 0.31064 0.0
C690 C 0.17866 0.7028 0.36745 0.0
C691 C 0.19407 0.65173 0.26882 0.0
H692 H 0.22121 0.75428 0.26979 0.0
H693 H 0.33283 0.73466 0.31082 0.0
H694 H 0.14034 0.69287 0.26922 0.0
H695 H 0.1326 0.71105 0.30296 0.0
H696 H 0.14664 0.72612 0.26636 0.0
H697 H 0.32353 0.69464 0.33091 0.0
H698 H 0.27222 0.68727 0.35438 0.0
H699 H 0.27335 0.66906 0.31934 0.0
H700 H 0.11223 0.65953 0.37909 0.0
H701 H 0.12483 0.61635 0.2963 0.0
H702 H 0.16953 0.71803 0.35565 0.0
H703 H 0.21638 0.70927 0.37113 0.0
H704 H 0.16137 0.70031 0.39046 0.0
H705 H 0.1838 0.66375 0.25216 0.0
H706 H 0.18345 0.63189 0.25929 0.0
H707 H 0.2321 0.65854 0.27057 0.0
C708 C 0.87957 0.89204 0.6404 0.0
C709 C 0.85379 0.86807 0.62834 0.0
C710 C 0.88761 0.91374 0.62283 0.0
C711 C 0.86926 0.9115 0.59253 0.0
C712 C 0.84438 0.88729 0.57989 0.0
C713 C 0.83708 0.8659 0.59789 0.0
C714 C 0.91475 0.93915 0.63696 0.0
C715 C 0.82435 0.88405 0.54758 0.0
C716 C 0.84099 0.96473 0.55277 0.0
C717 C 0.87479 0.97027 0.52963 0.0
C718 C 0.84053 0.9468 0.57496 0.0
C719 C 0.87489 0.93433 0.57398 0.0
C720 C 0.91153 0.94173 0.55249 0.0
C721 C 0.91093 0.95956 0.53047 0.0
C722 C 0.80099 0.93957 0.59761 0.0
C723 C 0.94923 0.92927 0.55093 0.0
H724 H 0.89275 0.89396 0.66388 0.0
H725 H 0.81711 0.84753 0.58834 0.0
H726 H 0.94327 0.9487 0.62128 0.0
H727 H 0.89225 0.95152 0.63986 0.0
H728 H 0.92931 0.93749 0.65996 0.0
H729 H 0.80667 0.8639 0.54094 0.0
H730 H 0.79929 0.89489 0.54611 0.0
H731 H 0.8519 0.89173 0.53039 0.0
H732 H 0.81277 0.97278 0.55191 0.0
H733 H 0.93707 0.96385 0.5125 0.0
H734 H 0.81364 0.93854 0.62136 0.0
H735 H 0.7778 0.92052 0.59081 0.0
H736 H 0.78069 0.9532 0.59819 0.0
H737 H 0.96191 0.92769 0.57451 0.0
H738 H 0.97869 0.93986 0.53653 0.0
H739 H 0.93544 0.9098 0.5406 0.0
C740 C 0.72299 0.24908 0.17565 0.0
C741 C 0.77071 0.25788 0.17114 0.0
C742 C 0.69277 0.25353 0.15398 0.0
C743 C 0.71073 0.26683 0.12704 0.0
C744 C 0.75831 0.27292 0.12054 0.0
C745 C 0.78787 0.26846 0.14278 0.0
C746 C 0.64214 0.24643 0.16165 0.0
C747 C 0.77859 0.28636 0.09158 0.0
C748 C 0.62057 0.27603 0.07252 0.0
C749 C 0.61635 0.29916 0.08441 0.0
C750 C 0.6531 0.26569 0.08488 0.0
C751 C 0.68151 0.27881 0.10972 0.0
C752 C 0.67913 0.30291 0.12036 0.0
C753 C 0.64676 0.3128 0.10746 0.0
C754 C 0.65518 0.2402 0.07252 0.0
C755 C 0.70896 0.3177 0.14664 0.0
H756 H 0.70928 0.24044 0.19722 0.0
H757 H 0.82466 0.27487 0.13878 0.0
H758 H 0.63292 0.26378 0.16866 0.0
H759 H 0.62118 0.23761 0.14103 0.0
H760 H 0.63287 0.23311 0.18092 0.0
H761 H 0.81343 0.28473 0.08659 0.0
H762 H 0.75616 0.27866 0.07121 0.0
H763 H 0.78144 0.30675 0.09469 0.0
H764 H 0.59706 0.26547 0.05465 0.0
H765 H 0.64404 0.33092 0.11622 0.0
H766 H 0.63627 0.22541 0.08848 0.0
H767 H 0.6912 0.23963 0.07115 0.0
H768 H 0.63926 0.23539 0.04916 0.0
H769 H 0.70039 0.30706 0.16826 0.0
H770 H 0.70437 0.33668 0.15104 0.0
H771 H 0.74572 0.32022 0.14142 0.0
C772 C 0.40583 0.27882 0.7036 0.0
C773 C 0.37946 0.26997 0.73002 0.0
C774 C 0.40995 0.26207 0.67923 0.0
C775 C 0.38714 0.23586 0.68135 0.0
C776 C 0.36417 0.22659 0.70916 0.0
C777 C 0.36062 0.24378 0.73322 0.0
C778 C 0.43521 0.27271 0.65011 0.0
C779 C 0.33986 0.19875 0.71247 0.0
C780 C 0.33698 0.20304 0.60554 0.0
C781 C 0.36875 0.19041 0.59631 0.0
C782 C 0.34227 0.2174 0.63345 0.0
C783 C 0.38027 0.21914 0.65282 0.0
C784 C 0.41183 0.20581 0.64416 0.0
C785 C 0.40564 0.19151 0.61592 0.0
C786 C 0.30754 0.23112 0.64187 0.0
C787 C 0.45264 0.20719 0.66428 0.0
H788 H 0.42116 0.299 0.70113 0.0
H789 H 0.34067 0.23672 0.75371 0.0
H790 H 0.45733 0.26121 0.64159 0.0
H791 H 0.40992 0.27204 0.6316 0.0
H792 H 0.45689 0.29266 0.65388 0.0
H793 H 0.331 0.19411 0.73704 0.0
H794 H 0.30757 0.19332 0.69879 0.0
H795 H 0.36136 0.18711 0.70325 0.0
H796 H 0.30787 0.20177 0.59074 0.0
H797 H 0.43023 0.18174 0.6088 0.0
H798 H 0.32479 0.25185 0.64342 0.0
H799 H 0.29231 0.22545 0.66496 0.0
H800 H 0.27929 0.2272 0.62463 0.0
H801 H 0.47678 0.2267 0.66463 0.0
H802 H 0.4714 0.19386 0.6558 0.0
H803 H 0.44149 0.20292 0.68857 0.0
C804 C 0.36897 0.86144 0.21148 0.0
C805 C 0.4109 0.87004 0.22733 0.0
C806 C 0.36679 0.85084 0.18111 0.0
C807 C 0.4071 0.84767 0.16713 0.0
C808 C 0.44953 0.85645 0.18321 0.0
C809 C 0.45102 0.86804 0.21286 0.0
C810 C 0.32134 0.84271 0.16427 0.0
C811 C 0.49308 0.85269 0.16967 0.0
C812 C 0.40462 0.79455 0.10878 0.0
C813 C 0.42386 0.80807 0.08254 0.0
C814 C 0.39624 0.80704 0.13609 0.0
C815 C 0.40513 0.83362 0.13675 0.0
C816 C 0.41885 0.84694 0.10918 0.0
C817 C 0.42885 0.83408 0.08249 0.0
C818 C 0.38238 0.79208 0.16502 0.0
C819 C 0.4264 0.87509 0.10853 0.0
H820 H 0.33802 0.86318 0.22276 0.0
H821 H 0.48332 0.87456 0.22536 0.0
H822 H 0.32588 0.84857 0.13984 0.0
H823 H 0.30713 0.82179 0.16382 0.0
H824 H 0.29579 0.85082 0.17571 0.0
H825 H 0.52297 0.86021 0.18547 0.0
H826 H 0.48809 0.83221 0.16481 0.0
H827 H 0.50138 0.86225 0.14732 0.0
H828 H 0.3992 0.77429 0.10869 0.0
H829 H 0.44345 0.84479 0.0624 0.0
H830 H 0.35293 0.79649 0.17663 0.0
H831 H 0.41147 0.79744 0.18167 0.0
H832 H 0.37289 0.77133 0.15997 0.0
H833 H 0.39895 0.88044 0.12166 0.0
H834 H 0.42722 0.88151 0.0844 0.0
H835 H 0.45969 0.88532 0.11974 0.0
C836 C 0.90548 0.20145 0.35489 0.0
C837 C 0.88599 0.2013 0.32565 0.0
C838 C 0.89676 0.1791 0.37126 0.0
C839 C 0.86932 0.15585 0.35752 0.0
C840 C 0.85107 0.15548 0.32742 0.0
C841 C 0.85887 0.1783 0.31209 0.0
C842 C 0.91561 0.18053 0.40372 0.0
C843 C 0.82301 0.13102 0.31153 0.0
C844 C 0.87806 0.09842 0.39968 0.0
C845 C 0.83965 0.09392 0.4193 0.0
C846 C 0.8866 0.11741 0.37768 0.0
C847 C 0.85663 0.13254 0.37593 0.0
C848 C 0.81622 0.12681 0.3942 0.0
C849 C 0.80777 0.10724 0.41506 0.0
C850 C 0.92905 0.12224 0.35765 0.0
C851 C 0.78366 0.14263 0.39367 0.0
H852 H 0.9264 0.21922 0.36541 0.0
H853 H 0.84433 0.17811 0.28925 0.0
H854 H 0.88685 0.17405 0.42043 0.0
H855 H 0.93728 0.16776 0.40522 0.0
H856 H 0.9365 0.20002 0.41098 0.0
H857 H 0.81562 0.13354 0.28693 0.0
H858 H 0.84143 0.11657 0.31233 0.0
H859 H 0.78988 0.12347 0.32389 0.0
H860 H 0.90275 0.08816 0.4027 0.0
H861 H 0.77737 0.10341 0.42963 0.0
H862 H 0.95538 0.13964 0.36645 0.0
H863 H 0.92106 0.12535 0.33338 0.0
H864 H 0.94399 0.10628 0.35768 0.0
H865 H 0.80158 0.16217 0.40256 0.0
H866 H 0.75256 0.13483 0.40811 0.0
H867 H 0.77263 0.14399 0.36959 0.0
C868 C 0.27107 0.34949 0.85898 0.0
C869 C 0.29723 0.35748 0.83224 0.0
C870 C 0.29154 0.34392 0.88568 0.0
C871 C 0.33922 0.34674 0.88553 0.0
C872 C 0.36601 0.35598 0.85901 0.0
C873 C 0.34462 0.36121 0.83271 0.0
C874 C 0.26193 0.33405 0.91345 0.0
C875 C 0.41714 0.35965 0.85802 0.0
C876 C 0.41659 0.35142 0.95442 0.0
C877 C 0.42629 0.32835 0.95069 0.0
C878 C 0.38431 0.3569 0.93525 0.0
C879 C 0.36148 0.33878 0.91205 0.0
C880 C 0.36751 0.3144 0.91076 0.0
C881 C 0.40026 0.30955 0.92999 0.0
C882 C 0.37875 0.38305 0.93749 0.0
C883 C 0.34335 0.29442 0.88671 0.0
H884 H 0.23434 0.34667 0.85861 0.0
H885 H 0.36504 0.36814 0.81236 0.0
H886 H 0.259 0.31378 0.91587 0.0
H887 H 0.27788 0.34433 0.93506 0.0
H888 H 0.2268 0.33582 0.91131 0.0
H889 H 0.43327 0.36822 0.83622 0.0
H890 H 0.43432 0.37203 0.87796 0.0
H891 H 0.42367 0.34113 0.85995 0.0
H892 H 0.43731 0.36602 0.97022 0.0
H893 H 0.40828 0.29181 0.92704 0.0
H894 H 0.34232 0.38224 0.93429 0.0
H895 H 0.3991 0.39453 0.91878 0.0
H896 H 0.39103 0.39287 0.96016 0.0
H897 H 0.30668 0.29351 0.88475 0.0
H898 H 0.34537 0.27539 0.89225 0.0
H899 H 0.35965 0.29934 0.86371 0.0
C900 C 0.3763 0.97002 0.37918 0.0
C901 C 0.41829 0.97464 0.36331 0.0
C902 C 0.36716 0.9887 0.39893 0.0
C903 C 0.40069 0.01266 0.4028 0.0
C904 C 0.44182 0.01802 0.38524 0.0
C905 C 0.45022 0.99891 0.36577 0.0
C906 C 0.32282 0.9822 0.41721 0.0
C907 C 0.47816 0.04343 0.38841 0.0
C908 C 0.36125 0.06289 0.44808 0.0
C909 C 0.37446 0.05978 0.47831 0.0
C910 C 0.37132 0.0485 0.42282 0.0
C911 C 0.39501 0.03064 0.42807 0.0
C912 C 0.41048 0.02848 0.45833 0.0
C913 C 0.40016 0.04312 0.483 0.0
C914 C 0.35479 0.05156 0.39084 0.0
C915 C 0.43612 0.00982 0.46498 0.0
H916 H 0.35129 0.9514 0.37729 0.0
H917 H 0.48263 1.00273 0.35341 0.0
H918 H 0.33038 0.98126 0.44216 0.0
H919 H 0.30575 0.99712 0.4152 0.0
H920 H 0.29849 0.96373 0.40934 0.0
H921 H 0.50463 0.04593 0.36987 0.0
H922 H 0.46242 0.05901 0.38765 0.0
H923 H 0.49547 0.04517 0.41121 0.0
H924 H 0.34136 0.07575 0.44437 0.0
H925 H 0.41127 0.04106 0.50625 0.0
H926 H 0.32618 0.0345 0.38393 0.0
H927 H 0.38271 0.05329 0.37352 0.0
H928 H 0.34239 0.06841 0.38989 0.0
H929 H 0.41345 0.99023 0.46026 0.0
H930 H 0.44798 0.0115 0.48945 0.0
H931 H 0.46643 0.01273 0.44949 0.0
C932 C 0.71443 0.84203 0.79968 0.0
C933 C 0.73457 0.8232 0.79053 0.0
C934 C 0.68098 0.838 0.82308 0.0
C935 C 0.66756 0.81463 0.838 0.0
C936 C 0.68891 0.79585 0.82973 0.0
C937 C 0.72204 0.80031 0.80593 0.0
C938 C 0.65881 0.85845 0.83105 0.0
C939 C 0.67586 0.77084 0.84543 0.0
C940 C 0.59921 0.81532 0.91221 0.0
C941 C 0.55397 0.8061 0.90112 0.0
C942 C 0.63678 0.81696 0.89228 0.0
C943 C 0.6288 0.80941 0.86055 0.0
C944 C 0.5832 0.79901 0.84961 0.0
C945 C 0.54642 0.79735 0.87006 0.0
C946 C 0.68493 0.82787 0.90486 0.0
C947 C 0.57316 0.79078 0.81594 0.0
H948 H 0.72394 0.8598 0.78799 0.0
H949 H 0.73768 0.78573 0.79914 0.0
H950 H 0.62165 0.85144 0.82535 0.0
H951 H 0.6617 0.86332 0.85631 0.0
H952 H 0.67458 0.87596 0.81826 0.0
H953 H 0.69856 0.75921 0.83839 0.0
H954 H 0.67751 0.77401 0.87103 0.0
H955 H 0.6399 0.75993 0.83946 0.0
H956 H 0.60533 0.82221 0.93614 0.0
H957 H 0.51152 0.78969 0.86152 0.0
H958 H 0.70085 0.84688 0.89552 0.0
H959 H 0.70655 0.8158 0.89729 0.0
H960 H 0.6854 0.82976 0.93062 0.0
H961 H 0.58489 0.8075 0.80125 0.0
H962 H 0.53594 0.7815 0.81164 0.0
H963 H 0.59229 0.77743 0.80835 0.0
loop_
_geom_bond_atom_site_label_1
_geom_bond_atom_site_label_2
_geom_bond_distance
_geom_bond_site_symmetry_2
_ccdc_geom_bond_type
O0 Cd1 2.300 . S
O0 C7 1.275 . S
Cd1 O0 2.300 . S
Cd1 O9 2.381 . S
Cd1 O10 2.378 . S
O2 Cd3 2.385 . S
O2 C7 1.255 . S
Cd3 O2 2.385 . S
Cd3 O4 2.317 . S
O4 Cd3 2.317 . S
O4 C5 1.232 . S
C5 O4 1.232 . S
C5 O6 1.218 . S
O6 C5 1.218 . S
C7 O0 1.275 . S
C7 O2 1.255 . S
C8 O9 1.258 . S
C8 O10 1.256 . S
O9 Cd1 2.381 . S
O9 C8 1.258 . S
O10 Cd1 2.378 . S
O10 C8 1.256 . S
O11 Cd12 2.300 . S
O11 C18 1.275 . S
Cd12 O11 2.300 . S
Cd12 O20 2.381 . S
Cd12 O21 2.378 . S
O13 Cd14 2.385 . S
O13 C18 1.255 . S
Cd14 O13 2.385 . S
Cd14 O15 2.317 . S
O15 Cd14 2.317 . S
O15 C16 1.232 . S
C16 O15 1.232 . S
C16 O17 1.218 . S
O17 C16 1.218 . S
C18 O11 1.275 . S
C18 O13 1.255 . S
C19 O20 1.258 . S
C19 O21 1.256 . S
O20 Cd12 2.381 . S
O20 C19 1.258 . S
O21 Cd12 2.378 . S
O21 C19 1.256 . S
O22 Cd23 2.300 . S
O22 C29 1.275 . S
Cd23 O22 2.300 . S
Cd23 O31 2.381 . S
Cd23 O32 2.378 . S
O24 Cd25 2.385 . S
O24 C29 1.255 . S
Cd25 O24 2.385 . S
Cd25 O26 2.317 . S
O26 Cd25 2.317 . S
O26 C27 1.232 . S
C27 O26 1.232 . S
C27 O28 1.218 . S
O28 C27 1.218 . S
C29 O22 1.275 . S
C29 O24 1.255 . S
C30 O31 1.258 . S
C30 O32 1.256 . S
O31 Cd23 2.381 . S
O31 C30 1.258 . S
O32 Cd23 2.378 . S
O32 C30 1.256 . S
O33 Cd34 2.300 . S
O33 C40 1.275 . S
Cd34 O33 2.300 . S
Cd34 O42 2.381 . S
Cd34 O43 2.378 . S
O35 Cd36 2.385 . S
O35 C40 1.255 . S
Cd36 O35 2.385 . S
Cd36 O37 2.317 . S
O37 Cd36 2.317 . S
O37 C38 1.232 . S
C38 O37 1.232 . S
C38 O39 1.218 . S
O39 C38 1.218 . S
C40 O33 1.275 . S
C40 O35 1.255 . S
C41 O42 1.258 . S
C41 O43 1.256 . S
O42 Cd34 2.381 . S
O42 C41 1.258 . S
O43 Cd34 2.378 . S
O43 C41 1.256 . S
O44 Cd45 2.300 . S
O44 C51 1.275 . S
Cd45 O44 2.300 . S
Cd45 O53 2.381 . S
Cd45 O54 2.378 . S
O46 Cd47 2.385 . S
O46 C51 1.255 . S
Cd47 O46 2.385 . S
Cd47 O48 2.317 . S
O48 Cd47 2.317 . S
O48 C49 1.232 . S
C49 O48 1.232 . S
C49 O50 1.218 . S
O50 C49 1.218 . S
C51 O44 1.275 . S
C51 O46 1.255 . S
C52 O53 1.258 . S
C52 O54 1.256 . S
O53 Cd45 2.381 . S
O53 C52 1.258 . S
O54 Cd45 2.378 . S
O54 C52 1.256 . S
O55 Cd56 2.300 . S
O55 C62 1.275 . S
Cd56 O55 2.300 . S
Cd56 O64 2.381 . S
Cd56 O65 2.378 . S
O57 Cd58 2.385 . S
O57 C62 1.255 . S
Cd58 O57 2.385 . S
Cd58 O59 2.317 . S
O59 Cd58 2.317 . S
O59 C60 1.232 . S
C60 O59 1.232 . S
C60 O61 1.218 . S
O61 C60 1.218 . S
C62 O55 1.275 . S
C62 O57 1.255 . S
C63 O64 1.258 . S
C63 O65 1.256 . S
O64 Cd56 2.381 . S
O64 C63 1.258 . S
O65 Cd56 2.378 . S
O65 C63 1.256 . S
O66 Cd67 2.300 . S
O66 C73 1.275 . S
Cd67 O66 2.300 . S
Cd67 O75 2.381 . S
Cd67 O76 2.378 . S
O68 Cd69 2.385 . S
O68 C73 1.255 . S
Cd69 O68 2.385 . S
Cd69 O70 2.317 . S
O70 Cd69 2.317 . S
O70 C71 1.232 . S
C71 O70 1.232 . S
C71 O72 1.218 . S
O72 C71 1.218 . S
C73 O66 1.275 . S
C73 O68 1.255 . S
C74 O75 1.258 . S
C74 O76 1.256 . S
O75 Cd67 2.381 . S
O75 C74 1.258 . S
O76 Cd67 2.378 . S
O76 C74 1.256 . S
O77 Cd78 2.300 . S
O77 C84 1.275 . S
Cd78 O77 2.300 . S
Cd78 O86 2.381 . S
Cd78 O87 2.378 . S
O79 Cd80 2.385 . S
O79 C84 1.255 . S
Cd80 O79 2.385 . S
Cd80 O81 2.317 . S
O81 Cd80 2.317 . S
O81 C82 1.232 . S
C82 O81 1.232 . S
C82 O83 1.218 . S
O83 C82 1.218 . S
C84 O77 1.275 . S
C84 O79 1.255 . S
C85 O86 1.258 . S
C85 O87 1.256 . S
O86 Cd78 2.381 . S
O86 C85 1.258 . S
O87 Cd78 2.378 . S
O87 C85 1.256 . S
H88 C94 0.930 . S
H89 C97 0.931 1_655 S
H90 C99 0.931 . S
H91 C101 0.930 . S
H92 C103 0.930 . S
H93 C105 0.931 1_655 S
C94 H88 0.930 . S
C94 C95 1.380 . S
C94 C96 1.394 . S
C95 C94 1.380 . S
C95 C99 1.382 . S
C96 C94 1.394 . S
C96 C97 1.400 . S
C97 H89 0.931 1_455 S
C97 C96 1.400 . S
C97 C98 1.375 . S
C98 C97 1.375 . S
C98 C99 1.415 . S
C98 C100 1.501 . S
C99 H90 0.931 . S
C99 C95 1.382 . S
C99 C98 1.415 . S
C100 C98 1.501 . S
C100 C101 1.384 . S
C100 C105 1.408 . S
C101 H91 0.930 . S
C101 C100 1.384 . S
C101 C102 1.389 . S
C102 C101 1.389 . S
C102 C103 1.405 . S
C103 H92 0.930 . S
C103 C102 1.405 . S
C103 C104 1.364 . S
C104 C103 1.364 . S
C104 C105 1.400 . S
C105 H93 0.931 1_455 S
C105 C100 1.408 . S
C105 C104 1.400 . S
H106 C112 0.930 . S
H107 C115 0.931 . S
H108 C117 0.931 . S
H109 C119 0.930 . S
H110 C121 0.930 . S
H111 C123 0.931 . S
C112 H106 0.930 . S
C112 C113 1.380 1_455 S
C112 C114 1.394 . S
C113 C112 1.380 1_655 S
C113 C117 1.382 . S
C114 C112 1.394 . S
C114 C115 1.400 . S
C115 H107 0.931 . S
C115 C114 1.400 . S
C115 C116 1.375 . S
C116 C115 1.375 . S
C116 C117 1.415 1_455 S
C116 C118 1.505 1_455 S
C117 H108 0.931 . S
C117 C113 1.382 . S
C117 C116 1.415 1_655 S
C118 C116 1.505 1_655 S
C118 C119 1.396 . S
C118 C123 1.391 1_655 S
C119 H109 0.930 . S
C119 C118 1.396 . S
C119 C120 1.389 . S
C120 C119 1.389 . S
C120 C121 1.405 . S
C121 H110 0.930 . S
C121 C120 1.405 . S
C121 C122 1.364 1_655 S
C122 C121 1.364 1_455 S
C122 C123 1.400 . S
C123 H111 0.931 . S
C123 C118 1.391 1_455 S
C123 C122 1.400 . S
H124 C130 0.930 . S
H125 C133 0.931 . S
H126 C135 0.931 . S
H127 C137 0.930 . S
H128 C139 0.930 . S
H129 C141 0.931 . S
C130 H124 0.930 . S
C130 C131 1.380 . S
C130 C132 1.394 . S
C131 C130 1.380 . S
C131 C135 1.382 . S
C132 C130 1.394 . S
C132 C133 1.400 . S
C133 H125 0.931 . S
C133 C132 1.400 . S
C133 C134 1.375 . S
C134 C133 1.375 . S
C134 C135 1.415 . S
C134 C136 1.501 . S
C135 H126 0.931 . S
C135 C131 1.382 . S
C135 C134 1.415 . S
C136 C134 1.501 . S
C136 C137 1.384 . S
C136 C141 1.408 . S
C137 H127 0.930 . S
C137 C136 1.384 . S
C137 C138 1.389 . S
C138 C137 1.389 . S
C138 C139 1.405 . S
C139 H128 0.930 . S
C139 C138 1.405 . S
C139 C140 1.364 . S
C140 C139 1.364 . S
C140 C141 1.400 . S
C141 H129 0.931 . S
C141 C136 1.408 . S
C141 C140 1.400 . S
H142 C148 0.930 . S
H143 C151 0.931 . S
H144 C153 0.931 . S
H145 C155 0.930 . S
H146 C157 0.930 . S
H147 C159 0.931 . S
C148 H142 0.930 . S
C148 C149 1.380 . S
C148 C150 1.394 . S
C149 C148 1.380 . S
C149 C153 1.382 . S
C150 C148 1.394 . S
C150 C151 1.400 . S
C151 H143 0.931 . S
C151 C150 1.400 . S
C151 C152 1.375 . S
C152 C151 1.375 . S
C152 C153 1.415 . S
C152 C154 1.501 1_554 S
C153 H144 0.931 . S
C153 C149 1.382 . S
C153 C152 1.415 . S
C154 C152 1.501 1_556 S
C154 C155 1.384 . S
C154 C159 1.408 . S
C155 H145 0.930 . S
C155 C154 1.384 . S
C155 C156 1.389 . S
C156 C155 1.389 . S
C156 C157 1.405 . S
C157 H146 0.930 . S
C157 C156 1.405 . S
C157 C158 1.364 . S
C158 C157 1.364 . S
C158 C159 1.400 . S
C159 H147 0.931 . S
C159 C154 1.408 . S
C159 C158 1.400 . S
H160 C166 0.930 . S
H161 C169 0.931 . S
H162 C171 0.931 . S
H163 C173 0.930 1_545 S
H164 C175 0.930 . S
H165 C177 0.931 1_545 S
C166 H160 0.930 . S
C166 C167 1.380 . S
C166 C168 1.394 . S
C167 C166 1.380 . S
C167 C171 1.382 . S
C168 C166 1.394 . S
C168 C169 1.400 . S
C169 H161 0.931 . S
C169 C168 1.400 . S
C169 C170 1.375 . S
C170 C169 1.375 . S
C170 C171 1.415 . S
C170 C172 1.501 . S
C171 H162 0.931 . S
C171 C167 1.382 . S
C171 C170 1.415 . S
C172 C170 1.501 . S
C172 C173 1.384 1_545 S
C172 C177 1.408 1_545 S
C173 H163 0.930 1_565 S
C173 C172 1.384 1_565 S
C173 C174 1.389 . S
C174 C173 1.389 . S
C174 C175 1.405 . S
C175 H164 0.930 . S
C175 C174 1.405 . S
C175 C176 1.364 . S
C176 C175 1.364 . S
C176 C177 1.400 . S
C177 H165 0.931 1_565 S
C177 C172 1.408 1_565 S
C177 C176 1.400 . S
H178 C184 0.930 . S
H179 C187 0.931 . S
H180 C189 0.931 . S
H181 C191 0.930 . S
H182 C193 0.930 . S
H183 C195 0.931 . S
C184 H178 0.930 . S
C184 C185 1.380 . S
C184 C186 1.394 . S
C185 C184 1.380 . S
C185 C189 1.382 . S
C186 C184 1.394 . S
C186 C187 1.400 . S
C187 H179 0.931 . S
C187 C186 1.400 . S
C187 C188 1.375 . S
C188 C187 1.375 . S
C188 C189 1.415 . S
C188 C190 1.501 1_554 S
C189 H180 0.931 . S
C189 C185 1.382 . S
C189 C188 1.415 . S
C190 C188 1.501 1_556 S
C190 C191 1.384 . S
C190 C195 1.408 . S
C191 H181 0.930 . S
C191 C190 1.384 . S
C191 C192 1.389 . S
C192 C191 1.389 . S
C192 C193 1.405 . S
C193 H182 0.930 . S
C193 C192 1.405 . S
C193 C194 1.364 . S
C194 C193 1.364 . S
C194 C195 1.400 . S
C195 H183 0.931 . S
C195 C190 1.408 . S
C195 C194 1.400 . S
C196 C197 1.391 . S
C196 C198 1.394 . S
C196 H212 0.931 . S
C197 C196 1.391 . S
C197 C201 1.376 . S
C198 C196 1.394 . S
C198 C199 1.369 . S
C198 C202 1.531 . S
C199 C198 1.369 . S
C199 C200 1.410 . S
C199 C207 1.503 . S
C200 C199 1.410 . S
C200 C201 1.392 . S
C200 C203 1.511 . S
C201 C197 1.376 . S
C201 C200 1.392 . S
C201 H213 0.929 . S
C202 C198 1.531 . S
C202 H214 0.960 . S
C202 H215 0.962 . S
C202 H216 0.960 . S
C203 C200 1.511 . S
C203 H217 0.961 . S
C203 H218 0.961 . S
C203 H219 0.961 . S
C204 C205 1.370 . S
C204 C206 1.363 . S
C204 H220 0.931 . S
C205 C204 1.370 . S
C205 C209 1.408 . S
C206 C204 1.363 . S
C206 C207 1.370 . S
C206 C210 1.524 . S
C207 C199 1.503 . S
C207 C206 1.370 . S
C207 C208 1.403 . S
C208 C207 1.403 . S
C208 C209 1.404 . S
C208 C211 1.539 . S
C209 C205 1.408 . S
C209 C208 1.404 . S
C209 H221 0.930 . S
C210 C206 1.524 . S
C210 H222 0.956 . S
C210 H223 0.961 . S
C210 H224 0.961 . S
C211 C208 1.539 . S
C211 H225 0.958 . S
C211 H226 0.961 . S
C211 H227 0.960 . S
H212 C196 0.931 . S
H213 C201 0.929 . S
H214 C202 0.960 . S
H215 C202 0.962 . S
H216 C202 0.960 . S
H217 C203 0.961 . S
H218 C203 0.961 . S
H219 C203 0.961 . S
H220 C204 0.931 . S
H221 C209 0.930 . S
H222 C210 0.956 . S
H223 C210 0.961 . S
H224 C210 0.961 . S
H225 C211 0.958 . S
H226 C211 0.961 . S
H227 C211 0.960 . S
C228 C229 1.391 . S
C228 C230 1.394 . S
C228 H244 0.931 . S
C229 C228 1.391 . S
C229 C233 1.376 . S
C230 C228 1.394 . S
C230 C231 1.369 . S
C230 C234 1.531 . S
C231 C230 1.369 . S
C231 C232 1.410 . S
C231 C239 1.503 . S
C232 C231 1.410 . S
C232 C233 1.392 . S
C232 C235 1.511 . S
C233 C229 1.376 . S
C233 C232 1.392 . S
C233 H245 0.929 . S
C234 C230 1.531 . S
C234 H246 0.960 . S
C234 H247 0.962 . S
C234 H248 0.960 . S
C235 C232 1.511 . S
C235 H249 0.961 . S
C235 H250 0.961 . S
C235 H251 0.961 . S
C236 C237 1.370 . S
C236 C238 1.363 . S
C236 H252 0.931 . S
C237 C236 1.370 . S
C237 C241 1.408 . S
C238 C236 1.363 . S
C238 C239 1.370 . S
C238 C242 1.524 . S
C239 C231 1.503 . S
C239 C238 1.370 . S
C239 C240 1.403 . S
C240 C239 1.403 . S
C240 C241 1.404 . S
C240 C243 1.539 . S
C241 C237 1.408 . S
C241 C240 1.404 . S
C241 H253 0.930 . S
C242 C238 1.524 . S
C242 H254 0.956 . S
C242 H255 0.961 . S
C242 H256 0.961 . S
C243 C240 1.539 . S
C243 H257 0.958 . S
C243 H258 0.961 . S
C243 H259 0.960 . S
H244 C228 0.931 . S
H245 C233 0.929 . S
H246 C234 0.960 . S
H247 C234 0.962 . S
H248 C234 0.960 . S
H249 C235 0.961 . S
H250 C235 0.961 . S
H251 C235 0.961 . S
H252 C236 0.931 . S
H253 C241 0.930 . S
H254 C242 0.956 . S
H255 C242 0.961 . S
H256 C242 0.961 . S
H257 C243 0.958 . S
H258 C243 0.961 . S
H259 C243 0.960 . S
C260 C261 1.391 . S
C260 C262 1.394 . S
C260 H276 0.931 . S
C261 C260 1.391 . S
C261 C265 1.376 . S
C262 C260 1.394 . S
C262 C263 1.369 . S
C262 C266 1.531 . S
C263 C262 1.369 . S
C263 C264 1.410 . S
C263 C271 1.503 . S
C264 C263 1.410 . S
C264 C265 1.392 . S
C264 C267 1.511 . S
C265 C261 1.376 . S
C265 C264 1.392 . S
C265 H277 0.929 . S
C266 C262 1.531 . S
C266 H278 0.960 . S
C266 H279 0.962 . S
C266 H280 0.960 . S
C267 C264 1.511 . S
C267 H281 0.961 . S
C267 H282 0.961 . S
C267 H283 0.961 . S
C268 C269 1.370 . S
C268 C270 1.363 . S
C268 H284 0.931 . S
C269 C268 1.370 . S
C269 C273 1.408 . S
C270 C268 1.363 . S
C270 C271 1.370 . S
C270 C274 1.524 . S
C271 C263 1.503 . S
C271 C270 1.370 . S
C271 C272 1.403 . S
C272 C271 1.403 . S
C272 C273 1.404 . S
C272 C275 1.539 . S
C273 C269 1.408 . S
C273 C272 1.404 . S
C273 H285 0.930 . S
C274 C270 1.524 . S
C274 H286 0.956 . S
C274 H287 0.961 . S
C274 H288 0.961 . S
C275 C272 1.539 . S
C275 H289 0.958 . S
C275 H290 0.961 . S
C275 H291 0.960 . S
H276 C260 0.931 . S
H277 C265 0.929 . S
H278 C266 0.960 . S
H279 C266 0.962 . S
H280 C266 0.960 . S
H281 C267 0.961 . S
H282 C267 0.961 . S
H283 C267 0.961 . S
H284 C268 0.931 . S
H285 C273 0.930 . S
H286 C274 0.956 . S
H287 C274 0.961 . S
H288 C274 0.961 . S
H289 C275 0.958 . S
H290 C275 0.961 . S
H291 C275 0.960 . S
C292 C293 1.391 . S
C292 C294 1.394 . S
C292 H308 0.931 . S
C293 C292 1.391 . S
C293 C297 1.376 . S
C294 C292 1.394 . S
C294 C295 1.369 . S
C294 C298 1.531 . S
C295 C294 1.369 . S
C295 C296 1.410 . S
C295 C303 1.503 . S
C296 C295 1.410 . S
C296 C297 1.392 . S
C296 C299 1.511 . S
C297 C293 1.376 . S
C297 C296 1.392 . S
C297 H309 0.929 . S
C298 C294 1.531 . S
C298 H310 0.960 . S
C298 H311 0.962 . S
C298 H312 0.960 . S
C299 C296 1.511 . S
C299 H313 0.961 . S
C299 H314 0.961 . S
C299 H315 0.961 . S
C300 C301 1.370 . S
C300 C302 1.363 . S
C300 H316 0.931 . S
C301 C300 1.370 . S
C301 C305 1.408 . S
C302 C300 1.363 . S
C302 C303 1.370 . S
C302 C306 1.524 . S
C303 C295 1.503 . S
C303 C302 1.370 . S
C303 C304 1.403 . S
C304 C303 1.403 . S
C304 C305 1.404 . S
C304 C307 1.539 . S
C305 C301 1.408 . S
C305 C304 1.404 . S
C305 H317 0.930 . S
C306 C302 1.524 . S
C306 H318 0.956 . S
C306 H319 0.961 . S
C306 H320 0.961 . S
C307 C304 1.539 . S
C307 H321 0.958 . S
C307 H322 0.961 . S
C307 H323 0.960 . S
H308 C292 0.931 . S
H309 C297 0.929 . S
H310 C298 0.960 . S
H311 C298 0.962 . S
H312 C298 0.960 . S
H313 C299 0.961 . S
H314 C299 0.961 . S
H315 C299 0.961 . S
H316 C300 0.931 . S
H317 C305 0.930 . S
H318 C306 0.956 . S
H319 C306 0.961 . S
H320 C306 0.961 . S
H321 C307 0.958 . S
H322 C307 0.961 . S
H323 C307 0.960 . S
C324 C325 1.391 . S
C324 C326 1.394 . S
C324 H340 0.931 . S
C325 C324 1.391 . S
C325 C329 1.376 . S
C326 C324 1.394 . S
C326 C327 1.369 . S
C326 C330 1.531 . S
C327 C326 1.369 . S
C327 C328 1.410 . S
C327 C335 1.503 . S
C328 C327 1.410 . S
C328 C329 1.392 . S
C328 C331 1.511 . S
C329 C325 1.376 . S
C329 C328 1.392 . S
C329 H341 0.929 . S
C330 C326 1.531 . S
C330 H342 0.960 . S
C330 H343 0.962 . S
C330 H344 0.960 . S
C331 C328 1.511 . S
C331 H345 0.961 . S
C331 H346 0.961 . S
C331 H347 0.961 . S
C332 C333 1.370 . S
C332 C334 1.363 . S
C332 H348 0.931 . S
C333 C332 1.370 . S
C333 C337 1.408 . S
C334 C332 1.363 . S
C334 C335 1.370 . S
C334 C338 1.524 . S
C335 C327 1.503 . S
C335 C334 1.370 . S
C335 C336 1.403 . S
C336 C335 1.403 . S
C336 C337 1.404 . S
C336 C339 1.539 . S
C337 C333 1.408 . S
C337 C336 1.404 . S
C337 H349 0.930 . S
C338 C334 1.524 . S
C338 H350 0.956 . S
C338 H351 0.961 . S
C338 H352 0.961 . S
C339 C336 1.539 . S
C339 H353 0.958 . S
C339 H354 0.961 . S
C339 H355 0.960 . S
H340 C324 0.931 . S
H341 C329 0.929 . S
H342 C330 0.960 . S
H343 C330 0.962 . S
H344 C330 0.960 . S
H345 C331 0.961 . S
H346 C331 0.961 . S
H347 C331 0.961 . S
H348 C332 0.931 . S
H349 C337 0.930 . S
H350 C338 0.956 . S
H351 C338 0.961 . S
H352 C338 0.961 . S
H353 C339 0.958 . S
H354 C339 0.961 . S
H355 C339 0.960 . S
C356 C357 1.391 . S
C356 C358 1.394 . S
C356 H372 0.931 . S
C357 C356 1.391 . S
C357 C361 1.376 . S
C358 C356 1.394 . S
C358 C359 1.369 . S
C358 C362 1.531 . S
C359 C358 1.369 . S
C359 C360 1.410 . S
C359 C367 1.503 . S
C360 C359 1.410 . S
C360 C361 1.392 . S
C360 C363 1.511 . S
C361 C357 1.376 . S
C361 C360 1.392 . S
C361 H373 0.929 . S
C362 C358 1.531 . S
C362 H374 0.960 . S
C362 H375 0.962 . S
C362 H376 0.960 . S
C363 C360 1.511 . S
C363 H377 0.961 . S
C363 H378 0.961 . S
C363 H379 0.961 . S
C364 C365 1.370 . S
C364 C366 1.363 . S
C364 H380 0.931 . S
C365 C364 1.370 . S
C365 C369 1.408 . S
C366 C364 1.363 . S
C366 C367 1.370 . S
C366 C370 1.524 . S
C367 C359 1.503 . S
C367 C366 1.370 . S
C367 C368 1.403 . S
C368 C367 1.403 . S
C368 C369 1.404 . S
C368 C371 1.539 . S
C369 C365 1.408 . S
C369 C368 1.404 . S
C369 H381 0.930 . S
C370 C366 1.524 . S
C370 H382 0.956 . S
C370 H383 0.961 . S
C370 H384 0.961 . S
C371 C368 1.539 . S
C371 H385 0.958 . S
C371 H386 0.961 . S
C371 H387 0.960 . S
H372 C356 0.931 . S
H373 C361 0.929 . S
H374 C362 0.960 . S
H375 C362 0.962 . S
H376 C362 0.960 . S
H377 C363 0.961 . S
H378 C363 0.961 . S
H379 C363 0.961 . S
H380 C364 0.931 . S
H381 C369 0.930 . S
H382 C370 0.956 . S
H383 C370 0.961 . S
H384 C370 0.961 . S
H385 C371 0.958 . S
H386 C371 0.961 . S
H387 C371 0.960 . S
C388 C389 1.391 . S
C388 C390 1.394 . S
C388 H404 0.931 . S
C389 C388 1.391 . S
C389 C393 1.376 . S
C390 C388 1.394 . S
C390 C391 1.369 . S
C390 C394 1.531 . S
C391 C390 1.369 . S
C391 C392 1.410 . S
C391 C399 1.503 . S
C392 C391 1.410 . S
C392 C393 1.392 . S
C392 C395 1.511 . S
C393 C389 1.376 . S
C393 C392 1.392 . S
C393 H405 0.929 . S
C394 C390 1.531 . S
C394 H406 0.960 . S
C394 H407 0.962 . S
C394 H408 0.960 . S
C395 C392 1.511 . S
C395 H409 0.961 . S
C395 H410 0.961 . S
C395 H411 0.961 . S
C396 C397 1.370 . S
C396 C398 1.363 . S
C396 H412 0.931 . S
C397 C396 1.370 . S
C397 C401 1.408 . S
C398 C396 1.363 . S
C398 C399 1.370 . S
C398 C402 1.524 . S
C399 C391 1.503 . S
C399 C398 1.370 . S
C399 C400 1.403 . S
C400 C399 1.403 . S
C400 C401 1.404 . S
C400 C403 1.539 . S
C401 C397 1.408 . S
C401 C400 1.404 . S
C401 H413 0.930 . S
C402 C398 1.524 . S
C402 H414 0.956 . S
C402 H415 0.961 . S
C402 H416 0.961 . S
C403 C400 1.539 . S
C403 H417 0.958 . S
C403 H418 0.961 . S
C403 H419 0.960 . S
H404 C388 0.931 . S
H405 C393 0.929 . S
H406 C394 0.960 . S
H407 C394 0.962 . S
H408 C394 0.960 . S
H409 C395 0.961 . S
H410 C395 0.961 . S
H411 C395 0.961 . S
H412 C396 0.931 . S
H413 C401 0.930 . S
H414 C402 0.956 . S
H415 C402 0.961 . S
H416 C402 0.961 . S
H417 C403 0.958 . S
H418 C403 0.961 . S
H419 C403 0.960 . S
C420 C421 1.391 . S
C420 C422 1.394 . S
C420 H436 0.931 . S
C421 C420 1.391 . S
C421 C425 1.376 . S
C422 C420 1.394 . S
C422 C423 1.369 . S
C422 C426 1.531 . S
C423 C422 1.369 . S
C423 C424 1.410 . S
C423 C431 1.503 . S
C424 C423 1.410 . S
C424 C425 1.392 . S
C424 C427 1.511 . S
C425 C421 1.376 . S
C425 C424 1.392 . S
C425 H437 0.929 . S
C426 C422 1.531 . S
C426 H438 0.960 . S
C426 H439 0.962 . S
C426 H440 0.960 . S
C427 C424 1.511 . S
C427 H441 0.961 . S
C427 H442 0.961 . S
C427 H443 0.961 . S
C428 C429 1.370 . S
C428 C430 1.363 . S
C428 H444 0.931 . S
C429 C428 1.370 . S
C429 C433 1.408 . S
C430 C428 1.363 . S
C430 C431 1.370 . S
C430 C434 1.524 . S
C431 C423 1.503 . S
C431 C430 1.370 . S
C431 C432 1.403 . S
C432 C431 1.403 . S
C432 C433 1.404 . S
C432 C435 1.539 . S
C433 C429 1.408 . S
C433 C432 1.404 . S
C433 H445 0.930 . S
C434 C430 1.524 . S
C434 H446 0.956 . S
C434 H447 0.961 . S
C434 H448 0.961 . S
C435 C432 1.539 . S
C435 H449 0.958 . S
C435 H450 0.961 . S
C435 H451 0.960 . S
H436 C420 0.931 . S
H437 C425 0.929 . S
H438 C426 0.960 . S
H439 C426 0.962 . S
H440 C426 0.960 . S
H441 C427 0.961 . S
H442 C427 0.961 . S
H443 C427 0.961 . S
H444 C428 0.931 . S
H445 C433 0.930 . S
H446 C434 0.956 . S
H447 C434 0.961 . S
H448 C434 0.961 . S
H449 C435 0.958 . S
H450 C435 0.961 . S
H451 C435 0.960 . S
C452 C453 1.391 . S
C452 C454 1.394 . S
C452 H468 0.931 . S
C453 C452 1.391 . S
C453 C457 1.376 . S
C454 C452 1.394 . S
C454 C455 1.369 . S
C454 C458 1.531 . S
C455 C454 1.369 . S
C455 C456 1.410 . S
C455 C463 1.503 . S
C456 C455 1.410 . S
C456 C457 1.392 . S
C456 C459 1.511 . S
C457 C453 1.376 . S
C457 C456 1.392 . S
C457 H469 0.929 . S
C458 C454 1.531 . S
C458 H470 0.960 . S
C458 H471 0.962 . S
C458 H472 0.960 . S
C459 C456 1.511 . S
C459 H473 0.961 . S
C459 H474 0.961 1_565 S
C459 H475 0.961 . S
C460 C461 1.370 . S
C460 C462 1.363 . S
C460 H476 0.931 . S
C461 C460 1.370 . S
C461 C465 1.408 . S
C462 C460 1.363 . S
C462 C463 1.370 1_545 S
C462 C466 1.524 . S
C463 C455 1.503 . S
C463 C462 1.370 1_565 S
C463 C464 1.403 1_565 S
C464 C463 1.403 1_545 S
C464 C465 1.404 . S
C464 C467 1.539 1_545 S
C465 C461 1.408 . S
C465 C464 1.404 . S
C465 H477 0.930 . S
C466 C462 1.524 . S
C466 H478 0.956 . S
C466 H479 0.961 . S
C466 H480 0.961 . S
C467 C464 1.539 1_565 S
C467 H481 0.958 . S
C467 H482 0.961 . S
C467 H483 0.960 . S
H468 C452 0.931 . S
H469 C457 0.929 . S
H470 C458 0.960 . S
H471 C458 0.962 . S
H472 C458 0.960 . S
H473 C459 0.961 . S
H474 C459 0.961 1_545 S
H475 C459 0.961 . S
H476 C460 0.931 . S
H477 C465 0.930 . S
H478 C466 0.956 . S
H479 C466 0.961 . S
H480 C466 0.961 . S
H481 C467 0.958 . S
H482 C467 0.961 . S
H483 C467 0.960 . S
C484 C485 1.391 . S
C484 C486 1.394 . S
C484 H500 0.931 . S
C485 C484 1.391 . S
C485 C489 1.376 . S
C486 C484 1.394 . S
C486 C487 1.369 . S
C486 C490 1.531 . S
C487 C486 1.369 . S
C487 C488 1.410 . S
C487 C495 1.503 . S
C488 C487 1.410 . S
C488 C489 1.392 . S
C488 C491 1.511 . S
C489 C485 1.376 . S
C489 C488 1.392 . S
C489 H501 0.929 . S
C490 C486 1.531 . S
C490 H502 0.960 . S
C490 H503 0.962 . S
C490 H504 0.960 . S
C491 C488 1.511 . S
C491 H505 0.961 . S
C491 H506 0.961 . S
C491 H507 0.961 . S
C492 C493 1.370 . S
C492 C494 1.363 . S
C492 H508 0.931 . S
C493 C492 1.370 . S
C493 C497 1.408 . S
C494 C492 1.363 . S
C494 C495 1.370 . S
C494 C498 1.524 . S
C495 C487 1.503 . S
C495 C494 1.370 . S
C495 C496 1.403 . S
C496 C495 1.403 . S
C496 C497 1.404 . S
C496 C499 1.539 . S
C497 C493 1.408 . S
C497 C496 1.404 . S
C497 H509 0.930 . S
C498 C494 1.524 . S
C498 H510 0.956 . S
C498 H511 0.961 . S
C498 H512 0.961 . S
C499 C496 1.539 . S
C499 H513 0.958 . S
C499 H514 0.961 . S
C499 H515 0.960 . S
H500 C484 0.931 . S
H501 C489 0.929 . S
H502 C490 0.960 . S
H503 C490 0.962 . S
H504 C490 0.960 . S
H505 C491 0.961 . S
H506 C491 0.961 . S
H507 C491 0.961 . S
H508 C492 0.931 . S
H509 C497 0.930 . S
H510 C498 0.956 . S
H511 C498 0.961 . S
H512 C498 0.961 . S
H513 C499 0.958 . S
H514 C499 0.961 . S
H515 C499 0.960 . S
C516 C517 1.391 . S
C516 C518 1.394 . S
C516 H532 0.931 . S
C517 C516 1.391 . S
C517 C521 1.376 . S
C518 C516 1.394 . S
C518 C519 1.369 . S
C518 C522 1.531 . S
C519 C518 1.369 . S
C519 C520 1.410 . S
C519 C527 1.503 . S
C520 C519 1.410 . S
C520 C521 1.392 . S
C520 C523 1.511 . S
C521 C517 1.376 . S
C521 C520 1.392 . S
C521 H533 0.929 . S
C522 C518 1.531 . S
C522 H534 0.960 . S
C522 H535 0.962 . S
C522 H536 0.960 . S
C523 C520 1.511 . S
C523 H537 0.961 . S
C523 H538 0.961 . S
C523 H539 0.961 . S
C524 C525 1.370 . S
C524 C526 1.363 . S
C524 H540 0.931 . S
C525 C524 1.370 . S
C525 C529 1.408 . S
C526 C524 1.363 . S
C526 C527 1.370 . S
C526 C530 1.524 . S
C527 C519 1.503 . S
C527 C526 1.370 . S
C527 C528 1.403 . S
C528 C527 1.403 . S
C528 C529 1.404 . S
C528 C531 1.539 . S
C529 C525 1.408 . S
C529 C528 1.404 . S
C529 H541 0.930 . S
C530 C526 1.524 . S
C530 H542 0.956 . S
C530 H543 0.961 . S
C530 H544 0.961 . S
C531 C528 1.539 . S
C531 H545 0.958 . S
C531 H546 0.961 . S
C531 H547 0.960 . S
H532 C516 0.931 . S
H533 C521 0.929 . S
H534 C522 0.960 . S
H535 C522 0.962 . S
H536 C522 0.960 . S
H537 C523 0.961 . S
H538 C523 0.961 . S
H539 C523 0.961 . S
H540 C524 0.931 . S
H541 C529 0.930 . S
H542 C530 0.956 . S
H543 C530 0.961 . S
H544 C530 0.961 . S
H545 C531 0.958 . S
H546 C531 0.961 . S
H547 C531 0.960 . S
C548 C549 1.391 . S
C548 C550 1.394 . S
C548 H564 0.931 . S
C549 C548 1.391 . S
C549 C553 1.376 . S
C550 C548 1.394 . S
C550 C551 1.369 . S
C550 C554 1.531 . S
C551 C550 1.369 . S
C551 C552 1.410 . S
C551 C559 1.503 . S
C552 C551 1.410 . S
C552 C553 1.392 . S
C552 C555 1.511 . S
C553 C549 1.376 . S
C553 C552 1.392 . S
C553 H565 0.929 . S
C554 C550 1.531 . S
C554 H566 0.960 . S
C554 H567 0.962 . S
C554 H568 0.960 . S
C555 C552 1.511 . S
C555 H569 0.961 . S
C555 H570 0.961 . S
C555 H571 0.961 . S
C556 C557 1.370 . S
C556 C558 1.363 . S
C556 H572 0.931 . S
C557 C556 1.370 . S
C557 C561 1.408 . S
C558 C556 1.363 . S
C558 C559 1.370 . S
C558 C562 1.524 . S
C559 C551 1.503 . S
C559 C558 1.370 . S
C559 C560 1.403 . S
C560 C559 1.403 . S
C560 C561 1.404 . S
C560 C563 1.539 . S
C561 C557 1.408 . S
C561 C560 1.404 . S
C561 H573 0.930 . S
C562 C558 1.524 . S
C562 H574 0.956 . S
C562 H575 0.961 . S
C562 H576 0.961 . S
C563 C560 1.539 . S
C563 H577 0.958 . S
C563 H578 0.961 . S
C563 H579 0.960 . S
H564 C548 0.931 . S
H565 C553 0.929 . S
H566 C554 0.960 . S
H567 C554 0.962 . S
H568 C554 0.960 . S
H569 C555 0.961 . S
H570 C555 0.961 . S
H571 C555 0.961 . S
H572 C556 0.931 . S
H573 C561 0.930 . S
H574 C562 0.956 . S
H575 C562 0.961 . S
H576 C562 0.961 . S
H577 C563 0.958 . S
H578 C563 0.961 . S
H579 C563 0.960 . S
C580 C581 1.391 . S
C580 C582 1.394 . S
C580 H596 0.931 . S
C581 C580 1.391 . S
C581 C585 1.376 . S
C582 C580 1.394 . S
C582 C583 1.369 . S
C582 C586 1.531 . S
C583 C582 1.369 . S
C583 C584 1.410 . S
C583 C591 1.503 . S
C584 C583 1.410 . S
C584 C585 1.392 . S
C584 C587 1.511 . S
C585 C581 1.376 . S
C585 C584 1.392 . S
C585 H597 0.929 . S
C586 C582 1.531 . S
C586 H598 0.960 . S
C586 H599 0.962 . S
C586 H600 0.960 . S
C587 C584 1.511 . S
C587 H601 0.961 . S
C587 H602 0.961 . S
C587 H603 0.961 . S
C588 C589 1.370 . S
C588 C590 1.363 . S
C588 H604 0.931 . S
C589 C588 1.370 . S
C589 C593 1.408 . S
C590 C588 1.363 . S
C590 C591 1.370 . S
C590 C594 1.524 . S
C591 C583 1.503 . S
C591 C590 1.370 . S
C591 C592 1.403 . S
C592 C591 1.403 . S
C592 C593 1.404 . S
C592 C595 1.539 . S
C593 C589 1.408 . S
C593 C592 1.404 . S
C593 H605 0.930 . S
C594 C590 1.524 . S
C594 H606 0.956 . S
C594 H607 0.961 . S
C594 H608 0.961 . S
C595 C592 1.539 . S
C595 H609 0.958 . S
C595 H610 0.961 . S
C595 H611 0.960 . S
H596 C580 0.931 . S
H597 C585 0.929 . S
H598 C586 0.960 . S
H599 C586 0.962 . S
H600 C586 0.960 . S
H601 C587 0.961 . S
H602 C587 0.961 . S
H603 C587 0.961 . S
H604 C588 0.931 . S
H605 C593 0.930 . S
H606 C594 0.956 . S
H607 C594 0.961 . S
H608 C594 0.961 . S
H609 C595 0.958 . S
H610 C595 0.961 . S
H611 C595 0.960 . S
C612 C613 1.391 . S
C612 C614 1.394 . S
C612 H628 0.931 . S
C613 C612 1.391 . S
C613 C617 1.376 . S
C614 C612 1.394 . S
C614 C615 1.369 . S
C614 C618 1.531 . S
C615 C614 1.369 . S
C615 C616 1.410 . S
C615 C623 1.503 . S
C616 C615 1.410 . S
C616 C617 1.392 . S
C616 C619 1.511 . S
C617 C613 1.376 . S
C617 C616 1.392 . S
C617 H629 0.929 . S
C618 C614 1.531 . S
C618 H630 0.960 . S
C618 H631 0.962 . S
C618 H632 0.960 . S
C619 C616 1.511 . S
C619 H633 0.961 . S
C619 H634 0.961 . S
C619 H635 0.961 . S
C620 C621 1.370 . S
C620 C622 1.363 . S
C620 H636 0.931 . S
C621 C620 1.370 . S
C621 C625 1.408 . S
C622 C620 1.363 . S
C622 C623 1.370 . S
C622 C626 1.524 . S
C623 C615 1.503 . S
C623 C622 1.370 . S
C623 C624 1.403 . S
C624 C623 1.403 . S
C624 C625 1.404 . S
C624 C627 1.539 . S
C625 C621 1.408 . S
C625 C624 1.404 . S
C625 H637 0.930 1_655 S
C626 C622 1.524 . S
C626 H638 0.956 . S
C626 H639 0.961 . S
C626 H640 0.961 . S
C627 C624 1.539 . S
C627 H641 0.958 . S
C627 H642 0.959 . S
C627 H643 0.960 . S
H628 C612 0.931 . S
H629 C617 0.929 . S
H630 C618 0.960 . S
H631 C618 0.962 . S
H632 C618 0.960 . S
H633 C619 0.961 . S
H634 C619 0.961 . S
H635 C619 0.961 . S
H636 C620 0.931 . S
H637 C625 0.930 1_455 S
H638 C626 0.956 . S
H639 C626 0.961 . S
H640 C626 0.961 . S
H641 C627 0.958 . S
H642 C627 0.959 . S
H643 C627 0.960 . S
C644 C645 1.391 . S
C644 C646 1.394 . S
C644 H660 0.931 . S
C645 C644 1.391 . S
C645 C649 1.376 . S
C646 C644 1.394 . S
C646 C647 1.369 . S
C646 C650 1.531 . S
C647 C646 1.369 . S
C647 C648 1.410 . S
C647 C655 1.503 . S
C648 C647 1.410 . S
C648 C649 1.392 . S
C648 C651 1.511 . S
C649 C645 1.376 . S
C649 C648 1.392 . S
C649 H661 0.929 . S
C650 C646 1.531 . S
C650 H662 0.960 . S
C650 H663 0.962 . S
C650 H664 0.960 . S
C651 C648 1.511 . S
C651 H665 0.961 . S
C651 H666 0.961 . S
C651 H667 0.961 . S
C652 C653 1.370 . S
C652 C654 1.363 . S
C652 H668 0.931 . S
C653 C652 1.370 . S
C653 C657 1.408 . S
C654 C652 1.363 . S
C654 C655 1.370 . S
C654 C658 1.524 . S
C655 C647 1.503 . S
C655 C654 1.370 . S
C655 C656 1.403 . S
C656 C655 1.403 . S
C656 C657 1.404 . S
C656 C659 1.539 . S
C657 C653 1.408 . S
C657 C656 1.404 . S
C657 H669 0.930 . S
C658 C654 1.524 . S
C658 H670 0.956 . S
C658 H671 0.961 . S
C658 H672 0.961 . S
C659 C656 1.539 . S
C659 H673 0.958 . S
C659 H674 0.961 . S
C659 H675 0.960 . S
H660 C644 0.931 . S
H661 C649 0.929 . S
H662 C650 0.960 . S
H663 C650 0.962 . S
H664 C650 0.960 . S
H665 C651 0.961 . S
H666 C651 0.961 . S
H667 C651 0.961 . S
H668 C652 0.931 . S
H669 C657 0.930 . S
H670 C658 0.956 . S
H671 C658 0.961 . S
H672 C658 0.961 . S
H673 C659 0.958 . S
H674 C659 0.961 . S
H675 C659 0.960 . S
C676 C677 1.391 . S
C676 C678 1.394 . S
C676 H692 0.931 . S
C677 C676 1.391 . S
C677 C681 1.376 . S
C678 C676 1.394 . S
C678 C679 1.369 . S
C678 C682 1.531 . S
C679 C678 1.369 . S
C679 C680 1.410 . S
C679 C687 1.503 . S
C680 C679 1.410 . S
C680 C681 1.392 . S
C680 C683 1.511 . S
C681 C677 1.376 . S
C681 C680 1.392 . S
C681 H693 0.929 . S
C682 C678 1.531 . S
C682 H694 0.960 . S
C682 H695 0.962 . S
C682 H696 0.960 . S
C683 C680 1.511 . S
C683 H697 0.961 . S
C683 H698 0.961 . S
C683 H699 0.961 . S
C684 C685 1.370 . S
C684 C686 1.363 . S
C684 H700 0.931 . S
C685 C684 1.370 . S
C685 C689 1.408 . S
C686 C684 1.363 . S
C686 C687 1.370 . S
C686 C690 1.524 . S
C687 C679 1.503 . S
C687 C686 1.370 . S
C687 C688 1.403 . S
C688 C687 1.403 . S
C688 C689 1.404 . S
C688 C691 1.539 . S
C689 C685 1.408 . S
C689 C688 1.404 . S
C689 H701 0.930 . S
C690 C686 1.524 . S
C690 H702 0.956 . S
C690 H703 0.961 . S
C690 H704 0.961 . S
C691 C688 1.539 . S
C691 H705 0.958 . S
C691 H706 0.961 . S
C691 H707 0.960 . S
H692 C676 0.931 . S
H693 C681 0.929 . S
H694 C682 0.960 . S
H695 C682 0.962 . S
H696 C682 0.960 . S
H697 C683 0.961 . S
H698 C683 0.961 . S
H699 C683 0.961 . S
H700 C684 0.931 . S
H701 C689 0.930 . S
H702 C690 0.956 . S
H703 C690 0.961 . S
H704 C690 0.961 . S
H705 C691 0.958 . S
H706 C691 0.961 . S
H707 C691 0.960 . S
C708 C709 1.391 . S
C708 C710 1.394 . S
C708 H724 0.931 . S
C709 C708 1.391 . S
C709 C713 1.376 . S
C710 C708 1.394 . S
C710 C711 1.369 . S
C710 C714 1.531 . S
C711 C710 1.369 . S
C711 C712 1.410 . S
C711 C719 1.503 . S
C712 C711 1.410 . S
C712 C713 1.392 . S
C712 C715 1.511 . S
C713 C709 1.376 . S
C713 C712 1.392 . S
C713 H725 0.929 . S
C714 C710 1.531 . S
C714 H726 0.960 . S
C714 H727 0.962 . S
C714 H728 0.960 . S
C715 C712 1.511 . S
C715 H729 0.961 . S
C715 H730 0.961 . S
C715 H731 0.961 . S
C716 C717 1.370 . S
C716 C718 1.363 . S
C716 H732 0.931 . S
C717 C716 1.370 . S
C717 C721 1.408 . S
C718 C716 1.363 . S
C718 C719 1.370 . S
C718 C722 1.524 . S
C719 C711 1.503 . S
C719 C718 1.370 . S
C719 C720 1.403 . S
C720 C719 1.403 . S
C720 C721 1.404 . S
C720 C723 1.539 . S
C721 C717 1.408 . S
C721 C720 1.404 . S
C721 H733 0.930 . S
C722 C718 1.524 . S
C722 H734 0.956 . S
C722 H735 0.961 . S
C722 H736 0.961 . S
C723 C720 1.539 . S
C723 H737 0.958 . S
C723 H738 0.961 . S
C723 H739 0.960 . S
H724 C708 0.931 . S
H725 C713 0.929 . S
H726 C714 0.960 . S
H727 C714 0.962 . S
H728 C714 0.960 . S
H729 C715 0.961 . S
H730 C715 0.961 . S
H731 C715 0.961 . S
H732 C716 0.931 . S
H733 C721 0.930 . S
H734 C722 0.956 . S
H735 C722 0.961 . S
H736 C722 0.961 . S
H737 C723 0.958 . S
H738 C723 0.961 . S
H739 C723 0.960 . S
C740 C741 1.391 . S
C740 C742 1.394 . S
C740 H756 0.931 . S
C741 C740 1.391 . S
C741 C745 1.376 . S
C742 C740 1.394 . S
C742 C743 1.369 . S
C742 C746 1.531 . S
C743 C742 1.369 . S
C743 C744 1.410 . S
C743 C751 1.503 . S
C744 C743 1.410 . S
C744 C745 1.392 . S
C744 C747 1.511 . S
C745 C741 1.376 . S
C745 C744 1.392 . S
C745 H757 0.929 . S
C746 C742 1.531 . S
C746 H758 0.960 . S
C746 H759 0.962 . S
C746 H760 0.960 . S
C747 C744 1.511 . S
C747 H761 0.961 . S
C747 H762 0.961 . S
C747 H763 0.961 . S
C748 C749 1.370 . S
C748 C750 1.363 . S
C748 H764 0.931 . S
C749 C748 1.370 . S
C749 C753 1.408 . S
C750 C748 1.363 . S
C750 C751 1.370 . S
C750 C754 1.524 . S
C751 C743 1.503 . S
C751 C750 1.370 . S
C751 C752 1.403 . S
C752 C751 1.403 . S
C752 C753 1.404 . S
C752 C755 1.539 . S
C753 C749 1.408 . S
C753 C752 1.404 . S
C753 H765 0.930 . S
C754 C750 1.524 . S
C754 H766 0.956 . S
C754 H767 0.961 . S
C754 H768 0.961 . S
C755 C752 1.539 . S
C755 H769 0.958 . S
C755 H770 0.961 . S
C755 H771 0.960 . S
H756 C740 0.931 . S
H757 C745 0.929 . S
H758 C746 0.960 . S
H759 C746 0.962 . S
H760 C746 0.960 . S
H761 C747 0.961 . S
H762 C747 0.961 . S
H763 C747 0.961 . S
H764 C748 0.931 . S
H765 C753 0.930 . S
H766 C754 0.956 . S
H767 C754 0.961 . S
H768 C754 0.961 . S
H769 C755 0.958 . S
H770 C755 0.961 . S
H771 C755 0.960 . S
C772 C773 1.391 . S
C772 C774 1.394 . S
C772 H788 0.931 . S
C773 C772 1.391 . S
C773 C777 1.376 . S
C774 C772 1.394 . S
C774 C775 1.369 . S
C774 C778 1.531 . S
C775 C774 1.369 . S
C775 C776 1.410 . S
C775 C783 1.503 . S
C776 C775 1.410 . S
C776 C777 1.392 . S
C776 C779 1.511 . S
C777 C773 1.376 . S
C777 C776 1.392 . S
C777 H789 0.929 . S
C778 C774 1.531 . S
C778 H790 0.960 . S
C778 H791 0.962 . S
C778 H792 0.960 . S
C779 C776 1.511 . S
C779 H793 0.961 . S
C779 H794 0.961 . S
C779 H795 0.961 . S
C780 C781 1.370 . S
C780 C782 1.363 . S
C780 H796 0.931 . S
C781 C780 1.370 . S
C781 C785 1.408 . S
C782 C780 1.363 . S
C782 C783 1.370 . S
C782 C786 1.524 . S
C783 C775 1.503 . S
C783 C782 1.370 . S
C783 C784 1.403 . S
C784 C783 1.403 . S
C784 C785 1.404 . S
C784 C787 1.539 . S
C785 C781 1.408 . S
C785 C784 1.404 . S
C785 H797 0.930 . S
C786 C782 1.524 . S
C786 H798 0.956 . S
C786 H799 0.961 . S
C786 H800 0.961 . S
C787 C784 1.539 . S
C787 H801 0.958 . S
C787 H802 0.961 . S
C787 H803 0.960 . S
H788 C772 0.931 . S
H789 C777 0.929 . S
H790 C778 0.960 . S
H791 C778 0.962 . S
H792 C778 0.960 . S
H793 C779 0.961 . S
H794 C779 0.961 . S
H795 C779 0.961 . S
H796 C780 0.931 . S
H797 C785 0.930 . S
H798 C786 0.956 . S
H799 C786 0.961 . S
H800 C786 0.961 . S
H801 C787 0.958 . S
H802 C787 0.961 . S
H803 C787 0.960 . S
C804 C805 1.391 . S
C804 C806 1.394 . S
C804 H820 0.931 . S
C805 C804 1.391 . S
C805 C809 1.376 . S
C806 C804 1.394 . S
C806 C807 1.369 . S
C806 C810 1.531 . S
C807 C806 1.369 . S
C807 C808 1.410 . S
C807 C815 1.503 . S
C808 C807 1.410 . S
C808 C809 1.392 . S
C808 C811 1.511 . S
C809 C805 1.376 . S
C809 C808 1.392 . S
C809 H821 0.929 . S
C810 C806 1.531 . S
C810 H822 0.960 . S
C810 H823 0.962 . S
C810 H824 0.960 . S
C811 C808 1.511 . S
C811 H825 0.961 . S
C811 H826 0.961 . S
C811 H827 0.961 . S
C812 C813 1.370 . S
C812 C814 1.363 . S
C812 H828 0.931 . S
C813 C812 1.370 . S
C813 C817 1.408 . S
C814 C812 1.363 . S
C814 C815 1.370 . S
C814 C818 1.524 . S
C815 C807 1.503 . S
C815 C814 1.370 . S
C815 C816 1.403 . S
C816 C815 1.403 . S
C816 C817 1.404 . S
C816 C819 1.539 . S
C817 C813 1.408 . S
C817 C816 1.404 . S
C817 H829 0.930 . S
C818 C814 1.524 . S
C818 H830 0.956 . S
C818 H831 0.961 . S
C818 H832 0.961 . S
C819 C816 1.539 . S
C819 H833 0.958 . S
C819 H834 0.961 . S
C819 H835 0.960 . S
H820 C804 0.931 . S
H821 C809 0.929 . S
H822 C810 0.960 . S
H823 C810 0.962 . S
H824 C810 0.960 . S
H825 C811 0.961 . S
H826 C811 0.961 . S
H827 C811 0.961 . S
H828 C812 0.931 . S
H829 C817 0.930 . S
H830 C818 0.956 . S
H831 C818 0.961 . S
H832 C818 0.961 . S
H833 C819 0.958 . S
H834 C819 0.961 . S
H835 C819 0.960 . S
C836 C837 1.391 . S
C836 C838 1.394 . S
C836 H852 0.931 . S
C837 C836 1.391 . S
C837 C841 1.376 . S
C838 C836 1.394 . S
C838 C839 1.369 . S
C838 C842 1.531 . S
C839 C838 1.369 . S
C839 C840 1.410 . S
C839 C847 1.503 . S
C840 C839 1.410 . S
C840 C841 1.392 . S
C840 C843 1.511 . S
C841 C837 1.376 . S
C841 C840 1.392 . S
C841 H853 0.929 . S
C842 C838 1.531 . S
C842 H854 0.960 . S
C842 H855 0.962 . S
C842 H856 0.960 . S
C843 C840 1.511 . S
C843 H857 0.961 . S
C843 H858 0.961 . S
C843 H859 0.961 . S
C844 C845 1.370 . S
C844 C846 1.363 . S
C844 H860 0.931 . S
C845 C844 1.370 . S
C845 C849 1.408 . S
C846 C844 1.363 . S
C846 C847 1.370 . S
C846 C850 1.524 . S
C847 C839 1.503 . S
C847 C846 1.370 . S
C847 C848 1.403 . S
C848 C847 1.403 . S
C848 C849 1.404 . S
C848 C851 1.539 . S
C849 C845 1.408 . S
C849 C848 1.404 . S
C849 H861 0.930 . S
C850 C846 1.524 . S
C850 H862 0.956 . S
C850 H863 0.961 . S
C850 H864 0.961 . S
C851 C848 1.539 . S
C851 H865 0.958 . S
C851 H866 0.961 . S
C851 H867 0.960 . S
H852 C836 0.931 . S
H853 C841 0.929 . S
H854 C842 0.960 . S
H855 C842 0.962 . S
H856 C842 0.960 . S
H857 C843 0.961 . S
H858 C843 0.961 . S
H859 C843 0.961 . S
H860 C844 0.931 . S
H861 C849 0.930 . S
H862 C850 0.956 . S
H863 C850 0.961 . S
H864 C850 0.961 . S
H865 C851 0.958 . S
H866 C851 0.961 . S
H867 C851 0.960 . S
C868 C869 1.391 . S
C868 C870 1.394 . S
C868 H884 0.931 . S
C869 C868 1.391 . S
C869 C873 1.376 . S
C870 C868 1.394 . S
C870 C871 1.369 . S
C870 C874 1.531 . S
C871 C870 1.369 . S
C871 C872 1.410 . S
C871 C879 1.503 . S
C872 C871 1.410 . S
C872 C873 1.392 . S
C872 C875 1.511 . S
C873 C869 1.376 . S
C873 C872 1.392 . S
C873 H885 0.929 . S
C874 C870 1.531 . S
C874 H886 0.960 . S
C874 H887 0.962 . S
C874 H888 0.960 . S
C875 C872 1.511 . S
C875 H889 0.961 . S
C875 H890 0.961 . S
C875 H891 0.961 . S
C876 C877 1.370 . S
C876 C878 1.363 . S
C876 H892 0.931 . S
C877 C876 1.370 . S
C877 C881 1.408 . S
C878 C876 1.363 . S
C878 C879 1.370 . S
C878 C882 1.524 . S
C879 C871 1.503 . S
C879 C878 1.370 . S
C879 C880 1.403 . S
C880 C879 1.403 . S
C880 C881 1.404 . S
C880 C883 1.539 . S
C881 C877 1.408 . S
C881 C880 1.404 . S
C881 H893 0.930 . S
C882 C878 1.524 . S
C882 H894 0.956 . S
C882 H895 0.961 . S
C882 H896 0.961 . S
C883 C880 1.539 . S
C883 H897 0.958 . S
C883 H898 0.961 . S
C883 H899 0.960 . S
H884 C868 0.931 . S
H885 C873 0.929 . S
H886 C874 0.960 . S
H887 C874 0.962 . S
H888 C874 0.960 . S
H889 C875 0.961 . S
H890 C875 0.961 . S
H891 C875 0.961 . S
H892 C876 0.931 . S
H893 C881 0.930 . S
H894 C882 0.956 . S
H895 C882 0.961 . S
H896 C882 0.961 . S
H897 C883 0.958 . S
H898 C883 0.961 . S
H899 C883 0.960 . S
C900 C901 1.391 . S
C900 C902 1.394 . S
C900 H916 0.931 . S
C901 C900 1.391 . S
C901 C905 1.376 . S
C902 C900 1.394 . S
C902 C903 1.369 . S
C902 C906 1.531 . S
C903 C902 1.369 . S
C903 C904 1.410 . S
C903 C911 1.503 . S
C904 C903 1.410 . S
C904 C905 1.392 . S
C904 C907 1.511 . S
C905 C901 1.376 . S
C905 C904 1.392 . S
C905 H917 0.929 . S
C906 C902 1.531 . S
C906 H918 0.960 . S
C906 H919 0.962 . S
C906 H920 0.960 . S
C907 C904 1.511 . S
C907 H921 0.961 . S
C907 H922 0.961 1_565 S
C907 H923 0.961 . S
C908 C909 1.370 . S
C908 C910 1.363 . S
C908 H924 0.931 . S
C909 C908 1.370 . S
C909 C913 1.408 . S
C910 C908 1.363 . S
C910 C911 1.370 1_545 S
C910 C914 1.524 . S
C911 C903 1.503 . S
C911 C910 1.370 1_565 S
C911 C912 1.403 1_565 S
C912 C911 1.403 1_545 S
C912 C913 1.404 . S
C912 C915 1.539 1_545 S
C913 C909 1.408 . S
C913 C912 1.404 . S
C913 H925 0.930 . S
C914 C910 1.524 . S
C914 H926 0.956 1_545 S
C914 H927 0.976 . S
C914 H928 0.961 . S
C915 C912 1.539 1_565 S
C915 H929 0.958 . S
C915 H930 0.961 . S
C915 H931 0.960 . S
H916 C900 0.931 . S
H917 C905 0.929 . S
H918 C906 0.960 . S
H919 C906 0.962 . S
H920 C906 0.960 . S
H921 C907 0.961 . S
H922 C907 0.961 1_545 S
H923 C907 0.961 . S
H924 C908 0.931 . S
H925 C913 0.930 . S
H926 C914 0.956 1_565 S
H927 C914 0.976 . S
H928 C914 0.961 . S
H929 C915 0.958 . S
H930 C915 0.961 . S
H931 C915 0.960 . S
C932 C933 1.391 . S
C932 C934 1.394 . S
C932 H948 0.931 . S
C933 C932 1.391 . S
C933 C937 1.376 . S
C934 C932 1.394 . S
C934 C935 1.369 . S
C934 C938 1.531 . S
C935 C934 1.369 . S
C935 C936 1.410 . S
C935 C943 1.503 . S
C936 C935 1.410 . S
C936 C937 1.392 . S
C936 C939 1.511 . S
C937 C933 1.376 . S
C937 C936 1.392 . S
C937 H949 0.929 . S
C938 C934 1.531 . S
C938 H950 0.960 . S
C938 H951 0.962 . S
C938 H952 0.960 . S
C939 C936 1.511 . S
C939 H953 0.961 . S
C939 H954 0.961 . S
C939 H955 0.961 . S
C940 C941 1.370 . S
C940 C942 1.363 . S
C940 H956 0.931 . S
C941 C940 1.370 . S
C941 C945 1.408 . S
C942 C940 1.363 . S
C942 C943 1.370 . S
C942 C946 1.524 . S
C943 C935 1.503 . S
C943 C942 1.370 . S
C943 C944 1.403 . S
C944 C943 1.403 . S
C944 C945 1.404 . S
C944 C947 1.539 . S
C945 C941 1.408 . S
C945 C944 1.404 . S
C945 H957 0.930 . S
C946 C942 1.524 . S
C946 H958 0.956 . S
C946 H959 0.961 . S
C946 H960 0.961 . S
C947 C944 1.539 . S
C947 H961 0.958 . S
C947 H962 0.961 . S
C947 H963 0.960 . S
H948 C932 0.931 . S
H949 C937 0.929 . S
H950 C938 0.960 . S
H951 C938 0.962 . S
H952 C938 0.960 . S
H953 C939 0.961 . S
H954 C939 0.961 . S
H955 C939 0.961 . S
H956 C940 0.931 . S
H957 C945 0.930 . S
H958 C946 0.956 . S
H959 C946 0.961 . S
H960 C946 0.961 . S
H961 C947 0.958 . S
H962 C947 0.961 . S
H963 C947 0.960 . S
C205 C95 1.490 . S
C197 C5 1.317 . S
C237 C114 1.482 . S
C229 C16 1.244 . S
C269 C104 1.647 1_655 S
C261 C30 1.692 . S
C301 C120 1.636 . S
C293 C40 1.603 . S
C333 C131 1.366 . S
C325 C8 1.451 . S
C365 C156 1.388 . S
C357 C18 1.399 . S
C389 C29 1.691 . S
C397 C174 1.660 . S
C429 C194 1.544 . S
C421 C38 1.249 . S
C461 C140 1.330 . S
C453 C19 1.404 . S
C485 C27 1.390 . S
C493 C150 1.527 . S
C525 C168 1.578 . S
C517 C41 1.588 . S
C557 C185 1.465 . S
C549 C7 1.503 . S
C581 C52 1.684 . S
C589 C113 1.644 . S
C621 C96 1.573 1_655 S
C613 C62 1.577 . S
C645 C74 1.474 . S
C653 C122 1.415 . S
C677 C82 1.192 . S
C685 C102 1.384 . S
C717 C176 1.767 . S
C709 C51 1.717 . S
C749 C186 1.544 . S
C741 C60 1.362 . S
C781 C132 1.411 . S
C773 C71 1.194 . S
C805 C84 1.424 . S
C813 C149 1.427 . S
C845 C167 1.622 . S
C837 C63 1.715 . S
C877 C192 1.401 . S
C869 C73 1.454 . S
C909 C138 1.425 . S
C901 C85 1.485 . S
C933 C49 1.407 . S
C941 C158 1.573 . S
