# Generated by pormake.
# Topology anh, (6,3)-cn, num edge types: 1
# Building blocks:
#     Node 0, Type 0, BuildingBlock: VOLQOD_clean_sbu_1, # of connection points: 6
#     Node 1, Type 0, BuildingBlock: VOLQOD_clean_sbu_1, # of connection points: 6
#     Node 2, Type 0, BuildingBlock: VOLQOD_clean_sbu_1, # of connection points: 6
#     Node 3, Type 1, BuildingBlock: QEWDON_clean_linker_0, # of connection points: 3
#     Node 4, Type 1, BuildingBlock: QEWDON_clean_linker_0, # of connection points: 3
#     Node 5, Type 1, BuildingBlock: QEWDON_clean_linker_0, # of connection points: 3
#     Node 6, Type 1, BuildingBlock: QEWDON_clean_linker_0, # of connection points: 3
#     Node 7, Type 1, BuildingBlock: QEWDON_clean_linker_0, # of connection points: 3
#     Node 8, Type 1, BuildingBlock: QEWDON_clean_linker_0, # of connection points: 3
#     Edge 9, Type (0, 1), BuildingBlock: FUNLAD_clean_linker_0, # of connection points: 2
#     Edge 10, Type (0, 1), BuildingBlock: FUNLAD_clean_linker_0, # of connection points: 2
#     Edge 11, Type (0, 1), BuildingBlock: FUNLAD_clean_linker_0, # of connection points: 2
#     Edge 12, Type (0, 1), BuildingBlock: FUNLAD_clean_linker_0, # of connection points: 2
#     Edge 13, Type (0, 1), BuildingBlock: FUNLAD_clean_linker_0, # of connection points: 2
#     Edge 14, Type (0, 1), BuildingBlock: FUNLAD_clean_linker_0, # of connection points: 2
#     Edge 15, Type (0, 1), BuildingBlock: FUNLAD_clean_linker_0, # of connection points: 2
#     Edge 16, Type (0, 1), BuildingBlock: FUNLAD_clean_linker_0, # of connection points: 2
#     Edge 17, Type (0, 1), BuildingBlock: FUNLAD_clean_linker_0, # of connection points: 2
#     Edge 18, Type (0, 1), BuildingBlock: FUNLAD_clean_linker_0, # of connection points: 2
#     Edge 19, Type (0, 1), BuildingBlock: FUNLAD_clean_linker_0, # of connection points: 2
#     Edge 20, Type (0, 1), BuildingBlock: FUNLAD_clean_linker_0, # of connection points: 2
#     Edge 21, Type (0, 1), BuildingBlock: FUNLAD_clean_linker_0, # of connection points: 2
#     Edge 22, Type (0, 1), BuildingBlock: FUNLAD_clean_linker_0, # of connection points: 2
#     Edge 23, Type (0, 1), BuildingBlock: FUNLAD_clean_linker_0, # of connection points: 2
#     Edge 24, Type (0, 1), BuildingBlock: FUNLAD_clean_linker_0, # of connection points: 2
#     Edge 25, Type (0, 1), BuildingBlock: FUNLAD_clean_linker_0, # of connection points: 2
#     Edge 26, Type (0, 1), BuildingBlock: FUNLAD_clean_linker_0, # of connection points: 2
# Relax obj value: 0.172
# Max RMSD: 0.224
# Mean RMSD: 0.179
data_MOF--net-anh--node1-VOLQOD_clean_sbu_1--node2-QEWDON_clean_linker_0--edge1-FUNLAD_clean_linker_0
_symmetry_space_group_name_H-M    P1
_symmetry_Int_Tables_number       1
_symmetry_cell_setting            triclinic
loop_
_symmetry_equiv_pos_as_xyz
'x, y, z'
_cell_length_a     35.706794
_cell_length_b     35.565118
_cell_length_c     64.787815
_cell_angle_alpha  94.22402
_cell_angle_beta   94.06798
_cell_angle_gamma 120.37447
loop_
_atom_site_label
_atom_site_type_symbol
_atom_site_fract_x
_atom_site_fract_y
_atom_site_fract_z
_atom_type_partial_charge
O0 O 0.0557 0.56125 0.19819 0.0
Zn1 Zn 0.06039 0.57542 0.16862 0.0
O2 O 0.06062 0.52914 0.15028 0.0
Zn3 Zn 0.01075 0.50261 0.12845 0.0
Zn4 Zn 0.05899 0.48426 0.16691 0.0
Zn5 Zn 0.113 0.55491 0.13658 0.0
O6 O 0.02819 0.50904 0.0992 0.0
O7 O 0.10031 0.55143 0.1056 0.0
O8 O 0.00958 0.58251 0.15933 0.0
O9 O 0.9758 0.532 0.13164 0.0
O10 O 0.96989 0.43935 0.13169 0.0
O11 O 0.00158 0.42681 0.15893 0.0
O12 O 0.11074 0.47594 0.16361 0.0
O13 O 0.11637 0.63373 0.16944 0.0
O14 O 0.14536 0.52401 0.14168 0.0
O15 O 0.15365 0.61825 0.14787 0.0
C16 C 0.0576 0.53185 0.20753 0.0
C17 C 0.06538 0.53121 0.09281 0.0
C18 C 0.96958 0.41403 0.14469 0.0
C19 C 0.97863 0.56265 0.14434 0.0
C20 C 0.14203 0.49444 0.15261 0.0
C21 C 0.15067 0.64536 0.16059 0.0
O22 O 0.06072 0.50147 0.19759 0.0
O23 O 0.56769 0.07429 0.45449 0.0
Zn24 Zn 0.54824 0.06747 0.48304 0.0
O25 O 0.58796 0.05987 0.50218 0.0
Zn26 Zn 0.61745 0.1091 0.52419 0.0
Zn27 Zn 0.63096 0.05514 0.48657 0.0
Zn28 Zn 0.5547 0.00789 0.51556 0.0
O29 O 0.61131 0.09078 0.55313 0.0
O30 O 0.55683 0.02154 0.54644 0.0
O31 O 0.54369 0.11989 0.49356 0.0
O32 O 0.59082 0.14667 0.52252 0.0
O33 O 0.68037 0.14734 0.5202 0.0
O34 O 0.69017 0.11115 0.49372 0.0
O35 O 0.63459 0.00135 0.49262 0.0
O36 O 0.48809 0.01319 0.47905 0.0
O37 O 0.58148 0.97091 0.51274 0.0
O38 O 0.49213 0.97191 0.50219 0.0
C39 C 0.59238 0.06403 0.44541 0.0
C40 C 0.5832 0.05517 0.55937 0.0
C41 C 0.70455 0.14476 0.5073 0.0
C42 C 0.56274 0.14794 0.50981 0.0
C43 C 0.6121 0.97126 0.50369 0.0
C44 C 0.47063 0.97813 0.48768 0.0
O45 O 0.61576 0.05207 0.4555 0.0
O46 O 0.48641 0.5076 0.79682 0.0
Zn47 Zn 0.47268 0.49142 0.82567 0.0
O48 O 0.51885 0.53618 0.84686 0.0
Zn49 Zn 0.49497 0.56279 0.865 0.0
Zn50 Zn 0.56555 0.58147 0.8332 0.0
Zn51 Zn 0.54231 0.50892 0.86425 0.0
O52 O 0.50775 0.56017 0.89557 0.0
O53 O 0.53146 0.51335 0.89411 0.0
O54 O 0.41397 0.48505 0.82939 0.0
O55 O 0.42985 0.53096 0.85825 0.0
O56 O 0.51699 0.62538 0.85989 0.0
O57 O 0.5662 0.63856 0.83803 0.0
O58 O 0.62513 0.59118 0.84375 0.0
O59 O 0.46845 0.4326 0.82672 0.0
O60 O 0.60713 0.54004 0.86503 0.0
O61 O 0.51827 0.44576 0.85317 0.0
C62 C 0.52028 0.53647 0.78969 0.0
C63 C 0.52004 0.53684 0.90453 0.0
C64 C 0.54482 0.65093 0.8487 0.0
C65 C 0.4023 0.50224 0.84361 0.0
C66 C 0.6358 0.5716 0.85656 0.0
C67 C 0.48913 0.41979 0.83828 0.0
O68 O 0.55406 0.56533 0.80187 0.0
H69 H 0.57634 0.12549 0.24769 0.0
C70 C 0.54679 0.09429 0.24224 0.0
C71 C 0.52847 0.06225 0.25585 0.0
C72 C 0.52658 0.08647 0.2217 0.0
H73 H 0.47568 0.99724 0.25897 0.0
C74 C 0.49003 0.022 0.24855 0.0
C75 C 0.46951 0.01368 0.22806 0.0
C76 C 0.48804 0.04619 0.21479 0.0
C77 C 0.54477 0.12034 0.20734 0.0
H78 H 0.47224 0.04036 0.19902 0.0
C79 C 0.58927 0.14125 0.20443 0.0
C80 C 0.60568 0.17116 0.18967 0.0
C81 C 0.51696 0.13045 0.19576 0.0
H82 H 0.48267 0.11512 0.19786 0.0
C83 C 0.53301 0.16028 0.1813 0.0
H84 H 0.61081 0.13369 0.21345 0.0
C85 C 0.57688 0.18025 0.17812 0.0
H86 H 0.58798 0.20227 0.16632 0.0
H87 H 0.51124 0.16758 0.17233 0.0
H88 H 0.51739 0.56459 0.59029 0.0
C89 C 0.51774 0.53508 0.58512 0.0
C90 C 0.52799 0.51336 0.59978 0.0
C91 C 0.50743 0.51847 0.56382 0.0
H92 H 0.53629 0.4584 0.60414 0.0
C93 C 0.52827 0.47513 0.59288 0.0
C94 C 0.51778 0.45801 0.57167 0.0
C95 C 0.50733 0.47991 0.55727 0.0
C96 C 0.49631 0.54079 0.5482 0.0
H97 H 0.49894 0.46687 0.54088 0.0
C98 C 0.52423 0.58585 0.54713 0.0
C99 C 0.51502 0.60636 0.53139 0.0
C100 C 0.4586 0.51648 0.53364 0.0
H101 H 0.43651 0.48177 0.53422 0.0
C102 C 0.44897 0.53675 0.51822 0.0
H103 H 0.55381 0.6045 0.55808 0.0
C104 C 0.47697 0.58133 0.51702 0.0
H105 H 0.46852 0.59634 0.505 0.0
H106 H 0.41972 0.51782 0.50712 0.0
H107 H 0.10353 0.60957 0.90048 0.0
C108 C 0.07466 0.61138 0.89619 0.0
C109 C 0.04155 0.5974 0.90935 0.0
C110 C 0.07056 0.62772 0.87752 0.0
H111 H 0.97916 0.59047 0.91395 0.0
C112 C 0.00456 0.60057 0.90379 0.0
C113 C -3e-05 0.61668 0.88525 0.0
C114 C 0.03284 0.62974 0.87215 0.0
C115 C 0.10514 0.64267 0.86339 0.0
H116 H 0.02904 0.64178 0.85773 0.0
C117 C 0.12594 0.61881 0.85904 0.0
C118 C 0.15646 0.63138 0.84448 0.0
C119 C 0.11623 0.68019 0.85346 0.0
H120 H 0.10161 0.69988 0.8568 0.0
C121 C 0.14616 0.69272 0.83902 0.0
H122 H 0.11804 0.5903 0.86686 0.0
C123 C 0.1658 0.66834 0.83436 0.0
H124 H 0.18804 0.6784 0.82266 0.0
H125 H 0.15396 0.7213 0.83127 0.0
H126 H -0.00564 0.54698 0.40421 0.0
C127 C 0.02526 0.57589 0.41071 0.0
C128 C 0.05788 0.59771 0.39778 0.0
C129 C 0.03218 0.59184 0.43195 0.0
H130 H 0.12181 0.65358 0.39625 0.0
C131 C 0.09746 0.63569 0.40638 0.0
C132 C 0.10506 0.65177 0.42766 0.0
C133 C 0.07225 0.62923 0.44031 0.0
C134 C -0.00264 0.57096 0.44557 0.0
H135 H 0.07786 0.6405 0.45685 0.0
C136 C 0.9762 0.52556 0.44692 0.0
C137 C 0.94524 0.50675 0.46103 0.0
C138 C 0.98654 0.59726 0.45802 0.0
H139 H 0.00216 0.63222 0.45713 0.0
C140 C 0.95567 0.57883 0.47181 0.0
H141 H 0.98438 0.50523 0.43725 0.0
C142 C 0.93541 0.53407 0.47346 0.0
H143 H 0.91261 0.52109 0.48482 0.0
H144 H 0.94782 0.59944 0.48146 0.0
H145 H 0.48643 0.99044 0.7404 0.0
C146 C 0.49139 0.01921 0.75003 0.0
C147 C 0.513 0.06074 0.74299 0.0
C148 C 0.47387 0.01414 0.76903 0.0
H149 H 0.53438 0.12941 0.75043 0.0
C150 C 0.51773 0.09721 0.7556 0.0
C151 C 0.49966 0.0923 0.77449 0.0
C152 C 0.47775 0.05054 0.7811 0.0
C153 C 0.44819 0.97017 0.77553 0.0
H154 H 0.46339 0.0462 0.79558 0.0
C155 C 0.46896 0.95151 0.78633 0.0
C156 C 0.44396 0.91033 0.79338 0.0
C157 C 0.40243 0.94748 0.77154 0.0
H158 H 0.38604 0.96163 0.76329 0.0
C159 C 0.37752 0.90643 0.77822 0.0
H160 H 0.50434 0.96954 0.78967 0.0
C161 C 0.39804 0.88794 0.7891 0.0
H162 H 0.37795 0.8559 0.79401 0.0
H163 H 0.34219 0.88893 0.77502 0.0
H164 H 0.55169 0.61263 0.1099 0.0
C165 C 0.57891 0.60742 0.11276 0.0
C166 C 0.59268 0.59219 0.096 0.0
C167 C 0.60005 0.61568 0.13318 0.0
H168 H 0.63957 0.5752 0.08677 0.0
C169 C 0.62809 0.58578 0.09976 0.0
C170 C 0.64975 0.59424 0.11997 0.0
C171 C 0.63552 0.60915 0.1366 0.0
C172 C 0.58468 0.63016 0.15108 0.0
H173 H 0.65133 0.61451 0.15234 0.0
C174 C 0.53976 0.60976 0.15286 0.0
C175 C 0.5249 0.62308 0.16982 0.0
C176 C 0.61479 0.66393 0.16665 0.0
H177 H 0.64959 0.68041 0.16562 0.0
C178 C 0.60017 0.67721 0.18356 0.0
H179 H 0.51629 0.58366 0.14095 0.0
C180 C 0.55548 0.65707 0.18514 0.0
H181 H 0.54479 0.66793 0.19834 0.0
H182 H 0.62357 0.70336 0.19543 0.0
C183 C 0.20697 0.49888 0.13873 0.0
C184 C 0.17864 0.48615 0.15415 0.0
C185 C 0.24761 0.50251 0.14224 0.0
C186 C 0.26074 0.49343 0.16123 0.0
C187 C 0.23077 0.4761 0.17574 0.0
C188 C 0.18984 0.47258 0.17225 0.0
C189 C 0.30713 0.50707 0.16674 0.0
C190 C 0.33855 0.54818 0.1645 0.0
C191 C 0.38611 0.56553 0.16856 0.0
C192 C 0.40395 0.53843 0.16595 0.0
C193 C 0.44927 0.55703 0.16701 0.0
C194 C 0.47739 0.60288 0.17086 0.0
H195 H 0.40133 0.63275 0.17492 0.0
C196 C 0.45955 0.62968 0.17431 0.0
C197 C 0.41435 0.61118 0.173 0.0
H198 H 0.48044 0.66511 0.1771 0.0
H199 H 0.19891 0.50871 0.12444 0.0
H200 H 0.26986 0.51488 0.13059 0.0
H201 H 0.24024 0.4685 0.19039 0.0
H202 H 0.16855 0.4625 0.18437 0.0
H203 H 0.31516 0.48472 0.17363 0.0
H204 H 0.32881 0.57091 0.15953 0.0
H205 H 0.38305 0.50319 0.16213 0.0
H206 H 0.46232 0.53567 0.16438 0.0
C207 C 0.76694 0.1901 0.48744 0.0
C208 C 0.74704 0.18486 0.50584 0.0
C209 C 0.80012 0.23165 0.48382 0.0
C210 C 0.81419 0.26862 0.49867 0.0
C211 C 0.797 0.26248 0.51778 0.0
C212 C 0.76391 0.22111 0.52137 0.0
C213 C 0.84131 0.31436 0.49382 0.0
C214 C 0.8656 0.32618 0.47792 0.0
C215 C 0.88535 0.37147 0.47229 0.0
C216 C 0.92814 0.39351 0.46704 0.0
C217 C 0.9475 0.43718 0.46288 0.0
C218 C 0.92396 0.45919 0.46348 0.0
H219 H 0.8276 0.37599 0.47527 0.0
C220 C 0.88022 0.43594 0.46755 0.0
C221 C 0.86125 0.39276 0.47202 0.0
H222 H 0.86058 0.45123 0.46748 0.0
H223 H 0.75469 0.16287 0.47513 0.0
H224 H 0.81218 0.23494 0.46882 0.0
H225 H 0.80739 0.29028 0.52955 0.0
H226 H 0.74965 0.2182 0.53581 0.0
H227 H 0.83966 0.33972 0.50349 0.0
H228 H 0.87151 0.303 0.46905 0.0
H229 H 0.9471 0.37748 0.46688 0.0
H230 H 0.9813 0.45405 0.45989 0.0
C231 C 0.52174 0.70597 0.85603 0.0
C232 C 0.54823 0.69359 0.84601 0.0
C233 C 0.51909 0.74207 0.85083 0.0
C234 C 0.54325 0.767 0.83555 0.0
C235 C 0.57151 0.756 0.82639 0.0
C236 C 0.57413 0.71986 0.83159 0.0
C237 C 0.53622 0.80109 0.82704 0.0
C238 C 0.51633 0.81993 0.83659 0.0
C239 C 0.50134 0.84679 0.82617 0.0
C240 C 0.46584 0.84851 0.83314 0.0
C241 C 0.44788 0.86988 0.82276 0.0
C242 C 0.4653 0.89051 0.80524 0.0
H243 H 0.54836 0.86988 0.80371 0.0
C244 C 0.5022 0.89074 0.79883 0.0
C245 C 0.5201 0.86913 0.80918 0.0
H246 H 0.51648 0.90654 0.78544 0.0
H247 H 0.50127 0.68649 0.86719 0.0
H248 H 0.49617 0.74846 0.85805 0.0
H249 H 0.59047 0.77447 0.81457 0.0
H250 H 0.59498 0.7114 0.82357 0.0
H251 H 0.54542 0.80853 0.81159 0.0
H252 H 0.50725 0.81272 0.85206 0.0
H253 H 0.45102 0.83208 0.84631 0.0
H254 H 0.42002 0.86992 0.82836 0.0
C255 C 0.90875 0.55084 0.1261 0.0
C256 C 0.94412 0.57398 0.14202 0.0
C257 C 0.87477 0.55951 0.12451 0.0
C258 C 0.87526 0.5914 0.13889 0.0
C259 C 0.91133 0.61573 0.1543 0.0
C260 C 0.94536 0.60696 0.15596 0.0
C261 C 0.83888 0.60027 0.13795 0.0
C262 C 0.7972 0.56864 0.13115 0.0
C263 C 0.75982 0.57605 0.12917 0.0
C264 C 0.72142 0.54456 0.11638 0.0
C265 C 0.6856 0.55025 0.11356 0.0
C266 C 0.68728 0.58753 0.1236 0.0
H267 H 0.78951 0.6374 0.15012 0.0
C268 C 0.72525 0.6186 0.13682 0.0
C269 C 0.76116 0.61293 0.13964 0.0
H270 H 0.72748 0.6477 0.14475 0.0
H271 H 0.90697 0.52561 0.11492 0.0
H272 H 0.84838 0.54134 0.11189 0.0
H273 H 0.91274 0.64092 0.16537 0.0
H274 H 0.97229 0.62564 0.1683 0.0
H275 H 0.84697 0.63342 0.14333 0.0
H276 H 0.7899 0.53549 0.12628 0.0
H277 H 0.71924 0.51559 0.10831 0.0
H278 H 0.65649 0.52534 0.10357 0.0
C279 C 0.40181 0.90819 0.49147 0.0
C280 C 0.42549 0.94258 0.4797 0.0
C281 C 0.36053 0.87286 0.48321 0.0
C282 C 0.34233 0.87105 0.46292 0.0
C283 C 0.3658 0.90554 0.45124 0.0
C284 C 0.40674 0.94123 0.45962 0.0
C285 C 0.30039 0.83231 0.45308 0.0
C286 C 0.26726 0.80838 0.46395 0.0
C287 C 0.22602 0.76889 0.45405 0.0
C288 C 0.18648 0.75941 0.46128 0.0
C289 C 0.14724 0.72192 0.4525 0.0
C290 C 0.14682 0.69236 0.43664 0.0
H291 H 0.25603 0.74554 0.43261 0.0
C292 C 0.1867 0.70176 0.42959 0.0
C293 C 0.22583 0.73971 0.43812 0.0
H294 H 0.18791 0.67939 0.41776 0.0
H295 H 0.41544 0.90822 0.50695 0.0
H296 H 0.3437 0.8463 0.49245 0.0
H297 H 0.35257 0.90471 0.43552 0.0
H298 H 0.42429 0.96702 0.45008 0.0
H299 H 0.2962 0.82419 0.43625 0.0
H300 H 0.26953 0.81902 0.48038 0.0
H301 H 0.18588 0.78138 0.47359 0.0
H302 H 0.1172 0.71637 0.45809 0.0
C303 C 0.50768 0.36203 0.84456 0.0
C304 C 0.48151 0.37486 0.83349 0.0
C305 C 0.50354 0.32133 0.83883 0.0
C306 C 0.47313 0.29252 0.82186 0.0
C307 C 0.4455 0.30436 0.81147 0.0
C308 C 0.44979 0.3452 0.81712 0.0
C309 C 0.46989 0.25035 0.81439 0.0
C310 C 0.50453 0.2447 0.81602 0.0
C311 C 0.50286 0.2045 0.80651 0.0
C312 C 0.54112 0.20805 0.80007 0.0
C313 C 0.54035 0.17148 0.79003 0.0
C314 C 0.50139 0.1304 0.78653 0.0
H315 H 0.43434 0.15879 0.80894 0.0
C316 C 0.46347 0.1264 0.79373 0.0
C317 C 0.46415 0.16306 0.80363 0.0
H318 H 0.43293 0.09515 0.79121 0.0
H319 H 0.53214 0.3838 0.85741 0.0
H320 H 0.52434 0.31269 0.84768 0.0
H321 H 0.42143 0.28252 0.7985 0.0
H322 H 0.42886 0.35383 0.80835 0.0
H323 H 0.43913 0.22482 0.80564 0.0
H324 H 0.53636 0.27192 0.82291 0.0
H325 H 0.57149 0.23948 0.80233 0.0
H326 H 0.57019 0.17539 0.78488 0.0
C327 C 0.60842 0.9132 0.52395 0.0
C328 C 0.6201 0.93486 0.50615 0.0
C329 C 0.60902 0.87467 0.52542 0.0
C330 C 0.62143 0.8567 0.50909 0.0
C331 C 0.63497 0.87938 0.49164 0.0
C332 C 0.63478 0.91847 0.49026 0.0
C333 C 0.61445 0.81171 0.5087 0.0
C334 C 0.61338 0.79307 0.52624 0.0
C335 C 0.59347 0.74495 0.52696 0.0
C336 C 0.58599 0.72957 0.54651 0.0
C337 C 0.56177 0.68461 0.54803 0.0
C338 C 0.5445 0.65385 0.52999 0.0
H339 H 0.58383 0.72381 0.49356 0.0
C340 C 0.55397 0.66898 0.51049 0.0
C341 C 0.57822 0.71397 0.50895 0.0
H342 H 0.54203 0.64599 0.49633 0.0
H343 H 0.59709 0.92514 0.5365 0.0
H344 H 0.59704 0.85783 0.53886 0.0
H345 H 0.64423 0.86602 0.47873 0.0
H346 H 0.64371 0.93441 0.47631 0.0
H347 H 0.60654 0.79291 0.49347 0.0
H348 H 0.62397 0.81363 0.54119 0.0
H349 H 0.59733 0.75247 0.56069 0.0
H350 H 0.555 0.67407 0.56329 0.0
C351 C 0.71443 0.61119 0.84967 0.0
C352 C 0.68226 0.58534 0.86202 0.0
C353 C 0.75783 0.62193 0.85463 0.0
C354 C 0.76971 0.60718 0.87212 0.0
C355 C 0.73782 0.58276 0.8848 0.0
C356 C 0.69459 0.57165 0.87974 0.0
C357 C 0.81468 0.61606 0.87775 0.0
C358 C 0.84237 0.62119 0.86368 0.0
C359 C 0.88443 0.62312 0.86927 0.0
C360 C 0.90109 0.60751 0.85406 0.0
C361 C 0.93882 0.60577 0.85916 0.0
C362 C 0.96082 0.61992 0.87958 0.0
H363 H 0.89666 0.65279 0.90145 0.0
C364 C 0.94511 0.63708 0.89461 0.0
C365 C 0.90747 0.63892 0.8895 0.0
H366 H 0.96206 0.64929 0.91033 0.0
H367 H 0.70596 0.62248 0.83601 0.0
H368 H 0.78187 0.64185 0.84482 0.0
H369 H 0.74615 0.57133 0.89846 0.0
H370 H 0.67077 0.55215 0.88976 0.0
H371 H 0.82332 0.61362 0.8938 0.0
H372 H 0.83209 0.61934 0.84726 0.0
H373 H 0.88418 0.59543 0.83832 0.0
H374 H 0.95015 0.59231 0.84725 0.0
C375 C 0.18579 0.72241 0.17875 0.0
C376 C 0.18856 0.69072 0.16573 0.0
C377 C 0.2223 0.7646 0.18431 0.0
C378 C 0.26259 0.77583 0.17714 0.0
C379 C 0.26488 0.74445 0.16369 0.0
C380 C 0.2284 0.70243 0.15807 0.0
C381 C 0.30295 0.81964 0.18309 0.0
C382 C 0.30889 0.84801 0.19975 0.0
C383 C 0.35032 0.89069 0.20636 0.0
C384 C 0.35709 0.9119 0.2266 0.0
C385 C 0.39561 0.95171 0.23365 0.0
C386 C 0.42842 0.97135 0.22059 0.0
H387 H 0.37874 0.89672 0.17719 0.0
C388 C 0.42147 0.95047 0.20023 0.0
C389 C 0.38281 0.91086 0.19312 0.0
H390 H 0.44612 0.96456 0.18978 0.0
H391 H 0.15544 0.71463 0.18473 0.0
H392 H 0.21845 0.78808 0.19409 0.0
H393 H 0.29527 0.75222 0.15774 0.0
H394 H 0.23174 0.67894 0.14794 0.0
H395 H 0.32964 0.82722 0.17395 0.0
H396 H 0.28338 0.83886 0.20981 0.0
H397 H 0.33253 0.89754 0.23709 0.0
H398 H 0.39943 0.96733 0.24927 0.0
C399 C 0.56879 0.20977 0.53361 0.0
C400 C 0.55246 0.18293 0.51429 0.0
C401 C 0.56003 0.24329 0.53803 0.0
C402 C 0.53457 0.25079 0.52323 0.0
C403 C 0.5186 0.22439 0.50382 0.0
C404 C 0.52712 0.19048 0.49943 0.0
C405 C 0.52633 0.28739 0.52741 0.0
C406 C 0.5236 0.30159 0.54679 0.0
C407 C 0.51963 0.34066 0.5519 0.0
C408 C 0.50214 0.34407 0.57018 0.0
C409 C 0.50083 0.38176 0.57641 0.0
C410 C 0.51758 0.41721 0.56461 0.0
H411 H 0.55089 0.37502 0.52607 0.0
C412 C 0.53485 0.41369 0.5462 0.0
C413 C 0.5359 0.37584 0.53991 0.0
H414 H 0.54873 0.4407 0.53696 0.0
H415 H 0.58863 0.2051 0.5454 0.0
H416 H 0.57417 0.2639 0.55288 0.0
H417 H 0.49936 0.2299 0.49207 0.0
H418 H 0.51429 0.17057 0.48434 0.0
H419 H 0.52169 0.30229 0.51418 0.0
H420 H 0.5238 0.28355 0.55958 0.0
H421 H 0.48963 0.31755 0.57976 0.0
H422 H 0.48669 0.38311 0.59049 0.0
C423 C 0.33898 0.49581 0.86034 0.0
C424 C 0.35695 0.49288 0.84212 0.0
C425 C 0.30007 0.49635 0.85912 0.0
C426 C 0.27928 0.49528 0.83973 0.0
C427 C 0.29538 0.48897 0.82141 0.0
C428 C 0.33378 0.48734 0.8226 0.0
C429 C 0.24477 0.50672 0.83923 0.0
C430 C 0.24709 0.53777 0.82784 0.0
C431 C 0.22228 0.56014 0.83146 0.0
C432 C 0.24343 0.60555 0.83081 0.0
C433 C 0.22227 0.62853 0.83526 0.0
C434 C 0.17881 0.60642 0.83987 0.0
H435 H 0.1616 0.50245 0.83628 0.0
C436 C 0.15725 0.56054 0.84001 0.0
C437 C 0.17891 0.53767 0.83602 0.0
H438 H 0.12352 0.54212 0.843 0.0
H439 H 0.35612 0.4998 0.87557 0.0
H440 H 0.28808 0.501 0.87343 0.0
H441 H 0.27945 0.48743 0.80624 0.0
H442 H 0.34698 0.48504 0.80833 0.0
H443 H 0.22263 0.49595 0.85106 0.0
H444 H 0.27282 0.55201 0.81783 0.0
H445 H 0.27699 0.62359 0.82745 0.0
H446 H 0.24045 0.66384 0.83542 0.0
C447 C 0.92135 0.3499 0.16304 0.0
C448 C 0.92819 0.3721 0.14532 0.0
C449 C 0.87925 0.31693 0.16595 0.0
C450 C 0.84323 0.30533 0.15107 0.0
C451 C 0.85079 0.32499 0.13261 0.0
C452 C 0.89274 0.35788 0.12972 0.0
C453 C 0.79721 0.27802 0.15532 0.0
C454 C 0.7843 0.25159 0.17041 0.0
C455 C 0.73899 0.23132 0.17587 0.0
C456 C 0.7177 0.18855 0.18136 0.0
C457 C 0.67458 0.16901 0.18608 0.0
C458 C 0.65233 0.19231 0.18584 0.0
H459 H 0.73345 0.28873 0.17284 0.0
C460 C 0.67461 0.23587 0.18123 0.0
C461 C 0.71729 0.25505 0.17622 0.0
H462 H 0.65914 0.25536 0.18152 0.0
H463 H 0.94791 0.36002 0.17539 0.0
H464 H 0.87493 0.303 0.18049 0.0
H465 H 0.82374 0.31658 0.12083 0.0
H466 H 0.89682 0.37395 0.11578 0.0
H467 H 0.77272 0.28121 0.14593 0.0
H468 H 0.80676 0.24427 0.17881 0.0
H469 H 0.73401 0.16985 0.18145 0.0
H470 H 0.65843 0.13531 0.18941 0.0
C471 C 0.03038 0.51501 0.05563 0.0
C472 C 0.06821 0.53589 0.07029 0.0
C473 C 0.03297 0.52242 0.03471 0.0
C474 C 0.07357 0.55083 0.02797 0.0
C475 C 0.11135 0.57099 0.04256 0.0
C476 C 0.1088 0.56345 0.06341 0.0
C477 C 0.07749 0.56308 0.00641 0.0
C478 C 0.04826 0.53769 0.9897 0.0
C479 C 0.04924 0.55187 0.96855 0.0
C480 C 0.01065 0.52956 0.95446 0.0
C481 C 0.00863 0.54351 0.93504 0.0
C482 C 0.0453 0.58011 0.92913 0.0
H483 H 0.11761 0.60453 0.97218 0.0
C484 C 0.08464 0.6012 0.94274 0.0
C485 C 0.08669 0.58722 0.96222 0.0
H486 H 0.11352 0.62941 0.93862 0.0
H487 H -0.00145 0.49378 0.0604 0.0
H488 H 0.00286 0.50716 0.02415 0.0
H489 H 0.14298 0.59323 0.03787 0.0
H490 H 0.13866 0.58018 0.07423 0.0
H491 H 0.10524 0.59482 0.00459 0.0
H492 H 0.02093 0.50575 0.99172 0.0
H493 H 0.98146 0.50186 0.9587 0.0
H494 H 0.97806 0.52593 0.92473 0.0
C495 C 0.56921 0.08071 0.41155 0.0
C496 C 0.59336 0.0657 0.42263 0.0
C497 C 0.569 0.08137 0.39002 0.0
C498 C 0.59318 0.06725 0.379 0.0
C499 C 0.61732 0.05225 0.39005 0.0
C500 C 0.61765 0.05172 0.41164 0.0
C501 C 0.59124 0.06471 0.35588 0.0
C502 C 0.58153 0.08988 0.34471 0.0
C503 C 0.5735 0.08395 0.3215 0.0
C504 C 0.5729 0.11744 0.31151 0.0
C505 C 0.56027 0.11123 0.29002 0.0
C506 C 0.54764 0.07118 0.27804 0.0
H507 H 0.56153 0.01734 0.3163 0.0
C508 C 0.54987 0.03828 0.28785 0.0
C509 C 0.56246 0.04445 0.30933 0.0
H510 H 0.5407 0.00719 0.279 0.0
H511 H 0.5499 0.09149 0.41944 0.0
H512 H 0.54873 0.09173 0.38205 0.0
H513 H 0.63581 0.04069 0.38193 0.0
H514 H 0.63653 0.03983 0.41965 0.0
H515 H 0.59823 0.04137 0.34801 0.0
H516 H 0.57875 0.11597 0.35287 0.0
H517 H 0.58094 0.14809 0.32047 0.0
H518 H 0.55846 0.13706 0.28299 0.0
C519 C 0.55708 0.56753 0.75828 0.0
C520 C 0.51987 0.53702 0.76678 0.0
C521 C 0.55623 0.56837 0.73668 0.0
C522 C 0.51812 0.5386 0.7231 0.0
C523 C 0.4809 0.50854 0.73165 0.0
C524 C 0.48178 0.50756 0.75318 0.0
C525 C 0.51546 0.53806 0.70005 0.0
C526 C 0.55047 0.55255 0.68949 0.0
C527 C 0.54636 0.54697 0.66632 0.0
C528 C 0.57681 0.54051 0.65651 0.0
C529 C 0.57177 0.53119 0.63482 0.0
C530 C 0.53652 0.52887 0.62245 0.0
H531 H 0.48902 0.5531 0.66088 0.0
C532 C 0.5075 0.53794 0.63214 0.0
C533 C 0.51229 0.54685 0.65388 0.0
H534 H 0.48007 0.53641 0.62298 0.0
H535 H 0.58685 0.59097 0.76829 0.0
H536 H 0.58526 0.59287 0.73079 0.0
H537 H 0.45102 0.4854 0.7216 0.0
H538 H 0.45239 0.48377 0.75915 0.0
H539 H 0.48294 0.52188 0.69136 0.0
H540 H 0.5827 0.56487 0.69789 0.0
H541 H 0.60368 0.54103 0.66569 0.0
H542 H 0.59496 0.52489 0.62772 0.0
C543 C 0.60349 0.0911 0.59651 0.0
C544 C 0.58035 0.0529 0.58201 0.0
C545 C 0.59905 0.08909 0.61774 0.0
C546 C 0.57138 0.04875 0.62493 0.0
C547 C 0.54956 0.01043 0.61056 0.0
C548 C 0.55369 0.01246 0.58933 0.0
C549 C 0.56418 0.04546 0.64721 0.0
C550 C 0.56556 0.07808 0.65983 0.0
C551 C 0.55349 0.07346 0.68137 0.0
C552 C 0.53603 0.09809 0.68951 0.0
C553 C 0.52306 0.09398 0.70944 0.0
C554 C 0.52801 0.06568 0.72195 0.0
H555 H 0.57354 0.0269 0.68834 0.0
C556 C 0.54642 0.04166 0.71396 0.0
C557 C 0.55903 0.04547 0.69388 0.0
H558 H 0.55142 0.02015 0.72328 0.0
H559 H 0.6246 0.12273 0.59144 0.0
H560 H 0.61746 0.11913 0.62846 0.0
H561 H 0.52838 0.97888 0.61571 0.0
H562 H 0.53571 0.98231 0.57864 0.0
H563 H 0.5535 0.01387 0.65272 0.0
H564 H 0.57198 0.10805 0.65362 0.0
H565 H 0.53146 0.11993 0.68023 0.0
H566 H 0.50827 0.11239 0.71483 0.0
C567 C 0.51039 0.56349 0.9397 0.0
C568 C 0.52239 0.53781 0.92753 0.0
C569 C 0.5144 0.56558 0.96148 0.0
C570 C 0.53062 0.54196 0.97157 0.0
C571 C 0.54183 0.51577 0.95929 0.0
C572 C 0.53777 0.51366 0.9376 0.0
C573 C 0.53797 0.54426 0.99469 0.0
C574 C 0.52856 0.56726 0.00875 0.0
C575 C 0.5403 0.57087 0.03162 0.0
C576 C 0.54923 0.60875 0.0445 0.0
C577 C 0.5645 0.61503 0.06571 0.0
C578 C 0.57101 0.58342 0.07438 0.0
H579 H 0.53542 0.50733 0.0316 0.0
C580 C 0.55954 0.54438 0.06181 0.0
C581 C 0.54401 0.53795 0.04071 0.0
H582 H 0.56329 0.51903 0.06826 0.0
H583 H 0.49831 0.58244 0.93244 0.0
H584 H 0.50526 0.58622 0.97011 0.0
H585 H 0.55433 0.49711 0.96651 0.0
H586 H 0.54726 0.49343 0.92878 0.0
H587 H 0.55388 0.52717 0.00036 0.0
H588 H 0.51466 0.58642 0.00363 0.0
H589 H 0.54604 0.63433 0.03798 0.0
H590 H 0.57304 0.64541 0.07509 0.0
C591 C 0.0471 0.56285 0.2412 0.0
C592 C 0.05623 0.53322 0.23039 0.0
C593 C 0.04642 0.56474 0.26278 0.0
C594 C 0.05486 0.53697 0.2741 0.0
C595 C 0.06418 0.50752 0.26334 0.0
C596 C 0.06452 0.50537 0.24171 0.0
C597 C 0.05702 0.54 0.29722 0.0
C598 C 0.03462 0.55397 0.30815 0.0
C599 C 0.03967 0.561 0.33134 0.0
C600 C 0.0061 0.56121 0.34132 0.0
C601 C 0.01125 0.57149 0.36299 0.0
C602 C 0.05042 0.58239 0.37511 0.0
H603 H 0.1056 0.57218 0.3365 0.0
C604 C 0.0837 0.58135 0.36519 0.0
C605 C 0.07847 0.57085 0.34356 0.0
H606 H 0.1142 0.58946 0.37414 0.0
H607 H 0.04074 0.58491 0.23301 0.0
H608 H 0.04046 0.58885 0.27056 0.0
H609 H 0.07128 0.48612 0.27171 0.0
H610 H 0.07186 0.48228 0.23393 0.0
H611 H 0.07716 0.52955 0.30535 0.0
H612 H 0.0112 0.56021 0.29984 0.0
H613 H 0.97604 0.55416 0.33229 0.0
H614 H 0.98523 0.57253 0.37016 0.0
loop_
_geom_bond_atom_site_label_1
_geom_bond_atom_site_label_2
_geom_bond_distance
_geom_bond_site_symmetry_2
_ccdc_geom_bond_type
O0 Zn1 1.953 . S
O0 C16 1.225 . S
Zn1 O0 1.953 . S
Zn1 O2 1.949 . S
Zn1 O8 1.919 1_455 S
Zn1 O13 1.924 . S
O2 Zn1 1.949 . S
O2 Zn3 1.923 1_455 S
O2 Zn4 1.950 . S
O2 Zn5 1.945 . S
Zn3 O2 1.923 1_655 S
Zn3 O6 1.933 1_655 S
Zn3 O9 1.941 . S
Zn3 O10 1.965 . S
Zn4 O2 1.950 . S
Zn4 O11 1.938 . S
Zn4 O12 1.906 . S
Zn4 O22 1.953 . S
Zn5 O2 1.945 . S
Zn5 O7 1.932 . S
Zn5 O14 1.977 . S
Zn5 O15 1.910 . S
O6 Zn3 1.933 1_455 S
O6 C17 1.226 . S
O7 Zn5 1.932 . S
O7 C17 1.307 . S
O8 Zn1 1.919 1_655 S
O8 C19 1.253 . S
O9 Zn3 1.941 . S
O9 C19 1.283 . S
O10 Zn3 1.965 . S
O10 C18 1.303 . S
O11 Zn4 1.938 . S
O11 C18 1.247 1_455 S
O12 Zn4 1.906 . S
O12 C20 1.304 . S
O13 Zn1 1.924 . S
O13 C21 1.311 . S
O14 Zn5 1.977 . S
O14 C20 1.272 . S
O15 Zn5 1.910 . S
O15 C21 1.231 . S
C16 O0 1.225 . S
C16 O22 1.298 . S
C17 O6 1.226 . S
C17 O7 1.307 . S
C18 O10 1.303 . S
C18 O11 1.247 1_655 S
C19 O8 1.253 . S
C19 O9 1.283 . S
C20 O12 1.304 . S
C20 O14 1.272 . S
C21 O13 1.311 . S
C21 O15 1.231 . S
O22 Zn4 1.953 . S
O22 C16 1.298 . S
O23 Zn24 1.953 . S
O23 C39 1.225 . S
Zn24 O23 1.953 . S
Zn24 O25 1.949 . S
Zn24 O31 1.919 . S
Zn24 O36 1.924 . S
O25 Zn24 1.949 . S
O25 Zn26 1.923 . S
O25 Zn27 1.950 . S
O25 Zn28 1.945 . S
Zn26 O25 1.923 . S
Zn26 O29 1.933 . S
Zn26 O32 1.941 . S
Zn26 O33 1.965 . S
Zn27 O25 1.950 . S
Zn27 O34 1.938 . S
Zn27 O35 1.906 . S
Zn27 O45 1.953 . S
Zn28 O25 1.945 . S
Zn28 O30 1.932 . S
Zn28 O37 1.977 1_545 S
Zn28 O38 1.910 1_545 S
O29 Zn26 1.933 . S
O29 C40 1.226 . S
O30 Zn28 1.932 . S
O30 C40 1.307 . S
O31 Zn24 1.919 . S
O31 C42 1.253 . S
O32 Zn26 1.941 . S
O32 C42 1.283 . S
O33 Zn26 1.965 . S
O33 C41 1.303 . S
O34 Zn27 1.938 . S
O34 C41 1.247 . S
O35 Zn27 1.906 . S
O35 C43 1.304 1_545 S
O36 Zn24 1.924 . S
O36 C44 1.311 1_545 S
O37 Zn28 1.977 1_565 S
O37 C43 1.272 . S
O38 Zn28 1.910 1_565 S
O38 C44 1.231 . S
C39 O23 1.225 . S
C39 O45 1.298 . S
C40 O29 1.226 . S
C40 O30 1.307 . S
C41 O33 1.303 . S
C41 O34 1.247 . S
C42 O31 1.253 . S
C42 O32 1.283 . S
C43 O35 1.304 1_565 S
C43 O37 1.272 . S
C44 O36 1.311 1_565 S
C44 O38 1.231 . S
O45 Zn27 1.953 . S
O45 C39 1.298 . S
O46 Zn47 1.953 . S
O46 C62 1.225 . S
Zn47 O46 1.953 . S
Zn47 O48 1.949 . S
Zn47 O54 1.919 . S
Zn47 O59 1.924 . S
O48 Zn47 1.949 . S
O48 Zn49 1.923 . S
O48 Zn50 1.950 . S
O48 Zn51 1.945 . S
Zn49 O48 1.923 . S
Zn49 O52 1.933 . S
Zn49 O55 1.941 . S
Zn49 O56 1.965 . S
Zn50 O48 1.950 . S
Zn50 O57 1.938 . S
Zn50 O58 1.906 . S
Zn50 O68 1.953 . S
Zn51 O48 1.945 . S
Zn51 O53 1.932 . S
Zn51 O60 1.977 . S
Zn51 O61 1.910 . S
O52 Zn49 1.933 . S
O52 C63 1.226 . S
O53 Zn51 1.932 . S
O53 C63 1.307 . S
O54 Zn47 1.919 . S
O54 C65 1.253 . S
O55 Zn49 1.941 . S
O55 C65 1.283 . S
O56 Zn49 1.965 . S
O56 C64 1.303 . S
O57 Zn50 1.938 . S
O57 C64 1.247 . S
O58 Zn50 1.906 . S
O58 C66 1.304 . S
O59 Zn47 1.924 . S
O59 C67 1.311 . S
O60 Zn51 1.977 . S
O60 C66 1.272 . S
O61 Zn51 1.910 . S
O61 C67 1.231 . S
C62 O46 1.225 . S
C62 O68 1.298 . S
C63 O52 1.226 . S
C63 O53 1.307 . S
C64 O56 1.303 . S
C64 O57 1.247 . S
C65 O54 1.253 . S
C65 O55 1.283 . S
C66 O58 1.304 . S
C66 O60 1.272 . S
C67 O59 1.311 . S
C67 O61 1.231 . S
O68 Zn50 1.953 . S
O68 C62 1.298 . S
H69 C70 0.949 . S
C70 H69 0.949 . S
C70 C71 1.395 . S
C70 C72 1.391 . S
C71 C70 1.395 . S
C71 C74 1.390 . S
C72 C70 1.391 . S
C72 C76 1.387 . S
C72 C77 1.491 . S
H73 C74 0.950 . S
C74 C71 1.390 . S
C74 H73 0.950 . S
C74 C75 1.378 . S
C75 C74 1.378 . S
C75 C76 1.409 . S
C76 C72 1.387 . S
C76 C75 1.409 . S
C76 H78 0.951 . S
C77 C72 1.491 . S
C77 C79 1.382 . S
C77 C81 1.404 . S
H78 C76 0.951 . S
C79 C77 1.382 . S
C79 C80 1.390 . S
C79 H84 0.949 . S
C80 C79 1.390 . S
C80 C85 1.399 . S
C81 C77 1.404 . S
C81 H82 0.950 . S
C81 C83 1.375 . S
H82 C81 0.950 . S
C83 C81 1.375 . S
C83 C85 1.382 . S
C83 H87 0.950 . S
H84 C79 0.949 . S
C85 C80 1.399 . S
C85 C83 1.382 . S
C85 H86 0.952 . S
H86 C85 0.952 . S
H87 C83 0.950 . S
H88 C89 0.949 . S
C89 H88 0.949 . S
C89 C90 1.395 . S
C89 C91 1.391 . S
C90 C89 1.395 . S
C90 C93 1.390 . S
C91 C89 1.391 . S
C91 C95 1.387 . S
C91 C96 1.491 . S
H92 C93 0.950 . S
C93 C90 1.390 . S
C93 H92 0.950 . S
C93 C94 1.378 . S
C94 C93 1.378 . S
C94 C95 1.409 . S
C95 C91 1.387 . S
C95 C94 1.409 . S
C95 H97 0.951 . S
C96 C91 1.491 . S
C96 C98 1.382 . S
C96 C100 1.404 . S
H97 C95 0.951 . S
C98 C96 1.382 . S
C98 C99 1.390 . S
C98 H103 0.949 . S
C99 C98 1.390 . S
C99 C104 1.399 . S
C100 C96 1.404 . S
C100 H101 0.950 . S
C100 C102 1.375 . S
H101 C100 0.950 . S
C102 C100 1.375 . S
C102 C104 1.382 . S
C102 H106 0.950 . S
H103 C98 0.949 . S
C104 C99 1.399 . S
C104 C102 1.382 . S
C104 H105 0.952 . S
H105 C104 0.952 . S
H106 C102 0.950 . S
H107 C108 0.949 . S
C108 H107 0.949 . S
C108 C109 1.395 . S
C108 C110 1.391 . S
C109 C108 1.395 . S
C109 C112 1.390 . S
C110 C108 1.391 . S
C110 C114 1.387 . S
C110 C115 1.491 . S
H111 C112 0.939 1_655 S
C112 C109 1.390 . S
C112 H111 0.939 1_455 S
C112 C113 1.378 . S
C113 C112 1.378 . S
C113 C114 1.409 . S
C114 C110 1.387 . S
C114 C113 1.409 . S
C114 H116 0.951 . S
C115 C110 1.491 . S
C115 C117 1.382 . S
C115 C119 1.404 . S
H116 C114 0.951 . S
C117 C115 1.382 . S
C117 C118 1.390 . S
C117 H122 0.949 . S
C118 C117 1.390 . S
C118 C123 1.399 . S
C119 C115 1.404 . S
C119 H120 0.950 . S
C119 C121 1.375 . S
H120 C119 0.950 . S
C121 C119 1.375 . S
C121 C123 1.382 . S
C121 H125 0.950 . S
H122 C117 0.949 . S
C123 C118 1.399 . S
C123 C121 1.382 . S
C123 H124 0.952 . S
H124 C123 0.952 . S
H125 C121 0.950 . S
H126 C127 0.949 1_655 S
C127 H126 0.949 1_455 S
C127 C128 1.395 . S
C127 C129 1.391 . S
C128 C127 1.395 . S
C128 C131 1.390 . S
C129 C127 1.391 . S
C129 C133 1.387 . S
C129 C134 1.491 1_455 S
H130 C131 0.950 . S
C131 C128 1.390 . S
C131 H130 0.950 . S
C131 C132 1.378 . S
C132 C131 1.378 . S
C132 C133 1.409 . S
C133 C129 1.387 . S
C133 C132 1.409 . S
C133 H135 0.951 . S
C134 C129 1.491 1_655 S
C134 C136 1.382 . S
C134 C138 1.404 . S
H135 C133 0.951 . S
C136 C134 1.382 . S
C136 C137 1.390 . S
C136 H141 0.949 . S
C137 C136 1.390 . S
C137 C142 1.399 . S
C138 C134 1.404 . S
C138 H139 0.950 . S
C138 C140 1.375 . S
H139 C138 0.950 . S
C140 C138 1.375 . S
C140 C142 1.382 . S
C140 H144 0.950 . S
H141 C136 0.949 . S
C142 C137 1.399 . S
C142 C140 1.382 . S
C142 H143 0.952 . S
H143 C142 0.952 . S
H144 C140 0.950 . S
H145 C146 0.949 1_565 S
C146 H145 0.949 1_545 S
C146 C147 1.395 . S
C146 C148 1.391 . S
C147 C146 1.395 . S
C147 C150 1.390 . S
C148 C146 1.391 . S
C148 C152 1.387 . S
C148 C153 1.491 1_545 S
H149 C150 0.950 . S
C150 C147 1.390 . S
C150 H149 0.950 . S
C150 C151 1.378 . S
C151 C150 1.378 . S
C151 C152 1.409 . S
C152 C148 1.387 . S
C152 C151 1.409 . S
C152 H154 0.951 . S
C153 C148 1.491 1_565 S
C153 C155 1.382 . S
C153 C157 1.404 . S
H154 C152 0.951 . S
C155 C153 1.382 . S
C155 C156 1.390 . S
C155 H160 0.949 . S
C156 C155 1.390 . S
C156 C161 1.399 . S
C157 C153 1.404 . S
C157 H158 0.950 1_565 S
C157 C159 1.375 . S
H158 C157 0.950 1_545 S
C159 C157 1.375 . S
C159 C161 1.382 . S
C159 H163 0.950 . S
H160 C155 0.949 . S
C161 C156 1.399 . S
C161 C159 1.382 . S
C161 H162 0.952 . S
H162 C161 0.952 . S
H163 C159 0.950 . S
H164 C165 0.949 . S
C165 H164 0.949 . S
C165 C166 1.395 . S
C165 C167 1.391 . S
C166 C165 1.395 . S
C166 C169 1.390 . S
C167 C165 1.391 . S
C167 C171 1.387 . S
C167 C172 1.491 . S
H168 C169 0.950 . S
C169 C166 1.390 . S
C169 H168 0.950 . S
C169 C170 1.378 . S
C170 C169 1.378 . S
C170 C171 1.409 . S
C171 C167 1.387 . S
C171 C170 1.409 . S
C171 H173 0.951 . S
C172 C167 1.491 . S
C172 C174 1.382 . S
C172 C176 1.404 . S
H173 C171 0.951 . S
C174 C172 1.382 . S
C174 C175 1.390 . S
C174 H179 0.949 . S
C175 C174 1.390 . S
C175 C180 1.399 . S
C176 C172 1.404 . S
C176 H177 0.950 . S
C176 C178 1.375 . S
H177 C176 0.950 . S
C178 C176 1.375 . S
C178 C180 1.382 . S
C178 H182 0.950 . S
H179 C174 0.949 . S
C180 C175 1.399 . S
C180 C178 1.382 . S
C180 H181 0.952 . S
H181 C180 0.952 . S
H182 C178 0.950 . S
C183 C184 1.386 . S
C183 C185 1.383 . S
C183 H199 0.951 . S
C184 C183 1.386 . S
C184 C188 1.383 . S
C185 C183 1.383 . S
C185 C186 1.402 . S
C185 H200 0.951 . S
C186 C185 1.402 . S
C186 C187 1.375 . S
C186 C189 1.481 . S
C187 C186 1.375 . S
C187 C188 1.367 . S
C187 H201 0.951 . S
C188 C184 1.383 . S
C188 C187 1.367 . S
C188 H202 0.950 . S
C189 C186 1.481 . S
C189 C190 1.297 . S
C189 H203 0.950 . S
C190 C189 1.297 . S
C190 C191 1.479 . S
C190 H204 0.950 . S
C191 C190 1.479 . S
C191 C192 1.375 . S
C191 C197 1.404 . S
C192 C191 1.375 . S
C192 C193 1.369 . S
C192 H205 0.950 . S
C193 C192 1.369 . S
C193 C194 1.392 . S
C193 H206 0.951 . S
C194 C193 1.392 . S
C194 C196 1.384 . S
H195 C197 0.949 . S
C196 C194 1.384 . S
C196 C197 1.385 . S
C196 H198 0.950 . S
C197 C191 1.404 . S
C197 H195 0.949 . S
C197 C196 1.385 . S
H198 C196 0.950 . S
H199 C183 0.951 . S
H200 C185 0.951 . S
H201 C187 0.951 . S
H202 C188 0.950 . S
H203 C189 0.950 . S
H204 C190 0.950 . S
H205 C192 0.950 . S
H206 C193 0.951 . S
C207 C208 1.386 . S
C207 C209 1.383 . S
C207 H223 0.951 . S
C208 C207 1.386 . S
C208 C212 1.383 . S
C209 C207 1.383 . S
C209 C210 1.402 . S
C209 H224 0.951 . S
C210 C209 1.402 . S
C210 C211 1.375 . S
C210 C213 1.481 . S
C211 C210 1.375 . S
C211 C212 1.367 . S
C211 H225 0.951 . S
C212 C208 1.383 . S
C212 C211 1.367 . S
C212 H226 0.950 . S
C213 C210 1.481 . S
C213 C214 1.297 . S
C213 H227 0.950 . S
C214 C213 1.297 . S
C214 C215 1.479 . S
C214 H228 0.950 . S
C215 C214 1.479 . S
C215 C216 1.375 . S
C215 C221 1.404 . S
C216 C215 1.375 . S
C216 C217 1.369 . S
C216 H229 0.950 . S
C217 C216 1.369 . S
C217 C218 1.392 . S
C217 H230 0.951 . S
C218 C217 1.392 . S
C218 C220 1.384 . S
H219 C221 0.949 . S
C220 C218 1.384 . S
C220 C221 1.385 . S
C220 H222 0.950 . S
C221 C215 1.404 . S
C221 H219 0.949 . S
C221 C220 1.385 . S
H222 C220 0.950 . S
H223 C207 0.951 . S
H224 C209 0.951 . S
H225 C211 0.951 . S
H226 C212 0.950 . S
H227 C213 0.950 . S
H228 C214 0.950 . S
H229 C216 0.950 . S
H230 C217 0.951 . S
C231 C232 1.386 . S
C231 C233 1.383 . S
C231 H247 0.951 . S
C232 C231 1.386 . S
C232 C236 1.383 . S
C233 C231 1.383 . S
C233 C234 1.402 . S
C233 H248 0.951 . S
C234 C233 1.402 . S
C234 C235 1.375 . S
C234 C237 1.481 . S
C235 C234 1.375 . S
C235 C236 1.367 . S
C235 H249 0.951 . S
C236 C232 1.383 . S
C236 C235 1.367 . S
C236 H250 0.950 . S
C237 C234 1.481 . S
C237 C238 1.297 . S
C237 H251 0.950 . S
C238 C237 1.297 . S
C238 C239 1.479 . S
C238 H252 0.950 . S
C239 C238 1.479 . S
C239 C240 1.375 . S
C239 C245 1.404 . S
C240 C239 1.375 . S
C240 C241 1.369 . S
C240 H253 0.950 . S
C241 C240 1.369 . S
C241 C242 1.392 . S
C241 H254 0.951 . S
C242 C241 1.392 . S
C242 C244 1.384 . S
H243 C245 0.949 . S
C244 C242 1.384 . S
C244 C245 1.385 . S
C244 H246 0.950 . S
C245 C239 1.404 . S
C245 H243 0.949 . S
C245 C244 1.385 . S
H246 C244 0.950 . S
H247 C231 0.951 . S
H248 C233 0.951 . S
H249 C235 0.951 . S
H250 C236 0.950 . S
H251 C237 0.950 . S
H252 C238 0.950 . S
H253 C240 0.950 . S
H254 C241 0.951 . S
C255 C256 1.386 . S
C255 C257 1.383 . S
C255 H271 0.951 . S
C256 C255 1.386 . S
C256 C260 1.383 . S
C257 C255 1.383 . S
C257 C258 1.402 . S
C257 H272 0.951 . S
C258 C257 1.402 . S
C258 C259 1.375 . S
C258 C261 1.481 . S
C259 C258 1.375 . S
C259 C260 1.367 . S
C259 H273 0.951 . S
C260 C256 1.383 . S
C260 C259 1.367 . S
C260 H274 0.950 . S
C261 C258 1.481 . S
C261 C262 1.297 . S
C261 H275 0.950 . S
C262 C261 1.297 . S
C262 C263 1.479 . S
C262 H276 0.950 . S
C263 C262 1.479 . S
C263 C264 1.375 . S
C263 C269 1.404 . S
C264 C263 1.375 . S
C264 C265 1.369 . S
C264 H277 0.950 . S
C265 C264 1.369 . S
C265 C266 1.392 . S
C265 H278 0.951 . S
C266 C265 1.392 . S
C266 C268 1.384 . S
H267 C269 0.949 . S
C268 C266 1.384 . S
C268 C269 1.385 . S
C268 H270 0.950 . S
C269 C263 1.404 . S
C269 H267 0.949 . S
C269 C268 1.385 . S
H270 C268 0.950 . S
H271 C255 0.951 . S
H272 C257 0.951 . S
H273 C259 0.951 . S
H274 C260 0.950 . S
H275 C261 0.950 . S
H276 C262 0.950 . S
H277 C264 0.950 . S
H278 C265 0.951 . S
C279 C280 1.386 . S
C279 C281 1.383 . S
C279 H295 0.951 . S
C280 C279 1.386 . S
C280 C284 1.383 . S
C281 C279 1.383 . S
C281 C282 1.402 . S
C281 H296 0.951 . S
C282 C281 1.402 . S
C282 C283 1.375 . S
C282 C285 1.481 . S
C283 C282 1.375 . S
C283 C284 1.367 . S
C283 H297 0.951 . S
C284 C280 1.383 . S
C284 C283 1.367 . S
C284 H298 0.950 . S
C285 C282 1.481 . S
C285 C286 1.297 . S
C285 H299 0.950 . S
C286 C285 1.297 . S
C286 C287 1.479 . S
C286 H300 0.950 . S
C287 C286 1.479 . S
C287 C288 1.375 . S
C287 C293 1.404 . S
C288 C287 1.375 . S
C288 C289 1.369 . S
C288 H301 0.950 . S
C289 C288 1.369 . S
C289 C290 1.392 . S
C289 H302 0.951 . S
C290 C289 1.392 . S
C290 C292 1.384 . S
H291 C293 0.949 . S
C292 C290 1.384 . S
C292 C293 1.385 . S
C292 H294 0.950 . S
C293 C287 1.404 . S
C293 H291 0.949 . S
C293 C292 1.385 . S
H294 C292 0.950 . S
H295 C279 0.951 . S
H296 C281 0.951 . S
H297 C283 0.951 . S
H298 C284 0.950 . S
H299 C285 0.950 . S
H300 C286 0.950 . S
H301 C288 0.950 . S
H302 C289 0.951 . S
C303 C304 1.386 . S
C303 C305 1.383 . S
C303 H319 0.951 . S
C304 C303 1.386 . S
C304 C308 1.383 . S
C305 C303 1.383 . S
C305 C306 1.402 . S
C305 H320 0.951 . S
C306 C305 1.402 . S
C306 C307 1.375 . S
C306 C309 1.481 . S
C307 C306 1.375 . S
C307 C308 1.367 . S
C307 H321 0.951 . S
C308 C304 1.383 . S
C308 C307 1.367 . S
C308 H322 0.950 . S
C309 C306 1.481 . S
C309 C310 1.297 . S
C309 H323 0.950 . S
C310 C309 1.297 . S
C310 C311 1.479 . S
C310 H324 0.950 . S
C311 C310 1.479 . S
C311 C312 1.375 . S
C311 C317 1.404 . S
C312 C311 1.375 . S
C312 C313 1.369 . S
C312 H325 0.950 . S
C313 C312 1.369 . S
C313 C314 1.392 . S
C313 H326 0.951 . S
C314 C313 1.392 . S
C314 C316 1.384 . S
H315 C317 0.949 . S
C316 C314 1.384 . S
C316 C317 1.385 . S
C316 H318 0.950 . S
C317 C311 1.404 . S
C317 H315 0.949 . S
C317 C316 1.385 . S
H318 C316 0.950 . S
H319 C303 0.951 . S
H320 C305 0.951 . S
H321 C307 0.951 . S
H322 C308 0.950 . S
H323 C309 0.950 . S
H324 C310 0.950 . S
H325 C312 0.950 . S
H326 C313 0.951 . S
C327 C328 1.386 . S
C327 C329 1.383 . S
C327 H343 0.951 . S
C328 C327 1.386 . S
C328 C332 1.383 . S
C329 C327 1.383 . S
C329 C330 1.402 . S
C329 H344 0.951 . S
C330 C329 1.402 . S
C330 C331 1.375 . S
C330 C333 1.481 . S
C331 C330 1.375 . S
C331 C332 1.367 . S
C331 H345 0.951 . S
C332 C328 1.383 . S
C332 C331 1.367 . S
C332 H346 0.950 . S
C333 C330 1.481 . S
C333 C334 1.297 . S
C333 H347 0.950 . S
C334 C333 1.297 . S
C334 C335 1.479 . S
C334 H348 0.950 . S
C335 C334 1.479 . S
C335 C336 1.375 . S
C335 C341 1.404 . S
C336 C335 1.375 . S
C336 C337 1.369 . S
C336 H349 0.950 . S
C337 C336 1.369 . S
C337 C338 1.392 . S
C337 H350 0.951 . S
C338 C337 1.392 . S
C338 C340 1.384 . S
H339 C341 0.949 . S
C340 C338 1.384 . S
C340 C341 1.385 . S
C340 H342 0.950 . S
C341 C335 1.404 . S
C341 H339 0.949 . S
C341 C340 1.385 . S
H342 C340 0.950 . S
H343 C327 0.951 . S
H344 C329 0.951 . S
H345 C331 0.951 . S
H346 C332 0.950 . S
H347 C333 0.950 . S
H348 C334 0.950 . S
H349 C336 0.950 . S
H350 C337 0.951 . S
C351 C352 1.386 . S
C351 C353 1.383 . S
C351 H367 0.951 . S
C352 C351 1.386 . S
C352 C356 1.383 . S
C353 C351 1.383 . S
C353 C354 1.402 . S
C353 H368 0.951 . S
C354 C353 1.402 . S
C354 C355 1.375 . S
C354 C357 1.481 . S
C355 C354 1.375 . S
C355 C356 1.367 . S
C355 H369 0.951 . S
C356 C352 1.383 . S
C356 C355 1.367 . S
C356 H370 0.950 . S
C357 C354 1.481 . S
C357 C358 1.297 . S
C357 H371 0.950 . S
C358 C357 1.297 . S
C358 C359 1.479 . S
C358 H372 0.950 . S
C359 C358 1.479 . S
C359 C360 1.375 . S
C359 C365 1.404 . S
C360 C359 1.375 . S
C360 C361 1.369 . S
C360 H373 0.950 . S
C361 C360 1.369 . S
C361 C362 1.392 . S
C361 H374 0.951 . S
C362 C361 1.392 . S
C362 C364 1.384 . S
H363 C365 0.949 . S
C364 C362 1.384 . S
C364 C365 1.385 . S
C364 H366 0.950 . S
C365 C359 1.404 . S
C365 H363 0.949 . S
C365 C364 1.385 . S
H366 C364 0.950 . S
H367 C351 0.951 . S
H368 C353 0.951 . S
H369 C355 0.951 . S
H370 C356 0.950 . S
H371 C357 0.950 . S
H372 C358 0.950 . S
H373 C360 0.950 . S
H374 C361 0.951 . S
C375 C376 1.386 . S
C375 C377 1.383 . S
C375 H391 0.951 . S
C376 C375 1.386 . S
C376 C380 1.383 . S
C377 C375 1.383 . S
C377 C378 1.402 . S
C377 H392 0.951 . S
C378 C377 1.402 . S
C378 C379 1.375 . S
C378 C381 1.481 . S
C379 C378 1.375 . S
C379 C380 1.367 . S
C379 H393 0.951 . S
C380 C376 1.383 . S
C380 C379 1.367 . S
C380 H394 0.950 . S
C381 C378 1.481 . S
C381 C382 1.297 . S
C381 H395 0.950 . S
C382 C381 1.297 . S
C382 C383 1.479 . S
C382 H396 0.950 . S
C383 C382 1.479 . S
C383 C384 1.375 . S
C383 C389 1.404 . S
C384 C383 1.375 . S
C384 C385 1.369 . S
C384 H397 0.950 . S
C385 C384 1.369 . S
C385 C386 1.392 . S
C385 H398 0.951 . S
C386 C385 1.392 . S
C386 C388 1.384 . S
H387 C389 0.949 . S
C388 C386 1.384 . S
C388 C389 1.385 . S
C388 H390 0.950 . S
C389 C383 1.404 . S
C389 H387 0.949 . S
C389 C388 1.385 . S
H390 C388 0.950 . S
H391 C375 0.951 . S
H392 C377 0.951 . S
H393 C379 0.951 . S
H394 C380 0.950 . S
H395 C381 0.950 . S
H396 C382 0.950 . S
H397 C384 0.950 . S
H398 C385 0.951 . S
C399 C400 1.386 . S
C399 C401 1.383 . S
C399 H415 0.951 . S
C400 C399 1.386 . S
C400 C404 1.383 . S
C401 C399 1.383 . S
C401 C402 1.402 . S
C401 H416 0.951 . S
C402 C401 1.402 . S
C402 C403 1.375 . S
C402 C405 1.481 . S
C403 C402 1.375 . S
C403 C404 1.367 . S
C403 H417 0.951 . S
C404 C400 1.383 . S
C404 C403 1.367 . S
C404 H418 0.950 . S
C405 C402 1.481 . S
C405 C406 1.297 . S
C405 H419 0.950 . S
C406 C405 1.297 . S
C406 C407 1.479 . S
C406 H420 0.950 . S
C407 C406 1.479 . S
C407 C408 1.375 . S
C407 C413 1.404 . S
C408 C407 1.375 . S
C408 C409 1.369 . S
C408 H421 0.950 . S
C409 C408 1.369 . S
C409 C410 1.392 . S
C409 H422 0.951 . S
C410 C409 1.392 . S
C410 C412 1.384 . S
H411 C413 0.949 . S
C412 C410 1.384 . S
C412 C413 1.385 . S
C412 H414 0.950 . S
C413 C407 1.404 . S
C413 H411 0.949 . S
C413 C412 1.385 . S
H414 C412 0.950 . S
H415 C399 0.951 . S
H416 C401 0.951 . S
H417 C403 0.951 . S
H418 C404 0.950 . S
H419 C405 0.950 . S
H420 C406 0.950 . S
H421 C408 0.950 . S
H422 C409 0.951 . S
C423 C424 1.386 . S
C423 C425 1.383 . S
C423 H439 0.951 . S
C424 C423 1.386 . S
C424 C428 1.383 . S
C425 C423 1.383 . S
C425 C426 1.402 . S
C425 H440 0.951 . S
C426 C425 1.402 . S
C426 C427 1.375 . S
C426 C429 1.481 . S
C427 C426 1.375 . S
C427 C428 1.367 . S
C427 H441 0.951 . S
C428 C424 1.383 . S
C428 C427 1.367 . S
C428 H442 0.950 . S
C429 C426 1.481 . S
C429 C430 1.297 . S
C429 H443 0.950 . S
C430 C429 1.297 . S
C430 C431 1.479 . S
C430 H444 0.950 . S
C431 C430 1.479 . S
C431 C432 1.375 . S
C431 C437 1.404 . S
C432 C431 1.375 . S
C432 C433 1.369 . S
C432 H445 0.950 . S
C433 C432 1.369 . S
C433 C434 1.392 . S
C433 H446 0.951 . S
C434 C433 1.392 . S
C434 C436 1.384 . S
H435 C437 0.949 . S
C436 C434 1.384 . S
C436 C437 1.385 . S
C436 H438 0.950 . S
C437 C431 1.404 . S
C437 H435 0.949 . S
C437 C436 1.385 . S
H438 C436 0.950 . S
H439 C423 0.951 . S
H440 C425 0.951 . S
H441 C427 0.951 . S
H442 C428 0.950 . S
H443 C429 0.950 . S
H444 C430 0.950 . S
H445 C432 0.950 . S
H446 C433 0.951 . S
C447 C448 1.386 . S
C447 C449 1.383 . S
C447 H463 0.951 . S
C448 C447 1.386 . S
C448 C452 1.383 . S
C449 C447 1.383 . S
C449 C450 1.402 . S
C449 H464 0.951 . S
C450 C449 1.402 . S
C450 C451 1.375 . S
C450 C453 1.481 . S
C451 C450 1.375 . S
C451 C452 1.367 . S
C451 H465 0.951 . S
C452 C448 1.383 . S
C452 C451 1.367 . S
C452 H466 0.950 . S
C453 C450 1.481 . S
C453 C454 1.297 . S
C453 H467 0.950 . S
C454 C453 1.297 . S
C454 C455 1.479 . S
C454 H468 0.950 . S
C455 C454 1.479 . S
C455 C456 1.375 . S
C455 C461 1.404 . S
C456 C455 1.375 . S
C456 C457 1.369 . S
C456 H469 0.950 . S
C457 C456 1.369 . S
C457 C458 1.392 . S
C457 H470 0.951 . S
C458 C457 1.392 . S
C458 C460 1.384 . S
H459 C461 0.949 . S
C460 C458 1.384 . S
C460 C461 1.385 . S
C460 H462 0.950 . S
C461 C455 1.404 . S
C461 H459 0.949 . S
C461 C460 1.385 . S
H462 C460 0.950 . S
H463 C447 0.951 . S
H464 C449 0.951 . S
H465 C451 0.951 . S
H466 C452 0.950 . S
H467 C453 0.950 . S
H468 C454 0.950 . S
H469 C456 0.950 . S
H470 C457 0.951 . S
C471 C472 1.386 . S
C471 C473 1.383 . S
C471 H487 0.951 1_455 S
C472 C471 1.386 . S
C472 C476 1.383 . S
C473 C471 1.383 . S
C473 C474 1.402 . S
C473 H488 0.951 1_455 S
C474 C473 1.402 . S
C474 C475 1.375 . S
C474 C477 1.481 . S
C475 C474 1.375 . S
C475 C476 1.367 . S
C475 H489 0.951 . S
C476 C472 1.383 . S
C476 C475 1.367 . S
C476 H490 0.950 . S
C477 C474 1.481 . S
C477 C478 1.297 . S
C477 H491 0.950 . S
C478 C477 1.297 . S
C478 C479 1.479 1_554 S
C478 H492 0.950 . S
C479 C478 1.479 1_556 S
C479 C480 1.375 . S
C479 C485 1.404 . S
C480 C479 1.375 . S
C480 C481 1.369 . S
C480 H493 0.950 1_455 S
C481 C480 1.369 . S
C481 C482 1.392 . S
C481 H494 0.951 1_455 S
C482 C481 1.392 . S
C482 C484 1.384 . S
H483 C485 0.949 . S
C484 C482 1.384 . S
C484 C485 1.385 . S
C484 H486 0.950 . S
C485 C479 1.404 . S
C485 H483 0.949 . S
C485 C484 1.385 . S
H486 C484 0.950 . S
H487 C471 0.951 1_655 S
H488 C473 0.951 1_655 S
H489 C475 0.951 . S
H490 C476 0.950 . S
H491 C477 0.950 . S
H492 C478 0.950 . S
H493 C480 0.950 1_655 S
H494 C481 0.951 1_655 S
C495 C496 1.386 . S
C495 C497 1.383 . S
C495 H511 0.951 . S
C496 C495 1.386 . S
C496 C500 1.383 . S
C497 C495 1.383 . S
C497 C498 1.402 . S
C497 H512 0.951 . S
C498 C497 1.402 . S
C498 C499 1.375 . S
C498 C501 1.481 . S
C499 C498 1.375 . S
C499 C500 1.367 . S
C499 H513 0.951 . S
C500 C496 1.383 . S
C500 C499 1.367 . S
C500 H514 0.950 . S
C501 C498 1.481 . S
C501 C502 1.297 . S
C501 H515 0.950 . S
C502 C501 1.297 . S
C502 C503 1.479 . S
C502 H516 0.950 . S
C503 C502 1.479 . S
C503 C504 1.375 . S
C503 C509 1.404 . S
C504 C503 1.375 . S
C504 C505 1.369 . S
C504 H517 0.950 . S
C505 C504 1.369 . S
C505 C506 1.392 . S
C505 H518 0.951 . S
C506 C505 1.392 . S
C506 C508 1.384 . S
H507 C509 0.949 . S
C508 C506 1.384 . S
C508 C509 1.385 . S
C508 H510 0.950 . S
C509 C503 1.404 . S
C509 H507 0.949 . S
C509 C508 1.385 . S
H510 C508 0.950 . S
H511 C495 0.951 . S
H512 C497 0.951 . S
H513 C499 0.951 . S
H514 C500 0.950 . S
H515 C501 0.950 . S
H516 C502 0.950 . S
H517 C504 0.950 . S
H518 C505 0.951 . S
C519 C520 1.386 . S
C519 C521 1.383 . S
C519 H535 0.951 . S
C520 C519 1.386 . S
C520 C524 1.383 . S
C521 C519 1.383 . S
C521 C522 1.402 . S
C521 H536 0.951 . S
C522 C521 1.402 . S
C522 C523 1.375 . S
C522 C525 1.481 . S
C523 C522 1.375 . S
C523 C524 1.367 . S
C523 H537 0.951 . S
C524 C520 1.383 . S
C524 C523 1.367 . S
C524 H538 0.950 . S
C525 C522 1.481 . S
C525 C526 1.297 . S
C525 H539 0.950 . S
C526 C525 1.297 . S
C526 C527 1.479 . S
C526 H540 0.950 . S
C527 C526 1.479 . S
C527 C528 1.375 . S
C527 C533 1.404 . S
C528 C527 1.375 . S
C528 C529 1.369 . S
C528 H541 0.950 . S
C529 C528 1.369 . S
C529 C530 1.392 . S
C529 H542 0.951 . S
C530 C529 1.392 . S
C530 C532 1.384 . S
H531 C533 0.949 . S
C532 C530 1.384 . S
C532 C533 1.385 . S
C532 H534 0.950 . S
C533 C527 1.404 . S
C533 H531 0.949 . S
C533 C532 1.385 . S
H534 C532 0.950 . S
H535 C519 0.951 . S
H536 C521 0.951 . S
H537 C523 0.951 . S
H538 C524 0.950 . S
H539 C525 0.950 . S
H540 C526 0.950 . S
H541 C528 0.950 . S
H542 C529 0.951 . S
C543 C544 1.386 . S
C543 C545 1.383 . S
C543 H559 0.951 . S
C544 C543 1.386 . S
C544 C548 1.383 . S
C545 C543 1.383 . S
C545 C546 1.402 . S
C545 H560 0.951 . S
C546 C545 1.402 . S
C546 C547 1.375 . S
C546 C549 1.481 . S
C547 C546 1.375 . S
C547 C548 1.367 . S
C547 H561 0.956 . S
C548 C544 1.383 . S
C548 C547 1.367 . S
C548 H562 0.950 . S
C549 C546 1.481 . S
C549 C550 1.297 . S
C549 H563 0.950 . S
C550 C549 1.297 . S
C550 C551 1.479 . S
C550 H564 0.950 . S
C551 C550 1.479 . S
C551 C552 1.375 . S
C551 C557 1.404 . S
C552 C551 1.375 . S
C552 C553 1.369 . S
C552 H565 0.950 . S
C553 C552 1.369 . S
C553 C554 1.392 . S
C553 H566 0.951 . S
C554 C553 1.392 . S
C554 C556 1.384 . S
H555 C557 0.949 1_565 S
C556 C554 1.384 . S
C556 C557 1.385 . S
C556 H558 0.950 1_545 S
C557 C551 1.404 . S
C557 H555 0.949 1_545 S
C557 C556 1.385 . S
H558 C556 0.950 1_565 S
H559 C543 0.951 . S
H560 C545 0.951 . S
H561 C547 0.956 . S
H562 C548 0.950 . S
H563 C549 0.950 . S
H564 C550 0.950 . S
H565 C552 0.950 . S
H566 C553 0.951 . S
C567 C568 1.386 . S
C567 C569 1.383 . S
C567 H583 0.951 . S
C568 C567 1.386 . S
C568 C572 1.383 . S
C569 C567 1.383 . S
C569 C570 1.402 . S
C569 H584 0.951 . S
C570 C569 1.402 . S
C570 C571 1.375 . S
C570 C573 1.481 . S
C571 C570 1.375 . S
C571 C572 1.367 . S
C571 H585 0.951 . S
C572 C568 1.383 . S
C572 C571 1.367 . S
C572 H586 0.950 . S
C573 C570 1.481 . S
C573 C574 1.297 . S
C573 H587 0.950 . S
C574 C573 1.297 . S
C574 C575 1.479 1_556 S
C574 H588 0.950 . S
C575 C574 1.479 1_554 S
C575 C576 1.375 . S
C575 C581 1.404 . S
C576 C575 1.375 . S
C576 C577 1.369 . S
C576 H589 0.950 . S
C577 C576 1.369 . S
C577 C578 1.392 . S
C577 H590 0.951 . S
C578 C577 1.392 . S
C578 C580 1.384 . S
H579 C581 0.949 . S
C580 C578 1.384 . S
C580 C581 1.385 . S
C580 H582 0.950 . S
C581 C575 1.404 . S
C581 H579 0.949 . S
C581 C580 1.385 . S
H582 C580 0.950 . S
H583 C567 0.951 . S
H584 C569 0.951 . S
H585 C571 0.951 . S
H586 C572 0.950 . S
H587 C573 0.950 . S
H588 C574 0.950 . S
H589 C576 0.950 . S
H590 C577 0.951 . S
C591 C592 1.386 . S
C591 C593 1.383 . S
C591 H607 0.951 1_455 S
C592 C591 1.386 . S
C592 C596 1.383 . S
C593 C591 1.383 . S
C593 C594 1.402 . S
C593 H608 0.951 . S
C594 C593 1.402 . S
C594 C595 1.375 . S
C594 C597 1.481 . S
C595 C594 1.375 . S
C595 C596 1.367 . S
C595 H609 0.951 . S
C596 C592 1.383 . S
C596 C595 1.367 . S
C596 H610 0.950 . S
C597 C594 1.481 . S
C597 C598 1.297 . S
C597 H611 0.950 . S
C598 C597 1.297 . S
C598 C599 1.479 . S
C598 H612 0.950 . S
C599 C598 1.479 . S
C599 C600 1.375 . S
C599 C605 1.404 . S
C600 C599 1.375 . S
C600 C601 1.369 . S
C600 H613 0.950 1_455 S
C601 C600 1.369 . S
C601 C602 1.392 . S
C601 H614 0.951 1_455 S
C602 C601 1.392 . S
C602 C604 1.384 . S
H603 C605 0.949 . S
C604 C602 1.384 . S
C604 C605 1.385 . S
C604 H606 0.950 . S
C605 C599 1.404 . S
C605 H603 0.949 . S
C605 C604 1.385 . S
H606 C604 0.950 . S
H607 C591 0.951 1_655 S
H608 C593 0.951 . S
H609 C595 0.951 . S
H610 C596 0.950 . S
H611 C597 0.950 . S
H612 C598 0.950 . S
H613 C600 0.950 1_655 S
H614 C601 0.951 1_655 S
C184 C20 1.240 . S
C194 C175 1.198 . S
C208 C41 1.286 . S
C218 C137 1.257 . S
C232 C64 1.304 . S
C242 C156 1.296 . S
C256 C19 1.194 . S
C266 C170 1.311 . S
C290 C132 1.199 . S
C280 C44 1.235 . S
C314 C151 1.207 . S
C304 C67 1.187 . S
C328 C43 1.241 . S
C338 C99 1.132 . S
C352 C66 1.161 . S
C362 C113 1.136 1_655 S
C376 C21 1.202 . S
C386 C75 1.246 1_565 S
C410 C94 1.260 . S
C400 C42 1.172 . S
C434 C118 1.210 . S
C424 C65 1.284 . S
C448 C18 1.287 . S
C458 C80 1.265 . S
C482 C109 1.542 . S
C472 C17 1.587 . S
C496 C39 1.582 . S
C506 C71 1.564 . S
C520 C62 1.593 . S
C530 C90 1.548 . S
C554 C147 1.554 . S
C544 C40 1.568 . S
C578 C166 1.577 . S
C568 C63 1.577 . S
C592 C16 1.587 . S
C602 C128 1.578 . S
