# Generated by pormake.
# Topology apo, (3,6)-cn, num edge types: 1
# Building blocks:
#     Node 0, Type 0, BuildingBlock: CUQRIR_clean_linker_1, # of connection points: 3
#     Node 1, Type 0, BuildingBlock: CUQRIR_clean_linker_1, # of connection points: 3
#     Node 2, Type 0, BuildingBlock: CUQRIR_clean_linker_1, # of connection points: 3
#     Node 3, Type 0, BuildingBlock: CUQRIR_clean_linker_1, # of connection points: 3
#     Node 4, Type 0, BuildingBlock: CUQRIR_clean_linker_1, # of connection points: 3
#     Node 5, Type 0, BuildingBlock: CUQRIR_clean_linker_1, # of connection points: 3
#     Node 6, Type 0, BuildingBlock: CUQRIR_clean_linker_1, # of connection points: 3
#     Node 7, Type 0, BuildingBlock: CUQRIR_clean_linker_1, # of connection points: 3
#     Node 8, Type 1, BuildingBlock: MIDCAF_clean_sbu_0, # of connection points: 6
#     Node 9, Type 1, BuildingBlock: MIDCAF_clean_sbu_0, # of connection points: 6
#     Node 10, Type 1, BuildingBlock: MIDCAF_clean_sbu_0, # of connection points: 6
#     Node 11, Type 1, BuildingBlock: MIDCAF_clean_sbu_0, # of connection points: 6
#     Edge 12, Type (0, 1), BuildingBlock: OJICUG_clean_linker_0, # of connection points: 2
#     Edge 13, Type (0, 1), BuildingBlock: OJICUG_clean_linker_0, # of connection points: 2
#     Edge 14, Type (0, 1), BuildingBlock: OJICUG_clean_linker_0, # of connection points: 2
#     Edge 15, Type (0, 1), BuildingBlock: OJICUG_clean_linker_0, # of connection points: 2
#     Edge 16, Type (0, 1), BuildingBlock: OJICUG_clean_linker_0, # of connection points: 2
#     Edge 17, Type (0, 1), BuildingBlock: OJICUG_clean_linker_0, # of connection points: 2
#     Edge 18, Type (0, 1), BuildingBlock: OJICUG_clean_linker_0, # of connection points: 2
#     Edge 19, Type (0, 1), BuildingBlock: OJICUG_clean_linker_0, # of connection points: 2
#     Edge 20, Type (0, 1), BuildingBlock: OJICUG_clean_linker_0, # of connection points: 2
#     Edge 21, Type (0, 1), BuildingBlock: OJICUG_clean_linker_0, # of connection points: 2
#     Edge 22, Type (0, 1), BuildingBlock: OJICUG_clean_linker_0, # of connection points: 2
#     Edge 23, Type (0, 1), BuildingBlock: OJICUG_clean_linker_0, # of connection points: 2
#     Edge 24, Type (0, 1), BuildingBlock: OJICUG_clean_linker_0, # of connection points: 2
#     Edge 25, Type (0, 1), BuildingBlock: OJICUG_clean_linker_0, # of connection points: 2
#     Edge 26, Type (0, 1), BuildingBlock: OJICUG_clean_linker_0, # of connection points: 2
#     Edge 27, Type (0, 1), BuildingBlock: OJICUG_clean_linker_0, # of connection points: 2
#     Edge 28, Type (0, 1), BuildingBlock: OJICUG_clean_linker_0, # of connection points: 2
#     Edge 29, Type (0, 1), BuildingBlock: OJICUG_clean_linker_0, # of connection points: 2
#     Edge 30, Type (0, 1), BuildingBlock: OJICUG_clean_linker_0, # of connection points: 2
#     Edge 31, Type (0, 1), BuildingBlock: OJICUG_clean_linker_0, # of connection points: 2
#     Edge 32, Type (0, 1), BuildingBlock: OJICUG_clean_linker_0, # of connection points: 2
#     Edge 33, Type (0, 1), BuildingBlock: OJICUG_clean_linker_0, # of connection points: 2
#     Edge 34, Type (0, 1), BuildingBlock: OJICUG_clean_linker_0, # of connection points: 2
#     Edge 35, Type (0, 1), BuildingBlock: OJICUG_clean_linker_0, # of connection points: 2
# Relax obj value: 0.008
# Max RMSD: 0.059
# Mean RMSD: 0.056
data_MOF--net-apo--node1-MIDCAF_clean_sbu_0--node2-CUQRIR_clean_linker_1--edge1-OJICUG_clean_linker_0
_symmetry_space_group_name_H-M    P1
_symmetry_Int_Tables_number       1
_symmetry_cell_setting            triclinic
loop_
_symmetry_equiv_pos_as_xyz
'x, y, z'
_cell_length_a     24.769653
_cell_length_b     28.012591
_cell_length_c     19.82329
_cell_angle_alpha  89.409026
_cell_angle_beta   90.188088
_cell_angle_gamma 88.895454
loop_
_atom_site_label
_atom_site_type_symbol
_atom_site_fract_x
_atom_site_fract_y
_atom_site_fract_z
_atom_type_partial_charge
C0 C 0.30739 0.25215 0.41473 0.0
N1 N 0.34339 0.28669 0.42664 0.0
N2 N 0.30494 0.24263 0.348 0.0
C3 C 0.27177 0.23002 0.46741 0.0
C4 C 0.34043 0.27265 0.31941 0.0
N5 N 0.36425 0.29944 0.36728 0.0
C6 C 0.35244 0.27459 0.24523 0.0
H7 H 0.29248 0.19763 0.4883 0.0
H8 H 0.23271 0.21919 0.44532 0.0
H9 H 0.26386 0.25508 0.50936 0.0
H10 H 0.32352 0.2999 0.2203 0.0
H11 H 0.34724 0.23896 0.22238 0.0
H12 H 0.39411 0.2869 0.236 0.0
C13 C 0.19262 0.21078 0.91265 0.0
N14 N 0.15472 0.17802 0.92642 0.0
N15 N 0.19247 0.22207 0.8461 0.0
C16 C 0.23116 0.23063 0.96353 0.0
C17 C 0.15305 0.19536 0.81958 0.0
N18 N 0.12989 0.16836 0.86838 0.0
C19 C 0.13629 0.19721 0.74669 0.0
H20 H 0.21236 0.26286 0.98641 0.0
H21 H 0.26949 0.24123 0.93932 0.0
H22 H 0.24004 0.2042 1.00434 0.0
H23 H 0.16198 0.17179 0.71792 0.0
H24 H 0.14227 0.23347 0.72521 0.0
H25 H 0.0934 0.1873 0.74065 0.0
C26 C 0.78015 0.22719 0.65232 0.0
N27 N 0.81637 0.19116 0.64307 0.0
N28 N 0.75765 0.2242 0.71455 0.0
C29 C 0.76707 0.26553 0.60086 0.0
C30 C 0.78169 0.18486 0.74281 0.0
N31 N 0.81793 0.16504 0.69956 0.0
C32 C 0.77033 0.1661 0.81267 0.0
H33 H 0.7931 0.29659 0.61019 0.0
H34 H 0.72427 0.27753 0.60503 0.0
H35 H 0.77483 0.25286 0.54892 0.0
H36 H 0.73193 0.18048 0.83321 0.0
H37 H 0.80325 0.17691 0.84701 0.0
H38 H 0.76922 0.12652 0.81263 0.0
C39 C 0.7111 0.25512 0.14997 0.0
N40 N 0.67012 0.28713 0.14167 0.0
N41 N 0.73514 0.26075 0.21067 0.0
C42 C 0.72824 0.21889 0.09856 0.0
C43 C 0.70772 0.29765 0.23887 0.0
N44 N 0.66744 0.31344 0.19724 0.0
C45 C 0.7239 0.32099 0.30371 0.0
H46 H 0.69283 0.20635 0.06975 0.0
H47 H 0.74941 0.18796 0.12295 0.0
H48 H 0.75636 0.23587 1.0625 0.0
H49 H 0.76599 0.3112 0.31823 0.0
H50 H 0.69673 0.30895 0.34461 0.0
H51 H 0.71998 0.36041 0.29905 0.0
C52 C 0.68432 0.72055 0.72911 0.0
N53 N 0.64702 0.68703 0.71698 0.0
N54 N 0.68857 0.7286 0.79617 0.0
C55 C 0.71888 0.74343 0.67606 0.0
C56 C 0.65267 0.69896 0.82467 0.0
N57 N 0.62713 0.67362 0.7766 0.0
C58 C 0.64191 0.69604 0.89913 0.0
H59 H 0.72658 0.71859 0.63377 0.0
H60 H 0.75797 0.75477 0.69751 0.0
H61 H 0.69728 0.77555 0.65573 0.0
H62 H 0.64814 0.73122 0.92289 0.0
H63 H 0.67084 0.67002 0.92255 0.0
H64 H 0.60018 0.68418 0.90916 0.0
C65 C 0.81152 0.74693 0.23163 0.0
N66 N 0.84276 0.78439 0.21566 0.0
N67 N 0.79648 0.74876 0.29737 0.0
C68 C 0.79447 0.70901 0.18323 0.0
C69 C 0.81946 0.78887 0.32066 0.0
N70 N 0.84826 0.81013 0.27125 0.0
C71 C 0.81179 0.80856 0.39035 0.0
H72 H 0.80583 0.71744 0.13051 0.0
H73 H 0.75013 0.70442 0.18624 0.0
H74 H 0.81405 0.67451 0.19807 0.0
H75 H 0.85091 0.80695 0.4177 0.0
H76 H 0.78201 0.78817 0.42 0.0
H77 H 0.79867 0.84662 0.38686 0.0
C78 C 0.19867 0.74369 0.48197 0.0
N79 N 0.16206 0.77943 0.49086 0.0
N80 N 0.22001 0.74583 0.41908 0.0
C81 C 0.2134 0.70644 0.53442 0.0
C82 C 0.19494 0.78435 0.39001 0.0
N83 N 0.15907 0.80451 0.43343 0.0
C84 C 0.20548 0.80231 0.31953 0.0
H85 H 0.20532 0.71939 0.58611 0.0
H86 H 0.25663 0.69576 0.53029 0.0
H87 H 0.18873 0.67439 0.52597 0.0
H88 H 0.1716 0.79203 0.28635 0.0
H89 H 0.24306 0.78694 0.29805 0.0
H90 H 0.20768 0.84184 0.31896 0.0
C91 C 0.28036 0.7277 0.9845 0.0
N92 N 0.31565 0.69128 0.99707 0.0
N93 N 0.26008 0.72493 0.92102 0.0
C94 C 0.2666 0.76657 1.03363 0.0
C95 C 0.28447 0.68543 0.89533 0.0
N96 N 0.31901 0.66532 0.94127 0.0
C97 C 0.27493 0.66687 0.82534 0.0
H98 H 0.22456 0.77992 1.02576 0.0
H99 H 0.29433 0.7967 1.0254 0.0
H100 H 0.27155 0.75374 0.08644 0.0
H101 H 0.30749 0.67951 0.7917 0.0
H102 H 0.23603 0.67989 0.80383 0.0
H103 H 0.27572 0.62726 0.82558 0.0
Zn104 Zn 0.06401 0.08758 0.41608 0.0
Zn105 Zn 0.97621 0.07532 0.20645 0.0
Zn106 Zn 0.01473 0.08092 0.31019 0.0
C107 C 0.0695 0.09266 0.16229 0.0
C108 C 0.94616 -0.00603 0.2653 0.0
O109 O 0.96174 0.12325 0.38256 0.0
O110 O 0.01415 0.12359 0.47266 0.0
C111 C 0.13168 0.12747 0.32465 0.0
O112 O 0.06619 0.10857 0.22328 0.0
O113 O 0.03576 0.06267 0.14266 0.0
O114 O 0.92622 0.02365 0.22361 0.0
O115 O 0.98828 0.00554 0.29948 0.0
O116 O 0.12917 0.11951 0.38715 0.0
O117 O 0.09232 0.11607 0.28582 0.0
O118 O 0.03291 0.00505 0.3445 0.0
O119 O 0.07677 0.02053 0.43839 0.0
C120 C 0.06047 -0.00954 0.39653 0.0
O121 O 0.94069 0.12633 0.31418 0.0
O122 O 0.94335 0.1405 0.2048 0.0
C123 C 0.97001 0.13505 0.44461 0.0
C124 C 0.924 0.15017 0.26193 0.0
Zn125 Zn 0.51894 0.42093 0.69873 0.0
Zn126 Zn 0.41984 0.38579 0.91458 0.0
Zn127 Zn 0.47182 0.3971 0.80918 0.0
C128 C 0.42065 0.48149 0.90601 0.0
C129 C 0.35597 0.3471 0.8173 0.0
O130 O 0.54929 0.3567 0.81466 0.0
O131 O 0.58263 0.37812 0.71556 0.0
C132 C 0.51317 0.50398 0.76345 0.0
O133 O 0.44706 0.46882 0.85266 0.0
O134 O 0.40574 0.44999 0.94729 0.0
O135 O 0.3559 0.35537 0.87957 0.0
O136 O 0.39655 0.35906 0.78069 0.0
O137 O 0.53033 0.48902 0.70772 0.0
O138 O 0.48946 0.47548 0.80509 0.0
O139 O 0.42561 0.36822 0.72095 0.0
O140 O 0.46498 0.40147 0.63256 0.0
C141 C 0.42848 0.3757 0.65663 0.0
O142 O 0.52495 0.35317 0.87986 0.0
O143 O 0.47014 0.34599 0.96663 0.0
C144 C 0.5867 0.35414 0.76971 0.0
C145 C 0.51541 0.33746 0.94009 0.0
Zn146 Zn 0.02817 0.91599 0.93176 0.0
Zn147 Zn 0.92167 0.88529 0.72652 0.0
Zn148 Zn 0.97454 0.89435 0.83052 0.0
C149 C 0.92055 0.98063 0.73647 0.0
C150 C 0.85915 0.84598 0.8271 0.0
O151 O 0.05257 0.85524 0.81956 0.0
O152 O 0.09792 0.88769 0.903 0.0
C153 C 0.01007 0.00158 0.88189 0.0
O154 O 0.94735 0.96702 0.78963 0.0
O155 O 0.90665 0.94991 0.69423 0.0
O156 O 0.85863 0.85524 0.76484 0.0
O157 O 0.9004 0.85655 0.86347 0.0
O158 O 0.02503 0.98548 0.93856 0.0
O159 O -0.00898 0.97309 0.83711 0.0
O160 O 0.93363 0.86075 0.92114 0.0
O161 O -0.00847 0.87911 1.00118 0.0
C162 C 0.94951 0.85792 0.9833 0.0
O163 O 0.02506 0.85171 0.7556 0.0
O164 O 0.96809 0.84569 0.67066 0.0
C165 C 0.09631 0.859 0.85445 0.0
C166 C 0.01401 0.83674 0.6957 0.0
Zn167 Zn 0.56362 0.5913 0.2279 0.0
Zn168 Zn 0.4641 0.55509 0.44531 0.0
Zn169 Zn 0.51137 0.57908 0.33373 0.0
C170 C 0.55371 0.60246 0.4873 0.0
C171 C 0.47338 0.47152 0.3808 0.0
O172 O 0.4579 0.62244 0.26185 0.0
O173 O 0.51295 0.63051 0.17545 0.0
C174 C 0.6258 0.6308 0.32644 0.0
O175 O 0.55722 0.60867 0.42271 0.0
O176 O 0.51679 0.5773 0.51171 0.0
O177 O 0.45622 0.48624 0.4367 0.0
O178 O 0.4956 0.50054 0.33859 0.0
O179 O 0.62653 0.62281 0.2641 0.0
O180 O 0.58543 0.61791 0.3627 0.0
O181 O 0.53702 0.50779 0.29016 0.0
O182 O 0.5783 0.52698 0.19564 0.0
C183 C 0.56335 0.49534 0.23672 0.0
O184 O 0.43335 0.61784 0.32669 0.0
O185 O 0.39909 0.59575 0.42504 0.0
C186 C 0.46743 0.6384 0.20169 0.0
C187 C 0.39511 0.6194 0.37056 0.0
C188 C 0.13336 0.8841 0.47447 0.0
C189 C 0.12971 0.8493 0.42468 0.0
H190 H 0.11199 0.95391 0.50653 0.0
C191 C 0.09918 0.85983 0.36609 0.0
H192 H 0.15806 0.87791 0.51886 0.0
C193 C 0.07501 0.90527 0.35654 0.0
C194 C 0.07886 0.94005 0.40691 0.0
H195 H 0.09488 0.83338 0.32721 0.0
H196 H 0.05466 0.91344 0.30929 0.0
C197 C 0.10736 0.9282 0.46658 0.0
C198 C 0.34748 0.58622 0.98503 0.0
C199 C 0.35009 0.62143 0.93456 0.0
H200 H 0.36986 0.51587 1.01721 0.0
C201 C 0.38082 0.61198 0.87649 0.0
H202 H 0.32299 0.59182 1.02938 0.0
C203 C 0.40531 0.56698 0.86731 0.0
C204 C 0.402 0.53147 0.91757 0.0
H205 H 0.38444 0.63879 0.83721 0.0
H206 H 0.42439 0.55945 0.81974 0.0
C207 C 0.37393 0.54229 0.97735 0.0
C208 C 0.54258 0.63369 0.74645 0.0
C209 C 0.58901 0.63601 0.78704 0.0
H210 H 0.48174 0.58847 0.70614 0.0
C211 C 0.6018 0.59773 0.83093 0.0
H212 H 0.5315 0.66313 0.71306 0.0
C213 C 0.57159 0.55615 0.82972 0.0
C214 C 0.52929 0.55189 0.7832 0.0
H215 H 0.63775 0.59836 0.86203 0.0
H216 H 0.58489 0.52564 0.8599 0.0
C217 C 0.5138 0.59139 0.7431 0.0
C218 C 0.85529 0.89135 0.22629 0.0
C219 C 0.87191 0.8566 0.27336 0.0
H220 H 0.86639 0.96085 0.18583 0.0
C221 C 0.91197 0.86751 0.32085 0.0
H222 H 0.8234 0.88412 0.19057 0.0
C223 C 0.93568 0.91261 0.32012 0.0
C224 C 0.92085 0.9466 0.27051 0.0
H225 H 0.92529 0.84106 0.35775 0.0
H226 H 0.9652 0.92084 0.35825 0.0
C227 C 0.8798 0.93547 0.22424 0.0
C228 C 0.87815 0.11031 0.76682 0.0
C229 C 0.84779 0.12051 0.70812 0.0
H230 H 0.92272 0.05735 0.82377 0.0
C231 C 0.84517 0.0858 0.65798 0.0
H232 H 0.8815 0.13665 0.80603 0.0
C233 C 0.872 0.04197 0.66591 0.0
C234 C 0.90052 0.03056 0.7257 0.0
H235 H 0.82073 0.09189 0.61334 0.0
H236 H 0.86817 0.01617 0.62594 0.0
C237 C 0.90325 0.06534 0.77617 0.0
C238 C 0.6327 0.39065 0.15329 0.0
C239 C 0.63472 0.35628 0.20512 0.0
H240 H 0.60629 0.46003 0.12141 0.0
C241 C 0.60796 0.36606 0.26606 0.0
H242 H 0.65431 0.38496 0.10669 0.0
C243 C 0.58251 0.41058 0.27618 0.0
C244 C 0.58161 0.44537 0.22458 0.0
H245 H 0.60858 0.33998 0.30672 0.0
H246 H 0.56632 0.41852 0.32537 0.0
C247 C 0.60568 0.43414 0.16235 0.0
C248 C 0.44714 0.34126 0.39914 0.0
C249 C 0.40179 0.33753 0.35694 0.0
H250 H 0.50572 0.38819 0.44075 0.0
C251 C 0.3891 0.37506 0.31174 0.0
H252 H 0.45816 0.31241 0.43357 0.0
C253 C 0.41807 0.41736 0.31333 0.0
C254 C 0.45896 0.42304 0.36145 0.0
H255 H 0.35399 0.37332 0.27931 0.0
H256 H 0.40469 0.44728 0.28204 0.0
C257 C 0.47465 0.38422 0.40272 0.0
C258 C 0.04587 0.1295 0.90455 0.0
C259 C 0.08935 0.1326 0.85948 0.0
H260 H 0.98624 0.08401 0.94799 0.0
C261 C 0.09702 0.09649 0.81162 0.0
H262 H 0.03843 0.15743 0.94089 0.0
C263 C 0.0652 0.05586 0.81313 0.0
C264 C 0.02655 0.05013 0.86395 0.0
H265 H 0.13048 0.09778 0.77675 0.0
H266 H 0.0749 0.02676 0.77938 0.0
C267 C 0.01562 0.08794 0.90805 0.0
C268 C 0.12886 0.18477 1.0465 0.0
C269 C 0.14398 0.15635 0.99137 0.0
H270 H 0.09485 0.18641 0.14602 0.0
C271 C 0.14432 0.10651 0.99891 0.0
H272 H 0.12841 0.2233 1.04176 0.0
C273 C 0.12433 0.08547 1.05775 0.0
C274 C 0.10523 0.11388 0.11101 0.0
H275 H 0.15684 0.08396 0.95754 0.0
H276 H 0.12086 0.04698 1.06006 0.0
C277 C 0.11004 0.16367 0.1062 0.0
C278 C 0.37356 0.28058 0.54557 0.0
C279 C 0.35435 0.30843 0.49084 0.0
H280 H 0.41072 0.28058 0.64374 0.0
C281 C 0.34974 0.35809 0.49787 0.0
H282 H 0.37719 0.24216 0.54114 0.0
C283 C 0.36959 0.37996 0.55558 0.0
C284 C 0.39262 0.35242 0.60825 0.0
H285 H 0.33394 0.38009 0.45684 0.0
H286 H 0.36995 0.41861 0.55736 0.0
C287 C 0.39226 0.30245 0.60426 0.0
C288 C 0.65072 0.30662 1.02168 0.0
C289 C 0.63334 0.2908 0.08546 0.0
H290 H 0.62667 0.33447 0.92436 0.0
C291 C 0.57857 0.28307 0.09621 0.0
H292 H 0.69314 0.31274 1.01285 0.0
C293 C 0.54102 0.29406 1.04578 0.0
C294 C 0.55728 0.31432 0.98382 0.0
H295 H 0.56476 0.27049 0.14491 0.0
H296 H 0.49869 0.28943 1.0572 0.0
C297 C 0.61279 0.31878 0.97115 0.0
C298 C 0.83525 0.16676 0.52546 0.0
C299 C 0.85287 0.18544 0.58715 0.0
H300 H 0.85895 0.13482 0.43171 0.0
C301 C 0.90779 0.19351 0.59683 0.0
H302 H 0.79284 0.15987 0.51766 0.0
C303 C 0.94509 0.18074 0.54735 0.0
C304 C 0.92842 0.1586 0.48741 0.0
H305 H 0.92192 0.20787 0.6441 0.0
H306 H 0.98753 0.18586 0.55783 0.0
C307 C 0.8729 0.15294 0.4761 0.0
C308 C 0.83833 0.80836 0.09461 0.0
C309 C 0.86858 0.79453 0.15212 0.0
H310 H 0.84016 0.83944 0.99474 0.0
C311 C 0.92483 0.79644 0.1499 0.0
H312 H 0.79466 0.80773 0.09596 0.0
C313 C 0.95059 0.81413 0.09281 0.0
C314 C 0.9207 0.83083 1.03643 0.0
H315 H 0.94866 0.7861 0.19377 0.0
H316 H -0.00582 0.81662 0.09403 0.0
C317 C 0.86428 0.82637 1.03689 0.0
C318 C 0.61349 0.69547 0.59934 0.0
C319 C 0.63393 0.66657 0.65237 0.0
H320 H 0.57324 0.69745 0.50289 0.0
C321 C 0.63709 0.61697 0.64364 0.0
H322 H 0.61082 0.73384 0.605 0.0
C323 C 0.61489 0.59627 0.5863 0.0
C324 C 0.59083 0.62485 0.53543 0.0
H325 H 0.65364 0.59411 0.68325 0.0
H326 H 0.61375 0.55769 0.58346 0.0
C327 C 0.59235 0.67473 0.54093 0.0
C328 C 0.40575 0.6962 1.04681 0.0
C329 C 0.35115 0.68623 1.0545 0.0
H330 H 0.4848 0.69108 0.08888 0.0
C331 C 0.33296 0.66724 0.11619 0.0
H332 H 0.42021 0.71114 0.99976 0.0
C333 C 0.37007 0.65464 0.16756 0.0
C334 C 0.4256 0.66159 0.1578 0.0
H335 H 0.29066 0.65939 0.12268 0.0
H336 H 0.35577 0.63677 0.21256 0.0
C337 C 0.44246 0.68458 0.09803 0.0
C338 C 0.14645 0.80407 0.6093 0.0
C339 C 0.12697 0.78602 0.54803 0.0
H340 H 0.12589 0.83496 0.70497 0.0
C341 C 0.07174 0.77871 0.54041 0.0
H342 H 0.18919 0.81018 0.61565 0.0
C343 C 0.03595 0.79158 0.59146 0.0
C344 C 0.0544 0.81318 0.65103 0.0
H345 H 0.0562 0.76469 0.49363 0.0
H346 H -0.00678 0.78688 0.58247 0.0
C347 C 0.11033 0.81793 0.66041 0.0
C348 C 0.22039 0.22903 0.28704 0.0
C349 C 0.26841 0.21086 0.31606 0.0
H350 H 0.1374 0.21492 0.26437 0.0
C351 C 0.27423 0.16181 0.3285 0.0
H352 H 0.21536 0.26704 0.27796 0.0
C353 C 0.23026 0.13214 0.32031 0.0
C354 C 0.17995 0.15135 0.29998 0.0
H355 H 0.31096 0.14754 0.35139 0.0
H356 H 0.23383 0.09537 0.33759 0.0
C357 C 0.17609 0.19925 0.27889 0.0
C358 C 0.27699 0.23918 0.78699 0.0
C359 C 0.22718 0.25511 0.81275 0.0
H360 H 0.35863 0.25801 0.76437 0.0
C361 C 0.21696 0.30408 0.81948 0.0
H362 H 0.2854 0.20129 0.78226 0.0
C363 C 0.25825 0.33641 0.80861 0.0
C364 C 0.31035 0.31999 0.79157 0.0
H365 H 0.17882 0.3167 0.83984 0.0
H366 H 0.25128 0.37347 0.82185 0.0
C367 C 0.31854 0.27162 0.7761 0.0
C368 C 0.72689 0.30505 0.7459 0.0
C369 C 0.71737 0.25593 0.74287 0.0
H370 H 0.69228 0.3751 0.7583 0.0
C371 C 0.6662 0.23912 0.76083 0.0
H372 H 0.76606 0.31869 0.73249 0.0
C373 C 0.62442 0.27122 0.77798 0.0
C374 C 0.63302 0.32059 0.77568 0.0
H375 H 0.65774 0.20143 0.75762 0.0
H376 H 0.58437 0.25774 0.7871 0.0
C377 C 0.68496 0.33712 0.76142 0.0
C378 C 0.83356 0.25198 0.20749 0.0
C379 C 0.78407 0.23796 0.23415 0.0
H380 H 0.91786 0.23548 0.1979 0.0
C381 C 0.78231 0.19899 0.27899 0.0
H382 H 0.8352 0.28197 0.17267 0.0
C383 C 0.82942 0.17231 0.2936 0.0
C384 C 0.87866 0.18482 0.26398 0.0
H385 H 0.74404 0.18765 0.29923 0.0
H386 H 0.82636 0.13974 0.32301 0.0
C387 C 0.88054 0.22565 0.22232 0.0
C388 C 0.77532 0.74037 0.85363 0.0
C389 C 0.72611 0.75918 0.82884 0.0
H390 H 0.8581 0.75513 0.87655 0.0
C391 C 0.7183 0.80866 0.82437 0.0
H392 H 0.78178 0.70208 0.85688 0.0
C393 C 0.7612 0.83889 0.83686 0.0
C394 C 0.81266 0.81986 0.85279 0.0
H395 H 0.68055 0.82351 0.80507 0.0
H396 H 0.75595 0.87664 0.8255 0.0
C397 C 0.81859 0.77069 0.86572 0.0
C398 C 0.76602 0.66992 0.33423 0.0
C399 C 0.75711 0.71936 0.32963 0.0
H400 H 0.72932 0.60151 0.34071 0.0
C401 C 0.70594 0.73855 0.34524 0.0
H402 H 0.80536 0.65466 0.32264 0.0
C403 C 0.6627 0.70828 0.35738 0.0
C404 C 0.6703 0.65867 0.35292 0.0
H405 H 0.69837 0.77669 0.34135 0.0
H406 H 0.62235 0.72364 0.36127 0.0
C407 C 0.72279 0.63968 0.34567 0.0
C408 C 0.25327 0.66522 0.39079 0.0
C409 C 0.26112 0.71463 0.39156 0.0
H410 H 0.29034 0.59582 0.38223 0.0
C411 C 0.31171 0.73243 0.37303 0.0
H412 H 0.21454 0.65086 0.40468 0.0
C413 C 0.35465 0.70105 0.35784 0.0
C414 C 0.34776 0.65154 0.36281 0.0
H415 H 0.31883 0.77042 0.37447 0.0
H416 H 0.39424 0.71539 0.34828 0.0
C417 C 0.29635 0.63391 0.37729 0.0
C418 C 0.23418 0.80604 0.88307 0.0
C419 C 0.22221 0.75748 0.88869 0.0
H420 H 0.20311 0.87694 0.86537 0.0
C421 C 0.1709 0.74211 0.86908 0.0
H422 H 0.27364 0.81846 0.8976 0.0
C423 C 0.13098 0.7753 0.84846 0.0
C424 C 0.14157 0.82436 0.84907 0.0
H425 H 0.16072 0.70482 0.87397 0.0
H426 H 0.09053 0.76297 0.8387 0.0
C427 C 0.19412 0.83926 0.86385 0.0
loop_
_geom_bond_atom_site_label_1
_geom_bond_atom_site_label_2
_geom_bond_distance
_geom_bond_site_symmetry_2
_ccdc_geom_bond_type
C0 N1 1.317 . S
C0 N2 1.348 . S
C0 C3 1.485 . S
N1 C0 1.317 . S
N1 N5 1.370 . S
N2 C0 1.348 . S
N2 C4 1.346 . S
C3 C0 1.485 . S
C3 H7 0.960 . S
C3 H8 0.961 . S
C3 H9 0.960 . S
C4 N2 1.346 . S
C4 N5 1.307 . S
C4 C6 1.486 . S
N5 N1 1.370 . S
N5 C4 1.307 . S
C6 C4 1.486 . S
C6 H10 0.960 . S
C6 H11 0.960 . S
C6 H12 0.959 . S
H7 C3 0.960 . S
H8 C3 0.961 . S
H9 C3 0.960 . S
H10 C6 0.960 . S
H11 C6 0.960 . S
H12 C6 0.959 . S
C13 N14 1.317 . S
C13 N15 1.348 . S
C13 C16 1.485 . S
N14 C13 1.317 . S
N14 N18 1.370 . S
N15 C13 1.348 . S
N15 C17 1.346 . S
C16 C13 1.485 . S
C16 H20 0.960 . S
C16 H21 0.961 . S
C16 H22 0.960 1_556 S
C17 N15 1.346 . S
C17 N18 1.307 . S
C17 C19 1.486 . S
N18 N14 1.370 . S
N18 C17 1.307 . S
C19 C17 1.486 . S
C19 H23 0.960 . S
C19 H24 0.960 . S
C19 H25 0.959 . S
H20 C16 0.960 . S
H21 C16 0.961 . S
H22 C16 0.960 1_554 S
H23 C19 0.960 . S
H24 C19 0.960 . S
H25 C19 0.959 . S
C26 N27 1.317 . S
C26 N28 1.348 . S
C26 C29 1.485 . S
N27 C26 1.317 . S
N27 N31 1.370 . S
N28 C26 1.348 . S
N28 C30 1.346 . S
C29 C26 1.485 . S
C29 H33 0.960 . S
C29 H34 0.961 . S
C29 H35 0.960 . S
C30 N28 1.346 . S
C30 N31 1.307 . S
C30 C32 1.486 . S
N31 N27 1.370 . S
N31 C30 1.307 . S
C32 C30 1.486 . S
C32 H36 0.960 . S
C32 H37 0.960 . S
C32 H38 0.959 . S
H33 C29 0.960 . S
H34 C29 0.961 . S
H35 C29 0.960 . S
H36 C32 0.960 . S
H37 C32 0.960 . S
H38 C32 0.959 . S
C39 N40 1.317 . S
C39 N41 1.348 . S
C39 C42 1.485 . S
N40 C39 1.317 . S
N40 N44 1.370 . S
N41 C39 1.348 . S
N41 C43 1.346 . S
C42 C39 1.485 . S
C42 H46 0.960 . S
C42 H47 0.961 . S
C42 H48 0.960 1_554 S
C43 N41 1.346 . S
C43 N44 1.307 . S
C43 C45 1.486 . S
N44 N40 1.370 . S
N44 C43 1.307 . S
C45 C43 1.486 . S
C45 H49 0.960 . S
C45 H50 0.960 . S
C45 H51 0.959 . S
H46 C42 0.960 . S
H47 C42 0.961 . S
H48 C42 0.960 1_556 S
H49 C45 0.960 . S
H50 C45 0.960 . S
H51 C45 0.959 . S
C52 N53 1.317 . S
C52 N54 1.348 . S
C52 C55 1.485 . S
N53 C52 1.317 . S
N53 N57 1.370 . S
N54 C52 1.348 . S
N54 C56 1.346 . S
C55 C52 1.485 . S
C55 H59 0.960 . S
C55 H60 0.961 . S
C55 H61 0.960 . S
C56 N54 1.346 . S
C56 N57 1.307 . S
C56 C58 1.486 . S
N57 N53 1.370 . S
N57 C56 1.307 . S
C58 C56 1.486 . S
C58 H62 0.960 . S
C58 H63 0.960 . S
C58 H64 0.959 . S
H59 C55 0.960 . S
H60 C55 0.961 . S
H61 C55 0.960 . S
H62 C58 0.960 . S
H63 C58 0.960 . S
H64 C58 0.959 . S
C65 N66 1.317 . S
C65 N67 1.348 . S
C65 C68 1.485 . S
N66 C65 1.317 . S
N66 N70 1.370 . S
N67 C65 1.348 . S
N67 C69 1.346 . S
C68 C65 1.485 . S
C68 H72 0.960 . S
C68 H73 0.961 . S
C68 H74 0.960 . S
C69 N67 1.346 . S
C69 N70 1.307 . S
C69 C71 1.486 . S
N70 N66 1.370 . S
N70 C69 1.307 . S
C71 C69 1.486 . S
C71 H75 0.960 . S
C71 H76 0.960 . S
C71 H77 0.959 . S
H72 C68 0.960 . S
H73 C68 0.961 . S
H74 C68 0.960 . S
H75 C71 0.960 . S
H76 C71 0.960 . S
H77 C71 0.959 . S
C78 N79 1.317 . S
C78 N80 1.348 . S
C78 C81 1.485 . S
N79 C78 1.317 . S
N79 N83 1.370 . S
N80 C78 1.348 . S
N80 C82 1.346 . S
C81 C78 1.485 . S
C81 H85 0.960 . S
C81 H86 0.961 . S
C81 H87 0.960 . S
C82 N80 1.346 . S
C82 N83 1.307 . S
C82 C84 1.486 . S
N83 N79 1.370 . S
N83 C82 1.307 . S
C84 C82 1.486 . S
C84 H88 0.960 . S
C84 H89 0.960 . S
C84 H90 0.959 . S
H85 C81 0.960 . S
H86 C81 0.961 . S
H87 C81 0.960 . S
H88 C84 0.960 . S
H89 C84 0.960 . S
H90 C84 0.959 . S
C91 N92 1.317 . S
C91 N93 1.348 . S
C91 C94 1.485 . S
N92 C91 1.317 . S
N92 N96 1.370 . S
N93 C91 1.348 . S
N93 C95 1.346 . S
C94 C91 1.485 . S
C94 H98 0.960 . S
C94 H99 0.961 . S
C94 H100 0.960 . S
C95 N93 1.346 . S
C95 N96 1.307 . S
C95 C97 1.486 . S
N96 N92 1.370 . S
N96 C95 1.307 . S
C97 C95 1.486 . S
C97 H101 0.960 . S
C97 H102 0.960 . S
C97 H103 0.959 . S
H98 C94 0.960 . S
H99 C94 0.961 . S
H100 C94 0.960 . S
H101 C97 0.960 . S
H102 C97 0.960 . S
H103 C97 0.959 . S
Zn104 O110 1.918 1_455 S
Zn104 O116 1.898 . S
Zn104 O119 1.905 . S
Zn105 O113 1.905 1_655 S
Zn105 O114 1.898 . S
Zn105 O122 1.920 . S
Zn106 O109 2.080 1_455 S
Zn106 O112 2.114 . S
Zn106 O115 2.120 1_455 S
Zn106 O117 2.120 . S
Zn106 O118 2.114 . S
Zn106 O121 2.080 1_455 S
C107 O112 1.166 . S
C107 O113 1.182 . S
C108 O114 1.167 . S
C108 O115 1.299 . S
O109 Zn106 2.080 1_655 S
O109 C123 1.305 . S
O110 Zn104 1.918 1_655 S
O110 C123 1.236 . S
C111 O116 1.167 . S
C111 O117 1.299 . S
O112 Zn106 2.114 . S
O112 C107 1.166 . S
O113 Zn105 1.905 1_455 S
O113 C107 1.182 . S
O114 Zn105 1.898 . S
O114 C108 1.167 . S
O115 Zn106 2.120 1_655 S
O115 C108 1.299 . S
O116 Zn104 1.898 . S
O116 C111 1.167 . S
O117 Zn106 2.120 . S
O117 C111 1.299 . S
O118 Zn106 2.114 . S
O118 C120 1.166 . S
O119 Zn104 1.905 . S
O119 C120 1.182 . S
C120 O118 1.166 . S
C120 O119 1.182 . S
O121 Zn106 2.080 1_655 S
O121 C124 1.305 . S
O122 Zn105 1.920 . S
O122 C124 1.234 . S
C123 O109 1.305 . S
C123 O110 1.236 . S
C124 O121 1.305 . S
C124 O122 1.234 . S
Zn125 O131 1.920 . S
Zn125 O137 1.898 . S
Zn125 O140 1.905 . S
Zn126 O134 1.905 . S
Zn126 O135 1.898 . S
Zn126 O143 1.920 . S
Zn127 O130 2.080 . S
Zn127 O133 2.114 . S
Zn127 O136 2.120 . S
Zn127 O138 2.120 . S
Zn127 O139 2.114 . S
Zn127 O142 2.080 . S
C128 O133 1.166 . S
C128 O134 1.182 . S
C129 O135 1.167 . S
C129 O136 1.299 . S
O130 Zn127 2.080 . S
O130 C144 1.305 . S
O131 Zn125 1.920 . S
O131 C144 1.234 . S
C132 O137 1.167 . S
C132 O138 1.299 . S
O133 Zn127 2.114 . S
O133 C128 1.166 . S
O134 Zn126 1.905 . S
O134 C128 1.182 . S
O135 Zn126 1.898 . S
O135 C129 1.167 . S
O136 Zn127 2.120 . S
O136 C129 1.299 . S
O137 Zn125 1.898 . S
O137 C132 1.167 . S
O138 Zn127 2.120 . S
O138 C132 1.299 . S
O139 Zn127 2.114 . S
O139 C141 1.166 . S
O140 Zn125 1.905 . S
O140 C141 1.182 . S
C141 O139 1.166 . S
C141 O140 1.182 . S
O142 Zn127 2.080 . S
O142 C145 1.305 . S
O143 Zn126 1.920 . S
O143 C145 1.234 . S
C144 O130 1.305 . S
C144 O131 1.234 . S
C145 O142 1.305 . S
C145 O143 1.234 . S
Zn146 O152 1.920 . S
Zn146 O158 1.898 . S
Zn146 O161 1.905 1_455 S
Zn147 O155 1.905 . S
Zn147 O156 1.898 . S
Zn147 O164 1.920 1_655 S
Zn148 O151 2.080 . S
Zn148 O154 2.114 1_455 S
Zn148 O157 2.120 1_455 S
Zn148 O159 2.120 . S
Zn148 O160 2.114 1_455 S
Zn148 O163 2.080 . S
C149 O154 1.166 . S
C149 O155 1.182 . S
C150 O156 1.167 . S
C150 O157 1.299 . S
O151 Zn148 2.080 . S
O151 C165 1.305 . S
O152 Zn146 1.920 . S
O152 C165 1.234 . S
C153 O158 1.167 . S
C153 O159 1.299 . S
O154 Zn148 2.114 1_655 S
O154 C149 1.166 . S
O155 Zn147 1.905 . S
O155 C149 1.182 . S
O156 Zn147 1.898 . S
O156 C150 1.167 . S
O157 Zn148 2.120 1_655 S
O157 C150 1.299 . S
O158 Zn146 1.898 . S
O158 C153 1.167 . S
O159 Zn148 2.120 . S
O159 C153 1.299 . S
O160 Zn148 2.114 1_655 S
O160 C162 1.166 . S
O161 Zn146 1.905 1_655 S
O161 C162 1.182 . S
C162 O160 1.166 . S
C162 O161 1.182 . S
O163 Zn148 2.080 . S
O163 C166 1.305 . S
O164 Zn147 1.920 1_455 S
O164 C166 1.234 . S
C165 O151 1.305 . S
C165 O152 1.234 . S
C166 O163 1.305 . S
C166 O164 1.234 . S
Zn167 O173 1.920 . S
Zn167 O179 1.898 . S
Zn167 O182 1.905 . S
Zn168 O176 1.905 . S
Zn168 O177 1.898 . S
Zn168 O185 1.920 . S
Zn169 O172 2.080 . S
Zn169 O175 2.114 . S
Zn169 O178 2.120 . S
Zn169 O180 2.120 . S
Zn169 O181 2.114 . S
Zn169 O184 2.080 . S
C170 O175 1.166 . S
C170 O176 1.182 . S
C171 O177 1.167 . S
C171 O178 1.299 . S
O172 Zn169 2.080 . S
O172 C186 1.305 . S
O173 Zn167 1.920 . S
O173 C186 1.234 . S
C174 O179 1.167 . S
C174 O180 1.299 . S
O175 Zn169 2.114 . S
O175 C170 1.166 . S
O176 Zn168 1.905 . S
O176 C170 1.182 . S
O177 Zn168 1.898 . S
O177 C171 1.167 . S
O178 Zn169 2.120 . S
O178 C171 1.299 . S
O179 Zn167 1.898 . S
O179 C174 1.167 . S
O180 Zn169 2.120 . S
O180 C174 1.299 . S
O181 Zn169 2.114 . S
O181 C183 1.166 . S
O182 Zn167 1.905 . S
O182 C183 1.182 . S
C183 O181 1.166 . S
C183 O182 1.182 . S
O184 Zn169 2.080 . S
O184 C187 1.305 . S
O185 Zn168 1.920 . S
O185 C187 1.234 . S
C186 O172 1.305 . S
C186 O173 1.234 . S
C187 O184 1.305 . S
C187 O185 1.234 . S
C188 C189 1.387 . S
C188 H192 0.950 . S
C188 C197 1.390 . S
C189 C188 1.387 . S
C189 C191 1.387 . S
H190 C197 0.950 . S
C191 C189 1.387 . S
C191 C193 1.390 . S
C191 H195 0.950 . S
H192 C188 0.950 . S
C193 C191 1.390 . S
C193 C194 1.387 . S
C193 H196 0.950 . S
C194 C193 1.387 . S
C194 C197 1.387 . S
H195 C191 0.950 . S
H196 C193 0.950 . S
C197 C188 1.390 . S
C197 H190 0.950 . S
C197 C194 1.387 . S
C198 C199 1.387 . S
C198 H202 0.950 . S
C198 C207 1.390 . S
C199 C198 1.387 . S
C199 C201 1.387 . S
H200 C207 0.950 . S
C201 C199 1.387 . S
C201 C203 1.390 . S
C201 H205 0.950 . S
H202 C198 0.950 . S
C203 C201 1.390 . S
C203 C204 1.387 . S
C203 H206 0.950 . S
C204 C203 1.387 . S
C204 C207 1.387 . S
H205 C201 0.950 . S
H206 C203 0.950 . S
C207 C198 1.390 . S
C207 H200 0.950 . S
C207 C204 1.387 . S
C208 C209 1.387 . S
C208 H212 0.950 . S
C208 C217 1.390 . S
C209 C208 1.387 . S
C209 C211 1.387 . S
H210 C217 0.950 . S
C211 C209 1.387 . S
C211 C213 1.390 . S
C211 H215 0.950 . S
H212 C208 0.950 . S
C213 C211 1.390 . S
C213 C214 1.387 . S
C213 H216 0.950 . S
C214 C213 1.387 . S
C214 C217 1.387 . S
H215 C211 0.950 . S
H216 C213 0.950 . S
C217 C208 1.390 . S
C217 H210 0.950 . S
C217 C214 1.387 . S
C218 C219 1.387 . S
C218 H222 0.950 . S
C218 C227 1.390 . S
C219 C218 1.387 . S
C219 C221 1.387 . S
H220 C227 0.950 . S
C221 C219 1.387 . S
C221 C223 1.390 . S
C221 H225 0.950 . S
H222 C218 0.950 . S
C223 C221 1.390 . S
C223 C224 1.387 . S
C223 H226 0.950 . S
C224 C223 1.387 . S
C224 C227 1.387 . S
H225 C221 0.950 . S
H226 C223 0.950 . S
C227 C218 1.390 . S
C227 H220 0.950 . S
C227 C224 1.387 . S
C228 C229 1.387 . S
C228 H232 0.950 . S
C228 C237 1.390 . S
C229 C228 1.387 . S
C229 C231 1.387 . S
H230 C237 0.950 . S
C231 C229 1.387 . S
C231 C233 1.390 . S
C231 H235 0.950 . S
H232 C228 0.950 . S
C233 C231 1.390 . S
C233 C234 1.387 . S
C233 H236 0.950 . S
C234 C233 1.387 . S
C234 C237 1.387 . S
H235 C231 0.950 . S
H236 C233 0.950 . S
C237 C228 1.390 . S
C237 H230 0.950 . S
C237 C234 1.387 . S
C238 C239 1.387 . S
C238 H242 0.950 . S
C238 C247 1.390 . S
C239 C238 1.387 . S
C239 C241 1.387 . S
H240 C247 0.950 . S
C241 C239 1.387 . S
C241 C243 1.390 . S
C241 H245 0.950 . S
H242 C238 0.950 . S
C243 C241 1.390 . S
C243 C244 1.387 . S
C243 H246 0.950 . S
C244 C243 1.387 . S
C244 C247 1.387 . S
H245 C241 0.950 . S
H246 C243 0.950 . S
C247 C238 1.390 . S
C247 H240 0.950 . S
C247 C244 1.387 . S
C248 C249 1.387 . S
C248 H252 0.950 . S
C248 C257 1.390 . S
C249 C248 1.387 . S
C249 C251 1.387 . S
H250 C257 0.950 . S
C251 C249 1.387 . S
C251 C253 1.390 . S
C251 H255 0.950 . S
H252 C248 0.950 . S
C253 C251 1.390 . S
C253 C254 1.387 . S
C253 H256 0.950 . S
C254 C253 1.387 . S
C254 C257 1.387 . S
H255 C251 0.950 . S
H256 C253 0.950 . S
C257 C248 1.390 . S
C257 H250 0.950 . S
C257 C254 1.387 . S
C258 C259 1.387 . S
C258 H262 0.950 . S
C258 C267 1.390 . S
C259 C258 1.387 . S
C259 C261 1.387 . S
H260 C267 0.950 . S
C261 C259 1.387 . S
C261 C263 1.390 . S
C261 H265 0.950 . S
H262 C258 0.950 . S
C263 C261 1.390 . S
C263 C264 1.387 . S
C263 H266 0.950 1_545 S
C264 C263 1.387 . S
C264 C267 1.387 . S
H265 C261 0.950 . S
H266 C263 0.950 1_565 S
C267 C258 1.390 . S
C267 H260 0.950 . S
C267 C264 1.387 . S
C268 C269 1.387 1_554 S
C268 H272 0.950 . S
C268 C277 1.390 . S
C269 C268 1.387 1_556 S
C269 C271 1.387 . S
H270 C277 0.950 . S
C271 C269 1.387 . S
C271 C273 1.390 1_556 S
C271 H275 0.950 . S
H272 C268 0.950 . S
C273 C271 1.390 1_554 S
C273 C274 1.387 . S
C273 H276 0.950 . S
C274 C273 1.387 . S
C274 C277 1.387 . S
H275 C271 0.950 . S
H276 C273 0.950 . S
C277 C268 1.390 . S
C277 H270 0.950 . S
C277 C274 1.387 . S
C278 C279 1.387 . S
C278 H282 0.950 . S
C278 C287 1.390 . S
C279 C278 1.387 . S
C279 C281 1.387 . S
H280 C287 0.950 . S
C281 C279 1.387 . S
C281 C283 1.390 . S
C281 H285 0.950 . S
H282 C278 0.950 . S
C283 C281 1.390 . S
C283 C284 1.387 . S
C283 H286 0.950 . S
C284 C283 1.387 . S
C284 C287 1.387 . S
H285 C281 0.950 . S
H286 C283 0.950 . S
C287 C278 1.390 . S
C287 H280 0.950 . S
C287 C284 1.387 . S
C288 C289 1.387 1_556 S
C288 H292 0.949 1_556 S
C288 C297 1.392 . S
C289 C288 1.387 1_554 S
C289 C291 1.387 1_554 S
H290 C297 0.950 . S
C291 C289 1.387 1_556 S
C291 C293 1.390 . S
C291 H295 0.950 1_556 S
H292 C288 0.949 1_554 S
C293 C291 1.390 . S
C293 C294 1.387 . S
C293 H296 0.950 . S
C294 C293 1.387 . S
C294 C297 1.387 . S
H295 C291 0.950 1_554 S
H296 C293 0.950 . S
C297 C288 1.392 . S
C297 H290 0.950 . S
C297 C294 1.387 . S
C298 C299 1.387 . S
C298 H302 0.950 . S
C298 C307 1.390 . S
C299 C298 1.387 . S
C299 C301 1.387 . S
H300 C307 0.950 . S
C301 C299 1.387 . S
C301 C303 1.390 . S
C301 H305 0.950 . S
H302 C298 0.950 . S
C303 C301 1.390 . S
C303 C304 1.387 . S
C303 H306 0.950 . S
C304 C303 1.387 . S
C304 C307 1.387 . S
H305 C301 0.950 . S
H306 C303 0.950 . S
C307 C298 1.390 . S
C307 H300 0.950 . S
C307 C304 1.387 . S
C308 C309 1.387 . S
C308 H312 0.950 . S
C308 C317 1.390 1_554 S
C309 C308 1.387 . S
C309 C311 1.387 1_554 S
H310 C317 0.950 . S
C311 C309 1.387 1_556 S
C311 C313 1.390 . S
C311 H315 0.950 . S
H312 C308 0.950 . S
C313 C311 1.390 . S
C313 C314 1.387 . S
C313 H316 0.950 . S
C314 C313 1.387 . S
C314 C317 1.387 . S
H315 C311 0.950 . S
H316 C313 0.950 . S
C317 C308 1.390 1_556 S
C317 H310 0.950 . S
C317 C314 1.387 . S
C318 C319 1.387 . S
C318 H322 0.950 . S
C318 C327 1.390 . S
C319 C318 1.387 . S
C319 C321 1.387 . S
H320 C327 0.950 . S
C321 C319 1.387 . S
C321 C323 1.390 . S
C321 H325 0.950 . S
H322 C318 0.950 . S
C323 C321 1.390 . S
C323 C324 1.387 . S
C323 H326 0.950 . S
C324 C323 1.387 . S
C324 C327 1.387 . S
H325 C321 0.950 . S
H326 C323 0.950 . S
C327 C318 1.390 . S
C327 H320 0.950 . S
C327 C324 1.387 . S
C328 C329 1.387 1_554 S
C328 H332 0.950 . S
C328 C337 1.390 . S
C329 C328 1.387 1_556 S
C329 C331 1.387 . S
H330 C337 0.950 . S
C331 C329 1.387 . S
C331 C333 1.390 1_556 S
C331 H335 0.950 . S
H332 C328 0.950 . S
C333 C331 1.390 1_554 S
C333 C334 1.387 . S
C333 H336 0.950 . S
C334 C333 1.387 . S
C334 C337 1.387 . S
H335 C331 0.950 . S
H336 C333 0.950 . S
C337 C328 1.390 . S
C337 H330 0.950 . S
C337 C334 1.387 . S
C338 C339 1.387 . S
C338 H342 0.950 . S
C338 C347 1.390 . S
C339 C338 1.387 . S
C339 C341 1.387 . S
H340 C347 0.950 . S
C341 C339 1.387 . S
C341 C343 1.390 . S
C341 H345 0.950 . S
H342 C338 0.950 . S
C343 C341 1.390 . S
C343 C344 1.387 . S
C343 H346 0.950 . S
C344 C343 1.387 . S
C344 C347 1.387 . S
H345 C341 0.950 . S
H346 C343 0.950 . S
C347 C338 1.390 . S
C347 H340 0.950 . S
C347 C344 1.387 . S
C348 C349 1.387 . S
C348 H352 0.950 . S
C348 C357 1.390 . S
C349 C348 1.387 . S
C349 C351 1.387 . S
H350 C357 0.950 . S
C351 C349 1.387 . S
C351 C353 1.390 . S
C351 H355 0.950 . S
H352 C348 0.950 . S
C353 C351 1.390 . S
C353 C354 1.387 . S
C353 H356 0.950 . S
C354 C353 1.387 . S
C354 C357 1.387 . S
H355 C351 0.950 . S
H356 C353 0.950 . S
C357 C348 1.390 . S
C357 H350 0.950 . S
C357 C354 1.387 . S
C358 C359 1.387 . S
C358 H362 0.950 . S
C358 C367 1.390 . S
C359 C358 1.387 . S
C359 C361 1.387 . S
H360 C367 0.950 . S
C361 C359 1.387 . S
C361 C363 1.390 . S
C361 H365 0.950 . S
H362 C358 0.950 . S
C363 C361 1.390 . S
C363 C364 1.387 . S
C363 H366 0.950 . S
C364 C363 1.387 . S
C364 C367 1.387 . S
H365 C361 0.950 . S
H366 C363 0.950 . S
C367 C358 1.390 . S
C367 H360 0.950 . S
C367 C364 1.387 . S
C368 C369 1.387 . S
C368 H372 0.950 . S
C368 C377 1.390 . S
C369 C368 1.387 . S
C369 C371 1.387 . S
H370 C377 0.950 . S
C371 C369 1.387 . S
C371 C373 1.390 . S
C371 H375 0.950 . S
H372 C368 0.950 . S
C373 C371 1.390 . S
C373 C374 1.387 . S
C373 H376 0.950 . S
C374 C373 1.387 . S
C374 C377 1.387 . S
H375 C371 0.950 . S
H376 C373 0.950 . S
C377 C368 1.390 . S
C377 H370 0.950 . S
C377 C374 1.387 . S
C378 C379 1.387 . S
C378 H382 0.950 . S
C378 C387 1.390 . S
C379 C378 1.387 . S
C379 C381 1.387 . S
H380 C387 0.950 . S
C381 C379 1.387 . S
C381 C383 1.390 . S
C381 H385 0.950 . S
H382 C378 0.950 . S
C383 C381 1.390 . S
C383 C384 1.387 . S
C383 H386 0.950 . S
C384 C383 1.387 . S
C384 C387 1.387 . S
H385 C381 0.950 . S
H386 C383 0.950 . S
C387 C378 1.390 . S
C387 H380 0.950 . S
C387 C384 1.387 . S
C388 C389 1.387 . S
C388 H392 0.950 . S
C388 C397 1.390 . S
C389 C388 1.387 . S
C389 C391 1.387 . S
H390 C397 0.950 . S
C391 C389 1.387 . S
C391 C393 1.390 . S
C391 H395 0.950 . S
H392 C388 0.950 . S
C393 C391 1.390 . S
C393 C394 1.387 . S
C393 H396 0.950 . S
C394 C393 1.387 . S
C394 C397 1.387 . S
H395 C391 0.950 . S
H396 C393 0.950 . S
C397 C388 1.390 . S
C397 H390 0.950 . S
C397 C394 1.387 . S
C398 C399 1.387 . S
C398 H402 0.950 . S
C398 C407 1.390 . S
C399 C398 1.387 . S
C399 C401 1.387 . S
H400 C407 0.950 . S
C401 C399 1.387 . S
C401 C403 1.390 . S
C401 H405 0.950 . S
H402 C398 0.950 . S
C403 C401 1.390 . S
C403 C404 1.387 . S
C403 H406 0.950 . S
C404 C403 1.387 . S
C404 C407 1.387 . S
H405 C401 0.950 . S
H406 C403 0.950 . S
C407 C398 1.390 . S
C407 H400 0.950 . S
C407 C404 1.387 . S
C408 C409 1.387 . S
C408 H412 0.950 . S
C408 C417 1.390 . S
C409 C408 1.387 . S
C409 C411 1.387 . S
H410 C417 0.950 . S
C411 C409 1.387 . S
C411 C413 1.390 . S
C411 H415 0.950 . S
H412 C408 0.950 . S
C413 C411 1.390 . S
C413 C414 1.387 . S
C413 H416 0.950 . S
C414 C413 1.387 . S
C414 C417 1.387 . S
H415 C411 0.950 . S
H416 C413 0.950 . S
C417 C408 1.390 . S
C417 H410 0.950 . S
C417 C414 1.387 . S
C418 C419 1.387 . S
C418 H422 0.950 . S
C418 C427 1.390 . S
C419 C418 1.387 . S
C419 C421 1.387 . S
H420 C427 0.950 . S
C421 C419 1.387 . S
C421 C423 1.390 . S
C421 H425 0.950 . S
H422 C418 0.950 . S
C423 C421 1.390 . S
C423 C424 1.387 . S
C423 H426 0.950 . S
C424 C423 1.387 . S
C424 C427 1.387 . S
H425 C421 0.950 . S
H426 C423 0.950 . S
C427 C418 1.390 . S
C427 H420 0.950 . S
C427 C424 1.387 . S
C189 N83 1.473 . S
C194 C120 1.384 1_565 S
C204 C128 1.384 . S
C199 N96 1.473 . S
C214 C132 1.375 . S
C209 N57 1.471 . S
C219 N70 1.471 . S
C224 C108 1.376 1_565 S
C234 C149 1.384 1_545 S
C229 N31 1.472 . S
C244 C183 1.385 . S
C239 N44 1.472 . S
C249 N5 1.470 . S
C254 C171 1.379 . S
C259 N18 1.470 . S
C264 C153 1.377 1_545 S
C274 C107 1.352 . S
C269 N14 1.484 . S
C284 C141 1.352 . S
C279 N1 1.484 . S
C294 C145 1.353 . S
C289 N40 1.485 . S
C304 C123 1.353 . S
C299 N27 1.485 . S
C314 C162 1.352 . S
C309 N66 1.492 . S
C319 N53 1.493 . S
C324 C170 1.356 . S
C334 C186 1.353 . S
C329 N92 1.490 . S
C339 N79 1.490 . S
C344 C166 1.348 . S
C354 C111 1.354 . S
C349 N2 1.526 . S
C364 C129 1.353 . S
C359 N15 1.525 . S
C369 N28 1.521 . S
C374 C144 1.356 . S
C384 C124 1.358 . S
C379 N41 1.521 . S
C394 C150 1.350 . S
C389 N54 1.528 . S
C399 N67 1.529 . S
C404 C174 1.353 . S
C409 N80 1.524 . S
C414 C187 1.358 . S
C419 N93 1.524 . S
C424 C165 1.358 . S
