# Generated by pormake.
# Topology pth, (4,4)-cn, num edge types: 1
# Building blocks:
#     Node 0, Type 0, BuildingBlock: KUFVIS_clean_sbu_0, # of connection points: 4
#     Node 1, Type 0, BuildingBlock: KUFVIS_clean_sbu_0, # of connection points: 4
#     Node 2, Type 0, BuildingBlock: KUFVIS_clean_sbu_0, # of connection points: 4
#     Node 3, Type 1, BuildingBlock: NAWXER_clean_linker_0, # of connection points: 4
#     Node 4, Type 1, BuildingBlock: NAWXER_clean_linker_0, # of connection points: 4
#     Node 5, Type 1, BuildingBlock: NAWXER_clean_linker_0, # of connection points: 4
#     Edge 6, Type (0, 1), BuildingBlock: KIFKEQ_clean_linker_1, # of connection points: 2
#     Edge 7, Type (0, 1), BuildingBlock: KIFKEQ_clean_linker_1, # of connection points: 2
#     Edge 8, Type (0, 1), BuildingBlock: KIFKEQ_clean_linker_1, # of connection points: 2
#     Edge 9, Type (0, 1), BuildingBlock: KIFKEQ_clean_linker_1, # of connection points: 2
#     Edge 10, Type (0, 1), BuildingBlock: KIFKEQ_clean_linker_1, # of connection points: 2
#     Edge 11, Type (0, 1), BuildingBlock: KIFKEQ_clean_linker_1, # of connection points: 2
#     Edge 12, Type (0, 1), BuildingBlock: KIFKEQ_clean_linker_1, # of connection points: 2
#     Edge 13, Type (0, 1), BuildingBlock: KIFKEQ_clean_linker_1, # of connection points: 2
#     Edge 14, Type (0, 1), BuildingBlock: KIFKEQ_clean_linker_1, # of connection points: 2
#     Edge 15, Type (0, 1), BuildingBlock: KIFKEQ_clean_linker_1, # of connection points: 2
#     Edge 16, Type (0, 1), BuildingBlock: KIFKEQ_clean_linker_1, # of connection points: 2
#     Edge 17, Type (0, 1), BuildingBlock: KIFKEQ_clean_linker_1, # of connection points: 2
# Relax obj value: 0.011
# Max RMSD: 0.077
# Mean RMSD: 0.050
data_MOF--net-pth--node1-KUFVIS_clean_sbu_0--node2-NAWXER_clean_linker_0--edge1-KIFKEQ_clean_linker_1
_symmetry_space_group_name_H-M    P1
_symmetry_Int_Tables_number       1
_symmetry_cell_setting            triclinic
loop_
_symmetry_equiv_pos_as_xyz
'x, y, z'
_cell_length_a     28.942215
_cell_length_b     28.990713
_cell_length_c     66.787148
_cell_angle_alpha  90.429806
_cell_angle_beta   91.656082
_cell_angle_gamma 120.11461
loop_
_atom_site_label
_atom_site_type_symbol
_atom_site_fract_x
_atom_site_fract_y
_atom_site_fract_z
_atom_type_partial_charge
Mn0 Mn 0.04113 0.07055 0.05178 0.0
Mn1 Mn 0.96642 0.1083 0.02441 0.0
C2 C 0.98695 0.0169 0.02537 0.0
C3 C 0.05072 0.02711 0.07945 0.0
C4 C 0.0858 0.15541 0.01973 0.0
O5 O 0.04259 0.12916 0.0693 0.0
O6 O 0.98688 0.1465 0.05088 0.0
C7 C 0.87084 0.06275 0.04916 0.0
N8 N 0.89318 0.06655 0.03114 0.0
C9 C 0.80734 0.00705 0.01529 0.0
C10 C 0.78334 1.00274 0.03365 0.0
C11 C 0.81527 0.03058 0.05068 0.0
C12 C 0.8629 0.03966 0.01471 0.0
H13 H 0.89526 0.08411 0.06227 0.0
C14 C 0.01646 0.15347 0.06658 0.0
O15 O 0.09215 0.06352 0.07052 0.0
O16 O 1.00413 0.01722 0.07267 0.0
N17 N 0.9433 0.07435 0.99847 0.0
C18 C 0.97293 0.08082 0.98213 0.0
C19 C 0.94716 0.05446 0.96398 0.0
C20 C 0.89122 0.02234 0.96274 0.0
C21 C 0.86154 0.01693 0.97968 0.0
C22 C 0.8894 0.04415 0.99736 0.0
H23 H 0.0159 0.10566 0.98296 0.0
O24 O 0.02656 0.01196 0.03223 0.0
O25 O 0.97952 0.05242 0.03441 0.0
O26 O 0.09246 0.12653 0.03252 0.0
O27 O 0.04077 0.15243 0.01606 0.0
C28 C 0.80546 0.98506 0.97978 0.0
C29 C 0.7784 0.97984 0.9976 0.0
H30 H 0.7405 0.97792 0.03489 0.0
H31 H 0.79707 0.02727 0.06492 0.0
H32 H 0.97035 0.05888 0.95097 0.0
H33 H 0.87151 1.00182 0.94874 0.0
H34 H 0.78281 0.96382 0.96628 0.0
H35 H 0.73535 0.9545 0.99756 0.0
Mn36 Mn 0.01943 0.06778 0.38374 0.0
Mn37 Mn 0.09412 0.18222 0.41057 0.0
C38 C 0.07171 0.06981 0.41089 0.0
C39 C 0.01164 0.01193 0.35694 0.0
C40 C 0.97423 0.11165 0.41462 0.0
O41 O 0.02051 0.12389 0.36533 0.0
O42 O 0.0751 0.19834 0.38364 0.0
C43 C 0.19062 0.22904 0.38629 0.0
N44 N 0.1675 0.21194 0.40425 0.0
C45 C 0.25207 0.23507 0.4204 0.0
C46 C 0.27684 0.2533 0.4021 0.0
C47 C 0.24595 0.25018 0.38497 0.0
C48 C 0.19684 0.21471 0.42083 0.0
H49 H 0.16699 0.22645 0.37307 0.0
C50 C 0.04663 0.17454 0.36777 0.0
O51 O 0.96945 0.0085 0.36479 0.0
O52 O 0.05764 0.0489 0.36414 0.0
N53 N 0.11589 0.17265 0.43683 0.0
C54 C 0.08551 0.15104 0.45309 0.0
C55 C 0.11018 0.14982 0.47134 0.0
C56 C 0.16577 0.17108 0.47272 0.0
C57 C 0.19627 0.19369 0.45586 0.0
C58 C 0.16955 0.19424 0.43811 0.0
H59 H 0.04275 0.13449 0.45212 0.0
O60 O 0.03173 0.02489 0.40425 0.0
O61 O 0.08011 0.11206 0.40133 0.0
O62 O 0.96745 0.07521 0.402 0.0
O63 O 0.01952 0.15349 0.41845 0.0
C64 C 0.25198 0.21475 0.45585 0.0
C65 C 0.27985 0.23537 0.43813 0.0
H66 H 0.31946 0.26932 0.40099 0.0
H67 H 0.26473 0.26388 0.37078 0.0
H68 H 0.08635 0.13226 0.48429 0.0
H69 H 0.18457 0.1695 0.48676 0.0
H70 H 0.27367 0.21459 0.46932 0.0
H71 H 0.32257 0.2508 0.43824 0.0
Mn72 Mn 0.04023 0.0631 0.71713 0.0
Mn73 Mn 1.00253 0.13889 0.74274 0.0
C74 C 0.09496 0.11929 0.74288 0.0
C75 C 0.08201 0.05109 0.68988 0.0
C76 C 0.95549 0.02008 0.74873 0.0
O77 O 0.98019 0.06002 0.69931 0.0
O78 O 0.96512 0.11884 0.71597 0.0
C79 C 0.0494 0.23465 0.71774 0.0
N80 N 0.04503 0.21205 0.7359 0.0
C81 C 0.10537 0.29731 0.75167 0.0
C82 C 0.11028 0.32156 0.73315 0.0
C83 C 0.08226 0.29007 0.71611 0.0
C84 C 0.07185 0.24195 0.75239 0.0
H85 H 0.028 0.21054 0.7046 0.0
C86 C 0.95702 0.08747 0.70097 0.0
O87 O 0.0462 0.01072 0.69947 0.0
O88 O 0.09229 0.09817 0.69574 0.0
N89 N 0.03603 0.16143 0.76889 0.0
C90 C 0.02926 0.13152 0.78536 0.0
C91 C 0.05587 0.15679 0.80355 0.0
C92 C 0.08875 0.21253 0.80467 0.0
C93 C 0.09459 0.24252 0.78758 0.0
C94 C 0.06681 0.21517 0.7699 0.0
H95 H 1.00401 0.08867 0.78461 0.0
O96 O 0.10026 0.0797 0.73675 0.0
O97 O 0.05851 0.12547 0.73348 0.0
O98 O 0.9859 0.01337 0.73707 0.0
O99 O 0.95709 0.06461 0.75121 0.0
C100 C 0.12778 0.29837 0.7873 0.0
C101 C 0.13322 0.32573 0.76935 0.0
H102 H 0.13579 0.36425 0.73181 0.0
H103 H 0.08604 0.30847 0.70175 0.0
H104 H 0.05119 0.13335 0.81667 0.0
H105 H 0.10964 0.23182 0.81868 0.0
H106 H 0.14997 0.32056 0.80072 0.0
H107 H 0.15947 0.36857 0.76924 0.0
C108 C 0.99814 0.40541 0.24771 0.0
C109 C 0.0359 0.4203 0.26376 0.0
C110 C 0.99677 0.44423 0.23576 0.0
C111 C 0.03344 0.49862 0.23954 0.0
C112 C 0.07212 0.47484 0.26756 0.0
C113 C 0.07073 0.51348 0.25564 0.0
C114 C 0.03176 0.54075 0.22768 0.0
C115 C 0.07045 0.44572 0.18396 0.0
C116 C 0.03446 0.42459 0.16732 0.0
C117 C 0.0694 0.4834 0.1969 0.0
C118 C 0.03161 0.49979 0.19364 0.0
C119 C 0.99688 0.44124 0.16411 0.0
C120 C 0.99564 0.47852 0.17707 0.0
C121 C 0.03081 0.54124 0.2065 0.0
C122 C 0.07135 0.76352 0.19081 0.0
C123 C 0.04299 0.75318 0.17237 0.0
C124 C 0.06718 0.72151 0.20225 0.0
C125 C 0.03303 0.66819 0.19583 0.0
C126 C 0.00991 0.70008 0.16568 0.0
C127 C 0.00488 0.65801 0.17732 0.0
C128 C 0.02942 0.62305 0.20747 0.0
C129 C 0.97391 0.7058 0.24963 0.0
C130 C 0.0106 0.73323 0.26568 0.0
C131 C 0.97968 0.66965 0.23745 0.0
C132 C 0.02206 0.66 0.24114 0.0
C133 C 0.053 0.72325 0.26924 0.0
C134 C 0.05823 0.68656 0.25726 0.0
C135 C 0.0281 0.62125 0.22859 0.0
H136 H 0.96972 0.36377 0.24436 0.0
H137 H 0.96668 0.43178 0.22374 0.0
H138 H 0.10097 0.48783 0.28004 0.0
H139 H 0.09891 0.5552 0.25902 0.0
H140 H 0.10032 0.4342 0.18666 0.0
H141 H 0.09872 0.5004 0.20921 0.0
H142 H 0.9682 0.42525 0.15157 0.0
H143 H 0.96635 0.49073 0.17417 0.0
H144 H 0.09789 0.80418 0.1961 0.0
H145 H 0.09163 0.73099 0.2159 0.0
H146 H 0.98762 0.69112 0.1515 0.0
H147 H 0.97892 0.61742 0.17184 0.0
H148 H 0.94023 0.71157 0.24661 0.0
H149 H 0.95069 0.64876 0.22529 0.0
H150 H 0.08275 0.74426 0.28115 0.0
H151 H 0.09119 0.67964 0.26035 0.0
N152 N 0.03024 0.58075 0.23786 0.0
N153 N 0.02986 0.58247 0.19729 0.0
C154 C 0.68568 0.0986 0.51821 0.0
C155 C 0.67388 0.06195 0.50224 0.0
C156 C 0.64551 0.09337 0.53072 0.0
C157 C 0.59279 0.05118 0.52761 0.0
C158 C 0.62113 0.0196 0.49924 0.0
C159 C 0.58093 0.01456 0.5117 0.0
C160 C 0.54909 0.04745 0.53974 0.0
C161 C 0.65607 0.02077 0.58312 0.0
C162 C 0.67681 0.05742 0.59942 0.0
C163 C 0.61579 0.01859 0.57031 0.0
C164 C 0.59611 0.05354 0.57343 0.0
C165 C 0.65726 0.09254 0.60235 0.0
C166 C 0.61722 0.09041 0.58957 0.0
C167 C 0.55136 0.05018 0.56091 0.0
C168 C 0.32891 0.0068 0.57927 0.0
C169 C 0.34222 0.03887 0.59672 0.0
C170 C 0.36906 0.00845 0.5676 0.0
C171 C 0.42332 0.04372 0.57276 0.0
C172 C 0.39631 0.07281 0.60225 0.0
C173 C 0.43643 0.07534 0.59036 0.0
C174 C 0.46679 0.04628 0.5606 0.0
C175 C 0.37156 0.08962 0.5183 0.0
C176 C 0.34586 0.05294 0.50223 0.0
C177 C 0.41019 0.08697 0.53049 0.0
C178 C 0.42342 0.04722 0.52699 0.0
C179 C 0.3596 0.01349 0.49869 0.0
C180 C 0.39825 0.01092 0.51087 0.0
C181 C 0.46527 0.04487 0.53941 0.0
H182 H 0.72599 0.13147 0.52099 0.0
H183 H 0.65546 0.12296 0.54257 0.0
H184 H 0.61062 0.99114 0.48692 0.0
H185 H 0.54038 0.98215 0.50885 0.0
H186 H 0.66982 0.99274 0.58062 0.0
H187 H 0.59919 0.98876 0.5583 0.0
H188 H 0.67292 0.12178 0.61457 0.0
H189 H 0.60264 0.11769 0.59232 0.0
H190 H 0.28744 0.97961 0.5749 0.0
H191 H 0.3575 0.98167 0.55468 0.0
H192 H 0.40753 0.0979 0.61567 0.0
H193 H 0.47783 0.10237 0.59486 0.0
H194 H 0.36266 0.1211 0.5212 0.0
H195 H 0.43019 0.11638 0.5425 0.0
H196 H 0.34018 0.98427 0.48659 0.0
H197 H 0.40817 0.9802 0.50782 0.0
N198 N 0.50609 0.04483 0.52986 0.0
N199 N 0.5101 0.04943 0.57045 0.0
C200 C 0.39582 0.38517 0.85381 0.0
C201 C 0.37456 0.39933 0.83738 0.0
C202 C 0.43688 0.4246 0.86608 0.0
C203 C 0.45635 0.47892 0.86245 0.0
C204 C 0.39417 0.45353 0.8337 0.0
C205 C 0.43457 0.49288 0.84612 0.0
C206 C 0.50203 0.52157 0.87444 0.0
C207 C 0.37413 0.43677 0.91896 0.0
C208 C 0.38696 0.41132 0.93417 0.0
C209 C 0.41323 0.47184 0.90623 0.0
C210 C 0.46592 0.48183 0.90831 0.0
C211 C 0.43978 0.42149 0.93626 0.0
C212 C 0.47896 0.45676 0.92354 0.0
C213 C 0.50813 0.52101 0.89553 0.0
C214 C 0.6874 0.73966 0.9166 0.0
C215 C 0.71716 0.72866 0.9308 0.0
C216 C 0.64752 0.69873 0.90452 0.0
C217 C 0.63673 0.64605 0.90635 0.0
C218 C 0.70666 0.67597 0.93248 0.0
C219 C 0.66642 0.63494 0.92048 0.0
C220 C 0.59194 0.60205 0.89466 0.0
C221 C 0.71505 0.69667 0.84906 0.0
C222 C 0.69931 0.72609 0.8369 0.0
C223 C 0.67827 0.65704 0.8613 0.0
C224 C 0.62507 0.64577 0.86129 0.0
C225 C 0.64613 0.71482 0.83698 0.0
C226 C 0.60915 0.67451 0.84888 0.0
C227 C 0.58537 0.6031 0.8737 0.0
H228 H 0.38195 0.34362 0.85676 0.0
H229 H 0.45423 0.41249 0.87804 0.0
H230 H 0.37827 0.46546 0.82117 0.0
H231 H 0.44909 0.5344 0.84287 0.0
H232 H 0.33375 0.42952 0.91686 0.0
H233 H 0.40241 0.49172 0.89494 0.0
H234 H 0.45107 0.40305 0.94799 0.0
H235 H 0.51953 0.46448 0.9256 0.0
H236 H 0.69476 0.77991 0.91493 0.0
H237 H 0.62422 0.7081 0.89409 0.0
H238 H 0.72853 0.66625 0.94346 0.0
H239 H 0.65825 0.59445 0.92229 0.0
H240 H 0.7559 0.70477 0.84925 0.0
H241 H 0.69115 0.63481 0.8706 0.0
H242 H 0.63303 0.73676 0.82761 0.0
H243 H 0.56821 0.66616 0.84859 0.0
N244 N 0.54077 0.56291 0.86442 0.0
N245 N 0.55314 0.56103 0.90478 0.0
H246 H 0.08294 0.19087 0.10039 0.0
H247 H 0.95805 0.20355 0.06825 0.0
H248 H 0.09042 0.25719 0.1251 0.0
H249 H 0.96489 0.26846 0.09299 0.0
H250 H 0.0288 0.425 0.12654 0.0
H251 H 0.02674 0.35978 0.10286 0.0
H252 H 0.0423 0.27164 0.15193 0.0
H253 H 0.0449 0.33763 0.17572 0.0
C254 C 0.05691 0.20748 0.09863 0.0
C255 C 0.02025 0.19213 0.08218 0.0
C256 C 0.06106 0.24533 0.11284 0.0
C257 C 0.02866 0.26858 0.11091 0.0
C258 C 0.99133 0.25232 0.09471 0.0
C259 C 0.98724 0.21475 0.08054 0.0
C260 C 0.0316 0.39161 0.13229 0.0
C261 C 0.03635 0.38612 0.15301 0.0
C262 C 0.03036 0.35417 0.11872 0.0
C263 C 0.03363 0.31005 0.1255 0.0
C264 C 0.04002 0.30532 0.14621 0.0
C265 C 0.04145 0.34305 0.15983 0.0
H266 H 0.8693 0.03058 0.41122 0.0
H267 H 0.97473 0.17661 0.44459 0.0
H268 H 0.79508 0.01844 0.43138 0.0
H269 H 0.90132 0.16371 0.46489 0.0
H270 H 0.74978 0.15404 0.48581 0.0
H271 H 0.81975 0.16578 0.46348 0.0
H272 H 0.76377 0.99687 0.46519 0.0
H273 H 0.69321 0.98512 0.48736 0.0
C274 C 0.87672 0.06012 0.42279 0.0
C275 C 0.92812 0.10464 0.42619 0.0
C276 C 0.83422 0.05296 0.43445 0.0
C277 C 0.84215 0.09012 0.44976 0.0
C278 C 0.89344 0.13474 0.45302 0.0
C279 C 0.93574 0.14197 0.44139 0.0
C280 C 0.75262 0.11947 0.48151 0.0
C281 C 0.71619 0.06872 0.48847 0.0
C282 C 0.79272 0.12616 0.4687 0.0
C283 C 0.79764 0.08232 0.46259 0.0
C284 C 0.76075 0.0314 0.46936 0.0
C285 C 0.72041 0.02467 0.48212 0.0
H286 H 0.85994 1.00198 0.76195 0.0
H287 H 0.96447 0.93594 0.76222 0.0
H288 H 0.79796 0.92976 0.78248 0.0
H289 H 0.90407 0.86506 0.78384 0.0
H290 H 0.76187 0.71793 0.80896 0.0
H291 H 0.82243 0.78693 0.78668 0.0
H292 H 0.78629 0.89956 0.81481 0.0
H293 H 0.72368 0.82952 0.8361 0.0
C294 C 0.86979 0.97208 0.76655 0.0
C295 C 0.91705 0.97462 0.7605 0.0
C296 C 0.83446 0.93081 0.7785 0.0
C297 C 0.84603 0.89159 0.78515 0.0
C298 C 0.89321 0.89392 0.77886 0.0
C299 C 0.92806 0.9347 0.76652 0.0
C300 C 0.76716 0.75758 0.81029 0.0
C301 C 0.73808 0.76852 0.82411 0.0
C302 C 0.80204 0.79729 0.79762 0.0
C303 C 0.80932 0.84909 0.79876 0.0
C304 C 0.78088 0.85999 0.81302 0.0
C305 C 0.74528 0.82003 0.82538 0.0
H306 H 0.13404 0.01033 0.08773 0.0
H307 H 0.97741 0.97018 0.10715 0.0
H308 H 0.13624 0.94741 0.11152 0.0
H309 H 0.9802 0.90826 0.13115 0.0
H310 H 0.03071 0.83683 0.18378 0.0
H311 H 0.03734 0.90906 0.16288 0.0
H312 H 0.07547 0.84227 0.11233 0.0
H313 H 0.06797 0.7697 0.1331 0.0
C314 C 0.10062 0.9889 0.09735 0.0
C315 C 0.05549 0.99497 0.09557 0.0
C316 C 0.10176 0.95274 0.11084 0.0
C317 C 0.0583 0.92297 0.12307 0.0
C318 C 0.01432 0.93096 0.12196 0.0
C319 C 0.0127 0.96624 0.1082 0.0
C320 C 0.04078 0.8379 0.16823 0.0
C321 C 0.04859 0.79771 0.15998 0.0
C322 C 0.04444 0.879 0.15631 0.0
C323 C 0.05713 0.88123 0.13606 0.0
C324 C 0.06613 0.84169 0.12795 0.0
C325 C 0.06142 0.80004 0.13975 0.0
H326 H 0.05537 0.02448 0.44739 0.0
H327 H 0.17677 0.11077 0.40476 0.0
H328 H 0.12198 0.02069 0.46979 0.0
H329 H 0.24371 0.10826 0.42712 0.0
H330 H 0.33355 0.04016 0.46147 0.0
H331 H 0.26658 0.0438 0.43972 0.0
H332 H 0.20143 0.07955 0.49105 0.0
H333 H 0.26715 0.07361 0.51299 0.0
C334 C 0.09653 0.0431 0.443 0.0
C335 C 0.1117 0.06952 0.42481 0.0
C336 C 0.13463 0.04119 0.45578 0.0
C337 C 0.18822 0.06455 0.4503 0.0
C338 C 0.20277 0.08965 0.43175 0.0
C339 C 0.16474 0.09176 0.41907 0.0
C340 C 0.30459 0.04819 0.46816 0.0
C341 C 0.30554 0.05629 0.48899 0.0
C342 C 0.26661 0.05095 0.45566 0.0
C343 C 0.2287 0.06198 0.46366 0.0
C344 C 0.22974 0.07037 0.48447 0.0
C345 C 0.26777 0.06757 0.497 0.0
H346 H 0.15573 0.22503 0.73688 0.0
H347 H 0.12781 0.10327 0.7793 0.0
H348 H 0.22297 0.29288 0.75983 0.0
H349 H 0.19685 0.1705 0.80213 0.0
H350 H 0.28153 0.31044 0.84698 0.0
H351 H 0.21372 0.24261 0.82404 0.0
H352 H 0.30938 0.32618 0.77383 0.0
H353 H 0.37562 0.39473 0.79675 0.0
C354 C 0.164 0.21307 0.75125 0.0
C355 C 0.13536 0.15967 0.75682 0.0
C356 C 0.2031 0.25168 0.76428 0.0
C357 C 0.21511 0.23737 0.78299 0.0
C358 C 0.18772 0.18323 0.78811 0.0
C359 C 0.14849 0.14468 0.77505 0.0
C360 C 0.28783 0.31406 0.83102 0.0
C361 C 0.33357 0.35782 0.82359 0.0
C362 C 0.24922 0.27513 0.81787 0.0
C363 C 0.25602 0.27876 0.79704 0.0
C364 C 0.30218 0.32249 0.78971 0.0
C365 C 0.34031 0.36172 0.80283 0.0
H366 H 0.90715 0.14593 0.6976 0.0
H367 H 0.91858 0.01899 0.66801 0.0
H368 H 0.84069 0.1369 0.67254 0.0
H369 H 0.85086 0.00952 0.64292 0.0
H370 H 0.76559 0.05033 0.59117 0.0
H371 H 0.83443 0.05637 0.61501 0.0
H372 H 0.74806 0.07192 0.66382 0.0
H373 H 0.67976 0.06598 0.64015 0.0
C374 C 0.89545 0.11591 0.68579 0.0
C375 C 0.91803 0.08283 0.68499 0.0
C376 C 0.85704 0.1106 0.67143 0.0
C377 C 0.83994 0.07203 0.65587 0.0
C378 C 0.86335 0.03976 0.6547 0.0
C379 C 0.90199 0.04507 0.66912 0.0
C380 C 0.76116 0.05453 0.60702 0.0
C381 C 0.71758 0.05839 0.61375 0.0
C382 C 0.80054 0.05796 0.62066 0.0
C383 C 0.79706 0.0653 0.64129 0.0
C384 C 0.75264 0.06756 0.648 0.0
C385 C 0.71347 0.06418 0.63442 0.0
H386 H 0.88052 0.9546 0.02986 0.0
H387 H 0.00623 0.98622 0.98959 0.0
H388 H 0.81536 0.88455 0.00689 0.0
H389 H 0.94123 0.91663 0.96631 0.0
H390 H 0.81842 0.74992 0.94084 0.0
H391 H 0.88399 0.81988 0.96374 0.0
H392 H 0.77209 0.87408 0.97416 0.0
H393 H 0.70666 0.80407 0.95149 0.0
C394 C 0.89383 0.94702 0.01586 0.0
C395 C 0.94771 0.97676 0.01103 0.0
C396 C 0.85671 0.90691 1.00274 0.0
C397 C 0.87302 0.8953 0.98467 0.0
C398 C 0.92741 0.92437 0.98014 0.0
C399 C 0.96452 0.96438 0.99333 0.0
C400 C 0.80797 0.77686 0.94806 0.0
C401 C 0.75755 0.7717 0.94433 0.0
C402 C 0.84563 0.81719 0.96102 0.0
C403 C 0.83342 0.85285 0.97067 0.0
C404 C 0.78283 0.84739 0.96698 0.0
C405 C 0.74545 0.80748 0.95388 0.0
H406 H 0.09249 0.9972 0.34545 0.0
H407 H 0.92377 0.93783 0.33446 0.0
H408 H 0.08749 0.92821 0.32299 0.0
H409 H 0.91934 0.86894 0.31142 0.0
H410 H 0.97515 0.80228 0.25495 0.0
H411 H 0.97035 0.86865 0.27627 0.0
H412 H 0.03065 0.82053 0.32687 0.0
H413 H 0.03289 0.75238 0.3061 0.0
C414 C 0.05442 0.96988 0.33803 0.0
C415 C 0.00843 0.97286 0.34178 0.0
C416 C 0.05162 0.93026 0.32525 0.0
C417 C 1.00302 0.89325 0.31565 0.0
C418 C 0.95727 0.89719 0.3187 0.0
C419 C 0.95982 0.93644 0.33186 0.0
C420 C 0.98629 0.80489 0.27071 0.0
C421 C 0.00502 0.77212 0.27869 0.0
C422 C 0.98367 0.84307 0.28285 0.0
C423 C 1.00052 0.84976 0.3031 0.0
C424 C 0.01802 0.81643 0.31121 0.0
C425 C 0.01974 0.77773 0.29922 0.0
H426 H 0.09605 0.96604 0.68316 0.0
H427 H 0.13885 0.12171 0.66115 0.0
H428 H 0.15591 0.95974 0.65952 0.0
H429 H 0.19771 0.11472 0.63724 0.0
H430 H 0.25868 0.05227 0.58507 0.0
H431 H 0.19049 0.05176 0.60628 0.0
H432 H 0.26207 0.01892 0.65775 0.0
H433 H 0.33074 0.02055 0.63666 0.0
C434 C 0.11746 0.99843 0.67303 0.0
C435 C 0.11294 0.04443 0.67402 0.0
C436 C 0.15186 0.99491 0.65961 0.0
C437 C 0.18141 0.03681 0.64665 0.0
C438 C 0.17512 0.08178 0.64702 0.0
C439 C 0.1416 0.0858 0.66073 0.0
C440 C 0.25951 0.04469 0.6009 0.0
C441 C 0.29987 0.03658 0.6093 0.0
C442 C 0.22076 0.04457 0.613 0.0
C443 C 0.22104 0.03509 0.63359 0.0
C444 C 0.26076 0.02587 0.64188 0.0
C445 C 0.30013 0.02713 0.62988 0.0
H446 H 0.08577 0.21951 0.98996 0.0
H447 H 0.19037 0.17827 0.02286 0.0
H448 H 0.1599 0.28116 0.9703 0.0
H449 H 0.26523 0.2413 1.00325 0.0
H450 H 0.36846 0.31448 0.94753 0.0
H451 H 0.2977 0.25354 0.96912 0.0
H452 H 0.24157 0.36589 0.97377 0.0
H453 H 0.31184 0.42637 0.95214 0.0
C454 C 0.12467 0.22382 0.99315 0.0
C455 C 0.13194 0.19384 0.0081 0.0
C456 C 0.16736 0.25954 0.9819 0.0
C457 C 0.21864 0.2665 0.98527 0.0
C458 C 0.22612 0.23656 1.00017 0.0
C459 C 0.18324 0.20064 0.01148 0.0
C460 C 0.34128 0.32631 0.95334 0.0
C461 C 0.34543 0.37502 0.94796 0.0
C462 C 0.30081 0.29145 0.96574 0.0
C463 C 0.26369 0.30462 0.97306 0.0
C464 C 0.26877 0.35396 0.96806 0.0
C465 C 0.30905 0.38866 0.95565 0.0
H466 H 0.10757 0.28274 0.36481 0.0
H467 H 0.98148 0.14262 0.33366 0.0
H468 H 0.10432 0.3384 0.33845 0.0
H469 H 0.97881 0.19883 0.30706 0.0
H470 H 0.95081 0.33062 0.27841 0.0
H471 H 0.95321 0.26846 0.30234 0.0
H472 H 0.12575 0.35625 0.30299 0.0
H473 H 0.12343 0.41803 0.27901 0.0
C474 C 0.07917 0.26368 0.35233 0.0
C475 C 0.04468 0.20807 0.35144 0.0
C476 C 0.07765 0.29566 0.33711 0.0
C477 C 0.04149 0.27302 0.32061 0.0
C478 C 0.00688 0.21747 0.31966 0.0
C479 C 0.00862 0.18529 0.33486 0.0
C480 C 0.98923 0.33611 0.28339 0.0
C481 C 0.03695 0.37966 0.27695 0.0
C482 C 0.99058 0.3005 0.29712 0.0
C483 C 0.03967 0.30778 0.30472 0.0
C484 C 0.08729 0.35019 0.29772 0.0
C485 C 0.08595 0.38561 0.28399 0.0
loop_
_geom_bond_atom_site_label_1
_geom_bond_atom_site_label_2
_geom_bond_distance
_geom_bond_site_symmetry_2
_ccdc_geom_bond_type
Mn0 O5 2.095 . S
Mn0 O15 2.162 . S
Mn0 O16 2.297 1_545 S
Mn0 O24 2.385 1_545 S
Mn0 O25 2.209 1_455 S
Mn0 O26 2.094 . S
Mn1 O6 2.121 . S
Mn1 N8 2.257 . S
Mn1 N17 2.282 1_554 S
Mn1 O25 2.215 . S
Mn1 O27 2.117 1_655 S
C2 O24 1.234 1_645 S
C2 O25 1.283 . S
C3 O15 1.281 1_565 S
C3 O16 1.236 . S
C4 O26 1.240 . S
C4 O27 1.264 . S
O5 Mn0 2.095 . S
O5 C14 1.250 . S
O6 Mn1 2.121 . S
O6 C14 1.256 1_655 S
C7 N8 1.326 . S
C7 C11 1.460 . S
C7 H13 0.929 . S
N8 Mn1 2.257 . S
N8 C7 1.326 . S
N8 C12 1.362 . S
C9 C10 1.258 1_556 S
C9 C12 1.431 1_556 S
C9 C29 1.449 . S
C10 C9 1.258 1_554 S
C10 C11 1.477 . S
C10 H30 0.931 . S
C11 C7 1.460 . S
C11 C10 1.477 . S
C11 H31 0.930 . S
C12 N8 1.362 . S
C12 C9 1.431 1_554 S
C12 C22 1.476 1_554 S
H13 C7 0.929 . S
C14 O5 1.250 . S
C14 O6 1.256 1_455 S
O15 Mn0 2.162 . S
O15 C3 1.281 1_545 S
O16 Mn0 2.297 1_565 S
O16 C3 1.236 . S
N17 Mn1 2.282 1_556 S
N17 C18 1.328 . S
N17 C22 1.318 . S
C18 N17 1.328 . S
C18 C19 1.457 . S
C18 H23 0.929 1_655 S
C19 C18 1.457 . S
C19 C20 1.291 . S
C19 H32 0.931 . S
C20 C19 1.291 . S
C20 C21 1.373 . S
C20 H33 0.929 . S
C21 C20 1.373 . S
C21 C22 1.396 . S
C21 C28 1.403 . S
C22 C12 1.476 1_556 S
C22 N17 1.318 . S
C22 C21 1.396 . S
H23 C18 0.929 1_455 S
O24 Mn0 2.385 1_565 S
O24 C2 1.234 1_465 S
O25 Mn0 2.209 1_655 S
O25 Mn1 2.215 . S
O25 C2 1.283 . S
O26 Mn0 2.094 . S
O26 C4 1.240 . S
O27 Mn1 2.117 1_455 S
O27 C4 1.264 . S
C28 C21 1.403 . S
C28 C29 1.399 . S
C28 H34 0.929 . S
C29 C9 1.449 . S
C29 C28 1.399 . S
C29 H35 0.930 . S
H30 C10 0.931 . S
H31 C11 0.930 . S
H32 C19 0.931 . S
H33 C20 0.929 . S
H34 C28 0.929 . S
H35 C29 0.930 . S
Mn36 O41 2.095 . S
Mn36 O51 2.162 1_545 S
Mn36 O52 2.297 1_655 S
Mn36 O60 2.385 1_655 S
Mn36 O61 2.209 1_655 S
Mn36 O62 2.094 . S
Mn37 O42 2.121 . S
Mn37 N44 2.257 . S
Mn37 N53 2.282 . S
Mn37 O61 2.215 . S
Mn37 O63 2.117 1_455 S
C38 O60 1.234 . S
C38 O61 1.283 . S
C39 O51 1.281 1_455 S
C39 O52 1.236 1_565 S
C40 O62 1.240 . S
C40 O63 1.264 . S
O41 Mn36 2.095 . S
O41 C50 1.250 1_655 S
O42 Mn37 2.121 . S
O42 C50 1.258 . S
C43 N44 1.326 . S
C43 C47 1.460 . S
C43 H49 0.929 . S
N44 Mn37 2.257 . S
N44 C43 1.326 . S
N44 C48 1.362 . S
C45 C46 1.258 . S
C45 C48 1.431 . S
C45 C65 1.449 . S
C46 C45 1.258 . S
C46 C47 1.477 . S
C46 H66 0.931 . S
C47 C43 1.460 . S
C47 C46 1.477 . S
C47 H67 0.930 . S
C48 N44 1.362 . S
C48 C45 1.431 . S
C48 C58 1.476 . S
H49 C43 0.929 . S
C50 O41 1.250 1_455 S
C50 O42 1.258 . S
O51 Mn36 2.162 1_565 S
O51 C39 1.281 1_655 S
O52 Mn36 2.297 1_455 S
O52 C39 1.236 1_545 S
N53 Mn37 2.282 . S
N53 C54 1.328 . S
N53 C58 1.318 . S
C54 N53 1.328 . S
C54 C55 1.457 . S
C54 H59 0.929 . S
C55 C54 1.457 . S
C55 C56 1.291 . S
C55 H68 0.931 . S
C56 C55 1.291 . S
C56 C57 1.373 . S
C56 H69 0.929 . S
C57 C56 1.373 . S
C57 C58 1.396 . S
C57 C64 1.403 . S
C58 C48 1.476 . S
C58 N53 1.318 . S
C58 C57 1.396 . S
H59 C54 0.929 . S
O60 Mn36 2.385 1_455 S
O60 C38 1.234 . S
O61 Mn36 2.209 1_455 S
O61 Mn37 2.215 . S
O61 C38 1.283 . S
O62 Mn36 2.094 . S
O62 C40 1.240 . S
O63 Mn37 2.117 1_655 S
O63 C40 1.264 . S
C64 C57 1.403 . S
C64 C65 1.399 . S
C64 H70 0.929 . S
C65 C45 1.449 . S
C65 C64 1.399 . S
C65 H71 0.930 . S
H66 C46 0.931 . S
H67 C47 0.930 . S
H68 C55 0.931 . S
H69 C56 0.929 . S
H70 C64 0.929 . S
H71 C65 0.930 . S
Mn72 O77 2.095 1_455 S
Mn72 O87 2.162 . S
Mn72 O88 2.297 . S
Mn72 O96 2.385 . S
Mn72 O97 2.209 . S
Mn72 O98 2.094 1_445 S
Mn73 O78 2.121 . S
Mn73 N80 2.257 . S
Mn73 N89 2.282 1_655 S
Mn73 O97 2.215 1_655 S
Mn73 O99 2.117 . S
C74 O96 1.234 . S
C74 O97 1.283 . S
C75 O87 1.281 . S
C75 O88 1.236 . S
C76 O98 1.240 . S
C76 O99 1.264 1_565 S
O77 Mn72 2.095 1_655 S
O77 C86 1.250 . S
O78 Mn73 2.121 . S
O78 C86 1.258 . S
C79 N80 1.326 . S
C79 C83 1.460 1_655 S
C79 H85 0.929 . S
N80 Mn73 2.257 . S
N80 C79 1.326 . S
N80 C84 1.362 1_655 S
C81 C82 1.258 . S
C81 C84 1.431 . S
C81 C101 1.449 . S
C82 C81 1.258 . S
C82 C83 1.477 . S
C82 H102 0.931 . S
C83 C79 1.460 1_455 S
C83 C82 1.477 . S
C83 H103 0.930 1_455 S
C84 N80 1.362 1_455 S
C84 C81 1.431 . S
C84 C94 1.476 . S
H85 C79 0.929 . S
C86 O77 1.250 . S
C86 O78 1.258 . S
O87 Mn72 2.162 . S
O87 C75 1.281 . S
O88 Mn72 2.297 . S
O88 C75 1.236 . S
N89 Mn73 2.282 1_455 S
N89 C90 1.328 . S
N89 C94 1.318 . S
C90 N89 1.328 . S
C90 C91 1.457 . S
C90 H95 0.929 1_455 S
C91 C90 1.457 . S
C91 C92 1.291 . S
C91 H104 0.931 . S
C92 C91 1.291 . S
C92 C93 1.373 . S
C92 H105 0.929 . S
C93 C92 1.373 . S
C93 C94 1.396 . S
C93 C100 1.403 . S
C94 C84 1.476 . S
C94 N89 1.318 . S
C94 C93 1.396 . S
H95 C90 0.929 1_655 S
O96 Mn72 2.385 . S
O96 C74 1.234 . S
O97 Mn72 2.209 . S
O97 Mn73 2.215 1_455 S
O97 C74 1.283 . S
O98 Mn72 2.094 1_665 S
O98 C76 1.240 . S
O99 Mn73 2.117 . S
O99 C76 1.264 1_545 S
C100 C93 1.403 . S
C100 C101 1.399 . S
C100 H106 0.929 . S
C101 C81 1.449 . S
C101 C100 1.399 . S
C101 H107 0.930 . S
H102 C82 0.931 . S
H103 C83 0.930 1_655 S
H104 C91 0.931 . S
H105 C92 0.929 . S
H106 C100 0.929 . S
H107 C101 0.930 . S
C108 C109 1.384 1_655 S
C108 C110 1.384 . S
C108 H136 0.931 . S
C109 C108 1.384 1_455 S
C109 C112 1.382 . S
C110 C108 1.384 . S
C110 C111 1.381 1_655 S
C110 H137 0.930 . S
C111 C110 1.381 1_455 S
C111 C113 1.381 . S
C111 C114 1.487 . S
C112 C109 1.382 . S
C112 C113 1.387 . S
C112 H138 0.930 . S
C113 C111 1.381 . S
C113 C112 1.387 . S
C113 H139 0.931 . S
C114 C111 1.487 . S
C114 C121 1.399 . S
C114 N152 1.343 . S
C115 C116 1.384 . S
C115 C117 1.384 . S
C115 H140 0.931 . S
C116 C115 1.384 . S
C116 C119 1.382 1_455 S
C117 C115 1.384 . S
C117 C118 1.381 . S
C117 H141 0.930 . S
C118 C117 1.381 . S
C118 C120 1.381 1_455 S
C118 C121 1.487 . S
C119 C116 1.382 1_655 S
C119 C120 1.387 . S
C119 H142 0.930 . S
C120 C118 1.381 1_655 S
C120 C119 1.387 . S
C120 H143 0.931 . S
C121 C114 1.399 . S
C121 C118 1.487 . S
C121 N153 1.343 . S
C122 C123 1.384 . S
C122 C124 1.384 . S
C122 H144 0.931 . S
C123 C122 1.384 . S
C123 C126 1.382 1_455 S
C124 C122 1.384 . S
C124 C125 1.381 . S
C124 H145 0.930 . S
C125 C124 1.381 . S
C125 C127 1.381 1_455 S
C125 C128 1.487 . S
C126 C123 1.382 1_655 S
C126 C127 1.387 . S
C126 H146 0.930 . S
C127 C125 1.381 1_655 S
C127 C126 1.387 . S
C127 H147 0.931 . S
C128 C125 1.487 . S
C128 C135 1.399 . S
C128 N153 1.343 . S
C129 C130 1.384 1_655 S
C129 C131 1.384 . S
C129 H148 0.931 . S
C130 C129 1.384 1_455 S
C130 C133 1.382 . S
C131 C129 1.384 . S
C131 C132 1.381 1_655 S
C131 H149 0.930 . S
C132 C131 1.381 1_455 S
C132 C134 1.381 . S
C132 C135 1.487 . S
C133 C130 1.382 . S
C133 C134 1.387 . S
C133 H150 0.930 . S
C134 C132 1.381 . S
C134 C133 1.387 . S
C134 H151 0.931 . S
C135 C128 1.399 . S
C135 C132 1.487 . S
C135 N152 1.343 . S
H136 C108 0.931 . S
H137 C110 0.930 . S
H138 C112 0.930 . S
H139 C113 0.931 . S
H140 C115 0.931 . S
H141 C117 0.930 . S
H142 C119 0.930 . S
H143 C120 0.931 . S
H144 C122 0.931 . S
H145 C124 0.930 . S
H146 C126 0.930 . S
H147 C127 0.931 . S
H148 C129 0.931 . S
H149 C131 0.930 . S
H150 C133 0.930 . S
H151 C134 0.931 . S
N152 C114 1.343 . S
N152 C135 1.343 . S
N153 C121 1.343 . S
N153 C128 1.343 . S
C154 C155 1.384 . S
C154 C156 1.384 . S
C154 H182 0.931 . S
C155 C154 1.384 . S
C155 C158 1.382 . S
C156 C154 1.384 . S
C156 C157 1.381 . S
C156 H183 0.930 . S
C157 C156 1.381 . S
C157 C159 1.381 . S
C157 C160 1.487 . S
C158 C155 1.382 . S
C158 C159 1.387 . S
C158 H184 0.930 . S
C159 C157 1.381 . S
C159 C158 1.387 . S
C159 H185 0.931 . S
C160 C157 1.487 . S
C160 C167 1.399 . S
C160 N198 1.343 . S
C161 C162 1.384 . S
C161 C163 1.384 . S
C161 H186 0.931 . S
C162 C161 1.384 . S
C162 C165 1.382 . S
C163 C161 1.384 . S
C163 C164 1.381 . S
C163 H187 0.930 . S
C164 C163 1.381 . S
C164 C166 1.381 . S
C164 C167 1.487 . S
C165 C162 1.382 . S
C165 C166 1.387 . S
C165 H188 0.930 . S
C166 C164 1.381 . S
C166 C165 1.387 . S
C166 H189 0.931 . S
C167 C160 1.399 . S
C167 C164 1.487 . S
C167 N199 1.343 . S
C168 C169 1.384 . S
C168 C170 1.384 . S
C168 H190 0.931 . S
C169 C168 1.384 . S
C169 C172 1.382 . S
C170 C168 1.384 . S
C170 C171 1.381 . S
C170 H191 0.930 . S
C171 C170 1.381 . S
C171 C173 1.381 . S
C171 C174 1.487 . S
C172 C169 1.382 . S
C172 C173 1.387 . S
C172 H192 0.930 . S
C173 C171 1.381 . S
C173 C172 1.387 . S
C173 H193 0.931 . S
C174 C171 1.487 . S
C174 C181 1.399 . S
C174 N199 1.343 . S
C175 C176 1.384 . S
C175 C177 1.384 . S
C175 H194 0.931 . S
C176 C175 1.384 . S
C176 C179 1.382 . S
C177 C175 1.384 . S
C177 C178 1.381 . S
C177 H195 0.930 . S
C178 C177 1.381 . S
C178 C180 1.381 . S
C178 C181 1.487 . S
C179 C176 1.382 . S
C179 C180 1.387 . S
C179 H196 0.930 . S
C180 C178 1.381 . S
C180 C179 1.387 . S
C180 H197 0.931 . S
C181 C174 1.399 . S
C181 C178 1.487 . S
C181 N198 1.343 . S
H182 C154 0.931 . S
H183 C156 0.930 . S
H184 C158 0.930 . S
H185 C159 0.931 . S
H186 C161 0.931 . S
H187 C163 0.930 . S
H188 C165 0.930 . S
H189 C166 0.931 . S
H190 C168 0.931 . S
H191 C170 0.930 . S
H192 C172 0.930 . S
H193 C173 0.931 . S
H194 C175 0.931 . S
H195 C177 0.930 . S
H196 C179 0.930 . S
H197 C180 0.931 . S
N198 C160 1.343 . S
N198 C181 1.343 . S
N199 C167 1.343 . S
N199 C174 1.343 . S
C200 C201 1.384 . S
C200 C202 1.384 . S
C200 H228 0.931 . S
C201 C200 1.384 . S
C201 C204 1.382 . S
C202 C200 1.384 . S
C202 C203 1.381 . S
C202 H229 0.930 . S
C203 C202 1.381 . S
C203 C205 1.381 . S
C203 C206 1.487 . S
C204 C201 1.382 . S
C204 C205 1.387 . S
C204 H230 0.930 . S
C205 C203 1.381 . S
C205 C204 1.387 . S
C205 H231 0.931 . S
C206 C203 1.487 . S
C206 C213 1.399 . S
C206 N244 1.343 . S
C207 C208 1.384 . S
C207 C209 1.384 . S
C207 H232 0.931 . S
C208 C207 1.384 . S
C208 C211 1.382 . S
C209 C207 1.384 . S
C209 C210 1.381 . S
C209 H233 0.930 . S
C210 C209 1.381 . S
C210 C212 1.381 . S
C210 C213 1.487 . S
C211 C208 1.382 . S
C211 C212 1.387 . S
C211 H234 0.930 . S
C212 C210 1.381 . S
C212 C211 1.387 . S
C212 H235 0.931 . S
C213 C206 1.399 . S
C213 C210 1.487 . S
C213 N245 1.343 . S
C214 C215 1.384 . S
C214 C216 1.384 . S
C214 H236 0.931 . S
C215 C214 1.384 . S
C215 C218 1.382 . S
C216 C214 1.384 . S
C216 C217 1.381 . S
C216 H237 0.930 . S
C217 C216 1.381 . S
C217 C219 1.381 . S
C217 C220 1.487 . S
C218 C215 1.382 . S
C218 C219 1.387 . S
C218 H238 0.930 . S
C219 C217 1.381 . S
C219 C218 1.387 . S
C219 H239 0.931 . S
C220 C217 1.487 . S
C220 C227 1.399 . S
C220 N245 1.343 . S
C221 C222 1.384 . S
C221 C223 1.384 . S
C221 H240 0.931 . S
C222 C221 1.384 . S
C222 C225 1.382 . S
C223 C221 1.384 . S
C223 C224 1.381 . S
C223 H241 0.930 . S
C224 C223 1.381 . S
C224 C226 1.381 . S
C224 C227 1.487 . S
C225 C222 1.382 . S
C225 C226 1.387 . S
C225 H242 0.930 . S
C226 C224 1.381 . S
C226 C225 1.387 . S
C226 H243 0.931 . S
C227 C220 1.399 . S
C227 C224 1.487 . S
C227 N244 1.343 . S
H228 C200 0.931 . S
H229 C202 0.930 . S
H230 C204 0.930 . S
H231 C205 0.931 . S
H232 C207 0.931 . S
H233 C209 0.930 . S
H234 C211 0.930 . S
H235 C212 0.931 . S
H236 C214 0.931 . S
H237 C216 0.930 . S
H238 C218 0.930 . S
H239 C219 0.931 . S
H240 C221 0.931 . S
H241 C223 0.930 . S
H242 C225 0.930 . S
H243 C226 0.931 . S
N244 C206 1.343 . S
N244 C227 1.343 . S
N245 C213 1.343 . S
N245 C220 1.343 . S
H246 C254 0.950 . S
H247 C259 0.950 1_655 S
H248 C256 0.950 . S
H249 C258 0.950 1_655 S
H250 C260 0.950 1_655 S
H251 C262 0.950 1_655 S
H252 C264 0.950 . S
H253 C265 0.950 . S
C254 H246 0.950 . S
C254 C255 1.386 . S
C254 C256 1.391 . S
C255 C254 1.386 . S
C255 C259 1.393 . S
C256 H248 0.950 . S
C256 C254 1.391 . S
C256 C257 1.400 . S
C257 C256 1.400 . S
C257 C258 1.398 . S
C257 C263 1.491 . S
C258 H249 0.950 1_455 S
C258 C257 1.398 . S
C258 C259 1.391 . S
C259 H247 0.950 1_455 S
C259 C255 1.393 . S
C259 C258 1.391 . S
C260 H250 0.950 1_455 S
C260 C261 1.386 . S
C260 C262 1.391 . S
C261 C260 1.386 . S
C261 C265 1.393 . S
C262 H251 0.950 1_455 S
C262 C260 1.391 . S
C262 C263 1.400 . S
C263 C257 1.491 . S
C263 C262 1.400 . S
C263 C264 1.398 . S
C264 H252 0.950 . S
C264 C263 1.398 . S
C264 C265 1.391 . S
C265 H253 0.950 . S
C265 C261 1.393 . S
C265 C264 1.391 . S
H266 C274 0.950 1_565 S
H267 C279 0.950 . S
H268 C276 0.950 1_565 S
H269 C278 0.950 . S
H270 C280 0.950 . S
H271 C282 0.950 . S
H272 C284 0.950 . S
H273 C285 0.950 . S
C274 H266 0.950 1_545 S
C274 C275 1.386 . S
C274 C276 1.391 . S
C275 C274 1.386 . S
C275 C279 1.393 . S
C276 H268 0.950 1_545 S
C276 C274 1.391 . S
C276 C277 1.400 . S
C277 C276 1.400 . S
C277 C278 1.398 . S
C277 C283 1.491 . S
C278 H269 0.950 . S
C278 C277 1.398 . S
C278 C279 1.391 . S
C279 H267 0.950 . S
C279 C275 1.393 . S
C279 C278 1.391 . S
C280 H270 0.950 . S
C280 C281 1.386 . S
C280 C282 1.391 . S
C281 C280 1.386 . S
C281 C285 1.393 . S
C282 H271 0.950 . S
C282 C280 1.391 . S
C282 C283 1.400 . S
C283 C277 1.491 . S
C283 C282 1.400 . S
C283 C284 1.398 . S
C284 H272 0.950 . S
C284 C283 1.398 . S
C284 C285 1.391 . S
C285 H273 0.950 . S
C285 C281 1.393 . S
C285 C284 1.391 . S
H286 C294 0.950 . S
H287 C299 0.950 . S
H288 C296 0.950 . S
H289 C298 0.950 . S
H290 C300 0.950 . S
H291 C302 0.950 . S
H292 C304 0.950 . S
H293 C305 0.950 . S
C294 H286 0.950 . S
C294 C295 1.386 . S
C294 C296 1.391 . S
C295 C294 1.386 . S
C295 C299 1.393 . S
C296 H288 0.950 . S
C296 C294 1.391 . S
C296 C297 1.400 . S
C297 C296 1.400 . S
C297 C298 1.398 . S
C297 C303 1.491 . S
C298 H289 0.950 . S
C298 C297 1.398 . S
C298 C299 1.391 . S
C299 H287 0.950 . S
C299 C295 1.393 . S
C299 C298 1.391 . S
C300 H290 0.950 . S
C300 C301 1.386 . S
C300 C302 1.391 . S
C301 C300 1.386 . S
C301 C305 1.393 . S
C302 H291 0.950 . S
C302 C300 1.391 . S
C302 C303 1.400 . S
C303 C297 1.491 . S
C303 C302 1.400 . S
C303 C304 1.398 . S
C304 H292 0.950 . S
C304 C303 1.398 . S
C304 C305 1.391 . S
C305 H293 0.950 . S
C305 C301 1.393 . S
C305 C304 1.391 . S
H306 C314 0.950 . S
H307 C319 0.950 . S
H308 C316 0.950 . S
H309 C318 0.950 . S
H310 C320 0.950 . S
H311 C322 0.950 . S
H312 C324 0.950 . S
H313 C325 0.950 . S
C314 H306 0.950 . S
C314 C315 1.386 . S
C314 C316 1.391 . S
C315 C314 1.386 . S
C315 C319 1.393 . S
C316 H308 0.950 . S
C316 C314 1.391 . S
C316 C317 1.400 . S
C317 C316 1.400 . S
C317 C318 1.398 . S
C317 C323 1.491 . S
C318 H309 0.950 . S
C318 C317 1.398 . S
C318 C319 1.391 . S
C319 H307 0.950 . S
C319 C315 1.393 . S
C319 C318 1.391 . S
C320 H310 0.950 . S
C320 C321 1.386 . S
C320 C322 1.391 . S
C321 C320 1.386 . S
C321 C325 1.393 . S
C322 H311 0.950 . S
C322 C320 1.391 . S
C322 C323 1.400 . S
C323 C317 1.491 . S
C323 C322 1.400 . S
C323 C324 1.398 . S
C324 H312 0.950 . S
C324 C323 1.398 . S
C324 C325 1.391 . S
C325 H313 0.950 . S
C325 C321 1.393 . S
C325 C324 1.391 . S
H326 C334 0.950 . S
H327 C339 0.950 . S
H328 C336 0.950 . S
H329 C338 0.950 . S
H330 C340 0.950 . S
H331 C342 0.950 . S
H332 C344 0.950 . S
H333 C345 0.950 . S
C334 H326 0.950 . S
C334 C335 1.386 . S
C334 C336 1.391 . S
C335 C334 1.386 . S
C335 C339 1.393 . S
C336 H328 0.950 . S
C336 C334 1.391 . S
C336 C337 1.400 . S
C337 C336 1.400 . S
C337 C338 1.398 . S
C337 C343 1.491 . S
C338 H329 0.950 . S
C338 C337 1.398 . S
C338 C339 1.391 . S
C339 H327 0.950 . S
C339 C335 1.393 . S
C339 C338 1.391 . S
C340 H330 0.950 . S
C340 C341 1.386 . S
C340 C342 1.391 . S
C341 C340 1.386 . S
C341 C345 1.393 . S
C342 H331 0.950 . S
C342 C340 1.391 . S
C342 C343 1.400 . S
C343 C337 1.491 . S
C343 C342 1.400 . S
C343 C344 1.398 . S
C344 H332 0.950 . S
C344 C343 1.398 . S
C344 C345 1.391 . S
C345 H333 0.950 . S
C345 C341 1.393 . S
C345 C344 1.391 . S
H346 C354 0.950 . S
H347 C359 0.950 . S
H348 C356 0.950 . S
H349 C358 0.950 . S
H350 C360 0.950 . S
H351 C362 0.950 . S
H352 C364 0.950 . S
H353 C365 0.950 . S
C354 H346 0.950 . S
C354 C355 1.386 . S
C354 C356 1.391 . S
C355 C354 1.386 . S
C355 C359 1.393 . S
C356 H348 0.950 . S
C356 C354 1.391 . S
C356 C357 1.400 . S
C357 C356 1.400 . S
C357 C358 1.398 . S
C357 C363 1.491 . S
C358 H349 0.950 . S
C358 C357 1.398 . S
C358 C359 1.391 . S
C359 H347 0.950 . S
C359 C355 1.393 . S
C359 C358 1.391 . S
C360 H350 0.950 . S
C360 C361 1.386 . S
C360 C362 1.391 . S
C361 C360 1.386 . S
C361 C365 1.393 . S
C362 H351 0.950 . S
C362 C360 1.391 . S
C362 C363 1.400 . S
C363 C357 1.491 . S
C363 C362 1.400 . S
C363 C364 1.398 . S
C364 H352 0.950 . S
C364 C363 1.398 . S
C364 C365 1.391 . S
C365 H353 0.950 . S
C365 C361 1.393 . S
C365 C364 1.391 . S
H366 C374 0.950 . S
H367 C379 0.950 . S
H368 C376 0.950 . S
H369 C378 0.950 . S
H370 C380 0.950 . S
H371 C382 0.950 . S
H372 C384 0.950 . S
H373 C385 0.950 . S
C374 H366 0.950 . S
C374 C375 1.386 . S
C374 C376 1.391 . S
C375 C374 1.386 . S
C375 C379 1.393 . S
C376 H368 0.950 . S
C376 C374 1.391 . S
C376 C377 1.400 . S
C377 C376 1.400 . S
C377 C378 1.398 . S
C377 C383 1.491 . S
C378 H369 0.950 . S
C378 C377 1.398 . S
C378 C379 1.391 . S
C379 H367 0.950 . S
C379 C375 1.393 . S
C379 C378 1.391 . S
C380 H370 0.950 . S
C380 C381 1.386 . S
C380 C382 1.391 . S
C381 C380 1.386 . S
C381 C385 1.393 . S
C382 H371 0.950 . S
C382 C380 1.391 . S
C382 C383 1.400 . S
C383 C377 1.491 . S
C383 C382 1.400 . S
C383 C384 1.398 . S
C384 H372 0.950 . S
C384 C383 1.398 . S
C384 C385 1.391 . S
C385 H373 0.950 . S
C385 C381 1.393 . S
C385 C384 1.391 . S
H386 C394 0.950 . S
H387 C399 0.950 . S
H388 C396 0.957 . S
H389 C398 0.950 . S
H390 C400 0.950 . S
H391 C402 0.950 . S
H392 C404 0.950 . S
H393 C405 0.950 . S
C394 H386 0.950 . S
C394 C395 1.386 . S
C394 C396 1.410 . S
C395 C394 1.386 . S
C395 C399 1.393 1_554 S
C396 H388 0.957 . S
C396 C394 1.410 . S
C396 C397 1.375 1_554 S
C397 C396 1.375 1_556 S
C397 C398 1.398 . S
C397 C403 1.491 . S
C398 H389 0.950 . S
C398 C397 1.398 . S
C398 C399 1.391 . S
C399 H387 0.950 . S
C399 C395 1.393 1_556 S
C399 C398 1.391 . S
C400 H390 0.950 . S
C400 C401 1.386 . S
C400 C402 1.391 . S
C401 C400 1.386 . S
C401 C405 1.393 . S
C402 H391 0.950 . S
C402 C400 1.391 . S
C402 C403 1.400 . S
C403 C397 1.491 . S
C403 C402 1.400 . S
C403 C404 1.398 . S
C404 H392 0.950 . S
C404 C403 1.398 . S
C404 C405 1.391 . S
C405 H393 0.950 . S
C405 C401 1.393 . S
C405 C404 1.391 . S
H406 C414 0.950 . S
H407 C419 0.950 . S
H408 C416 0.950 . S
H409 C418 0.950 . S
H410 C420 0.950 . S
H411 C422 0.950 . S
H412 C424 0.950 . S
H413 C425 0.950 . S
C414 H406 0.950 . S
C414 C415 1.386 . S
C414 C416 1.391 . S
C415 C414 1.386 . S
C415 C419 1.393 1_455 S
C416 H408 0.950 . S
C416 C414 1.391 . S
C416 C417 1.400 . S
C417 C416 1.400 . S
C417 C418 1.398 1_455 S
C417 C423 1.491 . S
C418 H409 0.950 . S
C418 C417 1.398 1_655 S
C418 C419 1.391 . S
C419 H407 0.950 . S
C419 C415 1.393 1_655 S
C419 C418 1.391 . S
C420 H410 0.950 . S
C420 C421 1.386 1_655 S
C420 C422 1.391 . S
C421 C420 1.386 1_455 S
C421 C425 1.393 . S
C422 H411 0.950 . S
C422 C420 1.391 . S
C422 C423 1.400 1_655 S
C423 C417 1.491 . S
C423 C422 1.400 1_455 S
C423 C424 1.398 . S
C424 H412 0.950 . S
C424 C423 1.398 . S
C424 C425 1.391 . S
C425 H413 0.950 . S
C425 C421 1.393 . S
C425 C424 1.391 . S
H426 C434 0.950 . S
H427 C439 0.950 . S
H428 C436 0.950 . S
H429 C438 0.950 . S
H430 C440 0.950 . S
H431 C442 0.950 . S
H432 C444 0.950 . S
H433 C445 0.950 . S
C434 H426 0.950 . S
C434 C435 1.386 . S
C434 C436 1.391 . S
C435 C434 1.386 . S
C435 C439 1.393 . S
C436 H428 0.950 . S
C436 C434 1.391 . S
C436 C437 1.400 . S
C437 C436 1.400 . S
C437 C438 1.398 . S
C437 C443 1.491 . S
C438 H429 0.950 . S
C438 C437 1.398 . S
C438 C439 1.391 . S
C439 H427 0.950 . S
C439 C435 1.393 . S
C439 C438 1.391 . S
C440 H430 0.950 . S
C440 C441 1.386 . S
C440 C442 1.391 . S
C441 C440 1.386 . S
C441 C445 1.393 . S
C442 H431 0.950 . S
C442 C440 1.391 . S
C442 C443 1.400 . S
C443 C437 1.491 . S
C443 C442 1.400 . S
C443 C444 1.398 . S
C444 H432 0.950 . S
C444 C443 1.398 . S
C444 C445 1.391 . S
C445 H433 0.950 . S
C445 C441 1.393 . S
C445 C444 1.391 . S
H446 C454 0.955 . S
H447 C459 0.950 . S
H448 C456 0.950 . S
H449 C458 0.950 . S
H450 C460 0.950 . S
H451 C462 0.950 . S
H452 C464 0.950 . S
H453 C465 0.950 . S
C454 H446 0.955 . S
C454 C455 1.386 1_556 S
C454 C456 1.391 . S
C455 C454 1.386 1_554 S
C455 C459 1.393 . S
C456 H448 0.950 . S
C456 C454 1.391 . S
C456 C457 1.400 . S
C457 C456 1.400 . S
C457 C458 1.398 . S
C457 C463 1.491 . S
C458 H449 0.950 . S
C458 C457 1.398 . S
C458 C459 1.391 1_556 S
C459 H447 0.950 . S
C459 C455 1.393 . S
C459 C458 1.391 1_554 S
C460 H450 0.950 . S
C460 C461 1.386 . S
C460 C462 1.391 . S
C461 C460 1.386 . S
C461 C465 1.393 . S
C462 H451 0.950 . S
C462 C460 1.391 . S
C462 C463 1.400 . S
C463 C457 1.491 . S
C463 C462 1.400 . S
C463 C464 1.398 . S
C464 H452 0.950 . S
C464 C463 1.398 . S
C464 C465 1.391 . S
C465 H453 0.950 . S
C465 C461 1.393 . S
C465 C464 1.391 . S
H466 C474 0.950 . S
H467 C479 0.950 . S
H468 C476 0.950 . S
H469 C478 0.950 . S
H470 C480 0.950 . S
H471 C482 0.950 . S
H472 C484 0.950 . S
H473 C485 0.950 . S
C474 H466 0.950 . S
C474 C475 1.386 . S
C474 C476 1.391 . S
C475 C474 1.386 . S
C475 C479 1.393 1_455 S
C476 H468 0.950 . S
C476 C474 1.391 . S
C476 C477 1.400 . S
C477 C476 1.400 . S
C477 C478 1.398 1_455 S
C477 C483 1.491 . S
C478 H469 0.950 . S
C478 C477 1.398 1_655 S
C478 C479 1.391 . S
C479 H467 0.950 . S
C479 C475 1.393 1_655 S
C479 C478 1.391 . S
C480 H470 0.950 . S
C480 C481 1.386 1_655 S
C480 C482 1.391 . S
C481 C480 1.386 1_455 S
C481 C485 1.393 . S
C482 H471 0.950 . S
C482 C480 1.391 . S
C482 C483 1.400 1_655 S
C483 C477 1.491 . S
C483 C482 1.400 1_455 S
C483 C484 1.398 . S
C484 H472 0.950 . S
C484 C483 1.398 . S
C484 C485 1.391 . S
C485 H473 0.950 . S
C485 C481 1.393 . S
C485 C484 1.391 . S
C261 C116 1.477 . S
C255 C14 1.423 . S
C275 C40 1.487 . S
C281 C155 1.502 . S
C295 C76 1.473 . S
C301 C222 1.484 . S
C315 C3 1.464 . S
C321 C123 1.463 . S
C341 C176 1.500 . S
C335 C38 1.481 . S
C355 C74 1.465 . S
C361 C201 1.478 . S
C381 C162 1.455 . S
C375 C86 1.417 . S
C395 C2 1.464 1_565 S
C401 C215 1.477 . S
C421 C130 1.463 . S
C415 C39 1.465 . S
C441 C169 1.469 . S
C435 C75 1.467 . S
C461 C208 1.482 . S
C455 C4 1.471 . S
C475 C50 1.445 . S
C481 C109 1.480 . S
