# Generated by pormake.
# Topology tbo, (3,4)-cn, num edge types: 1
# Building blocks:
#     Node 0, Type 0, BuildingBlock: KAKCAD_clean_linker_0, # of connection points: 3
#     Node 1, Type 0, BuildingBlock: KAKCAD_clean_linker_0, # of connection points: 3
#     Node 2, Type 0, BuildingBlock: KAKCAD_clean_linker_0, # of connection points: 3
#     Node 3, Type 0, BuildingBlock: KAKCAD_clean_linker_0, # of connection points: 3
#     Node 4, Type 0, BuildingBlock: KAKCAD_clean_linker_0, # of connection points: 3
#     Node 5, Type 0, BuildingBlock: KAKCAD_clean_linker_0, # of connection points: 3
#     Node 6, Type 0, BuildingBlock: KAKCAD_clean_linker_0, # of connection points: 3
#     Node 7, Type 0, BuildingBlock: KAKCAD_clean_linker_0, # of connection points: 3
#     Node 8, Type 0, BuildingBlock: KAKCAD_clean_linker_0, # of connection points: 3
#     Node 9, Type 0, BuildingBlock: KAKCAD_clean_linker_0, # of connection points: 3
#     Node 10, Type 0, BuildingBlock: KAKCAD_clean_linker_0, # of connection points: 3
#     Node 11, Type 0, BuildingBlock: KAKCAD_clean_linker_0, # of connection points: 3
#     Node 12, Type 0, BuildingBlock: KAKCAD_clean_linker_0, # of connection points: 3
#     Node 13, Type 0, BuildingBlock: KAKCAD_clean_linker_0, # of connection points: 3
#     Node 14, Type 0, BuildingBlock: KAKCAD_clean_linker_0, # of connection points: 3
#     Node 15, Type 0, BuildingBlock: KAKCAD_clean_linker_0, # of connection points: 3
#     Node 16, Type 0, BuildingBlock: KAKCAD_clean_linker_0, # of connection points: 3
#     Node 17, Type 0, BuildingBlock: KAKCAD_clean_linker_0, # of connection points: 3
#     Node 18, Type 0, BuildingBlock: KAKCAD_clean_linker_0, # of connection points: 3
#     Node 19, Type 0, BuildingBlock: KAKCAD_clean_linker_0, # of connection points: 3
#     Node 20, Type 0, BuildingBlock: KAKCAD_clean_linker_0, # of connection points: 3
#     Node 21, Type 0, BuildingBlock: KAKCAD_clean_linker_0, # of connection points: 3
#     Node 22, Type 0, BuildingBlock: KAKCAD_clean_linker_0, # of connection points: 3
#     Node 23, Type 0, BuildingBlock: KAKCAD_clean_linker_0, # of connection points: 3
#     Node 24, Type 0, BuildingBlock: KAKCAD_clean_linker_0, # of connection points: 3
#     Node 25, Type 0, BuildingBlock: KAKCAD_clean_linker_0, # of connection points: 3
#     Node 26, Type 0, BuildingBlock: KAKCAD_clean_linker_0, # of connection points: 3
#     Node 27, Type 0, BuildingBlock: KAKCAD_clean_linker_0, # of connection points: 3
#     Node 28, Type 0, BuildingBlock: KAKCAD_clean_linker_0, # of connection points: 3
#     Node 29, Type 0, BuildingBlock: KAKCAD_clean_linker_0, # of connection points: 3
#     Node 30, Type 0, BuildingBlock: KAKCAD_clean_linker_0, # of connection points: 3
#     Node 31, Type 0, BuildingBlock: KAKCAD_clean_linker_0, # of connection points: 3
#     Node 32, Type 1, BuildingBlock: ESEHIV_clean_sbu_0, # of connection points: 4
#     Node 33, Type 1, BuildingBlock: ESEHIV_clean_sbu_0, # of connection points: 4
#     Node 34, Type 1, BuildingBlock: ESEHIV_clean_sbu_0, # of connection points: 4
#     Node 35, Type 1, BuildingBlock: ESEHIV_clean_sbu_0, # of connection points: 4
#     Node 36, Type 1, BuildingBlock: ESEHIV_clean_sbu_0, # of connection points: 4
#     Node 37, Type 1, BuildingBlock: ESEHIV_clean_sbu_0, # of connection points: 4
#     Node 38, Type 1, BuildingBlock: ESEHIV_clean_sbu_0, # of connection points: 4
#     Node 39, Type 1, BuildingBlock: ESEHIV_clean_sbu_0, # of connection points: 4
#     Node 40, Type 1, BuildingBlock: ESEHIV_clean_sbu_0, # of connection points: 4
#     Node 41, Type 1, BuildingBlock: ESEHIV_clean_sbu_0, # of connection points: 4
#     Node 42, Type 1, BuildingBlock: ESEHIV_clean_sbu_0, # of connection points: 4
#     Node 43, Type 1, BuildingBlock: ESEHIV_clean_sbu_0, # of connection points: 4
#     Node 44, Type 1, BuildingBlock: ESEHIV_clean_sbu_0, # of connection points: 4
#     Node 45, Type 1, BuildingBlock: ESEHIV_clean_sbu_0, # of connection points: 4
#     Node 46, Type 1, BuildingBlock: ESEHIV_clean_sbu_0, # of connection points: 4
#     Node 47, Type 1, BuildingBlock: ESEHIV_clean_sbu_0, # of connection points: 4
#     Node 48, Type 1, BuildingBlock: ESEHIV_clean_sbu_0, # of connection points: 4
#     Node 49, Type 1, BuildingBlock: ESEHIV_clean_sbu_0, # of connection points: 4
#     Node 50, Type 1, BuildingBlock: ESEHIV_clean_sbu_0, # of connection points: 4
#     Node 51, Type 1, BuildingBlock: ESEHIV_clean_sbu_0, # of connection points: 4
#     Node 52, Type 1, BuildingBlock: ESEHIV_clean_sbu_0, # of connection points: 4
#     Node 53, Type 1, BuildingBlock: ESEHIV_clean_sbu_0, # of connection points: 4
#     Node 54, Type 1, BuildingBlock: ESEHIV_clean_sbu_0, # of connection points: 4
#     Node 55, Type 1, BuildingBlock: ESEHIV_clean_sbu_0, # of connection points: 4
#     Edge 56, Type (0, 1), BuildingBlock: ZUJKAS_clean_linker_0, # of connection points: 2
#     Edge 57, Type (0, 1), BuildingBlock: ZUJKAS_clean_linker_0, # of connection points: 2
#     Edge 58, Type (0, 1), BuildingBlock: ZUJKAS_clean_linker_0, # of connection points: 2
#     Edge 59, Type (0, 1), BuildingBlock: ZUJKAS_clean_linker_0, # of connection points: 2
#     Edge 60, Type (0, 1), BuildingBlock: ZUJKAS_clean_linker_0, # of connection points: 2
#     Edge 61, Type (0, 1), BuildingBlock: ZUJKAS_clean_linker_0, # of connection points: 2
#     Edge 62, Type (0, 1), BuildingBlock: ZUJKAS_clean_linker_0, # of connection points: 2
#     Edge 63, Type (0, 1), BuildingBlock: ZUJKAS_clean_linker_0, # of connection points: 2
#     Edge 64, Type (0, 1), BuildingBlock: ZUJKAS_clean_linker_0, # of connection points: 2
#     Edge 65, Type (0, 1), BuildingBlock: ZUJKAS_clean_linker_0, # of connection points: 2
#     Edge 66, Type (0, 1), BuildingBlock: ZUJKAS_clean_linker_0, # of connection points: 2
#     Edge 67, Type (0, 1), BuildingBlock: ZUJKAS_clean_linker_0, # of connection points: 2
#     Edge 68, Type (0, 1), BuildingBlock: ZUJKAS_clean_linker_0, # of connection points: 2
#     Edge 69, Type (0, 1), BuildingBlock: ZUJKAS_clean_linker_0, # of connection points: 2
#     Edge 70, Type (0, 1), BuildingBlock: ZUJKAS_clean_linker_0, # of connection points: 2
#     Edge 71, Type (0, 1), BuildingBlock: ZUJKAS_clean_linker_0, # of connection points: 2
#     Edge 72, Type (0, 1), BuildingBlock: ZUJKAS_clean_linker_0, # of connection points: 2
#     Edge 73, Type (0, 1), BuildingBlock: ZUJKAS_clean_linker_0, # of connection points: 2
#     Edge 74, Type (0, 1), BuildingBlock: ZUJKAS_clean_linker_0, # of connection points: 2
#     Edge 75, Type (0, 1), BuildingBlock: ZUJKAS_clean_linker_0, # of connection points: 2
#     Edge 76, Type (0, 1), BuildingBlock: ZUJKAS_clean_linker_0, # of connection points: 2
#     Edge 77, Type (0, 1), BuildingBlock: ZUJKAS_clean_linker_0, # of connection points: 2
#     Edge 78, Type (0, 1), BuildingBlock: ZUJKAS_clean_linker_0, # of connection points: 2
#     Edge 79, Type (0, 1), BuildingBlock: ZUJKAS_clean_linker_0, # of connection points: 2
#     Edge 80, Type (0, 1), BuildingBlock: ZUJKAS_clean_linker_0, # of connection points: 2
#     Edge 81, Type (0, 1), BuildingBlock: ZUJKAS_clean_linker_0, # of connection points: 2
#     Edge 82, Type (0, 1), BuildingBlock: ZUJKAS_clean_linker_0, # of connection points: 2
#     Edge 83, Type (0, 1), BuildingBlock: ZUJKAS_clean_linker_0, # of connection points: 2
#     Edge 84, Type (0, 1), BuildingBlock: ZUJKAS_clean_linker_0, # of connection points: 2
#     Edge 85, Type (0, 1), BuildingBlock: ZUJKAS_clean_linker_0, # of connection points: 2
#     Edge 86, Type (0, 1), BuildingBlock: ZUJKAS_clean_linker_0, # of connection points: 2
#     Edge 87, Type (0, 1), BuildingBlock: ZUJKAS_clean_linker_0, # of connection points: 2
#     Edge 88, Type (0, 1), BuildingBlock: ZUJKAS_clean_linker_0, # of connection points: 2
#     Edge 89, Type (0, 1), BuildingBlock: ZUJKAS_clean_linker_0, # of connection points: 2
#     Edge 90, Type (0, 1), BuildingBlock: ZUJKAS_clean_linker_0, # of connection points: 2
#     Edge 91, Type (0, 1), BuildingBlock: ZUJKAS_clean_linker_0, # of connection points: 2
#     Edge 92, Type (0, 1), BuildingBlock: ZUJKAS_clean_linker_0, # of connection points: 2
#     Edge 93, Type (0, 1), BuildingBlock: ZUJKAS_clean_linker_0, # of connection points: 2
#     Edge 94, Type (0, 1), BuildingBlock: ZUJKAS_clean_linker_0, # of connection points: 2
#     Edge 95, Type (0, 1), BuildingBlock: ZUJKAS_clean_linker_0, # of connection points: 2
#     Edge 96, Type (0, 1), BuildingBlock: ZUJKAS_clean_linker_0, # of connection points: 2
#     Edge 97, Type (0, 1), BuildingBlock: ZUJKAS_clean_linker_0, # of connection points: 2
#     Edge 98, Type (0, 1), BuildingBlock: ZUJKAS_clean_linker_0, # of connection points: 2
#     Edge 99, Type (0, 1), BuildingBlock: ZUJKAS_clean_linker_0, # of connection points: 2
#     Edge 100, Type (0, 1), BuildingBlock: ZUJKAS_clean_linker_0, # of connection points: 2
#     Edge 101, Type (0, 1), BuildingBlock: ZUJKAS_clean_linker_0, # of connection points: 2
#     Edge 102, Type (0, 1), BuildingBlock: ZUJKAS_clean_linker_0, # of connection points: 2
#     Edge 103, Type (0, 1), BuildingBlock: ZUJKAS_clean_linker_0, # of connection points: 2
#     Edge 104, Type (0, 1), BuildingBlock: ZUJKAS_clean_linker_0, # of connection points: 2
#     Edge 105, Type (0, 1), BuildingBlock: ZUJKAS_clean_linker_0, # of connection points: 2
#     Edge 106, Type (0, 1), BuildingBlock: ZUJKAS_clean_linker_0, # of connection points: 2
#     Edge 107, Type (0, 1), BuildingBlock: ZUJKAS_clean_linker_0, # of connection points: 2
#     Edge 108, Type (0, 1), BuildingBlock: ZUJKAS_clean_linker_0, # of connection points: 2
#     Edge 109, Type (0, 1), BuildingBlock: ZUJKAS_clean_linker_0, # of connection points: 2
#     Edge 110, Type (0, 1), BuildingBlock: ZUJKAS_clean_linker_0, # of connection points: 2
#     Edge 111, Type (0, 1), BuildingBlock: ZUJKAS_clean_linker_0, # of connection points: 2
#     Edge 112, Type (0, 1), BuildingBlock: ZUJKAS_clean_linker_0, # of connection points: 2
#     Edge 113, Type (0, 1), BuildingBlock: ZUJKAS_clean_linker_0, # of connection points: 2
#     Edge 114, Type (0, 1), BuildingBlock: ZUJKAS_clean_linker_0, # of connection points: 2
#     Edge 115, Type (0, 1), BuildingBlock: ZUJKAS_clean_linker_0, # of connection points: 2
#     Edge 116, Type (0, 1), BuildingBlock: ZUJKAS_clean_linker_0, # of connection points: 2
#     Edge 117, Type (0, 1), BuildingBlock: ZUJKAS_clean_linker_0, # of connection points: 2
#     Edge 118, Type (0, 1), BuildingBlock: ZUJKAS_clean_linker_0, # of connection points: 2
#     Edge 119, Type (0, 1), BuildingBlock: ZUJKAS_clean_linker_0, # of connection points: 2
#     Edge 120, Type (0, 1), BuildingBlock: ZUJKAS_clean_linker_0, # of connection points: 2
#     Edge 121, Type (0, 1), BuildingBlock: ZUJKAS_clean_linker_0, # of connection points: 2
#     Edge 122, Type (0, 1), BuildingBlock: ZUJKAS_clean_linker_0, # of connection points: 2
#     Edge 123, Type (0, 1), BuildingBlock: ZUJKAS_clean_linker_0, # of connection points: 2
#     Edge 124, Type (0, 1), BuildingBlock: ZUJKAS_clean_linker_0, # of connection points: 2
#     Edge 125, Type (0, 1), BuildingBlock: ZUJKAS_clean_linker_0, # of connection points: 2
#     Edge 126, Type (0, 1), BuildingBlock: ZUJKAS_clean_linker_0, # of connection points: 2
#     Edge 127, Type (0, 1), BuildingBlock: ZUJKAS_clean_linker_0, # of connection points: 2
#     Edge 128, Type (0, 1), BuildingBlock: ZUJKAS_clean_linker_0, # of connection points: 2
#     Edge 129, Type (0, 1), BuildingBlock: ZUJKAS_clean_linker_0, # of connection points: 2
#     Edge 130, Type (0, 1), BuildingBlock: ZUJKAS_clean_linker_0, # of connection points: 2
#     Edge 131, Type (0, 1), BuildingBlock: ZUJKAS_clean_linker_0, # of connection points: 2
#     Edge 132, Type (0, 1), BuildingBlock: ZUJKAS_clean_linker_0, # of connection points: 2
#     Edge 133, Type (0, 1), BuildingBlock: ZUJKAS_clean_linker_0, # of connection points: 2
#     Edge 134, Type (0, 1), BuildingBlock: ZUJKAS_clean_linker_0, # of connection points: 2
#     Edge 135, Type (0, 1), BuildingBlock: ZUJKAS_clean_linker_0, # of connection points: 2
#     Edge 136, Type (0, 1), BuildingBlock: ZUJKAS_clean_linker_0, # of connection points: 2
#     Edge 137, Type (0, 1), BuildingBlock: ZUJKAS_clean_linker_0, # of connection points: 2
#     Edge 138, Type (0, 1), BuildingBlock: ZUJKAS_clean_linker_0, # of connection points: 2
#     Edge 139, Type (0, 1), BuildingBlock: ZUJKAS_clean_linker_0, # of connection points: 2
#     Edge 140, Type (0, 1), BuildingBlock: ZUJKAS_clean_linker_0, # of connection points: 2
#     Edge 141, Type (0, 1), BuildingBlock: ZUJKAS_clean_linker_0, # of connection points: 2
#     Edge 142, Type (0, 1), BuildingBlock: ZUJKAS_clean_linker_0, # of connection points: 2
#     Edge 143, Type (0, 1), BuildingBlock: ZUJKAS_clean_linker_0, # of connection points: 2
#     Edge 144, Type (0, 1), BuildingBlock: ZUJKAS_clean_linker_0, # of connection points: 2
#     Edge 145, Type (0, 1), BuildingBlock: ZUJKAS_clean_linker_0, # of connection points: 2
#     Edge 146, Type (0, 1), BuildingBlock: ZUJKAS_clean_linker_0, # of connection points: 2
#     Edge 147, Type (0, 1), BuildingBlock: ZUJKAS_clean_linker_0, # of connection points: 2
#     Edge 148, Type (0, 1), BuildingBlock: ZUJKAS_clean_linker_0, # of connection points: 2
#     Edge 149, Type (0, 1), BuildingBlock: ZUJKAS_clean_linker_0, # of connection points: 2
#     Edge 150, Type (0, 1), BuildingBlock: ZUJKAS_clean_linker_0, # of connection points: 2
#     Edge 151, Type (0, 1), BuildingBlock: ZUJKAS_clean_linker_0, # of connection points: 2
# Relax obj value: 0.001
# Max RMSD: 0.113
# Mean RMSD: 0.047
data_MOF--net-tbo--node1-ESEHIV_clean_sbu_0--node2-KAKCAD_clean_linker_0--edge1-ZUJKAS_clean_linker_0
_symmetry_space_group_name_H-M    P1
_symmetry_Int_Tables_number       1
_symmetry_cell_setting            triclinic
loop_
_symmetry_equiv_pos_as_xyz
'x, y, z'
_cell_length_a     112.95064
_cell_length_b     112.69553
_cell_length_c     112.57098
_cell_angle_alpha  90.36563
_cell_angle_beta   91.542274
_cell_angle_gamma 90.714927
loop_
_atom_site_label
_atom_site_type_symbol
_atom_site_fract_x
_atom_site_fract_y
_atom_site_fract_z
_atom_type_partial_charge
C0 C 0.20033 0.18456 0.13268 0.0
C1 C 0.1994 0.197 0.13236 0.0
C2 C 0.1965 0.17815 0.14249 0.0
C3 C 0.19167 0.184 0.15228 0.0
C4 C 0.1908 0.19644 0.152 0.0
C5 C 0.19459 0.20285 0.14217 0.0
C6 C 0.18745 0.17715 0.16268 0.0
C7 C 0.19378 0.16729 0.16694 0.0
C8 C 0.1898 0.16075 0.17669 0.0
C9 C 0.17933 0.16419 0.18218 0.0
C10 C 0.1729 0.17402 0.17813 0.0
C11 C 0.17702 0.18044 0.16838 0.0
C12 C 0.16189 0.17754 0.18414 0.0
C13 C 0.15361 0.16891 0.18763 0.0
C14 C 0.15969 0.18954 0.18669 0.0
C15 C 0.14956 0.19279 0.19273 0.0
C16 C 0.14134 0.18413 0.19635 0.0
C17 C 0.19644 0.15028 0.18118 0.0
C18 C 0.20115 0.14196 0.17328 0.0
C19 C 0.19771 0.14828 0.19347 0.0
C20 C 0.20313 0.13802 0.19773 0.0
C21 C 0.20747 0.12951 0.18984 0.0
C22 C 0.20663 0.13169 0.17756 0.0
C23 C 0.14347 0.17216 0.19365 0.0
H24 H 0.20413 0.17975 0.12537 0.0
H25 H 0.19719 0.16857 0.14233 0.0
H26 H 0.18726 0.20127 0.15943 0.0
H27 H 0.1936 0.21239 0.14221 0.0
H28 H 0.20198 0.16485 0.16284 0.0
H29 H 0.1719 0.18782 0.16502 0.0
H30 H 0.17616 0.15919 0.18967 0.0
H31 H 0.15493 0.15961 0.18563 0.0
H32 H 0.16597 0.19639 0.18425 0.0
H33 H 0.14829 0.20208 0.1948 0.0
H34 H 0.20025 0.14318 0.16376 0.0
H35 H 0.19444 0.15462 0.19982 0.0
H36 H 0.13723 0.16528 0.19609 0.0
H37 H 0.20982 0.12527 0.17125 0.0
H38 H 0.20385 0.13671 0.20725 0.0
C39 C 0.88344 0.21481 0.19229 0.0
C40 C 0.89245 0.20719 0.19631 0.0
C41 C 0.87286 0.21022 0.18729 0.0
C42 C 0.87098 0.19789 0.18621 0.0
C43 C 0.8799 0.19026 0.19041 0.0
C44 C 0.89052 0.19486 0.19536 0.0
C45 C 0.8599 0.19306 0.18041 0.0
C46 C 0.8553 0.19831 0.16999 0.0
C47 C 0.84491 0.1939 0.16433 0.0
C48 C 0.83906 0.18408 0.16923 0.0
C49 C 0.84341 0.17869 0.1797 0.0
C50 C 0.8539 0.18321 0.18518 0.0
C51 C 0.83689 0.16841 0.18486 0.0
C52 C 0.82443 0.1682 0.18485 0.0
C53 C 0.843 0.15864 0.18959 0.0
C54 C 0.83679 0.14884 0.19401 0.0
C55 C 0.82432 0.14855 0.19383 0.0
C56 C 0.84014 0.19955 0.15329 0.0
C57 C 0.8399 0.21197 0.15227 0.0
C58 C 0.83574 0.19256 0.14371 0.0
C59 C 0.8312 0.19788 0.13339 0.0
C60 C 0.8309 0.21031 0.13238 0.0
C61 C 0.83532 0.21728 0.14195 0.0
C62 C 0.81824 0.15841 0.18923 0.0
H63 H 0.88466 0.22435 0.19279 0.0
H64 H 0.86613 0.21635 0.18426 0.0
H65 H 0.87877 0.18072 0.18964 0.0
H66 H 0.89721 0.18874 0.19849 0.0
H67 H 0.86002 0.2057 0.16609 0.0
H68 H 0.85723 0.17929 0.19335 0.0
H69 H 0.83105 0.18063 0.16489 0.0
H70 H 0.81941 0.17562 0.18145 0.0
H71 H 0.85258 0.15845 0.18967 0.0
H72 H 0.8418 0.14149 0.19762 0.0
H73 H 0.84311 0.21761 0.15951 0.0
H74 H 0.83591 0.18297 0.14415 0.0
H75 H 0.80865 0.15849 0.18881 0.0
H76 H 0.83535 0.22688 0.14144 0.0
H77 H 0.82777 0.19223 0.12624 0.0
C78 C 0.82149 0.84052 0.14703 0.0
C79 C 0.81786 0.84846 0.13809 0.0
C80 C 0.8266 0.84471 0.15774 0.0
C81 C 0.82818 0.85696 0.15983 0.0
C82 C 0.82449 0.8649 0.15091 0.0
C83 C 0.81942 0.86071 0.14018 0.0
C84 C 0.83371 0.86143 0.17122 0.0
C85 C 0.84364 0.85576 0.17632 0.0
C86 C 0.84897 0.85994 0.18702 0.0
C87 C 0.84415 0.86988 0.19267 0.0
C88 C 0.83428 0.87573 0.18772 0.0
C89 C 0.82913 0.87143 0.17698 0.0
C90 C 0.82948 0.88641 0.19371 0.0
C91 C 0.82834 0.88676 0.20612 0.0
C92 C 0.82627 0.89647 0.18709 0.0
C93 C 0.82218 0.90666 0.19275 0.0
C94 C 0.82115 0.90705 0.20518 0.0
C95 C 0.85969 0.85408 0.19223 0.0
C96 C 0.86073 0.84165 0.19207 0.0
C97 C 0.86898 0.86091 0.19746 0.0
C98 C 0.87897 0.85546 0.20249 0.0
C99 C 0.88 0.84304 0.20237 0.0
C100 C 0.87075 0.8362 0.19707 0.0
C101 C 0.8242 0.89693 0.21178 0.0
H102 H 0.82054 0.83103 0.14568 0.0
H103 H 0.82924 0.83835 0.16445 0.0
H104 H 0.82567 0.87439 0.15216 0.0
H105 H 0.81663 0.86708 0.13354 0.0
H106 H 0.84745 0.8483 0.17174 0.0
H107 H 0.82137 0.87574 0.17325 0.0
H108 H 0.84815 0.87315 0.20093 0.0
H109 H 0.83062 0.87913 0.21148 0.0
H110 H 0.82713 0.89654 0.17753 0.0
H111 H 0.81978 0.91424 0.18738 0.0
H112 H 0.85372 0.8361 0.18821 0.0
H113 H 0.8686 0.8705 0.19761 0.0
H114 H 0.8236 0.89694 0.22137 0.0
H115 H 0.87128 0.82662 0.19668 0.0
H116 H 0.88582 0.86103 0.20662 0.0
C117 C 0.1789 0.82097 0.13707 0.0
C118 C 0.19134 0.82175 0.13783 0.0
C119 C 0.17207 0.8243 0.1467 0.0
C120 C 0.17751 0.82853 0.15731 0.0
C121 C 0.18995 0.82919 0.15811 0.0
C122 C 0.19677 0.82585 0.14849 0.0
C123 C 0.17029 0.83248 0.16745 0.0
C124 C 0.16023 0.82596 0.17079 0.0
C125 C 0.15347 0.82963 0.18044 0.0
C126 C 0.15692 0.83998 0.18676 0.0
C127 C 0.16695 0.84663 0.18358 0.0
C128 C 0.17352 0.84282 0.17386 0.0
C129 C 0.17062 0.85753 0.19037 0.0
C130 C 0.16214 0.86552 0.19446 0.0
C131 C 0.18268 0.86005 0.1928 0.0
C132 C 0.18617 0.87033 0.19904 0.0
C133 C 0.1777 0.87833 0.20311 0.0
C134 C 0.14282 0.82267 0.18398 0.0
C135 C 0.13494 0.81774 0.17534 0.0
C136 C 0.14037 0.82105 0.19605 0.0
C137 C 0.13018 0.8149 0.1994 0.0
C138 C 0.12222 0.81012 0.19078 0.0
C139 C 0.12477 0.81151 0.17871 0.0
C140 C 0.16563 0.87577 0.20076 0.0
H141 H 0.17442 0.81773 0.12904 0.0
H142 H 0.1625 0.82377 0.14577 0.0
H143 H 0.19444 0.83227 0.16619 0.0
H144 H 0.20632 0.82668 0.14936 0.0
H145 H 0.15785 0.81783 0.16606 0.0
H146 H 0.18104 0.84808 0.1711 0.0
H147 H 0.15179 0.84287 0.19421 0.0
H148 H 0.15279 0.86394 0.19265 0.0
H149 H 0.18945 0.85404 0.18993 0.0
H150 H 0.19554 0.87206 0.20054 0.0
H151 H 0.13647 0.81892 0.16597 0.0
H152 H 0.14636 0.82449 0.20295 0.0
H153 H 0.15885 0.88165 0.20387 0.0
H154 H 0.11875 0.80805 0.17184 0.0
H155 H 0.12859 0.8138 0.20878 0.0
C156 C 0.13792 0.82455 0.83896 0.0
C157 C 0.13745 0.82422 0.82644 0.0
C158 C 0.14838 0.82779 0.84516 0.0
C159 C 0.15862 0.8309 0.83903 0.0
C160 C 0.15816 0.83066 0.82653 0.0
C161 C 0.14773 0.82732 0.82032 0.0
C162 C 0.16971 0.8345 0.84563 0.0
C163 C 0.17371 0.82807 0.85561 0.0
C164 C 0.18422 0.83138 0.86184 0.0
C165 C 0.19065 0.84138 0.85805 0.0
C166 C 0.18675 0.84799 0.84817 0.0
C167 C 0.17632 0.84442 0.84198 0.0
C168 C 0.19349 0.85872 0.84439 0.0
C169 C 0.19802 0.86695 0.85285 0.0
C170 C 0.19532 0.8609 0.83228 0.0
C171 C 0.2015 0.87106 0.82873 0.0
C172 C 0.20596 0.87933 0.83718 0.0
C173 C 0.18856 0.82438 0.87224 0.0
C174 C 0.18072 0.82047 0.88094 0.0
C175 C 0.20063 0.82165 0.87361 0.0
C176 C 0.20478 0.81526 0.88346 0.0
C177 C 0.19698 0.81148 0.89224 0.0
C178 C 0.18488 0.81414 0.89084 0.0
C179 C 0.20415 0.87713 0.84929 0.0
H180 H 0.13015 0.82245 0.844 0.0
H181 H 0.14839 0.82806 0.85478 0.0
H182 H 0.16594 0.83287 0.82154 0.0
H183 H 0.1478 0.82699 0.81071 0.0
H184 H 0.1688 0.82027 0.85833 0.0
H185 H 0.17312 0.84959 0.8345 0.0
H186 H 0.19871 0.84405 0.86284 0.0
H187 H 0.19667 0.86561 0.86224 0.0
H188 H 0.19205 0.8547 0.82554 0.0
H189 H 0.20264 0.87253 0.81932 0.0
H190 H 0.17138 0.82249 0.8802 0.0
H191 H 0.20689 0.82441 0.86702 0.0
H192 H 0.20756 0.88325 0.85605 0.0
H193 H 0.17862 0.81129 0.89739 0.0
H194 H 0.21416 0.81348 0.8843 0.0
C195 C 0.20376 0.19181 0.89205 0.0
C196 C 0.21622 0.19172 0.89247 0.0
C197 C 0.19742 0.18787 0.8819 0.0
C198 C 0.20336 0.18371 0.87191 0.0
C199 C 0.21582 0.18355 0.87234 0.0
C200 C 0.22217 0.18754 0.88248 0.0
C201 C 0.19657 0.1796 0.86107 0.0
C202 C 0.18668 0.18593 0.85687 0.0
C203 C 0.18007 0.1821 0.84675 0.0
C204 C 0.18361 0.17179 0.84073 0.0
C205 C 0.19353 0.16533 0.84471 0.0
C206 C 0.19991 0.16931 0.85493 0.0
C207 C 0.19721 0.15438 0.83829 0.0
C208 C 0.18873 0.14632 0.83347 0.0
C209 C 0.20928 0.15185 0.837 0.0
C210 C 0.21277 0.14152 0.83117 0.0
C211 C 0.2043 0.13343 0.82638 0.0
C212 C 0.16947 0.18886 0.84254 0.0
C213 C 0.16179 0.19394 0.85073 0.0
C214 C 0.16693 0.19033 0.83033 0.0
C215 C 0.157 0.19669 0.82644 0.0
C216 C 0.14936 0.20183 0.83464 0.0
C217 C 0.15192 0.20037 0.84685 0.0
C218 C 0.19223 0.13601 0.82757 0.0
H219 H 0.19889 0.19509 0.89952 0.0
H220 H 0.18783 0.188 0.88192 0.0
H221 H 0.22068 0.18049 0.86477 0.0
H222 H 0.23175 0.18725 0.88253 0.0
H223 H 0.18428 0.19405 0.86136 0.0
H224 H 0.20732 0.16422 0.85833 0.0
H225 H 0.17861 0.16878 0.83291 0.0
H226 H 0.17936 0.14787 0.83439 0.0
H227 H 0.21608 0.1579 0.84044 0.0
H228 H 0.22215 0.13979 0.83061 0.0
H229 H 0.16333 0.19288 0.8602 0.0
H230 H 0.1727 0.18667 0.82374 0.0
H231 H 0.18543 0.1301 0.82388 0.0
H232 H 0.14637 0.20432 0.85346 0.0
H233 H 0.15528 0.19748 0.81697 0.0
C234 C 0.84471 0.13708 0.81999 0.0
C235 C 0.83227 0.13667 0.82025 0.0
C236 C 0.85099 0.14736 0.82352 0.0
C237 C 0.84495 0.15746 0.82736 0.0
C238 C 0.8325 0.15712 0.82734 0.0
C239 C 0.82624 0.14685 0.82386 0.0
C240 C 0.85155 0.16821 0.83176 0.0
C241 C 0.86166 0.17241 0.82599 0.0
C242 C 0.86785 0.1826 0.83017 0.0
C243 C 0.86373 0.1886 0.84024 0.0
C244 C 0.85363 0.18456 0.84611 0.0
C245 C 0.8477 0.17431 0.84184 0.0
C246 C 0.84922 0.191 0.85669 0.0
C247 C 0.85714 0.19579 0.86536 0.0
C248 C 0.83699 0.19229 0.85826 0.0
C249 C 0.83278 0.19807 0.86829 0.0
C250 C 0.84069 0.20281 0.877 0.0
C251 C 0.87861 0.187 0.82408 0.0
C252 C 0.887 0.17903 0.81975 0.0
C253 C 0.88073 0.19925 0.82283 0.0
C254 C 0.89111 0.20343 0.81772 0.0
C255 C 0.8996 0.19548 0.81363 0.0
C256 C 0.89735 0.18323 0.81454 0.0
C257 C 0.85293 0.20164 0.87537 0.0
H258 H 0.84963 0.12934 0.81735 0.0
H259 H 0.86058 0.14728 0.82355 0.0
H260 H 0.82755 0.16482 0.83001 0.0
H261 H 0.81666 0.14691 0.82394 0.0
H262 H 0.86454 0.1679 0.81806 0.0
H263 H 0.84017 0.17088 0.84657 0.0
H264 H 0.86841 0.19645 0.84354 0.0
H265 H 0.86662 0.19486 0.86452 0.0
H266 H 0.83062 0.18887 0.85169 0.0
H267 H 0.8233 0.19866 0.86928 0.0
H268 H 0.88573 0.16955 0.82067 0.0
H269 H 0.87436 0.20565 0.8258 0.0
H270 H 0.85929 0.20531 0.88181 0.0
H271 H 0.90378 0.17688 0.81157 0.0
H272 H 0.89249 0.21292 0.81696 0.0
C273 C 0.8264 0.84196 0.87459 0.0
C274 C 0.83384 0.83983 0.88456 0.0
C275 C 0.83105 0.84655 0.86413 0.0
C276 C 0.84324 0.84895 0.86339 0.0
C277 C 0.85062 0.84705 0.87344 0.0
C278 C 0.84597 0.84259 0.88391 0.0
C279 C 0.84844 0.85279 0.85203 0.0
C280 C 0.84344 0.86202 0.8453 0.0
C281 C 0.84856 0.86569 0.83463 0.0
C282 C 0.85865 0.85979 0.83064 0.0
C283 C 0.8637 0.8505 0.83723 0.0
C284 C 0.85854 0.8471 0.84791 0.0
C285 C 0.87432 0.84421 0.83302 0.0
C286 C 0.87513 0.84068 0.82107 0.0
C287 C 0.88358 0.84133 0.84106 0.0
C288 C 0.8933 0.8349 0.8373 0.0
C289 C 0.89401 0.83116 0.8254 0.0
C290 C 0.84356 0.87581 0.82776 0.0
C291 C 0.83125 0.87704 0.82612 0.0
C292 C 0.8511 0.88437 0.82279 0.0
C293 C 0.84645 0.8939 0.81636 0.0
C294 C 0.83415 0.89512 0.8147 0.0
C295 C 0.8266 0.88656 0.81964 0.0
C296 C 0.88485 0.8342 0.81731 0.0
H297 H 0.817 0.84001 0.87486 0.0
H298 H 0.82517 0.84788 0.85651 0.0
H299 H 0.86004 0.84891 0.87316 0.0
H300 H 0.85196 0.84097 0.89138 0.0
H301 H 0.83578 0.86658 0.84858 0.0
H302 H 0.86222 0.83976 0.85291 0.0
H303 H 0.86262 0.86246 0.8224 0.0
H304 H 0.86811 0.84269 0.81468 0.0
H305 H 0.88329 0.84403 0.8503 0.0
H306 H 0.90015 0.83264 0.84378 0.0
H307 H 0.82519 0.87056 0.82974 0.0
H308 H 0.86062 0.88379 0.82399 0.0
H309 H 0.88519 0.83157 0.80806 0.0
H310 H 0.81707 0.88729 0.81865 0.0
H311 H 0.85253 0.90026 0.81258 0.0
C312 C 0.19445 0.69851 0.6174 0.0
C313 C 0.19526 0.71098 0.61701 0.0
C314 C 0.19087 0.69274 0.62767 0.0
C315 C 0.1879 0.69927 0.63782 0.0
C316 C 0.18838 0.71173 0.63737 0.0
C317 C 0.19205 0.71752 0.6271 0.0
C318 C 0.1846 0.69303 0.64889 0.0
C319 C 0.19122 0.68328 0.6529 0.0
C320 C 0.18825 0.67728 0.66332 0.0
C321 C 0.17846 0.68106 0.6697 0.0
C322 C 0.17161 0.69068 0.66579 0.0
C323 C 0.17483 0.69672 0.65542 0.0
C324 C 0.16101 0.69422 0.67249 0.0
C325 C 0.15339 0.68552 0.67708 0.0
C326 C 0.15851 0.70625 0.67455 0.0
C327 C 0.14876 0.70947 0.68124 0.0
C328 C 0.1413 0.70073 0.68602 0.0
C329 C 0.19529 0.66698 0.66755 0.0
C330 C 0.19866 0.65807 0.65957 0.0
C331 C 0.19844 0.66586 0.67965 0.0
C332 C 0.20472 0.656 0.68371 0.0
C333 C 0.20793 0.64699 0.67577 0.0
C334 C 0.20488 0.64817 0.66364 0.0
C335 C 0.14368 0.68873 0.68377 0.0
H336 H 0.19657 0.69317 0.60973 0.0
H337 H 0.19038 0.68313 0.62766 0.0
H338 H 0.18623 0.717 0.64508 0.0
H339 H 0.19268 0.72712 0.62719 0.0
H340 H 0.19888 0.68052 0.64804 0.0
H341 H 0.16952 0.70403 0.65222 0.0
H342 H 0.17611 0.67642 0.67772 0.0
H343 H 0.15489 0.67618 0.67545 0.0
H344 H 0.16426 0.71317 0.67123 0.0
H345 H 0.14723 0.71879 0.68289 0.0
H346 H 0.19629 0.65864 0.65021 0.0
H347 H 0.19607 0.67263 0.686 0.0
H348 H 0.13798 0.68178 0.6871 0.0
H349 H 0.20732 0.64144 0.65728 0.0
H350 H 0.20685 0.65532 0.69312 0.0
C351 C 0.88363 0.72222 0.68244 0.0
C352 C 0.89308 0.71481 0.68578 0.0
C353 C 0.87304 0.71743 0.67762 0.0
C354 C 0.87159 0.7051 0.67609 0.0
C355 C 0.88094 0.69767 0.67953 0.0
C356 C 0.89157 0.70246 0.68425 0.0
C357 C 0.86046 0.70004 0.67063 0.0
C358 C 0.85541 0.7052 0.66039 0.0
C359 C 0.84508 0.70039 0.65492 0.0
C360 C 0.83972 0.69032 0.65991 0.0
C361 C 0.84452 0.68507 0.67027 0.0
C362 C 0.85496 0.68998 0.67551 0.0
C363 C 0.83857 0.67454 0.67563 0.0
C364 C 0.82614 0.67376 0.67596 0.0
C365 C 0.84523 0.66516 0.68043 0.0
C366 C 0.83962 0.65529 0.68541 0.0
C367 C 0.82718 0.65451 0.68571 0.0
C368 C 0.84002 0.70581 0.6439 0.0
C369 C 0.83917 0.7182 0.64288 0.0
C370 C 0.83618 0.69864 0.63424 0.0
C371 C 0.8317 0.70375 0.62378 0.0
C372 C 0.83089 0.71615 0.62274 0.0
C373 C 0.83462 0.72331 0.63245 0.0
C374 C 0.82053 0.66389 0.6809 0.0
H375 H 0.88433 0.73174 0.68367 0.0
H376 H 0.86594 0.72339 0.67518 0.0
H377 H 0.88016 0.68815 0.67831 0.0
H378 H 0.89868 0.69645 0.68649 0.0
H379 H 0.85975 0.71278 0.65643 0.0
H380 H 0.85867 0.68616 0.68357 0.0
H381 H 0.83178 0.68657 0.6557 0.0
H382 H 0.82069 0.68086 0.67249 0.0
H383 H 0.85481 0.66538 0.68024 0.0
H384 H 0.84506 0.64832 0.68914 0.0
H385 H 0.84197 0.72397 0.6502 0.0
H386 H 0.8368 0.68907 0.6347 0.0
H387 H 0.81094 0.66356 0.68083 0.0
H388 H 0.8342 0.73289 0.63191 0.0
H389 H 0.82879 0.69798 0.61652 0.0
C390 C 0.83162 0.34309 0.65831 0.0
C391 C 0.82719 0.35053 0.64928 0.0
C392 C 0.83745 0.34786 0.66842 0.0
C393 C 0.83901 0.36021 0.66977 0.0
C394 C 0.8346 0.36764 0.66073 0.0
C395 C 0.82878 0.36287 0.65063 0.0
C396 C 0.84521 0.36534 0.68053 0.0
C397 C 0.85545 0.36001 0.68535 0.0
C398 C 0.86149 0.36495 0.69533 0.0
C399 C 0.85714 0.37536 0.70052 0.0
C400 C 0.84684 0.38079 0.69595 0.0
C401 C 0.84095 0.37568 0.68596 0.0
C402 C 0.84226 0.39178 0.70163 0.0
C403 C 0.84281 0.39328 0.71406 0.0
C404 C 0.83735 0.40091 0.69466 0.0
C405 C 0.83309 0.41121 0.69998 0.0
C406 C 0.83372 0.41271 0.71239 0.0
C407 C 0.87234 0.35928 0.70039 0.0
C408 C 0.87281 0.3469 0.70184 0.0
C409 C 0.88223 0.36623 0.70404 0.0
C410 C 0.89228 0.36095 0.70913 0.0
C411 C 0.8927 0.3486 0.71074 0.0
C412 C 0.88286 0.34163 0.70699 0.0
C413 C 0.83866 0.40363 0.71937 0.0
H414 H 0.83041 0.33355 0.65767 0.0
H415 H 0.84059 0.34188 0.67527 0.0
H416 H 0.83582 0.37718 0.66137 0.0
H417 H 0.82569 0.36887 0.64377 0.0
H418 H 0.85894 0.35218 0.68112 0.0
H419 H 0.83285 0.37959 0.68254 0.0
H420 H 0.8618 0.37923 0.70816 0.0
H421 H 0.84632 0.38637 0.71975 0.0
H422 H 0.83695 0.40019 0.68506 0.0
H423 H 0.82947 0.41811 0.69435 0.0
H424 H 0.86532 0.3413 0.6992 0.0
H425 H 0.88221 0.37576 0.70293 0.0
H426 H 0.83912 0.40445 0.72896 0.0
H427 H 0.88293 0.33208 0.70798 0.0
H428 H 0.89965 0.3666 0.71201 0.0
C429 C 0.19152 0.33722 0.6467 0.0
C430 C 0.20398 0.33728 0.64682 0.0
C431 C 0.18542 0.34095 0.65669 0.0
C432 C 0.19162 0.34484 0.66701 0.0
C433 C 0.20407 0.34486 0.66714 0.0
C434 C 0.21018 0.34113 0.65717 0.0
C435 C 0.18515 0.34899 0.67759 0.0
C436 C 0.175 0.34288 0.68135 0.0
C437 C 0.16892 0.34672 0.69138 0.0
C438 C 0.17306 0.35688 0.69763 0.0
C439 C 0.18318 0.3631 0.694 0.0
C440 C 0.18916 0.35908 0.68398 0.0
C441 C 0.18753 0.37387 0.70056 0.0
C442 C 0.17965 0.38275 0.70395 0.0
C443 C 0.19968 0.37548 0.70316 0.0
C444 C 0.20389 0.38584 0.7088 0.0
C445 C 0.19608 0.3949 0.71191 0.0
C446 C 0.15834 0.34004 0.69542 0.0
C447 C 0.14958 0.33598 0.6872 0.0
C448 C 0.15694 0.33762 0.70754 0.0
C449 C 0.14701 0.33135 0.71136 0.0
C450 C 0.13816 0.32738 0.70317 0.0
C451 C 0.1396 0.32976 0.69103 0.0
C452 C 0.18388 0.39317 0.70953 0.0
H453 H 0.18648 0.3342 0.63892 0.0
H454 H 0.17582 0.34092 0.65625 0.0
H455 H 0.20913 0.34769 0.67499 0.0
H456 H 0.21977 0.3414 0.65753 0.0
H457 H 0.17202 0.33492 0.67666 0.0
H458 H 0.19679 0.36402 0.68097 0.0
H459 H 0.16841 0.35993 0.70535 0.0
H460 H 0.17025 0.38181 0.70196 0.0
H461 H 0.20595 0.3687 0.70084 0.0
H462 H 0.21331 0.38673 0.71072 0.0
H463 H 0.15034 0.33782 0.67782 0.0
H464 H 0.16363 0.34045 0.71407 0.0
H465 H 0.17761 0.4 0.71166 0.0
H466 H 0.1329 0.32701 0.68448 0.0
H467 H 0.14633 0.32949 0.72074 0.0
C468 C 0.13717 0.31901 0.34626 0.0
C469 C 0.13677 0.31806 0.33379 0.0
C470 C 0.14749 0.32299 0.35231 0.0
C471 C 0.1576 0.32623 0.34602 0.0
C472 C 0.15717 0.32536 0.33354 0.0
C473 C 0.1469 0.32128 0.3275 0.0
C474 C 0.16858 0.3305 0.35241 0.0
C475 C 0.17291 0.32462 0.3626 0.0
C476 C 0.18346 0.32842 0.36846 0.0
C477 C 0.18958 0.33838 0.36411 0.0
C478 C 0.18533 0.3445 0.35404 0.0
C479 C 0.17484 0.34044 0.34823 0.0
C480 C 0.19177 0.35517 0.34962 0.0
C481 C 0.19671 0.36363 0.35762 0.0
C482 C 0.19296 0.35704 0.33736 0.0
C483 C 0.19887 0.36712 0.33322 0.0
C484 C 0.20377 0.37559 0.34122 0.0
C485 C 0.1882 0.32196 0.37904 0.0
C486 C 0.18069 0.31844 0.38818 0.0
C487 C 0.20033 0.31938 0.38013 0.0
C488 C 0.20486 0.31351 0.39015 0.0
C489 C 0.1974 0.31013 0.39938 0.0
C490 C 0.18525 0.31265 0.39826 0.0
C491 C 0.20264 0.3737 0.35348 0.0
H492 H 0.12956 0.3165 0.35137 0.0
H493 H 0.1475 0.32364 0.36191 0.0
H494 H 0.16484 0.3277 0.32844 0.0
H495 H 0.14687 0.32072 0.31789 0.0
H496 H 0.16827 0.31682 0.36574 0.0
H497 H 0.17136 0.3452 0.3406 0.0
H498 H 0.1977 0.34136 0.36859 0.0
H499 H 0.19581 0.36259 0.36711 0.0
H500 H 0.18944 0.35062 0.33095 0.0
H501 H 0.19973 0.36819 0.32372 0.0
H502 H 0.17132 0.32035 0.38764 0.0
H503 H 0.20633 0.32187 0.3732 0.0
H504 H 0.20615 0.38012 0.35989 0.0
H505 H 0.17925 0.3101 0.40517 0.0
H506 H 0.21427 0.31183 0.39077 0.0
C507 C 0.19062 0.68178 0.37544 0.0
C508 C 0.20308 0.6818 0.37584 0.0
C509 C 0.18428 0.67748 0.36544 0.0
C510 C 0.19022 0.67309 0.35554 0.0
C511 C 0.20268 0.67306 0.35594 0.0
C512 C 0.20902 0.67735 0.36596 0.0
C513 C 0.18344 0.66863 0.34481 0.0
C514 C 0.17328 0.67456 0.34066 0.0
C515 C 0.16672 0.67042 0.33064 0.0
C516 C 0.17061 0.66026 0.32459 0.0
C517 C 0.18082 0.65422 0.32852 0.0
C518 C 0.1871 0.65846 0.3387 0.0
C519 C 0.18494 0.64342 0.32214 0.0
C520 C 0.17682 0.63488 0.31752 0.0
C521 C 0.19712 0.64143 0.32086 0.0
C522 C 0.20108 0.63106 0.31546 0.0
C523 C 0.19298 0.62242 0.31108 0.0
C524 C 0.15584 0.67677 0.32656 0.0
C525 C 0.14799 0.68136 0.33488 0.0
C526 C 0.15328 0.67849 0.31439 0.0
C527 C 0.14322 0.68474 0.31067 0.0
C528 C 0.13549 0.68948 0.31902 0.0
C529 C 0.13798 0.68765 0.33117 0.0
C530 C 0.18079 0.62453 0.31202 0.0
H531 H 0.18573 0.68526 0.38281 0.0
H532 H 0.17469 0.67751 0.36551 0.0
H533 H 0.20756 0.66986 0.34844 0.0
H534 H 0.21861 0.67709 0.36599 0.0
H535 H 0.17061 0.68261 0.34511 0.0
H536 H 0.1947 0.65364 0.34207 0.0
H537 H 0.16567 0.65705 0.31681 0.0
H538 H 0.16739 0.63602 0.31845 0.0
H539 H 0.20364 0.64791 0.32405 0.0
H540 H 0.21052 0.62981 0.31468 0.0
H541 H 0.14953 0.68001 0.34431 0.0
H542 H 0.1592 0.67522 0.30773 0.0
H543 H 0.17433 0.61799 0.30883 0.0
H544 H 0.1321 0.69098 0.33783 0.0
H545 H 0.14163 0.6861 0.30124 0.0
C546 C 0.83497 0.62887 0.32245 0.0
C547 C 0.82257 0.62794 0.32104 0.0
C548 C 0.84038 0.63958 0.32603 0.0
C549 C 0.83352 0.6496 0.32835 0.0
C550 C 0.82114 0.64873 0.32681 0.0
C551 C 0.81574 0.63804 0.32318 0.0
C552 C 0.83919 0.6608 0.3328 0.0
C553 C 0.84957 0.66526 0.32773 0.0
C554 C 0.85509 0.67573 0.33213 0.0
C555 C 0.85011 0.68167 0.34181 0.0
C556 C 0.83967 0.67737 0.34689 0.0
C557 C 0.83429 0.66696 0.34232 0.0
C558 C 0.83437 0.68358 0.3571 0.0
C559 C 0.84136 0.68697 0.36709 0.0
C560 C 0.82212 0.68562 0.35712 0.0
C561 C 0.81693 0.69074 0.367 0.0
C562 C 0.82385 0.69383 0.37714 0.0
C563 C 0.86595 0.68053 0.32651 0.0
C564 C 0.87481 0.67288 0.32258 0.0
C565 C 0.86749 0.69282 0.32492 0.0
C566 C 0.87763 0.69734 0.3196 0.0
C567 C 0.88648 0.68968 0.31569 0.0
C568 C 0.88493 0.6774 0.31721 0.0
C569 C 0.83614 0.69198 0.37705 0.0
H570 H 0.84051 0.62124 0.32105 0.0
H571 H 0.84992 0.63994 0.32729 0.0
H572 H 0.81563 0.65635 0.32838 0.0
H573 H 0.8062 0.63772 0.32196 0.0
H574 H 0.85317 0.6607 0.32016 0.0
H575 H 0.82644 0.66344 0.34644 0.0
H576 H 0.85431 0.68965 0.34541 0.0
H577 H 0.85081 0.68543 0.36734 0.0
H578 H 0.81653 0.68317 0.3495 0.0
H579 H 0.80743 0.69197 0.36684 0.0
H580 H 0.87401 0.66338 0.32381 0.0
H581 H 0.86076 0.69897 0.32761 0.0
H582 H 0.8417 0.69437 0.3847 0.0
H583 H 0.89165 0.67127 0.31444 0.0
H584 H 0.87847 0.70684 0.31841 0.0
C585 C 0.8276 0.32786 0.39067 0.0
C586 C 0.83519 0.3248 0.40025 0.0
C587 C 0.83222 0.33189 0.37997 0.0
C588 C 0.84452 0.33285 0.3786 0.0
C589 C 0.85209 0.32997 0.38825 0.0
C590 C 0.84749 0.326 0.39894 0.0
C591 C 0.84955 0.33642 0.36706 0.0
C592 C 0.84494 0.34603 0.36059 0.0
C593 C 0.8499 0.34949 0.34977 0.0
C594 C 0.85955 0.34309 0.34545 0.0
C595 C 0.86425 0.33344 0.35178 0.0
C596 C 0.85913 0.33016 0.36253 0.0
C597 C 0.87455 0.32677 0.34728 0.0
C598 C 0.87548 0.32417 0.3351 0.0
C599 C 0.8835 0.32284 0.3552 0.0
C600 C 0.89302 0.31632 0.35108 0.0
C601 C 0.8939 0.31366 0.33893 0.0
C602 C 0.84516 0.35983 0.34302 0.0
C603 C 0.8329 0.36182 0.34206 0.0
C604 C 0.85288 0.36775 0.33736 0.0
C605 C 0.84846 0.37729 0.33079 0.0
C606 C 0.83621 0.37922 0.32976 0.0
C607 C 0.82848 0.37141 0.33553 0.0
C608 C 0.88506 0.31772 0.33097 0.0
H609 H 0.81808 0.32715 0.39144 0.0
H610 H 0.82616 0.33399 0.37268 0.0
H611 H 0.86161 0.33073 0.38753 0.0
H612 H 0.85359 0.32363 0.40609 0.0
H613 H 0.83771 0.35104 0.36417 0.0
H614 H 0.86246 0.32252 0.3673 0.0
H615 H 0.86344 0.34566 0.33715 0.0
H616 H 0.86868 0.32691 0.32877 0.0
H617 H 0.88322 0.32488 0.3646 0.0
H618 H 0.89979 0.3135 0.35741 0.0
H619 H 0.82668 0.35583 0.34617 0.0
H620 H 0.86238 0.36667 0.3381 0.0
H621 H 0.88544 0.3157 0.32157 0.0
H622 H 0.81898 0.37257 0.33481 0.0
H623 H 0.85467 0.38326 0.32663 0.0
C624 C 0.71658 0.18514 0.63283 0.0
C625 C 0.71914 0.19738 0.63305 0.0
C626 C 0.71008 0.1799 0.64184 0.0
C627 C 0.70598 0.18677 0.65133 0.0
C628 C 0.70853 0.19901 0.65156 0.0
C629 C 0.71503 0.20426 0.64253 0.0
C630 C 0.69907 0.18114 0.66093 0.0
C631 C 0.70234 0.17002 0.66544 0.0
C632 C 0.69578 0.16443 0.67431 0.0
C633 C 0.68577 0.17018 0.6787 0.0
C634 C 0.68244 0.18139 0.67441 0.0
C635 C 0.68915 0.18679 0.66555 0.0
C636 C 0.67191 0.18749 0.67908 0.0
C637 C 0.66102 0.18145 0.67997 0.0
C638 C 0.67263 0.19951 0.68244 0.0
C639 C 0.66268 0.20539 0.68654 0.0
C640 C 0.65168 0.19944 0.68723 0.0
C641 C 0.69956 0.1527 0.67904 0.0
C642 C 0.70385 0.14393 0.67137 0.0
C643 C 0.69929 0.1503 0.69128 0.0
C644 C 0.70337 0.13948 0.69575 0.0
C645 C 0.70784 0.1308 0.68809 0.0
C646 C 0.70796 0.13314 0.67584 0.0
C647 C 0.65101 0.18737 0.68392 0.0
H648 H 0.71943 0.17962 0.62556 0.0
H649 H 0.7081 0.17048 0.64127 0.0
H650 H 0.70565 0.20453 0.65882 0.0
H651 H 0.71698 0.21368 0.64308 0.0
H652 H 0.71023 0.16582 0.66223 0.0
H653 H 0.68642 0.19528 0.662 0.0
H654 H 0.68059 0.16596 0.68549 0.0
H655 H 0.66017 0.17222 0.67732 0.0
H656 H 0.68095 0.20436 0.68199 0.0
H657 H 0.66367 0.21459 0.68925 0.0
H658 H 0.70399 0.14537 0.66188 0.0
H659 H 0.6962 0.15691 0.69746 0.0
H660 H 0.6427 0.1825 0.68412 0.0
H661 H 0.71113 0.12657 0.66967 0.0
H662 H 0.70328 0.13803 0.70524 0.0
C663 C 0.39507 0.20119 0.6964 0.0
C664 C 0.40443 0.19352 0.69938 0.0
C665 C 0.38447 0.19676 0.69122 0.0
C666 C 0.38294 0.18455 0.689 0.0
C667 C 0.39236 0.17692 0.69176 0.0
C668 C 0.40296 0.18134 0.69683 0.0
C669 C 0.37145 0.17961 0.68426 0.0
C670 C 0.36545 0.18483 0.67454 0.0
C671 C 0.3548 0.17982 0.66988 0.0
C672 C 0.35009 0.1696 0.67524 0.0
C673 C 0.35586 0.16436 0.68507 0.0
C674 C 0.36653 0.16946 0.68948 0.0
C675 C 0.3508 0.1536 0.6908 0.0
C676 C 0.33855 0.15245 0.6925 0.0
C677 C 0.35825 0.14447 0.69482 0.0
C678 C 0.35361 0.13454 0.70055 0.0
C679 C 0.34137 0.13343 0.70236 0.0
C680 C 0.34862 0.18511 0.65933 0.0
C681 C 0.3472 0.19745 0.65845 0.0
C682 C 0.34396 0.1778 0.65012 0.0
C683 C 0.338 0.1827 0.64029 0.0
C684 C 0.33648 0.19504 0.63944 0.0
C685 C 0.34116 0.20235 0.64865 0.0
C686 C 0.3339 0.14249 0.6982 0.0
H687 H 0.3958 0.2106 0.69833 0.0
H688 H 0.37734 0.20285 0.68928 0.0
H689 H 0.39153 0.16748 0.68997 0.0
H690 H 0.41004 0.17518 0.6987 0.0
H691 H 0.36929 0.19256 0.67036 0.0
H692 H 0.37092 0.16565 0.69722 0.0
H693 H 0.34189 0.1657 0.67172 0.0
H694 H 0.33256 0.15935 0.68962 0.0
H695 H 0.36771 0.14496 0.69353 0.0
H696 H 0.35967 0.12783 0.70374 0.0
H697 H 0.35062 0.20332 0.66542 0.0
H698 H 0.345 0.16827 0.65046 0.0
H699 H 0.32441 0.14188 0.6993 0.0
H700 H 0.34027 0.2119 0.64822 0.0
H701 H 0.33444 0.1768 0.63341 0.0
C702 C 0.33127 0.82432 0.64445 0.0
C703 C 0.32738 0.83051 0.6343 0.0
C704 C 0.33463 0.8304 0.6549 0.0
C705 C 0.33423 0.84287 0.65548 0.0
C706 C 0.33027 0.84907 0.64535 0.0
C707 C 0.32689 0.84298 0.6349 0.0
C708 C 0.33808 0.84933 0.66657 0.0
C709 C 0.34803 0.84552 0.67323 0.0
C710 C 0.35172 0.8514 0.68377 0.0
C711 C 0.34534 0.86128 0.68761 0.0
C712 C 0.33536 0.86527 0.68111 0.0
C713 C 0.33183 0.85925 0.67058 0.0
C714 C 0.32857 0.87563 0.68542 0.0
C715 C 0.32611 0.87687 0.69755 0.0
C716 C 0.32458 0.88442 0.6775 0.0
C717 C 0.3184 0.89426 0.68163 0.0
C718 C 0.31599 0.89551 0.69376 0.0
C719 C 0.36221 0.84716 0.69076 0.0
C720 C 0.36385 0.83496 0.69266 0.0
C721 C 0.37068 0.85524 0.69554 0.0
C722 C 0.38058 0.85121 0.702 0.0
C723 C 0.38222 0.83901 0.7039 0.0
C724 C 0.37372 0.83094 0.69917 0.0
C725 C 0.31989 0.88667 0.70166 0.0
H726 H 0.3319 0.81474 0.6443 0.0
H727 H 0.33748 0.82531 0.66255 0.0
H728 H 0.32994 0.85867 0.64544 0.0
H729 H 0.32381 0.84804 0.62731 0.0
H730 H 0.3531 0.8381 0.67006 0.0
H731 H 0.32398 0.86209 0.66569 0.0
H732 H 0.34814 0.86585 0.69573 0.0
H733 H 0.32893 0.87021 0.70388 0.0
H734 H 0.3264 0.88378 0.66812 0.0
H735 H 0.31544 0.90085 0.67529 0.0
H736 H 0.35744 0.82851 0.68919 0.0
H737 H 0.36973 0.86469 0.69416 0.0
H738 H 0.31831 0.8874 0.71108 0.0
H739 H 0.37476 0.82148 0.70035 0.0
H740 H 0.38691 0.85767 0.70561 0.0
C741 C 0.67213 0.81781 0.63135 0.0
C742 C 0.68436 0.81849 0.62954 0.0
C743 C 0.66727 0.82314 0.6413 0.0
C744 C 0.67455 0.8291 0.64983 0.0
C745 C 0.68681 0.82985 0.64793 0.0
C746 C 0.69164 0.82468 0.63784 0.0
C747 C 0.66933 0.83432 0.66071 0.0
C748 C 0.65973 0.82861 0.6661 0.0
C749 C 0.65443 0.83352 0.67612 0.0
C750 C 0.65905 0.84417 0.68097 0.0
C751 C 0.66878 0.84994 0.67591 0.0
C752 C 0.67382 0.84499 0.66575 0.0
C753 C 0.67367 0.86111 0.68133 0.0
C754 C 0.66605 0.86999 0.6853 0.0
C755 C 0.68596 0.86281 0.68293 0.0
C756 C 0.69052 0.87304 0.6886 0.0
C757 C 0.68289 0.88183 0.69273 0.0
C758 C 0.644 0.82757 0.68141 0.0
C759 C 0.63494 0.82257 0.67408 0.0
C760 C 0.64292 0.82699 0.69381 0.0
C761 C 0.63295 0.8217 0.69875 0.0
C762 C 0.62384 0.81681 0.69142 0.0
C763 C 0.62499 0.81723 0.67903 0.0
C764 C 0.6706 0.88023 0.69092 0.0
H765 H 0.6663 0.81324 0.62499 0.0
H766 H 0.65776 0.82263 0.64225 0.0
H767 H 0.69274 0.83421 0.65434 0.0
H768 H 0.70112 0.82527 0.63666 0.0
H769 H 0.65646 0.82017 0.66262 0.0
H770 H 0.68106 0.84964 0.6616 0.0
H771 H 0.65506 0.84799 0.68874 0.0
H772 H 0.65654 0.86901 0.68409 0.0
H773 H 0.69206 0.8561 0.68005 0.0
H774 H 0.70003 0.87406 0.68974 0.0
H775 H 0.6354 0.823 0.6645 0.0
H776 H 0.64982 0.83057 0.69972 0.0
H777 H 0.66447 0.88678 0.69407 0.0
H778 H 0.61806 0.81369 0.67313 0.0
H779 H 0.63241 0.82136 0.70833 0.0
C780 C 0.63187 0.8248 0.33829 0.0
C781 C 0.63002 0.82219 0.32613 0.0
C782 C 0.64205 0.83096 0.34233 0.0
C783 C 0.65063 0.83475 0.33431 0.0
C784 C 0.64881 0.83214 0.32216 0.0
C785 C 0.63867 0.82591 0.31813 0.0
C786 C 0.66139 0.84144 0.33859 0.0
C787 C 0.66765 0.83786 0.34891 0.0
C788 C 0.67781 0.84411 0.35305 0.0
C789 C 0.68165 0.85414 0.34677 0.0
C790 C 0.67548 0.85794 0.33647 0.0
C791 C 0.6654 0.85148 0.33243 0.0
C792 C 0.67945 0.86878 0.33007 0.0
C793 C 0.68324 0.87899 0.33642 0.0
C794 C 0.67944 0.86903 0.31758 0.0
C795 C 0.68314 0.87923 0.31159 0.0
C796 C 0.68694 0.88944 0.31795 0.0
C797 C 0.68441 0.84019 0.36395 0.0
C798 C 0.6783 0.83662 0.37407 0.0
C799 C 0.69687 0.83998 0.36433 0.0
C800 C 0.70305 0.83627 0.37456 0.0
C801 C 0.69694 0.83275 0.3847 0.0
C802 C 0.68448 0.83298 0.38433 0.0
C803 C 0.68693 0.88918 0.33044 0.0
H804 H 0.62533 0.82228 0.3447 0.0
H805 H 0.6431 0.83296 0.35172 0.0
H806 H 0.65533 0.83478 0.31577 0.0
H807 H 0.63769 0.82389 0.30873 0.0
H808 H 0.66476 0.82999 0.35356 0.0
H809 H 0.66044 0.85447 0.32466 0.0
H810 H 0.68944 0.85903 0.34993 0.0
H811 H 0.68318 0.87918 0.34604 0.0
H812 H 0.67672 0.86128 0.31241 0.0
H813 H 0.68319 0.87903 0.30198 0.0
H814 H 0.66871 0.83677 0.37412 0.0
H815 H 0.70185 0.84256 0.35665 0.0
H816 H 0.68959 0.89693 0.33563 0.0
H817 H 0.67949 0.83021 0.39193 0.0
H818 H 0.71264 0.83629 0.37458 0.0
C819 C 0.68164 0.20422 0.38997 0.0
C820 C 0.69393 0.20582 0.39182 0.0
C821 C 0.67711 0.19824 0.37989 0.0
C822 C 0.68473 0.19376 0.37129 0.0
C823 C 0.69702 0.19528 0.37316 0.0
C824 C 0.70156 0.20121 0.3833 0.0
C825 C 0.67981 0.18769 0.36037 0.0
C826 C 0.66944 0.19187 0.35473 0.0
C827 C 0.66448 0.18616 0.34459 0.0
C828 C 0.67026 0.17624 0.33989 0.0
C829 C 0.68077 0.17197 0.34528 0.0
C830 C 0.6854 0.17773 0.35557 0.0
C831 C 0.68692 0.16147 0.34026 0.0
C832 C 0.68044 0.1516 0.33576 0.0
C833 C 0.69937 0.16119 0.34002 0.0
C834 C 0.70518 0.15131 0.3355 0.0
C835 C 0.69871 0.14143 0.33105 0.0
C836 C 0.65326 0.19064 0.33902 0.0
C837 C 0.64409 0.19472 0.34616 0.0
C838 C 0.65168 0.19113 0.32659 0.0
C839 C 0.64127 0.19569 0.32146 0.0
C840 C 0.63216 0.19991 0.32862 0.0
C841 C 0.63372 0.19932 0.34103 0.0
C842 C 0.68626 0.14172 0.3312 0.0
H843 H 0.67546 0.20776 0.39622 0.0
H844 H 0.66761 0.19709 0.37887 0.0
H845 H 0.70316 0.19206 0.36669 0.0
H846 H 0.71108 0.20211 0.38447 0.0
H847 H 0.66531 0.19979 0.35811 0.0
H848 H 0.69322 0.17425 0.36003 0.0
H849 H 0.66657 0.17183 0.33203 0.0
H850 H 0.67086 0.1514 0.33596 0.0
H851 H 0.70466 0.1687 0.34321 0.0
H852 H 0.71476 0.15148 0.33534 0.0
H853 H 0.6449 0.19434 0.35575 0.0
H854 H 0.65858 0.18816 0.32081 0.0
H855 H 0.68099 0.13421 0.32799 0.0
H856 H 0.62699 0.20257 0.34685 0.0
H857 H 0.64034 0.19584 0.31187 0.0
C858 C 0.3301 0.13423 0.33898 0.0
C859 C 0.31766 0.13458 0.33916 0.0
C860 C 0.33696 0.14409 0.34254 0.0
C861 C 0.33157 0.15455 0.34641 0.0
C862 C 0.31915 0.15488 0.34673 0.0
C863 C 0.31227 0.14503 0.34313 0.0
C864 C 0.3389 0.16512 0.34995 0.0
C865 C 0.34855 0.1686 0.3431 0.0
C866 C 0.35559 0.17855 0.34632 0.0
C867 C 0.35279 0.18508 0.35653 0.0
C868 C 0.34314 0.18178 0.36351 0.0
C869 C 0.33627 0.17176 0.36013 0.0
C870 C 0.34025 0.18881 0.37431 0.0
C871 C 0.3493 0.19352 0.38184 0.0
C872 C 0.3284 0.19092 0.37714 0.0
C873 C 0.32568 0.19756 0.38722 0.0
C874 C 0.33473 0.20234 0.39471 0.0
C875 C 0.36581 0.18212 0.33897 0.0
C876 C 0.3731 0.17348 0.33396 0.0
C877 C 0.36836 0.19416 0.33686 0.0
C878 C 0.37795 0.19748 0.32996 0.0
C879 C 0.3852 0.18884 0.3249 0.0
C880 C 0.38264 0.1768 0.32699 0.0
C881 C 0.34658 0.20023 0.39188 0.0
H882 H 0.33456 0.12627 0.3362 0.0
H883 H 0.34652 0.14349 0.34236 0.0
H884 H 0.31473 0.16286 0.34954 0.0
H885 H 0.30272 0.14569 0.34322 0.0
H886 H 0.35039 0.16371 0.33505 0.0
H887 H 0.32902 0.16892 0.3656 0.0
H888 H 0.35814 0.19278 0.35906 0.0
H889 H 0.35852 0.19195 0.38005 0.0
H890 H 0.3212 0.18756 0.37148 0.0
H891 H 0.31645 0.19884 0.38918 0.0
H892 H 0.37151 0.16413 0.3355 0.0
H893 H 0.36287 0.20105 0.34044 0.0
H894 H 0.35379 0.20387 0.39734 0.0
H895 H 0.38791 0.16989 0.32313 0.0
H896 H 0.37973 0.20684 0.32868 0.0
C897 C 0.3173 0.83618 0.37198 0.0
C898 C 0.32428 0.83308 0.38201 0.0
C899 C 0.32254 0.84062 0.36178 0.0
C900 C 0.3349 0.84199 0.36127 0.0
C901 C 0.34192 0.83876 0.37119 0.0
C902 C 0.33667 0.83441 0.38146 0.0
C903 C 0.34038 0.84704 0.3505 0.0
C904 C 0.33549 0.85713 0.34508 0.0
C905 C 0.34042 0.86201 0.33484 0.0
C906 C 0.35036 0.8566 0.33 0.0
C907 C 0.3554 0.84648 0.33523 0.0
C908 C 0.3504 0.84181 0.34557 0.0
C909 C 0.36582 0.8408 0.32976 0.0
C910 C 0.36644 0.83976 0.31734 0.0
C911 C 0.37534 0.83668 0.33684 0.0
C912 C 0.38533 0.83184 0.33159 0.0
C913 C 0.38602 0.831 0.31915 0.0
C914 C 0.33518 0.87273 0.3292 0.0
C915 C 0.32282 0.87405 0.32832 0.0
C916 C 0.34247 0.88175 0.32466 0.0
C917 C 0.33754 0.89185 0.31944 0.0
C918 C 0.32519 0.8932 0.31869 0.0
C919 C 0.31789 0.88417 0.32316 0.0
C920 C 0.3764 0.83496 0.31211 0.0
H921 H 0.30777 0.83505 0.37193 0.0
H922 H 0.3169 0.84288 0.35421 0.0
H923 H 0.35146 0.83983 0.37112 0.0
H924 H 0.34235 0.8323 0.38903 0.0
H925 H 0.32798 0.86137 0.34904 0.0
H926 H 0.35406 0.8339 0.34957 0.0
H927 H 0.35418 0.86029 0.32209 0.0
H928 H 0.3592 0.84267 0.31161 0.0
H929 H 0.3752 0.83741 0.34643 0.0
H930 H 0.39249 0.82875 0.33731 0.0
H931 H 0.31692 0.8672 0.33152 0.0
H932 H 0.35203 0.88112 0.32534 0.0
H933 H 0.37665 0.83458 0.3025 0.0
H934 H 0.30834 0.88487 0.32256 0.0
H935 H 0.3434 0.89872 0.31622 0.0
C936 C 0.70488 0.68429 0.1357 0.0
C937 C 0.70744 0.69653 0.13587 0.0
C938 C 0.69821 0.67915 0.14464 0.0
C939 C 0.694 0.68609 0.15402 0.0
C940 C 0.69644 0.69836 0.15411 0.0
C941 C 0.70307 0.70352 0.14513 0.0
C942 C 0.68727 0.68045 0.16375 0.0
C943 C 0.69071 0.66937 0.16822 0.0
C944 C 0.68442 0.6638 0.17727 0.0
C945 C 0.67452 0.66948 0.18194 0.0
C946 C 0.67097 0.68063 0.17763 0.0
C947 C 0.67742 0.68605 0.16858 0.0
C948 C 0.66043 0.6866 0.18239 0.0
C949 C 0.64957 0.68049 0.18318 0.0
C950 C 0.66107 0.69861 0.18579 0.0
C951 C 0.65104 0.70442 0.1898 0.0
C952 C 0.64005 0.69843 0.19033 0.0
C953 C 0.68845 0.65213 0.18184 0.0
C954 C 0.69175 0.64318 0.17388 0.0
C955 C 0.68973 0.65009 0.19411 0.0
C956 C 0.69466 0.6395 0.1983 0.0
C957 C 0.69834 0.6307 0.19031 0.0
C958 C 0.69659 0.6326 0.17805 0.0
C959 C 0.63948 0.68635 0.18702 0.0
H960 H 0.70793 0.6787 0.12858 0.0
H961 H 0.6963 0.66971 0.14414 0.0
H962 H 0.69345 0.70394 0.16127 0.0
H963 H 0.70499 0.71296 0.14557 0.0
H964 H 0.69853 0.66517 0.16484 0.0
H965 H 0.67453 0.69449 0.16505 0.0
H966 H 0.66959 0.66525 0.18891 0.0
H967 H 0.6488 0.67126 0.18049 0.0
H968 H 0.66936 0.7035 0.1854 0.0
H969 H 0.65196 0.71362 0.19253 0.0
H970 H 0.69068 0.64441 0.16438 0.0
H971 H 0.68736 0.65686 0.20045 0.0
H972 H 0.63119 0.68144 0.1871 0.0
H973 H 0.69904 0.62592 0.17164 0.0
H974 H 0.69596 0.63841 0.20779 0.0
C975 C 0.38526 0.69839 0.1904 0.0
C976 C 0.39456 0.69102 0.19424 0.0
C977 C 0.37483 0.69353 0.18527 0.0
C978 C 0.37342 0.68117 0.18394 0.0
C979 C 0.38279 0.67383 0.18761 0.0
C980 C 0.39321 0.67868 0.19269 0.0
C981 C 0.36209 0.67584 0.17916 0.0
C982 C 0.35614 0.68066 0.1692 0.0
C983 C 0.34552 0.67546 0.16463 0.0
C984 C 0.34089 0.66533 0.17026 0.0
C985 C 0.34674 0.66038 0.18022 0.0
C986 C 0.35726 0.66578 0.18461 0.0
C987 C 0.34199 0.64956 0.18608 0.0
C988 C 0.3298 0.64813 0.188 0.0
C989 C 0.34973 0.64067 0.1901 0.0
C990 C 0.34545 0.63075 0.1961 0.0
C991 C 0.3333 0.62942 0.19822 0.0
C992 C 0.33936 0.68047 0.15389 0.0
C993 C 0.33877 0.69282 0.15222 0.0
C994 C 0.33406 0.67295 0.14518 0.0
C995 C 0.32835 0.67764 0.13509 0.0
C996 C 0.32783 0.68998 0.13339 0.0
C997 C 0.3331 0.6975 0.1421 0.0
C998 C 0.3255 0.63817 0.19399 0.0
H999 H 0.38606 0.70794 0.19133 0.0
H1000 H 0.36776 0.69943 0.1826 0.0
H1001 H 0.38206 0.66428 0.18659 0.0
H1002 H 0.40011 0.67271 0.19563 0.0
H1003 H 0.35998 0.68825 0.16479 0.0
H1004 H 0.36162 0.66225 0.1925 0.0
H1005 H 0.33274 0.66125 0.16687 0.0
H1006 H 0.3236 0.65486 0.18514 0.0
H1007 H 0.35914 0.64134 0.18856 0.0
H1008 H 0.35168 0.62407 0.19903 0.0
H1009 H 0.34256 0.6989 0.15881 0.0
H1010 H 0.3345 0.6634 0.14602 0.0
H1011 H 0.3161 0.63747 0.19556 0.0
H1012 H 0.33273 0.70705 0.14117 0.0
H1013 H 0.32454 0.67158 0.12849 0.0
C1014 C 0.33874 0.31446 0.14572 0.0
C1015 C 0.33692 0.32112 0.13533 0.0
C1016 C 0.34231 0.32004 0.1564 0.0
C1017 C 0.34397 0.33242 0.15695 0.0
C1018 C 0.34207 0.33909 0.14658 0.0
C1019 C 0.33866 0.33349 0.13587 0.0
C1020 C 0.34774 0.33838 0.1683 0.0
C1021 C 0.35714 0.33385 0.17524 0.0
C1022 C 0.36096 0.33954 0.18584 0.0
C1023 C 0.35514 0.34985 0.18953 0.0
C1024 C 0.34554 0.35443 0.18282 0.0
C1025 C 0.34198 0.34864 0.17216 0.0
C1026 C 0.33909 0.3651 0.18704 0.0
C1027 C 0.33692 0.36672 0.19919 0.0
C1028 C 0.33492 0.37368 0.17897 0.0
C1029 C 0.32872 0.38357 0.18294 0.0
C1030 C 0.32655 0.38519 0.19509 0.0
C1031 C 0.37109 0.33474 0.19298 0.0
C1032 C 0.37188 0.32249 0.19512 0.0
C1033 C 0.38015 0.34229 0.19751 0.0
C1034 C 0.38989 0.33768 0.20383 0.0
C1035 C 0.39077 0.32539 0.20585 0.0
C1036 C 0.38155 0.31789 0.20151 0.0
C1037 C 0.33078 0.37663 0.20316 0.0
H1038 H 0.33752 0.30491 0.14556 0.0
H1039 H 0.34364 0.31468 0.16427 0.0
H1040 H 0.34336 0.34863 0.14671 0.0
H1041 H 0.33722 0.33887 0.12804 0.0
H1042 H 0.36172 0.32605 0.1722 0.0
H1043 H 0.33449 0.35191 0.167 0.0
H1044 H 0.35809 0.35427 0.19767 0.0
H1045 H 0.33984 0.36025 0.20567 0.0
H1046 H 0.33653 0.37283 0.16957 0.0
H1047 H 0.32552 0.38989 0.17643 0.0
H1048 H 0.36495 0.31646 0.19191 0.0
H1049 H 0.37987 0.35175 0.1959 0.0
H1050 H 0.32946 0.37763 0.2126 0.0
H1051 H 0.38177 0.30843 0.20309 0.0
H1052 H 0.39687 0.34373 0.20687 0.0
C1053 C 0.68495 0.33435 0.13151 0.0
C1054 C 0.69738 0.33434 0.13101 0.0
C1055 C 0.67936 0.33842 0.14164 0.0
C1056 C 0.68602 0.3425 0.15161 0.0
C1057 C 0.69845 0.34265 0.15108 0.0
C1058 C 0.70406 0.33864 0.1409 0.0
C1059 C 0.67998 0.3463 0.1626 0.0
C1060 C 0.66992 0.34005 0.16638 0.0
C1061 C 0.66403 0.34352 0.17663 0.0
C1062 C 0.66834 0.35335 0.18323 0.0
C1063 C 0.67839 0.35973 0.17964 0.0
C1064 C 0.68417 0.35613 0.16932 0.0
C1065 C 0.68275 0.37021 0.18664 0.0
C1066 C 0.67477 0.37862 0.19088 0.0
C1067 C 0.69491 0.37183 0.18923 0.0
C1068 C 0.69898 0.38159 0.196 0.0
C1069 C 0.69099 0.38998 0.20025 0.0
C1070 C 0.65336 0.33687 0.18041 0.0
C1071 C 0.64442 0.33361 0.17204 0.0
C1072 C 0.65205 0.33368 0.19235 0.0
C1073 C 0.64206 0.32728 0.19584 0.0
C1074 C 0.63311 0.32403 0.18747 0.0
C1075 C 0.63439 0.32729 0.17554 0.0
C1076 C 0.67884 0.3884 0.19758 0.0
H1077 H 0.6795 0.33098 0.12415 0.0
H1078 H 0.66977 0.33835 0.14164 0.0
H1079 H 0.70387 0.34565 0.15862 0.0
H1080 H 0.71364 0.33891 0.14078 0.0
H1081 H 0.6668 0.33226 0.16149 0.0
H1082 H 0.69174 0.36119 0.16636 0.0
H1083 H 0.66384 0.35605 0.19116 0.0
H1084 H 0.66536 0.37768 0.18894 0.0
H1085 H 0.70127 0.36547 0.18616 0.0
H1086 H 0.7084 0.38262 0.19779 0.0
H1087 H 0.64515 0.33603 0.16279 0.0
H1088 H 0.65883 0.336 0.19898 0.0
H1089 H 0.67245 0.39466 0.2008 0.0
H1090 H 0.6277 0.32483 0.16887 0.0
H1091 H 0.64127 0.32497 0.20511 0.0
C1092 C 0.64393 0.3275 0.83482 0.0
C1093 C 0.64237 0.32563 0.82251 0.0
C1094 C 0.65347 0.33432 0.83937 0.0
C1095 C 0.66172 0.33945 0.83172 0.0
C1096 C 0.66013 0.33766 0.8194 0.0
C1097 C 0.65058 0.33083 0.81486 0.0
C1098 C 0.67204 0.34648 0.83662 0.0
C1099 C 0.67823 0.34263 0.84686 0.0
C1100 C 0.68796 0.34914 0.85164 0.0
C1101 C 0.69153 0.35963 0.84597 0.0
C1102 C 0.68547 0.3637 0.83571 0.0
C1103 C 0.67573 0.35703 0.83111 0.0
C1104 C 0.68921 0.37497 0.8299 0.0
C1105 C 0.69287 0.3849 0.83676 0.0
C1106 C 0.68913 0.37593 0.81743 0.0
C1107 C 0.69261 0.38651 0.812 0.0
C1108 C 0.69628 0.39644 0.81886 0.0
C1109 C 0.69432 0.34494 0.86258 0.0
C1110 C 0.68796 0.34038 0.87215 0.0
C1111 C 0.70676 0.34534 0.86352 0.0
C1112 C 0.71269 0.34121 0.87374 0.0
C1113 C 0.70633 0.33662 0.88329 0.0
C1114 C 0.69388 0.33629 0.88237 0.0
C1115 C 0.69637 0.39547 0.83132 0.0
H1116 H 0.63767 0.32382 0.84097 0.0
H1117 H 0.6543 0.33568 0.84889 0.0
H1118 H 0.6664 0.34134 0.81327 0.0
H1119 H 0.64976 0.32945 0.80534 0.0
H1120 H 0.67565 0.33436 0.85098 0.0
H1121 H 0.6708 0.36022 0.82342 0.0
H1122 H 0.69904 0.36465 0.84959 0.0
H1123 H 0.69292 0.38457 0.84637 0.0
H1124 H 0.68648 0.36844 0.81185 0.0
H1125 H 0.69229 0.38694 0.80239 0.0
H1126 H 0.67837 0.34005 0.87178 0.0
H1127 H 0.71194 0.3487 0.85629 0.0
H1128 H 0.69928 0.40285 0.83692 0.0
H1129 H 0.68869 0.3327 0.88948 0.0
H1130 H 0.72228 0.34171 0.8742 0.0
C1131 C 0.69195 0.70986 0.8966 0.0
C1132 C 0.70419 0.71218 0.89779 0.0
C1133 C 0.68727 0.70354 0.8868 0.0
C1134 C 0.69468 0.6994 0.87786 0.0
C1135 C 0.70695 0.70156 0.87911 0.0
C1136 C 0.71164 0.70787 0.88895 0.0
C1137 C 0.68954 0.69315 0.86715 0.0
C1138 C 0.67887 0.69708 0.8619 0.0
C1139 C 0.6737 0.69127 0.85194 0.0
C1140 C 0.67945 0.68144 0.84707 0.0
C1141 C 0.69017 0.67733 0.85214 0.0
C1142 C 0.69514 0.68328 0.86217 0.0
C1143 C 0.69604 0.66669 0.84712 0.0
C1144 C 0.68932 0.65666 0.84346 0.0
C1145 C 0.70842 0.66642 0.84603 0.0
C1146 C 0.71392 0.65639 0.8414 0.0
C1147 C 0.7072 0.64634 0.8378 0.0
C1148 C 0.66227 0.69555 0.84676 0.0
C1149 C 0.65306 0.69877 0.85424 0.0
C1150 C 0.66058 0.69683 0.83442 0.0
C1151 C 0.65004 0.70153 0.8297 0.0
C1152 C 0.64093 0.70501 0.83722 0.0
C1153 C 0.64253 0.70341 0.84954 0.0
C1154 C 0.69482 0.64662 0.83887 0.0
H1155 H 0.68591 0.71313 0.90314 0.0
H1156 H 0.67781 0.7019 0.88624 0.0
H1157 H 0.71291 0.69858 0.87236 0.0
H1158 H 0.72113 0.70933 0.88964 0.0
H1159 H 0.67466 0.70488 0.86544 0.0
H1160 H 0.70321 0.68 0.86633 0.0
H1161 H 0.67552 0.67696 0.83935 0.0
H1162 H 0.67979 0.6565 0.84428 0.0
H1163 H 0.71386 0.67402 0.84866 0.0
H1164 H 0.72347 0.65645 0.8408 0.0
H1165 H 0.65399 0.69769 0.86378 0.0
H1166 H 0.66755 0.69452 0.82842 0.0
H1167 H 0.68934 0.63911 0.83607 0.0
H1168 H 0.63562 0.70572 0.85559 0.0
H1169 H 0.64917 0.70273 0.82018 0.0
C1170 C 0.3393 0.63525 0.82972 0.0
C1171 C 0.32687 0.63491 0.82845 0.0
C1172 C 0.3452 0.64548 0.8339 0.0
C1173 C 0.33883 0.65562 0.83698 0.0
C1174 C 0.3264 0.65522 0.83604 0.0
C1175 C 0.32048 0.64498 0.83179 0.0
C1176 C 0.34521 0.66668 0.84083 0.0
C1177 C 0.35518 0.6706 0.8347 0.0
C1178 C 0.36132 0.68102 0.83817 0.0
C1179 C 0.35738 0.68755 0.84795 0.0
C1180 C 0.34746 0.68374 0.85429 0.0
C1181 C 0.34139 0.67331 0.85059 0.0
C1182 C 0.34359 0.69055 0.86486 0.0
C1183 C 0.35199 0.69541 0.87303 0.0
C1184 C 0.33149 0.69221 0.86691 0.0
C1185 C 0.32789 0.69855 0.87688 0.0
C1186 C 0.3363 0.70341 0.88503 0.0
C1187 C 0.37186 0.68507 0.83157 0.0
C1188 C 0.38046 0.67692 0.82811 0.0
C1189 C 0.37339 0.6971 0.82868 0.0
C1190 C 0.38329 0.70089 0.82247 0.0
C1191 C 0.39193 0.69275 0.81906 0.0
C1192 C 0.3904 0.68072 0.82196 0.0
C1193 C 0.34839 0.70178 0.88297 0.0
H1194 H 0.3445 0.62758 0.82749 0.0
H1195 H 0.35478 0.64544 0.83473 0.0
H1196 H 0.32125 0.66293 0.83825 0.0
H1197 H 0.31092 0.64509 0.83081 0.0
H1198 H 0.35801 0.66568 0.82699 0.0
H1199 H 0.3339 0.67014 0.85554 0.0
H1200 H 0.36208 0.69559 0.85067 0.0
H1201 H 0.36138 0.69413 0.87186 0.0
H1202 H 0.32479 0.68874 0.86071 0.0
H1203 H 0.31851 0.69977 0.87812 0.0
H1204 H 0.37959 0.66761 0.83029 0.0
H1205 H 0.36687 0.70358 0.83111 0.0
H1206 H 0.35509 0.70524 0.88917 0.0
H1207 H 0.39683 0.67421 0.81937 0.0
H1208 H 0.38427 0.71024 0.82049 0.0
C1209 C 0.32759 0.33597 0.87079 0.0
C1210 C 0.33437 0.33237 0.88077 0.0
C1211 C 0.33307 0.34006 0.86059 0.0
C1212 C 0.34549 0.34063 0.86004 0.0
C1213 C 0.3523 0.33679 0.86989 0.0
C1214 C 0.34681 0.33274 0.88015 0.0
C1215 C 0.35122 0.34549 0.84931 0.0
C1216 C 0.3467 0.35577 0.84388 0.0
C1217 C 0.35178 0.36041 0.83362 0.0
C1218 C 0.36143 0.35458 0.82873 0.0
C1219 C 0.36612 0.34432 0.83399 0.0
C1220 C 0.36106 0.3399 0.84438 0.0
C1221 C 0.37624 0.33832 0.82839 0.0
C1222 C 0.37616 0.33652 0.81603 0.0
C1223 C 0.38628 0.335 0.83517 0.0
C1224 C 0.39623 0.33044 0.8296 0.0
C1225 C 0.3963 0.32905 0.81716 0.0
C1226 C 0.34702 0.3713 0.82791 0.0
C1227 C 0.33473 0.37299 0.8266 0.0
C1228 C 0.35475 0.37996 0.82344 0.0
C1229 C 0.35033 0.38994 0.8176 0.0
C1230 C 0.33806 0.39153 0.8161 0.0
C1231 C 0.33031 0.383 0.82077 0.0
C1232 C 0.38604 0.33192 0.81049 0.0
H1233 H 0.31801 0.33555 0.87082 0.0
H1234 H 0.32756 0.34273 0.85308 0.0
H1235 H 0.36188 0.33722 0.86979 0.0
H1236 H 0.35233 0.33016 0.88769 0.0
H1237 H 0.33935 0.36032 0.84781 0.0
H1238 H 0.36452 0.33189 0.84838 0.0
H1239 H 0.36532 0.35802 0.82074 0.0
H1240 H 0.36847 0.33878 0.81059 0.0
H1241 H 0.38661 0.33636 0.8447 0.0
H1242 H 0.40399 0.32839 0.83502 0.0
H1243 H 0.32853 0.36643 0.82982 0.0
H1244 H 0.36426 0.37906 0.8245 0.0
H1245 H 0.38565 0.33069 0.80094 0.0
H1246 H 0.32081 0.3839 0.81966 0.0
H1247 H 0.35654 0.39646 0.81431 0.0
Cu1248 Cu 0.26837 0.26734 0.00942 0.0
N1249 N 0.26858 0.28057 0.99951 0.0
N1250 N 0.27411 0.29228 0.98459 0.0
C1251 C 0.27565 0.28179 0.99014 0.0
C1252 C 0.26567 0.29784 0.99075 0.0
C1253 C 0.26228 0.2906 0.99995 0.0
O1254 O 0.27057 0.25378 0.99886 0.0
C1255 C 0.27837 0.27832 0.02902 0.0
O1256 O 0.26875 0.28452 0.02709 0.0
H1257 H 0.28171 0.275 0.98742 0.0
H1258 H 0.25576 0.29254 1.00652 0.0
N1259 N 0.25387 0.26569 0.01695 0.0
N1260 N 0.24099 0.26006 0.03066 0.0
C1261 C 0.25247 0.26056 0.02759 0.0
C1262 C 0.24293 0.2686 0.01309 0.0
C1263 C 0.23495 0.26513 0.02153 0.0
C1264 C 0.26453 0.24418 0.99936 0.0
O1265 O 0.25799 0.24222 0.00863 0.0
H1266 H 0.25975 0.2569 0.03276 0.0
H1267 H 0.24088 0.27278 1.00467 0.0
O1268 O 0.28051 0.26979 0.02192 0.0
H1269 H 0.26228 0.3066 0.98891 0.0
H1270 H 0.22546 0.26625 0.02095 0.0
Cu1271 Cu 0.77123 0.26986 1.0045 0.0
N1272 N 0.75695 0.27376 0.0131 0.0
N1273 N 0.74495 0.28114 0.02666 0.0
C1274 C 0.75627 0.27999 0.02331 0.0
C1275 C 0.73829 0.27547 0.0182 0.0
C1276 C 0.74573 0.2709 0.00985 0.0
O1277 O 0.77812 0.26188 0.01933 0.0
C1278 C 0.76359 0.2886 0.98831 0.0
O1279 O 0.76778 0.29556 0.99688 0.0
H1280 H 0.76388 0.28375 0.02808 0.0
H1281 H 0.74317 0.26587 1.00196 0.0
N1282 N 0.78546 0.26597 0.99583 0.0
N1283 N 0.7973 0.25876 0.98203 0.0
C1284 C 0.78602 0.25971 0.98563 0.0
C1285 C 0.79668 0.26915 0.99875 0.0
C1286 C 0.80401 0.26467 0.99028 0.0
C1287 C 0.78442 0.26753 0.02708 0.0
O1288 O 0.78662 0.27888 0.0255 0.0
H1289 H 0.77835 0.2559 0.981 0.0
H1290 H 0.79935 0.27445 1.00642 0.0
O1291 O 0.76415 0.27741 0.98955 0.0
H1292 H 0.72874 0.27454 0.01813 0.0
H1293 H 0.81353 0.26589 0.99007 0.0
Cu1294 Cu 0.77427 0.77351 0.01587 0.0
N1295 N 0.78754 0.77577 1.0065 0.0
N1296 N 0.79861 0.78162 0.99133 0.0
C1297 C 0.78764 0.78111 0.99583 0.0
C1298 C 0.80568 0.77634 0.99955 0.0
C1299 C 0.79883 0.77275 0.00888 0.0
O1300 O 0.76082 0.76962 1.00539 0.0
C1301 C 0.77863 0.7962 0.02685 0.0
O1302 O 0.78554 0.79823 0.01786 0.0
H1303 H 0.77985 0.78482 0.99162 0.0
H1304 H 0.80188 0.76832 0.01687 0.0
N1305 N 0.7761 0.76029 0.02554 0.0
N1306 N 0.77188 0.74758 0.04007 0.0
C1307 C 0.77005 0.75848 0.03551 0.0
C1308 C 0.78205 0.75021 0.02367 0.0
C1309 C 0.77951 0.74237 0.03266 0.0
C1310 C 0.7556 0.77621 0.99782 0.0
O1311 O 0.75828 0.78758 0.99749 0.0
H1312 H 0.76419 0.76502 0.03913 0.0
H1313 H 0.78745 0.74852 0.01607 0.0
O1314 O 0.77228 0.78678 0.02685 0.0
H1315 H 0.81512 0.77508 0.9989 0.0
H1316 H 0.78262 0.73335 0.03334 0.0
Cu1317 Cu 0.27266 0.766 0.01492 0.0
N1318 N 0.27096 0.77915 0.02494 0.0
N1319 N 0.26371 0.79006 0.03968 0.0
C1320 C 0.26346 0.77945 0.03402 0.0
C1321 C 0.27171 0.79671 0.03388 0.0
C1322 C 0.27619 0.78995 0.02481 0.0
O1323 O 0.27479 0.75235 0.02539 0.0
C1324 C 0.2577 0.77515 0.99804 0.0
O1325 O 0.26498 0.78406 1.0005 0.0
H1326 H 0.25774 0.77207 0.03623 0.0
H1327 H 0.28263 0.79279 0.01846 0.0
N1328 N 0.28595 0.76706 1.00541 0.0
N1329 N 0.29769 0.76263 0.99034 0.0
C1330 C 0.28709 0.76074 0.99534 0.0
C1331 C 0.29617 0.77323 0.00689 0.0
C1332 C 0.30342 0.77053 0.99758 0.0
C1333 C 0.28389 0.75338 0.03232 0.0
O1334 O 0.29051 0.76299 0.03154 0.0
H1335 H 0.28021 0.75486 0.99179 0.0
H1336 H 0.29834 0.77904 0.01433 0.0
O1337 O 0.25907 0.7655 1.00376 0.0
H1338 H 0.2742 0.80579 0.03604 0.0
H1339 H 0.31234 0.77387 0.99646 0.0
Cu1340 Cu 0.0171 0.24672 0.26928 0.0
N1341 N 0.02491 0.23253 0.26625 0.0
N1342 N 0.03849 0.22033 0.25907 0.0
C1343 C 0.03504 0.23169 0.2603 0.0
C1344 C 0.03021 0.21377 0.26457 0.0
C1345 C 0.02182 0.22132 0.26897 0.0
O1346 O 0.02923 0.25891 0.27259 0.0
C1347 C 1.00506 0.24397 0.24669 0.0
O1348 O 0.01358 0.23663 0.24419 0.0
H1349 H 0.03974 0.23932 0.25691 0.0
H1350 H 0.01394 0.21882 0.27364 0.0
N1351 N 0.00786 0.24565 0.28271 0.0
N1352 N 0.99364 0.25052 0.29523 0.0
C1353 C 0.99854 0.25264 0.28463 0.0
C1354 C 0.00895 0.23877 0.29238 0.0
C1355 C 1.00016 0.24174 0.30013 0.0
C1356 C 0.03684 0.25606 0.28062 0.0
O1357 O 0.03575 0.24565 0.28569 0.0
H1358 H 0.99547 0.25916 0.27829 0.0
H1359 H 0.01574 0.23221 0.29379 0.0
O1360 O 1.00579 0.25002 0.25629 0.0
H1361 H 0.03006 0.20418 0.26511 0.0
H1362 H 0.99888 0.23792 0.30881 0.0
Cu1363 Cu 0.75088 0.02311 0.25932 0.0
N1364 N 0.75209 0.03237 0.2456 0.0
N1365 N 0.75806 0.04687 0.23351 0.0
C1366 C 0.75786 0.04286 0.24479 0.0
C1367 C 0.75204 0.03857 0.22697 0.0
C1368 C 0.74839 0.02965 0.23445 0.0
O1369 O 0.74794 0.03365 0.27266 0.0
C1370 C 0.77364 0.01345 0.25463 0.0
O1371 O 0.77525 0.02297 0.24818 0.0
H1372 H 0.76234 0.04717 0.25226 0.0
H1373 H 0.74364 0.02161 0.23189 0.0
N1374 N 0.73786 0.01275 0.25814 0.0
N1375 N 0.72644 0.99691 0.26198 0.0
C1376 C 0.7371 1.00229 0.2638 0.0
C1377 C 0.72732 0.01411 0.2525 0.0
C1378 C 0.72027 1.00434 0.25481 0.0
C1379 C 0.75509 0.04129 0.27729 0.0
O1380 O 0.76616 0.04156 0.27401 0.0
H1381 H 0.74428 0.99876 0.2692 0.0
H1382 H 0.72487 0.02178 0.24729 0.0
O1383 O 0.76451 0.01269 0.26101 0.0
H1384 H 0.75049 0.0388 0.21745 0.0
H1385 H 0.71119 1.003 0.25173 0.0
Cu1386 Cu 1.00541 0.76245 0.26031 0.0
N1387 N 0.99793 0.77717 0.25978 0.0
N1388 N 0.9843 0.79081 0.25532 0.0
C1389 C 0.98684 0.77912 0.25558 0.0
C1390 C 0.99419 0.79639 0.2596 0.0
C1391 C 1.00257 0.78796 0.26234 0.0
O1392 O 0.9933 0.75034 0.26283 0.0
C1393 C 0.0142 0.76711 0.23719 0.0
O1394 O 1.00572 0.77495 0.23639 0.0
H1395 H 0.98097 0.77212 0.25229 0.0
H1396 H 0.01153 0.78959 0.26566 0.0
N1397 N 0.01647 0.76175 0.27293 0.0
N1398 N 0.03224 0.75563 0.28362 0.0
C1399 C 0.02571 0.75432 0.27343 0.0
C1400 C 0.01712 0.76804 0.28312 0.0
C1401 C 0.02683 0.7643 0.28973 0.0
C1402 C 0.98743 0.75174 0.27224 0.0
O1403 O 0.99003 0.7609 0.27915 0.0
H1404 H 0.02764 0.74817 0.26634 0.0
H1405 H 0.01094 0.77482 0.28559 0.0
O1406 O 0.01464 0.76019 0.24609 0.0
H1407 H 0.99535 0.8059 0.26056 0.0
H1408 H 0.02955 0.7676 0.29844 0.0
Cu1409 Cu 0.24399 0.00927 0.26967 0.0
N1410 N 0.24439 0.01893 0.28323 0.0
N1411 N 0.25039 0.03349 0.29567 0.0
C1412 C 0.2516 0.02842 0.28487 0.0
C1413 C 0.24202 0.0269 0.30101 0.0
C1414 C 0.23835 0.01791 0.29332 0.0
O1415 O 0.24437 0.01975 0.256 0.0
C1416 C 0.25678 0.99154 0.27996 0.0
O1417 O 0.24782 0.99248 0.28709 0.0
H1418 H 0.25761 0.03151 0.2782 0.0
H1419 H 0.23193 0.01099 0.29506 0.0
N1420 N 0.23017 0.99996 0.26849 0.0
N1421 N 0.21807 0.98499 0.26287 0.0
C1422 C 0.22918 0.98953 0.26264 0.0
C1423 C 0.21933 1.00211 0.27261 0.0
C1424 C 0.21183 0.9929 0.26912 0.0
C1425 C 0.23576 0.02694 0.25528 0.0
O1426 O 0.22773 0.02654 0.2635 0.0
H1427 H 0.23643 0.98549 0.25807 0.0
H1428 H 0.21699 0.00989 0.27767 0.0
O1429 O 0.25722 0.99842 0.27104 0.0
H1430 H 0.23897 0.02824 0.30994 0.0
H1431 H 0.20252 0.99208 0.27108 0.0
Cu1432 Cu 0.0168 0.75653 0.76362 0.0
N1433 N 0.02626 0.74315 0.76195 0.0
N1434 N 0.04077 0.73207 0.75478 0.0
C1435 C 0.0355 0.74276 0.75467 0.0
C1436 C 0.03458 0.72548 0.76251 0.0
C1437 C 0.02561 0.73234 0.7669 0.0
O1438 O 0.02778 0.76991 0.76612 0.0
C1439 C 0.99941 0.74777 0.74893 0.0
O1440 O 1.00092 0.73939 0.75686 0.0
H1441 H 0.03831 0.75027 0.74946 0.0
H1442 H 0.01898 0.72954 0.77307 0.0
N1443 N 0.00698 0.75596 0.77672 0.0
N1444 N 0.99196 0.76122 0.7881 0.0
C1445 C 0.99746 0.76289 0.77774 0.0
C1446 C 0.0076 0.74962 0.78681 0.0
C1447 C 0.99834 0.75287 0.79387 0.0
C1448 C 0.03427 0.76872 0.77548 0.0
O1449 O 0.03271 0.75921 0.78197 0.0
H1450 H 0.99483 0.76929 0.77107 0.0
H1451 H 0.01439 0.74326 0.78899 0.0
O1452 O 1.006 0.75703 0.74977 0.0
H1453 H 0.03622 0.71629 0.76464 0.0
H1454 H 0.99647 0.74936 0.80255 0.0
Cu1455 Cu 0.26943 0.00982 0.7715 0.0
N1456 N 0.28404 0.01739 0.76938 0.0
N1457 N 0.29717 0.03092 0.76333 0.0
C1458 C 0.28563 0.02838 0.76502 0.0
C1459 C 0.30308 0.02114 0.76683 0.0
C1460 C 0.29495 0.01281 0.77056 0.0
O1461 O 0.25775 0.02206 0.77435 0.0
C1462 C 0.27109 1.00028 0.74801 0.0
O1463 O 0.27718 0.00997 0.74576 0.0
H1464 H 0.27838 0.03415 0.76259 0.0
H1465 H 0.29681 1.00391 0.77357 0.0
N1466 N 0.27004 0.9998 0.78464 0.0
N1467 N 0.26543 0.98453 0.79635 0.0
C1468 C 0.26271 0.99047 0.78627 0.0
C1469 C 0.2777 0.99982 0.794 0.0
C1470 C 0.27486 0.99043 0.80126 0.0
C1471 C 0.26028 0.02892 0.78314 0.0
O1472 O 0.27007 0.02702 0.78935 0.0
H1473 H 0.2555 0.98816 0.78014 0.0
H1474 H 0.2849 1.00613 0.79537 0.0
O1475 O 0.26605 0.99933 0.75796 0.0
H1476 H 0.31257 0.02001 0.76655 0.0
H1477 H 0.27956 0.98801 0.80937 0.0
Cu1478 Cu 0.02002 0.27408 0.7741 0.0
N1479 N 0.01038 0.2875 0.77457 0.0
N1480 N 0.99546 0.29964 0.76977 0.0
C1481 C 1.00075 0.28919 0.76749 0.0
C1482 C 1.00209 0.30469 0.77865 0.0
C1483 C 0.01126 0.29719 0.78159 0.0
O1484 O 0.00931 0.26037 0.77413 0.0
C1485 C 0.03521 0.28513 0.75891 0.0
O1486 O 0.03314 0.29378 0.76641 0.0
H1487 H 0.9978 0.28291 0.7607 0.0
H1488 H 0.01813 0.29875 0.78831 0.0
N1489 N 0.03035 0.27303 0.78733 0.0
N1490 N 0.04586 0.26706 0.79846 0.0
C1491 C 0.04067 0.26715 0.78751 0.0
C1492 C 0.02897 0.27686 0.79856 0.0
C1493 C 0.03851 0.27317 0.80544 0.0
C1494 C 1.00255 0.26007 0.783 0.0
O1495 O 1.00361 0.26856 0.79102 0.0
H1496 H 0.04408 0.26266 0.77982 0.0
H1497 H 0.02144 0.28172 0.80161 0.0
O1498 O 0.02998 0.27516 0.76027 0.0
H1499 H 1.0004 0.31314 0.78284 0.0
H1500 H 0.03988 0.2748 0.81487 0.0
Cu1501 Cu 0.7575 0.00784 0.75968 0.0
N1502 N 0.76023 0.01652 0.77369 0.0
N1503 N 0.7675 0.03095 0.78559 0.0
C1504 C 0.76584 0.02711 0.77429 0.0
C1505 C 0.7626 0.02247 0.79238 0.0
C1506 C 0.75816 0.01353 0.785 0.0
O1507 O 0.75498 0.01931 0.74699 0.0
C1508 C 0.78048 0.99775 0.76293 0.0
O1509 O 0.7833 0.00766 0.76857 0.0
H1510 H 0.76887 0.03177 0.76653 0.0
H1511 H 0.75406 1.00529 0.78771 0.0
N1512 N 0.74396 0.99826 0.76044 0.0
N1513 N 0.73127 0.9835 0.75561 0.0
C1514 C 0.74156 0.98905 0.75308 0.0
C1515 C 0.73489 0.99863 0.76794 0.0
C1516 C 0.72702 0.98954 0.76496 0.0
C1517 C 0.7461 0.02598 0.74844 0.0
O1518 O 0.73966 0.02434 0.75785 0.0
H1519 H 0.74724 0.98658 0.74591 0.0
H1520 H 0.73406 1.00504 0.77505 0.0
O1521 O 0.77045 0.99681 0.75754 0.0
H1522 H 0.76263 0.02248 0.802 0.0
H1523 H 0.71891 0.98747 0.76944 0.0
Cu1524 Cu 0.27215 0.75852 0.50044 0.0
N1525 N 0.28532 0.76015 0.51079 0.0
N1526 N 0.29612 0.76651 0.52661 0.0
C1527 C 0.28536 0.76635 0.52106 0.0
C1528 C 0.30313 0.76015 0.51947 0.0
C1529 C 0.29645 0.75625 0.50972 0.0
O1530 O 0.2583 0.75834 0.51041 0.0
C1531 C 0.28088 0.76976 0.48101 0.0
O1532 O 0.2877 0.76043 0.48185 0.0
H1533 H 0.27766 0.7709 0.5242 0.0
H1534 H 0.29953 0.75108 0.50233 0.0
N1535 N 0.27189 0.74417 0.49189 0.0
N1536 N 0.26622 0.73084 0.47798 0.0
C1537 C 0.26435 0.74168 0.48273 0.0
C1538 C 0.27879 0.73458 0.49305 0.0
C1539 C 0.27533 0.72635 0.48446 0.0
C1540 C 0.25799 0.74939 0.51728 0.0
O1541 O 0.26661 0.74169 0.5168 0.0
H1542 H 0.25777 0.74784 0.47947 0.0
H1543 H 0.28581 0.73361 0.49968 0.0
O1544 O 0.27294 0.7712 0.48872 0.0
H1545 H 0.31242 0.75838 0.52116 0.0
H1546 H 0.27914 0.71768 0.48318 0.0
Cu1547 Cu 0.75646 0.76274 0.50176 0.0
N1548 N 0.75834 0.74833 0.4939 0.0
N1549 N 0.76443 0.73541 0.4803 0.0
C1550 C 0.76289 0.74695 0.48306 0.0
C1551 C 0.76063 0.72929 0.48978 0.0
C1552 C 0.75686 0.7373 0.49816 0.0
O1553 O 0.75644 0.77507 0.48973 0.0
C1554 C 0.77863 0.75926 0.51378 0.0
O1555 O 0.78164 0.75414 0.50381 0.0
H1556 H 0.7656 0.75431 0.47758 0.0
H1557 H 0.75364 0.73528 0.50689 0.0
N1558 N 0.74192 0.76286 0.50916 0.0
N1559 N 0.72862 0.76677 0.52292 0.0
C1560 C 0.74022 0.76561 0.52064 0.0
C1561 C 0.73104 0.76215 0.50401 0.0
C1562 C 0.7228 0.76461 0.51249 0.0
C1563 C 0.75064 0.78462 0.49075 0.0
O1564 O 0.74591 0.78716 0.50098 0.0
H1565 H 0.74737 0.76746 0.527 0.0
H1566 H 0.72929 0.76055 0.49464 0.0
O1567 O 0.76865 0.76436 0.51424 0.0
H1568 H 0.76075 0.71974 0.49069 0.0
H1569 H 0.71331 0.76509 0.51103 0.0
Cu1570 Cu 0.76352 0.27651 0.51904 0.0
N1571 N 0.74969 0.27626 0.50963 0.0
N1572 N 0.73716 0.27087 0.49479 0.0
C1573 C 0.74849 0.2709 0.49894 0.0
C1574 C 0.731 0.27647 0.50323 0.0
C1575 C 0.73876 0.2798 0.51238 0.0
O1576 O 0.7764 0.2762 0.50792 0.0
C1577 C 0.77064 0.2589 0.5362 0.0
O1578 O 0.7813 0.26369 0.53603 0.0
H1579 H 0.75571 0.26657 0.49457 0.0
H1580 H 0.73655 0.28413 0.52061 0.0
N1581 N 0.76442 0.29025 0.5285 0.0
N1582 N 0.76953 0.30265 0.54346 0.0
C1583 C 0.76978 0.29138 0.5393 0.0
C1584 C 0.76056 0.30115 0.52573 0.0
C1585 C 0.76366 0.30882 0.53494 0.0
C1586 C 0.78558 0.28287 0.5087 0.0
O1587 O 0.78759 0.2892 0.51839 0.0
H1588 H 0.77387 0.28409 0.54397 0.0
H1589 H 0.75603 0.30341 0.51748 0.0
O1590 O 0.76253 0.2628 0.52928 0.0
H1591 H 0.72153 0.27789 0.50291 0.0
H1592 H 0.76205 0.31826 0.53516 0.0
Cu1593 Cu 0.27648 0.27167 0.5229 0.0
N1594 N 0.27487 0.2857 0.53166 0.0
N1595 N 0.26838 0.29788 0.54576 0.0
C1596 C 0.26735 0.28705 0.54062 0.0
C1597 C 0.27687 0.30361 0.53971 0.0
C1598 C 0.28089 0.29605 0.53104 0.0
O1599 O 0.27825 0.25881 0.53446 0.0
C1600 C 0.26196 0.27976 0.50509 0.0
O1601 O 0.26948 0.28861 0.50687 0.0
H1602 H 0.26128 0.28013 0.54331 0.0
H1603 H 0.2878 0.29791 0.52483 0.0
N1604 N 0.29001 0.27186 0.51373 0.0
N1605 N 0.30173 0.26703 0.49881 0.0
C1606 C 0.29066 0.26658 0.50302 0.0
C1607 C 0.30105 0.27586 0.51641 0.0
C1608 C 0.30832 0.27285 0.50722 0.0
C1609 C 0.28576 0.26109 0.54288 0.0
O1610 O 0.29142 0.27134 0.54286 0.0
H1611 H 0.28325 0.26202 0.49865 0.0
H1612 H 0.3037 0.28036 0.52459 0.0
O1613 O 0.26305 0.27056 0.51158 0.0
H1614 H 0.28017 0.3125 0.54159 0.0
H1615 H 0.31773 0.27467 0.50682 0.0
Cu1616 Cu 0.7613 0.53047 0.76192 0.0
N1617 N 0.76251 0.53866 0.74759 0.0
N1618 N 0.76808 0.5525 0.7346 0.0
C1619 C 0.76834 0.54903 0.74608 0.0
C1620 C 0.76174 0.54396 0.72871 0.0
C1621 C 0.75833 0.53545 0.73674 0.0
O1622 O 0.76074 0.54249 0.77447 0.0
C1623 C 0.78393 0.51999 0.75801 0.0
O1624 O 0.78658 0.52985 0.75246 0.0
H1625 H 0.77298 0.55369 0.75326 0.0
H1626 H 0.75327 0.52743 0.73479 0.0
N1627 N 0.74752 0.52109 0.76193 0.0
N1628 N 0.73555 0.50573 0.76603 0.0
C1629 C 0.74662 0.51038 0.7671 0.0
C1630 C 0.73668 0.52335 0.75735 0.0
C1631 C 0.72927 0.5139 0.75987 0.0
C1632 C 0.75433 0.54152 0.78356 0.0
O1633 O 0.74893 0.53137 0.78557 0.0
H1634 H 0.75393 0.50627 0.77185 0.0
H1635 H 0.73432 0.53133 0.7526 0.0
O1636 O 0.77421 0.51923 0.76344 0.0
H1637 H 0.75966 0.54383 0.71927 0.0
H1638 H 0.71999 0.51312 0.7573 0.0
Cu1639 Cu 0.27128 0.51923 0.74734 0.0
N1640 N 0.28419 0.50903 0.74758 0.0
N1641 N 0.29554 0.49385 0.75328 0.0
C1642 C 0.28492 0.49913 0.75416 0.0
C1643 C 0.30171 0.50074 0.74579 0.0
C1644 C 0.2947 0.51011 0.74232 0.0
O1645 O 0.2572 0.50915 0.74828 0.0
C1646 C 0.28255 0.53691 0.76021 0.0
O1647 O 0.2895 0.53581 0.75111 0.0
H1648 H 0.27778 0.49595 0.75955 0.0
H1649 H 0.29724 0.51736 0.73665 0.0
N1650 N 0.27053 0.52832 0.73349 0.0
N1651 N 0.26548 0.54302 0.72115 0.0
C1652 C 0.26427 0.53832 0.73208 0.0
C1653 C 0.2759 0.52657 0.72311 0.0
C1654 C 0.27281 0.53561 0.71549 0.0
C1655 C 0.25346 0.50399 0.73877 0.0
O1656 O 0.2587 0.50636 0.72877 0.0
H1657 H 0.25883 0.54196 0.73894 0.0
H1658 H 0.28159 0.51921 0.72118 0.0
O1659 O 0.27339 0.53024 0.76064 0.0
H1660 H 0.31078 0.49936 0.7433 0.0
H1661 H 0.27585 0.53668 0.70652 0.0
Cu1662 Cu 0.2693 0.502 0.26973 0.0
N1663 N 0.26869 0.49347 0.28396 0.0
N1664 N 0.2632 0.47931 0.29664 0.0
C1665 C 0.26189 0.48374 0.28556 0.0
C1666 C 0.27118 0.4866 0.30222 0.0
C1667 C 0.27453 0.49532 0.29439 0.0
O1668 O 0.27055 0.49025 0.25697 0.0
C1669 C 0.25568 0.51977 0.27787 0.0
O1670 O 0.26446 0.51931 0.28575 0.0
H1671 H 0.25624 0.47989 0.27859 0.0
H1672 H 0.28073 0.50253 0.29621 0.0
N1673 N 0.28263 0.51198 0.26901 0.0
N1674 N 0.29398 0.52707 0.26289 0.0
C1675 C 0.28322 0.5217 0.26215 0.0
C1676 C 0.29339 0.51111 0.27432 0.0
C1677 C 0.3004 0.52042 0.27058 0.0
C1678 C 0.27901 0.48301 0.25877 0.0
O1679 O 0.28565 0.48435 0.26846 0.0
H1680 H 0.27581 0.52474 0.25674 0.0
H1681 H 0.29603 0.50411 0.28031 0.0
O1682 O 0.2556 0.51243 0.26919 0.0
H1683 H 0.27427 0.48582 0.31136 0.0
H1684 H 0.3096 0.52197 0.27313 0.0
Cu1685 Cu 0.76615 0.50283 0.25742 0.0
N1686 N 0.77913 0.49273 0.25706 0.0
N1687 N 0.79118 0.47807 0.26277 0.0
C1688 C 0.78105 0.48389 0.26484 0.0
C1689 C 0.79579 0.4835 0.25323 0.0
C1690 C 0.78834 0.49253 0.24973 0.0
O1691 O 0.75254 0.49243 0.25963 0.0
C1692 C 0.7786 0.52048 0.26891 0.0
O1693 O 0.78531 0.51818 0.25985 0.0
H1694 H 0.775 0.48177 0.27183 0.0
H1695 H 0.78962 0.49861 0.24247 0.0
N1696 N 0.76408 0.51131 0.24332 0.0
N1697 N 0.75778 0.52573 0.23122 0.0
C1698 C 0.75908 0.52206 0.24258 0.0
C1699 C 0.76612 0.50802 0.23206 0.0
C1700 C 0.76229 0.51694 0.22456 0.0
C1701 C 0.74254 0.49365 0.25433 0.0
O1702 O 0.74033 0.50351 0.24857 0.0
H1703 H 0.75624 0.52698 0.25025 0.0
H1704 H 0.76979 0.4996 0.22946 0.0
O1705 O 0.76909 0.51444 0.27002 0.0
H1706 H 0.80406 0.48128 0.24917 0.0
H1707 H 0.76238 0.51674 0.21495 0.0
Cu1708 Cu 0.52416 0.26527 0.75186 0.0
N1709 N 0.51423 0.27833 0.75118 0.0
N1710 N 0.49912 0.2899 0.75595 0.0
C1711 C 0.50419 0.2792 0.75727 0.0
C1712 C 0.5063 0.29602 0.74871 0.0
C1713 C 0.51563 0.28884 0.74577 0.0
O1714 O 0.51338 0.25185 0.75389 0.0
C1715 C 0.54353 0.26167 0.7688 0.0
O1716 O 0.54405 0.25073 0.76475 0.0
H1717 H 0.50093 0.27222 0.76292 0.0
H1718 H 0.52302 0.29118 0.7403 0.0
N1719 N 0.5323 0.26352 0.73769 0.0
N1720 N 0.54623 0.25792 0.72513 0.0
C1721 C 0.54365 0.26024 0.73655 0.0
C1722 C 0.52757 0.26344 0.72659 0.0
C1723 C 0.53613 0.25996 0.71882 0.0
C1724 C 0.51374 0.24222 0.74793 0.0
O1725 O 0.52319 0.23989 0.74182 0.0
H1726 H 0.54972 0.25891 0.74399 0.0
H1727 H 0.51839 0.26524 0.72438 0.0
O1728 O 0.53544 0.26847 0.76487 0.0
H1729 H 0.50496 0.30505 0.7458 0.0
H1730 H 0.53493 0.25871 0.70932 0.0
Cu1731 Cu 0.50798 0.76612 0.76997 0.0
N1732 N 0.51732 0.76403 0.78375 0.0
N1733 N 0.53252 0.75828 0.79541 0.0
C1734 C 0.52815 0.75917 0.78416 0.0
C1735 C 0.52408 0.76283 0.80233 0.0
C1736 C 0.5147 0.76632 0.79512 0.0
O1737 O 0.51862 0.76832 0.75689 0.0
C1738 C 0.49772 0.74308 0.77333 0.0
O1739 O 0.50741 0.74081 0.77957 0.0
H1740 H 0.53269 0.75629 0.77633 0.0
H1741 H 0.50645 0.77005 0.79796 0.0
N1742 N 0.49855 0.77957 0.77097 0.0
N1743 N 0.48387 0.79207 0.76646 0.0
C1744 C 0.48913 0.78173 0.76376 0.0
C1745 C 0.49935 0.78886 0.77852 0.0
C1746 C 0.49031 0.7966 0.77575 0.0
C1747 C 0.52544 0.77737 0.75789 0.0
O1748 O 0.52456 0.78424 0.76729 0.0
H1749 H 0.48632 0.77583 0.75658 0.0
H1750 H 0.50602 0.78995 0.78553 0.0
O1751 O 0.49691 0.75288 0.76783 0.0
H1752 H 0.52449 0.76328 0.81194 0.0
H1753 H 0.48856 0.80483 0.78034 0.0
Cu1754 Cu 0.51225 0.76311 0.25378 0.0
N1755 N 0.50362 0.77707 0.2548 0.0
N1756 N 0.48926 0.78933 0.26022 0.0
C1757 C 0.49341 0.77814 0.26057 0.0
C1758 C 0.49723 0.79552 0.2539 0.0
C1759 C 0.50608 0.78793 0.25056 0.0
O1760 O 0.50055 0.75027 0.25407 0.0
C1761 C 0.52374 0.7685 0.27621 0.0
O1762 O 0.51361 0.77317 0.2791 0.0
H1763 H 0.48931 0.77086 0.26523 0.0
H1764 H 0.51378 0.79016 0.24549 0.0
N1765 N 0.52022 0.76231 0.23948 0.0
N1766 N 0.53426 0.75715 0.22689 0.0
C1767 C 0.5315 0.75881 0.23837 0.0
C1768 C 0.51569 0.763 0.22834 0.0
C1769 C 0.52434 0.75978 0.22053 0.0
C1770 C 0.50122 0.74081 0.24789 0.0
O1771 O 0.51116 0.73843 0.24263 0.0
H1772 H 0.5373 0.75675 0.24586 0.0
H1773 H 0.50659 0.76509 0.22609 0.0
O1774 O 0.52445 0.763 0.26635 0.0
H1775 H 0.49672 0.80486 0.25178 0.0
H1776 H 0.52331 0.75909 0.21096 0.0
Cu1777 Cu 0.51025 0.24872 0.25123 0.0
N1778 N 0.50041 0.23528 0.25138 0.0
N1779 N 0.4853 0.22365 0.25668 0.0
C1780 C 0.49003 0.23471 0.25694 0.0
C1781 C 0.49302 0.217 0.25067 0.0
C1782 C 0.50234 0.2242 0.2474 0.0
O1783 O 0.49985 0.2624 0.25229 0.0
C1784 C 0.52994 0.23923 0.26204 0.0
O1785 O 0.52893 0.23303 0.25214 0.0
H1786 H 0.48628 0.24218 0.26156 0.0
H1787 H 0.5101 0.22146 0.24274 0.0
N1788 N 0.51852 0.25003 0.23711 0.0
N1789 N 0.53194 0.25686 0.22457 0.0
C1790 C 0.52696 0.25827 0.23523 0.0
C1791 C 0.51807 0.24317 0.22728 0.0
C1792 C 0.5264 0.24734 0.21952 0.0
C1793 C 0.49384 0.26455 0.24281 0.0
O1794 O 0.49532 0.25779 0.23343 0.0
H1795 H 0.52962 0.26496 0.24175 0.0
H1796 H 0.51219 0.23561 0.22588 0.0
O1797 O 0.52224 0.24715 0.264 0.0
H1798 H 0.49209 0.20757 0.24891 0.0
H1799 H 0.52821 0.24368 0.21086 0.0
H1800 H 0.19694 0.19092 0.10875 0.0
H1801 H 0.20379 0.202 0.09159 0.0
H1802 H 0.21745 0.22976 0.11484 0.0
H1803 H 0.21089 0.21863 0.13211 0.0
H1804 H 0.20336 0.23759 0.09426 0.0
H1805 H 0.23925 0.20659 0.08263 0.0
H1806 H 0.2249 0.19992 0.08461 0.0
H1807 H 0.23264 0.20673 0.09706 0.0
C1808 C 0.20153 0.1993 0.11026 0.0
C1809 C 0.20341 0.20382 0.12186 0.0
C1810 C 0.2054 0.20565 0.10042 0.0
C1811 C 0.21122 0.21664 0.10196 0.0
C1812 C 0.21297 0.22128 0.11347 0.0
H1813 H 0.25264 0.25616 0.05169 0.0
H1814 H 0.24506 0.24595 0.06901 0.0
C1815 C 0.20915 0.21492 0.12333 0.0
C1816 C 0.21549 0.2233 0.09156 0.0
H1817 H 0.23535 0.22225 0.06923 0.0
C1818 C 0.21035 0.23425 0.08877 0.0
C1819 C 0.22469 0.21897 0.08451 0.0
C1820 C 0.23079 0.20745 0.08736 0.0
C1821 C 0.21408 0.24092 0.07901 0.0
C1822 C 0.22313 0.23647 0.07183 0.0
C1823 C 0.22836 0.22559 0.07471 0.0
C1824 C 0.22747 0.24306 0.06141 0.0
C1825 C 0.20845 0.25275 0.07654 0.0
C1826 C 0.2201 0.24482 0.05136 0.0
C1827 C 0.22444 0.25057 0.04135 0.0
C1828 C 0.23628 0.25464 0.04118 0.0
C1829 C 0.24356 0.25299 0.05137 0.0
C1830 C 0.23923 0.24721 0.06134 0.0
H1831 H 0.20344 0.25602 0.08423 0.0
H1832 H 0.21528 0.25949 0.0743 0.0
H1833 H 0.2022 0.25183 0.0688 0.0
H1834 H 0.21105 0.24152 0.05117 0.0
H1835 H 0.21861 0.25152 0.03365 0.0
H1836 H 0.81664 0.22978 0.13069 0.0
H1837 H 0.80872 0.23912 0.11266 0.0
H1838 H 0.82586 0.21293 0.09122 0.0
H1839 H 0.83409 0.2037 0.10921 0.0
H1840 H 0.82911 0.23617 0.08323 0.0
H1841 H 0.78166 0.22639 0.09089 0.0
H1842 H 0.78926 0.23384 0.10307 0.0
H1843 H 0.79349 0.21908 0.09896 0.0
C1844 C 0.81879 0.22604 0.12214 0.0
C1845 C 0.82599 0.21596 0.12141 0.0
C1846 C 0.81415 0.23132 0.11184 0.0
C1847 C 0.81655 0.22662 0.1006 0.0
C1848 C 0.82382 0.21664 0.09982 0.0
H1849 H 0.78116 0.24428 0.03338 0.0
H1850 H 0.78917 0.23424 0.05101 0.0
C1851 C 0.82845 0.21134 0.11011 0.0
C1852 C 0.81171 0.23226 0.08964 0.0
H1853 H 0.78589 0.23955 0.0751 0.0
C1854 C 0.81966 0.23688 0.08143 0.0
C1855 C 0.79939 0.23304 0.08723 0.0
C1856 C 0.79043 0.22773 0.09544 0.0
C1857 C 0.81562 0.24247 0.07099 0.0
C1858 C 0.80329 0.2436 0.06877 0.0
C1859 C 0.79534 0.23877 0.07687 0.0
C1860 C 0.79847 0.24974 0.05809 0.0
C1861 C 0.82458 0.24698 0.06234 0.0
C1862 C 0.80092 0.26183 0.05628 0.0
C1863 C 0.79635 0.2676 0.04622 0.0
C1864 C 0.7892 0.2614 0.03777 0.0
C1865 C 0.78667 0.24932 0.03968 0.0
C1866 C 0.79123 0.24356 0.04976 0.0
H1867 H 0.83334 0.24278 0.06378 0.0
H1868 H 0.82151 0.24528 0.05302 0.0
H1869 H 0.82577 0.2567 0.06356 0.0
H1870 H 0.8063 0.26683 0.06271 0.0
H1871 H 0.79843 0.27692 0.04508 0.0
H1872 H 0.82217 0.85643 0.11563 0.0
H1873 H 0.81386 0.84883 0.09673 0.0
H1874 H 0.79372 0.82252 0.11546 0.0
H1875 H 0.80177 0.83024 0.13443 0.0
H1876 H 0.816 0.82568 0.08773 0.0
H1877 H 0.76875 0.83718 0.09288 0.0
H1878 H 0.78052 0.84373 0.10203 0.0
H1879 H 0.7752 0.82898 0.10502 0.0
C1880 C 0.81583 0.84915 0.11575 0.0
C1881 C 0.81262 0.84397 0.12657 0.0
C1882 C 0.81113 0.84477 0.10493 0.0
C1883 C 0.80304 0.83522 0.10467 0.0
C1884 C 0.79978 0.83004 0.11544 0.0
H1885 H 0.76987 0.79167 0.0489 0.0
H1886 H 0.77528 0.80179 0.06761 0.0
C1887 C 0.80451 0.83438 0.12627 0.0
C1888 C 0.7985 0.83028 0.09311 0.0
H1889 H 0.77323 0.82488 0.07642 0.0
C1890 C 0.80666 0.82558 0.08522 0.0
C1891 C 0.7863 0.83008 0.08988 0.0
C1892 C 0.77717 0.83535 0.09783 0.0
C1893 C 0.80295 0.82049 0.0743 0.0
C1894 C 0.79075 0.82034 0.07101 0.0
C1895 C 0.78258 0.82504 0.07891 0.0
C1896 C 0.78637 0.81511 0.05952 0.0
C1897 C 0.81213 0.81499 0.06653 0.0
C1898 C 0.79037 0.81953 0.04869 0.0
C1899 C 0.78733 0.81375 0.03798 0.0
C1900 C 0.7801 0.80349 0.03785 0.0
C1901 C 0.77546 0.79954 0.04865 0.0
C1902 C 0.77857 0.8053 0.05937 0.0
H1903 H 0.82043 0.81304 0.07164 0.0
H1904 H 0.80872 0.80662 0.06236 0.0
H1905 H 0.81436 0.82127 0.05935 0.0
H1906 H 0.79615 0.82727 0.04855 0.0
H1907 H 0.79098 0.8171 0.02984 0.0
H1908 H 0.21216 0.80949 0.13802 0.0
H1909 H 0.22444 0.80467 0.12114 0.0
H1910 H 0.19937 0.8216 0.09741 0.0
H1911 H 0.18706 0.82657 0.11426 0.0
H1912 H 0.20668 0.79945 0.08927 0.0
H1913 H 0.24519 0.82798 0.10275 0.0
H1914 H 0.24059 0.81784 0.11403 0.0
H1915 H 0.23082 0.82945 0.10923 0.0
C1916 C 0.2093 0.8123 0.12923 0.0
C1917 C 0.19865 0.81849 0.12751 0.0
C1918 C 0.21634 0.80954 0.11959 0.0
C1919 C 0.21292 0.81295 0.10804 0.0
C1920 C 0.2022 0.81893 0.10625 0.0
H1921 H 0.25724 0.8124 0.04577 0.0
H1922 H 0.24476 0.81814 0.06224 0.0
C1923 C 0.19514 0.8217 0.11589 0.0
C1924 C 0.22043 0.81011 0.09781 0.0
H1925 H 0.24801 0.81451 0.08676 0.0
C1926 C 0.2157 0.80277 0.08869 0.0
C1927 C 0.23213 0.81459 0.09699 0.0
C1928 C 0.23747 0.823 0.10621 0.0
C1929 C 0.22247 0.79957 0.07891 0.0
C1930 C 0.23432 0.8037 0.07832 0.0
C1931 C 0.23896 0.81126 0.08729 0.0
C1932 C 0.24207 0.80022 0.06848 0.0
C1933 C 0.21682 0.79191 0.06923 0.0
C1934 C 0.24489 0.78827 0.06666 0.0
C1935 C 0.25206 0.78497 0.0573 0.0
C1936 C 0.25662 0.79355 0.04957 0.0
C1937 C 0.25397 0.80556 0.05158 0.0
C1938 C 0.24679 0.80886 0.06096 0.0
H1939 H 0.20699 0.79212 0.06942 0.0
H1940 H 0.21966 0.79482 0.06033 0.0
H1941 H 0.2196 0.78259 0.07051 0.0
H1942 H 0.24158 0.78149 0.07254 0.0
H1943 H 0.25412 0.77568 0.05621 0.0
H1944 H 0.21336 0.79372 0.89324 0.0
H1945 H 0.22181 0.78416 0.91093 0.0
H1946 H 0.1996 0.80525 0.93311 0.0
H1947 H 0.19106 0.81478 0.91548 0.0
H1948 H 0.23442 0.79463 0.92842 0.0
H1949 H 0.19529 0.773 0.94784 0.0
H1950 H 0.19515 0.77856 0.93283 0.0
H1951 H 0.19297 0.78848 0.94516 0.0
C1952 C 0.21021 0.79627 0.90188 0.0
C1953 C 0.20153 0.80504 0.90293 0.0
C1954 C 0.21501 0.79074 0.91199 0.0
C1955 C 0.21123 0.79382 0.92338 0.0
C1956 C 0.20243 0.80245 0.92444 0.0
H1957 H 0.24963 0.79571 0.9888 0.0
H1958 H 0.23778 0.79853 0.97069 0.0
C1959 C 0.19758 0.80794 0.91433 0.0
C1960 C 0.21725 0.78886 0.93416 0.0
H1961 H 0.21231 0.77591 0.96103 0.0
C1962 C 0.22958 0.79037 0.93544 0.0
C1963 C 0.211 0.78316 0.94332 0.0
C1964 C 0.19789 0.78059 0.94218 0.0
C1965 C 0.23572 0.78688 0.94582 0.0
C1966 C 0.22937 0.78189 0.95527 0.0
C1967 C 0.21714 0.77983 0.95381 0.0
C1968 C 0.23526 0.77981 0.96702 0.0
C1969 C 0.24896 0.78881 0.94671 0.0
C1970 C 0.23736 0.76829 0.97126 0.0
C1971 C 0.24417 0.76662 0.98175 0.0
C1972 C 0.24894 0.77645 0.98808 0.0
C1973 C 0.24622 0.78793 0.98409 0.0
C1974 C 0.23944 0.78958 0.97371 0.0
H1975 H 0.25286 0.78981 0.93781 0.0
H1976 H 0.25093 0.79704 0.95189 0.0
H1977 H 0.25333 0.78132 0.95137 0.0
H1978 H 0.23415 0.76064 0.96622 0.0
H1979 H 0.24614 0.75767 0.98459 0.0
H1980 H 0.21133 0.18776 0.91585 0.0
H1981 H 0.22188 0.19569 0.93351 0.0
H1982 H 0.24705 0.21322 0.91123 0.0
H1983 H 0.23639 0.20558 0.89351 0.0
H1984 H 0.24623 0.19314 0.94107 0.0
H1985 H 0.23451 0.24014 0.93239 0.0
H1986 H 0.22694 0.22786 0.92498 0.0
H1987 H 0.24138 0.23249 0.9204 0.0
C1988 C 0.21906 0.19337 0.91469 0.0
C1989 C 0.22294 0.19611 0.90324 0.0
C1990 C 0.22513 0.19782 0.9248 0.0
C1991 C 0.23517 0.20515 0.92369 0.0
C1992 C 0.23923 0.2077 0.9123 0.0
H1993 H 0.27446 0.24707 0.97754 0.0
H1994 H 0.26898 0.23661 0.95905 0.0
C1995 C 0.23318 0.20323 0.90217 0.0
C1996 C 0.24121 0.21029 0.93446 0.0
H1997 H 0.24695 0.23649 0.94904 0.0
C1998 C 0.24643 0.20262 0.94281 0.0
C1999 C 0.24151 0.22266 0.93668 0.0
C2000 C 0.23572 0.2313 0.92821 0.0
C2001 C 0.25193 0.207 0.95334 0.0
C2002 C 0.252 0.21936 0.95569 0.0
C2003 C 0.24696 0.22703 0.94722 0.0
C2004 C 0.25658 0.22453 0.96715 0.0
C2005 C 0.25772 0.19834 0.96177 0.0
C2006 C 0.25162 0.22109 0.97792 0.0
C2007 C 0.25479 0.22699 0.98852 0.0
C2008 C 0.26289 0.23659 0.98858 0.0
C2009 C 0.26822 0.2397 0.97786 0.0
C2010 C 0.26506 0.23376 0.96725 0.0
H2011 H 0.26034 0.19011 0.95708 0.0
H2012 H 0.26569 0.20232 0.9663 0.0
H2013 H 0.25132 0.19577 0.96864 0.0
H2014 H 0.24487 0.21418 0.97806 0.0
H2015 H 0.25045 0.22438 0.99658 0.0
H2016 H 0.84951 0.20178 0.89995 0.0
H2017 H 0.84188 0.21152 0.9176 0.0
H2018 H 0.81382 0.22688 0.89632 0.0
H2019 H 0.82156 0.21752 0.87852 0.0
H2020 H 0.83719 0.23791 0.92032 0.0
H2021 H 0.7977 0.20835 0.92474 0.0
H2022 H 0.81062 0.20387 0.91681 0.0
H2023 H 0.80051 0.21423 0.91023 0.0
C2024 C 0.84181 0.20735 0.89896 0.0
C2025 C 0.83615 0.20882 0.88777 0.0
C2026 C 0.83742 0.21283 0.90908 0.0
C2027 C 0.82724 0.21979 0.90825 0.0
C2028 C 0.82161 0.22139 0.89714 0.0
H2029 H 0.78546 0.25613 0.96088 0.0
H2030 H 0.79277 0.24685 0.94281 0.0
C2031 C 0.82603 0.21598 0.88699 0.0
C2032 C 0.82258 0.22551 0.91901 0.0
H2033 H 0.79971 0.2244 0.93821 0.0
C2034 C 0.82901 0.23497 0.92427 0.0
C2035 C 0.81186 0.22168 0.92403 0.0
C2036 C 0.80475 0.21143 0.91875 0.0
C2037 C 0.82495 0.24081 0.9344 0.0
C2038 C 0.81433 0.23685 0.9396 0.0
C2039 C 0.80786 0.22742 0.93425 0.0
C2040 C 0.80983 0.2423 0.95062 0.0
C2041 C 0.83193 0.25135 0.93926 0.0
C2042 C 0.81687 0.24261 0.96109 0.0
C2043 C 0.81273 0.24796 0.97138 0.0
C2044 C 0.80138 0.25293 0.97149 0.0
C2045 C 0.7942 0.25231 0.9611 0.0
C2046 C 0.79839 0.24705 0.95076 0.0
H2047 H 0.83757 0.25539 0.93238 0.0
H2048 H 0.82599 0.25828 0.94271 0.0
H2049 H 0.83786 0.24841 0.94666 0.0
H2050 H 0.82557 0.23868 0.96131 0.0
H2051 H 0.81837 0.24808 0.97931 0.0
H2052 H 0.81862 0.82086 0.88605 0.0
H2053 H 0.81186 0.81102 0.90406 0.0
H2054 H 0.83189 0.83626 0.92567 0.0
H2055 H 0.83861 0.8462 0.90772 0.0
H2056 H 0.82757 0.80112 0.92262 0.0
H2057 H 0.79767 0.83593 0.93935 0.0
H2058 H 0.80201 0.83516 0.92403 0.0
H2059 H 0.81217 0.84092 0.93523 0.0
C2060 C 0.82143 0.82442 0.89464 0.0
C2061 C 0.82913 0.83432 0.89547 0.0
C2062 C 0.81763 0.81875 0.90491 0.0
C2063 C 0.82132 0.82296 0.91618 0.0
C2064 C 0.82885 0.83294 0.91705 0.0
H2065 H 0.82063 0.78913 0.98519 0.0
H2066 H 0.82613 0.79868 0.96668 0.0
C2067 C 0.83274 0.83856 0.90679 0.0
C2068 C 0.81766 0.81666 0.92703 0.0
H2069 H 0.80163 0.81975 0.95214 0.0
C2070 C 0.82187 0.80517 0.92907 0.0
C2071 C 0.81018 0.82195 0.93537 0.0
C2072 C 0.80514 0.83413 0.9334 0.0
C2073 C 0.81895 0.79889 0.93935 0.0
C2074 C 0.81167 0.80427 0.94781 0.0
C2075 C 0.80729 0.81569 0.94567 0.0
C2076 C 0.80842 0.79816 0.9589 0.0
C2077 C 0.82357 0.7865 0.94106 0.0
C2078 C 0.79663 0.79474 0.96067 0.0
C2079 C 0.79346 0.78917 0.9712 0.0
C2080 C 0.80199 0.78701 0.98027 0.0
C2081 C 0.81383 0.79046 0.97841 0.0
C2082 C 0.817 0.79597 0.96783 0.0
H2083 H 0.82713 0.78278 0.93274 0.0
H2084 H 0.8308 0.78668 0.94794 0.0
H2085 H 0.81645 0.78049 0.9442 0.0
H2086 H 0.78988 0.79634 0.95386 0.0
H2087 H 0.78431 0.7865 0.97215 0.0
H2088 H 0.12697 0.20328 0.19259 0.0
H2089 H 0.10958 0.20894 0.20371 0.0
H2090 H 0.11383 0.1782 0.22595 0.0
H2091 H 0.13147 0.1727 0.21518 0.0
H2092 H 0.08862 0.19632 0.2066 0.0
H2093 H 0.11122 0.20492 0.25027 0.0
H2094 H 0.11921 0.20348 0.23667 0.0
H2095 H 0.11388 0.19048 0.24413 0.0
C2096 C 0.12431 0.1978 0.19996 0.0
C2097 C 0.13067 0.18755 0.20302 0.0
C2098 C 0.11432 0.20101 0.20625 0.0
C2099 C 0.1105 0.19409 0.21577 0.0
C2100 C 0.11674 0.18379 0.21878 0.0
H2101 H 0.05077 0.20012 0.2631 0.0
H2102 H 0.06802 0.19319 0.25238 0.0
C2103 C 0.12674 0.18058 0.21251 0.0
C2104 C 0.09983 0.1975 0.22235 0.0
H2105 H 0.09023 0.20522 0.24984 0.0
C2106 C 0.08897 0.1983 0.21605 0.0
C2107 C 0.1003 0.20003 0.23469 0.0
C2108 C 0.11179 0.1998 0.24184 0.0
C2109 C 0.07856 0.20147 0.22176 0.0
C2110 C 0.07906 0.20408 0.23407 0.0
C2111 C 0.08988 0.20318 0.24041 0.0
C2112 C 0.06851 0.20816 0.24045 0.0
C2113 C 0.06709 0.20186 0.2146 0.0
C2114 C 0.06315 0.21891 0.23738 0.0
C2115 C 0.05331 0.22286 0.24345 0.0
C2116 C 0.04863 0.21617 0.25278 0.0
C2117 C 0.05406 0.20541 0.25588 0.0
C2118 C 0.06395 0.20148 0.24981 0.0
H2119 H 0.06758 0.19668 0.2062 0.0
H2120 H 0.05961 0.19834 0.21979 0.0
H2121 H 0.06515 0.2112 0.21227 0.0
H2122 H 0.06663 0.22429 0.2303 0.0
H2123 H 0.0493 0.23111 0.24073 0.0
H2124 H 0.82965 0.12495 0.19118 0.0
H2125 H 0.81833 0.1077 0.19787 0.0
H2126 H 0.79247 0.13083 0.21284 0.0
H2127 H 0.80382 0.14815 0.20644 0.0
H2128 H 0.81132 0.10166 0.2215 0.0
H2129 H 0.77278 0.10806 0.19059 0.0
H2130 H 0.78696 0.11523 0.18852 0.0
H2131 H 0.77706 0.12085 0.19938 0.0
C2132 C 0.82163 0.12641 0.19602 0.0
C2133 C 0.81764 0.13799 0.1982 0.0
C2134 C 0.81513 0.11651 0.19977 0.0
C2135 C 0.80447 0.11798 0.20569 0.0
C2136 C 0.80055 0.12949 0.20808 0.0
H2137 H 0.76471 0.06653 0.24633 0.0
H2138 H 0.7761 0.0836 0.23951 0.0
C2139 C 0.80706 0.13939 0.20438 0.0
C2140 C 0.79748 0.10746 0.20945 0.0
H2141 H 0.77081 0.09315 0.20521 0.0
C2142 C 0.80247 0.09978 0.21793 0.0
C2143 C 0.78599 0.10495 0.20469 0.0
C2144 C 0.78038 0.11263 0.19521 0.0
C2145 C 0.79619 0.08979 0.22193 0.0
C2146 C 0.78458 0.08746 0.21739 0.0
C2147 C 0.77967 0.09501 0.20875 0.0
C2148 C 0.77743 0.07718 0.22146 0.0
C2149 C 0.80208 0.08171 0.23087 0.0
C2150 C 0.77413 0.06801 0.21351 0.0
C2151 C 0.76765 0.05816 0.21739 0.0
C2152 C 0.76426 0.0573 0.22931 0.0
C2153 C 0.76735 0.0667 0.23716 0.0
C2154 C 0.77386 0.07651 0.23328 0.0
H2155 H 0.81182 0.08318 0.23144 0.0
H2156 H 0.79848 0.08347 0.23978 0.0
H2157 H 0.80024 0.07226 0.22858 0.0
H2158 H 0.77676 0.06837 0.20433 0.0
H2159 H 0.76556 0.05111 0.21109 0.0
H2160 H 0.90322 0.85056 0.20186 0.0
H2161 H 0.92056 0.8414 0.21127 0.0
H2162 H 0.89848 0.81323 0.22446 0.0
H2163 H 0.881 0.82245 0.21533 0.0
H2164 H 0.92404 0.83591 0.23627 0.0
H2165 H 0.92556 0.79592 0.20717 0.0
H2166 H 0.91747 0.80905 0.203 0.0
H2167 H 0.91151 0.79893 0.21362 0.0
C2168 C 0.90199 0.84246 0.20683 0.0
C2169 C 0.89066 0.83727 0.20782 0.0
C2170 C 0.91195 0.83721 0.21215 0.0
C2171 C 0.91083 0.82658 0.21846 0.0
C2172 C 0.89957 0.82133 0.21946 0.0
H2173 H 0.96215 0.78118 0.25458 0.0
H2174 H 0.94415 0.79001 0.24612 0.0
C2175 C 0.88959 0.82661 0.2142 0.0
C2176 C 0.92142 0.82116 0.22422 0.0
H2177 H 0.93916 0.79685 0.22347 0.0
C2178 C 0.92737 0.82738 0.23347 0.0
C2179 C 0.92569 0.81 0.22059 0.0
C2180 C 0.91981 0.80308 0.21049 0.0
C2181 C 0.93742 0.82269 0.23929 0.0
C2182 C 0.94182 0.8116 0.23555 0.0
C2183 C 0.9358 0.80534 0.22634 0.0
C2184 C 0.95274 0.80639 0.24095 0.0
C2185 C 0.94305 0.82955 0.24956 0.0
C2186 C 0.9636 0.81259 0.2408 0.0
C2187 C 0.97389 0.80757 0.24566 0.0
C2188 C 0.9736 0.79615 0.25066 0.0
C2189 C 0.96272 0.78993 0.25073 0.0
C2190 C 0.95241 0.79499 0.24592 0.0
H2191 H 0.93672 0.8358 0.25355 0.0
H2192 H 0.94639 0.8235 0.25661 0.0
H2193 H 0.95064 0.83485 0.24633 0.0
H2194 H 0.96416 0.82125 0.23673 0.0
H2195 H 0.98214 0.81251 0.24524 0.0
H2196 H 0.19584 0.8811 0.21969 0.0
H2197 H 0.20236 0.89933 0.22997 0.0
H2198 H 0.17453 0.91865 0.2121 0.0
H2199 H 0.16814 0.90058 0.20144 0.0
H2200 H 0.20694 0.92412 0.21562 0.0
H2201 H 0.17391 0.92326 0.25152 0.0
H2202 H 0.17913 0.90976 0.2448 0.0
H2203 H 0.16933 0.91921 0.23655 0.0
C2204 C 0.19115 0.88923 0.21784 0.0
C2205 C 0.18146 0.88934 0.20969 0.0
C2206 C 0.19485 0.89961 0.22379 0.0
C2207 C 0.18888 0.91027 0.22181 0.0
C2208 C 0.17918 0.91045 0.21379 0.0
H2209 H 0.19589 0.98037 0.2541 0.0
H2210 H 0.18884 0.96222 0.24398 0.0
C2211 C 0.17551 0.9001 0.20777 0.0
C2212 C 0.19297 0.92128 0.22793 0.0
H2213 H 0.18734 0.93942 0.25144 0.0
C2214 C 0.2027 0.92749 0.22346 0.0
C2215 C 0.18731 0.92564 0.23806 0.0
C2216 C 0.17684 0.91917 0.24311 0.0
C2217 C 0.20689 0.93806 0.22885 0.0
C2218 C 0.20138 0.94234 0.23918 0.0
C2219 C 0.19158 0.93612 0.24357 0.0
C2220 C 0.20564 0.95325 0.24552 0.0
C2221 C 0.21699 0.94468 0.22325 0.0
C2222 C 0.21735 0.95416 0.24996 0.0
C2223 C 0.22141 0.96454 0.25569 0.0
C2224 C 0.21378 0.97416 0.25726 0.0
C2225 C 0.20196 0.9731 0.2531 0.0
C2226 C 0.19794 0.96274 0.24728 0.0
H2227 H 0.21781 0.94224 0.21374 0.0
H2228 H 0.21582 0.95443 0.22393 0.0
H2229 H 0.22541 0.94238 0.22793 0.0
H2230 H 0.22337 0.94683 0.24903 0.0
H2231 H 0.23049 0.96499 0.25901 0.0
H2232 H 0.12827 0.83304 0.80538 0.0
H2233 H 0.11004 0.82683 0.79466 0.0
H2234 H 0.10306 0.80112 0.82184 0.0
H2235 H 0.12137 0.80695 0.83242 0.0
H2236 H 0.10328 0.80269 0.78639 0.0
H2237 H 0.07226 0.82138 0.81874 0.0
H2238 H 0.08754 0.82621 0.81799 0.0
H2239 H 0.08384 0.8126 0.82533 0.0
C2240 C 0.12293 0.82598 0.80904 0.0
C2241 C 0.12632 0.82056 0.81984 0.0
C2242 C 0.11247 0.82251 0.80292 0.0
C2243 C 0.10512 0.81364 0.80754 0.0
C2244 C 0.1085 0.80814 0.81823 0.0
H2245 H 0.0463 0.76948 0.79659 0.0
H2246 H 0.06283 0.78227 0.80266 0.0
C2247 C 0.11897 0.81154 0.8243 0.0
C2248 C 0.094 0.80988 0.80119 0.0
H2249 H 0.06424 0.80692 0.80501 0.0
C2250 C 0.09469 0.8038 0.79031 0.0
C2251 C 0.08282 0.81143 0.80629 0.0
C2252 C 0.0815 0.81835 0.81768 0.0
C2253 C 0.08458 0.79848 0.78483 0.0
C2254 C 0.07349 0.79947 0.7903 0.0
C2255 C 0.07273 0.80616 0.80082 0.0
C2256 C 0.063 0.79225 0.78632 0.0
C2257 C 0.08596 0.79122 0.77366 0.0
C2258 C 0.05739 0.7937 0.77512 0.0
C2259 C 0.0478 0.7863 0.77155 0.0
C2260 C 0.04373 0.77735 0.77915 0.0
C2261 C 0.04922 0.7762 0.79044 0.0
C2262 C 0.05869 0.78355 0.79398 0.0
H2263 H 0.09541 0.79 0.77148 0.0
H2264 H 0.08172 0.78234 0.77461 0.0
H2265 H 0.08148 0.79575 0.7661 0.0
H2266 H 0.06046 0.80049 0.76913 0.0
H2267 H 0.04375 0.78742 0.7628 0.0
H2268 H 0.22331 0.13025 0.81197 0.0
H2269 H 0.23019 0.11179 0.80327 0.0
H2270 H 0.20055 0.09292 0.81786 0.0
H2271 H 0.19396 0.11123 0.82719 0.0
H2272 H 0.22019 0.08132 0.82211 0.0
H2273 H 0.21904 0.09323 0.77459 0.0
H2274 H 0.22774 0.10373 0.78321 0.0
H2275 H 0.21211 0.10219 0.78573 0.0
C2276 C 0.21825 0.12218 0.81339 0.0
C2277 C 0.20807 0.12229 0.82035 0.0
C2278 C 0.2221 0.11164 0.80821 0.0
C2279 C 0.21577 0.10096 0.80968 0.0
C2280 C 0.20553 0.10105 0.81649 0.0
H2281 H 0.23863 0.03546 0.77333 0.0
H2282 H 0.22637 0.05225 0.77941 0.0
C2283 C 0.20172 0.11158 0.82175 0.0
C2284 C 0.22036 0.08959 0.80491 0.0
H2285 H 0.23123 0.07655 0.78001 0.0
C2286 C 0.22244 0.08025 0.81286 0.0
C2287 C 0.2231 0.08801 0.79279 0.0
C2288 C 0.22026 0.09729 0.78357 0.0
C2289 C 0.22771 0.06967 0.80919 0.0
C2290 C 0.23129 0.06847 0.79729 0.0
C2291 C 0.22865 0.07753 0.78917 0.0
C2292 C 0.23855 0.0583 0.79341 0.0
C2293 C 0.22949 0.05991 0.81815 0.0
C2294 C 0.24954 0.05627 0.79907 0.0
C2295 C 0.25647 0.04675 0.79568 0.0
C2296 C 0.25268 0.03903 0.78642 0.0
C2297 C 0.24177 0.04119 0.78054 0.0
C2298 C 0.23478 0.05078 0.78399 0.0
H2299 H 0.22294 0.06045 0.82533 0.0
H2300 H 0.22871 0.05101 0.8139 0.0
H2301 H 0.23846 0.06084 0.82234 0.0
H2302 H 0.2528 0.06212 0.80613 0.0
H2303 H 0.26487 0.04547 0.80034 0.0
H2304 H 0.91096 0.18809 0.79366 0.0
H2305 H 0.92975 0.19575 0.78601 0.0
H2306 H 0.93253 0.22065 0.81521 0.0
H2307 H 0.91389 0.21308 0.82289 0.0
H2308 H 0.93531 0.22146 0.78043 0.0
H2309 H 0.96475 0.20181 0.81509 0.0
H2310 H 0.95007 0.19602 0.81155 0.0
H2311 H 0.95194 0.2091 0.82066 0.0
C2312 C 0.91563 0.19515 0.79847 0.0
C2313 C 0.91094 0.2 0.80887 0.0
C2314 C 0.92631 0.19953 0.79407 0.0
C2315 C 0.93255 0.20868 0.80011 0.0
C2316 C 0.92789 0.21351 0.81047 0.0
H2317 H 0.98868 0.25683 0.80202 0.0
H2318 H 0.97259 0.24263 0.80434 0.0
C2319 C 0.91719 0.20924 0.8148 0.0
C2320 C 0.94386 0.21345 0.79563 0.0
H2321 H 0.97285 0.21781 0.80395 0.0
C2322 C 0.94361 0.22049 0.78539 0.0
C2323 C 0.95463 0.21209 0.80211 0.0
C2324 C 0.95545 0.20426 0.81291 0.0
C2325 C 0.95371 0.22691 0.78195 0.0
C2326 C 0.96432 0.22608 0.78885 0.0
C2327 C 0.96471 0.21845 0.79867 0.0
C2328 C 0.97453 0.23427 0.78716 0.0
C2329 C 0.95273 0.23513 0.77146 0.0
C2330 C 0.98112 0.23423 0.77674 0.0
C2331 C 0.99044 0.24245 0.77534 0.0
C2332 C 0.99325 0.2508 0.78436 0.0
C2333 C 0.98675 0.25058 0.79485 0.0
C2334 C 0.97754 0.24243 0.79622 0.0
H2335 H 0.94345 0.23596 0.76807 0.0
H2336 H 0.95621 0.2441 0.77391 0.0
H2337 H 0.95813 0.23167 0.76415 0.0
H2338 H 0.97905 0.22789 0.7697 0.0
H2339 H 0.9953 0.24237 0.76718 0.0
H2340 H 0.81555 0.89503 0.79848 0.0
H2341 H 0.80738 0.9119 0.78753 0.0
H2342 H 0.83331 0.93517 0.80461 0.0
H2343 H 0.84151 0.91839 0.81559 0.0
H2344 H 0.79761 0.93213 0.79643 0.0
H2345 H 0.8366 0.94387 0.76986 0.0
H2346 H 0.83532 0.92994 0.77759 0.0
H2347 H 0.83988 0.9432 0.78553 0.0
C2348 C 0.81951 0.90374 0.79993 0.0
C2349 C 0.82922 0.90533 0.80789 0.0
C2350 C 0.81487 0.91336 0.79361 0.0
C2351 C 0.81987 0.92477 0.79507 0.0
C2352 C 0.82951 0.9264 0.80307 0.0
H2353 H 0.8014 0.99605 0.77562 0.0
H2354 H 0.8112 0.97792 0.78218 0.0
C2355 C 0.83417 0.91679 0.80937 0.0
C2356 C 0.81462 0.93506 0.78872 0.0
H2357 H 0.8211 0.95809 0.77026 0.0
C2358 C 0.8027 0.93773 0.7906 0.0
C2359 C 0.82128 0.94238 0.78113 0.0
C2360 C 0.83395 0.93966 0.7783 0.0
C2361 C 0.79738 0.94771 0.78542 0.0
C2362 C 0.8041 0.95513 0.77797 0.0
C2363 C 0.81597 0.95239 0.77595 0.0
C2364 C 0.79904 0.96606 0.77267 0.0
C2365 C 0.78473 0.95046 0.78831 0.0
C2366 C 0.78925 0.96542 0.76472 0.0
C2367 C 0.78362 0.97578 0.76094 0.0
C2368 C 0.78769 0.98698 0.76502 0.0
C2369 C 0.79798 0.98759 0.77235 0.0
C2370 C 0.8036 0.97723 0.77612 0.0
H2371 H 0.7817 0.94545 0.79615 0.0
H2372 H 0.78369 0.9601 0.79008 0.0
H2373 H 0.77886 0.94799 0.7806 0.0
H2374 H 0.78573 0.95689 0.76176 0.0
H2375 H 0.77576 0.97497 0.75525 0.0
H2376 H 0.19839 0.11546 0.20706 0.0
H2377 H 0.2062 0.09683 0.21478 0.0
H2378 H 0.23517 0.09901 0.1907 0.0
H2379 H 0.22743 0.11783 0.18293 0.0
H2380 H 0.2118 0.07514 0.19934 0.0
H2381 H 0.24969 0.09432 0.22621 0.0
H2382 H 0.23681 0.10305 0.22251 0.0
H2383 H 0.24697 0.09926 0.21118 0.0
C2384 C 0.20649 0.11206 0.20347 0.0
C2385 C 0.21234 0.11817 0.19444 0.0
C2386 C 0.21089 0.10138 0.20784 0.0
C2387 C 0.22128 0.09661 0.20335 0.0
C2388 C 0.22717 0.10261 0.19431 0.0
H2389 H 0.25243 0.03402 0.23918 0.0
H2390 H 0.25041 0.04989 0.22432 0.0
C2391 C 0.2227 0.1133 0.18985 0.0
C2392 C 0.22573 0.08528 0.2082 0.0
H2393 H 0.24509 0.07413 0.22897 0.0
C2394 C 0.21923 0.07485 0.20565 0.0
C2395 C 0.23548 0.08493 0.21632 0.0
C2396 C 0.24269 0.09595 0.2193 0.0
C2397 C 0.22185 0.06419 0.21146 0.0
C2398 C 0.23104 0.06403 0.22025 0.0
C2399 C 0.23804 0.07428 0.22225 0.0
C2400 C 0.23233 0.05396 0.2286 0.0
C2401 C 0.21451 0.05326 0.20841 0.0
C2402 C 0.22291 0.05109 0.23594 0.0
C2403 C 0.22405 0.04216 0.24438 0.0
C2404 C 0.23467 0.03588 0.24573 0.0
C2405 C 0.24412 0.03865 0.23829 0.0
C2406 C 0.24298 0.04771 0.22984 0.0
H2407 H 0.21089 0.05362 0.19915 0.0
H2408 H 0.21977 0.04506 0.20948 0.0
H2409 H 0.2069 0.05276 0.21443 0.0
H2410 H 0.2147 0.05596 0.23533 0.0
H2411 H 0.21659 0.04029 0.24995 0.0
H2412 H 0.2225 0.88142 0.81988 0.0
H2413 H 0.23278 0.89943 0.81348 0.0
H2414 H 0.21442 0.91991 0.83952 0.0
H2415 H 0.20389 0.90199 0.84581 0.0
H2416 H 0.21431 0.93015 0.81675 0.0
H2417 H 0.25969 0.91751 0.83155 0.0
H2418 H 0.25212 0.9067 0.82221 0.0
H2419 H 0.24657 0.91001 0.83665 0.0
C2420 C 0.2206 0.88976 0.82422 0.0
C2421 C 0.21239 0.89024 0.83339 0.0
C2422 C 0.22658 0.90003 0.82063 0.0
C2423 C 0.22449 0.91098 0.82614 0.0
C2424 C 0.21623 0.91153 0.83522 0.0
H2425 H 0.26541 0.97663 0.81916 0.0
H2426 H 0.25541 0.95889 0.82657 0.0
C2427 C 0.21028 0.90126 0.83885 0.0
C2428 C 0.23066 0.92194 0.82221 0.0
H2429 H 0.25804 0.93477 0.81962 0.0
C2430 C 0.22387 0.93118 0.81741 0.0
C2431 C 0.24312 0.92333 0.82321 0.0
C2432 C 0.25082 0.91392 0.82878 0.0
C2433 C 0.22922 0.94167 0.81335 0.0
C2434 C 0.2417 0.9429 0.814 0.0
C2435 C 0.24848 0.93377 0.81904 0.0
C2436 C 0.24788 0.9536 0.80945 0.0
C2437 C 0.22145 0.95141 0.80852 0.0
C2438 C 0.24713 0.95641 0.79734 0.0
C2439 C 0.2529 0.9665 0.79305 0.0
C2440 C 0.25959 0.97401 0.80078 0.0
C2441 C 0.26044 0.97105 0.81291 0.0
C2442 C 0.25468 0.96093 0.81718 0.0
H2443 H 0.21214 0.95036 0.81133 0.0
H2444 H 0.22483 0.96027 0.81149 0.0
H2445 H 0.22145 0.95114 0.79866 0.0
H2446 H 0.24214 0.95074 0.79116 0.0
H2447 H 0.25222 0.9683 0.78363 0.0
H2448 H 0.12733 0.20252 0.84445 0.0
H2449 H 0.11024 0.21415 0.83797 0.0
H2450 H 0.13001 0.22805 0.80886 0.0
H2451 H 0.14735 0.21681 0.81548 0.0
H2452 H 0.11079 0.24129 0.83354 0.0
H2453 H 0.09729 0.21285 0.79472 0.0
H2454 H 0.10577 0.20717 0.80723 0.0
H2455 H 0.11274 0.21671 0.79675 0.0
C2456 C 0.12815 0.20814 0.83675 0.0
C2457 C 0.1388 0.2087 0.83052 0.0
C2458 C 0.11831 0.21472 0.83301 0.0
C2459 C 0.11886 0.22188 0.8229 0.0
C2460 C 0.1294 0.22247 0.81662 0.0
H2461 H 0.06496 0.26289 0.78503 0.0
H2462 H 0.08303 0.25245 0.79103 0.0
C2463 C 0.13928 0.21597 0.8204 0.0
C2464 C 0.10843 0.22889 0.81905 0.0
H2465 H 0.08612 0.23001 0.79802 0.0
C2466 C 0.10538 0.23885 0.82578 0.0
C2467 C 0.10148 0.22572 0.80887 0.0
C2468 C 0.10438 0.215 0.80145 0.0
C2469 C 0.09557 0.24581 0.82255 0.0
C2470 C 0.08841 0.24248 0.81251 0.0
C2471 C 0.09157 0.23255 0.80572 0.0
C2472 C 0.07752 0.24907 0.80897 0.0
C2473 C 0.09316 0.25679 0.82978 0.0
C2474 C 0.06834 0.25056 0.817 0.0
C2475 C 0.05805 0.2566 0.81361 0.0
C2476 C 0.05661 0.2611 0.80205 0.0
C2477 C 0.06576 0.25947 0.79397 0.0
C2478 C 0.0761 0.25353 0.7974 0.0
H2479 H 0.1013 0.2601 0.83456 0.0
H2480 H 0.08964 0.26402 0.8241 0.0
H2481 H 0.08651 0.25463 0.83654 0.0
H2482 H 0.06904 0.2469 0.82586 0.0
H2483 H 0.0511 0.25749 0.81997 0.0
H2484 H 0.83595 0.12152 0.80159 0.0
H2485 H 0.82469 0.10348 0.79618 0.0
H2486 H 0.80236 0.10872 0.8262 0.0
H2487 H 0.81352 0.12676 0.83162 0.0
H2488 H 0.82116 0.08299 0.80893 0.0
H2489 H 0.77819 0.10467 0.79906 0.0
H2490 H 0.79192 0.11294 0.80075 0.0
H2491 H 0.78424 0.10796 0.81363 0.0
C2492 C 0.82866 0.11881 0.80705 0.0
C2493 C 0.82557 0.12563 0.81697 0.0
C2494 C 0.82221 0.10852 0.80393 0.0
C2495 C 0.81254 0.10487 0.81065 0.0
C2496 C 0.80958 0.11154 0.82069 0.0
H2497 H 0.76431 0.04373 0.80574 0.0
H2498 H 0.77545 0.06153 0.81235 0.0
C2499 C 0.81598 0.12184 0.82378 0.0
C2500 C 0.80572 0.09395 0.80731 0.0
H2501 H 0.77801 0.08361 0.79947 0.0
C2502 C 0.81173 0.08313 0.80682 0.0
C2503 C 0.79341 0.09415 0.80459 0.0
C2504 C 0.78656 0.10556 0.80441 0.0
C2505 C 0.80575 0.0725 0.8038 0.0
C2506 C 0.79346 0.0727 0.80107 0.0
C2507 C 0.78742 0.08349 0.80163 0.0
C2508 C 0.7868 0.06188 0.79719 0.0
C2509 C 0.81259 0.06108 0.8037 0.0
C2510 C 0.78942 0.05629 0.78643 0.0
C2511 C 0.78309 0.04617 0.78264 0.0
C2512 C 0.77398 0.04144 0.78953 0.0
C2513 C 0.77134 0.04709 0.8003 0.0
C2514 C 0.77766 0.05727 0.80406 0.0
H2515 H 0.82114 0.06194 0.80876 0.0
H2516 H 0.80733 0.05371 0.80751 0.0
H2517 H 0.81454 0.05869 0.79438 0.0
H2518 H 0.79635 0.0598 0.78092 0.0
H2519 H 0.78546 0.04198 0.77439 0.0
H2520 H 0.89349 0.81172 0.81065 0.0
H2521 H 0.91016 0.79956 0.80471 0.0
H2522 H 0.93409 0.82181 0.8257 0.0
H2523 H 0.91752 0.8342 0.83144 0.0
H2524 H 0.94207 0.8168 0.80282 0.0
H2525 H 0.92812 0.77576 0.82593 0.0
H2526 H 0.91699 0.78188 0.81613 0.0
H2527 H 0.92194 0.7901 0.8291 0.0
C2528 C 0.90231 0.81409 0.81392 0.0
C2529 C 0.90416 0.82392 0.82156 0.0
C2530 C 0.9118 0.80705 0.81063 0.0
C2531 C 0.92333 0.80966 0.81493 0.0
C2532 C 0.92525 0.81957 0.82237 0.0
H2533 H 0.98586 0.76527 0.81097 0.0
H2534 H 0.96914 0.77694 0.81773 0.0
C2535 C 0.91576 0.8266 0.82569 0.0
C2536 C 0.93343 0.80222 0.81147 0.0
H2537 H 0.94425 0.77407 0.81291 0.0
C2538 C 0.94257 0.80747 0.80505 0.0
C2539 C 0.93413 0.79008 0.81454 0.0
C2540 C 0.92484 0.78412 0.8219 0.0
C2541 C 0.95228 0.80084 0.80139 0.0
C2542 C 0.95279 0.78862 0.80411 0.0
C2543 C 0.94378 0.78342 0.81075 0.0
C2544 C 0.96258 0.78109 0.80004 0.0
C2545 C 0.96199 0.80702 0.79475 0.0
C2546 C 0.96424 0.77931 0.78786 0.0
C2547 C 0.97373 0.7726 0.78397 0.0
C2548 C 0.98176 0.76751 0.79219 0.0
C2549 C 0.97984 0.76901 0.80441 0.0
C2550 C 0.97032 0.77572 0.80829 0.0
H2551 H 0.96177 0.81681 0.79597 0.0
H2552 H 0.97084 0.80382 0.79772 0.0
H2553 H 0.96083 0.80505 0.78512 0.0
H2554 H 0.95821 0.78315 0.78135 0.0
H2555 H 0.97474 0.77141 0.77451 0.0
H2556 H 0.80577 0.90879 0.22358 0.0
H2557 H 0.79883 0.92685 0.23325 0.0
H2558 H 0.82033 0.94811 0.21029 0.0
H2559 H 0.82729 0.93013 0.20058 0.0
H2560 H 0.81106 0.945 0.24538 0.0
H2561 H 0.78771 0.96243 0.20531 0.0
H2562 H 0.79285 0.94736 0.20622 0.0
H2563 H 0.80302 0.95926 0.20304 0.0
C2564 C 0.80907 0.9173 0.22062 0.0
C2565 C 0.81701 0.918 0.21122 0.0
C2566 C 0.80507 0.92762 0.22615 0.0
C2567 C 0.8089 0.93885 0.22237 0.0
C2568 C 0.81702 0.93956 0.21317 0.0
H2569 H 0.79293 0.01161 0.2406 0.0
H2570 H 0.80236 0.99344 0.23395 0.0
C2571 C 0.82099 0.92927 0.20761 0.0
C2572 C 0.80437 0.94982 0.228 0.0
H2573 H 0.78963 0.97544 0.2219 0.0
C2574 C 0.80634 0.95164 0.24027 0.0
C2575 C 0.79816 0.95847 0.22133 0.0
C2576 C 0.79519 0.95676 0.20827 0.0
C2577 C 0.80249 0.962 0.24597 0.0
C2578 C 0.7964 0.97069 0.23926 0.0
C2579 C 0.79439 0.96882 0.22702 0.0
C2580 C 0.79182 0.98173 0.24468 0.0
C2581 C 0.80516 0.96367 0.25908 0.0
C2582 C 0.78293 0.98123 0.25316 0.0
C2583 C 0.77752 0.99164 0.25702 0.0
C2584 C 0.78083 1.00274 0.2524 0.0
C2585 C 0.79014 1.00324 0.24435 0.0
C2586 C 0.79553 0.99284 0.2405 0.0
H2587 H 0.81237 0.95777 0.26226 0.0
H2588 H 0.80774 0.97302 0.26112 0.0
H2589 H 0.79711 0.9615 0.2641 0.0
H2590 H 0.77978 0.97276 0.25637 0.0
H2591 H 0.77033 0.9909 0.26317 0.0
H2592 H 0.10698 0.81691 0.20791 0.0
H2593 H 0.08896 0.80676 0.21407 0.0
H2594 H 0.09433 0.77923 0.18805 0.0
H2595 H 0.11239 0.78944 0.18174 0.0
H2596 H 0.07137 0.78619 0.18811 0.0
H2597 H 0.08686 0.77728 0.23416 0.0
H2598 H 0.08802 0.79274 0.23065 0.0
H2599 H 0.09676 0.78215 0.22281 0.0
C2600 C 0.10441 0.80863 0.20358 0.0
C2601 C 0.11119 0.80392 0.19441 0.0
C2602 C 0.09411 0.80282 0.20712 0.0
C2603 C 0.09042 0.79209 0.20171 0.0
C2604 C 0.09705 0.78745 0.19241 0.0
H2605 H 0.03388 0.75308 0.23683 0.0
H2606 H 0.0523 0.75708 0.22655 0.0
C2607 C 0.10734 0.79331 0.18879 0.0
C2608 C 0.07951 0.78591 0.20564 0.0
H2609 H 0.06588 0.77584 0.23038 0.0
C2610 C 0.07022 0.78378 0.19733 0.0
C2611 C 0.07808 0.7825 0.2176 0.0
C2612 C 0.08801 0.78366 0.22679 0.0
C2613 C 0.05933 0.7789 0.20078 0.0
C2614 C 0.0576 0.77633 0.21292 0.0
C2615 C 0.06711 0.77791 0.2211 0.0
C2616 C 0.04587 0.77274 0.21754 0.0
C2617 C 0.0498 0.77657 0.19138 0.0
C2618 C 0.036 0.78002 0.21569 0.0
C2619 C 0.02541 0.77767 0.22144 0.0
C2620 C 0.02452 0.76811 0.22936 0.0
C2621 C 0.03424 0.76051 0.23079 0.0
C2622 C 0.0448 0.76281 0.22495 0.0
H2623 H 0.0537 0.77483 0.18259 0.0
H2624 H 0.04408 0.76889 0.1937 0.0
H2625 H 0.04418 0.78454 0.19048 0.0
H2626 H 0.03664 0.78789 0.21027 0.0
H2627 H 0.01815 0.78376 0.22017 0.0
H2628 H 0.91494 0.19958 0.1922 0.0
H2629 H 0.93368 0.20778 0.20028 0.0
H2630 H 0.91465 0.23436 0.21944 0.0
H2631 H 0.89585 0.22608 0.2116 0.0
H2632 H 0.94282 0.23168 0.19814 0.0
H2633 H 0.93624 0.21889 0.24516 0.0
H2634 H 0.92768 0.21235 0.23296 0.0
H2635 H 0.92438 0.227 0.23818 0.0
C2636 C 0.91472 0.20708 0.19825 0.0
C2637 C 0.90387 0.21212 0.2013 0.0
C2638 C 0.92545 0.21182 0.20278 0.0
C2639 C 0.92556 0.22161 0.21055 0.0
C2640 C 0.91477 0.22671 0.21358 0.0
H2641 H 0.98418 0.25525 0.25113 0.0
H2642 H 0.96478 0.25139 0.24154 0.0
C2643 C 0.90403 0.22202 0.20901 0.0
C2644 C 0.93699 0.2265 0.21542 0.0
H2645 H 0.95338 0.23014 0.24115 0.0
C2646 C 0.94514 0.23137 0.20754 0.0
C2647 C 0.93995 0.22617 0.2277 0.0
C2648 C 0.93167 0.22075 0.23652 0.0
C2649 C 0.95618 0.23592 0.21162 0.0
C2650 C 0.95927 0.23533 0.22388 0.0
C2651 C 0.95101 0.23064 0.23177 0.0
C2652 C 0.97123 0.23885 0.22867 0.0
C2653 C 0.96436 0.24142 0.20277 0.0
C2654 C 0.98138 0.23327 0.22451 0.0
C2655 C 0.99248 0.23552 0.22991 0.0
C2656 C 0.9937 0.2433 0.23971 0.0
C2657 C 0.9836 0.24924 0.24358 0.0
C2658 C 0.97248 0.247 0.23814 0.0
H2659 H 0.95936 0.24474 0.19486 0.0
H2660 H 0.9696 0.24889 0.2068 0.0
H2661 H 0.97059 0.2346 0.19966 0.0
H2662 H 0.98065 0.22675 0.21741 0.0
H2663 H 1.00003 0.23072 0.22672 0.0
H2664 H 0.21312 0.7039 0.60271 0.0
H2665 H 0.22021 0.71346 0.58482 0.0
H2666 H 0.19513 0.74155 0.58905 0.0
H2667 H 0.18764 0.73185 0.60687 0.0
H2668 H 0.20363 0.72087 0.56343 0.0
H2669 H 0.23052 0.75685 0.5857 0.0
H2670 H 0.22761 0.74302 0.59317 0.0
H2671 H 0.21586 0.75332 0.59072 0.0
C2672 C 0.20897 0.71203 0.5998 0.0
C2673 C 0.19972 0.71703 0.60623 0.0
C2674 C 0.21311 0.71752 0.58961 0.0
C2675 C 0.20821 0.7282 0.58565 0.0
C2676 C 0.19906 0.73334 0.59203 0.0
H2677 H 0.24185 0.76542 0.52578 0.0
H2678 H 0.22743 0.7619 0.54149 0.0
C2679 C 0.19484 0.7278 0.60223 0.0
C2680 C 0.21269 0.73373 0.57472 0.0
H2681 H 0.23282 0.75415 0.56515 0.0
C2682 C 0.20984 0.7283 0.56376 0.0
C2683 C 0.22066 0.74349 0.57517 0.0
C2684 C 0.22392 0.74958 0.58679 0.0
C2685 C 0.21523 0.73199 0.55329 0.0
C2686 C 0.2239 0.74117 0.55387 0.0
C2687 C 0.22618 0.74711 0.56472 0.0
C2688 C 0.23189 0.74342 0.54384 0.0
C2689 C 0.21188 0.72576 0.54177 0.0
C2690 C 0.23917 0.73426 0.54003 0.0
C2691 C 0.24735 0.73624 0.5312 0.0
C2692 C 0.24851 0.74746 0.52595 0.0
C2693 C 0.24109 0.75665 0.5296 0.0
C2694 C 0.23289 0.75467 0.53858 0.0
H2695 H 0.20268 0.72217 0.54192 0.0
H2696 H 0.21265 0.73183 0.53408 0.0
H2697 H 0.2179 0.71818 0.54046 0.0
H2698 H 0.23874 0.72559 0.54411 0.0
H2699 H 0.25291 0.72894 0.52862 0.0
H2700 H 0.83577 0.70996 0.59984 0.0
H2701 H 0.82797 0.71874 0.58147 0.0
H2702 H 0.80758 0.74327 0.60189 0.0
H2703 H 0.81542 0.73459 0.62031 0.0
H2704 H 0.80526 0.71982 0.57334 0.0
H2705 H 0.82345 0.76549 0.57898 0.0
H2706 H 0.82841 0.75329 0.58807 0.0
H2707 H 0.8148 0.76066 0.59123 0.0
C2708 C 0.82962 0.71722 0.60043 0.0
C2709 C 0.82624 0.72159 0.61155 0.0
C2710 C 0.82521 0.72227 0.58991 0.0
C2711 C 0.81734 0.73181 0.59028 0.0
C2712 C 0.81389 0.73614 0.60137 0.0
H2713 H 0.77409 0.76693 0.53638 0.0
H2714 H 0.78408 0.76086 0.55491 0.0
C2715 C 0.81835 0.73114 0.6119 0.0
C2716 C 0.81234 0.7368 0.57904 0.0
H2717 H 0.80925 0.76243 0.56318 0.0
C2718 C 0.80621 0.72912 0.57109 0.0
C2719 C 0.81355 0.74896 0.57611 0.0
C2720 C 0.8205 0.75757 0.58398 0.0
C2721 C 0.80112 0.73326 0.56041 0.0
C2722 C 0.80229 0.74541 0.55751 0.0
C2723 C 0.80838 0.75313 0.56544 0.0
C2724 C 0.79714 0.75017 0.54628 0.0
C2725 C 0.79432 0.72465 0.5524 0.0
C2726 C 0.80144 0.74651 0.53529 0.0
C2727 C 0.79579 0.74999 0.52468 0.0
C2728 C 0.78571 0.7572 0.52487 0.0
C2729 C 0.78181 0.76136 0.5359 0.0
C2730 C 0.7875 0.7579 0.54651 0.0
H2731 H 0.79213 0.71626 0.55702 0.0
H2732 H 0.78596 0.72866 0.54901 0.0
H2733 H 0.79976 0.72245 0.54464 0.0
H2734 H 0.80897 0.74068 0.53492 0.0
H2735 H 0.79908 0.74666 0.51637 0.0
H2736 H 0.83276 0.33056 0.63656 0.0
H2737 H 0.82261 0.32245 0.61876 0.0
H2738 H 0.79744 0.35085 0.61971 0.0
H2739 H 0.80744 0.35897 0.63756 0.0
H2740 H 0.79893 0.31482 0.61545 0.0
H2741 H 0.8094 0.35239 0.58568 0.0
H2742 H 0.81693 0.35032 0.59985 0.0
H2743 H 0.80238 0.3566 0.59917 0.0
C2744 C 0.82502 0.33505 0.63305 0.0
C2745 C 0.82097 0.34548 0.63849 0.0
C2746 C 0.81926 0.33042 0.62283 0.0
C2747 C 0.80939 0.33614 0.61779 0.0
C2748 C 0.80521 0.34644 0.62328 0.0
H2749 H 0.76331 0.32232 0.5558 0.0
H2750 H 0.77275 0.33023 0.57405 0.0
C2751 C 0.81095 0.35107 0.63349 0.0
C2752 C 0.80336 0.33124 0.60688 0.0
H2753 H 0.79601 0.33772 0.57801 0.0
C2754 C 0.79833 0.3198 0.60725 0.0
C2755 C 0.80255 0.33777 0.5962 0.0
C2756 C 0.80818 0.34991 0.59511 0.0
C2757 C 0.79235 0.31478 0.59728 0.0
C2758 C 0.79157 0.32129 0.58657 0.0
C2759 C 0.79658 0.33274 0.58622 0.0
C2760 C 0.78573 0.31633 0.57559 0.0
C2761 C 0.7867 0.30264 0.59838 0.0
C2762 C 0.78996 0.30597 0.57029 0.0
C2763 C 0.7846 0.30144 0.55983 0.0
C2764 C 0.77493 0.30723 0.55437 0.0
C2765 C 0.77078 0.31768 0.55968 0.0
C2766 C 0.77614 0.32219 0.57015 0.0
H2767 H 0.78523 0.30031 0.6078 0.0
H2768 H 0.77808 0.30212 0.59341 0.0
H2769 H 0.79265 0.29591 0.59461 0.0
H2770 H 0.79754 0.30146 0.57414 0.0
H2771 H 0.78823 0.29354 0.55591 0.0
H2772 H 0.19892 0.34212 0.6234 0.0
H2773 H 0.20973 0.33573 0.60598 0.0
H2774 H 0.23469 0.31739 0.62872 0.0
H2775 H 0.22389 0.32366 0.64617 0.0
H2776 H 0.24541 0.33133 0.6114 0.0
H2777 H 0.21001 0.30215 0.59162 0.0
H2778 H 0.2055 0.31705 0.59475 0.0
H2779 H 0.20976 0.30746 0.60678 0.0
C2780 C 0.20662 0.33661 0.62469 0.0
C2781 C 0.2105 0.33337 0.63619 0.0
C2782 C 0.2128 0.33297 0.61472 0.0
C2783 C 0.22293 0.32596 0.61605 0.0
C2784 C 0.22689 0.32279 0.6275 0.0
H2785 H 0.25851 0.28476 0.56313 0.0
H2786 H 0.24757 0.29201 0.58004 0.0
C2787 C 0.22072 0.32642 0.63747 0.0
C2788 C 0.22952 0.32205 0.60552 0.0
H2789 H 0.22695 0.30546 0.58007 0.0
C2790 C 0.24139 0.32568 0.60454 0.0
C2791 C 0.22427 0.31458 0.59665 0.0
C2792 C 0.21172 0.30998 0.59751 0.0
C2793 C 0.24814 0.32209 0.59488 0.0
C2794 C 0.24282 0.31481 0.58589 0.0
C2795 C 0.23097 0.31112 0.58692 0.0
C2796 C 0.2495 0.31056 0.57556 0.0
C2797 C 0.26098 0.32588 0.59451 0.0
C2798 C 0.25415 0.31857 0.56735 0.0
C2799 C 0.26038 0.31444 0.5576 0.0
C2800 C 0.26202 0.3022 0.55584 0.0
C2801 C 0.25728 0.29422 0.56408 0.0
C2802 C 0.25107 0.29835 0.5738 0.0
H2803 H 0.26441 0.32904 0.60334 0.0
H2804 H 0.26656 0.31846 0.5915 0.0
H2805 H 0.2619 0.33327 0.58812 0.0
H2806 H 0.25284 0.32802 0.56841 0.0
H2807 H 0.26375 0.32082 0.55135 0.0
H2808 H 0.21373 0.29236 0.40068 0.0
H2809 H 0.22291 0.28376 0.41853 0.0
H2810 H 0.20179 0.30629 0.44044 0.0
H2811 H 0.19249 0.3148 0.42264 0.0
H2812 H 0.23633 0.29487 0.43472 0.0
H2813 H 0.19804 0.27523 0.4574 0.0
H2814 H 0.19717 0.27993 0.4421 0.0
H2815 H 0.19574 0.29056 0.45397 0.0
C2816 C 0.21097 0.29542 0.40931 0.0
C2817 C 0.20237 0.30428 0.41022 0.0
C2818 C 0.21618 0.29045 0.41951 0.0
C2819 C 0.21293 0.29421 0.43088 0.0
C2820 C 0.20422 0.30295 0.43181 0.0
H2821 H 0.25485 0.29976 0.49399 0.0
H2822 H 0.24251 0.30156 0.47608 0.0
C2823 C 0.19894 0.30787 0.42161 0.0
C2824 C 0.21941 0.28985 0.44167 0.0
H2825 H 0.21566 0.27884 0.46962 0.0
C2826 C 0.23179 0.29119 0.44226 0.0
C2827 C 0.21357 0.28489 0.4515 0.0
C2828 C 0.20041 0.28245 0.45118 0.0
C2829 C 0.23839 0.28828 0.45254 0.0
C2830 C 0.23247 0.28409 0.46264 0.0
C2831 C 0.22018 0.28217 0.46191 0.0
C2832 C 0.23888 0.28275 0.47424 0.0
C2833 C 0.25168 0.28994 0.45261 0.0
C2834 C 0.24055 0.27158 0.47949 0.0
C2835 C 0.24764 0.2705 0.48989 0.0
C2836 C 0.25313 0.28059 0.49513 0.0
C2837 C 0.2509 0.29178 0.49012 0.0
C2838 C 0.24385 0.29284 0.47985 0.0
H2839 H 0.25511 0.28996 0.44345 0.0
H2840 H 0.25405 0.2986 0.45684 0.0
H2841 H 0.25615 0.28283 0.45776 0.0
H2842 H 0.23672 0.26368 0.47532 0.0
H2843 H 0.2492 0.26176 0.49353 0.0
H2844 H 0.19795 0.67905 0.39938 0.0
H2845 H 0.20869 0.68732 0.41673 0.0
H2846 H 0.23449 0.70303 0.39387 0.0
H2847 H 0.22357 0.69521 0.37643 0.0
H2848 H 0.23152 0.68381 0.42489 0.0
H2849 H 0.22483 0.73122 0.41398 0.0
H2850 H 0.21666 0.71938 0.4065 0.0
H2851 H 0.23156 0.7229 0.40236 0.0
C2852 C 0.20582 0.68439 0.39801 0.0
C2853 C 0.20982 0.68653 0.38647 0.0
C2854 C 0.21201 0.68904 0.40796 0.0
C2855 C 0.2223 0.69596 0.40661 0.0
C2856 C 0.22645 0.69792 0.39513 0.0
H2857 H 0.27449 0.71447 0.46255 0.0
H2858 H 0.26386 0.70566 0.44538 0.0
C2859 C 0.22026 0.6933 0.38517 0.0
C2860 C 0.22872 0.70103 0.41721 0.0
H2861 H 0.23821 0.72714 0.43002 0.0
C2862 C 0.23297 0.69328 0.42603 0.0
C2863 C 0.23046 0.71341 0.41878 0.0
C2864 C 0.22554 0.72223 0.40997 0.0
C2865 C 0.23904 0.69756 0.43628 0.0
C2866 C 0.24111 0.70992 0.43766 0.0
C2867 C 0.23673 0.71767 0.42891 0.0
C2868 C 0.24756 0.71505 0.44822 0.0
C2869 C 0.24296 0.68883 0.44566 0.0
C2870 C 0.24205 0.72344 0.45542 0.0
C2871 C 0.24813 0.72853 0.4652 0.0
C2872 C 0.25989 0.72538 0.46801 0.0
C2873 C 0.26539 0.71696 0.46078 0.0
C2874 C 0.25931 0.7119 0.45095 0.0
H2875 H 0.23797 0.68029 0.44482 0.0
H2876 H 0.25249 0.68694 0.44463 0.0
H2877 H 0.24176 0.69249 0.45472 0.0
H2878 H 0.23299 0.72602 0.45349 0.0
H2879 H 0.24356 0.73487 0.47064 0.0
H2880 H 0.82775 0.68729 0.40025 0.0
H2881 H 0.81745 0.6942 0.41781 0.0
H2882 H 0.79689 0.71803 0.39593 0.0
H2883 H 0.80702 0.71102 0.37832 0.0
H2884 H 0.81585 0.71587 0.42806 0.0
H2885 H 0.77116 0.70036 0.41288 0.0
H2886 H 0.78444 0.69601 0.40554 0.0
H2887 H 0.77796 0.71024 0.40259 0.0
C2888 C 0.82109 0.69407 0.3992 0.0
C2889 C 0.81813 0.69856 0.38789 0.0
C2890 C 0.81518 0.69797 0.40923 0.0
C2891 C 0.80621 0.70644 0.40816 0.0
C2892 C 0.80353 0.71123 0.39694 0.0
H2893 H 0.7639 0.74485 0.45826 0.0
H2894 H 0.77416 0.73756 0.44079 0.0
C2895 C 0.80936 0.70726 0.38689 0.0
C2896 C 0.79976 0.71034 0.4188 0.0
H2897 H 0.77209 0.71279 0.43008 0.0
C2898 C 0.80629 0.71512 0.42853 0.0
C2899 C 0.78727 0.70931 0.41943 0.0
C2900 C 0.7798 0.70359 0.40961 0.0
C2901 C 0.80066 0.71913 0.43875 0.0
C2902 C 0.78819 0.71828 0.43927 0.0
C2903 C 0.78165 0.71346 0.4296 0.0
C2904 C 0.78179 0.72246 0.44977 0.0
C2905 C 0.80803 0.72445 0.44886 0.0
C2906 C 0.78255 0.71625 0.46051 0.0
C2907 C 0.77666 0.72035 0.47048 0.0
C2908 C 0.76997 0.73078 0.46988 0.0
C2909 C 0.7691 0.73687 0.45903 0.0
C2910 C 0.7749 0.7327 0.44905 0.0
H2911 H 0.81733 0.72618 0.44634 0.0
H2912 H 0.80412 0.7329 0.4519 0.0
H2913 H 0.8081 0.71823 0.45647 0.0
H2914 H 0.78776 0.70826 0.4612 0.0
H2915 H 0.7776 0.71553 0.47873 0.0
H2916 H 0.84238 0.33041 0.42306 0.0
H2917 H 0.83498 0.32217 0.44155 0.0
H2918 H 0.80962 0.30064 0.42152 0.0
H2919 H 0.81714 0.30863 0.40296 0.0
H2920 H 0.81162 0.32294 0.45 0.0
H2921 H 0.8264 0.27657 0.44354 0.0
H2922 H 0.8321 0.28883 0.43506 0.0
H2923 H 0.81776 0.28254 0.4314 0.0
C2924 C 0.8353 0.32384 0.42258 0.0
C2925 C 0.83039 0.32014 0.41152 0.0
C2926 C 0.83105 0.31918 0.43315 0.0
C2927 C 0.82189 0.31065 0.4329 0.0
C2928 C 0.81685 0.30705 0.42191 0.0
H2929 H 0.78147 0.27424 0.48612 0.0
H2930 H 0.791 0.28063 0.46796 0.0
C2931 C 0.82106 0.31174 0.41131 0.0
C2932 C 0.8174 0.3058 0.44417 0.0
H2933 H 0.81411 0.28019 0.45992 0.0
C2934 C 0.81223 0.31361 0.45221 0.0
C2935 C 0.81816 0.29361 0.447 0.0
C2936 C 0.82399 0.28489 0.43886 0.0
C2937 C 0.80757 0.30954 0.46291 0.0
C2938 C 0.80837 0.29735 0.46578 0.0
C2939 C 0.81356 0.28953 0.45773 0.0
C2940 C 0.80352 0.29255 0.47693 0.0
C2941 C 0.80153 0.31828 0.47087 0.0
C2942 C 0.80772 0.29675 0.48805 0.0
C2943 C 0.80227 0.29313 0.49847 0.0
C2944 C 0.79258 0.28516 0.49796 0.0
C2945 C 0.78889 0.28041 0.48686 0.0
C2946 C 0.79431 0.28407 0.47645 0.0
H2947 H 0.799 0.32648 0.46604 0.0
H2948 H 0.79344 0.31429 0.47468 0.0
H2949 H 0.80768 0.32088 0.47832 0.0
H2950 H 0.81501 0.30307 0.48866 0.0
H2951 H 0.80541 0.2969 0.50687 0.0
H2952 H 0.12542 0.71862 0.6822 0.0
H2953 H 0.10851 0.72384 0.6943 0.0
H2954 H 0.117 0.69541 0.71839 0.0
H2955 H 0.13406 0.69032 0.70653 0.0
H2956 H 0.08897 0.70898 0.69993 0.0
H2957 H 0.11381 0.72433 0.74055 0.0
H2958 H 0.12071 0.7227 0.72635 0.0
H2959 H 0.11776 0.70988 0.73525 0.0
C2960 C 0.12378 0.71358 0.69016 0.0
C2961 C 0.1311 0.70406 0.6934 0.0
C2962 C 0.11408 0.71653 0.69702 0.0
C2963 C 0.11159 0.7101 0.70732 0.0
C2964 C 0.11887 0.7006 0.71058 0.0
H2965 H 0.05647 0.7146 0.75989 0.0
H2966 H 0.07341 0.70875 0.74816 0.0
C2967 C 0.12854 0.69763 0.70372 0.0
C2968 C 0.10116 0.71309 0.71444 0.0
H2969 H 0.09297 0.72245 0.74191 0.0
C2970 C 0.08983 0.71197 0.7091 0.0
C2971 C 0.10232 0.71691 0.72642 0.0
C2972 C 0.1143 0.71864 0.73249 0.0
C2973 C 0.0796 0.71445 0.71545 0.0
C2974 C 0.08076 0.71837 0.7274 0.0
C2975 C 0.0921 0.71942 0.73276 0.0
C2976 C 0.07035 0.72174 0.73438 0.0
C2977 C 0.06764 0.71261 0.70937 0.0
C2978 C 0.06306 0.73104 0.7306 0.0
C2979 C 0.05335 0.73435 0.73723 0.0
C2980 C 0.05074 0.7285 0.74787 0.0
C2981 C 0.0581 0.7192 0.75168 0.0
C2982 C 0.06784 0.71589 0.74502 0.0
H2983 H 0.06813 0.70647 0.70164 0.0
H2984 H 0.06109 0.70902 0.71563 0.0
H2985 H 0.06439 0.72126 0.70604 0.0
H2986 H 0.06495 0.73583 0.72254 0.0
H2987 H 0.04783 0.74145 0.73393 0.0
H2988 H 0.80726 0.65401 0.69921 0.0
H2989 H 0.79726 0.63672 0.70754 0.0
H2990 H 0.82341 0.61383 0.6927 0.0
H2991 H 0.83337 0.63103 0.68412 0.0
H2992 H 0.78768 0.61637 0.69533 0.0
H2993 H 0.82306 0.6045 0.72822 0.0
H2994 H 0.82248 0.61883 0.72115 0.0
H2995 H 0.82785 0.6062 0.71322 0.0
C2996 C 0.81086 0.6453 0.69762 0.0
C2997 C 0.82117 0.64397 0.69098 0.0
C2998 C 0.80515 0.63542 0.70245 0.0
C2999 C 0.80966 0.62399 0.70087 0.0
C3000 C 0.8199 0.62259 0.69423 0.0
H3001 H 0.77408 0.55605 0.71159 0.0
H3002 H 0.78383 0.57351 0.70338 0.0
C3003 C 0.8256 0.63246 0.68935 0.0
C3004 C 0.8035 0.61353 0.70597 0.0
H3005 H 0.80694 0.59095 0.72584 0.0
C3006 C 0.79188 0.61082 0.70201 0.0
C3007 C 0.80895 0.60637 0.71477 0.0
C3008 C 0.82124 0.60914 0.7197 0.0
C3009 C 0.78563 0.60102 0.70649 0.0
C3010 C 0.79117 0.59369 0.71509 0.0
C3011 C 0.80273 0.59652 0.71918 0.0
C3012 C 0.78508 0.58313 0.72005 0.0
C3013 C 0.77307 0.59869 0.70212 0.0
C3014 C 0.78267 0.58264 0.7322 0.0
C3015 C 0.77702 0.57268 0.73694 0.0
C3016 C 0.77374 0.5629 0.72965 0.0
C3017 C 0.77625 0.56343 0.71747 0.0
C3018 C 0.78187 0.57342 0.71274 0.0
H3019 H 0.7692 0.60657 0.69767 0.0
H3020 H 0.77297 0.59126 0.6956 0.0
H3021 H 0.76735 0.5961 0.70957 0.0
H3022 H 0.78508 0.59003 0.73802 0.0
H3023 H 0.77514 0.57272 0.74631 0.0
H3024 H 0.91614 0.35379 0.70725 0.0
H3025 H 0.93347 0.34508 0.71719 0.0
H3026 H 0.91065 0.32209 0.73707 0.0
H3027 H 0.89325 0.33094 0.72737 0.0
H3028 H 0.92841 0.33371 0.75106 0.0
H3029 H 0.94715 0.31185 0.71156 0.0
H3030 H 0.94411 0.32735 0.70972 0.0
H3031 H 0.9321 0.31703 0.71177 0.0
C3032 C 0.9148 0.3469 0.71376 0.0
C3033 C 0.90329 0.34305 0.71649 0.0
C3034 C 0.92472 0.34185 0.71935 0.0
C3035 C 0.92336 0.33283 0.72776 0.0
C3036 C 0.91191 0.32899 0.73054 0.0
H3037 H 0.97802 0.28731 0.75773 0.0
H3038 H 0.96048 0.29537 0.74769 0.0
C3039 C 0.90197 0.334 0.72493 0.0
C3040 C 0.93387 0.32764 0.73391 0.0
H3041 H 0.9592 0.31223 0.72918 0.0
C3042 C 0.93513 0.32899 0.74629 0.0
C3043 C 0.94256 0.32137 0.72769 0.0
C3044 C 0.94141 0.3192 0.71446 0.0
C3045 C 0.94496 0.32442 0.75259 0.0
C3046 C 0.95382 0.31844 0.74631 0.0
C3047 C 0.95245 0.3169 0.73396 0.0
C3048 C 0.96453 0.31362 0.75243 0.0
C3049 C 0.9457 0.32587 0.76592 0.0
C3050 C 0.97272 0.32122 0.75832 0.0
C3051 C 0.98283 0.31665 0.76402 0.0
C3052 C 0.985 0.30437 0.76391 0.0
C3053 C 0.97677 0.29681 0.75791 0.0
C3054 C 0.96669 0.30139 0.7522 0.0
H3055 H 0.93696 0.32803 0.76963 0.0
H3056 H 0.94903 0.31767 0.77021 0.0
H3057 H 0.95196 0.33323 0.76826 0.0
H3058 H 0.97136 0.33072 0.75842 0.0
H3059 H 0.98903 0.32278 0.76835 0.0
H3060 H 0.21617 0.40717 0.7062 0.0
H3061 H 0.22374 0.42583 0.71465 0.0
H3062 H 0.19397 0.42742 0.73774 0.0
H3063 H 0.18639 0.40852 0.7295 0.0
H3064 H 0.19861 0.4488 0.72538 0.0
H3065 H 0.2392 0.4319 0.74777 0.0
H3066 H 0.23764 0.42714 0.73255 0.0
H3067 H 0.22697 0.42231 0.74313 0.0
C3068 C 0.21132 0.41133 0.71324 0.0
C3069 C 0.20071 0.40625 0.71723 0.0
C3070 C 0.21566 0.42203 0.71804 0.0
C3071 C 0.20953 0.42791 0.72696 0.0
C3072 C 0.19888 0.42297 0.73092 0.0
H3073 H 0.24618 0.49085 0.7578 0.0
H3074 H 0.23354 0.47293 0.75706 0.0
C3075 C 0.19454 0.41221 0.72614 0.0
C3076 C 0.21406 0.43947 0.73167 0.0
H3077 H 0.23888 0.45283 0.7438 0.0
C3078 C 0.20733 0.44968 0.7296 0.0
C3079 C 0.22533 0.44059 0.73737 0.0
C3080 C 0.23266 0.42989 0.74046 0.0
C3081 C 0.21192 0.46104 0.73237 0.0
C3082 C 0.22357 0.4622 0.7372 0.0
C3083 C 0.22998 0.45195 0.74001 0.0
C3084 C 0.2298 0.47386 0.73813 0.0
C3085 C 0.20436 0.47171 0.72982 0.0
C3086 C 0.23177 0.48038 0.72779 0.0
C3087 C 0.23899 0.49052 0.72817 0.0
C3088 C 0.24442 0.49438 0.73892 0.0
C3089 C 0.24204 0.48815 0.7494 0.0
C3090 C 0.23487 0.4779 0.74899 0.0
H3091 H 0.19478 0.46938 0.73001 0.0
H3092 H 0.20628 0.47897 0.73633 0.0
H3093 H 0.20625 0.47504 0.7208 0.0
H3094 H 0.22817 0.47732 0.71928 0.0
H3095 H 0.24064 0.49511 0.71995 0.0
H3096 H 0.11368 0.32394 0.33751 0.0
H3097 H 0.09583 0.31588 0.32741 0.0
H3098 H 0.11744 0.29377 0.30558 0.0
H3099 H 0.13531 0.30193 0.3155 0.0
H3100 H 0.0992 0.30356 0.29267 0.0
H3101 H 0.08235 0.28328 0.33387 0.0
H3102 H 0.08474 0.29903 0.33485 0.0
H3103 H 0.09713 0.28938 0.33303 0.0
C3104 C 0.11462 0.31734 0.33057 0.0
C3105 C 0.12591 0.31351 0.32738 0.0
C3106 C 0.10441 0.31273 0.32481 0.0
C3107 C 0.10526 0.30405 0.31587 0.0
C3108 C 0.11654 0.30045 0.31245 0.0
H3109 H 0.05625 0.25004 0.29378 0.0
H3110 H 0.07221 0.2628 0.30144 0.0
C3111 C 0.12675 0.30513 0.31813 0.0
C3112 C 0.09446 0.2984 0.31032 0.0
H3113 H 0.07022 0.28139 0.31662 0.0
C3114 C 0.09282 0.29876 0.2979 0.0
C3115 C 0.08618 0.29206 0.31715 0.0
C3116 C 0.0877 0.29079 0.33044 0.0
C3117 C 0.08326 0.29277 0.29212 0.0
C3118 C 0.075 0.28643 0.29896 0.0
C3119 C 0.0765 0.28632 0.31138 0.0
C3120 C 0.06542 0.27884 0.29347 0.0
C3121 C 0.08234 0.29288 0.27873 0.0
C3122 C 0.05628 0.28356 0.28627 0.0
C3123 C 0.04706 0.27618 0.28174 0.0
C3124 C 0.0468 0.26402 0.28449 0.0
C3125 C 0.05608 0.25937 0.29155 0.0
C3126 C 0.06525 0.26667 0.29596 0.0
H3127 H 0.09065 0.29614 0.27473 0.0
H3128 H 0.08026 0.28386 0.27517 0.0
H3129 H 0.07507 0.29884 0.27587 0.0
H3130 H 0.05611 0.29296 0.28438 0.0
H3131 H 0.04001 0.28004 0.27639 0.0
H3132 H 0.18504 0.61077 0.29078 0.0
H3133 H 0.19234 0.59203 0.28257 0.0
H3134 H 0.2179 0.58985 0.31157 0.0
H3135 H 0.21068 0.60844 0.31983 0.0
H3136 H 0.2178 0.58669 0.27666 0.0
H3137 H 0.19874 0.55729 0.31075 0.0
H3138 H 0.19307 0.5719 0.3076 0.0
H3139 H 0.20633 0.57027 0.31659 0.0
C3140 C 0.19217 0.60625 0.29543 0.0
C3141 C 0.19729 0.6111 0.30595 0.0
C3142 C 0.19635 0.59559 0.2907 0.0
C3143 C 0.20558 0.58952 0.29652 0.0
C3144 C 0.2107 0.59435 0.307 0.0
H3145 H 0.25297 0.53403 0.29702 0.0
H3146 H 0.23906 0.54999 0.29959 0.0
C3147 C 0.20662 0.60502 0.31165 0.0
C3148 C 0.21011 0.5782 0.29172 0.0
H3149 H 0.21428 0.54926 0.29931 0.0
C3150 C 0.21685 0.57842 0.28143 0.0
C3151 C 0.20878 0.56744 0.29795 0.0
C3152 C 0.20125 0.56662 0.30879 0.0
C3153 C 0.22302 0.56833 0.27769 0.0
C3154 C 0.22224 0.55774 0.28435 0.0
C3155 C 0.21488 0.55737 0.29421 0.0
C3156 C 0.23029 0.54761 0.28241 0.0
C3157 C 0.23093 0.56929 0.26716 0.0
C3158 C 0.22994 0.54078 0.27189 0.0
C3159 C 0.23801 0.53151 0.27035 0.0
C3160 C 0.24652 0.52898 0.27931 0.0
C3161 C 0.24661 0.53573 0.28988 0.0
C3162 C 0.23861 0.54488 0.2914 0.0
H3163 H 0.23171 0.57854 0.2639 0.0
H3164 H 0.23994 0.56604 0.2695 0.0
H3165 H 0.22727 0.56365 0.25979 0.0
H3166 H 0.22348 0.54263 0.26489 0.0
H3167 H 0.2377 0.52647 0.26212 0.0
H3168 H 0.89985 0.70893 0.32289 0.0
H3169 H 0.91758 0.71705 0.31376 0.0
H3170 H 0.9156 0.68948 0.28703 0.0
H3171 H 0.8977 0.68138 0.29602 0.0
H3172 H 0.93955 0.70427 0.30952 0.0
H3173 H 0.91785 0.7214 0.26814 0.0
H3174 H 0.90961 0.71816 0.28128 0.0
H3175 H 0.91475 0.70627 0.27218 0.0
C3176 C 0.9031 0.70465 0.315 0.0
C3177 C 0.89732 0.69454 0.31015 0.0
C3178 C 0.91328 0.70926 0.30984 0.0
C3179 C 0.91783 0.70393 0.29966 0.0
C3180 C 0.91215 0.6938 0.29481 0.0
H3181 H 0.97835 0.73231 0.25981 0.0
H3182 H 0.96207 0.71905 0.26572 0.0
C3183 C 0.90199 0.68913 0.30001 0.0
C3184 C 0.92864 0.70896 0.29434 0.0
H3185 H 0.93832 0.725 0.27076 0.0
C3186 C 0.93931 0.7087 0.30099 0.0
C3187 C 0.92833 0.71462 0.28315 0.0
C3188 C 0.91704 0.71523 0.27574 0.0
C3189 C 0.94962 0.71425 0.29692 0.0
C3190 C 0.94917 0.72045 0.28602 0.0
C3191 C 0.93864 0.72026 0.27911 0.0
C3192 C 0.95914 0.72818 0.28234 0.0
C3193 C 0.96087 0.71355 0.30441 0.0
C3194 C 0.96273 0.73777 0.28961 0.0
C3195 C 0.97193 0.7453 0.28628 0.0
C3196 C 0.97775 0.74348 0.27554 0.0
C3197 C 0.97409 0.73391 0.26817 0.0
C3198 C 0.9648 0.72635 0.27152 0.0
H3199 H 0.96084 0.70557 0.31016 0.0
H3200 H 0.96879 0.71331 0.29879 0.0
H3201 H 0.9616 0.72148 0.31028 0.0
H3202 H 0.95832 0.73953 0.29785 0.0
H3203 H 0.97443 0.7526 0.29216 0.0
H3204 H 0.81851 0.39454 0.3354 0.0
H3205 H 0.81099 0.41122 0.32367 0.0
H3206 H 0.83595 0.40358 0.29643 0.0
H3207 H 0.8434 0.38679 0.308 0.0
H3208 H 0.82465 0.4314 0.31538 0.0
H3209 H 0.80338 0.4053 0.27836 0.0
H3210 H 0.80717 0.39884 0.29259 0.0
H3211 H 0.81849 0.40165 0.28203 0.0
C3212 C 0.82231 0.39633 0.32685 0.0
C3213 C 0.83154 0.38931 0.32263 0.0
C3214 C 0.81805 0.4059 0.3202 0.0
C3215 C 0.82283 0.40855 0.30913 0.0
C3216 C 0.83204 0.40159 0.30488 0.0
H3217 H 0.80716 0.46187 0.25539 0.0
H3218 H 0.81533 0.44534 0.26678 0.0
C3219 C 0.83635 0.39207 0.31156 0.0
C3220 C 0.81837 0.41878 0.30215 0.0
H3221 H 0.80402 0.42615 0.27619 0.0
C3222 C 0.8201 0.43027 0.30682 0.0
C3223 C 0.81253 0.41727 0.29097 0.0
C3224 C 0.81017 0.40511 0.28569 0.0
C3225 C 0.81627 0.44031 0.30054 0.0
C3226 C 0.81027 0.43881 0.2894 0.0
C3227 C 0.80861 0.42731 0.28471 0.0
C3228 C 0.80548 0.44902 0.28258 0.0
C3229 C 0.81891 0.45244 0.30578 0.0
C3230 C 0.79713 0.45654 0.2876 0.0
C3231 C 0.79254 0.46607 0.28116 0.0
C3232 C 0.79606 0.46826 0.26945 0.0
C3233 C 0.80434 0.46061 0.2644 0.0
C3234 C 0.80898 0.45109 0.27089 0.0
H3235 H 0.82647 0.45224 0.3123 0.0
H3236 H 0.821 0.45896 0.29875 0.0
H3237 H 0.81104 0.45558 0.31052 0.0
H3238 H 0.79409 0.45498 0.29651 0.0
H3239 H 0.78628 0.47177 0.28544 0.0
H3240 H 0.20369 0.62376 0.6696 0.0
H3241 H 0.21381 0.60617 0.67724 0.0
H3242 H 0.23641 0.62842 0.69964 0.0
H3243 H 0.22648 0.64608 0.69192 0.0
H3244 H 0.24837 0.61014 0.68647 0.0
H3245 H 0.21009 0.59281 0.71142 0.0
H3246 H 0.20702 0.59632 0.69609 0.0
H3247 H 0.21106 0.60798 0.70642 0.0
C3248 C 0.21089 0.62492 0.67607 0.0
C3249 C 0.21426 0.63632 0.68018 0.0
C3250 C 0.21658 0.61486 0.6805 0.0
C3251 C 0.22575 0.616 0.68911 0.0
C3252 C 0.2293 0.62736 0.69306 0.0
H3253 H 0.25693 0.56156 0.73377 0.0
H3254 H 0.24748 0.57933 0.7259 0.0
C3255 C 0.22357 0.63742 0.68869 0.0
C3256 C 0.23166 0.60534 0.69397 0.0
H3257 H 0.22685 0.58045 0.7104 0.0
C3258 C 0.24369 0.60365 0.69171 0.0
C3259 C 0.22554 0.59697 0.70091 0.0
C3260 C 0.21274 0.59861 0.70397 0.0
C3261 C 0.24971 0.59367 0.69606 0.0
C3262 C 0.24352 0.58516 0.70277 0.0
C3263 C 0.23154 0.58696 0.70518 0.0
C3264 C 0.24933 0.57437 0.70746 0.0
C3265 C 0.2627 0.59239 0.6936 0.0
C3266 C 0.2534 0.56563 0.6997 0.0
C3267 C 0.25871 0.55538 0.70417 0.0
C3268 C 0.26005 0.55364 0.71651 0.0
C3269 C 0.25593 0.56246 0.72424 0.0
C3270 C 0.25058 0.57268 0.71976 0.0
H3271 H 0.26674 0.60086 0.69062 0.0
H3272 H 0.26764 0.58931 0.70164 0.0
H3273 H 0.26375 0.58567 0.68647 0.0
H3274 H 0.25233 0.56667 0.69017 0.0
H3275 H 0.26157 0.54874 0.69793 0.0
H3276 H 0.22429 0.38603 0.35003 0.0
H3277 H 0.23431 0.40389 0.34286 0.0
H3278 H 0.20759 0.40725 0.31505 0.0
H3279 H 0.19735 0.38959 0.32233 0.0
H3280 H 0.2435 0.40808 0.32013 0.0
H3281 H 0.20847 0.44029 0.33075 0.0
H3282 H 0.20887 0.42555 0.33692 0.0
H3283 H 0.2034 0.42777 0.32197 0.0
C3284 C 0.22046 0.39064 0.34247 0.0
C3285 C 0.20997 0.38639 0.3368 0.0
C3286 C 0.22624 0.40081 0.33834 0.0
C3287 C 0.22161 0.407 0.32852 0.0
C3288 C 0.21122 0.40273 0.32277 0.0
H3289 H 0.2423 0.4693 0.28901 0.0
H3290 H 0.23265 0.45159 0.29679 0.0
C3291 C 0.20545 0.39255 0.32687 0.0
C3292 C 0.22779 0.41778 0.32415 0.0
H3293 H 0.2243 0.44743 0.31923 0.0
C3294 C 0.23934 0.41671 0.31999 0.0
C3295 C 0.22233 0.42901 0.32396 0.0
C3296 C 0.21012 0.4308 0.32873 0.0
C3297 C 0.24548 0.42651 0.3154 0.0
C3298 C 0.24001 0.43775 0.31518 0.0
C3299 C 0.22848 0.43882 0.31939 0.0
C3300 C 0.24603 0.44848 0.31047 0.0
C3301 C 0.25764 0.42467 0.31052 0.0
C3302 C 0.25672 0.45274 0.31566 0.0
C3303 C 0.26234 0.46284 0.31116 0.0
C3304 C 0.25735 0.46896 0.30141 0.0
C3305 C 0.24654 0.46474 0.29637 0.0
C3306 C 0.24094 0.45465 0.30087 0.0
H3307 H 0.25923 0.41518 0.30847 0.0
H3308 H 0.25886 0.42992 0.30232 0.0
H3309 H 0.26443 0.42765 0.31723 0.0
H3310 H 0.2607 0.44828 0.32323 0.0
H3311 H 0.27066 0.46575 0.31525 0.0
H3312 H 0.1273 0.7101 0.32861 0.0
H3313 H 0.10972 0.72124 0.32248 0.0
H3314 H 0.10232 0.69584 0.29438 0.0
H3315 H 0.11979 0.68452 0.30057 0.0
H3316 H 0.1043 0.73133 0.29949 0.0
H3317 H 0.07093 0.6976 0.31273 0.0
H3318 H 0.08612 0.69744 0.31816 0.0
H3319 H 0.08241 0.69227 0.30338 0.0
C3320 C 0.12187 0.70682 0.32119 0.0
C3321 C 0.12491 0.69637 0.31513 0.0
C3322 C 0.11187 0.71324 0.31766 0.0
C3323 C 0.10463 0.70929 0.30807 0.0
C3324 C 0.10769 0.69895 0.3019 0.0
H3325 H 0.03915 0.73412 0.27531 0.0
H3326 H 0.05696 0.72333 0.28101 0.0
C3327 C 0.11774 0.69256 0.30539 0.0
C3328 C 0.09395 0.71608 0.30446 0.0
H3329 H 0.06375 0.71436 0.30243 0.0
C3330 C 0.09542 0.72765 0.30016 0.0
C3331 C 0.0824 0.71124 0.30532 0.0
C3332 C 0.08029 0.69899 0.31023 0.0
C3333 C 0.08564 0.73445 0.29648 0.0
C3334 C 0.07406 0.72964 0.29741 0.0
C3335 C 0.07262 0.71806 0.30172 0.0
C3336 C 0.06332 0.73642 0.29387 0.0
C3337 C 0.08785 0.74659 0.29134 0.0
C3338 C 0.06085 0.74734 0.29928 0.0
C3339 C 0.0507 0.75365 0.29593 0.0
C3340 C 0.04271 0.74911 0.28716 0.0
C3341 C 0.04515 0.73805 0.28191 0.0
C3342 C 0.05531 0.73179 0.28524 0.0
H3343 H 0.09703 0.74755 0.28814 0.0
H3344 H 0.08156 0.7484 0.28384 0.0
H3345 H 0.08661 0.75341 0.29834 0.0
H3346 H 0.06674 0.75098 0.30616 0.0
H3347 H 0.04921 0.76212 0.30015 0.0
H3348 H 0.83012 0.61173 0.30473 0.0
H3349 H 0.82079 0.59279 0.299 0.0
H3350 H 0.79255 0.59924 0.32314 0.0
H3351 H 0.80196 0.61812 0.32916 0.0
H3352 H 0.81446 0.57322 0.31522 0.0
H3353 H 0.77596 0.59184 0.2899 0.0
H3354 H 0.78931 0.60043 0.293 0.0
H3355 H 0.77916 0.59752 0.30464 0.0
C3356 C 0.82199 0.6091 0.30892 0.0
C3357 C 0.8168 0.61648 0.31741 0.0
C3358 C 0.81664 0.5983 0.30559 0.0
C3359 C 0.80595 0.59469 0.31058 0.0
C3360 C 0.80072 0.60197 0.31907 0.0
H3361 H 0.76523 0.53125 0.28597 0.0
H3362 H 0.77096 0.54862 0.2983 0.0
C3363 C 0.8061 0.61277 0.32245 0.0
C3364 C 0.80042 0.58321 0.30692 0.0
H3365 H 0.77785 0.5711 0.28989 0.0
C3366 C 0.80638 0.57273 0.3098 0.0
C3367 C 0.78981 0.58262 0.29999 0.0
C3368 C 0.78315 0.59367 0.29661 0.0
C3369 C 0.80222 0.56167 0.30556 0.0
C3370 C 0.79199 0.56113 0.29803 0.0
C3371 C 0.78569 0.57155 0.29566 0.0
C3372 C 0.7886 0.55016 0.29136 0.0
C3373 C 0.80895 0.55068 0.309 0.0
C3374 C 0.79657 0.54535 0.28337 0.0
C3375 C 0.79334 0.53554 0.27637 0.0
C3376 C 0.78202 0.53033 0.27712 0.0
C3377 C 0.77404 0.53503 0.28525 0.0
C3378 C 0.77729 0.54495 0.29226 0.0
H3379 H 0.81378 0.55192 0.31766 0.0
H3380 H 0.80295 0.54284 0.3096 0.0
H3381 H 0.8156 0.54881 0.30217 0.0
H3382 H 0.80524 0.54938 0.28232 0.0
H3383 H 0.79971 0.53218 0.2702 0.0
H3384 H 0.90734 0.31795 0.31951 0.0
H3385 H 0.92424 0.30656 0.31266 0.0
H3386 H 0.92032 0.28233 0.3418 0.0
H3387 H 0.90336 0.29359 0.34866 0.0
H3388 H 0.94585 0.30124 0.32736 0.0
H3389 H 0.92119 0.2611 0.31082 0.0
H3390 H 0.91415 0.27528 0.31266 0.0
H3391 H 0.91777 0.26645 0.32542 0.0
C3392 C 0.91 0.31013 0.32438 0.0
C3393 C 0.90401 0.30666 0.33462 0.0
C3394 C 0.91968 0.30368 0.3205 0.0
C3395 C 0.92344 0.29357 0.32668 0.0
C3396 C 0.91747 0.29004 0.33686 0.0
H3397 H 0.97924 0.24271 0.31266 0.0
H3398 H 0.96255 0.25321 0.32108 0.0
C3399 C 0.90785 0.29654 0.3408 0.0
C3400 C 0.93383 0.28691 0.32266 0.0
H3401 H 0.94204 0.26064 0.31025 0.0
C3402 C 0.94504 0.29237 0.32361 0.0
C3403 C 0.93272 0.2753 0.3179 0.0
C3404 C 0.92082 0.26915 0.31653 0.0
C3405 C 0.95523 0.2865 0.31994 0.0
C3406 C 0.95411 0.27498 0.31489 0.0
C3407 C 0.94289 0.26947 0.3141 0.0
C3408 C 0.96439 0.26869 0.30999 0.0
C3409 C 0.9671 0.29263 0.32171 0.0
C3410 C 0.9709 0.27384 0.30088 0.0
C3411 C 0.98051 0.26794 0.29615 0.0
C3412 C 0.98376 0.25664 0.30028 0.0
C3413 C 0.97713 0.25144 0.30935 0.0
C3414 C 0.96753 0.2574 0.31413 0.0
H3415 H 0.96691 0.29943 0.3289 0.0
H3416 H 0.97417 0.28619 0.32393 0.0
H3417 H 0.96944 0.29722 0.31338 0.0
H3418 H 0.96849 0.28243 0.29735 0.0
H3419 H 0.98541 0.27234 0.2893 0.0
H3420 H 0.84438 0.4262 0.73006 0.0
H3421 H 0.83709 0.44443 0.73909 0.0
H3422 H 0.80559 0.4422 0.71661 0.0
H3423 H 0.81296 0.42411 0.7074 0.0
H3424 H 0.81446 0.46414 0.71697 0.0
H3425 H 0.81191 0.44826 0.76333 0.0
H3426 H 0.8264 0.4469 0.75736 0.0
H3427 H 0.81423 0.43836 0.75098 0.0
C3428 C 0.83585 0.42954 0.72713 0.0
C3429 C 0.82923 0.42369 0.71804 0.0
C3430 C 0.83166 0.43994 0.73234 0.0
C3431 C 0.82068 0.4446 0.7287 0.0
C3432 C 0.81407 0.43878 0.7196 0.0
H3433 H 0.77794 0.49702 0.76323 0.0
H3434 H 0.78769 0.47901 0.75666 0.0
C3435 C 0.81831 0.42845 0.71431 0.0
C3436 C 0.8162 0.45576 0.73404 0.0
H3437 H 0.80898 0.46888 0.7603 0.0
C3438 C 0.81325 0.46517 0.72645 0.0
C3439 C 0.8145 0.45706 0.7464 0.0
C3440 C 0.81681 0.44707 0.75499 0.0
C3441 C 0.80865 0.47581 0.73082 0.0
C3442 C 0.80727 0.47726 0.74322 0.0
C3443 C 0.8102 0.46784 0.75083 0.0
C3444 C 0.80218 0.48823 0.74834 0.0
C3445 C 0.80494 0.48522 0.72205 0.0
C3446 C 0.80732 0.49942 0.74631 0.0
C3447 C 0.80169 0.50978 0.74997 0.0
C3448 C 0.79091 0.50913 0.75592 0.0
C3449 C 0.78622 0.49787 0.75866 0.0
C3450 C 0.79178 0.48754 0.75489 0.0
H3451 H 0.80358 0.48151 0.71294 0.0
H3452 H 0.79661 0.48951 0.72472 0.0
H3453 H 0.81198 0.49215 0.7217 0.0
H3454 H 0.81552 0.50018 0.74159 0.0
H3455 H 0.80561 0.51829 0.74782 0.0
H3456 H 0.12632 0.30843 0.69259 0.0
H3457 H 0.10847 0.29823 0.69941 0.0
H3458 H 0.10798 0.32143 0.72998 0.0
H3459 H 0.12558 0.33184 0.72315 0.0
H3460 H 0.1052 0.29596 0.73464 0.0
H3461 H 0.07438 0.31284 0.69932 0.0
H3462 H 0.08797 0.30622 0.69476 0.0
H3463 H 0.08845 0.31999 0.70283 0.0
C3464 C 0.12235 0.31145 0.70071 0.0
C3465 C 0.12741 0.32099 0.70731 0.0
C3466 C 0.11218 0.30558 0.7046 0.0
C3467 C 0.10689 0.30912 0.71516 0.0
C3468 C 0.11196 0.31854 0.72182 0.0
H3469 H 0.04273 0.30612 0.75009 0.0
H3470 H 0.05977 0.30981 0.73776 0.0
C3471 C 0.12207 0.32444 0.71792 0.0
C3472 C 0.09603 0.30315 0.71937 0.0
H3473 H 0.06611 0.30122 0.71433 0.0
C3474 C 0.09666 0.29692 0.73011 0.0
C3475 C 0.08493 0.30448 0.71344 0.0
C3476 C 0.08378 0.31129 0.70198 0.0
C3477 C 0.08642 0.29234 0.73532 0.0
C3478 C 0.07528 0.294 0.72958 0.0
C3479 C 0.07469 0.29986 0.71862 0.0
C3480 C 0.0641 0.29129 0.73568 0.0
C3481 C 0.08751 0.28636 0.74725 0.0
C3482 C 0.06063 0.27959 0.73829 0.0
C3483 C 0.05078 0.27742 0.74533 0.0
C3484 C 0.04436 0.28695 0.74992 0.0
C3485 C 0.04755 0.29859 0.74677 0.0
C3486 C 0.05727 0.30072 0.73969 0.0
H3487 H 0.09665 0.28699 0.75113 0.0
H3488 H 0.08133 0.29039 0.75359 0.0
H3489 H 0.08507 0.27683 0.74624 0.0
H3490 H 0.06575 0.27218 0.73518 0.0
H3491 H 0.04854 0.26837 0.74764 0.0
H3492 H 0.90449 0.73555 0.67959 0.0
H3493 H 0.9232 0.7437 0.6878 0.0
H3494 H 0.92639 0.71373 0.71117 0.0
H3495 H 0.90753 0.7057 0.7034 0.0
H3496 H 0.92948 0.74784 0.71469 0.0
H3497 H 0.95804 0.71645 0.69065 0.0
H3498 H 0.94326 0.72011 0.68544 0.0
H3499 H 0.94531 0.71006 0.6976 0.0
C3500 C 0.90906 0.73074 0.68659 0.0
C3501 C 0.90445 0.7199 0.69078 0.0
C3502 C 0.9198 0.7354 0.69121 0.0
C3503 C 0.9262 0.72926 0.7 0.0
C3504 C 0.92163 0.71853 0.70428 0.0
H3505 H 0.98667 0.72776 0.74404 0.0
H3506 H 0.9696 0.72517 0.73071 0.0
C3507 C 0.91087 0.71392 0.69976 0.0
C3508 C 0.9377 0.73395 0.7048 0.0
H3509 H 0.96712 0.72748 0.70655 0.0
C3510 C 0.93777 0.74356 0.71279 0.0
C3511 C 0.94846 0.72835 0.70223 0.0
C3512 C 0.94887 0.71822 0.69344 0.0
C3513 C 0.94826 0.74724 0.71887 0.0
C3514 C 0.95896 0.74127 0.7167 0.0
C3515 C 0.95894 0.73207 0.70821 0.0
C3516 C 0.96982 0.7432 0.72427 0.0
C3517 C 0.94766 0.75697 0.72809 0.0
C3518 C 0.97584 0.75421 0.72498 0.0
C3519 C 0.98573 0.75577 0.73273 0.0
C3520 C 0.98971 0.74633 0.73985 0.0
C3521 C 0.98384 0.73527 0.73878 0.0
C3522 C 0.97406 0.73374 0.73111 0.0
H3523 H 0.93838 0.75935 0.73003 0.0
H3524 H 0.95219 0.75426 0.7365 0.0
H3525 H 0.95224 0.76503 0.72482 0.0
H3526 H 0.97286 0.76159 0.71962 0.0
H3527 H 0.99007 0.76438 0.73333 0.0
H3528 H 0.73863 0.18872 0.62201 0.0
H3529 H 0.74962 0.1978 0.60589 0.0
H3530 H 0.7261 0.22765 0.60603 0.0
H3531 H 0.71505 0.21863 0.62208 0.0
H3532 H 0.74171 0.20392 0.58338 0.0
H3533 H 0.75868 0.24367 0.60786 0.0
H3534 H 0.75244 0.23097 0.61526 0.0
H3535 H 0.7429 0.24188 0.60858 0.0
C3536 C 0.73578 0.19721 0.61859 0.0
C3537 C 0.72598 0.20297 0.62339 0.0
C3538 C 0.7421 0.20241 0.60941 0.0
C3539 C 0.73881 0.2135 0.60489 0.0
C3540 C 0.729 0.21923 0.60958 0.0
H3541 H 0.74972 0.2468 0.53824 0.0
H3542 H 0.74345 0.23458 0.55476 0.0
C3543 C 0.72268 0.21405 0.61877 0.0
C3544 C 0.74534 0.2189 0.59496 0.0
H3545 H 0.75973 0.24422 0.58665 0.0
C3546 C 0.74577 0.21268 0.58413 0.0
C3547 C 0.75082 0.23023 0.59599 0.0
C3548 C 0.75131 0.23703 0.60759 0.0
C3549 C 0.75106 0.21772 0.57416 0.0
C3550 C 0.75589 0.22935 0.575 0.0
C3551 C 0.75594 0.23534 0.58598 0.0
C3552 C 0.76023 0.23579 0.56446 0.0
C3553 C 0.75138 0.21055 0.56281 0.0
C3554 C 0.77176 0.24061 0.56441 0.0
C3555 C 0.77538 0.24769 0.55496 0.0
C3556 C 0.76749 0.25018 0.54545 0.0
C3557 C 0.75606 0.24505 0.54539 0.0
C3558 C 0.75246 0.23798 0.55481 0.0
H3559 H 0.75095 0.20087 0.56461 0.0
H3560 H 0.74359 0.21279 0.55708 0.0
H3561 H 0.75953 0.21252 0.55784 0.0
H3562 H 0.77787 0.23909 0.57181 0.0
H3563 H 0.78422 0.25154 0.55531 0.0
H3564 H 0.33837 0.18905 0.61592 0.0
H3565 H 0.32824 0.19799 0.59872 0.0
H3566 H 0.31012 0.22177 0.62199 0.0
H3567 H 0.32009 0.21279 0.63926 0.0
H3568 H 0.29549 0.21015 0.60232 0.0
H3569 H 0.33673 0.23277 0.58784 0.0
H3570 H 0.33759 0.21713 0.59085 0.0
H3571 H 0.33508 0.22735 0.60277 0.0
C3572 C 0.33212 0.19609 0.6174 0.0
C3573 C 0.33009 0.20025 0.62898 0.0
C3574 C 0.32639 0.20122 0.60755 0.0
C3575 C 0.31847 0.21057 0.60908 0.0
C3576 C 0.31619 0.21456 0.62062 0.0
H3577 H 0.29566 0.26647 0.56438 0.0
H3578 H 0.30253 0.25302 0.57981 0.0
C3579 C 0.32198 0.20949 0.63047 0.0
C3580 C 0.31301 0.21662 0.59864 0.0
H3581 H 0.31949 0.23558 0.57613 0.0
C3582 C 0.30072 0.21564 0.59651 0.0
C3583 C 0.31987 0.22381 0.59114 0.0
C3584 C 0.33304 0.22545 0.59324 0.0
C3585 C 0.29508 0.22184 0.58716 0.0
C3586 C 0.30194 0.22915 0.57975 0.0
C3587 C 0.31426 0.22992 0.58177 0.0
C3588 C 0.29653 0.23706 0.57062 0.0
C3589 C 0.28181 0.22089 0.58552 0.0
C3590 C 0.29059 0.23258 0.56035 0.0
C3591 C 0.28655 0.24034 0.55142 0.0
C3592 C 0.28852 0.25265 0.55261 0.0
C3593 C 0.2941 0.25704 0.56309 0.0
C3594 C 0.29804 0.24935 0.57196 0.0
H3595 H 0.27762 0.21633 0.59308 0.0
H3596 H 0.27792 0.22984 0.58453 0.0
H3597 H 0.27963 0.21576 0.57728 0.0
H3598 H 0.28944 0.2231 0.55907 0.0
H3599 H 0.28233 0.2367 0.54342 0.0
H3600 H 0.33196 0.83673 0.6113 0.0
H3601 H 0.32649 0.82587 0.59304 0.0
H3602 H 0.30983 0.79854 0.61363 0.0
H3603 H 0.31507 0.80942 0.63193 0.0
H3604 H 0.32513 0.78986 0.59604 0.0
H3605 H 0.29306 0.82231 0.57752 0.0
H3606 H 0.30736 0.82842 0.58167 0.0
H3607 H 0.29799 0.82253 0.59292 0.0
C3608 C 0.32698 0.8285 0.61196 0.0
C3609 C 0.32393 0.82399 0.62312 0.0
C3610 C 0.32389 0.82228 0.6015 0.0
C3611 C 0.31765 0.81145 0.60196 0.0
C3612 C 0.31465 0.80688 0.61306 0.0
H3613 H 0.28158 0.77293 0.54435 0.0
H3614 H 0.28704 0.78365 0.56263 0.0
C3615 C 0.3177 0.8131 0.62353 0.0
C3616 C 0.31445 0.80476 0.5909 0.0
H3617 H 0.29809 0.80626 0.56499 0.0
C3618 C 0.31921 0.79344 0.58925 0.0
C3619 C 0.30663 0.80939 0.58211 0.0
C3620 C 0.30086 0.82128 0.58364 0.0
C3621 C 0.31649 0.78668 0.57897 0.0
C3622 C 0.30889 0.79143 0.57006 0.0
C3623 C 0.304 0.80268 0.57178 0.0
C3624 C 0.30571 0.78477 0.55897 0.0
C3625 C 0.32161 0.77444 0.57781 0.0
C3626 C 0.31438 0.78188 0.55077 0.0
C3627 C 0.31128 0.77581 0.54022 0.0
C3628 C 0.29941 0.77253 0.53763 0.0
C3629 C 0.29076 0.77543 0.54591 0.0
C3630 C 0.29387 0.78152 0.55643 0.0
H3631 H 0.32496 0.77104 0.5865 0.0
H3632 H 0.31488 0.76808 0.57408 0.0
H3633 H 0.32912 0.77477 0.57167 0.0
H3634 H 0.32354 0.78449 0.55244 0.0
H3635 H 0.31816 0.77391 0.53402 0.0
H3636 H 0.68099 0.79562 0.62216 0.0
H3637 H 0.68905 0.78595 0.60466 0.0
H3638 H 0.70666 0.8187 0.59544 0.0
H3639 H 0.69901 0.82822 0.61324 0.0
H3640 H 0.68558 0.7899 0.58224 0.0
H3641 H 0.73342 0.79649 0.59221 0.0
H3642 H 0.72233 0.79946 0.60303 0.0
H3643 H 0.72577 0.81033 0.59192 0.0
C3644 C 0.68667 0.8007 0.61643 0.0
C3645 C 0.68945 0.81263 0.61906 0.0
C3646 C 0.69127 0.79519 0.60644 0.0
C3647 C 0.69865 0.80152 0.5988 0.0
C3648 C 0.70131 0.8135 0.60136 0.0
H3649 H 0.71019 0.78157 0.52536 0.0
H3650 H 0.70275 0.78961 0.54391 0.0
C3651 C 0.69688 0.81896 0.61149 0.0
C3652 C 0.7031 0.7957 0.58792 0.0
H3653 H 0.72808 0.7907 0.57229 0.0
C3654 C 0.6949 0.79 0.58013 0.0
C3655 C 0.71528 0.79561 0.58522 0.0
C3656 C 0.72471 0.80069 0.59361 0.0
C3657 C 0.69847 0.78441 0.56965 0.0
C3658 C 0.71056 0.78492 0.56662 0.0
C3659 C 0.71879 0.79043 0.57451 0.0
C3660 C 0.71487 0.77984 0.55531 0.0
C3661 C 0.68927 0.77782 0.56212 0.0
C3662 C 0.72441 0.77196 0.55547 0.0
C3663 C 0.72884 0.76757 0.54484 0.0
C3664 C 0.72373 0.77088 0.53386 0.0
C3665 C 0.71413 0.77868 0.5337 0.0
C3666 C 0.70984 0.78324 0.54432 0.0
H3667 H 0.68167 0.77488 0.56749 0.0
H3668 H 0.68577 0.78382 0.55512 0.0
H3669 H 0.69306 0.76991 0.55777 0.0
H3670 H 0.72848 0.76922 0.56382 0.0
H3671 H 0.73623 0.76155 0.54519 0.0
H3672 H 0.69244 0.83825 0.40789 0.0
H3673 H 0.70294 0.83141 0.42581 0.0
H3674 H 0.72666 0.81141 0.40422 0.0
H3675 H 0.71624 0.81825 0.38625 0.0
H3676 H 0.70555 0.80881 0.43363 0.0
H3677 H 0.7498 0.82893 0.42639 0.0
H3678 H 0.73677 0.83317 0.4179 0.0
H3679 H 0.74444 0.8198 0.41423 0.0
C3680 C 0.69989 0.83239 0.40695 0.0
C3681 C 0.70351 0.82882 0.39562 0.0
C3682 C 0.70593 0.82854 0.41721 0.0
C3683 C 0.71572 0.82105 0.41638 0.0
C3684 C 0.71934 0.81744 0.40509 0.0
H3685 H 0.75711 0.78068 0.46774 0.0
H3686 H 0.74915 0.79022 0.44979 0.0
C3687 C 0.71334 0.82133 0.39482 0.0
C3688 C 0.72173 0.81655 0.42736 0.0
H3689 H 0.74854 0.81492 0.4421 0.0
C3690 C 0.71494 0.81023 0.43551 0.0
C3691 C 0.73399 0.81837 0.42981 0.0
C3692 C 0.74167 0.82553 0.42168 0.0
C3693 C 0.72008 0.80551 0.44592 0.0
C3694 C 0.73233 0.80728 0.44835 0.0
C3695 C 0.73915 0.81359 0.44022 0.0
C3696 C 0.73816 0.80248 0.45925 0.0
C3697 C 0.7124 0.79841 0.45412 0.0
C3698 C 0.73496 0.80652 0.47052 0.0
C3699 C 0.73951 0.80111 0.4808 0.0
C3700 C 0.74737 0.79157 0.48 0.0
C3701 C 0.75106 0.78798 0.46869 0.0
C3702 C 0.74651 0.79342 0.45841 0.0
H3703 H 0.70387 0.79565 0.44972 0.0
H3704 H 0.71706 0.79036 0.45728 0.0
H3705 H 0.71038 0.80392 0.462 0.0
H3706 H 0.72868 0.81364 0.47136 0.0
H3707 H 0.73652 0.80415 0.48934 0.0
H3708 H 0.71295 0.22127 0.39339 0.0
H3709 H 0.72062 0.23205 0.41092 0.0
H3710 H 0.693 0.21668 0.43183 0.0
H3711 H 0.68568 0.20535 0.41457 0.0
H3712 H 0.71031 0.24862 0.42422 0.0
H3713 H 0.72153 0.21024 0.45269 0.0
H3714 H 0.71796 0.20864 0.43704 0.0
H3715 H 0.70635 0.20994 0.44761 0.0
C3716 C 0.70864 0.21997 0.40177 0.0
C3717 C 0.69871 0.21235 0.40253 0.0
C3718 C 0.71298 0.22625 0.41177 0.0
C3719 C 0.70751 0.22505 0.42276 0.0
C3720 C 0.69755 0.21755 0.42354 0.0
H3721 H 0.71547 0.26063 0.49127 0.0
H3722 H 0.70816 0.2499 0.47348 0.0
C3723 C 0.69326 0.21121 0.41357 0.0
C3724 C 0.712 0.23194 0.43331 0.0
H3725 H 0.72158 0.22921 0.46224 0.0
C3726 C 0.71285 0.24436 0.4325 0.0
C3727 C 0.71536 0.22639 0.44413 0.0
C3728 C 0.71538 0.21306 0.44541 0.0
C3729 C 0.71674 0.25137 0.44225 0.0
C3730 C 0.71986 0.24582 0.45308 0.0
C3731 C 0.71907 0.23343 0.45392 0.0
C3732 C 0.72412 0.25273 0.46363 0.0
C3733 C 0.71734 0.26468 0.441 0.0
C3734 C 0.73549 0.25787 0.46395 0.0
C3735 C 0.7397 0.26396 0.47411 0.0
C3736 C 0.73258 0.26508 0.48412 0.0
C3737 C 0.72111 0.26006 0.48368 0.0
C3738 C 0.71695 0.25387 0.47355 0.0
H3739 H 0.713 0.26772 0.43261 0.0
H3740 H 0.71305 0.26903 0.44862 0.0
H3741 H 0.72675 0.26762 0.44109 0.0
H3742 H 0.74117 0.25703 0.4564 0.0
H3743 H 0.74853 0.26781 0.47414 0.0
H3744 H 0.31682 0.21839 0.39709 0.0
H3745 H 0.3118 0.22974 0.4148 0.0
H3746 H 0.3411 0.21426 0.43419 0.0
H3747 H 0.34598 0.20252 0.41667 0.0
H3748 H 0.30739 0.21886 0.43901 0.0
H3749 H 0.34438 0.25196 0.43812 0.0
H3750 H 0.33916 0.24402 0.42495 0.0
H3751 H 0.34794 0.23656 0.43604 0.0
C3752 C 0.32214 0.21728 0.40513 0.0
C3753 C 0.33181 0.20949 0.40541 0.0
C3754 C 0.31931 0.22385 0.41522 0.0
C3755 C 0.32615 0.2229 0.42573 0.0
C3756 C 0.33581 0.21522 0.42608 0.0
H3757 H 0.32312 0.25722 0.49509 0.0
H3758 H 0.32914 0.24651 0.47727 0.0
C3759 C 0.33861 0.20856 0.41603 0.0
C3760 C 0.32293 0.22968 0.43646 0.0
H3761 H 0.33164 0.25293 0.45435 0.0
C3762 C 0.31266 0.22633 0.44237 0.0
C3763 C 0.3299 0.23931 0.44084 0.0
C3764 C 0.34094 0.24328 0.43467 0.0
C3765 C 0.30921 0.23232 0.45267 0.0
C3766 C 0.31604 0.24216 0.45695 0.0
C3767 C 0.32638 0.24544 0.45105 0.0
C3768 C 0.3126 0.24914 0.46753 0.0
C3769 C 0.29846 0.22783 0.45902 0.0
C3770 C 0.30144 0.25448 0.46787 0.0
C3771 C 0.29797 0.26051 0.47806 0.0
C3772 C 0.30566 0.26153 0.48805 0.0
C3773 C 0.31703 0.25663 0.48751 0.0
C3774 C 0.32045 0.25048 0.47735 0.0
H3775 H 0.29646 0.21838 0.45681 0.0
H3776 H 0.29968 0.2287 0.46881 0.0
H3777 H 0.29065 0.23311 0.45621 0.0
H3778 H 0.29537 0.25391 0.46027 0.0
H3779 H 0.28925 0.26439 0.47813 0.0
H3780 H 0.30327 0.83982 0.39175 0.0
H3781 H 0.29379 0.8317 0.40927 0.0
H3782 H 0.32303 0.80799 0.41481 0.0
H3783 H 0.33241 0.81573 0.39711 0.0
H3784 H 0.28761 0.80671 0.41306 0.0
H3785 H 0.31879 0.82503 0.44766 0.0
H3786 H 0.31752 0.83112 0.43287 0.0
H3787 H 0.32573 0.81778 0.43544 0.0
C3788 C 0.30767 0.83281 0.39661 0.0
C3789 C 0.31864 0.82845 0.39294 0.0
C3790 C 0.30227 0.82825 0.40669 0.0
C3791 C 0.30778 0.81936 0.41342 0.0
C3792 C 0.31873 0.81502 0.40986 0.0
H3793 H 0.29067 0.76473 0.45995 0.0
H3794 H 0.29521 0.77827 0.44387 0.0
C3795 C 0.3241 0.81949 0.39974 0.0
C3796 C 0.30189 0.81418 0.42385 0.0
H3797 H 0.30577 0.8094 0.45364 0.0
C3798 C 0.29146 0.80746 0.42197 0.0
C3799 C 0.30687 0.81527 0.43548 0.0
C3800 C 0.31779 0.82277 0.43806 0.0
C3801 C 0.28626 0.80123 0.43131 0.0
C3802 C 0.29162 0.80178 0.44279 0.0
C3803 C 0.30168 0.80902 0.44482 0.0
C3804 C 0.28789 0.79368 0.45235 0.0
C3805 C 0.27531 0.79375 0.42879 0.0
C3806 C 0.28217 0.79787 0.46246 0.0
C3807 C 0.2794 0.79006 0.47171 0.0
C3808 C 0.28258 0.77805 0.47102 0.0
C3809 C 0.28816 0.77394 0.46079 0.0
C3810 C 0.29073 0.78165 0.45155 0.0
H3811 H 0.2708 0.79625 0.42029 0.0
H3812 H 0.27783 0.78429 0.42818 0.0
H3813 H 0.26897 0.79463 0.43612 0.0
H3814 H 0.27997 0.80716 0.46325 0.0
H3815 H 0.27516 0.79347 0.47951 0.0
H3816 H 0.64558 0.22266 0.68314 0.0
H3817 H 0.62832 0.23319 0.69004 0.0
H3818 H 0.61561 0.2012 0.70651 0.0
H3819 H 0.63326 0.19079 0.70038 0.0
H3820 H 0.60571 0.23031 0.68511 0.0
H3821 H 0.61261 0.22396 0.73348 0.0
H3822 H 0.62379 0.22039 0.72294 0.0
H3823 H 0.61184 0.21009 0.72559 0.0
C3824 C 0.63928 0.21789 0.68846 0.0
C3825 C 0.64096 0.20585 0.69128 0.0
C3826 C 0.62931 0.22392 0.6923 0.0
C3827 C 0.62072 0.21809 0.699 0.0
C3828 C 0.62224 0.20602 0.70163 0.0
H3829 H 0.54845 0.24221 0.70704 0.0
H3830 H 0.56664 0.23295 0.70054 0.0
C3831 C 0.63228 0.20001 0.69793 0.0
C3832 C 0.61004 0.22455 0.7029 0.0
H3833 H 0.59361 0.23093 0.72713 0.0
C3834 C 0.60312 0.23051 0.69432 0.0
C3835 C 0.60673 0.22502 0.71494 0.0
C3836 C 0.61421 0.21963 0.72478 0.0
C3837 C 0.59291 0.2367 0.69739 0.0
C3838 C 0.58925 0.23664 0.70933 0.0
C3839 C 0.5963 0.23088 0.71795 0.0
C3840 C 0.57817 0.24246 0.71311 0.0
C3841 C 0.58631 0.24346 0.68782 0.0
C3842 C 0.57846 0.25065 0.72258 0.0
C3843 C 0.56801 0.25581 0.72644 0.0
C3844 C 0.55705 0.25296 0.72086 0.0
C3845 C 0.55678 0.2448 0.71135 0.0
C3846 C 0.5672 0.23951 0.7076 0.0
H3847 H 0.5922 0.24586 0.68043 0.0
H3848 H 0.57902 0.23779 0.68405 0.0
H3849 H 0.58245 0.25171 0.69139 0.0
H3850 H 0.58678 0.25306 0.72702 0.0
H3851 H 0.5685 0.26209 0.73376 0.0
H3852 H 0.34817 0.11017 0.70067 0.0
H3853 H 0.34056 0.0931 0.71153 0.0
H3854 H 0.31583 0.11564 0.72908 0.0
H3855 H 0.32355 0.13285 0.71849 0.0
H3856 H 0.33961 0.09065 0.73729 0.0
H3857 H 0.29524 0.08776 0.71473 0.0
H3858 H 0.30756 0.0957 0.70846 0.0
H3859 H 0.29963 0.10213 0.72047 0.0
C3860 C 0.34117 0.11155 0.7069 0.0
C3861 C 0.33649 0.12293 0.70868 0.0
C3862 C 0.33679 0.10176 0.71305 0.0
C3863 C 0.32756 0.10309 0.72102 0.0
C3864 C 0.32283 0.11439 0.72282 0.0
H3865 H 0.28819 0.0531 0.76403 0.0
H3866 H 0.29588 0.07083 0.75427 0.0
C3867 C 0.32724 0.12421 0.71672 0.0
C3868 C 0.32307 0.09269 0.72762 0.0
H3869 H 0.29876 0.0748 0.73081 0.0
C3870 C 0.33069 0.08715 0.73587 0.0
C3871 C 0.31141 0.08822 0.7258 0.0
C3872 C 0.30297 0.09367 0.71683 0.0
C3873 C 0.32691 0.07732 0.74246 0.0
C3874 C 0.31529 0.07271 0.74051 0.0
C3875 C 0.30766 0.07832 0.7323 0.0
C3876 C 0.3109 0.06201 0.74678 0.0
C3877 C 0.33533 0.07214 0.75162 0.0
C3878 C 0.31673 0.05113 0.74578 0.0
C3879 C 0.31237 0.041 0.75139 0.0
C3880 C 0.30198 0.04149 0.75799 0.0
C3881 C 0.29615 0.0524 0.75894 0.0
C3882 C 0.30055 0.06254 0.75339 0.0
H3883 H 0.34228 0.07868 0.75452 0.0
H3884 H 0.33056 0.06908 0.75955 0.0
H3885 H 0.33983 0.06441 0.74768 0.0
H3886 H 0.32454 0.05041 0.74046 0.0
H3887 H 0.31695 0.03271 0.75028 0.0
H3888 H 0.40527 0.84675 0.70261 0.0
H3889 H 0.42264 0.83934 0.7136 0.0
H3890 H 0.40055 0.81398 0.73142 0.0
H3891 H 0.3831 0.82149 0.72066 0.0
H3892 H 0.41712 0.82652 0.74668 0.0
H3893 H 0.43839 0.80699 0.70725 0.0
H3894 H 0.43436 0.82231 0.70589 0.0
H3895 H 0.42299 0.81113 0.70713 0.0
C3896 C 0.40409 0.83966 0.70894 0.0
C3897 C 0.39279 0.83467 0.71071 0.0
C3898 C 0.41404 0.83537 0.71513 0.0
C3899 C 0.41291 0.82601 0.7232 0.0
C3900 C 0.40163 0.82116 0.72517 0.0
H3901 H 0.46669 0.7804 0.75345 0.0
H3902 H 0.44957 0.789 0.74319 0.0
C3903 C 0.39168 0.82541 0.71895 0.0
C3904 C 0.42347 0.82124 0.72961 0.0
H3905 H 0.44942 0.80672 0.72542 0.0
C3906 C 0.4242 0.8222 0.74205 0.0
C3907 C 0.43262 0.8155 0.72354 0.0
C3908 C 0.43207 0.8138 0.71023 0.0
C3909 C 0.4339 0.81767 0.74858 0.0
C3910 C 0.44314 0.81211 0.74249 0.0
C3911 C 0.44236 0.81107 0.73006 0.0
C3912 C 0.45355 0.80701 0.74887 0.0
C3913 C 0.43406 0.81863 0.76195 0.0
C3914 C 0.46155 0.81429 0.7554 0.0
C3915 C 0.47145 0.80941 0.76123 0.0
C3916 C 0.47357 0.79714 0.7606 0.0
C3917 C 0.46549 0.78989 0.75402 0.0
C3918 C 0.45564 0.79479 0.74819 0.0
H3919 H 0.42518 0.82073 0.76537 0.0
H3920 H 0.43713 0.81024 0.76606 0.0
H3921 H 0.4403 0.82583 0.76483 0.0
H3922 H 0.46023 0.82379 0.75587 0.0
H3923 H 0.47753 0.8153 0.76604 0.0
H3924 H 0.70074 0.88296 0.70968 0.0
H3925 H 0.70838 0.9005 0.72043 0.0
H3926 H 0.68341 0.92238 0.70129 0.0
H3927 H 0.67589 0.90491 0.69029 0.0
H3928 H 0.70674 0.93174 0.70246 0.0
H3929 H 0.69138 0.91847 0.74694 0.0
H3930 H 0.7 0.90749 0.73958 0.0
H3931 H 0.68581 0.91156 0.73336 0.0
C3932 C 0.69693 0.89151 0.70768 0.0
C3933 C 0.68768 0.89253 0.69914 0.0
C3934 C 0.70122 0.90151 0.71393 0.0
C3935 C 0.69633 0.9127 0.71179 0.0
C3936 C 0.68723 0.91379 0.70315 0.0
H3937 H 0.70801 0.97687 0.75464 0.0
H3938 H 0.6992 0.95981 0.74394 0.0
C3939 C 0.68291 0.9038 0.69692 0.0
C3940 C 0.70087 0.92332 0.7184 0.0
H3941 H 0.70438 0.93521 0.74629 0.0
C3942 C 0.70618 0.93253 0.71203 0.0
C3943 C 0.7 0.92439 0.73088 0.0
C3944 C 0.69389 0.91501 0.73811 0.0
C3945 C 0.7109 0.94267 0.71784 0.0
C3946 C 0.71041 0.94354 0.73036 0.0
C3947 C 0.70483 0.93446 0.73671 0.0
C3948 C 0.71577 0.95374 0.73703 0.0
C3949 C 0.71631 0.9524 0.71052 0.0
C3950 C 0.72802 0.95584 0.73689 0.0
C3951 C 0.7331 0.96551 0.74305 0.0
C3952 C 0.72602 0.97331 0.74953 0.0
C3953 C 0.71375 0.97104 0.74983 0.0
C3954 C 0.70868 0.96132 0.74367 0.0
H3955 H 0.71335 0.95179 0.70104 0.0
H3956 H 0.71399 0.96128 0.71403 0.0
H3957 H 0.72609 0.95164 0.71094 0.0
H3958 H 0.73369 0.94994 0.73205 0.0
H3959 H 0.74259 0.96679 0.74282 0.0
H3960 H 0.61696 0.82595 0.30558 0.0
H3961 H 0.59906 0.81548 0.29853 0.0
H3962 H 0.59993 0.79374 0.3299 0.0
H3963 H 0.6182 0.80377 0.33677 0.0
H3964 H 0.59478 0.78062 0.31013 0.0
H3965 H 0.56615 0.82012 0.31067 0.0
H3966 H 0.57891 0.82226 0.30174 0.0
H3967 H 0.58078 0.82011 0.31752 0.0
C3968 C 0.61345 0.81886 0.31095 0.0
C3969 C 0.61906 0.81577 0.3218 0.0
C3970 C 0.60309 0.81298 0.30697 0.0
C3971 C 0.59798 0.80398 0.3138 0.0
C3972 C 0.60364 0.80073 0.32453 0.0
H3973 H 0.52556 0.77933 0.29805 0.0
H3974 H 0.54358 0.78668 0.30832 0.0
C3975 C 0.61404 0.80656 0.32849 0.0
C3976 C 0.58683 0.79789 0.30966 0.0
H3977 H 0.55833 0.80305 0.30039 0.0
C3978 C 0.58678 0.78551 0.30809 0.0
C3979 C 0.5763 0.80422 0.30721 0.0
C3980 C 0.57547 0.81739 0.30949 0.0
C3981 C 0.57662 0.77935 0.30378 0.0
C3982 C 0.56629 0.78577 0.30071 0.0
C3983 C 0.56625 0.79811 0.30263 0.0
C3984 C 0.55552 0.78002 0.29519 0.0
C3985 C 0.57703 0.76602 0.3027 0.0
C3986 C 0.5562 0.77364 0.28448 0.0
C3987 C 0.54591 0.76931 0.27864 0.0
C3988 C 0.53469 0.77143 0.2833 0.0
C3989 C 0.53405 0.77752 0.29421 0.0
C3990 C 0.54435 0.78176 0.30008 0.0
H3991 H 0.5838 0.76225 0.30891 0.0
H3992 H 0.56831 0.76187 0.30452 0.0
H3993 H 0.57949 0.76358 0.29353 0.0
H3994 H 0.56464 0.77241 0.28034 0.0
H3995 H 0.54675 0.76476 0.27021 0.0
H3996 H 0.69284 0.1282 0.31116 0.0
H3997 H 0.70308 0.1109 0.30335 0.0
H3998 H 0.72904 0.11365 0.33204 0.0
H3999 H 0.71872 0.13079 0.34006 0.0
H4000 H 0.72676 0.10956 0.296 0.0
H4001 H 0.71807 0.07863 0.33309 0.0
H4002 H 0.70993 0.09217 0.33093 0.0
H4003 H 0.72463 0.09266 0.33744 0.0
C4004 C 0.70065 0.12504 0.3159 0.0
C4005 C 0.70492 0.13088 0.32627 0.0
C4006 C 0.70653 0.1152 0.31137 0.0
C4007 C 0.71675 0.11089 0.31718 0.0
C4008 C 0.72108 0.1167 0.3275 0.0
H4009 H 0.76648 0.06162 0.28523 0.0
H4010 H 0.75782 0.07847 0.29561 0.0
C4011 C 0.71523 0.12658 0.33201 0.0
C4012 C 0.72299 0.10048 0.31225 0.0
H4013 H 0.73086 0.07188 0.31821 0.0
C4014 C 0.72768 0.10133 0.30086 0.0
C4015 C 0.7241 0.08972 0.31857 0.0
C4016 C 0.71884 0.08814 0.33065 0.0
C4017 C 0.73348 0.09173 0.29563 0.0
C4018 C 0.73475 0.08101 0.30202 0.0
C4019 C 0.73001 0.08014 0.31339 0.0
C4020 C 0.74039 0.07043 0.29674 0.0
C4021 C 0.73794 0.09302 0.28318 0.0
C4022 C 0.73362 0.06013 0.29436 0.0
C4023 C 0.73855 0.05047 0.28847 0.0
C4024 C 0.7504 0.05088 0.28491 0.0
C4025 C 0.75733 0.061 0.28782 0.0
C4026 C 0.75237 0.07068 0.29368 0.0
H4027 H 0.73409 0.10083 0.2786 0.0
H4028 H 0.74771 0.09418 0.28358 0.0
H4029 H 0.7358 0.08495 0.27779 0.0
H4030 H 0.72438 0.05971 0.2967 0.0
H4031 H 0.73295 0.04282 0.28643 0.0
H4032 H 0.40714 0.17864 0.32406 0.0
H4033 H 0.42374 0.18439 0.31172 0.0
H4034 H 0.40321 0.21293 0.29686 0.0
H4035 H 0.38639 0.20704 0.30883 0.0
H4036 H 0.42235 0.18776 0.28433 0.0
H4037 H 0.4361 0.22742 0.31133 0.0
H4038 H 0.42789 0.21517 0.31751 0.0
H4039 H 0.42056 0.22539 0.30773 0.0
C4040 C 0.40606 0.18605 0.31807 0.0
C4041 C 0.39538 0.19237 0.31747 0.0
C4042 C 0.4156 0.18935 0.31108 0.0
C4043 C 0.41469 0.19911 0.30347 0.0
C4044 C 0.40409 0.20543 0.30279 0.0
H4045 H 0.46556 0.23637 0.26033 0.0
H4046 H 0.44805 0.23007 0.27109 0.0
C4047 C 0.39452 0.20209 0.3097 0.0
C4048 C 0.42484 0.20267 0.2962 0.0
H4049 H 0.44654 0.22378 0.29389 0.0
C4050 C 0.42767 0.19562 0.28639 0.0
C4051 C 0.43166 0.21296 0.29891 0.0
C4052 C 0.42901 0.22069 0.30947 0.0
C4053 C 0.43712 0.19869 0.2791 0.0
C4054 C 0.44411 0.2089 0.28191 0.0
C4055 C 0.44121 0.21596 0.29173 0.0
C4056 C 0.4545 0.21244 0.27487 0.0
C4057 C 0.43933 0.19111 0.2683 0.0
C4058 C 0.46397 0.20465 0.27341 0.0
C4059 C 0.47395 0.20822 0.26719 0.0
C4060 C 0.47474 0.21972 0.26248 0.0
C4061 C 0.46525 0.22749 0.26394 0.0
C4062 C 0.45523 0.22389 0.27006 0.0
H4063 H 0.43126 0.18603 0.26541 0.0
H4064 H 0.4423 0.19659 0.26075 0.0
H4065 H 0.44635 0.18463 0.27051 0.0
H4066 H 0.46378 0.1959 0.27732 0.0
H4067 H 0.48121 0.2021 0.26639 0.0
H4068 H 0.33146 0.90486 0.29842 0.0
H4069 H 0.3227 0.92291 0.29005 0.0
H4070 H 0.29819 0.92403 0.31873 0.0
H4071 H 0.30697 0.90617 0.32722 0.0
H4072 H 0.29815 0.92657 0.28301 0.0
H4073 H 0.31363 0.95763 0.31866 0.0
H4074 H 0.3202 0.94328 0.3164 0.0
H4075 H 0.30653 0.94448 0.32412 0.0
C4076 C 0.32428 0.90903 0.30299 0.0
C4077 C 0.31992 0.9041 0.3135 0.0
C4078 C 0.31925 0.91929 0.29817 0.0
C4079 C 0.30991 0.92488 0.30386 0.0
C4080 C 0.30551 0.91995 0.3143 0.0
H4081 H 0.2582 0.97701 0.29905 0.0
H4082 H 0.27259 0.96167 0.30331 0.0
C4083 C 0.31046 0.90968 0.31907 0.0
C4084 C 0.30446 0.93571 0.29884 0.0
H4085 H 0.29759 0.9642 0.30609 0.0
C4086 C 0.29819 0.93489 0.28791 0.0
C4087 C 0.30462 0.94655 0.30523 0.0
C4088 C 0.3117 0.94811 0.3167 0.0
C4089 C 0.29141 0.94441 0.28362 0.0
C4090 C 0.29105 0.95503 0.29036 0.0
C4091 C 0.29785 0.95604 0.30095 0.0
C4092 C 0.28258 0.96459 0.28745 0.0
C4093 C 0.28412 0.94281 0.27228 0.0
C4094 C 0.28345 0.97144 0.27711 0.0
C4095 C 0.27516 0.98032 0.2746 0.0
C4096 C 0.26589 0.98245 0.28242 0.0
C4097 C 0.26518 0.97562 0.2928 0.0
C4098 C 0.27343 0.96683 0.29528 0.0
H4099 H 0.28417 0.93351 0.26896 0.0
H4100 H 0.27481 0.94542 0.27368 0.0
H4101 H 0.28774 0.94864 0.26531 0.0
H4102 H 0.29055 0.96994 0.27102 0.0
H4103 H 0.27596 0.98545 0.26655 0.0
H4104 H 0.72779 0.11898 0.68168 0.0
H4105 H 0.73529 0.10019 0.68951 0.0
H4106 H 0.70607 0.09822 0.71331 0.0
H4107 H 0.69837 0.11684 0.70536 0.0
H4108 H 0.74198 0.09469 0.71322 0.0
H4109 H 0.70512 0.06563 0.69666 0.0
H4110 H 0.70761 0.08039 0.69102 0.0
H4111 H 0.70027 0.07831 0.70485 0.0
C4112 C 0.72288 0.11447 0.68848 0.0
C4113 C 0.71244 0.11939 0.69285 0.0
C4114 C 0.72722 0.10377 0.69299 0.0
C4115 C 0.72115 0.09772 0.70186 0.0
C4116 C 0.71078 0.10264 0.70631 0.0
H4117 H 0.72671 0.03995 0.74894 0.0
H4118 H 0.72182 0.05672 0.73633 0.0
C4119 C 0.70647 0.11335 0.70185 0.0
C4120 C 0.72576 0.08642 0.70676 0.0
H4121 H 0.71799 0.05752 0.71165 0.0
C4122 C 0.73684 0.0865 0.71274 0.0
C4123 C 0.71907 0.07574 0.70604 0.0
C4124 C 0.70741 0.07494 0.6992 0.0
C4125 C 0.74108 0.07636 0.71861 0.0
C4126 C 0.73414 0.06581 0.7183 0.0
C4127 C 0.7233 0.06561 0.71189 0.0
C4128 C 0.73731 0.0553 0.72557 0.0
C4129 C 0.75265 0.07716 0.72559 0.0
C4130 C 0.74762 0.04877 0.72362 0.0
C4131 C 0.75049 0.03907 0.73088 0.0
C4132 C 0.74308 0.03578 0.74019 0.0
C4133 C 0.73267 0.04224 0.74191 0.0
C4134 C 0.72982 0.05184 0.73468 0.0
H4135 H 0.75593 0.08647 0.72657 0.0
H4136 H 0.75168 0.07332 0.73458 0.0
H4137 H 0.75945 0.072 0.72094 0.0
H4138 H 0.75344 0.05118 0.71651 0.0
H4139 H 0.75855 0.03427 0.72931 0.0
H4140 H 0.70553 0.90443 0.32387 0.0
H4141 H 0.71171 0.9225 0.31371 0.0
H4142 H 0.68388 0.91696 0.28722 0.0
H4143 H 0.67736 0.8991 0.29755 0.0
H4144 H 0.71941 0.92531 0.29071 0.0
H4145 H 0.67862 0.95118 0.29759 0.0
H4146 H 0.68181 0.93774 0.30563 0.0
H4147 H 0.67612 0.93699 0.29058 0.0
C4148 C 0.7006 0.90713 0.31597 0.0
C4149 C 0.69088 0.90033 0.3116 0.0
C4150 C 0.70421 0.91742 0.31012 0.0
C4151 C 0.69815 0.9212 0.2998 0.0
C4152 C 0.68856 0.91436 0.29529 0.0
H4153 H 0.7086 0.98239 0.25362 0.0
H4154 H 0.70176 0.96377 0.26235 0.0
C4155 C 0.68493 0.90406 0.30114 0.0
C4156 C 0.70204 0.93219 0.29368 0.0
H4157 H 0.69299 0.9598 0.28526 0.0
C4158 C 0.71364 0.93285 0.28953 0.0
C4159 C 0.69449 0.94203 0.29211 0.0
C4160 C 0.6821 0.94204 0.2968 0.0
C4161 C 0.71788 0.94304 0.2838 0.0
C4162 C 0.71037 0.95292 0.28235 0.0
C4163 C 0.69873 0.95221 0.28636 0.0
C4164 C 0.71456 0.9642 0.277 0.0
C4165 C 0.73031 0.94308 0.27922 0.0
C4166 C 0.72391 0.97073 0.28241 0.0
C4167 C 0.72779 0.9814 0.27749 0.0
C4168 C 0.72239 0.98585 0.26704 0.0
C4169 C 0.71293 0.97932 0.2617 0.0
C4170 C 0.70903 0.96864 0.26665 0.0
H4171 H 0.73368 0.93393 0.2781 0.0
H4172 H 0.73073 0.94772 0.27056 0.0
H4173 H 0.73629 0.94782 0.28568 0.0
H4174 H 0.72812 0.96763 0.29056 0.0
H4175 H 0.73491 0.98625 0.28203 0.0
H4176 H 0.6093 0.19732 0.3361 0.0
H4177 H 0.59126 0.2055 0.32716 0.0
H4178 H 0.61171 0.22166 0.29967 0.0
H4179 H 0.62989 0.21398 0.30886 0.0
H4180 H 0.5945 0.23665 0.30815 0.0
H4181 H 0.57533 0.19217 0.29711 0.0
H4182 H 0.57903 0.19443 0.31257 0.0
H4183 H 0.59058 0.19427 0.30189 0.0
C4184 C 0.61002 0.20273 0.32824 0.0
C4185 C 0.6211 0.2049 0.32317 0.0
C4186 C 0.59965 0.20731 0.32306 0.0
C4187 C 0.60009 0.21404 0.31263 0.0
C4188 C 0.61114 0.21644 0.30769 0.0
H4189 H 0.54877 0.22531 0.25785 0.0
H4190 H 0.56509 0.22026 0.27124 0.0
C4191 C 0.62152 0.21192 0.31288 0.0
C4192 C 0.58905 0.21832 0.30665 0.0
H4193 H 0.56351 0.20868 0.29258 0.0
C4194 C 0.58767 0.23056 0.3048 0.0
C4195 C 0.58018 0.21034 0.30223 0.0
C4196 C 0.58135 0.19707 0.30344 0.0
C4197 C 0.57779 0.235 0.29845 0.0
C4198 C 0.56898 0.22701 0.29399 0.0
C4199 C 0.57023 0.21481 0.2961 0.0
C4200 C 0.55909 0.23083 0.28595 0.0
C4201 C 0.5771 0.24815 0.29614 0.0
C4202 C 0.55024 0.23859 0.28971 0.0
C4203 C 0.54079 0.24159 0.28195 0.0
C4204 C 0.54001 0.23678 0.27039 0.0
C4205 C 0.54898 0.22914 0.2667 0.0
C4206 C 0.55837 0.22622 0.27436 0.0
H4207 H 0.58558 0.25283 0.29841 0.0
H4208 H 0.57473 0.24982 0.28667 0.0
H4209 H 0.57008 0.25201 0.30163 0.0
H4210 H 0.55053 0.24214 0.29867 0.0
H4211 H 0.534 0.24747 0.28507 0.0
H4212 H 0.32148 0.11967 0.32034 0.0
H4213 H 0.30958 0.10246 0.3138 0.0
H4214 H 0.28532 0.10866 0.34202 0.0
H4215 H 0.29728 0.12579 0.3488 0.0
H4216 H 0.30347 0.08186 0.32757 0.0
H4217 H 0.2639 0.10652 0.31144 0.0
H4218 H 0.27818 0.11362 0.31396 0.0
H4219 H 0.26912 0.10997 0.32631 0.0
C4220 C 0.31367 0.11734 0.32524 0.0
C4221 C 0.31035 0.12415 0.33511 0.0
C4222 C 0.30685 0.10753 0.32144 0.0
C4223 C 0.29651 0.10438 0.32734 0.0
C4224 C 0.29316 0.11108 0.33721 0.0
H4225 H 0.24386 0.04823 0.31352 0.0
H4226 H 0.25514 0.06512 0.32187 0.0
C4227 C 0.3 0.12088 0.34106 0.0
C4228 C 0.28938 0.09391 0.32327 0.0
H4229 H 0.26258 0.08559 0.31092 0.0
C4230 C 0.29453 0.08266 0.32393 0.0
C4231 C 0.2777 0.09499 0.3186 0.0
C4232 C 0.27188 0.10692 0.31742 0.0
C4233 C 0.28829 0.07243 0.32007 0.0
C4234 C 0.27668 0.07353 0.31516 0.0
C4235 C 0.27148 0.08477 0.31466 0.0
C4236 C 0.26992 0.06316 0.31022 0.0
C4237 C 0.29413 0.06053 0.32145 0.0
C4238 C 0.27441 0.05653 0.3008 0.0
C4239 C 0.26804 0.04681 0.29607 0.0
C4240 C 0.25695 0.04356 0.30057 0.0
C4241 C 0.25242 0.05033 0.30993 0.0
C4242 C 0.25883 0.06005 0.31468 0.0
H4243 H 0.30129 0.0608 0.32842 0.0
H4244 H 0.28759 0.05353 0.32376 0.0
H4245 H 0.29817 0.05801 0.31293 0.0
H4246 H 0.28283 0.05891 0.29704 0.0
H4247 H 0.2719 0.04179 0.28897 0.0
H4248 H 0.38714 0.81665 0.29941 0.0
H4249 H 0.40481 0.80966 0.28957 0.0
H4250 H 0.42696 0.82737 0.31613 0.0
H4251 H 0.40935 0.83463 0.32591 0.0
H4252 H 0.42361 0.82393 0.28035 0.0
H4253 H 0.43946 0.79287 0.3153 0.0
H4254 H 0.42451 0.79836 0.31465 0.0
H4255 H 0.4364 0.80766 0.32033 0.0
C4256 C 0.39575 0.81913 0.30315 0.0
C4257 C 0.39678 0.82623 0.31347 0.0
C4258 C 0.40585 0.81507 0.29753 0.0
C4259 C 0.41719 0.81791 0.30217 0.0
C4260 C 0.41828 0.82491 0.31251 0.0
H4261 H 0.48458 0.81214 0.26654 0.0
H4262 H 0.46701 0.81932 0.27645 0.0
C4263 C 0.40819 0.82902 0.31811 0.0
C4264 C 0.42785 0.81379 0.296 0.0
H4265 H 0.45206 0.79609 0.29913 0.0
C4266 C 0.42984 0.81784 0.28444 0.0
C4267 C 0.4359 0.80577 0.30133 0.0
C4268 C 0.43397 0.8008 0.31355 0.0
C4269 C 0.43973 0.81419 0.27812 0.0
C4270 C 0.44789 0.80633 0.28353 0.0
C4271 C 0.44584 0.80218 0.29504 0.0
C4272 C 0.45846 0.80208 0.27728 0.0
C4273 C 0.44127 0.81858 0.26562 0.0
C4274 C 0.45953 0.78999 0.27455 0.0
C4275 C 0.46953 0.78586 0.26882 0.0
C4276 C 0.47875 0.79371 0.26579 0.0
C4277 C 0.47762 0.80584 0.26855 0.0
C4278 C 0.46758 0.80998 0.27425 0.0
H4279 H 0.43301 0.82247 0.26186 0.0
H4280 H 0.44831 0.82554 0.26565 0.0
H4281 H 0.44404 0.81125 0.2597 0.0
H4282 H 0.45258 0.78375 0.27679 0.0
H4283 H 0.46995 0.7765 0.2667 0.0
H4284 H 0.31884 0.9188 0.68733 0.0
H4285 H 0.30902 0.93621 0.69542 0.0
H4286 H 0.2889 0.91361 0.71838 0.0
H4287 H 0.29866 0.89617 0.71034 0.0
H4288 H 0.28505 0.94237 0.69634 0.0
H4289 H 0.30487 0.93711 0.74166 0.0
H4290 H 0.31012 0.92911 0.72895 0.0
H4291 H 0.29689 0.92427 0.73611 0.0
C4292 C 0.31224 0.91751 0.69401 0.0
C4293 C 0.30962 0.90608 0.69825 0.0
C4294 C 0.30666 0.92748 0.69866 0.0
C4295 C 0.29837 0.92624 0.70765 0.0
C4296 C 0.29546 0.91482 0.71164 0.0
H4297 H 0.2625 0.97775 0.75166 0.0
H4298 H 0.26762 0.95967 0.74092 0.0
C4299 C 0.30106 0.90485 0.70704 0.0
C4300 C 0.29295 0.93691 0.71302 0.0
H4301 H 0.29063 0.95212 0.73918 0.0
C4302 C 0.28626 0.94451 0.70571 0.0
C4303 C 0.29454 0.9397 0.72524 0.0
C4304 C 0.30208 0.93219 0.73345 0.0
C4305 C 0.28104 0.95477 0.71032 0.0
C4306 C 0.28269 0.95758 0.72253 0.0
C4307 C 0.28929 0.94992 0.72984 0.0
C4308 C 0.27815 0.96868 0.72789 0.0
C4309 C 0.27368 0.96243 0.70212 0.0
C4310 C 0.28215 0.9798 0.72399 0.0
C4311 C 0.27921 0.99017 0.73009 0.0
C4312 C 0.27229 0.98963 0.74029 0.0
C4313 C 0.26783 0.97852 0.74383 0.0
C4314 C 0.27078 0.96816 0.73773 0.0
H4315 H 0.27041 0.95739 0.69414 0.0
H4316 H 0.26596 0.96611 0.70674 0.0
H4317 H 0.27921 0.96996 0.69905 0.0
H4318 H 0.28802 0.98043 0.71657 0.0
H4319 H 0.28284 0.99855 0.72713 0.0
H4320 H 0.61204 0.79625 0.68494 0.0
H4321 H 0.59401 0.78795 0.69351 0.0
H4322 H 0.5934 0.81715 0.7184 0.0
H4323 H 0.61122 0.8256 0.70978 0.0
H4324 H 0.59036 0.78136 0.71779 0.0
H4325 H 0.55983 0.81667 0.70278 0.0
H4326 H 0.57411 0.81445 0.69632 0.0
H4327 H 0.57302 0.82228 0.71022 0.0
C4328 C 0.60799 0.80094 0.69217 0.0
C4329 C 0.61304 0.8116 0.69667 0.0
C4330 C 0.59774 0.79617 0.69708 0.0
C4331 C 0.59229 0.80203 0.70646 0.0
C4332 C 0.59737 0.81259 0.71103 0.0
H4333 H 0.53985 0.79682 0.75747 0.0
H4334 H 0.55529 0.80142 0.74351 0.0
C4335 C 0.60762 0.81734 0.70618 0.0
C4336 C 0.58145 0.79707 0.71176 0.0
H4337 H 0.55312 0.80421 0.71846 0.0
C4338 C 0.58213 0.78622 0.71778 0.0
C4339 C 0.57073 0.80341 0.71163 0.0
C4340 C 0.5693 0.81479 0.70479 0.0
C4341 C 0.57259 0.78192 0.72434 0.0
C4342 C 0.56207 0.78859 0.72471 0.0
C4343 C 0.56121 0.79913 0.71818 0.0
C4344 C 0.55242 0.78556 0.73285 0.0
C4345 C 0.57404 0.77065 0.73136 0.0
C4346 C 0.54556 0.77513 0.73141 0.0
C4347 C 0.53665 0.77244 0.73945 0.0
C4348 C 0.53448 0.78015 0.749 0.0
C4349 C 0.54128 0.79065 0.75025 0.0
C4350 C 0.55011 0.79332 0.74226 0.0
H4351 H 0.58332 0.76749 0.73149 0.0
H4352 H 0.57129 0.77203 0.74066 0.0
H4353 H 0.56826 0.76359 0.72734 0.0
H4354 H 0.54711 0.7691 0.7241 0.0
H4355 H 0.53154 0.7643 0.73823 0.0
H4356 H 0.41627 0.21458 0.69539 0.0
H4357 H 0.43466 0.22186 0.70496 0.0
H4358 H 0.43668 0.18999 0.72588 0.0
H4359 H 0.418 0.18292 0.71684 0.0
H4360 H 0.44217 0.20916 0.73923 0.0
H4361 H 0.46752 0.2109 0.69783 0.0
H4362 H 0.45437 0.21965 0.69703 0.0
H4363 H 0.45316 0.20378 0.69849 0.0
C4364 C 0.42054 0.20915 0.70211 0.0
C4365 C 0.41564 0.19809 0.70523 0.0
C4366 C 0.43116 0.21327 0.70747 0.0
C4367 C 0.43723 0.20636 0.71596 0.0
C4368 C 0.43225 0.19544 0.71927 0.0
H4369 H 0.51112 0.22091 0.73626 0.0
H4370 H 0.4926 0.21114 0.72971 0.0
C4371 C 0.4216 0.19135 0.71399 0.0
C4372 C 0.44869 0.21054 0.72147 0.0
H4373 H 0.47655 0.22012 0.71492 0.0
C4374 C 0.44972 0.2115 0.73392 0.0
C4375 C 0.45863 0.21337 0.71458 0.0
C4376 C 0.45843 0.21176 0.70126 0.0
C4377 C 0.46029 0.21547 0.73962 0.0
C4378 C 0.47004 0.21884 0.73269 0.0
C4379 C 0.46908 0.21763 0.72026 0.0
C4380 C 0.48124 0.22391 0.73802 0.0
C4381 C 0.46094 0.21581 0.75302 0.0
C4382 C 0.48108 0.23421 0.74511 0.0
C4383 C 0.49167 0.23972 0.74901 0.0
C4384 C 0.50268 0.23518 0.74572 0.0
C4385 C 0.50282 0.22464 0.73898 0.0
C4386 C 0.49222 0.21907 0.73517 0.0
H4387 H 0.45454 0.20944 0.75688 0.0
H4388 H 0.46997 0.21373 0.75647 0.0
H4389 H 0.45864 0.22484 0.75614 0.0
H4390 H 0.47276 0.23831 0.74721 0.0
H4391 H 0.49119 0.2479 0.75408 0.0
H4392 H 0.72764 0.68783 0.12635 0.0
H4393 H 0.73948 0.69654 0.11067 0.0
H4394 H 0.71552 0.72598 0.10828 0.0
H4395 H 0.70367 0.71735 0.12402 0.0
H4396 H 0.73309 0.70154 0.08775 0.0
H4397 H 0.74733 0.74287 0.11127 0.0
H4398 H 0.74068 0.7305 0.11882 0.0
H4399 H 0.73155 0.74077 0.11067 0.0
C4400 C 0.72488 0.69615 0.12248 0.0
C4401 C 0.71473 0.70192 0.12646 0.0
C4402 C 0.73169 0.70114 0.11355 0.0
C4403 C 0.72851 0.71201 0.10844 0.0
C4404 C 0.71833 0.71775 0.11232 0.0
H4405 H 0.75117 0.75433 0.04978 0.0
H4406 H 0.74136 0.7454 0.06657 0.0
C4407 C 0.71155 0.71279 0.12129 0.0
C4408 C 0.73561 0.71712 0.09875 0.0
H4409 H 0.7508 0.742 0.09047 0.0
C4410 C 0.73706 0.71034 0.08839 0.0
C4411 C 0.7408 0.7286 0.09961 0.0
C4412 C 0.74013 0.73607 0.11073 0.0
C4413 C 0.74327 0.71486 0.07873 0.0
C4414 C 0.74825 0.72642 0.07951 0.0
C4415 C 0.74694 0.73315 0.08991 0.0
C4416 C 0.7545 0.73186 0.06945 0.0
C4417 C 0.74415 0.7074 0.06762 0.0
C4418 C 0.76525 0.72729 0.06558 0.0
C4419 C 0.771 0.73247 0.056 0.0
C4420 C 0.76611 0.74233 0.05011 0.0
C4421 C 0.75536 0.7469 0.05413 0.0
C4422 C 0.74966 0.74175 0.06372 0.0
H4423 H 0.73795 0.69967 0.0676 0.0
H4424 H 0.74227 0.7128 0.05959 0.0
H4425 H 0.7533 0.704 0.06703 0.0
H4426 H 0.76922 0.71976 0.07001 0.0
H4427 H 0.77931 0.72881 0.05329 0.0
H4428 H 0.33562 0.70832 0.11968 0.0
H4429 H 0.32616 0.71647 0.10176 0.0
H4430 H 0.29758 0.69099 0.10427 0.0
H4431 H 0.3069 0.68288 0.12235 0.0
H4432 H 0.31988 0.70343 0.07998 0.0
H4433 H 0.28093 0.72382 0.10109 0.0
H4434 H 0.29412 0.71995 0.10954 0.0
H4435 H 0.28397 0.70855 0.10444 0.0
C4436 C 0.32725 0.70453 0.11652 0.0
C4437 C 0.322 0.69497 0.1225 0.0
C4438 C 0.3219 0.70915 0.10622 0.0
C4439 C 0.31111 0.70441 0.10173 0.0
C4440 C 0.30583 0.69487 0.10765 0.0
H4441 H 0.27061 0.73438 0.04044 0.0
H4442 H 0.27625 0.72059 0.0565 0.0
C4443 C 0.31122 0.69018 0.11792 0.0
C4444 C 0.30562 0.7094 0.09073 0.0
H4445 H 0.28276 0.72649 0.08051 0.0
C4446 C 0.3117 0.70837 0.08007 0.0
C4447 C 0.29487 0.71571 0.09082 0.0
C4448 C 0.28807 0.71718 0.10207 0.0
C4449 C 0.30752 0.71379 0.06959 0.0
C4450 C 0.29711 0.72066 0.06982 0.0
C4451 C 0.29072 0.72122 0.08034 0.0
C4452 C 0.29363 0.72846 0.05973 0.0
C4453 C 0.31441 0.71226 0.0584 0.0
C4454 C 0.30145 0.73747 0.0563 0.0
C4455 C 0.29827 0.74529 0.04725 0.0
C4456 C 0.28714 0.74437 0.04138 0.0
C4457 C 0.27928 0.73527 0.04473 0.0
C4458 C 0.28248 0.72742 0.05391 0.0
H4459 H 0.31948 0.70388 0.05855 0.0
H4460 H 0.30847 0.71225 0.05038 0.0
H4461 H 0.32085 0.71972 0.05768 0.0
H4462 H 0.30999 0.73863 0.0608 0.0
H4463 H 0.30457 0.75217 0.04496 0.0
H4464 H 0.31927 0.30454 0.13182 0.0
H4465 H 0.3121 0.29577 0.11301 0.0
H4466 H 0.33873 0.3155 0.09438 0.0
H4467 H 0.34569 0.32455 0.11317 0.0
H4468 H 0.31841 0.31767 0.08346 0.0
H4469 H 0.32415 0.26996 0.09238 0.0
H4470 H 0.31538 0.27673 0.10353 0.0
H4471 H 0.3306 0.28134 0.10197 0.0
C4472 C 0.3237 0.30687 0.12374 0.0
C4473 C 0.33304 0.31524 0.12398 0.0
C4474 C 0.31966 0.30178 0.11297 0.0
C4475 C 0.32501 0.30476 0.10225 0.0
C4476 C 0.33447 0.313 0.10252 0.0
H4477 H 0.30076 0.27004 0.03477 0.0
H4478 H 0.31353 0.27613 0.05189 0.0
C4479 C 0.33842 0.3182 0.11326 0.0
C4480 C 0.32011 0.30009 0.09068 0.0
H4481 H 0.31039 0.2748 0.07633 0.0
C4482 C 0.31684 0.30827 0.08186 0.0
C4483 C 0.31824 0.28781 0.08841 0.0
C4484 C 0.32241 0.27846 0.09703 0.0
C4485 C 0.31124 0.3046 0.07116 0.0
C4486 C 0.3085 0.29242 0.06932 0.0
C4487 C 0.31232 0.28415 0.07782 0.0
C4488 C 0.30087 0.28832 0.05908 0.0
C4489 C 0.30821 0.31385 0.06197 0.0
C4490 C 0.28945 0.2929 0.05762 0.0
C4491 C 0.28224 0.28953 0.04791 0.0
C4492 C 0.28619 0.28134 0.03945 0.0
C4493 C 0.29749 0.27641 0.04109 0.0
C4494 C 0.30478 0.27988 0.05086 0.0
H4495 H 0.31426 0.32168 0.06281 0.0
H4496 H 0.3087 0.3102 0.05281 0.0
H4497 H 0.29907 0.31698 0.06333 0.0
H4498 H 0.28609 0.29915 0.06402 0.0
H4499 H 0.27352 0.29338 0.04707 0.0
H4500 H 0.69058 0.33683 0.10757 0.0
H4501 H 0.69947 0.32791 0.09018 0.0
H4502 H 0.72685 0.31281 0.11261 0.0
H4503 H 0.71764 0.32114 0.13013 0.0
H4504 H 0.72101 0.33068 0.08071 0.0
H4505 H 0.7149 0.28388 0.09457 0.0
H4506 H 0.70795 0.29606 0.10203 0.0
H4507 H 0.72325 0.29274 0.10519 0.0
C4508 C 0.6984 0.33148 0.10885 0.0
C4509 C 0.70329 0.3296 0.12031 0.0
C4510 C 0.70354 0.32647 0.09887 0.0
C4511 C 0.71369 0.31948 0.1001 0.0
C4512 C 0.71885 0.31792 0.11146 0.0
H4513 H 0.7565 0.28332 0.04799 0.0
H4514 H 0.74933 0.29309 0.0659 0.0
C4515 C 0.71366 0.32285 0.12147 0.0
C4516 C 0.71884 0.31387 0.08946 0.0
H4517 H 0.72613 0.28713 0.07735 0.0
C4518 C 0.72211 0.32115 0.07997 0.0
C4519 C 0.72024 0.30143 0.08848 0.0
C4520 C 0.7163 0.29305 0.09805 0.0
C4521 C 0.72679 0.31634 0.06959 0.0
C4522 C 0.72821 0.30394 0.06866 0.0
C4523 C 0.72507 0.29665 0.07815 0.0
C4524 C 0.73266 0.29831 0.05776 0.0
C4525 C 0.73027 0.32453 0.05969 0.0
C4526 C 0.7256 0.29797 0.04732 0.0
C4527 C 0.72964 0.29236 0.03711 0.0
C4528 C 0.74084 0.28705 0.03715 0.0
C4529 C 0.74791 0.28746 0.04764 0.0
C4530 C 0.74381 0.29298 0.05788 0.0
H4531 H 0.73065 0.33396 0.06262 0.0
H4532 H 0.73904 0.32205 0.05626 0.0
H4533 H 0.72367 0.32366 0.05225 0.0
H4534 H 0.71692 0.30196 0.0471 0.0
H4535 H 0.72405 0.29227 0.02915 0.0
H4536 H 0.70036 0.33967 0.90657 0.0
H4537 H 0.71042 0.33189 0.92433 0.0
H4538 H 0.73649 0.31557 0.90246 0.0
H4539 H 0.72646 0.32326 0.88464 0.0
H4540 H 0.71463 0.30861 0.9304 0.0
H4541 H 0.75697 0.33369 0.92708 0.0
H4542 H 0.74382 0.33747 0.91853 0.0
H4543 H 0.75286 0.32534 0.91394 0.0
C4544 C 0.70821 0.33439 0.90552 0.0
C4545 C 0.71261 0.33212 0.89415 0.0
C4546 C 0.71399 0.33 0.91569 0.0
C4547 C 0.72431 0.32329 0.91475 0.0
C4548 C 0.7287 0.32095 0.90344 0.0
H4549 H 0.75432 0.27671 0.96882 0.0
H4550 H 0.74484 0.28514 0.95106 0.0
C4551 C 0.72295 0.32536 0.89325 0.0
C4552 C 0.73024 0.31843 0.9256 0.0
H4553 H 0.75642 0.31843 0.94154 0.0
C4554 C 0.72376 0.31078 0.93286 0.0
C4555 C 0.74211 0.32138 0.92887 0.0
C4556 C 0.74933 0.33001 0.92177 0.0
C4557 C 0.72887 0.30586 0.94319 0.0
C4558 C 0.74085 0.30851 0.94627 0.0
C4559 C 0.74728 0.31631 0.93912 0.0
C4560 C 0.74683 0.30338 0.95695 0.0
C4561 C 0.72133 0.29802 0.95084 0.0
C4562 C 0.75141 0.31085 0.96604 0.0
C4563 C 0.7569 0.30606 0.97619 0.0
C4564 C 0.75799 0.29371 0.97743 0.0
C4565 C 0.75357 0.28626 0.96821 0.0
C4566 C 0.74808 0.29106 0.95806 0.0
H4567 H 0.71172 0.29938 0.94902 0.0
H4568 H 0.72329 0.28859 0.94894 0.0
H4569 H 0.72326 0.29974 0.96043 0.0
H4570 H 0.7506 0.32039 0.96534 0.0
H4571 H 0.76023 0.31206 0.98309 0.0
H4572 H 0.72204 0.72898 0.89807 0.0
H4573 H 0.72995 0.74048 0.91507 0.0
H4574 H 0.70524 0.72305 0.9379 0.0
H4575 H 0.69743 0.71131 0.92104 0.0
H4576 H 0.70682 0.74878 0.94044 0.0
H4577 H 0.75064 0.72683 0.94291 0.0
H4578 H 0.74617 0.73239 0.92856 0.0
H4579 H 0.738 0.72038 0.93497 0.0
C4580 C 0.71838 0.72746 0.90673 0.0
C4581 C 0.70911 0.71915 0.90816 0.0
C4582 C 0.72288 0.73409 0.91643 0.0
C4583 C 0.71822 0.73256 0.92776 0.0
C4584 C 0.70893 0.72438 0.92922 0.0
H4585 H 0.74862 0.75297 0.99603 0.0
H4586 H 0.73872 0.74301 0.97914 0.0
C4587 C 0.70445 0.71771 0.91955 0.0
C4588 C 0.7231 0.73942 0.93812 0.0
H4589 H 0.7479 0.74308 0.95584 0.0
C4590 C 0.7158 0.74757 0.94381 0.0
C4591 C 0.73479 0.73773 0.94254 0.0
C4592 C 0.74286 0.7288 0.93702 0.0
C4593 C 0.71993 0.75414 0.95379 0.0
C4594 C 0.73167 0.75253 0.95813 0.0
C4595 C 0.73893 0.74434 0.95246 0.0
C4596 C 0.73655 0.75896 0.96877 0.0
C4597 C 0.71167 0.76256 0.95978 0.0
C4598 C 0.73844 0.7713 0.96864 0.0
C4599 C 0.74414 0.77707 0.97833 0.0
C4600 C 0.74807 0.77057 0.98829 0.0
C4601 C 0.74574 0.75827 0.98852 0.0
C4602 C 0.74009 0.75254 0.97886 0.0
H4603 H 0.7023 0.76105 0.95683 0.0
H4604 H 0.71235 0.76163 0.96959 0.0
H4605 H 0.71419 0.77182 0.95757 0.0
H4606 H 0.73591 0.7764 0.96089 0.0
H4607 H 0.74585 0.78652 0.97781 0.0
H4608 H 0.31828 0.69776 0.89986 0.0
H4609 H 0.3122 0.70857 0.91757 0.0
H4610 H 0.33978 0.73465 0.91232 0.0
H4611 H 0.34577 0.72404 0.89444 0.0
H4612 H 0.32666 0.71401 0.93822 0.0
H4613 H 0.3096 0.75464 0.91623 0.0
H4614 H 0.31187 0.74096 0.90821 0.0
H4615 H 0.32428 0.75036 0.91234 0.0
C4616 C 0.32295 0.70589 0.90237 0.0
C4617 C 0.33248 0.71006 0.89571 0.0
C4618 C 0.31951 0.712 0.91254 0.0
C4619 C 0.32545 0.72247 0.91618 0.0
C4620 C 0.33497 0.72668 0.90956 0.0
H4621 H 0.31494 0.77078 0.97595 0.0
H4622 H 0.32235 0.76101 0.95819 0.0
C4623 C 0.33845 0.72054 0.89942 0.0
C4624 C 0.3219 0.72876 0.92711 0.0
H4625 H 0.31028 0.75465 0.93724 0.0
C4626 C 0.32307 0.72289 0.93802 0.0
C4627 C 0.31731 0.74038 0.92681 0.0
C4628 C 0.31558 0.74696 0.91528 0.0
C4629 C 0.3198 0.72834 0.94868 0.0
C4630 C 0.31498 0.73988 0.94837 0.0
C4631 C 0.31397 0.74581 0.93746 0.0
C4632 C 0.3106 0.74577 0.95921 0.0
C4633 C 0.3217 0.72175 0.96018 0.0
C4634 C 0.30144 0.74052 0.9656 0.0
C4635 C 0.29726 0.74602 0.97579 0.0
C4636 C 0.30205 0.75698 0.97978 0.0
C4637 C 0.31114 0.76228 0.97326 0.0
C4638 C 0.31534 0.75675 0.96305 0.0
H4639 H 0.32855 0.71481 0.95937 0.0
H4640 H 0.32443 0.7279 0.96753 0.0
H4641 H 0.3133 0.71729 0.96259 0.0
H4642 H 0.29747 0.73217 0.96267 0.0
H4643 H 0.29035 0.74157 0.98059 0.0
H4644 H 0.31454 0.34151 0.89079 0.0
H4645 H 0.30457 0.33475 0.90856 0.0
H4646 H 0.33077 0.30765 0.91367 0.0
H4647 H 0.34072 0.31419 0.89575 0.0
H4648 H 0.29516 0.31153 0.913 0.0
H4649 H 0.33013 0.32494 0.94626 0.0
H4650 H 0.3296 0.33069 0.93132 0.0
H4651 H 0.33503 0.31602 0.93409 0.0
C4652 C 0.31816 0.33405 0.89561 0.0
C4653 C 0.32845 0.32839 0.89178 0.0
C4654 C 0.31248 0.33025 0.90582 0.0
C4655 C 0.317 0.32079 0.91251 0.0
C4656 C 0.32725 0.31511 0.90876 0.0
H4657 H 0.29539 0.28505 0.97657 0.0
H4658 H 0.3054 0.29186 0.95891 0.0
C4659 C 0.33294 0.31888 0.89851 0.0
C4660 C 0.31078 0.31669 0.92322 0.0
H4661 H 0.31388 0.31384 0.95333 0.0
C4662 C 0.29922 0.31206 0.92183 0.0
C4663 C 0.31612 0.31737 0.93472 0.0
C4664 C 0.32837 0.32261 0.93677 0.0
C4665 C 0.29293 0.3079 0.93161 0.0
C4666 C 0.29824 0.30865 0.94313 0.0
C4667 C 0.30981 0.31328 0.94451 0.0
C4668 C 0.29201 0.30455 0.95387 0.0
C4669 C 0.28079 0.30246 0.92944 0.0
C4670 C 0.28119 0.30952 0.95704 0.0
C4671 C 0.27533 0.30553 0.9671 0.0
C4672 C 0.28022 0.29656 0.97428 0.0
C4673 C 0.29119 0.29179 0.97118 0.0
C4674 C 0.29701 0.29575 0.96111 0.0
H4675 H 0.27941 0.29956 0.92004 0.0
H4676 H 0.27937 0.2947 0.93528 0.0
H4677 H 0.27398 0.30915 0.93139 0.0
H4678 H 0.27727 0.31651 0.95174 0.0
H4679 H 0.2669 0.30941 0.96913 0.0
H4680 H 0.634 0.72165 0.18619 0.0
H4681 H 0.61658 0.73214 0.19275 0.0
H4682 H 0.60351 0.70005 0.20874 0.0
H4683 H 0.62132 0.6897 0.20301 0.0
H4684 H 0.59414 0.72942 0.18737 0.0
H4685 H 0.59993 0.72252 0.23577 0.0
H4686 H 0.61132 0.71898 0.22545 0.0
H4687 H 0.59924 0.70873 0.22774 0.0
C4688 C 0.62759 0.71685 0.19135 0.0
C4689 C 0.62923 0.7048 0.19416 0.0
C4690 C 0.61753 0.72286 0.19498 0.0
C4691 C 0.60879 0.71698 0.20145 0.0
C4692 C 0.61025 0.7049 0.20405 0.0
H4693 H 0.53652 0.74201 0.20834 0.0
H4694 H 0.55468 0.73258 0.20193 0.0
C4695 C 0.62039 0.69892 0.20057 0.0
C4696 C 0.59804 0.72343 0.20517 0.0
H4697 H 0.58112 0.72965 0.22908 0.0
C4698 C 0.59134 0.72953 0.19651 0.0
C4699 C 0.59446 0.72379 0.21713 0.0
C4700 C 0.60169 0.71826 0.22707 0.0
C4701 C 0.58112 0.73579 0.19943 0.0
C4702 C 0.5772 0.73563 0.21128 0.0
C4703 C 0.584 0.72969 0.21997 0.0
C4704 C 0.56614 0.74159 0.21492 0.0
C4705 C 0.57481 0.74274 0.1898 0.0
C4706 C 0.5664 0.74955 0.22459 0.0
C4707 C 0.55597 0.75476 0.22841 0.0
C4708 C 0.54507 0.75221 0.22258 0.0
C4709 C 0.54482 0.74433 0.21284 0.0
C4710 C 0.55522 0.73897 0.20915 0.0
H4711 H 0.58089 0.74516 0.18258 0.0
H4712 H 0.56754 0.73719 0.1858 0.0
H4713 H 0.57096 0.75099 0.19339 0.0
H4714 H 0.57468 0.75172 0.22923 0.0
H4715 H 0.55642 0.76083 0.23591 0.0
H4716 H 0.34314 0.61954 0.21826 0.0
H4717 H 0.33617 0.60217 0.2291 0.0
H4718 H 0.30634 0.59854 0.2046 0.0
H4719 H 0.31338 0.61579 0.19353 0.0
H4720 H 0.31388 0.59859 0.24005 0.0
H4721 H 0.32158 0.56532 0.20452 0.0
H4722 H 0.32818 0.57999 0.20448 0.0
H4723 H 0.3129 0.57788 0.20008 0.0
C4724 C 0.33516 0.61499 0.21509 0.0
C4725 C 0.32887 0.61901 0.20496 0.0
C4726 C 0.33115 0.60511 0.22135 0.0
C4727 C 0.32083 0.59897 0.21757 0.0
C4728 C 0.31443 0.60304 0.20756 0.0
H4729 H 0.28447 0.53588 0.24234 0.0
H4730 H 0.29077 0.5536 0.2318 0.0
C4731 C 0.3184 0.61296 0.20132 0.0
C4732 C 0.31674 0.5884 0.22418 0.0
H4733 H 0.31194 0.55849 0.22161 0.0
C4734 C 0.31348 0.58981 0.23605 0.0
C4735 C 0.31621 0.57697 0.21892 0.0
C4736 C 0.31999 0.57486 0.20633 0.0
C4737 C 0.30951 0.58013 0.24274 0.0
C4738 C 0.30906 0.56867 0.23751 0.0
C4739 C 0.3123 0.56727 0.22563 0.0
C4740 C 0.30517 0.558 0.24416 0.0
C4741 C 0.30558 0.58232 0.25526 0.0
C4742 C 0.31124 0.55448 0.25458 0.0
C4743 C 0.30757 0.54438 0.26073 0.0
C4744 C 0.29781 0.53751 0.25655 0.0
C4745 C 0.29187 0.54101 0.246 0.0
C4746 C 0.29552 0.55112 0.23988 0.0
H4747 H 0.30336 0.59178 0.25675 0.0
H4748 H 0.29774 0.57674 0.25731 0.0
H4749 H 0.31289 0.58003 0.2616 0.0
H4750 H 0.31887 0.5595 0.25792 0.0
H4751 H 0.31234 0.54203 0.26882 0.0
H4752 H 0.40217 0.30463 0.20103 0.0
H4753 H 0.41955 0.29645 0.21119 0.0
H4754 H 0.42123 0.32665 0.23487 0.0
H4755 H 0.40358 0.33482 0.22495 0.0
H4756 H 0.44323 0.32081 0.22442 0.0
H4757 H 0.42203 0.28152 0.24467 0.0
H4758 H 0.41853 0.28301 0.22909 0.0
H4759 H 0.41368 0.2941 0.23938 0.0
C4760 C 0.40605 0.30946 0.20854 0.0
C4761 C 0.40136 0.32037 0.21219 0.0
C4762 C 0.41603 0.30477 0.21433 0.0
C4763 C 0.42158 0.31085 0.22391 0.0
C4764 C 0.41704 0.32178 0.22754 0.0
H4765 H 0.48035 0.27352 0.26074 0.0
H4766 H 0.46316 0.28666 0.25837 0.0
C4767 C 0.40699 0.32647 0.2218 0.0
C4768 C 0.43244 0.30596 0.22968 0.0
H4769 H 0.44318 0.28102 0.24303 0.0
C4770 C 0.44319 0.31221 0.22868 0.0
C4771 C 0.43238 0.29482 0.23542 0.0
C4772 C 0.42102 0.28801 0.23733 0.0
C4773 C 0.45397 0.30725 0.23256 0.0
C4774 C 0.454 0.29573 0.23748 0.0
C4775 C 0.44317 0.28983 0.2392 0.0
C4776 C 0.46514 0.28906 0.23946 0.0
C4777 C 0.46529 0.31425 0.23104 0.0
C4778 C 0.47197 0.28615 0.22967 0.0
C4779 C 0.48162 0.27864 0.23098 0.0
C4780 C 0.48474 0.27388 0.24213 0.0
C4781 C 0.47822 0.27717 0.25208 0.0
C4782 C 0.46839 0.28461 0.25072 0.0
H4783 H 0.46362 0.32394 0.23076 0.0
H4784 H 0.47181 0.31243 0.23835 0.0
H4785 H 0.46928 0.31166 0.22252 0.0
H4786 H 0.46952 0.28929 0.22088 0.0
H4787 H 0.48646 0.27626 0.22315 0.0
H4788 H 0.68405 0.41311 0.19837 0.0
H4789 H 0.6916 0.43028 0.20981 0.0
H4790 H 0.71507 0.40754 0.22982 0.0
H4791 H 0.70763 0.39034 0.21838 0.0
H4792 H 0.69205 0.43529 0.23408 0.0
H4793 H 0.73763 0.43252 0.21704 0.0
H4794 H 0.72531 0.42427 0.21045 0.0
H4795 H 0.73247 0.41915 0.22389 0.0
C4796 C 0.69076 0.41175 0.20527 0.0
C4797 C 0.69532 0.40038 0.2074 0.0
C4798 C 0.69508 0.42157 0.21178 0.0
C4799 C 0.70403 0.42022 0.22054 0.0
C4800 C 0.70836 0.40883 0.22292 0.0
H4801 H 0.74579 0.47113 0.26271 0.0
H4802 H 0.73526 0.4531 0.2561 0.0
C4803 C 0.7041 0.39902 0.21637 0.0
C4804 C 0.70896 0.43075 0.22702 0.0
H4805 H 0.73451 0.44669 0.23215 0.0
C4806 C 0.70134 0.43779 0.23367 0.0
C4807 C 0.72107 0.43401 0.22646 0.0
C4808 C 0.72959 0.42717 0.21899 0.0
C4809 C 0.70553 0.44795 0.23985 0.0
C4810 C 0.71763 0.4512 0.23924 0.0
C4811 C 0.72525 0.44411 0.23268 0.0
C4812 C 0.72257 0.46222 0.24482 0.0
C4813 C 0.69702 0.45505 0.24705 0.0
C4814 C 0.71872 0.47337 0.24093 0.0
C4815 C 0.72471 0.48372 0.2447 0.0
C4816 C 0.73473 0.48309 0.25236 0.0
C4817 C 0.73812 0.47195 0.2568 0.0
C4818 C 0.73213 0.46162 0.25301 0.0
H4819 H 0.68905 0.44972 0.24928 0.0
H4820 H 0.70135 0.45838 0.25542 0.0
H4821 H 0.69405 0.46282 0.24181 0.0
H4822 H 0.71148 0.47403 0.23447 0.0
H4823 H 0.72187 0.49213 0.2411 0.0
H4824 H 0.62845 0.32965 0.80261 0.0
H4825 H 0.61183 0.31759 0.79478 0.0
H4826 H 0.61664 0.29293 0.82357 0.0
H4827 H 0.63334 0.30488 0.83143 0.0
H4828 H 0.61136 0.29386 0.7874 0.0
H4829 H 0.58138 0.30101 0.82504 0.0
H4830 H 0.59446 0.31003 0.82289 0.0
H4831 H 0.59575 0.29546 0.82916 0.0
C4832 C 0.62604 0.32162 0.80725 0.0
C4833 C 0.63223 0.31828 0.8177 0.0
C4834 C 0.61649 0.31476 0.80278 0.0
C4835 C 0.61287 0.30445 0.80868 0.0
C4836 C 0.6191 0.301 0.81902 0.0
H4837 H 0.56452 0.25132 0.77566 0.0
H4838 H 0.58146 0.26082 0.78614 0.0
C4839 C 0.62865 0.30785 0.8235 0.0
C4840 C 0.6027 0.29724 0.80386 0.0
H4841 H 0.57479 0.28745 0.81008 0.0
C4842 C 0.60338 0.29241 0.79237 0.0
C4843 C 0.59225 0.29546 0.81032 0.0
C4844 C 0.59082 0.30084 0.8225 0.0
C4845 C 0.59389 0.28589 0.78715 0.0
C4846 C 0.58349 0.28398 0.79366 0.0
C4847 C 0.58282 0.28879 0.80516 0.0
C4848 C 0.57292 0.27774 0.78835 0.0
C4849 C 0.59493 0.28141 0.77456 0.0
C4850 C 0.56233 0.28393 0.78657 0.0
C4851 C 0.55263 0.27852 0.78066 0.0
C4852 C 0.55328 0.26677 0.77644 0.0
C4853 C 0.56371 0.26039 0.77875 0.0
C4854 C 0.57344 0.26583 0.78466 0.0
H4855 H 0.60238 0.28576 0.76995 0.0
H4856 H 0.59654 0.27172 0.77469 0.0
H4857 H 0.58661 0.28293 0.76934 0.0
H4858 H 0.5617 0.2931 0.7894 0.0
H4859 H 0.54473 0.28369 0.7791 0.0
H4860 H 0.70207 0.62296 0.84226 0.0
H4861 H 0.71134 0.60537 0.83395 0.0
H4862 H 0.73473 0.6277 0.814 0.0
H4863 H 0.7255 0.64536 0.82226 0.0
H4864 H 0.71236 0.59854 0.81061 0.0
H4865 H 0.75786 0.60483 0.8296 0.0
H4866 H 0.74539 0.61305 0.83485 0.0
H4867 H 0.75246 0.61734 0.82138 0.0
C4868 C 0.70918 0.62415 0.83608 0.0
C4869 C 0.71304 0.6356 0.83294 0.0
C4870 C 0.71451 0.61407 0.83139 0.0
C4871 C 0.72387 0.61519 0.82349 0.0
C4872 C 0.72774 0.6266 0.82031 0.0
H4873 H 0.76186 0.56454 0.7804 0.0
H4874 H 0.7549 0.58235 0.79052 0.0
C4875 C 0.72243 0.63669 0.82503 0.0
C4876 C 0.72915 0.6044 0.81818 0.0
H4877 H 0.75513 0.58954 0.81509 0.0
C4878 C 0.7217 0.59655 0.81165 0.0
C4879 C 0.74136 0.60181 0.81949 0.0
C4880 C 0.74973 0.60964 0.8268 0.0
C4881 C 0.72612 0.58629 0.80628 0.0
C4882 C 0.73831 0.58367 0.80762 0.0
C4883 C 0.74579 0.59154 0.81409 0.0
C4884 C 0.74339 0.57282 0.80229 0.0
C4885 C 0.71774 0.57844 0.79899 0.0
C4886 C 0.73955 0.56152 0.80583 0.0
C4887 C 0.74352 0.55132 0.80009 0.0
C4888 C 0.75145 0.5522 0.7907 0.0
C4889 C 0.75574 0.56352 0.78757 0.0
C4890 C 0.75176 0.57372 0.79334 0.0
H4891 H 0.70946 0.58312 0.79645 0.0
H4892 H 0.72198 0.5753 0.79079 0.0
H4893 H 0.7153 0.57056 0.80429 0.0
H4894 H 0.73327 0.5606 0.81288 0.0
H4895 H 0.74008 0.54277 0.8028 0.0
H4896 H 0.41497 0.68611 0.8228 0.0
H4897 H 0.43253 0.69343 0.81273 0.0
H4898 H 0.41054 0.71583 0.79071 0.0
H4899 H 0.39294 0.70858 0.80074 0.0
H4900 H 0.43865 0.69312 0.78875 0.0
H4901 H 0.43453 0.73924 0.8057 0.0
H4902 H 0.42621 0.72697 0.81163 0.0
H4903 H 0.4216 0.73362 0.79781 0.0
C4904 C 0.41386 0.69252 0.81574 0.0
C4905 C 0.40256 0.69684 0.81264 0.0
C4906 C 0.4239 0.69671 0.81001 0.0
C4907 C 0.42286 0.70531 0.8011 0.0
C4908 C 0.41158 0.70939 0.79774 0.0
H4909 H 0.47553 0.7465 0.76364 0.0
H4910 H 0.45722 0.73623 0.76881 0.0
C4911 C 0.40153 0.70524 0.80349 0.0
C4912 C 0.43362 0.7102 0.79552 0.0
H4913 H 0.44954 0.73582 0.79195 0.0
C4914 C 0.44103 0.70246 0.78943 0.0
C4915 C 0.43673 0.72238 0.79644 0.0
C4916 C 0.42943 0.73104 0.80333 0.0
C4917 C 0.45143 0.7066 0.78415 0.0
C4918 C 0.45456 0.71876 0.78514 0.0
C4919 C 0.44708 0.72651 0.79113 0.0
C4920 C 0.46579 0.72366 0.78056 0.0
C4921 C 0.45892 0.69796 0.77747 0.0
C4922 C 0.47673 0.71983 0.78523 0.0
C4923 C 0.48724 0.72568 0.78228 0.0
C4924 C 0.48699 0.73554 0.77467 0.0
C4925 C 0.47607 0.73895 0.76953 0.0
C4926 C 0.46557 0.73311 0.77249 0.0
H4927 H 0.45374 0.68993 0.77464 0.0
H4928 H 0.46271 0.70215 0.7695 0.0
H4929 H 0.46636 0.69505 0.78336 0.0
H4930 H 0.4771 0.71271 0.79164 0.0
H4931 H 0.49547 0.72283 0.78643 0.0
H4932 H 0.31936 0.4056 0.82175 0.0
H4933 H 0.31176 0.42275 0.8108 0.0
H4934 H 0.3388 0.4184 0.78486 0.0
H4935 H 0.34627 0.40111 0.79557 0.0
H4936 H 0.32432 0.44398 0.80517 0.0
H4937 H 0.30792 0.42004 0.76458 0.0
H4938 H 0.31129 0.41255 0.77838 0.0
H4939 H 0.32303 0.41707 0.76887 0.0
C4940 C 0.3236 0.40821 0.81364 0.0
C4941 C 0.33341 0.40197 0.80952 0.0
C4942 C 0.31929 0.41804 0.80743 0.0
C4943 C 0.32462 0.42174 0.79694 0.0
C4944 C 0.33444 0.41558 0.79284 0.0
H4945 H 0.31307 0.479 0.74688 0.0
H4946 H 0.32026 0.46168 0.75774 0.0
C4947 C 0.33877 0.40578 0.79905 0.0
C4948 C 0.32013 0.43225 0.79045 0.0
H4949 H 0.30811 0.44107 0.76384 0.0
C4950 C 0.32071 0.44335 0.79616 0.0
C4951 C 0.31549 0.43139 0.77868 0.0
C4952 C 0.31428 0.41962 0.77227 0.0
C4953 C 0.31696 0.45368 0.79032 0.0
C4954 C 0.31229 0.45283 0.77855 0.0
C4955 C 0.3117 0.44171 0.77285 0.0
C4956 C 0.30792 0.46336 0.772 0.0
C4957 C 0.31831 0.46545 0.79672 0.0
C4958 C 0.29849 0.46996 0.77632 0.0
C4959 C 0.29442 0.47992 0.77019 0.0
C4960 C 0.29963 0.48344 0.75952 0.0
C4961 C 0.30897 0.47667 0.75513 0.0
C4962 C 0.31304 0.46672 0.76129 0.0
H4963 H 0.32488 0.46502 0.80423 0.0
H4964 H 0.32111 0.47255 0.79057 0.0
H4965 H 0.30967 0.46794 0.8004 0.0
H4966 H 0.29425 0.4674 0.78445 0.0
H4967 H 0.2873 0.48493 0.77393 0.0
H4968 H 0.71716 0.61937 0.18065 0.0
H4969 H 0.72689 0.60137 0.18756 0.0
H4970 H 0.70342 0.59957 0.2171 0.0
H4971 H 0.69327 0.61732 0.20995 0.0
H4972 H 0.73879 0.59722 0.20847 0.0
H4973 H 0.70038 0.56624 0.20348 0.0
H4974 H 0.70042 0.58087 0.19705 0.0
H4975 H 0.69759 0.57899 0.21258 0.0
C4976 C 0.7139 0.61505 0.1885 0.0
C4977 C 0.70432 0.61976 0.19466 0.0
C4978 C 0.71956 0.6048 0.1925 0.0
C4979 C 0.71578 0.59899 0.20274 0.0
C4980 C 0.70634 0.60375 0.20903 0.0
H4981 H 0.7405 0.53783 0.24217 0.0
H4982 H 0.73069 0.5558 0.23523 0.0
C4983 C 0.70064 0.61399 0.20501 0.0
C4984 C 0.72192 0.58814 0.20694 0.0
H4985 H 0.71756 0.55884 0.21341 0.0
C4986 C 0.73416 0.58881 0.20949 0.0
C4987 C 0.71587 0.57717 0.20826 0.0
C4988 C 0.70287 0.5757 0.2051 0.0
C4989 C 0.74046 0.57888 0.21352 0.0
C4990 C 0.7344 0.56794 0.2149 0.0
C4991 C 0.72218 0.56725 0.21236 0.0
C4992 C 0.74056 0.55712 0.21909 0.0
C4993 C 0.75352 0.58022 0.2165 0.0
C4994 C 0.74931 0.55183 0.21227 0.0
C4995 C 0.75498 0.54155 0.21623 0.0
C4996 C 0.75201 0.53637 0.22711 0.0
C4997 C 0.74318 0.54168 0.23387 0.0
C4998 C 0.73749 0.55191 0.22988 0.0
H4999 H 0.75626 0.58968 0.2175 0.0
H5000 H 0.75585 0.57549 0.22485 0.0
H5001 H 0.75866 0.57626 0.20925 0.0
H5002 H 0.7517 0.55562 0.20383 0.0
H5003 H 0.76176 0.53772 0.21084 0.0
H5004 H 0.69182 0.41931 0.8259 0.0
H5005 H 0.69816 0.43778 0.81657 0.0
H5006 H 0.71535 0.41779 0.78935 0.0
H5007 H 0.70925 0.39926 0.79872 0.0
H5008 H 0.72153 0.44564 0.81205 0.0
H5009 H 0.6943 0.44115 0.77041 0.0
H5010 H 0.69147 0.43245 0.78348 0.0
H5011 H 0.70333 0.42857 0.77393 0.0
C5012 C 0.69702 0.41881 0.81798 0.0
C5013 C 0.69999 0.40774 0.81307 0.0
C5014 C 0.70058 0.4294 0.81261 0.0
C5015 C 0.7071 0.42918 0.80218 0.0
C5016 C 0.71012 0.41818 0.79726 0.0
H5017 H 0.74867 0.48648 0.7721 0.0
H5018 H 0.74167 0.46805 0.78094 0.0
C5019 C 0.7066 0.40758 0.80264 0.0
C5020 C 0.71099 0.44047 0.79662 0.0
H5021 H 0.70841 0.45694 0.7713 0.0
C5022 C 0.71865 0.44812 0.80315 0.0
C5023 C 0.70712 0.44376 0.78506 0.0
C5024 C 0.69852 0.43612 0.77782 0.0
C5025 C 0.7227 0.45887 0.79836 0.0
C5026 C 0.71908 0.46202 0.78667 0.0
C5027 C 0.71126 0.45447 0.78022 0.0
C5028 C 0.72328 0.47315 0.78105 0.0
C5029 C 0.73069 0.46687 0.8059 0.0
C5030 C 0.71523 0.48206 0.7779 0.0
C5031 C 0.71922 0.49269 0.77288 0.0
C5032 C 0.73134 0.4946 0.77083 0.0
C5033 C 0.73932 0.4855 0.77376 0.0
C5034 C 0.73533 0.4749 0.77881 0.0
H5035 H 0.73038 0.46458 0.81547 0.0
H5036 H 0.73996 0.4659 0.80304 0.0
H5037 H 0.72821 0.47631 0.8048 0.0
H5038 H 0.70588 0.48088 0.77952 0.0
H5039 H 0.7128 0.49947 0.77085 0.0
H5040 H 0.62862 0.72355 0.84649 0.0
H5041 H 0.61027 0.73223 0.83884 0.0
H5042 H 0.6101 0.70812 0.80895 0.0
H5043 H 0.62824 0.69903 0.8168 0.0
H5044 H 0.60564 0.74346 0.8177 0.0
H5045 H 0.57694 0.70337 0.82139 0.0
H5046 H 0.59146 0.70446 0.82842 0.0
H5047 H 0.5899 0.70118 0.8128 0.0
C5048 C 0.62461 0.71995 0.83838 0.0
C5049 C 0.62987 0.71048 0.83234 0.0
C5050 C 0.61415 0.725 0.83397 0.0
C5051 C 0.60869 0.72071 0.82342 0.0
C5052 C 0.61402 0.71142 0.81723 0.0
H5053 H 0.54487 0.74133 0.78399 0.0
H5054 H 0.56362 0.73255 0.79048 0.0
C5055 C 0.62448 0.70632 0.82166 0.0
C5056 C 0.59753 0.72613 0.81888 0.0
H5057 H 0.56846 0.72001 0.81181 0.0
C5058 C 0.5975 0.73834 0.81644 0.0
C5059 C 0.58691 0.71944 0.81723 0.0
C5060 C 0.58622 0.70641 0.82019 0.0
C5061 C 0.58719 0.74401 0.8123 0.0
C5062 C 0.57658 0.73733 0.8107 0.0
C5063 C 0.57661 0.72511 0.81304 0.0
C5064 C 0.5653 0.74288 0.80671 0.0
C5065 C 0.58779 0.75707 0.80948 0.0
C5066 C 0.55995 0.75153 0.81372 0.0
C5067 C 0.54923 0.7566 0.81002 0.0
C5068 C 0.54363 0.75311 0.79922 0.0
C5069 C 0.54901 0.74439 0.79225 0.0
C5070 C 0.5597 0.73929 0.79598 0.0
H5071 H 0.59705 0.76021 0.80835 0.0
H5072 H 0.58255 0.75905 0.80126 0.0
H5073 H 0.58401 0.76218 0.81691 0.0
H5074 H 0.56403 0.7543 0.82213 0.0
H5075 H 0.54539 0.76333 0.81557 0.0
H5076 H 0.33388 0.621 0.80999 0.0
H5077 H 0.324 0.60339 0.80157 0.0
H5078 H 0.29587 0.60703 0.82642 0.0
H5079 H 0.30585 0.62462 0.83513 0.0
H5080 H 0.31735 0.58191 0.81436 0.0
H5081 H 0.27897 0.60473 0.79279 0.0
H5082 H 0.29242 0.61263 0.79717 0.0
H5083 H 0.28231 0.60786 0.80823 0.0
C5084 C 0.32566 0.61802 0.81379 0.0
C5085 C 0.3207 0.62422 0.82329 0.0
C5086 C 0.31999 0.60798 0.8089 0.0
C5087 C 0.30918 0.60396 0.81332 0.0
C5088 C 0.30414 0.61009 0.82279 0.0
H5089 H 0.26901 0.5444 0.77883 0.0
H5090 H 0.27428 0.55985 0.79369 0.0
C5091 C 0.30985 0.62015 0.82773 0.0
C5092 C 0.30339 0.59325 0.80797 0.0
H5093 H 0.28082 0.58431 0.78904 0.0
C5094 C 0.30926 0.58239 0.80896 0.0
C5095 C 0.29278 0.59388 0.80105 0.0
C5096 C 0.28622 0.60539 0.79964 0.0
C5097 C 0.30508 0.57226 0.8028 0.0
C5098 C 0.2949 0.57306 0.79527 0.0
C5099 C 0.28863 0.58373 0.79481 0.0
C5100 C 0.29161 0.56346 0.78669 0.0
C5101 C 0.31181 0.56084 0.80413 0.0
C5102 C 0.29952 0.56052 0.7778 0.0
C5103 C 0.29654 0.55183 0.76935 0.0
C5104 C 0.28554 0.54587 0.76955 0.0
C5105 C 0.27757 0.54879 0.77848 0.0
C5106 C 0.28056 0.55761 0.78695 0.0
H5107 H 0.31683 0.56057 0.81275 0.0
H5108 H 0.30574 0.55301 0.80352 0.0
H5109 H 0.31827 0.56016 0.79691 0.0
H5110 H 0.30799 0.56508 0.7773 0.0
H5111 H 0.3029 0.54984 0.76261 0.0
H5112 H 0.40524 0.33723 0.79634 0.0
H5113 H 0.42261 0.33032 0.78601 0.0
H5114 H 0.42951 0.30503 0.81383 0.0
H5115 H 0.41196 0.31175 0.82419 0.0
H5116 H 0.44985 0.31847 0.80668 0.0
H5117 H 0.4251 0.29824 0.7682 0.0
H5118 H 0.42131 0.31334 0.7714 0.0
H5119 H 0.41811 0.30193 0.78196 0.0
C5120 C 0.41033 0.33008 0.80021 0.0
C5121 C 0.40709 0.32495 0.81105 0.0
C5122 C 0.42029 0.32617 0.7943 0.0
C5123 C 0.42724 0.31705 0.79906 0.0
C5124 C 0.42422 0.31206 0.80998 0.0
H5125 H 0.48051 0.27651 0.76296 0.0
H5126 H 0.46324 0.28322 0.77365 0.0
C5127 C 0.41422 0.31595 0.81591 0.0
C5128 C 0.43771 0.3128 0.79264 0.0
H5129 H 0.44597 0.29983 0.76668 0.0
C5130 C 0.44901 0.31436 0.79795 0.0
C5131 C 0.43658 0.30735 0.7813 0.0
C5132 C 0.42462 0.305 0.77539 0.0
C5133 C 0.45925 0.31079 0.79212 0.0
C5134 C 0.45814 0.30564 0.78064 0.0
C5135 C 0.44681 0.30389 0.77543 0.0
C5136 C 0.4686 0.30172 0.774 0.0
C5137 C 0.47115 0.3124 0.79837 0.0
C5138 C 0.47725 0.30992 0.77046 0.0
C5139 C 0.48717 0.3061 0.76435 0.0
C5140 C 0.48862 0.29399 0.76168 0.0
C5141 C 0.47978 0.28586 0.76505 0.0
C5142 C 0.46987 0.28969 0.7711 0.0
H5143 H 0.47028 0.3139 0.80807 0.0
H5144 H 0.47677 0.30452 0.79699 0.0
H5145 H 0.47576 0.32023 0.79464 0.0
H5146 H 0.47634 0.31927 0.77244 0.0
H5147 H 0.49381 0.31259 0.76196 0.0
H5148 H 0.32776 0.40816 0.18698 0.0
H5149 H 0.31774 0.42558 0.19468 0.0
H5150 H 0.30097 0.40388 0.22093 0.0
H5151 H 0.31045 0.38631 0.21292 0.0
H5152 H 0.28573 0.42044 0.21143 0.0
H5153 H 0.32859 0.4417 0.22539 0.0
H5154 H 0.32716 0.43824 0.20983 0.0
H5155 H 0.32752 0.42645 0.2205 0.0
C5156 C 0.32179 0.40702 0.19426 0.0
C5157 C 0.32005 0.39579 0.1994 0.0
C5158 C 0.31616 0.41705 0.19874 0.0
C5159 C 0.30877 0.4161 0.20854 0.0
C5160 C 0.30668 0.40486 0.21342 0.0
H5161 H 0.29305 0.46423 0.26331 0.0
H5162 H 0.29908 0.44872 0.24979 0.0
C5163 C 0.31224 0.39483 0.2089 0.0
C5164 C 0.30365 0.42682 0.21413 0.0
H5165 H 0.31132 0.45231 0.22917 0.0
C5166 C 0.2913 0.42748 0.21523 0.0
C5167 C 0.31095 0.43596 0.21914 0.0
C5168 C 0.32429 0.43556 0.21877 0.0
C5169 C 0.28609 0.43685 0.22146 0.0
C5170 C 0.29342 0.44589 0.22659 0.0
C5171 C 0.30571 0.44542 0.22516 0.0
C5172 C 0.28881 0.45511 0.23471 0.0
C5173 C 0.27287 0.43675 0.22299 0.0
C5174 C 0.28082 0.46385 0.2308 0.0
C5175 C 0.27725 0.47282 0.23863 0.0
C5176 C 0.28172 0.47322 0.25042 0.0
C5177 C 0.28949 0.4643 0.25428 0.0
C5178 C 0.29297 0.45538 0.24655 0.0
H5179 H 0.2687 0.42819 0.2201 0.0
H5180 H 0.27075 0.43841 0.23243 0.0
H5181 H 0.26887 0.44394 0.2176 0.0
H5182 H 0.2776 0.4639 0.22166 0.0
H5183 H 0.27129 0.4796 0.23539 0.0
H5184 H 0.60995 0.32785 0.18107 0.0
H5185 H 0.59247 0.31661 0.18715 0.0
H5186 H 0.61481 0.29347 0.208 0.0
H5187 H 0.63231 0.30476 0.20208 0.0
H5188 H 0.58641 0.29345 0.18373 0.0
H5189 H 0.59072 0.30333 0.23197 0.0
H5190 H 0.5992 0.31116 0.22108 0.0
H5191 H 0.60371 0.29673 0.22608 0.0
C5192 C 0.61113 0.32035 0.18694 0.0
C5193 C 0.6225 0.31722 0.19116 0.0
C5194 C 0.60114 0.31396 0.19042 0.0
C5195 C 0.60231 0.30432 0.19819 0.0
C5196 C 0.61366 0.30106 0.20226 0.0
H5197 H 0.5491 0.24933 0.21004 0.0
H5198 H 0.56601 0.26095 0.20313 0.0
C5199 C 0.62365 0.3075 0.19885 0.0
C5200 C 0.59166 0.29756 0.20184 0.0
H5201 H 0.5766 0.28844 0.2261 0.0
C5202 C 0.58423 0.29239 0.19299 0.0
C5203 C 0.58874 0.29633 0.21392 0.0
C5204 C 0.59594 0.30228 0.22381 0.0
C5205 C 0.57404 0.28587 0.1959 0.0
C5206 C 0.57136 0.28426 0.208 0.0
C5207 C 0.57871 0.28958 0.21683 0.0
C5208 C 0.5609 0.27727 0.21174 0.0
C5209 C 0.56612 0.28099 0.18597 0.0
C5210 C 0.55252 0.2825 0.21904 0.0
C5211 C 0.54294 0.27585 0.22309 0.0
C5212 C 0.54153 0.26382 0.21991 0.0
C5213 C 0.54985 0.25862 0.21248 0.0
C5214 C 0.5595 0.26526 0.20851 0.0
H5215 H 0.56747 0.28581 0.17752 0.0
H5216 H 0.56825 0.27153 0.18443 0.0
H5217 H 0.55664 0.28154 0.18825 0.0
H5218 H 0.55341 0.29175 0.22165 0.0
H5219 H 0.53661 0.28014 0.2287 0.0
H5220 H 0.39655 0.70913 0.21063 0.0
H5221 H 0.41463 0.71707 0.22042 0.0
H5222 H 0.43546 0.69201 0.20114 0.0
H5223 H 0.41752 0.68426 0.19107 0.0
H5224 H 0.43138 0.70507 0.23481 0.0
H5225 H 0.4521 0.7237 0.19474 0.0
H5226 H 0.43665 0.71941 0.19497 0.0
H5227 H 0.44783 0.70835 0.19331 0.0
C5228 C 0.405 0.70543 0.20833 0.0
C5229 C 0.40557 0.69608 0.20001 0.0
C5230 C 0.41531 0.70991 0.21401 0.0
C5231 C 0.42642 0.70522 0.21142 0.0
C5232 C 0.42702 0.69589 0.20315 0.0
H5233 H 0.49911 0.72098 0.23379 0.0
H5234 H 0.48086 0.71162 0.22595 0.0
C5235 C 0.41672 0.69139 0.19748 0.0
C5236 C 0.43736 0.70995 0.21749 0.0
H5237 H 0.46408 0.7232 0.21233 0.0
C5238 C 0.43852 0.70909 0.22991 0.0
C5239 C 0.44667 0.71517 0.21109 0.0
C5240 C 0.44575 0.71683 0.1978 0.0
C5241 C 0.44883 0.71308 0.23607 0.0
C5242 C 0.45816 0.71826 0.22966 0.0
C5243 C 0.45697 0.71915 0.21724 0.0
C5244 C 0.46917 0.72304 0.23558 0.0
C5245 C 0.44975 0.71149 0.24936 0.0
C5246 C 0.46869 0.73245 0.24379 0.0
C5247 C 0.47913 0.7378 0.24835 0.0
C5248 C 0.49027 0.73391 0.2447 0.0
C5249 C 0.49071 0.72419 0.23682 0.0
C5250 C 0.48027 0.71885 0.23229 0.0
H5251 H 0.4435 0.70453 0.25242 0.0
H5252 H 0.45888 0.70907 0.25223 0.0
H5253 H 0.44751 0.71996 0.2538 0.0
H5254 H 0.46025 0.736 0.24631 0.0
H5255 H 0.47844 0.74531 0.25433 0.0
loop_
_geom_bond_atom_site_label_1
_geom_bond_atom_site_label_2
_geom_bond_distance
_geom_bond_site_symmetry_2
_ccdc_geom_bond_type
C0 C1 1.386 . S
C0 C2 1.397 . S
C0 H24 0.931 . S
C1 C0 1.386 . S
C1 C5 1.397 . S
C2 C0 1.397 . S
C2 C3 1.384 . S
C2 H25 0.930 . S
C3 C2 1.384 . S
C3 C4 1.377 . S
C3 C6 1.481 . S
C4 C3 1.377 . S
C4 C5 1.389 . S
C4 H26 0.929 . S
C5 C1 1.397 . S
C5 C4 1.389 . S
C5 H27 0.931 . S
C6 C3 1.481 . S
C6 C7 1.387 . S
C6 C11 1.390 . S
C7 C6 1.387 . S
C7 C8 1.401 . S
C7 H28 0.930 . S
C8 C7 1.401 . S
C8 C9 1.376 . S
C8 C17 1.511 . S
C9 C8 1.376 . S
C9 C10 1.392 . S
C9 H30 0.931 . S
C10 C9 1.392 . S
C10 C11 1.361 . S
C10 C12 1.500 . S
C11 C6 1.390 . S
C11 C10 1.361 . S
C11 H29 0.931 . S
C12 C10 1.500 . S
C12 C13 1.371 . S
C12 C14 1.365 . S
C13 C12 1.371 . S
C13 C23 1.386 . S
C13 H31 0.931 . S
C14 C12 1.365 . S
C14 C15 1.409 . S
C14 H32 0.929 . S
C15 C14 1.409 . S
C15 C16 1.380 . S
C15 H33 0.930 . S
C16 C15 1.380 . S
C16 C23 1.357 . S
C17 C8 1.511 . S
C17 C18 1.341 . S
C17 C19 1.371 . S
C18 C17 1.341 . S
C18 C22 1.394 . S
C18 H34 0.930 . S
C19 C17 1.371 . S
C19 C20 1.392 . S
C19 H35 0.931 . S
C20 C19 1.392 . S
C20 C21 1.331 . S
C20 H38 0.932 . S
C21 C20 1.331 . S
C21 C22 1.336 . S
C22 C18 1.394 . S
C22 C21 1.336 . S
C22 H37 0.929 . S
C23 C13 1.386 . S
C23 C16 1.357 . S
C23 H36 0.928 . S
H24 C0 0.931 . S
H25 C2 0.930 . S
H26 C4 0.929 . S
H27 C5 0.931 . S
H28 C7 0.930 . S
H29 C11 0.931 . S
H30 C9 0.931 . S
H31 C13 0.931 . S
H32 C14 0.929 . S
H33 C15 0.930 . S
H34 C18 0.930 . S
H35 C19 0.931 . S
H36 C23 0.928 . S
H37 C22 0.929 . S
H38 C20 0.932 . S
C39 C40 1.386 . S
C39 C41 1.397 . S
C39 H63 0.931 . S
C40 C39 1.386 . S
C40 C44 1.397 . S
C41 C39 1.397 . S
C41 C42 1.384 . S
C41 H64 0.930 . S
C42 C41 1.384 . S
C42 C43 1.377 . S
C42 C45 1.481 . S
C43 C42 1.377 . S
C43 C44 1.389 . S
C43 H65 0.929 . S
C44 C40 1.397 . S
C44 C43 1.389 . S
C44 H66 0.931 . S
C45 C42 1.481 . S
C45 C46 1.387 . S
C45 C50 1.390 . S
C46 C45 1.387 . S
C46 C47 1.401 . S
C46 H67 0.930 . S
C47 C46 1.401 . S
C47 C48 1.376 . S
C47 C56 1.511 . S
C48 C47 1.376 . S
C48 C49 1.392 . S
C48 H69 0.931 . S
C49 C48 1.392 . S
C49 C50 1.361 . S
C49 C51 1.500 . S
C50 C45 1.390 . S
C50 C49 1.361 . S
C50 H68 0.931 . S
C51 C49 1.500 . S
C51 C52 1.371 . S
C51 C53 1.365 . S
C52 C51 1.371 . S
C52 C62 1.386 . S
C52 H70 0.931 . S
C53 C51 1.365 . S
C53 C54 1.409 . S
C53 H71 0.929 . S
C54 C53 1.409 . S
C54 C55 1.380 . S
C54 H72 0.930 . S
C55 C54 1.380 . S
C55 C62 1.357 . S
C56 C47 1.511 . S
C56 C57 1.341 . S
C56 C58 1.371 . S
C57 C56 1.341 . S
C57 C61 1.394 . S
C57 H73 0.930 . S
C58 C56 1.371 . S
C58 C59 1.392 . S
C58 H74 0.931 . S
C59 C58 1.392 . S
C59 C60 1.331 . S
C59 H77 0.932 . S
C60 C59 1.331 . S
C60 C61 1.336 . S
C61 C57 1.394 . S
C61 C60 1.336 . S
C61 H76 0.929 . S
C62 C52 1.386 . S
C62 C55 1.357 . S
C62 H75 0.928 . S
H63 C39 0.931 . S
H64 C41 0.930 . S
H65 C43 0.929 . S
H66 C44 0.931 . S
H67 C46 0.930 . S
H68 C50 0.931 . S
H69 C48 0.931 . S
H70 C52 0.931 . S
H71 C53 0.929 . S
H72 C54 0.930 . S
H73 C57 0.930 . S
H74 C58 0.931 . S
H75 C62 0.928 . S
H76 C61 0.929 . S
H77 C59 0.932 . S
C78 C79 1.386 . S
C78 C80 1.397 . S
C78 H102 0.931 . S
C79 C78 1.386 . S
C79 C83 1.397 . S
C80 C78 1.397 . S
C80 C81 1.384 . S
C80 H103 0.930 . S
C81 C80 1.384 . S
C81 C82 1.377 . S
C81 C84 1.481 . S
C82 C81 1.377 . S
C82 C83 1.389 . S
C82 H104 0.929 . S
C83 C79 1.397 . S
C83 C82 1.389 . S
C83 H105 0.931 . S
C84 C81 1.481 . S
C84 C85 1.387 . S
C84 C89 1.390 . S
C85 C84 1.387 . S
C85 C86 1.401 . S
C85 H106 0.930 . S
C86 C85 1.401 . S
C86 C87 1.376 . S
C86 C95 1.511 . S
C87 C86 1.376 . S
C87 C88 1.392 . S
C87 H108 0.931 . S
C88 C87 1.392 . S
C88 C89 1.361 . S
C88 C90 1.500 . S
C89 C84 1.390 . S
C89 C88 1.361 . S
C89 H107 0.931 . S
C90 C88 1.500 . S
C90 C91 1.371 . S
C90 C92 1.365 . S
C91 C90 1.371 . S
C91 C101 1.386 . S
C91 H109 0.931 . S
C92 C90 1.365 . S
C92 C93 1.409 . S
C92 H110 0.929 . S
C93 C92 1.409 . S
C93 C94 1.380 . S
C93 H111 0.930 . S
C94 C93 1.380 . S
C94 C101 1.357 . S
C95 C86 1.511 . S
C95 C96 1.341 . S
C95 C97 1.371 . S
C96 C95 1.341 . S
C96 C100 1.394 . S
C96 H112 0.930 . S
C97 C95 1.371 . S
C97 C98 1.392 . S
C97 H113 0.931 . S
C98 C97 1.392 . S
C98 C99 1.331 . S
C98 H116 0.932 . S
C99 C98 1.331 . S
C99 C100 1.336 . S
C100 C96 1.394 . S
C100 C99 1.336 . S
C100 H115 0.929 . S
C101 C91 1.386 . S
C101 C94 1.357 . S
C101 H114 0.928 . S
H102 C78 0.931 . S
H103 C80 0.930 . S
H104 C82 0.929 . S
H105 C83 0.931 . S
H106 C85 0.930 . S
H107 C89 0.931 . S
H108 C87 0.931 . S
H109 C91 0.931 . S
H110 C92 0.929 . S
H111 C93 0.930 . S
H112 C96 0.930 . S
H113 C97 0.931 . S
H114 C101 0.928 . S
H115 C100 0.929 . S
H116 C98 0.932 . S
C117 C118 1.386 . S
C117 C119 1.397 . S
C117 H141 0.931 . S
C118 C117 1.386 . S
C118 C122 1.397 . S
C119 C117 1.397 . S
C119 C120 1.384 . S
C119 H142 0.930 . S
C120 C119 1.384 . S
C120 C121 1.377 . S
C120 C123 1.481 . S
C121 C120 1.377 . S
C121 C122 1.389 . S
C121 H143 0.929 . S
C122 C118 1.397 . S
C122 C121 1.389 . S
C122 H144 0.931 . S
C123 C120 1.481 . S
C123 C124 1.387 . S
C123 C128 1.390 . S
C124 C123 1.387 . S
C124 C125 1.401 . S
C124 H145 0.930 . S
C125 C124 1.401 . S
C125 C126 1.376 . S
C125 C134 1.511 . S
C126 C125 1.376 . S
C126 C127 1.392 . S
C126 H147 0.931 . S
C127 C126 1.392 . S
C127 C128 1.361 . S
C127 C129 1.500 . S
C128 C123 1.390 . S
C128 C127 1.361 . S
C128 H146 0.931 . S
C129 C127 1.500 . S
C129 C130 1.371 . S
C129 C131 1.365 . S
C130 C129 1.371 . S
C130 C140 1.386 . S
C130 H148 0.931 . S
C131 C129 1.365 . S
C131 C132 1.409 . S
C131 H149 0.929 . S
C132 C131 1.409 . S
C132 C133 1.380 . S
C132 H150 0.930 . S
C133 C132 1.380 . S
C133 C140 1.357 . S
C134 C125 1.511 . S
C134 C135 1.341 . S
C134 C136 1.371 . S
C135 C134 1.341 . S
C135 C139 1.394 . S
C135 H151 0.930 . S
C136 C134 1.371 . S
C136 C137 1.392 . S
C136 H152 0.931 . S
C137 C136 1.392 . S
C137 C138 1.331 . S
C137 H155 0.932 . S
C138 C137 1.331 . S
C138 C139 1.336 . S
C139 C135 1.394 . S
C139 C138 1.336 . S
C139 H154 0.929 . S
C140 C130 1.386 . S
C140 C133 1.357 . S
C140 H153 0.928 . S
H141 C117 0.931 . S
H142 C119 0.930 . S
H143 C121 0.929 . S
H144 C122 0.931 . S
H145 C124 0.930 . S
H146 C128 0.931 . S
H147 C126 0.931 . S
H148 C130 0.931 . S
H149 C131 0.929 . S
H150 C132 0.930 . S
H151 C135 0.930 . S
H152 C136 0.931 . S
H153 C140 0.928 . S
H154 C139 0.929 . S
H155 C137 0.932 . S
C156 C157 1.386 . S
C156 C158 1.397 . S
C156 H180 0.931 . S
C157 C156 1.386 . S
C157 C161 1.397 . S
C158 C156 1.397 . S
C158 C159 1.384 . S
C158 H181 0.930 . S
C159 C158 1.384 . S
C159 C160 1.377 . S
C159 C162 1.481 . S
C160 C159 1.377 . S
C160 C161 1.389 . S
C160 H182 0.929 . S
C161 C157 1.397 . S
C161 C160 1.389 . S
C161 H183 0.931 . S
C162 C159 1.481 . S
C162 C163 1.387 . S
C162 C167 1.390 . S
C163 C162 1.387 . S
C163 C164 1.401 . S
C163 H184 0.930 . S
C164 C163 1.401 . S
C164 C165 1.376 . S
C164 C173 1.511 . S
C165 C164 1.376 . S
C165 C166 1.392 . S
C165 H186 0.931 . S
C166 C165 1.392 . S
C166 C167 1.361 . S
C166 C168 1.500 . S
C167 C162 1.390 . S
C167 C166 1.361 . S
C167 H185 0.931 . S
C168 C166 1.500 . S
C168 C169 1.371 . S
C168 C170 1.365 . S
C169 C168 1.371 . S
C169 C179 1.386 . S
C169 H187 0.931 . S
C170 C168 1.365 . S
C170 C171 1.409 . S
C170 H188 0.929 . S
C171 C170 1.409 . S
C171 C172 1.380 . S
C171 H189 0.930 . S
C172 C171 1.380 . S
C172 C179 1.357 . S
C173 C164 1.511 . S
C173 C174 1.341 . S
C173 C175 1.371 . S
C174 C173 1.341 . S
C174 C178 1.394 . S
C174 H190 0.930 . S
C175 C173 1.371 . S
C175 C176 1.392 . S
C175 H191 0.931 . S
C176 C175 1.392 . S
C176 C177 1.331 . S
C176 H194 0.932 . S
C177 C176 1.331 . S
C177 C178 1.336 . S
C178 C174 1.394 . S
C178 C177 1.336 . S
C178 H193 0.929 . S
C179 C169 1.386 . S
C179 C172 1.357 . S
C179 H192 0.928 . S
H180 C156 0.931 . S
H181 C158 0.930 . S
H182 C160 0.929 . S
H183 C161 0.931 . S
H184 C163 0.930 . S
H185 C167 0.931 . S
H186 C165 0.931 . S
H187 C169 0.931 . S
H188 C170 0.929 . S
H189 C171 0.930 . S
H190 C174 0.930 . S
H191 C175 0.931 . S
H192 C179 0.928 . S
H193 C178 0.929 . S
H194 C176 0.932 . S
C195 C196 1.386 . S
C195 C197 1.397 . S
C195 H219 0.931 . S
C196 C195 1.386 . S
C196 C200 1.397 . S
C197 C195 1.397 . S
C197 C198 1.384 . S
C197 H220 0.930 . S
C198 C197 1.384 . S
C198 C199 1.377 . S
C198 C201 1.481 . S
C199 C198 1.377 . S
C199 C200 1.389 . S
C199 H221 0.929 . S
C200 C196 1.397 . S
C200 C199 1.389 . S
C200 H222 0.931 . S
C201 C198 1.481 . S
C201 C202 1.387 . S
C201 C206 1.390 . S
C202 C201 1.387 . S
C202 C203 1.401 . S
C202 H223 0.930 . S
C203 C202 1.401 . S
C203 C204 1.376 . S
C203 C212 1.511 . S
C204 C203 1.376 . S
C204 C205 1.392 . S
C204 H225 0.931 . S
C205 C204 1.392 . S
C205 C206 1.361 . S
C205 C207 1.500 . S
C206 C201 1.390 . S
C206 C205 1.361 . S
C206 H224 0.931 . S
C207 C205 1.500 . S
C207 C208 1.371 . S
C207 C209 1.365 . S
C208 C207 1.371 . S
C208 C218 1.386 . S
C208 H226 0.931 . S
C209 C207 1.365 . S
C209 C210 1.409 . S
C209 H227 0.929 . S
C210 C209 1.409 . S
C210 C211 1.380 . S
C210 H228 0.930 . S
C211 C210 1.380 . S
C211 C218 1.357 . S
C212 C203 1.511 . S
C212 C213 1.341 . S
C212 C214 1.371 . S
C213 C212 1.341 . S
C213 C217 1.394 . S
C213 H229 0.930 . S
C214 C212 1.371 . S
C214 C215 1.392 . S
C214 H230 0.931 . S
C215 C214 1.392 . S
C215 C216 1.331 . S
C215 H233 0.932 . S
C216 C215 1.331 . S
C216 C217 1.336 . S
C217 C213 1.394 . S
C217 C216 1.336 . S
C217 H232 0.929 . S
C218 C208 1.386 . S
C218 C211 1.357 . S
C218 H231 0.928 . S
H219 C195 0.931 . S
H220 C197 0.930 . S
H221 C199 0.929 . S
H222 C200 0.931 . S
H223 C202 0.930 . S
H224 C206 0.931 . S
H225 C204 0.931 . S
H226 C208 0.931 . S
H227 C209 0.929 . S
H228 C210 0.930 . S
H229 C213 0.930 . S
H230 C214 0.931 . S
H231 C218 0.928 . S
H232 C217 0.929 . S
H233 C215 0.932 . S
C234 C235 1.386 . S
C234 C236 1.397 . S
C234 H258 0.931 . S
C235 C234 1.386 . S
C235 C239 1.397 . S
C236 C234 1.397 . S
C236 C237 1.384 . S
C236 H259 0.930 . S
C237 C236 1.384 . S
C237 C238 1.377 . S
C237 C240 1.481 . S
C238 C237 1.377 . S
C238 C239 1.389 . S
C238 H260 0.929 . S
C239 C235 1.397 . S
C239 C238 1.389 . S
C239 H261 0.931 . S
C240 C237 1.481 . S
C240 C241 1.387 . S
C240 C245 1.390 . S
C241 C240 1.387 . S
C241 C242 1.401 . S
C241 H262 0.930 . S
C242 C241 1.401 . S
C242 C243 1.376 . S
C242 C251 1.511 . S
C243 C242 1.376 . S
C243 C244 1.392 . S
C243 H264 0.931 . S
C244 C243 1.392 . S
C244 C245 1.361 . S
C244 C246 1.500 . S
C245 C240 1.390 . S
C245 C244 1.361 . S
C245 H263 0.931 . S
C246 C244 1.500 . S
C246 C247 1.371 . S
C246 C248 1.365 . S
C247 C246 1.371 . S
C247 C257 1.386 . S
C247 H265 0.931 . S
C248 C246 1.365 . S
C248 C249 1.409 . S
C248 H266 0.929 . S
C249 C248 1.409 . S
C249 C250 1.380 . S
C249 H267 0.930 . S
C250 C249 1.380 . S
C250 C257 1.357 . S
C251 C242 1.511 . S
C251 C252 1.341 . S
C251 C253 1.371 . S
C252 C251 1.341 . S
C252 C256 1.394 . S
C252 H268 0.930 . S
C253 C251 1.371 . S
C253 C254 1.392 . S
C253 H269 0.931 . S
C254 C253 1.392 . S
C254 C255 1.331 . S
C254 H272 0.932 . S
C255 C254 1.331 . S
C255 C256 1.336 . S
C256 C252 1.394 . S
C256 C255 1.336 . S
C256 H271 0.929 . S
C257 C247 1.386 . S
C257 C250 1.357 . S
C257 H270 0.928 . S
H258 C234 0.931 . S
H259 C236 0.930 . S
H260 C238 0.929 . S
H261 C239 0.931 . S
H262 C241 0.930 . S
H263 C245 0.931 . S
H264 C243 0.931 . S
H265 C247 0.931 . S
H266 C248 0.929 . S
H267 C249 0.930 . S
H268 C252 0.930 . S
H269 C253 0.931 . S
H270 C257 0.928 . S
H271 C256 0.929 . S
H272 C254 0.932 . S
C273 C274 1.386 . S
C273 C275 1.397 . S
C273 H297 0.931 . S
C274 C273 1.386 . S
C274 C278 1.397 . S
C275 C273 1.397 . S
C275 C276 1.384 . S
C275 H298 0.930 . S
C276 C275 1.384 . S
C276 C277 1.377 . S
C276 C279 1.481 . S
C277 C276 1.377 . S
C277 C278 1.389 . S
C277 H299 0.929 . S
C278 C274 1.397 . S
C278 C277 1.389 . S
C278 H300 0.931 . S
C279 C276 1.481 . S
C279 C280 1.387 . S
C279 C284 1.390 . S
C280 C279 1.387 . S
C280 C281 1.401 . S
C280 H301 0.930 . S
C281 C280 1.401 . S
C281 C282 1.376 . S
C281 C290 1.511 . S
C282 C281 1.376 . S
C282 C283 1.392 . S
C282 H303 0.931 . S
C283 C282 1.392 . S
C283 C284 1.361 . S
C283 C285 1.500 . S
C284 C279 1.390 . S
C284 C283 1.361 . S
C284 H302 0.931 . S
C285 C283 1.500 . S
C285 C286 1.371 . S
C285 C287 1.365 . S
C286 C285 1.371 . S
C286 C296 1.386 . S
C286 H304 0.931 . S
C287 C285 1.365 . S
C287 C288 1.409 . S
C287 H305 0.929 . S
C288 C287 1.409 . S
C288 C289 1.380 . S
C288 H306 0.930 . S
C289 C288 1.380 . S
C289 C296 1.357 . S
C290 C281 1.511 . S
C290 C291 1.341 . S
C290 C292 1.371 . S
C291 C290 1.341 . S
C291 C295 1.394 . S
C291 H307 0.930 . S
C292 C290 1.371 . S
C292 C293 1.392 . S
C292 H308 0.931 . S
C293 C292 1.392 . S
C293 C294 1.331 . S
C293 H311 0.932 . S
C294 C293 1.331 . S
C294 C295 1.336 . S
C295 C291 1.394 . S
C295 C294 1.336 . S
C295 H310 0.929 . S
C296 C286 1.386 . S
C296 C289 1.357 . S
C296 H309 0.928 . S
H297 C273 0.931 . S
H298 C275 0.930 . S
H299 C277 0.929 . S
H300 C278 0.931 . S
H301 C280 0.930 . S
H302 C284 0.931 . S
H303 C282 0.931 . S
H304 C286 0.931 . S
H305 C287 0.929 . S
H306 C288 0.930 . S
H307 C291 0.930 . S
H308 C292 0.931 . S
H309 C296 0.928 . S
H310 C295 0.929 . S
H311 C293 0.932 . S
C312 C313 1.386 . S
C312 C314 1.397 . S
C312 H336 0.931 . S
C313 C312 1.386 . S
C313 C317 1.397 . S
C314 C312 1.397 . S
C314 C315 1.384 . S
C314 H337 0.930 . S
C315 C314 1.384 . S
C315 C316 1.377 . S
C315 C318 1.481 . S
C316 C315 1.377 . S
C316 C317 1.389 . S
C316 H338 0.929 . S
C317 C313 1.397 . S
C317 C316 1.389 . S
C317 H339 0.931 . S
C318 C315 1.481 . S
C318 C319 1.387 . S
C318 C323 1.390 . S
C319 C318 1.387 . S
C319 C320 1.401 . S
C319 H340 0.930 . S
C320 C319 1.401 . S
C320 C321 1.376 . S
C320 C329 1.511 . S
C321 C320 1.376 . S
C321 C322 1.392 . S
C321 H342 0.931 . S
C322 C321 1.392 . S
C322 C323 1.361 . S
C322 C324 1.500 . S
C323 C318 1.390 . S
C323 C322 1.361 . S
C323 H341 0.931 . S
C324 C322 1.500 . S
C324 C325 1.371 . S
C324 C326 1.365 . S
C325 C324 1.371 . S
C325 C335 1.386 . S
C325 H343 0.931 . S
C326 C324 1.365 . S
C326 C327 1.409 . S
C326 H344 0.929 . S
C327 C326 1.409 . S
C327 C328 1.380 . S
C327 H345 0.930 . S
C328 C327 1.380 . S
C328 C335 1.357 . S
C329 C320 1.511 . S
C329 C330 1.341 . S
C329 C331 1.371 . S
C330 C329 1.341 . S
C330 C334 1.394 . S
C330 H346 0.930 . S
C331 C329 1.371 . S
C331 C332 1.392 . S
C331 H347 0.931 . S
C332 C331 1.392 . S
C332 C333 1.331 . S
C332 H350 0.932 . S
C333 C332 1.331 . S
C333 C334 1.336 . S
C334 C330 1.394 . S
C334 C333 1.336 . S
C334 H349 0.929 . S
C335 C325 1.386 . S
C335 C328 1.357 . S
C335 H348 0.928 . S
H336 C312 0.931 . S
H337 C314 0.930 . S
H338 C316 0.929 . S
H339 C317 0.931 . S
H340 C319 0.930 . S
H341 C323 0.931 . S
H342 C321 0.931 . S
H343 C325 0.931 . S
H344 C326 0.929 . S
H345 C327 0.930 . S
H346 C330 0.930 . S
H347 C331 0.931 . S
H348 C335 0.928 . S
H349 C334 0.929 . S
H350 C332 0.932 . S
C351 C352 1.386 . S
C351 C353 1.397 . S
C351 H375 0.931 . S
C352 C351 1.386 . S
C352 C356 1.397 . S
C353 C351 1.397 . S
C353 C354 1.384 . S
C353 H376 0.930 . S
C354 C353 1.384 . S
C354 C355 1.377 . S
C354 C357 1.481 . S
C355 C354 1.377 . S
C355 C356 1.389 . S
C355 H377 0.929 . S
C356 C352 1.397 . S
C356 C355 1.389 . S
C356 H378 0.931 . S
C357 C354 1.481 . S
C357 C358 1.387 . S
C357 C362 1.390 . S
C358 C357 1.387 . S
C358 C359 1.401 . S
C358 H379 0.930 . S
C359 C358 1.401 . S
C359 C360 1.376 . S
C359 C368 1.511 . S
C360 C359 1.376 . S
C360 C361 1.392 . S
C360 H381 0.931 . S
C361 C360 1.392 . S
C361 C362 1.361 . S
C361 C363 1.500 . S
C362 C357 1.390 . S
C362 C361 1.361 . S
C362 H380 0.931 . S
C363 C361 1.500 . S
C363 C364 1.371 . S
C363 C365 1.365 . S
C364 C363 1.371 . S
C364 C374 1.386 . S
C364 H382 0.931 . S
C365 C363 1.365 . S
C365 C366 1.409 . S
C365 H383 0.929 . S
C366 C365 1.409 . S
C366 C367 1.380 . S
C366 H384 0.930 . S
C367 C366 1.380 . S
C367 C374 1.357 . S
C368 C359 1.511 . S
C368 C369 1.341 . S
C368 C370 1.371 . S
C369 C368 1.341 . S
C369 C373 1.394 . S
C369 H385 0.930 . S
C370 C368 1.371 . S
C370 C371 1.392 . S
C370 H386 0.931 . S
C371 C370 1.392 . S
C371 C372 1.331 . S
C371 H389 0.932 . S
C372 C371 1.331 . S
C372 C373 1.336 . S
C373 C369 1.394 . S
C373 C372 1.336 . S
C373 H388 0.929 . S
C374 C364 1.386 . S
C374 C367 1.357 . S
C374 H387 0.928 . S
H375 C351 0.931 . S
H376 C353 0.930 . S
H377 C355 0.929 . S
H378 C356 0.931 . S
H379 C358 0.930 . S
H380 C362 0.931 . S
H381 C360 0.931 . S
H382 C364 0.931 . S
H383 C365 0.929 . S
H384 C366 0.930 . S
H385 C369 0.930 . S
H386 C370 0.931 . S
H387 C374 0.928 . S
H388 C373 0.929 . S
H389 C371 0.932 . S
C390 C391 1.386 . S
C390 C392 1.397 . S
C390 H414 0.931 . S
C391 C390 1.386 . S
C391 C395 1.397 . S
C392 C390 1.397 . S
C392 C393 1.384 . S
C392 H415 0.930 . S
C393 C392 1.384 . S
C393 C394 1.377 . S
C393 C396 1.481 . S
C394 C393 1.377 . S
C394 C395 1.389 . S
C394 H416 0.929 . S
C395 C391 1.397 . S
C395 C394 1.389 . S
C395 H417 0.931 . S
C396 C393 1.481 . S
C396 C397 1.387 . S
C396 C401 1.390 . S
C397 C396 1.387 . S
C397 C398 1.401 . S
C397 H418 0.930 . S
C398 C397 1.401 . S
C398 C399 1.376 . S
C398 C407 1.511 . S
C399 C398 1.376 . S
C399 C400 1.392 . S
C399 H420 0.931 . S
C400 C399 1.392 . S
C400 C401 1.361 . S
C400 C402 1.500 . S
C401 C396 1.390 . S
C401 C400 1.361 . S
C401 H419 0.931 . S
C402 C400 1.500 . S
C402 C403 1.371 . S
C402 C404 1.365 . S
C403 C402 1.371 . S
C403 C413 1.386 . S
C403 H421 0.931 . S
C404 C402 1.365 . S
C404 C405 1.409 . S
C404 H422 0.929 . S
C405 C404 1.409 . S
C405 C406 1.380 . S
C405 H423 0.930 . S
C406 C405 1.380 . S
C406 C413 1.357 . S
C407 C398 1.511 . S
C407 C408 1.341 . S
C407 C409 1.371 . S
C408 C407 1.341 . S
C408 C412 1.394 . S
C408 H424 0.930 . S
C409 C407 1.371 . S
C409 C410 1.392 . S
C409 H425 0.931 . S
C410 C409 1.392 . S
C410 C411 1.331 . S
C410 H428 0.932 . S
C411 C410 1.331 . S
C411 C412 1.336 . S
C412 C408 1.394 . S
C412 C411 1.336 . S
C412 H427 0.929 . S
C413 C403 1.386 . S
C413 C406 1.357 . S
C413 H426 0.928 . S
H414 C390 0.931 . S
H415 C392 0.930 . S
H416 C394 0.929 . S
H417 C395 0.931 . S
H418 C397 0.930 . S
H419 C401 0.931 . S
H420 C399 0.931 . S
H421 C403 0.931 . S
H422 C404 0.929 . S
H423 C405 0.930 . S
H424 C408 0.930 . S
H425 C409 0.931 . S
H426 C413 0.928 . S
H427 C412 0.929 . S
H428 C410 0.932 . S
C429 C430 1.386 . S
C429 C431 1.397 . S
C429 H453 0.931 . S
C430 C429 1.386 . S
C430 C434 1.397 . S
C431 C429 1.397 . S
C431 C432 1.384 . S
C431 H454 0.930 . S
C432 C431 1.384 . S
C432 C433 1.377 . S
C432 C435 1.481 . S
C433 C432 1.377 . S
C433 C434 1.389 . S
C433 H455 0.929 . S
C434 C430 1.397 . S
C434 C433 1.389 . S
C434 H456 0.931 . S
C435 C432 1.481 . S
C435 C436 1.387 . S
C435 C440 1.390 . S
C436 C435 1.387 . S
C436 C437 1.401 . S
C436 H457 0.930 . S
C437 C436 1.401 . S
C437 C438 1.376 . S
C437 C446 1.511 . S
C438 C437 1.376 . S
C438 C439 1.392 . S
C438 H459 0.931 . S
C439 C438 1.392 . S
C439 C440 1.361 . S
C439 C441 1.500 . S
C440 C435 1.390 . S
C440 C439 1.361 . S
C440 H458 0.931 . S
C441 C439 1.500 . S
C441 C442 1.371 . S
C441 C443 1.365 . S
C442 C441 1.371 . S
C442 C452 1.386 . S
C442 H460 0.931 . S
C443 C441 1.365 . S
C443 C444 1.409 . S
C443 H461 0.929 . S
C444 C443 1.409 . S
C444 C445 1.380 . S
C444 H462 0.930 . S
C445 C444 1.380 . S
C445 C452 1.357 . S
C446 C437 1.511 . S
C446 C447 1.341 . S
C446 C448 1.371 . S
C447 C446 1.341 . S
C447 C451 1.394 . S
C447 H463 0.930 . S
C448 C446 1.371 . S
C448 C449 1.392 . S
C448 H464 0.931 . S
C449 C448 1.392 . S
C449 C450 1.331 . S
C449 H467 0.932 . S
C450 C449 1.331 . S
C450 C451 1.336 . S
C451 C447 1.394 . S
C451 C450 1.336 . S
C451 H466 0.929 . S
C452 C442 1.386 . S
C452 C445 1.357 . S
C452 H465 0.928 . S
H453 C429 0.931 . S
H454 C431 0.930 . S
H455 C433 0.929 . S
H456 C434 0.931 . S
H457 C436 0.930 . S
H458 C440 0.931 . S
H459 C438 0.931 . S
H460 C442 0.931 . S
H461 C443 0.929 . S
H462 C444 0.930 . S
H463 C447 0.930 . S
H464 C448 0.931 . S
H465 C452 0.928 . S
H466 C451 0.929 . S
H467 C449 0.932 . S
C468 C469 1.386 . S
C468 C470 1.397 . S
C468 H492 0.931 . S
C469 C468 1.386 . S
C469 C473 1.397 . S
C470 C468 1.397 . S
C470 C471 1.384 . S
C470 H493 0.930 . S
C471 C470 1.384 . S
C471 C472 1.377 . S
C471 C474 1.481 . S
C472 C471 1.377 . S
C472 C473 1.389 . S
C472 H494 0.929 . S
C473 C469 1.397 . S
C473 C472 1.389 . S
C473 H495 0.931 . S
C474 C471 1.481 . S
C474 C475 1.387 . S
C474 C479 1.390 . S
C475 C474 1.387 . S
C475 C476 1.401 . S
C475 H496 0.930 . S
C476 C475 1.401 . S
C476 C477 1.376 . S
C476 C485 1.511 . S
C477 C476 1.376 . S
C477 C478 1.392 . S
C477 H498 0.931 . S
C478 C477 1.392 . S
C478 C479 1.361 . S
C478 C480 1.500 . S
C479 C474 1.390 . S
C479 C478 1.361 . S
C479 H497 0.931 . S
C480 C478 1.500 . S
C480 C481 1.371 . S
C480 C482 1.365 . S
C481 C480 1.371 . S
C481 C491 1.386 . S
C481 H499 0.931 . S
C482 C480 1.365 . S
C482 C483 1.409 . S
C482 H500 0.929 . S
C483 C482 1.409 . S
C483 C484 1.380 . S
C483 H501 0.930 . S
C484 C483 1.380 . S
C484 C491 1.357 . S
C485 C476 1.511 . S
C485 C486 1.341 . S
C485 C487 1.371 . S
C486 C485 1.341 . S
C486 C490 1.394 . S
C486 H502 0.930 . S
C487 C485 1.371 . S
C487 C488 1.392 . S
C487 H503 0.931 . S
C488 C487 1.392 . S
C488 C489 1.331 . S
C488 H506 0.932 . S
C489 C488 1.331 . S
C489 C490 1.336 . S
C490 C486 1.394 . S
C490 C489 1.336 . S
C490 H505 0.929 . S
C491 C481 1.386 . S
C491 C484 1.357 . S
C491 H504 0.928 . S
H492 C468 0.931 . S
H493 C470 0.930 . S
H494 C472 0.929 . S
H495 C473 0.931 . S
H496 C475 0.930 . S
H497 C479 0.931 . S
H498 C477 0.931 . S
H499 C481 0.931 . S
H500 C482 0.929 . S
H501 C483 0.930 . S
H502 C486 0.930 . S
H503 C487 0.931 . S
H504 C491 0.928 . S
H505 C490 0.929 . S
H506 C488 0.932 . S
C507 C508 1.386 . S
C507 C509 1.397 . S
C507 H531 0.931 . S
C508 C507 1.386 . S
C508 C512 1.397 . S
C509 C507 1.397 . S
C509 C510 1.384 . S
C509 H532 0.930 . S
C510 C509 1.384 . S
C510 C511 1.377 . S
C510 C513 1.481 . S
C511 C510 1.377 . S
C511 C512 1.389 . S
C511 H533 0.929 . S
C512 C508 1.397 . S
C512 C511 1.389 . S
C512 H534 0.931 . S
C513 C510 1.481 . S
C513 C514 1.387 . S
C513 C518 1.390 . S
C514 C513 1.387 . S
C514 C515 1.401 . S
C514 H535 0.930 . S
C515 C514 1.401 . S
C515 C516 1.376 . S
C515 C524 1.511 . S
C516 C515 1.376 . S
C516 C517 1.392 . S
C516 H537 0.931 . S
C517 C516 1.392 . S
C517 C518 1.361 . S
C517 C519 1.500 . S
C518 C513 1.390 . S
C518 C517 1.361 . S
C518 H536 0.931 . S
C519 C517 1.500 . S
C519 C520 1.371 . S
C519 C521 1.365 . S
C520 C519 1.371 . S
C520 C530 1.386 . S
C520 H538 0.931 . S
C521 C519 1.365 . S
C521 C522 1.409 . S
C521 H539 0.929 . S
C522 C521 1.409 . S
C522 C523 1.380 . S
C522 H540 0.930 . S
C523 C522 1.380 . S
C523 C530 1.357 . S
C524 C515 1.511 . S
C524 C525 1.341 . S
C524 C526 1.371 . S
C525 C524 1.341 . S
C525 C529 1.394 . S
C525 H541 0.930 . S
C526 C524 1.371 . S
C526 C527 1.392 . S
C526 H542 0.931 . S
C527 C526 1.392 . S
C527 C528 1.331 . S
C527 H545 0.932 . S
C528 C527 1.331 . S
C528 C529 1.336 . S
C529 C525 1.394 . S
C529 C528 1.336 . S
C529 H544 0.929 . S
C530 C520 1.386 . S
C530 C523 1.357 . S
C530 H543 0.928 . S
H531 C507 0.931 . S
H532 C509 0.930 . S
H533 C511 0.929 . S
H534 C512 0.931 . S
H535 C514 0.930 . S
H536 C518 0.931 . S
H537 C516 0.931 . S
H538 C520 0.931 . S
H539 C521 0.929 . S
H540 C522 0.930 . S
H541 C525 0.930 . S
H542 C526 0.931 . S
H543 C530 0.928 . S
H544 C529 0.929 . S
H545 C527 0.932 . S
C546 C547 1.386 . S
C546 C548 1.397 . S
C546 H570 0.931 . S
C547 C546 1.386 . S
C547 C551 1.397 . S
C548 C546 1.397 . S
C548 C549 1.384 . S
C548 H571 0.930 . S
C549 C548 1.384 . S
C549 C550 1.377 . S
C549 C552 1.481 . S
C550 C549 1.377 . S
C550 C551 1.389 . S
C550 H572 0.929 . S
C551 C547 1.397 . S
C551 C550 1.389 . S
C551 H573 0.931 . S
C552 C549 1.481 . S
C552 C553 1.387 . S
C552 C557 1.390 . S
C553 C552 1.387 . S
C553 C554 1.401 . S
C553 H574 0.930 . S
C554 C553 1.401 . S
C554 C555 1.376 . S
C554 C563 1.511 . S
C555 C554 1.376 . S
C555 C556 1.392 . S
C555 H576 0.931 . S
C556 C555 1.392 . S
C556 C557 1.361 . S
C556 C558 1.500 . S
C557 C552 1.390 . S
C557 C556 1.361 . S
C557 H575 0.931 . S
C558 C556 1.500 . S
C558 C559 1.371 . S
C558 C560 1.365 . S
C559 C558 1.371 . S
C559 C569 1.386 . S
C559 H577 0.931 . S
C560 C558 1.365 . S
C560 C561 1.409 . S
C560 H578 0.929 . S
C561 C560 1.409 . S
C561 C562 1.380 . S
C561 H579 0.930 . S
C562 C561 1.380 . S
C562 C569 1.357 . S
C563 C554 1.511 . S
C563 C564 1.341 . S
C563 C565 1.371 . S
C564 C563 1.341 . S
C564 C568 1.394 . S
C564 H580 0.930 . S
C565 C563 1.371 . S
C565 C566 1.392 . S
C565 H581 0.931 . S
C566 C565 1.392 . S
C566 C567 1.331 . S
C566 H584 0.932 . S
C567 C566 1.331 . S
C567 C568 1.336 . S
C568 C564 1.394 . S
C568 C567 1.336 . S
C568 H583 0.929 . S
C569 C559 1.386 . S
C569 C562 1.357 . S
C569 H582 0.928 . S
H570 C546 0.931 . S
H571 C548 0.930 . S
H572 C550 0.929 . S
H573 C551 0.931 . S
H574 C553 0.930 . S
H575 C557 0.931 . S
H576 C555 0.931 . S
H577 C559 0.931 . S
H578 C560 0.929 . S
H579 C561 0.930 . S
H580 C564 0.930 . S
H581 C565 0.931 . S
H582 C569 0.928 . S
H583 C568 0.929 . S
H584 C566 0.932 . S
C585 C586 1.386 . S
C585 C587 1.397 . S
C585 H609 0.931 . S
C586 C585 1.386 . S
C586 C590 1.397 . S
C587 C585 1.397 . S
C587 C588 1.384 . S
C587 H610 0.930 . S
C588 C587 1.384 . S
C588 C589 1.377 . S
C588 C591 1.481 . S
C589 C588 1.377 . S
C589 C590 1.389 . S
C589 H611 0.929 . S
C590 C586 1.397 . S
C590 C589 1.389 . S
C590 H612 0.931 . S
C591 C588 1.481 . S
C591 C592 1.387 . S
C591 C596 1.390 . S
C592 C591 1.387 . S
C592 C593 1.401 . S
C592 H613 0.930 . S
C593 C592 1.401 . S
C593 C594 1.376 . S
C593 C602 1.511 . S
C594 C593 1.376 . S
C594 C595 1.392 . S
C594 H615 0.931 . S
C595 C594 1.392 . S
C595 C596 1.361 . S
C595 C597 1.500 . S
C596 C591 1.390 . S
C596 C595 1.361 . S
C596 H614 0.931 . S
C597 C595 1.500 . S
C597 C598 1.371 . S
C597 C599 1.365 . S
C598 C597 1.371 . S
C598 C608 1.386 . S
C598 H616 0.931 . S
C599 C597 1.365 . S
C599 C600 1.409 . S
C599 H617 0.929 . S
C600 C599 1.409 . S
C600 C601 1.380 . S
C600 H618 0.930 . S
C601 C600 1.380 . S
C601 C608 1.357 . S
C602 C593 1.511 . S
C602 C603 1.341 . S
C602 C604 1.371 . S
C603 C602 1.341 . S
C603 C607 1.394 . S
C603 H619 0.930 . S
C604 C602 1.371 . S
C604 C605 1.392 . S
C604 H620 0.931 . S
C605 C604 1.392 . S
C605 C606 1.331 . S
C605 H623 0.932 . S
C606 C605 1.331 . S
C606 C607 1.336 . S
C607 C603 1.394 . S
C607 C606 1.336 . S
C607 H622 0.929 . S
C608 C598 1.386 . S
C608 C601 1.357 . S
C608 H621 0.928 . S
H609 C585 0.931 . S
H610 C587 0.930 . S
H611 C589 0.929 . S
H612 C590 0.931 . S
H613 C592 0.930 . S
H614 C596 0.931 . S
H615 C594 0.931 . S
H616 C598 0.931 . S
H617 C599 0.929 . S
H618 C600 0.930 . S
H619 C603 0.930 . S
H620 C604 0.931 . S
H621 C608 0.928 . S
H622 C607 0.929 . S
H623 C605 0.932 . S
C624 C625 1.386 . S
C624 C626 1.397 . S
C624 H648 0.931 . S
C625 C624 1.386 . S
C625 C629 1.397 . S
C626 C624 1.397 . S
C626 C627 1.384 . S
C626 H649 0.930 . S
C627 C626 1.384 . S
C627 C628 1.377 . S
C627 C630 1.481 . S
C628 C627 1.377 . S
C628 C629 1.389 . S
C628 H650 0.929 . S
C629 C625 1.397 . S
C629 C628 1.389 . S
C629 H651 0.931 . S
C630 C627 1.481 . S
C630 C631 1.387 . S
C630 C635 1.390 . S
C631 C630 1.387 . S
C631 C632 1.401 . S
C631 H652 0.930 . S
C632 C631 1.401 . S
C632 C633 1.376 . S
C632 C641 1.511 . S
C633 C632 1.376 . S
C633 C634 1.392 . S
C633 H654 0.931 . S
C634 C633 1.392 . S
C634 C635 1.361 . S
C634 C636 1.500 . S
C635 C630 1.390 . S
C635 C634 1.361 . S
C635 H653 0.931 . S
C636 C634 1.500 . S
C636 C637 1.371 . S
C636 C638 1.365 . S
C637 C636 1.371 . S
C637 C647 1.386 . S
C637 H655 0.931 . S
C638 C636 1.365 . S
C638 C639 1.409 . S
C638 H656 0.929 . S
C639 C638 1.409 . S
C639 C640 1.380 . S
C639 H657 0.930 . S
C640 C639 1.380 . S
C640 C647 1.357 . S
C641 C632 1.511 . S
C641 C642 1.341 . S
C641 C643 1.371 . S
C642 C641 1.341 . S
C642 C646 1.394 . S
C642 H658 0.930 . S
C643 C641 1.371 . S
C643 C644 1.392 . S
C643 H659 0.931 . S
C644 C643 1.392 . S
C644 C645 1.331 . S
C644 H662 0.932 . S
C645 C644 1.331 . S
C645 C646 1.336 . S
C646 C642 1.394 . S
C646 C645 1.336 . S
C646 H661 0.929 . S
C647 C637 1.386 . S
C647 C640 1.357 . S
C647 H660 0.928 . S
H648 C624 0.931 . S
H649 C626 0.930 . S
H650 C628 0.929 . S
H651 C629 0.931 . S
H652 C631 0.930 . S
H653 C635 0.931 . S
H654 C633 0.931 . S
H655 C637 0.931 . S
H656 C638 0.929 . S
H657 C639 0.930 . S
H658 C642 0.930 . S
H659 C643 0.931 . S
H660 C647 0.928 . S
H661 C646 0.929 . S
H662 C644 0.932 . S
C663 C664 1.386 . S
C663 C665 1.397 . S
C663 H687 0.931 . S
C664 C663 1.386 . S
C664 C668 1.397 . S
C665 C663 1.397 . S
C665 C666 1.384 . S
C665 H688 0.930 . S
C666 C665 1.384 . S
C666 C667 1.377 . S
C666 C669 1.481 . S
C667 C666 1.377 . S
C667 C668 1.389 . S
C667 H689 0.929 . S
C668 C664 1.397 . S
C668 C667 1.389 . S
C668 H690 0.931 . S
C669 C666 1.481 . S
C669 C670 1.387 . S
C669 C674 1.390 . S
C670 C669 1.387 . S
C670 C671 1.401 . S
C670 H691 0.930 . S
C671 C670 1.401 . S
C671 C672 1.376 . S
C671 C680 1.511 . S
C672 C671 1.376 . S
C672 C673 1.392 . S
C672 H693 0.931 . S
C673 C672 1.392 . S
C673 C674 1.361 . S
C673 C675 1.500 . S
C674 C669 1.390 . S
C674 C673 1.361 . S
C674 H692 0.931 . S
C675 C673 1.500 . S
C675 C676 1.371 . S
C675 C677 1.365 . S
C676 C675 1.371 . S
C676 C686 1.386 . S
C676 H694 0.931 . S
C677 C675 1.365 . S
C677 C678 1.409 . S
C677 H695 0.929 . S
C678 C677 1.409 . S
C678 C679 1.380 . S
C678 H696 0.930 . S
C679 C678 1.380 . S
C679 C686 1.357 . S
C680 C671 1.511 . S
C680 C681 1.341 . S
C680 C682 1.371 . S
C681 C680 1.341 . S
C681 C685 1.394 . S
C681 H697 0.930 . S
C682 C680 1.371 . S
C682 C683 1.392 . S
C682 H698 0.931 . S
C683 C682 1.392 . S
C683 C684 1.331 . S
C683 H701 0.932 . S
C684 C683 1.331 . S
C684 C685 1.336 . S
C685 C681 1.394 . S
C685 C684 1.336 . S
C685 H700 0.929 . S
C686 C676 1.386 . S
C686 C679 1.357 . S
C686 H699 0.928 . S
H687 C663 0.931 . S
H688 C665 0.930 . S
H689 C667 0.929 . S
H690 C668 0.931 . S
H691 C670 0.930 . S
H692 C674 0.931 . S
H693 C672 0.931 . S
H694 C676 0.931 . S
H695 C677 0.929 . S
H696 C678 0.930 . S
H697 C681 0.930 . S
H698 C682 0.931 . S
H699 C686 0.928 . S
H700 C685 0.929 . S
H701 C683 0.932 . S
C702 C703 1.386 . S
C702 C704 1.397 . S
C702 H726 0.931 . S
C703 C702 1.386 . S
C703 C707 1.397 . S
C704 C702 1.397 . S
C704 C705 1.384 . S
C704 H727 0.930 . S
C705 C704 1.384 . S
C705 C706 1.377 . S
C705 C708 1.481 . S
C706 C705 1.377 . S
C706 C707 1.389 . S
C706 H728 0.929 . S
C707 C703 1.397 . S
C707 C706 1.389 . S
C707 H729 0.931 . S
C708 C705 1.481 . S
C708 C709 1.387 . S
C708 C713 1.390 . S
C709 C708 1.387 . S
C709 C710 1.401 . S
C709 H730 0.930 . S
C710 C709 1.401 . S
C710 C711 1.376 . S
C710 C719 1.511 . S
C711 C710 1.376 . S
C711 C712 1.392 . S
C711 H732 0.931 . S
C712 C711 1.392 . S
C712 C713 1.361 . S
C712 C714 1.500 . S
C713 C708 1.390 . S
C713 C712 1.361 . S
C713 H731 0.931 . S
C714 C712 1.500 . S
C714 C715 1.371 . S
C714 C716 1.365 . S
C715 C714 1.371 . S
C715 C725 1.386 . S
C715 H733 0.931 . S
C716 C714 1.365 . S
C716 C717 1.409 . S
C716 H734 0.929 . S
C717 C716 1.409 . S
C717 C718 1.380 . S
C717 H735 0.930 . S
C718 C717 1.380 . S
C718 C725 1.357 . S
C719 C710 1.511 . S
C719 C720 1.341 . S
C719 C721 1.371 . S
C720 C719 1.341 . S
C720 C724 1.394 . S
C720 H736 0.930 . S
C721 C719 1.371 . S
C721 C722 1.392 . S
C721 H737 0.931 . S
C722 C721 1.392 . S
C722 C723 1.331 . S
C722 H740 0.932 . S
C723 C722 1.331 . S
C723 C724 1.336 . S
C724 C720 1.394 . S
C724 C723 1.336 . S
C724 H739 0.929 . S
C725 C715 1.386 . S
C725 C718 1.357 . S
C725 H738 0.928 . S
H726 C702 0.931 . S
H727 C704 0.930 . S
H728 C706 0.929 . S
H729 C707 0.931 . S
H730 C709 0.930 . S
H731 C713 0.931 . S
H732 C711 0.931 . S
H733 C715 0.931 . S
H734 C716 0.929 . S
H735 C717 0.930 . S
H736 C720 0.930 . S
H737 C721 0.931 . S
H738 C725 0.928 . S
H739 C724 0.929 . S
H740 C722 0.932 . S
C741 C742 1.386 . S
C741 C743 1.397 . S
C741 H765 0.931 . S
C742 C741 1.386 . S
C742 C746 1.397 . S
C743 C741 1.397 . S
C743 C744 1.384 . S
C743 H766 0.930 . S
C744 C743 1.384 . S
C744 C745 1.377 . S
C744 C747 1.481 . S
C745 C744 1.377 . S
C745 C746 1.389 . S
C745 H767 0.929 . S
C746 C742 1.397 . S
C746 C745 1.389 . S
C746 H768 0.931 . S
C747 C744 1.481 . S
C747 C748 1.387 . S
C747 C752 1.390 . S
C748 C747 1.387 . S
C748 C749 1.401 . S
C748 H769 0.930 . S
C749 C748 1.401 . S
C749 C750 1.376 . S
C749 C758 1.511 . S
C750 C749 1.376 . S
C750 C751 1.392 . S
C750 H771 0.931 . S
C751 C750 1.392 . S
C751 C752 1.361 . S
C751 C753 1.500 . S
C752 C747 1.390 . S
C752 C751 1.361 . S
C752 H770 0.931 . S
C753 C751 1.500 . S
C753 C754 1.371 . S
C753 C755 1.365 . S
C754 C753 1.371 . S
C754 C764 1.386 . S
C754 H772 0.931 . S
C755 C753 1.365 . S
C755 C756 1.409 . S
C755 H773 0.929 . S
C756 C755 1.409 . S
C756 C757 1.380 . S
C756 H774 0.930 . S
C757 C756 1.380 . S
C757 C764 1.357 . S
C758 C749 1.511 . S
C758 C759 1.341 . S
C758 C760 1.371 . S
C759 C758 1.341 . S
C759 C763 1.394 . S
C759 H775 0.930 . S
C760 C758 1.371 . S
C760 C761 1.392 . S
C760 H776 0.931 . S
C761 C760 1.392 . S
C761 C762 1.331 . S
C761 H779 0.932 . S
C762 C761 1.331 . S
C762 C763 1.336 . S
C763 C759 1.394 . S
C763 C762 1.336 . S
C763 H778 0.929 . S
C764 C754 1.386 . S
C764 C757 1.357 . S
C764 H777 0.928 . S
H765 C741 0.931 . S
H766 C743 0.930 . S
H767 C745 0.929 . S
H768 C746 0.931 . S
H769 C748 0.930 . S
H770 C752 0.931 . S
H771 C750 0.931 . S
H772 C754 0.931 . S
H773 C755 0.929 . S
H774 C756 0.930 . S
H775 C759 0.930 . S
H776 C760 0.931 . S
H777 C764 0.928 . S
H778 C763 0.929 . S
H779 C761 0.932 . S
C780 C781 1.386 . S
C780 C782 1.397 . S
C780 H804 0.931 . S
C781 C780 1.386 . S
C781 C785 1.397 . S
C782 C780 1.397 . S
C782 C783 1.384 . S
C782 H805 0.930 . S
C783 C782 1.384 . S
C783 C784 1.377 . S
C783 C786 1.481 . S
C784 C783 1.377 . S
C784 C785 1.389 . S
C784 H806 0.929 . S
C785 C781 1.397 . S
C785 C784 1.389 . S
C785 H807 0.931 . S
C786 C783 1.481 . S
C786 C787 1.387 . S
C786 C791 1.390 . S
C787 C786 1.387 . S
C787 C788 1.401 . S
C787 H808 0.930 . S
C788 C787 1.401 . S
C788 C789 1.376 . S
C788 C797 1.511 . S
C789 C788 1.376 . S
C789 C790 1.392 . S
C789 H810 0.931 . S
C790 C789 1.392 . S
C790 C791 1.361 . S
C790 C792 1.500 . S
C791 C786 1.390 . S
C791 C790 1.361 . S
C791 H809 0.931 . S
C792 C790 1.500 . S
C792 C793 1.371 . S
C792 C794 1.365 . S
C793 C792 1.371 . S
C793 C803 1.386 . S
C793 H811 0.931 . S
C794 C792 1.365 . S
C794 C795 1.409 . S
C794 H812 0.929 . S
C795 C794 1.409 . S
C795 C796 1.380 . S
C795 H813 0.930 . S
C796 C795 1.380 . S
C796 C803 1.357 . S
C797 C788 1.511 . S
C797 C798 1.341 . S
C797 C799 1.371 . S
C798 C797 1.341 . S
C798 C802 1.394 . S
C798 H814 0.930 . S
C799 C797 1.371 . S
C799 C800 1.392 . S
C799 H815 0.931 . S
C800 C799 1.392 . S
C800 C801 1.331 . S
C800 H818 0.932 . S
C801 C800 1.331 . S
C801 C802 1.336 . S
C802 C798 1.394 . S
C802 C801 1.336 . S
C802 H817 0.929 . S
C803 C793 1.386 . S
C803 C796 1.357 . S
C803 H816 0.928 . S
H804 C780 0.931 . S
H805 C782 0.930 . S
H806 C784 0.929 . S
H807 C785 0.931 . S
H808 C787 0.930 . S
H809 C791 0.931 . S
H810 C789 0.931 . S
H811 C793 0.931 . S
H812 C794 0.929 . S
H813 C795 0.930 . S
H814 C798 0.930 . S
H815 C799 0.931 . S
H816 C803 0.928 . S
H817 C802 0.929 . S
H818 C800 0.932 . S
C819 C820 1.386 . S
C819 C821 1.397 . S
C819 H843 0.931 . S
C820 C819 1.386 . S
C820 C824 1.397 . S
C821 C819 1.397 . S
C821 C822 1.384 . S
C821 H844 0.930 . S
C822 C821 1.384 . S
C822 C823 1.377 . S
C822 C825 1.481 . S
C823 C822 1.377 . S
C823 C824 1.389 . S
C823 H845 0.929 . S
C824 C820 1.397 . S
C824 C823 1.389 . S
C824 H846 0.931 . S
C825 C822 1.481 . S
C825 C826 1.387 . S
C825 C830 1.390 . S
C826 C825 1.387 . S
C826 C827 1.401 . S
C826 H847 0.930 . S
C827 C826 1.401 . S
C827 C828 1.376 . S
C827 C836 1.511 . S
C828 C827 1.376 . S
C828 C829 1.392 . S
C828 H849 0.931 . S
C829 C828 1.392 . S
C829 C830 1.361 . S
C829 C831 1.500 . S
C830 C825 1.390 . S
C830 C829 1.361 . S
C830 H848 0.931 . S
C831 C829 1.500 . S
C831 C832 1.371 . S
C831 C833 1.365 . S
C832 C831 1.371 . S
C832 C842 1.386 . S
C832 H850 0.931 . S
C833 C831 1.365 . S
C833 C834 1.409 . S
C833 H851 0.929 . S
C834 C833 1.409 . S
C834 C835 1.380 . S
C834 H852 0.930 . S
C835 C834 1.380 . S
C835 C842 1.357 . S
C836 C827 1.511 . S
C836 C837 1.341 . S
C836 C838 1.371 . S
C837 C836 1.341 . S
C837 C841 1.394 . S
C837 H853 0.930 . S
C838 C836 1.371 . S
C838 C839 1.392 . S
C838 H854 0.931 . S
C839 C838 1.392 . S
C839 C840 1.331 . S
C839 H857 0.932 . S
C840 C839 1.331 . S
C840 C841 1.336 . S
C841 C837 1.394 . S
C841 C840 1.336 . S
C841 H856 0.929 . S
C842 C832 1.386 . S
C842 C835 1.357 . S
C842 H855 0.928 . S
H843 C819 0.931 . S
H844 C821 0.930 . S
H845 C823 0.929 . S
H846 C824 0.931 . S
H847 C826 0.930 . S
H848 C830 0.931 . S
H849 C828 0.931 . S
H850 C832 0.931 . S
H851 C833 0.929 . S
H852 C834 0.930 . S
H853 C837 0.930 . S
H854 C838 0.931 . S
H855 C842 0.928 . S
H856 C841 0.929 . S
H857 C839 0.932 . S
C858 C859 1.386 . S
C858 C860 1.397 . S
C858 H882 0.931 . S
C859 C858 1.386 . S
C859 C863 1.397 . S
C860 C858 1.397 . S
C860 C861 1.384 . S
C860 H883 0.930 . S
C861 C860 1.384 . S
C861 C862 1.377 . S
C861 C864 1.481 . S
C862 C861 1.377 . S
C862 C863 1.389 . S
C862 H884 0.929 . S
C863 C859 1.397 . S
C863 C862 1.389 . S
C863 H885 0.931 . S
C864 C861 1.481 . S
C864 C865 1.387 . S
C864 C869 1.390 . S
C865 C864 1.387 . S
C865 C866 1.401 . S
C865 H886 0.930 . S
C866 C865 1.401 . S
C866 C867 1.376 . S
C866 C875 1.511 . S
C867 C866 1.376 . S
C867 C868 1.392 . S
C867 H888 0.931 . S
C868 C867 1.392 . S
C868 C869 1.361 . S
C868 C870 1.500 . S
C869 C864 1.390 . S
C869 C868 1.361 . S
C869 H887 0.931 . S
C870 C868 1.500 . S
C870 C871 1.371 . S
C870 C872 1.365 . S
C871 C870 1.371 . S
C871 C881 1.386 . S
C871 H889 0.931 . S
C872 C870 1.365 . S
C872 C873 1.409 . S
C872 H890 0.929 . S
C873 C872 1.409 . S
C873 C874 1.380 . S
C873 H891 0.930 . S
C874 C873 1.380 . S
C874 C881 1.357 . S
C875 C866 1.511 . S
C875 C876 1.341 . S
C875 C877 1.371 . S
C876 C875 1.341 . S
C876 C880 1.394 . S
C876 H892 0.930 . S
C877 C875 1.371 . S
C877 C878 1.392 . S
C877 H893 0.931 . S
C878 C877 1.392 . S
C878 C879 1.331 . S
C878 H896 0.932 . S
C879 C878 1.331 . S
C879 C880 1.336 . S
C880 C876 1.394 . S
C880 C879 1.336 . S
C880 H895 0.929 . S
C881 C871 1.386 . S
C881 C874 1.357 . S
C881 H894 0.928 . S
H882 C858 0.931 . S
H883 C860 0.930 . S
H884 C862 0.929 . S
H885 C863 0.931 . S
H886 C865 0.930 . S
H887 C869 0.931 . S
H888 C867 0.931 . S
H889 C871 0.931 . S
H890 C872 0.929 . S
H891 C873 0.930 . S
H892 C876 0.930 . S
H893 C877 0.931 . S
H894 C881 0.928 . S
H895 C880 0.929 . S
H896 C878 0.932 . S
C897 C898 1.386 . S
C897 C899 1.397 . S
C897 H921 0.931 . S
C898 C897 1.386 . S
C898 C902 1.397 . S
C899 C897 1.397 . S
C899 C900 1.384 . S
C899 H922 0.930 . S
C900 C899 1.384 . S
C900 C901 1.377 . S
C900 C903 1.481 . S
C901 C900 1.377 . S
C901 C902 1.389 . S
C901 H923 0.929 . S
C902 C898 1.397 . S
C902 C901 1.389 . S
C902 H924 0.931 . S
C903 C900 1.481 . S
C903 C904 1.387 . S
C903 C908 1.390 . S
C904 C903 1.387 . S
C904 C905 1.401 . S
C904 H925 0.930 . S
C905 C904 1.401 . S
C905 C906 1.376 . S
C905 C914 1.511 . S
C906 C905 1.376 . S
C906 C907 1.392 . S
C906 H927 0.931 . S
C907 C906 1.392 . S
C907 C908 1.361 . S
C907 C909 1.500 . S
C908 C903 1.390 . S
C908 C907 1.361 . S
C908 H926 0.931 . S
C909 C907 1.500 . S
C909 C910 1.371 . S
C909 C911 1.365 . S
C910 C909 1.371 . S
C910 C920 1.386 . S
C910 H928 0.931 . S
C911 C909 1.365 . S
C911 C912 1.409 . S
C911 H929 0.929 . S
C912 C911 1.409 . S
C912 C913 1.380 . S
C912 H930 0.930 . S
C913 C912 1.380 . S
C913 C920 1.357 . S
C914 C905 1.511 . S
C914 C915 1.341 . S
C914 C916 1.371 . S
C915 C914 1.341 . S
C915 C919 1.394 . S
C915 H931 0.930 . S
C916 C914 1.371 . S
C916 C917 1.392 . S
C916 H932 0.931 . S
C917 C916 1.392 . S
C917 C918 1.331 . S
C917 H935 0.932 . S
C918 C917 1.331 . S
C918 C919 1.336 . S
C919 C915 1.394 . S
C919 C918 1.336 . S
C919 H934 0.929 . S
C920 C910 1.386 . S
C920 C913 1.357 . S
C920 H933 0.928 . S
H921 C897 0.931 . S
H922 C899 0.930 . S
H923 C901 0.929 . S
H924 C902 0.931 . S
H925 C904 0.930 . S
H926 C908 0.931 . S
H927 C906 0.931 . S
H928 C910 0.931 . S
H929 C911 0.929 . S
H930 C912 0.930 . S
H931 C915 0.930 . S
H932 C916 0.931 . S
H933 C920 0.928 . S
H934 C919 0.929 . S
H935 C917 0.932 . S
C936 C937 1.386 . S
C936 C938 1.397 . S
C936 H960 0.931 . S
C937 C936 1.386 . S
C937 C941 1.397 . S
C938 C936 1.397 . S
C938 C939 1.384 . S
C938 H961 0.930 . S
C939 C938 1.384 . S
C939 C940 1.377 . S
C939 C942 1.481 . S
C940 C939 1.377 . S
C940 C941 1.389 . S
C940 H962 0.929 . S
C941 C937 1.397 . S
C941 C940 1.389 . S
C941 H963 0.931 . S
C942 C939 1.481 . S
C942 C943 1.387 . S
C942 C947 1.390 . S
C943 C942 1.387 . S
C943 C944 1.401 . S
C943 H964 0.930 . S
C944 C943 1.401 . S
C944 C945 1.376 . S
C944 C953 1.511 . S
C945 C944 1.376 . S
C945 C946 1.392 . S
C945 H966 0.931 . S
C946 C945 1.392 . S
C946 C947 1.361 . S
C946 C948 1.500 . S
C947 C942 1.390 . S
C947 C946 1.361 . S
C947 H965 0.931 . S
C948 C946 1.500 . S
C948 C949 1.371 . S
C948 C950 1.365 . S
C949 C948 1.371 . S
C949 C959 1.386 . S
C949 H967 0.931 . S
C950 C948 1.365 . S
C950 C951 1.409 . S
C950 H968 0.929 . S
C951 C950 1.409 . S
C951 C952 1.380 . S
C951 H969 0.930 . S
C952 C951 1.380 . S
C952 C959 1.357 . S
C953 C944 1.511 . S
C953 C954 1.341 . S
C953 C955 1.371 . S
C954 C953 1.341 . S
C954 C958 1.394 . S
C954 H970 0.930 . S
C955 C953 1.371 . S
C955 C956 1.392 . S
C955 H971 0.931 . S
C956 C955 1.392 . S
C956 C957 1.331 . S
C956 H974 0.932 . S
C957 C956 1.331 . S
C957 C958 1.336 . S
C958 C954 1.394 . S
C958 C957 1.336 . S
C958 H973 0.929 . S
C959 C949 1.386 . S
C959 C952 1.357 . S
C959 H972 0.928 . S
H960 C936 0.931 . S
H961 C938 0.930 . S
H962 C940 0.929 . S
H963 C941 0.931 . S
H964 C943 0.930 . S
H965 C947 0.931 . S
H966 C945 0.931 . S
H967 C949 0.931 . S
H968 C950 0.929 . S
H969 C951 0.930 . S
H970 C954 0.930 . S
H971 C955 0.931 . S
H972 C959 0.928 . S
H973 C958 0.929 . S
H974 C956 0.932 . S
C975 C976 1.386 . S
C975 C977 1.397 . S
C975 H999 0.931 . S
C976 C975 1.386 . S
C976 C980 1.397 . S
C977 C975 1.397 . S
C977 C978 1.384 . S
C977 H1000 0.930 . S
C978 C977 1.384 . S
C978 C979 1.377 . S
C978 C981 1.481 . S
C979 C978 1.377 . S
C979 C980 1.389 . S
C979 H1001 0.929 . S
C980 C976 1.397 . S
C980 C979 1.389 . S
C980 H1002 0.931 . S
C981 C978 1.481 . S
C981 C982 1.387 . S
C981 C986 1.390 . S
C982 C981 1.387 . S
C982 C983 1.401 . S
C982 H1003 0.930 . S
C983 C982 1.401 . S
C983 C984 1.376 . S
C983 C992 1.511 . S
C984 C983 1.376 . S
C984 C985 1.392 . S
C984 H1005 0.931 . S
C985 C984 1.392 . S
C985 C986 1.361 . S
C985 C987 1.500 . S
C986 C981 1.390 . S
C986 C985 1.361 . S
C986 H1004 0.931 . S
C987 C985 1.500 . S
C987 C988 1.371 . S
C987 C989 1.365 . S
C988 C987 1.371 . S
C988 C998 1.386 . S
C988 H1006 0.931 . S
C989 C987 1.365 . S
C989 C990 1.409 . S
C989 H1007 0.929 . S
C990 C989 1.409 . S
C990 C991 1.380 . S
C990 H1008 0.930 . S
C991 C990 1.380 . S
C991 C998 1.357 . S
C992 C983 1.511 . S
C992 C993 1.341 . S
C992 C994 1.371 . S
C993 C992 1.341 . S
C993 C997 1.394 . S
C993 H1009 0.930 . S
C994 C992 1.371 . S
C994 C995 1.392 . S
C994 H1010 0.931 . S
C995 C994 1.392 . S
C995 C996 1.331 . S
C995 H1013 0.932 . S
C996 C995 1.331 . S
C996 C997 1.336 . S
C997 C993 1.394 . S
C997 C996 1.336 . S
C997 H1012 0.929 . S
C998 C988 1.386 . S
C998 C991 1.357 . S
C998 H1011 0.928 . S
H999 C975 0.931 . S
H1000 C977 0.930 . S
H1001 C979 0.929 . S
H1002 C980 0.931 . S
H1003 C982 0.930 . S
H1004 C986 0.931 . S
H1005 C984 0.931 . S
H1006 C988 0.931 . S
H1007 C989 0.929 . S
H1008 C990 0.930 . S
H1009 C993 0.930 . S
H1010 C994 0.931 . S
H1011 C998 0.928 . S
H1012 C997 0.929 . S
H1013 C995 0.932 . S
C1014 C1015 1.386 . S
C1014 C1016 1.397 . S
C1014 H1038 0.931 . S
C1015 C1014 1.386 . S
C1015 C1019 1.397 . S
C1016 C1014 1.397 . S
C1016 C1017 1.384 . S
C1016 H1039 0.930 . S
C1017 C1016 1.384 . S
C1017 C1018 1.377 . S
C1017 C1020 1.481 . S
C1018 C1017 1.377 . S
C1018 C1019 1.389 . S
C1018 H1040 0.929 . S
C1019 C1015 1.397 . S
C1019 C1018 1.389 . S
C1019 H1041 0.931 . S
C1020 C1017 1.481 . S
C1020 C1021 1.387 . S
C1020 C1025 1.390 . S
C1021 C1020 1.387 . S
C1021 C1022 1.401 . S
C1021 H1042 0.930 . S
C1022 C1021 1.401 . S
C1022 C1023 1.376 . S
C1022 C1031 1.511 . S
C1023 C1022 1.376 . S
C1023 C1024 1.392 . S
C1023 H1044 0.931 . S
C1024 C1023 1.392 . S
C1024 C1025 1.361 . S
C1024 C1026 1.500 . S
C1025 C1020 1.390 . S
C1025 C1024 1.361 . S
C1025 H1043 0.931 . S
C1026 C1024 1.500 . S
C1026 C1027 1.371 . S
C1026 C1028 1.365 . S
C1027 C1026 1.371 . S
C1027 C1037 1.386 . S
C1027 H1045 0.931 . S
C1028 C1026 1.365 . S
C1028 C1029 1.409 . S
C1028 H1046 0.929 . S
C1029 C1028 1.409 . S
C1029 C1030 1.380 . S
C1029 H1047 0.930 . S
C1030 C1029 1.380 . S
C1030 C1037 1.357 . S
C1031 C1022 1.511 . S
C1031 C1032 1.341 . S
C1031 C1033 1.371 . S
C1032 C1031 1.341 . S
C1032 C1036 1.394 . S
C1032 H1048 0.930 . S
C1033 C1031 1.371 . S
C1033 C1034 1.392 . S
C1033 H1049 0.931 . S
C1034 C1033 1.392 . S
C1034 C1035 1.331 . S
C1034 H1052 0.932 . S
C1035 C1034 1.331 . S
C1035 C1036 1.336 . S
C1036 C1032 1.394 . S
C1036 C1035 1.336 . S
C1036 H1051 0.929 . S
C1037 C1027 1.386 . S
C1037 C1030 1.357 . S
C1037 H1050 0.928 . S
H1038 C1014 0.931 . S
H1039 C1016 0.930 . S
H1040 C1018 0.929 . S
H1041 C1019 0.931 . S
H1042 C1021 0.930 . S
H1043 C1025 0.931 . S
H1044 C1023 0.931 . S
H1045 C1027 0.931 . S
H1046 C1028 0.929 . S
H1047 C1029 0.930 . S
H1048 C1032 0.930 . S
H1049 C1033 0.931 . S
H1050 C1037 0.928 . S
H1051 C1036 0.929 . S
H1052 C1034 0.932 . S
C1053 C1054 1.386 . S
C1053 C1055 1.397 . S
C1053 H1077 0.931 . S
C1054 C1053 1.386 . S
C1054 C1058 1.397 . S
C1055 C1053 1.397 . S
C1055 C1056 1.384 . S
C1055 H1078 0.930 . S
C1056 C1055 1.384 . S
C1056 C1057 1.377 . S
C1056 C1059 1.481 . S
C1057 C1056 1.377 . S
C1057 C1058 1.389 . S
C1057 H1079 0.929 . S
C1058 C1054 1.397 . S
C1058 C1057 1.389 . S
C1058 H1080 0.931 . S
C1059 C1056 1.481 . S
C1059 C1060 1.387 . S
C1059 C1064 1.390 . S
C1060 C1059 1.387 . S
C1060 C1061 1.401 . S
C1060 H1081 0.930 . S
C1061 C1060 1.401 . S
C1061 C1062 1.376 . S
C1061 C1070 1.511 . S
C1062 C1061 1.376 . S
C1062 C1063 1.392 . S
C1062 H1083 0.931 . S
C1063 C1062 1.392 . S
C1063 C1064 1.361 . S
C1063 C1065 1.500 . S
C1064 C1059 1.390 . S
C1064 C1063 1.361 . S
C1064 H1082 0.931 . S
C1065 C1063 1.500 . S
C1065 C1066 1.371 . S
C1065 C1067 1.365 . S
C1066 C1065 1.371 . S
C1066 C1076 1.386 . S
C1066 H1084 0.931 . S
C1067 C1065 1.365 . S
C1067 C1068 1.409 . S
C1067 H1085 0.929 . S
C1068 C1067 1.409 . S
C1068 C1069 1.380 . S
C1068 H1086 0.930 . S
C1069 C1068 1.380 . S
C1069 C1076 1.357 . S
C1070 C1061 1.511 . S
C1070 C1071 1.341 . S
C1070 C1072 1.371 . S
C1071 C1070 1.341 . S
C1071 C1075 1.394 . S
C1071 H1087 0.930 . S
C1072 C1070 1.371 . S
C1072 C1073 1.392 . S
C1072 H1088 0.931 . S
C1073 C1072 1.392 . S
C1073 C1074 1.331 . S
C1073 H1091 0.932 . S
C1074 C1073 1.331 . S
C1074 C1075 1.336 . S
C1075 C1071 1.394 . S
C1075 C1074 1.336 . S
C1075 H1090 0.929 . S
C1076 C1066 1.386 . S
C1076 C1069 1.357 . S
C1076 H1089 0.928 . S
H1077 C1053 0.931 . S
H1078 C1055 0.930 . S
H1079 C1057 0.929 . S
H1080 C1058 0.931 . S
H1081 C1060 0.930 . S
H1082 C1064 0.931 . S
H1083 C1062 0.931 . S
H1084 C1066 0.931 . S
H1085 C1067 0.929 . S
H1086 C1068 0.930 . S
H1087 C1071 0.930 . S
H1088 C1072 0.931 . S
H1089 C1076 0.928 . S
H1090 C1075 0.929 . S
H1091 C1073 0.932 . S
C1092 C1093 1.386 . S
C1092 C1094 1.397 . S
C1092 H1116 0.931 . S
C1093 C1092 1.386 . S
C1093 C1097 1.397 . S
C1094 C1092 1.397 . S
C1094 C1095 1.384 . S
C1094 H1117 0.930 . S
C1095 C1094 1.384 . S
C1095 C1096 1.377 . S
C1095 C1098 1.481 . S
C1096 C1095 1.377 . S
C1096 C1097 1.389 . S
C1096 H1118 0.929 . S
C1097 C1093 1.397 . S
C1097 C1096 1.389 . S
C1097 H1119 0.931 . S
C1098 C1095 1.481 . S
C1098 C1099 1.387 . S
C1098 C1103 1.390 . S
C1099 C1098 1.387 . S
C1099 C1100 1.401 . S
C1099 H1120 0.930 . S
C1100 C1099 1.401 . S
C1100 C1101 1.376 . S
C1100 C1109 1.511 . S
C1101 C1100 1.376 . S
C1101 C1102 1.392 . S
C1101 H1122 0.931 . S
C1102 C1101 1.392 . S
C1102 C1103 1.361 . S
C1102 C1104 1.500 . S
C1103 C1098 1.390 . S
C1103 C1102 1.361 . S
C1103 H1121 0.931 . S
C1104 C1102 1.500 . S
C1104 C1105 1.371 . S
C1104 C1106 1.365 . S
C1105 C1104 1.371 . S
C1105 C1115 1.386 . S
C1105 H1123 0.931 . S
C1106 C1104 1.365 . S
C1106 C1107 1.409 . S
C1106 H1124 0.929 . S
C1107 C1106 1.409 . S
C1107 C1108 1.380 . S
C1107 H1125 0.930 . S
C1108 C1107 1.380 . S
C1108 C1115 1.357 . S
C1109 C1100 1.511 . S
C1109 C1110 1.341 . S
C1109 C1111 1.371 . S
C1110 C1109 1.341 . S
C1110 C1114 1.394 . S
C1110 H1126 0.930 . S
C1111 C1109 1.371 . S
C1111 C1112 1.392 . S
C1111 H1127 0.931 . S
C1112 C1111 1.392 . S
C1112 C1113 1.331 . S
C1112 H1130 0.932 . S
C1113 C1112 1.331 . S
C1113 C1114 1.336 . S
C1114 C1110 1.394 . S
C1114 C1113 1.336 . S
C1114 H1129 0.929 . S
C1115 C1105 1.386 . S
C1115 C1108 1.357 . S
C1115 H1128 0.928 . S
H1116 C1092 0.931 . S
H1117 C1094 0.930 . S
H1118 C1096 0.929 . S
H1119 C1097 0.931 . S
H1120 C1099 0.930 . S
H1121 C1103 0.931 . S
H1122 C1101 0.931 . S
H1123 C1105 0.931 . S
H1124 C1106 0.929 . S
H1125 C1107 0.930 . S
H1126 C1110 0.930 . S
H1127 C1111 0.931 . S
H1128 C1115 0.928 . S
H1129 C1114 0.929 . S
H1130 C1112 0.932 . S
C1131 C1132 1.386 . S
C1131 C1133 1.397 . S
C1131 H1155 0.931 . S
C1132 C1131 1.386 . S
C1132 C1136 1.397 . S
C1133 C1131 1.397 . S
C1133 C1134 1.384 . S
C1133 H1156 0.930 . S
C1134 C1133 1.384 . S
C1134 C1135 1.377 . S
C1134 C1137 1.481 . S
C1135 C1134 1.377 . S
C1135 C1136 1.389 . S
C1135 H1157 0.929 . S
C1136 C1132 1.397 . S
C1136 C1135 1.389 . S
C1136 H1158 0.931 . S
C1137 C1134 1.481 . S
C1137 C1138 1.387 . S
C1137 C1142 1.390 . S
C1138 C1137 1.387 . S
C1138 C1139 1.401 . S
C1138 H1159 0.930 . S
C1139 C1138 1.401 . S
C1139 C1140 1.376 . S
C1139 C1148 1.511 . S
C1140 C1139 1.376 . S
C1140 C1141 1.392 . S
C1140 H1161 0.931 . S
C1141 C1140 1.392 . S
C1141 C1142 1.361 . S
C1141 C1143 1.500 . S
C1142 C1137 1.390 . S
C1142 C1141 1.361 . S
C1142 H1160 0.931 . S
C1143 C1141 1.500 . S
C1143 C1144 1.371 . S
C1143 C1145 1.365 . S
C1144 C1143 1.371 . S
C1144 C1154 1.386 . S
C1144 H1162 0.931 . S
C1145 C1143 1.365 . S
C1145 C1146 1.409 . S
C1145 H1163 0.929 . S
C1146 C1145 1.409 . S
C1146 C1147 1.380 . S
C1146 H1164 0.930 . S
C1147 C1146 1.380 . S
C1147 C1154 1.357 . S
C1148 C1139 1.511 . S
C1148 C1149 1.341 . S
C1148 C1150 1.371 . S
C1149 C1148 1.341 . S
C1149 C1153 1.394 . S
C1149 H1165 0.930 . S
C1150 C1148 1.371 . S
C1150 C1151 1.392 . S
C1150 H1166 0.931 . S
C1151 C1150 1.392 . S
C1151 C1152 1.331 . S
C1151 H1169 0.932 . S
C1152 C1151 1.331 . S
C1152 C1153 1.336 . S
C1153 C1149 1.394 . S
C1153 C1152 1.336 . S
C1153 H1168 0.929 . S
C1154 C1144 1.386 . S
C1154 C1147 1.357 . S
C1154 H1167 0.928 . S
H1155 C1131 0.931 . S
H1156 C1133 0.930 . S
H1157 C1135 0.929 . S
H1158 C1136 0.931 . S
H1159 C1138 0.930 . S
H1160 C1142 0.931 . S
H1161 C1140 0.931 . S
H1162 C1144 0.931 . S
H1163 C1145 0.929 . S
H1164 C1146 0.930 . S
H1165 C1149 0.930 . S
H1166 C1150 0.931 . S
H1167 C1154 0.928 . S
H1168 C1153 0.929 . S
H1169 C1151 0.932 . S
C1170 C1171 1.386 . S
C1170 C1172 1.397 . S
C1170 H1194 0.931 . S
C1171 C1170 1.386 . S
C1171 C1175 1.397 . S
C1172 C1170 1.397 . S
C1172 C1173 1.384 . S
C1172 H1195 0.930 . S
C1173 C1172 1.384 . S
C1173 C1174 1.377 . S
C1173 C1176 1.481 . S
C1174 C1173 1.377 . S
C1174 C1175 1.389 . S
C1174 H1196 0.929 . S
C1175 C1171 1.397 . S
C1175 C1174 1.389 . S
C1175 H1197 0.931 . S
C1176 C1173 1.481 . S
C1176 C1177 1.387 . S
C1176 C1181 1.390 . S
C1177 C1176 1.387 . S
C1177 C1178 1.401 . S
C1177 H1198 0.930 . S
C1178 C1177 1.401 . S
C1178 C1179 1.376 . S
C1178 C1187 1.511 . S
C1179 C1178 1.376 . S
C1179 C1180 1.392 . S
C1179 H1200 0.931 . S
C1180 C1179 1.392 . S
C1180 C1181 1.361 . S
C1180 C1182 1.500 . S
C1181 C1176 1.390 . S
C1181 C1180 1.361 . S
C1181 H1199 0.931 . S
C1182 C1180 1.500 . S
C1182 C1183 1.371 . S
C1182 C1184 1.365 . S
C1183 C1182 1.371 . S
C1183 C1193 1.386 . S
C1183 H1201 0.931 . S
C1184 C1182 1.365 . S
C1184 C1185 1.409 . S
C1184 H1202 0.929 . S
C1185 C1184 1.409 . S
C1185 C1186 1.380 . S
C1185 H1203 0.930 . S
C1186 C1185 1.380 . S
C1186 C1193 1.357 . S
C1187 C1178 1.511 . S
C1187 C1188 1.341 . S
C1187 C1189 1.371 . S
C1188 C1187 1.341 . S
C1188 C1192 1.394 . S
C1188 H1204 0.930 . S
C1189 C1187 1.371 . S
C1189 C1190 1.392 . S
C1189 H1205 0.931 . S
C1190 C1189 1.392 . S
C1190 C1191 1.331 . S
C1190 H1208 0.932 . S
C1191 C1190 1.331 . S
C1191 C1192 1.336 . S
C1192 C1188 1.394 . S
C1192 C1191 1.336 . S
C1192 H1207 0.929 . S
C1193 C1183 1.386 . S
C1193 C1186 1.357 . S
C1193 H1206 0.928 . S
H1194 C1170 0.931 . S
H1195 C1172 0.930 . S
H1196 C1174 0.929 . S
H1197 C1175 0.931 . S
H1198 C1177 0.930 . S
H1199 C1181 0.931 . S
H1200 C1179 0.931 . S
H1201 C1183 0.931 . S
H1202 C1184 0.929 . S
H1203 C1185 0.930 . S
H1204 C1188 0.930 . S
H1205 C1189 0.931 . S
H1206 C1193 0.928 . S
H1207 C1192 0.929 . S
H1208 C1190 0.932 . S
C1209 C1210 1.386 . S
C1209 C1211 1.397 . S
C1209 H1233 0.931 . S
C1210 C1209 1.386 . S
C1210 C1214 1.397 . S
C1211 C1209 1.397 . S
C1211 C1212 1.384 . S
C1211 H1234 0.930 . S
C1212 C1211 1.384 . S
C1212 C1213 1.377 . S
C1212 C1215 1.481 . S
C1213 C1212 1.377 . S
C1213 C1214 1.389 . S
C1213 H1235 0.929 . S
C1214 C1210 1.397 . S
C1214 C1213 1.389 . S
C1214 H1236 0.931 . S
C1215 C1212 1.481 . S
C1215 C1216 1.387 . S
C1215 C1220 1.390 . S
C1216 C1215 1.387 . S
C1216 C1217 1.401 . S
C1216 H1237 0.930 . S
C1217 C1216 1.401 . S
C1217 C1218 1.376 . S
C1217 C1226 1.511 . S
C1218 C1217 1.376 . S
C1218 C1219 1.392 . S
C1218 H1239 0.931 . S
C1219 C1218 1.392 . S
C1219 C1220 1.361 . S
C1219 C1221 1.500 . S
C1220 C1215 1.390 . S
C1220 C1219 1.361 . S
C1220 H1238 0.931 . S
C1221 C1219 1.500 . S
C1221 C1222 1.371 . S
C1221 C1223 1.365 . S
C1222 C1221 1.371 . S
C1222 C1232 1.386 . S
C1222 H1240 0.931 . S
C1223 C1221 1.365 . S
C1223 C1224 1.409 . S
C1223 H1241 0.929 . S
C1224 C1223 1.409 . S
C1224 C1225 1.380 . S
C1224 H1242 0.930 . S
C1225 C1224 1.380 . S
C1225 C1232 1.357 . S
C1226 C1217 1.511 . S
C1226 C1227 1.341 . S
C1226 C1228 1.371 . S
C1227 C1226 1.341 . S
C1227 C1231 1.394 . S
C1227 H1243 0.930 . S
C1228 C1226 1.371 . S
C1228 C1229 1.392 . S
C1228 H1244 0.931 . S
C1229 C1228 1.392 . S
C1229 C1230 1.331 . S
C1229 H1247 0.932 . S
C1230 C1229 1.331 . S
C1230 C1231 1.336 . S
C1231 C1227 1.394 . S
C1231 C1230 1.336 . S
C1231 H1246 0.929 . S
C1232 C1222 1.386 . S
C1232 C1225 1.357 . S
C1232 H1245 0.928 . S
H1233 C1209 0.931 . S
H1234 C1211 0.930 . S
H1235 C1213 0.929 . S
H1236 C1214 0.931 . S
H1237 C1216 0.930 . S
H1238 C1220 0.931 . S
H1239 C1218 0.931 . S
H1240 C1222 0.931 . S
H1241 C1223 0.929 . S
H1242 C1224 0.930 . S
H1243 C1227 0.930 . S
H1244 C1228 0.931 . S
H1245 C1232 0.928 . S
H1246 C1231 0.929 . S
H1247 C1229 0.932 . S
Cu1248 N1249 1.999 . S
Cu1248 O1254 1.974 1_554 S
Cu1248 N1259 1.985 . S
Cu1248 O1268 1.959 . S
N1249 Cu1248 1.999 . S
N1249 C1251 1.263 1_554 S
N1249 C1253 1.389 . S
N1250 C1251 1.358 . S
N1250 C1252 1.400 . S
C1251 N1249 1.263 1_556 S
C1251 N1250 1.358 . S
C1251 H1257 0.930 . S
C1252 N1250 1.400 . S
C1252 C1253 1.351 1_556 S
C1252 H1269 0.930 . S
C1253 N1249 1.389 . S
C1253 C1252 1.351 1_554 S
C1253 H1258 0.930 . S
O1254 Cu1248 1.974 1_556 S
O1254 C1264 1.282 . S
C1255 O1256 1.261 . S
C1255 O1268 1.251 . S
O1256 C1255 1.261 . S
H1257 C1251 0.930 . S
H1258 C1253 0.930 . S
N1259 Cu1248 1.985 . S
N1259 C1261 1.335 . S
N1259 C1262 1.390 . S
N1260 C1261 1.345 . S
N1260 C1263 1.336 . S
C1261 N1259 1.335 . S
C1261 N1260 1.345 . S
C1261 H1266 0.930 . S
C1262 N1259 1.390 . S
C1262 C1263 1.346 . S
C1262 H1267 0.930 . S
C1263 N1260 1.336 . S
C1263 C1262 1.346 . S
C1263 H1270 0.929 . S
C1264 O1254 1.282 . S
C1264 O1265 1.216 . S
O1265 C1264 1.216 . S
H1266 C1261 0.930 . S
H1267 C1262 0.930 . S
O1268 Cu1248 1.959 . S
O1268 C1255 1.251 . S
H1269 C1252 0.930 . S
H1270 C1263 0.929 . S
Cu1271 N1272 1.999 . S
Cu1271 O1277 1.974 . S
Cu1271 N1282 1.985 1_554 S
Cu1271 O1291 1.959 1_554 S
N1272 Cu1271 1.999 . S
N1272 C1274 1.263 . S
N1272 C1276 1.389 . S
N1273 C1274 1.358 . S
N1273 C1275 1.400 . S
C1274 N1272 1.263 . S
C1274 N1273 1.358 . S
C1274 H1280 0.930 . S
C1275 N1273 1.400 . S
C1275 C1276 1.351 . S
C1275 H1292 0.930 . S
C1276 N1272 1.389 . S
C1276 C1275 1.351 . S
C1276 H1281 0.930 . S
O1277 Cu1271 1.974 . S
O1277 C1287 1.282 . S
C1278 O1279 1.261 . S
C1278 O1291 1.251 . S
O1279 C1278 1.261 . S
H1280 C1274 0.930 . S
H1281 C1276 0.930 . S
N1282 Cu1271 1.985 1_556 S
N1282 C1284 1.335 . S
N1282 C1285 1.390 . S
N1283 C1284 1.345 . S
N1283 C1286 1.336 . S
C1284 N1282 1.335 . S
C1284 N1283 1.345 . S
C1284 H1289 0.930 . S
C1285 N1282 1.390 . S
C1285 C1286 1.346 . S
C1285 H1290 0.930 1_556 S
C1286 N1283 1.336 . S
C1286 C1285 1.346 . S
C1286 H1293 0.929 . S
C1287 O1277 1.282 . S
C1287 O1288 1.216 . S
O1288 C1287 1.216 . S
H1289 C1284 0.930 . S
H1290 C1285 0.930 1_554 S
O1291 Cu1271 1.959 1_556 S
O1291 C1278 1.251 . S
H1292 C1275 0.930 . S
H1293 C1286 0.929 . S
Cu1294 N1295 1.968 1_554 S
Cu1294 O1300 1.936 1_554 S
Cu1294 N1305 2.015 . S
Cu1294 O1314 1.997 . S
N1295 Cu1294 1.968 1_556 S
N1295 C1297 1.263 . S
N1295 C1299 1.389 . S
N1296 C1297 1.358 . S
N1296 C1298 1.400 . S
C1297 N1295 1.263 . S
C1297 N1296 1.358 . S
C1297 H1303 0.930 . S
C1298 N1296 1.400 . S
C1298 C1299 1.351 . S
C1298 H1315 0.930 . S
C1299 N1295 1.389 . S
C1299 C1298 1.351 . S
C1299 H1304 0.930 . S
O1300 Cu1294 1.936 1_556 S
O1300 C1310 1.282 . S
C1301 O1302 1.261 . S
C1301 O1314 1.251 . S
O1302 C1301 1.261 . S
H1303 C1297 0.930 . S
H1304 C1299 0.930 . S
N1305 Cu1294 2.015 . S
N1305 C1307 1.335 . S
N1305 C1308 1.390 . S
N1306 C1307 1.345 . S
N1306 C1309 1.336 . S
C1307 N1305 1.335 . S
C1307 N1306 1.345 . S
C1307 H1312 0.930 . S
C1308 N1305 1.390 . S
C1308 C1309 1.346 . S
C1308 H1313 0.985 . S
C1309 N1306 1.336 . S
C1309 C1308 1.346 . S
C1309 H1316 0.929 . S
C1310 O1300 1.282 . S
C1310 O1311 1.216 . S
O1311 C1310 1.216 . S
H1312 C1307 0.930 . S
H1313 C1308 0.985 . S
O1314 Cu1294 1.997 . S
O1314 C1301 1.251 . S
H1315 C1298 0.930 . S
H1316 C1309 0.929 . S
Cu1317 N1318 2.055 . S
Cu1317 O1323 2.040 . S
Cu1317 N1328 1.934 1_554 S
Cu1317 O1337 1.896 1_554 S
N1318 Cu1317 2.055 . S
N1318 C1320 1.263 . S
N1318 C1322 1.389 . S
N1319 C1320 1.358 . S
N1319 C1321 1.400 . S
C1320 N1318 1.263 . S
C1320 N1319 1.358 . S
C1320 H1326 0.930 . S
C1321 N1319 1.400 . S
C1321 C1322 1.351 . S
C1321 H1338 0.930 . S
C1322 N1318 1.389 . S
C1322 C1321 1.351 . S
C1322 H1327 0.930 . S
O1323 Cu1317 2.040 . S
O1323 C1333 1.282 . S
C1324 O1325 1.261 . S
C1324 O1337 1.251 . S
O1325 C1324 1.261 . S
H1326 C1320 0.930 . S
H1327 C1322 0.930 . S
N1328 Cu1317 1.934 1_556 S
N1328 C1330 1.335 . S
N1328 C1331 1.390 . S
N1329 C1330 1.345 . S
N1329 C1332 1.336 . S
C1330 N1328 1.335 . S
C1330 N1329 1.345 . S
C1330 H1335 0.930 . S
C1331 N1328 1.390 . S
C1331 C1332 1.346 . S
C1331 H1336 0.889 1_556 S
C1332 N1329 1.336 . S
C1332 C1331 1.346 . S
C1332 H1339 0.929 . S
C1333 O1323 1.282 . S
C1333 O1334 1.216 . S
O1334 C1333 1.216 . S
H1335 C1330 0.930 . S
H1336 C1331 0.889 1_554 S
O1337 Cu1317 1.896 1_556 S
O1337 C1324 1.251 . S
H1338 C1321 0.930 . S
H1339 C1332 0.929 . S
Cu1340 N1341 1.999 . S
Cu1340 O1346 1.974 . S
Cu1340 N1351 1.985 1_455 S
Cu1340 O1360 1.959 1_455 S
N1341 Cu1340 1.999 . S
N1341 C1343 1.263 . S
N1341 C1345 1.389 . S
N1342 C1343 1.358 . S
N1342 C1344 1.400 . S
C1343 N1341 1.263 . S
C1343 N1342 1.358 . S
C1343 H1349 0.930 . S
C1344 N1342 1.400 . S
C1344 C1345 1.351 . S
C1344 H1361 0.930 . S
C1345 N1341 1.389 . S
C1345 C1344 1.351 . S
C1345 H1350 0.930 . S
O1346 Cu1340 1.974 . S
O1346 C1356 1.282 . S
C1347 O1348 1.261 . S
C1347 O1360 1.251 . S
O1348 C1347 1.261 . S
H1349 C1343 0.930 . S
H1350 C1345 0.930 . S
N1351 Cu1340 1.985 1_655 S
N1351 C1353 1.335 . S
N1351 C1354 1.392 1_655 S
N1352 C1353 1.345 . S
N1352 C1355 1.336 . S
C1353 N1351 1.335 . S
C1353 N1352 1.345 . S
C1353 H1358 0.930 . S
C1354 N1351 1.392 1_455 S
C1354 C1355 1.355 1_455 S
C1354 H1359 0.921 . S
C1355 N1352 1.336 . S
C1355 C1354 1.355 1_655 S
C1355 H1362 0.929 . S
C1356 O1346 1.282 . S
C1356 O1357 1.216 . S
O1357 C1356 1.216 . S
H1358 C1353 0.930 . S
H1359 C1354 0.921 . S
O1360 Cu1340 1.959 1_655 S
O1360 C1347 1.251 . S
H1361 C1344 0.930 . S
H1362 C1355 0.929 . S
Cu1363 N1364 1.999 . S
Cu1363 O1369 1.974 . S
Cu1363 N1374 1.985 1_545 S
Cu1363 O1383 1.959 1_545 S
N1364 Cu1363 1.999 . S
N1364 C1366 1.263 . S
N1364 C1368 1.389 . S
N1365 C1366 1.358 . S
N1365 C1367 1.400 . S
C1366 N1364 1.263 . S
C1366 N1365 1.358 . S
C1366 H1372 0.930 . S
C1367 N1365 1.400 . S
C1367 C1368 1.351 . S
C1367 H1384 0.930 . S
C1368 N1364 1.389 . S
C1368 C1367 1.351 . S
C1368 H1373 0.930 . S
O1369 Cu1363 1.974 . S
O1369 C1379 1.282 . S
C1370 O1371 1.261 . S
C1370 O1383 1.251 . S
O1371 C1370 1.261 . S
H1372 C1366 0.930 . S
H1373 C1368 0.930 . S
N1374 Cu1363 1.985 1_565 S
N1374 C1376 1.335 . S
N1374 C1377 1.390 . S
N1375 C1376 1.345 . S
N1375 C1378 1.336 . S
C1376 N1374 1.335 . S
C1376 N1375 1.345 . S
C1376 H1381 0.930 . S
C1377 N1374 1.390 . S
C1377 C1378 1.346 . S
C1377 H1382 0.930 1_565 S
C1378 N1375 1.336 . S
C1378 C1377 1.346 . S
C1378 H1385 0.929 . S
C1379 O1369 1.282 . S
C1379 O1380 1.216 . S
O1380 C1379 1.216 . S
H1381 C1376 0.930 . S
H1382 C1377 0.930 1_545 S
O1383 Cu1363 1.959 1_565 S
O1383 C1370 1.251 . S
H1384 C1367 0.930 . S
H1385 C1378 0.929 . S
Cu1386 N1387 1.999 1_455 S
Cu1386 O1392 1.973 1_455 S
Cu1386 N1397 1.985 . S
Cu1386 O1406 1.960 . S
N1387 Cu1386 1.999 1_655 S
N1387 C1389 1.263 . S
N1387 C1391 1.389 . S
N1388 C1389 1.358 . S
N1388 C1390 1.400 . S
C1389 N1387 1.263 . S
C1389 N1388 1.358 . S
C1389 H1395 0.930 . S
C1390 N1388 1.400 . S
C1390 C1391 1.351 . S
C1390 H1407 0.930 . S
C1391 N1387 1.389 . S
C1391 C1390 1.351 . S
C1391 H1396 0.930 . S
O1392 Cu1386 1.973 1_655 S
O1392 C1402 1.282 . S
C1393 O1394 1.261 . S
C1393 O1406 1.251 . S
O1394 C1393 1.261 . S
H1395 C1389 0.930 . S
H1396 C1391 0.930 . S
N1397 Cu1386 1.985 . S
N1397 C1399 1.335 . S
N1397 C1400 1.390 . S
N1398 C1399 1.345 . S
N1398 C1401 1.336 . S
C1399 N1397 1.335 . S
C1399 N1398 1.345 . S
C1399 H1404 0.930 . S
C1400 N1397 1.390 . S
C1400 C1401 1.346 . S
C1400 H1405 0.930 . S
C1401 N1398 1.336 . S
C1401 C1400 1.346 . S
C1401 H1408 0.929 . S
C1402 O1392 1.282 . S
C1402 O1403 1.216 . S
O1403 C1402 1.216 . S
H1404 C1399 0.930 . S
H1405 C1400 0.930 . S
O1406 Cu1386 1.960 . S
O1406 C1393 1.251 . S
H1407 C1390 0.930 . S
H1408 C1401 0.929 . S
Cu1409 N1410 1.989 1_565 S
Cu1409 O1415 1.961 1_565 S
Cu1409 N1420 1.995 . S
Cu1409 O1429 1.972 . S
N1410 Cu1409 1.989 1_545 S
N1410 C1412 1.263 . S
N1410 C1414 1.389 . S
N1411 C1412 1.358 . S
N1411 C1413 1.400 . S
C1412 N1410 1.263 . S
C1412 N1411 1.358 . S
C1412 H1418 0.930 . S
C1413 N1411 1.400 . S
C1413 C1414 1.351 . S
C1413 H1430 0.930 . S
C1414 N1410 1.389 . S
C1414 C1413 1.351 . S
C1414 H1419 0.930 . S
O1415 Cu1409 1.961 1_545 S
O1415 C1425 1.282 . S
C1416 O1417 1.261 . S
C1416 O1429 1.251 . S
O1417 C1416 1.261 . S
H1418 C1412 0.930 . S
H1419 C1414 0.930 . S
N1420 Cu1409 1.995 . S
N1420 C1422 1.335 . S
N1420 C1423 1.390 . S
N1421 C1422 1.345 . S
N1421 C1424 1.336 . S
C1422 N1420 1.335 . S
C1422 N1421 1.345 . S
C1422 H1427 0.930 . S
C1423 N1420 1.390 . S
C1423 C1424 1.346 . S
C1423 H1428 0.930 . S
C1424 N1421 1.336 . S
C1424 C1423 1.346 . S
C1424 H1431 0.929 . S
C1425 O1415 1.282 . S
C1425 O1426 1.216 . S
O1426 C1425 1.216 . S
H1427 C1422 0.930 . S
H1428 C1423 0.930 . S
O1429 Cu1409 1.972 . S
O1429 C1416 1.251 . S
H1430 C1413 0.930 . S
H1431 C1424 0.929 . S
Cu1432 N1433 1.999 . S
Cu1432 O1438 1.974 . S
Cu1432 N1443 1.985 1_455 S
Cu1432 O1452 1.959 1_455 S
N1433 Cu1432 1.999 . S
N1433 C1435 1.263 . S
N1433 C1437 1.389 . S
N1434 C1435 1.358 . S
N1434 C1436 1.400 . S
C1435 N1433 1.263 . S
C1435 N1434 1.358 . S
C1435 H1441 0.930 . S
C1436 N1434 1.400 . S
C1436 C1437 1.351 . S
C1436 H1453 0.930 . S
C1437 N1433 1.389 . S
C1437 C1436 1.351 . S
C1437 H1442 0.930 . S
O1438 Cu1432 1.974 . S
O1438 C1448 1.282 . S
C1439 O1440 1.261 . S
C1439 O1452 1.251 . S
O1440 C1439 1.261 . S
H1441 C1435 0.930 . S
H1442 C1437 0.930 . S
N1443 Cu1432 1.985 1_655 S
N1443 C1445 1.335 . S
N1443 C1446 1.398 . S
N1444 C1445 1.345 . S
N1444 C1447 1.336 . S
C1445 N1443 1.335 . S
C1445 N1444 1.345 . S
C1445 H1450 0.930 . S
C1446 N1443 1.398 . S
C1446 C1447 1.380 . S
C1446 H1451 0.896 1_655 S
C1447 N1444 1.336 . S
C1447 C1446 1.380 . S
C1447 H1454 0.929 . S
C1448 O1438 1.282 . S
C1448 O1449 1.216 . S
O1449 C1448 1.216 . S
H1450 C1445 0.930 . S
H1451 C1446 0.896 1_455 S
O1452 Cu1432 1.959 1_655 S
O1452 C1439 1.251 . S
H1453 C1436 0.930 . S
H1454 C1447 0.929 . S
Cu1455 N1456 1.999 . S
Cu1455 O1461 1.974 . S
Cu1455 N1466 1.985 1_545 S
Cu1455 O1475 1.959 1_545 S
N1456 Cu1455 1.999 . S
N1456 C1458 1.263 . S
N1456 C1460 1.389 . S
N1457 C1458 1.358 . S
N1457 C1459 1.400 . S
C1458 N1456 1.263 . S
C1458 N1457 1.358 . S
C1458 H1464 0.930 . S
C1459 N1457 1.400 . S
C1459 C1460 1.351 . S
C1459 H1476 0.930 . S
C1460 N1456 1.389 . S
C1460 C1459 1.351 . S
C1460 H1465 0.930 . S
O1461 Cu1455 1.974 . S
O1461 C1471 1.282 . S
C1462 O1463 1.261 . S
C1462 O1475 1.251 . S
O1463 C1462 1.261 . S
H1464 C1458 0.930 . S
H1465 C1460 0.930 . S
N1466 Cu1455 1.985 1_565 S
N1466 C1468 1.335 . S
N1466 C1469 1.377 1_565 S
N1467 C1468 1.345 . S
N1467 C1470 1.336 . S
C1468 N1466 1.335 . S
C1468 N1467 1.345 . S
C1468 H1473 0.930 . S
C1469 N1466 1.377 1_545 S
C1469 C1470 1.278 1_545 S
C1469 H1474 1.002 . S
C1470 N1467 1.336 . S
C1470 C1469 1.278 1_565 S
C1470 H1477 0.929 . S
C1471 O1461 1.282 . S
C1471 O1472 1.216 . S
O1472 C1471 1.216 . S
H1473 C1468 0.930 . S
H1474 C1469 1.002 . S
O1475 Cu1455 1.959 1_565 S
O1475 C1462 1.251 . S
H1476 C1459 0.930 . S
H1477 C1470 0.929 . S
Cu1478 N1479 1.999 . S
Cu1478 O1484 1.974 . S
Cu1478 N1489 1.985 . S
Cu1478 O1498 1.959 . S
N1479 Cu1478 1.999 . S
N1479 C1481 1.263 1_455 S
N1479 C1483 1.389 . S
N1480 C1481 1.358 . S
N1480 C1482 1.400 . S
C1481 N1479 1.263 1_655 S
C1481 N1480 1.358 . S
C1481 H1487 0.930 . S
C1482 N1480 1.400 . S
C1482 C1483 1.351 1_655 S
C1482 H1499 0.930 . S
C1483 N1479 1.389 . S
C1483 C1482 1.351 1_455 S
C1483 H1488 0.930 . S
O1484 Cu1478 1.974 . S
O1484 C1494 1.282 1_455 S
C1485 O1486 1.261 . S
C1485 O1498 1.251 . S
O1486 C1485 1.261 . S
H1487 C1481 0.930 . S
H1488 C1483 0.930 . S
N1489 Cu1478 1.985 . S
N1489 C1491 1.335 . S
N1489 C1492 1.390 . S
N1490 C1491 1.345 . S
N1490 C1493 1.336 . S
C1491 N1489 1.335 . S
C1491 N1490 1.345 . S
C1491 H1496 0.930 . S
C1492 N1489 1.390 . S
C1492 C1493 1.346 . S
C1492 H1497 0.930 . S
C1493 N1490 1.336 . S
C1493 C1492 1.346 . S
C1493 H1500 0.929 . S
C1494 O1484 1.282 1_655 S
C1494 O1495 1.216 1_655 S
O1495 C1494 1.216 1_455 S
H1496 C1491 0.930 . S
H1497 C1492 0.930 . S
O1498 Cu1478 1.959 . S
O1498 C1485 1.251 . S
H1499 C1482 0.930 . S
H1500 C1493 0.929 . S
Cu1501 N1502 1.999 . S
Cu1501 O1507 1.974 . S
Cu1501 N1512 2.015 . S
Cu1501 O1521 1.959 1_545 S
N1502 Cu1501 1.999 . S
N1502 C1504 1.263 . S
N1502 C1506 1.389 . S
N1503 C1504 1.358 . S
N1503 C1505 1.400 . S
C1504 N1502 1.263 . S
C1504 N1503 1.358 . S
C1504 H1510 0.930 . S
C1505 N1503 1.400 . S
C1505 C1506 1.351 . S
C1505 H1522 0.930 . S
C1506 N1502 1.389 . S
C1506 C1505 1.351 . S
C1506 H1511 0.930 . S
O1507 Cu1501 1.974 . S
O1507 C1517 1.282 . S
C1508 O1509 1.251 1_565 S
C1508 O1521 1.251 . S
O1509 C1508 1.251 1_545 S
H1510 C1504 0.930 . S
H1511 C1506 0.930 . S
N1512 Cu1501 2.015 . S
N1512 C1514 1.288 1_545 S
N1512 C1515 1.402 . S
N1513 C1514 1.345 . S
N1513 C1516 1.336 . S
C1514 N1512 1.288 1_565 S
C1514 N1513 1.345 . S
C1514 H1519 0.930 . S
C1515 N1512 1.402 . S
C1515 C1516 1.346 1_545 S
C1515 H1520 0.930 . S
C1516 N1513 1.336 . S
C1516 C1515 1.346 1_565 S
C1516 H1523 0.929 . S
C1517 O1507 1.282 . S
C1517 O1518 1.216 . S
O1518 C1517 1.216 . S
H1519 C1514 0.930 . S
H1520 C1515 0.930 . S
O1521 Cu1501 1.959 1_565 S
O1521 C1508 1.251 . S
H1522 C1505 0.930 . S
H1523 C1516 0.929 . S
Cu1524 N1525 1.999 . S
Cu1524 O1530 1.974 . S
Cu1524 N1535 1.985 . S
Cu1524 O1544 1.959 . S
N1525 Cu1524 1.999 . S
N1525 C1527 1.263 . S
N1525 C1529 1.389 . S
N1526 C1527 1.358 . S
N1526 C1528 1.400 . S
C1527 N1525 1.263 . S
C1527 N1526 1.358 . S
C1527 H1533 0.930 . S
C1528 N1526 1.400 . S
C1528 C1529 1.351 . S
C1528 H1545 0.930 . S
C1529 N1525 1.389 . S
C1529 C1528 1.351 . S
C1529 H1534 0.930 . S
O1530 Cu1524 1.974 . S
O1530 C1540 1.282 . S
C1531 O1532 1.261 . S
C1531 O1544 1.251 . S
O1532 C1531 1.261 . S
H1533 C1527 0.930 . S
H1534 C1529 0.930 . S
N1535 Cu1524 1.985 . S
N1535 C1537 1.335 . S
N1535 C1538 1.390 . S
N1536 C1537 1.345 . S
N1536 C1539 1.336 . S
C1537 N1535 1.335 . S
C1537 N1536 1.345 . S
C1537 H1542 0.930 . S
C1538 N1535 1.390 . S
C1538 C1539 1.346 . S
C1538 H1543 0.930 . S
C1539 N1536 1.336 . S
C1539 C1538 1.346 . S
C1539 H1546 0.929 . S
C1540 O1530 1.282 . S
C1540 O1541 1.216 . S
O1541 C1540 1.216 . S
H1542 C1537 0.930 . S
H1543 C1538 0.930 . S
O1544 Cu1524 1.959 . S
O1544 C1531 1.251 . S
H1545 C1528 0.930 . S
H1546 C1539 0.929 . S
Cu1547 N1548 1.999 . S
Cu1547 O1553 1.974 . S
Cu1547 N1558 1.985 . S
Cu1547 O1567 1.959 . S
N1548 Cu1547 1.999 . S
N1548 C1550 1.263 . S
N1548 C1552 1.389 . S
N1549 C1550 1.358 . S
N1549 C1551 1.400 . S
C1550 N1548 1.263 . S
C1550 N1549 1.358 . S
C1550 H1556 0.930 . S
C1551 N1549 1.400 . S
C1551 C1552 1.351 . S
C1551 H1568 0.930 . S
C1552 N1548 1.389 . S
C1552 C1551 1.351 . S
C1552 H1557 0.930 . S
O1553 Cu1547 1.974 . S
O1553 C1563 1.282 . S
C1554 O1555 1.261 . S
C1554 O1567 1.251 . S
O1555 C1554 1.261 . S
H1556 C1550 0.930 . S
H1557 C1552 0.930 . S
N1558 Cu1547 1.985 . S
N1558 C1560 1.335 . S
N1558 C1561 1.390 . S
N1559 C1560 1.345 . S
N1559 C1562 1.336 . S
C1560 N1558 1.335 . S
C1560 N1559 1.345 . S
C1560 H1565 0.930 . S
C1561 N1558 1.390 . S
C1561 C1562 1.346 . S
C1561 H1566 0.930 . S
C1562 N1559 1.336 . S
C1562 C1561 1.346 . S
C1562 H1569 0.929 . S
C1563 O1553 1.282 . S
C1563 O1564 1.216 . S
O1564 C1563 1.216 . S
H1565 C1560 0.930 . S
H1566 C1561 0.930 . S
O1567 Cu1547 1.959 . S
O1567 C1554 1.251 . S
H1568 C1551 0.930 . S
H1569 C1562 0.929 . S
Cu1570 N1571 1.999 . S
Cu1570 O1576 1.974 . S
Cu1570 N1581 1.985 . S
Cu1570 O1590 1.959 . S
N1571 Cu1570 1.999 . S
N1571 C1573 1.263 . S
N1571 C1575 1.389 . S
N1572 C1573 1.358 . S
N1572 C1574 1.400 . S
C1573 N1571 1.263 . S
C1573 N1572 1.358 . S
C1573 H1579 0.930 . S
C1574 N1572 1.400 . S
C1574 C1575 1.351 . S
C1574 H1591 0.930 . S
C1575 N1571 1.389 . S
C1575 C1574 1.351 . S
C1575 H1580 0.930 . S
O1576 Cu1570 1.974 . S
O1576 C1586 1.282 . S
C1577 O1578 1.261 . S
C1577 O1590 1.251 . S
O1578 C1577 1.261 . S
H1579 C1573 0.930 . S
H1580 C1575 0.930 . S
N1581 Cu1570 1.985 . S
N1581 C1583 1.335 . S
N1581 C1584 1.390 . S
N1582 C1583 1.345 . S
N1582 C1585 1.336 . S
C1583 N1581 1.335 . S
C1583 N1582 1.345 . S
C1583 H1588 0.930 . S
C1584 N1581 1.390 . S
C1584 C1585 1.346 . S
C1584 H1589 0.930 . S
C1585 N1582 1.336 . S
C1585 C1584 1.346 . S
C1585 H1592 0.929 . S
C1586 O1576 1.282 . S
C1586 O1587 1.216 . S
O1587 C1586 1.216 . S
H1588 C1583 0.930 . S
H1589 C1584 0.930 . S
O1590 Cu1570 1.959 . S
O1590 C1577 1.251 . S
H1591 C1574 0.930 . S
H1592 C1585 0.929 . S
Cu1593 N1594 1.999 . S
Cu1593 O1599 1.974 . S
Cu1593 N1604 1.985 . S
Cu1593 O1613 1.959 . S
N1594 Cu1593 1.999 . S
N1594 C1596 1.263 . S
N1594 C1598 1.389 . S
N1595 C1596 1.358 . S
N1595 C1597 1.400 . S
C1596 N1594 1.263 . S
C1596 N1595 1.358 . S
C1596 H1602 0.930 . S
C1597 N1595 1.400 . S
C1597 C1598 1.351 . S
C1597 H1614 0.930 . S
C1598 N1594 1.389 . S
C1598 C1597 1.351 . S
C1598 H1603 0.930 . S
O1599 Cu1593 1.974 . S
O1599 C1609 1.282 . S
C1600 O1601 1.261 . S
C1600 O1613 1.251 . S
O1601 C1600 1.261 . S
H1602 C1596 0.930 . S
H1603 C1598 0.930 . S
N1604 Cu1593 1.985 . S
N1604 C1606 1.335 . S
N1604 C1607 1.390 . S
N1605 C1606 1.345 . S
N1605 C1608 1.336 . S
C1606 N1604 1.335 . S
C1606 N1605 1.345 . S
C1606 H1611 0.930 . S
C1607 N1604 1.390 . S
C1607 C1608 1.346 . S
C1607 H1612 0.930 . S
C1608 N1605 1.336 . S
C1608 C1607 1.346 . S
C1608 H1615 0.929 . S
C1609 O1599 1.282 . S
C1609 O1610 1.216 . S
O1610 C1609 1.216 . S
H1611 C1606 0.930 . S
H1612 C1607 0.930 . S
O1613 Cu1593 1.959 . S
O1613 C1600 1.251 . S
H1614 C1597 0.930 . S
H1615 C1608 0.929 . S
Cu1616 N1617 1.999 . S
Cu1616 O1622 1.974 . S
Cu1616 N1627 1.985 . S
Cu1616 O1636 1.959 . S
N1617 Cu1616 1.999 . S
N1617 C1619 1.263 . S
N1617 C1621 1.389 . S
N1618 C1619 1.358 . S
N1618 C1620 1.400 . S
C1619 N1617 1.263 . S
C1619 N1618 1.358 . S
C1619 H1625 0.930 . S
C1620 N1618 1.400 . S
C1620 C1621 1.351 . S
C1620 H1637 0.930 . S
C1621 N1617 1.389 . S
C1621 C1620 1.351 . S
C1621 H1626 0.930 . S
O1622 Cu1616 1.974 . S
O1622 C1632 1.282 . S
C1623 O1624 1.261 . S
C1623 O1636 1.251 . S
O1624 C1623 1.261 . S
H1625 C1619 0.930 . S
H1626 C1621 0.930 . S
N1627 Cu1616 1.985 . S
N1627 C1629 1.335 . S
N1627 C1630 1.390 . S
N1628 C1629 1.345 . S
N1628 C1631 1.336 . S
C1629 N1627 1.335 . S
C1629 N1628 1.345 . S
C1629 H1634 0.930 . S
C1630 N1627 1.390 . S
C1630 C1631 1.346 . S
C1630 H1635 0.930 . S
C1631 N1628 1.336 . S
C1631 C1630 1.346 . S
C1631 H1638 0.929 . S
C1632 O1622 1.282 . S
C1632 O1633 1.216 . S
O1633 C1632 1.216 . S
H1634 C1629 0.930 . S
H1635 C1630 0.930 . S
O1636 Cu1616 1.959 . S
O1636 C1623 1.251 . S
H1637 C1620 0.930 . S
H1638 C1631 0.929 . S
Cu1639 N1640 1.999 . S
Cu1639 O1645 1.974 . S
Cu1639 N1650 1.985 . S
Cu1639 O1659 1.959 . S
N1640 Cu1639 1.999 . S
N1640 C1642 1.263 . S
N1640 C1644 1.389 . S
N1641 C1642 1.358 . S
N1641 C1643 1.400 . S
C1642 N1640 1.263 . S
C1642 N1641 1.358 . S
C1642 H1648 0.930 . S
C1643 N1641 1.400 . S
C1643 C1644 1.351 . S
C1643 H1660 0.930 . S
C1644 N1640 1.389 . S
C1644 C1643 1.351 . S
C1644 H1649 0.930 . S
O1645 Cu1639 1.974 . S
O1645 C1655 1.282 . S
C1646 O1647 1.261 . S
C1646 O1659 1.251 . S
O1647 C1646 1.261 . S
H1648 C1642 0.930 . S
H1649 C1644 0.930 . S
N1650 Cu1639 1.985 . S
N1650 C1652 1.335 . S
N1650 C1653 1.390 . S
N1651 C1652 1.345 . S
N1651 C1654 1.336 . S
C1652 N1650 1.335 . S
C1652 N1651 1.345 . S
C1652 H1657 0.930 . S
C1653 N1650 1.390 . S
C1653 C1654 1.346 . S
C1653 H1658 0.930 . S
C1654 N1651 1.336 . S
C1654 C1653 1.346 . S
C1654 H1661 0.929 . S
C1655 O1645 1.282 . S
C1655 O1656 1.216 . S
O1656 C1655 1.216 . S
H1657 C1652 0.930 . S
H1658 C1653 0.930 . S
O1659 Cu1639 1.959 . S
O1659 C1646 1.251 . S
H1660 C1643 0.930 . S
H1661 C1654 0.929 . S
Cu1662 N1663 1.999 . S
Cu1662 O1668 1.974 . S
Cu1662 N1673 1.985 . S
Cu1662 O1682 1.959 . S
N1663 Cu1662 1.999 . S
N1663 C1665 1.263 . S
N1663 C1667 1.389 . S
N1664 C1665 1.358 . S
N1664 C1666 1.400 . S
C1665 N1663 1.263 . S
C1665 N1664 1.358 . S
C1665 H1671 0.930 . S
C1666 N1664 1.400 . S
C1666 C1667 1.351 . S
C1666 H1683 0.930 . S
C1667 N1663 1.389 . S
C1667 C1666 1.351 . S
C1667 H1672 0.930 . S
O1668 Cu1662 1.974 . S
O1668 C1678 1.282 . S
C1669 O1670 1.261 . S
C1669 O1682 1.251 . S
O1670 C1669 1.261 . S
H1671 C1665 0.930 . S
H1672 C1667 0.930 . S
N1673 Cu1662 1.985 . S
N1673 C1675 1.335 . S
N1673 C1676 1.390 . S
N1674 C1675 1.345 . S
N1674 C1677 1.336 . S
C1675 N1673 1.335 . S
C1675 N1674 1.345 . S
C1675 H1680 0.930 . S
C1676 N1673 1.390 . S
C1676 C1677 1.346 . S
C1676 H1681 0.930 . S
C1677 N1674 1.336 . S
C1677 C1676 1.346 . S
C1677 H1684 0.929 . S
C1678 O1668 1.282 . S
C1678 O1679 1.216 . S
O1679 C1678 1.216 . S
H1680 C1675 0.930 . S
H1681 C1676 0.930 . S
O1682 Cu1662 1.959 . S
O1682 C1669 1.251 . S
H1683 C1666 0.930 . S
H1684 C1677 0.929 . S
Cu1685 N1686 1.999 . S
Cu1685 O1691 1.974 . S
Cu1685 N1696 1.985 . S
Cu1685 O1705 1.959 . S
N1686 Cu1685 1.999 . S
N1686 C1688 1.263 . S
N1686 C1690 1.389 . S
N1687 C1688 1.358 . S
N1687 C1689 1.400 . S
C1688 N1686 1.263 . S
C1688 N1687 1.358 . S
C1688 H1694 0.930 . S
C1689 N1687 1.400 . S
C1689 C1690 1.351 . S
C1689 H1706 0.930 . S
C1690 N1686 1.389 . S
C1690 C1689 1.351 . S
C1690 H1695 0.930 . S
O1691 Cu1685 1.974 . S
O1691 C1701 1.282 . S
C1692 O1693 1.261 . S
C1692 O1705 1.251 . S
O1693 C1692 1.261 . S
H1694 C1688 0.930 . S
H1695 C1690 0.930 . S
N1696 Cu1685 1.985 . S
N1696 C1698 1.335 . S
N1696 C1699 1.390 . S
N1697 C1698 1.345 . S
N1697 C1700 1.336 . S
C1698 N1696 1.335 . S
C1698 N1697 1.345 . S
C1698 H1703 0.930 . S
C1699 N1696 1.390 . S
C1699 C1700 1.346 . S
C1699 H1704 0.930 . S
C1700 N1697 1.336 . S
C1700 C1699 1.346 . S
C1700 H1707 0.929 . S
C1701 O1691 1.282 . S
C1701 O1702 1.216 . S
O1702 C1701 1.216 . S
H1703 C1698 0.930 . S
H1704 C1699 0.930 . S
O1705 Cu1685 1.959 . S
O1705 C1692 1.251 . S
H1706 C1689 0.930 . S
H1707 C1700 0.929 . S
Cu1708 N1709 1.999 . S
Cu1708 O1714 1.974 . S
Cu1708 N1719 1.985 . S
Cu1708 O1728 1.959 . S
N1709 Cu1708 1.999 . S
N1709 C1711 1.263 . S
N1709 C1713 1.389 . S
N1710 C1711 1.358 . S
N1710 C1712 1.400 . S
C1711 N1709 1.263 . S
C1711 N1710 1.358 . S
C1711 H1717 0.930 . S
C1712 N1710 1.400 . S
C1712 C1713 1.351 . S
C1712 H1729 0.930 . S
C1713 N1709 1.389 . S
C1713 C1712 1.351 . S
C1713 H1718 0.930 . S
O1714 Cu1708 1.974 . S
O1714 C1724 1.282 . S
C1715 O1716 1.261 . S
C1715 O1728 1.251 . S
O1716 C1715 1.261 . S
H1717 C1711 0.930 . S
H1718 C1713 0.930 . S
N1719 Cu1708 1.985 . S
N1719 C1721 1.335 . S
N1719 C1722 1.390 . S
N1720 C1721 1.345 . S
N1720 C1723 1.336 . S
C1721 N1719 1.335 . S
C1721 N1720 1.345 . S
C1721 H1726 0.930 . S
C1722 N1719 1.390 . S
C1722 C1723 1.346 . S
C1722 H1727 0.930 . S
C1723 N1720 1.336 . S
C1723 C1722 1.346 . S
C1723 H1730 0.929 . S
C1724 O1714 1.282 . S
C1724 O1725 1.216 . S
O1725 C1724 1.216 . S
H1726 C1721 0.930 . S
H1727 C1722 0.930 . S
O1728 Cu1708 1.959 . S
O1728 C1715 1.251 . S
H1729 C1712 0.930 . S
H1730 C1723 0.929 . S
Cu1731 N1732 1.999 . S
Cu1731 O1737 1.974 . S
Cu1731 N1742 1.985 . S
Cu1731 O1751 1.959 . S
N1732 Cu1731 1.999 . S
N1732 C1734 1.263 . S
N1732 C1736 1.389 . S
N1733 C1734 1.358 . S
N1733 C1735 1.400 . S
C1734 N1732 1.263 . S
C1734 N1733 1.358 . S
C1734 H1740 0.930 . S
C1735 N1733 1.400 . S
C1735 C1736 1.351 . S
C1735 H1752 0.930 . S
C1736 N1732 1.389 . S
C1736 C1735 1.351 . S
C1736 H1741 0.930 . S
O1737 Cu1731 1.974 . S
O1737 C1747 1.282 . S
C1738 O1739 1.261 . S
C1738 O1751 1.251 . S
O1739 C1738 1.261 . S
H1740 C1734 0.930 . S
H1741 C1736 0.930 . S
N1742 Cu1731 1.985 . S
N1742 C1744 1.335 . S
N1742 C1745 1.390 . S
N1743 C1744 1.345 . S
N1743 C1746 1.336 . S
C1744 N1742 1.335 . S
C1744 N1743 1.345 . S
C1744 H1749 0.930 . S
C1745 N1742 1.390 . S
C1745 C1746 1.346 . S
C1745 H1750 0.930 . S
C1746 N1743 1.336 . S
C1746 C1745 1.346 . S
C1746 H1753 0.929 . S
C1747 O1737 1.282 . S
C1747 O1748 1.216 . S
O1748 C1747 1.216 . S
H1749 C1744 0.930 . S
H1750 C1745 0.930 . S
O1751 Cu1731 1.959 . S
O1751 C1738 1.251 . S
H1752 C1735 0.930 . S
H1753 C1746 0.929 . S
Cu1754 N1755 1.999 . S
Cu1754 O1760 1.974 . S
Cu1754 N1765 1.985 . S
Cu1754 O1774 1.959 . S
N1755 Cu1754 1.999 . S
N1755 C1757 1.263 . S
N1755 C1759 1.389 . S
N1756 C1757 1.358 . S
N1756 C1758 1.400 . S
C1757 N1755 1.263 . S
C1757 N1756 1.358 . S
C1757 H1763 0.930 . S
C1758 N1756 1.400 . S
C1758 C1759 1.351 . S
C1758 H1775 0.930 . S
C1759 N1755 1.389 . S
C1759 C1758 1.351 . S
C1759 H1764 0.930 . S
O1760 Cu1754 1.974 . S
O1760 C1770 1.282 . S
C1761 O1762 1.261 . S
C1761 O1774 1.251 . S
O1762 C1761 1.261 . S
H1763 C1757 0.930 . S
H1764 C1759 0.930 . S
N1765 Cu1754 1.985 . S
N1765 C1767 1.335 . S
N1765 C1768 1.390 . S
N1766 C1767 1.345 . S
N1766 C1769 1.336 . S
C1767 N1765 1.335 . S
C1767 N1766 1.345 . S
C1767 H1772 0.930 . S
C1768 N1765 1.390 . S
C1768 C1769 1.346 . S
C1768 H1773 0.930 . S
C1769 N1766 1.336 . S
C1769 C1768 1.346 . S
C1769 H1776 0.929 . S
C1770 O1760 1.282 . S
C1770 O1771 1.216 . S
O1771 C1770 1.216 . S
H1772 C1767 0.930 . S
H1773 C1768 0.930 . S
O1774 Cu1754 1.959 . S
O1774 C1761 1.251 . S
H1775 C1758 0.930 . S
H1776 C1769 0.929 . S
Cu1777 N1778 1.999 . S
Cu1777 O1783 1.974 . S
Cu1777 N1788 1.985 . S
Cu1777 O1797 1.959 . S
N1778 Cu1777 1.999 . S
N1778 C1780 1.263 . S
N1778 C1782 1.389 . S
N1779 C1780 1.358 . S
N1779 C1781 1.400 . S
C1780 N1778 1.263 . S
C1780 N1779 1.358 . S
C1780 H1786 0.930 . S
C1781 N1779 1.400 . S
C1781 C1782 1.351 . S
C1781 H1798 0.930 . S
C1782 N1778 1.389 . S
C1782 C1781 1.351 . S
C1782 H1787 0.930 . S
O1783 Cu1777 1.974 . S
O1783 C1793 1.282 . S
C1784 O1785 1.261 . S
C1784 O1797 1.251 . S
O1785 C1784 1.261 . S
H1786 C1780 0.930 . S
H1787 C1782 0.930 . S
N1788 Cu1777 1.985 . S
N1788 C1790 1.335 . S
N1788 C1791 1.390 . S
N1789 C1790 1.345 . S
N1789 C1792 1.336 . S
C1790 N1788 1.335 . S
C1790 N1789 1.345 . S
C1790 H1795 0.930 . S
C1791 N1788 1.390 . S
C1791 C1792 1.346 . S
C1791 H1796 0.930 . S
C1792 N1789 1.336 . S
C1792 C1791 1.346 . S
C1792 H1799 0.929 . S
C1793 O1783 1.282 . S
C1793 O1794 1.216 . S
O1794 C1793 1.216 . S
H1795 C1790 0.930 . S
H1796 C1791 0.930 . S
O1797 Cu1777 1.959 . S
O1797 C1784 1.251 . S
H1798 C1781 0.930 . S
H1799 C1792 0.929 . S
H1800 C1808 0.929 . S
H1801 C1810 0.930 . S
H1802 C1812 0.930 . S
H1803 C1815 0.929 . S
H1804 C1818 0.930 . S
H1805 C1820 0.960 . S
H1806 C1820 0.960 . S
H1807 C1820 0.960 . S
C1808 H1800 0.929 . S
C1808 C1809 1.377 . S
C1808 C1810 1.384 . S
C1809 C1808 1.377 . S
C1809 C1815 1.390 . S
C1810 H1801 0.930 . S
C1810 C1808 1.384 . S
C1810 C1811 1.372 . S
C1811 C1810 1.372 . S
C1811 C1812 1.400 . S
C1811 C1816 1.490 . S
C1812 H1802 0.930 . S
C1812 C1811 1.400 . S
C1812 C1815 1.386 . S
H1813 C1829 0.930 . S
H1814 C1830 0.931 . S
C1815 H1803 0.929 . S
C1815 C1809 1.390 . S
C1815 C1812 1.386 . S
C1816 C1811 1.490 . S
C1816 C1818 1.395 . S
C1816 C1819 1.403 . S
H1817 C1823 0.930 . S
C1818 H1804 0.930 . S
C1818 C1816 1.395 . S
C1818 C1821 1.403 . S
C1819 C1816 1.403 . S
C1819 C1820 1.524 . S
C1819 C1823 1.400 . S
C1820 H1805 0.960 . S
C1820 H1806 0.960 . S
C1820 H1807 0.960 . S
C1820 C1819 1.524 . S
C1821 C1818 1.403 . S
C1821 C1822 1.392 . S
C1821 C1825 1.495 . S
C1822 C1821 1.392 . S
C1822 C1823 1.385 . S
C1822 C1824 1.478 . S
C1823 H1817 0.930 . S
C1823 C1819 1.400 . S
C1823 C1822 1.385 . S
C1824 C1822 1.478 . S
C1824 C1826 1.381 . S
C1824 C1830 1.383 . S
C1825 C1821 1.495 . S
C1825 H1831 0.959 . S
C1825 H1832 0.961 . S
C1825 H1833 0.960 . S
C1826 C1824 1.381 . S
C1826 C1827 1.394 . S
C1826 H1834 0.930 . S
C1827 C1826 1.394 . S
C1827 C1828 1.383 . S
C1827 H1835 0.929 . S
C1828 C1827 1.383 . S
C1828 C1829 1.377 . S
C1829 H1813 0.930 . S
C1829 C1828 1.377 . S
C1829 C1830 1.379 . S
C1830 H1814 0.931 . S
C1830 C1824 1.383 . S
C1830 C1829 1.379 . S
H1831 C1825 0.959 . S
H1832 C1825 0.961 . S
H1833 C1825 0.960 . S
H1834 C1826 0.930 . S
H1835 C1827 0.929 . S
H1836 C1844 0.929 . S
H1837 C1846 0.930 . S
H1838 C1848 0.930 . S
H1839 C1851 0.929 . S
H1840 C1854 0.930 . S
H1841 C1856 0.960 . S
H1842 C1856 0.960 . S
H1843 C1856 0.960 . S
C1844 H1836 0.929 . S
C1844 C1845 1.377 . S
C1844 C1846 1.384 . S
C1845 C1844 1.377 . S
C1845 C1851 1.390 . S
C1846 H1837 0.930 . S
C1846 C1844 1.384 . S
C1846 C1847 1.372 . S
C1847 C1846 1.372 . S
C1847 C1848 1.400 . S
C1847 C1852 1.490 . S
C1848 H1838 0.930 . S
C1848 C1847 1.400 . S
C1848 C1851 1.386 . S
H1849 C1865 0.930 . S
H1850 C1866 0.931 . S
C1851 H1839 0.929 . S
C1851 C1845 1.390 . S
C1851 C1848 1.386 . S
C1852 C1847 1.490 . S
C1852 C1854 1.395 . S
C1852 C1855 1.403 . S
H1853 C1859 0.930 . S
C1854 H1840 0.930 . S
C1854 C1852 1.395 . S
C1854 C1857 1.403 . S
C1855 C1852 1.403 . S
C1855 C1856 1.524 . S
C1855 C1859 1.400 . S
C1856 H1841 0.960 . S
C1856 H1842 0.960 . S
C1856 H1843 0.960 . S
C1856 C1855 1.524 . S
C1857 C1854 1.403 . S
C1857 C1858 1.392 . S
C1857 C1861 1.495 . S
C1858 C1857 1.392 . S
C1858 C1859 1.385 . S
C1858 C1860 1.478 . S
C1859 H1853 0.930 . S
C1859 C1855 1.400 . S
C1859 C1858 1.385 . S
C1860 C1858 1.478 . S
C1860 C1862 1.381 . S
C1860 C1866 1.383 . S
C1861 C1857 1.495 . S
C1861 H1867 0.959 . S
C1861 H1868 0.961 . S
C1861 H1869 0.960 . S
C1862 C1860 1.381 . S
C1862 C1863 1.394 . S
C1862 H1870 0.930 . S
C1863 C1862 1.394 . S
C1863 C1864 1.383 . S
C1863 H1871 0.929 . S
C1864 C1863 1.383 . S
C1864 C1865 1.377 . S
C1865 H1849 0.930 . S
C1865 C1864 1.377 . S
C1865 C1866 1.379 . S
C1866 H1850 0.931 . S
C1866 C1860 1.383 . S
C1866 C1865 1.379 . S
H1867 C1861 0.959 . S
H1868 C1861 0.961 . S
H1869 C1861 0.960 . S
H1870 C1862 0.930 . S
H1871 C1863 0.929 . S
H1872 C1880 0.929 . S
H1873 C1882 0.930 . S
H1874 C1884 0.930 . S
H1875 C1887 0.929 . S
H1876 C1890 0.930 . S
H1877 C1892 0.960 . S
H1878 C1892 0.960 . S
H1879 C1892 0.960 . S
C1880 H1872 0.929 . S
C1880 C1881 1.377 . S
C1880 C1882 1.384 . S
C1881 C1880 1.377 . S
C1881 C1887 1.390 . S
C1882 H1873 0.930 . S
C1882 C1880 1.384 . S
C1882 C1883 1.372 . S
C1883 C1882 1.372 . S
C1883 C1884 1.400 . S
C1883 C1888 1.490 . S
C1884 H1874 0.930 . S
C1884 C1883 1.400 . S
C1884 C1887 1.386 . S
H1885 C1901 0.930 . S
H1886 C1902 0.931 . S
C1887 H1875 0.929 . S
C1887 C1881 1.390 . S
C1887 C1884 1.386 . S
C1888 C1883 1.490 . S
C1888 C1890 1.395 . S
C1888 C1891 1.403 . S
H1889 C1895 0.930 . S
C1890 H1876 0.930 . S
C1890 C1888 1.395 . S
C1890 C1893 1.403 . S
C1891 C1888 1.403 . S
C1891 C1892 1.524 . S
C1891 C1895 1.400 . S
C1892 H1877 0.960 . S
C1892 H1878 0.960 . S
C1892 H1879 0.960 . S
C1892 C1891 1.524 . S
C1893 C1890 1.403 . S
C1893 C1894 1.392 . S
C1893 C1897 1.495 . S
C1894 C1893 1.392 . S
C1894 C1895 1.385 . S
C1894 C1896 1.478 . S
C1895 H1889 0.930 . S
C1895 C1891 1.400 . S
C1895 C1894 1.385 . S
C1896 C1894 1.478 . S
C1896 C1898 1.381 . S
C1896 C1902 1.383 . S
C1897 C1893 1.495 . S
C1897 H1903 0.959 . S
C1897 H1904 0.961 . S
C1897 H1905 0.960 . S
C1898 C1896 1.381 . S
C1898 C1899 1.394 . S
C1898 H1906 0.930 . S
C1899 C1898 1.394 . S
C1899 C1900 1.383 . S
C1899 H1907 0.929 . S
C1900 C1899 1.383 . S
C1900 C1901 1.377 . S
C1901 H1885 0.930 . S
C1901 C1900 1.377 . S
C1901 C1902 1.379 . S
C1902 H1886 0.931 . S
C1902 C1896 1.383 . S
C1902 C1901 1.379 . S
H1903 C1897 0.959 . S
H1904 C1897 0.961 . S
H1905 C1897 0.960 . S
H1906 C1898 0.930 . S
H1907 C1899 0.929 . S
H1908 C1916 0.929 . S
H1909 C1918 0.930 . S
H1910 C1920 0.930 . S
H1911 C1923 0.929 . S
H1912 C1926 0.930 . S
H1913 C1928 0.960 . S
H1914 C1928 0.960 . S
H1915 C1928 0.960 . S
C1916 H1908 0.929 . S
C1916 C1917 1.377 . S
C1916 C1918 1.384 . S
C1917 C1916 1.377 . S
C1917 C1923 1.390 . S
C1918 H1909 0.930 . S
C1918 C1916 1.384 . S
C1918 C1919 1.372 . S
C1919 C1918 1.372 . S
C1919 C1920 1.400 . S
C1919 C1924 1.490 . S
C1920 H1910 0.930 . S
C1920 C1919 1.400 . S
C1920 C1923 1.386 . S
H1921 C1937 0.930 . S
H1922 C1938 0.931 . S
C1923 H1911 0.929 . S
C1923 C1917 1.390 . S
C1923 C1920 1.386 . S
C1924 C1919 1.490 . S
C1924 C1926 1.395 . S
C1924 C1927 1.403 . S
H1925 C1931 0.930 . S
C1926 H1912 0.930 . S
C1926 C1924 1.395 . S
C1926 C1929 1.403 . S
C1927 C1924 1.403 . S
C1927 C1928 1.524 . S
C1927 C1931 1.400 . S
C1928 H1913 0.960 . S
C1928 H1914 0.960 . S
C1928 H1915 0.960 . S
C1928 C1927 1.524 . S
C1929 C1926 1.403 . S
C1929 C1930 1.392 . S
C1929 C1933 1.495 . S
C1930 C1929 1.392 . S
C1930 C1931 1.385 . S
C1930 C1932 1.478 . S
C1931 H1925 0.930 . S
C1931 C1927 1.400 . S
C1931 C1930 1.385 . S
C1932 C1930 1.478 . S
C1932 C1934 1.381 . S
C1932 C1938 1.383 . S
C1933 C1929 1.495 . S
C1933 H1939 0.959 . S
C1933 H1940 0.961 . S
C1933 H1941 0.960 . S
C1934 C1932 1.381 . S
C1934 C1935 1.394 . S
C1934 H1942 0.930 . S
C1935 C1934 1.394 . S
C1935 C1936 1.383 . S
C1935 H1943 0.929 . S
C1936 C1935 1.383 . S
C1936 C1937 1.377 . S
C1937 H1921 0.930 . S
C1937 C1936 1.377 . S
C1937 C1938 1.379 . S
C1938 H1922 0.931 . S
C1938 C1932 1.383 . S
C1938 C1937 1.379 . S
H1939 C1933 0.959 . S
H1940 C1933 0.961 . S
H1941 C1933 0.960 . S
H1942 C1934 0.930 . S
H1943 C1935 0.929 . S
H1944 C1952 0.929 . S
H1945 C1954 0.930 . S
H1946 C1956 0.930 . S
H1947 C1959 0.929 . S
H1948 C1962 0.930 . S
H1949 C1964 0.960 . S
H1950 C1964 0.960 . S
H1951 C1964 0.960 . S
C1952 H1944 0.929 . S
C1952 C1953 1.377 . S
C1952 C1954 1.384 . S
C1953 C1952 1.377 . S
C1953 C1959 1.390 . S
C1954 H1945 0.930 . S
C1954 C1952 1.384 . S
C1954 C1955 1.372 . S
C1955 C1954 1.372 . S
C1955 C1956 1.400 . S
C1955 C1960 1.490 . S
C1956 H1946 0.930 . S
C1956 C1955 1.400 . S
C1956 C1959 1.386 . S
H1957 C1973 0.930 . S
H1958 C1974 0.931 . S
C1959 H1947 0.929 . S
C1959 C1953 1.390 . S
C1959 C1956 1.386 . S
C1960 C1955 1.490 . S
C1960 C1962 1.395 . S
C1960 C1963 1.403 . S
H1961 C1967 0.930 . S
C1962 H1948 0.930 . S
C1962 C1960 1.395 . S
C1962 C1965 1.403 . S
C1963 C1960 1.403 . S
C1963 C1964 1.524 . S
C1963 C1967 1.400 . S
C1964 H1949 0.960 . S
C1964 H1950 0.960 . S
C1964 H1951 0.960 . S
C1964 C1963 1.524 . S
C1965 C1962 1.403 . S
C1965 C1966 1.392 . S
C1965 C1969 1.495 . S
C1966 C1965 1.392 . S
C1966 C1967 1.385 . S
C1966 C1968 1.478 . S
C1967 H1961 0.930 . S
C1967 C1963 1.400 . S
C1967 C1966 1.385 . S
C1968 C1966 1.478 . S
C1968 C1970 1.381 . S
C1968 C1974 1.383 . S
C1969 C1965 1.495 . S
C1969 H1975 0.959 . S
C1969 H1976 0.961 . S
C1969 H1977 0.960 . S
C1970 C1968 1.381 . S
C1970 C1971 1.394 . S
C1970 H1978 0.930 . S
C1971 C1970 1.394 . S
C1971 C1972 1.383 . S
C1971 H1979 0.929 . S
C1972 C1971 1.383 . S
C1972 C1973 1.377 . S
C1973 H1957 0.930 . S
C1973 C1972 1.377 . S
C1973 C1974 1.379 . S
C1974 H1958 0.931 . S
C1974 C1968 1.383 . S
C1974 C1973 1.379 . S
H1975 C1969 0.959 . S
H1976 C1969 0.961 . S
H1977 C1969 0.960 . S
H1978 C1970 0.930 . S
H1979 C1971 0.929 . S
H1980 C1988 0.929 . S
H1981 C1990 0.930 . S
H1982 C1992 0.930 . S
H1983 C1995 0.929 . S
H1984 C1998 0.930 . S
H1985 C2000 0.960 . S
H1986 C2000 0.960 . S
H1987 C2000 0.960 . S
C1988 H1980 0.929 . S
C1988 C1989 1.377 . S
C1988 C1990 1.384 . S
C1989 C1988 1.377 . S
C1989 C1995 1.390 . S
C1990 H1981 0.930 . S
C1990 C1988 1.384 . S
C1990 C1991 1.372 . S
C1991 C1990 1.372 . S
C1991 C1992 1.400 . S
C1991 C1996 1.490 . S
C1992 H1982 0.930 . S
C1992 C1991 1.400 . S
C1992 C1995 1.386 . S
H1993 C2009 0.930 . S
H1994 C2010 0.931 . S
C1995 H1983 0.929 . S
C1995 C1989 1.390 . S
C1995 C1992 1.386 . S
C1996 C1991 1.490 . S
C1996 C1998 1.395 . S
C1996 C1999 1.403 . S
H1997 C2003 0.930 . S
C1998 H1984 0.930 . S
C1998 C1996 1.395 . S
C1998 C2001 1.403 . S
C1999 C1996 1.403 . S
C1999 C2000 1.524 . S
C1999 C2003 1.400 . S
C2000 H1985 0.960 . S
C2000 H1986 0.960 . S
C2000 H1987 0.960 . S
C2000 C1999 1.524 . S
C2001 C1998 1.403 . S
C2001 C2002 1.392 . S
C2001 C2005 1.495 . S
C2002 C2001 1.392 . S
C2002 C2003 1.385 . S
C2002 C2004 1.478 . S
C2003 H1997 0.930 . S
C2003 C1999 1.400 . S
C2003 C2002 1.385 . S
C2004 C2002 1.478 . S
C2004 C2006 1.381 . S
C2004 C2010 1.383 . S
C2005 C2001 1.495 . S
C2005 H2011 0.959 . S
C2005 H2012 0.961 . S
C2005 H2013 0.960 . S
C2006 C2004 1.381 . S
C2006 C2007 1.394 . S
C2006 H2014 0.930 . S
C2007 C2006 1.394 . S
C2007 C2008 1.383 . S
C2007 H2015 0.929 . S
C2008 C2007 1.383 . S
C2008 C2009 1.377 . S
C2009 H1993 0.930 . S
C2009 C2008 1.377 . S
C2009 C2010 1.379 . S
C2010 H1994 0.931 . S
C2010 C2004 1.383 . S
C2010 C2009 1.379 . S
H2011 C2005 0.959 . S
H2012 C2005 0.961 . S
H2013 C2005 0.960 . S
H2014 C2006 0.930 . S
H2015 C2007 0.929 . S
H2016 C2024 0.929 . S
H2017 C2026 0.930 . S
H2018 C2028 0.930 . S
H2019 C2031 0.929 . S
H2020 C2034 0.930 . S
H2021 C2036 0.960 . S
H2022 C2036 0.960 . S
H2023 C2036 0.960 . S
C2024 H2016 0.929 . S
C2024 C2025 1.377 . S
C2024 C2026 1.384 . S
C2025 C2024 1.377 . S
C2025 C2031 1.390 . S
C2026 H2017 0.930 . S
C2026 C2024 1.384 . S
C2026 C2027 1.372 . S
C2027 C2026 1.372 . S
C2027 C2028 1.400 . S
C2027 C2032 1.490 . S
C2028 H2018 0.930 . S
C2028 C2027 1.400 . S
C2028 C2031 1.386 . S
H2029 C2045 0.930 . S
H2030 C2046 0.931 . S
C2031 H2019 0.929 . S
C2031 C2025 1.390 . S
C2031 C2028 1.386 . S
C2032 C2027 1.490 . S
C2032 C2034 1.395 . S
C2032 C2035 1.403 . S
H2033 C2039 0.930 . S
C2034 H2020 0.930 . S
C2034 C2032 1.395 . S
C2034 C2037 1.403 . S
C2035 C2032 1.403 . S
C2035 C2036 1.524 . S
C2035 C2039 1.400 . S
C2036 H2021 0.960 . S
C2036 H2022 0.960 . S
C2036 H2023 0.960 . S
C2036 C2035 1.524 . S
C2037 C2034 1.403 . S
C2037 C2038 1.392 . S
C2037 C2041 1.495 . S
C2038 C2037 1.392 . S
C2038 C2039 1.385 . S
C2038 C2040 1.478 . S
C2039 H2033 0.930 . S
C2039 C2035 1.400 . S
C2039 C2038 1.385 . S
C2040 C2038 1.478 . S
C2040 C2042 1.381 . S
C2040 C2046 1.383 . S
C2041 C2037 1.495 . S
C2041 H2047 0.959 . S
C2041 H2048 0.961 . S
C2041 H2049 0.960 . S
C2042 C2040 1.381 . S
C2042 C2043 1.394 . S
C2042 H2050 0.930 . S
C2043 C2042 1.394 . S
C2043 C2044 1.383 . S
C2043 H2051 0.929 . S
C2044 C2043 1.383 . S
C2044 C2045 1.377 . S
C2045 H2029 0.930 . S
C2045 C2044 1.377 . S
C2045 C2046 1.379 . S
C2046 H2030 0.931 . S
C2046 C2040 1.383 . S
C2046 C2045 1.379 . S
H2047 C2041 0.959 . S
H2048 C2041 0.961 . S
H2049 C2041 0.960 . S
H2050 C2042 0.930 . S
H2051 C2043 0.929 . S
H2052 C2060 0.929 . S
H2053 C2062 0.930 . S
H2054 C2064 0.930 . S
H2055 C2067 0.929 . S
H2056 C2070 0.930 . S
H2057 C2072 0.960 . S
H2058 C2072 0.960 . S
H2059 C2072 0.960 . S
C2060 H2052 0.929 . S
C2060 C2061 1.377 . S
C2060 C2062 1.384 . S
C2061 C2060 1.377 . S
C2061 C2067 1.390 . S
C2062 H2053 0.930 . S
C2062 C2060 1.384 . S
C2062 C2063 1.372 . S
C2063 C2062 1.372 . S
C2063 C2064 1.400 . S
C2063 C2068 1.490 . S
C2064 H2054 0.930 . S
C2064 C2063 1.400 . S
C2064 C2067 1.386 . S
H2065 C2081 0.930 . S
H2066 C2082 0.931 . S
C2067 H2055 0.929 . S
C2067 C2061 1.390 . S
C2067 C2064 1.386 . S
C2068 C2063 1.490 . S
C2068 C2070 1.395 . S
C2068 C2071 1.403 . S
H2069 C2075 0.930 . S
C2070 H2056 0.930 . S
C2070 C2068 1.395 . S
C2070 C2073 1.403 . S
C2071 C2068 1.403 . S
C2071 C2072 1.524 . S
C2071 C2075 1.400 . S
C2072 H2057 0.960 . S
C2072 H2058 0.960 . S
C2072 H2059 0.960 . S
C2072 C2071 1.524 . S
C2073 C2070 1.403 . S
C2073 C2074 1.392 . S
C2073 C2077 1.495 . S
C2074 C2073 1.392 . S
C2074 C2075 1.385 . S
C2074 C2076 1.478 . S
C2075 H2069 0.930 . S
C2075 C2071 1.400 . S
C2075 C2074 1.385 . S
C2076 C2074 1.478 . S
C2076 C2078 1.381 . S
C2076 C2082 1.383 . S
C2077 C2073 1.495 . S
C2077 H2083 0.959 . S
C2077 H2084 0.961 . S
C2077 H2085 0.960 . S
C2078 C2076 1.381 . S
C2078 C2079 1.394 . S
C2078 H2086 0.930 . S
C2079 C2078 1.394 . S
C2079 C2080 1.383 . S
C2079 H2087 0.929 . S
C2080 C2079 1.383 . S
C2080 C2081 1.377 . S
C2081 H2065 0.930 . S
C2081 C2080 1.377 . S
C2081 C2082 1.379 . S
C2082 H2066 0.931 . S
C2082 C2076 1.383 . S
C2082 C2081 1.379 . S
H2083 C2077 0.959 . S
H2084 C2077 0.961 . S
H2085 C2077 0.960 . S
H2086 C2078 0.930 . S
H2087 C2079 0.929 . S
H2088 C2096 0.929 . S
H2089 C2098 0.930 . S
H2090 C2100 0.930 . S
H2091 C2103 0.929 . S
H2092 C2106 0.930 . S
H2093 C2108 0.960 . S
H2094 C2108 0.960 . S
H2095 C2108 0.960 . S
C2096 H2088 0.929 . S
C2096 C2097 1.377 . S
C2096 C2098 1.384 . S
C2097 C2096 1.377 . S
C2097 C2103 1.390 . S
C2098 H2089 0.930 . S
C2098 C2096 1.384 . S
C2098 C2099 1.372 . S
C2099 C2098 1.372 . S
C2099 C2100 1.400 . S
C2099 C2104 1.490 . S
C2100 H2090 0.930 . S
C2100 C2099 1.400 . S
C2100 C2103 1.386 . S
H2101 C2117 0.930 . S
H2102 C2118 0.931 . S
C2103 H2091 0.929 . S
C2103 C2097 1.390 . S
C2103 C2100 1.386 . S
C2104 C2099 1.490 . S
C2104 C2106 1.395 . S
C2104 C2107 1.403 . S
H2105 C2111 0.930 . S
C2106 H2092 0.930 . S
C2106 C2104 1.395 . S
C2106 C2109 1.403 . S
C2107 C2104 1.403 . S
C2107 C2108 1.524 . S
C2107 C2111 1.400 . S
C2108 H2093 0.960 . S
C2108 H2094 0.960 . S
C2108 H2095 0.960 . S
C2108 C2107 1.524 . S
C2109 C2106 1.403 . S
C2109 C2110 1.392 . S
C2109 C2113 1.495 . S
C2110 C2109 1.392 . S
C2110 C2111 1.385 . S
C2110 C2112 1.478 . S
C2111 H2105 0.930 . S
C2111 C2107 1.400 . S
C2111 C2110 1.385 . S
C2112 C2110 1.478 . S
C2112 C2114 1.381 . S
C2112 C2118 1.383 . S
C2113 C2109 1.495 . S
C2113 H2119 0.959 . S
C2113 H2120 0.961 . S
C2113 H2121 0.960 . S
C2114 C2112 1.381 . S
C2114 C2115 1.394 . S
C2114 H2122 0.930 . S
C2115 C2114 1.394 . S
C2115 C2116 1.383 . S
C2115 H2123 0.929 . S
C2116 C2115 1.383 . S
C2116 C2117 1.377 . S
C2117 H2101 0.930 . S
C2117 C2116 1.377 . S
C2117 C2118 1.379 . S
C2118 H2102 0.931 . S
C2118 C2112 1.383 . S
C2118 C2117 1.379 . S
H2119 C2113 0.959 . S
H2120 C2113 0.961 . S
H2121 C2113 0.960 . S
H2122 C2114 0.930 . S
H2123 C2115 0.929 . S
H2124 C2132 0.929 . S
H2125 C2134 0.930 . S
H2126 C2136 0.930 . S
H2127 C2139 0.929 . S
H2128 C2142 0.930 . S
H2129 C2144 0.960 . S
H2130 C2144 0.960 . S
H2131 C2144 0.960 . S
C2132 H2124 0.929 . S
C2132 C2133 1.377 . S
C2132 C2134 1.384 . S
C2133 C2132 1.377 . S
C2133 C2139 1.390 . S
C2134 H2125 0.930 . S
C2134 C2132 1.384 . S
C2134 C2135 1.372 . S
C2135 C2134 1.372 . S
C2135 C2136 1.400 . S
C2135 C2140 1.490 . S
C2136 H2126 0.930 . S
C2136 C2135 1.400 . S
C2136 C2139 1.386 . S
H2137 C2153 0.930 . S
H2138 C2154 0.931 . S
C2139 H2127 0.929 . S
C2139 C2133 1.390 . S
C2139 C2136 1.386 . S
C2140 C2135 1.490 . S
C2140 C2142 1.395 . S
C2140 C2143 1.403 . S
H2141 C2147 0.930 . S
C2142 H2128 0.930 . S
C2142 C2140 1.395 . S
C2142 C2145 1.403 . S
C2143 C2140 1.403 . S
C2143 C2144 1.524 . S
C2143 C2147 1.400 . S
C2144 H2129 0.960 . S
C2144 H2130 0.960 . S
C2144 H2131 0.960 . S
C2144 C2143 1.524 . S
C2145 C2142 1.403 . S
C2145 C2146 1.392 . S
C2145 C2149 1.495 . S
C2146 C2145 1.392 . S
C2146 C2147 1.385 . S
C2146 C2148 1.478 . S
C2147 H2141 0.930 . S
C2147 C2143 1.400 . S
C2147 C2146 1.385 . S
C2148 C2146 1.478 . S
C2148 C2150 1.381 . S
C2148 C2154 1.383 . S
C2149 C2145 1.495 . S
C2149 H2155 0.959 . S
C2149 H2156 0.961 . S
C2149 H2157 0.960 . S
C2150 C2148 1.381 . S
C2150 C2151 1.394 . S
C2150 H2158 0.930 . S
C2151 C2150 1.394 . S
C2151 C2152 1.383 . S
C2151 H2159 0.929 . S
C2152 C2151 1.383 . S
C2152 C2153 1.377 . S
C2153 H2137 0.930 . S
C2153 C2152 1.377 . S
C2153 C2154 1.379 . S
C2154 H2138 0.931 . S
C2154 C2148 1.383 . S
C2154 C2153 1.379 . S
H2155 C2149 0.959 . S
H2156 C2149 0.961 . S
H2157 C2149 0.960 . S
H2158 C2150 0.930 . S
H2159 C2151 0.929 . S
H2160 C2168 0.929 . S
H2161 C2170 0.930 . S
H2162 C2172 0.930 . S
H2163 C2175 0.929 . S
H2164 C2178 0.930 . S
H2165 C2180 0.960 . S
H2166 C2180 0.960 . S
H2167 C2180 0.960 . S
C2168 H2160 0.929 . S
C2168 C2169 1.377 . S
C2168 C2170 1.384 . S
C2169 C2168 1.377 . S
C2169 C2175 1.390 . S
C2170 H2161 0.930 . S
C2170 C2168 1.384 . S
C2170 C2171 1.372 . S
C2171 C2170 1.372 . S
C2171 C2172 1.400 . S
C2171 C2176 1.490 . S
C2172 H2162 0.930 . S
C2172 C2171 1.400 . S
C2172 C2175 1.386 . S
H2173 C2189 0.930 . S
H2174 C2190 0.931 . S
C2175 H2163 0.929 . S
C2175 C2169 1.390 . S
C2175 C2172 1.386 . S
C2176 C2171 1.490 . S
C2176 C2178 1.395 . S
C2176 C2179 1.403 . S
H2177 C2183 0.930 . S
C2178 H2164 0.930 . S
C2178 C2176 1.395 . S
C2178 C2181 1.403 . S
C2179 C2176 1.403 . S
C2179 C2180 1.524 . S
C2179 C2183 1.400 . S
C2180 H2165 0.960 . S
C2180 H2166 0.960 . S
C2180 H2167 0.960 . S
C2180 C2179 1.524 . S
C2181 C2178 1.403 . S
C2181 C2182 1.392 . S
C2181 C2185 1.495 . S
C2182 C2181 1.392 . S
C2182 C2183 1.385 . S
C2182 C2184 1.478 . S
C2183 H2177 0.930 . S
C2183 C2179 1.400 . S
C2183 C2182 1.385 . S
C2184 C2182 1.478 . S
C2184 C2186 1.381 . S
C2184 C2190 1.383 . S
C2185 C2181 1.495 . S
C2185 H2191 0.959 . S
C2185 H2192 0.961 . S
C2185 H2193 0.960 . S
C2186 C2184 1.381 . S
C2186 C2187 1.394 . S
C2186 H2194 0.930 . S
C2187 C2186 1.394 . S
C2187 C2188 1.383 . S
C2187 H2195 0.929 . S
C2188 C2187 1.383 . S
C2188 C2189 1.377 . S
C2189 H2173 0.930 . S
C2189 C2188 1.377 . S
C2189 C2190 1.379 . S
C2190 H2174 0.931 . S
C2190 C2184 1.383 . S
C2190 C2189 1.379 . S
H2191 C2185 0.959 . S
H2192 C2185 0.961 . S
H2193 C2185 0.960 . S
H2194 C2186 0.930 . S
H2195 C2187 0.929 . S
H2196 C2204 0.929 . S
H2197 C2206 0.930 . S
H2198 C2208 0.930 . S
H2199 C2211 0.929 . S
H2200 C2214 0.930 . S
H2201 C2216 0.960 . S
H2202 C2216 0.960 . S
H2203 C2216 0.960 . S
C2204 H2196 0.929 . S
C2204 C2205 1.377 . S
C2204 C2206 1.384 . S
C2205 C2204 1.377 . S
C2205 C2211 1.390 . S
C2206 H2197 0.930 . S
C2206 C2204 1.384 . S
C2206 C2207 1.372 . S
C2207 C2206 1.372 . S
C2207 C2208 1.400 . S
C2207 C2212 1.490 . S
C2208 H2198 0.930 . S
C2208 C2207 1.400 . S
C2208 C2211 1.386 . S
H2209 C2225 0.930 . S
H2210 C2226 0.931 . S
C2211 H2199 0.929 . S
C2211 C2205 1.390 . S
C2211 C2208 1.386 . S
C2212 C2207 1.490 . S
C2212 C2214 1.395 . S
C2212 C2215 1.403 . S
H2213 C2219 0.930 . S
C2214 H2200 0.930 . S
C2214 C2212 1.395 . S
C2214 C2217 1.403 . S
C2215 C2212 1.403 . S
C2215 C2216 1.524 . S
C2215 C2219 1.400 . S
C2216 H2201 0.960 . S
C2216 H2202 0.960 . S
C2216 H2203 0.960 . S
C2216 C2215 1.524 . S
C2217 C2214 1.403 . S
C2217 C2218 1.392 . S
C2217 C2221 1.495 . S
C2218 C2217 1.392 . S
C2218 C2219 1.385 . S
C2218 C2220 1.478 . S
C2219 H2213 0.930 . S
C2219 C2215 1.400 . S
C2219 C2218 1.385 . S
C2220 C2218 1.478 . S
C2220 C2222 1.381 . S
C2220 C2226 1.383 . S
C2221 C2217 1.495 . S
C2221 H2227 0.959 . S
C2221 H2228 0.961 . S
C2221 H2229 0.960 . S
C2222 C2220 1.381 . S
C2222 C2223 1.394 . S
C2222 H2230 0.930 . S
C2223 C2222 1.394 . S
C2223 C2224 1.383 . S
C2223 H2231 0.929 . S
C2224 C2223 1.383 . S
C2224 C2225 1.377 . S
C2225 H2209 0.930 . S
C2225 C2224 1.377 . S
C2225 C2226 1.379 . S
C2226 H2210 0.931 . S
C2226 C2220 1.383 . S
C2226 C2225 1.379 . S
H2227 C2221 0.959 . S
H2228 C2221 0.961 . S
H2229 C2221 0.960 . S
H2230 C2222 0.930 . S
H2231 C2223 0.929 . S
H2232 C2240 0.929 . S
H2233 C2242 0.930 . S
H2234 C2244 0.930 . S
H2235 C2247 0.929 . S
H2236 C2250 0.930 . S
H2237 C2252 0.960 . S
H2238 C2252 0.960 . S
H2239 C2252 0.960 . S
C2240 H2232 0.929 . S
C2240 C2241 1.377 . S
C2240 C2242 1.384 . S
C2241 C2240 1.377 . S
C2241 C2247 1.390 . S
C2242 H2233 0.930 . S
C2242 C2240 1.384 . S
C2242 C2243 1.372 . S
C2243 C2242 1.372 . S
C2243 C2244 1.400 . S
C2243 C2248 1.490 . S
C2244 H2234 0.930 . S
C2244 C2243 1.400 . S
C2244 C2247 1.386 . S
H2245 C2261 0.930 . S
H2246 C2262 0.931 . S
C2247 H2235 0.929 . S
C2247 C2241 1.390 . S
C2247 C2244 1.386 . S
C2248 C2243 1.490 . S
C2248 C2250 1.395 . S
C2248 C2251 1.403 . S
H2249 C2255 0.930 . S
C2250 H2236 0.930 . S
C2250 C2248 1.395 . S
C2250 C2253 1.403 . S
C2251 C2248 1.403 . S
C2251 C2252 1.524 . S
C2251 C2255 1.400 . S
C2252 H2237 0.960 . S
C2252 H2238 0.960 . S
C2252 H2239 0.960 . S
C2252 C2251 1.524 . S
C2253 C2250 1.403 . S
C2253 C2254 1.392 . S
C2253 C2257 1.495 . S
C2254 C2253 1.392 . S
C2254 C2255 1.385 . S
C2254 C2256 1.478 . S
C2255 H2249 0.930 . S
C2255 C2251 1.400 . S
C2255 C2254 1.385 . S
C2256 C2254 1.478 . S
C2256 C2258 1.381 . S
C2256 C2262 1.383 . S
C2257 C2253 1.495 . S
C2257 H2263 0.959 . S
C2257 H2264 0.961 . S
C2257 H2265 0.960 . S
C2258 C2256 1.381 . S
C2258 C2259 1.394 . S
C2258 H2266 0.930 . S
C2259 C2258 1.394 . S
C2259 C2260 1.383 . S
C2259 H2267 0.929 . S
C2260 C2259 1.383 . S
C2260 C2261 1.377 . S
C2261 H2245 0.930 . S
C2261 C2260 1.377 . S
C2261 C2262 1.379 . S
C2262 H2246 0.931 . S
C2262 C2256 1.383 . S
C2262 C2261 1.379 . S
H2263 C2257 0.959 . S
H2264 C2257 0.961 . S
H2265 C2257 0.960 . S
H2266 C2258 0.930 . S
H2267 C2259 0.929 . S
H2268 C2276 0.929 . S
H2269 C2278 0.930 . S
H2270 C2280 0.930 . S
H2271 C2283 0.929 . S
H2272 C2286 0.930 . S
H2273 C2288 0.960 . S
H2274 C2288 0.960 . S
H2275 C2288 0.960 . S
C2276 H2268 0.929 . S
C2276 C2277 1.377 . S
C2276 C2278 1.384 . S
C2277 C2276 1.377 . S
C2277 C2283 1.390 . S
C2278 H2269 0.930 . S
C2278 C2276 1.384 . S
C2278 C2279 1.372 . S
C2279 C2278 1.372 . S
C2279 C2280 1.400 . S
C2279 C2284 1.490 . S
C2280 H2270 0.930 . S
C2280 C2279 1.400 . S
C2280 C2283 1.386 . S
H2281 C2297 0.930 . S
H2282 C2298 0.931 . S
C2283 H2271 0.929 . S
C2283 C2277 1.390 . S
C2283 C2280 1.386 . S
C2284 C2279 1.490 . S
C2284 C2286 1.395 . S
C2284 C2287 1.403 . S
H2285 C2291 0.930 . S
C2286 H2272 0.930 . S
C2286 C2284 1.395 . S
C2286 C2289 1.403 . S
C2287 C2284 1.403 . S
C2287 C2288 1.524 . S
C2287 C2291 1.400 . S
C2288 H2273 0.960 . S
C2288 H2274 0.960 . S
C2288 H2275 0.960 . S
C2288 C2287 1.524 . S
C2289 C2286 1.403 . S
C2289 C2290 1.392 . S
C2289 C2293 1.495 . S
C2290 C2289 1.392 . S
C2290 C2291 1.385 . S
C2290 C2292 1.478 . S
C2291 H2285 0.930 . S
C2291 C2287 1.400 . S
C2291 C2290 1.385 . S
C2292 C2290 1.478 . S
C2292 C2294 1.381 . S
C2292 C2298 1.383 . S
C2293 C2289 1.495 . S
C2293 H2299 0.959 . S
C2293 H2300 0.961 . S
C2293 H2301 0.960 . S
C2294 C2292 1.381 . S
C2294 C2295 1.394 . S
C2294 H2302 0.930 . S
C2295 C2294 1.394 . S
C2295 C2296 1.383 . S
C2295 H2303 0.929 . S
C2296 C2295 1.383 . S
C2296 C2297 1.377 . S
C2297 H2281 0.930 . S
C2297 C2296 1.377 . S
C2297 C2298 1.379 . S
C2298 H2282 0.931 . S
C2298 C2292 1.383 . S
C2298 C2297 1.379 . S
H2299 C2293 0.959 . S
H2300 C2293 0.961 . S
H2301 C2293 0.960 . S
H2302 C2294 0.930 . S
H2303 C2295 0.929 . S
H2304 C2312 0.929 . S
H2305 C2314 0.930 . S
H2306 C2316 0.930 . S
H2307 C2319 0.929 . S
H2308 C2322 0.930 . S
H2309 C2324 0.960 . S
H2310 C2324 0.960 . S
H2311 C2324 0.960 . S
C2312 H2304 0.929 . S
C2312 C2313 1.377 . S
C2312 C2314 1.384 . S
C2313 C2312 1.377 . S
C2313 C2319 1.390 . S
C2314 H2305 0.930 . S
C2314 C2312 1.384 . S
C2314 C2315 1.372 . S
C2315 C2314 1.372 . S
C2315 C2316 1.400 . S
C2315 C2320 1.490 . S
C2316 H2306 0.930 . S
C2316 C2315 1.400 . S
C2316 C2319 1.386 . S
H2317 C2333 0.930 . S
H2318 C2334 0.931 . S
C2319 H2307 0.929 . S
C2319 C2313 1.390 . S
C2319 C2316 1.386 . S
C2320 C2315 1.490 . S
C2320 C2322 1.395 . S
C2320 C2323 1.403 . S
H2321 C2327 0.930 . S
C2322 H2308 0.930 . S
C2322 C2320 1.395 . S
C2322 C2325 1.403 . S
C2323 C2320 1.403 . S
C2323 C2324 1.524 . S
C2323 C2327 1.400 . S
C2324 H2309 0.960 . S
C2324 H2310 0.960 . S
C2324 H2311 0.960 . S
C2324 C2323 1.524 . S
C2325 C2322 1.403 . S
C2325 C2326 1.392 . S
C2325 C2329 1.495 . S
C2326 C2325 1.392 . S
C2326 C2327 1.385 . S
C2326 C2328 1.478 . S
C2327 H2321 0.930 . S
C2327 C2323 1.400 . S
C2327 C2326 1.385 . S
C2328 C2326 1.478 . S
C2328 C2330 1.381 . S
C2328 C2334 1.383 . S
C2329 C2325 1.495 . S
C2329 H2335 0.959 . S
C2329 H2336 0.961 . S
C2329 H2337 0.960 . S
C2330 C2328 1.381 . S
C2330 C2331 1.394 . S
C2330 H2338 0.930 . S
C2331 C2330 1.394 . S
C2331 C2332 1.383 . S
C2331 H2339 0.929 . S
C2332 C2331 1.383 . S
C2332 C2333 1.377 . S
C2333 H2317 0.930 . S
C2333 C2332 1.377 . S
C2333 C2334 1.379 . S
C2334 H2318 0.931 . S
C2334 C2328 1.383 . S
C2334 C2333 1.379 . S
H2335 C2329 0.959 . S
H2336 C2329 0.961 . S
H2337 C2329 0.960 . S
H2338 C2330 0.930 . S
H2339 C2331 0.929 . S
H2340 C2348 0.929 . S
H2341 C2350 0.930 . S
H2342 C2352 0.930 . S
H2343 C2355 0.929 . S
H2344 C2358 0.930 . S
H2345 C2360 0.960 . S
H2346 C2360 0.960 . S
H2347 C2360 0.960 . S
C2348 H2340 0.929 . S
C2348 C2349 1.377 . S
C2348 C2350 1.384 . S
C2349 C2348 1.377 . S
C2349 C2355 1.390 . S
C2350 H2341 0.930 . S
C2350 C2348 1.384 . S
C2350 C2351 1.372 . S
C2351 C2350 1.372 . S
C2351 C2352 1.400 . S
C2351 C2356 1.490 . S
C2352 H2342 0.930 . S
C2352 C2351 1.400 . S
C2352 C2355 1.386 . S
H2353 C2369 0.930 . S
H2354 C2370 0.931 . S
C2355 H2343 0.929 . S
C2355 C2349 1.390 . S
C2355 C2352 1.386 . S
C2356 C2351 1.490 . S
C2356 C2358 1.395 . S
C2356 C2359 1.403 . S
H2357 C2363 0.930 . S
C2358 H2344 0.930 . S
C2358 C2356 1.395 . S
C2358 C2361 1.403 . S
C2359 C2356 1.403 . S
C2359 C2360 1.524 . S
C2359 C2363 1.400 . S
C2360 H2345 0.960 . S
C2360 H2346 0.960 . S
C2360 H2347 0.960 . S
C2360 C2359 1.524 . S
C2361 C2358 1.403 . S
C2361 C2362 1.392 . S
C2361 C2365 1.495 . S
C2362 C2361 1.392 . S
C2362 C2363 1.385 . S
C2362 C2364 1.478 . S
C2363 H2357 0.930 . S
C2363 C2359 1.400 . S
C2363 C2362 1.385 . S
C2364 C2362 1.478 . S
C2364 C2366 1.381 . S
C2364 C2370 1.383 . S
C2365 C2361 1.495 . S
C2365 H2371 0.959 . S
C2365 H2372 0.961 . S
C2365 H2373 0.960 . S
C2366 C2364 1.381 . S
C2366 C2367 1.394 . S
C2366 H2374 0.930 . S
C2367 C2366 1.394 . S
C2367 C2368 1.383 . S
C2367 H2375 0.929 . S
C2368 C2367 1.383 . S
C2368 C2369 1.377 . S
C2369 H2353 0.930 . S
C2369 C2368 1.377 . S
C2369 C2370 1.379 . S
C2370 H2354 0.931 . S
C2370 C2364 1.383 . S
C2370 C2369 1.379 . S
H2371 C2365 0.959 . S
H2372 C2365 0.961 . S
H2373 C2365 0.960 . S
H2374 C2366 0.930 . S
H2375 C2367 0.929 . S
H2376 C2384 0.929 . S
H2377 C2386 0.930 . S
H2378 C2388 0.930 . S
H2379 C2391 0.929 . S
H2380 C2394 0.930 . S
H2381 C2396 0.960 . S
H2382 C2396 0.960 . S
H2383 C2396 0.960 . S
C2384 H2376 0.929 . S
C2384 C2385 1.377 . S
C2384 C2386 1.384 . S
C2385 C2384 1.377 . S
C2385 C2391 1.390 . S
C2386 H2377 0.930 . S
C2386 C2384 1.384 . S
C2386 C2387 1.372 . S
C2387 C2386 1.372 . S
C2387 C2388 1.400 . S
C2387 C2392 1.490 . S
C2388 H2378 0.930 . S
C2388 C2387 1.400 . S
C2388 C2391 1.386 . S
H2389 C2405 0.930 . S
H2390 C2406 0.931 . S
C2391 H2379 0.929 . S
C2391 C2385 1.390 . S
C2391 C2388 1.386 . S
C2392 C2387 1.490 . S
C2392 C2394 1.395 . S
C2392 C2395 1.403 . S
H2393 C2399 0.930 . S
C2394 H2380 0.930 . S
C2394 C2392 1.395 . S
C2394 C2397 1.403 . S
C2395 C2392 1.403 . S
C2395 C2396 1.524 . S
C2395 C2399 1.400 . S
C2396 H2381 0.960 . S
C2396 H2382 0.960 . S
C2396 H2383 0.960 . S
C2396 C2395 1.524 . S
C2397 C2394 1.403 . S
C2397 C2398 1.392 . S
C2397 C2401 1.495 . S
C2398 C2397 1.392 . S
C2398 C2399 1.385 . S
C2398 C2400 1.478 . S
C2399 H2393 0.930 . S
C2399 C2395 1.400 . S
C2399 C2398 1.385 . S
C2400 C2398 1.478 . S
C2400 C2402 1.381 . S
C2400 C2406 1.383 . S
C2401 C2397 1.495 . S
C2401 H2407 0.959 . S
C2401 H2408 0.961 . S
C2401 H2409 0.960 . S
C2402 C2400 1.381 . S
C2402 C2403 1.394 . S
C2402 H2410 0.930 . S
C2403 C2402 1.394 . S
C2403 C2404 1.383 . S
C2403 H2411 0.929 . S
C2404 C2403 1.383 . S
C2404 C2405 1.377 . S
C2405 H2389 0.930 . S
C2405 C2404 1.377 . S
C2405 C2406 1.379 . S
C2406 H2390 0.931 . S
C2406 C2400 1.383 . S
C2406 C2405 1.379 . S
H2407 C2401 0.959 . S
H2408 C2401 0.961 . S
H2409 C2401 0.960 . S
H2410 C2402 0.930 . S
H2411 C2403 0.929 . S
H2412 C2420 0.929 . S
H2413 C2422 0.930 . S
H2414 C2424 0.930 . S
H2415 C2427 0.929 . S
H2416 C2430 0.930 . S
H2417 C2432 0.960 . S
H2418 C2432 0.960 . S
H2419 C2432 0.960 . S
C2420 H2412 0.929 . S
C2420 C2421 1.377 . S
C2420 C2422 1.384 . S
C2421 C2420 1.377 . S
C2421 C2427 1.390 . S
C2422 H2413 0.930 . S
C2422 C2420 1.384 . S
C2422 C2423 1.372 . S
C2423 C2422 1.372 . S
C2423 C2424 1.400 . S
C2423 C2428 1.490 . S
C2424 H2414 0.930 . S
C2424 C2423 1.400 . S
C2424 C2427 1.386 . S
H2425 C2441 0.930 . S
H2426 C2442 0.931 . S
C2427 H2415 0.929 . S
C2427 C2421 1.390 . S
C2427 C2424 1.386 . S
C2428 C2423 1.490 . S
C2428 C2430 1.395 . S
C2428 C2431 1.403 . S
H2429 C2435 0.930 . S
C2430 H2416 0.930 . S
C2430 C2428 1.395 . S
C2430 C2433 1.403 . S
C2431 C2428 1.403 . S
C2431 C2432 1.524 . S
C2431 C2435 1.400 . S
C2432 H2417 0.960 . S
C2432 H2418 0.960 . S
C2432 H2419 0.960 . S
C2432 C2431 1.524 . S
C2433 C2430 1.403 . S
C2433 C2434 1.392 . S
C2433 C2437 1.495 . S
C2434 C2433 1.392 . S
C2434 C2435 1.385 . S
C2434 C2436 1.478 . S
C2435 H2429 0.930 . S
C2435 C2431 1.400 . S
C2435 C2434 1.385 . S
C2436 C2434 1.478 . S
C2436 C2438 1.381 . S
C2436 C2442 1.383 . S
C2437 C2433 1.495 . S
C2437 H2443 0.959 . S
C2437 H2444 0.961 . S
C2437 H2445 0.960 . S
C2438 C2436 1.381 . S
C2438 C2439 1.394 . S
C2438 H2446 0.930 . S
C2439 C2438 1.394 . S
C2439 C2440 1.383 . S
C2439 H2447 0.929 . S
C2440 C2439 1.383 . S
C2440 C2441 1.377 . S
C2441 H2425 0.930 . S
C2441 C2440 1.377 . S
C2441 C2442 1.379 . S
C2442 H2426 0.931 . S
C2442 C2436 1.383 . S
C2442 C2441 1.379 . S
H2443 C2437 0.959 . S
H2444 C2437 0.961 . S
H2445 C2437 0.960 . S
H2446 C2438 0.930 . S
H2447 C2439 0.929 . S
H2448 C2456 0.929 . S
H2449 C2458 0.930 . S
H2450 C2460 0.930 . S
H2451 C2463 0.929 . S
H2452 C2466 0.930 . S
H2453 C2468 0.960 . S
H2454 C2468 0.960 . S
H2455 C2468 0.960 . S
C2456 H2448 0.929 . S
C2456 C2457 1.377 . S
C2456 C2458 1.384 . S
C2457 C2456 1.377 . S
C2457 C2463 1.390 . S
C2458 H2449 0.930 . S
C2458 C2456 1.384 . S
C2458 C2459 1.372 . S
C2459 C2458 1.372 . S
C2459 C2460 1.400 . S
C2459 C2464 1.490 . S
C2460 H2450 0.930 . S
C2460 C2459 1.400 . S
C2460 C2463 1.386 . S
H2461 C2477 0.930 . S
H2462 C2478 0.931 . S
C2463 H2451 0.929 . S
C2463 C2457 1.390 . S
C2463 C2460 1.386 . S
C2464 C2459 1.490 . S
C2464 C2466 1.395 . S
C2464 C2467 1.403 . S
H2465 C2471 0.930 . S
C2466 H2452 0.930 . S
C2466 C2464 1.395 . S
C2466 C2469 1.403 . S
C2467 C2464 1.403 . S
C2467 C2468 1.524 . S
C2467 C2471 1.400 . S
C2468 H2453 0.960 . S
C2468 H2454 0.960 . S
C2468 H2455 0.960 . S
C2468 C2467 1.524 . S
C2469 C2466 1.403 . S
C2469 C2470 1.392 . S
C2469 C2473 1.495 . S
C2470 C2469 1.392 . S
C2470 C2471 1.385 . S
C2470 C2472 1.478 . S
C2471 H2465 0.930 . S
C2471 C2467 1.400 . S
C2471 C2470 1.385 . S
C2472 C2470 1.478 . S
C2472 C2474 1.381 . S
C2472 C2478 1.383 . S
C2473 C2469 1.495 . S
C2473 H2479 0.959 . S
C2473 H2480 0.961 . S
C2473 H2481 0.960 . S
C2474 C2472 1.381 . S
C2474 C2475 1.394 . S
C2474 H2482 0.930 . S
C2475 C2474 1.394 . S
C2475 C2476 1.383 . S
C2475 H2483 0.929 . S
C2476 C2475 1.383 . S
C2476 C2477 1.377 . S
C2477 H2461 0.930 . S
C2477 C2476 1.377 . S
C2477 C2478 1.379 . S
C2478 H2462 0.931 . S
C2478 C2472 1.383 . S
C2478 C2477 1.379 . S
H2479 C2473 0.959 . S
H2480 C2473 0.961 . S
H2481 C2473 0.960 . S
H2482 C2474 0.930 . S
H2483 C2475 0.929 . S
H2484 C2492 0.929 . S
H2485 C2494 0.930 . S
H2486 C2496 0.930 . S
H2487 C2499 0.929 . S
H2488 C2502 0.930 . S
H2489 C2504 0.960 . S
H2490 C2504 0.960 . S
H2491 C2504 0.960 . S
C2492 H2484 0.929 . S
C2492 C2493 1.377 . S
C2492 C2494 1.384 . S
C2493 C2492 1.377 . S
C2493 C2499 1.390 . S
C2494 H2485 0.930 . S
C2494 C2492 1.384 . S
C2494 C2495 1.372 . S
C2495 C2494 1.372 . S
C2495 C2496 1.400 . S
C2495 C2500 1.490 . S
C2496 H2486 0.930 . S
C2496 C2495 1.400 . S
C2496 C2499 1.386 . S
H2497 C2513 0.930 . S
H2498 C2514 0.931 . S
C2499 H2487 0.929 . S
C2499 C2493 1.390 . S
C2499 C2496 1.386 . S
C2500 C2495 1.490 . S
C2500 C2502 1.395 . S
C2500 C2503 1.403 . S
H2501 C2507 0.930 . S
C2502 H2488 0.930 . S
C2502 C2500 1.395 . S
C2502 C2505 1.403 . S
C2503 C2500 1.403 . S
C2503 C2504 1.524 . S
C2503 C2507 1.400 . S
C2504 H2489 0.960 . S
C2504 H2490 0.960 . S
C2504 H2491 0.960 . S
C2504 C2503 1.524 . S
C2505 C2502 1.403 . S
C2505 C2506 1.392 . S
C2505 C2509 1.495 . S
C2506 C2505 1.392 . S
C2506 C2507 1.385 . S
C2506 C2508 1.478 . S
C2507 H2501 0.930 . S
C2507 C2503 1.400 . S
C2507 C2506 1.385 . S
C2508 C2506 1.478 . S
C2508 C2510 1.381 . S
C2508 C2514 1.383 . S
C2509 C2505 1.495 . S
C2509 H2515 0.959 . S
C2509 H2516 0.961 . S
C2509 H2517 0.960 . S
C2510 C2508 1.381 . S
C2510 C2511 1.394 . S
C2510 H2518 0.930 . S
C2511 C2510 1.394 . S
C2511 C2512 1.383 . S
C2511 H2519 0.929 . S
C2512 C2511 1.383 . S
C2512 C2513 1.377 . S
C2513 H2497 0.930 . S
C2513 C2512 1.377 . S
C2513 C2514 1.379 . S
C2514 H2498 0.931 . S
C2514 C2508 1.383 . S
C2514 C2513 1.379 . S
H2515 C2509 0.959 . S
H2516 C2509 0.961 . S
H2517 C2509 0.960 . S
H2518 C2510 0.930 . S
H2519 C2511 0.929 . S
H2520 C2528 0.929 . S
H2521 C2530 0.930 . S
H2522 C2532 0.930 . S
H2523 C2535 0.929 . S
H2524 C2538 0.930 . S
H2525 C2540 0.960 . S
H2526 C2540 0.960 . S
H2527 C2540 0.960 . S
C2528 H2520 0.929 . S
C2528 C2529 1.377 . S
C2528 C2530 1.384 . S
C2529 C2528 1.377 . S
C2529 C2535 1.390 . S
C2530 H2521 0.930 . S
C2530 C2528 1.384 . S
C2530 C2531 1.372 . S
C2531 C2530 1.372 . S
C2531 C2532 1.400 . S
C2531 C2536 1.490 . S
C2532 H2522 0.930 . S
C2532 C2531 1.400 . S
C2532 C2535 1.386 . S
H2533 C2549 0.930 . S
H2534 C2550 0.931 . S
C2535 H2523 0.929 . S
C2535 C2529 1.390 . S
C2535 C2532 1.386 . S
C2536 C2531 1.490 . S
C2536 C2538 1.395 . S
C2536 C2539 1.403 . S
H2537 C2543 0.930 . S
C2538 H2524 0.930 . S
C2538 C2536 1.395 . S
C2538 C2541 1.403 . S
C2539 C2536 1.403 . S
C2539 C2540 1.524 . S
C2539 C2543 1.400 . S
C2540 H2525 0.960 . S
C2540 H2526 0.960 . S
C2540 H2527 0.960 . S
C2540 C2539 1.524 . S
C2541 C2538 1.403 . S
C2541 C2542 1.392 . S
C2541 C2545 1.495 . S
C2542 C2541 1.392 . S
C2542 C2543 1.385 . S
C2542 C2544 1.478 . S
C2543 H2537 0.930 . S
C2543 C2539 1.400 . S
C2543 C2542 1.385 . S
C2544 C2542 1.478 . S
C2544 C2546 1.381 . S
C2544 C2550 1.383 . S
C2545 C2541 1.495 . S
C2545 H2551 0.959 . S
C2545 H2552 0.961 . S
C2545 H2553 0.960 . S
C2546 C2544 1.381 . S
C2546 C2547 1.394 . S
C2546 H2554 0.930 . S
C2547 C2546 1.394 . S
C2547 C2548 1.383 . S
C2547 H2555 0.929 . S
C2548 C2547 1.383 . S
C2548 C2549 1.377 . S
C2549 H2533 0.930 . S
C2549 C2548 1.377 . S
C2549 C2550 1.379 . S
C2550 H2534 0.931 . S
C2550 C2544 1.383 . S
C2550 C2549 1.379 . S
H2551 C2545 0.959 . S
H2552 C2545 0.961 . S
H2553 C2545 0.960 . S
H2554 C2546 0.930 . S
H2555 C2547 0.929 . S
H2556 C2564 0.929 . S
H2557 C2566 0.930 . S
H2558 C2568 0.930 . S
H2559 C2571 0.929 . S
H2560 C2574 0.930 . S
H2561 C2576 0.960 . S
H2562 C2576 0.960 . S
H2563 C2576 0.960 . S
C2564 H2556 0.929 . S
C2564 C2565 1.377 . S
C2564 C2566 1.384 . S
C2565 C2564 1.377 . S
C2565 C2571 1.390 . S
C2566 H2557 0.930 . S
C2566 C2564 1.384 . S
C2566 C2567 1.372 . S
C2567 C2566 1.372 . S
C2567 C2568 1.400 . S
C2567 C2572 1.490 . S
C2568 H2558 0.930 . S
C2568 C2567 1.400 . S
C2568 C2571 1.386 . S
H2569 C2585 0.930 . S
H2570 C2586 0.931 . S
C2571 H2559 0.929 . S
C2571 C2565 1.390 . S
C2571 C2568 1.386 . S
C2572 C2567 1.490 . S
C2572 C2574 1.395 . S
C2572 C2575 1.403 . S
H2573 C2579 0.930 . S
C2574 H2560 0.930 . S
C2574 C2572 1.395 . S
C2574 C2577 1.403 . S
C2575 C2572 1.403 . S
C2575 C2576 1.524 . S
C2575 C2579 1.400 . S
C2576 H2561 0.960 . S
C2576 H2562 0.960 . S
C2576 H2563 0.960 . S
C2576 C2575 1.524 . S
C2577 C2574 1.403 . S
C2577 C2578 1.392 . S
C2577 C2581 1.495 . S
C2578 C2577 1.392 . S
C2578 C2579 1.385 . S
C2578 C2580 1.478 . S
C2579 H2573 0.930 . S
C2579 C2575 1.400 . S
C2579 C2578 1.385 . S
C2580 C2578 1.478 . S
C2580 C2582 1.381 . S
C2580 C2586 1.383 . S
C2581 C2577 1.495 . S
C2581 H2587 0.959 . S
C2581 H2588 0.961 . S
C2581 H2589 0.960 . S
C2582 C2580 1.381 . S
C2582 C2583 1.394 . S
C2582 H2590 0.930 . S
C2583 C2582 1.394 . S
C2583 C2584 1.383 . S
C2583 H2591 0.929 . S
C2584 C2583 1.383 . S
C2584 C2585 1.377 . S
C2585 H2569 0.930 . S
C2585 C2584 1.377 . S
C2585 C2586 1.379 . S
C2586 H2570 0.931 . S
C2586 C2580 1.383 . S
C2586 C2585 1.379 . S
H2587 C2581 0.959 . S
H2588 C2581 0.961 . S
H2589 C2581 0.960 . S
H2590 C2582 0.930 . S
H2591 C2583 0.929 . S
H2592 C2600 0.929 . S
H2593 C2602 0.930 . S
H2594 C2604 0.930 . S
H2595 C2607 0.929 . S
H2596 C2610 0.930 . S
H2597 C2612 0.960 . S
H2598 C2612 0.960 . S
H2599 C2612 0.960 . S
C2600 H2592 0.929 . S
C2600 C2601 1.377 . S
C2600 C2602 1.384 . S
C2601 C2600 1.377 . S
C2601 C2607 1.390 . S
C2602 H2593 0.930 . S
C2602 C2600 1.384 . S
C2602 C2603 1.372 . S
C2603 C2602 1.372 . S
C2603 C2604 1.400 . S
C2603 C2608 1.490 . S
C2604 H2594 0.930 . S
C2604 C2603 1.400 . S
C2604 C2607 1.386 . S
H2605 C2621 0.930 . S
H2606 C2622 0.931 . S
C2607 H2595 0.929 . S
C2607 C2601 1.390 . S
C2607 C2604 1.386 . S
C2608 C2603 1.490 . S
C2608 C2610 1.395 . S
C2608 C2611 1.403 . S
H2609 C2615 0.930 . S
C2610 H2596 0.930 . S
C2610 C2608 1.395 . S
C2610 C2613 1.403 . S
C2611 C2608 1.403 . S
C2611 C2612 1.524 . S
C2611 C2615 1.400 . S
C2612 H2597 0.960 . S
C2612 H2598 0.960 . S
C2612 H2599 0.960 . S
C2612 C2611 1.524 . S
C2613 C2610 1.403 . S
C2613 C2614 1.392 . S
C2613 C2617 1.495 . S
C2614 C2613 1.392 . S
C2614 C2615 1.385 . S
C2614 C2616 1.478 . S
C2615 H2609 0.930 . S
C2615 C2611 1.400 . S
C2615 C2614 1.385 . S
C2616 C2614 1.478 . S
C2616 C2618 1.381 . S
C2616 C2622 1.383 . S
C2617 C2613 1.495 . S
C2617 H2623 0.959 . S
C2617 H2624 0.961 . S
C2617 H2625 0.960 . S
C2618 C2616 1.381 . S
C2618 C2619 1.394 . S
C2618 H2626 0.930 . S
C2619 C2618 1.394 . S
C2619 C2620 1.383 . S
C2619 H2627 0.929 . S
C2620 C2619 1.383 . S
C2620 C2621 1.377 . S
C2621 H2605 0.930 . S
C2621 C2620 1.377 . S
C2621 C2622 1.379 . S
C2622 H2606 0.931 . S
C2622 C2616 1.383 . S
C2622 C2621 1.379 . S
H2623 C2617 0.959 . S
H2624 C2617 0.961 . S
H2625 C2617 0.960 . S
H2626 C2618 0.930 . S
H2627 C2619 0.929 . S
H2628 C2636 0.929 . S
H2629 C2638 0.930 . S
H2630 C2640 0.930 . S
H2631 C2643 0.929 . S
H2632 C2646 0.930 . S
H2633 C2648 0.960 . S
H2634 C2648 0.960 . S
H2635 C2648 0.960 . S
C2636 H2628 0.929 . S
C2636 C2637 1.377 . S
C2636 C2638 1.384 . S
C2637 C2636 1.377 . S
C2637 C2643 1.390 . S
C2638 H2629 0.930 . S
C2638 C2636 1.384 . S
C2638 C2639 1.372 . S
C2639 C2638 1.372 . S
C2639 C2640 1.400 . S
C2639 C2644 1.490 . S
C2640 H2630 0.930 . S
C2640 C2639 1.400 . S
C2640 C2643 1.386 . S
H2641 C2657 0.930 . S
H2642 C2658 0.931 . S
C2643 H2631 0.929 . S
C2643 C2637 1.390 . S
C2643 C2640 1.386 . S
C2644 C2639 1.490 . S
C2644 C2646 1.395 . S
C2644 C2647 1.403 . S
H2645 C2651 0.930 . S
C2646 H2632 0.930 . S
C2646 C2644 1.395 . S
C2646 C2649 1.403 . S
C2647 C2644 1.403 . S
C2647 C2648 1.524 . S
C2647 C2651 1.400 . S
C2648 H2633 0.960 . S
C2648 H2634 0.960 . S
C2648 H2635 0.960 . S
C2648 C2647 1.524 . S
C2649 C2646 1.403 . S
C2649 C2650 1.392 . S
C2649 C2653 1.495 . S
C2650 C2649 1.392 . S
C2650 C2651 1.385 . S
C2650 C2652 1.478 . S
C2651 H2645 0.930 . S
C2651 C2647 1.400 . S
C2651 C2650 1.385 . S
C2652 C2650 1.478 . S
C2652 C2654 1.381 . S
C2652 C2658 1.383 . S
C2653 C2649 1.495 . S
C2653 H2659 0.959 . S
C2653 H2660 0.961 . S
C2653 H2661 0.960 . S
C2654 C2652 1.381 . S
C2654 C2655 1.394 . S
C2654 H2662 0.930 . S
C2655 C2654 1.394 . S
C2655 C2656 1.383 . S
C2655 H2663 0.929 . S
C2656 C2655 1.383 . S
C2656 C2657 1.377 . S
C2657 H2641 0.930 . S
C2657 C2656 1.377 . S
C2657 C2658 1.379 . S
C2658 H2642 0.931 . S
C2658 C2652 1.383 . S
C2658 C2657 1.379 . S
H2659 C2653 0.959 . S
H2660 C2653 0.961 . S
H2661 C2653 0.960 . S
H2662 C2654 0.930 . S
H2663 C2655 0.929 . S
H2664 C2672 0.929 . S
H2665 C2674 0.930 . S
H2666 C2676 0.930 . S
H2667 C2679 0.929 . S
H2668 C2682 0.930 . S
H2669 C2684 0.960 . S
H2670 C2684 0.960 . S
H2671 C2684 0.960 . S
C2672 H2664 0.929 . S
C2672 C2673 1.377 . S
C2672 C2674 1.384 . S
C2673 C2672 1.377 . S
C2673 C2679 1.390 . S
C2674 H2665 0.930 . S
C2674 C2672 1.384 . S
C2674 C2675 1.372 . S
C2675 C2674 1.372 . S
C2675 C2676 1.400 . S
C2675 C2680 1.490 . S
C2676 H2666 0.930 . S
C2676 C2675 1.400 . S
C2676 C2679 1.386 . S
H2677 C2693 0.930 . S
H2678 C2694 0.931 . S
C2679 H2667 0.929 . S
C2679 C2673 1.390 . S
C2679 C2676 1.386 . S
C2680 C2675 1.490 . S
C2680 C2682 1.395 . S
C2680 C2683 1.403 . S
H2681 C2687 0.930 . S
C2682 H2668 0.930 . S
C2682 C2680 1.395 . S
C2682 C2685 1.403 . S
C2683 C2680 1.403 . S
C2683 C2684 1.524 . S
C2683 C2687 1.400 . S
C2684 H2669 0.960 . S
C2684 H2670 0.960 . S
C2684 H2671 0.960 . S
C2684 C2683 1.524 . S
C2685 C2682 1.403 . S
C2685 C2686 1.392 . S
C2685 C2689 1.495 . S
C2686 C2685 1.392 . S
C2686 C2687 1.385 . S
C2686 C2688 1.478 . S
C2687 H2681 0.930 . S
C2687 C2683 1.400 . S
C2687 C2686 1.385 . S
C2688 C2686 1.478 . S
C2688 C2690 1.381 . S
C2688 C2694 1.383 . S
C2689 C2685 1.495 . S
C2689 H2695 0.959 . S
C2689 H2696 0.961 . S
C2689 H2697 0.960 . S
C2690 C2688 1.381 . S
C2690 C2691 1.394 . S
C2690 H2698 0.930 . S
C2691 C2690 1.394 . S
C2691 C2692 1.383 . S
C2691 H2699 0.929 . S
C2692 C2691 1.383 . S
C2692 C2693 1.377 . S
C2693 H2677 0.930 . S
C2693 C2692 1.377 . S
C2693 C2694 1.379 . S
C2694 H2678 0.931 . S
C2694 C2688 1.383 . S
C2694 C2693 1.379 . S
H2695 C2689 0.959 . S
H2696 C2689 0.961 . S
H2697 C2689 0.960 . S
H2698 C2690 0.930 . S
H2699 C2691 0.929 . S
H2700 C2708 0.929 . S
H2701 C2710 0.930 . S
H2702 C2712 0.930 . S
H2703 C2715 0.929 . S
H2704 C2718 0.930 . S
H2705 C2720 0.960 . S
H2706 C2720 0.960 . S
H2707 C2720 0.960 . S
C2708 H2700 0.929 . S
C2708 C2709 1.377 . S
C2708 C2710 1.384 . S
C2709 C2708 1.377 . S
C2709 C2715 1.390 . S
C2710 H2701 0.930 . S
C2710 C2708 1.384 . S
C2710 C2711 1.372 . S
C2711 C2710 1.372 . S
C2711 C2712 1.400 . S
C2711 C2716 1.490 . S
C2712 H2702 0.930 . S
C2712 C2711 1.400 . S
C2712 C2715 1.386 . S
H2713 C2729 0.930 . S
H2714 C2730 0.931 . S
C2715 H2703 0.929 . S
C2715 C2709 1.390 . S
C2715 C2712 1.386 . S
C2716 C2711 1.490 . S
C2716 C2718 1.395 . S
C2716 C2719 1.403 . S
H2717 C2723 0.930 . S
C2718 H2704 0.930 . S
C2718 C2716 1.395 . S
C2718 C2721 1.403 . S
C2719 C2716 1.403 . S
C2719 C2720 1.524 . S
C2719 C2723 1.400 . S
C2720 H2705 0.960 . S
C2720 H2706 0.960 . S
C2720 H2707 0.960 . S
C2720 C2719 1.524 . S
C2721 C2718 1.403 . S
C2721 C2722 1.392 . S
C2721 C2725 1.495 . S
C2722 C2721 1.392 . S
C2722 C2723 1.385 . S
C2722 C2724 1.478 . S
C2723 H2717 0.930 . S
C2723 C2719 1.400 . S
C2723 C2722 1.385 . S
C2724 C2722 1.478 . S
C2724 C2726 1.381 . S
C2724 C2730 1.383 . S
C2725 C2721 1.495 . S
C2725 H2731 0.959 . S
C2725 H2732 0.961 . S
C2725 H2733 0.960 . S
C2726 C2724 1.381 . S
C2726 C2727 1.394 . S
C2726 H2734 0.930 . S
C2727 C2726 1.394 . S
C2727 C2728 1.383 . S
C2727 H2735 0.929 . S
C2728 C2727 1.383 . S
C2728 C2729 1.377 . S
C2729 H2713 0.930 . S
C2729 C2728 1.377 . S
C2729 C2730 1.379 . S
C2730 H2714 0.931 . S
C2730 C2724 1.383 . S
C2730 C2729 1.379 . S
H2731 C2725 0.959 . S
H2732 C2725 0.961 . S
H2733 C2725 0.960 . S
H2734 C2726 0.930 . S
H2735 C2727 0.929 . S
H2736 C2744 0.929 . S
H2737 C2746 0.930 . S
H2738 C2748 0.930 . S
H2739 C2751 0.929 . S
H2740 C2754 0.930 . S
H2741 C2756 0.960 . S
H2742 C2756 0.960 . S
H2743 C2756 0.960 . S
C2744 H2736 0.929 . S
C2744 C2745 1.377 . S
C2744 C2746 1.384 . S
C2745 C2744 1.377 . S
C2745 C2751 1.390 . S
C2746 H2737 0.930 . S
C2746 C2744 1.384 . S
C2746 C2747 1.372 . S
C2747 C2746 1.372 . S
C2747 C2748 1.400 . S
C2747 C2752 1.490 . S
C2748 H2738 0.930 . S
C2748 C2747 1.400 . S
C2748 C2751 1.386 . S
H2749 C2765 0.930 . S
H2750 C2766 0.931 . S
C2751 H2739 0.929 . S
C2751 C2745 1.390 . S
C2751 C2748 1.386 . S
C2752 C2747 1.490 . S
C2752 C2754 1.395 . S
C2752 C2755 1.403 . S
H2753 C2759 0.930 . S
C2754 H2740 0.930 . S
C2754 C2752 1.395 . S
C2754 C2757 1.403 . S
C2755 C2752 1.403 . S
C2755 C2756 1.524 . S
C2755 C2759 1.400 . S
C2756 H2741 0.960 . S
C2756 H2742 0.960 . S
C2756 H2743 0.960 . S
C2756 C2755 1.524 . S
C2757 C2754 1.403 . S
C2757 C2758 1.392 . S
C2757 C2761 1.495 . S
C2758 C2757 1.392 . S
C2758 C2759 1.385 . S
C2758 C2760 1.478 . S
C2759 H2753 0.930 . S
C2759 C2755 1.400 . S
C2759 C2758 1.385 . S
C2760 C2758 1.478 . S
C2760 C2762 1.381 . S
C2760 C2766 1.383 . S
C2761 C2757 1.495 . S
C2761 H2767 0.959 . S
C2761 H2768 0.961 . S
C2761 H2769 0.960 . S
C2762 C2760 1.381 . S
C2762 C2763 1.394 . S
C2762 H2770 0.930 . S
C2763 C2762 1.394 . S
C2763 C2764 1.383 . S
C2763 H2771 0.929 . S
C2764 C2763 1.383 . S
C2764 C2765 1.377 . S
C2765 H2749 0.930 . S
C2765 C2764 1.377 . S
C2765 C2766 1.379 . S
C2766 H2750 0.931 . S
C2766 C2760 1.383 . S
C2766 C2765 1.379 . S
H2767 C2761 0.959 . S
H2768 C2761 0.961 . S
H2769 C2761 0.960 . S
H2770 C2762 0.930 . S
H2771 C2763 0.929 . S
H2772 C2780 0.929 . S
H2773 C2782 0.930 . S
H2774 C2784 0.930 . S
H2775 C2787 0.929 . S
H2776 C2790 0.930 . S
H2777 C2792 0.960 . S
H2778 C2792 0.960 . S
H2779 C2792 0.960 . S
C2780 H2772 0.929 . S
C2780 C2781 1.377 . S
C2780 C2782 1.384 . S
C2781 C2780 1.377 . S
C2781 C2787 1.390 . S
C2782 H2773 0.930 . S
C2782 C2780 1.384 . S
C2782 C2783 1.372 . S
C2783 C2782 1.372 . S
C2783 C2784 1.400 . S
C2783 C2788 1.490 . S
C2784 H2774 0.930 . S
C2784 C2783 1.400 . S
C2784 C2787 1.386 . S
H2785 C2801 0.930 . S
H2786 C2802 0.931 . S
C2787 H2775 0.929 . S
C2787 C2781 1.390 . S
C2787 C2784 1.386 . S
C2788 C2783 1.490 . S
C2788 C2790 1.395 . S
C2788 C2791 1.403 . S
H2789 C2795 0.930 . S
C2790 H2776 0.930 . S
C2790 C2788 1.395 . S
C2790 C2793 1.403 . S
C2791 C2788 1.403 . S
C2791 C2792 1.524 . S
C2791 C2795 1.400 . S
C2792 H2777 0.960 . S
C2792 H2778 0.960 . S
C2792 H2779 0.960 . S
C2792 C2791 1.524 . S
C2793 C2790 1.403 . S
C2793 C2794 1.392 . S
C2793 C2797 1.495 . S
C2794 C2793 1.392 . S
C2794 C2795 1.385 . S
C2794 C2796 1.478 . S
C2795 H2789 0.930 . S
C2795 C2791 1.400 . S
C2795 C2794 1.385 . S
C2796 C2794 1.478 . S
C2796 C2798 1.381 . S
C2796 C2802 1.383 . S
C2797 C2793 1.495 . S
C2797 H2803 0.959 . S
C2797 H2804 0.961 . S
C2797 H2805 0.960 . S
C2798 C2796 1.381 . S
C2798 C2799 1.394 . S
C2798 H2806 0.930 . S
C2799 C2798 1.394 . S
C2799 C2800 1.383 . S
C2799 H2807 0.929 . S
C2800 C2799 1.383 . S
C2800 C2801 1.377 . S
C2801 H2785 0.930 . S
C2801 C2800 1.377 . S
C2801 C2802 1.379 . S
C2802 H2786 0.931 . S
C2802 C2796 1.383 . S
C2802 C2801 1.379 . S
H2803 C2797 0.959 . S
H2804 C2797 0.961 . S
H2805 C2797 0.960 . S
H2806 C2798 0.930 . S
H2807 C2799 0.929 . S
H2808 C2816 0.929 . S
H2809 C2818 0.930 . S
H2810 C2820 0.930 . S
H2811 C2823 0.929 . S
H2812 C2826 0.930 . S
H2813 C2828 0.960 . S
H2814 C2828 0.960 . S
H2815 C2828 0.960 . S
C2816 H2808 0.929 . S
C2816 C2817 1.377 . S
C2816 C2818 1.384 . S
C2817 C2816 1.377 . S
C2817 C2823 1.390 . S
C2818 H2809 0.930 . S
C2818 C2816 1.384 . S
C2818 C2819 1.372 . S
C2819 C2818 1.372 . S
C2819 C2820 1.400 . S
C2819 C2824 1.490 . S
C2820 H2810 0.930 . S
C2820 C2819 1.400 . S
C2820 C2823 1.386 . S
H2821 C2837 0.930 . S
H2822 C2838 0.931 . S
C2823 H2811 0.929 . S
C2823 C2817 1.390 . S
C2823 C2820 1.386 . S
C2824 C2819 1.490 . S
C2824 C2826 1.395 . S
C2824 C2827 1.403 . S
H2825 C2831 0.930 . S
C2826 H2812 0.930 . S
C2826 C2824 1.395 . S
C2826 C2829 1.403 . S
C2827 C2824 1.403 . S
C2827 C2828 1.524 . S
C2827 C2831 1.400 . S
C2828 H2813 0.960 . S
C2828 H2814 0.960 . S
C2828 H2815 0.960 . S
C2828 C2827 1.524 . S
C2829 C2826 1.403 . S
C2829 C2830 1.392 . S
C2829 C2833 1.495 . S
C2830 C2829 1.392 . S
C2830 C2831 1.385 . S
C2830 C2832 1.478 . S
C2831 H2825 0.930 . S
C2831 C2827 1.400 . S
C2831 C2830 1.385 . S
C2832 C2830 1.478 . S
C2832 C2834 1.381 . S
C2832 C2838 1.383 . S
C2833 C2829 1.495 . S
C2833 H2839 0.959 . S
C2833 H2840 0.961 . S
C2833 H2841 0.960 . S
C2834 C2832 1.381 . S
C2834 C2835 1.394 . S
C2834 H2842 0.930 . S
C2835 C2834 1.394 . S
C2835 C2836 1.383 . S
C2835 H2843 0.929 . S
C2836 C2835 1.383 . S
C2836 C2837 1.377 . S
C2837 H2821 0.930 . S
C2837 C2836 1.377 . S
C2837 C2838 1.379 . S
C2838 H2822 0.931 . S
C2838 C2832 1.383 . S
C2838 C2837 1.379 . S
H2839 C2833 0.959 . S
H2840 C2833 0.961 . S
H2841 C2833 0.960 . S
H2842 C2834 0.930 . S
H2843 C2835 0.929 . S
H2844 C2852 0.929 . S
H2845 C2854 0.930 . S
H2846 C2856 0.930 . S
H2847 C2859 0.929 . S
H2848 C2862 0.930 . S
H2849 C2864 0.960 . S
H2850 C2864 0.960 . S
H2851 C2864 0.960 . S
C2852 H2844 0.929 . S
C2852 C2853 1.377 . S
C2852 C2854 1.384 . S
C2853 C2852 1.377 . S
C2853 C2859 1.390 . S
C2854 H2845 0.930 . S
C2854 C2852 1.384 . S
C2854 C2855 1.372 . S
C2855 C2854 1.372 . S
C2855 C2856 1.400 . S
C2855 C2860 1.490 . S
C2856 H2846 0.930 . S
C2856 C2855 1.400 . S
C2856 C2859 1.386 . S
H2857 C2873 0.930 . S
H2858 C2874 0.931 . S
C2859 H2847 0.929 . S
C2859 C2853 1.390 . S
C2859 C2856 1.386 . S
C2860 C2855 1.490 . S
C2860 C2862 1.395 . S
C2860 C2863 1.403 . S
H2861 C2867 0.930 . S
C2862 H2848 0.930 . S
C2862 C2860 1.395 . S
C2862 C2865 1.403 . S
C2863 C2860 1.403 . S
C2863 C2864 1.524 . S
C2863 C2867 1.400 . S
C2864 H2849 0.960 . S
C2864 H2850 0.960 . S
C2864 H2851 0.960 . S
C2864 C2863 1.524 . S
C2865 C2862 1.403 . S
C2865 C2866 1.392 . S
C2865 C2869 1.495 . S
C2866 C2865 1.392 . S
C2866 C2867 1.385 . S
C2866 C2868 1.478 . S
C2867 H2861 0.930 . S
C2867 C2863 1.400 . S
C2867 C2866 1.385 . S
C2868 C2866 1.478 . S
C2868 C2870 1.381 . S
C2868 C2874 1.383 . S
C2869 C2865 1.495 . S
C2869 H2875 0.959 . S
C2869 H2876 0.961 . S
C2869 H2877 0.960 . S
C2870 C2868 1.381 . S
C2870 C2871 1.394 . S
C2870 H2878 0.930 . S
C2871 C2870 1.394 . S
C2871 C2872 1.383 . S
C2871 H2879 0.929 . S
C2872 C2871 1.383 . S
C2872 C2873 1.377 . S
C2873 H2857 0.930 . S
C2873 C2872 1.377 . S
C2873 C2874 1.379 . S
C2874 H2858 0.931 . S
C2874 C2868 1.383 . S
C2874 C2873 1.379 . S
H2875 C2869 0.959 . S
H2876 C2869 0.961 . S
H2877 C2869 0.960 . S
H2878 C2870 0.930 . S
H2879 C2871 0.929 . S
H2880 C2888 0.929 . S
H2881 C2890 0.930 . S
H2882 C2892 0.930 . S
H2883 C2895 0.929 . S
H2884 C2898 0.930 . S
H2885 C2900 0.960 . S
H2886 C2900 0.960 . S
H2887 C2900 0.960 . S
C2888 H2880 0.929 . S
C2888 C2889 1.377 . S
C2888 C2890 1.384 . S
C2889 C2888 1.377 . S
C2889 C2895 1.390 . S
C2890 H2881 0.930 . S
C2890 C2888 1.384 . S
C2890 C2891 1.372 . S
C2891 C2890 1.372 . S
C2891 C2892 1.400 . S
C2891 C2896 1.490 . S
C2892 H2882 0.930 . S
C2892 C2891 1.400 . S
C2892 C2895 1.386 . S
H2893 C2909 0.930 . S
H2894 C2910 0.931 . S
C2895 H2883 0.929 . S
C2895 C2889 1.390 . S
C2895 C2892 1.386 . S
C2896 C2891 1.490 . S
C2896 C2898 1.395 . S
C2896 C2899 1.403 . S
H2897 C2903 0.930 . S
C2898 H2884 0.930 . S
C2898 C2896 1.395 . S
C2898 C2901 1.403 . S
C2899 C2896 1.403 . S
C2899 C2900 1.524 . S
C2899 C2903 1.400 . S
C2900 H2885 0.960 . S
C2900 H2886 0.960 . S
C2900 H2887 0.960 . S
C2900 C2899 1.524 . S
C2901 C2898 1.403 . S
C2901 C2902 1.392 . S
C2901 C2905 1.495 . S
C2902 C2901 1.392 . S
C2902 C2903 1.385 . S
C2902 C2904 1.478 . S
C2903 H2897 0.930 . S
C2903 C2899 1.400 . S
C2903 C2902 1.385 . S
C2904 C2902 1.478 . S
C2904 C2906 1.381 . S
C2904 C2910 1.383 . S
C2905 C2901 1.495 . S
C2905 H2911 0.959 . S
C2905 H2912 0.961 . S
C2905 H2913 0.960 . S
C2906 C2904 1.381 . S
C2906 C2907 1.394 . S
C2906 H2914 0.930 . S
C2907 C2906 1.394 . S
C2907 C2908 1.383 . S
C2907 H2915 0.929 . S
C2908 C2907 1.383 . S
C2908 C2909 1.377 . S
C2909 H2893 0.930 . S
C2909 C2908 1.377 . S
C2909 C2910 1.379 . S
C2910 H2894 0.931 . S
C2910 C2904 1.383 . S
C2910 C2909 1.379 . S
H2911 C2905 0.959 . S
H2912 C2905 0.961 . S
H2913 C2905 0.960 . S
H2914 C2906 0.930 . S
H2915 C2907 0.929 . S
H2916 C2924 0.929 . S
H2917 C2926 0.930 . S
H2918 C2928 0.930 . S
H2919 C2931 0.929 . S
H2920 C2934 0.930 . S
H2921 C2936 0.960 . S
H2922 C2936 0.960 . S
H2923 C2936 0.960 . S
C2924 H2916 0.929 . S
C2924 C2925 1.377 . S
C2924 C2926 1.384 . S
C2925 C2924 1.377 . S
C2925 C2931 1.390 . S
C2926 H2917 0.930 . S
C2926 C2924 1.384 . S
C2926 C2927 1.372 . S
C2927 C2926 1.372 . S
C2927 C2928 1.400 . S
C2927 C2932 1.490 . S
C2928 H2918 0.930 . S
C2928 C2927 1.400 . S
C2928 C2931 1.386 . S
H2929 C2945 0.930 . S
H2930 C2946 0.931 . S
C2931 H2919 0.929 . S
C2931 C2925 1.390 . S
C2931 C2928 1.386 . S
C2932 C2927 1.490 . S
C2932 C2934 1.395 . S
C2932 C2935 1.403 . S
H2933 C2939 0.930 . S
C2934 H2920 0.930 . S
C2934 C2932 1.395 . S
C2934 C2937 1.403 . S
C2935 C2932 1.403 . S
C2935 C2936 1.524 . S
C2935 C2939 1.400 . S
C2936 H2921 0.960 . S
C2936 H2922 0.960 . S
C2936 H2923 0.960 . S
C2936 C2935 1.524 . S
C2937 C2934 1.403 . S
C2937 C2938 1.392 . S
C2937 C2941 1.495 . S
C2938 C2937 1.392 . S
C2938 C2939 1.385 . S
C2938 C2940 1.478 . S
C2939 H2933 0.930 . S
C2939 C2935 1.400 . S
C2939 C2938 1.385 . S
C2940 C2938 1.478 . S
C2940 C2942 1.381 . S
C2940 C2946 1.383 . S
C2941 C2937 1.495 . S
C2941 H2947 0.959 . S
C2941 H2948 0.961 . S
C2941 H2949 0.960 . S
C2942 C2940 1.381 . S
C2942 C2943 1.394 . S
C2942 H2950 0.930 . S
C2943 C2942 1.394 . S
C2943 C2944 1.383 . S
C2943 H2951 0.929 . S
C2944 C2943 1.383 . S
C2944 C2945 1.377 . S
C2945 H2929 0.930 . S
C2945 C2944 1.377 . S
C2945 C2946 1.379 . S
C2946 H2930 0.931 . S
C2946 C2940 1.383 . S
C2946 C2945 1.379 . S
H2947 C2941 0.959 . S
H2948 C2941 0.961 . S
H2949 C2941 0.960 . S
H2950 C2942 0.930 . S
H2951 C2943 0.929 . S
H2952 C2960 0.929 . S
H2953 C2962 0.930 . S
H2954 C2964 0.930 . S
H2955 C2967 0.929 . S
H2956 C2970 0.930 . S
H2957 C2972 0.960 . S
H2958 C2972 0.960 . S
H2959 C2972 0.960 . S
C2960 H2952 0.929 . S
C2960 C2961 1.377 . S
C2960 C2962 1.384 . S
C2961 C2960 1.377 . S
C2961 C2967 1.390 . S
C2962 H2953 0.930 . S
C2962 C2960 1.384 . S
C2962 C2963 1.372 . S
C2963 C2962 1.372 . S
C2963 C2964 1.400 . S
C2963 C2968 1.490 . S
C2964 H2954 0.930 . S
C2964 C2963 1.400 . S
C2964 C2967 1.386 . S
H2965 C2981 0.930 . S
H2966 C2982 0.931 . S
C2967 H2955 0.929 . S
C2967 C2961 1.390 . S
C2967 C2964 1.386 . S
C2968 C2963 1.490 . S
C2968 C2970 1.395 . S
C2968 C2971 1.403 . S
H2969 C2975 0.930 . S
C2970 H2956 0.930 . S
C2970 C2968 1.395 . S
C2970 C2973 1.403 . S
C2971 C2968 1.403 . S
C2971 C2972 1.524 . S
C2971 C2975 1.400 . S
C2972 H2957 0.960 . S
C2972 H2958 0.960 . S
C2972 H2959 0.960 . S
C2972 C2971 1.524 . S
C2973 C2970 1.403 . S
C2973 C2974 1.392 . S
C2973 C2977 1.495 . S
C2974 C2973 1.392 . S
C2974 C2975 1.385 . S
C2974 C2976 1.478 . S
C2975 H2969 0.930 . S
C2975 C2971 1.400 . S
C2975 C2974 1.385 . S
C2976 C2974 1.478 . S
C2976 C2978 1.381 . S
C2976 C2982 1.383 . S
C2977 C2973 1.495 . S
C2977 H2983 0.959 . S
C2977 H2984 0.961 . S
C2977 H2985 0.960 . S
C2978 C2976 1.381 . S
C2978 C2979 1.394 . S
C2978 H2986 0.930 . S
C2979 C2978 1.394 . S
C2979 C2980 1.383 . S
C2979 H2987 0.929 . S
C2980 C2979 1.383 . S
C2980 C2981 1.377 . S
C2981 H2965 0.930 . S
C2981 C2980 1.377 . S
C2981 C2982 1.379 . S
C2982 H2966 0.931 . S
C2982 C2976 1.383 . S
C2982 C2981 1.379 . S
H2983 C2977 0.959 . S
H2984 C2977 0.961 . S
H2985 C2977 0.960 . S
H2986 C2978 0.930 . S
H2987 C2979 0.929 . S
H2988 C2996 0.929 . S
H2989 C2998 0.930 . S
H2990 C3000 0.930 . S
H2991 C3003 0.929 . S
H2992 C3006 0.930 . S
H2993 C3008 0.960 . S
H2994 C3008 0.960 . S
H2995 C3008 0.960 . S
C2996 H2988 0.929 . S
C2996 C2997 1.377 . S
C2996 C2998 1.384 . S
C2997 C2996 1.377 . S
C2997 C3003 1.390 . S
C2998 H2989 0.930 . S
C2998 C2996 1.384 . S
C2998 C2999 1.372 . S
C2999 C2998 1.372 . S
C2999 C3000 1.400 . S
C2999 C3004 1.490 . S
C3000 H2990 0.930 . S
C3000 C2999 1.400 . S
C3000 C3003 1.386 . S
H3001 C3017 0.930 . S
H3002 C3018 0.931 . S
C3003 H2991 0.929 . S
C3003 C2997 1.390 . S
C3003 C3000 1.386 . S
C3004 C2999 1.490 . S
C3004 C3006 1.395 . S
C3004 C3007 1.403 . S
H3005 C3011 0.930 . S
C3006 H2992 0.930 . S
C3006 C3004 1.395 . S
C3006 C3009 1.403 . S
C3007 C3004 1.403 . S
C3007 C3008 1.524 . S
C3007 C3011 1.400 . S
C3008 H2993 0.960 . S
C3008 H2994 0.960 . S
C3008 H2995 0.960 . S
C3008 C3007 1.524 . S
C3009 C3006 1.403 . S
C3009 C3010 1.392 . S
C3009 C3013 1.495 . S
C3010 C3009 1.392 . S
C3010 C3011 1.385 . S
C3010 C3012 1.478 . S
C3011 H3005 0.930 . S
C3011 C3007 1.400 . S
C3011 C3010 1.385 . S
C3012 C3010 1.478 . S
C3012 C3014 1.381 . S
C3012 C3018 1.383 . S
C3013 C3009 1.495 . S
C3013 H3019 0.959 . S
C3013 H3020 0.961 . S
C3013 H3021 0.960 . S
C3014 C3012 1.381 . S
C3014 C3015 1.394 . S
C3014 H3022 0.930 . S
C3015 C3014 1.394 . S
C3015 C3016 1.383 . S
C3015 H3023 0.929 . S
C3016 C3015 1.383 . S
C3016 C3017 1.377 . S
C3017 H3001 0.930 . S
C3017 C3016 1.377 . S
C3017 C3018 1.379 . S
C3018 H3002 0.931 . S
C3018 C3012 1.383 . S
C3018 C3017 1.379 . S
H3019 C3013 0.959 . S
H3020 C3013 0.961 . S
H3021 C3013 0.960 . S
H3022 C3014 0.930 . S
H3023 C3015 0.929 . S
H3024 C3032 0.929 . S
H3025 C3034 0.930 . S
H3026 C3036 0.930 . S
H3027 C3039 0.929 . S
H3028 C3042 0.930 . S
H3029 C3044 0.960 . S
H3030 C3044 0.960 . S
H3031 C3044 0.960 . S
C3032 H3024 0.929 . S
C3032 C3033 1.377 . S
C3032 C3034 1.384 . S
C3033 C3032 1.377 . S
C3033 C3039 1.390 . S
C3034 H3025 0.930 . S
C3034 C3032 1.384 . S
C3034 C3035 1.372 . S
C3035 C3034 1.372 . S
C3035 C3036 1.400 . S
C3035 C3040 1.490 . S
C3036 H3026 0.930 . S
C3036 C3035 1.400 . S
C3036 C3039 1.386 . S
H3037 C3053 0.930 . S
H3038 C3054 0.931 . S
C3039 H3027 0.929 . S
C3039 C3033 1.390 . S
C3039 C3036 1.386 . S
C3040 C3035 1.490 . S
C3040 C3042 1.395 . S
C3040 C3043 1.403 . S
H3041 C3047 0.930 . S
C3042 H3028 0.930 . S
C3042 C3040 1.395 . S
C3042 C3045 1.403 . S
C3043 C3040 1.403 . S
C3043 C3044 1.524 . S
C3043 C3047 1.400 . S
C3044 H3029 0.960 . S
C3044 H3030 0.960 . S
C3044 H3031 0.960 . S
C3044 C3043 1.524 . S
C3045 C3042 1.403 . S
C3045 C3046 1.392 . S
C3045 C3049 1.495 . S
C3046 C3045 1.392 . S
C3046 C3047 1.385 . S
C3046 C3048 1.478 . S
C3047 H3041 0.930 . S
C3047 C3043 1.400 . S
C3047 C3046 1.385 . S
C3048 C3046 1.478 . S
C3048 C3050 1.381 . S
C3048 C3054 1.383 . S
C3049 C3045 1.495 . S
C3049 H3055 0.959 . S
C3049 H3056 0.961 . S
C3049 H3057 0.960 . S
C3050 C3048 1.381 . S
C3050 C3051 1.394 . S
C3050 H3058 0.930 . S
C3051 C3050 1.394 . S
C3051 C3052 1.383 . S
C3051 H3059 0.929 . S
C3052 C3051 1.383 . S
C3052 C3053 1.377 . S
C3053 H3037 0.930 . S
C3053 C3052 1.377 . S
C3053 C3054 1.379 . S
C3054 H3038 0.931 . S
C3054 C3048 1.383 . S
C3054 C3053 1.379 . S
H3055 C3049 0.959 . S
H3056 C3049 0.961 . S
H3057 C3049 0.960 . S
H3058 C3050 0.930 . S
H3059 C3051 0.929 . S
H3060 C3068 0.929 . S
H3061 C3070 0.930 . S
H3062 C3072 0.930 . S
H3063 C3075 0.929 . S
H3064 C3078 0.930 . S
H3065 C3080 0.960 . S
H3066 C3080 0.960 . S
H3067 C3080 0.960 . S
C3068 H3060 0.929 . S
C3068 C3069 1.377 . S
C3068 C3070 1.384 . S
C3069 C3068 1.377 . S
C3069 C3075 1.390 . S
C3070 H3061 0.930 . S
C3070 C3068 1.384 . S
C3070 C3071 1.372 . S
C3071 C3070 1.372 . S
C3071 C3072 1.400 . S
C3071 C3076 1.490 . S
C3072 H3062 0.930 . S
C3072 C3071 1.400 . S
C3072 C3075 1.386 . S
H3073 C3089 0.930 . S
H3074 C3090 0.931 . S
C3075 H3063 0.929 . S
C3075 C3069 1.390 . S
C3075 C3072 1.386 . S
C3076 C3071 1.490 . S
C3076 C3078 1.395 . S
C3076 C3079 1.403 . S
H3077 C3083 0.930 . S
C3078 H3064 0.930 . S
C3078 C3076 1.395 . S
C3078 C3081 1.403 . S
C3079 C3076 1.403 . S
C3079 C3080 1.524 . S
C3079 C3083 1.400 . S
C3080 H3065 0.960 . S
C3080 H3066 0.960 . S
C3080 H3067 0.960 . S
C3080 C3079 1.524 . S
C3081 C3078 1.403 . S
C3081 C3082 1.392 . S
C3081 C3085 1.495 . S
C3082 C3081 1.392 . S
C3082 C3083 1.385 . S
C3082 C3084 1.478 . S
C3083 H3077 0.930 . S
C3083 C3079 1.400 . S
C3083 C3082 1.385 . S
C3084 C3082 1.478 . S
C3084 C3086 1.381 . S
C3084 C3090 1.383 . S
C3085 C3081 1.495 . S
C3085 H3091 0.959 . S
C3085 H3092 0.961 . S
C3085 H3093 0.960 . S
C3086 C3084 1.381 . S
C3086 C3087 1.394 . S
C3086 H3094 0.930 . S
C3087 C3086 1.394 . S
C3087 C3088 1.383 . S
C3087 H3095 0.929 . S
C3088 C3087 1.383 . S
C3088 C3089 1.377 . S
C3089 H3073 0.930 . S
C3089 C3088 1.377 . S
C3089 C3090 1.379 . S
C3090 H3074 0.931 . S
C3090 C3084 1.383 . S
C3090 C3089 1.379 . S
H3091 C3085 0.959 . S
H3092 C3085 0.961 . S
H3093 C3085 0.960 . S
H3094 C3086 0.930 . S
H3095 C3087 0.929 . S
H3096 C3104 0.929 . S
H3097 C3106 0.930 . S
H3098 C3108 0.930 . S
H3099 C3111 0.929 . S
H3100 C3114 0.930 . S
H3101 C3116 0.960 . S
H3102 C3116 0.960 . S
H3103 C3116 0.960 . S
C3104 H3096 0.929 . S
C3104 C3105 1.377 . S
C3104 C3106 1.384 . S
C3105 C3104 1.377 . S
C3105 C3111 1.390 . S
C3106 H3097 0.930 . S
C3106 C3104 1.384 . S
C3106 C3107 1.372 . S
C3107 C3106 1.372 . S
C3107 C3108 1.400 . S
C3107 C3112 1.490 . S
C3108 H3098 0.930 . S
C3108 C3107 1.400 . S
C3108 C3111 1.386 . S
H3109 C3125 0.930 . S
H3110 C3126 0.931 . S
C3111 H3099 0.929 . S
C3111 C3105 1.390 . S
C3111 C3108 1.386 . S
C3112 C3107 1.490 . S
C3112 C3114 1.395 . S
C3112 C3115 1.403 . S
H3113 C3119 0.930 . S
C3114 H3100 0.930 . S
C3114 C3112 1.395 . S
C3114 C3117 1.403 . S
C3115 C3112 1.403 . S
C3115 C3116 1.524 . S
C3115 C3119 1.400 . S
C3116 H3101 0.960 . S
C3116 H3102 0.960 . S
C3116 H3103 0.960 . S
C3116 C3115 1.524 . S
C3117 C3114 1.403 . S
C3117 C3118 1.392 . S
C3117 C3121 1.495 . S
C3118 C3117 1.392 . S
C3118 C3119 1.385 . S
C3118 C3120 1.478 . S
C3119 H3113 0.930 . S
C3119 C3115 1.400 . S
C3119 C3118 1.385 . S
C3120 C3118 1.478 . S
C3120 C3122 1.381 . S
C3120 C3126 1.383 . S
C3121 C3117 1.495 . S
C3121 H3127 0.959 . S
C3121 H3128 0.961 . S
C3121 H3129 0.960 . S
C3122 C3120 1.381 . S
C3122 C3123 1.394 . S
C3122 H3130 0.930 . S
C3123 C3122 1.394 . S
C3123 C3124 1.383 . S
C3123 H3131 0.929 . S
C3124 C3123 1.383 . S
C3124 C3125 1.377 . S
C3125 H3109 0.930 . S
C3125 C3124 1.377 . S
C3125 C3126 1.379 . S
C3126 H3110 0.931 . S
C3126 C3120 1.383 . S
C3126 C3125 1.379 . S
H3127 C3121 0.959 . S
H3128 C3121 0.961 . S
H3129 C3121 0.960 . S
H3130 C3122 0.930 . S
H3131 C3123 0.929 . S
H3132 C3140 0.929 . S
H3133 C3142 0.930 . S
H3134 C3144 0.930 . S
H3135 C3147 0.929 . S
H3136 C3150 0.930 . S
H3137 C3152 0.960 . S
H3138 C3152 0.960 . S
H3139 C3152 0.960 . S
C3140 H3132 0.929 . S
C3140 C3141 1.377 . S
C3140 C3142 1.384 . S
C3141 C3140 1.377 . S
C3141 C3147 1.390 . S
C3142 H3133 0.930 . S
C3142 C3140 1.384 . S
C3142 C3143 1.372 . S
C3143 C3142 1.372 . S
C3143 C3144 1.400 . S
C3143 C3148 1.490 . S
C3144 H3134 0.930 . S
C3144 C3143 1.400 . S
C3144 C3147 1.386 . S
H3145 C3161 0.930 . S
H3146 C3162 0.931 . S
C3147 H3135 0.929 . S
C3147 C3141 1.390 . S
C3147 C3144 1.386 . S
C3148 C3143 1.490 . S
C3148 C3150 1.395 . S
C3148 C3151 1.403 . S
H3149 C3155 0.930 . S
C3150 H3136 0.930 . S
C3150 C3148 1.395 . S
C3150 C3153 1.403 . S
C3151 C3148 1.403 . S
C3151 C3152 1.524 . S
C3151 C3155 1.400 . S
C3152 H3137 0.960 . S
C3152 H3138 0.960 . S
C3152 H3139 0.960 . S
C3152 C3151 1.524 . S
C3153 C3150 1.403 . S
C3153 C3154 1.392 . S
C3153 C3157 1.495 . S
C3154 C3153 1.392 . S
C3154 C3155 1.385 . S
C3154 C3156 1.478 . S
C3155 H3149 0.930 . S
C3155 C3151 1.400 . S
C3155 C3154 1.385 . S
C3156 C3154 1.478 . S
C3156 C3158 1.381 . S
C3156 C3162 1.383 . S
C3157 C3153 1.495 . S
C3157 H3163 0.959 . S
C3157 H3164 0.961 . S
C3157 H3165 0.960 . S
C3158 C3156 1.381 . S
C3158 C3159 1.394 . S
C3158 H3166 0.930 . S
C3159 C3158 1.394 . S
C3159 C3160 1.383 . S
C3159 H3167 0.929 . S
C3160 C3159 1.383 . S
C3160 C3161 1.377 . S
C3161 H3145 0.930 . S
C3161 C3160 1.377 . S
C3161 C3162 1.379 . S
C3162 H3146 0.931 . S
C3162 C3156 1.383 . S
C3162 C3161 1.379 . S
H3163 C3157 0.959 . S
H3164 C3157 0.961 . S
H3165 C3157 0.960 . S
H3166 C3158 0.930 . S
H3167 C3159 0.929 . S
H3168 C3176 0.929 . S
H3169 C3178 0.930 . S
H3170 C3180 0.930 . S
H3171 C3183 0.929 . S
H3172 C3186 0.930 . S
H3173 C3188 0.960 . S
H3174 C3188 0.960 . S
H3175 C3188 0.960 . S
C3176 H3168 0.929 . S
C3176 C3177 1.377 . S
C3176 C3178 1.384 . S
C3177 C3176 1.377 . S
C3177 C3183 1.390 . S
C3178 H3169 0.930 . S
C3178 C3176 1.384 . S
C3178 C3179 1.372 . S
C3179 C3178 1.372 . S
C3179 C3180 1.400 . S
C3179 C3184 1.490 . S
C3180 H3170 0.930 . S
C3180 C3179 1.400 . S
C3180 C3183 1.386 . S
H3181 C3197 0.930 . S
H3182 C3198 0.931 . S
C3183 H3171 0.929 . S
C3183 C3177 1.390 . S
C3183 C3180 1.386 . S
C3184 C3179 1.490 . S
C3184 C3186 1.395 . S
C3184 C3187 1.403 . S
H3185 C3191 0.930 . S
C3186 H3172 0.930 . S
C3186 C3184 1.395 . S
C3186 C3189 1.403 . S
C3187 C3184 1.403 . S
C3187 C3188 1.524 . S
C3187 C3191 1.400 . S
C3188 H3173 0.960 . S
C3188 H3174 0.960 . S
C3188 H3175 0.960 . S
C3188 C3187 1.524 . S
C3189 C3186 1.403 . S
C3189 C3190 1.392 . S
C3189 C3193 1.495 . S
C3190 C3189 1.392 . S
C3190 C3191 1.385 . S
C3190 C3192 1.478 . S
C3191 H3185 0.930 . S
C3191 C3187 1.400 . S
C3191 C3190 1.385 . S
C3192 C3190 1.478 . S
C3192 C3194 1.381 . S
C3192 C3198 1.383 . S
C3193 C3189 1.495 . S
C3193 H3199 0.959 . S
C3193 H3200 0.961 . S
C3193 H3201 0.960 . S
C3194 C3192 1.381 . S
C3194 C3195 1.394 . S
C3194 H3202 0.930 . S
C3195 C3194 1.394 . S
C3195 C3196 1.383 . S
C3195 H3203 0.929 . S
C3196 C3195 1.383 . S
C3196 C3197 1.377 . S
C3197 H3181 0.930 . S
C3197 C3196 1.377 . S
C3197 C3198 1.379 . S
C3198 H3182 0.931 . S
C3198 C3192 1.383 . S
C3198 C3197 1.379 . S
H3199 C3193 0.959 . S
H3200 C3193 0.961 . S
H3201 C3193 0.960 . S
H3202 C3194 0.930 . S
H3203 C3195 0.929 . S
H3204 C3212 0.929 . S
H3205 C3214 0.930 . S
H3206 C3216 0.930 . S
H3207 C3219 0.929 . S
H3208 C3222 0.930 . S
H3209 C3224 0.960 . S
H3210 C3224 0.960 . S
H3211 C3224 0.960 . S
C3212 H3204 0.929 . S
C3212 C3213 1.377 . S
C3212 C3214 1.384 . S
C3213 C3212 1.377 . S
C3213 C3219 1.390 . S
C3214 H3205 0.930 . S
C3214 C3212 1.384 . S
C3214 C3215 1.372 . S
C3215 C3214 1.372 . S
C3215 C3216 1.400 . S
C3215 C3220 1.490 . S
C3216 H3206 0.930 . S
C3216 C3215 1.400 . S
C3216 C3219 1.386 . S
H3217 C3233 0.930 . S
H3218 C3234 0.931 . S
C3219 H3207 0.929 . S
C3219 C3213 1.390 . S
C3219 C3216 1.386 . S
C3220 C3215 1.490 . S
C3220 C3222 1.395 . S
C3220 C3223 1.403 . S
H3221 C3227 0.930 . S
C3222 H3208 0.930 . S
C3222 C3220 1.395 . S
C3222 C3225 1.403 . S
C3223 C3220 1.403 . S
C3223 C3224 1.524 . S
C3223 C3227 1.400 . S
C3224 H3209 0.960 . S
C3224 H3210 0.960 . S
C3224 H3211 0.960 . S
C3224 C3223 1.524 . S
C3225 C3222 1.403 . S
C3225 C3226 1.392 . S
C3225 C3229 1.495 . S
C3226 C3225 1.392 . S
C3226 C3227 1.385 . S
C3226 C3228 1.478 . S
C3227 H3221 0.930 . S
C3227 C3223 1.400 . S
C3227 C3226 1.385 . S
C3228 C3226 1.478 . S
C3228 C3230 1.381 . S
C3228 C3234 1.383 . S
C3229 C3225 1.495 . S
C3229 H3235 0.959 . S
C3229 H3236 0.961 . S
C3229 H3237 0.960 . S
C3230 C3228 1.381 . S
C3230 C3231 1.394 . S
C3230 H3238 0.930 . S
C3231 C3230 1.394 . S
C3231 C3232 1.383 . S
C3231 H3239 0.929 . S
C3232 C3231 1.383 . S
C3232 C3233 1.377 . S
C3233 H3217 0.930 . S
C3233 C3232 1.377 . S
C3233 C3234 1.379 . S
C3234 H3218 0.931 . S
C3234 C3228 1.383 . S
C3234 C3233 1.379 . S
H3235 C3229 0.959 . S
H3236 C3229 0.961 . S
H3237 C3229 0.960 . S
H3238 C3230 0.930 . S
H3239 C3231 0.929 . S
H3240 C3248 0.929 . S
H3241 C3250 0.930 . S
H3242 C3252 0.930 . S
H3243 C3255 0.929 . S
H3244 C3258 0.930 . S
H3245 C3260 0.960 . S
H3246 C3260 0.960 . S
H3247 C3260 0.960 . S
C3248 H3240 0.929 . S
C3248 C3249 1.377 . S
C3248 C3250 1.384 . S
C3249 C3248 1.377 . S
C3249 C3255 1.390 . S
C3250 H3241 0.930 . S
C3250 C3248 1.384 . S
C3250 C3251 1.372 . S
C3251 C3250 1.372 . S
C3251 C3252 1.400 . S
C3251 C3256 1.490 . S
C3252 H3242 0.930 . S
C3252 C3251 1.400 . S
C3252 C3255 1.386 . S
H3253 C3269 0.930 . S
H3254 C3270 0.931 . S
C3255 H3243 0.929 . S
C3255 C3249 1.390 . S
C3255 C3252 1.386 . S
C3256 C3251 1.490 . S
C3256 C3258 1.395 . S
C3256 C3259 1.403 . S
H3257 C3263 0.930 . S
C3258 H3244 0.930 . S
C3258 C3256 1.395 . S
C3258 C3261 1.403 . S
C3259 C3256 1.403 . S
C3259 C3260 1.524 . S
C3259 C3263 1.400 . S
C3260 H3245 0.960 . S
C3260 H3246 0.960 . S
C3260 H3247 0.960 . S
C3260 C3259 1.524 . S
C3261 C3258 1.403 . S
C3261 C3262 1.392 . S
C3261 C3265 1.495 . S
C3262 C3261 1.392 . S
C3262 C3263 1.385 . S
C3262 C3264 1.478 . S
C3263 H3257 0.930 . S
C3263 C3259 1.400 . S
C3263 C3262 1.385 . S
C3264 C3262 1.478 . S
C3264 C3266 1.381 . S
C3264 C3270 1.383 . S
C3265 C3261 1.495 . S
C3265 H3271 0.959 . S
C3265 H3272 0.961 . S
C3265 H3273 0.960 . S
C3266 C3264 1.381 . S
C3266 C3267 1.394 . S
C3266 H3274 0.930 . S
C3267 C3266 1.394 . S
C3267 C3268 1.383 . S
C3267 H3275 0.929 . S
C3268 C3267 1.383 . S
C3268 C3269 1.377 . S
C3269 H3253 0.930 . S
C3269 C3268 1.377 . S
C3269 C3270 1.379 . S
C3270 H3254 0.931 . S
C3270 C3264 1.383 . S
C3270 C3269 1.379 . S
H3271 C3265 0.959 . S
H3272 C3265 0.961 . S
H3273 C3265 0.960 . S
H3274 C3266 0.930 . S
H3275 C3267 0.929 . S
H3276 C3284 0.929 . S
H3277 C3286 0.930 . S
H3278 C3288 0.930 . S
H3279 C3291 0.929 . S
H3280 C3294 0.930 . S
H3281 C3296 0.960 . S
H3282 C3296 0.960 . S
H3283 C3296 0.960 . S
C3284 H3276 0.929 . S
C3284 C3285 1.377 . S
C3284 C3286 1.384 . S
C3285 C3284 1.377 . S
C3285 C3291 1.390 . S
C3286 H3277 0.930 . S
C3286 C3284 1.384 . S
C3286 C3287 1.372 . S
C3287 C3286 1.372 . S
C3287 C3288 1.400 . S
C3287 C3292 1.490 . S
C3288 H3278 0.930 . S
C3288 C3287 1.400 . S
C3288 C3291 1.386 . S
H3289 C3305 0.930 . S
H3290 C3306 0.931 . S
C3291 H3279 0.929 . S
C3291 C3285 1.390 . S
C3291 C3288 1.386 . S
C3292 C3287 1.490 . S
C3292 C3294 1.395 . S
C3292 C3295 1.403 . S
H3293 C3299 0.930 . S
C3294 H3280 0.930 . S
C3294 C3292 1.395 . S
C3294 C3297 1.403 . S
C3295 C3292 1.403 . S
C3295 C3296 1.524 . S
C3295 C3299 1.400 . S
C3296 H3281 0.960 . S
C3296 H3282 0.960 . S
C3296 H3283 0.960 . S
C3296 C3295 1.524 . S
C3297 C3294 1.403 . S
C3297 C3298 1.392 . S
C3297 C3301 1.495 . S
C3298 C3297 1.392 . S
C3298 C3299 1.385 . S
C3298 C3300 1.478 . S
C3299 H3293 0.930 . S
C3299 C3295 1.400 . S
C3299 C3298 1.385 . S
C3300 C3298 1.478 . S
C3300 C3302 1.381 . S
C3300 C3306 1.383 . S
C3301 C3297 1.495 . S
C3301 H3307 0.959 . S
C3301 H3308 0.961 . S
C3301 H3309 0.960 . S
C3302 C3300 1.381 . S
C3302 C3303 1.394 . S
C3302 H3310 0.930 . S
C3303 C3302 1.394 . S
C3303 C3304 1.383 . S
C3303 H3311 0.929 . S
C3304 C3303 1.383 . S
C3304 C3305 1.377 . S
C3305 H3289 0.930 . S
C3305 C3304 1.377 . S
C3305 C3306 1.379 . S
C3306 H3290 0.931 . S
C3306 C3300 1.383 . S
C3306 C3305 1.379 . S
H3307 C3301 0.959 . S
H3308 C3301 0.961 . S
H3309 C3301 0.960 . S
H3310 C3302 0.930 . S
H3311 C3303 0.929 . S
H3312 C3320 0.929 . S
H3313 C3322 0.930 . S
H3314 C3324 0.930 . S
H3315 C3327 0.929 . S
H3316 C3330 0.930 . S
H3317 C3332 0.960 . S
H3318 C3332 0.960 . S
H3319 C3332 0.960 . S
C3320 H3312 0.929 . S
C3320 C3321 1.377 . S
C3320 C3322 1.384 . S
C3321 C3320 1.377 . S
C3321 C3327 1.390 . S
C3322 H3313 0.930 . S
C3322 C3320 1.384 . S
C3322 C3323 1.372 . S
C3323 C3322 1.372 . S
C3323 C3324 1.400 . S
C3323 C3328 1.490 . S
C3324 H3314 0.930 . S
C3324 C3323 1.400 . S
C3324 C3327 1.386 . S
H3325 C3341 0.930 . S
H3326 C3342 0.931 . S
C3327 H3315 0.929 . S
C3327 C3321 1.390 . S
C3327 C3324 1.386 . S
C3328 C3323 1.490 . S
C3328 C3330 1.395 . S
C3328 C3331 1.403 . S
H3329 C3335 0.930 . S
C3330 H3316 0.930 . S
C3330 C3328 1.395 . S
C3330 C3333 1.403 . S
C3331 C3328 1.403 . S
C3331 C3332 1.524 . S
C3331 C3335 1.400 . S
C3332 H3317 0.960 . S
C3332 H3318 0.960 . S
C3332 H3319 0.960 . S
C3332 C3331 1.524 . S
C3333 C3330 1.403 . S
C3333 C3334 1.392 . S
C3333 C3337 1.495 . S
C3334 C3333 1.392 . S
C3334 C3335 1.385 . S
C3334 C3336 1.478 . S
C3335 H3329 0.930 . S
C3335 C3331 1.400 . S
C3335 C3334 1.385 . S
C3336 C3334 1.478 . S
C3336 C3338 1.381 . S
C3336 C3342 1.383 . S
C3337 C3333 1.495 . S
C3337 H3343 0.959 . S
C3337 H3344 0.961 . S
C3337 H3345 0.960 . S
C3338 C3336 1.381 . S
C3338 C3339 1.394 . S
C3338 H3346 0.930 . S
C3339 C3338 1.394 . S
C3339 C3340 1.383 . S
C3339 H3347 0.929 . S
C3340 C3339 1.383 . S
C3340 C3341 1.377 . S
C3341 H3325 0.930 . S
C3341 C3340 1.377 . S
C3341 C3342 1.379 . S
C3342 H3326 0.931 . S
C3342 C3336 1.383 . S
C3342 C3341 1.379 . S
H3343 C3337 0.959 . S
H3344 C3337 0.961 . S
H3345 C3337 0.960 . S
H3346 C3338 0.930 . S
H3347 C3339 0.929 . S
H3348 C3356 0.929 . S
H3349 C3358 0.930 . S
H3350 C3360 0.930 . S
H3351 C3363 0.929 . S
H3352 C3366 0.930 . S
H3353 C3368 0.960 . S
H3354 C3368 0.960 . S
H3355 C3368 0.960 . S
C3356 H3348 0.929 . S
C3356 C3357 1.377 . S
C3356 C3358 1.384 . S
C3357 C3356 1.377 . S
C3357 C3363 1.390 . S
C3358 H3349 0.930 . S
C3358 C3356 1.384 . S
C3358 C3359 1.372 . S
C3359 C3358 1.372 . S
C3359 C3360 1.400 . S
C3359 C3364 1.490 . S
C3360 H3350 0.930 . S
C3360 C3359 1.400 . S
C3360 C3363 1.386 . S
H3361 C3377 0.930 . S
H3362 C3378 0.931 . S
C3363 H3351 0.929 . S
C3363 C3357 1.390 . S
C3363 C3360 1.386 . S
C3364 C3359 1.490 . S
C3364 C3366 1.395 . S
C3364 C3367 1.403 . S
H3365 C3371 0.930 . S
C3366 H3352 0.930 . S
C3366 C3364 1.395 . S
C3366 C3369 1.403 . S
C3367 C3364 1.403 . S
C3367 C3368 1.524 . S
C3367 C3371 1.400 . S
C3368 H3353 0.960 . S
C3368 H3354 0.960 . S
C3368 H3355 0.960 . S
C3368 C3367 1.524 . S
C3369 C3366 1.403 . S
C3369 C3370 1.392 . S
C3369 C3373 1.495 . S
C3370 C3369 1.392 . S
C3370 C3371 1.385 . S
C3370 C3372 1.478 . S
C3371 H3365 0.930 . S
C3371 C3367 1.400 . S
C3371 C3370 1.385 . S
C3372 C3370 1.478 . S
C3372 C3374 1.381 . S
C3372 C3378 1.383 . S
C3373 C3369 1.495 . S
C3373 H3379 0.959 . S
C3373 H3380 0.961 . S
C3373 H3381 0.960 . S
C3374 C3372 1.381 . S
C3374 C3375 1.394 . S
C3374 H3382 0.930 . S
C3375 C3374 1.394 . S
C3375 C3376 1.383 . S
C3375 H3383 0.929 . S
C3376 C3375 1.383 . S
C3376 C3377 1.377 . S
C3377 H3361 0.930 . S
C3377 C3376 1.377 . S
C3377 C3378 1.379 . S
C3378 H3362 0.931 . S
C3378 C3372 1.383 . S
C3378 C3377 1.379 . S
H3379 C3373 0.959 . S
H3380 C3373 0.961 . S
H3381 C3373 0.960 . S
H3382 C3374 0.930 . S
H3383 C3375 0.929 . S
H3384 C3392 0.929 . S
H3385 C3394 0.930 . S
H3386 C3396 0.930 . S
H3387 C3399 0.929 . S
H3388 C3402 0.930 . S
H3389 C3404 0.960 . S
H3390 C3404 0.960 . S
H3391 C3404 0.960 . S
C3392 H3384 0.929 . S
C3392 C3393 1.377 . S
C3392 C3394 1.384 . S
C3393 C3392 1.377 . S
C3393 C3399 1.390 . S
C3394 H3385 0.930 . S
C3394 C3392 1.384 . S
C3394 C3395 1.372 . S
C3395 C3394 1.372 . S
C3395 C3396 1.400 . S
C3395 C3400 1.490 . S
C3396 H3386 0.930 . S
C3396 C3395 1.400 . S
C3396 C3399 1.386 . S
H3397 C3413 0.930 . S
H3398 C3414 0.931 . S
C3399 H3387 0.929 . S
C3399 C3393 1.390 . S
C3399 C3396 1.386 . S
C3400 C3395 1.490 . S
C3400 C3402 1.395 . S
C3400 C3403 1.403 . S
H3401 C3407 0.930 . S
C3402 H3388 0.930 . S
C3402 C3400 1.395 . S
C3402 C3405 1.403 . S
C3403 C3400 1.403 . S
C3403 C3404 1.524 . S
C3403 C3407 1.400 . S
C3404 H3389 0.960 . S
C3404 H3390 0.960 . S
C3404 H3391 0.960 . S
C3404 C3403 1.524 . S
C3405 C3402 1.403 . S
C3405 C3406 1.392 . S
C3405 C3409 1.495 . S
C3406 C3405 1.392 . S
C3406 C3407 1.385 . S
C3406 C3408 1.478 . S
C3407 H3401 0.930 . S
C3407 C3403 1.400 . S
C3407 C3406 1.385 . S
C3408 C3406 1.478 . S
C3408 C3410 1.381 . S
C3408 C3414 1.383 . S
C3409 C3405 1.495 . S
C3409 H3415 0.959 . S
C3409 H3416 0.961 . S
C3409 H3417 0.960 . S
C3410 C3408 1.381 . S
C3410 C3411 1.394 . S
C3410 H3418 0.930 . S
C3411 C3410 1.394 . S
C3411 C3412 1.383 . S
C3411 H3419 0.929 . S
C3412 C3411 1.383 . S
C3412 C3413 1.377 . S
C3413 H3397 0.930 . S
C3413 C3412 1.377 . S
C3413 C3414 1.379 . S
C3414 H3398 0.931 . S
C3414 C3408 1.383 . S
C3414 C3413 1.379 . S
H3415 C3409 0.959 . S
H3416 C3409 0.961 . S
H3417 C3409 0.960 . S
H3418 C3410 0.930 . S
H3419 C3411 0.929 . S
H3420 C3428 0.929 . S
H3421 C3430 0.930 . S
H3422 C3432 0.930 . S
H3423 C3435 0.929 . S
H3424 C3438 0.930 . S
H3425 C3440 0.960 . S
H3426 C3440 0.960 . S
H3427 C3440 0.960 . S
C3428 H3420 0.929 . S
C3428 C3429 1.377 . S
C3428 C3430 1.384 . S
C3429 C3428 1.377 . S
C3429 C3435 1.390 . S
C3430 H3421 0.930 . S
C3430 C3428 1.384 . S
C3430 C3431 1.372 . S
C3431 C3430 1.372 . S
C3431 C3432 1.400 . S
C3431 C3436 1.490 . S
C3432 H3422 0.930 . S
C3432 C3431 1.400 . S
C3432 C3435 1.386 . S
H3433 C3449 0.930 . S
H3434 C3450 0.931 . S
C3435 H3423 0.929 . S
C3435 C3429 1.390 . S
C3435 C3432 1.386 . S
C3436 C3431 1.490 . S
C3436 C3438 1.395 . S
C3436 C3439 1.403 . S
H3437 C3443 0.930 . S
C3438 H3424 0.930 . S
C3438 C3436 1.395 . S
C3438 C3441 1.403 . S
C3439 C3436 1.403 . S
C3439 C3440 1.524 . S
C3439 C3443 1.400 . S
C3440 H3425 0.960 . S
C3440 H3426 0.960 . S
C3440 H3427 0.960 . S
C3440 C3439 1.524 . S
C3441 C3438 1.403 . S
C3441 C3442 1.392 . S
C3441 C3445 1.495 . S
C3442 C3441 1.392 . S
C3442 C3443 1.385 . S
C3442 C3444 1.478 . S
C3443 H3437 0.930 . S
C3443 C3439 1.400 . S
C3443 C3442 1.385 . S
C3444 C3442 1.478 . S
C3444 C3446 1.381 . S
C3444 C3450 1.383 . S
C3445 C3441 1.495 . S
C3445 H3451 0.959 . S
C3445 H3452 0.961 . S
C3445 H3453 0.960 . S
C3446 C3444 1.381 . S
C3446 C3447 1.394 . S
C3446 H3454 0.930 . S
C3447 C3446 1.394 . S
C3447 C3448 1.383 . S
C3447 H3455 0.929 . S
C3448 C3447 1.383 . S
C3448 C3449 1.377 . S
C3449 H3433 0.930 . S
C3449 C3448 1.377 . S
C3449 C3450 1.379 . S
C3450 H3434 0.931 . S
C3450 C3444 1.383 . S
C3450 C3449 1.379 . S
H3451 C3445 0.959 . S
H3452 C3445 0.961 . S
H3453 C3445 0.960 . S
H3454 C3446 0.930 . S
H3455 C3447 0.929 . S
H3456 C3464 0.929 . S
H3457 C3466 0.930 . S
H3458 C3468 0.930 . S
H3459 C3471 0.929 . S
H3460 C3474 0.930 . S
H3461 C3476 0.960 . S
H3462 C3476 0.960 . S
H3463 C3476 0.960 . S
C3464 H3456 0.929 . S
C3464 C3465 1.377 . S
C3464 C3466 1.384 . S
C3465 C3464 1.377 . S
C3465 C3471 1.390 . S
C3466 H3457 0.930 . S
C3466 C3464 1.384 . S
C3466 C3467 1.372 . S
C3467 C3466 1.372 . S
C3467 C3468 1.400 . S
C3467 C3472 1.490 . S
C3468 H3458 0.930 . S
C3468 C3467 1.400 . S
C3468 C3471 1.386 . S
H3469 C3485 0.930 . S
H3470 C3486 0.931 . S
C3471 H3459 0.929 . S
C3471 C3465 1.390 . S
C3471 C3468 1.386 . S
C3472 C3467 1.490 . S
C3472 C3474 1.395 . S
C3472 C3475 1.403 . S
H3473 C3479 0.930 . S
C3474 H3460 0.930 . S
C3474 C3472 1.395 . S
C3474 C3477 1.403 . S
C3475 C3472 1.403 . S
C3475 C3476 1.524 . S
C3475 C3479 1.400 . S
C3476 H3461 0.960 . S
C3476 H3462 0.960 . S
C3476 H3463 0.960 . S
C3476 C3475 1.524 . S
C3477 C3474 1.403 . S
C3477 C3478 1.392 . S
C3477 C3481 1.495 . S
C3478 C3477 1.392 . S
C3478 C3479 1.385 . S
C3478 C3480 1.478 . S
C3479 H3473 0.930 . S
C3479 C3475 1.400 . S
C3479 C3478 1.385 . S
C3480 C3478 1.478 . S
C3480 C3482 1.381 . S
C3480 C3486 1.383 . S
C3481 C3477 1.495 . S
C3481 H3487 0.959 . S
C3481 H3488 0.961 . S
C3481 H3489 0.960 . S
C3482 C3480 1.381 . S
C3482 C3483 1.394 . S
C3482 H3490 0.930 . S
C3483 C3482 1.394 . S
C3483 C3484 1.383 . S
C3483 H3491 0.929 . S
C3484 C3483 1.383 . S
C3484 C3485 1.377 . S
C3485 H3469 0.930 . S
C3485 C3484 1.377 . S
C3485 C3486 1.379 . S
C3486 H3470 0.931 . S
C3486 C3480 1.383 . S
C3486 C3485 1.379 . S
H3487 C3481 0.959 . S
H3488 C3481 0.961 . S
H3489 C3481 0.960 . S
H3490 C3482 0.930 . S
H3491 C3483 0.929 . S
H3492 C3500 0.929 . S
H3493 C3502 0.930 . S
H3494 C3504 0.930 . S
H3495 C3507 0.929 . S
H3496 C3510 0.930 . S
H3497 C3512 0.960 . S
H3498 C3512 0.960 . S
H3499 C3512 0.960 . S
C3500 H3492 0.929 . S
C3500 C3501 1.377 . S
C3500 C3502 1.384 . S
C3501 C3500 1.377 . S
C3501 C3507 1.390 . S
C3502 H3493 0.930 . S
C3502 C3500 1.384 . S
C3502 C3503 1.372 . S
C3503 C3502 1.372 . S
C3503 C3504 1.400 . S
C3503 C3508 1.490 . S
C3504 H3494 0.930 . S
C3504 C3503 1.400 . S
C3504 C3507 1.386 . S
H3505 C3521 0.930 . S
H3506 C3522 0.931 . S
C3507 H3495 0.929 . S
C3507 C3501 1.390 . S
C3507 C3504 1.386 . S
C3508 C3503 1.490 . S
C3508 C3510 1.395 . S
C3508 C3511 1.403 . S
H3509 C3515 0.930 . S
C3510 H3496 0.930 . S
C3510 C3508 1.395 . S
C3510 C3513 1.403 . S
C3511 C3508 1.403 . S
C3511 C3512 1.524 . S
C3511 C3515 1.400 . S
C3512 H3497 0.960 . S
C3512 H3498 0.960 . S
C3512 H3499 0.960 . S
C3512 C3511 1.524 . S
C3513 C3510 1.403 . S
C3513 C3514 1.392 . S
C3513 C3517 1.495 . S
C3514 C3513 1.392 . S
C3514 C3515 1.385 . S
C3514 C3516 1.478 . S
C3515 H3509 0.930 . S
C3515 C3511 1.400 . S
C3515 C3514 1.385 . S
C3516 C3514 1.478 . S
C3516 C3518 1.381 . S
C3516 C3522 1.383 . S
C3517 C3513 1.495 . S
C3517 H3523 0.959 . S
C3517 H3524 0.961 . S
C3517 H3525 0.960 . S
C3518 C3516 1.381 . S
C3518 C3519 1.394 . S
C3518 H3526 0.930 . S
C3519 C3518 1.394 . S
C3519 C3520 1.383 . S
C3519 H3527 0.929 . S
C3520 C3519 1.383 . S
C3520 C3521 1.377 . S
C3521 H3505 0.930 . S
C3521 C3520 1.377 . S
C3521 C3522 1.379 . S
C3522 H3506 0.931 . S
C3522 C3516 1.383 . S
C3522 C3521 1.379 . S
H3523 C3517 0.959 . S
H3524 C3517 0.961 . S
H3525 C3517 0.960 . S
H3526 C3518 0.930 . S
H3527 C3519 0.929 . S
H3528 C3536 0.929 . S
H3529 C3538 0.930 . S
H3530 C3540 0.930 . S
H3531 C3543 0.929 . S
H3532 C3546 0.930 . S
H3533 C3548 0.960 . S
H3534 C3548 0.960 . S
H3535 C3548 0.960 . S
C3536 H3528 0.929 . S
C3536 C3537 1.377 . S
C3536 C3538 1.384 . S
C3537 C3536 1.377 . S
C3537 C3543 1.390 . S
C3538 H3529 0.930 . S
C3538 C3536 1.384 . S
C3538 C3539 1.372 . S
C3539 C3538 1.372 . S
C3539 C3540 1.400 . S
C3539 C3544 1.490 . S
C3540 H3530 0.930 . S
C3540 C3539 1.400 . S
C3540 C3543 1.386 . S
H3541 C3557 0.930 . S
H3542 C3558 0.931 . S
C3543 H3531 0.929 . S
C3543 C3537 1.390 . S
C3543 C3540 1.386 . S
C3544 C3539 1.490 . S
C3544 C3546 1.395 . S
C3544 C3547 1.403 . S
H3545 C3551 0.930 . S
C3546 H3532 0.930 . S
C3546 C3544 1.395 . S
C3546 C3549 1.403 . S
C3547 C3544 1.403 . S
C3547 C3548 1.524 . S
C3547 C3551 1.400 . S
C3548 H3533 0.960 . S
C3548 H3534 0.960 . S
C3548 H3535 0.960 . S
C3548 C3547 1.524 . S
C3549 C3546 1.403 . S
C3549 C3550 1.392 . S
C3549 C3553 1.495 . S
C3550 C3549 1.392 . S
C3550 C3551 1.385 . S
C3550 C3552 1.478 . S
C3551 H3545 0.930 . S
C3551 C3547 1.400 . S
C3551 C3550 1.385 . S
C3552 C3550 1.478 . S
C3552 C3554 1.381 . S
C3552 C3558 1.383 . S
C3553 C3549 1.495 . S
C3553 H3559 0.959 . S
C3553 H3560 0.961 . S
C3553 H3561 0.960 . S
C3554 C3552 1.381 . S
C3554 C3555 1.394 . S
C3554 H3562 0.930 . S
C3555 C3554 1.394 . S
C3555 C3556 1.383 . S
C3555 H3563 0.929 . S
C3556 C3555 1.383 . S
C3556 C3557 1.377 . S
C3557 H3541 0.930 . S
C3557 C3556 1.377 . S
C3557 C3558 1.379 . S
C3558 H3542 0.931 . S
C3558 C3552 1.383 . S
C3558 C3557 1.379 . S
H3559 C3553 0.959 . S
H3560 C3553 0.961 . S
H3561 C3553 0.960 . S
H3562 C3554 0.930 . S
H3563 C3555 0.929 . S
H3564 C3572 0.929 . S
H3565 C3574 0.930 . S
H3566 C3576 0.930 . S
H3567 C3579 0.929 . S
H3568 C3582 0.930 . S
H3569 C3584 0.960 . S
H3570 C3584 0.960 . S
H3571 C3584 0.960 . S
C3572 H3564 0.929 . S
C3572 C3573 1.377 . S
C3572 C3574 1.384 . S
C3573 C3572 1.377 . S
C3573 C3579 1.390 . S
C3574 H3565 0.930 . S
C3574 C3572 1.384 . S
C3574 C3575 1.372 . S
C3575 C3574 1.372 . S
C3575 C3576 1.400 . S
C3575 C3580 1.490 . S
C3576 H3566 0.930 . S
C3576 C3575 1.400 . S
C3576 C3579 1.386 . S
H3577 C3593 0.930 . S
H3578 C3594 0.931 . S
C3579 H3567 0.929 . S
C3579 C3573 1.390 . S
C3579 C3576 1.386 . S
C3580 C3575 1.490 . S
C3580 C3582 1.395 . S
C3580 C3583 1.403 . S
H3581 C3587 0.930 . S
C3582 H3568 0.930 . S
C3582 C3580 1.395 . S
C3582 C3585 1.403 . S
C3583 C3580 1.403 . S
C3583 C3584 1.524 . S
C3583 C3587 1.400 . S
C3584 H3569 0.960 . S
C3584 H3570 0.960 . S
C3584 H3571 0.960 . S
C3584 C3583 1.524 . S
C3585 C3582 1.403 . S
C3585 C3586 1.392 . S
C3585 C3589 1.495 . S
C3586 C3585 1.392 . S
C3586 C3587 1.385 . S
C3586 C3588 1.478 . S
C3587 H3581 0.930 . S
C3587 C3583 1.400 . S
C3587 C3586 1.385 . S
C3588 C3586 1.478 . S
C3588 C3590 1.381 . S
C3588 C3594 1.383 . S
C3589 C3585 1.495 . S
C3589 H3595 0.959 . S
C3589 H3596 0.961 . S
C3589 H3597 0.960 . S
C3590 C3588 1.381 . S
C3590 C3591 1.394 . S
C3590 H3598 0.930 . S
C3591 C3590 1.394 . S
C3591 C3592 1.383 . S
C3591 H3599 0.929 . S
C3592 C3591 1.383 . S
C3592 C3593 1.377 . S
C3593 H3577 0.930 . S
C3593 C3592 1.377 . S
C3593 C3594 1.379 . S
C3594 H3578 0.931 . S
C3594 C3588 1.383 . S
C3594 C3593 1.379 . S
H3595 C3589 0.959 . S
H3596 C3589 0.961 . S
H3597 C3589 0.960 . S
H3598 C3590 0.930 . S
H3599 C3591 0.929 . S
H3600 C3608 0.929 . S
H3601 C3610 0.930 . S
H3602 C3612 0.930 . S
H3603 C3615 0.929 . S
H3604 C3618 0.930 . S
H3605 C3620 0.960 . S
H3606 C3620 0.960 . S
H3607 C3620 0.960 . S
C3608 H3600 0.929 . S
C3608 C3609 1.377 . S
C3608 C3610 1.384 . S
C3609 C3608 1.377 . S
C3609 C3615 1.390 . S
C3610 H3601 0.930 . S
C3610 C3608 1.384 . S
C3610 C3611 1.372 . S
C3611 C3610 1.372 . S
C3611 C3612 1.400 . S
C3611 C3616 1.490 . S
C3612 H3602 0.930 . S
C3612 C3611 1.400 . S
C3612 C3615 1.386 . S
H3613 C3629 0.930 . S
H3614 C3630 0.931 . S
C3615 H3603 0.929 . S
C3615 C3609 1.390 . S
C3615 C3612 1.386 . S
C3616 C3611 1.490 . S
C3616 C3618 1.395 . S
C3616 C3619 1.403 . S
H3617 C3623 0.930 . S
C3618 H3604 0.930 . S
C3618 C3616 1.395 . S
C3618 C3621 1.403 . S
C3619 C3616 1.403 . S
C3619 C3620 1.524 . S
C3619 C3623 1.400 . S
C3620 H3605 0.960 . S
C3620 H3606 0.960 . S
C3620 H3607 0.960 . S
C3620 C3619 1.524 . S
C3621 C3618 1.403 . S
C3621 C3622 1.392 . S
C3621 C3625 1.495 . S
C3622 C3621 1.392 . S
C3622 C3623 1.385 . S
C3622 C3624 1.478 . S
C3623 H3617 0.930 . S
C3623 C3619 1.400 . S
C3623 C3622 1.385 . S
C3624 C3622 1.478 . S
C3624 C3626 1.381 . S
C3624 C3630 1.383 . S
C3625 C3621 1.495 . S
C3625 H3631 0.959 . S
C3625 H3632 0.961 . S
C3625 H3633 0.960 . S
C3626 C3624 1.381 . S
C3626 C3627 1.394 . S
C3626 H3634 0.930 . S
C3627 C3626 1.394 . S
C3627 C3628 1.383 . S
C3627 H3635 0.929 . S
C3628 C3627 1.383 . S
C3628 C3629 1.377 . S
C3629 H3613 0.930 . S
C3629 C3628 1.377 . S
C3629 C3630 1.379 . S
C3630 H3614 0.931 . S
C3630 C3624 1.383 . S
C3630 C3629 1.379 . S
H3631 C3625 0.959 . S
H3632 C3625 0.961 . S
H3633 C3625 0.960 . S
H3634 C3626 0.930 . S
H3635 C3627 0.929 . S
H3636 C3644 0.929 . S
H3637 C3646 0.930 . S
H3638 C3648 0.930 . S
H3639 C3651 0.929 . S
H3640 C3654 0.930 . S
H3641 C3656 0.960 . S
H3642 C3656 0.960 . S
H3643 C3656 0.960 . S
C3644 H3636 0.929 . S
C3644 C3645 1.377 . S
C3644 C3646 1.384 . S
C3645 C3644 1.377 . S
C3645 C3651 1.390 . S
C3646 H3637 0.930 . S
C3646 C3644 1.384 . S
C3646 C3647 1.372 . S
C3647 C3646 1.372 . S
C3647 C3648 1.400 . S
C3647 C3652 1.490 . S
C3648 H3638 0.930 . S
C3648 C3647 1.400 . S
C3648 C3651 1.386 . S
H3649 C3665 0.930 . S
H3650 C3666 0.931 . S
C3651 H3639 0.929 . S
C3651 C3645 1.390 . S
C3651 C3648 1.386 . S
C3652 C3647 1.490 . S
C3652 C3654 1.395 . S
C3652 C3655 1.403 . S
H3653 C3659 0.930 . S
C3654 H3640 0.930 . S
C3654 C3652 1.395 . S
C3654 C3657 1.403 . S
C3655 C3652 1.403 . S
C3655 C3656 1.524 . S
C3655 C3659 1.400 . S
C3656 H3641 0.960 . S
C3656 H3642 0.960 . S
C3656 H3643 0.960 . S
C3656 C3655 1.524 . S
C3657 C3654 1.403 . S
C3657 C3658 1.392 . S
C3657 C3661 1.495 . S
C3658 C3657 1.392 . S
C3658 C3659 1.385 . S
C3658 C3660 1.478 . S
C3659 H3653 0.930 . S
C3659 C3655 1.400 . S
C3659 C3658 1.385 . S
C3660 C3658 1.478 . S
C3660 C3662 1.381 . S
C3660 C3666 1.383 . S
C3661 C3657 1.495 . S
C3661 H3667 0.959 . S
C3661 H3668 0.961 . S
C3661 H3669 0.960 . S
C3662 C3660 1.381 . S
C3662 C3663 1.394 . S
C3662 H3670 0.930 . S
C3663 C3662 1.394 . S
C3663 C3664 1.383 . S
C3663 H3671 0.929 . S
C3664 C3663 1.383 . S
C3664 C3665 1.377 . S
C3665 H3649 0.930 . S
C3665 C3664 1.377 . S
C3665 C3666 1.379 . S
C3666 H3650 0.931 . S
C3666 C3660 1.383 . S
C3666 C3665 1.379 . S
H3667 C3661 0.959 . S
H3668 C3661 0.961 . S
H3669 C3661 0.960 . S
H3670 C3662 0.930 . S
H3671 C3663 0.929 . S
H3672 C3680 0.929 . S
H3673 C3682 0.930 . S
H3674 C3684 0.930 . S
H3675 C3687 0.929 . S
H3676 C3690 0.930 . S
H3677 C3692 0.960 . S
H3678 C3692 0.960 . S
H3679 C3692 0.960 . S
C3680 H3672 0.929 . S
C3680 C3681 1.377 . S
C3680 C3682 1.384 . S
C3681 C3680 1.377 . S
C3681 C3687 1.390 . S
C3682 H3673 0.930 . S
C3682 C3680 1.384 . S
C3682 C3683 1.372 . S
C3683 C3682 1.372 . S
C3683 C3684 1.400 . S
C3683 C3688 1.490 . S
C3684 H3674 0.930 . S
C3684 C3683 1.400 . S
C3684 C3687 1.386 . S
H3685 C3701 0.930 . S
H3686 C3702 0.931 . S
C3687 H3675 0.929 . S
C3687 C3681 1.390 . S
C3687 C3684 1.386 . S
C3688 C3683 1.490 . S
C3688 C3690 1.395 . S
C3688 C3691 1.403 . S
H3689 C3695 0.930 . S
C3690 H3676 0.930 . S
C3690 C3688 1.395 . S
C3690 C3693 1.403 . S
C3691 C3688 1.403 . S
C3691 C3692 1.524 . S
C3691 C3695 1.400 . S
C3692 H3677 0.960 . S
C3692 H3678 0.960 . S
C3692 H3679 0.960 . S
C3692 C3691 1.524 . S
C3693 C3690 1.403 . S
C3693 C3694 1.392 . S
C3693 C3697 1.495 . S
C3694 C3693 1.392 . S
C3694 C3695 1.385 . S
C3694 C3696 1.478 . S
C3695 H3689 0.930 . S
C3695 C3691 1.400 . S
C3695 C3694 1.385 . S
C3696 C3694 1.478 . S
C3696 C3698 1.381 . S
C3696 C3702 1.383 . S
C3697 C3693 1.495 . S
C3697 H3703 0.959 . S
C3697 H3704 0.961 . S
C3697 H3705 0.960 . S
C3698 C3696 1.381 . S
C3698 C3699 1.394 . S
C3698 H3706 0.930 . S
C3699 C3698 1.394 . S
C3699 C3700 1.383 . S
C3699 H3707 0.929 . S
C3700 C3699 1.383 . S
C3700 C3701 1.377 . S
C3701 H3685 0.930 . S
C3701 C3700 1.377 . S
C3701 C3702 1.379 . S
C3702 H3686 0.931 . S
C3702 C3696 1.383 . S
C3702 C3701 1.379 . S
H3703 C3697 0.959 . S
H3704 C3697 0.961 . S
H3705 C3697 0.960 . S
H3706 C3698 0.930 . S
H3707 C3699 0.929 . S
H3708 C3716 0.929 . S
H3709 C3718 0.930 . S
H3710 C3720 0.930 . S
H3711 C3723 0.929 . S
H3712 C3726 0.930 . S
H3713 C3728 0.960 . S
H3714 C3728 0.960 . S
H3715 C3728 0.960 . S
C3716 H3708 0.929 . S
C3716 C3717 1.377 . S
C3716 C3718 1.384 . S
C3717 C3716 1.377 . S
C3717 C3723 1.390 . S
C3718 H3709 0.930 . S
C3718 C3716 1.384 . S
C3718 C3719 1.372 . S
C3719 C3718 1.372 . S
C3719 C3720 1.400 . S
C3719 C3724 1.490 . S
C3720 H3710 0.930 . S
C3720 C3719 1.400 . S
C3720 C3723 1.386 . S
H3721 C3737 0.930 . S
H3722 C3738 0.931 . S
C3723 H3711 0.929 . S
C3723 C3717 1.390 . S
C3723 C3720 1.386 . S
C3724 C3719 1.490 . S
C3724 C3726 1.395 . S
C3724 C3727 1.403 . S
H3725 C3731 0.930 . S
C3726 H3712 0.930 . S
C3726 C3724 1.395 . S
C3726 C3729 1.403 . S
C3727 C3724 1.403 . S
C3727 C3728 1.524 . S
C3727 C3731 1.400 . S
C3728 H3713 0.960 . S
C3728 H3714 0.960 . S
C3728 H3715 0.960 . S
C3728 C3727 1.524 . S
C3729 C3726 1.403 . S
C3729 C3730 1.392 . S
C3729 C3733 1.495 . S
C3730 C3729 1.392 . S
C3730 C3731 1.385 . S
C3730 C3732 1.478 . S
C3731 H3725 0.930 . S
C3731 C3727 1.400 . S
C3731 C3730 1.385 . S
C3732 C3730 1.478 . S
C3732 C3734 1.381 . S
C3732 C3738 1.383 . S
C3733 C3729 1.495 . S
C3733 H3739 0.959 . S
C3733 H3740 0.961 . S
C3733 H3741 0.960 . S
C3734 C3732 1.381 . S
C3734 C3735 1.394 . S
C3734 H3742 0.930 . S
C3735 C3734 1.394 . S
C3735 C3736 1.383 . S
C3735 H3743 0.929 . S
C3736 C3735 1.383 . S
C3736 C3737 1.377 . S
C3737 H3721 0.930 . S
C3737 C3736 1.377 . S
C3737 C3738 1.379 . S
C3738 H3722 0.931 . S
C3738 C3732 1.383 . S
C3738 C3737 1.379 . S
H3739 C3733 0.959 . S
H3740 C3733 0.961 . S
H3741 C3733 0.960 . S
H3742 C3734 0.930 . S
H3743 C3735 0.929 . S
H3744 C3752 0.929 . S
H3745 C3754 0.930 . S
H3746 C3756 0.930 . S
H3747 C3759 0.929 . S
H3748 C3762 0.930 . S
H3749 C3764 0.960 . S
H3750 C3764 0.960 . S
H3751 C3764 0.960 . S
C3752 H3744 0.929 . S
C3752 C3753 1.377 . S
C3752 C3754 1.384 . S
C3753 C3752 1.377 . S
C3753 C3759 1.390 . S
C3754 H3745 0.930 . S
C3754 C3752 1.384 . S
C3754 C3755 1.372 . S
C3755 C3754 1.372 . S
C3755 C3756 1.400 . S
C3755 C3760 1.490 . S
C3756 H3746 0.930 . S
C3756 C3755 1.400 . S
C3756 C3759 1.386 . S
H3757 C3773 0.930 . S
H3758 C3774 0.931 . S
C3759 H3747 0.929 . S
C3759 C3753 1.390 . S
C3759 C3756 1.386 . S
C3760 C3755 1.490 . S
C3760 C3762 1.395 . S
C3760 C3763 1.403 . S
H3761 C3767 0.930 . S
C3762 H3748 0.930 . S
C3762 C3760 1.395 . S
C3762 C3765 1.403 . S
C3763 C3760 1.403 . S
C3763 C3764 1.524 . S
C3763 C3767 1.400 . S
C3764 H3749 0.960 . S
C3764 H3750 0.960 . S
C3764 H3751 0.960 . S
C3764 C3763 1.524 . S
C3765 C3762 1.403 . S
C3765 C3766 1.392 . S
C3765 C3769 1.495 . S
C3766 C3765 1.392 . S
C3766 C3767 1.385 . S
C3766 C3768 1.478 . S
C3767 H3761 0.930 . S
C3767 C3763 1.400 . S
C3767 C3766 1.385 . S
C3768 C3766 1.478 . S
C3768 C3770 1.381 . S
C3768 C3774 1.383 . S
C3769 C3765 1.495 . S
C3769 H3775 0.959 . S
C3769 H3776 0.961 . S
C3769 H3777 0.960 . S
C3770 C3768 1.381 . S
C3770 C3771 1.394 . S
C3770 H3778 0.930 . S
C3771 C3770 1.394 . S
C3771 C3772 1.383 . S
C3771 H3779 0.929 . S
C3772 C3771 1.383 . S
C3772 C3773 1.377 . S
C3773 H3757 0.930 . S
C3773 C3772 1.377 . S
C3773 C3774 1.379 . S
C3774 H3758 0.931 . S
C3774 C3768 1.383 . S
C3774 C3773 1.379 . S
H3775 C3769 0.959 . S
H3776 C3769 0.961 . S
H3777 C3769 0.960 . S
H3778 C3770 0.930 . S
H3779 C3771 0.929 . S
H3780 C3788 0.929 . S
H3781 C3790 0.930 . S
H3782 C3792 0.930 . S
H3783 C3795 0.929 . S
H3784 C3798 0.930 . S
H3785 C3800 0.960 . S
H3786 C3800 0.960 . S
H3787 C3800 0.960 . S
C3788 H3780 0.929 . S
C3788 C3789 1.377 . S
C3788 C3790 1.384 . S
C3789 C3788 1.377 . S
C3789 C3795 1.390 . S
C3790 H3781 0.930 . S
C3790 C3788 1.384 . S
C3790 C3791 1.372 . S
C3791 C3790 1.372 . S
C3791 C3792 1.400 . S
C3791 C3796 1.490 . S
C3792 H3782 0.930 . S
C3792 C3791 1.400 . S
C3792 C3795 1.386 . S
H3793 C3809 0.930 . S
H3794 C3810 0.931 . S
C3795 H3783 0.929 . S
C3795 C3789 1.390 . S
C3795 C3792 1.386 . S
C3796 C3791 1.490 . S
C3796 C3798 1.395 . S
C3796 C3799 1.403 . S
H3797 C3803 0.930 . S
C3798 H3784 0.930 . S
C3798 C3796 1.395 . S
C3798 C3801 1.403 . S
C3799 C3796 1.403 . S
C3799 C3800 1.524 . S
C3799 C3803 1.400 . S
C3800 H3785 0.960 . S
C3800 H3786 0.960 . S
C3800 H3787 0.960 . S
C3800 C3799 1.524 . S
C3801 C3798 1.403 . S
C3801 C3802 1.392 . S
C3801 C3805 1.495 . S
C3802 C3801 1.392 . S
C3802 C3803 1.385 . S
C3802 C3804 1.478 . S
C3803 H3797 0.930 . S
C3803 C3799 1.400 . S
C3803 C3802 1.385 . S
C3804 C3802 1.478 . S
C3804 C3806 1.381 . S
C3804 C3810 1.383 . S
C3805 C3801 1.495 . S
C3805 H3811 0.959 . S
C3805 H3812 0.961 . S
C3805 H3813 0.960 . S
C3806 C3804 1.381 . S
C3806 C3807 1.394 . S
C3806 H3814 0.930 . S
C3807 C3806 1.394 . S
C3807 C3808 1.383 . S
C3807 H3815 0.929 . S
C3808 C3807 1.383 . S
C3808 C3809 1.377 . S
C3809 H3793 0.930 . S
C3809 C3808 1.377 . S
C3809 C3810 1.379 . S
C3810 H3794 0.931 . S
C3810 C3804 1.383 . S
C3810 C3809 1.379 . S
H3811 C3805 0.959 . S
H3812 C3805 0.961 . S
H3813 C3805 0.960 . S
H3814 C3806 0.930 . S
H3815 C3807 0.929 . S
H3816 C3824 0.929 . S
H3817 C3826 0.930 . S
H3818 C3828 0.930 . S
H3819 C3831 0.929 . S
H3820 C3834 0.930 . S
H3821 C3836 0.960 . S
H3822 C3836 0.960 . S
H3823 C3836 0.960 . S
C3824 H3816 0.929 . S
C3824 C3825 1.377 . S
C3824 C3826 1.384 . S
C3825 C3824 1.377 . S
C3825 C3831 1.390 . S
C3826 H3817 0.930 . S
C3826 C3824 1.384 . S
C3826 C3827 1.372 . S
C3827 C3826 1.372 . S
C3827 C3828 1.400 . S
C3827 C3832 1.490 . S
C3828 H3818 0.930 . S
C3828 C3827 1.400 . S
C3828 C3831 1.386 . S
H3829 C3845 0.930 . S
H3830 C3846 0.931 . S
C3831 H3819 0.929 . S
C3831 C3825 1.390 . S
C3831 C3828 1.386 . S
C3832 C3827 1.490 . S
C3832 C3834 1.395 . S
C3832 C3835 1.403 . S
H3833 C3839 0.930 . S
C3834 H3820 0.930 . S
C3834 C3832 1.395 . S
C3834 C3837 1.403 . S
C3835 C3832 1.403 . S
C3835 C3836 1.524 . S
C3835 C3839 1.400 . S
C3836 H3821 0.960 . S
C3836 H3822 0.960 . S
C3836 H3823 0.960 . S
C3836 C3835 1.524 . S
C3837 C3834 1.403 . S
C3837 C3838 1.392 . S
C3837 C3841 1.495 . S
C3838 C3837 1.392 . S
C3838 C3839 1.385 . S
C3838 C3840 1.478 . S
C3839 H3833 0.930 . S
C3839 C3835 1.400 . S
C3839 C3838 1.385 . S
C3840 C3838 1.478 . S
C3840 C3842 1.381 . S
C3840 C3846 1.383 . S
C3841 C3837 1.495 . S
C3841 H3847 0.959 . S
C3841 H3848 0.961 . S
C3841 H3849 0.960 . S
C3842 C3840 1.381 . S
C3842 C3843 1.394 . S
C3842 H3850 0.930 . S
C3843 C3842 1.394 . S
C3843 C3844 1.383 . S
C3843 H3851 0.929 . S
C3844 C3843 1.383 . S
C3844 C3845 1.377 . S
C3845 H3829 0.930 . S
C3845 C3844 1.377 . S
C3845 C3846 1.379 . S
C3846 H3830 0.931 . S
C3846 C3840 1.383 . S
C3846 C3845 1.379 . S
H3847 C3841 0.959 . S
H3848 C3841 0.961 . S
H3849 C3841 0.960 . S
H3850 C3842 0.930 . S
H3851 C3843 0.929 . S
H3852 C3860 0.929 . S
H3853 C3862 0.930 . S
H3854 C3864 0.930 . S
H3855 C3867 0.929 . S
H3856 C3870 0.930 . S
H3857 C3872 0.960 . S
H3858 C3872 0.960 . S
H3859 C3872 0.960 . S
C3860 H3852 0.929 . S
C3860 C3861 1.377 . S
C3860 C3862 1.384 . S
C3861 C3860 1.377 . S
C3861 C3867 1.390 . S
C3862 H3853 0.930 . S
C3862 C3860 1.384 . S
C3862 C3863 1.372 . S
C3863 C3862 1.372 . S
C3863 C3864 1.400 . S
C3863 C3868 1.490 . S
C3864 H3854 0.930 . S
C3864 C3863 1.400 . S
C3864 C3867 1.386 . S
H3865 C3881 0.930 . S
H3866 C3882 0.931 . S
C3867 H3855 0.929 . S
C3867 C3861 1.390 . S
C3867 C3864 1.386 . S
C3868 C3863 1.490 . S
C3868 C3870 1.395 . S
C3868 C3871 1.403 . S
H3869 C3875 0.930 . S
C3870 H3856 0.930 . S
C3870 C3868 1.395 . S
C3870 C3873 1.403 . S
C3871 C3868 1.403 . S
C3871 C3872 1.524 . S
C3871 C3875 1.400 . S
C3872 H3857 0.960 . S
C3872 H3858 0.960 . S
C3872 H3859 0.960 . S
C3872 C3871 1.524 . S
C3873 C3870 1.403 . S
C3873 C3874 1.392 . S
C3873 C3877 1.495 . S
C3874 C3873 1.392 . S
C3874 C3875 1.385 . S
C3874 C3876 1.478 . S
C3875 H3869 0.930 . S
C3875 C3871 1.400 . S
C3875 C3874 1.385 . S
C3876 C3874 1.478 . S
C3876 C3878 1.381 . S
C3876 C3882 1.383 . S
C3877 C3873 1.495 . S
C3877 H3883 0.959 . S
C3877 H3884 0.961 . S
C3877 H3885 0.960 . S
C3878 C3876 1.381 . S
C3878 C3879 1.394 . S
C3878 H3886 0.930 . S
C3879 C3878 1.394 . S
C3879 C3880 1.383 . S
C3879 H3887 0.929 . S
C3880 C3879 1.383 . S
C3880 C3881 1.377 . S
C3881 H3865 0.930 . S
C3881 C3880 1.377 . S
C3881 C3882 1.379 . S
C3882 H3866 0.931 . S
C3882 C3876 1.383 . S
C3882 C3881 1.379 . S
H3883 C3877 0.959 . S
H3884 C3877 0.961 . S
H3885 C3877 0.960 . S
H3886 C3878 0.930 . S
H3887 C3879 0.929 . S
H3888 C3896 0.929 . S
H3889 C3898 0.930 . S
H3890 C3900 0.930 . S
H3891 C3903 0.929 . S
H3892 C3906 0.930 . S
H3893 C3908 0.960 . S
H3894 C3908 0.960 . S
H3895 C3908 0.960 . S
C3896 H3888 0.929 . S
C3896 C3897 1.377 . S
C3896 C3898 1.384 . S
C3897 C3896 1.377 . S
C3897 C3903 1.390 . S
C3898 H3889 0.930 . S
C3898 C3896 1.384 . S
C3898 C3899 1.372 . S
C3899 C3898 1.372 . S
C3899 C3900 1.400 . S
C3899 C3904 1.490 . S
C3900 H3890 0.930 . S
C3900 C3899 1.400 . S
C3900 C3903 1.386 . S
H3901 C3917 0.930 . S
H3902 C3918 0.931 . S
C3903 H3891 0.929 . S
C3903 C3897 1.390 . S
C3903 C3900 1.386 . S
C3904 C3899 1.490 . S
C3904 C3906 1.395 . S
C3904 C3907 1.403 . S
H3905 C3911 0.930 . S
C3906 H3892 0.930 . S
C3906 C3904 1.395 . S
C3906 C3909 1.403 . S
C3907 C3904 1.403 . S
C3907 C3908 1.524 . S
C3907 C3911 1.400 . S
C3908 H3893 0.960 . S
C3908 H3894 0.960 . S
C3908 H3895 0.960 . S
C3908 C3907 1.524 . S
C3909 C3906 1.403 . S
C3909 C3910 1.392 . S
C3909 C3913 1.495 . S
C3910 C3909 1.392 . S
C3910 C3911 1.385 . S
C3910 C3912 1.478 . S
C3911 H3905 0.930 . S
C3911 C3907 1.400 . S
C3911 C3910 1.385 . S
C3912 C3910 1.478 . S
C3912 C3914 1.381 . S
C3912 C3918 1.383 . S
C3913 C3909 1.495 . S
C3913 H3919 0.959 . S
C3913 H3920 0.961 . S
C3913 H3921 0.960 . S
C3914 C3912 1.381 . S
C3914 C3915 1.394 . S
C3914 H3922 0.930 . S
C3915 C3914 1.394 . S
C3915 C3916 1.383 . S
C3915 H3923 0.929 . S
C3916 C3915 1.383 . S
C3916 C3917 1.377 . S
C3917 H3901 0.930 . S
C3917 C3916 1.377 . S
C3917 C3918 1.379 . S
C3918 H3902 0.931 . S
C3918 C3912 1.383 . S
C3918 C3917 1.379 . S
H3919 C3913 0.959 . S
H3920 C3913 0.961 . S
H3921 C3913 0.960 . S
H3922 C3914 0.930 . S
H3923 C3915 0.929 . S
H3924 C3932 0.929 . S
H3925 C3934 0.930 . S
H3926 C3936 0.930 . S
H3927 C3939 0.929 . S
H3928 C3942 0.930 . S
H3929 C3944 0.960 . S
H3930 C3944 0.960 . S
H3931 C3944 0.960 . S
C3932 H3924 0.929 . S
C3932 C3933 1.377 . S
C3932 C3934 1.384 . S
C3933 C3932 1.377 . S
C3933 C3939 1.390 . S
C3934 H3925 0.930 . S
C3934 C3932 1.384 . S
C3934 C3935 1.372 . S
C3935 C3934 1.372 . S
C3935 C3936 1.400 . S
C3935 C3940 1.490 . S
C3936 H3926 0.930 . S
C3936 C3935 1.400 . S
C3936 C3939 1.386 . S
H3937 C3953 0.930 . S
H3938 C3954 0.931 . S
C3939 H3927 0.929 . S
C3939 C3933 1.390 . S
C3939 C3936 1.386 . S
C3940 C3935 1.490 . S
C3940 C3942 1.395 . S
C3940 C3943 1.403 . S
H3941 C3947 0.930 . S
C3942 H3928 0.930 . S
C3942 C3940 1.395 . S
C3942 C3945 1.403 . S
C3943 C3940 1.403 . S
C3943 C3944 1.524 . S
C3943 C3947 1.400 . S
C3944 H3929 0.960 . S
C3944 H3930 0.960 . S
C3944 H3931 0.960 . S
C3944 C3943 1.524 . S
C3945 C3942 1.403 . S
C3945 C3946 1.392 . S
C3945 C3949 1.495 . S
C3946 C3945 1.392 . S
C3946 C3947 1.385 . S
C3946 C3948 1.478 . S
C3947 H3941 0.930 . S
C3947 C3943 1.400 . S
C3947 C3946 1.385 . S
C3948 C3946 1.478 . S
C3948 C3950 1.381 . S
C3948 C3954 1.383 . S
C3949 C3945 1.495 . S
C3949 H3955 0.959 . S
C3949 H3956 0.961 . S
C3949 H3957 0.960 . S
C3950 C3948 1.381 . S
C3950 C3951 1.394 . S
C3950 H3958 0.930 . S
C3951 C3950 1.394 . S
C3951 C3952 1.383 . S
C3951 H3959 0.929 . S
C3952 C3951 1.383 . S
C3952 C3953 1.377 . S
C3953 H3937 0.930 . S
C3953 C3952 1.377 . S
C3953 C3954 1.379 . S
C3954 H3938 0.931 . S
C3954 C3948 1.383 . S
C3954 C3953 1.379 . S
H3955 C3949 0.959 . S
H3956 C3949 0.961 . S
H3957 C3949 0.960 . S
H3958 C3950 0.930 . S
H3959 C3951 0.929 . S
H3960 C3968 0.929 . S
H3961 C3970 0.930 . S
H3962 C3972 0.930 . S
H3963 C3975 0.929 . S
H3964 C3978 0.930 . S
H3965 C3980 0.960 . S
H3966 C3980 0.960 . S
H3967 C3980 0.960 . S
C3968 H3960 0.929 . S
C3968 C3969 1.377 . S
C3968 C3970 1.384 . S
C3969 C3968 1.377 . S
C3969 C3975 1.390 . S
C3970 H3961 0.930 . S
C3970 C3968 1.384 . S
C3970 C3971 1.372 . S
C3971 C3970 1.372 . S
C3971 C3972 1.400 . S
C3971 C3976 1.490 . S
C3972 H3962 0.930 . S
C3972 C3971 1.400 . S
C3972 C3975 1.386 . S
H3973 C3989 0.930 . S
H3974 C3990 0.931 . S
C3975 H3963 0.929 . S
C3975 C3969 1.390 . S
C3975 C3972 1.386 . S
C3976 C3971 1.490 . S
C3976 C3978 1.395 . S
C3976 C3979 1.403 . S
H3977 C3983 0.930 . S
C3978 H3964 0.930 . S
C3978 C3976 1.395 . S
C3978 C3981 1.403 . S
C3979 C3976 1.403 . S
C3979 C3980 1.524 . S
C3979 C3983 1.400 . S
C3980 H3965 0.960 . S
C3980 H3966 0.960 . S
C3980 H3967 0.960 . S
C3980 C3979 1.524 . S
C3981 C3978 1.403 . S
C3981 C3982 1.392 . S
C3981 C3985 1.495 . S
C3982 C3981 1.392 . S
C3982 C3983 1.385 . S
C3982 C3984 1.478 . S
C3983 H3977 0.930 . S
C3983 C3979 1.400 . S
C3983 C3982 1.385 . S
C3984 C3982 1.478 . S
C3984 C3986 1.381 . S
C3984 C3990 1.383 . S
C3985 C3981 1.495 . S
C3985 H3991 0.959 . S
C3985 H3992 0.961 . S
C3985 H3993 0.960 . S
C3986 C3984 1.381 . S
C3986 C3987 1.394 . S
C3986 H3994 0.930 . S
C3987 C3986 1.394 . S
C3987 C3988 1.383 . S
C3987 H3995 0.929 . S
C3988 C3987 1.383 . S
C3988 C3989 1.377 . S
C3989 H3973 0.930 . S
C3989 C3988 1.377 . S
C3989 C3990 1.379 . S
C3990 H3974 0.931 . S
C3990 C3984 1.383 . S
C3990 C3989 1.379 . S
H3991 C3985 0.959 . S
H3992 C3985 0.961 . S
H3993 C3985 0.960 . S
H3994 C3986 0.930 . S
H3995 C3987 0.929 . S
H3996 C4004 0.929 . S
H3997 C4006 0.930 . S
H3998 C4008 0.930 . S
H3999 C4011 0.929 . S
H4000 C4014 0.930 . S
H4001 C4016 0.960 . S
H4002 C4016 0.960 . S
H4003 C4016 0.960 . S
C4004 H3996 0.929 . S
C4004 C4005 1.377 . S
C4004 C4006 1.384 . S
C4005 C4004 1.377 . S
C4005 C4011 1.390 . S
C4006 H3997 0.930 . S
C4006 C4004 1.384 . S
C4006 C4007 1.372 . S
C4007 C4006 1.372 . S
C4007 C4008 1.400 . S
C4007 C4012 1.490 . S
C4008 H3998 0.930 . S
C4008 C4007 1.400 . S
C4008 C4011 1.386 . S
H4009 C4025 0.930 . S
H4010 C4026 0.931 . S
C4011 H3999 0.929 . S
C4011 C4005 1.390 . S
C4011 C4008 1.386 . S
C4012 C4007 1.490 . S
C4012 C4014 1.395 . S
C4012 C4015 1.403 . S
H4013 C4019 0.930 . S
C4014 H4000 0.930 . S
C4014 C4012 1.395 . S
C4014 C4017 1.403 . S
C4015 C4012 1.403 . S
C4015 C4016 1.524 . S
C4015 C4019 1.400 . S
C4016 H4001 0.960 . S
C4016 H4002 0.960 . S
C4016 H4003 0.960 . S
C4016 C4015 1.524 . S
C4017 C4014 1.403 . S
C4017 C4018 1.392 . S
C4017 C4021 1.495 . S
C4018 C4017 1.392 . S
C4018 C4019 1.385 . S
C4018 C4020 1.478 . S
C4019 H4013 0.930 . S
C4019 C4015 1.400 . S
C4019 C4018 1.385 . S
C4020 C4018 1.478 . S
C4020 C4022 1.381 . S
C4020 C4026 1.383 . S
C4021 C4017 1.495 . S
C4021 H4027 0.959 . S
C4021 H4028 0.961 . S
C4021 H4029 0.960 . S
C4022 C4020 1.381 . S
C4022 C4023 1.394 . S
C4022 H4030 0.930 . S
C4023 C4022 1.394 . S
C4023 C4024 1.383 . S
C4023 H4031 0.929 . S
C4024 C4023 1.383 . S
C4024 C4025 1.377 . S
C4025 H4009 0.930 . S
C4025 C4024 1.377 . S
C4025 C4026 1.379 . S
C4026 H4010 0.931 . S
C4026 C4020 1.383 . S
C4026 C4025 1.379 . S
H4027 C4021 0.959 . S
H4028 C4021 0.961 . S
H4029 C4021 0.960 . S
H4030 C4022 0.930 . S
H4031 C4023 0.929 . S
H4032 C4040 0.929 . S
H4033 C4042 0.930 . S
H4034 C4044 0.930 . S
H4035 C4047 0.929 . S
H4036 C4050 0.930 . S
H4037 C4052 0.960 . S
H4038 C4052 0.960 . S
H4039 C4052 0.960 . S
C4040 H4032 0.929 . S
C4040 C4041 1.377 . S
C4040 C4042 1.384 . S
C4041 C4040 1.377 . S
C4041 C4047 1.390 . S
C4042 H4033 0.930 . S
C4042 C4040 1.384 . S
C4042 C4043 1.372 . S
C4043 C4042 1.372 . S
C4043 C4044 1.400 . S
C4043 C4048 1.490 . S
C4044 H4034 0.930 . S
C4044 C4043 1.400 . S
C4044 C4047 1.386 . S
H4045 C4061 0.930 . S
H4046 C4062 0.931 . S
C4047 H4035 0.929 . S
C4047 C4041 1.390 . S
C4047 C4044 1.386 . S
C4048 C4043 1.490 . S
C4048 C4050 1.395 . S
C4048 C4051 1.403 . S
H4049 C4055 0.930 . S
C4050 H4036 0.930 . S
C4050 C4048 1.395 . S
C4050 C4053 1.403 . S
C4051 C4048 1.403 . S
C4051 C4052 1.524 . S
C4051 C4055 1.400 . S
C4052 H4037 0.960 . S
C4052 H4038 0.960 . S
C4052 H4039 0.960 . S
C4052 C4051 1.524 . S
C4053 C4050 1.403 . S
C4053 C4054 1.392 . S
C4053 C4057 1.495 . S
C4054 C4053 1.392 . S
C4054 C4055 1.385 . S
C4054 C4056 1.478 . S
C4055 H4049 0.930 . S
C4055 C4051 1.400 . S
C4055 C4054 1.385 . S
C4056 C4054 1.478 . S
C4056 C4058 1.381 . S
C4056 C4062 1.383 . S
C4057 C4053 1.495 . S
C4057 H4063 0.959 . S
C4057 H4064 0.961 . S
C4057 H4065 0.960 . S
C4058 C4056 1.381 . S
C4058 C4059 1.394 . S
C4058 H4066 0.930 . S
C4059 C4058 1.394 . S
C4059 C4060 1.383 . S
C4059 H4067 0.929 . S
C4060 C4059 1.383 . S
C4060 C4061 1.377 . S
C4061 H4045 0.930 . S
C4061 C4060 1.377 . S
C4061 C4062 1.379 . S
C4062 H4046 0.931 . S
C4062 C4056 1.383 . S
C4062 C4061 1.379 . S
H4063 C4057 0.959 . S
H4064 C4057 0.961 . S
H4065 C4057 0.960 . S
H4066 C4058 0.930 . S
H4067 C4059 0.929 . S
H4068 C4076 0.929 . S
H4069 C4078 0.930 . S
H4070 C4080 0.930 . S
H4071 C4083 0.929 . S
H4072 C4086 0.930 . S
H4073 C4088 0.960 . S
H4074 C4088 0.960 . S
H4075 C4088 0.960 . S
C4076 H4068 0.929 . S
C4076 C4077 1.377 . S
C4076 C4078 1.384 . S
C4077 C4076 1.377 . S
C4077 C4083 1.390 . S
C4078 H4069 0.930 . S
C4078 C4076 1.384 . S
C4078 C4079 1.372 . S
C4079 C4078 1.372 . S
C4079 C4080 1.400 . S
C4079 C4084 1.490 . S
C4080 H4070 0.930 . S
C4080 C4079 1.400 . S
C4080 C4083 1.386 . S
H4081 C4097 0.930 . S
H4082 C4098 0.931 . S
C4083 H4071 0.929 . S
C4083 C4077 1.390 . S
C4083 C4080 1.386 . S
C4084 C4079 1.490 . S
C4084 C4086 1.395 . S
C4084 C4087 1.403 . S
H4085 C4091 0.930 . S
C4086 H4072 0.930 . S
C4086 C4084 1.395 . S
C4086 C4089 1.403 . S
C4087 C4084 1.403 . S
C4087 C4088 1.524 . S
C4087 C4091 1.400 . S
C4088 H4073 0.960 . S
C4088 H4074 0.960 . S
C4088 H4075 0.960 . S
C4088 C4087 1.524 . S
C4089 C4086 1.403 . S
C4089 C4090 1.392 . S
C4089 C4093 1.495 . S
C4090 C4089 1.392 . S
C4090 C4091 1.385 . S
C4090 C4092 1.478 . S
C4091 H4085 0.930 . S
C4091 C4087 1.400 . S
C4091 C4090 1.385 . S
C4092 C4090 1.478 . S
C4092 C4094 1.381 . S
C4092 C4098 1.383 . S
C4093 C4089 1.495 . S
C4093 H4099 0.959 . S
C4093 H4100 0.961 . S
C4093 H4101 0.960 . S
C4094 C4092 1.381 . S
C4094 C4095 1.394 . S
C4094 H4102 0.930 . S
C4095 C4094 1.394 . S
C4095 C4096 1.383 . S
C4095 H4103 0.929 . S
C4096 C4095 1.383 . S
C4096 C4097 1.377 . S
C4097 H4081 0.930 . S
C4097 C4096 1.377 . S
C4097 C4098 1.379 . S
C4098 H4082 0.931 . S
C4098 C4092 1.383 . S
C4098 C4097 1.379 . S
H4099 C4093 0.959 . S
H4100 C4093 0.961 . S
H4101 C4093 0.960 . S
H4102 C4094 0.930 . S
H4103 C4095 0.929 . S
H4104 C4112 0.929 . S
H4105 C4114 0.930 . S
H4106 C4116 0.930 . S
H4107 C4119 0.929 . S
H4108 C4122 0.930 . S
H4109 C4124 0.960 . S
H4110 C4124 0.960 . S
H4111 C4124 0.960 . S
C4112 H4104 0.929 . S
C4112 C4113 1.377 . S
C4112 C4114 1.384 . S
C4113 C4112 1.377 . S
C4113 C4119 1.390 . S
C4114 H4105 0.930 . S
C4114 C4112 1.384 . S
C4114 C4115 1.372 . S
C4115 C4114 1.372 . S
C4115 C4116 1.400 . S
C4115 C4120 1.490 . S
C4116 H4106 0.930 . S
C4116 C4115 1.400 . S
C4116 C4119 1.386 . S
H4117 C4133 0.930 . S
H4118 C4134 0.931 . S
C4119 H4107 0.929 . S
C4119 C4113 1.390 . S
C4119 C4116 1.386 . S
C4120 C4115 1.490 . S
C4120 C4122 1.395 . S
C4120 C4123 1.403 . S
H4121 C4127 0.930 . S
C4122 H4108 0.930 . S
C4122 C4120 1.395 . S
C4122 C4125 1.403 . S
C4123 C4120 1.403 . S
C4123 C4124 1.524 . S
C4123 C4127 1.400 . S
C4124 H4109 0.960 . S
C4124 H4110 0.960 . S
C4124 H4111 0.960 . S
C4124 C4123 1.524 . S
C4125 C4122 1.403 . S
C4125 C4126 1.392 . S
C4125 C4129 1.495 . S
C4126 C4125 1.392 . S
C4126 C4127 1.385 . S
C4126 C4128 1.478 . S
C4127 H4121 0.930 . S
C4127 C4123 1.400 . S
C4127 C4126 1.385 . S
C4128 C4126 1.478 . S
C4128 C4130 1.381 . S
C4128 C4134 1.383 . S
C4129 C4125 1.495 . S
C4129 H4135 0.959 . S
C4129 H4136 0.961 . S
C4129 H4137 0.960 . S
C4130 C4128 1.381 . S
C4130 C4131 1.394 . S
C4130 H4138 0.930 . S
C4131 C4130 1.394 . S
C4131 C4132 1.383 . S
C4131 H4139 0.929 . S
C4132 C4131 1.383 . S
C4132 C4133 1.377 . S
C4133 H4117 0.930 . S
C4133 C4132 1.377 . S
C4133 C4134 1.379 . S
C4134 H4118 0.931 . S
C4134 C4128 1.383 . S
C4134 C4133 1.379 . S
H4135 C4129 0.959 . S
H4136 C4129 0.961 . S
H4137 C4129 0.960 . S
H4138 C4130 0.930 . S
H4139 C4131 0.929 . S
H4140 C4148 0.929 . S
H4141 C4150 0.930 . S
H4142 C4152 0.930 . S
H4143 C4155 0.929 . S
H4144 C4158 0.930 . S
H4145 C4160 0.960 . S
H4146 C4160 0.960 . S
H4147 C4160 0.960 . S
C4148 H4140 0.929 . S
C4148 C4149 1.377 . S
C4148 C4150 1.384 . S
C4149 C4148 1.377 . S
C4149 C4155 1.390 . S
C4150 H4141 0.930 . S
C4150 C4148 1.384 . S
C4150 C4151 1.372 . S
C4151 C4150 1.372 . S
C4151 C4152 1.400 . S
C4151 C4156 1.490 . S
C4152 H4142 0.930 . S
C4152 C4151 1.400 . S
C4152 C4155 1.386 . S
H4153 C4169 0.930 . S
H4154 C4170 0.931 . S
C4155 H4143 0.929 . S
C4155 C4149 1.390 . S
C4155 C4152 1.386 . S
C4156 C4151 1.490 . S
C4156 C4158 1.395 . S
C4156 C4159 1.403 . S
H4157 C4163 0.930 . S
C4158 H4144 0.930 . S
C4158 C4156 1.395 . S
C4158 C4161 1.403 . S
C4159 C4156 1.403 . S
C4159 C4160 1.524 . S
C4159 C4163 1.400 . S
C4160 H4145 0.960 . S
C4160 H4146 0.960 . S
C4160 H4147 0.960 . S
C4160 C4159 1.524 . S
C4161 C4158 1.403 . S
C4161 C4162 1.392 . S
C4161 C4165 1.495 . S
C4162 C4161 1.392 . S
C4162 C4163 1.385 . S
C4162 C4164 1.478 . S
C4163 H4157 0.930 . S
C4163 C4159 1.400 . S
C4163 C4162 1.385 . S
C4164 C4162 1.478 . S
C4164 C4166 1.381 . S
C4164 C4170 1.383 . S
C4165 C4161 1.495 . S
C4165 H4171 0.959 . S
C4165 H4172 0.961 . S
C4165 H4173 0.960 . S
C4166 C4164 1.381 . S
C4166 C4167 1.394 . S
C4166 H4174 0.930 . S
C4167 C4166 1.394 . S
C4167 C4168 1.383 . S
C4167 H4175 0.929 . S
C4168 C4167 1.383 . S
C4168 C4169 1.377 . S
C4169 H4153 0.930 . S
C4169 C4168 1.377 . S
C4169 C4170 1.379 . S
C4170 H4154 0.931 . S
C4170 C4164 1.383 . S
C4170 C4169 1.379 . S
H4171 C4165 0.959 . S
H4172 C4165 0.961 . S
H4173 C4165 0.960 . S
H4174 C4166 0.930 . S
H4175 C4167 0.929 . S
H4176 C4184 0.929 . S
H4177 C4186 0.930 . S
H4178 C4188 0.930 . S
H4179 C4191 0.929 . S
H4180 C4194 0.930 . S
H4181 C4196 0.960 . S
H4182 C4196 0.960 . S
H4183 C4196 0.960 . S
C4184 H4176 0.929 . S
C4184 C4185 1.377 . S
C4184 C4186 1.384 . S
C4185 C4184 1.377 . S
C4185 C4191 1.390 . S
C4186 H4177 0.930 . S
C4186 C4184 1.384 . S
C4186 C4187 1.372 . S
C4187 C4186 1.372 . S
C4187 C4188 1.400 . S
C4187 C4192 1.490 . S
C4188 H4178 0.930 . S
C4188 C4187 1.400 . S
C4188 C4191 1.386 . S
H4189 C4205 0.930 . S
H4190 C4206 0.931 . S
C4191 H4179 0.929 . S
C4191 C4185 1.390 . S
C4191 C4188 1.386 . S
C4192 C4187 1.490 . S
C4192 C4194 1.395 . S
C4192 C4195 1.403 . S
H4193 C4199 0.930 . S
C4194 H4180 0.930 . S
C4194 C4192 1.395 . S
C4194 C4197 1.403 . S
C4195 C4192 1.403 . S
C4195 C4196 1.524 . S
C4195 C4199 1.400 . S
C4196 H4181 0.960 . S
C4196 H4182 0.960 . S
C4196 H4183 0.960 . S
C4196 C4195 1.524 . S
C4197 C4194 1.403 . S
C4197 C4198 1.392 . S
C4197 C4201 1.495 . S
C4198 C4197 1.392 . S
C4198 C4199 1.385 . S
C4198 C4200 1.478 . S
C4199 H4193 0.930 . S
C4199 C4195 1.400 . S
C4199 C4198 1.385 . S
C4200 C4198 1.478 . S
C4200 C4202 1.381 . S
C4200 C4206 1.383 . S
C4201 C4197 1.495 . S
C4201 H4207 0.959 . S
C4201 H4208 0.961 . S
C4201 H4209 0.960 . S
C4202 C4200 1.381 . S
C4202 C4203 1.394 . S
C4202 H4210 0.930 . S
C4203 C4202 1.394 . S
C4203 C4204 1.383 . S
C4203 H4211 0.929 . S
C4204 C4203 1.383 . S
C4204 C4205 1.377 . S
C4205 H4189 0.930 . S
C4205 C4204 1.377 . S
C4205 C4206 1.379 . S
C4206 H4190 0.931 . S
C4206 C4200 1.383 . S
C4206 C4205 1.379 . S
H4207 C4201 0.959 . S
H4208 C4201 0.961 . S
H4209 C4201 0.960 . S
H4210 C4202 0.930 . S
H4211 C4203 0.929 . S
H4212 C4220 0.929 . S
H4213 C4222 0.930 . S
H4214 C4224 0.930 . S
H4215 C4227 0.929 . S
H4216 C4230 0.930 . S
H4217 C4232 0.960 . S
H4218 C4232 0.960 . S
H4219 C4232 0.960 . S
C4220 H4212 0.929 . S
C4220 C4221 1.377 . S
C4220 C4222 1.384 . S
C4221 C4220 1.377 . S
C4221 C4227 1.390 . S
C4222 H4213 0.930 . S
C4222 C4220 1.384 . S
C4222 C4223 1.372 . S
C4223 C4222 1.372 . S
C4223 C4224 1.400 . S
C4223 C4228 1.490 . S
C4224 H4214 0.930 . S
C4224 C4223 1.400 . S
C4224 C4227 1.386 . S
H4225 C4241 0.930 . S
H4226 C4242 0.931 . S
C4227 H4215 0.929 . S
C4227 C4221 1.390 . S
C4227 C4224 1.386 . S
C4228 C4223 1.490 . S
C4228 C4230 1.395 . S
C4228 C4231 1.403 . S
H4229 C4235 0.930 . S
C4230 H4216 0.930 . S
C4230 C4228 1.395 . S
C4230 C4233 1.403 . S
C4231 C4228 1.403 . S
C4231 C4232 1.524 . S
C4231 C4235 1.400 . S
C4232 H4217 0.960 . S
C4232 H4218 0.960 . S
C4232 H4219 0.960 . S
C4232 C4231 1.524 . S
C4233 C4230 1.403 . S
C4233 C4234 1.392 . S
C4233 C4237 1.495 . S
C4234 C4233 1.392 . S
C4234 C4235 1.385 . S
C4234 C4236 1.478 . S
C4235 H4229 0.930 . S
C4235 C4231 1.400 . S
C4235 C4234 1.385 . S
C4236 C4234 1.478 . S
C4236 C4238 1.381 . S
C4236 C4242 1.383 . S
C4237 C4233 1.495 . S
C4237 H4243 0.959 . S
C4237 H4244 0.961 . S
C4237 H4245 0.960 . S
C4238 C4236 1.381 . S
C4238 C4239 1.394 . S
C4238 H4246 0.930 . S
C4239 C4238 1.394 . S
C4239 C4240 1.383 . S
C4239 H4247 0.929 . S
C4240 C4239 1.383 . S
C4240 C4241 1.377 . S
C4241 H4225 0.930 . S
C4241 C4240 1.377 . S
C4241 C4242 1.379 . S
C4242 H4226 0.931 . S
C4242 C4236 1.383 . S
C4242 C4241 1.379 . S
H4243 C4237 0.959 . S
H4244 C4237 0.961 . S
H4245 C4237 0.960 . S
H4246 C4238 0.930 . S
H4247 C4239 0.929 . S
H4248 C4256 0.929 . S
H4249 C4258 0.930 . S
H4250 C4260 0.930 . S
H4251 C4263 0.929 . S
H4252 C4266 0.930 . S
H4253 C4268 0.960 . S
H4254 C4268 0.960 . S
H4255 C4268 0.960 . S
C4256 H4248 0.929 . S
C4256 C4257 1.377 . S
C4256 C4258 1.384 . S
C4257 C4256 1.377 . S
C4257 C4263 1.390 . S
C4258 H4249 0.930 . S
C4258 C4256 1.384 . S
C4258 C4259 1.372 . S
C4259 C4258 1.372 . S
C4259 C4260 1.400 . S
C4259 C4264 1.490 . S
C4260 H4250 0.930 . S
C4260 C4259 1.400 . S
C4260 C4263 1.386 . S
H4261 C4277 0.930 . S
H4262 C4278 0.931 . S
C4263 H4251 0.929 . S
C4263 C4257 1.390 . S
C4263 C4260 1.386 . S
C4264 C4259 1.490 . S
C4264 C4266 1.395 . S
C4264 C4267 1.403 . S
H4265 C4271 0.930 . S
C4266 H4252 0.930 . S
C4266 C4264 1.395 . S
C4266 C4269 1.403 . S
C4267 C4264 1.403 . S
C4267 C4268 1.524 . S
C4267 C4271 1.400 . S
C4268 H4253 0.960 . S
C4268 H4254 0.960 . S
C4268 H4255 0.960 . S
C4268 C4267 1.524 . S
C4269 C4266 1.403 . S
C4269 C4270 1.392 . S
C4269 C4273 1.495 . S
C4270 C4269 1.392 . S
C4270 C4271 1.385 . S
C4270 C4272 1.478 . S
C4271 H4265 0.930 . S
C4271 C4267 1.400 . S
C4271 C4270 1.385 . S
C4272 C4270 1.478 . S
C4272 C4274 1.381 . S
C4272 C4278 1.383 . S
C4273 C4269 1.495 . S
C4273 H4279 0.959 . S
C4273 H4280 0.961 . S
C4273 H4281 0.960 . S
C4274 C4272 1.381 . S
C4274 C4275 1.394 . S
C4274 H4282 0.930 . S
C4275 C4274 1.394 . S
C4275 C4276 1.383 . S
C4275 H4283 0.929 . S
C4276 C4275 1.383 . S
C4276 C4277 1.377 . S
C4277 H4261 0.930 . S
C4277 C4276 1.377 . S
C4277 C4278 1.379 . S
C4278 H4262 0.931 . S
C4278 C4272 1.383 . S
C4278 C4277 1.379 . S
H4279 C4273 0.959 . S
H4280 C4273 0.961 . S
H4281 C4273 0.960 . S
H4282 C4274 0.930 . S
H4283 C4275 0.929 . S
H4284 C4292 0.929 . S
H4285 C4294 0.930 . S
H4286 C4296 0.930 . S
H4287 C4299 0.929 . S
H4288 C4302 0.930 . S
H4289 C4304 0.960 . S
H4290 C4304 0.960 . S
H4291 C4304 0.960 . S
C4292 H4284 0.929 . S
C4292 C4293 1.377 . S
C4292 C4294 1.384 . S
C4293 C4292 1.377 . S
C4293 C4299 1.390 . S
C4294 H4285 0.930 . S
C4294 C4292 1.384 . S
C4294 C4295 1.372 . S
C4295 C4294 1.372 . S
C4295 C4296 1.400 . S
C4295 C4300 1.490 . S
C4296 H4286 0.930 . S
C4296 C4295 1.400 . S
C4296 C4299 1.386 . S
H4297 C4313 0.930 . S
H4298 C4314 0.931 . S
C4299 H4287 0.929 . S
C4299 C4293 1.390 . S
C4299 C4296 1.386 . S
C4300 C4295 1.490 . S
C4300 C4302 1.395 . S
C4300 C4303 1.403 . S
H4301 C4307 0.930 . S
C4302 H4288 0.930 . S
C4302 C4300 1.395 . S
C4302 C4305 1.403 . S
C4303 C4300 1.403 . S
C4303 C4304 1.524 . S
C4303 C4307 1.400 . S
C4304 H4289 0.960 . S
C4304 H4290 0.960 . S
C4304 H4291 0.960 . S
C4304 C4303 1.524 . S
C4305 C4302 1.403 . S
C4305 C4306 1.392 . S
C4305 C4309 1.495 . S
C4306 C4305 1.392 . S
C4306 C4307 1.385 . S
C4306 C4308 1.478 . S
C4307 H4301 0.930 . S
C4307 C4303 1.400 . S
C4307 C4306 1.385 . S
C4308 C4306 1.478 . S
C4308 C4310 1.381 . S
C4308 C4314 1.383 . S
C4309 C4305 1.495 . S
C4309 H4315 0.959 . S
C4309 H4316 0.961 . S
C4309 H4317 0.960 . S
C4310 C4308 1.381 . S
C4310 C4311 1.394 . S
C4310 H4318 0.930 . S
C4311 C4310 1.394 . S
C4311 C4312 1.383 . S
C4311 H4319 0.929 . S
C4312 C4311 1.383 . S
C4312 C4313 1.377 . S
C4313 H4297 0.930 . S
C4313 C4312 1.377 . S
C4313 C4314 1.379 . S
C4314 H4298 0.931 . S
C4314 C4308 1.383 . S
C4314 C4313 1.379 . S
H4315 C4309 0.959 . S
H4316 C4309 0.961 . S
H4317 C4309 0.960 . S
H4318 C4310 0.930 . S
H4319 C4311 0.929 . S
H4320 C4328 0.929 . S
H4321 C4330 0.930 . S
H4322 C4332 0.930 . S
H4323 C4335 0.929 . S
H4324 C4338 0.930 . S
H4325 C4340 0.960 . S
H4326 C4340 0.960 . S
H4327 C4340 0.960 . S
C4328 H4320 0.929 . S
C4328 C4329 1.377 . S
C4328 C4330 1.384 . S
C4329 C4328 1.377 . S
C4329 C4335 1.390 . S
C4330 H4321 0.930 . S
C4330 C4328 1.384 . S
C4330 C4331 1.372 . S
C4331 C4330 1.372 . S
C4331 C4332 1.400 . S
C4331 C4336 1.490 . S
C4332 H4322 0.930 . S
C4332 C4331 1.400 . S
C4332 C4335 1.386 . S
H4333 C4349 0.930 . S
H4334 C4350 0.931 . S
C4335 H4323 0.929 . S
C4335 C4329 1.390 . S
C4335 C4332 1.386 . S
C4336 C4331 1.490 . S
C4336 C4338 1.395 . S
C4336 C4339 1.403 . S
H4337 C4343 0.930 . S
C4338 H4324 0.930 . S
C4338 C4336 1.395 . S
C4338 C4341 1.403 . S
C4339 C4336 1.403 . S
C4339 C4340 1.524 . S
C4339 C4343 1.400 . S
C4340 H4325 0.960 . S
C4340 H4326 0.960 . S
C4340 H4327 0.960 . S
C4340 C4339 1.524 . S
C4341 C4338 1.403 . S
C4341 C4342 1.392 . S
C4341 C4345 1.495 . S
C4342 C4341 1.392 . S
C4342 C4343 1.385 . S
C4342 C4344 1.478 . S
C4343 H4337 0.930 . S
C4343 C4339 1.400 . S
C4343 C4342 1.385 . S
C4344 C4342 1.478 . S
C4344 C4346 1.381 . S
C4344 C4350 1.383 . S
C4345 C4341 1.495 . S
C4345 H4351 0.959 . S
C4345 H4352 0.961 . S
C4345 H4353 0.960 . S
C4346 C4344 1.381 . S
C4346 C4347 1.394 . S
C4346 H4354 0.930 . S
C4347 C4346 1.394 . S
C4347 C4348 1.383 . S
C4347 H4355 0.929 . S
C4348 C4347 1.383 . S
C4348 C4349 1.377 . S
C4349 H4333 0.930 . S
C4349 C4348 1.377 . S
C4349 C4350 1.379 . S
C4350 H4334 0.931 . S
C4350 C4344 1.383 . S
C4350 C4349 1.379 . S
H4351 C4345 0.959 . S
H4352 C4345 0.961 . S
H4353 C4345 0.960 . S
H4354 C4346 0.930 . S
H4355 C4347 0.929 . S
H4356 C4364 0.929 . S
H4357 C4366 0.930 . S
H4358 C4368 0.930 . S
H4359 C4371 0.929 . S
H4360 C4374 0.930 . S
H4361 C4376 0.960 . S
H4362 C4376 0.960 . S
H4363 C4376 0.960 . S
C4364 H4356 0.929 . S
C4364 C4365 1.377 . S
C4364 C4366 1.384 . S
C4365 C4364 1.377 . S
C4365 C4371 1.390 . S
C4366 H4357 0.930 . S
C4366 C4364 1.384 . S
C4366 C4367 1.372 . S
C4367 C4366 1.372 . S
C4367 C4368 1.400 . S
C4367 C4372 1.490 . S
C4368 H4358 0.930 . S
C4368 C4367 1.400 . S
C4368 C4371 1.386 . S
H4369 C4385 0.930 . S
H4370 C4386 0.931 . S
C4371 H4359 0.929 . S
C4371 C4365 1.390 . S
C4371 C4368 1.386 . S
C4372 C4367 1.490 . S
C4372 C4374 1.395 . S
C4372 C4375 1.403 . S
H4373 C4379 0.930 . S
C4374 H4360 0.930 . S
C4374 C4372 1.395 . S
C4374 C4377 1.403 . S
C4375 C4372 1.403 . S
C4375 C4376 1.524 . S
C4375 C4379 1.400 . S
C4376 H4361 0.960 . S
C4376 H4362 0.960 . S
C4376 H4363 0.960 . S
C4376 C4375 1.524 . S
C4377 C4374 1.403 . S
C4377 C4378 1.392 . S
C4377 C4381 1.495 . S
C4378 C4377 1.392 . S
C4378 C4379 1.385 . S
C4378 C4380 1.478 . S
C4379 H4373 0.930 . S
C4379 C4375 1.400 . S
C4379 C4378 1.385 . S
C4380 C4378 1.478 . S
C4380 C4382 1.381 . S
C4380 C4386 1.383 . S
C4381 C4377 1.495 . S
C4381 H4387 0.959 . S
C4381 H4388 0.961 . S
C4381 H4389 0.960 . S
C4382 C4380 1.381 . S
C4382 C4383 1.394 . S
C4382 H4390 0.930 . S
C4383 C4382 1.394 . S
C4383 C4384 1.383 . S
C4383 H4391 0.929 . S
C4384 C4383 1.383 . S
C4384 C4385 1.377 . S
C4385 H4369 0.930 . S
C4385 C4384 1.377 . S
C4385 C4386 1.379 . S
C4386 H4370 0.931 . S
C4386 C4380 1.383 . S
C4386 C4385 1.379 . S
H4387 C4381 0.959 . S
H4388 C4381 0.961 . S
H4389 C4381 0.960 . S
H4390 C4382 0.930 . S
H4391 C4383 0.929 . S
H4392 C4400 0.929 . S
H4393 C4402 0.930 . S
H4394 C4404 0.930 . S
H4395 C4407 0.929 . S
H4396 C4410 0.930 . S
H4397 C4412 0.960 . S
H4398 C4412 0.960 . S
H4399 C4412 0.960 . S
C4400 H4392 0.929 . S
C4400 C4401 1.377 . S
C4400 C4402 1.384 . S
C4401 C4400 1.377 . S
C4401 C4407 1.390 . S
C4402 H4393 0.930 . S
C4402 C4400 1.384 . S
C4402 C4403 1.372 . S
C4403 C4402 1.372 . S
C4403 C4404 1.400 . S
C4403 C4408 1.490 . S
C4404 H4394 0.930 . S
C4404 C4403 1.400 . S
C4404 C4407 1.386 . S
H4405 C4421 0.930 . S
H4406 C4422 0.931 . S
C4407 H4395 0.929 . S
C4407 C4401 1.390 . S
C4407 C4404 1.386 . S
C4408 C4403 1.490 . S
C4408 C4410 1.395 . S
C4408 C4411 1.403 . S
H4409 C4415 0.930 . S
C4410 H4396 0.930 . S
C4410 C4408 1.395 . S
C4410 C4413 1.403 . S
C4411 C4408 1.403 . S
C4411 C4412 1.524 . S
C4411 C4415 1.400 . S
C4412 H4397 0.960 . S
C4412 H4398 0.960 . S
C4412 H4399 0.960 . S
C4412 C4411 1.524 . S
C4413 C4410 1.403 . S
C4413 C4414 1.392 . S
C4413 C4417 1.495 . S
C4414 C4413 1.392 . S
C4414 C4415 1.385 . S
C4414 C4416 1.478 . S
C4415 H4409 0.930 . S
C4415 C4411 1.400 . S
C4415 C4414 1.385 . S
C4416 C4414 1.478 . S
C4416 C4418 1.381 . S
C4416 C4422 1.383 . S
C4417 C4413 1.495 . S
C4417 H4423 0.959 . S
C4417 H4424 0.961 . S
C4417 H4425 0.960 . S
C4418 C4416 1.381 . S
C4418 C4419 1.394 . S
C4418 H4426 0.930 . S
C4419 C4418 1.394 . S
C4419 C4420 1.383 . S
C4419 H4427 0.929 . S
C4420 C4419 1.383 . S
C4420 C4421 1.377 . S
C4421 H4405 0.930 . S
C4421 C4420 1.377 . S
C4421 C4422 1.379 . S
C4422 H4406 0.931 . S
C4422 C4416 1.383 . S
C4422 C4421 1.379 . S
H4423 C4417 0.959 . S
H4424 C4417 0.961 . S
H4425 C4417 0.960 . S
H4426 C4418 0.930 . S
H4427 C4419 0.929 . S
H4428 C4436 0.929 . S
H4429 C4438 0.930 . S
H4430 C4440 0.930 . S
H4431 C4443 0.929 . S
H4432 C4446 0.930 . S
H4433 C4448 0.960 . S
H4434 C4448 0.960 . S
H4435 C4448 0.960 . S
C4436 H4428 0.929 . S
C4436 C4437 1.377 . S
C4436 C4438 1.384 . S
C4437 C4436 1.377 . S
C4437 C4443 1.390 . S
C4438 H4429 0.930 . S
C4438 C4436 1.384 . S
C4438 C4439 1.372 . S
C4439 C4438 1.372 . S
C4439 C4440 1.400 . S
C4439 C4444 1.490 . S
C4440 H4430 0.930 . S
C4440 C4439 1.400 . S
C4440 C4443 1.386 . S
H4441 C4457 0.930 . S
H4442 C4458 0.931 . S
C4443 H4431 0.929 . S
C4443 C4437 1.390 . S
C4443 C4440 1.386 . S
C4444 C4439 1.490 . S
C4444 C4446 1.395 . S
C4444 C4447 1.403 . S
H4445 C4451 0.930 . S
C4446 H4432 0.930 . S
C4446 C4444 1.395 . S
C4446 C4449 1.403 . S
C4447 C4444 1.403 . S
C4447 C4448 1.524 . S
C4447 C4451 1.400 . S
C4448 H4433 0.960 . S
C4448 H4434 0.960 . S
C4448 H4435 0.960 . S
C4448 C4447 1.524 . S
C4449 C4446 1.403 . S
C4449 C4450 1.392 . S
C4449 C4453 1.495 . S
C4450 C4449 1.392 . S
C4450 C4451 1.385 . S
C4450 C4452 1.478 . S
C4451 H4445 0.930 . S
C4451 C4447 1.400 . S
C4451 C4450 1.385 . S
C4452 C4450 1.478 . S
C4452 C4454 1.381 . S
C4452 C4458 1.383 . S
C4453 C4449 1.495 . S
C4453 H4459 0.959 . S
C4453 H4460 0.961 . S
C4453 H4461 0.960 . S
C4454 C4452 1.381 . S
C4454 C4455 1.394 . S
C4454 H4462 0.930 . S
C4455 C4454 1.394 . S
C4455 C4456 1.383 . S
C4455 H4463 0.929 . S
C4456 C4455 1.383 . S
C4456 C4457 1.377 . S
C4457 H4441 0.930 . S
C4457 C4456 1.377 . S
C4457 C4458 1.379 . S
C4458 H4442 0.931 . S
C4458 C4452 1.383 . S
C4458 C4457 1.379 . S
H4459 C4453 0.959 . S
H4460 C4453 0.961 . S
H4461 C4453 0.960 . S
H4462 C4454 0.930 . S
H4463 C4455 0.929 . S
H4464 C4472 0.929 . S
H4465 C4474 0.930 . S
H4466 C4476 0.930 . S
H4467 C4479 0.929 . S
H4468 C4482 0.930 . S
H4469 C4484 0.960 . S
H4470 C4484 0.960 . S
H4471 C4484 0.960 . S
C4472 H4464 0.929 . S
C4472 C4473 1.377 . S
C4472 C4474 1.384 . S
C4473 C4472 1.377 . S
C4473 C4479 1.390 . S
C4474 H4465 0.930 . S
C4474 C4472 1.384 . S
C4474 C4475 1.372 . S
C4475 C4474 1.372 . S
C4475 C4476 1.400 . S
C4475 C4480 1.490 . S
C4476 H4466 0.930 . S
C4476 C4475 1.400 . S
C4476 C4479 1.386 . S
H4477 C4493 0.930 . S
H4478 C4494 0.931 . S
C4479 H4467 0.929 . S
C4479 C4473 1.390 . S
C4479 C4476 1.386 . S
C4480 C4475 1.490 . S
C4480 C4482 1.395 . S
C4480 C4483 1.403 . S
H4481 C4487 0.930 . S
C4482 H4468 0.930 . S
C4482 C4480 1.395 . S
C4482 C4485 1.403 . S
C4483 C4480 1.403 . S
C4483 C4484 1.524 . S
C4483 C4487 1.400 . S
C4484 H4469 0.960 . S
C4484 H4470 0.960 . S
C4484 H4471 0.960 . S
C4484 C4483 1.524 . S
C4485 C4482 1.403 . S
C4485 C4486 1.392 . S
C4485 C4489 1.495 . S
C4486 C4485 1.392 . S
C4486 C4487 1.385 . S
C4486 C4488 1.478 . S
C4487 H4481 0.930 . S
C4487 C4483 1.400 . S
C4487 C4486 1.385 . S
C4488 C4486 1.478 . S
C4488 C4490 1.381 . S
C4488 C4494 1.383 . S
C4489 C4485 1.495 . S
C4489 H4495 0.959 . S
C4489 H4496 0.961 . S
C4489 H4497 0.960 . S
C4490 C4488 1.381 . S
C4490 C4491 1.394 . S
C4490 H4498 0.930 . S
C4491 C4490 1.394 . S
C4491 C4492 1.383 . S
C4491 H4499 0.929 . S
C4492 C4491 1.383 . S
C4492 C4493 1.377 . S
C4493 H4477 0.930 . S
C4493 C4492 1.377 . S
C4493 C4494 1.379 . S
C4494 H4478 0.931 . S
C4494 C4488 1.383 . S
C4494 C4493 1.379 . S
H4495 C4489 0.959 . S
H4496 C4489 0.961 . S
H4497 C4489 0.960 . S
H4498 C4490 0.930 . S
H4499 C4491 0.929 . S
H4500 C4508 0.929 . S
H4501 C4510 0.930 . S
H4502 C4512 0.930 . S
H4503 C4515 0.929 . S
H4504 C4518 0.930 . S
H4505 C4520 0.960 . S
H4506 C4520 0.960 . S
H4507 C4520 0.960 . S
C4508 H4500 0.929 . S
C4508 C4509 1.377 . S
C4508 C4510 1.384 . S
C4509 C4508 1.377 . S
C4509 C4515 1.390 . S
C4510 H4501 0.930 . S
C4510 C4508 1.384 . S
C4510 C4511 1.372 . S
C4511 C4510 1.372 . S
C4511 C4512 1.400 . S
C4511 C4516 1.490 . S
C4512 H4502 0.930 . S
C4512 C4511 1.400 . S
C4512 C4515 1.386 . S
H4513 C4529 0.930 . S
H4514 C4530 0.931 . S
C4515 H4503 0.929 . S
C4515 C4509 1.390 . S
C4515 C4512 1.386 . S
C4516 C4511 1.490 . S
C4516 C4518 1.395 . S
C4516 C4519 1.403 . S
H4517 C4523 0.930 . S
C4518 H4504 0.930 . S
C4518 C4516 1.395 . S
C4518 C4521 1.403 . S
C4519 C4516 1.403 . S
C4519 C4520 1.524 . S
C4519 C4523 1.400 . S
C4520 H4505 0.960 . S
C4520 H4506 0.960 . S
C4520 H4507 0.960 . S
C4520 C4519 1.524 . S
C4521 C4518 1.403 . S
C4521 C4522 1.392 . S
C4521 C4525 1.495 . S
C4522 C4521 1.392 . S
C4522 C4523 1.385 . S
C4522 C4524 1.478 . S
C4523 H4517 0.930 . S
C4523 C4519 1.400 . S
C4523 C4522 1.385 . S
C4524 C4522 1.478 . S
C4524 C4526 1.381 . S
C4524 C4530 1.383 . S
C4525 C4521 1.495 . S
C4525 H4531 0.959 . S
C4525 H4532 0.961 . S
C4525 H4533 0.960 . S
C4526 C4524 1.381 . S
C4526 C4527 1.394 . S
C4526 H4534 0.930 . S
C4527 C4526 1.394 . S
C4527 C4528 1.383 . S
C4527 H4535 0.929 . S
C4528 C4527 1.383 . S
C4528 C4529 1.377 . S
C4529 H4513 0.930 . S
C4529 C4528 1.377 . S
C4529 C4530 1.379 . S
C4530 H4514 0.931 . S
C4530 C4524 1.383 . S
C4530 C4529 1.379 . S
H4531 C4525 0.959 . S
H4532 C4525 0.961 . S
H4533 C4525 0.960 . S
H4534 C4526 0.930 . S
H4535 C4527 0.929 . S
H4536 C4544 0.929 . S
H4537 C4546 0.930 . S
H4538 C4548 0.930 . S
H4539 C4551 0.929 . S
H4540 C4554 0.930 . S
H4541 C4556 0.960 . S
H4542 C4556 0.960 . S
H4543 C4556 0.960 . S
C4544 H4536 0.929 . S
C4544 C4545 1.377 . S
C4544 C4546 1.384 . S
C4545 C4544 1.377 . S
C4545 C4551 1.390 . S
C4546 H4537 0.930 . S
C4546 C4544 1.384 . S
C4546 C4547 1.372 . S
C4547 C4546 1.372 . S
C4547 C4548 1.400 . S
C4547 C4552 1.490 . S
C4548 H4538 0.930 . S
C4548 C4547 1.400 . S
C4548 C4551 1.386 . S
H4549 C4565 0.930 . S
H4550 C4566 0.931 . S
C4551 H4539 0.929 . S
C4551 C4545 1.390 . S
C4551 C4548 1.386 . S
C4552 C4547 1.490 . S
C4552 C4554 1.395 . S
C4552 C4555 1.403 . S
H4553 C4559 0.930 . S
C4554 H4540 0.930 . S
C4554 C4552 1.395 . S
C4554 C4557 1.403 . S
C4555 C4552 1.403 . S
C4555 C4556 1.524 . S
C4555 C4559 1.400 . S
C4556 H4541 0.960 . S
C4556 H4542 0.960 . S
C4556 H4543 0.960 . S
C4556 C4555 1.524 . S
C4557 C4554 1.403 . S
C4557 C4558 1.392 . S
C4557 C4561 1.495 . S
C4558 C4557 1.392 . S
C4558 C4559 1.385 . S
C4558 C4560 1.478 . S
C4559 H4553 0.930 . S
C4559 C4555 1.400 . S
C4559 C4558 1.385 . S
C4560 C4558 1.478 . S
C4560 C4562 1.381 . S
C4560 C4566 1.383 . S
C4561 C4557 1.495 . S
C4561 H4567 0.959 . S
C4561 H4568 0.961 . S
C4561 H4569 0.960 . S
C4562 C4560 1.381 . S
C4562 C4563 1.394 . S
C4562 H4570 0.930 . S
C4563 C4562 1.394 . S
C4563 C4564 1.383 . S
C4563 H4571 0.929 . S
C4564 C4563 1.383 . S
C4564 C4565 1.377 . S
C4565 H4549 0.930 . S
C4565 C4564 1.377 . S
C4565 C4566 1.379 . S
C4566 H4550 0.931 . S
C4566 C4560 1.383 . S
C4566 C4565 1.379 . S
H4567 C4561 0.959 . S
H4568 C4561 0.961 . S
H4569 C4561 0.960 . S
H4570 C4562 0.930 . S
H4571 C4563 0.929 . S
H4572 C4580 0.929 . S
H4573 C4582 0.930 . S
H4574 C4584 0.930 . S
H4575 C4587 0.929 . S
H4576 C4590 0.930 . S
H4577 C4592 0.960 . S
H4578 C4592 0.960 . S
H4579 C4592 0.960 . S
C4580 H4572 0.929 . S
C4580 C4581 1.377 . S
C4580 C4582 1.384 . S
C4581 C4580 1.377 . S
C4581 C4587 1.390 . S
C4582 H4573 0.930 . S
C4582 C4580 1.384 . S
C4582 C4583 1.372 . S
C4583 C4582 1.372 . S
C4583 C4584 1.400 . S
C4583 C4588 1.490 . S
C4584 H4574 0.930 . S
C4584 C4583 1.400 . S
C4584 C4587 1.386 . S
H4585 C4601 0.930 . S
H4586 C4602 0.931 . S
C4587 H4575 0.929 . S
C4587 C4581 1.390 . S
C4587 C4584 1.386 . S
C4588 C4583 1.490 . S
C4588 C4590 1.395 . S
C4588 C4591 1.403 . S
H4589 C4595 0.930 . S
C4590 H4576 0.930 . S
C4590 C4588 1.395 . S
C4590 C4593 1.403 . S
C4591 C4588 1.403 . S
C4591 C4592 1.524 . S
C4591 C4595 1.400 . S
C4592 H4577 0.960 . S
C4592 H4578 0.960 . S
C4592 H4579 0.960 . S
C4592 C4591 1.524 . S
C4593 C4590 1.403 . S
C4593 C4594 1.392 . S
C4593 C4597 1.495 . S
C4594 C4593 1.392 . S
C4594 C4595 1.385 . S
C4594 C4596 1.478 . S
C4595 H4589 0.930 . S
C4595 C4591 1.400 . S
C4595 C4594 1.385 . S
C4596 C4594 1.478 . S
C4596 C4598 1.381 . S
C4596 C4602 1.383 . S
C4597 C4593 1.495 . S
C4597 H4603 0.959 . S
C4597 H4604 0.961 . S
C4597 H4605 0.960 . S
C4598 C4596 1.381 . S
C4598 C4599 1.394 . S
C4598 H4606 0.930 . S
C4599 C4598 1.394 . S
C4599 C4600 1.383 . S
C4599 H4607 0.929 . S
C4600 C4599 1.383 . S
C4600 C4601 1.377 . S
C4601 H4585 0.930 . S
C4601 C4600 1.377 . S
C4601 C4602 1.379 . S
C4602 H4586 0.931 . S
C4602 C4596 1.383 . S
C4602 C4601 1.379 . S
H4603 C4597 0.959 . S
H4604 C4597 0.961 . S
H4605 C4597 0.960 . S
H4606 C4598 0.930 . S
H4607 C4599 0.929 . S
H4608 C4616 0.929 . S
H4609 C4618 0.930 . S
H4610 C4620 0.930 . S
H4611 C4623 0.929 . S
H4612 C4626 0.930 . S
H4613 C4628 0.960 . S
H4614 C4628 0.960 . S
H4615 C4628 0.960 . S
C4616 H4608 0.929 . S
C4616 C4617 1.377 . S
C4616 C4618 1.384 . S
C4617 C4616 1.377 . S
C4617 C4623 1.390 . S
C4618 H4609 0.930 . S
C4618 C4616 1.384 . S
C4618 C4619 1.372 . S
C4619 C4618 1.372 . S
C4619 C4620 1.400 . S
C4619 C4624 1.490 . S
C4620 H4610 0.930 . S
C4620 C4619 1.400 . S
C4620 C4623 1.386 . S
H4621 C4637 0.930 . S
H4622 C4638 0.931 . S
C4623 H4611 0.929 . S
C4623 C4617 1.390 . S
C4623 C4620 1.386 . S
C4624 C4619 1.490 . S
C4624 C4626 1.395 . S
C4624 C4627 1.403 . S
H4625 C4631 0.930 . S
C4626 H4612 0.930 . S
C4626 C4624 1.395 . S
C4626 C4629 1.403 . S
C4627 C4624 1.403 . S
C4627 C4628 1.524 . S
C4627 C4631 1.400 . S
C4628 H4613 0.960 . S
C4628 H4614 0.960 . S
C4628 H4615 0.960 . S
C4628 C4627 1.524 . S
C4629 C4626 1.403 . S
C4629 C4630 1.392 . S
C4629 C4633 1.495 . S
C4630 C4629 1.392 . S
C4630 C4631 1.385 . S
C4630 C4632 1.478 . S
C4631 H4625 0.930 . S
C4631 C4627 1.400 . S
C4631 C4630 1.385 . S
C4632 C4630 1.478 . S
C4632 C4634 1.381 . S
C4632 C4638 1.383 . S
C4633 C4629 1.495 . S
C4633 H4639 0.959 . S
C4633 H4640 0.961 . S
C4633 H4641 0.960 . S
C4634 C4632 1.381 . S
C4634 C4635 1.394 . S
C4634 H4642 0.930 . S
C4635 C4634 1.394 . S
C4635 C4636 1.383 . S
C4635 H4643 0.929 . S
C4636 C4635 1.383 . S
C4636 C4637 1.377 . S
C4637 H4621 0.930 . S
C4637 C4636 1.377 . S
C4637 C4638 1.379 . S
C4638 H4622 0.931 . S
C4638 C4632 1.383 . S
C4638 C4637 1.379 . S
H4639 C4633 0.959 . S
H4640 C4633 0.961 . S
H4641 C4633 0.960 . S
H4642 C4634 0.930 . S
H4643 C4635 0.929 . S
H4644 C4652 0.929 . S
H4645 C4654 0.930 . S
H4646 C4656 0.930 . S
H4647 C4659 0.929 . S
H4648 C4662 0.930 . S
H4649 C4664 0.960 . S
H4650 C4664 0.960 . S
H4651 C4664 0.960 . S
C4652 H4644 0.929 . S
C4652 C4653 1.377 . S
C4652 C4654 1.384 . S
C4653 C4652 1.377 . S
C4653 C4659 1.390 . S
C4654 H4645 0.930 . S
C4654 C4652 1.384 . S
C4654 C4655 1.372 . S
C4655 C4654 1.372 . S
C4655 C4656 1.400 . S
C4655 C4660 1.490 . S
C4656 H4646 0.930 . S
C4656 C4655 1.400 . S
C4656 C4659 1.386 . S
H4657 C4673 0.930 . S
H4658 C4674 0.931 . S
C4659 H4647 0.929 . S
C4659 C4653 1.390 . S
C4659 C4656 1.386 . S
C4660 C4655 1.490 . S
C4660 C4662 1.395 . S
C4660 C4663 1.403 . S
H4661 C4667 0.930 . S
C4662 H4648 0.930 . S
C4662 C4660 1.395 . S
C4662 C4665 1.403 . S
C4663 C4660 1.403 . S
C4663 C4664 1.524 . S
C4663 C4667 1.400 . S
C4664 H4649 0.960 . S
C4664 H4650 0.960 . S
C4664 H4651 0.960 . S
C4664 C4663 1.524 . S
C4665 C4662 1.403 . S
C4665 C4666 1.392 . S
C4665 C4669 1.495 . S
C4666 C4665 1.392 . S
C4666 C4667 1.385 . S
C4666 C4668 1.478 . S
C4667 H4661 0.930 . S
C4667 C4663 1.400 . S
C4667 C4666 1.385 . S
C4668 C4666 1.478 . S
C4668 C4670 1.381 . S
C4668 C4674 1.383 . S
C4669 C4665 1.495 . S
C4669 H4675 0.959 . S
C4669 H4676 0.961 . S
C4669 H4677 0.960 . S
C4670 C4668 1.381 . S
C4670 C4671 1.394 . S
C4670 H4678 0.930 . S
C4671 C4670 1.394 . S
C4671 C4672 1.383 . S
C4671 H4679 0.929 . S
C4672 C4671 1.383 . S
C4672 C4673 1.377 . S
C4673 H4657 0.930 . S
C4673 C4672 1.377 . S
C4673 C4674 1.379 . S
C4674 H4658 0.931 . S
C4674 C4668 1.383 . S
C4674 C4673 1.379 . S
H4675 C4669 0.959 . S
H4676 C4669 0.961 . S
H4677 C4669 0.960 . S
H4678 C4670 0.930 . S
H4679 C4671 0.929 . S
H4680 C4688 0.929 . S
H4681 C4690 0.930 . S
H4682 C4692 0.930 . S
H4683 C4695 0.929 . S
H4684 C4698 0.930 . S
H4685 C4700 0.960 . S
H4686 C4700 0.960 . S
H4687 C4700 0.960 . S
C4688 H4680 0.929 . S
C4688 C4689 1.377 . S
C4688 C4690 1.384 . S
C4689 C4688 1.377 . S
C4689 C4695 1.390 . S
C4690 H4681 0.930 . S
C4690 C4688 1.384 . S
C4690 C4691 1.372 . S
C4691 C4690 1.372 . S
C4691 C4692 1.400 . S
C4691 C4696 1.490 . S
C4692 H4682 0.930 . S
C4692 C4691 1.400 . S
C4692 C4695 1.386 . S
H4693 C4709 0.930 . S
H4694 C4710 0.931 . S
C4695 H4683 0.929 . S
C4695 C4689 1.390 . S
C4695 C4692 1.386 . S
C4696 C4691 1.490 . S
C4696 C4698 1.395 . S
C4696 C4699 1.403 . S
H4697 C4703 0.930 . S
C4698 H4684 0.930 . S
C4698 C4696 1.395 . S
C4698 C4701 1.403 . S
C4699 C4696 1.403 . S
C4699 C4700 1.524 . S
C4699 C4703 1.400 . S
C4700 H4685 0.960 . S
C4700 H4686 0.960 . S
C4700 H4687 0.960 . S
C4700 C4699 1.524 . S
C4701 C4698 1.403 . S
C4701 C4702 1.392 . S
C4701 C4705 1.495 . S
C4702 C4701 1.392 . S
C4702 C4703 1.385 . S
C4702 C4704 1.478 . S
C4703 H4697 0.930 . S
C4703 C4699 1.400 . S
C4703 C4702 1.385 . S
C4704 C4702 1.478 . S
C4704 C4706 1.381 . S
C4704 C4710 1.383 . S
C4705 C4701 1.495 . S
C4705 H4711 0.959 . S
C4705 H4712 0.961 . S
C4705 H4713 0.960 . S
C4706 C4704 1.381 . S
C4706 C4707 1.394 . S
C4706 H4714 0.930 . S
C4707 C4706 1.394 . S
C4707 C4708 1.383 . S
C4707 H4715 0.929 . S
C4708 C4707 1.383 . S
C4708 C4709 1.377 . S
C4709 H4693 0.930 . S
C4709 C4708 1.377 . S
C4709 C4710 1.379 . S
C4710 H4694 0.931 . S
C4710 C4704 1.383 . S
C4710 C4709 1.379 . S
H4711 C4705 0.959 . S
H4712 C4705 0.961 . S
H4713 C4705 0.960 . S
H4714 C4706 0.930 . S
H4715 C4707 0.929 . S
H4716 C4724 0.929 . S
H4717 C4726 0.930 . S
H4718 C4728 0.930 . S
H4719 C4731 0.929 . S
H4720 C4734 0.930 . S
H4721 C4736 0.960 . S
H4722 C4736 0.960 . S
H4723 C4736 0.960 . S
C4724 H4716 0.929 . S
C4724 C4725 1.377 . S
C4724 C4726 1.384 . S
C4725 C4724 1.377 . S
C4725 C4731 1.390 . S
C4726 H4717 0.930 . S
C4726 C4724 1.384 . S
C4726 C4727 1.372 . S
C4727 C4726 1.372 . S
C4727 C4728 1.400 . S
C4727 C4732 1.490 . S
C4728 H4718 0.930 . S
C4728 C4727 1.400 . S
C4728 C4731 1.386 . S
H4729 C4745 0.930 . S
H4730 C4746 0.931 . S
C4731 H4719 0.929 . S
C4731 C4725 1.390 . S
C4731 C4728 1.386 . S
C4732 C4727 1.490 . S
C4732 C4734 1.395 . S
C4732 C4735 1.403 . S
H4733 C4739 0.930 . S
C4734 H4720 0.930 . S
C4734 C4732 1.395 . S
C4734 C4737 1.403 . S
C4735 C4732 1.403 . S
C4735 C4736 1.524 . S
C4735 C4739 1.400 . S
C4736 H4721 0.960 . S
C4736 H4722 0.960 . S
C4736 H4723 0.960 . S
C4736 C4735 1.524 . S
C4737 C4734 1.403 . S
C4737 C4738 1.392 . S
C4737 C4741 1.495 . S
C4738 C4737 1.392 . S
C4738 C4739 1.385 . S
C4738 C4740 1.478 . S
C4739 H4733 0.930 . S
C4739 C4735 1.400 . S
C4739 C4738 1.385 . S
C4740 C4738 1.478 . S
C4740 C4742 1.381 . S
C4740 C4746 1.383 . S
C4741 C4737 1.495 . S
C4741 H4747 0.959 . S
C4741 H4748 0.961 . S
C4741 H4749 0.960 . S
C4742 C4740 1.381 . S
C4742 C4743 1.394 . S
C4742 H4750 0.930 . S
C4743 C4742 1.394 . S
C4743 C4744 1.383 . S
C4743 H4751 0.929 . S
C4744 C4743 1.383 . S
C4744 C4745 1.377 . S
C4745 H4729 0.930 . S
C4745 C4744 1.377 . S
C4745 C4746 1.379 . S
C4746 H4730 0.931 . S
C4746 C4740 1.383 . S
C4746 C4745 1.379 . S
H4747 C4741 0.959 . S
H4748 C4741 0.961 . S
H4749 C4741 0.960 . S
H4750 C4742 0.930 . S
H4751 C4743 0.929 . S
H4752 C4760 0.929 . S
H4753 C4762 0.930 . S
H4754 C4764 0.930 . S
H4755 C4767 0.929 . S
H4756 C4770 0.930 . S
H4757 C4772 0.960 . S
H4758 C4772 0.960 . S
H4759 C4772 0.960 . S
C4760 H4752 0.929 . S
C4760 C4761 1.377 . S
C4760 C4762 1.384 . S
C4761 C4760 1.377 . S
C4761 C4767 1.390 . S
C4762 H4753 0.930 . S
C4762 C4760 1.384 . S
C4762 C4763 1.372 . S
C4763 C4762 1.372 . S
C4763 C4764 1.400 . S
C4763 C4768 1.490 . S
C4764 H4754 0.930 . S
C4764 C4763 1.400 . S
C4764 C4767 1.386 . S
H4765 C4781 0.930 . S
H4766 C4782 0.931 . S
C4767 H4755 0.929 . S
C4767 C4761 1.390 . S
C4767 C4764 1.386 . S
C4768 C4763 1.490 . S
C4768 C4770 1.395 . S
C4768 C4771 1.403 . S
H4769 C4775 0.930 . S
C4770 H4756 0.930 . S
C4770 C4768 1.395 . S
C4770 C4773 1.403 . S
C4771 C4768 1.403 . S
C4771 C4772 1.524 . S
C4771 C4775 1.400 . S
C4772 H4757 0.960 . S
C4772 H4758 0.960 . S
C4772 H4759 0.960 . S
C4772 C4771 1.524 . S
C4773 C4770 1.403 . S
C4773 C4774 1.392 . S
C4773 C4777 1.495 . S
C4774 C4773 1.392 . S
C4774 C4775 1.385 . S
C4774 C4776 1.478 . S
C4775 H4769 0.930 . S
C4775 C4771 1.400 . S
C4775 C4774 1.385 . S
C4776 C4774 1.478 . S
C4776 C4778 1.381 . S
C4776 C4782 1.383 . S
C4777 C4773 1.495 . S
C4777 H4783 0.959 . S
C4777 H4784 0.961 . S
C4777 H4785 0.960 . S
C4778 C4776 1.381 . S
C4778 C4779 1.394 . S
C4778 H4786 0.930 . S
C4779 C4778 1.394 . S
C4779 C4780 1.383 . S
C4779 H4787 0.929 . S
C4780 C4779 1.383 . S
C4780 C4781 1.377 . S
C4781 H4765 0.930 . S
C4781 C4780 1.377 . S
C4781 C4782 1.379 . S
C4782 H4766 0.931 . S
C4782 C4776 1.383 . S
C4782 C4781 1.379 . S
H4783 C4777 0.959 . S
H4784 C4777 0.961 . S
H4785 C4777 0.960 . S
H4786 C4778 0.930 . S
H4787 C4779 0.929 . S
H4788 C4796 0.929 . S
H4789 C4798 0.930 . S
H4790 C4800 0.930 . S
H4791 C4803 0.929 . S
H4792 C4806 0.930 . S
H4793 C4808 0.960 . S
H4794 C4808 0.960 . S
H4795 C4808 0.960 . S
C4796 H4788 0.929 . S
C4796 C4797 1.377 . S
C4796 C4798 1.384 . S
C4797 C4796 1.377 . S
C4797 C4803 1.390 . S
C4798 H4789 0.930 . S
C4798 C4796 1.384 . S
C4798 C4799 1.372 . S
C4799 C4798 1.372 . S
C4799 C4800 1.400 . S
C4799 C4804 1.490 . S
C4800 H4790 0.930 . S
C4800 C4799 1.400 . S
C4800 C4803 1.386 . S
H4801 C4817 0.930 . S
H4802 C4818 0.931 . S
C4803 H4791 0.929 . S
C4803 C4797 1.390 . S
C4803 C4800 1.386 . S
C4804 C4799 1.490 . S
C4804 C4806 1.395 . S
C4804 C4807 1.403 . S
H4805 C4811 0.930 . S
C4806 H4792 0.930 . S
C4806 C4804 1.395 . S
C4806 C4809 1.403 . S
C4807 C4804 1.403 . S
C4807 C4808 1.524 . S
C4807 C4811 1.400 . S
C4808 H4793 0.960 . S
C4808 H4794 0.960 . S
C4808 H4795 0.960 . S
C4808 C4807 1.524 . S
C4809 C4806 1.403 . S
C4809 C4810 1.392 . S
C4809 C4813 1.495 . S
C4810 C4809 1.392 . S
C4810 C4811 1.385 . S
C4810 C4812 1.478 . S
C4811 H4805 0.930 . S
C4811 C4807 1.400 . S
C4811 C4810 1.385 . S
C4812 C4810 1.478 . S
C4812 C4814 1.381 . S
C4812 C4818 1.383 . S
C4813 C4809 1.495 . S
C4813 H4819 0.959 . S
C4813 H4820 0.961 . S
C4813 H4821 0.960 . S
C4814 C4812 1.381 . S
C4814 C4815 1.394 . S
C4814 H4822 0.930 . S
C4815 C4814 1.394 . S
C4815 C4816 1.383 . S
C4815 H4823 0.929 . S
C4816 C4815 1.383 . S
C4816 C4817 1.377 . S
C4817 H4801 0.930 . S
C4817 C4816 1.377 . S
C4817 C4818 1.379 . S
C4818 H4802 0.931 . S
C4818 C4812 1.383 . S
C4818 C4817 1.379 . S
H4819 C4813 0.959 . S
H4820 C4813 0.961 . S
H4821 C4813 0.960 . S
H4822 C4814 0.930 . S
H4823 C4815 0.929 . S
H4824 C4832 0.929 . S
H4825 C4834 0.930 . S
H4826 C4836 0.930 . S
H4827 C4839 0.929 . S
H4828 C4842 0.930 . S
H4829 C4844 0.960 . S
H4830 C4844 0.960 . S
H4831 C4844 0.960 . S
C4832 H4824 0.929 . S
C4832 C4833 1.377 . S
C4832 C4834 1.384 . S
C4833 C4832 1.377 . S
C4833 C4839 1.390 . S
C4834 H4825 0.930 . S
C4834 C4832 1.384 . S
C4834 C4835 1.372 . S
C4835 C4834 1.372 . S
C4835 C4836 1.400 . S
C4835 C4840 1.490 . S
C4836 H4826 0.930 . S
C4836 C4835 1.400 . S
C4836 C4839 1.386 . S
H4837 C4853 0.930 . S
H4838 C4854 0.931 . S
C4839 H4827 0.929 . S
C4839 C4833 1.390 . S
C4839 C4836 1.386 . S
C4840 C4835 1.490 . S
C4840 C4842 1.395 . S
C4840 C4843 1.403 . S
H4841 C4847 0.930 . S
C4842 H4828 0.930 . S
C4842 C4840 1.395 . S
C4842 C4845 1.403 . S
C4843 C4840 1.403 . S
C4843 C4844 1.524 . S
C4843 C4847 1.400 . S
C4844 H4829 0.960 . S
C4844 H4830 0.960 . S
C4844 H4831 0.960 . S
C4844 C4843 1.524 . S
C4845 C4842 1.403 . S
C4845 C4846 1.392 . S
C4845 C4849 1.495 . S
C4846 C4845 1.392 . S
C4846 C4847 1.385 . S
C4846 C4848 1.478 . S
C4847 H4841 0.930 . S
C4847 C4843 1.400 . S
C4847 C4846 1.385 . S
C4848 C4846 1.478 . S
C4848 C4850 1.381 . S
C4848 C4854 1.383 . S
C4849 C4845 1.495 . S
C4849 H4855 0.959 . S
C4849 H4856 0.961 . S
C4849 H4857 0.960 . S
C4850 C4848 1.381 . S
C4850 C4851 1.394 . S
C4850 H4858 0.930 . S
C4851 C4850 1.394 . S
C4851 C4852 1.383 . S
C4851 H4859 0.929 . S
C4852 C4851 1.383 . S
C4852 C4853 1.377 . S
C4853 H4837 0.930 . S
C4853 C4852 1.377 . S
C4853 C4854 1.379 . S
C4854 H4838 0.931 . S
C4854 C4848 1.383 . S
C4854 C4853 1.379 . S
H4855 C4849 0.959 . S
H4856 C4849 0.961 . S
H4857 C4849 0.960 . S
H4858 C4850 0.930 . S
H4859 C4851 0.929 . S
H4860 C4868 0.929 . S
H4861 C4870 0.930 . S
H4862 C4872 0.930 . S
H4863 C4875 0.929 . S
H4864 C4878 0.930 . S
H4865 C4880 0.960 . S
H4866 C4880 0.960 . S
H4867 C4880 0.960 . S
C4868 H4860 0.929 . S
C4868 C4869 1.377 . S
C4868 C4870 1.384 . S
C4869 C4868 1.377 . S
C4869 C4875 1.390 . S
C4870 H4861 0.930 . S
C4870 C4868 1.384 . S
C4870 C4871 1.372 . S
C4871 C4870 1.372 . S
C4871 C4872 1.400 . S
C4871 C4876 1.490 . S
C4872 H4862 0.930 . S
C4872 C4871 1.400 . S
C4872 C4875 1.386 . S
H4873 C4889 0.930 . S
H4874 C4890 0.931 . S
C4875 H4863 0.929 . S
C4875 C4869 1.390 . S
C4875 C4872 1.386 . S
C4876 C4871 1.490 . S
C4876 C4878 1.395 . S
C4876 C4879 1.403 . S
H4877 C4883 0.930 . S
C4878 H4864 0.930 . S
C4878 C4876 1.395 . S
C4878 C4881 1.403 . S
C4879 C4876 1.403 . S
C4879 C4880 1.524 . S
C4879 C4883 1.400 . S
C4880 H4865 0.960 . S
C4880 H4866 0.960 . S
C4880 H4867 0.960 . S
C4880 C4879 1.524 . S
C4881 C4878 1.403 . S
C4881 C4882 1.392 . S
C4881 C4885 1.495 . S
C4882 C4881 1.392 . S
C4882 C4883 1.385 . S
C4882 C4884 1.478 . S
C4883 H4877 0.930 . S
C4883 C4879 1.400 . S
C4883 C4882 1.385 . S
C4884 C4882 1.478 . S
C4884 C4886 1.381 . S
C4884 C4890 1.383 . S
C4885 C4881 1.495 . S
C4885 H4891 0.959 . S
C4885 H4892 0.961 . S
C4885 H4893 0.960 . S
C4886 C4884 1.381 . S
C4886 C4887 1.394 . S
C4886 H4894 0.930 . S
C4887 C4886 1.394 . S
C4887 C4888 1.383 . S
C4887 H4895 0.929 . S
C4888 C4887 1.383 . S
C4888 C4889 1.377 . S
C4889 H4873 0.930 . S
C4889 C4888 1.377 . S
C4889 C4890 1.379 . S
C4890 H4874 0.931 . S
C4890 C4884 1.383 . S
C4890 C4889 1.379 . S
H4891 C4885 0.959 . S
H4892 C4885 0.961 . S
H4893 C4885 0.960 . S
H4894 C4886 0.930 . S
H4895 C4887 0.929 . S
H4896 C4904 0.929 . S
H4897 C4906 0.930 . S
H4898 C4908 0.930 . S
H4899 C4911 0.929 . S
H4900 C4914 0.930 . S
H4901 C4916 0.960 . S
H4902 C4916 0.960 . S
H4903 C4916 0.960 . S
C4904 H4896 0.929 . S
C4904 C4905 1.377 . S
C4904 C4906 1.384 . S
C4905 C4904 1.377 . S
C4905 C4911 1.390 . S
C4906 H4897 0.930 . S
C4906 C4904 1.384 . S
C4906 C4907 1.372 . S
C4907 C4906 1.372 . S
C4907 C4908 1.400 . S
C4907 C4912 1.490 . S
C4908 H4898 0.930 . S
C4908 C4907 1.400 . S
C4908 C4911 1.386 . S
H4909 C4925 0.930 . S
H4910 C4926 0.931 . S
C4911 H4899 0.929 . S
C4911 C4905 1.390 . S
C4911 C4908 1.386 . S
C4912 C4907 1.490 . S
C4912 C4914 1.395 . S
C4912 C4915 1.403 . S
H4913 C4919 0.930 . S
C4914 H4900 0.930 . S
C4914 C4912 1.395 . S
C4914 C4917 1.403 . S
C4915 C4912 1.403 . S
C4915 C4916 1.524 . S
C4915 C4919 1.400 . S
C4916 H4901 0.960 . S
C4916 H4902 0.960 . S
C4916 H4903 0.960 . S
C4916 C4915 1.524 . S
C4917 C4914 1.403 . S
C4917 C4918 1.392 . S
C4917 C4921 1.495 . S
C4918 C4917 1.392 . S
C4918 C4919 1.385 . S
C4918 C4920 1.478 . S
C4919 H4913 0.930 . S
C4919 C4915 1.400 . S
C4919 C4918 1.385 . S
C4920 C4918 1.478 . S
C4920 C4922 1.381 . S
C4920 C4926 1.383 . S
C4921 C4917 1.495 . S
C4921 H4927 0.959 . S
C4921 H4928 0.961 . S
C4921 H4929 0.960 . S
C4922 C4920 1.381 . S
C4922 C4923 1.394 . S
C4922 H4930 0.930 . S
C4923 C4922 1.394 . S
C4923 C4924 1.383 . S
C4923 H4931 0.929 . S
C4924 C4923 1.383 . S
C4924 C4925 1.377 . S
C4925 H4909 0.930 . S
C4925 C4924 1.377 . S
C4925 C4926 1.379 . S
C4926 H4910 0.931 . S
C4926 C4920 1.383 . S
C4926 C4925 1.379 . S
H4927 C4921 0.959 . S
H4928 C4921 0.961 . S
H4929 C4921 0.960 . S
H4930 C4922 0.930 . S
H4931 C4923 0.929 . S
H4932 C4940 0.929 . S
H4933 C4942 0.930 . S
H4934 C4944 0.930 . S
H4935 C4947 0.929 . S
H4936 C4950 0.930 . S
H4937 C4952 0.960 . S
H4938 C4952 0.960 . S
H4939 C4952 0.960 . S
C4940 H4932 0.929 . S
C4940 C4941 1.377 . S
C4940 C4942 1.384 . S
C4941 C4940 1.377 . S
C4941 C4947 1.390 . S
C4942 H4933 0.930 . S
C4942 C4940 1.384 . S
C4942 C4943 1.372 . S
C4943 C4942 1.372 . S
C4943 C4944 1.400 . S
C4943 C4948 1.490 . S
C4944 H4934 0.930 . S
C4944 C4943 1.400 . S
C4944 C4947 1.386 . S
H4945 C4961 0.930 . S
H4946 C4962 0.931 . S
C4947 H4935 0.929 . S
C4947 C4941 1.390 . S
C4947 C4944 1.386 . S
C4948 C4943 1.490 . S
C4948 C4950 1.395 . S
C4948 C4951 1.403 . S
H4949 C4955 0.930 . S
C4950 H4936 0.930 . S
C4950 C4948 1.395 . S
C4950 C4953 1.403 . S
C4951 C4948 1.403 . S
C4951 C4952 1.524 . S
C4951 C4955 1.400 . S
C4952 H4937 0.960 . S
C4952 H4938 0.960 . S
C4952 H4939 0.960 . S
C4952 C4951 1.524 . S
C4953 C4950 1.403 . S
C4953 C4954 1.392 . S
C4953 C4957 1.495 . S
C4954 C4953 1.392 . S
C4954 C4955 1.385 . S
C4954 C4956 1.478 . S
C4955 H4949 0.930 . S
C4955 C4951 1.400 . S
C4955 C4954 1.385 . S
C4956 C4954 1.478 . S
C4956 C4958 1.381 . S
C4956 C4962 1.383 . S
C4957 C4953 1.495 . S
C4957 H4963 0.959 . S
C4957 H4964 0.961 . S
C4957 H4965 0.960 . S
C4958 C4956 1.381 . S
C4958 C4959 1.394 . S
C4958 H4966 0.930 . S
C4959 C4958 1.394 . S
C4959 C4960 1.383 . S
C4959 H4967 0.929 . S
C4960 C4959 1.383 . S
C4960 C4961 1.377 . S
C4961 H4945 0.930 . S
C4961 C4960 1.377 . S
C4961 C4962 1.379 . S
C4962 H4946 0.931 . S
C4962 C4956 1.383 . S
C4962 C4961 1.379 . S
H4963 C4957 0.959 . S
H4964 C4957 0.961 . S
H4965 C4957 0.960 . S
H4966 C4958 0.930 . S
H4967 C4959 0.929 . S
H4968 C4976 0.929 . S
H4969 C4978 0.930 . S
H4970 C4980 0.930 . S
H4971 C4983 0.929 . S
H4972 C4986 0.930 . S
H4973 C4988 0.960 . S
H4974 C4988 0.960 . S
H4975 C4988 0.960 . S
C4976 H4968 0.929 . S
C4976 C4977 1.377 . S
C4976 C4978 1.384 . S
C4977 C4976 1.377 . S
C4977 C4983 1.390 . S
C4978 H4969 0.930 . S
C4978 C4976 1.384 . S
C4978 C4979 1.372 . S
C4979 C4978 1.372 . S
C4979 C4980 1.400 . S
C4979 C4984 1.490 . S
C4980 H4970 0.930 . S
C4980 C4979 1.400 . S
C4980 C4983 1.386 . S
H4981 C4997 0.930 . S
H4982 C4998 0.931 . S
C4983 H4971 0.929 . S
C4983 C4977 1.390 . S
C4983 C4980 1.386 . S
C4984 C4979 1.490 . S
C4984 C4986 1.395 . S
C4984 C4987 1.403 . S
H4985 C4991 0.930 . S
C4986 H4972 0.930 . S
C4986 C4984 1.395 . S
C4986 C4989 1.403 . S
C4987 C4984 1.403 . S
C4987 C4988 1.524 . S
C4987 C4991 1.400 . S
C4988 H4973 0.960 . S
C4988 H4974 0.960 . S
C4988 H4975 0.960 . S
C4988 C4987 1.524 . S
C4989 C4986 1.403 . S
C4989 C4990 1.392 . S
C4989 C4993 1.495 . S
C4990 C4989 1.392 . S
C4990 C4991 1.385 . S
C4990 C4992 1.478 . S
C4991 H4985 0.930 . S
C4991 C4987 1.400 . S
C4991 C4990 1.385 . S
C4992 C4990 1.478 . S
C4992 C4994 1.381 . S
C4992 C4998 1.383 . S
C4993 C4989 1.495 . S
C4993 H4999 0.959 . S
C4993 H5000 0.961 . S
C4993 H5001 0.960 . S
C4994 C4992 1.381 . S
C4994 C4995 1.394 . S
C4994 H5002 0.930 . S
C4995 C4994 1.394 . S
C4995 C4996 1.383 . S
C4995 H5003 0.929 . S
C4996 C4995 1.383 . S
C4996 C4997 1.377 . S
C4997 H4981 0.930 . S
C4997 C4996 1.377 . S
C4997 C4998 1.379 . S
C4998 H4982 0.931 . S
C4998 C4992 1.383 . S
C4998 C4997 1.379 . S
H4999 C4993 0.959 . S
H5000 C4993 0.961 . S
H5001 C4993 0.960 . S
H5002 C4994 0.930 . S
H5003 C4995 0.929 . S
H5004 C5012 0.929 . S
H5005 C5014 0.930 . S
H5006 C5016 0.930 . S
H5007 C5019 0.929 . S
H5008 C5022 0.930 . S
H5009 C5024 0.960 . S
H5010 C5024 0.960 . S
H5011 C5024 0.960 . S
C5012 H5004 0.929 . S
C5012 C5013 1.377 . S
C5012 C5014 1.384 . S
C5013 C5012 1.377 . S
C5013 C5019 1.390 . S
C5014 H5005 0.930 . S
C5014 C5012 1.384 . S
C5014 C5015 1.372 . S
C5015 C5014 1.372 . S
C5015 C5016 1.400 . S
C5015 C5020 1.490 . S
C5016 H5006 0.930 . S
C5016 C5015 1.400 . S
C5016 C5019 1.386 . S
H5017 C5033 0.930 . S
H5018 C5034 0.931 . S
C5019 H5007 0.929 . S
C5019 C5013 1.390 . S
C5019 C5016 1.386 . S
C5020 C5015 1.490 . S
C5020 C5022 1.395 . S
C5020 C5023 1.403 . S
H5021 C5027 0.930 . S
C5022 H5008 0.930 . S
C5022 C5020 1.395 . S
C5022 C5025 1.403 . S
C5023 C5020 1.403 . S
C5023 C5024 1.524 . S
C5023 C5027 1.400 . S
C5024 H5009 0.960 . S
C5024 H5010 0.960 . S
C5024 H5011 0.960 . S
C5024 C5023 1.524 . S
C5025 C5022 1.403 . S
C5025 C5026 1.392 . S
C5025 C5029 1.495 . S
C5026 C5025 1.392 . S
C5026 C5027 1.385 . S
C5026 C5028 1.478 . S
C5027 H5021 0.930 . S
C5027 C5023 1.400 . S
C5027 C5026 1.385 . S
C5028 C5026 1.478 . S
C5028 C5030 1.381 . S
C5028 C5034 1.383 . S
C5029 C5025 1.495 . S
C5029 H5035 0.959 . S
C5029 H5036 0.961 . S
C5029 H5037 0.960 . S
C5030 C5028 1.381 . S
C5030 C5031 1.394 . S
C5030 H5038 0.930 . S
C5031 C5030 1.394 . S
C5031 C5032 1.383 . S
C5031 H5039 0.929 . S
C5032 C5031 1.383 . S
C5032 C5033 1.377 . S
C5033 H5017 0.930 . S
C5033 C5032 1.377 . S
C5033 C5034 1.379 . S
C5034 H5018 0.931 . S
C5034 C5028 1.383 . S
C5034 C5033 1.379 . S
H5035 C5029 0.959 . S
H5036 C5029 0.961 . S
H5037 C5029 0.960 . S
H5038 C5030 0.930 . S
H5039 C5031 0.929 . S
H5040 C5048 0.929 . S
H5041 C5050 0.930 . S
H5042 C5052 0.930 . S
H5043 C5055 0.929 . S
H5044 C5058 0.930 . S
H5045 C5060 0.960 . S
H5046 C5060 0.960 . S
H5047 C5060 0.960 . S
C5048 H5040 0.929 . S
C5048 C5049 1.377 . S
C5048 C5050 1.384 . S
C5049 C5048 1.377 . S
C5049 C5055 1.390 . S
C5050 H5041 0.930 . S
C5050 C5048 1.384 . S
C5050 C5051 1.372 . S
C5051 C5050 1.372 . S
C5051 C5052 1.400 . S
C5051 C5056 1.490 . S
C5052 H5042 0.930 . S
C5052 C5051 1.400 . S
C5052 C5055 1.386 . S
H5053 C5069 0.930 . S
H5054 C5070 0.931 . S
C5055 H5043 0.929 . S
C5055 C5049 1.390 . S
C5055 C5052 1.386 . S
C5056 C5051 1.490 . S
C5056 C5058 1.395 . S
C5056 C5059 1.403 . S
H5057 C5063 0.930 . S
C5058 H5044 0.930 . S
C5058 C5056 1.395 . S
C5058 C5061 1.403 . S
C5059 C5056 1.403 . S
C5059 C5060 1.524 . S
C5059 C5063 1.400 . S
C5060 H5045 0.960 . S
C5060 H5046 0.960 . S
C5060 H5047 0.960 . S
C5060 C5059 1.524 . S
C5061 C5058 1.403 . S
C5061 C5062 1.392 . S
C5061 C5065 1.495 . S
C5062 C5061 1.392 . S
C5062 C5063 1.385 . S
C5062 C5064 1.478 . S
C5063 H5057 0.930 . S
C5063 C5059 1.400 . S
C5063 C5062 1.385 . S
C5064 C5062 1.478 . S
C5064 C5066 1.381 . S
C5064 C5070 1.383 . S
C5065 C5061 1.495 . S
C5065 H5071 0.959 . S
C5065 H5072 0.961 . S
C5065 H5073 0.960 . S
C5066 C5064 1.381 . S
C5066 C5067 1.394 . S
C5066 H5074 0.930 . S
C5067 C5066 1.394 . S
C5067 C5068 1.383 . S
C5067 H5075 0.929 . S
C5068 C5067 1.383 . S
C5068 C5069 1.377 . S
C5069 H5053 0.930 . S
C5069 C5068 1.377 . S
C5069 C5070 1.379 . S
C5070 H5054 0.931 . S
C5070 C5064 1.383 . S
C5070 C5069 1.379 . S
H5071 C5065 0.959 . S
H5072 C5065 0.961 . S
H5073 C5065 0.960 . S
H5074 C5066 0.930 . S
H5075 C5067 0.929 . S
H5076 C5084 0.929 . S
H5077 C5086 0.930 . S
H5078 C5088 0.930 . S
H5079 C5091 0.929 . S
H5080 C5094 0.930 . S
H5081 C5096 0.960 . S
H5082 C5096 0.960 . S
H5083 C5096 0.960 . S
C5084 H5076 0.929 . S
C5084 C5085 1.377 . S
C5084 C5086 1.384 . S
C5085 C5084 1.377 . S
C5085 C5091 1.390 . S
C5086 H5077 0.930 . S
C5086 C5084 1.384 . S
C5086 C5087 1.372 . S
C5087 C5086 1.372 . S
C5087 C5088 1.400 . S
C5087 C5092 1.490 . S
C5088 H5078 0.930 . S
C5088 C5087 1.400 . S
C5088 C5091 1.386 . S
H5089 C5105 0.930 . S
H5090 C5106 0.931 . S
C5091 H5079 0.929 . S
C5091 C5085 1.390 . S
C5091 C5088 1.386 . S
C5092 C5087 1.490 . S
C5092 C5094 1.395 . S
C5092 C5095 1.403 . S
H5093 C5099 0.930 . S
C5094 H5080 0.930 . S
C5094 C5092 1.395 . S
C5094 C5097 1.403 . S
C5095 C5092 1.403 . S
C5095 C5096 1.524 . S
C5095 C5099 1.400 . S
C5096 H5081 0.960 . S
C5096 H5082 0.960 . S
C5096 H5083 0.960 . S
C5096 C5095 1.524 . S
C5097 C5094 1.403 . S
C5097 C5098 1.392 . S
C5097 C5101 1.495 . S
C5098 C5097 1.392 . S
C5098 C5099 1.385 . S
C5098 C5100 1.478 . S
C5099 H5093 0.930 . S
C5099 C5095 1.400 . S
C5099 C5098 1.385 . S
C5100 C5098 1.478 . S
C5100 C5102 1.381 . S
C5100 C5106 1.383 . S
C5101 C5097 1.495 . S
C5101 H5107 0.959 . S
C5101 H5108 0.961 . S
C5101 H5109 0.960 . S
C5102 C5100 1.381 . S
C5102 C5103 1.394 . S
C5102 H5110 0.930 . S
C5103 C5102 1.394 . S
C5103 C5104 1.383 . S
C5103 H5111 0.929 . S
C5104 C5103 1.383 . S
C5104 C5105 1.377 . S
C5105 H5089 0.930 . S
C5105 C5104 1.377 . S
C5105 C5106 1.379 . S
C5106 H5090 0.931 . S
C5106 C5100 1.383 . S
C5106 C5105 1.379 . S
H5107 C5101 0.959 . S
H5108 C5101 0.961 . S
H5109 C5101 0.960 . S
H5110 C5102 0.930 . S
H5111 C5103 0.929 . S
H5112 C5120 0.929 . S
H5113 C5122 0.930 . S
H5114 C5124 0.930 . S
H5115 C5127 0.929 . S
H5116 C5130 0.930 . S
H5117 C5132 0.960 . S
H5118 C5132 0.960 . S
H5119 C5132 0.960 . S
C5120 H5112 0.929 . S
C5120 C5121 1.377 . S
C5120 C5122 1.384 . S
C5121 C5120 1.377 . S
C5121 C5127 1.390 . S
C5122 H5113 0.930 . S
C5122 C5120 1.384 . S
C5122 C5123 1.372 . S
C5123 C5122 1.372 . S
C5123 C5124 1.400 . S
C5123 C5128 1.490 . S
C5124 H5114 0.930 . S
C5124 C5123 1.400 . S
C5124 C5127 1.386 . S
H5125 C5141 0.930 . S
H5126 C5142 0.931 . S
C5127 H5115 0.929 . S
C5127 C5121 1.390 . S
C5127 C5124 1.386 . S
C5128 C5123 1.490 . S
C5128 C5130 1.395 . S
C5128 C5131 1.403 . S
H5129 C5135 0.930 . S
C5130 H5116 0.930 . S
C5130 C5128 1.395 . S
C5130 C5133 1.403 . S
C5131 C5128 1.403 . S
C5131 C5132 1.524 . S
C5131 C5135 1.400 . S
C5132 H5117 0.960 . S
C5132 H5118 0.960 . S
C5132 H5119 0.960 . S
C5132 C5131 1.524 . S
C5133 C5130 1.403 . S
C5133 C5134 1.392 . S
C5133 C5137 1.495 . S
C5134 C5133 1.392 . S
C5134 C5135 1.385 . S
C5134 C5136 1.478 . S
C5135 H5129 0.930 . S
C5135 C5131 1.400 . S
C5135 C5134 1.385 . S
C5136 C5134 1.478 . S
C5136 C5138 1.381 . S
C5136 C5142 1.383 . S
C5137 C5133 1.495 . S
C5137 H5143 0.959 . S
C5137 H5144 0.961 . S
C5137 H5145 0.960 . S
C5138 C5136 1.381 . S
C5138 C5139 1.394 . S
C5138 H5146 0.930 . S
C5139 C5138 1.394 . S
C5139 C5140 1.383 . S
C5139 H5147 0.929 . S
C5140 C5139 1.383 . S
C5140 C5141 1.377 . S
C5141 H5125 0.930 . S
C5141 C5140 1.377 . S
C5141 C5142 1.379 . S
C5142 H5126 0.931 . S
C5142 C5136 1.383 . S
C5142 C5141 1.379 . S
H5143 C5137 0.959 . S
H5144 C5137 0.961 . S
H5145 C5137 0.960 . S
H5146 C5138 0.930 . S
H5147 C5139 0.929 . S
H5148 C5156 0.929 . S
H5149 C5158 0.930 . S
H5150 C5160 0.930 . S
H5151 C5163 0.929 . S
H5152 C5166 0.930 . S
H5153 C5168 0.960 . S
H5154 C5168 0.960 . S
H5155 C5168 0.960 . S
C5156 H5148 0.929 . S
C5156 C5157 1.377 . S
C5156 C5158 1.384 . S
C5157 C5156 1.377 . S
C5157 C5163 1.390 . S
C5158 H5149 0.930 . S
C5158 C5156 1.384 . S
C5158 C5159 1.372 . S
C5159 C5158 1.372 . S
C5159 C5160 1.400 . S
C5159 C5164 1.490 . S
C5160 H5150 0.930 . S
C5160 C5159 1.400 . S
C5160 C5163 1.386 . S
H5161 C5177 0.930 . S
H5162 C5178 0.931 . S
C5163 H5151 0.929 . S
C5163 C5157 1.390 . S
C5163 C5160 1.386 . S
C5164 C5159 1.490 . S
C5164 C5166 1.395 . S
C5164 C5167 1.403 . S
H5165 C5171 0.930 . S
C5166 H5152 0.930 . S
C5166 C5164 1.395 . S
C5166 C5169 1.403 . S
C5167 C5164 1.403 . S
C5167 C5168 1.524 . S
C5167 C5171 1.400 . S
C5168 H5153 0.960 . S
C5168 H5154 0.960 . S
C5168 H5155 0.960 . S
C5168 C5167 1.524 . S
C5169 C5166 1.403 . S
C5169 C5170 1.392 . S
C5169 C5173 1.495 . S
C5170 C5169 1.392 . S
C5170 C5171 1.385 . S
C5170 C5172 1.478 . S
C5171 H5165 0.930 . S
C5171 C5167 1.400 . S
C5171 C5170 1.385 . S
C5172 C5170 1.478 . S
C5172 C5174 1.381 . S
C5172 C5178 1.383 . S
C5173 C5169 1.495 . S
C5173 H5179 0.959 . S
C5173 H5180 0.961 . S
C5173 H5181 0.960 . S
C5174 C5172 1.381 . S
C5174 C5175 1.394 . S
C5174 H5182 0.930 . S
C5175 C5174 1.394 . S
C5175 C5176 1.383 . S
C5175 H5183 0.929 . S
C5176 C5175 1.383 . S
C5176 C5177 1.377 . S
C5177 H5161 0.930 . S
C5177 C5176 1.377 . S
C5177 C5178 1.379 . S
C5178 H5162 0.931 . S
C5178 C5172 1.383 . S
C5178 C5177 1.379 . S
H5179 C5173 0.959 . S
H5180 C5173 0.961 . S
H5181 C5173 0.960 . S
H5182 C5174 0.930 . S
H5183 C5175 0.929 . S
H5184 C5192 0.929 . S
H5185 C5194 0.930 . S
H5186 C5196 0.930 . S
H5187 C5199 0.929 . S
H5188 C5202 0.930 . S
H5189 C5204 0.960 . S
H5190 C5204 0.960 . S
H5191 C5204 0.960 . S
C5192 H5184 0.929 . S
C5192 C5193 1.377 . S
C5192 C5194 1.384 . S
C5193 C5192 1.377 . S
C5193 C5199 1.390 . S
C5194 H5185 0.930 . S
C5194 C5192 1.384 . S
C5194 C5195 1.372 . S
C5195 C5194 1.372 . S
C5195 C5196 1.400 . S
C5195 C5200 1.490 . S
C5196 H5186 0.930 . S
C5196 C5195 1.400 . S
C5196 C5199 1.386 . S
H5197 C5213 0.930 . S
H5198 C5214 0.931 . S
C5199 H5187 0.929 . S
C5199 C5193 1.390 . S
C5199 C5196 1.386 . S
C5200 C5195 1.490 . S
C5200 C5202 1.395 . S
C5200 C5203 1.403 . S
H5201 C5207 0.930 . S
C5202 H5188 0.930 . S
C5202 C5200 1.395 . S
C5202 C5205 1.403 . S
C5203 C5200 1.403 . S
C5203 C5204 1.524 . S
C5203 C5207 1.400 . S
C5204 H5189 0.960 . S
C5204 H5190 0.960 . S
C5204 H5191 0.960 . S
C5204 C5203 1.524 . S
C5205 C5202 1.403 . S
C5205 C5206 1.392 . S
C5205 C5209 1.495 . S
C5206 C5205 1.392 . S
C5206 C5207 1.385 . S
C5206 C5208 1.478 . S
C5207 H5201 0.930 . S
C5207 C5203 1.400 . S
C5207 C5206 1.385 . S
C5208 C5206 1.478 . S
C5208 C5210 1.381 . S
C5208 C5214 1.383 . S
C5209 C5205 1.495 . S
C5209 H5215 0.959 . S
C5209 H5216 0.961 . S
C5209 H5217 0.960 . S
C5210 C5208 1.381 . S
C5210 C5211 1.394 . S
C5210 H5218 0.930 . S
C5211 C5210 1.394 . S
C5211 C5212 1.383 . S
C5211 H5219 0.929 . S
C5212 C5211 1.383 . S
C5212 C5213 1.377 . S
C5213 H5197 0.930 . S
C5213 C5212 1.377 . S
C5213 C5214 1.379 . S
C5214 H5198 0.931 . S
C5214 C5208 1.383 . S
C5214 C5213 1.379 . S
H5215 C5209 0.959 . S
H5216 C5209 0.961 . S
H5217 C5209 0.960 . S
H5218 C5210 0.930 . S
H5219 C5211 0.929 . S
H5220 C5228 0.929 . S
H5221 C5230 0.930 . S
H5222 C5232 0.930 . S
H5223 C5235 0.929 . S
H5224 C5238 0.930 . S
H5225 C5240 0.960 . S
H5226 C5240 0.960 . S
H5227 C5240 0.960 . S
C5228 H5220 0.929 . S
C5228 C5229 1.377 . S
C5228 C5230 1.384 . S
C5229 C5228 1.377 . S
C5229 C5235 1.390 . S
C5230 H5221 0.930 . S
C5230 C5228 1.384 . S
C5230 C5231 1.372 . S
C5231 C5230 1.372 . S
C5231 C5232 1.400 . S
C5231 C5236 1.490 . S
C5232 H5222 0.930 . S
C5232 C5231 1.400 . S
C5232 C5235 1.386 . S
H5233 C5249 0.930 . S
H5234 C5250 0.931 . S
C5235 H5223 0.929 . S
C5235 C5229 1.390 . S
C5235 C5232 1.386 . S
C5236 C5231 1.490 . S
C5236 C5238 1.395 . S
C5236 C5239 1.403 . S
H5237 C5243 0.930 . S
C5238 H5224 0.930 . S
C5238 C5236 1.395 . S
C5238 C5241 1.403 . S
C5239 C5236 1.403 . S
C5239 C5240 1.524 . S
C5239 C5243 1.400 . S
C5240 H5225 0.960 . S
C5240 H5226 0.960 . S
C5240 H5227 0.960 . S
C5240 C5239 1.524 . S
C5241 C5238 1.403 . S
C5241 C5242 1.392 . S
C5241 C5245 1.495 . S
C5242 C5241 1.392 . S
C5242 C5243 1.385 . S
C5242 C5244 1.478 . S
C5243 H5237 0.930 . S
C5243 C5239 1.400 . S
C5243 C5242 1.385 . S
C5244 C5242 1.478 . S
C5244 C5246 1.381 . S
C5244 C5250 1.383 . S
C5245 C5241 1.495 . S
C5245 H5251 0.959 . S
C5245 H5252 0.961 . S
C5245 H5253 0.960 . S
C5246 C5244 1.381 . S
C5246 C5247 1.394 . S
C5246 H5254 0.930 . S
C5247 C5246 1.394 . S
C5247 C5248 1.383 . S
C5247 H5255 0.929 . S
C5248 C5247 1.383 . S
C5248 C5249 1.377 . S
C5249 H5233 0.930 . S
C5249 C5248 1.377 . S
C5249 C5250 1.379 . S
C5250 H5234 0.931 . S
C5250 C5244 1.383 . S
C5250 C5249 1.379 . S
H5251 C5245 0.959 . S
H5252 C5245 0.961 . S
H5253 C5245 0.960 . S
H5254 C5246 0.930 . S
H5255 C5247 0.929 . S
C1828 N1260 1.462 . S
C1809 C1 1.520 . S
C1864 C1287 1.574 . S
C1845 C60 1.588 . S
C1881 C79 1.509 . S
C1900 C1301 1.491 . S
C1936 N1319 1.417 . S
C1917 C118 1.460 . S
C1953 C177 1.575 . S
C1972 C1324 1.573 . S
C1989 C196 1.489 . S
C2008 C1264 1.489 . S
C2025 C250 1.398 . S
C2044 N1283 1.341 . S
C2080 N1296 1.454 . S
C2061 C274 1.521 . S
C2116 N1342 1.393 . S
C2097 C16 1.457 . S
C2133 C55 1.548 . S
C2152 N1365 1.506 . S
C2169 C99 1.549 . S
C2188 N1388 1.523 . S
C2224 N1421 1.412 . S
C2205 C133 1.441 . S
C2241 C157 1.560 . S
C2260 C1448 1.553 . S
C2296 C1471 1.533 . S
C2277 C211 1.550 . S
C2313 C255 1.435 . S
C2332 C1494 1.435 . S
C2368 C1508 1.444 . S
C2349 C294 1.441 . S
C2385 C21 1.440 . S
C2404 C1425 1.416 . S
C2421 C172 1.507 . S
C2440 N1467 1.485 . S
C2476 N1490 1.403 . S
C2457 C216 1.464 . S
C2493 C235 1.443 . S
C2512 N1503 1.383 . S
C2548 N1444 1.444 . S
C2529 C289 1.470 . S
C2584 C1370 1.661 . S
C2565 C94 1.662 . S
C2601 C138 1.459 . S
C2620 C1393 1.443 . S
C2656 C1347 1.593 . S
C2637 C40 1.604 . S
C2692 C1540 1.461 . S
C2673 C313 1.479 . S
C2709 C372 1.612 . S
C2728 C1554 1.607 . S
C2745 C391 1.502 . S
C2764 N1582 1.480 . S
C2800 N1595 1.423 . S
C2781 C430 1.452 . S
C2817 C489 1.586 . S
C2836 C1600 1.586 . S
C2853 C508 1.482 . S
C2872 N1536 1.415 . S
C2889 C562 1.491 . S
C2908 N1549 1.451 . S
C2925 C586 1.471 . S
C2944 C1586 1.459 . S
C2980 N1434 1.395 . S
C2961 C328 1.455 . S
C2997 C367 1.540 . S
C3016 N1618 1.480 . S
C3052 N1480 1.434 . S
C3033 C411 1.468 . S
C3069 C445 1.474 . S
C3088 C1655 1.463 . S
C3105 C469 1.591 . S
C3124 C1356 1.586 . S
C3160 C1669 1.579 . S
C3141 C523 1.581 . S
C3177 C567 1.491 . S
C3196 C1402 1.477 . S
C3232 N1687 1.385 . S
C3213 C606 1.435 . S
C3249 C333 1.470 . S
C3268 N1651 1.428 . S
C3304 N1664 1.517 . S
C3285 C484 1.540 . S
C3321 C528 1.464 . S
C3340 N1398 1.434 . S
C3376 C1692 1.403 . S
C3357 C547 1.407 . S
C3393 C601 1.444 . S
C3412 N1352 1.381 . S
C3429 C406 1.558 . S
C3448 C1623 1.549 . S
C3465 C450 1.502 . S
C3484 C1485 1.502 . S
C3501 C352 1.616 . S
C3520 C1439 1.616 . S
C3537 C625 1.546 . S
C3556 C1577 1.540 . S
C3592 C1609 1.544 . S
C3573 C684 1.547 . S
C3609 C703 1.468 . S
C3628 N1526 1.444 . S
C3645 C742 1.427 . S
C3664 N1559 1.385 . S
C3681 C801 1.587 . S
C3700 C1563 1.577 . S
C3717 C820 1.556 . S
C3736 N1572 1.517 . S
C3772 N1605 1.360 . S
C3753 C874 1.379 . S
C3789 C898 1.528 . S
C3808 C1531 1.528 . S
C3844 N1720 1.438 . S
C3825 C640 1.483 . S
C3861 C679 1.486 . S
C3880 N1457 1.455 . S
C3916 N1743 1.344 . S
C3897 C723 1.409 . S
C3933 C757 1.443 . S
C3952 N1513 1.415 . S
C3969 C781 1.568 . S
C3988 C1761 1.566 . S
C4005 C835 1.649 . S
C4024 C1379 1.646 . S
C4060 N1779 1.359 . S
C4041 C879 1.379 . S
C4077 C918 1.489 . S
C4096 C1416 1.501 . S
C4132 C1517 1.494 . S
C4113 C645 1.493 . S
C4168 N1375 1.515 . S
C4149 C796 1.548 . S
C4185 C840 1.566 . S
C4204 C1784 1.558 . S
C4221 C859 1.372 . S
C4240 N1411 1.312 . S
C4276 N1756 1.461 . S
C4257 C913 1.518 . S
C4312 C1462 1.544 . S
C4293 C718 1.554 . S
C4348 C1747 1.490 . S
C4329 C762 1.494 . S
C4384 C1724 1.570 . S
C4365 C664 1.574 . S
C4401 C937 1.430 . S
C4420 N1306 1.371 . S
C4437 C996 1.561 . S
C4456 C1333 1.544 . S
C4492 C1255 1.534 . S
C4473 C1015 1.537 . S
C4528 N1273 1.349 . S
C4509 C1054 1.394 . S
C4564 C1278 1.572 . S
C4545 C1113 1.581 . S
C4600 C1310 1.479 . S
C4581 C1132 1.496 . S
C4636 N1329 1.435 . S
C4617 C1186 1.499 . S
C4653 C1210 1.534 . S
C4672 N1250 1.512 . S
C4689 C952 1.390 . S
C4708 N1766 1.344 . S
C4744 N1674 1.475 . S
C4725 C991 1.507 . S
C4780 C1793 1.557 . S
C4761 C1035 1.566 . S
C4816 C1701 1.355 . S
C4797 C1069 1.357 . S
C4833 C1093 1.598 . S
C4852 C1715 1.596 . S
C4888 C1632 1.566 . S
C4869 C1147 1.577 . S
C4924 C1738 1.571 . S
C4905 C1191 1.580 . S
C4941 C1230 1.487 . S
C4960 N1641 1.424 . S
C4996 N1697 1.378 . S
C4977 C957 1.392 . S
C5032 N1628 1.476 . S
C5013 C1108 1.515 . S
C5068 N1733 1.396 . S
C5049 C1152 1.416 . S
C5085 C1171 1.478 . S
C5104 C1646 1.470 . S
C5121 C1225 1.458 . S
C5140 N1710 1.410 . S
C5157 C1030 1.656 . S
C5176 C1678 1.653 . S
C5193 C1074 1.387 . S
C5212 N1789 1.329 . S
C5248 C1770 1.542 . S
C5229 C976 1.550 . S
