# Generated by pormake.
# Topology dag, (6,3)-cn, num edge types: 1
# Building blocks:
#     Node 0, Type 0, BuildingBlock: IZENUY_clean_sbu_0, # of connection points: 6
#     Node 1, Type 0, BuildingBlock: IZENUY_clean_sbu_0, # of connection points: 6
#     Node 2, Type 0, BuildingBlock: IZENUY_clean_sbu_0, # of connection points: 6
#     Node 3, Type 0, BuildingBlock: IZENUY_clean_sbu_0, # of connection points: 6
#     Node 4, Type 1, BuildingBlock: QEWDON_clean_linker_0, # of connection points: 3
#     Node 5, Type 1, BuildingBlock: QEWDON_clean_linker_0, # of connection points: 3
#     Node 6, Type 1, BuildingBlock: QEWDON_clean_linker_0, # of connection points: 3
#     Node 7, Type 1, BuildingBlock: QEWDON_clean_linker_0, # of connection points: 3
#     Node 8, Type 1, BuildingBlock: QEWDON_clean_linker_0, # of connection points: 3
#     Node 9, Type 1, BuildingBlock: QEWDON_clean_linker_0, # of connection points: 3
#     Node 10, Type 1, BuildingBlock: QEWDON_clean_linker_0, # of connection points: 3
#     Node 11, Type 1, BuildingBlock: QEWDON_clean_linker_0, # of connection points: 3
#     Edge 12, Type (0, 1), BuildingBlock: AJUNOK_clean_linker_0, # of connection points: 2
#     Edge 13, Type (0, 1), BuildingBlock: AJUNOK_clean_linker_0, # of connection points: 2
#     Edge 14, Type (0, 1), BuildingBlock: AJUNOK_clean_linker_0, # of connection points: 2
#     Edge 15, Type (0, 1), BuildingBlock: AJUNOK_clean_linker_0, # of connection points: 2
#     Edge 16, Type (0, 1), BuildingBlock: AJUNOK_clean_linker_0, # of connection points: 2
#     Edge 17, Type (0, 1), BuildingBlock: AJUNOK_clean_linker_0, # of connection points: 2
#     Edge 18, Type (0, 1), BuildingBlock: AJUNOK_clean_linker_0, # of connection points: 2
#     Edge 19, Type (0, 1), BuildingBlock: AJUNOK_clean_linker_0, # of connection points: 2
#     Edge 20, Type (0, 1), BuildingBlock: AJUNOK_clean_linker_0, # of connection points: 2
#     Edge 21, Type (0, 1), BuildingBlock: AJUNOK_clean_linker_0, # of connection points: 2
#     Edge 22, Type (0, 1), BuildingBlock: AJUNOK_clean_linker_0, # of connection points: 2
#     Edge 23, Type (0, 1), BuildingBlock: AJUNOK_clean_linker_0, # of connection points: 2
#     Edge 24, Type (0, 1), BuildingBlock: AJUNOK_clean_linker_0, # of connection points: 2
#     Edge 25, Type (0, 1), BuildingBlock: AJUNOK_clean_linker_0, # of connection points: 2
#     Edge 26, Type (0, 1), BuildingBlock: AJUNOK_clean_linker_0, # of connection points: 2
#     Edge 27, Type (0, 1), BuildingBlock: AJUNOK_clean_linker_0, # of connection points: 2
#     Edge 28, Type (0, 1), BuildingBlock: AJUNOK_clean_linker_0, # of connection points: 2
#     Edge 29, Type (0, 1), BuildingBlock: AJUNOK_clean_linker_0, # of connection points: 2
#     Edge 30, Type (0, 1), BuildingBlock: AJUNOK_clean_linker_0, # of connection points: 2
#     Edge 31, Type (0, 1), BuildingBlock: AJUNOK_clean_linker_0, # of connection points: 2
#     Edge 32, Type (0, 1), BuildingBlock: AJUNOK_clean_linker_0, # of connection points: 2
#     Edge 33, Type (0, 1), BuildingBlock: AJUNOK_clean_linker_0, # of connection points: 2
#     Edge 34, Type (0, 1), BuildingBlock: AJUNOK_clean_linker_0, # of connection points: 2
#     Edge 35, Type (0, 1), BuildingBlock: AJUNOK_clean_linker_0, # of connection points: 2
# Relax obj value: 0.043
# Max RMSD: 0.072
# Mean RMSD: 0.067
data_MOF--net-dag--node1-IZENUY_clean_sbu_0--node2-QEWDON_clean_linker_0--edge1-AJUNOK_clean_linker_0
_symmetry_space_group_name_H-M    P1
_symmetry_Int_Tables_number       1
_symmetry_cell_setting            triclinic
loop_
_symmetry_equiv_pos_as_xyz
'x, y, z'
_cell_length_a     30.762295
_cell_length_b     31.013845
_cell_length_c     28.29745
_cell_angle_alpha  91.296864
_cell_angle_beta   89.868119
_cell_angle_gamma 90.13006
loop_
_atom_site_label
_atom_site_type_symbol
_atom_site_fract_x
_atom_site_fract_y
_atom_site_fract_z
_atom_type_partial_charge
Fe0 Fe 0.20509 0.87283 0.03966 0.0
Fe1 Fe 0.10841 0.89458 0.03269 0.0
O2 O 0.14998 0.85596 0.03811 0.0
Fe3 Fe 0.13579 0.80073 0.04226 0.0
O4 O 0.16152 0.79756 0.09939 0.0
O5 O 0.22235 0.83112 0.0814 0.0
O6 O 0.19593 0.9083 0.09125 0.0
C7 C 0.16846 0.93841 0.09191 0.0
C8 C 0.21219 0.79879 0.98508 0.0
O9 O 0.13782 0.93871 0.06241 0.0
C10 C 0.07742 0.82522 0.97602 0.0
O11 O 0.19692 0.91759 0.99816 0.0
O12 O 0.1288 0.91017 0.9756 0.0
O13 O 0.18482 0.78059 0.01167 0.0
O14 O 0.21866 0.83894 0.9885 0.0
C15 C 0.07239 0.84357 0.09935 0.0
O16 O 0.07055 0.85841 1.00156 0.0
O17 O 0.10857 0.8003 0.98488 0.0
C18 C 0.16651 0.92502 0.969 0.0
O19 O 0.08615 0.88077 0.08974 0.0
O20 O 0.08436 0.81106 0.07452 0.0
C21 C 0.20029 0.80772 0.10896 0.0
Fe22 Fe 0.71473 0.60975 0.50628 0.0
Fe23 Fe 0.64687 0.68271 0.51757 0.0
O24 O 0.66009 0.62693 0.51384 0.0
Fe25 Fe 0.6185 0.58783 0.51709 0.0
O26 O 0.65221 0.54719 0.54473 0.0
O27 O 0.71388 0.57986 0.56124 0.0
O28 O 0.7382 0.65546 0.53983 0.0
C29 C 0.72233 0.68259 0.56922 0.0
C30 C 0.66769 0.55176 0.44654 0.0
O31 O 0.6823 0.69155 0.56842 0.0
C32 C 0.57949 0.65204 0.46292 0.0
O33 O 0.71909 0.63799 0.45112 0.0
O34 O 0.68976 0.69914 0.47604 0.0
O35 O 0.63123 0.56715 0.45832 0.0
O36 O 0.70128 0.56087 0.47069 0.0
C37 C 0.59155 0.64456 0.58617 0.0
O38 O 0.6104 0.67868 0.46674 0.0
O39 O 0.57663 0.62049 0.49002 0.0
C40 C 0.71132 0.6775 0.44549 0.0
O41 O 0.6014 0.6756 0.55959 0.0
O42 O 0.60339 0.60654 0.57587 0.0
C43 C 0.68647 0.55048 0.56899 0.0
Fe44 Fe 0.87586 0.19092 0.00924 0.0
Fe45 Fe 0.90773 0.09779 0.01828 0.0
O46 O 0.86478 0.13465 0.01116 0.0
Fe47 Fe 0.81082 0.11493 1.00538 0.0
O48 O 0.80608 0.13798 0.94771 0.0
O49 O 0.83195 0.20223 0.96655 0.0
O50 O 0.91184 0.1841 0.95831 0.0
C51 C 0.94402 0.15903 0.95693 0.0
C52 C 0.80085 0.19145 0.06193 0.0
O53 O 0.94835 0.12981 0.98695 0.0
C54 C 0.84043 0.06306 0.07439 0.0
O55 O 0.92227 0.18919 0.05122 0.0
O56 O 0.92205 0.1221 0.07478 0.0
O57 O 0.78582 0.1623 0.03435 0.0
O58 O 0.84047 0.20215 0.05981 0.0
C59 C 0.85994 0.05354 0.9521 0.0
O60 O 0.87535 0.05885 0.0511 0.0
O61 O 0.81202 0.09005 0.06289 0.0
C62 C 0.93336 0.1609 0.08075 0.0
O63 O 0.89587 0.07114 0.96205 0.0
O64 O 0.82593 0.06382 0.97501 0.0
C65 C 0.81167 0.17707 0.93809 0.0
Fe66 Fe 0.40046 0.40505 0.5336 0.0
Fe67 Fe 0.30414 0.38255 0.54317 0.0
O68 O 0.35899 0.36571 0.53624 0.0
Fe69 Fe 0.37262 0.31001 0.53238 0.0
O70 O 0.40868 0.31402 0.58362 0.0
O71 O 0.44236 0.37239 0.56076 0.0
O72 O 0.3872 0.42531 0.59237 0.0
C73 C 0.3506 0.44057 0.60389 0.0
C74 C 0.42803 0.34878 0.46435 0.0
O75 O 0.31712 0.4312 0.57958 0.0
C76 C 0.29777 0.30991 0.47945 0.0
O77 O 0.36686 0.44589 0.50604 0.0
O78 O 0.3055 0.41313 0.48853 0.0
O79 O 0.41838 0.31763 0.49087 0.0
O80 O 0.41601 0.38673 0.47478 0.0
C81 C 0.30692 0.31415 0.60341 0.0
O82 O 0.28125 0.33695 0.50859 0.0
O83 O 0.33782 0.3012 0.48106 0.0
C84 C 0.33274 0.44287 0.48154 0.0
O85 O 0.29906 0.3537 0.59802 0.0
O86 O 0.32939 0.29296 0.57326 0.0
C87 C 0.4396 0.34065 0.58763 0.0
H88 H 0.18061 0.09456 0.26111 0.0
C89 C 0.15469 0.11065 0.2426 0.0
C90 C 0.14216 0.09571 0.19727 0.0
C91 C 0.13217 0.14491 0.26516 0.0
H92 H 0.09664 0.10394 0.14026 0.0
C93 C 0.1076 0.11616 0.17445 0.0
C94 C 0.08427 0.14956 0.19683 0.0
C95 C 0.0965 0.16378 0.24233 0.0
C96 C 0.1401 0.15513 0.31575 0.0
H97 H 0.07728 0.1882 0.26069 0.0
C98 C 0.17179 0.18546 0.33092 0.0
C99 C 0.17673 0.19543 0.37964 0.0
C100 C 0.11426 0.13453 0.34936 0.0
H101 H 0.08984 0.11118 0.3383 0.0
C102 C 0.11947 0.14394 0.39737 0.0
H103 H 0.19159 0.20176 0.3051 0.0
C104 C 0.15027 0.17423 0.41244 0.0
H105 H 0.15359 0.18105 0.44999 0.0
H106 H 0.09936 0.12785 0.42304 0.0
H107 H 0.45181 0.68666 0.76756 0.0
C108 C 0.43069 0.66251 0.75141 0.0
C109 C 0.44182 0.64419 0.70728 0.0
C110 C 0.39409 0.6474 0.77627 0.0
H111 H 0.4262 0.59542 0.65494 0.0
C112 C 0.41619 0.61107 0.68791 0.0
C113 C 0.38087 0.59444 0.71288 0.0
C114 C 0.36924 0.61311 0.75681 0.0
C115 C 0.38737 0.66149 0.82611 0.0
H116 H 0.34318 0.59902 0.77723 0.0
C117 C 0.34956 0.68363 0.84113 0.0
C118 C 0.34429 0.69577 0.8892 0.0
C119 C 0.41954 0.6518 0.85933 0.0
H120 H 0.44873 0.6347 0.84851 0.0
C121 C 0.41413 0.66342 0.90683 0.0
H122 H 0.32462 0.69139 0.81573 0.0
C123 C 0.37676 0.68513 0.92174 0.0
H124 H 0.37342 0.69421 0.95878 0.0
H125 H 0.43903 0.6556 0.93218 0.0
H126 H 0.8859 0.79662 0.21573 0.0
C127 C 0.87578 0.82878 0.20652 0.0
C128 C 0.90654 0.85878 0.19029 0.0
C129 C 0.8313 0.83943 0.20811 0.0
H130 H 0.91502 0.923 0.16393 0.0
C131 C 0.8922 0.90014 0.17856 0.0
C132 C 0.84826 0.91162 0.18136 0.0
C133 C 0.81772 0.88083 0.19527 0.0
C134 C 0.79841 0.80571 0.21655 0.0
H135 H 0.78339 0.88872 0.19518 0.0
C136 C 0.79311 0.78749 0.26131 0.0
C137 C 0.76119 0.75553 0.26826 0.0
C138 C 0.77194 0.79168 0.17889 0.0
H139 H 0.77564 0.80536 0.1442 0.0
C140 C 0.74084 0.75961 0.18551 0.0
H141 H 0.81347 0.79827 0.29049 0.0
C142 C 0.73547 0.74158 0.22984 0.0
H143 H 0.71064 0.71717 0.23435 0.0
H144 H 0.72066 0.74885 0.15623 0.0
H145 H 0.73092 0.3702 0.68704 0.0
C146 C 0.69614 0.36443 0.68614 0.0
C147 C 0.6683 0.39674 0.67053 0.0
C148 C 0.67956 0.3237 0.69745 0.0
H149 H 0.60284 0.41259 0.65143 0.0
C150 C 0.62371 0.38816 0.66615 0.0
C151 C 0.6066 0.3472 0.67586 0.0
C152 C 0.63481 0.31515 0.6923 0.0
C153 C 0.71016 0.28813 0.7057 0.0
H154 H 0.62245 0.2831 0.69894 0.0
C155 C 0.72055 0.27498 0.75162 0.0
C156 C 0.75031 0.2411 0.75798 0.0
C157 C 0.72995 0.26776 0.66649 0.0
H158 H 0.72242 0.27772 0.63097 0.0
C159 C 0.75965 0.23453 0.67275 0.0
H160 H 0.70536 0.29067 0.78201 0.0
C161 C 0.76983 0.22126 0.71814 0.0
H162 H 0.79319 0.19552 0.7222 0.0
H163 H 0.77488 0.21904 0.64234 0.0
H164 H 0.67435 0.39558 0.27084 0.0
C165 C 0.64855 0.38119 0.29139 0.0
C166 C 0.63745 0.39918 0.33578 0.0
C167 C 0.6235 0.34718 0.27175 0.0
H168 H 0.59289 0.39738 0.39437 0.0
C169 C 0.60247 0.38219 0.361 0.0
C170 C 0.57654 0.34942 0.34142 0.0
C171 C 0.58713 0.33177 0.29682 0.0
C172 C 0.6296 0.33377 0.22166 0.0
H173 H 0.56579 0.30789 0.28052 0.0
C174 C 0.66596 0.30953 0.20622 0.0
C175 C 0.66928 0.29576 0.15842 0.0
C176 C 0.59758 0.34506 0.18895 0.0
H177 H 0.56956 0.36383 0.20015 0.0
C178 C 0.60138 0.33239 0.1416 0.0
H179 H 0.6905 0.3002 0.2314 0.0
C180 C 0.63678 0.30777 0.12644 0.0
H181 H 0.63876 0.29789 0.08952 0.0
H182 H 0.57656 0.34135 0.11663 0.0
H183 H 0.2227 0.09812 0.84732 0.0
C184 C 0.18936 0.1093 0.84926 0.0
C185 C 0.15644 0.08107 0.86393 0.0
C186 C 0.17969 0.15244 0.8388 0.0
H187 H 0.08873 0.07586 0.88249 0.0
C188 C 0.11379 0.09659 0.86826 0.0
C189 C 0.10375 0.13971 0.85929 0.0
C190 C 0.13681 0.16759 0.8442 0.0
C191 C 0.21553 0.18305 0.82948 0.0
H192 H 0.12966 0.20137 0.83901 0.0
C193 C 0.22053 0.20261 0.78525 0.0
C194 C 0.25497 0.23189 0.77781 0.0
C195 C 0.24503 0.19294 0.86591 0.0
H196 H 0.24169 0.17824 0.90011 0.0
C197 C 0.27871 0.22224 0.85879 0.0
H198 H 0.19794 0.195 0.75692 0.0
C199 C 0.28364 0.24168 0.81515 0.0
H200 H 0.3104 0.26394 0.81026 0.0
H201 H 0.30118 0.22982 0.88718 0.0
H202 H 0.39877 0.70927 0.34912 0.0
C203 C 0.38571 0.67759 0.35637 0.0
C204 C 0.41313 0.64542 0.37375 0.0
C205 C 0.3409 0.66985 0.35099 0.0
H206 H 0.41569 0.58043 0.39942 0.0
C207 C 0.39529 0.60493 0.38411 0.0
C208 C 0.35059 0.59696 0.37951 0.0
C209 C 0.3234 0.62958 0.36302 0.0
C210 C 0.31151 0.70627 0.34186 0.0
H211 H 0.28854 0.62446 0.36195 0.0
C212 C 0.29865 0.71663 0.29573 0.0
C213 C 0.2697 0.75111 0.28867 0.0
C214 C 0.29592 0.73078 0.38052 0.0
H215 H 0.30564 0.72325 0.41618 0.0
C216 C 0.26756 0.76503 0.37357 0.0
H217 H 0.31039 0.69757 0.26579 0.0
C218 C 0.25436 0.77506 0.32802 0.0
H219 H 0.23217 0.80172 0.32344 0.0
H220 H 0.25562 0.78375 0.4036 0.0
H221 H 0.9428 0.79592 0.78944 0.0
C222 C 0.92548 0.82319 0.80492 0.0
C223 C 0.93579 0.83788 0.85085 0.0
C224 C 0.89382 0.84471 0.77835 0.0
H225 H 0.92395 0.88717 0.90421 0.0
C226 C 0.91465 0.8744 0.86964 0.0
C227 C 0.88427 0.89689 0.84315 0.0
C228 C 0.87359 0.88192 0.79746 0.0
C229 C 0.88744 0.83254 0.72809 0.0
H230 H 0.85127 0.90017 0.77613 0.0
C231 C 0.85343 0.80484 0.71322 0.0
C232 C 0.84963 0.79252 0.66507 0.0
C233 C 0.91688 0.84831 0.69472 0.0
H234 H 0.94316 0.8696 0.70565 0.0
C235 C 0.91283 0.83661 0.64711 0.0
H236 H 0.83089 0.79222 0.73897 0.0
C237 C 0.87962 0.8088 0.63235 0.0
H238 H 0.87726 0.79999 0.59517 0.0
H239 H 0.93569 0.84891 0.62157 0.0
C240 C 0.1784 0.01744 0.10073 0.0
C241 C 0.17434 0.97725 0.12229 0.0
C242 C 0.17208 0.05604 0.12653 0.0
C243 C 0.16077 0.05591 0.17477 0.0
H244 H 0.18392 0.01897 0.06295 0.0
H245 H 0.17321 0.08614 0.10786 0.0
S246 S 0.14873 0.95881 0.24806 0.0
N247 N 0.16127 0.93934 0.19494 0.0
N248 N 0.14842 0.01186 0.24363 0.0
C249 C 0.15944 0.0159 0.19743 0.0
C250 C 0.16634 0.97653 0.17107 0.0
C251 C 0.52578 0.68223 0.61967 0.0
C252 C 0.55849 0.65074 0.62401 0.0
C253 C 0.48907 0.68254 0.64945 0.0
C254 C 0.48452 0.65204 0.68507 0.0
H255 H 0.52693 0.7048 0.59103 0.0
H256 H 0.463 0.70501 0.6428 0.0
S257 S 0.56258 0.56618 0.71458 0.0
N258 N 0.58516 0.59065 0.66944 0.0
N259 N 0.51663 0.59194 0.72549 0.0
C260 C 0.51827 0.62255 0.6919 0.0
C261 C 0.5552 0.62176 0.6614 0.0
C262 C 0.80587 0.99415 0.0972 0.0
C263 C 0.8309 0.03056 0.10987 0.0
C264 C 0.80791 0.95645 0.12373 0.0
C265 C 0.83519 0.95423 0.16347 0.0
H266 H 0.78762 0.99355 0.06448 0.0
H267 H 0.79115 0.92784 0.11065 0.0
S268 S 0.90173 0.04332 0.21477 0.0
N269 N 0.87961 0.06387 0.16716 0.0
N270 N 0.88302 0.99347 0.21754 0.0
C271 C 0.85703 0.99187 0.17876 0.0
C272 C 0.85511 0.02994 0.15168 0.0
C273 C 0.48672 0.3656 0.65361 0.0
C274 C 0.47653 0.33343 0.61964 0.0
C275 C 0.52779 0.36746 0.675 0.0
C276 C 0.56057 0.33763 0.66261 0.0
H277 H 0.46366 0.39114 0.66151 0.0
H278 H 0.53486 0.39412 0.6992 0.0
S279 S 0.54929 0.24607 0.57664 0.0
N280 N 0.50126 0.26979 0.57628 0.0
N281 N 0.57895 0.27354 0.61557 0.0
C282 C 0.54981 0.30369 0.63072 0.0
C283 C 0.50768 0.30161 0.60932 0.0
C284 C 0.63623 0.51499 0.37525 0.0
C285 C 0.6686 0.51648 0.41029 0.0
C286 C 0.62975 0.47791 0.34702 0.0
C287 C 0.65518 0.44087 0.353 0.0
H288 H 0.61408 0.54179 0.37143 0.0
H289 H 0.60236 0.47697 0.32297 0.0
S290 S 0.74734 0.42945 0.43548 0.0
N291 N 0.72966 0.4791 0.44548 0.0
N292 N 0.71608 0.40877 0.39327 0.0
C293 C 0.68967 0.44285 0.3852 0.0
C294 C 0.69683 0.48092 0.41358 0.0
C295 C 0.01715 0.18834 0.93797 0.0
C296 C 0.97989 0.16553 0.92322 0.0
C297 C 0.05675 0.18372 0.91356 0.0
C298 C 0.06026 0.15579 0.87387 0.0
H299 H 0.01646 0.20741 0.97041 0.0
H300 H 0.08553 0.19903 0.92829 0.0
S301 S 0.97038 0.09447 0.81687 0.0
N302 N 0.94748 0.11868 0.86321 0.0
N303 N 0.02196 0.10943 0.81756 0.0
C304 C 0.02227 0.13592 0.85645 0.0
C305 C 0.98201 0.14088 0.88114 0.0
C306 C 0.31801 0.52069 0.47456 0.0
C307 C 0.32226 0.48002 0.45204 0.0
C308 C 0.32283 0.55881 0.44941 0.0
C309 C 0.33265 0.55759 0.40092 0.0
H310 H 0.31434 0.52306 0.51258 0.0
H311 H 0.3224 0.58937 0.46877 0.0
S312 S 0.3421 0.4596 0.32442 0.0
N313 N 0.33256 0.44082 0.37769 0.0
N314 N 0.3425 0.51275 0.33033 0.0
C315 C 0.33394 0.51731 0.37727 0.0
C316 C 0.32848 0.47838 0.40288 0.0
C317 C 0.05039 0.81959 0.89309 0.0
C318 C 0.04355 0.81299 0.94153 0.0
C319 C 0.01498 0.82271 0.86189 0.0
C320 C 0.9719 0.81943 0.87848 0.0
H321 H 0.08282 0.82626 0.88009 0.0
H322 H 0.02119 0.83174 0.82574 0.0
S323 S 0.93754 0.79672 1.00091 0.0
N324 N 0.99112 0.79918 1.00352 0.0
N325 N 0.9249 0.8042 0.94503 0.0
C326 C 0.96517 0.8088 0.92589 0.0
C327 C 1.00095 0.80594 0.95745 0.0
C328 C 0.89145 0.0129 0.88296 0.0
C329 C 0.85957 0.01599 0.9186 0.0
C330 C 0.89626 0.97531 0.85506 0.0
C331 C 0.86966 0.93918 0.86213 0.0
H332 H 0.91412 0.03905 0.87796 0.0
H333 H 0.9229 0.97344 0.82996 0.0
S334 S 0.78049 0.93045 0.94945 0.0
N335 N 0.79949 0.97991 0.95772 0.0
N336 N 0.80969 0.90873 0.90604 0.0
C337 C 0.83652 0.9422 0.89613 0.0
C338 C 0.8311 0.98078 0.92414 0.0
C339 C 0.49391 0.31156 0.43052 0.0
C340 C 0.46088 0.34273 0.42628 0.0
C341 C 0.53025 0.31124 0.40022 0.0
C342 C 0.5341 0.34137 0.36414 0.0
H343 H 0.49326 0.28924 0.45942 0.0
H344 H 0.55659 0.28905 0.40678 0.0
S345 S 0.45496 0.42634 0.3348 0.0
N346 N 0.43316 0.40216 0.38058 0.0
N347 N 0.501 0.40085 0.32351 0.0
C348 C 0.50003 0.37056 0.35747 0.0
C349 C 0.46349 0.37138 0.38853 0.0
C350 C 0.2002 0.99438 0.94316 0.0
C351 C 0.17139 0.9598 0.93412 0.0
C352 C 0.1977 0.03255 0.91744 0.0
C353 C 0.16648 0.03737 0.88165 0.0
H354 H 0.22262 0.99334 0.97258 0.0
H355 H 0.21816 0.05953 0.92806 0.0
S356 S 0.08966 0.95327 0.83791 0.0
N357 N 0.11512 0.9306 0.88223 0.0
N358 N 0.11079 1.00205 0.8338 0.0
C359 C 0.1404 1.00156 0.86937 0.0
C360 C 0.14279 0.96286 0.89559 0.0
C361 C 0.53255 0.62622 0.39732 0.0
C362 C 0.54281 0.65895 0.43062 0.0
C363 C 0.4916 0.62429 0.37574 0.0
C364 C 0.45908 0.65465 0.38727 0.0
H365 H 0.55542 0.60036 0.39015 0.0
H366 H 0.4844 0.59726 0.35209 0.0
S367 S 0.47074 0.74775 0.47116 0.0
N368 N 0.51853 0.72362 0.47236 0.0
N369 N 0.44102 0.71978 0.43271 0.0
C370 C 0.46996 0.6891 0.41844 0.0
C371 C 0.51196 0.69123 0.44002 0.0
C372 C 0.38205 0.47812 0.67477 0.0
C373 C 0.34955 0.47616 0.63986 0.0
C374 C 0.38866 0.51555 0.70242 0.0
C375 C 0.36322 0.55253 0.69601 0.0
H376 H 0.40424 0.45139 0.6789 0.0
H377 H 0.41611 0.51677 0.72636 0.0
S378 S 0.27077 0.56289 0.61369 0.0
N379 N 0.28841 0.51313 0.60435 0.0
N380 N 0.30217 0.58409 0.65547 0.0
C381 C 0.32861 0.55013 0.66396 0.0
C382 C 0.32134 0.51169 0.63615 0.0
C383 C 0.02564 0.8751 0.16354 0.0
C384 C 0.03502 0.84024 0.13255 0.0
C385 C 0.98554 0.87818 0.18682 0.0
C386 C 0.95262 0.84712 0.17916 0.0
H387 H 0.04848 0.90154 0.16785 0.0
H388 H 0.97907 0.90688 0.20821 0.0
S389 S 0.96511 0.74402 0.11114 0.0
N390 N 0.01187 0.76926 0.10383 0.0
N391 N 0.93529 0.77643 0.14495 0.0
C392 C 0.96345 0.80964 0.15266 0.0
C393 C 1.00493 0.80594 0.12989 0.0
C394 C 0.7021 0.47308 0.57623 0.0
C395 C 0.69711 0.51367 0.59867 0.0
C396 C 0.6968 0.435 0.60123 0.0
C397 C 0.6858 0.43628 0.6494 0.0
H398 H 0.70664 0.47074 0.53832 0.0
H399 H 0.69787 0.40442 0.58194 0.0
S400 S 0.6749 0.53413 0.7258 0.0
N401 N 0.68533 0.55294 0.67273 0.0
N402 N 0.67461 0.48098 0.71985 0.0
C403 C 0.68396 0.47649 0.67309 0.0
C404 C 0.68986 0.51538 0.64764 0.0
C405 C 0.9669 0.14763 0.15929 0.0
C406 C 0.96783 0.16974 0.11637 0.0
C407 C 1.00394 0.14496 0.18796 0.0
C408 C 0.04342 0.16397 0.17448 0.0
H409 H 0.93803 0.1301 0.16937 0.0
H410 H 1.00259 0.12511 0.21896 0.0
S411 S 0.06217 0.2294 0.06849 0.0
N412 N 0.01058 0.21482 0.06459 0.0
N413 N 0.08058 0.20853 0.11777 0.0
C414 C 0.04409 0.18869 0.13354 0.0
C415 C 1.00612 0.19207 0.10474 0.0
C416 C 0.19214 0.77743 0.18961 0.0
C417 C 0.21979 0.7912 0.15311 0.0
C418 C 0.20876 0.76343 0.23264 0.0
C419 C 0.25374 0.762 0.24091 0.0
H420 H 0.15716 0.77842 0.18547 0.0
H421 H 0.18613 0.75412 0.26001 0.0
S422 S 0.34046 0.7925 0.15683 0.0
N423 N 0.29481 0.80118 0.12793 0.0
N424 N 0.32589 0.77436 0.209 0.0
C425 C 0.28194 0.77445 0.20453 0.0
C426 C 0.26501 0.78927 0.16067 0.0
C427 C 0.79768 0.69871 0.59817 0.0
C428 C 0.75285 0.70814 0.59997 0.0
C429 C 0.82834 0.72504 0.62132 0.0
C430 C 0.81571 0.76179 0.6478 0.0
H431 H 0.8096 0.6715 0.5773 0.0
H432 H 0.8625 0.71726 0.6173 0.0
S433 S 0.70274 0.79933 0.66782 0.0
N434 N 0.69738 0.75581 0.63354 0.0
N435 N 0.75545 0.80512 0.67717 0.0
C436 C 0.77107 0.77052 0.65228 0.0
C437 C 0.73959 0.74378 0.62837 0.0
C438 C 0.72559 0.20372 0.09318 0.0
C439 C 0.76963 0.21643 0.09239 0.0
C440 C 0.69399 0.22856 0.1167 0.0
C441 C 0.70484 0.26712 0.14091 0.0
H442 H 0.71492 0.17488 0.07423 0.0
H443 H 0.66039 0.21808 0.11475 0.0
S444 S 0.81543 0.31345 0.15384 0.0
N445 N 0.82269 0.2692 0.12118 0.0
N446 N 0.76281 0.3158 0.16545 0.0
C447 C 0.74884 0.27928 0.1428 0.0
C448 C 0.7813 0.254 0.11854 0.0
C449 C 0.27909 0.3169 0.68677 0.0
C450 C 0.28949 0.2923 0.64584 0.0
C451 C 0.26626 0.29714 0.72872 0.0
C452 C 0.26251 0.25204 0.73129 0.0
H453 H 0.2824 0.35169 0.68704 0.0
H454 H 0.26013 0.3173 0.75979 0.0
S455 S 0.2828 0.17294 0.63365 0.0
N456 N 0.29293 0.2202 0.61015 0.0
N457 N 0.26836 0.18335 0.68898 0.0
C458 C 0.27099 0.2271 0.69027 0.0
C459 C 0.28465 0.24713 0.64761 0.0
C460 C 0.74023 0.67314 0.36275 0.0
C461 C 0.72783 0.69868 0.40232 0.0
C462 C 0.75245 0.69188 0.3201 0.0
C463 C 0.75335 0.73689 0.31539 0.0
H464 H 0.73919 0.63828 0.36411 0.0
H465 H 0.76048 0.67091 0.2902 0.0
S466 S 0.72656 0.81847 0.40863 0.0
N467 N 0.71925 0.77174 0.43437 0.0
N468 N 0.7424 0.80671 0.35406 0.0
C469 C 0.74266 0.76292 0.35497 0.0
C470 C 0.72978 0.74389 0.3984 0.0
C471 C 0.79592 0.23782 0.88278 0.0
C472 C 0.79282 0.1937 0.8935 0.0
C473 C 0.78034 0.25351 0.83973 0.0
C474 C 0.76142 0.22561 0.80571 0.0
H475 H 0.81117 0.26037 0.90741 0.0
H476 H 0.78453 0.28738 0.8323 0.0
S477 S 0.7423 0.10827 0.81695 0.0
N478 N 0.76676 0.12291 0.86662 0.0
N479 N 0.73788 0.15269 0.78633 0.0
C480 C 0.75679 0.1819 0.81643 0.0
C481 C 0.77237 0.16588 0.86011 0.0
C482 C 0.22278 0.28902 0.45238 0.0
C483 C 0.26816 0.28389 0.44794 0.0
C484 C 0.19364 0.26171 0.4281 0.0
C485 C 0.20837 0.22827 0.39778 0.0
H486 H 0.20936 0.31334 0.47627 0.0
H487 H 0.15912 0.26594 0.4343 0.0
S488 S 0.32337 0.20299 0.36972 0.0
N489 N 0.32621 0.24415 0.40769 0.0
N490 N 0.27105 0.193 0.3621 0.0
C491 C 0.2534 0.22406 0.39076 0.0
C492 C 0.28333 0.25175 0.41581 0.0
C493 C 0.24833 0.72807 0.96622 0.0
C494 C 0.24176 0.77165 0.95513 0.0
C495 C 0.28 0.70303 0.94283 0.0
C496 C 0.30582 0.7202 0.90673 0.0
H497 H 0.23034 0.71362 0.99478 0.0
H498 H 0.28542 0.67034 0.95418 0.0
S499 S 0.29901 0.83086 0.86072 0.0
N500 N 0.26195 0.82986 0.90304 0.0
N501 N 0.32109 0.78234 0.85881 0.0
C502 C 0.29808 0.76282 0.89336 0.0
C503 C 0.2662 0.78864 0.91763 0.0
loop_
_geom_bond_atom_site_label_1
_geom_bond_atom_site_label_2
_geom_bond_distance
_geom_bond_site_symmetry_2
_ccdc_geom_bond_type
Fe0 O2 1.918 . S
Fe0 O5 1.997 . S
Fe0 O6 2.002 . S
Fe0 O11 1.976 1_554 S
Fe0 O14 1.996 1_554 S
Fe1 O2 1.918 . S
Fe1 O9 1.997 . S
Fe1 O12 1.996 1_554 S
Fe1 O16 1.976 1_554 S
Fe1 O19 2.002 . S
O2 Fe0 1.918 . S
O2 Fe1 1.918 . S
O2 Fe3 1.918 . S
Fe3 O2 1.918 . S
Fe3 O4 2.002 . S
Fe3 O13 1.976 1_554 S
Fe3 O17 1.996 1_554 S
Fe3 O20 1.997 . S
O4 Fe3 2.002 . S
O4 C21 1.295 . S
O5 Fe0 1.997 . S
O5 C21 1.235 . S
O6 Fe0 2.002 . S
O6 C7 1.295 . S
C7 O6 1.295 . S
C7 O9 1.235 . S
C8 O13 1.287 . S
C8 O14 1.255 . S
O9 Fe1 1.997 . S
O9 C7 1.235 . S
C10 O16 1.287 . S
C10 O17 1.255 . S
O11 Fe0 1.976 1_556 S
O11 C18 1.287 . S
O12 Fe1 1.996 1_556 S
O12 C18 1.255 . S
O13 Fe3 1.976 1_556 S
O13 C8 1.287 . S
O14 Fe0 1.996 1_556 S
O14 C8 1.255 . S
C15 O19 1.295 . S
C15 O20 1.235 . S
O16 Fe1 1.976 1_556 S
O16 C10 1.287 . S
O17 Fe3 1.996 1_556 S
O17 C10 1.255 . S
C18 O11 1.287 . S
C18 O12 1.255 . S
O19 Fe1 2.002 . S
O19 C15 1.295 . S
O20 Fe3 1.997 . S
O20 C15 1.235 . S
C21 O4 1.295 . S
C21 O5 1.235 . S
Fe22 O24 1.918 . S
Fe22 O27 1.997 . S
Fe22 O28 2.002 . S
Fe22 O33 1.976 . S
Fe22 O36 1.996 . S
Fe23 O24 1.918 . S
Fe23 O31 1.997 . S
Fe23 O34 1.996 . S
Fe23 O38 1.976 . S
Fe23 O41 2.002 . S
O24 Fe22 1.918 . S
O24 Fe23 1.918 . S
O24 Fe25 1.918 . S
Fe25 O24 1.918 . S
Fe25 O26 2.002 . S
Fe25 O35 1.976 . S
Fe25 O39 1.996 . S
Fe25 O42 1.997 . S
O26 Fe25 2.002 . S
O26 C43 1.295 . S
O27 Fe22 1.997 . S
O27 C43 1.235 . S
O28 Fe22 2.002 . S
O28 C29 1.295 . S
C29 O28 1.295 . S
C29 O31 1.235 . S
C30 O35 1.287 . S
C30 O36 1.255 . S
O31 Fe23 1.997 . S
O31 C29 1.235 . S
C32 O38 1.287 . S
C32 O39 1.255 . S
O33 Fe22 1.976 . S
O33 C40 1.287 . S
O34 Fe23 1.996 . S
O34 C40 1.255 . S
O35 Fe25 1.976 . S
O35 C30 1.287 . S
O36 Fe22 1.996 . S
O36 C30 1.255 . S
C37 O41 1.295 . S
C37 O42 1.235 . S
O38 Fe23 1.976 . S
O38 C32 1.287 . S
O39 Fe25 1.996 . S
O39 C32 1.255 . S
C40 O33 1.287 . S
C40 O34 1.255 . S
O41 Fe23 2.002 . S
O41 C37 1.295 . S
O42 Fe25 1.997 . S
O42 C37 1.235 . S
C43 O26 1.295 . S
C43 O27 1.235 . S
Fe44 O46 1.918 . S
Fe44 O49 1.997 1_554 S
Fe44 O50 2.002 1_554 S
Fe44 O55 1.976 . S
Fe44 O58 1.996 . S
Fe45 O46 1.918 . S
Fe45 O53 1.997 1_554 S
Fe45 O56 1.996 . S
Fe45 O60 1.976 . S
Fe45 O63 2.002 1_554 S
O46 Fe44 1.918 . S
O46 Fe45 1.918 . S
O46 Fe47 1.918 . S
Fe47 O46 1.918 . S
Fe47 O48 2.002 1_554 S
Fe47 O57 1.976 . S
Fe47 O61 1.996 . S
Fe47 O64 1.997 1_554 S
O48 Fe47 2.002 1_556 S
O48 C65 1.295 . S
O49 Fe44 1.997 1_556 S
O49 C65 1.235 . S
O50 Fe44 2.002 1_556 S
O50 C51 1.295 . S
C51 O50 1.295 . S
C51 O53 1.235 . S
C52 O57 1.287 . S
C52 O58 1.255 . S
O53 Fe45 1.997 1_556 S
O53 C51 1.235 . S
C54 O60 1.287 . S
C54 O61 1.255 . S
O55 Fe44 1.976 . S
O55 C62 1.287 . S
O56 Fe45 1.996 . S
O56 C62 1.255 . S
O57 Fe47 1.976 . S
O57 C52 1.287 . S
O58 Fe44 1.996 . S
O58 C52 1.255 . S
C59 O63 1.295 . S
C59 O64 1.235 . S
O60 Fe45 1.976 . S
O60 C54 1.287 . S
O61 Fe47 1.996 . S
O61 C54 1.255 . S
C62 O55 1.287 . S
C62 O56 1.255 . S
O63 Fe45 2.002 1_556 S
O63 C59 1.295 . S
O64 Fe47 1.997 1_556 S
O64 C59 1.235 . S
C65 O48 1.295 . S
C65 O49 1.235 . S
Fe66 O68 1.918 . S
Fe66 O71 1.997 . S
Fe66 O72 2.002 . S
Fe66 O77 1.976 . S
Fe66 O80 1.996 . S
Fe67 O68 1.918 . S
Fe67 O75 1.997 . S
Fe67 O78 1.996 . S
Fe67 O82 1.976 . S
Fe67 O85 2.002 . S
O68 Fe66 1.918 . S
O68 Fe67 1.918 . S
O68 Fe69 1.918 . S
Fe69 O68 1.918 . S
Fe69 O70 2.002 . S
Fe69 O79 1.976 . S
Fe69 O83 1.996 . S
Fe69 O86 1.997 . S
O70 Fe69 2.002 . S
O70 C87 1.295 . S
O71 Fe66 1.997 . S
O71 C87 1.235 . S
O72 Fe66 2.002 . S
O72 C73 1.295 . S
C73 O72 1.295 . S
C73 O75 1.235 . S
C74 O79 1.287 . S
C74 O80 1.255 . S
O75 Fe67 1.997 . S
O75 C73 1.235 . S
C76 O82 1.287 . S
C76 O83 1.255 . S
O77 Fe66 1.976 . S
O77 C84 1.287 . S
O78 Fe67 1.996 . S
O78 C84 1.255 . S
O79 Fe69 1.976 . S
O79 C74 1.287 . S
O80 Fe66 1.996 . S
O80 C74 1.255 . S
C81 O85 1.295 . S
C81 O86 1.235 . S
O82 Fe67 1.976 . S
O82 C76 1.287 . S
O83 Fe69 1.996 . S
O83 C76 1.255 . S
C84 O77 1.287 . S
C84 O78 1.255 . S
O85 Fe67 2.002 . S
O85 C81 1.295 . S
O86 Fe69 1.997 . S
O86 C81 1.235 . S
C87 O70 1.295 . S
C87 O71 1.235 . S
H88 C89 0.949 . S
C89 H88 0.949 . S
C89 C90 1.395 . S
C89 C91 1.391 . S
C90 C89 1.395 . S
C90 C93 1.390 . S
C91 C89 1.391 . S
C91 C95 1.387 . S
C91 C96 1.491 . S
H92 C93 0.950 . S
C93 C90 1.390 . S
C93 H92 0.950 . S
C93 C94 1.378 . S
C94 C93 1.378 . S
C94 C95 1.409 . S
C95 C91 1.387 . S
C95 C94 1.409 . S
C95 H97 0.951 . S
C96 C91 1.491 . S
C96 C98 1.382 . S
C96 C100 1.404 . S
H97 C95 0.951 . S
C98 C96 1.382 . S
C98 C99 1.390 . S
C98 H103 0.949 . S
C99 C98 1.390 . S
C99 C104 1.399 . S
C100 C96 1.404 . S
C100 H101 0.950 . S
C100 C102 1.375 . S
H101 C100 0.950 . S
C102 C100 1.375 . S
C102 C104 1.382 . S
C102 H106 0.950 . S
H103 C98 0.949 . S
C104 C99 1.399 . S
C104 C102 1.382 . S
C104 H105 0.952 . S
H105 C104 0.952 . S
H106 C102 0.950 . S
H107 C108 0.949 . S
C108 H107 0.949 . S
C108 C109 1.395 . S
C108 C110 1.391 . S
C109 C108 1.395 . S
C109 C112 1.390 . S
C110 C108 1.391 . S
C110 C114 1.387 . S
C110 C115 1.491 . S
H111 C112 0.950 . S
C112 C109 1.390 . S
C112 H111 0.950 . S
C112 C113 1.378 . S
C113 C112 1.378 . S
C113 C114 1.409 . S
C114 C110 1.387 . S
C114 C113 1.409 . S
C114 H116 0.951 . S
C115 C110 1.491 . S
C115 C117 1.382 . S
C115 C119 1.404 . S
H116 C114 0.951 . S
C117 C115 1.382 . S
C117 C118 1.390 . S
C117 H122 0.949 . S
C118 C117 1.390 . S
C118 C123 1.399 . S
C119 C115 1.404 . S
C119 H120 0.950 . S
C119 C121 1.375 . S
H120 C119 0.950 . S
C121 C119 1.375 . S
C121 C123 1.382 . S
C121 H125 0.950 . S
H122 C117 0.949 . S
C123 C118 1.399 . S
C123 C121 1.382 . S
C123 H124 0.952 . S
H124 C123 0.952 . S
H125 C121 0.950 . S
H126 C127 0.949 . S
C127 H126 0.949 . S
C127 C128 1.395 . S
C127 C129 1.391 . S
C128 C127 1.395 . S
C128 C131 1.390 . S
C129 C127 1.391 . S
C129 C133 1.387 . S
C129 C134 1.491 . S
H130 C131 0.950 . S
C131 C128 1.390 . S
C131 H130 0.950 . S
C131 C132 1.378 . S
C132 C131 1.378 . S
C132 C133 1.409 . S
C133 C129 1.387 . S
C133 C132 1.409 . S
C133 H135 0.951 . S
C134 C129 1.491 . S
C134 C136 1.382 . S
C134 C138 1.404 . S
H135 C133 0.951 . S
C136 C134 1.382 . S
C136 C137 1.390 . S
C136 H141 0.949 . S
C137 C136 1.390 . S
C137 C142 1.399 . S
C138 C134 1.404 . S
C138 H139 0.950 . S
C138 C140 1.375 . S
H139 C138 0.950 . S
C140 C138 1.375 . S
C140 C142 1.382 . S
C140 H144 0.950 . S
H141 C136 0.949 . S
C142 C137 1.399 . S
C142 C140 1.382 . S
C142 H143 0.952 . S
H143 C142 0.952 . S
H144 C140 0.950 . S
H145 C146 0.949 . S
C146 H145 0.949 . S
C146 C147 1.395 . S
C146 C148 1.391 . S
C147 C146 1.395 . S
C147 C150 1.390 . S
C148 C146 1.391 . S
C148 C152 1.387 . S
C148 C153 1.491 . S
H149 C150 0.950 . S
C150 C147 1.390 . S
C150 H149 0.950 . S
C150 C151 1.378 . S
C151 C150 1.378 . S
C151 C152 1.409 . S
C152 C148 1.387 . S
C152 C151 1.409 . S
C152 H154 0.951 . S
C153 C148 1.491 . S
C153 C155 1.382 . S
C153 C157 1.404 . S
H154 C152 0.951 . S
C155 C153 1.382 . S
C155 C156 1.390 . S
C155 H160 0.949 . S
C156 C155 1.390 . S
C156 C161 1.399 . S
C157 C153 1.404 . S
C157 H158 0.950 . S
C157 C159 1.375 . S
H158 C157 0.950 . S
C159 C157 1.375 . S
C159 C161 1.382 . S
C159 H163 0.950 . S
H160 C155 0.949 . S
C161 C156 1.399 . S
C161 C159 1.382 . S
C161 H162 0.952 . S
H162 C161 0.952 . S
H163 C159 0.950 . S
H164 C165 0.949 . S
C165 H164 0.949 . S
C165 C166 1.395 . S
C165 C167 1.391 . S
C166 C165 1.395 . S
C166 C169 1.390 . S
C167 C165 1.391 . S
C167 C171 1.387 . S
C167 C172 1.491 . S
H168 C169 0.950 . S
C169 C166 1.390 . S
C169 H168 0.950 . S
C169 C170 1.378 . S
C170 C169 1.378 . S
C170 C171 1.409 . S
C171 C167 1.387 . S
C171 C170 1.409 . S
C171 H173 0.951 . S
C172 C167 1.491 . S
C172 C174 1.382 . S
C172 C176 1.404 . S
H173 C171 0.951 . S
C174 C172 1.382 . S
C174 C175 1.390 . S
C174 H179 0.949 . S
C175 C174 1.390 . S
C175 C180 1.399 . S
C176 C172 1.404 . S
C176 H177 0.950 . S
C176 C178 1.375 . S
H177 C176 0.950 . S
C178 C176 1.375 . S
C178 C180 1.382 . S
C178 H182 0.950 . S
H179 C174 0.949 . S
C180 C175 1.399 . S
C180 C178 1.382 . S
C180 H181 0.952 . S
H181 C180 0.952 . S
H182 C178 0.950 . S
H183 C184 0.949 . S
C184 H183 0.949 . S
C184 C185 1.395 . S
C184 C186 1.391 . S
C185 C184 1.395 . S
C185 C188 1.390 . S
C186 C184 1.391 . S
C186 C190 1.387 . S
C186 C191 1.491 . S
H187 C188 0.950 . S
C188 C185 1.390 . S
C188 H187 0.950 . S
C188 C189 1.378 . S
C189 C188 1.378 . S
C189 C190 1.409 . S
C190 C186 1.387 . S
C190 C189 1.409 . S
C190 H192 0.951 . S
C191 C186 1.491 . S
C191 C193 1.382 . S
C191 C195 1.404 . S
H192 C190 0.951 . S
C193 C191 1.382 . S
C193 C194 1.390 . S
C193 H198 0.949 . S
C194 C193 1.390 . S
C194 C199 1.399 . S
C195 C191 1.404 . S
C195 H196 0.950 . S
C195 C197 1.375 . S
H196 C195 0.950 . S
C197 C195 1.375 . S
C197 C199 1.382 . S
C197 H201 0.950 . S
H198 C193 0.949 . S
C199 C194 1.399 . S
C199 C197 1.382 . S
C199 H200 0.952 . S
H200 C199 0.952 . S
H201 C197 0.950 . S
H202 C203 0.949 . S
C203 H202 0.949 . S
C203 C204 1.395 . S
C203 C205 1.391 . S
C204 C203 1.395 . S
C204 C207 1.390 . S
C205 C203 1.391 . S
C205 C209 1.387 . S
C205 C210 1.491 . S
H206 C207 0.950 . S
C207 C204 1.390 . S
C207 H206 0.950 . S
C207 C208 1.378 . S
C208 C207 1.378 . S
C208 C209 1.409 . S
C209 C205 1.387 . S
C209 C208 1.409 . S
C209 H211 0.951 . S
C210 C205 1.491 . S
C210 C212 1.382 . S
C210 C214 1.404 . S
H211 C209 0.951 . S
C212 C210 1.382 . S
C212 C213 1.390 . S
C212 H217 0.949 . S
C213 C212 1.390 . S
C213 C218 1.399 . S
C214 C210 1.404 . S
C214 H215 0.950 . S
C214 C216 1.375 . S
H215 C214 0.950 . S
C216 C214 1.375 . S
C216 C218 1.382 . S
C216 H220 0.950 . S
H217 C212 0.949 . S
C218 C213 1.399 . S
C218 C216 1.382 . S
C218 H219 0.952 . S
H219 C218 0.952 . S
H220 C216 0.950 . S
H221 C222 0.949 . S
C222 H221 0.949 . S
C222 C223 1.395 . S
C222 C224 1.391 . S
C223 C222 1.395 . S
C223 C226 1.390 . S
C224 C222 1.391 . S
C224 C228 1.387 . S
C224 C229 1.491 . S
H225 C226 0.950 . S
C226 C223 1.390 . S
C226 H225 0.950 . S
C226 C227 1.378 . S
C227 C226 1.378 . S
C227 C228 1.409 . S
C228 C224 1.387 . S
C228 C227 1.409 . S
C228 H230 0.951 . S
C229 C224 1.491 . S
C229 C231 1.382 . S
C229 C233 1.404 . S
H230 C228 0.951 . S
C231 C229 1.382 . S
C231 C232 1.390 . S
C231 H236 0.949 . S
C232 C231 1.390 . S
C232 C237 1.399 . S
C233 C229 1.404 . S
C233 H234 0.950 . S
C233 C235 1.375 . S
H234 C233 0.950 . S
C235 C233 1.375 . S
C235 C237 1.382 . S
C235 H239 0.950 . S
H236 C231 0.949 . S
C237 C232 1.399 . S
C237 C235 1.382 . S
C237 H238 0.952 . S
H238 C237 0.952 . S
H239 C235 0.950 . S
C240 C241 1.369 1_545 S
C240 C242 1.419 . S
C240 H244 0.930 . S
C241 C240 1.369 1_565 S
C241 C250 1.429 . S
C242 C240 1.419 . S
C242 C243 1.363 . S
C242 H245 0.929 . S
C243 C242 1.363 . S
C243 C249 1.428 . S
H244 C240 0.930 . S
H245 C242 0.929 . S
S246 N247 1.613 . S
S246 N248 1.610 1_565 S
N247 S246 1.613 . S
N247 C250 1.350 . S
N248 S246 1.610 1_545 S
N248 C249 1.351 . S
C249 C243 1.428 . S
C249 N248 1.351 . S
C249 C250 1.434 1_545 S
C250 C241 1.429 . S
C250 N247 1.350 . S
C250 C249 1.434 1_565 S
C251 C252 1.369 . S
C251 C253 1.419 . S
C251 H255 0.930 . S
C252 C251 1.369 . S
C252 C261 1.429 . S
C253 C251 1.419 . S
C253 C254 1.363 . S
C253 H256 0.929 . S
C254 C253 1.363 . S
C254 C260 1.428 . S
H255 C251 0.930 . S
H256 C253 0.929 . S
S257 N258 1.613 . S
S257 N259 1.610 . S
N258 S257 1.613 . S
N258 C261 1.350 . S
N259 S257 1.610 . S
N259 C260 1.351 . S
C260 C254 1.428 . S
C260 N259 1.351 . S
C260 C261 1.434 . S
C261 C252 1.429 . S
C261 N258 1.350 . S
C261 C260 1.434 . S
C262 C263 1.344 1_565 S
C262 C264 1.419 . S
C262 H266 0.930 . S
C263 C262 1.344 1_545 S
C263 C272 1.430 . S
C264 C262 1.419 . S
C264 C265 1.363 . S
C264 H267 0.929 . S
C265 C264 1.363 . S
C265 C271 1.428 . S
H266 C262 0.930 . S
H267 C264 0.929 . S
S268 N269 1.613 . S
S268 N270 1.610 1_545 S
N269 S268 1.613 . S
N269 C272 1.350 . S
N270 S268 1.610 1_565 S
N270 C271 1.351 . S
C271 C265 1.428 . S
C271 N270 1.351 . S
C271 C272 1.434 1_565 S
C272 C263 1.430 . S
C272 N269 1.350 . S
C272 C271 1.434 1_545 S
C273 C274 1.369 . S
C273 C275 1.419 . S
C273 H277 0.930 . S
C274 C273 1.369 . S
C274 C283 1.429 . S
C275 C273 1.419 . S
C275 C276 1.363 . S
C275 H278 0.929 . S
C276 C275 1.363 . S
C276 C282 1.428 . S
H277 C273 0.930 . S
H278 C275 0.929 . S
S279 N280 1.613 . S
S279 N281 1.610 . S
N280 S279 1.613 . S
N280 C283 1.350 . S
N281 S279 1.610 . S
N281 C282 1.351 . S
C282 C276 1.428 . S
C282 N281 1.351 . S
C282 C283 1.434 . S
C283 C274 1.429 . S
C283 N280 1.350 . S
C283 C282 1.434 . S
C284 C285 1.369 . S
C284 C286 1.419 . S
C284 H288 0.930 . S
C285 C284 1.369 . S
C285 C294 1.429 . S
C286 C284 1.419 . S
C286 C287 1.363 . S
C286 H289 0.929 . S
C287 C286 1.363 . S
C287 C293 1.428 . S
H288 C284 0.930 . S
H289 C286 0.929 . S
S290 N291 1.613 . S
S290 N292 1.610 . S
N291 S290 1.613 . S
N291 C294 1.350 . S
N292 S290 1.610 . S
N292 C293 1.351 . S
C293 C287 1.428 . S
C293 N292 1.351 . S
C293 C294 1.434 . S
C294 C285 1.429 . S
C294 N291 1.350 . S
C294 C293 1.434 . S
C295 C296 1.369 . S
C295 C297 1.419 . S
C295 H299 0.930 . S
C296 C295 1.369 . S
C296 C305 1.429 . S
C297 C295 1.419 . S
C297 C298 1.363 . S
C297 H300 0.929 . S
C298 C297 1.363 . S
C298 C304 1.428 . S
H299 C295 0.930 . S
H300 C297 0.929 . S
S301 N302 1.613 . S
S301 N303 1.610 1_655 S
N302 S301 1.613 . S
N302 C305 1.350 1_655 S
N303 S301 1.610 1_455 S
N303 C304 1.351 . S
C304 C298 1.428 . S
C304 N303 1.351 . S
C304 C305 1.434 . S
C305 C296 1.429 . S
C305 N302 1.350 1_455 S
C305 C304 1.434 . S
C306 C307 1.369 . S
C306 C308 1.419 . S
C306 H310 0.930 . S
C307 C306 1.369 . S
C307 C316 1.429 . S
C308 C306 1.419 . S
C308 C309 1.363 . S
C308 H311 0.929 . S
C309 C308 1.363 . S
C309 C315 1.428 . S
H310 C306 0.930 . S
H311 C308 0.929 . S
S312 N313 1.613 . S
S312 N314 1.610 . S
N313 S312 1.613 . S
N313 C316 1.350 . S
N314 S312 1.610 . S
N314 C315 1.351 . S
C315 C309 1.428 . S
C315 N314 1.351 . S
C315 C316 1.434 . S
C316 C307 1.429 . S
C316 N313 1.350 . S
C316 C315 1.434 . S
C317 C318 1.369 . S
C317 C319 1.419 1_455 S
C317 H321 0.930 . S
C318 C317 1.369 . S
C318 C327 1.429 1_455 S
C319 C317 1.419 1_655 S
C319 C320 1.363 . S
C319 H322 0.929 1_655 S
C320 C319 1.363 . S
C320 C326 1.428 . S
H321 C317 0.930 . S
H322 C319 0.929 1_455 S
S323 N324 1.613 . S
S323 N325 1.610 . S
N324 S323 1.613 . S
N324 C327 1.350 . S
N325 S323 1.610 . S
N325 C326 1.351 . S
C326 C320 1.428 . S
C326 N325 1.351 . S
C326 C327 1.434 . S
C327 C318 1.429 1_655 S
C327 N324 1.350 . S
C327 C326 1.434 . S
C328 C329 1.369 . S
C328 C330 1.419 1_545 S
C328 H332 0.930 . S
C329 C328 1.369 . S
C329 C338 1.429 1_545 S
C330 C328 1.419 1_565 S
C330 C331 1.363 . S
C330 H333 0.929 . S
C331 C330 1.363 . S
C331 C337 1.428 . S
H332 C328 0.930 . S
H333 C330 0.929 . S
S334 N335 1.613 . S
S334 N336 1.610 . S
N335 S334 1.613 . S
N335 C338 1.350 . S
N336 S334 1.610 . S
N336 C337 1.351 . S
C337 C331 1.428 . S
C337 N336 1.351 . S
C337 C338 1.434 . S
C338 C329 1.429 1_565 S
C338 N335 1.350 . S
C338 C337 1.434 . S
C339 C340 1.369 . S
C339 C341 1.419 . S
C339 H343 0.930 . S
C340 C339 1.369 . S
C340 C349 1.429 . S
C341 C339 1.419 . S
C341 C342 1.363 . S
C341 H344 0.929 . S
C342 C341 1.363 . S
C342 C348 1.428 . S
H343 C339 0.930 . S
H344 C341 0.929 . S
S345 N346 1.613 . S
S345 N347 1.610 . S
N346 S345 1.613 . S
N346 C349 1.350 . S
N347 S345 1.610 . S
N347 C348 1.351 . S
C348 C342 1.428 . S
C348 N347 1.351 . S
C348 C349 1.434 . S
C349 C340 1.429 . S
C349 N346 1.350 . S
C349 C348 1.434 . S
C350 C351 1.369 1_545 S
C350 C352 1.419 . S
C350 H354 0.930 . S
C351 C350 1.369 1_565 S
C351 C360 1.429 . S
C352 C350 1.419 . S
C352 C353 1.363 . S
C352 H355 0.929 . S
C353 C352 1.363 . S
C353 C359 1.428 . S
H354 C350 0.930 . S
H355 C352 0.929 . S
S356 N357 1.613 . S
S356 N358 1.610 1_565 S
N357 S356 1.613 . S
N357 C360 1.350 . S
N358 S356 1.610 1_545 S
N358 C359 1.351 . S
C359 C353 1.428 . S
C359 N358 1.351 . S
C359 C360 1.434 1_545 S
C360 C351 1.429 . S
C360 N357 1.350 . S
C360 C359 1.434 1_565 S
C361 C362 1.369 . S
C361 C363 1.419 . S
C361 H365 0.930 . S
C362 C361 1.369 . S
C362 C371 1.429 . S
C363 C361 1.419 . S
C363 C364 1.363 . S
C363 H366 0.929 . S
C364 C363 1.363 . S
C364 C370 1.428 . S
H365 C361 0.930 . S
H366 C363 0.929 . S
S367 N368 1.613 . S
S367 N369 1.610 . S
N368 S367 1.613 . S
N368 C371 1.350 . S
N369 S367 1.610 . S
N369 C370 1.351 . S
C370 C364 1.428 . S
C370 N369 1.351 . S
C370 C371 1.434 . S
C371 C362 1.429 . S
C371 N368 1.350 . S
C371 C370 1.434 . S
C372 C373 1.369 . S
C372 C374 1.419 . S
C372 H376 0.930 . S
C373 C372 1.369 . S
C373 C382 1.429 . S
C374 C372 1.419 . S
C374 C375 1.363 . S
C374 H377 0.929 . S
C375 C374 1.363 . S
C375 C381 1.428 . S
H376 C372 0.930 . S
H377 C374 0.929 . S
S378 N379 1.613 . S
S378 N380 1.610 . S
N379 S378 1.613 . S
N379 C382 1.350 . S
N380 S378 1.610 . S
N380 C381 1.351 . S
C381 C375 1.428 . S
C381 N380 1.351 . S
C381 C382 1.434 . S
C382 C373 1.429 . S
C382 N379 1.350 . S
C382 C381 1.434 . S
C383 C384 1.369 . S
C383 C385 1.419 . S
C383 H387 0.930 . S
C384 C383 1.369 . S
C384 C393 1.429 . S
C385 C383 1.419 . S
C385 C386 1.363 . S
C385 H388 0.929 . S
C386 C385 1.363 . S
C386 C392 1.428 . S
H387 C383 0.930 . S
H388 C385 0.929 . S
S389 N390 1.613 . S
S389 N391 1.610 . S
N390 S389 1.613 . S
N390 C393 1.350 . S
N391 S389 1.610 . S
N391 C392 1.351 . S
C392 C386 1.428 . S
C392 N391 1.351 . S
C392 C393 1.434 . S
C393 C384 1.429 . S
C393 N390 1.350 . S
C393 C392 1.434 . S
C394 C395 1.369 . S
C394 C396 1.419 . S
C394 H398 0.930 . S
C395 C394 1.369 . S
C395 C404 1.429 . S
C396 C394 1.419 . S
C396 C397 1.363 . S
C396 H399 0.929 . S
C397 C396 1.363 . S
C397 C403 1.428 . S
H398 C394 0.930 . S
H399 C396 0.929 . S
S400 N401 1.613 . S
S400 N402 1.610 . S
N401 S400 1.613 . S
N401 C404 1.350 . S
N402 S400 1.610 . S
N402 C403 1.351 . S
C403 C397 1.428 . S
C403 N402 1.351 . S
C403 C404 1.434 . S
C404 C395 1.429 . S
C404 N401 1.350 . S
C404 C403 1.434 . S
C405 C406 1.369 . S
C405 C407 1.419 1_655 S
C405 H409 0.930 . S
C406 C405 1.369 . S
C406 C415 1.429 1_655 S
C407 C405 1.419 1_455 S
C407 C408 1.363 . S
C407 H410 0.929 . S
C408 C407 1.363 . S
C408 C414 1.428 . S
H409 C405 0.930 . S
H410 C407 0.929 . S
S411 N412 1.613 . S
S411 N413 1.610 . S
N412 S411 1.613 . S
N412 C415 1.350 . S
N413 S411 1.610 . S
N413 C414 1.351 . S
C414 C408 1.428 . S
C414 N413 1.351 . S
C414 C415 1.434 . S
C415 C406 1.429 1_455 S
C415 N412 1.350 . S
C415 C414 1.434 . S
C416 C417 1.369 . S
C416 C418 1.419 . S
C416 H420 0.930 . S
C417 C416 1.369 . S
C417 C426 1.429 . S
C418 C416 1.419 . S
C418 C419 1.363 . S
C418 H421 0.929 . S
C419 C418 1.363 . S
C419 C425 1.428 . S
H420 C416 0.930 . S
H421 C418 0.929 . S
S422 N423 1.613 . S
S422 N424 1.610 . S
N423 S422 1.613 . S
N423 C426 1.350 . S
N424 S422 1.610 . S
N424 C425 1.351 . S
C425 C419 1.428 . S
C425 N424 1.351 . S
C425 C426 1.434 . S
C426 C417 1.429 . S
C426 N423 1.350 . S
C426 C425 1.434 . S
C427 C428 1.369 . S
C427 C429 1.419 . S
C427 H431 0.930 . S
C428 C427 1.369 . S
C428 C437 1.429 . S
C429 C427 1.419 . S
C429 C430 1.363 . S
C429 H432 0.929 . S
C430 C429 1.363 . S
C430 C436 1.428 . S
H431 C427 0.930 . S
H432 C429 0.929 . S
S433 N434 1.613 . S
S433 N435 1.610 . S
N434 S433 1.613 . S
N434 C437 1.350 . S
N435 S433 1.610 . S
N435 C436 1.351 . S
C436 C430 1.428 . S
C436 N435 1.351 . S
C436 C437 1.434 . S
C437 C428 1.429 . S
C437 N434 1.350 . S
C437 C436 1.434 . S
C438 C439 1.369 . S
C438 C440 1.419 . S
C438 H442 0.930 . S
C439 C438 1.369 . S
C439 C448 1.429 . S
C440 C438 1.419 . S
C440 C441 1.363 . S
C440 H443 0.929 . S
C441 C440 1.363 . S
C441 C447 1.428 . S
H442 C438 0.930 . S
H443 C440 0.929 . S
S444 N445 1.613 . S
S444 N446 1.610 . S
N445 S444 1.613 . S
N445 C448 1.350 . S
N446 S444 1.610 . S
N446 C447 1.351 . S
C447 C441 1.428 . S
C447 N446 1.351 . S
C447 C448 1.434 . S
C448 C439 1.429 . S
C448 N445 1.350 . S
C448 C447 1.434 . S
C449 C450 1.369 . S
C449 C451 1.419 . S
C449 H453 0.930 . S
C450 C449 1.369 . S
C450 C459 1.429 . S
C451 C449 1.419 . S
C451 C452 1.363 . S
C451 H454 0.929 . S
C452 C451 1.363 . S
C452 C458 1.428 . S
H453 C449 0.930 . S
H454 C451 0.929 . S
S455 N456 1.613 . S
S455 N457 1.610 . S
N456 S455 1.613 . S
N456 C459 1.350 . S
N457 S455 1.610 . S
N457 C458 1.351 . S
C458 C452 1.428 . S
C458 N457 1.351 . S
C458 C459 1.434 . S
C459 C450 1.429 . S
C459 N456 1.350 . S
C459 C458 1.434 . S
C460 C461 1.369 . S
C460 C462 1.419 . S
C460 H464 0.930 . S
C461 C460 1.369 . S
C461 C470 1.429 . S
C462 C460 1.419 . S
C462 C463 1.363 . S
C462 H465 0.929 . S
C463 C462 1.363 . S
C463 C469 1.428 . S
H464 C460 0.930 . S
H465 C462 0.929 . S
S466 N467 1.613 . S
S466 N468 1.610 . S
N467 S466 1.613 . S
N467 C470 1.350 . S
N468 S466 1.610 . S
N468 C469 1.351 . S
C469 C463 1.428 . S
C469 N468 1.351 . S
C469 C470 1.434 . S
C470 C461 1.429 . S
C470 N467 1.350 . S
C470 C469 1.434 . S
C471 C472 1.369 . S
C471 C473 1.419 . S
C471 H475 0.930 . S
C472 C471 1.369 . S
C472 C481 1.429 . S
C473 C471 1.419 . S
C473 C474 1.363 . S
C473 H476 0.929 . S
C474 C473 1.363 . S
C474 C480 1.428 . S
H475 C471 0.930 . S
H476 C473 0.929 . S
S477 N478 1.613 . S
S477 N479 1.610 . S
N478 S477 1.613 . S
N478 C481 1.350 . S
N479 S477 1.610 . S
N479 C480 1.351 . S
C480 C474 1.428 . S
C480 N479 1.351 . S
C480 C481 1.434 . S
C481 C472 1.429 . S
C481 N478 1.350 . S
C481 C480 1.434 . S
C482 C483 1.369 . S
C482 C484 1.419 . S
C482 H486 0.930 . S
C483 C482 1.369 . S
C483 C492 1.429 . S
C484 C482 1.419 . S
C484 C485 1.363 . S
C484 H487 0.929 . S
C485 C484 1.363 . S
C485 C491 1.428 . S
H486 C482 0.930 . S
H487 C484 0.929 . S
S488 N489 1.613 . S
S488 N490 1.610 . S
N489 S488 1.613 . S
N489 C492 1.350 . S
N490 S488 1.610 . S
N490 C491 1.351 . S
C491 C485 1.428 . S
C491 N490 1.351 . S
C491 C492 1.434 . S
C492 C483 1.429 . S
C492 N489 1.350 . S
C492 C491 1.434 . S
C493 C494 1.369 . S
C493 C495 1.419 . S
C493 H497 0.930 . S
C494 C493 1.369 . S
C494 C503 1.429 . S
C495 C493 1.419 . S
C495 C496 1.363 . S
C495 H498 0.929 . S
C496 C495 1.363 . S
C496 C502 1.428 . S
H497 C493 0.930 . S
H498 C495 0.929 . S
S499 N500 1.613 . S
S499 N501 1.610 . S
N500 S499 1.613 . S
N500 C503 1.350 . S
N501 S499 1.610 . S
N501 C502 1.351 . S
C502 C496 1.428 . S
C502 N501 1.351 . S
C502 C503 1.434 . S
C503 C494 1.429 . S
C503 N500 1.350 . S
C503 C502 1.434 . S
C241 C7 1.514 . S
C243 C90 1.426 . S
C252 C37 1.545 . S
C254 C109 1.422 . S
C263 C54 1.289 . S
C265 C132 1.239 . S
C276 C151 1.278 . S
C274 C87 1.275 . S
C287 C166 1.388 . S
C285 C30 1.490 . S
C296 C51 1.281 1_455 S
C298 C189 1.282 . S
C307 C84 1.298 . S
C309 C208 1.265 . S
C318 C10 1.520 . S
C320 C223 1.395 . S
C329 C59 1.332 . S
C331 C227 1.325 . S
C342 C170 1.202 . S
C340 C74 1.231 . S
C353 C185 1.371 . S
C351 C18 1.486 . S
C362 C32 1.559 . S
C364 C204 1.459 . S
C375 C113 1.318 . S
C373 C73 1.331 . S
C384 C15 1.558 1_655 S
C386 C128 1.481 . S
C397 C147 1.400 . S
C395 C43 1.511 . S
C408 C94 1.194 . S
C406 C62 1.221 . S
C419 C213 1.388 . S
C417 C21 1.478 . S
C430 C232 1.373 . S
C428 C29 1.485 . S
C439 C52 1.378 . S
C441 C175 1.293 . S
C452 C194 1.300 . S
C450 C81 1.424 . S
C463 C137 1.353 . S
C461 C40 1.457 . S
C472 C65 1.435 . S
C474 C156 1.306 . S
C485 C99 1.292 . S
C483 C76 1.378 . S
C496 C118 1.383 . S
C494 C8 1.499 . S
