# Generated by pormake.
# Topology zzz, (3,6)-cn, num edge types: 1
# Building blocks:
#     Node 0, Type 0, BuildingBlock: BETDIP_clean_linker_0, # of connection points: 3
#     Node 1, Type 0, BuildingBlock: BETDIP_clean_linker_0, # of connection points: 3
#     Node 2, Type 0, BuildingBlock: BETDIP_clean_linker_0, # of connection points: 3
#     Node 3, Type 0, BuildingBlock: BETDIP_clean_linker_0, # of connection points: 3
#     Node 4, Type 0, BuildingBlock: BETDIP_clean_linker_0, # of connection points: 3
#     Node 5, Type 0, BuildingBlock: BETDIP_clean_linker_0, # of connection points: 3
#     Node 6, Type 0, BuildingBlock: BETDIP_clean_linker_0, # of connection points: 3
#     Node 7, Type 0, BuildingBlock: BETDIP_clean_linker_0, # of connection points: 3
#     Node 8, Type 1, BuildingBlock: CUKXOW_clean_sbu_0, # of connection points: 6
#     Node 9, Type 1, BuildingBlock: CUKXOW_clean_sbu_0, # of connection points: 6
#     Node 10, Type 1, BuildingBlock: CUKXOW_clean_sbu_0, # of connection points: 6
#     Node 11, Type 1, BuildingBlock: CUKXOW_clean_sbu_0, # of connection points: 6
#     Edge 12, Type (0, 1), BuildingBlock: TEMPAE_clean_linker_10, # of connection points: 2
#     Edge 13, Type (0, 1), BuildingBlock: TEMPAE_clean_linker_10, # of connection points: 2
#     Edge 14, Type (0, 1), BuildingBlock: TEMPAE_clean_linker_10, # of connection points: 2
#     Edge 15, Type (0, 1), BuildingBlock: TEMPAE_clean_linker_10, # of connection points: 2
#     Edge 16, Type (0, 1), BuildingBlock: TEMPAE_clean_linker_10, # of connection points: 2
#     Edge 17, Type (0, 1), BuildingBlock: TEMPAE_clean_linker_10, # of connection points: 2
#     Edge 18, Type (0, 1), BuildingBlock: TEMPAE_clean_linker_10, # of connection points: 2
#     Edge 19, Type (0, 1), BuildingBlock: TEMPAE_clean_linker_10, # of connection points: 2
#     Edge 20, Type (0, 1), BuildingBlock: TEMPAE_clean_linker_10, # of connection points: 2
#     Edge 21, Type (0, 1), BuildingBlock: TEMPAE_clean_linker_10, # of connection points: 2
#     Edge 22, Type (0, 1), BuildingBlock: TEMPAE_clean_linker_10, # of connection points: 2
#     Edge 23, Type (0, 1), BuildingBlock: TEMPAE_clean_linker_10, # of connection points: 2
#     Edge 24, Type (0, 1), BuildingBlock: TEMPAE_clean_linker_10, # of connection points: 2
#     Edge 25, Type (0, 1), BuildingBlock: TEMPAE_clean_linker_10, # of connection points: 2
#     Edge 26, Type (0, 1), BuildingBlock: TEMPAE_clean_linker_10, # of connection points: 2
#     Edge 27, Type (0, 1), BuildingBlock: TEMPAE_clean_linker_10, # of connection points: 2
#     Edge 28, Type (0, 1), BuildingBlock: TEMPAE_clean_linker_10, # of connection points: 2
#     Edge 29, Type (0, 1), BuildingBlock: TEMPAE_clean_linker_10, # of connection points: 2
#     Edge 30, Type (0, 1), BuildingBlock: TEMPAE_clean_linker_10, # of connection points: 2
#     Edge 31, Type (0, 1), BuildingBlock: TEMPAE_clean_linker_10, # of connection points: 2
#     Edge 32, Type (0, 1), BuildingBlock: TEMPAE_clean_linker_10, # of connection points: 2
#     Edge 33, Type (0, 1), BuildingBlock: TEMPAE_clean_linker_10, # of connection points: 2
#     Edge 34, Type (0, 1), BuildingBlock: TEMPAE_clean_linker_10, # of connection points: 2
#     Edge 35, Type (0, 1), BuildingBlock: TEMPAE_clean_linker_10, # of connection points: 2
# Relax obj value: 0.065
# Max RMSD: 0.116
# Mean RMSD: 0.081
data_MOF--net-zzz--node1-CUKXOW_clean_sbu_0--node2-BETDIP_clean_linker_0--edge1-TEMPAE_clean_linker_10
_symmetry_space_group_name_H-M    P1
_symmetry_Int_Tables_number       1
_symmetry_cell_setting            triclinic
loop_
_symmetry_equiv_pos_as_xyz
'x, y, z'
_cell_length_a     51.498542
_cell_length_b     53.429717
_cell_length_c     15.734338
_cell_angle_alpha  93.351368
_cell_angle_beta   86.407925
_cell_angle_gamma 93.829371
loop_
_atom_site_label
_atom_site_type_symbol
_atom_site_fract_x
_atom_site_fract_y
_atom_site_fract_z
_atom_type_partial_charge
H0 H 0.74514 0.51002 0.2807 0.0
H1 H 0.76746 0.52968 0.02282 0.0
H2 H 0.82606 0.51894 0.19734 0.0
H3 H 0.72711 0.55704 0.07914 0.0
C4 C 0.71672 0.53874 0.08419 0.0
C5 C 0.76012 0.51451 0.23151 0.0
C6 C 0.78647 0.51419 0.24817 0.0
C7 C 0.75319 0.52081 0.15088 0.0
C8 C 0.77273 0.52588 0.0862 0.0
C9 C 0.79906 0.52532 0.10309 0.0
C10 C 0.80568 0.51979 0.18432 0.0
N11 N 0.7265 0.52062 0.1341 0.0
H12 H 0.97838 0.75993 0.1694 0.0
H13 H 0.96481 0.78004 0.91524 0.0
H14 H 0.96237 0.83553 0.12388 0.0
H15 H 0.94313 0.7356 0.9242 0.0
C16 C 0.9616 0.72918 0.94138 0.0
C17 C 0.97297 0.77358 0.12644 0.0
C18 C 0.96947 0.79835 0.15659 0.0
C19 C 0.9701 0.76661 0.03993 0.0
C20 C 0.96511 0.7849 0.98301 0.0
C21 C 0.96227 0.80987 0.01308 0.0
C22 C 0.96351 0.81609 0.10031 0.0
N23 N 0.97471 0.7417 0.00985 0.0
H24 H 0.71939 0.96162 0.1936 0.0
H25 H 0.72865 0.96189 0.92104 0.0
H26 H 0.65382 0.94271 0.03795 0.0
H27 H 0.76466 0.93946 0.94631 0.0
C28 C 0.77245 0.95288 0.99433 0.0
C29 C 0.71102 0.95789 0.13244 0.0
C30 C 0.68367 0.9535 0.12666 0.0
C31 C 0.72774 0.95831 0.05775 0.0
C32 C 0.71668 0.95751 0.97801 0.0
C33 C 0.68988 0.9529 0.97188 0.0
C34 C 0.67427 0.94783 0.04522 0.0
N35 N 0.75534 0.96171 0.06269 0.0
H36 H 0.57789 0.74707 0.22629 0.0
H37 H 0.55991 0.73848 0.96148 0.0
H38 H 0.56641 0.67341 0.10423 0.0
H39 H 0.59252 0.7753 0.96532 0.0
C40 C 0.5812 0.78531 0.01544 0.0
C41 C 0.57425 0.73516 0.16962 0.0
C42 C 0.5734 0.70893 0.17334 0.0
C43 C 0.57065 0.74602 0.09221 0.0
C44 C 0.56442 0.73038 0.01992 0.0
C45 C 0.56297 0.70419 0.02441 0.0
C46 C 0.56815 0.69369 0.10035 0.0
N47 N 0.57191 0.77262 0.08939 0.0
H48 H 0.26165 0.4988 0.12693 0.0
H49 H 0.23776 0.48747 0.39052 0.0
H50 H 0.18177 0.47795 0.19884 0.0
H51 H 0.2698 0.5205 0.4034 0.0
C52 C 0.28504 0.51189 0.36305 0.0
C53 C 0.2468 0.49326 0.17529 0.0
C54 C 0.22111 0.48728 0.15309 0.0
C55 C 0.253 0.49336 0.26098 0.0
C56 C 0.23327 0.48735 0.32417 0.0
C57 C 0.20754 0.48152 0.30206 0.0
C58 C 0.20185 0.48106 0.21624 0.0
N59 N 0.27896 0.50016 0.28274 0.0
H60 H 0.05762 0.24783 0.24249 0.0
H61 H 0.04212 0.23732 0.51065 0.0
H62 H 0.05715 0.17406 0.33849 0.0
H63 H 0.07639 0.28035 0.48855 0.0
C64 C 0.05879 0.28608 0.46247 0.0
C65 C 0.05628 0.23567 0.29558 0.0
C66 C 0.05927 0.20982 0.28103 0.0
C67 C 0.05146 0.24582 0.37901 0.0
C68 C 0.04788 0.22984 0.44726 0.0
C69 C 0.04996 0.20398 0.43234 0.0
C70 C 0.05654 0.19426 0.35003 0.0
N71 N 0.04797 0.27181 0.39298 0.0
H72 H 0.28387 0.05553 0.18832 0.0
H73 H 0.28204 0.0421 0.45653 0.0
H74 H 0.35466 0.06093 0.32206 0.0
H75 H 0.25137 0.01038 0.39718 0.0
C76 C 0.23957 0.02452 0.37481 0.0
C77 C 0.29376 0.05536 0.24704 0.0
C78 C 0.3211 0.05989 0.24633 0.0
C79 C 0.2794 0.04917 0.32308 0.0
C80 C 0.2926 0.0476 0.39813 0.0
C81 C 0.31961 0.05229 0.39765 0.0
C82 C 0.33353 0.05898 0.32266 0.0
N83 N 0.25199 0.04338 0.32319 0.0
H84 H 0.43805 0.27059 0.14993 0.0
H85 H 0.45569 0.27974 0.41506 0.0
H86 H 0.45222 0.34445 0.26802 0.0
H87 H 0.42107 0.24399 0.41088 0.0
C88 C 0.43281 0.23349 0.36321 0.0
C89 C 0.44213 0.28263 0.20596 0.0
C90 C 0.44404 0.30884 0.20074 0.0
C91 C 0.44519 0.27199 0.28418 0.0
C92 C 0.45177 0.28774 0.35583 0.0
C93 C 0.45428 0.31386 0.34976 0.0
C94 C 0.44981 0.32422 0.27292 0.0
N95 N 0.443 0.24543 0.28873 0.0
Tb96 Tb 0.99751 0.98757 0.63318 0.0
C97 C 0.0546 0.01356 0.63062 0.0
Tb98 Tb 0.012 0.02653 0.78174 0.0
O99 O 0.99866 0.01721 0.54218 0.0
O100 O 0.99026 0.02502 0.67221 0.0
O101 O 0.03846 0.99584 0.59677 0.0
C102 C 0.0259 0.06917 0.8688 0.0
O103 O 0.04825 0.02764 0.70049 0.0
C104 C 0.01425 0.9792 0.81575 0.0
C105 C 0.95493 0.00241 0.78054 0.0
O106 O 0.03101 0.06445 0.78799 0.0
O107 O 0.01303 0.04985 0.90074 0.0
O108 O 0.01339 0.99732 0.87437 0.0
O109 O 0.01803 0.98892 0.74476 0.0
O110 O 0.96946 0.02319 0.80115 0.0
O111 O 0.96295 0.98516 0.7221 0.0
C112 C 0.99071 0.94361 0.54655 0.0
O113 O 0.97561 0.96216 0.54462 0.0
O114 O 0.00953 0.94998 0.59581 0.0
C115 C 0.99517 0.03484 0.60186 0.0
Tb116 Tb 0.50579 0.03561 0.65503 0.0
C117 C 0.54249 0.99481 0.5774 0.0
Tb118 Tb 0.50896 0.98735 0.75444 0.0
O119 O 0.54631 0.04711 0.67717 0.0
O120 O 0.52419 0.02505 0.76291 0.0
O121 O 0.52936 0.0144 0.56075 0.0
C122 C 0.52334 0.94828 0.83484 0.0
O123 O 0.53878 0.98285 0.64949 0.0
C124 C 0.46814 0.98886 0.66484 0.0
C125 C 0.47107 0.02781 0.82881 0.0
O126 O 0.50885 0.94703 0.77004 0.0
O127 O 0.52974 0.97172 0.85518 0.0
O128 O 0.46833 0.97621 0.7328 0.0
O129 O 0.49093 0.99781 0.64629 0.0
O130 O 0.48503 0.00899 0.84805 0.0
O131 O 0.47491 0.03919 0.75577 0.0
C132 C 0.49077 0.074 0.57279 0.0
O133 O 0.50451 0.07585 0.63951 0.0
O134 O 0.48554 0.0504 0.5517 0.0
C135 C 0.54698 0.03402 0.74394 0.0
Tb136 Tb 0.51985 0.5269 0.6202 0.0
C137 C 0.46013 0.51039 0.61303 0.0
Tb138 Tb 0.49419 0.49177 0.75584 0.0
O139 O 0.52118 0.49586 0.5229 0.0
O140 O 0.52174 0.489 0.65126 0.0
O141 O 0.47871 0.52822 0.5959 0.0
C142 C 0.47316 0.45155 0.8347 0.0
O143 O 0.46278 0.49318 0.66909 0.0
C144 C 0.49448 0.54008 0.79814 0.0
C145 C 0.55346 0.50954 0.76614 0.0
O146 O 0.47451 0.45401 0.75304 0.0
O147 O 0.48324 0.4719 0.87191 0.0
O148 O 0.49251 0.52283 0.85341 0.0
O149 O 0.49256 0.5296 0.72514 0.0
O150 O 0.53496 0.4919 0.78581 0.0
O151 O 0.55127 0.52581 0.70669 0.0
C152 C 0.54116 0.56675 0.54022 0.0
O153 O 0.52974 0.54692 0.50389 0.0
O154 O 0.54097 0.56398 0.62157 0.0
C155 C 0.51967 0.47861 0.5781 0.0
Tb156 Tb 0.98391 0.50754 0.63424 0.0
C157 C 0.99931 0.45302 0.6822 0.0
Tb158 Tb 0.023 0.50279 0.77538 0.0
O159 O 0.01572 0.51613 0.53809 0.0
O160 O 0.02136 0.4957 0.64312 0.0
O161 O 0.98373 0.46654 0.64117 0.0
C162 C 0.06955 0.50532 0.8409 0.0
O163 O 0.01738 0.46329 0.7327 0.0
C164 C 0.97379 0.50363 0.82681 0.0
C165 C 0.00801 0.55728 0.7261 0.0
O166 O 0.048 0.49629 0.8787 0.0
O167 O 0.06467 0.51329 0.76772 0.0
O168 O 0.99088 0.49372 0.87033 0.0
O169 O 0.98555 0.51464 0.76628 0.0
O170 O 0.02356 0.54377 0.76724 0.0
O171 O 0.98968 0.54705 0.67654 0.0
C172 C 0.93737 0.50417 0.569 0.0
O173 O 0.95847 0.51469 0.533 0.0
O174 O 0.94267 0.49529 0.64035 0.0
C175 C 0.03294 0.50646 0.58171 0.0
C176 C 0.20229 0.00655 0.46377 0.0
C177 C 0.21181 0.02451 0.40627 0.0
C178 C 0.17651 0.00612 0.49833 0.0
C179 C 0.15966 0.02402 0.47444 0.0
C180 C 0.16909 0.04216 0.41576 0.0
C181 C 0.19515 0.04225 0.38244 0.0
C182 C 0.16735 0.9865 0.56079 0.0
C183 C 0.15165 0.06143 0.38833 0.0
C184 C 0.08754 0.0049 0.50993 0.0
C185 C 0.08115 0.01749 0.58858 0.0
C186 C 0.11271 0.00768 0.47044 0.0
C187 C 0.13213 0.02332 0.51058 0.0
C188 C 0.12566 0.03664 0.58875 0.0
C189 C 0.10025 0.03363 0.62666 0.0
C190 C 0.11872 0.99327 0.38683 0.0
C191 C 0.14582 0.05343 0.63381 0.0
H192 H 0.21519 0.99288 0.48249 0.0
H193 H 0.20244 0.0562 0.33808 0.0
H194 H 0.16033 0.99575 0.62214 0.0
H195 H 0.15073 0.97464 0.53574 0.0
H196 H 0.183 0.97412 0.57349 0.0
H197 H 0.16188 0.0742 0.3421 0.0
H198 H 0.13441 0.05188 0.3586 0.0
H199 H 0.1443 0.07287 0.44477 0.0
H200 H 0.07293 0.9926 0.4792 0.0
H201 H 0.09555 0.04358 0.68709 0.0
H202 H 0.13289 0.97906 0.39605 0.0
H203 H 0.12786 0.00614 0.3391 0.0
H204 H 0.10101 0.9835 0.36053 0.0
H205 H 0.16123 0.04194 0.65432 0.0
H206 H 0.13728 0.06387 0.69083 0.0
H207 H 0.15538 0.06717 0.58973 0.0
C208 C 0.45742 0.19467 0.32946 0.0
C209 C 0.43842 0.2074 0.37932 0.0
C210 C 0.46469 0.17109 0.35152 0.0
C211 C 0.45253 0.15999 0.42468 0.0
C212 C 0.43226 0.17216 0.47211 0.0
C213 C 0.42561 0.1958 0.44918 0.0
C214 C 0.48638 0.15872 0.29937 0.0
C215 C 0.41855 0.16084 0.54983 0.0
C216 C 0.46292 0.09212 0.46988 0.0
C217 C 0.48178 0.09554 0.53066 0.0
C218 C 0.45329 0.11286 0.43367 0.0
C219 C 0.46313 0.13747 0.45813 0.0
C220 C 0.4827 0.14085 0.51789 0.0
C221 C 0.49163 0.11986 0.5538 0.0
C222 C 0.43211 0.10846 0.37134 0.0
C223 C 0.49392 0.16671 0.54525 0.0
H224 H 0.46737 0.20352 0.27523 0.0
H225 H 0.41079 0.20557 0.48744 0.0
H226 H 0.50382 0.15906 0.33749 0.0
H227 H 0.48055 0.13874 0.28298 0.0
H228 H 0.49188 0.16832 0.23951 0.0
H229 H 0.40123 0.17111 0.57347 0.0
H230 H 0.41223 0.14087 0.53538 0.0
H231 H 0.43222 0.16135 0.60175 0.0
H232 H 0.45527 0.07328 0.45214 0.0
H233 H 0.5063 0.12253 0.60058 0.0
H234 H 0.43749 0.11861 0.31262 0.0
H235 H 0.41381 0.11598 0.40017 0.0
H236 H 0.4282 0.0882 0.3534 0.0
H237 H 0.50164 0.17689 0.48861 0.0
H238 H 0.50987 0.16601 0.58929 0.0
H239 H 0.47837 0.17779 0.57781 0.0
C240 C 0.3317 0.50066 0.34651 0.0
C241 C 0.31155 0.51243 0.39398 0.0
C242 C 0.35651 0.50036 0.37852 0.0
C243 C 0.36115 0.51212 0.45965 0.0
C244 C 0.34093 0.52432 0.50712 0.0
C245 C 0.31635 0.5243 0.47362 0.0
C246 C 0.37764 0.48717 0.32622 0.0
C247 C 0.34515 0.53708 0.59382 0.0
C248 C 0.41561 0.49128 0.58517 0.0
C249 C 0.43505 0.51058 0.57215 0.0
C250 C 0.39162 0.49134 0.54773 0.0
C251 C 0.38694 0.5112 0.49613 0.0
C252 C 0.40656 0.53056 0.48174 0.0
C253 C 0.43041 0.53001 0.51984 0.0
C254 C 0.37117 0.47031 0.56427 0.0
C255 C 0.40223 0.55204 0.42706 0.0
H256 H 0.32805 0.49142 0.28487 0.0
H257 H 0.30072 0.53337 0.51027 0.0
H258 H 0.39497 0.50032 0.31549 0.0
H259 H 0.38391 0.47144 0.36147 0.0
H260 H 0.37109 0.47956 0.26335 0.0
H261 H 0.32758 0.54628 0.62145 0.0
H262 H 0.35036 0.52311 0.63835 0.0
H263 H 0.36166 0.55147 0.58928 0.0
H264 H 0.41907 0.47607 0.6249 0.0
H265 H 0.44532 0.54497 0.50914 0.0
H266 H 0.36509 0.46111 0.50299 0.0
H267 H 0.35359 0.47802 0.59773 0.0
H268 H 0.37821 0.45583 0.60358 0.0
H269 H 0.39681 0.54469 0.36274 0.0
H270 H 0.41977 0.56519 0.41995 0.0
H271 H 0.38579 0.56271 0.45566 0.0
C272 C 0.06417 0.33009 0.52116 0.0
C273 C 0.04766 0.30964 0.49509 0.0
C274 C 0.05397 0.35275 0.55236 0.0
C275 C 0.02658 0.35445 0.56132 0.0
C276 C 0.00981 0.33349 0.53727 0.0
C277 C 0.02061 0.31143 0.50266 0.0
C278 C 0.07251 0.37499 0.57426 0.0
C279 C 0.98055 0.33431 0.54894 0.0
C280 C 0.00621 0.40869 0.71154 0.0
C281 C 0.00135 0.42651 0.65377 0.0
C282 C 0.01274 0.38444 0.68245 0.0
C283 C 0.01564 0.37846 0.59357 0.0
C284 C 0.01005 0.39626 0.5352 0.0
C285 C 0.00248 0.41995 0.5662 0.0
C286 C 0.01759 0.36561 0.74663 0.0
C287 C 0.01387 0.39099 0.44 0.0
H288 H 0.0851 0.32852 0.51514 0.0
H289 H 0.0079 0.29534 0.48366 0.0
H290 H 0.06834 0.39123 0.53751 0.0
H291 H 0.06971 0.38078 0.64287 0.0
H292 H 0.09324 0.37081 0.56034 0.0
H293 H 0.97031 0.31596 0.53128 0.0
H294 H 0.97486 0.3397 0.61639 0.0
H295 H 0.97375 0.34878 0.50929 0.0
H296 H 0.00544 0.41391 0.77925 0.0
H297 H 0.99927 0.43397 0.52148 0.0
H298 H 0.03875 0.36283 0.74589 0.0
H299 H 0.00752 0.34714 0.72984 0.0
H300 H 0.01084 0.37188 0.81242 0.0
H301 H 0.03483 0.38872 0.42263 0.0
H302 H 0.00733 0.40633 0.40334 0.0
H303 H 0.00305 0.37319 0.42015 0.0
C304 C 0.80622 0.96838 0.88834 0.0
C305 C 0.79855 0.96502 0.97403 0.0
C306 C 0.83159 0.9774 0.86386 0.0
C307 C 0.85014 0.98231 0.92643 0.0
C308 C 0.8423 0.97957 0.0137 0.0
C309 C 0.81636 0.97127 0.03672 0.0
C310 C 0.83882 0.9806 0.7704 0.0
C311 C 0.8616 0.98405 0.08208 0.0
C312 C 0.91897 0.97306 0.83505 0.0
C313 C 0.92883 0.99783 0.82388 0.0
C314 C 0.89393 0.96788 0.87272 0.0
C315 C 0.87806 0.98795 0.89856 0.0
C316 C 0.88817 0.01306 0.88948 0.0
C317 C 0.91361 0.01772 0.85311 0.0
C318 C 0.88421 0.94085 0.88289 0.0
C319 C 0.8717 0.03494 0.91441 0.0
H320 H 0.79232 0.96361 0.83999 0.0
H321 H 0.81042 0.96843 0.10295 0.0
H322 H 0.84904 0.99928 0.76124 0.0
H323 H 0.85238 0.96618 0.74622 0.0
H324 H 0.8215 0.97873 0.73128 0.0
H325 H 0.85197 0.98365 0.14721 0.0
H326 H 0.87589 0.96931 0.07485 0.0
H327 H 0.87271 0.00241 0.07539 0.0
H328 H 0.93089 0.95761 0.81414 0.0
H329 H 0.9212 0.03688 0.84468 0.0
H330 H 0.86674 0.9363 0.84576 0.0
H331 H 0.87833 0.93792 0.95082 0.0
H332 H 0.89916 0.92747 0.86103 0.0
H333 H 0.85536 0.03465 0.8715 0.0
H334 H 0.88308 0.05328 0.91035 0.0
H335 H 0.863 0.03339 0.98031 0.0
C336 C 0.55738 0.82412 0.05813 0.0
C337 C 0.57566 0.81172 0.00404 0.0
C338 C 0.55019 0.84818 0.04093 0.0
C339 C 0.56168 0.86008 0.96837 0.0
C340 C 0.58125 0.84819 0.91662 0.0
C341 C 0.58785 0.82408 0.93477 0.0
C342 C 0.52925 0.86023 0.09762 0.0
C343 C 0.59428 0.86038 0.83943 0.0
C344 C 0.52165 0.90222 0.85012 0.0
C345 C 0.5321 0.92622 0.87466 0.0
C346 C 0.53062 0.88069 0.88239 0.0
C347 C 0.55088 0.88318 0.93978 0.0
C348 C 0.56125 0.90746 0.96606 0.0
C349 C 0.55148 0.92876 0.93376 0.0
C350 C 0.5188 0.85522 0.85329 0.0
C351 C 0.58319 0.91094 0.02576 0.0
H352 H 0.54792 0.81468 0.11196 0.0
H353 H 0.60214 0.81458 0.89329 0.0
H354 H 0.5355 0.87997 0.116 0.0
H355 H 0.51133 0.86059 0.06218 0.0
H356 H 0.52436 0.84994 0.15646 0.0
H357 H 0.61101 0.84997 0.81132 0.0
H358 H 0.57994 0.86114 0.79002 0.0
H359 H 0.60133 0.87998 0.85659 0.0
H360 H 0.50655 0.90022 0.80475 0.0
H361 H 0.55949 0.94734 0.95289 0.0
H362 H 0.5117 0.84445 0.90926 0.0
H363 H 0.53386 0.84432 0.81708 0.0
H364 H 0.50229 0.85662 0.81199 0.0
H365 H 0.57863 0.89982 0.08278 0.0
H366 H 0.58717 0.93097 0.0469 0.0
H367 H 0.60123 0.90399 0.99302 0.0
C368 C 0.68408 0.50876 0.01578 0.0
C369 C 0.69206 0.53341 0.04213 0.0
C370 C 0.66149 0.50374 0.97079 0.0
C371 C 0.64621 0.52379 0.95435 0.0
C372 C 0.65386 0.54865 0.98309 0.0
C373 C 0.67704 0.55322 0.02532 0.0
C374 C 0.65436 0.47711 0.93886 0.0
C375 C 0.63764 0.57041 0.96895 0.0
C376 C 0.60144 0.51803 0.77093 0.0
C377 C 0.57741 0.51139 0.81277 0.0
C378 C 0.62418 0.52136 0.81593 0.0
C379 C 0.62254 0.51887 0.90526 0.0
C380 C 0.59824 0.51219 0.94777 0.0
C381 C 0.57598 0.50811 0.9006 0.0
C382 C 0.64988 0.52774 0.76805 0.0
C383 C 0.5956 0.51017 0.04329 0.0
H384 H 0.69596 0.49349 0.02785 0.0
H385 H 0.68332 0.57226 0.04598 0.0
H386 H 0.63461 0.47096 0.96494 0.0
H387 H 0.6538 0.47621 0.86834 0.0
H388 H 0.6684 0.46369 0.95676 0.0
H389 H 0.64541 0.58828 0.00029 0.0
H390 H 0.63706 0.57298 0.89968 0.0
H391 H 0.61725 0.56641 0.99406 0.0
H392 H 0.60246 0.52051 0.70286 0.0
H393 H 0.55724 0.50335 0.93297 0.0
H394 H 0.66444 0.51436 0.78209 0.0
H395 H 0.65759 0.5468 0.78931 0.0
H396 H 0.64807 0.52721 0.69797 0.0
H397 H 0.60866 0.49614 0.06286 0.0
H398 H 0.57531 0.50468 0.06643 0.0
H399 H 0.60167 0.52849 0.07537 0.0
C400 C 0.95227 0.68587 0.88033 0.0
C401 C 0.97053 0.7052 0.90345 0.0
C402 C 0.96035 0.66243 0.84814 0.0
C403 C 0.98736 0.65876 0.83546 0.0
C404 C 0.00587 0.6787 0.85535 0.0
C405 C 0.99721 0.70159 0.89087 0.0
C406 C 0.94002 0.64138 0.83044 0.0
C407 C 0.03476 0.6758 0.8396 0.0
C408 C 0.00693 0.59175 0.838 0.0
C409 C 0.00697 0.58412 0.75136 0.0
C410 C 0.00106 0.6162 0.86614 0.0
C411 C 0.99609 0.63364 0.80566 0.0
C412 C 0.99775 0.62643 0.71749 0.0
C413 C 0.00259 0.6015 0.69144 0.0
C414 C 0.99857 0.62286 0.96082 0.0
C415 C 0.99357 0.64477 0.651 0.0
H416 H 0.93165 0.68882 0.89034 0.0
H417 H 0.01128 0.7168 0.90775 0.0
H418 H 0.94195 0.63455 0.76258 0.0
H419 H 0.94304 0.62529 0.86952 0.0
H420 H 0.91985 0.64726 0.84482 0.0
H421 H 0.04644 0.69377 0.85143 0.0
H422 H 0.04113 0.66175 0.8818 0.0
H423 H 0.0391 0.66873 0.77282 0.0
H424 H 0.00982 0.57812 0.88441 0.0
H425 H 0.00256 0.59547 0.62442 0.0
H426 H 0.97819 0.62729 0.9797 0.0
H427 H 0.01125 0.63984 0.97697 0.0
H428 H 0.00383 0.60735 -0.00074 0.0
H429 H 0.97275 0.64906 0.65381 0.0
H430 H 0.99905 0.63725 0.58549 0.0
H431 H 0.00514 0.66272 0.66371 0.0
C432 C 0.01345 0.17933 0.50151 0.0
C433 C 0.04021 0.18604 0.49593 0.0
C434 C 0.00403 0.1564 0.534 0.0
C435 C 0.02187 0.14022 0.5629 0.0
C436 C 0.04853 0.14843 0.56692 0.0
C437 C 0.05752 0.17115 0.53165 0.0
C438 C 0.97556 0.14827 0.52719 0.0
C439 C 0.06799 0.13209 0.6002 0.0
C440 C 0.99583 0.07935 0.65969 0.0
C441 C 1.00013 0.06194 0.59093 0.0
C442 C 0.0031 0.10497 0.65238 0.0
C443 C 0.01373 0.11335 0.57318 0.0
C444 C 0.01683 0.09593 0.5023 0.0
C445 C 0.01025 0.07037 0.51239 0.0
C446 C 0.99975 0.12293 0.72942 0.0
C447 C 0.02745 0.10422 0.41596 0.0
H448 H 1.00023 0.19079 0.47232 0.0
H449 H 0.07825 0.17633 0.52625 0.0
H450 H 0.97344 0.13474 0.4714 0.0
H451 H 0.96761 0.13862 0.58455 0.0
H452 H 0.96366 0.16443 0.51846 0.0
H453 H 0.08611 0.1432 0.61738 0.0
H454 H 0.05956 0.1224 0.65698 0.0
H455 H 0.07327 0.11747 0.55026 0.0
H456 H 0.98733 0.07287 0.71988 0.0
H457 H 0.01333 0.05694 0.45895 0.0
H458 H 0.9843 0.13576 0.71942 0.0
H459 H 0.01801 0.13474 0.73869 0.0
H460 H 0.99427 0.11297 0.78858 0.0
H461 H 0.01592 0.11933 0.39507 0.0
H462 H 0.02712 0.08854 0.36636 0.0
H463 H 0.04787 0.11203 0.42014 0.0
C464 C 0.33539 0.01938 0.48063 0.0
C465 C 0.33455 0.04498 0.4678 0.0
C466 C 0.3557 0.01058 0.52335 0.0
C467 C 0.37507 0.02799 0.55569 0.0
C468 C 0.37268 0.0541 0.55078 0.0
C469 C 0.3526 0.06232 0.50528 0.0
C470 C 0.35784 0.98258 0.52583 0.0
C471 C 0.3925 0.07327 0.58692 0.0
C472 C 0.42285 0.00138 0.69399 0.0
C473 C 0.4444 0.99856 0.63617 0.0
C474 C 0.40047 0.01192 0.66975 0.0
C475 C 0.3993 0.0187 0.58471 0.0
C476 C 0.42097 0.0156 0.52571 0.0
C477 C 0.44347 0.00582 0.55266 0.0
C478 C 0.37818 0.01581 0.73508 0.0
C479 C 0.42017 0.02206 0.43374 0.0
H480 H 0.32163 0.00605 0.45002 0.0
H481 H 0.35199 0.08211 0.49424 0.0
H482 H 0.37451 0.97683 0.48255 0.0
H483 H 0.3617 0.97741 0.59086 0.0
H484 H 0.3399 0.97174 0.50555 0.0
H485 H 0.38474 0.09222 0.59571 0.0
H486 H 0.39872 0.0677 0.64901 0.0
H487 H 0.41003 0.07454 0.54238 0.0
H488 H 0.42372 0.99591 0.75899 0.0
H489 H 0.46019 0.00344 0.50818 0.0
H490 H 0.36122 0.00287 0.71929 0.0
H491 H 0.37189 0.03526 0.73447 0.0
H492 H 0.38357 0.01234 0.80039 0.0
H493 H 0.43895 0.01924 0.39686 0.0
H494 H 0.41544 0.0419 0.43003 0.0
H495 H 0.40454 0.01016 0.40291 0.0
C496 C 0.49143 0.33529 0.4222 0.0
C497 C 0.46442 0.33095 0.4185 0.0
C498 C 0.50209 0.35722 0.46365 0.0
C499 C 0.48521 0.37499 0.50247 0.0
C500 C 0.45791 0.36919 0.50703 0.0
C501 C 0.44779 0.34732 0.46376 0.0
C502 C 0.53126 0.36264 0.45705 0.0
C503 C 0.43926 0.38729 0.54972 0.0
C504 C 0.51294 0.43408 0.62094 0.0
C505 C 0.51266 0.45175 0.55859 0.0
C506 C 0.50401 0.40892 0.60426 0.0
C507 C 0.49547 0.40123 0.52242 0.0
C508 C 0.49621 0.41888 0.4583 0.0
C509 C 0.50468 0.44393 0.47738 0.0
C510 C 0.50352 0.39068 0.67419 0.0
C511 C 0.48759 0.41145 0.36971 0.0
H512 H 0.5042 0.32273 0.38586 0.0
H513 H 0.42688 0.34401 0.45985 0.0
H514 H 0.53634 0.37638 0.40745 0.0
H515 H 0.53831 0.37109 0.51809 0.0
H516 H 0.54172 0.3454 0.43924 0.0
H517 H 0.41965 0.37795 0.56366 0.0
H518 H 0.44679 0.39578 0.61007 0.0
H519 H 0.43716 0.40276 0.50704 0.0
H520 H 0.51972 0.44003 0.68322 0.0
H521 H 0.50462 0.45752 0.42886 0.0
H522 H 0.50749 0.4003 0.737 0.0
H523 H 0.51848 0.37688 0.65836 0.0
H524 H 0.48433 0.37997 0.67977 0.0
H525 H 0.49861 0.39554 0.34147 0.0
H526 H 0.49046 0.42719 0.32627 0.0
H527 H 0.46662 0.40505 0.37306 0.0
C528 C 0.18336 0.49867 0.43259 0.0
C529 C 0.18557 0.47979 0.36728 0.0
C530 C 0.15957 0.50166 0.47931 0.0
C531 C 0.13759 0.48557 0.45932 0.0
C532 C 0.14041 0.46502 0.39933 0.0
C533 C 0.16448 0.46226 0.35444 0.0
C534 C 0.15751 0.52341 0.54451 0.0
C535 C 0.11748 0.44727 0.37691 0.0
C536 C 0.07436 0.48606 0.59559 0.0
C537 C 0.06003 0.50212 0.55196 0.0
C538 C 0.1 0.48119 0.56818 0.0
C539 C 0.11118 0.49186 0.49329 0.0
C540 C 0.09674 0.50798 0.4485 0.0
C541 C 0.07134 0.51309 0.4789 0.0
C542 C 0.11489 0.46432 0.61858 0.0
C543 C 0.10799 0.51946 0.36764 0.0
H544 H 0.19955 0.51233 0.44268 0.0
H545 H 0.16631 0.44741 0.30483 0.0
H546 H 0.1497 0.53942 0.51462 0.0
H547 H 0.14399 0.51838 0.59941 0.0
H548 H 0.17685 0.52974 0.56844 0.0
H549 H 0.12354 0.43073 0.33623 0.0
H550 H 0.10678 0.44055 0.43544 0.0
H551 H 0.10369 0.45736 0.34196 0.0
H552 H 0.06547 0.477 0.65098 0.0
H553 H 0.06019 0.52535 0.44483 0.0
H554 H 0.11697 0.44604 0.58244 0.0
H555 H 0.10492 0.46072 0.68178 0.0
H556 H 0.1348 0.47278 0.62859 0.0
H557 H 0.12628 0.53085 0.3804 0.0
H558 H 0.09427 0.53164 0.34067 0.0
H559 H 0.11297 0.50439 0.31894 0.0
C560 C 0.98437 0.83348 0.89477 0.0
C561 C 0.96332 0.83078 0.9551 0.0
C562 C 0.99145 0.85685 0.86105 0.0
C563 C 0.97717 0.87785 0.88894 0.0
C564 C 0.95427 0.87457 0.94269 0.0
C565 C 0.94752 0.85096 0.97475 0.0
C566 C 0.01562 0.85951 0.80209 0.0
C567 C 0.93825 0.89636 0.97329 0.0
C568 C 0.01332 0.94211 0.90471 0.0
C569 C 0.00613 0.95271 0.83111 0.0
C570 C 0.00439 0.91751 0.9236 0.0
C571 C 0.98746 0.9035 0.86828 0.0
C572 C 0.97986 0.91425 0.79472 0.0
C573 C 0.98944 0.93864 0.77703 0.0
C574 C 0.0127 0.90667 0.00337 0.0
C575 C 0.96099 0.90029 0.73622 0.0
H576 H 0.99675 0.81799 0.87986 0.0
H577 H 0.93113 0.84882 0.02109 0.0
H578 H 0.01275 0.87211 0.75037 0.0
H579 H 0.032 0.86802 0.83882 0.0
H580 H 0.02125 0.84105 0.77307 0.0
H581 H 0.91813 0.88987 0.99533 0.0
H582 H 0.9476 0.90668 0.02775 0.0
H583 H 0.93712 0.90977 0.92268 0.0
H584 H 0.0259 0.95308 0.94756 0.0
H585 H 0.98273 0.94689 0.72285 0.0
H586 H 0.02214 0.88881 0.98677 0.0
H587 H 0.99533 0.90226 0.04656 0.0
H588 H 0.0265 0.91974 0.03839 0.0
H589 H 0.96902 0.88243 0.71054 0.0
H590 H 0.95671 0.91149 0.68207 0.0
H591 H 0.94235 0.89534 0.77245 0.0
C592 C 0.65644 0.94673 0.86308 0.0
C593 C 0.67677 0.9616 0.89936 0.0
C594 C 0.63728 0.95784 0.82104 0.0
C595 C 0.63813 0.98433 0.81876 0.0
C596 C 0.66007 0.99903 0.84731 0.0
C597 C 0.67941 0.98736 0.88599 0.0
C598 C 0.61494 0.94154 0.78599 0.0
C599 C 0.66176 0.02733 0.8456 0.0
C600 C 0.59092 0.01939 0.70244 0.0
C601 C 0.57081 0.0227 0.76547 0.0
C602 C 0.61244 0.00591 0.71718 0.0
C603 C 0.61464 0.99697 0.79899 0.0
C604 C 0.59496 0.00139 0.86447 0.0
C605 C 0.57296 0.01381 0.84627 0.0
C606 C 0.63204 1.00047 0.64404 0.0
C607 C 0.59744 0.99355 0.95422 0.0
H608 H 0.65442 0.9268 0.87362 0.0
H609 H 0.695 0.9989 0.91481 0.0
H610 H 0.59702 0.94412 0.82753 0.0
H611 H 0.61102 0.94719 0.72146 0.0
H612 H 0.61889 0.92131 0.78228 0.0
H613 H 0.68097 0.03581 0.86456 0.0
H614 H 0.65841 0.03319 0.78092 0.0
H615 H 0.64632 0.03505 0.89009 0.0
H616 H 0.58942 0.02662 0.64032 0.0
H617 H 0.55756 0.01681 0.8953 0.0
H618 H 0.62751 0.98117 0.6167 0.0
H619 H 0.65224 0.00134 0.66506 0.0
H620 H 0.63121 0.0137 0.59252 0.0
H621 H 0.60108 0.97333 0.95396 0.0
H622 H 0.57975 0.99703 0.99625 0.0
H623 H 0.61443 0.00417 0.98209 0.0
C624 C 0.56915 0.67022 0.91182 0.0
C625 C 0.55275 0.68708 0.95574 0.0
C626 C 0.55874 0.6484 0.869 0.0
C627 C 0.53137 0.64311 0.87277 0.0
C628 C 0.51476 0.66131 0.91033 0.0
C629 C 0.52572 0.68322 0.95113 0.0
C630 C 0.57711 0.62984 0.82748 0.0
C631 C 0.48553 0.65641 0.91631 0.0
C632 C 0.50262 0.58442 0.75455 0.0
C633 C 0.50221 0.56681 0.81734 0.0
C634 C 0.51213 0.60942 0.771 0.0
C635 C 0.52062 0.61701 0.85299 0.0
C636 C 0.51928 0.59942 0.91744 0.0
C637 C 0.5102 0.57453 0.89863 0.0
C638 C 0.5133 0.62758 0.70067 0.0
C639 C 0.52785 0.60675 0.00615 0.0
H640 H 0.59006 0.67316 0.9164 0.0
H641 H 0.51311 0.69614 0.98647 0.0
H642 H 0.57857 0.6143 0.87043 0.0
H643 H 0.56972 0.62152 0.7667 0.0
H644 H 0.59698 0.63873 0.81453 0.0
H645 H 0.47537 0.67387 0.93336 0.0
H646 H 0.47848 0.64795 0.85528 0.0
H647 H 0.48006 0.64285 0.9662 0.0
H648 H 0.49588 0.57855 0.69215 0.0
H649 H 0.50978 0.56097 0.94742 0.0
H650 H 0.53282 0.63767 0.69495 0.0
H651 H 0.49888 0.64192 0.71619 0.0
H652 H 0.50904 0.61801 0.63803 0.0
H653 H 0.54895 0.61263 0.00318 0.0
H654 H 0.52444 0.59112 0.04987 0.0
H655 H 0.51722 0.62299 0.03382 0.0
C656 C 0.84168 0.54483 0.05135 0.0
C657 C 0.82029 0.52792 0.03624 0.0
C658 C 0.86558 0.54223 0.00535 0.0
C659 C 0.86804 0.5222 0.94301 0.0
C660 C 0.84576 0.50667 0.92159 0.0
C661 C 0.82202 0.50971 0.96879 0.0
C662 C 0.88875 0.55947 0.02914 0.0
C663 C 0.84746 0.48535 0.8547 0.0
C664 C 0.9319 0.52292 0.80995 0.0
C665 C 0.9463 0.50703 0.85409 0.0
C666 C 0.90593 0.52706 0.8354 0.0
C667 C 0.89441 0.51578 0.90874 0.0
C668 C 0.90879 0.49956 0.95333 0.0
C669 C 0.93459 0.49526 0.92505 0.0
C670 C 0.89103 0.5439 0.78492 0.0
C671 C 0.89712 0.48725 0.03214 0.0
H672 H 0.84021 0.55888 0.10376 0.0
H673 H 0.80551 0.49649 0.95776 0.0
H674 H 0.90235 0.54887 0.0631 0.0
H675 H 0.89955 0.5665 0.97119 0.0
H676 H 0.88293 0.57582 0.07123 0.0
H677 H 0.8281 0.47981 0.8295 0.0
H678 H 0.86139 0.49037 0.80084 0.0
H679 H 0.85453 0.4688 0.88358 0.0
H680 H 0.94103 0.53244 0.75583 0.0
H681 H 0.94574 0.48305 0.9593 0.0
H682 H 0.90203 0.5493 0.72505 0.0
H683 H 0.88676 0.56124 0.82414 0.0
H684 H 0.87207 0.53434 0.76839 0.0
H685 H 0.89229 0.50186 0.08268 0.0
H686 H 0.91053 0.47446 0.05761 0.0
H687 H 0.87869 0.47633 0.01761 0.0
C688 C 0.04065 0.19876 0.14089 0.0
C689 C 0.06124 0.19768 0.19432 0.0
C690 C 0.03713 0.18073 0.07335 0.0
C691 C 0.05471 0.1614 0.05942 0.0
C692 C 0.07724 0.16217 0.10684 0.0
C693 C 0.08018 0.18029 0.17415 0.0
C694 C 0.013 0.18072 0.02365 0.0
C695 C 0.09669 0.14218 0.09321 0.0
C696 C 0.02568 0.09597 0.00321 0.0
C697 C 0.03322 0.09284 0.91653 0.0
C698 C 0.03242 0.11834 0.0499 0.0
C699 C 0.047 0.13807 0.00861 0.0
C700 C 0.0545 0.13507 0.92071 0.0
C701 C 0.04762 0.11235 0.87572 0.0
C702 C 0.02405 0.12074 0.14372 0.0
C703 C 0.07001 0.15565 0.87455 0.0
H704 H 0.02591 0.21211 0.15692 0.0
H705 H 0.09613 0.17956 0.21562 0.0
H706 H 0.01742 0.17577 0.95506 0.0
H707 H 0.99827 0.16637 0.0481 0.0
H708 H 0.00429 0.19926 0.03 0.0
H709 H 0.11523 0.14795 0.12349 0.0
H710 H 0.08831 0.12468 0.12164 0.0
H711 H 0.10102 0.13779 0.02422 0.0
H712 H 0.01453 0.08087 0.03472 0.0
H713 H 0.05352 0.10985 0.80861 0.0
H714 H 0.01221 0.13729 0.15694 0.0
H715 H 0.04144 0.12377 0.18215 0.0
H716 H 0.0124 0.10382 0.16562 0.0
H717 H 0.06044 0.17364 0.88564 0.0
H718 H 0.07231 0.15118 0.80474 0.0
H719 H 0.08966 0.15856 0.89998 0.0
C720 C 0.33585 0.04185 0.10271 0.0
C721 C 0.33806 0.06117 0.16646 0.0
C722 C 0.35647 0.03776 0.04157 0.0
C723 C 0.37976 0.05349 0.04417 0.0
C724 C 0.38113 0.07433 0.10395 0.0
C725 C 0.36018 0.07804 0.16375 0.0
C726 C 0.35364 0.01599 0.97658 0.0
C727 C 0.40551 0.09156 0.1094 0.0
C728 C 0.44358 0.02513 0.96658 0.0
C729 C 0.44851 0.03522 0.88647 0.0
C730 C 0.4213 0.03099 0.01846 0.0
C731 C 0.40337 0.04714 0.98929 0.0
C732 C 0.40824 0.05738 0.90864 0.0
C733 C 0.43073 0.05142 0.85851 0.0
C734 C 0.41676 0.01965 0.10422 0.0
C735 C 0.38956 0.0745 0.87496 0.0
H736 H 0.31885 0.02873 0.10458 0.0
H737 H 0.3619 0.09308 0.21281 0.0
H738 H 0.35088 0.02339 0.91362 0.0
H739 H 0.37139 0.00518 0.9703 0.0
H740 H 0.33657 0.00295 0.99286 0.0
H741 H 0.40251 0.10826 0.1535 0.0
H742 H 0.42136 0.08114 0.1326 0.0
H743 H 0.41219 0.09803 0.04551 0.0
H744 H 0.45703 0.01251 0.98865 0.0
H745 H 0.43403 0.05914 0.79628 0.0
H746 H 0.39808 0.008 0.10626 0.0
H747 H 0.41511 0.03476 0.1554 0.0
H748 H 0.43267 0.00773 0.11822 0.0
H749 H 0.36983 0.06485 0.87314 0.0
H750 H 0.39581 0.08043 0.80995 0.0
H751 H 0.38789 0.09152 0.91827 0.0
C752 C 0.42144 0.33605 0.11079 0.0
C753 C 0.44233 0.32115 0.11999 0.0
C754 C 0.42332 0.35468 0.051 0.0
C755 C 0.44688 0.35876 0.00089 0.0
C756 C 0.46707 0.34214 0.00459 0.0
C757 C 0.46451 0.32344 0.06424 0.0
C758 C 0.40113 0.37162 0.04794 0.0
C759 C 0.49253 0.34583 0.9526 0.0
C760 C 0.4536 0.40741 0.83173 0.0
C761 C 0.46461 0.42833 0.87759 0.0
C762 C 0.44728 0.38462 0.87091 0.0
C763 C 0.45226 0.38281 0.95779 0.0
C764 C 0.46297 0.40412 0.00459 0.0
C765 C 0.46889 0.42663 0.96394 0.0
C766 C 0.43574 0.36243 0.8191 0.0
C767 C 0.46872 0.40303 0.09732 0.0
H768 H 0.40444 0.33443 0.1549 0.0
H769 H 0.48081 0.31216 0.07265 0.0
H770 H 0.40607 0.3898 0.08284 0.0
H771 H 0.39789 0.37565 0.98118 0.0
H772 H 0.38271 0.36323 0.07782 0.0
H773 H 0.50425 0.32908 0.95154 0.0
H774 H 0.48913 0.34993 0.88606 0.0
H775 H 0.50412 0.36217 0.98069 0.0
H776 H 0.45023 0.40877 0.76492 0.0
H777 H 0.47747 0.44278 -0.00057 0.0
H778 H 0.41753 0.35471 0.85207 0.0
H779 H 0.44955 0.34728 0.81276 0.0
H780 H 0.43136 0.36744 0.75417 0.0
H781 H 0.4506 0.39767 0.13568 0.0
H782 H 0.47707 0.42126 0.12443 0.0
H783 H 0.4827 0.38845 0.10429 0.0
C784 C 0.20132 0.47129 0.02001 0.0
C785 C 0.21211 0.49168 0.06875 0.0
C786 C 0.18176 0.47472 0.96443 0.0
C787 C 0.17252 0.49893 0.96006 0.0
C788 C 0.1859 0.51995 9e-05 0.0
C789 C 0.20578 0.51606 0.05389 0.0
C790 C 0.16901 0.45211 0.91806 0.0
C791 C 0.17717 0.54615 0.9943 0.0
C792 C 0.11785 0.50895 0.81633 0.0
C793 C 0.09585 0.50473 0.87201 0.0
C794 C 0.14309 0.50731 0.84356 0.0
C795 C 0.14627 0.50151 0.92875 0.0
C796 C 0.12402 0.4978 0.9857 0.0
C797 C 0.09905 0.49922 0.95627 0.0
C798 C 0.16589 0.51125 0.77965 0.0
C799 C 0.12656 0.49221 0.07782 0.0
H800 H 0.20619 0.45243 0.03202 0.0
H801 H 0.21405 0.53178 0.09231 0.0
H802 H 0.14996 0.44687 0.95141 0.0
H803 H 0.16524 0.45652 0.85202 0.0
H804 H 0.18123 0.43568 0.91551 0.0
H805 H 0.19158 0.56068 0.0195 0.0
H806 H 0.174 0.54981 0.92714 0.0
H807 H 0.15832 0.54798 0.03173 0.0
H808 H 0.1154 0.51306 0.75072 0.0
H809 H 0.08201 0.49604 -0.00072 0.0
H810 H 0.16656 0.49461 0.73412 0.0
H811 H 0.18493 0.51411 0.80915 0.0
H812 H 0.1632 0.52779 0.74228 0.0
H813 H 0.13559 0.47404 0.08112 0.0
H814 H 0.10744 0.49117 0.11471 0.0
H815 H 0.13949 0.50696 0.10906 0.0
C816 C 0.95593 0.8112 0.30552 0.0
C817 C 0.97598 0.80799 0.24244 0.0
C818 C 0.9587 0.8299 0.37138 0.0
C819 C 0.9816 0.84612 0.37125 0.0
C820 C 0.0029 0.84103 0.31293 0.0
C821 C 0.99993 0.82168 0.24984 0.0
C822 C 0.93614 0.83394 0.43549 0.0
C823 C 0.02762 0.85793 0.31015 0.0
C824 C 0.97384 0.91522 0.42869 0.0
C825 C 0.98671 0.91853 0.50441 0.0
C826 C 0.97172 0.89154 0.38532 0.0
C827 C 0.98178 0.87062 0.42085 0.0
C828 C 0.99373 0.87376 0.49955 0.0
C829 C 0.99652 0.89784 0.53956 0.0
C830 C 0.95969 0.88915 0.2998 0.0
C831 C 0.00345 0.85178 0.54167 0.0
H832 H 0.93731 0.80073 0.29891 0.0
H833 H 0.01521 0.81931 0.19989 0.0
H834 H 0.94322 0.83894 0.49987 0.0
H835 H 0.92516 0.84973 0.41693 0.0
H836 H 0.92252 0.81695 0.4388 0.0
H837 H 0.02343 0.87641 0.28711 0.0
H838 H 0.03501 0.86134 0.37477 0.0
H839 H 0.04323 0.8499 0.26701 0.0
H840 H 0.96639 0.93132 0.40168 0.0
H841 H 0.0062 0.90046 0.59899 0.0
H842 H 0.94269 0.87528 0.30155 0.0
H843 H 0.97406 0.88217 0.24989 0.0
H844 H 0.95315 0.9073 0.28077 0.0
H845 H 0.98648 0.83984 0.5662 0.0
H846 H 0.01562 0.85791 0.59581 0.0
H847 H 0.01501 0.8399 0.49539 0.0
C848 C 0.67046 0.95599 0.28624 0.0
C849 C 0.66425 0.95775 0.20104 0.0
C850 C 0.65216 0.96127 0.35455 0.0
C851 C 0.62664 0.96723 0.3373 0.0
C852 C 0.62003 0.96833 0.25201 0.0
C853 C 0.63907 0.96485 0.18604 0.0
C854 C 0.66046 0.96152 0.44489 0.0
C855 C 0.59286 0.97374 0.22976 0.0
C856 C 0.56923 0.96211 0.50106 0.0
C857 C 0.56406 0.98742 0.51686 0.0
C858 C 0.59005 0.95512 0.44442 0.0
C859 C 0.60696 0.97398 0.40693 0.0
C860 C 0.6026 0.99961 0.42695 0.0
C861 C 0.58066 0.00598 0.47901 0.0
C862 C 0.59311 0.92761 0.42128 0.0
C863 C 0.6209 0.02037 0.39241 0.0
H864 H 0.68966 0.95083 0.30008 0.0
H865 H 0.63389 0.96835 0.12248 0.0
H866 H 0.66163 0.98118 0.47207 0.0
H867 H 0.64593 0.95075 0.48567 0.0
H868 H 0.6798 0.95369 0.44829 0.0
H869 H 0.58988 0.97008 0.16068 0.0
H870 H 0.578 0.96202 0.26636 0.0
H871 H 0.58932 0.9937 0.24677 0.0
H872 H 0.55641 0.94776 0.53064 0.0
H873 H 0.57697 0.0256 0.49238 0.0
H874 H 0.61327 0.92268 0.43066 0.0
H875 H 0.58964 0.92367 0.35272 0.0
H876 H 0.57929 0.91527 0.45953 0.0
H877 H 0.64149 0.01601 0.39791 0.0
H878 H 0.61765 0.0388 0.42653 0.0
H879 H 0.61796 0.02211 0.32385 0.0
C880 C 0.55346 0.69517 0.3117 0.0
C881 C 0.57518 0.69641 0.25369 0.0
C882 C 0.55052 0.67652 0.37151 0.0
C883 C 0.56989 0.65894 0.3732 0.0
C884 C 0.59316 0.66196 0.32087 0.0
C885 C 0.59539 0.68053 0.26092 0.0
C886 C 0.52537 0.67395 0.42585 0.0
C887 C 0.61451 0.64397 0.32178 0.0
C888 C 0.56244 0.61022 0.54204 0.0
C889 C 0.55016 0.5898 0.49709 0.0
C890 C 0.56935 0.63288 0.50268 0.0
C891 C 0.56372 0.63504 0.41654 0.0
C892 C 0.5517 0.61423 0.37066 0.0
C893 C 0.54517 0.59185 0.41148 0.0
C894 C 0.58229 0.65454 0.55345 0.0
C895 C 0.54526 0.61571 0.27871 0.0
H896 H 0.53767 0.70723 0.30496 0.0
H897 H 0.61206 0.6814 0.21524 0.0
H898 H 0.51278 0.65818 0.39873 0.0
H899 H 0.5291 0.66954 0.49184 0.0
H900 H 0.51454 0.6913 0.42826 0.0
H901 H 0.63305 0.6516 0.29037 0.0
H902 H 0.61806 0.63969 0.38806 0.0
H903 H 0.60847 0.62603 0.28722 0.0
H904 H 0.56635 0.60859 0.60831 0.0
H905 H 0.53563 0.57608 0.3767 0.0
H906 H 0.56948 0.67051 0.55988 0.0
H907 H 0.60078 0.66119 0.51953 0.0
H908 H 0.58654 0.64937 0.61832 0.0
H909 H 0.53198 0.63099 0.27321 0.0
H910 H 0.5358 0.59787 0.25237 0.0
H911 H 0.56327 0.62026 0.23869 0.0
C912 C 0.80609 0.48428 0.33386 0.0
C913 C 0.79536 0.50756 0.33027 0.0
C914 C 0.82566 0.48127 0.38965 0.0
C915 C 0.83449 0.50208 0.44228 0.0
C916 C 0.82092 0.52434 0.44774 0.0
C917 C 0.80151 0.52692 0.39078 0.0
C918 C 0.83906 0.45691 0.38441 0.0
C919 C 0.82905 0.54647 0.50618 0.0
C920 C 0.8894 0.49484 0.58778 0.0
C921 C 0.91113 0.50336 0.53669 0.0
C922 C 0.86419 0.49418 0.55837 0.0
C923 C 0.86076 0.50242 0.47623 0.0
C924 C 0.88275 0.511 0.42443 0.0
C925 C 0.90768 0.51143 0.45553 0.0
C926 C 0.84147 0.48516 0.61642 0.0
C927 C 0.87997 0.51968 0.33586 0.0
H928 H 0.80137 0.46942 0.28632 0.0
H929 H 0.79327 0.54497 0.38724 0.0
H930 H 0.85819 0.45951 0.34836 0.0
H931 H 0.84277 0.4513 0.44913 0.0
H932 H 0.82735 0.44147 0.35158 0.0
H933 H 0.81398 0.5605 0.51379 0.0
H934 H 0.83286 0.54015 0.56994 0.0
H935 H 0.84742 0.5558 0.47936 0.0
H936 H 0.89205 0.48886 0.65119 0.0
H937 H 0.92451 0.51802 0.41619 0.0
H938 H 0.82472 0.47708 0.58064 0.0
H939 H 0.83485 0.50129 0.65793 0.0
H940 H 0.84735 0.47076 0.65831 0.0
H941 H 0.87056 0.50432 0.29574 0.0
H942 H 0.89904 0.52563 0.3038 0.0
H943 H 0.86726 0.53572 0.33915 0.0
loop_
_geom_bond_atom_site_label_1
_geom_bond_atom_site_label_2
_geom_bond_distance
_geom_bond_site_symmetry_2
_ccdc_geom_bond_type
H0 C5 0.930 . S
H1 C8 0.921 1_556 S
H2 C10 0.930 . S
H3 C4 1.016 1_556 S
C4 H3 1.016 1_554 S
C4 N11 1.286 . S
C5 H0 0.930 . S
C5 C6 1.397 . S
C5 C7 1.361 . S
C6 C5 1.397 . S
C6 C10 1.390 . S
C7 C5 1.361 . S
C7 C8 1.401 . S
C7 N11 1.413 . S
C8 H1 0.921 1_554 S
C8 C7 1.401 . S
C8 C9 1.400 . S
C9 C8 1.400 . S
C9 C10 1.381 . S
C10 H2 0.930 . S
C10 C6 1.390 . S
C10 C9 1.381 . S
N11 C4 1.286 . S
N11 C7 1.413 . S
H12 C17 0.930 . S
H13 C20 0.930 . S
H14 C22 0.930 . S
H15 C16 1.016 . S
C16 H15 1.016 . S
C16 N23 1.286 1_556 S
C17 H12 0.930 . S
C17 C18 1.397 . S
C17 C19 1.361 . S
C18 C17 1.397 . S
C18 C22 1.390 . S
C19 C17 1.361 . S
C19 C20 1.393 1_554 S
C19 N23 1.413 . S
C20 H13 0.930 . S
C20 C19 1.393 1_556 S
C20 C21 1.399 . S
C21 C20 1.399 . S
C21 C22 1.381 1_556 S
C22 H14 0.930 . S
C22 C18 1.390 . S
C22 C21 1.381 1_554 S
N23 C16 1.286 1_554 S
N23 C19 1.413 . S
H24 C29 0.930 . S
H25 C32 0.930 1_556 S
H26 C34 0.930 . S
H27 C28 1.016 1_556 S
C28 H27 1.016 1_554 S
C28 N35 1.286 . S
C29 H24 0.930 . S
C29 C30 1.397 . S
C29 C31 1.361 . S
C30 C29 1.397 . S
C30 C34 1.390 . S
C31 C29 1.361 . S
C31 C32 1.393 . S
C31 N35 1.413 . S
C32 H25 0.930 1_554 S
C32 C31 1.393 . S
C32 C33 1.399 . S
C33 C32 1.399 . S
C33 C34 1.381 . S
C34 H26 0.930 . S
C34 C30 1.390 . S
C34 C33 1.381 . S
N35 C28 1.286 . S
N35 C31 1.413 . S
H36 C41 0.930 . S
H37 C44 0.930 1_556 S
H38 C46 0.930 . S
H39 C40 1.016 1_556 S
C40 H39 1.016 1_554 S
C40 N47 1.286 . S
C41 H36 0.930 . S
C41 C42 1.397 . S
C41 C43 1.361 . S
C42 C41 1.397 . S
C42 C46 1.390 . S
C43 C41 1.361 . S
C43 C44 1.393 . S
C43 N47 1.413 . S
C44 H37 0.930 1_554 S
C44 C43 1.393 . S
C44 C45 1.399 . S
C45 C44 1.399 . S
C45 C46 1.381 . S
C46 H38 0.930 . S
C46 C42 1.390 . S
C46 C45 1.381 . S
N47 C40 1.286 . S
N47 C43 1.413 . S
H48 C53 0.930 . S
H49 C56 0.930 . S
H50 C58 0.930 . S
H51 C52 1.016 . S
C52 H51 1.016 . S
C52 N59 1.286 . S
C53 H48 0.930 . S
C53 C54 1.397 . S
C53 C55 1.361 . S
C54 C53 1.397 . S
C54 C58 1.390 . S
C55 C53 1.361 . S
C55 C56 1.393 . S
C55 N59 1.413 . S
C56 H49 0.930 . S
C56 C55 1.393 . S
C56 C57 1.399 . S
C57 C56 1.399 . S
C57 C58 1.381 . S
C58 H50 0.930 . S
C58 C54 1.390 . S
C58 C57 1.381 . S
N59 C52 1.286 . S
N59 C55 1.413 . S
H60 C65 0.930 . S
H61 C68 0.930 . S
H62 C70 0.930 . S
H63 C64 1.016 . S
C64 H63 1.016 . S
C64 N71 1.286 . S
C65 H60 0.930 . S
C65 C66 1.397 . S
C65 C67 1.361 . S
C66 C65 1.397 . S
C66 C70 1.390 . S
C67 C65 1.361 . S
C67 C68 1.393 . S
C67 N71 1.413 . S
C68 H61 0.930 . S
C68 C67 1.393 . S
C68 C69 1.399 . S
C69 C68 1.399 . S
C69 C70 1.381 . S
C70 H62 0.930 . S
C70 C66 1.390 . S
C70 C69 1.381 . S
N71 C64 1.286 . S
N71 C67 1.413 . S
H72 C77 0.930 . S
H73 C80 0.930 . S
H74 C82 0.930 . S
H75 C76 1.016 . S
C76 H75 1.016 . S
C76 N83 1.286 . S
C77 H72 0.930 . S
C77 C78 1.397 . S
C77 C79 1.361 . S
C78 C77 1.397 . S
C78 C82 1.390 . S
C79 C77 1.361 . S
C79 C80 1.393 . S
C79 N83 1.413 . S
C80 H73 0.930 . S
C80 C79 1.393 . S
C80 C81 1.399 . S
C81 C80 1.399 . S
C81 C82 1.381 . S
C82 H74 0.930 . S
C82 C78 1.390 . S
C82 C81 1.381 . S
N83 C76 1.286 . S
N83 C79 1.413 . S
H84 C89 0.930 . S
H85 C92 0.930 . S
H86 C94 0.930 . S
H87 C88 1.016 . S
C88 H87 1.016 . S
C88 N95 1.286 . S
C89 H84 0.930 . S
C89 C90 1.397 . S
C89 C91 1.361 . S
C90 C89 1.397 . S
C90 C94 1.390 . S
C91 C89 1.361 . S
C91 C92 1.393 . S
C91 N95 1.413 . S
C92 H85 0.930 . S
C92 C91 1.393 . S
C92 C93 1.399 . S
C93 C92 1.399 . S
C93 C94 1.381 . S
C94 H86 0.930 . S
C94 C90 1.390 . S
C94 C93 1.381 . S
N95 C88 1.286 . S
N95 C91 1.413 . S
Tb96 O99 2.453 1_565 S
Tb96 O100 2.596 1_665 S
Tb96 O101 2.374 1_665 S
Tb96 O109 2.343 1_655 S
Tb96 O111 2.353 1_565 S
Tb96 O113 2.427 . S
Tb96 O114 2.513 1_655 S
C97 O101 1.259 . S
C97 O103 1.263 . S
Tb98 O100 2.343 . S
Tb98 O103 2.353 . S
Tb98 O106 2.427 . S
Tb98 O107 2.512 . S
Tb98 O108 2.453 1_545 S
Tb98 O109 2.596 1_545 S
Tb98 O110 2.374 1_455 S
O99 Tb96 2.453 1_545 S
O99 C115 1.245 1_655 S
O100 Tb96 2.596 1_445 S
O100 Tb98 2.343 . S
O100 C115 1.259 . S
O101 Tb96 2.374 1_445 S
O101 C97 1.259 . S
C102 O106 1.275 . S
C102 O107 1.244 . S
O103 C97 1.263 . S
O103 Tb98 2.353 . S
C104 O108 1.245 . S
C104 O109 1.259 . S
C105 O110 1.250 . S
C105 O111 1.263 . S
O106 Tb98 2.427 . S
O106 C102 1.275 . S
O107 Tb98 2.512 . S
O107 C102 1.244 . S
O108 Tb98 2.453 1_565 S
O108 C104 1.245 . S
O109 Tb96 2.343 1_455 S
O109 Tb98 2.596 1_565 S
O109 C104 1.259 . S
O110 Tb98 2.374 1_655 S
O110 C105 1.250 . S
O111 Tb96 2.353 1_545 S
O111 C105 1.263 . S
C112 O113 1.275 . S
C112 O114 1.246 1_655 S
O113 Tb96 2.427 . S
O113 C112 1.275 . S
O114 Tb96 2.513 1_455 S
O114 C112 1.246 1_455 S
C115 O99 1.245 1_455 S
C115 O100 1.259 . S
Tb116 O119 2.453 . S
Tb116 O120 2.596 1_545 S
Tb116 O121 2.374 . S
Tb116 O129 2.343 . S
Tb116 O131 2.353 . S
Tb116 O133 2.427 . S
Tb116 O134 2.513 . S
C117 O121 1.251 1_565 S
C117 O123 1.263 . S
Tb118 O120 2.343 . S
Tb118 O123 2.353 . S
Tb118 O126 2.427 . S
Tb118 O127 2.513 . S
Tb118 O128 2.453 . S
Tb118 O129 2.596 1_565 S
Tb118 O130 2.374 . S
O119 Tb116 2.453 . S
O119 C135 1.245 . S
O120 Tb116 2.596 1_565 S
O120 Tb118 2.343 . S
O120 C135 1.259 1_565 S
O121 Tb116 2.374 . S
O121 C117 1.251 1_545 S
C122 O126 1.275 . S
C122 O127 1.246 . S
O123 C117 1.263 . S
O123 Tb118 2.353 . S
C124 O128 1.245 1_545 S
C124 O129 1.259 . S
C125 O130 1.250 1_545 S
C125 O131 1.263 . S
O126 Tb118 2.427 . S
O126 C122 1.275 . S
O127 Tb118 2.513 . S
O127 C122 1.246 . S
O128 Tb118 2.453 . S
O128 C124 1.245 1_565 S
O129 Tb116 2.343 . S
O129 Tb118 2.596 1_545 S
O129 C124 1.259 . S
O130 Tb118 2.374 . S
O130 C125 1.250 1_565 S
O131 Tb116 2.353 . S
O131 C125 1.263 . S
C132 O133 1.275 . S
C132 O134 1.246 . S
O133 Tb116 2.427 . S
O133 C132 1.275 . S
O134 Tb116 2.513 . S
O134 C132 1.246 . S
C135 O119 1.245 . S
C135 O120 1.259 1_545 S
Tb136 O139 2.453 . S
Tb136 O140 2.596 . S
Tb136 O141 2.374 . S
Tb136 O149 2.343 . S
Tb136 O151 2.353 . S
Tb136 O153 2.427 . S
Tb136 O154 2.513 . S
C137 O141 1.251 . S
C137 O143 1.263 . S
Tb138 O140 2.343 . S
Tb138 O143 2.353 . S
Tb138 O146 2.427 . S
Tb138 O147 2.513 . S
Tb138 O148 2.453 . S
Tb138 O149 2.596 . S
Tb138 O150 2.374 . S
O139 Tb136 2.453 . S
O139 C155 1.245 . S
O140 Tb136 2.596 . S
O140 Tb138 2.343 . S
O140 C155 1.259 . S
O141 Tb136 2.374 . S
O141 C137 1.251 . S
C142 O146 1.275 . S
C142 O147 1.246 . S
O143 C137 1.263 . S
O143 Tb138 2.353 . S
C144 O148 1.245 . S
C144 O149 1.259 . S
C145 O150 1.250 . S
C145 O151 1.263 . S
O146 Tb138 2.427 . S
O146 C142 1.275 . S
O147 Tb138 2.513 . S
O147 C142 1.246 . S
O148 Tb138 2.453 . S
O148 C144 1.245 . S
O149 Tb136 2.343 . S
O149 Tb138 2.596 . S
O149 C144 1.259 . S
O150 Tb138 2.374 . S
O150 C145 1.250 . S
O151 Tb136 2.353 . S
O151 C145 1.263 . S
C152 O153 1.275 . S
C152 O154 1.246 . S
O153 Tb136 2.427 . S
O153 C152 1.275 . S
O154 Tb136 2.513 . S
O154 C152 1.246 . S
C155 O139 1.245 . S
C155 O140 1.259 . S
Tb156 O159 2.453 1_655 S
Tb156 O160 2.596 1_655 S
Tb156 O161 2.374 1_655 S
Tb156 O169 2.343 . S
Tb156 O171 2.353 1_655 S
Tb156 O173 2.427 . S
Tb156 O174 2.513 . S
C157 O161 1.251 . S
C157 O163 1.263 . S
Tb158 O160 2.343 . S
Tb158 O163 2.353 . S
Tb158 O166 2.427 . S
Tb158 O167 2.513 . S
Tb158 O168 2.453 1_455 S
Tb158 O169 2.596 1_455 S
Tb158 O170 2.374 . S
O159 Tb156 2.453 1_455 S
O159 C175 1.245 . S
O160 Tb156 2.596 1_455 S
O160 Tb158 2.343 . S
O160 C175 1.259 . S
O161 Tb156 2.374 1_455 S
O161 C157 1.251 . S
C162 O166 1.275 . S
C162 O167 1.246 . S
O163 C157 1.263 . S
O163 Tb158 2.353 . S
C164 O168 1.245 . S
C164 O169 1.259 . S
C165 O170 1.250 . S
C165 O171 1.263 . S
O166 Tb158 2.427 . S
O166 C162 1.275 . S
O167 Tb158 2.513 . S
O167 C162 1.246 . S
O168 Tb158 2.453 1_655 S
O168 C164 1.245 . S
O169 Tb156 2.343 . S
O169 Tb158 2.596 1_655 S
O169 C164 1.259 . S
O170 Tb158 2.374 . S
O170 C165 1.250 . S
O171 Tb156 2.353 1_455 S
O171 C165 1.263 . S
C172 O173 1.275 . S
C172 O174 1.246 . S
O173 Tb156 2.427 . S
O173 C172 1.275 . S
O174 Tb156 2.513 . S
O174 C172 1.246 . S
C175 O159 1.245 . S
C175 O160 1.259 . S
C176 C177 1.391 . S
C176 C178 1.394 . S
C176 H192 0.931 . S
C177 C176 1.391 . S
C177 C181 1.376 . S
C178 C176 1.394 . S
C178 C179 1.369 . S
C178 C182 1.531 . S
C179 C178 1.369 . S
C179 C180 1.410 . S
C179 C187 1.503 . S
C180 C179 1.410 . S
C180 C181 1.392 . S
C180 C183 1.511 . S
C181 C177 1.376 . S
C181 C180 1.392 . S
C181 H193 0.929 . S
C182 C178 1.531 . S
C182 H194 0.960 . S
C182 H195 0.962 . S
C182 H196 0.960 . S
C183 C180 1.511 . S
C183 H197 0.961 . S
C183 H198 0.961 . S
C183 H199 0.961 . S
C184 C185 1.370 . S
C184 C186 1.363 . S
C184 H200 0.931 1_545 S
C185 C184 1.370 . S
C185 C189 1.408 . S
C186 C184 1.363 . S
C186 C187 1.370 . S
C186 C190 1.524 1_545 S
C187 C179 1.503 . S
C187 C186 1.370 . S
C187 C188 1.403 . S
C188 C187 1.403 . S
C188 C189 1.404 . S
C188 C191 1.539 . S
C189 C185 1.408 . S
C189 C188 1.404 . S
C189 H201 0.930 . S
C190 C186 1.524 1_565 S
C190 H202 0.956 . S
C190 H203 0.961 . S
C190 H204 0.961 . S
C191 C188 1.539 . S
C191 H205 0.958 . S
C191 H206 0.961 . S
C191 H207 0.960 . S
H192 C176 0.931 . S
H193 C181 0.929 . S
H194 C182 0.960 . S
H195 C182 0.962 . S
H196 C182 0.960 . S
H197 C183 0.961 . S
H198 C183 0.961 . S
H199 C183 0.961 . S
H200 C184 0.931 1_565 S
H201 C189 0.930 . S
H202 C190 0.956 . S
H203 C190 0.961 . S
H204 C190 0.961 . S
H205 C191 0.958 . S
H206 C191 0.961 . S
H207 C191 0.960 . S
C208 C209 1.391 . S
C208 C210 1.394 . S
C208 H224 0.931 . S
C209 C208 1.391 . S
C209 C213 1.376 . S
C210 C208 1.394 . S
C210 C211 1.369 . S
C210 C214 1.531 . S
C211 C210 1.369 . S
C211 C212 1.410 . S
C211 C219 1.503 . S
C212 C211 1.410 . S
C212 C213 1.392 . S
C212 C215 1.511 . S
C213 C209 1.376 . S
C213 C212 1.392 . S
C213 H225 0.929 . S
C214 C210 1.531 . S
C214 H226 0.960 . S
C214 H227 0.962 . S
C214 H228 0.960 . S
C215 C212 1.511 . S
C215 H229 0.961 . S
C215 H230 0.961 . S
C215 H231 0.961 . S
C216 C217 1.370 . S
C216 C218 1.363 . S
C216 H232 0.931 . S
C217 C216 1.370 . S
C217 C221 1.408 . S
C218 C216 1.363 . S
C218 C219 1.370 . S
C218 C222 1.524 . S
C219 C211 1.503 . S
C219 C218 1.370 . S
C219 C220 1.403 . S
C220 C219 1.403 . S
C220 C221 1.404 . S
C220 C223 1.539 . S
C221 C217 1.408 . S
C221 C220 1.404 . S
C221 H233 0.930 . S
C222 C218 1.524 . S
C222 H234 0.956 . S
C222 H235 0.961 . S
C222 H236 0.961 . S
C223 C220 1.539 . S
C223 H237 0.958 . S
C223 H238 0.961 . S
C223 H239 0.960 . S
H224 C208 0.931 . S
H225 C213 0.929 . S
H226 C214 0.960 . S
H227 C214 0.962 . S
H228 C214 0.960 . S
H229 C215 0.961 . S
H230 C215 0.961 . S
H231 C215 0.961 . S
H232 C216 0.931 . S
H233 C221 0.930 . S
H234 C222 0.956 . S
H235 C222 0.961 . S
H236 C222 0.961 . S
H237 C223 0.958 . S
H238 C223 0.961 . S
H239 C223 0.960 . S
C240 C241 1.391 . S
C240 C242 1.394 . S
C240 H256 0.931 . S
C241 C240 1.391 . S
C241 C245 1.376 . S
C242 C240 1.394 . S
C242 C243 1.369 . S
C242 C246 1.531 . S
C243 C242 1.369 . S
C243 C244 1.410 . S
C243 C251 1.503 . S
C244 C243 1.410 . S
C244 C245 1.392 . S
C244 C247 1.511 . S
C245 C241 1.376 . S
C245 C244 1.392 . S
C245 H257 0.929 . S
C246 C242 1.531 . S
C246 H258 0.960 . S
C246 H259 0.962 . S
C246 H260 0.960 . S
C247 C244 1.511 . S
C247 H261 0.961 . S
C247 H262 0.961 . S
C247 H263 0.961 . S
C248 C249 1.370 . S
C248 C250 1.363 . S
C248 H264 0.931 . S
C249 C248 1.370 . S
C249 C253 1.408 . S
C250 C248 1.363 . S
C250 C251 1.370 . S
C250 C254 1.524 . S
C251 C243 1.503 . S
C251 C250 1.370 . S
C251 C252 1.403 . S
C252 C251 1.403 . S
C252 C253 1.404 . S
C252 C255 1.539 . S
C253 C249 1.408 . S
C253 C252 1.404 . S
C253 H265 0.930 . S
C254 C250 1.524 . S
C254 H266 0.956 . S
C254 H267 0.961 . S
C254 H268 0.961 . S
C255 C252 1.539 . S
C255 H269 0.958 . S
C255 H270 0.961 . S
C255 H271 0.960 . S
H256 C240 0.931 . S
H257 C245 0.929 . S
H258 C246 0.960 . S
H259 C246 0.962 . S
H260 C246 0.960 . S
H261 C247 0.961 . S
H262 C247 0.961 . S
H263 C247 0.961 . S
H264 C248 0.931 . S
H265 C253 0.930 . S
H266 C254 0.956 . S
H267 C254 0.961 . S
H268 C254 0.961 . S
H269 C255 0.958 . S
H270 C255 0.961 . S
H271 C255 0.960 . S
C272 C273 1.391 . S
C272 C274 1.394 . S
C272 H288 0.931 . S
C273 C272 1.391 . S
C273 C277 1.376 . S
C274 C272 1.394 . S
C274 C275 1.369 . S
C274 C278 1.531 . S
C275 C274 1.369 . S
C275 C276 1.410 . S
C275 C283 1.503 . S
C276 C275 1.410 . S
C276 C277 1.392 . S
C276 C279 1.511 1_455 S
C277 C273 1.376 . S
C277 C276 1.392 . S
C277 H289 0.929 . S
C278 C274 1.531 . S
C278 H290 0.960 . S
C278 H291 0.962 . S
C278 H292 0.960 . S
C279 C276 1.511 1_655 S
C279 H293 0.961 . S
C279 H294 0.961 . S
C279 H295 0.961 . S
C280 C281 1.370 . S
C280 C282 1.363 . S
C280 H296 0.931 . S
C281 C280 1.370 . S
C281 C285 1.408 . S
C282 C280 1.363 . S
C282 C283 1.370 . S
C282 C286 1.524 . S
C283 C275 1.503 . S
C283 C282 1.370 . S
C283 C284 1.403 . S
C284 C283 1.403 . S
C284 C285 1.404 . S
C284 C287 1.539 . S
C285 C281 1.408 . S
C285 C284 1.404 . S
C285 H297 0.930 . S
C286 C282 1.524 . S
C286 H298 0.956 . S
C286 H299 0.961 . S
C286 H300 0.961 . S
C287 C284 1.539 . S
C287 H301 0.958 . S
C287 H302 0.996 . S
C287 H303 0.960 . S
H288 C272 0.931 . S
H289 C277 0.929 . S
H290 C278 0.960 . S
H291 C278 0.962 . S
H292 C278 0.960 . S
H293 C279 0.961 . S
H294 C279 0.961 . S
H295 C279 0.961 . S
H296 C280 0.931 . S
H297 C285 0.930 . S
H298 C286 0.956 . S
H299 C286 0.961 . S
H300 C286 0.961 . S
H301 C287 0.958 . S
H302 C287 0.996 . S
H303 C287 0.960 . S
C304 C305 1.391 . S
C304 C306 1.394 . S
C304 H320 0.931 . S
C305 C304 1.391 . S
C305 C309 1.376 1_556 S
C306 C304 1.394 . S
C306 C307 1.369 . S
C306 C310 1.531 . S
C307 C306 1.369 . S
C307 C308 1.410 . S
C307 C315 1.503 . S
C308 C307 1.410 . S
C308 C309 1.392 1_556 S
C308 C311 1.511 1_556 S
C309 C305 1.376 1_554 S
C309 C308 1.392 1_554 S
C309 H321 0.929 . S
C310 C306 1.531 . S
C310 H322 0.960 . S
C310 H323 0.962 . S
C310 H324 0.960 . S
C311 C308 1.511 1_554 S
C311 H325 0.961 . S
C311 H326 0.961 . S
C311 H327 0.961 1_565 S
C312 C313 1.370 . S
C312 C314 1.363 . S
C312 H328 0.931 . S
C313 C312 1.370 . S
C313 C317 1.408 1_565 S
C314 C312 1.363 . S
C314 C315 1.370 . S
C314 C318 1.524 . S
C315 C307 1.503 . S
C315 C314 1.370 . S
C315 C316 1.403 1_565 S
C316 C315 1.403 1_545 S
C316 C317 1.404 . S
C316 C319 1.539 . S
C317 C313 1.408 1_545 S
C317 C316 1.404 . S
C317 H329 0.930 . S
C318 C314 1.524 . S
C318 H330 0.956 . S
C318 H331 0.961 . S
C318 H332 0.961 . S
C319 C316 1.539 . S
C319 H333 0.958 . S
C319 H334 0.961 . S
C319 H335 0.960 . S
H320 C304 0.931 . S
H321 C309 0.929 . S
H322 C310 0.960 . S
H323 C310 0.962 . S
H324 C310 0.960 . S
H325 C311 0.961 . S
H326 C311 0.961 . S
H327 C311 0.961 1_545 S
H328 C312 0.931 . S
H329 C317 0.930 . S
H330 C318 0.956 . S
H331 C318 0.961 . S
H332 C318 0.961 . S
H333 C319 0.958 . S
H334 C319 0.961 . S
H335 C319 0.960 . S
C336 C337 1.391 . S
C336 C338 1.394 . S
C336 H352 0.931 . S
C337 C336 1.391 . S
C337 C341 1.376 1_554 S
C338 C336 1.394 . S
C338 C339 1.369 1_554 S
C338 C342 1.531 . S
C339 C338 1.369 1_556 S
C339 C340 1.410 . S
C339 C347 1.503 . S
C340 C339 1.410 . S
C340 C341 1.392 . S
C340 C343 1.511 . S
C341 C337 1.376 1_556 S
C341 C340 1.392 . S
C341 H353 0.929 . S
C342 C338 1.531 . S
C342 H354 0.960 . S
C342 H355 0.962 . S
C342 H356 0.960 . S
C343 C340 1.511 . S
C343 H357 0.961 . S
C343 H358 0.961 . S
C343 H359 0.961 . S
C344 C345 1.370 . S
C344 C346 1.363 . S
C344 H360 0.931 . S
C345 C344 1.370 . S
C345 C349 1.408 . S
C346 C344 1.363 . S
C346 C347 1.370 . S
C346 C350 1.524 . S
C347 C339 1.503 . S
C347 C346 1.370 . S
C347 C348 1.403 . S
C348 C347 1.403 . S
C348 C349 1.404 . S
C348 C351 1.539 1_556 S
C349 C345 1.408 . S
C349 C348 1.404 . S
C349 H361 0.930 . S
C350 C346 1.524 . S
C350 H362 0.956 . S
C350 H363 0.961 . S
C350 H364 0.961 . S
C351 C348 1.539 1_554 S
C351 H365 0.958 . S
C351 H366 0.961 . S
C351 H367 0.960 . S
H352 C336 0.931 . S
H353 C341 0.929 . S
H354 C342 0.960 . S
H355 C342 0.962 . S
H356 C342 0.960 . S
H357 C343 0.961 . S
H358 C343 0.961 . S
H359 C343 0.961 . S
H360 C344 0.931 . S
H361 C349 0.930 . S
H362 C350 0.956 . S
H363 C350 0.961 . S
H364 C350 0.961 . S
H365 C351 0.958 . S
H366 C351 0.961 . S
H367 C351 0.960 . S
C368 C369 1.391 . S
C368 C370 1.394 . S
C368 H384 0.931 . S
C369 C368 1.391 . S
C369 C373 1.376 1_556 S
C370 C368 1.394 . S
C370 C371 1.369 . S
C370 C374 1.531 . S
C371 C370 1.369 . S
C371 C372 1.410 . S
C371 C379 1.503 . S
C372 C371 1.410 . S
C372 C373 1.392 1_556 S
C372 C375 1.511 1_556 S
C373 C369 1.376 1_554 S
C373 C372 1.392 1_554 S
C373 H385 0.929 . S
C374 C370 1.531 . S
C374 H386 0.960 . S
C374 H387 0.962 . S
C374 H388 0.960 . S
C375 C372 1.511 1_554 S
C375 H389 0.961 . S
C375 H390 0.961 1_554 S
C375 H391 0.961 . S
C376 C377 1.370 . S
C376 C378 1.363 . S
C376 H392 0.931 . S
C377 C376 1.370 . S
C377 C381 1.408 . S
C378 C376 1.363 . S
C378 C379 1.370 . S
C378 C382 1.524 . S
C379 C371 1.503 . S
C379 C378 1.370 . S
C379 C380 1.403 . S
C380 C379 1.403 . S
C380 C381 1.404 . S
C380 C383 1.539 . S
C381 C377 1.408 . S
C381 C380 1.404 . S
C381 H393 0.930 . S
C382 C378 1.524 . S
C382 H394 0.956 . S
C382 H395 0.961 . S
C382 H396 0.961 . S
C383 C380 1.539 . S
C383 H397 0.958 . S
C383 H398 0.961 1_556 S
C383 H399 0.960 1_556 S
H384 C368 0.931 . S
H385 C373 0.929 . S
H386 C374 0.960 . S
H387 C374 0.962 . S
H388 C374 0.960 . S
H389 C375 0.961 . S
H390 C375 0.961 1_556 S
H391 C375 0.961 . S
H392 C376 0.931 . S
H393 C381 0.930 . S
H394 C382 0.956 . S
H395 C382 0.961 . S
H396 C382 0.961 . S
H397 C383 0.958 . S
H398 C383 0.961 1_554 S
H399 C383 0.960 1_554 S
C400 C401 1.391 . S
C400 C402 1.394 . S
C400 H416 0.931 . S
C401 C400 1.391 . S
C401 C405 1.376 . S
C402 C400 1.394 . S
C402 C403 1.369 . S
C402 C406 1.531 . S
C403 C402 1.369 . S
C403 C404 1.410 . S
C403 C411 1.503 . S
C404 C403 1.410 . S
C404 C405 1.392 . S
C404 C407 1.511 1_655 S
C405 C401 1.376 . S
C405 C404 1.392 . S
C405 H417 0.929 . S
C406 C402 1.531 . S
C406 H418 0.960 . S
C406 H419 0.962 . S
C406 H420 0.960 . S
C407 C404 1.511 1_455 S
C407 H421 0.961 . S
C407 H422 0.961 . S
C407 H423 0.961 . S
C408 C409 1.370 . S
C408 C410 1.363 . S
C408 H424 0.931 . S
C409 C408 1.370 . S
C409 C413 1.403 1_655 S
C410 C408 1.363 . S
C410 C411 1.370 . S
C410 C414 1.524 . S
C411 C403 1.503 . S
C411 C410 1.370 . S
C411 C412 1.403 . S
C412 C411 1.403 . S
C412 C413 1.396 1_655 S
C412 C415 1.539 1_655 S
C413 C409 1.403 1_455 S
C413 C412 1.396 1_455 S
C413 H425 0.943 . S
C414 C410 1.524 . S
C414 H426 0.956 . S
C414 H427 0.961 1_556 S
C414 H428 0.961 . S
C415 C412 1.539 1_455 S
C415 H429 0.958 1_455 S
C415 H430 0.961 . S
C415 H431 0.960 . S
H416 C400 0.931 . S
H417 C405 0.929 . S
H418 C406 0.960 . S
H419 C406 0.962 . S
H420 C406 0.960 . S
H421 C407 0.961 . S
H422 C407 0.961 . S
H423 C407 0.961 . S
H424 C408 0.931 . S
H425 C413 0.943 . S
H426 C414 0.956 . S
H427 C414 0.961 1_554 S
H428 C414 0.961 . S
H429 C415 0.958 1_655 S
H430 C415 0.961 . S
H431 C415 0.960 . S
C432 C433 1.391 . S
C432 C434 1.394 . S
C432 H448 0.931 . S
C433 C432 1.391 . S
C433 C437 1.376 . S
C434 C432 1.394 . S
C434 C435 1.369 . S
C434 C438 1.531 1_455 S
C435 C434 1.369 . S
C435 C436 1.410 . S
C435 C443 1.503 . S
C436 C435 1.410 . S
C436 C437 1.392 . S
C436 C439 1.511 . S
C437 C433 1.376 . S
C437 C436 1.392 . S
C437 H449 0.929 . S
C438 C434 1.531 1_655 S
C438 H450 0.960 . S
C438 H451 0.962 . S
C438 H452 0.960 . S
C439 C436 1.511 . S
C439 H453 0.961 . S
C439 H454 0.961 . S
C439 H455 0.961 . S
C440 C441 1.370 . S
C440 C442 1.363 . S
C440 H456 0.931 . S
C441 C440 1.370 . S
C441 C445 1.408 . S
C442 C440 1.363 . S
C442 C443 1.370 . S
C442 C446 1.524 . S
C443 C435 1.503 . S
C443 C442 1.370 . S
C443 C444 1.403 . S
C444 C443 1.403 . S
C444 C445 1.404 . S
C444 C447 1.539 . S
C445 C441 1.408 . S
C445 C444 1.404 . S
C445 H457 0.930 . S
C446 C442 1.524 . S
C446 H458 0.956 . S
C446 H459 0.961 . S
C446 H460 0.961 . S
C447 C444 1.539 . S
C447 H461 0.958 . S
C447 H462 0.961 . S
C447 H463 0.960 . S
H448 C432 0.931 . S
H449 C437 0.929 . S
H450 C438 0.960 . S
H451 C438 0.962 . S
H452 C438 0.960 . S
H453 C439 0.961 . S
H454 C439 0.961 . S
H455 C439 0.961 . S
H456 C440 0.931 . S
H457 C445 0.930 . S
H458 C446 0.956 . S
H459 C446 0.961 . S
H460 C446 0.961 . S
H461 C447 0.958 . S
H462 C447 0.961 . S
H463 C447 0.960 . S
C464 C465 1.391 . S
C464 C466 1.394 . S
C464 H480 0.931 . S
C465 C464 1.391 . S
C465 C469 1.376 . S
C466 C464 1.394 . S
C466 C467 1.369 . S
C466 C470 1.531 . S
C467 C466 1.369 . S
C467 C468 1.410 . S
C467 C475 1.503 . S
C468 C467 1.410 . S
C468 C469 1.392 . S
C468 C471 1.511 . S
C469 C465 1.376 . S
C469 C468 1.392 . S
C469 H481 0.929 . S
C470 C466 1.531 . S
C470 H482 0.960 . S
C470 H483 0.962 1_545 S
C470 H484 0.960 . S
C471 C468 1.511 . S
C471 H485 0.961 . S
C471 H486 0.961 . S
C471 H487 0.961 . S
C472 C473 1.370 . S
C472 C474 1.363 . S
C472 H488 0.931 1_545 S
C473 C472 1.370 . S
C473 C477 1.408 . S
C474 C472 1.363 . S
C474 C475 1.370 . S
C474 C478 1.524 1_545 S
C475 C467 1.503 . S
C475 C474 1.370 . S
C475 C476 1.403 . S
C476 C475 1.403 . S
C476 C477 1.404 . S
C476 C479 1.539 . S
C477 C473 1.408 . S
C477 C476 1.404 . S
C477 H489 0.930 . S
C478 C474 1.524 1_565 S
C478 H490 0.956 . S
C478 H491 0.961 1_565 S
C478 H492 0.961 . S
C479 C476 1.539 . S
C479 H493 0.958 . S
C479 H494 0.961 . S
C479 H495 0.960 . S
H480 C464 0.931 . S
H481 C469 0.929 . S
H482 C470 0.960 . S
H483 C470 0.962 1_565 S
H484 C470 0.960 . S
H485 C471 0.961 . S
H486 C471 0.961 . S
H487 C471 0.961 . S
H488 C472 0.931 1_565 S
H489 C477 0.930 . S
H490 C478 0.956 . S
H491 C478 0.961 1_545 S
H492 C478 0.961 . S
H493 C479 0.958 . S
H494 C479 0.961 . S
H495 C479 0.960 . S
C496 C497 1.391 . S
C496 C498 1.394 . S
C496 H512 0.931 . S
C497 C496 1.391 . S
C497 C501 1.376 . S
C498 C496 1.394 . S
C498 C499 1.369 . S
C498 C502 1.531 . S
C499 C498 1.369 . S
C499 C500 1.410 . S
C499 C507 1.503 . S
C500 C499 1.410 . S
C500 C501 1.392 . S
C500 C503 1.511 . S
C501 C497 1.376 . S
C501 C500 1.392 . S
C501 H513 0.929 . S
C502 C498 1.531 . S
C502 H514 0.960 . S
C502 H515 0.962 . S
C502 H516 0.960 . S
C503 C500 1.511 . S
C503 H517 0.961 . S
C503 H518 0.961 . S
C503 H519 0.961 . S
C504 C505 1.370 . S
C504 C506 1.363 . S
C504 H520 0.931 . S
C505 C504 1.370 . S
C505 C509 1.408 . S
C506 C504 1.363 . S
C506 C507 1.370 . S
C506 C510 1.524 . S
C507 C499 1.503 . S
C507 C506 1.370 . S
C507 C508 1.403 . S
C508 C507 1.403 . S
C508 C509 1.404 . S
C508 C511 1.539 . S
C509 C505 1.408 . S
C509 C508 1.404 . S
C509 H521 0.930 . S
C510 C506 1.524 . S
C510 H522 0.956 . S
C510 H523 0.961 . S
C510 H524 0.961 . S
C511 C508 1.539 . S
C511 H525 0.958 . S
C511 H526 0.961 . S
C511 H527 0.960 . S
H512 C496 0.931 . S
H513 C501 0.929 . S
H514 C502 0.960 . S
H515 C502 0.962 . S
H516 C502 0.960 . S
H517 C503 0.961 . S
H518 C503 0.961 . S
H519 C503 0.961 . S
H520 C504 0.931 . S
H521 C509 0.930 . S
H522 C510 0.956 . S
H523 C510 0.961 . S
H524 C510 0.961 . S
H525 C511 0.958 . S
H526 C511 0.961 . S
H527 C511 0.960 . S
C528 C529 1.391 . S
C528 C530 1.394 . S
C528 H544 0.931 . S
C529 C528 1.391 . S
C529 C533 1.376 . S
C530 C528 1.394 . S
C530 C531 1.369 . S
C530 C534 1.531 . S
C531 C530 1.369 . S
C531 C532 1.410 . S
C531 C539 1.503 . S
C532 C531 1.410 . S
C532 C533 1.392 . S
C532 C535 1.511 . S
C533 C529 1.376 . S
C533 C532 1.392 . S
C533 H545 0.929 . S
C534 C530 1.531 . S
C534 H546 0.960 . S
C534 H547 0.962 . S
C534 H548 0.960 . S
C535 C532 1.511 . S
C535 H549 0.961 . S
C535 H550 0.961 . S
C535 H551 0.961 . S
C536 C537 1.370 . S
C536 C538 1.363 . S
C536 H552 0.931 . S
C537 C536 1.370 . S
C537 C541 1.408 . S
C538 C536 1.363 . S
C538 C539 1.370 . S
C538 C542 1.524 . S
C539 C531 1.503 . S
C539 C538 1.370 . S
C539 C540 1.403 . S
C540 C539 1.403 . S
C540 C541 1.404 . S
C540 C543 1.539 . S
C541 C537 1.408 . S
C541 C540 1.404 . S
C541 H553 0.930 . S
C542 C538 1.524 . S
C542 H554 0.956 . S
C542 H555 0.961 . S
C542 H556 0.961 . S
C543 C540 1.539 . S
C543 H557 0.958 . S
C543 H558 0.961 . S
C543 H559 0.960 . S
H544 C528 0.931 . S
H545 C533 0.929 . S
H546 C534 0.960 . S
H547 C534 0.962 . S
H548 C534 0.960 . S
H549 C535 0.961 . S
H550 C535 0.961 . S
H551 C535 0.961 . S
H552 C536 0.931 . S
H553 C541 0.930 . S
H554 C542 0.956 . S
H555 C542 0.961 . S
H556 C542 0.961 . S
H557 C543 0.958 . S
H558 C543 0.961 . S
H559 C543 0.960 . S
C560 C561 1.391 . S
C560 C562 1.394 . S
C560 H576 0.931 . S
C561 C560 1.391 . S
C561 C565 1.376 . S
C562 C560 1.394 . S
C562 C563 1.369 . S
C562 C566 1.531 1_655 S
C563 C562 1.369 . S
C563 C564 1.410 . S
C563 C571 1.503 . S
C564 C563 1.410 . S
C564 C565 1.392 . S
C564 C567 1.511 . S
C565 C561 1.376 . S
C565 C564 1.392 . S
C565 H577 0.929 . S
C566 C562 1.531 1_455 S
C566 H578 0.960 . S
C566 H579 0.962 . S
C566 H580 0.960 . S
C567 C564 1.511 . S
C567 H581 0.961 . S
C567 H582 0.961 . S
C567 H583 0.961 . S
C568 C569 1.370 1_455 S
C568 C570 1.363 1_455 S
C568 H584 0.930 . S
C569 C568 1.370 1_655 S
C569 C573 1.408 . S
C570 C568 1.363 1_655 S
C570 C571 1.370 . S
C570 C574 1.524 . S
C571 C563 1.503 . S
C571 C570 1.370 . S
C571 C572 1.403 . S
C572 C571 1.403 . S
C572 C573 1.404 . S
C572 C575 1.539 . S
C573 C569 1.408 . S
C573 C572 1.404 . S
C573 H585 0.930 . S
C574 C570 1.524 . S
C574 H586 0.956 1_655 S
C574 H587 0.961 . S
C574 H588 0.961 1_655 S
C575 C572 1.539 . S
C575 H589 0.958 . S
C575 H590 0.961 . S
C575 H591 0.960 . S
H576 C560 0.931 . S
H577 C565 0.929 . S
H578 C566 0.960 . S
H579 C566 0.962 . S
H580 C566 0.960 . S
H581 C567 0.961 . S
H582 C567 0.961 . S
H583 C567 0.961 . S
H584 C568 0.930 . S
H585 C573 0.930 . S
H586 C574 0.956 1_455 S
H587 C574 0.961 . S
H588 C574 0.961 1_455 S
H589 C575 0.958 . S
H590 C575 0.961 . S
H591 C575 0.960 . S
C592 C593 1.391 . S
C592 C594 1.394 . S
C592 H608 0.931 . S
C593 C592 1.391 . S
C593 C597 1.376 1_556 S
C594 C592 1.394 . S
C594 C595 1.369 . S
C594 C598 1.531 . S
C595 C594 1.369 . S
C595 C596 1.412 . S
C595 C603 1.503 . S
C596 C595 1.412 . S
C596 C597 1.391 1_556 S
C596 C599 1.510 1_556 S
C597 C593 1.376 1_554 S
C597 C596 1.391 1_554 S
C597 H609 0.929 . S
C598 C594 1.531 . S
C598 H610 0.960 . S
C598 H611 0.962 . S
C598 H612 0.960 . S
C599 C596 1.510 1_554 S
C599 H613 0.966 . S
C599 H614 0.957 1_565 S
C599 H615 0.961 . S
C600 C601 1.370 1_545 S
C600 C602 1.363 . S
C600 H616 0.931 . S
C601 C600 1.370 1_565 S
C601 C605 1.408 . S
C602 C600 1.363 . S
C602 C603 1.370 1_545 S
C602 C606 1.524 . S
C603 C595 1.503 . S
C603 C602 1.370 1_565 S
C603 C604 1.403 . S
C604 C603 1.403 . S
C604 C605 1.404 . S
C604 C607 1.539 . S
C605 C601 1.408 . S
C605 C604 1.404 . S
C605 H617 0.930 . S
C606 C602 1.524 . S
C606 H618 0.956 . S
C606 H619 0.961 . S
C606 H620 0.961 . S
C607 C604 1.539 . S
C607 H621 0.958 . S
C607 H622 0.961 . S
C607 H623 0.960 . S
H608 C592 0.931 . S
H609 C597 0.929 . S
H610 C598 0.960 . S
H611 C598 0.962 . S
H612 C598 0.960 . S
H613 C599 0.966 . S
H614 C599 0.957 1_545 S
H615 C599 0.961 . S
H616 C600 0.931 . S
H617 C605 0.930 . S
H618 C606 0.956 . S
H619 C606 0.961 . S
H620 C606 0.961 . S
H621 C607 0.958 . S
H622 C607 0.961 . S
H623 C607 0.960 . S
C624 C625 1.391 . S
C624 C626 1.394 . S
C624 H640 0.931 . S
C625 C624 1.391 . S
C625 C629 1.376 1_556 S
C626 C624 1.394 . S
C626 C627 1.369 . S
C626 C630 1.531 . S
C627 C626 1.369 . S
C627 C628 1.410 . S
C627 C635 1.503 . S
C628 C627 1.410 . S
C628 C629 1.392 1_556 S
C628 C631 1.511 1_556 S
C629 C625 1.376 1_554 S
C629 C628 1.392 1_554 S
C629 H641 0.929 . S
C630 C626 1.531 . S
C630 H642 0.960 . S
C630 H643 0.962 . S
C630 H644 0.960 . S
C631 C628 1.511 1_554 S
C631 H645 0.961 . S
C631 H646 0.961 . S
C631 H647 0.961 . S
C632 C633 1.370 . S
C632 C634 1.363 . S
C632 H648 0.931 . S
C633 C632 1.370 . S
C633 C637 1.408 . S
C634 C632 1.363 . S
C634 C635 1.370 . S
C634 C638 1.524 . S
C635 C627 1.503 . S
C635 C634 1.370 . S
C635 C636 1.403 . S
C636 C635 1.403 . S
C636 C637 1.404 . S
C636 C639 1.539 . S
C637 C633 1.408 . S
C637 C636 1.404 . S
C637 H649 0.930 . S
C638 C634 1.524 . S
C638 H650 0.956 . S
C638 H651 0.961 . S
C638 H652 0.961 . S
C639 C636 1.539 . S
C639 H653 0.958 . S
C639 H654 0.961 . S
C639 H655 0.960 . S
H640 C624 0.931 . S
H641 C629 0.929 . S
H642 C630 0.960 . S
H643 C630 0.962 . S
H644 C630 0.960 . S
H645 C631 0.961 . S
H646 C631 0.961 . S
H647 C631 0.961 . S
H648 C632 0.931 . S
H649 C637 0.930 . S
H650 C638 0.956 . S
H651 C638 0.961 . S
H652 C638 0.961 . S
H653 C639 0.958 . S
H654 C639 0.961 . S
H655 C639 0.960 . S
C656 C657 1.391 . S
C656 C658 1.394 . S
C656 H672 0.931 . S
C657 C656 1.391 . S
C657 C661 1.376 1_556 S
C658 C656 1.394 . S
C658 C659 1.369 . S
C658 C662 1.531 . S
C659 C658 1.369 . S
C659 C660 1.410 . S
C659 C667 1.503 . S
C660 C659 1.410 . S
C660 C661 1.392 1_556 S
C660 C663 1.511 1_556 S
C661 C657 1.376 1_554 S
C661 C660 1.392 1_554 S
C661 H673 0.929 . S
C662 C658 1.531 . S
C662 H674 0.960 . S
C662 H675 0.962 . S
C662 H676 0.960 . S
C663 C660 1.511 1_554 S
C663 H677 0.961 . S
C663 H678 0.961 1_554 S
C663 H679 0.961 . S
C664 C665 1.370 . S
C664 C666 1.363 . S
C664 H680 0.931 . S
C665 C664 1.370 . S
C665 C669 1.408 . S
C666 C664 1.363 . S
C666 C667 1.370 . S
C666 C670 1.524 . S
C667 C659 1.503 . S
C667 C666 1.370 . S
C667 C668 1.403 . S
C668 C667 1.403 . S
C668 C669 1.404 . S
C668 C671 1.539 . S
C669 C665 1.408 . S
C669 C668 1.404 . S
C669 H681 0.930 . S
C670 C666 1.524 . S
C670 H682 0.956 . S
C670 H683 0.961 . S
C670 H684 0.961 . S
C671 C668 1.539 . S
C671 H685 0.958 . S
C671 H686 0.961 . S
C671 H687 0.960 . S
H672 C656 0.931 . S
H673 C661 0.929 . S
H674 C662 0.960 . S
H675 C662 0.962 . S
H676 C662 0.960 . S
H677 C663 0.961 . S
H678 C663 0.961 1_556 S
H679 C663 0.961 . S
H680 C664 0.931 . S
H681 C669 0.930 . S
H682 C670 0.956 . S
H683 C670 0.961 . S
H684 C670 0.961 . S
H685 C671 0.958 . S
H686 C671 0.961 . S
H687 C671 0.960 . S
C688 C689 1.391 . S
C688 C690 1.394 . S
C688 H704 0.931 . S
C689 C688 1.391 . S
C689 C693 1.376 . S
C690 C688 1.394 . S
C690 C691 1.369 . S
C690 C694 1.531 1_554 S
C691 C690 1.369 . S
C691 C692 1.410 . S
C691 C699 1.503 . S
C692 C691 1.410 . S
C692 C693 1.392 . S
C692 C695 1.511 . S
C693 C689 1.376 . S
C693 C692 1.392 . S
C693 H705 0.929 . S
C694 C690 1.531 1_556 S
C694 H706 0.960 . S
C694 H707 0.962 . S
C694 H708 0.960 . S
C695 C692 1.511 . S
C695 H709 0.961 . S
C695 H710 0.961 . S
C695 H711 0.961 . S
C696 C697 1.370 . S
C696 C698 1.363 1_556 S
C696 H712 0.931 1_455 S
C697 C696 1.370 . S
C697 C701 1.408 . S
C698 C696 1.363 1_554 S
C698 C699 1.370 . S
C698 C702 1.524 1_455 S
C699 C691 1.503 . S
C699 C698 1.370 . S
C699 C700 1.403 1_554 S
C700 C699 1.403 1_556 S
C700 C701 1.404 . S
C700 C703 1.539 . S
C701 C697 1.408 . S
C701 C700 1.404 . S
C701 H713 0.930 . S
C702 C698 1.524 1_655 S
C702 H714 0.956 . S
C702 H715 0.961 . S
C702 H716 0.961 . S
C703 C700 1.539 . S
C703 H717 0.958 . S
C703 H718 0.961 . S
C703 H719 0.960 1_556 S
H704 C688 0.931 . S
H705 C693 0.929 . S
H706 C694 0.960 . S
H707 C694 0.962 . S
H708 C694 0.960 . S
H709 C695 0.961 . S
H710 C695 0.961 . S
H711 C695 0.961 . S
H712 C696 0.931 1_655 S
H713 C701 0.930 . S
H714 C702 0.956 . S
H715 C702 0.961 . S
H716 C702 0.961 . S
H717 C703 0.958 . S
H718 C703 0.961 . S
H719 C703 0.960 1_554 S
C720 C721 1.391 . S
C720 C722 1.394 . S
C720 H736 0.931 . S
C721 C720 1.391 . S
C721 C725 1.376 . S
C722 C720 1.394 . S
C722 C723 1.369 . S
C722 C726 1.531 1_554 S
C723 C722 1.369 . S
C723 C724 1.410 . S
C723 C731 1.503 1_554 S
C724 C723 1.410 . S
C724 C725 1.392 . S
C724 C727 1.511 . S
C725 C721 1.376 . S
C725 C724 1.392 . S
C725 H737 0.929 . S
C726 C722 1.531 1_556 S
C726 H738 0.960 . S
C726 H739 0.915 1_545 S
C726 H740 0.960 . S
C727 C724 1.511 . S
C727 H741 0.961 . S
C727 H742 0.961 . S
C727 H743 0.961 . S
C728 C729 1.370 . S
C728 C730 1.363 1_556 S
C728 H744 0.931 1_545 S
C729 C728 1.370 . S
C729 C733 1.408 . S
C730 C728 1.363 1_554 S
C730 C731 1.370 1_554 S
C730 C734 1.524 1_545 S
C731 C723 1.503 1_556 S
C731 C730 1.370 1_556 S
C731 C732 1.403 . S
C732 C731 1.403 . S
C732 C733 1.404 . S
C732 C735 1.539 . S
C733 C729 1.408 . S
C733 C732 1.404 . S
C733 H745 0.930 . S
C734 C730 1.524 1_565 S
C734 H746 0.956 . S
C734 H747 0.961 1_565 S
C734 H748 0.961 . S
C735 C732 1.539 . S
C735 H749 0.958 . S
C735 H750 0.961 . S
C735 H751 0.960 . S
H736 C720 0.931 . S
H737 C725 0.929 . S
H738 C726 0.960 . S
H739 C726 0.915 1_565 S
H740 C726 0.960 . S
H741 C727 0.961 . S
H742 C727 0.961 . S
H743 C727 0.961 . S
H744 C728 0.931 1_565 S
H745 C733 0.930 . S
H746 C734 0.956 . S
H747 C734 0.961 1_545 S
H748 C734 0.961 . S
H749 C735 0.958 . S
H750 C735 0.961 . S
H751 C735 0.960 . S
C752 C753 1.391 . S
C752 C754 1.394 . S
C752 H768 0.931 . S
C753 C752 1.391 . S
C753 C757 1.376 . S
C754 C752 1.394 . S
C754 C755 1.369 . S
C754 C758 1.531 . S
C755 C754 1.369 . S
C755 C756 1.410 . S
C755 C763 1.503 . S
C756 C755 1.410 . S
C756 C757 1.392 . S
C756 C759 1.511 . S
C757 C753 1.376 . S
C757 C756 1.392 . S
C757 H769 0.929 . S
C758 C754 1.531 . S
C758 H770 0.960 . S
C758 H771 0.962 . S
C758 H772 0.960 . S
C759 C756 1.511 . S
C759 H773 0.961 1_554 S
C759 H774 0.961 1_554 S
C759 H775 0.961 . S
C760 C761 1.370 . S
C760 C762 1.363 . S
C760 H776 0.931 . S
C761 C760 1.370 . S
C761 C765 1.408 . S
C762 C760 1.363 . S
C762 C763 1.370 1_556 S
C762 C766 1.524 . S
C763 C755 1.503 . S
C763 C762 1.370 1_554 S
C763 C764 1.403 . S
C764 C763 1.403 . S
C764 C765 1.404 1_554 S
C764 C767 1.539 . S
C765 C761 1.408 . S
C765 C764 1.404 1_556 S
C765 H777 0.930 1_556 S
C766 C762 1.524 . S
C766 H778 0.956 . S
C766 H779 0.961 . S
C766 H780 0.961 . S
C767 C764 1.539 . S
C767 H781 0.958 . S
C767 H782 0.961 . S
C767 H783 0.960 . S
H768 C752 0.931 . S
H769 C757 0.929 . S
H770 C758 0.960 . S
H771 C758 0.962 . S
H772 C758 0.960 . S
H773 C759 0.961 1_556 S
H774 C759 0.961 1_556 S
H775 C759 0.961 . S
H776 C760 0.931 . S
H777 C765 0.930 1_554 S
H778 C766 0.956 . S
H779 C766 0.961 . S
H780 C766 0.961 . S
H781 C767 0.958 . S
H782 C767 0.961 . S
H783 C767 0.960 . S
C784 C785 1.391 . S
C784 C786 1.394 . S
C784 H800 0.931 . S
C785 C784 1.391 . S
C785 C789 1.376 . S
C786 C784 1.394 . S
C786 C787 1.369 . S
C786 C790 1.531 1_554 S
C787 C786 1.369 . S
C787 C788 1.410 . S
C787 C795 1.503 . S
C788 C787 1.410 . S
C788 C789 1.392 . S
C788 C791 1.511 . S
C789 C785 1.376 . S
C789 C788 1.392 . S
C789 H801 0.929 . S
C790 C786 1.531 1_556 S
C790 H802 0.960 . S
C790 H803 0.962 . S
C790 H804 0.960 . S
C791 C788 1.511 . S
C791 H805 0.961 . S
C791 H806 0.961 . S
C791 H807 0.961 . S
C792 C793 1.370 . S
C792 C794 1.363 . S
C792 H808 0.931 . S
C793 C792 1.370 . S
C793 C797 1.408 . S
C794 C792 1.363 . S
C794 C795 1.370 1_556 S
C794 C798 1.524 . S
C795 C787 1.503 . S
C795 C794 1.370 1_554 S
C795 C796 1.403 . S
C796 C795 1.403 . S
C796 C797 1.404 1_554 S
C796 C799 1.539 . S
C797 C793 1.408 . S
C797 C796 1.404 1_556 S
C797 H809 0.930 . S
C798 C794 1.524 . S
C798 H810 0.956 . S
C798 H811 0.961 1_556 S
C798 H812 0.961 . S
C799 C796 1.539 . S
C799 H813 0.958 . S
C799 H814 0.961 . S
C799 H815 0.960 . S
H800 C784 0.931 . S
H801 C789 0.929 . S
H802 C790 0.960 . S
H803 C790 0.962 . S
H804 C790 0.960 . S
H805 C791 0.961 . S
H806 C791 0.961 . S
H807 C791 0.961 . S
H808 C792 0.931 . S
H809 C797 0.930 . S
H810 C798 0.956 . S
H811 C798 0.961 1_554 S
H812 C798 0.961 . S
H813 C799 0.958 . S
H814 C799 0.961 . S
H815 C799 0.960 . S
C816 C817 1.391 . S
C816 C818 1.394 . S
C816 H832 0.931 . S
C817 C816 1.391 . S
C817 C821 1.376 . S
C818 C816 1.394 . S
C818 C819 1.369 . S
C818 C822 1.531 . S
C819 C818 1.369 . S
C819 C820 1.410 . S
C819 C827 1.503 . S
C820 C819 1.410 . S
C820 C821 1.392 . S
C820 C823 1.511 . S
C821 C817 1.376 . S
C821 C820 1.392 . S
C821 H833 0.929 . S
C822 C818 1.531 . S
C822 H834 0.960 . S
C822 H835 0.962 . S
C822 H836 0.960 . S
C823 C820 1.511 . S
C823 H837 0.961 . S
C823 H838 0.961 . S
C823 H839 0.961 . S
C824 C825 1.370 . S
C824 C826 1.363 . S
C824 H840 0.931 . S
C825 C824 1.370 . S
C825 C829 1.408 1_655 S
C826 C824 1.363 . S
C826 C827 1.370 . S
C826 C830 1.524 . S
C827 C819 1.503 . S
C827 C826 1.370 . S
C827 C828 1.403 1_655 S
C828 C827 1.403 1_455 S
C828 C829 1.404 . S
C828 C831 1.539 . S
C829 C825 1.408 1_455 S
C829 C828 1.404 . S
C829 H841 0.930 . S
C830 C826 1.524 . S
C830 H842 0.956 . S
C830 H843 0.961 . S
C830 H844 0.961 . S
C831 C828 1.539 . S
C831 H845 0.958 . S
C831 H846 0.961 . S
C831 H847 0.960 . S
H832 C816 0.931 . S
H833 C821 0.929 . S
H834 C822 0.960 . S
H835 C822 0.962 . S
H836 C822 0.960 . S
H837 C823 0.961 . S
H838 C823 0.961 . S
H839 C823 0.961 . S
H840 C824 0.931 . S
H841 C829 0.930 . S
H842 C830 0.956 . S
H843 C830 0.961 . S
H844 C830 0.961 . S
H845 C831 0.958 . S
H846 C831 0.961 . S
H847 C831 0.960 . S
C848 C849 1.391 . S
C848 C850 1.394 . S
C848 H864 0.931 . S
C849 C848 1.391 . S
C849 C853 1.376 . S
C850 C848 1.394 . S
C850 C851 1.369 . S
C850 C854 1.531 . S
C851 C850 1.369 . S
C851 C852 1.410 . S
C851 C859 1.503 . S
C852 C851 1.410 . S
C852 C853 1.392 . S
C852 C855 1.511 . S
C853 C849 1.376 . S
C853 C852 1.392 . S
C853 H865 0.929 . S
C854 C850 1.531 . S
C854 H866 0.960 1_565 S
C854 H867 0.962 . S
C854 H868 0.960 . S
C855 C852 1.511 . S
C855 H869 0.961 . S
C855 H870 0.961 . S
C855 H871 0.961 . S
C856 C857 1.370 . S
C856 C858 1.363 . S
C856 H872 0.931 . S
C857 C856 1.370 . S
C857 C861 1.408 1_565 S
C858 C856 1.363 . S
C858 C859 1.370 . S
C858 C862 1.524 . S
C859 C851 1.503 . S
C859 C858 1.370 . S
C859 C860 1.403 1_565 S
C860 C859 1.403 1_545 S
C860 C861 1.404 . S
C860 C863 1.539 . S
C861 C857 1.408 1_545 S
C861 C860 1.404 . S
C861 H873 0.930 . S
C862 C858 1.524 . S
C862 H874 0.956 . S
C862 H875 0.961 . S
C862 H876 0.961 . S
C863 C860 1.539 . S
C863 H877 0.958 . S
C863 H878 0.961 . S
C863 H879 0.960 . S
H864 C848 0.931 . S
H865 C853 0.929 . S
H866 C854 0.960 1_545 S
H867 C854 0.962 . S
H868 C854 0.960 . S
H869 C855 0.961 . S
H870 C855 0.961 . S
H871 C855 0.961 . S
H872 C856 0.931 . S
H873 C861 0.930 . S
H874 C862 0.956 . S
H875 C862 0.961 . S
H876 C862 0.961 . S
H877 C863 0.958 . S
H878 C863 0.961 . S
H879 C863 0.960 . S
C880 C881 1.391 . S
C880 C882 1.394 . S
C880 H896 0.931 . S
C881 C880 1.391 . S
C881 C885 1.376 . S
C882 C880 1.394 . S
C882 C883 1.369 . S
C882 C886 1.531 . S
C883 C882 1.369 . S
C883 C884 1.410 . S
C883 C891 1.503 . S
C884 C883 1.410 . S
C884 C885 1.392 . S
C884 C887 1.511 . S
C885 C881 1.376 . S
C885 C884 1.392 . S
C885 H897 0.929 . S
C886 C882 1.531 . S
C886 H898 0.960 . S
C886 H899 0.962 . S
C886 H900 0.960 . S
C887 C884 1.511 . S
C887 H901 0.961 . S
C887 H902 0.961 . S
C887 H903 0.961 . S
C888 C889 1.370 . S
C888 C890 1.363 . S
C888 H904 0.931 . S
C889 C888 1.370 . S
C889 C893 1.408 . S
C890 C888 1.363 . S
C890 C891 1.370 . S
C890 C894 1.524 . S
C891 C883 1.503 . S
C891 C890 1.370 . S
C891 C892 1.403 . S
C892 C891 1.403 . S
C892 C893 1.404 . S
C892 C895 1.539 . S
C893 C889 1.408 . S
C893 C892 1.404 . S
C893 H905 0.930 . S
C894 C890 1.524 . S
C894 H906 0.956 . S
C894 H907 0.961 . S
C894 H908 0.961 . S
C895 C892 1.539 . S
C895 H909 0.958 . S
C895 H910 0.961 . S
C895 H911 0.960 . S
H896 C880 0.931 . S
H897 C885 0.929 . S
H898 C886 0.960 . S
H899 C886 0.962 . S
H900 C886 0.960 . S
H901 C887 0.961 . S
H902 C887 0.961 . S
H903 C887 0.961 . S
H904 C888 0.931 . S
H905 C893 0.930 . S
H906 C894 0.956 . S
H907 C894 0.961 . S
H908 C894 0.961 . S
H909 C895 0.958 . S
H910 C895 0.961 . S
H911 C895 0.960 . S
C912 C913 1.391 . S
C912 C914 1.394 . S
C912 H928 0.931 . S
C913 C912 1.391 . S
C913 C917 1.376 . S
C914 C912 1.394 . S
C914 C915 1.369 . S
C914 C918 1.531 . S
C915 C914 1.369 . S
C915 C916 1.410 . S
C915 C923 1.503 . S
C916 C915 1.410 . S
C916 C917 1.392 . S
C916 C919 1.511 . S
C917 C913 1.376 . S
C917 C916 1.392 . S
C917 H929 0.929 . S
C918 C914 1.531 . S
C918 H930 0.960 . S
C918 H931 0.962 . S
C918 H932 0.960 . S
C919 C916 1.511 . S
C919 H933 0.961 . S
C919 H934 0.961 . S
C919 H935 0.961 . S
C920 C921 1.370 . S
C920 C922 1.363 . S
C920 H936 0.931 . S
C921 C920 1.370 . S
C921 C925 1.408 . S
C922 C920 1.363 . S
C922 C923 1.370 . S
C922 C926 1.524 . S
C923 C915 1.503 . S
C923 C922 1.370 . S
C923 C924 1.403 . S
C924 C923 1.403 . S
C924 C925 1.404 . S
C924 C927 1.539 . S
C925 C921 1.408 . S
C925 C924 1.404 . S
C925 H937 0.930 . S
C926 C922 1.524 . S
C926 H938 0.956 . S
C926 H939 0.961 . S
C926 H940 0.961 . S
C927 C924 1.539 . S
C927 H941 0.958 . S
C927 H942 0.961 . S
C927 H943 0.960 . S
H928 C912 0.931 . S
H929 C917 0.929 . S
H930 C918 0.960 . S
H931 C918 0.962 . S
H932 C918 0.960 . S
H933 C919 0.961 . S
H934 C919 0.961 . S
H935 C919 0.961 . S
H936 C920 0.931 . S
H937 C925 0.930 . S
H938 C926 0.956 . S
H939 C926 0.961 . S
H940 C926 0.961 . S
H941 C927 0.958 . S
H942 C927 0.961 . S
H943 C927 0.960 . S
C177 C76 1.581 . S
C185 C97 1.608 . S
C217 C132 1.613 . S
C209 C88 1.534 . S
C249 C137 1.331 . S
C241 C52 1.300 . S
C281 C157 1.468 . S
C273 C64 1.447 . S
C313 C105 1.602 1_565 S
C305 C28 1.563 1_556 S
C337 C40 1.591 . S
C345 C122 1.616 . S
C369 C4 1.329 1_556 S
C377 C145 1.330 . S
C401 C16 1.424 . S
C409 C165 1.469 1_655 S
C441 C115 1.226 . S
C433 C69 1.178 . S
C473 C124 0.996 . S
C465 C81 0.964 . S
C505 C155 1.299 . S
C497 C93 1.256 . S
C529 C57 0.934 . S
C537 C175 0.961 . S
C561 C21 1.256 . S
C569 C104 1.253 1_655 S
C601 C135 0.994 1_565 S
C593 C33 0.972 1_556 S
C633 C144 1.307 . S
C625 C45 1.289 1_556 S
C657 C9 0.957 1_556 S
C665 C164 0.965 . S
C689 C66 1.473 . S
C697 C102 1.480 . S
C721 C78 1.478 . S
C729 C125 1.514 . S
C761 C142 1.579 . S
C753 C90 1.515 . S
C793 C162 1.580 . S
C785 C54 1.542 . S
C817 C18 1.438 . S
C825 C112 1.478 . S
C857 C117 1.511 . S
C849 C30 1.424 . S
C889 C152 1.580 . S
C881 C42 1.505 . S
C913 C6 1.559 . S
C921 C172 1.586 . S
