# Generated by pormake.
# Topology anh, (6,3)-cn, num edge types: 1
# Building blocks:
#     Node 0, Type 0, BuildingBlock: BETDIP_clean_sbu_0, # of connection points: 6
#     Node 1, Type 0, BuildingBlock: BETDIP_clean_sbu_0, # of connection points: 6
#     Node 2, Type 0, BuildingBlock: BETDIP_clean_sbu_0, # of connection points: 6
#     Node 3, Type 1, BuildingBlock: PAMTOO_clean_linker_0, # of connection points: 3
#     Node 4, Type 1, BuildingBlock: PAMTOO_clean_linker_0, # of connection points: 3
#     Node 5, Type 1, BuildingBlock: PAMTOO_clean_linker_0, # of connection points: 3
#     Node 6, Type 1, BuildingBlock: PAMTOO_clean_linker_0, # of connection points: 3
#     Node 7, Type 1, BuildingBlock: PAMTOO_clean_linker_0, # of connection points: 3
#     Node 8, Type 1, BuildingBlock: PAMTOO_clean_linker_0, # of connection points: 3
#     Edge 9, Type (0, 1), BuildingBlock: AJUNOK_clean_linker_0, # of connection points: 2
#     Edge 10, Type (0, 1), BuildingBlock: AJUNOK_clean_linker_0, # of connection points: 2
#     Edge 11, Type (0, 1), BuildingBlock: AJUNOK_clean_linker_0, # of connection points: 2
#     Edge 12, Type (0, 1), BuildingBlock: AJUNOK_clean_linker_0, # of connection points: 2
#     Edge 13, Type (0, 1), BuildingBlock: AJUNOK_clean_linker_0, # of connection points: 2
#     Edge 14, Type (0, 1), BuildingBlock: AJUNOK_clean_linker_0, # of connection points: 2
#     Edge 15, Type (0, 1), BuildingBlock: AJUNOK_clean_linker_0, # of connection points: 2
#     Edge 16, Type (0, 1), BuildingBlock: AJUNOK_clean_linker_0, # of connection points: 2
#     Edge 17, Type (0, 1), BuildingBlock: AJUNOK_clean_linker_0, # of connection points: 2
#     Edge 18, Type (0, 1), BuildingBlock: AJUNOK_clean_linker_0, # of connection points: 2
#     Edge 19, Type (0, 1), BuildingBlock: AJUNOK_clean_linker_0, # of connection points: 2
#     Edge 20, Type (0, 1), BuildingBlock: AJUNOK_clean_linker_0, # of connection points: 2
#     Edge 21, Type (0, 1), BuildingBlock: AJUNOK_clean_linker_0, # of connection points: 2
#     Edge 22, Type (0, 1), BuildingBlock: AJUNOK_clean_linker_0, # of connection points: 2
#     Edge 23, Type (0, 1), BuildingBlock: AJUNOK_clean_linker_0, # of connection points: 2
#     Edge 24, Type (0, 1), BuildingBlock: AJUNOK_clean_linker_0, # of connection points: 2
#     Edge 25, Type (0, 1), BuildingBlock: AJUNOK_clean_linker_0, # of connection points: 2
#     Edge 26, Type (0, 1), BuildingBlock: AJUNOK_clean_linker_0, # of connection points: 2
# Relax obj value: 0.377
# Max RMSD: 0.158
# Mean RMSD: 0.121
data_MOF--net-anh--node1-BETDIP_clean_sbu_0--node2-PAMTOO_clean_linker_0--edge1-AJUNOK_clean_linker_0
_symmetry_space_group_name_H-M    P1
_symmetry_Int_Tables_number       1
_symmetry_cell_setting            triclinic
loop_
_symmetry_equiv_pos_as_xyz
'x, y, z'
_cell_length_a     22.897287
_cell_length_b     22.814749
_cell_length_c     37.043404
_cell_angle_alpha  86.609162
_cell_angle_beta   91.413158
_cell_angle_gamma 120.39264
loop_
_atom_site_label
_atom_site_type_symbol
_atom_site_fract_x
_atom_site_fract_y
_atom_site_fract_z
_atom_type_partial_charge
Tb0 Tb 0.25068 0.67683 0.12583 0.0
Tb1 Tb 0.18413 0.53165 0.12866 0.0
C2 C 0.31107 0.79909 0.1411 0.0
C3 C 0.366 0.85851 0.15825 0.0
C4 C 0.35896 0.86814 0.19463 0.0
C5 C 0.39333 0.93307 0.20768 0.0
C6 C 0.4361 0.98949 0.18476 0.0
C7 C 0.45052 0.97836 0.14997 0.0
C8 C 0.41487 0.91334 0.13659 0.0
C9 C 0.21749 0.62409 0.06258 0.0
C10 C 0.3469 0.60666 0.12331 0.0
C11 C 1.10987 0.40845 0.11606 0.0
C12 C 1.03651 0.36746 0.11044 0.0
C13 C 1.00339 0.38968 0.08555 0.0
C14 C 0.9331 0.35996 0.08688 0.0
C15 C 0.89519 0.30825 0.11328 0.0
C16 C 0.92811 0.28249 0.136 0.0
C17 C 0.9981 0.31152 0.13436 0.0
C18 C 0.21862 0.58197 0.19389 0.0
C19 C 1.08965 0.60476 0.11668 0.0
O20 O 0.26716 0.74886 0.16238 0.0
O21 O 0.32151 0.77921 0.1107 0.0
O22 O 0.24183 0.6065 0.08873 0.0
O23 O 0.21268 0.67604 0.0706 0.0
O24 O 0.34366 0.66303 0.12858 0.0
O25 O 0.28835 0.54816 0.12075 0.0
O26 O 1.14449 0.45588 0.09104 0.0
O27 O 1.12764 0.43024 0.14862 0.0
O28 O 0.1932 0.60146 0.16836 0.0
O29 O 0.22461 0.53248 0.18283 0.0
O30 O 1.09335 0.54758 0.11788 0.0
O31 O 1.14707 0.66312 0.12087 0.0
H32 H 0.3218 0.82693 0.21214 0.0
H33 H 0.38132 0.93955 0.23471 0.0
H34 H 0.48555 1.0205 0.13219 0.0
H35 H 0.42146 0.90726 0.10846 0.0
H36 H 1.03185 0.43293 0.06675 0.0
H37 H 0.90899 0.38075 0.0691 0.0
H38 H 0.90085 0.24404 0.15735 0.0
H39 H 1.0227 0.29391 0.15385 0.0
Tb40 Tb 0.77497 0.11796 0.46027 0.0
Tb41 Tb 0.69715 0.1801 0.46633 0.0
C42 C 0.82675 1.04475 0.46995 0.0
C43 C 0.8116 0.97596 0.46259 0.0
C44 C 0.77168 0.9207 0.48673 0.0
C45 C 0.77223 0.86023 0.48505 0.0
C46 C 0.81289 0.85442 0.4593 0.0
C47 C 0.84578 0.90654 0.4324 0.0
C48 C 0.84554 0.96721 0.43418 0.0
C49 C 0.74759 0.15797 0.39775 0.0
C50 C 0.60746 1.01974 0.45586 0.0
C51 C 0.65252 0.26069 0.46222 0.0
C52 C 0.69231 0.33472 0.46635 0.0
C53 C 0.68204 0.36164 0.49706 0.0
C54 C 0.73525 0.42103 0.51067 0.0
C55 C 0.79982 0.45252 0.49439 0.0
C56 C 0.80604 0.43163 0.46049 0.0
C57 C 0.75218 0.37402 0.44621 0.0
C58 C 0.72367 0.13923 0.53036 0.0
C59 C 0.86385 0.27768 0.45474 0.0
O60 O 0.79016 1.05071 0.49457 0.0
O61 O 0.83948 1.08663 0.44175 0.0
O62 O 0.7077 0.12918 0.42394 0.0
O63 O 0.80498 0.16216 0.40509 0.0
O64 O 0.6681 1.02358 0.45866 0.0
O65 O 0.6072 1.07812 0.45592 0.0
O66 O 0.66616 0.23812 0.43384 0.0
O67 O 0.64916 0.22449 0.49155 0.0
O68 O 0.76566 0.17012 0.50452 0.0
O69 O 0.66532 0.12944 0.51995 0.0
O70 O 0.8023 0.27119 0.45172 0.0
O71 O 0.86567 0.22161 0.46407 0.0
H72 H 0.74462 0.92583 0.50877 0.0
H73 H 0.74713 0.82132 0.50652 0.0
H74 H 0.87738 0.90309 0.41232 0.0
H75 H 0.87644 1.00903 0.41507 0.0
H76 H 0.63547 0.33317 0.51257 0.0
H77 H 0.72721 0.43878 0.53549 0.0
H78 H 0.85423 0.45569 0.44654 0.0
H79 H 0.76032 0.356 0.42155 0.0
Tb80 Tb 0.702 0.64358 0.80174 0.0
Tb81 Tb 0.84595 0.72318 0.79324 0.0
C82 C 0.58481 0.59177 0.82544 0.0
C83 C 0.51583 0.56137 0.83929 0.0
C84 C 0.4971 0.51995 0.87119 0.0
C85 C 0.42917 0.48148 0.88132 0.0
C86 C 0.37914 0.48472 0.85995 0.0
C87 C 0.39898 0.53071 0.82956 0.0
C88 C 0.46685 0.56803 0.81898 0.0
C89 C 0.74252 0.65804 0.73518 0.0
C90 C 0.77277 0.81167 0.78825 0.0
C91 C 0.96748 0.77484 0.77408 0.0
C92 C 1.01139 0.74586 0.77048 0.0
C93 C 0.9971 0.69646 0.74532 0.0
C94 C 1.02862 0.65769 0.7483 0.0
C95 C 1.07406 0.66741 0.77653 0.0
C96 C 1.09311 0.72134 0.79927 0.0
C97 C 1.06252 0.76071 0.79599 0.0
C98 C 0.80397 0.69978 0.86224 0.0
C99 C 0.77306 0.5552 0.79137 0.0
O100 O 0.63746 0.61438 0.84682 0.0
O101 O 0.59822 0.5986 0.79084 0.0
O102 O 0.76542 0.70325 0.75802 0.0
O103 O 0.69159 0.60255 0.74889 0.0
O104 O 0.71802 0.75175 0.79863 0.0
O105 O 0.82986 0.81157 0.78231 0.0
O106 O 0.91726 0.75525 0.75143 0.0
O107 O 0.94859 0.77462 0.80711 0.0
O108 O 0.78231 0.65765 0.83764 0.0
O109 O 0.85061 0.75759 0.84808 0.0
O110 O 0.82818 0.61671 0.78428 0.0
O111 O 0.71728 0.55355 0.80287 0.0
H112 H 0.53441 0.51426 0.88716 0.0
H113 H 0.41559 0.44658 0.90488 0.0
H114 H 0.36194 0.53634 0.81335 0.0
H115 H 0.48082 0.60064 0.79446 0.0
H116 H 0.95851 0.68454 0.72492 0.0
H117 H 1.01415 0.61706 0.73022 0.0
H118 H 1.12705 0.72933 0.82175 0.0
H119 H 1.07474 0.79896 0.81542 0.0
H120 H 0.73828 0.23361 0.23321 0.0
H121 H 0.60436 0.27699 0.29044 0.0
H122 H 0.61509 0.29896 0.17444 0.0
H123 H 0.45038 0.26281 0.2226 0.0
C124 C 0.48421 0.24706 0.23645 0.0
O125 O 0.55073 0.29951 0.23196 0.0
H126 H 0.47086 0.23936 0.26567 0.0
C127 C 0.70114 0.24978 0.23312 0.0
C128 C 0.68073 0.26689 0.20014 0.0
C129 C 0.67491 0.25431 0.2659 0.0
C130 C 0.62666 0.27495 0.26542 0.0
C131 C 0.60399 0.28931 0.23245 0.0
C132 C 0.63205 0.28674 0.19983 0.0
H133 H 0.82539 0.69805 0.57718 0.0
H134 H 0.97527 0.66852 0.63371 0.0
H135 H 1.00016 0.72672 0.52018 0.0
H136 H 1.05961 0.61063 0.59379 0.0
C137 C 1.05161 0.63362 0.56825 0.0
O138 O 1.05052 0.69197 0.57584 0.0
H139 H 1.09609 0.64861 0.55064 0.0
C140 C 0.87136 0.69542 0.57653 0.0
C141 C 0.90794 0.71078 0.54421 0.0
C142 C 0.89576 0.68117 0.60873 0.0
C143 C 0.95654 0.68043 0.60886 0.0
C144 C 0.99363 0.69607 0.57669 0.0
C145 C 0.97026 0.71307 0.54472 0.0
H146 H 1.14557 0.56707 0.89983 0.0
H147 H 1.09261 0.37629 0.9563 0.0
H148 H 1.06718 0.38489 0.84125 0.0
H149 H 1.07883 0.23807 0.87827 0.0
C150 C 1.09972 0.27975 0.8973 0.0
O151 O 1.05697 0.30626 0.89806 0.0
H152 H 1.09923 0.25608 0.92448 0.0
C153 C 1.12722 0.51298 0.89946 0.0
C154 C 1.10752 0.48059 0.86667 0.0
C155 C 1.1224 0.4761 0.93188 0.0
C156 C 1.0968 0.40574 0.93145 0.0
C157 C 1.0779 0.37327 0.8987 0.0
C158 C 1.08271 0.41052 0.8664 0.0
H159 H 1.10009 0.50431 0.35394 0.0
H160 H 0.29711 0.68274 0.35821 0.0
H161 H 0.18121 0.59202 0.45704 0.0
H162 H 0.292 0.78041 0.43356 0.0
C163 C 0.33034 0.7702 0.42232 0.0
O164 O 0.30418 0.69845 0.4278 0.0
H165 H 0.33164 0.78257 0.39279 0.0
C166 C 1.13897 0.54329 0.37002 0.0
C167 C 1.1298 0.53903 0.40809 0.0
C168 C 0.19816 0.59469 0.35194 0.0
C169 C 0.25147 0.6445 0.37223 0.0
C170 C 0.24719 0.64722 0.40999 0.0
C171 C 0.1855 0.5928 0.42797 0.0
H172 H 0.76056 1.0378 0.69331 0.0
H173 H 0.7765 0.23421 0.69192 0.0
H174 H 0.77679 0.13173 0.79414 0.0
H175 H 0.6948 0.23818 0.77863 0.0
C176 C 0.7387 0.27516 0.76152 0.0
O177 O 0.78542 0.25061 0.76179 0.0
H178 H 0.71814 0.2716 0.73374 0.0
C179 C 0.76473 1.07928 0.70818 0.0
C180 C 0.76892 1.07531 0.74631 0.0
C181 C 0.76653 0.13537 0.68848 0.0
C182 C 0.77382 0.191 0.70728 0.0
C183 C 0.77549 0.19145 0.74548 0.0
C184 C 0.77325 0.13236 0.76496 0.0
H185 H 0.8695 0.62561 0.02278 0.0
H186 H 0.69426 0.64804 0.02625 0.0
H187 H 0.77183 0.6039 0.12555 0.0
H188 H 0.58435 0.53098 0.09948 0.0
C189 C 0.59795 0.5833 0.08955 0.0
O190 O 0.66928 0.62595 0.09587 0.0
H191 H 0.58993 0.5805 0.05987 0.0
C192 C 0.82951 0.62409 0.03861 0.0
C193 C 0.8297 0.61337 0.07669 0.0
C194 C 0.78112 0.63626 0.02045 0.0
C195 C 0.72963 0.6368 0.0405 0.0
C196 C 0.7219 0.62251 0.07826 0.0
C197 C 0.77387 0.61174 0.09641 0.0
C198 C 0.418 0.54592 0.123 0.0
C199 C 0.41579 0.6071 0.1185 0.0
C200 C 0.4775 0.54175 0.11658 0.0
C201 C 0.54126 0.59811 0.1048 0.0
H202 H 0.37217 0.49927 0.13113 0.0
H203 H 0.47226 0.49182 0.11962 0.0
S204 S 0.56599 0.77178 0.08647 0.0
N205 N 0.48639 0.72708 0.10052 0.0
N206 N 0.5952 0.71859 0.08746 0.0
C207 C 0.54013 0.66004 0.09992 0.0
C208 C 0.47924 0.66465 0.10709 0.0
C209 C 0.99523 0.36615 0.46139 0.0
C210 C 0.93115 0.34718 0.44514 0.0
C211 C 1.05749 0.42865 0.4515 0.0
C212 C 1.06117 0.47719 0.42416 0.0
H213 H 0.99771 0.33183 0.48201 0.0
H214 H 1.10383 0.43759 0.46464 0.0
S215 S 0.91032 0.4529 0.37114 0.0
N216 N 0.879 0.38384 0.39845 0.0
N217 N 0.99137 0.4986 0.38119 0.0
C218 C 0.99726 0.4586 0.40796 0.0
C219 C 0.93438 0.39529 0.41795 0.0
C220 C 0.82969 0.94307 0.77115 0.0
C221 C 0.77058 0.87973 0.78114 0.0
C222 C 0.82935 1.00547 0.76255 0.0
C223 C 0.77011 1.01092 0.76366 0.0
H224 H 0.87749 0.94452 0.7691 0.0
H225 H 0.87648 1.05006 0.75379 0.0
S226 S 0.5997 0.86178 0.7864 0.0
N227 N 0.64953 0.82891 0.79054 0.0
N228 N 0.64911 0.94335 0.77458 0.0
C229 C 0.71059 0.94815 0.77359 0.0
C230 C 0.71082 0.88434 0.78233 0.0
C231 C 0.9592 0.54743 0.09898 0.0
C232 C 1.02095 0.60518 0.1096 0.0
C233 C 0.89774 0.54905 0.09065 0.0
C234 C 0.89165 0.60808 0.0931 0.0
H235 H 0.95865 0.50031 0.09597 0.0
H236 H 0.85452 0.50328 0.08124 0.0
S237 S 1.03651 0.7749 0.11859 0.0
N238 N 1.06922 0.72476 0.12118 0.0
N239 N 0.95685 0.72698 0.10635 0.0
C240 C 0.9527 0.66586 0.10389 0.0
C241 C 1.01543 0.66457 0.11194 0.0
C242 C 0.47555 0.94664 0.45638 0.0
C243 C 0.53877 0.95106 0.45054 0.0
C244 C 0.41129 0.88718 0.45002 0.0
C245 C 0.40333 0.82588 0.43708 0.0
H246 H 0.47529 0.99068 0.46559 0.0
H247 H 0.36646 0.89056 0.45411 0.0
S248 S 0.55137 0.80753 0.4157 0.0
N249 N 0.58744 0.88522 0.43051 0.0
N250 N 0.46864 0.77643 0.41757 0.0
C251 C 0.46615 0.82914 0.43101 0.0
C252 C 0.53233 0.88993 0.43808 0.0
C253 C 0.72645 0.42441 0.80493 0.0
C254 C 0.77237 0.48647 0.78577 0.0
C255 C 0.72126 0.35998 0.79913 0.0
C256 C 0.76098 0.35072 0.77339 0.0
H257 H 0.69269 0.42509 0.82464 0.0
H258 H 0.68276 0.31563 0.81432 0.0
S259 S 0.88673 0.49407 0.71321 0.0
N260 N 0.85837 0.53183 0.73852 0.0
N261 N 0.8466 0.41279 0.727 0.0
C262 C 0.80714 0.41232 0.75386 0.0
C263 C 0.8134 0.47863 0.76021 0.0
C264 C 0.90668 0.8332 0.47314 0.0
C265 C 0.83679 0.80613 0.46772 0.0
C266 C 0.93054 0.79792 0.49493 0.0
C267 C 0.88526 0.73442 0.51179 0.0
H268 H 0.94269 0.88518 0.46416 0.0
H269 H 0.98384 0.82394 0.50168 0.0
S270 S 0.69981 0.63383 0.49752 0.0
N271 N 0.72424 0.70686 0.47449 0.0
N272 N 0.76931 0.63937 0.51517 0.0
C273 C 0.81644 0.70272 0.50228 0.0
C274 C 0.7921 0.73893 0.48023 0.0
C275 C 1.03538 0.54691 0.79461 0.0
C276 C 1.08961 0.61371 0.78779 0.0
C277 C 1.04357 0.50049 0.81735 0.0
C278 C 1.10606 0.51971 0.83394 0.0
H279 H 0.98474 0.53258 0.78554 0.0
H280 H 0.99921 0.45194 0.82483 0.0
S281 S 0.26683 0.68258 0.81778 0.0
N282 N 0.21026 0.69217 0.79371 0.0
N283 N 0.22552 0.60493 0.83703 0.0
C284 C 1.16233 0.58323 0.82382 0.0
C285 C 1.15411 0.63029 0.8005 0.0
C286 C 0.47539 1.07581 0.23179 0.0
C287 C 0.45645 1.0588 0.19578 0.0
C288 C 0.48263 0.13549 0.24473 0.0
C289 C 0.47247 0.18111 0.22203 0.0
H290 H 0.48304 1.04187 0.2504 0.0
H291 H 0.49623 0.14608 0.27278 0.0
S292 S 0.42711 0.16356 0.12507 0.0
N293 N 0.42914 1.09387 0.13736 0.0
N294 N 0.44742 0.20826 0.16146 0.0
C295 C 0.45682 0.16665 0.18563 0.0
C296 C 0.44791 1.10511 0.17252 0.0
C297 C 0.91782 0.55342 0.49517 0.0
C298 C 0.86206 0.49981 0.51423 0.0
C299 C 0.97977 0.59328 0.51226 0.0
C300 C 0.9879 0.58264 0.54933 0.0
H301 H 0.91379 0.56482 0.46674 0.0
H302 H 1.02106 0.63445 0.49668 0.0
S303 S 0.85933 0.44936 0.61186 0.0
N304 N 0.82105 0.43655 0.57235 0.0
N305 N 0.93578 0.51589 0.60485 0.0
C306 C 0.93278 0.53016 0.56893 0.0
C307 C 0.87024 0.48799 0.55137 0.0
C308 C 0.28392 0.422 0.90434 0.0
C309 C 0.30668 0.4363 0.86822 0.0
C310 C 0.21791 0.37072 0.91337 0.0
C311 C 0.17182 0.33264 0.88662 0.0
H312 H 0.31766 0.45009 0.92589 0.0
H313 H 0.20259 0.36061 0.94152 0.0
S314 S 0.20458 0.3516 0.78798 0.0
N315 N 0.27731 0.40808 0.80542 0.0
N316 N 1.15181 0.31451 0.82252 0.0
C317 C 0.1929 0.34788 0.85033 0.0
C318 C 0.2606 0.39915 0.84109 0.0
C319 C 0.81499 0.34592 0.12917 0.0
C320 C 0.82603 0.29194 0.12297 0.0
C321 C 0.7611 0.33552 0.15086 0.0
C322 C 0.71709 0.27101 0.16705 0.0
H323 H 0.8521 0.39773 0.1207 0.0
H324 H 0.7585 0.37945 0.15818 0.0
S325 S 0.71356 1.11045 0.1515 0.0
N326 N 0.78007 0.1696 0.12825 0.0
N327 N 0.67968 0.15047 0.17014 0.0
C328 C 0.72223 0.21531 0.15727 0.0
C329 C 0.77657 0.22572 0.13483 0.0
C330 C 1.14672 0.59275 0.0069 0.0
C331 C 0.19487 0.58768 0.02897 0.0
C332 C 1.12255 0.55555 0.97576 0.0
C333 C 1.14579 0.51217 0.9658 0.0
H334 H 1.12693 0.62483 0.01399 0.0
H335 H 1.08521 0.56048 0.95941 0.0
S336 S 0.27562 0.48549 0.01314 0.0
N337 N 0.26748 0.53882 0.03787 0.0
N338 N 0.22207 0.46924 0.97939 0.0
C339 C 0.19453 0.5075 -0.01255 0.0
C340 C 0.21918 0.54531 0.01901 0.0
C341 C 0.66289 0.16216 0.35621 0.0
C342 C 0.73097 0.18412 0.36428 0.0
C343 C 0.64529 0.18627 0.32466 0.0
C344 C 0.69525 0.23358 0.30029 0.0
H345 H 0.62277 0.12531 0.37413 0.0
H346 H 0.59214 0.16657 0.31893 0.0
S347 S 0.88113 0.31122 0.31071 0.0
N348 N 0.84876 0.25795 0.34646 0.0
N349 N 0.81582 0.30474 0.28745 0.0
C350 C 0.76367 0.25724 0.30855 0.0
C351 C 0.78152 0.23213 0.34051 0.0
C352 C 0.8284 0.72591 0.68753 0.0
C353 C 0.77956 0.66188 0.70245 0.0
C354 C 0.86784 0.73147 0.65792 0.0
C355 C 0.85947 0.67318 0.64233 0.0
H356 H 0.83633 0.77208 0.69889 0.0
H357 H 0.90445 0.78166 0.64675 0.0
S358 S 0.73594 0.49401 0.66944 0.0
N359 N 0.72333 0.53884 0.69847 0.0
N360 N 0.79746 0.55003 0.64223 0.0
C361 C 0.81028 0.60895 0.6564 0.0
C362 C 0.77003 0.6031 0.68661 0.0
C363 C 0.79755 0.18713 0.58616 0.0
C364 C 0.73928 0.13507 0.56991 0.0
C365 C 0.8064 0.18721 0.62428 0.0
C366 C 0.75818 0.13444 0.64776 0.0
H367 H 0.83531 0.22946 0.56947 0.0
H368 H 0.85126 0.22905 0.63549 0.0
S369 S 0.59807 0.9853 0.61885 0.0
N370 N 0.63334 1.02909 0.58063 0.0
N371 N 0.65072 1.02827 0.65126 0.0
C372 C 0.70086 1.08142 0.63161 0.0
C373 C 0.69128 1.08203 0.5931 0.0
C374 C 0.77584 0.61677 0.9173 0.0
C375 C 0.79513 0.68267 0.90249 0.0
C376 C 0.77222 0.60211 0.95525 0.0
C377 C 0.78617 0.65224 0.98008 0.0
H378 H 0.76489 0.57652 0.89947 0.0
H379 H 0.75792 0.55099 0.96526 0.0
S380 S 0.83612 0.83163 0.95573 0.0
N381 N 0.82733 0.79789 0.9163 0.0
N382 N 0.81842 0.76984 -0.01321 0.0
C383 C 0.80407 0.71764 0.96559 0.0
C384 C 0.80907 0.73291 0.92715 0.0
C385 C 1.16519 0.59925 0.24911 0.0
C386 C 0.21687 0.59207 0.23366 0.0
C387 C 1.15913 0.59984 0.28715 0.0
C388 C 0.20542 0.59499 0.31138 0.0
H389 H 1.12775 0.60204 0.23181 0.0
H390 H 1.1178 0.60408 0.2977 0.0
S391 S 0.35097 0.57772 0.28485 0.0
N392 N 0.31538 0.58078 0.24599 0.0
N393 N 0.3054 0.58421 0.31655 0.0
C394 C 0.2581 0.58962 0.2961 0.0
C395 C 0.26339 0.58754 0.25763 0.0
loop_
_geom_bond_atom_site_label_1
_geom_bond_atom_site_label_2
_geom_bond_distance
_geom_bond_site_symmetry_2
_ccdc_geom_bond_type
Tb0 C2 2.809 . S
Tb0 O20 2.484 . S
Tb0 O21 2.440 . S
Tb0 O22 2.658 . S
Tb0 O23 2.409 . S
Tb0 O24 2.378 . S
Tb0 O28 2.325 . S
Tb0 O31 2.341 1_455 S
Tb1 C11 2.809 . S
Tb1 O22 2.325 1_655 S
Tb1 O25 2.341 1_655 S
Tb1 O26 2.484 . S
Tb1 O27 2.440 . S
Tb1 O28 2.658 1_655 S
Tb1 O29 2.409 . S
Tb1 O30 2.378 . S
C2 Tb0 2.809 . S
C2 C3 1.514 . S
C2 O20 1.248 . S
C2 O21 1.266 . S
C3 C2 1.514 . S
C3 C4 1.359 . S
C3 C8 1.348 . S
C4 C3 1.359 . S
C4 C5 1.380 . S
C4 H32 0.929 . S
C5 C4 1.380 . S
C5 C6 1.347 . S
C5 H33 0.931 . S
C6 C5 1.347 . S
C6 C7 1.369 . S
C7 C6 1.369 . S
C7 C8 1.408 . S
C7 H34 0.930 . S
C8 C3 1.348 . S
C8 C7 1.408 . S
C8 H35 0.930 . S
C9 O22 1.281 . S
C9 O23 1.254 . S
C10 O24 1.236 . S
C10 O25 1.266 . S
C11 Tb1 2.809 . S
C11 C12 1.514 . S
C11 O26 1.248 . S
C11 O27 1.266 . S
C12 C11 1.514 . S
C12 C13 1.359 . S
C12 C17 1.348 . S
C13 C12 1.359 . S
C13 C14 1.380 . S
C13 H36 0.929 . S
C14 C13 1.380 . S
C14 C15 1.347 . S
C14 H37 0.931 . S
C15 C14 1.347 . S
C15 C16 1.369 . S
C16 C15 1.369 . S
C16 C17 1.408 . S
C16 H38 0.930 . S
C17 C12 1.348 . S
C17 C16 1.408 . S
C17 H39 0.930 . S
C18 O28 1.281 . S
C18 O29 1.254 1_455 S
C19 O30 1.236 . S
C19 O31 1.266 . S
O20 Tb0 2.484 . S
O20 C2 1.248 . S
O21 Tb0 2.440 . S
O21 C2 1.266 . S
O22 Tb0 2.658 . S
O22 Tb1 2.325 1_455 S
O22 C9 1.281 . S
O23 Tb0 2.409 . S
O23 C9 1.254 . S
O24 Tb0 2.378 . S
O24 C10 1.236 . S
O25 Tb1 2.341 1_455 S
O25 C10 1.266 . S
O26 Tb1 2.484 . S
O26 C11 1.248 . S
O27 Tb1 2.440 . S
O27 C11 1.266 . S
O28 Tb0 2.325 . S
O28 Tb1 2.658 1_455 S
O28 C18 1.281 . S
O29 Tb1 2.409 . S
O29 C18 1.254 1_655 S
O30 Tb1 2.378 . S
O30 C19 1.236 . S
O31 Tb0 2.341 1_655 S
O31 C19 1.266 . S
H32 C4 0.929 . S
H33 C5 0.931 . S
H34 C7 0.930 . S
H35 C8 0.930 . S
H36 C13 0.929 . S
H37 C14 0.931 . S
H38 C16 0.930 . S
H39 C17 0.930 . S
Tb40 C42 2.809 . S
Tb40 O60 2.484 . S
Tb40 O61 2.440 . S
Tb40 O62 2.658 1_565 S
Tb40 O63 2.409 1_565 S
Tb40 O64 2.378 . S
Tb40 O68 2.325 1_565 S
Tb40 O71 2.341 1_565 S
Tb41 C51 2.809 . S
Tb41 O62 2.325 . S
Tb41 O65 2.341 1_545 S
Tb41 O66 2.484 . S
Tb41 O67 2.440 . S
Tb41 O68 2.658 . S
Tb41 O69 2.409 . S
Tb41 O70 2.378 . S
C42 Tb40 2.809 . S
C42 C43 1.514 . S
C42 O60 1.248 . S
C42 O61 1.266 . S
C43 C42 1.514 . S
C43 C44 1.359 . S
C43 C48 1.348 . S
C44 C43 1.359 . S
C44 C45 1.380 . S
C44 H72 0.929 . S
C45 C44 1.380 . S
C45 C46 1.347 . S
C45 H73 0.931 . S
C46 C45 1.347 . S
C46 C47 1.369 . S
C47 C46 1.369 . S
C47 C48 1.408 . S
C47 H74 0.930 . S
C48 C43 1.348 . S
C48 C47 1.408 . S
C48 H75 0.930 . S
C49 O62 1.281 . S
C49 O63 1.254 . S
C50 O64 1.236 . S
C50 O65 1.266 . S
C51 Tb41 2.809 . S
C51 C52 1.514 . S
C51 O66 1.248 . S
C51 O67 1.266 . S
C52 C51 1.514 . S
C52 C53 1.359 . S
C52 C57 1.348 . S
C53 C52 1.359 . S
C53 C54 1.380 . S
C53 H76 0.929 . S
C54 C53 1.380 . S
C54 C55 1.347 . S
C54 H77 0.931 . S
C55 C54 1.347 . S
C55 C56 1.369 . S
C56 C55 1.369 . S
C56 C57 1.408 . S
C56 H78 0.930 . S
C57 C52 1.348 . S
C57 C56 1.408 . S
C57 H79 0.930 . S
C58 O68 1.281 . S
C58 O69 1.254 . S
C59 O70 1.236 . S
C59 O71 1.266 . S
O60 Tb40 2.484 . S
O60 C42 1.248 . S
O61 Tb40 2.440 . S
O61 C42 1.266 . S
O62 Tb40 2.658 1_545 S
O62 Tb41 2.325 . S
O62 C49 1.281 . S
O63 Tb40 2.409 1_545 S
O63 C49 1.254 . S
O64 Tb40 2.378 . S
O64 C50 1.236 . S
O65 Tb41 2.341 1_565 S
O65 C50 1.266 . S
O66 Tb41 2.484 . S
O66 C51 1.248 . S
O67 Tb41 2.440 . S
O67 C51 1.266 . S
O68 Tb40 2.325 1_545 S
O68 Tb41 2.658 . S
O68 C58 1.281 . S
O69 Tb41 2.409 . S
O69 C58 1.254 . S
O70 Tb41 2.378 . S
O70 C59 1.236 . S
O71 Tb40 2.341 1_545 S
O71 C59 1.266 . S
H72 C44 0.929 . S
H73 C45 0.931 . S
H74 C47 0.930 . S
H75 C48 0.930 . S
H76 C53 0.929 . S
H77 C54 0.931 . S
H78 C56 0.930 . S
H79 C57 0.930 . S
Tb80 C82 2.809 . S
Tb80 O100 2.484 . S
Tb80 O101 2.440 . S
Tb80 O102 2.658 . S
Tb80 O103 2.409 . S
Tb80 O104 2.378 . S
Tb80 O108 2.325 . S
Tb80 O111 2.341 . S
Tb81 C91 2.809 . S
Tb81 O102 2.325 . S
Tb81 O105 2.341 . S
Tb81 O106 2.484 . S
Tb81 O107 2.440 . S
Tb81 O108 2.658 . S
Tb81 O109 2.409 . S
Tb81 O110 2.378 . S
C82 Tb80 2.809 . S
C82 C83 1.514 . S
C82 O100 1.248 . S
C82 O101 1.266 . S
C83 C82 1.514 . S
C83 C84 1.359 . S
C83 C88 1.348 . S
C84 C83 1.359 . S
C84 C85 1.380 . S
C84 H112 0.929 . S
C85 C84 1.380 . S
C85 C86 1.347 . S
C85 H113 0.931 . S
C86 C85 1.347 . S
C86 C87 1.369 . S
C87 C86 1.369 . S
C87 C88 1.408 . S
C87 H114 0.930 . S
C88 C83 1.348 . S
C88 C87 1.408 . S
C88 H115 0.930 . S
C89 O102 1.281 . S
C89 O103 1.254 . S
C90 O104 1.236 . S
C90 O105 1.266 . S
C91 Tb81 2.809 . S
C91 C92 1.514 . S
C91 O106 1.248 . S
C91 O107 1.266 . S
C92 C91 1.514 . S
C92 C93 1.359 . S
C92 C97 1.348 . S
C93 C92 1.359 . S
C93 C94 1.380 . S
C93 H116 0.929 . S
C94 C93 1.380 . S
C94 C95 1.347 . S
C94 H117 0.931 . S
C95 C94 1.347 . S
C95 C96 1.369 . S
C96 C95 1.369 . S
C96 C97 1.408 . S
C96 H118 0.930 . S
C97 C92 1.348 . S
C97 C96 1.408 . S
C97 H119 0.930 . S
C98 O108 1.281 . S
C98 O109 1.254 . S
C99 O110 1.236 . S
C99 O111 1.266 . S
O100 Tb80 2.484 . S
O100 C82 1.248 . S
O101 Tb80 2.440 . S
O101 C82 1.266 . S
O102 Tb80 2.658 . S
O102 Tb81 2.325 . S
O102 C89 1.281 . S
O103 Tb80 2.409 . S
O103 C89 1.254 . S
O104 Tb80 2.378 . S
O104 C90 1.236 . S
O105 Tb81 2.341 . S
O105 C90 1.266 . S
O106 Tb81 2.484 . S
O106 C91 1.248 . S
O107 Tb81 2.440 . S
O107 C91 1.266 . S
O108 Tb80 2.325 . S
O108 Tb81 2.658 . S
O108 C98 1.281 . S
O109 Tb81 2.409 . S
O109 C98 1.254 . S
O110 Tb81 2.378 . S
O110 C99 1.236 . S
O111 Tb80 2.341 . S
O111 C99 1.266 . S
H112 C84 0.929 . S
H113 C85 0.931 . S
H114 C87 0.930 . S
H115 C88 0.930 . S
H116 C93 0.929 . S
H117 C94 0.931 . S
H118 C96 0.930 . S
H119 C97 0.930 . S
H120 C127 0.929 . S
H121 C130 0.930 1_565 S
H122 C132 0.929 . S
H123 C124 0.969 . S
C124 H123 0.969 . S
C124 O125 1.550 . S
C124 H126 0.973 . S
O125 C124 1.550 . S
O125 C131 1.412 1_565 S
H126 C124 0.973 . S
C127 H120 0.929 . S
C127 C128 1.400 . S
C127 C129 1.364 . S
C128 C127 1.400 . S
C128 C132 1.377 . S
C129 C127 1.364 . S
C129 C130 1.374 . S
C130 H121 0.930 1_545 S
C130 C129 1.374 . S
C130 C131 1.383 . S
C131 O125 1.412 1_545 S
C131 C130 1.383 . S
C131 C132 1.394 . S
C132 H122 0.929 . S
C132 C128 1.377 . S
C132 C131 1.394 . S
H133 C140 0.929 . S
H134 C143 0.930 . S
H135 C145 0.929 . S
H136 C137 0.969 . S
C137 H136 0.969 . S
C137 O138 1.550 . S
C137 H139 0.973 . S
O138 C137 1.550 . S
O138 C144 1.412 . S
H139 C137 0.973 . S
C140 H133 0.929 . S
C140 C141 1.400 . S
C140 C142 1.364 . S
C141 C140 1.400 . S
C141 C145 1.377 . S
C142 C140 1.364 . S
C142 C143 1.374 . S
C143 H134 0.930 . S
C143 C142 1.374 . S
C143 C144 1.383 . S
C144 O138 1.412 . S
C144 C143 1.383 . S
C144 C145 1.394 . S
C145 H135 0.929 . S
C145 C141 1.377 . S
C145 C144 1.394 . S
H146 C153 0.929 . S
H147 C156 0.930 . S
H148 C158 0.929 . S
H149 C150 0.969 . S
C150 H149 0.969 . S
C150 O151 1.550 . S
C150 H152 0.973 . S
O151 C150 1.550 . S
O151 C157 1.412 . S
H152 C150 0.973 . S
C153 H146 0.929 . S
C153 C154 1.400 . S
C153 C155 1.364 1_655 S
C154 C153 1.400 . S
C154 C158 1.377 1_655 S
C155 C153 1.364 1_455 S
C155 C156 1.374 . S
C156 H147 0.930 . S
C156 C155 1.374 . S
C156 C157 1.383 . S
C157 O151 1.412 . S
C157 C156 1.383 . S
C157 C158 1.394 . S
C158 H148 0.929 . S
C158 C154 1.377 1_455 S
C158 C157 1.394 . S
H159 C166 0.929 1_655 S
H160 C169 0.930 . S
H161 C171 0.929 . S
H162 C163 0.969 . S
C163 H162 0.969 . S
C163 O164 1.550 . S
C163 H165 0.973 . S
O164 C163 1.550 . S
O164 C170 1.412 . S
H165 C163 0.973 . S
C166 H159 0.929 1_455 S
C166 C167 1.400 . S
C166 C168 1.364 . S
C167 C166 1.400 . S
C167 C171 1.377 . S
C168 C166 1.364 . S
C168 C169 1.374 . S
C169 H160 0.930 . S
C169 C168 1.374 . S
C169 C170 1.383 . S
C170 O164 1.412 . S
C170 C169 1.383 . S
C170 C171 1.394 . S
C171 H161 0.929 . S
C171 C167 1.377 . S
C171 C170 1.394 . S
H172 C179 0.929 . S
H173 C182 0.930 . S
H174 C184 0.929 . S
H175 C176 0.969 . S
C176 H175 0.969 . S
C176 O177 1.550 . S
C176 H178 0.973 . S
O177 C176 1.550 . S
O177 C183 1.412 . S
H178 C176 0.973 . S
C179 H172 0.929 . S
C179 C180 1.400 . S
C179 C181 1.364 1_565 S
C180 C179 1.400 . S
C180 C184 1.377 . S
C181 C179 1.364 1_545 S
C181 C182 1.374 . S
C182 H173 0.930 . S
C182 C181 1.374 . S
C182 C183 1.383 . S
C183 O177 1.412 . S
C183 C182 1.383 . S
C183 C184 1.394 1_545 S
C184 H174 0.929 . S
C184 C180 1.377 . S
C184 C183 1.394 1_565 S
H185 C192 0.929 . S
H186 C195 0.930 . S
H187 C197 0.929 . S
H188 C189 0.969 . S
C189 H188 0.969 . S
C189 O190 1.550 . S
C189 H191 0.973 . S
O190 C189 1.550 . S
O190 C196 1.412 . S
H191 C189 0.973 . S
C192 H185 0.929 . S
C192 C193 1.400 . S
C192 C194 1.364 . S
C193 C192 1.400 . S
C193 C197 1.377 . S
C194 C192 1.364 . S
C194 C195 1.374 . S
C195 H186 0.930 . S
C195 C194 1.374 . S
C195 C196 1.383 . S
C196 O190 1.412 . S
C196 C195 1.383 . S
C196 C197 1.394 . S
C197 H187 0.929 . S
C197 C193 1.377 . S
C197 C196 1.394 . S
C198 C199 1.369 . S
C198 C200 1.419 . S
C198 H202 0.930 . S
C199 C198 1.369 . S
C199 C208 1.429 . S
C200 C198 1.419 . S
C200 C201 1.363 . S
C200 H203 0.929 . S
C201 C200 1.363 . S
C201 C207 1.428 . S
H202 C198 0.930 . S
H203 C200 0.929 . S
S204 N205 1.613 . S
S204 N206 1.610 . S
N205 S204 1.613 . S
N205 C208 1.350 . S
N206 S204 1.610 . S
N206 C207 1.351 . S
C207 C201 1.428 . S
C207 N206 1.351 . S
C207 C208 1.434 . S
C208 C199 1.429 . S
C208 N205 1.350 . S
C208 C207 1.434 . S
C209 C210 1.369 . S
C209 C211 1.419 . S
C209 H213 0.930 . S
C210 C209 1.369 . S
C210 C219 1.429 . S
C211 C209 1.419 . S
C211 C212 1.363 . S
C211 H214 0.929 . S
C212 C211 1.363 . S
C212 C218 1.428 . S
H213 C209 0.930 . S
H214 C211 0.929 . S
S215 N216 1.613 . S
S215 N217 1.610 . S
N216 S215 1.613 . S
N216 C219 1.350 . S
N217 S215 1.610 . S
N217 C218 1.351 . S
C218 C212 1.428 . S
C218 N217 1.351 . S
C218 C219 1.434 . S
C219 C210 1.429 . S
C219 N216 1.350 . S
C219 C218 1.434 . S
C220 C221 1.369 . S
C220 C222 1.419 . S
C220 H224 0.930 . S
C221 C220 1.369 . S
C221 C230 1.429 . S
C222 C220 1.419 . S
C222 C223 1.363 . S
C222 H225 0.929 . S
C223 C222 1.363 . S
C223 C229 1.428 . S
H224 C220 0.930 . S
H225 C222 0.929 . S
S226 N227 1.613 . S
S226 N228 1.610 . S
N227 S226 1.613 . S
N227 C230 1.350 . S
N228 S226 1.610 . S
N228 C229 1.351 . S
C229 C223 1.428 . S
C229 N228 1.351 . S
C229 C230 1.434 . S
C230 C221 1.429 . S
C230 N227 1.350 . S
C230 C229 1.434 . S
C231 C232 1.369 . S
C231 C233 1.419 . S
C231 H235 0.930 . S
C232 C231 1.369 . S
C232 C241 1.429 . S
C233 C231 1.419 . S
C233 C234 1.363 . S
C233 H236 0.929 . S
C234 C233 1.363 . S
C234 C240 1.428 . S
H235 C231 0.930 . S
H236 C233 0.929 . S
S237 N238 1.613 . S
S237 N239 1.610 . S
N238 S237 1.613 . S
N238 C241 1.350 . S
N239 S237 1.610 . S
N239 C240 1.351 . S
C240 C234 1.428 . S
C240 N239 1.351 . S
C240 C241 1.434 . S
C241 C232 1.429 . S
C241 N238 1.350 . S
C241 C240 1.434 . S
C242 C243 1.369 . S
C242 C244 1.419 . S
C242 H246 0.930 . S
C243 C242 1.369 . S
C243 C252 1.429 . S
C244 C242 1.419 . S
C244 C245 1.363 . S
C244 H247 0.929 . S
C245 C244 1.363 . S
C245 C251 1.428 . S
H246 C242 0.930 . S
H247 C244 0.929 . S
S248 N249 1.613 . S
S248 N250 1.610 . S
N249 S248 1.613 . S
N249 C252 1.350 . S
N250 S248 1.610 . S
N250 C251 1.351 . S
C251 C245 1.428 . S
C251 N250 1.351 . S
C251 C252 1.434 . S
C252 C243 1.429 . S
C252 N249 1.350 . S
C252 C251 1.434 . S
C253 C254 1.369 . S
C253 C255 1.419 . S
C253 H257 0.930 . S
C254 C253 1.369 . S
C254 C263 1.429 . S
C255 C253 1.419 . S
C255 C256 1.363 . S
C255 H258 0.929 . S
C256 C255 1.363 . S
C256 C262 1.428 . S
H257 C253 0.930 . S
H258 C255 0.929 . S
S259 N260 1.613 . S
S259 N261 1.610 . S
N260 S259 1.613 . S
N260 C263 1.350 . S
N261 S259 1.610 . S
N261 C262 1.351 . S
C262 C256 1.428 . S
C262 N261 1.351 . S
C262 C263 1.434 . S
C263 C254 1.429 . S
C263 N260 1.350 . S
C263 C262 1.434 . S
C264 C265 1.369 . S
C264 C266 1.419 . S
C264 H268 0.930 . S
C265 C264 1.369 . S
C265 C274 1.429 . S
C266 C264 1.419 . S
C266 C267 1.363 . S
C266 H269 0.929 . S
C267 C266 1.363 . S
C267 C273 1.428 . S
H268 C264 0.930 . S
H269 C266 0.929 . S
S270 N271 1.613 . S
S270 N272 1.610 . S
N271 S270 1.613 . S
N271 C274 1.350 . S
N272 S270 1.610 . S
N272 C273 1.351 . S
C273 C267 1.428 . S
C273 N272 1.351 . S
C273 C274 1.434 . S
C274 C265 1.429 . S
C274 N271 1.350 . S
C274 C273 1.434 . S
C275 C276 1.369 . S
C275 C277 1.419 . S
C275 H279 0.930 . S
C276 C275 1.369 . S
C276 C285 1.429 . S
C277 C275 1.419 . S
C277 C278 1.363 . S
C277 H280 0.929 . S
C278 C277 1.363 . S
C278 C284 1.428 . S
H279 C275 0.930 . S
H280 C277 0.929 . S
S281 N282 1.613 1_455 S
S281 N283 1.610 . S
N282 S281 1.613 1_655 S
N282 C285 1.350 . S
N283 S281 1.610 . S
N283 C284 1.351 1_455 S
C284 C278 1.428 . S
C284 N283 1.351 1_655 S
C284 C285 1.434 . S
C285 C276 1.429 . S
C285 N282 1.350 . S
C285 C284 1.434 . S
C286 C287 1.369 . S
C286 C288 1.419 . S
C286 H290 0.930 . S
C287 C286 1.369 . S
C287 C296 1.429 . S
C288 C286 1.419 . S
C288 C289 1.363 . S
C288 H291 0.929 . S
C289 C288 1.363 . S
C289 C295 1.428 . S
H290 C286 0.930 . S
H291 C288 0.929 . S
S292 N293 1.613 . S
S292 N294 1.610 . S
N293 S292 1.613 . S
N293 C296 1.350 . S
N294 S292 1.610 . S
N294 C295 1.351 . S
C295 C289 1.428 . S
C295 N294 1.351 . S
C295 C296 1.434 . S
C296 C287 1.429 . S
C296 N293 1.350 . S
C296 C295 1.434 . S
C297 C298 1.369 . S
C297 C299 1.419 . S
C297 H301 0.930 . S
C298 C297 1.369 . S
C298 C307 1.429 . S
C299 C297 1.419 . S
C299 C300 1.363 . S
C299 H302 0.929 . S
C300 C299 1.363 . S
C300 C306 1.428 . S
H301 C297 0.930 . S
H302 C299 0.929 . S
S303 N304 1.613 . S
S303 N305 1.610 . S
N304 S303 1.613 . S
N304 C307 1.350 . S
N305 S303 1.610 . S
N305 C306 1.351 . S
C306 C300 1.428 . S
C306 N305 1.351 . S
C306 C307 1.434 . S
C307 C298 1.429 . S
C307 N304 1.350 . S
C307 C306 1.434 . S
C308 C309 1.369 . S
C308 C310 1.419 . S
C308 H312 0.930 . S
C309 C308 1.369 . S
C309 C318 1.429 . S
C310 C308 1.419 . S
C310 C311 1.363 . S
C310 H313 0.929 . S
C311 C310 1.363 . S
C311 C317 1.428 . S
H312 C308 0.930 . S
H313 C310 0.929 . S
S314 N315 1.613 . S
S314 N316 1.610 . S
N315 S314 1.613 . S
N315 C318 1.350 . S
N316 S314 1.610 . S
N316 C317 1.351 . S
C317 C311 1.428 . S
C317 N316 1.351 . S
C317 C318 1.434 . S
C318 C309 1.429 . S
C318 N315 1.350 . S
C318 C317 1.434 . S
C319 C320 1.369 . S
C319 C321 1.419 . S
C319 H323 0.930 . S
C320 C319 1.369 . S
C320 C329 1.429 . S
C321 C319 1.419 . S
C321 C322 1.363 . S
C321 H324 0.929 . S
C322 C321 1.363 . S
C322 C328 1.428 . S
H323 C319 0.930 . S
H324 C321 0.929 . S
S325 N326 1.613 . S
S325 N327 1.610 . S
N326 S325 1.613 . S
N326 C329 1.350 . S
N327 S325 1.610 . S
N327 C328 1.351 . S
C328 C322 1.428 . S
C328 N327 1.351 . S
C328 C329 1.434 . S
C329 C320 1.429 . S
C329 N326 1.350 . S
C329 C328 1.434 . S
C330 C331 1.369 1_655 S
C330 C332 1.419 1_554 S
C330 H334 0.930 . S
C331 C330 1.369 1_455 S
C331 C340 1.429 . S
C332 C330 1.419 1_556 S
C332 C333 1.363 1_655 S
C332 H335 0.929 . S
C333 C332 1.363 1_455 S
C333 C339 1.428 1_556 S
H334 C330 0.930 . S
H335 C332 0.929 . S
S336 N337 1.613 . S
S336 N338 1.610 1_554 S
N337 S336 1.613 . S
N337 C340 1.350 . S
N338 S336 1.610 1_556 S
N338 C339 1.351 1_556 S
C339 C333 1.428 1_554 S
C339 N338 1.351 1_554 S
C339 C340 1.434 . S
C340 C331 1.429 . S
C340 N337 1.350 . S
C340 C339 1.434 . S
C341 C342 1.369 1_565 S
C341 C343 1.418 1_565 S
C341 H345 0.930 . S
C342 C341 1.369 1_545 S
C342 C351 1.429 . S
C343 C341 1.418 1_545 S
C343 C344 1.364 . S
C343 H346 0.929 1_545 S
C344 C343 1.364 . S
C344 C350 1.428 . S
H345 C341 0.930 . S
H346 C343 0.929 1_565 S
S347 N348 1.613 . S
S347 N349 1.610 . S
N348 S347 1.613 . S
N348 C351 1.350 . S
N349 S347 1.610 . S
N349 C350 1.351 . S
C350 C344 1.428 . S
C350 N349 1.351 . S
C350 C351 1.434 . S
C351 C342 1.429 . S
C351 N348 1.350 . S
C351 C350 1.434 . S
C352 C353 1.369 . S
C352 C354 1.419 . S
C352 H356 0.930 . S
C353 C352 1.369 . S
C353 C362 1.429 . S
C354 C352 1.419 . S
C354 C355 1.363 . S
C354 H357 0.929 . S
C355 C354 1.363 . S
C355 C361 1.428 . S
H356 C352 0.930 . S
H357 C354 0.929 . S
S358 N359 1.613 . S
S358 N360 1.610 . S
N359 S358 1.613 . S
N359 C362 1.350 . S
N360 S358 1.610 . S
N360 C361 1.351 . S
C361 C355 1.428 . S
C361 N360 1.351 . S
C361 C362 1.434 . S
C362 C353 1.429 . S
C362 N359 1.350 . S
C362 C361 1.434 . S
C363 C364 1.369 . S
C363 C365 1.419 . S
C363 H367 0.930 . S
C364 C363 1.369 . S
C364 C373 1.429 1_545 S
C365 C363 1.419 . S
C365 C366 1.363 . S
C365 H368 0.929 . S
C366 C365 1.363 . S
C366 C372 1.428 1_545 S
H367 C363 0.930 . S
H368 C365 0.929 . S
S369 N370 1.613 . S
S369 N371 1.610 . S
N370 S369 1.613 . S
N370 C373 1.350 . S
N371 S369 1.610 . S
N371 C372 1.351 . S
C372 C366 1.428 1_565 S
C372 N371 1.351 . S
C372 C373 1.434 . S
C373 C364 1.429 1_565 S
C373 N370 1.350 . S
C373 C372 1.434 . S
C374 C375 1.369 . S
C374 C376 1.419 1_556 S
C374 H378 0.930 . S
C375 C374 1.369 . S
C375 C384 1.429 . S
C376 C374 1.419 1_554 S
C376 C377 1.363 . S
C376 H379 0.929 . S
C377 C376 1.363 . S
C377 C383 1.428 1_554 S
H378 C374 0.930 . S
H379 C376 0.929 . S
S380 N381 1.613 . S
S380 N382 1.610 1_556 S
N381 S380 1.613 . S
N381 C384 1.350 . S
N382 S380 1.610 1_554 S
N382 C383 1.351 1_554 S
C383 C377 1.428 1_556 S
C383 N382 1.351 1_556 S
C383 C384 1.434 . S
C384 C375 1.429 . S
C384 N381 1.350 . S
C384 C383 1.434 . S
C385 C386 1.369 . S
C385 C387 1.419 . S
C385 H389 0.917 1_455 S
C386 C385 1.369 . S
C386 C395 1.429 . S
C387 C385 1.419 . S
C387 C388 1.363 . S
C387 H390 0.929 . S
C388 C387 1.363 . S
C388 C394 1.428 . S
H389 C385 0.917 1_655 S
H390 C387 0.929 . S
S391 N392 1.613 . S
S391 N393 1.610 . S
N392 S391 1.613 . S
N392 C395 1.350 . S
N393 S391 1.610 . S
N393 C394 1.351 . S
C394 C388 1.428 . S
C394 N393 1.351 . S
C394 C395 1.434 . S
C395 C386 1.429 . S
C395 N392 1.350 . S
C395 C394 1.434 . S
C199 C10 3.088 . S
C201 C189 2.894 . S
C210 C59 3.055 . S
C212 C167 3.015 1_655 S
C221 C90 3.007 . S
C223 C180 2.978 . S
C232 C19 3.062 . S
C234 C193 3.025 . S
C245 C163 2.914 . S
C243 C50 3.098 . S
C256 C176 2.951 . S
C254 C99 3.161 . S
C265 C46 0.536 . S
C267 C141 0.419 . S
C276 C95 0.672 . S
C278 C154 0.593 . S
C287 C6 0.752 . S
C289 C124 0.741 . S
C300 C137 0.724 . S
C298 C55 0.724 . S
C311 C150 0.866 . S
C309 C86 0.826 . S
C320 C15 0.664 . S
C322 C128 0.563 . S
C333 C155 1.154 . S
C331 C9 1.143 . S
C342 C49 1.194 . S
C344 C129 1.185 . S
C353 C89 1.064 . S
C355 C142 1.113 . S
C366 C181 1.830 . S
C364 C58 1.706 . S
C377 C194 1.769 . S
C375 C98 1.721 . S
C386 C18 1.714 . S
C388 C168 1.793 . S
