# Generated by pormake.
# Topology tsx, (6,3)-cn, num edge types: 1
# Building blocks:
#     Node 0, Type 0, BuildingBlock: FUNLAD_clean_sbu_0, # of connection points: 6
#     Node 1, Type 0, BuildingBlock: FUNLAD_clean_sbu_0, # of connection points: 6
#     Node 2, Type 1, BuildingBlock: VETTIZ_charged_linker_0, # of connection points: 3
#     Node 3, Type 1, BuildingBlock: VETTIZ_charged_linker_0, # of connection points: 3
#     Node 4, Type 1, BuildingBlock: VETTIZ_charged_linker_0, # of connection points: 3
#     Node 5, Type 1, BuildingBlock: VETTIZ_charged_linker_0, # of connection points: 3
#     Edge 6, Type (0, 1), BuildingBlock: XUDNAN_clean_linker_2, # of connection points: 2
#     Edge 7, Type (0, 1), BuildingBlock: XUDNAN_clean_linker_2, # of connection points: 2
#     Edge 8, Type (0, 1), BuildingBlock: XUDNAN_clean_linker_2, # of connection points: 2
#     Edge 9, Type (0, 1), BuildingBlock: XUDNAN_clean_linker_2, # of connection points: 2
#     Edge 10, Type (0, 1), BuildingBlock: XUDNAN_clean_linker_2, # of connection points: 2
#     Edge 11, Type (0, 1), BuildingBlock: XUDNAN_clean_linker_2, # of connection points: 2
#     Edge 12, Type (0, 1), BuildingBlock: XUDNAN_clean_linker_2, # of connection points: 2
#     Edge 13, Type (0, 1), BuildingBlock: XUDNAN_clean_linker_2, # of connection points: 2
#     Edge 14, Type (0, 1), BuildingBlock: XUDNAN_clean_linker_2, # of connection points: 2
#     Edge 15, Type (0, 1), BuildingBlock: XUDNAN_clean_linker_2, # of connection points: 2
#     Edge 16, Type (0, 1), BuildingBlock: XUDNAN_clean_linker_2, # of connection points: 2
#     Edge 17, Type (0, 1), BuildingBlock: XUDNAN_clean_linker_2, # of connection points: 2
# Relax obj value: 0.169
# Max RMSD: 0.157
# Mean RMSD: 0.092
data_MOF--net-tsx--node1-FUNLAD_clean_sbu_0--node2-VETTIZ_charged_linker_0--edge1-XUDNAN_clean_linker_2
_symmetry_space_group_name_H-M    P1
_symmetry_Int_Tables_number       1
_symmetry_cell_setting            triclinic
loop_
_symmetry_equiv_pos_as_xyz
'x, y, z'
_cell_length_a     22.734957
_cell_length_b     25.204061
_cell_length_c     50.861102
_cell_angle_alpha  90.992533
_cell_angle_beta   91.976009
_cell_angle_gamma 89.886517
loop_
_atom_site_label
_atom_site_type_symbol
_atom_site_fract_x
_atom_site_fract_y
_atom_site_fract_z
_atom_type_partial_charge
C0 C 0.93714 0.98382 0.00047 0.0
N1 N 0.04861 0.06738 0.05431 0.0
C2 C 0.00663 0.06072 0.07238 0.0
C3 C 0.02176 0.06275 0.09917 0.0
C4 C 0.0803 0.0728 0.10728 0.0
C5 C 0.12276 0.07948 0.08834 0.0
C6 C 0.10596 0.07598 0.06175 0.0
Zn7 Zn 0.02529 0.06715 0.01543 0.0
C8 C 0.10432 0.99746 0.9845 0.0
N9 N 0.97897 0.06893 0.93411 0.0
C10 C 0.92111 0.06813 0.92625 0.0
C11 C 0.02232 0.07136 0.9164 0.0
C12 C 0.00818 0.07256 0.88955 0.0
C13 C 0.94894 0.07242 0.88101 0.0
C14 C 0.90498 0.07047 0.89958 0.0
Zn15 Zn 1.00163 0.06808 0.97308 0.0
O16 O 0.96304 0.00533 0.02049 0.0
C17 C 0.92239 0.13668 0.00405 0.0
O18 O 0.948 1.00037 0.97769 0.0
H19 H 0.06796 0.0726 0.92309 0.0
H20 H 0.96127 0.05442 0.06603 0.0
H21 H 0.88736 0.06581 0.94065 0.0
O22 O 0.95841 0.12504 0.02274 0.0
O23 O 0.92937 0.11686 0.98128 0.0
H24 H 0.13871 0.08063 0.04706 0.0
O25 O 0.05382 0.1371 0.9686 0.0
O26 O 0.08602 0.12971 0.00949 0.0
O27 O 0.07502 0.0184 0.96564 0.0
O28 O 0.09172 0.00908 0.00806 0.0
C29 C 0.08654 0.15363 0.98772 0.0
H30 H 0.98794 0.05774 0.11341 0.0
H31 H 0.16838 0.08692 0.09407 0.0
H32 H 0.04306 0.07435 0.87561 0.0
H33 H 0.85884 0.06996 0.89349 0.0
C34 C 0.46035 0.37357 0.48976 0.0
N35 N 0.54117 0.4555 0.55312 0.0
C36 C 0.48799 0.46763 0.56313 0.0
C37 C 0.48299 0.47666 0.59008 0.0
C38 C 0.53312 0.47266 0.60687 0.0
C39 C 0.58711 0.45877 0.596 0.0
C40 C 0.59022 0.45071 0.56894 0.0
Zn41 Zn 0.54919 0.447 0.51374 0.0
C42 C 0.62897 0.35819 0.49999 0.0
N43 N 0.56784 0.43069 0.43136 0.0
C44 C 0.52078 0.43636 0.4144 0.0
C45 C 0.62271 0.42069 0.42255 0.0
C46 C 0.6319 0.41586 0.39569 0.0
C47 C 0.58439 0.42256 0.37783 0.0
C48 C 0.52825 0.43291 0.38732 0.0
Zn49 Zn 0.55793 0.43866 0.47073 0.0
O50 O 0.47603 0.39624 0.51137 0.0
C51 C 0.47567 0.52596 0.48487 0.0
O52 O 0.48828 0.38259 0.4691 0.0
H53 H 0.65968 0.41708 0.43635 0.0
H54 H 0.44956 0.47118 0.55014 0.0
H55 H 0.47756 0.44405 0.42185 0.0
O56 O 0.4929 0.51234 0.50776 0.0
O57 O 0.49562 0.50149 0.46498 0.0
H58 H 0.63204 0.44112 0.56052 0.0
O59 O 0.62754 0.49436 0.47254 0.0
O60 O 0.62204 0.49955 0.51548 0.0
O61 O 0.61861 0.3763 0.47718 0.0
O62 O 0.60489 0.37966 0.51965 0.0
C63 C 0.64592 0.51369 0.4945 0.0
H64 H 0.44061 0.48783 0.59755 0.0
H65 H 0.62666 0.45417 0.60822 0.0
H66 H 0.67587 0.40842 0.38892 0.0
H67 H 0.49066 0.43812 0.37393 0.0
C68 C 0.12714 0.81015 0.44112 0.0
C69 C 0.17621 0.78566 0.42968 0.0
C70 C 0.193 0.802 0.40466 0.0
C71 C 0.11538 0.86761 0.40349 0.0
C72 C 0.09746 0.85107 0.42769 0.0
C73 C 0.04625 0.88353 0.43723 0.0
H74 H 0.87854 0.10499 0.42168 0.0
C75 C 0.0794 0.91368 0.39566 0.0
C76 C 0.03891 0.92388 0.41539 0.0
H77 H 0.87176 0.99249 0.48476 0.0
H78 H 0.9423 0.93656 0.46271 0.0
H79 H 0.0124 0.10856 0.4182 0.0
H80 H 0.88123 0.01683 0.37501 0.0
H81 H 0.932 0.03756 0.35209 0.0
H82 H 0.89136 0.08656 0.37031 0.0
H83 H 0.96662 0.13657 0.39255 0.0
H84 H 0.03578 0.10474 0.38573 0.0
C85 C 0.06444 0.90976 0.46396 0.0
C86 C 0.99229 0.84653 0.43834 0.0
C87 C 0.11827 1.00385 0.30956 0.0
C88 C 0.09483 0.04952 0.29779 0.0
C89 C 0.05473 0.08127 0.31147 0.0
C90 C 0.03613 0.06637 0.33623 0.0
C91 C 0.05834 0.01947 0.34745 0.0
C92 C 0.09982 0.98988 0.33443 0.0
C93 C 0.12053 0.9427 0.34987 0.0
C94 C 0.08241 0.94744 0.37374 0.0
C95 C 0.04593 0.9921 0.37206 0.0
C96 C 0.18698 0.95041 0.35711 0.0
C97 C 0.10598 0.8919 0.33332 0.0
C98 C 0.89286 0.06897 0.43129 0.0
C99 C 0.87182 0.05506 0.45589 0.0
C100 C 0.88856 0.00543 0.46629 0.0
C101 C 0.92985 0.97307 0.45359 0.0
C102 C 0.95433 0.99031 0.43021 0.0
C103 C 0.93412 0.03681 0.41913 0.0
C104 C 0.96287 0.04895 0.39389 0.0
C105 C 0.00488 1.00265 0.39179 0.0
C106 C 1.00039 0.96836 0.41316 0.0
C107 C 0.99591 0.10259 0.3975 0.0
C108 C 0.91469 0.04788 0.37154 0.0
H109 H 0.17847 0.85316 0.37273 0.0
H110 H 0.11269 0.79831 0.46021 0.0
H111 H 0.95015 0.8683 0.43806 0.0
H112 H 0.99527 0.82146 0.45608 0.0
H113 H 0.98971 0.81956 0.42079 0.0
H114 H 0.03712 0.94441 0.46886 0.0
H115 H 0.11031 0.92497 0.46363 0.0
H116 H 0.0623 0.88087 0.48015 0.0
H117 H 0.1496 0.97914 0.29941 0.0
H118 H 0.03601 0.11646 0.30252 0.0
H119 H 0.00445 0.0915 0.34543 0.0
H120 H 0.20021 0.99285 0.3565 0.0
H121 H 0.21505 0.92808 0.34329 0.0
H122 H 0.19849 0.93845 0.37749 0.0
H123 H 0.06178 0.89523 0.32339 0.0
H124 H 0.10389 0.85588 0.3453 0.0
H125 H 0.13864 0.8854 0.31783 0.0
H126 H 0.23108 0.78489 0.39548 0.0
C127 C 0.1628 0.84243 0.39153 0.0
C128 C 0.10885 0.10149 0.5277 0.0
C129 C 0.14023 0.14467 0.53917 0.0
C130 C 0.13147 0.15779 0.56589 0.0
C131 C 0.06225 0.0857 0.56905 0.0
C132 C 0.0712 0.07213 0.54309 0.0
C133 C 0.0377 0.02306 0.53451 0.0
H134 H 0.86966 0.81547 0.56834 0.0
C135 C 0.02186 0.04652 0.57975 0.0
C136 C 0.0078 0.00919 0.55972 0.0
H137 H 0.92601 0.8538 0.49046 0.0
H138 H 0.97474 0.93255 0.50829 0.0
H139 H 0.98416 0.85005 0.60177 0.0
H140 H 0.82401 0.93055 0.57923 0.0
H141 H 0.84259 0.95366 0.61111 0.0
H142 H 0.82741 0.88403 0.60552 0.0
H143 H 0.91464 0.83581 0.61575 0.0
H144 H 0.96248 0.887 0.62942 0.0
C145 C 0.08267 0.98015 0.52643 0.0
C146 C 0.99266 0.03807 0.51239 0.0
C147 C 0.95698 0.06617 0.67399 0.0
C148 C 0.92421 0.03322 0.68989 0.0
C149 C 0.90156 0.98507 0.67956 0.0
C150 C 0.9111 0.96991 0.65348 0.0
C151 C 0.94424 1.00304 0.63771 0.0
C152 C 0.967 0.05004 0.64807 0.0
C153 C 0.00467 0.07813 0.62897 0.0
C154 C 0.99839 0.04141 0.60505 0.0
C155 C 0.96289 0.99775 0.61033 0.0
C156 C 0.06883 0.07989 0.6405 0.0
C157 C 0.97722 0.13333 0.62369 0.0
C158 C 0.89179 0.84069 0.5548 0.0
C159 C 0.89388 0.82767 0.52784 0.0
C160 C 0.92456 0.86187 0.51138 0.0
C161 C 0.95246 0.90782 0.52167 0.0
C162 C 0.94928 0.92012 0.54862 0.0
C163 C 0.91832 0.8872 0.56453 0.0
C164 C 0.91468 0.90853 0.59214 0.0
C165 C 0.94985 0.95921 0.59039 0.0
C166 C 0.97105 0.96542 0.56504 0.0
C167 C 0.94511 0.86836 0.61094 0.0
C168 C 0.84894 0.91956 0.59756 0.0
H169 H 0.08764 0.14125 0.60081 0.0
H170 H 0.11353 0.09032 0.50724 0.0
H171 H 0.95133 0.01557 0.51376 0.0
H172 H 0.01104 0.0317 0.49264 0.0
H173 H 0.97916 0.08044 0.51398 0.0
H174 H 0.11932 0.97772 0.54143 0.0
H175 H 0.10202 0.98976 0.50733 0.0
H176 H 0.06363 0.94 0.52486 0.0
H177 H 0.9761 0.10271 0.68187 0.0
H178 H 0.87668 0.9591 0.69179 0.0
H179 H 0.89286 0.9327 0.64673 0.0
H180 H 0.07698 0.04873 0.65543 0.0
H181 H 0.07886 0.1188 0.65021 0.0
H182 H 0.10171 0.07167 0.62538 0.0
H183 H 0.92874 0.12996 0.6203 0.0
H184 H 0.99383 0.15198 0.60594 0.0
H185 H 0.98545 0.16071 0.64076 0.0
H186 H 0.15595 0.18953 0.57576 0.0
C187 C 0.09229 0.12903 0.58071 0.0
C188 C 0.57214 0.41605 0.96911 0.0
C189 C 0.60297 0.37116 0.95991 0.0
C190 C 0.59688 0.35665 0.93303 0.0
C191 C 0.53138 0.43055 0.92503 0.0
C192 C 0.53662 0.44507 0.95129 0.0
C193 C 0.50101 0.49412 0.95722 0.0
H194 H 0.3251 0.6925 0.91025 0.0
C195 C 0.49195 0.46862 0.9116 0.0
C196 C 0.47237 0.50543 0.9304 0.0
H197 H 0.38888 0.67348 0.99046 0.0
H198 H 0.43427 0.58915 0.97822 0.0
H199 H 0.43941 0.66537 0.88522 0.0
H200 H 0.28885 0.56845 0.89888 0.0
H201 H 0.3128 0.55064 0.86744 0.0
H202 H 0.28929 0.61796 0.87396 0.0
H203 H 0.37355 0.6684 0.86486 0.0
H204 H 0.43237 0.62292 0.85777 0.0
C205 C 0.54433 0.53849 0.96614 0.0
C206 C 0.45523 0.48028 0.97771 0.0
C207 C 0.47827 0.46706 0.81216 0.0
C208 C 0.44944 0.50045 0.79415 0.0
C209 C 0.40727 0.53691 0.80289 0.0
C210 C 0.3971 0.54277 0.82979 0.0
C211 C 0.42991 0.51207 0.84793 0.0
C212 C 0.46763 0.47332 0.83892 0.0
C213 C 0.49808 0.44394 0.86093 0.0
C214 C 0.47524 0.47381 0.88467 0.0
C215 C 0.43609 0.51401 0.87692 0.0
C216 C 0.56545 0.45099 0.8584 0.0
C217 C 0.47674 0.38545 0.85963 0.0
C218 C 0.34858 0.67014 0.92531 0.0
C219 C 0.35439 0.68999 0.95119 0.0
C220 C 0.38428 0.65914 0.97031 0.0
C221 C 0.41087 0.61058 0.96317 0.0
C222 C 0.40727 0.59283 0.93675 0.0
C223 C 0.37534 0.62223 0.91853 0.0
C224 C 0.37729 0.59937 0.8912 0.0
C225 C 0.41573 0.55114 0.89578 0.0
C226 C 0.43353 0.54714 0.92246 0.0
C227 C 0.40671 0.6409 0.87364 0.0
C228 C 0.31386 0.5835 0.88213 0.0
H229 H 0.55872 0.37232 0.89562 0.0
H230 H 0.57548 0.42825 0.98963 0.0
H231 H 0.41569 0.5054 0.97572 0.0
H232 H 0.47432 0.48391 -0.00194 0.0
H233 H 0.43898 0.43892 0.97476 0.0
H234 H 0.52378 0.5781 0.96646 0.0
H235 H 0.58101 0.54105 0.95228 0.0
H236 H 0.56394 0.53022 0.98594 0.0
H237 H 0.51066 0.43859 0.80562 0.0
H238 H 0.38479 0.56289 0.78906 0.0
H239 H 0.36629 0.57275 0.8355 0.0
H240 H 0.57596 0.4925 0.85315 0.0
H241 H 0.58248 0.42431 0.8428 0.0
H242 H 0.59095 0.44378 0.87681 0.0
H243 H 0.4335 0.38134 0.84886 0.0
H244 H 0.46913 0.3695 0.87939 0.0
H245 H 0.50852 0.35943 0.84942 0.0
H246 H 0.62116 0.32344 0.92502 0.0
C247 C 0.56091 0.38555 0.91574 0.0
C248 C 0.58723 0.70961 0.04598 0.0
C249 C 0.63831 0.73347 0.05749 0.0
C250 C 0.65752 0.7178 0.08286 0.0
C251 C 0.57913 0.65331 0.08394 0.0
C252 C 0.55842 0.66959 0.05955 0.0
C253 C 0.50651 0.63667 0.0496 0.0
H254 H 0.34531 0.41229 0.06416 0.0
C255 C 0.54462 0.60693 0.09149 0.0
C256 C 0.50207 0.59624 0.07136 0.0
H257 H 0.32803 0.52314 0.00041 0.0
H258 H 0.39974 0.58106 0.02278 0.0
H259 H 0.47879 0.41044 0.06752 0.0
H260 H 0.35146 0.49943 0.1104 0.0
H261 H 0.40595 0.48031 0.13362 0.0
H262 H 0.36489 0.43006 0.11524 0.0
H263 H 0.43911 0.38198 0.09367 0.0
H264 H 0.50842 0.41567 0.09972 0.0
C265 C 0.5221 0.61052 0.02311 0.0
C266 C 0.45182 0.67303 0.0479 0.0
C267 C 0.59636 0.51473 0.17734 0.0
C268 C 0.57599 0.46776 0.18829 0.0
C269 C 0.5349 0.43602 0.17404 0.0
C270 C 0.5125 0.45188 0.14948 0.0
C271 C 0.53194 0.49974 0.13896 0.0
C272 C 0.57424 0.5296 0.15253 0.0
C273 C 0.59205 0.57751 0.13751 0.0
C274 C 0.55107 0.57285 0.11331 0.0
C275 C 0.51588 0.52759 0.11448 0.0
C276 C 0.65785 0.57107 0.1307 0.0
C277 C 0.5784 0.62768 0.15424 0.0
C278 C 0.35755 0.44828 0.05442 0.0
C279 C 0.33289 0.46134 0.02968 0.0
C280 C 0.34731 0.511 0.01911 0.0
C281 C 0.38937 0.54445 0.03198 0.0
C282 C 0.41726 0.52806 0.05562 0.0
C283 C 0.39964 0.48125 0.06665 0.0
C284 C 0.43195 0.4695 0.09197 0.0
C285 C 0.47281 0.51659 0.09441 0.0
C286 C 0.46487 0.55098 0.07308 0.0
C287 C 0.46615 0.41656 0.08831 0.0
C288 C 0.38657 0.46936 0.11407 0.0
H289 H 0.64578 0.66794 0.11513 0.0
H290 H 0.57079 0.72092 0.02664 0.0
H291 H 0.41018 0.65062 0.04679 0.0
H292 H 0.45352 0.69927 0.03062 0.0
H293 H 0.44961 0.69878 0.06583 0.0
H294 H 0.56818 0.59555 0.02393 0.0
H295 H 0.51794 0.63939 0.00689 0.0
H296 H 0.49448 0.57578 0.01807 0.0
H297 H 0.62839 0.53945 0.18797 0.0
H298 H 0.51848 0.39989 0.18239 0.0
H299 H 0.48031 0.42654 0.13986 0.0
H300 H 0.67277 0.52907 0.1319 0.0
H301 H 0.68692 0.59482 0.14437 0.0
H302 H 0.66626 0.58228 0.11021 0.0
H303 H 0.53486 0.62392 0.16338 0.0
H304 H 0.57549 0.66412 0.14252 0.0
H305 H 0.61212 0.63361 0.17035 0.0
H306 H 0.69703 0.73439 0.0922 0.0
C307 C 0.62812 0.67834 0.09612 0.0
H308 H 0.19498 0.17462 0.00988 0.0
H309 H 0.05509 0.24344 0.96149 0.0
H310 H 0.10697 0.32992 0.96318 0.0
H311 H 0.22143 0.28099 0.05184 0.0
H312 H 0.30037 0.27405 0.0538 0.0
H313 H 0.25497 0.21695 0.04661 0.0
H314 H 0.31068 0.19865 0.00375 0.0
H315 H 0.35676 0.25554 0.01095 0.0
H316 H 0.31622 0.2504 0.97993 0.0
H317 H 0.16787 0.41214 0.97637 0.0
H318 H 0.23596 0.47935 -0.0038 0.0
H319 H 0.3417 0.35278 0.03053 0.0
C320 C 0.17601 0.20767 -0.00081 0.0
C321 C 0.12123 0.20266 0.98558 0.0
C322 C 0.09743 0.24658 0.97183 0.0
C323 C 0.12648 0.2958 0.97275 0.0
C324 C 0.18004 0.29985 0.98687 0.0
C325 C 0.20522 0.25647 -0.00074 0.0
C326 C 0.26236 0.27117 0.01358 0.0
C327 C 0.25956 0.26015 0.0432 0.0
C328 C 0.31459 0.24223 0.00131 0.0
C329 C 0.26406 0.33004 0.0084 0.0
C330 C 0.21637 0.34615 -0.00699 0.0
C331 C 0.20617 0.39975 0.98792 0.0
C332 C 0.24528 0.43773 -0.00079 0.0
C333 C 0.29415 0.42186 0.0153 0.0
C334 C 0.30423 0.36696 0.01897 0.0
H335 H 0.13461 0.90595 0.01038 0.0
H336 H 0.18135 0.00441 0.94523 0.0
H337 H 0.25959 0.94086 0.93377 0.0
H338 H 0.28427 0.85498 0.02757 0.0
H339 H 0.25813 0.78907 0.03383 0.0
H340 H 0.21134 0.84567 0.03953 0.0
H341 H 0.13032 0.80418 0.00862 0.0
H342 H 0.1767 0.7475 0.00292 0.0
H343 H 0.14794 0.78502 0.97548 0.0
H344 H 0.32782 0.86582 0.92759 0.0
H345 H 0.37576 0.77854 0.92374 0.0
H346 H 0.28206 0.72365 0.99097 0.0
C347 C 0.16234 0.9145 -0.00591 0.0
C348 C 0.15277 0.96037 0.97886 0.0
C349 C 0.18838 0.96963 0.95717 0.0
C350 C 0.23309 0.93396 0.95065 0.0
C351 C 0.24114 0.88882 0.9658 0.0
C352 C 0.20645 0.8785 0.9869 0.0
C353 C 0.2202 0.82404 -0.00202 0.0
C354 C 0.24496 0.82874 0.02642 0.0
C355 C 0.16554 0.78807 -0.00387 0.0
C356 C 0.2671 0.80501 0.97944 0.0
C357 C 0.27918 0.8437 0.96144 0.0
C358 C 0.31892 0.83529 0.94161 0.0
C359 C 0.34578 0.78553 0.93954 0.0
C360 C 0.33232 0.74431 0.95694 0.0
C361 C 0.29362 0.75466 0.97762 0.0
H362 H 0.88093 0.95878 0.04541 0.0
H363 H 0.88971 0.9166 0.96254 0.0
H364 H 0.8102 0.85105 0.96734 0.0
H365 H 0.85303 0.8284 0.06895 0.0
H366 H 0.80281 0.8511 0.0934 0.0
H367 H 0.86065 0.89408 0.08326 0.0
H368 H 0.78327 0.96614 0.07122 0.0
H369 H 0.7251 0.92317 0.08111 0.0
H370 H 0.72319 0.94992 0.04845 0.0
H371 H 0.73118 0.7881 0.98172 0.0
H372 H 0.66116 0.73189 0.00465 0.0
H373 H 0.69951 0.8205 0.07722 0.0
C374 C 0.8665 0.93547 0.02831 0.0
C375 C 0.89184 0.94251 0.00364 0.0
C376 C 0.87106 0.91174 0.98166 0.0
C377 C 0.82581 0.87452 0.98417 0.0
C378 C 0.80131 0.86901 0.00872 0.0
C379 C 0.82089 0.89872 0.03038 0.0
C380 C 0.78704 0.88552 0.05451 0.0
C381 C 0.82835 0.86345 0.07631 0.0
C382 C 0.75261 0.93408 0.0644 0.0
C383 C 0.74598 0.84312 0.04317 0.0
C384 C 0.75474 0.83415 0.01674 0.0
C385 C 0.72351 0.79518 0.00237 0.0
C386 C 0.68333 0.76373 0.01554 0.0
C387 C 0.67452 0.77154 0.04281 0.0
C388 C 0.70546 0.81283 0.05647 0.0
H389 H 0.81308 0.12859 0.98191 0.0
H390 H 0.92122 0.22757 0.03447 0.0
H391 H 0.84201 0.29552 0.03486 0.0
H392 H 0.75887 0.22462 0.94262 0.0
H393 H 0.68564 0.19802 0.938 0.0
H394 H 0.74616 0.15442 0.94561 0.0
H395 H 0.69253 0.12024 0.98616 0.0
H396 H 0.63138 0.16365 0.97858 0.0
H397 H 0.66766 0.16695 0.01064 0.0
H398 H 0.75891 0.3588 0.02206 0.0
H399 H 0.67889 0.4087 -0.00056 0.0
H400 H 0.62115 0.26384 0.95914 0.0
C401 C 0.81929 0.16397 -0.00591 0.0
C402 C 0.87286 0.1732 0.00814 0.0
C403 C 0.88001 0.21983 0.02378 0.0
C404 C 0.83531 0.25849 0.02409 0.0
C405 C 0.78339 0.24891 0.00929 0.0
C406 C 0.77482 0.20209 -0.00492 0.0
C407 C 0.71739 0.20258 0.97924 0.0
C408 C 0.72768 0.19447 0.94964 0.0
C409 C 0.67471 0.16088 0.98927 0.0
C410 C 0.69649 0.25819 0.98542 0.0
C411 C 0.73462 0.28433 0.00297 0.0
C412 C 0.72784 0.33824 0.00892 0.0
C413 C 0.68203 0.36628 -0.00396 0.0
C414 C 0.64372 0.34032 0.97739 0.0
C415 C 0.64987 0.2851 0.97308 0.0
H416 H 0.65514 0.597 0.52898 0.0
H417 H 0.73725 0.52524 0.46137 0.0
H418 H 0.81049 0.59812 0.46194 0.0
H419 H 0.66874 0.73066 0.50722 0.0
H420 H 0.68118 0.75785 0.53994 0.0
H421 H 0.63806 0.69845 0.53498 0.0
H422 H 0.7073 0.64876 0.56786 0.0
H423 H 0.75051 0.70806 0.57298 0.0
H424 H 0.78532 0.64726 0.56262 0.0
H425 H 0.87648 0.67868 0.47124 0.0
H426 H 0.92608 0.76102 0.48692 0.0
H427 H 0.79144 0.78372 0.54473 0.0
C428 C 0.68907 0.59626 0.51453 0.0
C429 C 0.69141 0.55527 0.4954 0.0
C430 C 0.73526 0.55628 0.47631 0.0
C431 C 0.77689 0.59743 0.4765 0.0
C432 C 0.77307 0.63765 0.49555 0.0
C433 C 0.7298 0.63758 0.51401 0.0
C434 C 0.73305 0.68658 0.53152 0.0
C435 C 0.67693 0.72037 0.5282 0.0
C436 C 0.74476 0.67176 0.56045 0.0
C437 C 0.78554 0.71388 0.52037 0.0
C438 C 0.80845 0.68507 0.49978 0.0
C439 C 0.85848 0.70185 0.48717 0.0
C440 C 0.88609 0.74901 0.4961 0.0
C441 C 0.86318 0.77918 0.51724 0.0
C442 C 0.81142 0.76143 0.529 0.0
H443 H 0.7346 0.33972 0.47858 0.0
H444 H 0.60379 0.26881 0.52685 0.0
H445 H 0.65707 0.18284 0.52484 0.0
H446 H 0.75494 0.23593 0.43618 0.0
H447 H 0.83344 0.24296 0.43379 0.0
H448 H 0.78921 0.29975 0.44183 0.0
H449 H 0.85247 0.31638 0.48457 0.0
H450 H 0.8976 0.25995 0.47647 0.0
H451 H 0.8628 0.2636 0.50776 0.0
H452 H 0.71615 0.10144 0.51051 0.0
H453 H 0.78066 0.03527 0.48941 0.0
H454 H 0.87923 0.16354 0.45581 0.0
C455 C 0.71829 0.30639 0.48933 0.0
C456 C 0.66557 0.31044 0.50293 0.0
C457 C 0.64475 0.26625 0.51662 0.0
C458 C 0.67456 0.21738 0.51549 0.0
C459 C 0.72588 0.21416 0.50126 0.0
C460 C 0.74838 0.25803 0.48906 0.0
C461 C 0.80289 0.24415 0.47425 0.0
C462 C 0.79457 0.25641 0.44478 0.0
C463 C 0.85715 0.27271 0.4865 0.0
C464 C 0.80589 0.18512 0.47881 0.0
C465 C 0.76132 0.16826 0.49439 0.0
C466 C 0.75219 0.11442 0.49886 0.0
C467 C 0.78921 0.07704 0.48682 0.0
C468 C 0.83494 0.09376 0.4706 0.0
C469 C 0.84406 0.14878 0.46747 0.0
H470 H 0.3624 0.38071 0.51857 0.0
H471 H 0.44675 0.28311 0.45978 0.0
H472 H 0.3675 0.21622 0.46261 0.0
H473 H 0.31856 0.28113 0.55884 0.0
H474 H 0.24841 0.30987 0.56651 0.0
H475 H 0.30814 0.35201 0.5578 0.0
H476 H 0.24338 0.39209 0.52016 0.0
H477 H 0.1831 0.3503 0.52889 0.0
H478 H 0.20871 0.34866 0.49574 0.0
H479 H 0.28796 0.15481 0.47734 0.0
H480 H 0.21031 0.10695 0.49959 0.0
H481 H 0.1711 0.25014 0.54465 0.0
C482 C 0.36353 0.34563 0.50598 0.0
C483 C 0.41046 0.33659 0.48907 0.0
C484 C 0.41076 0.29057 0.47277 0.0
C485 C 0.36606 0.2525 0.47427 0.0
C486 C 0.32087 0.26207 0.49161 0.0
C487 C 0.31866 0.30809 0.50674 0.0
C488 C 0.2666 0.30824 0.52443 0.0
C489 C 0.28666 0.31307 0.55361 0.0
C490 C 0.22285 0.35244 0.51684 0.0
C491 C 0.24141 0.25399 0.51786 0.0
C492 C 0.27314 0.22795 0.49887 0.0
C493 C 0.26165 0.17535 0.49164 0.0
C494 C 0.217 0.14855 0.50436 0.0
C495 C 0.18382 0.17454 0.52394 0.0
C496 C 0.19564 0.22849 0.5301 0.0
H497 H 0.41149 0.55177 0.44013 0.0
H498 H 0.43689 0.5943 0.52284 0.0
H499 H 0.35824 0.66149 0.51852 0.0
H500 H 0.38378 0.68293 0.41694 0.0
H501 H 0.32848 0.66219 0.39268 0.0
H502 H 0.38643 0.61717 0.40249 0.0
H503 H 0.30852 0.54767 0.41474 0.0
H504 H 0.25029 0.59272 0.40519 0.0
H505 H 0.25309 0.5657 0.4378 0.0
H506 H 0.27872 0.72605 0.50487 0.0
H507 H 0.20722 0.78523 0.48239 0.0
H508 H 0.22989 0.69687 0.40935 0.0
C509 C 0.40073 0.57539 0.4573 0.0
C510 C 0.43051 0.56792 0.48179 0.0
C511 C 0.41473 0.59935 0.50385 0.0
C512 C 0.36997 0.63751 0.50163 0.0
C513 C 0.34103 0.64347 0.47729 0.0
C514 C 0.35578 0.61332 0.45551 0.0
C515 C 0.31824 0.62792 0.43157 0.0
C516 C 0.35652 0.64881 0.40963 0.0
C517 C 0.28028 0.58069 0.42176 0.0
C518 C 0.28082 0.67158 0.44318 0.0
C519 C 0.29438 0.67982 0.4696 0.0
C520 C 0.26726 0.71963 0.48423 0.0
C521 C 0.22626 0.75277 0.47133 0.0
C522 C 0.21277 0.74585 0.44407 0.0
C523 C 0.23952 0.7037 0.43013 0.0
H524 H 0.06332 0.99857 0.14428 0.0
H525 H 0.13272 0.15636 0.13342 0.0
H526 H 0.15198 0.16589 0.18156 0.0
H527 H 0.98918 0.02497 0.20169 0.0
H528 H 0.00638 0.9625 0.2169 0.0
H529 H 1.00292 0.96688 0.18163 0.0
H530 H 0.10916 0.92976 0.17955 0.0
H531 H 0.11291 0.92514 0.21489 0.0
H532 H 0.16789 0.96218 0.19831 0.0
H533 H 0.15141 0.16175 0.23113 0.0
H534 H 0.13851 0.14134 0.27816 0.0
H535 H 0.0759 0.98419 0.25575 0.0
C536 C 0.08333 0.03475 0.15211 0.0
C537 C 0.09656 0.07683 0.13547 0.0
C538 C 0.12274 0.1237 0.14609 0.0
C539 C 0.13372 0.1294 0.1733 0.0
C540 C 0.11928 0.08738 0.18932 0.0
C541 C 0.09554 0.04064 0.17905 0.0
C542 C 0.08227 1.00206 0.20044 0.0
C543 C 0.01628 0.98834 0.20014 0.0
C544 C 0.12035 0.95182 0.19815 0.0
C545 C 0.10035 0.03502 0.22443 0.0
C546 C 0.1216 0.08414 0.21769 0.0
C547 C 0.13616 0.123 0.23667 0.0
C548 C 0.12858 0.11125 0.2632 0.0
C549 C 0.10735 0.06099 0.2703 0.0
C550 C 0.09375 0.02238 0.25071 0.0
H551 H 0.98241 1.00213 0.84342 0.0
H552 H 0.88118 0.14586 0.85535 0.0
H553 H 0.86069 0.15081 0.80721 0.0
H554 H 0.04886 0.03824 0.78475 0.0
H555 H 0.04407 0.97301 0.76973 0.0
H556 H 0.04879 0.98024 0.805 0.0
H557 H 0.95252 0.92622 0.80858 0.0
H558 H 0.94761 0.91864 0.77328 0.0
H559 H 0.88696 0.94705 0.79062 0.0
H560 H 0.8592 0.14358 0.75752 0.0
H561 H 0.86898 0.12011 0.71024 0.0
H562 H 0.96535 0.97803 0.73179 0.0
C563 C 0.95562 0.03437 0.83581 0.0
C564 C 0.93346 0.07379 0.85274 0.0
C565 C 0.89823 0.11532 0.84242 0.0
C566 C 0.88658 0.11845 0.81523 0.0
C567 C 0.90972 0.07918 0.79892 0.0
C568 C 0.94275 0.0375 0.80888 0.0
C569 C 0.96246 1.00033 0.78729 0.0
C570 C 0.03005 0.99785 0.78666 0.0
C571 C 0.93577 0.94478 0.79012 0.0
C572 C 0.93641 0.02811 0.76354 0.0
C573 C 0.90644 0.07371 0.77057 0.0
C574 C 0.88167 0.10753 0.75179 0.0
C575 C 0.88752 0.09411 0.72512 0.0
C576 C 0.91712 0.04708 0.71775 0.0
C577 C 0.94158 0.01369 0.73715 0.0
H578 H 0.44352 0.44694 0.63937 0.0
H579 H 0.61442 0.52388 0.63915 0.0
H580 H 0.61043 0.53964 0.68694 0.0
H581 H 0.38053 0.53766 0.68734 0.0
H582 H 0.33901 0.48634 0.70251 0.0
H583 H 0.35517 0.48089 0.66813 0.0
H584 H 0.40346 0.38907 0.6761 0.0
H585 H 0.3877 0.3943 0.7105 0.0
H586 H 0.46217 0.38316 0.70063 0.0
H587 H 0.59056 0.54364 0.73456 0.0
H588 H 0.55298 0.53965 0.77955 0.0
H589 H 0.39236 0.46579 0.74879 0.0
C590 C 0.47978 0.46776 0.64926 0.0
C591 C 0.52957 0.48367 0.63549 0.0
C592 C 0.5764 0.5102 0.64932 0.0
C593 C 0.57436 0.51976 0.67644 0.0
C594 C 0.52491 0.50317 0.68937 0.0
C595 C 0.4782 0.4782 0.67628 0.0
C596 C 0.43023 0.4645 0.69495 0.0
C597 C 0.37284 0.49413 0.6878 0.0
C598 C 0.42034 0.40418 0.69557 0.0
C599 C 0.45769 0.48518 0.72063 0.0
C600 C 0.51244 0.50714 0.71691 0.0
C601 C 0.54755 0.52707 0.73773 0.0
C602 C 0.52607 0.52456 0.76309 0.0
C603 C 0.47001 0.50273 0.76723 0.0
C604 C 0.43517 0.48306 0.74583 0.0
H605 H 0.5556 0.49858 0.34251 0.0
H606 H 0.63485 0.34271 0.3495 0.0
H607 H 0.64879 0.33945 0.30135 0.0
H608 H 0.47685 0.47579 0.2826 0.0
H609 H 0.48951 0.54104 0.27 0.0
H610 H 0.4885 0.53139 0.30495 0.0
H611 H 0.59256 0.57299 0.31034 0.0
H612 H 0.59403 0.58248 0.27533 0.0
H613 H 0.65203 0.54566 0.29182 0.0
H614 H 0.64492 0.3503 0.25212 0.0
H615 H 0.62786 0.3764 0.20566 0.0
H616 H 0.5578 0.52754 0.23182 0.0
C617 C 0.576 0.4639 0.33382 0.0
C618 C 0.59383 0.4207 0.34937 0.0
C619 C 0.62101 0.3761 0.33765 0.0
C620 C 0.62912 0.37399 0.31045 0.0
C621 C 0.61077 0.41727 0.29555 0.0
C622 C 0.58536 0.46161 0.30688 0.0
C623 C 0.56863 0.50248 0.28657 0.0
C624 C 0.50192 0.51327 0.286 0.0
C625 C 0.60394 0.55394 0.2913 0.0
C626 C 0.58711 0.47367 0.26192 0.0
C627 C 0.61132 0.42456 0.26744 0.0
C628 C 0.6272 0.38908 0.24757 0.0
C629 C 0.6174 0.40408 0.22136 0.0
C630 C 0.59275 0.45422 0.2155 0.0
C631 C 0.5783 0.48961 0.23598 0.0
loop_
_geom_bond_atom_site_label_1
_geom_bond_atom_site_label_2
_geom_bond_distance
_geom_bond_site_symmetry_2
_ccdc_geom_bond_type
C0 O16 1.251 . S
C0 O18 1.254 1_554 S
N1 C2 1.333 1_445 S
N1 C6 1.307 . S
N1 Zn7 2.020 . S
C2 N1 1.333 1_665 S
C2 C3 1.379 . S
C2 H20 0.952 . S
C3 C2 1.379 . S
C3 C4 1.390 1_665 S
C3 H30 0.949 . S
C4 C3 1.390 1_445 S
C4 C5 1.357 . S
C5 C4 1.357 . S
C5 C6 1.370 . S
C5 H31 0.950 . S
C6 N1 1.307 . S
C6 C5 1.370 . S
C6 H24 0.948 . S
Zn7 N1 2.020 . S
Zn7 O16 2.039 1_445 S
Zn7 O22 2.034 1_455 S
Zn7 O26 2.025 . S
Zn7 O28 2.024 1_545 S
C8 O27 1.246 1_554 S
C8 O28 1.249 . S
N9 C10 1.307 1_445 S
N9 C11 1.333 . S
N9 Zn15 2.020 . S
C10 N9 1.307 1_665 S
C10 C14 1.370 . S
C10 H21 0.948 . S
C11 N9 1.333 . S
C11 C12 1.379 . S
C11 H19 0.952 . S
C12 C11 1.379 . S
C12 C13 1.390 . S
C12 H32 0.949 . S
C13 C12 1.390 . S
C13 C14 1.357 1_445 S
C14 C10 1.370 . S
C14 C13 1.357 1_665 S
C14 H33 0.950 . S
Zn15 N9 2.020 . S
Zn15 O18 2.025 1_445 S
Zn15 O23 2.024 1_455 S
Zn15 O25 2.039 . S
Zn15 O27 2.034 1_545 S
O16 C0 1.251 . S
O16 Zn7 2.039 1_665 S
C17 O22 1.246 . S
C17 O23 1.249 1_554 S
O18 C0 1.254 1_556 S
O18 Zn15 2.025 1_665 S
H19 C11 0.952 . S
H20 C2 0.952 . S
H21 C10 0.948 . S
O22 Zn7 2.034 1_655 S
O22 C17 1.246 . S
O23 Zn15 2.024 1_655 S
O23 C17 1.249 1_556 S
H24 C6 0.948 . S
O25 Zn15 2.039 . S
O25 C29 1.251 1_556 S
O26 Zn7 2.025 . S
O26 C29 1.254 . S
O27 C8 1.246 1_556 S
O27 Zn15 2.034 1_565 S
O28 Zn7 2.024 1_565 S
O28 C8 1.249 . S
C29 O25 1.251 1_554 S
C29 O26 1.254 . S
H30 C3 0.949 . S
H31 C5 0.950 . S
H32 C12 0.949 . S
H33 C14 0.950 . S
C34 O50 1.251 . S
C34 O52 1.254 . S
N35 C36 1.333 . S
N35 C40 1.307 . S
N35 Zn41 2.020 . S
C36 N35 1.333 . S
C36 C37 1.379 . S
C36 H54 0.952 . S
C37 C36 1.379 . S
C37 C38 1.390 . S
C37 H64 0.949 . S
C38 C37 1.390 . S
C38 C39 1.357 . S
C39 C38 1.357 . S
C39 C40 1.370 . S
C39 H65 0.950 . S
C40 N35 1.307 . S
C40 C39 1.370 . S
C40 H58 0.948 . S
Zn41 N35 2.020 . S
Zn41 O50 2.039 . S
Zn41 O56 2.034 . S
Zn41 O60 2.025 . S
Zn41 O62 2.024 . S
C42 O61 1.246 . S
C42 O62 1.249 . S
N43 C44 1.307 . S
N43 C45 1.333 . S
N43 Zn49 2.020 . S
C44 N43 1.307 . S
C44 C48 1.370 . S
C44 H55 0.948 . S
C45 N43 1.333 . S
C45 C46 1.379 . S
C45 H53 0.952 . S
C46 C45 1.379 . S
C46 C47 1.390 . S
C46 H66 0.949 . S
C47 C46 1.390 . S
C47 C48 1.357 . S
C48 C44 1.370 . S
C48 C47 1.357 . S
C48 H67 0.950 . S
Zn49 N43 2.020 . S
Zn49 O52 2.025 . S
Zn49 O57 2.024 . S
Zn49 O59 2.039 . S
Zn49 O61 2.034 . S
O50 C34 1.251 . S
O50 Zn41 2.039 . S
C51 O56 1.246 . S
C51 O57 1.249 . S
O52 C34 1.254 . S
O52 Zn49 2.025 . S
H53 C45 0.952 . S
H54 C36 0.952 . S
H55 C44 0.948 . S
O56 Zn41 2.034 . S
O56 C51 1.246 . S
O57 Zn49 2.024 . S
O57 C51 1.249 . S
H58 C40 0.948 . S
O59 Zn49 2.039 . S
O59 C63 1.251 . S
O60 Zn41 2.025 . S
O60 C63 1.254 . S
O61 C42 1.246 . S
O61 Zn49 2.034 . S
O62 Zn41 2.024 . S
O62 C42 1.249 . S
C63 O59 1.251 . S
C63 O60 1.254 . S
H64 C37 0.949 . S
H65 C39 0.950 . S
H66 C46 0.949 . S
H67 C48 0.950 . S
C68 C69 1.391 . S
C68 C72 1.391 . S
C68 H110 0.948 . S
C69 C68 1.391 . S
C69 C70 1.391 . S
C70 C69 1.391 . S
C70 H126 0.947 . S
C70 C127 1.392 . S
C71 C72 1.391 . S
C71 C75 1.397 . S
C71 C127 1.419 . S
C72 C68 1.391 . S
C72 C71 1.391 . S
C72 C73 1.399 . S
C73 C72 1.399 . S
C73 C76 1.396 . S
C73 C85 1.453 1_565 S
C73 C86 1.684 1_455 S
H74 C98 0.948 . S
C75 C71 1.397 . S
C75 C76 1.394 . S
C75 C94 1.723 . S
C76 C73 1.396 . S
C76 C75 1.394 . S
C76 C106 1.723 1_465 S
H77 C100 0.947 . S
H78 C101 0.948 . S
H79 C107 0.982 . S
H80 C108 0.979 . S
H81 C108 0.980 . S
H82 C108 0.983 . S
H83 C107 0.979 . S
H84 C107 0.977 . S
C85 C73 1.453 1_545 S
C85 H114 0.982 . S
C85 H115 0.979 1_545 S
C85 H116 0.977 . S
C86 C73 1.684 1_655 S
C86 H111 0.979 . S
C86 H112 0.980 . S
C86 H113 0.983 1_655 S
C87 C88 1.391 1_465 S
C87 C92 1.391 . S
C87 H117 0.948 . S
C88 C87 1.391 1_645 S
C88 C89 1.391 . S
C89 C88 1.391 . S
C89 C90 1.392 . S
C89 H118 0.947 . S
C90 C89 1.392 . S
C90 C91 1.419 . S
C90 H119 0.948 . S
C91 C90 1.419 . S
C91 C92 1.391 1_645 S
C91 C95 1.397 . S
C92 C87 1.391 . S
C92 C91 1.391 1_465 S
C92 C93 1.399 . S
C93 C92 1.399 . S
C93 C94 1.396 . S
C93 C96 1.453 . S
C93 C97 1.684 . S
C94 C75 1.723 . S
C94 C93 1.396 . S
C94 C95 1.394 1_465 S
C95 C91 1.397 . S
C95 C94 1.394 1_645 S
C95 C105 1.723 . S
C96 C93 1.453 . S
C96 H120 0.982 . S
C96 H121 0.979 . S
C96 H122 0.977 . S
C97 C93 1.684 . S
C97 H123 0.979 . S
C97 H124 0.980 . S
C97 H125 0.983 . S
C98 H74 0.948 . S
C98 C99 1.391 . S
C98 C103 1.391 . S
C99 C98 1.391 . S
C99 C100 1.391 . S
C100 H77 0.947 . S
C100 C99 1.391 . S
C100 C101 1.392 . S
C101 H78 0.948 . S
C101 C100 1.392 . S
C101 C102 1.419 . S
C102 C101 1.419 . S
C102 C103 1.391 . S
C102 C106 1.397 . S
C103 C98 1.391 . S
C103 C102 1.391 . S
C103 C104 1.399 . S
C104 C103 1.399 . S
C104 C105 1.396 . S
C104 C107 1.453 . S
C104 C108 1.684 . S
C105 C95 1.723 . S
C105 C104 1.396 . S
C105 C106 1.394 . S
C106 C76 1.723 1_645 S
C106 C102 1.397 . S
C106 C105 1.394 . S
C107 H79 0.982 . S
C107 H83 0.979 . S
C107 H84 0.977 . S
C107 C104 1.453 . S
C108 H80 0.979 . S
C108 H81 0.980 . S
C108 H82 0.983 . S
C108 C104 1.684 . S
H109 C127 0.948 . S
H110 C68 0.948 . S
H111 C86 0.979 . S
H112 C86 0.980 . S
H113 C86 0.983 1_455 S
H114 C85 0.982 . S
H115 C85 0.979 1_565 S
H116 C85 0.977 . S
H117 C87 0.948 . S
H118 C89 0.947 . S
H119 C90 0.948 . S
H120 C96 0.982 . S
H121 C96 0.979 . S
H122 C96 0.977 . S
H123 C97 0.979 . S
H124 C97 0.980 . S
H125 C97 0.983 . S
H126 C70 0.947 . S
C127 C70 1.392 . S
C127 C71 1.419 . S
C127 H109 0.948 . S
C128 C129 1.391 . S
C128 C132 1.391 . S
C128 H170 0.948 . S
C129 C128 1.391 . S
C129 C130 1.391 . S
C130 C129 1.391 . S
C130 H186 0.947 . S
C130 C187 1.392 . S
C131 C132 1.391 . S
C131 C135 1.397 . S
C131 C187 1.419 . S
C132 C128 1.391 . S
C132 C131 1.391 . S
C132 C133 1.399 . S
C133 C132 1.399 . S
C133 C136 1.396 . S
C133 C145 1.453 . S
C133 C146 1.676 1_455 S
H134 C158 0.948 . S
C135 C131 1.397 . S
C135 C136 1.394 . S
C135 C154 1.723 . S
C136 C133 1.396 . S
C136 C135 1.394 . S
C136 C166 1.723 1_445 S
H137 C160 0.947 . S
H138 C161 0.948 . S
H139 C167 0.982 . S
H140 C168 0.979 . S
H141 C168 0.980 . S
H142 C168 0.983 . S
H143 C167 0.979 . S
H144 C167 0.977 . S
C145 C133 1.453 . S
C145 H174 0.982 1_545 S
C145 H175 0.979 . S
C145 H176 0.977 1_545 S
C146 C133 1.676 1_655 S
C146 H171 0.987 . S
C146 H172 0.987 . S
C146 H173 0.976 1_655 S
C147 C148 1.391 . S
C147 C152 1.391 . S
C147 H177 0.948 . S
C148 C147 1.391 . S
C148 C149 1.391 1_445 S
C149 C148 1.391 1_665 S
C149 C150 1.392 . S
C149 H178 0.947 . S
C150 C149 1.392 . S
C150 C151 1.419 1_655 S
C150 H179 0.948 . S
C151 C150 1.419 1_455 S
C151 C152 1.391 1_565 S
C151 C155 1.396 1_565 S
C152 C147 1.391 . S
C152 C151 1.391 1_545 S
C152 C153 1.399 . S
C153 C152 1.399 . S
C153 C154 1.396 . S
C153 C156 1.453 . S
C153 C157 1.684 . S
C154 C135 1.723 . S
C154 C153 1.396 . S
C154 C155 1.409 . S
C155 C151 1.396 1_545 S
C155 C154 1.409 . S
C155 C165 1.711 1_445 S
C156 C153 1.453 . S
C156 H180 0.982 . S
C156 H181 0.979 . S
C156 H182 0.977 . S
C157 C153 1.684 . S
C157 H183 0.979 . S
C157 H184 0.980 . S
C157 H185 0.983 . S
C158 H134 0.948 . S
C158 C159 1.391 . S
C158 C163 1.391 . S
C159 C158 1.391 . S
C159 C160 1.391 . S
C160 H137 0.947 . S
C160 C159 1.391 . S
C160 C161 1.392 . S
C161 H138 0.948 . S
C161 C160 1.392 . S
C161 C162 1.419 . S
C162 C161 1.419 . S
C162 C163 1.391 . S
C162 C166 1.397 . S
C163 C158 1.391 . S
C163 C162 1.391 . S
C163 C164 1.399 . S
C164 C163 1.399 . S
C164 C165 1.396 . S
C164 C167 1.453 . S
C164 C168 1.684 . S
C165 C155 1.711 1_665 S
C165 C164 1.396 . S
C165 C166 1.394 . S
C166 C136 1.723 1_665 S
C166 C162 1.397 . S
C166 C165 1.394 . S
C167 H139 0.982 . S
C167 H143 0.979 . S
C167 H144 0.977 . S
C167 C164 1.453 . S
C168 H140 0.979 . S
C168 H141 0.980 . S
C168 H142 0.983 . S
C168 C164 1.684 . S
H169 C187 0.948 . S
H170 C128 0.948 . S
H171 C146 0.987 . S
H172 C146 0.987 . S
H173 C146 0.976 1_455 S
H174 C145 0.982 1_565 S
H175 C145 0.979 . S
H176 C145 0.977 1_565 S
H177 C147 0.948 . S
H178 C149 0.947 . S
H179 C150 0.948 . S
H180 C156 0.982 . S
H181 C156 0.979 . S
H182 C156 0.977 . S
H183 C157 0.979 . S
H184 C157 0.980 . S
H185 C157 0.983 . S
H186 C130 0.947 . S
C187 C130 1.392 . S
C187 C131 1.419 . S
C187 H169 0.948 . S
C188 C189 1.389 1_554 S
C188 C192 1.389 1_554 S
C188 H230 0.952 . S
C189 C188 1.389 1_556 S
C189 C190 1.391 . S
C190 C189 1.391 . S
C190 H246 0.947 . S
C190 C247 1.392 . S
C191 C192 1.391 . S
C191 C195 1.397 . S
C191 C247 1.419 . S
C192 C188 1.389 1_556 S
C192 C191 1.391 . S
C192 C193 1.399 . S
C193 C192 1.399 . S
C193 C196 1.396 . S
C193 C205 1.453 1_556 S
C193 C206 1.684 1_556 S
H194 C218 0.948 . S
C195 C191 1.397 . S
C195 C196 1.394 . S
C195 C214 1.723 . S
C196 C193 1.396 . S
C196 C195 1.394 . S
C196 C226 1.723 . S
H197 C220 0.947 . S
H198 C221 0.937 1_554 S
H199 C227 0.982 . S
H200 C228 0.979 . S
H201 C228 0.980 . S
H202 C228 0.983 . S
H203 C227 0.979 . S
H204 C227 0.977 . S
C205 C193 1.453 1_554 S
C205 H234 0.993 . S
C205 H235 0.979 . S
C205 H236 0.977 . S
C206 C193 1.684 1_554 S
C206 H231 0.979 . S
C206 H232 0.980 . S
C206 H233 0.983 . S
C207 C208 1.391 . S
C207 C212 1.391 . S
C207 H237 0.948 . S
C208 C207 1.391 . S
C208 C209 1.391 . S
C209 C208 1.391 . S
C209 C210 1.392 . S
C209 H238 0.947 . S
C210 C209 1.392 . S
C210 C211 1.419 . S
C210 H239 0.948 . S
C211 C210 1.419 . S
C211 C212 1.391 . S
C211 C215 1.397 . S
C212 C207 1.391 . S
C212 C211 1.391 . S
C212 C213 1.399 . S
C213 C212 1.399 . S
C213 C214 1.396 . S
C213 C216 1.453 . S
C213 C217 1.684 . S
C214 C195 1.723 . S
C214 C213 1.396 . S
C214 C215 1.394 . S
C215 C211 1.397 . S
C215 C214 1.394 . S
C215 C225 1.723 . S
C216 C213 1.453 . S
C216 H240 0.982 . S
C216 H241 0.979 . S
C216 H242 0.977 . S
C217 C213 1.684 . S
C217 H243 0.979 . S
C217 H244 0.980 . S
C217 H245 0.983 . S
C218 H194 0.948 . S
C218 C219 1.391 . S
C218 C223 1.391 . S
C219 C218 1.391 . S
C219 C220 1.391 1_556 S
C220 H197 0.947 . S
C220 C219 1.391 1_554 S
C220 C221 1.383 1_554 S
C221 H198 0.937 1_556 S
C221 C220 1.383 1_556 S
C221 C222 1.439 . S
C222 C221 1.439 . S
C222 C223 1.391 . S
C222 C226 1.397 . S
C223 C218 1.391 . S
C223 C222 1.391 . S
C223 C224 1.399 . S
C224 C223 1.399 . S
C224 C225 1.396 . S
C224 C227 1.453 . S
C224 C228 1.684 . S
C225 C215 1.723 . S
C225 C224 1.396 . S
C225 C226 1.394 . S
C226 C196 1.723 . S
C226 C222 1.397 . S
C226 C225 1.394 . S
C227 H199 0.982 . S
C227 H203 0.979 . S
C227 H204 0.977 . S
C227 C224 1.453 . S
C228 H200 0.979 . S
C228 H201 0.980 . S
C228 H202 0.983 . S
C228 C224 1.684 . S
H229 C247 0.948 . S
H230 C188 0.952 . S
H231 C206 0.979 . S
H232 C206 0.980 . S
H233 C206 0.983 . S
H234 C205 0.993 . S
H235 C205 0.979 . S
H236 C205 0.977 . S
H237 C207 0.948 . S
H238 C209 0.947 . S
H239 C210 0.948 . S
H240 C216 0.982 . S
H241 C216 0.979 . S
H242 C216 0.977 . S
H243 C217 0.979 . S
H244 C217 0.980 . S
H245 C217 0.983 . S
H246 C190 0.947 . S
C247 C190 1.392 . S
C247 C191 1.419 . S
C247 H229 0.948 . S
C248 C249 1.391 . S
C248 C252 1.391 . S
C248 H290 0.948 1_554 S
C249 C248 1.391 . S
C249 C250 1.391 . S
C250 C249 1.391 . S
C250 H306 0.947 . S
C250 C307 1.392 . S
C251 C252 1.391 . S
C251 C255 1.397 . S
C251 C307 1.419 . S
C252 C248 1.391 . S
C252 C251 1.391 . S
C252 C253 1.399 . S
C253 C252 1.399 . S
C253 C256 1.396 . S
C253 C265 1.453 1_554 S
C253 C266 1.684 1_554 S
H254 C278 0.948 . S
C255 C251 1.397 . S
C255 C256 1.394 . S
C255 C274 1.723 . S
C256 C253 1.396 . S
C256 C255 1.394 . S
C256 C286 1.723 . S
H257 C280 0.947 . S
H258 C281 0.948 1_556 S
H259 C287 0.982 . S
H260 C288 0.979 . S
H261 C288 0.980 . S
H262 C288 0.983 . S
H263 C287 0.979 . S
H264 C287 0.977 . S
C265 C253 1.453 1_556 S
C265 H294 0.982 1_556 S
C265 H295 0.979 . S
C265 H296 0.977 . S
C266 C253 1.684 1_556 S
C266 H291 0.979 . S
C266 H292 0.980 . S
C266 H293 0.983 . S
C267 C268 1.391 . S
C267 C272 1.391 . S
C267 H297 0.948 . S
C268 C267 1.391 . S
C268 C269 1.391 . S
C269 C268 1.391 . S
C269 C270 1.392 . S
C269 H298 0.947 . S
C270 C269 1.392 . S
C270 C271 1.419 . S
C270 H299 0.948 . S
C271 C270 1.419 . S
C271 C272 1.391 . S
C271 C275 1.397 . S
C272 C267 1.391 . S
C272 C271 1.391 . S
C272 C273 1.399 . S
C273 C272 1.399 . S
C273 C274 1.396 . S
C273 C276 1.453 . S
C273 C277 1.684 . S
C274 C255 1.723 . S
C274 C273 1.396 . S
C274 C275 1.394 . S
C275 C271 1.397 . S
C275 C274 1.394 . S
C275 C285 1.723 . S
C276 C273 1.453 . S
C276 H300 0.982 . S
C276 H301 0.979 . S
C276 H302 0.977 . S
C277 C273 1.684 . S
C277 H303 0.979 . S
C277 H304 0.980 . S
C277 H305 0.983 . S
C278 H254 0.948 . S
C278 C279 1.391 . S
C278 C283 1.391 . S
C279 C278 1.391 . S
C279 C280 1.391 1_554 S
C280 H257 0.947 . S
C280 C279 1.391 1_556 S
C280 C281 1.392 1_556 S
C281 H258 0.948 1_554 S
C281 C280 1.392 1_554 S
C281 C282 1.419 . S
C282 C281 1.419 . S
C282 C283 1.391 . S
C282 C286 1.397 . S
C283 C278 1.391 . S
C283 C282 1.391 . S
C283 C284 1.399 . S
C284 C283 1.399 . S
C284 C285 1.396 . S
C284 C287 1.453 . S
C284 C288 1.684 . S
C285 C275 1.723 . S
C285 C284 1.396 . S
C285 C286 1.394 . S
C286 C256 1.723 . S
C286 C282 1.397 . S
C286 C285 1.394 . S
C287 H259 0.982 . S
C287 H263 0.979 . S
C287 H264 0.977 . S
C287 C284 1.453 . S
C288 H260 0.979 . S
C288 H261 0.980 . S
C288 H262 0.983 . S
C288 C284 1.684 . S
H289 C307 0.948 . S
H290 C248 0.948 1_556 S
H291 C266 0.979 . S
H292 C266 0.980 . S
H293 C266 0.983 . S
H294 C265 0.982 1_554 S
H295 C265 0.979 . S
H296 C265 0.977 . S
H297 C267 0.948 . S
H298 C269 0.947 . S
H299 C270 0.948 . S
H300 C276 0.982 . S
H301 C276 0.979 . S
H302 C276 0.977 . S
H303 C277 0.979 . S
H304 C277 0.980 . S
H305 C277 0.983 . S
H306 C250 0.947 . S
C307 C250 1.392 . S
C307 C251 1.419 . S
C307 H289 0.948 . S
H308 C320 0.930 . S
H309 C322 0.930 . S
H310 C323 0.930 . S
H311 C327 0.959 . S
H312 C327 0.959 . S
H313 C327 0.961 . S
H314 C328 0.960 . S
H315 C328 0.961 . S
H316 C328 0.959 . S
H317 C331 0.929 . S
H318 C332 0.931 . S
H319 C334 0.930 . S
C320 H308 0.930 . S
C320 C321 1.399 1_556 S
C320 C325 1.399 . S
C321 C320 1.399 1_554 S
C321 C322 1.376 . S
C322 H309 0.930 . S
C322 C321 1.376 . S
C322 C323 1.388 . S
C323 H310 0.930 . S
C323 C322 1.388 . S
C323 C324 1.390 . S
C324 C323 1.390 . S
C324 C325 1.394 1_554 S
C324 C330 1.465 . S
C325 C320 1.399 . S
C325 C324 1.394 1_556 S
C325 C326 1.516 . S
C326 C325 1.516 . S
C326 C327 1.502 . S
C326 C328 1.561 . S
C326 C329 1.526 . S
C327 H311 0.959 . S
C327 H312 0.959 . S
C327 H313 0.961 . S
C327 C326 1.502 . S
C328 H314 0.960 . S
C328 H315 0.961 . S
C328 H316 0.959 . S
C328 C326 1.561 . S
C329 C326 1.526 . S
C329 C330 1.396 1_556 S
C329 C334 1.390 . S
C330 C324 1.465 . S
C330 C329 1.396 1_554 S
C330 C331 1.399 . S
C331 H317 0.929 . S
C331 C330 1.399 . S
C331 C332 1.385 . S
C332 H318 0.931 . S
C332 C331 1.385 . S
C332 C333 1.389 . S
C333 C332 1.389 . S
C333 C334 1.387 1_554 S
C334 H319 0.930 . S
C334 C329 1.390 . S
C334 C333 1.387 1_556 S
H335 C347 0.930 . S
H336 C349 0.930 . S
H337 C350 0.930 . S
H338 C354 0.959 . S
H339 C354 0.959 . S
H340 C354 0.961 . S
H341 C355 0.960 . S
H342 C355 0.961 . S
H343 C355 0.959 . S
H344 C358 0.929 . S
H345 C359 0.931 . S
H346 C361 0.930 . S
C347 H335 0.930 . S
C347 C348 1.380 1_554 S
C347 C352 1.399 . S
C348 C347 1.380 1_556 S
C348 C349 1.402 . S
C349 H336 0.930 . S
C349 C348 1.402 . S
C349 C350 1.388 . S
C350 H337 0.930 . S
C350 C349 1.388 . S
C350 C351 1.390 . S
C351 C350 1.390 . S
C351 C352 1.394 1_556 S
C351 C357 1.465 . S
C352 C347 1.399 . S
C352 C351 1.394 1_554 S
C352 C353 1.516 . S
C353 C352 1.516 . S
C353 C354 1.502 . S
C353 C355 1.561 . S
C353 C356 1.526 . S
C354 H338 0.959 . S
C354 H339 0.959 . S
C354 H340 0.961 . S
C354 C353 1.502 . S
C355 H341 0.960 . S
C355 H342 0.961 . S
C355 H343 0.959 . S
C355 C353 1.561 . S
C356 C353 1.526 . S
C356 C357 1.396 1_554 S
C356 C361 1.390 . S
C357 C351 1.465 . S
C357 C356 1.396 1_556 S
C357 C358 1.399 . S
C358 H344 0.929 . S
C358 C357 1.399 . S
C358 C359 1.385 . S
C359 H345 0.931 . S
C359 C358 1.385 . S
C359 C360 1.389 . S
C360 C359 1.389 . S
C360 C361 1.387 1_556 S
C361 H346 0.930 . S
C361 C356 1.390 . S
C361 C360 1.387 1_554 S
H362 C374 0.930 . S
H363 C376 0.930 . S
H364 C377 0.930 . S
H365 C381 0.959 . S
H366 C381 0.959 . S
H367 C381 0.961 . S
H368 C382 0.960 . S
H369 C382 0.961 . S
H370 C382 0.959 . S
H371 C385 0.929 . S
H372 C386 0.931 . S
H373 C388 0.930 . S
C374 H362 0.930 . S
C374 C375 1.399 1_556 S
C374 C379 1.399 . S
C375 C374 1.399 1_554 S
C375 C376 1.376 . S
C376 H363 0.930 . S
C376 C375 1.376 . S
C376 C377 1.388 . S
C377 H364 0.930 . S
C377 C376 1.388 . S
C377 C378 1.390 . S
C378 C377 1.390 . S
C378 C379 1.394 1_554 S
C378 C384 1.465 . S
C379 C374 1.399 . S
C379 C378 1.394 1_556 S
C379 C380 1.516 . S
C380 C379 1.516 . S
C380 C381 1.502 . S
C380 C382 1.561 . S
C380 C383 1.526 . S
C381 H365 0.959 . S
C381 H366 0.959 . S
C381 H367 0.961 . S
C381 C380 1.502 . S
C382 H368 0.960 . S
C382 H369 0.961 . S
C382 H370 0.959 . S
C382 C380 1.561 . S
C383 C380 1.526 . S
C383 C384 1.396 1_556 S
C383 C388 1.390 . S
C384 C378 1.465 . S
C384 C383 1.396 1_554 S
C384 C385 1.399 . S
C385 H371 0.929 . S
C385 C384 1.399 . S
C385 C386 1.385 . S
C386 H372 0.931 . S
C386 C385 1.385 . S
C386 C387 1.389 . S
C387 C386 1.389 . S
C387 C388 1.387 1_554 S
C388 H373 0.930 . S
C388 C383 1.390 . S
C388 C387 1.387 1_556 S
H389 C401 0.930 . S
H390 C403 0.930 . S
H391 C404 0.930 . S
H392 C408 0.959 . S
H393 C408 0.959 . S
H394 C408 0.961 . S
H395 C409 0.960 . S
H396 C409 0.961 . S
H397 C409 0.959 . S
H398 C412 0.929 . S
H399 C413 0.931 . S
H400 C415 0.930 . S
C401 H389 0.930 . S
C401 C402 1.417 . S
C401 C406 1.399 . S
C402 C401 1.417 . S
C402 C403 1.355 1_554 S
C403 H390 0.930 . S
C403 C402 1.355 1_556 S
C403 C404 1.388 . S
C404 H391 0.930 . S
C404 C403 1.388 . S
C404 C405 1.390 . S
C405 C404 1.390 . S
C405 C406 1.394 1_556 S
C405 C411 1.465 . S
C406 C401 1.399 . S
C406 C405 1.394 1_554 S
C406 C407 1.516 . S
C407 C406 1.516 . S
C407 C408 1.502 . S
C407 C409 1.561 . S
C407 C410 1.526 . S
C408 H392 0.959 . S
C408 H393 0.959 . S
C408 H394 0.961 . S
C408 C407 1.502 . S
C409 H395 0.960 . S
C409 H396 0.961 . S
C409 H397 0.959 . S
C409 C407 1.561 . S
C410 C407 1.526 . S
C410 C411 1.396 1_554 S
C410 C415 1.390 . S
C411 C405 1.465 . S
C411 C410 1.396 1_556 S
C411 C412 1.399 . S
C412 H398 0.929 . S
C412 C411 1.399 . S
C412 C413 1.385 . S
C413 H399 0.931 . S
C413 C412 1.385 . S
C413 C414 1.389 . S
C414 C413 1.389 . S
C414 C415 1.387 1_556 S
C415 H400 0.930 . S
C415 C410 1.390 . S
C415 C414 1.387 1_554 S
H416 C428 0.930 . S
H417 C430 0.930 . S
H418 C431 0.930 . S
H419 C435 0.959 . S
H420 C435 0.959 . S
H421 C435 0.961 . S
H422 C436 0.960 . S
H423 C436 0.961 . S
H424 C436 0.959 . S
H425 C439 0.929 . S
H426 C440 0.931 . S
H427 C442 0.930 . S
C428 H416 0.930 . S
C428 C429 1.399 . S
C428 C433 1.399 . S
C429 C428 1.399 . S
C429 C430 1.376 . S
C430 H417 0.930 . S
C430 C429 1.376 . S
C430 C431 1.388 . S
C431 H418 0.930 . S
C431 C430 1.388 . S
C431 C432 1.390 . S
C432 C431 1.390 . S
C432 C433 1.394 . S
C432 C438 1.465 . S
C433 C428 1.399 . S
C433 C432 1.394 . S
C433 C434 1.516 . S
C434 C433 1.516 . S
C434 C435 1.502 . S
C434 C436 1.561 . S
C434 C437 1.526 . S
C435 H419 0.959 . S
C435 H420 0.959 . S
C435 H421 0.961 . S
C435 C434 1.502 . S
C436 H422 0.960 . S
C436 H423 0.961 . S
C436 H424 0.959 . S
C436 C434 1.561 . S
C437 C434 1.526 . S
C437 C438 1.396 . S
C437 C442 1.390 . S
C438 C432 1.465 . S
C438 C437 1.396 . S
C438 C439 1.399 . S
C439 H425 0.929 . S
C439 C438 1.399 . S
C439 C440 1.385 . S
C440 H426 0.931 . S
C440 C439 1.385 . S
C440 C441 1.389 . S
C441 C440 1.389 . S
C441 C442 1.387 . S
C442 H427 0.930 . S
C442 C437 1.390 . S
C442 C441 1.387 . S
H443 C455 0.930 . S
H444 C457 0.930 . S
H445 C458 0.930 . S
H446 C462 0.959 . S
H447 C462 0.959 . S
H448 C462 0.961 . S
H449 C463 0.960 . S
H450 C463 0.961 . S
H451 C463 0.959 . S
H452 C466 0.929 . S
H453 C467 0.931 . S
H454 C469 0.930 . S
C455 H443 0.930 . S
C455 C456 1.399 . S
C455 C460 1.399 . S
C456 C455 1.399 . S
C456 C457 1.376 . S
C457 H444 0.930 . S
C457 C456 1.376 . S
C457 C458 1.388 . S
C458 H445 0.930 . S
C458 C457 1.388 . S
C458 C459 1.390 . S
C459 C458 1.390 . S
C459 C460 1.394 . S
C459 C465 1.465 . S
C460 C455 1.399 . S
C460 C459 1.394 . S
C460 C461 1.516 . S
C461 C460 1.516 . S
C461 C462 1.502 . S
C461 C463 1.561 . S
C461 C464 1.526 . S
C462 H446 0.959 . S
C462 H447 0.959 . S
C462 H448 0.961 . S
C462 C461 1.502 . S
C463 H449 0.960 . S
C463 H450 0.961 . S
C463 H451 0.959 . S
C463 C461 1.561 . S
C464 C461 1.526 . S
C464 C465 1.396 . S
C464 C469 1.390 . S
C465 C459 1.465 . S
C465 C464 1.396 . S
C465 C466 1.399 . S
C466 H452 0.929 . S
C466 C465 1.399 . S
C466 C467 1.385 . S
C467 H453 0.931 . S
C467 C466 1.385 . S
C467 C468 1.389 . S
C468 C467 1.389 . S
C468 C469 1.387 . S
C469 H454 0.930 . S
C469 C464 1.390 . S
C469 C468 1.387 . S
H470 C482 0.930 . S
H471 C484 0.930 . S
H472 C485 0.930 . S
H473 C489 0.959 . S
H474 C489 0.959 . S
H475 C489 0.961 . S
H476 C490 0.960 . S
H477 C490 0.961 . S
H478 C490 0.959 . S
H479 C493 0.929 . S
H480 C494 0.931 . S
H481 C496 0.930 . S
C482 H470 0.930 . S
C482 C483 1.399 . S
C482 C487 1.399 . S
C483 C482 1.399 . S
C483 C484 1.376 . S
C484 H471 0.930 . S
C484 C483 1.376 . S
C484 C485 1.388 . S
C485 H472 0.930 . S
C485 C484 1.388 . S
C485 C486 1.390 . S
C486 C485 1.390 . S
C486 C487 1.394 . S
C486 C492 1.465 . S
C487 C482 1.399 . S
C487 C486 1.394 . S
C487 C488 1.516 . S
C488 C487 1.516 . S
C488 C489 1.502 . S
C488 C490 1.561 . S
C488 C491 1.526 . S
C489 H473 0.959 . S
C489 H474 0.959 . S
C489 H475 0.961 . S
C489 C488 1.502 . S
C490 H476 0.960 . S
C490 H477 0.961 . S
C490 H478 0.959 . S
C490 C488 1.561 . S
C491 C488 1.526 . S
C491 C492 1.396 . S
C491 C496 1.390 . S
C492 C486 1.465 . S
C492 C491 1.396 . S
C492 C493 1.399 . S
C493 H479 0.929 . S
C493 C492 1.399 . S
C493 C494 1.385 . S
C494 H480 0.931 . S
C494 C493 1.385 . S
C494 C495 1.389 . S
C495 C494 1.389 . S
C495 C496 1.387 . S
C496 H481 0.930 . S
C496 C491 1.390 . S
C496 C495 1.387 . S
H497 C509 0.930 . S
H498 C511 0.930 . S
H499 C512 0.930 . S
H500 C516 0.959 . S
H501 C516 0.959 . S
H502 C516 0.961 . S
H503 C517 0.960 . S
H504 C517 0.961 . S
H505 C517 0.959 . S
H506 C520 0.929 . S
H507 C521 0.931 . S
H508 C523 0.930 . S
C509 H497 0.930 . S
C509 C510 1.399 . S
C509 C514 1.399 . S
C510 C509 1.399 . S
C510 C511 1.376 . S
C511 H498 0.930 . S
C511 C510 1.376 . S
C511 C512 1.388 . S
C512 H499 0.930 . S
C512 C511 1.388 . S
C512 C513 1.390 . S
C513 C512 1.390 . S
C513 C514 1.394 . S
C513 C519 1.465 . S
C514 C509 1.399 . S
C514 C513 1.394 . S
C514 C515 1.516 . S
C515 C514 1.516 . S
C515 C516 1.502 . S
C515 C517 1.561 . S
C515 C518 1.526 . S
C516 H500 0.959 . S
C516 H501 0.959 . S
C516 H502 0.961 . S
C516 C515 1.502 . S
C517 H503 0.960 . S
C517 H504 0.961 . S
C517 H505 0.959 . S
C517 C515 1.561 . S
C518 C515 1.526 . S
C518 C519 1.396 . S
C518 C523 1.390 . S
C519 C513 1.465 . S
C519 C518 1.396 . S
C519 C520 1.399 . S
C520 H506 0.929 . S
C520 C519 1.399 . S
C520 C521 1.385 . S
C521 H507 0.931 . S
C521 C520 1.385 . S
C521 C522 1.389 . S
C522 C521 1.389 . S
C522 C523 1.387 . S
C523 H508 0.930 . S
C523 C518 1.390 . S
C523 C522 1.387 . S
H524 C536 0.930 . S
H525 C538 0.930 . S
H526 C539 0.930 . S
H527 C543 0.959 . S
H528 C543 0.959 . S
H529 C543 0.961 . S
H530 C544 0.960 . S
H531 C544 0.961 . S
H532 C544 0.959 . S
H533 C547 0.929 . S
H534 C548 0.931 . S
H535 C550 0.930 . S
C536 H524 0.930 . S
C536 C537 1.399 1_665 S
C536 C541 1.399 . S
C537 C536 1.399 1_445 S
C537 C538 1.376 . S
C538 H525 0.930 . S
C538 C537 1.376 . S
C538 C539 1.388 . S
C539 H526 0.930 . S
C539 C538 1.388 . S
C539 C540 1.390 . S
C540 C539 1.390 . S
C540 C541 1.394 1_445 S
C540 C546 1.465 . S
C541 C536 1.399 . S
C541 C540 1.394 1_665 S
C541 C542 1.516 . S
C542 C541 1.516 . S
C542 C543 1.502 . S
C542 C544 1.561 1_655 S
C542 C545 1.526 . S
C543 H527 0.959 . S
C543 H528 0.959 . S
C543 H529 0.961 . S
C543 C542 1.502 . S
C544 H530 0.960 . S
C544 H531 0.961 . S
C544 H532 0.959 . S
C544 C542 1.561 1_455 S
C545 C542 1.526 . S
C545 C546 1.396 1_665 S
C545 C550 1.390 . S
C546 C540 1.465 . S
C546 C545 1.396 1_445 S
C546 C547 1.399 . S
C547 H533 0.929 . S
C547 C546 1.399 . S
C547 C548 1.385 . S
C548 H534 0.931 . S
C548 C547 1.385 . S
C548 C549 1.389 . S
C549 C548 1.389 . S
C549 C550 1.387 1_445 S
C550 H535 0.930 . S
C550 C545 1.390 . S
C550 C549 1.387 1_665 S
H551 C563 0.930 . S
H552 C565 0.930 . S
H553 C566 0.930 . S
H554 C570 0.959 . S
H555 C570 0.959 . S
H556 C570 0.961 . S
H557 C571 0.960 . S
H558 C571 0.961 . S
H559 C571 0.959 1_655 S
H560 C574 0.929 . S
H561 C575 0.931 . S
H562 C577 0.930 . S
C563 H551 0.930 . S
C563 C564 1.399 1_565 S
C563 C568 1.399 . S
C564 C563 1.399 1_545 S
C564 C565 1.376 1_455 S
C565 H552 0.930 . S
C565 C564 1.376 1_655 S
C565 C566 1.388 . S
C566 H553 0.930 . S
C566 C565 1.388 . S
C566 C567 1.390 . S
C567 C566 1.390 . S
C567 C568 1.394 1_645 S
C567 C573 1.465 . S
C568 C563 1.399 . S
C568 C567 1.394 1_465 S
C568 C569 1.516 . S
C569 C568 1.516 . S
C569 C570 1.502 . S
C569 C571 1.561 . S
C569 C572 1.526 . S
C570 H554 0.959 . S
C570 H555 0.959 . S
C570 H556 0.961 . S
C570 C569 1.502 . S
C571 H557 0.960 . S
C571 H558 0.961 . S
C571 H559 0.959 1_455 S
C571 C569 1.561 . S
C572 C569 1.526 . S
C572 C573 1.396 1_465 S
C572 C577 1.390 . S
C573 C567 1.465 . S
C573 C572 1.396 1_645 S
C573 C574 1.399 . S
C574 H560 0.929 . S
C574 C573 1.399 . S
C574 C575 1.385 . S
C575 H561 0.931 . S
C575 C574 1.385 . S
C575 C576 1.389 1_655 S
C576 C575 1.389 1_455 S
C576 C577 1.387 1_545 S
C577 H562 0.930 . S
C577 C572 1.390 . S
C577 C576 1.387 1_565 S
H578 C590 0.930 . S
H579 C592 0.930 . S
H580 C593 0.930 . S
H581 C597 0.959 . S
H582 C597 0.959 . S
H583 C597 0.961 . S
H584 C598 0.960 . S
H585 C598 0.961 . S
H586 C598 0.959 . S
H587 C601 0.929 . S
H588 C602 0.931 . S
H589 C604 0.930 . S
C590 H578 0.930 . S
C590 C591 1.399 . S
C590 C595 1.399 . S
C591 C590 1.399 . S
C591 C592 1.376 . S
C592 H579 0.930 . S
C592 C591 1.376 . S
C592 C593 1.388 . S
C593 H580 0.930 . S
C593 C592 1.388 . S
C593 C594 1.390 . S
C594 C593 1.390 . S
C594 C595 1.394 . S
C594 C600 1.465 . S
C595 C590 1.399 . S
C595 C594 1.394 . S
C595 C596 1.516 . S
C596 C595 1.516 . S
C596 C597 1.502 . S
C596 C598 1.561 . S
C596 C599 1.526 . S
C597 H581 0.959 . S
C597 H582 0.959 . S
C597 H583 0.961 . S
C597 C596 1.502 . S
C598 H584 0.960 . S
C598 H585 0.961 . S
C598 H586 0.959 . S
C598 C596 1.561 . S
C599 C596 1.526 . S
C599 C600 1.396 . S
C599 C604 1.390 . S
C600 C594 1.465 . S
C600 C599 1.396 . S
C600 C601 1.399 . S
C601 H587 0.929 . S
C601 C600 1.399 . S
C601 C602 1.385 . S
C602 H588 0.931 . S
C602 C601 1.385 . S
C602 C603 1.389 . S
C603 C602 1.389 . S
C603 C604 1.387 . S
C604 H589 0.930 . S
C604 C599 1.390 . S
C604 C603 1.387 . S
H605 C617 0.930 . S
H606 C619 0.930 . S
H607 C620 0.930 . S
H608 C624 0.959 . S
H609 C624 0.959 . S
H610 C624 0.961 . S
H611 C625 0.960 . S
H612 C625 0.961 . S
H613 C625 0.959 . S
H614 C628 0.929 . S
H615 C629 0.931 . S
H616 C631 0.930 . S
C617 H605 0.930 . S
C617 C618 1.399 . S
C617 C622 1.399 . S
C618 C617 1.399 . S
C618 C619 1.376 . S
C619 H606 0.930 . S
C619 C618 1.376 . S
C619 C620 1.388 . S
C620 H607 0.930 . S
C620 C619 1.388 . S
C620 C621 1.390 . S
C621 C620 1.390 . S
C621 C622 1.394 . S
C621 C627 1.465 . S
C622 C617 1.399 . S
C622 C621 1.394 . S
C622 C623 1.516 . S
C623 C622 1.516 . S
C623 C624 1.502 . S
C623 C625 1.561 . S
C623 C626 1.526 . S
C624 H608 0.959 . S
C624 H609 0.959 . S
C624 H610 0.961 . S
C624 C623 1.502 . S
C625 H611 0.960 . S
C625 H612 0.961 . S
C625 H613 0.959 . S
C625 C623 1.561 . S
C626 C623 1.526 . S
C626 C627 1.396 . S
C626 C631 1.390 . S
C627 C621 1.465 . S
C627 C626 1.396 . S
C627 C628 1.399 . S
C628 H614 0.929 . S
C628 C627 1.399 . S
C628 C629 1.385 . S
C629 H615 0.931 . S
C629 C628 1.385 . S
C629 C630 1.389 . S
C630 C629 1.389 . S
C630 C631 1.387 . S
C631 H616 0.930 . S
C631 C626 1.390 . S
C631 C630 1.387 . S
C333 C279 1.459 . S
C321 C29 1.495 . S
C348 C8 1.477 1_556 S
C360 C219 1.454 . S
C375 C0 1.465 . S
C387 C249 1.300 . S
C402 C17 1.489 . S
C414 C189 1.319 . S
C429 C63 1.496 . S
C441 C159 1.497 . S
C456 C42 1.481 . S
C468 C99 1.451 . S
C495 C129 1.312 . S
C483 C34 1.465 . S
C522 C69 1.316 . S
C510 C51 1.488 . S
C537 C4 1.471 . S
C549 C88 1.462 1_455 S
C564 C13 1.475 . S
C576 C148 1.436 . S
C603 C208 1.460 . S
C591 C38 1.471 . S
C618 C47 1.477 . S
C630 C268 1.461 . S
