# Generated by pormake.
# Topology pts, (4,4)-cn, num edge types: 1
# Building blocks:
#     Node 0, Type 0, BuildingBlock: NAWXER_clean_linker_0, # of connection points: 4
#     Node 1, Type 0, BuildingBlock: NAWXER_clean_linker_0, # of connection points: 4
#     Node 2, Type 1, BuildingBlock: UXUYUI_clean_sbu_0, # of connection points: 4
#     Node 3, Type 1, BuildingBlock: UXUYUI_clean_sbu_0, # of connection points: 4
#     Edge 4, Type (0, 1), BuildingBlock: UVAHIK_clean_linker_0, # of connection points: 2
#     Edge 5, Type (0, 1), BuildingBlock: UVAHIK_clean_linker_0, # of connection points: 2
#     Edge 6, Type (0, 1), BuildingBlock: UVAHIK_clean_linker_0, # of connection points: 2
#     Edge 7, Type (0, 1), BuildingBlock: UVAHIK_clean_linker_0, # of connection points: 2
#     Edge 8, Type (0, 1), BuildingBlock: UVAHIK_clean_linker_0, # of connection points: 2
#     Edge 9, Type (0, 1), BuildingBlock: UVAHIK_clean_linker_0, # of connection points: 2
#     Edge 10, Type (0, 1), BuildingBlock: UVAHIK_clean_linker_0, # of connection points: 2
#     Edge 11, Type (0, 1), BuildingBlock: UVAHIK_clean_linker_0, # of connection points: 2
# Relax obj value: 0.000
# Max RMSD: 0.009
# Mean RMSD: 0.008
data_MOF--net-pts--node1-UXUYUI_clean_sbu_0--node2-NAWXER_clean_linker_0--edge1-UVAHIK_clean_linker_0
_symmetry_space_group_name_H-M    P1
_symmetry_Int_Tables_number       1
_symmetry_cell_setting            triclinic
loop_
_symmetry_equiv_pos_as_xyz
'x, y, z'
_cell_length_a     42.664447
_cell_length_b     42.654161
_cell_length_c     61.504842
_cell_angle_alpha  90.001026
_cell_angle_beta   89.98262
_cell_angle_gamma 90.007121
loop_
_atom_site_label
_atom_site_type_symbol
_atom_site_fract_x
_atom_site_fract_y
_atom_site_fract_z
_atom_type_partial_charge
C0 C 0.60631 0.0199 0.96507 0.0
C1 C 0.60933 0.99836 0.94785 0.0
C2 C 0.57955 0.01996 0.97817 0.0
C3 C 0.55557 0.99793 0.97475 0.0
C4 C 0.58489 0.97685 0.94416 0.0
C5 C 0.55834 0.97666 0.95746 0.0
C6 C 0.52672 0.99795 0.9882 0.0
C7 C 0.60596 0.97856 0.03443 0.0
C8 C 0.60939 0.00058 0.05131 0.0
C9 C 0.57918 0.97859 0.02135 0.0
C10 C 0.55556 0.00108 0.02455 0.0
C11 C 0.58534 0.02261 0.05475 0.0
C12 C 0.55873 0.0228 0.04153 0.0
C13 C 0.52673 0.00114 0.01113 0.0
C14 C 0.39341 0.97731 0.03605 0.0
C15 C 0.38766 0.00233 0.05037 0.0
C16 C 0.42021 0.9772 0.02299 0.0
C17 C 0.44179 0.002 0.02415 0.0
C18 C 0.40921 0.0272 0.05141 0.0
C19 C 0.43624 0.02684 0.03858 0.0
C20 C 0.47081 0.00142 0.01108 0.0
C21 C 0.39295 0.02114 0.96372 0.0
C22 C 0.38759 0.99643 0.94907 0.0
C23 C 0.41977 0.02136 0.97675 0.0
C24 C 0.44174 0.99695 0.97527 0.0
C25 C 0.40957 0.97197 0.94769 0.0
C26 C 0.43658 0.97241 0.96053 0.0
C27 C 0.47079 0.99765 0.98832 0.0
H28 H 0.62467 0.03669 0.96853 0.0
H29 H 0.57758 0.03741 0.99089 0.0
H30 H 0.58597 0.9604 0.93077 0.0
H31 H 0.53993 0.9598 0.95422 0.0
H32 H 0.62404 0.96136 0.03122 0.0
H33 H 0.5769 0.96089 0.00883 0.0
H34 H 0.58681 0.03946 0.06787 0.0
H35 H 0.54059 0.04003 0.04456 0.0
H36 H 0.37711 0.9579 0.03491 0.0
H37 H 0.42433 0.95753 0.01222 0.0
H38 H 0.40545 0.04659 0.06249 0.0
H39 H 0.45277 0.04605 0.03983 0.0
H40 H 0.37633 0.04023 0.96514 0.0
H41 H 0.42358 0.04085 0.98773 0.0
H42 H 0.40616 0.95283 0.93635 0.0
H43 H 0.45341 0.95351 0.95902 0.0
N44 N 0.4987 0.99602 0.97775 0.0
N45 N 0.49873 0.00306 0.02162 0.0
C46 C 0.02013 0.60724 0.53398 0.0
C47 C -0.00086 0.60969 0.55149 0.0
C48 C 0.02024 0.58049 0.52086 0.0
C49 C 0.99866 0.55615 0.52457 0.0
C50 C 0.97814 0.58504 0.55556 0.0
C51 C 0.97787 0.55856 0.54221 0.0
C52 C 0.99871 0.52729 0.51113 0.0
C53 C 0.97855 0.60634 0.46479 0.0
C54 C 0.00033 0.60957 0.44778 0.0
C55 C 0.97879 0.57963 0.47796 0.0
C56 C 0.00131 0.55604 0.4747 0.0
C57 C 0.02239 0.58566 0.44427 0.0
C58 C 0.02284 0.55915 0.45758 0.0
C59 C 0.00161 0.52725 0.48818 0.0
C60 C 0.97913 0.39331 0.46369 0.0
C61 C 0.00362 0.38819 0.44875 0.0
C62 C 0.97884 0.42008 0.47678 0.0
C63 C 0.00298 0.4423 0.47519 0.0
C64 C 0.02781 0.41056 0.4473 0.0
C65 C 0.0273 0.43747 0.46024 0.0
C66 C 0.00223 0.47131 0.48829 0.0
C67 C 0.0224 0.39331 0.53547 0.0
C68 C 0.99819 0.38827 0.55058 0.0
C69 C 0.02245 0.42009 0.5224 0.0
C70 C 0.99831 0.44231 0.52422 0.0
C71 C 0.97405 0.41055 0.55235 0.0
C72 C 0.97428 0.43748 0.53942 0.0
C73 C 0.99876 0.47132 0.51109 0.0
H74 H 0.03693 0.62572 0.53076 0.0
H75 H 0.03747 0.57875 0.50798 0.0
H76 H 0.9617 0.58641 0.56895 0.0
H77 H 0.96128 0.53996 0.54561 0.0
H78 H 0.96093 0.62416 0.46761 0.0
H79 H 0.96116 0.57731 0.49053 0.0
H80 H 0.03955 0.58761 0.43135 0.0
H81 H 0.0402 0.54112 0.45459 0.0
H82 H 0.95977 0.377 0.46496 0.0
H83 H 0.95942 0.42372 0.48785 0.0
H84 H 0.04729 0.40723 0.43626 0.0
H85 H 0.04609 0.45443 0.45872 0.0
H86 H 0.04123 0.37647 0.53372 0.0
H87 H 0.04159 0.42367 0.51109 0.0
H88 H 0.95532 0.40744 0.56405 0.0
H89 H 0.95562 0.45451 0.54123 0.0
N90 N 0.99709 0.49926 0.52161 0.0
N91 N 0.00358 0.49924 0.47773 0.0
Li92 Li 0.00034 0.02836 0.26338 0.0
Li93 Li 0.99887 0.97092 0.26424 0.0
Li94 Li 0.0283 0.00062 0.23515 0.0
Li95 Li 0.97081 0.99848 0.23457 0.0
C96 C 0.05364 0.01133 0.2833 0.0
N97 N 0.08817 0.03763 0.31663 0.0
C98 C 0.05294 0.99804 0.30407 0.0
C99 C 0.07222 0.03772 0.27941 0.0
C100 C 0.07049 0.01175 0.32072 0.0
C101 C 0.0894 0.05076 0.2965 0.0
C102 C 0.93709 0.9906 0.27722 0.0
C103 C 0.89126 0.95761 0.27924 0.0
N104 N 0.88414 0.97024 0.29894 0.0
C105 C 0.92911 0.00353 0.29736 0.0
C106 C 0.91785 0.96768 0.26798 0.0
C107 C 0.90234 0.99281 0.30814 0.0
C108 C 0.99874 0.09346 0.27248 0.0
N109 N -0.00023 0.06444 0.28154 0.0
C110 C 0.00057 0.08647 0.31725 0.0
C111 C 0.00027 0.0605 0.30346 0.0
C112 C -0.00029 0.11687 0.30842 0.0
C113 C 0.9986 0.12012 0.28566 0.0
H114 H 0.99782 0.09592 0.255 0.0
H115 H 0.00058 0.03714 0.31025 0.0
C116 C 0.01497 0.9091 0.27595 0.0
N117 N -0.00088 0.93503 0.28259 0.0
C118 C 0.01582 0.88235 0.28904 0.0
C119 C 0.98437 0.90966 0.31568 0.0
C120 C 0.9843 0.93589 0.30214 0.0
C121 C 0.00028 0.88234 0.30921 0.0
H122 H 0.02706 0.90927 0.26049 0.0
H123 H 0.97266 0.95703 0.30737 0.0
C124 C 0.00992 0.05371 0.21501 0.0
N125 N 0.0344 0.08867 0.18122 0.0
C126 C 0.99564 0.0531 0.19456 0.0
C127 C 0.03638 0.07241 0.21836 0.0
C128 C 0.00844 0.07088 0.17767 0.0
C129 C 0.04849 0.08981 0.20104 0.0
C130 C 0.99201 0.93708 0.2211 0.0
C131 C 0.00515 0.93062 0.20076 0.0
C132 C 0.9701 0.91637 0.22999 0.0
C133 C 0.9956 0.90388 0.18944 0.0
C134 C 0.96119 0.88986 0.21817 0.0
N135 N 0.97398 0.88424 0.1983 0.0
C136 C 0.0933 0.99789 0.22621 0.0
C137 C 0.06084 0.00238 0.19509 0.0
C138 C 0.12013 0.99793 0.21318 0.0
N139 N 0.06444 0.00031 0.217 0.0
C140 C 0.08701 0.00305 0.18149 0.0
C141 C 0.1171 0.00082 0.19054 0.0
H142 H 0.09549 0.99588 0.24366 0.0
H143 H 0.03761 0.00348 0.18814 0.0
C144 C 0.90891 0.01439 0.2232 0.0
N145 N 0.93462 0.99824 0.21648 0.0
C146 C 0.88187 0.01497 0.21042 0.0
C147 C 0.90838 0.98257 0.18393 0.0
C148 C 0.93497 0.98284 0.19713 0.0
C149 C 0.88136 0.99874 0.19055 0.0
H150 H 0.90944 0.02679 0.23854 0.0
H151 H 0.95597 0.97112 0.19175 0.0
O152 O 0.03634 0.99845 0.26686 0.0
O153 O 0.96326 0.00086 0.2665 0.0
O154 O 0.99789 0.03623 0.23168 0.0
O155 O 0.00116 0.96319 0.23237 0.0
H156 H 0.03883 0.97751 0.30733 0.0
H157 H 0.07326 0.0481 0.26339 0.0
H158 H 0.07003 0.00183 0.33691 0.0
H159 H 0.10372 0.07131 0.29375 0.0
H160 H 0.8762 0.93985 0.27228 0.0
H161 H 0.94353 0.02153 0.30466 0.0
H162 H 0.92312 0.95804 0.25217 0.0
H163 H 0.89601 0.00247 0.3238 0.0
H164 H 0.00184 0.08267 0.33463 0.0
H165 H 0.99726 0.14299 0.27808 0.0
H166 H 0.0289 0.8621 0.28354 0.0
H167 H 0.97185 0.91074 0.33098 0.0
H168 H 0.97504 0.03891 0.19172 0.0
H169 H 0.04753 0.07336 0.23412 0.0
H170 H 0.99775 0.0705 0.16172 0.0
H171 H 0.06908 0.10422 0.20336 0.0
H172 H 0.02238 0.94619 0.19372 0.0
H173 H 0.96035 0.92045 0.24594 0.0
H174 H 0.00541 0.89873 0.17361 0.0
H175 H 0.9442 0.87367 0.22486 0.0
H176 H 0.143 0.99619 0.22073 0.0
H177 H 0.08375 0.00483 0.16407 0.0
H178 H 0.86147 0.02765 0.21612 0.0
H179 H 0.90915 0.97031 0.16851 0.0
Li180 Li 0.97071 0.00052 0.76442 0.0
Li181 Li 0.0283 0.99835 0.76427 0.0
Li182 Li 0.99896 0.02855 0.73528 0.0
Li183 Li 0.00045 0.97093 0.73523 0.0
C184 C 0.99057 0.0595 0.78026 0.0
N185 N 0.9693 0.10727 0.80678 0.0
C186 C 0.00393 0.06414 0.80076 0.0
C187 C 0.96673 0.07946 0.77312 0.0
C188 C 0.99276 0.08833 0.81397 0.0
C189 C 0.95621 0.10339 0.7868 0.0
C190 C 0.00899 0.94238 0.78222 0.0
C191 C 0.04466 0.90136 0.79295 0.0
N192 N 0.03153 0.90111 0.8131 0.0
C193 C 0.99559 0.94148 0.80295 0.0
C194 C 0.03349 0.92195 0.77708 0.0
C195 C 0.00741 0.92054 0.81837 0.0
C196 C 0.90731 0.98836 0.77438 0.0
N197 N 0.93441 0.00047 0.78242 0.0
C198 C 0.90953 0.01214 0.81628 0.0
C199 C 0.93609 0.01178 0.80305 0.0
C200 C 0.88114 0.00012 0.80834 0.0
C201 C 0.88023 0.98788 0.78715 0.0
H202 H 0.90675 0.97902 0.75804 0.0
H203 H 0.95814 0.02014 0.80938 0.0
C204 C 0.09291 0.00414 0.77366 0.0
N205 N 0.06432 0.99814 0.7825 0.0
C206 C 0.1197 0.00407 0.78671 0.0
C207 C 0.0871 0.99181 0.81772 0.0
C208 C 0.06093 0.99255 0.80414 0.0
C209 C 0.11695 0.9976 0.80901 0.0
H210 H 0.09491 0.00911 0.75649 0.0
H211 H 0.03785 0.98896 0.8109 0.0
C212 C 0.94001 0.00932 0.71922 0.0
N213 N 0.89292 0.03086 0.69225 0.0
C214 C 0.93649 0.99682 0.69836 0.0
C215 C 0.91925 0.03236 0.72651 0.0
C216 C 0.91264 0.00814 0.68492 0.0
C217 C 0.89568 0.04305 0.7126 0.0
C218 C 0.05702 0.98941 0.7176 0.0
C219 C 0.0596 0.00339 0.69712 0.0
C220 C 0.07601 0.96382 0.72282 0.0
C221 C 0.08079 0.99112 0.68203 0.0
C222 C 0.09691 0.95222 0.70728 0.0
N223 N 0.09882 0.96598 0.68738 0.0
C224 C 0.00954 0.09246 0.72545 0.0
C225 C 0.9896 0.06229 0.6962 0.0
C226 C 0.00979 0.11937 0.7125 0.0
N227 N -0.00082 0.06476 0.7172 0.0
C228 C 0.98918 0.08862 0.68275 0.0
C229 C -0.00072 0.11765 0.69089 0.0
H230 H 0.01765 0.09366 0.74208 0.0
H231 H 0.98268 0.0398 0.68977 0.0
C232 C 0.99221 0.90673 0.72559 0.0
N233 N 1e-05 0.93497 0.71693 0.0
C234 C 0.99156 0.87995 0.71253 0.0
C235 C 0.00699 0.91185 0.68188 0.0
C236 C 0.00686 0.93804 0.69546 0.0
C237 C -0.00079 0.8822 0.69032 0.0
H238 H 0.98621 0.90505 0.74263 0.0
H239 H 0.01209 0.96088 0.68882 0.0
O240 O 0.00114 0.03581 0.76719 0.0
O241 O 0.99782 0.96284 0.76696 0.0
O242 O 0.9633 0.99854 0.73255 0.0
O243 O 0.03626 0.00101 0.73252 0.0
H244 H 0.02259 0.04908 0.80647 0.0
H245 H 0.95666 0.07669 0.75713 0.0
H246 H 0.00273 0.09205 0.82993 0.0
H247 H 0.93771 0.11896 0.7815 0.0
H248 H 0.06372 0.88551 0.78922 0.0
H249 H 0.97644 0.95695 0.80714 0.0
H250 H 0.04369 0.9219 0.761 0.0
H251 H 0.99742 0.91975 0.83453 0.0
H252 H 0.9113 0.0212 0.83269 0.0
H253 H 0.85874 0.9784 0.78047 0.0
H254 H 0.14235 0.00865 0.77941 0.0
H255 H 0.08398 0.98731 0.83492 0.0
H256 H 0.95216 0.97875 0.69253 0.0
H257 H 0.9211 0.04169 0.74278 0.0
H258 H 0.9098 0.99885 0.66868 0.0
H259 H 0.87951 0.06096 0.71801 0.0
H260 H 0.04526 0.02338 0.69288 0.0
H261 H 0.07471 0.95309 0.7387 0.0
H262 H 0.08289 0.00158 0.66608 0.0
H263 H 0.11166 0.93233 0.71108 0.0
H264 H 0.01776 0.14134 0.71938 0.0
H265 H 0.98154 0.08618 0.66604 0.0
H266 H 0.98468 0.85784 0.71974 0.0
H267 H 0.0134 0.91488 0.66498 0.0
C268 C 0.34018 0.02873 0.06584 0.0
C269 C 0.35957 0.00219 0.06451 0.0
C270 C 0.31378 0.0286 0.0793 0.0
C271 C 0.28182 0.99261 0.12824 0.0
H272 H 0.20091 0.01812 0.10568 0.0
C273 C 0.16862 0.97853 0.17866 0.0
C274 C 0.14515 0.00134 0.17637 0.0
C275 C 0.19477 0.97865 0.16497 0.0
C276 C 0.22338 0.01142 0.11239 0.0
H277 H 0.36691 0.9549 0.07633 0.0
H278 H 0.32095 0.95486 0.10017 0.0
H279 H 0.24667 0.01882 0.08193 0.0
H280 H 0.13083 0.04259 0.15843 0.0
H281 H 0.17694 0.04361 0.13502 0.0
H282 H 0.25903 0.98602 0.15884 0.0
C283 C 0.32609 0.97564 0.09069 0.0
C284 C 0.24955 0.01168 0.09872 0.0
C285 C 0.3522 0.97558 0.07696 0.0
C286 C 0.14846 0.02451 0.16034 0.0
C287 C 0.17483 0.02495 0.14686 0.0
C288 C 0.25578 0.99278 0.14202 0.0
C289 C 0.30662 0.00212 0.09195 0.0
C290 C 0.27896 0.00215 0.10649 0.0
C291 C 0.19827 0.00191 0.14889 0.0
C292 C 0.22615 0.00206 0.13427 0.0
H293 H 0.34531 0.04947 0.05631 0.0
H294 H 0.29921 0.04937 0.08008 0.0
H295 H 0.30435 0.9855 0.13469 0.0
H296 H 0.16642 0.96019 0.19075 0.0
H297 H 0.21195 0.96017 0.16678 0.0
C298 C 0.97099 0.34249 0.56784 0.0
C299 C 0.9984 0.36016 0.56475 0.0
C300 C 0.97113 0.31619 0.58139 0.0
C301 C 0.02488 0.25936 0.60799 0.0
H302 H 0.95235 0.24228 0.64412 0.0
C303 C 0.02503 0.16611 0.67623 0.0
C304 C 0.99905 0.14587 0.67682 0.0
C305 C 0.02501 0.19234 0.66261 0.0
C306 C 0.97267 0.24665 0.634 0.0
H307 H 0.04734 0.36449 0.57365 0.0
H308 H 0.04753 0.31903 0.59766 0.0
H309 H 0.95231 0.28793 0.62027 0.0
H310 H 0.9525 0.1375 0.66397 0.0
H311 H 0.95241 0.18345 0.64023 0.0
H312 H 0.04537 0.21828 0.6221 0.0
C313 C 0.02606 0.32492 0.58922 0.0
C314 C 0.97264 0.27274 0.62026 0.0
C315 C 0.02597 0.35104 0.5755 0.0
C316 C 0.97293 0.15257 0.66371 0.0
C317 C 0.97278 0.17898 0.65028 0.0
C318 C 0.02501 0.23344 0.62188 0.0
C319 C 0.99864 0.30715 0.59234 0.0
C320 C 0.99871 0.2794 0.60703 0.0
C321 C 0.99887 0.19905 0.64951 0.0
C322 C 0.99888 0.22678 0.63498 0.0
H323 H 0.9495 0.34878 0.55954 0.0
H324 H 0.94973 0.30276 0.58307 0.0
H325 H 0.04516 0.26341 0.59777 0.0
H326 H 0.04557 0.16138 0.68605 0.0
H327 H 0.04534 0.20755 0.66247 0.0
C328 C 0.65096 0.02865 0.07282 0.0
C329 C 0.63769 0.00037 0.06547 0.0
C330 C 0.67718 0.02846 0.08642 0.0
C331 C 0.74447 0.98046 0.10269 0.0
H332 H 0.7453 0.0332 0.15404 0.0
C333 C 0.84227 0.971 0.16701 0.0
C334 C 0.85296 0.99886 0.17666 0.0
C335 C 0.81578 0.97112 0.15367 0.0
C336 C 0.74568 0.01865 0.13962 0.0
H337 H 0.64164 0.94966 0.06691 0.0
H338 H 0.68781 0.94944 0.09026 0.0
H339 H 0.69986 0.03381 0.13 0.0
H340 H 0.84453 0.04875 0.17975 0.0
H341 H 0.79864 0.04917 0.15613 0.0
H342 H 0.79042 0.96567 0.11197 0.0
C343 C 0.67791 0.97173 0.08536 0.0
C344 C 0.71959 0.01895 0.12589 0.0
C345 C 0.65151 0.9719 0.07192 0.0
C346 C 0.83658 0.02685 0.17274 0.0
C347 C 0.81024 0.02705 0.15924 0.0
C348 C 0.77068 0.98035 0.11629 0.0
C349 C 0.69092 0.0 0.09283 0.0
C350 C 0.71869 -0.00019 0.10732 0.0
C351 C 0.79951 -0.00082 0.14951 0.0
C352 C 0.77161 -0.00061 0.13498 0.0
H353 H 0.64132 0.05102 0.06787 0.0
H354 H 0.68698 0.05061 0.0917 0.0
H355 H 0.74457 0.96576 0.08832 0.0
H356 H 0.8542 0.949 0.16999 0.0
H357 H 0.80787 0.94912 0.14681 0.0
C358 C 0.0007 0.63439 0.58838 0.0
C359 C -0.0006 0.63772 0.56567 0.0
C360 C 0.00103 0.66082 0.60179 0.0
C361 C 0.97666 0.74239 0.60434 0.0
H362 H 0.04029 0.75097 0.64894 0.0
C363 C 0.9897 0.85621 0.65414 0.0
C364 C 0.99893 0.85395 0.67605 0.0
C365 C 0.98992 0.82986 0.64066 0.0
C366 C 0.022 0.74878 0.63684 0.0
H367 H 0.99709 0.67105 0.53915 0.0
H368 H 0.99704 0.71741 0.56271 0.0
H369 H 0.04004 0.70473 0.62564 0.0
H370 H 0.01569 0.82178 0.70081 0.0
H371 H 0.0144 0.77568 0.67771 0.0
H372 H 0.95787 0.78575 0.61582 0.0
C373 C 0.99804 0.69435 0.57005 0.0
C374 C 0.02203 0.72234 0.62342 0.0
C375 C 0.99826 0.66792 0.55661 0.0
C376 C 0.00802 0.82447 0.68414 0.0
C377 C 0.00779 0.79802 0.67074 0.0
C378 C 0.97629 0.76859 0.61798 0.0
C379 C -0.00046 0.69102 0.59275 0.0
C380 C -0.00056 0.71898 0.60701 0.0
C381 C 0.99889 0.80036 0.64877 0.0
C382 C 0.99905 0.77223 0.63437 0.0
H383 H 0.00179 0.61134 0.59573 0.0
H384 H 0.00203 0.65766 0.61926 0.0
H385 H 0.95876 0.74014 0.59195 0.0
H386 H 0.98203 0.87833 0.64735 0.0
H387 H 0.98333 0.83279 0.62378 0.0
C388 C 0.35123 0.02356 0.92325 0.0
C389 C 0.35949 0.99649 0.93494 0.0
C390 C 0.32511 0.02348 0.90956 0.0
C391 C 0.24992 0.98474 0.90029 0.0
H392 H 0.25793 0.01642 0.84146 0.0
C393 C 0.14971 0.97249 0.83794 0.0
C394 C 0.14499 0.99716 0.8232 0.0
C395 C 0.17607 0.97211 0.85142 0.0
C396 C 0.2551 0.00793 0.85793 0.0
H397 H 0.34673 0.94832 0.94177 0.0
H398 H 0.30072 0.9483 0.91799 0.0
H399 H 0.30328 0.01684 0.86556 0.0
H400 H 0.16378 0.04103 0.81117 0.0
H401 H 0.20933 0.04097 0.83509 0.0
H402 H 0.20165 0.97651 0.89301 0.0
C403 C 0.31457 0.96949 0.91938 0.0
C404 C 0.28115 0.00806 0.87169 0.0
C405 C 0.34095 0.96944 0.93284 0.0
C406 C 0.16707 0.02152 0.82222 0.0
C407 C 0.19323 0.02138 0.83588 0.0
C408 C 0.22375 0.98496 0.88664 0.0
C409 C 0.3065 0.99646 0.90752 0.0
C410 C 0.27883 0.9964 0.89298 0.0
C411 C 0.19812 0.99664 0.85066 0.0
C412 C 0.226 0.99648 0.86524 0.0
H413 H 0.36526 0.04466 0.92445 0.0
H414 H 0.31927 0.04465 0.90071 0.0
H415 H 0.24742 0.97595 0.91673 0.0
H416 H 0.13321 0.95322 0.83883 0.0
H417 H 0.1793 0.95237 0.86224 0.0
C418 C 0.99274 0.33091 0.44226 0.0
C419 C 0.00364 0.35997 0.43448 0.0
C420 C 0.99228 0.3046 0.42872 0.0
C421 C 0.02891 0.27094 0.38028 0.0
H422 H 0.95354 0.22044 0.37655 0.0
C423 C 0.01599 0.17233 0.31672 0.0
C424 C -8e-05 0.14492 0.32285 0.0
C425 C 0.01629 0.19859 0.33031 0.0
C426 C 0.97496 0.23396 0.37762 0.0
H427 H 0.02228 0.38399 0.40615 0.0
H428 H 0.02227 0.33783 0.3828 0.0
H429 H 0.95482 0.26575 0.4007 0.0
H430 H 0.97119 0.12401 0.34813 0.0
H431 H 0.97293 0.16912 0.37218 0.0
H432 H 0.04943 0.23894 0.35764 0.0
C433 C 0.0142 0.33552 0.39943 0.0
C434 C 0.97561 0.25998 0.39141 0.0
C435 C 0.01431 0.36193 0.41287 0.0
C436 C 0.98421 0.14448 0.34296 0.0
C437 C 0.98479 0.17061 0.35665 0.0
C438 C 0.02842 0.2447 0.36668 0.0
C439 C 0.00306 0.30665 0.40719 0.0
C440 C 0.00254 0.27879 0.39281 0.0
C441 C 0.0008 0.19804 0.3505 0.0
C442 C 0.0014 0.22591 0.3651 0.0
H443 H 0.98487 0.32834 0.4589 0.0
H444 H 0.98391 0.2825 0.43518 0.0
H445 H 0.05011 0.28485 0.38125 0.0
H446 H 0.02871 0.17346 0.3015 0.0
H447 H 0.02849 0.21941 0.32485 0.0
C448 C 0.65233 0.02695 0.92796 0.0
C449 C 0.63761 0.99855 0.93362 0.0
C450 C 0.67873 0.0271 0.91451 0.0
C451 C 0.71833 0.98206 0.87217 0.0
H452 H 0.79208 0.02949 0.88873 0.0
C453 C 0.83434 0.97299 0.82422 0.0
C454 C 0.85276 0.00011 0.82222 0.0
C455 C 0.80803 0.97279 0.83777 0.0
C456 C 0.77154 0.01651 0.88364 0.0
H457 H 0.63972 0.94798 0.92973 0.0
H458 H 0.68522 0.94846 0.90574 0.0
H459 H 0.74619 0.02951 0.91235 0.0
H460 H 0.85776 0.04849 0.83231 0.0
H461 H 0.81136 0.04856 0.85543 0.0
H462 H 0.74315 0.96963 0.84323 0.0
C463 C 0.67614 0.97055 0.91173 0.0
C464 C 0.74532 0.01644 0.89726 0.0
C465 C 0.64999 0.97034 0.92541 0.0
C466 C 0.84416 0.02715 0.83378 0.0
C467 C 0.81764 0.02709 0.84711 0.0
C468 C 0.74439 0.98245 0.8584 0.0
C469 C 0.69078 0.99892 0.90618 0.0
C470 C 0.71851 0.99913 0.89168 0.0
C471 C 0.79932 -0.00016 0.84941 0.0
C472 C 0.77141 -0.00039 0.86398 0.0
H473 H 0.64317 0.04918 0.9336 0.0
H474 H 0.68939 0.04933 0.91028 0.0
H475 H 0.6978 0.96882 0.86737 0.0
H476 H 0.84068 0.95171 0.81567 0.0
H477 H 0.79489 0.9512 0.8394 0.0
C478 C 0.99747 0.66782 0.44261 0.0
C479 C -0.00013 0.63765 0.43358 0.0
C480 C 0.99756 0.69429 0.42921 0.0
C481 C 0.98128 0.72008 0.37345 0.0
H482 H 0.03458 0.79067 0.38797 0.0
C483 C 0.99888 0.82387 0.3145 0.0
C484 C 0.00073 0.85415 0.32346 0.0
C485 C 0.99901 0.79743 0.32792 0.0
C486 C 0.01922 0.77137 0.38382 0.0
H487 H 0.00366 0.61147 0.40349 0.0
H488 H 0.00369 0.65775 0.38006 0.0
H489 H 0.03367 0.7448 0.41162 0.0
H490 H 0.00467 0.88018 0.35366 0.0
H491 H 0.0037 0.83425 0.37704 0.0
H492 H 0.96637 0.74669 0.34587 0.0
C493 C 0.00179 0.6609 0.39749 0.0
C494 C 0.01878 0.74507 0.39736 0.0
C495 C 0.00204 0.63446 0.41089 0.0
C496 C 0.00277 0.85728 0.34618 0.0
C497 C 0.00267 0.83086 0.3596 0.0
C498 C 0.9815 0.74649 0.36 0.0
C499 C -0.00031 0.69108 0.40652 0.0
C500 C -0.00013 0.71914 0.39228 0.0
C501 C 0.00078 0.80058 0.35066 0.0
C502 C 0.00053 0.77246 0.36498 0.0
H503 H 0.99598 0.67096 0.46006 0.0
H504 H 0.99567 0.71727 0.43659 0.0
H505 H 0.96619 0.70056 0.36928 0.0
H506 H 0.99693 0.82054 0.2971 0.0
H507 H 0.99794 0.77448 0.32043 0.0
loop_
_geom_bond_atom_site_label_1
_geom_bond_atom_site_label_2
_geom_bond_distance
_geom_bond_site_symmetry_2
_ccdc_geom_bond_type
C0 C1 1.367 1_545 S
C0 C2 1.384 . S
C0 H28 0.931 . S
C1 C0 1.367 1_565 S
C1 C4 1.401 . S
C2 C0 1.384 . S
C2 C3 1.381 1_545 S
C2 H29 0.930 . S
C3 C2 1.381 1_565 S
C3 C5 1.381 . S
C3 C6 1.487 . S
C4 C1 1.401 . S
C4 C5 1.387 . S
C4 H30 0.930 . S
C5 C3 1.381 . S
C5 C4 1.387 . S
C5 H31 0.931 . S
C6 C3 1.487 . S
C6 C13 1.399 1_566 S
C6 N44 1.343 . S
C7 C8 1.361 1_565 S
C7 C9 1.384 . S
C7 H32 0.931 . S
C8 C7 1.361 1_545 S
C8 C11 1.406 . S
C9 C7 1.384 . S
C9 C10 1.381 1_565 S
C9 H33 0.930 . S
C10 C9 1.381 1_545 S
C10 C12 1.381 . S
C10 C13 1.487 . S
C11 C8 1.406 . S
C11 C12 1.387 . S
C11 H34 0.930 . S
C12 C10 1.381 . S
C12 C11 1.387 . S
C12 H35 0.931 . S
C13 C6 1.399 1_544 S
C13 C10 1.487 . S
C13 N45 1.343 . S
C14 C15 1.361 1_565 S
C14 C16 1.384 . S
C14 H36 0.931 . S
C15 C14 1.361 1_545 S
C15 C18 1.406 . S
C16 C14 1.384 . S
C16 C17 1.381 1_565 S
C16 H37 0.930 . S
C17 C16 1.381 1_545 S
C17 C19 1.381 . S
C17 C20 1.487 . S
C18 C15 1.406 . S
C18 C19 1.387 . S
C18 H38 0.930 . S
C19 C17 1.381 . S
C19 C18 1.387 . S
C19 H39 0.931 . S
C20 C17 1.487 . S
C20 C27 1.399 1_544 S
C20 N45 1.343 . S
C21 C22 1.367 1_545 S
C21 C23 1.384 . S
C21 H40 0.931 . S
C22 C21 1.367 1_565 S
C22 C25 1.401 . S
C23 C21 1.384 . S
C23 C24 1.381 1_545 S
C23 H41 0.930 . S
C24 C23 1.381 1_565 S
C24 C26 1.381 . S
C24 C27 1.487 . S
C25 C22 1.401 . S
C25 C26 1.387 . S
C25 H42 0.930 . S
C26 C24 1.381 . S
C26 C25 1.387 . S
C26 H43 0.931 . S
C27 C20 1.399 1_566 S
C27 C24 1.487 . S
C27 N44 1.343 . S
H28 C0 0.931 . S
H29 C2 0.930 . S
H30 C4 0.930 . S
H31 C5 0.931 . S
H32 C7 0.931 . S
H33 C9 0.930 . S
H34 C11 0.930 . S
H35 C12 0.931 . S
H36 C14 0.931 . S
H37 C16 0.930 . S
H38 C18 0.930 . S
H39 C19 0.931 . S
H40 C21 0.931 . S
H41 C23 0.930 . S
H42 C25 0.930 . S
H43 C26 0.931 . S
N44 C6 1.343 . S
N44 C27 1.343 . S
N45 C13 1.343 . S
N45 C20 1.343 . S
C46 C47 1.367 1_455 S
C46 C48 1.384 . S
C46 H74 0.931 . S
C47 C46 1.367 1_655 S
C47 C50 1.401 . S
C48 C46 1.384 . S
C48 C49 1.381 1_455 S
C48 H75 0.930 . S
C49 C48 1.381 1_655 S
C49 C51 1.381 . S
C49 C52 1.487 . S
C50 C47 1.401 . S
C50 C51 1.387 . S
C50 H76 0.930 . S
C51 C49 1.381 . S
C51 C50 1.387 . S
C51 H77 0.931 . S
C52 C49 1.487 . S
C52 C59 1.399 1_655 S
C52 N90 1.343 . S
C53 C54 1.361 1_655 S
C53 C55 1.384 . S
C53 H78 0.931 . S
C54 C53 1.361 1_455 S
C54 C57 1.406 . S
C55 C53 1.384 . S
C55 C56 1.381 1_655 S
C55 H79 0.930 . S
C56 C55 1.381 1_455 S
C56 C58 1.381 . S
C56 C59 1.487 . S
C57 C54 1.406 . S
C57 C58 1.387 . S
C57 H80 0.930 . S
C58 C56 1.381 . S
C58 C57 1.387 . S
C58 H81 0.931 . S
C59 C52 1.399 1_455 S
C59 C56 1.487 . S
C59 N91 1.343 . S
C60 C61 1.361 1_655 S
C60 C62 1.384 . S
C60 H82 0.931 . S
C61 C60 1.361 1_455 S
C61 C64 1.406 . S
C62 C60 1.384 . S
C62 C63 1.381 1_655 S
C62 H83 0.930 . S
C63 C62 1.381 1_455 S
C63 C65 1.381 . S
C63 C66 1.487 . S
C64 C61 1.406 . S
C64 C65 1.387 . S
C64 H84 0.930 . S
C65 C63 1.381 . S
C65 C64 1.387 . S
C65 H85 0.931 . S
C66 C63 1.487 . S
C66 C73 1.399 1_455 S
C66 N91 1.343 . S
C67 C68 1.367 1_455 S
C67 C69 1.384 . S
C67 H86 0.931 . S
C68 C67 1.367 1_655 S
C68 C71 1.401 . S
C69 C67 1.384 . S
C69 C70 1.381 1_455 S
C69 H87 0.930 . S
C70 C69 1.381 1_655 S
C70 C72 1.381 . S
C70 C73 1.487 . S
C71 C68 1.401 . S
C71 C72 1.387 . S
C71 H88 0.930 . S
C72 C70 1.381 . S
C72 C71 1.387 . S
C72 H89 0.931 . S
C73 C66 1.399 1_655 S
C73 C70 1.487 . S
C73 N90 1.343 . S
H74 C46 0.931 . S
H75 C48 0.930 . S
H76 C50 0.930 . S
H77 C51 0.931 . S
H78 C53 0.931 . S
H79 C55 0.930 . S
H80 C57 0.930 . S
H81 C58 0.931 . S
H82 C60 0.931 . S
H83 C62 0.930 . S
H84 C64 0.930 . S
H85 C65 0.931 . S
H86 C67 0.931 . S
H87 C69 0.930 . S
H88 C71 0.930 . S
H89 C72 0.931 . S
N90 C52 1.343 . S
N90 C73 1.343 . S
N91 C59 1.343 . S
N91 C66 1.343 . S
Li92 N109 1.990 . S
Li92 O152 1.956 1_545 S
Li92 O153 1.970 1_455 S
Li92 O154 1.961 1_455 S
Li93 N117 1.990 . S
Li93 O152 1.970 1_655 S
Li93 O153 1.956 1_565 S
Li93 O155 1.961 1_655 S
Li94 N139 1.990 . S
Li94 O152 1.961 1_545 S
Li94 O154 1.956 1_455 S
Li94 O155 1.970 1_545 S
Li95 N145 1.990 . S
Li95 O153 1.961 1_565 S
Li95 O154 1.970 1_565 S
Li95 O155 1.956 1_655 S
C96 C98 1.348 1_545 S
C96 C99 1.356 . S
C96 O152 1.325 1_545 S
N97 C100 1.314 1_545 S
N97 C101 1.279 . S
C98 C96 1.348 1_565 S
C98 C100 1.353 . S
C98 H156 0.929 . S
C99 C96 1.356 . S
C99 C101 1.358 . S
C99 H157 0.930 . S
C100 N97 1.314 1_565 S
C100 C98 1.353 . S
C100 H158 0.930 . S
C101 N97 1.279 . S
C101 C99 1.358 . S
C101 H159 0.930 . S
C102 C105 1.348 . S
C102 C106 1.356 1_545 S
C102 O153 1.325 . S
C103 N104 1.279 . S
C103 C106 1.358 . S
C103 H160 0.930 . S
N104 C103 1.279 . S
N104 C107 1.314 1_565 S
C105 C102 1.348 . S
C105 C107 1.353 . S
C105 H161 0.929 . S
C106 C102 1.356 1_565 S
C106 C103 1.358 . S
C106 H162 0.930 . S
C107 N104 1.314 1_545 S
C107 C105 1.353 . S
C107 H163 0.930 . S
C108 N109 1.314 1_655 S
C108 C113 1.353 . S
C108 H114 0.930 . S
N109 Li92 1.990 . S
N109 C108 1.314 1_455 S
N109 C111 1.279 . S
C110 C111 1.358 . S
C110 C112 1.356 . S
C110 H164 0.930 . S
C111 N109 1.279 . S
C111 C110 1.358 . S
C111 H115 0.930 . S
C112 C110 1.356 . S
C112 C113 1.348 1_455 S
C113 C108 1.353 . S
C113 C112 1.348 1_655 S
C113 H165 0.929 . S
H114 C108 0.930 . S
H115 C111 0.930 . S
C116 N117 1.314 1_455 S
C116 C118 1.353 . S
C116 H122 0.930 . S
N117 Li93 1.990 . S
N117 C116 1.314 1_655 S
N117 C120 1.279 . S
C118 C116 1.353 . S
C118 C121 1.348 . S
C118 H166 0.929 . S
C119 C120 1.358 . S
C119 C121 1.356 1_655 S
C119 H167 0.930 . S
C120 N117 1.279 . S
C120 C119 1.358 . S
C120 H123 0.930 . S
C121 C118 1.348 . S
C121 C119 1.356 1_455 S
H122 C116 0.930 . S
H123 C120 0.930 . S
C124 C126 1.348 1_455 S
C124 C127 1.356 . S
C124 O154 1.325 1_455 S
N125 C128 1.314 1_455 S
N125 C129 1.279 . S
C126 C124 1.348 1_655 S
C126 C128 1.353 . S
C126 H168 0.929 . S
C127 C124 1.356 . S
C127 C129 1.358 . S
C127 H169 0.930 . S
C128 N125 1.314 1_655 S
C128 C126 1.353 . S
C128 H170 0.930 . S
C129 N125 1.279 . S
C129 C127 1.358 . S
C129 H171 0.930 . S
C130 C131 1.348 . S
C130 C132 1.356 1_455 S
C130 O155 1.325 . S
C131 C130 1.348 . S
C131 C133 1.353 . S
C131 H172 0.929 . S
C132 C130 1.356 1_655 S
C132 C134 1.358 . S
C132 H173 0.930 . S
C133 C131 1.353 . S
C133 N135 1.314 1_455 S
C133 H174 0.930 . S
C134 C132 1.358 . S
C134 N135 1.279 . S
C134 H175 0.930 . S
N135 C133 1.314 1_655 S
N135 C134 1.279 . S
C136 C138 1.353 . S
C136 N139 1.314 1_565 S
C136 H142 0.930 . S
C137 N139 1.279 . S
C137 C140 1.358 . S
C137 H143 0.930 . S
C138 C136 1.353 . S
C138 C141 1.348 1_565 S
C138 H176 0.929 . S
N139 Li94 1.990 . S
N139 C136 1.314 1_545 S
N139 C137 1.279 . S
C140 C137 1.358 . S
C140 C141 1.356 . S
C140 H177 0.930 . S
C141 C138 1.348 1_545 S
C141 C140 1.356 . S
H142 C136 0.930 . S
H143 C137 0.930 . S
C144 N145 1.314 1_545 S
C144 C146 1.353 . S
C144 H150 0.930 . S
N145 Li95 1.990 . S
N145 C144 1.314 1_565 S
N145 C148 1.279 . S
C146 C144 1.353 . S
C146 C149 1.348 . S
C146 H178 0.929 . S
C147 C148 1.358 . S
C147 C149 1.356 1_565 S
C147 H179 0.930 . S
C148 N145 1.279 . S
C148 C147 1.358 . S
C148 H151 0.930 . S
C149 C146 1.348 . S
C149 C147 1.356 1_545 S
H150 C144 0.930 . S
H151 C148 0.930 . S
O152 Li92 1.956 1_565 S
O152 Li93 1.970 1_455 S
O152 Li94 1.961 1_565 S
O152 C96 1.325 1_565 S
O153 Li92 1.970 1_655 S
O153 Li93 1.956 1_545 S
O153 Li95 1.961 1_545 S
O153 C102 1.325 . S
O154 Li92 1.961 1_655 S
O154 Li94 1.956 1_655 S
O154 Li95 1.970 1_545 S
O154 C124 1.325 1_655 S
O155 Li93 1.961 1_455 S
O155 Li94 1.970 1_565 S
O155 Li95 1.956 1_455 S
O155 C130 1.325 . S
H156 C98 0.929 . S
H157 C99 0.930 . S
H158 C100 0.930 . S
H159 C101 0.930 . S
H160 C103 0.930 . S
H161 C105 0.929 . S
H162 C106 0.930 . S
H163 C107 0.930 . S
H164 C110 0.930 . S
H165 C113 0.929 . S
H166 C118 0.929 . S
H167 C119 0.930 . S
H168 C126 0.929 . S
H169 C127 0.930 . S
H170 C128 0.930 . S
H171 C129 0.930 . S
H172 C131 0.929 . S
H173 C132 0.930 . S
H174 C133 0.930 . S
H175 C134 0.930 . S
H176 C138 0.929 . S
H177 C140 0.930 . S
H178 C146 0.929 . S
H179 C147 0.930 . S
Li180 N197 1.990 . S
Li180 O240 1.956 1_655 S
Li180 O241 1.970 1_545 S
Li180 O242 1.961 1_545 S
Li181 N205 1.990 . S
Li181 O240 1.970 1_565 S
Li181 O241 1.956 1_455 S
Li181 O243 1.961 1_565 S
Li182 N227 1.990 . S
Li182 O240 1.961 1_655 S
Li182 O242 1.956 1_545 S
Li182 O243 1.970 1_655 S
Li183 N233 1.990 . S
Li183 O241 1.961 1_455 S
Li183 O242 1.970 1_455 S
Li183 O243 1.956 1_565 S
C184 C186 1.348 . S
C184 C187 1.356 1_455 S
C184 O240 1.325 . S
N185 C188 1.314 1_655 S
N185 C189 1.279 . S
C186 C184 1.348 . S
C186 C188 1.353 . S
C186 H244 0.929 . S
C187 C184 1.356 1_655 S
C187 C189 1.358 . S
C187 H245 0.930 . S
C188 N185 1.314 1_455 S
C188 C186 1.353 . S
C188 H246 0.930 . S
C189 N185 1.279 . S
C189 C187 1.358 . S
C189 H247 0.930 . S
C190 C193 1.348 1_455 S
C190 C194 1.356 . S
C190 O241 1.325 1_455 S
C191 N192 1.279 . S
C191 C194 1.358 . S
C191 H248 0.930 . S
N192 C191 1.279 . S
N192 C195 1.314 1_455 S
C193 C190 1.348 1_655 S
C193 C195 1.353 . S
C193 H249 0.929 . S
C194 C190 1.356 . S
C194 C191 1.358 . S
C194 H250 0.930 . S
C195 N192 1.314 1_655 S
C195 C193 1.353 . S
C195 H251 0.930 . S
C196 N197 1.314 1_565 S
C196 C201 1.353 . S
C196 H202 0.930 . S
N197 Li180 1.990 . S
N197 C196 1.314 1_545 S
N197 C199 1.279 . S
C198 C199 1.358 . S
C198 C200 1.356 . S
C198 H252 0.930 . S
C199 N197 1.279 . S
C199 C198 1.358 . S
C199 H203 0.930 . S
C200 C198 1.356 . S
C200 C201 1.348 1_545 S
C201 C196 1.353 . S
C201 C200 1.348 1_565 S
C201 H253 0.929 . S
H202 C196 0.930 . S
H203 C199 0.930 . S
C204 N205 1.314 1_545 S
C204 C206 1.353 . S
C204 H210 0.930 . S
N205 Li181 1.990 . S
N205 C204 1.314 1_565 S
N205 C208 1.279 . S
C206 C204 1.353 . S
C206 C209 1.348 . S
C206 H254 0.929 . S
C207 C208 1.358 . S
C207 C209 1.356 1_565 S
C207 H255 0.930 . S
C208 N205 1.279 . S
C208 C207 1.358 . S
C208 H211 0.930 . S
C209 C206 1.348 . S
C209 C207 1.356 1_545 S
H210 C204 0.930 . S
H211 C208 0.930 . S
C212 C214 1.348 1_545 S
C212 C215 1.356 . S
C212 O242 1.325 1_545 S
N213 C216 1.314 1_545 S
N213 C217 1.279 . S
C214 C212 1.348 1_565 S
C214 C216 1.353 . S
C214 H256 0.929 . S
C215 C212 1.356 . S
C215 C217 1.358 . S
C215 H257 0.930 . S
C216 N213 1.314 1_565 S
C216 C214 1.353 . S
C216 H258 0.930 . S
C217 N213 1.279 . S
C217 C215 1.358 . S
C217 H259 0.930 . S
C218 C219 1.348 . S
C218 C220 1.356 1_545 S
C218 O243 1.325 . S
C219 C218 1.348 . S
C219 C221 1.353 . S
C219 H260 0.929 . S
C220 C218 1.356 1_565 S
C220 C222 1.358 . S
C220 H261 0.930 . S
C221 C219 1.353 . S
C221 N223 1.314 1_545 S
C221 H262 0.930 . S
C222 C220 1.358 . S
C222 N223 1.279 . S
C222 H263 0.930 . S
N223 C221 1.314 1_565 S
N223 C222 1.279 . S
C224 C226 1.353 . S
C224 N227 1.314 1_455 S
C224 H230 0.930 . S
C225 N227 1.279 . S
C225 C228 1.358 . S
C225 H231 0.930 . S
C226 C224 1.353 . S
C226 C229 1.348 . S
C226 H264 0.929 . S
N227 Li182 1.990 . S
N227 C224 1.314 1_655 S
N227 C225 1.279 . S
C228 C225 1.358 . S
C228 C229 1.356 1_655 S
C228 H265 0.930 . S
C229 C226 1.348 . S
C229 C228 1.356 1_455 S
H230 C224 0.930 . S
H231 C225 0.930 . S
C232 N233 1.314 1_655 S
C232 C234 1.353 . S
C232 H238 0.930 . S
N233 Li183 1.990 . S
N233 C232 1.314 1_455 S
N233 C236 1.279 . S
C234 C232 1.353 . S
C234 C237 1.348 1_655 S
C234 H266 0.929 . S
C235 C236 1.358 . S
C235 C237 1.356 . S
C235 H267 0.930 . S
C236 N233 1.279 . S
C236 C235 1.358 . S
C236 H239 0.930 . S
C237 C234 1.348 1_455 S
C237 C235 1.356 . S
H238 C232 0.930 . S
H239 C236 0.930 . S
O240 Li180 1.956 1_455 S
O240 Li181 1.970 1_545 S
O240 Li182 1.961 1_455 S
O240 C184 1.325 . S
O241 Li180 1.970 1_565 S
O241 Li181 1.956 1_655 S
O241 Li183 1.961 1_655 S
O241 C190 1.325 1_655 S
O242 Li180 1.961 1_565 S
O242 Li182 1.956 1_565 S
O242 Li183 1.970 1_655 S
O242 C212 1.325 1_565 S
O243 Li181 1.961 1_545 S
O243 Li182 1.970 1_455 S
O243 Li183 1.956 1_545 S
O243 C218 1.325 . S
H244 C186 0.929 . S
H245 C187 0.930 . S
H246 C188 0.930 . S
H247 C189 0.930 . S
H248 C191 0.930 . S
H249 C193 0.929 . S
H250 C194 0.930 . S
H251 C195 0.930 . S
H252 C198 0.930 . S
H253 C201 0.929 . S
H254 C206 0.929 . S
H255 C207 0.930 . S
H256 C214 0.929 . S
H257 C215 0.930 . S
H258 C216 0.930 . S
H259 C217 0.930 . S
H260 C219 0.929 . S
H261 C220 0.930 . S
H262 C221 0.930 . S
H263 C222 0.930 . S
H264 C226 0.929 . S
H265 C228 0.930 . S
H266 C234 0.929 . S
H267 C235 0.930 . S
C268 C269 1.348 . S
C268 C270 1.327 . S
C268 H293 0.950 . S
C269 C268 1.348 . S
C269 C285 1.350 1_545 S
C270 C268 1.327 . S
C270 C289 1.429 1_545 S
C270 H294 0.950 . S
C271 C288 1.574 . S
C271 C290 1.371 . S
C271 H295 0.949 . S
H272 C276 0.949 . S
C273 C274 1.363 . S
C273 C275 1.327 . S
C273 H296 0.950 . S
C274 C273 1.363 . S
C274 C286 1.335 1_565 S
C275 C273 1.327 . S
C275 C291 1.438 . S
C275 H297 0.950 . S
C276 H272 0.949 . S
C276 C284 1.574 . S
C276 C292 1.361 1_545 S
H277 C285 0.950 . S
H278 C283 0.950 . S
H279 C284 0.949 . S
H280 C286 0.950 . S
H281 C287 0.950 . S
H282 C288 0.949 . S
C283 H278 0.950 . S
C283 C285 1.327 . S
C283 C289 1.429 . S
C284 C276 1.574 . S
C284 H279 0.949 . S
C284 C290 1.366 1_545 S
C285 C269 1.350 1_565 S
C285 H277 0.950 . S
C285 C283 1.327 . S
C286 C274 1.335 1_545 S
C286 H280 0.950 . S
C286 C287 1.327 . S
C287 H281 0.950 . S
C287 C286 1.327 . S
C287 C291 1.419 1_545 S
C288 C271 1.574 . S
C288 H282 0.949 . S
C288 C292 1.376 . S
C289 C270 1.429 1_565 S
C289 C283 1.429 . S
C289 C290 1.523 . S
C290 C271 1.371 . S
C290 C284 1.366 1_565 S
C290 C289 1.523 . S
C291 C275 1.438 . S
C291 C287 1.419 1_565 S
C291 C292 1.523 . S
C292 C276 1.361 1_565 S
C292 C288 1.376 . S
C292 C291 1.523 . S
H293 C268 0.950 . S
H294 C270 0.950 . S
H295 C271 0.949 . S
H296 C273 0.950 . S
H297 C275 0.950 . S
C298 C299 1.347 1_655 S
C298 C300 1.327 . S
C298 H323 0.950 . S
C299 C298 1.347 1_455 S
C299 C315 1.350 . S
C300 C298 1.327 . S
C300 C319 1.422 1_655 S
C300 H324 0.950 . S
C301 C318 1.574 . S
C301 C320 1.379 . S
C301 H325 0.949 . S
H302 C306 0.949 . S
C303 C304 1.374 . S
C303 C305 1.327 . S
C303 H326 0.950 . S
C304 C303 1.374 . S
C304 C316 1.324 1_455 S
C305 C303 1.327 . S
C305 C321 1.447 . S
C305 H327 0.950 . S
C306 H302 0.949 . S
C306 C314 1.574 . S
C306 C322 1.351 1_655 S
H307 C315 0.950 . S
H308 C313 0.950 . S
H309 C314 0.949 . S
H310 C316 0.950 . S
H311 C317 0.950 . S
H312 C318 0.949 . S
C313 H308 0.950 . S
C313 C315 1.327 . S
C313 C319 1.436 . S
C314 C306 1.574 . S
C314 H309 0.949 . S
C314 C320 1.357 1_655 S
C315 C299 1.350 . S
C315 H307 0.950 . S
C315 C313 1.327 . S
C316 C304 1.324 1_655 S
C316 H310 0.950 . S
C316 C317 1.327 . S
C317 H311 0.950 . S
C317 C316 1.327 . S
C317 C321 1.410 1_655 S
C318 C301 1.574 . S
C318 H312 0.949 . S
C318 C322 1.385 . S
C319 C300 1.422 1_455 S
C319 C313 1.436 . S
C319 C320 1.523 . S
C320 C301 1.379 . S
C320 C314 1.357 1_455 S
C320 C319 1.523 . S
C321 C305 1.447 . S
C321 C317 1.410 1_455 S
C321 C322 1.523 . S
C322 C306 1.351 1_455 S
C322 C318 1.385 . S
C322 C321 1.523 . S
H323 C298 0.950 . S
H324 C300 0.950 . S
H325 C301 0.949 . S
H326 C303 0.950 . S
H327 C305 0.950 . S
C328 C329 1.350 . S
C328 C330 1.327 . S
C328 H353 0.950 . S
C329 C328 1.350 . S
C329 C345 1.348 1_545 S
C330 C328 1.327 . S
C330 C349 1.434 . S
C330 H354 0.950 . S
C331 C348 1.574 . S
C331 C350 1.359 1_565 S
C331 H355 0.949 . S
H332 C336 0.949 . S
C333 C334 1.328 1_565 S
C333 C335 1.327 . S
C333 H356 0.950 . S
C334 C333 1.328 1_545 S
C334 C346 1.369 . S
C335 C333 1.327 . S
C335 C351 1.413 1_565 S
C335 H357 0.950 . S
C336 H332 0.949 . S
C336 C344 1.574 . S
C336 C352 1.382 . S
H337 C345 0.950 . S
H338 C343 0.950 . S
H339 C344 0.949 . S
H340 C346 0.950 . S
H341 C347 0.950 . S
H342 C348 0.949 . S
C343 H338 0.950 . S
C343 C345 1.327 . S
C343 C349 1.423 1_565 S
C344 C336 1.574 . S
C344 H339 0.949 . S
C344 C350 1.377 . S
C345 C329 1.348 1_565 S
C345 H337 0.950 . S
C345 C343 1.327 . S
C346 C334 1.369 . S
C346 H340 0.950 . S
C346 C347 1.327 . S
C347 H341 0.950 . S
C347 C346 1.327 . S
C347 C351 1.444 . S
C348 C331 1.574 . S
C348 H342 0.949 . S
C348 C352 1.354 1_565 S
C349 C330 1.434 . S
C349 C343 1.423 1_545 S
C349 C350 1.523 . S
C350 C331 1.359 1_545 S
C350 C344 1.377 . S
C350 C349 1.523 . S
C351 C335 1.413 1_545 S
C351 C347 1.444 . S
C351 C352 1.523 . S
C352 C336 1.382 . S
C352 C348 1.354 1_545 S
C352 C351 1.523 . S
H353 C328 0.950 . S
H354 C330 0.950 . S
H355 C331 0.949 . S
H356 C333 0.950 . S
H357 C335 0.950 . S
C358 C359 1.348 . S
C358 C360 1.327 . S
C358 H383 0.950 . S
C359 C358 1.348 . S
C359 C375 1.350 1_455 S
C360 C358 1.327 . S
C360 C379 1.429 1_455 S
C360 H384 0.950 . S
C361 C378 1.574 . S
C361 C380 1.370 . S
C361 H385 0.949 . S
H362 C366 0.949 . S
C363 C364 1.360 . S
C363 C365 1.327 . S
C363 H386 0.950 . S
C364 C363 1.360 . S
C364 C376 1.338 1_655 S
C365 C363 1.327 . S
C365 C381 1.436 . S
C365 H387 0.950 . S
C366 H362 0.949 . S
C366 C374 1.574 . S
C366 C382 1.363 1_455 S
H367 C375 0.950 . S
H368 C373 0.950 . S
H369 C374 0.949 . S
H370 C376 0.950 . S
H371 C377 0.950 . S
H372 C378 0.949 . S
C373 H368 0.950 . S
C373 C375 1.327 . S
C373 C379 1.429 . S
C374 C366 1.574 . S
C374 H369 0.949 . S
C374 C380 1.366 1_455 S
C375 C359 1.350 1_655 S
C375 H367 0.950 . S
C375 C373 1.327 . S
C376 C364 1.338 1_455 S
C376 H370 0.950 . S
C376 C377 1.327 . S
C377 H371 0.950 . S
C377 C376 1.327 . S
C377 C381 1.422 1_455 S
C378 C361 1.574 . S
C378 H372 0.949 . S
C378 C382 1.374 . S
C379 C360 1.429 1_655 S
C379 C373 1.429 . S
C379 C380 1.523 . S
C380 C361 1.370 . S
C380 C374 1.366 1_655 S
C380 C379 1.523 . S
C381 C365 1.436 . S
C381 C377 1.422 1_655 S
C381 C382 1.523 . S
C382 C366 1.363 1_655 S
C382 C378 1.374 . S
C382 C381 1.523 . S
H383 C358 0.950 . S
H384 C360 0.950 . S
H385 C361 0.949 . S
H386 C363 0.950 . S
H387 C365 0.950 . S
C388 C389 1.350 . S
C388 C390 1.327 . S
C388 H413 0.950 . S
C389 C388 1.350 . S
C389 C405 1.348 1_545 S
C390 C388 1.327 . S
C390 C409 1.434 . S
C390 H414 0.950 . S
C391 C408 1.574 . S
C391 C410 1.359 1_565 S
C391 H415 0.949 . S
H392 C396 0.949 . S
C393 C394 1.329 1_565 S
C393 C395 1.327 . S
C393 H416 0.950 . S
C394 C393 1.329 1_545 S
C394 C406 1.369 . S
C395 C393 1.327 . S
C395 C411 1.414 1_565 S
C395 H417 0.950 . S
C396 H392 0.949 . S
C396 C404 1.574 . S
C396 C412 1.382 . S
H397 C405 0.950 . S
H398 C403 0.950 . S
H399 C404 0.949 . S
H400 C406 0.950 . S
H401 C407 0.950 . S
H402 C408 0.949 . S
C403 H398 0.950 . S
C403 C405 1.327 . S
C403 C409 1.423 1_565 S
C404 C396 1.574 . S
C404 H399 0.949 . S
C404 C410 1.377 . S
C405 C389 1.348 1_565 S
C405 H397 0.950 . S
C405 C403 1.327 . S
C406 C394 1.369 . S
C406 H400 0.950 . S
C406 C407 1.327 . S
C407 H401 0.950 . S
C407 C406 1.327 . S
C407 C411 1.444 . S
C408 C391 1.574 . S
C408 H402 0.949 . S
C408 C412 1.355 1_565 S
C409 C390 1.434 . S
C409 C403 1.423 1_545 S
C409 C410 1.523 . S
C410 C391 1.359 1_545 S
C410 C404 1.377 . S
C410 C409 1.523 . S
C411 C395 1.414 1_545 S
C411 C407 1.444 . S
C411 C412 1.523 . S
C412 C396 1.382 . S
C412 C408 1.355 1_545 S
C412 C411 1.523 . S
H413 C388 0.950 . S
H414 C390 0.950 . S
H415 C391 0.949 . S
H416 C393 0.950 . S
H417 C395 0.950 . S
C418 C419 1.350 1_655 S
C418 C420 1.327 . S
C418 H443 0.950 . S
C419 C418 1.350 1_455 S
C419 C435 1.348 . S
C420 C418 1.327 . S
C420 C439 1.429 . S
C420 H444 0.950 . S
C421 C438 1.574 . S
C421 C440 1.367 1_455 S
C421 H445 0.949 . S
H422 C426 0.949 . S
C423 C424 1.340 1_455 S
C423 C425 1.327 . S
C423 H446 0.950 . S
C424 C423 1.340 1_655 S
C424 C436 1.358 . S
C425 C423 1.327 . S
C425 C441 1.423 1_455 S
C425 H447 0.950 . S
C426 H422 0.949 . S
C426 C434 1.574 . S
C426 C442 1.373 . S
H427 C435 0.950 . S
H428 C433 0.950 . S
H429 C434 0.949 . S
H430 C436 0.950 . S
H431 C437 0.950 . S
H432 C438 0.949 . S
C433 H428 0.950 . S
C433 C435 1.327 . S
C433 C439 1.429 1_455 S
C434 C426 1.574 . S
C434 H429 0.949 . S
C434 C440 1.370 . S
C435 C419 1.348 . S
C435 H427 0.950 . S
C435 C433 1.327 . S
C436 C424 1.358 . S
C436 H430 0.950 . S
C436 C437 1.327 . S
C437 H431 0.950 . S
C437 C436 1.327 . S
C437 C441 1.434 . S
C438 C421 1.574 . S
C438 H432 0.949 . S
C438 C442 1.364 1_455 S
C439 C420 1.429 . S
C439 C433 1.429 1_655 S
C439 C440 1.523 . S
C440 C421 1.367 1_655 S
C440 C434 1.370 . S
C440 C439 1.523 . S
C441 C425 1.423 1_655 S
C441 C437 1.434 . S
C441 C442 1.523 . S
C442 C426 1.373 . S
C442 C438 1.364 1_655 S
C442 C441 1.523 . S
H443 C418 0.950 . S
H444 C420 0.950 . S
H445 C421 0.949 . S
H446 C423 0.950 . S
H447 C425 0.950 . S
C448 C449 1.348 . S
C448 C450 1.327 . S
C448 H473 0.950 . S
C449 C448 1.348 . S
C449 C465 1.350 1_545 S
C450 C448 1.327 . S
C450 C469 1.429 1_545 S
C450 H474 0.950 . S
C451 C468 1.574 . S
C451 C470 1.371 . S
C451 H475 0.949 . S
H452 C456 0.949 . S
C453 C454 1.363 . S
C453 C455 1.327 . S
C453 H476 0.950 . S
C454 C453 1.363 . S
C454 C466 1.334 1_565 S
C455 C453 1.327 . S
C455 C471 1.438 . S
C455 H477 0.950 . S
C456 H452 0.949 . S
C456 C464 1.574 . S
C456 C472 1.361 1_545 S
H457 C465 0.950 . S
H458 C463 0.950 . S
H459 C464 0.949 . S
H460 C466 0.950 . S
H461 C467 0.950 . S
H462 C468 0.949 . S
C463 H458 0.950 . S
C463 C465 1.327 . S
C463 C469 1.429 . S
C464 C456 1.574 . S
C464 H459 0.949 . S
C464 C470 1.366 1_545 S
C465 C449 1.350 1_565 S
C465 H457 0.950 . S
C465 C463 1.327 . S
C466 C454 1.334 1_545 S
C466 H460 0.950 . S
C466 C467 1.327 . S
C467 H461 0.950 . S
C467 C466 1.327 . S
C467 C471 1.419 1_545 S
C468 C451 1.574 . S
C468 H462 0.949 . S
C468 C472 1.376 . S
C469 C450 1.429 1_565 S
C469 C463 1.429 . S
C469 C470 1.523 . S
C470 C451 1.371 . S
C470 C464 1.366 1_565 S
C470 C469 1.523 . S
C471 C455 1.438 . S
C471 C467 1.419 1_565 S
C471 C472 1.523 . S
C472 C456 1.361 1_565 S
C472 C468 1.376 . S
C472 C471 1.523 . S
H473 C448 0.950 . S
H474 C450 0.950 . S
H475 C451 0.949 . S
H476 C453 0.950 . S
H477 C455 0.950 . S
C478 C479 1.349 . S
C478 C480 1.327 . S
C478 H503 0.950 . S
C479 C478 1.349 . S
C479 C495 1.349 1_455 S
C480 C478 1.327 . S
C480 C499 1.430 . S
C480 H504 0.950 . S
C481 C498 1.574 . S
C481 C500 1.367 1_655 S
C481 H505 0.949 . S
H482 C486 0.949 . S
C483 C484 1.346 1_655 S
C483 C485 1.327 . S
C483 H506 0.950 . S
C484 C483 1.346 1_455 S
C484 C496 1.353 . S
C485 C483 1.327 . S
C485 C501 1.426 1_655 S
C485 H507 0.950 . S
C486 H482 0.949 . S
C486 C494 1.574 . S
C486 C502 1.371 . S
H487 C495 0.950 . S
H488 C493 0.950 . S
H489 C494 0.949 . S
H490 C496 0.950 . S
H491 C497 0.950 . S
H492 C498 0.949 . S
C493 H488 0.950 . S
C493 C495 1.327 . S
C493 C499 1.428 1_655 S
C494 C486 1.574 . S
C494 H489 0.949 . S
C494 C500 1.370 . S
C495 C479 1.349 1_655 S
C495 H487 0.950 . S
C495 C493 1.327 . S
C496 C484 1.353 . S
C496 H490 0.950 . S
C496 C497 1.327 . S
C497 H491 0.950 . S
C497 C496 1.327 . S
C497 C501 1.431 . S
C498 C481 1.574 . S
C498 H492 0.949 . S
C498 C502 1.366 1_655 S
C499 C480 1.430 . S
C499 C493 1.428 1_455 S
C499 C500 1.523 . S
C500 C481 1.367 1_455 S
C500 C494 1.370 . S
C500 C499 1.523 . S
C501 C485 1.426 1_455 S
C501 C497 1.431 . S
C501 C502 1.523 . S
C502 C486 1.371 . S
C502 C498 1.366 1_455 S
C502 C501 1.523 . S
H503 C478 0.950 . S
H504 C480 0.950 . S
H505 C481 0.949 . S
H506 C483 0.950 . S
H507 C485 0.950 . S
C274 C141 1.490 1_565 S
C269 C15 1.483 . S
C304 C229 1.490 . S
C299 C68 1.486 1_455 S
C334 C149 1.490 . S
C329 C8 1.487 . S
C364 C237 1.490 1_655 S
C359 C47 1.491 1_455 S
C394 C209 1.490 . S
C389 C22 1.491 1_545 S
C424 C112 1.490 1_655 S
C419 C61 1.486 . S
C454 C200 1.490 1_565 S
C449 C1 1.495 1_545 S
C479 C54 1.489 . S
C484 C121 1.492 . S
