# Generated by pormake.
# Topology zzz, (3,6)-cn, num edge types: 1
# Building blocks:
#     Node 0, Type 0, BuildingBlock: BETDAH_clean_linker_0, # of connection points: 3
#     Node 1, Type 0, BuildingBlock: BETDAH_clean_linker_0, # of connection points: 3
#     Node 2, Type 0, BuildingBlock: BETDAH_clean_linker_0, # of connection points: 3
#     Node 3, Type 0, BuildingBlock: BETDAH_clean_linker_0, # of connection points: 3
#     Node 4, Type 0, BuildingBlock: BETDAH_clean_linker_0, # of connection points: 3
#     Node 5, Type 0, BuildingBlock: BETDAH_clean_linker_0, # of connection points: 3
#     Node 6, Type 0, BuildingBlock: BETDAH_clean_linker_0, # of connection points: 3
#     Node 7, Type 0, BuildingBlock: BETDAH_clean_linker_0, # of connection points: 3
#     Node 8, Type 1, BuildingBlock: CIFDUS_clean_sbu_1, # of connection points: 6
#     Node 9, Type 1, BuildingBlock: CIFDUS_clean_sbu_1, # of connection points: 6
#     Node 10, Type 1, BuildingBlock: CIFDUS_clean_sbu_1, # of connection points: 6
#     Node 11, Type 1, BuildingBlock: CIFDUS_clean_sbu_1, # of connection points: 6
#     Edge 12, Type (0, 1), BuildingBlock: TEMPAE_clean_linker_10, # of connection points: 2
#     Edge 13, Type (0, 1), BuildingBlock: TEMPAE_clean_linker_10, # of connection points: 2
#     Edge 14, Type (0, 1), BuildingBlock: TEMPAE_clean_linker_10, # of connection points: 2
#     Edge 15, Type (0, 1), BuildingBlock: TEMPAE_clean_linker_10, # of connection points: 2
#     Edge 16, Type (0, 1), BuildingBlock: TEMPAE_clean_linker_10, # of connection points: 2
#     Edge 17, Type (0, 1), BuildingBlock: TEMPAE_clean_linker_10, # of connection points: 2
#     Edge 18, Type (0, 1), BuildingBlock: TEMPAE_clean_linker_10, # of connection points: 2
#     Edge 19, Type (0, 1), BuildingBlock: TEMPAE_clean_linker_10, # of connection points: 2
#     Edge 20, Type (0, 1), BuildingBlock: TEMPAE_clean_linker_10, # of connection points: 2
#     Edge 21, Type (0, 1), BuildingBlock: TEMPAE_clean_linker_10, # of connection points: 2
#     Edge 22, Type (0, 1), BuildingBlock: TEMPAE_clean_linker_10, # of connection points: 2
#     Edge 23, Type (0, 1), BuildingBlock: TEMPAE_clean_linker_10, # of connection points: 2
#     Edge 24, Type (0, 1), BuildingBlock: TEMPAE_clean_linker_10, # of connection points: 2
#     Edge 25, Type (0, 1), BuildingBlock: TEMPAE_clean_linker_10, # of connection points: 2
#     Edge 26, Type (0, 1), BuildingBlock: TEMPAE_clean_linker_10, # of connection points: 2
#     Edge 27, Type (0, 1), BuildingBlock: TEMPAE_clean_linker_10, # of connection points: 2
#     Edge 28, Type (0, 1), BuildingBlock: TEMPAE_clean_linker_10, # of connection points: 2
#     Edge 29, Type (0, 1), BuildingBlock: TEMPAE_clean_linker_10, # of connection points: 2
#     Edge 30, Type (0, 1), BuildingBlock: TEMPAE_clean_linker_10, # of connection points: 2
#     Edge 31, Type (0, 1), BuildingBlock: TEMPAE_clean_linker_10, # of connection points: 2
#     Edge 32, Type (0, 1), BuildingBlock: TEMPAE_clean_linker_10, # of connection points: 2
#     Edge 33, Type (0, 1), BuildingBlock: TEMPAE_clean_linker_10, # of connection points: 2
#     Edge 34, Type (0, 1), BuildingBlock: TEMPAE_clean_linker_10, # of connection points: 2
#     Edge 35, Type (0, 1), BuildingBlock: TEMPAE_clean_linker_10, # of connection points: 2
# Relax obj value: 0.140
# Max RMSD: 0.186
# Mean RMSD: 0.107
data_MOF--net-zzz--node1-CIFDUS_clean_sbu_1--node2-BETDAH_clean_linker_0--edge1-TEMPAE_clean_linker_10
_symmetry_space_group_name_H-M    P1
_symmetry_Int_Tables_number       1
_symmetry_cell_setting            triclinic
loop_
_symmetry_equiv_pos_as_xyz
'x, y, z'
_cell_length_a     50.863867
_cell_length_b     50.904703
_cell_length_c     16.166733
_cell_angle_alpha  90.256267
_cell_angle_beta   89.761537
_cell_angle_gamma 89.934268
loop_
_atom_site_label
_atom_site_type_symbol
_atom_site_fract_x
_atom_site_fract_y
_atom_site_fract_z
_atom_type_partial_charge
H0 H 0.84739 0.57214 0.12658 0.0
H1 H 0.77012 0.55856 0.03286 0.0
H2 H 0.78505 0.5509 0.29383 0.0
C3 C 0.8267 0.56855 0.13881 0.0
C4 C 0.81883 0.56105 0.21828 0.0
C5 C 0.80963 0.56616 0.0717 0.0
C6 C 0.78297 0.56114 0.08553 0.0
C7 C 0.77357 0.55727 0.16657 0.0
C8 C 0.79178 0.55645 0.23272 0.0
N9 N 0.74646 0.55191 0.18198 0.0
C10 C 0.72701 0.55176 0.12098 0.0
H11 H 0.95407 0.84476 0.12267 0.0
H12 H 0.96769 0.76771 0.02506 0.0
H13 H 0.97316 0.7818 0.28784 0.0
C14 C 0.9569 0.82389 0.13362 0.0
C15 C 0.96315 0.81559 0.21324 0.0
C16 C 0.95961 0.80697 0.06589 0.0
C17 C 0.96473 0.78033 0.07843 0.0
C18 C 0.96825 0.77065 0.15904 0.0
C19 C 0.96808 0.78859 0.22654 0.0
N20 N 0.97421 0.7436 0.17252 0.0
C21 C 0.97546 0.72465 0.10947 0.0
H22 H 0.68462 0.97356 0.13634 0.0
H23 H 0.7615 0.96445 0.03229 0.0
H24 H 0.75148 0.97435 0.29703 0.0
C25 C 0.70571 0.97214 0.14536 0.0
C26 C 0.71563 0.97303 0.2254 0.0
C27 C 0.72186 0.96747 0.07686 0.0
C28 C 0.74913 0.96755 0.08612 0.0
C29 C 0.7601 0.9709 0.16563 0.0
C30 C 0.74319 0.97313 0.23553 0.0
N31 N 0.78786 0.9711 0.17724 0.0
C32 C 0.80628 0.97009 0.11285 0.0
H33 H 0.56204 0.67977 0.16866 0.0
H34 H 0.56407 0.75463 0.04768 0.0
H35 H 0.55272 0.74995 0.3129 0.0
C36 C 0.56191 0.70109 0.17241 0.0
C37 C 0.55733 0.71288 0.24867 0.0
C38 C 0.56448 0.71587 0.10029 0.0
C39 C 0.56273 0.74335 0.10417 0.0
C40 C 0.55909 0.75597 0.18134 0.0
C41 C 0.55632 0.74052 0.25374 0.0
N42 N 0.55764 0.7839 0.18817 0.0
C43 C 0.557 0.80152 0.12189 0.0
H44 H 0.18383 0.44969 0.27322 0.0
H45 H 0.25816 0.46289 0.3892 0.0
H46 H 0.24962 0.47457 0.12647 0.0
C47 C 0.20474 0.45366 0.26773 0.0
C48 C 0.21451 0.46235 0.19185 0.0
C49 C 0.21989 0.45526 0.3394 0.0
C50 C 0.2467 0.46118 0.33316 0.0
C51 C 0.25803 0.46663 0.25543 0.0
C52 C 0.24161 0.46788 0.18488 0.0
N53 N 0.28522 0.47302 0.24776 0.0
C54 C 0.3028 0.47436 0.31401 0.0
H55 H 0.07232 0.17974 0.28038 0.0
H56 H 0.06218 0.25557 0.38996 0.0
H57 H 0.06022 0.24673 0.12415 0.0
C58 C 0.071 0.20087 0.27228 0.0
C59 C 0.0673 0.21099 0.19309 0.0
C60 C 0.06861 0.21673 0.34256 0.0
C61 C 0.06486 0.24375 0.33466 0.0
C62 C 0.06285 0.25504 0.25567 0.0
C63 C 0.06333 0.23841 0.18486 0.0
N64 N 0.05884 0.28263 0.24636 0.0
C65 C 0.05792 0.30065 0.31215 0.0
H66 H 0.34711 0.07852 0.28172 0.0
H67 H 0.27364 0.05872 0.39367 0.0
H68 H 0.28053 0.06116 0.12821 0.0
C69 C 0.32609 0.07549 0.27473 0.0
C70 C 0.31596 0.07086 0.19589 0.0
C71 C 0.31141 0.06937 0.34523 0.0
C72 C 0.28459 0.06397 0.33858 0.0
C73 C 0.27279 0.06264 0.2602 0.0
C74 C 0.28889 0.06483 0.18868 0.0
N75 N 0.24548 0.05684 0.25186 0.0
C76 C 0.22778 0.05507 0.31823 0.0
H77 H 0.45178 0.34356 0.2898 0.0
H78 H 0.47281 0.26887 0.3899 0.0
H79 H 0.46115 0.2771 0.12792 0.0
C80 C 0.4537 0.32245 0.281 0.0
C81 C 0.45539 0.31252 0.20062 0.0
C82 C 0.46231 0.30736 0.34769 0.0
C83 C 0.4659 0.28029 0.33798 0.0
C84 C 0.46349 0.26874 0.25918 0.0
C85 C 0.45982 0.28527 0.18977 0.0
N86 N 0.46719 0.24118 0.24718 0.0
C87 C 0.46987 0.22279 0.31088 0.0
O88 O 0.024 0.04027 0.80067 0.0
Mn89 Mn 0.01629 0.01156 0.71038 0.0
O90 O 0.99042 0.06906 0.78875 0.0
Mn91 Mn 0.9714 0.05086 0.70794 0.0
O92 O 0.00858 0.98261 0.61947 0.0
O93 O 0.05636 0.0067 0.69433 0.0
Mn94 Mn 0.06104 0.97295 0.71417 0.0
O95 O 0.01206 0.98223 0.79852 0.0
O96 O 0.04284 0.95489 0.63252 0.0
O97 O 0.02019 0.04075 0.62189 0.0
O98 O 0.98053 0.05709 0.59964 0.0
O99 O 0.0939 0.98459 0.69273 0.0
O100 O 0.05147 0.9656 0.82131 0.0
C101 C 0.95144 0.01667 0.74557 0.0
C102 C 0.01213 0.06176 0.82101 0.0
C103 C 0.02082 0.96116 0.60026 0.0
C104 C 0.08182 0.00665 0.68072 0.0
C105 C 0.02718 0.96664 0.8376 0.0
C106 C 0.00473 0.05579 0.5819 0.0
O107 O 0.97655 0.01714 0.72782 0.0
O108 O 0.93889 0.03843 0.73304 0.0
O109 O 0.54523 0.00612 0.80642 0.0
Mn110 Mn 0.51644 0.01254 0.71965 0.0
O111 O 0.56662 0.04261 0.82993 0.0
Mn112 Mn 0.55811 0.05162 0.72342 0.0
O113 O 0.48696 0.01749 0.63176 0.0
O114 O 0.50988 0.97258 0.74406 0.0
Mn115 Mn 0.47589 0.97181 0.72027 0.0
O116 O 0.48892 0.0234 0.81137 0.0
O117 O 0.47255 0.9775 0.60937 0.0
O118 O 0.5438 0.00184 0.62757 0.0
O119 O 0.57523 0.03262 0.64113 0.0
O120 O 0.48195 0.9387 0.74994 0.0
O121 O 0.45702 0.99351 0.79228 0.0
C122 C 0.52981 0.07781 0.6845 0.0
C123 C 0.56259 0.0188 0.84599 0.0
C124 C 0.47292 0.00142 0.59036 0.0
C125 C 0.5057 0.94743 0.75937 0.0
C126 C 0.46588 0.01413 0.82726 0.0
C127 C 0.56603 0.01204 0.60676 0.0
O128 O 0.52395 0.05271 0.69675 0.0
O129 O 0.55312 0.08562 0.70557 0.0
O130 O 0.51164 0.53952 0.811 0.0
Mn131 Mn 0.51487 0.51084 0.72151 0.0
O132 O 0.49158 0.56977 0.73689 0.0
Mn133 Mn 0.47969 0.54626 0.65822 0.0
O134 O 0.51866 0.48079 0.63311 0.0
O135 O 0.55364 0.50858 0.76111 0.0
Mn136 Mn 0.55925 0.47437 0.76191 0.0
O137 O 0.5021 0.48237 0.80793 0.0
O138 O 0.55763 0.46218 0.65594 0.0
O139 O 0.5297 0.53943 0.63551 0.0
O140 O 0.49616 0.5488 0.55804 0.0
O141 O 0.5902 0.48701 0.79573 0.0
O142 O 0.53762 0.45811 0.83822 0.0
C143 C 0.44999 0.52103 0.66831 0.0
C144 C 0.50451 0.56313 0.79994 0.0
C145 C 0.53656 0.46386 0.6151 0.0
C146 C 0.57817 0.50927 0.78673 0.0
C147 C 0.51341 0.46358 0.84747 0.0
C148 C 0.52045 0.55006 0.56971 0.0
O149 O 0.47416 0.51269 0.68714 0.0
O150 O 0.44562 0.54559 0.65178 0.0
O151 O 0.04466 0.50688 0.80463 0.0
Mn152 Mn 0.01497 0.5122 0.71477 0.0
O153 O 0.0707 0.54203 0.78562 0.0
Mn154 Mn 0.0515 0.55777 0.7027 0.0
O155 O 0.9854 0.51728 0.62483 0.0
O156 O 0.01199 0.47167 0.70176 0.0
Mn157 Mn 0.97866 0.46587 0.72679 0.0
O158 O 0.98561 0.51609 0.80398 0.0
O159 O 0.95911 0.48231 0.64485 0.0
O160 O 0.04424 0.50795 0.62628 0.0
O161 O 0.0608 0.54696 0.59796 0.0
O162 O 0.99145 0.43333 0.70714 0.0
O163 O 0.97172 0.47619 0.83369 0.0
C164 C 0.01789 0.57871 0.73532 0.0
C165 C 0.06567 0.5202 0.82072 0.0
C166 C 0.96439 0.50397 0.60873 0.0
C167 C 0.0127 0.44613 0.68926 0.0
C168 C 0.97112 0.50068 0.84629 0.0
C169 C 0.05986 0.5225 0.58514 0.0
O170 O 0.01773 0.55294 0.72611 0.0
O171 O 0.03973 0.59069 0.71845 0.0
C172 C 0.20158 0.0287 0.41713 0.0
C173 C 0.20799 0.05314 0.38327 0.0
C174 C 0.18065 0.02616 0.47399 0.0
C175 C 0.16562 0.0486 0.49699 0.0
C176 C 0.17309 0.07354 0.4662 0.0
C177 C 0.19411 0.07549 0.40936 0.0
C178 C 0.17403 -0.00073 0.50705 0.0
C179 C 0.1584 0.09806 0.49161 0.0
C180 C 0.09508 0.0312 0.55583 0.0
C181 C 0.09715 0.02788 0.6415 0.0
C182 C 0.1168 0.03975 0.50852 0.0
C183 C 0.14104 0.04542 0.54798 0.0
C184 C 0.14217 0.04496 0.63554 0.0
C185 C 0.1203 0.03599 0.68099 0.0
C186 C 0.11457 0.04005 0.41549 0.0
C187 C 0.16718 0.05123 0.6814 0.0
H188 H 0.21251 0.01144 0.39753 0.0
H189 H 0.1993 0.09445 0.38377 0.0
H190 H 0.17245 -0.00015 0.57549 0.0
H191 H 0.15465 0.99296 0.48271 0.0
H192 H 0.18898 0.98431 0.48938 0.0
H193 H 0.16793 0.11616 0.46789 0.0
H194 H 0.138 0.09719 0.46774 0.0
H195 H 0.1571 0.09936 0.56005 0.0
H196 H 0.07755 0.02428 0.52467 0.0
H197 H 0.12223 0.03289 0.74704 0.0
H198 H 0.1263 0.02362 0.38901 0.0
H199 H 0.12268 0.05859 0.39023 0.0
H200 H 0.09389 0.03793 0.39463 0.0
H201 H 0.17959 0.03331 0.68415 0.0
H202 H 0.16295 0.05761 0.74593 0.0
H203 H 0.17867 0.0668 0.64995 0.0
C204 C 0.47021 0.17554 0.34478 0.0
C205 C 0.47288 0.20166 0.37071 0.0
C206 C 0.47478 0.15455 0.39942 0.0
C207 C 0.4823 0.15972 0.48232 0.0
C208 C 0.48392 0.18627 0.50957 0.0
C209 C 0.47928 0.20692 0.45332 0.0
C210 C 0.47304 0.12677 0.36699 0.0
C211 C 0.49199 0.19295 0.59686 0.0
C212 C 0.4883 0.10167 0.63475 0.0
C213 C 0.51526 0.09605 0.62857 0.0
C214 C 0.47704 0.12243 0.588 0.0
C215 C 0.49312 0.13779 0.53438 0.0
C216 C 0.52014 0.13165 0.52743 0.0
C217 C 0.53062 0.11093 0.5734 0.0
C218 C 0.44814 0.12839 0.59732 0.0
C219 C 0.5383 0.14721 0.47182 0.0
H220 H 0.46523 0.17148 0.28082 0.0
H221 H 0.48134 0.22715 0.4735 0.0
H222 H 0.49301 0.118 0.36421 0.0
H223 H 0.46106 0.11454 0.40941 0.0
H224 H 0.4643 0.12585 0.30418 0.0
H225 H 0.48802 0.21387 0.61243 0.0
H226 H 0.48151 0.18029 0.64187 0.0
H227 H 0.51336 0.18927 0.60412 0.0
H228 H 0.47631 0.09058 0.67777 0.0
H229 H 0.55144 0.10668 0.5673 0.0
H230 H 0.43838 0.12734 0.53616 0.0
H231 H 0.44551 0.14873 0.62099 0.0
H232 H 0.43816 0.11459 0.64021 0.0
H233 H 0.5318 0.14545 0.40662 0.0
H234 H 0.55905 0.14049 0.47564 0.0
H235 H 0.5376 0.16834 0.48875 0.0
C236 C 0.34438 0.49291 0.36532 0.0
C237 C 0.32251 0.47685 0.3785 0.0
C238 C 0.36398 0.49562 0.42589 0.0
C239 C 0.36181 0.4817 0.50154 0.0
C240 C 0.33956 0.46546 0.51513 0.0
C241 C 0.3201 0.46328 0.45337 0.0
C242 C 0.38692 0.51367 0.4091 0.0
C243 C 0.33624 0.45055 0.59491 0.0
C244 C 0.42887 0.48099 0.60546 0.0
C245 C 0.42697 0.50357 0.655 0.0
C246 C 0.40664 0.47147 0.56243 0.0
C247 C 0.38244 0.48546 0.56673 0.0
C248 C 0.37988 0.50632 0.62432 0.0
C249 C 0.40195 0.51456 0.66918 0.0
C250 C 0.40981 0.44801 0.50619 0.0
C251 C 0.35499 0.52244 0.63082 0.0
H252 H 0.34613 0.50346 0.30743 0.0
H253 H 0.30305 0.45093 0.46359 0.0
H254 H 0.38814 0.52891 0.45824 0.0
H255 H 0.40554 0.50232 0.41021 0.0
H256 H 0.38535 0.5236 0.34828 0.0
H257 H 0.31919 0.43694 0.59297 0.0
H258 H 0.35429 0.43912 0.60845 0.0
H259 H 0.33324 0.46453 0.64691 0.0
H260 H 0.44801 0.47228 0.59401 0.0
H261 H 0.40027 0.53191 0.70813 0.0
H262 H 0.41447 0.45481 0.4427 0.0
H263 H 0.39145 0.43627 0.50348 0.0
H264 H 0.42609 0.43516 0.52731 0.0
H265 H 0.35448 0.53666 0.57898 0.0
H266 H 0.35409 0.53373 0.68975 0.0
H267 H 0.3372 0.51 0.62619 0.0
C268 C 0.03415 0.32341 0.42615 0.0
C269 C 0.0567 0.32063 0.37692 0.0
C270 C 0.03174 0.34432 0.48337 0.0
C271 C 0.05231 0.36304 0.49101 0.0
C272 C 0.07572 0.35924 0.44454 0.0
C273 C 0.07758 0.33819 0.38776 0.0
C274 C 0.00667 0.34696 0.53298 0.0
C275 C 0.09846 0.37797 0.45277 0.0
C276 C 0.0295 0.43199 0.55293 0.0
C277 C 0.03248 0.43173 0.63912 0.0
C278 C 0.03694 0.41022 0.50379 0.0
C279 C 0.04826 0.38775 0.54125 0.0
C280 C 0.05367 0.38849 0.62726 0.0
C281 C 0.04535 0.41025 0.67513 0.0
C282 C 0.03041 0.4103 0.41279 0.0
C283 C 0.06605 0.36543 0.67064 0.0
H284 H 0.01809 0.30964 0.41836 0.0
H285 H 0.09516 0.33585 0.35027 0.0
H286 H 0.01113 0.35058 0.59915 0.0
H287 H 0.99531 0.36407 0.51026 0.0
H288 H 0.99415 0.32915 0.52818 0.0
H289 H 0.11627 0.37086 0.41949 0.0
H290 H 0.09281 0.39735 0.42727 0.0
H291 H 0.10338 0.38095 0.51898 0.0
H292 H 0.01866 0.448 0.52497 0.0
H293 H 0.04691 0.40944 0.74196 0.0
H294 H 0.01499 0.39541 0.40019 0.0
H295 H 0.04795 0.40484 0.37552 0.0
H296 H 0.02317 0.42974 0.39177 0.0
H297 H 0.05056 0.35089 0.68603 0.0
H298 H 0.07558 0.37161 0.72929 0.0
H299 H 0.08088 0.3555 0.63084 0.0
C300 C 0.84721 0.95161 0.05333 0.0
C301 C 0.82663 0.96984 0.04954 0.0
C302 C 0.86868 0.95301 -0.00183 0.0
C303 C 0.86972 0.97336 0.93866 0.0
C304 C 0.84805 0.99085 0.93173 0.0
C305 C 0.82676 0.98886 0.9874 0.0
C306 C 0.8909 0.93356 0.00651 0.0
C307 C 0.84799 0.01264 0.86868 0.0
C308 C 0.93544 0.00416 0.88245 0.0
C309 C 0.93828 0.99723 0.79891 0.0
C310 C 0.91376 0.99566 0.92927 0.0
C311 C 0.8948 0.97891 0.89272 0.0
C312 C 0.89898 0.96969 0.81072 0.0
C313 C 0.92043 0.97938 0.7642 0.0
C314 C 0.90982 0.00677 0.01527 0.0
C315 C 0.87994 0.95092 0.77051 0.0
H316 H 0.84695 0.93676 0.1012 0.0
H317 H 0.81065 0.0028 0.98421 0.0
H318 H 0.89729 0.92635 0.94477 0.0
H319 H 0.90803 0.94336 0.03557 0.0
H320 H 0.88526 0.91647 0.04516 0.0
H321 H 0.82889 0.02322 0.86691 0.0
H322 H 0.86372 0.02697 0.88362 0.0
H323 H 0.85224 0.00466 0.8061 0.0
H324 H 0.94864 0.01871 0.90856 0.0
H325 H 0.92209 0.97458 0.69898 0.0
H326 H 0.90636 0.99073 0.06019 0.0
H327 H 0.89214 0.01959 0.01616 0.0
H328 H 0.92693 0.01853 0.03633 0.0
H329 H 0.87808 0.93292 0.80855 0.0
H330 H 0.88625 0.94519 0.70707 0.0
H331 H 0.86014 0.95997 0.76712 0.0
C332 C 0.53299 0.83936 0.06511 0.0
C333 C 0.5546 0.82241 0.06106 0.0
C334 C 0.53037 0.86043 0.00966 0.0
C335 C 0.54999 0.86489 0.94858 0.0
C336 C 0.57195 0.84767 0.94427 0.0
C337 C 0.57402 0.82663 0.00077 0.0
C338 C 0.50628 0.87772 0.01581 0.0
C339 C 0.59344 0.85164 0.88095 0.0
C340 C 0.52225 0.90194 0.76574 0.0
C341 C 0.52535 0.92825 0.79066 0.0
C342 C 0.53192 0.88107 0.81319 0.0
C343 C 0.54606 0.88646 0.88648 0.0
C344 C 0.55231 0.91301 0.90598 0.0
C345 C 0.54145 0.9337 0.85871 0.0
C346 C 0.5243 0.85336 0.78956 0.0
C347 C 0.56863 0.9196 0.98074 0.0
H348 H 0.51805 0.83614 0.11203 0.0
H349 H 0.59087 0.81358 -0.00193 0.0
H350 H 0.51221 0.89838 0.02731 0.0
H351 H 0.49539 0.87725 0.95648 0.0
H352 H 0.49276 0.87154 0.0662 0.0
H353 H 0.6072 0.83469 0.87812 0.0
H354 H 0.58507 0.85475 0.81851 0.0
H355 H 0.60477 0.86955 0.89714 0.0
H356 H 0.50992 0.89756 0.71285 0.0
H357 H 0.54374 0.95386 0.87917 0.0
H358 H 0.50906 0.84617 0.83328 0.0
H359 H 0.54139 0.83992 0.79382 0.0
H360 H 0.51623 0.8522 0.72588 0.0
H361 H 0.55661 0.91703 0.03754 0.0
H362 H 0.5758 0.9402 0.97894 0.0
H363 H 0.58571 0.9061 0.985 0.0
C364 C 0.69403 0.52739 0.03913 0.0
C365 C 0.70583 0.55124 0.06077 0.0
C366 C 0.6723 0.52666 0.98544 0.0
C367 C 0.66206 0.55041 0.95272 0.0
C368 C 0.67466 0.57446 0.97228 0.0
C369 C 0.69635 0.57459 0.02642 0.0
C370 C 0.66001 0.50044 0.96479 0.0
C371 C 0.66486 0.60009 0.93753 0.0
C372 C 0.61715 0.53665 0.77077 0.0
C373 C 0.59301 0.53284 0.81134 0.0
C374 C 0.63961 0.54479 0.81436 0.0
C375 C 0.63773 0.54975 0.90046 0.0
C376 C 0.61252 0.5499 0.93851 0.0
C377 C 0.5904 0.54147 0.89332 0.0
C378 C 0.6658 0.54472 0.77014 0.0
C379 C 0.60934 0.5557 0.02955 0.0
H380 H 0.70154 0.5093 0.06532 0.0
H381 H 0.70565 0.59303 0.04292 0.0
H382 H 0.63915 0.50026 0.98515 0.0
H383 H 0.66025 0.49726 0.89685 0.0
H384 H 0.67041 0.4838 0.9946 0.0
H385 H 0.6782 0.61672 0.95217 0.0
H386 H 0.66271 0.59861 0.8694 0.0
H387 H 0.64514 0.60449 0.96349 0.0
H388 H 0.61935 0.52971 0.70756 0.0
H389 H 0.57191 0.53826 0.92538 0.0
H390 H 0.67617 0.52601 0.78316 0.0
H391 H 0.67847 0.56102 0.79203 0.0
H392 H 0.66337 0.54636 0.70208 0.0
H393 H 0.61631 0.53856 0.06559 0.0
H394 H 0.58849 0.55959 0.04637 0.0
H395 H 0.62137 0.57291 0.04793 0.0
C396 C 0.95374 0.693 0.01489 0.0
C397 C 0.97678 0.70435 0.04576 0.0
C398 C 0.95474 0.67214 0.95713 0.0
C399 C 0.97942 0.66223 0.9302 0.0
C400 C 0.00276 0.67456 0.95894 0.0
C401 C 0.00114 0.6954 0.01649 0.0
C402 C 0.92939 0.66031 0.92656 0.0
C403 C 0.02952 0.66542 0.9299 0.0
C404 C 0.99188 0.59149 0.86012 0.0
C405 C 0.99713 0.59487 0.77564 0.0
C406 C 0.98397 0.61294 0.91027 0.0
C407 C 0.98126 0.63834 0.87515 0.0
C408 C 0.98369 0.64108 0.78829 0.0
C409 C 0.99141 0.61931 0.73982 0.0
C410 C 0.98122 0.60898 0.0023 0.0
C411 C 0.98037 0.66747 0.74725 0.0
H412 H 0.93488 0.70018 0.03697 0.0
H413 H 0.01897 0.70443 0.03966 0.0
H414 H 0.92947 0.65909 0.85806 0.0
H415 H 0.92742 0.63999 0.95028 0.0
H416 H 0.91194 0.67185 0.94678 0.0
H417 H 0.04569 0.67742 0.9564 0.0
H418 H 0.03257 0.64461 0.94761 0.0
H419 H 0.03076 0.66643 0.86144 0.0
H420 H 0.99673 0.57289 0.88875 0.0
H421 H 0.99569 0.62212 0.67466 0.0
H422 H 0.96315 0.61872 0.0259 0.0
H423 H 0.99822 0.61816 0.03413 0.0
H424 H 0.98053 0.58784 0.01889 0.0
H425 H 0.96027 0.67509 0.75901 0.0
H426 H 0.98365 0.66644 0.67932 0.0
H427 H 0.99437 0.68189 0.77385 0.0
C428 C 0.03501 0.19827 0.4307 0.0
C429 C 0.06185 0.20297 0.41882 0.0
C430 C 0.02649 0.17443 0.46344 0.0
C431 C 0.04542 0.15598 0.48995 0.0
C432 C 0.07243 0.16254 0.4904 0.0
C433 C 0.08045 0.18602 0.4534 0.0
C434 C 0.99753 0.16784 0.46051 0.0
C435 C 0.09292 0.1436 0.52185 0.0
C436 C 0.01781 0.10051 0.61425 0.0
C437 C 0.01628 0.08043 0.55507 0.0
C438 C 0.0282 0.12492 0.59458 0.0
C439 C 0.03689 0.1294 0.51308 0.0
C440 C 0.0358 0.10901 0.45274 0.0
C441 C 0.02551 0.08443 0.47487 0.0
C442 C 0.02935 0.14605 0.66052 0.0
C443 C 0.04443 0.11347 0.36442 0.0
H444 H 0.02078 0.21137 0.40266 0.0
H445 H 0.10121 0.18969 0.4431 0.0
H446 H 0.99431 0.15164 0.41548 0.0
H447 H 0.99054 0.16089 0.52163 0.0
H448 H 0.98533 0.1849 0.44174 0.0
H449 H 0.11244 0.15312 0.52875 0.0
H450 H 0.08686 0.13535 0.58243 0.0
H451 H 0.09495 0.12694 0.47781 0.0
H452 H 0.01057 0.09715 0.67627 0.0
H453 H 0.02423 0.06867 0.42972 0.0
H454 H 0.01673 0.16288 0.64297 0.0
H455 H 0.04973 0.15357 0.66613 0.0
H456 H 0.02272 0.13887 0.72193 0.0
H457 H 0.02988 0.12627 0.3332 0.0
H458 H 0.04602 0.09476 0.32903 0.0
H459 H 0.06368 0.12364 0.36215 0.0
C460 C 0.33581 0.0322 0.39571 0.0
C461 C 0.32677 0.05771 0.41176 0.0
C462 C 0.36001 0.0239 0.42575 0.0
C463 C 0.37391 0.0405 0.48037 0.0
C464 C 0.36304 0.06484 0.50606 0.0
C465 C 0.33985 0.07371 0.46871 0.0
C466 C 0.37173 0.99856 0.39296 0.0
C467 C 0.37687 0.08215 0.56816 0.0
C468 C 0.4251 0.00374 0.59844 0.0
C469 C 0.44826 0.01153 0.55823 0.0
C470 C 0.40091 0.01414 0.57624 0.0
C471 C 0.39981 0.03209 0.51025 0.0
C472 C 0.42319 0.04024 0.4694 0.0
C473 C 0.44744 0.03011 0.49526 0.0
C474 C 0.37655 0.00581 0.62325 0.0
C475 C 0.42266 0.05855 0.39622 0.0
H476 H 0.32578 0.02024 0.34992 0.0
H477 H 0.33298 0.0936 0.47959 0.0
H478 H 0.39131 0.00245 0.36501 0.0
H479 H 0.37465 0.98444 0.44407 0.0
H480 H 0.35913 0.98912 0.34537 0.0
H481 H 0.36409 0.09848 0.59013 0.0
H482 H 0.38324 0.07044 0.62229 0.0
H483 H 0.39478 0.09068 0.53958 0.0
H484 H 0.42598 0.98983 0.64901 0.0
H485 H 0.46556 0.03624 0.46551 0.0
H486 H 0.36386 0.99359 0.58294 0.0
H487 H 0.36494 0.0233 0.64227 0.0
H488 H 0.38136 0.99423 0.67931 0.0
H489 H 0.41742 0.04713 0.34001 0.0
H490 H 0.44214 0.06782 0.38547 0.0
H491 H 0.40775 0.07426 0.40417 0.0
C492 C 0.46701 0.33282 0.47868 0.0
C493 C 0.47823 0.32195 0.40733 0.0
C494 C 0.47864 0.3548 0.51632 0.0
C495 C 0.50031 0.36705 0.47672 0.0
C496 C 0.51221 0.3553 0.40673 0.0
C497 C 0.5019 0.33193 0.37611 0.0
C498 C 0.46664 0.36576 0.59479 0.0
C499 C 0.53424 0.36853 0.35952 0.0
C500 C 0.50742 0.44016 0.51497 0.0
C501 C 0.52975 0.44059 0.56524 0.0
C502 C 0.49794 0.41627 0.48342 0.0
C503 C 0.51039 0.39247 0.50653 0.0
C504 C 0.53316 0.39289 0.55569 0.0
C505 C 0.54308 0.41696 0.58187 0.0
C506 C 0.47455 0.4164 0.42628 0.0
C507 C 0.54603 0.36788 0.58572 0.0
H508 H 0.44855 0.32515 0.50205 0.0
H509 H 0.5102 0.32347 0.32 0.0
H510 H 0.48172 0.37498 0.63499 0.0
H511 H 0.45189 0.38097 0.57895 0.0
H512 H 0.45644 0.35016 0.63044 0.0
H513 H 0.53909 0.35813 0.30083 0.0
H514 H 0.52866 0.38906 0.34453 0.0
H515 H 0.55224 0.36938 0.39777 0.0
H516 H 0.49707 0.45831 0.50208 0.0
H517 H 0.56027 0.41689 0.62126 0.0
H518 H 0.45798 0.40556 0.45484 0.0
H519 H 0.47962 0.40611 0.36763 0.0
H520 H 0.46784 0.43663 0.4117 0.0
H521 H 0.53189 0.35695 0.62512 0.0
H522 H 0.56407 0.37174 0.62227 0.0
H523 H 0.55131 0.35485 0.53317 0.0
C524 C 0.20432 0.48494 0.44868 0.0
C525 C 0.20516 0.45928 0.41704 0.0
C526 C 0.18163 0.49443 0.48803 0.0
C527 C 0.15972 0.47758 0.49693 0.0
C528 C 0.162 0.45066 0.47607 0.0
C529 C 0.18495 0.4417 0.43697 0.0
C530 C 0.18008 0.52316 0.51114 0.0
C531 C 0.13907 0.43212 0.48502 0.0
C532 C 0.10073 0.49983 0.62104 0.0
C533 C 0.08442 0.51002 0.55916 0.0
C534 C 0.12544 0.48945 0.60201 0.0
C535 C 0.13368 0.48868 0.51863 0.0
C536 C 0.11705 0.49861 0.45553 0.0
C537 C 0.09265 0.5097 0.47693 0.0
C538 C 0.14281 0.47968 0.67106 0.0
C539 C 0.12516 0.49792 0.36567 0.0
H540 H 0.21989 0.4986 0.43293 0.0
H541 H 0.18564 0.42189 0.41202 0.0
H542 H 0.16728 0.53355 0.46647 0.0
H543 H 0.1712 0.52567 0.57346 0.0
H544 H 0.19972 0.53268 0.51046 0.0
H545 H 0.14521 0.41131 0.47713 0.0
H546 H 0.12948 0.43444 0.54634 0.0
H547 H 0.12417 0.43677 0.43727 0.0
H548 H 0.09433 0.50054 0.68498 0.0
H549 H 0.08004 0.51796 0.42981 0.0
H550 H 0.16178 0.49043 0.67058 0.0
H551 H 0.14741 0.45858 0.66156 0.0
H552 H 0.13354 0.48218 0.73297 0.0
H553 H 0.14147 0.512 0.35548 0.0
H554 H 0.10866 0.50321 0.3241 0.0
H555 H 0.13244 0.4781 0.34808 0.0
C556 C 0.99396 0.82397 0.97755 0.0
C557 C 0.96698 0.81967 0.98826 0.0
C558 C 0.00294 0.84739 0.94307 0.0
C559 C 0.98436 0.86577 0.91385 0.0
C560 C 0.9574 0.85917 0.9105 0.0
C561 C 0.94883 0.83622 0.94968 0.0
C562 C 0.03192 0.85375 0.947 0.0
C563 C 0.93756 0.87741 0.87206 0.0
C564 C 0.00368 0.93725 0.93711 0.0
C565 C 0.01533 0.94162 0.86026 0.0
C566 C 0.9928 0.91255 0.955 0.0
C567 C 0.99309 0.89254 0.89328 0.0
C568 C 0.00381 0.89753 0.81448 0.0
C569 C 0.01523 0.92187 0.7997 0.0
C570 C 0.9818 0.90756 0.0404 0.0
C571 C 0.00432 0.87721 0.74598 0.0
H572 H 0.00789 0.8111 0.00798 0.0
H573 H 0.92797 0.83273 0.95807 0.0
H574 H 0.03932 0.85949 0.88507 0.0
H575 H 0.03504 0.87069 0.98935 0.0
H576 H 0.04381 0.83693 0.96944 0.0
H577 H 0.91794 0.86805 0.86598 0.0
H578 H 0.93549 0.89537 0.91063 0.0
H579 H 0.94444 0.88365 0.8099 0.0
H580 H 0.00361 0.95279 0.98319 0.0
H581 H 0.0242 0.92538 0.74012 0.0
H582 H 0.99259 0.89109 0.06969 0.0
H583 H 0.96086 0.90167 0.03612 0.0
H584 H 0.98321 0.92512 0.0812 0.0
H585 H 0.02422 0.86829 0.74245 0.0
H586 H 0.00045 0.88662 0.68547 0.0
H587 H 0.9897 0.86133 0.75491 0.0
C588 C 0.70672 0.9805 0.93794 0.0
C589 C 0.70842 0.96117 -0.00121 0.0
C590 C 0.68309 0.98399 0.89485 0.0
C591 C 0.6607 0.96938 0.91961 0.0
C592 C 0.66381 0.94728 0.97144 0.0
C593 C 0.68863 0.94208 0.00415 0.0
C594 C 0.6812 0.0055 0.83131 0.0
C595 C 0.6407 0.93136 0.0024 0.0
C596 C 0.60092 0.01344 0.93968 0.0
C597 C 0.58489 0.00352 0.87715 0.0
C598 C 0.62524 0.00168 0.95631 0.0
C599 C 0.63416 0.98044 0.90606 0.0
C600 C 0.6177 0.96999 0.84418 0.0
C601 C 0.59308 0.98141 0.83141 0.0
C602 C 0.64154 0.01236 0.02672 0.0
C603 C 0.62675 0.94817 0.78727 0.0
H604 H 0.72242 0.99474 0.93125 0.0
H605 H 0.69067 0.92652 0.04936 0.0
H606 H 0.66664 0.00043 0.78279 0.0
H607 H 0.67478 0.02402 0.86166 0.0
H608 H 0.70058 0.00909 0.80156 0.0
H609 H 0.6454 0.92083 0.06058 0.0
H610 H 0.62327 0.94392 0.01444 0.0
H611 H 0.63533 0.91638 0.95553 0.0
H612 H 0.5947 0.03071 0.97406 0.0
H613 H 0.58103 0.97413 0.78111 0.0
H614 H 0.65899 0.02277 0.00193 0.0
H615 H 0.64865 0.99605 0.06602 0.0
H616 H 0.63027 0.02635 0.06618 0.0
H617 H 0.64277 0.95561 0.74688 0.0
H618 H 0.61058 0.94067 0.74769 0.0
H619 H 0.63485 0.9315 0.8227 0.0
C620 C 0.58258 0.67973 0.01645 0.0
C621 C 0.56499 0.70091 0.02226 0.0
C622 C 0.57531 0.6566 0.97569 0.0
C623 C 0.55084 0.65567 0.93479 0.0
C624 C 0.53517 0.67859 0.9286 0.0
C625 C 0.54235 0.70106 0.97345 0.0
C626 C 0.59218 0.63235 0.9854 0.0
C627 C 0.50947 0.67849 0.88222 0.0
C628 C 0.53729 0.59788 0.79572 0.0
C629 C 0.51867 0.58405 0.84206 0.0
C630 C 0.54773 0.62144 0.82462 0.0
C631 C 0.54066 0.63029 0.90442 0.0
C632 C 0.52351 0.6151 0.95472 0.0
C633 C 0.51222 0.59215 0.92203 0.0
C634 C 0.56516 0.63744 0.76815 0.0
C635 C 0.51679 0.62331 0.04215 0.0
H636 H 0.6001 0.67983 0.05446 0.0
H637 H 0.52875 0.71744 0.97806 0.0
H638 H 0.58154 0.61768 0.0235 0.0
H639 H 0.5962 0.62305 0.92454 0.0
H640 H 0.61122 0.6368 0.01581 0.0
H641 H 0.50197 0.69871 0.87182 0.0
H642 H 0.51172 0.66844 0.82153 0.0
H643 H 0.49451 0.66752 0.91835 0.0
H644 H 0.543 0.59064 0.73522 0.0
H645 H 0.498 0.58104 0.95767 0.0
H646 H 0.58447 0.64107 0.79754 0.0
H647 H 0.55598 0.65689 0.75706 0.0
H648 H 0.56853 0.62766 0.70743 0.0
H649 H 0.53501 0.62422 0.0796 0.0
H650 H 0.50284 0.60951 0.07226 0.0
H651 H 0.50797 0.64324 0.04271 0.0
C652 C 0.8273 0.53145 0.98566 0.0
C653 C 0.82225 0.55838 0.9937 0.0
C654 C 0.85089 0.52268 0.95088 0.0
C655 C 0.86841 0.54127 0.91658 0.0
C656 C 0.86087 0.56794 0.91026 0.0
C657 C 0.83805 0.57645 0.95149 0.0
C658 C 0.85853 0.49417 0.96134 0.0
C659 C 0.87794 0.58766 0.866 0.0
C660 C 0.9409 0.52569 0.94031 0.0
C661 C 0.94536 0.51131 0.86811 0.0
C662 C 0.91581 0.53613 0.95649 0.0
C663 C 0.89556 0.53312 0.89664 0.0
C664 C 0.90073 0.51991 0.82156 0.0
C665 C 0.92529 0.50843 0.80968 0.0
C666 C 0.91092 0.54996 0.03794 0.0
C667 C 0.88042 0.51731 0.75397 0.0
H668 H 0.81503 0.51762 0.01908 0.0
H669 H 0.83402 0.59728 0.9577 0.0
H670 H 0.86403 0.48533 0.90101 0.0
H671 H 0.87596 0.49283 0.00225 0.0
H672 H 0.84244 0.48228 0.98884 0.0
H673 H 0.86769 0.60672 0.85748 0.0
H674 H 0.89617 0.59122 0.9017 0.0
H675 H 0.8839 0.57983 0.80448 0.0
H676 H 0.95672 0.52826 0.98434 0.0
H677 H 0.92887 0.49741 0.75353 0.0
H678 H 0.89256 0.54267 0.0671 0.0
H679 H 0.90845 0.57131 0.02725 0.0
H680 H 0.92741 0.5472 0.08192 0.0
H681 H 0.86846 0.49943 0.76453 0.0
H682 H 0.8899 0.51524 0.69222 0.0
H683 H 0.86698 0.53449 0.75257 0.0
C684 C 0.08043 0.1693 0.12 0.0
C685 C 0.06388 0.19147 0.12432 0.0
C686 C 0.0738 0.14706 0.07254 0.0
C687 C 0.05044 0.14714 0.02524 0.0
C688 C 0.03437 0.16998 0.02559 0.0
C689 C 0.04118 0.19177 0.07537 0.0
C690 C 0.09135 0.12313 0.07551 0.0
C691 C 0.00932 0.17094 0.97604 0.0
C692 C 0.04286 0.09891 0.84526 0.0
C693 C 0.02503 0.08064 0.87753 0.0
C694 C 0.05167 0.12032 0.89307 0.0
C695 C 0.04271 0.12337 0.97572 0.0
C696 C 0.02567 0.10411 0.00983 0.0
C697 C 0.01672 0.08319 0.95986 0.0
C698 C 0.06964 0.14033 0.85387 0.0
C699 C 0.01652 0.10586 0.09865 0.0
H700 H 0.09802 0.16882 0.15765 0.0
H701 H 0.02796 0.20844 0.07952 0.0
H702 H 0.07966 0.10537 0.0904 0.0
H703 H 0.10053 0.11983 0.01399 0.0
H704 H 0.10722 0.12518 0.12211 0.0
H705 H -0.00025 0.19055 0.97896 0.0
H706 H 0.01344 0.16596 0.91035 0.0
H707 H 0.99528 0.15609 -0.00012 0.0
H708 H 0.04903 0.09708 0.78121 0.0
H709 H 0.00275 0.06915 0.9845 0.0
H710 H 0.08737 0.14329 0.89244 0.0
H711 H 0.05934 0.15952 0.85015 0.0
H712 H 0.07598 0.13441 0.79064 0.0
H713 H 0.03375 0.10552 0.14052 0.0
H714 H 0.00319 0.08945 0.11562 0.0
H715 H 0.00609 0.12471 0.10962 0.0
C716 C 0.35686 0.08449 0.11947 0.0
C717 C 0.33557 0.06703 0.12749 0.0
C718 C 0.37939 0.07785 0.07296 0.0
C719 C 0.38064 0.05334 0.03136 0.0
C720 C 0.35879 0.03606 0.03638 0.0
C721 C 0.33661 0.04307 0.08437 0.0
C722 C 0.40226 0.09672 0.07077 0.0
C723 C 0.35933 0.00959 0.99398 0.0
C724 C 0.42725 0.04326 0.84816 0.0
C725 C 0.44747 0.02828 0.88294 0.0
C726 C 0.40593 0.05226 0.89636 0.0
C727 C 0.40454 0.04587 0.98154 0.0
C728 C 0.42544 0.0314 0.0176 0.0
C729 C 0.44663 0.02271 0.96772 0.0
C730 C 0.38423 0.06757 0.85516 0.0
C731 C 0.42505 0.02438 0.10826 0.0
H732 H 0.35641 0.10291 0.15341 0.0
H733 H 0.32074 0.02909 0.09211 0.0
H734 H 0.42036 0.08683 0.09284 0.0
H735 H 0.40601 0.10302 0.00621 0.0
H736 H 0.39874 0.11445 0.1096 0.0
H737 H 0.34037 -0.00104 0.00033 0.0
H738 H 0.36386 0.01195 0.92723 0.0
H739 H 0.37513 0.99731 0.02097 0.0
H740 H 0.42758 0.04702 0.78216 0.0
H741 H 0.46196 0.0106 0.99421 0.0
H742 H 0.3807 0.0863 0.88877 0.0
H743 H 0.36569 0.05613 0.85752 0.0
H744 H 0.38883 0.07206 0.78949 0.0
H745 H 0.42536 0.04257 0.1463 0.0
H746 H 0.44208 0.01196 0.12591 0.0
H747 H 0.40667 0.01374 0.12385 0.0
C748 C 0.44111 0.3533 0.12621 0.0
C749 C 0.45888 0.33225 0.13331 0.0
C750 C 0.44748 0.37596 0.08059 0.0
C751 C 0.47226 0.37778 0.04066 0.0
C752 C 0.49004 0.35634 0.04602 0.0
C753 C 0.48312 0.33388 0.09195 0.0
C754 C 0.4281 0.39841 0.07777 0.0
C755 C 0.51695 0.35764 0.00646 0.0
C756 C 0.4831 0.4256 0.8622 0.0
C757 C 0.49805 0.44538 0.8998 0.0
C758 C 0.47402 0.40387 0.90778 0.0
C759 C 0.4797 0.40202 0.99341 0.0
C760 C 0.49374 0.42271 0.03241 0.0
C761 C 0.50307 0.44392 0.98483 0.0
C762 C 0.45969 0.38209 0.86324 0.0
C763 C 0.49976 0.42202 0.12378 0.0
H764 H 0.42267 0.35252 0.16 0.0
H765 H 0.49739 0.31827 0.09992 0.0
H766 H 0.43721 0.41649 0.10322 0.0
H767 H 0.42271 0.40256 0.0127 0.0
H768 H 0.40988 0.3942 0.11342 0.0
H769 H 0.52798 0.33891 0.01265 0.0
H770 H 0.51519 0.36243 0.93983 0.0
H771 H 0.52858 0.37355 0.03584 0.0
H772 H 0.47995 0.42628 0.79592 0.0
H773 H 0.51513 0.45894 0.01348 0.0
H774 H 0.44081 0.37779 0.89493 0.0
H775 H 0.4717 0.36388 0.86483 0.0
H776 H 0.45563 0.38701 0.79764 0.0
H777 H 0.48119 0.421 0.15983 0.0
H778 H 0.51098 0.43956 0.1445 0.0
H779 H 0.51131 0.40417 0.13868 0.0
C780 C 0.17345 0.48609 0.15565 0.0
C781 C 0.19465 0.47039 0.12908 0.0
C782 C 0.15212 0.49151 0.10414 0.0
C783 C 0.15193 0.48148 0.02248 0.0
C784 C 0.17367 0.46635 0.99373 0.0
C785 C 0.19482 0.46087 0.04761 0.0
C786 C 0.12959 0.50772 0.13825 0.0
C787 C 0.17456 0.45611 0.90607 0.0
C788 C 0.08512 0.48502 0.91421 0.0
C789 C 0.08696 0.50945 0.87449 0.0
C790 C 0.10647 0.47499 0.9603 0.0
C791 C 0.13024 0.48953 0.96572 0.0
C792 C 0.13227 0.51382 0.92441 0.0
C793 C 0.11073 0.5235 0.88054 0.0
C794 C 0.10347 0.44915 0.00455 0.0
C795 C 0.15692 0.53031 0.92936 0.0
H796 H 0.17329 0.4938 0.21834 0.0
H797 H 0.21108 0.44871 0.0268 0.0
H798 H 0.12318 0.52287 0.09358 0.0
H799 H 0.11256 0.49465 0.15034 0.0
H800 H 0.13487 0.5178 0.19686 0.0
H801 H 0.19233 0.44397 0.89379 0.0
H802 H 0.15681 0.44413 0.89329 0.0
H803 H 0.17439 0.4728 0.86215 0.0
H804 H 0.06708 0.47382 0.90954 0.0
H805 H 0.11278 0.54233 0.85026 0.0
H806 H 0.10369 0.45259 0.07238 0.0
H807 H 0.12027 0.436 0.98957 0.0
H808 H 0.08488 0.439 0.98811 0.0
H809 H 0.15899 0.5383 0.99298 0.0
H810 H 0.15659 0.54704 0.88551 0.0
H811 H 0.17458 0.51817 0.91605 0.0
C812 C 0.98864 0.85537 0.25293 0.0
C813 C 0.96964 0.83656 0.2746 0.0
C814 C 0.99364 0.87733 0.30315 0.0
C815 C 0.97954 0.88065 0.37813 0.0
C816 C 0.96002 0.86194 0.4 0.0
C817 C 0.9553 0.84004 0.34799 0.0
C818 C 0.01448 0.8967 0.27659 0.0
C819 C 0.94419 0.86509 0.4785 0.0
C820 C 0.01878 0.9154 0.54468 0.0
C821 C 0.00887 0.94121 0.54355 0.0
C822 C 0.00859 0.89558 0.49384 0.0
C823 C 0.98807 0.90146 0.43823 0.0
C824 C 0.97756 0.92736 0.43685 0.0
C825 C 0.98796 0.94692 0.49005 0.0
C826 C 0.02029 0.86832 0.49866 0.0
C827 C 0.95596 0.93467 0.37759 0.0
H828 H -0.00045 0.85295 0.19557 0.0
H829 H 0.94014 0.82597 0.36378 0.0
H830 H 0.00635 0.91692 0.27687 0.0
H831 H 0.03104 0.89633 0.32104 0.0
H832 H 0.02233 0.89232 0.21377 0.0
H833 H 0.92935 0.84927 0.48605 0.0
H834 H 0.95745 0.86496 0.53283 0.0
H835 H 0.93393 0.88434 0.47838 0.0
H836 H 0.03465 0.91039 0.58629 0.0
H837 H 0.98009 0.9667 0.48853 0.0
H838 H 0.02986 0.86321 0.4389 0.0
H839 H 0.00458 0.85364 0.50989 0.0
H840 H 0.03512 0.86657 0.54859 0.0
H841 H 0.96437 0.93676 0.31453 0.0
H842 H 0.94642 0.95356 0.39502 0.0
H843 H 0.94076 0.91908 0.37481 0.0
C844 C 0.67399 0.95567 0.2867 0.0
C845 C 0.69594 0.97238 0.29441 0.0
C846 C 0.6515 0.95889 0.33606 0.0
C847 C 0.65125 0.97842 0.39841 0.0
C848 C 0.67425 0.99366 0.41214 0.0
C849 C 0.69625 0.99073 0.35921 0.0
C850 C 0.62737 0.94274 0.31662 0.0
C851 C 0.67509 0.01395 0.48035 0.0
C852 C 0.58818 0.01208 0.46962 0.0
C853 C 0.58304 -0.00071 0.54447 0.0
C854 C 0.60941 0.00439 0.41899 0.0
C855 C 0.6265 0.98411 0.4456 0.0
C856 C 0.62043 0.9702 0.51904 0.0
C857 C 0.59867 0.97792 0.56746 0.0
C858 C 0.61423 0.01878 0.33887 0.0
C859 C 0.63786 0.94831 0.54944 0.0
H860 H 0.67373 0.94104 0.23773 0.0
H861 H 0.71302 0.00367 0.36584 0.0
H862 H 0.6176 0.93577 0.37386 0.0
H863 H 0.61304 0.95517 0.28307 0.0
H864 H 0.63212 0.92546 0.27701 0.0
H865 H 0.6951 0.02227 0.48857 0.0
H866 H 0.66134 0.03022 0.466 0.0
H867 H 0.66857 0.00513 0.53967 0.0
H868 H 0.57623 0.02884 0.45246 0.0
H869 H 0.59493 0.96839 0.62615 0.0
H870 H 0.61719 0.00456 0.28742 0.0
H871 H 0.63242 0.03068 0.34392 0.0
H872 H 0.59768 0.03206 0.32284 0.0
H873 H 0.64314 0.93467 0.49832 0.0
H874 H 0.62832 0.93684 0.59949 0.0
H875 H 0.6564 0.95682 0.57356 0.0
C876 C 0.57218 0.68659 0.37011 0.0
C877 C 0.55177 0.69472 0.31817 0.0
C878 C 0.5701 0.66322 0.41635 0.0
C879 C 0.5473 0.64736 0.40906 0.0
C880 C 0.52629 0.65604 0.35869 0.0
C881 C 0.52873 0.67963 0.31453 0.0
C882 C 0.5928 0.65484 0.46985 0.0
C883 C 0.50163 0.63985 0.34857 0.0
C884 C 0.54602 0.57381 0.4588 0.0
C885 C 0.53301 0.57391 0.53532 0.0
C886 C 0.55214 0.59767 0.41848 0.0
C887 C 0.54483 0.62204 0.45545 0.0
C888 C 0.53253 0.62204 0.53398 0.0
C889 C 0.52645 0.59809 0.57186 0.0
C890 C 0.565 0.59675 0.33427 0.0
C891 C 0.52416 0.6473 0.57587 0.0
H892 H 0.59037 0.69766 0.37066 0.0
H893 H 0.5133 0.68541 0.27219 0.0
H894 H 0.58579 0.65024 0.53324 0.0
H895 H 0.60172 0.63665 0.44402 0.0
H896 H 0.60826 0.67019 0.47387 0.0
H897 H 0.48749 0.64892 0.30493 0.0
H898 H 0.5067 0.61992 0.3254 0.0
H899 H 0.49175 0.63743 0.40936 0.0
H900 H 0.55024 0.55518 0.42878 0.0
H901 H 0.51489 0.59833 0.62811 0.0
H902 H 0.58183 0.61058 0.33171 0.0
H903 H 0.55067 0.60304 0.2867 0.0
H904 H 0.5721 0.57672 0.3181 0.0
H905 H 0.54084 0.66131 0.57812 0.0
H906 H 0.51692 0.64403 0.63994 0.0
H907 H 0.50822 0.65668 0.53978 0.0
C908 C 0.83846 0.56122 0.36292 0.0
C909 C 0.83991 0.55408 0.27914 0.0
C910 C 0.85917 0.55513 0.41782 0.0
C911 C 0.88192 0.54178 0.38819 0.0
C912 C 0.88336 0.53452 0.30376 0.0
C913 C 0.86232 0.54034 0.25111 0.0
C914 C 0.85668 0.56285 0.50768 0.0
C915 C 0.90699 0.52012 0.26902 0.0
C916 C 0.94585 0.5391 0.51357 0.0
C917 C 0.94414 0.5141 0.54977 0.0
C918 C 0.92564 0.54865 0.46181 0.0
C919 C 0.9031 0.53295 0.4462 0.0
C920 C 0.90137 0.50778 0.48247 0.0
C921 C 0.92174 0.49875 0.53323 0.0
C922 C 0.92841 0.57546 0.42342 0.0
C923 C 0.8779 0.49022 0.46753 0.0
H924 H 0.82131 0.57175 0.38531 0.0
H925 H 0.86337 0.53381 0.18729 0.0
H926 H 0.85848 0.54522 0.54739 0.0
H927 H 0.87292 0.57635 0.52466 0.0
H928 H 0.83765 0.57268 0.52154 0.0
H929 H 0.90527 0.51628 0.20156 0.0
H930 H 0.92507 0.53175 0.28008 0.0
H931 H 0.90947 0.50103 0.30092 0.0
H932 H 0.96285 0.55127 0.52608 0.0
H933 H 0.91987 0.47944 0.56059 0.0
H934 H 0.91136 0.58793 0.44089 0.0
H935 H 0.92843 0.57365 0.355 0.0
H936 H 0.94676 0.58552 0.44282 0.0
H937 H 0.85974 0.50011 0.48977 0.0
H938 H 0.87969 0.471 0.49931 0.0
H939 H 0.87551 0.48651 0.40031 0.0
loop_
_geom_bond_atom_site_label_1
_geom_bond_atom_site_label_2
_geom_bond_distance
_geom_bond_site_symmetry_2
_ccdc_geom_bond_type
H0 C3 0.929 . S
H1 C6 0.929 1_556 S
H2 C8 0.930 . S
C3 H0 0.929 . S
C3 C4 1.398 . S
C3 C5 1.396 . S
C4 C3 1.398 . S
C4 C8 1.407 . S
C5 C3 1.396 . S
C5 C6 1.394 . S
C6 H1 0.929 1_554 S
C6 C5 1.394 . S
C6 C7 1.382 . S
C7 C6 1.382 . S
C7 C8 1.392 . S
C7 N9 1.420 . S
C8 H2 0.930 . S
C8 C4 1.407 . S
C8 C7 1.392 . S
N9 C7 1.420 . S
N9 C10 1.244 . S
C10 N9 1.244 . S
H11 C14 0.929 . S
H12 C17 0.929 1_556 S
H13 C19 0.930 . S
C14 H11 0.929 . S
C14 C15 1.398 . S
C14 C16 1.396 . S
C15 C14 1.398 . S
C15 C19 1.407 . S
C16 C14 1.396 . S
C16 C17 1.394 . S
C17 H12 0.929 1_554 S
C17 C16 1.394 . S
C17 C18 1.382 . S
C18 C17 1.382 . S
C18 C19 1.392 . S
C18 N20 1.420 . S
C19 H13 0.930 . S
C19 C15 1.407 . S
C19 C18 1.392 . S
N20 C18 1.420 . S
N20 C21 1.244 . S
C21 N20 1.244 . S
H22 C25 0.929 . S
H23 C28 0.929 1_556 S
H24 C30 0.930 . S
C25 H22 0.929 . S
C25 C26 1.398 . S
C25 C27 1.396 . S
C26 C25 1.398 . S
C26 C30 1.407 . S
C27 C25 1.396 . S
C27 C28 1.394 . S
C28 H23 0.929 1_554 S
C28 C27 1.394 . S
C28 C29 1.382 . S
C29 C28 1.382 . S
C29 C30 1.392 . S
C29 N31 1.420 . S
C30 H24 0.930 . S
C30 C26 1.407 . S
C30 C29 1.392 . S
N31 C29 1.420 . S
N31 C32 1.244 . S
C32 N31 1.244 . S
H33 C36 0.929 . S
H34 C39 0.929 1_556 S
H35 C41 0.930 . S
C36 H33 0.929 . S
C36 C37 1.398 . S
C36 C38 1.396 . S
C37 C36 1.398 . S
C37 C41 1.407 . S
C38 C36 1.396 . S
C38 C39 1.394 . S
C39 H34 0.929 1_554 S
C39 C38 1.394 . S
C39 C40 1.382 . S
C40 C39 1.382 . S
C40 C41 1.392 . S
C40 N42 1.420 . S
C41 H35 0.930 . S
C41 C37 1.407 . S
C41 C40 1.392 . S
N42 C40 1.420 . S
N42 C43 1.244 . S
C43 N42 1.244 . S
H44 C47 0.929 . S
H45 C50 0.929 . S
H46 C52 0.930 . S
C47 H44 0.929 . S
C47 C48 1.398 . S
C47 C49 1.396 . S
C48 C47 1.398 . S
C48 C52 1.407 . S
C49 C47 1.396 . S
C49 C50 1.394 . S
C50 H45 0.929 . S
C50 C49 1.394 . S
C50 C51 1.382 . S
C51 C50 1.382 . S
C51 C52 1.392 . S
C51 N53 1.420 . S
C52 H46 0.930 . S
C52 C48 1.407 . S
C52 C51 1.392 . S
N53 C51 1.420 . S
N53 C54 1.244 . S
C54 N53 1.244 . S
H55 C58 0.929 . S
H56 C61 0.929 . S
H57 C63 0.930 . S
C58 H55 0.929 . S
C58 C59 1.398 . S
C58 C60 1.396 . S
C59 C58 1.398 . S
C59 C63 1.407 . S
C60 C58 1.396 . S
C60 C61 1.394 . S
C61 H56 0.929 . S
C61 C60 1.394 . S
C61 C62 1.382 . S
C62 C61 1.382 . S
C62 C63 1.392 . S
C62 N64 1.420 . S
C63 H57 0.930 . S
C63 C59 1.407 . S
C63 C62 1.392 . S
N64 C62 1.420 . S
N64 C65 1.244 . S
C65 N64 1.244 . S
H66 C69 0.929 . S
H67 C72 0.929 . S
H68 C74 0.930 . S
C69 H66 0.929 . S
C69 C70 1.398 . S
C69 C71 1.396 . S
C70 C69 1.398 . S
C70 C74 1.407 . S
C71 C69 1.396 . S
C71 C72 1.394 . S
C72 H67 0.929 . S
C72 C71 1.394 . S
C72 C73 1.382 . S
C73 C72 1.382 . S
C73 C74 1.392 . S
C73 N75 1.420 . S
C74 H68 0.930 . S
C74 C70 1.407 . S
C74 C73 1.392 . S
N75 C73 1.420 . S
N75 C76 1.244 . S
C76 N75 1.244 . S
H77 C80 0.929 . S
H78 C83 0.929 . S
H79 C85 0.930 . S
C80 H77 0.929 . S
C80 C81 1.398 . S
C80 C82 1.396 . S
C81 C80 1.398 . S
C81 C85 1.407 . S
C82 C80 1.396 . S
C82 C83 1.394 . S
C83 H78 0.929 . S
C83 C82 1.394 . S
C83 C84 1.382 . S
C84 C83 1.382 . S
C84 C85 1.392 . S
C84 N86 1.420 . S
C85 H79 0.930 . S
C85 C81 1.407 . S
C85 C84 1.392 . S
N86 C84 1.420 . S
N86 C87 1.244 . S
C87 N86 1.244 . S
O88 Mn89 2.163 . S
O88 C102 1.244 . S
Mn89 O88 2.163 . S
Mn89 O92 2.160 1_545 S
Mn89 O93 2.221 . S
Mn89 O95 2.163 1_545 S
Mn89 O97 2.160 . S
Mn89 O107 2.221 1_455 S
O90 Mn91 2.087 1_455 S
O90 C102 1.256 . S
Mn91 O90 2.087 1_655 S
Mn91 O98 2.089 . S
Mn91 O107 2.290 . S
Mn91 O108 2.251 . S
O92 Mn89 2.160 1_565 S
O92 C103 1.239 . S
O93 Mn89 2.221 . S
O93 Mn94 2.290 1_545 S
O93 C104 1.278 . S
Mn94 O93 2.290 1_565 S
Mn94 O96 2.089 . S
Mn94 O99 2.251 . S
Mn94 O100 2.087 . S
O95 Mn89 2.163 1_565 S
O95 C105 1.244 . S
O96 Mn94 2.089 . S
O96 C103 1.256 . S
O97 Mn89 2.160 . S
O97 C106 1.239 . S
O98 Mn91 2.089 . S
O98 C106 1.256 1_655 S
O99 Mn94 2.251 . S
O99 C104 1.241 1_565 S
O100 Mn94 2.087 . S
O100 C105 1.256 . S
C101 O107 1.278 . S
C101 O108 1.241 . S
C102 O88 1.244 . S
C102 O90 1.256 . S
C103 O92 1.239 . S
C103 O96 1.256 . S
C104 O93 1.278 . S
C104 O99 1.241 1_545 S
C105 O95 1.244 . S
C105 O100 1.256 . S
C106 O97 1.239 . S
C106 O98 1.256 1_455 S
O107 Mn89 2.221 1_655 S
O107 Mn91 2.290 . S
O107 C101 1.278 . S
O108 Mn91 2.251 . S
O108 C101 1.241 . S
O109 Mn110 2.163 . S
O109 C123 1.244 . S
Mn110 O109 2.163 . S
Mn110 O113 2.160 . S
Mn110 O114 2.221 1_545 S
Mn110 O116 2.163 . S
Mn110 O118 2.148 1_545 S
Mn110 O128 2.221 . S
O111 Mn112 2.087 . S
O111 C123 1.256 . S
Mn112 O111 2.087 . S
Mn112 O119 2.089 . S
Mn112 O128 2.290 . S
Mn112 O129 2.251 . S
O113 Mn110 2.160 . S
O113 C124 1.239 . S
O114 Mn110 2.221 1_565 S
O114 Mn115 2.290 . S
O114 C125 1.278 . S
Mn115 O114 2.290 . S
Mn115 O117 2.089 . S
Mn115 O120 2.251 . S
Mn115 O121 2.088 1_565 S
O116 Mn110 2.163 . S
O116 C126 1.244 . S
O117 Mn115 2.089 . S
O117 C124 1.256 1_565 S
O118 Mn110 2.148 1_565 S
O118 C127 1.233 1_565 S
O119 Mn112 2.089 . S
O119 C127 1.256 . S
O120 Mn115 2.251 . S
O120 C125 1.241 . S
O121 Mn115 2.088 1_545 S
O121 C126 1.255 . S
C122 O128 1.278 . S
C122 O129 1.241 . S
C123 O109 1.244 . S
C123 O111 1.256 . S
C124 O113 1.239 . S
C124 O117 1.256 1_545 S
C125 O114 1.278 . S
C125 O120 1.241 . S
C126 O116 1.244 . S
C126 O121 1.255 . S
C127 O118 1.233 1_545 S
C127 O119 1.256 . S
O128 Mn110 2.221 . S
O128 Mn112 2.290 . S
O128 C122 1.278 . S
O129 Mn112 2.251 . S
O129 C122 1.241 . S
O130 Mn131 2.163 . S
O130 C144 1.244 . S
Mn131 O130 2.163 . S
Mn131 O134 2.160 . S
Mn131 O135 2.221 . S
Mn131 O137 2.163 . S
Mn131 O139 2.160 . S
Mn131 O149 2.221 . S
O132 Mn133 2.087 . S
O132 C144 1.256 . S
Mn133 O132 2.087 . S
Mn133 O140 2.089 . S
Mn133 O149 2.290 . S
Mn133 O150 2.251 . S
O134 Mn131 2.160 . S
O134 C145 1.239 . S
O135 Mn131 2.221 . S
O135 Mn136 2.290 . S
O135 C146 1.278 . S
Mn136 O135 2.290 . S
Mn136 O138 2.089 . S
Mn136 O141 2.251 . S
Mn136 O142 2.087 . S
O137 Mn131 2.163 . S
O137 C147 1.244 . S
O138 Mn136 2.089 . S
O138 C145 1.256 . S
O139 Mn131 2.160 . S
O139 C148 1.239 . S
O140 Mn133 2.089 . S
O140 C148 1.256 . S
O141 Mn136 2.251 . S
O141 C146 1.241 . S
O142 Mn136 2.087 . S
O142 C147 1.256 . S
C143 O149 1.278 . S
C143 O150 1.241 . S
C144 O130 1.244 . S
C144 O132 1.256 . S
C145 O134 1.239 . S
C145 O138 1.256 . S
C146 O135 1.278 . S
C146 O141 1.241 . S
C147 O137 1.244 . S
C147 O142 1.256 . S
C148 O139 1.239 . S
C148 O140 1.256 . S
O149 Mn131 2.221 . S
O149 Mn133 2.290 . S
O149 C143 1.278 . S
O150 Mn133 2.251 . S
O150 C143 1.241 . S
O151 Mn152 2.163 . S
O151 C165 1.244 . S
Mn152 O151 2.163 . S
Mn152 O155 2.160 1_455 S
Mn152 O156 2.221 . S
Mn152 O158 2.163 1_455 S
Mn152 O160 2.160 . S
Mn152 O170 2.221 . S
O153 Mn154 2.087 . S
O153 C165 1.256 . S
Mn154 O153 2.087 . S
Mn154 O161 2.089 . S
Mn154 O170 2.290 . S
Mn154 O171 2.251 . S
O155 Mn152 2.160 1_655 S
O155 C166 1.239 . S
O156 Mn152 2.221 . S
O156 Mn157 2.290 1_455 S
O156 C167 1.278 . S
Mn157 O156 2.290 1_655 S
Mn157 O159 2.089 . S
Mn157 O162 2.251 . S
Mn157 O163 2.087 . S
O158 Mn152 2.163 1_655 S
O158 C168 1.244 . S
O159 Mn157 2.089 . S
O159 C166 1.256 . S
O160 Mn152 2.160 . S
O160 C169 1.239 . S
O161 Mn154 2.089 . S
O161 C169 1.256 . S
O162 Mn157 2.251 . S
O162 C167 1.241 1_655 S
O163 Mn157 2.087 . S
O163 C168 1.256 . S
C164 O170 1.278 . S
C164 O171 1.241 . S
C165 O151 1.244 . S
C165 O153 1.256 . S
C166 O155 1.239 . S
C166 O159 1.256 . S
C167 O156 1.278 . S
C167 O162 1.241 1_455 S
C168 O158 1.244 . S
C168 O163 1.256 . S
C169 O160 1.239 . S
C169 O161 1.256 . S
O170 Mn152 2.221 . S
O170 Mn154 2.290 . S
O170 C164 1.278 . S
O171 Mn154 2.251 . S
O171 C164 1.241 . S
C172 C173 1.391 . S
C172 C174 1.394 . S
C172 H188 0.931 . S
C173 C172 1.391 . S
C173 C177 1.376 . S
C174 C172 1.394 . S
C174 C175 1.369 . S
C174 C178 1.531 1_545 S
C175 C174 1.369 . S
C175 C176 1.410 . S
C175 C183 1.503 . S
C176 C175 1.410 . S
C176 C177 1.392 . S
C176 C179 1.511 . S
C177 C173 1.376 . S
C177 C176 1.392 . S
C177 H189 0.929 . S
C178 C174 1.531 1_565 S
C178 H190 0.960 . S
C178 H191 0.962 . S
C178 H192 0.960 . S
C179 C176 1.511 . S
C179 H193 0.961 . S
C179 H194 0.961 . S
C179 H195 0.961 . S
C180 C181 1.370 . S
C180 C182 1.363 . S
C180 H196 0.931 . S
C181 C180 1.370 . S
C181 C185 1.408 . S
C182 C180 1.363 . S
C182 C183 1.370 . S
C182 C186 1.524 . S
C183 C175 1.503 . S
C183 C182 1.370 . S
C183 C184 1.403 . S
C184 C183 1.403 . S
C184 C185 1.404 . S
C184 C187 1.539 . S
C185 C181 1.408 . S
C185 C184 1.404 . S
C185 H197 0.930 . S
C186 C182 1.524 . S
C186 H198 0.956 . S
C186 H199 0.961 . S
C186 H200 0.961 . S
C187 C184 1.539 . S
C187 H201 0.958 . S
C187 H202 0.961 . S
C187 H203 0.960 . S
H188 C172 0.931 . S
H189 C177 0.929 . S
H190 C178 0.960 . S
H191 C178 0.962 . S
H192 C178 0.960 . S
H193 C179 0.961 . S
H194 C179 0.961 . S
H195 C179 0.961 . S
H196 C180 0.931 . S
H197 C185 0.930 . S
H198 C186 0.956 . S
H199 C186 0.961 . S
H200 C186 0.961 . S
H201 C187 0.958 . S
H202 C187 0.961 . S
H203 C187 0.960 . S
C204 C205 1.391 . S
C204 C206 1.394 . S
C204 H220 0.931 . S
C205 C204 1.391 . S
C205 C209 1.376 . S
C206 C204 1.394 . S
C206 C207 1.369 . S
C206 C210 1.531 . S
C207 C206 1.369 . S
C207 C208 1.410 . S
C207 C215 1.503 . S
C208 C207 1.410 . S
C208 C209 1.392 . S
C208 C211 1.511 . S
C209 C205 1.376 . S
C209 C208 1.392 . S
C209 H221 0.929 . S
C210 C206 1.531 . S
C210 H222 0.960 . S
C210 H223 0.962 . S
C210 H224 0.960 . S
C211 C208 1.511 . S
C211 H225 0.961 . S
C211 H226 0.961 . S
C211 H227 0.961 . S
C212 C213 1.370 . S
C212 C214 1.363 . S
C212 H228 0.931 . S
C213 C212 1.370 . S
C213 C217 1.408 . S
C214 C212 1.363 . S
C214 C215 1.370 . S
C214 C218 1.524 . S
C215 C207 1.503 . S
C215 C214 1.370 . S
C215 C216 1.403 . S
C216 C215 1.403 . S
C216 C217 1.404 . S
C216 C219 1.539 . S
C217 C213 1.408 . S
C217 C216 1.404 . S
C217 H229 0.930 . S
C218 C214 1.524 . S
C218 H230 0.956 . S
C218 H231 0.961 . S
C218 H232 0.961 . S
C219 C216 1.539 . S
C219 H233 0.958 . S
C219 H234 0.961 . S
C219 H235 0.960 . S
H220 C204 0.931 . S
H221 C209 0.929 . S
H222 C210 0.960 . S
H223 C210 0.962 . S
H224 C210 0.960 . S
H225 C211 0.961 . S
H226 C211 0.961 . S
H227 C211 0.961 . S
H228 C212 0.931 . S
H229 C217 0.930 . S
H230 C218 0.956 . S
H231 C218 0.961 . S
H232 C218 0.961 . S
H233 C219 0.958 . S
H234 C219 0.961 . S
H235 C219 0.960 . S
C236 C237 1.391 . S
C236 C238 1.394 . S
C236 H252 0.931 . S
C237 C236 1.391 . S
C237 C241 1.376 . S
C238 C236 1.394 . S
C238 C239 1.369 . S
C238 C242 1.531 . S
C239 C238 1.369 . S
C239 C240 1.410 . S
C239 C247 1.503 . S
C240 C239 1.410 . S
C240 C241 1.392 . S
C240 C243 1.511 . S
C241 C237 1.376 . S
C241 C240 1.392 . S
C241 H253 0.929 . S
C242 C238 1.531 . S
C242 H254 0.960 . S
C242 H255 0.962 . S
C242 H256 0.960 . S
C243 C240 1.511 . S
C243 H257 0.961 . S
C243 H258 0.961 . S
C243 H259 0.961 . S
C244 C245 1.370 . S
C244 C246 1.363 . S
C244 H260 0.931 . S
C245 C244 1.370 . S
C245 C249 1.408 . S
C246 C244 1.363 . S
C246 C247 1.370 . S
C246 C250 1.524 . S
C247 C239 1.503 . S
C247 C246 1.370 . S
C247 C248 1.403 . S
C248 C247 1.403 . S
C248 C249 1.404 . S
C248 C251 1.539 . S
C249 C245 1.408 . S
C249 C248 1.404 . S
C249 H261 0.930 . S
C250 C246 1.524 . S
C250 H262 0.956 . S
C250 H263 0.961 . S
C250 H264 0.961 . S
C251 C248 1.539 . S
C251 H265 0.958 . S
C251 H266 0.961 . S
C251 H267 0.960 . S
H252 C236 0.931 . S
H253 C241 0.929 . S
H254 C242 0.960 . S
H255 C242 0.962 . S
H256 C242 0.960 . S
H257 C243 0.961 . S
H258 C243 0.961 . S
H259 C243 0.961 . S
H260 C244 0.931 . S
H261 C249 0.930 . S
H262 C250 0.956 . S
H263 C250 0.961 . S
H264 C250 0.961 . S
H265 C251 0.958 . S
H266 C251 0.961 . S
H267 C251 0.960 . S
C268 C269 1.391 . S
C268 C270 1.394 . S
C268 H284 0.931 . S
C269 C268 1.391 . S
C269 C273 1.376 . S
C270 C268 1.394 . S
C270 C271 1.369 . S
C270 C274 1.556 . S
C271 C270 1.369 . S
C271 C272 1.410 . S
C271 C279 1.503 . S
C272 C271 1.410 . S
C272 C273 1.392 . S
C272 C275 1.511 . S
C273 C269 1.376 . S
C273 C272 1.392 . S
C273 H285 0.929 . S
C274 C270 1.556 . S
C274 H286 0.965 . S
C274 H287 0.941 1_455 S
C274 H288 0.952 1_455 S
C275 C272 1.511 . S
C275 H289 0.961 . S
C275 H290 0.961 . S
C275 H291 0.961 . S
C276 C277 1.370 . S
C276 C278 1.363 . S
C276 H292 0.931 . S
C277 C276 1.370 . S
C277 C281 1.408 . S
C278 C276 1.363 . S
C278 C279 1.370 . S
C278 C282 1.524 . S
C279 C271 1.503 . S
C279 C278 1.370 . S
C279 C280 1.403 . S
C280 C279 1.403 . S
C280 C281 1.404 . S
C280 C283 1.539 . S
C281 C277 1.408 . S
C281 C280 1.404 . S
C281 H293 0.930 . S
C282 C278 1.524 . S
C282 H294 0.956 . S
C282 H295 0.961 . S
C282 H296 0.961 . S
C283 C280 1.539 . S
C283 H297 0.958 . S
C283 H298 0.961 . S
C283 H299 0.960 . S
H284 C268 0.931 . S
H285 C273 0.929 . S
H286 C274 0.965 . S
H287 C274 0.941 1_655 S
H288 C274 0.952 1_655 S
H289 C275 0.961 . S
H290 C275 0.961 . S
H291 C275 0.961 . S
H292 C276 0.931 . S
H293 C281 0.930 . S
H294 C282 0.956 . S
H295 C282 0.961 . S
H296 C282 0.961 . S
H297 C283 0.958 . S
H298 C283 0.961 . S
H299 C283 0.960 . S
C300 C301 1.391 . S
C300 C302 1.394 1_554 S
C300 H316 0.931 . S
C301 C300 1.391 . S
C301 C305 1.376 1_554 S
C302 C300 1.394 1_556 S
C302 C303 1.369 . S
C302 C306 1.531 1_556 S
C303 C302 1.369 . S
C303 C304 1.410 . S
C303 C311 1.503 . S
C304 C303 1.410 . S
C304 C305 1.392 . S
C304 C307 1.511 1_565 S
C305 C301 1.376 1_556 S
C305 C304 1.392 . S
C305 H317 0.929 1_565 S
C306 C302 1.531 1_554 S
C306 H318 0.960 1_554 S
C306 H319 0.962 . S
C306 H320 0.960 . S
C307 C304 1.511 1_545 S
C307 H321 0.961 . S
C307 H322 0.961 . S
C307 H323 0.961 . S
C308 C309 1.370 . S
C308 C310 1.363 . S
C308 H324 0.931 . S
C309 C308 1.370 . S
C309 C313 1.408 1_545 S
C310 C308 1.363 . S
C310 C311 1.370 1_545 S
C310 C314 1.524 . S
C311 C303 1.503 . S
C311 C310 1.370 1_565 S
C311 C312 1.403 . S
C312 C311 1.403 . S
C312 C313 1.404 . S
C312 C315 1.539 . S
C313 C309 1.408 1_565 S
C313 C312 1.404 . S
C313 H325 0.930 . S
C314 C310 1.524 . S
C314 H326 0.956 1_556 S
C314 H327 0.961 . S
C314 H328 0.961 1_556 S
C315 C312 1.539 . S
C315 H329 0.958 . S
C315 H330 0.961 . S
C315 H331 0.960 . S
H316 C300 0.931 . S
H317 C305 0.929 1_545 S
H318 C306 0.960 1_556 S
H319 C306 0.962 . S
H320 C306 0.960 . S
H321 C307 0.961 . S
H322 C307 0.961 . S
H323 C307 0.961 . S
H324 C308 0.931 . S
H325 C313 0.930 . S
H326 C314 0.956 1_554 S
H327 C314 0.961 . S
H328 C314 0.961 1_554 S
H329 C315 0.958 . S
H330 C315 0.961 . S
H331 C315 0.960 . S
C332 C333 1.391 . S
C332 C334 1.394 . S
C332 H348 0.931 . S
C333 C332 1.391 . S
C333 C337 1.376 1_554 S
C334 C332 1.394 . S
C334 C335 1.369 1_554 S
C334 C338 1.531 . S
C335 C334 1.369 1_556 S
C335 C336 1.410 . S
C335 C343 1.503 . S
C336 C335 1.410 . S
C336 C337 1.392 . S
C336 C339 1.511 . S
C337 C333 1.376 1_556 S
C337 C336 1.392 . S
C337 H349 0.929 . S
C338 C334 1.531 . S
C338 H350 0.960 . S
C338 H351 0.962 . S
C338 H352 0.960 . S
C339 C336 1.511 . S
C339 H353 0.961 . S
C339 H354 0.961 . S
C339 H355 0.961 . S
C340 C341 1.370 . S
C340 C342 1.363 . S
C340 H356 0.931 . S
C341 C340 1.370 . S
C341 C345 1.408 . S
C342 C340 1.363 . S
C342 C343 1.370 . S
C342 C346 1.524 . S
C343 C335 1.503 . S
C343 C342 1.370 . S
C343 C344 1.403 . S
C344 C343 1.403 . S
C344 C345 1.404 . S
C344 C347 1.539 . S
C345 C341 1.408 . S
C345 C344 1.404 . S
C345 H357 0.930 . S
C346 C342 1.524 . S
C346 H358 0.956 . S
C346 H359 0.961 . S
C346 H360 0.961 . S
C347 C344 1.539 . S
C347 H361 0.958 1_556 S
C347 H362 0.961 . S
C347 H363 0.960 . S
H348 C332 0.931 . S
H349 C337 0.929 . S
H350 C338 0.960 . S
H351 C338 0.962 . S
H352 C338 0.960 . S
H353 C339 0.961 . S
H354 C339 0.961 . S
H355 C339 0.961 . S
H356 C340 0.931 . S
H357 C345 0.930 . S
H358 C346 0.956 . S
H359 C346 0.961 . S
H360 C346 0.961 . S
H361 C347 0.958 1_554 S
H362 C347 0.961 . S
H363 C347 0.960 . S
C364 C365 1.391 . S
C364 C366 1.394 1_554 S
C364 H380 0.931 . S
C365 C364 1.391 . S
C365 C369 1.376 1_554 S
C366 C364 1.394 1_556 S
C366 C367 1.369 . S
C366 C370 1.531 . S
C367 C366 1.369 . S
C367 C368 1.410 . S
C367 C375 1.503 . S
C368 C367 1.410 . S
C368 C369 1.392 . S
C368 C371 1.511 . S
C369 C365 1.376 1_556 S
C369 C368 1.392 . S
C369 H381 0.929 . S
C370 C366 1.531 . S
C370 H382 0.960 . S
C370 H383 0.962 . S
C370 H384 0.960 1_556 S
C371 C368 1.511 . S
C371 H385 0.961 . S
C371 H386 0.961 . S
C371 H387 0.961 . S
C372 C373 1.370 . S
C372 C374 1.363 . S
C372 H388 0.931 . S
C373 C372 1.370 . S
C373 C377 1.408 . S
C374 C372 1.363 . S
C374 C375 1.370 . S
C374 C378 1.524 . S
C375 C367 1.503 . S
C375 C374 1.370 . S
C375 C376 1.403 . S
C376 C375 1.403 . S
C376 C377 1.404 . S
C376 C379 1.539 1_556 S
C377 C373 1.408 . S
C377 C376 1.404 . S
C377 H389 0.930 . S
C378 C374 1.524 . S
C378 H390 0.956 . S
C378 H391 0.961 . S
C378 H392 0.961 . S
C379 C376 1.539 1_554 S
C379 H393 0.958 . S
C379 H394 0.961 . S
C379 H395 0.960 . S
H380 C364 0.931 . S
H381 C369 0.929 . S
H382 C370 0.960 . S
H383 C370 0.962 . S
H384 C370 0.960 1_554 S
H385 C371 0.961 . S
H386 C371 0.961 . S
H387 C371 0.961 . S
H388 C372 0.931 . S
H389 C377 0.930 . S
H390 C378 0.956 . S
H391 C378 0.961 . S
H392 C378 0.961 . S
H393 C379 0.958 . S
H394 C379 0.961 . S
H395 C379 0.960 . S
C396 C397 1.391 1_556 S
C396 C398 1.394 . S
C396 H412 0.931 . S
C397 C396 1.391 1_554 S
C397 C401 1.376 1_654 S
C398 C396 1.394 . S
C398 C399 1.369 . S
C398 C402 1.531 . S
C399 C398 1.369 . S
C399 C400 1.410 1_655 S
C399 C407 1.503 . S
C400 C399 1.410 1_455 S
C400 C401 1.392 . S
C400 C403 1.511 . S
C401 C397 1.376 1_456 S
C401 C400 1.392 . S
C401 H413 0.929 1_556 S
C402 C398 1.531 . S
C402 H414 0.960 . S
C402 H415 0.962 . S
C402 H416 0.960 . S
C403 C400 1.511 . S
C403 H417 0.961 . S
C403 H418 0.961 . S
C403 H419 0.961 . S
C404 C405 1.370 . S
C404 C406 1.364 1_455 S
C404 H420 0.931 . S
C405 C404 1.370 . S
C405 C409 1.408 . S
C406 C404 1.364 1_655 S
C406 C407 1.370 . S
C406 C410 1.524 1_556 S
C407 C399 1.503 . S
C407 C406 1.370 . S
C407 C408 1.403 . S
C408 C407 1.403 . S
C408 C409 1.404 1_655 S
C408 C411 1.539 . S
C409 C405 1.408 . S
C409 C408 1.404 1_455 S
C409 H421 0.930 . S
C410 C406 1.524 1_554 S
C410 H422 0.956 . S
C410 H423 0.961 1_655 S
C410 H424 0.961 1_655 S
C411 C408 1.539 . S
C411 H425 0.958 . S
C411 H426 0.961 1_655 S
C411 H427 0.951 1_655 S
H412 C396 0.931 . S
H413 C401 0.929 1_554 S
H414 C402 0.960 . S
H415 C402 0.962 . S
H416 C402 0.960 . S
H417 C403 0.961 . S
H418 C403 0.961 . S
H419 C403 0.961 . S
H420 C404 0.931 . S
H421 C409 0.930 . S
H422 C410 0.956 . S
H423 C410 0.961 1_455 S
H424 C410 0.961 1_455 S
H425 C411 0.958 . S
H426 C411 0.961 1_455 S
H427 C411 0.951 1_455 S
C428 C429 1.391 . S
C428 C430 1.394 . S
C428 H444 0.931 . S
C429 C428 1.391 . S
C429 C433 1.376 . S
C430 C428 1.394 . S
C430 C431 1.369 . S
C430 C434 1.531 1_455 S
C431 C430 1.369 . S
C431 C432 1.410 . S
C431 C439 1.503 . S
C432 C431 1.410 . S
C432 C433 1.392 . S
C432 C435 1.511 . S
C433 C429 1.376 . S
C433 C432 1.392 . S
C433 H445 0.929 . S
C434 C430 1.531 1_655 S
C434 H446 0.960 . S
C434 H447 0.962 . S
C434 H448 0.960 . S
C435 C432 1.511 . S
C435 H449 0.961 . S
C435 H450 0.961 . S
C435 H451 0.961 . S
C436 C437 1.370 . S
C436 C438 1.363 . S
C436 H452 0.931 . S
C437 C436 1.370 . S
C437 C441 1.408 . S
C438 C436 1.363 . S
C438 C439 1.370 . S
C438 C442 1.524 . S
C439 C431 1.503 . S
C439 C438 1.370 . S
C439 C440 1.403 . S
C440 C439 1.403 . S
C440 C441 1.404 . S
C440 C443 1.539 . S
C441 C437 1.408 . S
C441 C440 1.404 . S
C441 H453 0.930 . S
C442 C438 1.524 . S
C442 H454 0.956 . S
C442 H455 0.961 . S
C442 H456 0.961 . S
C443 C440 1.539 . S
C443 H457 0.958 . S
C443 H458 0.961 . S
C443 H459 0.960 . S
H444 C428 0.931 . S
H445 C433 0.929 . S
H446 C434 0.960 . S
H447 C434 0.962 . S
H448 C434 0.960 . S
H449 C435 0.961 . S
H450 C435 0.961 . S
H451 C435 0.961 . S
H452 C436 0.931 . S
H453 C441 0.930 . S
H454 C442 0.956 . S
H455 C442 0.961 . S
H456 C442 0.961 . S
H457 C443 0.958 . S
H458 C443 0.961 . S
H459 C443 0.960 . S
C460 C461 1.391 . S
C460 C462 1.394 . S
C460 H476 0.931 . S
C461 C460 1.391 . S
C461 C465 1.376 . S
C462 C460 1.394 . S
C462 C463 1.369 . S
C462 C466 1.531 . S
C463 C462 1.369 . S
C463 C464 1.410 . S
C463 C471 1.503 . S
C464 C463 1.410 . S
C464 C465 1.392 . S
C464 C467 1.511 . S
C465 C461 1.376 . S
C465 C464 1.392 . S
C465 H477 0.929 . S
C466 C462 1.531 . S
C466 H478 0.960 . S
C466 H479 0.962 1_545 S
C466 H480 0.960 . S
C467 C464 1.511 . S
C467 H481 0.961 . S
C467 H482 0.961 . S
C467 H483 0.961 . S
C468 C469 1.370 . S
C468 C470 1.363 . S
C468 H484 0.931 1_545 S
C469 C468 1.370 . S
C469 C473 1.408 . S
C470 C468 1.363 . S
C470 C471 1.370 . S
C470 C474 1.524 . S
C471 C463 1.503 . S
C471 C470 1.370 . S
C471 C472 1.403 . S
C472 C471 1.403 . S
C472 C473 1.404 . S
C472 C475 1.539 . S
C473 C469 1.408 . S
C473 C472 1.404 . S
C473 H485 0.930 . S
C474 C470 1.524 . S
C474 H486 0.956 1_545 S
C474 H487 0.961 . S
C474 H488 0.961 1_545 S
C475 C472 1.539 . S
C475 H489 0.958 . S
C475 H490 0.961 . S
C475 H491 0.960 . S
H476 C460 0.931 . S
H477 C465 0.929 . S
H478 C466 0.960 . S
H479 C466 0.962 1_565 S
H480 C466 0.960 . S
H481 C467 0.961 . S
H482 C467 0.961 . S
H483 C467 0.961 . S
H484 C468 0.931 1_565 S
H485 C473 0.930 . S
H486 C474 0.956 1_565 S
H487 C474 0.961 . S
H488 C474 0.961 1_565 S
H489 C475 0.958 . S
H490 C475 0.961 . S
H491 C475 0.960 . S
C492 C493 1.391 . S
C492 C494 1.394 . S
C492 H508 0.931 . S
C493 C492 1.391 . S
C493 C497 1.376 . S
C494 C492 1.394 . S
C494 C495 1.369 . S
C494 C498 1.531 . S
C495 C494 1.369 . S
C495 C496 1.410 . S
C495 C503 1.503 . S
C496 C495 1.410 . S
C496 C497 1.392 . S
C496 C499 1.511 . S
C497 C493 1.376 . S
C497 C496 1.392 . S
C497 H509 0.929 . S
C498 C494 1.531 . S
C498 H510 0.960 . S
C498 H511 0.962 . S
C498 H512 0.960 . S
C499 C496 1.511 . S
C499 H513 0.961 . S
C499 H514 0.961 . S
C499 H515 0.961 . S
C500 C501 1.370 . S
C500 C502 1.363 . S
C500 H516 0.931 . S
C501 C500 1.370 . S
C501 C505 1.408 . S
C502 C500 1.363 . S
C502 C503 1.370 . S
C502 C506 1.524 . S
C503 C495 1.503 . S
C503 C502 1.370 . S
C503 C504 1.403 . S
C504 C503 1.403 . S
C504 C505 1.404 . S
C504 C507 1.539 . S
C505 C501 1.408 . S
C505 C504 1.404 . S
C505 H517 0.930 . S
C506 C502 1.524 . S
C506 H518 0.956 . S
C506 H519 0.961 . S
C506 H520 0.961 . S
C507 C504 1.539 . S
C507 H521 0.958 . S
C507 H522 0.961 . S
C507 H523 0.960 . S
H508 C492 0.931 . S
H509 C497 0.929 . S
H510 C498 0.960 . S
H511 C498 0.962 . S
H512 C498 0.960 . S
H513 C499 0.961 . S
H514 C499 0.961 . S
H515 C499 0.961 . S
H516 C500 0.931 . S
H517 C505 0.930 . S
H518 C506 0.956 . S
H519 C506 0.961 . S
H520 C506 0.961 . S
H521 C507 0.958 . S
H522 C507 0.961 . S
H523 C507 0.960 . S
C524 C525 1.391 . S
C524 C526 1.394 . S
C524 H540 0.931 . S
C525 C524 1.391 . S
C525 C529 1.376 . S
C526 C524 1.394 . S
C526 C527 1.369 . S
C526 C530 1.531 . S
C527 C526 1.369 . S
C527 C528 1.410 . S
C527 C535 1.503 . S
C528 C527 1.410 . S
C528 C529 1.392 . S
C528 C531 1.511 . S
C529 C525 1.376 . S
C529 C528 1.392 . S
C529 H541 0.929 . S
C530 C526 1.531 . S
C530 H542 0.960 . S
C530 H543 0.962 . S
C530 H544 0.960 . S
C531 C528 1.511 . S
C531 H545 0.961 . S
C531 H546 0.961 . S
C531 H547 0.961 . S
C532 C533 1.370 . S
C532 C534 1.363 . S
C532 H548 0.931 . S
C533 C532 1.370 . S
C533 C537 1.408 . S
C534 C532 1.363 . S
C534 C535 1.370 . S
C534 C538 1.524 . S
C535 C527 1.503 . S
C535 C534 1.370 . S
C535 C536 1.403 . S
C536 C535 1.403 . S
C536 C537 1.404 . S
C536 C539 1.539 . S
C537 C533 1.408 . S
C537 C536 1.404 . S
C537 H549 0.930 . S
C538 C534 1.524 . S
C538 H550 0.956 . S
C538 H551 0.961 . S
C538 H552 0.961 . S
C539 C536 1.539 . S
C539 H553 0.958 . S
C539 H554 0.961 . S
C539 H555 0.960 . S
H540 C524 0.931 . S
H541 C529 0.929 . S
H542 C530 0.960 . S
H543 C530 0.962 . S
H544 C530 0.960 . S
H545 C531 0.961 . S
H546 C531 0.961 . S
H547 C531 0.961 . S
H548 C532 0.931 . S
H549 C537 0.930 . S
H550 C538 0.956 . S
H551 C538 0.961 . S
H552 C538 0.961 . S
H553 C539 0.958 . S
H554 C539 0.961 . S
H555 C539 0.960 . S
C556 C557 1.391 1_455 S
C556 C558 1.394 1_554 S
C556 H572 0.931 . S
C557 C556 1.391 1_655 S
C557 C561 1.376 1_554 S
C558 C556 1.394 1_556 S
C558 C559 1.369 1_455 S
C558 C562 1.531 . S
C559 C558 1.369 1_655 S
C559 C560 1.410 . S
C559 C567 1.503 1_655 S
C560 C559 1.410 . S
C560 C561 1.392 . S
C560 C563 1.511 . S
C561 C557 1.376 1_556 S
C561 C560 1.392 . S
C561 H573 0.929 . S
C562 C558 1.531 . S
C562 H574 0.960 . S
C562 H575 0.962 1_556 S
C562 H576 0.960 . S
C563 C560 1.511 . S
C563 H577 0.961 . S
C563 H578 0.961 . S
C563 H579 0.961 . S
C564 C565 1.370 . S
C564 C566 1.371 . S
C564 H580 0.931 . S
C565 C564 1.370 . S
C565 C569 1.408 . S
C566 C564 1.371 . S
C566 C567 1.373 . S
C566 C570 1.514 1_456 S
C567 C559 1.503 1_455 S
C567 C566 1.373 . S
C567 C568 1.403 . S
C568 C567 1.403 . S
C568 C569 1.404 . S
C568 C571 1.539 . S
C569 C565 1.408 . S
C569 C568 1.404 . S
C569 H581 0.930 . S
C570 C566 1.514 1_654 S
C570 H582 0.956 1_655 S
C570 H583 0.961 . S
C570 H584 0.961 . S
C571 C568 1.539 . S
C571 H585 0.958 . S
C571 H586 0.961 . S
C571 H587 0.960 . S
H572 C556 0.931 . S
H573 C561 0.929 . S
H574 C562 0.960 . S
H575 C562 0.962 1_554 S
H576 C562 0.960 . S
H577 C563 0.961 . S
H578 C563 0.961 . S
H579 C563 0.961 . S
H580 C564 0.931 . S
H581 C569 0.930 . S
H582 C570 0.956 1_455 S
H583 C570 0.961 . S
H584 C570 0.961 . S
H585 C571 0.958 . S
H586 C571 0.961 . S
H587 C571 0.960 . S
C588 C589 1.391 1_556 S
C588 C590 1.394 . S
C588 H604 0.931 . S
C589 C588 1.391 1_554 S
C589 C593 1.376 . S
C590 C588 1.394 . S
C590 C591 1.369 . S
C590 C594 1.531 1_565 S
C591 C590 1.369 . S
C591 C592 1.419 . S
C591 C599 1.503 . S
C592 C591 1.419 . S
C592 C593 1.387 1_556 S
C592 C595 1.507 1_556 S
C593 C589 1.376 . S
C593 C592 1.387 1_554 S
C593 H605 0.929 . S
C594 C590 1.531 1_545 S
C594 H606 0.960 . S
C594 H607 0.962 . S
C594 H608 0.960 . S
C595 C592 1.507 1_554 S
C595 H609 0.961 . S
C595 H610 0.961 . S
C595 H611 0.961 . S
C596 C597 1.370 . S
C596 C598 1.363 . S
C596 H612 0.931 . S
C597 C596 1.370 . S
C597 C601 1.408 1_545 S
C598 C596 1.363 . S
C598 C599 1.370 1_545 S
C598 C602 1.524 . S
C599 C591 1.503 . S
C599 C598 1.370 1_565 S
C599 C600 1.403 . S
C600 C599 1.403 . S
C600 C601 1.404 . S
C600 C603 1.539 . S
C601 C597 1.408 1_565 S
C601 C600 1.404 . S
C601 H613 0.930 . S
C602 C598 1.524 . S
C602 H614 0.956 . S
C602 H615 0.961 1_556 S
C602 H616 0.961 1_556 S
C603 C600 1.539 . S
C603 H617 0.958 . S
C603 H618 0.961 . S
C603 H619 0.960 . S
H604 C588 0.931 . S
H605 C593 0.929 . S
H606 C594 0.960 . S
H607 C594 0.962 . S
H608 C594 0.960 . S
H609 C595 0.961 . S
H610 C595 0.961 . S
H611 C595 0.961 . S
H612 C596 0.931 . S
H613 C601 0.930 . S
H614 C602 0.956 . S
H615 C602 0.961 1_554 S
H616 C602 0.961 1_554 S
H617 C603 0.958 . S
H618 C603 0.961 . S
H619 C603 0.960 . S
C620 C621 1.391 . S
C620 C622 1.395 . S
C620 H636 0.931 . S
C621 C620 1.391 . S
C621 C625 1.376 1_554 S
C622 C620 1.395 . S
C622 C623 1.367 1_554 S
C622 C626 1.531 . S
C623 C622 1.367 1_556 S
C623 C624 1.410 . S
C623 C631 1.503 . S
C624 C623 1.410 . S
C624 C625 1.392 . S
C624 C627 1.511 . S
C625 C621 1.376 1_556 S
C625 C624 1.392 . S
C625 H637 0.929 . S
C626 C622 1.531 . S
C626 H638 0.960 . S
C626 H639 0.962 1_554 S
C626 H640 0.960 . S
C627 C624 1.511 . S
C627 H641 0.961 . S
C627 H642 0.961 . S
C627 H643 0.961 . S
C628 C629 1.370 . S
C628 C630 1.363 . S
C628 H644 0.931 . S
C629 C628 1.370 . S
C629 C633 1.408 . S
C630 C628 1.363 . S
C630 C631 1.370 . S
C630 C634 1.524 . S
C631 C623 1.503 . S
C631 C630 1.370 . S
C631 C632 1.403 . S
C632 C631 1.403 . S
C632 C633 1.404 . S
C632 C635 1.539 1_556 S
C633 C629 1.408 . S
C633 C632 1.404 . S
C633 H645 0.930 . S
C634 C630 1.524 . S
C634 H646 0.956 . S
C634 H647 0.961 . S
C634 H648 0.961 . S
C635 C632 1.539 1_554 S
C635 H649 0.958 . S
C635 H650 0.961 . S
C635 H651 0.960 . S
H636 C620 0.931 . S
H637 C625 0.929 . S
H638 C626 0.960 . S
H639 C626 0.962 1_556 S
H640 C626 0.960 . S
H641 C627 0.961 . S
H642 C627 0.961 . S
H643 C627 0.961 . S
H644 C628 0.931 . S
H645 C633 0.930 . S
H646 C634 0.956 . S
H647 C634 0.961 . S
H648 C634 0.961 . S
H649 C635 0.958 . S
H650 C635 0.961 . S
H651 C635 0.960 . S
C652 C653 1.391 . S
C652 C654 1.394 1_554 S
C652 H668 0.931 . S
C653 C652 1.391 . S
C653 C657 1.376 1_554 S
C654 C652 1.394 1_556 S
C654 C655 1.369 . S
C654 C658 1.531 . S
C655 C654 1.369 . S
C655 C656 1.410 . S
C655 C663 1.503 . S
C656 C655 1.410 . S
C656 C657 1.392 . S
C656 C659 1.511 . S
C657 C653 1.376 1_556 S
C657 C656 1.392 . S
C657 H669 0.929 . S
C658 C654 1.531 . S
C658 H670 0.960 . S
C658 H671 0.962 1_556 S
C658 H672 0.960 . S
C659 C656 1.511 . S
C659 H673 0.961 . S
C659 H674 0.961 . S
C659 H675 0.961 . S
C660 C661 1.370 . S
C660 C662 1.363 . S
C660 H676 0.931 . S
C661 C660 1.370 . S
C661 C665 1.408 . S
C662 C660 1.363 . S
C662 C663 1.370 . S
C662 C666 1.524 1_556 S
C663 C655 1.503 . S
C663 C662 1.370 . S
C663 C664 1.403 . S
C664 C663 1.403 . S
C664 C665 1.404 . S
C664 C667 1.539 . S
C665 C661 1.408 . S
C665 C664 1.404 . S
C665 H677 0.930 . S
C666 C662 1.524 1_554 S
C666 H678 0.956 . S
C666 H679 0.961 . S
C666 H680 0.961 . S
C667 C664 1.539 . S
C667 H681 0.958 . S
C667 H682 0.961 . S
C667 H683 0.960 . S
H668 C652 0.931 . S
H669 C657 0.929 . S
H670 C658 0.960 . S
H671 C658 0.962 1_554 S
H672 C658 0.960 . S
H673 C659 0.961 . S
H674 C659 0.961 . S
H675 C659 0.961 . S
H676 C660 0.931 . S
H677 C665 0.930 . S
H678 C666 0.956 . S
H679 C666 0.961 . S
H680 C666 0.961 . S
H681 C667 0.958 . S
H682 C667 0.961 . S
H683 C667 0.960 . S
C684 C685 1.391 . S
C684 C686 1.394 . S
C684 H700 0.931 . S
C685 C684 1.391 . S
C685 C689 1.376 . S
C686 C684 1.394 . S
C686 C687 1.369 . S
C686 C690 1.531 . S
C687 C686 1.369 . S
C687 C688 1.410 . S
C687 C695 1.503 . S
C688 C687 1.410 . S
C688 C689 1.392 . S
C688 C691 1.511 . S
C689 C685 1.376 . S
C689 C688 1.392 . S
C689 H701 0.929 . S
C690 C686 1.531 . S
C690 H702 0.960 . S
C690 H703 0.962 . S
C690 H704 0.960 . S
C691 C688 1.511 . S
C691 H705 0.961 1_454 S
C691 H706 0.961 1_554 S
C691 H707 0.961 1_455 S
C692 C693 1.370 . S
C692 C694 1.363 . S
C692 H708 0.931 . S
C693 C692 1.370 . S
C693 C697 1.408 . S
C694 C692 1.363 . S
C694 C695 1.370 1_556 S
C694 C698 1.524 . S
C695 C687 1.503 . S
C695 C694 1.370 1_554 S
C695 C696 1.403 . S
C696 C695 1.403 . S
C696 C697 1.404 1_554 S
C696 C699 1.539 . S
C697 C693 1.408 . S
C697 C696 1.404 1_556 S
C697 H709 0.930 . S
C698 C694 1.524 . S
C698 H710 0.956 . S
C698 H711 0.961 . S
C698 H712 0.961 . S
C699 C696 1.539 . S
C699 H713 0.958 . S
C699 H714 0.961 1_455 S
C699 H715 0.960 . S
H700 C684 0.931 . S
H701 C689 0.929 . S
H702 C690 0.960 . S
H703 C690 0.962 . S
H704 C690 0.960 . S
H705 C691 0.961 1_656 S
H706 C691 0.961 1_556 S
H707 C691 0.961 1_655 S
H708 C692 0.931 . S
H709 C697 0.930 . S
H710 C698 0.956 . S
H711 C698 0.961 . S
H712 C698 0.961 . S
H713 C699 0.958 . S
H714 C699 0.961 1_655 S
H715 C699 0.960 . S
C716 C717 1.391 . S
C716 C718 1.394 . S
C716 H732 0.931 . S
C717 C716 1.391 . S
C717 C721 1.376 . S
C718 C716 1.394 . S
C718 C719 1.369 . S
C718 C722 1.531 . S
C719 C718 1.369 . S
C719 C720 1.410 . S
C719 C727 1.503 . S
C720 C719 1.410 . S
C720 C721 1.392 . S
C720 C723 1.511 1_545 S
C721 C717 1.376 . S
C721 C720 1.392 . S
C721 H733 0.929 . S
C722 C718 1.531 . S
C722 H734 0.960 . S
C722 H735 0.962 . S
C722 H736 0.960 . S
C723 C720 1.511 1_565 S
C723 H737 0.961 . S
C723 H738 0.961 1_564 S
C723 H739 0.961 . S
C724 C725 1.370 . S
C724 C726 1.363 . S
C724 H740 0.931 . S
C725 C724 1.370 . S
C725 C729 1.408 . S
C726 C724 1.363 . S
C726 C727 1.370 1_556 S
C726 C730 1.524 . S
C727 C719 1.503 . S
C727 C726 1.370 1_554 S
C727 C728 1.403 . S
C728 C727 1.403 . S
C728 C729 1.404 1_554 S
C728 C731 1.539 . S
C729 C725 1.408 . S
C729 C728 1.404 1_556 S
C729 H741 0.926 1_556 S
C730 C726 1.524 . S
C730 H742 0.956 . S
C730 H743 0.961 . S
C730 H744 0.961 . S
C731 C728 1.539 . S
C731 H745 0.958 . S
C731 H746 0.961 1_545 S
C731 H747 0.960 . S
H732 C716 0.931 . S
H733 C721 0.929 . S
H734 C722 0.960 . S
H735 C722 0.962 . S
H736 C722 0.960 . S
H737 C723 0.961 . S
H738 C723 0.961 1_546 S
H739 C723 0.961 . S
H740 C724 0.931 . S
H741 C729 0.926 1_554 S
H742 C730 0.956 . S
H743 C730 0.961 . S
H744 C730 0.961 . S
H745 C731 0.958 . S
H746 C731 0.961 1_565 S
H747 C731 0.960 . S
C748 C749 1.391 . S
C748 C750 1.394 . S
C748 H764 0.931 . S
C749 C748 1.391 . S
C749 C753 1.376 . S
C750 C748 1.394 . S
C750 C751 1.369 . S
C750 C754 1.531 . S
C751 C750 1.369 . S
C751 C752 1.410 . S
C751 C759 1.503 . S
C752 C751 1.410 . S
C752 C753 1.392 . S
C752 C755 1.511 . S
C753 C749 1.376 . S
C753 C752 1.392 . S
C753 H765 0.929 . S
C754 C750 1.531 . S
C754 H766 0.960 . S
C754 H767 0.962 . S
C754 H768 0.960 . S
C755 C752 1.511 . S
C755 H769 0.961 . S
C755 H770 0.961 1_554 S
C755 H771 0.961 . S
C756 C757 1.370 . S
C756 C758 1.363 . S
C756 H772 0.931 . S
C757 C756 1.370 . S
C757 C761 1.408 . S
C758 C756 1.363 . S
C758 C759 1.370 1_556 S
C758 C762 1.524 . S
C759 C751 1.503 . S
C759 C758 1.370 1_554 S
C759 C760 1.403 . S
C760 C759 1.403 . S
C760 C761 1.404 1_554 S
C760 C763 1.539 . S
C761 C757 1.408 . S
C761 C760 1.404 1_556 S
C761 H773 0.930 1_556 S
C762 C758 1.524 . S
C762 H774 0.956 . S
C762 H775 0.961 . S
C762 H776 0.961 . S
C763 C760 1.539 . S
C763 H777 0.958 . S
C763 H778 0.961 . S
C763 H779 0.960 . S
H764 C748 0.931 . S
H765 C753 0.929 . S
H766 C754 0.960 . S
H767 C754 0.962 . S
H768 C754 0.960 . S
H769 C755 0.961 . S
H770 C755 0.961 1_556 S
H771 C755 0.961 . S
H772 C756 0.931 . S
H773 C761 0.930 1_554 S
H774 C762 0.956 . S
H775 C762 0.961 . S
H776 C762 0.961 . S
H777 C763 0.958 . S
H778 C763 0.961 . S
H779 C763 0.960 . S
C780 C781 1.391 . S
C780 C782 1.394 . S
C780 H796 0.931 . S
C781 C780 1.391 . S
C781 C785 1.376 . S
C782 C780 1.394 . S
C782 C783 1.369 . S
C782 C786 1.531 . S
C783 C782 1.369 . S
C783 C784 1.410 . S
C783 C791 1.503 . S
C784 C783 1.410 . S
C784 C785 1.392 . S
C784 C787 1.511 1_554 S
C785 C781 1.376 . S
C785 C784 1.392 . S
C785 H797 0.929 . S
C786 C782 1.531 . S
C786 H798 0.960 . S
C786 H799 0.962 . S
C786 H800 0.960 . S
C787 C784 1.511 1_556 S
C787 H801 0.961 . S
C787 H802 0.961 . S
C787 H803 0.961 . S
C788 C789 1.370 . S
C788 C790 1.363 . S
C788 H804 0.931 . S
C789 C788 1.370 . S
C789 C793 1.408 . S
C790 C788 1.363 . S
C790 C791 1.370 1_556 S
C790 C794 1.524 1_556 S
C791 C783 1.503 . S
C791 C790 1.370 1_554 S
C791 C792 1.403 1_554 S
C792 C791 1.403 1_556 S
C792 C793 1.404 . S
C792 C795 1.539 . S
C793 C789 1.408 . S
C793 C792 1.404 . S
C793 H805 0.930 . S
C794 C790 1.524 1_554 S
C794 H806 0.956 . S
C794 H807 0.961 . S
C794 H808 0.961 . S
C795 C792 1.539 . S
C795 H809 0.958 1_556 S
C795 H810 0.961 . S
C795 H811 0.960 . S
H796 C780 0.931 . S
H797 C785 0.929 . S
H798 C786 0.960 . S
H799 C786 0.962 . S
H800 C786 0.960 . S
H801 C787 0.961 . S
H802 C787 0.961 . S
H803 C787 0.961 . S
H804 C788 0.931 . S
H805 C793 0.930 . S
H806 C794 0.956 . S
H807 C794 0.961 . S
H808 C794 0.961 . S
H809 C795 0.958 1_554 S
H810 C795 0.961 . S
H811 C795 0.960 . S
C812 C813 1.391 . S
C812 C814 1.394 . S
C812 H828 0.931 1_655 S
C813 C812 1.391 . S
C813 C817 1.376 . S
C814 C812 1.394 . S
C814 C815 1.369 . S
C814 C818 1.531 1_655 S
C815 C814 1.369 . S
C815 C816 1.410 . S
C815 C823 1.503 . S
C816 C815 1.410 . S
C816 C817 1.392 . S
C816 C819 1.511 . S
C817 C813 1.376 . S
C817 C816 1.392 . S
C817 H829 0.929 . S
C818 C814 1.531 1_455 S
C818 H830 0.960 . S
C818 H831 0.962 . S
C818 H832 0.960 . S
C819 C816 1.511 . S
C819 H833 0.961 . S
C819 H834 0.961 . S
C819 H835 0.961 . S
C820 C821 1.370 1_455 S
C820 C822 1.363 . S
C820 H836 0.931 . S
C821 C820 1.370 1_655 S
C821 C825 1.408 . S
C822 C820 1.363 . S
C822 C823 1.370 1_455 S
C822 C826 1.524 . S
C823 C815 1.503 . S
C823 C822 1.370 1_655 S
C823 C824 1.403 . S
C824 C823 1.403 . S
C824 C825 1.404 . S
C824 C827 1.539 . S
C825 C821 1.408 . S
C825 C824 1.404 . S
C825 H837 0.930 . S
C826 C822 1.524 . S
C826 H838 0.956 . S
C826 H839 0.961 . S
C826 H840 0.961 . S
C827 C824 1.539 . S
C827 H841 0.958 . S
C827 H842 0.961 . S
C827 H843 0.960 . S
H828 C812 0.931 1_455 S
H829 C817 0.929 . S
H830 C818 0.960 . S
H831 C818 0.962 . S
H832 C818 0.960 . S
H833 C819 0.961 . S
H834 C819 0.961 . S
H835 C819 0.961 . S
H836 C820 0.931 . S
H837 C825 0.930 . S
H838 C826 0.956 . S
H839 C826 0.961 . S
H840 C826 0.961 . S
H841 C827 0.958 . S
H842 C827 0.961 . S
H843 C827 0.960 . S
C844 C845 1.391 . S
C844 C846 1.394 . S
C844 H860 0.931 . S
C845 C844 1.391 . S
C845 C849 1.376 . S
C846 C844 1.394 . S
C846 C847 1.369 . S
C846 C850 1.531 . S
C847 C846 1.369 . S
C847 C848 1.410 . S
C847 C855 1.503 . S
C848 C847 1.410 . S
C848 C849 1.392 . S
C848 C851 1.511 1_565 S
C849 C845 1.376 . S
C849 C848 1.392 . S
C849 H861 0.929 . S
C850 C846 1.531 . S
C850 H862 0.960 . S
C850 H863 0.962 . S
C850 H864 0.960 . S
C851 C848 1.511 1_545 S
C851 H865 0.961 . S
C851 H866 0.961 . S
C851 H867 0.961 1_545 S
C852 C853 1.370 1_545 S
C852 C854 1.363 . S
C852 H868 0.931 . S
C853 C852 1.370 1_565 S
C853 C857 1.408 . S
C854 C852 1.363 . S
C854 C855 1.370 1_545 S
C854 C858 1.524 . S
C855 C847 1.503 . S
C855 C854 1.370 1_565 S
C855 C856 1.403 . S
C856 C855 1.403 . S
C856 C857 1.404 . S
C856 C859 1.539 . S
C857 C853 1.408 . S
C857 C856 1.404 . S
C857 H869 0.930 . S
C858 C854 1.524 . S
C858 H870 0.956 . S
C858 H871 0.961 . S
C858 H872 0.961 . S
C859 C856 1.539 . S
C859 H873 0.958 . S
C859 H874 0.961 . S
C859 H875 0.960 . S
H860 C844 0.931 . S
H861 C849 0.929 . S
H862 C850 0.960 . S
H863 C850 0.962 . S
H864 C850 0.960 . S
H865 C851 0.961 . S
H866 C851 0.961 . S
H867 C851 0.961 1_565 S
H868 C852 0.931 . S
H869 C857 0.930 . S
H870 C858 0.956 . S
H871 C858 0.961 . S
H872 C858 0.961 . S
H873 C859 0.958 . S
H874 C859 0.961 . S
H875 C859 0.960 . S
C876 C877 1.391 . S
C876 C878 1.394 . S
C876 H892 0.931 . S
C877 C876 1.391 . S
C877 C881 1.376 . S
C878 C876 1.394 . S
C878 C879 1.369 . S
C878 C882 1.531 . S
C879 C878 1.369 . S
C879 C880 1.410 . S
C879 C887 1.503 . S
C880 C879 1.410 . S
C880 C881 1.392 . S
C880 C883 1.511 . S
C881 C877 1.376 . S
C881 C880 1.392 . S
C881 H893 0.929 . S
C882 C878 1.531 . S
C882 H894 0.960 . S
C882 H895 0.962 . S
C882 H896 0.960 . S
C883 C880 1.511 . S
C883 H897 0.961 . S
C883 H898 0.961 . S
C883 H899 0.961 . S
C884 C885 1.370 . S
C884 C886 1.363 . S
C884 H900 0.931 . S
C885 C884 1.370 . S
C885 C889 1.408 . S
C886 C884 1.363 . S
C886 C887 1.370 . S
C886 C890 1.524 . S
C887 C879 1.503 . S
C887 C886 1.370 . S
C887 C888 1.403 . S
C888 C887 1.403 . S
C888 C889 1.404 . S
C888 C891 1.539 . S
C889 C885 1.408 . S
C889 C888 1.404 . S
C889 H901 0.930 . S
C890 C886 1.524 . S
C890 H902 0.956 . S
C890 H903 0.961 . S
C890 H904 0.961 . S
C891 C888 1.539 . S
C891 H905 0.958 . S
C891 H906 0.961 . S
C891 H907 0.960 . S
H892 C876 0.931 . S
H893 C881 0.929 . S
H894 C882 0.960 . S
H895 C882 0.962 . S
H896 C882 0.960 . S
H897 C883 0.961 . S
H898 C883 0.961 . S
H899 C883 0.961 . S
H900 C884 0.931 . S
H901 C889 0.930 . S
H902 C890 0.956 . S
H903 C890 0.961 . S
H904 C890 0.961 . S
H905 C891 0.958 . S
H906 C891 0.961 . S
H907 C891 0.960 . S
C908 C909 1.391 . S
C908 C910 1.394 . S
C908 H924 0.931 . S
C909 C908 1.391 . S
C909 C913 1.376 . S
C910 C908 1.394 . S
C910 C911 1.369 . S
C910 C914 1.531 . S
C911 C910 1.369 . S
C911 C912 1.410 . S
C911 C919 1.503 . S
C912 C911 1.410 . S
C912 C913 1.392 . S
C912 C915 1.511 . S
C913 C909 1.376 . S
C913 C912 1.392 . S
C913 H925 0.929 . S
C914 C910 1.531 . S
C914 H926 0.960 . S
C914 H927 0.962 . S
C914 H928 0.960 . S
C915 C912 1.511 . S
C915 H929 0.961 . S
C915 H930 0.961 . S
C915 H931 0.961 . S
C916 C917 1.370 . S
C916 C918 1.363 . S
C916 H932 0.931 . S
C917 C916 1.370 . S
C917 C921 1.408 . S
C918 C916 1.363 . S
C918 C919 1.370 . S
C918 C922 1.524 . S
C919 C911 1.503 . S
C919 C918 1.370 . S
C919 C920 1.403 . S
C920 C919 1.403 . S
C920 C921 1.404 . S
C920 C923 1.539 . S
C921 C917 1.408 . S
C921 C920 1.404 . S
C921 H933 0.930 . S
C922 C918 1.524 . S
C922 H934 0.956 . S
C922 H935 0.961 . S
C922 H936 0.961 . S
C923 C920 1.539 . S
C923 H937 0.958 . S
C923 H938 0.961 . S
C923 H939 0.960 . S
H924 C908 0.931 . S
H925 C913 0.929 . S
H926 C914 0.960 . S
H927 C914 0.962 . S
H928 C914 0.960 . S
H929 C915 0.961 . S
H930 C915 0.961 . S
H931 C915 0.961 . S
H932 C916 0.931 . S
H933 C921 0.930 . S
H934 C922 0.956 . S
H935 C922 0.961 . S
H936 C922 0.961 . S
H937 C923 0.958 . S
H938 C923 0.961 . S
H939 C923 0.960 . S
C173 C76 1.550 . S
C181 C104 1.449 . S
C213 C122 1.415 . S
C205 C87 1.565 . S
C245 C143 1.425 . S
C237 C54 1.549 . S
C277 C167 1.453 . S
C269 C65 1.555 . S
C309 C101 1.369 . S
C301 C32 1.481 . S
C333 C43 1.513 . S
C341 C125 1.365 . S
C365 C10 1.515 . S
C373 C146 1.352 . S
C397 C21 1.468 . S
C405 C164 1.355 . S
C437 C106 0.662 . S
C429 C60 0.579 . S
C469 C124 0.655 . S
C461 C71 0.610 . S
C501 C145 0.619 . S
C493 C82 0.662 . S
C525 C49 0.563 . S
C533 C169 0.663 . S
C557 C16 0.773 . S
C565 C105 0.701 . S
C597 C123 0.721 . S
C589 C27 0.785 . S
C629 C144 0.728 . S
C621 C38 0.653 . S
C653 C5 0.772 . S
C661 C168 0.702 . S
C685 C59 1.565 . S
C693 C102 1.553 . S
C717 C70 1.564 . S
C725 C126 1.554 . S
C757 C147 1.556 . S
C749 C81 1.562 . S
C789 C165 1.546 . S
C781 C48 1.598 . S
C813 C15 1.437 . S
C821 C103 1.444 1_655 S
C853 C127 1.430 1_565 S
C845 C26 1.483 . S
C885 C148 1.411 . S
C877 C37 1.479 . S
C909 C4 1.459 . S
C917 C166 1.411 . S
