# Generated by pormake.
# Topology pyr, (3,6)-cn, num edge types: 1
# Building blocks:
#     Node 0, Type 0, BuildingBlock: KAKCAD_clean_linker_0, # of connection points: 3
#     Node 1, Type 0, BuildingBlock: KAKCAD_clean_linker_0, # of connection points: 3
#     Node 2, Type 0, BuildingBlock: KAKCAD_clean_linker_0, # of connection points: 3
#     Node 3, Type 0, BuildingBlock: KAKCAD_clean_linker_0, # of connection points: 3
#     Node 4, Type 0, BuildingBlock: KAKCAD_clean_linker_0, # of connection points: 3
#     Node 5, Type 0, BuildingBlock: KAKCAD_clean_linker_0, # of connection points: 3
#     Node 6, Type 0, BuildingBlock: KAKCAD_clean_linker_0, # of connection points: 3
#     Node 7, Type 0, BuildingBlock: KAKCAD_clean_linker_0, # of connection points: 3
#     Node 8, Type 1, BuildingBlock: INOVEN_clean_sbu_0, # of connection points: 6
#     Node 9, Type 1, BuildingBlock: INOVEN_clean_sbu_0, # of connection points: 6
#     Node 10, Type 1, BuildingBlock: INOVEN_clean_sbu_0, # of connection points: 6
#     Node 11, Type 1, BuildingBlock: INOVEN_clean_sbu_0, # of connection points: 6
#     Edge 12, Type (0, 1), BuildingBlock: KIFKEQ_clean_linker_1, # of connection points: 2
#     Edge 13, Type (0, 1), BuildingBlock: KIFKEQ_clean_linker_1, # of connection points: 2
#     Edge 14, Type (0, 1), BuildingBlock: KIFKEQ_clean_linker_1, # of connection points: 2
#     Edge 15, Type (0, 1), BuildingBlock: KIFKEQ_clean_linker_1, # of connection points: 2
#     Edge 16, Type (0, 1), BuildingBlock: KIFKEQ_clean_linker_1, # of connection points: 2
#     Edge 17, Type (0, 1), BuildingBlock: KIFKEQ_clean_linker_1, # of connection points: 2
#     Edge 18, Type (0, 1), BuildingBlock: KIFKEQ_clean_linker_1, # of connection points: 2
#     Edge 19, Type (0, 1), BuildingBlock: KIFKEQ_clean_linker_1, # of connection points: 2
#     Edge 20, Type (0, 1), BuildingBlock: KIFKEQ_clean_linker_1, # of connection points: 2
#     Edge 21, Type (0, 1), BuildingBlock: KIFKEQ_clean_linker_1, # of connection points: 2
#     Edge 22, Type (0, 1), BuildingBlock: KIFKEQ_clean_linker_1, # of connection points: 2
#     Edge 23, Type (0, 1), BuildingBlock: KIFKEQ_clean_linker_1, # of connection points: 2
#     Edge 24, Type (0, 1), BuildingBlock: KIFKEQ_clean_linker_1, # of connection points: 2
#     Edge 25, Type (0, 1), BuildingBlock: KIFKEQ_clean_linker_1, # of connection points: 2
#     Edge 26, Type (0, 1), BuildingBlock: KIFKEQ_clean_linker_1, # of connection points: 2
#     Edge 27, Type (0, 1), BuildingBlock: KIFKEQ_clean_linker_1, # of connection points: 2
#     Edge 28, Type (0, 1), BuildingBlock: KIFKEQ_clean_linker_1, # of connection points: 2
#     Edge 29, Type (0, 1), BuildingBlock: KIFKEQ_clean_linker_1, # of connection points: 2
#     Edge 30, Type (0, 1), BuildingBlock: KIFKEQ_clean_linker_1, # of connection points: 2
#     Edge 31, Type (0, 1), BuildingBlock: KIFKEQ_clean_linker_1, # of connection points: 2
#     Edge 32, Type (0, 1), BuildingBlock: KIFKEQ_clean_linker_1, # of connection points: 2
#     Edge 33, Type (0, 1), BuildingBlock: KIFKEQ_clean_linker_1, # of connection points: 2
#     Edge 34, Type (0, 1), BuildingBlock: KIFKEQ_clean_linker_1, # of connection points: 2
#     Edge 35, Type (0, 1), BuildingBlock: KIFKEQ_clean_linker_1, # of connection points: 2
# Relax obj value: 0.090
# Max RMSD: 0.124
# Mean RMSD: 0.058
data_MOF--net-pyr--node1-INOVEN_clean_sbu_0--node2-KAKCAD_clean_linker_0--edge1-KIFKEQ_clean_linker_1
_symmetry_space_group_name_H-M    P1
_symmetry_Int_Tables_number       1
_symmetry_cell_setting            triclinic
loop_
_symmetry_equiv_pos_as_xyz
'x, y, z'
_cell_length_a     47.43488
_cell_length_b     49.901653
_cell_length_c     44.795085
_cell_angle_alpha  90.833929
_cell_angle_beta   88.517795
_cell_angle_gamma 101.22169
loop_
_atom_site_label
_atom_site_type_symbol
_atom_site_fract_x
_atom_site_fract_y
_atom_site_fract_z
_atom_type_partial_charge
C0 C 0.24923 0.2613 0.28733 0.0
C1 C 0.26221 0.25466 0.31338 0.0
C2 C 0.26586 0.27086 0.26221 0.0
C3 C 0.29591 0.27391 0.26234 0.0
C4 C 0.30909 0.26801 0.28853 0.0
C5 C 0.2924 0.2586 0.31388 0.0
C6 C 0.31286 0.28115 0.23433 0.0
C7 C 0.30635 0.30134 0.21574 0.0
C8 C 0.31834 0.305 0.18682 0.0
C9 C 0.33789 0.28887 0.17674 0.0
C10 C 0.34544 0.26906 0.19545 0.0
C11 C 0.33282 0.26546 0.22427 0.0
C12 C 0.3643 0.2503 0.18428 0.0
C13 C 0.36166 0.23956 0.15507 0.0
C14 C 0.3837 0.24151 0.20338 0.0
C15 C 0.39918 0.22168 0.19392 0.0
C16 C 0.39581 0.21028 0.16504 0.0
C17 C 0.30708 0.32317 0.16638 0.0
C18 C 0.29247 0.3122 0.14081 0.0
C19 C 0.30663 0.35024 0.17488 0.0
C20 C 0.29032 0.36554 0.15917 0.0
C21 C 0.27359 0.35384 0.13505 0.0
C22 C 0.27574 0.32733 0.12537 0.0
C23 C 0.37731 0.21989 0.14554 0.0
H24 H 0.22607 0.25793 0.28575 0.0
H25 H 0.25501 0.27467 0.24217 0.0
H26 H 0.33225 0.27034 0.28927 0.0
H27 H 0.30313 0.254 0.33367 0.0
H28 H 0.29056 0.31322 0.22316 0.0
H29 H 0.33695 0.2491 0.23814 0.0
H30 H 0.34686 0.29159 0.15424 0.0
H31 H 0.34674 0.2456 0.13982 0.0
H32 H 0.38655 0.24962 0.22589 0.0
H33 H 0.41309 0.21468 0.20962 0.0
H34 H 0.29225 0.29122 0.13407 0.0
H35 H 0.31786 0.35912 0.19451 0.0
H36 H 0.37458 0.21197 0.12295 0.0
H37 H 0.26304 0.31749 0.10711 0.0
H38 H 0.28986 0.38616 0.16677 0.0
C39 C 0.29636 0.88271 0.72405 0.0
C40 C 0.32514 0.89646 0.7232 0.0
C41 C 0.28355 0.87043 0.69832 0.0
C42 C 0.29914 0.87189 0.67106 0.0
C43 C 0.32804 0.88558 0.67029 0.0
C44 C 0.34095 0.89763 0.69616 0.0
C45 C 0.2851 0.85932 0.64361 0.0
C46 C 0.25647 0.86087 0.63814 0.0
C47 C 0.24254 0.84853 0.61268 0.0
C48 C 0.25778 0.83462 0.59238 0.0
C49 C 0.28669 0.83375 0.59702 0.0
C50 C 0.30015 0.8459 0.62272 0.0
C51 C 0.30303 0.81986 0.57535 0.0
C52 C 0.29283 0.79252 0.56731 0.0
C53 C 0.32993 0.83334 0.5643 0.0
C54 C 0.34715 0.81921 0.54693 0.0
C55 C 0.338 0.79119 0.54077 0.0
C56 C 0.21304 0.85242 0.60632 0.0
C57 C 0.19296 0.85356 0.62978 0.0
C58 C 0.20586 0.85813 0.57715 0.0
C59 C 0.18025 0.86687 0.57194 0.0
C60 C 0.16154 0.87037 0.59583 0.0
C61 C 0.16757 0.86276 0.62463 0.0
C62 C 0.31022 0.77824 0.55031 0.0
H63 H 0.28385 0.88114 0.74474 0.0
H64 H 0.26146 0.85957 0.69987 0.0
H65 H 0.34055 0.88741 0.6496 0.0
H66 H 0.36313 0.9083 0.69491 0.0
H67 H 0.24536 0.87265 0.65327 0.0
H68 H 0.3222 0.84431 0.62672 0.0
H69 H 0.24741 0.82491 0.57265 0.0
H70 H 0.27213 0.78175 0.57565 0.0
H71 H 0.33797 0.85461 0.56986 0.0
H72 H 0.36815 0.82995 0.5394 0.0
H73 H 0.19747 0.84858 0.65239 0.0
H74 H 0.22085 0.85774 0.55857 0.0
H75 H 0.30256 0.75662 0.54638 0.0
H76 H 0.15328 0.86514 0.64333 0.0
H77 H 0.17619 0.8729 0.54957 0.0
C78 C 0.75094 0.4282 0.89898 0.0
C79 C 0.77117 0.41346 0.90949 0.0
C80 C 0.72546 0.41478 0.88545 0.0
C81 C 0.71923 0.38611 0.88201 0.0
C82 C 0.73956 0.37143 0.89235 0.0
C83 C 0.76498 0.38481 0.90584 0.0
C84 C 0.69164 0.37145 0.86815 0.0
C85 C 0.67967 0.38264 0.84381 0.0
C86 C 0.65379 0.36913 0.83066 0.0
C87 C 0.64042 0.34316 0.8421 0.0
C88 C 0.65204 0.33113 0.86637 0.0
C89 C 0.67729 0.34603 0.87933 0.0
C90 C 0.63821 0.30322 0.87866 0.0
C91 C 0.60827 0.29321 0.87808 0.0
C92 C 0.65501 0.28636 0.89194 0.0
C93 C 0.64249 0.26124 0.90499 0.0
C94 C 0.61253 0.25126 0.90476 0.0
C95 C 0.64111 0.38237 0.80508 0.0
C96 C 0.64478 0.41108 0.80312 0.0
C97 C 0.6255 0.36682 0.78217 0.0
C98 C 0.61423 0.37944 0.75838 0.0
C99 C 0.6182 0.40819 0.75631 0.0
C100 C 0.63383 0.42366 0.77924 0.0
C101 C 0.59574 0.26773 0.89065 0.0
H102 H 0.75485 0.45026 0.90092 0.0
H103 H 0.71042 0.42694 0.8781 0.0
H104 H 0.73598 0.34942 0.88986 0.0
H105 H 0.77961 0.3725 0.91383 0.0
H106 H 0.69108 0.40174 0.83461 0.0
H107 H 0.68566 0.3381 0.89888 0.0
H108 H 0.6209 0.33233 0.83214 0.0
H109 H 0.59422 0.30523 0.86838 0.0
H110 H 0.67817 0.29245 0.89239 0.0
H111 H 0.65662 0.24997 0.91574 0.0
H112 H 0.65603 0.42415 0.82026 0.0
H113 H 0.62224 0.34474 0.78226 0.0
H114 H 0.57273 0.26104 0.88909 0.0
H115 H 0.63807 0.44575 0.77876 0.0
H116 H 0.6021 0.36643 0.74174 0.0
C117 C 0.87273 0.63653 0.25627 0.0
C118 C 0.90273 0.64128 0.2509 0.0
C119 C 0.86058 0.64949 0.28011 0.0
C120 C 0.8779 0.66755 0.29984 0.0
C121 C 0.90788 0.67244 0.29436 0.0
C122 C 0.92001 0.65971 0.27033 0.0
C123 C 0.86483 0.68084 0.32606 0.0
C124 C 0.83947 0.66704 0.34086 0.0
C125 C 0.82702 0.67895 0.36541 0.0
C126 C 0.84038 0.70523 0.37521 0.0
C127 C 0.86563 0.71972 0.36118 0.0
C128 C 0.87763 0.70726 0.33664 0.0
C129 C 0.87924 0.74778 0.37252 0.0
C130 C 0.86212 0.76655 0.38217 0.0
C131 C 0.90927 0.75579 0.37492 0.0
C132 C 0.92168 0.7814 0.38721 0.0
C133 C 0.90449 0.79998 0.39731 0.0
C134 C 0.80013 0.66408 0.3811 0.0
C135 C 0.77694 0.64923 0.36502 0.0
C136 C 0.79711 0.66522 0.41244 0.0
C137 C 0.77166 0.65241 0.42716 0.0
C138 C 0.74817 0.63803 0.41112 0.0
C139 C 0.75137 0.63645 0.37977 0.0
C140 C 0.8745 0.79215 0.39431 0.0
H141 H 0.85842 0.62237 0.24237 0.0
H142 H 0.83741 0.64534 0.28287 0.0
H143 H 0.92225 0.68584 0.30893 0.0
H144 H 0.94311 0.66455 0.267 0.0
H145 H 0.82976 0.64653 0.3339 0.0
H146 H 0.89658 0.71855 0.3253 0.0
H147 H 0.83101 0.7145 0.39406 0.0
H148 H 0.83897 0.76146 0.3804 0.0
H149 H 0.92325 0.74197 0.36796 0.0
H150 H 0.94485 0.78664 0.3887 0.0
H151 H 0.77823 0.64805 0.34088 0.0
H152 H 0.81459 0.67593 0.42575 0.0
H153 H 0.86037 0.80557 0.40198 0.0
H154 H 0.73383 0.6259 0.36644 0.0
H155 H 0.77056 0.65365 0.4513 0.0
C156 C 0.74785 0.77907 0.74903 0.0
C157 C 0.75217 0.80662 0.74072 0.0
C158 C 0.72995 0.76968 0.77354 0.0
C159 C 0.71659 0.78784 0.79064 0.0
C160 C 0.71978 0.81504 0.78107 0.0
C161 C 0.73715 0.82422 0.75631 0.0
C162 C 0.70273 0.77985 0.8203 0.0
C163 C 0.71451 0.76288 0.8391 0.0
C164 C 0.70556 0.75946 0.86915 0.0
C165 C 0.68498 0.77387 0.88079 0.0
C166 C 0.67254 0.79071 0.86218 0.0
C167 C 0.68062 0.79237 0.83171 0.0
C168 C 0.65347 0.80881 0.87471 0.0
C169 C 0.6338 0.8004 0.8984 0.0
C170 C 0.65571 0.8354 0.8635 0.0
C171 C 0.63873 0.85297 0.87539 0.0
C172 C 0.61942 0.84471 0.89922 0.0
C173 C 0.72043 0.74299 0.88846 0.0
C174 C 0.72469 0.71723 0.87851 0.0
C175 C 0.73379 0.75428 0.91464 0.0
C176 C 0.75279 0.74093 0.92928 0.0
C177 C 0.75867 0.71608 0.91798 0.0
C178 C 0.74353 0.70389 0.89314 0.0
C179 C 0.61708 0.81827 0.91067 0.0
H180 H 0.75907 0.76506 0.73717 0.0
H181 H 0.72753 0.74847 0.77979 0.0
H182 H 0.71047 0.8299 0.79378 0.0
H183 H 0.74042 0.84567 0.75067 0.0
H184 H 0.73221 0.7537 0.83104 0.0
H185 H 0.67053 0.80454 0.81701 0.0
H186 H 0.67945 0.77259 0.90441 0.0
H187 H 0.63132 0.78007 0.90747 0.0
H188 H 0.67121 0.84308 0.84598 0.0
H189 H 0.64146 0.87345 0.86658 0.0
H190 H 0.71438 0.70796 0.85856 0.0
H191 H 0.73105 0.77422 0.92264 0.0
H192 H 0.60231 0.81144 0.9291 0.0
H193 H 0.7471 0.68448 0.88428 0.0
H194 H 0.76419 0.75089 0.94831 0.0
C195 C 0.69192 0.22483 0.34635 0.0
C196 C 0.70731 0.22034 0.32013 0.0
C197 C 0.70577 0.22909 0.37364 0.0
C198 C 0.73527 0.22888 0.37526 0.0
C199 C 0.7509 0.22558 0.34885 0.0
C200 C 0.73707 0.22139 0.32155 0.0
C201 C 0.74915 0.23012 0.40467 0.0
C202 C 0.76685 0.21158 0.41123 0.0
C203 C 0.77812 0.21087 0.43983 0.0
C204 C 0.77186 0.22927 0.4619 0.0
C205 C 0.75453 0.24815 0.45557 0.0
C206 C 0.74329 0.24848 0.42689 0.0
C207 C 0.74645 0.26642 0.47926 0.0
C208 C 0.73628 0.25597 0.50733 0.0
C209 C 0.74633 0.29384 0.47297 0.0
C210 C 0.73426 0.30994 0.4934 0.0
C211 C 0.72201 0.29893 0.52058 0.0
C212 C 0.79573 0.19039 0.44689 0.0
C213 C 0.78806 0.16334 0.43632 0.0
C214 C 0.82021 0.1977 0.46441 0.0
C215 C 0.83671 0.17841 0.47116 0.0
C216 C 0.82921 0.15142 0.46037 0.0
C217 C 0.80467 0.14408 0.44293 0.0
C218 C 0.72413 0.27209 0.52782 0.0
H219 H 0.66901 0.22437 0.34589 0.0
H220 H 0.6931 0.23138 0.39364 0.0
H221 H 0.77373 0.22561 0.3494 0.0
H222 H 0.74949 0.21776 0.30178 0.0
H223 H 0.77136 0.19726 0.39419 0.0
H224 H 0.72935 0.26261 0.42206 0.0
H225 H 0.78005 0.22862 0.48418 0.0
H226 H 0.73612 0.23486 0.51276 0.0
H227 H 0.75442 0.3025 0.45166 0.0
H228 H 0.73274 0.33042 0.48689 0.0
H229 H 0.76906 0.15696 0.42314 0.0
H230 H 0.82681 0.21841 0.47269 0.0
H231 H 0.7151 0.26313 0.54868 0.0
H232 H 0.79845 0.12352 0.43408 0.0
H233 H 0.85525 0.18463 0.48504 0.0
C234 C 0.25776 0.64264 0.19065 0.0
C235 C 0.25464 0.64419 0.1595 0.0
C236 C 0.28336 0.65531 0.20453 0.0
C237 C 0.30676 0.66998 0.18776 0.0
C238 C 0.30376 0.67109 0.15657 0.0
C239 C 0.27823 0.6585 0.14274 0.0
C240 C 0.33389 0.68461 0.20252 0.0
C241 C 0.34547 0.67327 0.22709 0.0
C242 C 0.37108 0.68682 0.24072 0.0
C243 C 0.38507 0.71245 0.22909 0.0
C244 C 0.37405 0.72432 0.20446 0.0
C245 C 0.34842 0.71016 0.19174 0.0
C246 C 0.38901 0.75138 0.19152 0.0
C247 C 0.40097 0.77373 0.20982 0.0
C248 C 0.39058 0.75535 0.16035 0.0
C249 C 0.40328 0.78069 0.14795 0.0
C250 C 0.41491 0.80319 0.16617 0.0
C251 C 0.3833 0.67389 0.26672 0.0
C252 C 0.36514 0.65883 0.2886 0.0
C253 C 0.4132 0.67603 0.26977 0.0
C254 C 0.42444 0.66341 0.29353 0.0
C255 C 0.40626 0.64823 0.31534 0.0
C256 C 0.37637 0.64631 0.31241 0.0
C257 C 0.41355 0.79924 0.19737 0.0
H258 H 0.24014 0.63214 0.20453 0.0
H259 H 0.2845 0.65413 0.22857 0.0
H260 H 0.32134 0.68157 0.14261 0.0
H261 H 0.27716 0.65975 0.1187 0.0
H262 H 0.33493 0.65335 0.23503 0.0
H263 H 0.33929 0.7195 0.17359 0.0
H264 H 0.40464 0.72318 0.23913 0.0
H265 H 0.40009 0.7717 0.23388 0.0
H266 H 0.382 0.73872 0.14534 0.0
H267 H 0.40351 0.7827 0.12391 0.0
H268 H 0.34204 0.6568 0.28753 0.0
H269 H 0.42809 0.68711 0.25345 0.0
H270 H 0.42247 0.81583 0.21228 0.0
H271 H 0.36142 0.63469 0.32831 0.0
H272 H 0.44755 0.66582 0.2949 0.0
C273 C 0.15179 0.26637 0.67554 0.0
C274 C 0.12203 0.2585 0.67094 0.0
C275 C 0.1635 0.29184 0.68838 0.0
C276 C 0.14595 0.31049 0.69716 0.0
C277 C 0.11608 0.30237 0.69344 0.0
C278 C 0.10432 0.27682 0.68051 0.0
C279 C 0.15912 0.33863 0.70867 0.0
C280 C 0.18489 0.35291 0.69543 0.0
C281 C 0.1979 0.37926 0.70519 0.0
C282 C 0.18453 0.3916 0.72873 0.0
C283 C 0.15887 0.37789 0.74306 0.0
C284 C 0.14632 0.35136 0.7325 0.0
C285 C 0.14557 0.39131 0.76906 0.0
C286 C 0.16282 0.40932 0.7889 0.0
C287 C 0.11556 0.38662 0.77427 0.0
C288 C 0.10334 0.39959 0.7981 0.0
C289 C 0.12058 0.41801 0.8176 0.0
C290 C 0.22556 0.39367 0.69065 0.0
C291 C 0.24784 0.37946 0.68368 0.0
C292 C 0.22985 0.4215 0.6831 0.0
C293 C 0.25542 0.43456 0.66861 0.0
C294 C 0.27765 0.42028 0.66154 0.0
C295 C 0.27348 0.39256 0.66949 0.0
C296 C 0.1506 0.4225 0.81249 0.0
H297 H 0.16623 0.25278 0.66932 0.0
H298 H 0.18651 0.29691 0.69141 0.0
H299 H 0.1018 0.31613 0.69963 0.0
H300 H 0.08135 0.27181 0.67723 0.0
H301 H 0.19458 0.34373 0.67672 0.0
H302 H 0.12702 0.3402 0.74336 0.0
H303 H 0.19435 0.412 0.73593 0.0
H304 H 0.18601 0.41327 0.78644 0.0
H305 H 0.10126 0.37321 0.75963 0.0
H306 H 0.08022 0.39492 0.80122 0.0
H307 H 0.24552 0.3581 0.68935 0.0
H308 H 0.21318 0.43312 0.68789 0.0
H309 H 0.16492 0.43663 0.82641 0.0
H310 H 0.28987 0.38074 0.66424 0.0
H311 H 0.25785 0.45596 0.66313 0.0
Gd312 Gd 0.02236 0.04263 0.50393 0.0
Gd313 Gd 1.00004 1.01559 0.56326 0.0
C314 C 0.039 0.07738 0.56532 0.0
C315 C 0.03576 0.07537 0.45935 0.0
C316 C 0.06127 0.09596 0.45113 0.0
C317 C 0.08896 0.0921 0.45782 0.0
C318 C 0.05799 0.11981 0.43663 0.0
C319 C 0.10992 0.13507 0.43401 0.0
C320 C 0.08213 0.1393 0.42821 0.0
C321 C 0.1131 0.11141 0.44913 0.0
C322 C 0.05544 1.01012 0.52654 0.0
C323 C 0.98744 0.98124 0.50213 0.0
C324 C 0.98933 0.99126 0.61373 0.0
C325 C 0.96482 0.97067 0.62453 0.0
C326 C 0.93701 0.97082 0.61463 0.0
C327 C 0.96924 0.94987 0.64352 0.0
C328 C 0.91814 0.92988 0.64305 0.0
C329 C 0.94607 0.92957 0.65271 0.0
C330 C 0.91391 0.95068 0.62386 0.0
C331 C 0.95957 0.03181 0.53029 0.0
O332 O 0.04361 0.07546 0.5361 0.0
O333 O 0.0229 0.05708 0.58052 0.0
O334 O 0.03903 0.04997 0.4588 0.0
O335 O 0.02098 0.08121 0.48272 0.0
O336 O 0.05296 1.01356 0.49821 0.0
O337 O 0.04249 1.0258 0.54134 0.0
O338 O 0.99479 0.98012 0.53039 0.0
O339 O 0.99081 1.00507 0.48831 0.0
O340 O 0.98393 1.0156 0.6088 0.0
O341 O 1.00525 0.98284 0.5926 0.0
O342 O 0.95403 1.01126 0.54819 0.0
O343 O 0.98508 0.04399 0.53321 0.0
H344 H 0.09196 0.07403 0.46948 0.0
H345 H 0.03676 0.12321 0.43151 0.0
H346 H 0.07911 0.15726 0.41636 0.0
H347 H 0.13427 0.10781 0.4541 0.0
H348 H 0.9331 0.98643 0.5996 0.0
H349 H 0.99061 0.94928 0.65113 0.0
H350 H 0.94991 0.91388 0.66769 0.0
H351 H 0.89273 0.95123 0.61571 0.0
Gd352 Gd 0.54276 0.03497 0.05446 0.0
Gd353 Gd 0.48745 1.02302 1.02826 0.0
C354 C 0.49173 0.06073 0.08359 0.0
C355 C 0.59093 0.05596 0.07922 0.0
C356 C 0.60268 0.07938 0.09823 0.0
C357 C 0.58791 0.10086 0.10326 0.0
C358 C 0.62846 0.07951 0.11273 0.0
C359 C 0.62426 0.12196 0.13829 0.0
C360 C 0.63919 0.1006 0.13258 0.0
C361 C 0.59861 0.12202 0.12319 0.0
C362 C 0.51106 0.98579 0.07222 0.0
C363 C 0.53909 0.99625 0.99854 0.0
C364 C 0.43885 1.00135 1.0049 0.0
C365 C 0.42854 0.9916 0.97533 0.0
C366 C 0.44059 1.00473 0.94918 0.0
C367 C 0.40643 0.9686 0.97327 0.0
C368 C 0.40778 0.97225 0.91911 0.0
C369 C 0.39619 0.95894 0.94542 0.0
C370 C 0.4302 0.99521 0.9213 0.0
C371 C 0.51934 0.07165 1.00903 0.0
O372 O 0.51922 0.0658 0.07594 0.0
O373 O 0.47464 0.03948 0.07199 0.0
O374 O 0.57123 0.03733 0.09177 0.0
O375 O 0.58482 0.06133 0.05195 0.0
O376 O 0.53807 0.99015 0.06468 0.0
O377 O 0.50169 1.00782 0.07027 0.0
O378 O 0.51116 0.99564 1.00061 0.0
O379 O 0.55711 1.01299 1.01524 0.0
O380 O 0.44777 1.02766 1.00809 0.0
O381 O 0.45537 0.98708 1.01774 0.0
O382 O 0.49222 0.06742 1.0159 0.0
O383 O 0.52859 0.04965 1.01186 0.0
H384 H 0.56797 0.10106 0.09214 0.0
H385 H 0.64 0.06296 0.1092 0.0
H386 H 0.65869 0.09964 0.14422 0.0
H387 H 0.58674 0.13828 0.12695 0.0
H388 H 0.45788 1.02242 0.95031 0.0
H389 H 0.39711 0.95807 0.99323 0.0
H390 H 0.37932 0.94089 0.94454 0.0
H391 H 0.43942 1.0061 0.90153 0.0
Gd392 Gd 0.51348 0.50539 0.51641 0.0
Gd393 Gd 0.51142 0.55108 0.55498 0.0
C394 C 0.53737 0.5045 0.58446 0.0
C395 C 0.52957 0.46481 0.48944 0.0
C396 C 0.54726 0.44584 0.50029 0.0
C397 C 0.53446 0.41868 0.50668 0.0
C398 C 0.57639 0.4552 0.50679 0.0
C399 C 0.57948 0.41066 0.5262 0.0
C400 C 0.59231 0.43779 0.51952 0.0
C401 C 0.55037 0.40128 0.51962 0.0
C402 C 0.4621 0.50115 0.54599 0.0
C403 C 0.48765 0.55199 0.48626 0.0
C404 C 0.49527 0.59095 0.58347 0.0
C405 C 0.48389 0.61426 0.57279 0.0
C406 C 0.49285 0.626 0.54495 0.0
C407 C 0.46138 0.62267 0.58881 0.0
C408 C 0.45592 0.65345 0.54872 0.0
C409 C 0.44747 0.64211 0.57687 0.0
C410 C 0.47909 0.64564 0.53309 0.0
C411 C 0.56295 0.55563 0.52562 0.0
O412 O 0.53978 0.49661 0.55629 0.0
O413 O 0.52339 0.52435 0.59081 0.0
O414 O 0.50427 0.46287 0.50237 0.0
O415 O 0.54265 0.49017 0.48556 0.0
O416 O 0.46493 0.49552 0.51783 0.0
O417 O 0.48661 0.50896 0.55714 0.0
O418 O 0.48797 0.56196 0.51389 0.0
O419 O 0.49888 0.53023 0.48034 0.0
O420 O 0.5222 0.59069 0.57674 0.0
O421 O 0.47839 0.56725 0.57936 0.0
O422 O 0.55984 0.56162 0.55364 0.0
O423 O 0.53853 0.54756 0.51431 0.0
H424 H 0.51199 0.41102 0.50214 0.0
H425 H 0.58695 0.47607 0.50233 0.0
H426 H 0.61484 0.44552 0.52366 0.0
H427 H 0.5398 0.38053 0.52466 0.0
H428 H 0.50988 0.61939 0.53194 0.0
H429 H 0.454 0.61361 0.61015 0.0
H430 H 0.42992 0.64813 0.58955 0.0
H431 H 0.48588 0.654 0.5113 0.0
Gd432 Gd 0.01618 0.50531 0.0461 0.0
Gd433 Gd 1.00893 0.55703 1.02108 0.0
C434 C 0.06753 0.55544 0.05744 0.0
C435 C 0.02505 0.45646 0.05454 0.0
C436 C 0.05171 0.44604 0.05775 0.0
C437 C 0.0508 0.41926 0.06723 0.0
C438 C 0.07839 0.46325 0.05221 0.0
C439 C 0.10318 0.4274 0.06686 0.0
C440 C 0.10389 0.45406 0.05678 0.0
C441 C 0.07637 0.40994 0.07166 0.0
C442 C 0.99274 0.53698 0.08608 0.0
C443 C 0.95723 0.50701 1.0101 0.0
C444 C 1.00108 0.60602 1.01118 0.0
C445 C 0.9763 0.61849 1.00349 0.0
C446 C 0.97098 0.62327 0.97351 0.0
C447 C 0.95782 0.62586 1.0259 0.0
C448 C 0.92881 0.64184 0.9884 0.0
C449 C 0.9343 0.63733 1.01843 0.0
C450 C 0.94747 0.63467 0.96606 0.0
C451 C 0.03193 0.52483 0.98129 0.0
O452 O 0.06086 0.52861 0.0549 0.0
O453 O 0.04962 0.57063 0.04802 0.0
O454 O 0.01901 0.47236 0.07623 0.0
O455 O 0.02131 0.46595 1.02819 0.0
O456 O 1.01101 0.52189 0.09261 0.0
O457 O 0.98632 0.53352 0.05882 0.0
O458 O 0.96421 0.53394 1.01164 0.0
O459 O 0.97487 0.49184 1.02023 0.0
O460 O 1.01039 0.59072 0.9907 0.0
O461 O 1.00077 0.59579 0.03793 0.0
O462 O 0.01316 0.53942 0.97484 0.0
O463 O 0.03876 0.52882 1.00839 0.0
H464 H 0.03037 0.40572 0.07164 0.0
H465 H 0.07955 0.48393 0.04465 0.0
H466 H 0.12418 0.46787 0.05253 0.0
H467 H 0.07517 0.38937 0.07969 0.0
H468 H 0.98489 0.61803 0.95571 0.0
H469 H 0.96147 0.62277 0.04926 0.0
H470 H 0.92062 0.64297 0.03622 0.0
H471 H 0.94369 0.63751 0.94268 0.0
H472 H 0.21123 0.26617 0.33505 0.0
H473 H 0.27157 0.2131 0.34891 0.0
H474 H 0.17697 0.23876 0.36892 0.0
H475 H 0.23816 0.18691 0.38464 0.0
H476 H 0.15583 0.12291 0.40298 0.0
H477 H 0.19553 0.15442 0.37975 0.0
H478 H 0.16187 0.22266 0.41682 0.0
H479 H 0.1214 0.1908 0.43914 0.0
C480 C 0.21742 0.24894 0.34575 0.0
C481 C 0.24394 0.24151 0.33866 0.0
C482 C 0.19788 0.23341 0.3656 0.0
C483 C 0.20454 0.21027 0.37923 0.0
C484 C 0.232 0.20417 0.37398 0.0
C485 C 0.25139 0.2195 0.3538 0.0
C486 C 0.15719 0.14465 0.40654 0.0
C487 C 0.13549 0.15445 0.42268 0.0
C488 C 0.18008 0.16279 0.39337 0.0
C489 C 0.182 0.1912 0.39632 0.0
C490 C 0.16085 0.20095 0.41361 0.0
C491 C 0.13771 0.18275 0.42646 0.0
H492 H 0.30322 0.92974 0.76232 0.0
H493 H 0.37706 0.8925 0.74573 0.0
H494 H 0.32402 0.94971 0.80864 0.0
H495 H 0.39765 0.9118 0.79255 0.0
H496 H 0.43772 0.96926 0.86632 0.0
H497 H 0.41856 0.95318 0.81793 0.0
H498 H 0.33285 0.93525 0.85722 0.0
H499 H 0.35173 0.95285 0.90499 0.0
C500 C 0.32387 0.92575 0.76873 0.0
C501 C 0.33849 0.90949 0.7506 0.0
C502 C 0.33575 0.93709 0.7953 0.0
C503 C 0.3624 0.93218 0.80448 0.0
C504 C 0.37727 0.91629 0.78599 0.0
C505 C 0.36548 0.90516 0.75923 0.0
C506 C 0.41474 0.96227 0.86451 0.0
C507 C 0.39628 0.96233 0.88958 0.0
C508 C 0.40379 0.95272 0.83684 0.0
C509 C 0.37416 0.9429 0.83365 0.0
C510 C 0.35573 0.94302 0.85873 0.0
C511 C 0.36663 0.95273 0.88629 0.0
H512 H 0.60839 0.39031 0.69748 0.0
H513 H 0.60032 0.45804 0.75606 0.0
H514 H 0.58875 0.41236 0.65703 0.0
H515 H 0.58303 0.48099 0.71519 0.0
H516 H 0.52798 0.50855 0.64504 0.0
H517 H 0.54626 0.48505 0.68519 0.0
H518 H 0.59401 0.44522 0.62063 0.0
H519 H 0.57435 0.46789 0.58036 0.0
C520 C 0.60252 0.40989 0.70199 0.0
C521 C 0.60622 0.42203 0.73068 0.0
C522 C 0.59156 0.42292 0.67833 0.0
C523 C 0.58401 0.44882 0.68219 0.0
C524 C 0.58789 0.46098 0.71085 0.0
C525 C 0.5985 0.44783 0.73453 0.0
C526 C 0.54243 0.49483 0.63932 0.0
C527 C 0.54965 0.49039 0.6092 0.0
C528 C 0.55324 0.48132 0.66259 0.0
C529 C 0.5721 0.46303 0.65682 0.0
C530 C 0.57934 0.45866 0.62652 0.0
C531 C 0.56819 0.47195 0.60318 0.0
H532 H 0.88027 0.62402 0.1955 0.0
H533 H 0.95551 0.62529 0.24821 0.0
H534 H 0.90076 0.59912 0.15609 0.0
H535 H 0.97681 0.60241 0.20805 0.0
H536 H 0.99825 0.53665 0.14633 0.0
H537 H 0.97631 0.56124 0.18465 0.0
H538 H 0.93407 0.59853 0.11666 0.0
H539 H 0.9552 0.57246 0.0782 0.0
C540 C 0.90119 0.61911 0.19887 0.0
C541 C 0.9159 0.62683 0.22563 0.0
C542 C 0.91325 0.60507 0.17581 0.0
C543 C 0.94061 0.59832 0.17846 0.0
C544 C 0.9555 0.6065 0.20498 0.0
C545 C 0.94335 0.62025 0.2281 0.0
C546 C 0.98421 0.55003 0.13946 0.0
C547 C 0.97861 0.55251 0.10904 0.0
C548 C 0.97173 0.5645 0.1616 0.0
C549 C 0.95343 0.58244 0.15423 0.0
C550 C 0.94771 0.58484 0.12362 0.0
C551 C 0.96001 0.57 0.10139 0.0
H552 H 0.45059 0.20409 0.17774 0.0
H553 H 0.37447 0.16509 0.13134 0.0
H554 H 0.47416 0.16652 0.16301 0.0
H555 H 0.39856 0.12857 0.11513 0.0
H556 H 0.43786 0.05449 0.10885 0.0
H557 H 0.41536 0.08978 0.13198 0.0
H558 H 0.49466 0.14854 0.11987 0.0
H559 H 0.51737 0.11304 0.09778 0.0
C560 C 0.43886 0.18753 0.16442 0.0
C561 C 0.41063 0.18773 0.15564 0.0
C562 C 0.4525 0.16611 0.1557 0.0
C563 C 0.43829 0.14443 0.13791 0.0
C564 C 0.41005 0.14464 0.12924 0.0
C565 C 0.39637 0.16591 0.1381 0.0
C566 C 0.4506 0.07485 0.11158 0.0
C567 C 0.47933 0.081 0.10133 0.0
C568 C 0.43764 0.09515 0.12461 0.0
C569 C 0.45303 0.12216 0.12738 0.0
C570 C 0.48219 0.12796 0.11836 0.0
C571 C 0.49523 0.10758 0.10559 0.0
H572 H 0.11954 0.86129 0.55426 0.0
H573 H 0.15332 0.9155 0.62626 0.0
H574 H 0.08878 0.89285 0.54038 0.0
H575 H 0.12395 0.94768 0.61172 0.0
H576 H 0.06129 0.99918 0.58533 0.0
H577 H 0.07987 0.96113 0.60573 0.0
H578 H 0.0982 0.93499 0.51597 0.0
H579 H 0.07782 0.97173 0.49591 0.0
C580 C 0.11995 0.87977 0.56737 0.0
C581 C 0.13874 0.88608 0.59121 0.0
C582 C 0.10263 0.89799 0.5593 0.0
C583 C 0.10432 0.92313 0.57452 0.0
C584 C 0.1218 0.92848 0.59962 0.0
C585 C 0.1387 0.91004 0.60799 0.0
C586 C 0.06888 0.98495 0.57009 0.0
C587 C 0.0679 0.98815 0.53912 0.0
C588 C 0.07974 0.96329 0.58172 0.0
C589 C 0.09037 0.94478 0.56252 0.0
C590 C 0.08952 0.9483 0.53148 0.0
C591 C 0.07825 0.96965 0.51993 0.0
H592 H 0.77958 0.45899 0.94671 0.0
H593 H 0.82527 0.40053 0.90596 0.0
H594 H 0.82348 0.48142 0.97102 0.0
H595 H 0.86902 0.42283 0.93038 0.0
H596 H 0.93633 0.45211 1.00113 0.0
H597 H 0.89188 0.43013 0.97754 0.0
H598 H 0.87047 0.50913 0.96337 0.0
H599 H 0.91477 0.53109 0.98745 0.0
C600 C 0.79897 0.45099 0.94261 0.0
C601 C 0.79847 0.4277 0.92423 0.0
C602 C 0.82432 0.46392 0.95669 0.0
C603 C 0.85011 0.45404 0.95296 0.0
C604 C 0.84964 0.43088 0.93443 0.0
C605 C 0.82435 0.41799 0.92033 0.0
C606 C 0.92214 0.46487 0.99313 0.0
C607 C 0.92938 0.4935 0.99637 0.0
C608 C 0.8966 0.45221 0.9793 0.0
C609 C 0.8773 0.46769 0.96825 0.0
C610 C 0.88442 0.49634 0.97179 0.0
C611 C 0.91004 0.50902 0.98555 0.0
H612 H 0.72229 0.65724 0.4606 0.0
H613 H 0.71069 0.58959 0.39799 0.0
H614 H 0.67836 0.63639 0.48718 0.0
H615 H 0.66637 0.56879 0.42459 0.0
H616 H 0.57264 0.55372 0.46468 0.0
H617 H 0.61683 0.57289 0.43648 0.0
H618 H 0.65916 0.59874 0.51915 0.0
H619 H 0.61512 0.57999 0.54702 0.0
C620 C 0.71061 0.63776 0.45258 0.0
C621 C 0.72053 0.62515 0.42709 0.0
C622 C 0.68522 0.62574 0.46792 0.0
C623 C 0.66865 0.60067 0.45834 0.0
C624 C 0.67826 0.58819 0.43259 0.0
C625 C 0.70379 0.60021 0.41725 0.0
C626 C 0.59147 0.56337 0.47678 0.0
C627 C 0.59021 0.56543 0.50814 0.0
C628 C 0.6169 0.57432 0.46062 0.0
C629 C 0.64173 0.58773 0.47538 0.0
C630 C 0.64048 0.58914 0.50681 0.0
C631 C 0.61518 0.57816 0.5229 0.0
H632 H 0.25632 0.35388 0.07668 0.0
H633 H 0.24038 0.3851 0.16482 0.0
H634 H 0.21659 0.37294 0.05772 0.0
H635 H 0.20164 0.40469 0.14561 0.0
H636 H 0.14895 0.4558 0.09689 0.0
H637 H 0.19266 0.44042 0.11038 0.0
H638 H 0.16226 0.36302 0.06633 0.0
H639 H 0.11858 0.37859 0.05239 0.0
C640 C 0.24458 0.36493 0.09198 0.0
C641 C 0.25171 0.36793 0.12232 0.0
C642 C 0.22187 0.37586 0.08107 0.0
C643 C 0.20606 0.3903 0.10019 0.0
C644 C 0.21372 0.39402 0.13024 0.0
C645 C 0.23612 0.38288 0.1412 0.0
C646 C 0.15177 0.43565 0.08969 0.0
C647 C 0.1303 0.41836 0.07365 0.0
C648 C 0.1767 0.42679 0.09759 0.0
C649 C 0.18081 0.40051 0.08947 0.0
C650 C 0.15975 0.38347 0.07268 0.0
C651 C 0.13465 0.39226 0.06499 0.0
H652 H 0.63673 0.20549 0.91463 0.0
H653 H 0.55725 0.23444 0.92881 0.0
H654 H 0.61637 0.16388 0.9407 0.0
H655 H 0.53593 0.19167 0.95193 0.0
H656 H 0.50733 0.12241 1.01583 0.0
H657 H 0.53007 0.16473 0.99197 0.0
H658 H 0.58831 0.12176 0.94395 0.0
H659 H 0.56644 0.07973 0.96987 0.0
C660 C 0.61488 0.20325 0.92317 0.0
C661 C 0.59911 0.22424 0.91946 0.0
C662 C 0.60282 0.17871 0.93785 0.0
C663 C 0.57419 0.17369 0.94903 0.0
C664 C 0.55821 0.1944 0.94464 0.0
C665 C 0.57044 0.21915 0.93053 0.0
C666 C 0.52517 0.12206 1.00031 0.0
C667 C 0.53496 0.09756 0.99482 0.0
C668 C 0.53816 0.14648 0.98615 0.0
C669 C 0.5611 0.14733 0.9652 0.0
C670 C 0.57109 0.12263 0.96001 0.0
C671 C 0.55843 0.09824 0.97482 0.0
H672 H 0.95054 0.81193 0.43498 0.0
H673 H 0.88822 0.84997 0.392 0.0
H674 H 0.97093 0.85541 0.45872 0.0
H675 H 0.90797 0.89324 0.41661 0.0
H676 H 0.96728 0.97392 0.44461 0.0
H677 H 0.94826 0.93097 0.41864 0.0
H678 H 0.96101 0.88611 0.49724 0.0
H679 H 0.98036 0.9288 0.52287 0.0
C680 C 0.9412 0.82954 0.43039 0.0
C681 C 0.91756 0.8271 0.41143 0.0
C682 C 0.95273 0.85456 0.4444 0.0
C683 C 0.94113 0.87812 0.43989 0.0
C684 C 0.91776 0.87579 0.42058 0.0
C685 C 0.90615 0.85073 0.40666 0.0
C686 C 0.96606 0.9549 0.45636 0.0
C687 C 0.97546 0.95507 0.48595 0.0
C688 C 0.95496 0.93016 0.44148 0.0
C689 C 0.95303 0.90475 0.45565 0.0
C690 C 0.96247 0.90503 0.48524 0.0
C691 C 0.97344 0.9297 0.50011 0.0
H692 H 0.3277 0.74736 0.50183 0.0
H693 H 0.39494 0.79708 0.55295 0.0
H694 H 0.35857 0.71405 0.49265 0.0
H695 H 0.42559 0.76436 0.54327 0.0
H696 H 0.47846 0.70277 0.52356 0.0
H697 H 0.45214 0.73802 0.50916 0.0
H698 H 0.3719 0.68363 0.53105 0.0
H699 H 0.39811 0.64851 0.54486 0.0
C700 C 0.34923 0.75152 0.5105 0.0
C701 C 0.3586 0.77465 0.52861 0.0
C702 C 0.36692 0.73253 0.50512 0.0
C703 C 0.39433 0.73646 0.51755 0.0
C704 C 0.40469 0.76086 0.53311 0.0
C705 C 0.387 0.7797 0.53867 0.0
C706 C 0.45518 0.69822 0.52453 0.0
C707 C 0.44026 0.67321 0.53585 0.0
C708 C 0.44015 0.71835 0.51636 0.0
C709 C 0.41 0.71363 0.51915 0.0
C710 C 0.3951 0.68782 0.52835 0.0
C711 C 0.41009 0.66784 0.53669 0.0
H712 H 0.80765 0.79972 0.73852 0.0
H713 H 0.74825 0.84044 0.6943 0.0
H714 H 0.8476 0.82702 0.7106 0.0
H715 H 0.78809 0.86731 0.66562 0.0
H716 H 0.86577 0.93826 0.66265 0.0
H717 H 0.82496 0.90463 0.6804 0.0
H718 H 0.87316 0.84048 0.66436 0.0
H719 H 0.91439 0.8745 0.64688 0.0
C720 C 0.80306 0.81384 0.72201 0.0
C721 C 0.77494 0.81819 0.71873 0.0
C722 C 0.82596 0.82953 0.706 0.0
C723 C 0.82111 0.84974 0.68628 0.0
C724 C 0.79264 0.85242 0.68123 0.0
C725 C 0.7698 0.83692 0.69743 0.0
C726 C 0.86755 0.91694 0.66255 0.0
C727 C 0.89327 0.90901 0.65336 0.0
C728 C 0.84408 0.8976 0.67257 0.0
C729 C 0.84564 0.86977 0.67354 0.0
C730 C 0.87132 0.86177 0.66409 0.0
C731 C 0.89493 0.88122 0.65416 0.0
H732 H 0.65699 0.18399 0.31337 0.0
H733 H 0.72351 0.23754 0.26328 0.0
H734 H 0.6351 0.16568 0.26711 0.0
H735 H 0.70133 0.21936 0.21668 0.0
H736 H 0.67966 0.14775 0.14796 0.0
H737 H 0.69751 0.17636 0.19046 0.0
H738 H 0.61029 0.17323 0.22276 0.0
H739 H 0.5925 0.14347 0.18091 0.0
C740 C 0.66651 0.19239 0.29245 0.0
C741 C 0.69207 0.21211 0.29196 0.0
C742 C 0.65391 0.18191 0.26587 0.0
C743 C 0.66653 0.19096 0.23815 0.0
C744 C 0.69134 0.21165 0.23767 0.0
C745 C 0.70402 0.22208 0.26431 0.0
C746 C 0.66428 0.15331 0.16404 0.0
C747 C 0.6347 0.14299 0.16131 0.0
C748 C 0.67449 0.17002 0.18823 0.0
C749 C 0.65534 0.17691 0.21018 0.0
C750 C 0.62563 0.16795 0.20647 0.0
C751 C 0.61542 0.15115 0.1823 0.0
H752 H 0.45375 0.62345 0.31487 0.0
H753 H 0.38637 0.64116 0.37406 0.0
H754 H 0.47313 0.60124 0.35557 0.0
H755 H 0.40512 0.61804 0.41449 0.0
H756 H 0.46157 0.59693 0.48967 0.0
H757 H 0.44263 0.62018 0.44935 0.0
H758 H 0.46596 0.5618 0.38591 0.0
H759 H 0.48543 0.539 0.42615 0.0
C760 C 0.443 0.62275 0.33654 0.0
C761 C 0.4183 0.63435 0.34074 0.0
C762 C 0.45399 0.60958 0.36 0.0
C763 C 0.44083 0.60751 0.38873 0.0
C764 C 0.41623 0.61926 0.393 0.0
C765 C 0.40517 0.63234 0.36949 0.0
C766 C 0.46272 0.58901 0.46714 0.0
C767 C 0.47522 0.56595 0.46147 0.0
C768 C 0.4516 0.60232 0.44384 0.0
C769 C 0.4526 0.59313 0.41392 0.0
C770 C 0.46504 0.56998 0.40835 0.0
C771 C 0.47609 0.55665 0.43164 0.0
H772 H 0.14304 0.43566 0.87289 0.0
H773 H 0.06783 0.43418 0.82008 0.0
H774 H 0.12287 0.46119 0.91184 0.0
H775 H 0.04675 0.45766 0.85991 0.0
H776 H 0.02558 0.52407 0.92108 0.0
H777 H 0.04705 0.49884 0.88297 0.0
H778 H 0.09019 0.46279 0.95123 0.0
H779 H 0.06955 0.48951 0.98936 0.0
C780 C 0.12219 0.44065 0.86938 0.0
C781 C 0.10743 0.43271 0.84269 0.0
C782 C 0.11028 0.45506 0.89222 0.0
C783 C 0.083 0.46195 0.88947 0.0
C784 C 0.06803 0.4535 0.86305 0.0
C785 C 0.08004 0.4394 0.84012 0.0
C786 C 0.03972 0.51083 0.92803 0.0
C787 C 0.04574 0.50891 0.95843 0.0
C788 C 0.05193 0.49598 0.90603 0.0
C789 C 0.07037 0.4782 0.91352 0.0
C790 C 0.07647 0.47635 0.94412 0.0
C791 C 0.06445 0.49157 0.96619 0.0
H792 H 0.58821 0.87717 0.8713 0.0
H793 H 0.6152 0.85744 0.95825 0.0
H794 H 0.56717 0.91414 0.89363 0.0
H795 H 0.59429 0.89438 0.9805 0.0
H796 H 0.59294 0.98482 0.99842 0.0
H797 H 0.60952 0.94675 0.97389 0.0
H798 H 0.5271 0.92194 0.93284 0.0
H799 H 0.51008 0.96009 0.95777 0.0
C800 C 0.5893 0.88056 0.89522 0.0
C801 C 0.60338 0.86454 0.91308 0.0
C802 C 0.5772 0.90159 0.90796 0.0
C803 C 0.57941 0.90723 0.93869 0.0
C804 C 0.59259 0.8906 0.95667 0.0
C805 C 0.6043 0.86934 0.94402 0.0
C806 C 0.57836 0.97153 0.98391 0.0
C807 C 0.55012 0.97548 0.98015 0.0
C808 C 0.58783 0.94956 0.97009 0.0
C809 C 0.56944 0.93122 0.95188 0.0
C810 C 0.54164 0.93579 0.94689 0.0
C811 C 0.53196 0.95762 0.96111 0.0
H812 H 0.81117 0.09747 0.47485 0.0
H813 H 0.88772 0.15944 0.46133 0.0
H814 H 0.84089 0.06457 0.48716 0.0
H815 H 0.91717 0.12722 0.47528 0.0
H816 H 0.96699 0.06152 0.47987 0.0
H817 H 0.93381 0.08747 0.45901 0.0
H818 H 0.87036 0.05557 0.52715 0.0
H819 H 0.90352 1.0289 0.5472 0.0
C820 C 0.83433 0.10403 0.47435 0.0
C821 C 0.84709 0.13111 0.46724 0.0
C822 C 0.85132 0.08526 0.48172 0.0
C823 C 0.8814 0.09322 0.48218 0.0
C824 C 0.8941 0.12021 0.47467 0.0
C825 C 0.87717 0.13887 0.46715 0.0
C826 C 0.94587 0.05998 0.49013 0.0
C827 C 0.93792 0.04382 0.51539 0.0
C828 C 0.92687 0.07482 0.47828 0.0
C829 C 0.89966 0.07409 0.49182 0.0
C830 C 0.89109 0.05652 0.51609 0.0
C831 C 0.91006 0.04132 0.52766 0.0
H832 H 0.22835 0.6633 0.11207 0.0
H833 H 0.21774 0.59541 0.17266 0.0
H834 H 0.18445 0.64205 0.08716 0.0
H835 H 0.17319 0.57462 0.14842 0.0
H836 H 0.10938 0.53061 0.07992 0.0
H837 H 0.15389 0.55171 0.104 0.0
H838 H 0.13326 0.63134 0.092 0.0
H839 H 0.08896 0.61022 0.06743 0.0
C840 C 0.21677 0.64379 0.12014 0.0
C841 C 0.22702 0.63119 0.14451 0.0
C842 C 0.1912 0.63169 0.10598 0.0
C843 C 0.1749 0.60645 0.11557 0.0
C844 C 0.18511 0.59385 0.13998 0.0
C845 C 0.21065 0.60601 0.15422 0.0
C846 C 0.11431 0.55265 0.08227 0.0
C847 C 0.09534 0.5686 0.07153 0.0
C848 C 0.13989 0.56481 0.09639 0.0
C849 C 0.1475 0.5934 0.10023 0.0
C850 C 0.12858 0.60935 0.08925 0.0
C851 C 0.10295 0.59717 0.07519 0.0
H852 H 0.28387 0.45641 0.61481 0.0
H853 H 0.33337 0.41528 0.67198 0.0
H854 H 0.32793 0.47767 0.58807 0.0
H855 H 0.37736 0.43615 0.64491 0.0
H856 H 0.45455 0.49796 0.60702 0.0
H857 H 0.41031 0.47994 0.63556 0.0
H858 H 0.36395 0.46492 0.55341 0.0
H859 H 0.40809 0.48296 0.52504 0.0
C860 C 0.30414 0.45201 0.62186 0.0
C861 C 0.30486 0.434 0.64563 0.0
C862 C 0.32946 0.46404 0.60629 0.0
C863 C 0.35639 0.45867 0.61417 0.0
C864 C 0.35716 0.44102 0.63827 0.0
C865 C 0.33181 0.42879 0.65365 0.0
C866 C 0.43486 0.49098 0.59509 0.0
C867 C 0.43492 0.49187 0.56371 0.0
C868 C 0.40948 0.48045 0.61145 0.0
C869 C 0.38338 0.47081 0.5969 0.0
C870 C 0.38344 0.47234 0.56551 0.0
C871 C 0.40884 0.4826 0.54918 0.0
H872 H 0.79948 0.69569 0.88615 0.0
H873 H 0.77222 0.71044 0.97667 0.0
H874 H 0.83992 0.67809 0.90474 0.0
H875 H 0.81342 0.69323 0.99537 0.0
H876 H 0.87413 0.63131 1.01293 0.0
H877 H 0.83254 0.64951 0.99757 0.0
H878 H 0.88515 0.69753 0.92994 0.0
H879 H 0.92671 0.67974 0.94544 0.0
C880 C 0.80194 0.69491 0.91008 0.0
C881 C 0.78249 0.7043 0.92995 0.0
C882 C 0.82537 0.68515 0.92071 0.0
C883 C 0.82999 0.68448 0.95151 0.0
C884 C 0.81033 0.69342 0.97151 0.0
C885 C 0.78689 0.70341 0.96082 0.0
C886 C 0.87692 0.64605 0.99507 0.0
C887 C 0.90373 0.65385 0.98023 0.0
C888 C 0.85307 0.65644 0.98627 0.0
C889 C 0.85552 0.67473 0.96236 0.0
C890 C 0.88246 0.68304 0.94806 0.0
C891 C 0.90626 0.67279 0.95691 0.0
H892 H 0.44815 0.81308 0.11458 0.0
H893 H 0.41245 0.85553 0.1864 0.0
H894 H 0.46916 0.85658 0.09176 0.0
H895 H 0.4343 0.89933 0.16389 0.0
H896 H 0.45673 0.97358 0.09925 0.0
H897 H 0.43294 0.93012 0.12187 0.0
H898 H 0.50703 0.89518 0.09843 0.0
H899 H 0.53033 0.9381 0.07582 0.0
C900 C 0.44464 0.83165 0.12557 0.0
C901 C 0.4284 0.83041 0.15251 0.0
C902 C 0.45704 0.85682 0.11255 0.0
C903 C 0.45369 0.88184 0.12586 0.0
C904 C 0.43728 0.88067 0.1527 0.0
C905 C 0.42498 0.85542 0.16587 0.0
C906 C 0.46783 0.95655 0.09889 0.0
C907 C 0.49551 0.95947 0.08566 0.0
C908 C 0.45427 0.93161 0.11204 0.0
C909 C 0.46788 0.90878 0.11206 0.0
C910 C 0.49549 0.91189 0.09861 0.0
C911 C 0.50902 0.93672 0.08572 0.0
H912 H 0.07022 0.22311 0.68223 0.0
H913 H 0.14595 0.23242 0.62484 0.0
H914 H 0.05061 0.17999 0.65719 0.0
H915 H 0.12698 0.18888 0.60078 0.0
H916 H 0.07268 0.12388 0.54189 0.0
H917 H 0.09202 0.1668 0.56716 0.0
H918 H 0.05463 0.13322 0.65072 0.0
H919 H 0.0347 0.09038 0.62522 0.0
C920 C 0.08277 0.21608 0.66429 0.0
C921 C 0.10983 0.2316 0.6558 0.0
C922 C 0.07162 0.19101 0.65009 0.0
C923 C 0.08707 0.18057 0.62677 0.0
C924 C 0.11411 0.19613 0.6183 0.0
C925 C 0.12525 0.22112 0.6325 0.0
C926 C 0.06862 0.12549 0.56569 0.0
C927 C 0.05204 0.10336 0.58137 0.0
C928 C 0.07991 0.15024 0.58033 0.0
C929 C 0.07507 0.15384 0.6112 0.0
C930 C 0.05861 0.13161 0.62691 0.0
C931 C 0.04731 0.10682 0.61226 0.0
H932 H 0.7311 0.35357 0.53464 0.0
H933 H 0.6695 0.27807 0.54576 0.0
H934 H 0.69387 0.37926 0.54799 0.0
H935 H 0.63266 0.30374 0.56031 0.0
H936 H 0.62144 0.42142 0.56829 0.0
H937 H 0.65582 0.39277 0.58056 0.0
H938 H 0.61132 0.32887 0.52311 0.0
H939 H 0.57763 0.35739 0.51048 0.0
C940 C 0.70989 0.34246 0.541 0.0
C941 C 0.70305 0.31385 0.5383 0.0
C942 C 0.6886 0.35717 0.54897 0.0
C943 C 0.66017 0.34347 0.55447 0.0
C944 C 0.65429 0.31481 0.55559 0.0
C945 C 0.67553 0.3001 0.54751 0.0
C946 C 0.61887 0.40111 0.55858 0.0
C947 C 0.59709 0.39184 0.538 0.0
C948 C 0.63842 0.38469 0.56578 0.0
C949 C 0.63633 0.35862 0.55276 0.0
C950 C 0.61327 0.34867 0.53396 0.0
C951 C 0.59393 0.3651 0.52661 0.0
loop_
_geom_bond_atom_site_label_1
_geom_bond_atom_site_label_2
_geom_bond_distance
_geom_bond_site_symmetry_2
_ccdc_geom_bond_type
C0 C1 1.386 . S
C0 C2 1.397 . S
C0 H24 0.931 . S
C1 C0 1.386 . S
C1 C5 1.397 . S
C2 C0 1.397 . S
C2 C3 1.384 . S
C2 H25 0.930 . S
C3 C2 1.384 . S
C3 C4 1.377 . S
C3 C6 1.481 . S
C4 C3 1.377 . S
C4 C5 1.389 . S
C4 H26 0.929 . S
C5 C1 1.397 . S
C5 C4 1.389 . S
C5 H27 0.931 . S
C6 C3 1.481 . S
C6 C7 1.387 . S
C6 C11 1.390 . S
C7 C6 1.387 . S
C7 C8 1.401 . S
C7 H28 0.930 . S
C8 C7 1.401 . S
C8 C9 1.376 . S
C8 C17 1.511 . S
C9 C8 1.376 . S
C9 C10 1.392 . S
C9 H30 0.931 . S
C10 C9 1.392 . S
C10 C11 1.361 . S
C10 C12 1.500 . S
C11 C6 1.390 . S
C11 C10 1.361 . S
C11 H29 0.931 . S
C12 C10 1.500 . S
C12 C13 1.371 . S
C12 C14 1.365 . S
C13 C12 1.371 . S
C13 C23 1.386 . S
C13 H31 0.931 . S
C14 C12 1.365 . S
C14 C15 1.409 . S
C14 H32 0.929 . S
C15 C14 1.409 . S
C15 C16 1.380 . S
C15 H33 0.930 . S
C16 C15 1.380 . S
C16 C23 1.357 . S
C17 C8 1.511 . S
C17 C18 1.341 . S
C17 C19 1.371 . S
C18 C17 1.341 . S
C18 C22 1.394 . S
C18 H34 0.930 . S
C19 C17 1.371 . S
C19 C20 1.392 . S
C19 H35 0.931 . S
C20 C19 1.392 . S
C20 C21 1.331 . S
C20 H38 0.932 . S
C21 C20 1.331 . S
C21 C22 1.336 . S
C22 C18 1.394 . S
C22 C21 1.336 . S
C22 H37 0.929 . S
C23 C13 1.386 . S
C23 C16 1.357 . S
C23 H36 0.928 . S
H24 C0 0.931 . S
H25 C2 0.930 . S
H26 C4 0.929 . S
H27 C5 0.931 . S
H28 C7 0.930 . S
H29 C11 0.931 . S
H30 C9 0.931 . S
H31 C13 0.931 . S
H32 C14 0.929 . S
H33 C15 0.930 . S
H34 C18 0.930 . S
H35 C19 0.931 . S
H36 C23 0.928 . S
H37 C22 0.929 . S
H38 C20 0.932 . S
C39 C40 1.386 . S
C39 C41 1.397 . S
C39 H63 0.931 . S
C40 C39 1.386 . S
C40 C44 1.397 . S
C41 C39 1.397 . S
C41 C42 1.384 . S
C41 H64 0.930 . S
C42 C41 1.384 . S
C42 C43 1.377 . S
C42 C45 1.481 . S
C43 C42 1.377 . S
C43 C44 1.389 . S
C43 H65 0.929 . S
C44 C40 1.397 . S
C44 C43 1.389 . S
C44 H66 0.931 . S
C45 C42 1.481 . S
C45 C46 1.387 . S
C45 C50 1.390 . S
C46 C45 1.387 . S
C46 C47 1.401 . S
C46 H67 0.930 . S
C47 C46 1.401 . S
C47 C48 1.376 . S
C47 C56 1.511 . S
C48 C47 1.376 . S
C48 C49 1.392 . S
C48 H69 0.931 . S
C49 C48 1.392 . S
C49 C50 1.361 . S
C49 C51 1.500 . S
C50 C45 1.390 . S
C50 C49 1.361 . S
C50 H68 0.931 . S
C51 C49 1.500 . S
C51 C52 1.371 . S
C51 C53 1.365 . S
C52 C51 1.371 . S
C52 C62 1.386 . S
C52 H70 0.931 . S
C53 C51 1.365 . S
C53 C54 1.409 . S
C53 H71 0.929 . S
C54 C53 1.409 . S
C54 C55 1.380 . S
C54 H72 0.930 . S
C55 C54 1.380 . S
C55 C62 1.357 . S
C56 C47 1.511 . S
C56 C57 1.341 . S
C56 C58 1.371 . S
C57 C56 1.341 . S
C57 C61 1.394 . S
C57 H73 0.930 . S
C58 C56 1.371 . S
C58 C59 1.392 . S
C58 H74 0.931 . S
C59 C58 1.392 . S
C59 C60 1.331 . S
C59 H77 0.932 . S
C60 C59 1.331 . S
C60 C61 1.336 . S
C61 C57 1.394 . S
C61 C60 1.336 . S
C61 H76 0.929 . S
C62 C52 1.386 . S
C62 C55 1.357 . S
C62 H75 0.928 . S
H63 C39 0.931 . S
H64 C41 0.930 . S
H65 C43 0.929 . S
H66 C44 0.931 . S
H67 C46 0.930 . S
H68 C50 0.931 . S
H69 C48 0.931 . S
H70 C52 0.931 . S
H71 C53 0.929 . S
H72 C54 0.930 . S
H73 C57 0.930 . S
H74 C58 0.931 . S
H75 C62 0.928 . S
H76 C61 0.929 . S
H77 C59 0.932 . S
C78 C79 1.386 . S
C78 C80 1.397 . S
C78 H102 0.931 . S
C79 C78 1.386 . S
C79 C83 1.397 . S
C80 C78 1.397 . S
C80 C81 1.384 . S
C80 H103 0.930 . S
C81 C80 1.384 . S
C81 C82 1.377 . S
C81 C84 1.481 . S
C82 C81 1.377 . S
C82 C83 1.389 . S
C82 H104 0.929 . S
C83 C79 1.397 . S
C83 C82 1.389 . S
C83 H105 0.931 . S
C84 C81 1.481 . S
C84 C85 1.387 . S
C84 C89 1.390 . S
C85 C84 1.387 . S
C85 C86 1.401 . S
C85 H106 0.930 . S
C86 C85 1.401 . S
C86 C87 1.376 . S
C86 C95 1.511 . S
C87 C86 1.376 . S
C87 C88 1.392 . S
C87 H108 0.931 . S
C88 C87 1.392 . S
C88 C89 1.361 . S
C88 C90 1.500 . S
C89 C84 1.390 . S
C89 C88 1.361 . S
C89 H107 0.931 . S
C90 C88 1.500 . S
C90 C91 1.371 . S
C90 C92 1.365 . S
C91 C90 1.371 . S
C91 C101 1.386 . S
C91 H109 0.931 . S
C92 C90 1.365 . S
C92 C93 1.409 . S
C92 H110 0.929 . S
C93 C92 1.409 . S
C93 C94 1.380 . S
C93 H111 0.930 . S
C94 C93 1.380 . S
C94 C101 1.357 . S
C95 C86 1.511 . S
C95 C96 1.341 . S
C95 C97 1.371 . S
C96 C95 1.341 . S
C96 C100 1.394 . S
C96 H112 0.930 . S
C97 C95 1.371 . S
C97 C98 1.392 . S
C97 H113 0.931 . S
C98 C97 1.392 . S
C98 C99 1.331 . S
C98 H116 0.932 . S
C99 C98 1.331 . S
C99 C100 1.336 . S
C100 C96 1.394 . S
C100 C99 1.336 . S
C100 H115 0.929 . S
C101 C91 1.386 . S
C101 C94 1.357 . S
C101 H114 0.928 . S
H102 C78 0.931 . S
H103 C80 0.930 . S
H104 C82 0.929 . S
H105 C83 0.931 . S
H106 C85 0.930 . S
H107 C89 0.931 . S
H108 C87 0.931 . S
H109 C91 0.931 . S
H110 C92 0.929 . S
H111 C93 0.930 . S
H112 C96 0.930 . S
H113 C97 0.931 . S
H114 C101 0.928 . S
H115 C100 0.929 . S
H116 C98 0.932 . S
C117 C118 1.386 . S
C117 C119 1.397 . S
C117 H141 0.931 . S
C118 C117 1.386 . S
C118 C122 1.397 . S
C119 C117 1.397 . S
C119 C120 1.384 . S
C119 H142 0.930 . S
C120 C119 1.384 . S
C120 C121 1.377 . S
C120 C123 1.481 . S
C121 C120 1.377 . S
C121 C122 1.389 . S
C121 H143 0.929 . S
C122 C118 1.397 . S
C122 C121 1.389 . S
C122 H144 0.931 . S
C123 C120 1.481 . S
C123 C124 1.387 . S
C123 C128 1.390 . S
C124 C123 1.387 . S
C124 C125 1.401 . S
C124 H145 0.930 . S
C125 C124 1.401 . S
C125 C126 1.376 . S
C125 C134 1.511 . S
C126 C125 1.376 . S
C126 C127 1.392 . S
C126 H147 0.931 . S
C127 C126 1.392 . S
C127 C128 1.361 . S
C127 C129 1.500 . S
C128 C123 1.390 . S
C128 C127 1.361 . S
C128 H146 0.931 . S
C129 C127 1.500 . S
C129 C130 1.371 . S
C129 C131 1.365 . S
C130 C129 1.371 . S
C130 C140 1.386 . S
C130 H148 0.931 . S
C131 C129 1.365 . S
C131 C132 1.409 . S
C131 H149 0.929 . S
C132 C131 1.409 . S
C132 C133 1.380 . S
C132 H150 0.930 . S
C133 C132 1.380 . S
C133 C140 1.357 . S
C134 C125 1.511 . S
C134 C135 1.341 . S
C134 C136 1.371 . S
C135 C134 1.341 . S
C135 C139 1.394 . S
C135 H151 0.930 . S
C136 C134 1.371 . S
C136 C137 1.392 . S
C136 H152 0.931 . S
C137 C136 1.392 . S
C137 C138 1.331 . S
C137 H155 0.932 . S
C138 C137 1.331 . S
C138 C139 1.336 . S
C139 C135 1.394 . S
C139 C138 1.336 . S
C139 H154 0.929 . S
C140 C130 1.386 . S
C140 C133 1.357 . S
C140 H153 0.928 . S
H141 C117 0.931 . S
H142 C119 0.930 . S
H143 C121 0.929 . S
H144 C122 0.931 . S
H145 C124 0.930 . S
H146 C128 0.931 . S
H147 C126 0.931 . S
H148 C130 0.931 . S
H149 C131 0.929 . S
H150 C132 0.930 . S
H151 C135 0.930 . S
H152 C136 0.931 . S
H153 C140 0.928 . S
H154 C139 0.929 . S
H155 C137 0.932 . S
C156 C157 1.386 . S
C156 C158 1.397 . S
C156 H180 0.931 . S
C157 C156 1.386 . S
C157 C161 1.397 . S
C158 C156 1.397 . S
C158 C159 1.384 . S
C158 H181 0.930 . S
C159 C158 1.384 . S
C159 C160 1.377 . S
C159 C162 1.481 . S
C160 C159 1.377 . S
C160 C161 1.389 . S
C160 H182 0.929 . S
C161 C157 1.397 . S
C161 C160 1.389 . S
C161 H183 0.931 . S
C162 C159 1.481 . S
C162 C163 1.387 . S
C162 C167 1.390 . S
C163 C162 1.387 . S
C163 C164 1.401 . S
C163 H184 0.930 . S
C164 C163 1.401 . S
C164 C165 1.376 . S
C164 C173 1.511 . S
C165 C164 1.376 . S
C165 C166 1.392 . S
C165 H186 0.931 . S
C166 C165 1.392 . S
C166 C167 1.361 . S
C166 C168 1.500 . S
C167 C162 1.390 . S
C167 C166 1.361 . S
C167 H185 0.931 . S
C168 C166 1.500 . S
C168 C169 1.371 . S
C168 C170 1.365 . S
C169 C168 1.371 . S
C169 C179 1.386 . S
C169 H187 0.931 . S
C170 C168 1.365 . S
C170 C171 1.409 . S
C170 H188 0.929 . S
C171 C170 1.409 . S
C171 C172 1.380 . S
C171 H189 0.930 . S
C172 C171 1.380 . S
C172 C179 1.357 . S
C173 C164 1.511 . S
C173 C174 1.341 . S
C173 C175 1.371 . S
C174 C173 1.341 . S
C174 C178 1.394 . S
C174 H190 0.930 . S
C175 C173 1.371 . S
C175 C176 1.392 . S
C175 H191 0.931 . S
C176 C175 1.392 . S
C176 C177 1.331 . S
C176 H194 0.932 . S
C177 C176 1.331 . S
C177 C178 1.336 . S
C178 C174 1.394 . S
C178 C177 1.336 . S
C178 H193 0.929 . S
C179 C169 1.386 . S
C179 C172 1.357 . S
C179 H192 0.928 . S
H180 C156 0.931 . S
H181 C158 0.930 . S
H182 C160 0.929 . S
H183 C161 0.931 . S
H184 C163 0.930 . S
H185 C167 0.931 . S
H186 C165 0.931 . S
H187 C169 0.931 . S
H188 C170 0.929 . S
H189 C171 0.930 . S
H190 C174 0.930 . S
H191 C175 0.931 . S
H192 C179 0.928 . S
H193 C178 0.929 . S
H194 C176 0.932 . S
C195 C196 1.386 . S
C195 C197 1.397 . S
C195 H219 0.931 . S
C196 C195 1.386 . S
C196 C200 1.397 . S
C197 C195 1.397 . S
C197 C198 1.384 . S
C197 H220 0.930 . S
C198 C197 1.384 . S
C198 C199 1.377 . S
C198 C201 1.481 . S
C199 C198 1.377 . S
C199 C200 1.389 . S
C199 H221 0.929 . S
C200 C196 1.397 . S
C200 C199 1.389 . S
C200 H222 0.931 . S
C201 C198 1.481 . S
C201 C202 1.387 . S
C201 C206 1.390 . S
C202 C201 1.387 . S
C202 C203 1.401 . S
C202 H223 0.930 . S
C203 C202 1.401 . S
C203 C204 1.376 . S
C203 C212 1.511 . S
C204 C203 1.376 . S
C204 C205 1.392 . S
C204 H225 0.931 . S
C205 C204 1.392 . S
C205 C206 1.361 . S
C205 C207 1.500 . S
C206 C201 1.390 . S
C206 C205 1.361 . S
C206 H224 0.931 . S
C207 C205 1.500 . S
C207 C208 1.371 . S
C207 C209 1.365 . S
C208 C207 1.371 . S
C208 C218 1.386 . S
C208 H226 0.931 . S
C209 C207 1.365 . S
C209 C210 1.409 . S
C209 H227 0.929 . S
C210 C209 1.409 . S
C210 C211 1.380 . S
C210 H228 0.930 . S
C211 C210 1.380 . S
C211 C218 1.357 . S
C212 C203 1.511 . S
C212 C213 1.341 . S
C212 C214 1.371 . S
C213 C212 1.341 . S
C213 C217 1.394 . S
C213 H229 0.930 . S
C214 C212 1.371 . S
C214 C215 1.392 . S
C214 H230 0.931 . S
C215 C214 1.392 . S
C215 C216 1.331 . S
C215 H233 0.932 . S
C216 C215 1.331 . S
C216 C217 1.336 . S
C217 C213 1.394 . S
C217 C216 1.336 . S
C217 H232 0.929 . S
C218 C208 1.386 . S
C218 C211 1.357 . S
C218 H231 0.928 . S
H219 C195 0.931 . S
H220 C197 0.930 . S
H221 C199 0.929 . S
H222 C200 0.931 . S
H223 C202 0.930 . S
H224 C206 0.931 . S
H225 C204 0.931 . S
H226 C208 0.931 . S
H227 C209 0.929 . S
H228 C210 0.930 . S
H229 C213 0.930 . S
H230 C214 0.931 . S
H231 C218 0.928 . S
H232 C217 0.929 . S
H233 C215 0.932 . S
C234 C235 1.386 . S
C234 C236 1.397 . S
C234 H258 0.931 . S
C235 C234 1.386 . S
C235 C239 1.397 . S
C236 C234 1.397 . S
C236 C237 1.384 . S
C236 H259 0.930 . S
C237 C236 1.384 . S
C237 C238 1.377 . S
C237 C240 1.481 . S
C238 C237 1.377 . S
C238 C239 1.389 . S
C238 H260 0.929 . S
C239 C235 1.397 . S
C239 C238 1.389 . S
C239 H261 0.931 . S
C240 C237 1.481 . S
C240 C241 1.387 . S
C240 C245 1.390 . S
C241 C240 1.387 . S
C241 C242 1.401 . S
C241 H262 0.930 . S
C242 C241 1.401 . S
C242 C243 1.376 . S
C242 C251 1.511 . S
C243 C242 1.376 . S
C243 C244 1.392 . S
C243 H264 0.931 . S
C244 C243 1.392 . S
C244 C245 1.361 . S
C244 C246 1.500 . S
C245 C240 1.390 . S
C245 C244 1.361 . S
C245 H263 0.931 . S
C246 C244 1.500 . S
C246 C247 1.371 . S
C246 C248 1.365 . S
C247 C246 1.371 . S
C247 C257 1.386 . S
C247 H265 0.931 . S
C248 C246 1.365 . S
C248 C249 1.409 . S
C248 H266 0.929 . S
C249 C248 1.409 . S
C249 C250 1.380 . S
C249 H267 0.930 . S
C250 C249 1.380 . S
C250 C257 1.357 . S
C251 C242 1.511 . S
C251 C252 1.341 . S
C251 C253 1.371 . S
C252 C251 1.341 . S
C252 C256 1.394 . S
C252 H268 0.930 . S
C253 C251 1.371 . S
C253 C254 1.392 . S
C253 H269 0.931 . S
C254 C253 1.392 . S
C254 C255 1.331 . S
C254 H272 0.932 . S
C255 C254 1.331 . S
C255 C256 1.336 . S
C256 C252 1.394 . S
C256 C255 1.336 . S
C256 H271 0.929 . S
C257 C247 1.386 . S
C257 C250 1.357 . S
C257 H270 0.928 . S
H258 C234 0.931 . S
H259 C236 0.930 . S
H260 C238 0.929 . S
H261 C239 0.931 . S
H262 C241 0.930 . S
H263 C245 0.931 . S
H264 C243 0.931 . S
H265 C247 0.931 . S
H266 C248 0.929 . S
H267 C249 0.930 . S
H268 C252 0.930 . S
H269 C253 0.931 . S
H270 C257 0.928 . S
H271 C256 0.929 . S
H272 C254 0.932 . S
C273 C274 1.386 . S
C273 C275 1.397 . S
C273 H297 0.931 . S
C274 C273 1.386 . S
C274 C278 1.397 . S
C275 C273 1.397 . S
C275 C276 1.384 . S
C275 H298 0.930 . S
C276 C275 1.384 . S
C276 C277 1.377 . S
C276 C279 1.481 . S
C277 C276 1.377 . S
C277 C278 1.389 . S
C277 H299 0.929 . S
C278 C274 1.397 . S
C278 C277 1.389 . S
C278 H300 0.931 . S
C279 C276 1.481 . S
C279 C280 1.387 . S
C279 C284 1.390 . S
C280 C279 1.387 . S
C280 C281 1.401 . S
C280 H301 0.930 . S
C281 C280 1.401 . S
C281 C282 1.376 . S
C281 C290 1.511 . S
C282 C281 1.376 . S
C282 C283 1.392 . S
C282 H303 0.931 . S
C283 C282 1.392 . S
C283 C284 1.361 . S
C283 C285 1.500 . S
C284 C279 1.390 . S
C284 C283 1.361 . S
C284 H302 0.931 . S
C285 C283 1.500 . S
C285 C286 1.371 . S
C285 C287 1.365 . S
C286 C285 1.371 . S
C286 C296 1.386 . S
C286 H304 0.931 . S
C287 C285 1.365 . S
C287 C288 1.409 . S
C287 H305 0.929 . S
C288 C287 1.409 . S
C288 C289 1.380 . S
C288 H306 0.930 . S
C289 C288 1.380 . S
C289 C296 1.357 . S
C290 C281 1.511 . S
C290 C291 1.341 . S
C290 C292 1.371 . S
C291 C290 1.341 . S
C291 C295 1.394 . S
C291 H307 0.930 . S
C292 C290 1.371 . S
C292 C293 1.392 . S
C292 H308 0.931 . S
C293 C292 1.392 . S
C293 C294 1.331 . S
C293 H311 0.932 . S
C294 C293 1.331 . S
C294 C295 1.336 . S
C295 C291 1.394 . S
C295 C294 1.336 . S
C295 H310 0.929 . S
C296 C286 1.386 . S
C296 C289 1.357 . S
C296 H309 0.928 . S
H297 C273 0.931 . S
H298 C275 0.930 . S
H299 C277 0.929 . S
H300 C278 0.931 . S
H301 C280 0.930 . S
H302 C284 0.931 . S
H303 C282 0.931 . S
H304 C286 0.931 . S
H305 C287 0.929 . S
H306 C288 0.930 . S
H307 C291 0.930 . S
H308 C292 0.931 . S
H309 C296 0.928 . S
H310 C295 0.929 . S
H311 C293 0.932 . S
Gd312 C315 2.818 . S
Gd312 O332 2.377 . S
Gd312 O334 2.448 . S
Gd312 O335 2.506 . S
Gd312 O336 2.435 1_545 S
Gd312 O337 2.717 1_545 S
Gd312 O339 2.395 1_445 S
Gd312 O343 2.327 1_455 S
Gd313 C324 2.818 . S
Gd313 O333 2.395 1_665 S
Gd313 O337 2.327 1_655 S
Gd313 O338 2.377 . S
Gd313 O340 2.448 . S
Gd313 O341 2.506 . S
Gd313 O342 2.435 1_565 S
Gd313 O343 2.717 1_565 S
C314 O332 1.240 . S
C314 O333 1.240 . S
C315 Gd312 2.818 . S
C315 C316 1.510 . S
C315 O334 1.249 . S
C315 O335 1.252 . S
C316 C315 1.510 . S
C316 C317 1.404 . S
C316 C318 1.352 . S
C317 C316 1.404 . S
C317 C321 1.389 . S
C317 H344 0.930 . S
C318 C316 1.352 . S
C318 C320 1.374 . S
C318 H345 0.931 . S
C319 C320 1.359 . S
C319 C321 1.364 . S
C320 C318 1.374 . S
C320 C319 1.359 . S
C320 H346 0.931 . S
C321 C317 1.389 . S
C321 C319 1.364 . S
C321 H347 0.931 . S
C322 O336 1.256 . S
C322 O337 1.257 . S
C323 O338 1.240 . S
C323 O339 1.240 . S
C324 Gd313 2.818 . S
C324 C325 1.510 . S
C324 O340 1.249 . S
C324 O341 1.252 . S
C325 C324 1.510 . S
C325 C326 1.404 . S
C325 C327 1.352 . S
C326 C325 1.404 . S
C326 C330 1.389 . S
C326 H348 0.930 . S
C327 C325 1.352 . S
C327 C329 1.374 . S
C327 H349 0.931 . S
C328 C329 1.359 . S
C328 C330 1.364 . S
C329 C327 1.374 . S
C329 C328 1.359 . S
C329 H350 0.931 . S
C330 C326 1.389 . S
C330 C328 1.364 . S
C330 H351 0.931 . S
C331 O342 1.256 . S
C331 O343 1.257 . S
O332 Gd312 2.377 . S
O332 C314 1.240 . S
O333 Gd313 2.395 1_445 S
O333 C314 1.240 . S
O334 Gd312 2.448 . S
O334 C315 1.249 . S
O335 Gd312 2.506 . S
O335 C315 1.252 . S
O336 Gd312 2.435 1_565 S
O336 C322 1.256 . S
O337 Gd312 2.717 1_565 S
O337 Gd313 2.327 1_455 S
O337 C322 1.257 . S
O338 Gd313 2.377 . S
O338 C323 1.240 . S
O339 Gd312 2.395 1_665 S
O339 C323 1.240 . S
O340 Gd313 2.448 . S
O340 C324 1.249 . S
O341 Gd313 2.506 . S
O341 C324 1.252 . S
O342 Gd313 2.435 1_545 S
O342 C331 1.256 . S
O343 Gd312 2.327 1_655 S
O343 Gd313 2.717 1_545 S
O343 C331 1.257 . S
H344 C317 0.930 . S
H345 C318 0.931 . S
H346 C320 0.931 . S
H347 C321 0.931 . S
H348 C326 0.930 . S
H349 C327 0.931 . S
H350 C329 0.931 . S
H351 C330 0.931 . S
Gd352 C355 2.825 . S
Gd352 O372 2.385 . S
Gd352 O374 2.449 . S
Gd352 O375 2.517 . S
Gd352 O376 2.425 1_545 S
Gd352 O377 2.712 1_545 S
Gd352 O379 2.387 1_544 S
Gd352 O383 2.337 1_554 S
Gd353 C364 2.818 1_545 S
Gd353 O373 2.395 1_556 S
Gd353 O377 2.327 1_546 S
Gd353 O378 2.377 1_545 S
Gd353 O380 2.448 1_545 S
Gd353 O381 2.506 1_545 S
Gd353 O382 2.435 . S
Gd353 O383 2.717 . S
C354 O372 1.240 . S
C354 O373 1.240 . S
C355 Gd352 2.825 . S
C355 C356 1.510 . S
C355 O374 1.249 . S
C355 O375 1.252 . S
C356 C355 1.510 . S
C356 C357 1.404 . S
C356 C358 1.352 . S
C357 C356 1.404 . S
C357 C361 1.389 . S
C357 H384 0.930 . S
C358 C356 1.352 . S
C358 C360 1.374 . S
C358 H385 0.931 . S
C359 C360 1.359 . S
C359 C361 1.364 . S
C360 C358 1.374 . S
C360 C359 1.359 . S
C360 H386 0.931 . S
C361 C357 1.389 . S
C361 C359 1.364 . S
C361 H387 0.931 . S
C362 O376 1.256 . S
C362 O377 1.257 . S
C363 O378 1.240 . S
C363 O379 1.240 . S
C364 Gd353 2.818 1_565 S
C364 C365 1.510 . S
C364 O380 1.249 . S
C364 O381 1.252 . S
C365 C364 1.510 . S
C365 C366 1.404 . S
C365 C367 1.352 . S
C366 C365 1.404 . S
C366 C370 1.389 . S
C366 H388 0.930 . S
C367 C365 1.352 . S
C367 C369 1.374 . S
C367 H389 0.931 . S
C368 C369 1.359 . S
C368 C370 1.364 . S
C369 C367 1.374 . S
C369 C368 1.359 . S
C369 H390 0.931 . S
C370 C366 1.389 . S
C370 C368 1.364 . S
C370 H391 0.931 . S
C371 O382 1.256 . S
C371 O383 1.257 . S
O372 Gd352 2.385 . S
O372 C354 1.240 . S
O373 Gd353 2.395 1_554 S
O373 C354 1.240 . S
O374 Gd352 2.449 . S
O374 C355 1.249 . S
O375 Gd352 2.517 . S
O375 C355 1.252 . S
O376 Gd352 2.425 1_565 S
O376 C362 1.256 . S
O377 Gd352 2.712 1_565 S
O377 Gd353 2.327 1_564 S
O377 C362 1.257 . S
O378 Gd353 2.377 1_565 S
O378 C363 1.240 . S
O379 Gd352 2.387 1_566 S
O379 C363 1.240 . S
O380 Gd353 2.448 1_565 S
O380 C364 1.249 . S
O381 Gd353 2.506 1_565 S
O381 C364 1.252 . S
O382 Gd353 2.435 . S
O382 C371 1.256 . S
O383 Gd352 2.337 1_556 S
O383 Gd353 2.717 . S
O383 C371 1.257 . S
H384 C357 0.930 . S
H385 C358 0.931 . S
H386 C360 0.931 . S
H387 C361 0.931 . S
H388 C366 0.930 . S
H389 C367 0.931 . S
H390 C369 0.931 . S
H391 C370 0.931 . S
Gd392 C395 2.818 . S
Gd392 O412 2.377 . S
Gd392 O414 2.448 . S
Gd392 O415 2.506 . S
Gd392 O416 2.435 . S
Gd392 O417 2.717 . S
Gd392 O419 2.395 . S
Gd392 O423 2.327 . S
Gd393 C404 2.818 . S
Gd393 O413 2.395 . S
Gd393 O417 2.327 . S
Gd393 O418 2.377 . S
Gd393 O420 2.448 . S
Gd393 O421 2.506 . S
Gd393 O422 2.435 . S
Gd393 O423 2.717 . S
C394 O412 1.240 . S
C394 O413 1.240 . S
C395 Gd392 2.818 . S
C395 C396 1.510 . S
C395 O414 1.249 . S
C395 O415 1.252 . S
C396 C395 1.510 . S
C396 C397 1.404 . S
C396 C398 1.352 . S
C397 C396 1.404 . S
C397 C401 1.389 . S
C397 H424 0.930 . S
C398 C396 1.352 . S
C398 C400 1.374 . S
C398 H425 0.931 . S
C399 C400 1.359 . S
C399 C401 1.364 . S
C400 C398 1.374 . S
C400 C399 1.359 . S
C400 H426 0.931 . S
C401 C397 1.389 . S
C401 C399 1.364 . S
C401 H427 0.931 . S
C402 O416 1.256 . S
C402 O417 1.257 . S
C403 O418 1.240 . S
C403 O419 1.240 . S
C404 Gd393 2.818 . S
C404 C405 1.510 . S
C404 O420 1.249 . S
C404 O421 1.252 . S
C405 C404 1.510 . S
C405 C406 1.404 . S
C405 C407 1.352 . S
C406 C405 1.404 . S
C406 C410 1.389 . S
C406 H428 0.930 . S
C407 C405 1.352 . S
C407 C409 1.374 . S
C407 H429 0.931 . S
C408 C409 1.359 . S
C408 C410 1.364 . S
C409 C407 1.374 . S
C409 C408 1.359 . S
C409 H430 0.931 . S
C410 C406 1.389 . S
C410 C408 1.364 . S
C410 H431 0.931 . S
C411 O422 1.256 . S
C411 O423 1.257 . S
O412 Gd392 2.377 . S
O412 C394 1.240 . S
O413 Gd393 2.395 . S
O413 C394 1.240 . S
O414 Gd392 2.448 . S
O414 C395 1.249 . S
O415 Gd392 2.506 . S
O415 C395 1.252 . S
O416 Gd392 2.435 . S
O416 C402 1.256 . S
O417 Gd392 2.717 . S
O417 Gd393 2.327 . S
O417 C402 1.257 . S
O418 Gd393 2.377 . S
O418 C403 1.240 . S
O419 Gd392 2.395 . S
O419 C403 1.240 . S
O420 Gd393 2.448 . S
O420 C404 1.249 . S
O421 Gd393 2.506 . S
O421 C404 1.252 . S
O422 Gd393 2.435 . S
O422 C411 1.256 . S
O423 Gd392 2.327 . S
O423 Gd393 2.717 . S
O423 C411 1.257 . S
H424 C397 0.930 . S
H425 C398 0.931 . S
H426 C400 0.931 . S
H427 C401 0.931 . S
H428 C406 0.930 . S
H429 C407 0.931 . S
H430 C409 0.931 . S
H431 C410 0.931 . S
Gd432 C435 2.818 . S
Gd432 O452 2.377 . S
Gd432 O454 2.448 . S
Gd432 O455 2.506 . S
Gd432 O456 2.435 1_455 S
Gd432 O457 2.717 1_455 S
Gd432 O459 2.395 1_454 S
Gd432 O463 2.327 1_554 S
Gd433 C444 2.818 . S
Gd433 O453 2.395 1_656 S
Gd433 O457 2.327 1_556 S
Gd433 O458 2.377 . S
Gd433 O460 2.448 . S
Gd433 O461 2.506 . S
Gd433 O462 2.435 1_655 S
Gd433 O463 2.717 1_655 S
C434 O452 1.240 . S
C434 O453 1.240 . S
C435 Gd432 2.818 . S
C435 C436 1.510 . S
C435 O454 1.249 . S
C435 O455 1.252 . S
C436 C435 1.510 . S
C436 C437 1.404 . S
C436 C438 1.352 . S
C437 C436 1.404 . S
C437 C441 1.389 . S
C437 H464 0.930 . S
C438 C436 1.352 . S
C438 C440 1.374 . S
C438 H465 0.931 . S
C439 C440 1.359 . S
C439 C441 1.364 . S
C440 C438 1.374 . S
C440 C439 1.359 . S
C440 H466 0.931 . S
C441 C437 1.389 . S
C441 C439 1.364 . S
C441 H467 0.931 . S
C442 O456 1.256 . S
C442 O457 1.257 . S
C443 O458 1.240 . S
C443 O459 1.240 . S
C444 Gd433 2.818 . S
C444 C445 1.510 . S
C444 O460 1.249 . S
C444 O461 1.252 . S
C445 C444 1.510 . S
C445 C446 1.404 . S
C445 C447 1.352 . S
C446 C445 1.404 . S
C446 C450 1.389 . S
C446 H468 0.930 . S
C447 C445 1.352 . S
C447 C449 1.374 . S
C447 H469 0.931 . S
C448 C449 1.359 . S
C448 C450 1.364 . S
C449 C447 1.374 . S
C449 C448 1.359 . S
C449 H470 0.931 . S
C450 C446 1.389 . S
C450 C448 1.364 . S
C450 H471 0.931 . S
C451 O462 1.256 . S
C451 O463 1.257 . S
O452 Gd432 2.377 . S
O452 C434 1.240 . S
O453 Gd433 2.395 1_454 S
O453 C434 1.240 . S
O454 Gd432 2.448 . S
O454 C435 1.249 . S
O455 Gd432 2.506 . S
O455 C435 1.252 . S
O456 Gd432 2.435 1_655 S
O456 C442 1.256 . S
O457 Gd432 2.717 1_655 S
O457 Gd433 2.327 1_554 S
O457 C442 1.257 . S
O458 Gd433 2.377 . S
O458 C443 1.240 . S
O459 Gd432 2.395 1_656 S
O459 C443 1.240 . S
O460 Gd433 2.448 . S
O460 C444 1.249 . S
O461 Gd433 2.506 . S
O461 C444 1.252 . S
O462 Gd433 2.435 1_455 S
O462 C451 1.256 . S
O463 Gd432 2.327 1_556 S
O463 Gd433 2.717 1_455 S
O463 C451 1.257 . S
H464 C437 0.930 . S
H465 C438 0.931 . S
H466 C440 0.931 . S
H467 C441 0.931 . S
H468 C446 0.930 . S
H469 C447 0.931 . S
H470 C449 0.931 . S
H471 C450 0.931 . S
H472 C480 0.950 . S
H473 C485 0.950 . S
H474 C482 0.950 . S
H475 C484 0.950 . S
H476 C486 0.950 . S
H477 C488 0.950 . S
H478 C490 0.950 . S
H479 C491 0.950 . S
C480 H472 0.950 . S
C480 C481 1.386 . S
C480 C482 1.391 . S
C481 C480 1.386 . S
C481 C485 1.393 . S
C482 H474 0.950 . S
C482 C480 1.391 . S
C482 C483 1.400 . S
C483 C482 1.400 . S
C483 C484 1.398 . S
C483 C489 1.491 . S
C484 H475 0.950 . S
C484 C483 1.398 . S
C484 C485 1.391 . S
C485 H473 0.950 . S
C485 C481 1.393 . S
C485 C484 1.391 . S
C486 H476 0.950 . S
C486 C487 1.386 . S
C486 C488 1.391 . S
C487 C486 1.386 . S
C487 C491 1.393 . S
C488 H477 0.950 . S
C488 C486 1.391 . S
C488 C489 1.400 . S
C489 C483 1.491 . S
C489 C488 1.400 . S
C489 C490 1.398 . S
C490 H478 0.950 . S
C490 C489 1.398 . S
C490 C491 1.391 . S
C491 H479 0.950 . S
C491 C487 1.393 . S
C491 C490 1.391 . S
H492 C500 0.950 . S
H493 C505 0.950 . S
H494 C502 0.950 . S
H495 C504 0.950 . S
H496 C506 0.950 . S
H497 C508 0.950 . S
H498 C510 0.950 . S
H499 C511 0.950 . S
C500 H492 0.950 . S
C500 C501 1.386 . S
C500 C502 1.391 . S
C501 C500 1.386 . S
C501 C505 1.393 . S
C502 H494 0.950 . S
C502 C500 1.391 . S
C502 C503 1.400 . S
C503 C502 1.400 . S
C503 C504 1.398 . S
C503 C509 1.491 . S
C504 H495 0.950 . S
C504 C503 1.398 . S
C504 C505 1.391 . S
C505 H493 0.950 . S
C505 C501 1.393 . S
C505 C504 1.391 . S
C506 H496 0.950 . S
C506 C507 1.386 . S
C506 C508 1.391 . S
C507 C506 1.386 . S
C507 C511 1.393 . S
C508 H497 0.950 . S
C508 C506 1.391 . S
C508 C509 1.400 . S
C509 C503 1.491 . S
C509 C508 1.400 . S
C509 C510 1.398 . S
C510 H498 0.950 . S
C510 C509 1.398 . S
C510 C511 1.391 . S
C511 H499 0.950 . S
C511 C507 1.393 . S
C511 C510 1.391 . S
H512 C520 0.950 . S
H513 C525 0.950 . S
H514 C522 0.950 . S
H515 C524 0.950 . S
H516 C526 0.950 . S
H517 C528 0.950 . S
H518 C530 0.950 . S
H519 C531 0.950 . S
C520 H512 0.950 . S
C520 C521 1.386 . S
C520 C522 1.391 . S
C521 C520 1.386 . S
C521 C525 1.393 . S
C522 H514 0.950 . S
C522 C520 1.391 . S
C522 C523 1.400 . S
C523 C522 1.400 . S
C523 C524 1.398 . S
C523 C529 1.491 . S
C524 H515 0.950 . S
C524 C523 1.398 . S
C524 C525 1.391 . S
C525 H513 0.950 . S
C525 C521 1.393 . S
C525 C524 1.391 . S
C526 H516 0.950 . S
C526 C527 1.386 . S
C526 C528 1.391 . S
C527 C526 1.386 . S
C527 C531 1.393 . S
C528 H517 0.950 . S
C528 C526 1.391 . S
C528 C529 1.400 . S
C529 C523 1.491 . S
C529 C528 1.400 . S
C529 C530 1.398 . S
C530 H518 0.950 . S
C530 C529 1.398 . S
C530 C531 1.391 . S
C531 H519 0.950 . S
C531 C527 1.393 . S
C531 C530 1.391 . S
H532 C540 0.950 . S
H533 C545 0.950 . S
H534 C542 0.950 . S
H535 C544 0.950 . S
H536 C546 0.950 . S
H537 C548 0.950 . S
H538 C550 0.950 . S
H539 C551 0.950 . S
C540 H532 0.950 . S
C540 C541 1.386 . S
C540 C542 1.391 . S
C541 C540 1.386 . S
C541 C545 1.393 . S
C542 H534 0.950 . S
C542 C540 1.391 . S
C542 C543 1.400 . S
C543 C542 1.400 . S
C543 C544 1.398 . S
C543 C549 1.491 . S
C544 H535 0.950 . S
C544 C543 1.398 . S
C544 C545 1.391 . S
C545 H533 0.950 . S
C545 C541 1.393 . S
C545 C544 1.391 . S
C546 H536 0.950 . S
C546 C547 1.386 . S
C546 C548 1.391 . S
C547 C546 1.386 . S
C547 C551 1.393 . S
C548 H537 0.950 . S
C548 C546 1.391 . S
C548 C549 1.400 . S
C549 C543 1.491 . S
C549 C548 1.400 . S
C549 C550 1.398 . S
C550 H538 0.950 . S
C550 C549 1.398 . S
C550 C551 1.391 . S
C551 H539 0.950 . S
C551 C547 1.393 . S
C551 C550 1.391 . S
H552 C560 0.950 . S
H553 C565 0.950 . S
H554 C562 0.950 . S
H555 C564 0.950 . S
H556 C566 0.950 . S
H557 C568 0.950 . S
H558 C570 0.950 . S
H559 C571 0.950 . S
C560 H552 0.950 . S
C560 C561 1.386 . S
C560 C562 1.391 . S
C561 C560 1.386 . S
C561 C565 1.393 . S
C562 H554 0.950 . S
C562 C560 1.391 . S
C562 C563 1.400 . S
C563 C562 1.400 . S
C563 C564 1.398 . S
C563 C569 1.491 . S
C564 H555 0.950 . S
C564 C563 1.398 . S
C564 C565 1.391 . S
C565 H553 0.950 . S
C565 C561 1.393 . S
C565 C564 1.391 . S
C566 H556 0.950 . S
C566 C567 1.386 . S
C566 C568 1.391 . S
C567 C566 1.386 . S
C567 C571 1.393 . S
C568 H557 0.950 . S
C568 C566 1.391 . S
C568 C569 1.400 . S
C569 C563 1.491 . S
C569 C568 1.400 . S
C569 C570 1.398 . S
C570 H558 0.950 . S
C570 C569 1.398 . S
C570 C571 1.391 . S
C571 H559 0.950 . S
C571 C567 1.393 . S
C571 C570 1.391 . S
H572 C580 0.950 . S
H573 C585 0.950 . S
H574 C582 0.950 . S
H575 C584 0.950 . S
H576 C586 0.950 . S
H577 C588 0.950 . S
H578 C590 0.950 . S
H579 C591 0.950 . S
C580 H572 0.950 . S
C580 C581 1.386 . S
C580 C582 1.391 . S
C581 C580 1.386 . S
C581 C585 1.393 . S
C582 H574 0.950 . S
C582 C580 1.391 . S
C582 C583 1.400 . S
C583 C582 1.400 . S
C583 C584 1.398 . S
C583 C589 1.491 . S
C584 H575 0.950 . S
C584 C583 1.398 . S
C584 C585 1.391 . S
C585 H573 0.950 . S
C585 C581 1.393 . S
C585 C584 1.391 . S
C586 H576 0.950 . S
C586 C587 1.386 . S
C586 C588 1.391 . S
C587 C586 1.386 . S
C587 C591 1.393 . S
C588 H577 0.950 . S
C588 C586 1.391 . S
C588 C589 1.400 . S
C589 C583 1.491 . S
C589 C588 1.400 . S
C589 C590 1.398 . S
C590 H578 0.950 . S
C590 C589 1.398 . S
C590 C591 1.391 . S
C591 H579 0.950 . S
C591 C587 1.393 . S
C591 C590 1.391 . S
H592 C600 0.950 . S
H593 C605 0.950 . S
H594 C602 0.950 . S
H595 C604 0.950 . S
H596 C606 0.950 . S
H597 C608 0.950 . S
H598 C610 0.950 . S
H599 C611 0.950 . S
C600 H592 0.950 . S
C600 C601 1.386 . S
C600 C602 1.391 . S
C601 C600 1.386 . S
C601 C605 1.393 . S
C602 H594 0.950 . S
C602 C600 1.391 . S
C602 C603 1.400 . S
C603 C602 1.400 . S
C603 C604 1.398 . S
C603 C609 1.491 . S
C604 H595 0.950 . S
C604 C603 1.398 . S
C604 C605 1.391 . S
C605 H593 0.950 . S
C605 C601 1.393 . S
C605 C604 1.391 . S
C606 H596 0.950 . S
C606 C607 1.386 . S
C606 C608 1.391 . S
C607 C606 1.386 . S
C607 C611 1.393 . S
C608 H597 0.950 . S
C608 C606 1.391 . S
C608 C609 1.400 . S
C609 C603 1.491 . S
C609 C608 1.400 . S
C609 C610 1.398 . S
C610 H598 0.950 . S
C610 C609 1.398 . S
C610 C611 1.391 . S
C611 H599 0.950 . S
C611 C607 1.393 . S
C611 C610 1.391 . S
H612 C620 0.950 . S
H613 C625 0.950 . S
H614 C622 0.950 . S
H615 C624 0.950 . S
H616 C626 0.950 . S
H617 C628 0.950 . S
H618 C630 0.950 . S
H619 C631 0.950 . S
C620 H612 0.950 . S
C620 C621 1.386 . S
C620 C622 1.391 . S
C621 C620 1.386 . S
C621 C625 1.393 . S
C622 H614 0.950 . S
C622 C620 1.391 . S
C622 C623 1.400 . S
C623 C622 1.400 . S
C623 C624 1.398 . S
C623 C629 1.491 . S
C624 H615 0.950 . S
C624 C623 1.398 . S
C624 C625 1.391 . S
C625 H613 0.950 . S
C625 C621 1.393 . S
C625 C624 1.391 . S
C626 H616 0.950 . S
C626 C627 1.386 . S
C626 C628 1.391 . S
C627 C626 1.386 . S
C627 C631 1.393 . S
C628 H617 0.950 . S
C628 C626 1.391 . S
C628 C629 1.400 . S
C629 C623 1.491 . S
C629 C628 1.400 . S
C629 C630 1.398 . S
C630 H618 0.950 . S
C630 C629 1.398 . S
C630 C631 1.391 . S
C631 H619 0.950 . S
C631 C627 1.393 . S
C631 C630 1.391 . S
H632 C640 0.950 . S
H633 C645 0.950 . S
H634 C642 0.950 . S
H635 C644 0.950 . S
H636 C646 0.950 . S
H637 C648 0.950 . S
H638 C650 0.950 . S
H639 C651 0.950 . S
C640 H632 0.950 . S
C640 C641 1.386 . S
C640 C642 1.391 . S
C641 C640 1.386 . S
C641 C645 1.393 . S
C642 H634 0.950 . S
C642 C640 1.391 . S
C642 C643 1.400 . S
C643 C642 1.400 . S
C643 C644 1.398 . S
C643 C649 1.491 . S
C644 H635 0.950 . S
C644 C643 1.398 . S
C644 C645 1.391 . S
C645 H633 0.950 . S
C645 C641 1.393 . S
C645 C644 1.391 . S
C646 H636 0.950 . S
C646 C647 1.386 . S
C646 C648 1.391 . S
C647 C646 1.386 . S
C647 C651 1.393 . S
C648 H637 0.950 . S
C648 C646 1.391 . S
C648 C649 1.400 . S
C649 C643 1.491 . S
C649 C648 1.400 . S
C649 C650 1.398 . S
C650 H638 0.950 . S
C650 C649 1.398 . S
C650 C651 1.391 . S
C651 H639 0.950 . S
C651 C647 1.393 . S
C651 C650 1.391 . S
H652 C660 0.950 . S
H653 C665 0.950 . S
H654 C662 0.950 . S
H655 C664 0.950 . S
H656 C666 0.950 . S
H657 C668 0.950 . S
H658 C670 0.950 . S
H659 C671 0.950 . S
C660 H652 0.950 . S
C660 C661 1.386 . S
C660 C662 1.391 . S
C661 C660 1.386 . S
C661 C665 1.393 . S
C662 H654 0.950 . S
C662 C660 1.391 . S
C662 C663 1.400 . S
C663 C662 1.400 . S
C663 C664 1.398 . S
C663 C669 1.491 . S
C664 H655 0.950 . S
C664 C663 1.398 . S
C664 C665 1.391 . S
C665 H653 0.950 . S
C665 C661 1.393 . S
C665 C664 1.391 . S
C666 H656 0.950 . S
C666 C667 1.386 . S
C666 C668 1.391 . S
C667 C666 1.386 . S
C667 C671 1.393 . S
C668 H657 0.950 . S
C668 C666 1.391 . S
C668 C669 1.400 . S
C669 C663 1.491 . S
C669 C668 1.400 . S
C669 C670 1.398 . S
C670 H658 0.950 . S
C670 C669 1.398 . S
C670 C671 1.391 . S
C671 H659 0.950 . S
C671 C667 1.393 . S
C671 C670 1.391 . S
H672 C680 0.950 . S
H673 C685 0.950 . S
H674 C682 0.950 . S
H675 C684 0.950 . S
H676 C686 0.950 . S
H677 C688 0.950 . S
H678 C690 0.950 . S
H679 C691 0.950 . S
C680 H672 0.950 . S
C680 C681 1.386 . S
C680 C682 1.391 . S
C681 C680 1.386 . S
C681 C685 1.393 . S
C682 H674 0.950 . S
C682 C680 1.391 . S
C682 C683 1.400 . S
C683 C682 1.400 . S
C683 C684 1.398 . S
C683 C689 1.491 . S
C684 H675 0.950 . S
C684 C683 1.398 . S
C684 C685 1.391 . S
C685 H673 0.950 . S
C685 C681 1.393 . S
C685 C684 1.391 . S
C686 H676 0.950 . S
C686 C687 1.386 . S
C686 C688 1.391 . S
C687 C686 1.386 . S
C687 C691 1.393 . S
C688 H677 0.950 . S
C688 C686 1.391 . S
C688 C689 1.400 . S
C689 C683 1.491 . S
C689 C688 1.400 . S
C689 C690 1.398 . S
C690 H678 0.950 . S
C690 C689 1.398 . S
C690 C691 1.391 . S
C691 H679 0.950 . S
C691 C687 1.393 . S
C691 C690 1.391 . S
H692 C700 0.950 . S
H693 C705 0.950 . S
H694 C702 0.950 . S
H695 C704 0.950 . S
H696 C706 0.950 . S
H697 C708 0.950 . S
H698 C710 0.950 . S
H699 C711 0.950 . S
C700 H692 0.950 . S
C700 C701 1.386 . S
C700 C702 1.391 . S
C701 C700 1.386 . S
C701 C705 1.393 . S
C702 H694 0.950 . S
C702 C700 1.391 . S
C702 C703 1.400 . S
C703 C702 1.400 . S
C703 C704 1.398 . S
C703 C709 1.491 . S
C704 H695 0.950 . S
C704 C703 1.398 . S
C704 C705 1.391 . S
C705 H693 0.950 . S
C705 C701 1.393 . S
C705 C704 1.391 . S
C706 H696 0.950 . S
C706 C707 1.386 . S
C706 C708 1.391 . S
C707 C706 1.386 . S
C707 C711 1.393 . S
C708 H697 0.950 . S
C708 C706 1.391 . S
C708 C709 1.400 . S
C709 C703 1.491 . S
C709 C708 1.400 . S
C709 C710 1.398 . S
C710 H698 0.950 . S
C710 C709 1.398 . S
C710 C711 1.391 . S
C711 H699 0.950 . S
C711 C707 1.393 . S
C711 C710 1.391 . S
H712 C720 0.950 . S
H713 C725 0.950 . S
H714 C722 0.950 . S
H715 C724 0.950 . S
H716 C726 0.950 . S
H717 C728 0.950 . S
H718 C730 0.950 . S
H719 C731 0.950 . S
C720 H712 0.950 . S
C720 C721 1.386 . S
C720 C722 1.391 . S
C721 C720 1.386 . S
C721 C725 1.393 . S
C722 H714 0.950 . S
C722 C720 1.391 . S
C722 C723 1.400 . S
C723 C722 1.400 . S
C723 C724 1.398 . S
C723 C729 1.491 . S
C724 H715 0.950 . S
C724 C723 1.398 . S
C724 C725 1.391 . S
C725 H713 0.950 . S
C725 C721 1.393 . S
C725 C724 1.391 . S
C726 H716 0.950 . S
C726 C727 1.386 . S
C726 C728 1.391 . S
C727 C726 1.386 . S
C727 C731 1.393 . S
C728 H717 0.950 . S
C728 C726 1.391 . S
C728 C729 1.400 . S
C729 C723 1.491 . S
C729 C728 1.400 . S
C729 C730 1.398 . S
C730 H718 0.950 . S
C730 C729 1.398 . S
C730 C731 1.391 . S
C731 H719 0.950 . S
C731 C727 1.393 . S
C731 C730 1.391 . S
H732 C740 0.950 . S
H733 C745 0.950 . S
H734 C742 0.950 . S
H735 C744 0.950 . S
H736 C746 0.950 . S
H737 C748 0.950 . S
H738 C750 0.950 . S
H739 C751 0.950 . S
C740 H732 0.950 . S
C740 C741 1.386 . S
C740 C742 1.391 . S
C741 C740 1.386 . S
C741 C745 1.393 . S
C742 H734 0.950 . S
C742 C740 1.391 . S
C742 C743 1.400 . S
C743 C742 1.400 . S
C743 C744 1.398 . S
C743 C749 1.491 . S
C744 H735 0.950 . S
C744 C743 1.398 . S
C744 C745 1.391 . S
C745 H733 0.950 . S
C745 C741 1.393 . S
C745 C744 1.391 . S
C746 H736 0.950 . S
C746 C747 1.386 . S
C746 C748 1.391 . S
C747 C746 1.386 . S
C747 C751 1.393 . S
C748 H737 0.950 . S
C748 C746 1.391 . S
C748 C749 1.400 . S
C749 C743 1.491 . S
C749 C748 1.400 . S
C749 C750 1.398 . S
C750 H738 0.950 . S
C750 C749 1.398 . S
C750 C751 1.391 . S
C751 H739 0.950 . S
C751 C747 1.393 . S
C751 C750 1.391 . S
H752 C760 0.950 . S
H753 C765 0.950 . S
H754 C762 0.950 . S
H755 C764 0.950 . S
H756 C766 0.950 . S
H757 C768 0.950 . S
H758 C770 0.950 . S
H759 C771 0.950 . S
C760 H752 0.950 . S
C760 C761 1.386 . S
C760 C762 1.391 . S
C761 C760 1.386 . S
C761 C765 1.393 . S
C762 H754 0.950 . S
C762 C760 1.391 . S
C762 C763 1.400 . S
C763 C762 1.400 . S
C763 C764 1.398 . S
C763 C769 1.491 . S
C764 H755 0.950 . S
C764 C763 1.398 . S
C764 C765 1.391 . S
C765 H753 0.950 . S
C765 C761 1.393 . S
C765 C764 1.391 . S
C766 H756 0.950 . S
C766 C767 1.386 . S
C766 C768 1.391 . S
C767 C766 1.386 . S
C767 C771 1.393 . S
C768 H757 0.950 . S
C768 C766 1.391 . S
C768 C769 1.400 . S
C769 C763 1.491 . S
C769 C768 1.400 . S
C769 C770 1.398 . S
C770 H758 0.950 . S
C770 C769 1.398 . S
C770 C771 1.391 . S
C771 H759 0.950 . S
C771 C767 1.393 . S
C771 C770 1.391 . S
H772 C780 0.950 . S
H773 C785 0.950 . S
H774 C782 0.950 . S
H775 C784 0.950 . S
H776 C786 0.950 . S
H777 C788 0.950 . S
H778 C790 0.950 . S
H779 C791 0.950 . S
C780 H772 0.950 . S
C780 C781 1.386 . S
C780 C782 1.391 . S
C781 C780 1.386 . S
C781 C785 1.393 . S
C782 H774 0.950 . S
C782 C780 1.391 . S
C782 C783 1.400 . S
C783 C782 1.400 . S
C783 C784 1.398 . S
C783 C789 1.491 . S
C784 H775 0.950 . S
C784 C783 1.398 . S
C784 C785 1.391 . S
C785 H773 0.950 . S
C785 C781 1.393 . S
C785 C784 1.391 . S
C786 H776 0.950 . S
C786 C787 1.386 . S
C786 C788 1.391 . S
C787 C786 1.386 . S
C787 C791 1.393 . S
C788 H777 0.950 . S
C788 C786 1.391 . S
C788 C789 1.400 . S
C789 C783 1.491 . S
C789 C788 1.400 . S
C789 C790 1.398 . S
C790 H778 0.950 . S
C790 C789 1.398 . S
C790 C791 1.391 . S
C791 H779 0.950 . S
C791 C787 1.393 . S
C791 C790 1.391 . S
H792 C800 0.950 . S
H793 C805 0.950 . S
H794 C802 0.950 . S
H795 C804 0.950 . S
H796 C806 0.950 . S
H797 C808 0.950 . S
H798 C810 0.950 . S
H799 C811 0.950 . S
C800 H792 0.950 . S
C800 C801 1.386 . S
C800 C802 1.391 . S
C801 C800 1.386 . S
C801 C805 1.393 . S
C802 H794 0.950 . S
C802 C800 1.391 . S
C802 C803 1.400 . S
C803 C802 1.400 . S
C803 C804 1.398 . S
C803 C809 1.491 . S
C804 H795 0.950 . S
C804 C803 1.398 . S
C804 C805 1.391 . S
C805 H793 0.950 . S
C805 C801 1.393 . S
C805 C804 1.391 . S
C806 H796 0.950 . S
C806 C807 1.386 . S
C806 C808 1.391 . S
C807 C806 1.386 . S
C807 C811 1.393 . S
C808 H797 0.950 . S
C808 C806 1.391 . S
C808 C809 1.400 . S
C809 C803 1.491 . S
C809 C808 1.400 . S
C809 C810 1.398 . S
C810 H798 0.950 . S
C810 C809 1.398 . S
C810 C811 1.391 . S
C811 H799 0.950 . S
C811 C807 1.393 . S
C811 C810 1.391 . S
H812 C820 0.950 . S
H813 C825 0.950 . S
H814 C822 0.950 . S
H815 C824 0.950 . S
H816 C826 0.950 . S
H817 C828 0.950 . S
H818 C830 0.950 . S
H819 C831 0.950 . S
C820 H812 0.950 . S
C820 C821 1.386 . S
C820 C822 1.391 . S
C821 C820 1.386 . S
C821 C825 1.393 . S
C822 H814 0.950 . S
C822 C820 1.391 . S
C822 C823 1.400 . S
C823 C822 1.400 . S
C823 C824 1.398 . S
C823 C829 1.491 . S
C824 H815 0.950 . S
C824 C823 1.398 . S
C824 C825 1.391 . S
C825 H813 0.950 . S
C825 C821 1.393 . S
C825 C824 1.391 . S
C826 H816 0.950 . S
C826 C827 1.386 . S
C826 C828 1.391 . S
C827 C826 1.386 . S
C827 C831 1.393 . S
C828 H817 0.950 . S
C828 C826 1.391 . S
C828 C829 1.400 . S
C829 C823 1.491 . S
C829 C828 1.400 . S
C829 C830 1.398 . S
C830 H818 0.950 . S
C830 C829 1.398 . S
C830 C831 1.391 . S
C831 H819 0.950 . S
C831 C827 1.393 . S
C831 C830 1.391 . S
H832 C840 0.950 . S
H833 C845 0.950 . S
H834 C842 0.950 . S
H835 C844 0.950 . S
H836 C846 0.950 . S
H837 C848 0.950 . S
H838 C850 0.950 . S
H839 C851 0.950 . S
C840 H832 0.950 . S
C840 C841 1.386 . S
C840 C842 1.391 . S
C841 C840 1.386 . S
C841 C845 1.393 . S
C842 H834 0.950 . S
C842 C840 1.391 . S
C842 C843 1.400 . S
C843 C842 1.400 . S
C843 C844 1.398 . S
C843 C849 1.491 . S
C844 H835 0.950 . S
C844 C843 1.398 . S
C844 C845 1.391 . S
C845 H833 0.950 . S
C845 C841 1.393 . S
C845 C844 1.391 . S
C846 H836 0.950 . S
C846 C847 1.386 . S
C846 C848 1.391 . S
C847 C846 1.386 . S
C847 C851 1.393 . S
C848 H837 0.950 . S
C848 C846 1.391 . S
C848 C849 1.400 . S
C849 C843 1.491 . S
C849 C848 1.400 . S
C849 C850 1.398 . S
C850 H838 0.950 . S
C850 C849 1.398 . S
C850 C851 1.391 . S
C851 H839 0.950 . S
C851 C847 1.393 . S
C851 C850 1.391 . S
H852 C860 0.950 . S
H853 C865 0.950 . S
H854 C862 0.950 . S
H855 C864 0.950 . S
H856 C866 0.950 . S
H857 C868 0.950 . S
H858 C870 0.950 . S
H859 C871 0.950 . S
C860 H852 0.950 . S
C860 C861 1.386 . S
C860 C862 1.391 . S
C861 C860 1.386 . S
C861 C865 1.393 . S
C862 H854 0.950 . S
C862 C860 1.391 . S
C862 C863 1.400 . S
C863 C862 1.400 . S
C863 C864 1.398 . S
C863 C869 1.491 . S
C864 H855 0.950 . S
C864 C863 1.398 . S
C864 C865 1.391 . S
C865 H853 0.950 . S
C865 C861 1.393 . S
C865 C864 1.391 . S
C866 H856 0.950 . S
C866 C867 1.386 . S
C866 C868 1.391 . S
C867 C866 1.386 . S
C867 C871 1.393 . S
C868 H857 0.950 . S
C868 C866 1.391 . S
C868 C869 1.400 . S
C869 C863 1.491 . S
C869 C868 1.400 . S
C869 C870 1.398 . S
C870 H858 0.950 . S
C870 C869 1.398 . S
C870 C871 1.391 . S
C871 H859 0.950 . S
C871 C867 1.393 . S
C871 C870 1.391 . S
H872 C880 0.950 . S
H873 C885 0.950 . S
H874 C882 0.950 . S
H875 C884 0.950 . S
H876 C886 0.950 . S
H877 C888 0.950 . S
H878 C890 0.950 . S
H879 C891 0.950 . S
C880 H872 0.950 . S
C880 C881 1.386 . S
C880 C882 1.391 . S
C881 C880 1.386 . S
C881 C885 1.393 . S
C882 H874 0.950 . S
C882 C880 1.391 . S
C882 C883 1.400 . S
C883 C882 1.400 . S
C883 C884 1.398 . S
C883 C889 1.491 . S
C884 H875 0.950 . S
C884 C883 1.398 . S
C884 C885 1.391 . S
C885 H873 0.950 . S
C885 C881 1.393 . S
C885 C884 1.391 . S
C886 H876 0.950 . S
C886 C887 1.386 . S
C886 C888 1.391 . S
C887 C886 1.386 . S
C887 C891 1.393 . S
C888 H877 0.950 . S
C888 C886 1.391 . S
C888 C889 1.400 . S
C889 C883 1.491 . S
C889 C888 1.400 . S
C889 C890 1.398 . S
C890 H878 0.950 . S
C890 C889 1.398 . S
C890 C891 1.391 . S
C891 H879 0.950 . S
C891 C887 1.393 . S
C891 C890 1.391 . S
H892 C900 0.950 . S
H893 C905 0.950 . S
H894 C902 0.950 . S
H895 C904 0.950 . S
H896 C906 0.950 . S
H897 C908 0.950 . S
H898 C910 0.950 . S
H899 C911 0.950 . S
C900 H892 0.950 . S
C900 C901 1.386 . S
C900 C902 1.391 . S
C901 C900 1.386 . S
C901 C905 1.393 . S
C902 H894 0.950 . S
C902 C900 1.391 . S
C902 C903 1.400 . S
C903 C902 1.400 . S
C903 C904 1.398 . S
C903 C909 1.491 . S
C904 H895 0.950 . S
C904 C903 1.398 . S
C904 C905 1.391 . S
C905 H893 0.950 . S
C905 C901 1.393 . S
C905 C904 1.391 . S
C906 H896 0.950 . S
C906 C907 1.386 . S
C906 C908 1.391 . S
C907 C906 1.386 . S
C907 C911 1.393 . S
C908 H897 0.950 . S
C908 C906 1.391 . S
C908 C909 1.400 . S
C909 C903 1.491 . S
C909 C908 1.400 . S
C909 C910 1.398 . S
C910 H898 0.950 . S
C910 C909 1.398 . S
C910 C911 1.391 . S
C911 H899 0.950 . S
C911 C907 1.393 . S
C911 C910 1.391 . S
H912 C920 0.950 . S
H913 C925 0.950 . S
H914 C922 0.950 . S
H915 C924 0.950 . S
H916 C926 0.950 . S
H917 C928 0.950 . S
H918 C930 0.950 . S
H919 C931 0.950 . S
C920 H912 0.950 . S
C920 C921 1.386 . S
C920 C922 1.391 . S
C921 C920 1.386 . S
C921 C925 1.393 . S
C922 H914 0.950 . S
C922 C920 1.391 . S
C922 C923 1.400 . S
C923 C922 1.400 . S
C923 C924 1.398 . S
C923 C929 1.491 . S
C924 H915 0.950 . S
C924 C923 1.398 . S
C924 C925 1.391 . S
C925 H913 0.950 . S
C925 C921 1.393 . S
C925 C924 1.391 . S
C926 H916 0.950 . S
C926 C927 1.386 . S
C926 C928 1.391 . S
C927 C926 1.386 . S
C927 C931 1.393 . S
C928 H917 0.950 . S
C928 C926 1.391 . S
C928 C929 1.400 . S
C929 C923 1.491 . S
C929 C928 1.400 . S
C929 C930 1.398 . S
C930 H918 0.950 . S
C930 C929 1.398 . S
C930 C931 1.391 . S
C931 H919 0.950 . S
C931 C927 1.393 . S
C931 C930 1.391 . S
H932 C940 0.950 . S
H933 C945 0.950 . S
H934 C942 0.950 . S
H935 C944 0.950 . S
H936 C946 0.950 . S
H937 C948 0.950 . S
H938 C950 0.950 . S
H939 C951 0.950 . S
C940 H932 0.950 . S
C940 C941 1.386 . S
C940 C942 1.391 . S
C941 C940 1.386 . S
C941 C945 1.393 . S
C942 H934 0.950 . S
C942 C940 1.391 . S
C942 C943 1.400 . S
C943 C942 1.400 . S
C943 C944 1.398 . S
C943 C949 1.491 . S
C944 H935 0.950 . S
C944 C943 1.398 . S
C944 C945 1.391 . S
C945 H933 0.950 . S
C945 C941 1.393 . S
C945 C944 1.391 . S
C946 H936 0.950 . S
C946 C947 1.386 . S
C946 C948 1.391 . S
C947 C946 1.386 . S
C947 C951 1.393 . S
C948 H937 0.950 . S
C948 C946 1.391 . S
C948 C949 1.400 . S
C949 C943 1.491 . S
C949 C948 1.400 . S
C949 C950 1.398 . S
C950 H938 0.950 . S
C950 C949 1.398 . S
C950 C951 1.391 . S
C951 H939 0.950 . S
C951 C947 1.393 . S
C951 C950 1.391 . S
C481 C1 1.236 . S
C487 C319 1.307 . S
C501 C40 0.994 . S
C507 C368 0.990 . S
C527 C394 2.448 . S
C521 C99 2.474 . S
C541 C118 2.367 . S
C547 C442 2.308 . S
C567 C354 2.514 . S
C561 C16 2.386 . S
C587 C322 0.869 . S
C581 C60 0.899 . S
C607 C443 1.895 . S
C601 C79 1.929 . S
C627 C411 1.548 . S
C621 C138 1.562 . S
C641 C21 1.712 . S
C647 C439 1.780 . S
C667 C371 2.327 . S
C661 C94 2.400 . S
C681 C133 2.314 . S
C687 C323 2.310 . S
C701 C55 0.878 . S
C707 C408 0.874 . S
C727 C328 1.323 . S
C721 C157 1.279 . S
C741 C196 0.988 . S
C747 C359 0.981 . S
C761 C255 2.473 . S
C767 C403 2.444 . S
C781 C289 2.362 . S
C787 C451 2.305 . S
C801 C172 2.394 . S
C807 C363 2.514 . S
C827 C331 0.887 . S
C821 C216 0.897 . S
C847 C434 1.893 . S
C841 C235 1.931 . S
C867 C402 1.536 . S
C861 C294 1.565 . S
C881 C177 1.717 . S
C887 C448 1.781 . S
C907 C362 2.322 . S
C901 C250 2.401 . S
C927 C314 2.310 . S
C921 C274 2.318 . S
C941 C211 0.861 . S
C947 C399 0.873 . S
