# Generated by pormake.
# Topology zzz, (3,6)-cn, num edge types: 1
# Building blocks:
#     Node 0, Type 0, BuildingBlock: QEWDON_clean_linker_0, # of connection points: 3
#     Node 1, Type 0, BuildingBlock: QEWDON_clean_linker_0, # of connection points: 3
#     Node 2, Type 0, BuildingBlock: QEWDON_clean_linker_0, # of connection points: 3
#     Node 3, Type 0, BuildingBlock: QEWDON_clean_linker_0, # of connection points: 3
#     Node 4, Type 0, BuildingBlock: QEWDON_clean_linker_0, # of connection points: 3
#     Node 5, Type 0, BuildingBlock: QEWDON_clean_linker_0, # of connection points: 3
#     Node 6, Type 0, BuildingBlock: QEWDON_clean_linker_0, # of connection points: 3
#     Node 7, Type 0, BuildingBlock: QEWDON_clean_linker_0, # of connection points: 3
#     Node 8, Type 1, BuildingBlock: INOVEN_clean_sbu_0, # of connection points: 6
#     Node 9, Type 1, BuildingBlock: INOVEN_clean_sbu_0, # of connection points: 6
#     Node 10, Type 1, BuildingBlock: INOVEN_clean_sbu_0, # of connection points: 6
#     Node 11, Type 1, BuildingBlock: INOVEN_clean_sbu_0, # of connection points: 6
#     Edge 12, Type (0, 1), BuildingBlock: MIFKUJ_clean_linker_0, # of connection points: 2
#     Edge 13, Type (0, 1), BuildingBlock: MIFKUJ_clean_linker_0, # of connection points: 2
#     Edge 14, Type (0, 1), BuildingBlock: MIFKUJ_clean_linker_0, # of connection points: 2
#     Edge 15, Type (0, 1), BuildingBlock: MIFKUJ_clean_linker_0, # of connection points: 2
#     Edge 16, Type (0, 1), BuildingBlock: MIFKUJ_clean_linker_0, # of connection points: 2
#     Edge 17, Type (0, 1), BuildingBlock: MIFKUJ_clean_linker_0, # of connection points: 2
#     Edge 18, Type (0, 1), BuildingBlock: MIFKUJ_clean_linker_0, # of connection points: 2
#     Edge 19, Type (0, 1), BuildingBlock: MIFKUJ_clean_linker_0, # of connection points: 2
#     Edge 20, Type (0, 1), BuildingBlock: MIFKUJ_clean_linker_0, # of connection points: 2
#     Edge 21, Type (0, 1), BuildingBlock: MIFKUJ_clean_linker_0, # of connection points: 2
#     Edge 22, Type (0, 1), BuildingBlock: MIFKUJ_clean_linker_0, # of connection points: 2
#     Edge 23, Type (0, 1), BuildingBlock: MIFKUJ_clean_linker_0, # of connection points: 2
#     Edge 24, Type (0, 1), BuildingBlock: MIFKUJ_clean_linker_0, # of connection points: 2
#     Edge 25, Type (0, 1), BuildingBlock: MIFKUJ_clean_linker_0, # of connection points: 2
#     Edge 26, Type (0, 1), BuildingBlock: MIFKUJ_clean_linker_0, # of connection points: 2
#     Edge 27, Type (0, 1), BuildingBlock: MIFKUJ_clean_linker_0, # of connection points: 2
#     Edge 28, Type (0, 1), BuildingBlock: MIFKUJ_clean_linker_0, # of connection points: 2
#     Edge 29, Type (0, 1), BuildingBlock: MIFKUJ_clean_linker_0, # of connection points: 2
#     Edge 30, Type (0, 1), BuildingBlock: MIFKUJ_clean_linker_0, # of connection points: 2
#     Edge 31, Type (0, 1), BuildingBlock: MIFKUJ_clean_linker_0, # of connection points: 2
#     Edge 32, Type (0, 1), BuildingBlock: MIFKUJ_clean_linker_0, # of connection points: 2
#     Edge 33, Type (0, 1), BuildingBlock: MIFKUJ_clean_linker_0, # of connection points: 2
#     Edge 34, Type (0, 1), BuildingBlock: MIFKUJ_clean_linker_0, # of connection points: 2
#     Edge 35, Type (0, 1), BuildingBlock: MIFKUJ_clean_linker_0, # of connection points: 2
# Relax obj value: 0.133
# Max RMSD: 0.156
# Mean RMSD: 0.118
data_MOF--net-zzz--node1-INOVEN_clean_sbu_0--node2-QEWDON_clean_linker_0--edge1-MIFKUJ_clean_linker_0
_symmetry_space_group_name_H-M    P1
_symmetry_Int_Tables_number       1
_symmetry_cell_setting            triclinic
loop_
_symmetry_equiv_pos_as_xyz
'x, y, z'
_cell_length_a     72.190683
_cell_length_b     71.999248
_cell_length_c     16.418411
_cell_angle_alpha  89.969378
_cell_angle_beta   90.090551
_cell_angle_gamma 90.222702
loop_
_atom_site_label
_atom_site_type_symbol
_atom_site_fract_x
_atom_site_fract_y
_atom_site_fract_z
_atom_type_partial_charge
H0 H 0.75174 0.53936 0.16882 0.0
C1 C 0.76261 0.53523 0.21045 0.0
C2 C 0.78091 0.53767 0.18585 0.0
C3 C 0.75848 0.52792 0.2882 0.0
H4 H 0.80957 0.53564 0.21845 0.0
C5 C 0.79543 0.53332 0.23869 0.0
C6 C 0.79215 0.52608 0.31635 0.0
C7 C 0.77355 0.52342 0.34128 0.0
C8 C 0.73851 0.52559 0.31321 0.0
H9 H 0.77098 0.51744 0.40069 0.0
C10 C 0.72416 0.52286 0.25472 0.0
C11 C 0.70531 0.5221 0.27792 0.0
C12 C 0.73345 0.527 0.39571 0.0
H13 H 0.7437 0.52958 0.44253 0.0
C14 C 0.71491 0.52576 0.41919 0.0
H15 H 0.72751 0.52113 0.191 0.0
C16 C 0.70097 0.52343 0.36111 0.0
H17 H 0.68671 0.52314 0.3814 0.0
H18 H 0.71129 0.52701 0.48289 0.0
H19 H 0.99345 0.75333 0.16623 0.0
C20 C 0.99771 0.7638 0.20977 0.0
C21 C 0.99354 0.78239 0.19318 0.0
C22 C 1.00665 0.75875 0.283 0.0
H23 H 0.99541 0.81061 0.23629 0.0
C24 C 0.99829 0.79614 0.24981 0.0
C25 C 1.00726 0.79177 0.32254 0.0
C26 C 1.01167 0.77306 0.33896 0.0
C27 C 1.0094 0.73852 0.30252 0.0
H28 H 0.01878 0.76976 0.3952 0.0
C29 C 1.01216 0.72502 0.24051 0.0
C30 C 1.01272 0.70578 0.25889 0.0
C31 C 1.00784 0.73238 0.38354 0.0
H32 H 1.00527 0.74203 0.43268 0.0
C33 C 1.00874 0.71353 0.40233 0.0
H34 H 1.01394 0.72944 0.17802 0.0
C35 C 1.01093 0.70036 0.34095 0.0
H36 H 1.01074 0.68585 0.35812 0.0
H37 H 1.00722 0.70904 0.46492 0.0
H38 H 0.78169 0.02645 0.14174 0.0
C39 C 0.77275 0.02553 0.19448 0.0
C40 C 0.75594 0.03515 0.19315 0.0
C41 C 0.77752 1.01418 0.26142 0.0
H42 H 0.73014 0.0402 0.25448 0.0
C43 C 0.74348 0.03332 0.25782 0.0
C44 C 0.74725 0.02155 0.32331 0.0
C45 C 0.76439 1.01219 0.32579 0.0
C46 C 0.79551 1.00356 0.26073 0.0
H47 H 0.76728 1.00339 0.37766 0.0
C48 C 0.81143 1.01013 0.21815 0.0
C49 C 0.82796 0.99958 0.21536 0.0
C50 C 0.79667 0.98625 0.30031 0.0
H51 H 0.78485 0.98023 0.33105 0.0
C52 C 0.813 0.97598 0.29884 0.0
H53 H 0.81117 0.02349 0.18795 0.0
C54 C 0.82846 0.98251 0.25683 0.0
H55 H 0.8407 0.97387 0.25508 0.0
H56 H 0.81356 0.96266 0.32932 0.0
H57 H 0.54626 0.78126 0.18233 0.0
C58 C 0.54194 0.77066 0.22516 0.0
C59 C 0.54592 0.75209 0.20733 0.0
C60 C 0.53314 0.77553 0.29879 0.0
H61 H 0.54378 0.72374 0.24862 0.0
C62 C 0.54106 0.73818 0.26308 0.0
C63 C 0.53219 0.74239 0.33613 0.0
C64 C 0.52801 0.76108 0.3538 0.0
C65 C 0.5307 0.79568 0.31979 0.0
H66 H 0.52103 0.76429 0.41037 0.0
C67 C 0.52776 0.80941 0.25884 0.0
C68 C 0.52757 0.82859 0.27832 0.0
C69 C 0.53279 0.80153 0.40098 0.0
H70 H 0.53549 0.79167 0.44926 0.0
C71 C 0.53228 0.82033 0.4209 0.0
H72 H 0.52556 0.80517 0.19634 0.0
C73 C 0.52993 0.83372 0.36047 0.0
H74 H 0.53045 0.84817 0.37845 0.0
H75 H 0.53422 0.8246 0.48357 0.0
H76 H 0.27993 0.50854 0.16696 0.0
C77 C 0.27044 0.50823 0.1159 0.0
C78 C 0.25262 0.50097 0.12826 0.0
C79 C 0.27559 0.51612 0.04059 0.0
H80 H 0.22568 0.49657 0.07439 0.0
C81 C 0.23977 0.50133 0.06416 0.0
C82 C 0.24412 0.50948 0.98934 0.0
C83 C 0.26209 0.51677 0.97724 0.0
C84 C 0.29437 0.52514 0.0323 0.0
H85 H 0.26533 0.52301 0.91899 0.0
C86 C 0.30989 0.51907 0.07873 0.0
C87 C 0.32696 0.52884 0.07725 0.0
C88 C 0.29662 0.54086 0.98222 0.0
H89 H 0.28518 0.54642 0.94744 0.0
C90 C 0.31353 0.55024 0.97873 0.0
H91 H 0.30877 0.50673 0.11604 0.0
C92 C 0.32847 0.54446 0.0261 0.0
H93 H 0.34109 0.55262 0.02413 0.0
H94 H 0.31491 0.56243 0.94056 0.0
H95 H 1.01431 0.27688 0.20537 0.0
C96 C 0.01848 0.26676 0.1603 0.0
C97 C 0.01985 0.24812 0.18404 0.0
C98 C 0.02149 0.27216 0.07879 0.0
H99 H 0.0242 0.22009 0.14325 0.0
C100 C 0.02414 0.23461 0.12563 0.0
C101 C 0.02677 0.23926 0.04359 0.0
C102 C 0.02559 0.25812 0.0205 0.0
C103 C 0.0187 0.29214 0.0545 0.0
H104 H 0.02788 0.26171 0.9573 0.0
C105 C 0.02175 0.30701 0.11015 0.0
C106 C 0.01694 0.32545 0.08962 0.0
C107 C 1.01157 0.29643 0.97686 0.0
H108 H 1.00852 0.28565 0.93293 0.0
C109 C 1.00749 0.31471 0.95544 0.0
H110 H 0.02736 0.30431 0.17015 0.0
C111 C 1.00997 0.32907 0.01135 0.0
H112 H 1.00634 0.34308 0.99344 0.0
H113 H 1.00195 0.31772 0.89559 0.0
H114 H 0.25783 0.02733 0.1802 0.0
C115 C 0.26832 0.0278 0.13321 0.0
C116 C 0.28593 0.03423 0.15464 0.0
C117 C 0.26463 0.02095 0.0543 0.0
H118 H 0.31421 0.03751 0.11651 0.0
C119 C 0.30035 0.0334 0.09792 0.0
C120 C 0.29767 0.02575 0.02043 0.0
C121 C 0.2796 0.02011 0.99756 0.0
C122 C 0.24574 1.01289 0.03634 0.0
H123 H 0.27752 1.01444 0.93722 0.0
C124 C 0.22968 0.01891 0.07902 0.0
C125 C 0.21247 1.00955 0.0712 0.0
C126 C 0.24382 0.99792 0.98188 0.0
H127 H 0.25559 0.99243 0.94929 0.0
C128 C 0.22675 0.9891 0.97133 0.0
H129 H 0.23053 0.03084 0.11888 0.0
C130 C 0.21133 0.99463 0.01609 0.0
H131 H 0.19863 0.98674 0.009 0.0
H132 H 0.22561 0.97744 0.92998 0.0
H133 H 0.52915 0.25149 0.18607 0.0
C134 C 0.52574 0.26204 0.14171 0.0
C135 C 0.5274 0.2806 0.1656 0.0
C136 C 0.52008 0.25731 0.06184 0.0
H137 H 0.52673 0.30911 0.12712 0.0
C138 C 0.52468 0.29476 0.10874 0.0
C139 C 0.52005 0.29078 0.02802 0.0
C140 C 0.51704 0.2721 0.00523 0.0
C141 C 0.51821 0.23709 0.03791 0.0
H142 H 0.51271 0.26933 0.94337 0.0
C143 C 0.51568 0.2228 0.09703 0.0
C144 C 0.51494 0.20387 0.0745 0.0
C145 C 0.51965 0.23169 0.9556 0.0
H146 H 0.52226 0.24169 0.90788 0.0
C147 C 0.51829 0.21305 0.93297 0.0
H148 H 0.51406 0.22612 0.16079 0.0
C149 C 0.51598 0.19925 0.99167 0.0
H150 H 0.51555 0.18487 0.97238 0.0
H151 H 0.51944 0.20923 0.86942 0.0
Gd152 Gd 0.03043 1.01357 0.73227 0.0
Gd153 Gd 1.01315 0.02354 0.56387 0.0
C154 C 0.01854 0.98034 0.60411 0.0
C155 C 0.03662 0.99733 0.86875 0.0
C156 C 0.03044 0.97857 0.89382 0.0
C157 C 0.04306 0.96378 0.89258 0.0
C158 C 1.0115 0.97468 0.90523 0.0
C159 C 0.01766 0.94158 0.90069 0.0
C160 C 1.00518 0.95637 0.90847 0.0
C161 C 0.03672 0.94544 0.89571 0.0
C162 C 0.05495 0.02288 0.61435 0.0
C163 C 0.02252 0.05654 0.69741 0.0
C164 C 1.00916 0.03679 0.42015 0.0
C165 C 0.99881 0.05342 0.39574 0.0
C166 C 0.98186 0.05758 0.43355 0.0
C167 C 1.00758 0.06699 0.34814 0.0
C168 C 0.98412 0.08949 0.38703 0.0
C169 C 1.00029 0.0849 0.34373 0.0
C170 C 0.97457 0.07545 0.42904 0.0
C171 C 0.98553 0.02116 0.6774 0.0
O172 O 0.02234 0.98537 0.68008 0.0
O173 O 0.01592 0.99272 0.54564 0.0
O174 O 0.04878 0.99765 0.80959 0.0
O175 O 0.02365 1.00987 0.85972 0.0
O176 O 0.05699 0.02715 0.69082 0.0
O177 O 0.04041 1.01326 0.6049 0.0
O178 O 0.01889 0.05184 0.6208 0.0
O179 O 0.02599 0.044 0.75445 0.0
O180 O 0.9993 0.02268 0.44689 0.0
O181 O 0.02377 0.04036 0.46535 0.0
O182 O 0.9828 0.02484 0.6011 0.0
O183 O 1.00266 0.0188 0.68738 0.0
H184 H 0.05773 0.96635 0.88443 0.0
H185 H 1.00137 0.98571 0.90708 0.0
H186 H 0.99041 0.95382 0.91257 0.0
H187 H 0.0467 0.93429 0.89167 0.0
H188 H 0.97483 0.04741 0.47108 0.0
H189 H 0.02077 0.06413 0.31941 0.0
H190 H 1.00808 0.09545 0.31133 0.0
H191 H 0.96193 0.07851 0.46186 0.0
Gd192 Gd 0.52836 0.02369 0.75471 0.0
Gd193 Gd 0.51809 1.00735 0.58234 0.0
C194 C 0.56141 1.01324 0.63031 0.0
C195 C 0.537 0.03306 0.90034 0.0
C196 C 0.55377 0.04319 0.92628 0.0
C197 C 0.55956 0.05918 0.88379 0.0
C198 C 0.56596 0.03482 0.98163 0.0
C199 C 0.59035 0.05636 0.94161 0.0
C200 C 0.58413 0.04132 0.98914 0.0
C201 C 0.57769 0.06575 0.8917 0.0
C202 C 0.52741 0.04824 0.6296 0.0
C203 C 0.48509 1.01498 0.71237 0.0
C204 C 0.50625 1.00519 0.43511 0.0
C205 C 0.48769 1.01021 0.40414 0.0
C206 C 0.47363 0.99666 0.40339 0.0
C207 C 0.48292 0.02891 0.39099 0.0
C208 C 0.45034 0.02073 0.39703 0.0
C209 C 0.46431 0.03415 0.3877 0.0
C210 C 0.45511 1.0019 0.40069 0.0
C211 C 0.52426 0.97934 0.6923 0.0
O212 O 0.55649 1.01512 0.70771 0.0
O213 O 0.54902 1.01207 0.57061 0.0
O214 O 0.52499 0.04244 0.85667 0.0
O215 O 0.5402 1.01639 0.87141 0.0
O216 O 0.53923 0.04897 0.68897 0.0
O217 O 0.51622 0.03496 0.64088 0.0
O218 O 0.4896 1.01289 0.63463 0.0
O219 O 0.49778 0.01723 0.77019 0.0
O220 O 0.50641 0.99099 0.48502 0.0
O221 O 0.51689 0.01889 0.46017 0.0
O222 O 0.52052 0.97651 0.61605 0.0
O223 O 0.52504 0.99657 0.70246 0.0
H224 H 0.55054 0.06589 0.84012 0.0
H225 H 0.56184 0.02244 0.01467 0.0
H226 H 0.59359 0.03404 0.02916 0.0
H227 H 0.58213 0.07734 0.85436 0.0
H228 H 0.47685 0.98209 0.41138 0.0
H229 H 0.49346 0.03962 0.38877 0.0
H230 H 0.46087 0.04875 0.38324 0.0
H231 H 0.44448 0.99128 0.40537 0.0
Gd232 Gd 0.50695 0.52147 0.75092 0.0
Gd233 Gd 0.52512 0.51189 0.59888 0.0
C234 C 0.51884 0.55433 0.62356 0.0
C235 C 0.50028 0.5388 0.88406 0.0
C236 C 0.5075 0.55737 0.90527 0.0
C237 C 0.49516 0.57211 0.91755 0.0
C238 C 0.52657 0.56122 0.89789 0.0
C239 C 0.52058 0.59425 0.9068 0.0
C240 C 0.53302 0.57947 0.89866 0.0
C241 C 0.50165 0.59044 0.91811 0.0
C242 C 0.48245 0.51274 0.63182 0.0
C243 C 0.51362 0.47848 0.72777 0.0
C244 C 0.53424 0.49528 0.46641 0.0
C245 C 0.54175 0.4765 0.45462 0.0
C246 C 0.55637 0.47 0.50347 0.0
C247 C 0.5327 0.46418 0.40177 0.0
C248 C 0.55224 0.43886 0.44918 0.0
C249 C 0.53783 0.44551 0.39927 0.0
C250 C 0.56163 0.45138 0.50037 0.0
C251 C 0.54939 0.52073 0.71938 0.0
O252 O 0.51703 0.54934 0.70073 0.0
O253 O 0.51972 0.54157 0.56629 0.0
O254 O 0.48855 0.53855 0.82331 0.0
O255 O 0.51256 0.52552 0.87936 0.0
O256 O 0.48048 0.50808 0.70778 0.0
O257 O 0.49701 0.52238 0.6229 0.0
O258 O 0.51993 0.48335 0.6551 0.0
O259 O 0.50805 0.49111 0.7804 0.0
O260 O 0.54508 0.50733 0.50272 0.0
O261 O 0.51719 0.49571 0.49327 0.0
O262 O 0.55144 0.5256 0.64386 0.0
O263 O 0.53498 0.51089 0.72667 0.0
H264 H 0.48041 0.56952 0.92234 0.0
H265 H 0.53647 0.55023 0.88677 0.0
H266 H 0.54761 0.58209 0.88846 0.0
H267 H 0.49182 0.60165 0.92524 0.0
H268 H 0.56341 0.47913 0.54588 0.0
H269 H 0.52117 0.46883 0.36475 0.0
H270 H 0.53006 0.4362 0.36021 0.0
H271 H 0.57292 0.44678 0.53879 0.0
Gd272 Gd 1.01164 0.50871 0.75278 0.0
Gd273 Gd 0.02163 0.52426 0.5802 0.0
C274 C 0.97856 0.51914 0.62947 0.0
C275 C 1.00347 0.50407 0.90363 0.0
C276 C 0.98607 0.50955 0.94415 0.0
C277 C 0.97224 0.49615 0.95833 0.0
C278 C 0.98172 0.52846 0.95356 0.0
C279 C 0.94935 0.52055 0.97359 0.0
C280 C 0.96351 0.53389 0.9679 0.0
C281 C 0.95399 0.50161 0.97267 0.0
C282 C 1.01408 0.48332 0.63217 0.0
C283 C 0.05527 0.51571 0.70826 0.0
C284 C 0.03319 0.52504 0.43296 0.0
C285 C 0.05124 0.51822 0.40487 0.0
C286 C 0.06351 0.53069 0.36737 0.0
C287 C 0.05807 0.50133 0.43537 0.0
C288 C 0.08949 0.51123 0.40653 0.0
C289 C 0.07704 0.49785 0.43624 0.0
C290 C 0.08252 0.52724 0.36828 0.0
C291 C 1.01341 0.5529 0.68365 0.0
O292 O 0.9838 0.51884 0.70704 0.0
O293 O 0.99084 0.51869 0.5694 0.0
O294 O 1.00181 0.49077 0.84967 0.0
O295 O 1.01407 0.51767 0.87815 0.0
O296 O 1.00205 0.48248 0.69055 0.0
O297 O 0.02477 0.49708 0.64219 0.0
O298 O 0.05037 0.5207 0.63352 0.0
O299 O 0.04291 0.51065 0.76394 0.0
O300 O 0.03455 0.53935 0.48188 0.0
O301 O 0.02125 0.51249 0.45849 0.0
O302 O 0.01748 0.55521 0.60742 0.0
O303 O 1.01334 0.53574 0.69719 0.0
H304 H 0.97523 0.48149 0.95209 0.0
H305 H 0.99207 0.53918 0.94435 0.0
H306 H 0.96038 0.54858 0.9708 0.0
H307 H 0.94336 0.49101 0.97738 0.0
H308 H 0.05857 0.54385 0.34395 0.0
H309 H 0.04894 0.49154 0.46506 0.0
H310 H 0.082 0.48537 0.46587 0.0
H311 H 0.09183 0.53756 0.343 0.0
H312 H 0.212 0.02226 0.23018 0.0
H313 H 0.18527 0.02736 0.31782 0.0
H314 H 0.14872 1.01154 0.12158 0.0
H315 H 0.17525 1.00786 0.0317 0.0
H316 H 0.13246 0.03703 0.20034 0.0
H317 H 0.16235 0.98101 0.28559 0.0
H318 H 0.18818 0.96133 0.33216 0.0
H319 H 0.19429 0.99497 0.54649 0.0
H320 H 0.16863 1.01499 0.50065 0.0
H321 H 0.05503 1.01138 0.4547 0.0
H322 H 0.08129 1.01135 0.35964 0.0
H323 H 0.1159 0.03658 0.5434 0.0
H324 H 0.08977 0.03671 0.63815 0.0
H325 H 0.13276 1.00665 0.4715 0.0
H326 H 0.10061 0.06168 0.38344 0.0
H327 H 0.07325 0.07901 0.33593 0.0
H328 H 0.06986 0.04432 0.12372 0.0
H329 H 0.09705 0.02658 0.17064 0.0
C330 C 0.19831 0.02027 0.20469 0.0
C331 C 0.19602 1.01437 0.1234 0.0
C332 C 0.18293 0.02291 0.25566 0.0
C333 C 0.16481 0.01932 0.22762 0.0
C334 C 0.16245 1.01423 0.14561 0.0
C335 C 0.17778 1.0119 0.09424 0.0
C336 C 0.14842 0.02035 0.28383 0.0
C337 C 0.13253 0.03019 0.2592 0.0
C338 C 0.1483 1.01164 0.36144 0.0
C339 C 0.1637 0.99961 0.38926 0.0
C340 C 0.16929 0.98428 0.34237 0.0
C341 C 0.18388 0.97306 0.36867 0.0
C342 C 0.1929 0.97693 0.44212 0.0
C343 C 0.18731 0.992 0.48954 0.0
C344 C 0.17274 1.00329 0.46346 0.0
C345 C 0.0682 0.01709 0.47447 0.0
C346 C 0.0703 0.02404 0.55404 0.0
C347 C 0.08321 0.01709 0.42005 0.0
C348 C 0.10065 0.024 0.4441 0.0
C349 C 0.10266 0.03113 0.52328 0.0
C350 C 0.08765 0.03126 0.57735 0.0
C351 C 0.11697 0.02334 0.388 0.0
C352 C 0.13279 1.01353 0.41268 0.0
C353 C 0.11688 0.0318 0.31006 0.0
C354 C 0.10077 0.0427 0.28094 0.0
C355 C 0.09397 0.05767 0.3269 0.0
C356 C 0.07849 0.06757 0.30005 0.0
C357 C 0.06979 0.06274 0.22696 0.0
C358 C 0.0766 0.04804 0.18038 0.0
C359 C 0.09205 0.03806 0.20703 0.0
H360 H 0.05779 0.0704 0.20636 0.0
H361 H 0.2042 0.96822 0.46239 0.0
H362 H 0.49168 0.17367 0.07823 0.0
H363 H 0.49257 0.14712 0.172 0.0
H364 H 0.53777 0.1727 0.30263 0.0
H365 H 0.53673 0.19944 0.20972 0.0
H366 H 0.54378 0.13441 0.25444 0.0
H367 H 0.49792 0.172 0.39053 0.0
H368 H 0.46889 0.18982 0.39869 0.0
H369 H 0.43772 0.14118 0.33264 0.0
H370 H 0.46661 0.12312 0.32293 0.0
H371 H 0.55168 0.07625 0.59809 0.0
H372 H 0.54838 0.10186 0.50181 0.0
H373 H 0.49576 0.07958 0.42279 0.0
H374 H 0.49879 0.05419 0.52216 0.0
H375 H 0.49259 0.11534 0.43793 0.0
H376 H 0.53584 0.07716 0.30258 0.0
H377 H 0.56368 0.05805 0.28156 0.0
H378 H 0.59837 0.10535 0.33003 0.0
H379 H 0.57074 0.1247 0.35262 0.0
C380 C 0.50165 0.17373 0.12758 0.0
C381 C 0.5141 0.18871 0.13669 0.0
C382 C 0.50215 0.15856 0.18116 0.0
C383 C 0.51526 0.15787 0.24439 0.0
C384 C 0.52754 0.17291 0.25432 0.0
C385 C 0.52683 0.18825 0.2016 0.0
C386 C 0.51659 0.14119 0.2983 0.0
C387 C 0.53271 0.13037 0.29553 0.0
C388 C 0.50182 0.13543 0.34914 0.0
C389 C 0.48445 0.14626 0.35514 0.0
C390 C 0.48489 0.16515 0.37699 0.0
C391 C 0.46846 0.17528 0.38206 0.0
C392 C 0.45147 0.16666 0.36596 0.0
C393 C 0.45089 0.14786 0.34497 0.0
C394 C 0.46729 0.13766 0.33974 0.0
C395 C 0.53945 0.07673 0.55987 0.0
C396 C 0.52558 0.06306 0.56703 0.0
C397 C 0.53762 0.09136 0.50426 0.0
C398 C 0.52196 0.09264 0.45352 0.0
C399 C 0.50804 0.07895 0.46067 0.0
C400 C 0.50984 0.06432 0.51687 0.0
C401 C 0.51998 0.10859 0.39537 0.0
C402 C 0.50371 0.11927 0.39697 0.0
C403 C 0.53448 0.11401 0.34198 0.0
C404 C 0.55119 0.10236 0.33002 0.0
C405 C 0.54941 0.08345 0.3096 0.0
C406 C 0.56515 0.07258 0.29723 0.0
C407 C 0.58278 0.08047 0.30451 0.0
C408 C 0.58471 0.09925 0.32438 0.0
C409 C 0.569 0.11018 0.33697 0.0
H410 H 0.59494 0.07203 0.29444 0.0
H411 H 0.43876 0.17453 0.36995 0.0
H412 H 0.3262 0.51529 0.23477 0.0
H413 H 0.35237 0.50975 0.32612 0.0
H414 H 0.39026 0.52609 0.13611 0.0
H415 H 0.36431 0.53049 0.0431 0.0
H416 H 0.40545 0.49955 0.21549 0.0
H417 H 0.37604 0.55612 0.29782 0.0
H418 H 0.35024 0.57606 0.342 0.0
H419 H 0.34281 0.54235 0.55539 0.0
H420 H 0.36843 0.52206 0.51192 0.0
H421 H 0.48252 0.52434 0.4724 0.0
H422 H 0.45632 0.52472 0.37673 0.0
H423 H 0.42116 0.50035 0.56034 0.0
H424 H 0.44725 0.49986 0.65576 0.0
H425 H 0.40463 0.53017 0.486 0.0
H426 H 0.43611 0.47462 0.40267 0.0
H427 H 0.4631 0.45644 0.35764 0.0
H428 H 0.46783 0.49043 0.14367 0.0
H429 H 0.44104 0.50901 0.18808 0.0
C430 C 0.34009 0.51733 0.21163 0.0
C431 C 0.34296 0.52361 0.13131 0.0
C432 C 0.35512 0.51441 0.26458 0.0
C433 C 0.37343 0.51796 0.2392 0.0
C434 C 0.37636 0.5234 0.15802 0.0
C435 C 0.36139 0.52612 0.10487 0.0
C436 C 0.38948 0.51656 0.29727 0.0
C437 C 0.40528 0.50643 0.27424 0.0
C438 C 0.3894 0.52528 0.3748 0.0
C439 C 0.37401 0.53746 0.40116 0.0
C440 C 0.36881 0.55288 0.35387 0.0
C441 C 0.35424 0.56426 0.37882 0.0
C442 C 0.34485 0.56044 0.45133 0.0
C443 C 0.35007 0.54527 0.49916 0.0
C444 C 0.36462 0.53383 0.47442 0.0
C445 C 0.46923 0.51893 0.49209 0.0
C446 C 0.46698 0.51207 0.57175 0.0
C447 C 0.45426 0.51912 0.43731 0.0
C448 C 0.4367 0.51251 0.46103 0.0
C449 C 0.43451 0.50557 0.54044 0.0
C450 C 0.44948 0.50523 0.5949 0.0
C451 C 0.42049 0.51321 0.40406 0.0
C452 C 0.40471 0.52324 0.42733 0.0
C453 C 0.42071 0.50462 0.32645 0.0
C454 C 0.43667 0.49332 0.29911 0.0
C455 C 0.44299 0.4783 0.34631 0.0
C456 C 0.45824 0.46791 0.32086 0.0
C457 C 0.4672 0.47231 0.24795 0.0
C458 C 0.46089 0.48706 0.20019 0.0
C459 C 0.44566 0.49752 0.22544 0.0
H460 H 0.47902 0.46425 0.22838 0.0
H461 H 0.33357 0.56926 0.47056 0.0
H462 H 0.0467 0.33609 0.18442 0.0
H463 H 0.04899 0.36333 0.27403 0.0
H464 H 0.99203 0.37682 0.22103 0.0
H465 H 0.99002 0.35015 0.12967 0.0
H466 H 1.01038 0.40693 0.21553 0.0
H467 H 1.00849 0.35674 0.41014 0.0
H468 H 0.01884 0.32756 0.47425 0.0
H469 H 0.0721 0.35191 0.52319 0.0
H470 H 0.06213 0.38116 0.45844 0.0
H471 H 0.98697 0.46415 0.55447 0.0
H472 H 0.99029 0.4381 0.4594 0.0
H473 H 0.04972 0.44184 0.48094 0.0
H474 H 0.0464 0.46821 0.57537 0.0
H475 H 0.03373 0.40438 0.49952 0.0
H476 H 0.03349 0.45592 0.31625 0.0
H477 H 0.02183 0.48508 0.25697 0.0
H478 H 0.97099 0.45787 0.19026 0.0
H479 H 0.98218 0.42862 0.25079 0.0
C480 C 0.03466 0.34481 0.19266 0.0
C481 C 0.0182 0.34099 0.14977 0.0
C482 C 0.03594 0.36039 0.24408 0.0
C483 C 0.02064 0.37225 0.25528 0.0
C484 C 1.00412 0.36812 0.21344 0.0
C485 C 1.00294 0.35279 0.16129 0.0
C486 C 0.0217 0.38915 0.30878 0.0
C487 C 0.01532 0.40623 0.27787 0.0
C488 C 0.02864 0.38862 0.38972 0.0
C489 C 0.03464 0.37105 0.42862 0.0
C490 C 0.02245 0.35581 0.43403 0.0
C491 C 0.02824 0.33928 0.47057 0.0
C492 C 0.04613 0.33787 0.50254 0.0
C493 C 0.05825 0.35301 0.49825 0.0
C494 C 0.05254 0.36957 0.46168 0.0
C495 C 1.00074 0.45953 0.5382 0.0
C496 C 0.01643 0.46837 0.5711 0.0
C497 C 1.00263 0.44465 0.48395 0.0
C498 C 0.02026 0.43802 0.46274 0.0
C499 C 0.03599 0.44673 0.49622 0.0
C500 C 0.03409 0.46188 0.54946 0.0
C501 C 0.02203 0.42183 0.40653 0.0
C502 C 0.02893 0.40498 0.43693 0.0
C503 C 0.0154 0.4225 0.32545 0.0
C504 C 1.00862 0.44009 0.28879 0.0
C505 C 0.01974 0.45618 0.28971 0.0
C506 C 1.01323 0.47273 0.25574 0.0
C507 C 0.99567 0.47334 0.21995 0.0
C508 C 0.98459 0.45739 0.21807 0.0
C509 C 0.99101 0.44081 0.2522 0.0
H510 H 0.99067 0.48615 0.19352 0.0
H511 H 0.05058 0.32505 0.53083 0.0
H512 H 0.82907 1.01481 0.06142 0.0
H513 H 0.85641 0.02045 0.97631 0.0
H514 H 0.89184 1.00284 0.17311 0.0
H515 H 0.86466 0.99767 0.25895 0.0
H516 H 0.90776 0.03119 0.09375 0.0
H517 H 0.88 0.97307 0.01808 0.0
H518 H 0.8547 0.95226 0.97384 0.0
H519 H 0.84864 0.98363 0.75295 0.0
H520 H 0.87374 1.00479 0.79643 0.0
H521 H 0.98772 1.01288 0.84196 0.0
H522 H 0.96197 1.01054 0.93958 0.0
H523 H 0.92355 0.02534 0.74897 0.0
H524 H 0.949 0.02711 0.65202 0.0
H525 H 0.90975 0.99783 0.82981 0.0
H526 H 0.93812 0.05599 0.90613 0.0
H527 H 0.96344 0.07658 0.95206 0.0
H528 H 0.96872 0.04495 0.17264 0.0
H529 H 0.94362 0.02398 0.1274 0.0
C530 C 0.84268 1.01252 0.08721 0.0
C531 C 0.84457 1.00558 0.16695 0.0
C532 C 0.85835 1.01557 0.03813 0.0
C533 C 0.87629 1.01172 0.06744 0.0
C534 C 0.87823 1.0058 0.14851 0.0
C535 C 0.86261 1.00273 0.19747 0.0
C536 C 0.8929 1.01292 0.01276 0.0
C537 C 0.90826 0.02375 0.03638 0.0
C538 C 0.89365 1.00337 0.93737 0.0
C539 C 0.87862 0.99062 0.91089 0.0
C540 C 0.87318 0.97561 0.96034 0.0
C541 C 0.85889 0.96374 0.93537 0.0
C542 C 0.85004 0.96666 0.86073 0.0
C543 C 0.85549 0.98141 0.81081 0.0
C544 C 0.86975 0.99334 0.83556 0.0
C545 C 0.97378 1.01556 0.8212 0.0
C546 C 0.97045 0.02004 0.73915 0.0
C547 C 0.95903 1.01438 0.87712 0.0
C548 C 0.94066 0.01789 0.85221 0.0
C549 C 0.93746 0.02248 0.77022 0.0
C550 C 0.95211 0.02354 0.71466 0.0
C551 C 0.92456 0.0164 0.9098 0.0
C552 C 0.90929 1.00536 0.88697 0.0
C553 C 0.92397 0.02574 0.98586 0.0
C554 C 0.93913 0.03828 0.01291 0.0
C555 C 0.94479 0.05331 0.96407 0.0
C556 C 0.95909 0.06507 0.99004 0.0
C557 C 0.96772 0.06204 0.0651 0.0
C558 C 0.96205 0.04726 0.11442 0.0
C559 C 0.94779 0.03543 0.08864 0.0
H560 H 0.97876 0.07117 0.08515 0.0
H561 H 0.83898 0.95745 0.84149 0.0
H562 H 0.51077 0.86284 0.29088 0.0
H563 H 0.5109 0.88817 0.19352 0.0
H564 H 0.53876 0.85342 0.01872 0.0
H565 H 0.54024 0.82841 0.11909 0.0
H566 H 0.55363 0.885 0.00934 0.0
H567 H 0.49007 0.86684 0.00847 0.0
H568 H 0.45942 0.85906 0.06549 0.0
H569 H 0.45511 0.91394 0.16577 0.0
H570 H 0.48584 0.92198 0.11024 0.0
H571 H 0.53128 0.94283 0.66661 0.0
H572 H 0.53228 0.91766 0.76692 0.0
H573 H 0.52154 0.95692 0.95912 0.0
H574 H 0.5209 0.98232 0.85857 0.0
H575 H 0.49803 0.92357 0.95804 0.0
H576 H 0.5626 0.94083 0.94988 0.0
H577 H 0.59227 0.94751 0.88148 0.0
H578 H 0.5931 0.89221 0.78376 0.0
H579 H 0.56327 0.88529 0.85061 0.0
C580 C 0.51716 0.86051 0.23221 0.0
C581 C 0.52568 0.8434 0.21403 0.0
C582 C 0.5169 0.87505 0.17554 0.0
C583 C 0.52457 0.87283 0.09751 0.0
C584 C 0.5327 0.85564 0.07822 0.0
C585 C 0.53331 0.84116 0.13564 0.0
C586 C 0.5247 0.88863 0.03758 0.0
C587 C 0.54133 0.89319 0.9975 0.0
C588 C 0.50883 0.89974 0.02226 0.0
C589 C 0.49034 0.89495 0.05584 0.0
C590 C 0.48264 0.87721 0.0432 0.0
C591 C 0.46525 0.87276 0.07517 0.0
C592 C 0.45534 0.88598 0.11941 0.0
C593 C 0.4628 0.9037 0.13159 0.0
C594 C 0.4802 0.90822 0.09981 0.0
C595 C 0.52936 0.94615 0.73039 0.0
C596 C 0.52616 0.96457 0.75485 0.0
C597 C 0.52992 0.93173 0.78765 0.0
C598 C 0.52702 0.93536 0.87066 0.0
C599 C 0.52385 0.95378 0.89543 0.0
C600 C 0.52362 0.9683 0.83811 0.0
C601 C 0.52687 0.91978 0.93074 0.0
C602 C 0.51024 0.91529 0.97042 0.0
C603 C 0.5426 0.90851 0.94431 0.0
C604 C 0.56061 0.9126 0.90466 0.0
C605 C 0.56903 0.93014 0.91326 0.0
C606 C 0.58589 0.93397 0.87487 0.0
C607 C 0.59454 0.92031 0.82815 0.0
C608 C 0.58637 0.90278 0.81991 0.0
C609 C 0.56949 0.8989 0.8581 0.0
H610 H 0.60759 0.9233 0.79846 0.0
H611 H 0.44188 0.8825 0.14409 0.0
H612 H 0.67345 0.50113 0.28584 0.0
H613 H 0.6472 0.501 0.19171 0.0
H614 H 0.67595 0.53963 0.03549 0.0
H615 H 0.70217 0.54014 0.13065 0.0
H616 H 0.64034 0.5502 0.05762 0.0
H617 H 0.6709 0.49362 0.9833 0.0
H618 H 0.68507 0.46298 0.007 0.0
H619 H 0.63348 0.44222 0.10056 0.0
H620 H 0.61906 0.47283 0.07845 0.0
H621 H 0.58136 0.54098 0.71067 0.0
H622 H 0.60728 0.54139 0.80702 0.0
H623 H 0.57782 0.50331 0.96334 0.0
H624 H 0.55176 0.50291 0.86693 0.0
H625 H 0.61358 0.4924 0.9417 0.0
H626 H 0.58332 0.54815 0.02466 0.0
H627 H 0.5685 0.57869 0.00818 0.0
H628 H 0.61835 0.60056 0.90196 0.0
H629 H 0.63355 0.57012 0.91869 0.0
C630 C 0.67425 0.50959 0.23141 0.0
C631 C 0.69001 0.52067 0.21617 0.0
C632 C 0.65922 0.5094 0.17715 0.0
C633 C 0.65952 0.52022 0.10584 0.0
C634 C 0.67532 0.53114 0.08989 0.0
C635 C 0.69041 0.53127 0.14406 0.0
C636 C 0.64318 0.52049 0.04935 0.0
C637 C 0.63471 0.53757 0.03129 0.0
C638 C 0.63532 0.504 0.0167 0.0
C639 C 0.64395 0.48558 0.02994 0.0
C640 C 0.66262 0.48257 0.00954 0.0
C641 C 0.67069 0.4652 0.02257 0.0
C642 C 0.6602 0.45068 0.05546 0.0
C643 C 0.6416 0.45349 0.07519 0.0
C644 C 0.63346 0.47084 0.06235 0.0
C645 C 0.58033 0.53281 0.7659 0.0
C646 C 0.56451 0.52188 0.78098 0.0
C647 C 0.59516 0.5331 0.82119 0.0
C648 C 0.59458 0.52243 0.89293 0.0
C649 C 0.57868 0.51164 0.90853 0.0
C650 C 0.56374 0.51148 0.8535 0.0
C651 C 0.61081 0.5221 0.9499 0.0
C652 C 0.61925 0.50502 0.96798 0.0
C653 C 0.61857 0.53855 0.98306 0.0
C654 C 0.6095 0.55682 0.97216 0.0
C655 C 0.59107 0.55943 0.99724 0.0
C656 C 0.58262 0.57674 0.98803 0.0
C657 C 0.59242 0.59153 0.95338 0.0
C658 C 0.61075 0.58907 0.92856 0.0
C659 C 0.61933 0.57182 0.93824 0.0
H660 H 0.58583 0.60491 0.94609 0.0
H661 H 0.66647 0.43724 0.06549 0.0
H662 H 0.99886 0.70617 0.10136 0.0
H663 H 0.99946 0.68123 0.00072 0.0
H664 H 0.02951 0.64659 0.16931 0.0
H665 H 0.03039 0.6719 0.26709 0.0
H666 H 0.04198 0.63927 0.03117 0.0
H667 H 0.97967 0.64361 0.13028 0.0
H668 H 0.95 0.65889 0.16142 0.0
H669 H 0.94225 0.6714 0.90791 0.0
H670 H 0.97201 0.65639 0.8754 0.0
H671 H 0.01919 0.55191 0.84884 0.0
H672 H 0.01865 0.57809 0.94451 0.0
H673 H 1.0031 0.61483 0.74884 0.0
H674 H 1.00372 0.58868 0.65321 0.0
H675 H 0.98304 0.62087 0.89755 0.0
H676 H 0.04606 0.61468 0.8028 0.0
H677 H 0.07479 0.5972 0.77737 0.0
H678 H 0.07998 0.58576 0.03307 0.0
H679 H 0.05111 0.60295 0.05988 0.0
C680 C 1.00597 0.69343 0.11666 0.0
C681 C 1.01431 0.69115 0.19369 0.0
C682 C 1.00602 0.67896 0.0592 0.0
C683 C 1.01402 0.66163 0.07769 0.0
C684 C 0.02301 0.65963 0.15314 0.0
C685 C 0.02329 0.67416 0.20985 0.0
C686 C 1.01288 0.64551 0.01962 0.0
C687 C 0.02899 0.6352 0.003 0.0
C688 C 0.99606 0.64006 0.98123 0.0
C689 C 0.97816 0.64906 0.00055 0.0
C690 C 0.9717 0.64973 0.08126 0.0
C691 C 0.95486 0.65833 0.09914 0.0
C692 C 0.94427 0.66616 0.03671 0.0
C693 C 0.95048 0.66536 0.95622 0.0
C694 C 0.96733 0.6568 0.93802 0.0
C695 C 0.01524 0.56545 0.82671 0.0
C696 C 1.01129 0.56816 0.74375 0.0
C697 C 0.01512 0.58047 0.88123 0.0
C698 C 1.01092 0.5985 0.85389 0.0
C699 C 1.00636 0.60109 0.7715 0.0
C700 C 1.00674 0.58613 0.71689 0.0
C701 C 1.01203 0.61478 0.91018 0.0
C702 C 0.99596 0.62505 0.92613 0.0
C703 C 0.02878 0.61998 0.94907 0.0
C704 C 0.04633 0.60996 0.93325 0.0
C705 C 0.05326 0.60833 0.85355 0.0
C706 C 0.06958 0.59849 0.83888 0.0
C707 C 0.07918 0.59033 0.90353 0.0
C708 C 0.07252 0.59207 0.98303 0.0
C709 C 0.05618 0.60188 -0.00199 0.0
H710 H 0.0918 0.5827 0.89202 0.0
H711 H 0.93124 0.67281 0.05068 0.0
H712 H 0.9889 0.25794 0.26921 0.0
H713 H 0.9746 0.23964 0.37756 0.0
H714 H 0.02341 0.20529 0.38975 0.0
H715 H 0.03788 0.22392 0.28404 0.0
H716 H 0.96594 0.20789 0.32956 0.0
H717 H 0.02448 0.17541 0.54323 0.0
H718 H 0.04615 0.18611 0.64909 0.0
H719 H 0.01595 0.23705 0.67234 0.0
H720 H 0.99371 0.22652 0.56803 0.0
H721 H 0.98353 0.11645 0.26998 0.0
H722 H 0.98003 0.1497 0.29068 0.0
H723 H 0.96856 0.14045 0.54556 0.0
H724 H 0.97305 0.10714 0.52592 0.0
H725 H 0.99325 0.1655 0.53438 0.0
H726 H 0.93461 0.16024 0.41733 0.0
H727 H 0.9102 0.1493 0.32356 0.0
H728 H 0.93816 0.17527 0.12269 0.0
H729 H 0.96286 0.18617 0.21485 0.0
C730 C 0.99696 0.24714 0.29824 0.0
C731 C 1.01428 0.24196 0.26672 0.0
C732 C 0.98876 0.23665 0.3603 0.0
C733 C 0.99771 0.22079 0.39092 0.0
C734 C 0.01613 0.21743 0.36782 0.0
C735 C 0.02436 0.22796 0.30629 0.0
C736 C 0.98665 0.20504 0.42378 0.0
C737 C 0.97171 0.19883 0.37573 0.0
C738 C 0.99344 0.19342 0.48665 0.0
C739 C 1.00733 0.20014 0.5472 0.0
C740 C 0.02231 0.18886 0.57102 0.0
C741 C 0.03475 0.19491 0.63085 0.0
C742 C 0.03247 0.21228 0.66719 0.0
C743 C 0.01775 0.22364 0.64378 0.0
C744 C 1.00523 0.21763 0.58417 0.0
C745 C 0.97999 0.12147 0.33016 0.0
C746 C 0.97862 0.10918 0.3962 0.0
C747 C 0.97772 0.14048 0.34185 0.0
C748 C 0.97371 0.14761 0.41957 0.0
C749 C 0.97147 0.13528 0.48499 0.0
C750 C 0.97389 0.11622 0.47343 0.0
C751 C 0.97449 0.16796 0.43299 0.0
C752 C 0.9872 0.17491 0.4903 0.0
C753 C 0.96554 0.18039 0.37942 0.0
C754 C 0.95058 0.17409 0.32333 0.0
C755 C 0.93559 0.16359 0.35314 0.0
C756 C 0.92169 0.15739 0.30021 0.0
C757 C 0.92262 0.16161 0.21725 0.0
C758 C 0.93743 0.17206 0.18702 0.0
C759 C 0.95135 0.17831 0.23966 0.0
H760 H 0.91186 0.15677 0.17638 0.0
H761 H 0.04207 0.2169 0.7137 0.0
H762 H 0.28271 1.01106 0.28368 0.0
H763 H 0.30414 1.01134 0.39867 0.0
H764 H 0.32224 0.06637 0.33189 0.0
H765 H 0.30111 0.06598 0.21583 0.0
H766 H 0.33769 1.01561 0.30074 0.0
H767 H 0.34886 0.08017 0.51418 0.0
H768 H 0.3313 0.09781 0.61687 0.0
H769 H 0.29501 0.05115 0.65307 0.0
H770 H 0.31242 0.03318 0.5512 0.0
H771 H 0.42941 0.04323 0.30026 0.0
H772 H 0.39598 0.04874 0.31186 0.0
H773 H 0.39438 1.01622 0.53249 0.0
H774 H 0.42766 1.0104 0.52033 0.0
H775 H 0.36904 0.05094 0.52105 0.0
H776 H 0.38579 0.99227 0.39447 0.0
H777 H 0.40383 0.97331 0.29816 0.0
H778 H 0.38229 1.00494 0.09786 0.0
H779 H 0.3645 0.02441 0.19307 0.0
C780 C 0.29034 0.0237 0.29679 0.0
C781 C 0.29072 0.03831 0.24015 0.0
C782 C 0.30251 0.02389 0.36296 0.0
C783 C 0.31501 0.03871 0.37258 0.0
C784 C 0.31269 0.0548 0.32547 0.0
C785 C 0.30072 0.05453 0.25866 0.0
C786 C 0.33393 0.03461 0.40092 0.0
C787 C 0.34441 0.02305 0.35019 0.0
C788 C 0.34267 0.04442 0.46483 0.0
C789 C 0.33184 0.0554 0.52427 0.0
C790 C 0.33712 0.07367 0.54397 0.0
C791 C 0.32719 0.08373 0.60207 0.0
C792 C 0.31201 0.07563 0.64124 0.0
C793 C 0.3067 0.05745 0.62233 0.0
C794 C 0.31655 0.04736 0.56412 0.0
C795 C 0.42196 0.03764 0.35205 0.0
C796 C 0.43089 0.02619 0.40873 0.0
C797 C 0.40298 0.04088 0.35897 0.0
C798 C 0.39287 0.0329 0.42319 0.0
C799 C 0.40204 0.02261 0.48314 0.0
C800 C 0.42093 0.01913 0.47551 0.0
C801 C 0.37252 0.0325 0.41908 0.0
C802 C 0.36204 0.04328 0.47312 0.0
C803 C 0.36357 0.02182 0.35861 0.0
C804 C 0.37401 1.00993 0.30103 0.0
C805 C 0.38507 0.99531 0.32995 0.0
C806 C 0.39524 0.98446 0.27552 0.0
C807 C 0.39427 0.98797 0.19191 0.0
C808 C 0.38307 1.00229 0.16258 0.0
C809 C 0.37296 1.01324 0.21676 0.0
H810 H 0.40214 0.97956 0.14982 0.0
H811 H 0.30438 0.08342 0.6864 0.0
H812 H 0.56002 0.27267 0.2413 0.0
H813 H 0.57347 0.29061 0.35389 0.0
H814 H 0.52145 0.3192 0.38406 0.0
H815 H 0.50815 0.30122 0.27323 0.0
H816 H 0.57805 0.32478 0.32148 0.0
H817 H 0.51734 0.34298 0.5509 0.0
H818 H 0.4971 0.32665 0.64803 0.0
H819 H 0.53354 0.27968 0.64598 0.0
H820 H 0.55432 0.2959 0.55036 0.0
H821 H 0.55337 0.41531 0.31897 0.0
H822 H 0.55847 0.38209 0.3201 0.0
H823 H 0.56824 0.38367 0.57952 0.0
H824 H 0.56167 0.41695 0.57979 0.0
H825 H 0.54781 0.35658 0.55262 0.0
H826 H 0.60452 0.37242 0.43646 0.0
H827 H 0.62679 0.38914 0.34916 0.0
H828 H 0.60036 0.36697 0.13564 0.0
H829 H 0.57781 0.35029 0.2214 0.0
C830 C 0.55126 0.28208 0.27522 0.0
C831 C 0.53319 0.28583 0.24859 0.0
C832 C 0.55893 0.29233 0.33942 0.0
C833 C 0.54856 0.30638 0.37728 0.0
C834 C 0.52974 0.30831 0.35709 0.0
C835 C 0.52213 0.29814 0.29309 0.0
C836 C 0.55797 0.32219 0.41807 0.0
C837 C 0.57167 0.33158 0.37317 0.0
C838 C 0.55034 0.33081 0.48769 0.0
C839 C 0.5375 0.32074 0.54334 0.0
C840 C 0.52118 0.32925 0.57159 0.0
C841 C 0.50957 0.31998 0.62638 0.0
C842 C 0.51404 0.30214 0.65323 0.0
C843 C 0.53009 0.2935 0.62506 0.0
C844 C 0.54179 0.30272 0.57044 0.0
C845 C 0.55656 0.40865 0.37641 0.0
C846 C 0.55706 0.41883 0.44925 0.0
C847 C 0.55988 0.38963 0.37678 0.0
C848 C 0.5643 0.38035 0.44956 0.0
C849 C 0.56516 0.39053 0.52237 0.0
C850 C 0.56152 0.40959 0.52229 0.0
C851 C 0.56582 0.35978 0.4494 0.0
C852 C 0.55448 0.34957 0.50256 0.0
C853 C 0.57572 0.35032 0.38795 0.0
C854 C 0.5895 0.36002 0.33563 0.0
C855 C 0.60344 0.37111 0.37089 0.0
C856 C 0.61611 0.3806 0.32163 0.0
C857 C 0.61501 0.37909 0.23692 0.0
C858 C 0.60126 0.36806 0.20128 0.0
C859 C 0.58856 0.35853 0.25024 0.0
H860 H 0.62481 0.38648 0.1989 0.0
H861 H 0.50505 0.29502 0.69582 0.0
H862 H 0.23091 0.47145 0.17299 0.0
H863 H 0.21019 0.47132 0.29005 0.0
H864 H 0.23858 0.51906 0.3885 0.0
H865 H 0.25884 0.51981 0.27016 0.0
H866 H 0.20587 0.4778 0.47215 0.0
H867 H 0.21363 0.54879 0.36545 0.0
H868 H 0.22546 0.56725 0.24939 0.0
H869 H 0.20284 0.52725 0.08217 0.0
H870 H 0.19118 0.50859 0.19722 0.0
H871 H 0.1134 0.53786 0.46047 0.0
H872 H 0.14692 0.53543 0.47624 0.0
H873 H 0.14435 0.47774 0.4066 0.0
H874 H 0.11082 0.48015 0.38894 0.0
H875 H 0.16856 0.5291 0.35525 0.0
H876 H 0.18133 0.45372 0.48082 0.0
H877 H 0.16806 0.433 0.58509 0.0
H878 H 0.14579 0.47994 0.71163 0.0
H879 H 0.1595 0.50111 0.61033 0.0
C880 C 0.23327 0.48143 0.22133 0.0
C881 C 0.24603 0.49603 0.21104 0.0
C882 C 0.22157 0.48117 0.28886 0.0
C883 C 0.22264 0.49545 0.34675 0.0
C884 C 0.23753 0.508 0.344 0.0
C885 C 0.2491 0.50841 0.27598 0.0
C886 C 0.2054 0.50079 0.38861 0.0
C887 C 0.1977 0.48917 0.44829 0.0
C888 C 0.19498 0.51584 0.35801 0.0
C889 C 0.20166 0.52733 0.28938 0.0
C890 C 0.21121 0.54402 0.30376 0.0
C891 C 0.21794 0.55446 0.23823 0.0
C892 C 0.21501 0.54839 0.15832 0.0
C893 C 0.20525 0.53191 0.14383 0.0
C894 C 0.19862 0.52139 0.20908 0.0
C895 C 0.11998 0.52464 0.44871 0.0
C896 C 0.10959 0.50929 0.42156 0.0
C897 C 0.13906 0.5232 0.45942 0.0
C898 C 0.14809 0.50636 0.44421 0.0
C899 C 0.13762 0.49076 0.42073 0.0
C900 C 0.1185 0.4922 0.40977 0.0
C901 C 0.16853 0.5059 0.4385 0.0
C902 C 0.17682 0.51835 0.38389 0.0
C903 C 0.17929 0.49165 0.47443 0.0
C904 C 0.17143 0.47904 0.53736 0.0
C905 C 0.17382 0.4597 0.53144 0.0
C906 C 0.16623 0.44786 0.5902 0.0
C907 C 0.15615 0.45518 0.65518 0.0
C908 C 0.1537 0.47434 0.66166 0.0
C909 C 0.16139 0.48627 0.60354 0.0
H910 H 0.15021 0.44599 0.70043 0.0
H911 H 0.22023 0.55648 0.10767 0.0
H912 H 0.96407 0.80504 0.16898 0.0
H913 H 0.96088 0.82562 0.0535 0.0
H914 H 1.00149 0.79366 0.92137 0.0
H915 H 1.00558 0.77369 0.04046 0.0
H916 H 1.01491 0.82478 0.94491 0.0
H917 H 0.9577 0.80853 0.83444 0.0
H918 H 0.92511 0.79859 0.82497 0.0
H919 H 0.90794 0.84859 0.94492 0.0
H920 H 0.94044 0.85877 0.95633 0.0
H921 H 0.02926 0.91499 0.79473 0.0
H922 H 0.01839 0.88288 0.78342 0.0
H923 H 0.98 0.89235 0.98016 0.0
H924 H 0.99035 0.92464 0.98943 0.0
H925 H 0.96536 0.86866 0.86507 0.0
H926 H 0.0237 0.87587 0.01776 0.0
H927 H 0.05641 0.88563 0.02924 0.0
H928 H 0.07047 0.85104 0.82562 0.0
H929 H 0.0378 0.84121 0.81267 0.0
C930 C 0.9717 0.80191 0.1139 0.0
C931 C 0.98556 0.7883 0.11442 0.0
C932 C 0.96972 0.8136 0.04697 0.0
C933 C 0.98128 0.81154 0.9788 0.0
C934 C 0.99266 0.79575 0.97385 0.0
C935 C 0.99493 0.78424 0.04177 0.0
C936 C 0.98539 0.82819 0.92834 0.0
C937 C 1.00399 0.83398 0.92442 0.0
C938 C 0.9713 0.8405 0.90221 0.0
C939 C 0.95162 0.83445 0.89607 0.0
C940 C 0.94702 0.8174 0.8592 0.0
C941 C 0.92853 0.81171 0.85345 0.0
C942 C 0.91446 0.82295 0.88425 0.0
C943 C 0.91885 0.83992 0.92088 0.0
C944 C 0.93732 0.84568 0.92678 0.0
C945 C 0.01832 0.91027 0.83464 0.0
C946 C 1.01074 0.92226 0.89324 0.0
C947 C 1.01207 0.89198 0.82788 0.0
C948 C 0.99849 0.88522 0.88133 0.0
C949 C 0.99038 0.89735 0.93781 0.0
C950 C 0.99642 0.91573 0.94358 0.0
C951 C 0.9945 0.8651 0.88695 0.0
C952 C 0.97607 0.85892 0.88253 0.0
C953 C 1.00868 0.85229 0.90516 0.0
C954 C 0.02833 0.858 0.91359 0.0
C955 C 0.03378 0.87043 0.97525 0.0
C956 C 0.0523 0.87596 0.98204 0.0
C957 C 0.0655 0.86901 0.92801 0.0
C958 C 0.06022 0.85645 0.86728 0.0
C959 C 0.04171 0.85089 0.86018 0.0
H960 H 0.07984 0.87331 0.93333 0.0
H961 H 0.90015 0.81852 0.87977 0.0
H962 H 0.74261 0.01978 0.05566 0.0
H963 H 0.72065 0.0345 0.96405 0.0
H964 H 0.73214 0.08764 0.07572 0.0
H965 H 0.75341 0.07247 0.1709 0.0
H966 H 0.6991 0.08088 0.09759 0.0
H967 H 0.73349 0.07979 0.85808 0.0
H968 H 0.75426 0.06949 0.74827 0.0
H969 H 0.71618 0.02585 0.6857 0.0
H970 H 0.69537 0.0355 0.79635 0.0
H971 H 0.60691 0.0907 0.94859 0.0
H972 H 0.64029 0.09756 0.94542 0.0
H973 H 0.65183 0.03909 0.92015 0.0
H974 H 0.61872 0.03224 0.92221 0.0
H975 H 0.67565 0.0618 0.82628 0.0
H976 H 0.6502 0.05826 0.10753 0.0
H977 H 0.62878 0.06983 0.21284 0.0
H978 H 0.65142 0.12476 0.18676 0.0
H979 H 0.67282 0.11351 0.08061 0.0
C980 C 0.74114 0.03475 0.05762 0.0
C981 C 0.74955 0.04505 0.11997 0.0
C982 C 0.7286 0.04326 0.00482 0.0
C983 C 0.72453 0.06226 0.01295 0.0
C984 C 0.73491 0.07296 0.06847 0.0
C985 C 0.74715 0.06435 0.12253 0.0
C986 C 0.70664 0.06938 0.98053 0.0
C987 C 0.69432 0.07732 0.03688 0.0
C988 C 0.70009 0.06478 0.90155 0.0
C989 C 0.71282 0.05843 0.83602 0.0
C990 C 0.7296 0.06786 0.82161 0.0
C991 C 0.74139 0.06214 0.75905 0.0
C992 C 0.73654 0.04702 0.71006 0.0
C993 C 0.71992 0.03755 0.72371 0.0
C994 C 0.7081 0.04317 0.78636 0.0
C995 C 0.61662 0.07939 0.94147 0.0
C996 C 0.61032 0.06091 0.93761 0.0
C997 C 0.63561 0.08332 0.93922 0.0
C998 C 0.64848 0.06881 0.93269 0.0
C999 C 0.64212 0.05048 0.92482 0.0
C1000 C 0.62323 0.04656 0.9275 0.0
C1001 C 0.66852 0.07204 0.945 0.0
C1002 C 0.681 0.06605 0.88517 0.0
C1003 C 0.67537 0.07855 0.02031 0.0
C1004 C 0.66292 0.08511 0.08573 0.0
C1005 C 0.65055 0.07281 0.12421 0.0
C1006 C 0.63842 0.07931 0.18396 0.0
C1007 C 0.63869 0.09805 0.2062 0.0
C1008 C 0.65119 0.11028 0.16926 0.0
C1009 C 0.66332 0.10385 0.10935 0.0
H1010 H 0.62923 0.10311 0.25206 0.0
H1011 H 0.74565 0.04265 0.66145 0.0
H1012 H 0.57508 0.72913 0.18141 0.0
H1013 H 0.57804 0.70912 0.0639 0.0
H1014 H 0.53777 0.74219 0.93454 0.0
H1015 H 0.53397 0.76165 0.05527 0.0
H1016 H 0.52394 0.71102 0.95879 0.0
H1017 H 0.58094 0.7273 0.84624 0.0
H1018 H 0.61361 0.73685 0.83585 0.0
H1019 H 0.63053 0.68587 0.94886 0.0
H1020 H 0.59795 0.67607 0.96113 0.0
H1021 H 0.50624 0.62174 0.8127 0.0
H1022 H 0.51736 0.65375 0.79936 0.0
H1023 H 0.56024 0.64253 0.97621 0.0
H1024 H 0.55009 0.61015 0.98389 0.0
H1025 H 0.57259 0.66711 0.87019 0.0
H1026 H 0.51544 0.65983 0.02996 0.0
H1027 H 0.48274 0.65042 0.04642 0.0
H1028 H 0.46721 0.68584 0.84729 0.0
H1029 H 0.49986 0.69532 0.82938 0.0
C1030 C 0.56748 0.73263 0.12655 0.0
C1031 C 0.55379 0.74641 0.12815 0.0
C1032 C 0.56934 0.72127 0.05851 0.0
C1033 C 0.55778 0.72381 0.99051 0.0
C1034 C 0.5466 0.73977 0.98684 0.0
C1035 C 0.54449 0.75096 0.05577 0.0
C1036 C 0.55331 0.70741 0.93912 0.0
C1037 C 0.53465 0.70181 0.93645 0.0
C1038 C 0.56714 0.69508 0.91102 0.0
C1039 C 0.58687 0.70091 0.90442 0.0
C1040 C 0.59157 0.71813 0.86927 0.0
C1041 C 0.61012 0.72359 0.86301 0.0
C1042 C 0.62414 0.71197 0.8916 0.0
C1043 C 0.61965 0.69484 0.92653 0.0
C1044 C 0.60113 0.6893 0.93293 0.0
C1045 C 0.5183 0.62607 0.84707 0.0
C1046 C 0.5273 0.61357 0.89931 0.0
C1047 C 0.5246 0.64433 0.83972 0.0
C1048 C 0.53941 0.65065 0.88798 0.0
C1049 C 0.54883 0.63798 0.93808 0.0
C1050 C 0.54292 0.61955 0.94319 0.0
C1051 C 0.5436 0.67075 0.89535 0.0
C1052 C 0.56206 0.67683 0.88976 0.0
C1053 C 0.52966 0.68362 0.91646 0.0
C1054 C 0.51005 0.67809 0.92774 0.0
C1055 C 0.50503 0.66554 0.98957 0.0
C1056 C 0.48653 0.6602 -0.00086 0.0
C1057 C 0.47291 0.66749 0.94776 0.0
C1058 C 0.47778 0.68018 0.8869 0.0
C1059 C 0.49627 0.68554 0.87701 0.0
H1060 H 0.45859 0.66333 0.95523 0.0
H1061 H 0.63849 0.71624 0.88672 0.0
H1062 H 0.78832 0.57292 0.13855 0.0
H1063 H 0.81339 0.57967 0.0435 0.0
H1064 H 0.81177 0.52289 0.96005 0.0
H1065 H 0.78649 0.51636 0.05349 0.0
H1066 H 0.84019 0.55847 0.10802 0.0
H1067 H 0.84272 0.51636 0.80562 0.0
H1068 H 0.82304 0.51136 0.68481 0.0
H1069 H 0.79776 0.5646 0.72042 0.0
H1070 H 0.81749 0.5701 0.8407 0.0
H1071 H 0.92103 0.5068 0.06643 0.0
H1072 H 0.88855 0.51628 0.06389 0.0
H1073 H 0.90092 0.55689 0.87815 0.0
H1074 H 0.93331 0.54702 0.8783 0.0
H1075 H 0.86836 0.53822 0.84778 0.0
H1076 H 0.89707 0.57009 0.07625 0.0
H1077 H 0.91507 0.57174 0.20394 0.0
H1078 H 0.8757 0.53585 0.32152 0.0
H1079 H 0.85759 0.53377 0.19434 0.0
C1080 C 0.79232 0.56235 0.09513 0.0
C1081 C 0.78585 0.54408 0.10381 0.0
C1082 C 0.80672 0.56617 0.04096 0.0
C1083 C 0.81482 0.55164 0.99661 0.0
C1084 C 0.80581 0.53433 0.99371 0.0
C1085 C 0.79129 0.53057 0.04729 0.0
C1086 C 0.83501 0.5521 0.98151 0.0
C1087 C 0.84634 0.55447 0.0504 0.0
C1088 C 0.843 0.54649 0.90697 0.0
C1089 C 0.83154 0.5436 0.83276 0.0
C1090 C 0.83309 0.52709 0.78741 0.0
C1091 C 0.82186 0.52413 0.71914 0.0
C1092 C 0.80906 0.53759 0.69536 0.0
C1093 C 0.80759 0.55413 0.73926 0.0
C1094 C 0.81878 0.55717 0.80758 0.0
C1095 C 0.9168 0.51767 0.02483 0.0
C1096 C 0.92974 0.52639 0.97367 0.0
C1097 C 0.8983 0.52313 0.02365 0.0
C1098 C 0.89246 0.53752 0.97188 0.0
C1099 C 0.90522 0.5459 0.91906 0.0
C1100 C 0.92372 0.5404 0.92003 0.0
C1101 C 0.87313 0.54408 0.97483 0.0
C1102 C 0.86212 0.54284 0.9043 0.0
C1103 C 0.8652 0.5503 0.04851 0.0
C1104 C 0.87602 0.55173 0.12546 0.0
C1105 C 0.8923 0.56248 0.12918 0.0
C1106 C 0.90251 0.56349 0.20153 0.0
C1107 C 0.89653 0.55389 0.27077 0.0
C1108 C 0.8803 0.54328 0.26787 0.0
C1109 C 0.87005 0.54221 0.19568 0.0
H1110 H 0.90446 0.55469 0.32669 0.0
H1111 H 0.80032 0.53524 0.64271 0.0
H1112 H 1.00774 0.23291 0.90054 0.0
H1113 H 1.00746 0.2042 0.81951 0.0
H1114 H 0.05027 0.18149 0.97315 0.0
H1115 H 0.05076 0.21011 0.05286 0.0
H1116 H 0.05592 0.17044 0.82235 0.0
H1117 H 1.00324 0.17164 0.00384 0.0
H1118 H 0.97449 0.18454 0.06138 0.0
H1119 H 0.94863 0.18209 0.82586 0.0
H1120 H 0.97734 0.16935 0.76675 0.0
H1121 H 0.0398 0.07286 0.82798 0.0
H1122 H 0.04101 0.10586 0.86384 0.0
H1123 H 1.00724 0.119 0.65511 0.0
H1124 H 1.00634 0.08597 0.61748 0.0
H1125 H 0.99603 0.13649 0.81103 0.0
H1126 H 0.04853 0.13069 0.63615 0.0
H1127 H 0.0773 0.11642 0.58562 0.0
H1128 H 0.10368 0.12661 0.81596 0.0
H1129 H 0.07496 0.14068 0.86833 0.0
C1130 C 0.01745 0.22199 0.9155 0.0
C1131 C 0.02922 0.2238 0.98351 0.0
C1132 C 0.01713 0.20546 0.86972 0.0
C1133 C 0.02859 0.19039 0.89089 0.0
C1134 C 0.04121 0.19275 0.95538 0.0
C1135 C 0.04147 0.20916 0.00113 0.0
C1136 C 0.02682 0.17177 0.8503 0.0
C1137 C 0.04281 0.16305 0.82024 0.0
C1138 C 1.00969 0.16207 0.84551 0.0
C1139 C 0.99247 0.16975 0.88076 0.0
C1140 C 0.99146 0.17398 0.96425 0.0
C1141 C 0.97517 0.18124 0.99717 0.0
C1142 C 0.95976 0.18418 0.94727 0.0
C1143 C 0.96059 0.17983 0.86439 0.0
C1144 C 0.97686 0.17258 0.83116 0.0
C1145 C 0.03261 0.08273 0.78956 0.0
C1146 C 0.02299 0.07667 0.71972 0.0
C1147 C 0.03336 0.10164 0.81006 0.0
C1148 C 0.02427 0.11499 0.76214 0.0
C1149 C 1.01439 0.109 0.69306 0.0
C1150 C 1.01394 0.09009 0.6715 0.0
C1151 C 0.02518 0.1351 0.78503 0.0
C1152 C 1.00906 0.14404 0.8119 0.0
C1153 C 0.0422 0.14494 0.78766 0.0
C1154 C 0.05954 0.13659 0.75638 0.0
C1155 C 0.06041 0.12974 0.67627 0.0
C1156 C 0.07672 0.12172 0.64725 0.0
C1157 C 0.0923 0.12057 0.69761 0.0
C1158 C 0.0916 0.12749 0.77705 0.0
C1159 C 0.07532 0.13551 0.80641 0.0
H1160 H 0.10491 0.11436 0.67503 0.0
H1161 H 0.94716 0.18979 0.97286 0.0
H1162 H 0.30681 0.03792 0.86478 0.0
H1163 H 0.33743 0.03567 0.79841 0.0
H1164 H 0.35739 1.00292 -0.00016 0.0
H1165 H 0.32723 1.00519 0.06561 0.0
H1166 H 0.37988 0.033 0.96908 0.0
H1167 H 0.34997 0.98395 0.81739 0.0
H1168 H 0.3266 0.97037 0.72523 0.0
H1169 H 0.34371 1.00736 0.53453 0.0
H1170 H 0.3668 0.02169 0.62655 0.0
H1171 H 0.46952 1.00549 0.85867 0.0
H1172 H 0.43695 1.00652 0.89804 0.0
H1173 H 0.4226 0.02741 0.65992 0.0
H1174 H 0.45515 0.02513 0.61851 0.0
H1175 H 0.39641 1.00621 0.70092 0.0
H1176 H 0.42526 0.05599 0.84522 0.0
H1177 H 0.44811 0.07157 0.93408 0.0
H1178 H 0.43251 0.03608 0.133 0.0
H1179 H 0.40984 0.02009 0.04482 0.0
C1180 C 0.31764 0.0299 0.8937 0.0
C1181 C 0.31459 0.0218 0.97065 0.0
C1182 C 0.33518 0.02868 0.85601 0.0
C1183 C 0.34993 0.01932 0.89463 0.0
C1184 C 0.34646 1.01047 0.96928 0.0
C1185 C 0.32911 1.01167 0.00658 0.0
C1186 C 0.36932 0.01955 0.86153 0.0
C1187 C 0.38349 0.02699 0.91065 0.0
C1188 C 0.37409 1.01238 0.784 0.0
C1189 C 0.35997 1.00406 0.72921 0.0
C1190 C 0.34857 0.98942 0.75622 0.0
C1191 C 0.33537 0.98159 0.704 0.0
C1192 C 0.33359 0.98812 0.62424 0.0
C1193 C 0.34502 1.00248 0.59653 0.0
C1194 C 0.35814 1.01047 0.6487 0.0
C1195 C 0.45944 1.01026 0.81453 0.0
C1196 C 0.46505 1.01535 0.73559 0.0
C1197 C 0.44072 1.01102 0.83735 0.0
C1198 C 0.42707 0.01755 0.783 0.0
C1199 C 0.43266 0.02234 0.70349 0.0
C1200 C 0.45136 0.0211 0.67987 0.0
C1201 C 0.40713 0.01935 0.80933 0.0
C1202 C 0.39285 1.01237 0.75904 0.0
C1203 C 0.40213 0.02731 0.88531 0.0
C1204 C 0.41588 0.0368 0.93834 0.0
C1205 C 0.42679 0.05144 0.90777 0.0
C1206 C 0.43971 0.06035 0.958 0.0
C1207 C 0.44177 0.05481 0.03911 0.0
C1208 C 0.4309 0.04036 0.07017 0.0
C1209 C 0.41799 0.03139 0.02013 0.0
H1210 H 0.45177 0.06173 0.07791 0.0
H1211 H 0.32341 0.982 0.58378 0.0
H1212 H 0.54835 0.31389 0.98963 0.0
H1213 H 0.54645 0.34438 0.92469 0.0
H1214 H 0.48857 0.33502 0.87372 0.0
H1215 H 0.49048 0.30423 0.93925 0.0
H1216 H 0.50806 0.35577 0.74772 0.0
H1217 H 0.49923 0.35669 0.03949 0.0
H1218 H 0.50834 0.34891 0.18021 0.0
H1219 H 0.55856 0.38041 0.15247 0.0
H1220 H 0.54999 0.38796 0.01076 0.0
H1221 H 0.49594 0.46181 0.85691 0.0
H1222 H 0.49605 0.42894 0.89517 0.0
H1223 H 0.53221 0.41697 0.69308 0.0
H1224 H 0.53147 0.44959 0.6526 0.0
H1225 H 0.52135 0.40632 0.94513 0.0
H1226 H 0.52879 0.37455 0.63122 0.0
H1227 H 0.52166 0.38172 0.48724 0.0
H1228 H 0.4739 0.41268 0.56222 0.0
H1229 H 0.48073 0.40542 0.70621 0.0
C1230 C 0.53534 0.31808 0.96236 0.0
C1231 C 0.51955 0.30667 0.96961 0.0
C1232 C 0.53425 0.33557 0.92561 0.0
C1233 C 0.5173 0.3422 0.89556 0.0
C1234 C 0.5018 0.33025 0.89669 0.0
C1235 C 0.5029 0.31262 0.93375 0.0
C1236 C 0.51552 0.36218 0.87153 0.0
C1237 C 0.51086 0.36682 0.79099 0.0
C1238 C 0.51918 0.37671 0.92779 0.0
C1239 C 0.52403 0.37276 0.01413 0.0
C1240 C 0.51227 0.36187 0.06318 0.0
C1241 C 0.51735 0.35748 0.14312 0.0
C1242 C 0.53405 0.3641 0.17518 0.0
C1243 C 0.54565 0.37523 0.12749 0.0
C1244 C 0.54069 0.37956 0.04732 0.0
C1245 C 0.5038 0.45216 0.82019 0.0
C1246 C 0.51355 0.45841 0.7512 0.0
C1247 C 0.5039 0.43331 0.84232 0.0
C1248 C 0.51386 0.42019 0.7965 0.0
C1249 C 0.52393 0.42653 0.72844 0.0
C1250 C 0.52359 0.44531 0.70552 0.0
C1251 C 0.51394 0.40006 0.8209 0.0
C1252 C 0.51835 0.39534 0.9018 0.0
C1253 C 0.51004 0.3855 0.76505 0.0
C1254 C 0.50526 0.38936 0.67896 0.0
C1255 C 0.51667 0.38266 0.61647 0.0
C1256 C 0.51273 0.38682 0.5351 0.0
C1257 C 0.49734 0.39766 0.5156 0.0
C1258 C 0.48583 0.40429 0.57742 0.0
C1259 C 0.48972 0.40014 0.6589 0.0
H1260 H 0.49434 0.40093 0.45261 0.0
H1261 H 0.53798 0.36062 0.23697 0.0
H1262 H 0.22505 0.54109 0.95531 0.0
H1263 H 0.19392 0.54289 0.89594 0.0
H1264 H 0.19676 0.48485 0.83206 0.0
H1265 H 0.22737 0.48288 0.89628 0.0
H1266 H 0.17508 0.53867 0.76478 0.0
H1267 H 0.15558 0.46359 0.8557 0.0
H1268 H 0.16564 0.43944 0.95256 0.0
H1269 H 0.18642 0.48138 0.11464 0.0
H1270 H 0.17608 0.50587 0.01969 0.0
H1271 H 0.08545 0.51799 0.60585 0.0
H1272 H 0.11834 0.51756 0.64219 0.0
H1273 H 0.10386 0.51294 0.89622 0.0
H1274 H 0.07102 0.51274 0.86008 0.0
H1275 H 0.13117 0.49151 0.87188 0.0
H1276 H 0.1194 0.55419 0.80518 0.0
H1277 H 0.10881 0.58082 0.72336 0.0
H1278 H 0.14929 0.56832 0.54029 0.0
H1279 H 0.15987 0.54132 0.62028 0.0
C1280 C 0.21925 0.5289 0.92606 0.0
C1281 C 0.22869 0.51188 0.9299 0.0
C1282 C 0.20135 0.52988 0.89252 0.0
C1283 C 0.19257 0.51388 0.86132 0.0
C1284 C 0.20284 0.4973 0.85786 0.0
C1285 C 0.22052 0.49622 0.89327 0.0
C1286 C 0.17232 0.51419 0.83915 0.0
C1287 C 0.16554 0.52824 0.78767 0.0
C1288 C 0.15952 0.50104 0.87101 0.0
C1289 C 0.16521 0.48654 0.93014 0.0
C1290 C 0.16216 0.46767 0.9123 0.0
C1291 C 0.16791 0.45394 0.96688 0.0
C1292 C 0.17668 0.4589 0.03965 0.0
C1293 C 0.17961 0.47761 0.05828 0.0
C1294 C 0.17378 0.49142 0.00416 0.0
C1295 C 0.08923 0.51688 0.66953 0.0
C1296 C 0.07544 0.51544 0.72999 0.0
C1297 C 0.10813 0.51674 0.69036 0.0
C1298 C 0.1138 0.51549 0.77234 0.0
C1299 C 0.10002 0.51389 0.83255 0.0
C1300 C 0.08115 0.51383 0.81173 0.0
C1301 C 0.13397 0.5157 0.79559 0.0
C1302 C 0.14071 0.50186 0.84821 0.0
C1303 C 0.14659 0.52936 0.76662 0.0
C1304 C 0.14025 0.54555 0.71817 0.0
C1305 C 0.12591 0.55697 0.74703 0.0
C1306 C 0.11992 0.57215 0.70102 0.0
C1307 C 0.12831 0.57619 0.62644 0.0
C1308 C 0.14276 0.56511 0.59792 0.0
C1309 C 0.14875 0.54986 0.64354 0.0
H1310 H 0.12367 0.58796 0.59091 0.0
H1311 H 0.1812 0.44824 0.08166 0.0
H1312 H 0.04055 0.80901 0.35074 0.0
H1313 H 0.04517 0.83987 0.41226 0.0
H1314 H 0.98708 0.84191 0.47248 0.0
H1315 H 0.98265 0.81113 0.41271 0.0
H1316 H 0.03082 0.87191 0.36271 0.0
H1317 H 0.97816 0.86756 0.6226 0.0
H1318 H 0.96596 0.84307 0.71334 0.0
H1319 H 0.01883 0.81597 0.71216 0.0
H1320 H 0.03124 0.84012 0.62033 0.0
H1321 H 1.00426 0.96366 0.46695 0.0
H1322 H 1.0043 0.93065 0.43152 0.0
H1323 H 0.03269 0.91813 0.65562 0.0
H1324 H 0.03179 0.951 0.69396 0.0
H1325 H 1.00749 0.89256 0.63185 0.0
H1326 H 0.0551 0.91968 0.4669 0.0
H1327 H 0.06866 0.94157 0.36774 0.0
H1328 H 0.03083 0.9222 0.1841 0.0
H1329 H 0.01685 0.9004 0.28255 0.0
C1330 C 0.029 0.81576 0.38041 0.0
C1331 C 1.01135 0.80744 0.37904 0.0
C1332 C 0.03156 0.83353 0.41442 0.0
C1333 C 0.01652 0.84333 0.44783 0.0
C1334 C 0.99904 0.83463 0.44905 0.0
C1335 C 0.99651 0.81694 0.4152 0.0
C1336 C 0.01862 0.86308 0.47591 0.0
C1337 C 0.02581 0.87639 0.42174 0.0
C1338 C 1.01239 0.86908 0.55332 0.0
C1339 C 1.00556 0.85556 0.61438 0.0
C1340 C 0.98722 0.85648 0.64243 0.0
C1341 C 0.98023 0.84257 0.69341 0.0
C1342 C 0.99159 0.82792 0.718 0.0
C1343 C 1.01002 0.82725 0.69253 0.0
C1344 C 0.01701 0.841 0.6408 0.0
C1345 C 1.01039 0.95389 0.5092 0.0
C1346 C 0.01802 0.96011 0.58339 0.0
C1347 C 1.0105 0.93496 0.48858 0.0
C1348 C 0.01862 0.92174 0.5407 0.0
C1349 C 0.0261 0.92792 0.61502 0.0
C1350 C 0.02569 0.9468 0.63649 0.0
C1351 C 0.01938 0.90155 0.51787 0.0
C1352 C 1.01268 0.88814 0.57306 0.0
C1353 C 0.02642 0.89544 0.44176 0.0
C1354 C 0.03482 0.90853 0.38238 0.0
C1355 C 0.04958 0.92019 0.40556 0.0
C1356 C 0.05735 0.93257 0.34945 0.0
C1357 C 0.05058 0.93331 0.26974 0.0
C1358 C 0.03604 0.92164 0.24591 0.0
C1359 C 0.0282 0.90926 0.30183 0.0
H1360 H 0.05662 0.9429 0.22639 0.0
H1361 H 0.98614 0.81707 0.75682 0.0
H1362 H 0.73444 0.04457 0.44276 0.0
H1363 H 0.70492 0.04198 0.51592 0.0
H1364 H 0.69464 0.98916 0.39981 0.0
H1365 H 0.72453 0.99143 0.3303 0.0
H1366 H 0.67253 0.04315 0.46033 0.0
H1367 H 0.66293 0.96323 0.49754 0.0
H1368 H 0.68181 0.93566 0.52895 0.0
H1369 H 0.72173 0.97004 0.65189 0.0
H1370 H 0.70296 0.99777 0.62213 0.0
H1371 H 0.57755 0.0183 0.48055 0.0
H1372 H 0.61056 0.01902 0.44702 0.0
H1373 H 0.62424 1.00831 0.69824 0.0
H1374 H 0.59118 1.00782 0.73268 0.0
H1375 H 0.6456 0.98707 0.59057 0.0
H1376 H 0.62962 0.04984 0.6337 0.0
H1377 H 0.61149 0.07857 0.61885 0.0
H1378 H 0.62512 0.08086 0.36479 0.0
H1379 H 0.64287 0.05182 0.37725 0.0
C1380 C 0.72618 0.03208 0.4357 0.0
C1381 C 0.73201 0.01798 0.38249 0.0
C1382 C 0.70915 0.0307 0.4766 0.0
C1383 C 0.69732 1.01533 0.46414 0.0
C1384 C 0.70349 1.00097 0.41267 0.0
C1385 C 0.72067 1.00223 0.3729 0.0
C1386 C 0.67803 1.01507 0.499 0.0
C1387 C 0.66677 0.03085 0.48897 0.0
C1388 C 0.67031 0.99924 0.53819 0.0
C1389 C 0.68161 0.98261 0.55697 0.0
C1390 C 0.67569 0.9649 0.53158 0.0
C1391 C 0.68639 0.94924 0.54902 0.0
C1392 C 0.70299 0.9511 0.59218 0.0
C1393 C 0.7089 0.96862 0.61821 0.0
C1394 C 0.69825 0.98432 0.60097 0.0
C1395 C 0.58753 1.01599 0.5288 0.0
C1396 C 0.58159 1.01298 0.60943 0.0
C1397 C 0.60646 0.01647 0.50948 0.0
C1398 C 0.61999 1.01377 0.57002 0.0
C1399 C 0.61412 1.01039 0.65031 0.0
C1400 C 0.59517 1.01018 0.66995 0.0
C1401 C 0.64018 1.01488 0.54934 0.0
C1402 C 0.65151 0.99931 0.56203 0.0
C1403 C 0.64813 0.03104 0.51452 0.0
C1404 C 0.6374 0.04849 0.50625 0.0
C1405 C 0.62855 0.05632 0.57434 0.0
C1406 C 0.61834 0.07268 0.56633 0.0
C1407 C 0.61706 0.08148 0.49073 0.0
C1408 C 0.62603 0.07397 0.42309 0.0
C1409 C 0.63615 0.05754 0.43056 0.0
H1410 H 0.60918 0.09417 0.48463 0.0
H1411 H 0.71125 0.93896 0.60558 0.0
H1412 H 0.49859 0.72599 0.3671 0.0
H1413 H 0.49344 0.6952 0.4288 0.0
H1414 H 0.55182 0.69134 0.48207 0.0
H1415 H 0.5568 0.72202 0.42216 0.0
H1416 H 0.50667 0.66251 0.37828 0.0
H1417 H 0.56098 0.66713 0.63106 0.0
H1418 H 0.57371 0.69191 0.71902 0.0
H1419 H 0.52052 0.71834 0.72585 0.0
H1420 H 0.5076 0.69394 0.63657 0.0
H1421 H 0.53142 0.57025 0.48199 0.0
H1422 H 0.53172 0.60318 0.44489 0.0
H1423 H 0.50662 0.61686 0.67476 0.0
H1424 H 0.50739 0.58407 0.71475 0.0
H1425 H 0.53116 0.64185 0.64587 0.0
H1426 H 0.48199 0.61551 0.48779 0.0
H1427 H 0.46714 0.5938 0.39137 0.0
H1428 H 0.50395 0.61195 0.2019 0.0
H1429 H 0.51922 0.63355 0.29753 0.0
C1430 C 0.51013 0.71885 0.39517 0.0
C1431 C 0.52801 0.72661 0.39187 0.0
C1432 C 0.50725 0.70113 0.42929 0.0
C1433 C 0.5222 0.69086 0.46094 0.0
C1434 C 0.53995 0.69899 0.46003 0.0
C1435 C 0.54279 0.71662 0.42606 0.0
C1436 C 0.51971 0.67123 0.48988 0.0
C1437 C 0.51193 0.658 0.43694 0.0
C1438 C 0.52619 0.66525 0.56697 0.0
C1439 C 0.53338 0.6788 0.62705 0.0
C1440 C 0.55198 0.67813 0.65211 0.0
C1441 C 0.55926 0.69221 0.70139 0.0
C1442 C 0.54795 0.70676 0.72737 0.0
C1443 C 0.52929 0.70714 0.7051 0.0
C1444 C 0.522 0.69325 0.6549 0.0
C1445 C 0.52608 0.58028 0.52504 0.0
C1446 C 0.51938 0.57444 0.60139 0.0
C1447 C 0.52614 0.59916 0.50351 0.0
C1448 C 0.51902 0.61269 0.5568 0.0
C1449 C 0.51242 0.60684 0.63317 0.0
C1450 C 0.51275 0.58802 0.65561 0.0
C1451 C 0.51846 0.63286 0.53333 0.0
C1452 C 0.52571 0.64624 0.5874 0.0
C1453 C 0.51103 0.63901 0.45781 0.0
C1454 C 0.50186 0.62603 0.40009 0.0
C1455 C 0.48701 0.61477 0.42573 0.0
C1456 C 0.4785 0.60249 0.3712 0.0
C1457 C 0.48462 0.60146 0.29063 0.0
C1458 C 0.49924 0.61274 0.26437 0.0
C1459 C 0.50782 0.62501 0.31871 0.0
H1460 H 0.47802 0.59195 0.2485 0.0
H1461 H 0.55362 0.71774 0.76488 0.0
H1462 H 0.82263 0.50646 0.27148 0.0
H1463 H 0.8523 0.50449 0.34055 0.0
H1464 H 0.82973 0.53356 0.54699 0.0
H1465 H 0.79983 0.53632 0.47547 0.0
H1466 H 0.86155 0.54682 0.52513 0.0
H1467 H 0.84232 0.4847 0.54969 0.0
H1468 H 0.82951 0.45422 0.5101 0.0
H1469 H 0.87417 0.44657 0.34114 0.0
H1470 H 0.88713 0.47713 0.37885 0.0
H1471 H 0.94882 0.52648 0.7302 0.0
H1472 H 0.91575 0.52652 0.69463 0.0
H1473 H 0.92934 0.51239 0.44681 0.0
H1474 H 0.96228 0.5125 0.48139 0.0
H1475 H 0.9005 0.49029 0.51321 0.0
H1476 H 0.91648 0.55654 0.49134 0.0
H1477 H 0.92868 0.58574 0.54952 0.0
H1478 H 0.88858 0.58277 0.74216 0.0
H1479 H 0.87623 0.5535 0.68528 0.0
C1480 C 0.8238 0.51215 0.33236 0.0
C1481 C 0.80871 0.52149 0.36791 0.0
C1482 C 0.84086 0.51089 0.37239 0.0
C1483 C 0.84341 0.51848 0.45054 0.0
C1484 C 0.82818 0.52734 0.48745 0.0
C1485 C 0.811 0.52875 0.44686 0.0
C1486 C 0.86222 0.51792 0.49054 0.0
C1487 C 0.86984 0.53429 0.52375 0.0
C1488 C 0.87335 0.50168 0.48996 0.0
C1489 C 0.86563 0.48328 0.46674 0.0
C1490 C 0.84935 0.47658 0.50366 0.0
C1491 C 0.84207 0.45928 0.48161 0.0
C1492 C 0.851 0.44848 0.42303 0.0
C1493 C 0.86726 0.45495 0.38648 0.0
C1494 C 0.8746 0.47225 0.40826 0.0
C1495 C 0.9448 0.52345 0.66801 0.0
C1496 C 0.95835 0.51955 0.60867 0.0
C1497 C 0.92584 0.52351 0.6477 0.0
C1498 C 0.91995 0.5195 0.5678 0.0
C1499 C 0.93345 0.51551 0.50883 0.0
C1500 C 0.95235 0.51567 0.52874 0.0
C1501 C 0.89982 0.51923 0.54489 0.0
C1502 C 0.89201 0.50268 0.51509 0.0
C1503 C 0.88836 0.53508 0.55134 0.0
C1504 C 0.89553 0.55282 0.58439 0.0
C1505 C 0.91032 0.5621 0.54624 0.0
C1506 C 0.91724 0.57866 0.57892 0.0
C1507 C 0.90943 0.58609 0.64955 0.0
C1508 C 0.89462 0.57701 0.68745 0.0
C1509 C 0.88762 0.56046 0.65492 0.0
H1510 H 0.91483 0.59889 0.67483 0.0
H1511 H 0.84534 0.43509 0.40607 0.0
loop_
_geom_bond_atom_site_label_1
_geom_bond_atom_site_label_2
_geom_bond_distance
_geom_bond_site_symmetry_2
_ccdc_geom_bond_type
H0 C1 0.949 . S
C1 H0 0.949 . S
C1 C2 1.395 . S
C1 C3 1.391 . S
C2 C1 1.395 . S
C2 C5 1.390 . S
C3 C1 1.391 . S
C3 C7 1.387 . S
C3 C8 1.491 . S
H4 C5 0.950 . S
C5 C2 1.390 . S
C5 H4 0.950 . S
C5 C6 1.378 . S
C6 C5 1.378 . S
C6 C7 1.409 . S
C7 C3 1.387 . S
C7 C6 1.409 . S
C7 H9 0.951 . S
C8 C3 1.491 . S
C8 C10 1.382 . S
C8 C12 1.404 . S
H9 C7 0.951 . S
C10 C8 1.382 . S
C10 C11 1.390 . S
C10 H15 0.949 . S
C11 C10 1.390 . S
C11 C16 1.399 . S
C12 C8 1.404 . S
C12 H13 0.950 . S
C12 C14 1.375 . S
H13 C12 0.950 . S
C14 C12 1.375 . S
C14 C16 1.382 . S
C14 H18 0.950 . S
H15 C10 0.949 . S
C16 C11 1.399 . S
C16 C14 1.382 . S
C16 H17 0.952 . S
H17 C16 0.952 . S
H18 C14 0.950 . S
H19 C20 0.949 . S
C20 H19 0.949 . S
C20 C21 1.395 . S
C20 C22 1.391 . S
C21 C20 1.395 . S
C21 C24 1.390 . S
C22 C20 1.391 . S
C22 C26 1.387 . S
C22 C27 1.491 . S
H23 C24 0.950 1_455 S
C24 C21 1.390 . S
C24 H23 0.950 1_655 S
C24 C25 1.378 . S
C25 C24 1.378 . S
C25 C26 1.409 . S
C26 C22 1.387 . S
C26 C25 1.409 . S
C26 H28 0.951 . S
C27 C22 1.491 . S
C27 C29 1.382 . S
C27 C31 1.404 . S
H28 C26 0.951 . S
C29 C27 1.382 . S
C29 C30 1.390 . S
C29 H34 0.949 1_655 S
C30 C29 1.390 . S
C30 C35 1.399 . S
C31 C27 1.404 . S
C31 H32 0.950 . S
C31 C33 1.375 . S
H32 C31 0.950 . S
C33 C31 1.375 . S
C33 C35 1.382 . S
C33 H37 0.950 . S
H34 C29 0.949 1_455 S
C35 C30 1.399 . S
C35 C33 1.382 . S
C35 H36 0.952 . S
H36 C35 0.952 . S
H37 C33 0.950 . S
H38 C39 0.949 . S
C39 H38 0.949 . S
C39 C40 1.395 . S
C39 C41 1.391 . S
C40 C39 1.395 . S
C40 C43 1.390 . S
C41 C39 1.391 . S
C41 C45 1.387 . S
C41 C46 1.491 . S
H42 C43 0.950 . S
C43 C40 1.390 . S
C43 H42 0.950 . S
C43 C44 1.378 . S
C44 C43 1.378 . S
C44 C45 1.409 . S
C45 C41 1.387 . S
C45 C44 1.409 . S
C45 H47 0.951 . S
C46 C41 1.491 . S
C46 C48 1.382 . S
C46 C50 1.404 . S
H47 C45 0.951 . S
C48 C46 1.382 . S
C48 C49 1.390 . S
C48 H53 0.949 1_565 S
C49 C48 1.390 . S
C49 C54 1.399 . S
C50 C46 1.404 . S
C50 H51 0.950 . S
C50 C52 1.375 . S
H51 C50 0.950 . S
C52 C50 1.375 . S
C52 C54 1.382 . S
C52 H56 0.950 . S
H53 C48 0.949 1_545 S
C54 C49 1.399 . S
C54 C52 1.382 . S
C54 H55 0.952 . S
H55 C54 0.952 . S
H56 C52 0.950 . S
H57 C58 0.949 . S
C58 H57 0.949 . S
C58 C59 1.395 . S
C58 C60 1.391 . S
C59 C58 1.395 . S
C59 C62 1.390 . S
C60 C58 1.391 . S
C60 C64 1.387 . S
C60 C65 1.491 . S
H61 C62 0.950 . S
C62 C59 1.390 . S
C62 H61 0.950 . S
C62 C63 1.378 . S
C63 C62 1.378 . S
C63 C64 1.409 . S
C64 C60 1.387 . S
C64 C63 1.409 . S
C64 H66 0.951 . S
C65 C60 1.491 . S
C65 C67 1.382 . S
C65 C69 1.404 . S
H66 C64 0.951 . S
C67 C65 1.382 . S
C67 C68 1.390 . S
C67 H72 0.949 . S
C68 C67 1.390 . S
C68 C73 1.399 . S
C69 C65 1.404 . S
C69 H70 0.950 . S
C69 C71 1.375 . S
H70 C69 0.950 . S
C71 C69 1.375 . S
C71 C73 1.382 . S
C71 H75 0.950 . S
H72 C67 0.949 . S
C73 C68 1.399 . S
C73 C71 1.382 . S
C73 H74 0.952 . S
H74 C73 0.952 . S
H75 C71 0.950 . S
H76 C77 0.949 . S
C77 H76 0.949 . S
C77 C78 1.395 . S
C77 C79 1.391 1_554 S
C78 C77 1.395 . S
C78 C81 1.390 1_554 S
C79 C77 1.391 1_556 S
C79 C83 1.387 . S
C79 C84 1.491 . S
H80 C81 0.950 . S
C81 C78 1.390 1_556 S
C81 H80 0.950 . S
C81 C82 1.378 . S
C82 C81 1.378 . S
C82 C83 1.409 . S
C83 C79 1.387 . S
C83 C82 1.409 . S
C83 H85 0.951 . S
C84 C79 1.491 . S
C84 C86 1.382 1_556 S
C84 C88 1.404 . S
H85 C83 0.951 . S
C86 C84 1.382 1_554 S
C86 C87 1.390 . S
C86 H91 0.949 . S
C87 C86 1.390 . S
C87 C92 1.399 1_554 S
C88 C84 1.404 . S
C88 H89 0.950 . S
C88 C90 1.375 . S
H89 C88 0.950 . S
C90 C88 1.375 . S
C90 C92 1.382 . S
C90 H94 0.950 . S
H91 C86 0.949 . S
C92 C87 1.399 1_556 S
C92 C90 1.382 . S
C92 H93 0.952 . S
H93 C92 0.952 . S
H94 C90 0.950 . S
H95 C96 0.949 . S
C96 H95 0.949 . S
C96 C97 1.395 . S
C96 C98 1.391 1_554 S
C97 C96 1.395 . S
C97 C100 1.390 1_554 S
C98 C96 1.391 1_556 S
C98 C102 1.387 . S
C98 C103 1.491 . S
H99 C100 0.950 . S
C100 C97 1.390 1_556 S
C100 H99 0.950 . S
C100 C101 1.378 . S
C101 C100 1.378 . S
C101 C102 1.409 . S
C102 C98 1.387 . S
C102 C101 1.409 . S
C102 H104 0.951 . S
C103 C98 1.491 . S
C103 C105 1.382 1_556 S
C103 C107 1.404 1_455 S
H104 C102 0.951 . S
C105 C103 1.382 1_554 S
C105 C106 1.390 . S
C105 H110 0.949 . S
C106 C105 1.390 . S
C106 C111 1.399 1_454 S
C107 C103 1.404 1_655 S
C107 H108 0.950 . S
C107 C109 1.375 . S
H108 C107 0.950 . S
C109 C107 1.375 . S
C109 C111 1.382 . S
C109 H113 0.950 . S
H110 C105 0.949 . S
C111 C106 1.399 1_656 S
C111 C109 1.382 . S
C111 H112 0.952 . S
H112 C111 0.952 . S
H113 C109 0.950 . S
H114 C115 0.949 . S
C115 H114 0.949 . S
C115 C116 1.395 . S
C115 C117 1.391 1_554 S
C116 C115 1.395 . S
C116 C119 1.390 1_554 S
C117 C115 1.391 1_556 S
C117 C121 1.387 . S
C117 C122 1.491 . S
H118 C119 0.950 . S
C119 C116 1.390 1_556 S
C119 H118 0.950 . S
C119 C120 1.378 . S
C120 C119 1.378 . S
C120 C121 1.409 . S
C121 C117 1.387 . S
C121 C120 1.409 . S
C121 H123 0.951 . S
C122 C117 1.491 . S
C122 C124 1.382 1_556 S
C122 C126 1.404 1_545 S
H123 C121 0.951 . S
C124 C122 1.382 1_554 S
C124 C125 1.390 . S
C124 H129 0.949 . S
C125 C124 1.390 . S
C125 C130 1.399 1_544 S
C126 C122 1.404 1_565 S
C126 H127 0.950 . S
C126 C128 1.375 . S
H127 C126 0.950 . S
C128 C126 1.375 . S
C128 C130 1.382 . S
C128 H132 0.950 . S
H129 C124 0.949 . S
C130 C125 1.399 1_566 S
C130 C128 1.382 . S
C130 H131 0.952 . S
H131 C130 0.952 . S
H132 C128 0.950 . S
H133 C134 0.949 . S
C134 H133 0.949 . S
C134 C135 1.395 . S
C134 C136 1.391 1_554 S
C135 C134 1.395 . S
C135 C138 1.390 1_554 S
C136 C134 1.391 1_556 S
C136 C140 1.387 . S
C136 C141 1.491 . S
H137 C138 0.950 . S
C138 C135 1.390 1_556 S
C138 H137 0.950 . S
C138 C139 1.378 . S
C139 C138 1.378 . S
C139 C140 1.409 . S
C140 C136 1.387 . S
C140 C139 1.409 . S
C140 H142 0.951 . S
C141 C136 1.491 . S
C141 C143 1.382 1_556 S
C141 C145 1.404 . S
H142 C140 0.951 . S
C143 C141 1.382 1_554 S
C143 C144 1.390 . S
C143 H148 0.949 . S
C144 C143 1.390 . S
C144 C149 1.399 1_554 S
C145 C141 1.404 . S
C145 H146 0.950 . S
C145 C147 1.375 . S
H146 C145 0.950 . S
C147 C145 1.375 . S
C147 C149 1.382 . S
C147 H151 0.950 . S
H148 C143 0.949 . S
C149 C144 1.399 1_556 S
C149 C147 1.382 . S
C149 H150 0.952 . S
H150 C149 0.952 . S
H151 C147 0.950 . S
Gd152 C155 2.818 . S
Gd152 O172 2.377 . S
Gd152 O174 2.448 . S
Gd152 O175 2.506 . S
Gd152 O176 2.435 . S
Gd152 O177 2.717 1_565 S
Gd152 O179 2.395 1_565 S
Gd152 O183 2.327 1_455 S
Gd153 C164 2.818 . S
Gd153 O173 2.395 1_545 S
Gd153 O177 2.327 1_655 S
Gd153 O178 2.377 . S
Gd153 O180 2.448 . S
Gd153 O181 2.506 1_655 S
Gd153 O182 2.435 . S
Gd153 O183 2.717 1_545 S
C154 O172 1.240 1_655 S
C154 O173 1.240 . S
C155 Gd152 2.818 . S
C155 C156 1.510 . S
C155 O174 1.249 . S
C155 O175 1.252 . S
C156 C155 1.510 . S
C156 C157 1.404 . S
C156 C158 1.352 . S
C157 C156 1.404 . S
C157 C161 1.389 . S
C157 H184 0.930 . S
C158 C156 1.352 . S
C158 C160 1.374 . S
C158 H185 0.931 1_455 S
C159 C160 1.359 . S
C159 C161 1.364 . S
C160 C158 1.374 . S
C160 C159 1.359 . S
C160 H186 0.931 1_455 S
C161 C157 1.389 . S
C161 C159 1.364 . S
C161 H187 0.931 . S
C162 O176 1.256 1_545 S
C162 O177 1.257 . S
C163 O178 1.240 1_455 S
C163 O179 1.240 . S
C164 Gd153 2.818 . S
C164 C165 1.510 . S
C164 O180 1.249 . S
C164 O181 1.252 1_655 S
C165 C164 1.510 . S
C165 C166 1.404 . S
C165 C167 1.352 1_655 S
C166 C165 1.404 . S
C166 C170 1.389 . S
C166 H188 0.930 . S
C167 C165 1.352 1_455 S
C167 C169 1.374 . S
C167 H189 0.931 . S
C168 C169 1.359 1_655 S
C168 C170 1.364 . S
C169 C167 1.374 . S
C169 C168 1.359 1_455 S
C169 H190 0.931 . S
C170 C166 1.389 . S
C170 C168 1.364 . S
C170 H191 0.931 . S
C171 O182 1.256 . S
C171 O183 1.257 1_545 S
O172 Gd152 2.377 . S
O172 C154 1.240 1_455 S
O173 Gd153 2.395 1_565 S
O173 C154 1.240 . S
O174 Gd152 2.448 . S
O174 C155 1.249 . S
O175 Gd152 2.506 . S
O175 C155 1.252 . S
O176 Gd152 2.435 . S
O176 C162 1.256 1_565 S
O177 Gd152 2.717 1_545 S
O177 Gd153 2.327 1_455 S
O177 C162 1.257 . S
O178 Gd153 2.377 . S
O178 C163 1.240 1_655 S
O179 Gd152 2.395 1_545 S
O179 C163 1.240 . S
O180 Gd153 2.448 . S
O180 C164 1.249 . S
O181 Gd153 2.506 1_455 S
O181 C164 1.252 1_455 S
O182 Gd153 2.435 . S
O182 C171 1.256 . S
O183 Gd152 2.327 1_655 S
O183 Gd153 2.717 1_565 S
O183 C171 1.257 1_565 S
H184 C157 0.930 . S
H185 C158 0.931 1_655 S
H186 C160 0.931 1_655 S
H187 C161 0.931 . S
H188 C166 0.930 . S
H189 C167 0.931 . S
H190 C169 0.931 . S
H191 C170 0.931 . S
Gd192 C195 2.818 . S
Gd192 O212 2.377 . S
Gd192 O214 2.448 . S
Gd192 O215 2.506 . S
Gd192 O216 2.435 . S
Gd192 O217 2.717 . S
Gd192 O219 2.395 . S
Gd192 O223 2.327 1_545 S
Gd193 C204 2.818 . S
Gd193 O213 2.395 . S
Gd193 O217 2.327 1_565 S
Gd193 O218 2.377 . S
Gd193 O220 2.448 . S
Gd193 O221 2.506 1_565 S
Gd193 O222 2.435 . S
Gd193 O223 2.717 . S
C194 O212 1.240 1_565 S
C194 O213 1.240 . S
C195 Gd192 2.818 . S
C195 C196 1.510 . S
C195 O214 1.249 . S
C195 O215 1.252 . S
C196 C195 1.510 . S
C196 C197 1.404 . S
C196 C198 1.352 . S
C197 C196 1.404 . S
C197 C201 1.389 . S
C197 H224 0.930 . S
C198 C196 1.352 . S
C198 C200 1.374 . S
C198 H225 0.931 1_545 S
C199 C200 1.359 . S
C199 C201 1.364 . S
C200 C198 1.374 . S
C200 C199 1.359 . S
C200 H226 0.931 1_545 S
C201 C197 1.389 . S
C201 C199 1.364 . S
C201 H227 0.931 . S
C202 O216 1.256 . S
C202 O217 1.257 . S
C203 O218 1.240 1_545 S
C203 O219 1.240 . S
C204 Gd193 2.818 . S
C204 C205 1.510 . S
C204 O220 1.249 . S
C204 O221 1.252 1_565 S
C205 C204 1.510 . S
C205 C206 1.404 . S
C205 C207 1.352 1_565 S
C206 C205 1.404 . S
C206 C210 1.389 . S
C206 H228 0.930 . S
C207 C205 1.352 1_545 S
C207 C209 1.374 . S
C207 H229 0.931 . S
C208 C209 1.359 1_565 S
C208 C210 1.364 . S
C209 C207 1.374 . S
C209 C208 1.359 1_545 S
C209 H230 0.931 . S
C210 C206 1.389 . S
C210 C208 1.364 . S
C210 H231 0.931 . S
C211 O222 1.256 . S
C211 O223 1.257 . S
O212 Gd192 2.377 . S
O212 C194 1.240 1_545 S
O213 Gd193 2.395 . S
O213 C194 1.240 . S
O214 Gd192 2.448 . S
O214 C195 1.249 . S
O215 Gd192 2.506 . S
O215 C195 1.252 . S
O216 Gd192 2.435 . S
O216 C202 1.256 . S
O217 Gd192 2.717 . S
O217 Gd193 2.327 1_545 S
O217 C202 1.257 . S
O218 Gd193 2.377 . S
O218 C203 1.240 1_565 S
O219 Gd192 2.395 . S
O219 C203 1.240 . S
O220 Gd193 2.448 . S
O220 C204 1.249 . S
O221 Gd193 2.506 1_545 S
O221 C204 1.252 1_545 S
O222 Gd193 2.435 . S
O222 C211 1.256 . S
O223 Gd192 2.327 1_565 S
O223 Gd193 2.717 . S
O223 C211 1.257 . S
H224 C197 0.930 . S
H225 C198 0.931 1_565 S
H226 C200 0.931 1_565 S
H227 C201 0.931 . S
H228 C206 0.930 . S
H229 C207 0.931 . S
H230 C209 0.931 . S
H231 C210 0.931 . S
Gd232 C235 2.818 . S
Gd232 O252 2.377 . S
Gd232 O254 2.448 . S
Gd232 O255 2.506 . S
Gd232 O256 2.435 . S
Gd232 O257 2.717 . S
Gd232 O259 2.395 . S
Gd232 O263 2.327 . S
Gd233 C244 2.818 . S
Gd233 O253 2.395 . S
Gd233 O257 2.327 . S
Gd233 O258 2.377 . S
Gd233 O260 2.448 . S
Gd233 O261 2.506 . S
Gd233 O262 2.435 . S
Gd233 O263 2.717 . S
C234 O252 1.240 . S
C234 O253 1.240 . S
C235 Gd232 2.818 . S
C235 C236 1.510 . S
C235 O254 1.249 . S
C235 O255 1.252 . S
C236 C235 1.510 . S
C236 C237 1.404 . S
C236 C238 1.352 . S
C237 C236 1.404 . S
C237 C241 1.389 . S
C237 H264 0.930 . S
C238 C236 1.352 . S
C238 C240 1.374 . S
C238 H265 0.931 . S
C239 C240 1.359 . S
C239 C241 1.364 . S
C240 C238 1.374 . S
C240 C239 1.359 . S
C240 H266 0.931 . S
C241 C237 1.389 . S
C241 C239 1.364 . S
C241 H267 0.931 . S
C242 O256 1.256 . S
C242 O257 1.257 . S
C243 O258 1.240 . S
C243 O259 1.240 . S
C244 Gd233 2.818 . S
C244 C245 1.510 . S
C244 O260 1.249 . S
C244 O261 1.252 . S
C245 C244 1.510 . S
C245 C246 1.404 . S
C245 C247 1.352 . S
C246 C245 1.404 . S
C246 C250 1.389 . S
C246 H268 0.930 . S
C247 C245 1.352 . S
C247 C249 1.374 . S
C247 H269 0.931 . S
C248 C249 1.359 . S
C248 C250 1.364 . S
C249 C247 1.374 . S
C249 C248 1.359 . S
C249 H270 0.931 . S
C250 C246 1.389 . S
C250 C248 1.364 . S
C250 H271 0.931 . S
C251 O262 1.256 . S
C251 O263 1.257 . S
O252 Gd232 2.377 . S
O252 C234 1.240 . S
O253 Gd233 2.395 . S
O253 C234 1.240 . S
O254 Gd232 2.448 . S
O254 C235 1.249 . S
O255 Gd232 2.506 . S
O255 C235 1.252 . S
O256 Gd232 2.435 . S
O256 C242 1.256 . S
O257 Gd232 2.717 . S
O257 Gd233 2.327 . S
O257 C242 1.257 . S
O258 Gd233 2.377 . S
O258 C243 1.240 . S
O259 Gd232 2.395 . S
O259 C243 1.240 . S
O260 Gd233 2.448 . S
O260 C244 1.249 . S
O261 Gd233 2.506 . S
O261 C244 1.252 . S
O262 Gd233 2.435 . S
O262 C251 1.256 . S
O263 Gd232 2.327 . S
O263 Gd233 2.717 . S
O263 C251 1.257 . S
H264 C237 0.930 . S
H265 C238 0.931 . S
H266 C240 0.931 . S
H267 C241 0.931 . S
H268 C246 0.930 . S
H269 C247 0.931 . S
H270 C249 0.931 . S
H271 C250 0.931 . S
Gd272 C275 2.818 . S
Gd272 O292 2.377 . S
Gd272 O294 2.448 . S
Gd272 O295 2.506 . S
Gd272 O296 2.435 . S
Gd272 O297 2.717 1_655 S
Gd272 O299 2.395 1_655 S
Gd272 O303 2.326 1_655 S
Gd273 C284 2.818 . S
Gd273 O293 2.395 1_455 S
Gd273 O297 2.327 . S
Gd273 O298 2.377 . S
Gd273 O300 2.448 . S
Gd273 O301 2.506 . S
Gd273 O302 2.435 . S
Gd273 O303 2.719 . S
C274 O292 1.240 . S
C274 O293 1.240 . S
C275 Gd272 2.818 . S
C275 C276 1.510 . S
C275 O294 1.249 . S
C275 O295 1.252 . S
C276 C275 1.510 . S
C276 C277 1.404 . S
C276 C278 1.352 . S
C277 C276 1.404 . S
C277 C281 1.389 . S
C277 H304 0.930 . S
C278 C276 1.352 . S
C278 C280 1.374 . S
C278 H305 0.931 . S
C279 C280 1.359 . S
C279 C281 1.364 . S
C280 C278 1.374 . S
C280 C279 1.359 . S
C280 H306 0.931 . S
C281 C277 1.389 . S
C281 C279 1.364 . S
C281 H307 0.931 . S
C282 O296 1.256 1_455 S
C282 O297 1.257 . S
C283 O298 1.240 . S
C283 O299 1.240 . S
C284 Gd273 2.818 . S
C284 C285 1.510 . S
C284 O300 1.249 . S
C284 O301 1.252 . S
C285 C284 1.510 . S
C285 C286 1.404 . S
C285 C287 1.352 . S
C286 C285 1.404 . S
C286 C290 1.389 . S
C286 H308 0.930 . S
C287 C285 1.352 . S
C287 C289 1.374 . S
C287 H309 0.931 . S
C288 C289 1.359 . S
C288 C290 1.364 . S
C289 C287 1.374 . S
C289 C288 1.359 . S
C289 H310 0.931 . S
C290 C286 1.389 . S
C290 C288 1.364 . S
C290 H311 0.931 . S
C291 O302 1.256 . S
C291 O303 1.259 . S
O292 Gd272 2.377 . S
O292 C274 1.240 . S
O293 Gd273 2.395 1_655 S
O293 C274 1.240 . S
O294 Gd272 2.448 . S
O294 C275 1.249 . S
O295 Gd272 2.506 . S
O295 C275 1.252 . S
O296 Gd272 2.435 . S
O296 C282 1.256 1_655 S
O297 Gd272 2.717 1_455 S
O297 Gd273 2.327 . S
O297 C282 1.257 . S
O298 Gd273 2.377 . S
O298 C283 1.240 . S
O299 Gd272 2.395 1_455 S
O299 C283 1.240 . S
O300 Gd273 2.448 . S
O300 C284 1.249 . S
O301 Gd273 2.506 . S
O301 C284 1.252 . S
O302 Gd273 2.435 . S
O302 C291 1.256 . S
O303 Gd272 2.326 1_455 S
O303 Gd273 2.719 . S
O303 C291 1.259 . S
H304 C277 0.930 . S
H305 C278 0.931 . S
H306 C280 0.931 . S
H307 C281 0.931 . S
H308 C286 0.930 . S
H309 C287 0.931 . S
H310 C289 0.931 . S
H311 C290 0.931 . S
H312 C330 0.951 . S
H313 C332 0.951 . S
H314 C334 0.950 1_565 S
H315 C335 0.950 1_565 S
H316 C337 0.950 . S
H317 C340 0.950 . S
H318 C341 0.950 . S
H319 C343 0.950 . S
H320 C344 0.950 1_545 S
H321 C345 0.951 . S
H322 C347 0.953 . S
H323 C349 0.950 . S
H324 C350 0.950 . S
H325 C352 0.950 1_565 S
H326 C355 0.950 . S
H327 C356 0.950 . S
H328 C358 0.950 . S
H329 C359 0.950 . S
C330 H312 0.951 . S
C330 C331 1.366 . S
C330 C332 1.388 . S
C331 C330 1.366 . S
C331 C335 1.385 . S
C332 H313 0.951 . S
C332 C330 1.388 . S
C332 C333 1.366 . S
C333 C332 1.366 . S
C333 C334 1.414 . S
C333 C336 1.499 . S
C334 H314 0.950 1_545 S
C334 C333 1.414 . S
C334 C335 1.374 . S
C335 H315 0.950 1_545 S
C335 C331 1.385 . S
C335 C334 1.374 . S
C336 C333 1.499 . S
C336 C337 1.373 . S
C336 C338 1.389 . S
C337 H316 0.950 . S
C337 C336 1.373 . S
C337 C353 1.377 . S
C338 C336 1.389 . S
C338 C339 1.524 1_545 S
C338 C352 1.377 . S
C339 C338 1.524 1_565 S
C339 C340 1.397 . S
C339 C344 1.363 . S
C340 H317 0.950 . S
C340 C339 1.397 . S
C340 C341 1.334 . S
C341 H318 0.950 . S
C341 C340 1.334 . S
C341 C342 1.287 . S
C342 C341 1.287 . S
C342 C343 1.524 . S
C342 H361 0.913 . S
C343 H319 0.950 . S
C343 C342 1.524 . S
C343 C344 1.415 . S
C344 H320 0.950 1_565 S
C344 C339 1.363 . S
C344 C343 1.415 . S
C345 H321 0.951 . S
C345 C346 1.366 1_565 S
C345 C347 1.388 . S
C346 C345 1.366 1_545 S
C346 C350 1.385 . S
C347 H322 0.953 . S
C347 C345 1.388 . S
C347 C348 1.363 1_565 S
C348 C347 1.363 1_545 S
C348 C349 1.414 . S
C348 C351 1.499 . S
C349 H323 0.950 . S
C349 C348 1.414 . S
C349 C350 1.374 . S
C350 H324 0.950 . S
C350 C346 1.385 . S
C350 C349 1.374 . S
C351 C348 1.499 . S
C351 C352 1.373 . S
C351 C353 1.389 . S
C352 H325 0.950 1_545 S
C352 C338 1.377 . S
C352 C351 1.373 . S
C353 C337 1.377 . S
C353 C351 1.389 . S
C353 C354 1.524 . S
C354 C353 1.524 . S
C354 C355 1.397 . S
C354 C359 1.363 . S
C355 H326 0.950 . S
C355 C354 1.397 . S
C355 C356 1.334 . S
C356 H327 0.950 . S
C356 C355 1.334 . S
C356 C357 1.287 . S
C357 C356 1.287 . S
C357 C358 1.524 . S
C357 H360 0.999 . S
C358 H328 0.950 . S
C358 C357 1.524 . S
C358 C359 1.415 . S
C359 H329 0.950 . S
C359 C354 1.363 . S
C359 C358 1.415 . S
H360 C357 0.999 . S
H361 C342 0.913 . S
H362 C380 0.951 . S
H363 C382 0.951 . S
H364 C384 0.950 . S
H365 C385 0.950 . S
H366 C387 0.950 . S
H367 C390 0.950 . S
H368 C391 0.950 . S
H369 C393 0.950 . S
H370 C394 0.950 . S
H371 C395 0.951 . S
H372 C397 0.951 . S
H373 C399 0.950 . S
H374 C400 0.950 . S
H375 C402 0.950 . S
H376 C405 0.950 . S
H377 C406 0.950 . S
H378 C408 0.950 . S
H379 C409 0.950 . S
C380 H362 0.951 . S
C380 C381 1.366 . S
C380 C382 1.388 . S
C381 C380 1.366 . S
C381 C385 1.385 . S
C382 H363 0.951 . S
C382 C380 1.388 . S
C382 C383 1.366 . S
C383 C382 1.366 . S
C383 C384 1.414 . S
C383 C386 1.499 . S
C384 H364 0.950 . S
C384 C383 1.414 . S
C384 C385 1.374 . S
C385 H365 0.950 . S
C385 C381 1.385 . S
C385 C384 1.374 . S
C386 C383 1.499 . S
C386 C387 1.373 . S
C386 C388 1.389 . S
C387 H366 0.950 . S
C387 C386 1.373 . S
C387 C403 1.377 . S
C388 C386 1.389 . S
C388 C389 1.524 . S
C388 C402 1.377 . S
C389 C388 1.524 . S
C389 C390 1.397 . S
C389 C394 1.363 . S
C390 H367 0.950 . S
C390 C389 1.397 . S
C390 C391 1.334 . S
C391 H368 0.950 . S
C391 C390 1.334 . S
C391 C392 1.287 . S
C392 C391 1.287 . S
C392 C393 1.524 . S
C392 H411 0.913 . S
C393 H369 0.950 . S
C393 C392 1.524 . S
C393 C394 1.415 . S
C394 H370 0.950 . S
C394 C389 1.363 . S
C394 C393 1.415 . S
C395 H371 0.951 . S
C395 C396 1.366 . S
C395 C397 1.388 . S
C396 C395 1.366 . S
C396 C400 1.385 . S
C397 H372 0.951 . S
C397 C395 1.388 . S
C397 C398 1.366 . S
C398 C397 1.366 . S
C398 C399 1.414 . S
C398 C401 1.499 . S
C399 H373 0.950 . S
C399 C398 1.414 . S
C399 C400 1.374 . S
C400 H374 0.950 . S
C400 C396 1.385 . S
C400 C399 1.374 . S
C401 C398 1.499 . S
C401 C402 1.373 . S
C401 C403 1.389 . S
C402 H375 0.950 . S
C402 C388 1.377 . S
C402 C401 1.373 . S
C403 C387 1.377 . S
C403 C401 1.389 . S
C403 C404 1.524 . S
C404 C403 1.524 . S
C404 C405 1.397 . S
C404 C409 1.363 . S
C405 H376 0.950 . S
C405 C404 1.397 . S
C405 C406 1.334 . S
C406 H377 0.950 . S
C406 C405 1.334 . S
C406 C407 1.287 . S
C407 C406 1.287 . S
C407 C408 1.524 . S
C407 H410 0.999 . S
C408 H378 0.950 . S
C408 C407 1.524 . S
C408 C409 1.415 . S
C409 H379 0.950 . S
C409 C404 1.363 . S
C409 C408 1.415 . S
H410 C407 0.999 . S
H411 C392 0.913 . S
H412 C430 0.951 . S
H413 C432 0.951 . S
H414 C434 0.950 . S
H415 C435 0.950 . S
H416 C437 0.950 . S
H417 C440 0.950 . S
H418 C441 0.950 . S
H419 C443 0.950 . S
H420 C444 0.950 . S
H421 C445 0.951 . S
H422 C447 0.951 . S
H423 C449 0.950 . S
H424 C450 0.950 . S
H425 C452 0.950 . S
H426 C455 0.950 . S
H427 C456 0.950 . S
H428 C458 0.950 . S
H429 C459 0.950 . S
C430 H412 0.951 . S
C430 C431 1.366 . S
C430 C432 1.388 . S
C431 C430 1.366 . S
C431 C435 1.385 . S
C432 H413 0.951 . S
C432 C430 1.388 . S
C432 C433 1.366 . S
C433 C432 1.366 . S
C433 C434 1.414 . S
C433 C436 1.499 . S
C434 H414 0.950 . S
C434 C433 1.414 . S
C434 C435 1.374 . S
C435 H415 0.950 . S
C435 C431 1.385 . S
C435 C434 1.374 . S
C436 C433 1.499 . S
C436 C437 1.373 . S
C436 C438 1.389 . S
C437 H416 0.950 . S
C437 C436 1.373 . S
C437 C453 1.377 . S
C438 C436 1.389 . S
C438 C439 1.524 . S
C438 C452 1.377 . S
C439 C438 1.524 . S
C439 C440 1.397 . S
C439 C444 1.363 . S
C440 H417 0.950 . S
C440 C439 1.397 . S
C440 C441 1.334 . S
C441 H418 0.950 . S
C441 C440 1.334 . S
C441 C442 1.287 . S
C442 C441 1.287 . S
C442 C443 1.524 . S
C442 H461 0.913 . S
C443 H419 0.950 . S
C443 C442 1.524 . S
C443 C444 1.415 . S
C444 H420 0.950 . S
C444 C439 1.363 . S
C444 C443 1.415 . S
C445 H421 0.951 . S
C445 C446 1.366 . S
C445 C447 1.388 . S
C446 C445 1.366 . S
C446 C450 1.385 . S
C447 H422 0.951 . S
C447 C445 1.388 . S
C447 C448 1.366 . S
C448 C447 1.366 . S
C448 C449 1.414 . S
C448 C451 1.499 . S
C449 H423 0.950 . S
C449 C448 1.414 . S
C449 C450 1.374 . S
C450 H424 0.950 . S
C450 C446 1.385 . S
C450 C449 1.374 . S
C451 C448 1.499 . S
C451 C452 1.373 . S
C451 C453 1.389 . S
C452 H425 0.950 . S
C452 C438 1.377 . S
C452 C451 1.373 . S
C453 C437 1.377 . S
C453 C451 1.389 . S
C453 C454 1.524 . S
C454 C453 1.524 . S
C454 C455 1.397 . S
C454 C459 1.363 . S
C455 H426 0.950 . S
C455 C454 1.397 . S
C455 C456 1.334 . S
C456 H427 0.950 . S
C456 C455 1.334 . S
C456 C457 1.287 . S
C457 C456 1.287 . S
C457 C458 1.524 . S
C457 H460 0.999 . S
C458 H428 0.950 . S
C458 C457 1.524 . S
C458 C459 1.415 . S
C459 H429 0.950 . S
C459 C454 1.363 . S
C459 C458 1.415 . S
H460 C457 0.999 . S
H461 C442 0.913 . S
H462 C480 0.951 . S
H463 C482 0.951 . S
H464 C484 0.950 . S
H465 C485 0.950 . S
H466 C487 0.950 . S
H467 C490 0.950 . S
H468 C491 0.950 . S
H469 C493 0.950 . S
H470 C494 0.950 . S
H471 C495 0.951 . S
H472 C497 0.951 . S
H473 C499 0.950 . S
H474 C500 0.950 . S
H475 C502 0.950 . S
H476 C505 0.950 1_455 S
H477 C506 0.950 . S
H478 C508 0.950 . S
H479 C509 0.950 . S
C480 H462 0.951 . S
C480 C481 1.366 . S
C480 C482 1.388 . S
C481 C480 1.366 . S
C481 C485 1.385 1_455 S
C482 H463 0.951 . S
C482 C480 1.388 . S
C482 C483 1.366 . S
C483 C482 1.366 . S
C483 C484 1.414 1_455 S
C483 C486 1.499 . S
C484 H464 0.950 . S
C484 C483 1.414 1_655 S
C484 C485 1.374 . S
C485 H465 0.950 . S
C485 C481 1.385 1_655 S
C485 C484 1.374 . S
C486 C483 1.499 . S
C486 C487 1.373 1_455 S
C486 C488 1.389 . S
C487 H466 0.950 . S
C487 C486 1.373 1_655 S
C487 C503 1.377 . S
C488 C486 1.389 . S
C488 C489 1.524 . S
C488 C502 1.377 . S
C489 C488 1.524 . S
C489 C490 1.397 . S
C489 C494 1.363 . S
C490 H467 0.950 . S
C490 C489 1.397 . S
C490 C491 1.334 . S
C491 H468 0.950 . S
C491 C490 1.334 . S
C491 C492 1.287 . S
C492 C491 1.287 . S
C492 C493 1.524 . S
C492 H511 0.913 . S
C493 H469 0.950 . S
C493 C492 1.524 . S
C493 C494 1.415 . S
C494 H470 0.950 . S
C494 C489 1.363 . S
C494 C493 1.415 . S
C495 H471 0.951 . S
C495 C496 1.366 1_655 S
C495 C497 1.388 . S
C496 C495 1.366 1_455 S
C496 C500 1.385 . S
C497 H472 0.951 . S
C497 C495 1.388 . S
C497 C498 1.366 1_655 S
C498 C497 1.366 1_455 S
C498 C499 1.414 . S
C498 C501 1.499 . S
C499 H473 0.950 . S
C499 C498 1.414 . S
C499 C500 1.374 . S
C500 H474 0.950 . S
C500 C496 1.385 . S
C500 C499 1.374 . S
C501 C498 1.499 . S
C501 C502 1.373 . S
C501 C503 1.389 1_455 S
C502 H475 0.950 . S
C502 C488 1.377 . S
C502 C501 1.373 . S
C503 C487 1.377 . S
C503 C501 1.389 1_655 S
C503 C504 1.524 . S
C504 C503 1.524 . S
C504 C505 1.397 . S
C504 C509 1.363 . S
C505 H476 0.950 1_655 S
C505 C504 1.397 . S
C505 C506 1.334 . S
C506 H477 0.950 . S
C506 C505 1.334 . S
C506 C507 1.287 . S
C507 C506 1.287 . S
C507 C508 1.524 . S
C507 H510 0.999 . S
C508 H478 0.950 . S
C508 C507 1.524 . S
C508 C509 1.415 . S
C509 H479 0.950 . S
C509 C504 1.363 . S
C509 C508 1.415 . S
H510 C507 0.999 . S
H511 C492 0.913 . S
H512 C530 0.951 . S
H513 C532 0.951 . S
H514 C534 0.950 . S
H515 C535 0.950 . S
H516 C537 0.950 . S
H517 C540 0.950 1_554 S
H518 C541 0.950 1_554 S
H519 C543 0.950 . S
H520 C544 0.950 . S
H521 C545 0.951 . S
H522 C547 0.951 . S
H523 C549 0.950 . S
H524 C550 0.950 . S
H525 C552 0.950 . S
H526 C555 0.950 1_556 S
H527 C556 0.950 . S
H528 C558 0.950 . S
H529 C559 0.950 . S
C530 H512 0.951 . S
C530 C531 1.366 1_545 S
C530 C532 1.388 . S
C531 C530 1.366 1_565 S
C531 C535 1.385 . S
C532 H513 0.951 . S
C532 C530 1.388 . S
C532 C533 1.366 1_545 S
C533 C532 1.366 1_565 S
C533 C534 1.414 . S
C533 C536 1.499 . S
C534 H514 0.950 . S
C534 C533 1.414 . S
C534 C535 1.374 . S
C535 H515 0.950 . S
C535 C531 1.385 . S
C535 C534 1.374 . S
C536 C533 1.499 . S
C536 C537 1.373 1_565 S
C536 C538 1.389 1_554 S
C537 H516 0.950 . S
C537 C536 1.373 1_545 S
C537 C553 1.377 . S
C538 C536 1.389 1_556 S
C538 C539 1.524 . S
C538 C552 1.377 . S
C539 C538 1.524 . S
C539 C540 1.397 . S
C539 C544 1.363 . S
C540 H517 0.950 1_556 S
C540 C539 1.397 . S
C540 C541 1.334 . S
C541 H518 0.950 1_556 S
C541 C540 1.334 . S
C541 C542 1.287 . S
C542 C541 1.287 . S
C542 C543 1.524 . S
C542 H561 0.913 . S
C543 H519 0.950 . S
C543 C542 1.524 . S
C543 C544 1.415 . S
C544 H520 0.950 . S
C544 C539 1.363 . S
C544 C543 1.415 . S
C545 H521 0.951 . S
C545 C546 1.349 1_565 S
C545 C547 1.388 . S
C546 C545 1.349 1_545 S
C546 C550 1.403 . S
C547 H522 0.951 . S
C547 C545 1.388 . S
C547 C548 1.353 1_565 S
C548 C547 1.353 1_545 S
C548 C549 1.427 . S
C548 C551 1.498 . S
C549 H523 0.950 . S
C549 C548 1.427 . S
C549 C550 1.374 . S
C550 H524 0.950 . S
C550 C546 1.403 . S
C550 C549 1.374 . S
C551 C548 1.498 . S
C551 C552 1.367 1_545 S
C551 C553 1.394 1_556 S
C552 H525 0.950 . S
C552 C538 1.377 . S
C552 C551 1.367 1_565 S
C553 C537 1.377 . S
C553 C551 1.394 1_554 S
C553 C554 1.524 . S
C554 C553 1.524 . S
C554 C555 1.397 . S
C554 C559 1.363 . S
C555 H526 0.950 1_554 S
C555 C554 1.397 . S
C555 C556 1.334 . S
C556 H527 0.950 . S
C556 C555 1.334 . S
C556 C557 1.287 . S
C557 C556 1.287 . S
C557 C558 1.524 . S
C557 H560 0.999 . S
C558 H528 0.950 . S
C558 C557 1.524 . S
C558 C559 1.415 . S
C559 H529 0.950 . S
C559 C554 1.363 . S
C559 C558 1.415 . S
H560 C557 0.999 . S
H561 C542 0.913 . S
H562 C580 0.951 . S
H563 C582 0.951 . S
H564 C584 0.950 . S
H565 C585 0.950 . S
H566 C587 0.950 . S
H567 C590 0.950 . S
H568 C591 0.950 . S
H569 C593 0.950 . S
H570 C594 0.950 . S
H571 C595 0.951 . S
H572 C597 0.951 . S
H573 C599 0.950 . S
H574 C600 0.950 . S
H575 C602 0.950 . S
H576 C605 0.950 . S
H577 C606 0.950 . S
H578 C608 0.950 . S
H579 C609 0.950 . S
C580 H562 0.951 . S
C580 C581 1.366 . S
C580 C582 1.388 . S
C581 C580 1.366 . S
C581 C585 1.385 . S
C582 H563 0.951 . S
C582 C580 1.388 . S
C582 C583 1.366 . S
C583 C582 1.366 . S
C583 C584 1.414 . S
C583 C586 1.499 . S
C584 H564 0.950 . S
C584 C583 1.414 . S
C584 C585 1.374 . S
C585 H565 0.950 . S
C585 C581 1.385 . S
C585 C584 1.374 . S
C586 C583 1.499 . S
C586 C587 1.373 1_554 S
C586 C588 1.389 . S
C587 H566 0.950 . S
C587 C586 1.373 1_556 S
C587 C603 1.377 . S
C588 C586 1.389 . S
C588 C589 1.524 . S
C588 C602 1.377 . S
C589 C588 1.524 . S
C589 C590 1.397 . S
C589 C594 1.363 . S
C590 H567 0.950 . S
C590 C589 1.397 . S
C590 C591 1.334 . S
C591 H568 0.950 . S
C591 C590 1.334 . S
C591 C592 1.287 . S
C592 C591 1.287 . S
C592 C593 1.524 . S
C592 H611 0.913 . S
C593 H569 0.950 . S
C593 C592 1.524 . S
C593 C594 1.415 . S
C594 H570 0.950 . S
C594 C589 1.363 . S
C594 C593 1.415 . S
C595 H571 0.951 . S
C595 C596 1.366 . S
C595 C597 1.388 . S
C596 C595 1.366 . S
C596 C600 1.385 . S
C597 H572 0.951 . S
C597 C595 1.388 . S
C597 C598 1.366 . S
C598 C597 1.366 . S
C598 C599 1.414 . S
C598 C601 1.499 . S
C599 H573 0.950 . S
C599 C598 1.414 . S
C599 C600 1.374 . S
C600 H574 0.950 . S
C600 C596 1.385 . S
C600 C599 1.374 . S
C601 C598 1.499 . S
C601 C602 1.373 1_556 S
C601 C603 1.389 . S
C602 H575 0.950 . S
C602 C588 1.377 . S
C602 C601 1.373 1_554 S
C603 C587 1.377 . S
C603 C601 1.389 . S
C603 C604 1.524 . S
C604 C603 1.524 . S
C604 C605 1.397 . S
C604 C609 1.363 . S
C605 H576 0.950 . S
C605 C604 1.397 . S
C605 C606 1.334 . S
C606 H577 0.950 . S
C606 C605 1.334 . S
C606 C607 1.287 . S
C607 C606 1.287 . S
C607 C608 1.524 . S
C607 H610 0.999 . S
C608 H578 0.950 . S
C608 C607 1.524 . S
C608 C609 1.415 . S
C609 H579 0.950 . S
C609 C604 1.363 . S
C609 C608 1.415 . S
H610 C607 0.999 . S
H611 C592 0.913 . S
H612 C630 0.951 . S
H613 C632 0.951 . S
H614 C634 0.950 . S
H615 C635 0.950 . S
H616 C637 0.950 . S
H617 C640 0.950 . S
H618 C641 0.950 . S
H619 C643 0.950 . S
H620 C644 0.950 . S
H621 C645 0.951 . S
H622 C647 0.951 . S
H623 C649 0.950 . S
H624 C650 0.950 . S
H625 C652 0.950 . S
H626 C655 0.950 . S
H627 C656 0.950 . S
H628 C658 0.950 1_556 S
H629 C659 0.950 1_556 S
C630 H612 0.951 . S
C630 C631 1.366 . S
C630 C632 1.388 . S
C631 C630 1.366 . S
C631 C635 1.385 . S
C632 H613 0.951 . S
C632 C630 1.388 . S
C632 C633 1.366 . S
C633 C632 1.366 . S
C633 C634 1.414 . S
C633 C636 1.499 . S
C634 H614 0.950 . S
C634 C633 1.414 . S
C634 C635 1.374 . S
C635 H615 0.950 . S
C635 C631 1.385 . S
C635 C634 1.374 . S
C636 C633 1.499 . S
C636 C637 1.373 . S
C636 C638 1.389 . S
C637 H616 0.950 . S
C637 C636 1.373 . S
C637 C653 1.377 . S
C638 C636 1.389 . S
C638 C639 1.524 . S
C638 C652 1.377 1_554 S
C639 C638 1.524 . S
C639 C640 1.397 1_554 S
C639 C644 1.363 . S
C640 H617 0.950 . S
C640 C639 1.397 1_556 S
C640 C641 1.334 . S
C641 H618 0.950 . S
C641 C640 1.334 . S
C641 C642 1.287 . S
C642 C641 1.287 . S
C642 C643 1.524 1_556 S
C642 H661 0.913 . S
C643 H619 0.950 . S
C643 C642 1.524 1_554 S
C643 C644 1.415 . S
C644 H620 0.950 . S
C644 C639 1.363 . S
C644 C643 1.415 . S
C645 H621 0.951 . S
C645 C646 1.366 . S
C645 C647 1.388 . S
C646 C645 1.366 . S
C646 C650 1.385 . S
C647 H622 0.951 . S
C647 C645 1.388 . S
C647 C648 1.366 . S
C648 C647 1.366 . S
C648 C649 1.414 . S
C648 C651 1.499 . S
C649 H623 0.950 . S
C649 C648 1.414 . S
C649 C650 1.374 . S
C650 H624 0.950 . S
C650 C646 1.385 . S
C650 C649 1.374 . S
C651 C648 1.499 . S
C651 C652 1.373 . S
C651 C653 1.389 1_556 S
C652 H625 0.950 . S
C652 C638 1.377 1_556 S
C652 C651 1.373 . S
C653 C637 1.377 . S
C653 C651 1.389 1_554 S
C653 C654 1.524 . S
C654 C653 1.524 . S
C654 C655 1.397 . S
C654 C659 1.363 . S
C655 H626 0.950 . S
C655 C654 1.397 . S
C655 C656 1.334 . S
C656 H627 0.950 . S
C656 C655 1.334 . S
C656 C657 1.287 . S
C657 C656 1.287 . S
C657 C658 1.524 . S
C657 H660 0.999 . S
C658 H628 0.950 1_554 S
C658 C657 1.524 . S
C658 C659 1.415 . S
C659 H629 0.950 1_554 S
C659 C654 1.363 . S
C659 C658 1.415 . S
H660 C657 0.999 . S
H661 C642 0.913 . S
H662 C680 0.951 . S
H663 C682 0.951 . S
H664 C684 0.956 . S
H665 C685 0.950 . S
H666 C687 0.950 . S
H667 C690 0.950 . S
H668 C691 0.950 . S
H669 C693 0.950 . S
H670 C694 0.950 . S
H671 C695 0.951 . S
H672 C697 0.951 . S
H673 C699 0.953 . S
H674 C700 0.950 . S
H675 C702 0.950 . S
H676 C705 0.950 . S
H677 C706 0.950 . S
H678 C708 0.950 . S
H679 C709 0.950 . S
C680 H662 0.951 . S
C680 C681 1.366 . S
C680 C682 1.388 . S
C681 C680 1.366 . S
C681 C685 1.385 . S
C682 H663 0.951 . S
C682 C680 1.388 . S
C682 C683 1.366 . S
C683 C682 1.366 . S
C683 C684 1.414 . S
C683 C686 1.499 . S
C684 H664 0.956 . S
C684 C683 1.414 . S
C684 C685 1.374 . S
C685 H665 0.950 . S
C685 C681 1.385 . S
C685 C684 1.374 . S
C686 C683 1.499 . S
C686 C687 1.373 1_655 S
C686 C688 1.389 . S
C687 H666 0.950 . S
C687 C686 1.373 1_455 S
C687 C703 1.377 . S
C688 C686 1.389 . S
C688 C689 1.524 1_554 S
C688 C702 1.377 1_554 S
C689 C688 1.524 1_556 S
C689 C690 1.397 1_556 S
C689 C694 1.363 . S
C690 H667 0.950 . S
C690 C689 1.397 1_554 S
C690 C691 1.334 . S
C691 H668 0.950 . S
C691 C690 1.334 . S
C691 C692 1.287 1_554 S
C692 C691 1.287 1_556 S
C692 C693 1.524 . S
C692 H711 0.913 . S
C693 H669 0.950 . S
C693 C692 1.524 . S
C693 C694 1.415 . S
C694 H670 0.950 . S
C694 C689 1.363 . S
C694 C693 1.415 . S
C695 H671 0.951 . S
C695 C696 1.366 . S
C695 C697 1.388 . S
C696 C695 1.366 . S
C696 C700 1.385 . S
C697 H672 0.951 . S
C697 C695 1.388 . S
C697 C698 1.366 . S
C698 C697 1.366 . S
C698 C699 1.414 . S
C698 C701 1.499 . S
C699 H673 0.953 . S
C699 C698 1.414 . S
C699 C700 1.374 . S
C700 H674 0.950 . S
C700 C696 1.385 . S
C700 C699 1.374 . S
C701 C698 1.499 . S
C701 C702 1.373 1_455 S
C701 C703 1.389 1_556 S
C702 H675 0.950 . S
C702 C688 1.377 1_556 S
C702 C701 1.373 1_655 S
C703 C687 1.377 . S
C703 C701 1.389 1_554 S
C703 C704 1.524 . S
C704 C703 1.524 . S
C704 C705 1.397 1_554 S
C704 C709 1.363 . S
C705 H676 0.950 . S
C705 C704 1.397 1_556 S
C705 C706 1.334 . S
C706 H677 0.950 . S
C706 C705 1.334 . S
C706 C707 1.287 1_556 S
C707 C706 1.287 1_554 S
C707 C708 1.524 . S
C707 H710 0.999 . S
C708 H678 0.950 . S
C708 C707 1.524 . S
C708 C709 1.415 . S
C709 H679 0.950 . S
C709 C704 1.363 . S
C709 C708 1.415 . S
H710 C707 0.999 . S
H711 C692 0.913 . S
H712 C730 0.951 . S
H713 C732 0.951 . S
H714 C734 0.950 . S
H715 C735 0.950 1_556 S
H716 C737 0.950 . S
H717 C740 0.950 . S
H718 C741 0.950 . S
H719 C743 0.950 . S
H720 C744 0.950 . S
H721 C745 0.951 . S
H722 C747 0.951 . S
H723 C749 0.950 . S
H724 C750 0.950 . S
H725 C752 0.950 . S
H726 C755 0.950 . S
H727 C756 0.950 . S
H728 C758 0.950 1_556 S
H729 C759 0.950 . S
C730 H712 0.951 . S
C730 C731 1.366 . S
C730 C732 1.388 . S
C731 C730 1.366 . S
C731 C735 1.385 . S
C732 H713 0.951 . S
C732 C730 1.388 . S
C732 C733 1.366 . S
C733 C732 1.366 . S
C733 C734 1.414 . S
C733 C736 1.499 . S
C734 H714 0.950 . S
C734 C733 1.414 . S
C734 C735 1.374 . S
C735 H715 0.950 1_554 S
C735 C731 1.385 . S
C735 C734 1.374 . S
C736 C733 1.499 . S
C736 C737 1.373 1_455 S
C736 C738 1.389 . S
C737 H716 0.950 . S
C737 C736 1.373 1_655 S
C737 C753 1.377 . S
C738 C736 1.389 . S
C738 C739 1.524 . S
C738 C752 1.377 . S
C739 C738 1.524 . S
C739 C740 1.397 . S
C739 C744 1.363 . S
C740 H717 0.950 . S
C740 C739 1.397 . S
C740 C741 1.334 . S
C741 H718 0.950 . S
C741 C740 1.334 . S
C741 C742 1.287 . S
C742 C741 1.287 . S
C742 C743 1.524 . S
C742 H761 0.913 . S
C743 H719 0.950 . S
C743 C742 1.524 . S
C743 C744 1.415 . S
C744 H720 0.950 . S
C744 C739 1.363 . S
C744 C743 1.415 . S
C745 H721 0.951 . S
C745 C746 1.366 . S
C745 C747 1.388 . S
C746 C745 1.366 . S
C746 C750 1.385 . S
C747 H722 0.951 . S
C747 C745 1.388 . S
C747 C748 1.366 . S
C748 C747 1.366 . S
C748 C749 1.414 . S
C748 C751 1.499 . S
C749 H723 0.950 . S
C749 C748 1.414 . S
C749 C750 1.374 . S
C750 H724 0.950 . S
C750 C746 1.385 . S
C750 C749 1.374 . S
C751 C748 1.499 . S
C751 C752 1.373 1_655 S
C751 C753 1.389 . S
C752 H725 0.950 . S
C752 C738 1.377 . S
C752 C751 1.373 1_455 S
C753 C737 1.377 . S
C753 C751 1.389 . S
C753 C754 1.524 . S
C754 C753 1.524 . S
C754 C755 1.397 . S
C754 C759 1.363 . S
C755 H726 0.950 . S
C755 C754 1.397 . S
C755 C756 1.334 . S
C756 H727 0.950 . S
C756 C755 1.334 . S
C756 C757 1.287 . S
C757 C756 1.287 . S
C757 C758 1.524 . S
C757 H760 0.999 . S
C758 H728 0.950 1_554 S
C758 C757 1.524 . S
C758 C759 1.415 . S
C759 H729 0.950 . S
C759 C754 1.363 . S
C759 C758 1.415 . S
H760 C757 0.999 . S
H761 C742 0.913 . S
H762 C780 0.951 1_565 S
H763 C782 0.973 . S
H764 C784 0.950 . S
H765 C785 0.950 1_556 S
H766 C787 0.950 . S
H767 C790 0.950 . S
H768 C791 0.950 . S
H769 C793 0.950 . S
H770 C794 0.950 1_565 S
H771 C795 0.951 . S
H772 C797 0.951 1_545 S
H773 C799 0.950 . S
H774 C800 0.950 . S
H775 C802 0.963 . S
H776 C805 0.950 . S
H777 C806 0.950 . S
H778 C808 0.937 1_556 S
H779 C809 0.986 . S
C780 H762 0.951 1_545 S
C780 C781 1.366 . S
C780 C782 1.382 1_545 S
C781 C780 1.366 . S
C781 C785 1.385 . S
C782 H763 0.973 . S
C782 C780 1.382 1_565 S
C782 C783 1.352 1_565 S
C783 C782 1.352 1_545 S
C783 C784 1.414 . S
C783 C786 1.499 . S
C784 H764 0.950 . S
C784 C783 1.414 . S
C784 C785 1.374 . S
C785 H765 0.950 1_554 S
C785 C781 1.385 . S
C785 C784 1.374 . S
C786 C783 1.499 . S
C786 C787 1.373 1_545 S
C786 C788 1.389 . S
C787 H766 0.950 . S
C787 C786 1.373 1_565 S
C787 C803 1.377 . S
C788 C786 1.389 . S
C788 C789 1.524 . S
C788 C802 1.394 . S
C789 C788 1.524 . S
C789 C790 1.397 . S
C789 C794 1.363 . S
C790 H767 0.950 . S
C790 C789 1.397 . S
C790 C791 1.334 . S
C791 H768 0.950 . S
C791 C790 1.334 . S
C791 C792 1.287 . S
C792 C791 1.287 . S
C792 C793 1.524 . S
C792 H811 0.913 . S
C793 H769 0.950 . S
C793 C792 1.524 . S
C793 C794 1.415 . S
C794 H770 0.950 1_545 S
C794 C789 1.363 . S
C794 C793 1.415 . S
C795 H771 0.951 . S
C795 C796 1.366 . S
C795 C797 1.388 . S
C796 C795 1.366 . S
C796 C800 1.385 . S
C797 H772 0.951 1_565 S
C797 C795 1.388 . S
C797 C798 1.366 . S
C798 C797 1.366 . S
C798 C799 1.414 . S
C798 C801 1.499 . S
C799 H773 0.950 . S
C799 C798 1.414 . S
C799 C800 1.374 . S
C800 H774 0.950 . S
C800 C796 1.385 . S
C800 C799 1.374 . S
C801 C798 1.499 . S
C801 C802 1.349 1_565 S
C801 C803 1.389 . S
C802 H775 0.963 . S
C802 C788 1.394 . S
C802 C801 1.349 1_545 S
C803 C787 1.377 . S
C803 C801 1.389 . S
C803 C804 1.524 . S
C804 C803 1.524 . S
C804 C805 1.397 . S
C804 C809 1.363 . S
C805 H776 0.950 . S
C805 C804 1.397 . S
C805 C806 1.334 . S
C806 H777 0.950 . S
C806 C805 1.334 . S
C806 C807 1.287 . S
C807 C806 1.287 . S
C807 C808 1.530 . S
C807 H810 0.999 . S
C808 H778 0.937 1_554 S
C808 C807 1.530 . S
C808 C809 1.424 . S
C809 H779 0.986 . S
C809 C804 1.363 . S
C809 C808 1.424 . S
H810 C807 0.999 . S
H811 C792 0.913 . S
H812 C830 0.951 . S
H813 C832 0.951 . S
H814 C834 0.950 . S
H815 C835 0.950 1_556 S
H816 C837 0.950 . S
H817 C840 0.950 . S
H818 C841 0.950 . S
H819 C843 0.950 . S
H820 C844 0.950 . S
H821 C845 0.951 . S
H822 C847 0.951 . S
H823 C849 0.950 . S
H824 C850 0.950 . S
H825 C852 0.950 . S
H826 C855 0.950 . S
H827 C856 0.950 . S
H828 C858 0.950 1_556 S
H829 C859 0.950 . S
C830 H812 0.951 . S
C830 C831 1.366 . S
C830 C832 1.388 . S
C831 C830 1.366 . S
C831 C835 1.385 . S
C832 H813 0.951 . S
C832 C830 1.388 . S
C832 C833 1.366 . S
C833 C832 1.366 . S
C833 C834 1.414 . S
C833 C836 1.499 . S
C834 H814 0.950 . S
C834 C833 1.414 . S
C834 C835 1.374 . S
C835 H815 0.950 1_554 S
C835 C831 1.385 . S
C835 C834 1.374 . S
C836 C833 1.499 . S
C836 C837 1.373 . S
C836 C838 1.389 . S
C837 H816 0.950 . S
C837 C836 1.373 . S
C837 C853 1.377 . S
C838 C836 1.389 . S
C838 C839 1.524 . S
C838 C852 1.377 . S
C839 C838 1.524 . S
C839 C840 1.397 . S
C839 C844 1.363 . S
C840 H817 0.950 . S
C840 C839 1.397 . S
C840 C841 1.334 . S
C841 H818 0.950 . S
C841 C840 1.334 . S
C841 C842 1.287 . S
C842 C841 1.287 . S
C842 C843 1.524 . S
C842 H861 0.913 . S
C843 H819 0.950 . S
C843 C842 1.524 . S
C843 C844 1.415 . S
C844 H820 0.950 . S
C844 C839 1.363 . S
C844 C843 1.415 . S
C845 H821 0.951 . S
C845 C846 1.366 . S
C845 C847 1.388 . S
C846 C845 1.366 . S
C846 C850 1.385 . S
C847 H822 0.951 . S
C847 C845 1.388 . S
C847 C848 1.366 . S
C848 C847 1.366 . S
C848 C849 1.414 . S
C848 C851 1.499 . S
C849 H823 0.950 . S
C849 C848 1.414 . S
C849 C850 1.374 . S
C850 H824 0.950 . S
C850 C846 1.385 . S
C850 C849 1.374 . S
C851 C848 1.499 . S
C851 C852 1.373 . S
C851 C853 1.389 . S
C852 H825 0.950 . S
C852 C838 1.377 . S
C852 C851 1.373 . S
C853 C837 1.377 . S
C853 C851 1.389 . S
C853 C854 1.524 . S
C854 C853 1.524 . S
C854 C855 1.397 . S
C854 C859 1.363 . S
C855 H826 0.950 . S
C855 C854 1.397 . S
C855 C856 1.334 . S
C856 H827 0.950 . S
C856 C855 1.334 . S
C856 C857 1.287 . S
C857 C856 1.287 . S
C857 C858 1.524 . S
C857 H860 0.999 . S
C858 H828 0.950 1_554 S
C858 C857 1.524 . S
C858 C859 1.415 . S
C859 H829 0.950 . S
C859 C854 1.363 . S
C859 C858 1.415 . S
H860 C857 0.999 . S
H861 C842 0.913 . S
H862 C880 0.951 . S
H863 C882 0.951 . S
H864 C884 0.950 . S
H865 C885 0.950 . S
H866 C887 0.950 . S
H867 C890 0.950 . S
H868 C891 0.950 . S
H869 C893 0.950 . S
H870 C894 0.950 . S
H871 C895 0.951 . S
H872 C897 0.951 . S
H873 C899 0.950 . S
H874 C900 0.950 . S
H875 C902 0.950 . S
H876 C905 0.950 . S
H877 C906 0.950 . S
H878 C908 0.950 . S
H879 C909 0.950 . S
C880 H862 0.951 . S
C880 C881 1.366 . S
C880 C882 1.388 . S
C881 C880 1.366 . S
C881 C885 1.385 . S
C882 H863 0.951 . S
C882 C880 1.388 . S
C882 C883 1.366 . S
C883 C882 1.366 . S
C883 C884 1.414 . S
C883 C886 1.499 . S
C884 H864 0.950 . S
C884 C883 1.414 . S
C884 C885 1.374 . S
C885 H865 0.950 . S
C885 C881 1.385 . S
C885 C884 1.374 . S
C886 C883 1.499 . S
C886 C887 1.373 . S
C886 C888 1.389 . S
C887 H866 0.950 . S
C887 C886 1.373 . S
C887 C903 1.377 . S
C888 C886 1.389 . S
C888 C889 1.524 . S
C888 C902 1.377 . S
C889 C888 1.524 . S
C889 C890 1.397 . S
C889 C894 1.363 . S
C890 H867 0.950 . S
C890 C889 1.397 . S
C890 C891 1.334 1_554 S
C891 H868 0.950 . S
C891 C890 1.334 1_556 S
C891 C892 1.287 . S
C892 C891 1.287 . S
C892 C893 1.524 . S
C892 H911 0.913 . S
C893 H869 0.950 . S
C893 C892 1.524 . S
C893 C894 1.415 1_556 S
C894 H870 0.950 . S
C894 C889 1.363 . S
C894 C893 1.415 1_554 S
C895 H871 0.951 . S
C895 C896 1.366 . S
C895 C897 1.388 . S
C896 C895 1.366 . S
C896 C900 1.385 . S
C897 H872 0.951 . S
C897 C895 1.388 . S
C897 C898 1.366 . S
C898 C897 1.366 . S
C898 C899 1.414 . S
C898 C901 1.499 . S
C899 H873 0.950 . S
C899 C898 1.414 . S
C899 C900 1.374 . S
C900 H874 0.950 . S
C900 C896 1.385 . S
C900 C899 1.374 . S
C901 C898 1.499 . S
C901 C902 1.373 . S
C901 C903 1.389 . S
C902 H875 0.950 . S
C902 C888 1.377 . S
C902 C901 1.373 . S
C903 C887 1.377 . S
C903 C901 1.389 . S
C903 C904 1.524 . S
C904 C903 1.524 . S
C904 C905 1.397 . S
C904 C909 1.363 . S
C905 H876 0.950 . S
C905 C904 1.397 . S
C905 C906 1.334 . S
C906 H877 0.950 . S
C906 C905 1.334 . S
C906 C907 1.287 . S
C907 C906 1.287 . S
C907 C908 1.524 . S
C907 H910 0.999 . S
C908 H878 0.950 . S
C908 C907 1.524 . S
C908 C909 1.415 . S
C909 H879 0.950 . S
C909 C904 1.363 . S
C909 C908 1.415 . S
H910 C907 0.999 . S
H911 C892 0.913 . S
H912 C930 0.951 . S
H913 C932 0.951 . S
H914 C934 0.950 . S
H915 C935 0.950 . S
H916 C937 0.950 . S
H917 C940 0.950 . S
H918 C941 0.950 . S
H919 C943 0.950 . S
H920 C944 0.950 . S
H921 C945 0.951 . S
H922 C947 0.951 . S
H923 C949 0.950 . S
H924 C950 0.950 . S
H925 C952 0.950 . S
H926 C955 0.950 . S
H927 C956 0.950 . S
H928 C958 0.950 . S
H929 C959 0.950 1_556 S
C930 H912 0.951 . S
C930 C931 1.366 . S
C930 C932 1.388 . S
C931 C930 1.366 . S
C931 C935 1.385 1_655 S
C932 H913 0.951 . S
C932 C930 1.388 . S
C932 C933 1.366 1_655 S
C933 C932 1.366 1_455 S
C933 C934 1.414 . S
C933 C936 1.499 . S
C934 H914 0.950 . S
C934 C933 1.414 . S
C934 C935 1.374 . S
C935 H915 0.950 . S
C935 C931 1.385 1_455 S
C935 C934 1.374 . S
C936 C933 1.499 . S
C936 C937 1.373 . S
C936 C938 1.389 1_455 S
C937 H916 0.950 . S
C937 C936 1.373 . S
C937 C953 1.377 . S
C938 C936 1.389 1_655 S
C938 C939 1.524 . S
C938 C952 1.377 . S
C939 C938 1.524 . S
C939 C940 1.397 . S
C939 C944 1.363 . S
C940 H917 0.950 . S
C940 C939 1.397 . S
C940 C941 1.334 . S
C941 H918 0.950 . S
C941 C940 1.334 . S
C941 C942 1.287 . S
C942 C941 1.287 . S
C942 C943 1.524 . S
C942 H961 0.913 . S
C943 H919 0.950 . S
C943 C942 1.524 . S
C943 C944 1.415 . S
C944 H920 0.950 . S
C944 C939 1.363 . S
C944 C943 1.415 . S
C945 H921 0.951 . S
C945 C946 1.366 . S
C945 C947 1.388 . S
C946 C945 1.366 . S
C946 C950 1.385 1_556 S
C947 H922 0.951 . S
C947 C945 1.388 . S
C947 C948 1.366 1_556 S
C948 C947 1.366 1_554 S
C948 C949 1.414 . S
C948 C951 1.499 . S
C949 H923 0.950 . S
C949 C948 1.414 . S
C949 C950 1.374 . S
C950 H924 0.950 . S
C950 C946 1.385 1_554 S
C950 C949 1.374 . S
C951 C948 1.499 . S
C951 C952 1.373 1_455 S
C951 C953 1.389 . S
C952 H925 0.950 . S
C952 C938 1.377 . S
C952 C951 1.373 1_655 S
C953 C937 1.377 . S
C953 C951 1.389 . S
C953 C954 1.524 . S
C954 C953 1.524 . S
C954 C955 1.397 . S
C954 C959 1.363 . S
C955 H926 0.950 . S
C955 C954 1.397 . S
C955 C956 1.334 . S
C956 H927 0.950 . S
C956 C955 1.334 . S
C956 C957 1.287 . S
C957 C956 1.287 . S
C957 C958 1.524 1_554 S
C957 H960 0.999 . S
C958 H928 0.950 . S
C958 C957 1.524 1_556 S
C958 C959 1.415 1_556 S
C959 H929 0.950 1_554 S
C959 C954 1.363 . S
C959 C958 1.415 1_554 S
H960 C957 0.999 . S
H961 C942 0.913 . S
H962 C980 0.951 . S
H963 C982 0.951 . S
H964 C984 0.950 . S
H965 C985 0.950 . S
H966 C987 0.950 . S
H967 C990 0.950 . S
H968 C991 0.950 . S
H969 C993 0.950 . S
H970 C994 0.950 . S
H971 C995 0.951 . S
H972 C997 0.951 . S
H973 C999 0.950 1_565 S
H974 C1000 0.950 1_565 S
H975 C1002 0.950 1_556 S
H976 C1005 0.950 1_565 S
H977 C1006 0.950 . S
H978 C1008 0.950 . S
H979 C1009 0.950 . S
C980 H962 0.951 . S
C980 C981 1.366 . S
C980 C982 1.388 . S
C981 C980 1.366 . S
C981 C985 1.385 1_565 S
C982 H963 0.951 . S
C982 C980 1.388 . S
C982 C983 1.366 1_565 S
C983 C982 1.366 1_545 S
C983 C984 1.414 . S
C983 C986 1.499 . S
C984 H964 0.950 . S
C984 C983 1.414 . S
C984 C985 1.374 . S
C985 H965 0.950 . S
C985 C981 1.385 1_545 S
C985 C984 1.374 . S
C986 C983 1.499 . S
C986 C987 1.373 . S
C986 C988 1.389 . S
C987 H966 0.950 . S
C987 C986 1.373 . S
C987 C1003 1.377 . S
C988 C986 1.389 . S
C988 C989 1.524 1_545 S
C988 C1002 1.377 . S
C989 C988 1.524 1_565 S
C989 C990 1.397 1_565 S
C989 C994 1.363 1_554 S
C990 H967 0.950 . S
C990 C989 1.397 1_545 S
C990 C991 1.334 1_554 S
C991 H968 0.950 . S
C991 C990 1.334 1_556 S
C991 C992 1.287 1_545 S
C992 C991 1.287 1_565 S
C992 C993 1.524 . S
C992 H1011 0.913 . S
C993 H969 0.950 . S
C993 C992 1.524 . S
C993 C994 1.415 . S
C994 H970 0.950 . S
C994 C989 1.363 1_556 S
C994 C993 1.415 . S
C995 H971 0.951 . S
C995 C996 1.366 1_554 S
C995 C997 1.388 . S
C996 C995 1.366 1_556 S
C996 C1000 1.385 . S
C997 H972 0.951 . S
C997 C995 1.388 . S
C997 C998 1.366 . S
C998 C997 1.366 . S
C998 C999 1.414 1_554 S
C998 C1001 1.499 . S
C999 H973 0.950 1_545 S
C999 C998 1.414 1_556 S
C999 C1000 1.374 . S
C1000 H974 0.950 1_545 S
C1000 C996 1.385 . S
C1000 C999 1.374 . S
C1001 C998 1.499 . S
C1001 C1002 1.373 . S
C1001 C1003 1.389 . S
C1002 H975 0.950 1_554 S
C1002 C988 1.377 . S
C1002 C1001 1.373 . S
C1003 C987 1.377 . S
C1003 C1001 1.389 . S
C1003 C1004 1.524 . S
C1004 C1003 1.524 . S
C1004 C1005 1.397 . S
C1004 C1009 1.363 . S
C1005 H976 0.950 1_545 S
C1005 C1004 1.397 . S
C1005 C1006 1.334 . S
C1006 H977 0.950 . S
C1006 C1005 1.334 . S
C1006 C1007 1.287 . S
C1007 C1006 1.287 . S
C1007 C1008 1.524 . S
C1007 H1010 0.999 . S
C1008 H978 0.950 . S
C1008 C1007 1.524 . S
C1008 C1009 1.415 . S
C1009 H979 0.950 . S
C1009 C1004 1.363 . S
C1009 C1008 1.415 . S
H1010 C1007 0.999 . S
H1011 C992 0.913 . S
H1012 C1030 0.951 . S
H1013 C1032 0.951 . S
H1014 C1034 0.950 . S
H1015 C1035 0.950 . S
H1016 C1037 0.950 . S
H1017 C1040 0.950 . S
H1018 C1041 0.950 . S
H1019 C1043 0.950 . S
H1020 C1044 0.950 . S
H1021 C1045 0.951 . S
H1022 C1047 0.951 . S
H1023 C1049 0.950 . S
H1024 C1050 0.950 . S
H1025 C1052 0.950 . S
H1026 C1055 0.950 . S
H1027 C1056 0.950 . S
H1028 C1058 0.950 1_556 S
H1029 C1059 0.950 . S
C1030 H1012 0.951 . S
C1030 C1031 1.366 . S
C1030 C1032 1.388 . S
C1031 C1030 1.366 . S
C1031 C1035 1.385 . S
C1032 H1013 0.951 . S
C1032 C1030 1.388 . S
C1032 C1033 1.366 . S
C1033 C1032 1.366 . S
C1033 C1034 1.414 . S
C1033 C1036 1.499 . S
C1034 H1014 0.950 . S
C1034 C1033 1.414 . S
C1034 C1035 1.374 . S
C1035 H1015 0.950 . S
C1035 C1031 1.385 . S
C1035 C1034 1.374 . S
C1036 C1033 1.499 . S
C1036 C1037 1.373 . S
C1036 C1038 1.389 . S
C1037 H1016 0.950 . S
C1037 C1036 1.373 . S
C1037 C1053 1.377 . S
C1038 C1036 1.389 . S
C1038 C1039 1.524 . S
C1038 C1052 1.377 . S
C1039 C1038 1.524 . S
C1039 C1040 1.397 . S
C1039 C1044 1.363 . S
C1040 H1017 0.950 . S
C1040 C1039 1.397 . S
C1040 C1041 1.334 . S
C1041 H1018 0.950 . S
C1041 C1040 1.334 . S
C1041 C1042 1.287 . S
C1042 C1041 1.287 . S
C1042 C1043 1.524 . S
C1042 H1061 0.913 . S
C1043 H1019 0.950 . S
C1043 C1042 1.524 . S
C1043 C1044 1.415 . S
C1044 H1020 0.950 . S
C1044 C1039 1.363 . S
C1044 C1043 1.415 . S
C1045 H1021 0.951 . S
C1045 C1046 1.366 . S
C1045 C1047 1.388 . S
C1046 C1045 1.366 . S
C1046 C1050 1.385 1_556 S
C1047 H1022 0.951 . S
C1047 C1045 1.388 . S
C1047 C1048 1.366 1_556 S
C1048 C1047 1.366 1_554 S
C1048 C1049 1.414 . S
C1048 C1051 1.499 . S
C1049 H1023 0.950 . S
C1049 C1048 1.414 . S
C1049 C1050 1.374 . S
C1050 H1024 0.950 . S
C1050 C1046 1.385 1_554 S
C1050 C1049 1.374 . S
C1051 C1048 1.499 . S
C1051 C1052 1.373 . S
C1051 C1053 1.389 . S
C1052 H1025 0.950 . S
C1052 C1038 1.377 . S
C1052 C1051 1.373 . S
C1053 C1037 1.377 . S
C1053 C1051 1.389 . S
C1053 C1054 1.524 . S
C1054 C1053 1.524 . S
C1054 C1055 1.397 . S
C1054 C1059 1.363 . S
C1055 H1026 0.950 . S
C1055 C1054 1.397 . S
C1055 C1056 1.334 . S
C1056 H1027 0.950 . S
C1056 C1055 1.334 . S
C1056 C1057 1.287 . S
C1057 C1056 1.287 . S
C1057 C1058 1.524 . S
C1057 H1060 0.999 . S
C1058 H1028 0.950 1_554 S
C1058 C1057 1.524 . S
C1058 C1059 1.415 . S
C1059 H1029 0.950 . S
C1059 C1054 1.363 . S
C1059 C1058 1.415 . S
H1060 C1057 0.999 . S
H1061 C1042 0.913 . S
H1062 C1080 0.951 . S
H1063 C1082 0.951 . S
H1064 C1084 0.950 . S
H1065 C1085 0.950 . S
H1066 C1087 0.950 . S
H1067 C1090 0.950 . S
H1068 C1091 0.950 . S
H1069 C1093 0.950 . S
H1070 C1094 0.950 . S
H1071 C1095 0.951 . S
H1072 C1097 0.951 . S
H1073 C1099 0.950 . S
H1074 C1100 0.950 . S
H1075 C1102 0.950 1_556 S
H1076 C1105 0.950 . S
H1077 C1106 0.950 . S
H1078 C1108 0.950 . S
H1079 C1109 0.950 . S
C1080 H1062 0.951 . S
C1080 C1081 1.366 . S
C1080 C1082 1.388 . S
C1081 C1080 1.366 . S
C1081 C1085 1.385 . S
C1082 H1063 0.951 . S
C1082 C1080 1.388 . S
C1082 C1083 1.366 . S
C1083 C1082 1.366 . S
C1083 C1084 1.414 . S
C1083 C1086 1.499 . S
C1084 H1064 0.950 . S
C1084 C1083 1.414 . S
C1084 C1085 1.374 . S
C1085 H1065 0.950 . S
C1085 C1081 1.385 . S
C1085 C1084 1.374 . S
C1086 C1083 1.499 . S
C1086 C1087 1.373 . S
C1086 C1088 1.389 . S
C1087 H1066 0.950 . S
C1087 C1086 1.373 . S
C1087 C1103 1.377 . S
C1088 C1086 1.389 . S
C1088 C1089 1.524 . S
C1088 C1102 1.377 . S
C1089 C1088 1.524 . S
C1089 C1090 1.397 . S
C1089 C1094 1.363 1_554 S
C1090 H1067 0.950 . S
C1090 C1089 1.397 . S
C1090 C1091 1.334 . S
C1091 H1068 0.950 . S
C1091 C1090 1.334 . S
C1091 C1092 1.287 1_554 S
C1092 C1091 1.287 1_556 S
C1092 C1093 1.524 . S
C1092 H1111 0.913 . S
C1093 H1069 0.950 . S
C1093 C1092 1.524 . S
C1093 C1094 1.415 . S
C1094 H1070 0.950 . S
C1094 C1089 1.363 1_556 S
C1094 C1093 1.415 . S
C1095 H1071 0.951 . S
C1095 C1096 1.366 1_554 S
C1095 C1097 1.388 . S
C1096 C1095 1.366 1_556 S
C1096 C1100 1.385 . S
C1097 H1072 0.951 . S
C1097 C1095 1.388 . S
C1097 C1098 1.366 . S
C1098 C1097 1.366 . S
C1098 C1099 1.414 1_554 S
C1098 C1101 1.499 . S
C1099 H1073 0.950 . S
C1099 C1098 1.414 1_556 S
C1099 C1100 1.374 . S
C1100 H1074 0.950 . S
C1100 C1096 1.385 . S
C1100 C1099 1.374 . S
C1101 C1098 1.499 . S
C1101 C1102 1.373 . S
C1101 C1103 1.389 . S
C1102 H1075 0.950 1_554 S
C1102 C1088 1.377 . S
C1102 C1101 1.373 . S
C1103 C1087 1.377 . S
C1103 C1101 1.389 . S
C1103 C1104 1.524 . S
C1104 C1103 1.524 . S
C1104 C1105 1.397 . S
C1104 C1109 1.363 . S
C1105 H1076 0.950 . S
C1105 C1104 1.397 . S
C1105 C1106 1.334 . S
C1106 H1077 0.950 . S
C1106 C1105 1.334 . S
C1106 C1107 1.287 . S
C1107 C1106 1.287 . S
C1107 C1108 1.524 . S
C1107 H1110 0.999 . S
C1108 H1078 0.950 . S
C1108 C1107 1.524 . S
C1108 C1109 1.415 . S
C1109 H1079 0.950 . S
C1109 C1104 1.363 . S
C1109 C1108 1.415 . S
H1110 C1107 0.999 . S
H1111 C1092 0.913 . S
H1112 C1130 0.972 . S
H1113 C1132 0.977 . S
H1114 C1134 0.950 . S
H1115 C1135 0.950 . S
H1116 C1137 0.950 . S
H1117 C1140 0.950 . S
H1118 C1141 0.950 1_554 S
H1119 C1143 0.950 . S
H1120 C1144 0.950 . S
H1121 C1145 0.951 . S
H1122 C1147 0.951 . S
H1123 C1149 0.940 1_655 S
H1124 C1150 0.934 1_655 S
H1125 C1152 0.950 . S
H1126 C1155 0.950 . S
H1127 C1156 0.950 . S
H1128 C1158 0.950 . S
H1129 C1159 0.950 . S
C1130 H1112 0.972 . S
C1130 C1131 1.345 1_655 S
C1130 C1132 1.388 . S
C1131 C1130 1.345 1_455 S
C1131 C1135 1.385 . S
C1132 H1113 0.977 . S
C1132 C1130 1.388 . S
C1132 C1133 1.341 1_655 S
C1133 C1132 1.341 1_455 S
C1133 C1134 1.414 . S
C1133 C1136 1.499 . S
C1134 H1114 0.950 . S
C1134 C1133 1.414 . S
C1134 C1135 1.374 . S
C1135 H1115 0.950 . S
C1135 C1131 1.385 . S
C1135 C1134 1.374 . S
C1136 C1133 1.499 . S
C1136 C1137 1.373 . S
C1136 C1138 1.389 1_455 S
C1137 H1116 0.950 . S
C1137 C1136 1.373 . S
C1137 C1153 1.377 . S
C1138 C1136 1.389 1_655 S
C1138 C1139 1.524 . S
C1138 C1152 1.377 . S
C1139 C1138 1.524 . S
C1139 C1140 1.397 . S
C1139 C1144 1.363 . S
C1140 H1117 0.950 . S
C1140 C1139 1.397 . S
C1140 C1141 1.334 . S
C1141 H1118 0.950 1_556 S
C1141 C1140 1.334 . S
C1141 C1142 1.287 . S
C1142 C1141 1.287 . S
C1142 C1143 1.524 . S
C1142 H1161 0.913 . S
C1143 H1119 0.950 . S
C1143 C1142 1.524 . S
C1143 C1144 1.415 . S
C1144 H1120 0.950 . S
C1144 C1139 1.363 . S
C1144 C1143 1.415 . S
C1145 H1121 0.951 . S
C1145 C1146 1.366 . S
C1145 C1147 1.388 . S
C1146 C1145 1.366 . S
C1146 C1150 1.401 . S
C1147 H1122 0.951 . S
C1147 C1145 1.388 . S
C1147 C1148 1.366 . S
C1148 C1147 1.366 . S
C1148 C1149 1.424 . S
C1148 C1151 1.499 . S
C1149 H1123 0.940 1_455 S
C1149 C1148 1.424 . S
C1149 C1150 1.374 . S
C1150 H1124 0.934 1_455 S
C1150 C1146 1.401 . S
C1150 C1149 1.374 . S
C1151 C1148 1.499 . S
C1151 C1152 1.373 1_455 S
C1151 C1153 1.389 . S
C1152 H1125 0.950 . S
C1152 C1138 1.377 . S
C1152 C1151 1.373 1_655 S
C1153 C1137 1.377 . S
C1153 C1151 1.389 . S
C1153 C1154 1.524 . S
C1154 C1153 1.524 . S
C1154 C1155 1.397 . S
C1154 C1159 1.363 . S
C1155 H1126 0.950 . S
C1155 C1154 1.397 . S
C1155 C1156 1.334 . S
C1156 H1127 0.950 . S
C1156 C1155 1.334 . S
C1156 C1157 1.287 . S
C1157 C1156 1.287 . S
C1157 C1158 1.524 . S
C1157 H1160 0.999 . S
C1158 H1128 0.950 . S
C1158 C1157 1.524 . S
C1158 C1159 1.415 . S
C1159 H1129 0.950 . S
C1159 C1154 1.363 . S
C1159 C1158 1.415 . S
H1160 C1157 0.999 . S
H1161 C1142 0.913 . S
H1162 C1180 0.951 . S
H1163 C1182 0.951 . S
H1164 C1184 0.950 . S
H1165 C1185 0.950 . S
H1166 C1187 0.950 . S
H1167 C1190 0.950 . S
H1168 C1191 0.950 . S
H1169 C1193 0.950 . S
H1170 C1194 0.950 . S
H1171 C1195 0.951 . S
H1172 C1197 0.951 . S
H1173 C1199 0.950 . S
H1174 C1200 0.950 . S
H1175 C1202 0.924 1_565 S
H1176 C1205 0.950 . S
H1177 C1206 0.950 . S
H1178 C1208 0.950 . S
H1179 C1209 0.950 1_554 S
C1180 H1162 0.951 . S
C1180 C1181 1.366 . S
C1180 C1182 1.388 . S
C1181 C1180 1.366 . S
C1181 C1185 1.385 . S
C1182 H1163 0.951 . S
C1182 C1180 1.388 . S
C1182 C1183 1.366 . S
C1183 C1182 1.366 . S
C1183 C1184 1.414 . S
C1183 C1186 1.499 . S
C1184 H1164 0.950 . S
C1184 C1183 1.414 . S
C1184 C1185 1.374 . S
C1185 H1165 0.950 . S
C1185 C1181 1.385 . S
C1185 C1184 1.374 . S
C1186 C1183 1.499 . S
C1186 C1187 1.373 . S
C1186 C1188 1.370 1_545 S
C1187 H1166 0.950 . S
C1187 C1186 1.373 . S
C1187 C1203 1.377 . S
C1188 C1186 1.370 1_565 S
C1188 C1189 1.550 . S
C1188 C1202 1.373 1_565 S
C1189 C1188 1.550 . S
C1189 C1190 1.397 . S
C1189 C1194 1.363 . S
C1190 H1167 0.950 . S
C1190 C1189 1.397 . S
C1190 C1191 1.334 . S
C1191 H1168 0.950 . S
C1191 C1190 1.334 . S
C1191 C1192 1.287 . S
C1192 C1191 1.287 . S
C1192 C1193 1.524 . S
C1192 H1211 0.913 . S
C1193 H1169 0.950 . S
C1193 C1192 1.524 . S
C1193 C1194 1.415 . S
C1194 H1170 0.950 . S
C1194 C1189 1.363 . S
C1194 C1193 1.415 . S
C1195 H1171 0.951 . S
C1195 C1196 1.366 . S
C1195 C1197 1.388 . S
C1196 C1195 1.366 . S
C1196 C1200 1.385 . S
C1197 H1172 0.951 . S
C1197 C1195 1.388 . S
C1197 C1198 1.366 . S
C1198 C1197 1.366 . S
C1198 C1199 1.414 . S
C1198 C1201 1.499 . S
C1199 H1173 0.950 . S
C1199 C1198 1.414 . S
C1199 C1200 1.374 . S
C1200 H1174 0.950 . S
C1200 C1196 1.385 . S
C1200 C1199 1.374 . S
C1201 C1198 1.499 . S
C1201 C1202 1.403 . S
C1201 C1203 1.389 . S
C1202 H1175 0.924 1_545 S
C1202 C1188 1.373 1_545 S
C1202 C1201 1.403 . S
C1203 C1187 1.377 . S
C1203 C1201 1.389 . S
C1203 C1204 1.524 . S
C1204 C1203 1.524 . S
C1204 C1205 1.397 . S
C1204 C1209 1.363 . S
C1205 H1176 0.950 . S
C1205 C1204 1.397 . S
C1205 C1206 1.334 . S
C1206 H1177 0.950 . S
C1206 C1205 1.334 . S
C1206 C1207 1.287 . S
C1207 C1206 1.287 . S
C1207 C1208 1.524 1_556 S
C1207 H1210 0.999 . S
C1208 H1178 0.950 . S
C1208 C1207 1.524 1_554 S
C1208 C1209 1.415 1_554 S
C1209 H1179 0.950 1_556 S
C1209 C1204 1.363 . S
C1209 C1208 1.415 1_556 S
H1210 C1207 0.999 . S
H1211 C1192 0.913 . S
H1212 C1230 0.951 . S
H1213 C1232 0.951 . S
H1214 C1234 0.950 . S
H1215 C1235 0.950 . S
H1216 C1237 0.950 . S
H1217 C1240 0.950 1_556 S
H1218 C1241 0.950 . S
H1219 C1243 0.950 . S
H1220 C1244 0.950 1_556 S
H1221 C1245 0.951 . S
H1222 C1247 0.951 . S
H1223 C1249 0.950 . S
H1224 C1250 0.950 . S
H1225 C1252 0.950 . S
H1226 C1255 0.950 . S
H1227 C1256 0.950 . S
H1228 C1258 0.950 . S
H1229 C1259 0.950 . S
C1230 H1212 0.951 . S
C1230 C1231 1.366 . S
C1230 C1232 1.388 . S
C1231 C1230 1.366 . S
C1231 C1235 1.385 . S
C1232 H1213 0.951 . S
C1232 C1230 1.388 . S
C1232 C1233 1.366 . S
C1233 C1232 1.366 . S
C1233 C1234 1.414 . S
C1233 C1236 1.499 . S
C1234 H1214 0.950 . S
C1234 C1233 1.414 . S
C1234 C1235 1.374 . S
C1235 H1215 0.950 . S
C1235 C1231 1.385 . S
C1235 C1234 1.374 . S
C1236 C1233 1.499 . S
C1236 C1237 1.373 . S
C1236 C1238 1.389 . S
C1237 H1216 0.950 . S
C1237 C1236 1.373 . S
C1237 C1253 1.377 . S
C1238 C1236 1.389 . S
C1238 C1239 1.524 . S
C1238 C1252 1.377 . S
C1239 C1238 1.524 . S
C1239 C1240 1.397 1_556 S
C1239 C1244 1.363 1_556 S
C1240 H1217 0.950 1_554 S
C1240 C1239 1.397 1_554 S
C1240 C1241 1.334 . S
C1241 H1218 0.950 . S
C1241 C1240 1.334 . S
C1241 C1242 1.287 . S
C1242 C1241 1.287 . S
C1242 C1243 1.524 . S
C1242 H1261 0.913 . S
C1243 H1219 0.950 . S
C1243 C1242 1.524 . S
C1243 C1244 1.415 . S
C1244 H1220 0.950 1_554 S
C1244 C1239 1.363 1_554 S
C1244 C1243 1.415 . S
C1245 H1221 0.951 . S
C1245 C1246 1.366 . S
C1245 C1247 1.388 . S
C1246 C1245 1.366 . S
C1246 C1250 1.385 . S
C1247 H1222 0.951 . S
C1247 C1245 1.388 . S
C1247 C1248 1.366 . S
C1248 C1247 1.366 . S
C1248 C1249 1.414 . S
C1248 C1251 1.499 . S
C1249 H1223 0.950 . S
C1249 C1248 1.414 . S
C1249 C1250 1.374 . S
C1250 H1224 0.950 . S
C1250 C1246 1.385 . S
C1250 C1249 1.374 . S
C1251 C1248 1.499 . S
C1251 C1252 1.373 . S
C1251 C1253 1.389 . S
C1252 H1225 0.950 . S
C1252 C1238 1.377 . S
C1252 C1251 1.373 . S
C1253 C1237 1.377 . S
C1253 C1251 1.389 . S
C1253 C1254 1.524 . S
C1254 C1253 1.524 . S
C1254 C1255 1.397 . S
C1254 C1259 1.363 . S
C1255 H1226 0.950 . S
C1255 C1254 1.397 . S
C1255 C1256 1.334 . S
C1256 H1227 0.950 . S
C1256 C1255 1.334 . S
C1256 C1257 1.287 . S
C1257 C1256 1.287 . S
C1257 C1258 1.524 . S
C1257 H1260 0.999 . S
C1258 H1228 0.950 . S
C1258 C1257 1.524 . S
C1258 C1259 1.415 . S
C1259 H1229 0.950 . S
C1259 C1254 1.363 . S
C1259 C1258 1.415 . S
H1260 C1257 0.999 . S
H1261 C1242 0.913 . S
H1262 C1280 0.951 . S
H1263 C1282 0.951 . S
H1264 C1284 0.950 . S
H1265 C1285 0.950 . S
H1266 C1287 0.950 . S
H1267 C1290 0.950 . S
H1268 C1291 0.950 . S
H1269 C1293 0.950 . S
H1270 C1294 0.950 . S
H1271 C1295 0.951 . S
H1272 C1297 0.951 . S
H1273 C1299 0.950 . S
H1274 C1300 0.950 . S
H1275 C1302 0.950 . S
H1276 C1305 0.950 . S
H1277 C1306 0.950 . S
H1278 C1308 0.950 . S
H1279 C1309 0.950 . S
C1280 H1262 0.951 . S
C1280 C1281 1.366 . S
C1280 C1282 1.388 . S
C1281 C1280 1.366 . S
C1281 C1285 1.385 . S
C1282 H1263 0.951 . S
C1282 C1280 1.388 . S
C1282 C1283 1.366 . S
C1283 C1282 1.366 . S
C1283 C1284 1.414 . S
C1283 C1286 1.499 . S
C1284 H1264 0.950 . S
C1284 C1283 1.414 . S
C1284 C1285 1.374 . S
C1285 H1265 0.950 . S
C1285 C1281 1.385 . S
C1285 C1284 1.374 . S
C1286 C1283 1.499 . S
C1286 C1287 1.373 . S
C1286 C1288 1.389 . S
C1287 H1266 0.950 . S
C1287 C1286 1.373 . S
C1287 C1303 1.377 . S
C1288 C1286 1.389 . S
C1288 C1289 1.524 . S
C1288 C1302 1.377 . S
C1289 C1288 1.524 . S
C1289 C1290 1.397 . S
C1289 C1294 1.363 1_556 S
C1290 H1267 0.950 . S
C1290 C1289 1.397 . S
C1290 C1291 1.334 1_556 S
C1291 H1268 0.950 . S
C1291 C1290 1.334 1_554 S
C1291 C1292 1.287 . S
C1292 C1291 1.287 . S
C1292 C1293 1.524 . S
C1292 H1311 0.913 . S
C1293 H1269 0.950 . S
C1293 C1292 1.524 . S
C1293 C1294 1.415 . S
C1294 H1270 0.950 . S
C1294 C1289 1.363 1_554 S
C1294 C1293 1.415 . S
C1295 H1271 0.951 . S
C1295 C1296 1.366 . S
C1295 C1297 1.388 . S
C1296 C1295 1.366 . S
C1296 C1300 1.385 . S
C1297 H1272 0.951 . S
C1297 C1295 1.388 . S
C1297 C1298 1.366 . S
C1298 C1297 1.366 . S
C1298 C1299 1.414 . S
C1298 C1301 1.499 . S
C1299 H1273 0.950 . S
C1299 C1298 1.414 . S
C1299 C1300 1.374 . S
C1300 H1274 0.950 . S
C1300 C1296 1.385 . S
C1300 C1299 1.374 . S
C1301 C1298 1.499 . S
C1301 C1302 1.373 . S
C1301 C1303 1.389 . S
C1302 H1275 0.950 . S
C1302 C1288 1.377 . S
C1302 C1301 1.373 . S
C1303 C1287 1.377 . S
C1303 C1301 1.389 . S
C1303 C1304 1.524 . S
C1304 C1303 1.524 . S
C1304 C1305 1.397 . S
C1304 C1309 1.363 . S
C1305 H1276 0.950 . S
C1305 C1304 1.397 . S
C1305 C1306 1.334 . S
C1306 H1277 0.950 . S
C1306 C1305 1.334 . S
C1306 C1307 1.287 . S
C1307 C1306 1.287 . S
C1307 C1308 1.524 . S
C1307 H1310 0.999 . S
C1308 H1278 0.950 . S
C1308 C1307 1.524 . S
C1308 C1309 1.415 . S
C1309 H1279 0.950 . S
C1309 C1304 1.363 . S
C1309 C1308 1.415 . S
H1310 C1307 0.999 . S
H1311 C1292 0.913 . S
H1312 C1330 0.951 . S
H1313 C1332 0.951 . S
H1314 C1334 0.950 . S
H1315 C1335 0.950 . S
H1316 C1337 0.946 1_455 S
H1317 C1340 0.950 . S
H1318 C1341 0.950 . S
H1319 C1343 0.950 . S
H1320 C1344 0.950 1_455 S
H1321 C1345 0.951 . S
H1322 C1347 0.951 . S
H1323 C1349 0.950 . S
H1324 C1350 0.950 . S
H1325 C1352 0.950 . S
H1326 C1355 0.950 . S
H1327 C1356 0.950 . S
H1328 C1358 0.955 . S
H1329 C1359 0.994 . S
C1330 H1312 0.951 . S
C1330 C1331 1.366 1_455 S
C1330 C1332 1.388 . S
C1331 C1330 1.366 1_655 S
C1331 C1335 1.385 . S
C1332 H1313 0.951 . S
C1332 C1330 1.388 . S
C1332 C1333 1.366 1_455 S
C1333 C1332 1.366 1_655 S
C1333 C1334 1.414 . S
C1333 C1336 1.499 . S
C1334 H1314 0.950 . S
C1334 C1333 1.414 . S
C1334 C1335 1.374 . S
C1335 H1315 0.950 . S
C1335 C1331 1.385 . S
C1335 C1334 1.374 . S
C1336 C1333 1.499 . S
C1336 C1337 1.379 . S
C1336 C1338 1.389 . S
C1337 H1316 0.946 1_655 S
C1337 C1336 1.379 . S
C1337 C1353 1.374 1_655 S
C1338 C1336 1.389 . S
C1338 C1339 1.524 . S
C1338 C1352 1.377 . S
C1339 C1338 1.524 . S
C1339 C1340 1.397 . S
C1339 C1344 1.363 . S
C1340 H1317 0.950 . S
C1340 C1339 1.397 . S
C1340 C1341 1.334 . S
C1341 H1318 0.950 . S
C1341 C1340 1.334 . S
C1341 C1342 1.287 . S
C1342 C1341 1.287 . S
C1342 C1343 1.524 . S
C1342 H1361 0.913 . S
C1343 H1319 0.950 . S
C1343 C1342 1.524 . S
C1343 C1344 1.415 . S
C1344 H1320 0.950 1_655 S
C1344 C1339 1.363 . S
C1344 C1343 1.415 . S
C1345 H1321 0.951 . S
C1345 C1346 1.366 . S
C1345 C1347 1.388 . S
C1346 C1345 1.366 . S
C1346 C1350 1.385 1_655 S
C1347 H1322 0.951 . S
C1347 C1345 1.388 . S
C1347 C1348 1.366 . S
C1348 C1347 1.366 . S
C1348 C1349 1.414 1_655 S
C1348 C1351 1.499 . S
C1349 H1323 0.950 . S
C1349 C1348 1.414 1_455 S
C1349 C1350 1.374 . S
C1350 H1324 0.950 . S
C1350 C1346 1.385 1_455 S
C1350 C1349 1.374 . S
C1351 C1348 1.499 . S
C1351 C1352 1.373 . S
C1351 C1353 1.382 1_655 S
C1352 H1325 0.950 . S
C1352 C1338 1.377 . S
C1352 C1351 1.373 . S
C1353 C1337 1.374 1_455 S
C1353 C1351 1.382 1_455 S
C1353 C1354 1.539 . S
C1354 C1353 1.539 . S
C1354 C1355 1.397 . S
C1354 C1359 1.340 1_455 S
C1355 H1326 0.950 . S
C1355 C1354 1.397 . S
C1355 C1356 1.334 . S
C1356 H1327 0.950 . S
C1356 C1355 1.334 . S
C1356 C1357 1.287 . S
C1357 C1356 1.287 . S
C1357 C1358 1.524 . S
C1357 H1360 0.999 . S
C1358 H1328 0.955 . S
C1358 C1357 1.524 . S
C1358 C1359 1.397 1_455 S
C1359 H1329 0.994 . S
C1359 C1354 1.340 1_655 S
C1359 C1358 1.397 1_655 S
H1360 C1357 0.999 . S
H1361 C1342 0.913 . S
H1362 C1380 0.951 . S
H1363 C1382 0.951 . S
H1364 C1384 0.950 . S
H1365 C1385 0.950 . S
H1366 C1387 0.950 . S
H1367 C1390 0.950 . S
H1368 C1391 0.950 . S
H1369 C1393 0.950 . S
H1370 C1394 0.950 . S
H1371 C1395 0.951 . S
H1372 C1397 0.951 . S
H1373 C1399 0.950 . S
H1374 C1400 0.950 . S
H1375 C1402 0.950 . S
H1376 C1405 0.950 . S
H1377 C1406 0.950 . S
H1378 C1408 0.950 . S
H1379 C1409 0.950 . S
C1380 H1362 0.951 . S
C1380 C1381 1.366 . S
C1380 C1382 1.388 . S
C1381 C1380 1.366 . S
C1381 C1385 1.385 . S
C1382 H1363 0.951 . S
C1382 C1380 1.388 . S
C1382 C1383 1.366 . S
C1383 C1382 1.366 . S
C1383 C1384 1.414 . S
C1383 C1386 1.499 . S
C1384 H1364 0.950 . S
C1384 C1383 1.414 . S
C1384 C1385 1.374 . S
C1385 H1365 0.950 . S
C1385 C1381 1.385 . S
C1385 C1384 1.374 . S
C1386 C1383 1.499 . S
C1386 C1387 1.373 1_565 S
C1386 C1388 1.389 . S
C1387 H1366 0.950 . S
C1387 C1386 1.373 1_545 S
C1387 C1403 1.377 . S
C1388 C1386 1.389 . S
C1388 C1389 1.524 . S
C1388 C1402 1.377 . S
C1389 C1388 1.524 . S
C1389 C1390 1.397 . S
C1389 C1394 1.363 . S
C1390 H1367 0.950 . S
C1390 C1389 1.397 . S
C1390 C1391 1.334 . S
C1391 H1368 0.950 . S
C1391 C1390 1.334 . S
C1391 C1392 1.287 . S
C1392 C1391 1.287 . S
C1392 C1393 1.524 . S
C1392 H1411 0.913 . S
C1393 H1369 0.950 . S
C1393 C1392 1.524 . S
C1393 C1394 1.415 . S
C1394 H1370 0.950 . S
C1394 C1389 1.363 . S
C1394 C1393 1.415 . S
C1395 H1371 0.951 . S
C1395 C1396 1.366 . S
C1395 C1397 1.388 . S
C1396 C1395 1.366 . S
C1396 C1400 1.385 . S
C1397 H1372 0.951 . S
C1397 C1395 1.388 . S
C1397 C1398 1.366 . S
C1398 C1397 1.366 . S
C1398 C1399 1.414 . S
C1398 C1401 1.499 . S
C1399 H1373 0.950 . S
C1399 C1398 1.414 . S
C1399 C1400 1.374 . S
C1400 H1374 0.950 . S
C1400 C1396 1.385 . S
C1400 C1399 1.374 . S
C1401 C1398 1.499 . S
C1401 C1402 1.373 . S
C1401 C1403 1.389 1_565 S
C1402 H1375 0.950 . S
C1402 C1388 1.377 . S
C1402 C1401 1.373 . S
C1403 C1387 1.377 . S
C1403 C1401 1.389 1_545 S
C1403 C1404 1.524 . S
C1404 C1403 1.524 . S
C1404 C1405 1.397 . S
C1404 C1409 1.363 . S
C1405 H1376 0.950 . S
C1405 C1404 1.397 . S
C1405 C1406 1.334 . S
C1406 H1377 0.950 . S
C1406 C1405 1.334 . S
C1406 C1407 1.287 . S
C1407 C1406 1.287 . S
C1407 C1408 1.524 . S
C1407 H1410 0.999 . S
C1408 H1378 0.950 . S
C1408 C1407 1.524 . S
C1408 C1409 1.415 . S
C1409 H1379 0.950 . S
C1409 C1404 1.363 . S
C1409 C1408 1.415 . S
H1410 C1407 0.999 . S
H1411 C1392 0.913 . S
H1412 C1430 0.951 . S
H1413 C1432 0.951 . S
H1414 C1434 0.950 . S
H1415 C1435 0.950 . S
H1416 C1437 0.950 . S
H1417 C1440 0.950 . S
H1418 C1441 0.950 . S
H1419 C1443 0.950 . S
H1420 C1444 0.950 . S
H1421 C1445 0.951 . S
H1422 C1447 0.951 . S
H1423 C1449 0.950 . S
H1424 C1450 0.950 . S
H1425 C1452 0.950 . S
H1426 C1455 0.950 . S
H1427 C1456 0.950 . S
H1428 C1458 0.950 . S
H1429 C1459 0.950 . S
C1430 H1412 0.951 . S
C1430 C1431 1.366 . S
C1430 C1432 1.388 . S
C1431 C1430 1.366 . S
C1431 C1435 1.385 . S
C1432 H1413 0.951 . S
C1432 C1430 1.388 . S
C1432 C1433 1.366 . S
C1433 C1432 1.366 . S
C1433 C1434 1.414 . S
C1433 C1436 1.499 . S
C1434 H1414 0.950 . S
C1434 C1433 1.414 . S
C1434 C1435 1.374 . S
C1435 H1415 0.950 . S
C1435 C1431 1.385 . S
C1435 C1434 1.374 . S
C1436 C1433 1.499 . S
C1436 C1437 1.373 . S
C1436 C1438 1.389 . S
C1437 H1416 0.950 . S
C1437 C1436 1.373 . S
C1437 C1453 1.377 . S
C1438 C1436 1.389 . S
C1438 C1439 1.524 . S
C1438 C1452 1.377 . S
C1439 C1438 1.524 . S
C1439 C1440 1.397 . S
C1439 C1444 1.363 . S
C1440 H1417 0.950 . S
C1440 C1439 1.397 . S
C1440 C1441 1.334 . S
C1441 H1418 0.950 . S
C1441 C1440 1.334 . S
C1441 C1442 1.287 . S
C1442 C1441 1.287 . S
C1442 C1443 1.524 . S
C1442 H1461 0.913 . S
C1443 H1419 0.950 . S
C1443 C1442 1.524 . S
C1443 C1444 1.415 . S
C1444 H1420 0.950 . S
C1444 C1439 1.363 . S
C1444 C1443 1.415 . S
C1445 H1421 0.951 . S
C1445 C1446 1.366 . S
C1445 C1447 1.388 . S
C1446 C1445 1.366 . S
C1446 C1450 1.385 . S
C1447 H1422 0.951 . S
C1447 C1445 1.388 . S
C1447 C1448 1.366 . S
C1448 C1447 1.366 . S
C1448 C1449 1.414 . S
C1448 C1451 1.499 . S
C1449 H1423 0.950 . S
C1449 C1448 1.414 . S
C1449 C1450 1.374 . S
C1450 H1424 0.950 . S
C1450 C1446 1.385 . S
C1450 C1449 1.374 . S
C1451 C1448 1.499 . S
C1451 C1452 1.373 . S
C1451 C1453 1.389 . S
C1452 H1425 0.950 . S
C1452 C1438 1.377 . S
C1452 C1451 1.373 . S
C1453 C1437 1.377 . S
C1453 C1451 1.389 . S
C1453 C1454 1.524 . S
C1454 C1453 1.524 . S
C1454 C1455 1.397 . S
C1454 C1459 1.363 . S
C1455 H1426 0.950 . S
C1455 C1454 1.397 . S
C1455 C1456 1.334 . S
C1456 H1427 0.950 . S
C1456 C1455 1.334 . S
C1456 C1457 1.287 . S
C1457 C1456 1.287 . S
C1457 C1458 1.524 . S
C1457 H1460 0.999 . S
C1458 H1428 0.950 . S
C1458 C1457 1.524 . S
C1458 C1459 1.415 . S
C1459 H1429 0.950 . S
C1459 C1454 1.363 . S
C1459 C1458 1.415 . S
H1460 C1457 0.999 . S
H1461 C1442 0.913 . S
H1462 C1480 0.951 . S
H1463 C1482 0.951 . S
H1464 C1484 0.950 . S
H1465 C1485 0.950 . S
H1466 C1487 0.950 . S
H1467 C1490 0.950 . S
H1468 C1491 0.950 . S
H1469 C1493 0.950 . S
H1470 C1494 0.950 . S
H1471 C1495 0.951 . S
H1472 C1497 0.951 . S
H1473 C1499 0.950 . S
H1474 C1500 0.950 . S
H1475 C1502 0.950 . S
H1476 C1505 0.950 . S
H1477 C1506 0.950 . S
H1478 C1508 0.950 . S
H1479 C1509 0.950 . S
C1480 H1462 0.951 . S
C1480 C1481 1.366 . S
C1480 C1482 1.388 . S
C1481 C1480 1.366 . S
C1481 C1485 1.385 . S
C1482 H1463 0.951 . S
C1482 C1480 1.388 . S
C1482 C1483 1.366 . S
C1483 C1482 1.366 . S
C1483 C1484 1.414 . S
C1483 C1486 1.499 . S
C1484 H1464 0.950 . S
C1484 C1483 1.414 . S
C1484 C1485 1.374 . S
C1485 H1465 0.950 . S
C1485 C1481 1.385 . S
C1485 C1484 1.374 . S
C1486 C1483 1.499 . S
C1486 C1487 1.373 . S
C1486 C1488 1.389 . S
C1487 H1466 0.950 . S
C1487 C1486 1.373 . S
C1487 C1503 1.377 . S
C1488 C1486 1.389 . S
C1488 C1489 1.524 . S
C1488 C1502 1.377 . S
C1489 C1488 1.524 . S
C1489 C1490 1.397 . S
C1489 C1494 1.363 . S
C1490 H1467 0.950 . S
C1490 C1489 1.397 . S
C1490 C1491 1.334 . S
C1491 H1468 0.950 . S
C1491 C1490 1.334 . S
C1491 C1492 1.287 . S
C1492 C1491 1.287 . S
C1492 C1493 1.524 . S
C1492 H1511 0.913 . S
C1493 H1469 0.950 . S
C1493 C1492 1.524 . S
C1493 C1494 1.415 . S
C1494 H1470 0.950 . S
C1494 C1489 1.363 . S
C1494 C1493 1.415 . S
C1495 H1471 0.951 . S
C1495 C1496 1.366 . S
C1495 C1497 1.388 . S
C1496 C1495 1.366 . S
C1496 C1500 1.385 . S
C1497 H1472 0.951 . S
C1497 C1495 1.388 . S
C1497 C1498 1.366 . S
C1498 C1497 1.366 . S
C1498 C1499 1.414 . S
C1498 C1501 1.499 . S
C1499 H1473 0.950 . S
C1499 C1498 1.414 . S
C1499 C1500 1.374 . S
C1500 H1474 0.950 . S
C1500 C1496 1.385 . S
C1500 C1499 1.374 . S
C1501 C1498 1.499 . S
C1501 C1502 1.373 . S
C1501 C1503 1.389 . S
C1502 H1475 0.950 . S
C1502 C1488 1.377 . S
C1502 C1501 1.373 . S
C1503 C1487 1.377 . S
C1503 C1501 1.389 . S
C1503 C1504 1.524 . S
C1504 C1503 1.524 . S
C1504 C1505 1.397 . S
C1504 C1509 1.363 . S
C1505 H1476 0.950 . S
C1505 C1504 1.397 . S
C1505 C1506 1.334 . S
C1506 H1477 0.950 . S
C1506 C1505 1.334 . S
C1506 C1507 1.287 . S
C1507 C1506 1.287 . S
C1507 C1508 1.524 . S
C1507 H1510 0.999 . S
C1508 H1478 0.950 . S
C1508 C1507 1.524 . S
C1508 C1509 1.415 . S
C1509 H1479 0.950 . S
C1509 C1504 1.363 . S
C1509 C1508 1.415 . S
H1510 C1507 0.999 . S
H1511 C1492 0.913 . S
C331 C125 1.788 . S
C346 C162 1.833 . S
C396 C202 1.834 . S
C381 C144 1.788 . S
C446 C242 1.834 . S
C431 C87 1.788 . S
C496 C282 1.833 . S
C481 C106 1.787 . S
C546 C171 1.840 . S
C531 C49 1.800 . S
C581 C68 1.799 . S
C596 C211 1.833 . S
C631 C11 1.799 . S
C646 C251 1.833 . S
C681 C30 1.801 . S
C696 C291 1.834 . S
C746 C168 0.390 . S
C731 C97 0.473 . S
C796 C208 0.390 . S
C781 C116 0.473 . S
C846 C248 0.390 . S
C831 C135 0.473 . S
C881 C78 0.476 . S
C896 C288 0.392 . S
C931 C21 0.472 . S
C946 C159 0.390 . S
C996 C199 0.391 . S
C981 C40 0.471 . S
C1046 C239 0.390 . S
C1031 C59 0.472 . S
C1081 C2 0.472 . S
C1096 C279 0.392 . S
C1131 C101 1.912 . S
C1146 C163 2.091 . S
C1181 C120 1.912 . S
C1196 C203 2.092 . S
C1246 C243 2.092 . S
C1231 C139 1.913 . S
C1296 C283 2.092 . S
C1281 C82 1.912 . S
C1331 C25 1.912 . S
C1346 C154 2.093 . S
C1396 C194 2.092 . S
C1381 C44 1.911 . S
C1446 C234 2.091 . S
C1431 C63 1.911 . S
C1481 C6 1.912 . S
C1496 C274 2.092 . S
