# Generated by pormake.
# Topology anh, (6,3)-cn, num edge types: 1
# Building blocks:
#     Node 0, Type 0, BuildingBlock: HISSIN_clean_sbu_0, # of connection points: 6
#     Node 1, Type 0, BuildingBlock: HISSIN_clean_sbu_0, # of connection points: 6
#     Node 2, Type 0, BuildingBlock: HISSIN_clean_sbu_0, # of connection points: 6
#     Node 3, Type 1, BuildingBlock: VETTIZ_charged_linker_0, # of connection points: 3
#     Node 4, Type 1, BuildingBlock: VETTIZ_charged_linker_0, # of connection points: 3
#     Node 5, Type 1, BuildingBlock: VETTIZ_charged_linker_0, # of connection points: 3
#     Node 6, Type 1, BuildingBlock: VETTIZ_charged_linker_0, # of connection points: 3
#     Node 7, Type 1, BuildingBlock: VETTIZ_charged_linker_0, # of connection points: 3
#     Node 8, Type 1, BuildingBlock: VETTIZ_charged_linker_0, # of connection points: 3
#     Edge 9, Type (0, 1), None
#     Edge 10, Type (0, 1), None
#     Edge 11, Type (0, 1), None
#     Edge 12, Type (0, 1), None
#     Edge 13, Type (0, 1), None
#     Edge 14, Type (0, 1), None
#     Edge 15, Type (0, 1), None
#     Edge 16, Type (0, 1), None
#     Edge 17, Type (0, 1), None
#     Edge 18, Type (0, 1), None
#     Edge 19, Type (0, 1), None
#     Edge 20, Type (0, 1), None
#     Edge 21, Type (0, 1), None
#     Edge 22, Type (0, 1), None
#     Edge 23, Type (0, 1), None
#     Edge 24, Type (0, 1), None
#     Edge 25, Type (0, 1), None
#     Edge 26, Type (0, 1), None
# Relax obj value: 0.451
# Max RMSD: 0.222
# Mean RMSD: 0.182
data_MOF--net-anh--node1-HISSIN_clean_sbu_0--node2-VETTIZ_charged_linker_0--edge1-none
_symmetry_space_group_name_H-M    P1
_symmetry_Int_Tables_number       1
_symmetry_cell_setting            triclinic
loop_
_symmetry_equiv_pos_as_xyz
'x, y, z'
_cell_length_a     18.859235
_cell_length_b     19.217862
_cell_length_c     38.125006
_cell_angle_alpha  91.312647
_cell_angle_beta   89.9748
_cell_angle_gamma 120.39097
loop_
_atom_site_label
_atom_site_type_symbol
_atom_site_fract_x
_atom_site_fract_y
_atom_site_fract_z
_atom_type_partial_charge
Eu0 Eu 1.16855 0.49408 0.14014 0.0
Eu1 Eu 0.28029 0.68357 0.14733 0.0
C2 C 1.20192 0.58194 0.21698 0.0
C3 C 0.97305 0.31554 0.13158 0.0
C4 C 0.93176 0.26558 0.15967 0.0
C5 C 0.87424 0.36194 0.13163 0.0
C6 C 0.86675 0.26895 0.17534 0.0
C7 C 0.93966 0.35894 0.11601 0.0
C8 C 0.84139 0.32104 0.16266 0.0
C9 C 1.06136 0.34428 0.12764 0.0
O10 O 0.37751 0.64571 0.15548 0.0
O11 O 0.29972 0.51492 0.13416 0.0
C12 C 0.37186 0.57692 0.14449 0.0
O13 O 1.17397 0.55756 0.08945 0.0
O14 O 0.35853 0.80384 0.17046 0.0
O15 O 0.3164 0.78968 0.11628 0.0
O16 O 0.30727 0.63924 0.0979 0.0
C17 C 0.24586 0.60602 0.07622 0.0
O18 O 1.07262 0.52961 0.15321 0.0
O19 O 1.14942 0.65495 0.13207 0.0
O20 O 1.22967 0.65067 0.20119 0.0
O21 O 1.09826 0.39457 0.10247 0.0
O22 O 1.10361 0.36918 0.15698 0.0
O23 O 1.18379 0.51494 0.19948 0.0
C24 C 0.31179 0.88886 0.15053 0.0
C25 C 0.23848 0.85763 0.16945 0.0
C26 C 0.3197 1.0182 0.14959 0.0
C27 C 1.20952 0.90831 0.18067 0.0
C28 C 0.34898 0.96764 0.13859 0.0
C29 C 0.25489 0.99124 0.17385 0.0
C30 C 0.34847 0.83874 0.14332 0.0
C31 C 1.07694 0.59545 0.14173 0.0
H32 H 0.95607 0.2318 0.17218 0.0
H33 H 0.8545 0.40162 0.12136 0.0
H34 H 0.84071 0.23598 0.19911 0.0
H35 H 0.96974 0.39807 0.09423 0.0
H36 H 1.20672 0.79544 0.17752 0.0
H37 H 0.3547 1.08088 0.14246 0.0
H38 H 1.15772 0.8848 0.19823 0.0
H39 H 0.40348 0.99152 0.12259 0.0
Eu40 Eu 0.71119 1.02926 0.47995 0.0
Eu41 Eu 0.61413 1.12598 0.48551 0.0
C42 C 0.6773 1.08664 0.55595 0.0
C43 C 0.89145 1.00072 0.48915 0.0
C44 C 0.90364 1.00446 0.52563 0.0
C45 C 1.03633 1.04606 0.48127 0.0
C46 C 0.97978 1.02341 0.53962 0.0
C47 C 0.95946 1.02577 0.4672 0.0
C48 C 1.04583 1.03883 0.51746 0.0
C49 C 0.80852 0.97131 0.47404 0.0
O50 O 0.74798 0.23292 0.48789 0.0
O51 O 0.81111 0.16209 0.47185 0.0
C52 C 0.81525 0.23194 0.47867 0.0
O53 O 0.64179 1.01357 0.42895 0.0
O54 O 0.57209 0.20659 0.50448 0.0
O55 O 0.52605 1.14177 0.45461 0.0
O56 O 0.68054 1.14288 0.43545 0.0
C57 C 0.65566 1.0804 0.41487 0.0
O58 O 0.58045 0.92351 0.48782 0.0
O59 O 0.5123 0.99253 0.47911 0.0
O60 O 0.62269 1.10117 0.54191 0.0
O61 O 0.7476 0.94383 0.49607 0.0
O62 O 0.80306 1.01617 0.45024 0.0
O63 O 0.72404 1.06838 0.53695 0.0
C64 C 0.57411 0.28078 0.45688 0.0
C65 C 0.63936 0.29949 0.43375 0.0
C66 C 0.63612 0.42176 0.47292 0.0
C67 C 0.70783 0.37709 0.43418 0.0
C68 C 0.56857 0.34365 0.47328 0.0
C69 C 0.70931 0.43597 0.45686 0.0
C70 C 0.53715 0.2031 0.47429 0.0
C71 C 0.51109 0.924 0.48406 0.0
H72 H 0.85328 0.98848 0.54349 0.0
H73 H 1.08618 1.05983 0.46342 0.0
H74 H 0.98352 1.01749 0.56763 0.0
H75 H 0.95235 1.02613 0.43901 0.0
H76 H 0.64386 0.25216 0.41988 0.0
H77 H 0.63611 0.46739 0.49017 0.0
H78 H 0.76334 0.38714 0.42126 0.0
H79 H 0.5185 0.33073 0.4909 0.0
Eu80 Eu 0.71302 0.58638 0.79644 0.0
Eu81 Eu 0.89257 0.68523 0.82729 0.0
C82 C 0.74389 0.60085 0.87871 0.0
C83 C 0.52681 0.58106 0.77242 0.0
C84 C 0.46024 0.55599 0.79511 0.0
C85 C 0.56105 0.72062 0.78177 0.0
C86 C 0.44943 0.61347 0.81349 0.0
C87 C 0.57117 0.66297 0.76303 0.0
C88 C 0.50476 0.6962 0.80913 0.0
C89 C 0.56763 0.53269 0.77009 0.0
O90 O 0.87624 0.55671 0.81815 0.0
O91 O 0.73676 0.48285 0.80695 0.0
C92 C 0.80751 0.48561 0.81281 0.0
O93 O 0.79617 0.58079 0.75532 0.0
O94 O 1.0258 0.74097 0.82317 0.0
O95 O 0.97097 0.7512 0.87189 0.0
O96 O 0.90423 0.70434 0.76932 0.0
C97 C 0.86608 0.64402 0.74693 0.0
O98 O 0.75606 0.71822 0.78483 0.0
O99 O 0.85533 0.78394 0.82619 0.0
O100 O 0.8136 0.60695 0.87001 0.0
O101 O 0.63314 0.56223 0.75075 0.0
O102 O 0.57972 0.50911 0.8003 0.0
O103 O 0.69958 0.60918 0.85447 0.0
C104 C 1.09511 0.8659 0.85512 0.0
C105 C 1.08037 0.91707 0.87706 0.0
C106 C 1.23225 0.9767 0.845 0.0
C107 C 1.14395 0.99533 0.88527 0.0
C108 C 1.16917 0.89847 0.83699 0.0
C109 C 1.22358 1.02161 0.87283 0.0
C110 C 1.03807 0.77793 0.85371 0.0
C111 C 0.80485 0.78551 0.80266 0.0
H112 H 0.42448 0.49343 0.8025 0.0
H113 H 0.60376 0.78412 0.77779 0.0
H114 H 0.40462 0.59363 0.83428 0.0
H115 H 0.62158 0.68431 0.7448 0.0
H116 H 1.02233 0.89475 0.89034 0.0
H117 H 0.29129 0.99584 0.83319 0.0
H118 H 1.13412 1.02974 0.90562 0.0
H119 H 1.18107 0.86133 0.8189 0.0
C120 C 0.70596 0.30753 0.17665 0.0
C121 C 0.78945 0.33976 0.18488 0.0
C122 C 0.8206 0.37847 0.21775 0.0
C123 C 0.68245 0.3263 0.23739 0.0
C124 C 0.65317 0.30303 0.20357 0.0
C125 C 0.56103 0.26197 0.20206 0.0
H126 H 0.23923 0.97356 0.24482 0.0
C127 C 0.61364 0.28694 0.26141 0.0
C128 C 0.54138 0.25975 0.24138 0.0
H129 H 0.2791 1.14683 0.16573 0.0
H130 H 0.3845 0.25489 0.20446 0.0
H131 H 0.40022 1.00409 0.24959 0.0
H132 H 0.30108 1.11557 0.31735 0.0
H133 H 0.37175 1.10333 0.34268 0.0
H134 H 0.28174 1.01545 0.3243 0.0
H135 H 0.32542 0.95041 0.28271 0.0
H136 H 0.433 1.00397 0.29257 0.0
C137 C 0.52609 0.17611 0.18588 0.0
C138 C 0.53667 0.31349 0.18014 0.0
C139 C 0.6721 0.15008 0.36022 0.0
C140 C 0.62166 1.08468 0.38119 0.0
C141 C 0.53601 1.04395 0.37601 0.0
C142 C 0.50111 1.07013 0.35079 0.0
C143 C 0.55267 1.13667 0.33022 0.0
C144 C 0.63671 0.17521 0.33505 0.0
C145 C 0.68232 0.2476 0.31252 0.0
C146 C 0.61102 0.24458 0.29205 0.0
C147 C 0.53549 0.17962 0.30294 0.0
C148 C 0.74359 0.2355 0.28953 0.0
C149 C 0.72549 0.32376 0.33669 0.0
C150 C 0.26844 1.03474 0.23569 0.0
C151 C 0.25804 1.05043 0.20061 0.0
C152 C 0.29139 1.13194 0.1914 0.0
C153 C 0.3547 0.19291 0.21217 0.0
C154 C 0.38312 0.16962 0.24082 0.0
C155 C 0.3354 1.09494 0.25492 0.0
C156 C 0.37827 1.08276 0.28556 0.0
C157 C 0.4618 0.16007 0.28482 0.0
C158 C 0.46479 0.20748 0.25684 0.0
C159 C 0.38456 1.00634 0.27759 0.0
C160 C 0.33082 1.07841 0.31934 0.0
H161 H 0.7912 0.40023 0.26948 0.0
H162 H 0.68182 0.28041 0.151 0.0
H163 H 0.53364 0.36013 0.19678 0.0
H164 H 0.47743 0.27564 0.16605 0.0
H165 H 0.58151 0.34489 0.159 0.0
H166 H 0.54985 1.14219 0.20023 0.0
H167 H 0.54274 0.17832 0.15782 0.0
H168 H 0.4584 1.14132 0.18712 0.0
H169 H 0.73785 0.1845 0.36495 0.0
H170 H 0.49589 0.99638 0.3933 0.0
H171 H 0.43533 1.03852 0.34862 0.0
H172 H 0.76154 0.19435 0.30146 0.0
H173 H 0.80261 0.29254 0.28648 0.0
H174 H 0.71663 0.20873 0.26332 0.0
H175 H 0.68227 0.32307 0.35671 0.0
H176 H 0.74705 0.37975 0.32208 0.0
H177 H 0.77906 0.32724 0.35058 0.0
H178 H 0.88566 0.40678 0.22387 0.0
C179 C 0.76675 0.37327 0.24409 0.0
C180 C 1.11522 0.96086 0.50997 0.0
C181 C 1.10864 1.01936 0.53013 0.0
C182 C 1.12539 1.02376 0.56647 0.0
C183 C 1.09775 0.88643 0.56276 0.0
C184 C 1.09882 0.8902 0.52653 0.0
C185 C 1.05392 0.80794 0.509 0.0
H186 H 0.74886 0.43041 0.52311 0.0
C187 C 1.05276 0.80035 0.57205 0.0
C188 C 1.02705 0.75421 0.54058 0.0
H189 H 0.84693 0.5659 0.42917 0.0
H190 H 0.96671 0.66711 0.46239 0.0
H191 H 0.94467 0.50658 0.59865 0.0
H192 H 0.77364 0.57644 0.57122 0.0
H193 H 0.79526 0.55027 0.61228 0.0
H194 H 0.73998 0.47287 0.58026 0.0
H195 H 0.91333 0.45859 0.55691 0.0
H196 H 0.8388 0.42905 0.59087 0.0
C197 C 1.11603 0.7967 0.4867 0.0
C198 C 0.97913 0.79993 0.4876 0.0
C199 C 0.95507 0.72301 0.6972 0.0
C200 C 0.90065 0.64801 0.71187 0.0
C201 C 0.87723 0.57661 0.69218 0.0
C202 C 0.90291 0.58 0.65752 0.0
C203 C 0.94903 0.65533 0.64196 0.0
C204 C 0.97845 0.72521 0.66214 0.0
C205 C 1.02929 0.7995 0.64102 0.0
C206 C 1.02323 0.76207 0.60466 0.0
C207 C 0.97348 0.67778 0.6054 0.0
C208 C 1.11847 0.84241 0.65547 0.0
C209 C 0.98841 0.85246 0.64255 0.0
C210 C 0.79605 0.48279 0.50991 0.0
C211 C 0.7872 0.4938 0.47431 0.0
C212 C 0.85131 0.55888 0.45705 0.0
C213 C 0.91971 0.61755 0.47641 0.0
C214 C 0.92188 0.61136 0.51317 0.0
C215 C 0.86271 0.54266 0.529 0.0
C216 C 0.87209 0.54662 0.5682 0.0
C217 C 0.94431 0.63189 0.57362 0.0
C218 C 0.97255 0.66963 0.54134 0.0
C219 C 0.89295 0.48181 0.5794 0.0
C220 C 0.79137 0.53595 0.58408 0.0
H221 H 1.12366 0.95893 0.61113 0.0
H222 H 1.10786 0.95791 0.48172 0.0
H223 H 0.96688 0.84987 0.49318 0.0
H224 H 0.92009 0.74627 0.49444 0.0
H225 H 0.98865 0.79899 0.45889 0.0
H226 H 1.17424 0.81741 0.5017 0.0
H227 H 1.13125 0.83231 0.46246 0.0
H228 H 1.09315 0.73283 0.47932 0.0
H229 H 0.97536 0.7789 0.71196 0.0
H230 H 0.83778 0.51812 0.70337 0.0
H231 H 0.88237 0.52398 0.64347 0.0
H232 H 1.13848 0.79791 0.6601 0.0
H233 H 1.12348 0.87432 0.68084 0.0
H234 H 1.16314 0.88598 0.63698 0.0
H235 H 0.92392 0.8184 0.65183 0.0
H236 H 0.98328 0.8736 0.61643 0.0
H237 H 1.02248 0.9056 0.6606 0.0
H238 H 1.12744 1.07182 0.58267 0.0
C239 C 1.12037 0.95688 0.58302 0.0
C240 C 0.50412 0.81762 0.83567 0.0
C241 C 0.51758 0.75227 0.8386 0.0
C242 C 0.54012 0.73638 0.87137 0.0
C243 C 0.50574 0.82835 0.89898 0.0
C244 C 0.49966 0.85615 0.86678 0.0
C245 C 0.48281 0.92479 0.87133 0.0
H246 H 1.22597 1.01487 0.94468 0.0
C247 C 0.47062 0.85778 0.92545 0.0
C248 C 0.45955 0.91727 0.91011 0.0
H249 H 0.38946 1.13238 0.85913 0.0
H250 H 0.47739 1.08302 0.87866 0.0
H251 H 1.19824 0.8631 0.92918 0.0
H252 H 0.37952 1.02557 0.00517 0.0
H253 H 0.32196 0.92871 0.02304 0.0
H254 H 0.27068 0.98229 0.01061 0.0
H255 H 1.16995 0.87622 0.97274 0.0
H256 H 1.20108 0.8036 0.96248 0.0
C257 C 0.41198 0.91067 0.84633 0.0
C258 C 0.56398 1.00428 0.86494 0.0
C259 C 0.32005 0.66235 0.0221 0.0
C260 C 0.25628 0.65073 0.0443 0.0
C261 C 1.22273 0.70139 0.0418 0.0
C262 C 0.2547 0.76472 0.018 0.0
C263 C 0.32019 0.77665 -0.00369 0.0
C264 C 0.35033 0.72463 -0.00182 0.0
C265 C 0.41955 0.74524 0.97347 0.0
C266 C 0.42388 0.81658 0.95504 0.0
C267 C 0.36819 0.8369 0.96957 0.0
C268 C 0.39582 0.67007 0.94921 0.0
C269 C 0.49853 0.77343 -0.00449 0.0
C270 C 0.28274 1.03343 0.93086 0.0
C271 C 0.29506 1.06692 0.89731 0.0
C272 C 0.37442 1.09915 0.8832 0.0
C273 C 0.42381 1.06784 0.89368 0.0
C274 C 0.39403 1.00895 0.9195 0.0
C275 C 0.32937 0.99855 0.94011 0.0
C276 C 0.30427 0.93155 0.96564 0.0
C277 C 0.36398 0.9032 0.95643 0.0
C278 C 0.41392 0.94664 0.92831 0.0
C279 C 1.21367 0.86515 0.9575 0.0
C280 C 0.31926 0.96836 0.00324 0.0
H281 H 0.55319 0.76239 0.92624 0.0
H282 H 0.49279 0.83436 0.81027 0.0
H283 H 0.61774 0.99921 0.87304 0.0
H284 H 0.5703 1.05535 0.88119 0.0
H285 H 0.57051 1.02012 0.83682 0.0
H286 H 0.35527 0.85275 0.85204 0.0
H287 H 0.42844 0.90855 0.81854 0.0
H288 H 0.39725 0.95909 0.84834 0.0
H289 H 0.34889 0.62611 0.02463 0.0
H290 H 1.17641 0.69615 0.06004 0.0
H291 H 1.22868 0.80313 0.01802 0.0
H292 H 0.34212 0.61395 0.95878 0.0
H293 H 0.44591 0.65592 0.94764 0.0
H294 H 0.37806 0.6778 0.92245 0.0
H295 H 0.50717 0.82098 0.01512 0.0
H296 H 0.55452 0.79977 0.97944 0.0
H297 H 0.49446 0.72261 0.01005 0.0
H298 H 0.55688 0.69038 0.87368 0.0
C299 C 0.53601 0.77588 0.90165 0.0
C300 C 0.95437 0.3728 0.48009 0.0
C301 C 0.88588 0.30612 0.46215 0.0
C302 C 0.88564 0.306 0.42529 0.0
C303 C 1.01723 0.43162 0.42391 0.0
C304 C 1.01979 0.43547 0.46024 0.0
C305 C 1.09969 0.5116 0.47297 0.0
H306 H 0.44629 0.87072 0.4204 0.0
C307 C 1.09184 0.50283 0.4099 0.0
C308 C 1.14118 0.5528 0.43843 0.0
H309 H 0.39748 0.79725 0.52754 0.0
H310 H 0.27063 0.67142 0.50853 0.0
H311 H 0.42156 0.71585 0.39393 0.0
H312 H 0.26605 0.81743 0.39641 0.0
H313 H 0.24552 0.76773 0.35534 0.0
H314 H 0.34892 0.84713 0.36626 0.0
H315 H 0.42631 0.78276 0.36092 0.0
H316 H 0.36193 0.67453 0.3559 0.0
C317 C 1.15282 0.48599 0.49328 0.0
C318 C 1.07853 0.5655 0.49559 0.0
C319 C 1.1395 0.52264 0.27633 0.0
C320 C 1.19957 0.58534 0.25591 0.0
C321 C 0.2583 0.65748 0.27298 0.0
C322 C 0.25875 0.66763 0.3092 0.0
C323 C 1.20018 0.60495 0.32955 0.0
C324 C 1.14059 0.53448 0.31323 0.0
C325 C 1.07983 0.47809 0.33968 0.0
C326 C 1.11687 0.52469 0.37449 0.0
C327 C 1.18747 0.59836 0.36796 0.0
C328 C 1.081 0.39818 0.33768 0.0
C329 C 0.99452 0.46843 0.33139 0.0
C330 C 0.40821 0.82891 0.44016 0.0
C331 C 0.4323 0.84552 0.47535 0.0
C332 C 0.38088 0.78686 0.49995 0.0
C333 C 0.30713 0.71407 0.48897 0.0
C334 C 0.28455 0.69883 0.45294 0.0
C335 C 0.3369 0.75682 0.42974 0.0
C336 C 0.31267 0.73225 0.39247 0.0
C337 C 1.23607 0.65047 0.39602 0.0
C338 C 1.21608 0.62896 0.43145 0.0
C339 C 0.38396 0.72638 0.3746 0.0
C340 C 0.29274 0.79429 0.37647 0.0
H341 H 0.9438 0.3611 0.37846 0.0
H342 H 0.95755 0.3753 0.50846 0.0
H343 H 1.04084 0.58292 0.47994 0.0
H344 H 1.13438 0.62152 0.50459 0.0
H345 H 1.04329 0.53328 0.51906 0.0
H346 H 1.16339 0.44334 0.47705 0.0
H347 H 1.12195 0.45553 0.5178 0.0
H348 H 1.21362 0.53848 0.50034 0.0
H349 H 1.09193 0.46729 0.2639 0.0
H350 H 0.30496 0.70701 0.25817 0.0
H351 H 0.30545 0.72468 0.3197 0.0
H352 H 1.14538 0.41065 0.33723 0.0
H353 H 1.04926 0.36277 0.31345 0.0
H354 H 1.05237 0.35985 0.36049 0.0
H355 H 0.99956 0.51711 0.31447 0.0
H356 H 0.96373 0.47303 0.35539 0.0
H357 H 0.95316 0.41008 0.3175 0.0
H358 H 0.83543 0.25682 0.41069 0.0
C359 C 0.94947 0.36725 0.4064 0.0
C360 C 0.82017 0.93303 0.80838 0.0
C361 C 0.81285 0.86405 0.78878 0.0
C362 C 0.80777 0.86607 0.75205 0.0
C363 C 0.80679 0.99245 0.75421 0.0
C364 C 0.81744 0.99753 0.79019 0.0
C365 C 0.82317 1.07734 0.80389 0.0
H366 H 0.74985 0.39142 0.75537 0.0
C367 C 0.79623 1.05999 0.74206 0.0
C368 C 0.80582 1.11268 0.77077 0.0
H369 H 0.86865 0.39974 0.85287 0.0
H370 H 0.86074 0.26936 0.83632 0.0
H371 H 0.86235 0.3634 0.71287 0.0
H372 H 0.62136 0.20555 0.75118 0.0
H373 H 0.62 0.16692 0.70895 0.0
H374 H 0.64071 0.26926 0.7145 0.0
H375 H 0.77213 0.35156 0.69161 0.0
H376 H 0.81695 0.29131 0.67901 0.0
C377 C 0.91026 1.13433 0.81847 0.0
C378 C 0.75816 1.05908 0.83182 0.0
C379 C 0.72013 1.0542 0.61286 0.0
C380 C 0.69091 1.09734 0.59428 0.0
C381 C 0.67691 0.15353 0.61253 0.0
C382 C 0.69456 0.16893 0.64839 0.0
C383 C 0.72619 1.12741 0.66664 0.0
C384 C 0.73583 1.06931 0.64911 0.0
C385 C 0.76209 1.02588 0.67355 0.0
C386 C 0.7716 1.07122 0.70835 0.0
C387 C 0.75226 1.13149 0.70372 0.0
C388 C 0.84584 1.0386 0.6607 0.0
C389 C 0.69139 0.9362 0.6742 0.0
C390 C 0.77402 0.36611 0.77376 0.0
C391 C 0.80925 0.40742 0.80542 0.0
C392 C 0.8412 0.37072 0.82787 0.0
C393 C 0.83646 0.29493 0.81839 0.0
C394 C 0.80136 0.25544 0.78567 0.0
C395 C 0.77286 0.29414 0.76429 0.0
C396 C 0.74621 0.25486 0.72909 0.0
C397 C 0.76344 0.1864 0.7315 0.0
C398 C 0.793 0.18139 0.76508 0.0
C399 C 0.80134 0.31799 0.70154 0.0
C400 C 0.65246 0.22285 0.72537 0.0
H401 H 0.80134 0.92317 0.70716 0.0
H402 H 0.82544 0.93554 0.83669 0.0
H403 H 0.69629 1.01546 0.82083 0.0
H404 H 0.75876 1.115 0.84038 0.0
H405 H 0.76944 1.03219 0.85514 0.0
H406 H 0.95674 1.14626 0.79797 0.0
H407 H 0.92346 1.10709 0.84114 0.0
H408 H 0.91765 0.19287 0.82732 0.0
H409 H 0.72964 1.00916 0.59961 0.0
H410 H 0.65443 0.18752 0.59886 0.0
H411 H 0.68399 0.21388 0.66017 0.0
H412 H 0.88501 1.10065 0.65082 0.0
H413 H 0.83716 0.99544 0.63894 0.0
H414 H 0.88284 1.03338 0.68186 0.0
H415 H 0.63229 0.92781 0.66388 0.0
H416 H 0.67687 0.91307 0.70117 0.0
H417 H 0.70612 0.89646 0.65803 0.0
H418 H 0.80462 0.81759 0.73573 0.0
C419 C 0.80535 0.92842 0.73511 0.0
C420 C 0.93318 0.58845 0.14316 0.0
C421 C 1.00081 0.58932 0.1253 0.0
C422 C 0.99721 0.58344 0.08862 0.0
C423 C 0.86666 0.5802 0.08691 0.0
C424 C 0.8661 0.58408 0.12311 0.0
C425 C 0.78832 0.58504 0.13523 0.0
H426 H 0.417 0.55437 0.08003 0.0
C427 C 0.79223 0.57796 0.07253 0.0
C428 C 0.7434 0.5796 0.10029 0.0
H429 H 0.50507 0.59773 0.187 0.0
H430 H 0.62914 0.59469 0.16832 0.0
H431 H 0.56499 0.6799 0.05124 0.0
H432 H 0.48715 0.42828 0.05307 0.0
H433 H 0.51671 0.46555 0.01015 0.0
H434 H 0.43489 0.47188 0.03127 0.0
H435 H 0.50607 0.61181 0.01579 0.0
H436 H 0.61702 0.66501 0.01636 0.0
C437 C 0.81489 0.66505 0.15525 0.0
C438 C 0.73622 0.51153 0.15794 0.0
C439 C 0.77503 0.58463 0.94034 0.0
C440 C 0.72028 0.58798 0.91639 0.0
C441 C 0.64708 0.58134 0.92946 0.0
C442 C 0.6304 0.5732 0.96585 0.0
C443 C 0.68815 0.57315 -0.01047 0.0
C444 C 0.75835 0.57806 0.97616 0.0
C445 C 0.81409 0.57794 0.004 0.0
C446 C 0.76811 0.57559 0.03703 0.0
C447 C 0.69396 0.57178 0.02871 0.0
C448 C 0.89791 0.6582 0.00157 0.0
C449 C 0.81783 0.49936 -0.00154 0.0
C450 C 0.46192 0.56204 0.09977 0.0
C451 C 0.44941 0.57494 0.1351 0.0
C452 C 0.51207 0.58738 0.15952 0.0
C453 C 0.58415 0.58576 0.14869 0.0
C454 C 0.59583 0.57409 0.11282 0.0
C455 C 0.53456 0.56349 0.08929 0.0
C456 C 0.55794 0.56084 0.05194 0.0
C457 C 0.64208 0.57005 0.05619 0.0
C458 C 0.66564 0.57553 0.09205 0.0
C459 C 0.56152 0.63273 0.03267 0.0
C460 C 0.49581 0.47734 0.03549 0.0
H461 H 0.93624 0.57539 0.0419 0.0
H462 H 0.93316 0.59218 0.17152 0.0
H463 H 0.72125 0.45505 0.14321 0.0
H464 H 0.6777 0.50776 0.16542 0.0
H465 H 0.77013 0.51471 0.18232 0.0
H466 H 0.85711 0.71703 0.13905 0.0
H467 H 0.84755 0.66848 0.18006 0.0
H468 H 0.76177 0.67207 0.16175 0.0
H469 H 0.83179 0.58892 0.93167 0.0
H470 H 0.60322 0.58304 0.91169 0.0
H471 H 0.57348 0.56771 0.97417 0.0
H472 H 0.88973 0.70764 -0.00851 0.0
H473 H 0.9404 0.65124 0.98359 0.0
H474 H 0.9288 0.68184 0.02732 0.0
H475 H 0.76135 0.45067 0.98511 0.0
H476 H 0.82062 0.47264 0.02349 0.0
H477 H 0.87094 0.51005 0.98206 0.0
H478 H 1.04578 0.58186 0.07411 0.0
C479 C 0.9319 0.57884 0.0697 0.0
loop_
_geom_bond_atom_site_label_1
_geom_bond_atom_site_label_2
_geom_bond_distance
_geom_bond_site_symmetry_2
_ccdc_geom_bond_type
Eu0 C9 2.828 . S
Eu0 O11 2.392 1_655 S
Eu0 O13 2.418 . S
Eu0 O18 2.373 . S
Eu0 O21 2.488 . S
Eu0 O22 2.471 . S
Eu0 O23 2.349 . S
Eu1 O10 2.373 . S
Eu1 O14 2.488 . S
Eu1 O15 2.471 . S
Eu1 O16 2.349 . S
Eu1 O19 2.392 1_455 S
Eu1 O20 2.418 . S
Eu1 C30 2.828 . S
C2 O20 1.244 . S
C2 O23 1.265 1_455 S
C3 C4 1.379 . S
C3 C7 1.373 . S
C3 C9 1.505 . S
C4 C3 1.379 . S
C4 C6 1.369 . S
C4 H32 0.930 . S
C5 C7 1.383 . S
C5 C8 1.382 . S
C5 H33 0.930 . S
C6 C4 1.369 . S
C6 C8 1.392 . S
C6 H34 0.930 . S
C7 C3 1.373 . S
C7 C5 1.383 . S
C7 H35 0.931 . S
C8 C5 1.382 . S
C8 C6 1.392 . S
C9 Eu0 2.828 . S
C9 C3 1.505 . S
C9 O21 1.249 . S
C9 O22 1.244 . S
O10 Eu1 2.373 . S
O10 C12 1.258 . S
O11 Eu0 2.392 1_455 S
O11 C12 1.242 . S
C12 O10 1.258 . S
C12 O11 1.242 . S
O13 Eu0 2.418 . S
O13 C17 1.244 . S
O14 Eu1 2.488 . S
O14 C30 1.249 . S
O15 Eu1 2.471 . S
O15 C30 1.244 . S
O16 Eu1 2.349 . S
O16 C17 1.265 1_455 S
C17 O13 1.244 . S
C17 O16 1.265 1_655 S
O18 Eu0 2.373 . S
O18 C31 1.258 . S
O19 Eu1 2.392 1_655 S
O19 C31 1.242 . S
O20 Eu1 2.418 . S
O20 C2 1.244 . S
O21 Eu0 2.488 . S
O21 C9 1.249 . S
O22 Eu0 2.471 . S
O22 C9 1.244 . S
O23 Eu0 2.349 . S
O23 C2 1.265 1_655 S
C24 C25 1.379 . S
C24 C28 1.373 . S
C24 C30 1.505 . S
C25 C24 1.379 . S
C25 C27 1.369 . S
C25 H36 0.930 . S
C26 C28 1.383 . S
C26 C29 1.382 . S
C26 H37 0.930 . S
C27 C25 1.369 . S
C27 C29 1.392 . S
C27 H38 0.930 . S
C28 C24 1.373 . S
C28 C26 1.383 . S
C28 H39 0.931 . S
C29 C26 1.382 . S
C29 C27 1.392 . S
C30 Eu1 2.828 . S
C30 O14 1.249 . S
C30 O15 1.244 . S
C30 C24 1.505 . S
C31 O18 1.258 . S
C31 O19 1.242 . S
H32 C4 0.930 . S
H33 C5 0.930 . S
H34 C6 0.930 . S
H35 C7 0.931 . S
H36 C25 0.930 . S
H37 C26 0.930 . S
H38 C27 0.930 . S
H39 C28 0.931 . S
Eu40 C49 2.828 . S
Eu40 O51 2.392 1_565 S
Eu40 O53 2.418 . S
Eu40 O58 2.373 . S
Eu40 O61 2.488 . S
Eu40 O62 2.471 . S
Eu40 O63 2.349 . S
Eu41 O50 2.373 . S
Eu41 O54 2.488 . S
Eu41 O55 2.471 . S
Eu41 O56 2.349 . S
Eu41 O59 2.392 1_545 S
Eu41 O60 2.418 . S
Eu41 C70 2.828 . S
C42 O60 1.244 . S
C42 O63 1.265 1_545 S
C43 C44 1.379 . S
C43 C47 1.373 . S
C43 C49 1.505 . S
C44 C43 1.379 . S
C44 C46 1.369 . S
C44 H72 0.930 . S
C45 C47 1.383 . S
C45 C48 1.382 . S
C45 H73 0.930 . S
C46 C44 1.369 . S
C46 C48 1.392 . S
C46 H74 0.930 . S
C47 C43 1.373 . S
C47 C45 1.383 . S
C47 H75 0.931 . S
C48 C45 1.382 . S
C48 C46 1.392 . S
C49 Eu40 2.828 . S
C49 C43 1.505 . S
C49 O61 1.249 . S
C49 O62 1.244 . S
O50 Eu41 2.373 . S
O50 C52 1.258 . S
O51 Eu40 2.392 1_545 S
O51 C52 1.242 . S
C52 O50 1.258 . S
C52 O51 1.242 . S
O53 Eu40 2.418 . S
O53 C57 1.244 . S
O54 Eu41 2.488 . S
O54 C70 1.249 . S
O55 Eu41 2.471 . S
O55 C70 1.244 . S
O56 Eu41 2.349 . S
O56 C57 1.265 1_545 S
C57 O53 1.244 . S
C57 O56 1.265 1_565 S
O58 Eu40 2.373 . S
O58 C71 1.258 . S
O59 Eu41 2.392 1_565 S
O59 C71 1.242 . S
O60 Eu41 2.418 . S
O60 C42 1.244 . S
O61 Eu40 2.488 . S
O61 C49 1.249 . S
O62 Eu40 2.471 . S
O62 C49 1.244 . S
O63 Eu40 2.349 . S
O63 C42 1.265 1_565 S
C64 C65 1.379 . S
C64 C68 1.373 . S
C64 C70 1.505 . S
C65 C64 1.379 . S
C65 C67 1.369 . S
C65 H76 0.930 . S
C66 C68 1.383 . S
C66 C69 1.382 . S
C66 H77 0.930 . S
C67 C65 1.369 . S
C67 C69 1.392 . S
C67 H78 0.930 . S
C68 C64 1.373 . S
C68 C66 1.383 . S
C68 H79 0.931 . S
C69 C66 1.382 . S
C69 C67 1.392 . S
C70 Eu41 2.828 . S
C70 O54 1.249 . S
C70 O55 1.244 . S
C70 C64 1.505 . S
C71 O58 1.258 . S
C71 O59 1.242 . S
H72 C44 0.930 . S
H73 C45 0.930 . S
H74 C46 0.930 . S
H75 C47 0.931 . S
H76 C65 0.930 . S
H77 C66 0.930 . S
H78 C67 0.930 . S
H79 C68 0.931 . S
Eu80 C89 2.828 . S
Eu80 O91 2.392 . S
Eu80 O93 2.418 . S
Eu80 O98 2.373 . S
Eu80 O101 2.488 . S
Eu80 O102 2.471 . S
Eu80 O103 2.349 . S
Eu81 O90 2.373 . S
Eu81 O94 2.488 . S
Eu81 O95 2.471 . S
Eu81 O96 2.349 . S
Eu81 O99 2.392 . S
Eu81 O100 2.418 . S
Eu81 C110 2.828 . S
C82 O100 1.244 . S
C82 O103 1.265 . S
C83 C84 1.379 . S
C83 C87 1.373 . S
C83 C89 1.505 . S
C84 C83 1.379 . S
C84 C86 1.369 . S
C84 H112 0.930 . S
C85 C87 1.383 . S
C85 C88 1.382 . S
C85 H113 0.930 . S
C86 C84 1.369 . S
C86 C88 1.392 . S
C86 H114 0.930 . S
C87 C83 1.373 . S
C87 C85 1.383 . S
C87 H115 0.931 . S
C88 C85 1.382 . S
C88 C86 1.392 . S
C89 Eu80 2.828 . S
C89 C83 1.505 . S
C89 O101 1.249 . S
C89 O102 1.244 . S
O90 Eu81 2.373 . S
O90 C92 1.258 . S
O91 Eu80 2.392 . S
O91 C92 1.242 . S
C92 O90 1.258 . S
C92 O91 1.242 . S
O93 Eu80 2.418 . S
O93 C97 1.244 . S
O94 Eu81 2.488 . S
O94 C110 1.249 . S
O95 Eu81 2.471 . S
O95 C110 1.244 . S
O96 Eu81 2.349 . S
O96 C97 1.265 . S
C97 O93 1.244 . S
C97 O96 1.265 . S
O98 Eu80 2.373 . S
O98 C111 1.258 . S
O99 Eu81 2.392 . S
O99 C111 1.242 . S
O100 Eu81 2.418 . S
O100 C82 1.244 . S
O101 Eu80 2.488 . S
O101 C89 1.249 . S
O102 Eu80 2.471 . S
O102 C89 1.244 . S
O103 Eu80 2.349 . S
O103 C82 1.265 . S
C104 C105 1.379 . S
C104 C108 1.373 . S
C104 C110 1.505 . S
C105 C104 1.379 . S
C105 C107 1.369 . S
C105 H116 0.930 . S
C106 C108 1.383 . S
C106 C109 1.382 . S
C106 H117 0.930 . S
C107 C105 1.369 . S
C107 C109 1.392 . S
C107 H118 0.930 . S
C108 C104 1.373 . S
C108 C106 1.383 . S
C108 H119 0.931 . S
C109 C106 1.382 . S
C109 C107 1.392 . S
C110 Eu81 2.828 . S
C110 O94 1.249 . S
C110 O95 1.244 . S
C110 C104 1.505 . S
C111 O98 1.258 . S
C111 O99 1.242 . S
H112 C84 0.930 . S
H113 C85 0.930 . S
H114 C86 0.930 . S
H115 C87 0.931 . S
H116 C105 0.930 . S
H117 C106 0.930 . S
H118 C107 0.930 . S
H119 C108 0.931 . S
C120 C121 1.391 . S
C120 C124 1.391 . S
C120 H162 0.948 . S
C121 C120 1.391 . S
C121 C122 1.391 . S
C122 C121 1.391 . S
C122 H178 0.947 . S
C122 C179 1.392 . S
C123 C124 1.391 . S
C123 C127 1.397 . S
C123 C179 1.419 . S
C124 C120 1.391 . S
C124 C123 1.391 . S
C124 C125 1.399 . S
C125 C124 1.399 . S
C125 C128 1.396 . S
C125 C137 1.453 . S
C125 C138 1.684 . S
H126 C150 0.948 . S
C127 C123 1.397 . S
C127 C128 1.394 . S
C127 C146 1.723 . S
C128 C125 1.396 . S
C128 C127 1.394 . S
C128 C158 1.723 1_545 S
H129 C152 0.947 . S
H130 C153 0.948 . S
H131 C159 0.982 . S
H132 C160 0.979 . S
H133 C160 0.980 . S
H134 C160 0.983 . S
H135 C159 0.979 . S
H136 C159 0.977 . S
C137 C125 1.453 . S
C137 H166 0.982 . S
C137 H167 0.979 . S
C137 H168 0.977 . S
C138 C125 1.684 . S
C138 H163 0.979 . S
C138 H164 0.980 . S
C138 H165 0.983 . S
C139 C140 1.391 . S
C139 C144 1.391 . S
C139 H169 0.948 . S
C140 C139 1.391 . S
C140 C141 1.391 1_545 S
C141 C140 1.391 1_565 S
C141 C142 1.392 . S
C141 H170 0.947 . S
C142 C141 1.392 . S
C142 C143 1.419 1_565 S
C142 H171 0.948 . S
C143 C142 1.419 1_545 S
C143 C144 1.391 . S
C143 C147 1.397 . S
C144 C139 1.391 . S
C144 C143 1.391 . S
C144 C145 1.399 . S
C145 C144 1.399 . S
C145 C146 1.396 . S
C145 C148 1.453 . S
C145 C149 1.684 . S
C146 C127 1.723 . S
C146 C145 1.396 . S
C146 C147 1.394 . S
C147 C143 1.397 . S
C147 C146 1.394 . S
C147 C157 1.723 1_545 S
C148 C145 1.453 . S
C148 H172 0.982 . S
C148 H173 0.979 . S
C148 H174 0.977 . S
C149 C145 1.684 . S
C149 H175 0.979 . S
C149 H176 0.980 . S
C149 H177 0.983 . S
C150 H126 0.948 . S
C150 C151 1.391 . S
C150 C155 1.391 . S
C151 C150 1.391 . S
C151 C152 1.391 . S
C152 H129 0.947 . S
C152 C151 1.391 . S
C152 C153 1.392 . S
C153 H130 0.948 . S
C153 C152 1.392 . S
C153 C154 1.419 . S
C154 C153 1.419 . S
C154 C155 1.391 . S
C154 C158 1.397 . S
C155 C150 1.391 . S
C155 C154 1.391 . S
C155 C156 1.399 . S
C156 C155 1.399 . S
C156 C157 1.396 . S
C156 C159 1.453 . S
C156 C160 1.684 . S
C157 C147 1.723 1_565 S
C157 C156 1.396 . S
C157 C158 1.394 . S
C158 C128 1.723 1_565 S
C158 C154 1.397 . S
C158 C157 1.394 . S
C159 H131 0.982 . S
C159 H135 0.979 . S
C159 H136 0.977 . S
C159 C156 1.453 . S
C160 H132 0.979 . S
C160 H133 0.980 . S
C160 H134 0.983 . S
C160 C156 1.684 . S
H161 C179 0.948 . S
H162 C120 0.948 . S
H163 C138 0.979 . S
H164 C138 0.980 . S
H165 C138 0.983 . S
H166 C137 0.982 . S
H167 C137 0.979 . S
H168 C137 0.977 . S
H169 C139 0.948 . S
H170 C141 0.947 . S
H171 C142 0.948 . S
H172 C148 0.982 . S
H173 C148 0.979 . S
H174 C148 0.977 . S
H175 C149 0.979 . S
H176 C149 0.980 . S
H177 C149 0.983 . S
H178 C122 0.947 . S
C179 C122 1.392 . S
C179 C123 1.419 . S
C179 H161 0.948 . S
C180 C181 1.391 . S
C180 C184 1.391 . S
C180 H222 0.948 . S
C181 C180 1.391 . S
C181 C182 1.391 . S
C182 C181 1.391 . S
C182 H238 0.947 . S
C182 C239 1.392 . S
C183 C184 1.391 . S
C183 C187 1.397 . S
C183 C239 1.419 . S
C184 C180 1.391 . S
C184 C183 1.391 . S
C184 C185 1.399 . S
C185 C184 1.399 . S
C185 C188 1.396 . S
C185 C197 1.453 . S
C185 C198 1.684 . S
H186 C210 0.948 . S
C187 C183 1.397 . S
C187 C188 1.394 . S
C187 C206 1.723 . S
C188 C185 1.396 . S
C188 C187 1.394 . S
C188 C218 1.723 . S
H189 C212 0.947 . S
H190 C213 0.948 . S
H191 C219 0.982 . S
H192 C220 0.979 . S
H193 C220 0.980 . S
H194 C220 0.983 . S
H195 C219 0.979 . S
H196 C219 0.977 . S
C197 C185 1.453 . S
C197 H226 0.982 . S
C197 H227 0.979 . S
C197 H228 0.977 . S
C198 C185 1.684 . S
C198 H223 0.979 . S
C198 H224 0.980 . S
C198 H225 0.983 . S
C199 C200 1.391 . S
C199 C204 1.391 . S
C199 H229 0.948 . S
C200 C199 1.391 . S
C200 C201 1.391 . S
C201 C200 1.391 . S
C201 C202 1.392 . S
C201 H230 0.947 . S
C202 C201 1.392 . S
C202 C203 1.419 . S
C202 H231 0.948 . S
C203 C202 1.419 . S
C203 C204 1.391 . S
C203 C207 1.397 . S
C204 C199 1.391 . S
C204 C203 1.391 . S
C204 C205 1.399 . S
C205 C204 1.399 . S
C205 C206 1.396 . S
C205 C208 1.453 . S
C205 C209 1.684 . S
C206 C187 1.723 . S
C206 C205 1.396 . S
C206 C207 1.394 . S
C207 C203 1.397 . S
C207 C206 1.394 . S
C207 C217 1.723 . S
C208 C205 1.453 . S
C208 H232 0.982 . S
C208 H233 0.979 . S
C208 H234 0.977 . S
C209 C205 1.684 . S
C209 H235 0.979 . S
C209 H236 0.980 . S
C209 H237 0.983 . S
C210 H186 0.948 . S
C210 C211 1.391 . S
C210 C215 1.391 . S
C211 C210 1.391 . S
C211 C212 1.391 . S
C212 H189 0.947 . S
C212 C211 1.391 . S
C212 C213 1.392 . S
C213 H190 0.948 . S
C213 C212 1.392 . S
C213 C214 1.419 . S
C214 C213 1.419 . S
C214 C215 1.391 . S
C214 C218 1.397 . S
C215 C210 1.391 . S
C215 C214 1.391 . S
C215 C216 1.399 . S
C216 C215 1.399 . S
C216 C217 1.396 . S
C216 C219 1.453 . S
C216 C220 1.684 . S
C217 C207 1.723 . S
C217 C216 1.396 . S
C217 C218 1.394 . S
C218 C188 1.723 . S
C218 C214 1.397 . S
C218 C217 1.394 . S
C219 H191 0.982 . S
C219 H195 0.979 . S
C219 H196 0.977 . S
C219 C216 1.453 . S
C220 H192 0.979 . S
C220 H193 0.980 . S
C220 H194 0.983 . S
C220 C216 1.684 . S
H221 C239 0.948 . S
H222 C180 0.948 . S
H223 C198 0.979 . S
H224 C198 0.980 . S
H225 C198 0.983 . S
H226 C197 0.982 . S
H227 C197 0.979 . S
H228 C197 0.977 . S
H229 C199 0.948 . S
H230 C201 0.947 . S
H231 C202 0.948 . S
H232 C208 0.982 . S
H233 C208 0.979 . S
H234 C208 0.977 . S
H235 C209 0.979 . S
H236 C209 0.980 . S
H237 C209 0.983 . S
H238 C182 0.947 . S
C239 C182 1.392 . S
C239 C183 1.419 . S
C239 H221 0.948 . S
C240 C241 1.391 . S
C240 C244 1.391 . S
C240 H282 0.948 . S
C241 C240 1.391 . S
C241 C242 1.391 . S
C242 C241 1.391 . S
C242 H298 0.947 . S
C242 C299 1.392 . S
C243 C244 1.391 . S
C243 C247 1.397 . S
C243 C299 1.419 . S
C244 C240 1.391 . S
C244 C243 1.391 . S
C244 C245 1.399 . S
C245 C244 1.399 . S
C245 C248 1.396 . S
C245 C257 1.453 . S
C245 C258 1.684 . S
H246 C270 0.948 . S
C247 C243 1.397 . S
C247 C248 1.394 . S
C247 C266 1.723 . S
C248 C245 1.396 . S
C248 C247 1.394 . S
C248 C278 1.711 1_455 S
H249 C272 0.947 . S
H250 C273 0.948 . S
H251 C279 0.982 . S
H252 C280 0.979 . S
H253 C280 0.980 . S
H254 C280 0.983 . S
H255 C279 0.979 . S
H256 C279 0.977 . S
C257 C245 1.453 . S
C257 H286 0.982 . S
C257 H287 0.979 . S
C257 H288 0.977 . S
C258 C245 1.684 . S
C258 H283 0.979 . S
C258 H284 0.980 . S
C258 H285 0.983 . S
C259 C260 1.391 . S
C259 C264 1.391 . S
C259 H289 0.948 . S
C260 C259 1.391 . S
C260 C261 1.391 1_455 S
C261 C260 1.391 1_655 S
C261 C262 1.392 . S
C261 H290 0.947 . S
C262 C261 1.392 . S
C262 C263 1.419 1_655 S
C262 H291 0.948 . S
C263 C262 1.419 1_455 S
C263 C264 1.391 . S
C263 C267 1.397 1_554 S
C264 C259 1.391 . S
C264 C263 1.391 . S
C264 C265 1.399 1_554 S
C265 C264 1.399 1_556 S
C265 C266 1.396 . S
C265 C268 1.453 . S
C265 C269 1.684 1_556 S
C266 C247 1.723 . S
C266 C265 1.396 . S
C266 C267 1.394 . S
C267 C263 1.397 1_556 S
C267 C266 1.394 . S
C267 C277 1.723 1_455 S
C268 C265 1.453 . S
C268 H292 0.982 . S
C268 H293 0.979 1_556 S
C268 H294 0.977 . S
C269 C265 1.684 1_554 S
C269 H295 0.979 . S
C269 H296 0.980 1_554 S
C269 H297 0.983 . S
C270 H246 0.948 . S
C270 C271 1.391 . S
C270 C275 1.391 . S
C271 C270 1.391 . S
C271 C272 1.391 . S
C272 H249 0.947 . S
C272 C271 1.391 . S
C272 C273 1.392 . S
C273 H250 0.948 . S
C273 C272 1.392 . S
C273 C274 1.419 . S
C274 C273 1.419 . S
C274 C275 1.391 . S
C274 C278 1.407 . S
C275 C270 1.391 . S
C275 C274 1.391 . S
C275 C276 1.399 . S
C276 C275 1.399 . S
C276 C277 1.396 . S
C276 C279 1.453 . S
C276 C280 1.684 . S
C277 C267 1.723 1_655 S
C277 C276 1.396 . S
C277 C278 1.399 . S
C278 C248 1.711 1_655 S
C278 C274 1.407 . S
C278 C277 1.399 . S
C279 H251 0.982 . S
C279 H255 0.979 . S
C279 H256 0.977 . S
C279 C276 1.453 . S
C280 H252 0.979 . S
C280 H253 0.980 . S
C280 H254 0.983 . S
C280 C276 1.684 . S
H281 C299 0.948 . S
H282 C240 0.948 . S
H283 C258 0.979 . S
H284 C258 0.980 . S
H285 C258 0.983 . S
H286 C257 0.982 . S
H287 C257 0.979 . S
H288 C257 0.977 . S
H289 C259 0.948 . S
H290 C261 0.947 . S
H291 C262 0.948 . S
H292 C268 0.982 . S
H293 C268 0.979 1_554 S
H294 C268 0.977 . S
H295 C269 0.979 . S
H296 C269 0.980 1_556 S
H297 C269 0.983 . S
H298 C242 0.947 . S
C299 C242 1.392 . S
C299 C243 1.419 . S
C299 H281 0.948 . S
C300 C301 1.391 . S
C300 C304 1.391 . S
C300 H342 0.948 . S
C301 C300 1.391 . S
C301 C302 1.391 . S
C302 C301 1.391 . S
C302 H358 0.947 . S
C302 C359 1.392 . S
C303 C304 1.391 . S
C303 C307 1.397 . S
C303 C359 1.419 . S
C304 C300 1.391 . S
C304 C303 1.391 . S
C304 C305 1.399 . S
C305 C304 1.399 . S
C305 C308 1.396 1_655 S
C305 C317 1.453 1_655 S
C305 C318 1.684 . S
H306 C330 0.948 . S
C307 C303 1.397 . S
C307 C308 1.394 1_655 S
C307 C326 1.723 . S
C308 C305 1.396 1_455 S
C308 C307 1.394 1_455 S
C308 C338 1.723 . S
H309 C332 0.947 . S
H310 C333 0.948 . S
H311 C339 0.982 . S
H312 C340 0.979 . S
H313 C340 0.980 . S
H314 C340 0.983 . S
H315 C339 0.979 . S
H316 C339 0.977 . S
C317 C305 1.453 1_455 S
C317 H346 0.982 . S
C317 H347 0.979 . S
C317 H348 0.977 . S
C318 C305 1.684 . S
C318 H343 0.979 . S
C318 H344 0.980 1_655 S
C318 H345 0.983 . S
C319 C320 1.391 1_655 S
C319 C324 1.391 . S
C319 H349 0.948 . S
C320 C319 1.391 1_455 S
C320 C321 1.391 . S
C321 C320 1.391 . S
C321 C322 1.392 . S
C321 H350 0.947 . S
C322 C321 1.392 . S
C322 C323 1.419 . S
C322 H351 0.948 . S
C323 C322 1.419 . S
C323 C324 1.391 1_455 S
C323 C327 1.397 . S
C324 C319 1.391 . S
C324 C323 1.391 1_655 S
C324 C325 1.399 . S
C325 C324 1.399 . S
C325 C326 1.396 . S
C325 C328 1.453 . S
C325 C329 1.684 . S
C326 C307 1.723 . S
C326 C325 1.396 . S
C326 C327 1.394 1_655 S
C327 C323 1.397 . S
C327 C326 1.394 1_455 S
C327 C337 1.723 . S
C328 C325 1.453 . S
C328 H352 0.982 . S
C328 H353 0.979 . S
C328 H354 0.977 . S
C329 C325 1.684 . S
C329 H355 0.979 . S
C329 H356 0.980 . S
C329 H357 0.983 . S
C330 H306 0.948 . S
C330 C331 1.391 . S
C330 C335 1.391 . S
C331 C330 1.391 . S
C331 C332 1.391 . S
C332 H309 0.947 . S
C332 C331 1.391 . S
C332 C333 1.392 . S
C333 H310 0.948 . S
C333 C332 1.392 . S
C333 C334 1.419 . S
C334 C333 1.419 . S
C334 C335 1.391 . S
C334 C338 1.397 . S
C335 C330 1.391 . S
C335 C334 1.391 . S
C335 C336 1.399 . S
C336 C335 1.399 . S
C336 C337 1.396 . S
C336 C339 1.453 . S
C336 C340 1.684 . S
C337 C327 1.723 . S
C337 C336 1.396 . S
C337 C338 1.394 . S
C338 C308 1.723 . S
C338 C334 1.397 . S
C338 C337 1.394 . S
C339 H311 0.982 . S
C339 H315 0.979 . S
C339 H316 0.977 . S
C339 C336 1.453 . S
C340 H312 0.979 . S
C340 H313 0.980 . S
C340 H314 0.983 . S
C340 C336 1.684 . S
H341 C359 0.948 . S
H342 C300 0.948 . S
H343 C318 0.979 . S
H344 C318 0.980 1_455 S
H345 C318 0.983 . S
H346 C317 0.982 . S
H347 C317 0.979 . S
H348 C317 0.977 . S
H349 C319 0.948 . S
H350 C321 0.947 . S
H351 C322 0.948 . S
H352 C328 0.982 . S
H353 C328 0.979 . S
H354 C328 0.977 . S
H355 C329 0.979 . S
H356 C329 0.980 . S
H357 C329 0.983 . S
H358 C302 0.947 . S
C359 C302 1.392 . S
C359 C303 1.419 . S
C359 H341 0.948 . S
C360 C361 1.391 . S
C360 C364 1.391 . S
C360 H402 0.948 . S
C361 C360 1.391 . S
C361 C362 1.391 . S
C362 C361 1.391 . S
C362 H418 0.947 . S
C362 C419 1.392 . S
C363 C364 1.391 . S
C363 C367 1.397 . S
C363 C419 1.419 . S
C364 C360 1.391 . S
C364 C363 1.391 . S
C364 C365 1.399 . S
C365 C364 1.399 . S
C365 C368 1.396 . S
C365 C377 1.453 1_565 S
C365 C378 1.684 . S
H366 C390 0.948 . S
C367 C363 1.397 . S
C367 C368 1.394 . S
C367 C386 1.723 . S
C368 C365 1.396 . S
C368 C367 1.394 . S
C368 C398 1.723 1_565 S
H369 C392 0.947 . S
H370 C393 0.948 . S
H371 C399 0.982 . S
H372 C400 0.979 . S
H373 C400 0.980 . S
H374 C400 0.983 . S
H375 C399 0.979 . S
H376 C399 0.977 . S
C377 C365 1.453 1_545 S
C377 H406 0.982 . S
C377 H407 0.979 1_545 S
C377 H408 0.977 . S
C378 C365 1.684 . S
C378 H403 0.979 . S
C378 H404 0.980 . S
C378 H405 0.983 . S
C379 C380 1.391 1_565 S
C379 C384 1.391 . S
C379 H409 0.948 . S
C380 C379 1.391 1_545 S
C380 C381 1.391 . S
C381 C380 1.391 . S
C381 C382 1.392 . S
C381 H410 0.947 . S
C382 C381 1.392 . S
C382 C383 1.419 . S
C382 H411 0.948 . S
C383 C382 1.419 . S
C383 C384 1.391 1_545 S
C383 C387 1.397 . S
C384 C379 1.391 . S
C384 C383 1.391 1_565 S
C384 C385 1.399 . S
C385 C384 1.399 . S
C385 C386 1.396 . S
C385 C388 1.453 . S
C385 C389 1.684 . S
C386 C367 1.723 . S
C386 C385 1.396 . S
C386 C387 1.394 1_565 S
C387 C383 1.397 . S
C387 C386 1.394 1_545 S
C387 C397 1.723 . S
C388 C385 1.453 . S
C388 H412 0.982 . S
C388 H413 0.979 . S
C388 H414 0.977 . S
C389 C385 1.684 . S
C389 H415 0.979 . S
C389 H416 0.980 . S
C389 H417 0.983 . S
C390 H366 0.948 . S
C390 C391 1.391 . S
C390 C395 1.391 . S
C391 C390 1.391 . S
C391 C392 1.391 . S
C392 H369 0.947 . S
C392 C391 1.391 . S
C392 C393 1.392 . S
C393 H370 0.948 . S
C393 C392 1.392 . S
C393 C394 1.419 . S
C394 C393 1.419 . S
C394 C395 1.391 . S
C394 C398 1.397 . S
C395 C390 1.391 . S
C395 C394 1.391 . S
C395 C396 1.399 . S
C396 C395 1.399 . S
C396 C397 1.396 . S
C396 C399 1.453 . S
C396 C400 1.684 . S
C397 C387 1.723 . S
C397 C396 1.396 . S
C397 C398 1.394 . S
C398 C368 1.723 1_545 S
C398 C394 1.397 . S
C398 C397 1.394 . S
C399 H371 0.982 . S
C399 H375 0.979 . S
C399 H376 0.977 . S
C399 C396 1.453 . S
C400 H372 0.979 . S
C400 H373 0.980 . S
C400 H374 0.983 . S
C400 C396 1.684 . S
H401 C419 0.948 . S
H402 C360 0.948 . S
H403 C378 0.979 . S
H404 C378 0.980 . S
H405 C378 0.983 . S
H406 C377 0.982 . S
H407 C377 0.979 1_565 S
H408 C377 0.977 . S
H409 C379 0.948 . S
H410 C381 0.947 . S
H411 C382 0.948 . S
H412 C388 0.982 . S
H413 C388 0.979 . S
H414 C388 0.977 . S
H415 C389 0.979 . S
H416 C389 0.980 . S
H417 C389 0.983 . S
H418 C362 0.947 . S
C419 C362 1.392 . S
C419 C363 1.419 . S
C419 H401 0.948 . S
C420 C421 1.391 . S
C420 C424 1.391 . S
C420 H462 0.948 . S
C421 C420 1.391 . S
C421 C422 1.391 . S
C422 C421 1.391 . S
C422 H478 0.947 . S
C422 C479 1.392 . S
C423 C424 1.391 . S
C423 C427 1.397 . S
C423 C479 1.419 . S
C424 C420 1.391 . S
C424 C423 1.391 . S
C424 C425 1.399 . S
C425 C424 1.399 . S
C425 C428 1.396 . S
C425 C437 1.453 . S
C425 C438 1.684 . S
H426 C450 0.948 . S
C427 C423 1.397 . S
C427 C428 1.394 . S
C427 C446 1.723 . S
C428 C425 1.396 . S
C428 C427 1.394 . S
C428 C458 1.723 . S
H429 C452 0.947 . S
H430 C453 0.948 . S
H431 C459 0.982 . S
H432 C460 0.979 . S
H433 C460 0.980 . S
H434 C460 0.983 . S
H435 C459 0.979 . S
H436 C459 0.977 . S
C437 C425 1.453 . S
C437 H466 0.982 . S
C437 H467 0.979 . S
C437 H468 0.977 . S
C438 C425 1.684 . S
C438 H463 0.979 . S
C438 H464 0.980 . S
C438 H465 0.983 . S
C439 C440 1.391 . S
C439 C444 1.391 . S
C439 H469 0.948 . S
C440 C439 1.391 . S
C440 C441 1.391 . S
C441 C440 1.391 . S
C441 C442 1.392 . S
C441 H470 0.947 . S
C442 C441 1.392 . S
C442 C443 1.419 1_556 S
C442 H471 0.948 1_556 S
C443 C442 1.419 1_554 S
C443 C444 1.391 1_554 S
C443 C447 1.397 . S
C444 C439 1.391 . S
C444 C443 1.391 1_556 S
C444 C445 1.399 1_556 S
C445 C444 1.399 1_554 S
C445 C446 1.396 . S
C445 C448 1.453 . S
C445 C449 1.684 . S
C446 C427 1.723 . S
C446 C445 1.396 . S
C446 C447 1.394 . S
C447 C443 1.397 . S
C447 C446 1.394 . S
C447 C457 1.723 . S
C448 C445 1.453 . S
C448 H472 0.982 . S
C448 H473 0.979 . S
C448 H474 0.977 . S
C449 C445 1.684 . S
C449 H475 0.979 . S
C449 H476 0.980 . S
C449 H477 0.983 1_554 S
C450 H426 0.948 . S
C450 C451 1.391 . S
C450 C455 1.391 . S
C451 C450 1.391 . S
C451 C452 1.391 . S
C452 H429 0.947 . S
C452 C451 1.391 . S
C452 C453 1.392 . S
C453 H430 0.948 . S
C453 C452 1.392 . S
C453 C454 1.419 . S
C454 C453 1.419 . S
C454 C455 1.391 . S
C454 C458 1.397 . S
C455 C450 1.391 . S
C455 C454 1.391 . S
C455 C456 1.399 . S
C456 C455 1.399 . S
C456 C457 1.396 . S
C456 C459 1.453 . S
C456 C460 1.684 . S
C457 C447 1.723 . S
C457 C456 1.396 . S
C457 C458 1.394 . S
C458 C428 1.723 . S
C458 C454 1.397 . S
C458 C457 1.394 . S
C459 H431 0.982 . S
C459 H435 0.979 . S
C459 H436 0.977 . S
C459 C456 1.453 . S
C460 H432 0.979 . S
C460 H433 0.980 . S
C460 H434 0.983 . S
C460 C456 1.684 . S
H461 C479 0.948 . S
H462 C420 0.948 . S
H463 C438 0.979 . S
H464 C438 0.980 . S
H465 C438 0.983 . S
H466 C437 0.982 . S
H467 C437 0.979 . S
H468 C437 0.977 . S
H469 C439 0.948 . S
H470 C441 0.947 . S
H471 C442 0.948 1_554 S
H472 C448 0.982 . S
H473 C448 0.979 . S
H474 C448 0.977 . S
H475 C449 0.979 . S
H476 C449 0.980 . S
H477 C449 0.983 1_556 S
H478 C422 0.947 . S
C479 C422 1.392 . S
C479 C423 1.419 . S
C479 H461 0.948 . S
C12 C451 4.860 . S
C52 C301 4.592 . S
C111 C361 4.677 . S
C31 C421 4.878 . S
C331 C71 5.163 . S
C391 C92 5.071 . S
C48 C181 2.262 . S
C109 C271 2.236 . S
C29 C151 2.000 . S
C211 C69 1.840 . S
C241 C88 2.306 . S
C8 C121 2.274 . S
C260 C17 1.529 1_455 S
C57 C140 1.358 1_565 S
C97 C200 1.190 . S
C380 C42 2.020 . S
C440 C82 2.097 . S
C2 C320 2.021 . S
