# Generated by pormake.
# Topology zzz, (3,6)-cn, num edge types: 1
# Building blocks:
#     Node 0, Type 0, BuildingBlock: BELTOD_clean_linker_0, # of connection points: 3
#     Node 1, Type 0, BuildingBlock: BELTOD_clean_linker_0, # of connection points: 3
#     Node 2, Type 0, BuildingBlock: BELTOD_clean_linker_0, # of connection points: 3
#     Node 3, Type 0, BuildingBlock: BELTOD_clean_linker_0, # of connection points: 3
#     Node 4, Type 0, BuildingBlock: BELTOD_clean_linker_0, # of connection points: 3
#     Node 5, Type 0, BuildingBlock: BELTOD_clean_linker_0, # of connection points: 3
#     Node 6, Type 0, BuildingBlock: BELTOD_clean_linker_0, # of connection points: 3
#     Node 7, Type 0, BuildingBlock: BELTOD_clean_linker_0, # of connection points: 3
#     Node 8, Type 1, BuildingBlock: JUFBIX_clean_sbu_0, # of connection points: 6
#     Node 9, Type 1, BuildingBlock: JUFBIX_clean_sbu_0, # of connection points: 6
#     Node 10, Type 1, BuildingBlock: JUFBIX_clean_sbu_0, # of connection points: 6
#     Node 11, Type 1, BuildingBlock: JUFBIX_clean_sbu_0, # of connection points: 6
#     Edge 12, Type (0, 1), BuildingBlock: AJUNOK_clean_linker_0, # of connection points: 2
#     Edge 13, Type (0, 1), BuildingBlock: AJUNOK_clean_linker_0, # of connection points: 2
#     Edge 14, Type (0, 1), BuildingBlock: AJUNOK_clean_linker_0, # of connection points: 2
#     Edge 15, Type (0, 1), BuildingBlock: AJUNOK_clean_linker_0, # of connection points: 2
#     Edge 16, Type (0, 1), BuildingBlock: AJUNOK_clean_linker_0, # of connection points: 2
#     Edge 17, Type (0, 1), BuildingBlock: AJUNOK_clean_linker_0, # of connection points: 2
#     Edge 18, Type (0, 1), BuildingBlock: AJUNOK_clean_linker_0, # of connection points: 2
#     Edge 19, Type (0, 1), BuildingBlock: AJUNOK_clean_linker_0, # of connection points: 2
#     Edge 20, Type (0, 1), BuildingBlock: AJUNOK_clean_linker_0, # of connection points: 2
#     Edge 21, Type (0, 1), BuildingBlock: AJUNOK_clean_linker_0, # of connection points: 2
#     Edge 22, Type (0, 1), BuildingBlock: AJUNOK_clean_linker_0, # of connection points: 2
#     Edge 23, Type (0, 1), BuildingBlock: AJUNOK_clean_linker_0, # of connection points: 2
#     Edge 24, Type (0, 1), BuildingBlock: AJUNOK_clean_linker_0, # of connection points: 2
#     Edge 25, Type (0, 1), BuildingBlock: AJUNOK_clean_linker_0, # of connection points: 2
#     Edge 26, Type (0, 1), BuildingBlock: AJUNOK_clean_linker_0, # of connection points: 2
#     Edge 27, Type (0, 1), BuildingBlock: AJUNOK_clean_linker_0, # of connection points: 2
#     Edge 28, Type (0, 1), BuildingBlock: AJUNOK_clean_linker_0, # of connection points: 2
#     Edge 29, Type (0, 1), BuildingBlock: AJUNOK_clean_linker_0, # of connection points: 2
#     Edge 30, Type (0, 1), BuildingBlock: AJUNOK_clean_linker_0, # of connection points: 2
#     Edge 31, Type (0, 1), BuildingBlock: AJUNOK_clean_linker_0, # of connection points: 2
#     Edge 32, Type (0, 1), BuildingBlock: AJUNOK_clean_linker_0, # of connection points: 2
#     Edge 33, Type (0, 1), BuildingBlock: AJUNOK_clean_linker_0, # of connection points: 2
#     Edge 34, Type (0, 1), BuildingBlock: AJUNOK_clean_linker_0, # of connection points: 2
#     Edge 35, Type (0, 1), BuildingBlock: AJUNOK_clean_linker_0, # of connection points: 2
# Relax obj value: 0.253
# Max RMSD: 0.217
# Mean RMSD: 0.174
data_MOF--net-zzz--node1-JUFBIX_clean_sbu_0--node2-BELTOD_clean_linker_0--edge1-AJUNOK_clean_linker_0
_symmetry_space_group_name_H-M    P1
_symmetry_Int_Tables_number       1
_symmetry_cell_setting            triclinic
loop_
_symmetry_equiv_pos_as_xyz
'x, y, z'
_cell_length_a     42.11534
_cell_length_b     43.324215
_cell_length_c     16.506639
_cell_angle_alpha  80.390382
_cell_angle_beta   90.212823
_cell_angle_gamma 85.854966
loop_
_atom_site_label
_atom_site_type_symbol
_atom_site_fract_x
_atom_site_fract_y
_atom_site_fract_z
_atom_type_partial_charge
P0 P 0.77518 0.48828 0.36721 0.0
H1 H 0.77886 0.48846 0.54426 0.0
H2 H 0.81575 0.51363 0.622 0.0
H3 H 0.84028 0.57387 0.39921 0.0
H4 H 0.8033 0.54854 0.32128 0.0
H5 H 0.72537 0.45119 0.32313 0.0
H6 H 0.68233 0.46285 0.2215 0.0
H7 H 0.70028 0.56109 0.1858 0.0
H8 H 0.74428 0.54899 0.2864 0.0
H9 H 0.84376 0.47503 0.38694 0.0
H10 H 0.77499 0.49044 0.18676 0.0
O11 O 0.7725 0.45392 0.42894 0.0
H12 H 0.88703 0.47549 0.28801 0.0
H13 H 0.81806 0.49083 0.08861 0.0
C14 C 0.78878 0.5162 0.42675 0.0
C15 C 0.79099 0.50805 0.5125 0.0
C16 C 0.81209 0.52252 0.55705 0.0
C17 C 0.83134 0.54519 0.5162 0.0
C18 C 0.82595 0.55619 0.43192 0.0
C19 C 0.80465 0.54184 0.38748 0.0
C20 C 0.73781 0.49926 0.31316 0.0
C21 C 0.71947 0.47541 0.2955 0.0
C22 C 0.69485 0.4821 0.23705 0.0
C23 C 0.68821 0.51281 0.19459 0.0
C24 C 0.7053 0.53707 0.21622 0.0
C25 C 0.73015 0.53028 0.27459 0.0
C26 C 0.80613 0.48315 0.29448 0.0
C27 C 0.83793 0.47806 0.32198 0.0
C28 C 0.8626 0.47849 0.2656 0.0
C29 C 0.85575 0.48363 0.1809 0.0
C30 C 0.82388 0.48687 0.15369 0.0
C31 C 0.79923 0.48674 0.21002 0.0
P32 P 0.06299 0.75085 0.35244 0.0
H33 H 0.06883 0.75591 0.52653 0.0
H34 H 0.04716 0.79664 0.60123 0.0
H35 H 0.98176 0.83213 0.40013 0.0
H36 H 0.0039 0.79179 0.32442 0.0
H37 H 0.0924 0.6952 0.29951 0.0
H38 H 0.07434 0.6616 0.20702 0.0
H39 H 0.9791 0.70561 0.21022 0.0
H40 H 0.99768 0.74004 0.30101 0.0
H41 H 0.08132 0.81424 0.35348 0.0
H42 H 0.06626 0.7557 0.17118 0.0
O43 O 0.09669 0.73621 0.4025 0.0
H44 H 0.08213 0.85976 0.2456 0.0
H45 H 0.06914 0.80088 0.06268 0.0
C46 C 0.03786 0.77044 0.41991 0.0
C47 C 0.04896 0.77154 0.49957 0.0
C48 C 0.03677 0.79503 0.54207 0.0
C49 C 0.01314 0.81772 0.50581 0.0
C50 C -0.00012 0.81482 0.42951 0.0
C51 C 0.01228 0.79144 0.38667 0.0
C52 C 0.04641 0.72008 0.30789 0.0
C53 C 0.06739 0.69705 0.28249 0.0
C54 C 0.05704 0.67786 0.22915 0.0
C55 C 0.02542 0.68133 0.19974 0.0
C56 C 0.00385 0.70294 0.22988 0.0
C57 C 0.01435 0.72239 0.28284 0.0
C58 C 0.07271 0.7817 0.27094 0.0
C59 C 0.07916 0.81096 0.29012 0.0
C60 C 0.08006 0.837 0.22807 0.0
C61 C 0.07561 0.83398 0.14537 0.0
C62 C 0.07216 0.804 0.12594 0.0
C63 C 0.07059 0.77807 0.18824 0.0
P64 P 0.75031 0.04944 0.20084 0.0
H65 H 0.72865 0.07087 0.35093 0.0
H66 H 0.68882 0.05065 0.44834 0.0
H67 H 0.6932 0.96432 0.34947 0.0
H68 H 0.73333 0.98477 0.25148 0.0
H69 H 0.7783 0.05981 0.04067 0.0
H70 H 0.82817 0.04093 0.98547 0.0
H71 H 0.85222 0.98356 0.22061 0.0
H72 H 0.80169 1.00285 0.27617 0.0
H73 H 0.69381 0.09223 0.15737 0.0
H74 H 0.73553 0.00637 0.09008 0.0
O75 O 0.75676 0.08615 0.21116 0.0
H76 H 0.64645 0.08868 0.0734 0.0
H77 H 0.6884 1.00265 0.00695 0.0
C78 C 0.73409 0.02931 0.29397 0.0
C79 C 0.72223 0.04704 0.35241 0.0
C80 C 0.69923 0.03552 0.40791 0.0
C81 C 0.68741 0.00622 0.40515 0.0
C82 C 0.70151 0.98724 0.35184 0.0
C83 C 0.72476 0.99872 0.29667 0.0
C84 C 0.7861 0.03231 0.16202 0.0
C85 C 0.794 0.04277 0.08018 0.0
C86 C 0.82249 0.0319 0.04856 0.0
C87 C 0.84403 0.0107 0.09857 0.0
C88 C 0.83606 1.00002 0.18081 0.0
C89 C 0.80723 0.01086 0.21246 0.0
C90 C 0.7186 0.05019 0.1275 0.0
C91 C 0.69316 0.07314 0.12272 0.0
C92 C 0.66607 0.07094 0.07554 0.0
C93 C 0.66407 0.04563 0.03294 0.0
C94 C 0.68971 0.02282 0.03743 0.0
C95 C 0.71668 0.02499 0.08475 0.0
P96 P 0.45139 0.74343 0.19923 0.0
H97 H 0.45023 0.74164 0.37756 0.0
H98 H 0.4715 0.70087 0.48952 0.0
H99 H 0.5281 0.6575 0.31632 0.0
H100 H 0.50787 0.69881 0.20501 0.0
H101 H 0.41311 0.79991 0.12908 0.0
H102 H 0.42565 0.85096 0.05517 0.0
H103 H 0.52596 0.82209 0.08011 0.0
H104 H 0.51313 0.77045 0.15542 0.0
H105 H 0.41563 0.68862 0.20043 0.0
H106 H 0.48409 0.73777 0.04429 0.0
O107 O 0.41506 0.74833 0.23741 0.0
H108 H 0.42003 0.64588 0.1205 0.0
H109 H 0.48834 0.69515 0.96358 0.0
C110 C 0.47687 0.72297 0.28248 0.0
C111 C 0.46832 0.72425 0.36402 0.0
C112 C 0.48043 0.7009 0.42803 0.0
C113 C 0.5011 0.67594 0.41107 0.0
C114 C 0.5121 0.67649 0.33073 0.0
C115 C 0.50047 0.70015 0.2671 0.0
C116 C 0.4622 0.78156 0.14943 0.0
C117 C 0.43787 0.80454 0.11985 0.0
C118 C 0.44504 0.83376 0.07729 0.0
C119 C 0.47676 0.84058 0.06189 0.0
C120 C 0.50127 0.81741 0.09068 0.0
C121 C 0.49401 0.78806 0.13426 0.0
C122 C 0.44895 0.71672 0.1272 0.0
C123 C 0.43074 0.69074 0.14713 0.0
C124 C 0.43331 0.66629 0.10156 0.0
C125 C 0.45436 0.66733 0.03556 0.0
C126 C 0.4719 0.69383 0.01416 0.0
C127 C 0.46924 0.71834 0.05972 0.0
P128 P 0.20359 0.42975 0.36592 0.0
H129 H 0.16986 0.38996 0.2739 0.0
H130 H 0.13341 0.40336 0.15665 0.0
H131 H 0.16419 0.49756 0.11307 0.0
H132 H 0.1998 0.48432 0.23253 0.0
H133 H 0.26417 0.39476 0.4211 0.0
H134 H 0.31274 0.41152 0.4758 0.0
H135 H 0.27785 0.5084 0.40055 0.0
H136 H 0.23047 0.49153 0.34173 0.0
H137 H 0.13437 0.43289 0.37068 0.0
H138 H 0.20974 0.47113 0.49179 0.0
O139 O 0.20328 0.39168 0.40518 0.0
H140 H 0.09514 0.46231 0.4409 0.0
H141 H 0.17072 0.50321 0.55471 0.0
C142 C 0.18799 0.436 0.26199 0.0
C143 C 0.16987 0.41314 0.23727 0.0
C144 C 0.1489 0.42084 0.16987 0.0
C145 C 0.1458 0.45157 0.12553 0.0
C146 C 0.16587 0.47372 0.14643 0.0
C147 C 0.18663 0.46605 0.21433 0.0
C148 C 0.24327 0.44187 0.37848 0.0
C149 C 0.26739 0.41963 0.41391 0.0
C150 C 0.295 0.42926 0.44656 0.0
C151 C 0.29859 0.46131 0.44613 0.0
C152 C 0.2759 0.4835 0.40268 0.0
C153 C 0.24871 0.47383 0.36819 0.0
C154 C 0.17519 0.45081 0.42228 0.0
C155 C 0.14258 0.44832 0.41027 0.0
C156 C 0.12007 0.46567 0.44947 0.0
C157 C 0.12969 0.48639 0.50046 0.0
C158 C 0.16242 0.48802 0.51449 0.0
C159 C 0.18491 0.46991 0.47718 0.0
P160 P 0.06485 0.24129 0.37473 0.0
H161 H 0.1108 0.23405 0.24505 0.0
H162 H 0.11029 0.19973 0.14195 0.0
H163 H 0.01002 0.18999 0.18161 0.0
H164 H 0.01038 0.22539 0.28249 0.0
H165 H 0.09708 0.29719 0.395 0.0
H166 H 0.07919 0.34279 0.45595 0.0
H167 H 0.98249 0.31576 0.4519 0.0
H168 H 0.00033 0.2717 0.38407 0.0
H169 H 0.06368 0.17386 0.38109 0.0
H170 H 0.02635 0.24214 0.52572 0.0
O171 O 0.10341 0.2366 0.40127 0.0
H172 H 0.03729 0.13317 0.46937 0.0
H173 H 0.99791 0.20196 0.61023 0.0
C174 C 0.06079 0.23166 0.27304 0.0
C175 C 0.08834 0.22578 0.22896 0.0
C176 C 0.08813 0.20579 0.17065 0.0
C177 C 0.06043 0.19109 0.15641 0.0
C178 C 0.03184 0.20064 0.19196 0.0
C179 C 0.03198 0.22107 0.24943 0.0
C180 C 0.05016 0.28034 0.38798 0.0
C181 C 0.07187 0.30159 0.40476 0.0
C182 C 0.06167 0.32741 0.44119 0.0
C183 C 0.02968 0.33191 0.46361 0.0
C184 C 0.00743 0.31275 0.43714 0.0
C185 C 0.01757 0.2875 0.39808 0.0
C186 C 0.0456 0.21159 0.44332 0.0
C187 C 0.04896 0.18039 0.43009 0.0
C188 C 0.03346 0.15714 0.48004 0.0
C189 C 0.01423 0.16457 0.54454 0.0
C190 C 0.01187 0.19563 0.5597 0.0
C191 C 0.02788 0.2188 0.51045 0.0
P192 P 0.23943 0.09708 0.37258 0.0
H193 H 0.24494 0.13509 0.20995 0.0
H194 H 0.28294 0.1276 0.1024 0.0
H195 H 0.30242 0.03082 0.21504 0.0
H196 H 0.2643 0.03829 0.32267 0.0
H197 H 0.19224 0.12359 0.47283 0.0
H198 H 0.15086 0.10054 0.56038 0.0
H199 H 0.16643 0.01445 0.46236 0.0
H200 H 0.20764 0.03818 0.37198 0.0
H201 H 0.30285 0.11762 0.38911 0.0
H202 H 0.24888 0.04167 0.50428 0.0
O203 O 0.23651 0.13611 0.36486 0.0
H204 H 0.34975 0.09441 0.47142 0.0
H205 H 0.29565 0.01825 0.58495 0.0
C206 C 0.25209 0.08736 0.2752 0.0
C207 C 0.25617 0.11183 0.20967 0.0
C208 C 0.27809 0.10763 0.14838 0.0
C209 C 0.29615 0.07888 0.15189 0.0
C210 C 0.28886 0.05325 0.21116 0.0
C211 C 0.26688 0.05747 0.2725 0.0
C212 C 0.20299 0.08268 0.4155 0.0
C213 C 0.18619 0.1001 0.46789 0.0
C214 C 0.16284 0.08674 0.51897 0.0
C215 C 0.1562 0.05541 0.51996 0.0
C216 C 0.17135 0.03859 0.46324 0.0
C217 C 0.19471 0.05217 0.41127 0.0
C218 C 0.27208 0.08195 0.44199 0.0
C219 C 0.3009 0.09629 0.43304 0.0
C220 C 0.32775 0.08282 0.47921 0.0
C221 C 0.32621 0.05465 0.53484 0.0
C222 C 0.29732 0.04027 0.54363 0.0
C223 C 0.27049 0.05377 0.49741 0.0
P224 P 0.44768 0.30428 0.39083 0.0
H225 H 0.40792 0.3315 0.24799 0.0
H226 H 0.41905 0.3695 0.12837 0.0
H227 H 0.51989 0.35145 0.18064 0.0
H228 H 0.50835 0.31446 0.30436 0.0
H229 H 0.42081 0.26351 0.52395 0.0
H230 H 0.43561 0.21109 0.59704 0.0
H231 H 0.51704 0.20433 0.4412 0.0
H232 H 0.50131 0.25744 0.36523 0.0
H233 H 0.42068 0.3627 0.43405 0.0
H234 H 0.50991 0.30639 0.47102 0.0
O235 O 0.40807 0.30783 0.39797 0.0
H236 H 0.44332 0.40336 0.49673 0.0
H237 H 0.53309 0.34772 0.533 0.0
C238 C 0.45727 0.31989 0.28586 0.0
C239 C 0.43256 0.33484 0.23296 0.0
C240 C 0.43897 0.35686 0.16406 0.0
C241 C 0.47034 0.36442 0.14582 0.0
C242 C 0.49534 0.34714 0.19439 0.0
C243 C 0.48883 0.32531 0.26424 0.0
C244 C 0.45962 0.26434 0.43812 0.0
C245 C 0.44171 0.25081 0.5044 0.0
C246 C 0.45045 0.22086 0.54715 0.0
C247 C 0.47787 0.20371 0.52617 0.0
C248 C 0.49582 0.21705 0.45896 0.0
C249 C 0.48688 0.24733 0.41552 0.0
C250 C 0.46341 0.33127 0.44944 0.0
C251 C 0.44504 0.35886 0.45679 0.0
C252 C 0.45817 0.38233 0.4914 0.0
C253 C 0.49018 0.37894 0.51789 0.0
C254 C 0.50843 0.35092 0.51253 0.0
C255 C 0.49516 0.3273 0.47775 0.0
Co256 Co 0.02507 0.01383 0.89342 0.0
C257 C 0.96417 0.99559 0.93397 0.0
Co258 Co 0.00328 0.98895 0.80297 0.0
C259 C 0.04698 0.06615 0.96542 0.0
C260 C 0.04772 0.02317 0.05102 0.0
N261 N 0.04171 0.03536 0.97128 0.0
N262 N 0.05617 0.0734 0.03813 0.0
C263 C 0.05658 0.04635 0.09198 0.0
H264 H 0.04338 0.08314 0.90961 0.0
H265 H 0.0444 0.99923 0.0789 0.0
C266 C 0.0637 0.00843 0.76126 0.0
N267 N 0.98667 0.9668 0.72725 0.0
C268 C 0.00124 0.94147 0.70134 0.0
C269 C 0.95802 0.97107 0.68871 0.0
N270 N 0.983 0.92971 0.64802 0.0
C271 C 0.95565 0.94823 0.64021 0.0
C272 C 0.99129 0.05317 0.76741 0.0
O273 O 0.06168 0.01963 0.82779 0.0
O274 O 0.04125 0.99299 0.74085 0.0
O275 O 0.98661 0.02786 0.74111 0.0
O276 O 0.00599 0.05166 0.83543 0.0
O277 O 0.96527 0.98567 0.86555 0.0
H278 H 0.93991 0.98937 0.69612 0.0
H279 H 0.02452 0.9313 0.72343 0.0
O280 O 0.98813 0.00812 0.95767 0.0
O281 O 0.04441 0.97552 0.94967 0.0
O282 O 0.02051 0.95046 0.86525 0.0
C283 C 0.03873 0.94991 0.92694 0.0
H284 H 0.06118 0.04385 0.1574 0.0
H285 H 0.93541 0.94551 0.60211 0.0
Co286 Co 0.48152 0.03059 0.84564 0.0
C287 C 0.49275 0.96569 0.87625 0.0
Co288 Co 0.50754 0.01216 0.74527 0.0
C289 C 0.42722 0.05439 0.93261 0.0
C290 C 0.47009 0.0485 0.00502 0.0
N291 N 0.45876 0.04597 0.92985 0.0
N292 N 0.4187 0.06204 0.00581 0.0
C293 C 0.44561 0.0584 0.05152 0.0
H294 H 0.41052 0.05455 0.88266 0.0
H295 H 0.49435 0.0424 0.0265 0.0
C296 C 0.49594 0.07723 0.71563 0.0
N297 N 0.53018 0.9962 0.66326 0.0
C298 C 0.55814 0.00522 0.63114 0.0
C299 C 0.52356 0.97169 0.62691 0.0
N300 N 0.56929 0.98732 0.57643 0.0
C301 C 0.54756 0.96618 0.5734 0.0
C302 C 0.44235 0.01663 0.72284 0.0
O303 O 0.48265 0.07202 0.78533 0.0
O304 O 0.50873 0.05412 0.68571 0.0
O305 O 0.46837 0.0087 0.69046 0.0
O306 O 0.44309 0.02607 0.79146 0.0
O307 O 0.50584 0.97031 0.80623 0.0
H308 H 0.50302 0.95817 0.6401 0.0
H309 H 0.57026 0.02446 0.64801 0.0
O310 O 0.48056 0.98923 0.90499 0.0
O311 O 0.52055 0.03507 0.89763 0.0
O312 O 0.54654 0.01629 0.79997 0.0
C313 C 0.54681 0.02742 0.86638 0.0
H314 H 0.44719 0.06125 0.11531 0.0
H315 H 0.54942 0.94744 0.53737 0.0
Co316 Co 0.5209 0.51918 0.79612 0.0
C317 C 0.48652 0.47431 0.89358 0.0
Co318 Co 0.47032 0.5202 0.75891 0.0
C319 C 0.57358 0.52047 0.90707 0.0
C320 C 0.58912 0.51679 0.78551 0.0
N321 N 0.56277 0.51851 0.83109 0.0
N322 N 0.60562 0.52036 0.91063 0.0
C323 C 0.61549 0.51773 0.83428 0.0
H324 H 0.55817 0.52228 0.95868 0.0
H325 H 0.58913 0.51491 0.72099 0.0
C326 C 0.50475 0.56476 0.66144 0.0
N327 N 0.42841 0.52188 0.72157 0.0
C328 C 0.41361 0.50007 0.68862 0.0
C329 C 0.40873 0.54823 0.70461 0.0
N330 N 0.38595 0.51207 0.65059 0.0
C331 C 0.38275 0.54231 0.66051 0.0
C332 C 0.48027 0.56006 0.86885 0.0
O333 O 0.52815 0.55254 0.70757 0.0
O334 O 0.47761 0.55404 0.67366 0.0
O335 O 0.45874 0.54917 0.83007 0.0
O336 O 0.50906 0.5498 0.86287 0.0
O337 O 0.46352 0.48566 0.84457 0.0
H338 H 0.41406 0.57092 0.71802 0.0
H339 H 0.42401 0.47661 0.68682 0.0
O340 O 0.51331 0.4862 0.88435 0.0
O341 O 0.5323 0.48818 0.72818 0.0
O342 O 0.48218 0.49195 0.68846 0.0
C343 C 0.5104 0.48017 0.6845 0.0
H344 H 0.64 0.51583 0.81524 0.0
H345 H 0.36373 0.55922 0.63432 0.0
Co346 Co 0.99225 0.53879 0.82503 0.0
C347 C 0.03607 0.49213 0.90715 0.0
Co348 Co 0.98721 0.491 0.79716 0.0
C349 C 0.99865 0.58538 0.92977 0.0
C350 C -0.0001 0.60516 0.80219 0.0
N351 N 0.99708 0.57791 0.8536 0.0
N352 N 0.00197 0.61629 0.92808 0.0
C353 C 0.00312 0.6287 0.84762 0.0
H354 H 0.99733 0.56841 0.98549 0.0
H355 H -3e-05 0.60769 0.73588 0.0
C356 C 0.94406 0.53751 0.71336 0.0
N357 N 0.98158 0.4522 0.76633 0.0
C358 C 0.0012 0.43552 0.72211 0.0
C359 C 0.95359 0.43884 0.7664 0.0
N360 N 0.98631 0.41285 0.69342 0.0
C361 C 0.95639 0.41482 0.72131 0.0
C362 C 0.95095 0.50371 0.92792 0.0
O363 O 0.95785 0.55628 0.7509 0.0
O364 O 0.9532 0.50856 0.72601 0.0
O365 O 0.95854 0.48256 0.88517 0.0
O366 O 0.96269 0.53019 0.91087 0.0
O367 O 0.02206 0.47376 0.86845 0.0
H368 H 0.93182 0.44753 0.79221 0.0
H369 H 0.02515 0.44141 0.70564 0.0
O370 O 0.02614 0.52097 0.89804 0.0
O371 O 0.02253 0.54668 0.7391 0.0
O372 O 0.01551 0.49987 0.71096 0.0
C373 C 0.02889 0.52537 0.69604 0.0
H374 H 0.00699 0.65284 0.82294 0.0
H375 H 0.93753 0.40081 0.70691 0.0
C376 C 0.10875 0.02477 0.56126 0.0
C377 C 0.13481 0.04023 0.58349 0.0
C378 C 0.08664 0.01315 0.62004 0.0
C379 C 0.08984 0.01654 0.70318 0.0
H380 H 0.10473 0.02275 0.49755 0.0
H381 H 0.06622 1.00257 0.59934 0.0
S382 S 0.15677 0.05108 0.79436 0.0
N383 N 0.16465 0.05516 0.69542 0.0
N384 N 0.12308 0.0337 0.80556 0.0
C385 C 0.11683 0.03042 0.7267 0.0
C386 C 0.1393 0.04216 0.66697 0.0
C387 C 0.49283 0.14567 0.53617 0.0
C388 C 0.48692 0.17202 0.57509 0.0
C389 C 0.49694 0.11512 0.58206 0.0
C390 C 0.49511 0.10978 0.66852 0.0
H391 H 0.49294 0.14854 0.46972 0.0
H392 H 0.5003 0.09548 0.54929 0.0
S393 S 0.48511 0.17124 0.80034 0.0
N394 N 0.48335 0.19096 0.7056 0.0
N395 N 0.49036 0.13385 0.79125 0.0
C396 C 0.4909 0.13609 0.70814 0.0
C397 C 0.48702 0.16709 0.66164 0.0
C398 C 0.33927 0.49916 0.46671 0.0
C399 C 0.32388 0.47181 0.49677 0.0
C400 C 0.35998 0.51187 0.51689 0.0
C401 C 0.36655 0.49744 0.59847 0.0
H402 H 0.33481 0.51122 0.40434 0.0
H403 H 0.37078 0.53331 0.49211 0.0
S404 S 0.33315 0.42579 0.70805 0.0
N405 N 0.31679 0.43105 0.6152 0.0
N406 N 0.357 0.45446 0.70724 0.0
C407 C 0.35246 0.46965 0.62871 0.0
C408 C 0.33084 0.45693 0.57842 0.0
C409 C 0.99053 0.37228 0.50876 0.0
C410 C 0.01999 0.35438 0.52029 0.0
C411 C 0.97977 0.39146 0.56523 0.0
C412 C 0.9982 0.39385 0.63484 0.0
H413 H 0.97553 0.37135 0.45593 0.0
H414 H 0.95689 0.40465 0.55431 0.0
S415 S 0.07624 0.3515 0.69632 0.0
N416 N 0.06677 0.33968 0.60987 0.0
N417 N 0.04684 0.37685 0.71319 0.0
C418 C 0.02779 0.37669 0.6467 0.0
C419 C 0.03861 0.35671 0.59018 0.0
C420 C 0.87671 0.99215 0.98724 0.0
C421 C 0.87533 1.00175 0.0646 0.0
C422 C 0.90574 0.98864 0.94721 0.0
C423 C 0.93453 0.9949 0.98267 0.0
H424 H 0.855 0.98832 0.95615 0.0
H425 H 0.90535 0.9823 0.88647 0.0
S426 S 0.94406 0.01818 0.18771 0.0
N427 N 0.90538 0.01559 0.17749 0.0
N428 N 0.96001 0.00878 0.10309 0.0
C429 C 0.93364 1.00292 0.06207 0.0
C430 C 0.90405 0.00636 0.10287 0.0
C431 C 0.46927 0.89925 0.04138 0.0
C432 C 0.48355 0.87209 0.01641 0.0
C433 C 0.47293 0.92921 0.99647 0.0
C434 C 0.49081 0.93342 0.92392 0.0
H435 H 0.45486 0.89731 0.09598 0.0
H436 H 0.46109 0.9492 0.0184 0.0
S437 S 0.53344 0.86971 0.83256 0.0
N438 N 0.51665 0.85117 0.91517 0.0
N439 N 0.52358 0.90745 0.83028 0.0
C440 C 0.50569 0.9064 0.89888 0.0
C441 C 0.5021 0.87581 0.94523 0.0
C442 C 0.63623 0.50463 0.12917 0.0
C443 C 0.6656 0.51841 0.12324 0.0
C444 C 0.61636 0.50613 0.06002 0.0
C445 C 0.62516 0.5213 0.98209 0.0
H446 H 0.62887 0.49197 0.18747 0.0
H447 H 0.59449 0.49434 0.06711 0.0
S448 S 0.69843 0.56309 0.93435 0.0
N449 N 0.70187 0.54877 0.03337 0.0
N450 N 0.66403 0.55247 0.90429 0.0
C451 C 0.65382 0.53625 0.97589 0.0
C452 C 0.6741 0.53466 0.04622 0.0
C453 C 0.02611 0.63227 0.13653 0.0
C454 C 0.01615 0.66423 0.13292 0.0
C455 C 0.02071 0.61659 0.0704 0.0
C456 C 0.00525 0.63225 0.99767 0.0
H457 H 0.03869 0.61937 0.19048 0.0
H458 H 0.02964 0.59228 0.07535 0.0
S459 S 0.97266 0.71544 0.95868 0.0
N460 N 0.98925 0.71073 0.05106 0.0
N461 N 0.978 0.681 0.92857 0.0
C462 C 0.99415 0.66389 0.9944 0.0
C463 C -0.00021 0.6799 0.06154 0.0
C464 C 0.00351 0.13766 0.68654 0.0
C465 C -0.0001 0.13919 0.60127 0.0
C466 C 0.99686 0.11072 0.74121 0.0
C467 C 0.98692 0.08402 0.71269 0.0
H468 H 0.01382 0.15639 0.71123 0.0
H469 H 0.00209 0.11005 0.80579 0.0
S470 S 0.96583 0.07933 0.49678 0.0
N471 N 0.9793 0.11444 0.49207 0.0
N472 N 0.96788 0.06316 0.59478 0.0
C473 C 0.97968 0.08661 0.62844 0.0
C474 C 0.98609 0.11429 0.5727 0.0
C475 C 0.38409 0.03672 0.54427 0.0
C476 C 0.35482 0.04053 0.58352 0.0
C477 C 0.41215 0.02648 0.58972 0.0
C478 C 0.41195 0.02002 0.6761 0.0
H479 H 0.38544 0.04252 0.47799 0.0
H480 H 0.43437 0.02538 0.55709 0.0
S481 S 0.34093 0.02335 0.80773 0.0
N482 N 0.32691 0.03498 0.71319 0.0
N483 N 0.37954 0.01531 0.79868 0.0
C484 C 0.38252 0.02198 0.71575 0.0
C485 C 0.35397 0.03234 0.66945 0.0
C486 C 0.51752 0.39928 0.63133 0.0
C487 C 0.50373 0.40481 0.5519 0.0
C488 C 0.52347 0.4244 0.67187 0.0
C489 C 0.5158 0.45558 0.63386 0.0
H490 H 0.52134 0.37553 0.66466 0.0
H491 H 0.53132 0.41934 0.73561 0.0
S492 S 0.48514 0.48244 0.42146 0.0
N493 N 0.48745 0.44374 0.43247 0.0
N494 N 0.49777 0.49074 0.50965 0.0
C495 C 0.50486 0.46133 0.55209 0.0
C496 C 0.49907 0.43596 0.51073 0.0
C497 C 0.11052 0.50482 0.62888 0.0
C498 C 0.10567 0.50389 0.54482 0.0
C499 C 0.08612 0.51593 0.67614 0.0
C500 C 0.05603 0.52628 0.64118 0.0
H501 H 0.13247 0.49476 0.66007 0.0
H502 H 0.08993 0.51373 0.74192 0.0
S503 S 0.03229 0.53368 0.42248 0.0
N504 N 0.06969 0.51898 0.4265 0.0
N505 N 0.02328 0.53805 0.51742 0.0
C506 C 0.05142 0.52771 0.55663 0.0
C507 C 0.07642 0.51698 0.50788 0.0
C508 C 0.04383 0.86468 0.02707 0.0
C509 C 0.07004 0.86239 0.08154 0.0
C510 C 0.03478 0.89274 0.97451 0.0
C511 C 0.0513 0.91973 0.97524 0.0
H512 H 0.02916 0.8451 0.02773 0.0
H513 H 0.01375 0.89365 0.93593 0.0
S514 S 0.12438 0.92494 0.09689 0.0
N515 N 0.11475 0.88848 0.12542 0.0
N516 N 0.09704 0.94168 0.02838 0.0
C517 C 0.07851 0.91741 0.02612 0.0
C518 C 0.08803 0.88865 0.07886 0.0
C519 C 0.60513 0.04302 0.02778 0.0
C520 C 0.63453 0.04188 0.98806 0.0
C521 C 0.57699 0.03819 0.98791 0.0
C522 C 0.57717 0.03199 0.9068 0.0
H523 H 0.60395 0.04713 0.09072 0.0
H524 H 0.55498 0.03905 0.02142 0.0
S525 S 0.64806 0.02877 0.77442 0.0
N526 N 0.66222 0.03568 0.86247 0.0
N527 N 0.60939 0.02633 0.78717 0.0
C528 C 0.60648 0.03117 0.86611 0.0
C529 C 0.63513 0.03617 0.90683 0.0
C530 C 0.49124 0.62709 0.98547 0.0
C531 C 0.45997 0.6398 0.99341 0.0
C532 C 0.4974 0.60081 0.94723 0.0
C533 C 0.47253 0.58625 0.91485 0.0
H534 H 0.51116 0.63742 0.0096 0.0
H535 H 0.52198 0.59218 0.94211 0.0
S536 S 0.38624 0.61069 0.91999 0.0
N537 N 0.40379 0.63606 0.96612 0.0
N538 N 0.41517 0.58658 0.89419 0.0
C539 C 0.44104 0.59861 0.92309 0.0
C540 C 0.43481 0.62537 0.96241 0.0
C541 C 0.88335 0.46974 0.05658 0.0
C542 C 0.88158 0.48756 0.1204 0.0
C543 C 0.90641 0.47459 0.99565 0.0
C544 C 0.92809 0.49784 0.9956 0.0
H545 H 0.86666 0.45206 0.05353 0.0
H546 H 0.90669 0.46054 0.94712 0.0
S547 S 0.93351 0.55043 0.15048 0.0
N548 N 0.9036 0.52892 0.18103 0.0
N549 N 0.94681 0.53825 0.0664 0.0
C550 C 0.92676 0.51555 0.05982 0.0
C551 C 0.90355 0.51033 0.12231 0.0
C552 C 0.03954 0.15842 0.05764 0.0
C553 C 0.06232 0.16246 0.11699 0.0
C554 C 0.03872 0.12977 0.02832 0.0
C555 C 0.0603 0.10402 0.05838 0.0
H556 H 0.02174 0.17727 0.03531 0.0
H557 H 0.02011 0.12726 0.98497 0.0
S558 S 0.12541 0.10265 0.21105 0.0
N559 N 0.10759 0.13827 0.20271 0.0
N560 N 0.10618 0.08497 0.14671 0.0
C561 C 0.08386 0.10813 0.11526 0.0
C562 C 0.08483 0.13719 0.14478 0.0
C563 C 0.3325 0.05363 0.05715 0.0
C564 C 0.32611 0.07719 0.1053 0.0
C565 C 0.36242 0.04973 0.02116 0.0
C566 C 0.38704 0.06881 0.03377 0.0
H567 H 0.31451 0.03774 0.04881 0.0
H568 H 0.36685 0.03077 0.98651 0.0
S569 S 0.38227 0.13411 0.15318 0.0
N570 N 0.34672 0.12023 0.16204 0.0
N571 N 0.40277 0.11265 0.09482 0.0
C572 C 0.38068 0.09282 0.08009 0.0
C573 C 0.35026 0.09708 0.11574 0.0
C574 C 0.45845 0.39722 0.00613 0.0
C575 C 0.47621 0.39181 0.08046 0.0
C576 C 0.46152 0.42413 0.94675 0.0
C577 C 0.48281 0.44661 0.95854 0.0
H578 H 0.44193 0.38051 0.9936 0.0
H579 H 0.44741 0.42709 0.89061 0.0
S580 S 0.53374 0.44491 0.14343 0.0
N581 N 0.51478 0.41252 0.16361 0.0
N582 N 0.52146 0.46218 0.05073 0.0
C583 C 0.50088 0.44153 0.03207 0.0
C584 C 0.4974 0.4144 0.09317 0.0
C585 C 0.09968 0.4891 0.07206 0.0
C586 C 0.11889 0.46164 0.06593 0.0
C587 C 0.07298 0.4985 0.02078 0.0
C588 C 0.06411 0.48075 0.96147 0.0
H589 H 0.1049 0.50319 0.11818 0.0
H590 H 0.05897 0.51976 0.02852 0.0
S591 S 0.10742 0.40794 0.91676 0.0
N592 N 0.12801 0.41751 0.99308 0.0
N593 N 0.07744 0.43497 0.89721 0.0
C594 C 0.08319 0.45334 0.95401 0.0
C595 C 0.11062 0.44385 0.00608 0.0
C596 C 0.97404 0.85506 0.56268 0.0
C597 C 0.00544 0.84643 0.54231 0.0
C598 C 0.96679 0.88241 0.5966 0.0
C599 C 0.99065 0.90223 0.61059 0.0
H600 H 0.95506 0.84037 0.55332 0.0
H601 H 0.94243 0.8878 0.61324 0.0
S602 S 0.07586 0.89199 0.55691 0.0
N603 N 0.06006 0.86097 0.53221 0.0
N604 N 0.04645 0.91256 0.59378 0.0
C605 C 0.02195 0.89427 0.5877 0.0
C606 C 0.02932 0.86636 0.55405 0.0
C607 C 0.6554 1.0003 0.53396 0.0
C608 C 0.65802 0.99764 0.45043 0.0
C609 C 0.62651 0.9962 0.57498 0.0
C610 C 0.59914 0.98949 0.53412 0.0
H611 H 0.67571 0.00607 0.56747 0.0
H612 H 0.62546 0.99842 0.63915 0.0
S613 S 0.59301 0.98126 0.31477 0.0
N614 N 0.63052 0.98837 0.32785 0.0
N615 N 0.57632 0.9807 0.40534 0.0
C616 C 0.60153 0.98624 0.45107 0.0
C617 C 0.63094 0.99035 0.40917 0.0
C618 C 0.49245 0.61964 0.45841 0.0
C619 C 0.50618 0.64691 0.47284 0.0
C620 C 0.49304 0.59277 0.51909 0.0
C621 C 0.50811 0.59191 0.59563 0.0
H622 H 0.47997 0.61953 0.40094 0.0
H623 H 0.48112 0.57269 0.50657 0.0
S624 S 0.54858 0.65672 0.66286 0.0
N625 N 0.53563 0.67134 0.56863 0.0
N626 N 0.53782 0.6203 0.68196 0.0
C627 C 0.52301 0.61857 0.6098 0.0
C628 C 0.52171 0.64626 0.5486 0.0
C629 C 0.86003 0.5604 0.63583 0.0
C630 C 0.86097 0.55151 0.55751 0.0
C631 C 0.88792 0.55899 0.68388 0.0
C632 C 0.91737 0.54811 0.65543 0.0
H633 H 0.83739 0.56676 0.66181 0.0
H634 H 0.88604 0.56402 0.74588 0.0
S635 S 0.93303 0.52389 0.45365 0.0
N636 N 0.89433 0.5334 0.45224 0.0
N637 N 0.94633 0.53023 0.54322 0.0
C638 C 0.91888 0.54091 0.57578 0.0
C639 C 0.89076 0.54278 0.52652 0.0
loop_
_geom_bond_atom_site_label_1
_geom_bond_atom_site_label_2
_geom_bond_distance
_geom_bond_site_symmetry_2
_ccdc_geom_bond_type
P0 O11 1.490 . S
P0 C14 1.812 . S
P0 C20 1.803 . S
P0 C26 1.819 . S
H1 C15 0.941 . S
H2 C16 0.939 . S
H3 C18 0.940 . S
H4 C19 0.940 . S
H5 C21 0.939 . S
H6 C22 0.942 . S
H7 C24 0.940 . S
H8 C25 0.939 . S
H9 C27 0.941 . S
H10 C31 0.939 . S
O11 P0 1.490 . S
H12 C28 0.939 . S
H13 C30 0.940 . S
C14 P0 1.812 . S
C14 C15 1.389 . S
C14 C19 1.391 . S
C15 H1 0.941 . S
C15 C14 1.389 . S
C15 C16 1.397 . S
C16 H2 0.939 . S
C16 C15 1.397 . S
C16 C17 1.378 . S
C17 C16 1.378 . S
C17 C18 1.378 . S
C18 H3 0.940 . S
C18 C17 1.378 . S
C18 C19 1.396 . S
C19 H4 0.940 . S
C19 C14 1.391 . S
C19 C18 1.396 . S
C20 P0 1.803 . S
C20 C21 1.378 . S
C20 C25 1.400 . S
C21 H5 0.939 . S
C21 C20 1.378 . S
C21 C22 1.361 . S
C22 H6 0.942 . S
C22 C21 1.361 . S
C22 C23 1.369 . S
C23 C22 1.369 . S
C23 C24 1.404 . S
C24 H7 0.940 . S
C24 C23 1.404 . S
C24 C25 1.389 . S
C25 H8 0.939 . S
C25 C20 1.400 . S
C25 C24 1.389 . S
C26 P0 1.819 . S
C26 C27 1.391 . S
C26 C31 1.391 . S
C27 H9 0.941 . S
C27 C26 1.391 . S
C27 C28 1.396 . S
C28 H12 0.939 . S
C28 C27 1.396 . S
C28 C29 1.397 1_554 S
C29 C28 1.397 1_556 S
C29 C30 1.385 . S
C30 H13 0.940 . S
C30 C29 1.385 . S
C30 C31 1.388 1_556 S
C31 H10 0.939 . S
C31 C26 1.391 . S
C31 C30 1.388 1_554 S
P32 O43 1.490 . S
P32 C46 1.812 . S
P32 C52 1.803 . S
P32 C58 1.819 . S
H33 C47 0.941 . S
H34 C48 0.939 . S
H35 C50 0.940 . S
H36 C51 0.950 . S
H37 C53 0.939 . S
H38 C54 0.942 . S
H39 C56 0.940 . S
H40 C57 0.958 . S
H41 C59 0.941 . S
H42 C63 0.927 1_655 S
O43 P32 1.490 . S
H44 C60 0.939 . S
H45 C62 0.940 . S
C46 P32 1.812 . S
C46 C47 1.389 . S
C46 C51 1.376 1_455 S
C47 H33 0.941 . S
C47 C46 1.389 . S
C47 C48 1.397 . S
C48 H34 0.939 . S
C48 C47 1.397 . S
C48 C49 1.378 . S
C49 C48 1.378 . S
C49 C50 1.378 1_455 S
C50 H35 0.940 . S
C50 C49 1.378 1_655 S
C50 C51 1.402 . S
C51 H36 0.950 . S
C51 C46 1.376 1_655 S
C51 C50 1.402 . S
C52 P32 1.803 . S
C52 C53 1.378 . S
C52 C57 1.367 1_455 S
C53 H37 0.939 . S
C53 C52 1.378 . S
C53 C54 1.361 . S
C54 H38 0.942 . S
C54 C53 1.361 . S
C54 C55 1.369 . S
C55 C54 1.369 . S
C55 C56 1.404 1_455 S
C56 H39 0.940 . S
C56 C55 1.404 1_655 S
C56 C57 1.404 . S
C57 H40 0.958 . S
C57 C52 1.367 1_655 S
C57 C56 1.404 . S
C58 P32 1.819 . S
C58 C59 1.391 . S
C58 C63 1.390 . S
C59 H41 0.941 . S
C59 C58 1.391 . S
C59 C60 1.396 1_554 S
C60 H44 0.939 . S
C60 C59 1.396 1_556 S
C60 C61 1.397 . S
C61 C60 1.397 . S
C61 C62 1.385 1_455 S
C62 H45 0.940 . S
C62 C61 1.385 1_655 S
C62 C63 1.389 1_656 S
C63 H42 0.927 1_455 S
C63 C58 1.390 . S
C63 C62 1.389 1_454 S
P64 O75 1.490 1_565 S
P64 C78 1.812 . S
P64 C84 1.803 . S
P64 C90 1.819 . S
H65 C79 0.941 1_545 S
H66 C80 0.939 . S
H67 C82 0.940 . S
H68 C83 0.940 . S
H69 C85 0.939 1_546 S
H70 C86 0.942 1_556 S
H71 C88 0.940 . S
H72 C89 0.939 . S
H73 C91 0.941 . S
H74 C95 0.939 . S
O75 P64 1.490 1_545 S
H76 C92 0.939 . S
H77 C94 0.940 . S
C78 P64 1.812 . S
C78 C79 1.389 . S
C78 C83 1.391 . S
C79 H65 0.941 1_565 S
C79 C78 1.389 . S
C79 C80 1.397 . S
C80 H66 0.939 . S
C80 C79 1.397 . S
C80 C81 1.378 . S
C81 C80 1.378 . S
C81 C82 1.378 . S
C82 H67 0.940 . S
C82 C81 1.378 . S
C82 C83 1.396 . S
C83 H68 0.940 . S
C83 C78 1.391 . S
C83 C82 1.396 . S
C84 P64 1.803 . S
C84 C85 1.378 . S
C84 C89 1.400 . S
C85 H69 0.939 1_564 S
C85 C84 1.378 . S
C85 C86 1.361 . S
C86 H70 0.942 1_554 S
C86 C85 1.361 . S
C86 C87 1.369 . S
C87 C86 1.369 . S
C87 C88 1.404 . S
C88 H71 0.940 . S
C88 C87 1.404 . S
C88 C89 1.389 . S
C89 H72 0.939 . S
C89 C84 1.400 . S
C89 C88 1.389 . S
C90 P64 1.819 . S
C90 C91 1.391 . S
C90 C95 1.391 1_554 S
C91 H73 0.941 . S
C91 C90 1.391 . S
C91 C92 1.396 1_554 S
C92 H76 0.939 . S
C92 C91 1.396 1_556 S
C92 C93 1.397 . S
C93 C92 1.397 . S
C93 C94 1.385 . S
C94 H77 0.940 . S
C94 C93 1.385 . S
C94 C95 1.388 . S
C95 H74 0.939 . S
C95 C90 1.391 1_556 S
C95 C94 1.388 . S
P96 O107 1.490 . S
P96 C110 1.812 . S
P96 C116 1.803 . S
P96 C122 1.819 . S
H97 C111 0.941 . S
H98 C112 0.939 . S
H99 C114 0.940 . S
H100 C115 0.940 . S
H101 C117 0.939 . S
H102 C118 0.942 . S
H103 C120 0.940 . S
H104 C121 0.939 . S
H105 C123 0.941 . S
H106 C127 0.939 . S
O107 P96 1.490 . S
H108 C124 0.939 . S
H109 C126 0.940 . S
C110 P96 1.812 . S
C110 C111 1.389 . S
C110 C115 1.391 . S
C111 H97 0.941 . S
C111 C110 1.389 . S
C111 C112 1.397 . S
C112 H98 0.939 . S
C112 C111 1.397 . S
C112 C113 1.378 . S
C113 C112 1.378 . S
C113 C114 1.378 . S
C114 H99 0.940 . S
C114 C113 1.378 . S
C114 C115 1.396 . S
C115 H100 0.940 . S
C115 C110 1.391 . S
C115 C114 1.396 . S
C116 P96 1.803 . S
C116 C117 1.378 . S
C116 C121 1.400 . S
C117 H101 0.939 . S
C117 C116 1.378 . S
C117 C118 1.361 . S
C118 H102 0.942 . S
C118 C117 1.361 . S
C118 C119 1.369 . S
C119 C118 1.369 . S
C119 C120 1.404 . S
C120 H103 0.940 . S
C120 C119 1.404 . S
C120 C121 1.389 . S
C121 H104 0.939 . S
C121 C116 1.400 . S
C121 C120 1.389 . S
C122 P96 1.819 . S
C122 C123 1.391 . S
C122 C127 1.391 . S
C123 H105 0.941 . S
C123 C122 1.391 . S
C123 C124 1.396 . S
C124 H108 0.939 . S
C124 C123 1.396 . S
C124 C125 1.397 1_554 S
C125 C124 1.397 1_556 S
C125 C126 1.385 . S
C126 H109 0.940 . S
C126 C125 1.385 . S
C126 C127 1.388 1_556 S
C127 H106 0.939 . S
C127 C122 1.391 . S
C127 C126 1.388 1_554 S
P128 O139 1.490 . S
P128 C142 1.812 . S
P128 C148 1.803 . S
P128 C154 1.819 . S
H129 C143 0.941 . S
H130 C144 0.939 . S
H131 C146 0.940 . S
H132 C147 0.940 . S
H133 C149 0.939 . S
H134 C150 0.942 . S
H135 C152 0.940 . S
H136 C153 0.939 . S
H137 C155 0.941 . S
H138 C159 0.939 . S
O139 P128 1.490 . S
H140 C156 0.939 . S
H141 C158 0.940 . S
C142 P128 1.812 . S
C142 C143 1.389 . S
C142 C147 1.391 . S
C143 H129 0.941 . S
C143 C142 1.389 . S
C143 C144 1.397 . S
C144 H130 0.939 . S
C144 C143 1.397 . S
C144 C145 1.378 . S
C145 C144 1.378 . S
C145 C146 1.378 . S
C146 H131 0.940 . S
C146 C145 1.378 . S
C146 C147 1.396 . S
C147 H132 0.940 . S
C147 C142 1.391 . S
C147 C146 1.396 . S
C148 P128 1.803 . S
C148 C149 1.378 . S
C148 C153 1.400 . S
C149 H133 0.939 . S
C149 C148 1.378 . S
C149 C150 1.361 . S
C150 H134 0.942 . S
C150 C149 1.361 . S
C150 C151 1.369 . S
C151 C150 1.369 . S
C151 C152 1.404 . S
C152 H135 0.940 . S
C152 C151 1.404 . S
C152 C153 1.389 . S
C153 H136 0.939 . S
C153 C148 1.400 . S
C153 C152 1.389 . S
C154 P128 1.819 . S
C154 C155 1.391 . S
C154 C159 1.391 . S
C155 H137 0.941 . S
C155 C154 1.391 . S
C155 C156 1.396 . S
C156 H140 0.939 . S
C156 C155 1.396 . S
C156 C157 1.397 . S
C157 C156 1.397 . S
C157 C158 1.385 . S
C158 H141 0.940 . S
C158 C157 1.385 . S
C158 C159 1.388 . S
C159 H138 0.939 . S
C159 C154 1.391 . S
C159 C158 1.388 . S
P160 O171 1.490 . S
P160 C174 1.812 . S
P160 C180 1.803 . S
P160 C186 1.819 . S
H161 C175 0.941 . S
H162 C176 0.939 . S
H163 C178 0.940 . S
H164 C179 0.946 . S
H165 C181 0.939 . S
H166 C182 0.942 . S
H167 C184 0.940 . S
H168 C185 0.955 . S
H169 C187 0.941 . S
H170 C191 0.933 1_655 S
O171 P160 1.490 . S
H172 C188 0.939 . S
H173 C190 0.940 . S
C174 P160 1.812 . S
C174 C175 1.389 . S
C174 C179 1.382 1_455 S
C175 H161 0.941 . S
C175 C174 1.389 . S
C175 C176 1.397 . S
C176 H162 0.939 . S
C176 C175 1.397 . S
C176 C177 1.378 . S
C177 C176 1.378 . S
C177 C178 1.378 1_455 S
C178 H163 0.940 . S
C178 C177 1.378 1_655 S
C178 C179 1.400 . S
C179 H164 0.946 . S
C179 C174 1.382 1_655 S
C179 C178 1.400 . S
C180 P160 1.803 . S
C180 C181 1.378 . S
C180 C185 1.377 1_455 S
C181 H165 0.939 . S
C181 C180 1.378 . S
C181 C182 1.361 . S
C182 H166 0.942 . S
C182 C181 1.361 . S
C182 C183 1.369 . S
C183 C182 1.369 . S
C183 C184 1.404 1_455 S
C184 H167 0.940 . S
C184 C183 1.404 1_655 S
C184 C185 1.397 . S
C185 H168 0.955 . S
C185 C180 1.377 1_655 S
C185 C184 1.397 . S
C186 P160 1.819 . S
C186 C187 1.391 . S
C186 C191 1.391 . S
C187 H169 0.941 . S
C187 C186 1.391 . S
C187 C188 1.396 . S
C188 H172 0.939 . S
C188 C187 1.396 . S
C188 C189 1.397 . S
C189 C188 1.397 . S
C189 C190 1.385 1_455 S
C190 H173 0.940 . S
C190 C189 1.385 1_655 S
C190 C191 1.388 1_655 S
C191 H170 0.933 1_455 S
C191 C186 1.391 . S
C191 C190 1.388 1_455 S
P192 O203 1.490 . S
P192 C206 1.812 . S
P192 C212 1.803 . S
P192 C218 1.819 . S
H193 C207 0.941 . S
H194 C208 0.939 . S
H195 C210 0.940 . S
H196 C211 0.940 . S
H197 C213 0.939 . S
H198 C214 0.942 . S
H199 C216 0.940 . S
H200 C217 0.939 . S
H201 C219 0.941 . S
H202 C223 0.939 . S
O203 P192 1.490 . S
H204 C220 0.939 . S
H205 C222 0.940 . S
C206 P192 1.812 . S
C206 C207 1.389 . S
C206 C211 1.391 . S
C207 H193 0.941 . S
C207 C206 1.389 . S
C207 C208 1.397 . S
C208 H194 0.939 . S
C208 C207 1.397 . S
C208 C209 1.378 . S
C209 C208 1.378 . S
C209 C210 1.378 . S
C210 H195 0.940 . S
C210 C209 1.378 . S
C210 C211 1.396 . S
C211 H196 0.940 . S
C211 C206 1.391 . S
C211 C210 1.396 . S
C212 P192 1.803 . S
C212 C213 1.378 . S
C212 C217 1.400 . S
C213 H197 0.939 . S
C213 C212 1.378 . S
C213 C214 1.361 . S
C214 H198 0.942 . S
C214 C213 1.361 . S
C214 C215 1.369 . S
C215 C214 1.369 . S
C215 C216 1.404 . S
C216 H199 0.940 . S
C216 C215 1.404 . S
C216 C217 1.389 . S
C217 H200 0.939 . S
C217 C212 1.400 . S
C217 C216 1.389 . S
C218 P192 1.819 . S
C218 C219 1.391 . S
C218 C223 1.391 . S
C219 H201 0.941 . S
C219 C218 1.391 . S
C219 C220 1.396 . S
C220 H204 0.939 . S
C220 C219 1.396 . S
C220 C221 1.397 . S
C221 C220 1.397 . S
C221 C222 1.385 . S
C222 H205 0.940 . S
C222 C221 1.385 . S
C222 C223 1.388 . S
C223 H202 0.939 . S
C223 C218 1.391 . S
C223 C222 1.388 . S
P224 O235 1.490 . S
P224 C238 1.812 . S
P224 C244 1.803 . S
P224 C250 1.819 . S
H225 C239 0.941 . S
H226 C240 0.939 . S
H227 C242 0.940 . S
H228 C243 0.940 . S
H229 C245 0.939 . S
H230 C246 0.942 . S
H231 C248 0.940 . S
H232 C249 0.939 . S
H233 C251 0.941 . S
H234 C255 0.939 . S
O235 P224 1.490 . S
H236 C252 0.939 . S
H237 C254 0.940 . S
C238 P224 1.812 . S
C238 C239 1.389 . S
C238 C243 1.391 . S
C239 H225 0.941 . S
C239 C238 1.389 . S
C239 C240 1.397 . S
C240 H226 0.939 . S
C240 C239 1.397 . S
C240 C241 1.378 . S
C241 C240 1.378 . S
C241 C242 1.378 . S
C242 H227 0.940 . S
C242 C241 1.378 . S
C242 C243 1.396 . S
C243 H228 0.940 . S
C243 C238 1.391 . S
C243 C242 1.396 . S
C244 P224 1.803 . S
C244 C245 1.378 . S
C244 C249 1.400 . S
C245 H229 0.939 . S
C245 C244 1.378 . S
C245 C246 1.361 . S
C246 H230 0.942 . S
C246 C245 1.361 . S
C246 C247 1.369 . S
C247 C246 1.369 . S
C247 C248 1.404 . S
C248 H231 0.940 . S
C248 C247 1.404 . S
C248 C249 1.389 . S
C249 H232 0.939 . S
C249 C244 1.400 . S
C249 C248 1.389 . S
C250 P224 1.819 . S
C250 C251 1.391 . S
C250 C255 1.391 . S
C251 H233 0.941 . S
C251 C250 1.391 . S
C251 C252 1.396 . S
C252 H236 0.939 . S
C252 C251 1.396 . S
C252 C253 1.397 . S
C253 C252 1.397 . S
C253 C254 1.385 . S
C254 H237 0.940 . S
C254 C253 1.385 . S
C254 C255 1.388 . S
C255 H234 0.939 . S
C255 C250 1.391 . S
C255 C254 1.388 . S
Co256 N261 2.061 . S
Co256 O273 2.021 . S
Co256 O276 2.062 1_455 S
Co256 O280 2.117 1_455 S
Co256 O281 2.020 1_545 S
C257 O277 1.259 1_545 S
C257 O280 1.258 . S
Co258 N267 2.060 . S
Co258 O274 2.117 1_665 S
Co258 O275 2.020 1_565 S
Co258 O277 2.021 . S
Co258 O282 2.062 1_655 S
C259 N261 1.340 1_554 S
C259 N262 1.347 . S
C259 H264 0.931 1_554 S
C260 N261 1.346 1_654 S
C260 C263 1.350 . S
C260 H265 0.930 . S
N261 Co256 2.061 . S
N261 C259 1.340 1_556 S
N261 C260 1.346 1_456 S
N262 C259 1.347 . S
N262 C263 1.373 1_455 S
C263 C260 1.350 . S
C263 N262 1.373 1_655 S
C263 H284 0.931 . S
H264 C259 0.931 1_556 S
H265 C260 0.930 . S
C266 O273 1.259 . S
C266 O274 1.258 . S
N267 Co258 2.060 . S
N267 C268 1.335 . S
N267 C269 1.353 1_655 S
C268 N267 1.335 . S
C268 N270 1.347 . S
C268 H279 0.931 . S
C269 N267 1.353 1_455 S
C269 C271 1.350 . S
C269 H278 0.930 . S
N270 C268 1.347 . S
N270 C271 1.373 1_655 S
C271 C269 1.350 . S
C271 N270 1.373 1_455 S
C271 H285 0.931 . S
C272 O275 1.256 . S
C272 O276 1.255 . S
O273 Co256 2.021 . S
O273 C266 1.259 . S
O274 Co258 2.117 1_445 S
O274 C266 1.258 . S
O275 Co258 2.020 1_545 S
O275 C272 1.256 . S
O276 Co256 2.062 1_655 S
O276 C272 1.255 . S
O277 C257 1.259 1_565 S
O277 Co258 2.021 . S
H278 C269 0.930 . S
H279 C268 0.931 . S
O280 Co256 2.117 1_655 S
O280 C257 1.258 . S
O281 Co256 2.020 1_565 S
O281 C283 1.256 . S
O282 Co258 2.062 1_455 S
O282 C283 1.255 . S
C283 O281 1.256 . S
C283 O282 1.255 . S
H284 C263 0.931 . S
H285 C271 0.931 . S
Co286 N291 2.057 . S
Co286 O303 2.021 . S
Co286 O306 2.062 . S
Co286 O310 2.117 1_545 S
Co286 O311 2.020 . S
C287 O307 1.259 . S
C287 O310 1.258 . S
Co288 N297 2.052 1_545 S
Co288 O304 2.143 . S
Co288 O305 2.022 . S
Co288 O307 1.996 1_545 S
Co288 O312 2.063 1_545 S
C289 N291 1.316 1_554 S
C289 N292 1.347 . S
C289 H294 0.931 1_554 S
C290 N291 1.351 1_564 S
C290 C293 1.336 1_565 S
C290 H295 0.963 . S
N291 Co286 2.057 . S
N291 C289 1.316 1_556 S
N291 C290 1.351 1_546 S
N292 C289 1.347 . S
N292 C293 1.373 . S
C293 C290 1.336 1_545 S
C293 N292 1.373 . S
C293 H314 0.931 1_545 S
H294 C289 0.931 1_556 S
H295 C290 0.963 . S
C296 O303 1.259 . S
C296 O304 1.258 . S
N297 Co288 2.052 1_565 S
N297 C298 1.330 . S
N297 C299 1.363 1_565 S
C298 N297 1.330 . S
C298 N300 1.347 . S
C298 H309 0.931 . S
C299 N297 1.363 1_545 S
C299 C301 1.350 . S
C299 H308 0.930 . S
N300 C298 1.347 . S
N300 C301 1.373 1_565 S
C301 C299 1.350 . S
C301 N300 1.373 1_545 S
C301 H315 0.931 . S
C302 O305 1.256 . S
C302 O306 1.255 . S
O303 Co286 2.021 . S
O303 C296 1.259 . S
O304 Co288 2.143 . S
O304 C296 1.258 . S
O305 Co288 2.022 . S
O305 C302 1.256 . S
O306 Co286 2.062 . S
O306 C302 1.255 . S
O307 C287 1.259 . S
O307 Co288 1.996 1_565 S
H308 C299 0.930 . S
H309 C298 0.931 . S
O310 Co286 2.117 1_565 S
O310 C287 1.258 . S
O311 Co286 2.020 . S
O311 C313 1.256 . S
O312 Co288 2.063 1_565 S
O312 C313 1.255 1_565 S
C313 O311 1.256 . S
C313 O312 1.255 1_545 S
H314 C293 0.931 1_565 S
H315 C301 0.931 . S
Co316 N321 2.057 . S
Co316 O333 2.021 . S
Co316 O336 2.062 . S
Co316 O340 2.117 . S
Co316 O341 2.020 . S
C317 O337 1.259 . S
C317 O340 1.258 . S
Co318 N327 2.057 . S
Co318 O334 2.117 . S
Co318 O335 2.020 . S
Co318 O337 2.021 . S
Co318 O342 2.062 . S
C319 N321 1.316 . S
C319 N322 1.347 . S
C319 H324 0.931 . S
C320 N321 1.375 . S
C320 C323 1.350 . S
C320 H325 0.930 . S
N321 Co316 2.057 . S
N321 C319 1.316 . S
N321 C320 1.375 . S
N322 C319 1.347 . S
N322 C323 1.373 . S
C323 C320 1.350 . S
C323 N322 1.373 . S
C323 H344 0.931 . S
H324 C319 0.931 . S
H325 C320 0.930 . S
C326 O333 1.259 . S
C326 O334 1.258 . S
N327 Co318 2.057 . S
N327 C328 1.316 . S
N327 C329 1.375 . S
C328 N327 1.316 . S
C328 N330 1.347 . S
C328 H339 0.931 . S
C329 N327 1.375 . S
C329 C331 1.350 . S
C329 H338 0.930 . S
N330 C328 1.347 . S
N330 C331 1.373 . S
C331 C329 1.350 . S
C331 N330 1.373 . S
C331 H345 0.931 . S
C332 O335 1.256 . S
C332 O336 1.255 . S
O333 Co316 2.021 . S
O333 C326 1.259 . S
O334 Co318 2.117 . S
O334 C326 1.258 . S
O335 Co318 2.020 . S
O335 C332 1.256 . S
O336 Co316 2.062 . S
O336 C332 1.255 . S
O337 C317 1.259 . S
O337 Co318 2.021 . S
H338 C329 0.930 . S
H339 C328 0.931 . S
O340 Co316 2.117 . S
O340 C317 1.258 . S
O341 Co316 2.020 . S
O341 C343 1.256 . S
O342 Co318 2.062 . S
O342 C343 1.255 . S
C343 O341 1.256 . S
C343 O342 1.255 . S
H344 C323 0.931 . S
H345 C331 0.931 . S
Co346 N351 2.057 . S
Co346 O363 2.021 1_455 S
Co346 O366 2.062 1_455 S
Co346 O370 2.117 . S
Co346 O371 2.020 . S
C347 O367 1.259 . S
C347 O370 1.258 . S
Co348 N357 2.057 . S
Co348 O364 2.117 . S
Co348 O365 2.020 . S
Co348 O367 2.021 1_655 S
Co348 O372 2.062 1_655 S
C349 N351 1.316 . S
C349 N352 1.347 . S
C349 H354 0.931 1_455 S
C350 N351 1.375 . S
C350 C353 1.350 . S
C350 H355 0.930 . S
N351 Co346 2.057 . S
N351 C349 1.316 . S
N351 C350 1.375 . S
N352 C349 1.347 . S
N352 C353 1.373 . S
C353 C350 1.350 . S
C353 N352 1.373 . S
C353 H374 0.931 . S
H354 C349 0.931 1_655 S
H355 C350 0.930 . S
C356 O363 1.259 . S
C356 O364 1.258 . S
N357 Co348 2.057 . S
N357 C358 1.316 . S
N357 C359 1.375 . S
C358 N357 1.316 . S
C358 N360 1.347 . S
C358 H369 0.931 1_655 S
C359 N357 1.375 . S
C359 C361 1.350 . S
C359 H368 0.930 . S
N360 C358 1.347 . S
N360 C361 1.373 . S
C361 C359 1.350 . S
C361 N360 1.373 . S
C361 H375 0.931 . S
C362 O365 1.256 . S
C362 O366 1.255 . S
O363 Co346 2.021 1_655 S
O363 C356 1.259 . S
O364 Co348 2.117 . S
O364 C356 1.258 . S
O365 Co348 2.020 . S
O365 C362 1.256 . S
O366 Co346 2.062 1_655 S
O366 C362 1.255 . S
O367 C347 1.259 . S
O367 Co348 2.021 1_455 S
H368 C359 0.930 . S
H369 C358 0.931 1_455 S
O370 Co346 2.117 . S
O370 C347 1.258 . S
O371 Co346 2.020 . S
O371 C373 1.256 . S
O372 Co348 2.062 1_455 S
O372 C373 1.255 . S
C373 O371 1.256 . S
C373 O372 1.255 . S
H374 C353 0.931 . S
H375 C361 0.931 . S
C376 C377 1.369 . S
C376 C378 1.419 . S
C376 H380 0.930 . S
C377 C376 1.369 . S
C377 C386 1.429 . S
C378 C376 1.419 . S
C378 C379 1.363 . S
C378 H381 0.929 . S
C379 C378 1.363 . S
C379 C385 1.428 . S
H380 C376 0.930 . S
H381 C378 0.929 . S
S382 N383 1.613 . S
S382 N384 1.610 . S
N383 S382 1.613 . S
N383 C386 1.350 . S
N384 S382 1.610 . S
N384 C385 1.351 . S
C385 C379 1.428 . S
C385 N384 1.351 . S
C385 C386 1.434 . S
C386 C377 1.429 . S
C386 N383 1.350 . S
C386 C385 1.434 . S
C387 C388 1.369 . S
C387 C389 1.419 . S
C387 H391 0.930 . S
C388 C387 1.369 . S
C388 C397 1.429 . S
C389 C387 1.419 . S
C389 C390 1.363 . S
C389 H392 0.929 . S
C390 C389 1.363 . S
C390 C396 1.428 . S
H391 C387 0.930 . S
H392 C389 0.929 . S
S393 N394 1.613 . S
S393 N395 1.610 . S
N394 S393 1.613 . S
N394 C397 1.350 . S
N395 S393 1.610 . S
N395 C396 1.351 . S
C396 C390 1.428 . S
C396 N395 1.351 . S
C396 C397 1.434 . S
C397 C388 1.429 . S
C397 N394 1.350 . S
C397 C396 1.434 . S
C398 C399 1.369 . S
C398 C400 1.419 . S
C398 H402 0.930 . S
C399 C398 1.369 . S
C399 C408 1.429 . S
C400 C398 1.419 . S
C400 C401 1.363 . S
C400 H403 0.929 . S
C401 C400 1.363 . S
C401 C407 1.428 . S
H402 C398 0.930 . S
H403 C400 0.929 . S
S404 N405 1.613 . S
S404 N406 1.610 . S
N405 S404 1.613 . S
N405 C408 1.350 . S
N406 S404 1.610 . S
N406 C407 1.351 . S
C407 C401 1.428 . S
C407 N406 1.351 . S
C407 C408 1.434 . S
C408 C399 1.429 . S
C408 N405 1.350 . S
C408 C407 1.434 . S
C409 C410 1.369 . S
C409 C411 1.419 . S
C409 H413 0.930 . S
C410 C409 1.369 . S
C410 C419 1.429 1_655 S
C411 C409 1.419 . S
C411 C412 1.363 . S
C411 H414 0.929 . S
C412 C411 1.363 . S
C412 C418 1.428 1_655 S
H413 C409 0.930 . S
H414 C411 0.929 . S
S415 N416 1.613 . S
S415 N417 1.610 . S
N416 S415 1.613 . S
N416 C419 1.350 . S
N417 S415 1.610 . S
N417 C418 1.351 . S
C418 C412 1.428 1_455 S
C418 N417 1.351 . S
C418 C419 1.434 . S
C419 C410 1.429 1_455 S
C419 N416 1.350 . S
C419 C418 1.434 . S
C420 C421 1.369 . S
C420 C422 1.419 . S
C420 H424 0.930 . S
C421 C420 1.369 . S
C421 C430 1.429 . S
C422 C420 1.419 . S
C422 C423 1.363 . S
C422 H425 0.929 1_565 S
C423 C422 1.363 . S
C423 C429 1.428 . S
H424 C420 0.930 . S
H425 C422 0.929 1_545 S
S426 N427 1.613 . S
S426 N428 1.610 1_554 S
N427 S426 1.613 . S
N427 C430 1.345 1_554 S
N428 S426 1.610 1_556 S
N428 C429 1.351 . S
C429 C423 1.428 . S
C429 N428 1.351 . S
C429 C430 1.439 . S
C430 C421 1.429 . S
C430 N427 1.345 1_556 S
C430 C429 1.439 . S
C431 C432 1.369 1_556 S
C431 C433 1.419 . S
C431 H435 0.930 1_556 S
C432 C431 1.369 1_554 S
C432 C441 1.429 1_554 S
C433 C431 1.419 . S
C433 C434 1.363 . S
C433 H436 0.929 . S
C434 C433 1.363 . S
C434 C440 1.428 . S
H435 C431 0.930 1_554 S
H436 C433 0.929 . S
S437 N438 1.613 1_556 S
S437 N439 1.610 . S
N438 S437 1.613 1_554 S
N438 C441 1.350 1_554 S
N439 S437 1.610 . S
N439 C440 1.351 . S
C440 C434 1.428 . S
C440 N439 1.351 . S
C440 C441 1.434 . S
C441 C432 1.429 1_556 S
C441 N438 1.350 1_556 S
C441 C440 1.434 . S
C442 C443 1.369 . S
C442 C444 1.419 1_554 S
C442 H446 0.930 . S
C443 C442 1.369 . S
C443 C452 1.429 . S
C444 C442 1.419 1_556 S
C444 C445 1.363 . S
C444 H447 0.929 . S
C445 C444 1.363 . S
C445 C451 1.428 . S
H446 C442 0.930 . S
H447 C444 0.929 . S
S448 N449 1.613 1_556 S
S448 N450 1.610 . S
N449 S448 1.613 1_554 S
N449 C452 1.350 . S
N450 S448 1.610 . S
N450 C451 1.351 . S
C451 C445 1.428 . S
C451 N450 1.351 . S
C451 C452 1.434 1_556 S
C452 C443 1.429 . S
C452 N449 1.350 . S
C452 C451 1.434 1_554 S
C453 C454 1.369 1_655 S
C453 C455 1.424 1_554 S
C453 H457 0.930 . S
C454 C453 1.369 1_455 S
C454 C463 1.429 1_554 S
C455 C453 1.424 1_556 S
C455 C456 1.344 1_655 S
C455 H458 0.945 . S
C456 C455 1.344 1_455 S
C456 C462 1.428 . S
H457 C453 0.930 . S
H458 C455 0.945 . S
S459 N460 1.613 . S
S459 N461 1.610 . S
N460 S459 1.613 . S
N460 C463 1.350 . S
N461 S459 1.610 . S
N461 C462 1.351 . S
C462 C456 1.428 . S
C462 N461 1.351 . S
C462 C463 1.434 . S
C463 C454 1.429 1_556 S
C463 N460 1.350 . S
C463 C462 1.434 . S
C464 C465 1.369 1_655 S
C464 C466 1.419 . S
C464 H468 0.930 1_655 S
C465 C464 1.369 1_455 S
C465 C474 1.429 1_455 S
C466 C464 1.419 . S
C466 C467 1.363 . S
C466 H469 0.929 . S
C467 C466 1.363 . S
C467 C473 1.428 . S
H468 C464 0.930 1_455 S
H469 C466 0.929 . S
S470 N471 1.613 . S
S470 N472 1.610 . S
N471 S470 1.613 . S
N471 C474 1.350 . S
N472 S470 1.610 . S
N472 C473 1.351 . S
C473 C467 1.428 . S
C473 N472 1.351 . S
C473 C474 1.434 . S
C474 C465 1.429 1_655 S
C474 N471 1.350 . S
C474 C473 1.434 . S
C475 C476 1.369 . S
C475 C477 1.419 . S
C475 H479 0.930 . S
C476 C475 1.369 . S
C476 C485 1.429 . S
C477 C475 1.419 . S
C477 C478 1.363 . S
C477 H480 0.929 . S
C478 C477 1.363 . S
C478 C484 1.428 . S
H479 C475 0.930 . S
H480 C477 0.929 . S
S481 N482 1.613 . S
S481 N483 1.610 . S
N482 S481 1.613 . S
N482 C485 1.350 . S
N483 S481 1.610 . S
N483 C484 1.351 . S
C484 C478 1.428 . S
C484 N483 1.351 . S
C484 C485 1.434 . S
C485 C476 1.429 . S
C485 N482 1.350 . S
C485 C484 1.434 . S
C486 C487 1.369 . S
C486 C488 1.419 . S
C486 H490 0.930 . S
C487 C486 1.369 . S
C487 C496 1.429 . S
C488 C486 1.419 . S
C488 C489 1.363 . S
C488 H491 0.929 . S
C489 C488 1.363 . S
C489 C495 1.428 . S
H490 C486 0.930 . S
H491 C488 0.929 . S
S492 N493 1.613 . S
S492 N494 1.610 . S
N493 S492 1.613 . S
N493 C496 1.350 . S
N494 S492 1.610 . S
N494 C495 1.351 . S
C495 C489 1.428 . S
C495 N494 1.351 . S
C495 C496 1.434 . S
C496 C487 1.429 . S
C496 N493 1.350 . S
C496 C495 1.434 . S
C497 C498 1.369 . S
C497 C499 1.419 . S
C497 H501 0.930 . S
C498 C497 1.369 . S
C498 C507 1.429 . S
C499 C497 1.419 . S
C499 C500 1.363 . S
C499 H502 0.929 . S
C500 C499 1.363 . S
C500 C506 1.428 . S
H501 C497 0.930 . S
H502 C499 0.929 . S
S503 N504 1.613 . S
S503 N505 1.610 . S
N504 S503 1.613 . S
N504 C507 1.350 . S
N505 S503 1.610 . S
N505 C506 1.351 . S
C506 C500 1.428 . S
C506 N505 1.351 . S
C506 C507 1.434 . S
C507 C498 1.429 . S
C507 N504 1.350 . S
C507 C506 1.434 . S
C508 C509 1.369 . S
C508 C510 1.419 . S
C508 H512 0.930 . S
C509 C508 1.369 . S
C509 C518 1.429 1_655 S
C510 C508 1.419 . S
C510 C511 1.363 1_655 S
C510 H513 0.929 . S
C511 C510 1.363 1_455 S
C511 C517 1.428 . S
H512 C508 0.930 . S
H513 C510 0.929 . S
S514 N515 1.613 1_554 S
S514 N516 1.610 . S
N515 S514 1.613 1_556 S
N515 C518 1.350 . S
N516 S514 1.610 . S
N516 C517 1.351 1_554 S
C517 C511 1.428 . S
C517 N516 1.351 1_556 S
C517 C518 1.434 . S
C518 C509 1.429 1_455 S
C518 N515 1.350 . S
C518 C517 1.434 . S
C519 C520 1.369 . S
C519 C521 1.419 . S
C519 H523 0.930 . S
C520 C519 1.369 . S
C520 C529 1.429 . S
C521 C519 1.419 . S
C521 C522 1.363 . S
C521 H524 0.929 . S
C522 C521 1.363 . S
C522 C528 1.428 1_565 S
H523 C519 0.930 . S
H524 C521 0.929 . S
S525 N526 1.613 1_545 S
S525 N527 1.610 . S
N526 S525 1.613 1_565 S
N526 C529 1.350 . S
N527 S525 1.610 . S
N527 C528 1.351 . S
C528 C522 1.428 1_545 S
C528 N527 1.351 . S
C528 C529 1.434 1_545 S
C529 C520 1.429 . S
C529 N526 1.350 . S
C529 C528 1.434 1_565 S
C530 C531 1.369 . S
C530 C532 1.419 . S
C530 H534 0.930 . S
C531 C530 1.369 . S
C531 C540 1.429 . S
C532 C530 1.419 . S
C532 C533 1.363 . S
C532 H535 0.929 . S
C533 C532 1.363 . S
C533 C539 1.428 . S
H534 C530 0.930 . S
H535 C532 0.929 . S
S536 N537 1.613 1_554 S
S536 N538 1.610 1_554 S
N537 S536 1.613 1_556 S
N537 C540 1.350 . S
N538 S536 1.610 1_556 S
N538 C539 1.351 . S
C539 C533 1.428 . S
C539 N538 1.351 . S
C539 C540 1.434 . S
C540 C531 1.429 . S
C540 N537 1.350 . S
C540 C539 1.434 . S
C541 C542 1.369 . S
C541 C543 1.419 . S
C541 H545 0.930 . S
C542 C541 1.369 . S
C542 C551 1.429 1_556 S
C543 C541 1.419 . S
C543 C544 1.363 . S
C543 H546 0.929 . S
C544 C543 1.363 . S
C544 C550 1.428 1_556 S
H545 C541 0.930 . S
H546 C543 0.929 . S
S547 N548 1.613 . S
S547 N549 1.610 . S
N548 S547 1.613 . S
N548 C551 1.350 . S
N549 S547 1.610 . S
N549 C550 1.351 . S
C550 C544 1.428 1_554 S
C550 N549 1.351 . S
C550 C551 1.434 . S
C551 C542 1.429 1_554 S
C551 N548 1.350 . S
C551 C550 1.434 . S
C552 C553 1.369 . S
C552 C554 1.419 . S
C552 H556 0.930 . S
C553 C552 1.369 . S
C553 C562 1.429 1_455 S
C554 C552 1.419 . S
C554 C555 1.363 . S
C554 H557 0.929 . S
C555 C554 1.363 . S
C555 C561 1.428 1_455 S
H556 C552 0.930 . S
H557 C554 0.929 . S
S558 N559 1.613 . S
S558 N560 1.610 . S
N559 S558 1.613 . S
N559 C562 1.350 . S
N560 S558 1.610 . S
N560 C561 1.351 . S
C561 C555 1.428 1_655 S
C561 N560 1.351 . S
C561 C562 1.434 . S
C562 C553 1.429 1_655 S
C562 N559 1.350 . S
C562 C561 1.434 . S
C563 C564 1.369 . S
C563 C565 1.419 . S
C563 H567 0.930 . S
C564 C563 1.369 . S
C564 C573 1.429 . S
C565 C563 1.419 . S
C565 C566 1.363 . S
C565 H568 0.929 . S
C566 C565 1.363 . S
C566 C572 1.428 . S
H567 C563 0.930 . S
H568 C565 0.929 . S
S569 N570 1.613 . S
S569 N571 1.610 . S
N570 S569 1.613 . S
N570 C573 1.350 . S
N571 S569 1.610 . S
N571 C572 1.351 . S
C572 C566 1.428 . S
C572 N571 1.351 . S
C572 C573 1.434 . S
C573 C564 1.429 . S
C573 N570 1.350 . S
C573 C572 1.434 . S
C574 C575 1.369 . S
C574 C576 1.419 . S
C574 H578 0.930 . S
C575 C574 1.369 . S
C575 C584 1.429 . S
C576 C574 1.419 . S
C576 C577 1.363 . S
C576 H579 0.929 1_554 S
C577 C576 1.363 . S
C577 C583 1.428 . S
H578 C574 0.930 . S
H579 C576 0.929 1_556 S
S580 N581 1.613 . S
S580 N582 1.610 . S
N581 S580 1.613 . S
N581 C584 1.350 . S
N582 S580 1.610 . S
N582 C583 1.351 . S
C583 C577 1.428 . S
C583 N582 1.351 . S
C583 C584 1.434 . S
C584 C575 1.429 . S
C584 N581 1.350 . S
C584 C583 1.434 . S
C585 C586 1.369 . S
C585 C587 1.419 . S
C585 H589 0.930 . S
C586 C585 1.369 . S
C586 C595 1.429 . S
C587 C585 1.419 . S
C587 C588 1.363 . S
C587 H590 0.929 . S
C588 C587 1.363 . S
C588 C594 1.428 1_554 S
H589 C585 0.930 . S
H590 C587 0.929 . S
S591 N592 1.613 1_556 S
S591 N593 1.610 . S
N592 S591 1.613 1_554 S
N592 C595 1.350 . S
N593 S591 1.610 . S
N593 C594 1.351 . S
C594 C588 1.428 1_556 S
C594 N593 1.351 . S
C594 C595 1.434 1_556 S
C595 C586 1.429 . S
C595 N592 1.350 . S
C595 C594 1.434 1_554 S
C596 C597 1.369 . S
C596 C598 1.419 . S
C596 H600 0.930 . S
C597 C596 1.369 . S
C597 C606 1.429 1_655 S
C598 C596 1.419 . S
C598 C599 1.363 . S
C598 H601 0.929 . S
C599 C598 1.363 . S
C599 C605 1.428 1_655 S
H600 C596 0.930 . S
H601 C598 0.929 . S
S602 N603 1.613 . S
S602 N604 1.610 . S
N603 S602 1.613 . S
N603 C606 1.350 . S
N604 S602 1.610 . S
N604 C605 1.351 . S
C605 C599 1.428 1_455 S
C605 N604 1.351 . S
C605 C606 1.434 . S
C606 C597 1.429 1_455 S
C606 N603 1.350 . S
C606 C605 1.434 . S
C607 C608 1.369 . S
C607 C609 1.419 . S
C607 H611 0.930 . S
C608 C607 1.369 . S
C608 C617 1.429 . S
C609 C607 1.419 . S
C609 C610 1.363 . S
C609 H612 0.929 . S
C610 C609 1.363 . S
C610 C616 1.428 . S
H611 C607 0.930 . S
H612 C609 0.929 . S
S613 N614 1.613 . S
S613 N615 1.610 . S
N614 S613 1.613 . S
N614 C617 1.350 1_545 S
N615 S613 1.610 . S
N615 C616 1.351 1_545 S
C616 C610 1.428 . S
C616 N615 1.351 1_565 S
C616 C617 1.434 . S
C617 C608 1.429 . S
C617 N614 1.350 1_565 S
C617 C616 1.434 . S
C618 C619 1.369 . S
C618 C620 1.419 . S
C618 H622 0.930 . S
C619 C618 1.369 . S
C619 C628 1.429 . S
C620 C618 1.419 . S
C620 C621 1.363 . S
C620 H623 0.929 . S
C621 C620 1.363 . S
C621 C627 1.428 . S
H622 C618 0.930 . S
H623 C620 0.929 . S
S624 N625 1.613 . S
S624 N626 1.610 . S
N625 S624 1.613 . S
N625 C628 1.350 . S
N626 S624 1.610 . S
N626 C627 1.351 . S
C627 C621 1.428 . S
C627 N626 1.351 . S
C627 C628 1.434 . S
C628 C619 1.429 . S
C628 N625 1.350 . S
C628 C627 1.434 . S
C629 C630 1.369 . S
C629 C631 1.419 . S
C629 H633 0.930 . S
C630 C629 1.369 . S
C630 C639 1.429 . S
C631 C629 1.419 . S
C631 C632 1.363 . S
C631 H634 0.929 . S
C632 C631 1.363 . S
C632 C638 1.428 . S
H633 C629 0.930 . S
H634 C631 0.929 . S
S635 N636 1.613 . S
S635 N637 1.610 . S
N636 S635 1.613 . S
N636 C639 1.350 . S
N637 S635 1.610 . S
N637 C638 1.351 . S
C638 C632 1.428 . S
C638 N637 1.351 . S
C638 C639 1.434 . S
C639 C630 1.429 . S
C639 N636 1.350 . S
C639 C638 1.434 . S
C377 C215 1.897 . S
C379 C266 1.862 . S
C390 C296 1.777 . S
C388 C247 1.722 . S
C401 N330 1.728 . S
C399 C151 1.759 . S
C412 N360 1.408 . S
C410 C183 1.481 1_655 S
C423 C257 1.861 1_565 S
C421 C87 1.727 1_556 S
C432 C119 1.758 . S
C434 C287 1.776 . S
C443 C23 1.593 . S
C445 N322 1.727 . S
C454 C55 1.428 . S
C456 N352 1.411 . S
C467 C272 0.595 . S
C465 C189 0.547 . S
C478 C302 1.099 . S
C476 C221 1.114 . S
C489 C343 1.021 . S
C487 C253 0.986 . S
C498 C157 1.053 . S
C500 C373 1.006 . S
C509 C61 0.679 1_655 S
C511 C283 0.592 . S
C522 C313 1.107 1_565 S
C520 C93 0.925 . S
C533 C332 1.021 . S
C531 C125 0.995 . S
C542 C29 0.857 . S
C544 C362 1.010 . S
C553 C177 1.515 . S
C555 N262 1.595 . S
C564 C209 1.696 . S
C566 N292 1.744 . S
C577 C317 1.851 1_554 S
C575 C241 1.731 . S
C588 C347 1.998 1_554 S
C586 C145 1.959 . S
C597 C49 1.559 1_655 S
C599 N270 1.594 . S
C610 N300 1.739 . S
C608 C81 1.611 . S
C621 C326 1.848 . S
C619 C113 1.806 . S
C630 C17 1.805 . S
C632 C356 2.004 . S
