# Generated by pormake.
# Topology ctn, (3,4)-cn, num edge types: 1
# Building blocks:
#     Node 0, Type 0, BuildingBlock: CUQRIR_clean_linker_1, # of connection points: 3
#     Node 1, Type 0, BuildingBlock: CUQRIR_clean_linker_1, # of connection points: 3
#     Node 2, Type 0, BuildingBlock: CUQRIR_clean_linker_1, # of connection points: 3
#     Node 3, Type 0, BuildingBlock: CUQRIR_clean_linker_1, # of connection points: 3
#     Node 4, Type 0, BuildingBlock: CUQRIR_clean_linker_1, # of connection points: 3
#     Node 5, Type 0, BuildingBlock: CUQRIR_clean_linker_1, # of connection points: 3
#     Node 6, Type 0, BuildingBlock: CUQRIR_clean_linker_1, # of connection points: 3
#     Node 7, Type 0, BuildingBlock: CUQRIR_clean_linker_1, # of connection points: 3
#     Node 8, Type 0, BuildingBlock: CUQRIR_clean_linker_1, # of connection points: 3
#     Node 9, Type 0, BuildingBlock: CUQRIR_clean_linker_1, # of connection points: 3
#     Node 10, Type 0, BuildingBlock: CUQRIR_clean_linker_1, # of connection points: 3
#     Node 11, Type 0, BuildingBlock: CUQRIR_clean_linker_1, # of connection points: 3
#     Node 12, Type 0, BuildingBlock: CUQRIR_clean_linker_1, # of connection points: 3
#     Node 13, Type 0, BuildingBlock: CUQRIR_clean_linker_1, # of connection points: 3
#     Node 14, Type 0, BuildingBlock: CUQRIR_clean_linker_1, # of connection points: 3
#     Node 15, Type 0, BuildingBlock: CUQRIR_clean_linker_1, # of connection points: 3
#     Node 16, Type 1, BuildingBlock: QUQFOY_clean_sbu_1, # of connection points: 4
#     Node 17, Type 1, BuildingBlock: QUQFOY_clean_sbu_1, # of connection points: 4
#     Node 18, Type 1, BuildingBlock: QUQFOY_clean_sbu_1, # of connection points: 4
#     Node 19, Type 1, BuildingBlock: QUQFOY_clean_sbu_1, # of connection points: 4
#     Node 20, Type 1, BuildingBlock: QUQFOY_clean_sbu_1, # of connection points: 4
#     Node 21, Type 1, BuildingBlock: QUQFOY_clean_sbu_1, # of connection points: 4
#     Node 22, Type 1, BuildingBlock: QUQFOY_clean_sbu_1, # of connection points: 4
#     Node 23, Type 1, BuildingBlock: QUQFOY_clean_sbu_1, # of connection points: 4
#     Node 24, Type 1, BuildingBlock: QUQFOY_clean_sbu_1, # of connection points: 4
#     Node 25, Type 1, BuildingBlock: QUQFOY_clean_sbu_1, # of connection points: 4
#     Node 26, Type 1, BuildingBlock: QUQFOY_clean_sbu_1, # of connection points: 4
#     Node 27, Type 1, BuildingBlock: QUQFOY_clean_sbu_1, # of connection points: 4
#     Edge 28, Type (0, 1), BuildingBlock: TEMPAE_clean_linker_10, # of connection points: 2
#     Edge 29, Type (0, 1), BuildingBlock: TEMPAE_clean_linker_10, # of connection points: 2
#     Edge 30, Type (0, 1), BuildingBlock: TEMPAE_clean_linker_10, # of connection points: 2
#     Edge 31, Type (0, 1), BuildingBlock: TEMPAE_clean_linker_10, # of connection points: 2
#     Edge 32, Type (0, 1), BuildingBlock: TEMPAE_clean_linker_10, # of connection points: 2
#     Edge 33, Type (0, 1), BuildingBlock: TEMPAE_clean_linker_10, # of connection points: 2
#     Edge 34, Type (0, 1), BuildingBlock: TEMPAE_clean_linker_10, # of connection points: 2
#     Edge 35, Type (0, 1), BuildingBlock: TEMPAE_clean_linker_10, # of connection points: 2
#     Edge 36, Type (0, 1), BuildingBlock: TEMPAE_clean_linker_10, # of connection points: 2
#     Edge 37, Type (0, 1), BuildingBlock: TEMPAE_clean_linker_10, # of connection points: 2
#     Edge 38, Type (0, 1), BuildingBlock: TEMPAE_clean_linker_10, # of connection points: 2
#     Edge 39, Type (0, 1), BuildingBlock: TEMPAE_clean_linker_10, # of connection points: 2
#     Edge 40, Type (0, 1), BuildingBlock: TEMPAE_clean_linker_10, # of connection points: 2
#     Edge 41, Type (0, 1), BuildingBlock: TEMPAE_clean_linker_10, # of connection points: 2
#     Edge 42, Type (0, 1), BuildingBlock: TEMPAE_clean_linker_10, # of connection points: 2
#     Edge 43, Type (0, 1), BuildingBlock: TEMPAE_clean_linker_10, # of connection points: 2
#     Edge 44, Type (0, 1), BuildingBlock: TEMPAE_clean_linker_10, # of connection points: 2
#     Edge 45, Type (0, 1), BuildingBlock: TEMPAE_clean_linker_10, # of connection points: 2
#     Edge 46, Type (0, 1), BuildingBlock: TEMPAE_clean_linker_10, # of connection points: 2
#     Edge 47, Type (0, 1), BuildingBlock: TEMPAE_clean_linker_10, # of connection points: 2
#     Edge 48, Type (0, 1), BuildingBlock: TEMPAE_clean_linker_10, # of connection points: 2
#     Edge 49, Type (0, 1), BuildingBlock: TEMPAE_clean_linker_10, # of connection points: 2
#     Edge 50, Type (0, 1), BuildingBlock: TEMPAE_clean_linker_10, # of connection points: 2
#     Edge 51, Type (0, 1), BuildingBlock: TEMPAE_clean_linker_10, # of connection points: 2
#     Edge 52, Type (0, 1), BuildingBlock: TEMPAE_clean_linker_10, # of connection points: 2
#     Edge 53, Type (0, 1), BuildingBlock: TEMPAE_clean_linker_10, # of connection points: 2
#     Edge 54, Type (0, 1), BuildingBlock: TEMPAE_clean_linker_10, # of connection points: 2
#     Edge 55, Type (0, 1), BuildingBlock: TEMPAE_clean_linker_10, # of connection points: 2
#     Edge 56, Type (0, 1), BuildingBlock: TEMPAE_clean_linker_10, # of connection points: 2
#     Edge 57, Type (0, 1), BuildingBlock: TEMPAE_clean_linker_10, # of connection points: 2
#     Edge 58, Type (0, 1), BuildingBlock: TEMPAE_clean_linker_10, # of connection points: 2
#     Edge 59, Type (0, 1), BuildingBlock: TEMPAE_clean_linker_10, # of connection points: 2
#     Edge 60, Type (0, 1), BuildingBlock: TEMPAE_clean_linker_10, # of connection points: 2
#     Edge 61, Type (0, 1), BuildingBlock: TEMPAE_clean_linker_10, # of connection points: 2
#     Edge 62, Type (0, 1), BuildingBlock: TEMPAE_clean_linker_10, # of connection points: 2
#     Edge 63, Type (0, 1), BuildingBlock: TEMPAE_clean_linker_10, # of connection points: 2
#     Edge 64, Type (0, 1), BuildingBlock: TEMPAE_clean_linker_10, # of connection points: 2
#     Edge 65, Type (0, 1), BuildingBlock: TEMPAE_clean_linker_10, # of connection points: 2
#     Edge 66, Type (0, 1), BuildingBlock: TEMPAE_clean_linker_10, # of connection points: 2
#     Edge 67, Type (0, 1), BuildingBlock: TEMPAE_clean_linker_10, # of connection points: 2
#     Edge 68, Type (0, 1), BuildingBlock: TEMPAE_clean_linker_10, # of connection points: 2
#     Edge 69, Type (0, 1), BuildingBlock: TEMPAE_clean_linker_10, # of connection points: 2
#     Edge 70, Type (0, 1), BuildingBlock: TEMPAE_clean_linker_10, # of connection points: 2
#     Edge 71, Type (0, 1), BuildingBlock: TEMPAE_clean_linker_10, # of connection points: 2
#     Edge 72, Type (0, 1), BuildingBlock: TEMPAE_clean_linker_10, # of connection points: 2
#     Edge 73, Type (0, 1), BuildingBlock: TEMPAE_clean_linker_10, # of connection points: 2
#     Edge 74, Type (0, 1), BuildingBlock: TEMPAE_clean_linker_10, # of connection points: 2
#     Edge 75, Type (0, 1), BuildingBlock: TEMPAE_clean_linker_10, # of connection points: 2
# Relax obj value: 0.108
# Max RMSD: 0.206
# Mean RMSD: 0.154
data_MOF--net-ctn--node1-QUQFOY_clean_sbu_1--node2-CUQRIR_clean_linker_1--edge1-TEMPAE_clean_linker_10
_symmetry_space_group_name_H-M    P1
_symmetry_Int_Tables_number       1
_symmetry_cell_setting            triclinic
loop_
_symmetry_equiv_pos_as_xyz
'x, y, z'
_cell_length_a     52.965905
_cell_length_b     48.989747
_cell_length_c     50.537744
_cell_angle_alpha  100.43864
_cell_angle_beta   88.693032
_cell_angle_gamma 98.364608
loop_
_atom_site_label
_atom_site_type_symbol
_atom_site_fract_x
_atom_site_fract_y
_atom_site_fract_z
_atom_type_partial_charge
C0 C 0.03536 0.05618 0.11169 0.0
N1 N 0.04751 0.06115 0.08881 0.0
N2 N 0.02067 0.07626 0.12077 0.0
C3 C 0.0368 0.03102 0.1245 0.0
C4 C 0.02432 0.09367 0.10269 0.0
N5 N 0.04103 0.08479 0.08347 0.0
C6 C 0.00956 0.11763 0.10224 0.0
H7 H 0.02219 0.01357 0.11513 0.0
H8 H 0.03289 0.03564 0.14638 0.0
H9 H 0.05585 0.02411 0.12131 0.0
H10 H 0.99675 0.12089 0.11984 0.0
H11 H 0.99805 0.11334 0.08348 0.0
H12 H 0.02294 0.13725 0.10219 0.0
C13 C 0.27757 0.76216 0.25277 0.0
N14 N 0.29057 0.75197 0.27061 0.0
N15 N 0.29331 0.78085 0.24106 0.0
C16 C 0.24982 0.75268 0.24574 0.0
C17 C 0.31641 0.78151 0.25237 0.0
N18 N 0.31471 0.76374 0.27017 0.0
C19 C 0.34051 0.79915 0.24556 0.0
H20 H 0.24787 0.73195 0.23219 0.0
H21 H 0.24185 0.76781 0.23558 0.0
H22 H 0.23846 0.75017 0.26405 0.0
H23 H 0.34008 0.82122 0.25544 0.0
H24 H 0.34163 0.79858 0.22351 0.0
H25 H 0.35779 0.79217 0.25251 0.0
C26 C 0.96016 0.51701 0.10919 0.0
N27 N 0.97415 0.49569 0.10746 0.0
N28 N 0.9441 0.51264 0.08794 0.0
C29 C 0.96282 0.54248 0.13113 0.0
C30 C 0.94899 0.48815 0.07304 0.0
N31 N 0.96757 0.47798 0.08469 0.0
C32 C 0.93548 0.47429 0.0471 0.0
H33 H 0.95291 0.53685 0.14938 0.0
H34 H 0.95427 0.55988 0.12526 0.0
H35 H 0.98325 0.54963 0.13635 0.0
H36 H 0.94591 0.48225 0.03011 0.0
H37 H 0.91575 0.47925 0.0469 0.0
H38 H 0.93475 0.45117 0.04391 0.0
C39 C 0.70283 0.7471 0.24831 0.0
N40 N 0.72144 0.76464 0.23842 0.0
N41 N 0.69419 0.7599 0.27212 0.0
C42 C 0.69262 0.71784 0.23445 0.0
C43 C 0.70771 0.78591 0.27613 0.0
N44 N 0.72414 0.78882 0.25568 0.0
C45 C 0.70423 0.80865 0.29979 0.0
H46 H 0.67324 0.71078 0.24155 0.0
H47 H 0.70535 0.70319 0.23898 0.0
H48 H 0.69219 0.71667 0.21233 0.0
H49 H 0.68363 0.80866 0.30437 0.0
H50 H 0.71275 0.82973 0.29628 0.0
H51 H 0.71356 0.80428 0.3177 0.0
C52 C 0.02206 0.00515 0.50026 0.0
N53 N 0.04623 0.00679 0.50908 0.0
N54 N 0.02108 0.02222 0.48218 0.0
C55 C 0.99938 0.98716 0.5097 0.0
C56 C 0.04558 0.03424 0.48025 0.0
N57 N 0.06093 0.02504 0.49683 0.0
C58 C 0.05481 0.05263 0.4601 0.0
H59 H 0.99829 0.96553 0.49802 0.0
H60 H 0.98137 0.99533 0.5068 0.0
H61 H 0.00147 0.98611 0.53126 0.0
H62 H 0.0541 0.07485 0.46932 0.0
H63 H 0.04246 0.0474 0.44192 0.0
H64 H 0.07474 0.05032 0.45395 0.0
C65 C 0.20824 0.76841 0.79176 0.0
N66 N 0.22167 0.75357 0.8049 0.0
N67 N 0.20822 0.75853 0.76492 0.0
C68 C 0.1928 0.79047 0.80547 0.0
C69 C 0.22177 0.73672 0.76241 0.0
N70 N 0.22989 0.73364 0.78681 0.0
C71 C 0.22808 0.71939 0.73605 0.0
H72 H 0.17442 0.78893 0.7948 0.0
H73 H 0.20374 0.81151 0.80517 0.0
H74 H 0.18869 0.78856 0.82673 0.0
H75 H 0.22789 0.73141 0.71945 0.0
H76 H 0.21362 0.70037 0.73157 0.0
H77 H 0.24708 0.71262 0.7371 0.0
C78 C 0.94415 0.53269 0.47341 0.0
N79 N 0.96173 0.55603 0.47495 0.0
N80 N 0.92483 0.53752 0.49082 0.0
C81 C 0.94703 0.50446 0.45697 0.0
C82 C 0.9312 0.5645 0.503 0.0
N83 N 0.95379 0.57566 0.4937 0.0
C84 C 0.91437 0.58065 0.52247 0.0
H85 H 0.93779 0.48733 0.46711 0.0
H86 H 0.96745 0.50221 0.45356 0.0
H87 H 0.93761 0.50225 0.43716 0.0
H88 H 0.91895 0.57866 0.54328 0.0
H89 H 0.89393 0.57227 0.51848 0.0
H90 H 0.91755 0.60323 0.52105 0.0
C91 C 0.78163 0.8182 0.82298 0.0
N92 N 0.80265 0.80514 0.81937 0.0
N93 N 0.78284 0.83835 0.80762 0.0
C94 C 0.76118 0.81319 0.84347 0.0
C95 C 0.80551 0.83726 0.79479 0.0
N96 N 0.81767 0.81737 0.80219 0.0
C97 C 0.81518 0.85448 0.77385 0.0
H98 H 0.74598 0.79651 0.83398 0.0
H99 H 0.75255 0.83247 0.85087 0.0
H100 H 0.76899 0.80618 0.86089 0.0
H101 H 0.82817 0.87326 0.78361 0.0
H102 H 0.79921 0.86143 0.7642 0.0
H103 H 0.82614 0.8423 0.75813 0.0
C104 C 0.28212 0.31551 0.32081 0.0
N105 N 0.30212 0.30088 0.31642 0.0
N106 N 0.28349 0.33491 0.3046 0.0
C107 C 0.26263 0.31264 0.34267 0.0
C108 C 0.30521 0.33171 0.29042 0.0
N109 N 0.31663 0.31126 0.29779 0.0
C110 C 0.31485 0.34775 0.2686 0.0
H111 H 0.2463 0.29674 0.33446 0.0
H112 H 0.25544 0.33281 0.35008 0.0
H113 H 0.27081 0.3056 0.35988 0.0
H114 H 0.3291 0.36586 0.27737 0.0
H115 H 0.29906 0.35567 0.25963 0.0
H116 H 0.32442 0.33438 0.25252 0.0
C117 C 0.45668 0.0113 0.60548 0.0
N118 N 0.4703 0.98961 0.60317 0.0
N119 N 0.43992 0.00723 0.58486 0.0
C120 C 0.46049 0.03693 0.62724 0.0
C121 C 0.44402 0.98255 0.56972 0.0
N122 N 0.46278 0.97196 0.58063 0.0
C123 C 0.42973 0.96902 0.54416 0.0
H124 H 0.45124 0.03167 0.64594 0.0
H125 H 0.45195 0.0545 0.62174 0.0
H126 H 0.48114 0.04367 0.63151 0.0
H127 H 0.43963 0.97712 0.52697 0.0
H128 H 0.41001 0.97415 0.54478 0.0
H129 H 0.42887 0.94588 0.54067 0.0
C130 C 0.20036 0.25139 0.74874 0.0
N131 N 0.21903 0.26855 0.73845 0.0
N132 N 0.19201 0.26463 0.77251 0.0
C133 C 0.18989 0.22203 0.73539 0.0
C134 C 0.20577 0.2905 0.7761 0.0
N135 N 0.22205 0.29292 0.75544 0.0
C136 C 0.2029 0.31352 0.79969 0.0
H137 H 0.17041 0.21542 0.74249 0.0
H138 H 0.20236 0.20734 0.74042 0.0
H139 H 0.18961 0.22033 0.7132 0.0
H140 H 0.21343 0.30984 0.81715 0.0
H141 H 0.18252 0.31322 0.80541 0.0
H142 H 0.21066 0.33453 0.7954 0.0
C143 C 0.78065 0.25796 0.7534 0.0
N144 N 0.79399 0.24757 0.77072 0.0
N145 N 0.79188 0.28397 0.75063 0.0
C146 C 0.75722 0.24208 0.7384 0.0
C147 C 0.81267 0.28887 0.76698 0.0
N148 N 0.81378 0.26671 0.77933 0.0
C149 C 0.83203 0.31493 0.77049 0.0
H150 H 0.75637 0.2474 0.71804 0.0
H151 H 0.74001 0.24784 0.74974 0.0
H152 H 0.75684 0.2191 0.73642 0.0
H153 H 0.83974 0.32028 0.79127 0.0
H154 H 0.8236 0.33297 0.76582 0.0
H155 H 0.84817 0.31112 0.75658 0.0
C156 C 0.54021 0.56801 0.61627 0.0
N157 N 0.55221 0.57238 0.59317 0.0
N158 N 0.52462 0.58746 0.62429 0.0
C159 C 0.54216 0.5435 0.62987 0.0
C160 C 0.52758 0.60384 0.60528 0.0
N161 N 0.5447 0.59496 0.58652 0.0
C162 C 0.51166 0.62652 0.6034 0.0
H163 H 0.52755 0.52573 0.62115 0.0
H164 H 0.53859 0.5488 0.65177 0.0
H165 H 0.56126 0.53669 0.62662 0.0
H166 H 0.49875 0.63006 0.62088 0.0
H167 H 0.50017 0.62063 0.58462 0.0
H168 H 0.52424 0.64647 0.60244 0.0
C169 C 0.52474 0.50691 0.99965 0.0
N170 N 0.54893 0.50827 0.00831 0.0
N171 N 0.52389 0.52365 0.98126 0.0
C172 C 0.50191 0.48961 0.00965 0.0
C173 C 0.54849 0.53521 0.97898 0.0
N174 N 0.56377 0.52603 0.99565 0.0
C175 C 0.55783 0.55305 0.95842 0.0
H176 H 0.50048 0.46774 0.99849 0.0
H177 H 0.48404 0.49798 0.0066 0.0
H178 H 0.50411 0.48918 0.03134 0.0
H179 H 0.55743 0.57542 0.96729 0.0
H180 H 0.54537 0.54767 0.94032 0.0
H181 H 0.57768 0.55033 0.95221 0.0
C182 C 0.69507 0.26302 0.30288 0.0
N183 N 0.7089 0.24875 0.3162 0.0
N184 N 0.69136 0.25006 0.277 0.0
C185 C 0.68335 0.28837 0.31583 0.0
C186 C 0.70343 0.22721 0.27507 0.0
N187 N 0.71394 0.22629 0.29908 0.0
C188 C 0.70375 0.20521 0.25015 0.0
H189 H 0.666 0.28144 0.32698 0.0
H190 H 0.678 0.3002 0.30057 0.0
H191 H 0.69683 0.30244 0.33051 0.0
H192 H 0.70326 0.21448 0.23176 0.0
H193 H 0.68656 0.18925 0.25 0.0
H194 H 0.72098 0.19469 0.24966 0.0
C195 C 0.43054 0.04876 0.94836 0.0
N196 N 0.44881 0.07143 0.94946 0.0
N197 N 0.41009 0.05562 0.96329 0.0
C198 C 0.43389 0.01929 0.93548 0.0
C199 C 0.41653 0.08318 0.97344 0.0
N200 N 0.44013 0.09276 0.96534 0.0
C201 C 0.39956 0.10103 0.99096 0.0
H202 H 0.42556 0.01464 0.91493 0.0
H203 H 0.42386 0.00387 0.94714 0.0
H204 H 0.45436 0.01669 0.93394 0.0
H205 H 0.40363 0.10116 0.01242 0.0
H206 H 0.37914 0.09264 0.98688 0.0
H207 H 0.40333 0.123 0.98751 0.0
O208 O 0.22787 0.84276 0.00943 0.0
Cd209 Cd 0.24125 0.87417 0.04073 0.0
Cd210 Cd 0.20608 0.90295 0.01643 0.0
O211 O 0.20003 0.86394 0.99177 0.0
O212 O 0.26435 0.85584 0.06019 0.0
O213 O 0.23067 0.87282 0.07928 0.0
C214 C 0.25035 0.86051 0.08119 0.0
C215 C 0.1719 0.9286 0.02678 0.0
C216 C 0.21131 0.84266 0.9916 0.0
C217 C 0.26236 0.92595 0.01843 0.0
O218 O 0.23991 0.92799 0.01153 0.0
O219 O 0.26652 0.90649 0.03053 0.0
O220 O 0.1811 0.9241 0.00286 0.0
O221 O 0.18142 0.91744 0.04485 0.0
O222 O 0.18323 0.56632 0.32239 0.0
Cd223 Cd 0.15845 0.53063 0.3267 0.0
Cd224 Cd 0.12822 0.55046 0.29254 0.0
O225 O 0.16159 0.577 0.28987 0.0
O226 O 0.179 0.50665 0.34247 0.0
O227 O 0.16232 0.49464 0.30151 0.0
C228 C 0.17584 0.4889 0.32021 0.0
C229 C 0.10417 0.53436 0.25292 0.0
C230 C 0.18125 0.58148 0.30484 0.0
C231 C 0.10926 0.54811 0.34881 0.0
O232 O 0.10717 0.55761 0.32731 0.0
O233 O 0.1274 0.53459 0.35182 0.0
O234 O 0.10617 0.56001 0.26519 0.0
O235 O 0.11619 0.5175 0.26301 0.0
O236 O 0.78604 0.68854 0.97553 0.0
Cd237 Cd 0.77586 0.66876 0.00828 0.0
Cd238 Cd 0.79783 0.62762 0.97572 0.0
O239 O 0.80606 0.65651 0.95069 0.0
O240 O 0.75774 0.69589 0.03287 0.0
O241 O 0.79338 0.68253 0.04445 0.0
C242 C 0.77456 0.6964 0.05099 0.0
C243 C 0.82935 0.61305 0.9987 0.0
C244 C 0.79858 0.68042 0.95445 0.0
C245 C 0.74494 0.61053 0.98974 0.0
O246 O 0.76233 0.60361 0.97331 0.0
O247 O 0.74778 0.6342 0.00529 0.0
O248 O 0.82436 0.60257 0.97369 0.0
O249 O 0.81682 0.63263 0.01043 0.0
O250 O 0.88837 0.02949 0.33184 0.0
Cd251 Cd 0.86745 0.02428 0.29698 0.0
Cd252 Cd 0.83081 0.03545 0.33527 0.0
O253 O 0.85961 0.03926 0.36298 0.0
O254 O 0.89427 0.01508 0.27023 0.0
O255 O 0.87554 0.05278 0.27238 0.0
C256 C 0.89217 0.03756 0.26124 0.0
C257 C 0.81118 0.07375 0.33076 0.0
C258 C 0.88231 0.03553 0.35644 0.0
C259 C 0.82084 0.98043 0.29843 0.0
O260 O 0.81333 0.99566 0.31937 0.0
O261 O 0.84105 0.98882 0.28648 0.0
O262 O 0.80488 0.05975 0.34984 0.0
O263 O 0.82897 0.06602 0.31432 0.0
O264 O 0.28374 0.18849 0.47581 0.0
Cd265 Cd 0.27312 0.16938 0.50894 0.0
Cd266 Cd 0.29482 0.12736 0.477 0.0
O267 O 0.30333 0.15571 0.45154 0.0
O268 O 0.25528 0.19709 0.53318 0.0
O269 O 0.2906 0.18334 0.54512 0.0
C270 C 0.27196 0.19756 0.55142 0.0
C271 C 0.32629 0.11183 0.4992 0.0
C272 C 0.29619 0.17977 0.45484 0.0
C273 C 0.24173 0.11128 0.49108 0.0
O274 O 0.25914 0.10387 0.47489 0.0
O275 O 0.24469 0.13516 0.50627 0.0
O276 O 0.32072 0.10153 0.4743 0.0
O277 O 0.31438 0.1318 0.51131 0.0
O278 O 0.39134 0.52958 0.83021 0.0
Cd279 Cd 0.37041 0.52515 0.79548 0.0
Cd280 Cd 0.33455 0.53761 0.83308 0.0
O281 O 0.36283 0.54066 0.86123 0.0
O282 O 0.39706 0.51714 0.7682 0.0
O283 O 0.37796 0.5548 0.77213 0.0
C284 C 0.39472 0.54016 0.7603 0.0
C285 C 0.31778 0.57701 0.82628 0.0
C286 C 0.38535 0.53605 0.85479 0.0
C287 C 0.32316 0.48245 0.79663 0.0
O288 O 0.31595 0.4982 0.8174 0.0
O289 O 0.34363 0.49008 0.7847 0.0
O290 O 0.30978 0.56405 0.84567 0.0
O291 O 0.33558 0.56755 0.81086 0.0
O292 O 0.71577 0.34141 0.52155 0.0
Cd293 Cd 0.73294 0.37092 0.55241 0.0
Cd294 Cd 0.70592 0.40668 0.52793 0.0
O295 O 0.69705 0.36937 0.50117 0.0
O296 O 0.74896 0.34685 0.57291 0.0
O297 O 0.72241 0.37563 0.59155 0.0
C298 C 0.73718 0.35746 0.59395 0.0
C299 C 0.67456 0.43633 0.53714 0.0
C300 C 0.70287 0.34525 0.50202 0.0
C301 C 0.76343 0.41957 0.53214 0.0
O302 O 0.74256 0.42725 0.52665 0.0
O303 O 0.7636 0.3974 0.54178 0.0
O304 O 0.68558 0.43243 0.51409 0.0
O305 O 0.68094 0.4228 0.55505 0.0
O306 O 0.68103 0.0634 0.81621 0.0
Cd307 Cd 0.65442 0.02915 0.82067 0.0
Cd308 Cd 0.62797 0.04838 0.78338 0.0
O309 O 0.66256 0.07285 0.78094 0.0
O310 O 0.67274 0.00466 0.83838 0.0
O311 O 0.65799 0.99246 0.7966 0.0
C312 C 0.67021 0.98665 0.81624 0.0
C313 C 0.60473 0.031 0.74344 0.0
C314 C 0.68118 0.07739 0.79732 0.0
C315 C 0.60563 0.05009 0.83884 0.0
O316 O 0.60578 0.05885 0.81668 0.0
O317 O 0.62232 0.03546 0.84374 0.0
O318 O 0.60785 0.0572 0.75406 0.0
O319 O 0.61541 0.01433 0.75523 0.0
O320 O 0.97906 0.27412 0.97784 0.0
Cd321 Cd 0.97793 0.23783 0.94959 0.0
Cd322 Cd 0.00917 0.26989 0.92329 0.0
O323 O 0.01212 0.29692 0.96001 0.0
O324 O 0.97023 0.20586 0.96911 0.0
O325 O 0.0068 0.21519 0.94815 0.0
C326 C 0.99289 0.20005 0.96296 0.0
C327 C 0.04623 0.26356 0.89846 0.0
C328 C 0.99607 0.29544 0.97893 0.0
C329 C 0.95585 0.24961 0.90079 0.0
O330 O 0.97639 0.26665 0.9006 0.0
O331 O 0.95287 0.23347 0.91802 0.0
O332 O 0.0367 0.28665 0.90122 0.0
O333 O 0.03492 0.24396 0.91034 0.0
O334 O 0.47501 0.76953 0.46967 0.0
Cd335 Cd 0.47559 0.73323 0.44167 0.0
Cd336 Cd 0.50757 0.76588 0.41707 0.0
O337 O 0.50948 0.79221 0.45411 0.0
O338 O 0.46813 0.70122 0.46121 0.0
O339 O 0.50536 0.71228 0.44205 0.0
C340 C 0.49138 0.69671 0.45642 0.0
C341 C 0.54526 0.75943 0.39352 0.0
C342 C 0.49232 0.79069 0.47197 0.0
C343 C 0.45549 0.74492 0.39199 0.0
O344 O 0.47553 0.76294 0.39341 0.0
O345 O 0.45229 0.72794 0.40845 0.0
O346 O 0.53603 0.78269 0.39611 0.0
O347 O 0.53328 0.73975 0.40485 0.0
O348 O 0.98684 0.79498 0.68409 0.0
Cd349 Cd 0.01742 0.79093 0.65788 0.0
Cd350 Cd 0.99064 0.81934 0.63025 0.0
O351 O 0.96585 0.81975 0.66236 0.0
O352 O 0.04101 0.77543 0.67916 0.0
O353 O 0.05171 0.81525 0.66406 0.0
C354 C 0.05781 0.79663 0.67688 0.0
C355 C 0.00812 0.86098 0.61653 0.0
C356 C 0.9678 0.80763 0.68227 0.0
C357 C 0.99959 0.76289 0.60201 0.0
O358 O 0.98768 0.78345 0.60134 0.0
O359 O 0.01289 0.76223 0.62241 0.0
O360 O 0.98466 0.85011 0.61152 0.0
O361 O 0.02171 0.84843 0.63012 0.0
O362 O 0.47958 0.28497 0.17098 0.0
Cd363 Cd 0.51097 0.28463 0.14545 0.0
Cd364 Cd 0.48645 0.321 0.12446 0.0
O365 O 0.46262 0.31838 0.15703 0.0
O366 O 0.53206 0.26037 0.15988 0.0
O367 O 0.54515 0.30527 0.15957 0.0
C368 C 0.5496 0.28171 0.16515 0.0
C369 C 0.50582 0.36408 0.11519 0.0
C370 C 0.46256 0.30108 0.173 0.0
C371 C 0.49326 0.26864 0.08746 0.0
O372 O 0.48077 0.28922 0.09144 0.0
O373 O 0.50737 0.26448 0.10587 0.0
O374 O 0.48179 0.35555 0.11104 0.0
O375 O 0.51888 0.34848 0.12584 0.0
C376 C 0.23863 0.78165 0.84717 0.0
C377 C 0.22423 0.75725 0.83354 0.0
C378 C 0.23635 0.78977 0.87501 0.0
C379 C 0.21897 0.77308 0.88939 0.0
C380 C 0.20592 0.74715 0.87592 0.0
C381 C 0.2087 0.73953 0.84795 0.0
C382 C 0.25093 0.81739 0.88857 0.0
C383 C 0.18748 0.72863 0.89052 0.0
C384 C 0.22505 0.79935 0.96434 0.0
C385 C 0.20842 0.81961 0.96791 0.0
C386 C 0.22716 0.78199 0.93927 0.0
C387 C 0.21225 0.78496 0.9174 0.0
C388 C 0.19354 0.80322 0.92166 0.0
C389 C 0.19184 0.82033 0.94689 0.0
C390 C 0.24697 0.76239 0.93566 0.0
C391 C 0.17692 0.80664 0.89893 0.0
H392 H 0.25043 0.79522 0.83563 0.0
H393 H 0.19743 0.7208 0.83705 0.0
H394 H 0.23745 0.83273 0.89471 0.0
H395 H 0.26056 0.81478 0.90703 0.0
H396 H 0.26552 0.82629 0.87513 0.0
H397 H 0.18348 0.7069 0.87893 0.0
H398 H 0.19492 0.7279 0.91069 0.0
H399 H 0.16919 0.7373 0.89348 0.0
H400 H 0.23775 0.79832 0.98054 0.0
H401 H 0.17865 0.83557 0.94954 0.0
H402 H 0.264 0.77201 0.92569 0.0
H403 H 0.23964 0.74216 0.9226 0.0
H404 H 0.25307 0.75817 0.95524 0.0
H405 H 0.18874 0.81778 0.88465 0.0
H406 H 0.16123 0.81883 0.90624 0.0
H407 H 0.1685 0.78588 0.88761 0.0
C408 C 0.9818 0.55105 0.4305 0.0
C409 C 0.98408 0.5593 0.45843 0.0
C410 C 0.00338 0.55105 0.41401 0.0
C411 C 0.02783 0.56062 0.42569 0.0
C412 C 0.03016 0.57053 0.45379 0.0
C413 C 0.00821 0.56928 0.46995 0.0
C414 C 2e-05 0.53986 0.38423 0.0
C415 C 0.05581 0.58179 0.46683 0.0
C416 C 0.08258 0.53174 0.38574 0.0
C417 C 0.09007 0.55242 0.37018 0.0
C418 C 0.06278 0.53451 0.40453 0.0
C419 C 0.05082 0.55899 0.40839 0.0
C420 C 0.05932 0.58063 0.39377 0.0
C421 C 0.07855 0.57686 0.37445 0.0
C422 C 0.05379 0.51063 0.41919 0.0
C423 C 0.04761 0.60741 0.39798 0.0
H424 H 0.96303 0.54387 0.42168 0.0
H425 H 0.00996 0.57546 0.49159 0.0
H426 H 0.00803 0.55617 0.37253 0.0
H427 H 0.01063 0.52176 0.37833 0.0
H428 H 0.97967 0.53295 0.37845 0.0
H429 H 0.05401 0.59189 0.48819 0.0
H430 H 0.06727 0.56444 0.46607 0.0
H431 H 0.06653 0.59733 0.45572 0.0
H432 H 0.09145 0.5128 0.38236 0.0
H433 H 0.08459 0.59305 0.36265 0.0
H434 H 0.03379 0.50178 0.41331 0.0
H435 H 0.05398 0.51832 0.44123 0.0
H436 H 0.06577 0.49355 0.41472 0.0
H437 H 0.02781 0.60298 0.39004 0.0
H438 H 0.05857 0.62356 0.3877 0.0
H439 H 0.04661 0.61614 0.41977 0.0
C440 C 0.79078 0.75909 0.83214 0.0
C441 C 0.80829 0.78358 0.83328 0.0
C442 C 0.79224 0.74089 0.85032 0.0
C443 C 0.81181 0.74734 0.87006 0.0
C444 C 0.83077 0.77094 0.86983 0.0
C445 C 0.82874 0.78888 0.8514 0.0
C446 C 0.77167 0.71596 0.84968 0.0
C447 C 0.85212 0.77839 0.89027 0.0
C448 C 0.793 0.72347 0.93614 0.0
C449 C 0.80363 0.69851 0.93367 0.0
C450 C 0.79618 0.7399 0.91591 0.0
C451 C 0.81049 0.73133 0.89262 0.0
C452 C 0.82197 0.70667 0.89036 0.0
C453 C 0.81834 0.6905 0.91085 0.0
C454 C 0.78353 0.76602 0.9191 0.0
C455 C 0.83753 0.69697 0.86597 0.0
H456 H 0.77503 0.75519 0.818 0.0
H457 H 0.8421 0.80801 0.85232 0.0
H458 H 0.78021 0.69675 0.85044 0.0
H459 H 0.75931 0.71961 0.86764 0.0
H460 H 0.75949 0.71218 0.8314 0.0
H461 H 0.86734 0.79455 0.88484 0.0
H462 H 0.84438 0.78669 0.91022 0.0
H463 H 0.8607 0.75953 0.89231 0.0
H464 H 0.78166 0.72993 0.95366 0.0
H465 H 0.82677 0.67135 0.90877 0.0
H466 H 0.76913 0.76368 0.90293 0.0
H467 H 0.79787 0.78442 0.91707 0.0
H468 H 0.77391 0.77041 0.93886 0.0
H469 H 0.82498 0.69088 0.84796 0.0
H470 H 0.84701 0.67874 0.86829 0.0
H471 H 0.85232 0.7143 0.86214 0.0
C472 C 0.99325 0.05214 0.46659 0.0
C473 C 0.99942 0.0254 0.46701 0.0
C474 C 0.97312 0.05569 0.45055 0.0
C475 C 0.95886 0.03185 0.43476 0.0
C476 C 0.9646 0.00471 0.4358 0.0
C477 C 0.98495 0.00185 0.45184 0.0
C478 C 0.96767 0.08495 0.44984 0.0
C479 C 0.94982 0.97878 0.41929 0.0
C480 C 0.89499 0.03598 0.40407 0.0
C481 C 0.90189 0.03707 0.37728 0.0
C482 C 0.91343 0.03495 0.42329 0.0
C483 C 0.93931 0.03527 0.4155 0.0
C484 C 0.94648 0.03745 0.38874 0.0
C485 C 0.92769 0.03821 0.36996 0.0
C486 C 0.90513 0.03254 0.45164 0.0
C487 C 0.97393 0.03814 0.37973 0.0
H488 H 0.00447 0.07023 0.47857 0.0
H489 H 0.99005 0.98126 0.45204 0.0
H490 H 0.97173 0.08987 0.42944 0.0
H491 H 0.94721 0.08637 0.45398 0.0
H492 H 0.97937 0.10106 0.46468 0.0
H493 H 0.95541 0.95918 0.42398 0.0
H494 H 0.92905 0.97849 0.42289 0.0
H495 H 0.95316 0.97899 0.39757 0.0
H496 H 0.87509 0.03506 0.40985 0.0
H497 H 0.93323 0.03933 0.34936 0.0
H498 H 0.91657 0.04905 0.4663 0.0
H499 H 0.90858 0.01198 0.45599 0.0
H500 H 0.88459 0.03437 0.45492 0.0
H501 H 0.98634 0.05508 0.393 0.0
H502 H 0.97651 0.04155 0.35863 0.0
H503 H 0.98058 0.01804 0.3813 0.0
C504 C 0.23346 0.27966 0.69432 0.0
C505 C 0.23251 0.26216 0.71348 0.0
C506 C 0.24409 0.27209 0.66882 0.0
C507 C 0.25286 0.24575 0.6619 0.0
C508 C 0.25289 0.22852 0.68158 0.0
C509 C 0.24323 0.23727 0.70732 0.0
C510 C 0.24452 0.29157 0.64879 0.0
C511 C 0.26132 0.19992 0.67491 0.0
C512 C 0.24279 0.20988 0.58921 0.0
C513 C 0.26778 0.21123 0.57935 0.0
C514 C 0.23783 0.22081 0.61606 0.0
C515 C 0.25832 0.23448 0.63329 0.0
C516 C 0.28361 0.23671 0.62323 0.0
C517 C 0.28812 0.22444 0.59643 0.0
C518 C 0.21067 0.21711 0.62612 0.0
C519 C 0.30577 0.25213 0.6407 0.0
H520 H 0.22481 0.29863 0.69876 0.0
H521 H 0.24304 0.22408 0.72237 0.0
H522 H 0.2628 0.29256 0.63758 0.0
H523 H 0.2289 0.28355 0.63392 0.0
H524 H 0.2419 0.31313 0.65873 0.0
H525 H 0.26217 0.19016 0.69301 0.0
H526 H 0.2477 0.18591 0.66032 0.0
H527 H 0.28035 0.20127 0.66526 0.0
H528 H 0.22707 0.19932 0.57608 0.0
H529 H 0.30744 0.22553 0.58873 0.0
H530 H 0.2044 0.23788 0.63289 0.0
H531 H 0.20948 0.20631 0.64371 0.0
H532 H 0.19714 0.20475 0.61043 0.0
H533 H 0.30205 0.27369 0.64927 0.0
H534 H 0.324 0.25349 0.62939 0.0
H535 H 0.30797 0.2414 0.65786 0.0
C536 C 0.51027 0.59228 0.67114 0.0
C537 C 0.50457 0.58588 0.64369 0.0
C538 C 0.49114 0.58808 0.69023 0.0
C539 C 0.46587 0.57714 0.6814 0.0
C540 C 0.45991 0.57195 0.65361 0.0
C541 C 0.47944 0.57634 0.63504 0.0
C542 C 0.49824 0.59389 0.71968 0.0
C543 C 0.43325 0.56025 0.64341 0.0
C544 C 0.42755 0.5314 0.72509 0.0
C545 C 0.41157 0.54954 0.73901 0.0
C546 C 0.44501 0.54011 0.70606 0.0
C547 C 0.4466 0.56771 0.70082 0.0
C548 C 0.4302 0.58602 0.71437 0.0
C549 C 0.41277 0.57667 0.73334 0.0
C550 C 0.46205 0.51987 0.69188 0.0
C551 C 0.43144 0.61558 0.70921 0.0
H552 H 0.52986 0.59973 0.67749 0.0
H553 H 0.47536 0.57143 0.61364 0.0
H554 H 0.48473 0.60648 0.73162 0.0
H555 H 0.49692 0.57378 0.72714 0.0
H556 H 0.51793 0.60523 0.72337 0.0
H557 H 0.43117 0.5606 0.62165 0.0
H558 H 0.42858 0.53823 0.64651 0.0
H559 H 0.41909 0.57231 0.65482 0.0
H560 H 0.42665 0.51034 0.72925 0.0
H561 H 0.40049 0.59079 0.7441 0.0
H562 H 0.48235 0.52844 0.69651 0.0
H563 H 0.45959 0.51713 0.66977 0.0
H564 H 0.45799 0.49894 0.69787 0.0
H565 H 0.4505 0.62757 0.71513 0.0
H566 H 0.41664 0.62678 0.72053 0.0
H567 H 0.42898 0.61534 0.68742 0.0
C568 C 0.75862 0.3057 0.73245 0.0
C569 C 0.78408 0.30106 0.7328 0.0
C570 C 0.74949 0.31773 0.71207 0.0
C571 C 0.76652 0.32618 0.69211 0.0
C572 C 0.79274 0.32368 0.69374 0.0
C573 C 0.80113 0.31072 0.71384 0.0
C574 C 0.72133 0.31944 0.7108 0.0
C575 C 0.81167 0.33317 0.67331 0.0
C576 C 0.74367 0.32141 0.62075 0.0
C577 C 0.74151 0.34937 0.61995 0.0
C578 C 0.75064 0.31348 0.64452 0.0
C579 C 0.75653 0.33425 0.6678 0.0
C580 C 0.75391 0.36252 0.66724 0.0
C581 C 0.746 0.3697 0.64332 0.0
C582 C 0.75236 0.28296 0.64449 0.0
C583 C 0.76072 0.38533 0.69139 0.0
H584 H 0.74558 0.29862 0.74746 0.0
H585 H 0.82077 0.30693 0.71399 0.0
H586 H 0.71817 0.34052 0.70771 0.0
H587 H 0.71268 0.30404 0.69337 0.0
H588 H 0.71119 0.31485 0.72934 0.0
H589 H 0.8317 0.33375 0.67971 0.0
H590 H 0.80842 0.31856 0.6538 0.0
H591 H 0.80906 0.35434 0.66991 0.0
H592 H 0.74011 0.30573 0.60261 0.0
H593 H 0.74465 0.3914 0.64251 0.0
H594 H 0.74152 0.27589 0.66167 0.0
H595 H 0.77255 0.28023 0.64695 0.0
H596 H 0.74486 0.26918 0.62556 0.0
H597 H 0.75077 0.37961 0.70958 0.0
H598 H 0.7558 0.40584 0.68838 0.0
H599 H 0.78152 0.38776 0.69537 0.0
C600 C 0.51552 0.98723 0.61129 0.0
C601 C 0.49052 0.98733 0.6208 0.0
C602 C 0.53597 0.98976 0.62923 0.0
C603 C 0.53112 0.99267 0.65723 0.0
C604 C 0.50561 0.99075 0.66658 0.0
C605 C 0.48562 0.98804 0.64818 0.0
C606 C 0.56281 0.99133 0.6184 0.0
C607 C 0.49951 0.99366 0.6962 0.0
C608 C 0.5814 0.99185 0.70969 0.0
C609 C 0.58822 0.02065 0.71936 0.0
C610 C 0.56362 0.98224 0.68856 0.0
C611 C 0.55243 0.00192 0.67701 0.0
C612 C 0.56011 0.03098 0.68596 0.0
C613 C 0.5779 0.03995 0.70694 0.0
C614 C 0.55607 0.95111 0.67935 0.0
C615 C 0.54871 0.0527 0.67418 0.0
H616 H 0.51914 0.98668 0.59002 0.0
H617 H 0.46613 0.98771 0.65526 0.0
H618 H 0.57232 0.0134 0.62273 0.0
H619 H 0.57415 0.97872 0.62837 0.0
H620 H 0.56311 0.98383 0.59631 0.0
H621 H 0.47874 0.98853 0.69987 0.0
H622 H 0.50983 0.97976 0.70568 0.0
H623 H 0.50595 0.01555 0.70635 0.0
H624 H 0.58934 0.97681 0.71912 0.0
H625 H 0.58319 0.06224 0.71411 0.0
H626 H 0.55645 0.94569 0.65707 0.0
H627 H 0.53623 0.94484 0.6858 0.0
H628 H 0.56879 0.93868 0.6878 0.0
H629 H 0.55083 0.04894 0.65199 0.0
H630 H 0.55775 0.07443 0.68237 0.0
H631 H 0.52797 0.05102 0.67861 0.0
C632 C 0.83663 0.279 0.82261 0.0
C633 C 0.83351 0.26293 0.79677 0.0
C634 C 0.85611 0.27567 0.83963 0.0
C635 C 0.87267 0.25567 0.83048 0.0
C636 C 0.86913 0.23898 0.80448 0.0
C637 C 0.84954 0.24287 0.78793 0.0
C638 C 0.85919 0.29379 0.86722 0.0
C639 C 0.8863 0.21742 0.794 0.0
C640 C 0.93817 0.26803 0.8631 0.0
C641 C 0.93495 0.24978 0.88175 0.0
C642 C 0.91816 0.26986 0.84609 0.0
C643 C 0.89428 0.25301 0.8477 0.0
C644 C 0.891 0.23412 0.86606 0.0
C645 C 0.91137 0.23272 0.88288 0.0
C646 C 0.92244 0.29019 0.8267 0.0
C647 C 0.86583 0.21574 0.86825 0.0
H648 H 0.82384 0.29421 0.82933 0.0
H649 H 0.84689 0.23056 0.76784 0.0
H650 H 0.85836 0.28043 0.88284 0.0
H651 H 0.87817 0.307 0.86889 0.0
H652 H 0.84425 0.30771 0.87156 0.0
H653 H 0.88024 0.20529 0.77383 0.0
H654 H 0.90617 0.22794 0.79259 0.0
H655 H 0.88646 0.20257 0.80814 0.0
H656 H 0.9563 0.28128 0.862 0.0
H657 H 0.90867 0.21855 0.8972 0.0
H658 H 0.90923 0.30602 0.83141 0.0
H659 H 0.91819 0.27892 0.80584 0.0
H660 H 0.94232 0.3013 0.82746 0.0
H661 H 0.85073 0.22901 0.87468 0.0
H662 H 0.86664 0.20146 0.88287 0.0
H663 H 0.86008 0.20293 0.84832 0.0
C664 C 0.48063 0.94252 0.54234 0.0
C665 C 0.4733 0.94688 0.56936 0.0
C666 C 0.48631 0.91638 0.5294 0.0
C667 C 0.48586 0.89444 0.54428 0.0
C668 C 0.48096 0.89964 0.5723 0.0
C669 C 0.47429 0.92576 0.58447 0.0
C670 C 0.49102 0.91175 0.49943 0.0
C671 C 0.4815 0.87725 0.58912 0.0
C672 C 0.46713 0.82225 0.5024 0.0
C673 C 0.49096 0.81496 0.49376 0.0
C674 C 0.46523 0.84759 0.51987 0.0
C675 C 0.48776 0.86557 0.52969 0.0
C676 C 0.51188 0.85721 0.52268 0.0
C677 C 0.51322 0.83225 0.50428 0.0
C678 C 0.43913 0.856 0.52627 0.0
C679 C 0.53628 0.87517 0.53368 0.0
H680 H 0.4806 0.95927 0.53099 0.0
H681 H 0.46881 0.92929 0.60547 0.0
H682 H 0.50944 0.90376 0.49476 0.0
H683 H 0.47578 0.89566 0.48903 0.0
H684 H 0.49132 0.93124 0.49102 0.0
H685 H 0.48268 0.88622 0.61096 0.0
H686 H 0.46384 0.86185 0.58546 0.0
H687 H 0.49794 0.86571 0.58353 0.0
H688 H 0.4499 0.80896 0.49416 0.0
H689 H 0.53168 0.82646 0.49781 0.0
H690 H 0.43732 0.87503 0.51783 0.0
H691 H 0.43655 0.86131 0.54834 0.0
H692 H 0.42351 0.83917 0.51789 0.0
H693 H 0.54034 0.89348 0.52339 0.0
H694 H 0.55282 0.86337 0.53061 0.0
H695 H 0.53442 0.88334 0.5555 0.0
C696 C 0.1464 0.25113 0.78021 0.0
C697 C 0.17161 0.25522 0.78935 0.0
C698 C 0.12597 0.24787 0.79805 0.0
C699 C 0.13105 0.24933 0.82573 0.0
C700 C 0.15655 0.25173 0.83467 0.0
C701 C 0.17656 0.25461 0.81628 0.0
C702 C 0.09906 0.24508 0.78765 0.0
C703 C 0.16282 0.25359 0.86399 0.0
C704 C 0.08342 0.28296 0.87318 0.0
C705 C 0.06892 0.25968 0.88137 0.0
C706 C 0.10402 0.27981 0.85559 0.0
C707 C 0.11013 0.25264 0.84564 0.0
C708 C 0.09589 0.22904 0.8542 0.0
C709 C 0.07549 0.23286 0.87214 0.0
C710 C 0.11896 0.30559 0.84725 0.0
C711 C 0.10179 0.19978 0.84385 0.0
H712 H 0.14276 0.25215 0.75942 0.0
H713 H 0.19619 0.25801 0.82316 0.0
H714 H 0.08647 0.22844 0.79583 0.0
H715 H 0.09137 0.26508 0.79445 0.0
H716 H 0.09818 0.24012 0.76532 0.0
H717 H 0.18307 0.25134 0.86701 0.0
H718 H 0.15927 0.27425 0.8754 0.0
H719 H 0.15038 0.23719 0.87264 0.0
H720 H 0.07856 0.30376 0.88039 0.0
H721 H 0.06426 0.21478 0.87834 0.0
H722 H 0.11698 0.30439 0.82525 0.0
H723 H 0.13956 0.30665 0.8516 0.0
H724 H 0.11245 0.32528 0.85774 0.0
H725 H 0.09854 0.19441 0.82178 0.0
H726 H 0.08979 0.1838 0.85351 0.0
H727 H 0.12217 0.19865 0.84743 0.0
C728 C 0.55774 0.63238 0.56093 0.0
C729 C 0.54861 0.60419 0.56115 0.0
C730 C 0.55266 0.64484 0.53914 0.0
C731 C 0.53859 0.62837 0.51687 0.0
C732 C 0.53268 0.59898 0.51544 0.0
C733 C 0.53754 0.58722 0.53785 0.0
C734 C 0.55944 0.67621 0.5416 0.0
C735 C 0.51863 0.5805 0.49161 0.0
C736 C 0.48956 0.66619 0.49096 0.0
C737 C 0.50226 0.6761 0.46921 0.0
C738 C 0.50092 0.64985 0.50598 0.0
C739 C 0.52542 0.6426 0.49871 0.0
C740 C 0.53769 0.65104 0.47572 0.0
C741 C 0.52611 0.66808 0.46143 0.0
C742 C 0.48726 0.64176 0.53062 0.0
C743 C 0.56343 0.64308 0.46681 0.0
H744 H 0.56647 0.64526 0.57905 0.0
H745 H 0.5305 0.56537 0.53814 0.0
H746 H 0.56741 0.68172 0.52247 0.0
H747 H 0.54191 0.68616 0.54601 0.0
H748 H 0.57348 0.68521 0.558 0.0
H749 H 0.52073 0.5581 0.49068 0.0
H750 H 0.49801 0.58242 0.49331 0.0
H751 H 0.52564 0.58703 0.47253 0.0
H752 H 0.47117 0.67236 0.49716 0.0
H753 H 0.53597 0.67554 0.44451 0.0
H754 H 0.49845 0.65216 0.54891 0.0
H755 H 0.48556 0.61879 0.52981 0.0
H756 H 0.46783 0.64789 0.53274 0.0
H757 H 0.57851 0.65689 0.47976 0.0
H758 H 0.56751 0.64545 0.44562 0.0
H759 H 0.56464 0.62113 0.46882 0.0
C760 C 0.84321 0.78635 0.77301 0.0
C761 C 0.84201 0.81047 0.79229 0.0
C762 C 0.86525 0.78333 0.75734 0.0
C763 C 0.88645 0.80499 0.76127 0.0
C764 C 0.88595 0.82823 0.78243 0.0
C765 C 0.86363 0.83072 0.79759 0.0
C766 C 0.86498 0.75818 0.73509 0.0
C767 C 0.90812 0.85166 0.78755 0.0
C768 C 0.94927 0.79436 0.72526 0.0
C769 C 0.94732 0.80735 0.7029 0.0
C770 C 0.92962 0.79328 0.74442 0.0
C771 C 0.90746 0.80538 0.74113 0.0
C772 C 0.90541 0.81854 0.71866 0.0
C773 C 0.92534 0.8194 0.6999 0.0
C774 C 0.93256 0.77924 0.76818 0.0
C775 C 0.88209 0.83172 0.71439 0.0
H776 H 0.82623 0.77098 0.76882 0.0
H777 H 0.86237 0.84944 0.81245 0.0
H778 H 0.86305 0.76472 0.71541 0.0
H779 H 0.88315 0.74938 0.73476 0.0
H780 H 0.84889 0.74144 0.73721 0.0
H781 H 0.90625 0.86594 0.80704 0.0
H782 H 0.9264 0.84312 0.78753 0.0
H783 H 0.90907 0.86414 0.7712 0.0
H784 H 0.96614 0.78495 0.72779 0.0
H785 H 0.92356 0.82941 0.68272 0.0
H786 H 0.91665 0.76185 0.76847 0.0
H787 H 0.93154 0.79445 0.78719 0.0
H788 H 0.95091 0.77071 0.76779 0.0
H789 H 0.86476 0.81582 0.71324 0.0
H790 H 0.8833 0.84079 0.69571 0.0
H791 H 0.87965 0.8486 0.73172 0.0
C792 C 0.05341 0.99974 0.55486 0.0
C793 C 0.05411 0.99014 0.52711 0.0
C794 C 0.05163 0.98078 0.57287 0.0
C795 C 0.05033 0.95169 0.56261 0.0
C796 C 0.05393 0.94248 0.53474 0.0
C797 C 0.05561 0.96187 0.5173 0.0
C798 C 0.04824 0.99158 0.60244 0.0
C799 C 0.05288 0.91176 0.52287 0.0
C800 C 0.04555 0.89539 0.60631 0.0
C801 C 0.01914 0.88624 0.60563 0.0
C802 C 0.0561 0.91758 0.59339 0.0
C803 C 0.03985 0.93076 0.5795 0.0
C804 C 0.01311 0.92237 0.57983 0.0
C805 C 0.00313 0.90028 0.59287 0.0
C806 C 0.08465 0.92607 0.59367 0.0
C807 C 0.99499 0.93596 0.56544 0.0
H808 H 0.05186 0.02163 0.56222 0.0
H809 H 0.05575 0.95465 0.49572 0.0
H810 H 0.02766 0.98815 0.6075 0.0
H811 H 0.0584 0.98015 0.6149 0.0
H812 H 0.05527 0.01438 0.60785 0.0
H813 H 0.06026 0.90855 0.50195 0.0
H814 H 0.06407 0.90128 0.53528 0.0
H815 H 0.03279 0.90136 0.52256 0.0
H816 H 0.05805 0.88467 0.61619 0.0
H817 H 0.9827 0.89355 0.59245 0.0
H818 H 0.08955 0.94924 0.59823 0.0
H819 H 0.09243 0.91879 0.57347 0.0
H820 H 0.09421 0.91693 0.60863 0.0
H821 H 0.99789 0.95898 0.57261 0.0
H822 H 0.97467 0.92775 0.56857 0.0
H823 H 0.99891 0.93222 0.54352 0.0
C824 C 0.19304 0.79472 0.74392 0.0
C825 C 0.19303 0.76634 0.74501 0.0
C826 C 0.17388 0.80324 0.72992 0.0
C827 C 0.15487 0.78272 0.71598 0.0
C828 C 0.15656 0.75389 0.71455 0.0
C829 C 0.17541 0.74605 0.72947 0.0
C830 C 0.17264 0.83417 0.73227 0.0
C831 C 0.13713 0.73131 0.6992 0.0
C832 C 0.08602 0.79433 0.71439 0.0
C833 C 0.08346 0.79843 0.68799 0.0
C834 C 0.1097 0.79117 0.72425 0.0
C835 C 0.13108 0.791 0.70687 0.0
C836 C 0.12878 0.79622 0.68042 0.0
C837 C 0.10492 0.80027 0.67137 0.0
C838 C 0.1115 0.78657 0.75288 0.0
C839 C 0.15093 0.79554 0.66113 0.0
H840 H 0.20701 0.81032 0.75564 0.0
H841 H 0.17525 0.72413 0.73046 0.0
H842 H 0.16776 0.83922 0.71266 0.0
H843 H 0.15739 0.84006 0.7467 0.0
H844 H 0.19094 0.84717 0.73963 0.0
H845 H 0.14358 0.71037 0.6962 0.0
H846 H 0.11892 0.73016 0.71052 0.0
H847 H 0.1332 0.73625 0.67925 0.0
H848 H 0.06929 0.7929 0.72712 0.0
H849 H 0.1027 0.80303 0.65078 0.0
H850 H 0.12813 0.80042 0.76329 0.0
H851 H 0.11436 0.76457 0.75285 0.0
H852 H 0.09401 0.79064 0.7646 0.0
H853 H 0.16864 0.80757 0.67101 0.0
H854 H 0.1472 0.80413 0.64294 0.0
H855 H 0.15441 0.77352 0.65467 0.0
C856 C 0.97435 0.62302 0.48863 0.0
C857 C 0.96765 0.60264 0.50467 0.0
C858 C 0.98375 0.65081 0.50046 0.0
C859 C 0.98552 0.6582 0.52889 0.0
C860 C 0.98015 0.63713 0.54487 0.0
C861 C 0.9718 0.60954 0.53244 0.0
C862 C 0.99045 0.67239 0.48266 0.0
C863 C 0.98142 0.64396 0.57524 0.0
C864 C 0.01794 0.72464 0.57185 0.0
C865 C 0.99705 0.73878 0.57965 0.0
C866 C 0.01504 0.69964 0.55288 0.0
C867 C 0.99045 0.68798 0.54254 0.0
C868 C 0.96958 0.70303 0.54929 0.0
C869 C 0.97327 0.72857 0.56746 0.0
C870 C 0.03795 0.68491 0.54517 0.0
C871 C 0.94295 0.69106 0.53915 0.0
H872 H 0.97122 0.61748 0.46709 0.0
H873 H 0.96699 0.59341 0.54457 0.0
H874 H 0.97428 0.68435 0.48219 0.0
H875 H 0.00742 0.68754 0.4905 0.0
H876 H 0.9943 0.66241 0.46169 0.0
H877 H 0.97688 0.62497 0.58458 0.0
H878 H 0.00072 0.65456 0.58199 0.0
H879 H 0.96768 0.65861 0.58289 0.0
H880 H 0.03646 0.73286 0.58098 0.0
H881 H 0.95714 0.73958 0.57352 0.0
H882 H 0.03768 0.67615 0.52331 0.0
H883 H 0.03752 0.66717 0.55612 0.0
H884 H 0.05613 0.69924 0.55022 0.0
H885 H 0.94291 0.68474 0.51695 0.0
H886 H 0.9292 0.70623 0.54475 0.0
H887 H 0.93618 0.67197 0.54771 0.0
C888 C 0.76543 0.81831 0.26479 0.0
C889 C 0.74111 0.81384 0.25336 0.0
C890 C 0.77982 0.84515 0.26911 0.0
C891 C 0.76945 0.86778 0.26167 0.0
C892 C 0.74554 0.86278 0.24838 0.0
C893 C 0.7315 0.83584 0.2447 0.0
C894 C 0.80516 0.84966 0.28347 0.0
C895 C 0.73396 0.88621 0.23982 0.0
C896 C 0.78806 0.93975 0.30432 0.0
C897 C 0.80677 0.95216 0.28841 0.0
C898 C 0.77577 0.9123 0.29577 0.0
C899 C 0.78213 0.89701 0.27054 0.0
C900 C 0.80057 0.90961 0.25409 0.0
C901 C 0.81277 0.93699 0.26328 0.0
C902 C 0.75624 0.89948 0.31393 0.0
C903 C 0.80752 0.89407 0.22692 0.0
H904 H 0.77238 0.80118 0.27191 0.0
H905 H 0.71235 0.83217 0.23641 0.0
H906 H 0.81993 0.86204 0.27283 0.0
H907 H 0.80337 0.86182 0.30404 0.0
H908 H 0.81177 0.82953 0.28516 0.0
H909 H 0.71717 0.87816 0.2264 0.0
H910 H 0.72772 0.90008 0.25788 0.0
H911 H 0.74826 0.89922 0.22924 0.0
H912 H 0.78338 0.95126 0.32378 0.0
H913 H 0.82712 0.94648 0.25077 0.0
H914 H 0.76223 0.88024 0.31896 0.0
H915 H 0.73758 0.89318 0.3034 0.0
H916 H 0.75354 0.91414 0.33295 0.0
H917 H 0.81556 0.87499 0.22935 0.0
H918 H 0.82167 0.90716 0.2162 0.0
H919 H 0.79018 0.88706 0.21417 0.0
C920 C 0.75159 0.21257 0.3179 0.0
C921 C 0.72755 0.20499 0.30565 0.0
C922 C 0.76569 0.19209 0.3234 0.0
C923 C 0.75551 0.16336 0.31621 0.0
C924 C 0.73093 0.15567 0.30435 0.0
C925 C 0.71713 0.17665 0.29948 0.0
C926 C 0.79163 0.20116 0.33646 0.0
C927 C 0.71939 0.1253 0.29638 0.0
C928 C 0.8009 0.10902 0.30398 0.0
C929 C 0.7979 0.09755 0.32754 0.0
C930 C 0.78739 0.13064 0.30015 0.0
C931 C 0.77073 0.14127 0.32051 0.0
C932 C 0.76809 0.13024 0.3446 0.0
C933 C 0.78158 0.10839 0.34776 0.0
C934 C 0.79054 0.14171 0.27408 0.0
C935 C 0.75078 0.1413 0.36691 0.0
H936 H 0.75954 0.23456 0.32262 0.0
H937 H 0.69824 0.17094 0.29064 0.0
H938 H 0.79262 0.19177 0.35474 0.0
H939 H 0.80653 0.19349 0.32244 0.0
H940 H 0.79615 0.22433 0.34218 0.0
H941 H 0.7 0.12288 0.28754 0.0
H942 H 0.73181 0.11419 0.28144 0.0
H943 H 0.71815 0.11482 0.31416 0.0
H944 H 0.81342 0.1007 0.28825 0.0
H945 H 0.77927 0.09975 0.36609 0.0
H946 H 0.79692 0.16467 0.27823 0.0
H947 H 0.7719 0.13815 0.26349 0.0
H948 H 0.80455 0.13153 0.26045 0.0
H949 H 0.75598 0.16433 0.37303 0.0
H950 H 0.75176 0.13138 0.38489 0.0
H951 H 0.73075 0.13739 0.35965 0.0
C952 C 0.38329 0.03713 0.99809 0.0
C953 C 0.3887 0.03706 0.97084 0.0
C954 C 0.36237 0.01955 0.00599 0.0
C955 C 0.34696 0.0009 0.98609 0.0
C956 C 0.35262 0.00038 0.95848 0.0
C957 C 0.37338 0.01873 0.95117 0.0
C958 C 0.35678 0.02093 0.03561 0.0
C959 C 0.33686 0.98036 0.93674 0.0
C960 C 0.30853 0.93767 0.0084 0.0
C961 C 0.28405 0.94553 0.01093 0.0
C962 C 0.32911 0.95532 0.99986 0.0
C963 C 0.32517 0.98167 0.99429 0.0
C964 C 0.30059 0.98991 0.99719 0.0
C965 C 0.28022 0.97157 0.00522 0.0
C966 C 0.35501 0.94568 0.99656 0.0
C967 C 0.29586 0.01815 0.99199 0.0
H968 H 0.39562 0.05088 0.01322 0.0
H969 H 0.37772 0.01883 0.93013 0.0
H970 H 0.33694 0.02515 0.03991 0.0
H971 H 0.35837 0.00047 0.04141 0.0
H972 H 0.37002 0.03749 0.04844 0.0
H973 H 0.34408 0.9823 0.91626 0.0
H974 H 0.33691 0.95845 0.93964 0.0
H975 H 0.31674 0.98434 0.93808 0.0
H976 H 0.31151 0.91741 0.01252 0.0
H977 H 0.26132 0.97773 0.00724 0.0
H978 H 0.36901 0.96027 0.01026 0.0
H979 H 0.36195 0.94595 0.97571 0.0
H980 H 0.35467 0.9242 0.0009 0.0
H981 H 0.3082 0.0351 0.00535 0.0
H982 H 0.27564 0.02145 0.99542 0.0
H983 H 0.30096 0.02017 0.97096 0.0
C984 C 0.27679 0.38392 0.30661 0.0
C985 C 0.26676 0.35552 0.30411 0.0
C986 C 0.26073 0.40439 0.30721 0.0
C987 C 0.23394 0.39628 0.30592 0.0
C988 C 0.22371 0.36753 0.30311 0.0
C989 C 0.24031 0.34745 0.30198 0.0
C990 C 0.27243 0.43478 0.30991 0.0
C991 C 0.19527 0.35809 0.30209 0.0
C992 C 0.19618 0.45345 0.33854 0.0
C993 C 0.18835 0.46338 0.31618 0.0
C994 C 0.21006 0.4308 0.33537 0.0
C995 C 0.21675 0.41813 0.30921 0.0
C996 C 0.20832 0.42757 0.28649 0.0
C997 C 0.19396 0.44995 0.29025 0.0
C998 C 0.21823 0.42098 0.36009 0.0
C999 C 0.21539 0.41485 0.25832 0.0
H1000 H 0.29723 0.39013 0.30864 0.0
H1001 H 0.23266 0.32541 0.2998 0.0
H1002 H 0.26491 0.44435 0.29399 0.0
H1003 H 0.26715 0.44663 0.3296 0.0
H1004 H 0.29358 0.43733 0.30849 0.0
H1005 H 0.19043 0.33488 0.29876 0.0
H1006 H 0.18652 0.36702 0.32128 0.0
H1007 H 0.18651 0.36598 0.28577 0.0
H1008 H 0.19168 0.46361 0.35862 0.0
H1009 H 0.18804 0.45767 0.27292 0.0
H1010 H 0.23931 0.42541 0.36214 0.0
H1011 H 0.21271 0.39797 0.35814 0.0
H1012 H 0.20966 0.43145 0.37879 0.0
H1013 H 0.23637 0.41923 0.25576 0.0
H1014 H 0.20598 0.4233 0.24276 0.0
H1015 H 0.21008 0.39174 0.25483 0.0
C1016 C 0.09708 0.06279 0.50565 0.0
C1017 C 0.08789 0.03407 0.50084 0.0
C1018 C 0.12323 0.07247 0.50481 0.0
C1019 C 0.14075 0.05288 0.50015 0.0
C1020 C 0.13168 0.02381 0.49724 0.0
C1021 C 0.10522 0.0147 0.49717 0.0
C1022 C 0.13194 0.10364 0.50763 0.0
C1023 C 0.14979 0.00234 0.49328 0.0
C1024 C 0.20325 0.08058 0.46958 0.0
C1025 C 0.21768 0.0924 0.49273 0.0
C1026 C 0.17843 0.06639 0.47157 0.0
C1027 C 0.16834 0.0632 0.49726 0.0
C1028 C 0.18375 0.07324 0.52047 0.0
C1029 C 0.20806 0.08829 0.51797 0.0
C1030 C 0.16238 0.05663 0.4464 0.0
C1031 C 0.17412 0.06934 0.54808 0.0
H1032 H 0.08357 0.07767 0.50887 0.0
H1033 H 0.09811 0.99248 0.49315 0.0
H1034 H 0.14538 0.11093 0.5248 0.0
H1035 H 0.14231 0.10818 0.48923 0.0
H1036 H 0.11577 0.11598 0.51083 0.0
H1037 H 0.14007 0.98122 0.49557 0.0
H1038 H 0.15812 0.00084 0.47283 0.0
H1039 H 0.1658 0.00874 0.50792 0.0
H1040 H 0.21074 0.08398 0.4501 0.0
H1041 H 0.21943 0.09728 0.53585 0.0
H1042 H 0.14634 0.06905 0.4473 0.0
H1043 H 0.15396 0.03433 0.44496 0.0
H1044 H 0.17355 0.05898 0.42788 0.0
H1045 H 0.15977 0.0835 0.55473 0.0
H1046 H 0.18976 0.07407 0.56322 0.0
H1047 H 0.16461 0.04751 0.54759 0.0
C1048 C 0.79259 0.19691 0.76774 0.0
C1049 C 0.78587 0.22238 0.78107 0.0
C1050 C 0.77972 0.1714 0.77316 0.0
C1051 C 0.75941 0.1717 0.7919 0.0
C1052 C 0.7541 0.19756 0.80695 0.0
C1053 C 0.76749 0.22267 0.8013 0.0
C1054 C 0.78627 0.14431 0.75702 0.0
C1055 C 0.73256 0.19889 0.82701 0.0
C1056 C 0.70098 0.1172 0.77571 0.0
C1057 C 0.70244 0.10008 0.79491 0.0
C1058 C 0.71979 0.14008 0.77418 0.0
C1059 C 0.7408 0.14594 0.79214 0.0
C1060 C 0.74298 0.12822 0.81094 0.0
C1061 C 0.72367 0.10553 0.81222 0.0
C1062 C 0.71669 0.15852 0.75384 0.0
C1063 C 0.76533 0.13366 0.83011 0.0
H1064 H 0.80668 0.19701 0.75185 0.0
H1065 H 0.76234 0.24262 0.81123 0.0
H1066 H 0.7858 0.1281 0.76984 0.0
H1067 H 0.77192 0.13628 0.74077 0.0
H1068 H 0.80541 0.14726 0.74764 0.0
H1069 H 0.73335 0.22004 0.83969 0.0
H1070 H 0.71405 0.19375 0.81608 0.0
H1071 H 0.733 0.18327 0.8403 0.0
H1072 H 0.68474 0.11316 0.76218 0.0
H1073 H 0.72504 0.09232 0.82701 0.0
H1074 H 0.73372 0.15981 0.74069 0.0
H1075 H 0.7151 0.18013 0.76438 0.0
H1076 H 0.69953 0.15067 0.74094 0.0
H1077 H 0.78354 0.13645 0.81898 0.0
H1078 H 0.76557 0.11636 0.84156 0.0
H1079 H 0.76443 0.15339 0.84465 0.0
C1080 C 0.39777 0.02051 0.5791 0.0
C1081 C 0.42433 0.02646 0.57783 0.0
C1082 C 0.38219 0.03684 0.56861 0.0
C1083 C 0.3936 0.0597 0.55673 0.0
C1084 C 0.42052 0.06662 0.55676 0.0
C1085 C 0.4356 0.04975 0.56723 0.0
C1086 C 0.35359 0.02869 0.5689 0.0
C1087 C 0.43342 0.09089 0.54448 0.0
C1088 C 0.35602 0.07695 0.5005 0.0
C1089 C 0.34487 0.09997 0.51368 0.0
C1090 C 0.3722 0.064 0.51424 0.0
C1091 C 0.37752 0.07438 0.54185 0.0
C1092 C 0.36689 0.09805 0.55515 0.0
C1093 C 0.35061 0.11055 0.54092 0.0
C1094 C 0.38313 0.03876 0.49932 0.0
C1095 C 0.37231 0.10981 0.58452 0.0
H1096 H 0.38932 0.00234 0.58732 0.0
H1097 H 0.45622 0.05403 0.56627 0.0
H1098 H 0.34417 0.0472 0.57716 0.0
H1099 H 0.34653 0.02091 0.548 0.0
H1100 H 0.34772 0.01204 0.58099 0.0
H1101 H 0.45421 0.09545 0.54893 0.0
H1102 H 0.43078 0.08596 0.52232 0.0
H1103 H 0.42466 0.11005 0.55202 0.0
H1104 H 0.35171 0.06863 0.47947 0.0
H1105 H 0.34209 0.12834 0.55124 0.0
H1106 H 0.37646 0.02021 0.50871 0.0
H1107 H 0.40427 0.04253 0.50068 0.0
H1108 H 0.37755 0.03367 0.47773 0.0
H1109 H 0.36463 0.09398 0.5969 0.0
H1110 H 0.36371 0.12922 0.59153 0.0
H1111 H 0.39321 0.11454 0.58812 0.0
C1112 C 0.59518 0.56447 0.57784 0.0
C1113 C 0.56903 0.55493 0.57811 0.0
C1114 C 0.61259 0.54576 0.56879 0.0
C1115 C 0.60341 0.51697 0.55973 0.0
C1116 C 0.57678 0.50775 0.55831 0.0
C1117 C 0.55991 0.5269 0.56763 0.0
C1118 C 0.64081 0.55644 0.57056 0.0
C1119 C 0.56616 0.47737 0.54851 0.0
C1120 C 0.64823 0.46936 0.52235 0.0
C1121 C 0.65583 0.45636 0.54285 0.0
C1122 C 0.63118 0.48911 0.5275 0.0
C1123 C 0.62157 0.49615 0.55381 0.0
C1124 C 0.62908 0.48304 0.57457 0.0
C1125 C 0.64606 0.46325 0.56883 0.0
C1126 C 0.62346 0.50246 0.50481 0.0
C1127 C 0.61926 0.49006 0.60293 0.0
H1128 H 0.60201 0.58618 0.58627 0.0
H1129 H 0.53957 0.51979 0.56804 0.0
H1130 H 0.64954 0.54781 0.58642 0.0
H1131 H 0.65032 0.54924 0.5513 0.0
H1132 H 0.64472 0.57971 0.57546 0.0
H1133 H 0.5451 0.47423 0.546 0.0
H1134 H 0.57489 0.46937 0.52902 0.0
H1135 H 0.57095 0.46457 0.56318 0.0
H1136 H 0.65566 0.46416 0.50219 0.0
H1137 H 0.6519 0.45339 0.58478 0.0
H1138 H 0.62883 0.52555 0.50978 0.0
H1139 H 0.60243 0.49822 0.50214 0.0
H1140 H 0.63254 0.49459 0.48544 0.0
H1141 H 0.62444 0.51282 0.61078 0.0
H1142 H 0.62706 0.47816 0.61681 0.0
H1143 H 0.59813 0.48536 0.60304 0.0
C1144 C 0.72893 0.27479 0.35804 0.0
C1145 C 0.7111 0.25308 0.3449 0.0
C1146 C 0.72695 0.28465 0.3857 0.0
C1147 C 0.70642 0.27256 0.40028 0.0
C1148 C 0.68959 0.24903 0.38737 0.0
C1149 C 0.69216 0.23955 0.35967 0.0
C1150 C 0.74553 0.30954 0.39875 0.0
C1151 C 0.66759 0.23544 0.40218 0.0
C1152 C 0.71107 0.29908 0.47544 0.0
C1153 C 0.69855 0.32282 0.47793 0.0
C1154 C 0.71238 0.28118 0.45054 0.0
C1155 C 0.70078 0.28713 0.42772 0.0
C1156 C 0.68615 0.3095 0.43065 0.0
C1157 C 0.68522 0.32709 0.45572 0.0
C1158 C 0.72786 0.25733 0.44828 0.0
C1159 C 0.67308 0.31621 0.40683 0.0
H1160 H 0.74332 0.28523 0.34623 0.0
H1161 H 0.67827 0.22294 0.34909 0.0
H1162 H 0.73562 0.32829 0.40348 0.0
H1163 H 0.75282 0.30572 0.41797 0.0
H1164 H 0.76201 0.31427 0.38551 0.0
H1165 H 0.65953 0.21444 0.39094 0.0
H1166 H 0.67359 0.23321 0.42247 0.0
H1167 H 0.65226 0.2489 0.40488 0.0
H1168 H 0.7213 0.29543 0.49251 0.0
H1169 H 0.67524 0.34515 0.45751 0.0
H1170 H 0.74641 0.26313 0.43862 0.0
H1171 H 0.71794 0.23814 0.43547 0.0
H1172 H 0.73174 0.25242 0.46829 0.0
H1173 H 0.68767 0.32414 0.39288 0.0
H1174 H 0.66031 0.33233 0.41297 0.0
H1175 H 0.66168 0.29703 0.39552 0.0
C1176 C 0.47282 0.06194 0.90762 0.0
C1177 C 0.47272 0.07243 0.93527 0.0
C1178 C 0.49573 0.05992 0.89355 0.0
C1179 C 0.5192 0.06959 0.90735 0.0
C1180 C 0.51923 0.08146 0.93509 0.0
C1181 C 0.49592 0.08229 0.94887 0.0
C1182 C 0.49479 0.0467 0.86409 0.0
C1183 C 0.54384 0.09274 0.95029 0.0
C1184 C 0.57575 0.03713 0.87496 0.0
C1185 C 0.58536 0.05641 0.85857 0.0
C1186 C 0.55468 0.04161 0.89171 0.0
C1187 C 0.54352 0.06635 0.89263 0.0
C1188 C 0.55416 0.08666 0.87731 0.0
C1189 C 0.57471 0.08122 0.86011 0.0
C1190 C 0.5435 0.01915 0.90725 0.0
C1191 C 0.5433 0.11368 0.87838 0.0
H1192 H 0.45479 0.05464 0.89716 0.0
H1193 H 0.49588 0.08997 0.97035 0.0
H1194 H 0.5045 0.06179 0.85192 0.0
H1195 H 0.50508 0.0282 0.86082 0.0
H1196 H 0.47493 0.03985 0.85652 0.0
H1197 H 0.54049 0.10417 0.97085 0.0
H1198 H 0.55441 0.07519 0.95204 0.0
H1199 H 0.55623 0.10711 0.93922 0.0
H1200 H 0.58393 0.01789 0.87371 0.0
H1201 H 0.58235 0.09634 0.84769 0.0
H1202 H 0.52402 0.01018 0.89959 0.0
H1203 H 0.5417 0.02826 0.92883 0.0
H1204 H 0.55523 0.00187 0.90551 0.0
H1205 H 0.52426 0.10917 0.86856 0.0
H1206 H 0.55574 0.12876 0.86806 0.0
H1207 H 0.54066 0.12375 0.89957 0.0
C1208 C 0.28893 0.2558 0.33066 0.0
C1209 C 0.30728 0.27942 0.33069 0.0
C1210 C 0.29006 0.23809 0.34937 0.0
C1211 C 0.3101 0.24421 0.36857 0.0
C1212 C 0.32978 0.2669 0.36728 0.0
C1213 C 0.32809 0.28432 0.3483 0.0
C1214 C 0.26874 0.2141 0.34985 0.0
C1215 C 0.3516 0.274 0.38716 0.0
C1216 C 0.29179 0.22275 0.43582 0.0
C1217 C 0.30151 0.19727 0.43362 0.0
C1218 C 0.29517 0.23859 0.41512 0.0
C1219 C 0.30871 0.22885 0.39162 0.0
C1220 C 0.3193 0.20365 0.3896 0.0
C1221 C 0.31553 0.18813 0.41057 0.0
C1222 C 0.28353 0.26536 0.41808 0.0
C1223 C 0.33398 0.19267 0.36497 0.0
H1224 H 0.27284 0.25227 0.31698 0.0
H1225 H 0.34206 0.30285 0.3484 0.0
H1226 H 0.27657 0.19452 0.35088 0.0
H1227 H 0.25695 0.21883 0.3681 0.0
H1228 H 0.25615 0.21037 0.33188 0.0
H1229 H 0.36716 0.28934 0.38099 0.0
H1230 H 0.34453 0.28318 0.40716 0.0
H1231 H 0.35955 0.25483 0.38948 0.0
H1232 H 0.28101 0.23009 0.45351 0.0
H1233 H 0.32326 0.16857 0.40867 0.0
H1234 H 0.26877 0.26321 0.40231 0.0
H1235 H 0.29832 0.28307 0.41521 0.0
H1236 H 0.27456 0.27071 0.43808 0.0
H1237 H 0.32096 0.18666 0.34732 0.0
H1238 H 0.34287 0.1741 0.36746 0.0
H1239 H 0.34916 0.20927 0.36038 0.0
C1240 C 0.48755 0.50299 0.9513 0.0
C1241 C 0.50226 0.52669 0.96596 0.0
C1242 C 0.46718 0.50564 0.9352 0.0
C1243 C 0.46167 0.53272 0.93353 0.0
C1244 C 0.47618 0.55674 0.94881 0.0
C1245 C 0.49632 0.55339 0.96494 0.0
C1246 C 0.45213 0.47953 0.91925 0.0
C1247 C 0.47098 0.58593 0.94742 0.0
C1248 C 0.4306 0.53792 0.86832 0.0
C1249 C 0.40485 0.53739 0.87567 0.0
C1250 C 0.44933 0.53728 0.88719 0.0
C1251 C 0.44216 0.53585 0.91409 0.0
C1252 C 0.41632 0.53605 0.92188 0.0
C1253 C 0.39793 0.53696 0.90256 0.0
C1254 C 0.47674 0.5374 0.87815 0.0
C1255 C 0.40802 0.53442 0.95039 0.0
H1256 H 0.49247 0.48241 0.95196 0.0
H1257 H 0.50772 0.57161 0.97652 0.0
H1258 H 0.4314 0.47959 0.92285 0.0
H1259 H 0.45545 0.47912 0.89743 0.0
H1260 H 0.45753 0.46006 0.92445 0.0
H1261 H 0.48283 0.60224 0.96195 0.0
H1262 H 0.47504 0.59029 0.92683 0.0
H1263 H 0.45056 0.58766 0.95154 0.0
H1264 H 0.43615 0.53854 0.84763 0.0
H1265 H 0.37807 0.53652 0.90836 0.0
H1266 H 0.48317 0.51733 0.88027 0.0
H1267 H 0.48931 0.5545 0.89107 0.0
H1268 H 0.47934 0.54016 0.85688 0.0
H1269 H 0.41135 0.51403 0.95525 0.0
H1270 H 0.3875 0.53646 0.95359 0.0
H1271 H 0.41954 0.55116 0.96474 0.0
C1272 C 0.73568 0.77651 0.19451 0.0
C1273 C 0.73504 0.7588 0.21345 0.0
C1274 C 0.74637 0.76938 0.16897 0.0
C1275 C 0.7555 0.74327 0.16179 0.0
C1276 C 0.75585 0.72585 0.18126 0.0
C1277 C 0.74612 0.73417 0.20704 0.0
C1278 C 0.74643 0.78904 0.14916 0.0
C1279 C 0.76467 0.69746 0.1743 0.0
C1280 C 0.74541 0.70792 0.08898 0.0
C1281 C 0.77037 0.70973 0.07901 0.0
C1282 C 0.74048 0.71853 0.11591 0.0
C1283 C 0.76093 0.73234 0.13311 0.0
C1284 C 0.78618 0.73503 0.12295 0.0
C1285 C 0.79069 0.72308 0.09606 0.0
C1286 C 0.71337 0.71434 0.12606 0.0
C1287 C 0.80829 0.75063 0.14041 0.0
H1288 H 0.72672 0.79527 0.19913 0.0
H1289 H 0.74614 0.72082 0.22193 0.0
H1290 H 0.76466 0.7904 0.13788 0.0
H1291 H 0.7308 0.78095 0.13433 0.0
H1292 H 0.7436 0.81047 0.15931 0.0
H1293 H 0.76581 0.68758 0.19228 0.0
H1294 H 0.75111 0.68336 0.15971 0.0
H1295 H 0.78365 0.69918 0.16454 0.0
H1296 H 0.72972 0.69724 0.07587 0.0
H1297 H 0.80998 0.72453 0.08826 0.0
H1298 H 0.70685 0.73494 0.13303 0.0
H1299 H 0.71244 0.70339 0.14354 0.0
H1300 H 0.69988 0.70191 0.11038 0.0
H1301 H 0.80434 0.77206 0.14914 0.0
H1302 H 0.82647 0.75233 0.12903 0.0
H1303 H 0.81073 0.73981 0.15744 0.0
C1304 C 0.00754 0.08176 0.16802 0.0
C1305 C 0.00112 0.07521 0.14074 0.0
C1306 C 0.98876 0.0787 0.1877 0.0
C1307 C 0.96311 0.06872 0.17966 0.0
C1308 C 0.9565 0.0632 0.15201 0.0
C1309 C 0.97569 0.06651 0.13283 0.0
C1310 C 0.99654 0.08486 0.21696 0.0
C1311 C 0.92943 0.05242 0.14264 0.0
C1312 C 0.92402 0.02622 0.22558 0.0
C1313 C 0.90902 0.04554 0.23936 0.0
C1314 C 0.94138 0.03348 0.20587 0.0
C1315 C 0.94393 0.06082 0.19982 0.0
C1316 C 0.92855 0.08035 0.21327 0.0
C1317 C 0.91115 0.07243 0.23289 0.0
C1318 C 0.95727 0.01195 0.1918 0.0
C1319 C 0.93087 0.1097 0.2073 0.0
H1320 H 0.02736 0.08858 0.17377 0.0
H1321 H 0.97106 0.06154 0.11156 0.0
H1322 H 0.98389 0.09853 0.22897 0.0
H1323 H 0.99448 0.06499 0.22494 0.0
H1324 H 0.01663 0.09521 0.21997 0.0
H1325 H 0.92703 0.05205 0.12078 0.0
H1326 H 0.92399 0.03079 0.14661 0.0
H1327 H 0.91601 0.06559 0.15397 0.0
H1328 H 0.92237 0.00533 0.23035 0.0
H1329 H 0.89964 0.08745 0.24355 0.0
H1330 H 0.97782 0.01961 0.19585 0.0
H1331 H 0.95439 0.00872 0.16972 0.0
H1332 H 0.95248 0.99139 0.19841 0.0
H1333 H 0.95038 0.12086 0.21245 0.0
H1334 H 0.91687 0.12202 0.21876 0.0
H1335 H 0.92798 0.10895 0.18549 0.0
C1336 C 0.29198 0.82302 0.22126 0.0
C1337 C 0.28752 0.79384 0.21903 0.0
C1338 C 0.28596 0.83583 0.19994 0.0
C1339 C 0.27504 0.81894 0.17604 0.0
C1340 C 0.2705 0.7894 0.17381 0.0
C1341 C 0.27703 0.77722 0.19527 0.0
C1342 C 0.29139 0.86734 0.20291 0.0
C1343 C 0.25885 0.77064 0.14873 0.0
C1344 C 0.23898 0.8498 0.12705 0.0
C1345 C 0.25689 0.85172 0.10638 0.0
C1346 C 0.2448 0.83976 0.15022 0.0
C1347 C 0.26919 0.83187 0.15286 0.0
C1348 C 0.28761 0.83474 0.13246 0.0
C1349 C 0.28118 0.84444 0.10942 0.0
C1350 C 0.22459 0.83671 0.17146 0.0
C1351 C 0.31394 0.82691 0.13466 0.0
H1352 H 0.29996 0.83573 0.23978 0.0
H1353 H 0.27396 0.75462 0.19358 0.0
H1354 H 0.30477 0.87318 0.18697 0.0
H1355 H 0.27353 0.87591 0.20027 0.0
H1356 H 0.29981 0.87745 0.22284 0.0
H1357 H 0.25561 0.74817 0.1507 0.0
H1358 H 0.24035 0.77691 0.14419 0.0
H1359 H 0.27157 0.77298 0.13129 0.0
H1360 H 0.22018 0.85539 0.1248 0.0
H1361 H 0.29522 0.84615 0.09364 0.0
H1362 H 0.23208 0.84777 0.19146 0.0
H1363 H 0.21937 0.81422 0.17278 0.0
H1364 H 0.20706 0.84512 0.16709 0.0
H1365 H 0.32297 0.8378 0.15404 0.0
H1366 H 0.32662 0.83228 0.11798 0.0
H1367 H 0.3125 0.80404 0.13437 0.0
C1368 C 0.01915 0.49452 0.1177 0.0
C1369 C 0.99372 0.49367 0.12597 0.0
C1370 C 0.03883 0.49704 0.13656 0.0
C1371 C 0.03273 0.49877 0.16423 0.0
C1372 C 0.00683 0.49596 0.17228 0.0
C1373 C 0.98763 0.49348 0.153 0.0
C1374 C 0.06615 0.49977 0.12712 0.0
C1375 C 0.99942 0.4975 0.20148 0.0
C1376 C 0.08153 0.49625 0.21768 0.0
C1377 C 0.0878 0.52483 0.22864 0.0
C1378 C 0.06427 0.48732 0.196 0.0
C1379 C 0.05314 0.50747 0.18509 0.0
C1380 C 0.06019 0.53636 0.19546 0.0
C1381 C 0.07736 0.54465 0.21706 0.0
C1382 C 0.05725 0.45635 0.18543 0.0
C1383 C 0.04889 0.55858 0.18434 0.0
H1384 H 0.02366 0.49468 0.0967 0.0
H1385 H 0.96782 0.49245 0.1591 0.0
H1386 H 0.07524 0.52188 0.13294 0.0
H1387 H 0.07718 0.48667 0.13684 0.0
H1388 H 0.06752 0.49357 0.10492 0.0
H1389 H 0.97854 0.49171 0.204 0.0
H1390 H 0.00955 0.48341 0.2109 0.0
H1391 H 0.00512 0.51919 0.21255 0.0
H1392 H 0.08955 0.48082 0.2265 0.0
H1393 H 0.08225 0.5668 0.22523 0.0
H1394 H 0.0589 0.45192 0.16319 0.0
H1395 H 0.03707 0.44959 0.19043 0.0
H1396 H 0.06947 0.44357 0.19411 0.0
H1397 H 0.0518 0.55596 0.16227 0.0
H1398 H 0.05741 0.58017 0.19366 0.0
H1399 H 0.02801 0.55628 0.18795 0.0
C1400 C 0.3544 0.74461 0.27529 0.0
C1401 C 0.33463 0.7588 0.28674 0.0
C1402 C 0.37404 0.73995 0.29141 0.0
C1403 C 0.37382 0.74999 0.31953 0.0
C1404 C 0.35343 0.76382 0.33114 0.0
C1405 C 0.33393 0.76783 0.31455 0.0
C1406 C 0.39518 0.72472 0.27835 0.0
C1407 C 0.35255 0.77501 0.36097 0.0
C1408 C 0.41446 0.72344 0.36779 0.0
C1409 C 0.43534 0.74496 0.37208 0.0
C1410 C 0.39461 0.72433 0.3501 0.0
C1411 C 0.39552 0.74745 0.33669 0.0
C1412 C 0.41675 0.76894 0.34056 0.0
C1413 C 0.43645 0.76735 0.35805 0.0
C1414 C 0.37244 0.70081 0.34614 0.0
C1415 C 0.41832 0.79409 0.32684 0.0
H1416 H 0.35442 0.73728 0.25373 0.0
H1417 H 0.31831 0.77853 0.32312 0.0
H1418 H 0.41356 0.73904 0.28078 0.0
H1419 H 0.39729 0.70681 0.28838 0.0
H1420 H 0.39167 0.71672 0.25655 0.0
H1421 H 0.33499 0.78453 0.36686 0.0
H1422 H 0.35345 0.75792 0.37246 0.0
H1423 H 0.36939 0.79114 0.36693 0.0
H1424 H 0.4135 0.706 0.37843 0.0
H1425 H 0.45245 0.78412 0.36125 0.0
H1426 H 0.3694 0.69228 0.32438 0.0
H1427 H 0.35471 0.70894 0.35392 0.0
H1428 H 0.37541 0.68344 0.35659 0.0
H1429 H 0.41666 0.7872 0.30473 0.0
H1430 H 0.43646 0.80862 0.33141 0.0
H1431 H 0.40217 0.80581 0.33339 0.0
C1432 C 0.9864 0.44837 0.04722 0.0
C1433 C 0.97854 0.453 0.07407 0.0
C1434 C 0.99216 0.42211 0.0347 0.0
C1435 C 0.99136 0.40038 0.04989 0.0
C1436 C 0.98613 0.40595 0.07783 0.0
C1437 C 0.97928 0.43213 0.08953 0.0
C1438 C 0.99714 0.41708 0.00478 0.0
C1439 C 0.98641 0.38385 0.09504 0.0
C1440 C 0.97159 0.32789 0.00905 0.0
C1441 C 0.99523 0.32004 0.00044 0.0
C1442 C 0.97009 0.35357 0.02611 0.0
C1443 C 0.99285 0.37128 0.03564 0.0
C1444 C 0.01678 0.36237 0.02871 0.0
C1445 C 0.01771 0.33711 0.01059 0.0
C1446 C 0.94418 0.36257 0.03235 0.0
C1447 C 0.0414 0.37998 0.03951 0.0
H1448 H 0.9866 0.46494 0.03561 0.0
H1449 H 0.97339 0.43584 0.11039 0.0
H1450 H 0.01549 0.40885 0.00042 0.0
H1451 H 0.98186 0.40105 0.99438 0.0
H1452 H 0.99776 0.43646 0.99612 0.0
H1453 H 0.98779 0.39319 0.11679 0.0
H1454 H 0.96854 0.36874 0.09171 0.0
H1455 H 0.00262 0.37193 0.08955 0.0
H1456 H 0.9542 0.31477 0.00104 0.0
H1457 H 0.03602 0.33088 0.0041 0.0
H1458 H 0.94281 0.38169 0.02388 0.0
H1459 H 0.94153 0.36794 0.0544 0.0
H1460 H 0.92835 0.34603 0.02392 0.0
H1461 H 0.04603 0.39777 0.02861 0.0
H1462 H 0.05759 0.36765 0.03698 0.0
H1463 H 0.03954 0.38888 0.06116 0.0
C1464 C 0.67753 0.74941 0.31531 0.0
C1465 C 0.67332 0.75029 0.28828 0.0
C1466 C 0.65703 0.74658 0.33313 0.0
C1467 C 0.63181 0.7445 0.32349 0.0
C1468 C 0.62746 0.74323 0.2957 0.0
C1469 C 0.64837 0.74644 0.27844 0.0
C1470 C 0.66252 0.74821 0.3626 0.0
C1471 C 0.60086 0.74078 0.28458 0.0
C1472 C 0.57481 0.72847 0.3682 0.0
C1473 C 0.56837 0.75538 0.3772 0.0
C1474 C 0.59566 0.72448 0.35093 0.0
C1475 C 0.61047 0.74799 0.34282 0.0
C1476 C 0.60449 0.77526 0.35257 0.0
C1477 C 0.58344 0.77859 0.3695 0.0
C1478 C 0.60142 0.69512 0.34077 0.0
C1479 C 0.62003 0.80095 0.34469 0.0
H1480 H 0.69697 0.75262 0.32273 0.0
H1481 H 0.64531 0.74767 0.25759 0.0
H1482 H 0.65905 0.76894 0.37391 0.0
H1483 H 0.64959 0.73194 0.37091 0.0
H1484 H 0.68259 0.74561 0.36614 0.0
H1485 H 0.60052 0.73589 0.26223 0.0
H1486 H 0.58786 0.72422 0.29241 0.0
H1487 H 0.59329 0.76088 0.29115 0.0
H1488 H 0.56315 0.71045 0.37403 0.0
H1489 H 0.57867 0.79946 0.37654 0.0
H1490 H 0.62164 0.69376 0.34486 0.0
H1491 H 0.59865 0.68982 0.31864 0.0
H1492 H 0.589 0.67923 0.35015 0.0
H1493 H 0.64046 0.80173 0.34961 0.0
H1494 H 0.61354 0.82072 0.35501 0.0
H1495 H 0.61866 0.7999 0.32264 0.0
C1496 C 0.05638 0.12365 0.06039 0.0
C1497 C 0.04571 0.0956 0.05896 0.0
C1498 C 0.0521 0.13826 0.03989 0.0
C1499 C 0.03718 0.12413 0.01725 0.0
C1500 C 0.02965 0.09475 0.01402 0.0
C1501 C 0.03382 0.0808 0.03515 0.0
C1502 C 0.06065 0.1695 0.04424 0.0
C1503 C 0.01457 0.07868 0.98975 0.0
C1504 C 0.99043 0.16765 0.99588 0.0
C1505 C 0.00315 0.17812 0.97442 0.0
C1506 C 0.00104 0.14942 0.00935 0.0
C1507 C 0.02481 0.14088 0.00082 0.0
C1508 C 0.03714 0.15012 0.9782 0.0
C1509 C 0.02631 0.16898 0.96545 0.0
C1510 C 0.98736 0.14052 0.03365 0.0
C1511 C 0.06213 0.14097 0.96804 0.0
H1512 H 0.06569 0.13485 0.0789 0.0
H1513 H 0.02559 0.05905 0.03417 0.0
H1514 H 0.06856 0.17598 0.02547 0.0
H1515 H 0.04397 0.18058 0.05009 0.0
H1516 H 0.07529 0.1764 0.06039 0.0
H1517 H 0.01531 0.05581 0.98725 0.0
H1518 H 0.99431 0.08204 0.99222 0.0
H1519 H 0.0218 0.0862 0.97118 0.0
H1520 H 0.97257 0.17464 0.00299 0.0
H1521 H 0.0362 0.17688 0.94876 0.0
H1522 H 0.99919 0.14917 0.05191 0.0
H1523 H 0.98445 0.11735 0.03149 0.0
H1524 H 0.96848 0.14791 0.03684 0.0
H1525 H 0.07786 0.15295 0.98133 0.0
H1526 H 0.06624 0.14475 0.94725 0.0
H1527 H 0.06211 0.11837 0.96837 0.0
C1528 C 0.33889 0.27994 0.26515 0.0
C1529 C 0.33991 0.30238 0.28673 0.0
C1530 C 0.36021 0.2763 0.24849 0.0
C1531 C 0.38297 0.29562 0.25375 0.0
C1532 C 0.38463 0.31682 0.27705 0.0
C1533 C 0.36295 0.32006 0.29314 0.0
C1534 C 0.35754 0.25344 0.2239 0.0
C1535 C 0.40854 0.33767 0.28365 0.0
C1536 C 0.44324 0.28272 0.21348 0.0
C1537 C 0.44231 0.29945 0.19377 0.0
C1538 C 0.42408 0.28112 0.23313 0.0
C1539 C 0.4034 0.29643 0.23297 0.0
C1540 C 0.40228 0.31318 0.21304 0.0
C1541 C 0.42174 0.31456 0.19381 0.0
C1542 C 0.42603 0.26323 0.25417 0.0
C1543 C 0.38048 0.32975 0.21204 0.0
H1544 H 0.3208 0.2667 0.26008 0.0
H1545 H 0.36339 0.33763 0.30969 0.0
H1546 H 0.35594 0.26288 0.20575 0.0
H1547 H 0.37463 0.24256 0.22137 0.0
H1548 H 0.34035 0.2377 0.22493 0.0
H1549 H 0.40815 0.3498 0.30444 0.0
H1550 H 0.4257 0.3269 0.28138 0.0
H1551 H 0.41043 0.35264 0.26941 0.0
H1552 H 0.45906 0.27099 0.21368 0.0
H1553 H 0.42072 0.32744 0.17866 0.0
H1554 H 0.40878 0.24727 0.2535 0.0
H1555 H 0.42688 0.27645 0.27451 0.0
H1556 H 0.44315 0.25234 0.25137 0.0
H1557 H 0.36206 0.31549 0.21013 0.0
H1558 H 0.38219 0.34134 0.19497 0.0
H1559 H 0.37982 0.34507 0.23104 0.0
C1560 C 0.55748 0.50175 0.05399 0.0
C1561 C 0.55668 0.4915 0.02631 0.0
C1562 C 0.55538 0.4832 0.07242 0.0
C1563 C 0.55206 0.45389 0.06265 0.0
C1564 C 0.55422 0.44383 0.03471 0.0
C1565 C 0.55645 0.46285 0.01687 0.0
C1566 C 0.55385 0.49484 0.10205 0.0
C1567 C 0.55094 0.41284 0.0233 0.0
C1568 C 0.54472 0.3969 0.10562 0.0
C1569 C 0.51807 0.38979 0.1058 0.0
C1570 C 0.55629 0.41896 0.09307 0.0
C1571 C 0.5408 0.43397 0.08024 0.0
C1572 C 0.51388 0.42787 0.08178 0.0
C1573 C 0.5029 0.40599 0.0946 0.0
C1574 C 0.58501 0.42516 0.09232 0.0
C1575 C 0.49654 0.44333 0.06846 0.0
H1576 H 0.55735 0.52397 0.0611 0.0
H1577 H 0.55552 0.45516 0.99535 0.0
H1578 H 0.53352 0.49342 0.10822 0.0
H1579 H 0.56348 0.4826 0.11416 0.0
H1580 H 0.56259 0.51721 0.10679 0.0
H1581 H 0.55707 0.40864 0.00196 0.0
H1582 H 0.562 0.4017 0.03519 0.0
H1583 H 0.53051 0.40393 0.02437 0.0
H1584 H 0.5566 0.38457 0.11435 0.0
H1585 H 0.4823 0.40087 0.09486 0.0
H1586 H 0.59149 0.4481 0.09568 0.0
H1587 H 0.59186 0.41607 0.0722 0.0
H1588 H 0.59404 0.41602 0.10766 0.0
H1589 H 0.50144 0.46628 0.0753 0.0
H1590 H 0.47608 0.43714 0.07285 0.0
H1591 H 0.49921 0.43893 0.04633 0.0
C1592 C 0.68037 0.26252 0.23405 0.0
C1593 C 0.67287 0.25502 0.25877 0.0
C1594 C 0.66229 0.26813 0.21658 0.0
C1595 C 0.63634 0.26658 0.22443 0.0
C1596 C 0.62885 0.25923 0.24958 0.0
C1597 C 0.64722 0.25327 0.26632 0.0
C1598 C 0.67086 0.27549 0.18975 0.0
C1599 C 0.60142 0.25752 0.25881 0.0
C1600 C 0.58836 0.30205 0.19335 0.0
C1601 C 0.57372 0.27888 0.1777 0.0
C1602 C 0.60965 0.29862 0.20785 0.0
C1603 C 0.61659 0.27149 0.20614 0.0
C1604 C 0.60277 0.24837 0.18902 0.0
C1605 C 0.58135 0.25231 0.17522 0.0
C1606 C 0.62377 0.3237 0.22618 0.0
C1607 C 0.60983 0.2192 0.18628 0.0
H1608 H 0.70035 0.26409 0.22856 0.0
H1609 H 0.64165 0.24735 0.28549 0.0
H1610 H 0.66078 0.25996 0.17325 0.0
H1611 H 0.66582 0.2963 0.18805 0.0
H1612 H 0.69176 0.27595 0.18677 0.0
H1613 H 0.59906 0.2528 0.27949 0.0
H1614 H 0.59427 0.27764 0.2584 0.0
H1615 H 0.58929 0.24091 0.2449 0.0
H1616 H 0.58247 0.32261 0.19528 0.0
H1617 H 0.57025 0.2344 0.16281 0.0
H1618 H 0.64463 0.32494 0.22278 0.0
H1619 H 0.62023 0.32139 0.24745 0.0
H1620 H 0.61766 0.34369 0.2232 0.0
H1621 H 0.63056 0.21955 0.18237 0.0
H1622 H 0.5991 0.20422 0.1698 0.0
H1623 H 0.60569 0.21131 0.20539 0.0
C1624 C 0.45872 0.12351 0.00553 0.0
C1625 C 0.45498 0.1186 0.97771 0.0
C1626 C 0.46831 0.15014 0.01944 0.0
C1627 C 0.47508 0.17229 0.00494 0.0
C1628 C 0.47346 0.16682 0.97644 0.0
C1629 C 0.46304 0.1399 0.96308 0.0
C1630 C 0.46954 0.15489 0.04982 0.0
C1631 C 0.48145 0.18956 0.9602 0.0
C1632 C 0.46629 0.24077 0.04946 0.0
C1633 C 0.49012 0.24799 0.06221 0.0
C1634 C 0.46164 0.21727 0.0288 0.0
C1635 C 0.48154 0.20125 0.02032 0.0
C1636 C 0.50637 0.21041 0.03112 0.0
C1637 C 0.51027 0.2334 0.05235 0.0
C1638 C 0.43481 0.20804 0.01802 0.0
C1639 C 0.52833 0.19463 0.02176 0.0
H1640 H 0.4527 0.10663 0.01652 0.0
H1641 H 0.46019 0.13579 0.94147 0.0
H1642 H 0.48917 0.16383 0.05691 0.0
H1643 H 0.45671 0.1702 0.05847 0.0
H1644 H 0.46382 0.13524 0.05785 0.0
H1645 H 0.48523 0.18064 0.93891 0.0
H1646 H 0.46594 0.20257 0.96045 0.0
H1647 H 0.49879 0.20355 0.96887 0.0
H1648 H 0.45074 0.25212 0.05701 0.0
H1649 H 0.52888 0.23935 0.06189 0.0
H1650 H 0.42653 0.18862 0.02534 0.0
H1651 H 0.4349 0.20309 0.99573 0.0
H1652 H 0.42222 0.22428 0.0245 0.0
H1653 H 0.52691 0.17563 0.03107 0.0
H1654 H 0.54703 0.20764 0.02751 0.0
H1655 H 0.52772 0.18767 0.9996 0.0
C1656 C 0.23058 0.33975 0.74405 0.0
C1657 C 0.23956 0.31751 0.75295 0.0
C1658 C 0.24522 0.36637 0.74751 0.0
C1659 C 0.26909 0.37082 0.76082 0.0
C1660 C 0.2788 0.34792 0.76852 0.0
C1661 C 0.26383 0.32141 0.76442 0.0
C1662 C 0.23432 0.39009 0.73867 0.0
C1663 C 0.30408 0.35185 0.78292 0.0
C1664 C 0.31409 0.43884 0.76181 0.0
C1665 C 0.30842 0.45448 0.78682 0.0
C1666 C 0.30122 0.4117 0.75285 0.0
C1667 C 0.28244 0.39983 0.76941 0.0
C1668 C 0.27641 0.41561 0.79452 0.0
C1669 C 0.28936 0.4428 0.80285 0.0
C1670 C 0.30785 0.39564 0.72579 0.0
C1671 C 0.25653 0.40357 0.81281 0.0
H1672 H 0.21147 0.33653 0.73573 0.0
H1673 H 0.27029 0.30412 0.77173 0.0
H1674 H 0.22838 0.40436 0.75662 0.0
H1675 H 0.24894 0.40259 0.72796 0.0
H1676 H 0.21747 0.38238 0.72529 0.0
H1677 H 0.31013 0.33152 0.78488 0.0
H1678 H 0.31916 0.36367 0.77214 0.0
H1679 H 0.30251 0.36433 0.80338 0.0
H1680 H 0.32871 0.44776 0.74922 0.0
H1681 H 0.28492 0.45468 0.82222 0.0
H1682 H 0.29045 0.38899 0.71309 0.0
H1683 H 0.31538 0.37632 0.72844 0.0
H1684 H 0.32231 0.40822 0.71493 0.0
H1685 H 0.23784 0.3977 0.80229 0.0
H1686 H 0.25412 0.41854 0.83171 0.0
H1687 H 0.26197 0.38418 0.81809 0.0
C1688 C 0.23393 0.68376 0.78348 0.0
C1689 C 0.24335 0.71199 0.79279 0.0
C1690 C 0.24672 0.66237 0.7892 0.0
C1691 C 0.26934 0.66945 0.80489 0.0
C1692 C 0.27879 0.69801 0.81457 0.0
C1693 C 0.26566 0.71898 0.80833 0.0
C1694 C 0.23597 0.63219 0.77856 0.0
C1695 C 0.30272 0.70641 0.8315 0.0
C1696 C 0.28792 0.61237 0.83917 0.0
C1697 C 0.30639 0.60161 0.82153 0.0
C1698 C 0.27615 0.63489 0.83433 0.0
C1699 C 0.28291 0.64687 0.81124 0.0
C1700 C 0.30188 0.63647 0.79362 0.0
C1701 C 0.31344 0.614 0.79901 0.0
C1702 C 0.25611 0.64551 0.85367 0.0
C1703 C 0.30956 0.64868 0.76876 0.0
H1704 H 0.21636 0.67849 0.77195 0.0
H1705 H 0.27289 0.74089 0.81538 0.0
H1706 H 0.2504 0.62162 0.76596 0.0
H1707 H 0.23137 0.62081 0.79554 0.0
H1708 H 0.21842 0.63028 0.76633 0.0
H1709 H 0.30737 0.72952 0.83766 0.0
H1710 H 0.30047 0.69684 0.84986 0.0
H1711 H 0.31909 0.6984 0.82011 0.0
H1712 H 0.28244 0.60301 0.85668 0.0
H1713 H 0.32771 0.60585 0.78529 0.0
H1714 H 0.23742 0.64213 0.84321 0.0
H1715 H 0.26108 0.66841 0.86089 0.0
H1716 H 0.25392 0.63485 0.87138 0.0
H1717 H 0.29291 0.64552 0.75503 0.0
H1718 H 0.32531 0.63896 0.75767 0.0
H1719 H 0.3157 0.67161 0.7743 0.0
C1720 C 0.88701 0.50344 0.47526 0.0
C1721 C 0.90303 0.51828 0.49624 0.0
C1722 C 0.86479 0.48598 0.4806 0.0
C1723 C 0.85841 0.48385 0.50758 0.0
C1724 C 0.87486 0.49842 0.52878 0.0
C1725 C 0.89717 0.51522 0.52278 0.0
C1726 C 0.84788 0.47036 0.45746 0.0
C1727 C 0.86856 0.4969 0.55783 0.0
C1728 C 0.78869 0.46424 0.52371 0.0
C1729 C 0.78781 0.43614 0.52637 0.0
C1730 C 0.81162 0.48006 0.51772 0.0
C1731 C 0.83404 0.46726 0.5138 0.0
C1732 C 0.83325 0.43885 0.51626 0.0
C1733 C 0.81015 0.42367 0.52279 0.0
C1734 C 0.81191 0.51051 0.51576 0.0
C1735 C 0.85673 0.42443 0.51175 0.0
H1736 H 0.89162 0.50607 0.45479 0.0
H1737 H 0.90994 0.52642 0.53885 0.0
H1738 H 0.84402 0.44771 0.45855 0.0
H1739 H 0.82923 0.4783 0.4588 0.0
H1740 H 0.85652 0.4727 0.43761 0.0
H1741 H 0.88364 0.50919 0.57185 0.0
H1742 H 0.85028 0.50505 0.56322 0.0
H1743 H 0.86597 0.47479 0.5608 0.0
H1744 H 0.77147 0.47397 0.52659 0.0
H1745 H 0.80949 0.40186 0.52458 0.0
H1746 H 0.81814 0.51403 0.4954 0.0
H1747 H 0.82583 0.52397 0.53038 0.0
H1748 H 0.79289 0.51738 0.51978 0.0
H1749 H 0.86444 0.42567 0.49133 0.0
H1750 H 0.85274 0.40203 0.51384 0.0
H1751 H 0.87184 0.43524 0.52639 0.0
C1752 C 0.77372 0.88661 0.81034 0.0
C1753 C 0.76506 0.8578 0.80669 0.0
C1754 C 0.75667 0.90593 0.81009 0.0
C1755 C 0.73021 0.89621 0.80678 0.0
C1756 C 0.72135 0.86706 0.80299 0.0
C1757 C 0.73896 0.84816 0.80273 0.0
C1758 C 0.76696 0.93681 0.81388 0.0
C1759 C 0.69328 0.85592 0.79984 0.0
C1760 C 0.68881 0.95106 0.83618 0.0
C1761 C 0.6825 0.96105 0.81326 0.0
C1762 C 0.70317 0.92887 0.83415 0.0
C1763 C 0.7119 0.91681 0.80862 0.0
C1764 C 0.70478 0.9261 0.78527 0.0
C1765 C 0.6899 0.94797 0.78785 0.0
C1766 C 0.70987 0.91914 0.85947 0.0
C1767 C 0.71403 0.91403 0.75776 0.0
H1768 H 0.79386 0.89402 0.8138 0.0
H1769 H 0.73238 0.82582 0.79968 0.0
H1770 H 0.76015 0.9461 0.79739 0.0
H1771 H 0.75977 0.9479 0.83304 0.0
H1772 H 0.78815 0.94072 0.81432 0.0
H1773 H 0.68958 0.83264 0.79634 0.0
H1774 H 0.68293 0.86416 0.81822 0.0
H1775 H 0.68519 0.86325 0.78277 0.0
H1776 H 0.68293 0.96096 0.85585 0.0
H1777 H 0.68516 0.95575 0.7701 0.0
H1778 H 0.73064 0.92492 0.86349 0.0
H1779 H 0.70547 0.89597 0.85696 0.0
H1780 H 0.69941 0.92862 0.8773 0.0
H1781 H 0.73504 0.9198 0.75671 0.0
H1782 H 0.70509 0.92184 0.74145 0.0
H1783 H 0.70994 0.89081 0.75408 0.0
C1784 C 0.60782 0.51491 0.99589 0.0
C1785 C 0.59082 0.53464 0.99936 0.0
C1786 C 0.63435 0.52357 0.99577 0.0
C1787 C 0.64383 0.55252 0.99834 0.0
C1788 C 0.62663 0.57246 0.00276 0.0
C1789 C 0.60041 0.56325 0.00374 0.0
C1790 C 0.65212 0.50174 0.99202 0.0
C1791 C 0.63578 0.60352 0.00529 0.0
C1792 C 0.71121 0.58735 0.01643 0.0
C1793 C 0.72099 0.59142 0.99123 0.0
C1794 C 0.68684 0.57241 0.01883 0.0
C1795 C 0.67153 0.56238 0.99554 0.0
C1796 C 0.68182 0.56537 0.96988 0.0
C1797 C 0.70669 0.57951 0.96801 0.0
C1798 C 0.67699 0.56875 0.04642 0.0
C1799 C 0.66591 0.55557 0.94463 0.0
H1800 H 0.60039 0.49277 0.99222 0.0
H1801 H 0.58714 0.5784 0.00682 0.0
H1802 H 0.66055 0.50001 0.9716 0.0
H1803 H 0.66808 0.50796 0.00673 0.0
H1804 H 0.64209 0.48077 0.99438 0.0
H1805 H 0.61982 0.61617 0.00824 0.0
H1806 H 0.64915 0.61078 0.02252 0.0
H1807 H 0.64634 0.60769 0.98688 0.0
H1808 H 0.72247 0.59641 0.03438 0.0
H1809 H 0.71429 0.58286 0.94856 0.0
H1810 H 0.6672 0.54704 0.04599 0.0
H1811 H 0.66282 0.58318 0.05293 0.0
H1812 H 0.69256 0.57332 0.06164 0.0
H1813 H 0.6571 0.53342 0.94341 0.0
H1814 H 0.67729 0.55745 0.92614 0.0
H1815 H 0.65015 0.56833 0.94519 0.0
C1816 C 0.26223 0.72948 0.30192 0.0
C1817 C 0.28145 0.72799 0.28256 0.0
C1818 C 0.2491 0.705 0.30924 0.0
C1819 C 0.25556 0.6786 0.29683 0.0
C1820 C 0.27669 0.67735 0.27918 0.0
C1821 C 0.28939 0.7022 0.2722 0.0
C1822 C 0.22685 0.70729 0.3283 0.0
C1823 C 0.28438 0.64971 0.26572 0.0
C1824 C 0.22187 0.61322 0.32043 0.0
C1825 C 0.20134 0.60526 0.30222 0.0
C1826 C 0.24005 0.63681 0.31876 0.0
C1827 C 0.23758 0.6527 0.29844 0.0
C1828 C 0.21725 0.64437 0.27968 0.0
C1829 C 0.19944 0.62081 0.2818 0.0
C1830 C 0.26156 0.64508 0.33902 0.0
C1831 C 0.214 0.66067 0.25758 0.0
H1832 H 0.25647 0.74969 0.30998 0.0
H1833 H 0.30437 0.70137 0.25722 0.0
H1834 H 0.20875 0.70074 0.31673 0.0
H1835 H 0.22712 0.69316 0.3431 0.0
H1836 H 0.22688 0.72908 0.33935 0.0
H1837 H 0.3037 0.65246 0.2567 0.0
H1838 H 0.2841 0.63519 0.28024 0.0
H1839 H 0.27052 0.63966 0.24947 0.0
H1840 H 0.2235 0.60133 0.33627 0.0
H1841 H 0.18377 0.61478 0.26753 0.0
H1842 H 0.25957 0.66565 0.35168 0.0
H1843 H 0.28018 0.64757 0.32858 0.0
H1844 H 0.26185 0.62942 0.35236 0.0
H1845 H 0.21125 0.68246 0.26649 0.0
H1846 H 0.19744 0.65104 0.24429 0.0
H1847 H 0.23145 0.66192 0.24503 0.0
C1848 C 0.93918 0.55478 0.06991 0.0
C1849 C 0.92818 0.53134 0.08043 0.0
C1850 C 0.92389 0.57104 0.05889 0.0
C1851 C 0.89704 0.56336 0.05823 0.0
C1852 C 0.88587 0.54037 0.07005 0.0
C1853 C 0.90165 0.52464 0.08109 0.0
C1854 C 0.93654 0.59549 0.0467 0.0
C1855 C 0.85735 0.53143 0.0697 0.0
C1856 C 0.85311 0.61264 0.04101 0.0
C1857 C 0.848 0.60182 0.01369 0.0
C1858 C 0.86947 0.60076 0.05573 0.0
C1859 C 0.88085 0.57744 0.04283 0.0
C1860 C 0.87616 0.56683 0.01515 0.0
C1861 C 0.85987 0.57918 0.00092 0.0
C1862 C 0.87419 0.61275 0.08516 0.0
C1863 C 0.8879 0.54196 0.00065 0.0
H1864 H 0.9598 0.55963 0.06943 0.0
H1865 H 0.89342 0.50636 0.08925 0.0
H1866 H 0.93435 0.59038 0.02449 0.0
H1867 H 0.92723 0.61434 0.05387 0.0
H1868 H 0.95722 0.60065 0.05161 0.0
H1869 H 0.8516 0.51475 0.08179 0.0
H1870 H 0.84738 0.54961 0.07759 0.0
H1871 H 0.85079 0.52337 0.04866 0.0
H1872 H 0.84403 0.63016 0.05102 0.0
H1873 H 0.85606 0.57067 0.97984 0.0
H1874 H 0.89499 0.61808 0.08922 0.0
H1875 H 0.86662 0.59684 0.0975 0.0
H1876 H 0.86505 0.63186 0.09184 0.0
H1877 H 0.90899 0.54632 0.0025 0.0
H1878 H 0.88277 0.53664 0.97895 0.0
H1879 H 0.88143 0.52335 0.01003 0.0
C1880 C 0.09007 0.05371 0.07148 0.0
C1881 C 0.06409 0.04379 0.07315 0.0
C1882 C 0.10748 0.03526 0.06155 0.0
C1883 C 0.09848 0.00633 0.05306 0.0
C1884 C 0.07195 0.99669 0.05306 0.0
C1885 C 0.05507 0.01561 0.06311 0.0
C1886 C 0.13558 0.04641 0.06168 0.0
C1887 C 0.06151 0.96614 0.04398 0.0
C1888 C 0.14263 0.95948 0.01323 0.0
C1889 C 0.1521 0.94728 0.03335 0.0
C1890 C 0.12513 0.97865 0.01929 0.0
C1891 C 0.11687 0.98585 0.04613 0.0
C1892 C 0.12607 0.97334 0.06648 0.0
C1893 C 0.14357 0.9542 0.05985 0.0
C1894 C 0.11567 0.99144 0.99703 0.0
C1895 C 0.11764 0.98042 0.09536 0.0
H1896 H 0.09685 0.07554 0.07947 0.0
H1897 H 0.03486 0.0082 0.06442 0.0
H1898 H 0.14545 0.03814 0.07702 0.0
H1899 H 0.14419 0.0392 0.0419 0.0
H1900 H 0.1392 0.0697 0.06634 0.0
H1901 H 0.04034 0.96257 0.04277 0.0
H1902 H 0.06929 0.95809 0.02398 0.0
H1903 H 0.06755 0.95366 0.05835 0.0
H1904 H 0.14913 0.95431 0.99268 0.0
H1905 H 0.15083 0.94496 0.07553 0.0
H1906 H 0.12097 0.01456 0.00148 0.0
H1907 H 0.09455 0.98703 0.9958 0.0
H1908 H 0.12365 0.98331 0.97711 0.0
H1909 H 0.12286 0.00323 0.10295 0.0
H1910 H 0.1264 0.96872 0.10875 0.0
H1911 H 0.09657 0.97554 0.09665 0.0
loop_
_geom_bond_atom_site_label_1
_geom_bond_atom_site_label_2
_geom_bond_distance
_geom_bond_site_symmetry_2
_ccdc_geom_bond_type
C0 N1 1.317 . S
C0 N2 1.348 . S
C0 C3 1.485 . S
N1 C0 1.317 . S
N1 N5 1.370 . S
N2 C0 1.348 . S
N2 C4 1.346 . S
C3 C0 1.485 . S
C3 H7 0.960 . S
C3 H8 0.961 . S
C3 H9 0.960 . S
C4 N2 1.346 . S
C4 N5 1.307 . S
C4 C6 1.486 . S
N5 N1 1.370 . S
N5 C4 1.307 . S
C6 C4 1.486 . S
C6 H10 0.960 . S
C6 H11 0.960 . S
C6 H12 0.959 . S
H7 C3 0.960 . S
H8 C3 0.961 . S
H9 C3 0.960 . S
H10 C6 0.960 . S
H11 C6 0.960 . S
H12 C6 0.959 . S
C13 N14 1.317 . S
C13 N15 1.348 . S
C13 C16 1.485 . S
N14 C13 1.317 . S
N14 N18 1.370 . S
N15 C13 1.348 . S
N15 C17 1.346 . S
C16 C13 1.485 . S
C16 H20 0.960 . S
C16 H21 0.961 . S
C16 H22 0.960 . S
C17 N15 1.346 . S
C17 N18 1.307 . S
C17 C19 1.486 . S
N18 N14 1.370 . S
N18 C17 1.307 . S
C19 C17 1.486 . S
C19 H23 0.960 . S
C19 H24 0.960 . S
C19 H25 0.959 . S
H20 C16 0.960 . S
H21 C16 0.961 . S
H22 C16 0.960 . S
H23 C19 0.960 . S
H24 C19 0.960 . S
H25 C19 0.959 . S
C26 N27 1.317 . S
C26 N28 1.348 . S
C26 C29 1.485 . S
N27 C26 1.317 . S
N27 N31 1.370 . S
N28 C26 1.348 . S
N28 C30 1.346 . S
C29 C26 1.485 . S
C29 H33 0.960 . S
C29 H34 0.961 . S
C29 H35 0.960 . S
C30 N28 1.346 . S
C30 N31 1.307 . S
C30 C32 1.486 . S
N31 N27 1.370 . S
N31 C30 1.307 . S
C32 C30 1.486 . S
C32 H36 0.960 . S
C32 H37 0.960 . S
C32 H38 0.959 . S
H33 C29 0.960 . S
H34 C29 0.961 . S
H35 C29 0.960 . S
H36 C32 0.960 . S
H37 C32 0.960 . S
H38 C32 0.959 . S
C39 N40 1.317 . S
C39 N41 1.348 . S
C39 C42 1.485 . S
N40 C39 1.317 . S
N40 N44 1.370 . S
N41 C39 1.348 . S
N41 C43 1.346 . S
C42 C39 1.485 . S
C42 H46 0.960 . S
C42 H47 0.961 . S
C42 H48 0.960 . S
C43 N41 1.346 . S
C43 N44 1.307 . S
C43 C45 1.486 . S
N44 N40 1.370 . S
N44 C43 1.307 . S
C45 C43 1.486 . S
C45 H49 0.960 . S
C45 H50 0.960 . S
C45 H51 0.959 . S
H46 C42 0.960 . S
H47 C42 0.961 . S
H48 C42 0.960 . S
H49 C45 0.960 . S
H50 C45 0.960 . S
H51 C45 0.959 . S
C52 N53 1.317 . S
C52 N54 1.348 . S
C52 C55 1.485 . S
N53 C52 1.317 . S
N53 N57 1.370 . S
N54 C52 1.348 . S
N54 C56 1.346 . S
C55 C52 1.485 . S
C55 H59 0.960 . S
C55 H60 0.961 . S
C55 H61 0.960 . S
C56 N54 1.346 . S
C56 N57 1.307 . S
C56 C58 1.486 . S
N57 N53 1.370 . S
N57 C56 1.307 . S
C58 C56 1.486 . S
C58 H62 0.960 1_565 S
C58 H63 0.960 . S
C58 H64 0.959 1_565 S
H59 C55 0.960 . S
H60 C55 0.961 . S
H61 C55 0.960 . S
H62 C58 0.960 1_545 S
H63 C58 0.960 . S
H64 C58 0.959 1_545 S
C65 N66 1.317 . S
C65 N67 1.348 . S
C65 C68 1.485 . S
N66 C65 1.317 . S
N66 N70 1.370 . S
N67 C65 1.348 . S
N67 C69 1.346 . S
C68 C65 1.485 . S
C68 H72 0.960 . S
C68 H73 0.961 . S
C68 H74 0.960 . S
C69 N67 1.346 . S
C69 N70 1.307 . S
C69 C71 1.486 . S
N70 N66 1.370 . S
N70 C69 1.307 . S
C71 C69 1.486 . S
C71 H75 0.960 . S
C71 H76 0.960 . S
C71 H77 0.959 . S
H72 C68 0.960 . S
H73 C68 0.961 . S
H74 C68 0.960 . S
H75 C71 0.960 . S
H76 C71 0.960 . S
H77 C71 0.959 . S
C78 N79 1.317 . S
C78 N80 1.348 . S
C78 C81 1.485 . S
N79 C78 1.317 . S
N79 N83 1.370 . S
N80 C78 1.348 . S
N80 C82 1.346 . S
C81 C78 1.485 . S
C81 H85 0.960 . S
C81 H86 0.961 . S
C81 H87 0.960 . S
C82 N80 1.346 . S
C82 N83 1.307 . S
C82 C84 1.486 . S
N83 N79 1.370 . S
N83 C82 1.307 . S
C84 C82 1.486 . S
C84 H88 0.960 . S
C84 H89 0.960 . S
C84 H90 0.959 . S
H85 C81 0.960 . S
H86 C81 0.961 . S
H87 C81 0.960 . S
H88 C84 0.960 . S
H89 C84 0.960 . S
H90 C84 0.959 . S
C91 N92 1.317 . S
C91 N93 1.348 . S
C91 C94 1.485 . S
N92 C91 1.317 . S
N92 N96 1.370 . S
N93 C91 1.348 . S
N93 C95 1.346 . S
C94 C91 1.485 . S
C94 H98 0.960 . S
C94 H99 0.961 . S
C94 H100 0.960 . S
C95 N93 1.346 . S
C95 N96 1.307 . S
C95 C97 1.486 . S
N96 N92 1.370 . S
N96 C95 1.307 . S
C97 C95 1.486 . S
C97 H101 0.960 . S
C97 H102 0.960 . S
C97 H103 0.959 . S
H98 C94 0.960 . S
H99 C94 0.961 . S
H100 C94 0.960 . S
H101 C97 0.960 . S
H102 C97 0.960 . S
H103 C97 0.959 . S
C104 N105 1.317 . S
C104 N106 1.348 . S
C104 C107 1.485 . S
N105 C104 1.317 . S
N105 N109 1.370 . S
N106 C104 1.348 . S
N106 C108 1.346 . S
C107 C104 1.485 . S
C107 H111 0.960 . S
C107 H112 0.961 . S
C107 H113 0.960 . S
C108 N106 1.346 . S
C108 N109 1.307 . S
C108 C110 1.486 . S
N109 N105 1.370 . S
N109 C108 1.307 . S
C110 C108 1.486 . S
C110 H114 0.960 . S
C110 H115 0.960 . S
C110 H116 0.959 . S
H111 C107 0.960 . S
H112 C107 0.961 . S
H113 C107 0.960 . S
H114 C110 0.960 . S
H115 C110 0.960 . S
H116 C110 0.959 . S
C117 N118 1.317 . S
C117 N119 1.348 . S
C117 C120 1.485 . S
N118 C117 1.317 . S
N118 N122 1.370 . S
N119 C117 1.348 . S
N119 C121 1.346 . S
C120 C117 1.485 . S
C120 H124 0.960 . S
C120 H125 0.961 . S
C120 H126 0.960 . S
C121 N119 1.346 . S
C121 N122 1.307 . S
C121 C123 1.486 . S
N122 N118 1.370 . S
N122 C121 1.307 . S
C123 C121 1.486 . S
C123 H127 0.960 . S
C123 H128 0.960 . S
C123 H129 0.959 . S
H124 C120 0.960 . S
H125 C120 0.961 . S
H126 C120 0.960 . S
H127 C123 0.960 . S
H128 C123 0.960 . S
H129 C123 0.959 . S
C130 N131 1.317 . S
C130 N132 1.348 . S
C130 C133 1.485 . S
N131 C130 1.317 . S
N131 N135 1.370 . S
N132 C130 1.348 . S
N132 C134 1.346 . S
C133 C130 1.485 . S
C133 H137 0.960 . S
C133 H138 0.961 . S
C133 H139 0.960 . S
C134 N132 1.346 . S
C134 N135 1.307 . S
C134 C136 1.486 . S
N135 N131 1.370 . S
N135 C134 1.307 . S
C136 C134 1.486 . S
C136 H140 0.960 . S
C136 H141 0.960 . S
C136 H142 0.959 . S
H137 C133 0.960 . S
H138 C133 0.961 . S
H139 C133 0.960 . S
H140 C136 0.960 . S
H141 C136 0.960 . S
H142 C136 0.959 . S
C143 N144 1.317 . S
C143 N145 1.348 . S
C143 C146 1.485 . S
N144 C143 1.317 . S
N144 N148 1.370 . S
N145 C143 1.348 . S
N145 C147 1.346 . S
C146 C143 1.485 . S
C146 H150 0.960 . S
C146 H151 0.961 . S
C146 H152 0.960 . S
C147 N145 1.346 . S
C147 N148 1.307 . S
C147 C149 1.486 . S
N148 N144 1.370 . S
N148 C147 1.307 . S
C149 C147 1.486 . S
C149 H153 0.960 . S
C149 H154 0.960 . S
C149 H155 0.959 . S
H150 C146 0.960 . S
H151 C146 0.961 . S
H152 C146 0.960 . S
H153 C149 0.960 . S
H154 C149 0.960 . S
H155 C149 0.959 . S
C156 N157 1.317 . S
C156 N158 1.348 . S
C156 C159 1.485 . S
N157 C156 1.317 . S
N157 N161 1.370 . S
N158 C156 1.348 . S
N158 C160 1.346 . S
C159 C156 1.485 . S
C159 H163 0.960 . S
C159 H164 0.961 . S
C159 H165 0.960 . S
C160 N158 1.346 . S
C160 N161 1.307 . S
C160 C162 1.486 . S
N161 N157 1.370 . S
N161 C160 1.307 . S
C162 C160 1.486 . S
C162 H166 0.960 . S
C162 H167 0.960 . S
C162 H168 0.959 . S
H163 C159 0.960 . S
H164 C159 0.961 . S
H165 C159 0.960 . S
H166 C162 0.960 . S
H167 C162 0.960 . S
H168 C162 0.959 . S
C169 N170 1.317 . S
C169 N171 1.348 . S
C169 C172 1.485 . S
N170 C169 1.317 . S
N170 N174 1.370 . S
N171 C169 1.348 . S
N171 C173 1.346 . S
C172 C169 1.485 . S
C172 H176 0.960 . S
C172 H177 0.961 . S
C172 H178 0.960 . S
C173 N171 1.346 . S
C173 N174 1.307 . S
C173 C175 1.486 . S
N174 N170 1.370 . S
N174 C173 1.307 . S
C175 C173 1.486 . S
C175 H179 0.960 . S
C175 H180 0.960 . S
C175 H181 0.959 . S
H176 C172 0.960 . S
H177 C172 0.961 . S
H178 C172 0.960 . S
H179 C175 0.960 . S
H180 C175 0.960 . S
H181 C175 0.959 . S
C182 N183 1.317 . S
C182 N184 1.348 . S
C182 C185 1.485 . S
N183 C182 1.317 . S
N183 N187 1.370 . S
N184 C182 1.348 . S
N184 C186 1.346 . S
C185 C182 1.485 . S
C185 H189 0.960 . S
C185 H190 0.961 . S
C185 H191 0.960 . S
C186 N184 1.346 . S
C186 N187 1.307 . S
C186 C188 1.486 . S
N187 N183 1.370 . S
N187 C186 1.307 . S
C188 C186 1.486 . S
C188 H192 0.960 . S
C188 H193 0.960 . S
C188 H194 0.959 . S
H189 C185 0.960 . S
H190 C185 0.961 . S
H191 C185 0.960 . S
H192 C188 0.960 . S
H193 C188 0.960 . S
H194 C188 0.959 . S
C195 N196 1.317 . S
C195 N197 1.348 . S
C195 C198 1.485 . S
N196 C195 1.317 . S
N196 N200 1.370 . S
N197 C195 1.348 . S
N197 C199 1.346 . S
C198 C195 1.485 . S
C198 H202 0.960 . S
C198 H203 0.961 . S
C198 H204 0.960 . S
C199 N197 1.346 . S
C199 N200 1.307 . S
C199 C201 1.486 . S
N200 N196 1.370 . S
N200 C199 1.307 . S
C201 C199 1.486 . S
C201 H205 0.960 1_556 S
C201 H206 0.960 . S
C201 H207 0.959 . S
H202 C198 0.960 . S
H203 C198 0.961 . S
H204 C198 0.960 . S
H205 C201 0.960 1_554 S
H206 C201 0.960 . S
H207 C201 0.959 . S
O208 Cd209 2.223 . S
O208 C216 1.315 . S
Cd209 O208 2.223 . S
Cd209 O212 2.297 . S
Cd209 O213 2.439 . S
Cd209 O219 2.240 . S
Cd210 O211 2.240 . S
Cd210 O218 2.223 . S
Cd210 O220 2.297 . S
Cd210 O221 2.439 . S
O211 Cd210 2.240 . S
O211 C216 1.279 . S
O212 Cd209 2.297 . S
O212 C214 1.247 . S
O213 Cd209 2.439 . S
O213 C214 1.208 . S
C214 O212 1.247 . S
C214 O213 1.208 . S
C215 O220 1.247 . S
C215 O221 1.208 . S
C216 O208 1.315 . S
C216 O211 1.279 . S
C217 O218 1.315 . S
C217 O219 1.279 . S
O218 Cd210 2.223 . S
O218 C217 1.315 . S
O219 Cd209 2.240 . S
O219 C217 1.279 . S
O220 Cd210 2.297 . S
O220 C215 1.247 . S
O221 Cd210 2.439 . S
O221 C215 1.208 . S
O222 Cd223 2.223 . S
O222 C230 1.315 . S
Cd223 O222 2.223 . S
Cd223 O226 2.297 . S
Cd223 O227 2.439 . S
Cd223 O233 2.240 . S
Cd224 O225 2.240 . S
Cd224 O232 2.223 . S
Cd224 O234 2.297 . S
Cd224 O235 2.439 . S
O225 Cd224 2.240 . S
O225 C230 1.279 . S
O226 Cd223 2.297 . S
O226 C228 1.247 . S
O227 Cd223 2.439 . S
O227 C228 1.208 . S
C228 O226 1.247 . S
C228 O227 1.208 . S
C229 O234 1.247 . S
C229 O235 1.208 . S
C230 O222 1.315 . S
C230 O225 1.279 . S
C231 O232 1.315 . S
C231 O233 1.279 . S
O232 Cd224 2.223 . S
O232 C231 1.315 . S
O233 Cd223 2.240 . S
O233 C231 1.279 . S
O234 Cd224 2.297 . S
O234 C229 1.247 . S
O235 Cd224 2.439 . S
O235 C229 1.208 . S
O236 Cd237 2.223 1_556 S
O236 C244 1.315 . S
Cd237 O236 2.223 1_554 S
Cd237 O240 2.297 . S
Cd237 O241 2.439 . S
Cd237 O247 2.240 . S
Cd238 O239 2.240 . S
Cd238 O246 2.223 . S
Cd238 O248 2.297 . S
Cd238 O249 2.439 1_556 S
O239 Cd238 2.240 . S
O239 C244 1.279 . S
O240 Cd237 2.297 . S
O240 C242 1.247 . S
O241 Cd237 2.439 . S
O241 C242 1.208 . S
C242 O240 1.247 . S
C242 O241 1.208 . S
C243 O248 1.247 1_554 S
C243 O249 1.208 . S
C244 O236 1.315 . S
C244 O239 1.279 . S
C245 O246 1.315 . S
C245 O247 1.279 1_556 S
O246 Cd238 2.223 . S
O246 C245 1.315 . S
O247 Cd237 2.240 . S
O247 C245 1.279 1_554 S
O248 Cd238 2.297 . S
O248 C243 1.247 1_556 S
O249 Cd238 2.439 1_554 S
O249 C243 1.208 . S
O250 Cd251 2.223 . S
O250 C258 1.315 . S
Cd251 O250 2.223 . S
Cd251 O254 2.297 . S
Cd251 O255 2.439 . S
Cd251 O261 2.240 . S
Cd252 O253 2.240 . S
Cd252 O260 2.223 . S
Cd252 O262 2.297 . S
Cd252 O263 2.439 . S
O253 Cd252 2.240 . S
O253 C258 1.279 . S
O254 Cd251 2.297 . S
O254 C256 1.247 . S
O255 Cd251 2.439 . S
O255 C256 1.208 . S
C256 O254 1.247 . S
C256 O255 1.208 . S
C257 O262 1.247 . S
C257 O263 1.208 . S
C258 O250 1.315 . S
C258 O253 1.279 . S
C259 O260 1.315 . S
C259 O261 1.279 . S
O260 Cd252 2.223 . S
O260 C259 1.315 . S
O261 Cd251 2.240 . S
O261 C259 1.279 . S
O262 Cd252 2.297 . S
O262 C257 1.247 . S
O263 Cd252 2.439 . S
O263 C257 1.208 . S
O264 Cd265 2.223 . S
O264 C272 1.315 . S
Cd265 O264 2.223 . S
Cd265 O268 2.297 . S
Cd265 O269 2.439 . S
Cd265 O275 2.240 . S
Cd266 O267 2.240 . S
Cd266 O274 2.223 . S
Cd266 O276 2.297 . S
Cd266 O277 2.439 . S
O267 Cd266 2.240 . S
O267 C272 1.279 . S
O268 Cd265 2.297 . S
O268 C270 1.247 . S
O269 Cd265 2.439 . S
O269 C270 1.208 . S
C270 O268 1.247 . S
C270 O269 1.208 . S
C271 O276 1.247 . S
C271 O277 1.208 . S
C272 O264 1.315 . S
C272 O267 1.279 . S
C273 O274 1.315 . S
C273 O275 1.279 . S
O274 Cd266 2.223 . S
O274 C273 1.315 . S
O275 Cd265 2.240 . S
O275 C273 1.279 . S
O276 Cd266 2.297 . S
O276 C271 1.247 . S
O277 Cd266 2.439 . S
O277 C271 1.208 . S
O278 Cd279 2.223 . S
O278 C286 1.315 . S
Cd279 O278 2.223 . S
Cd279 O282 2.297 . S
Cd279 O283 2.439 . S
Cd279 O289 2.240 . S
Cd280 O281 2.240 . S
Cd280 O288 2.223 . S
Cd280 O290 2.297 . S
Cd280 O291 2.439 . S
O281 Cd280 2.240 . S
O281 C286 1.279 . S
O282 Cd279 2.297 . S
O282 C284 1.247 . S
O283 Cd279 2.439 . S
O283 C284 1.208 . S
C284 O282 1.247 . S
C284 O283 1.208 . S
C285 O290 1.247 . S
C285 O291 1.208 . S
C286 O278 1.315 . S
C286 O281 1.279 . S
C287 O288 1.315 . S
C287 O289 1.279 . S
O288 Cd280 2.223 . S
O288 C287 1.315 . S
O289 Cd279 2.240 . S
O289 C287 1.279 . S
O290 Cd280 2.297 . S
O290 C285 1.247 . S
O291 Cd280 2.439 . S
O291 C285 1.208 . S
O292 Cd293 2.223 . S
O292 C300 1.315 . S
Cd293 O292 2.223 . S
Cd293 O296 2.297 . S
Cd293 O297 2.439 . S
Cd293 O303 2.240 . S
Cd294 O295 2.240 . S
Cd294 O302 2.223 . S
Cd294 O304 2.297 . S
Cd294 O305 2.439 . S
O295 Cd294 2.240 . S
O295 C300 1.279 . S
O296 Cd293 2.297 . S
O296 C298 1.247 . S
O297 Cd293 2.439 . S
O297 C298 1.208 . S
C298 O296 1.247 . S
C298 O297 1.208 . S
C299 O304 1.247 . S
C299 O305 1.208 . S
C300 O292 1.315 . S
C300 O295 1.279 . S
C301 O302 1.315 . S
C301 O303 1.279 . S
O302 Cd294 2.223 . S
O302 C301 1.315 . S
O303 Cd293 2.240 . S
O303 C301 1.279 . S
O304 Cd294 2.297 . S
O304 C299 1.247 . S
O305 Cd294 2.439 . S
O305 C299 1.208 . S
O306 Cd307 2.223 1_545 S
O306 C314 1.315 . S
Cd307 O306 2.223 1_565 S
Cd307 O310 2.297 . S
Cd307 O311 2.439 . S
Cd307 O317 2.240 1_565 S
Cd308 O309 2.240 . S
Cd308 O316 2.223 . S
Cd308 O318 2.297 . S
Cd308 O319 2.439 1_545 S
O309 Cd308 2.240 . S
O309 C314 1.279 . S
O310 Cd307 2.297 . S
O310 C312 1.247 . S
O311 Cd307 2.439 . S
O311 C312 1.208 . S
C312 O310 1.247 . S
C312 O311 1.208 . S
C313 O318 1.247 1_565 S
C313 O319 1.208 . S
C314 O306 1.315 . S
C314 O309 1.279 . S
C315 O316 1.315 . S
C315 O317 1.279 . S
O316 Cd308 2.223 . S
O316 C315 1.315 . S
O317 Cd307 2.240 1_545 S
O317 C315 1.279 . S
O318 Cd308 2.297 . S
O318 C313 1.247 1_545 S
O319 Cd308 2.439 1_565 S
O319 C313 1.208 . S
O320 Cd321 2.223 . S
O320 C328 1.315 . S
Cd321 O320 2.223 . S
Cd321 O324 2.297 . S
Cd321 O325 2.439 1_655 S
Cd321 O331 2.240 . S
Cd322 O323 2.240 1_455 S
Cd322 O330 2.223 1_455 S
Cd322 O332 2.297 . S
Cd322 O333 2.439 . S
O323 Cd322 2.240 1_655 S
O323 C328 1.279 . S
O324 Cd321 2.297 . S
O324 C326 1.247 1_655 S
O325 Cd321 2.439 1_455 S
O325 C326 1.208 . S
C326 O324 1.247 1_455 S
C326 O325 1.208 . S
C327 O332 1.247 . S
C327 O333 1.208 . S
C328 O320 1.315 . S
C328 O323 1.279 . S
C329 O330 1.315 . S
C329 O331 1.279 . S
O330 Cd322 2.223 1_655 S
O330 C329 1.315 . S
O331 Cd321 2.240 . S
O331 C329 1.279 . S
O332 Cd322 2.297 . S
O332 C327 1.247 . S
O333 Cd322 2.439 . S
O333 C327 1.208 . S
O334 Cd335 2.223 . S
O334 C342 1.315 . S
Cd335 O334 2.223 . S
Cd335 O338 2.297 . S
Cd335 O339 2.439 . S
Cd335 O345 2.240 . S
Cd336 O337 2.240 . S
Cd336 O344 2.223 . S
Cd336 O346 2.297 . S
Cd336 O347 2.439 . S
O337 Cd336 2.240 . S
O337 C342 1.279 . S
O338 Cd335 2.297 . S
O338 C340 1.247 . S
O339 Cd335 2.439 . S
O339 C340 1.208 . S
C340 O338 1.247 . S
C340 O339 1.208 . S
C341 O346 1.247 . S
C341 O347 1.208 . S
C342 O334 1.315 . S
C342 O337 1.279 . S
C343 O344 1.315 . S
C343 O345 1.279 . S
O344 Cd336 2.223 . S
O344 C343 1.315 . S
O345 Cd335 2.240 . S
O345 C343 1.279 . S
O346 Cd336 2.297 . S
O346 C341 1.247 . S
O347 Cd336 2.439 . S
O347 C341 1.208 . S
O348 Cd349 2.223 1_655 S
O348 C356 1.315 . S
Cd349 O348 2.223 1_455 S
Cd349 O352 2.297 . S
Cd349 O353 2.439 . S
Cd349 O359 2.240 . S
Cd350 O351 2.240 . S
Cd350 O358 2.223 1_455 S
Cd350 O360 2.297 . S
Cd350 O361 2.439 . S
O351 Cd350 2.240 . S
O351 C356 1.279 1_455 S
O352 Cd349 2.297 . S
O352 C354 1.247 . S
O353 Cd349 2.439 . S
O353 C354 1.208 . S
C354 O352 1.247 . S
C354 O353 1.208 . S
C355 O360 1.247 . S
C355 O361 1.208 . S
C356 O348 1.315 . S
C356 O351 1.279 1_655 S
C357 O358 1.315 . S
C357 O359 1.279 1_655 S
O358 Cd350 2.223 1_655 S
O358 C357 1.315 . S
O359 Cd349 2.240 . S
O359 C357 1.279 1_455 S
O360 Cd350 2.297 . S
O360 C355 1.247 . S
O361 Cd350 2.439 . S
O361 C355 1.208 . S
O362 Cd363 2.223 . S
O362 C370 1.315 . S
Cd363 O362 2.223 . S
Cd363 O366 2.297 . S
Cd363 O367 2.439 . S
Cd363 O373 2.240 . S
Cd364 O365 2.240 . S
Cd364 O372 2.223 . S
Cd364 O374 2.297 . S
Cd364 O375 2.439 . S
O365 Cd364 2.240 . S
O365 C370 1.279 . S
O366 Cd363 2.297 . S
O366 C368 1.247 . S
O367 Cd363 2.439 . S
O367 C368 1.208 . S
C368 O366 1.247 . S
C368 O367 1.208 . S
C369 O374 1.247 . S
C369 O375 1.208 . S
C370 O362 1.315 . S
C370 O365 1.279 . S
C371 O372 1.315 . S
C371 O373 1.279 . S
O372 Cd364 2.223 . S
O372 C371 1.315 . S
O373 Cd363 2.240 . S
O373 C371 1.279 . S
O374 Cd364 2.297 . S
O374 C369 1.247 . S
O375 Cd364 2.439 . S
O375 C369 1.208 . S
C376 C377 1.391 . S
C376 C378 1.394 . S
C376 H392 0.931 . S
C377 C376 1.391 . S
C377 C381 1.376 . S
C378 C376 1.394 . S
C378 C379 1.369 . S
C378 C382 1.531 . S
C379 C378 1.369 . S
C379 C380 1.410 . S
C379 C387 1.503 . S
C380 C379 1.410 . S
C380 C381 1.392 . S
C380 C383 1.511 . S
C381 C377 1.376 . S
C381 C380 1.392 . S
C381 H393 0.929 . S
C382 C378 1.531 . S
C382 H394 0.960 . S
C382 H395 0.962 . S
C382 H396 0.960 . S
C383 C380 1.511 . S
C383 H397 0.961 . S
C383 H398 0.961 . S
C383 H399 0.961 . S
C384 C385 1.370 . S
C384 C386 1.363 . S
C384 H400 0.931 . S
C385 C384 1.370 . S
C385 C389 1.408 . S
C386 C384 1.363 . S
C386 C387 1.370 . S
C386 C390 1.524 . S
C387 C379 1.503 . S
C387 C386 1.370 . S
C387 C388 1.403 . S
C388 C387 1.403 . S
C388 C389 1.404 . S
C388 C391 1.539 . S
C389 C385 1.408 . S
C389 C388 1.404 . S
C389 H401 0.930 . S
C390 C386 1.524 . S
C390 H402 0.956 . S
C390 H403 0.961 . S
C390 H404 0.961 . S
C391 C388 1.539 . S
C391 H405 0.958 . S
C391 H406 0.961 . S
C391 H407 0.960 . S
H392 C376 0.931 . S
H393 C381 0.929 . S
H394 C382 0.960 . S
H395 C382 0.962 . S
H396 C382 0.960 . S
H397 C383 0.961 . S
H398 C383 0.961 . S
H399 C383 0.961 . S
H400 C384 0.931 . S
H401 C389 0.930 . S
H402 C390 0.956 . S
H403 C390 0.961 . S
H404 C390 0.961 . S
H405 C391 0.958 . S
H406 C391 0.961 . S
H407 C391 0.960 . S
C408 C409 1.391 . S
C408 C410 1.394 . S
C408 H424 0.931 . S
C409 C408 1.391 . S
C409 C413 1.376 . S
C410 C408 1.394 . S
C410 C411 1.371 . S
C410 C414 1.531 . S
C411 C410 1.371 . S
C411 C412 1.410 . S
C411 C419 1.501 1_655 S
C412 C411 1.410 . S
C412 C413 1.392 . S
C412 C415 1.511 1_655 S
C413 C409 1.376 . S
C413 C412 1.392 . S
C413 H425 0.929 . S
C414 C410 1.531 . S
C414 H426 0.960 1_655 S
C414 H427 0.962 . S
C414 H428 0.960 . S
C415 C412 1.511 1_455 S
C415 H429 0.961 . S
C415 H430 0.961 . S
C415 H431 0.961 . S
C416 C417 1.370 . S
C416 C418 1.363 . S
C416 H432 0.931 . S
C417 C416 1.370 . S
C417 C421 1.408 . S
C418 C416 1.363 . S
C418 C419 1.370 . S
C418 C422 1.524 1_455 S
C419 C411 1.501 1_455 S
C419 C418 1.370 . S
C419 C420 1.403 . S
C420 C419 1.403 . S
C420 C421 1.404 . S
C420 C423 1.539 . S
C421 C417 1.408 . S
C421 C420 1.404 . S
C421 H433 0.930 . S
C422 C418 1.524 1_655 S
C422 H434 0.956 . S
C422 H435 0.961 . S
C422 H436 0.961 . S
C423 C420 1.539 . S
C423 H437 0.958 . S
C423 H438 0.961 . S
C423 H439 0.960 . S
H424 C408 0.931 . S
H425 C413 0.929 . S
H426 C414 0.960 1_455 S
H427 C414 0.962 . S
H428 C414 0.960 . S
H429 C415 0.961 . S
H430 C415 0.961 . S
H431 C415 0.961 . S
H432 C416 0.931 . S
H433 C421 0.930 . S
H434 C422 0.956 . S
H435 C422 0.961 . S
H436 C422 0.961 . S
H437 C423 0.958 . S
H438 C423 0.961 . S
H439 C423 0.960 . S
C440 C441 1.391 . S
C440 C442 1.394 . S
C440 H456 0.931 . S
C441 C440 1.391 . S
C441 C445 1.376 . S
C442 C440 1.394 . S
C442 C443 1.369 . S
C442 C446 1.531 . S
C443 C442 1.369 . S
C443 C444 1.410 . S
C443 C451 1.503 . S
C444 C443 1.410 . S
C444 C445 1.392 . S
C444 C447 1.511 . S
C445 C441 1.376 . S
C445 C444 1.392 . S
C445 H457 0.929 . S
C446 C442 1.531 . S
C446 H458 0.960 . S
C446 H459 0.962 . S
C446 H460 0.960 . S
C447 C444 1.511 . S
C447 H461 0.961 . S
C447 H462 0.961 . S
C447 H463 0.961 . S
C448 C449 1.370 . S
C448 C450 1.363 . S
C448 H464 0.931 . S
C449 C448 1.370 . S
C449 C453 1.408 . S
C450 C448 1.363 . S
C450 C451 1.370 . S
C450 C454 1.524 . S
C451 C443 1.503 . S
C451 C450 1.370 . S
C451 C452 1.403 . S
C452 C451 1.403 . S
C452 C453 1.404 . S
C452 C455 1.539 . S
C453 C449 1.408 . S
C453 C452 1.404 . S
C453 H465 0.930 . S
C454 C450 1.524 . S
C454 H466 0.956 . S
C454 H467 0.961 . S
C454 H468 0.961 . S
C455 C452 1.539 . S
C455 H469 0.958 . S
C455 H470 0.961 . S
C455 H471 0.960 . S
H456 C440 0.931 . S
H457 C445 0.929 . S
H458 C446 0.960 . S
H459 C446 0.962 . S
H460 C446 0.960 . S
H461 C447 0.961 . S
H462 C447 0.961 . S
H463 C447 0.961 . S
H464 C448 0.931 . S
H465 C453 0.930 . S
H466 C454 0.956 . S
H467 C454 0.961 . S
H468 C454 0.961 . S
H469 C455 0.958 . S
H470 C455 0.961 . S
H471 C455 0.960 . S
C472 C473 1.376 1_545 S
C472 C474 1.402 . S
C472 H488 0.937 . S
C473 C472 1.376 1_565 S
C473 C477 1.376 . S
C474 C472 1.402 . S
C474 C475 1.369 1_445 S
C474 C478 1.531 . S
C475 C474 1.369 1_665 S
C475 C476 1.410 . S
C475 C483 1.503 1_565 S
C476 C475 1.410 . S
C476 C477 1.392 1_655 S
C476 C479 1.511 . S
C477 C473 1.376 . S
C477 C476 1.392 1_455 S
C477 H489 0.929 . S
C478 C474 1.531 . S
C478 H490 0.960 . S
C478 H491 0.962 . S
C478 H492 0.960 . S
C479 C476 1.511 . S
C479 H493 0.961 . S
C479 H494 0.961 . S
C479 H495 0.961 . S
C480 C481 1.370 . S
C480 C482 1.363 . S
C480 H496 0.931 . S
C481 C480 1.370 . S
C481 C485 1.408 . S
C482 C480 1.363 . S
C482 C483 1.370 . S
C482 C486 1.524 1_545 S
C483 C475 1.503 1_545 S
C483 C482 1.370 . S
C483 C484 1.403 . S
C484 C483 1.403 . S
C484 C485 1.404 . S
C484 C487 1.539 . S
C485 C481 1.408 . S
C485 C484 1.404 . S
C485 H497 0.930 . S
C486 C482 1.524 1_565 S
C486 H498 0.956 1_565 S
C486 H499 0.961 . S
C486 H500 0.961 . S
C487 C484 1.539 . S
C487 H501 0.958 1_655 S
C487 H502 0.961 . S
C487 H503 0.959 . S
H488 C472 0.937 . S
H489 C477 0.929 . S
H490 C478 0.960 . S
H491 C478 0.962 . S
H492 C478 0.960 . S
H493 C479 0.961 . S
H494 C479 0.961 . S
H495 C479 0.961 . S
H496 C480 0.931 . S
H497 C485 0.930 . S
H498 C486 0.956 1_545 S
H499 C486 0.961 . S
H500 C486 0.961 . S
H501 C487 0.958 1_455 S
H502 C487 0.961 . S
H503 C487 0.959 . S
C504 C505 1.391 . S
C504 C506 1.394 . S
C504 H520 0.931 . S
C505 C504 1.391 . S
C505 C509 1.376 . S
C506 C504 1.394 . S
C506 C507 1.369 . S
C506 C510 1.531 . S
C507 C506 1.369 . S
C507 C508 1.410 . S
C507 C515 1.503 . S
C508 C507 1.410 . S
C508 C509 1.392 . S
C508 C511 1.511 . S
C509 C505 1.376 . S
C509 C508 1.392 . S
C509 H521 0.929 . S
C510 C506 1.531 . S
C510 H522 0.960 . S
C510 H523 0.962 . S
C510 H524 0.960 . S
C511 C508 1.511 . S
C511 H525 0.961 . S
C511 H526 0.961 . S
C511 H527 0.961 . S
C512 C513 1.370 . S
C512 C514 1.363 . S
C512 H528 0.931 . S
C513 C512 1.370 . S
C513 C517 1.408 . S
C514 C512 1.363 . S
C514 C515 1.370 . S
C514 C518 1.524 . S
C515 C507 1.503 . S
C515 C514 1.370 . S
C515 C516 1.403 . S
C516 C515 1.403 . S
C516 C517 1.404 . S
C516 C519 1.539 . S
C517 C513 1.408 . S
C517 C516 1.404 . S
C517 H529 0.930 . S
C518 C514 1.524 . S
C518 H530 0.956 . S
C518 H531 0.961 . S
C518 H532 0.961 . S
C519 C516 1.539 . S
C519 H533 0.958 . S
C519 H534 0.961 . S
C519 H535 0.960 . S
H520 C504 0.931 . S
H521 C509 0.929 . S
H522 C510 0.960 . S
H523 C510 0.962 . S
H524 C510 0.960 . S
H525 C511 0.961 . S
H526 C511 0.961 . S
H527 C511 0.961 . S
H528 C512 0.931 . S
H529 C517 0.930 . S
H530 C518 0.956 . S
H531 C518 0.961 . S
H532 C518 0.961 . S
H533 C519 0.958 . S
H534 C519 0.961 . S
H535 C519 0.960 . S
C536 C537 1.391 . S
C536 C538 1.394 . S
C536 H552 0.931 . S
C537 C536 1.391 . S
C537 C541 1.376 . S
C538 C536 1.394 . S
C538 C539 1.369 . S
C538 C542 1.531 . S
C539 C538 1.369 . S
C539 C540 1.410 . S
C539 C547 1.503 . S
C540 C539 1.410 . S
C540 C541 1.392 . S
C540 C543 1.511 . S
C541 C537 1.376 . S
C541 C540 1.392 . S
C541 H553 0.929 . S
C542 C538 1.531 . S
C542 H554 0.960 . S
C542 H555 0.962 . S
C542 H556 0.960 . S
C543 C540 1.511 . S
C543 H557 0.961 . S
C543 H558 0.961 . S
C543 H559 0.961 . S
C544 C545 1.370 . S
C544 C546 1.363 . S
C544 H560 0.931 . S
C545 C544 1.370 . S
C545 C549 1.408 . S
C546 C544 1.363 . S
C546 C547 1.370 . S
C546 C550 1.524 . S
C547 C539 1.503 . S
C547 C546 1.370 . S
C547 C548 1.403 . S
C548 C547 1.403 . S
C548 C549 1.404 . S
C548 C551 1.539 . S
C549 C545 1.408 . S
C549 C548 1.404 . S
C549 H561 0.930 . S
C550 C546 1.524 . S
C550 H562 0.956 . S
C550 H563 0.961 . S
C550 H564 0.961 . S
C551 C548 1.539 . S
C551 H565 0.958 . S
C551 H566 0.961 . S
C551 H567 0.960 . S
H552 C536 0.931 . S
H553 C541 0.929 . S
H554 C542 0.960 . S
H555 C542 0.962 . S
H556 C542 0.960 . S
H557 C543 0.961 . S
H558 C543 0.961 . S
H559 C543 0.961 . S
H560 C544 0.931 . S
H561 C549 0.930 . S
H562 C550 0.956 . S
H563 C550 0.961 . S
H564 C550 0.961 . S
H565 C551 0.958 . S
H566 C551 0.961 . S
H567 C551 0.960 . S
C568 C569 1.391 . S
C568 C570 1.394 . S
C568 H584 0.931 . S
C569 C568 1.391 . S
C569 C573 1.376 . S
C570 C568 1.394 . S
C570 C571 1.369 . S
C570 C574 1.531 . S
C571 C570 1.369 . S
C571 C572 1.410 . S
C571 C579 1.503 . S
C572 C571 1.410 . S
C572 C573 1.392 . S
C572 C575 1.511 . S
C573 C569 1.376 . S
C573 C572 1.392 . S
C573 H585 0.929 . S
C574 C570 1.531 . S
C574 H586 0.960 . S
C574 H587 0.962 . S
C574 H588 0.960 . S
C575 C572 1.511 . S
C575 H589 0.961 . S
C575 H590 0.961 . S
C575 H591 0.961 . S
C576 C577 1.370 . S
C576 C578 1.363 . S
C576 H592 0.931 . S
C577 C576 1.370 . S
C577 C581 1.408 . S
C578 C576 1.363 . S
C578 C579 1.370 . S
C578 C582 1.524 . S
C579 C571 1.503 . S
C579 C578 1.370 . S
C579 C580 1.403 . S
C580 C579 1.403 . S
C580 C581 1.404 . S
C580 C583 1.539 . S
C581 C577 1.408 . S
C581 C580 1.404 . S
C581 H593 0.930 . S
C582 C578 1.524 . S
C582 H594 0.956 . S
C582 H595 0.961 . S
C582 H596 0.961 . S
C583 C580 1.539 . S
C583 H597 0.958 . S
C583 H598 0.961 . S
C583 H599 0.960 . S
H584 C568 0.931 . S
H585 C573 0.929 . S
H586 C574 0.960 . S
H587 C574 0.962 . S
H588 C574 0.960 . S
H589 C575 0.961 . S
H590 C575 0.961 . S
H591 C575 0.961 . S
H592 C576 0.931 . S
H593 C581 0.930 . S
H594 C582 0.956 . S
H595 C582 0.961 . S
H596 C582 0.961 . S
H597 C583 0.958 . S
H598 C583 0.961 . S
H599 C583 0.960 . S
C600 C601 1.391 . S
C600 C602 1.394 . S
C600 H616 0.931 . S
C601 C600 1.391 . S
C601 C605 1.376 . S
C602 C600 1.394 . S
C602 C603 1.369 . S
C602 C606 1.531 . S
C603 C602 1.369 . S
C603 C604 1.410 . S
C603 C611 1.503 . S
C604 C603 1.410 . S
C604 C605 1.392 . S
C604 C607 1.511 . S
C605 C601 1.376 . S
C605 C604 1.392 . S
C605 H617 0.929 . S
C606 C602 1.531 . S
C606 H618 0.960 . S
C606 H619 0.962 . S
C606 H620 0.960 . S
C607 C604 1.511 . S
C607 H621 0.961 . S
C607 H622 0.961 . S
C607 H623 0.961 . S
C608 C609 1.370 . S
C608 C610 1.363 . S
C608 H624 0.931 . S
C609 C608 1.370 . S
C609 C613 1.408 . S
C610 C608 1.363 . S
C610 C611 1.370 . S
C610 C614 1.524 . S
C611 C603 1.503 . S
C611 C610 1.370 . S
C611 C612 1.403 . S
C612 C611 1.403 . S
C612 C613 1.404 . S
C612 C615 1.540 . S
C613 C609 1.408 . S
C613 C612 1.404 . S
C613 H625 0.930 1_565 S
C614 C610 1.524 . S
C614 H626 0.956 . S
C614 H627 0.961 . S
C614 H628 0.961 . S
C615 C612 1.540 . S
C615 H629 0.958 . S
C615 H630 0.961 1_565 S
C615 H631 0.959 . S
H616 C600 0.931 . S
H617 C605 0.929 . S
H618 C606 0.960 . S
H619 C606 0.962 . S
H620 C606 0.960 . S
H621 C607 0.961 . S
H622 C607 0.961 . S
H623 C607 0.961 . S
H624 C608 0.931 . S
H625 C613 0.930 1_545 S
H626 C614 0.956 . S
H627 C614 0.961 . S
H628 C614 0.961 . S
H629 C615 0.958 . S
H630 C615 0.961 1_545 S
H631 C615 0.959 . S
C632 C633 1.391 . S
C632 C634 1.394 . S
C632 H648 0.931 . S
C633 C632 1.391 . S
C633 C637 1.376 . S
C634 C632 1.394 . S
C634 C635 1.369 . S
C634 C638 1.531 . S
C635 C634 1.369 . S
C635 C636 1.410 . S
C635 C643 1.503 . S
C636 C635 1.410 . S
C636 C637 1.392 . S
C636 C639 1.511 . S
C637 C633 1.376 . S
C637 C636 1.392 . S
C637 H649 0.929 . S
C638 C634 1.531 . S
C638 H650 0.960 . S
C638 H651 0.962 . S
C638 H652 0.960 . S
C639 C636 1.511 . S
C639 H653 0.961 . S
C639 H654 0.961 . S
C639 H655 0.961 . S
C640 C641 1.370 . S
C640 C642 1.363 . S
C640 H656 0.931 . S
C641 C640 1.370 . S
C641 C645 1.408 . S
C642 C640 1.363 . S
C642 C643 1.370 . S
C642 C646 1.524 . S
C643 C635 1.503 . S
C643 C642 1.370 . S
C643 C644 1.403 . S
C644 C643 1.403 . S
C644 C645 1.404 . S
C644 C647 1.539 . S
C645 C641 1.408 . S
C645 C644 1.404 . S
C645 H657 0.930 . S
C646 C642 1.524 . S
C646 H658 0.956 . S
C646 H659 0.961 . S
C646 H660 0.961 . S
C647 C644 1.539 . S
C647 H661 0.958 . S
C647 H662 0.961 . S
C647 H663 0.960 . S
H648 C632 0.931 . S
H649 C637 0.929 . S
H650 C638 0.960 . S
H651 C638 0.962 . S
H652 C638 0.960 . S
H653 C639 0.961 . S
H654 C639 0.961 . S
H655 C639 0.961 . S
H656 C640 0.931 . S
H657 C645 0.930 . S
H658 C646 0.956 . S
H659 C646 0.961 . S
H660 C646 0.961 . S
H661 C647 0.958 . S
H662 C647 0.961 . S
H663 C647 0.960 . S
C664 C665 1.391 . S
C664 C666 1.394 . S
C664 H680 0.931 . S
C665 C664 1.391 . S
C665 C669 1.376 . S
C666 C664 1.394 . S
C666 C667 1.369 . S
C666 C670 1.531 . S
C667 C666 1.369 . S
C667 C668 1.410 . S
C667 C675 1.503 . S
C668 C667 1.410 . S
C668 C669 1.392 . S
C668 C671 1.511 . S
C669 C665 1.376 . S
C669 C668 1.392 . S
C669 H681 0.929 . S
C670 C666 1.531 . S
C670 H682 0.960 . S
C670 H683 0.962 . S
C670 H684 0.960 . S
C671 C668 1.511 . S
C671 H685 0.961 . S
C671 H686 0.961 . S
C671 H687 0.961 . S
C672 C673 1.370 . S
C672 C674 1.363 . S
C672 H688 0.931 . S
C673 C672 1.370 . S
C673 C677 1.408 . S
C674 C672 1.363 . S
C674 C675 1.370 . S
C674 C678 1.524 . S
C675 C667 1.503 . S
C675 C674 1.370 . S
C675 C676 1.403 . S
C676 C675 1.403 . S
C676 C677 1.404 . S
C676 C679 1.539 . S
C677 C673 1.408 . S
C677 C676 1.404 . S
C677 H689 0.930 . S
C678 C674 1.524 . S
C678 H690 0.956 . S
C678 H691 0.961 . S
C678 H692 0.961 . S
C679 C676 1.539 . S
C679 H693 0.958 . S
C679 H694 0.961 . S
C679 H695 0.960 . S
H680 C664 0.931 . S
H681 C669 0.929 . S
H682 C670 0.960 . S
H683 C670 0.962 . S
H684 C670 0.960 . S
H685 C671 0.961 . S
H686 C671 0.961 . S
H687 C671 0.961 . S
H688 C672 0.931 . S
H689 C677 0.930 . S
H690 C678 0.956 . S
H691 C678 0.961 . S
H692 C678 0.961 . S
H693 C679 0.958 . S
H694 C679 0.961 . S
H695 C679 0.960 . S
C696 C697 1.391 . S
C696 C698 1.394 . S
C696 H712 0.931 . S
C697 C696 1.391 . S
C697 C701 1.376 . S
C698 C696 1.394 . S
C698 C699 1.369 . S
C698 C702 1.531 . S
C699 C698 1.369 . S
C699 C700 1.410 . S
C699 C707 1.503 . S
C700 C699 1.410 . S
C700 C701 1.392 . S
C700 C703 1.511 . S
C701 C697 1.376 . S
C701 C700 1.392 . S
C701 H713 0.929 . S
C702 C698 1.531 . S
C702 H714 0.960 . S
C702 H715 0.962 . S
C702 H716 0.960 . S
C703 C700 1.511 . S
C703 H717 0.961 . S
C703 H718 0.961 . S
C703 H719 0.961 . S
C704 C705 1.370 . S
C704 C706 1.363 . S
C704 H720 0.931 . S
C705 C704 1.370 . S
C705 C709 1.408 . S
C706 C704 1.363 . S
C706 C707 1.370 . S
C706 C710 1.524 . S
C707 C699 1.503 . S
C707 C706 1.370 . S
C707 C708 1.403 . S
C708 C707 1.403 . S
C708 C709 1.404 . S
C708 C711 1.539 . S
C709 C705 1.408 . S
C709 C708 1.404 . S
C709 H721 0.930 . S
C710 C706 1.524 . S
C710 H722 0.956 . S
C710 H723 0.961 . S
C710 H724 0.961 . S
C711 C708 1.539 . S
C711 H725 0.958 . S
C711 H726 0.961 . S
C711 H727 0.960 . S
H712 C696 0.931 . S
H713 C701 0.929 . S
H714 C702 0.960 . S
H715 C702 0.962 . S
H716 C702 0.960 . S
H717 C703 0.961 . S
H718 C703 0.961 . S
H719 C703 0.961 . S
H720 C704 0.931 . S
H721 C709 0.930 . S
H722 C710 0.956 . S
H723 C710 0.961 . S
H724 C710 0.961 . S
H725 C711 0.958 . S
H726 C711 0.961 . S
H727 C711 0.960 . S
C728 C729 1.391 . S
C728 C730 1.394 . S
C728 H744 0.931 . S
C729 C728 1.391 . S
C729 C733 1.376 . S
C730 C728 1.394 . S
C730 C731 1.369 . S
C730 C734 1.531 . S
C731 C730 1.369 . S
C731 C732 1.410 . S
C731 C739 1.503 . S
C732 C731 1.410 . S
C732 C733 1.392 . S
C732 C735 1.511 . S
C733 C729 1.376 . S
C733 C732 1.392 . S
C733 H745 0.929 . S
C734 C730 1.531 . S
C734 H746 0.960 . S
C734 H747 0.962 . S
C734 H748 0.960 . S
C735 C732 1.511 . S
C735 H749 0.961 . S
C735 H750 0.961 . S
C735 H751 0.961 . S
C736 C737 1.370 . S
C736 C738 1.363 . S
C736 H752 0.931 . S
C737 C736 1.370 . S
C737 C741 1.408 . S
C738 C736 1.363 . S
C738 C739 1.370 . S
C738 C742 1.524 . S
C739 C731 1.503 . S
C739 C738 1.370 . S
C739 C740 1.403 . S
C740 C739 1.403 . S
C740 C741 1.404 . S
C740 C743 1.539 . S
C741 C737 1.408 . S
C741 C740 1.404 . S
C741 H753 0.930 . S
C742 C738 1.524 . S
C742 H754 0.956 . S
C742 H755 0.961 . S
C742 H756 0.961 . S
C743 C740 1.539 . S
C743 H757 0.958 . S
C743 H758 0.961 . S
C743 H759 0.960 . S
H744 C728 0.931 . S
H745 C733 0.929 . S
H746 C734 0.960 . S
H747 C734 0.962 . S
H748 C734 0.960 . S
H749 C735 0.961 . S
H750 C735 0.961 . S
H751 C735 0.961 . S
H752 C736 0.931 . S
H753 C741 0.930 . S
H754 C742 0.956 . S
H755 C742 0.961 . S
H756 C742 0.961 . S
H757 C743 0.958 . S
H758 C743 0.961 . S
H759 C743 0.960 . S
C760 C761 1.391 . S
C760 C762 1.394 . S
C760 H776 0.931 . S
C761 C760 1.391 . S
C761 C765 1.376 . S
C762 C760 1.394 . S
C762 C763 1.369 . S
C762 C766 1.531 . S
C763 C762 1.369 . S
C763 C764 1.410 . S
C763 C771 1.503 . S
C764 C763 1.410 . S
C764 C765 1.392 . S
C764 C767 1.511 . S
C765 C761 1.376 . S
C765 C764 1.392 . S
C765 H777 0.929 . S
C766 C762 1.531 . S
C766 H778 0.960 . S
C766 H779 0.962 . S
C766 H780 0.960 . S
C767 C764 1.511 . S
C767 H781 0.961 . S
C767 H782 0.961 . S
C767 H783 0.961 . S
C768 C769 1.370 . S
C768 C770 1.363 . S
C768 H784 0.931 . S
C769 C768 1.370 . S
C769 C773 1.408 . S
C770 C768 1.363 . S
C770 C771 1.370 . S
C770 C774 1.524 . S
C771 C763 1.503 . S
C771 C770 1.370 . S
C771 C772 1.403 . S
C772 C771 1.403 . S
C772 C773 1.404 . S
C772 C775 1.539 . S
C773 C769 1.408 . S
C773 C772 1.404 . S
C773 H785 0.930 . S
C774 C770 1.524 . S
C774 H786 0.956 . S
C774 H787 0.961 . S
C774 H788 0.961 . S
C775 C772 1.539 . S
C775 H789 0.958 . S
C775 H790 0.961 . S
C775 H791 0.960 . S
H776 C760 0.931 . S
H777 C765 0.929 . S
H778 C766 0.960 . S
H779 C766 0.962 . S
H780 C766 0.960 . S
H781 C767 0.961 . S
H782 C767 0.961 . S
H783 C767 0.961 . S
H784 C768 0.931 . S
H785 C773 0.930 . S
H786 C774 0.956 . S
H787 C774 0.961 . S
H788 C774 0.961 . S
H789 C775 0.958 . S
H790 C775 0.961 . S
H791 C775 0.960 . S
C792 C793 1.391 . S
C792 C794 1.394 . S
C792 H808 0.931 . S
C793 C792 1.391 . S
C793 C797 1.376 . S
C794 C792 1.394 . S
C794 C795 1.369 . S
C794 C798 1.531 . S
C795 C794 1.369 . S
C795 C796 1.410 . S
C795 C803 1.503 . S
C796 C795 1.410 . S
C796 C797 1.392 . S
C796 C799 1.511 . S
C797 C793 1.376 . S
C797 C796 1.392 . S
C797 H809 0.929 . S
C798 C794 1.531 . S
C798 H810 0.960 . S
C798 H811 0.962 . S
C798 H812 0.960 . S
C799 C796 1.511 . S
C799 H813 0.961 . S
C799 H814 0.961 . S
C799 H815 0.961 . S
C800 C801 1.370 . S
C800 C802 1.363 . S
C800 H816 0.931 . S
C801 C800 1.370 . S
C801 C805 1.408 . S
C802 C800 1.363 . S
C802 C803 1.370 . S
C802 C806 1.524 . S
C803 C795 1.503 . S
C803 C802 1.370 . S
C803 C804 1.403 . S
C804 C803 1.403 . S
C804 C805 1.404 . S
C804 C807 1.539 . S
C805 C801 1.408 . S
C805 C804 1.404 . S
C805 H817 0.930 . S
C806 C802 1.524 . S
C806 H818 0.956 . S
C806 H819 0.961 . S
C806 H820 0.961 . S
C807 C804 1.539 . S
C807 H821 0.958 . S
C807 H822 0.961 . S
C807 H823 0.960 . S
H808 C792 0.931 . S
H809 C797 0.929 . S
H810 C798 0.960 . S
H811 C798 0.962 . S
H812 C798 0.960 . S
H813 C799 0.961 . S
H814 C799 0.961 . S
H815 C799 0.961 . S
H816 C800 0.931 . S
H817 C805 0.930 . S
H818 C806 0.956 . S
H819 C806 0.961 . S
H820 C806 0.961 . S
H821 C807 0.958 . S
H822 C807 0.961 . S
H823 C807 0.960 . S
C824 C825 1.391 . S
C824 C826 1.394 . S
C824 H840 0.931 . S
C825 C824 1.391 . S
C825 C829 1.376 . S
C826 C824 1.394 . S
C826 C827 1.369 . S
C826 C830 1.531 . S
C827 C826 1.369 . S
C827 C828 1.410 . S
C827 C835 1.503 . S
C828 C827 1.410 . S
C828 C829 1.392 . S
C828 C831 1.511 . S
C829 C825 1.376 . S
C829 C828 1.392 . S
C829 H841 0.929 . S
C830 C826 1.531 . S
C830 H842 0.960 . S
C830 H843 0.962 . S
C830 H844 0.960 . S
C831 C828 1.511 . S
C831 H845 0.961 . S
C831 H846 0.961 . S
C831 H847 0.961 . S
C832 C833 1.370 . S
C832 C834 1.363 . S
C832 H848 0.931 . S
C833 C832 1.370 . S
C833 C837 1.408 . S
C834 C832 1.363 . S
C834 C835 1.370 . S
C834 C838 1.524 . S
C835 C827 1.503 . S
C835 C834 1.370 . S
C835 C836 1.403 . S
C836 C835 1.403 . S
C836 C837 1.404 . S
C836 C839 1.539 . S
C837 C833 1.408 . S
C837 C836 1.404 . S
C837 H849 0.930 . S
C838 C834 1.524 . S
C838 H850 0.956 . S
C838 H851 0.961 . S
C838 H852 0.961 . S
C839 C836 1.539 . S
C839 H853 0.958 . S
C839 H854 0.961 . S
C839 H855 0.960 . S
H840 C824 0.931 . S
H841 C829 0.929 . S
H842 C830 0.960 . S
H843 C830 0.962 . S
H844 C830 0.960 . S
H845 C831 0.961 . S
H846 C831 0.961 . S
H847 C831 0.961 . S
H848 C832 0.931 . S
H849 C837 0.930 . S
H850 C838 0.956 . S
H851 C838 0.961 . S
H852 C838 0.961 . S
H853 C839 0.958 . S
H854 C839 0.961 . S
H855 C839 0.960 . S
C856 C857 1.391 . S
C856 C858 1.394 . S
C856 H872 0.931 . S
C857 C856 1.391 . S
C857 C861 1.376 . S
C858 C856 1.394 . S
C858 C859 1.369 . S
C858 C862 1.531 . S
C859 C858 1.369 . S
C859 C860 1.410 . S
C859 C867 1.503 . S
C860 C859 1.410 . S
C860 C861 1.392 . S
C860 C863 1.511 . S
C861 C857 1.376 . S
C861 C860 1.392 . S
C861 H873 0.929 . S
C862 C858 1.531 . S
C862 H874 0.960 . S
C862 H875 0.962 1_655 S
C862 H876 0.960 . S
C863 C860 1.511 . S
C863 H877 0.961 . S
C863 H878 0.961 . S
C863 H879 0.961 . S
C864 C865 1.370 . S
C864 C866 1.363 . S
C864 H880 0.931 1_655 S
C865 C864 1.370 . S
C865 C869 1.408 . S
C866 C864 1.363 . S
C866 C867 1.370 . S
C866 C870 1.524 . S
C867 C859 1.503 . S
C867 C866 1.370 . S
C867 C868 1.403 . S
C868 C867 1.403 . S
C868 C869 1.404 . S
C868 C871 1.539 . S
C869 C865 1.408 . S
C869 C868 1.404 . S
C869 H881 0.930 . S
C870 C866 1.524 . S
C870 H882 0.945 1_655 S
C870 H883 0.961 . S
C870 H884 0.961 1_655 S
C871 C868 1.539 . S
C871 H885 0.958 . S
C871 H886 0.961 . S
C871 H887 0.960 . S
H872 C856 0.931 . S
H873 C861 0.929 . S
H874 C862 0.960 . S
H875 C862 0.962 1_455 S
H876 C862 0.960 . S
H877 C863 0.961 . S
H878 C863 0.961 . S
H879 C863 0.961 . S
H880 C864 0.931 1_455 S
H881 C869 0.930 . S
H882 C870 0.945 1_455 S
H883 C870 0.961 . S
H884 C870 0.961 1_455 S
H885 C871 0.958 . S
H886 C871 0.961 . S
H887 C871 0.960 . S
C888 C889 1.391 . S
C888 C890 1.394 . S
C888 H904 0.931 . S
C889 C888 1.391 . S
C889 C893 1.376 . S
C890 C888 1.394 . S
C890 C891 1.369 . S
C890 C894 1.531 . S
C891 C890 1.369 . S
C891 C892 1.410 . S
C891 C899 1.503 . S
C892 C891 1.410 . S
C892 C893 1.392 . S
C892 C895 1.511 . S
C893 C889 1.376 . S
C893 C892 1.392 . S
C893 H905 0.929 . S
C894 C890 1.531 . S
C894 H906 0.960 . S
C894 H907 0.962 . S
C894 H908 0.960 . S
C895 C892 1.511 . S
C895 H909 0.961 . S
C895 H910 0.961 . S
C895 H911 0.961 . S
C896 C897 1.370 . S
C896 C898 1.363 . S
C896 H912 0.931 . S
C897 C896 1.370 . S
C897 C901 1.408 . S
C898 C896 1.363 . S
C898 C899 1.370 . S
C898 C902 1.524 . S
C899 C891 1.503 . S
C899 C898 1.370 . S
C899 C900 1.403 . S
C900 C899 1.403 . S
C900 C901 1.404 . S
C900 C903 1.539 . S
C901 C897 1.408 . S
C901 C900 1.404 . S
C901 H913 0.930 . S
C902 C898 1.524 . S
C902 H914 0.956 . S
C902 H915 0.961 . S
C902 H916 0.961 . S
C903 C900 1.539 . S
C903 H917 0.958 . S
C903 H918 0.961 . S
C903 H919 0.960 . S
H904 C888 0.931 . S
H905 C893 0.929 . S
H906 C894 0.960 . S
H907 C894 0.962 . S
H908 C894 0.960 . S
H909 C895 0.961 . S
H910 C895 0.961 . S
H911 C895 0.961 . S
H912 C896 0.931 . S
H913 C901 0.930 . S
H914 C902 0.956 . S
H915 C902 0.961 . S
H916 C902 0.961 . S
H917 C903 0.958 . S
H918 C903 0.961 . S
H919 C903 0.960 . S
C920 C921 1.391 . S
C920 C922 1.394 . S
C920 H936 0.931 . S
C921 C920 1.391 . S
C921 C925 1.376 . S
C922 C920 1.394 . S
C922 C923 1.369 . S
C922 C926 1.531 . S
C923 C922 1.369 . S
C923 C924 1.410 . S
C923 C931 1.503 . S
C924 C923 1.410 . S
C924 C925 1.392 . S
C924 C927 1.511 . S
C925 C921 1.376 . S
C925 C924 1.392 . S
C925 H937 0.929 . S
C926 C922 1.531 . S
C926 H938 0.960 . S
C926 H939 0.962 . S
C926 H940 0.960 . S
C927 C924 1.511 . S
C927 H941 0.961 . S
C927 H942 0.961 . S
C927 H943 0.961 . S
C928 C929 1.370 . S
C928 C930 1.363 . S
C928 H944 0.931 . S
C929 C928 1.370 . S
C929 C933 1.408 . S
C930 C928 1.363 . S
C930 C931 1.370 . S
C930 C934 1.524 . S
C931 C923 1.503 . S
C931 C930 1.370 . S
C931 C932 1.403 . S
C932 C931 1.403 . S
C932 C933 1.404 . S
C932 C935 1.539 . S
C933 C929 1.408 . S
C933 C932 1.404 . S
C933 H945 0.930 . S
C934 C930 1.524 . S
C934 H946 0.956 . S
C934 H947 0.961 . S
C934 H948 0.961 . S
C935 C932 1.539 . S
C935 H949 0.958 . S
C935 H950 0.961 . S
C935 H951 0.960 . S
H936 C920 0.931 . S
H937 C925 0.929 . S
H938 C926 0.960 . S
H939 C926 0.962 . S
H940 C926 0.960 . S
H941 C927 0.961 . S
H942 C927 0.961 . S
H943 C927 0.961 . S
H944 C928 0.931 . S
H945 C933 0.930 . S
H946 C934 0.956 . S
H947 C934 0.961 . S
H948 C934 0.961 . S
H949 C935 0.958 . S
H950 C935 0.961 . S
H951 C935 0.960 . S
C952 C953 1.391 . S
C952 C954 1.394 1_556 S
C952 H968 0.931 . S
C953 C952 1.391 . S
C953 C957 1.376 . S
C954 C952 1.394 1_554 S
C954 C955 1.369 1_554 S
C954 C958 1.531 . S
C955 C954 1.369 1_556 S
C955 C956 1.410 . S
C955 C963 1.503 1_556 S
C956 C955 1.410 . S
C956 C957 1.392 . S
C956 C959 1.511 . S
C957 C953 1.376 . S
C957 C956 1.392 . S
C957 H969 0.929 . S
C958 C954 1.531 . S
C958 H970 0.960 . S
C958 H971 0.962 . S
C958 H972 0.960 . S
C959 C956 1.511 . S
C959 H973 0.961 . S
C959 H974 0.961 . S
C959 H975 0.961 . S
C960 C961 1.370 . S
C960 C962 1.344 1_554 S
C960 H976 0.931 . S
C961 C960 1.370 . S
C961 C965 1.408 1_565 S
C962 C960 1.344 1_556 S
C962 C963 1.374 1_566 S
C962 C966 1.541 . S
C963 C955 1.503 1_554 S
C963 C962 1.374 1_544 S
C963 C964 1.403 . S
C964 C963 1.403 . S
C964 C965 1.404 . S
C964 C967 1.539 . S
C965 C961 1.408 1_545 S
C965 C964 1.404 . S
C965 H977 0.930 . S
C966 C962 1.541 . S
C966 H978 0.956 . S
C966 H979 0.961 . S
C966 H980 0.961 . S
C967 C964 1.539 . S
C967 H981 0.958 . S
C967 H982 0.961 . S
C967 H983 0.960 . S
H968 C952 0.931 . S
H969 C957 0.929 . S
H970 C958 0.960 . S
H971 C958 0.962 . S
H972 C958 0.960 . S
H973 C959 0.961 . S
H974 C959 0.961 . S
H975 C959 0.961 . S
H976 C960 0.931 . S
H977 C965 0.930 . S
H978 C966 0.956 . S
H979 C966 0.961 . S
H980 C966 0.961 . S
H981 C967 0.958 . S
H982 C967 0.961 . S
H983 C967 0.960 . S
C984 C985 1.391 . S
C984 C986 1.394 . S
C984 H1000 0.931 . S
C985 C984 1.391 . S
C985 C989 1.376 . S
C986 C984 1.394 . S
C986 C987 1.369 . S
C986 C990 1.531 . S
C987 C986 1.369 . S
C987 C988 1.410 . S
C987 C995 1.503 . S
C988 C987 1.410 . S
C988 C989 1.392 . S
C988 C991 1.511 . S
C989 C985 1.376 . S
C989 C988 1.392 . S
C989 H1001 0.929 . S
C990 C986 1.531 . S
C990 H1002 0.960 . S
C990 H1003 0.962 . S
C990 H1004 0.960 . S
C991 C988 1.511 . S
C991 H1005 0.961 . S
C991 H1006 0.961 . S
C991 H1007 0.961 . S
C992 C993 1.370 . S
C992 C994 1.363 . S
C992 H1008 0.931 . S
C993 C992 1.370 . S
C993 C997 1.408 . S
C994 C992 1.363 . S
C994 C995 1.370 . S
C994 C998 1.524 . S
C995 C987 1.503 . S
C995 C994 1.370 . S
C995 C996 1.403 . S
C996 C995 1.403 . S
C996 C997 1.404 . S
C996 C999 1.539 . S
C997 C993 1.408 . S
C997 C996 1.404 . S
C997 H1009 0.930 . S
C998 C994 1.524 . S
C998 H1010 0.956 . S
C998 H1011 0.961 . S
C998 H1012 0.961 . S
C999 C996 1.539 . S
C999 H1013 0.958 . S
C999 H1014 0.961 . S
C999 H1015 0.960 . S
H1000 C984 0.931 . S
H1001 C989 0.929 . S
H1002 C990 0.960 . S
H1003 C990 0.962 . S
H1004 C990 0.960 . S
H1005 C991 0.961 . S
H1006 C991 0.961 . S
H1007 C991 0.961 . S
H1008 C992 0.931 . S
H1009 C997 0.930 . S
H1010 C998 0.956 . S
H1011 C998 0.961 . S
H1012 C998 0.961 . S
H1013 C999 0.958 . S
H1014 C999 0.961 . S
H1015 C999 0.960 . S
C1016 C1017 1.391 1_545 S
C1016 C1018 1.394 . S
C1016 H1032 0.931 . S
C1017 C1016 1.391 1_565 S
C1017 C1021 1.376 . S
C1018 C1016 1.394 . S
C1018 C1019 1.369 . S
C1018 C1022 1.531 . S
C1019 C1018 1.369 . S
C1019 C1020 1.410 1_545 S
C1019 C1027 1.503 . S
C1020 C1019 1.410 1_565 S
C1020 C1021 1.392 . S
C1020 C1023 1.511 . S
C1021 C1017 1.376 . S
C1021 C1020 1.392 . S
C1021 H1033 0.929 . S
C1022 C1018 1.531 . S
C1022 H1034 0.960 . S
C1022 H1035 0.962 . S
C1022 H1036 0.960 . S
C1023 C1020 1.511 . S
C1023 H1037 0.961 . S
C1023 H1038 0.951 1_565 S
C1023 H1039 0.961 . S
C1024 C1025 1.370 . S
C1024 C1026 1.363 . S
C1024 H1040 0.931 . S
C1025 C1024 1.370 . S
C1025 C1029 1.408 . S
C1026 C1024 1.363 . S
C1026 C1027 1.370 . S
C1026 C1030 1.524 . S
C1027 C1019 1.503 . S
C1027 C1026 1.370 . S
C1027 C1028 1.403 . S
C1028 C1027 1.403 . S
C1028 C1029 1.404 . S
C1028 C1031 1.539 . S
C1029 C1025 1.408 . S
C1029 C1028 1.404 . S
C1029 H1041 0.930 . S
C1030 C1026 1.524 . S
C1030 H1042 0.956 . S
C1030 H1043 0.961 . S
C1030 H1044 0.961 . S
C1031 C1028 1.539 . S
C1031 H1045 0.958 . S
C1031 H1046 0.961 . S
C1031 H1047 0.960 . S
H1032 C1016 0.931 . S
H1033 C1021 0.929 . S
H1034 C1022 0.960 . S
H1035 C1022 0.962 . S
H1036 C1022 0.960 . S
H1037 C1023 0.961 . S
H1038 C1023 0.951 1_545 S
H1039 C1023 0.961 . S
H1040 C1024 0.931 . S
H1041 C1029 0.930 . S
H1042 C1030 0.956 . S
H1043 C1030 0.961 . S
H1044 C1030 0.961 . S
H1045 C1031 0.958 . S
H1046 C1031 0.961 . S
H1047 C1031 0.960 . S
C1048 C1049 1.391 . S
C1048 C1050 1.394 . S
C1048 H1064 0.931 . S
C1049 C1048 1.391 . S
C1049 C1053 1.376 . S
C1050 C1048 1.394 . S
C1050 C1051 1.369 . S
C1050 C1054 1.531 . S
C1051 C1050 1.369 . S
C1051 C1052 1.410 . S
C1051 C1059 1.503 . S
C1052 C1051 1.410 . S
C1052 C1053 1.392 . S
C1052 C1055 1.511 . S
C1053 C1049 1.376 . S
C1053 C1052 1.392 . S
C1053 H1065 0.929 . S
C1054 C1050 1.531 . S
C1054 H1066 0.960 . S
C1054 H1067 0.962 . S
C1054 H1068 0.960 . S
C1055 C1052 1.511 . S
C1055 H1069 0.961 . S
C1055 H1070 0.961 . S
C1055 H1071 0.961 . S
C1056 C1057 1.370 . S
C1056 C1058 1.363 . S
C1056 H1072 0.931 . S
C1057 C1056 1.370 . S
C1057 C1061 1.408 . S
C1058 C1056 1.363 . S
C1058 C1059 1.370 . S
C1058 C1062 1.524 . S
C1059 C1051 1.503 . S
C1059 C1058 1.370 . S
C1059 C1060 1.403 . S
C1060 C1059 1.403 . S
C1060 C1061 1.404 . S
C1060 C1063 1.539 . S
C1061 C1057 1.408 . S
C1061 C1060 1.404 . S
C1061 H1073 0.930 . S
C1062 C1058 1.524 . S
C1062 H1074 0.956 . S
C1062 H1075 0.961 . S
C1062 H1076 0.961 . S
C1063 C1060 1.539 . S
C1063 H1077 0.958 . S
C1063 H1078 0.961 . S
C1063 H1079 0.960 . S
H1064 C1048 0.931 . S
H1065 C1053 0.929 . S
H1066 C1054 0.960 . S
H1067 C1054 0.962 . S
H1068 C1054 0.960 . S
H1069 C1055 0.961 . S
H1070 C1055 0.961 . S
H1071 C1055 0.961 . S
H1072 C1056 0.931 . S
H1073 C1061 0.930 . S
H1074 C1062 0.956 . S
H1075 C1062 0.961 . S
H1076 C1062 0.961 . S
H1077 C1063 0.958 . S
H1078 C1063 0.961 . S
H1079 C1063 0.960 . S
C1080 C1081 1.391 . S
C1080 C1082 1.394 . S
C1080 H1096 0.931 . S
C1081 C1080 1.391 . S
C1081 C1085 1.376 . S
C1082 C1080 1.394 . S
C1082 C1083 1.369 1_565 S
C1082 C1086 1.531 . S
C1083 C1082 1.369 1_545 S
C1083 C1084 1.410 . S
C1083 C1091 1.503 . S
C1084 C1083 1.410 . S
C1084 C1085 1.392 1_545 S
C1084 C1087 1.511 . S
C1085 C1081 1.376 . S
C1085 C1084 1.392 1_565 S
C1085 H1097 0.929 . S
C1086 C1082 1.531 . S
C1086 H1098 0.960 1_565 S
C1086 H1099 0.962 . S
C1086 H1100 0.960 . S
C1087 C1084 1.511 . S
C1087 H1101 0.961 . S
C1087 H1102 0.961 . S
C1087 H1103 0.961 . S
C1088 C1089 1.370 . S
C1088 C1090 1.363 . S
C1088 H1104 0.931 . S
C1089 C1088 1.370 . S
C1089 C1093 1.408 . S
C1090 C1088 1.363 . S
C1090 C1091 1.370 . S
C1090 C1094 1.524 1_545 S
C1091 C1083 1.503 . S
C1091 C1090 1.370 . S
C1091 C1092 1.403 . S
C1092 C1091 1.403 . S
C1092 C1093 1.404 . S
C1092 C1095 1.539 . S
C1093 C1089 1.408 . S
C1093 C1092 1.404 . S
C1093 H1105 0.930 . S
C1094 C1090 1.524 1_565 S
C1094 H1106 0.956 . S
C1094 H1107 0.961 . S
C1094 H1108 0.967 . S
C1095 C1092 1.539 . S
C1095 H1109 0.958 . S
C1095 H1110 0.961 . S
C1095 H1111 0.960 . S
H1096 C1080 0.931 . S
H1097 C1085 0.929 . S
H1098 C1086 0.960 1_545 S
H1099 C1086 0.962 . S
H1100 C1086 0.960 . S
H1101 C1087 0.961 . S
H1102 C1087 0.961 . S
H1103 C1087 0.961 . S
H1104 C1088 0.931 . S
H1105 C1093 0.930 . S
H1106 C1094 0.956 . S
H1107 C1094 0.961 . S
H1108 C1094 0.967 . S
H1109 C1095 0.958 . S
H1110 C1095 0.961 . S
H1111 C1095 0.960 . S
C1112 C1113 1.391 . S
C1112 C1114 1.394 . S
C1112 H1128 0.931 . S
C1113 C1112 1.391 . S
C1113 C1117 1.376 . S
C1114 C1112 1.394 . S
C1114 C1115 1.369 . S
C1114 C1118 1.531 . S
C1115 C1114 1.369 . S
C1115 C1116 1.410 . S
C1115 C1123 1.503 . S
C1116 C1115 1.410 . S
C1116 C1117 1.392 . S
C1116 C1119 1.511 . S
C1117 C1113 1.376 . S
C1117 C1116 1.392 . S
C1117 H1129 0.929 . S
C1118 C1114 1.531 . S
C1118 H1130 0.960 . S
C1118 H1131 0.962 . S
C1118 H1132 0.960 . S
C1119 C1116 1.511 . S
C1119 H1133 0.961 . S
C1119 H1134 0.961 . S
C1119 H1135 0.961 . S
C1120 C1121 1.370 . S
C1120 C1122 1.363 . S
C1120 H1136 0.931 . S
C1121 C1120 1.370 . S
C1121 C1125 1.408 . S
C1122 C1120 1.363 . S
C1122 C1123 1.370 . S
C1122 C1126 1.524 . S
C1123 C1115 1.503 . S
C1123 C1122 1.370 . S
C1123 C1124 1.403 . S
C1124 C1123 1.403 . S
C1124 C1125 1.404 . S
C1124 C1127 1.539 . S
C1125 C1121 1.408 . S
C1125 C1124 1.404 . S
C1125 H1137 0.930 . S
C1126 C1122 1.524 . S
C1126 H1138 0.956 . S
C1126 H1139 0.961 . S
C1126 H1140 0.961 . S
C1127 C1124 1.539 . S
C1127 H1141 0.958 . S
C1127 H1142 0.961 . S
C1127 H1143 0.960 . S
H1128 C1112 0.931 . S
H1129 C1117 0.929 . S
H1130 C1118 0.960 . S
H1131 C1118 0.962 . S
H1132 C1118 0.960 . S
H1133 C1119 0.961 . S
H1134 C1119 0.961 . S
H1135 C1119 0.961 . S
H1136 C1120 0.931 . S
H1137 C1125 0.930 . S
H1138 C1126 0.956 . S
H1139 C1126 0.961 . S
H1140 C1126 0.961 . S
H1141 C1127 0.958 . S
H1142 C1127 0.961 . S
H1143 C1127 0.960 . S
C1144 C1145 1.391 . S
C1144 C1146 1.394 . S
C1144 H1160 0.931 . S
C1145 C1144 1.391 . S
C1145 C1149 1.376 . S
C1146 C1144 1.394 . S
C1146 C1147 1.369 . S
C1146 C1150 1.531 . S
C1147 C1146 1.369 . S
C1147 C1148 1.410 . S
C1147 C1155 1.503 . S
C1148 C1147 1.410 . S
C1148 C1149 1.392 . S
C1148 C1151 1.511 . S
C1149 C1145 1.376 . S
C1149 C1148 1.392 . S
C1149 H1161 0.929 . S
C1150 C1146 1.531 . S
C1150 H1162 0.960 . S
C1150 H1163 0.962 . S
C1150 H1164 0.960 . S
C1151 C1148 1.511 . S
C1151 H1165 0.961 . S
C1151 H1166 0.961 . S
C1151 H1167 0.961 . S
C1152 C1153 1.370 . S
C1152 C1154 1.363 . S
C1152 H1168 0.931 . S
C1153 C1152 1.370 . S
C1153 C1157 1.408 . S
C1154 C1152 1.363 . S
C1154 C1155 1.370 . S
C1154 C1158 1.524 . S
C1155 C1147 1.503 . S
C1155 C1154 1.370 . S
C1155 C1156 1.403 . S
C1156 C1155 1.403 . S
C1156 C1157 1.404 . S
C1156 C1159 1.539 . S
C1157 C1153 1.408 . S
C1157 C1156 1.404 . S
C1157 H1169 0.930 . S
C1158 C1154 1.524 . S
C1158 H1170 0.956 . S
C1158 H1171 0.961 . S
C1158 H1172 0.961 . S
C1159 C1156 1.539 . S
C1159 H1173 0.958 . S
C1159 H1174 0.961 . S
C1159 H1175 0.960 . S
H1160 C1144 0.931 . S
H1161 C1149 0.929 . S
H1162 C1150 0.960 . S
H1163 C1150 0.962 . S
H1164 C1150 0.960 . S
H1165 C1151 0.961 . S
H1166 C1151 0.961 . S
H1167 C1151 0.961 . S
H1168 C1152 0.931 . S
H1169 C1157 0.930 . S
H1170 C1158 0.956 . S
H1171 C1158 0.961 . S
H1172 C1158 0.961 . S
H1173 C1159 0.958 . S
H1174 C1159 0.961 . S
H1175 C1159 0.960 . S
C1176 C1177 1.391 . S
C1176 C1178 1.394 . S
C1176 H1192 0.931 . S
C1177 C1176 1.391 . S
C1177 C1181 1.376 . S
C1178 C1176 1.394 . S
C1178 C1179 1.369 . S
C1178 C1182 1.531 . S
C1179 C1178 1.369 . S
C1179 C1180 1.410 . S
C1179 C1187 1.503 . S
C1180 C1179 1.410 . S
C1180 C1181 1.392 . S
C1180 C1183 1.511 . S
C1181 C1177 1.376 . S
C1181 C1180 1.392 . S
C1181 H1193 0.929 . S
C1182 C1178 1.531 . S
C1182 H1194 0.960 . S
C1182 H1195 0.962 . S
C1182 H1196 0.960 . S
C1183 C1180 1.511 . S
C1183 H1197 0.961 . S
C1183 H1198 0.961 . S
C1183 H1199 0.961 . S
C1184 C1185 1.370 . S
C1184 C1186 1.363 . S
C1184 H1200 0.931 . S
C1185 C1184 1.370 . S
C1185 C1189 1.408 . S
C1186 C1184 1.363 . S
C1186 C1187 1.370 . S
C1186 C1190 1.524 . S
C1187 C1179 1.503 . S
C1187 C1186 1.370 . S
C1187 C1188 1.403 . S
C1188 C1187 1.403 . S
C1188 C1189 1.404 . S
C1188 C1191 1.539 . S
C1189 C1185 1.408 . S
C1189 C1188 1.404 . S
C1189 H1201 0.930 . S
C1190 C1186 1.524 . S
C1190 H1202 0.956 . S
C1190 H1203 0.961 . S
C1190 H1204 0.961 . S
C1191 C1188 1.539 . S
C1191 H1205 0.958 . S
C1191 H1206 0.961 . S
C1191 H1207 0.960 . S
H1192 C1176 0.931 . S
H1193 C1181 0.929 . S
H1194 C1182 0.960 . S
H1195 C1182 0.962 . S
H1196 C1182 0.960 . S
H1197 C1183 0.961 . S
H1198 C1183 0.961 . S
H1199 C1183 0.961 . S
H1200 C1184 0.931 . S
H1201 C1189 0.930 . S
H1202 C1190 0.956 . S
H1203 C1190 0.961 . S
H1204 C1190 0.961 . S
H1205 C1191 0.958 . S
H1206 C1191 0.961 . S
H1207 C1191 0.960 . S
C1208 C1209 1.391 . S
C1208 C1210 1.394 . S
C1208 H1224 0.931 . S
C1209 C1208 1.391 . S
C1209 C1213 1.376 . S
C1210 C1208 1.394 . S
C1210 C1211 1.369 . S
C1210 C1214 1.531 . S
C1211 C1210 1.369 . S
C1211 C1212 1.410 . S
C1211 C1219 1.503 . S
C1212 C1211 1.410 . S
C1212 C1213 1.392 . S
C1212 C1215 1.511 . S
C1213 C1209 1.376 . S
C1213 C1212 1.392 . S
C1213 H1225 0.929 . S
C1214 C1210 1.531 . S
C1214 H1226 0.960 . S
C1214 H1227 0.962 . S
C1214 H1228 0.960 . S
C1215 C1212 1.511 . S
C1215 H1229 0.961 . S
C1215 H1230 0.961 . S
C1215 H1231 0.961 . S
C1216 C1217 1.370 . S
C1216 C1218 1.363 . S
C1216 H1232 0.931 . S
C1217 C1216 1.370 . S
C1217 C1221 1.408 . S
C1218 C1216 1.363 . S
C1218 C1219 1.370 . S
C1218 C1222 1.524 . S
C1219 C1211 1.503 . S
C1219 C1218 1.370 . S
C1219 C1220 1.403 . S
C1220 C1219 1.403 . S
C1220 C1221 1.404 . S
C1220 C1223 1.539 . S
C1221 C1217 1.408 . S
C1221 C1220 1.404 . S
C1221 H1233 0.930 . S
C1222 C1218 1.524 . S
C1222 H1234 0.956 . S
C1222 H1235 0.961 . S
C1222 H1236 0.961 . S
C1223 C1220 1.539 . S
C1223 H1237 0.958 . S
C1223 H1238 0.961 . S
C1223 H1239 0.960 . S
H1224 C1208 0.931 . S
H1225 C1213 0.929 . S
H1226 C1214 0.960 . S
H1227 C1214 0.962 . S
H1228 C1214 0.960 . S
H1229 C1215 0.961 . S
H1230 C1215 0.961 . S
H1231 C1215 0.961 . S
H1232 C1216 0.931 . S
H1233 C1221 0.930 . S
H1234 C1222 0.956 . S
H1235 C1222 0.961 . S
H1236 C1222 0.961 . S
H1237 C1223 0.958 . S
H1238 C1223 0.961 . S
H1239 C1223 0.960 . S
C1240 C1241 1.391 . S
C1240 C1242 1.394 . S
C1240 H1256 0.931 . S
C1241 C1240 1.391 . S
C1241 C1245 1.376 . S
C1242 C1240 1.394 . S
C1242 C1243 1.369 . S
C1242 C1246 1.531 . S
C1243 C1242 1.369 . S
C1243 C1244 1.410 . S
C1243 C1251 1.503 . S
C1244 C1243 1.410 . S
C1244 C1245 1.392 . S
C1244 C1247 1.511 . S
C1245 C1241 1.376 . S
C1245 C1244 1.392 . S
C1245 H1257 0.929 . S
C1246 C1242 1.531 . S
C1246 H1258 0.960 . S
C1246 H1259 0.962 . S
C1246 H1260 0.960 . S
C1247 C1244 1.511 . S
C1247 H1261 0.961 . S
C1247 H1262 0.961 . S
C1247 H1263 0.961 . S
C1248 C1249 1.370 . S
C1248 C1250 1.363 . S
C1248 H1264 0.931 . S
C1249 C1248 1.370 . S
C1249 C1253 1.408 . S
C1250 C1248 1.363 . S
C1250 C1251 1.370 . S
C1250 C1254 1.524 . S
C1251 C1243 1.503 . S
C1251 C1250 1.370 . S
C1251 C1252 1.403 . S
C1252 C1251 1.403 . S
C1252 C1253 1.404 . S
C1252 C1255 1.539 . S
C1253 C1249 1.408 . S
C1253 C1252 1.404 . S
C1253 H1265 0.930 . S
C1254 C1250 1.524 . S
C1254 H1266 0.956 . S
C1254 H1267 0.961 . S
C1254 H1268 0.961 . S
C1255 C1252 1.539 . S
C1255 H1269 0.958 . S
C1255 H1270 0.961 . S
C1255 H1271 0.960 . S
H1256 C1240 0.931 . S
H1257 C1245 0.929 . S
H1258 C1246 0.960 . S
H1259 C1246 0.962 . S
H1260 C1246 0.960 . S
H1261 C1247 0.961 . S
H1262 C1247 0.961 . S
H1263 C1247 0.961 . S
H1264 C1248 0.931 . S
H1265 C1253 0.930 . S
H1266 C1254 0.956 . S
H1267 C1254 0.961 . S
H1268 C1254 0.961 . S
H1269 C1255 0.958 . S
H1270 C1255 0.961 . S
H1271 C1255 0.960 . S
C1272 C1273 1.391 . S
C1272 C1274 1.394 . S
C1272 H1288 0.931 . S
C1273 C1272 1.391 . S
C1273 C1277 1.376 . S
C1274 C1272 1.394 . S
C1274 C1275 1.369 . S
C1274 C1278 1.531 . S
C1275 C1274 1.369 . S
C1275 C1276 1.410 . S
C1275 C1283 1.503 . S
C1276 C1275 1.410 . S
C1276 C1277 1.392 . S
C1276 C1279 1.511 . S
C1277 C1273 1.376 . S
C1277 C1276 1.392 . S
C1277 H1289 0.929 . S
C1278 C1274 1.531 . S
C1278 H1290 0.960 . S
C1278 H1291 0.962 . S
C1278 H1292 0.960 . S
C1279 C1276 1.511 . S
C1279 H1293 0.961 . S
C1279 H1294 0.961 . S
C1279 H1295 0.961 . S
C1280 C1281 1.370 . S
C1280 C1282 1.363 . S
C1280 H1296 0.931 . S
C1281 C1280 1.370 . S
C1281 C1285 1.408 . S
C1282 C1280 1.363 . S
C1282 C1283 1.370 . S
C1282 C1286 1.524 . S
C1283 C1275 1.503 . S
C1283 C1282 1.370 . S
C1283 C1284 1.403 . S
C1284 C1283 1.403 . S
C1284 C1285 1.404 . S
C1284 C1287 1.539 . S
C1285 C1281 1.408 . S
C1285 C1284 1.404 . S
C1285 H1297 0.930 . S
C1286 C1282 1.524 . S
C1286 H1298 0.956 . S
C1286 H1299 0.961 . S
C1286 H1300 0.961 . S
C1287 C1284 1.539 . S
C1287 H1301 0.958 . S
C1287 H1302 0.961 . S
C1287 H1303 0.960 . S
H1288 C1272 0.931 . S
H1289 C1277 0.929 . S
H1290 C1278 0.960 . S
H1291 C1278 0.962 . S
H1292 C1278 0.960 . S
H1293 C1279 0.961 . S
H1294 C1279 0.961 . S
H1295 C1279 0.961 . S
H1296 C1280 0.931 . S
H1297 C1285 0.930 . S
H1298 C1286 0.956 . S
H1299 C1286 0.961 . S
H1300 C1286 0.961 . S
H1301 C1287 0.958 . S
H1302 C1287 0.961 . S
H1303 C1287 0.960 . S
C1304 C1305 1.391 . S
C1304 C1306 1.394 . S
C1304 H1320 0.931 . S
C1305 C1304 1.391 . S
C1305 C1309 1.376 . S
C1306 C1304 1.394 . S
C1306 C1307 1.369 . S
C1306 C1310 1.531 . S
C1307 C1306 1.369 . S
C1307 C1308 1.410 . S
C1307 C1315 1.503 1_455 S
C1308 C1307 1.410 . S
C1308 C1309 1.392 . S
C1308 C1311 1.511 1_455 S
C1309 C1305 1.376 . S
C1309 C1308 1.392 . S
C1309 H1321 0.929 . S
C1310 C1306 1.531 . S
C1310 H1322 0.960 . S
C1310 H1323 0.962 . S
C1310 H1324 0.960 . S
C1311 C1308 1.511 1_655 S
C1311 H1325 0.984 . S
C1311 H1326 0.961 . S
C1311 H1327 0.961 . S
C1312 C1313 1.370 . S
C1312 C1314 1.363 . S
C1312 H1328 0.931 . S
C1313 C1312 1.370 . S
C1313 C1317 1.408 . S
C1314 C1312 1.363 . S
C1314 C1315 1.370 . S
C1314 C1318 1.524 1_655 S
C1315 C1307 1.503 1_655 S
C1315 C1314 1.370 . S
C1315 C1316 1.403 . S
C1316 C1315 1.403 . S
C1316 C1317 1.404 . S
C1316 C1319 1.539 . S
C1317 C1313 1.408 . S
C1317 C1316 1.404 . S
C1317 H1329 0.930 . S
C1318 C1314 1.524 1_455 S
C1318 H1330 0.956 . S
C1318 H1331 0.961 . S
C1318 H1332 0.961 . S
C1319 C1316 1.539 . S
C1319 H1333 0.958 . S
C1319 H1334 0.961 . S
C1319 H1335 0.960 . S
H1320 C1304 0.931 . S
H1321 C1309 0.929 . S
H1322 C1310 0.960 . S
H1323 C1310 0.962 . S
H1324 C1310 0.960 . S
H1325 C1311 0.984 . S
H1326 C1311 0.961 . S
H1327 C1311 0.961 . S
H1328 C1312 0.931 . S
H1329 C1317 0.930 . S
H1330 C1318 0.956 . S
H1331 C1318 0.961 . S
H1332 C1318 0.961 . S
H1333 C1319 0.958 . S
H1334 C1319 0.961 . S
H1335 C1319 0.960 . S
C1336 C1337 1.391 . S
C1336 C1338 1.394 . S
C1336 H1352 0.931 . S
C1337 C1336 1.391 . S
C1337 C1341 1.376 . S
C1338 C1336 1.394 . S
C1338 C1339 1.369 . S
C1338 C1342 1.531 . S
C1339 C1338 1.369 . S
C1339 C1340 1.410 . S
C1339 C1347 1.503 . S
C1340 C1339 1.410 . S
C1340 C1341 1.392 . S
C1340 C1343 1.511 . S
C1341 C1337 1.376 . S
C1341 C1340 1.392 . S
C1341 H1353 0.929 . S
C1342 C1338 1.531 . S
C1342 H1354 0.960 . S
C1342 H1355 0.962 . S
C1342 H1356 0.960 . S
C1343 C1340 1.511 . S
C1343 H1357 0.961 . S
C1343 H1358 0.961 . S
C1343 H1359 0.961 . S
C1344 C1345 1.370 . S
C1344 C1346 1.363 . S
C1344 H1360 0.931 . S
C1345 C1344 1.370 . S
C1345 C1349 1.408 . S
C1346 C1344 1.363 . S
C1346 C1347 1.370 . S
C1346 C1350 1.524 . S
C1347 C1339 1.503 . S
C1347 C1346 1.370 . S
C1347 C1348 1.403 . S
C1348 C1347 1.403 . S
C1348 C1349 1.404 . S
C1348 C1351 1.539 . S
C1349 C1345 1.408 . S
C1349 C1348 1.404 . S
C1349 H1361 0.930 . S
C1350 C1346 1.524 . S
C1350 H1362 0.956 . S
C1350 H1363 0.961 . S
C1350 H1364 0.961 . S
C1351 C1348 1.539 . S
C1351 H1365 0.958 . S
C1351 H1366 0.961 . S
C1351 H1367 0.960 . S
H1352 C1336 0.931 . S
H1353 C1341 0.929 . S
H1354 C1342 0.960 . S
H1355 C1342 0.962 . S
H1356 C1342 0.960 . S
H1357 C1343 0.961 . S
H1358 C1343 0.961 . S
H1359 C1343 0.961 . S
H1360 C1344 0.931 . S
H1361 C1349 0.930 . S
H1362 C1350 0.956 . S
H1363 C1350 0.961 . S
H1364 C1350 0.961 . S
H1365 C1351 0.958 . S
H1366 C1351 0.961 . S
H1367 C1351 0.960 . S
C1368 C1369 1.391 . S
C1368 C1370 1.394 . S
C1368 H1384 0.931 . S
C1369 C1368 1.391 . S
C1369 C1373 1.376 . S
C1370 C1368 1.394 . S
C1370 C1371 1.369 . S
C1370 C1374 1.531 1_655 S
C1371 C1370 1.369 . S
C1371 C1372 1.410 . S
C1371 C1379 1.506 . S
C1372 C1371 1.410 . S
C1372 C1373 1.392 . S
C1372 C1375 1.511 . S
C1373 C1369 1.376 . S
C1373 C1372 1.392 . S
C1373 H1385 0.929 . S
C1374 C1370 1.531 1_455 S
C1374 H1386 0.960 . S
C1374 H1387 0.962 . S
C1374 H1388 0.960 . S
C1375 C1372 1.511 . S
C1375 H1389 0.961 . S
C1375 H1390 0.961 . S
C1375 H1391 0.961 . S
C1376 C1377 1.370 . S
C1376 C1378 1.363 . S
C1376 H1392 0.931 . S
C1377 C1376 1.370 . S
C1377 C1381 1.408 . S
C1378 C1376 1.363 . S
C1378 C1379 1.369 1_455 S
C1378 C1382 1.524 . S
C1379 C1371 1.506 . S
C1379 C1378 1.369 1_655 S
C1379 C1380 1.402 1_655 S
C1380 C1379 1.402 1_455 S
C1380 C1381 1.404 . S
C1380 C1383 1.539 1_455 S
C1381 C1377 1.408 . S
C1381 C1380 1.404 . S
C1381 H1393 0.930 . S
C1382 C1378 1.524 . S
C1382 H1394 0.956 . S
C1382 H1395 0.961 1_455 S
C1382 H1396 0.961 . S
C1383 C1380 1.539 1_655 S
C1383 H1397 0.958 1_655 S
C1383 H1398 0.961 . S
C1383 H1399 0.960 . S
H1384 C1368 0.931 . S
H1385 C1373 0.929 . S
H1386 C1374 0.960 . S
H1387 C1374 0.962 . S
H1388 C1374 0.960 . S
H1389 C1375 0.961 . S
H1390 C1375 0.961 . S
H1391 C1375 0.961 . S
H1392 C1376 0.931 . S
H1393 C1381 0.930 . S
H1394 C1382 0.956 . S
H1395 C1382 0.961 1_655 S
H1396 C1382 0.961 . S
H1397 C1383 0.958 1_455 S
H1398 C1383 0.961 . S
H1399 C1383 0.960 . S
C1400 C1401 1.391 . S
C1400 C1402 1.394 . S
C1400 H1416 0.931 . S
C1401 C1400 1.391 . S
C1401 C1405 1.376 . S
C1402 C1400 1.394 . S
C1402 C1403 1.369 . S
C1402 C1406 1.531 . S
C1403 C1402 1.369 . S
C1403 C1404 1.410 . S
C1403 C1411 1.503 . S
C1404 C1403 1.410 . S
C1404 C1405 1.392 . S
C1404 C1407 1.511 . S
C1405 C1401 1.376 . S
C1405 C1404 1.392 . S
C1405 H1417 0.929 . S
C1406 C1402 1.531 . S
C1406 H1418 0.960 . S
C1406 H1419 0.962 . S
C1406 H1420 0.960 . S
C1407 C1404 1.511 . S
C1407 H1421 0.961 . S
C1407 H1422 0.961 . S
C1407 H1423 0.961 . S
C1408 C1409 1.370 . S
C1408 C1410 1.363 . S
C1408 H1424 0.931 . S
C1409 C1408 1.370 . S
C1409 C1413 1.408 . S
C1410 C1408 1.363 . S
C1410 C1411 1.370 . S
C1410 C1414 1.524 . S
C1411 C1403 1.503 . S
C1411 C1410 1.370 . S
C1411 C1412 1.403 . S
C1412 C1411 1.403 . S
C1412 C1413 1.404 . S
C1412 C1415 1.539 . S
C1413 C1409 1.408 . S
C1413 C1412 1.404 . S
C1413 H1425 0.930 . S
C1414 C1410 1.524 . S
C1414 H1426 0.956 . S
C1414 H1427 0.961 . S
C1414 H1428 0.961 . S
C1415 C1412 1.539 . S
C1415 H1429 0.958 . S
C1415 H1430 0.961 . S
C1415 H1431 0.960 . S
H1416 C1400 0.931 . S
H1417 C1405 0.929 . S
H1418 C1406 0.960 . S
H1419 C1406 0.962 . S
H1420 C1406 0.960 . S
H1421 C1407 0.961 . S
H1422 C1407 0.961 . S
H1423 C1407 0.961 . S
H1424 C1408 0.931 . S
H1425 C1413 0.930 . S
H1426 C1414 0.956 . S
H1427 C1414 0.961 . S
H1428 C1414 0.961 . S
H1429 C1415 0.958 . S
H1430 C1415 0.961 . S
H1431 C1415 0.960 . S
C1432 C1433 1.391 . S
C1432 C1434 1.394 . S
C1432 H1448 0.931 . S
C1433 C1432 1.391 . S
C1433 C1437 1.376 . S
C1434 C1432 1.394 . S
C1434 C1435 1.369 . S
C1434 C1438 1.531 . S
C1435 C1434 1.369 . S
C1435 C1436 1.410 . S
C1435 C1443 1.503 . S
C1436 C1435 1.410 . S
C1436 C1437 1.392 . S
C1436 C1439 1.511 . S
C1437 C1433 1.376 . S
C1437 C1436 1.392 . S
C1437 H1449 0.929 . S
C1438 C1434 1.531 . S
C1438 H1450 0.960 . S
C1438 H1451 0.962 1_554 S
C1438 H1452 0.960 . S
C1439 C1436 1.511 . S
C1439 H1453 0.961 . S
C1439 H1454 0.961 . S
C1439 H1455 0.961 . S
C1440 C1441 1.370 . S
C1440 C1442 1.363 . S
C1440 H1456 0.931 . S
C1441 C1440 1.370 . S
C1441 C1445 1.408 . S
C1442 C1440 1.363 . S
C1442 C1443 1.370 1_556 S
C1442 C1446 1.524 . S
C1443 C1435 1.503 . S
C1443 C1442 1.370 1_554 S
C1443 C1444 1.403 . S
C1444 C1443 1.403 . S
C1444 C1445 1.404 1_554 S
C1444 C1447 1.539 . S
C1445 C1441 1.408 . S
C1445 C1444 1.404 1_556 S
C1445 H1457 0.930 . S
C1446 C1442 1.524 . S
C1446 H1458 0.956 . S
C1446 H1459 0.961 1_556 S
C1446 H1460 0.961 . S
C1447 C1444 1.539 . S
C1447 H1461 0.958 1_655 S
C1447 H1462 0.961 1_655 S
C1447 H1463 0.960 . S
H1448 C1432 0.931 . S
H1449 C1437 0.929 . S
H1450 C1438 0.960 . S
H1451 C1438 0.962 1_556 S
H1452 C1438 0.960 . S
H1453 C1439 0.961 . S
H1454 C1439 0.961 . S
H1455 C1439 0.961 . S
H1456 C1440 0.931 . S
H1457 C1445 0.930 . S
H1458 C1446 0.956 . S
H1459 C1446 0.961 1_554 S
H1460 C1446 0.961 . S
H1461 C1447 0.958 1_455 S
H1462 C1447 0.961 1_455 S
H1463 C1447 0.960 . S
C1464 C1465 1.391 . S
C1464 C1466 1.394 . S
C1464 H1480 0.931 . S
C1465 C1464 1.391 . S
C1465 C1469 1.376 . S
C1466 C1464 1.394 . S
C1466 C1467 1.369 . S
C1466 C1470 1.531 . S
C1467 C1466 1.369 . S
C1467 C1468 1.410 . S
C1467 C1475 1.503 . S
C1468 C1467 1.410 . S
C1468 C1469 1.392 . S
C1468 C1471 1.511 . S
C1469 C1465 1.376 . S
C1469 C1468 1.392 . S
C1469 H1481 0.929 . S
C1470 C1466 1.531 . S
C1470 H1482 0.960 . S
C1470 H1483 0.962 . S
C1470 H1484 0.960 . S
C1471 C1468 1.511 . S
C1471 H1485 0.961 . S
C1471 H1486 0.961 . S
C1471 H1487 0.961 . S
C1472 C1473 1.370 . S
C1472 C1474 1.363 . S
C1472 H1488 0.931 . S
C1473 C1472 1.370 . S
C1473 C1477 1.408 . S
C1474 C1472 1.363 . S
C1474 C1475 1.370 . S
C1474 C1478 1.524 . S
C1475 C1467 1.503 . S
C1475 C1474 1.370 . S
C1475 C1476 1.403 . S
C1476 C1475 1.403 . S
C1476 C1477 1.404 . S
C1476 C1479 1.539 . S
C1477 C1473 1.408 . S
C1477 C1476 1.404 . S
C1477 H1489 0.930 . S
C1478 C1474 1.524 . S
C1478 H1490 0.956 . S
C1478 H1491 0.961 . S
C1478 H1492 0.961 . S
C1479 C1476 1.539 . S
C1479 H1493 0.958 . S
C1479 H1494 0.961 . S
C1479 H1495 0.960 . S
H1480 C1464 0.931 . S
H1481 C1469 0.929 . S
H1482 C1470 0.960 . S
H1483 C1470 0.962 . S
H1484 C1470 0.960 . S
H1485 C1471 0.961 . S
H1486 C1471 0.961 . S
H1487 C1471 0.961 . S
H1488 C1472 0.931 . S
H1489 C1477 0.930 . S
H1490 C1478 0.956 . S
H1491 C1478 0.961 . S
H1492 C1478 0.961 . S
H1493 C1479 0.958 . S
H1494 C1479 0.961 . S
H1495 C1479 0.960 . S
C1496 C1497 1.391 . S
C1496 C1498 1.394 . S
C1496 H1512 0.931 . S
C1497 C1496 1.391 . S
C1497 C1501 1.376 . S
C1498 C1496 1.394 . S
C1498 C1499 1.369 . S
C1498 C1502 1.531 . S
C1499 C1498 1.369 . S
C1499 C1500 1.410 . S
C1499 C1507 1.503 . S
C1500 C1499 1.410 . S
C1500 C1501 1.392 . S
C1500 C1503 1.511 . S
C1501 C1497 1.376 . S
C1501 C1500 1.392 . S
C1501 H1513 0.929 . S
C1502 C1498 1.531 . S
C1502 H1514 0.960 . S
C1502 H1515 0.962 . S
C1502 H1516 0.960 . S
C1503 C1500 1.511 . S
C1503 H1517 0.961 . S
C1503 H1518 0.961 . S
C1503 H1519 0.961 . S
C1504 C1505 1.370 1_554 S
C1504 C1506 1.363 . S
C1504 H1520 0.931 . S
C1505 C1504 1.370 1_556 S
C1505 C1509 1.408 . S
C1506 C1504 1.363 . S
C1506 C1507 1.370 . S
C1506 C1510 1.524 . S
C1507 C1499 1.503 . S
C1507 C1506 1.370 . S
C1507 C1508 1.403 . S
C1508 C1507 1.403 . S
C1508 C1509 1.404 1_554 S
C1508 C1511 1.539 . S
C1509 C1505 1.408 . S
C1509 C1508 1.404 1_556 S
C1509 H1521 0.930 . S
C1510 C1506 1.524 . S
C1510 H1522 0.956 . S
C1510 H1523 0.961 . S
C1510 H1524 0.941 1_455 S
C1511 C1508 1.539 . S
C1511 H1525 0.958 . S
C1511 H1526 0.961 1_554 S
C1511 H1527 0.960 . S
H1512 C1496 0.931 . S
H1513 C1501 0.929 . S
H1514 C1502 0.960 . S
H1515 C1502 0.962 . S
H1516 C1502 0.960 . S
H1517 C1503 0.961 . S
H1518 C1503 0.961 . S
H1519 C1503 0.961 . S
H1520 C1504 0.931 . S
H1521 C1509 0.930 . S
H1522 C1510 0.956 . S
H1523 C1510 0.961 . S
H1524 C1510 0.941 1_655 S
H1525 C1511 0.958 . S
H1526 C1511 0.961 1_556 S
H1527 C1511 0.960 . S
C1528 C1529 1.391 . S
C1528 C1530 1.394 . S
C1528 H1544 0.931 . S
C1529 C1528 1.391 . S
C1529 C1533 1.376 . S
C1530 C1528 1.394 . S
C1530 C1531 1.369 . S
C1530 C1534 1.531 . S
C1531 C1530 1.369 . S
C1531 C1532 1.410 . S
C1531 C1539 1.503 . S
C1532 C1531 1.410 . S
C1532 C1533 1.392 . S
C1532 C1535 1.511 . S
C1533 C1529 1.376 . S
C1533 C1532 1.392 . S
C1533 H1545 0.929 . S
C1534 C1530 1.531 . S
C1534 H1546 0.960 . S
C1534 H1547 0.962 . S
C1534 H1548 0.960 . S
C1535 C1532 1.511 . S
C1535 H1549 0.961 . S
C1535 H1550 0.961 . S
C1535 H1551 0.961 . S
C1536 C1537 1.370 . S
C1536 C1538 1.363 . S
C1536 H1552 0.931 . S
C1537 C1536 1.370 . S
C1537 C1541 1.408 . S
C1538 C1536 1.363 . S
C1538 C1539 1.370 . S
C1538 C1542 1.524 . S
C1539 C1531 1.503 . S
C1539 C1538 1.370 . S
C1539 C1540 1.403 . S
C1540 C1539 1.403 . S
C1540 C1541 1.404 . S
C1540 C1543 1.539 . S
C1541 C1537 1.408 . S
C1541 C1540 1.404 . S
C1541 H1553 0.930 . S
C1542 C1538 1.524 . S
C1542 H1554 0.956 . S
C1542 H1555 0.961 . S
C1542 H1556 0.961 . S
C1543 C1540 1.539 . S
C1543 H1557 0.958 . S
C1543 H1558 0.961 . S
C1543 H1559 0.960 . S
H1544 C1528 0.931 . S
H1545 C1533 0.929 . S
H1546 C1534 0.960 . S
H1547 C1534 0.962 . S
H1548 C1534 0.960 . S
H1549 C1535 0.961 . S
H1550 C1535 0.961 . S
H1551 C1535 0.961 . S
H1552 C1536 0.931 . S
H1553 C1541 0.930 . S
H1554 C1542 0.956 . S
H1555 C1542 0.961 . S
H1556 C1542 0.961 . S
H1557 C1543 0.958 . S
H1558 C1543 0.961 . S
H1559 C1543 0.960 . S
C1560 C1561 1.391 . S
C1560 C1562 1.394 . S
C1560 H1576 0.931 . S
C1561 C1560 1.391 . S
C1561 C1565 1.376 . S
C1562 C1560 1.394 . S
C1562 C1563 1.369 . S
C1562 C1566 1.531 1_556 S
C1563 C1562 1.369 . S
C1563 C1564 1.410 . S
C1563 C1571 1.503 1_556 S
C1564 C1563 1.410 . S
C1564 C1565 1.392 . S
C1564 C1567 1.511 . S
C1565 C1561 1.376 . S
C1565 C1564 1.392 . S
C1565 H1577 0.929 . S
C1566 C1562 1.531 1_554 S
C1566 H1578 0.960 . S
C1566 H1579 0.962 . S
C1566 H1580 0.960 . S
C1567 C1564 1.511 . S
C1567 H1581 0.961 . S
C1567 H1582 0.961 . S
C1567 H1583 0.961 . S
C1568 C1569 1.370 . S
C1568 C1570 1.363 . S
C1568 H1584 0.931 . S
C1569 C1568 1.370 . S
C1569 C1573 1.408 . S
C1570 C1568 1.363 . S
C1570 C1571 1.370 . S
C1570 C1574 1.524 1_554 S
C1571 C1563 1.503 1_554 S
C1571 C1570 1.370 . S
C1571 C1572 1.403 . S
C1572 C1571 1.403 . S
C1572 C1573 1.404 . S
C1572 C1575 1.539 . S
C1573 C1569 1.408 . S
C1573 C1572 1.404 . S
C1573 H1585 0.930 . S
C1574 C1570 1.524 1_556 S
C1574 H1586 0.956 . S
C1574 H1587 0.961 . S
C1574 H1588 0.961 . S
C1575 C1572 1.539 . S
C1575 H1589 0.958 . S
C1575 H1590 0.961 . S
C1575 H1591 0.960 . S
H1576 C1560 0.931 . S
H1577 C1565 0.929 . S
H1578 C1566 0.960 . S
H1579 C1566 0.962 . S
H1580 C1566 0.960 . S
H1581 C1567 0.961 . S
H1582 C1567 0.961 . S
H1583 C1567 0.961 . S
H1584 C1568 0.931 . S
H1585 C1573 0.930 . S
H1586 C1574 0.956 . S
H1587 C1574 0.961 . S
H1588 C1574 0.961 . S
H1589 C1575 0.958 . S
H1590 C1575 0.961 . S
H1591 C1575 0.960 . S
C1592 C1593 1.391 . S
C1592 C1594 1.394 . S
C1592 H1608 0.931 . S
C1593 C1592 1.391 . S
C1593 C1597 1.376 . S
C1594 C1592 1.394 . S
C1594 C1595 1.369 . S
C1594 C1598 1.531 . S
C1595 C1594 1.369 . S
C1595 C1596 1.410 . S
C1595 C1603 1.503 . S
C1596 C1595 1.410 . S
C1596 C1597 1.392 . S
C1596 C1599 1.511 . S
C1597 C1593 1.376 . S
C1597 C1596 1.392 . S
C1597 H1609 0.929 . S
C1598 C1594 1.531 . S
C1598 H1610 0.960 . S
C1598 H1611 0.962 . S
C1598 H1612 0.960 . S
C1599 C1596 1.511 . S
C1599 H1613 0.961 . S
C1599 H1614 0.961 . S
C1599 H1615 0.961 . S
C1600 C1601 1.370 . S
C1600 C1602 1.363 . S
C1600 H1616 0.931 . S
C1601 C1600 1.370 . S
C1601 C1605 1.408 . S
C1602 C1600 1.363 . S
C1602 C1603 1.370 . S
C1602 C1606 1.524 . S
C1603 C1595 1.503 . S
C1603 C1602 1.370 . S
C1603 C1604 1.403 . S
C1604 C1603 1.403 . S
C1604 C1605 1.404 . S
C1604 C1607 1.539 . S
C1605 C1601 1.408 . S
C1605 C1604 1.404 . S
C1605 H1617 0.930 . S
C1606 C1602 1.524 . S
C1606 H1618 0.956 . S
C1606 H1619 0.961 . S
C1606 H1620 0.961 . S
C1607 C1604 1.539 . S
C1607 H1621 0.958 . S
C1607 H1622 0.961 . S
C1607 H1623 0.960 . S
H1608 C1592 0.931 . S
H1609 C1597 0.929 . S
H1610 C1598 0.960 . S
H1611 C1598 0.962 . S
H1612 C1598 0.960 . S
H1613 C1599 0.961 . S
H1614 C1599 0.961 . S
H1615 C1599 0.961 . S
H1616 C1600 0.931 . S
H1617 C1605 0.930 . S
H1618 C1606 0.956 . S
H1619 C1606 0.961 . S
H1620 C1606 0.961 . S
H1621 C1607 0.958 . S
H1622 C1607 0.961 . S
H1623 C1607 0.960 . S
C1624 C1625 1.391 . S
C1624 C1626 1.394 1_556 S
C1624 H1640 0.931 . S
C1625 C1624 1.391 . S
C1625 C1629 1.376 . S
C1626 C1624 1.394 1_554 S
C1626 C1627 1.369 . S
C1626 C1630 1.531 . S
C1627 C1626 1.369 . S
C1627 C1628 1.410 1_554 S
C1627 C1635 1.503 . S
C1628 C1627 1.410 1_556 S
C1628 C1629 1.392 . S
C1628 C1631 1.511 . S
C1629 C1625 1.376 . S
C1629 C1628 1.392 . S
C1629 H1641 0.929 . S
C1630 C1626 1.531 . S
C1630 H1642 0.960 . S
C1630 H1643 0.962 . S
C1630 H1644 0.960 . S
C1631 C1628 1.511 . S
C1631 H1645 0.961 . S
C1631 H1646 0.961 1_556 S
C1631 H1647 0.961 . S
C1632 C1633 1.370 . S
C1632 C1634 1.363 . S
C1632 H1648 0.931 . S
C1633 C1632 1.370 . S
C1633 C1637 1.408 . S
C1634 C1632 1.363 . S
C1634 C1635 1.370 . S
C1634 C1638 1.524 . S
C1635 C1627 1.503 . S
C1635 C1634 1.370 . S
C1635 C1636 1.403 . S
C1636 C1635 1.403 . S
C1636 C1637 1.404 . S
C1636 C1639 1.539 . S
C1637 C1633 1.408 . S
C1637 C1636 1.404 . S
C1637 H1649 0.930 . S
C1638 C1634 1.524 . S
C1638 H1650 0.956 . S
C1638 H1651 0.961 . S
C1638 H1652 0.961 . S
C1639 C1636 1.539 . S
C1639 H1653 0.958 . S
C1639 H1654 0.961 . S
C1639 H1655 0.960 1_554 S
H1640 C1624 0.931 . S
H1641 C1629 0.929 . S
H1642 C1630 0.960 . S
H1643 C1630 0.962 . S
H1644 C1630 0.960 . S
H1645 C1631 0.961 . S
H1646 C1631 0.961 1_554 S
H1647 C1631 0.961 . S
H1648 C1632 0.931 . S
H1649 C1637 0.930 . S
H1650 C1638 0.956 . S
H1651 C1638 0.961 . S
H1652 C1638 0.961 . S
H1653 C1639 0.958 . S
H1654 C1639 0.961 . S
H1655 C1639 0.960 1_556 S
C1656 C1657 1.391 . S
C1656 C1658 1.394 . S
C1656 H1672 0.931 . S
C1657 C1656 1.391 . S
C1657 C1661 1.376 . S
C1658 C1656 1.394 . S
C1658 C1659 1.369 . S
C1658 C1662 1.531 . S
C1659 C1658 1.369 . S
C1659 C1660 1.410 . S
C1659 C1667 1.503 . S
C1660 C1659 1.410 . S
C1660 C1661 1.392 . S
C1660 C1663 1.511 . S
C1661 C1657 1.376 . S
C1661 C1660 1.392 . S
C1661 H1673 0.929 . S
C1662 C1658 1.531 . S
C1662 H1674 0.960 . S
C1662 H1675 0.962 . S
C1662 H1676 0.960 . S
C1663 C1660 1.511 . S
C1663 H1677 0.961 . S
C1663 H1678 0.961 . S
C1663 H1679 0.961 . S
C1664 C1665 1.370 . S
C1664 C1666 1.363 . S
C1664 H1680 0.931 . S
C1665 C1664 1.370 . S
C1665 C1669 1.408 . S
C1666 C1664 1.363 . S
C1666 C1667 1.370 . S
C1666 C1670 1.524 . S
C1667 C1659 1.503 . S
C1667 C1666 1.370 . S
C1667 C1668 1.403 . S
C1668 C1667 1.403 . S
C1668 C1669 1.404 . S
C1668 C1671 1.539 . S
C1669 C1665 1.408 . S
C1669 C1668 1.404 . S
C1669 H1681 0.930 . S
C1670 C1666 1.524 . S
C1670 H1682 0.956 . S
C1670 H1683 0.961 . S
C1670 H1684 0.961 . S
C1671 C1668 1.539 . S
C1671 H1685 0.958 . S
C1671 H1686 0.961 . S
C1671 H1687 0.960 . S
H1672 C1656 0.931 . S
H1673 C1661 0.929 . S
H1674 C1662 0.960 . S
H1675 C1662 0.962 . S
H1676 C1662 0.960 . S
H1677 C1663 0.961 . S
H1678 C1663 0.961 . S
H1679 C1663 0.961 . S
H1680 C1664 0.931 . S
H1681 C1669 0.930 . S
H1682 C1670 0.956 . S
H1683 C1670 0.961 . S
H1684 C1670 0.961 . S
H1685 C1671 0.958 . S
H1686 C1671 0.961 . S
H1687 C1671 0.960 . S
C1688 C1689 1.391 . S
C1688 C1690 1.394 . S
C1688 H1704 0.931 . S
C1689 C1688 1.391 . S
C1689 C1693 1.376 . S
C1690 C1688 1.394 . S
C1690 C1691 1.369 . S
C1690 C1694 1.531 . S
C1691 C1690 1.369 . S
C1691 C1692 1.410 . S
C1691 C1699 1.503 . S
C1692 C1691 1.410 . S
C1692 C1693 1.392 . S
C1692 C1695 1.511 . S
C1693 C1689 1.376 . S
C1693 C1692 1.392 . S
C1693 H1705 0.929 . S
C1694 C1690 1.531 . S
C1694 H1706 0.960 . S
C1694 H1707 0.962 . S
C1694 H1708 0.960 . S
C1695 C1692 1.511 . S
C1695 H1709 0.961 . S
C1695 H1710 0.961 . S
C1695 H1711 0.961 . S
C1696 C1697 1.370 . S
C1696 C1698 1.363 . S
C1696 H1712 0.931 . S
C1697 C1696 1.370 . S
C1697 C1701 1.408 . S
C1698 C1696 1.363 . S
C1698 C1699 1.370 . S
C1698 C1702 1.524 . S
C1699 C1691 1.503 . S
C1699 C1698 1.370 . S
C1699 C1700 1.403 . S
C1700 C1699 1.403 . S
C1700 C1701 1.404 . S
C1700 C1703 1.539 . S
C1701 C1697 1.408 . S
C1701 C1700 1.404 . S
C1701 H1713 0.930 . S
C1702 C1698 1.524 . S
C1702 H1714 0.956 . S
C1702 H1715 0.961 . S
C1702 H1716 0.961 . S
C1703 C1700 1.539 . S
C1703 H1717 0.958 . S
C1703 H1718 0.961 . S
C1703 H1719 0.960 . S
H1704 C1688 0.931 . S
H1705 C1693 0.929 . S
H1706 C1694 0.960 . S
H1707 C1694 0.962 . S
H1708 C1694 0.960 . S
H1709 C1695 0.961 . S
H1710 C1695 0.961 . S
H1711 C1695 0.961 . S
H1712 C1696 0.931 . S
H1713 C1701 0.930 . S
H1714 C1702 0.956 . S
H1715 C1702 0.961 . S
H1716 C1702 0.961 . S
H1717 C1703 0.958 . S
H1718 C1703 0.961 . S
H1719 C1703 0.960 . S
C1720 C1721 1.391 . S
C1720 C1722 1.394 . S
C1720 H1736 0.931 . S
C1721 C1720 1.391 . S
C1721 C1725 1.376 . S
C1722 C1720 1.394 . S
C1722 C1723 1.369 . S
C1722 C1726 1.531 . S
C1723 C1722 1.369 . S
C1723 C1724 1.410 . S
C1723 C1731 1.503 . S
C1724 C1723 1.410 . S
C1724 C1725 1.392 . S
C1724 C1727 1.511 . S
C1725 C1721 1.376 . S
C1725 C1724 1.392 . S
C1725 H1737 0.929 . S
C1726 C1722 1.531 . S
C1726 H1738 0.960 . S
C1726 H1739 0.962 . S
C1726 H1740 0.960 . S
C1727 C1724 1.511 . S
C1727 H1741 0.961 . S
C1727 H1742 0.961 . S
C1727 H1743 0.961 . S
C1728 C1729 1.370 . S
C1728 C1730 1.363 . S
C1728 H1744 0.931 . S
C1729 C1728 1.370 . S
C1729 C1733 1.408 . S
C1730 C1728 1.363 . S
C1730 C1731 1.370 . S
C1730 C1734 1.524 . S
C1731 C1723 1.503 . S
C1731 C1730 1.370 . S
C1731 C1732 1.403 . S
C1732 C1731 1.403 . S
C1732 C1733 1.404 . S
C1732 C1735 1.539 . S
C1733 C1729 1.408 . S
C1733 C1732 1.404 . S
C1733 H1745 0.930 . S
C1734 C1730 1.524 . S
C1734 H1746 0.956 . S
C1734 H1747 0.961 . S
C1734 H1748 0.961 . S
C1735 C1732 1.539 . S
C1735 H1749 0.958 . S
C1735 H1750 0.961 . S
C1735 H1751 0.960 . S
H1736 C1720 0.931 . S
H1737 C1725 0.929 . S
H1738 C1726 0.960 . S
H1739 C1726 0.962 . S
H1740 C1726 0.960 . S
H1741 C1727 0.961 . S
H1742 C1727 0.961 . S
H1743 C1727 0.961 . S
H1744 C1728 0.931 . S
H1745 C1733 0.930 . S
H1746 C1734 0.956 . S
H1747 C1734 0.961 . S
H1748 C1734 0.961 . S
H1749 C1735 0.958 . S
H1750 C1735 0.961 . S
H1751 C1735 0.960 . S
C1752 C1753 1.391 . S
C1752 C1754 1.394 . S
C1752 H1768 0.931 . S
C1753 C1752 1.391 . S
C1753 C1757 1.376 . S
C1754 C1752 1.394 . S
C1754 C1755 1.369 . S
C1754 C1758 1.531 . S
C1755 C1754 1.369 . S
C1755 C1756 1.410 . S
C1755 C1763 1.503 . S
C1756 C1755 1.410 . S
C1756 C1757 1.392 . S
C1756 C1759 1.511 . S
C1757 C1753 1.376 . S
C1757 C1756 1.392 . S
C1757 H1769 0.929 . S
C1758 C1754 1.531 . S
C1758 H1770 0.960 . S
C1758 H1771 0.962 . S
C1758 H1772 0.960 . S
C1759 C1756 1.511 . S
C1759 H1773 0.961 . S
C1759 H1774 0.961 . S
C1759 H1775 0.961 . S
C1760 C1761 1.370 . S
C1760 C1762 1.363 . S
C1760 H1776 0.931 . S
C1761 C1760 1.370 . S
C1761 C1765 1.408 . S
C1762 C1760 1.363 . S
C1762 C1763 1.370 . S
C1762 C1766 1.524 . S
C1763 C1755 1.503 . S
C1763 C1762 1.370 . S
C1763 C1764 1.403 . S
C1764 C1763 1.403 . S
C1764 C1765 1.404 . S
C1764 C1767 1.539 . S
C1765 C1761 1.408 . S
C1765 C1764 1.404 . S
C1765 H1777 0.930 . S
C1766 C1762 1.524 . S
C1766 H1778 0.956 . S
C1766 H1779 0.961 . S
C1766 H1780 0.961 . S
C1767 C1764 1.539 . S
C1767 H1781 0.958 . S
C1767 H1782 0.961 . S
C1767 H1783 0.960 . S
H1768 C1752 0.931 . S
H1769 C1757 0.929 . S
H1770 C1758 0.960 . S
H1771 C1758 0.962 . S
H1772 C1758 0.960 . S
H1773 C1759 0.961 . S
H1774 C1759 0.961 . S
H1775 C1759 0.961 . S
H1776 C1760 0.931 . S
H1777 C1765 0.930 . S
H1778 C1766 0.956 . S
H1779 C1766 0.961 . S
H1780 C1766 0.961 . S
H1781 C1767 0.958 . S
H1782 C1767 0.961 . S
H1783 C1767 0.960 . S
C1784 C1785 1.391 . S
C1784 C1786 1.394 . S
C1784 H1800 0.931 . S
C1785 C1784 1.391 . S
C1785 C1789 1.376 . S
C1786 C1784 1.394 . S
C1786 C1787 1.369 . S
C1786 C1790 1.531 . S
C1787 C1786 1.369 . S
C1787 C1788 1.410 . S
C1787 C1795 1.503 . S
C1788 C1787 1.410 . S
C1788 C1789 1.392 . S
C1788 C1791 1.511 . S
C1789 C1785 1.376 . S
C1789 C1788 1.392 . S
C1789 H1801 0.929 . S
C1790 C1786 1.531 . S
C1790 H1802 0.960 . S
C1790 H1803 0.962 . S
C1790 H1804 0.960 . S
C1791 C1788 1.511 . S
C1791 H1805 0.961 . S
C1791 H1806 0.961 . S
C1791 H1807 0.961 . S
C1792 C1793 1.370 . S
C1792 C1794 1.363 . S
C1792 H1808 0.931 . S
C1793 C1792 1.370 . S
C1793 C1797 1.408 . S
C1794 C1792 1.363 . S
C1794 C1795 1.370 . S
C1794 C1798 1.524 . S
C1795 C1787 1.503 . S
C1795 C1794 1.370 . S
C1795 C1796 1.403 . S
C1796 C1795 1.403 . S
C1796 C1797 1.404 . S
C1796 C1799 1.539 . S
C1797 C1793 1.408 . S
C1797 C1796 1.404 . S
C1797 H1809 0.930 . S
C1798 C1794 1.524 . S
C1798 H1810 0.956 . S
C1798 H1811 0.961 . S
C1798 H1812 0.961 . S
C1799 C1796 1.539 . S
C1799 H1813 0.958 . S
C1799 H1814 0.961 . S
C1799 H1815 0.960 . S
H1800 C1784 0.931 . S
H1801 C1789 0.929 . S
H1802 C1790 0.960 . S
H1803 C1790 0.962 . S
H1804 C1790 0.960 . S
H1805 C1791 0.961 . S
H1806 C1791 0.961 . S
H1807 C1791 0.961 . S
H1808 C1792 0.931 . S
H1809 C1797 0.930 . S
H1810 C1798 0.956 . S
H1811 C1798 0.961 . S
H1812 C1798 0.961 . S
H1813 C1799 0.958 . S
H1814 C1799 0.961 . S
H1815 C1799 0.960 . S
C1816 C1817 1.391 . S
C1816 C1818 1.394 . S
C1816 H1832 0.931 . S
C1817 C1816 1.391 . S
C1817 C1821 1.376 . S
C1818 C1816 1.394 . S
C1818 C1819 1.369 . S
C1818 C1822 1.531 . S
C1819 C1818 1.369 . S
C1819 C1820 1.410 . S
C1819 C1827 1.503 . S
C1820 C1819 1.410 . S
C1820 C1821 1.392 . S
C1820 C1823 1.511 . S
C1821 C1817 1.376 . S
C1821 C1820 1.392 . S
C1821 H1833 0.929 . S
C1822 C1818 1.531 . S
C1822 H1834 0.960 . S
C1822 H1835 0.962 . S
C1822 H1836 0.960 . S
C1823 C1820 1.511 . S
C1823 H1837 0.961 . S
C1823 H1838 0.961 . S
C1823 H1839 0.961 . S
C1824 C1825 1.370 . S
C1824 C1826 1.363 . S
C1824 H1840 0.931 . S
C1825 C1824 1.370 . S
C1825 C1829 1.408 . S
C1826 C1824 1.363 . S
C1826 C1827 1.370 . S
C1826 C1830 1.524 . S
C1827 C1819 1.503 . S
C1827 C1826 1.370 . S
C1827 C1828 1.403 . S
C1828 C1827 1.403 . S
C1828 C1829 1.404 . S
C1828 C1831 1.539 . S
C1829 C1825 1.408 . S
C1829 C1828 1.404 . S
C1829 H1841 0.930 . S
C1830 C1826 1.524 . S
C1830 H1842 0.956 . S
C1830 H1843 0.961 . S
C1830 H1844 0.961 . S
C1831 C1828 1.539 . S
C1831 H1845 0.958 . S
C1831 H1846 0.961 . S
C1831 H1847 0.960 . S
H1832 C1816 0.931 . S
H1833 C1821 0.929 . S
H1834 C1822 0.960 . S
H1835 C1822 0.962 . S
H1836 C1822 0.960 . S
H1837 C1823 0.961 . S
H1838 C1823 0.961 . S
H1839 C1823 0.961 . S
H1840 C1824 0.931 . S
H1841 C1829 0.930 . S
H1842 C1830 0.956 . S
H1843 C1830 0.961 . S
H1844 C1830 0.961 . S
H1845 C1831 0.958 . S
H1846 C1831 0.961 . S
H1847 C1831 0.960 . S
C1848 C1849 1.391 . S
C1848 C1850 1.394 . S
C1848 H1864 0.931 . S
C1849 C1848 1.391 . S
C1849 C1853 1.376 . S
C1850 C1848 1.394 . S
C1850 C1851 1.369 . S
C1850 C1854 1.531 . S
C1851 C1850 1.369 . S
C1851 C1852 1.410 . S
C1851 C1859 1.503 . S
C1852 C1851 1.410 . S
C1852 C1853 1.392 . S
C1852 C1855 1.511 . S
C1853 C1849 1.376 . S
C1853 C1852 1.392 . S
C1853 H1865 0.929 . S
C1854 C1850 1.531 . S
C1854 H1866 0.960 . S
C1854 H1867 0.962 . S
C1854 H1868 0.960 . S
C1855 C1852 1.511 . S
C1855 H1869 0.961 . S
C1855 H1870 0.961 . S
C1855 H1871 0.961 . S
C1856 C1857 1.370 . S
C1856 C1858 1.363 . S
C1856 H1872 0.931 . S
C1857 C1856 1.370 . S
C1857 C1861 1.408 . S
C1858 C1856 1.363 . S
C1858 C1859 1.370 . S
C1858 C1862 1.524 . S
C1859 C1851 1.503 . S
C1859 C1858 1.370 . S
C1859 C1860 1.403 . S
C1860 C1859 1.403 . S
C1860 C1861 1.404 . S
C1860 C1863 1.539 . S
C1861 C1857 1.408 . S
C1861 C1860 1.404 . S
C1861 H1873 0.930 . S
C1862 C1858 1.524 . S
C1862 H1874 0.956 . S
C1862 H1875 0.961 . S
C1862 H1876 0.961 . S
C1863 C1860 1.539 . S
C1863 H1877 0.958 . S
C1863 H1878 0.961 1_554 S
C1863 H1879 0.960 . S
H1864 C1848 0.931 . S
H1865 C1853 0.929 . S
H1866 C1854 0.960 . S
H1867 C1854 0.962 . S
H1868 C1854 0.960 . S
H1869 C1855 0.961 . S
H1870 C1855 0.961 . S
H1871 C1855 0.961 . S
H1872 C1856 0.931 . S
H1873 C1861 0.930 . S
H1874 C1862 0.956 . S
H1875 C1862 0.961 . S
H1876 C1862 0.961 . S
H1877 C1863 0.958 . S
H1878 C1863 0.961 1_556 S
H1879 C1863 0.960 . S
C1880 C1881 1.391 . S
C1880 C1882 1.394 . S
C1880 H1896 0.931 . S
C1881 C1880 1.391 . S
C1881 C1885 1.376 . S
C1882 C1880 1.394 . S
C1882 C1883 1.369 . S
C1882 C1886 1.531 . S
C1883 C1882 1.369 . S
C1883 C1884 1.410 . S
C1883 C1891 1.503 . S
C1884 C1883 1.410 . S
C1884 C1885 1.392 . S
C1884 C1887 1.511 . S
C1885 C1881 1.376 . S
C1885 C1884 1.392 . S
C1885 H1897 0.929 . S
C1886 C1882 1.531 . S
C1886 H1898 0.960 . S
C1886 H1899 0.962 . S
C1886 H1900 0.960 . S
C1887 C1884 1.511 . S
C1887 H1901 0.961 . S
C1887 H1902 0.961 . S
C1887 H1903 0.961 . S
C1888 C1889 1.370 . S
C1888 C1890 1.363 . S
C1888 H1904 0.931 1_545 S
C1889 C1888 1.370 . S
C1889 C1893 1.408 . S
C1890 C1888 1.363 . S
C1890 C1891 1.370 . S
C1890 C1894 1.524 . S
C1891 C1883 1.503 . S
C1891 C1890 1.370 . S
C1891 C1892 1.403 . S
C1892 C1891 1.403 . S
C1892 C1893 1.404 . S
C1892 C1895 1.539 . S
C1893 C1889 1.408 . S
C1893 C1892 1.404 . S
C1893 H1905 0.930 . S
C1894 C1890 1.524 . S
C1894 H1906 0.956 . S
C1894 H1907 0.961 . S
C1894 H1908 0.961 . S
C1895 C1892 1.539 . S
C1895 H1909 0.958 . S
C1895 H1910 0.961 . S
C1895 H1911 0.960 . S
H1896 C1880 0.931 . S
H1897 C1885 0.929 . S
H1898 C1886 0.960 . S
H1899 C1886 0.962 . S
H1900 C1886 0.960 . S
H1901 C1887 0.961 . S
H1902 C1887 0.961 . S
H1903 C1887 0.961 . S
H1904 C1888 0.931 1_565 S
H1905 C1893 0.930 . S
H1906 C1894 0.956 . S
H1907 C1894 0.961 . S
H1908 C1894 0.961 . S
H1909 C1895 0.958 . S
H1910 C1895 0.961 . S
H1911 C1895 0.960 . S
C385 C216 1.438 1_556 S
C377 N66 1.398 . S
C417 C231 1.735 . S
C409 N79 1.752 . S
C441 N92 1.890 . S
C449 C244 1.904 . S
C481 C258 1.352 . S
C473 N54 1.449 . S
C513 C270 1.686 . S
C505 N131 1.763 . S
C545 C284 1.032 . S
C537 N158 1.037 . S
C569 N145 1.747 . S
C577 C298 1.697 . S
C609 C313 1.618 . S
C601 N118 1.617 . S
C633 N148 1.963 . S
C641 C329 1.919 . S
C673 C342 1.486 . S
C665 N122 1.482 . S
C697 N132 1.466 . S
C705 C327 1.421 . S
C737 C340 1.514 . S
C729 N161 1.448 . S
C761 N96 2.156 . S
C769 C356 2.191 . S
C793 N53 1.652 . S
C801 C355 1.644 . S
C825 N67 1.304 . S
C833 C354 1.259 . S
C857 N83 1.304 . S
C865 C357 1.318 . S
C889 N44 1.637 . S
C897 C259 1.649 1_565 S
C921 N187 1.447 . S
C929 C257 1.459 . S
C961 C217 1.240 . S
C953 N197 1.259 . S
C993 C228 1.497 . S
C985 N106 1.514 . S
C1017 N57 1.879 . S
C1025 C273 1.896 . S
C1057 C314 1.829 . S
C1049 N144 1.817 . S
C1089 C271 1.417 . S
C1081 N119 1.384 . S
C1121 C299 1.670 . S
C1113 N157 1.667 . S
C1153 C300 1.438 . S
C1145 N183 1.398 . S
C1177 N196 1.761 . S
C1185 C315 1.727 . S
C1209 N105 1.889 . S
C1217 C272 1.904 . S
C1249 C286 1.362 . S
C1241 N171 1.450 . S
C1273 N40 1.770 . S
C1281 C242 1.686 . S
C1313 C256 1.027 . S
C1305 N2 1.023 . S
C1345 C214 1.701 . S
C1337 N15 1.737 . S
C1377 C229 1.619 . S
C1369 N27 1.620 . S
C1401 N18 1.951 . S
C1409 C343 1.905 . S
C1433 N31 1.479 . S
C1441 C328 1.486 . S
C1465 N41 1.477 . S
C1473 C341 1.401 . S
C1497 N5 1.495 . S
C1505 C326 1.523 . S
C1537 C370 2.190 . S
C1529 N109 2.149 . S
C1569 C369 1.647 . S
C1561 N170 1.653 . S
C1601 C368 1.238 . S
C1593 N184 1.322 . S
C1625 N200 1.325 . S
C1633 C371 1.316 . S
C1657 N135 1.602 . S
C1665 C287 1.643 . S
C1697 C285 1.460 . S
C1689 N70 1.438 . S
C1729 C301 1.260 . S
C1721 N80 1.231 . S
C1761 C312 1.497 . S
C1753 N93 1.514 . S
C1785 N174 1.882 . S
C1793 C245 1.900 . S
C1825 C230 1.825 . S
C1817 N14 1.813 . S
C1849 N28 1.363 . S
C1857 C243 1.405 . S
C1889 C215 1.670 1_545 S
C1881 N1 1.669 . S
