# Generated by pormake.
# Topology pto, (3,4)-cn, num edge types: 1
# Building blocks:
#     Node 0, Type 0, BuildingBlock: BETDAH_clean_linker_0, # of connection points: 3
#     Node 1, Type 0, BuildingBlock: BETDAH_clean_linker_0, # of connection points: 3
#     Node 2, Type 0, BuildingBlock: BETDAH_clean_linker_0, # of connection points: 3
#     Node 3, Type 0, BuildingBlock: BETDAH_clean_linker_0, # of connection points: 3
#     Node 4, Type 0, BuildingBlock: BETDAH_clean_linker_0, # of connection points: 3
#     Node 5, Type 0, BuildingBlock: BETDAH_clean_linker_0, # of connection points: 3
#     Node 6, Type 0, BuildingBlock: BETDAH_clean_linker_0, # of connection points: 3
#     Node 7, Type 0, BuildingBlock: BETDAH_clean_linker_0, # of connection points: 3
#     Node 8, Type 1, BuildingBlock: KOZSID_clean_sbu_0, # of connection points: 4
#     Node 9, Type 1, BuildingBlock: KOZSID_clean_sbu_0, # of connection points: 4
#     Node 10, Type 1, BuildingBlock: KOZSID_clean_sbu_0, # of connection points: 4
#     Node 11, Type 1, BuildingBlock: KOZSID_clean_sbu_0, # of connection points: 4
#     Node 12, Type 1, BuildingBlock: KOZSID_clean_sbu_0, # of connection points: 4
#     Node 13, Type 1, BuildingBlock: KOZSID_clean_sbu_0, # of connection points: 4
#     Edge 14, Type (0, 1), BuildingBlock: EYOCIG_clean_linker_4, # of connection points: 2
#     Edge 15, Type (0, 1), BuildingBlock: EYOCIG_clean_linker_4, # of connection points: 2
#     Edge 16, Type (0, 1), BuildingBlock: EYOCIG_clean_linker_4, # of connection points: 2
#     Edge 17, Type (0, 1), BuildingBlock: EYOCIG_clean_linker_4, # of connection points: 2
#     Edge 18, Type (0, 1), BuildingBlock: EYOCIG_clean_linker_4, # of connection points: 2
#     Edge 19, Type (0, 1), BuildingBlock: EYOCIG_clean_linker_4, # of connection points: 2
#     Edge 20, Type (0, 1), BuildingBlock: EYOCIG_clean_linker_4, # of connection points: 2
#     Edge 21, Type (0, 1), BuildingBlock: EYOCIG_clean_linker_4, # of connection points: 2
#     Edge 22, Type (0, 1), BuildingBlock: EYOCIG_clean_linker_4, # of connection points: 2
#     Edge 23, Type (0, 1), BuildingBlock: EYOCIG_clean_linker_4, # of connection points: 2
#     Edge 24, Type (0, 1), BuildingBlock: EYOCIG_clean_linker_4, # of connection points: 2
#     Edge 25, Type (0, 1), BuildingBlock: EYOCIG_clean_linker_4, # of connection points: 2
#     Edge 26, Type (0, 1), BuildingBlock: EYOCIG_clean_linker_4, # of connection points: 2
#     Edge 27, Type (0, 1), BuildingBlock: EYOCIG_clean_linker_4, # of connection points: 2
#     Edge 28, Type (0, 1), BuildingBlock: EYOCIG_clean_linker_4, # of connection points: 2
#     Edge 29, Type (0, 1), BuildingBlock: EYOCIG_clean_linker_4, # of connection points: 2
#     Edge 30, Type (0, 1), BuildingBlock: EYOCIG_clean_linker_4, # of connection points: 2
#     Edge 31, Type (0, 1), BuildingBlock: EYOCIG_clean_linker_4, # of connection points: 2
#     Edge 32, Type (0, 1), BuildingBlock: EYOCIG_clean_linker_4, # of connection points: 2
#     Edge 33, Type (0, 1), BuildingBlock: EYOCIG_clean_linker_4, # of connection points: 2
#     Edge 34, Type (0, 1), BuildingBlock: EYOCIG_clean_linker_4, # of connection points: 2
#     Edge 35, Type (0, 1), BuildingBlock: EYOCIG_clean_linker_4, # of connection points: 2
#     Edge 36, Type (0, 1), BuildingBlock: EYOCIG_clean_linker_4, # of connection points: 2
#     Edge 37, Type (0, 1), BuildingBlock: EYOCIG_clean_linker_4, # of connection points: 2
# Relax obj value: 0.011
# Max RMSD: 0.121
# Mean RMSD: 0.061
data_MOF--net-pto--node1-KOZSID_clean_sbu_0--node2-BETDAH_clean_linker_0--edge1-EYOCIG_clean_linker_4
_symmetry_space_group_name_H-M    P1
_symmetry_Int_Tables_number       1
_symmetry_cell_setting            triclinic
loop_
_symmetry_equiv_pos_as_xyz
'x, y, z'
_cell_length_a     30.780615
_cell_length_b     39.536751
_cell_length_c     35.598646
_cell_angle_alpha  102.4564
_cell_angle_beta   93.730632
_cell_angle_gamma 103.39404
loop_
_atom_site_label
_atom_site_type_symbol
_atom_site_fract_x
_atom_site_fract_y
_atom_site_fract_z
_atom_type_partial_charge
H0 H 0.37266 0.23667 0.41473 0.0
H1 H 0.30123 0.31522 0.39788 0.0
H2 H 0.28248 0.26692 0.49509 0.0
C3 C 0.34999 0.2532 0.42445 0.0
C4 C 0.32969 0.24995 0.4579 0.0
C5 C 0.33985 0.27651 0.40256 0.0
C6 C 0.30998 0.29775 0.41511 0.0
C7 C 0.28942 0.29442 0.44895 0.0
C8 C 0.2993 0.27027 0.46979 0.0
N9 N 0.25482 0.31128 0.4607 0.0
C10 C 0.25256 0.34578 0.4594 0.0
H11 H 0.28139 0.72502 0.78952 0.0
H12 H 0.35957 0.7943 0.7269 0.0
H13 H 0.21643 0.75233 0.69403 0.0
C14 C 0.28335 0.73932 0.76656 0.0
C15 C 0.24435 0.737 0.74298 0.0
C16 C 0.32484 0.75965 0.76086 0.0
C17 C 0.32739 0.77857 0.73147 0.0
C18 C 0.28796 0.77589 0.70718 0.0
C19 C 0.24667 0.75466 0.71284 0.0
N20 N 0.28876 0.79251 0.6756 0.0
C21 C 0.31495 0.82646 0.67633 0.0
H22 H 0.88398 0.78661 0.44608 0.0
H23 H 0.81945 0.81814 0.35293 0.0
H24 H 0.84322 0.71313 0.33458 0.0
C25 C 0.867 0.78002 0.41676 0.0
C26 C 0.86382 0.74643 0.39246 0.0
C27 C 0.85098 0.80594 0.4028 0.0
C28 C 0.83006 0.79768 0.36438 0.0
C29 C 0.82649 0.76381 0.33974 0.0
C30 C 0.84362 0.73844 0.35406 0.0
N31 N 0.81663 0.7581 0.29899 0.0
C32 C 0.77418 0.75237 0.27888 0.0
H33 H 0.84711 0.30438 0.84099 0.0
H34 H 0.77261 0.24201 0.91234 0.0
H35 H 0.78929 0.35599 0.9365 0.0
C36 C 0.8262 0.30249 0.86425 0.0
C37 C 0.81856 0.33354 0.88692 0.0
C38 C 0.80989 0.26942 0.87323 0.0
C39 C 0.78384 0.26725 0.90429 0.0
C40 C 0.77603 0.2988 0.92698 0.0
C41 C 0.79352 0.3316 0.91796 0.0
N42 N 0.75832 0.3002 0.96288 0.0
C43 C 0.72141 0.27634 0.97101 0.0
H44 H 0.77507 0.716 0.82469 0.0
H45 H 0.8398 0.77747 0.74844 0.0
H46 H 0.71386 0.79202 0.78671 0.0
C47 C 0.77559 0.73607 0.80806 0.0
C48 C 0.7407 0.75323 0.80849 0.0
C49 C 0.8111 0.74451 0.7863 0.0
C50 C 0.81237 0.77102 0.76538 0.0
C51 C 0.77705 0.78824 0.76548 0.0
C52 C 0.74105 0.7788 0.78665 0.0
N53 N 0.77563 0.81418 0.7437 0.0
C54 C 0.81312 0.83772 0.73572 0.0
H55 H 0.80846 0.34882 0.42867 0.0
H56 H 0.86067 0.31954 0.52921 0.0
H57 H 0.74451 0.24921 0.45507 0.0
C58 C 0.80688 0.33004 0.44701 0.0
C59 C 0.77327 0.29766 0.43753 0.0
C60 C 0.83838 0.33819 0.48026 0.0
C61 C 0.83667 0.3134 0.50351 0.0
C62 C 0.80262 0.28126 0.49435 0.0
C63 C 0.77087 0.27392 0.46178 0.0
N64 N 0.79727 0.25688 0.51865 0.0
C65 C 0.83211 0.24573 0.53502 0.0
H66 H 0.32735 0.23518 0.87891 0.0
H67 H 0.28692 0.33081 0.92873 0.0
H68 H 0.2782 0.29426 0.80495 0.0
C69 C 0.31245 0.25684 0.87542 0.0
C70 C 0.30182 0.26111 0.83822 0.0
C71 C 0.30687 0.28163 0.9082 0.0
C72 C 0.28902 0.31048 0.90356 0.0
C73 C 0.27789 0.31481 0.86611 0.0
C74 C 0.28437 0.28992 0.83366 0.0
N75 N 0.27179 0.34802 0.86067 0.0
C76 C 0.23386 0.36096 0.86733 0.0
H77 H 0.28063 0.79114 0.39591 0.0
H78 H 0.34563 0.79879 0.29311 0.0
H79 H 0.26151 0.69801 0.30261 0.0
C80 C 0.28723 0.77875 0.36726 0.0
C81 C 0.26831 0.7423 0.35179 0.0
C82 C 0.31507 0.79928 0.34639 0.0
C83 C 0.32415 0.78301 0.30932 0.0
C84 C 0.30445 0.74617 0.29333 0.0
C85 C 0.27645 0.7263 0.31476 0.0
N86 N 0.31043 0.72769 0.25578 0.0
C87 C 0.34291 0.73849 0.23233 0.0
C88 C 0.14382 0.62985 0.4837 0.0
C89 C 0.16828 0.65788 0.51353 0.0
C90 C 0.15573 0.64981 0.54731 0.0
C91 C 0.1245 0.6174 0.53625 0.0
N92 N 0.11648 0.6042 0.49743 0.0
Co93 Co 0.07065 0.55952 0.46873 0.0
N94 N 0.04717 0.55041 0.51803 0.0
C95 C 0.06174 0.57095 0.55428 0.0
C96 C 0.04001 0.55763 0.58245 0.0
C97 C 0.00987 0.52657 0.56305 0.0
C98 C 0.01506 0.52271 0.52404 0.0
N99 N 0.02546 0.5146 0.43991 0.0
C100 C 0.99598 0.49005 0.4533 0.0
C101 C 0.97234 0.46166 0.42333 0.0
C102 C 0.98765 0.46828 0.38995 0.0
C103 C 0.0196 0.50014 0.40126 0.0
N104 N 0.0931 0.56899 0.41925 0.0
C105 C 0.07834 0.54873 0.38286 0.0
C106 C 0.09899 0.56252 0.35461 0.0
C107 C 0.12802 0.59399 0.37391 0.0
C108 C 0.12335 0.59751 0.41304 0.0
N109 N 0.11482 0.53035 0.47404 0.0
C110 C 0.16908 0.48267 0.47989 0.0
C111 C 0.15101 0.48486 0.44404 0.0
C112 C 0.12439 0.5086 0.44176 0.0
C113 C 0.16128 0.5056 0.5131 0.0
C114 C 0.13448 0.52944 0.5095 0.0
N115 N 0.02675 0.5885 0.46306 0.0
C116 C 0.97614 0.60656 0.42101 0.0
C117 C 0.97409 0.63536 0.45054 0.0
C118 C 0.99698 0.63967 0.48707 0.0
C119 C 0.02294 0.61591 0.49274 0.0
C120 C 1.002 0.58337 0.42795 0.0
H121 H 0.0404 0.62065 0.52103 0.0
H122 H 1.00221 0.56192 0.40416 0.0
H123 H 0.11128 0.50808 0.41336 0.0
H124 H 0.12961 0.54644 0.53573 0.0
C125 C 0.09802 0.60115 0.56105 0.0
C126 C 0.14672 0.62917 0.4428 0.0
C127 C 0.98985 0.49179 0.49389 0.0
C128 C 0.04461 0.517 0.37617 0.0
H129 H 0.19185 0.68205 0.51101 0.0
H130 H 0.16657 0.66637 0.57638 0.0
H131 H 0.04615 0.56869 0.61347 0.0
H132 H 0.98724 0.50844 0.57614 0.0
H133 H 0.94697 0.43828 0.42534 0.0
H134 H 0.97706 0.45164 0.3609 0.0
H135 H 0.09303 0.55137 0.32362 0.0
H136 H 0.14952 0.61258 0.36055 0.0
H137 H 0.15664 0.46769 0.41762 0.0
H138 H 0.17515 0.50482 0.54158 0.0
H139 H 0.95837 0.60221 0.39239 0.0
H140 H 0.99562 0.66159 0.51085 0.0
C141 C 0.09537 0.6204 0.84604 0.0
C142 C 0.11915 0.64903 0.87556 0.0
C143 C 0.10565 0.64184 0.90941 0.0
C144 C 0.07457 0.60936 0.89866 0.0
N145 N 0.06802 0.59505 0.85999 0.0
Co146 Co 0.02191 0.55077 0.83098 0.0
N147 N 0.99561 0.54392 0.87978 0.0
C148 C 0.00963 0.5646 0.91608 0.0
C149 C 0.98605 0.55228 0.94385 0.0
C150 C 0.95545 0.52166 0.92421 0.0
C151 C 0.96223 0.51712 0.88545 0.0
N152 N 0.97573 0.50676 0.8017 0.0
C153 C 0.9443 0.48356 0.8149 0.0
C154 C 0.92009 0.45533 0.78505 0.0
C155 C 0.93715 0.4607 0.75183 0.0
C156 C 0.97059 0.49172 0.76322 0.0
N157 N 0.04803 0.55778 0.78216 0.0
C158 C 0.03544 0.53638 0.74604 0.0
C159 C 0.05755 0.54956 0.71804 0.0
C160 C 0.08519 0.58174 0.73721 0.0
C161 C 0.07813 0.5863 0.77594 0.0
N162 N 0.06323 0.52018 0.8398 0.0
C163 C 0.1114 0.47045 0.85363 0.0
C164 C 0.09359 0.46917 0.81625 0.0
C165 C 0.06989 0.49411 0.81 0.0
C166 C 0.1067 0.49785 0.88384 0.0
C167 C 0.08309 0.52253 0.87628 0.0
N168 N 0.98076 0.58108 0.82231 0.0
C169 C 0.93688 0.60255 0.77809 0.0
C170 C 0.93305 0.63044 0.80805 0.0
C171 C 0.95114 0.63235 0.84552 0.0
C172 C 0.97468 0.60746 0.85202 0.0
C173 C 0.96038 0.57803 0.78588 0.0
H174 H 0.98864 0.61066 0.88112 0.0
H175 H 0.96252 0.55731 0.76188 0.0
H176 H 0.05663 0.49122 0.78087 0.0
H177 H 0.08087 0.5429 0.90052 0.0
C178 C 0.04651 0.59439 0.92331 0.0
C179 C 0.09787 0.61923 0.80509 0.0
C180 C 0.93757 0.48621 0.85538 0.0
C181 C 0.99914 0.50629 0.73874 0.0
H182 H 0.14249 0.67319 0.87272 0.0
H183 H 0.11536 0.65921 0.9382 0.0
H184 H 0.99122 0.56372 0.97479 0.0
H185 H 0.93148 0.5042 0.93701 0.0
H186 H 0.89348 0.43276 0.78719 0.0
H187 H 0.92713 0.44355 0.72297 0.0
H188 H 0.05241 0.53808 0.68711 0.0
H189 H 0.10665 0.60043 0.72391 0.0
H190 H 0.09735 0.44868 0.7919 0.0
H191 H 0.12088 0.50014 0.91322 0.0
H192 H 0.92245 0.59997 0.74871 0.0
H193 H 0.94796 0.65336 0.86959 0.0
C194 C 0.40067 1.00304 0.6296 0.0
C195 C 0.44245 0.99969 0.64302 0.0
C196 C 0.47379 0.02626 0.6338 0.0
C197 C 0.44947 0.04427 0.61542 0.0
N198 N 0.40444 0.03094 0.61244 0.0
Co199 Co 0.35679 0.04752 0.58554 0.0
N200 N 0.40318 0.0841 0.56842 0.0
C201 C 0.44841 0.0899 0.5747 0.0
C202 C 0.47159 0.1177 0.56081 0.0
C203 C 0.43926 0.1308 0.54511 0.0
C204 C 0.3981 0.11015 0.55047 0.0
N205 N 0.30912 0.06455 0.55937 0.0
C206 C 0.31303 0.09299 0.54313 0.0
C207 C 0.27127 0.09724 0.53094 0.0
C208 C 0.23982 0.07088 0.54029 0.0
C209 C 0.26402 0.0521 0.55756 0.0
N210 N 0.31041 0.01044 0.60203 0.0
C211 C 0.26513 1.00377 0.5946 0.0
C212 C 0.24201 0.97611 0.60866 0.0
C213 C 0.2744 0.9638 0.62543 0.0
C214 C 0.3156 0.98485 0.62065 0.0
N215 N 0.3559 0.08373 0.6339 0.0
C216 C 0.35057 0.14027 0.69537 0.0
C217 C 0.31263 0.11309 0.67868 0.0
C218 C 0.31599 0.0853 0.64834 0.0
C219 C 0.39188 0.13824 0.68234 0.0
C220 C 0.39388 0.10957 0.65192 0.0
N221 N 0.35724 0.01133 0.537 0.0
C222 C 0.31671 0.96194 0.48432 0.0
C223 C 0.35682 0.9553 0.47263 0.0
C224 C 0.39727 0.97768 0.49265 0.0
C225 C 0.39674 1.00542 0.52459 0.0
C226 C 0.31767 0.9901 0.51605 0.0
H227 H 0.42864 0.02133 0.53916 0.0
H228 H 0.28588 0.99379 0.52339 0.0
H229 H 0.28543 0.06593 0.63658 0.0
H230 H 0.42626 0.10915 0.64304 0.0
C231 C 0.46797 0.07123 0.59719 0.0
C232 C 0.35853 0.97845 0.63279 0.0
C233 C 0.35529 0.11743 0.5399 0.0
C234 C 0.24538 0.02393 0.57414 0.0
H235 H 0.4495 0.9796 0.6572 0.0
H236 H 0.51001 0.03104 0.63864 0.0
H237 H 0.50769 0.12812 0.5632 0.0
H238 H 0.44527 0.15363 0.53223 0.0
H239 H 0.26427 0.11779 0.51747 0.0
H240 H 0.20363 0.06655 0.53602 0.0
H241 H 0.20592 0.96578 0.60647 0.0
H242 H 0.26838 0.94146 0.63907 0.0
H243 H 0.28013 0.11356 0.68853 0.0
H244 H 0.42227 0.15875 0.69518 0.0
H245 H 0.28461 0.9452 0.46932 0.0
H246 H 0.42914 0.97343 0.4842 0.0
C247 C 0.4885 0.76272 0.08106 0.0
C248 C 0.48861 0.79622 0.10333 0.0
C249 C 0.52012 0.82055 0.09115 0.0
C250 C 0.53742 0.80067 0.06227 0.0
N251 N 0.51835 0.76506 0.0547 0.0
Co252 Co 0.53586 0.72639 0.01691 0.0
N253 N 0.58291 0.76237 0.9996 0.0
C254 C 0.59365 0.79839 0.01288 0.0
C255 C 0.62498 0.81625 0.99366 0.0
C256 C 0.634 0.79019 0.96568 0.0
C257 C 0.6075 0.7578 0.96953 0.0
N258 N 0.55402 0.68777 0.97948 0.0
C259 C 0.58096 0.69035 0.95093 0.0
C260 C 0.58151 0.65692 0.92898 0.0
C261 C 0.55341 0.63232 0.94383 0.0
C262 C 0.53744 0.65204 0.97394 0.0
N263 N 0.4878 0.69055 0.03339 0.0
C264 C 0.47692 0.6546 0.01967 0.0
C265 C 0.44363 0.6368 0.03732 0.0
C266 C 0.43286 0.66292 0.06422 0.0
C267 C 0.46041 0.69527 0.06148 0.0
N268 N 0.49216 0.7295 0.97497 0.0
C269 C 0.44532 0.73555 0.90741 0.0
C270 C 0.44405 0.70193 0.91429 0.0
C271 C 0.46747 0.69951 0.94836 0.0
C272 C 0.46724 0.76588 0.9358 0.0
C273 C 0.48979 0.76229 0.96938 0.0
N274 N 0.58007 0.7236 0.05917 0.0
C275 C 0.60363 0.69212 0.10522 0.0
C276 C 0.63299 0.72373 0.12705 0.0
C277 C 0.63755 0.75453 0.1133 0.0
C278 C 0.61123 0.75387 0.07958 0.0
C279 C 0.57795 0.69255 0.07123 0.0
H280 H 0.61614 0.77858 0.07136 0.0
H281 H 0.55604 0.66766 0.05565 0.0
H282 H 0.46638 0.67324 0.95203 0.0
H283 H 0.50633 0.7865 0.98983 0.0
C284 C 0.5719 0.8147 0.0421 0.0
C285 C 0.46085 0.72956 0.08731 0.0
C286 C 0.60478 0.72379 0.94251 0.0
C287 C 0.50155 0.63826 0.99293 0.0
H288 H 0.46858 0.8024 0.12654 0.0
H289 H 0.52983 0.84928 0.10246 0.0
H290 H 0.63844 0.84488 0.99853 0.0
H291 H 0.65649 0.79463 0.9441 0.0
H292 H 0.59908 0.65104 0.90395 0.0
H293 H 0.54367 0.60358 0.93251 0.0
H294 H 0.42995 0.60817 0.03219 0.0
H295 H 0.40836 0.65863 0.0843 0.0
H296 H 0.42614 0.67775 0.89319 0.0
H297 H 0.4679 0.79239 0.93175 0.0
H298 H 0.59998 0.66737 0.11453 0.0
H299 H 0.66078 0.77941 0.12897 0.0
C300 C 0.94027 1.00743 0.69216 0.0
C301 C 0.98138 1.00385 0.70686 0.0
C302 C 0.01351 0.03126 0.69987 0.0
C303 C 0.99025 0.04997 0.68147 0.0
N304 N 0.9452 0.03632 0.67648 0.0
Co305 Co 0.89905 0.05391 0.64897 0.0
N306 N 0.94679 0.09032 0.63291 0.0
C307 C 0.99182 0.09553 0.64015 0.0
C308 C 0.01622 0.12325 0.6268 0.0
C309 C 0.98489 0.13681 0.6103 0.0
C310 C 0.94307 0.11654 0.61471 0.0
N311 N 0.85284 0.07227 0.62272 0.0
C312 C 0.85802 0.10061 0.60619 0.0
C313 C 0.81681 0.10572 0.59379 0.0
C314 C 0.78449 0.08019 0.60351 0.0
C315 C 0.80762 0.06104 0.62122 0.0
N316 N 0.85136 0.0164 0.66344 0.0
C317 C 0.80624 0.01035 0.65528 0.0
C318 C 0.78203 0.98244 0.66833 0.0
C319 C 0.81351 0.9691 0.68482 0.0
C320 C 0.85532 0.98984 0.68092 0.0
N321 N 0.89717 0.08965 0.69764 0.0
C322 C 0.88672 0.14574 0.75741 0.0
C323 C 0.85166 0.11565 0.74285 0.0
C324 C 0.85757 0.08816 0.71359 0.0
C325 C 0.92835 0.14688 0.74356 0.0
C326 C 0.93301 0.11833 0.71399 0.0
N327 N 0.89986 0.01822 0.60036 0.0
C328 C 0.85777 0.97022 0.54729 0.0
C329 C 0.89678 0.96051 0.53733 0.0
C330 C 0.93796 0.98093 0.55815 0.0
C331 C 0.93877 1.00971 0.58955 0.0
C332 C 0.86009 0.99918 0.57822 0.0
H333 H 0.97089 0.02424 0.6052 0.0
H334 H 0.82895 1.00511 0.58416 0.0
H335 H 0.82875 0.06656 0.70397 0.0
H336 H 0.96549 0.12038 0.70433 0.0
C337 C 0.00988 0.07691 0.66366 0.0
C338 C 0.89759 0.98213 0.6925 0.0
C339 C 0.90093 0.12445 0.60325 0.0
C340 C 0.7878 0.03231 0.63654 0.0
H341 H 0.98749 0.983 0.72025 0.0
H342 H 0.04963 0.03594 0.70578 0.0
H343 H 0.05242 0.1334 0.63018 0.0
H344 H 0.99194 0.15975 0.59762 0.0
H345 H 0.81075 0.12624 0.57985 0.0
H346 H 0.74841 0.07639 0.59875 0.0
H347 H 0.74582 0.97278 0.6659 0.0
H348 H 0.80645 0.94633 0.69775 0.0
H349 H 0.8191 0.11361 0.7534 0.0
H350 H 0.95673 0.16976 0.75485 0.0
H351 H 0.82528 0.95516 0.53155 0.0
H352 H 0.96911 0.97435 0.55082 0.0
C353 C 0.47502 0.29135 0.23685 0.0
C354 C 0.4766 0.32511 0.25933 0.0
C355 C 0.50705 0.34898 0.24559 0.0
C356 C 0.52234 0.32861 0.21566 0.0
N357 N 0.50319 0.29309 0.20912 0.0
Co358 Co 0.51899 0.25381 0.17091 0.0
N359 N 0.56401 0.28908 0.15074 0.0
C360 C 0.57465 0.3252 0.16297 0.0
C361 C 0.60543 0.3424 0.1428 0.0
C362 C 0.61414 0.31574 0.11528 0.0
C363 C 0.58812 0.28369 0.1204 0.0
N364 N 0.53562 0.21451 0.13327 0.0
C365 C 0.56204 0.21619 0.10428 0.0
C366 C 0.56248 0.18236 0.0833 0.0
C367 C 0.53503 0.15842 0.09935 0.0
C368 C 0.51957 0.1789 0.12915 0.0
N369 N 0.47289 0.21855 0.19012 0.0
C370 C 0.46209 0.18249 0.17749 0.0
C371 C 0.43001 0.16519 0.19656 0.0
C372 C 0.41983 0.19178 0.22321 0.0
C373 C 0.44651 0.22388 0.21887 0.0
N374 N 0.47238 0.25584 0.13048 0.0
C375 C 0.41429 0.25995 0.06798 0.0
C376 C 0.41634 0.22683 0.07473 0.0
C377 C 0.44547 0.22536 0.10607 0.0
C378 C 0.44034 0.29085 0.09352 0.0
C379 C 0.4685 0.28822 0.1246 0.0
N380 N 0.566 0.25233 0.21177 0.0
C381 C 0.59385 0.22318 0.25841 0.0
C382 C 0.62512 0.25509 0.2771 0.0
C383 C 0.62787 0.28479 0.26172 0.0
C384 C 0.59854 0.28284 0.22937 0.0
C385 C 0.56499 0.22229 0.22562 0.0
H386 H 0.60259 0.30686 0.21993 0.0
H387 H 0.54177 0.19723 0.21237 0.0
H388 H 0.44637 0.19937 0.10966 0.0
H389 H 0.4874 0.31284 0.14313 0.0
C390 C 0.55486 0.34207 0.19341 0.0
C391 C 0.44695 0.25859 0.2437 0.0
C392 C 0.58605 0.24902 0.09476 0.0
C393 C 0.4854 0.16566 0.14999 0.0
H394 H 0.45809 0.33176 0.28353 0.0
H395 H 0.51726 0.37776 0.25648 0.0
H396 H 0.61925 0.37093 0.14714 0.0
H397 H 0.63648 0.3195 0.09344 0.0
H398 H 0.57982 0.17573 0.0583 0.0
H399 H 0.52577 0.12955 0.08929 0.0
H400 H 0.41661 0.13661 0.19236 0.0
H401 H 0.39623 0.18797 0.24411 0.0
H402 H 0.39621 0.20221 0.05561 0.0
H403 H 0.43941 0.31704 0.08934 0.0
H404 H 0.59126 0.19928 0.26922 0.0
H405 H 0.65218 0.30987 0.27507 0.0
C406 C 0.22983 0.40684 0.47059 0.0
C407 C 0.24495 0.37494 0.46288 0.0
C408 C 0.21318 0.43211 0.47705 0.0
C409 C 0.19386 0.45587 0.48139 0.0
C410 C 0.17286 0.69715 0.76254 0.0
C411 C 0.20264 0.71596 0.75058 0.0
C412 C 0.14392 0.67305 0.77933 0.0
C413 C 0.12233 0.65005 0.79279 0.0
C414 C 0.90401 0.70204 0.41865 0.0
C415 C 0.88546 0.72179 0.40606 0.0
C416 C 0.92795 0.67977 0.43262 0.0
C417 C 0.94941 0.66047 0.44248 0.0
C418 C 0.85996 0.39658 0.87671 0.0
C419 C 0.84103 0.36789 0.88145 0.0
C420 C 0.88512 0.42944 0.87163 0.0
C421 C 0.90837 0.45625 0.86573 0.0
C422 C 0.34502 0.20184 0.49503 0.0
C423 C 0.33771 0.22386 0.47842 0.0
C424 C 0.35131 0.17402 0.51221 0.0
C425 C 0.3544 0.14886 0.52532 0.0
C426 C 0.38791 0.75455 0.81087 0.0
C427 C 0.36352 0.75981 0.78601 0.0
C428 C 0.40923 0.746 0.84268 0.0
C429 C 0.42502 0.73961 0.87151 0.0
C430 C 0.87102 0.87021 0.45094 0.0
C431 C 0.86061 0.84176 0.42734 0.0
C432 C 0.88435 0.90242 0.48034 0.0
C433 C 0.89312 0.92911 0.50647 0.0
C434 C 0.66122 0.25262 1.00518 0.0
C435 C 0.69006 0.26176 0.98536 0.0
C436 C 0.63184 0.24795 0.03373 0.0
C437 C 0.60992 0.2473 0.06067 0.0
C438 C 0.34755 0.89062 0.66622 0.0
C439 C 0.33305 0.85623 0.6736 0.0
C440 C 0.35495 0.91906 0.65737 0.0
C441 C 0.3588 0.94666 0.64702 0.0
C442 C 0.70685 0.73718 0.22376 0.0
C443 C 0.74074 0.74579 0.25592 0.0
C444 C 0.68158 0.73052 0.19406 0.0
C445 C 0.65847 0.72542 0.16346 0.0
C446 C 0.84181 0.21821 0.83279 0.0
C447 C 0.82524 0.23944 0.85284 0.0
C448 C 0.86304 0.19552 0.80814 0.0
C449 C 0.87789 0.17488 0.78551 0.0
C450 C 0.37684 0.27217 0.33703 0.0
C451 C 0.35852 0.27606 0.36619 0.0
C452 C 0.39954 0.26568 0.30376 0.0
C453 C 0.42015 0.26105 0.27605 0.0
C454 C 0.86912 0.7051 0.78842 0.0
C455 C 0.84494 0.72464 0.78536 0.0
C456 C 0.89288 0.67972 0.79429 0.0
C457 C 0.91114 0.65717 0.80034 0.0
C458 C 0.89948 0.40086 0.49835 0.0
C459 C 0.872 0.37217 0.49072 0.0
C460 C 0.93154 0.4343 0.50387 0.0
C461 C 0.95859 0.46176 0.50322 0.0
C462 C 0.17519 0.39969 0.8683 0.0
C463 C 0.20433 0.37668 0.86956 0.0
C464 C 0.15401 0.42144 0.8651 0.0
C465 C 0.13477 0.44404 0.86061 0.0
C466 C 0.22002 0.70346 0.39387 0.0
C467 C 0.24201 0.72113 0.37469 0.0
C468 C 0.19536 0.68114 0.41545 0.0
C469 C 0.17394 0.65933 0.43072 0.0
C470 C 0.8658 0.88738 0.72146 0.0
C471 C 0.84175 0.86132 0.72866 0.0
C472 C 0.88627 0.92021 0.71256 0.0
C473 C 0.89596 0.94881 0.70412 0.0
C474 C 0.71339 0.2781 0.37453 0.0
C475 C 0.74125 0.28802 0.40288 0.0
C476 C 0.68104 0.2663 0.34103 0.0
C477 C 0.65439 0.25859 0.31206 0.0
C478 C 0.324 0.21743 0.77922 0.0
C479 C 0.31336 0.23792 0.80522 0.0
C480 C 0.33711 0.19256 0.75009 0.0
C481 C 0.34597 0.16977 0.72545 0.0
C482 C 0.39058 0.73995 0.18105 0.0
C483 C 0.36811 0.7414 0.2078 0.0
C484 C 0.41454 0.73509 0.14827 0.0
C485 C 0.43481 0.73123 0.12022 0.0
C486 C 0.87988 0.20882 0.56423 0.0
C487 C 0.8576 0.23136 0.5489 0.0
C488 C 0.89279 0.18617 0.57646 0.0
C489 C 0.90095 0.15675 0.58992 0.0
C490 C 0.34138 0.27382 0.97521 0.0
C491 C 0.32486 0.27917 0.9459 0.0
C492 C 0.36454 0.26729 1.00771 0.0
C493 C 0.38667 0.26274 0.03474 0.0
C494 C 0.34429 0.86662 0.38569 0.0
C495 C 0.33361 0.83687 0.36451 0.0
C496 C 0.35227 0.89909 0.41458 0.0
C497 C 0.35598 0.92496 0.44111 0.0
C498 C 0.67815 0.73663 0.85377 0.0
C499 C 0.7057 0.74517 0.83267 0.0
C500 C 0.64946 0.72813 0.88169 0.0
C501 C 0.62777 0.72386 0.90812 0.0
loop_
_geom_bond_atom_site_label_1
_geom_bond_atom_site_label_2
_geom_bond_distance
_geom_bond_site_symmetry_2
_ccdc_geom_bond_type
H0 C3 0.929 . S
H1 C6 0.929 . S
H2 C8 0.930 . S
C3 H0 0.929 . S
C3 C4 1.398 . S
C3 C5 1.396 . S
C4 C3 1.398 . S
C4 C8 1.407 . S
C5 C3 1.396 . S
C5 C6 1.394 . S
C6 H1 0.929 . S
C6 C5 1.394 . S
C6 C7 1.382 . S
C7 C6 1.382 . S
C7 C8 1.392 . S
C7 N9 1.420 . S
C8 H2 0.930 . S
C8 C4 1.407 . S
C8 C7 1.392 . S
N9 C7 1.420 . S
N9 C10 1.244 . S
C10 N9 1.244 . S
H11 C14 0.929 . S
H12 C17 0.929 . S
H13 C19 0.930 . S
C14 H11 0.929 . S
C14 C15 1.398 . S
C14 C16 1.396 . S
C15 C14 1.398 . S
C15 C19 1.407 . S
C16 C14 1.396 . S
C16 C17 1.394 . S
C17 H12 0.929 . S
C17 C16 1.394 . S
C17 C18 1.382 . S
C18 C17 1.382 . S
C18 C19 1.392 . S
C18 N20 1.420 . S
C19 H13 0.930 . S
C19 C15 1.407 . S
C19 C18 1.392 . S
N20 C18 1.420 . S
N20 C21 1.244 . S
C21 N20 1.244 . S
H22 C25 0.929 . S
H23 C28 0.929 . S
H24 C30 0.930 . S
C25 H22 0.929 . S
C25 C26 1.398 . S
C25 C27 1.396 . S
C26 C25 1.398 . S
C26 C30 1.407 . S
C27 C25 1.396 . S
C27 C28 1.394 . S
C28 H23 0.929 . S
C28 C27 1.394 . S
C28 C29 1.382 . S
C29 C28 1.382 . S
C29 C30 1.392 . S
C29 N31 1.420 . S
C30 H24 0.930 . S
C30 C26 1.407 . S
C30 C29 1.392 . S
N31 C29 1.420 . S
N31 C32 1.244 . S
C32 N31 1.244 . S
H33 C36 0.929 . S
H34 C39 0.929 . S
H35 C41 0.930 . S
C36 H33 0.929 . S
C36 C37 1.398 . S
C36 C38 1.396 . S
C37 C36 1.398 . S
C37 C41 1.407 . S
C38 C36 1.396 . S
C38 C39 1.394 . S
C39 H34 0.929 . S
C39 C38 1.394 . S
C39 C40 1.382 . S
C40 C39 1.382 . S
C40 C41 1.392 . S
C40 N42 1.420 . S
C41 H35 0.930 . S
C41 C37 1.407 . S
C41 C40 1.392 . S
N42 C40 1.420 . S
N42 C43 1.244 . S
C43 N42 1.244 . S
H44 C47 0.929 . S
H45 C50 0.929 . S
H46 C52 0.930 . S
C47 H44 0.929 . S
C47 C48 1.398 . S
C47 C49 1.396 . S
C48 C47 1.398 . S
C48 C52 1.407 . S
C49 C47 1.396 . S
C49 C50 1.394 . S
C50 H45 0.929 . S
C50 C49 1.394 . S
C50 C51 1.382 . S
C51 C50 1.382 . S
C51 C52 1.392 . S
C51 N53 1.420 . S
C52 H46 0.930 . S
C52 C48 1.407 . S
C52 C51 1.392 . S
N53 C51 1.420 . S
N53 C54 1.244 . S
C54 N53 1.244 . S
H55 C58 0.929 . S
H56 C61 0.929 . S
H57 C63 0.930 . S
C58 H55 0.929 . S
C58 C59 1.398 . S
C58 C60 1.396 . S
C59 C58 1.398 . S
C59 C63 1.407 . S
C60 C58 1.396 . S
C60 C61 1.394 . S
C61 H56 0.929 . S
C61 C60 1.394 . S
C61 C62 1.382 . S
C62 C61 1.382 . S
C62 C63 1.392 . S
C62 N64 1.420 . S
C63 H57 0.930 . S
C63 C59 1.407 . S
C63 C62 1.392 . S
N64 C62 1.420 . S
N64 C65 1.244 . S
C65 N64 1.244 . S
H66 C69 0.929 . S
H67 C72 0.929 . S
H68 C74 0.930 . S
C69 H66 0.929 . S
C69 C70 1.398 . S
C69 C71 1.396 . S
C70 C69 1.398 . S
C70 C74 1.407 . S
C71 C69 1.396 . S
C71 C72 1.394 . S
C72 H67 0.929 . S
C72 C71 1.394 . S
C72 C73 1.382 . S
C73 C72 1.382 . S
C73 C74 1.392 . S
C73 N75 1.420 . S
C74 H68 0.930 . S
C74 C70 1.407 . S
C74 C73 1.392 . S
N75 C73 1.420 . S
N75 C76 1.244 . S
C76 N75 1.244 . S
H77 C80 0.929 . S
H78 C83 0.929 . S
H79 C85 0.930 . S
C80 H77 0.929 . S
C80 C81 1.398 . S
C80 C82 1.396 . S
C81 C80 1.398 . S
C81 C85 1.407 . S
C82 C80 1.396 . S
C82 C83 1.394 . S
C83 H78 0.929 . S
C83 C82 1.394 . S
C83 C84 1.382 . S
C84 C83 1.382 . S
C84 C85 1.392 . S
C84 N86 1.420 . S
C85 H79 0.930 . S
C85 C81 1.407 . S
C85 C84 1.392 . S
N86 C84 1.420 . S
N86 C87 1.244 . S
C87 N86 1.244 . S
C88 C89 1.443 . S
C88 N92 1.376 . S
C88 C126 1.389 . S
C89 C88 1.443 . S
C89 C90 1.340 . S
C89 H129 0.951 . S
C90 C89 1.340 . S
C90 C91 1.439 . S
C90 H130 0.950 . S
C91 C90 1.439 . S
C91 N92 1.374 . S
C91 C125 1.395 . S
N92 C88 1.376 . S
N92 C91 1.374 . S
N92 Co93 2.008 . S
Co93 N92 2.008 . S
Co93 N94 1.995 . S
Co93 N99 2.008 . S
Co93 N104 1.995 . S
Co93 N109 2.282 . S
Co93 N115 2.282 . S
N94 Co93 1.995 . S
N94 C95 1.376 . S
N94 C98 1.383 . S
C95 N94 1.376 . S
C95 C96 1.446 . S
C95 C125 1.391 . S
C96 C95 1.446 . S
C96 C97 1.339 . S
C96 H131 0.949 . S
C97 C96 1.339 . S
C97 C98 1.439 . S
C97 H132 0.950 1_455 S
C98 N94 1.383 . S
C98 C97 1.439 . S
C98 C127 1.392 1_455 S
N99 Co93 2.008 . S
N99 C100 1.376 1_455 S
N99 C103 1.374 . S
C100 N99 1.376 1_655 S
C100 C101 1.443 . S
C100 C127 1.389 . S
C101 C100 1.443 . S
C101 C102 1.340 . S
C101 H133 0.951 . S
C102 C101 1.340 . S
C102 C103 1.439 1_655 S
C102 H134 0.950 . S
C103 N99 1.374 . S
C103 C102 1.439 1_455 S
C103 C128 1.395 . S
N104 Co93 1.995 . S
N104 C105 1.376 . S
N104 C108 1.383 . S
C105 N104 1.376 . S
C105 C106 1.446 . S
C105 C128 1.391 . S
C106 C105 1.446 . S
C106 C107 1.339 . S
C106 H135 0.949 . S
C107 C106 1.339 . S
C107 C108 1.439 . S
C107 H136 0.950 . S
C108 N104 1.383 . S
C108 C107 1.439 . S
C108 C126 1.392 . S
N109 Co93 2.282 . S
N109 C112 1.332 . S
N109 C114 1.332 . S
C110 C111 1.386 . S
C110 C113 1.388 . S
C111 C110 1.386 . S
C111 C112 1.382 . S
C111 H137 0.950 . S
C112 N109 1.332 . S
C112 C111 1.382 . S
C112 H123 0.952 . S
C113 C110 1.388 . S
C113 C114 1.382 . S
C113 H138 0.950 . S
C114 N109 1.332 . S
C114 C113 1.382 . S
C114 H124 0.948 . S
N115 Co93 2.282 . S
N115 C119 1.332 . S
N115 C120 1.332 . S
C116 C117 1.388 . S
C116 C120 1.382 1_655 S
C116 H139 0.950 . S
C117 C116 1.388 . S
C117 C118 1.386 . S
C118 C117 1.386 . S
C118 C119 1.382 1_655 S
C118 H140 0.950 . S
C119 N115 1.332 . S
C119 C118 1.382 1_455 S
C119 H121 0.952 . S
C120 N115 1.332 . S
C120 C116 1.382 1_455 S
C120 H122 0.948 . S
H121 C119 0.952 . S
H122 C120 0.948 . S
H123 C112 0.952 . S
H124 C114 0.948 . S
C125 C91 1.395 . S
C125 C95 1.391 . S
C126 C88 1.389 . S
C126 C108 1.392 . S
C127 C98 1.392 1_655 S
C127 C100 1.389 . S
C128 C103 1.395 . S
C128 C105 1.391 . S
H129 C89 0.951 . S
H130 C90 0.950 . S
H131 C96 0.949 . S
H132 C97 0.950 1_655 S
H133 C101 0.951 . S
H134 C102 0.950 . S
H135 C106 0.949 . S
H136 C107 0.950 . S
H137 C111 0.950 . S
H138 C113 0.950 . S
H139 C116 0.950 . S
H140 C118 0.950 . S
C141 C142 1.443 . S
C141 N145 1.376 . S
C141 C179 1.389 . S
C142 C141 1.443 . S
C142 C143 1.340 . S
C142 H182 0.951 . S
C143 C142 1.340 . S
C143 C144 1.439 . S
C143 H183 0.950 . S
C144 C143 1.439 . S
C144 N145 1.374 . S
C144 C178 1.395 . S
N145 C141 1.376 . S
N145 C144 1.374 . S
N145 Co146 2.008 . S
Co146 N145 2.008 . S
Co146 N147 1.995 1_455 S
Co146 N152 2.008 1_455 S
Co146 N157 1.995 . S
Co146 N162 2.282 . S
Co146 N168 2.282 1_455 S
N147 Co146 1.995 1_655 S
N147 C148 1.376 1_655 S
N147 C151 1.383 . S
C148 N147 1.376 1_455 S
C148 C149 1.443 1_455 S
C148 C178 1.395 . S
C149 C148 1.443 1_655 S
C149 C150 1.339 . S
C149 H184 0.949 . S
C150 C149 1.339 . S
C150 C151 1.439 . S
C150 H185 0.950 . S
C151 N147 1.383 . S
C151 C150 1.439 . S
C151 C180 1.392 . S
N152 Co146 2.008 1_655 S
N152 C153 1.376 . S
N152 C156 1.374 . S
C153 N152 1.376 . S
C153 C154 1.443 . S
C153 C180 1.389 . S
C154 C153 1.443 . S
C154 C155 1.340 . S
C154 H186 0.951 . S
C155 C154 1.340 . S
C155 C156 1.439 . S
C155 H187 0.950 . S
C156 N152 1.374 . S
C156 C155 1.439 . S
C156 C181 1.395 . S
N157 Co146 1.995 . S
N157 C158 1.376 . S
N157 C161 1.383 . S
C158 N157 1.376 . S
C158 C159 1.446 . S
C158 C181 1.391 1_455 S
C159 C158 1.446 . S
C159 C160 1.339 . S
C159 H188 0.949 . S
C160 C159 1.339 . S
C160 C161 1.439 . S
C160 H189 0.950 . S
C161 N157 1.383 . S
C161 C160 1.439 . S
C161 C179 1.392 . S
N162 Co146 2.282 . S
N162 C165 1.332 . S
N162 C167 1.332 . S
C163 C164 1.386 . S
C163 C166 1.388 . S
C164 C163 1.386 . S
C164 C165 1.382 . S
C164 H190 0.950 . S
C165 N162 1.332 . S
C165 C164 1.382 . S
C165 H176 0.952 . S
C166 C163 1.388 . S
C166 C167 1.382 . S
C166 H191 0.950 . S
C167 N162 1.332 . S
C167 C166 1.382 . S
C167 H177 0.948 . S
N168 Co146 2.282 1_655 S
N168 C172 1.332 . S
N168 C173 1.332 . S
C169 C170 1.388 . S
C169 C173 1.382 . S
C169 H192 0.950 . S
C170 C169 1.388 . S
C170 C171 1.386 . S
C171 C170 1.386 . S
C171 C172 1.382 . S
C171 H193 0.950 . S
C172 N168 1.332 . S
C172 C171 1.382 . S
C172 H174 0.952 . S
C173 N168 1.332 . S
C173 C169 1.382 . S
C173 H175 0.948 . S
H174 C172 0.952 . S
H175 C173 0.948 . S
H176 C165 0.952 . S
H177 C167 0.948 . S
C178 C144 1.395 . S
C178 C148 1.395 . S
C179 C141 1.389 . S
C179 C161 1.392 . S
C180 C151 1.392 . S
C180 C153 1.389 . S
C181 C156 1.395 . S
C181 C158 1.391 1_655 S
H182 C142 0.951 . S
H183 C143 0.950 . S
H184 C149 0.949 . S
H185 C150 0.950 . S
H186 C154 0.951 . S
H187 C155 0.950 . S
H188 C159 0.949 . S
H189 C160 0.950 . S
H190 C164 0.950 . S
H191 C166 0.950 . S
H192 C169 0.950 . S
H193 C171 0.950 . S
C194 C195 1.443 . S
C194 N198 1.376 1_565 S
C194 C232 1.389 . S
C195 C194 1.443 . S
C195 C196 1.340 1_565 S
C195 H235 0.951 . S
C196 C195 1.340 1_545 S
C196 C197 1.439 . S
C196 H236 0.950 . S
C197 C196 1.439 . S
C197 N198 1.374 . S
C197 C231 1.395 . S
N198 C194 1.376 1_545 S
N198 C197 1.374 . S
N198 Co199 2.008 . S
Co199 N198 2.008 . S
Co199 N200 1.995 . S
Co199 N205 2.008 . S
Co199 N210 1.995 . S
Co199 N215 2.282 . S
Co199 N221 2.282 1_545 S
N200 Co199 1.995 . S
N200 C201 1.376 . S
N200 C204 1.383 . S
C201 N200 1.376 . S
C201 C202 1.446 . S
C201 C231 1.391 . S
C202 C201 1.446 . S
C202 C203 1.339 . S
C202 H237 0.949 . S
C203 C202 1.339 . S
C203 C204 1.439 . S
C203 H238 0.950 . S
C204 N200 1.383 . S
C204 C203 1.439 . S
C204 C233 1.392 . S
N205 Co199 2.008 . S
N205 C206 1.376 . S
N205 C209 1.374 . S
C206 N205 1.376 . S
C206 C207 1.443 . S
C206 C233 1.389 . S
C207 C206 1.443 . S
C207 C208 1.340 . S
C207 H239 0.951 . S
C208 C207 1.340 . S
C208 C209 1.439 . S
C208 H240 0.950 . S
C209 N205 1.374 . S
C209 C208 1.439 . S
C209 C234 1.395 . S
N210 Co199 1.995 . S
N210 C211 1.376 1_545 S
N210 C214 1.383 1_545 S
C211 N210 1.376 1_565 S
C211 C212 1.446 . S
C211 C234 1.391 1_565 S
C212 C211 1.446 . S
C212 C213 1.339 . S
C212 H241 0.949 . S
C213 C212 1.339 . S
C213 C214 1.439 . S
C213 H242 0.950 . S
C214 N210 1.383 1_565 S
C214 C213 1.439 . S
C214 C232 1.392 . S
N215 Co199 2.282 . S
N215 C218 1.332 . S
N215 C220 1.332 . S
C216 C217 1.386 . S
C216 C219 1.388 . S
C217 C216 1.386 . S
C217 C218 1.382 . S
C217 H243 0.950 . S
C218 N215 1.332 . S
C218 C217 1.382 . S
C218 H229 0.952 . S
C219 C216 1.388 . S
C219 C220 1.382 . S
C219 H244 0.950 . S
C220 N215 1.332 . S
C220 C219 1.382 . S
C220 H230 0.948 . S
N221 Co199 2.282 1_565 S
N221 C225 1.332 . S
N221 C226 1.332 . S
C222 C223 1.388 . S
C222 C226 1.382 . S
C222 H245 0.950 . S
C223 C222 1.388 . S
C223 C224 1.386 . S
C224 C223 1.386 . S
C224 C225 1.382 . S
C224 H246 0.950 . S
C225 N221 1.332 . S
C225 C224 1.382 . S
C225 H227 0.952 1_565 S
C226 N221 1.332 . S
C226 C222 1.382 . S
C226 H228 0.948 . S
H227 C225 0.952 1_545 S
H228 C226 0.948 . S
H229 C218 0.952 . S
H230 C220 0.948 . S
C231 C197 1.395 . S
C231 C201 1.391 . S
C232 C194 1.389 . S
C232 C214 1.392 . S
C233 C204 1.392 . S
C233 C206 1.389 . S
C234 C209 1.395 . S
C234 C211 1.391 1_545 S
H235 C195 0.951 . S
H236 C196 0.950 . S
H237 C202 0.949 . S
H238 C203 0.950 . S
H239 C207 0.951 . S
H240 C208 0.950 . S
H241 C212 0.949 . S
H242 C213 0.950 . S
H243 C217 0.950 . S
H244 C219 0.950 . S
H245 C222 0.950 . S
H246 C224 0.950 . S
C247 C248 1.443 . S
C247 N251 1.376 . S
C247 C285 1.389 . S
C248 C247 1.443 . S
C248 C249 1.340 . S
C248 H288 0.951 . S
C249 C248 1.340 . S
C249 C250 1.439 . S
C249 H289 0.950 . S
C250 C249 1.439 . S
C250 N251 1.374 . S
C250 C284 1.395 . S
N251 C247 1.376 . S
N251 C250 1.374 . S
N251 Co252 2.008 . S
Co252 N251 2.008 . S
Co252 N253 1.995 1_554 S
Co252 N258 2.008 1_554 S
Co252 N263 1.995 . S
Co252 N268 2.282 1_554 S
Co252 N274 2.282 . S
N253 Co252 1.995 1_556 S
N253 C254 1.372 1_556 S
N253 C257 1.383 . S
C254 N253 1.372 1_554 S
C254 C255 1.427 1_554 S
C254 C284 1.411 . S
C255 C254 1.427 1_556 S
C255 C256 1.339 . S
C255 H290 0.949 . S
C256 C255 1.339 . S
C256 C257 1.439 . S
C256 H291 0.950 . S
C257 N253 1.383 . S
C257 C256 1.439 . S
C257 C286 1.392 . S
N258 Co252 2.008 1_556 S
N258 C259 1.376 . S
N258 C262 1.374 . S
C259 N258 1.376 . S
C259 C260 1.443 . S
C259 C286 1.389 . S
C260 C259 1.443 . S
C260 C261 1.340 . S
C260 H292 0.951 . S
C261 C260 1.340 . S
C261 C262 1.439 . S
C261 H293 0.950 . S
C262 N258 1.374 . S
C262 C261 1.439 . S
C262 C287 1.395 . S
N263 Co252 1.995 . S
N263 C264 1.376 . S
N263 C267 1.383 . S
C264 N263 1.376 . S
C264 C265 1.446 . S
C264 C287 1.391 1_554 S
C265 C264 1.446 . S
C265 C266 1.339 . S
C265 H294 0.949 . S
C266 C265 1.339 . S
C266 C267 1.439 . S
C266 H295 0.950 . S
C267 N263 1.383 . S
C267 C266 1.439 . S
C267 C285 1.392 . S
N268 Co252 2.282 1_556 S
N268 C271 1.332 . S
N268 C273 1.332 . S
C269 C270 1.386 . S
C269 C272 1.388 . S
C270 C269 1.386 . S
C270 C271 1.382 . S
C270 H296 0.950 . S
C271 N268 1.332 . S
C271 C270 1.382 . S
C271 H282 0.952 . S
C272 C269 1.388 . S
C272 C273 1.382 . S
C272 H297 0.950 . S
C273 N268 1.332 . S
C273 C272 1.382 . S
C273 H283 0.948 . S
N274 Co252 2.282 . S
N274 C278 1.332 . S
N274 C279 1.332 . S
C275 C276 1.388 . S
C275 C279 1.382 . S
C275 H298 0.950 . S
C276 C275 1.388 . S
C276 C277 1.386 . S
C277 C276 1.386 . S
C277 C278 1.382 . S
C277 H299 0.950 . S
C278 N274 1.332 . S
C278 C277 1.382 . S
C278 H280 0.952 . S
C279 N274 1.332 . S
C279 C275 1.382 . S
C279 H281 0.948 . S
H280 C278 0.952 . S
H281 C279 0.948 . S
H282 C271 0.952 . S
H283 C273 0.948 . S
C284 C250 1.395 . S
C284 C254 1.411 . S
C285 C247 1.389 . S
C285 C267 1.392 . S
C286 C257 1.392 . S
C286 C259 1.389 . S
C287 C262 1.395 . S
C287 C264 1.391 1_556 S
H288 C248 0.951 . S
H289 C249 0.950 . S
H290 C255 0.949 . S
H291 C256 0.950 . S
H292 C260 0.951 . S
H293 C261 0.950 . S
H294 C265 0.949 . S
H295 C266 0.950 . S
H296 C270 0.950 . S
H297 C272 0.950 . S
H298 C275 0.950 . S
H299 C277 0.950 . S
C300 C301 1.443 . S
C300 N304 1.376 1_565 S
C300 C338 1.389 . S
C301 C300 1.443 . S
C301 C302 1.340 1_665 S
C301 H341 0.951 . S
C302 C301 1.340 1_445 S
C302 C303 1.439 1_455 S
C302 H342 0.950 . S
C303 C302 1.439 1_655 S
C303 N304 1.374 . S
C303 C337 1.395 1_655 S
N304 C300 1.376 1_545 S
N304 C303 1.374 . S
N304 Co305 2.008 . S
Co305 N304 2.008 . S
Co305 N306 1.995 . S
Co305 N311 2.008 . S
Co305 N316 1.995 . S
Co305 N321 2.282 . S
Co305 N327 2.282 . S
N306 Co305 1.995 . S
N306 C307 1.376 . S
N306 C310 1.383 . S
C307 N306 1.376 . S
C307 C308 1.446 1_655 S
C307 C337 1.391 1_655 S
C308 C307 1.446 1_455 S
C308 C309 1.339 1_455 S
C308 H343 0.949 . S
C309 C308 1.339 1_655 S
C309 C310 1.439 . S
C309 H344 0.950 . S
C310 N306 1.383 . S
C310 C309 1.439 . S
C310 C339 1.392 . S
N311 Co305 2.008 . S
N311 C312 1.376 . S
N311 C315 1.374 . S
C312 N311 1.376 . S
C312 C313 1.443 . S
C312 C339 1.389 . S
C313 C312 1.443 . S
C313 C314 1.340 . S
C313 H345 0.951 . S
C314 C313 1.340 . S
C314 C315 1.439 . S
C314 H346 0.950 . S
C315 N311 1.374 . S
C315 C314 1.439 . S
C315 C340 1.395 . S
N316 Co305 1.995 . S
N316 C317 1.376 . S
N316 C320 1.383 1_545 S
C317 N316 1.376 . S
C317 C318 1.446 1_545 S
C317 C340 1.391 . S
C318 C317 1.446 1_565 S
C318 C319 1.339 . S
C318 H347 0.949 . S
C319 C318 1.339 . S
C319 C320 1.439 . S
C319 H348 0.950 . S
C320 N316 1.383 1_565 S
C320 C319 1.439 . S
C320 C338 1.392 . S
N321 Co305 2.282 . S
N321 C324 1.332 . S
N321 C326 1.332 . S
C322 C323 1.386 . S
C322 C325 1.388 . S
C323 C322 1.386 . S
C323 C324 1.382 . S
C323 H349 0.950 . S
C324 N321 1.332 . S
C324 C323 1.382 . S
C324 H335 0.952 . S
C325 C322 1.388 . S
C325 C326 1.382 . S
C325 H350 0.950 . S
C326 N321 1.332 . S
C326 C325 1.382 . S
C326 H336 0.948 . S
N327 Co305 2.282 . S
N327 C331 1.332 . S
N327 C332 1.332 1_545 S
C328 C329 1.388 . S
C328 C332 1.382 . S
C328 H351 0.950 . S
C329 C328 1.388 . S
C329 C330 1.386 . S
C330 C329 1.386 . S
C330 C331 1.382 1_565 S
C330 H352 0.950 . S
C331 N327 1.332 . S
C331 C330 1.382 1_545 S
C331 H333 0.952 . S
C332 N327 1.332 1_565 S
C332 C328 1.382 . S
C332 H334 0.948 . S
H333 C331 0.952 . S
H334 C332 0.948 . S
H335 C324 0.952 . S
H336 C326 0.948 . S
C337 C303 1.395 1_455 S
C337 C307 1.391 1_455 S
C338 C300 1.389 . S
C338 C320 1.392 . S
C339 C310 1.392 . S
C339 C312 1.389 . S
C340 C315 1.395 . S
C340 C317 1.391 . S
H341 C301 0.951 . S
H342 C302 0.950 . S
H343 C308 0.949 . S
H344 C309 0.950 . S
H345 C313 0.951 . S
H346 C314 0.950 . S
H347 C318 0.949 . S
H348 C319 0.950 . S
H349 C323 0.950 . S
H350 C325 0.950 . S
H351 C328 0.950 . S
H352 C330 0.950 . S
C353 C354 1.443 . S
C353 N357 1.376 . S
C353 C391 1.389 . S
C354 C353 1.443 . S
C354 C355 1.340 . S
C354 H394 0.951 . S
C355 C354 1.340 . S
C355 C356 1.439 . S
C355 H395 0.950 . S
C356 C355 1.439 . S
C356 N357 1.374 . S
C356 C390 1.395 . S
N357 C353 1.376 . S
N357 C356 1.374 . S
N357 Co358 2.008 . S
Co358 N357 2.008 . S
Co358 N359 1.995 . S
Co358 N364 2.008 . S
Co358 N369 1.995 . S
Co358 N374 2.282 . S
Co358 N380 2.282 . S
N359 Co358 1.995 . S
N359 C360 1.376 . S
N359 C363 1.383 . S
C360 N359 1.376 . S
C360 C361 1.446 . S
C360 C390 1.391 . S
C361 C360 1.446 . S
C361 C362 1.339 . S
C361 H396 0.949 . S
C362 C361 1.339 . S
C362 C363 1.439 . S
C362 H397 0.950 . S
C363 N359 1.383 . S
C363 C362 1.439 . S
C363 C392 1.392 . S
N364 Co358 2.008 . S
N364 C365 1.376 . S
N364 C368 1.374 . S
C365 N364 1.376 . S
C365 C366 1.443 . S
C365 C392 1.389 . S
C366 C365 1.443 . S
C366 C367 1.340 . S
C366 H398 0.951 . S
C367 C366 1.340 . S
C367 C368 1.439 . S
C367 H399 0.950 . S
C368 N364 1.374 . S
C368 C367 1.439 . S
C368 C393 1.395 . S
N369 Co358 1.995 . S
N369 C370 1.376 . S
N369 C373 1.383 . S
C370 N369 1.376 . S
C370 C371 1.446 . S
C370 C393 1.391 . S
C371 C370 1.446 . S
C371 C372 1.339 . S
C371 H400 0.949 . S
C372 C371 1.339 . S
C372 C373 1.439 . S
C372 H401 0.950 . S
C373 N369 1.383 . S
C373 C372 1.439 . S
C373 C391 1.392 . S
N374 Co358 2.282 . S
N374 C377 1.332 . S
N374 C379 1.332 . S
C375 C376 1.386 . S
C375 C378 1.388 . S
C376 C375 1.386 . S
C376 C377 1.382 . S
C376 H402 0.950 . S
C377 N374 1.332 . S
C377 C376 1.382 . S
C377 H388 0.952 . S
C378 C375 1.388 . S
C378 C379 1.382 . S
C378 H403 0.950 . S
C379 N374 1.332 . S
C379 C378 1.382 . S
C379 H389 0.948 . S
N380 Co358 2.282 . S
N380 C384 1.332 . S
N380 C385 1.332 . S
C381 C382 1.388 . S
C381 C385 1.382 . S
C381 H404 0.950 . S
C382 C381 1.388 . S
C382 C383 1.386 . S
C383 C382 1.386 . S
C383 C384 1.382 . S
C383 H405 0.950 . S
C384 N380 1.332 . S
C384 C383 1.382 . S
C384 H386 0.952 . S
C385 N380 1.332 . S
C385 C381 1.382 . S
C385 H387 0.948 . S
H386 C384 0.952 . S
H387 C385 0.948 . S
H388 C377 0.952 . S
H389 C379 0.948 . S
C390 C356 1.395 . S
C390 C360 1.391 . S
C391 C353 1.389 . S
C391 C373 1.392 . S
C392 C363 1.392 . S
C392 C365 1.389 . S
C393 C368 1.395 . S
C393 C370 1.391 . S
H394 C354 0.951 . S
H395 C355 0.950 . S
H396 C361 0.949 . S
H397 C362 0.950 . S
H398 C366 0.951 . S
H399 C367 0.950 . S
H400 C371 0.949 . S
H401 C372 0.950 . S
H402 C376 0.950 . S
H403 C378 0.950 . S
H404 C381 0.950 . S
H405 C383 0.950 . S
C406 C407 1.170 . S
C406 C408 1.380 . S
C407 C406 1.170 . S
C408 C406 1.380 . S
C408 C409 1.170 . S
C409 C408 1.170 . S
C410 C411 1.170 . S
C410 C412 1.380 . S
C411 C410 1.170 . S
C412 C410 1.380 . S
C412 C413 1.170 . S
C413 C412 1.170 . S
C414 C415 1.170 . S
C414 C416 1.380 . S
C415 C414 1.170 . S
C416 C414 1.380 . S
C416 C417 1.170 . S
C417 C416 1.170 . S
C418 C419 1.170 . S
C418 C420 1.380 . S
C419 C418 1.170 . S
C420 C418 1.380 . S
C420 C421 1.170 . S
C421 C420 1.170 . S
C422 C423 1.170 . S
C422 C424 1.380 . S
C423 C422 1.170 . S
C424 C422 1.380 . S
C424 C425 1.170 . S
C425 C424 1.170 . S
C426 C427 1.170 . S
C426 C428 1.380 . S
C427 C426 1.170 . S
C428 C426 1.380 . S
C428 C429 1.170 . S
C429 C428 1.170 . S
C430 C431 1.170 . S
C430 C432 1.380 . S
C431 C430 1.170 . S
C432 C430 1.380 . S
C432 C433 1.170 . S
C433 C432 1.170 . S
C434 C435 1.170 1_554 S
C434 C436 1.380 . S
C435 C434 1.170 1_556 S
C436 C434 1.380 . S
C436 C437 1.170 . S
C437 C436 1.170 . S
C438 C439 1.170 . S
C438 C440 1.380 . S
C439 C438 1.170 . S
C440 C438 1.380 . S
C440 C441 1.170 . S
C441 C440 1.170 . S
C442 C443 1.170 . S
C442 C444 1.380 . S
C443 C442 1.170 . S
C444 C442 1.380 . S
C444 C445 1.170 . S
C445 C444 1.170 . S
C446 C447 1.170 . S
C446 C448 1.380 . S
C447 C446 1.170 . S
C448 C446 1.380 . S
C448 C449 1.170 . S
C449 C448 1.170 . S
C450 C451 1.170 . S
C450 C452 1.380 . S
C451 C450 1.170 . S
C452 C450 1.380 . S
C452 C453 1.170 . S
C453 C452 1.170 . S
C454 C455 1.170 . S
C454 C456 1.380 . S
C455 C454 1.170 . S
C456 C454 1.380 . S
C456 C457 1.170 . S
C457 C456 1.170 . S
C458 C459 1.170 . S
C458 C460 1.380 . S
C459 C458 1.170 . S
C460 C458 1.380 . S
C460 C461 1.170 . S
C461 C460 1.170 . S
C462 C463 1.170 . S
C462 C464 1.380 . S
C463 C462 1.170 . S
C464 C462 1.380 . S
C464 C465 1.170 . S
C465 C464 1.170 . S
C466 C467 1.170 . S
C466 C468 1.380 . S
C467 C466 1.170 . S
C468 C466 1.380 . S
C468 C469 1.170 . S
C469 C468 1.170 . S
C470 C471 1.170 . S
C470 C472 1.380 . S
C471 C470 1.170 . S
C472 C470 1.380 . S
C472 C473 1.170 . S
C473 C472 1.170 . S
C474 C475 1.170 . S
C474 C476 1.380 . S
C475 C474 1.170 . S
C476 C474 1.380 . S
C476 C477 1.170 . S
C477 C476 1.170 . S
C478 C479 1.170 . S
C478 C480 1.380 . S
C479 C478 1.170 . S
C480 C478 1.380 . S
C480 C481 1.170 . S
C481 C480 1.170 . S
C482 C483 1.170 . S
C482 C484 1.380 . S
C483 C482 1.170 . S
C484 C482 1.380 . S
C484 C485 1.170 . S
C485 C484 1.170 . S
C486 C487 1.170 . S
C486 C488 1.380 . S
C487 C486 1.170 . S
C488 C486 1.380 . S
C488 C489 1.170 . S
C489 C488 1.170 . S
C490 C491 1.170 . S
C490 C492 1.380 . S
C491 C490 1.170 . S
C492 C490 1.380 . S
C492 C493 1.170 1_556 S
C493 C492 1.170 1_554 S
C494 C495 1.170 . S
C494 C496 1.380 . S
C495 C494 1.170 . S
C496 C494 1.380 . S
C496 C497 1.170 . S
C497 C496 1.170 . S
C498 C499 1.170 . S
C498 C500 1.380 . S
C499 C498 1.170 . S
C500 C498 1.380 . S
C500 C501 1.170 . S
C501 C500 1.170 . S
C409 C110 1.628 . S
C407 C10 1.662 . S
C413 C179 1.494 . S
C411 C15 1.444 . S
C417 C117 1.629 . S
C415 C26 1.667 . S
C421 C180 1.478 . S
C419 C37 1.472 . S
C425 C233 1.731 . S
C423 C4 1.745 . S
C429 C269 1.509 . S
C427 C16 1.480 . S
C431 C27 1.743 . S
C433 C329 1.753 . S
C437 C392 1.493 . S
C435 C43 1.483 . S
C441 C232 1.584 . S
C439 C21 1.565 . S
C443 C32 1.467 . S
C445 C276 1.452 . S
C449 C322 1.763 . S
C447 C38 1.755 . S
C453 C391 1.687 . S
C451 C5 1.673 . S
C455 C49 1.509 . S
C457 C170 1.528 . S
C461 C127 1.706 . S
C459 C60 1.750 . S
C463 C76 1.488 . S
C465 C163 1.491 . S
C467 C81 1.713 . S
C469 C126 1.694 . S
C473 C338 1.574 . S
C471 C54 1.573 . S
C477 C382 1.680 . S
C475 C59 1.700 . S
C481 C216 1.594 . S
C479 C70 1.607 . S
C483 C87 1.628 . S
C485 C285 1.604 . S
C489 C339 1.681 . S
C487 C65 1.664 . S
C493 C375 1.713 . S
C491 C71 1.675 . S
C497 C223 1.607 . S
C495 C82 1.597 . S
C499 C48 1.560 . S
C501 C286 1.558 . S
