# Generated by pormake.
# Topology csq, (4,8)-cn, num edge types: 1
# Building blocks:
#     Node 0, Type 0, BuildingBlock: MUDLON_clean_linker_0, # of connection points: 4
#     Node 1, Type 0, BuildingBlock: MUDLON_clean_linker_0, # of connection points: 4
#     Node 2, Type 0, BuildingBlock: MUDLON_clean_linker_0, # of connection points: 4
#     Node 3, Type 0, BuildingBlock: MUDLON_clean_linker_0, # of connection points: 4
#     Node 4, Type 0, BuildingBlock: MUDLON_clean_linker_0, # of connection points: 4
#     Node 5, Type 0, BuildingBlock: MUDLON_clean_linker_0, # of connection points: 4
#     Node 6, Type 1, BuildingBlock: TAGTUT_clean_sbu_3, # of connection points: 8
#     Node 7, Type 1, BuildingBlock: TAGTUT_clean_sbu_3, # of connection points: 8
#     Node 8, Type 1, BuildingBlock: TAGTUT_clean_sbu_3, # of connection points: 8
#     Edge 9, Type (0, 1), None
#     Edge 10, Type (0, 1), None
#     Edge 11, Type (0, 1), None
#     Edge 12, Type (0, 1), None
#     Edge 13, Type (0, 1), None
#     Edge 14, Type (0, 1), None
#     Edge 15, Type (0, 1), None
#     Edge 16, Type (0, 1), None
#     Edge 17, Type (0, 1), None
#     Edge 18, Type (0, 1), None
#     Edge 19, Type (0, 1), None
#     Edge 20, Type (0, 1), None
#     Edge 21, Type (0, 1), None
#     Edge 22, Type (0, 1), None
#     Edge 23, Type (0, 1), None
#     Edge 24, Type (0, 1), None
#     Edge 25, Type (0, 1), None
#     Edge 26, Type (0, 1), None
#     Edge 27, Type (0, 1), None
#     Edge 28, Type (0, 1), None
#     Edge 29, Type (0, 1), None
#     Edge 30, Type (0, 1), None
#     Edge 31, Type (0, 1), None
#     Edge 32, Type (0, 1), None
# Relax obj value: 0.046
# Max RMSD: 0.117
# Mean RMSD: 0.077
data_MOF--net-csq--node1-TAGTUT_clean_sbu_3--node2-MUDLON_clean_linker_0--edge1-none
_symmetry_space_group_name_H-M    P1
_symmetry_Int_Tables_number       1
_symmetry_cell_setting            triclinic
loop_
_symmetry_equiv_pos_as_xyz
'x, y, z'
_cell_length_a     44.31765
_cell_length_b     44.409238
_cell_length_c     13.903237
_cell_angle_alpha  93.852403
_cell_angle_beta   93.76019
_cell_angle_gamma 120.45867
loop_
_atom_site_label
_atom_site_type_symbol
_atom_site_fract_x
_atom_site_fract_y
_atom_site_fract_z
_atom_type_partial_charge
H0 H 0.40039 0.50308 0.31753 0.0
N1 N 0.34177 0.44498 0.22205 0.0
H2 H 0.43763 0.50402 0.45343 0.0
H3 H 0.32741 0.39268 0.32797 0.0
H4 H 0.36534 0.39319 0.46564 0.0
H5 H 0.33538 0.39153 0.10925 0.0
H6 H 0.37554 0.39342 0.99389 0.0
H7 H 0.39226 0.50483 0.1547 0.0
H8 H 0.43412 0.50682 0.04343 0.0
H9 H 0.35202 0.50727 0.31374 0.0
H10 H 0.27808 0.41318 0.12495 0.0
H11 H 0.30729 0.52257 0.32839 0.0
H12 H 0.23354 0.4298 0.13291 0.0
H13 H 0.13218 0.54987 0.31648 0.0
H14 H 0.09301 0.54238 0.44064 0.0
H15 H 0.0985 0.45275 0.52055 0.0
H16 H 0.1369 0.46005 0.39722 0.0
H17 H 0.09602 0.44399 0.21258 0.0
H18 H 0.05564 0.42606 0.06285 0.0
H19 H 0.12573 0.52466 0.95834 0.0
H20 H 0.1662 0.5426 0.10807 0.0
H21 H 0.22478 0.55428 0.27713 0.0
H22 H 0.27208 0.54195 0.25884 0.0
H23 H 0.19616 0.43045 0.24068 0.0
N24 N 0.15621 0.50822 0.26256 0.0
H25 H 0.14924 0.44309 0.25128 0.0
C26 C 0.36076 0.44776 0.31309 0.0
C27 C 0.39191 0.47909 0.3502 0.0
C28 C 0.4136 0.47948 0.42741 0.0
C29 C 0.40477 0.4485 0.46887 0.0
C30 C 0.37287 0.41744 0.43468 0.0
C31 C 0.35107 0.41713 0.35697 0.0
C32 C 0.36096 0.44786 0.14061 0.0
C33 C 0.35629 0.41678 0.09313 0.0
C34 C 0.37954 0.41792 0.02899 0.0
C35 C 0.40841 0.45025 0.01288 0.0
C36 C 0.4126 0.48162 0.05761 0.0
C37 C 0.38856 0.48047 0.11997 0.0
C38 C 0.31822 0.45839 0.21965 0.0
C39 C 0.32642 0.49005 0.27384 0.0
C40 C 0.30063 0.49905 0.28161 0.0
C41 C 0.26639 0.47711 0.23353 0.0
C42 C 0.25916 0.44677 0.1739 0.0
C43 C 0.28472 0.43744 0.1679 0.0
C44 C 0.13772 0.50573 0.34646 0.0
C45 C 0.12538 0.529 0.3621 0.0
C46 C 0.10283 0.52455 0.43268 0.0
C47 C 0.09232 0.49677 0.49005 0.0
C48 C 0.10595 0.4744 0.47751 0.0
C49 C 0.12817 0.47863 0.40621 0.0
C50 C 0.1339 0.49497 0.17156 0.0
C51 C 0.10323 0.46134 0.15636 0.0
C52 C 0.08043 0.45087 0.07051 0.0
C53 C 0.08825 0.47373 0.99901 0.0
C54 C 0.11981 0.50634 0.01186 0.0
C55 C 0.14257 0.51678 0.09743 0.0
C56 C 0.18365 0.49983 0.26785 0.0
C57 C 0.21863 0.52725 0.27073 0.0
C58 C 0.24558 0.52008 0.26017 0.0
C59 C 0.23806 0.48513 0.24755 0.0
C60 C 0.203 0.45768 0.24788 0.0
C61 C 0.17605 0.46489 0.25626 0.0
H62 H 0.65909 0.08904 0.15472 0.0
N63 N 0.64114 0.13471 0.08494 0.0
H64 H 0.62796 0.04642 0.26789 0.0
H65 H 0.58747 0.12741 0.17639 0.0
H66 H 0.555 0.08329 0.28563 0.0
H67 H 0.5827 0.12016 0.97897 0.0
H68 H 0.55186 0.07589 0.83926 0.0
H69 H 0.66816 0.09989 0.9852 0.0
H70 H 0.63759 0.05561 0.84289 0.0
H71 H 0.69054 0.15143 0.24536 0.0
H72 H 0.67739 0.18026 0.96092 0.0
H73 H 0.75228 0.19611 0.26323 0.0
H74 H 0.73961 0.22624 0.98192 0.0
H75 H 0.95743 0.33455 0.257 0.0
H76 H -0.00912 0.37399 0.40538 0.0
H77 H 0.90438 0.38976 0.4502 0.0
H78 H 0.87136 0.35114 0.3012 0.0
H79 H 0.89713 0.38426 0.15219 0.0
H80 H 0.91698 0.42057 0.02001 0.0
H81 H 0.94032 0.34675 0.87504 0.0
H82 H 0.91938 0.31 0.0076 0.0
H83 H 0.87018 0.25548 0.19448 0.0
H84 H 0.80786 0.20851 0.17524 0.0
H85 H 0.77769 0.28345 0.10377 0.0
N86 N 0.89656 0.32268 0.16942 0.0
H87 H 0.83945 0.33019 0.12551 0.0
C88 C 0.62628 0.11229 0.16002 0.0
C89 C 0.63698 0.08859 0.18483 0.0
C90 C 0.61908 0.06412 0.24852 0.0
C91 C 0.58922 0.06178 0.28426 0.0
C92 C 0.57798 0.08475 0.25817 0.0
C93 C 0.59669 0.11013 0.1973 0.0
C94 C 0.62765 0.1135 0.99198 0.0
C95 C 0.59512 0.10665 0.94851 0.0
C96 C 0.57738 0.08097 0.86965 0.0
C97 C 0.5921 0.06185 0.83133 0.0
C98 C 0.6256 0.06983 0.8715 0.0
C99 C 0.64315 0.09525 0.95214 0.0
C100 C 0.67881 0.16029 0.09811 0.0
C101 C 0.7006 0.16622 0.18482 0.0
C102 C 0.73623 0.19231 0.19617 0.0
C103 C 0.75071 0.21417 0.12344 0.0
C104 C 0.72905 0.20945 0.03878 0.0
C105 C 0.69356 0.18294 0.0265 0.0
C106 C 0.91228 0.34043 0.26633 0.0
C107 C 0.94515 0.34546 0.30078 0.0
C108 C 0.96385 0.36722 0.38707 0.0
C109 C 0.95 0.38441 0.44085 0.0
C110 C 0.91532 0.37603 0.41228 0.0
C111 C 0.89675 0.35461 0.32522 0.0
C112 C 0.90741 0.34458 0.09099 0.0
C113 C 0.90613 0.37561 0.09172 0.0
C114 C 0.91721 0.39624 0.015 0.0
C115 C 0.93042 0.38674 0.93617 0.0
C116 C 0.93017 0.35488 0.93378 0.0
C117 C 0.91868 0.33406 0.01018 0.0
C118 C 0.85964 0.29618 0.16022 0.0
C119 C 0.85005 0.2617 0.1751 0.0
C120 C 0.8146 0.23504 0.16422 0.0
C121 C 0.78818 0.24244 0.13704 0.0
C122 C 0.79768 0.27704 0.12326 0.0
C123 C 0.83306 0.30379 0.13573 0.0
H124 H 0.60745 0.94036 0.97882 0.0
N125 N 0.56855 0.87879 0.04623 0.0
H126 H 0.58819 0.96566 0.85467 0.0
H127 H 0.50828 0.84244 0.91433 0.0
H128 H 0.48963 0.86756 0.79027 0.0
H129 H 0.5081 0.87797 0.081 0.0
H130 H 0.49493 0.89601 0.23189 0.0
H131 H 0.61155 0.90771 0.21328 0.0
H132 H 0.59955 0.92907 0.36587 0.0
H133 H 0.6066 0.85029 0.99754 0.0
H134 H 0.50494 0.82326 0.08444 0.0
H135 H 0.59162 0.7894 1.00373 0.0
H136 H 0.49159 0.76463 0.10144 0.0
H137 H 0.57016 0.63623 0.06037 0.0
H138 H 0.58303 0.60919 0.92246 0.0
H139 H 0.47911 0.57166 0.77799 0.0
H140 H 0.46661 0.59954 0.9156 0.0
H141 H 0.45757 0.56801 0.12831 0.0
H142 H 0.46006 0.53741 0.26598 0.0
H143 H 0.56086 0.62782 0.38006 0.0
H144 H 0.55887 0.65759 0.24156 0.0
H145 H 0.57245 0.68952 0.11676 0.0
H146 H 0.58628 0.74936 0.10657 0.0
H147 H 0.47539 0.71093 0.02976 0.0
N148 N 0.5068 0.63017 0.0843 0.0
H149 H 0.46181 0.65164 0.05173 0.0
C150 C 0.5594 0.8897 0.95803 0.0
C151 C 0.58228 0.92378 0.93515 0.0
C152 C 0.57157 0.938 0.86267 0.0
C153 C 0.53777 0.91829 0.81079 0.0
C154 C 0.51629 0.88298 0.82659 0.0
C155 C 0.52681 0.86882 0.89963 0.0
C156 C 0.56115 0.89191 0.13464 0.0
C157 C 0.52823 0.88866 0.14257 0.0
C158 C 0.52058 0.8987 0.23036 0.0
C159 C 0.54617 0.91413 0.31236 0.0
C160 C 0.579 0.9169 0.30517 0.0
C161 C 0.58618 0.90546 0.21739 0.0
C162 C 0.55753 0.84196 0.0423 0.0
C163 C 0.58123 0.83138 0.01849 0.0
C164 C 0.57274 0.79664 0.02365 0.0
C165 C 0.54053 0.77188 0.05489 0.0
C166 C 0.51645 0.78244 0.07595 0.0
C167 C 0.52448 0.81669 0.06788 0.0
C168 C 0.51687 0.61854 0.99952 0.0
C169 C 0.55063 0.62335 0.99759 0.0
C170 C 0.55832 0.60882 0.91726 0.0
C171 C 0.5321 0.58837 0.83919 0.0
C172 C 0.50006 0.58774 0.83599 0.0
C173 C 0.49245 0.60255 0.91604 0.0
C174 C 0.50795 0.61504 0.17286 0.0
C175 C 0.47996 0.58141 0.18376 0.0
C176 C 0.48125 0.56412 0.2632 0.0
C177 C 0.51044 0.58029 0.33521 0.0
C178 C 0.53766 0.61478 0.32718 0.0
C179 C 0.53667 0.63182 0.24651 0.0
C180 C 0.51578 0.66622 0.08957 0.0
C181 C 0.55097 0.69414 0.10257 0.0
C182 C 0.55895 0.72845 0.09355 0.0
C183 C 0.53206 0.73541 0.06711 0.0
C184 C 0.49689 0.70714 0.05302 0.0
C185 C 0.48893 0.67309 0.0654 0.0
H186 H 0.90752 0.50647 0.99036 0.0
N187 N 0.83716 0.45378 0.9667 0.0
H188 H 0.95138 0.51741 0.12266 0.0
H189 H 0.82921 0.41641 0.11533 0.0
H190 H 0.87355 0.42918 0.25258 0.0
H191 H 0.84923 0.41115 0.85622 0.0
H192 H 0.89038 0.42871 0.73446 0.0
H193 H 0.85657 0.51215 0.86942 0.0
H194 H 0.89702 0.52937 0.74592 0.0
H195 H 0.85796 0.51558 0.08343 0.0
H196 H 0.76972 0.42793 0.90446 0.0
H197 H 0.82096 0.53854 0.1271 0.0
H198 H 0.73295 0.45253 0.94111 0.0
H199 H 0.68018 0.60778 0.19351 0.0
H200 H 0.64585 0.60553 0.32774 0.0
H201 H 0.62803 0.50279 0.37077 0.0
H202 H 0.66175 0.50481 0.23907 0.0
H203 H 0.61786 0.49869 0.07831 0.0
H204 H 0.57601 0.48391 0.93388 0.0
H205 H 0.65525 0.57444 0.81244 0.0
H206 H 0.69637 0.58896 0.95671 0.0
H207 H 0.75527 0.59063 0.1113 0.0
H208 H 0.79295 0.56703 0.07507 0.0
H209 H 0.70284 0.46136 0.05726 0.0
N210 N 0.68592 0.55526 0.1118 0.0
H211 H 0.66531 0.48536 0.08472 0.0
C212 C 0.86459 0.46014 0.04204 0.0
C213 C 0.89969 0.48842 0.04459 0.0
C214 C 0.92507 0.49469 0.12002 0.0
C215 C 0.91572 0.4737 0.1957 0.0
C216 C 0.8812 0.44518 0.19312 0.0
C217 C 0.85591 0.43817 0.1159 0.0
C218 C 0.85008 0.46023 0.87318 0.0
C219 C 0.85842 0.43643 0.82966 0.0
C220 C 0.88239 0.44676 0.76159 0.0
C221 C 0.8976 0.4808 0.73374 0.0
C222 C 0.88592 0.50315 0.76755 0.0
C223 C 0.86239 0.49305 0.83742 0.0
C224 C 0.81638 0.46926 0.9919 0.0
C225 C 0.8306 0.50115 0.05307 0.0
C226 C 0.80936 0.51469 0.07712 0.0
C227 C 0.77371 0.49743 0.03835 0.0
C228 C 0.75993 0.46615 0.97491 0.0
C229 C 0.78097 0.45215 0.95285 0.0
C230 C 0.67328 0.5564 0.2044 0.0
C231 C 0.67 0.58538 0.23453 0.0
C232 C 0.65076 0.58429 0.31158 0.0
C233 C 0.63463 0.55409 0.35934 0.0
C234 C 0.6406 0.5265 0.33521 0.0
C235 C 0.65974 0.52757 0.25865 0.0
C236 C 0.66022 0.54542 0.02861 0.0
C237 C 0.62613 0.51534 0.02054 0.0
C238 C 0.60224 0.50675 0.93763 0.0
C239 C 0.61211 0.528 0.86159 0.0
C240 C 0.64651 0.5575 0.86959 0.0
C241 C 0.67014 0.56604 0.95209 0.0
C242 C 0.70772 0.53998 0.10291 0.0
C243 C 0.7439 0.56239 0.10063 0.0
C244 C 0.76538 0.54873 0.08022 0.0
C245 C 0.75111 0.51212 0.06314 0.0
C246 C 0.71483 0.48966 0.068 0.0
C247 C 0.6933 0.5034 0.08587 0.0
H248 H 0.08175 0.6148 0.12516 0.0
N249 N 0.07059 0.66868 0.09349 0.0
H250 H 0.06754 0.58128 0.26159 0.0
H251 H 0.03844 0.6749 0.24443 0.0
H252 H 0.02148 0.63914 0.38112 0.0
H253 H 0.0062 0.63572 0.99632 0.0
H254 H -0.01654 0.58977 0.85819 0.0
H255 H 0.1108 0.654 0.97627 0.0
H256 H 0.08819 0.60907 0.83727 0.0
H257 H 0.13154 0.67266 0.17511 0.0
H258 H 0.09141 0.73257 0.04268 0.0
H259 H 0.18938 0.72377 0.20394 0.0
H260 H 0.15111 0.7841 0.06402 0.0
H261 H 0.38673 0.92305 0.18202 0.0
H262 H 0.43106 0.94079 0.31862 0.0
H263 H 0.35184 0.87102 0.4883 0.0
H264 H 0.30697 0.85191 0.35144 0.0
H265 H 0.31298 0.92384 0.06246 0.0
H266 H 0.34475 0.94345 0.91998 0.0
H267 H 0.37386 0.86452 0.93473 0.0
H268 H 0.34265 0.84539 0.0762 0.0
H269 H 0.29711 0.81004 0.1559 0.0
H270 H 0.23771 0.75939 0.13029 0.0
H271 H 0.19597 0.82807 0.17649 0.0
N272 N 0.31531 0.87918 0.17674 0.0
H273 H 0.25591 0.87898 0.1931 0.0
C274 C 0.06103 0.64745 0.17367 0.0
C275 C 0.06905 0.62081 0.18091 0.0
C276 C 0.06123 0.60185 0.26066 0.0
C277 C 0.04354 0.60759 0.33401 0.0
C278 C 0.03556 0.63434 0.32716 0.0
C279 C 0.0447 0.65438 0.24835 0.0
C280 C 0.06006 0.64818 0.99855 0.0
C281 C 0.02454 0.63112 0.95951 0.0
C282 C 0.01167 0.60536 0.87922 0.0
C283 C 0.03418 0.59641 0.8353 0.0
C284 C 0.07042 0.6162 0.86741 0.0
C285 C 0.08325 0.64157 0.94875 0.0
C286 C 0.10628 0.69862 0.1082 0.0
C287 C 0.13482 0.69669 0.15179 0.0
C288 C 0.16858 0.72621 0.16704 0.0
C289 C 0.17527 0.7583 0.13629 0.0
C290 C 0.14695 0.76008 0.09068 0.0
C291 C 0.11283 0.73059 0.07746 0.0
C292 C 0.34272 0.88455 0.25223 0.0
C293 C 0.3786 0.90966 0.246 0.0
C294 C 0.40444 0.91995 0.32458 0.0
C295 C 0.39506 0.90666 0.41312 0.0
C296 C 0.35985 0.88093 0.4196 0.0
C297 C 0.33402 0.87009 0.34064 0.0
C298 C 0.32598 0.88371 0.08061 0.0
C299 C 0.325 0.9099 0.03216 0.0
C300 C 0.34276 0.92076 0.95045 0.0
C301 C 0.36183 0.90556 0.91758 0.0
C302 C 0.35919 0.8765 0.95903 0.0
C303 C 0.34125 0.86549 0.03988 0.0
C304 C 0.28084 0.84837 0.17494 0.0
C305 C 0.27522 0.81425 0.15933 0.0
C306 C 0.24104 0.78516 0.14619 0.0
C307 C 0.21173 0.78944 0.15095 0.0
C308 C 0.21768 0.82366 0.17006 0.0
C309 C 0.2519 0.85279 0.18107 0.0
H310 H 0.51368 0.36593 0.14626 0.0
N311 N 0.44831 0.31455 0.18474 0.0
H312 H 0.52663 0.39759 1.00315 0.0
H313 H 0.40561 0.29897 0.02243 0.0
H314 H 0.4183 0.32995 0.87799 0.0
H315 H 0.40548 0.33127 0.26746 0.0
H316 H 0.42051 0.3744 0.40921 0.0
H317 H 0.51026 0.34767 0.30821 0.0
H318 H 0.52483 0.38987 0.44968 0.0
H319 H 0.50585 0.307 0.19229 0.0
H320 H 0.39297 0.25114 0.18706 0.0
H321 H 0.5065 0.25405 0.22283 0.0
H322 H 0.39247 0.1968 0.20547 0.0
H323 H 0.49731 0.08321 0.22977 0.0
H324 H 0.5124 0.0612 0.08585 0.0
H325 H 0.4187 0.04616 0.9207 0.0
H326 H 0.4033 0.06694 0.06559 0.0
H327 H 0.38942 0.02994 0.31368 0.0
H328 H 0.39942 0.0026 0.44963 0.0
H329 H 0.50501 0.09158 0.51621 0.0
H330 H 0.49485 0.11894 0.38034 0.0
H331 H 0.49239 0.14494 0.17971 0.0
H332 H 0.49584 0.20051 0.16314 0.0
H333 H 0.40319 0.16646 0.31356 0.0
N334 N 0.43744 0.08715 0.24323 0.0
H335 H 0.39775 0.10929 0.3191 0.0
C336 C 0.45824 0.33089 0.09662 0.0
C337 C 0.49284 0.35759 0.08767 0.0
C338 C 0.50033 0.37535 1.00474 0.0
C339 C 0.47349 0.36656 0.92871 0.0
C340 C 0.43976 0.33745 0.93425 0.0
C341 C 0.43226 0.32002 0.01755 0.0
C342 C 0.45682 0.33677 0.27514 0.0
C343 C 0.43125 0.34322 0.30864 0.0
C344 C 0.43951 0.36701 0.39125 0.0
C345 C 0.47352 0.38467 0.44222 0.0
C346 C 0.49804 0.37568 0.41403 0.0
C347 C 0.48991 0.35214 0.33096 0.0
C348 C 0.44935 0.28302 0.19077 0.0
C349 C 0.48116 0.28319 0.19753 0.0
C350 C 0.48135 0.25258 0.21329 0.0
C351 C 0.44956 0.22091 0.21852 0.0
C352 C 0.41766 0.22074 0.20608 0.0
C353 C 0.4177 0.2516 0.19381 0.0
C354 C 0.44821 0.07536 0.15951 0.0
C355 C 0.47989 0.07501 0.16293 0.0
C356 C 0.48889 0.06301 0.07984 0.0
C357 C 0.46685 0.05189 0.99125 0.0
C358 C 0.43655 0.05469 0.98703 0.0
C359 C 0.42729 0.06599 0.07025 0.0
C360 C 0.44183 0.0756 0.33483 0.0
C361 C 0.41423 0.04416 0.36013 0.0
C362 C 0.4196 0.02912 0.43975 0.0
C363 C 0.45298 0.04495 0.49359 0.0
C364 C 0.47882 0.07903 0.47704 0.0
C365 C 0.47345 0.09418 0.39745 0.0
C366 C 0.44401 0.12248 0.248 0.0
C367 C 0.47266 0.14932 0.20858 0.0
C368 C 0.47486 0.18148 0.20025 0.0
C369 C 0.4493 0.188 0.23484 0.0
C370 C 0.42251 0.16206 0.28202 0.0
C371 C 0.41961 0.1295 0.28693 0.0
C372 C 0.06586 0.4898 0.55869 0.0
C373 C 0.06015 0.46859 0.9269 0.0
C374 C 0.9504 0.41305 0.86897 0.0
Mg375 Mg 0.0125 0.49886 0.41407 0.0
Mg376 Mg 0.96064 0.52747 0.48881 0.0
O377 O -0.02048 0.49881 0.50509 0.0
Mg378 Mg -0.00132 0.49211 0.62898 0.0
O379 O 0.01952 0.48358 0.74644 0.0
Mg380 Mg 0.01297 0.43633 0.70782 0.0
Mg381 Mg 0.00454 0.48826 0.86536 0.0
C382 C 0.92711 0.49319 0.67508 0.0
O383 O 0.02172 0.55034 0.70692 0.0
O384 O 0.969 0.48753 0.28869 0.0
O385 O 0.00933 0.53823 0.86 0.0
O386 O 0.03623 0.55719 0.39958 0.0
O387 O 0.92989 0.4982 0.35666 0.0
O388 O 0.00088 0.57674 0.44247 0.0
O389 O 0.97474 0.43194 0.57227 0.0
O390 O -0.01223 0.44156 0.421 0.0
C391 C -0.02505 0.42064 0.48477 0.0
C392 C 0.93931 0.48633 0.28575 0.0
O393 O 0.94747 0.48063 0.68638 0.0
O394 O 0.05271 0.44901 0.84596 0.0
O395 O 0.93108 0.51534 0.61472 0.0
O396 O 0.96793 0.40682 0.80881 0.0
O397 O 0.04496 0.48573 0.94812 0.0
O398 O 0.9561 0.44399 0.88851 0.0
O399 O 0.04807 0.50522 0.55455 0.0
O400 O 0.0581 0.46503 0.61243 0.0
C401 C 0.02794 0.5809 0.40335 0.0
C402 C 0.01945 0.55949 0.79544 0.0
C403 C 0.46576 0.02121 0.51359 0.0
C404 C 0.57059 0.03613 0.35115 0.0
C405 C 0.5406 0.93397 0.39317 0.0
Mg406 Mg 0.42788 -0.02038 0.69489 0.0
Mg407 Mg 0.47218 0.96461 0.85994 0.0
O408 O 0.45798 0.95919 0.72827 0.0
Mg409 Mg 0.49339 0.97769 0.63371 0.0
O410 O 0.52595 -0.00362 0.53218 0.0
Mg411 Mg 0.4926 0.97313 0.411 0.0
Mg412 Mg 0.5708 0.00135 0.53642 0.0
C413 C 0.52009 0.93728 0.78155 0.0
O414 O 0.53836 0.02035 0.73938 0.0
O415 O 0.38831 0.94182 0.79335 0.0
O416 O 0.58863 0.02679 0.68799 0.0
O417 O 0.45018 0.02137 0.83156 0.0
O418 O 0.42104 0.92957 0.89646 0.0
O419 O 0.4874 0.01516 0.93152 0.0
O420 O 0.45147 0.93688 0.51145 0.0
O421 O 0.40516 0.93761 0.56476 0.0
C422 C 0.41835 0.92621 0.50321 0.0
C423 C 0.39148 0.9255 0.86268 0.0
O424 O 0.51466 0.94159 0.69201 0.0
O425 O 0.5371 0.01517 0.33225 0.0
O426 O 0.50882 0.94725 0.85208 0.0
O427 O 0.51407 0.93765 0.37676 0.0
O428 O 0.58866 0.03617 0.42688 0.0
O429 O 0.56565 0.9538 0.46046 0.0
O430 O 0.47133 0.01425 0.59867 0.0
O431 O 0.47306 0.00927 0.43891 0.0
C432 C 0.47073 0.03069 0.91087 0.0
C433 C 0.572 0.03414 0.74937 0.0
C434 C 0.53026 0.55578 0.80205 0.0
C435 C 0.43169 0.45054 0.94237 0.0
C436 C 0.47782 0.39275 0.86099 0.0
Mg437 Mg 0.56774 0.55955 0.60298 0.0
Mg438 Mg 0.52513 0.49759 0.42649 0.0
O439 O 0.54284 0.50818 0.55692 0.0
Mg440 Mg 0.50964 0.48659 0.65487 0.0
O441 O 0.47879 0.46759 0.75915 0.0
Mg442 Mg 0.5136 0.48131 0.87607 0.0
Mg443 Mg 0.43959 0.42186 0.74319 0.0
C444 C 0.48746 0.421 0.48446 0.0
O445 O 0.46083 0.47557 0.55968 0.0
O446 O 0.60794 0.56563 0.49104 0.0
O447 O 0.41763 0.42373 0.60026 0.0
O448 O 0.53899 0.57403 0.47982 0.0
O449 O 0.57519 0.51938 0.37635 0.0
O450 O 0.5017 0.52627 0.37926 0.0
O451 O 0.55537 0.49455 0.76526 0.0
O452 O 0.59606 0.54613 0.72127 0.0
C453 C 0.58677 0.52157 0.77648 0.0
C454 C 0.60449 0.54644 0.41244 0.0
O455 O 0.49511 0.43088 0.57699 0.0
O456 O 0.46549 0.46941 0.96302 0.0
O457 O 0.4938 0.44227 0.42074 0.0
O458 O 0.50047 0.42485 0.89115 0.0
O459 O 0.41658 0.43098 0.86197 0.0
O460 O 0.45324 0.38455 0.79266 0.0
O461 O 0.52416 0.54415 0.71136 0.0
O462 O 0.52611 0.53585 0.86771 0.0
C463 C 0.51569 0.55898 0.40547 0.0
C464 C 0.4291 0.44909 0.54696 0.0
loop_
_geom_bond_atom_site_label_1
_geom_bond_atom_site_label_2
_geom_bond_distance
_geom_bond_site_symmetry_2
_ccdc_geom_bond_type
H0 C27 0.929 . S
N1 C26 1.433 . S
N1 C32 1.435 . S
N1 C38 1.423 . S
H2 C28 0.930 . S
H3 C31 0.931 . S
H4 C30 0.929 . S
H5 C33 0.930 . S
H6 C34 0.932 . S
H7 C37 0.929 . S
H8 C36 0.931 1_556 S
H9 C39 0.929 . S
H10 C43 0.932 . S
H11 C40 0.931 . S
H12 C42 0.929 . S
H13 C45 0.929 . S
H14 C46 0.930 . S
H15 C48 0.929 . S
H16 C49 0.931 . S
H17 C51 0.930 . S
H18 C52 0.932 . S
H19 C54 0.931 . S
H20 C55 0.929 . S
H21 C57 0.929 . S
H22 C58 0.931 . S
H23 C60 0.929 . S
N24 C44 1.433 . S
N24 C50 1.435 . S
N24 C56 1.423 . S
H25 C61 0.932 . S
C26 N1 1.433 . S
C26 C27 1.363 . S
C26 C31 1.370 . S
C27 H0 0.929 . S
C27 C26 1.363 . S
C27 C28 1.385 . S
C28 H2 0.930 . S
C28 C27 1.385 . S
C28 C29 1.357 . S
C29 C28 1.357 . S
C29 C30 1.406 . S
C30 H4 0.929 . S
C30 C29 1.406 . S
C30 C31 1.391 . S
C31 H3 0.931 . S
C31 C26 1.370 . S
C31 C30 1.391 . S
C32 N1 1.435 . S
C32 C33 1.358 . S
C32 C37 1.371 . S
C33 H5 0.930 . S
C33 C32 1.358 . S
C33 C34 1.405 . S
C34 H6 0.932 . S
C34 C33 1.405 . S
C34 C35 1.383 . S
C35 C34 1.383 . S
C35 C36 1.393 . S
C36 H8 0.931 1_554 S
C36 C35 1.393 . S
C36 C37 1.382 . S
C37 H7 0.929 . S
C37 C32 1.371 . S
C37 C36 1.382 . S
C38 N1 1.423 . S
C38 C39 1.362 . S
C38 C43 1.388 . S
C39 H9 0.929 . S
C39 C38 1.362 . S
C39 C40 1.376 . S
C40 H11 0.931 . S
C40 C39 1.376 . S
C40 C41 1.396 . S
C41 C40 1.396 . S
C41 C42 1.348 . S
C41 C59 1.472 . S
C42 H12 0.929 . S
C42 C41 1.348 . S
C42 C43 1.443 . S
C43 H10 0.932 . S
C43 C38 1.388 . S
C43 C42 1.443 . S
C44 N24 1.433 . S
C44 C45 1.363 . S
C44 C49 1.370 . S
C45 H13 0.929 . S
C45 C44 1.363 . S
C45 C46 1.385 . S
C46 H14 0.930 . S
C46 C45 1.385 . S
C46 C47 1.357 . S
C47 C46 1.357 . S
C47 C48 1.406 . S
C48 H15 0.929 . S
C48 C47 1.406 . S
C48 C49 1.391 . S
C49 H16 0.931 . S
C49 C44 1.370 . S
C49 C48 1.391 . S
C50 N24 1.435 . S
C50 C51 1.358 . S
C50 C55 1.371 . S
C51 H17 0.930 . S
C51 C50 1.358 . S
C51 C52 1.405 . S
C52 H18 0.932 . S
C52 C51 1.405 . S
C52 C53 1.383 1_554 S
C53 C52 1.383 1_556 S
C53 C54 1.393 . S
C54 H19 0.931 . S
C54 C53 1.393 . S
C54 C55 1.382 1_556 S
C55 H20 0.929 . S
C55 C50 1.371 . S
C55 C54 1.382 1_554 S
C56 N24 1.423 . S
C56 C57 1.362 . S
C56 C61 1.388 . S
C57 H21 0.929 . S
C57 C56 1.362 . S
C57 C58 1.376 . S
C58 H22 0.931 . S
C58 C57 1.376 . S
C58 C59 1.396 . S
C59 C41 1.472 . S
C59 C58 1.396 . S
C59 C60 1.348 . S
C60 H23 0.929 . S
C60 C59 1.348 . S
C60 C61 1.443 . S
C61 H25 0.932 . S
C61 C56 1.388 . S
C61 C60 1.443 . S
H62 C89 0.929 . S
N63 C88 1.433 . S
N63 C94 1.435 . S
N63 C100 1.423 . S
H64 C90 0.930 . S
H65 C93 0.931 . S
H66 C92 0.929 . S
H67 C95 0.930 . S
H68 C96 0.932 . S
H69 C99 0.929 . S
H70 C98 0.931 . S
H71 C101 0.929 . S
H72 C105 0.932 1_556 S
H73 C102 0.931 . S
H74 C104 0.929 1_556 S
H75 C107 0.929 . S
H76 C108 0.930 1_455 S
H77 C110 0.929 . S
H78 C111 0.931 . S
H79 C113 0.930 . S
H80 C114 0.932 . S
H81 C116 0.931 . S
H82 C117 0.929 . S
H83 C119 0.929 . S
H84 C120 0.931 . S
H85 C122 0.929 1_556 S
N86 C106 1.433 . S
N86 C112 1.435 . S
N86 C118 1.423 . S
H87 C123 0.932 . S
C88 N63 1.433 . S
C88 C89 1.363 . S
C88 C93 1.370 . S
C89 H62 0.929 . S
C89 C88 1.363 . S
C89 C90 1.385 . S
C90 H64 0.930 . S
C90 C89 1.385 . S
C90 C91 1.357 . S
C91 C90 1.357 . S
C91 C92 1.406 . S
C92 H66 0.929 . S
C92 C91 1.406 . S
C92 C93 1.391 . S
C93 H65 0.931 . S
C93 C88 1.370 . S
C93 C92 1.391 . S
C94 N63 1.435 . S
C94 C95 1.358 . S
C94 C99 1.371 1_554 S
C95 H67 0.930 . S
C95 C94 1.358 . S
C95 C96 1.405 1_554 S
C96 H68 0.932 . S
C96 C95 1.405 1_556 S
C96 C97 1.383 . S
C97 C96 1.383 . S
C97 C98 1.393 . S
C98 H70 0.931 . S
C98 C97 1.393 . S
C98 C99 1.382 . S
C99 H69 0.929 . S
C99 C94 1.371 1_556 S
C99 C98 1.382 . S
C100 N63 1.423 . S
C100 C101 1.362 . S
C100 C105 1.388 . S
C101 H71 0.929 . S
C101 C100 1.362 . S
C101 C102 1.376 . S
C102 H73 0.931 . S
C102 C101 1.376 . S
C102 C103 1.396 . S
C103 C102 1.396 . S
C103 C104 1.348 . S
C103 C121 1.472 . S
C104 H74 0.929 1_554 S
C104 C103 1.348 . S
C104 C105 1.443 . S
C105 H72 0.932 1_554 S
C105 C100 1.388 . S
C105 C104 1.443 . S
C106 N86 1.433 . S
C106 C107 1.363 . S
C106 C111 1.370 . S
C107 H75 0.929 . S
C107 C106 1.363 . S
C107 C108 1.385 . S
C108 H76 0.930 1_655 S
C108 C107 1.385 . S
C108 C109 1.357 . S
C109 C108 1.357 . S
C109 C110 1.406 . S
C110 H77 0.929 . S
C110 C109 1.406 . S
C110 C111 1.391 . S
C111 H78 0.931 . S
C111 C106 1.370 . S
C111 C110 1.391 . S
C112 N86 1.435 . S
C112 C113 1.358 . S
C112 C117 1.371 1_554 S
C113 H79 0.930 . S
C113 C112 1.358 . S
C113 C114 1.405 1_554 S
C114 H80 0.932 . S
C114 C113 1.405 1_556 S
C114 C115 1.383 . S
C115 C114 1.383 . S
C115 C116 1.393 . S
C116 H81 0.931 . S
C116 C115 1.393 . S
C116 C117 1.382 . S
C117 H82 0.929 . S
C117 C112 1.371 1_556 S
C117 C116 1.382 . S
C118 N86 1.423 . S
C118 C119 1.362 . S
C118 C123 1.388 . S
C119 H83 0.929 . S
C119 C118 1.362 . S
C119 C120 1.376 . S
C120 H84 0.931 . S
C120 C119 1.376 . S
C120 C121 1.396 . S
C121 C103 1.472 . S
C121 C120 1.396 . S
C121 C122 1.348 . S
C122 H85 0.929 1_554 S
C122 C121 1.348 . S
C122 C123 1.443 . S
C123 H87 0.932 . S
C123 C118 1.388 . S
C123 C122 1.443 . S
H124 C151 0.929 . S
N125 C150 1.433 1_554 S
N125 C156 1.435 . S
N125 C162 1.423 . S
H126 C152 0.930 . S
H127 C155 0.931 . S
H128 C154 0.929 . S
H129 C157 0.930 . S
H130 C158 0.932 . S
H131 C161 0.929 . S
H132 C160 0.931 . S
H133 C163 0.929 1_556 S
H134 C167 0.932 . S
H135 C164 0.931 1_556 S
H136 C166 0.929 . S
H137 C169 0.929 . S
H138 C170 0.930 . S
H139 C172 0.929 . S
H140 C173 0.931 . S
H141 C175 0.930 . S
H142 C176 0.932 . S
H143 C178 0.931 . S
H144 C179 0.929 . S
H145 C181 0.929 1_556 S
H146 C182 0.931 1_556 S
H147 C184 0.929 . S
N148 C168 1.433 1_554 S
N148 C174 1.435 . S
N148 C180 1.423 . S
H149 C185 0.932 . S
C150 N125 1.433 1_556 S
C150 C151 1.363 . S
C150 C155 1.370 . S
C151 H124 0.929 . S
C151 C150 1.363 . S
C151 C152 1.385 . S
C152 H126 0.930 . S
C152 C151 1.385 . S
C152 C153 1.357 . S
C153 C152 1.357 . S
C153 C154 1.406 . S
C154 H128 0.929 . S
C154 C153 1.406 . S
C154 C155 1.391 . S
C155 H127 0.931 . S
C155 C150 1.370 . S
C155 C154 1.391 . S
C156 N125 1.435 . S
C156 C157 1.358 . S
C156 C161 1.371 . S
C157 H129 0.930 . S
C157 C156 1.358 . S
C157 C158 1.405 . S
C158 H130 0.932 . S
C158 C157 1.405 . S
C158 C159 1.383 . S
C159 C158 1.383 . S
C159 C160 1.393 . S
C160 H132 0.931 . S
C160 C159 1.393 . S
C160 C161 1.382 . S
C161 H131 0.929 . S
C161 C156 1.371 . S
C161 C160 1.382 . S
C162 N125 1.423 . S
C162 C163 1.362 . S
C162 C167 1.388 . S
C163 H133 0.929 1_554 S
C163 C162 1.362 . S
C163 C164 1.376 . S
C164 H135 0.931 1_554 S
C164 C163 1.376 . S
C164 C165 1.396 . S
C165 C164 1.396 . S
C165 C166 1.348 . S
C165 C183 1.472 . S
C166 H136 0.929 . S
C166 C165 1.348 . S
C166 C167 1.443 . S
C167 H134 0.932 . S
C167 C162 1.388 . S
C167 C166 1.443 . S
C168 N148 1.433 1_556 S
C168 C169 1.363 . S
C168 C173 1.370 . S
C169 H137 0.929 . S
C169 C168 1.363 . S
C169 C170 1.385 . S
C170 H138 0.930 . S
C170 C169 1.385 . S
C170 C171 1.357 . S
C171 C170 1.357 . S
C171 C172 1.406 . S
C172 H139 0.929 . S
C172 C171 1.406 . S
C172 C173 1.391 . S
C173 H140 0.931 . S
C173 C168 1.370 . S
C173 C172 1.391 . S
C174 N148 1.435 . S
C174 C175 1.358 . S
C174 C179 1.371 . S
C175 H141 0.930 . S
C175 C174 1.358 . S
C175 C176 1.405 . S
C176 H142 0.932 . S
C176 C175 1.405 . S
C176 C177 1.383 . S
C177 C176 1.383 . S
C177 C178 1.393 . S
C178 H143 0.931 . S
C178 C177 1.393 . S
C178 C179 1.382 . S
C179 H144 0.929 . S
C179 C174 1.371 . S
C179 C178 1.382 . S
C180 N148 1.423 . S
C180 C181 1.362 . S
C180 C185 1.388 . S
C181 H145 0.929 1_554 S
C181 C180 1.362 . S
C181 C182 1.376 . S
C182 H146 0.931 1_554 S
C182 C181 1.376 . S
C182 C183 1.396 . S
C183 C165 1.472 . S
C183 C182 1.396 . S
C183 C184 1.348 . S
C184 H147 0.929 . S
C184 C183 1.348 . S
C184 C185 1.443 . S
C185 H149 0.932 . S
C185 C180 1.388 . S
C185 C184 1.443 . S
H186 C213 0.929 . S
N187 C212 1.433 . S
N187 C218 1.435 1_554 S
N187 C224 1.423 . S
H188 C214 0.930 . S
H189 C217 0.931 . S
H190 C216 0.929 . S
H191 C219 0.930 . S
H192 C220 0.932 . S
H193 C223 0.929 . S
H194 C222 0.931 . S
H195 C225 0.929 . S
H196 C229 0.932 . S
H197 C226 0.931 . S
H198 C228 0.929 . S
H199 C231 0.929 . S
H200 C232 0.930 . S
H201 C234 0.929 . S
H202 C235 0.931 . S
H203 C237 0.930 . S
H204 C238 0.932 . S
H205 C240 0.931 . S
H206 C241 0.929 . S
H207 C243 0.929 . S
H208 C244 0.931 . S
H209 C246 0.929 . S
N210 C230 1.433 . S
N210 C236 1.435 1_554 S
N210 C242 1.423 . S
H211 C247 0.932 . S
C212 N187 1.433 . S
C212 C213 1.363 . S
C212 C217 1.370 . S
C213 H186 0.929 . S
C213 C212 1.363 . S
C213 C214 1.385 . S
C214 H188 0.930 . S
C214 C213 1.385 . S
C214 C215 1.357 . S
C215 C214 1.357 . S
C215 C216 1.406 . S
C216 H190 0.929 . S
C216 C215 1.406 . S
C216 C217 1.391 . S
C217 H189 0.931 . S
C217 C212 1.370 . S
C217 C216 1.391 . S
C218 N187 1.435 1_556 S
C218 C219 1.358 . S
C218 C223 1.371 . S
C219 H191 0.930 . S
C219 C218 1.358 . S
C219 C220 1.405 . S
C220 H192 0.932 . S
C220 C219 1.405 . S
C220 C221 1.383 . S
C221 C220 1.383 . S
C221 C222 1.393 . S
C222 H194 0.931 . S
C222 C221 1.393 . S
C222 C223 1.382 . S
C223 H193 0.929 . S
C223 C218 1.371 . S
C223 C222 1.382 . S
C224 N187 1.423 . S
C224 C225 1.362 . S
C224 C229 1.388 1_554 S
C225 H195 0.929 . S
C225 C224 1.362 . S
C225 C226 1.376 . S
C226 H197 0.931 . S
C226 C225 1.376 . S
C226 C227 1.396 . S
C227 C226 1.396 . S
C227 C228 1.348 1_554 S
C227 C245 1.472 . S
C228 H198 0.929 . S
C228 C227 1.348 1_556 S
C228 C229 1.443 . S
C229 H196 0.932 . S
C229 C224 1.388 1_556 S
C229 C228 1.443 . S
C230 N210 1.433 . S
C230 C231 1.363 . S
C230 C235 1.370 . S
C231 H199 0.929 . S
C231 C230 1.363 . S
C231 C232 1.385 . S
C232 H200 0.930 . S
C232 C231 1.385 . S
C232 C233 1.357 . S
C233 C232 1.357 . S
C233 C234 1.406 . S
C234 H201 0.929 . S
C234 C233 1.406 . S
C234 C235 1.391 . S
C235 H202 0.931 . S
C235 C230 1.370 . S
C235 C234 1.391 . S
C236 N210 1.435 1_556 S
C236 C237 1.358 . S
C236 C241 1.371 . S
C237 H203 0.930 . S
C237 C236 1.358 . S
C237 C238 1.405 . S
C238 H204 0.932 . S
C238 C237 1.405 . S
C238 C239 1.383 . S
C239 C238 1.383 . S
C239 C240 1.393 . S
C240 H205 0.931 . S
C240 C239 1.393 . S
C240 C241 1.382 . S
C241 H206 0.929 . S
C241 C236 1.371 . S
C241 C240 1.382 . S
C242 N210 1.423 . S
C242 C243 1.362 . S
C242 C247 1.388 1_554 S
C243 H207 0.929 . S
C243 C242 1.362 . S
C243 C244 1.376 . S
C244 H208 0.931 . S
C244 C243 1.376 . S
C244 C245 1.396 . S
C245 C227 1.472 . S
C245 C244 1.396 . S
C245 C246 1.348 1_554 S
C246 H209 0.929 . S
C246 C245 1.348 1_556 S
C246 C247 1.443 . S
C247 H211 0.932 . S
C247 C242 1.388 1_556 S
C247 C246 1.443 . S
H248 C275 0.929 . S
N249 C274 1.433 . S
N249 C280 1.435 . S
N249 C286 1.423 . S
H250 C276 0.930 . S
H251 C279 0.931 . S
H252 C278 0.929 . S
H253 C281 0.930 . S
H254 C282 0.932 . S
H255 C285 0.929 . S
H256 C284 0.931 . S
H257 C287 0.929 . S
H258 C291 0.932 . S
H259 C288 0.931 . S
H260 C290 0.936 . S
H261 C293 0.929 . S
H262 C294 0.930 . S
H263 C296 0.929 . S
H264 C297 0.931 . S
H265 C299 0.930 . S
H266 C300 0.899 1_545 S
H267 C302 0.931 . S
H268 C303 0.929 . S
H269 C305 0.929 . S
H270 C306 0.931 . S
H271 C308 0.929 . S
N272 C292 1.433 . S
N272 C298 1.435 . S
N272 C304 1.423 . S
H273 C309 0.932 . S
C274 N249 1.433 . S
C274 C275 1.363 . S
C274 C279 1.370 . S
C275 H248 0.929 . S
C275 C274 1.363 . S
C275 C276 1.385 . S
C276 H250 0.930 . S
C276 C275 1.385 . S
C276 C277 1.357 . S
C277 C276 1.357 . S
C277 C278 1.406 . S
C278 H252 0.929 . S
C278 C277 1.406 . S
C278 C279 1.391 . S
C279 H251 0.931 . S
C279 C274 1.370 . S
C279 C278 1.391 . S
C280 N249 1.435 . S
C280 C281 1.358 . S
C280 C285 1.371 1_554 S
C281 H253 0.930 . S
C281 C280 1.358 . S
C281 C282 1.405 1_554 S
C282 H254 0.932 . S
C282 C281 1.405 1_556 S
C282 C283 1.383 . S
C283 C282 1.383 . S
C283 C284 1.393 . S
C284 H256 0.931 . S
C284 C283 1.393 . S
C284 C285 1.382 . S
C285 H255 0.929 . S
C285 C280 1.371 1_556 S
C285 C284 1.382 . S
C286 N249 1.423 . S
C286 C287 1.362 . S
C286 C291 1.388 . S
C287 H257 0.929 . S
C287 C286 1.362 . S
C287 C288 1.376 . S
C288 H259 0.931 . S
C288 C287 1.376 . S
C288 C289 1.396 . S
C289 C288 1.396 . S
C289 C290 1.348 . S
C289 C307 1.472 . S
C290 H260 0.936 . S
C290 C289 1.348 . S
C290 C291 1.443 . S
C291 H258 0.932 . S
C291 C286 1.388 . S
C291 C290 1.443 . S
C292 N272 1.433 . S
C292 C293 1.363 . S
C292 C297 1.370 . S
C293 H261 0.929 . S
C293 C292 1.363 . S
C293 C294 1.385 . S
C294 H262 0.930 . S
C294 C293 1.385 . S
C294 C295 1.357 . S
C295 C294 1.357 . S
C295 C296 1.406 . S
C296 H263 0.929 . S
C296 C295 1.406 . S
C296 C297 1.391 . S
C297 H264 0.931 . S
C297 C292 1.370 . S
C297 C296 1.391 . S
C298 N272 1.435 . S
C298 C299 1.358 . S
C298 C303 1.371 1_554 S
C299 H265 0.930 . S
C299 C298 1.358 . S
C299 C300 1.405 . S
C300 H266 0.899 1_565 S
C300 C299 1.405 . S
C300 C301 1.383 1_554 S
C301 C300 1.383 1_556 S
C301 C302 1.393 . S
C302 H267 0.931 . S
C302 C301 1.393 . S
C302 C303 1.382 . S
C303 H268 0.929 . S
C303 C298 1.371 1_556 S
C303 C302 1.382 . S
C304 N272 1.423 . S
C304 C305 1.362 . S
C304 C309 1.388 . S
C305 H269 0.929 . S
C305 C304 1.362 . S
C305 C306 1.376 . S
C306 H270 0.931 . S
C306 C305 1.376 . S
C306 C307 1.396 . S
C307 C289 1.472 . S
C307 C306 1.396 . S
C307 C308 1.348 . S
C308 H271 0.929 . S
C308 C307 1.348 . S
C308 C309 1.443 . S
C309 H273 0.932 . S
C309 C304 1.388 . S
C309 C308 1.443 . S
H310 C337 0.929 . S
N311 C336 1.433 . S
N311 C342 1.435 . S
N311 C348 1.423 . S
H312 C338 0.930 . S
H313 C341 0.931 . S
H314 C340 0.929 . S
H315 C343 0.930 . S
H316 C344 0.932 . S
H317 C347 0.929 . S
H318 C346 0.931 . S
H319 C349 0.929 . S
H320 C353 0.932 . S
H321 C350 0.931 . S
H322 C352 0.929 . S
H323 C355 0.929 . S
H324 C356 0.930 . S
H325 C358 0.929 . S
H326 C359 0.931 . S
H327 C361 0.930 . S
H328 C362 0.932 . S
H329 C364 0.931 . S
H330 C365 0.929 . S
H331 C367 0.929 . S
H332 C368 0.931 . S
H333 C370 0.929 . S
N334 C354 1.433 . S
N334 C360 1.435 . S
N334 C366 1.423 . S
H335 C371 0.932 . S
C336 N311 1.433 . S
C336 C337 1.363 . S
C336 C341 1.370 . S
C337 H310 0.929 . S
C337 C336 1.363 . S
C337 C338 1.385 . S
C338 H312 0.930 . S
C338 C337 1.385 . S
C338 C339 1.357 1_554 S
C339 C338 1.357 1_556 S
C339 C340 1.406 . S
C340 H314 0.929 . S
C340 C339 1.406 . S
C340 C341 1.391 1_556 S
C341 H313 0.931 . S
C341 C336 1.370 . S
C341 C340 1.391 1_554 S
C342 N311 1.435 . S
C342 C343 1.358 . S
C342 C347 1.371 . S
C343 H315 0.930 . S
C343 C342 1.358 . S
C343 C344 1.405 . S
C344 H316 0.932 . S
C344 C343 1.405 . S
C344 C345 1.383 . S
C345 C344 1.383 . S
C345 C346 1.393 . S
C346 H318 0.931 . S
C346 C345 1.393 . S
C346 C347 1.382 . S
C347 H317 0.929 . S
C347 C342 1.371 . S
C347 C346 1.382 . S
C348 N311 1.423 . S
C348 C349 1.362 . S
C348 C353 1.388 . S
C349 H319 0.929 . S
C349 C348 1.362 . S
C349 C350 1.376 . S
C350 H321 0.931 . S
C350 C349 1.376 . S
C350 C351 1.396 . S
C351 C350 1.396 . S
C351 C352 1.348 . S
C351 C369 1.472 . S
C352 H322 0.929 . S
C352 C351 1.348 . S
C352 C353 1.443 . S
C353 H320 0.932 . S
C353 C348 1.388 . S
C353 C352 1.443 . S
C354 N334 1.433 . S
C354 C355 1.363 . S
C354 C359 1.370 . S
C355 H323 0.929 . S
C355 C354 1.363 . S
C355 C356 1.385 1_554 S
C356 H324 0.930 . S
C356 C355 1.385 1_556 S
C356 C357 1.357 . S
C357 C356 1.357 . S
C357 C358 1.406 . S
C358 H325 0.929 . S
C358 C357 1.406 . S
C358 C359 1.391 1_556 S
C359 H326 0.931 . S
C359 C354 1.370 . S
C359 C358 1.391 1_554 S
C360 N334 1.435 . S
C360 C361 1.358 . S
C360 C365 1.371 . S
C361 H327 0.930 . S
C361 C360 1.358 . S
C361 C362 1.405 . S
C362 H328 0.932 . S
C362 C361 1.405 . S
C362 C363 1.383 . S
C363 C362 1.383 . S
C363 C364 1.393 . S
C364 H329 0.931 . S
C364 C363 1.393 . S
C364 C365 1.382 . S
C365 H330 0.929 . S
C365 C360 1.371 . S
C365 C364 1.382 . S
C366 N334 1.423 . S
C366 C367 1.362 . S
C366 C371 1.388 . S
C367 H331 0.929 . S
C367 C366 1.362 . S
C367 C368 1.376 . S
C368 H332 0.931 . S
C368 C367 1.376 . S
C368 C369 1.396 . S
C369 C351 1.472 . S
C369 C368 1.396 . S
C369 C370 1.348 . S
C370 H333 0.929 . S
C370 C369 1.348 . S
C370 C371 1.443 . S
C371 H335 0.932 . S
C371 C366 1.388 . S
C371 C370 1.443 . S
C372 O399 1.312 . S
C372 O400 1.208 . S
C373 O394 1.331 . S
C373 O397 1.244 . S
C374 O396 1.264 . S
C374 O398 1.273 . S
Mg375 O377 1.931 1_455 S
Mg375 O384 2.081 1_455 S
Mg375 O386 2.023 . S
Mg375 O390 2.031 1_455 S
Mg375 O399 2.291 . S
Mg376 O377 1.978 1_455 S
Mg376 O387 1.932 1_455 S
Mg376 O388 1.970 . S
Mg376 O395 1.976 1_455 S
O377 Mg375 1.931 1_655 S
O377 Mg376 1.978 1_655 S
O377 Mg378 1.910 1_655 S
Mg378 O377 1.910 1_455 S
Mg378 O379 1.915 . S
Mg378 O383 2.013 . S
Mg378 O389 2.114 1_455 S
Mg378 O393 2.013 1_455 S
Mg378 O399 2.114 . S
O379 Mg378 1.915 . S
O379 Mg380 1.936 . S
O379 Mg381 1.963 . S
Mg380 O379 1.936 . S
Mg380 O389 2.291 1_455 S
Mg380 O394 2.081 . S
Mg380 O396 2.023 1_455 S
Mg380 O400 2.031 . S
Mg381 O379 1.963 . S
Mg381 O385 1.986 . S
Mg381 O397 1.942 . S
Mg381 O398 1.955 1_455 S
C382 O393 1.191 . S
C382 O395 1.307 . S
O383 Mg378 2.013 . S
O383 C402 1.191 . S
O384 Mg375 2.081 1_655 S
O384 C392 1.331 . S
O385 Mg381 1.986 . S
O385 C402 1.307 . S
O386 Mg375 2.023 . S
O386 C401 1.264 . S
O387 Mg376 1.932 1_655 S
O387 C392 1.244 . S
O388 Mg376 1.970 . S
O388 C401 1.273 . S
O389 Mg378 2.114 1_655 S
O389 Mg380 2.291 1_655 S
O389 C391 1.312 . S
O390 Mg375 2.031 1_655 S
O390 C391 1.208 . S
C391 O389 1.312 . S
C391 O390 1.208 . S
C392 O384 1.331 . S
C392 O387 1.244 . S
O393 Mg378 2.013 1_655 S
O393 C382 1.191 . S
O394 C373 1.331 . S
O394 Mg380 2.081 . S
O395 Mg376 1.976 1_655 S
O395 C382 1.307 . S
O396 C374 1.264 . S
O396 Mg380 2.023 1_655 S
O397 C373 1.244 . S
O397 Mg381 1.942 . S
O398 C374 1.273 . S
O398 Mg381 1.955 1_655 S
O399 C372 1.312 . S
O399 Mg375 2.291 . S
O399 Mg378 2.114 . S
O400 C372 1.208 . S
O400 Mg380 2.031 . S
C401 O386 1.264 . S
C401 O388 1.273 . S
C402 O383 1.191 . S
C402 O385 1.307 . S
C403 O430 1.312 . S
C403 O431 1.208 . S
C404 O425 1.331 . S
C404 O428 1.244 . S
C405 O427 1.264 . S
C405 O429 1.273 . S
Mg406 O408 1.936 1_545 S
Mg406 O415 2.081 1_545 S
Mg406 O417 2.023 . S
Mg406 O421 2.031 1_545 S
Mg406 O430 2.291 . S
Mg407 O408 1.963 . S
Mg407 O418 1.942 . S
Mg407 O419 1.955 1_565 S
Mg407 O426 1.986 . S
O408 Mg406 1.936 1_565 S
O408 Mg407 1.963 . S
O408 Mg409 1.915 1_565 S
Mg409 O408 1.915 1_545 S
Mg409 O410 1.915 . S
Mg409 O414 2.013 . S
Mg409 O420 2.114 1_545 S
Mg409 O424 2.013 1_545 S
Mg409 O430 2.114 . S
O410 Mg409 1.915 . S
O410 Mg411 1.936 . S
O410 Mg412 1.963 . S
Mg411 O410 1.936 . S
Mg411 O420 2.291 1_545 S
Mg411 O425 2.081 . S
Mg411 O427 2.023 1_545 S
Mg411 O431 2.031 . S
Mg412 O410 1.963 . S
Mg412 O416 1.986 . S
Mg412 O428 1.942 . S
Mg412 O429 1.955 1_545 S
C413 O424 1.191 . S
C413 O426 1.307 . S
O414 Mg409 2.013 . S
O414 C433 1.191 . S
O415 Mg406 2.081 1_565 S
O415 C423 1.331 . S
O416 Mg412 1.986 . S
O416 C433 1.307 . S
O417 Mg406 2.023 . S
O417 C432 1.264 . S
O418 Mg407 1.942 . S
O418 C423 1.244 . S
O419 Mg407 1.955 1_545 S
O419 C432 1.273 . S
O420 Mg409 2.114 1_565 S
O420 Mg411 2.291 1_565 S
O420 C422 1.312 . S
O421 Mg406 2.031 1_565 S
O421 C422 1.208 . S
C422 O420 1.312 . S
C422 O421 1.208 . S
C423 O415 1.331 . S
C423 O418 1.244 . S
O424 Mg409 2.013 1_565 S
O424 C413 1.191 . S
O425 C404 1.331 . S
O425 Mg411 2.081 . S
O426 Mg407 1.986 . S
O426 C413 1.307 . S
O427 C405 1.264 . S
O427 Mg411 2.023 1_565 S
O428 C404 1.244 . S
O428 Mg412 1.942 . S
O429 C405 1.273 . S
O429 Mg412 1.955 1_565 S
O430 C403 1.312 . S
O430 Mg406 2.291 . S
O430 Mg409 2.114 . S
O431 C403 1.208 . S
O431 Mg411 2.031 . S
C432 O417 1.264 . S
C432 O419 1.273 . S
C433 O414 1.191 . S
C433 O416 1.307 . S
C434 O461 1.312 . S
C434 O462 1.208 . S
C435 O456 1.331 . S
C435 O459 1.244 . S
C436 O458 1.264 . S
C436 O460 1.273 . S
Mg437 O439 1.936 . S
Mg437 O446 2.081 . S
Mg437 O448 2.023 . S
Mg437 O452 2.031 . S
Mg437 O461 2.291 . S
Mg438 O439 1.963 . S
Mg438 O449 1.942 . S
Mg438 O450 1.955 . S
Mg438 O457 1.986 . S
O439 Mg437 1.936 . S
O439 Mg438 1.963 . S
O439 Mg440 1.915 . S
Mg440 O439 1.915 . S
Mg440 O441 1.915 . S
Mg440 O445 2.013 . S
Mg440 O451 2.114 . S
Mg440 O455 2.013 . S
Mg440 O461 2.114 . S
O441 Mg440 1.915 . S
O441 Mg442 1.936 . S
O441 Mg443 1.963 . S
Mg442 O441 1.936 . S
Mg442 O451 2.291 . S
Mg442 O456 2.081 . S
Mg442 O458 2.023 . S
Mg442 O462 2.031 . S
Mg443 O441 1.963 . S
Mg443 O447 1.986 . S
Mg443 O459 1.942 . S
Mg443 O460 1.955 . S
C444 O455 1.191 . S
C444 O457 1.307 . S
O445 Mg440 2.013 . S
O445 C464 1.191 . S
O446 Mg437 2.081 . S
O446 C454 1.331 . S
O447 Mg443 1.986 . S
O447 C464 1.307 . S
O448 Mg437 2.023 . S
O448 C463 1.264 . S
O449 Mg438 1.942 . S
O449 C454 1.244 . S
O450 Mg438 1.955 . S
O450 C463 1.273 . S
O451 Mg440 2.114 . S
O451 Mg442 2.291 . S
O451 C453 1.312 . S
O452 Mg437 2.031 . S
O452 C453 1.208 . S
C453 O451 1.312 . S
C453 O452 1.208 . S
C454 O446 1.331 . S
C454 O449 1.244 . S
O455 Mg440 2.013 . S
O455 C444 1.191 . S
O456 C435 1.331 . S
O456 Mg442 2.081 . S
O457 Mg438 1.986 . S
O457 C444 1.307 . S
O458 C436 1.264 . S
O458 Mg442 2.023 . S
O459 C435 1.244 . S
O459 Mg443 1.942 . S
O460 C436 1.273 . S
O460 Mg443 1.955 . S
O461 C434 1.312 . S
O461 Mg437 2.291 . S
O461 Mg440 2.114 . S
O462 C434 1.208 . S
O462 Mg442 2.031 . S
C463 O448 1.264 . S
C463 O450 1.273 . S
C464 O445 1.191 . S
C464 O447 1.307 . S
C47 C372 2.611 . S
C91 C404 2.064 . S
C463 C177 2.582 . S
C392 C215 1.820 . S
C295 C422 2.490 . S
C444 C345 1.686 . S
C413 C153 2.821 . S
C239 C453 1.714 . S
C402 C283 2.730 . S
C357 C432 1.805 . S
C35 C435 2.383 1_554 S
C374 C115 1.810 . S
C382 C221 2.182 . S
C423 C301 1.681 . S
C436 C339 2.450 . S
C373 C53 2.102 . S
C433 C97 2.568 . S
C171 C434 2.152 . S
C403 C363 2.084 . S
C464 C29 1.913 . S
C391 C109 2.620 . S
C405 C159 2.203 . S
C233 C454 2.385 . S
C277 C401 1.983 . S
