# Generated by pormake.
# Topology pyr, (3,6)-cn, num edge types: 1
# Building blocks:
#     Node 0, Type 0, BuildingBlock: KAKCAD_clean_linker_0, # of connection points: 3
#     Node 1, Type 0, BuildingBlock: KAKCAD_clean_linker_0, # of connection points: 3
#     Node 2, Type 0, BuildingBlock: KAKCAD_clean_linker_0, # of connection points: 3
#     Node 3, Type 0, BuildingBlock: KAKCAD_clean_linker_0, # of connection points: 3
#     Node 4, Type 0, BuildingBlock: KAKCAD_clean_linker_0, # of connection points: 3
#     Node 5, Type 0, BuildingBlock: KAKCAD_clean_linker_0, # of connection points: 3
#     Node 6, Type 0, BuildingBlock: KAKCAD_clean_linker_0, # of connection points: 3
#     Node 7, Type 0, BuildingBlock: KAKCAD_clean_linker_0, # of connection points: 3
#     Node 8, Type 1, BuildingBlock: MIDCAF_clean_sbu_0, # of connection points: 6
#     Node 9, Type 1, BuildingBlock: MIDCAF_clean_sbu_0, # of connection points: 6
#     Node 10, Type 1, BuildingBlock: MIDCAF_clean_sbu_0, # of connection points: 6
#     Node 11, Type 1, BuildingBlock: MIDCAF_clean_sbu_0, # of connection points: 6
#     Edge 12, Type (0, 1), BuildingBlock: ZUJKAS_clean_linker_0, # of connection points: 2
#     Edge 13, Type (0, 1), BuildingBlock: ZUJKAS_clean_linker_0, # of connection points: 2
#     Edge 14, Type (0, 1), BuildingBlock: ZUJKAS_clean_linker_0, # of connection points: 2
#     Edge 15, Type (0, 1), BuildingBlock: ZUJKAS_clean_linker_0, # of connection points: 2
#     Edge 16, Type (0, 1), BuildingBlock: ZUJKAS_clean_linker_0, # of connection points: 2
#     Edge 17, Type (0, 1), BuildingBlock: ZUJKAS_clean_linker_0, # of connection points: 2
#     Edge 18, Type (0, 1), BuildingBlock: ZUJKAS_clean_linker_0, # of connection points: 2
#     Edge 19, Type (0, 1), BuildingBlock: ZUJKAS_clean_linker_0, # of connection points: 2
#     Edge 20, Type (0, 1), BuildingBlock: ZUJKAS_clean_linker_0, # of connection points: 2
#     Edge 21, Type (0, 1), BuildingBlock: ZUJKAS_clean_linker_0, # of connection points: 2
#     Edge 22, Type (0, 1), BuildingBlock: ZUJKAS_clean_linker_0, # of connection points: 2
#     Edge 23, Type (0, 1), BuildingBlock: ZUJKAS_clean_linker_0, # of connection points: 2
#     Edge 24, Type (0, 1), BuildingBlock: ZUJKAS_clean_linker_0, # of connection points: 2
#     Edge 25, Type (0, 1), BuildingBlock: ZUJKAS_clean_linker_0, # of connection points: 2
#     Edge 26, Type (0, 1), BuildingBlock: ZUJKAS_clean_linker_0, # of connection points: 2
#     Edge 27, Type (0, 1), BuildingBlock: ZUJKAS_clean_linker_0, # of connection points: 2
#     Edge 28, Type (0, 1), BuildingBlock: ZUJKAS_clean_linker_0, # of connection points: 2
#     Edge 29, Type (0, 1), BuildingBlock: ZUJKAS_clean_linker_0, # of connection points: 2
#     Edge 30, Type (0, 1), BuildingBlock: ZUJKAS_clean_linker_0, # of connection points: 2
#     Edge 31, Type (0, 1), BuildingBlock: ZUJKAS_clean_linker_0, # of connection points: 2
#     Edge 32, Type (0, 1), BuildingBlock: ZUJKAS_clean_linker_0, # of connection points: 2
#     Edge 33, Type (0, 1), BuildingBlock: ZUJKAS_clean_linker_0, # of connection points: 2
#     Edge 34, Type (0, 1), BuildingBlock: ZUJKAS_clean_linker_0, # of connection points: 2
#     Edge 35, Type (0, 1), BuildingBlock: ZUJKAS_clean_linker_0, # of connection points: 2
# Relax obj value: 0.019
# Max RMSD: 0.063
# Mean RMSD: 0.024
data_MOF--net-pyr--node1-MIDCAF_clean_sbu_0--node2-KAKCAD_clean_linker_0--edge1-ZUJKAS_clean_linker_0
_symmetry_space_group_name_H-M    P1
_symmetry_Int_Tables_number       1
_symmetry_cell_setting            triclinic
loop_
_symmetry_equiv_pos_as_xyz
'x, y, z'
_cell_length_a     54.575987
_cell_length_b     54.588918
_cell_length_c     54.523334
_cell_angle_alpha  90.240538
_cell_angle_beta   89.926239
_cell_angle_gamma 90.315095
loop_
_atom_site_label
_atom_site_type_symbol
_atom_site_fract_x
_atom_site_fract_y
_atom_site_fract_z
_atom_type_partial_charge
C0 C 0.17464 0.206 0.29508 0.0
C1 C 0.18717 0.19805 0.31609 0.0
C2 C 0.18747 0.21567 0.27509 0.0
C3 C 0.21317 0.21769 0.2756 0.0
C4 C 0.22571 0.20989 0.29667 0.0
C5 C 0.21287 0.20019 0.31667 0.0
C6 C 0.22681 0.22765 0.25411 0.0
C7 C 0.21758 0.24774 0.24102 0.0
C8 C 0.22995 0.25686 0.22036 0.0
C9 C 0.25182 0.24574 0.21276 0.0
C10 C 0.26118 0.22537 0.22529 0.0
C11 C 0.2487 0.21663 0.24611 0.0
C12 C 0.28313 0.21239 0.21571 0.0
C13 C 0.28555 0.20784 0.19043 0.0
C14 C 0.30152 0.20401 0.23162 0.0
C15 C 0.32182 0.19131 0.22242 0.0
C16 C 0.32402 0.18653 0.19715 0.0
C17 C 0.21943 0.27725 0.20596 0.0
C18 C 0.19488 0.27619 0.19833 0.0
C19 C 0.23392 0.29749 0.19917 0.0
C20 C 0.22399 0.31636 0.18505 0.0
C21 C 0.19955 0.31506 0.17707 0.0
C22 C 0.18509 0.29481 0.18389 0.0
C23 C 0.30571 0.19508 0.18128 0.0
H24 H 0.15491 0.20422 0.29382 0.0
H25 H 0.17725 0.22109 0.25901 0.0
H26 H 0.24546 0.2115 0.29781 0.0
H27 H 0.22307 0.19455 0.33268 0.0
H28 H 0.20085 0.25653 0.24704 0.0
H29 H 0.25544 0.20054 0.25545 0.0
H30 H 0.26125 0.25264 0.19668 0.0
H31 H 0.27159 0.21375 0.17769 0.0
H32 H 0.30026 0.20736 0.25117 0.0
H33 H 0.33554 0.18483 0.23514 0.0
H34 H 0.18337 0.26071 0.20315 0.0
H35 H 0.25289 0.29876 0.20489 0.0
H36 H 0.30699 0.19198 0.16168 0.0
H37 H 0.16613 0.29347 0.17817 0.0
H38 H 0.23552 0.33175 0.18 0.0
C39 C 0.33483 0.84821 0.81415 0.0
C40 C 0.36061 0.84892 0.81447 0.0
C41 C 0.32221 0.8399 0.79337 0.0
C42 C 0.33507 0.83203 0.77245 0.0
C43 C 0.36083 0.83275 0.77277 0.0
C44 C 0.37343 0.84109 0.7935 0.0
C45 C 0.3218 0.823 0.75034 0.0
C46 C 0.30108 0.83534 0.7415 0.0
C47 C 0.28894 0.82721 0.72018 0.0
C48 C 0.29779 0.80636 0.70779 0.0
C49 C 0.31852 0.79384 0.7163 0.0
C50 C 0.33024 0.80222 0.7377 0.0
C51 C 0.32833 0.7723 0.70267 0.0
C52 C 0.31251 0.75463 0.69235 0.0
C53 C 0.35376 0.7693 0.69991 0.0
C54 C 0.36316 0.74901 0.68746 0.0
C55 C 0.34738 0.73125 0.67732 0.0
C56 C 0.26742 0.84078 0.71047 0.0
C57 C 0.24959 0.85045 0.72643 0.0
C58 C 0.26454 0.84417 0.68508 0.0
C59 C 0.24425 0.85658 0.67586 0.0
C60 C 0.22635 0.86608 0.69178 0.0
C61 C 0.22933 0.86303 0.71718 0.0
C62 C 0.32194 0.73435 0.67975 0.0
H63 H 0.32437 0.85382 0.83009 0.0
H64 H 0.30237 0.83931 0.7938 0.0
H65 H 0.37129 0.8272 0.75681 0.0
H66 H 0.39326 0.84185 0.79288 0.0
H67 H 0.29491 0.85178 0.75078 0.0
H68 H 0.34584 0.7923 0.74479 0.0
H69 H 0.28865 0.79998 0.69132 0.0
H70 H 0.29284 0.75622 0.69437 0.0
H71 H 0.36648 0.78281 0.70714 0.0
H72 H 0.38284 0.7474 0.68549 0.0
H73 H 0.25106 0.84796 0.74606 0.0
H74 H 0.27815 0.83749 0.67226 0.0
H75 H 0.30933 0.72086 0.67232 0.0
H76 H 0.21574 0.86996 0.7299 0.0
H77 H 0.24273 0.85903 0.65621 0.0
C78 C 0.80223 0.36879 0.82968 0.0
C79 C 0.82195 0.35536 0.83917 0.0
C80 C 0.78199 0.35681 0.81941 0.0
C81 C 0.78093 0.33108 0.81841 0.0
C82 C 0.80091 0.31764 0.82736 0.0
C83 C 0.82122 0.32965 0.83756 0.0
C84 C 0.75858 0.31843 0.80902 0.0
C85 C 0.74629 0.32736 0.78827 0.0
C86 C 0.7242 0.31662 0.78027 0.0
C87 C 0.71448 0.29665 0.7933 0.0
C88 C 0.72658 0.28736 0.81397 0.0
C89 C 0.74872 0.29819 0.82158 0.0
C90 C 0.71542 0.26715 0.82835 0.0
C91 C 0.69069 0.26833 0.83542 0.0
C92 C 0.72935 0.24675 0.83531 0.0
C93 C 0.71865 0.22775 0.84885 0.0
C94 C 0.69395 0.22905 0.85606 0.0
C95 C 0.71088 0.32677 0.75881 0.0
C96 C 0.70879 0.35223 0.75579 0.0
C97 C 0.69983 0.31114 0.74143 0.0
C98 C 0.68694 0.32076 0.72153 0.0
C99 C 0.68482 0.34624 0.71854 0.0
C100 C 0.69592 0.36184 0.73592 0.0
C101 C 0.68012 0.24956 0.84924 0.0
H102 H 0.80233 0.38862 0.83041 0.0
H103 H 0.76684 0.36772 0.81291 0.0
H104 H 0.80076 0.2978 0.82664 0.0
H105 H 0.83602 0.31875 0.84489 0.0
H106 H 0.75406 0.34262 0.77819 0.0
H107 H 0.75763 0.29156 0.838 0.0
H108 H 0.69724 0.2885 0.7876 0.0
H109 H 0.67959 0.28395 0.8305 0.0
H110 H 0.74844 0.24538 0.83002 0.0
H111 H 0.72973 0.21218 0.85394 0.0
H112 H 0.71669 0.36478 0.76907 0.0
H113 H 0.70135 0.29144 0.74307 0.0
H114 H 0.66098 0.25093 0.85435 0.0
H115 H 0.69427 0.38154 0.73446 0.0
H116 H 0.67889 0.30823 0.70833 0.0
C117 C 0.83049 0.69867 0.21617 0.0
C118 C 0.85624 0.69814 0.21534 0.0
C119 C 0.81831 0.70753 0.23699 0.0
C120 C 0.83161 0.7162 0.25736 0.0
C121 C 0.85735 0.71609 0.25629 0.0
C122 C 0.8695 0.70718 0.23555 0.0
C123 C 0.81884 0.72478 0.27995 0.0
C124 C 0.79872 0.71166 0.28943 0.0
C125 C 0.78745 0.71888 0.31152 0.0
C126 C 0.79658 0.73958 0.32407 0.0
C127 C 0.81668 0.75296 0.31493 0.0
C128 C 0.82746 0.74552 0.2927 0.0
C129 C 0.82701 0.7741 0.32902 0.0
C130 C 0.81164 0.79041 0.34177 0.0
C131 C 0.8525 0.77783 0.33024 0.0
C132 C 0.86236 0.79724 0.34386 0.0
C133 C 0.84704 0.81335 0.35692 0.0
C134 C 0.76667 0.7044 0.3219 0.0
C135 C 0.74822 0.69471 0.3066 0.0
C136 C 0.76511 0.70017 0.34729 0.0
C137 C 0.74548 0.68695 0.35716 0.0
C138 C 0.72695 0.67745 0.34191 0.0
C139 C 0.72863 0.68132 0.31649 0.0
C140 C 0.82153 0.80974 0.3556 0.0
H141 H 0.81973 0.69164 0.201 0.0
H142 H 0.79846 0.70756 0.23715 0.0
H143 H 0.86818 0.72239 0.27173 0.0
H144 H 0.88935 0.70726 0.23541 0.0
H145 H 0.79245 0.69522 0.2801 0.0
H146 H 0.84258 0.75602 0.28515 0.0
H147 H 0.78818 0.74511 0.34122 0.0
H148 H 0.79191 0.78832 0.34104 0.0
H149 H 0.86498 0.76551 0.32098 0.0
H150 H 0.88206 0.79963 0.34405 0.0
H151 H 0.74869 0.69782 0.287 0.0
H152 H 0.77923 0.70684 0.35959 0.0
H153 H 0.80914 0.8216 0.36556 0.0
H154 H 0.71453 0.67442 0.30428 0.0
H155 H 0.74497 0.68389 0.37677 0.0
C156 C 0.95132 0.89622 0.81861 0.0
C157 C 0.95363 0.92076 0.81117 0.0
C158 C 0.93855 0.89018 0.84001 0.0
C159 C 0.92795 0.90854 0.85471 0.0
C160 C 0.93081 0.93313 0.84761 0.0
C161 C 0.94337 0.93915 0.82608 0.0
C162 C 0.91335 0.90197 0.8769 0.0
C163 C 0.9203 0.88221 0.89178 0.0
C164 C 0.90591 0.87502 0.91193 0.0
C165 C 0.88454 0.88815 0.91748 0.0
C166 C 0.87732 0.90805 0.90294 0.0
C167 C 0.89183 0.91484 0.88275 0.0
C168 C 0.85407 0.9211 0.90819 0.0
C169 C 0.83254 0.90785 0.91325 0.0
C170 C 0.85311 0.94683 0.90779 0.0
C171 C 0.83113 0.95903 0.91259 0.0
C172 C 0.80955 0.94577 0.91772 0.0
C173 C 0.91272 0.85314 0.92651 0.0
C174 C 0.92002 0.83152 0.91456 0.0
C175 C 0.91174 0.85353 0.95229 0.0
C176 C 0.91808 0.83275 0.96581 0.0
C177 C 0.92524 0.8111 0.9538 0.0
C178 C 0.92615 0.81075 0.92803 0.0
C179 C 0.81054 0.92001 0.91786 0.0
H180 H 0.95926 0.88156 0.80783 0.0
H181 H 0.93652 0.87101 0.84467 0.0
H182 H 0.92322 0.9478 0.85863 0.0
H183 H 0.94447 0.95824 0.82085 0.0
H184 H 0.93707 0.87242 0.8878 0.0
H185 H 0.88575 0.92956 0.87101 0.0
H186 H 0.87327 0.88261 0.93289 0.0
H187 H 0.83259 0.888 0.91324 0.0
H188 H 0.86948 0.95752 0.90411 0.0
H189 H 0.83115 0.97887 0.91266 0.0
H190 H 0.92073 0.83056 0.89472 0.0
H191 H 0.90631 0.86999 0.962 0.0
H192 H 0.79423 0.90915 0.92121 0.0
H193 H 0.93191 0.79446 0.91823 0.0
H194 H 0.91714 0.83354 0.98564 0.0
C195 C 0.58606 0.09013 0.33677 0.0
C196 C 0.57769 0.10744 0.31971 0.0
C197 C 0.59976 0.09753 0.35718 0.0
C198 C 0.60538 0.12241 0.36104 0.0
C199 C 0.59674 0.13974 0.34416 0.0
C200 C 0.58307 0.13235 0.32376 0.0
C201 C 0.62042 0.13028 0.38242 0.0
C202 C 0.64141 0.11706 0.38918 0.0
C203 C 0.6562 0.12495 0.40885 0.0
C204 C 0.64935 0.14593 0.42221 0.0
C205 C 0.62867 0.15938 0.41549 0.0
C206 C 0.61433 0.15156 0.39562 0.0
C207 C 0.62269 0.18237 0.42842 0.0
C208 C 0.61539 0.18215 0.45308 0.0
C209 C 0.62414 0.2047 0.41594 0.0
C210 C 0.61817 0.22655 0.42785 0.0
C211 C 0.61001 0.22651 0.45239 0.0
C212 C 0.67954 0.11225 0.41454 0.0
C213 C 0.68099 0.08653 0.4144 0.0
C214 C 0.70076 0.12598 0.41978 0.0
C215 C 0.72282 0.11435 0.42503 0.0
C216 C 0.72427 0.08864 0.42521 0.0
C217 C 0.70314 0.07484 0.41968 0.0
C218 C 0.60888 0.20398 0.4649 0.0
H219 H 0.58196 0.07084 0.33437 0.0
H220 H 0.60585 0.08377 0.37003 0.0
H221 H 0.60106 0.15901 0.34638 0.0
H222 H 0.57732 0.14612 0.31077 0.0
H223 H 0.64685 0.10125 0.37844 0.0
H224 H 0.59826 0.16202 0.39063 0.0
H225 H 0.66042 0.15219 0.43752 0.0
H226 H 0.61415 0.16502 0.46298 0.0
H227 H 0.63005 0.20522 0.39696 0.0
H228 H 0.61999 0.24348 0.41773 0.0
H229 H 0.66492 0.07543 0.41057 0.0
H230 H 0.70045 0.14582 0.41945 0.0
H231 H 0.60237 0.20305 0.48364 0.0
H232 H 0.70362 0.05501 0.41986 0.0
H233 H 0.73886 0.12555 0.42865 0.0
C234 C 0.32546 0.58405 0.13693 0.0
C235 C 0.31801 0.58168 0.11237 0.0
C236 C 0.34716 0.59639 0.14286 0.0
C237 C 0.36199 0.60662 0.12439 0.0
C238 C 0.35486 0.60373 0.09978 0.0
C239 C 0.33313 0.5914 0.09384 0.0
C240 C 0.38422 0.6211 0.13099 0.0
C241 C 0.39951 0.61339 0.15016 0.0
C242 C 0.41921 0.62803 0.15828 0.0
C243 C 0.42387 0.65036 0.14637 0.0
C244 C 0.40917 0.65814 0.12678 0.0
C245 C 0.38941 0.64338 0.11916 0.0
C246 C 0.41398 0.68217 0.11496 0.0
C247 C 0.41928 0.70291 0.12938 0.0
C248 C 0.41367 0.68453 0.08929 0.0
C249 C 0.41918 0.70703 0.07828 0.0
C250 C 0.42503 0.72764 0.09275 0.0
C251 C 0.43412 0.62057 0.17989 0.0
C252 C 0.42299 0.60853 0.19982 0.0
C253 C 0.45935 0.62605 0.18121 0.0
C254 C 0.47293 0.62004 0.20207 0.0
C255 C 0.46168 0.60801 0.22183 0.0
C256 C 0.43665 0.60216 0.22042 0.0
C257 C 0.42469 0.72535 0.11843 0.0
H258 H 0.31408 0.57713 0.15167 0.0
H259 H 0.35189 0.59861 0.16204 0.0
H260 H 0.36605 0.61109 0.0851 0.0
H261 H 0.32809 0.58957 0.07471 0.0
H262 H 0.39599 0.59587 0.15878 0.0
H263 H 0.37743 0.6498 0.10475 0.0
H264 H 0.43877 0.662 0.15258 0.0
H265 H 0.41913 0.70182 0.14921 0.0
H266 H 0.40978 0.66882 0.0777 0.0
H267 H 0.41946 0.70812 0.05846 0.0
H268 H 0.40354 0.60451 0.19984 0.0
H269 H 0.46869 0.63492 0.1661 0.0
H270 H 0.42854 0.74098 0.13013 0.0
H271 H 0.42747 0.59319 0.23559 0.0
H272 H 0.49227 0.62459 0.2027 0.0
C273 C 0.13058 0.3279 0.58438 0.0
C274 C 0.10583 0.32125 0.58226 0.0
C275 C 0.13733 0.34915 0.59717 0.0
C276 C 0.1194 0.36448 0.60769 0.0
C277 C 0.09455 0.35805 0.60475 0.0
C278 C 0.08787 0.33654 0.59242 0.0
C279 C 0.1266 0.38663 0.62223 0.0
C280 C 0.1476 0.40029 0.61596 0.0
C281 C 0.1553 0.42034 0.63032 0.0
C282 C 0.14117 0.42735 0.6507 0.0
C283 C 0.11992 0.41417 0.65717 0.0
C284 C 0.11295 0.39375 0.64296 0.0
C285 C 0.10541 0.42115 0.67924 0.0
C286 C 0.11725 0.42809 0.70109 0.0
C287 C 0.07963 0.42056 0.67876 0.0
C288 C 0.06603 0.42674 0.69965 0.0
C289 C 0.0779 0.43371 0.72147 0.0
C290 C 0.17869 0.4332 0.62452 0.0
C291 C 0.19951 0.41962 0.61796 0.0
C292 C 0.18058 0.45889 0.62574 0.0
C293 C 0.20275 0.47071 0.62019 0.0
C294 C 0.22347 0.45707 0.61333 0.0
C295 C 0.22159 0.43139 0.61246 0.0
C296 C 0.10367 0.43429 0.72193 0.0
H297 H 0.14473 0.31622 0.57687 0.0
H298 H 0.15665 0.35312 0.59937 0.0
H299 H 0.08016 0.36958 0.61202 0.0
H300 H 0.06863 0.33182 0.59081 0.0
H301 H 0.158 0.39544 0.59974 0.0
H302 H 0.0973 0.38289 0.64865 0.0
H303 H 0.14693 0.44287 0.66177 0.0
H304 H 0.13705 0.42829 0.70226 0.0
H305 H 0.06994 0.41557 0.66214 0.0
H306 H 0.04622 0.42638 0.6986 0.0
H307 H 0.19885 0.39979 0.61739 0.0
H308 H 0.16482 0.46988 0.63057 0.0
H309 H 0.1134 0.43914 0.73857 0.0
H310 H 0.23731 0.42028 0.60779 0.0
H311 H 0.20354 0.49053 0.62084 0.0
Zn312 Zn 0.98675 0.05654 0.54967 0.0
Zn313 Zn 0.04479 0.99843 0.49351 0.0
Zn314 Zn 0.01527 0.02739 0.52156 0.0
C315 C 0.05806 0.04748 0.48479 0.0
C316 C 0.99567 0.98868 0.48044 0.0
O317 O 0.01824 0.01568 0.56034 0.0
O318 O 0.99536 0.04158 0.58163 0.0
C319 C 0.01992 0.08674 0.52506 0.0
O320 O 0.04078 0.05114 0.50052 0.0
O321 O 0.06379 0.02594 0.47855 0.0
O322 O 0.01734 0.98269 0.47496 0.0
O323 O 0.99169 0.00521 0.49692 0.0
O324 O 0.00212 0.08802 0.5398 0.0
O325 O 0.02715 0.0659 0.51664 0.0
O326 O 0.97702 0.02311 0.50862 0.0
O327 O 0.95553 0.04678 0.53366 0.0
C328 C 0.9564 0.03227 0.51558 0.0
O329 O 0.03636 0.00343 0.54642 0.0
O330 O 0.05935 0.98072 0.52184 0.0
C331 C 0.00919 0.02311 0.58092 0.0
C332 C 0.05274 0.98677 0.54323 0.0
Zn333 Zn 0.49517 0.04358 0.99659 0.0
Zn334 Zn 0.55818 0.99132 0.05174 0.0
Zn335 Zn 0.52682 0.01758 0.02461 0.0
C336 C 0.58592 0.01372 0.01532 0.0
C337 C 0.5227 0.95892 0.03257 0.0
O338 O 0.50667 0.04312 0.04901 0.0
O339 O 0.47943 0.06072 0.02476 0.0
C340 C 0.54359 0.05487 0.98173 0.0
O341 O 0.56471 0.02249 0.00988 0.0
O342 O 0.58822 0.99928 0.03318 0.0
O343 O 0.54149 0.9592 0.04609 0.0
O344 O 0.51507 0.97884 0.02259 0.0
O345 O 0.52154 0.06015 0.9772 0.0
O346 O 0.54884 0.0391 0.99842 0.0
O347 O 0.50206 0.99188 0.00462 0.0
O348 O 0.47789 0.01508 0.98196 0.0
C349 C 0.48473 0.99412 0.98872 0.0
O350 O 0.52338 0.02986 0.06327 0.0
O351 O 0.55227 0.00932 0.08281 0.0
C352 C 0.48855 0.05781 0.04582 0.0
C353 C 0.53529 0.02491 0.08302 0.0
Zn354 Zn 0.54473 0.54561 0.54291 0.0
Zn355 Zn 0.48477 0.48846 0.48722 0.0
Zn356 Zn 0.51457 0.51688 0.51466 0.0
C357 C 0.51687 0.45747 0.51179 0.0
C358 C 0.50917 0.52057 0.45542 0.0
O359 O 0.49159 0.53977 0.53895 0.0
O360 O 0.51755 0.56192 0.56117 0.0
C361 C 0.55626 0.49618 0.55179 0.0
O362 O 0.52509 0.47819 0.51979 0.0
O363 O 0.49874 0.45658 0.49746 0.0
O364 O 0.49427 0.50278 0.45518 0.0
O365 O 0.51863 0.52803 0.47581 0.0
O366 O 0.56256 0.51764 0.558 0.0
O367 O 0.53904 0.49276 0.53594 0.0
O368 O 0.53687 0.54008 0.48989 0.0
O369 O 0.56012 0.56275 0.51449 0.0
C370 C 0.55371 0.55645 0.4931 0.0
O371 O 0.47626 0.5222 0.52744 0.0
O372 O 0.45372 0.49908 0.50266 0.0
C373 C 0.4958 0.55628 0.55542 0.0
C374 C 0.45524 0.51368 0.52062 0.0
Zn375 Zn 0.05742 0.54662 0.9824 0.0
Zn376 Zn 0.99864 0.49914 0.04479 0.0
Zn377 Zn 0.02695 0.52384 0.01317 0.0
C378 C 0.04672 0.48695 0.05577 0.0
C379 C 0.98658 0.48341 0.99706 0.0
O380 O 0.0175 0.56319 0.01501 0.0
O381 O 0.0409 0.57889 0.98572 0.0
C382 C 0.08645 0.5278 0.01929 0.0
O383 O 0.05051 0.50273 0.03861 0.0
O384 O 0.02513 0.48152 0.06219 0.0
O385 O 0.97921 0.48182 0.01898 0.0
O386 O 0.00481 0.49746 0.99155 0.0
O387 O 0.08837 0.54077 1.00027 0.0
O388 O 0.0653 0.51959 0.02611 0.0
O389 O 0.02097 0.50928 0.97535 0.0
O390 O 0.05051 0.52633 0.9532 0.0
C391 C 0.03248 0.51188 0.95483 0.0
O392 O 0.00279 0.55069 0.0323 0.0
O393 O 0.98447 0.52829 0.06083 0.0
C394 C 0.02461 0.58158 0.00199 0.0
C395 C 0.98829 0.54881 0.05092 0.0
H396 H 0.19979 0.15806 0.3434 0.0
H397 H 0.17637 0.13874 0.3764 0.0
H398 H 0.12018 0.19342 0.36915 0.0
H399 H 0.14356 0.213 0.33617 0.0
H400 H 0.15889 0.15755 0.4219 0.0
H401 H 0.08278 0.12841 0.3603 0.0
H402 H 0.11194 0.13895 0.34868 0.0
H403 H 0.09006 0.16055 0.36028 0.0
C404 C 0.1826 0.16619 0.34901 0.0
C405 C 0.17349 0.187 0.337 0.0
C406 C 0.1692 0.15507 0.36783 0.0
C407 C 0.14639 0.16445 0.375 0.0
C408 C 0.13753 0.18561 0.36358 0.0
H409 H 0.03913 0.09149 0.47069 0.0
H410 H 0.0601 0.12416 0.44791 0.0
C411 C 0.1509 0.19674 0.34471 0.0
C412 C 0.13168 0.15152 0.39392 0.0
H413 H 0.07953 0.11759 0.40181 0.0
C414 C 0.14144 0.14898 0.41759 0.0
C415 C 0.10884 0.14048 0.3883 0.0
C416 C 0.09778 0.142 0.36299 0.0
C417 C 0.1292 0.13525 0.43563 0.0
C418 C 0.10685 0.1234 0.4297 0.0
C419 C 0.09663 0.12674 0.40634 0.0
C420 C 0.09498 0.10551 0.44643 0.0
C421 C 0.14052 0.13334 0.46077 0.0
C422 C 0.10764 0.08433 0.45335 0.0
C423 C 0.09578 0.06589 0.46656 0.0
C424 C 0.07102 0.06825 0.47316 0.0
C425 C 0.05844 0.08962 0.46662 0.0
C426 C 0.07032 0.10813 0.45336 0.0
H427 H 0.15159 0.14991 0.46521 0.0
H428 H 0.12639 0.13084 0.47523 0.0
H429 H 0.15295 0.11733 0.46113 0.0
H430 H 0.12647 0.08162 0.44771 0.0
H431 H 0.10585 0.04949 0.47117 0.0
H432 H 0.34898 0.88807 0.84379 0.0
H433 H 0.37233 0.9047 0.87833 0.0
H434 H 0.42638 0.84812 0.86904 0.0
H435 H 0.40295 0.83105 0.83465 0.0
H436 H 0.38898 0.88121 0.92346 0.0
H437 H 0.4653 0.91373 0.86365 0.0
H438 H 0.43568 0.90534 0.85146 0.0
H439 H 0.45655 0.88201 0.86109 0.0
C440 C 0.36562 0.87889 0.84929 0.0
C441 C 0.37415 0.8583 0.83631 0.0
C442 C 0.37898 0.88849 0.86899 0.0
C443 C 0.40118 0.87779 0.87605 0.0
C444 C 0.40946 0.85685 0.86363 0.0
H445 H 0.5058 0.95044 0.97586 0.0
H446 H 0.48673 0.91696 0.9522 0.0
C447 C 0.39608 0.8472 0.84393 0.0
C448 C 0.41599 0.88929 0.89578 0.0
H449 H 0.46748 0.92375 0.90543 0.0
C450 C 0.4063 0.89027 0.91962 0.0
C451 C 0.4387 0.90085 0.89076 0.0
C452 C 0.44973 0.90066 0.86536 0.0
C453 C 0.41833 0.90325 0.9384 0.0
C454 C 0.44031 0.91599 0.93302 0.0
C455 C 0.45064 0.91394 0.90951 0.0
C456 C 0.45111 0.93408 0.9503 0.0
C457 C 0.40721 0.90359 0.96374 0.0
C458 C 0.43737 0.95463 0.95721 0.0
C459 C 0.44816 0.97362 0.9706 0.0
C460 C 0.47293 0.97246 0.97742 0.0
C461 C 0.48656 0.95158 0.97117 0.0
C462 C 0.47574 0.93254 0.9576 0.0
H463 H 0.39583 0.88697 0.967 0.0
H464 H 0.42158 0.90476 0.97812 0.0
H465 H 0.39515 0.91979 0.96556 0.0
H466 H 0.41853 0.95651 0.95129 0.0
H467 H 0.43729 0.98958 0.97506 0.0
H468 H 0.69692 0.3859 0.69038 0.0
H469 H 0.6728 0.40457 0.65776 0.0
H470 H 0.61755 0.34842 0.6659 0.0
H471 H 0.64119 0.33004 0.69918 0.0
H472 H 0.65552 0.38528 0.6127 0.0
H473 H 0.57905 0.41225 0.67473 0.0
H474 H 0.60838 0.40246 0.68623 0.0
H475 H 0.5869 0.38033 0.67449 0.0
C476 C 0.67956 0.37758 0.68537 0.0
C477 C 0.67087 0.35662 0.69761 0.0
C478 C 0.66591 0.38815 0.66656 0.0
C479 C 0.64325 0.37806 0.65962 0.0
C480 C 0.63483 0.35671 0.67122 0.0
H481 H 0.53628 0.45229 0.56562 0.0
H482 H 0.55663 0.41902 0.58771 0.0
C483 C 0.64848 0.3461 0.69008 0.0
C484 C 0.62826 0.39055 0.64081 0.0
H485 H 0.57608 0.42394 0.63352 0.0
C486 C 0.63801 0.39351 0.61716 0.0
C487 C 0.60536 0.40115 0.64661 0.0
C488 C 0.59429 0.39912 0.67191 0.0
C489 C 0.62583 0.40742 0.59937 0.0
C490 C 0.6035 0.41897 0.60554 0.0
C491 C 0.59318 0.41503 0.6288 0.0
C492 C 0.5919 0.4373 0.58931 0.0
C493 C 0.6373 0.40995 0.57431 0.0
C494 C 0.60497 0.4585 0.58275 0.0
C495 C 0.59348 0.47726 0.56989 0.0
C496 C 0.56868 0.47523 0.56335 0.0
C497 C 0.55563 0.45392 0.56966 0.0
C498 C 0.56716 0.43506 0.58251 0.0
H499 H 0.64772 0.39323 0.56931 0.0
H500 H 0.62338 0.4134 0.55993 0.0
H501 H 0.65041 0.42557 0.57458 0.0
H502 H 0.62386 0.46095 0.58834 0.0
H503 H 0.6039 0.49361 0.56547 0.0
H504 H 0.89547 0.66738 0.21624 0.0
H505 H 0.91615 0.64798 0.18154 0.0
H506 H 0.86711 0.68381 0.13145 0.0
H507 H 0.84634 0.7037 0.16621 0.0
H508 H 0.88575 0.61786 0.14295 0.0
H509 H 0.94333 0.69448 0.10707 0.0
H510 H 0.9351 0.69311 0.13916 0.0
H511 H 0.91215 0.69982 0.11676 0.0
C512 C 0.8893 0.67153 0.19785 0.0
C513 C 0.86928 0.68716 0.194 0.0
C514 C 0.90109 0.66034 0.17806 0.0
C515 C 0.89325 0.66466 0.154 0.0
C516 C 0.87352 0.68046 0.14992 0.0
H517 H 0.95911 0.58323 0.02907 0.0
H518 H 0.93452 0.6147 0.05038 0.0
C519 C 0.86158 0.69162 0.16978 0.0
C520 C 0.90487 0.65109 0.13358 0.0
H521 H 0.95036 0.65503 0.09058 0.0
C522 C 0.89953 0.62606 0.13117 0.0
C523 C 0.92271 0.66195 0.11819 0.0
C524 C 0.92883 0.68883 0.12024 0.0
C525 C 0.91239 0.61132 0.11452 0.0
C526 C 0.93133 0.62181 0.10023 0.0
C527 C 0.93582 0.64711 0.10161 0.0
C528 C 0.94844 0.60597 0.08643 0.0
C529 C 0.90637 0.58434 0.11306 0.0
C530 C 0.96482 0.59138 0.0996 0.0
C531 C 0.97866 0.57363 0.0876 0.0
C532 C 0.97663 0.57034 0.06216 0.0
C533 C 0.96112 0.58571 0.04869 0.0
C534 C 0.94711 0.60357 0.0608 0.0
H535 H 0.88788 0.58025 0.12062 0.0
H536 H 0.90721 0.57771 0.0938 0.0
H537 H 0.92002 0.57396 0.12387 0.0
H538 H 0.96611 0.59303 0.11937 0.0
H539 H 0.99041 0.56188 0.09834 0.0
H540 H 0.37276 0.19066 0.20927 0.0
H541 H 0.40733 0.16821 0.1913 0.0
H542 H 0.35735 0.12838 0.14448 0.0
H543 H 0.32283 0.15022 0.16262 0.0
H544 H 0.39395 0.09889 0.16792 0.0
H545 H 0.4335 0.18051 0.12077 0.0
H546 H 0.42796 0.18277 0.15324 0.0
H547 H 0.40256 0.18021 0.13253 0.0
C548 C 0.36915 0.17693 0.19532 0.0
C549 C 0.34507 0.17239 0.1872 0.0
C550 C 0.38893 0.16428 0.18495 0.0
C551 C 0.38491 0.14686 0.16635 0.0
C552 C 0.36086 0.14184 0.15873 0.0
H553 H 0.44016 0.05921 0.05505 0.0
H554 H 0.4191 0.08006 0.08864 0.0
C555 C 0.34117 0.15448 0.16899 0.0
C556 C 0.40552 0.13403 0.15418 0.0
H557 H 0.4508 0.14231 0.11164 0.0
C558 C 0.40668 0.10843 0.15595 0.0
C559 C 0.42225 0.14653 0.13874 0.0
C560 C 0.42159 0.17401 0.13597 0.0
C561 C 0.42327 0.09488 0.14173 0.0
C562 C 0.4388 0.10723 0.12504 0.0
C563 C 0.43882 0.13293 0.12445 0.0
C564 C 0.45227 0.09378 0.10566 0.0
C565 C 0.42344 0.06735 0.14401 0.0
C566 C 0.47794 0.09497 0.10381 0.0
C567 C 0.49006 0.08292 0.08456 0.0
C568 C 0.47658 0.06986 0.06684 0.0
C569 C 0.45095 0.06902 0.06861 0.0
C570 C 0.43893 0.08076 0.08787 0.0
H571 H 0.41684 0.06145 0.16236 0.0
H572 H 0.41099 0.0593 0.13002 0.0
H573 H 0.44209 0.05991 0.14093 0.0
H574 H 0.48851 0.10522 0.11719 0.0
H575 H 0.50984 0.08413 0.08327 0.0
H576 H 0.20583 0.90894 0.70808 0.0
H577 H 0.17119 0.93105 0.69015 0.0
H578 H 0.16384 0.87497 0.63468 0.0
H579 H 0.19806 0.85265 0.65265 0.0
H580 H 0.16912 0.94888 0.64167 0.0
H581 H 0.09322 0.88367 0.65959 0.0
H582 H 0.12202 0.8826 0.67585 0.0
H583 H 0.11939 0.86948 0.64564 0.0
C584 C 0.19655 0.90114 0.69231 0.0
C585 C 0.20469 0.87906 0.68176 0.0
C586 C 0.17684 0.91382 0.68205 0.0
C587 C 0.16472 0.90447 0.66131 0.0
C588 C 0.17262 0.88229 0.65096 0.0
H589 H 0.07029 0.94046 0.54551 0.0
H590 H 0.09496 0.92236 0.57802 0.0
C591 C 0.19237 0.8697 0.66108 0.0
C592 C 0.14498 0.91856 0.64926 0.0
H593 H 0.08634 0.91342 0.628 0.0
C594 C 0.15085 0.94141 0.63906 0.0
C595 C 0.12116 0.90876 0.64597 0.0
C596 C 0.11345 0.88488 0.65755 0.0
C597 C 0.13405 0.95398 0.62428 0.0
C598 C 0.1106 0.9436 0.62002 0.0
C599 C 0.10433 0.92133 0.63124 0.0
C600 C 0.09346 0.95414 0.60183 0.0
C601 C 0.14207 0.97752 0.61217 0.0
C602 C 0.08391 0.97783 0.60467 0.0
C603 C 0.06992 0.98831 0.58594 0.0
C604 C 0.06497 0.97509 0.56431 0.0
C605 C 0.07379 0.95107 0.56199 0.0
C606 C 0.0878 0.94067 0.5806 0.0
H607 H 0.16214 0.98068 0.61381 0.0
H608 H 0.13714 0.97739 0.59241 0.0
H609 H 0.13258 0.99316 0.62102 0.0
H610 H 0.08779 0.98844 0.62105 0.0
H611 H 0.06377 0.00702 0.58802 0.0
H612 H 0.819 0.39329 0.87176 0.0
H613 H 0.85232 0.41305 0.89442 0.0
H614 H 0.90463 0.36581 0.85892 0.0
H615 H 0.8713 0.34598 0.8358 0.0
H616 H 0.88882 0.3811 0.92508 0.0
H617 H 0.92985 0.44219 0.85412 0.0
H618 H 0.89775 0.43387 0.85311 0.0
H619 H 0.92054 0.41134 0.84632 0.0
C620 C 0.83761 0.38736 0.86838 0.0
C621 C 0.8425 0.36809 0.85191 0.0
C622 C 0.8566 0.39861 0.88143 0.0
C623 C 0.88087 0.39098 0.87816 0.0
C624 C 0.88599 0.37205 0.8615 0.0
H625 H 0.00554 0.45675 0.95884 0.0
H626 H 0.98249 0.43261 0.92826 0.0
C627 C 0.86694 0.36065 0.84848 0.0
C628 C 0.90036 0.40185 0.89362 0.0
H629 H 0.94461 0.44635 0.89457 0.0
C630 C 0.90124 0.39515 0.91838 0.0
C631 C 0.91669 0.41989 0.88467 0.0
C632 C 0.91635 0.42742 0.85811 0.0
C633 C 0.91743 0.40672 0.93471 0.0
C634 C 0.93269 0.42592 0.92616 0.0
C635 C 0.93274 0.43176 0.90109 0.0
C636 C 0.94693 0.44141 0.94345 0.0
C637 C 0.91776 0.39852 0.96111 0.0
C638 C 0.93455 0.45476 0.96162 0.0
C639 C 0.94759 0.46856 0.97882 0.0
C640 C 0.97326 0.46964 0.97792 0.0
C641 C 0.98572 0.45665 0.95949 0.0
C642 C 0.97261 0.44275 0.9422 0.0
H643 H 0.91128 0.37928 0.96293 0.0
H644 H 0.93644 0.40003 0.96904 0.0
H645 H 0.90529 0.4103 0.97202 0.0
H646 H 0.91472 0.45434 0.96263 0.0
H647 H 0.93757 0.47845 0.99285 0.0
H648 H 0.70042 0.68914 0.38277 0.0
H649 H 0.66711 0.66569 0.40164 0.0
H650 H 0.67226 0.61146 0.34419 0.0
H651 H 0.70592 0.63471 0.32529 0.0
H652 H 0.62029 0.64912 0.37924 0.0
H653 H 0.68051 0.57326 0.41052 0.0
H654 H 0.69267 0.60291 0.40218 0.0
H655 H 0.68221 0.58215 0.37881 0.0
C656 C 0.69455 0.67218 0.37418 0.0
C657 C 0.70596 0.66368 0.35265 0.0
C658 C 0.6754 0.6589 0.38488 0.0
C659 C 0.66738 0.63677 0.3744 0.0
C660 C 0.67834 0.62842 0.35265 0.0
H661 H 0.56769 0.53441 0.45018 0.0
H662 H 0.5922 0.55258 0.41697 0.0
C663 C 0.69744 0.64179 0.34181 0.0
C664 C 0.64801 0.6223 0.38685 0.0
H665 H 0.63931 0.57192 0.42279 0.0
C666 C 0.62433 0.63208 0.38852 0.0
C667 C 0.6533 0.59997 0.39872 0.0
C668 C 0.67854 0.58887 0.39769 0.0
C669 C 0.60599 0.62048 0.40243 0.0
C670 C 0.61169 0.59891 0.41547 0.0
C671 C 0.63501 0.58849 0.41281 0.0
C672 C 0.59475 0.5884 0.43399 0.0
C673 C 0.58076 0.63159 0.40333 0.0
C674 C 0.58808 0.60248 0.45451 0.0
C675 C 0.57416 0.59218 0.47335 0.0
C676 C 0.56652 0.56762 0.47203 0.0
C677 C 0.57296 0.55353 0.45139 0.0
C678 C 0.58701 0.56385 0.43251 0.0
H679 H 0.57709 0.64276 0.38676 0.0
H680 H 0.56636 0.61721 0.40487 0.0
H681 H 0.57942 0.64382 0.41957 0.0
H682 H 0.59436 0.62125 0.45635 0.0
H683 H 0.56966 0.60336 0.48918 0.0
H684 H 0.17425 0.30969 0.13437 0.0
H685 H 0.15396 0.34153 0.11054 0.0
H686 H 0.17966 0.39631 0.16184 0.0
H687 H 0.2007 0.36451 0.18525 0.0
H688 H 0.11766 0.36807 0.12561 0.0
H689 H 0.19245 0.43134 0.09865 0.0
H690 H 0.19825 0.4012 0.11079 0.0
H691 H 0.19163 0.42639 0.13113 0.0
C692 C 0.17583 0.32859 0.14034 0.0
C693 C 0.18896 0.33466 0.16167 0.0
C694 C 0.16432 0.34678 0.12669 0.0
C695 C 0.16547 0.37142 0.13418 0.0
C696 C 0.17902 0.37758 0.15525 0.0
H697 H 0.04999 0.47357 0.10343 0.0
H698 H 0.08101 0.44755 0.12221 0.0
C699 C 0.19089 0.35938 0.16873 0.0
C700 C 0.15032 0.39003 0.12144 0.0
H701 H 0.15147 0.4468 0.09507 0.0
C702 C 0.12519 0.38516 0.11875 0.0
C703 C 0.16008 0.41229 0.11222 0.0
C704 C 0.18713 0.41802 0.1131 0.0
C705 C 0.10949 0.40196 0.10758 0.0
C706 C 0.11897 0.42474 0.09956 0.0
C707 C 0.14419 0.42949 0.10161 0.0
C708 C 0.10266 0.44368 0.08915 0.0
C709 C 0.08288 0.39497 0.10426 0.0
C710 C 0.10533 0.45131 0.06471 0.0
C711 C 0.0877 0.46644 0.054 0.0
C712 C 0.06728 0.4742 0.06765 0.0
C713 C 0.06545 0.46765 0.09246 0.0
C714 C 0.08311 0.45276 0.10318 0.0
H715 H 0.08019 0.37478 0.10473 0.0
H716 H 0.07194 0.40303 0.11942 0.0
H717 H 0.07562 0.40194 0.08662 0.0
H718 H 0.12037 0.44461 0.05362 0.0
H719 H 0.08941 0.47108 0.03478 0.0
H720 H 0.69578 0.17973 0.84715 0.0
H721 H 0.67341 0.1472 0.86876 0.0
H722 H 0.6443 0.20072 0.91923 0.0
H723 H 0.66607 0.23328 0.89736 0.0
H724 H 0.67254 0.13 0.9159 0.0
H725 H 0.58265 0.16997 0.89194 0.0
H726 H 0.61094 0.18055 0.87844 0.0
H727 H 0.60189 0.19104 0.90845 0.0
C728 C 0.68477 0.18447 0.863 0.0
C729 C 0.68236 0.20905 0.87039 0.0
C730 C 0.67201 0.1659 0.87531 0.0
C731 C 0.65674 0.1716 0.89527 0.0
C732 C 0.6554 0.19598 0.90346 0.0
H733 H 0.58717 0.07238 0.9993 0.0
H734 H 0.61662 0.09858 0.97763 0.0
C735 C 0.66788 0.21455 0.891 0.0
C736 C 0.64141 0.15231 0.90691 0.0
H737 H 0.58222 0.13796 0.92124 0.0
C738 C 0.65277 0.13161 0.91695 0.0
C739 C 0.61558 0.15421 0.90788 0.0
C740 C 0.60202 0.175 0.89588 0.0
C741 C 0.639 0.11302 0.92842 0.0
C742 C 0.61326 0.11552 0.93035 0.0
C743 C 0.60196 0.13605 0.91993 0.0
C744 C 0.59736 0.09723 0.9429 0.0
C745 C 0.65214 0.09084 0.93807 0.0
C746 C 0.57667 0.08779 0.93074 0.0
C747 C 0.55963 0.07334 0.94324 0.0
C748 C 0.56312 0.06768 0.96806 0.0
C749 C 0.58429 0.07622 0.98005 0.0
C750 C 0.60119 0.09107 0.96762 0.0
H751 H 0.66996 0.08804 0.92861 0.0
H752 H 0.65597 0.09364 0.95786 0.0
H753 H 0.64087 0.07397 0.93596 0.0
H754 H 0.57329 0.09226 0.9117 0.0
H755 H 0.54345 0.06695 0.93361 0.0
H756 H 0.88893 0.81261 0.38462 0.0
H757 H 0.90761 0.84618 0.40751 0.0
H758 H 0.84778 0.89338 0.38762 0.0
H759 H 0.82962 0.86019 0.3633 0.0
H760 H 0.88976 0.91659 0.38198 0.0
H761 H 0.89057 0.87355 0.47326 0.0
H762 H 0.90568 0.85425 0.45138 0.0
H763 H 0.8735 0.86071 0.44791 0.0
C764 C 0.87975 0.83015 0.3849 0.0
C765 C 0.85775 0.83362 0.37197 0.0
C766 C 0.89028 0.84925 0.39842 0.0
C767 C 0.87885 0.87219 0.39981 0.0
C768 C 0.85682 0.87576 0.38706 0.0
H769 H 0.95058 0.97742 0.49955 0.0
H770 H 0.91792 0.95317 0.48016 0.0
C771 C 0.84636 0.85669 0.37329 0.0
C772 C 0.89079 0.89272 0.41336 0.0
H773 H 0.91983 0.90652 0.46713 0.0
C774 C 0.89596 0.91454 0.40075 0.0
C775 C 0.89836 0.89044 0.43808 0.0
C776 C 0.89147 0.86857 0.4535 0.0
C777 C 0.90984 0.93339 0.41163 0.0
C778 C 0.91943 0.93005 0.43548 0.0
C779 C 0.91289 0.90895 0.44867 0.0
C780 C 0.93782 0.9471 0.44631 0.0
C781 C 0.91425 0.95662 0.39734 0.0
C782 C 0.95982 0.95183 0.43377 0.0
C783 C 0.97823 0.96601 0.44463 0.0
C784 C 0.97514 0.97564 0.46835 0.0
C785 C 0.95315 0.9709 0.48095 0.0
C786 C 0.93459 0.95685 0.46998 0.0
H787 H 0.899 0.9601 0.38435 0.0
H788 H 0.91626 0.97274 0.40969 0.0
H789 H 0.93128 0.95469 0.38639 0.0
H790 H 0.96313 0.94388 0.41585 0.0
H791 H 0.99512 0.96906 0.4346 0.0
H792 H 0.33224 0.71094 0.63378 0.0
H793 H 0.3507 0.67647 0.61155 0.0
H794 H 0.40437 0.6688 0.66894 0.0
H795 H 0.38582 0.7028 0.6914 0.0
H796 H 0.3994 0.67474 0.5948 0.0
H797 H 0.38004 0.59827 0.65844 0.0
H798 H 0.36381 0.627 0.65979 0.0
H799 H 0.3937 0.62433 0.67337 0.0
C800 C 0.34771 0.70161 0.64184 0.0
C801 C 0.35761 0.70961 0.66432 0.0
C802 C 0.35828 0.68201 0.62909 0.0
C803 C 0.37868 0.66987 0.63877 0.0
C804 C 0.38835 0.6776 0.66136 0.0
H805 H 0.49443 0.57464 0.60176 0.0
H806 H 0.46261 0.60016 0.62024 0.0
C807 C 0.37791 0.69723 0.67403 0.0
C808 C 0.39114 0.65032 0.6246 0.0
H809 H 0.41224 0.59174 0.62906 0.0
C810 C 0.40185 0.65643 0.60201 0.0
C811 C 0.39424 0.62647 0.63408 0.0
C812 C 0.38214 0.61851 0.65764 0.0
C813 C 0.41685 0.63979 0.58936 0.0
C814 C 0.42083 0.61627 0.5994 0.0
C815 C 0.40921 0.6098 0.62144 0.0
C816 C 0.43881 0.59908 0.58854 0.0
C817 C 0.42939 0.64799 0.56609 0.0
C818 C 0.43575 0.58963 0.56474 0.0
C819 C 0.45404 0.57519 0.55406 0.0
C820 C 0.47544 0.56965 0.56719 0.0
C821 C 0.47809 0.57857 0.59125 0.0
C822 C 0.45989 0.59304 0.60185 0.0
H823 H 0.42802 0.66809 0.56336 0.0
H824 H 0.44906 0.6429 0.56628 0.0
H825 H 0.42066 0.63875 0.55015 0.0
H826 H 0.41948 0.59383 0.55425 0.0
H827 H 0.45176 0.56897 0.53532 0.0
H828 H 0.95176 0.89538 0.76765 0.0
H829 H 0.9694 0.90699 0.72826 0.0
H830 H 0.99891 0.97295 0.76083 0.0
H831 H 0.98265 0.96074 0.80067 0.0
H832 H 0.95707 0.94541 0.70254 0.0
H833 H 0.05651 0.95187 0.72063 0.0
H834 H 0.03554 0.93722 0.74167 0.0
H835 H 0.03932 0.97004 0.74195 0.0
C836 C 0.96263 0.912 0.76669 0.0
C837 C 0.96575 0.92709 0.78747 0.0
C838 C 0.97257 0.9187 0.74405 0.0
C839 C 0.98581 0.94068 0.74158 0.0
C840 C 0.98932 0.9556 0.76233 0.0
H841 H 0.01262 0.04129 0.62721 0.0
H842 H 0.01105 0.01816 0.66555 0.0
C843 C 0.97959 0.94879 0.78506 0.0
C844 C 0.99366 0.94918 0.71691 0.0
H845 H 0.04191 0.97332 0.68483 0.0
C846 C 0.97574 0.95104 0.69856 0.0
C847 C 0.01804 0.95655 0.71166 0.0
C848 C 0.03849 0.95357 0.72997 0.0
C849 C 0.98124 0.96103 0.67555 0.0
C850 C 0.00531 0.96935 0.67071 0.0
C851 C 0.02347 0.9669 0.68869 0.0
C852 C 0.01103 0.98265 0.64784 0.0
C853 C 0.96105 0.96363 0.65686 0.0
C854 C 0.01233 0.97023 0.62529 0.0
C855 C 0.01326 0.98342 0.60334 0.0
C856 C 0.01291 0.00916 0.60373 0.0
C857 C 0.01294 0.02146 0.62642 0.0
C858 C 0.01215 0.0083 0.6483 0.0
H859 H 0.94286 0.95818 0.66427 0.0
H860 H 0.96005 0.98288 0.65044 0.0
H861 H 0.96513 0.95192 0.64068 0.0
H862 H 0.0114 0.95041 0.62464 0.0
H863 H 0.0129 0.97351 0.58609 0.0
H864 H 0.53815 0.12925 0.29777 0.0
H865 H 0.51871 0.11787 0.25883 0.0
H866 H 0.56798 0.05675 0.25172 0.0
H867 H 0.58752 0.06802 0.29034 0.0
H868 H 0.54082 0.11666 0.21436 0.0
H869 H 0.50296 0.025 0.2345 0.0
H870 H 0.51223 0.04612 0.2584 0.0
H871 H 0.53453 0.02698 0.24337 0.0
C872 C 0.54472 0.11328 0.28798 0.0
C873 C 0.56439 0.09952 0.2972 0.0
C874 C 0.53348 0.10672 0.26583 0.0
C875 C 0.54157 0.0862 0.25258 0.0
C876 C 0.56091 0.07222 0.26196 0.0
H877 H 0.56859 0.04997 0.1093 0.0
H878 H 0.56343 0.0685 0.14977 0.0
C879 C 0.57213 0.07874 0.28406 0.0
C880 C 0.53174 0.08065 0.22781 0.0
H881 H 0.51302 0.03292 0.19167 0.0
C882 C 0.53414 0.09853 0.20951 0.0
C883 C 0.52249 0.05719 0.22149 0.0
C884 C 0.51764 0.03784 0.24057 0.0
C885 C 0.52971 0.09286 0.18479 0.0
C886 C 0.52306 0.06865 0.17821 0.0
C887 C 0.51844 0.05142 0.1967 0.0
C888 C 0.52476 0.05988 0.15253 0.0
C889 C 0.53328 0.11257 0.16579 0.0
C890 C 0.50474 0.04867 0.14068 0.0
C891 C 0.50769 0.03809 0.11737 0.0
C892 C 0.53076 0.0384 0.10593 0.0
C893 C 0.55059 0.04981 0.11771 0.0
C894 C 0.5476 0.06053 0.14073 0.0
H895 H 0.52956 0.131 0.17364 0.0
H896 H 0.55259 0.1124 0.15941 0.0
H897 H 0.52117 0.10956 0.1497 0.0
H898 H 0.48705 0.04771 0.14965 0.0
H899 H 0.49226 0.02905 0.10866 0.0
H900 H 0.49017 0.63866 0.24956 0.0
H901 H 0.50933 0.62958 0.28929 0.0
H902 H 0.48353 0.55494 0.28418 0.0
H903 H 0.46412 0.56396 0.24478 0.0
H904 H 0.47773 0.60815 0.33042 0.0
H905 H 0.55923 0.55287 0.30566 0.0
H906 H 0.54602 0.57524 0.28524 0.0
H907 H 0.53161 0.54585 0.28898 0.0
C908 C 0.48904 0.62022 0.25675 0.0
C909 C 0.47565 0.60199 0.24423 0.0
C910 C 0.49993 0.61509 0.27937 0.0
C911 C 0.49801 0.59156 0.28944 0.0
C912 C 0.48545 0.57313 0.27651 0.0
H913 H 0.50926 0.50057 0.40988 0.0
H914 H 0.51162 0.52188 0.37076 0.0
C915 C 0.47427 0.57832 0.25414 0.0
C916 C 0.50658 0.58659 0.31461 0.0
H917 H 0.54474 0.54947 0.34687 0.0
C918 C 0.49274 0.59578 0.33422 0.0
C919 C 0.5261 0.57043 0.31926 0.0
C920 C 0.54179 0.56061 0.29872 0.0
C921 C 0.49663 0.5877 0.35829 0.0
C922 C 0.51544 0.57051 0.36288 0.0
C923 C 0.53036 0.56264 0.34337 0.0
C924 C 0.51747 0.5578 0.3868 0.0
C925 C 0.47932 0.59621 0.37817 0.0
C926 C 0.52064 0.57076 0.4089 0.0
C927 C 0.51869 0.55862 0.4314 0.0
C928 C 0.51438 0.53322 0.43208 0.0
C929 C 0.51261 0.52015 0.40992 0.0
C930 C 0.51412 0.5323 0.38753 0.0
H931 H 0.46299 0.60557 0.37056 0.0
H932 H 0.47293 0.58053 0.38945 0.0
H933 H 0.48898 0.60938 0.39037 0.0
H934 H 0.52373 0.59037 0.40879 0.0
H935 H 0.51962 0.56922 0.44819 0.0
H936 H 0.03692 0.4109 0.74 0.0
H937 H 0.01493 0.4207 0.77803 0.0
H938 H 0.06524 0.4804 0.79174 0.0
H939 H 0.08669 0.47127 0.75358 0.0
H940 H 0.03285 0.41937 0.82414 0.0
H941 H 1.00042 0.51285 0.80567 0.0
H942 H 0.01082 0.49265 0.78152 0.0
H943 H 0.03248 0.5107 0.79892 0.0
C944 C 0.04295 0.42644 0.75088 0.0
C945 C 0.0636 0.44029 0.74378 0.0
C946 C 0.03042 0.43195 0.77264 0.0
C947 C 0.03814 0.45156 0.78753 0.0
C948 C 0.05853 0.46557 0.78027 0.0
H949 H 0.06266 0.48211 0.9301 0.0
H950 H 0.05566 0.46291 0.89027 0.0
C951 C 0.07103 0.46009 0.75861 0.0
C952 C 0.02658 0.45627 0.81175 0.0
H953 H 0.00854 0.50338 0.84876 0.0
C954 C 0.02688 0.43758 0.82937 0.0
C955 C 0.01807 0.47979 0.81852 0.0
C956 C 0.01515 0.50003 0.80003 0.0
C957 C 0.0214 0.44251 0.85406 0.0
C958 C 0.01598 0.46678 0.86131 0.0
C959 C 0.01309 0.48482 0.84329 0.0
C960 C 0.01798 0.47479 0.88724 0.0
C961 C 0.02269 0.42196 0.8724 0.0
C962 C 0.99909 0.48786 0.89891 0.0
C963 C 0.00313 0.49887 0.92187 0.0
C964 C 0.02617 0.49711 0.93315 0.0
C965 C 0.04468 0.48343 0.92181 0.0
C966 C 0.0406 0.4723 0.89915 0.0
H967 H 0.01775 0.40416 0.86372 0.0
H968 H 0.04173 0.42048 0.87932 0.0
H969 H 0.0103 0.42527 0.88823 0.0
H970 H 0.9816 0.49023 0.88989 0.0
H971 H 0.98873 0.50962 0.93026 0.0
H972 H 0.77462 0.93328 0.95157 0.0
H973 H 0.73566 0.95342 0.95973 0.0
H974 H 0.75247 0.0081 0.90537 0.0
H975 H 0.79137 0.98759 0.89641 0.0
H976 H 0.73454 0.02584 0.95415 0.0
H977 H 0.67535 0.95479 0.91132 0.0
H978 H 0.69842 0.94276 0.93138 0.0
H979 H 0.70744 0.95835 0.9038 0.0
C980 C 0.76997 0.94936 0.94103 0.0
C981 C 0.78611 0.95862 0.92313 0.0
C982 C 0.74772 0.96091 0.94581 0.0
C983 C 0.7411 0.98202 0.93291 0.0
C984 C 0.75725 0.99173 0.91542 0.0
H985 H 0.58875 0.01983 0.96547 0.0
H986 H 0.62628 0.01993 0.94054 0.0
C987 C 0.77953 0.98005 0.91045 0.0
C988 C 0.71736 0.9939 0.9383 0.0
H989 H 0.65615 0.98142 0.94053 0.0
C990 C 0.7173 0.01644 0.95072 0.0
C991 C 0.69491 0.98186 0.93339 0.0
C992 C 0.6939 0.9582 0.91903 0.0
C993 C 0.69547 0.02627 0.96015 0.0
C994 C 0.67324 0.01307 0.95717 0.0
C995 C 0.67313 0.99156 0.94295 0.0
C996 C 0.6509 0.01881 0.97163 0.0
C997 C 0.69673 0.05019 0.97402 0.0
C998 C 0.65226 0.01888 0.99733 0.0
C999 C 0.63098 0.019 0.01147 0.0
C1000 C 0.60783 0.01895 1.00026 0.0
C1001 C 0.60637 0.0203 0.97458 0.0
C1002 C 0.62778 0.02019 0.96035 0.0
H1003 H 0.71011 0.06285 0.96528 0.0
H1004 H 0.67867 0.05934 0.97503 0.0
H1005 H 0.70321 0.04667 0.99296 0.0
H1006 H 0.66976 0.01722 0.00651 0.0
H1007 H 0.63262 0.01786 0.03124 0.0
H1008 H 0.74523 0.04847 0.40313 0.0
H1009 H 0.7853 0.03033 0.41218 0.0
H1010 H 0.79655 0.08355 0.46976 0.0
H1011 H 0.75664 0.10149 0.46116 0.0
H1012 H 0.83574 0.079 0.43355 0.0
H1013 H 0.80671 0.99002 0.47441 0.0
H1014 H 0.79337 0.99919 0.44568 0.0
H1015 H 0.78636 0.01598 0.4731 0.0
C1016 C 0.7561 0.05605 0.41796 0.0
C1017 C 0.74783 0.07654 0.43131 0.0
C1018 C 0.77897 0.04569 0.42305 0.0
C1019 C 0.79381 0.05561 0.44164 0.0
C1020 C 0.78539 0.07572 0.45526 0.0
H1021 H 0.9105 0.02917 0.53418 0.0
H1022 H 0.87199 0.02945 0.51148 0.0
C1023 C 0.76263 0.08602 0.45023 0.0
C1024 C 0.81861 0.04598 0.44661 0.0
H1025 H 0.84873 0.99969 0.47551 0.0
C1026 C 0.83873 0.06145 0.44229 0.0
C1027 C 0.82228 0.0231 0.458 0.0
C1028 C 0.80111 0.00602 0.46325 0.0
C1029 C 0.86231 0.05529 0.45028 0.0
C1030 C 0.86588 0.03283 0.46262 0.0
C1031 C 0.84594 0.01677 0.46584 0.0
C1032 C 0.8891 0.02778 0.47569 0.0
C1033 C 0.88285 0.07363 0.44694 0.0
C1034 C 0.91149 0.02579 0.4631 0.0
C1035 C 0.93362 0.02584 0.47611 0.0
C1036 C 0.93356 0.02755 0.50184 0.0
C1037 C 0.91106 0.02788 0.51435 0.0
C1038 C 0.88905 0.0279 0.5014 0.0
H1039 H 0.87616 0.09157 0.44022 0.0
H1040 H 0.8927 0.07667 0.46451 0.0
H1041 H 0.89618 0.06641 0.43337 0.0
H1042 H 0.91189 0.02538 0.44325 0.0
H1043 H 0.95073 0.02582 0.46602 0.0
H1044 H 0.28449 0.59749 0.07895 0.0
H1045 H 0.24403 0.58033 0.07029 0.0
H1046 H 0.25592 0.52363 0.12371 0.0
H1047 H 0.29691 0.54039 0.13213 0.0
H1048 H 0.23464 0.50677 0.07869 0.0
H1049 H 0.18503 0.58621 0.11736 0.0
H1050 H 0.20803 0.59514 0.09554 0.0
H1051 H 0.21699 0.58055 0.12365 0.0
C1052 C 0.2787 0.58118 0.08865 0.0
C1053 C 0.29393 0.57035 0.10628 0.0
C1054 C 0.25544 0.57156 0.08388 0.0
C1055 C 0.24683 0.55101 0.0967 0.0
C1056 C 0.26216 0.53966 0.11381 0.0
H1057 H 0.09047 0.52471 0.06922 0.0
H1058 H 0.12859 0.52358 0.09311 0.0
C1059 C 0.28549 0.54933 0.11866 0.0
C1060 C 0.22175 0.54163 0.09199 0.0
H1061 H 0.16244 0.56067 0.08916 0.0
C1062 C 0.21875 0.51832 0.0814 0.0
C1063 C 0.20096 0.55642 0.09615 0.0
C1064 C 0.20283 0.58087 0.10905 0.0
C1065 C 0.19571 0.51031 0.07301 0.0
C1066 C 0.1754 0.52618 0.07498 0.0
C1067 C 0.17807 0.54859 0.08741 0.0
C1068 C 0.15233 0.52176 0.06132 0.0
C1069 C 0.19345 0.48525 0.06146 0.0
C1070 C 0.15304 0.52069 0.03562 0.0
C1071 C 0.13143 0.52142 0.02205 0.0
C1072 C 0.10865 0.52315 0.03391 0.0
C1073 C 0.1078 0.52304 0.05966 0.0
C1074 C 0.12952 0.52245 0.07329 0.0
H1075 H 0.20722 0.47248 0.06912 0.0
H1076 H 0.17486 0.47735 0.06425 0.0
H1077 H 0.19686 0.48673 0.04145 0.0
H1078 H 0.1704 0.52075 0.02597 0.0
H1079 H 0.13259 0.52155 0.00221 0.0
H1080 H 0.24568 0.49636 0.6362 0.0
H1081 H 0.28574 0.51469 0.62657 0.0
H1082 H 0.29453 0.46362 0.56673 0.0
H1083 H 0.2546 0.44553 0.57587 0.0
H1084 H 0.33469 0.46667 0.60253 0.0
H1085 H 0.30649 0.55695 0.56479 0.0
H1086 H 0.29327 0.54679 0.59333 0.0
H1087 H 0.28582 0.53099 0.56543 0.0
C1088 C 0.25599 0.4893 0.62075 0.0
C1089 C 0.24702 0.46934 0.60691 0.0
C1090 C 0.27887 0.49977 0.61532 0.0
C1091 C 0.29302 0.49049 0.59594 0.0
C1092 C 0.2839 0.47096 0.58184 0.0
H1093 H 0.40938 0.51816 0.5024 0.0
H1094 H 0.37099 0.518 0.52542 0.0
C1095 C 0.26113 0.46055 0.58718 0.0
C1096 C 0.31789 0.50011 0.59069 0.0
H1097 H 0.34833 0.54704 0.56251 0.0
C1098 C 0.33782 0.48443 0.59422 0.0
C1099 C 0.32176 0.52327 0.57983 0.0
C1100 C 0.30078 0.54057 0.57545 0.0
C1101 C 0.36139 0.49072 0.58602 0.0
C1102 C 0.36515 0.51351 0.57425 0.0
C1103 C 0.34541 0.52971 0.57176 0.0
C1104 C 0.38834 0.51885 0.56107 0.0
C1105 C 0.38169 0.47221 0.58853 0.0
C1106 C 0.41085 0.52045 0.57349 0.0
C1107 C 0.4329 0.52037 0.5603 0.0
C1108 C 0.43266 0.51898 0.53456 0.0
C1109 C 0.41008 0.51919 0.52223 0.0
C1110 C 0.38814 0.51923 0.53536 0.0
H1111 H 0.37481 0.45411 0.59484 0.0
H1112 H 0.39128 0.46963 0.57074 0.0
H1113 H 0.39529 0.47899 0.6021 0.0
H1114 H 0.41137 0.52045 0.59335 0.0
H1115 H 0.45006 0.51997 0.57025 0.0
H1116 H 0.91183 0.76369 0.94466 0.0
H1117 H 0.92682 0.72681 0.96472 0.0
H1118 H 0.96917 0.77124 0.01488 0.0
H1119 H 0.95456 0.80836 0.99448 0.0
H1120 H 0.99658 0.73649 0.99179 0.0
H1121 H 0.91331 0.69295 0.02972 0.0
H1122 H 0.90907 0.70134 0.99824 0.0
H1123 H 0.91434 0.72484 0.02095 0.0
C1124 C 0.92414 0.76564 0.96013 0.0
C1125 C 0.93215 0.78893 0.96788 0.0
C1126 C 0.93242 0.74454 0.97181 0.0
C1127 C 0.94881 0.74625 0.99157 0.0
C1128 C 0.95629 0.76951 0.99986 0.0
H1129 H 0.01064 0.60542 0.04424 0.0
H1130 H 0.99212 0.64645 0.04744 0.0
C1131 C 0.9479 0.79069 0.98822 0.0
C1132 C 0.96036 0.72372 0.00123 0.0
H1133 H 0.94698 0.66544 0.01983 0.0
C1134 C 0.9858 0.72118 0.99853 0.0
C1135 C 0.94639 0.7038 0.01035 0.0
C1136 C 0.91929 0.70595 0.01524 0.0
C1137 C 0.99729 0.69868 0.00272 0.0
C1138 C 0.98295 0.67819 0.00957 0.0
C1139 C 0.95787 0.68116 0.01427 0.0
C1140 C 0.99308 0.65315 0.00835 0.0
C1141 C 0.02454 0.69664 0.99859 0.0
C1142 C 0.99925 0.64334 0.98539 0.0
C1143 C 0.00924 0.61999 0.98354 0.0
C1144 C 0.01315 0.60587 0.00463 0.0
C1145 C 0.00701 0.61565 0.02769 0.0
C1146 C 0.99675 0.63911 0.02954 0.0
H1147 H 0.03378 0.71477 1.00004 0.0
H1148 H 0.03291 0.68393 0.012 0.0
H1149 H 0.02791 0.68928 0.97989 0.0
H1150 H 0.99635 0.65383 0.96883 0.0
H1151 H 0.01387 0.61292 0.96553 0.0
H1152 H 0.40454 0.74999 0.05259 0.0
H1153 H 0.41575 0.78981 0.0349 0.0
H1154 H 0.47224 0.79867 0.08947 0.0
H1155 H 0.46153 0.75896 0.10694 0.0
H1156 H 0.43844 0.83943 0.08401 0.0
H1157 H 0.47997 0.80824 0.9959 0.0
H1158 H 0.45031 0.79629 0.0043 0.0
H1159 H 0.47671 0.78808 0.02191 0.0
C1160 C 0.41955 0.76029 0.06061 0.0
C1161 C 0.43203 0.75136 0.0813 0.0
C1162 C 0.42589 0.78303 0.0505 0.0
C1163 C 0.44485 0.79709 0.06087 0.0
C1164 C 0.45748 0.7881 0.08128 0.0
H1165 H 0.54114 0.91287 0.03266 0.0
H1166 H 0.51827 0.87434 0.03483 0.0
C1167 C 0.45122 0.76546 0.09133 0.0
C1168 C 0.45132 0.8216 0.05124 0.0
H1169 H 0.48209 0.85038 0.00491 0.0
C1170 C 0.44761 0.84196 0.06653 0.0
C1171 C 0.46331 0.82469 0.02847 0.0
C1172 C 0.468 0.80323 0.01162 0.0
C1173 C 0.45656 0.86522 0.06019 0.0
C1174 C 0.4693 0.86821 0.03776 0.0
C1175 C 0.47213 0.84803 0.02197 0.0
C1176 C 0.48262 0.89125 0.03221 0.0
C1177 C 0.45362 0.88607 0.07822 0.0
C1178 C 0.47015 0.91347 0.02922 0.0
C1179 C 0.48321 0.93559 0.02821 0.0
C1180 C 0.50892 0.93571 0.02981 0.0
C1181 C 0.52134 0.91331 0.03141 0.0
C1182 C 0.50831 0.89128 0.0325 0.0
H1183 H 0.44665 0.87975 0.09629 0.0
H1184 H 0.47137 0.89568 0.0811 0.0
H1185 H 0.44041 0.89951 0.07077 0.0
H1186 H 0.45031 0.91379 0.02874 0.0
H1187 H 0.47316 0.95261 0.02737 0.0
H1188 H 0.11629 0.30537 0.53578 0.0
H1189 H 0.103 0.26678 0.51635 0.0
H1190 H 0.06779 0.24532 0.58394 0.0
H1191 H 0.07987 0.28423 0.60275 0.0
H1192 H 0.11119 0.2204 0.52401 0.0
H1193 H 0.01252 0.23532 0.53803 0.0
H1194 H 0.03481 0.25923 0.54342 0.0
H1195 H 0.02776 0.23717 0.56702 0.0
C1196 C 0.10556 0.29238 0.5463 0.0
C1197 C 0.0987 0.2978 0.57056 0.0
C1198 C 0.09802 0.27037 0.53526 0.0
C1199 C 0.08377 0.25339 0.54844 0.0
C1200 C 0.0779 0.25848 0.57304 0.0
H1201 H 0.06623 0.09964 0.53753 0.0
H1202 H 0.08356 0.14102 0.53663 0.0
C1203 C 0.08494 0.28062 0.58386 0.0
C1204 C 0.07514 0.23019 0.53687 0.0
H1205 H 0.02491 0.19312 0.53316 0.0
C1206 C 0.09223 0.21457 0.5256 0.0
C1207 C 0.05026 0.22285 0.53798 0.0
C1208 C 0.0303 0.23971 0.547 0.0
C1209 C 0.08536 0.19118 0.51699 0.0
C1210 C 0.06103 0.18282 0.52074 0.0
C1211 C 0.0437 0.19913 0.53056 0.0
C1212 C 0.05325 0.15692 0.5166 0.0
C1213 C 0.10424 0.17582 0.50391 0.0
C1214 C 0.03052 0.15176 0.50553 0.0
C1215 C 0.02023 0.12834 0.50701 0.0
C1216 C 0.03285 0.10949 0.51881 0.0
C1217 C 0.0564 0.11395 0.52805 0.0
C1218 C 0.06639 0.13759 0.52729 0.0
H1219 H 0.11739 0.18758 0.49369 0.0
H1220 H 0.11491 0.16535 0.5176 0.0
H1221 H 0.09561 0.16276 0.49082 0.0
H1222 H 0.02002 0.16623 0.49706 0.0
H1223 H 0.00197 0.12519 0.49984 0.0
H1224 H 0.61448 0.2404 0.501 0.0
H1225 H 0.59887 0.2776 0.52057 0.0
H1226 H 0.57346 0.30326 0.45043 0.0
H1227 H 0.58696 0.26558 0.43115 0.0
H1228 H 0.60854 0.32491 0.5163 0.0
H1229 H 0.5124 0.30975 0.48952 0.0
H1230 H 0.53531 0.28634 0.48586 0.0
H1231 H 0.53131 0.30948 0.46267 0.0
C1232 C 0.60516 0.25373 0.48978 0.0
C1233 C 0.60186 0.2497 0.46443 0.0
C1234 C 0.59648 0.27514 0.501 0.0
C1235 C 0.58445 0.29299 0.48709 0.0
C1236 C 0.58201 0.28945 0.46171 0.0
H1237 H 0.56446 0.44583 0.50373 0.0
H1238 H 0.58199 0.40471 0.50444 0.0
C1239 C 0.59022 0.26797 0.45059 0.0
C1240 C 0.57437 0.31543 0.49876 0.0
H1241 H 0.52385 0.3517 0.49825 0.0
C1242 C 0.58988 0.33063 0.51275 0.0
C1243 C 0.54978 0.32254 0.49501 0.0
C1244 C 0.53121 0.30598 0.48271 0.0
C1245 C 0.5819 0.3535 0.52159 0.0
C1246 C 0.55814 0.36175 0.51541 0.0
C1247 C 0.54223 0.34578 0.50278 0.0
C1248 C 0.5497 0.38728 0.51994 0.0
C1249 C 0.59903 0.36845 0.53745 0.0
C1250 C 0.52579 0.39148 0.52858 0.0
C1251 C 0.51549 0.41478 0.52716 0.0
C1252 C 0.52918 0.43445 0.51787 0.0
C1253 C 0.55371 0.43086 0.51119 0.0
C1254 C 0.5638 0.40737 0.51186 0.0
H1255 H 0.61094 0.35638 0.54858 0.0
H1256 H 0.61118 0.37963 0.52555 0.0
H1257 H 0.58888 0.38084 0.55002 0.0
H1258 H 0.51453 0.37642 0.53504 0.0
H1259 H 0.49651 0.41726 0.53242 0.0
loop_
_geom_bond_atom_site_label_1
_geom_bond_atom_site_label_2
_geom_bond_distance
_geom_bond_site_symmetry_2
_ccdc_geom_bond_type
C0 C1 1.386 . S
C0 C2 1.397 . S
C0 H24 0.931 . S
C1 C0 1.386 . S
C1 C5 1.397 . S
C2 C0 1.397 . S
C2 C3 1.384 . S
C2 H25 0.930 . S
C3 C2 1.384 . S
C3 C4 1.377 . S
C3 C6 1.481 . S
C4 C3 1.377 . S
C4 C5 1.389 . S
C4 H26 0.929 . S
C5 C1 1.397 . S
C5 C4 1.389 . S
C5 H27 0.931 . S
C6 C3 1.481 . S
C6 C7 1.387 . S
C6 C11 1.390 . S
C7 C6 1.387 . S
C7 C8 1.401 . S
C7 H28 0.930 . S
C8 C7 1.401 . S
C8 C9 1.376 . S
C8 C17 1.511 . S
C9 C8 1.376 . S
C9 C10 1.392 . S
C9 H30 0.931 . S
C10 C9 1.392 . S
C10 C11 1.361 . S
C10 C12 1.500 . S
C11 C6 1.390 . S
C11 C10 1.361 . S
C11 H29 0.931 . S
C12 C10 1.500 . S
C12 C13 1.371 . S
C12 C14 1.365 . S
C13 C12 1.371 . S
C13 C23 1.386 . S
C13 H31 0.931 . S
C14 C12 1.365 . S
C14 C15 1.409 . S
C14 H32 0.929 . S
C15 C14 1.409 . S
C15 C16 1.380 . S
C15 H33 0.930 . S
C16 C15 1.380 . S
C16 C23 1.357 . S
C17 C8 1.511 . S
C17 C18 1.341 . S
C17 C19 1.371 . S
C18 C17 1.341 . S
C18 C22 1.394 . S
C18 H34 0.930 . S
C19 C17 1.371 . S
C19 C20 1.392 . S
C19 H35 0.931 . S
C20 C19 1.392 . S
C20 C21 1.331 . S
C20 H38 0.932 . S
C21 C20 1.331 . S
C21 C22 1.336 . S
C22 C18 1.394 . S
C22 C21 1.336 . S
C22 H37 0.929 . S
C23 C13 1.386 . S
C23 C16 1.357 . S
C23 H36 0.928 . S
H24 C0 0.931 . S
H25 C2 0.930 . S
H26 C4 0.929 . S
H27 C5 0.931 . S
H28 C7 0.930 . S
H29 C11 0.931 . S
H30 C9 0.931 . S
H31 C13 0.931 . S
H32 C14 0.929 . S
H33 C15 0.930 . S
H34 C18 0.930 . S
H35 C19 0.931 . S
H36 C23 0.928 . S
H37 C22 0.929 . S
H38 C20 0.932 . S
C39 C40 1.386 . S
C39 C41 1.397 . S
C39 H63 0.931 . S
C40 C39 1.386 . S
C40 C44 1.397 . S
C41 C39 1.397 . S
C41 C42 1.384 . S
C41 H64 0.930 . S
C42 C41 1.384 . S
C42 C43 1.377 . S
C42 C45 1.481 . S
C43 C42 1.377 . S
C43 C44 1.389 . S
C43 H65 0.929 . S
C44 C40 1.397 . S
C44 C43 1.389 . S
C44 H66 0.931 . S
C45 C42 1.481 . S
C45 C46 1.387 . S
C45 C50 1.390 . S
C46 C45 1.387 . S
C46 C47 1.401 . S
C46 H67 0.930 . S
C47 C46 1.401 . S
C47 C48 1.376 . S
C47 C56 1.511 . S
C48 C47 1.376 . S
C48 C49 1.392 . S
C48 H69 0.931 . S
C49 C48 1.392 . S
C49 C50 1.361 . S
C49 C51 1.500 . S
C50 C45 1.390 . S
C50 C49 1.361 . S
C50 H68 0.931 . S
C51 C49 1.500 . S
C51 C52 1.371 . S
C51 C53 1.365 . S
C52 C51 1.371 . S
C52 C62 1.386 . S
C52 H70 0.931 . S
C53 C51 1.365 . S
C53 C54 1.409 . S
C53 H71 0.929 . S
C54 C53 1.409 . S
C54 C55 1.380 . S
C54 H72 0.930 . S
C55 C54 1.380 . S
C55 C62 1.357 . S
C56 C47 1.511 . S
C56 C57 1.341 . S
C56 C58 1.371 . S
C57 C56 1.341 . S
C57 C61 1.394 . S
C57 H73 0.930 . S
C58 C56 1.371 . S
C58 C59 1.392 . S
C58 H74 0.931 . S
C59 C58 1.392 . S
C59 C60 1.331 . S
C59 H77 0.932 . S
C60 C59 1.331 . S
C60 C61 1.336 . S
C61 C57 1.394 . S
C61 C60 1.336 . S
C61 H76 0.929 . S
C62 C52 1.386 . S
C62 C55 1.357 . S
C62 H75 0.928 . S
H63 C39 0.931 . S
H64 C41 0.930 . S
H65 C43 0.929 . S
H66 C44 0.931 . S
H67 C46 0.930 . S
H68 C50 0.931 . S
H69 C48 0.931 . S
H70 C52 0.931 . S
H71 C53 0.929 . S
H72 C54 0.930 . S
H73 C57 0.930 . S
H74 C58 0.931 . S
H75 C62 0.928 . S
H76 C61 0.929 . S
H77 C59 0.932 . S
C78 C79 1.386 . S
C78 C80 1.397 . S
C78 H102 0.931 . S
C79 C78 1.386 . S
C79 C83 1.397 . S
C80 C78 1.397 . S
C80 C81 1.384 . S
C80 H103 0.930 . S
C81 C80 1.384 . S
C81 C82 1.377 . S
C81 C84 1.481 . S
C82 C81 1.377 . S
C82 C83 1.389 . S
C82 H104 0.929 . S
C83 C79 1.397 . S
C83 C82 1.389 . S
C83 H105 0.931 . S
C84 C81 1.481 . S
C84 C85 1.387 . S
C84 C89 1.390 . S
C85 C84 1.387 . S
C85 C86 1.401 . S
C85 H106 0.930 . S
C86 C85 1.401 . S
C86 C87 1.376 . S
C86 C95 1.511 . S
C87 C86 1.376 . S
C87 C88 1.392 . S
C87 H108 0.931 . S
C88 C87 1.392 . S
C88 C89 1.361 . S
C88 C90 1.500 . S
C89 C84 1.390 . S
C89 C88 1.361 . S
C89 H107 0.931 . S
C90 C88 1.500 . S
C90 C91 1.371 . S
C90 C92 1.365 . S
C91 C90 1.371 . S
C91 C101 1.386 . S
C91 H109 0.931 . S
C92 C90 1.365 . S
C92 C93 1.409 . S
C92 H110 0.929 . S
C93 C92 1.409 . S
C93 C94 1.380 . S
C93 H111 0.930 . S
C94 C93 1.380 . S
C94 C101 1.357 . S
C95 C86 1.511 . S
C95 C96 1.341 . S
C95 C97 1.371 . S
C96 C95 1.341 . S
C96 C100 1.394 . S
C96 H112 0.930 . S
C97 C95 1.371 . S
C97 C98 1.392 . S
C97 H113 0.931 . S
C98 C97 1.392 . S
C98 C99 1.331 . S
C98 H116 0.932 . S
C99 C98 1.331 . S
C99 C100 1.336 . S
C100 C96 1.394 . S
C100 C99 1.336 . S
C100 H115 0.929 . S
C101 C91 1.386 . S
C101 C94 1.357 . S
C101 H114 0.928 . S
H102 C78 0.931 . S
H103 C80 0.930 . S
H104 C82 0.929 . S
H105 C83 0.931 . S
H106 C85 0.930 . S
H107 C89 0.931 . S
H108 C87 0.931 . S
H109 C91 0.931 . S
H110 C92 0.929 . S
H111 C93 0.930 . S
H112 C96 0.930 . S
H113 C97 0.931 . S
H114 C101 0.928 . S
H115 C100 0.929 . S
H116 C98 0.932 . S
C117 C118 1.386 . S
C117 C119 1.397 . S
C117 H141 0.931 . S
C118 C117 1.386 . S
C118 C122 1.397 . S
C119 C117 1.397 . S
C119 C120 1.384 . S
C119 H142 0.930 . S
C120 C119 1.384 . S
C120 C121 1.377 . S
C120 C123 1.481 . S
C121 C120 1.377 . S
C121 C122 1.389 . S
C121 H143 0.929 . S
C122 C118 1.397 . S
C122 C121 1.389 . S
C122 H144 0.931 . S
C123 C120 1.481 . S
C123 C124 1.387 . S
C123 C128 1.390 . S
C124 C123 1.387 . S
C124 C125 1.401 . S
C124 H145 0.930 . S
C125 C124 1.401 . S
C125 C126 1.376 . S
C125 C134 1.511 . S
C126 C125 1.376 . S
C126 C127 1.392 . S
C126 H147 0.931 . S
C127 C126 1.392 . S
C127 C128 1.361 . S
C127 C129 1.500 . S
C128 C123 1.390 . S
C128 C127 1.361 . S
C128 H146 0.931 . S
C129 C127 1.500 . S
C129 C130 1.371 . S
C129 C131 1.365 . S
C130 C129 1.371 . S
C130 C140 1.386 . S
C130 H148 0.931 . S
C131 C129 1.365 . S
C131 C132 1.409 . S
C131 H149 0.929 . S
C132 C131 1.409 . S
C132 C133 1.380 . S
C132 H150 0.930 . S
C133 C132 1.380 . S
C133 C140 1.357 . S
C134 C125 1.511 . S
C134 C135 1.341 . S
C134 C136 1.371 . S
C135 C134 1.341 . S
C135 C139 1.394 . S
C135 H151 0.930 . S
C136 C134 1.371 . S
C136 C137 1.392 . S
C136 H152 0.931 . S
C137 C136 1.392 . S
C137 C138 1.331 . S
C137 H155 0.932 . S
C138 C137 1.331 . S
C138 C139 1.336 . S
C139 C135 1.394 . S
C139 C138 1.336 . S
C139 H154 0.929 . S
C140 C130 1.386 . S
C140 C133 1.357 . S
C140 H153 0.928 . S
H141 C117 0.931 . S
H142 C119 0.930 . S
H143 C121 0.929 . S
H144 C122 0.931 . S
H145 C124 0.930 . S
H146 C128 0.931 . S
H147 C126 0.931 . S
H148 C130 0.931 . S
H149 C131 0.929 . S
H150 C132 0.930 . S
H151 C135 0.930 . S
H152 C136 0.931 . S
H153 C140 0.928 . S
H154 C139 0.929 . S
H155 C137 0.932 . S
C156 C157 1.386 . S
C156 C158 1.397 . S
C156 H180 0.931 . S
C157 C156 1.386 . S
C157 C161 1.397 . S
C158 C156 1.397 . S
C158 C159 1.384 . S
C158 H181 0.930 . S
C159 C158 1.384 . S
C159 C160 1.377 . S
C159 C162 1.481 . S
C160 C159 1.377 . S
C160 C161 1.389 . S
C160 H182 0.929 . S
C161 C157 1.397 . S
C161 C160 1.389 . S
C161 H183 0.931 1_565 S
C162 C159 1.481 . S
C162 C163 1.387 . S
C162 C167 1.390 . S
C163 C162 1.387 . S
C163 C164 1.401 . S
C163 H184 0.930 . S
C164 C163 1.401 . S
C164 C165 1.376 . S
C164 C173 1.511 . S
C165 C164 1.376 . S
C165 C166 1.392 . S
C165 H186 0.931 . S
C166 C165 1.392 . S
C166 C167 1.361 . S
C166 C168 1.500 . S
C167 C162 1.390 . S
C167 C166 1.361 . S
C167 H185 0.931 . S
C168 C166 1.500 . S
C168 C169 1.371 . S
C168 C170 1.365 . S
C169 C168 1.371 . S
C169 C179 1.386 . S
C169 H187 0.931 . S
C170 C168 1.365 . S
C170 C171 1.409 . S
C170 H188 0.929 . S
C171 C170 1.409 . S
C171 C172 1.380 . S
C171 H189 0.930 1_565 S
C172 C171 1.380 . S
C172 C179 1.357 . S
C173 C164 1.511 . S
C173 C174 1.341 . S
C173 C175 1.371 . S
C174 C173 1.341 . S
C174 C178 1.394 . S
C174 H190 0.930 . S
C175 C173 1.371 . S
C175 C176 1.392 . S
C175 H191 0.931 . S
C176 C175 1.392 . S
C176 C177 1.331 . S
C176 H194 0.907 1_556 S
C177 C176 1.331 . S
C177 C178 1.336 . S
C178 C174 1.394 . S
C178 C177 1.336 . S
C178 H193 0.929 . S
C179 C169 1.386 . S
C179 C172 1.357 . S
C179 H192 0.928 . S
H180 C156 0.931 . S
H181 C158 0.930 . S
H182 C160 0.929 . S
H183 C161 0.931 1_545 S
H184 C163 0.930 . S
H185 C167 0.931 . S
H186 C165 0.931 . S
H187 C169 0.931 . S
H188 C170 0.929 . S
H189 C171 0.930 1_545 S
H190 C174 0.930 . S
H191 C175 0.931 . S
H192 C179 0.928 . S
H193 C178 0.929 . S
H194 C176 0.907 1_554 S
C195 C196 1.386 . S
C195 C197 1.397 . S
C195 H219 0.931 . S
C196 C195 1.386 . S
C196 C200 1.397 . S
C197 C195 1.397 . S
C197 C198 1.384 . S
C197 H220 0.930 . S
C198 C197 1.384 . S
C198 C199 1.377 . S
C198 C201 1.481 . S
C199 C198 1.377 . S
C199 C200 1.389 . S
C199 H221 0.929 . S
C200 C196 1.397 . S
C200 C199 1.389 . S
C200 H222 0.931 . S
C201 C198 1.481 . S
C201 C202 1.387 . S
C201 C206 1.390 . S
C202 C201 1.387 . S
C202 C203 1.401 . S
C202 H223 0.930 . S
C203 C202 1.401 . S
C203 C204 1.376 . S
C203 C212 1.511 . S
C204 C203 1.376 . S
C204 C205 1.392 . S
C204 H225 0.931 . S
C205 C204 1.392 . S
C205 C206 1.361 . S
C205 C207 1.500 . S
C206 C201 1.390 . S
C206 C205 1.361 . S
C206 H224 0.931 . S
C207 C205 1.500 . S
C207 C208 1.371 . S
C207 C209 1.365 . S
C208 C207 1.371 . S
C208 C218 1.386 . S
C208 H226 0.931 . S
C209 C207 1.365 . S
C209 C210 1.409 . S
C209 H227 0.929 . S
C210 C209 1.409 . S
C210 C211 1.380 . S
C210 H228 0.930 . S
C211 C210 1.380 . S
C211 C218 1.357 . S
C212 C203 1.511 . S
C212 C213 1.341 . S
C212 C214 1.371 . S
C213 C212 1.341 . S
C213 C217 1.394 . S
C213 H229 0.930 . S
C214 C212 1.371 . S
C214 C215 1.392 . S
C214 H230 0.931 . S
C215 C214 1.392 . S
C215 C216 1.331 . S
C215 H233 0.932 . S
C216 C215 1.331 . S
C216 C217 1.336 . S
C217 C213 1.394 . S
C217 C216 1.336 . S
C217 H232 0.929 . S
C218 C208 1.386 . S
C218 C211 1.357 . S
C218 H231 0.928 . S
H219 C195 0.931 . S
H220 C197 0.930 . S
H221 C199 0.929 . S
H222 C200 0.931 . S
H223 C202 0.930 . S
H224 C206 0.931 . S
H225 C204 0.931 . S
H226 C208 0.931 . S
H227 C209 0.929 . S
H228 C210 0.930 . S
H229 C213 0.930 . S
H230 C214 0.931 . S
H231 C218 0.928 . S
H232 C217 0.929 . S
H233 C215 0.932 . S
C234 C235 1.386 . S
C234 C236 1.397 . S
C234 H258 0.931 . S
C235 C234 1.386 . S
C235 C239 1.397 . S
C236 C234 1.397 . S
C236 C237 1.384 . S
C236 H259 0.930 . S
C237 C236 1.384 . S
C237 C238 1.377 . S
C237 C240 1.481 . S
C238 C237 1.377 . S
C238 C239 1.389 . S
C238 H260 0.929 . S
C239 C235 1.397 . S
C239 C238 1.389 . S
C239 H261 0.931 . S
C240 C237 1.481 . S
C240 C241 1.387 . S
C240 C245 1.390 . S
C241 C240 1.387 . S
C241 C242 1.401 . S
C241 H262 0.930 . S
C242 C241 1.401 . S
C242 C243 1.376 . S
C242 C251 1.511 . S
C243 C242 1.376 . S
C243 C244 1.392 . S
C243 H264 0.931 . S
C244 C243 1.392 . S
C244 C245 1.361 . S
C244 C246 1.500 . S
C245 C240 1.390 . S
C245 C244 1.361 . S
C245 H263 0.931 . S
C246 C244 1.500 . S
C246 C247 1.371 . S
C246 C248 1.365 . S
C247 C246 1.371 . S
C247 C257 1.386 . S
C247 H265 0.931 . S
C248 C246 1.365 . S
C248 C249 1.409 . S
C248 H266 0.929 . S
C249 C248 1.409 . S
C249 C250 1.380 . S
C249 H267 0.930 . S
C250 C249 1.380 . S
C250 C257 1.357 . S
C251 C242 1.511 . S
C251 C252 1.341 . S
C251 C253 1.371 . S
C252 C251 1.341 . S
C252 C256 1.394 . S
C252 H268 0.930 . S
C253 C251 1.371 . S
C253 C254 1.392 . S
C253 H269 0.931 . S
C254 C253 1.392 . S
C254 C255 1.331 . S
C254 H272 0.932 . S
C255 C254 1.331 . S
C255 C256 1.336 . S
C256 C252 1.394 . S
C256 C255 1.336 . S
C256 H271 0.929 . S
C257 C247 1.386 . S
C257 C250 1.357 . S
C257 H270 0.928 . S
H258 C234 0.931 . S
H259 C236 0.930 . S
H260 C238 0.929 . S
H261 C239 0.931 . S
H262 C241 0.930 . S
H263 C245 0.931 . S
H264 C243 0.931 . S
H265 C247 0.931 . S
H266 C248 0.929 . S
H267 C249 0.930 . S
H268 C252 0.930 . S
H269 C253 0.931 . S
H270 C257 0.928 . S
H271 C256 0.929 . S
H272 C254 0.932 . S
C273 C274 1.386 . S
C273 C275 1.397 . S
C273 H297 0.931 . S
C274 C273 1.386 . S
C274 C278 1.397 . S
C275 C273 1.397 . S
C275 C276 1.384 . S
C275 H298 0.930 . S
C276 C275 1.384 . S
C276 C277 1.377 . S
C276 C279 1.481 . S
C277 C276 1.377 . S
C277 C278 1.389 . S
C277 H299 0.929 . S
C278 C274 1.397 . S
C278 C277 1.389 . S
C278 H300 0.931 . S
C279 C276 1.481 . S
C279 C280 1.387 . S
C279 C284 1.390 . S
C280 C279 1.387 . S
C280 C281 1.401 . S
C280 H301 0.930 . S
C281 C280 1.401 . S
C281 C282 1.376 . S
C281 C290 1.511 . S
C282 C281 1.376 . S
C282 C283 1.392 . S
C282 H303 0.931 . S
C283 C282 1.392 . S
C283 C284 1.361 . S
C283 C285 1.500 . S
C284 C279 1.390 . S
C284 C283 1.361 . S
C284 H302 0.931 . S
C285 C283 1.500 . S
C285 C286 1.371 . S
C285 C287 1.365 . S
C286 C285 1.371 . S
C286 C296 1.386 . S
C286 H304 0.931 . S
C287 C285 1.365 . S
C287 C288 1.409 . S
C287 H305 0.929 . S
C288 C287 1.409 . S
C288 C289 1.380 . S
C288 H306 0.930 . S
C289 C288 1.380 . S
C289 C296 1.357 . S
C290 C281 1.511 . S
C290 C291 1.341 . S
C290 C292 1.371 . S
C291 C290 1.341 . S
C291 C295 1.394 . S
C291 H307 0.930 . S
C292 C290 1.371 . S
C292 C293 1.392 . S
C292 H308 0.931 . S
C293 C292 1.392 . S
C293 C294 1.331 . S
C293 H311 0.932 . S
C294 C293 1.331 . S
C294 C295 1.336 . S
C295 C291 1.394 . S
C295 C294 1.336 . S
C295 H310 0.929 . S
C296 C286 1.386 . S
C296 C289 1.357 . S
C296 H309 0.928 . S
H297 C273 0.931 . S
H298 C275 0.930 . S
H299 C277 0.929 . S
H300 C278 0.931 . S
H301 C280 0.930 . S
H302 C284 0.931 . S
H303 C282 0.931 . S
H304 C286 0.931 . S
H305 C287 0.929 . S
H306 C288 0.930 . S
H307 C291 0.930 . S
H308 C292 0.931 . S
H309 C296 0.928 . S
H310 C295 0.929 . S
H311 C293 0.932 . S
Zn312 O318 1.920 . S
Zn312 O324 1.898 . S
Zn312 O327 1.905 . S
Zn313 O321 1.905 1_565 S
Zn313 O322 1.898 . S
Zn313 O330 1.920 . S
Zn314 O317 2.080 1_455 S
Zn314 O320 2.114 . S
Zn314 O323 2.120 1_445 S
Zn314 O325 2.120 . S
Zn314 O326 2.114 1_455 S
Zn314 O329 2.080 . S
C315 O320 1.166 . S
C315 O321 1.182 . S
C316 O322 1.167 1_655 S
C316 O323 1.299 . S
O317 Zn314 2.080 1_655 S
O317 C331 1.305 . S
O318 Zn312 1.920 . S
O318 C331 1.234 . S
C319 O324 1.167 1_455 S
C319 O325 1.299 . S
O320 Zn314 2.114 . S
O320 C315 1.166 . S
O321 Zn313 1.905 1_545 S
O321 C315 1.182 . S
O322 Zn313 1.898 . S
O322 C316 1.167 1_455 S
O323 Zn314 2.120 1_665 S
O323 C316 1.299 . S
O324 Zn312 1.898 . S
O324 C319 1.167 1_655 S
O325 Zn314 2.120 . S
O325 C319 1.299 . S
O326 Zn314 2.114 1_655 S
O326 C328 1.166 . S
O327 Zn312 1.905 . S
O327 C328 1.182 . S
C328 O326 1.166 . S
C328 O327 1.182 . S
O329 Zn314 2.080 . S
O329 C332 1.305 . S
O330 Zn313 1.920 . S
O330 C332 1.234 1_565 S
C331 O317 1.305 . S
C331 O318 1.234 . S
C332 O329 1.305 . S
C332 O330 1.234 1_545 S
Zn333 O339 1.920 1_556 S
Zn333 O345 1.898 . S
Zn333 O348 1.905 . S
Zn334 O342 1.905 . S
Zn334 O343 1.898 . S
Zn334 O351 1.920 . S
Zn335 O338 2.080 . S
Zn335 O341 2.114 1_545 S
Zn335 O344 2.120 1_545 S
Zn335 O346 2.120 . S
Zn335 O347 2.114 1_544 S
Zn335 O350 2.080 . S
C336 O341 1.166 . S
C336 O342 1.182 . S
C337 O343 1.167 . S
C337 O344 1.299 . S
O338 Zn335 2.080 . S
O338 C352 1.305 . S
O339 Zn333 1.920 1_554 S
O339 C352 1.234 . S
C340 O345 1.167 . S
C340 O346 1.299 1_556 S
O341 Zn335 2.114 1_565 S
O341 C336 1.166 . S
O342 Zn334 1.905 . S
O342 C336 1.182 . S
O343 Zn334 1.898 . S
O343 C337 1.167 . S
O344 Zn335 2.120 1_565 S
O344 C337 1.299 . S
O345 Zn333 1.898 . S
O345 C340 1.167 . S
O346 Zn335 2.120 . S
O346 C340 1.299 1_554 S
O347 Zn335 2.114 1_566 S
O347 C349 1.166 . S
O348 Zn333 1.905 . S
O348 C349 1.182 1_545 S
C349 O347 1.166 . S
C349 O348 1.182 1_565 S
O350 Zn335 2.080 . S
O350 C353 1.305 . S
O351 Zn334 1.920 . S
O351 C353 1.234 1_565 S
C352 O338 1.305 . S
C352 O339 1.234 . S
C353 O350 1.305 . S
C353 O351 1.234 1_545 S
Zn354 O360 1.920 . S
Zn354 O366 1.898 . S
Zn354 O369 1.905 . S
Zn355 O363 1.905 . S
Zn355 O364 1.898 . S
Zn355 O372 1.920 . S
Zn356 O359 2.080 . S
Zn356 O362 2.114 . S
Zn356 O365 2.120 . S
Zn356 O367 2.120 . S
Zn356 O368 2.114 . S
Zn356 O371 2.080 . S
C357 O362 1.166 . S
C357 O363 1.182 . S
C358 O364 1.167 . S
C358 O365 1.299 . S
O359 Zn356 2.080 . S
O359 C373 1.305 . S
O360 Zn354 1.920 . S
O360 C373 1.234 . S
C361 O366 1.167 . S
C361 O367 1.299 . S
O362 Zn356 2.114 . S
O362 C357 1.166 . S
O363 Zn355 1.905 . S
O363 C357 1.182 . S
O364 Zn355 1.898 . S
O364 C358 1.167 . S
O365 Zn356 2.120 . S
O365 C358 1.299 . S
O366 Zn354 1.898 . S
O366 C361 1.167 . S
O367 Zn356 2.120 . S
O367 C361 1.299 . S
O368 Zn356 2.114 . S
O368 C370 1.166 . S
O369 Zn354 1.905 . S
O369 C370 1.182 . S
C370 O368 1.166 . S
C370 O369 1.182 . S
O371 Zn356 2.080 . S
O371 C374 1.305 . S
O372 Zn355 1.920 . S
O372 C374 1.234 . S
C373 O359 1.305 . S
C373 O360 1.234 . S
C374 O371 1.305 . S
C374 O372 1.234 . S
Zn375 O381 1.920 . S
Zn375 O387 1.898 . S
Zn375 O390 1.905 . S
Zn376 O384 1.905 1_655 S
Zn376 O385 1.898 . S
Zn376 O393 1.920 . S
Zn377 O380 2.080 1_554 S
Zn377 O383 2.114 . S
Zn377 O386 2.120 1_454 S
Zn377 O388 2.120 . S
Zn377 O389 2.114 1_554 S
Zn377 O392 2.080 . S
C378 O383 1.166 . S
C378 O384 1.182 . S
C379 O385 1.167 1_556 S
C379 O386 1.299 . S
O380 Zn377 2.080 1_556 S
O380 C394 1.305 . S
O381 Zn375 1.920 . S
O381 C394 1.234 . S
C382 O387 1.167 1_554 S
C382 O388 1.299 . S
O383 Zn377 2.114 . S
O383 C378 1.166 . S
O384 Zn376 1.905 1_455 S
O384 C378 1.182 . S
O385 Zn376 1.898 . S
O385 C379 1.167 1_554 S
O386 Zn377 2.120 1_656 S
O386 C379 1.299 . S
O387 Zn375 1.898 . S
O387 C382 1.167 1_556 S
O388 Zn377 2.120 . S
O388 C382 1.299 . S
O389 Zn377 2.114 1_556 S
O389 C391 1.166 . S
O390 Zn375 1.905 . S
O390 C391 1.182 . S
C391 O389 1.166 . S
C391 O390 1.182 . S
O392 Zn377 2.080 . S
O392 C395 1.271 1_455 S
O393 Zn376 1.920 . S
O393 C395 1.260 . S
C394 O380 1.305 . S
C394 O381 1.234 . S
C395 O392 1.271 1_655 S
C395 O393 1.260 . S
H396 C404 0.929 . S
H397 C406 0.930 . S
H398 C408 0.930 . S
H399 C411 0.929 . S
H400 C414 0.930 . S
H401 C416 0.960 . S
H402 C416 0.960 . S
H403 C416 0.960 . S
C404 H396 0.929 . S
C404 C405 1.377 . S
C404 C406 1.384 . S
C405 C404 1.377 . S
C405 C411 1.390 . S
C406 H397 0.930 . S
C406 C404 1.384 . S
C406 C407 1.372 . S
C407 C406 1.372 . S
C407 C408 1.400 . S
C407 C412 1.490 . S
C408 H398 0.930 . S
C408 C407 1.400 . S
C408 C411 1.386 . S
H409 C425 0.930 . S
H410 C426 0.931 . S
C411 H399 0.929 . S
C411 C405 1.390 . S
C411 C408 1.386 . S
C412 C407 1.490 . S
C412 C414 1.395 . S
C412 C415 1.403 . S
H413 C419 0.930 . S
C414 H400 0.930 . S
C414 C412 1.395 . S
C414 C417 1.403 . S
C415 C412 1.403 . S
C415 C416 1.524 . S
C415 C419 1.400 . S
C416 H401 0.960 . S
C416 H402 0.960 . S
C416 H403 0.960 . S
C416 C415 1.524 . S
C417 C414 1.403 . S
C417 C418 1.392 . S
C417 C421 1.495 . S
C418 C417 1.392 . S
C418 C419 1.385 . S
C418 C420 1.478 . S
C419 H413 0.930 . S
C419 C415 1.400 . S
C419 C418 1.385 . S
C420 C418 1.478 . S
C420 C422 1.381 . S
C420 C426 1.383 . S
C421 C417 1.495 . S
C421 H427 0.959 . S
C421 H428 0.961 . S
C421 H429 0.960 . S
C422 C420 1.381 . S
C422 C423 1.394 . S
C422 H430 0.930 . S
C423 C422 1.394 . S
C423 C424 1.383 . S
C423 H431 0.929 . S
C424 C423 1.383 . S
C424 C425 1.377 . S
C425 H409 0.930 . S
C425 C424 1.377 . S
C425 C426 1.379 . S
C426 H410 0.931 . S
C426 C420 1.383 . S
C426 C425 1.379 . S
H427 C421 0.959 . S
H428 C421 0.961 . S
H429 C421 0.960 . S
H430 C422 0.930 . S
H431 C423 0.929 . S
H432 C440 0.929 . S
H433 C442 0.930 . S
H434 C444 0.930 . S
H435 C447 0.929 . S
H436 C450 0.930 . S
H437 C452 0.960 . S
H438 C452 0.960 . S
H439 C452 0.960 . S
C440 H432 0.929 . S
C440 C441 1.377 . S
C440 C442 1.384 . S
C441 C440 1.377 . S
C441 C447 1.390 . S
C442 H433 0.930 . S
C442 C440 1.384 . S
C442 C443 1.372 . S
C443 C442 1.372 . S
C443 C444 1.400 . S
C443 C448 1.490 . S
C444 H434 0.930 . S
C444 C443 1.400 . S
C444 C447 1.386 . S
H445 C461 0.930 . S
H446 C462 0.931 . S
C447 H435 0.929 . S
C447 C441 1.390 . S
C447 C444 1.386 . S
C448 C443 1.490 . S
C448 C450 1.395 . S
C448 C451 1.403 . S
H449 C455 0.930 . S
C450 H436 0.930 . S
C450 C448 1.395 . S
C450 C453 1.403 . S
C451 C448 1.403 . S
C451 C452 1.524 . S
C451 C455 1.400 . S
C452 H437 0.960 . S
C452 H438 0.960 . S
C452 H439 0.960 . S
C452 C451 1.524 . S
C453 C450 1.403 . S
C453 C454 1.392 . S
C453 C457 1.495 . S
C454 C453 1.392 . S
C454 C455 1.385 . S
C454 C456 1.478 . S
C455 H449 0.930 . S
C455 C451 1.400 . S
C455 C454 1.385 . S
C456 C454 1.478 . S
C456 C458 1.381 . S
C456 C462 1.383 . S
C457 C453 1.495 . S
C457 H463 0.959 . S
C457 H464 0.961 . S
C457 H465 0.960 . S
C458 C456 1.381 . S
C458 C459 1.394 . S
C458 H466 0.930 . S
C459 C458 1.394 . S
C459 C460 1.383 . S
C459 H467 0.929 1_565 S
C460 C459 1.383 . S
C460 C461 1.377 . S
C461 H445 0.930 . S
C461 C460 1.377 . S
C461 C462 1.379 . S
C462 H446 0.931 . S
C462 C456 1.383 . S
C462 C461 1.379 . S
H463 C457 0.959 . S
H464 C457 0.961 . S
H465 C457 0.960 . S
H466 C458 0.930 . S
H467 C459 0.929 1_545 S
H468 C476 0.929 . S
H469 C478 0.930 . S
H470 C480 0.930 . S
H471 C483 0.929 . S
H472 C486 0.930 . S
H473 C488 0.960 . S
H474 C488 0.960 . S
H475 C488 0.960 . S
C476 H468 0.929 . S
C476 C477 1.377 . S
C476 C478 1.384 . S
C477 C476 1.377 . S
C477 C483 1.390 . S
C478 H469 0.930 . S
C478 C476 1.384 . S
C478 C479 1.372 . S
C479 C478 1.372 . S
C479 C480 1.400 . S
C479 C484 1.490 . S
C480 H470 0.930 . S
C480 C479 1.400 . S
C480 C483 1.386 . S
H481 C497 0.930 . S
H482 C498 0.931 . S
C483 H471 0.929 . S
C483 C477 1.390 . S
C483 C480 1.386 . S
C484 C479 1.490 . S
C484 C486 1.395 . S
C484 C487 1.403 . S
H485 C491 0.930 . S
C486 H472 0.930 . S
C486 C484 1.395 . S
C486 C489 1.403 . S
C487 C484 1.403 . S
C487 C488 1.524 . S
C487 C491 1.400 . S
C488 H473 0.960 . S
C488 H474 0.960 . S
C488 H475 0.960 . S
C488 C487 1.524 . S
C489 C486 1.403 . S
C489 C490 1.392 . S
C489 C493 1.495 . S
C490 C489 1.392 . S
C490 C491 1.385 . S
C490 C492 1.478 . S
C491 H485 0.930 . S
C491 C487 1.400 . S
C491 C490 1.385 . S
C492 C490 1.478 . S
C492 C494 1.381 . S
C492 C498 1.383 . S
C493 C489 1.495 . S
C493 H499 0.959 . S
C493 H500 0.961 . S
C493 H501 0.960 . S
C494 C492 1.381 . S
C494 C495 1.394 . S
C494 H502 0.930 . S
C495 C494 1.394 . S
C495 C496 1.383 . S
C495 H503 0.929 . S
C496 C495 1.383 . S
C496 C497 1.377 . S
C497 H481 0.930 . S
C497 C496 1.377 . S
C497 C498 1.379 . S
C498 H482 0.931 . S
C498 C492 1.383 . S
C498 C497 1.379 . S
H499 C493 0.959 . S
H500 C493 0.961 . S
H501 C493 0.960 . S
H502 C494 0.930 . S
H503 C495 0.929 . S
H504 C512 0.929 . S
H505 C514 0.930 . S
H506 C516 0.930 . S
H507 C519 0.929 . S
H508 C522 0.930 . S
H509 C524 0.960 . S
H510 C524 0.960 . S
H511 C524 0.960 . S
C512 H504 0.929 . S
C512 C513 1.377 . S
C512 C514 1.384 . S
C513 C512 1.377 . S
C513 C519 1.390 . S
C514 H505 0.930 . S
C514 C512 1.384 . S
C514 C515 1.372 . S
C515 C514 1.372 . S
C515 C516 1.400 . S
C515 C520 1.490 . S
C516 H506 0.930 . S
C516 C515 1.400 . S
C516 C519 1.386 . S
H517 C533 0.930 . S
H518 C534 0.931 . S
C519 H507 0.929 . S
C519 C513 1.390 . S
C519 C516 1.386 . S
C520 C515 1.490 . S
C520 C522 1.395 . S
C520 C523 1.403 . S
H521 C527 0.930 . S
C522 H508 0.930 . S
C522 C520 1.395 . S
C522 C525 1.403 . S
C523 C520 1.403 . S
C523 C524 1.524 . S
C523 C527 1.400 . S
C524 H509 0.960 . S
C524 H510 0.960 . S
C524 H511 0.960 . S
C524 C523 1.524 . S
C525 C522 1.403 . S
C525 C526 1.392 . S
C525 C529 1.495 . S
C526 C525 1.392 . S
C526 C527 1.385 . S
C526 C528 1.478 . S
C527 H521 0.930 . S
C527 C523 1.400 . S
C527 C526 1.385 . S
C528 C526 1.478 . S
C528 C530 1.381 . S
C528 C534 1.383 . S
C529 C525 1.495 . S
C529 H535 0.959 . S
C529 H536 0.961 . S
C529 H537 0.960 . S
C530 C528 1.381 . S
C530 C531 1.394 . S
C530 H538 0.930 . S
C531 C530 1.394 . S
C531 C532 1.383 . S
C531 H539 0.929 1_655 S
C532 C531 1.383 . S
C532 C533 1.377 . S
C533 H517 0.930 . S
C533 C532 1.377 . S
C533 C534 1.379 . S
C534 H518 0.931 . S
C534 C528 1.383 . S
C534 C533 1.379 . S
H535 C529 0.959 . S
H536 C529 0.961 . S
H537 C529 0.960 . S
H538 C530 0.930 . S
H539 C531 0.929 1_455 S
H540 C548 0.929 . S
H541 C550 0.930 . S
H542 C552 0.930 . S
H543 C555 0.929 . S
H544 C558 0.930 . S
H545 C560 0.960 . S
H546 C560 0.960 . S
H547 C560 0.960 . S
C548 H540 0.929 . S
C548 C549 1.377 . S
C548 C550 1.384 . S
C549 C548 1.377 . S
C549 C555 1.390 . S
C550 H541 0.930 . S
C550 C548 1.384 . S
C550 C551 1.372 . S
C551 C550 1.372 . S
C551 C552 1.400 . S
C551 C556 1.490 . S
C552 H542 0.930 . S
C552 C551 1.400 . S
C552 C555 1.386 . S
H553 C569 0.930 . S
H554 C570 0.931 . S
C555 H543 0.929 . S
C555 C549 1.390 . S
C555 C552 1.386 . S
C556 C551 1.490 . S
C556 C558 1.395 . S
C556 C559 1.403 . S
H557 C563 0.930 . S
C558 H544 0.930 . S
C558 C556 1.395 . S
C558 C561 1.403 . S
C559 C556 1.403 . S
C559 C560 1.524 . S
C559 C563 1.400 . S
C560 H545 0.960 . S
C560 H546 0.960 . S
C560 H547 0.960 . S
C560 C559 1.524 . S
C561 C558 1.403 . S
C561 C562 1.392 . S
C561 C565 1.495 . S
C562 C561 1.392 . S
C562 C563 1.385 . S
C562 C564 1.478 . S
C563 H557 0.930 . S
C563 C559 1.400 . S
C563 C562 1.385 . S
C564 C562 1.478 . S
C564 C566 1.381 . S
C564 C570 1.383 . S
C565 C561 1.495 . S
C565 H571 0.959 . S
C565 H572 0.961 . S
C565 H573 0.960 . S
C566 C564 1.381 . S
C566 C567 1.394 . S
C566 H574 0.930 . S
C567 C566 1.394 . S
C567 C568 1.383 . S
C567 H575 0.929 . S
C568 C567 1.383 . S
C568 C569 1.377 . S
C569 H553 0.930 . S
C569 C568 1.377 . S
C569 C570 1.379 . S
C570 H554 0.931 . S
C570 C564 1.383 . S
C570 C569 1.379 . S
H571 C565 0.959 . S
H572 C565 0.961 . S
H573 C565 0.960 . S
H574 C566 0.930 . S
H575 C567 0.929 . S
H576 C584 0.929 . S
H577 C586 0.930 . S
H578 C588 0.930 . S
H579 C591 0.929 . S
H580 C594 0.930 . S
H581 C596 0.960 . S
H582 C596 0.960 . S
H583 C596 0.960 . S
C584 H576 0.929 . S
C584 C585 1.377 . S
C584 C586 1.384 . S
C585 C584 1.377 . S
C585 C591 1.390 . S
C586 H577 0.930 . S
C586 C584 1.384 . S
C586 C587 1.372 . S
C587 C586 1.372 . S
C587 C588 1.400 . S
C587 C592 1.490 . S
C588 H578 0.930 . S
C588 C587 1.400 . S
C588 C591 1.386 . S
H589 C605 0.930 . S
H590 C606 0.931 . S
C591 H579 0.929 . S
C591 C585 1.390 . S
C591 C588 1.386 . S
C592 C587 1.490 . S
C592 C594 1.395 . S
C592 C595 1.403 . S
H593 C599 0.930 . S
C594 H580 0.930 . S
C594 C592 1.395 . S
C594 C597 1.403 . S
C595 C592 1.403 . S
C595 C596 1.524 . S
C595 C599 1.400 . S
C596 H581 0.960 . S
C596 H582 0.960 . S
C596 H583 0.960 . S
C596 C595 1.524 . S
C597 C594 1.403 . S
C597 C598 1.392 . S
C597 C601 1.468 1_565 S
C598 C597 1.392 . S
C598 C599 1.385 . S
C598 C600 1.478 . S
C599 H593 0.930 . S
C599 C595 1.400 . S
C599 C598 1.385 . S
C600 C598 1.478 . S
C600 C602 1.381 . S
C600 C606 1.383 . S
C601 C597 1.468 1_545 S
C601 H607 0.967 . S
C601 H608 0.960 1_545 S
C601 H609 0.981 . S
C602 C600 1.381 . S
C602 C603 1.394 1_565 S
C602 H610 0.930 1_565 S
C603 C602 1.394 1_545 S
C603 C604 1.383 1_545 S
C603 H611 0.929 . S
C604 C603 1.383 1_565 S
C604 C605 1.377 . S
C605 H589 0.930 . S
C605 C604 1.377 . S
C605 C606 1.379 . S
C606 H590 0.931 . S
C606 C600 1.383 . S
C606 C605 1.379 . S
H607 C601 0.967 . S
H608 C601 0.960 1_565 S
H609 C601 0.981 . S
H610 C602 0.930 1_545 S
H611 C603 0.929 . S
H612 C620 0.929 . S
H613 C622 0.930 . S
H614 C624 0.930 . S
H615 C627 0.929 . S
H616 C630 0.930 . S
H617 C632 0.960 . S
H618 C632 0.960 . S
H619 C632 0.960 . S
C620 H612 0.929 . S
C620 C621 1.377 . S
C620 C622 1.384 . S
C621 C620 1.377 . S
C621 C627 1.390 . S
C622 H613 0.930 . S
C622 C620 1.384 . S
C622 C623 1.372 . S
C623 C622 1.372 . S
C623 C624 1.400 . S
C623 C628 1.490 . S
C624 H614 0.930 . S
C624 C623 1.400 . S
C624 C627 1.386 . S
H625 C641 0.930 . S
H626 C642 0.931 . S
C627 H615 0.929 . S
C627 C621 1.390 . S
C627 C624 1.386 . S
C628 C623 1.490 . S
C628 C630 1.395 . S
C628 C631 1.403 . S
H629 C635 0.930 . S
C630 H616 0.930 . S
C630 C628 1.395 . S
C630 C633 1.403 . S
C631 C628 1.403 . S
C631 C632 1.524 . S
C631 C635 1.400 . S
C632 H617 0.960 . S
C632 H618 0.960 . S
C632 H619 0.960 . S
C632 C631 1.524 . S
C633 C630 1.403 . S
C633 C634 1.392 . S
C633 C637 1.495 . S
C634 C633 1.392 . S
C634 C635 1.385 . S
C634 C636 1.478 . S
C635 H629 0.930 . S
C635 C631 1.400 . S
C635 C634 1.385 . S
C636 C634 1.478 . S
C636 C638 1.381 . S
C636 C642 1.383 . S
C637 C633 1.495 . S
C637 H643 0.959 . S
C637 H644 0.961 . S
C637 H645 0.960 . S
C638 C636 1.381 . S
C638 C639 1.394 . S
C638 H646 0.930 . S
C639 C638 1.394 . S
C639 C640 1.383 . S
C639 H647 0.929 1_556 S
C640 C639 1.383 . S
C640 C641 1.377 . S
C641 H625 0.930 . S
C641 C640 1.377 . S
C641 C642 1.379 . S
C642 H626 0.931 . S
C642 C636 1.383 . S
C642 C641 1.379 . S
H643 C637 0.959 . S
H644 C637 0.961 . S
H645 C637 0.960 . S
H646 C638 0.930 . S
H647 C639 0.929 1_554 S
H648 C656 0.929 . S
H649 C658 0.930 . S
H650 C660 0.930 . S
H651 C663 0.929 . S
H652 C666 0.930 . S
H653 C668 0.960 . S
H654 C668 0.960 . S
H655 C668 0.960 . S
C656 H648 0.929 . S
C656 C657 1.377 . S
C656 C658 1.384 . S
C657 C656 1.377 . S
C657 C663 1.390 . S
C658 H649 0.930 . S
C658 C656 1.384 . S
C658 C659 1.372 . S
C659 C658 1.372 . S
C659 C660 1.400 . S
C659 C664 1.490 . S
C660 H650 0.930 . S
C660 C659 1.400 . S
C660 C663 1.386 . S
H661 C677 0.930 . S
H662 C678 0.931 . S
C663 H651 0.929 . S
C663 C657 1.390 . S
C663 C660 1.386 . S
C664 C659 1.490 . S
C664 C666 1.395 . S
C664 C667 1.403 . S
H665 C671 0.930 . S
C666 H652 0.930 . S
C666 C664 1.395 . S
C666 C669 1.403 . S
C667 C664 1.403 . S
C667 C668 1.524 . S
C667 C671 1.400 . S
C668 H653 0.960 . S
C668 H654 0.960 . S
C668 H655 0.960 . S
C668 C667 1.524 . S
C669 C666 1.403 . S
C669 C670 1.392 . S
C669 C673 1.495 . S
C670 C669 1.392 . S
C670 C671 1.385 . S
C670 C672 1.478 . S
C671 H665 0.930 . S
C671 C667 1.400 . S
C671 C670 1.385 . S
C672 C670 1.478 . S
C672 C674 1.381 . S
C672 C678 1.383 . S
C673 C669 1.495 . S
C673 H679 0.959 . S
C673 H680 0.961 . S
C673 H681 0.960 . S
C674 C672 1.381 . S
C674 C675 1.394 . S
C674 H682 0.930 . S
C675 C674 1.394 . S
C675 C676 1.383 . S
C675 H683 0.929 . S
C676 C675 1.383 . S
C676 C677 1.377 . S
C677 H661 0.930 . S
C677 C676 1.377 . S
C677 C678 1.379 . S
C678 H662 0.931 . S
C678 C672 1.383 . S
C678 C677 1.379 . S
H679 C673 0.959 . S
H680 C673 0.961 . S
H681 C673 0.960 . S
H682 C674 0.930 . S
H683 C675 0.929 . S
H684 C692 0.929 . S
H685 C694 0.930 . S
H686 C696 0.930 . S
H687 C699 0.929 . S
H688 C702 0.930 . S
H689 C704 0.960 . S
H690 C704 0.960 . S
H691 C704 0.960 . S
C692 H684 0.929 . S
C692 C693 1.377 . S
C692 C694 1.384 . S
C693 C692 1.377 . S
C693 C699 1.390 . S
C694 H685 0.930 . S
C694 C692 1.384 . S
C694 C695 1.372 . S
C695 C694 1.372 . S
C695 C696 1.400 . S
C695 C700 1.490 . S
C696 H686 0.930 . S
C696 C695 1.400 . S
C696 C699 1.386 . S
H697 C713 0.930 . S
H698 C714 0.931 . S
C699 H687 0.929 . S
C699 C693 1.390 . S
C699 C696 1.386 . S
C700 C695 1.490 . S
C700 C702 1.395 . S
C700 C703 1.403 . S
H701 C707 0.930 . S
C702 H688 0.930 . S
C702 C700 1.395 . S
C702 C705 1.403 . S
C703 C700 1.403 . S
C703 C704 1.524 . S
C703 C707 1.400 . S
C704 H689 0.960 . S
C704 H690 0.960 . S
C704 H691 0.960 . S
C704 C703 1.524 . S
C705 C702 1.403 . S
C705 C706 1.392 . S
C705 C709 1.495 . S
C706 C705 1.392 . S
C706 C707 1.385 . S
C706 C708 1.478 . S
C707 H701 0.930 . S
C707 C703 1.400 . S
C707 C706 1.385 . S
C708 C706 1.478 . S
C708 C710 1.381 . S
C708 C714 1.383 . S
C709 C705 1.495 . S
C709 H715 0.959 . S
C709 H716 0.961 . S
C709 H717 0.960 . S
C710 C708 1.381 . S
C710 C711 1.394 . S
C710 H718 0.930 . S
C711 C710 1.394 . S
C711 C712 1.383 . S
C711 H719 0.929 . S
C712 C711 1.383 . S
C712 C713 1.377 . S
C713 H697 0.930 . S
C713 C712 1.377 . S
C713 C714 1.379 . S
C714 H698 0.931 . S
C714 C708 1.383 . S
C714 C713 1.379 . S
H715 C709 0.959 . S
H716 C709 0.961 . S
H717 C709 0.960 . S
H718 C710 0.930 . S
H719 C711 0.929 . S
H720 C728 0.929 . S
H721 C730 0.930 . S
H722 C732 0.930 . S
H723 C735 0.929 . S
H724 C738 0.930 . S
H725 C740 0.960 . S
H726 C740 0.960 . S
H727 C740 0.960 . S
C728 H720 0.929 . S
C728 C729 1.377 . S
C728 C730 1.384 . S
C729 C728 1.377 . S
C729 C735 1.390 . S
C730 H721 0.930 . S
C730 C728 1.384 . S
C730 C731 1.372 . S
C731 C730 1.372 . S
C731 C732 1.400 . S
C731 C736 1.490 . S
C732 H722 0.930 . S
C732 C731 1.400 . S
C732 C735 1.386 . S
H733 C749 0.920 1_554 S
H734 C750 0.931 . S
C735 H723 0.929 . S
C735 C729 1.390 . S
C735 C732 1.386 . S
C736 C731 1.490 . S
C736 C738 1.395 . S
C736 C739 1.403 . S
H737 C743 0.930 . S
C738 H724 0.930 . S
C738 C736 1.395 . S
C738 C741 1.403 . S
C739 C736 1.403 . S
C739 C740 1.524 . S
C739 C743 1.400 . S
C740 H725 0.960 . S
C740 H726 0.960 . S
C740 H727 0.960 . S
C740 C739 1.524 . S
C741 C738 1.403 . S
C741 C742 1.392 . S
C741 C745 1.495 . S
C742 C741 1.392 . S
C742 C743 1.385 . S
C742 C744 1.478 . S
C743 H737 0.930 . S
C743 C739 1.400 . S
C743 C742 1.385 . S
C744 C742 1.478 . S
C744 C746 1.381 . S
C744 C750 1.383 . S
C745 C741 1.495 . S
C745 H751 0.959 . S
C745 H752 0.961 1_556 S
C745 H753 0.960 . S
C746 C744 1.381 . S
C746 C747 1.394 . S
C746 H754 0.930 . S
C747 C746 1.394 . S
C747 C748 1.383 . S
C747 H755 0.929 . S
C748 C747 1.383 . S
C748 C749 1.377 . S
C749 H733 0.920 1_556 S
C749 C748 1.377 . S
C749 C750 1.379 . S
C750 H734 0.931 . S
C750 C744 1.383 . S
C750 C749 1.379 . S
H751 C745 0.959 . S
H752 C745 0.961 1_554 S
H753 C745 0.960 . S
H754 C746 0.930 . S
H755 C747 0.929 . S
H756 C764 0.929 . S
H757 C766 0.930 . S
H758 C768 0.930 . S
H759 C771 0.929 . S
H760 C774 0.930 . S
H761 C776 0.960 . S
H762 C776 0.960 . S
H763 C776 0.960 . S
C764 H756 0.929 . S
C764 C765 1.377 . S
C764 C766 1.384 . S
C765 C764 1.377 . S
C765 C771 1.390 . S
C766 H757 0.930 . S
C766 C764 1.384 . S
C766 C767 1.372 . S
C767 C766 1.372 . S
C767 C768 1.400 . S
C767 C772 1.490 . S
C768 H758 0.930 . S
C768 C767 1.400 . S
C768 C771 1.386 . S
H769 C785 0.930 . S
H770 C786 0.931 . S
C771 H759 0.929 . S
C771 C765 1.390 . S
C771 C768 1.386 . S
C772 C767 1.490 . S
C772 C774 1.395 . S
C772 C775 1.403 . S
H773 C779 0.930 . S
C774 H760 0.930 . S
C774 C772 1.395 . S
C774 C777 1.403 . S
C775 C772 1.403 . S
C775 C776 1.524 . S
C775 C779 1.400 . S
C776 H761 0.960 . S
C776 H762 0.960 . S
C776 H763 0.960 . S
C776 C775 1.524 . S
C777 C774 1.403 . S
C777 C778 1.392 . S
C777 C781 1.495 . S
C778 C777 1.392 . S
C778 C779 1.385 . S
C778 C780 1.478 . S
C779 H773 0.930 . S
C779 C775 1.400 . S
C779 C778 1.385 . S
C780 C778 1.478 . S
C780 C782 1.381 . S
C780 C786 1.383 . S
C781 C777 1.495 . S
C781 H787 0.959 . S
C781 H788 0.961 . S
C781 H789 0.960 . S
C782 C780 1.381 . S
C782 C783 1.394 . S
C782 H790 0.930 . S
C783 C782 1.394 . S
C783 C784 1.383 . S
C783 H791 0.929 1_655 S
C784 C783 1.383 . S
C784 C785 1.377 . S
C785 H769 0.930 . S
C785 C784 1.377 . S
C785 C786 1.379 . S
C786 H770 0.931 . S
C786 C780 1.383 . S
C786 C785 1.379 . S
H787 C781 0.959 . S
H788 C781 0.961 . S
H789 C781 0.960 . S
H790 C782 0.930 . S
H791 C783 0.929 1_455 S
H792 C800 0.929 . S
H793 C802 0.930 . S
H794 C804 0.930 . S
H795 C807 0.929 . S
H796 C810 0.930 . S
H797 C812 0.960 . S
H798 C812 0.960 . S
H799 C812 0.960 . S
C800 H792 0.929 . S
C800 C801 1.377 . S
C800 C802 1.384 . S
C801 C800 1.377 . S
C801 C807 1.390 . S
C802 H793 0.930 . S
C802 C800 1.384 . S
C802 C803 1.372 . S
C803 C802 1.372 . S
C803 C804 1.400 . S
C803 C808 1.490 . S
C804 H794 0.930 . S
C804 C803 1.400 . S
C804 C807 1.386 . S
H805 C821 0.930 . S
H806 C822 0.931 . S
C807 H795 0.929 . S
C807 C801 1.390 . S
C807 C804 1.386 . S
C808 C803 1.490 . S
C808 C810 1.395 . S
C808 C811 1.403 . S
H809 C815 0.930 . S
C810 H796 0.930 . S
C810 C808 1.395 . S
C810 C813 1.403 . S
C811 C808 1.403 . S
C811 C812 1.524 . S
C811 C815 1.400 . S
C812 H797 0.960 . S
C812 H798 0.960 . S
C812 H799 0.960 . S
C812 C811 1.524 . S
C813 C810 1.403 . S
C813 C814 1.392 . S
C813 C817 1.495 . S
C814 C813 1.392 . S
C814 C815 1.385 . S
C814 C816 1.478 . S
C815 H809 0.930 . S
C815 C811 1.400 . S
C815 C814 1.385 . S
C816 C814 1.478 . S
C816 C818 1.381 . S
C816 C822 1.383 . S
C817 C813 1.495 . S
C817 H823 0.959 . S
C817 H824 0.961 . S
C817 H825 0.960 . S
C818 C816 1.381 . S
C818 C819 1.394 . S
C818 H826 0.930 . S
C819 C818 1.394 . S
C819 C820 1.383 . S
C819 H827 0.929 . S
C820 C819 1.383 . S
C820 C821 1.377 . S
C821 H805 0.930 . S
C821 C820 1.377 . S
C821 C822 1.379 . S
C822 H806 0.931 . S
C822 C816 1.383 . S
C822 C821 1.379 . S
H823 C817 0.959 . S
H824 C817 0.961 . S
H825 C817 0.960 . S
H826 C818 0.930 . S
H827 C819 0.929 . S
H828 C836 0.929 1_545 S
H829 C838 0.930 . S
H830 C840 0.930 1_455 S
H831 C843 0.929 1_455 S
H832 C846 0.930 . S
H833 C848 0.960 . S
H834 C848 0.960 . S
H835 C848 0.960 . S
C836 H828 0.929 1_565 S
C836 C837 1.377 . S
C836 C838 1.384 1_565 S
C837 C836 1.377 . S
C837 C843 1.390 . S
C838 H829 0.930 . S
C838 C836 1.384 1_545 S
C838 C839 1.372 1_545 S
C839 C838 1.372 1_565 S
C839 C840 1.400 . S
C839 C844 1.493 . S
C840 H830 0.930 1_655 S
C840 C839 1.400 . S
C840 C843 1.386 . S
H841 C857 0.930 . S
H842 C858 0.931 . S
C843 H831 0.929 1_655 S
C843 C837 1.390 . S
C843 C840 1.386 . S
C844 C839 1.493 . S
C844 C846 1.377 1_565 S
C844 C847 1.416 . S
H845 C851 0.930 . S
C846 H832 0.930 . S
C846 C844 1.377 1_545 S
C846 C849 1.403 . S
C847 C844 1.416 . S
C847 C848 1.524 . S
C847 C851 1.400 . S
C848 H833 0.960 . S
C848 H834 0.960 . S
C848 H835 0.960 . S
C848 C847 1.524 . S
C849 C846 1.403 . S
C849 C850 1.392 . S
C849 C853 1.495 . S
C850 C849 1.392 . S
C850 C851 1.385 1_545 S
C850 C852 1.478 . S
C851 H845 0.930 . S
C851 C847 1.400 . S
C851 C850 1.385 1_565 S
C852 C850 1.478 . S
C852 C854 1.381 . S
C852 C858 1.383 1_655 S
C853 C849 1.495 . S
C853 H859 0.959 . S
C853 H860 0.961 . S
C853 H861 0.960 . S
C854 C852 1.381 . S
C854 C855 1.394 . S
C854 H862 0.930 . S
C855 C854 1.394 . S
C855 C856 1.383 . S
C855 H863 0.929 . S
C856 C855 1.383 . S
C856 C857 1.377 1_655 S
C857 H841 0.930 . S
C857 C856 1.377 1_455 S
C857 C858 1.379 . S
C858 H842 0.931 . S
C858 C852 1.383 1_455 S
C858 C857 1.379 . S
H859 C853 0.959 . S
H860 C853 0.961 . S
H861 C853 0.960 . S
H862 C854 0.930 . S
H863 C855 0.929 . S
H864 C872 0.929 . S
H865 C874 0.930 . S
H866 C876 0.930 . S
H867 C879 0.929 . S
H868 C882 0.930 . S
H869 C884 0.960 . S
H870 C884 0.960 . S
H871 C884 0.960 . S
C872 H864 0.929 . S
C872 C873 1.377 . S
C872 C874 1.384 . S
C873 C872 1.377 . S
C873 C879 1.390 . S
C874 H865 0.930 . S
C874 C872 1.384 . S
C874 C875 1.372 . S
C875 C874 1.372 . S
C875 C876 1.400 . S
C875 C880 1.490 . S
C876 H866 0.930 . S
C876 C875 1.400 . S
C876 C879 1.386 . S
H877 C893 0.930 . S
H878 C894 0.931 . S
C879 H867 0.929 . S
C879 C873 1.390 . S
C879 C876 1.386 . S
C880 C875 1.490 . S
C880 C882 1.395 . S
C880 C883 1.403 . S
H881 C887 0.930 . S
C882 H868 0.930 . S
C882 C880 1.395 . S
C882 C885 1.403 . S
C883 C880 1.403 . S
C883 C884 1.524 1_545 S
C883 C887 1.400 . S
C884 H869 0.960 . S
C884 H870 0.960 . S
C884 H871 0.960 . S
C884 C883 1.524 1_565 S
C885 C882 1.403 . S
C885 C886 1.392 . S
C885 C889 1.495 . S
C886 C885 1.392 . S
C886 C887 1.385 . S
C886 C888 1.478 . S
C887 H881 0.930 . S
C887 C883 1.400 . S
C887 C886 1.385 . S
C888 C886 1.478 . S
C888 C890 1.381 . S
C888 C894 1.383 . S
C889 C885 1.495 . S
C889 H895 0.959 . S
C889 H896 0.961 . S
C889 H897 0.960 . S
C890 C888 1.381 . S
C890 C891 1.394 . S
C890 H898 0.930 . S
C891 C890 1.394 . S
C891 C892 1.383 . S
C891 H899 0.929 . S
C892 C891 1.383 . S
C892 C893 1.377 . S
C893 H877 0.930 . S
C893 C892 1.377 . S
C893 C894 1.379 . S
C894 H878 0.931 . S
C894 C888 1.383 . S
C894 C893 1.379 . S
H895 C889 0.959 . S
H896 C889 0.961 . S
H897 C889 0.960 . S
H898 C890 0.930 . S
H899 C891 0.929 . S
H900 C908 0.929 . S
H901 C910 0.930 . S
H902 C912 0.930 . S
H903 C915 0.929 . S
H904 C918 0.930 . S
H905 C920 0.960 . S
H906 C920 0.960 . S
H907 C920 0.960 . S
C908 H900 0.929 . S
C908 C909 1.377 . S
C908 C910 1.384 . S
C909 C908 1.377 . S
C909 C915 1.390 . S
C910 H901 0.930 . S
C910 C908 1.384 . S
C910 C911 1.372 . S
C911 C910 1.372 . S
C911 C912 1.400 . S
C911 C916 1.490 . S
C912 H902 0.930 . S
C912 C911 1.400 . S
C912 C915 1.386 . S
H913 C929 0.930 . S
H914 C930 0.931 . S
C915 H903 0.929 . S
C915 C909 1.390 . S
C915 C912 1.386 . S
C916 C911 1.490 . S
C916 C918 1.395 . S
C916 C919 1.403 . S
H917 C923 0.930 . S
C918 H904 0.930 . S
C918 C916 1.395 . S
C918 C921 1.403 . S
C919 C916 1.403 . S
C919 C920 1.524 . S
C919 C923 1.400 . S
C920 H905 0.960 . S
C920 H906 0.960 . S
C920 H907 0.960 . S
C920 C919 1.524 . S
C921 C918 1.403 . S
C921 C922 1.392 . S
C921 C925 1.495 . S
C922 C921 1.392 . S
C922 C923 1.385 . S
C922 C924 1.478 . S
C923 H917 0.930 . S
C923 C919 1.400 . S
C923 C922 1.385 . S
C924 C922 1.478 . S
C924 C926 1.381 . S
C924 C930 1.383 . S
C925 C921 1.495 . S
C925 H931 0.959 . S
C925 H932 0.961 . S
C925 H933 0.960 . S
C926 C924 1.381 . S
C926 C927 1.394 . S
C926 H934 0.930 . S
C927 C926 1.394 . S
C927 C928 1.383 . S
C927 H935 0.929 . S
C928 C927 1.383 . S
C928 C929 1.377 . S
C929 H913 0.930 . S
C929 C928 1.377 . S
C929 C930 1.379 . S
C930 H914 0.931 . S
C930 C924 1.383 . S
C930 C929 1.379 . S
H931 C925 0.959 . S
H932 C925 0.961 . S
H933 C925 0.960 . S
H934 C926 0.930 . S
H935 C927 0.929 . S
H936 C944 0.929 . S
H937 C946 0.930 . S
H938 C948 0.930 . S
H939 C951 0.929 . S
H940 C954 0.930 . S
H941 C956 0.960 . S
H942 C956 0.960 . S
H943 C956 0.960 . S
C944 H936 0.929 . S
C944 C945 1.377 . S
C944 C946 1.384 . S
C945 C944 1.377 . S
C945 C951 1.390 . S
C946 H937 0.930 . S
C946 C944 1.384 . S
C946 C947 1.372 . S
C947 C946 1.372 . S
C947 C948 1.400 . S
C947 C952 1.490 . S
C948 H938 0.930 . S
C948 C947 1.400 . S
C948 C951 1.386 . S
H949 C965 0.930 . S
H950 C966 0.931 . S
C951 H939 0.929 . S
C951 C945 1.390 . S
C951 C948 1.386 . S
C952 C947 1.490 . S
C952 C954 1.395 . S
C952 C955 1.403 . S
H953 C959 0.930 . S
C954 H940 0.930 . S
C954 C952 1.395 . S
C954 C957 1.403 . S
C955 C952 1.403 . S
C955 C956 1.524 . S
C955 C959 1.400 . S
C956 H941 0.960 . S
C956 H942 0.960 . S
C956 H943 0.960 . S
C956 C955 1.524 . S
C957 C954 1.403 . S
C957 C958 1.392 . S
C957 C961 1.495 . S
C958 C957 1.392 . S
C958 C959 1.385 . S
C958 C960 1.478 . S
C959 H953 0.930 . S
C959 C955 1.400 . S
C959 C958 1.385 . S
C960 C958 1.478 . S
C960 C962 1.381 . S
C960 C966 1.383 . S
C961 C957 1.495 . S
C961 H967 0.959 . S
C961 H968 0.961 . S
C961 H969 0.960 . S
C962 C960 1.381 . S
C962 C963 1.394 . S
C962 H970 0.930 . S
C963 C962 1.394 . S
C963 C964 1.383 . S
C963 H971 0.929 . S
C964 C963 1.383 . S
C964 C965 1.377 . S
C965 H949 0.930 . S
C965 C964 1.377 . S
C965 C966 1.379 . S
C966 H950 0.931 . S
C966 C960 1.383 . S
C966 C965 1.379 . S
H967 C961 0.959 . S
H968 C961 0.961 . S
H969 C961 0.960 . S
H970 C962 0.930 . S
H971 C963 0.929 . S
H972 C980 0.929 . S
H973 C982 0.930 . S
H974 C984 0.930 . S
H975 C987 0.929 . S
H976 C990 0.930 . S
H977 C992 0.960 . S
H978 C992 0.960 . S
H979 C992 0.960 . S
C980 H972 0.929 . S
C980 C981 1.377 1_554 S
C980 C982 1.384 . S
C981 C980 1.377 1_556 S
C981 C987 1.390 . S
C982 H973 0.930 . S
C982 C980 1.384 . S
C982 C983 1.372 1_554 S
C983 C982 1.372 1_556 S
C983 C984 1.400 . S
C983 C988 1.490 . S
C984 H974 0.930 . S
C984 C983 1.400 . S
C984 C987 1.386 . S
H985 C1001 0.930 . S
H986 C1002 0.931 . S
C987 H975 0.929 . S
C987 C981 1.390 . S
C987 C984 1.386 . S
C988 C983 1.490 . S
C988 C990 1.395 1_566 S
C988 C991 1.403 . S
H989 C995 0.930 . S
C990 H976 0.930 . S
C990 C988 1.395 1_544 S
C990 C993 1.403 . S
C991 C988 1.403 . S
C991 C992 1.524 . S
C991 C995 1.400 . S
C992 H977 0.960 . S
C992 H978 0.960 . S
C992 H979 0.960 . S
C992 C991 1.524 . S
C993 C990 1.403 . S
C993 C994 1.392 1_545 S
C993 C997 1.495 . S
C994 C993 1.392 1_565 S
C994 C995 1.385 1_554 S
C994 C996 1.478 . S
C995 H989 0.930 . S
C995 C991 1.400 . S
C995 C994 1.385 1_556 S
C996 C994 1.478 . S
C996 C998 1.381 . S
C996 C1002 1.383 1_564 S
C997 C993 1.495 . S
C997 H1003 0.959 . S
C997 H1004 0.961 . S
C997 H1005 0.960 . S
C998 C996 1.381 . S
C998 C999 1.394 . S
C998 H1006 0.930 . S
C999 C998 1.394 . S
C999 C1000 1.383 . S
C999 H1007 0.929 . S
C1000 C999 1.383 . S
C1000 C1001 1.377 1_564 S
C1001 H985 0.930 . S
C1001 C1000 1.377 1_546 S
C1001 C1002 1.379 . S
C1002 H986 0.931 . S
C1002 C996 1.383 1_546 S
C1002 C1001 1.379 . S
H1003 C997 0.959 . S
H1004 C997 0.961 . S
H1005 C997 0.960 . S
H1006 C998 0.930 . S
H1007 C999 0.929 . S
H1008 C1016 0.929 . S
H1009 C1018 0.930 . S
H1010 C1020 0.930 . S
H1011 C1023 0.929 . S
H1012 C1026 0.930 . S
H1013 C1028 0.960 . S
H1014 C1028 0.960 . S
H1015 C1028 0.960 . S
C1016 H1008 0.929 . S
C1016 C1017 1.377 . S
C1016 C1018 1.384 . S
C1017 C1016 1.377 . S
C1017 C1023 1.390 . S
C1018 H1009 0.930 . S
C1018 C1016 1.384 . S
C1018 C1019 1.372 . S
C1019 C1018 1.372 . S
C1019 C1020 1.400 . S
C1019 C1024 1.490 . S
C1020 H1010 0.930 . S
C1020 C1019 1.400 . S
C1020 C1023 1.386 . S
H1021 C1037 0.930 . S
H1022 C1038 0.931 . S
C1023 H1011 0.929 . S
C1023 C1017 1.390 . S
C1023 C1020 1.386 . S
C1024 C1019 1.490 . S
C1024 C1026 1.395 . S
C1024 C1027 1.403 . S
H1025 C1031 0.930 . S
C1026 H1012 0.930 . S
C1026 C1024 1.395 . S
C1026 C1029 1.403 . S
C1027 C1024 1.403 . S
C1027 C1028 1.524 . S
C1027 C1031 1.400 . S
C1028 H1013 0.960 . S
C1028 H1014 0.960 . S
C1028 H1015 0.960 . S
C1028 C1027 1.524 . S
C1029 C1026 1.403 . S
C1029 C1030 1.392 . S
C1029 C1033 1.495 . S
C1030 C1029 1.392 . S
C1030 C1031 1.385 . S
C1030 C1032 1.478 . S
C1031 H1025 0.930 . S
C1031 C1027 1.400 . S
C1031 C1030 1.385 . S
C1032 C1030 1.478 . S
C1032 C1034 1.381 . S
C1032 C1038 1.383 . S
C1033 C1029 1.495 . S
C1033 H1039 0.959 . S
C1033 H1040 0.961 . S
C1033 H1041 0.960 . S
C1034 C1032 1.381 . S
C1034 C1035 1.394 . S
C1034 H1042 0.930 . S
C1035 C1034 1.394 . S
C1035 C1036 1.383 . S
C1035 H1043 0.929 . S
C1036 C1035 1.383 . S
C1036 C1037 1.377 . S
C1037 H1021 0.930 . S
C1037 C1036 1.377 . S
C1037 C1038 1.379 . S
C1038 H1022 0.931 . S
C1038 C1032 1.383 . S
C1038 C1037 1.379 . S
H1039 C1033 0.959 . S
H1040 C1033 0.961 . S
H1041 C1033 0.960 . S
H1042 C1034 0.930 . S
H1043 C1035 0.929 . S
H1044 C1052 0.929 . S
H1045 C1054 0.930 . S
H1046 C1056 0.930 . S
H1047 C1059 0.929 . S
H1048 C1062 0.930 . S
H1049 C1064 0.960 . S
H1050 C1064 0.960 . S
H1051 C1064 0.960 . S
C1052 H1044 0.929 . S
C1052 C1053 1.377 . S
C1052 C1054 1.384 . S
C1053 C1052 1.377 . S
C1053 C1059 1.390 . S
C1054 H1045 0.930 . S
C1054 C1052 1.384 . S
C1054 C1055 1.372 . S
C1055 C1054 1.372 . S
C1055 C1056 1.400 . S
C1055 C1060 1.490 . S
C1056 H1046 0.930 . S
C1056 C1055 1.400 . S
C1056 C1059 1.386 . S
H1057 C1073 0.930 . S
H1058 C1074 0.931 . S
C1059 H1047 0.929 . S
C1059 C1053 1.390 . S
C1059 C1056 1.386 . S
C1060 C1055 1.490 . S
C1060 C1062 1.395 . S
C1060 C1063 1.403 . S
H1061 C1067 0.930 . S
C1062 H1048 0.930 . S
C1062 C1060 1.395 . S
C1062 C1065 1.403 . S
C1063 C1060 1.403 . S
C1063 C1064 1.524 . S
C1063 C1067 1.400 . S
C1064 H1049 0.960 . S
C1064 H1050 0.960 . S
C1064 H1051 0.960 . S
C1064 C1063 1.524 . S
C1065 C1062 1.403 . S
C1065 C1066 1.392 . S
C1065 C1069 1.495 . S
C1066 C1065 1.392 . S
C1066 C1067 1.385 . S
C1066 C1068 1.478 . S
C1067 H1061 0.930 . S
C1067 C1063 1.400 . S
C1067 C1066 1.385 . S
C1068 C1066 1.478 . S
C1068 C1070 1.424 . S
C1068 C1074 1.383 . S
C1069 C1065 1.495 . S
C1069 H1075 0.959 1_554 S
C1069 H1076 0.961 . S
C1069 H1077 0.960 1_554 S
C1070 C1068 1.424 . S
C1070 C1071 1.390 1_554 S
C1070 H1078 0.892 1_554 S
C1071 C1070 1.390 1_556 S
C1071 C1072 1.383 1_556 S
C1071 H1079 0.929 . S
C1072 C1071 1.383 1_554 S
C1072 C1073 1.377 . S
C1073 H1057 0.930 . S
C1073 C1072 1.377 . S
C1073 C1074 1.379 . S
C1074 H1058 0.931 . S
C1074 C1068 1.383 . S
C1074 C1073 1.379 . S
H1075 C1069 0.959 1_556 S
H1076 C1069 0.961 . S
H1077 C1069 0.960 1_556 S
H1078 C1070 0.892 1_556 S
H1079 C1071 0.929 . S
H1080 C1088 0.929 . S
H1081 C1090 0.930 . S
H1082 C1092 0.930 . S
H1083 C1095 0.929 . S
H1084 C1098 0.930 . S
H1085 C1100 0.960 . S
H1086 C1100 0.960 . S
H1087 C1100 0.960 . S
C1088 H1080 0.929 . S
C1088 C1089 1.377 . S
C1088 C1090 1.384 . S
C1089 C1088 1.377 . S
C1089 C1095 1.390 . S
C1090 H1081 0.930 . S
C1090 C1088 1.384 . S
C1090 C1091 1.372 . S
C1091 C1090 1.372 . S
C1091 C1092 1.400 . S
C1091 C1096 1.490 . S
C1092 H1082 0.930 . S
C1092 C1091 1.400 . S
C1092 C1095 1.386 . S
H1093 C1109 0.930 . S
H1094 C1110 0.931 . S
C1095 H1083 0.929 . S
C1095 C1089 1.390 . S
C1095 C1092 1.386 . S
C1096 C1091 1.490 . S
C1096 C1098 1.395 . S
C1096 C1099 1.403 . S
H1097 C1103 0.930 . S
C1098 H1084 0.930 . S
C1098 C1096 1.395 . S
C1098 C1101 1.403 . S
C1099 C1096 1.403 . S
C1099 C1100 1.524 . S
C1099 C1103 1.400 . S
C1100 H1085 0.960 . S
C1100 H1086 0.960 . S
C1100 H1087 0.960 . S
C1100 C1099 1.524 . S
C1101 C1098 1.403 . S
C1101 C1102 1.392 . S
C1101 C1105 1.495 . S
C1102 C1101 1.392 . S
C1102 C1103 1.385 . S
C1102 C1104 1.478 . S
C1103 H1097 0.930 . S
C1103 C1099 1.400 . S
C1103 C1102 1.385 . S
C1104 C1102 1.478 . S
C1104 C1106 1.381 . S
C1104 C1110 1.383 . S
C1105 C1101 1.495 . S
C1105 H1111 0.959 . S
C1105 H1112 0.961 . S
C1105 H1113 0.960 . S
C1106 C1104 1.381 . S
C1106 C1107 1.394 . S
C1106 H1114 0.930 . S
C1107 C1106 1.394 . S
C1107 C1108 1.383 . S
C1107 H1115 0.929 . S
C1108 C1107 1.383 . S
C1108 C1109 1.377 . S
C1109 H1093 0.930 . S
C1109 C1108 1.377 . S
C1109 C1110 1.379 . S
C1110 H1094 0.931 . S
C1110 C1104 1.383 . S
C1110 C1109 1.379 . S
H1111 C1105 0.959 . S
H1112 C1105 0.961 . S
H1113 C1105 0.960 . S
H1114 C1106 0.930 . S
H1115 C1107 0.929 . S
H1116 C1124 0.929 . S
H1117 C1126 0.930 . S
H1118 C1128 0.954 . S
H1119 C1131 0.900 1_554 S
H1120 C1134 0.930 . S
H1121 C1136 0.960 . S
H1122 C1136 0.960 1_556 S
H1123 C1136 0.960 . S
C1124 H1116 0.929 . S
C1124 C1125 1.377 . S
C1124 C1126 1.384 . S
C1125 C1124 1.377 . S
C1125 C1131 1.421 . S
C1126 H1117 0.930 . S
C1126 C1124 1.384 . S
C1126 C1127 1.372 . S
C1127 C1126 1.372 . S
C1127 C1128 1.377 1_556 S
C1127 C1132 1.490 . S
C1128 H1118 0.954 . S
C1128 C1127 1.377 1_554 S
C1128 C1131 1.383 1_554 S
H1129 C1145 0.930 . S
H1130 C1146 0.931 . S
C1131 H1119 0.900 1_556 S
C1131 C1125 1.421 . S
C1131 C1128 1.383 1_556 S
C1132 C1127 1.490 . S
C1132 C1134 1.395 1_655 S
C1132 C1135 1.403 . S
H1133 C1139 0.930 1_554 S
C1134 H1120 0.930 . S
C1134 C1132 1.395 1_455 S
C1134 C1137 1.403 . S
C1135 C1132 1.403 . S
C1135 C1136 1.524 1_556 S
C1135 C1139 1.400 . S
C1136 H1121 0.960 . S
C1136 H1122 0.960 1_554 S
C1136 H1123 0.960 . S
C1136 C1135 1.524 1_554 S
C1137 C1134 1.403 . S
C1137 C1138 1.392 . S
C1137 C1141 1.495 . S
C1138 C1137 1.392 . S
C1138 C1139 1.385 1_455 S
C1138 C1140 1.478 . S
C1139 H1133 0.930 1_556 S
C1139 C1135 1.400 . S
C1139 C1138 1.385 1_655 S
C1140 C1138 1.478 . S
C1140 C1142 1.381 . S
C1140 C1146 1.383 1_556 S
C1141 C1137 1.495 . S
C1141 H1147 0.959 . S
C1141 H1148 0.961 . S
C1141 H1149 0.960 . S
C1142 C1140 1.381 . S
C1142 C1143 1.394 . S
C1142 H1150 0.930 . S
C1143 C1142 1.394 . S
C1143 C1144 1.383 . S
C1143 H1151 0.929 . S
C1144 C1143 1.383 . S
C1144 C1145 1.377 1_556 S
C1145 H1129 0.930 . S
C1145 C1144 1.377 1_554 S
C1145 C1146 1.379 . S
C1146 H1130 0.931 . S
C1146 C1140 1.383 1_554 S
C1146 C1145 1.379 . S
H1147 C1141 0.959 . S
H1148 C1141 0.961 . S
H1149 C1141 0.960 . S
H1150 C1142 0.930 . S
H1151 C1143 0.929 . S
H1152 C1160 0.929 . S
H1153 C1162 0.930 . S
H1154 C1164 0.930 . S
H1155 C1167 0.929 . S
H1156 C1170 0.930 . S
H1157 C1172 0.960 . S
H1158 C1172 0.960 . S
H1159 C1172 0.960 . S
C1160 H1152 0.929 . S
C1160 C1161 1.377 . S
C1160 C1162 1.384 . S
C1161 C1160 1.377 . S
C1161 C1167 1.390 . S
C1162 H1153 0.930 . S
C1162 C1160 1.384 . S
C1162 C1163 1.372 . S
C1163 C1162 1.372 . S
C1163 C1164 1.400 . S
C1163 C1168 1.490 . S
C1164 H1154 0.930 . S
C1164 C1163 1.400 . S
C1164 C1167 1.386 . S
H1165 C1181 0.930 . S
H1166 C1182 0.931 . S
C1167 H1155 0.929 . S
C1167 C1161 1.390 . S
C1167 C1164 1.386 . S
C1168 C1163 1.490 . S
C1168 C1170 1.395 . S
C1168 C1171 1.403 . S
H1169 C1175 0.930 . S
C1170 H1156 0.930 . S
C1170 C1168 1.395 . S
C1170 C1173 1.403 . S
C1171 C1168 1.403 . S
C1171 C1172 1.524 . S
C1171 C1175 1.400 . S
C1172 H1157 0.960 . S
C1172 H1158 0.960 . S
C1172 H1159 0.960 . S
C1172 C1171 1.524 . S
C1173 C1170 1.403 . S
C1173 C1174 1.392 . S
C1173 C1177 1.495 . S
C1174 C1173 1.392 . S
C1174 C1175 1.385 . S
C1174 C1176 1.478 . S
C1175 H1169 0.930 . S
C1175 C1171 1.400 . S
C1175 C1174 1.385 . S
C1176 C1174 1.478 . S
C1176 C1178 1.381 . S
C1176 C1182 1.383 . S
C1177 C1173 1.495 . S
C1177 H1183 0.959 . S
C1177 H1184 0.961 . S
C1177 H1185 0.960 . S
C1178 C1176 1.381 . S
C1178 C1179 1.394 . S
C1178 H1186 0.930 . S
C1179 C1178 1.394 . S
C1179 C1180 1.383 . S
C1179 H1187 0.929 . S
C1180 C1179 1.383 . S
C1180 C1181 1.377 . S
C1181 H1165 0.930 . S
C1181 C1180 1.377 . S
C1181 C1182 1.379 . S
C1182 H1166 0.931 . S
C1182 C1176 1.383 . S
C1182 C1181 1.379 . S
H1183 C1177 0.959 . S
H1184 C1177 0.961 . S
H1185 C1177 0.960 . S
H1186 C1178 0.930 . S
H1187 C1179 0.929 . S
H1188 C1196 0.929 . S
H1189 C1198 0.930 . S
H1190 C1200 0.930 . S
H1191 C1203 0.929 . S
H1192 C1206 0.930 . S
H1193 C1208 0.960 . S
H1194 C1208 0.966 . S
H1195 C1208 0.960 . S
C1196 H1188 0.929 . S
C1196 C1197 1.377 . S
C1196 C1198 1.384 . S
C1197 C1196 1.377 . S
C1197 C1203 1.390 . S
C1198 H1189 0.930 . S
C1198 C1196 1.384 . S
C1198 C1199 1.372 . S
C1199 C1198 1.372 . S
C1199 C1200 1.400 . S
C1199 C1204 1.490 . S
C1200 H1190 0.930 . S
C1200 C1199 1.400 . S
C1200 C1203 1.386 . S
H1201 C1217 0.930 . S
H1202 C1218 0.931 . S
C1203 H1191 0.929 . S
C1203 C1197 1.390 . S
C1203 C1200 1.386 . S
C1204 C1199 1.490 . S
C1204 C1206 1.395 . S
C1204 C1207 1.403 . S
H1205 C1211 0.930 . S
C1206 H1192 0.930 . S
C1206 C1204 1.395 . S
C1206 C1209 1.403 . S
C1207 C1204 1.403 . S
C1207 C1208 1.524 1_455 S
C1207 C1211 1.400 . S
C1208 H1193 0.960 . S
C1208 H1194 0.966 . S
C1208 H1195 0.960 . S
C1208 C1207 1.524 1_655 S
C1209 C1206 1.403 . S
C1209 C1210 1.392 . S
C1209 C1213 1.495 . S
C1210 C1209 1.392 . S
C1210 C1211 1.385 . S
C1210 C1212 1.478 . S
C1211 H1205 0.930 . S
C1211 C1207 1.400 . S
C1211 C1210 1.385 . S
C1212 C1210 1.478 . S
C1212 C1214 1.381 . S
C1212 C1218 1.383 . S
C1213 C1209 1.495 . S
C1213 H1219 0.959 . S
C1213 H1220 0.961 . S
C1213 H1221 0.960 . S
C1214 C1212 1.381 . S
C1214 C1215 1.394 . S
C1214 H1222 0.930 . S
C1215 C1214 1.394 . S
C1215 C1216 1.383 . S
C1215 H1223 0.929 . S
C1216 C1215 1.383 . S
C1216 C1217 1.377 . S
C1217 H1201 0.930 . S
C1217 C1216 1.377 . S
C1217 C1218 1.379 . S
C1218 H1202 0.931 . S
C1218 C1212 1.383 . S
C1218 C1217 1.379 . S
H1219 C1213 0.959 . S
H1220 C1213 0.961 . S
H1221 C1213 0.960 . S
H1222 C1214 0.930 . S
H1223 C1215 0.929 . S
H1224 C1232 0.929 . S
H1225 C1234 0.930 . S
H1226 C1236 0.930 . S
H1227 C1239 0.929 . S
H1228 C1242 0.930 . S
H1229 C1244 0.960 . S
H1230 C1244 0.960 . S
H1231 C1244 0.960 . S
C1232 H1224 0.929 . S
C1232 C1233 1.377 . S
C1232 C1234 1.384 . S
C1233 C1232 1.377 . S
C1233 C1239 1.390 . S
C1234 H1225 0.930 . S
C1234 C1232 1.384 . S
C1234 C1235 1.372 . S
C1235 C1234 1.372 . S
C1235 C1236 1.400 . S
C1235 C1240 1.490 . S
C1236 H1226 0.930 . S
C1236 C1235 1.400 . S
C1236 C1239 1.386 . S
H1237 C1253 0.930 . S
H1238 C1254 0.931 . S
C1239 H1227 0.929 . S
C1239 C1233 1.390 . S
C1239 C1236 1.386 . S
C1240 C1235 1.490 . S
C1240 C1242 1.395 . S
C1240 C1243 1.403 . S
H1241 C1247 0.930 . S
C1242 H1228 0.930 . S
C1242 C1240 1.395 . S
C1242 C1245 1.403 . S
C1243 C1240 1.403 . S
C1243 C1244 1.524 . S
C1243 C1247 1.400 . S
C1244 H1229 0.960 . S
C1244 H1230 0.960 . S
C1244 H1231 0.960 . S
C1244 C1243 1.524 . S
C1245 C1242 1.403 . S
C1245 C1246 1.392 . S
C1245 C1249 1.495 . S
C1246 C1245 1.392 . S
C1246 C1247 1.385 . S
C1246 C1248 1.478 . S
C1247 H1241 0.930 . S
C1247 C1243 1.400 . S
C1247 C1246 1.385 . S
C1248 C1246 1.478 . S
C1248 C1250 1.381 . S
C1248 C1254 1.383 . S
C1249 C1245 1.495 . S
C1249 H1255 0.959 . S
C1249 H1256 0.961 . S
C1249 H1257 0.960 . S
C1250 C1248 1.381 . S
C1250 C1251 1.394 . S
C1250 H1258 0.930 . S
C1251 C1250 1.394 . S
C1251 C1252 1.383 . S
C1251 H1259 0.929 . S
C1252 C1251 1.383 . S
C1252 C1253 1.377 . S
C1253 H1237 0.930 . S
C1253 C1252 1.377 . S
C1253 C1254 1.379 . S
C1254 H1238 0.931 . S
C1254 C1248 1.383 . S
C1254 C1253 1.379 . S
H1255 C1249 0.959 . S
H1256 C1249 0.961 . S
H1257 C1249 0.960 . S
H1258 C1250 0.930 . S
H1259 C1251 0.929 . S
C405 C1 1.554 . S
C424 C315 1.462 . S
C441 C40 1.513 . S
C460 C349 1.416 . S
C496 C361 1.404 . S
C477 C99 1.504 . S
C513 C118 1.507 . S
C532 C395 1.378 . S
C568 C352 1.456 . S
C549 C16 1.546 . S
C604 C332 1.389 1_565 S
C585 C60 1.510 . S
C640 C379 1.363 . S
C621 C79 1.508 . S
C676 C370 1.381 . S
C657 C138 1.490 . S
C693 C21 1.538 . S
C712 C378 1.390 . S
C748 C340 1.438 . S
C729 C94 1.520 . S
C765 C133 1.496 . S
C784 C316 1.359 . S
C801 C55 1.522 . S
C820 C373 1.425 . S
C856 C331 1.591 . S
C837 C157 1.713 . S
C873 C196 1.706 . S
C892 C353 1.629 . S
C909 C255 1.715 . S
C928 C358 1.629 . S
C945 C289 1.723 . S
C964 C391 1.650 . S
C981 C172 1.729 . S
C1000 C336 1.633 . S
C1036 C328 1.651 . S
C1017 C216 1.741 . S
C1072 C382 1.644 . S
C1053 C235 1.740 . S
C1108 C374 1.606 . S
C1089 C294 1.674 . S
C1125 C177 1.678 . S
C1144 C394 1.559 . S
C1180 C337 1.640 . S
C1161 C250 1.746 . S
C1216 C319 1.609 . S
C1197 C274 1.693 . S
C1233 C211 1.703 . S
C1252 C357 1.630 . S
