# Generated by pormake.
# Topology pyr, (3,6)-cn, num edge types: 1
# Building blocks:
#     Node 0, Type 0, BuildingBlock: PAMTOO_clean_linker_0, # of connection points: 3
#     Node 1, Type 0, BuildingBlock: PAMTOO_clean_linker_0, # of connection points: 3
#     Node 2, Type 0, BuildingBlock: PAMTOO_clean_linker_0, # of connection points: 3
#     Node 3, Type 0, BuildingBlock: PAMTOO_clean_linker_0, # of connection points: 3
#     Node 4, Type 0, BuildingBlock: PAMTOO_clean_linker_0, # of connection points: 3
#     Node 5, Type 0, BuildingBlock: PAMTOO_clean_linker_0, # of connection points: 3
#     Node 6, Type 0, BuildingBlock: PAMTOO_clean_linker_0, # of connection points: 3
#     Node 7, Type 0, BuildingBlock: PAMTOO_clean_linker_0, # of connection points: 3
#     Node 8, Type 1, BuildingBlock: JUFBIX_clean_sbu_0, # of connection points: 6
#     Node 9, Type 1, BuildingBlock: JUFBIX_clean_sbu_0, # of connection points: 6
#     Node 10, Type 1, BuildingBlock: JUFBIX_clean_sbu_0, # of connection points: 6
#     Node 11, Type 1, BuildingBlock: JUFBIX_clean_sbu_0, # of connection points: 6
#     Edge 12, Type (0, 1), BuildingBlock: CIFDUS_clean_linker_0, # of connection points: 2
#     Edge 13, Type (0, 1), BuildingBlock: CIFDUS_clean_linker_0, # of connection points: 2
#     Edge 14, Type (0, 1), BuildingBlock: CIFDUS_clean_linker_0, # of connection points: 2
#     Edge 15, Type (0, 1), BuildingBlock: CIFDUS_clean_linker_0, # of connection points: 2
#     Edge 16, Type (0, 1), BuildingBlock: CIFDUS_clean_linker_0, # of connection points: 2
#     Edge 17, Type (0, 1), BuildingBlock: CIFDUS_clean_linker_0, # of connection points: 2
#     Edge 18, Type (0, 1), BuildingBlock: CIFDUS_clean_linker_0, # of connection points: 2
#     Edge 19, Type (0, 1), BuildingBlock: CIFDUS_clean_linker_0, # of connection points: 2
#     Edge 20, Type (0, 1), BuildingBlock: CIFDUS_clean_linker_0, # of connection points: 2
#     Edge 21, Type (0, 1), BuildingBlock: CIFDUS_clean_linker_0, # of connection points: 2
#     Edge 22, Type (0, 1), BuildingBlock: CIFDUS_clean_linker_0, # of connection points: 2
#     Edge 23, Type (0, 1), BuildingBlock: CIFDUS_clean_linker_0, # of connection points: 2
#     Edge 24, Type (0, 1), BuildingBlock: CIFDUS_clean_linker_0, # of connection points: 2
#     Edge 25, Type (0, 1), BuildingBlock: CIFDUS_clean_linker_0, # of connection points: 2
#     Edge 26, Type (0, 1), BuildingBlock: CIFDUS_clean_linker_0, # of connection points: 2
#     Edge 27, Type (0, 1), BuildingBlock: CIFDUS_clean_linker_0, # of connection points: 2
#     Edge 28, Type (0, 1), BuildingBlock: CIFDUS_clean_linker_0, # of connection points: 2
#     Edge 29, Type (0, 1), BuildingBlock: CIFDUS_clean_linker_0, # of connection points: 2
#     Edge 30, Type (0, 1), BuildingBlock: CIFDUS_clean_linker_0, # of connection points: 2
#     Edge 31, Type (0, 1), BuildingBlock: CIFDUS_clean_linker_0, # of connection points: 2
#     Edge 32, Type (0, 1), BuildingBlock: CIFDUS_clean_linker_0, # of connection points: 2
#     Edge 33, Type (0, 1), BuildingBlock: CIFDUS_clean_linker_0, # of connection points: 2
#     Edge 34, Type (0, 1), BuildingBlock: CIFDUS_clean_linker_0, # of connection points: 2
#     Edge 35, Type (0, 1), BuildingBlock: CIFDUS_clean_linker_0, # of connection points: 2
# Relax obj value: 0.137
# Max RMSD: 0.204
# Mean RMSD: 0.138
data_MOF--net-pyr--node1-JUFBIX_clean_sbu_0--node2-PAMTOO_clean_linker_0--edge1-CIFDUS_clean_linker_0
_symmetry_space_group_name_H-M    P1
_symmetry_Int_Tables_number       1
_symmetry_cell_setting            triclinic
loop_
_symmetry_equiv_pos_as_xyz
'x, y, z'
_cell_length_a     31.823684
_cell_length_b     30.771827
_cell_length_c     32.466622
_cell_angle_alpha  81.555182
_cell_angle_beta   89.467888
_cell_angle_gamma 94.56894
loop_
_atom_site_label
_atom_site_type_symbol
_atom_site_fract_x
_atom_site_fract_y
_atom_site_fract_z
_atom_type_partial_charge
H0 H 0.16087 0.21375 0.23506 0.0
H1 H 0.25969 0.12546 0.25514 0.0
H2 H 0.26115 0.21868 0.14345 0.0
H3 H 0.28154 0.12624 0.13465 0.0
C4 C 0.30129 0.11985 0.16268 0.0
O5 O 0.30051 0.15509 0.18482 0.0
H6 H 0.28723 0.08942 0.18232 0.0
C7 C 0.18949 0.20168 0.22452 0.0
C8 C 0.20809 0.22087 0.18556 0.0
C9 C 0.20782 0.16762 0.25053 0.0
C10 C 0.24505 0.15187 0.23625 0.0
C11 C 0.26382 0.16977 0.19744 0.0
C12 C 0.24544 0.20427 0.17254 0.0
H13 H 0.41948 0.95256 0.6828 0.0
H14 H 0.41055 0.881 0.57855 0.0
H15 H 0.5032 0.85141 0.67139 0.0
H16 H 0.52823 0.84817 0.57889 0.0
C17 C 0.49714 0.83284 0.57071 0.0
O18 O 0.46919 0.82933 0.60385 0.0
H19 H 0.48494 0.85373 0.54323 0.0
C20 C 0.43138 0.9285 0.66534 0.0
C21 C 0.46463 0.90401 0.68096 0.0
C22 C 0.41196 0.9205 0.62834 0.0
C23 C 0.42621 0.88835 0.60653 0.0
C24 C 0.45922 0.86379 0.62202 0.0
C25 C 0.47852 0.87163 0.65903 0.0
H26 H 0.76657 0.31947 0.98365 0.0
H27 H 0.68241 0.33506 0.87995 0.0
H28 H 0.78802 0.42933 0.88537 0.0
H29 H 0.71571 0.47127 0.84589 0.0
C30 C 0.69709 0.44095 0.83948 0.0
O31 O 0.723 0.40677 0.84189 0.0
H32 H 0.67121 0.43295 0.8634 0.0
C33 C 0.75683 0.3379 0.95477 0.0
C34 C 0.78111 0.37655 0.93759 0.0
C35 C 0.72124 0.32205 0.93422 0.0
C36 C 0.71001 0.34594 0.89614 0.0
C37 C 0.73405 0.38444 0.8787 0.0
C38 C 0.76971 0.39946 0.89916 0.0
H39 H 0.90942 0.7143 0.51756 0.0
H40 H 0.9361 0.63495 0.42288 0.0
H41 H 1.01462 0.75205 0.43144 0.0
H42 H 1.01311 0.73227 0.3391 0.0
C43 C 0.98894 0.70515 0.35105 0.0
O44 O 0.99999 0.68642 0.39032 0.0
H45 H 0.95825 0.72025 0.35162 0.0
C46 C 0.9288 0.70793 0.49184 0.0
C47 C 0.9638 0.73767 0.47754 0.0
C48 C 0.91871 0.67014 0.47282 0.0
C49 C 0.94401 0.66264 0.43926 0.0
C50 C 0.97837 0.69207 0.42481 0.0
C51 C 0.98861 0.72896 0.44417 0.0
H52 H 0.84139 0.95243 0.8298 0.0
H53 H 0.8501 0.84857 0.93339 0.0
H54 H 0.94276 0.8669 0.83422 0.0
H55 H 0.90632 0.77668 0.86311 0.0
C56 C 0.90952 0.77669 0.89724 0.0
O57 O 0.91912 0.81942 0.90512 0.0
H58 H 0.87847 0.76395 0.9121 0.0
C59 C 0.85719 0.92483 0.84526 0.0
C60 C 0.89428 0.91294 0.82688 0.0
C61 C 0.84069 0.90214 0.88383 0.0
C62 C 0.86227 0.8669 0.9041 0.0
C63 C 0.89896 0.85415 0.88604 0.0
C64 C 0.91482 0.87744 0.84788 0.0
H65 H 0.6706 0.05823 0.42338 0.0
H66 H 0.56307 0.13249 0.39211 0.0
H67 H 0.63966 0.15906 0.49437 0.0
H68 H 0.55451 0.15612 0.51041 0.0
C69 C 0.54764 0.18154 0.48377 0.0
O70 O 0.57466 0.1813 0.45033 0.0
H71 H 0.51481 0.17417 0.4739 0.0
C72 C 0.64969 0.08259 0.42984 0.0
C73 C 0.65921 0.10711 0.46235 0.0
C74 C 0.61571 0.09188 0.40333 0.0
C75 C 0.58874 0.12345 0.41244 0.0
C76 C 0.59732 0.14714 0.44542 0.0
C77 C 0.63263 0.13934 0.4699 0.0
H78 H 0.36928 0.70334 0.10191 0.0
H79 H 0.34824 0.59628 0.20309 0.0
H80 H 0.45752 0.68703 0.20216 0.0
H81 H 0.46564 0.58919 0.22087 0.0
C82 C 0.44041 0.5826 0.24554 0.0
O83 O 0.41583 0.61785 0.24341 0.0
H84 H 0.42047 0.55276 0.23997 0.0
C85 C 0.37954 0.68529 0.13075 0.0
C86 C 0.41674 0.70037 0.14937 0.0
C87 C 0.35457 0.64771 0.14964 0.0
C88 C 0.36686 0.6254 0.18803 0.0
C89 C 0.40393 0.63974 0.2067 0.0
C90 C 0.42868 0.67695 0.18744 0.0
H91 H 0.09037 0.34872 0.69811 0.0
H92 H 0.12981 0.48426 0.65024 0.0
H93 H 0.07513 0.39962 0.56847 0.0
H94 H 0.13793 0.51253 0.52159 0.0
C95 C 0.13866 0.48043 0.54222 0.0
O96 O 0.10878 0.47871 0.57382 0.0
H97 H 0.12966 0.45458 0.52258 0.0
C98 C 0.0932 0.37579 0.67254 0.0
C99 C 0.08135 0.36851 0.63219 0.0
C100 C 0.11068 0.4176 0.67952 0.0
C101 C 0.11628 0.4519 0.64571 0.0
C102 C 0.10327 0.44532 0.606 0.0
C103 C 0.08497 0.40415 0.59952 0.0
Co104 Co 1.01443 0.05926 0.52976 0.0
C105 C 0.04503 0.97563 0.52777 0.0
Co106 Co 0.07919 0.05142 0.55136 0.0
C107 C 0.92332 0.06593 0.52657 0.0
C108 C 0.95019 0.04433 0.47302 0.0
N109 N 0.96049 0.05908 0.5091 0.0
N110 N 0.8906 0.05521 0.50286 0.0
C111 C 0.9073 0.04177 0.46923 0.0
H112 H 0.92014 0.0764 0.55677 0.0
H113 H 0.97238 0.03403 0.45169 0.0
C114 C 0.04713 0.13445 0.55468 0.0
N115 N 0.13423 0.05161 0.56933 0.0
C116 C 0.15666 0.0185 0.58687 0.0
C117 C 0.16269 0.08689 0.56092 0.0
N118 N 0.19791 0.03194 0.58904 0.0
C119 C 0.20173 0.0749 0.57295 0.0
C120 C 0.07671 0.08301 0.46614 0.0
O121 O 1.01336 0.11842 0.54019 0.0
O122 O 0.07816 0.11103 0.56106 0.0
O123 O 0.10094 0.07142 0.49587 0.0
O124 O 0.03724 0.08062 0.47396 0.0
O125 O 0.07926 0.99151 0.54162 0.0
H126 H 0.15601 0.11888 0.54489 0.0
H127 H 0.14362 0.98476 0.59542 0.0
O128 O 1.01512 1.00025 0.52013 0.0
O129 O 0.99268 0.03787 0.58531 0.0
O130 O 0.05732 0.03098 0.60695 0.0
C131 C 1.01768 0.02681 0.6148 0.0
H132 H 0.88954 0.03016 0.44413 0.0
H133 H 0.231 0.0957 0.56884 0.0
Co134 Co 0.56108 1.00089 1.00764 0.0
C135 C 0.55038 0.93056 0.07438 0.0
Co136 Co 0.59213 1.01227 0.06574 0.0
C137 C 0.5416 0.9915 0.92214 0.0
C138 C 0.49046 0.96857 0.96535 0.0
N139 N 0.53005 0.98826 0.96266 0.0
N140 N 0.51087 0.9739 0.89989 0.0
C141 C 0.47872 0.95942 0.92683 0.0
H142 H 0.57248 1.00448 0.90964 0.0
H143 H 0.4719 0.95993 0.99389 0.0
C144 C 0.60228 0.08276 0.99942 0.0
N145 N 0.62326 0.02463 0.11095 0.0
C146 C 0.61237 0.02085 0.15171 0.0
C147 C 0.66363 0.04185 0.10832 0.0
N148 N 0.64457 0.03506 0.17461 0.0
C149 C 0.67674 0.04834 0.14715 0.0
C150 C 0.64216 0.97497 1.00801 0.0
O151 O 0.57991 0.05765 0.97899 0.0
O152 O 0.61069 0.06898 0.03701 0.0
O153 O 0.64105 0.98763 0.0437 0.0
O154 O 0.6093 0.9773 0.98609 0.0
O155 O 0.57301 0.95575 0.0945 0.0
H156 H 0.68214 0.05008 0.07972 0.0
H157 H 0.58142 1.00814 0.16415 0.0
O158 O 0.54249 0.94393 0.03657 0.0
O159 O 0.51295 0.02499 0.02904 0.0
O160 O 0.54313 0.03668 0.08707 0.0
C161 C 0.5109 0.03876 0.06405 0.0
H162 H 0.44925 0.94261 0.91922 0.0
H163 H 0.7073 0.06318 0.15421 0.0
Co164 Co 0.56974 0.5068 0.5421 0.0
C165 C 0.50671 0.51781 0.48329 0.0
Co166 Co 0.50512 0.49703 0.56943 0.0
C167 C 0.65508 0.54568 0.52798 0.0
C168 C 0.64123 0.49473 0.49063 0.0
N169 N 0.62403 0.51602 0.51926 0.0
N170 N 0.69089 0.54372 0.50601 0.0
C171 C 0.68239 0.51156 0.48256 0.0
H172 H 0.65163 0.56814 0.55028 0.0
H173 H 0.62483 0.46888 0.47626 0.0
C174 C 0.56824 0.48612 0.62815 0.0
N175 N 0.45118 0.48731 0.5928 0.0
C176 C 0.41567 0.50562 0.57931 0.0
C177 C 0.43835 0.45592 0.62492 0.0
N178 N 0.38119 0.48638 0.60134 0.0
C179 C 0.39537 0.45518 0.63014 0.0
C180 C 0.53504 0.42068 0.54898 0.0
O181 O 0.59248 0.49434 0.59615 0.0
O182 O 0.52861 0.48616 0.62348 0.0
O183 O 0.50423 0.4366 0.56485 0.0
O184 O 0.56784 0.44582 0.53683 0.0
O185 O 0.48264 0.50793 0.51532 0.0
H186 H 0.4587 0.43366 0.64227 0.0
H187 H 0.41476 0.53081 0.55236 0.0
O188 O 0.5465 0.51941 0.48778 0.0
O189 O 0.57059 0.56729 0.54767 0.0
O190 O 0.50583 0.55771 0.57331 0.0
C191 C 0.5386 0.58301 0.56165 0.0
H192 H 0.70404 0.50171 0.4604 0.0
H193 H 0.37589 0.43257 0.65256 0.0
Co194 Co 0.08498 0.50813 1.01893 0.0
C195 C 1.00156 0.46885 1.02135 0.0
Co196 Co 0.04873 0.50939 0.07687 0.0
C197 C 0.10438 0.47385 0.94337 0.0
C198 C 0.13889 0.5358 0.94637 0.0
N199 N 0.11198 0.50483 0.9685 0.0
N200 N 0.12474 0.48458 0.90609 0.0
C201 C 0.14682 0.52347 0.90813 0.0
H202 H 0.083 0.44469 0.95177 0.0
H203 H 0.1502 0.56654 0.95646 0.0
C204 C 0.13239 0.54893 0.07424 0.0
N205 N 1.02193 0.51364 0.12667 0.0
C206 C 0.02802 0.5486 0.14708 0.0
C207 C 0.99621 0.48413 0.15198 0.0
N208 N 1.00802 0.54208 0.18442 0.0
C209 C 0.98743 0.50169 0.18764 0.0
C210 C 0.0947 0.43566 0.08133 0.0
O211 O 0.13401 0.53896 0.03767 0.0
O212 O 0.09839 0.53915 0.09552 0.0
O213 O 0.06857 0.45526 0.10034 0.0
O214 O 0.10614 0.45213 0.04405 0.0
O215 O 0.9993 0.47937 0.05773 0.0
H216 H 0.98567 0.45156 0.14553 0.0
H217 H 0.04748 0.57827 0.13497 0.0
O218 O 0.03602 0.47774 1.00072 0.0
O219 O 0.06317 0.56422 0.99489 0.0
O220 O 0.02894 0.56376 0.05368 0.0
C221 C 0.03822 0.58245 1.01689 0.0
H222 H 0.16528 0.54311 0.88289 0.0
H223 H 0.96889 0.4854 0.21444 0.0
H224 H 0.12381 0.15257 0.27547 0.0
H225 H 0.24963 0.14306 0.32281 0.0
H226 H 0.22061 0.11563 0.3923 0.0
H227 H 0.15972 0.09545 0.44067 0.0
H228 H 0.03383 0.10677 0.39433 0.0
H229 H 0.06269 0.13292 0.32416 0.0
C230 C 0.14504 0.14489 0.30094 0.0
C231 C 0.18915 0.14991 0.29321 0.0
C232 C 0.12806 0.12953 0.34142 0.0
C233 C 0.21569 0.13892 0.32704 0.0
C234 C 0.19907 0.12351 0.36714 0.0
C235 C 0.13847 0.10357 0.41527 0.0
C236 C 0.09447 0.09902 0.42315 0.0
C237 C 0.15533 0.11875 0.3748 0.0
C238 C 0.06773 0.10989 0.38954 0.0
C239 C 0.08427 0.12487 0.34924 0.0
H240 H 0.49593 0.97919 0.70797 0.0
H241 H 0.46859 0.83961 0.74691 0.0
H242 H 0.48423 0.84859 0.81886 0.0
H243 H 0.49797 0.89743 0.8715 0.0
H244 H 0.52722 0.03645 0.83346 0.0
H245 H 0.51901 0.02681 0.76 0.0
C246 C 0.49415 0.95079 0.73224 0.0
C247 C 0.48094 0.9089 0.72253 0.0
C248 C 0.50317 0.95625 0.77347 0.0
C249 C 0.47894 0.8721 0.75385 0.0
C250 C 0.48757 0.87726 0.79494 0.0
C251 C 0.50312 0.92531 0.84685 0.0
C252 C 0.51262 0.96755 0.8572 0.0
C253 C 0.49855 0.91931 0.8052 0.0
C254 C 0.51986 1.00372 0.82562 0.0
C255 C 0.51494 0.99818 0.78391 0.0
H256 H 0.61419 0.43798 0.81762 0.0
H257 H 0.74022 0.46385 0.76537 0.0
H258 H 0.71184 0.4799 0.69531 0.0
H259 H 0.65106 0.48726 0.64922 0.0
H260 H 0.52489 0.46236 0.70207 0.0
H261 H 0.55343 0.44539 0.77156 0.0
C262 C 0.63537 0.44699 0.79083 0.0
C263 C 0.67921 0.44952 0.79645 0.0
C264 C 0.6188 0.45649 0.75083 0.0
C265 C 0.70636 0.46149 0.76159 0.0
C266 C 0.69014 0.47073 0.72165 0.0
C267 C 0.62977 0.47811 0.67592 0.0
C268 C 0.58586 0.47615 0.67033 0.0
C269 C 0.64639 0.46845 0.71591 0.0
C270 C 0.5588 0.46426 0.70537 0.0
C271 C 0.57509 0.45447 0.74518 0.0
H272 H 0.05002 0.68517 0.29983 0.0
H273 H 0.92153 0.64713 0.34079 0.0
H274 H 0.91629 0.59109 0.29414 0.0
H275 H 0.94792 0.55517 0.23932 0.0
H276 H 0.0765 0.59456 0.1987 0.0
H277 H 0.08215 0.6479 0.24727 0.0
C278 C 1.02091 0.66462 0.29833 0.0
C279 C 0.98594 0.67061 0.3228 0.0
C280 C 1.01817 0.63289 0.2714 0.0
C281 C 0.94857 0.64334 0.32151 0.0
C282 C 0.94563 0.61137 0.29497 0.0
C283 C 0.97718 0.57519 0.24152 0.0
C284 C 1.01152 0.57135 0.21515 0.0
C285 C 0.98014 0.60612 0.26944 0.0
C286 C 0.04933 0.59757 0.21808 0.0
C287 C 0.05269 0.62792 0.24598 0.0
H288 H 0.32806 0.10142 0.08753 0.0
H289 H 0.37377 0.11621 0.20947 0.0
H290 H 0.44289 0.0938 0.19022 0.0
H291 H 0.48976 0.06659 0.13888 0.0
H292 H 0.441 0.05085 1.01774 0.0
H293 H 0.37443 0.07691 0.03645 0.0
C294 C 0.35337 0.10055 0.1097 0.0
C295 C 0.34587 0.11159 0.1496 0.0
C296 C 0.3927 0.08693 0.0986 0.0
C297 C 0.37885 0.10895 0.17824 0.0
C298 C 0.41833 0.09578 0.16728 0.0
C299 C 0.46466 0.06909 0.11652 0.0
C300 C 0.47088 0.05645 0.07683 0.0
C301 C 0.42561 0.08418 0.12759 0.0
C302 C 0.43761 0.06001 0.04849 0.0
C303 C 0.39924 0.07504 0.05914 0.0
H304 H 0.33646 0.91394 0.66793 0.0
H305 H 0.4046 0.97719 0.5571 0.0
H306 H 0.34313 0.01701 0.53443 0.0
H307 H 0.27092 0.03496 0.54741 0.0
H308 H 0.20109 0.96945 0.65621 0.0
H309 H 0.26214 0.92844 0.67857 0.0
C310 C 0.33757 0.9365 0.63886 0.0
C311 C 0.3747 0.94337 0.61427 0.0
C312 C 0.30199 0.95845 0.62582 0.0
C313 C 0.37614 0.97189 0.57636 0.0
C314 C 0.34114 0.99451 0.56351 0.0
C315 C 0.26926 1.01167 0.576 0.0
C316 C 0.23214 1.00541 0.60058 0.0
C317 C 0.30409 0.98826 0.58816 0.0
C318 C 0.22958 0.97455 0.63703 0.0
C319 C 0.26443 0.95142 0.6498 0.0
H320 H 0.86023 0.39979 0.90593 0.0
H321 H 0.78583 0.38853 1.01913 0.0
H322 H 0.84745 0.41501 0.05581 0.0
H323 H 0.92258 0.4428 0.0552 0.0
H324 H 0.9967 0.45152 0.94171 0.0
H325 H 0.93543 0.42454 0.90597 0.0
C326 C 0.85755 0.40337 0.93858 0.0
C327 C 0.81857 0.39257 0.95972 0.0
C328 C 0.89317 0.41803 0.95954 0.0
C329 C 0.81561 0.3966 1.00222 0.0
C330 C 0.85079 0.41179 0.02317 0.0
C331 C 0.92535 0.43854 1.02275 0.0
C332 C 0.9643 0.44937 1.0013 0.0
C333 C 0.88979 0.42273 1.00213 0.0
C334 C 0.96726 0.44349 0.95918 0.0
C335 C 0.93213 0.42815 0.93853 0.0
H336 H 0.84007 0.6915 0.49308 0.0
H337 H 0.91118 0.58026 0.48045 0.0
H338 H 0.84684 0.53102 0.49054 0.0
H339 H 0.76966 0.52009 0.49839 0.0
H340 H 0.69853 0.63035 0.51325 0.0
H341 H 0.76352 0.67927 0.50769 0.0
C342 C 0.84167 0.65637 0.49345 0.0
C343 C 0.88043 0.63979 0.48541 0.0
C344 C 0.80444 0.62807 0.49941 0.0
C345 C 0.8817 0.59412 0.4857 0.0
C346 C 0.84491 0.56586 0.49156 0.0
C347 C 0.76853 0.55482 0.50049 0.0
C348 C 0.72943 0.57171 0.50578 0.0
C349 C 0.806 0.5826 0.49748 0.0
C350 C 0.72832 0.61659 0.5093 0.0
C351 C 0.76544 0.64458 0.50594 0.0
H352 H 0.16576 0.28697 0.21145 0.0
H353 H 0.20747 0.24146 0.09947 0.0
H354 H 0.17799 0.30368 0.05726 0.0
H355 H 0.139 0.37164 0.05175 0.0
H356 H 0.09336 0.41168 0.16496 0.0
H357 H 0.12453 0.35077 0.20625 0.0
C358 C 0.16788 0.28976 0.17783 0.0
C359 C 0.18913 0.25881 0.15921 0.0
C360 C 0.14976 0.32502 0.15351 0.0
C361 C 0.19215 0.26469 0.11528 0.0
C362 C 0.17488 0.30029 0.09087 0.0
C363 C 0.1358 0.36691 0.08541 0.0
C364 C 0.11359 0.39658 0.10489 0.0
C365 C 0.15352 0.33082 0.10958 0.0
C366 C 0.10984 0.38956 0.14872 0.0
C367 C 0.12787 0.35463 0.17262 0.0
H368 H 0.68495 0.25743 0.89315 0.0
H369 H 0.7014 0.29271 1.01632 0.0
H370 H 0.66561 0.22231 0.04685 0.0
H371 H 0.63183 0.1499 0.03907 0.0
H372 H 0.61188 0.11518 0.91632 0.0
H373 H 0.64595 0.18681 0.8851 0.0
C374 C 0.68012 0.25014 0.92663 0.0
C375 C 0.6965 0.28032 0.95234 0.0
C376 C 0.65883 0.20972 0.94409 0.0
C377 C 0.69017 0.26984 0.99573 0.0
C378 C 0.66939 0.22966 1.01328 0.0
C379 C 0.63474 0.15804 1.00544 0.0
C380 C 0.61967 0.12715 0.98004 0.0
C381 C 0.65409 0.19918 0.98781 0.0
C382 C 0.62322 0.13841 0.93655 0.0
C383 C 0.64283 0.17928 0.91871 0.0
H384 H 0.04013 0.77772 0.4949 0.0
H385 H 0.90654 0.79361 0.49604 0.0
H386 H 0.92037 0.86777 0.51334 0.0
H387 H 0.97004 0.92981 0.52271 0.0
H388 H 0.10387 0.91586 0.52132 0.0
H389 H 0.09031 0.83918 0.50901 0.0
C390 C 1.01405 0.79736 0.49919 0.0
C391 C 0.97232 0.78009 0.49399 0.0
C392 C 1.02228 0.84043 0.50846 0.0
C393 C 0.93887 0.80572 0.50031 0.0
C394 C 0.94678 0.84837 0.50976 0.0
C395 C 0.99638 0.91009 0.51972 0.0
C396 C 0.03799 0.92872 0.52223 0.0
C397 C 0.98832 0.86631 0.51298 0.0
C398 C 0.07161 0.90238 0.51918 0.0
C399 C 0.06382 0.85859 0.51216 0.0
H400 H 0.56601 0.78462 0.57781 0.0
H401 H 0.43562 0.77921 0.54273 0.0
H402 H 0.4366 0.70084 0.53724 0.0
H403 H 0.47341 0.63316 0.54671 0.0
H404 H 0.605 0.63897 0.57753 0.0
H405 H 0.60492 0.71808 0.58056 0.0
C406 C 0.53815 0.76635 0.56822 0.0
C407 C 0.50077 0.78727 0.56067 0.0
C408 C 0.53905 0.72147 0.56501 0.0
C409 C 0.46472 0.76348 0.54842 0.0
C410 C 0.4652 0.71877 0.5456 0.0
C411 C 0.50198 0.65186 0.55415 0.0
C412 C 0.53892 0.63054 0.56267 0.0
C413 C 0.50193 0.69727 0.55467 0.0
C414 C 0.57613 0.65496 0.57124 0.0
C415 C 0.57609 0.70006 0.5729 0.0
H416 H 0.97677 0.93617 0.80123 0.0
H417 H 0.84925 0.94314 0.75817 0.0
H418 H 0.87564 0.9801 0.69009 0.0
H419 H 0.93504 1.00878 0.64151 0.0
H420 H 0.06255 1.00047 0.68433 0.0
H421 H 0.03605 0.96563 0.75306 0.0
C422 C 0.95465 0.94549 0.77695 0.0
C423 C 0.91088 0.93666 0.78531 0.0
C424 C 0.97009 0.96658 0.73747 0.0
C425 C 0.88299 0.94985 0.75326 0.0
C426 C 0.8981 0.97082 0.71403 0.0
C427 C 0.9571 0.99959 0.6659 0.0
C428 C 1.0009 1.00742 0.65738 0.0
C429 C 0.94161 0.97922 0.70563 0.0
C430 C 0.02876 0.99503 0.68964 0.0
C431 C 1.0136 0.97496 0.72912 0.0
H432 H 0.68014 0.07444 0.35418 0.0
H433 H 0.54416 0.06997 0.36057 0.0
H434 H 0.54071 0.05014 0.29037 0.0
H435 H 0.57707 0.03917 0.22544 0.0
H436 H 0.71274 0.03811 0.22347 0.0
H437 H 0.71517 0.05381 0.29447 0.0
C438 C 0.64946 0.06769 0.34124 0.0
C439 C 0.61248 0.07383 0.36309 0.0
C440 C 0.64763 0.05559 0.30137 0.0
C441 C 0.57329 0.06625 0.34446 0.0
C442 C 0.57125 0.05467 0.30432 0.0
C443 C 0.60709 0.04155 0.24072 0.0
C444 C 0.64476 0.03855 0.21847 0.0
C445 C 0.60834 0.05006 0.28215 0.0
C446 C 0.68333 0.04168 0.2391 0.0
C447 C 0.68479 0.05038 0.27993 0.0
H448 H 0.40052 0.54938 0.31921 0.0
H449 H 0.52316 0.59739 0.26656 0.0
H450 H 0.55468 0.58123 0.33507 0.0
H451 H 0.54741 0.55242 0.40993 0.0
H452 H 0.42413 0.50588 0.46274 0.0
H453 H 0.39294 0.52229 0.39445 0.0
C454 C 0.43411 0.5563 0.32295 0.0
C455 C 0.45958 0.57408 0.288 0.0
C456 C 0.45194 0.54702 0.36243 0.0
C457 C 0.50302 0.58336 0.29304 0.0
C458 C 0.52103 0.5741 0.33217 0.0
C459 C 0.51374 0.54576 0.40649 0.0
C460 C 0.48826 0.52772 0.44147 0.0
C461 C 0.49584 0.55567 0.36707 0.0
C462 C 0.44459 0.51969 0.43642 0.0
C463 C 0.42665 0.52908 0.39733 0.0
H464 H 0.06418 0.39685 0.75154 0.0
H465 H 0.18405 0.45882 0.7021 0.0
H466 H 0.20044 0.48233 0.76925 0.0
H467 H 0.17849 0.49002 0.84031 0.0
H468 H 0.05715 0.43082 0.88877 0.0
H469 H 0.04414 0.40068 0.82439 0.0
C470 C 0.0942 0.41478 0.75577 0.0
C471 C 0.12271 0.42636 0.72184 0.0
C472 C 0.10313 0.42888 0.79433 0.0
C473 C 0.16136 0.44997 0.72764 0.0
C474 C 0.17076 0.46341 0.76602 0.0
C475 C 0.14921 0.47051 0.83687 0.0
C476 C 0.11885 0.46314 0.86951 0.0
C477 C 0.14146 0.45396 0.79929 0.0
C478 C 0.08141 0.43691 0.8646 0.0
C479 C 0.07372 0.41985 0.82752 0.0
H480 H 0.82178 0.91211 0.96503 0.0
H481 H 0.76794 0.92029 0.84299 0.0
H482 H 0.70234 0.9421 0.8703 0.0
H483 H 0.6599 0.96011 0.92856 0.0
H484 H 0.71399 0.95456 0.05036 0.0
H485 H 0.77905 0.93043 0.02365 0.0
C486 C 0.7956 0.91838 0.94446 0.0
C487 C 0.80024 0.9146 0.90178 0.0
C488 C 0.75769 0.9315 0.9604 0.0
C489 C 0.76582 0.92338 0.87573 0.0
C490 C 0.72805 0.93572 0.89142 0.0
C491 C 0.68579 0.95343 0.94941 0.0
C492 C 0.68161 0.95909 0.99164 0.0
C493 C 0.72359 0.94012 0.93365 0.0
C494 C 0.71596 0.95055 1.01782 0.0
C495 C 0.75334 0.9367 1.00251 0.0
H496 H 0.69688 0.03225 0.49034 0.0
H497 H 0.71407 0.17389 0.48151 0.0
H498 H 0.78705 0.16917 0.50244 0.0
H499 H 0.84937 0.12593 0.51016 0.0
H500 H 0.83363 0.98576 0.5111 0.0
H501 H 0.75707 0.98835 0.50653 0.0
C502 C 0.71647 0.06203 0.49352 0.0
C503 C 0.70014 0.10331 0.48373 0.0
C504 C 0.75896 0.05926 0.50378 0.0
C505 C 0.72564 0.14157 0.48898 0.0
C506 C 0.76762 0.13898 0.50055 0.0
C507 C 0.82875 0.09601 0.51082 0.0
C508 C 0.84645 0.05574 0.51103 0.0
C509 C 0.78509 0.0982 0.50624 0.0
C510 C 0.8201 0.01696 0.51108 0.0
C511 C 0.77656 0.01855 0.50817 0.0
H512 H 0.27652 0.62277 0.18439 0.0
H513 H 0.34632 0.63646 0.06814 0.0
H514 H 0.28379 0.60835 0.03401 0.0
H515 H 0.20947 0.5779 0.03765 0.0
H516 H 0.13971 0.56575 0.15406 0.0
H517 H 0.20174 0.59512 0.18741 0.0
C518 C 0.27803 0.61944 0.15163 0.0
C519 C 0.31607 0.6315 0.12892 0.0
C520 C 0.24187 0.6035 0.13214 0.0
C521 C 0.31736 0.62765 0.08629 0.0
C522 C 0.28164 0.61142 0.06678 0.0
C523 C 0.20779 0.58187 0.07025 0.0
C524 C 0.1699 0.56938 0.09323 0.0
C525 C 0.24373 0.59902 0.08942 0.0
C526 C 0.16835 0.57499 0.13547 0.0
C527 C 0.20391 0.59173 0.15472 0.0
H528 H 0.20271 0.54439 0.5468 0.0
H529 H 0.17285 0.40383 0.57296 0.0
H530 H 0.24447 0.39364 0.59679 0.0
H531 H 0.31662 0.42422 0.60618 0.0
H532 H 0.34882 0.56389 0.57492 0.0
H533 H 0.27551 0.57513 0.5564 0.0
C534 C 0.21199 0.51164 0.55792 0.0
C535 C 0.18261 0.47492 0.55842 0.0
C536 C 0.25368 0.50592 0.57019 0.0
C537 C 0.19489 0.43257 0.57269 0.0
C538 C 0.23585 0.42673 0.58609 0.0
C539 C 0.30741 0.45716 0.59589 0.0
C540 C 0.33787 0.49325 0.59214 0.0
C541 C 0.26562 0.46309 0.5845 0.0
C542 C 0.32581 0.53567 0.57784 0.0
C543 C 0.28397 0.54205 0.56738 0.0
H544 H 0.92315 0.74206 0.97819 0.0
H545 H 0.96949 0.74123 0.85336 0.0
H546 H 1.01537 0.68318 0.87875 0.0
H547 H 0.0382 0.62779 0.93628 0.0
H548 H 0.99085 0.62989 0.061 0.0
H549 H 0.95024 0.69161 0.03603 0.0
C550 C 0.94385 0.72964 0.95671 0.0
C551 C 0.94263 0.74584 0.91394 0.0
C552 C 0.96987 0.69583 0.97152 0.0
C553 C 0.96966 0.72933 0.88645 0.0
C554 C 0.99581 0.6959 0.90096 0.0
C555 C 1.01944 0.64211 0.95805 0.0
C556 C 1.01758 0.6235 1.00053 0.0
C557 C 0.99557 0.67809 0.94339 0.0
C558 C 0.9929 0.64286 0.0281 0.0
C559 C 0.96948 0.6784 1.01387 0.0
H560 H 0.46013 0.76397 0.18693 0.0
H561 H 0.43273 0.7273 0.06595 0.0
H562 H 0.47213 0.79449 0.0325 0.0
H563 H 0.51286 0.86456 0.03722 0.0
H564 H 0.54356 0.8998 0.15787 0.0
H565 H 0.50544 0.83153 0.19173 0.0
C566 C 0.46328 0.77014 0.15327 0.0
C567 C 0.44284 0.74052 0.12916 0.0
C568 C 0.4868 0.80855 0.13409 0.0
C569 C 0.44705 0.74979 0.08547 0.0
C570 C 0.46996 0.78811 0.06622 0.0
C571 C 0.5115 0.85719 0.07095 0.0
C572 C 0.53089 0.88738 0.09496 0.0
C573 C 0.48963 0.8179 0.09019 0.0
C574 C 0.52903 0.87712 0.13862 0.0
C575 C 0.50706 0.83817 0.15801 0.0
H576 H 0.10798 0.33063 0.56771 0.0
H577 H 0.02565 0.30514 0.67627 0.0
H578 H 1.00484 0.23106 0.66017 0.0
H579 H 1.01186 0.17259 0.61567 0.0
H580 H 0.09688 0.19862 0.5093 0.0
H581 H 0.11409 0.27389 0.52332 0.0
C582 C 0.08499 0.30914 0.58757 0.0
C583 C 0.06809 0.32353 0.62293 0.0
C584 C 0.07345 0.26681 0.57822 0.0
C585 C 0.03923 0.29478 0.64895 0.0
C586 C 0.02718 0.25254 0.63961 0.0
C587 C 0.0335 0.19523 0.5953 0.0
C588 C 0.05261 0.18081 0.56109 0.0
C589 C 0.04418 0.23812 0.60436 0.0
C590 C 0.08148 0.2096 0.53541 0.0
C591 C 0.09148 0.25241 0.54357 0.0
H592 H 0.48692 0.22714 0.51336 0.0
H593 H 0.62074 0.23468 0.48778 0.0
H594 H 0.62892 0.30841 0.50711 0.0
H595 H 0.59753 0.37245 0.52765 0.0
H596 H 0.46397 0.36434 0.5555 0.0
H597 H 0.45629 0.2893 0.53915 0.0
C598 C 0.51779 0.24504 0.51207 0.0
C599 C 0.55286 0.22613 0.49787 0.0
C600 C 0.52236 0.28737 0.52356 0.0
C601 C 0.59301 0.24897 0.49757 0.0
C602 C 0.59777 0.29113 0.50869 0.0
C603 C 0.56681 0.35416 0.53037 0.0
C604 C 0.53139 0.37408 0.5424 0.0
C605 C 0.56257 0.31095 0.52107 0.0
C606 C 0.49181 0.3498 0.54623 0.0
C607 C 0.48731 0.30689 0.53677 0.0
loop_
_geom_bond_atom_site_label_1
_geom_bond_atom_site_label_2
_geom_bond_distance
_geom_bond_site_symmetry_2
_ccdc_geom_bond_type
H0 C7 0.929 . S
H1 C10 0.930 . S
H2 C12 0.929 . S
H3 C4 0.969 . S
C4 H3 0.969 . S
C4 O5 1.550 . S
C4 H6 0.973 . S
O5 C4 1.550 . S
O5 C11 1.412 . S
H6 C4 0.973 . S
C7 H0 0.929 . S
C7 C8 1.400 . S
C7 C9 1.364 . S
C8 C7 1.400 . S
C8 C12 1.377 . S
C9 C7 1.364 . S
C9 C10 1.374 . S
C10 H1 0.930 . S
C10 C9 1.374 . S
C10 C11 1.383 . S
C11 O5 1.412 . S
C11 C10 1.383 . S
C11 C12 1.394 . S
C12 H2 0.929 . S
C12 C8 1.377 . S
C12 C11 1.394 . S
H13 C20 0.929 . S
H14 C23 0.930 . S
H15 C25 0.929 . S
H16 C17 0.969 . S
C17 H16 0.969 . S
C17 O18 1.550 . S
C17 H19 0.973 . S
O18 C17 1.550 . S
O18 C24 1.412 . S
H19 C17 0.973 . S
C20 H13 0.929 . S
C20 C21 1.400 . S
C20 C22 1.364 . S
C21 C20 1.400 . S
C21 C25 1.377 . S
C22 C20 1.364 . S
C22 C23 1.374 . S
C23 H14 0.930 . S
C23 C22 1.374 . S
C23 C24 1.383 . S
C24 O18 1.412 . S
C24 C23 1.383 . S
C24 C25 1.394 . S
C25 H15 0.929 . S
C25 C21 1.377 . S
C25 C24 1.394 . S
H26 C33 0.929 . S
H27 C36 0.930 . S
H28 C38 0.929 . S
H29 C30 0.969 . S
C30 H29 0.969 . S
C30 O31 1.550 . S
C30 H32 0.973 . S
O31 C30 1.550 . S
O31 C37 1.412 . S
H32 C30 0.973 . S
C33 H26 0.929 . S
C33 C34 1.400 . S
C33 C35 1.364 . S
C34 C33 1.400 . S
C34 C38 1.377 . S
C35 C33 1.364 . S
C35 C36 1.374 . S
C36 H27 0.930 . S
C36 C35 1.374 . S
C36 C37 1.383 . S
C37 O31 1.412 . S
C37 C36 1.383 . S
C37 C38 1.394 . S
C38 H28 0.929 . S
C38 C34 1.377 . S
C38 C37 1.394 . S
H39 C46 0.929 . S
H40 C49 0.930 . S
H41 C51 0.929 . S
H42 C43 0.969 . S
C43 H42 0.969 . S
C43 O44 1.550 . S
C43 H45 0.973 . S
O44 C43 1.550 . S
O44 C50 1.412 . S
H45 C43 0.973 . S
C46 H39 0.929 . S
C46 C47 1.400 . S
C46 C48 1.364 . S
C47 C46 1.400 . S
C47 C51 1.377 . S
C48 C46 1.364 . S
C48 C49 1.374 . S
C49 H40 0.930 . S
C49 C48 1.374 . S
C49 C50 1.383 . S
C50 O44 1.412 . S
C50 C49 1.383 . S
C50 C51 1.394 . S
C51 H41 0.929 . S
C51 C47 1.377 . S
C51 C50 1.394 . S
H52 C59 0.929 . S
H53 C62 0.930 . S
H54 C64 0.929 . S
H55 C56 0.969 . S
C56 H55 0.969 . S
C56 O57 1.550 . S
C56 H58 0.973 . S
O57 C56 1.550 . S
O57 C63 1.412 . S
H58 C56 0.973 . S
C59 H52 0.929 . S
C59 C60 1.400 . S
C59 C61 1.364 . S
C60 C59 1.400 . S
C60 C64 1.377 . S
C61 C59 1.364 . S
C61 C62 1.374 . S
C62 H53 0.930 . S
C62 C61 1.374 . S
C62 C63 1.383 . S
C63 O57 1.412 . S
C63 C62 1.383 . S
C63 C64 1.394 . S
C64 H54 0.929 . S
C64 C60 1.377 . S
C64 C63 1.394 . S
H65 C72 0.929 . S
H66 C75 0.930 . S
H67 C77 0.929 . S
H68 C69 0.969 . S
C69 H68 0.969 . S
C69 O70 1.550 . S
C69 H71 0.973 . S
O70 C69 1.550 . S
O70 C76 1.412 . S
H71 C69 0.973 . S
C72 H65 0.929 . S
C72 C73 1.400 . S
C72 C74 1.364 . S
C73 C72 1.400 . S
C73 C77 1.377 . S
C74 C72 1.364 . S
C74 C75 1.374 . S
C75 H66 0.930 . S
C75 C74 1.374 . S
C75 C76 1.383 . S
C76 O70 1.412 . S
C76 C75 1.383 . S
C76 C77 1.394 . S
C77 H67 0.929 . S
C77 C73 1.377 . S
C77 C76 1.394 . S
H78 C85 0.929 . S
H79 C88 0.930 . S
H80 C90 0.929 . S
H81 C82 0.969 . S
C82 H81 0.969 . S
C82 O83 1.550 . S
C82 H84 0.973 . S
O83 C82 1.550 . S
O83 C89 1.412 . S
H84 C82 0.973 . S
C85 H78 0.929 . S
C85 C86 1.400 . S
C85 C87 1.364 . S
C86 C85 1.400 . S
C86 C90 1.377 . S
C87 C85 1.364 . S
C87 C88 1.374 . S
C88 H79 0.930 . S
C88 C87 1.374 . S
C88 C89 1.383 . S
C89 O83 1.412 . S
C89 C88 1.383 . S
C89 C90 1.394 . S
C90 H80 0.929 . S
C90 C86 1.377 . S
C90 C89 1.394 . S
H91 C98 0.929 . S
H92 C101 0.930 . S
H93 C103 0.929 . S
H94 C95 0.969 . S
C95 H94 0.969 . S
C95 O96 1.550 . S
C95 H97 0.973 . S
O96 C95 1.550 . S
O96 C102 1.412 . S
H97 C95 0.973 . S
C98 H91 0.929 . S
C98 C99 1.400 . S
C98 C100 1.364 . S
C99 C98 1.400 . S
C99 C103 1.377 . S
C100 C98 1.364 . S
C100 C101 1.374 . S
C101 H92 0.930 . S
C101 C100 1.374 . S
C101 C102 1.383 . S
C102 O96 1.412 . S
C102 C101 1.383 . S
C102 C103 1.394 . S
C103 H93 0.929 . S
C103 C99 1.377 . S
C103 C102 1.394 . S
Co104 N109 2.057 . S
Co104 O121 2.021 . S
Co104 O124 2.062 . S
Co104 O128 2.117 1_545 S
Co104 O129 2.020 . S
C105 O125 1.259 1_655 S
C105 O128 1.258 . S
Co106 N115 2.057 . S
Co106 O122 2.117 1_565 S
Co106 O123 2.020 1_565 S
Co106 O125 2.021 . S
Co106 O130 2.062 . S
C107 N109 1.316 . S
C107 N110 1.347 . S
C107 H112 0.931 . S
C108 N109 1.375 1_565 S
C108 C111 1.350 1_565 S
C108 H113 0.930 . S
N109 Co104 2.057 . S
N109 C107 1.316 . S
N109 C108 1.375 1_545 S
N110 C107 1.347 . S
N110 C111 1.373 . S
C111 C108 1.350 1_545 S
C111 N110 1.373 . S
C111 H132 0.931 1_545 S
H112 C107 0.931 . S
H113 C108 0.930 . S
C114 O121 1.259 1_455 S
C114 O122 1.258 . S
N115 Co106 2.057 . S
N115 C116 1.316 . S
N115 C117 1.375 1_565 S
C116 N115 1.316 . S
C116 N118 1.347 . S
C116 H127 0.931 . S
C117 N115 1.375 1_545 S
C117 C119 1.350 . S
C117 H126 0.930 . S
N118 C116 1.347 . S
N118 C119 1.373 1_565 S
C119 C117 1.350 . S
C119 N118 1.373 1_545 S
C119 H133 0.931 . S
C120 O123 1.256 . S
C120 O124 1.255 1_455 S
O121 Co104 2.021 . S
O121 C114 1.259 1_655 S
O122 Co106 2.117 1_545 S
O122 C114 1.258 . S
O123 Co106 2.020 1_545 S
O123 C120 1.256 . S
O124 Co104 2.062 . S
O124 C120 1.255 1_655 S
O125 C105 1.259 1_455 S
O125 Co106 2.021 . S
H126 C117 0.930 . S
H127 C116 0.931 . S
O128 Co104 2.117 1_565 S
O128 C105 1.258 . S
O129 Co104 2.020 . S
O129 C131 1.256 1_545 S
O130 Co106 2.062 . S
O130 C131 1.255 1_455 S
C131 O129 1.256 1_565 S
C131 O130 1.255 1_655 S
H132 C111 0.931 1_565 S
H133 C119 0.931 . S
Co134 N139 2.057 1_545 S
Co134 O151 2.021 . S
Co134 O154 2.062 1_545 S
Co134 O158 2.117 1_546 S
Co134 O159 2.020 . S
C135 O155 1.259 . S
C135 O158 1.258 . S
Co136 N145 2.057 . S
Co136 O152 2.117 . S
Co136 O153 2.012 1_545 S
Co136 O155 2.021 1_545 S
Co136 O160 2.062 . S
C137 N139 1.316 . S
C137 N140 1.347 . S
C137 H142 0.931 1_565 S
C138 N139 1.375 . S
C138 C141 1.350 . S
C138 H143 0.930 . S
N139 Co134 2.057 1_565 S
N139 C137 1.316 . S
N139 C138 1.375 . S
N140 C137 1.347 . S
N140 C141 1.373 . S
C141 C138 1.350 . S
C141 N140 1.373 . S
C141 H162 0.931 . S
H142 C137 0.931 1_545 S
H143 C138 0.930 . S
C144 O151 1.259 . S
C144 O152 1.258 1_556 S
N145 Co136 2.057 . S
N145 C146 1.316 . S
N145 C147 1.375 . S
C146 N145 1.316 . S
C146 N148 1.347 . S
C146 H157 0.931 . S
C147 N145 1.375 . S
C147 C149 1.350 . S
C147 H156 0.930 . S
N148 C146 1.347 . S
N148 C149 1.373 . S
C149 C147 1.350 . S
C149 N148 1.373 . S
C149 H163 0.931 . S
C150 O153 1.262 1_556 S
C150 O154 1.255 . S
O151 Co134 2.021 . S
O151 C144 1.259 . S
O152 Co136 2.117 . S
O152 C144 1.258 1_554 S
O153 Co136 2.012 1_565 S
O153 C150 1.262 1_554 S
O154 Co134 2.062 1_565 S
O154 C150 1.255 . S
O155 C135 1.259 . S
O155 Co136 2.021 1_565 S
H156 C147 0.930 . S
H157 C146 0.931 . S
O158 Co134 2.117 1_564 S
O158 C135 1.258 . S
O159 Co134 2.020 . S
O159 C161 1.256 1_556 S
O160 Co136 2.062 . S
O160 C161 1.255 . S
C161 O159 1.256 1_554 S
C161 O160 1.255 . S
H162 C141 0.931 . S
H163 C149 0.931 . S
Co164 N169 2.057 . S
Co164 O181 2.021 . S
Co164 O184 2.062 . S
Co164 O188 2.117 . S
Co164 O189 2.020 . S
C165 O185 1.259 . S
C165 O188 1.258 . S
Co166 N175 2.057 . S
Co166 O182 2.117 . S
Co166 O183 2.020 . S
Co166 O185 2.021 . S
Co166 O190 2.062 . S
C167 N169 1.316 . S
C167 N170 1.347 . S
C167 H172 0.931 . S
C168 N169 1.375 . S
C168 C171 1.350 . S
C168 H173 0.930 . S
N169 Co164 2.057 . S
N169 C167 1.316 . S
N169 C168 1.375 . S
N170 C167 1.347 . S
N170 C171 1.373 . S
C171 C168 1.350 . S
C171 N170 1.373 . S
C171 H192 0.931 . S
H172 C167 0.931 . S
H173 C168 0.930 . S
C174 O181 1.259 . S
C174 O182 1.258 . S
N175 Co166 2.057 . S
N175 C176 1.316 . S
N175 C177 1.375 . S
C176 N175 1.316 . S
C176 N178 1.347 . S
C176 H187 0.931 . S
C177 N175 1.375 . S
C177 C179 1.350 . S
C177 H186 0.930 . S
N178 C176 1.347 . S
N178 C179 1.373 . S
C179 C177 1.350 . S
C179 N178 1.373 . S
C179 H193 0.931 . S
C180 O183 1.256 . S
C180 O184 1.255 . S
O181 Co164 2.021 . S
O181 C174 1.259 . S
O182 Co166 2.117 . S
O182 C174 1.258 . S
O183 Co166 2.020 . S
O183 C180 1.256 . S
O184 Co164 2.062 . S
O184 C180 1.255 . S
O185 C165 1.259 . S
O185 Co166 2.021 . S
H186 C177 0.930 . S
H187 C176 0.931 . S
O188 Co164 2.117 . S
O188 C165 1.258 . S
O189 Co164 2.020 . S
O189 C191 1.256 . S
O190 Co166 2.062 . S
O190 C191 1.255 . S
C191 O189 1.256 . S
C191 O190 1.255 . S
H192 C171 0.931 . S
H193 C179 0.931 . S
Co194 N199 2.057 . S
Co194 O211 2.021 1_556 S
Co194 O214 2.062 1_556 S
Co194 O218 2.117 1_455 S
Co194 O219 2.020 . S
C195 O215 1.259 . S
C195 O218 1.258 1_554 S
Co196 N205 2.057 . S
Co196 O212 2.117 . S
Co196 O213 2.020 . S
Co196 O215 2.021 1_455 S
Co196 O220 2.062 . S
C197 N199 1.316 . S
C197 N200 1.347 . S
C197 H202 0.931 . S
C198 N199 1.375 . S
C198 C201 1.350 . S
C198 H203 0.930 1_455 S
N199 Co194 2.057 . S
N199 C197 1.316 . S
N199 C198 1.375 . S
N200 C197 1.347 . S
N200 C201 1.373 . S
C201 C198 1.350 . S
C201 N200 1.373 . S
C201 H222 0.931 . S
H202 C197 0.931 . S
H203 C198 0.930 1_655 S
C204 O211 1.259 . S
C204 O212 1.258 . S
N205 Co196 2.057 . S
N205 C206 1.316 1_455 S
N205 C207 1.375 . S
C206 N205 1.316 1_655 S
C206 N208 1.347 . S
C206 H217 0.931 . S
C207 N205 1.375 . S
C207 C209 1.350 . S
C207 H216 0.930 . S
N208 C206 1.347 . S
N208 C209 1.373 1_655 S
C209 C207 1.350 . S
C209 N208 1.373 1_455 S
C209 H223 0.931 . S
C210 O213 1.256 . S
C210 O214 1.255 . S
O211 Co194 2.021 1_554 S
O211 C204 1.259 . S
O212 Co196 2.117 . S
O212 C204 1.258 . S
O213 Co196 2.020 . S
O213 C210 1.256 . S
O214 Co194 2.062 1_554 S
O214 C210 1.255 . S
O215 C195 1.259 . S
O215 Co196 2.021 1_655 S
H216 C207 0.930 . S
H217 C206 0.931 . S
O218 Co194 2.117 1_655 S
O218 C195 1.258 1_556 S
O219 Co194 2.020 . S
O219 C221 1.256 1_556 S
O220 Co196 2.062 . S
O220 C221 1.255 . S
C221 O219 1.256 1_554 S
C221 O220 1.255 . S
H222 C201 0.931 . S
H223 C209 0.931 . S
H224 C230 0.930 . S
H225 C233 0.930 . S
H226 C234 0.930 . S
H227 C235 0.930 . S
H228 C238 0.930 . S
H229 C239 0.930 . S
C230 H224 0.930 . S
C230 C231 1.355 . S
C230 C232 1.415 . S
C231 C230 1.355 . S
C231 C233 1.419 . S
C232 C230 1.415 . S
C232 C237 1.425 . S
C232 C239 1.409 . S
C233 H225 0.930 . S
C233 C231 1.419 . S
C233 C234 1.362 . S
C234 H226 0.930 . S
C234 C233 1.362 . S
C234 C237 1.409 . S
C235 H227 0.930 . S
C235 C236 1.355 . S
C235 C237 1.415 . S
C236 C235 1.355 . S
C236 C238 1.419 . S
C237 C232 1.425 . S
C237 C234 1.409 . S
C237 C235 1.415 . S
C238 H228 0.930 . S
C238 C236 1.419 . S
C238 C239 1.362 . S
C239 H229 0.930 . S
C239 C232 1.409 . S
C239 C238 1.362 . S
H240 C246 0.930 . S
H241 C249 0.930 . S
H242 C250 0.930 . S
H243 C251 0.930 . S
H244 C254 0.930 1_545 S
H245 C255 0.930 1_545 S
C246 H240 0.930 . S
C246 C247 1.355 . S
C246 C248 1.415 . S
C247 C246 1.355 . S
C247 C249 1.419 . S
C248 C246 1.415 . S
C248 C253 1.425 . S
C248 C255 1.409 . S
C249 H241 0.930 . S
C249 C247 1.419 . S
C249 C250 1.362 . S
C250 H242 0.930 . S
C250 C249 1.362 . S
C250 C253 1.409 . S
C251 H243 0.930 . S
C251 C252 1.355 . S
C251 C253 1.415 . S
C252 C251 1.355 . S
C252 C254 1.419 . S
C253 C248 1.425 . S
C253 C250 1.409 . S
C253 C251 1.415 . S
C254 H244 0.930 1_565 S
C254 C252 1.419 . S
C254 C255 1.362 . S
C255 H245 0.930 1_565 S
C255 C248 1.409 . S
C255 C254 1.362 . S
H256 C262 0.930 . S
H257 C265 0.930 . S
H258 C266 0.930 . S
H259 C267 0.930 . S
H260 C270 0.930 . S
H261 C271 0.930 . S
C262 H256 0.930 . S
C262 C263 1.355 . S
C262 C264 1.415 . S
C263 C262 1.355 . S
C263 C265 1.419 . S
C264 C262 1.415 . S
C264 C269 1.425 . S
C264 C271 1.409 . S
C265 H257 0.930 . S
C265 C263 1.419 . S
C265 C266 1.362 . S
C266 H258 0.930 . S
C266 C265 1.362 . S
C266 C269 1.409 . S
C267 H259 0.930 . S
C267 C268 1.355 . S
C267 C269 1.415 . S
C268 C267 1.355 . S
C268 C270 1.419 . S
C269 C264 1.425 . S
C269 C266 1.409 . S
C269 C267 1.415 . S
C270 H260 0.930 . S
C270 C268 1.419 . S
C270 C271 1.362 . S
C271 H261 0.930 . S
C271 C264 1.409 . S
C271 C270 1.362 . S
H272 C278 0.930 . S
H273 C281 0.930 . S
H274 C282 0.930 . S
H275 C283 0.930 . S
H276 C286 0.930 . S
H277 C287 0.930 . S
C278 H272 0.930 . S
C278 C279 1.355 1_455 S
C278 C280 1.415 1_455 S
C279 C278 1.355 1_655 S
C279 C281 1.419 . S
C280 C278 1.415 1_655 S
C280 C285 1.425 . S
C280 C287 1.409 1_655 S
C281 H273 0.930 . S
C281 C279 1.419 . S
C281 C282 1.362 . S
C282 H274 0.930 . S
C282 C281 1.362 . S
C282 C285 1.409 . S
C283 H275 0.930 . S
C283 C284 1.355 . S
C283 C285 1.415 . S
C284 C283 1.355 . S
C284 C286 1.419 1_655 S
C285 C280 1.425 . S
C285 C282 1.409 . S
C285 C283 1.415 . S
C286 H276 0.930 . S
C286 C284 1.419 1_455 S
C286 C287 1.362 . S
C287 H277 0.930 . S
C287 C280 1.409 1_455 S
C287 C286 1.362 . S
H288 C294 0.930 . S
H289 C297 0.930 . S
H290 C298 0.930 . S
H291 C299 0.930 . S
H292 C302 0.930 1_565 S
H293 C303 0.930 1_565 S
C294 H288 0.930 . S
C294 C295 1.355 . S
C294 C296 1.415 . S
C295 C294 1.355 . S
C295 C297 1.419 . S
C296 C294 1.415 . S
C296 C301 1.425 . S
C296 C303 1.409 . S
C297 H289 0.930 . S
C297 C295 1.419 . S
C297 C298 1.362 . S
C298 H290 0.930 . S
C298 C297 1.362 . S
C298 C301 1.409 . S
C299 H291 0.930 . S
C299 C300 1.355 . S
C299 C301 1.415 . S
C300 C299 1.355 . S
C300 C302 1.419 . S
C301 C296 1.425 . S
C301 C298 1.409 . S
C301 C299 1.415 . S
C302 H292 0.930 1_545 S
C302 C300 1.419 . S
C302 C303 1.362 . S
C303 H293 0.930 1_545 S
C303 C296 1.409 . S
C303 C302 1.362 . S
H304 C310 0.930 . S
H305 C313 0.930 . S
H306 C314 0.930 . S
H307 C315 0.930 . S
H308 C318 0.930 . S
H309 C319 0.930 . S
C310 H304 0.930 . S
C310 C311 1.355 . S
C310 C312 1.415 . S
C311 C310 1.355 . S
C311 C313 1.419 . S
C312 C310 1.415 . S
C312 C317 1.425 . S
C312 C319 1.409 . S
C313 H305 0.930 . S
C313 C311 1.419 . S
C313 C314 1.362 . S
C314 H306 0.930 . S
C314 C313 1.362 . S
C314 C317 1.409 . S
C315 H307 0.930 . S
C315 C316 1.355 . S
C315 C317 1.415 . S
C316 C315 1.355 . S
C316 C318 1.419 . S
C317 C312 1.425 . S
C317 C314 1.409 . S
C317 C315 1.415 . S
C318 H308 0.930 . S
C318 C316 1.419 . S
C318 C319 1.362 . S
C319 H309 0.930 . S
C319 C312 1.409 . S
C319 C318 1.362 . S
H320 C326 0.930 . S
H321 C329 0.930 . S
H322 C330 0.930 1_554 S
H323 C331 0.930 . S
H324 C334 0.930 . S
H325 C335 0.930 . S
C326 H320 0.930 . S
C326 C327 1.355 . S
C326 C328 1.415 . S
C327 C326 1.355 . S
C327 C329 1.419 . S
C328 C326 1.415 . S
C328 C333 1.425 . S
C328 C335 1.409 . S
C329 H321 0.930 . S
C329 C327 1.419 . S
C329 C330 1.362 . S
C330 H322 0.930 1_556 S
C330 C329 1.362 . S
C330 C333 1.409 . S
C331 H323 0.930 . S
C331 C332 1.355 1_554 S
C331 C333 1.415 1_554 S
C332 C331 1.355 1_556 S
C332 C334 1.419 . S
C333 C328 1.425 . S
C333 C330 1.409 . S
C333 C331 1.415 1_556 S
C334 H324 0.930 . S
C334 C332 1.419 . S
C334 C335 1.362 . S
C335 H325 0.930 . S
C335 C328 1.409 . S
C335 C334 1.362 . S
H336 C342 0.930 . S
H337 C345 0.930 . S
H338 C346 0.930 . S
H339 C347 0.930 . S
H340 C350 0.930 . S
H341 C351 0.930 . S
C342 H336 0.930 . S
C342 C343 1.355 . S
C342 C344 1.415 . S
C343 C342 1.355 . S
C343 C345 1.419 . S
C344 C342 1.415 . S
C344 C349 1.425 . S
C344 C351 1.409 . S
C345 H337 0.930 . S
C345 C343 1.419 . S
C345 C346 1.362 . S
C346 H338 0.930 . S
C346 C345 1.362 . S
C346 C349 1.409 . S
C347 H339 0.930 . S
C347 C348 1.355 . S
C347 C349 1.415 . S
C348 C347 1.355 . S
C348 C350 1.419 . S
C349 C344 1.425 . S
C349 C346 1.409 . S
C349 C347 1.415 . S
C350 H340 0.930 . S
C350 C348 1.419 . S
C350 C351 1.362 . S
C351 H341 0.930 . S
C351 C344 1.409 . S
C351 C350 1.362 . S
H352 C358 0.930 . S
H353 C361 0.930 . S
H354 C362 0.930 . S
H355 C363 0.930 . S
H356 C366 0.930 1_655 S
H357 C367 0.937 . S
C358 H352 0.930 . S
C358 C359 1.355 . S
C358 C360 1.415 . S
C359 C358 1.355 . S
C359 C361 1.419 . S
C360 C358 1.415 . S
C360 C365 1.425 . S
C360 C367 1.409 . S
C361 H353 0.930 . S
C361 C359 1.419 . S
C361 C362 1.362 . S
C362 H354 0.930 . S
C362 C361 1.362 . S
C362 C365 1.409 . S
C363 H355 0.930 . S
C363 C364 1.355 . S
C363 C365 1.415 . S
C364 C363 1.355 . S
C364 C366 1.419 . S
C365 C360 1.425 . S
C365 C362 1.409 . S
C365 C363 1.415 . S
C366 H356 0.930 1_455 S
C366 C364 1.419 . S
C366 C367 1.362 . S
C367 H357 0.937 . S
C367 C360 1.409 . S
C367 C366 1.362 . S
H368 C374 0.930 . S
H369 C377 0.930 . S
H370 C378 0.930 1_554 S
H371 C379 0.930 1_554 S
H372 C382 0.930 . S
H373 C383 0.930 . S
C374 H368 0.930 . S
C374 C375 1.355 . S
C374 C376 1.415 . S
C375 C374 1.355 . S
C375 C377 1.419 . S
C376 C374 1.415 . S
C376 C381 1.425 . S
C376 C383 1.409 . S
C377 H369 0.930 . S
C377 C375 1.419 . S
C377 C378 1.362 . S
C378 H370 0.930 1_556 S
C378 C377 1.362 . S
C378 C381 1.409 . S
C379 H371 0.930 1_556 S
C379 C380 1.355 . S
C379 C381 1.415 . S
C380 C379 1.355 . S
C380 C382 1.419 . S
C381 C376 1.425 . S
C381 C378 1.409 . S
C381 C379 1.415 . S
C382 H372 0.930 . S
C382 C380 1.419 . S
C382 C383 1.362 . S
C383 H373 0.930 . S
C383 C376 1.409 . S
C383 C382 1.362 . S
H384 C390 0.930 1_455 S
H385 C393 0.930 . S
H386 C394 0.930 . S
H387 C395 0.930 . S
H388 C398 0.930 . S
H389 C399 0.930 . S
C390 H384 0.930 1_655 S
C390 C391 1.355 . S
C390 C392 1.415 . S
C391 C390 1.355 . S
C391 C393 1.419 . S
C392 C390 1.415 . S
C392 C397 1.425 . S
C392 C399 1.409 1_655 S
C393 H385 0.930 . S
C393 C391 1.419 . S
C393 C394 1.362 . S
C394 H386 0.930 . S
C394 C393 1.362 . S
C394 C397 1.409 . S
C395 H387 0.930 . S
C395 C396 1.355 . S
C395 C397 1.415 . S
C396 C395 1.355 . S
C396 C398 1.419 1_655 S
C397 C392 1.425 . S
C397 C394 1.409 . S
C397 C395 1.415 . S
C398 H388 0.930 . S
C398 C396 1.419 1_455 S
C398 C399 1.362 . S
C399 H389 0.930 . S
C399 C392 1.409 1_455 S
C399 C398 1.362 . S
H400 C406 0.930 . S
H401 C409 0.930 . S
H402 C410 0.930 . S
H403 C411 0.930 . S
H404 C414 0.930 . S
H405 C415 0.930 . S
C406 H400 0.930 . S
C406 C407 1.355 . S
C406 C408 1.415 . S
C407 C406 1.355 . S
C407 C409 1.419 . S
C408 C406 1.415 . S
C408 C413 1.425 . S
C408 C415 1.409 . S
C409 H401 0.930 . S
C409 C407 1.419 . S
C409 C410 1.362 . S
C410 H402 0.930 . S
C410 C409 1.362 . S
C410 C413 1.409 . S
C411 H403 0.930 . S
C411 C412 1.355 . S
C411 C413 1.415 . S
C412 C411 1.355 . S
C412 C414 1.419 . S
C413 C408 1.425 . S
C413 C410 1.409 . S
C413 C411 1.415 . S
C414 H404 0.930 . S
C414 C412 1.419 . S
C414 C415 1.362 . S
C415 H405 0.930 . S
C415 C408 1.409 . S
C415 C414 1.362 . S
H416 C422 0.930 . S
H417 C425 0.930 . S
H418 C426 0.930 . S
H419 C427 0.930 . S
H420 C430 0.930 . S
H421 C431 0.930 . S
C422 H416 0.930 . S
C422 C423 1.355 . S
C422 C424 1.415 . S
C423 C422 1.355 . S
C423 C425 1.419 . S
C424 C422 1.415 . S
C424 C429 1.425 . S
C424 C431 1.409 1_655 S
C425 H417 0.930 . S
C425 C423 1.419 . S
C425 C426 1.362 . S
C426 H418 0.930 . S
C426 C425 1.362 . S
C426 C429 1.409 . S
C427 H419 0.930 . S
C427 C428 1.355 . S
C427 C429 1.415 . S
C428 C427 1.355 . S
C428 C430 1.419 1_655 S
C429 C424 1.425 . S
C429 C426 1.409 . S
C429 C427 1.415 . S
C430 H420 0.930 . S
C430 C428 1.419 1_455 S
C430 C431 1.362 . S
C431 H421 0.930 . S
C431 C424 1.409 1_455 S
C431 C430 1.362 . S
H432 C438 0.930 . S
H433 C441 0.930 . S
H434 C442 0.930 . S
H435 C443 0.930 . S
H436 C446 0.930 . S
H437 C447 0.930 . S
C438 H432 0.930 . S
C438 C439 1.355 . S
C438 C440 1.415 . S
C439 C438 1.355 . S
C439 C441 1.419 . S
C440 C438 1.415 . S
C440 C445 1.425 . S
C440 C447 1.409 . S
C441 H433 0.930 . S
C441 C439 1.419 . S
C441 C442 1.362 . S
C442 H434 0.930 . S
C442 C441 1.362 . S
C442 C445 1.409 . S
C443 H435 0.930 . S
C443 C444 1.355 . S
C443 C445 1.415 . S
C444 C443 1.355 . S
C444 C446 1.419 . S
C445 C440 1.425 . S
C445 C442 1.409 . S
C445 C443 1.415 . S
C446 H436 0.930 . S
C446 C444 1.419 . S
C446 C447 1.362 . S
C447 H437 0.930 . S
C447 C440 1.409 . S
C447 C446 1.362 . S
H448 C454 0.930 . S
H449 C457 0.930 . S
H450 C458 0.930 . S
H451 C459 0.930 . S
H452 C462 0.930 . S
H453 C463 0.930 . S
C454 H448 0.930 . S
C454 C455 1.355 . S
C454 C456 1.415 . S
C455 C454 1.355 . S
C455 C457 1.419 . S
C456 C454 1.415 . S
C456 C461 1.425 . S
C456 C463 1.409 . S
C457 H449 0.930 . S
C457 C455 1.419 . S
C457 C458 1.362 . S
C458 H450 0.930 . S
C458 C457 1.362 . S
C458 C461 1.409 . S
C459 H451 0.930 . S
C459 C460 1.355 . S
C459 C461 1.415 . S
C460 C459 1.355 . S
C460 C462 1.419 . S
C461 C456 1.425 . S
C461 C458 1.409 . S
C461 C459 1.415 . S
C462 H452 0.930 . S
C462 C460 1.419 . S
C462 C463 1.362 . S
C463 H453 0.930 . S
C463 C456 1.409 . S
C463 C462 1.362 . S
H464 C470 0.930 . S
H465 C473 0.930 . S
H466 C474 0.930 . S
H467 C475 0.930 . S
H468 C478 0.930 . S
H469 C479 0.930 . S
C470 H464 0.930 . S
C470 C471 1.355 . S
C470 C472 1.415 . S
C471 C470 1.355 . S
C471 C473 1.419 . S
C472 C470 1.415 . S
C472 C477 1.425 . S
C472 C479 1.409 . S
C473 H465 0.930 . S
C473 C471 1.419 . S
C473 C474 1.362 . S
C474 H466 0.930 . S
C474 C473 1.362 . S
C474 C477 1.409 . S
C475 H467 0.930 . S
C475 C476 1.355 . S
C475 C477 1.415 . S
C476 C475 1.355 . S
C476 C478 1.419 . S
C477 C472 1.425 . S
C477 C474 1.409 . S
C477 C475 1.415 . S
C478 H468 0.930 . S
C478 C476 1.419 . S
C478 C479 1.362 . S
C479 H469 0.930 . S
C479 C472 1.409 . S
C479 C478 1.362 . S
H480 C486 0.930 . S
H481 C489 0.930 . S
H482 C490 0.930 . S
H483 C491 0.930 . S
H484 C494 0.930 . S
H485 C495 0.930 . S
C486 H480 0.930 . S
C486 C487 1.355 . S
C486 C488 1.415 . S
C487 C486 1.355 . S
C487 C489 1.419 . S
C488 C486 1.415 . S
C488 C493 1.425 . S
C488 C495 1.409 1_565 S
C489 H481 0.930 . S
C489 C487 1.419 . S
C489 C490 1.362 . S
C490 H482 0.930 . S
C490 C489 1.362 . S
C490 C493 1.409 . S
C491 H483 0.930 . S
C491 C492 1.355 . S
C491 C493 1.415 . S
C492 C491 1.355 . S
C492 C494 1.419 1_565 S
C493 C488 1.425 . S
C493 C490 1.409 . S
C493 C491 1.415 . S
C494 H484 0.930 . S
C494 C492 1.419 1_545 S
C494 C495 1.362 . S
C495 H485 0.930 . S
C495 C488 1.409 1_545 S
C495 C494 1.362 . S
H496 C502 0.930 . S
H497 C505 0.930 . S
H498 C506 0.930 . S
H499 C507 0.930 . S
H500 C510 0.930 . S
H501 C511 0.930 . S
C502 H496 0.930 . S
C502 C503 1.355 . S
C502 C504 1.415 . S
C503 C502 1.355 . S
C503 C505 1.419 . S
C504 C502 1.415 . S
C504 C509 1.425 . S
C504 C511 1.409 . S
C505 H497 0.930 . S
C505 C503 1.419 . S
C505 C506 1.362 . S
C506 H498 0.930 . S
C506 C505 1.362 . S
C506 C509 1.409 . S
C507 H499 0.930 . S
C507 C508 1.355 . S
C507 C509 1.415 . S
C508 C507 1.355 . S
C508 C510 1.419 . S
C509 C504 1.425 . S
C509 C506 1.409 . S
C509 C507 1.415 . S
C510 H500 0.930 . S
C510 C508 1.419 . S
C510 C511 1.362 . S
C511 H501 0.930 . S
C511 C504 1.409 . S
C511 C510 1.362 . S
H512 C518 0.930 . S
H513 C521 0.930 . S
H514 C522 0.930 . S
H515 C523 0.930 . S
H516 C526 0.930 . S
H517 C527 0.930 . S
C518 H512 0.930 . S
C518 C519 1.355 . S
C518 C520 1.415 . S
C519 C518 1.355 . S
C519 C521 1.419 . S
C520 C518 1.415 . S
C520 C525 1.425 . S
C520 C527 1.409 . S
C521 H513 0.930 . S
C521 C519 1.419 . S
C521 C522 1.362 . S
C522 H514 0.930 . S
C522 C521 1.362 . S
C522 C525 1.409 . S
C523 H515 0.930 . S
C523 C524 1.355 . S
C523 C525 1.415 . S
C524 C523 1.355 . S
C524 C526 1.419 . S
C525 C520 1.425 . S
C525 C522 1.409 . S
C525 C523 1.415 . S
C526 H516 0.930 . S
C526 C524 1.419 . S
C526 C527 1.362 . S
C527 H517 0.930 . S
C527 C520 1.409 . S
C527 C526 1.362 . S
H528 C534 0.930 . S
H529 C537 0.930 . S
H530 C538 0.930 . S
H531 C539 0.930 . S
H532 C542 0.930 . S
H533 C543 0.930 . S
C534 H528 0.930 . S
C534 C535 1.355 . S
C534 C536 1.415 . S
C535 C534 1.355 . S
C535 C537 1.419 . S
C536 C534 1.415 . S
C536 C541 1.425 . S
C536 C543 1.409 . S
C537 H529 0.930 . S
C537 C535 1.419 . S
C537 C538 1.362 . S
C538 H530 0.930 . S
C538 C537 1.362 . S
C538 C541 1.409 . S
C539 H531 0.930 . S
C539 C540 1.355 . S
C539 C541 1.415 . S
C540 C539 1.355 . S
C540 C542 1.419 . S
C541 C536 1.425 . S
C541 C538 1.409 . S
C541 C539 1.415 . S
C542 H532 0.930 . S
C542 C540 1.419 . S
C542 C543 1.362 . S
C543 H533 0.930 . S
C543 C536 1.409 . S
C543 C542 1.362 . S
H544 C550 0.930 . S
H545 C553 0.930 1_455 S
H546 C554 0.930 . S
H547 C555 0.930 . S
H548 C558 0.930 . S
H549 C559 0.930 . S
C550 H544 0.930 . S
C550 C551 1.355 . S
C550 C552 1.415 . S
C551 C550 1.355 . S
C551 C553 1.419 . S
C552 C550 1.415 . S
C552 C557 1.425 . S
C552 C559 1.409 . S
C553 H545 0.930 1_655 S
C553 C551 1.419 . S
C553 C554 1.362 1_655 S
C554 H546 0.930 . S
C554 C553 1.362 1_455 S
C554 C557 1.409 1_455 S
C555 H547 0.930 . S
C555 C556 1.355 1_455 S
C555 C557 1.415 1_455 S
C556 C555 1.355 1_655 S
C556 C558 1.419 . S
C557 C552 1.425 . S
C557 C554 1.409 1_655 S
C557 C555 1.415 1_655 S
C558 H548 0.930 . S
C558 C556 1.419 . S
C558 C559 1.362 . S
C559 H549 0.930 . S
C559 C552 1.409 . S
C559 C558 1.362 . S
H560 C566 0.930 . S
H561 C569 0.930 . S
H562 C570 0.930 . S
H563 C571 0.930 . S
H564 C574 0.930 . S
H565 C575 0.930 . S
C566 H560 0.930 . S
C566 C567 1.355 . S
C566 C568 1.415 . S
C567 C566 1.355 . S
C567 C569 1.419 . S
C568 C566 1.415 . S
C568 C573 1.425 . S
C568 C575 1.409 . S
C569 H561 0.930 . S
C569 C567 1.419 . S
C569 C570 1.362 . S
C570 H562 0.930 . S
C570 C569 1.362 . S
C570 C573 1.409 . S
C571 H563 0.930 . S
C571 C572 1.355 . S
C571 C573 1.415 . S
C572 C571 1.355 . S
C572 C574 1.419 . S
C573 C568 1.425 . S
C573 C570 1.409 . S
C573 C571 1.415 . S
C574 H564 0.930 . S
C574 C572 1.419 . S
C574 C575 1.362 . S
C575 H565 0.930 . S
C575 C568 1.409 . S
C575 C574 1.362 . S
H576 C582 0.930 . S
H577 C585 0.915 1_655 S
H578 C586 0.930 1_655 S
H579 C587 0.930 1_655 S
H580 C590 0.930 . S
H581 C591 0.930 . S
C582 H576 0.930 . S
C582 C583 1.355 . S
C582 C584 1.415 . S
C583 C582 1.355 . S
C583 C585 1.419 . S
C584 C582 1.415 . S
C584 C589 1.425 . S
C584 C591 1.409 . S
C585 H577 0.915 1_455 S
C585 C583 1.419 . S
C585 C586 1.362 . S
C586 H578 0.930 1_455 S
C586 C585 1.362 . S
C586 C589 1.409 . S
C587 H579 0.930 1_455 S
C587 C588 1.355 . S
C587 C589 1.415 . S
C588 C587 1.355 . S
C588 C590 1.419 . S
C589 C584 1.425 . S
C589 C586 1.409 . S
C589 C587 1.415 . S
C590 H580 0.930 . S
C590 C588 1.419 . S
C590 C591 1.362 . S
C591 H581 0.930 . S
C591 C584 1.409 . S
C591 C590 1.362 . S
H592 C598 0.930 . S
H593 C601 0.930 . S
H594 C602 0.930 . S
H595 C603 0.930 . S
H596 C606 0.930 . S
H597 C607 0.930 . S
C598 H592 0.930 . S
C598 C599 1.355 . S
C598 C600 1.415 . S
C599 C598 1.355 . S
C599 C601 1.419 . S
C600 C598 1.415 . S
C600 C605 1.425 . S
C600 C607 1.409 . S
C601 H593 0.930 . S
C601 C599 1.419 . S
C601 C602 1.362 . S
C602 H594 0.930 . S
C602 C601 1.362 . S
C602 C605 1.409 . S
C603 H595 0.930 . S
C603 C604 1.355 . S
C603 C605 1.415 . S
C604 C603 1.355 . S
C604 C606 1.419 . S
C605 C600 1.425 . S
C605 C602 1.409 . S
C605 C603 1.415 . S
C606 H596 0.930 . S
C606 C604 1.419 . S
C606 C607 1.362 . S
C607 H597 0.930 . S
C607 C600 1.409 . S
C607 C606 1.362 . S
C231 C9 2.477 . S
C236 C120 2.493 . S
C247 C21 1.071 . S
C252 N140 1.096 . S
C268 C174 1.707 . S
C263 C30 1.691 . S
C279 C43 0.956 . S
C284 N208 1.018 . S
C300 C161 2.200 . S
C295 C4 2.186 . S
C316 N118 1.499 . S
C311 C22 1.562 . S
C332 C195 1.700 1_556 S
C327 C34 1.702 . S
C348 N170 0.904 . S
C343 C48 0.970 . S
C359 C8 1.830 . S
C364 C210 1.846 . S
C380 C144 1.767 . S
C375 C35 1.760 . S
C391 C47 1.431 . S
C396 C105 1.440 . S
C407 C17 1.225 . S
C412 C191 1.214 . S
C428 C131 2.157 . S
C423 C60 2.130 . S
C439 C74 1.344 . S
C444 N148 1.337 . S
C455 C82 1.535 . S
C460 C165 1.512 . S
C471 C100 1.510 . S
C476 N200 1.411 . S
C487 C61 2.548 . S
C492 C150 2.565 . S
C508 N110 1.117 . S
C503 C73 1.163 . S
C524 C204 2.050 . S
C519 C87 2.051 . S
C540 N178 0.781 . S
C535 C95 0.645 . S
C551 C56 1.828 . S
C556 C221 1.867 1_656 S
C572 C135 1.784 . S
C567 C86 1.771 . S
C588 C114 1.447 . S
C583 C99 1.435 . S
C599 C69 1.332 . S
C604 C180 1.320 . S
